# Generated by pormake.
# Topology som, (6)-cn, num edge types: 1
# Building blocks:
#     Node 0, Type 0, BuildingBlock: CUKXOW_clean_sbu_0, # of connection points: 6
#     Node 1, Type 0, BuildingBlock: CUKXOW_clean_sbu_0, # of connection points: 6
#     Node 2, Type 0, BuildingBlock: CUKXOW_clean_sbu_0, # of connection points: 6
#     Node 3, Type 0, BuildingBlock: CUKXOW_clean_sbu_0, # of connection points: 6
#     Node 4, Type 0, BuildingBlock: CUKXOW_clean_sbu_0, # of connection points: 6
#     Node 5, Type 0, BuildingBlock: CUKXOW_clean_sbu_0, # of connection points: 6
#     Node 6, Type 0, BuildingBlock: CUKXOW_clean_sbu_0, # of connection points: 6
#     Node 7, Type 0, BuildingBlock: CUKXOW_clean_sbu_0, # of connection points: 6
#     Node 8, Type 0, BuildingBlock: CUKXOW_clean_sbu_0, # of connection points: 6
#     Node 9, Type 0, BuildingBlock: CUKXOW_clean_sbu_0, # of connection points: 6
#     Node 10, Type 0, BuildingBlock: CUKXOW_clean_sbu_0, # of connection points: 6
#     Node 11, Type 0, BuildingBlock: CUKXOW_clean_sbu_0, # of connection points: 6
#     Node 12, Type 0, BuildingBlock: CUKXOW_clean_sbu_0, # of connection points: 6
#     Node 13, Type 0, BuildingBlock: CUKXOW_clean_sbu_0, # of connection points: 6
#     Node 14, Type 0, BuildingBlock: CUKXOW_clean_sbu_0, # of connection points: 6
#     Node 15, Type 0, BuildingBlock: CUKXOW_clean_sbu_0, # of connection points: 6
#     Node 16, Type 0, BuildingBlock: CUKXOW_clean_sbu_0, # of connection points: 6
#     Node 17, Type 0, BuildingBlock: CUKXOW_clean_sbu_0, # of connection points: 6
#     Node 18, Type 0, BuildingBlock: CUKXOW_clean_sbu_0, # of connection points: 6
#     Node 19, Type 0, BuildingBlock: CUKXOW_clean_sbu_0, # of connection points: 6
#     Node 20, Type 0, BuildingBlock: CUKXOW_clean_sbu_0, # of connection points: 6
#     Node 21, Type 0, BuildingBlock: CUKXOW_clean_sbu_0, # of connection points: 6
#     Node 22, Type 0, BuildingBlock: CUKXOW_clean_sbu_0, # of connection points: 6
#     Node 23, Type 0, BuildingBlock: CUKXOW_clean_sbu_0, # of connection points: 6
#     Node 24, Type 0, BuildingBlock: CUKXOW_clean_sbu_0, # of connection points: 6
#     Node 25, Type 0, BuildingBlock: CUKXOW_clean_sbu_0, # of connection points: 6
#     Node 26, Type 0, BuildingBlock: CUKXOW_clean_sbu_0, # of connection points: 6
#     Node 27, Type 0, BuildingBlock: CUKXOW_clean_sbu_0, # of connection points: 6
#     Node 28, Type 0, BuildingBlock: CUKXOW_clean_sbu_0, # of connection points: 6
#     Node 29, Type 0, BuildingBlock: CUKXOW_clean_sbu_0, # of connection points: 6
#     Node 30, Type 0, BuildingBlock: CUKXOW_clean_sbu_0, # of connection points: 6
#     Node 31, Type 0, BuildingBlock: CUKXOW_clean_sbu_0, # of connection points: 6
#     Edge 32, Type (0, 0), BuildingBlock: KIFKEQ_clean_linker_1, # of connection points: 2
#     Edge 33, Type (0, 0), BuildingBlock: KIFKEQ_clean_linker_1, # of connection points: 2
#     Edge 34, Type (0, 0), BuildingBlock: KIFKEQ_clean_linker_1, # of connection points: 2
#     Edge 35, Type (0, 0), BuildingBlock: KIFKEQ_clean_linker_1, # of connection points: 2
#     Edge 36, Type (0, 0), BuildingBlock: KIFKEQ_clean_linker_1, # of connection points: 2
#     Edge 37, Type (0, 0), BuildingBlock: KIFKEQ_clean_linker_1, # of connection points: 2
#     Edge 38, Type (0, 0), BuildingBlock: KIFKEQ_clean_linker_1, # of connection points: 2
#     Edge 39, Type (0, 0), BuildingBlock: KIFKEQ_clean_linker_1, # of connection points: 2
#     Edge 40, Type (0, 0), BuildingBlock: KIFKEQ_clean_linker_1, # of connection points: 2
#     Edge 41, Type (0, 0), BuildingBlock: KIFKEQ_clean_linker_1, # of connection points: 2
#     Edge 42, Type (0, 0), BuildingBlock: KIFKEQ_clean_linker_1, # of connection points: 2
#     Edge 43, Type (0, 0), BuildingBlock: KIFKEQ_clean_linker_1, # of connection points: 2
#     Edge 44, Type (0, 0), BuildingBlock: KIFKEQ_clean_linker_1, # of connection points: 2
#     Edge 45, Type (0, 0), BuildingBlock: KIFKEQ_clean_linker_1, # of connection points: 2
#     Edge 46, Type (0, 0), BuildingBlock: KIFKEQ_clean_linker_1, # of connection points: 2
#     Edge 47, Type (0, 0), BuildingBlock: KIFKEQ_clean_linker_1, # of connection points: 2
#     Edge 48, Type (0, 0), BuildingBlock: KIFKEQ_clean_linker_1, # of connection points: 2
#     Edge 49, Type (0, 0), BuildingBlock: KIFKEQ_clean_linker_1, # of connection points: 2
#     Edge 50, Type (0, 0), BuildingBlock: KIFKEQ_clean_linker_1, # of connection points: 2
#     Edge 51, Type (0, 0), BuildingBlock: KIFKEQ_clean_linker_1, # of connection points: 2
#     Edge 52, Type (0, 0), BuildingBlock: KIFKEQ_clean_linker_1, # of connection points: 2
#     Edge 53, Type (0, 0), BuildingBlock: KIFKEQ_clean_linker_1, # of connection points: 2
#     Edge 54, Type (0, 0), BuildingBlock: KIFKEQ_clean_linker_1, # of connection points: 2
#     Edge 55, Type (0, 0), BuildingBlock: KIFKEQ_clean_linker_1, # of connection points: 2
#     Edge 56, Type (0, 0), BuildingBlock: KIFKEQ_clean_linker_1, # of connection points: 2
#     Edge 57, Type (0, 0), BuildingBlock: KIFKEQ_clean_linker_1, # of connection points: 2
#     Edge 58, Type (0, 0), BuildingBlock: KIFKEQ_clean_linker_1, # of connection points: 2
#     Edge 59, Type (0, 0), BuildingBlock: KIFKEQ_clean_linker_1, # of connection points: 2
#     Edge 60, Type (0, 0), BuildingBlock: KIFKEQ_clean_linker_1, # of connection points: 2
#     Edge 61, Type (0, 0), BuildingBlock: KIFKEQ_clean_linker_1, # of connection points: 2
#     Edge 62, Type (0, 0), BuildingBlock: KIFKEQ_clean_linker_1, # of connection points: 2
#     Edge 63, Type (0, 0), BuildingBlock: KIFKEQ_clean_linker_1, # of connection points: 2
#     Edge 64, Type (0, 0), BuildingBlock: KIFKEQ_clean_linker_1, # of connection points: 2
#     Edge 65, Type (0, 0), BuildingBlock: KIFKEQ_clean_linker_1, # of connection points: 2
#     Edge 66, Type (0, 0), BuildingBlock: KIFKEQ_clean_linker_1, # of connection points: 2
#     Edge 67, Type (0, 0), BuildingBlock: KIFKEQ_clean_linker_1, # of connection points: 2
#     Edge 68, Type (0, 0), BuildingBlock: KIFKEQ_clean_linker_1, # of connection points: 2
#     Edge 69, Type (0, 0), BuildingBlock: KIFKEQ_clean_linker_1, # of connection points: 2
#     Edge 70, Type (0, 0), BuildingBlock: KIFKEQ_clean_linker_1, # of connection points: 2
#     Edge 71, Type (0, 0), BuildingBlock: KIFKEQ_clean_linker_1, # of connection points: 2
#     Edge 72, Type (0, 0), BuildingBlock: KIFKEQ_clean_linker_1, # of connection points: 2
#     Edge 73, Type (0, 0), BuildingBlock: KIFKEQ_clean_linker_1, # of connection points: 2
#     Edge 74, Type (0, 0), BuildingBlock: KIFKEQ_clean_linker_1, # of connection points: 2
#     Edge 75, Type (0, 0), BuildingBlock: KIFKEQ_clean_linker_1, # of connection points: 2
#     Edge 76, Type (0, 0), BuildingBlock: KIFKEQ_clean_linker_1, # of connection points: 2
#     Edge 77, Type (0, 0), BuildingBlock: KIFKEQ_clean_linker_1, # of connection points: 2
#     Edge 78, Type (0, 0), BuildingBlock: KIFKEQ_clean_linker_1, # of connection points: 2
#     Edge 79, Type (0, 0), BuildingBlock: KIFKEQ_clean_linker_1, # of connection points: 2
#     Edge 80, Type (0, 0), BuildingBlock: KIFKEQ_clean_linker_1, # of connection points: 2
#     Edge 81, Type (0, 0), BuildingBlock: KIFKEQ_clean_linker_1, # of connection points: 2
#     Edge 82, Type (0, 0), BuildingBlock: KIFKEQ_clean_linker_1, # of connection points: 2
#     Edge 83, Type (0, 0), BuildingBlock: KIFKEQ_clean_linker_1, # of connection points: 2
#     Edge 84, Type (0, 0), BuildingBlock: KIFKEQ_clean_linker_1, # of connection points: 2
#     Edge 85, Type (0, 0), BuildingBlock: KIFKEQ_clean_linker_1, # of connection points: 2
#     Edge 86, Type (0, 0), BuildingBlock: KIFKEQ_clean_linker_1, # of connection points: 2
#     Edge 87, Type (0, 0), BuildingBlock: KIFKEQ_clean_linker_1, # of connection points: 2
#     Edge 88, Type (0, 0), BuildingBlock: KIFKEQ_clean_linker_1, # of connection points: 2
#     Edge 89, Type (0, 0), BuildingBlock: KIFKEQ_clean_linker_1, # of connection points: 2
#     Edge 90, Type (0, 0), BuildingBlock: KIFKEQ_clean_linker_1, # of connection points: 2
#     Edge 91, Type (0, 0), BuildingBlock: KIFKEQ_clean_linker_1, # of connection points: 2
#     Edge 92, Type (0, 0), BuildingBlock: KIFKEQ_clean_linker_1, # of connection points: 2
#     Edge 93, Type (0, 0), BuildingBlock: KIFKEQ_clean_linker_1, # of connection points: 2
#     Edge 94, Type (0, 0), BuildingBlock: KIFKEQ_clean_linker_1, # of connection points: 2
#     Edge 95, Type (0, 0), BuildingBlock: KIFKEQ_clean_linker_1, # of connection points: 2
#     Edge 96, Type (0, 0), BuildingBlock: KIFKEQ_clean_linker_1, # of connection points: 2
#     Edge 97, Type (0, 0), BuildingBlock: KIFKEQ_clean_linker_1, # of connection points: 2
#     Edge 98, Type (0, 0), BuildingBlock: KIFKEQ_clean_linker_1, # of connection points: 2
#     Edge 99, Type (0, 0), BuildingBlock: KIFKEQ_clean_linker_1, # of connection points: 2
#     Edge 100, Type (0, 0), BuildingBlock: KIFKEQ_clean_linker_1, # of connection points: 2
#     Edge 101, Type (0, 0), BuildingBlock: KIFKEQ_clean_linker_1, # of connection points: 2
#     Edge 102, Type (0, 0), BuildingBlock: KIFKEQ_clean_linker_1, # of connection points: 2
#     Edge 103, Type (0, 0), BuildingBlock: KIFKEQ_clean_linker_1, # of connection points: 2
#     Edge 104, Type (0, 0), BuildingBlock: KIFKEQ_clean_linker_1, # of connection points: 2
#     Edge 105, Type (0, 0), BuildingBlock: KIFKEQ_clean_linker_1, # of connection points: 2
#     Edge 106, Type (0, 0), BuildingBlock: KIFKEQ_clean_linker_1, # of connection points: 2
#     Edge 107, Type (0, 0), BuildingBlock: KIFKEQ_clean_linker_1, # of connection points: 2
#     Edge 108, Type (0, 0), BuildingBlock: KIFKEQ_clean_linker_1, # of connection points: 2
#     Edge 109, Type (0, 0), BuildingBlock: KIFKEQ_clean_linker_1, # of connection points: 2
#     Edge 110, Type (0, 0), BuildingBlock: KIFKEQ_clean_linker_1, # of connection points: 2
#     Edge 111, Type (0, 0), BuildingBlock: KIFKEQ_clean_linker_1, # of connection points: 2
#     Edge 112, Type (0, 0), BuildingBlock: KIFKEQ_clean_linker_1, # of connection points: 2
#     Edge 113, Type (0, 0), BuildingBlock: KIFKEQ_clean_linker_1, # of connection points: 2
#     Edge 114, Type (0, 0), BuildingBlock: KIFKEQ_clean_linker_1, # of connection points: 2
#     Edge 115, Type (0, 0), BuildingBlock: KIFKEQ_clean_linker_1, # of connection points: 2
#     Edge 116, Type (0, 0), BuildingBlock: KIFKEQ_clean_linker_1, # of connection points: 2
#     Edge 117, Type (0, 0), BuildingBlock: KIFKEQ_clean_linker_1, # of connection points: 2
#     Edge 118, Type (0, 0), BuildingBlock: KIFKEQ_clean_linker_1, # of connection points: 2
#     Edge 119, Type (0, 0), BuildingBlock: KIFKEQ_clean_linker_1, # of connection points: 2
#     Edge 120, Type (0, 0), BuildingBlock: KIFKEQ_clean_linker_1, # of connection points: 2
#     Edge 121, Type (0, 0), BuildingBlock: KIFKEQ_clean_linker_1, # of connection points: 2
#     Edge 122, Type (0, 0), BuildingBlock: KIFKEQ_clean_linker_1, # of connection points: 2
#     Edge 123, Type (0, 0), BuildingBlock: KIFKEQ_clean_linker_1, # of connection points: 2
#     Edge 124, Type (0, 0), BuildingBlock: KIFKEQ_clean_linker_1, # of connection points: 2
#     Edge 125, Type (0, 0), BuildingBlock: KIFKEQ_clean_linker_1, # of connection points: 2
#     Edge 126, Type (0, 0), BuildingBlock: KIFKEQ_clean_linker_1, # of connection points: 2
#     Edge 127, Type (0, 0), BuildingBlock: KIFKEQ_clean_linker_1, # of connection points: 2
# Relax obj value: 0.122
# Max RMSD: 0.178
# Mean RMSD: 0.177
data_MOF--net-som--node1-CUKXOW_clean_sbu_0--edge1-KIFKEQ_clean_linker_1
_symmetry_space_group_name_H-M    P1
_symmetry_Int_Tables_number       1
_symmetry_cell_setting            triclinic
loop_
_symmetry_equiv_pos_as_xyz
'x, y, z'
_cell_length_a     14.582735
_cell_length_b     72.302395
_cell_length_c     123.53505
_cell_angle_alpha  90.005051
_cell_angle_beta   89.915195
_cell_angle_gamma 89.947562
loop_
_atom_site_label
_atom_site_type_symbol
_atom_site_fract_x
_atom_site_fract_y
_atom_site_fract_z
_atom_type_partial_charge
Tb0 Tb 0.06302 0.47449 0.06153 0.0
C1 C 0.11171 0.49584 0.08291 0.0
Tb2 Tb 0.09652 0.51701 0.06072 0.0
O3 O 0.20622 0.46508 0.05959 0.0
O4 O 0.17408 0.49264 0.05982 0.0
O5 O 0.06542 0.48174 0.07869 0.0
C6 C 0.14162 0.55269 0.06214 0.0
O7 O 0.14081 0.51 0.077 0.0
C8 C 0.92405 0.50624 0.05887 0.0
C9 C 0.07929 0.49538 0.039 0.0
O10 O 0.08764 0.54394 0.06874 0.0
O11 O 0.17233 0.54121 0.05489 0.0
O12 O 0.95756 0.52118 0.0547 0.0
O13 O 0.98474 0.49885 0.06473 0.0
O14 O 0.1178 0.50973 0.04391 0.0
O15 O 1.04355 0.48115 0.04438 0.0
C16 C 0.98886 0.44071 0.06254 0.0
O17 O 0.969 0.45322 0.05535 0.0
O18 O 1.04862 0.44742 0.06923 0.0
C19 C 0.24051 0.48161 0.05921 0.0
Tb20 Tb 0.27523 0.77077 0.06094 0.0
C21 C 0.2274 0.74958 0.08277 0.0
Tb22 Tb 0.23663 0.72688 0.06087 0.0
O23 O 0.12962 0.77946 0.05983 0.0
O24 O 0.16551 0.75219 0.05962 0.0
O25 O 0.26858 0.76412 0.07821 0.0
C26 C 0.17789 0.69209 0.05894 0.0
O27 O 0.20111 0.73453 0.07739 0.0
C28 C 0.41491 0.73513 0.06286 0.0
C29 C 0.26994 0.74829 0.03926 0.0
O30 O 0.15664 0.70318 0.06686 0.0
O31 O 0.22883 0.70087 0.05204 0.0
O32 O 0.38206 0.7185 0.06285 0.0
O33 O 0.34667 0.74559 0.06214 0.0
O34 O 0.21981 0.73533 0.04407 0.0
O35 O 0.31309 0.76148 0.04474 0.0
C36 C 0.35115 0.80434 0.0604 0.0
O37 O 0.31137 0.79612 0.05234 0.0
O38 O 0.34971 0.79349 0.0688 0.0
C39 C 0.09718 0.76275 0.05939 0.0
Tb40 Tb 0.05716 0.76832 0.18439 0.0
C41 C 0.09303 0.74811 0.16266 0.0
Tb42 Tb 0.09236 0.72555 0.18451 0.0
O43 O 0.1961 0.77332 0.17842 0.0
O44 O 0.16942 0.75006 0.1878 0.0
O45 O 1.04442 0.76147 0.16731 0.0
C46 C 0.15512 0.69086 0.18324 0.0
O47 O 0.13151 0.73449 0.16826 0.0
C48 C 0.91363 0.73314 0.18365 0.0
C49 C 0.05513 0.74573 0.20666 0.0
O50 O 0.10874 0.69946 0.17585 0.0
O51 O 0.16913 0.70204 0.19132 0.0
O52 O 0.94729 0.7166 0.18424 0.0
O53 O 0.98123 0.74385 0.18367 0.0
O54 O 0.08901 0.73075 0.20183 0.0
O55 O 1.03033 0.76097 0.20133 0.0
C56 C 1.00149 0.80338 0.1861 0.0
O57 O 0.07477 0.79647 0.19046 0.0
O58 O 0.95822 0.79044 0.18088 0.0
C59 C 0.23023 0.75811 0.18225 0.0
Tb60 Tb 0.28076 0.47481 0.18453 0.0
C61 C 0.26164 0.4959 0.16273 0.0
Tb62 Tb 0.2603 0.5159 0.1856 0.0
O63 O 0.1462 0.47172 0.17745 0.0
O64 O 0.17052 0.49322 0.18841 0.0
O65 O 0.29595 0.48088 0.16739 0.0
C66 C 0.23082 0.55239 0.18418 0.0
O67 O 0.235 0.51051 0.16844 0.0
C68 C 0.42789 0.50337 0.18805 0.0
C69 C 0.26699 0.495 0.20746 0.0
O70 O 0.30826 0.54405 0.1827 0.0
O71 O 0.16823 0.54012 0.18632 0.0
O72 O 0.39475 0.51745 0.1932 0.0
O73 O 0.36883 0.49741 0.18149 0.0
O74 O 0.237 0.51013 0.20255 0.0
O75 O 0.29518 0.4802 0.20199 0.0
C76 C 0.32878 0.43908 0.1857 0.0
O77 O 0.24637 0.44557 0.18654 0.0
O78 O 0.38525 0.45277 0.18432 0.0
C79 C 0.11207 0.48631 0.18202 0.0
Tb80 Tb 1.01245 0.47684 0.93623 0.0
C81 C 1.02247 0.4989 0.9575 0.0
Tb82 Tb 1.03972 0.51769 0.9346 0.0
O83 O 0.15148 0.47256 0.94199 0.0
O84 O 0.12456 0.49433 0.93157 0.0
O85 O 0.97811 0.48528 0.95262 0.0
C86 C 0.08609 0.55358 0.93559 0.0
O87 O 0.06329 0.51214 0.95184 0.0
C88 C 0.86917 0.50655 0.93257 0.0
C89 C 1.02167 0.49584 0.91298 0.0
O90 O 1.00501 0.54685 0.93719 0.0
O91 O 0.14213 0.54004 0.93354 0.0
O92 O 0.90382 0.52052 0.92745 0.0
O93 O 0.92777 0.50015 0.93906 0.0
O94 O 0.05414 0.51112 0.91753 0.0
O95 O 0.99599 0.48124 0.91879 0.0
C96 C 0.96544 0.44092 0.93612 0.0
O97 O 0.93246 0.45345 0.92967 0.0
O98 O 1.02285 0.44872 0.94263 0.0
C99 C 0.1851 0.48717 0.93752 0.0
Tb100 Tb 0.85142 0.26593 0.93557 0.0
C101 C 0.83386 0.24579 0.95765 0.0
Tb102 Tb 0.82746 0.22461 0.93501 0.0
O103 O 0.7157 0.26934 0.94246 0.0
O104 O 0.74082 0.24759 0.93176 0.0
O105 O 0.86679 0.26066 0.95271 0.0
C106 C 0.77757 0.18897 0.93652 0.0
O107 O 0.80552 0.23096 0.95222 0.0
C108 C 0.99728 0.23591 0.93283 0.0
C109 C 0.85698 0.2448 0.91308 0.0
O110 O 0.856 0.19578 0.93938 0.0
O111 O 0.72631 0.2023 0.93291 0.0
O112 O 0.96479 0.22112 0.92832 0.0
O113 O 0.93702 0.24289 0.93892 0.0
O114 O 0.8193 0.23012 0.91773 0.0
O115 O 0.88404 0.2594 0.91874 0.0
C116 C 0.88917 0.30203 0.9334 0.0
O117 O 0.81624 0.29372 0.92997 0.0
O118 O 0.94252 0.28992 0.93798 0.0
C119 C 0.68158 0.25473 0.93797 0.0
Tb120 Tb 1.00595 0.26408 0.81045 0.0
C121 C 1.01931 0.24371 0.78847 0.0
Tb122 Tb 1.02808 0.22291 0.81123 0.0
O123 O 0.14059 0.26694 0.80322 0.0
O124 O 0.11627 0.24565 0.81426 0.0
O125 O 0.98722 0.25865 0.7934 0.0
C126 C 0.07685 0.18725 0.80977 0.0
O127 O 1.0481 0.22893 0.79392 0.0
C128 C 0.85895 0.23451 0.81354 0.0
C129 C 1.00186 0.24351 0.8331 0.0
O130 O 0.99798 0.19409 0.80709 0.0
O131 O 0.12912 0.20055 0.81318 0.0
O132 O 0.89146 0.2198 0.81815 0.0
O133 O 0.91879 0.24124 0.80731 0.0
O134 O 1.03786 0.2286 0.82848 0.0
O135 O 0.97527 0.25807 0.82738 0.0
C136 C 0.97204 0.30027 0.81247 0.0
O137 O 1.04613 0.29184 0.81543 0.0
O138 O 0.91521 0.28824 0.80846 0.0
C139 C 0.17495 0.25249 0.80787 0.0
Tb140 Tb 0.8598 0.47466 0.8107 0.0
C141 C 0.83876 0.49572 0.78914 0.0
Tb142 Tb 0.82709 0.51717 0.81145 0.0
O143 O 0.72245 0.47079 0.80408 0.0
O144 O 0.74761 0.49292 0.81438 0.0
O145 O 0.88293 0.48192 0.79392 0.0
C146 C 0.75454 0.55119 0.8111 0.0
O147 O 0.79711 0.50904 0.79472 0.0
C148 C 1.0049 0.50992 0.81003 0.0
C149 C 0.87693 0.49639 0.83303 0.0
O150 O 0.79101 0.54265 0.80294 0.0
O151 O 0.75666 0.54036 0.81949 0.0
O152 O 0.971 0.52646 0.81069 0.0
O153 O 0.93816 0.49896 0.81022 0.0
O154 O 0.83973 0.51147 0.8287 0.0
O155 O 0.8974 0.48136 0.82731 0.0
C156 C 0.9003 0.43888 0.81285 0.0
O157 O 0.83377 0.44748 0.81767 0.0
O158 O 0.94606 0.45055 0.80691 0.0
C159 C 0.68792 0.48554 0.80839 0.0
Tb160 Tb 0.06215 0.97239 0.5616 0.0
C161 C 0.1188 0.99217 0.58324 0.0
Tb162 Tb 0.0959 0.0152 0.56123 0.0
O163 O 0.20731 0.96361 0.56144 0.0
O164 O 0.17186 0.99081 0.56025 0.0
O165 O 0.08092 0.97718 0.57886 0.0
C166 C 0.14268 0.05062 0.5635 0.0
O167 O 0.13765 0.00744 0.57763 0.0
C168 C 0.92329 0.00463 0.55928 0.0
C169 C 0.0704 0.99437 0.53942 0.0
O170 O 0.085 0.04172 0.56957 0.0
O171 O 0.17598 0.03944 0.55622 0.0
O172 O 0.95651 0.01985 0.5554 0.0
O173 O 0.98457 -0.00311 0.56489 0.0
O174 O 0.11316 0.00832 0.54425 0.0
O175 O 1.03231 0.9805 0.54488 0.0
C176 C 0.99485 0.93805 0.561 0.0
O177 O 0.06012 0.94448 0.55498 0.0
O178 O 0.96518 0.95114 0.56734 0.0
C179 C 0.24006 0.9802 0.56051 0.0
Tb180 Tb 0.26899 0.26762 0.56076 0.0
C181 C 0.21057 0.24806 0.58241 0.0
Tb182 Tb 0.23542 0.22478 0.56059 0.0
O183 O 0.12392 0.27638 0.56034 0.0
O184 O 0.15935 0.24916 0.55943 0.0
O185 O 0.24902 0.26297 0.57802 0.0
C186 C 0.18886 0.1894 0.56303 0.0
O187 O 0.19184 0.23275 0.57685 0.0
C188 C 0.40816 0.2353 0.55875 0.0
C189 C 0.26502 0.24516 0.53875 0.0
O190 O 0.24598 0.19843 0.56909 0.0
O191 O 0.15596 0.20043 0.55567 0.0
O192 O 0.37529 0.22002 0.55495 0.0
O193 O 0.34641 0.24317 0.56426 0.0
O194 O 0.22064 0.23141 0.54358 0.0
O195 O 0.30202 0.25918 0.54419 0.0
C196 C 0.33517 0.30205 0.56042 0.0
O197 O 0.27202 0.29554 0.55413 0.0
O198 O 0.3636 0.28896 0.56682 0.0
C199 C 0.0912 0.25978 0.55952 0.0
Tb200 Tb 0.05189 0.26716 0.68454 0.0
C201 C 0.07674 0.24596 0.66262 0.0
Tb202 Tb 0.08627 0.22434 0.68491 0.0
O203 O 0.18971 0.27167 0.67818 0.0
O204 O 0.16415 0.24881 0.68797 0.0
O205 O 1.03711 0.26032 0.66747 0.0
C206 C 0.15084 0.18973 0.68585 0.0
O207 O 0.1106 0.23157 0.66801 0.0
C208 C 0.908 0.23195 0.68325 0.0
C209 C 0.05964 0.24565 0.70681 0.0
O210 O 0.17059 0.2017 0.67833 0.0
O211 O 0.09731 0.19749 0.69291 0.0
O212 O 0.94185 0.2154 0.68339 0.0
O213 O 0.97521 0.24272 0.68383 0.0
O214 O 0.10077 0.23156 0.7019 0.0
O215 O 1.02488 0.25996 0.70144 0.0
C216 C 0.99756 0.30238 0.68641 0.0
O217 O 0.06998 0.29521 0.69084 0.0
O218 O 0.95456 0.28961 0.68101 0.0
C219 C 0.22397 0.25654 0.68211 0.0
Tb220 Tb 0.30257 0.97372 0.68522 0.0
C221 C 0.27064 0.99355 0.66319 0.0
Tb222 Tb 0.27568 0.01498 0.68563 0.0
O223 O 0.16503 0.96968 0.67874 0.0
O224 O 0.19165 0.99179 0.68915 0.0
O225 O 0.30943 0.97902 0.66789 0.0
C226 C 0.23595 0.05103 0.68351 0.0
O227 O 0.24255 0.00815 0.66883 0.0
C228 C 0.44654 0.00409 0.68793 0.0
C229 C 0.29527 0.9951 0.70777 0.0
O230 O 0.30804 0.04276 0.67976 0.0
O231 O 0.18448 0.0389 0.68835 0.0
O232 O 0.41183 0.01869 0.6924 0.0
O233 O 0.38724 -0.00313 0.6818 0.0
O234 O 0.25907 0.00962 0.70279 0.0
O235 O 0.32697 0.98053 0.70234 0.0
C236 C 0.3554 0.93826 0.68697 0.0
O237 O 0.27712 0.94497 0.69002 0.0
O238 O 0.40478 0.95159 0.68301 0.0
C239 C 0.13165 0.98448 0.68318 0.0
Tb240 Tb 1.00049 0.9746 0.43547 0.0
C241 C 1.02013 -0.00414 0.45766 0.0
Tb242 Tb 1.0244 0.01767 0.43567 0.0
O243 O 0.1312 0.9719 0.42705 0.0
O244 O 0.11058 0.99396 0.43746 0.0
O245 O 0.98275 0.98149 0.4526 0.0
C246 C 0.08638 0.0524 0.43574 0.0
O247 O 0.05433 0.01033 0.4524 0.0
C248 C 0.84892 0.00828 0.43668 0.0
C249 C 0.97793 -0.00328 0.41374 0.0
O250 O 1.02548 0.04561 0.44228 0.0
O251 O 0.11427 0.03947 0.42916 0.0
O252 O 0.87761 0.02523 0.43678 0.0
O253 O 0.91871 -0.00178 0.43611 0.0
O254 O 1.01741 0.01139 0.41831 0.0
O255 O 0.95478 0.98165 0.41927 0.0
C256 C 0.96739 0.93852 0.4381 0.0
O257 O 0.91878 0.94968 0.43215 0.0
O258 O 1.03255 0.94781 0.44272 0.0
C259 C 0.16624 0.98708 0.43075 0.0
Tb260 Tb 0.86493 0.76485 0.4358 0.0
C261 C 0.83721 0.7425 0.45741 0.0
Tb262 Tb 0.83044 0.72216 0.43472 0.0
O263 O 0.72047 0.77401 0.43458 0.0
O264 O 0.75364 0.74667 0.43438 0.0
O265 O 0.8771 0.75698 0.45275 0.0
C266 C 0.7736 0.68709 0.43568 0.0
O267 O 0.80428 0.72829 0.4518 0.0
C268 C 1.00294 0.73274 0.43262 0.0
C269 C 0.86101 0.74406 0.4132 0.0
O270 O 0.8483 0.69349 0.43996 0.0
O271 O 0.72986 0.70052 0.43095 0.0
O272 O 0.96893 0.71777 0.42847 0.0
O273 O 0.94257 0.74024 0.43851 0.0
O274 O 0.81842 0.72976 0.41773 0.0
O275 O 0.89526 0.75801 0.41894 0.0
C276 C 0.93005 0.79936 0.43715 0.0
O277 O 0.93556 0.78878 0.42866 0.0
O278 O 0.89065 0.79026 0.4449 0.0
C279 C 0.6865 0.75751 0.43408 0.0
Tb280 Tb 1.00144 0.76654 0.31081 0.0
C281 C 1.01747 0.74539 0.28847 0.0
Tb282 Tb 1.02799 0.7234 0.31048 0.0
O283 O 0.13372 0.76969 0.31874 0.0
O284 O 0.11222 0.74737 0.3085 0.0
O285 O 0.98427 0.76009 0.29365 0.0
C286 C 0.09277 0.68882 0.30999 0.0
O287 O 1.05065 0.73065 0.29358 0.0
C288 C 0.85204 0.73253 0.31003 0.0
C289 C 0.98587 0.74415 0.3326 0.0
O290 O 1.0303 0.69558 0.30367 0.0
O291 O 0.1205 0.70169 0.3166 0.0
O292 O 0.88137 0.71561 0.30988 0.0
O293 O 0.9215 0.74268 0.31042 0.0
O294 O 1.02417 0.72946 0.32787 0.0
O295 O 0.96113 0.75922 0.32718 0.0
C296 C 0.95824 0.80235 0.30895 0.0
O297 O 0.91311 0.79027 0.31466 0.0
O298 O 1.02607 0.79413 0.30412 0.0
C299 C 0.16863 0.75446 0.31503 0.0
Tb300 Tb 0.84182 0.97746 0.31056 0.0
C301 C 0.82713 -0.00163 0.28866 0.0
Tb302 Tb 0.81774 0.01871 0.31155 0.0
O303 O 0.70679 0.97444 0.30345 0.0
O304 O 0.73093 0.99569 0.31449 0.0
O305 O 0.85944 0.98333 0.29348 0.0
C306 C 0.76596 0.05423 0.31011 0.0
O307 O 0.79791 0.01299 0.29423 0.0
C308 C 0.98737 0.00728 0.31374 0.0
C309 C 0.84324 -0.00215 0.33337 0.0
O310 O 0.84548 0.04766 0.30743 0.0
O311 O 0.71492 0.04075 0.31356 0.0
O312 O 0.95449 0.02193 0.3184 0.0
O313 O 0.92761 0.00055 0.30751 0.0
O314 O 0.80765 0.0128 0.32877 0.0
O315 O 0.87022 0.98329 0.32763 0.0
C316 C 0.8794 0.94125 0.31203 0.0
O317 O 0.80401 0.94924 0.31499 0.0
O318 O 0.93551 0.95375 0.30837 0.0
C319 C 0.67218 0.98884 0.30814 0.0
Tb320 Tb 0.56048 0.47186 0.56152 0.0
C321 C 0.6063 0.49261 0.58323 0.0
Tb322 Tb 0.58992 0.51475 0.56083 0.0
O323 O 0.70548 0.46342 0.56179 0.0
O324 O 0.66917 0.49066 0.56056 0.0
O325 O 0.5742 0.47715 0.57877 0.0
C326 C 0.62567 0.55073 0.56279 0.0
O327 O 0.62278 0.50803 0.57764 0.0
C328 C 0.41998 0.50311 0.5582 0.0
C329 C 0.57311 0.49334 0.53918 0.0
O330 O 0.55614 0.54215 0.56698 0.0
O331 O 0.67741 0.53891 0.55767 0.0
O332 O 0.45343 0.51795 0.55388 0.0
O333 O 0.47989 0.49608 0.56431 0.0
O334 O 0.61317 0.50758 0.54404 0.0
O335 O 0.53512 0.4794 0.54461 0.0
C336 C 0.49704 0.43722 0.56116 0.0
O337 O 0.56486 0.44355 0.55552 0.0
O338 O 0.46245 0.45057 0.56694 0.0
C339 C 0.73747 0.48006 0.5609 0.0
Tb340 Tb 0.78203 0.76698 0.56103 0.0
C341 C 0.75777 0.74629 0.58339 0.0
Tb342 Tb 0.75217 0.72414 0.5614 0.0
O343 O 0.64743 0.77111 0.5537 0.0
O344 O 0.67031 0.74837 0.56361 0.0
O345 O 0.79501 0.7607 0.57832 0.0
C346 C 0.69701 0.68914 0.56306 0.0
O347 O 0.72523 0.73169 0.57813 0.0
C348 C 0.92995 0.7324 0.56091 0.0
C349 C 0.77929 0.74457 0.53909 0.0
O350 O 0.75697 0.69722 0.56917 0.0
O351 O 0.66503 0.701 0.55606 0.0
O352 O 0.89754 0.71577 0.56075 0.0
O353 O 0.86172 0.74297 0.56123 0.0
O354 O 0.74279 0.73009 0.54414 0.0
O355 O 0.81015 0.75945 0.54426 0.0
C356 C 0.83727 0.80207 0.56265 0.0
O357 O 0.87472 0.78955 0.55652 0.0
O358 O 0.76964 0.79476 0.56797 0.0
C359 C 0.61285 0.7558 0.55734 0.0
Tb360 Tb 0.58008 0.76728 0.68541 0.0
C361 C 0.62185 0.74752 0.66363 0.0
Tb362 Tb 0.60915 0.72605 0.68592 0.0
O363 O 0.71866 0.7718 0.67935 0.0
O364 O 0.69147 0.74945 0.68959 0.0
O365 O 0.5786 0.76178 0.66808 0.0
C366 C 0.65421 0.69024 0.68384 0.0
O367 O 0.65067 0.73323 0.66945 0.0
C368 C 0.43674 0.73631 0.68767 0.0
C369 C 0.5826 0.74602 0.70797 0.0
O370 O 0.59554 0.69914 0.67794 0.0
O371 O 0.68937 0.70163 0.69083 0.0
O372 O 0.47082 0.72147 0.69189 0.0
O373 O 0.49717 0.74389 0.68184 0.0
O374 O 0.61933 0.73143 0.70312 0.0
O375 O 0.55323 0.76067 0.70247 0.0
C376 C 0.52517 0.80263 0.687 0.0
O377 O 0.60253 0.79602 0.69039 0.0
O378 O 0.4778 0.78927 0.68276 0.0
C379 C 0.7521 0.75704 0.6838 0.0
Tb380 Tb 0.78939 0.47417 0.68493 0.0
C381 C 0.75489 0.49422 0.66313 0.0
Tb382 Tb 0.76189 0.51544 0.68553 0.0
O383 O 0.65175 0.47017 0.6785 0.0
O384 O 0.67823 0.49216 0.68901 0.0
O385 O 0.79669 0.4799 0.66768 0.0
C386 C 0.71718 0.55128 0.68353 0.0
O387 O 0.72436 0.50844 0.6689 0.0
C388 C 0.93356 0.5049 0.68751 0.0
C389 C 0.78537 0.4952 0.70756 0.0
O390 O 0.77791 0.54253 0.67782 0.0
O391 O 0.67985 0.53974 0.69028 0.0
O392 O 0.89948 0.51976 0.69174 0.0
O393 O 0.87362 0.49747 0.68156 0.0
O394 O 0.75039 0.50997 0.70272 0.0
O395 O 0.81396 0.48049 0.70205 0.0
C396 C 0.84016 0.43857 0.6865 0.0
O397 O 0.76136 0.44535 0.68928 0.0
O398 O 0.89141 0.45191 0.6829 0.0
C399 C 0.61817 0.48484 0.68305 0.0
Tb400 Tb 0.4956 0.47523 0.43554 0.0
C401 C 0.51562 0.49636 0.4577 0.0
Tb402 Tb 0.52253 0.51834 0.43575 0.0
O403 O 0.62811 0.47188 0.42756 0.0
O404 O 0.60657 0.49432 0.43766 0.0
O405 O 0.4773 0.48211 0.45262 0.0
C406 C 0.58779 0.55282 0.43597 0.0
O407 O 0.55087 0.51077 0.45247 0.0
C408 C 0.34635 0.50926 0.43658 0.0
C409 C 0.47714 0.49757 0.41381 0.0
O410 O 0.52429 0.54636 0.44228 0.0
O411 O 0.61612 0.53973 0.42953 0.0
O412 O 0.3758 0.52616 0.43672 0.0
O413 O 0.41586 0.49912 0.43606 0.0
O414 O 0.51707 0.51216 0.4184 0.0
O415 O 0.45245 0.48259 0.41931 0.0
C416 C 0.45312 0.43948 0.43767 0.0
O417 O 0.41078 0.45118 0.43144 0.0
O418 O 0.51769 0.44803 0.44286 0.0
C419 C 0.66302 0.48717 0.43114 0.0
Tb420 Tb 0.36169 0.26412 0.43628 0.0
C421 C 0.34723 0.24147 0.45757 0.0
Tb422 Tb 0.32916 0.22166 0.43469 0.0
O423 O 0.22507 0.26713 0.44325 0.0
O424 O 0.2499 0.24605 0.43216 0.0
O425 O 0.38591 0.25609 0.45294 0.0
C426 C 0.25423 0.18797 0.43353 0.0
O427 O 0.30989 0.22772 0.45192 0.0
C428 C 0.50674 0.22877 0.43673 0.0
C429 C 0.36928 0.24422 0.41352 0.0
O430 O 0.23854 0.20003 0.44112 0.0
O431 O 0.3105 0.19505 0.42653 0.0
O432 O 0.47265 0.21225 0.43609 0.0
O433 O 0.44014 0.23979 0.43643 0.0
O434 O 0.3263 0.22968 0.4177 0.0
O435 O 0.39827 0.25829 0.41952 0.0
C436 C 0.39831 0.30022 0.43477 0.0
O437 O 0.33034 0.29171 0.43022 0.0
O438 O 0.44796 0.28826 0.44005 0.0
C439 C 0.19048 0.25283 0.43847 0.0
Tb440 Tb 0.5182 0.26645 0.31095 0.0
C441 C 0.53563 0.24607 0.28895 0.0
Tb442 Tb 0.54338 0.22518 0.31167 0.0
O443 O 0.65393 0.2699 0.30404 0.0
O444 O 0.62932 0.24825 0.31481 0.0
O445 O 0.50233 0.26095 0.29384 0.0
C446 C 0.59594 0.18972 0.31007 0.0
O447 O 0.56489 0.23137 0.29443 0.0
C448 C 0.37319 0.23635 0.31383 0.0
C449 C 0.51473 0.2456 0.33355 0.0
O450 O 0.51698 0.19632 0.30722 0.0
O451 O 0.64602 0.20314 0.31377 0.0
O452 O 0.40611 0.22162 0.31838 0.0
O453 O 0.43327 0.2433 0.30771 0.0
O454 O 0.55182 0.23082 0.32892 0.0
O455 O 0.48729 0.26015 0.32787 0.0
C456 C 0.47774 0.30244 0.3129 0.0
O457 O 0.55203 0.29447 0.31622 0.0
O458 O 0.4246 0.29005 0.30857 0.0
C459 C 0.68842 0.25535 0.30858 0.0
Tb460 Tb 0.34271 0.47682 0.31097 0.0
C461 C 0.32434 0.49713 0.289 0.0
Tb462 Tb 0.31621 0.51799 0.3117 0.0
O463 O 0.20644 0.47377 0.30397 0.0
O464 O 0.23204 0.49485 0.31508 0.0
O465 O 0.35981 0.48245 0.29387 0.0
C466 C 0.26391 0.55349 0.31041 0.0
O467 O 0.29372 0.51171 0.2945 0.0
C468 C 0.48737 0.50736 0.31382 0.0
C469 C 0.3447 0.49766 0.33357 0.0
O470 O 0.21108 0.53978 0.31311 0.0
O471 O 0.34501 0.54713 0.3083 0.0
O472 O 0.45282 0.52205 0.31824 0.0
O473 O 0.42792 0.50003 0.30774 0.0
O474 O 0.3061 0.51224 0.32891 0.0
O475 O 0.37378 0.48321 0.32788 0.0
C476 C 0.38165 0.44073 0.31289 0.0
O477 O 0.30715 0.44879 0.31609 0.0
O478 O 0.43578 0.45309 0.30869 0.0
C479 C 0.17253 0.48808 0.30884 0.0
Tb480 Tb 0.57723 0.97439 0.06123 0.0
C481 C 0.61993 0.99383 0.08309 0.0
Tb482 Tb 0.61231 0.01713 0.06157 0.0
O483 O 0.71734 0.96865 0.06641 0.0
O484 O 0.6893 0.9927 0.05776 0.0
O485 O 0.56982 0.98072 0.07845 0.0
C486 C 0.67185 0.05203 0.06297 0.0
O487 O 0.65663 0.00769 0.07752 0.0
C488 C 0.43379 0.00944 0.06297 0.0
C489 C 0.5684 -0.00212 0.0393 0.0
O490 O 0.63104 0.0428 0.07056 0.0
O491 O 0.68277 0.0413 0.0546 0.0
O492 O 0.46715 0.02599 0.0626 0.0
O493 O 0.50153 -0.00121 0.06258 0.0
O494 O 0.60304 0.01271 0.04419 0.0
O495 O 0.54589 0.9824 0.04453 0.0
C496 C 0.51635 0.93969 0.05961 0.0
O497 O 0.58143 0.94693 0.05382 0.0
O498 O 0.48417 0.95212 0.06621 0.0
C499 C 0.7509 0.98415 0.06294 0.0
Tb500 Tb 0.79008 0.26899 0.06164 0.0
C501 C 0.7615 0.24797 0.08344 0.0
Tb502 Tb 0.75706 0.22632 0.06116 0.0
O503 O 0.6521 0.27349 0.06795 0.0
O504 O 0.67803 0.25067 0.05814 0.0
O505 O 0.80369 0.26213 0.07871 0.0
C506 C 0.69414 0.19158 0.06074 0.0
O507 O 0.72696 0.23385 0.0779 0.0
C508 C 0.9352 0.23386 0.0627 0.0
C509 C 0.78428 0.2476 0.03928 0.0
O510 O 0.68962 0.20271 0.06898 0.0
O511 O 0.73094 0.20028 0.05265 0.0
O512 O 0.90158 0.21732 0.06236 0.0
O513 O 0.868 0.24466 0.06228 0.0
O514 O 0.7439 0.23337 0.04412 0.0
O515 O 0.81775 0.26197 0.04472 0.0
C516 C 0.84266 0.30426 0.0599 0.0
O517 O 0.77107 0.29699 0.05536 0.0
O518 O 0.88598 0.29154 0.06532 0.0
C519 C 0.61807 0.25839 0.06399 0.0
Tb520 Tb 0.56304 0.26943 0.1853 0.0
C521 C 0.61945 0.24984 0.16356 0.0
Tb522 Tb 0.59723 0.22672 0.18548 0.0
O523 O 0.70758 0.27849 0.18579 0.0
O524 O 0.67373 0.25111 0.18636 0.0
O525 O 0.58181 0.26481 0.16801 0.0
C526 C 0.64211 0.19116 0.18316 0.0
O527 O 0.63835 0.2345 0.16909 0.0
C528 C 0.42449 0.23731 0.18771 0.0
C529 C 0.5742 0.24713 0.20728 0.0
O530 O 0.5836 0.20015 0.17726 0.0
O531 O 0.67754 0.20235 0.19027 0.0
O532 O 0.45835 0.22217 0.19161 0.0
O533 O 0.48527 0.24503 0.18201 0.0
O534 O 0.61944 0.23365 0.20232 0.0
O535 O 0.53212 0.26061 0.20188 0.0
C536 C 0.49186 0.3035 0.18627 0.0
O537 O 0.54857 0.29632 0.19315 0.0
O538 O 0.47327 0.29131 0.17884 0.0
C539 C 0.7411 0.26191 0.18644 0.0
Tb540 Tb 0.79036 0.97463 0.18538 0.0
C541 C 0.75471 0.9941 0.16294 0.0
Tb542 Tb 0.75992 0.01757 0.18435 0.0
O543 O 0.65702 0.97068 0.19316 0.0
O544 O 0.67764 0.99322 0.18311 0.0
O545 O 0.79852 0.98042 0.16796 0.0
C546 C 0.69947 0.05234 0.18322 0.0
O547 O 0.72094 0.00865 0.16817 0.0
C548 C 0.93753 0.00883 0.18367 0.0
C549 C 0.79253 -0.00207 0.20685 0.0
O550 O 0.74241 0.04352 0.1756 0.0
O551 O 0.6881 0.04138 0.19147 0.0
O552 O 0.90668 0.02559 0.18316 0.0
O553 O 0.86844 -0.00133 0.18436 0.0
O554 O 0.7524 0.01192 0.2017 0.0
O555 O 0.82478 0.98306 0.20179 0.0
C556 C 0.84762 0.93961 0.18404 0.0
O557 O 0.8872 0.95257 0.18962 0.0
O558 O 0.77675 0.94644 0.17911 0.0
C559 C 0.62148 0.98601 0.18964 0.0
Tb560 Tb 0.50606 0.97674 0.93592 0.0
C561 C 0.52044 -0.00101 0.95753 0.0
Tb562 Tb 0.54149 0.0193 0.93486 0.0
O563 O 0.64453 0.97258 0.94217 0.0
O564 O 0.61876 0.99471 0.93192 0.0
O565 O 0.48202 0.98452 0.95268 0.0
C566 C 0.61606 0.05307 0.93383 0.0
O567 O 0.55889 0.01285 0.95206 0.0
C568 C 0.36323 0.01223 0.93694 0.0
C569 C 0.49647 -0.00228 0.91357 0.0
O570 O 0.63811 0.04033 0.9408 0.0
O571 O 0.55382 0.04659 0.92737 0.0
O572 O 0.39768 0.02874 0.93646 0.0
O573 O 0.42989 0.00126 0.93647 0.0
O574 O 0.5449 0.0115 0.9178 0.0
O575 O 0.46309 0.98398 0.91953 0.0
C576 C 0.46084 0.94105 0.9339 0.0
O577 O 0.51749 0.95001 0.92773 0.0
O578 O 0.42775 0.95232 0.94114 0.0
C579 C 0.6789 0.98734 0.93787 0.0
Tb580 Tb 0.34712 0.76669 0.93574 0.0
C581 C 0.32206 0.74628 0.95765 0.0
Tb582 Tb 0.31313 0.7238 0.93574 0.0
O583 O 0.20774 0.77159 0.94157 0.0
O584 O 0.23542 0.74825 0.93237 0.0
O585 O 0.36587 0.75997 0.9527 0.0
C586 C 0.24368 0.68954 0.93662 0.0
O587 O 0.28216 0.73252 0.9523 0.0
C588 C 0.49112 0.73151 0.9368 0.0
C589 C 0.36739 0.74321 0.91388 0.0
O590 O 0.30193 0.69663 0.94335 0.0
O591 O 0.22247 0.70194 0.92941 0.0
O592 O 0.45804 0.7149 0.9362 0.0
O593 O 0.42337 0.74225 0.9367 0.0
O594 O 0.33035 0.7283 0.91845 0.0
O595 O 0.3868 0.75864 0.91931 0.0
C596 C 0.39622 0.80212 0.93355 0.0
O597 O 0.33843 0.79336 0.92744 0.0
O598 O 0.42832 0.79077 0.9408 0.0
C599 C 0.17437 0.75624 0.93792 0.0
Tb600 Tb 0.49921 0.76566 0.81126 0.0
C601 C 0.52958 0.74406 0.78962 0.0
Tb602 Tb 0.53656 0.72168 0.81136 0.0
O603 O 0.64464 0.77394 0.81286 0.0
O604 O 0.60893 0.7468 0.81221 0.0
O605 O 0.48037 0.75712 0.7945 0.0
C606 C 0.60689 0.68761 0.81071 0.0
O607 O 0.57267 0.73077 0.79506 0.0
C608 C 0.3588 0.72996 0.81013 0.0
C609 C 0.49626 0.7432 0.8334 0.0
O610 O 0.55868 0.69536 0.80315 0.0
O611 O 0.61775 0.69927 0.81864 0.0
O612 O 0.39083 0.71323 0.81051 0.0
O613 O 0.4272 0.74047 0.81037 0.0
O614 O 0.53019 0.72807 0.82865 0.0
O615 O 0.47325 0.7586 0.82811 0.0
C616 C 0.44028 0.80046 0.80943 0.0
O617 O 0.41538 0.78902 0.81703 0.0
O618 O 0.49501 0.79202 0.80278 0.0
C619 C 0.67719 0.75728 0.81279 0.0
Tb620 Tb 0.34613 0.97531 0.8115 0.0
C621 C 0.33097 -0.00303 0.78965 0.0
Tb622 Tb 0.31124 0.01782 0.81217 0.0
O623 O 0.20738 0.97094 0.80543 0.0
O624 O 0.23363 0.99342 0.81538 0.0
O625 O 0.36769 0.98247 0.79463 0.0
C626 C 0.23629 0.05152 0.81309 0.0
O627 O 0.29503 0.01128 0.79496 0.0
C628 C 0.48924 0.0107 0.8101 0.0
C629 C 0.35706 -0.00331 0.83366 0.0
O630 O 0.21346 0.03864 0.80625 0.0
O631 O 0.29959 0.04523 0.81947 0.0
O632 O 0.45474 0.02723 0.81046 0.0
O633 O 0.42277 -0.00028 0.81066 0.0
O634 O 0.30909 0.01046 0.82932 0.0
O635 O 0.38952 0.98269 0.82783 0.0
C636 C 0.39292 0.93972 0.81302 0.0
O637 O 0.33754 0.94837 0.81951 0.0
O638 O 0.42406 0.95126 0.80583 0.0
C639 C 0.17332 0.98589 0.80954 0.0
H640 H 0.89658 0.4226 0.0465 0.0
H641 H 1.01672 0.41473 0.07806 0.0
H642 H 0.86311 0.38955 0.04545 0.0
H643 H 0.98025 0.38188 0.07728 0.0
H644 H 0.99445 0.32121 0.06817 0.0
H645 H 1.02737 0.35432 0.06864 0.0
H646 H 0.77117 0.3653 0.05225 0.0
H647 H 0.74073 0.3322 0.05143 0.0
C648 C 0.91432 0.41383 0.05329 0.0
C649 C 0.95927 0.42119 0.06235 0.0
C650 C 0.89504 0.39487 0.05272 0.0
C651 C 0.91961 0.38291 0.06124 0.0
C652 C 0.96219 0.39051 0.07044 0.0
C653 C 0.98221 0.4094 0.07096 0.0
C654 C 0.94576 0.33074 0.0646 0.0
C655 C 0.8652 0.32417 0.05976 0.0
C656 C 0.96403 0.34974 0.06495 0.0
C657 C 0.90161 0.36261 0.06056 0.0
C658 C 0.82147 0.35589 0.0556 0.0
C659 C 0.80373 0.33689 0.05516 0.0
H660 H 0.40096 0.92163 0.07343 0.0
H661 H 0.5744 0.91328 0.0455 0.0
H662 H 0.36515 0.88854 0.0737 0.0
H663 H 0.53893 0.88026 0.04577 0.0
H664 H 0.36548 0.8269 0.04292 0.0
H665 H 0.40523 0.85968 0.04266 0.0
H666 H 0.44607 0.85846 0.07727 0.0
H667 H 0.40596 0.82555 0.07752 0.0
C668 C 0.43095 0.91272 0.06732 0.0
C669 C 0.49019 0.91998 0.05943 0.0
C670 C 0.41114 0.89378 0.06753 0.0
C671 C 0.44957 0.88178 0.05978 0.0
C672 C 0.50777 0.88916 0.0518 0.0
C673 C 0.52817 0.90805 0.05165 0.0
C674 C 0.3838 0.8336 0.05046 0.0
C675 C 0.38278 0.82372 0.06024 0.0
C676 C 0.40673 0.85236 0.0503 0.0
C677 C 0.42837 0.86168 0.05995 0.0
C678 C 0.42863 0.8517 0.06973 0.0
C679 C 0.40648 0.83285 0.06986 0.0
H680 H 0.78967 0.91269 0.17027 0.0
H681 H 0.9623 0.92208 0.19805 0.0
H682 H 0.82733 0.87985 0.17074 0.0
H683 H 0.99609 0.88913 0.19901 0.0
H684 H 0.10991 0.83205 0.19206 0.0
H685 H 0.07546 0.86491 0.19118 0.0
H686 H 0.80177 0.85224 0.17991 0.0
H687 H 0.83917 0.81932 0.1802 0.0
C688 C 0.83549 0.90766 0.17651 0.0
C689 C 0.87347 0.91988 0.18409 0.0
C690 C 0.8564 0.88878 0.17687 0.0
C691 C 0.91451 0.88164 0.18496 0.0
C692 C 0.95248 0.89403 0.19253 0.0
C693 C 0.93285 0.91295 0.19203 0.0
C694 C 1.04231 0.83633 0.18942 0.0
C695 C 0.97715 0.82319 0.18619 0.0
C696 C 1.02217 0.85521 0.18898 0.0
C697 C 0.9356 0.86142 0.18548 0.0
C698 C 0.86981 0.84812 0.18243 0.0
C699 C 0.89071 0.82921 0.1827 0.0
H700 H 0.49933 0.42337 0.18632 0.0
H701 H 0.21102 0.41004 0.18521 0.0
H702 H 0.53667 0.3903 0.18641 0.0
H703 H 0.24818 0.37707 0.1852 0.0
H704 H 0.36686 0.32062 0.17308 0.0
H705 H 0.32673 0.3536 0.17285 0.0
H706 H 0.5136 0.36336 0.19931 0.0
H707 H 0.55288 0.33055 0.1996 0.0
C708 C 0.44411 0.41337 0.1861 0.0
C709 C 0.35241 0.41922 0.1858 0.0
C710 C 0.46534 0.39447 0.18617 0.0
C711 C 0.39524 0.38111 0.1858 0.0
C712 C 0.30359 0.38703 0.1854 0.0
C713 C 0.28239 0.40589 0.18547 0.0
C714 C 0.39867 0.32983 0.17888 0.0
C715 C 0.46281 0.32307 0.18636 0.0
C716 C 0.37575 0.34867 0.17876 0.0
C717 C 0.41761 0.36106 0.18602 0.0
C718 C 0.48117 0.35419 0.19354 0.0
C719 C 0.50309 0.33539 0.19375 0.0
H720 H 0.25589 0.56958 0.93509 0.0
H721 H 0.96702 0.58249 0.93621 0.0
H722 H 0.29188 0.6027 0.93526 0.0
H723 H 1.0028 0.61554 0.93626 0.0
H724 H 0.11378 0.67265 0.92399 0.0
H725 H 0.07479 0.63961 0.9236 0.0
H726 H 0.27385 0.62919 0.94871 0.0
H727 H 0.31183 0.66204 0.94917 0.0
C728 C 0.20024 0.5795 0.93536 0.0
C729 C 0.10879 0.5735 0.93567 0.0
C730 C 0.22072 0.59843 0.93548 0.0
C731 C 0.15007 0.61171 0.93576 0.0
C732 C 0.0586 0.60565 0.93595 0.0
C733 C 1.03822 0.58674 0.93599 0.0
C734 C 0.14855 0.66328 0.92946 0.0
C735 C 0.21565 0.66989 0.93662 0.0
C736 C 0.12627 0.64441 0.92925 0.0
C737 C 0.1718 0.6318 0.93607 0.0
C738 C 0.23846 0.63851 0.94326 0.0
C739 C 0.25968 0.65735 0.94358 0.0
H740 H 0.61535 0.17292 0.93077 0.0
H741 H 0.8871 0.16016 0.94236 0.0
H742 H 0.57904 0.13994 0.93024 0.0
H743 H 0.85225 0.12719 0.94155 0.0
H744 H 0.72568 0.07012 0.94876 0.0
H745 H 0.76414 0.103 0.94978 0.0
H746 H 0.61478 0.1127 0.92012 0.0
H747 H 0.57456 0.08002 0.91933 0.0
C748 C 0.66726 0.16303 0.9332 0.0
C749 C 0.75394 0.16908 0.9366 0.0
C750 C 0.64687 0.14412 0.93282 0.0
C751 C 0.7129 0.13081 0.93579 0.0
C752 C 0.79931 0.13698 0.93933 0.0
C753 C 0.81949 0.15589 0.93974 0.0
C754 C 0.70183 0.0793 0.94243 0.0
C755 C 0.64707 0.07254 0.93398 0.0
C756 C 0.72396 0.09815 0.94299 0.0
C757 C 0.69196 0.11062 0.93508 0.0
C758 C 0.63905 0.10364 0.92648 0.0
C759 C 0.61672 0.08486 0.92596 0.0
H760 H 0.96565 0.15855 0.80434 0.0
H761 H 0.23968 0.17116 0.81519 0.0
H762 H 0.99986 0.12554 0.80528 0.0
H763 H 0.27524 0.13815 0.81586 0.0
H764 H 0.27871 0.07865 0.8274 0.0
H765 H 0.2388 0.11133 0.82641 0.0
H766 H 0.0872 0.10114 0.79697 0.0
H767 H 0.1254 0.06825 0.79818 0.0
C768 C 1.03359 0.15423 0.80682 0.0
C769 C 0.10001 0.16737 0.80972 0.0
C770 C 0.05337 0.13531 0.80731 0.0
C771 C 0.14019 0.12912 0.8107 0.0
C772 C 0.20712 0.14238 0.81341 0.0
C773 C 0.18714 0.1613 0.81295 0.0
C774 C 0.2361 0.08338 0.82078 0.0
C775 C 0.20508 0.07094 0.81286 0.0
C776 C 0.21397 0.10215 0.82014 0.0
C777 C 0.16063 0.10897 0.81154 0.0
C778 C 0.12781 0.09638 0.80375 0.0
C779 C 0.14973 0.07754 0.80442 0.0
H780 H 0.57529 0.66246 0.79492 0.0
H781 H 0.69649 0.66827 0.82659 0.0
H782 H 0.60698 0.62944 0.79521 0.0
H783 H 0.73088 0.63507 0.82681 0.0
H784 H 0.68916 0.5719 0.82799 0.0
H785 H 0.65528 0.6051 0.828 0.0
H786 H 0.73104 0.60804 0.79421 0.0
H787 H 0.76216 0.57497 0.79417 0.0
C788 C 0.6099 0.65668 0.8019 0.0
C789 C 0.63374 0.66792 0.81072 0.0
C790 C 0.62836 0.63773 0.80206 0.0
C791 C 0.67155 0.62954 0.81103 0.0
C792 C 0.69642 0.64088 0.81983 0.0
C793 C 0.67766 0.6599 0.81967 0.0
C794 C 0.6975 0.57967 0.82056 0.0
C795 C 0.72771 0.57088 0.81107 0.0
C796 C 0.67908 0.5987 0.82059 0.0
C797 C 0.69063 0.60929 0.81111 0.0
C798 C 0.7201 0.60033 0.80161 0.0
C799 C 0.73819 0.58136 0.80159 0.0
H800 H 0.84032 0.92248 0.56987 0.0
H801 H 0.0912 0.90932 0.55299 0.0
H802 H 0.79997 0.88961 0.5702 0.0
H803 H 0.05527 0.87669 0.55394 0.0
H804 H 0.93447 0.82081 0.54748 0.0
H805 H 0.96639 0.85377 0.54686 0.0
H806 H 0.82994 0.86078 0.57773 0.0
H807 H 0.79272 0.82786 0.57786 0.0
C808 C 0.88692 0.91251 0.5663 0.0
C809 C 0.96828 0.91839 0.56132 0.0
C810 C 0.86447 0.89365 0.56656 0.0
C811 C 0.92402 0.8803 0.56205 0.0
C812 C 1.00611 0.88641 0.55723 0.0
C813 C 1.02727 0.90518 0.55676 0.0
C814 C 0.91166 0.82944 0.55413 0.0
C815 C 0.86157 0.82184 0.56273 0.0
C816 C 0.93036 0.84837 0.55384 0.0
C817 C 0.90148 0.86013 0.56229 0.0
C818 C 0.85205 0.85235 0.57097 0.0
C819 C 0.83151 0.83344 0.57113 0.0
H820 H 0.2416 0.33089 0.55192 0.0
H821 H 0.48481 0.3176 0.57025 0.0
H822 H 0.2788 0.36378 0.55306 0.0
H823 H 0.5235 0.35068 0.57111 0.0
H824 H 0.5998 0.40824 0.55453 0.0
H825 H 0.56167 0.37539 0.55525 0.0
H826 H 0.29878 0.38869 0.56933 0.0
H827 H 0.33814 0.42178 0.5689 0.0
C828 C 0.3033 0.33502 0.55615 0.0
C829 C 0.36069 0.32175 0.56096 0.0
C830 C 0.32403 0.35383 0.55687 0.0
C831 C 0.40357 0.3597 0.56222 0.0
C832 C 0.46163 0.34643 0.56696 0.0
C833 C 0.43972 0.32758 0.56645 0.0
C834 C 0.53393 0.40417 0.55781 0.0
C835 C 0.4716 0.41751 0.56162 0.0
C836 C 0.51257 0.38538 0.55829 0.0
C837 C 0.42763 0.37957 0.56238 0.0
C838 C 0.36482 0.39289 0.56615 0.0
C839 C 0.38716 0.41174 0.5659 0.0
H840 H 0.09629 0.33048 0.69524 0.0
H841 H 0.84337 0.31903 0.67844 0.0
H842 H 0.05907 0.36345 0.69542 0.0
H843 H 0.80589 0.35206 0.6786 0.0
H844 H 0.72848 0.4098 0.69164 0.0
H845 H 0.76568 0.37686 0.6918 0.0
H846 H 1.04366 0.38947 0.68224 0.0
H847 H 1.00612 0.42253 0.68208 0.0
C848 C 1.03253 0.33503 0.69162 0.0
C849 C 0.97261 0.32221 0.68684 0.0
C850 C 1.01153 0.35392 0.69165 0.0
C851 C 0.92967 0.3604 0.687 0.0
C852 C 0.86915 0.3475 0.68234 0.0
C853 C 0.89065 0.32861 0.68221 0.0
C854 C 0.7976 0.40554 0.6896 0.0
C855 C 0.86448 0.41871 0.68685 0.0
C856 C 0.81873 0.38666 0.68963 0.0
C857 C 0.90753 0.38052 0.68701 0.0
C858 C 0.97479 0.39376 0.68438 0.0
C859 C 0.95333 0.41266 0.68425 0.0
H860 H 0.36299 0.81829 0.68069 0.0
H861 H 0.62786 0.83151 0.69415 0.0
H862 H 0.32211 0.85116 0.68085 0.0
H863 H 0.58715 0.86428 0.69439 0.0
H864 H 0.51915 0.92255 0.68134 0.0
H865 H 0.5593 0.88967 0.68149 0.0
H866 H 0.28935 0.87652 0.69369 0.0
H867 H 0.24934 0.90934 0.69345 0.0
C868 C 0.41219 0.82823 0.68373 0.0
C869 C 0.49854 0.82237 0.6874 0.0
C870 C 0.38876 0.84703 0.68387 0.0
C871 C 0.45149 0.86038 0.68761 0.0
C872 C 0.53769 0.85442 0.69133 0.0
C873 C 0.56079 0.83564 0.69125 0.0
C874 C 0.46867 0.91261 0.68408 0.0
C875 C 0.38122 0.91848 0.68739 0.0
C876 C 0.49167 0.89379 0.68422 0.0
C877 C 0.42745 0.88043 0.68759 0.0
C878 C 0.34004 0.88639 0.69092 0.0
C879 C 0.31732 0.90521 0.69086 0.0
H880 H 1.00185 0.08076 0.446 0.0
H881 H 0.22802 0.06855 0.42461 0.0
H882 H 1.03748 0.11351 0.44505 0.0
H883 H 0.26768 0.10141 0.42407 0.0
H884 H 0.26572 0.1631 0.41705 0.0
H885 H 0.22416 0.13043 0.41739 0.0
H886 H 0.13867 0.13613 0.45078 0.0
H887 H 0.17577 0.16895 0.45015 0.0
C888 C 0.06019 0.08511 0.4412 0.0
C889 C 0.11232 0.07213 0.43539 0.0
C890 C 0.08112 0.10393 0.4407 0.0
C891 C 0.15587 0.11028 0.43452 0.0
C892 C 0.20864 0.09717 0.42877 0.0
C893 C 0.18662 0.0783 0.42914 0.0
C894 C 0.23696 0.15734 0.4244 0.0
C895 C 0.22341 0.16853 0.43355 0.0
C896 C 0.21408 0.13855 0.42465 0.0
C897 C 0.17837 0.13045 0.43413 0.0
C898 C 0.16437 0.14182 0.44326 0.0
C899 C 0.18593 0.16067 0.44294 0.0
H900 H 0.60779 0.67249 0.43007 0.0
H901 H 0.87831 0.65741 0.44115 0.0
H902 H 0.56381 0.63975 0.42992 0.0
H903 H 0.83492 0.62471 0.4408 0.0
H904 H 0.73958 0.56771 0.42621 0.0
H905 H 0.78559 0.60042 0.426 0.0
H906 H 0.5463 0.61447 0.4449 0.0
H907 H 0.50155 0.58193 0.4453 0.0
C908 C 0.65773 0.66217 0.43245 0.0
C909 C 0.74623 0.66744 0.43566 0.0
C910 C 0.63263 0.64348 0.43238 0.0
C911 C 0.69617 0.62973 0.43531 0.0
C912 C 0.78496 0.63502 0.43841 0.0
C913 C 0.80949 0.65371 0.43867 0.0
C914 C 0.6972 0.57783 0.43033 0.0
C915 C 0.61724 0.57234 0.43579 0.0
C916 C 0.72351 0.59648 0.43023 0.0
C917 C 0.66918 0.60995 0.4354 0.0
C918 C 0.58894 0.60441 0.44078 0.0
C919 C 0.56371 0.58578 0.44105 0.0
H920 H 0.37828 0.5829 0.30826 0.0
H921 H 0.09308 0.5687 0.31252 0.0
H922 H 0.33853 0.61576 0.30842 0.0
H923 H 0.05302 0.60164 0.3126 0.0
H924 H 1.01537 0.6607 0.29876 0.0
H925 H 0.05641 0.62798 0.29907 0.0
H926 H 0.27478 0.63971 0.32161 0.0
H927 H 0.23292 0.67262 0.32136 0.0
C928 C 0.30702 0.58683 0.30921 0.0
C929 C 0.23863 0.57328 0.31034 0.0
C930 C 0.28441 0.60563 0.30938 0.0
C931 C 0.19274 0.61128 0.31054 0.0
C932 C 0.12422 0.59769 0.31162 0.0
C933 C 0.14705 0.57887 0.3116 0.0
C934 C 0.07227 0.65631 0.30377 0.0
C935 C 0.12105 0.66918 0.31004 0.0
C936 C 0.09531 0.63756 0.304 0.0
C937 C 0.16847 0.63126 0.3104 0.0
C938 C 0.21828 0.64419 0.31656 0.0
C939 C 0.19432 0.66298 0.31645 0.0
H940 H 0.60183 0.0698 0.31568 0.0
H941 H 0.87189 0.08317 0.3037 0.0
H942 H 0.56125 0.10265 0.31553 0.0
H943 H 0.83129 0.11593 0.30338 0.0
H944 H 0.75889 0.1741 0.316 0.0
H945 H 0.79945 0.14126 0.31587 0.0
H946 H 0.53206 0.12806 0.303 0.0
H947 H 0.49143 0.16083 0.30329 0.0
C948 C 0.65224 0.07977 0.31296 0.0
C949 C 0.73994 0.07397 0.30971 0.0
C950 C 0.62898 0.09857 0.31281 0.0
C951 C 0.69309 0.11196 0.30945 0.0
C952 C 0.78069 0.10605 0.30615 0.0
C953 C 0.80377 0.08727 0.30627 0.0
C954 C 0.70907 0.16416 0.31312 0.0
C955 C 0.62209 0.16998 0.30966 0.0
C956 C 0.73233 0.14536 0.313 0.0
C957 C 0.66893 0.132 0.30944 0.0
C958 C 0.58207 0.13793 0.30592 0.0
C959 C 0.559 0.15671 0.30602 0.0
H960 H 0.07666 0.46862 0.09787 0.0
H961 H 0.19865 0.5228 0.09447 0.0
H962 H 0.11678 0.46855 0.11706 0.0
H963 H 0.23976 0.52254 0.11352 0.0
H964 H 0.28733 0.46745 0.14834 0.0
H965 H 0.25242 0.46727 0.12901 0.0
H966 H 0.1642 0.5242 0.13107 0.0
H967 H 0.20026 0.52454 0.15027 0.0
C968 C 0.11193 0.4805 0.10119 0.0
C969 C 0.13401 0.49574 0.09462 0.0
C970 C 0.13558 0.48039 0.11217 0.0
C971 C 0.18148 0.49554 0.11681 0.0
C972 C 0.20344 0.51075 0.11023 0.0
C973 C 0.18009 0.51085 0.09928 0.0
C974 C 0.26131 0.47999 0.14465 0.0
C975 C 0.24677 0.49602 0.15087 0.0
C976 C 0.24053 0.47982 0.13359 0.0
C977 C 0.20523 0.4957 0.12851 0.0
C978 C 0.1922 0.5118 0.1347 0.0
C979 C 0.21264 0.51196 0.14574 0.0
H980 H 0.32457 0.7672 0.09863 0.0
H981 H 0.08381 0.73366 0.09328 0.0
H982 H 0.29124 0.7676 0.11812 0.0
H983 H 1.04948 0.73458 0.11268 0.0
H984 H 0.98369 0.7627 0.14684 0.0
H985 H 1.01553 0.76385 0.12731 0.0
H986 H 0.27743 0.73764 0.13265 0.0
H987 H 0.24493 0.73596 0.15206 0.0
C988 C 0.26432 0.76006 0.10161 0.0
C989 C 0.2071 0.7503 0.09448 0.0
C990 C 0.24545 0.76027 0.11272 0.0
C991 C 0.16774 0.75117 0.11681 0.0
C992 C 0.10949 0.74177 0.10967 0.0
C993 C 0.12955 0.74116 0.09861 0.0
C994 C 1.04794 0.75719 0.14382 0.0
C995 C 0.11155 0.74912 0.15093 0.0
C996 C 0.06599 0.75783 0.13269 0.0
C997 C 0.14897 0.75089 0.12856 0.0
C998 C 0.21323 0.74316 0.13568 0.0
C999 C 0.19426 0.74209 0.14675 0.0
H1000 H 0.85193 0.52427 0.84786 0.0
H1001 H 0.95354 0.4683 0.84476 0.0
H1002 H 0.89091 0.52393 0.86706 0.0
H1003 H 0.9938 0.46816 0.86383 0.0
H1004 H 0.95375 0.46753 0.90068 0.0
H1005 H 0.91941 0.46783 0.88142 0.0
H1006 H 1.02486 0.5235 0.87901 0.0
H1007 H 0.05786 0.52337 0.89835 0.0
C1008 C 0.88264 0.51191 0.85124 0.0
C1009 C 0.89927 0.4963 0.84474 0.0
C1010 C 0.90561 0.51177 0.86224 0.0
C1011 C 0.94557 0.49602 0.86697 0.0
C1012 C 0.9621 0.48043 0.86047 0.0
C1013 C 0.93927 0.48057 0.8495 0.0
C1014 C 0.97041 0.4798 0.89605 0.0
C1015 C 1.00858 0.49543 0.90109 0.0
C1016 C 0.95089 0.47995 0.88498 0.0
C1017 C 0.96901 0.49572 0.87868 0.0
C1018 C 1.0088 0.51123 0.88367 0.0
C1019 C 1.02846 0.51108 0.89475 0.0
H1020 H 0.93213 0.27174 0.84522 0.0
H1021 H 1.0311 0.21551 0.84774 0.0
H1022 H 0.89508 0.27167 0.86438 0.0
H1023 H 0.9954 0.21563 0.86708 0.0
H1024 H 0.8244 0.21676 0.89859 0.0
H1025 H 0.86145 0.21623 0.8793 0.0
H1026 H 0.97155 0.27152 0.88174 0.0
H1027 H 0.93319 0.27224 0.90087 0.0
C1028 C 0.94681 0.25939 0.84987 0.0
C1029 C 0.98481 0.24363 0.84492 0.0
C1030 C 0.92581 0.25939 0.86089 0.0
C1031 C 0.9423 0.24365 0.86726 0.0
C1032 C 0.98088 0.2279 0.86235 0.0
C1033 C 1.00208 0.2279 0.85129 0.0
C1034 C 0.85595 0.22884 0.89499 0.0
C1035 C 0.87541 0.24456 0.90128 0.0
C1036 C 0.87792 0.22847 0.88396 0.0
C1037 C 0.91952 0.24383 0.87899 0.0
C1038 C 0.93848 0.25955 0.88528 0.0
C1039 C 0.91667 0.25992 0.89628 0.0
H1040 H 0.09658 0.96391 0.59793 0.0
H1041 H 0.19737 0.01992 0.59505 0.0
H1042 H 0.13602 0.964 0.61714 0.0
H1043 H 0.2379 0.01983 0.61411 0.0
H1044 H 0.19707 0.021 0.65072 0.0
H1045 H 0.16133 0.02015 0.63152 0.0
H1046 H 0.26841 0.96454 0.62949 0.0
H1047 H 0.30299 0.96523 0.64884 0.0
C1048 C 0.12734 0.97621 0.60136 0.0
C1049 C 0.14326 0.99193 0.59492 0.0
C1050 C 0.15052 0.97621 0.61236 0.0
C1051 C 0.18988 0.99194 0.61718 0.0
C1052 C 0.20643 0.00757 0.61071 0.0
C1053 C 0.18347 0.00757 0.59974 0.0
C1054 C 0.21347 0.00859 0.64621 0.0
C1055 C 0.25316 0.9932 0.65136 0.0
C1056 C 0.19328 0.00814 0.63516 0.0
C1057 C 0.21212 0.99229 0.62895 0.0
C1058 C 0.25213 0.9769 0.63407 0.0
C1059 C 0.27262 0.97736 0.64514 0.0
H1060 H 0.12889 0.22059 0.59413 0.0
H1061 H 0.23571 0.27615 0.59712 0.0
H1062 H 0.09042 0.22055 0.61325 0.0
H1063 H 0.19817 0.2759 0.61641 0.0
H1064 H 1.03807 0.27437 0.64858 0.0
H1065 H 0.06629 0.27533 0.62909 0.0
H1066 H 0.17365 0.21968 0.63032 0.0
H1067 H 0.14439 0.21854 0.64966 0.0
C1068 C 0.1444 0.23282 0.59885 0.0
C1069 C 0.18598 0.24835 0.59406 0.0
C1070 C 0.12258 0.23273 0.60985 0.0
C1071 C 0.1417 0.24817 0.61636 0.0
C1072 C 0.18184 0.26385 0.61157 0.0
C1073 C 0.20388 0.26394 0.60054 0.0
C1074 C 0.06697 0.26228 0.64468 0.0
C1075 C 0.08877 0.24636 0.65071 0.0
C1076 C 0.0838 0.2629 0.63353 0.0
C1077 C 0.12224 0.24759 0.62816 0.0
C1078 C 0.1429 0.23162 0.63417 0.0
C1079 C 0.12644 0.23102 0.6453 0.0
H1080 H 0.89867 0.96954 0.40154 0.0
H1081 H 1.00877 0.02491 0.39925 0.0
H1082 H 0.86269 0.97011 0.38235 0.0
H1083 H 0.97376 0.02531 0.37992 0.0
H1084 H 0.81192 0.02587 0.34793 0.0
H1085 H 0.84298 0.02584 0.36734 0.0
H1086 H 0.94232 0.96967 0.36507 0.0
H1087 H 0.9101 0.96956 0.34576 0.0
C1088 C 0.91565 0.98183 0.39695 0.0
C1089 C 0.95702 -0.00284 0.40198 0.0
C1090 C 0.89528 0.98211 0.38591 0.0
C1091 C 0.91556 -0.00227 0.37958 0.0
C1092 C 0.95637 0.01313 0.38459 0.0
C1093 C 0.97701 0.01284 0.39566 0.0
C1094 C 0.83983 0.01347 0.35157 0.0
C1095 C 0.85823 -0.0023 0.34526 0.0
C1096 C 0.85832 0.01351 0.3627 0.0
C1097 C 0.89524 -0.00224 0.36776 0.0
C1098 C 0.91283 0.98196 0.36146 0.0
C1099 C 0.89465 0.98193 0.35035 0.0
H1100 H 0.91778 0.77206 0.34516 0.0
H1101 H 1.0124 0.71544 0.34688 0.0
H1102 H 0.88566 0.77167 0.36445 0.0
H1103 H 0.98107 0.7152 0.36634 0.0
H1104 H 0.81969 0.71661 0.39863 0.0
H1105 H 0.85024 0.71629 0.37919 0.0
H1106 H 0.96971 0.77077 0.3815 0.0
H1107 H 0.93828 0.77127 0.40083 0.0
C1108 C 0.93214 0.75951 0.34964 0.0
C1109 C 0.96796 0.74378 0.34443 0.0
C1110 C 0.91406 0.75935 0.36074 0.0
C1111 C 0.93103 0.74343 0.36695 0.0
C1112 C 0.96644 0.72763 0.36176 0.0
C1113 C 0.98496 0.72781 0.35062 0.0
C1114 C 0.85198 0.72858 0.39499 0.0
C1115 C 0.8761 0.74401 0.40132 0.0
C1116 C 0.87018 0.72831 0.38386 0.0
C1117 C 0.9124 0.7435 0.37879 0.0
C1118 C 0.93607 0.75894 0.38511 0.0
C1119 C 0.91827 0.75918 0.39623 0.0
H1120 H 0.58942 0.46405 0.59776 0.0
H1121 H 0.67278 0.52129 0.59531 0.0
H1122 H 0.62698 0.46432 0.61701 0.0
H1123 H 0.71163 0.52138 0.61442 0.0
H1124 H 0.67163 0.521 0.65103 0.0
H1125 H 0.63513 0.52024 0.63186 0.0
H1126 H 0.75992 0.46622 0.62919 0.0
H1127 H 0.79521 0.46678 0.6485 0.0
C1128 C 0.61576 0.47668 0.6013 0.0
C1129 C 0.62767 0.49266 0.59496 0.0
C1130 C 0.63793 0.47678 0.61232 0.0
C1131 C 0.67225 0.49287 0.61725 0.0
C1132 C 0.68417 0.50883 0.61091 0.0
C1133 C 0.66218 0.50873 0.59992 0.0
C1134 C 0.69168 0.50895 0.64638 0.0
C1135 C 0.73653 0.49396 0.65133 0.0
C1136 C 0.67104 0.50856 0.63536 0.0
C1137 C 0.69468 0.49318 0.62898 0.0
C1138 C 0.73985 0.47819 0.6339 0.0
C1139 C 0.7607 0.47858 0.64496 0.0
H1140 H 0.78504 0.77553 0.5973 0.0
H1141 H 0.70072 0.71823 0.59647 0.0
H1142 H 0.75491 0.77635 0.6168 0.0
H1143 H 0.66942 0.7192 0.61574 0.0
H1144 H 0.71073 0.72097 0.65192 0.0
H1145 H 0.75002 0.72138 0.63283 0.0
H1146 H 0.62256 0.77502 0.62949 0.0
H1147 H 0.5843 0.77482 0.64877 0.0
C1148 C 0.76066 0.7631 0.60126 0.0
C1149 C 0.74542 0.74682 0.5953 0.0
C1150 C 0.74265 0.76362 0.61241 0.0
C1151 C 0.70973 0.74784 0.61782 0.0
C1152 C 0.69582 0.73153 0.61186 0.0
C1153 C 0.7134 0.73103 0.60077 0.0
C1154 C 0.69082 0.73289 0.64716 0.0
C1155 C 0.64374 0.74782 0.6519 0.0
C1156 C 0.71323 0.73308 0.63617 0.0
C1157 C 0.68913 0.74819 0.62961 0.0
C1158 C 0.64287 0.76324 0.63435 0.0
C1159 C 0.62026 0.76305 0.64538 0.0
H1160 H 0.31081 0.52578 0.34795 0.0
H1161 H 0.41502 0.46987 0.34601 0.0
H1162 H 0.342 0.52612 0.36737 0.0
H1163 H 0.44722 0.47037 0.36531 0.0
H1164 H 0.3989 0.47032 0.40164 0.0
H1165 H 0.36388 0.47077 0.38244 0.0
H1166 H 0.47443 0.52601 0.37996 0.0
H1167 H 0.50863 0.52574 0.39932 0.0
C1168 C 0.3401 0.51355 0.35165 0.0
C1169 C 0.36013 0.49777 0.34541 0.0
C1170 C 0.35863 0.51382 0.36276 0.0
C1171 C 0.3971 0.49828 0.36787 0.0
C1172 C 0.41652 0.48249 0.36164 0.0
C1173 C 0.39834 0.48224 0.35056 0.0
C1174 C 0.416 0.48261 0.39705 0.0
C1175 C 0.45703 0.49799 0.40205 0.0
C1176 C 0.39617 0.48281 0.38601 0.0
C1177 C 0.41669 0.49839 0.37967 0.0
C1178 C 0.45704 0.51386 0.38466 0.0
C1179 C 0.4772 0.51365 0.39573 0.0
H1180 H 0.33466 0.21717 0.39851 0.0
H1181 H 0.44889 0.27205 0.40184 0.0
H1182 H 0.372 0.21751 0.37925 0.0
H1183 H 0.48728 0.2722 0.38268 0.0
H1184 H 0.44705 0.27377 0.34594 0.0
H1185 H 0.41067 0.2733 0.36515 0.0
H1186 H 0.50762 0.21696 0.36728 0.0
H1187 H 0.54288 0.21726 0.34795 0.0
C1188 C 0.36751 0.22931 0.39515 0.0
C1189 C 0.38852 0.2446 0.40174 0.0
C1190 C 0.3896 0.22944 0.38413 0.0
C1191 C 0.43282 0.24486 0.37945 0.0
C1192 C 0.45313 0.26018 0.38602 0.0
C1193 C 0.43135 0.26005 0.39703 0.0
C1194 C 0.4611 0.26128 0.35049 0.0
C1195 C 0.49796 0.24555 0.34538 0.0
C1196 C 0.44052 0.26105 0.36152 0.0
C1197 C 0.4561 0.24509 0.36774 0.0
C1198 C 0.49376 0.2294 0.36267 0.0
C1199 C 0.51467 0.22963 0.35162 0.0
H1200 H 0.85779 0.97673 0.14737 0.0
H1201 H 0.60868 0.0081 0.15208 0.0
H1202 H 0.82639 0.97537 0.12782 0.0
H1203 H 0.57647 0.00624 0.13271 0.0
H1204 H 0.51436 0.97846 0.09902 0.0
H1205 H 0.54818 0.97715 0.11847 0.0
H1206 H 0.80764 0.0041 0.11281 0.0
H1207 H 0.7731 0.00591 0.09345 0.0
C1208 C 0.79619 0.98317 0.14425 0.0
C1209 C 0.73602 0.99262 0.15121 0.0
C1210 C 0.77839 0.98242 0.1331 0.0
C1211 C 0.69889 0.99065 0.12884 0.0
C1212 C 0.63786 -0.0003 0.13584 0.0
C1213 C 0.65673 0.00086 0.14689 0.0
C1214 C 0.57864 0.98405 0.10194 0.0
C1215 C 0.64072 0.99243 0.09476 0.0
C1216 C 0.59788 0.9833 0.11303 0.0
C1217 C 0.68059 0.99047 0.11707 0.0
C1218 C 0.74374 -0.00162 0.10986 0.0
C1219 C 0.72355 -0.00046 0.09882 0.0
H1220 H 0.68657 0.22094 0.09609 0.0
H1221 H 0.80112 0.27601 0.09771 0.0
H1222 H 0.65382 0.22203 0.11536 0.0
H1223 H 0.76937 0.27692 0.11713 0.0
H1224 H 0.59836 0.27829 0.14897 0.0
H1225 H 0.63654 0.27813 0.12969 0.0
H1226 H 0.73491 0.22199 0.13255 0.0
H1227 H 0.69581 0.22196 0.15164 0.0
C1228 C 0.70552 0.23325 0.10056 0.0
C1229 C 0.7467 0.24838 0.09532 0.0
C1230 C 0.68703 0.23382 0.11164 0.0
C1231 C 0.7091 0.24955 0.11779 0.0
C1232 C 0.75072 0.26468 0.11259 0.0
C1233 C 0.76959 0.26408 0.10148 0.0
C1234 C 0.62812 0.26591 0.14548 0.0
C1235 C 0.64341 0.25011 0.15188 0.0
C1236 C 0.65057 0.26587 0.13445 0.0
C1237 C 0.68843 0.25002 0.12958 0.0
C1238 C 0.70458 0.23433 0.13601 0.0
C1239 C 0.68242 0.23437 0.147 0.0
H1240 H 0.50461 0.98183 0.84399 0.0
H1241 H 0.25522 0.01258 0.84978 0.0
H1242 H 0.53946 0.98277 0.86338 0.0
H1243 H 0.28912 0.01297 0.86924 0.0
H1244 H 0.34864 0.98281 0.90335 0.0
H1245 H 0.31411 0.98325 0.88395 0.0
H1246 H 0.56556 0.01283 0.87784 0.0
H1247 H 0.59917 0.01295 0.89731 0.0
C1248 C 0.45699 0.98867 0.84942 0.0
C1249 C 0.37706 -0.0029 0.84539 0.0
C1250 C 0.47727 0.98929 0.86047 0.0
C1251 C 0.41691 -0.00206 0.86774 0.0
C1252 C 0.33654 0.0062 0.86376 0.0
C1253 C 0.31737 0.00601 0.85266 0.0
C1254 C 0.39658 0.98941 0.89787 0.0
C1255 C 0.47672 -0.00218 0.90183 0.0
C1256 C 0.37649 0.98974 0.88681 0.0
C1257 C 0.43723 -0.00192 0.87947 0.0
C1258 C 0.51784 0.00631 0.88338 0.0
C1259 C 0.53684 0.00641 0.89449 0.0
H1260 H 0.52674 0.71457 0.84761 0.0
H1261 H 0.43045 0.77112 0.84619 0.0
H1262 H 0.49861 0.71419 0.86709 0.0
H1263 H 0.40107 0.77055 0.86552 0.0
H1264 H 0.44879 0.77023 0.90173 0.0
H1265 H 0.48384 0.76971 0.8825 0.0
H1266 H 0.37057 0.71469 0.88006 0.0
H1267 H 0.33676 0.71501 0.89941 0.0
C1268 C 0.49967 0.72692 0.85142 0.0
C1269 C 0.48117 0.74289 0.84529 0.0
C1270 C 0.48299 0.72664 0.86258 0.0
C1271 C 0.44774 0.74235 0.86787 0.0
C1272 C 0.42953 0.7583 0.86174 0.0
C1273 C 0.44601 0.75858 0.85061 0.0
C1274 C 0.43131 0.75797 0.89713 0.0
C1275 C 0.38947 0.74268 0.90215 0.0
C1276 C 0.45112 0.75773 0.88607 0.0
C1277 C 0.42957 0.74221 0.87972 0.0
C1278 C 0.38885 0.7268 0.88474 0.0
C1279 C 0.36895 0.72704 0.89583 0.0
H1280 H 0.05976 0.67125 0.0712 0.0
H1281 H 0.26971 0.6673 0.04667 0.0
H1282 H 1.0494 0.63751 0.07178 0.0
H1283 H 0.26515 0.6339 0.04775 0.0
H1284 H 0.19024 0.57378 0.0449 0.0
H1285 H 0.19038 0.60732 0.04366 0.0
H1286 H 0.12024 0.61086 0.07767 0.0
H1287 H 0.11353 0.57719 0.07856 0.0
C1288 C 0.10351 0.66313 0.06593 0.0
C1289 C 0.1649 0.67185 0.05884 0.0
C1290 C 0.09869 0.64377 0.06635 0.0
C1291 C 0.15681 0.63274 0.05985 0.0
C1292 C 0.21763 0.64169 0.05272 0.0
C1293 C 0.22073 0.66094 0.05213 0.0
C1294 C 0.17562 0.58179 0.05211 0.0
C1295 C 0.15236 0.57295 0.06183 0.0
C1296 C 0.17594 0.60109 0.05144 0.0
C1297 C 0.15537 0.61206 0.06057 0.0
C1298 C 0.13439 0.60305 0.07039 0.0
C1299 C 0.1318 0.58372 0.07096 0.0
H1300 H 0.2606 0.67068 0.19728 0.0
H1301 H 0.08767 0.66572 0.16909 0.0
H1302 H 0.27899 0.6369 0.19766 0.0
H1303 H 0.10444 0.63212 0.16962 0.0
H1304 H 0.071 0.57232 0.18358 0.0
H1305 H 0.05519 0.60616 0.18336 0.0
H1306 H 0.34961 0.61176 0.18469 0.0
H1307 H 0.36546 0.57811 0.18469 0.0
C1308 C 0.22716 0.66238 0.19115 0.0
C1309 C 0.1731 0.67078 0.18314 0.0
C1310 C 0.23747 0.64311 0.19137 0.0
C1311 C 0.19236 0.63194 0.18372 0.0
C1312 C 0.13901 0.6404 0.17568 0.0
C1313 C 0.13015 0.65962 0.17533 0.0
C1314 C 0.13207 0.58083 0.18381 0.0
C1315 C 0.21934 0.57266 0.1841 0.0
C1316 C 0.12316 0.60013 0.18366 0.0
C1317 C 0.2013 0.61152 0.18403 0.0
C1318 C 0.28835 0.6033 0.18449 0.0
C1319 C 0.29729 0.58407 0.18442 0.0
H1320 H 1.03965 0.32173 0.9399 0.0
H1321 H 0.76945 0.32799 0.92619 0.0
H1322 H 0.05781 0.35535 0.94007 0.0
H1323 H 0.78556 0.36149 0.92672 0.0
H1324 H 0.87457 0.42128 0.92048 0.0
H1325 H 0.8597 0.38763 0.91916 0.0
H1326 H 1.00397 0.38168 0.94952 0.0
H1327 H 1.02136 0.4151 0.95056 0.0
C1328 C 0.98426 0.33032 0.93692 0.0
C1329 C 0.90325 0.32227 0.93304 0.0
C1330 C 0.99415 0.34959 0.93709 0.0
C1331 C 0.92284 0.36125 0.93348 0.0
C1332 C 0.84244 0.35306 0.92944 0.0
C1333 C 0.83295 0.33382 0.92918 0.0
C1334 C 0.90249 0.41272 0.92687 0.0
C1335 C 0.94907 0.42076 0.93561 0.0
C1336 C 0.89394 0.39343 0.92615 0.0
C1337 C 0.93126 0.38182 0.93419 0.0
C1338 C 0.97618 0.39005 0.94304 0.0
C1339 C 0.9853 0.40926 0.9437 0.0
H1340 H 1.04088 0.41869 0.80412 0.0
H1341 H 0.78901 0.41353 0.82228 0.0
H1342 H 0.05732 0.38492 0.80408 0.0
H1343 H 0.80498 0.37991 0.82217 0.0
H1344 H 0.81714 0.32029 0.80796 0.0
H1345 H 0.80074 0.35408 0.80817 0.0
H1346 H 0.08381 0.35944 0.81788 0.0
H1347 H 0.09988 0.32585 0.81775 0.0
C1348 C 0.98946 0.41033 0.80814 0.0
C1349 C 0.91391 0.41867 0.81322 0.0
C1350 C 0.9988 0.39106 0.80813 0.0
C1351 C 0.93208 0.37981 0.81308 0.0
C1352 C 0.85681 0.38822 0.81819 0.0
C1353 C 0.84813 0.40745 0.81832 0.0
C1354 C 0.87548 0.32873 0.81018 0.0
C1355 C 0.9596 0.32051 0.81286 0.0
C1356 C 0.86617 0.34802 0.81032 0.0
C1357 C 0.94121 0.35937 0.813 0.0
C1358 C 1.02519 0.35106 0.81567 0.0
C1359 C 1.03411 0.33184 0.81566 0.0
H1360 H 0.21904 0.07277 0.54804 0.0
H1361 H 0.0951 0.07391 0.57979 0.0
H1362 H 0.22653 0.10666 0.54807 0.0
H1363 H 0.10359 0.10768 0.57988 0.0
H1364 H 0.23628 0.16645 0.57947 0.0
H1365 H 0.228 0.13268 0.57979 0.0
H1366 H 0.10578 0.13303 0.54798 0.0
H1367 H 0.1131 0.16692 0.54772 0.0
C1368 C 0.19461 0.08027 0.55507 0.0
C1369 C 0.15669 0.07079 0.56392 0.0
C1370 C 0.19807 0.09961 0.55505 0.0
C1371 C 0.16503 0.10976 0.56395 0.0
C1372 C 0.12976 0.1002 0.57293 0.0
C1373 C 0.12496 0.0809 0.57288 0.0
C1374 C 0.20662 0.15931 0.57261 0.0
C1375 C 0.17503 0.16923 0.56358 0.0
C1376 C 0.20195 0.14001 0.57279 0.0
C1377 C 0.16691 0.13026 0.56388 0.0
C1378 C 0.13405 0.14022 0.55491 0.0
C1379 C 0.13741 0.15957 0.55479 0.0
H1380 H 0.11485 0.16444 0.70152 0.0
H1381 H 0.23199 0.16985 0.66959 0.0
H1382 H 0.13516 0.13101 0.70069 0.0
H1383 H 0.25008 0.13626 0.66856 0.0
H1384 H 0.34941 0.07697 0.67496 0.0
H1385 H 0.33324 0.11049 0.67558 0.0
H1386 H 0.07265 0.10441 0.69192 0.0
H1387 H 0.09073 0.07077 0.69156 0.0
C1388 C 0.14544 0.15845 0.69433 0.0
C1389 C 0.17208 0.16973 0.68563 0.0
C1390 C 0.15613 0.13925 0.6938 0.0
C1391 C 0.19327 0.13082 0.68451 0.0
C1392 C 0.22193 0.14222 0.67589 0.0
C1393 C 0.2116 0.16148 0.67646 0.0
C1394 C 0.2884 0.08281 0.67863 0.0
C1395 C 0.22134 0.07127 0.68323 0.0
C1396 C 0.2789 0.10205 0.67895 0.0
C1397 C 0.20185 0.11026 0.68385 0.0
C1398 C 0.13376 0.09863 0.68825 0.0
C1399 C 0.14353 0.07934 0.68797 0.0
H1400 H 0.93845 0.82157 0.45485 0.0
H1401 H 0.95719 0.82253 0.41999 0.0
H1402 H 0.94712 0.85533 0.45527 0.0
H1403 H 0.9651 0.85638 0.42038 0.0
H1404 H 0.85811 0.9163 0.42569 0.0
H1405 H 0.85525 0.8824 0.42541 0.0
H1406 H 0.05695 0.88107 0.45095 0.0
H1407 H 0.0599 0.91485 0.45121 0.0
C1408 C 0.94571 0.82902 0.44729 0.0
C1409 C 0.94753 0.81947 0.43739 0.0
C1410 C 0.95059 0.84833 0.44752 0.0
C1411 C 0.95598 0.85851 0.43785 0.0
C1412 C 0.95986 0.84891 0.42796 0.0
C1413 C 0.95636 0.82955 0.42773 0.0
C1414 C 0.90112 0.90873 0.4313 0.0
C1415 C 0.95898 0.91817 0.43849 0.0
C1416 C 0.90019 0.88935 0.43107 0.0
C1417 C 0.95634 0.87908 0.43811 0.0
C1418 C 1.01259 0.88859 0.44547 0.0
C1419 C 1.01426 0.90792 0.44561 0.0
H1420 H 1.0377 0.82817 0.29593 0.0
H1421 H 0.84605 0.82206 0.32232 0.0
H1422 H 1.01945 0.86169 0.29668 0.0
H1423 H 0.8307 0.85557 0.32349 0.0
H1424 H 0.75241 0.9149 0.31617 0.0
H1425 H 0.76935 0.88155 0.31504 0.0
H1426 H 0.05575 0.88831 0.30679 0.0
H1427 H 1.03679 0.92194 0.30744 0.0
C1428 C 0.9916 0.83404 0.3019 0.0
C1429 C 0.94279 0.82254 0.30902 0.0
C1430 C 0.98186 0.85329 0.30242 0.0
C1431 C 0.92389 0.8615 0.31019 0.0
C1432 C 0.87479 0.84985 0.31727 0.0
C1433 C 0.88369 0.83061 0.31664 0.0
C1434 C 0.81912 0.90926 0.31415 0.0
C1435 C 0.89336 0.921 0.3119 0.0
C1436 C 0.82908 0.89007 0.31356 0.0
C1437 C 0.91403 0.88206 0.31085 0.0
C1438 C 0.98883 0.8939 0.30873 0.0
C1439 C 0.97841 0.91318 0.30919 0.0
H1440 H 0.77785 0.57087 0.55743 0.0
H1441 H 0.49697 0.57621 0.5681 0.0
H1442 H 0.79245 0.60472 0.55729 0.0
H1443 H 0.51095 0.6099 0.56769 0.0
H1444 H 0.56268 0.66943 0.55259 0.0
H1445 H 0.54449 0.63558 0.55232 0.0
H1446 H 0.78048 0.6299 0.57309 0.0
H1447 H 0.79723 0.66343 0.57361 0.0
C1448 C 0.71945 0.57928 0.55972 0.0
C1449 C 0.6366 0.57099 0.56285 0.0
C1450 C 0.72767 0.59858 0.55964 0.0
C1451 C 0.65254 0.60984 0.56243 0.0
C1452 C 0.56948 0.60151 0.56541 0.0
C1453 C 0.56188 0.58227 0.56573 0.0
C1454 C 0.60992 0.6609 0.55715 0.0
C1455 C 0.681 0.669 0.56315 0.0
C1456 C 0.59969 0.64162 0.55699 0.0
C1457 C 0.66171 0.63022 0.56262 0.0
C1458 C 0.73248 0.63838 0.5686 0.0
C1459 C 0.74148 0.65757 0.56895 0.0
H1460 H 0.63485 0.57307 0.69879 0.0
H1461 H 0.76805 0.57508 0.66759 0.0
H1462 H 0.62287 0.60694 0.69881 0.0
H1463 H 0.75438 0.60882 0.66751 0.0
H1464 H 0.60817 0.66676 0.66756 0.0
H1465 H 0.62147 0.63301 0.66731 0.0
H1466 H 0.74268 0.63425 0.69915 0.0
H1467 H 0.7311 0.66812 0.6993 0.0
C1468 C 0.66046 0.58074 0.69189 0.0
C1469 C 0.70217 0.57149 0.68318 0.0
C1470 C 0.65431 0.60009 0.69194 0.0
C1471 C 0.68811 0.61049 0.68318 0.0
C1472 C 0.72753 0.60116 0.67434 0.0
C1473 C 0.73532 0.58187 0.6744 0.0
C1474 C 0.63857 0.65983 0.67445 0.0
C1475 C 0.669 0.67003 0.68343 0.0
C1476 C 0.64613 0.64054 0.67431 0.0
C1477 C 0.68256 0.63102 0.68324 0.0
C1478 C 0.71356 0.64124 0.6922 0.0
C1479 C 0.70767 0.66059 0.69225 0.0
H1480 H 0.35769 0.41887 0.42312 0.0
H1481 H 0.52056 0.41451 0.45212 0.0
H1482 H 0.3485 0.38531 0.42206 0.0
H1483 H 0.50736 0.3809 0.45151 0.0
H1484 H 0.54495 0.32057 0.44189 0.0
H1485 H 0.55764 0.35429 0.44256 0.0
H1486 H 0.28378 0.35905 0.42941 0.0
H1487 H 0.27415 0.32562 0.42819 0.0
C1488 C 0.38997 0.41068 0.42939 0.0
C1489 C 0.4396 0.41925 0.43771 0.0
C1490 C 0.38455 0.39139 0.42883 0.0
C1491 C 0.4273 0.3802 0.43669 0.0
C1492 C 0.47517 0.38893 0.44517 0.0
C1493 C 0.48186 0.40822 0.44561 0.0
C1494 C 0.48816 0.32892 0.43906 0.0
C1495 C 0.40893 0.32052 0.43493 0.0
C1496 C 0.4948 0.34825 0.43953 0.0
C1497 C 0.42163 0.35957 0.43605 0.0
C1498 C 0.34244 0.35097 0.43195 0.0
C1499 C 0.33658 0.33173 0.43131 0.0
H1500 H 0.32444 0.32147 0.30656 0.0
H1501 H 0.59498 0.32887 0.32 0.0
H1502 H 0.30189 0.35508 0.30662 0.0
H1503 H 0.57261 0.36231 0.32011 0.0
H1504 H 0.53567 0.42166 0.30684 0.0
H1505 H 0.55785 0.38805 0.30691 0.0
H1506 H 0.28463 0.38087 0.31978 0.0
H1507 H 0.26263 0.41433 0.31967 0.0
C1508 C 0.37874 0.33028 0.30958 0.0
C1509 C 0.46131 0.3226 0.31328 0.0
C1510 C 0.36587 0.34949 0.30964 0.0
C1511 C 0.43569 0.36136 0.31334 0.0
C1512 C 0.51802 0.35358 0.31709 0.0
C1513 C 0.53053 0.33442 0.3171 0.0
C1514 C 0.48072 0.41286 0.30972 0.0
C1515 C 0.39758 0.42057 0.31326 0.0
C1516 C 0.49337 0.39364 0.30979 0.0
C1517 C 0.4228 0.38179 0.31332 0.0
C1518 C 0.33984 0.38959 0.31689 0.0
C1519 C 0.32753 0.40876 0.3169 0.0
H1520 H 0.60726 0.07585 0.07805 0.0
H1521 H 0.75902 0.07399 0.04807 0.0
H1522 H 0.60603 0.10935 0.07741 0.0
H1523 H 0.76344 0.10779 0.04769 0.0
H1524 H 0.67905 0.1677 0.04379 0.0
H1525 H 0.67534 0.13398 0.04447 0.0
H1526 H 0.68664 0.13629 0.07945 0.0
H1527 H 0.68421 0.16989 0.07867 0.0
C1528 C 0.64238 0.08268 0.07143 0.0
C1529 C 0.68338 0.07232 0.06311 0.0
C1530 C 0.64205 0.10198 0.07107 0.0
C1531 C 0.68436 0.11151 0.06248 0.0
C1532 C 0.72824 0.10105 0.05433 0.0
C1533 C 0.72699 0.08166 0.05459 0.0
C1534 C 0.67894 0.16091 0.05161 0.0
C1535 C 0.68105 0.17136 0.06117 0.0
C1536 C 0.67828 0.14156 0.05202 0.0
C1537 C 0.68168 0.13219 0.06201 0.0
C1538 C 0.68237 0.14282 0.07159 0.0
C1539 C 0.68108 0.16215 0.07116 0.0
H1540 H 0.73336 0.16927 0.19762 0.0
H1541 H 0.5777 0.16747 0.16795 0.0
H1542 H 0.74221 0.13542 0.19766 0.0
H1543 H 0.58615 0.13375 0.16798 0.0
H1544 H 0.71403 0.07537 0.16599 0.0
H1545 H 0.70208 0.10902 0.16587 0.0
H1546 H 0.63502 0.10843 0.19994 0.0
H1547 H 0.64743 0.0746 0.20005 0.0
C1548 C 0.70186 0.16163 0.19107 0.0
C1549 C 0.65517 0.17094 0.18276 0.0
C1550 C 0.70605 0.14228 0.19114 0.0
C1551 C 0.66435 0.13192 0.18286 0.0
C1552 C 0.61941 0.14133 0.17444 0.0
C1553 C 0.61456 0.16063 0.17442 0.0
C1554 C 0.69558 0.08241 0.17342 0.0
C1555 C 0.68138 0.07242 0.18302 0.0
C1556 C 0.68871 0.10168 0.17336 0.0
C1557 C 0.66818 0.11138 0.18291 0.0
C1558 C 0.65212 0.10133 0.19248 0.0
C1559 C 0.65823 0.08199 0.19253 0.0
H1560 H 0.47337 0.82394 0.94912 0.0
H1561 H 0.35268 0.82582 0.91726 0.0
H1562 H 0.48607 0.85776 0.9491 0.0
H1563 H 0.36664 0.85955 0.91717 0.0
H1564 H 0.50802 0.91758 0.91763 0.0
H1565 H 0.49492 0.88385 0.91736 0.0
H1566 H 0.37071 0.88508 0.94909 0.0
H1567 H 0.38266 0.91892 0.94929 0.0
C1568 C 0.45067 0.83157 0.94207 0.0
C1569 C 0.41225 0.82229 0.93318 0.0
C1570 C 0.45717 0.85091 0.94209 0.0
C1571 C 0.42685 0.86129 0.93316 0.0
C1572 C 0.39084 0.85192 0.92415 0.0
C1573 C 0.38287 0.83263 0.9242 0.0
C1574 C 0.47704 0.91065 0.9245 0.0
C1575 C 0.44604 0.92084 0.93347 0.0
C1576 C 0.46955 0.89136 0.92434 0.0
C1577 C 0.43232 0.88183 0.93323 0.0
C1578 C 0.40056 0.89205 0.94217 0.0
C1579 C 0.40666 0.9114 0.94225 0.0
H1580 H 0.53516 0.82571 0.79788 0.0
H1581 H 0.31632 0.82078 0.82123 0.0
H1582 H 0.5276 0.85906 0.79911 0.0
H1583 H 0.3033 0.85451 0.82195 0.0
H1584 H 0.36102 0.91502 0.82924 0.0
H1585 H 0.3703 0.88136 0.8283 0.0
H1586 H 0.4511 0.88534 0.79464 0.0
H1587 H 0.44809 0.91886 0.79595 0.0
C1588 C 0.48369 0.83184 0.80311 0.0
C1589 C 0.42611 0.82067 0.80944 0.0
C1590 C 0.47888 0.85107 0.80378 0.0
C1591 C 0.41463 0.85974 0.81061 0.0
C1592 C 0.35504 0.84846 0.81675 0.0
C1593 C 0.36146 0.82911 0.81625 0.0
C1594 C 0.38215 0.90859 0.82172 0.0
C1595 C 0.40486 0.91947 0.81271 0.0
C1596 C 0.38625 0.88927 0.82111 0.0
C1597 C 0.41111 0.88039 0.81137 0.0
C1598 C 0.43369 0.89148 0.80237 0.0
C1599 C 0.43173 0.91077 0.80307 0.0
H1600 H 0.8326 0.47846 0.06966 0.0
H1601 H 0.79086 0.52461 0.04806 0.0
H1602 H 0.66658 0.473 0.07001 0.0
H1603 H 0.62629 0.51909 0.04827 0.0
H1604 H 0.32656 0.51554 0.05975 0.0
H1605 H 0.49246 0.52136 0.05998 0.0
H1606 H 0.54326 0.46254 0.05837 0.0
H1607 H 0.37889 0.45685 0.05829 0.0
C1608 C 0.78803 0.48735 0.06495 0.0
C1609 C 0.82467 0.50197 0.05886 0.0
C1610 C 0.69297 0.48424 0.06512 0.0
C1611 C 0.63269 0.49571 0.05921 0.0
C1612 C 0.67008 0.51021 0.05307 0.0
C1613 C 0.76469 0.51326 0.05288 0.0
C1614 C 0.37348 0.50393 0.05941 0.0
C1615 C 0.33989 0.48577 0.05897 0.0
C1616 C 0.46845 0.50721 0.05953 0.0
C1617 C 0.53153 0.49239 0.05924 0.0
C1618 C 0.49715 0.47427 0.05878 0.0
C1619 C 0.40273 0.47102 0.05864 0.0
H1620 H 0.55423 0.71144 0.05919 0.0
H1621 H 0.49946 0.76896 0.06575 0.0
H1622 H 0.71705 0.71775 0.05808 0.0
H1623 H 0.66434 0.77534 0.06535 0.0
H1624 H 0.95619 0.78505 0.05392 0.0
H1625 H 0.79274 0.77873 0.05472 0.0
H1626 H 0.85079 0.72392 0.06703 0.0
H1627 H 1.01509 0.73012 0.06552 0.0
C1628 C 0.57743 0.72548 0.06055 0.0
C1629 C 0.514 0.73972 0.06256 0.0
C1630 C 0.67146 0.7291 0.06001 0.0
C1631 C 0.70557 0.74707 0.06168 0.0
C1632 C 0.64154 0.76135 0.06381 0.0
C1633 C 0.54678 0.75774 0.06414 0.0
C1634 C 0.9338 0.77158 0.0567 0.0
C1635 C 0.99834 0.75802 0.05959 0.0
C1636 C 0.83964 0.768 0.0573 0.0
C1637 C 0.80692 0.75082 0.06102 0.0
C1638 C 0.87228 0.73722 0.06393 0.0
C1639 C 0.96684 0.74073 0.06311 0.0
H1640 H 0.82769 0.7672 0.18428 0.0
H1641 H 0.77486 0.70858 0.18306 0.0
H1642 H 0.66207 0.77322 0.18414 0.0
H1643 H 0.6108 0.71442 0.18276 0.0
H1644 H 0.32005 0.73035 0.19306 0.0
H1645 H 0.48567 0.72495 0.19384 0.0
H1646 H 0.5299 0.77112 0.17225 0.0
H1647 H 0.36501 0.77663 0.17166 0.0
C1648 C 0.78083 0.75566 0.18393 0.0
C1649 C 0.81429 0.73747 0.18364 0.0
C1650 C 0.68591 0.75904 0.18382 0.0
C1651 C 0.62268 0.74428 0.18346 0.0
C1652 C 0.65691 0.72612 0.18322 0.0
C1653 C 0.75125 0.72278 0.18332 0.0
C1654 C 0.36532 0.73925 0.18846 0.0
C1655 C 0.32965 0.7539 0.18231 0.0
C1656 C 0.46024 0.73617 0.18888 0.0
C1657 C 0.52156 0.74767 0.18315 0.0
C1658 C 0.48523 0.7622 0.17692 0.0
C1659 C 0.39054 0.76525 0.17651 0.0
H1660 H 1.02023 0.51519 0.19154 0.0
H1661 H 0.97912 0.46444 0.1738 0.0
H1662 H 0.854 0.51932 0.1928 0.0
H1663 H 0.81474 0.46778 0.17561 0.0
H1664 H 0.52133 0.48663 0.17162 0.0
H1665 H 0.68696 0.48366 0.16975 0.0
H1666 H 0.72255 0.50812 0.20145 0.0
H1667 H 0.55699 0.51204 0.20293 0.0
C1668 C 0.97558 0.50493 0.18795 0.0
C1669 C 1.01239 0.48955 0.18256 0.0
C1670 C 0.88035 0.50715 0.18875 0.0
C1671 C 0.82029 0.49384 0.18434 0.0
C1672 C 0.85807 0.47853 0.17892 0.0
C1673 C 0.95273 0.47652 0.17795 0.0
C1674 C 0.56482 0.49123 0.1782 0.0
C1675 C 0.52683 0.49957 0.18741 0.0
C1676 C 0.65989 0.4895 0.17716 0.0
C1677 C 0.71887 0.49572 0.18543 0.0
C1678 C 0.67991 0.50358 0.19479 0.0
C1679 C 0.58497 0.50562 0.19572 0.0
H1680 H 0.7416 0.51557 0.91753 0.0
H1681 H 0.77384 0.48931 0.94865 0.0
H1682 H 0.57623 0.5109 0.9185 0.0
H1683 H 0.60834 0.4856 0.95003 0.0
H1684 H 0.31989 0.46533 0.94536 0.0
H1685 H 0.48408 0.46928 0.94371 0.0
H1686 H 0.44087 0.52091 0.92674 0.0
H1687 H 0.27512 0.51611 0.92778 0.0
C1688 C 0.7129 0.50884 0.9246 0.0
C1689 C 0.7701 0.50273 0.933 0.0
C1690 C 0.61801 0.50634 0.92523 0.0
C1691 C 0.57807 0.49796 0.93437 0.0
C1692 C 0.63614 0.4918 0.94276 0.0
C1693 C 0.73117 0.49397 0.94201 0.0
C1694 C 0.3454 0.47754 0.94126 0.0
C1695 C 0.28471 0.49047 0.93672 0.0
C1696 C 0.43994 0.4799 0.94039 0.0
C1697 C 0.47665 0.4955 0.93515 0.0
C1698 C 0.41553 0.50857 0.93069 0.0
C1699 C 0.32045 0.50598 0.93138 0.0
H1700 H 0.54762 0.27659 0.94611 0.0
H1701 H 0.59026 0.22581 0.92845 0.0
H1702 H 0.38327 0.27298 0.94444 0.0
H1703 H 0.42454 0.22129 0.92744 0.0
H1704 H 0.12613 0.22674 0.91799 0.0
H1705 H 0.29131 0.23135 0.91912 0.0
H1706 H 0.25596 0.25744 0.9504 0.0
H1707 H 0.09047 0.25386 0.9488 0.0
C1708 C 0.52161 0.26443 0.94202 0.0
C1709 C 0.58181 0.25144 0.93742 0.0
C1710 C 0.42692 0.26227 0.94113 0.0
C1711 C 0.38957 0.2468 0.93584 0.0
C1712 C 0.45025 0.23358 0.9314 0.0
C1713 C 0.5454 0.23599 0.93209 0.0
C1714 C 0.1541 0.23366 0.92503 0.0
C1715 C 0.09602 0.24 0.93329 0.0
C1716 C 0.24892 0.23611 0.92576 0.0
C1717 C 0.28801 0.24462 0.9349 0.0
C1718 C 0.22897 0.25111 0.94313 0.0
C1719 C 0.13394 0.24902 0.94227 0.0
H1720 H 0.73003 0.2258 0.82846 0.0
H1721 H 0.76597 0.25179 0.79732 0.0
H1722 H 0.56472 0.23021 0.82718 0.0
H1723 H 0.6005 0.25516 0.79559 0.0
H1724 H 0.30832 0.27423 0.79953 0.0
H1725 H 0.4727 0.27085 0.80134 0.0
H1726 H 0.43252 0.21961 0.81883 0.0
H1727 H 0.2667 0.22391 0.81767 0.0
C1728 C 0.70209 0.23244 0.82132 0.0
C1729 C 0.76023 0.23852 0.81301 0.0
C1730 C 0.60726 0.23477 0.82051 0.0
C1731 C 0.56833 0.24289 0.81123 0.0
C1732 C 0.62742 0.24913 0.80295 0.0
C1733 C 0.72242 0.24717 0.8039 0.0
C1734 C 0.33458 0.26221 0.80376 0.0
C1735 C 0.2747 0.24929 0.80845 0.0
C1736 C 0.42926 0.26018 0.80473 0.0
C1737 C 0.46685 0.24491 0.8102 0.0
C1738 C 0.40652 0.23175 0.81472 0.0
C1739 C 0.31136 0.23403 0.81395 0.0
H1740 H 0.14317 0.53461 0.80982 0.0
H1741 H 0.0906 0.47589 0.80979 0.0
H1742 H 0.30727 0.52884 0.80946 0.0
H1743 H 0.25651 0.46997 0.80962 0.0
H1744 H 0.55461 0.46769 0.79723 0.0
H1745 H 0.38959 0.47301 0.79781 0.0
H1746 H 0.43088 0.51761 0.82058 0.0
H1747 H 0.5967 0.51241 0.81982 0.0
C1748 C 0.16691 0.52041 0.80978 0.0
C1749 C 0.10411 0.50568 0.80982 0.0
C1750 C 0.26121 0.51711 0.80966 0.0
C1751 C 0.29551 0.49895 0.80957 0.0
C1752 C 0.23248 0.48414 0.80959 0.0
C1753 C 0.13756 0.48748 0.80972 0.0
C1754 C 0.52842 0.47868 0.80233 0.0
C1755 C 0.5885 0.48966 0.80848 0.0
C1756 C 0.43368 0.48162 0.80274 0.0
C1757 C 0.39657 0.49565 0.80929 0.0
C1758 C 0.45704 0.50677 0.81537 0.0
C1759 C 0.55202 0.50381 0.81496 0.0
H1760 H 0.32445 0.01445 0.56021 0.0
H1761 H 0.37924 0.95583 0.5613 0.0
H1762 H 0.49032 0.02055 0.56039 0.0
H1763 H 0.54292 0.96173 0.56125 0.0
H1764 H 0.83197 0.97827 0.57116 0.0
H1765 H 0.66612 0.97329 0.57209 0.0
H1766 H 0.62449 0.01725 0.54891 0.0
H1767 H 0.78951 0.02233 0.54814 0.0
C1768 C 0.37184 0.00292 0.56048 0.0
C1769 C 0.33902 0.9847 0.56075 0.0
C1770 C 0.46677 0.00636 0.56054 0.0
C1771 C 0.53036 0.99161 0.56087 0.0
C1772 C 0.49656 0.97344 0.56119 0.0
C1773 C 0.4024 0.97006 0.56114 0.0
C1774 C 0.78726 0.98675 0.56622 0.0
C1775 C 0.82372 0.00062 0.55955 0.0
C1776 C 0.69217 0.98394 0.56675 0.0
C1777 C 0.6315 0.99494 0.5606 0.0
C1778 C 0.6686 0.00875 0.5539 0.0
C1779 C 0.7634 0.01153 0.55338 0.0
H1780 H 0.49925 0.262 0.5704 0.0
H1781 H 0.54195 0.21745 0.5477 0.0
H1782 H 0.66516 0.26705 0.57122 0.0
H1783 H 0.70686 0.22258 0.54836 0.0
H1784 H 1.00667 0.22556 0.55955 0.0
H1785 H 0.84078 0.2195 0.55986 0.0
H1786 H 0.78844 0.27834 0.56018 0.0
H1787 H 0.95217 0.28422 0.56008 0.0
C1788 C 0.54401 0.25343 0.56552 0.0
C1789 C 0.50763 0.23939 0.55897 0.0
C1790 C 0.63911 0.25627 0.56597 0.0
C1791 C 0.69979 0.24514 0.55989 0.0
C1792 C 0.66274 0.23118 0.5533 0.0
C1793 C 0.56799 0.22837 0.55285 0.0
C1794 C 0.95933 0.2371 0.55972 0.0
C1795 C 0.99223 0.25532 0.55979 0.0
C1796 C 0.86441 0.23369 0.55986 0.0
C1797 C 0.8009 0.24846 0.56009 0.0
C1798 C 0.83476 0.26663 0.56021 0.0
C1799 C 0.92893 0.26999 0.56007 0.0
H1800 H 0.82139 0.26589 0.68445 0.0
H1801 H 0.76982 0.2074 0.6814 0.0
H1802 H 0.65555 0.27178 0.68429 0.0
H1803 H 0.60555 0.21314 0.68115 0.0
H1804 H 0.31489 0.22821 0.69234 0.0
H1805 H 0.4808 0.22284 0.69284 0.0
H1806 H 0.52308 0.27031 0.6722 0.0
H1807 H 0.35812 0.27574 0.67183 0.0
C1808 C 0.77477 0.25435 0.68366 0.0
C1809 C 0.80863 0.23623 0.68289 0.0
C1810 C 0.67976 0.25767 0.68356 0.0
C1811 C 0.61686 0.2429 0.68275 0.0
C1812 C 0.65147 0.22482 0.68196 0.0
C1813 C 0.7459 0.22155 0.68202 0.0
C1814 C 0.3598 0.23742 0.68789 0.0
C1815 C 0.32354 0.25239 0.68206 0.0
C1816 C 0.45484 0.23435 0.68815 0.0
C1817 C 0.51565 0.24622 0.6826 0.0
C1818 C 0.47876 0.26109 0.67671 0.0
C1819 C 0.38401 0.2641 0.67643 0.0
H1820 H 1.03754 0.00293 0.69894 0.0
H1821 H 1.0031 0.97477 0.66844 0.0
H1822 H 0.87205 0.00675 0.70042 0.0
H1823 H 0.83799 0.97963 0.66944 0.0
H1824 H 0.53802 0.97503 0.67851 0.0
H1825 H 0.70357 0.97025 0.67763 0.0
H1826 H 0.74508 0.02215 0.69438 0.0
H1827 H 0.58064 0.02598 0.69596 0.0
C1828 C 0.99435 -0.0021 0.69244 0.0
C1829 C 1.03268 0.98853 0.68359 0.0
C1830 C 0.89927 0.00014 0.69324 0.0
C1831 C 0.8405 0.99346 0.68506 0.0
C1832 C 0.88003 0.98456 0.67605 0.0
C1833 C 0.97488 0.98196 0.67539 0.0
C1834 C 0.58285 0.9852 0.68214 0.0
C1835 C 0.5464 0.00075 0.68739 0.0
C1836 C 0.678 0.98264 0.68151 0.0
C1837 C 0.73881 -0.00417 0.68591 0.0
C1838 C 0.70141 0.01144 0.6911 0.0
C1839 C 0.60665 0.01374 0.69193 0.0
H1840 H 0.71379 0.0238 0.4484 0.0
H1841 H 0.76551 0.9812 0.42478 0.0
H1842 H 0.55012 0.0181 0.44721 0.0
H1843 H 0.60089 0.97644 0.4227 0.0
H1844 H 0.3006 0.96208 0.42646 0.0
H1845 H 0.46461 0.96573 0.42867 0.0
H1846 H 0.42297 0.02319 0.43733 0.0
H1847 H 0.25785 0.01877 0.43609 0.0
C1848 C 0.68949 0.01314 0.44294 0.0
C1849 C 0.75176 0.00281 0.43676 0.0
C1850 C 0.59528 0.01006 0.44209 0.0
C1851 C 0.56042 -0.00297 0.43468 0.0
C1852 C 0.62387 0.98641 0.42863 0.0
C1853 C 0.71862 0.98911 0.42978 0.0
C1854 C 0.32671 0.97551 0.42882 0.0
C1855 C 0.2664 0.99018 0.43109 0.0
C1856 C 0.42139 0.97768 0.43002 0.0
C1857 C 0.45883 0.99476 0.43324 0.0
C1858 C 0.39784 0.00962 0.43516 0.0
C1859 C 0.30279 0.00725 0.43428 0.0
H1860 H 0.59996 0.72364 0.4353 0.0
H1861 H 0.54815 0.78213 0.43228 0.0
H1862 H 0.43432 0.71775 0.4351 0.0
H1863 H 0.38381 0.77639 0.432 0.0
H1864 H 0.09259 0.76106 0.44299 0.0
H1865 H 0.25838 0.76657 0.4436 0.0
H1866 H 0.30278 0.71923 0.4229 0.0
H1867 H 0.13805 0.71369 0.42242 0.0
C1868 C 0.55333 0.73517 0.43449 0.0
C1869 C 0.5871 0.75328 0.43372 0.0
C1870 C 0.4584 0.73186 0.43438 0.0
C1871 C 0.39539 0.74662 0.43356 0.0
C1872 C 0.42985 0.76471 0.43281 0.0
C1873 C 0.52429 0.76798 0.43288 0.0
C1874 C 0.13797 0.75191 0.43856 0.0
C1875 C 0.1024 0.73694 0.43268 0.0
C1876 C 0.23292 0.75506 0.43887 0.0
C1877 C 0.29427 0.74327 0.43334 0.0
C1878 C 0.25804 0.7284 0.4274 0.0
C1879 C 0.16341 0.72532 0.42705 0.0
H1880 H 0.26012 0.72264 0.30975 0.0
H1881 H 0.30319 0.77934 0.31927 0.0
H1882 H 0.42523 0.71795 0.30878 0.0
H1883 H 0.46731 0.77543 0.31731 0.0
H1884 H 0.76719 0.75975 0.32173 0.0
H1885 H 0.60232 0.76468 0.32354 0.0
H1886 H 0.55438 0.7226 0.29922 0.0
H1887 H 0.71808 0.71675 0.29832 0.0
C1888 C 0.30511 0.73411 0.31158 0.0
C1889 C 0.26878 0.75125 0.31468 0.0
C1890 C 0.40022 0.73159 0.31086 0.0
C1891 C 0.4614 0.74636 0.31285 0.0
C1892 C 0.42397 0.76354 0.31593 0.0
C1893 C 0.32921 0.76585 0.31698 0.0
C1894 C 0.72082 0.75177 0.31673 0.0
C1895 C 0.75472 0.73791 0.30989 0.0
C1896 C 0.62595 0.75457 0.31772 0.0
C1897 C 0.56318 0.74391 0.31162 0.0
C1898 C 0.5989 0.73069 0.30437 0.0
C1899 C 0.69317 0.72751 0.30369 0.0
H1900 H 0.11616 0.01598 0.32866 0.0
H1901 H 0.08094 0.98994 0.29753 0.0
H1902 H 0.2814 0.0114 0.32742 0.0
H1903 H 0.24641 0.98643 0.29584 0.0
H1904 H 0.53858 0.96729 0.29969 0.0
H1905 H 0.37413 0.97077 0.30148 0.0
H1906 H 0.41456 0.02171 0.31924 0.0
H1907 H 0.58027 0.01727 0.31812 0.0
C1908 C 0.14423 0.00931 0.32153 0.0
C1909 C 0.08623 0.00325 0.31321 0.0
C1910 C 0.23909 0.00688 0.32073 0.0
C1911 C 0.27833 -0.00131 0.31148 0.0
C1912 C 0.21937 0.9925 0.30319 0.0
C1913 C 0.12431 0.99455 0.30411 0.0
C1914 C 0.51234 0.97926 0.30397 0.0
C1915 C 0.57231 0.99206 0.30874 0.0
C1916 C 0.41759 0.98135 0.30493 0.0
C1917 C 0.37995 -0.00343 0.31048 0.0
C1918 C 0.44043 0.0096 0.31508 0.0
C1919 C 0.53561 0.00725 0.31432 0.0
H1920 H 0.28691 0.51945 0.54623 0.0
H1921 H 0.32847 0.4786 0.57123 0.0
H1922 H 0.12151 0.51491 0.54742 0.0
H1923 H 0.16259 0.47424 0.57259 0.0
H1924 H 0.87577 0.45575 0.56269 0.0
H1925 H 1.03934 0.46144 0.56223 0.0
H1926 H 0.98846 0.52009 0.55907 0.0
H1927 H 0.82233 0.51418 0.55931 0.0
C1928 C 0.26051 0.50946 0.55198 0.0
C1929 C 0.32051 0.49928 0.5586 0.0
C1930 C 0.16563 0.50702 0.55274 0.0
C1931 C 0.12844 0.4943 0.56014 0.0
C1932 C 0.18883 0.48403 0.56672 0.0
C1933 C 0.28388 0.48647 0.56595 0.0
C1934 C 0.8992 0.46991 0.56195 0.0
C1935 C 0.83626 0.48455 0.56103 0.0
C1936 C 0.99331 0.47317 0.56176 0.0
C1937 C 1.02745 0.49121 0.56067 0.0
C1938 C 0.96441 0.50598 0.55983 0.0
C1939 C 0.86943 0.50267 0.56002 0.0
H1940 H 0.47883 0.77507 0.54696 0.0
H1941 H 0.5217 0.72829 0.56807 0.0
H1942 H 0.31322 0.77028 0.54791 0.0
H1943 H 0.35598 0.72362 0.56918 0.0
H1944 H 0.06766 0.70796 0.55888 0.0
H1945 H 0.23116 0.71368 0.55783 0.0
H1946 H 0.1817 0.77245 0.56044 0.0
H1947 H 1.01567 0.76658 0.56135 0.0
C1948 C 0.45275 0.76372 0.55179 0.0
C1949 C 0.51315 0.752 0.55742 0.0
C1950 C 0.35778 0.7611 0.55242 0.0
C1951 C 0.32103 0.74663 0.55865 0.0
C1952 C 0.38185 0.7348 0.5642 0.0
C1953 C 0.47683 0.73745 0.56359 0.0
C1954 C 0.09137 0.72215 0.55923 0.0
C1955 C 1.02877 0.73685 0.56019 0.0
C1956 C 0.18544 0.72541 0.5587 0.0
C1957 C 0.21998 0.7435 0.55914 0.0
C1958 C 0.15731 0.75832 0.56001 0.0
C1959 C 0.06236 0.75502 0.56055 0.0
H1960 H 0.84651 0.73793 0.69925 0.0
H1961 H 0.88001 0.76705 0.66904 0.0
H1962 H 1.01204 0.73378 0.70045 0.0
H1963 H 1.04495 0.76191 0.66976 0.0
H1964 H 0.34587 0.76578 0.67858 0.0
H1965 H 0.18039 0.77081 0.6779 0.0
H1966 H 0.13774 0.71833 0.69398 0.0
H1967 H 0.30206 0.71421 0.69536 0.0
C1968 C 0.88948 0.74312 0.69277 0.0
C1969 C 0.85093 0.75284 0.68408 0.0
C1970 C 0.98454 0.74069 0.6934 0.0
C1971 C 1.04299 0.74755 0.68521 0.0
C1972 C 1.00319 0.75682 0.67637 0.0
C1973 C 0.90843 0.7596 0.67587 0.0
C1974 C 0.30082 0.75553 0.6821 0.0
C1975 C 0.33693 0.73973 0.68711 0.0
C1976 C 0.20571 0.75823 0.68159 0.0
C1977 C 0.14462 0.74498 0.68588 0.0
C1978 C 0.18167 0.7291 0.6908 0.0
C1979 C 0.27636 0.72663 0.69151 0.0
H1980 H 0.06797 0.52696 0.69525 0.0
H1981 H 1.02448 0.47551 0.67834 0.0
H1982 H 0.23229 0.52296 0.69374 0.0
H1983 H 0.19008 0.4706 0.67751 0.0
H1984 H 0.49004 0.47496 0.66831 0.0
H1985 H 0.32492 0.47986 0.66922 0.0
H1986 H 0.35826 0.50744 0.70007 0.0
H1987 H 0.5238 0.50353 0.69869 0.0
C1988 C 0.09376 0.51459 0.69134 0.0
C1989 C 1.03332 0.50149 0.68694 0.0
C1990 C 0.18844 0.51219 0.69056 0.0
C1991 C 0.22557 0.49639 0.68555 0.0
C1992 C 0.16462 0.48312 0.68126 0.0
C1993 C 0.06949 0.48576 0.68185 0.0
C1994 C 0.46167 0.48224 0.67522 0.0
C1995 C 0.51926 0.48892 0.68342 0.0
C1996 C 0.36684 0.48488 0.67582 0.0
C1997 C 0.32716 0.49393 0.68477 0.0
C1998 C 0.38569 0.5007 0.69295 0.0
C1999 C 0.48076 0.49842 0.69221 0.0
H2000 H 0.75387 0.51898 0.43647 0.0
H2001 H 0.79834 0.46233 0.42691 0.0
H2002 H 0.91871 0.52372 0.43754 0.0
H2003 H 0.96231 0.46626 0.42899 0.0
H2004 H 0.26258 0.4819 0.42492 0.0
H2005 H 0.09802 0.47691 0.423 0.0
H2006 H 1.04743 0.51928 0.4471 0.0
H2007 H 0.21096 0.52519 0.4481 0.0
C2008 C 0.79913 0.50753 0.43463 0.0
C2009 C 0.7632 0.49039 0.4315 0.0
C2010 C 0.89413 0.51008 0.43542 0.0
C2011 C 0.95574 0.49533 0.43348 0.0
C2012 C 0.91873 0.47815 0.43035 0.0
C2013 C 0.82403 0.47581 0.42922 0.0
C2014 C 0.21573 0.48994 0.42985 0.0
C2015 C 0.24895 0.50389 0.43666 0.0
C2016 C 0.12096 0.48711 0.4288 0.0
C2017 C 0.05747 0.49782 0.43479 0.0
C2018 C 0.09246 0.51114 0.44201 0.0
C2019 C 0.18667 0.51436 0.44276 0.0
H2020 H 0.09881 0.22635 0.42678 0.0
H2021 H 0.05725 0.27027 0.44994 0.0
H2022 H 0.93287 0.22116 0.42614 0.0
H2023 H 0.89227 0.265 0.44943 0.0
H2024 H 0.59294 0.26272 0.43737 0.0
H2025 H 0.75893 0.26851 0.43761 0.0
H2026 H 0.80922 0.20961 0.43739 0.0
H2027 H 0.64496 0.20397 0.43701 0.0
C2028 C 0.05426 0.2348 0.43178 0.0
C2029 C 0.09097 0.24872 0.43839 0.0
C2030 C 0.95921 0.23183 0.43144 0.0
C2031 C 0.89888 0.24275 0.4377 0.0
C2032 C 0.93622 0.25655 0.44437 0.0
C2033 C 1.03099 0.25946 0.44473 0.0
C2034 C 0.63977 0.25109 0.4374 0.0
C2035 C 0.60607 0.23292 0.43718 0.0
C2036 C 0.73477 0.25436 0.43757 0.0
C2037 C 0.79771 0.2395 0.43747 0.0
C2038 C 0.76322 0.22138 0.43728 0.0
C2039 C 0.66882 0.21815 0.43715 0.0
H2040 H 0.27992 0.25416 0.29779 0.0
H2041 H 0.24403 0.22724 0.32865 0.0
H2042 H 0.11448 0.2578 0.29617 0.0
H2043 H 0.07887 0.23192 0.3275 0.0
H2044 H 0.77986 0.22661 0.31828 0.0
H2045 H 0.94545 0.222 0.31929 0.0
H2046 H 0.98689 0.27336 0.30197 0.0
H2047 H 0.82248 0.27702 0.30029 0.0
C2048 C 0.23641 0.24937 0.30433 0.0
C2049 C 0.27431 0.24039 0.31333 0.0
C2050 C 0.14137 0.2515 0.30345 0.0
C2051 C 0.08222 0.2451 0.31169 0.0
C2052 C 0.12128 0.23662 0.32085 0.0
C2053 C 0.21612 0.23412 0.3216 0.0
C2054 C 0.8247 0.23669 0.31456 0.0
C2055 C 0.78827 0.25205 0.30913 0.0
C2056 C 0.91984 0.23423 0.31525 0.0
C2057 C 0.9806 0.24733 0.31074 0.0
C2058 C 0.94323 0.26273 0.30535 0.0
C2059 C 0.8485 0.26493 0.30446 0.0
H2060 H 1.04342 0.478 0.29423 0.0
H2061 H 0.07845 0.50666 0.32457 0.0
H2062 H 0.87812 0.48262 0.29534 0.0
H2063 H 0.91287 0.51036 0.32611 0.0
H2064 H 0.62166 0.52971 0.32133 0.0
H2065 H 0.78608 0.52581 0.31974 0.0
H2066 H 0.74428 0.47307 0.30394 0.0
H2067 H 0.57838 0.47775 0.30495 0.0
C2068 C 1.01536 0.48526 0.30116 0.0
C2069 C 0.0734 0.49202 0.3093 0.0
C2070 C 0.92044 0.48773 0.30188 0.0
C2071 C 0.88113 0.49674 0.31086 0.0
C2072 C 0.94004 0.50363 0.31897 0.0
C2073 C 1.03514 0.50146 0.31813 0.0
C2074 C 0.64756 0.51726 0.31752 0.0
C2075 C 0.5872 0.50402 0.31325 0.0
C2076 C 0.74227 0.51493 0.31668 0.0
C2077 C 0.7795 0.49908 0.31174 0.0
C2078 C 0.71864 0.48564 0.30762 0.0
C2079 C 0.62345 0.48817 0.30829 0.0
H2080 H 0.84113 0.01296 0.05305 0.0
H2081 H 0.8851 0.96471 0.07294 0.0
H2082 H 1.0069 0.01847 0.05263 0.0
H2083 H 1.04973 0.97031 0.07271 0.0
H2084 H 0.34886 0.97543 0.06128 0.0
H2085 H 0.18325 0.96937 0.06098 0.0
H2086 H 0.13057 0.02793 0.06425 0.0
H2087 H 0.29456 0.03384 0.06438 0.0
C2088 C 0.88618 0.00363 0.05738 0.0
C2089 C 0.85024 0.9884 0.063 0.0
C2090 C 0.98115 0.00677 0.05717 0.0
C2091 C 1.0421 0.99476 0.06259 0.0
C2092 C 1.00542 0.97964 0.06828 0.0
C2093 C 0.91081 0.97653 0.06849 0.0
C2094 C 0.30163 0.98691 0.06197 0.0
C2095 C 0.33461 0.00506 0.0629 0.0
C2096 C 0.20676 0.9835 0.06181 0.0
C2097 C 0.14318 -0.00181 0.06255 0.0
C2098 C 0.17699 0.01631 0.06347 0.0
C2099 C 0.27126 0.01967 0.06363 0.0
H2100 H 0.0735 0.20925 0.06416 0.0
H2101 H 1.02107 0.26783 0.06178 0.0
H2102 H 0.23764 0.21501 0.06444 0.0
H2103 H 0.18685 0.27374 0.06193 0.0
H2104 H 0.48394 0.27729 0.07446 0.0
H2105 H 0.31905 0.27189 0.07402 0.0
H2106 H 0.36192 0.22507 0.05286 0.0
H2107 H 0.52774 0.2304 0.05346 0.0
C2108 C 0.09724 0.22342 0.06368 0.0
C2109 C 1.03439 0.23813 0.063 0.0
C2110 C 0.19155 0.2267 0.06375 0.0
C2111 C 0.22584 0.24481 0.06315 0.0
C2112 C 0.16281 0.2596 0.06251 0.0
C2113 C 0.0679 0.25628 0.06241 0.0
C2114 C 0.45816 0.2658 0.06974 0.0
C2115 C 0.51868 0.25426 0.06399 0.0
C2116 C 0.36349 0.26281 0.06941 0.0
C2117 C 0.32686 0.24813 0.06335 0.0
C2118 C 0.38774 0.23643 0.05768 0.0
C2119 C 0.48269 0.23947 0.058 0.0
H2120 H 0.87994 0.28644 0.18635 0.0
H2121 H 0.82618 0.22777 0.18642 0.0
H2122 H 1.04387 0.28056 0.18651 0.0
H2123 H 0.99207 0.22172 0.18638 0.0
H2124 H 0.29047 0.21924 0.19865 0.0
H2125 H 0.12546 0.22451 0.19801 0.0
H2126 H 0.16776 0.26943 0.17549 0.0
H2127 H 0.33352 0.26426 0.1763 0.0
C2128 C 0.90339 0.27222 0.18633 0.0
C2129 C 0.84026 0.25754 0.18638 0.0
C2130 C 0.99765 0.26885 0.18634 0.0
C2131 C 1.0317 0.25068 0.1864 0.0
C2132 C 0.96833 0.23591 0.18644 0.0
C2133 C 0.87339 0.23932 0.18642 0.0
C2134 C 0.2645 0.23029 0.19359 0.0
C2135 C 0.32494 0.24139 0.18755 0.0
C2136 C 0.16973 0.23319 0.19314 0.0
C2137 C 0.13283 0.24732 0.18666 0.0
C2138 C 0.19365 0.25853 0.18066 0.0
C2139 C 0.28868 0.2556 0.1811 0.0
H2140 H 0.48538 0.96094 0.19296 0.0
H2141 H 0.53157 0.01839 0.18544 0.0
H2142 H 0.32138 0.96529 0.19091 0.0
H2143 H 0.36661 0.02339 0.18428 0.0
H2144 H 0.07531 0.02581 0.17306 0.0
H2145 H 0.23877 0.01988 0.17433 0.0
H2146 H 0.1849 0.97563 0.1971 0.0
H2147 H 1.02047 0.98081 0.19497 0.0
C2148 C 0.46001 0.97465 0.19109 0.0
C2149 C 0.52128 0.98934 0.18934 0.0
C2150 C 0.36533 0.97722 0.18997 0.0
C2151 C 0.32877 0.99471 0.18736 0.0
C2152 C 0.39085 0.00955 0.18597 0.0
C2153 C 0.48583 0.00682 0.18678 0.0
C2154 C 0.0988 0.0146 0.17819 0.0
C2155 C 1.03552 0.00365 0.18384 0.0
C2156 C 0.193 0.01135 0.17908 0.0
C2157 C 0.22708 -0.00257 0.18598 0.0
C2158 C 0.16269 0.98629 0.19155 0.0
C2159 C 0.06798 0.98923 0.19037 0.0
H2160 H 0.8127 0.96908 0.94875 0.0
H2161 H 0.77039 0.01487 0.92692 0.0
H2162 H 0.97745 0.97462 0.94844 0.0
H2163 H 0.93623 0.02034 0.92646 0.0
H2164 H 0.22424 0.03691 0.93763 0.0
H2165 H 0.05997 0.0311 0.93779 0.0
H2166 H 0.11167 0.97228 0.93683 0.0
H2167 H 0.27748 0.97823 0.93683 0.0
C2168 C 0.83875 0.98035 0.94386 0.0
C2169 C 0.77851 0.99154 0.93785 0.0
C2170 C 0.93347 0.98343 0.94361 0.0
C2171 C 0.97071 -0.00215 0.93738 0.0
C2172 C 0.91011 0.00919 0.93143 0.0
C2173 C 0.81506 0.00606 0.93166 0.0
C2174 C 0.20064 0.02271 0.93747 0.0
C2175 C 0.26378 0.00801 0.93725 0.0
C2176 C 0.10621 0.01939 0.93747 0.0
C2177 C 0.072 0.00123 0.93726 0.0
C2178 C 0.13541 0.98645 0.9371 0.0
C2179 C 0.23039 0.98981 0.93707 0.0
H2180 H 1.04004 0.77459 0.94868 0.0
H2181 H 0.08372 0.72896 0.92675 0.0
H2182 H 0.8751 0.76931 0.94807 0.0
H2183 H 0.91801 0.72378 0.92596 0.0
H2184 H 0.63033 0.70704 0.93689 0.0
H2185 H 0.79413 0.71294 0.93702 0.0
H2186 H 0.74159 0.77177 0.93646 0.0
H2187 H 0.57577 0.76569 0.93655 0.0
C2188 C 1.01423 0.7634 0.94371 0.0
C2189 C 0.07485 0.75213 0.93779 0.0
C2190 C 0.91948 0.76049 0.94328 0.0
C2191 C 0.88275 0.74619 0.93693 0.0
C2192 C 0.94375 0.73482 0.93104 0.0
C2193 C 1.03876 0.73775 0.93148 0.0
C2194 C 0.65357 0.72127 0.93677 0.0
C2195 C 0.59022 0.73593 0.93672 0.0
C2196 C 0.74779 0.72465 0.93677 0.0
C2197 C 0.78162 0.74282 0.93669 0.0
C2198 C 0.71804 0.75758 0.93662 0.0
C2199 C 0.62312 0.75415 0.93663 0.0
H2200 H 0.27593 0.76258 0.81619 0.0
H2201 H 0.21919 0.70771 0.80433 0.0
H2202 H 0.11129 0.76871 0.81744 0.0
H2203 H 0.05561 0.71397 0.80491 0.0
H2204 H 0.76205 0.72353 0.81592 0.0
H2205 H 0.92712 0.71725 0.81567 0.0
H2206 H 0.97874 0.77472 0.80804 0.0
H2207 H 0.81572 0.78094 0.80896 0.0
C2208 C 0.2281 0.75198 0.81367 0.0
C2209 C 0.26015 0.73472 0.81015 0.0
C2210 C 0.13347 0.75544 0.81434 0.0
C2211 C 0.06883 0.74182 0.8113 0.0
C2212 C 0.1021 0.72469 0.80758 0.0
C2213 C 0.19627 0.72115 0.80712 0.0
C2214 C 0.80915 0.73473 0.81425 0.0
C2215 C 0.77612 0.7527 0.81251 0.0
C2216 C 0.90395 0.73119 0.81402 0.0
C2217 C 0.96757 0.74548 0.81184 0.0
C2218 C 0.93325 0.76339 0.81 0.0
C2219 C 0.8392 0.76694 0.81043 0.0
H2220 H 0.57533 0.97674 0.81064 0.0
H2221 H 0.62777 0.0354 0.80916 0.0
H2222 H 0.74121 0.97083 0.81079 0.0
H2223 H 0.79212 0.02962 0.80914 0.0
H2224 H 0.08175 0.01374 0.82025 0.0
H2225 H 0.91581 0.01921 0.82065 0.0
H2226 H 0.87511 0.97288 0.7991 0.0
H2227 H 1.03984 0.96734 0.79885 0.0
C2228 C 0.62227 0.98832 0.81028 0.0
C2229 C 0.58868 0.0065 0.80987 0.0
C2230 C 0.71726 0.98499 0.81034 0.0
C2231 C 0.78042 -0.00022 0.81002 0.0
C2232 C 0.74602 0.01791 0.80958 0.0
C2233 C 0.65158 0.02121 0.8095 0.0
C2234 C 1.03715 0.0048 0.81559 0.0
C2235 C 0.07378 0.99011 0.80954 0.0
C2236 C 0.94208 0.00793 0.81579 0.0
C2237 C 0.88165 -0.00359 0.80995 0.0
C2238 C 0.91899 0.98182 0.80385 0.0
C2239 C 1.01369 0.97875 0.80363 0.0
H2240 H 1.03994 0.46665 0.0253 0.0
H2241 H 0.10283 0.52504 0.02566 0.0
H2242 H 1.02679 0.46764 0.00564 0.0
H2243 H 0.086 0.52622 0.00613 0.0
H2244 H 0.13977 0.51875 0.97017 0.0
H2245 H 0.15586 0.51747 0.98976 0.0
H2246 H 0.93191 0.47841 0.99147 0.0
H2247 H 0.91863 0.47914 0.97183 0.0
C2248 C 1.05055 0.47971 0.02119 0.0
C2249 C 0.07284 0.49574 0.02705 0.0
C2250 C 1.04233 0.48032 0.00991 0.0
C2251 C 0.05513 0.49703 0.00425 0.0
C2252 C 0.07731 0.51304 0.01015 0.0
C2253 C 0.08659 0.51237 0.02139 0.0
C2254 C 0.09364 0.50997 0.97474 0.0
C2255 C 1.02794 0.49905 0.96945 0.0
C2256 C 0.10261 0.50928 0.98599 0.0
C2257 C 1.04528 0.49781 0.99225 0.0
C2258 C 0.9785 0.48712 0.98693 0.0
C2259 C 0.97031 0.48766 0.97566 0.0
H2260 H 0.27562 0.71779 0.97109 0.0
H2261 H 0.3531 0.77545 0.97125 0.0
H2262 H 0.26512 0.71817 0.99075 0.0
H2263 H 0.33895 0.77608 0.99087 0.0
H2264 H 0.39444 0.7666 0.02665 0.0
H2265 H 0.4087 0.76585 0.00702 0.0
H2266 H 0.17489 0.72924 0.0052 0.0
H2267 H 0.16321 0.72941 0.02485 0.0
C2268 C 0.28969 0.7306 0.97532 0.0
C2269 C 0.31533 0.74658 0.9696 0.0
C2270 C 0.28312 0.73086 0.98661 0.0
C2271 C 0.30092 0.74718 0.99245 0.0
C2272 C 0.32627 0.76318 0.98669 0.0
C2273 C 0.33392 0.76285 0.97541 0.0
C2274 C 0.3461 0.75839 0.02205 0.0
C2275 C 0.27781 0.74804 0.02731 0.0
C2276 C 0.35392 0.75804 0.01077 0.0
C2277 C 0.29293 0.7475 0.00447 0.0
C2278 C 0.22421 0.73725 0.00977 0.0
C2279 C 0.21711 0.73743 0.02105 0.0
H2280 H 1.03244 0.71574 0.27493 0.0
H2281 H 1.00628 0.77525 0.2749 0.0
H2282 H 1.03655 0.71572 0.25526 0.0
H2283 H 1.01467 0.77537 0.2552 0.0
H2284 H 0.95046 0.76845 0.21942 0.0
H2285 H 0.9371 0.76818 0.23908 0.0
H2286 H 0.13098 0.72296 0.24059 0.0
H2287 H 0.14087 0.72273 0.22096 0.0
C2288 C 1.02836 0.72886 0.27071 0.0
C2289 C 1.01923 0.7455 0.27649 0.0
C2290 C 1.03129 0.72887 0.25941 0.0
C2291 C 1.02659 0.74555 0.25356 0.0
C2292 C 1.01705 0.76221 0.25937 0.0
C2293 C 1.01278 0.76217 0.27069 0.0
C2294 C 0.98997 0.75842 0.22396 0.0
C2295 C 1.04647 0.74558 0.21861 0.0
C2296 C 0.9828 0.75833 0.23526 0.0
C2297 C 1.03292 0.74555 0.2415 0.0
C2298 C 0.08976 0.73277 0.2361 0.0
C2299 C 0.0959 0.7327 0.22481 0.0
H2300 H 0.2891 0.46535 0.22104 0.0
H2301 H 0.25729 0.52476 0.22096 0.0
H2302 H 0.30031 0.46573 0.24074 0.0
H2303 H 0.27237 0.52527 0.24051 0.0
H2304 H 0.21571 0.51906 0.27637 0.0
H2305 H 0.19775 0.51797 0.2568 0.0
H2306 H 0.39911 0.47413 0.25504 0.0
H2307 H 0.41394 0.47472 0.27465 0.0
C2308 C 0.28486 0.47849 0.22522 0.0
C2309 C 0.2719 0.495 0.21943 0.0
C2310 C 0.29195 0.47874 0.23652 0.0
C2311 C 0.2874 0.49555 0.24227 0.0
C2312 C 0.27443 0.51203 0.23642 0.0
C2313 C 0.26622 0.51175 0.22517 0.0
C2314 C 0.25635 0.50923 0.27179 0.0
C2315 C 0.31633 0.497 0.27706 0.0
C2316 C 0.24633 0.50864 0.26055 0.0
C2317 C 0.29701 0.49596 0.25428 0.0
C2318 C 0.35763 0.48384 0.25958 0.0
C2319 C 0.36673 0.48427 0.27084 0.0
H2320 H 0.80865 0.21629 0.97121 0.0
H2321 H 0.84469 0.27559 0.97113 0.0
H2322 H 0.79918 0.21662 0.99091 0.0
H2323 H 0.8315 0.27606 0.99074 0.0
H2324 H 0.89413 0.26909 0.02647 0.0
H2325 H 0.90865 0.26823 0.00684 0.0
H2326 H 0.70276 0.22531 0.00541 0.0
H2327 H 0.69114 0.22566 0.02505 0.0
C2328 C 0.81389 0.22941 0.97539 0.0
C2329 C 0.82769 0.2459 0.9696 0.0
C2330 C 0.80792 0.22963 0.98669 0.0
C2331 C 0.81447 0.24638 0.99246 0.0
C2332 C 0.82787 0.26286 0.98662 0.0
C2333 C 0.83492 0.26261 0.97535 0.0
C2334 C 0.8519 0.25949 0.02196 0.0
C2335 C 0.79153 0.24745 0.02733 0.0
C2336 C 0.85987 0.25905 0.01068 0.0
C2337 C 0.80683 0.24671 0.00449 0.0
C2338 C 0.74598 0.23476 0.00989 0.0
C2339 C 0.73882 0.23505 0.02117 0.0
H2340 H 1.04392 0.21414 0.7749 0.0
H2341 H 1.00622 0.27342 0.77499 0.0
H2342 H 1.05102 0.21444 0.75518 0.0
H2343 H 1.01695 0.27386 0.75537 0.0
H2344 H 0.94974 0.26683 0.7198 0.0
H2345 H 0.93731 0.26585 0.73945 0.0
H2346 H 0.14577 0.22333 0.74051 0.0
H2347 H 0.15539 0.22381 0.72086 0.0
C2348 C 1.03776 0.22724 0.77072 0.0
C2349 C 1.02416 0.24373 0.77651 0.0
C2350 C 1.04236 0.22745 0.75941 0.0
C2351 C 1.03453 0.24418 0.75364 0.0
C2352 C 1.02145 0.26067 0.75949 0.0
C2353 C 1.01582 0.26043 0.77077 0.0
C2354 C 0.99296 0.25729 0.72424 0.0
C2355 C 0.05351 0.2454 0.71877 0.0
C2356 C 0.98618 0.25678 0.73552 0.0
C2357 C 1.04062 0.24452 0.74161 0.0
C2358 C 0.10155 0.23271 0.73611 0.0
C2359 C 0.10754 0.23307 0.72482 0.0
H2360 H 0.72291 0.5162 0.77655 0.0
H2361 H 0.93885 0.47535 0.77468 0.0
H2362 H 0.70879 0.51575 0.75693 0.0
H2363 H 0.92721 0.4754 0.75503 0.0
H2364 H 0.81974 0.46579 0.7209 0.0
H2365 H 0.83147 0.46588 0.74056 0.0
H2366 H 0.78412 0.52492 0.74085 0.0
H2367 H 0.76899 0.52468 0.72125 0.0
C2368 C 0.76805 0.50725 0.77195 0.0
C2369 C 0.83195 0.4958 0.77719 0.0
C2370 C 0.76028 0.50706 0.76067 0.0
C2371 C 0.81691 0.49555 0.75435 0.0
C2372 C 0.88133 0.4842 0.75962 0.0
C2373 C 0.88844 0.48425 0.7709 0.0
C2374 C 0.81174 0.47878 0.72516 0.0
C2375 C 0.79315 0.49521 0.7195 0.0
C2376 C 0.81903 0.47886 0.73645 0.0
C2377 C 0.80883 0.49541 0.74233 0.0
C2378 C 0.79075 0.51185 0.73663 0.0
C2379 C 0.78255 0.51173 0.72537 0.0
H2380 H 1.03358 0.96524 0.526 0.0
H2381 H 0.08886 0.02391 0.52579 0.0
H2382 H 1.0223 0.96544 0.50634 0.0
H2383 H 0.07324 0.02436 0.5062 0.0
H2384 H 0.13225 0.01657 0.47051 0.0
H2385 H 0.14528 0.01587 0.49011 0.0
H2386 H 0.93206 0.9744 0.49159 0.0
H2387 H 0.92246 0.97451 0.4719 0.0
C2388 C 1.0425 0.97822 0.52176 0.0
C2389 C 0.06257 0.99454 0.52746 0.0
C2390 C 1.03539 0.97838 0.51046 0.0
C2391 C 1.04681 0.99492 0.50459 0.0
C2392 C 0.0659 0.01127 0.51036 0.0
C2393 C 0.07439 0.01105 0.52163 0.0
C2394 C 0.08807 0.0073 0.47502 0.0
C2395 C 1.02633 0.99559 0.46963 0.0
C2396 C 0.0951 0.00698 0.4863 0.0
C2397 C 1.03952 0.99512 0.49253 0.0
C2398 C 0.97724 0.98348 0.4871 0.0
C2399 C 0.97122 0.98362 0.4758 0.0
H2400 H 0.23029 0.22086 0.4699 0.0
H2401 H 0.44727 0.2613 0.47222 0.0
H2402 H 0.21045 0.22179 0.48943 0.0
H2403 H 0.43044 0.26165 0.49184 0.0
H2404 H 0.31025 0.27349 0.52512 0.0
H2405 H 0.33163 0.27217 0.50559 0.0
H2406 H 0.2745 0.21349 0.50612 0.0
H2407 H 0.2491 0.21505 0.52556 0.0
C2408 C 0.27485 0.22973 0.4746 0.0
C2409 C 0.34021 0.24104 0.46951 0.0
C2410 C 0.26374 0.23022 0.48584 0.0
C2411 C 0.31862 0.24184 0.49227 0.0
C2412 C 0.38556 0.25282 0.48716 0.0
C2413 C 0.39577 0.25252 0.4759 0.0
C2414 C 0.30204 0.26032 0.52105 0.0
C2415 C 0.27751 0.2444 0.52688 0.0
C2416 C 0.31502 0.25952 0.50984 0.0
C2417 C 0.30508 0.2427 0.50422 0.0
C2418 C 0.28113 0.22675 0.51011 0.0
C2419 C 0.26689 0.22762 0.52128 0.0
H2420 H 0.35107 0.96737 0.77612 0.0
H2421 H 0.30387 0.02635 0.77601 0.0
H2422 H 0.34139 0.96685 0.7565 0.0
H2423 H 0.2984 0.02604 0.7563 0.0
H2424 H 0.19944 0.01691 0.72186 0.0
H2425 H 0.20817 0.01728 0.74152 0.0
H2426 H 0.41633 0.97467 0.74041 0.0
H2427 H 0.40416 0.97376 0.72076 0.0
C2428 C 0.33978 0.98029 0.7719 0.0
C2429 C 0.32818 -0.0031 0.77765 0.0
C2430 C 0.33474 0.98002 0.7606 0.0
C2431 C 0.31921 -0.0036 0.75472 0.0
C2432 C 0.30871 0.01307 0.76051 0.0
C2433 C 0.31247 0.01329 0.77183 0.0
C2434 C 0.24699 0.0076 0.72582 0.0
C2435 C 0.30094 0.99527 0.71974 0.0
C2436 C 0.25256 0.0079 0.73712 0.0
C2437 C 0.31322 -0.00395 0.74264 0.0
C2438 C 0.36757 0.98378 0.73651 0.0
C2439 C 0.361 0.98331 0.72521 0.0
H2440 H 0.72719 0.72061 0.47002 0.0
H2441 H 0.9304 0.76393 0.4719 0.0
H2442 H 0.71109 0.72118 0.48966 0.0
H2443 H 0.91734 0.76399 0.49151 0.0
H2444 H 0.80771 0.7736 0.52532 0.0
H2445 H 0.81966 0.77288 0.5057 0.0
H2446 H 0.78316 0.71354 0.50614 0.0
H2447 H 0.76733 0.71442 0.52576 0.0
C2448 C 0.76921 0.73011 0.47464 0.0
C2449 C 0.82987 0.74226 0.46938 0.0
C2450 C 0.76033 0.73038 0.48592 0.0
C2451 C 0.81269 0.74267 0.49224 0.0
C2452 C 0.87437 0.75461 0.48695 0.0
C2453 C 0.88239 0.75449 0.47567 0.0
C2454 C 0.80218 0.76039 0.52123 0.0
C2455 C 0.78661 0.74407 0.52712 0.0
C2456 C 0.80962 0.75995 0.50995 0.0
C2457 C 0.80292 0.74313 0.50426 0.0
C2458 C 0.78728 0.7268 0.51018 0.0
C2459 C 0.77869 0.72728 0.52146 0.0
H2460 H 0.69879 0.02038 0.22089 0.0
H2461 H 0.90446 0.97737 0.21985 0.0
H2462 H 0.70729 0.0207 0.24058 0.0
H2463 H 0.9158 0.97819 0.23948 0.0
H2464 H 0.84292 0.9692 0.27476 0.0
H2465 H 0.83468 0.96956 0.25512 0.0
H2466 H 0.79776 0.02889 0.25571 0.0
H2467 H 0.8023 0.02839 0.27543 0.0
C2468 C 0.74661 0.01114 0.22486 0.0
C2469 C 0.80051 -0.00123 0.2188 0.0
C2470 C 0.75189 0.01139 0.23617 0.0
C2471 C 0.81197 -0.00059 0.24169 0.0
C2472 C 0.86723 0.98733 0.23557 0.0
C2473 C 0.86115 0.98692 0.22428 0.0
C2474 C 0.83316 0.98234 0.27071 0.0
C2475 C 0.82333 -0.00123 0.27668 0.0
C2476 C 0.82901 0.98257 0.25941 0.0
C2477 C 0.81603 -0.00073 0.25376 0.0
C2478 C 0.80649 0.01573 0.25975 0.0
C2479 C 0.80961 0.01546 0.27108 0.0
H2480 H 0.53823 0.46421 0.52568 0.0
H2481 H 0.59076 0.52301 0.52571 0.0
H2482 H 0.52537 0.46472 0.50601 0.0
H2483 H 0.57381 0.52373 0.50616 0.0
H2484 H 0.63038 0.51654 0.47046 0.0
H2485 H 0.64626 0.51529 0.49 0.0
H2486 H 0.43097 0.47427 0.49157 0.0
H2487 H 0.41823 0.47495 0.4719 0.0
C2488 C 0.54645 0.47727 0.52148 0.0
C2489 C 0.56603 0.49354 0.52724 0.0
C2490 C 0.53841 0.4776 0.51021 0.0
C2491 C 0.54852 0.49427 0.50444 0.0
C2492 C 0.56747 0.51056 0.51026 0.0
C2493 C 0.5768 0.51017 0.5215 0.0
C2494 C 0.58626 0.50728 0.47497 0.0
C2495 C 0.52295 0.49586 0.46963 0.0
C2496 C 0.59502 0.50662 0.48621 0.0
C2497 C 0.53969 0.49473 0.49243 0.0
C2498 C 0.47587 0.48338 0.48706 0.0
C2499 C 0.46806 0.48384 0.47578 0.0
H2500 H 0.42769 0.76438 0.77533 0.0
H2501 H 0.64859 0.72459 0.77683 0.0
H2502 H 0.43914 0.76477 0.75567 0.0
H2503 H 0.66241 0.72548 0.75721 0.0
H2504 H 0.60196 0.71653 0.72159 0.0
H2505 H 0.58733 0.71608 0.74118 0.0
H2506 H 0.53267 0.77486 0.74109 0.0
H2507 H 0.54398 0.77515 0.72141 0.0
C2508 C 0.47919 0.75581 0.77147 0.0
C2509 C 0.53703 0.74441 0.77766 0.0
C2510 C 0.48617 0.75612 0.76018 0.0
C2511 C 0.55174 0.74517 0.75481 0.0
C2512 C 0.60997 0.73386 0.76103 0.0
C2513 C 0.60239 0.73341 0.77231 0.0
C2514 C 0.58686 0.72938 0.72574 0.0
C2515 C 0.57423 0.74589 0.71992 0.0
C2516 C 0.57898 0.72914 0.73701 0.0
C2517 C 0.55918 0.74545 0.74277 0.0
C2518 C 0.54663 0.76198 0.73693 0.0
C2519 C 0.55363 0.76217 0.72564 0.0
H2520 H 0.5162 0.27543 0.27527 0.0
H2521 H 0.56656 0.21652 0.27556 0.0
H2522 H 0.5263 0.27554 0.25564 0.0
H2523 H 0.57335 0.21649 0.25585 0.0
H2524 H 0.67552 0.22639 0.22138 0.0
H2525 H 0.66633 0.22608 0.24106 0.0
H2526 H 0.44683 0.26626 0.23986 0.0
H2527 H 0.45842 0.26707 0.22022 0.0
C2528 C 0.52859 0.26245 0.27114 0.0
C2529 C 0.54059 0.24596 0.27699 0.0
C2530 C 0.53386 0.26249 0.25985 0.0
C2531 C 0.55034 0.24602 0.25412 0.0
C2532 C 0.56195 0.22949 0.25999 0.0
C2533 C 0.55756 0.22948 0.2713 0.0
C2534 C 0.62531 0.23517 0.22532 0.0
C2535 C 0.56796 0.24681 0.21923 0.0
C2536 C 0.61962 0.2349 0.23661 0.0
C2537 C 0.55584 0.24614 0.24208 0.0
C2538 C 0.49793 0.25766 0.23595 0.0
C2539 C 0.50426 0.25806 0.22467 0.0
H2540 H 0.57274 0.02814 0.02596 0.0
H2541 H 0.53643 0.96884 0.02561 0.0
H2542 H 0.55553 0.02891 0.00636 0.0
H2543 H 0.52277 0.9695 0.006 0.0
H2544 H 0.42181 0.97774 0.97171 0.0
H2545 H 0.42785 0.97808 0.9914 0.0
H2546 H 0.63306 0.02115 0.9902 0.0
H2547 H 0.62428 0.02128 0.97054 0.0
C2548 C 0.56151 0.01525 0.0217 0.0
C2549 C 0.55601 -0.00157 0.02738 0.0
C2550 C 0.55217 0.01567 0.01043 0.0
C2551 C 0.53803 -0.00074 0.00453 0.0
C2552 C 0.53201 0.98246 0.01024 0.0
C2553 C 0.5404 0.98207 0.02152 0.0
C2554 C 0.46797 0.98734 0.97565 0.0
C2555 C 0.52257 -0.00052 0.96953 0.0
C2556 C 0.47189 0.98746 0.98697 0.0
C2557 C 0.53125 -0.00041 0.99246 0.0
C2558 C 0.58538 0.01182 0.98631 0.0
C2559 C 0.58074 0.01183 0.975 0.0
loop_
_geom_bond_atom_site_label_1
_geom_bond_atom_site_label_2
_geom_bond_distance
_geom_bond_site_symmetry_2
_ccdc_geom_bond_type
Tb0 O3 2.453 . S
Tb0 O4 2.596 . S
Tb0 O5 2.374 . S
Tb0 O13 2.343 1_455 S
Tb0 O15 2.353 . S
Tb0 O17 2.427 1_455 S
Tb0 O18 2.513 1_455 S
C1 O5 1.251 . S
C1 O7 1.263 . S
Tb2 O4 2.343 1_655 S
Tb2 O7 2.353 1_655 S
Tb2 O10 2.427 1_655 S
Tb2 O11 2.513 1_655 S
Tb2 O12 2.453 . S
Tb2 O13 2.596 . S
Tb2 O14 2.374 . S
O3 Tb0 2.453 . S
O3 C19 1.245 . S
O4 Tb0 2.596 . S
O4 Tb2 2.343 1_455 S
O4 C19 1.259 . S
O5 Tb0 2.374 . S
O5 C1 1.251 . S
C6 O10 1.275 . S
C6 O11 1.246 . S
O7 C1 1.263 . S
O7 Tb2 2.353 1_455 S
C8 O12 1.245 . S
C8 O13 1.259 . S
C9 O14 1.250 1_455 S
C9 O15 1.263 . S
O10 Tb2 2.427 1_455 S
O10 C6 1.275 . S
O11 Tb2 2.513 1_455 S
O11 C6 1.246 . S
O12 Tb2 2.453 . S
O12 C8 1.245 . S
O13 Tb0 2.343 1_655 S
O13 Tb2 2.596 . S
O13 C8 1.259 . S
O14 Tb2 2.374 . S
O14 C9 1.250 1_655 S
O15 Tb0 2.353 . S
O15 C9 1.263 . S
C16 O17 1.275 . S
C16 O18 1.246 . S
O17 Tb0 2.427 1_655 S
O17 C16 1.275 . S
O18 Tb0 2.513 1_655 S
O18 C16 1.246 . S
C19 O3 1.245 . S
C19 O4 1.259 . S
Tb20 O23 2.453 . S
Tb20 O24 2.596 . S
Tb20 O25 2.374 . S
Tb20 O33 2.343 . S
Tb20 O35 2.353 . S
Tb20 O37 2.427 . S
Tb20 O38 2.513 . S
C21 O25 1.251 . S
C21 O27 1.263 . S
Tb22 O24 2.343 . S
Tb22 O27 2.353 . S
Tb22 O30 2.427 . S
Tb22 O31 2.513 . S
Tb22 O32 2.453 . S
Tb22 O33 2.596 . S
Tb22 O34 2.374 . S
O23 Tb20 2.453 . S
O23 C39 1.245 . S
O24 Tb20 2.596 . S
O24 Tb22 2.343 . S
O24 C39 1.259 . S
O25 Tb20 2.374 . S
O25 C21 1.251 . S
C26 O30 1.275 . S
C26 O31 1.246 . S
O27 C21 1.263 . S
O27 Tb22 2.353 . S
C28 O32 1.245 . S
C28 O33 1.259 . S
C29 O34 1.250 . S
C29 O35 1.263 . S
O30 Tb22 2.427 . S
O30 C26 1.275 . S
O31 Tb22 2.513 . S
O31 C26 1.246 . S
O32 Tb22 2.453 . S
O32 C28 1.245 . S
O33 Tb20 2.343 . S
O33 Tb22 2.596 . S
O33 C28 1.259 . S
O34 Tb22 2.374 . S
O34 C29 1.250 . S
O35 Tb20 2.353 . S
O35 C29 1.263 . S
C36 O37 1.275 . S
C36 O38 1.246 . S
O37 Tb20 2.427 . S
O37 C36 1.275 . S
O38 Tb20 2.513 . S
O38 C36 1.246 . S
C39 O23 1.245 . S
C39 O24 1.259 . S
Tb40 O43 2.453 . S
Tb40 O44 2.596 . S
Tb40 O45 2.374 . S
Tb40 O53 2.343 1_455 S
Tb40 O55 2.353 . S
Tb40 O57 2.427 1_455 S
Tb40 O58 2.513 1_455 S
C41 O45 1.251 . S
C41 O47 1.263 . S
Tb42 O44 2.343 1_655 S
Tb42 O47 2.353 1_655 S
Tb42 O50 2.427 1_655 S
Tb42 O51 2.513 1_655 S
Tb42 O52 2.453 . S
Tb42 O53 2.596 . S
Tb42 O54 2.374 . S
O43 Tb40 2.453 . S
O43 C59 1.245 . S
O44 Tb40 2.596 . S
O44 Tb42 2.343 1_455 S
O44 C59 1.259 . S
O45 Tb40 2.374 . S
O45 C41 1.251 . S
C46 O50 1.275 . S
C46 O51 1.246 . S
O47 C41 1.263 . S
O47 Tb42 2.353 1_455 S
C48 O52 1.245 . S
C48 O53 1.259 . S
C49 O54 1.250 1_455 S
C49 O55 1.263 . S
O50 Tb42 2.427 1_455 S
O50 C46 1.275 . S
O51 Tb42 2.513 1_455 S
O51 C46 1.246 . S
O52 Tb42 2.453 . S
O52 C48 1.245 . S
O53 Tb40 2.343 1_655 S
O53 Tb42 2.596 . S
O53 C48 1.259 . S
O54 Tb42 2.374 . S
O54 C49 1.250 1_655 S
O55 Tb40 2.353 . S
O55 C49 1.263 . S
C56 O57 1.275 . S
C56 O58 1.246 . S
O57 Tb40 2.427 1_655 S
O57 C56 1.275 . S
O58 Tb40 2.513 1_655 S
O58 C56 1.246 . S
C59 O43 1.245 . S
C59 O44 1.259 . S
Tb60 O63 2.453 . S
Tb60 O64 2.596 . S
Tb60 O65 2.374 . S
Tb60 O73 2.343 . S
Tb60 O75 2.353 . S
Tb60 O77 2.427 . S
Tb60 O78 2.513 . S
C61 O65 1.251 . S
C61 O67 1.263 . S
Tb62 O64 2.343 . S
Tb62 O67 2.353 . S
Tb62 O70 2.427 . S
Tb62 O71 2.513 . S
Tb62 O72 2.453 . S
Tb62 O73 2.596 . S
Tb62 O74 2.374 . S
O63 Tb60 2.453 . S
O63 C79 1.245 . S
O64 Tb60 2.596 . S
O64 Tb62 2.343 . S
O64 C79 1.259 . S
O65 Tb60 2.374 . S
O65 C61 1.251 . S
C66 O70 1.275 . S
C66 O71 1.246 . S
O67 C61 1.263 . S
O67 Tb62 2.353 . S
C68 O72 1.245 . S
C68 O73 1.259 . S
C69 O74 1.250 . S
C69 O75 1.263 . S
O70 Tb62 2.427 . S
O70 C66 1.275 . S
O71 Tb62 2.513 . S
O71 C66 1.246 . S
O72 Tb62 2.453 . S
O72 C68 1.245 . S
O73 Tb60 2.343 . S
O73 Tb62 2.596 . S
O73 C68 1.259 . S
O74 Tb62 2.374 . S
O74 C69 1.250 . S
O75 Tb60 2.353 . S
O75 C69 1.263 . S
C76 O77 1.275 . S
C76 O78 1.246 . S
O77 Tb60 2.427 . S
O77 C76 1.275 . S
O78 Tb60 2.513 . S
O78 C76 1.246 . S
C79 O63 1.245 . S
C79 O64 1.259 . S
Tb80 O83 2.453 . S
Tb80 O84 2.596 . S
Tb80 O85 2.374 . S
Tb80 O93 2.343 1_455 S
Tb80 O95 2.353 1_455 S
Tb80 O97 2.427 1_455 S
Tb80 O98 2.513 1_455 S
C81 O85 1.250 1_655 S
C81 O87 1.263 . S
Tb82 O84 2.343 1_655 S
Tb82 O87 2.353 . S
Tb82 O90 2.427 1_655 S
Tb82 O91 2.513 1_655 S
Tb82 O92 2.453 . S
Tb82 O93 2.596 . S
Tb82 O94 2.374 . S
O83 Tb80 2.453 . S
O83 C99 1.245 . S
O84 Tb80 2.596 . S
O84 Tb82 2.343 1_455 S
O84 C99 1.259 . S
O85 Tb80 2.374 . S
O85 C81 1.250 1_455 S
C86 O90 1.275 . S
C86 O91 1.246 . S
O87 C81 1.263 . S
O87 Tb82 2.353 . S
C88 O92 1.245 . S
C88 O93 1.259 . S
C89 O94 1.250 . S
C89 O95 1.263 . S
O90 Tb82 2.427 1_455 S
O90 C86 1.275 . S
O91 Tb82 2.513 1_455 S
O91 C86 1.246 . S
O92 Tb82 2.453 . S
O92 C88 1.245 . S
O93 Tb80 2.343 1_655 S
O93 Tb82 2.596 . S
O93 C88 1.259 . S
O94 Tb82 2.374 . S
O94 C89 1.250 . S
O95 Tb80 2.353 1_655 S
O95 C89 1.263 . S
C96 O97 1.275 . S
C96 O98 1.246 . S
O97 Tb80 2.427 1_655 S
O97 C96 1.275 . S
O98 Tb80 2.513 1_655 S
O98 C96 1.246 . S
C99 O83 1.245 . S
C99 O84 1.259 . S
Tb100 O103 2.453 . S
Tb100 O104 2.596 . S
Tb100 O105 2.374 . S
Tb100 O113 2.343 . S
Tb100 O115 2.353 . S
Tb100 O117 2.427 . S
Tb100 O118 2.513 . S
C101 O105 1.251 . S
C101 O107 1.263 . S
Tb102 O104 2.343 . S
Tb102 O107 2.353 . S
Tb102 O110 2.427 . S
Tb102 O111 2.513 . S
Tb102 O112 2.453 . S
Tb102 O113 2.596 . S
Tb102 O114 2.374 . S
O103 Tb100 2.453 . S
O103 C119 1.245 . S
O104 Tb100 2.596 . S
O104 Tb102 2.343 . S
O104 C119 1.259 . S
O105 Tb100 2.374 . S
O105 C101 1.251 . S
C106 O110 1.275 . S
C106 O111 1.246 . S
O107 C101 1.263 . S
O107 Tb102 2.353 . S
C108 O112 1.245 . S
C108 O113 1.259 . S
C109 O114 1.250 . S
C109 O115 1.263 . S
O110 Tb102 2.427 . S
O110 C106 1.275 . S
O111 Tb102 2.513 . S
O111 C106 1.246 . S
O112 Tb102 2.453 . S
O112 C108 1.245 . S
O113 Tb100 2.343 . S
O113 Tb102 2.596 . S
O113 C108 1.259 . S
O114 Tb102 2.374 . S
O114 C109 1.250 . S
O115 Tb100 2.353 . S
O115 C109 1.263 . S
C116 O117 1.275 . S
C116 O118 1.246 . S
O117 Tb100 2.427 . S
O117 C116 1.275 . S
O118 Tb100 2.513 . S
O118 C116 1.246 . S
C119 O103 1.245 . S
C119 O104 1.259 . S
Tb120 O123 2.453 . S
Tb120 O124 2.596 . S
Tb120 O125 2.374 . S
Tb120 O133 2.343 1_455 S
Tb120 O135 2.353 1_455 S
Tb120 O137 2.427 1_455 S
Tb120 O138 2.513 1_455 S
C121 O125 1.250 1_655 S
C121 O127 1.263 . S
Tb122 O124 2.343 1_655 S
Tb122 O127 2.353 . S
Tb122 O130 2.427 1_655 S
Tb122 O131 2.513 1_655 S
Tb122 O132 2.453 . S
Tb122 O133 2.596 . S
Tb122 O134 2.374 . S
O123 Tb120 2.453 . S
O123 C139 1.245 . S
O124 Tb120 2.596 . S
O124 Tb122 2.343 1_455 S
O124 C139 1.259 . S
O125 Tb120 2.374 . S
O125 C121 1.250 1_455 S
C126 O130 1.275 . S
C126 O131 1.246 . S
O127 C121 1.263 . S
O127 Tb122 2.353 . S
C128 O132 1.245 . S
C128 O133 1.259 . S
C129 O134 1.250 . S
C129 O135 1.263 . S
O130 Tb122 2.427 1_455 S
O130 C126 1.275 . S
O131 Tb122 2.513 1_455 S
O131 C126 1.246 . S
O132 Tb122 2.453 . S
O132 C128 1.245 . S
O133 Tb120 2.343 1_655 S
O133 Tb122 2.596 . S
O133 C128 1.259 . S
O134 Tb122 2.374 . S
O134 C129 1.250 . S
O135 Tb120 2.353 1_655 S
O135 C129 1.263 . S
C136 O137 1.275 . S
C136 O138 1.246 . S
O137 Tb120 2.427 1_655 S
O137 C136 1.275 . S
O138 Tb120 2.513 1_655 S
O138 C136 1.246 . S
C139 O123 1.245 . S
C139 O124 1.259 . S
Tb140 O143 2.453 . S
Tb140 O144 2.596 . S
Tb140 O145 2.374 . S
Tb140 O153 2.343 . S
Tb140 O155 2.353 . S
Tb140 O157 2.427 . S
Tb140 O158 2.513 . S
C141 O145 1.251 . S
C141 O147 1.263 . S
Tb142 O144 2.343 . S
Tb142 O147 2.353 . S
Tb142 O150 2.427 . S
Tb142 O151 2.513 . S
Tb142 O152 2.453 . S
Tb142 O153 2.596 . S
Tb142 O154 2.374 . S
O143 Tb140 2.453 . S
O143 C159 1.245 . S
O144 Tb140 2.596 . S
O144 Tb142 2.343 . S
O144 C159 1.259 . S
O145 Tb140 2.374 . S
O145 C141 1.251 . S
C146 O150 1.275 . S
C146 O151 1.246 . S
O147 C141 1.263 . S
O147 Tb142 2.353 . S
C148 O152 1.245 . S
C148 O153 1.259 . S
C149 O154 1.250 . S
C149 O155 1.263 . S
O150 Tb142 2.427 . S
O150 C146 1.275 . S
O151 Tb142 2.513 . S
O151 C146 1.246 . S
O152 Tb142 2.453 . S
O152 C148 1.245 . S
O153 Tb140 2.343 . S
O153 Tb142 2.596 . S
O153 C148 1.259 . S
O154 Tb142 2.374 . S
O154 C149 1.250 . S
O155 Tb140 2.353 . S
O155 C149 1.263 . S
C156 O157 1.275 . S
C156 O158 1.246 . S
O157 Tb140 2.427 . S
O157 C156 1.275 . S
O158 Tb140 2.513 . S
O158 C156 1.246 . S
C159 O143 1.245 . S
C159 O144 1.259 . S
Tb160 O163 2.453 . S
Tb160 O164 2.596 1_565 S
Tb160 O165 2.374 . S
Tb160 O173 2.343 1_455 S
Tb160 O175 2.353 . S
Tb160 O177 2.427 1_455 S
Tb160 O178 2.513 1_455 S
C161 O165 1.291 . S
C161 O167 1.226 1_565 S
Tb162 O164 2.343 1_655 S
Tb162 O167 2.353 1_655 S
Tb162 O170 2.427 1_655 S
Tb162 O171 2.513 1_655 S
Tb162 O172 2.453 . S
Tb162 O173 2.596 1_545 S
Tb162 O174 2.374 1_655 S
O163 Tb160 2.453 . S
O163 C179 1.245 1_565 S
O164 Tb160 2.596 1_545 S
O164 Tb162 2.343 1_455 S
O164 C179 1.259 . S
O165 Tb160 2.374 . S
O165 C161 1.291 . S
C166 O170 1.275 . S
C166 O171 1.246 . S
O167 C161 1.226 1_545 S
O167 Tb162 2.353 1_455 S
C168 O172 1.245 1_565 S
C168 O173 1.259 . S
C169 O174 1.278 . S
C169 O175 1.237 1_545 S
O170 Tb162 2.427 1_455 S
O170 C166 1.275 . S
O171 Tb162 2.513 1_455 S
O171 C166 1.246 . S
O172 Tb162 2.453 . S
O172 C168 1.245 1_545 S
O173 Tb160 2.343 1_655 S
O173 Tb162 2.596 1_565 S
O173 C168 1.259 . S
O174 Tb162 2.374 1_455 S
O174 C169 1.278 . S
O175 Tb160 2.353 . S
O175 C169 1.237 1_565 S
C176 O177 1.275 . S
C176 O178 1.246 . S
O177 Tb160 2.427 1_655 S
O177 C176 1.275 . S
O178 Tb160 2.513 1_655 S
O178 C176 1.246 . S
C179 O163 1.245 1_545 S
C179 O164 1.259 . S
Tb180 O183 2.453 . S
Tb180 O184 2.596 . S
Tb180 O185 2.374 . S
Tb180 O193 2.343 . S
Tb180 O195 2.353 . S
Tb180 O197 2.427 . S
Tb180 O198 2.513 . S
C181 O185 1.251 . S
C181 O187 1.263 . S
Tb182 O184 2.343 . S
Tb182 O187 2.353 . S
Tb182 O190 2.427 . S
Tb182 O191 2.513 . S
Tb182 O192 2.453 . S
Tb182 O193 2.596 . S
Tb182 O194 2.374 . S
O183 Tb180 2.453 . S
O183 C199 1.245 . S
O184 Tb180 2.596 . S
O184 Tb182 2.343 . S
O184 C199 1.259 . S
O185 Tb180 2.374 . S
O185 C181 1.251 . S
C186 O190 1.275 . S
C186 O191 1.246 . S
O187 C181 1.263 . S
O187 Tb182 2.353 . S
C188 O192 1.245 . S
C188 O193 1.259 . S
C189 O194 1.250 . S
C189 O195 1.263 . S
O190 Tb182 2.427 . S
O190 C186 1.275 . S
O191 Tb182 2.513 . S
O191 C186 1.246 . S
O192 Tb182 2.453 . S
O192 C188 1.245 . S
O193 Tb180 2.343 . S
O193 Tb182 2.596 . S
O193 C188 1.259 . S
O194 Tb182 2.374 . S
O194 C189 1.250 . S
O195 Tb180 2.353 . S
O195 C189 1.263 . S
C196 O197 1.275 . S
C196 O198 1.246 . S
O197 Tb180 2.427 . S
O197 C196 1.275 . S
O198 Tb180 2.513 . S
O198 C196 1.246 . S
C199 O183 1.245 . S
C199 O184 1.259 . S
Tb200 O203 2.453 . S
Tb200 O204 2.596 . S
Tb200 O205 2.374 . S
Tb200 O213 2.343 1_455 S
Tb200 O215 2.353 . S
Tb200 O217 2.427 1_455 S
Tb200 O218 2.513 1_455 S
C201 O205 1.251 . S
C201 O207 1.263 . S
Tb202 O204 2.343 1_655 S
Tb202 O207 2.353 1_655 S
Tb202 O210 2.427 1_655 S
Tb202 O211 2.513 1_655 S
Tb202 O212 2.453 . S
Tb202 O213 2.596 . S
Tb202 O214 2.374 . S
O203 Tb200 2.453 . S
O203 C219 1.245 . S
O204 Tb200 2.596 . S
O204 Tb202 2.343 1_455 S
O204 C219 1.259 . S
O205 Tb200 2.374 . S
O205 C201 1.251 . S
C206 O210 1.275 . S
C206 O211 1.246 . S
O207 C201 1.263 . S
O207 Tb202 2.353 1_455 S
C208 O212 1.245 . S
C208 O213 1.259 . S
C209 O214 1.250 1_455 S
C209 O215 1.263 . S
O210 Tb202 2.427 1_455 S
O210 C206 1.275 . S
O211 Tb202 2.513 1_455 S
O211 C206 1.246 . S
O212 Tb202 2.453 . S
O212 C208 1.245 . S
O213 Tb200 2.343 1_655 S
O213 Tb202 2.596 . S
O213 C208 1.259 . S
O214 Tb202 2.374 . S
O214 C209 1.250 1_655 S
O215 Tb200 2.353 . S
O215 C209 1.263 . S
C216 O217 1.275 . S
C216 O218 1.246 . S
O217 Tb200 2.427 1_655 S
O217 C216 1.275 . S
O218 Tb200 2.513 1_655 S
O218 C216 1.246 . S
C219 O203 1.245 . S
C219 O204 1.259 . S
Tb220 O223 2.453 . S
Tb220 O224 2.596 1_565 S
Tb220 O225 2.374 . S
Tb220 O233 2.343 . S
Tb220 O235 2.353 . S
Tb220 O237 2.427 . S
Tb220 O238 2.513 . S
C221 O225 1.291 . S
C221 O227 1.226 1_565 S
Tb222 O224 2.343 . S
Tb222 O227 2.353 . S
Tb222 O230 2.427 . S
Tb222 O231 2.513 . S
Tb222 O232 2.453 . S
Tb222 O233 2.596 1_545 S
Tb222 O234 2.374 . S
O223 Tb220 2.453 . S
O223 C239 1.245 1_565 S
O224 Tb220 2.596 1_545 S
O224 Tb222 2.343 . S
O224 C239 1.259 . S
O225 Tb220 2.374 . S
O225 C221 1.291 . S
C226 O230 1.275 . S
C226 O231 1.246 . S
O227 C221 1.226 1_545 S
O227 Tb222 2.353 . S
C228 O232 1.245 1_565 S
C228 O233 1.259 . S
C229 O234 1.278 . S
C229 O235 1.237 1_545 S
O230 Tb222 2.427 . S
O230 C226 1.275 . S
O231 Tb222 2.513 . S
O231 C226 1.246 . S
O232 Tb222 2.453 . S
O232 C228 1.245 1_545 S
O233 Tb220 2.343 . S
O233 Tb222 2.596 1_565 S
O233 C228 1.259 . S
O234 Tb222 2.374 . S
O234 C229 1.278 . S
O235 Tb220 2.353 . S
O235 C229 1.237 1_565 S
C236 O237 1.275 . S
C236 O238 1.246 . S
O237 Tb220 2.427 . S
O237 C236 1.275 . S
O238 Tb220 2.513 . S
O238 C236 1.246 . S
C239 O223 1.245 1_545 S
C239 O224 1.259 . S
Tb240 O243 2.453 . S
Tb240 O244 2.596 1_565 S
Tb240 O245 2.374 1_455 S
Tb240 O253 2.343 1_455 S
Tb240 O255 2.353 1_455 S
Tb240 O257 2.427 1_455 S
Tb240 O258 2.513 1_455 S
C241 O245 1.278 . S
C241 O247 1.237 1_565 S
Tb242 O244 2.343 1_655 S
Tb242 O247 2.353 . S
Tb242 O250 2.427 1_655 S
Tb242 O251 2.513 1_655 S
Tb242 O252 2.453 . S
Tb242 O253 2.596 1_545 S
Tb242 O254 2.374 . S
O243 Tb240 2.453 . S
O243 C259 1.245 1_565 S
O244 Tb240 2.596 1_545 S
O244 Tb242 2.343 1_455 S
O244 C259 1.259 . S
O245 Tb240 2.374 1_655 S
O245 C241 1.278 . S
C246 O250 1.275 . S
C246 O251 1.246 . S
O247 C241 1.237 1_545 S
O247 Tb242 2.353 . S
C248 O252 1.245 1_565 S
C248 O253 1.259 . S
C249 O254 1.291 . S
C249 O255 1.226 1_545 S
O250 Tb242 2.427 1_455 S
O250 C246 1.275 . S
O251 Tb242 2.513 1_455 S
O251 C246 1.246 . S
O252 Tb242 2.453 . S
O252 C248 1.245 1_545 S
O253 Tb240 2.343 1_655 S
O253 Tb242 2.596 1_565 S
O253 C248 1.259 . S
O254 Tb242 2.374 . S
O254 C249 1.291 . S
O255 Tb240 2.353 1_655 S
O255 C249 1.226 1_565 S
C256 O257 1.275 . S
C256 O258 1.246 . S
O257 Tb240 2.427 1_655 S
O257 C256 1.275 . S
O258 Tb240 2.513 1_655 S
O258 C256 1.246 . S
C259 O243 1.245 1_545 S
C259 O244 1.259 . S
Tb260 O263 2.453 . S
Tb260 O264 2.596 . S
Tb260 O265 2.374 . S
Tb260 O273 2.343 . S
Tb260 O275 2.353 . S
Tb260 O277 2.427 . S
Tb260 O278 2.513 . S
C261 O265 1.251 . S
C261 O267 1.263 . S
Tb262 O264 2.343 . S
Tb262 O267 2.353 . S
Tb262 O270 2.427 . S
Tb262 O271 2.513 . S
Tb262 O272 2.453 . S
Tb262 O273 2.596 . S
Tb262 O274 2.374 . S
O263 Tb260 2.453 . S
O263 C279 1.245 . S
O264 Tb260 2.596 . S
O264 Tb262 2.343 . S
O264 C279 1.259 . S
O265 Tb260 2.374 . S
O265 C261 1.251 . S
C266 O270 1.275 . S
C266 O271 1.246 . S
O267 C261 1.263 . S
O267 Tb262 2.353 . S
C268 O272 1.245 . S
C268 O273 1.259 . S
C269 O274 1.250 . S
C269 O275 1.263 . S
O270 Tb262 2.427 . S
O270 C266 1.275 . S
O271 Tb262 2.513 . S
O271 C266 1.246 . S
O272 Tb262 2.453 . S
O272 C268 1.245 . S
O273 Tb260 2.343 . S
O273 Tb262 2.596 . S
O273 C268 1.259 . S
O274 Tb262 2.374 . S
O274 C269 1.250 . S
O275 Tb260 2.353 . S
O275 C269 1.263 . S
C276 O277 1.275 . S
C276 O278 1.246 . S
O277 Tb260 2.427 . S
O277 C276 1.275 . S
O278 Tb260 2.513 . S
O278 C276 1.246 . S
C279 O263 1.245 . S
C279 O264 1.259 . S
Tb280 O283 2.453 . S
Tb280 O284 2.596 . S
Tb280 O285 2.374 . S
Tb280 O293 2.343 1_455 S
Tb280 O295 2.353 1_455 S
Tb280 O297 2.427 1_455 S
Tb280 O298 2.513 1_455 S
C281 O285 1.250 1_655 S
C281 O287 1.263 . S
Tb282 O284 2.343 1_655 S
Tb282 O287 2.353 . S
Tb282 O290 2.427 1_655 S
Tb282 O291 2.513 1_655 S
Tb282 O292 2.453 . S
Tb282 O293 2.596 . S
Tb282 O294 2.374 . S
O283 Tb280 2.453 . S
O283 C299 1.245 . S
O284 Tb280 2.596 . S
O284 Tb282 2.343 1_455 S
O284 C299 1.259 . S
O285 Tb280 2.374 . S
O285 C281 1.250 1_455 S
C286 O290 1.275 . S
C286 O291 1.246 . S
O287 C281 1.263 . S
O287 Tb282 2.353 . S
C288 O292 1.245 . S
C288 O293 1.259 . S
C289 O294 1.250 . S
C289 O295 1.263 . S
O290 Tb282 2.427 1_455 S
O290 C286 1.275 . S
O291 Tb282 2.513 1_455 S
O291 C286 1.246 . S
O292 Tb282 2.453 . S
O292 C288 1.245 . S
O293 Tb280 2.343 1_655 S
O293 Tb282 2.596 . S
O293 C288 1.259 . S
O294 Tb282 2.374 . S
O294 C289 1.250 . S
O295 Tb280 2.353 1_655 S
O295 C289 1.263 . S
C296 O297 1.275 . S
C296 O298 1.246 . S
O297 Tb280 2.427 1_655 S
O297 C296 1.275 . S
O298 Tb280 2.513 1_655 S
O298 C296 1.246 . S
C299 O283 1.245 . S
C299 O284 1.259 . S
Tb300 O303 2.453 . S
Tb300 O304 2.596 1_565 S
Tb300 O305 2.374 . S
Tb300 O313 2.343 . S
Tb300 O315 2.353 . S
Tb300 O317 2.427 . S
Tb300 O318 2.513 . S
C301 O305 1.278 . S
C301 O307 1.237 1_565 S
Tb302 O304 2.343 . S
Tb302 O307 2.353 . S
Tb302 O310 2.427 . S
Tb302 O311 2.513 . S
Tb302 O312 2.453 . S
Tb302 O313 2.596 1_545 S
Tb302 O314 2.374 . S
O303 Tb300 2.453 . S
O303 C319 1.245 1_565 S
O304 Tb300 2.596 1_545 S
O304 Tb302 2.343 . S
O304 C319 1.259 . S
O305 Tb300 2.374 . S
O305 C301 1.278 . S
C306 O310 1.275 . S
C306 O311 1.246 . S
O307 C301 1.237 1_545 S
O307 Tb302 2.353 . S
C308 O312 1.245 1_565 S
C308 O313 1.259 . S
C309 O314 1.291 . S
C309 O315 1.226 1_545 S
O310 Tb302 2.427 . S
O310 C306 1.275 . S
O311 Tb302 2.513 . S
O311 C306 1.246 . S
O312 Tb302 2.453 . S
O312 C308 1.245 1_545 S
O313 Tb300 2.343 . S
O313 Tb302 2.596 1_565 S
O313 C308 1.259 . S
O314 Tb302 2.374 . S
O314 C309 1.291 . S
O315 Tb300 2.353 . S
O315 C309 1.226 1_565 S
C316 O317 1.275 . S
C316 O318 1.246 . S
O317 Tb300 2.427 . S
O317 C316 1.275 . S
O318 Tb300 2.513 . S
O318 C316 1.246 . S
C319 O303 1.245 1_545 S
C319 O304 1.259 . S
Tb320 O323 2.453 . S
Tb320 O324 2.596 . S
Tb320 O325 2.374 . S
Tb320 O333 2.343 . S
Tb320 O335 2.353 . S
Tb320 O337 2.427 . S
Tb320 O338 2.513 . S
C321 O325 1.251 . S
C321 O327 1.263 . S
Tb322 O324 2.343 . S
Tb322 O327 2.353 . S
Tb322 O330 2.427 . S
Tb322 O331 2.513 . S
Tb322 O332 2.453 . S
Tb322 O333 2.596 . S
Tb322 O334 2.374 . S
O323 Tb320 2.453 . S
O323 C339 1.245 . S
O324 Tb320 2.596 . S
O324 Tb322 2.343 . S
O324 C339 1.259 . S
O325 Tb320 2.374 . S
O325 C321 1.251 . S
C326 O330 1.275 . S
C326 O331 1.246 . S
O327 C321 1.263 . S
O327 Tb322 2.353 . S
C328 O332 1.245 . S
C328 O333 1.259 . S
C329 O334 1.250 . S
C329 O335 1.263 . S
O330 Tb322 2.427 . S
O330 C326 1.275 . S
O331 Tb322 2.513 . S
O331 C326 1.246 . S
O332 Tb322 2.453 . S
O332 C328 1.245 . S
O333 Tb320 2.343 . S
O333 Tb322 2.596 . S
O333 C328 1.259 . S
O334 Tb322 2.374 . S
O334 C329 1.250 . S
O335 Tb320 2.353 . S
O335 C329 1.263 . S
C336 O337 1.275 . S
C336 O338 1.246 . S
O337 Tb320 2.427 . S
O337 C336 1.275 . S
O338 Tb320 2.513 . S
O338 C336 1.246 . S
C339 O323 1.245 . S
C339 O324 1.259 . S
Tb340 O343 2.453 . S
Tb340 O344 2.596 . S
Tb340 O345 2.374 . S
Tb340 O353 2.343 . S
Tb340 O355 2.353 . S
Tb340 O357 2.427 . S
Tb340 O358 2.513 . S
C341 O345 1.251 . S
C341 O347 1.263 . S
Tb342 O344 2.343 . S
Tb342 O347 2.353 . S
Tb342 O350 2.427 . S
Tb342 O351 2.513 . S
Tb342 O352 2.453 . S
Tb342 O353 2.596 . S
Tb342 O354 2.374 . S
O343 Tb340 2.453 . S
O343 C359 1.245 . S
O344 Tb340 2.596 . S
O344 Tb342 2.343 . S
O344 C359 1.259 . S
O345 Tb340 2.374 . S
O345 C341 1.251 . S
C346 O350 1.275 . S
C346 O351 1.246 . S
O347 C341 1.263 . S
O347 Tb342 2.353 . S
C348 O352 1.245 . S
C348 O353 1.259 . S
C349 O354 1.250 . S
C349 O355 1.263 . S
O350 Tb342 2.427 . S
O350 C346 1.275 . S
O351 Tb342 2.513 . S
O351 C346 1.246 . S
O352 Tb342 2.453 . S
O352 C348 1.245 . S
O353 Tb340 2.343 . S
O353 Tb342 2.596 . S
O353 C348 1.259 . S
O354 Tb342 2.374 . S
O354 C349 1.250 . S
O355 Tb340 2.353 . S
O355 C349 1.263 . S
C356 O357 1.275 . S
C356 O358 1.246 . S
O357 Tb340 2.427 . S
O357 C356 1.275 . S
O358 Tb340 2.513 . S
O358 C356 1.246 . S
C359 O343 1.245 . S
C359 O344 1.259 . S
Tb360 O363 2.453 . S
Tb360 O364 2.596 . S
Tb360 O365 2.374 . S
Tb360 O373 2.343 . S
Tb360 O375 2.353 . S
Tb360 O377 2.427 . S
Tb360 O378 2.513 . S
C361 O365 1.251 . S
C361 O367 1.263 . S
Tb362 O364 2.343 . S
Tb362 O367 2.353 . S
Tb362 O370 2.427 . S
Tb362 O371 2.513 . S
Tb362 O372 2.453 . S
Tb362 O373 2.596 . S
Tb362 O374 2.374 . S
O363 Tb360 2.453 . S
O363 C379 1.245 . S
O364 Tb360 2.596 . S
O364 Tb362 2.343 . S
O364 C379 1.259 . S
O365 Tb360 2.374 . S
O365 C361 1.251 . S
C366 O370 1.275 . S
C366 O371 1.246 . S
O367 C361 1.263 . S
O367 Tb362 2.353 . S
C368 O372 1.245 . S
C368 O373 1.259 . S
C369 O374 1.250 . S
C369 O375 1.263 . S
O370 Tb362 2.427 . S
O370 C366 1.275 . S
O371 Tb362 2.513 . S
O371 C366 1.246 . S
O372 Tb362 2.453 . S
O372 C368 1.245 . S
O373 Tb360 2.343 . S
O373 Tb362 2.596 . S
O373 C368 1.259 . S
O374 Tb362 2.374 . S
O374 C369 1.250 . S
O375 Tb360 2.353 . S
O375 C369 1.263 . S
C376 O377 1.275 . S
C376 O378 1.246 . S
O377 Tb360 2.427 . S
O377 C376 1.275 . S
O378 Tb360 2.513 . S
O378 C376 1.246 . S
C379 O363 1.245 . S
C379 O364 1.259 . S
Tb380 O383 2.453 . S
Tb380 O384 2.596 . S
Tb380 O385 2.374 . S
Tb380 O393 2.343 . S
Tb380 O395 2.353 . S
Tb380 O397 2.427 . S
Tb380 O398 2.513 . S
C381 O385 1.251 . S
C381 O387 1.263 . S
Tb382 O384 2.343 . S
Tb382 O387 2.353 . S
Tb382 O390 2.427 . S
Tb382 O391 2.513 . S
Tb382 O392 2.453 . S
Tb382 O393 2.596 . S
Tb382 O394 2.374 . S
O383 Tb380 2.453 . S
O383 C399 1.245 . S
O384 Tb380 2.596 . S
O384 Tb382 2.343 . S
O384 C399 1.259 . S
O385 Tb380 2.374 . S
O385 C381 1.251 . S
C386 O390 1.275 . S
C386 O391 1.246 . S
O387 C381 1.263 . S
O387 Tb382 2.353 . S
C388 O392 1.245 . S
C388 O393 1.259 . S
C389 O394 1.250 . S
C389 O395 1.263 . S
O390 Tb382 2.427 . S
O390 C386 1.275 . S
O391 Tb382 2.513 . S
O391 C386 1.246 . S
O392 Tb382 2.453 . S
O392 C388 1.245 . S
O393 Tb380 2.343 . S
O393 Tb382 2.596 . S
O393 C388 1.259 . S
O394 Tb382 2.374 . S
O394 C389 1.250 . S
O395 Tb380 2.353 . S
O395 C389 1.263 . S
C396 O397 1.275 . S
C396 O398 1.246 . S
O397 Tb380 2.427 . S
O397 C396 1.275 . S
O398 Tb380 2.513 . S
O398 C396 1.246 . S
C399 O383 1.245 . S
C399 O384 1.259 . S
Tb400 O403 2.453 . S
Tb400 O404 2.596 . S
Tb400 O405 2.374 . S
Tb400 O413 2.343 . S
Tb400 O415 2.353 . S
Tb400 O417 2.427 . S
Tb400 O418 2.513 . S
C401 O405 1.251 . S
C401 O407 1.263 . S
Tb402 O404 2.343 . S
Tb402 O407 2.353 . S
Tb402 O410 2.427 . S
Tb402 O411 2.513 . S
Tb402 O412 2.453 . S
Tb402 O413 2.596 . S
Tb402 O414 2.374 . S
O403 Tb400 2.453 . S
O403 C419 1.245 . S
O404 Tb400 2.596 . S
O404 Tb402 2.343 . S
O404 C419 1.259 . S
O405 Tb400 2.374 . S
O405 C401 1.251 . S
C406 O410 1.275 . S
C406 O411 1.246 . S
O407 C401 1.263 . S
O407 Tb402 2.353 . S
C408 O412 1.245 . S
C408 O413 1.259 . S
C409 O414 1.250 . S
C409 O415 1.263 . S
O410 Tb402 2.427 . S
O410 C406 1.275 . S
O411 Tb402 2.513 . S
O411 C406 1.246 . S
O412 Tb402 2.453 . S
O412 C408 1.245 . S
O413 Tb400 2.343 . S
O413 Tb402 2.596 . S
O413 C408 1.259 . S
O414 Tb402 2.374 . S
O414 C409 1.250 . S
O415 Tb400 2.353 . S
O415 C409 1.263 . S
C416 O417 1.275 . S
C416 O418 1.246 . S
O417 Tb400 2.427 . S
O417 C416 1.275 . S
O418 Tb400 2.513 . S
O418 C416 1.246 . S
C419 O403 1.245 . S
C419 O404 1.259 . S
Tb420 O423 2.453 . S
Tb420 O424 2.596 . S
Tb420 O425 2.374 . S
Tb420 O433 2.343 . S
Tb420 O435 2.353 . S
Tb420 O437 2.427 . S
Tb420 O438 2.513 . S
C421 O425 1.251 . S
C421 O427 1.263 . S
Tb422 O424 2.343 . S
Tb422 O427 2.353 . S
Tb422 O430 2.427 . S
Tb422 O431 2.513 . S
Tb422 O432 2.453 . S
Tb422 O433 2.596 . S
Tb422 O434 2.374 . S
O423 Tb420 2.453 . S
O423 C439 1.245 . S
O424 Tb420 2.596 . S
O424 Tb422 2.343 . S
O424 C439 1.259 . S
O425 Tb420 2.374 . S
O425 C421 1.251 . S
C426 O430 1.275 . S
C426 O431 1.246 . S
O427 C421 1.263 . S
O427 Tb422 2.353 . S
C428 O432 1.245 . S
C428 O433 1.259 . S
C429 O434 1.250 . S
C429 O435 1.263 . S
O430 Tb422 2.427 . S
O430 C426 1.275 . S
O431 Tb422 2.513 . S
O431 C426 1.246 . S
O432 Tb422 2.453 . S
O432 C428 1.245 . S
O433 Tb420 2.343 . S
O433 Tb422 2.596 . S
O433 C428 1.259 . S
O434 Tb422 2.374 . S
O434 C429 1.250 . S
O435 Tb420 2.353 . S
O435 C429 1.263 . S
C436 O437 1.275 . S
C436 O438 1.246 . S
O437 Tb420 2.427 . S
O437 C436 1.275 . S
O438 Tb420 2.513 . S
O438 C436 1.246 . S
C439 O423 1.245 . S
C439 O424 1.259 . S
Tb440 O443 2.453 . S
Tb440 O444 2.596 . S
Tb440 O445 2.374 . S
Tb440 O453 2.343 . S
Tb440 O455 2.353 . S
Tb440 O457 2.427 . S
Tb440 O458 2.513 . S
C441 O445 1.251 . S
C441 O447 1.263 . S
Tb442 O444 2.343 . S
Tb442 O447 2.353 . S
Tb442 O450 2.427 . S
Tb442 O451 2.513 . S
Tb442 O452 2.453 . S
Tb442 O453 2.596 . S
Tb442 O454 2.374 . S
O443 Tb440 2.453 . S
O443 C459 1.245 . S
O444 Tb440 2.596 . S
O444 Tb442 2.343 . S
O444 C459 1.259 . S
O445 Tb440 2.374 . S
O445 C441 1.251 . S
C446 O450 1.275 . S
C446 O451 1.246 . S
O447 C441 1.263 . S
O447 Tb442 2.353 . S
C448 O452 1.245 . S
C448 O453 1.259 . S
C449 O454 1.250 . S
C449 O455 1.263 . S
O450 Tb442 2.427 . S
O450 C446 1.275 . S
O451 Tb442 2.513 . S
O451 C446 1.246 . S
O452 Tb442 2.453 . S
O452 C448 1.245 . S
O453 Tb440 2.343 . S
O453 Tb442 2.596 . S
O453 C448 1.259 . S
O454 Tb442 2.374 . S
O454 C449 1.250 . S
O455 Tb440 2.353 . S
O455 C449 1.263 . S
C456 O457 1.275 . S
C456 O458 1.246 . S
O457 Tb440 2.427 . S
O457 C456 1.275 . S
O458 Tb440 2.513 . S
O458 C456 1.246 . S
C459 O443 1.245 . S
C459 O444 1.259 . S
Tb460 O463 2.453 . S
Tb460 O464 2.596 . S
Tb460 O465 2.374 . S
Tb460 O473 2.343 . S
Tb460 O475 2.353 . S
Tb460 O477 2.427 . S
Tb460 O478 2.513 . S
C461 O465 1.251 . S
C461 O467 1.263 . S
Tb462 O464 2.343 . S
Tb462 O467 2.353 . S
Tb462 O470 2.427 . S
Tb462 O471 2.513 . S
Tb462 O472 2.453 . S
Tb462 O473 2.596 . S
Tb462 O474 2.374 . S
O463 Tb460 2.453 . S
O463 C479 1.245 . S
O464 Tb460 2.596 . S
O464 Tb462 2.343 . S
O464 C479 1.259 . S
O465 Tb460 2.374 . S
O465 C461 1.251 . S
C466 O470 1.275 . S
C466 O471 1.246 . S
O467 C461 1.263 . S
O467 Tb462 2.353 . S
C468 O472 1.245 . S
C468 O473 1.259 . S
C469 O474 1.250 . S
C469 O475 1.263 . S
O470 Tb462 2.427 . S
O470 C466 1.275 . S
O471 Tb462 2.513 . S
O471 C466 1.246 . S
O472 Tb462 2.453 . S
O472 C468 1.245 . S
O473 Tb460 2.343 . S
O473 Tb462 2.596 . S
O473 C468 1.259 . S
O474 Tb462 2.374 . S
O474 C469 1.250 . S
O475 Tb460 2.353 . S
O475 C469 1.263 . S
C476 O477 1.275 . S
C476 O478 1.246 . S
O477 Tb460 2.427 . S
O477 C476 1.275 . S
O478 Tb460 2.513 . S
O478 C476 1.246 . S
C479 O463 1.245 . S
C479 O464 1.259 . S
Tb480 O483 2.453 . S
Tb480 O484 2.596 1_565 S
Tb480 O485 2.374 . S
Tb480 O493 2.343 . S
Tb480 O495 2.353 . S
Tb480 O497 2.427 . S
Tb480 O498 2.513 . S
C481 O485 1.291 . S
C481 O487 1.226 1_565 S
Tb482 O484 2.343 . S
Tb482 O487 2.353 . S
Tb482 O490 2.427 . S
Tb482 O491 2.513 . S
Tb482 O492 2.453 . S
Tb482 O493 2.596 1_545 S
Tb482 O494 2.374 . S
O483 Tb480 2.453 . S
O483 C499 1.245 1_565 S
O484 Tb480 2.596 1_545 S
O484 Tb482 2.343 . S
O484 C499 1.259 . S
O485 Tb480 2.374 . S
O485 C481 1.291 . S
C486 O490 1.275 . S
C486 O491 1.246 . S
O487 C481 1.226 1_545 S
O487 Tb482 2.353 . S
C488 O492 1.245 1_565 S
C488 O493 1.259 . S
C489 O494 1.278 . S
C489 O495 1.237 1_545 S
O490 Tb482 2.427 . S
O490 C486 1.275 . S
O491 Tb482 2.513 . S
O491 C486 1.246 . S
O492 Tb482 2.453 . S
O492 C488 1.245 1_545 S
O493 Tb480 2.343 . S
O493 Tb482 2.596 1_565 S
O493 C488 1.259 . S
O494 Tb482 2.374 . S
O494 C489 1.278 . S
O495 Tb480 2.353 . S
O495 C489 1.237 1_565 S
C496 O497 1.275 . S
C496 O498 1.246 . S
O497 Tb480 2.427 . S
O497 C496 1.275 . S
O498 Tb480 2.513 . S
O498 C496 1.246 . S
C499 O483 1.245 1_545 S
C499 O484 1.259 . S
Tb500 O503 2.453 . S
Tb500 O504 2.596 . S
Tb500 O505 2.374 . S
Tb500 O513 2.343 . S
Tb500 O515 2.353 . S
Tb500 O517 2.427 . S
Tb500 O518 2.513 . S
C501 O505 1.251 . S
C501 O507 1.263 . S
Tb502 O504 2.343 . S
Tb502 O507 2.353 . S
Tb502 O510 2.427 . S
Tb502 O511 2.513 . S
Tb502 O512 2.453 . S
Tb502 O513 2.596 . S
Tb502 O514 2.374 . S
O503 Tb500 2.453 . S
O503 C519 1.245 . S
O504 Tb500 2.596 . S
O504 Tb502 2.343 . S
O504 C519 1.259 . S
O505 Tb500 2.374 . S
O505 C501 1.251 . S
C506 O510 1.275 . S
C506 O511 1.246 . S
O507 C501 1.263 . S
O507 Tb502 2.353 . S
C508 O512 1.245 . S
C508 O513 1.259 . S
C509 O514 1.250 . S
C509 O515 1.263 . S
O510 Tb502 2.427 . S
O510 C506 1.275 . S
O511 Tb502 2.513 . S
O511 C506 1.246 . S
O512 Tb502 2.453 . S
O512 C508 1.245 . S
O513 Tb500 2.343 . S
O513 Tb502 2.596 . S
O513 C508 1.259 . S
O514 Tb502 2.374 . S
O514 C509 1.250 . S
O515 Tb500 2.353 . S
O515 C509 1.263 . S
C516 O517 1.275 . S
C516 O518 1.246 . S
O517 Tb500 2.427 . S
O517 C516 1.275 . S
O518 Tb500 2.513 . S
O518 C516 1.246 . S
C519 O503 1.245 . S
C519 O504 1.259 . S
Tb520 O523 2.453 . S
Tb520 O524 2.596 . S
Tb520 O525 2.374 . S
Tb520 O533 2.343 . S
Tb520 O535 2.353 . S
Tb520 O537 2.427 . S
Tb520 O538 2.513 . S
C521 O525 1.251 . S
C521 O527 1.263 . S
Tb522 O524 2.343 . S
Tb522 O527 2.353 . S
Tb522 O530 2.427 . S
Tb522 O531 2.513 . S
Tb522 O532 2.453 . S
Tb522 O533 2.596 . S
Tb522 O534 2.374 . S
O523 Tb520 2.453 . S
O523 C539 1.245 . S
O524 Tb520 2.596 . S
O524 Tb522 2.343 . S
O524 C539 1.259 . S
O525 Tb520 2.374 . S
O525 C521 1.251 . S
C526 O530 1.275 . S
C526 O531 1.246 . S
O527 C521 1.263 . S
O527 Tb522 2.353 . S
C528 O532 1.245 . S
C528 O533 1.259 . S
C529 O534 1.250 . S
C529 O535 1.263 . S
O530 Tb522 2.427 . S
O530 C526 1.275 . S
O531 Tb522 2.513 . S
O531 C526 1.246 . S
O532 Tb522 2.453 . S
O532 C528 1.245 . S
O533 Tb520 2.343 . S
O533 Tb522 2.596 . S
O533 C528 1.259 . S
O534 Tb522 2.374 . S
O534 C529 1.250 . S
O535 Tb520 2.353 . S
O535 C529 1.263 . S
C536 O537 1.275 . S
C536 O538 1.246 . S
O537 Tb520 2.427 . S
O537 C536 1.275 . S
O538 Tb520 2.513 . S
O538 C536 1.246 . S
C539 O523 1.245 . S
C539 O524 1.259 . S
Tb540 O543 2.453 . S
Tb540 O544 2.596 1_565 S
Tb540 O545 2.374 . S
Tb540 O553 2.343 . S
Tb540 O555 2.353 . S
Tb540 O557 2.427 . S
Tb540 O558 2.513 . S
C541 O545 1.291 . S
C541 O547 1.226 1_565 S
Tb542 O544 2.343 . S
Tb542 O547 2.353 . S
Tb542 O550 2.427 . S
Tb542 O551 2.513 . S
Tb542 O552 2.453 . S
Tb542 O553 2.596 1_545 S
Tb542 O554 2.374 . S
O543 Tb540 2.453 . S
O543 C559 1.245 1_565 S
O544 Tb540 2.596 1_545 S
O544 Tb542 2.343 . S
O544 C559 1.259 . S
O545 Tb540 2.374 . S
O545 C541 1.291 . S
C546 O550 1.275 . S
C546 O551 1.246 . S
O547 C541 1.226 1_545 S
O547 Tb542 2.353 . S
C548 O552 1.245 1_565 S
C548 O553 1.259 . S
C549 O554 1.278 . S
C549 O555 1.237 1_545 S
O550 Tb542 2.427 . S
O550 C546 1.275 . S
O551 Tb542 2.513 . S
O551 C546 1.246 . S
O552 Tb542 2.453 . S
O552 C548 1.245 1_545 S
O553 Tb540 2.343 . S
O553 Tb542 2.596 1_565 S
O553 C548 1.259 . S
O554 Tb542 2.374 . S
O554 C549 1.278 . S
O555 Tb540 2.353 . S
O555 C549 1.237 1_565 S
C556 O557 1.275 . S
C556 O558 1.246 . S
O557 Tb540 2.427 . S
O557 C556 1.275 . S
O558 Tb540 2.513 . S
O558 C556 1.246 . S
C559 O543 1.245 1_545 S
C559 O544 1.259 . S
Tb560 O563 2.453 . S
Tb560 O564 2.596 1_565 S
Tb560 O565 2.374 . S
Tb560 O573 2.343 . S
Tb560 O575 2.353 . S
Tb560 O577 2.427 . S
Tb560 O578 2.513 . S
C561 O565 1.278 . S
C561 O567 1.237 1_565 S
Tb562 O564 2.343 . S
Tb562 O567 2.353 . S
Tb562 O570 2.427 . S
Tb562 O571 2.513 . S
Tb562 O572 2.453 . S
Tb562 O573 2.596 1_545 S
Tb562 O574 2.374 . S
O563 Tb560 2.453 . S
O563 C579 1.245 1_565 S
O564 Tb560 2.596 1_545 S
O564 Tb562 2.343 . S
O564 C579 1.259 . S
O565 Tb560 2.374 . S
O565 C561 1.278 . S
C566 O570 1.275 . S
C566 O571 1.246 . S
O567 C561 1.237 1_545 S
O567 Tb562 2.353 . S
C568 O572 1.245 1_565 S
C568 O573 1.259 . S
C569 O574 1.291 . S
C569 O575 1.226 1_545 S
O570 Tb562 2.427 . S
O570 C566 1.275 . S
O571 Tb562 2.513 . S
O571 C566 1.246 . S
O572 Tb562 2.453 . S
O572 C568 1.245 1_545 S
O573 Tb560 2.343 . S
O573 Tb562 2.596 1_565 S
O573 C568 1.259 . S
O574 Tb562 2.374 . S
O574 C569 1.291 . S
O575 Tb560 2.353 . S
O575 C569 1.226 1_565 S
C576 O577 1.275 . S
C576 O578 1.246 . S
O577 Tb560 2.427 . S
O577 C576 1.275 . S
O578 Tb560 2.513 . S
O578 C576 1.246 . S
C579 O563 1.245 1_545 S
C579 O564 1.259 . S
Tb580 O583 2.453 . S
Tb580 O584 2.596 . S
Tb580 O585 2.374 . S
Tb580 O593 2.343 . S
Tb580 O595 2.353 . S
Tb580 O597 2.427 . S
Tb580 O598 2.513 . S
C581 O585 1.251 . S
C581 O587 1.263 . S
Tb582 O584 2.343 . S
Tb582 O587 2.353 . S
Tb582 O590 2.427 . S
Tb582 O591 2.513 . S
Tb582 O592 2.453 . S
Tb582 O593 2.596 . S
Tb582 O594 2.374 . S
O583 Tb580 2.453 . S
O583 C599 1.245 . S
O584 Tb580 2.596 . S
O584 Tb582 2.343 . S
O584 C599 1.259 . S
O585 Tb580 2.374 . S
O585 C581 1.251 . S
C586 O590 1.275 . S
C586 O591 1.246 . S
O587 C581 1.263 . S
O587 Tb582 2.353 . S
C588 O592 1.245 . S
C588 O593 1.259 . S
C589 O594 1.250 . S
C589 O595 1.263 . S
O590 Tb582 2.427 . S
O590 C586 1.275 . S
O591 Tb582 2.513 . S
O591 C586 1.246 . S
O592 Tb582 2.453 . S
O592 C588 1.245 . S
O593 Tb580 2.343 . S
O593 Tb582 2.596 . S
O593 C588 1.259 . S
O594 Tb582 2.374 . S
O594 C589 1.250 . S
O595 Tb580 2.353 . S
O595 C589 1.263 . S
C596 O597 1.275 . S
C596 O598 1.246 . S
O597 Tb580 2.427 . S
O597 C596 1.275 . S
O598 Tb580 2.513 . S
O598 C596 1.246 . S
C599 O583 1.245 . S
C599 O584 1.259 . S
Tb600 O603 2.453 . S
Tb600 O604 2.596 . S
Tb600 O605 2.374 . S
Tb600 O613 2.343 . S
Tb600 O615 2.353 . S
Tb600 O617 2.427 . S
Tb600 O618 2.513 . S
C601 O605 1.251 . S
C601 O607 1.263 . S
Tb602 O604 2.343 . S
Tb602 O607 2.353 . S
Tb602 O610 2.427 . S
Tb602 O611 2.513 . S
Tb602 O612 2.453 . S
Tb602 O613 2.596 . S
Tb602 O614 2.374 . S
O603 Tb600 2.453 . S
O603 C619 1.245 . S
O604 Tb600 2.596 . S
O604 Tb602 2.343 . S
O604 C619 1.259 . S
O605 Tb600 2.374 . S
O605 C601 1.251 . S
C606 O610 1.275 . S
C606 O611 1.246 . S
O607 C601 1.263 . S
O607 Tb602 2.353 . S
C608 O612 1.245 . S
C608 O613 1.259 . S
C609 O614 1.250 . S
C609 O615 1.263 . S
O610 Tb602 2.427 . S
O610 C606 1.275 . S
O611 Tb602 2.513 . S
O611 C606 1.246 . S
O612 Tb602 2.453 . S
O612 C608 1.245 . S
O613 Tb600 2.343 . S
O613 Tb602 2.596 . S
O613 C608 1.259 . S
O614 Tb602 2.374 . S
O614 C609 1.250 . S
O615 Tb600 2.353 . S
O615 C609 1.263 . S
C616 O617 1.275 . S
C616 O618 1.246 . S
O617 Tb600 2.427 . S
O617 C616 1.275 . S
O618 Tb600 2.513 . S
O618 C616 1.246 . S
C619 O603 1.245 . S
C619 O604 1.259 . S
Tb620 O623 2.453 . S
Tb620 O624 2.596 1_565 S
Tb620 O625 2.374 . S
Tb620 O633 2.343 . S
Tb620 O635 2.353 . S
Tb620 O637 2.427 . S
Tb620 O638 2.513 . S
C621 O625 1.278 . S
C621 O627 1.237 1_565 S
Tb622 O624 2.343 . S
Tb622 O627 2.353 . S
Tb622 O630 2.427 . S
Tb622 O631 2.513 . S
Tb622 O632 2.453 . S
Tb622 O633 2.596 1_545 S
Tb622 O634 2.374 . S
O623 Tb620 2.453 . S
O623 C639 1.245 1_565 S
O624 Tb620 2.596 1_545 S
O624 Tb622 2.343 . S
O624 C639 1.259 . S
O625 Tb620 2.374 . S
O625 C621 1.278 . S
C626 O630 1.275 . S
C626 O631 1.246 . S
O627 C621 1.237 1_545 S
O627 Tb622 2.353 . S
C628 O632 1.245 1_565 S
C628 O633 1.259 . S
C629 O634 1.291 . S
C629 O635 1.226 1_545 S
O630 Tb622 2.427 . S
O630 C626 1.275 . S
O631 Tb622 2.513 . S
O631 C626 1.246 . S
O632 Tb622 2.453 . S
O632 C628 1.245 1_545 S
O633 Tb620 2.343 . S
O633 Tb622 2.596 1_565 S
O633 C628 1.259 . S
O634 Tb622 2.374 . S
O634 C629 1.291 . S
O635 Tb620 2.353 . S
O635 C629 1.226 1_565 S
C636 O637 1.275 . S
C636 O638 1.246 . S
O637 Tb620 2.427 . S
O637 C636 1.275 . S
O638 Tb620 2.513 . S
O638 C636 1.246 . S
C639 O623 1.245 1_545 S
C639 O624 1.259 . S
H640 C648 0.950 . S
H641 C653 0.950 . S
H642 C650 0.950 . S
H643 C652 0.950 . S
H644 C654 0.950 . S
H645 C656 0.950 . S
H646 C658 0.950 . S
H647 C659 0.950 . S
C648 H640 0.950 . S
C648 C649 1.386 . S
C648 C650 1.391 . S
C649 C648 1.386 . S
C649 C653 1.393 . S
C650 H642 0.950 . S
C650 C648 1.391 . S
C650 C651 1.400 . S
C651 C650 1.400 . S
C651 C652 1.398 . S
C651 C657 1.491 . S
C652 H643 0.950 . S
C652 C651 1.398 . S
C652 C653 1.391 . S
C653 H641 0.950 . S
C653 C649 1.393 . S
C653 C652 1.391 . S
C654 H644 0.950 . S
C654 C655 1.386 . S
C654 C656 1.391 . S
C655 C654 1.386 . S
C655 C659 1.393 . S
C656 H645 0.950 . S
C656 C654 1.391 . S
C656 C657 1.400 . S
C657 C651 1.491 . S
C657 C656 1.400 . S
C657 C658 1.398 . S
C658 H646 0.950 . S
C658 C657 1.398 . S
C658 C659 1.391 . S
C659 H647 0.950 . S
C659 C655 1.393 . S
C659 C658 1.391 . S
H660 C668 0.950 . S
H661 C673 0.950 . S
H662 C670 0.950 . S
H663 C672 0.950 . S
H664 C674 0.950 . S
H665 C676 0.950 . S
H666 C678 0.950 . S
H667 C679 0.950 . S
C668 H660 0.950 . S
C668 C669 1.386 . S
C668 C670 1.391 . S
C669 C668 1.386 . S
C669 C673 1.393 . S
C670 H662 0.950 . S
C670 C668 1.391 . S
C670 C671 1.400 . S
C671 C670 1.400 . S
C671 C672 1.398 . S
C671 C677 1.491 . S
C672 H663 0.950 . S
C672 C671 1.398 . S
C672 C673 1.391 . S
C673 H661 0.950 . S
C673 C669 1.393 . S
C673 C672 1.391 . S
C674 H664 0.950 . S
C674 C675 1.386 . S
C674 C676 1.391 . S
C675 C674 1.386 . S
C675 C679 1.393 . S
C676 H665 0.950 . S
C676 C674 1.391 . S
C676 C677 1.400 . S
C677 C671 1.491 . S
C677 C676 1.400 . S
C677 C678 1.398 . S
C678 H666 0.950 . S
C678 C677 1.398 . S
C678 C679 1.391 . S
C679 H667 0.950 . S
C679 C675 1.393 . S
C679 C678 1.391 . S
H680 C688 0.950 . S
H681 C693 0.950 . S
H682 C690 0.950 . S
H683 C692 0.950 . S
H684 C694 0.950 . S
H685 C696 0.950 . S
H686 C698 0.950 . S
H687 C699 0.950 . S
C688 H680 0.950 . S
C688 C689 1.386 . S
C688 C690 1.391 . S
C689 C688 1.386 . S
C689 C693 1.393 . S
C690 H682 0.950 . S
C690 C688 1.391 . S
C690 C691 1.400 . S
C691 C690 1.400 . S
C691 C692 1.398 . S
C691 C697 1.491 . S
C692 H683 0.950 . S
C692 C691 1.398 . S
C692 C693 1.391 . S
C693 H681 0.950 . S
C693 C689 1.393 . S
C693 C692 1.391 . S
C694 H684 0.950 . S
C694 C695 1.386 . S
C694 C696 1.391 . S
C695 C694 1.386 . S
C695 C699 1.393 . S
C696 H685 0.950 . S
C696 C694 1.391 . S
C696 C697 1.400 . S
C697 C691 1.491 . S
C697 C696 1.400 . S
C697 C698 1.398 . S
C698 H686 0.950 . S
C698 C697 1.398 . S
C698 C699 1.391 . S
C699 H687 0.950 . S
C699 C695 1.393 . S
C699 C698 1.391 . S
H700 C708 0.950 . S
H701 C713 0.950 . S
H702 C710 0.950 . S
H703 C712 0.950 . S
H704 C714 0.950 . S
H705 C716 0.950 . S
H706 C718 0.950 . S
H707 C719 0.950 . S
C708 H700 0.950 . S
C708 C709 1.386 . S
C708 C710 1.391 . S
C709 C708 1.386 . S
C709 C713 1.393 . S
C710 H702 0.950 . S
C710 C708 1.391 . S
C710 C711 1.400 . S
C711 C710 1.400 . S
C711 C712 1.398 . S
C711 C717 1.491 . S
C712 H703 0.950 . S
C712 C711 1.398 . S
C712 C713 1.391 . S
C713 H701 0.950 . S
C713 C709 1.393 . S
C713 C712 1.391 . S
C714 H704 0.950 . S
C714 C715 1.386 . S
C714 C716 1.391 . S
C715 C714 1.386 . S
C715 C719 1.393 . S
C716 H705 0.950 . S
C716 C714 1.391 . S
C716 C717 1.400 . S
C717 C711 1.491 . S
C717 C716 1.400 . S
C717 C718 1.398 . S
C718 H706 0.950 . S
C718 C717 1.398 . S
C718 C719 1.391 . S
C719 H707 0.950 . S
C719 C715 1.393 . S
C719 C718 1.391 . S
H720 C728 0.950 . S
H721 C733 0.950 1_655 S
H722 C730 0.950 . S
H723 C732 0.950 1_655 S
H724 C734 0.950 . S
H725 C736 0.950 . S
H726 C738 0.950 . S
H727 C739 0.950 . S
C728 H720 0.950 . S
C728 C729 1.386 . S
C728 C730 1.391 . S
C729 C728 1.386 . S
C729 C733 1.393 . S
C730 H722 0.950 . S
C730 C728 1.391 . S
C730 C731 1.400 . S
C731 C730 1.400 . S
C731 C732 1.398 . S
C731 C737 1.491 . S
C732 H723 0.950 1_455 S
C732 C731 1.398 . S
C732 C733 1.391 . S
C733 H721 0.950 1_455 S
C733 C729 1.393 . S
C733 C732 1.391 . S
C734 H724 0.950 . S
C734 C735 1.386 . S
C734 C736 1.391 . S
C735 C734 1.386 . S
C735 C739 1.393 . S
C736 H725 0.950 . S
C736 C734 1.391 . S
C736 C737 1.400 . S
C737 C731 1.491 . S
C737 C736 1.400 . S
C737 C738 1.398 . S
C738 H726 0.950 . S
C738 C737 1.398 . S
C738 C739 1.391 . S
C739 H727 0.950 . S
C739 C735 1.393 . S
C739 C738 1.391 . S
H740 C748 0.950 . S
H741 C753 0.950 . S
H742 C750 0.950 . S
H743 C752 0.950 . S
H744 C754 0.950 . S
H745 C756 0.950 . S
H746 C758 0.950 . S
H747 C759 0.950 . S
C748 H740 0.950 . S
C748 C749 1.386 . S
C748 C750 1.391 . S
C749 C748 1.386 . S
C749 C753 1.393 . S
C750 H742 0.950 . S
C750 C748 1.391 . S
C750 C751 1.400 . S
C751 C750 1.400 . S
C751 C752 1.398 . S
C751 C757 1.491 . S
C752 H743 0.950 . S
C752 C751 1.398 . S
C752 C753 1.391 . S
C753 H741 0.950 . S
C753 C749 1.393 . S
C753 C752 1.391 . S
C754 H744 0.950 . S
C754 C755 1.386 . S
C754 C756 1.391 . S
C755 C754 1.386 . S
C755 C759 1.393 . S
C756 H745 0.950 . S
C756 C754 1.391 . S
C756 C757 1.400 . S
C757 C751 1.491 . S
C757 C756 1.400 . S
C757 C758 1.398 . S
C758 H746 0.950 . S
C758 C757 1.398 . S
C758 C759 1.391 . S
C759 H747 0.950 . S
C759 C755 1.393 . S
C759 C758 1.391 . S
H760 C768 0.950 . S
H761 C773 0.950 . S
H762 C770 0.950 . S
H763 C772 0.950 . S
H764 C774 0.950 . S
H765 C776 0.950 . S
H766 C778 0.950 . S
H767 C779 0.950 . S
C768 H760 0.950 . S
C768 C769 1.386 . S
C768 C770 1.391 . S
C769 C768 1.386 . S
C769 C773 1.393 . S
C770 H762 0.950 . S
C770 C768 1.391 . S
C770 C771 1.400 . S
C771 C770 1.400 . S
C771 C772 1.398 . S
C771 C777 1.491 . S
C772 H763 0.950 . S
C772 C771 1.398 . S
C772 C773 1.391 . S
C773 H761 0.950 . S
C773 C769 1.393 . S
C773 C772 1.391 . S
C774 H764 0.950 . S
C774 C775 1.386 . S
C774 C776 1.391 . S
C775 C774 1.386 . S
C775 C779 1.393 . S
C776 H765 0.950 . S
C776 C774 1.391 . S
C776 C777 1.400 . S
C777 C771 1.491 . S
C777 C776 1.400 . S
C777 C778 1.398 . S
C778 H766 0.950 . S
C778 C777 1.398 . S
C778 C779 1.391 . S
C779 H767 0.950 . S
C779 C775 1.393 . S
C779 C778 1.391 . S
H780 C788 0.950 . S
H781 C793 0.950 . S
H782 C790 0.950 . S
H783 C792 0.950 . S
H784 C794 0.950 . S
H785 C796 0.950 . S
H786 C798 0.950 . S
H787 C799 0.950 . S
C788 H780 0.950 . S
C788 C789 1.386 . S
C788 C790 1.391 . S
C789 C788 1.386 . S
C789 C793 1.393 . S
C790 H782 0.950 . S
C790 C788 1.391 . S
C790 C791 1.400 . S
C791 C790 1.400 . S
C791 C792 1.398 . S
C791 C797 1.491 . S
C792 H783 0.950 . S
C792 C791 1.398 . S
C792 C793 1.391 . S
C793 H781 0.950 . S
C793 C789 1.393 . S
C793 C792 1.391 . S
C794 H784 0.950 . S
C794 C795 1.386 . S
C794 C796 1.391 . S
C795 C794 1.386 . S
C795 C799 1.393 . S
C796 H785 0.950 . S
C796 C794 1.391 . S
C796 C797 1.400 . S
C797 C791 1.491 . S
C797 C796 1.400 . S
C797 C798 1.398 . S
C798 H786 0.950 . S
C798 C797 1.398 . S
C798 C799 1.391 . S
C799 H787 0.950 . S
C799 C795 1.393 . S
C799 C798 1.391 . S
H800 C808 0.950 . S
H801 C813 0.950 . S
H802 C810 0.950 . S
H803 C812 0.950 . S
H804 C814 0.950 . S
H805 C816 0.950 . S
H806 C818 0.950 . S
H807 C819 0.950 . S
C808 H800 0.950 . S
C808 C809 1.386 . S
C808 C810 1.391 . S
C809 C808 1.386 . S
C809 C813 1.393 . S
C810 H802 0.950 . S
C810 C808 1.391 . S
C810 C811 1.400 . S
C811 C810 1.400 . S
C811 C812 1.398 . S
C811 C817 1.491 . S
C812 H803 0.950 . S
C812 C811 1.398 . S
C812 C813 1.391 . S
C813 H801 0.950 . S
C813 C809 1.393 . S
C813 C812 1.391 . S
C814 H804 0.950 . S
C814 C815 1.386 . S
C814 C816 1.391 . S
C815 C814 1.386 . S
C815 C819 1.393 . S
C816 H805 0.950 . S
C816 C814 1.391 . S
C816 C817 1.400 . S
C817 C811 1.491 . S
C817 C816 1.400 . S
C817 C818 1.398 . S
C818 H806 0.950 . S
C818 C817 1.398 . S
C818 C819 1.391 . S
C819 H807 0.950 . S
C819 C815 1.393 . S
C819 C818 1.391 . S
H820 C828 0.950 . S
H821 C833 0.950 . S
H822 C830 0.950 . S
H823 C832 0.950 . S
H824 C834 0.950 . S
H825 C836 0.950 . S
H826 C838 0.950 . S
H827 C839 0.950 . S
C828 H820 0.950 . S
C828 C829 1.386 . S
C828 C830 1.391 . S
C829 C828 1.386 . S
C829 C833 1.393 . S
C830 H822 0.950 . S
C830 C828 1.391 . S
C830 C831 1.400 . S
C831 C830 1.400 . S
C831 C832 1.398 . S
C831 C837 1.491 . S
C832 H823 0.950 . S
C832 C831 1.398 . S
C832 C833 1.391 . S
C833 H821 0.950 . S
C833 C829 1.393 . S
C833 C832 1.391 . S
C834 H824 0.950 . S
C834 C835 1.386 . S
C834 C836 1.391 . S
C835 C834 1.386 . S
C835 C839 1.393 . S
C836 H825 0.950 . S
C836 C834 1.391 . S
C836 C837 1.400 . S
C837 C831 1.491 . S
C837 C836 1.400 . S
C837 C838 1.398 . S
C838 H826 0.950 . S
C838 C837 1.398 . S
C838 C839 1.391 . S
C839 H827 0.950 . S
C839 C835 1.393 . S
C839 C838 1.391 . S
H840 C848 0.950 1_455 S
H841 C853 0.950 . S
H842 C850 0.950 1_455 S
H843 C852 0.950 . S
H844 C854 0.950 . S
H845 C856 0.950 . S
H846 C858 0.950 . S
H847 C859 0.950 . S
C848 H840 0.950 1_655 S
C848 C849 1.386 . S
C848 C850 1.391 . S
C849 C848 1.386 . S
C849 C853 1.393 . S
C850 H842 0.950 1_655 S
C850 C848 1.391 . S
C850 C851 1.400 . S
C851 C850 1.400 . S
C851 C852 1.398 . S
C851 C857 1.491 . S
C852 H843 0.950 . S
C852 C851 1.398 . S
C852 C853 1.391 . S
C853 H841 0.950 . S
C853 C849 1.393 . S
C853 C852 1.391 . S
C854 H844 0.950 . S
C854 C855 1.386 . S
C854 C856 1.391 . S
C855 C854 1.386 . S
C855 C859 1.393 . S
C856 H845 0.950 . S
C856 C854 1.391 . S
C856 C857 1.400 . S
C857 C851 1.491 . S
C857 C856 1.400 . S
C857 C858 1.398 . S
C858 H846 0.950 . S
C858 C857 1.398 . S
C858 C859 1.391 . S
C859 H847 0.950 . S
C859 C855 1.393 . S
C859 C858 1.391 . S
H860 C868 0.950 . S
H861 C873 0.950 . S
H862 C870 0.950 . S
H863 C872 0.950 . S
H864 C874 0.950 . S
H865 C876 0.950 . S
H866 C878 0.950 . S
H867 C879 0.950 . S
C868 H860 0.950 . S
C868 C869 1.386 . S
C868 C870 1.391 . S
C869 C868 1.386 . S
C869 C873 1.393 . S
C870 H862 0.950 . S
C870 C868 1.391 . S
C870 C871 1.400 . S
C871 C870 1.400 . S
C871 C872 1.398 . S
C871 C877 1.491 . S
C872 H863 0.950 . S
C872 C871 1.398 . S
C872 C873 1.391 . S
C873 H861 0.950 . S
C873 C869 1.393 . S
C873 C872 1.391 . S
C874 H864 0.950 . S
C874 C875 1.386 . S
C874 C876 1.391 . S
C875 C874 1.386 . S
C875 C879 1.393 . S
C876 H865 0.950 . S
C876 C874 1.391 . S
C876 C877 1.400 . S
C877 C871 1.491 . S
C877 C876 1.400 . S
C877 C878 1.398 . S
C878 H866 0.950 . S
C878 C877 1.398 . S
C878 C879 1.391 . S
C879 H867 0.950 . S
C879 C875 1.393 . S
C879 C878 1.391 . S
H880 C888 0.950 . S
H881 C893 0.950 . S
H882 C890 0.950 . S
H883 C892 0.950 . S
H884 C894 0.950 . S
H885 C896 0.950 . S
H886 C898 0.950 . S
H887 C899 0.950 . S
C888 H880 0.950 . S
C888 C889 1.386 . S
C888 C890 1.391 . S
C889 C888 1.386 . S
C889 C893 1.393 . S
C890 H882 0.950 . S
C890 C888 1.391 . S
C890 C891 1.400 . S
C891 C890 1.400 . S
C891 C892 1.398 . S
C891 C897 1.491 . S
C892 H883 0.950 . S
C892 C891 1.398 . S
C892 C893 1.391 . S
C893 H881 0.950 . S
C893 C889 1.393 . S
C893 C892 1.391 . S
C894 H884 0.950 . S
C894 C895 1.386 . S
C894 C896 1.391 . S
C895 C894 1.386 . S
C895 C899 1.393 . S
C896 H885 0.950 . S
C896 C894 1.391 . S
C896 C897 1.400 . S
C897 C891 1.491 . S
C897 C896 1.400 . S
C897 C898 1.398 . S
C898 H886 0.950 . S
C898 C897 1.398 . S
C898 C899 1.391 . S
C899 H887 0.950 . S
C899 C895 1.393 . S
C899 C898 1.391 . S
H900 C908 0.950 . S
H901 C913 0.950 . S
H902 C910 0.950 . S
H903 C912 0.950 . S
H904 C914 0.950 . S
H905 C916 0.950 . S
H906 C918 0.950 . S
H907 C919 0.950 . S
C908 H900 0.950 . S
C908 C909 1.386 . S
C908 C910 1.391 . S
C909 C908 1.386 . S
C909 C913 1.393 . S
C910 H902 0.950 . S
C910 C908 1.391 . S
C910 C911 1.400 . S
C911 C910 1.400 . S
C911 C912 1.398 . S
C911 C917 1.491 . S
C912 H903 0.950 . S
C912 C911 1.398 . S
C912 C913 1.391 . S
C913 H901 0.950 . S
C913 C909 1.393 . S
C913 C912 1.391 . S
C914 H904 0.950 . S
C914 C915 1.386 . S
C914 C916 1.391 . S
C915 C914 1.386 . S
C915 C919 1.393 . S
C916 H905 0.950 . S
C916 C914 1.391 . S
C916 C917 1.400 . S
C917 C911 1.491 . S
C917 C916 1.400 . S
C917 C918 1.398 . S
C918 H906 0.950 . S
C918 C917 1.398 . S
C918 C919 1.391 . S
C919 H907 0.950 . S
C919 C915 1.393 . S
C919 C918 1.391 . S
H920 C928 0.950 . S
H921 C933 0.950 . S
H922 C930 0.950 . S
H923 C932 0.950 . S
H924 C934 0.950 1_655 S
H925 C936 0.950 . S
H926 C938 0.950 . S
H927 C939 0.950 . S
C928 H920 0.950 . S
C928 C929 1.386 . S
C928 C930 1.391 . S
C929 C928 1.386 . S
C929 C933 1.393 . S
C930 H922 0.950 . S
C930 C928 1.391 . S
C930 C931 1.400 . S
C931 C930 1.400 . S
C931 C932 1.398 . S
C931 C937 1.491 . S
C932 H923 0.950 . S
C932 C931 1.398 . S
C932 C933 1.391 . S
C933 H921 0.950 . S
C933 C929 1.393 . S
C933 C932 1.391 . S
C934 H924 0.950 1_455 S
C934 C935 1.386 . S
C934 C936 1.391 . S
C935 C934 1.386 . S
C935 C939 1.393 . S
C936 H925 0.950 . S
C936 C934 1.391 . S
C936 C937 1.400 . S
C937 C931 1.491 . S
C937 C936 1.400 . S
C937 C938 1.398 . S
C938 H926 0.950 . S
C938 C937 1.398 . S
C938 C939 1.391 . S
C939 H927 0.950 . S
C939 C935 1.393 . S
C939 C938 1.391 . S
H940 C948 0.950 . S
H941 C953 0.950 . S
H942 C950 0.950 . S
H943 C952 0.950 . S
H944 C954 0.950 . S
H945 C956 0.950 . S
H946 C958 0.950 . S
H947 C959 0.950 . S
C948 H940 0.950 . S
C948 C949 1.386 . S
C948 C950 1.391 . S
C949 C948 1.386 . S
C949 C953 1.393 . S
C950 H942 0.950 . S
C950 C948 1.391 . S
C950 C951 1.400 . S
C951 C950 1.400 . S
C951 C952 1.398 . S
C951 C957 1.491 . S
C952 H943 0.950 . S
C952 C951 1.398 . S
C952 C953 1.391 . S
C953 H941 0.950 . S
C953 C949 1.393 . S
C953 C952 1.391 . S
C954 H944 0.950 . S
C954 C955 1.386 . S
C954 C956 1.391 . S
C955 C954 1.386 . S
C955 C959 1.393 . S
C956 H945 0.950 . S
C956 C954 1.391 . S
C956 C957 1.400 . S
C957 C951 1.491 . S
C957 C956 1.400 . S
C957 C958 1.398 . S
C958 H946 0.950 . S
C958 C957 1.398 . S
C958 C959 1.391 . S
C959 H947 0.950 . S
C959 C955 1.393 . S
C959 C958 1.391 . S
H960 C968 0.950 1_655 S
H961 C973 0.950 . S
H962 C970 0.953 . S
H963 C972 0.950 . S
H964 C974 0.950 . S
H965 C976 0.950 . S
H966 C978 0.950 . S
H967 C979 0.950 . S
C968 H960 0.950 1_455 S
C968 C969 1.386 . S
C968 C970 1.391 . S
C969 C968 1.386 . S
C969 C973 1.393 . S
C970 H962 0.953 . S
C970 C968 1.391 . S
C970 C971 1.400 . S
C971 C970 1.400 . S
C971 C972 1.398 . S
C971 C977 1.491 . S
C972 H963 0.950 . S
C972 C971 1.398 . S
C972 C973 1.391 . S
C973 H961 0.950 . S
C973 C969 1.393 . S
C973 C972 1.391 . S
C974 H964 0.950 . S
C974 C975 1.386 . S
C974 C976 1.391 . S
C975 C974 1.386 . S
C975 C979 1.393 . S
C976 H965 0.950 . S
C976 C974 1.391 . S
C976 C977 1.400 . S
C977 C971 1.491 . S
C977 C976 1.400 . S
C977 C978 1.398 . S
C978 H966 0.950 . S
C978 C977 1.398 . S
C978 C979 1.391 . S
C979 H967 0.950 . S
C979 C975 1.393 . S
C979 C978 1.391 . S
H980 C988 0.950 . S
H981 C993 0.950 . S
H982 C990 0.950 . S
H983 C992 0.950 . S
H984 C994 0.950 1_655 S
H985 C996 0.950 1_655 S
H986 C998 0.950 . S
H987 C999 0.950 . S
C988 H980 0.950 . S
C988 C989 1.386 . S
C988 C990 1.391 . S
C989 C988 1.386 . S
C989 C993 1.393 . S
C990 H982 0.950 . S
C990 C988 1.391 . S
C990 C991 1.400 . S
C991 C990 1.400 . S
C991 C992 1.398 . S
C991 C997 1.491 . S
C992 H983 0.950 . S
C992 C991 1.398 . S
C992 C993 1.391 . S
C993 H981 0.950 . S
C993 C989 1.393 . S
C993 C992 1.391 . S
C994 H984 0.950 1_455 S
C994 C995 1.386 . S
C994 C996 1.391 . S
C995 C994 1.386 . S
C995 C999 1.393 . S
C996 H985 0.950 1_455 S
C996 C994 1.391 . S
C996 C997 1.400 . S
C997 C991 1.491 . S
C997 C996 1.400 . S
C997 C998 1.398 . S
C998 H986 0.950 . S
C998 C997 1.398 . S
C998 C999 1.391 . S
C999 H987 0.950 . S
C999 C995 1.393 . S
C999 C998 1.391 . S
H1000 C1008 0.950 . S
H1001 C1013 0.950 . S
H1002 C1010 0.950 . S
H1003 C1012 0.950 . S
H1004 C1014 0.950 1_455 S
H1005 C1016 0.950 . S
H1006 C1018 0.950 . S
H1007 C1019 0.950 . S
C1008 H1000 0.950 . S
C1008 C1009 1.386 . S
C1008 C1010 1.391 . S
C1009 C1008 1.386 . S
C1009 C1013 1.393 . S
C1010 H1002 0.950 . S
C1010 C1008 1.391 . S
C1010 C1011 1.400 . S
C1011 C1010 1.400 . S
C1011 C1012 1.398 . S
C1011 C1017 1.491 . S
C1012 H1003 0.950 . S
C1012 C1011 1.398 . S
C1012 C1013 1.391 . S
C1013 H1001 0.950 . S
C1013 C1009 1.393 . S
C1013 C1012 1.391 . S
C1014 H1004 0.950 1_655 S
C1014 C1015 1.386 . S
C1014 C1016 1.391 . S
C1015 C1014 1.386 . S
C1015 C1019 1.393 . S
C1016 H1005 0.950 . S
C1016 C1014 1.391 . S
C1016 C1017 1.400 . S
C1017 C1011 1.491 . S
C1017 C1016 1.400 . S
C1017 C1018 1.398 . S
C1018 H1006 0.950 . S
C1018 C1017 1.398 . S
C1018 C1019 1.391 . S
C1019 H1007 0.950 . S
C1019 C1015 1.393 . S
C1019 C1018 1.391 . S
H1020 C1028 0.950 . S
H1021 C1033 0.950 1_455 S
H1022 C1030 0.950 . S
H1023 C1032 0.950 . S
H1024 C1034 0.950 . S
H1025 C1036 0.950 . S
H1026 C1038 0.950 . S
H1027 C1039 0.950 . S
C1028 H1020 0.950 . S
C1028 C1029 1.386 . S
C1028 C1030 1.391 . S
C1029 C1028 1.386 . S
C1029 C1033 1.393 . S
C1030 H1022 0.950 . S
C1030 C1028 1.391 . S
C1030 C1031 1.400 . S
C1031 C1030 1.400 . S
C1031 C1032 1.398 . S
C1031 C1037 1.491 . S
C1032 H1023 0.950 . S
C1032 C1031 1.398 . S
C1032 C1033 1.391 . S
C1033 H1021 0.950 1_655 S
C1033 C1029 1.393 . S
C1033 C1032 1.391 . S
C1034 H1024 0.950 . S
C1034 C1035 1.386 . S
C1034 C1036 1.391 . S
C1035 C1034 1.386 . S
C1035 C1039 1.393 . S
C1036 H1025 0.950 . S
C1036 C1034 1.391 . S
C1036 C1037 1.400 . S
C1037 C1031 1.491 . S
C1037 C1036 1.400 . S
C1037 C1038 1.398 . S
C1038 H1026 0.950 . S
C1038 C1037 1.398 . S
C1038 C1039 1.391 . S
C1039 H1027 0.950 . S
C1039 C1035 1.393 . S
C1039 C1038 1.391 . S
H1040 C1048 0.950 . S
H1041 C1053 0.950 . S
H1042 C1050 0.950 . S
H1043 C1052 0.950 . S
H1044 C1054 0.950 . S
H1045 C1056 0.950 . S
H1046 C1058 0.950 . S
H1047 C1059 0.950 . S
C1048 H1040 0.950 . S
C1048 C1049 1.353 1_565 S
C1048 C1050 1.391 . S
C1049 C1048 1.353 1_545 S
C1049 C1053 1.427 . S
C1050 H1042 0.950 . S
C1050 C1048 1.391 . S
C1050 C1051 1.379 1_565 S
C1051 C1050 1.379 1_545 S
C1051 C1052 1.421 . S
C1051 C1057 1.490 . S
C1052 H1043 0.950 . S
C1052 C1051 1.421 . S
C1052 C1053 1.391 . S
C1053 H1041 0.950 . S
C1053 C1049 1.427 . S
C1053 C1052 1.391 . S
C1054 H1044 0.950 . S
C1054 C1055 1.381 1_545 S
C1054 C1056 1.391 . S
C1055 C1054 1.381 1_565 S
C1055 C1059 1.398 . S
C1056 H1045 0.950 . S
C1056 C1054 1.391 . S
C1056 C1057 1.398 . S
C1057 C1051 1.490 . S
C1057 C1056 1.398 . S
C1057 C1058 1.401 1_545 S
C1058 H1046 0.950 . S
C1058 C1057 1.401 1_565 S
C1058 C1059 1.391 . S
C1059 H1047 0.950 . S
C1059 C1055 1.398 . S
C1059 C1058 1.391 . S
H1060 C1068 0.950 . S
H1061 C1073 0.950 . S
H1062 C1070 0.950 . S
H1063 C1072 0.950 . S
H1064 C1074 0.950 . S
H1065 C1076 0.950 . S
H1066 C1078 0.950 . S
H1067 C1079 0.950 . S
C1068 H1060 0.950 . S
C1068 C1069 1.386 . S
C1068 C1070 1.391 . S
C1069 C1068 1.386 . S
C1069 C1073 1.393 . S
C1070 H1062 0.950 . S
C1070 C1068 1.391 . S
C1070 C1071 1.400 . S
C1071 C1070 1.400 . S
C1071 C1072 1.398 . S
C1071 C1077 1.491 . S
C1072 H1063 0.950 . S
C1072 C1071 1.398 . S
C1072 C1073 1.391 . S
C1073 H1061 0.950 . S
C1073 C1069 1.393 . S
C1073 C1072 1.391 . S
C1074 H1064 0.950 . S
C1074 C1075 1.386 . S
C1074 C1076 1.391 . S
C1075 C1074 1.386 . S
C1075 C1079 1.393 . S
C1076 H1065 0.950 . S
C1076 C1074 1.391 . S
C1076 C1077 1.400 . S
C1077 C1071 1.491 . S
C1077 C1076 1.400 . S
C1077 C1078 1.398 . S
C1078 H1066 0.950 . S
C1078 C1077 1.398 . S
C1078 C1079 1.391 . S
C1079 H1067 0.950 . S
C1079 C1075 1.393 . S
C1079 C1078 1.391 . S
H1080 C1088 0.950 . S
H1081 C1093 0.950 . S
H1082 C1090 0.950 . S
H1083 C1092 0.950 . S
H1084 C1094 0.950 . S
H1085 C1096 0.950 . S
H1086 C1098 0.950 . S
H1087 C1099 0.950 . S
C1088 H1080 0.950 . S
C1088 C1089 1.389 1_565 S
C1088 C1090 1.391 . S
C1089 C1088 1.389 1_545 S
C1089 C1093 1.390 . S
C1090 H1082 0.950 . S
C1090 C1088 1.391 . S
C1090 C1091 1.402 . S
C1091 C1090 1.402 . S
C1091 C1092 1.396 1_565 S
C1091 C1097 1.490 . S
C1092 H1083 0.950 . S
C1092 C1091 1.396 1_545 S
C1092 C1093 1.391 . S
C1093 H1081 0.950 . S
C1093 C1089 1.390 . S
C1093 C1092 1.391 . S
C1094 H1084 0.950 . S
C1094 C1095 1.353 1_545 S
C1094 C1096 1.391 . S
C1095 C1094 1.353 1_565 S
C1095 C1099 1.426 . S
C1096 H1085 0.950 . S
C1096 C1094 1.391 . S
C1096 C1097 1.378 1_545 S
C1097 C1091 1.490 . S
C1097 C1096 1.378 1_565 S
C1097 C1098 1.421 . S
C1098 H1086 0.950 . S
C1098 C1097 1.421 . S
C1098 C1099 1.391 . S
C1099 H1087 0.950 . S
C1099 C1095 1.426 . S
C1099 C1098 1.391 . S
H1100 C1108 0.950 . S
H1101 C1113 0.950 . S
H1102 C1110 0.950 . S
H1103 C1112 0.950 . S
H1104 C1114 0.950 . S
H1105 C1116 0.950 . S
H1106 C1118 0.950 . S
H1107 C1119 0.950 . S
C1108 H1100 0.950 . S
C1108 C1109 1.386 . S
C1108 C1110 1.391 . S
C1109 C1108 1.386 . S
C1109 C1113 1.393 . S
C1110 H1102 0.950 . S
C1110 C1108 1.391 . S
C1110 C1111 1.400 . S
C1111 C1110 1.400 . S
C1111 C1112 1.398 . S
C1111 C1117 1.491 . S
C1112 H1103 0.950 . S
C1112 C1111 1.398 . S
C1112 C1113 1.391 . S
C1113 H1101 0.950 . S
C1113 C1109 1.393 . S
C1113 C1112 1.391 . S
C1114 H1104 0.950 . S
C1114 C1115 1.386 . S
C1114 C1116 1.391 . S
C1115 C1114 1.386 . S
C1115 C1119 1.393 . S
C1116 H1105 0.950 . S
C1116 C1114 1.391 . S
C1116 C1117 1.400 . S
C1117 C1111 1.491 . S
C1117 C1116 1.400 . S
C1117 C1118 1.398 . S
C1118 H1106 0.950 . S
C1118 C1117 1.398 . S
C1118 C1119 1.391 . S
C1119 H1107 0.950 . S
C1119 C1115 1.393 . S
C1119 C1118 1.391 . S
H1120 C1128 0.950 . S
H1121 C1133 0.950 . S
H1122 C1130 0.950 . S
H1123 C1132 0.950 . S
H1124 C1134 0.950 . S
H1125 C1136 0.950 . S
H1126 C1138 0.950 . S
H1127 C1139 0.950 . S
C1128 H1120 0.950 . S
C1128 C1129 1.386 . S
C1128 C1130 1.391 . S
C1129 C1128 1.386 . S
C1129 C1133 1.393 . S
C1130 H1122 0.950 . S
C1130 C1128 1.391 . S
C1130 C1131 1.400 . S
C1131 C1130 1.400 . S
C1131 C1132 1.398 . S
C1131 C1137 1.491 . S
C1132 H1123 0.950 . S
C1132 C1131 1.398 . S
C1132 C1133 1.391 . S
C1133 H1121 0.950 . S
C1133 C1129 1.393 . S
C1133 C1132 1.391 . S
C1134 H1124 0.950 . S
C1134 C1135 1.386 . S
C1134 C1136 1.391 . S
C1135 C1134 1.386 . S
C1135 C1139 1.393 . S
C1136 H1125 0.950 . S
C1136 C1134 1.391 . S
C1136 C1137 1.400 . S
C1137 C1131 1.491 . S
C1137 C1136 1.400 . S
C1137 C1138 1.398 . S
C1138 H1126 0.950 . S
C1138 C1137 1.398 . S
C1138 C1139 1.391 . S
C1139 H1127 0.950 . S
C1139 C1135 1.393 . S
C1139 C1138 1.391 . S
H1140 C1148 0.950 . S
H1141 C1153 0.950 . S
H1142 C1150 0.950 . S
H1143 C1152 0.950 . S
H1144 C1154 0.950 . S
H1145 C1156 0.950 . S
H1146 C1158 0.950 . S
H1147 C1159 0.950 . S
C1148 H1140 0.950 . S
C1148 C1149 1.386 . S
C1148 C1150 1.391 . S
C1149 C1148 1.386 . S
C1149 C1153 1.393 . S
C1150 H1142 0.950 . S
C1150 C1148 1.391 . S
C1150 C1151 1.400 . S
C1151 C1150 1.400 . S
C1151 C1152 1.398 . S
C1151 C1157 1.491 . S
C1152 H1143 0.950 . S
C1152 C1151 1.398 . S
C1152 C1153 1.391 . S
C1153 H1141 0.950 . S
C1153 C1149 1.393 . S
C1153 C1152 1.391 . S
C1154 H1144 0.950 . S
C1154 C1155 1.386 . S
C1154 C1156 1.391 . S
C1155 C1154 1.386 . S
C1155 C1159 1.393 . S
C1156 H1145 0.950 . S
C1156 C1154 1.391 . S
C1156 C1157 1.400 . S
C1157 C1151 1.491 . S
C1157 C1156 1.400 . S
C1157 C1158 1.398 . S
C1158 H1146 0.950 . S
C1158 C1157 1.398 . S
C1158 C1159 1.391 . S
C1159 H1147 0.950 . S
C1159 C1155 1.393 . S
C1159 C1158 1.391 . S
H1160 C1168 0.950 . S
H1161 C1173 0.950 . S
H1162 C1170 0.950 . S
H1163 C1172 0.950 . S
H1164 C1174 0.950 . S
H1165 C1176 0.950 . S
H1166 C1178 0.950 . S
H1167 C1179 0.950 . S
C1168 H1160 0.950 . S
C1168 C1169 1.386 . S
C1168 C1170 1.391 . S
C1169 C1168 1.386 . S
C1169 C1173 1.393 . S
C1170 H1162 0.950 . S
C1170 C1168 1.391 . S
C1170 C1171 1.400 . S
C1171 C1170 1.400 . S
C1171 C1172 1.398 . S
C1171 C1177 1.491 . S
C1172 H1163 0.950 . S
C1172 C1171 1.398 . S
C1172 C1173 1.391 . S
C1173 H1161 0.950 . S
C1173 C1169 1.393 . S
C1173 C1172 1.391 . S
C1174 H1164 0.950 . S
C1174 C1175 1.386 . S
C1174 C1176 1.391 . S
C1175 C1174 1.386 . S
C1175 C1179 1.393 . S
C1176 H1165 0.950 . S
C1176 C1174 1.391 . S
C1176 C1177 1.400 . S
C1177 C1171 1.491 . S
C1177 C1176 1.400 . S
C1177 C1178 1.398 . S
C1178 H1166 0.950 . S
C1178 C1177 1.398 . S
C1178 C1179 1.391 . S
C1179 H1167 0.950 . S
C1179 C1175 1.393 . S
C1179 C1178 1.391 . S
H1180 C1188 0.950 . S
H1181 C1193 0.950 . S
H1182 C1190 0.950 . S
H1183 C1192 0.950 . S
H1184 C1194 0.950 . S
H1185 C1196 0.950 . S
H1186 C1198 0.950 . S
H1187 C1199 0.950 . S
C1188 H1180 0.950 . S
C1188 C1189 1.386 . S
C1188 C1190 1.391 . S
C1189 C1188 1.386 . S
C1189 C1193 1.393 . S
C1190 H1182 0.950 . S
C1190 C1188 1.391 . S
C1190 C1191 1.400 . S
C1191 C1190 1.400 . S
C1191 C1192 1.398 . S
C1191 C1197 1.491 . S
C1192 H1183 0.950 . S
C1192 C1191 1.398 . S
C1192 C1193 1.391 . S
C1193 H1181 0.950 . S
C1193 C1189 1.393 . S
C1193 C1192 1.391 . S
C1194 H1184 0.950 . S
C1194 C1195 1.386 . S
C1194 C1196 1.391 . S
C1195 C1194 1.386 . S
C1195 C1199 1.393 . S
C1196 H1185 0.950 . S
C1196 C1194 1.391 . S
C1196 C1197 1.400 . S
C1197 C1191 1.491 . S
C1197 C1196 1.400 . S
C1197 C1198 1.398 . S
C1198 H1186 0.950 . S
C1198 C1197 1.398 . S
C1198 C1199 1.391 . S
C1199 H1187 0.950 . S
C1199 C1195 1.393 . S
C1199 C1198 1.391 . S
H1200 C1208 0.950 . S
H1201 C1213 0.950 . S
H1202 C1210 0.950 . S
H1203 C1212 0.950 . S
H1204 C1214 0.950 . S
H1205 C1216 0.950 . S
H1206 C1218 0.950 . S
H1207 C1219 0.950 . S
C1208 H1200 0.950 . S
C1208 C1209 1.380 1_545 S
C1208 C1210 1.391 . S
C1209 C1208 1.380 1_565 S
C1209 C1213 1.399 . S
C1210 H1202 0.950 . S
C1210 C1208 1.391 . S
C1210 C1211 1.402 1_545 S
C1211 C1210 1.402 1_565 S
C1211 C1212 1.397 . S
C1211 C1217 1.490 1_565 S
C1212 H1203 0.950 . S
C1212 C1211 1.397 . S
C1212 C1213 1.391 . S
C1213 H1201 0.950 . S
C1213 C1209 1.399 . S
C1213 C1212 1.391 . S
C1214 H1204 0.950 . S
C1214 C1215 1.368 1_565 S
C1214 C1216 1.391 . S
C1215 C1214 1.368 1_545 S
C1215 C1219 1.414 . S
C1216 H1205 0.950 . S
C1216 C1214 1.391 . S
C1216 C1217 1.389 1_565 S
C1217 C1211 1.490 1_545 S
C1217 C1216 1.389 1_545 S
C1217 C1218 1.412 . S
C1218 H1206 0.950 . S
C1218 C1217 1.412 . S
C1218 C1219 1.391 . S
C1219 H1207 0.950 . S
C1219 C1215 1.414 . S
C1219 C1218 1.391 . S
H1220 C1228 0.950 . S
H1221 C1233 0.950 . S
H1222 C1230 0.950 . S
H1223 C1232 0.950 . S
H1224 C1234 0.950 . S
H1225 C1236 0.950 . S
H1226 C1238 0.950 . S
H1227 C1239 0.950 . S
C1228 H1220 0.950 . S
C1228 C1229 1.386 . S
C1228 C1230 1.391 . S
C1229 C1228 1.386 . S
C1229 C1233 1.393 . S
C1230 H1222 0.950 . S
C1230 C1228 1.391 . S
C1230 C1231 1.400 . S
C1231 C1230 1.400 . S
C1231 C1232 1.398 . S
C1231 C1237 1.491 . S
C1232 H1223 0.950 . S
C1232 C1231 1.398 . S
C1232 C1233 1.391 . S
C1233 H1221 0.950 . S
C1233 C1229 1.393 . S
C1233 C1232 1.391 . S
C1234 H1224 0.950 . S
C1234 C1235 1.386 . S
C1234 C1236 1.391 . S
C1235 C1234 1.386 . S
C1235 C1239 1.393 . S
C1236 H1225 0.950 . S
C1236 C1234 1.391 . S
C1236 C1237 1.400 . S
C1237 C1231 1.491 . S
C1237 C1236 1.400 . S
C1237 C1238 1.398 . S
C1238 H1226 0.950 . S
C1238 C1237 1.398 . S
C1238 C1239 1.391 . S
C1239 H1227 0.950 . S
C1239 C1235 1.393 . S
C1239 C1238 1.391 . S
H1240 C1248 0.949 . S
H1241 C1253 0.950 . S
H1242 C1250 0.950 . S
H1243 C1252 0.955 . S
H1244 C1254 0.949 . S
H1245 C1256 0.950 . S
H1246 C1258 0.950 . S
H1247 C1259 0.950 . S
C1248 H1240 0.949 . S
C1248 C1249 1.386 . S
C1248 C1250 1.391 1_545 S
C1249 C1248 1.386 . S
C1249 C1253 1.392 . S
C1250 H1242 0.950 . S
C1250 C1248 1.391 1_565 S
C1250 C1251 1.400 1_565 S
C1251 C1250 1.400 1_545 S
C1251 C1252 1.397 . S
C1251 C1257 1.490 1_545 S
C1252 H1243 0.955 . S
C1252 C1251 1.397 . S
C1252 C1253 1.391 . S
C1253 H1241 0.950 . S
C1253 C1249 1.392 . S
C1253 C1252 1.391 . S
C1254 H1244 0.949 . S
C1254 C1255 1.386 . S
C1254 C1256 1.391 . S
C1255 C1254 1.386 . S
C1255 C1259 1.396 . S
C1256 H1245 0.950 . S
C1256 C1254 1.391 . S
C1256 C1257 1.400 . S
C1257 C1251 1.490 1_565 S
C1257 C1256 1.400 . S
C1257 C1258 1.401 . S
C1258 H1246 0.950 . S
C1258 C1257 1.401 . S
C1258 C1259 1.391 . S
C1259 H1247 0.950 . S
C1259 C1255 1.396 . S
C1259 C1258 1.391 . S
H1260 C1268 0.950 . S
H1261 C1273 0.950 . S
H1262 C1270 0.950 . S
H1263 C1272 0.950 . S
H1264 C1274 0.950 . S
H1265 C1276 0.950 . S
H1266 C1278 0.950 . S
H1267 C1279 0.950 . S
C1268 H1260 0.950 . S
C1268 C1269 1.386 . S
C1268 C1270 1.391 . S
C1269 C1268 1.386 . S
C1269 C1273 1.393 . S
C1270 H1262 0.950 . S
C1270 C1268 1.391 . S
C1270 C1271 1.400 . S
C1271 C1270 1.400 . S
C1271 C1272 1.398 . S
C1271 C1277 1.491 . S
C1272 H1263 0.950 . S
C1272 C1271 1.398 . S
C1272 C1273 1.391 . S
C1273 H1261 0.950 . S
C1273 C1269 1.393 . S
C1273 C1272 1.391 . S
C1274 H1264 0.950 . S
C1274 C1275 1.386 . S
C1274 C1276 1.391 . S
C1275 C1274 1.386 . S
C1275 C1279 1.393 . S
C1276 H1265 0.950 . S
C1276 C1274 1.391 . S
C1276 C1277 1.400 . S
C1277 C1271 1.491 . S
C1277 C1276 1.400 . S
C1277 C1278 1.398 . S
C1278 H1266 0.950 . S
C1278 C1277 1.398 . S
C1278 C1279 1.391 . S
C1279 H1267 0.950 . S
C1279 C1275 1.393 . S
C1279 C1278 1.391 . S
H1280 C1288 0.950 1_655 S
H1281 C1293 0.950 . S
H1282 C1290 0.955 . S
H1283 C1292 0.950 . S
H1284 C1294 0.950 . S
H1285 C1296 0.950 . S
H1286 C1298 0.950 . S
H1287 C1299 0.950 . S
C1288 H1280 0.950 1_455 S
C1288 C1289 1.386 . S
C1288 C1290 1.391 . S
C1289 C1288 1.386 . S
C1289 C1293 1.393 . S
C1290 H1282 0.955 . S
C1290 C1288 1.391 . S
C1290 C1291 1.400 . S
C1291 C1290 1.400 . S
C1291 C1292 1.398 . S
C1291 C1297 1.491 . S
C1292 H1283 0.950 . S
C1292 C1291 1.398 . S
C1292 C1293 1.391 . S
C1293 H1281 0.950 . S
C1293 C1289 1.393 . S
C1293 C1292 1.391 . S
C1294 H1284 0.950 . S
C1294 C1295 1.386 . S
C1294 C1296 1.391 . S
C1295 C1294 1.386 . S
C1295 C1299 1.393 . S
C1296 H1285 0.950 . S
C1296 C1294 1.391 . S
C1296 C1297 1.400 . S
C1297 C1291 1.491 . S
C1297 C1296 1.400 . S
C1297 C1298 1.398 . S
C1298 H1286 0.950 . S
C1298 C1297 1.398 . S
C1298 C1299 1.391 . S
C1299 H1287 0.950 . S
C1299 C1295 1.393 . S
C1299 C1298 1.391 . S
H1300 C1308 0.950 . S
H1301 C1313 0.950 . S
H1302 C1310 0.950 . S
H1303 C1312 0.950 . S
H1304 C1314 0.950 1_655 S
H1305 C1316 0.950 1_655 S
H1306 C1318 0.950 . S
H1307 C1319 0.950 . S
C1308 H1300 0.950 . S
C1308 C1309 1.386 . S
C1308 C1310 1.391 . S
C1309 C1308 1.386 . S
C1309 C1313 1.393 . S
C1310 H1302 0.950 . S
C1310 C1308 1.391 . S
C1310 C1311 1.400 . S
C1311 C1310 1.400 . S
C1311 C1312 1.398 . S
C1311 C1317 1.491 . S
C1312 H1303 0.950 . S
C1312 C1311 1.398 . S
C1312 C1313 1.391 . S
C1313 H1301 0.950 . S
C1313 C1309 1.393 . S
C1313 C1312 1.391 . S
C1314 H1304 0.950 1_455 S
C1314 C1315 1.386 . S
C1314 C1316 1.391 . S
C1315 C1314 1.386 . S
C1315 C1319 1.393 . S
C1316 H1305 0.950 1_455 S
C1316 C1314 1.391 . S
C1316 C1317 1.400 . S
C1317 C1311 1.491 . S
C1317 C1316 1.400 . S
C1317 C1318 1.398 . S
C1318 H1306 0.950 . S
C1318 C1317 1.398 . S
C1318 C1319 1.391 . S
C1319 H1307 0.950 . S
C1319 C1315 1.393 . S
C1319 C1318 1.391 . S
H1320 C1328 0.950 . S
H1321 C1333 0.950 . S
H1322 C1330 0.950 . S
H1323 C1332 0.950 . S
H1324 C1334 0.950 . S
H1325 C1336 0.950 . S
H1326 C1338 0.950 . S
H1327 C1339 0.950 . S
C1328 H1320 0.950 . S
C1328 C1329 1.386 . S
C1328 C1330 1.391 . S
C1329 C1328 1.386 . S
C1329 C1333 1.393 . S
C1330 H1322 0.950 . S
C1330 C1328 1.391 . S
C1330 C1331 1.400 . S
C1331 C1330 1.400 . S
C1331 C1332 1.398 . S
C1331 C1337 1.491 . S
C1332 H1323 0.950 . S
C1332 C1331 1.398 . S
C1332 C1333 1.391 . S
C1333 H1321 0.950 . S
C1333 C1329 1.393 . S
C1333 C1332 1.391 . S
C1334 H1324 0.950 . S
C1334 C1335 1.386 . S
C1334 C1336 1.391 . S
C1335 C1334 1.386 . S
C1335 C1339 1.393 . S
C1336 H1325 0.950 . S
C1336 C1334 1.391 . S
C1336 C1337 1.400 . S
C1337 C1331 1.491 . S
C1337 C1336 1.400 . S
C1337 C1338 1.398 . S
C1338 H1326 0.950 . S
C1338 C1337 1.398 . S
C1338 C1339 1.391 . S
C1339 H1327 0.950 . S
C1339 C1335 1.393 . S
C1339 C1338 1.391 . S
H1340 C1348 0.950 1_455 S
H1341 C1353 0.950 . S
H1342 C1350 0.950 . S
H1343 C1352 0.950 . S
H1344 C1354 0.950 . S
H1345 C1356 0.950 . S
H1346 C1358 0.950 . S
H1347 C1359 0.950 . S
C1348 H1340 0.950 1_655 S
C1348 C1349 1.386 . S
C1348 C1350 1.391 . S
C1349 C1348 1.386 . S
C1349 C1353 1.393 . S
C1350 H1342 0.950 . S
C1350 C1348 1.391 . S
C1350 C1351 1.400 . S
C1351 C1350 1.400 . S
C1351 C1352 1.398 . S
C1351 C1357 1.491 . S
C1352 H1343 0.950 . S
C1352 C1351 1.398 . S
C1352 C1353 1.391 . S
C1353 H1341 0.950 . S
C1353 C1349 1.393 . S
C1353 C1352 1.391 . S
C1354 H1344 0.950 . S
C1354 C1355 1.386 . S
C1354 C1356 1.391 . S
C1355 C1354 1.386 . S
C1355 C1359 1.393 . S
C1356 H1345 0.950 . S
C1356 C1354 1.391 . S
C1356 C1357 1.400 . S
C1357 C1351 1.491 . S
C1357 C1356 1.400 . S
C1357 C1358 1.398 . S
C1358 H1346 0.950 . S
C1358 C1357 1.398 . S
C1358 C1359 1.391 . S
C1359 H1347 0.950 . S
C1359 C1355 1.393 . S
C1359 C1358 1.391 . S
H1360 C1368 0.950 . S
H1361 C1373 0.950 . S
H1362 C1370 0.950 . S
H1363 C1372 0.950 . S
H1364 C1374 0.950 . S
H1365 C1376 0.950 . S
H1366 C1378 0.950 . S
H1367 C1379 0.950 . S
C1368 H1360 0.950 . S
C1368 C1369 1.386 . S
C1368 C1370 1.391 . S
C1369 C1368 1.386 . S
C1369 C1373 1.393 . S
C1370 H1362 0.950 . S
C1370 C1368 1.391 . S
C1370 C1371 1.400 . S
C1371 C1370 1.400 . S
C1371 C1372 1.398 . S
C1371 C1377 1.491 . S
C1372 H1363 0.950 . S
C1372 C1371 1.398 . S
C1372 C1373 1.391 . S
C1373 H1361 0.950 . S
C1373 C1369 1.393 . S
C1373 C1372 1.391 . S
C1374 H1364 0.950 . S
C1374 C1375 1.386 . S
C1374 C1376 1.391 . S
C1375 C1374 1.386 . S
C1375 C1379 1.393 . S
C1376 H1365 0.950 . S
C1376 C1374 1.391 . S
C1376 C1377 1.400 . S
C1377 C1371 1.491 . S
C1377 C1376 1.400 . S
C1377 C1378 1.398 . S
C1378 H1366 0.950 . S
C1378 C1377 1.398 . S
C1378 C1379 1.391 . S
C1379 H1367 0.950 . S
C1379 C1375 1.393 . S
C1379 C1378 1.391 . S
H1380 C1388 0.950 . S
H1381 C1393 0.950 . S
H1382 C1390 0.950 . S
H1383 C1392 0.950 . S
H1384 C1394 0.950 . S
H1385 C1396 0.950 . S
H1386 C1398 0.950 . S
H1387 C1399 0.950 . S
C1388 H1380 0.950 . S
C1388 C1389 1.386 . S
C1388 C1390 1.391 . S
C1389 C1388 1.386 . S
C1389 C1393 1.393 . S
C1390 H1382 0.950 . S
C1390 C1388 1.391 . S
C1390 C1391 1.400 . S
C1391 C1390 1.400 . S
C1391 C1392 1.398 . S
C1391 C1397 1.491 . S
C1392 H1383 0.950 . S
C1392 C1391 1.398 . S
C1392 C1393 1.391 . S
C1393 H1381 0.950 . S
C1393 C1389 1.393 . S
C1393 C1392 1.391 . S
C1394 H1384 0.950 . S
C1394 C1395 1.386 . S
C1394 C1396 1.391 . S
C1395 C1394 1.386 . S
C1395 C1399 1.393 . S
C1396 H1385 0.950 . S
C1396 C1394 1.391 . S
C1396 C1397 1.400 . S
C1397 C1391 1.491 . S
C1397 C1396 1.400 . S
C1397 C1398 1.398 . S
C1398 H1386 0.950 . S
C1398 C1397 1.398 . S
C1398 C1399 1.391 . S
C1399 H1387 0.950 . S
C1399 C1395 1.393 . S
C1399 C1398 1.391 . S
H1400 C1408 0.950 1_455 S
H1401 C1413 0.950 . S
H1402 C1410 0.950 . S
H1403 C1412 0.950 . S
H1404 C1414 0.950 . S
H1405 C1416 0.950 . S
H1406 C1418 0.950 . S
H1407 C1419 0.950 . S
C1408 H1400 0.950 1_655 S
C1408 C1409 1.386 . S
C1408 C1410 1.391 . S
C1409 C1408 1.386 . S
C1409 C1413 1.393 . S
C1410 H1402 0.950 . S
C1410 C1408 1.391 . S
C1410 C1411 1.400 . S
C1411 C1410 1.400 . S
C1411 C1412 1.398 . S
C1411 C1417 1.491 . S
C1412 H1403 0.950 . S
C1412 C1411 1.398 . S
C1412 C1413 1.391 . S
C1413 H1401 0.950 . S
C1413 C1409 1.393 . S
C1413 C1412 1.391 . S
C1414 H1404 0.950 . S
C1414 C1415 1.386 . S
C1414 C1416 1.391 . S
C1415 C1414 1.386 . S
C1415 C1419 1.393 . S
C1416 H1405 0.950 . S
C1416 C1414 1.391 . S
C1416 C1417 1.400 . S
C1417 C1411 1.491 . S
C1417 C1416 1.400 . S
C1417 C1418 1.398 . S
C1418 H1406 0.950 . S
C1418 C1417 1.398 . S
C1418 C1419 1.391 . S
C1419 H1407 0.950 . S
C1419 C1415 1.393 . S
C1419 C1418 1.391 . S
H1420 C1428 0.950 . S
H1421 C1433 0.950 . S
H1422 C1430 0.950 . S
H1423 C1432 0.950 . S
H1424 C1434 0.950 . S
H1425 C1436 0.950 . S
H1426 C1438 0.950 . S
H1427 C1439 0.950 . S
C1428 H1420 0.950 . S
C1428 C1429 1.386 . S
C1428 C1430 1.391 . S
C1429 C1428 1.386 . S
C1429 C1433 1.393 . S
C1430 H1422 0.950 . S
C1430 C1428 1.391 . S
C1430 C1431 1.400 . S
C1431 C1430 1.400 . S
C1431 C1432 1.398 . S
C1431 C1437 1.491 . S
C1432 H1423 0.950 . S
C1432 C1431 1.398 . S
C1432 C1433 1.391 . S
C1433 H1421 0.950 . S
C1433 C1429 1.393 . S
C1433 C1432 1.391 . S
C1434 H1424 0.950 . S
C1434 C1435 1.386 . S
C1434 C1436 1.391 . S
C1435 C1434 1.386 . S
C1435 C1439 1.393 . S
C1436 H1425 0.950 . S
C1436 C1434 1.391 . S
C1436 C1437 1.400 . S
C1437 C1431 1.491 . S
C1437 C1436 1.400 . S
C1437 C1438 1.398 . S
C1438 H1426 0.950 . S
C1438 C1437 1.398 . S
C1438 C1439 1.391 . S
C1439 H1427 0.950 . S
C1439 C1435 1.393 . S
C1439 C1438 1.391 . S
H1440 C1448 0.950 . S
H1441 C1453 0.950 . S
H1442 C1450 0.950 . S
H1443 C1452 0.950 . S
H1444 C1454 0.950 . S
H1445 C1456 0.950 . S
H1446 C1458 0.950 . S
H1447 C1459 0.950 . S
C1448 H1440 0.950 . S
C1448 C1449 1.386 . S
C1448 C1450 1.391 . S
C1449 C1448 1.386 . S
C1449 C1453 1.393 . S
C1450 H1442 0.950 . S
C1450 C1448 1.391 . S
C1450 C1451 1.400 . S
C1451 C1450 1.400 . S
C1451 C1452 1.398 . S
C1451 C1457 1.491 . S
C1452 H1443 0.950 . S
C1452 C1451 1.398 . S
C1452 C1453 1.391 . S
C1453 H1441 0.950 . S
C1453 C1449 1.393 . S
C1453 C1452 1.391 . S
C1454 H1444 0.950 . S
C1454 C1455 1.386 . S
C1454 C1456 1.391 . S
C1455 C1454 1.386 . S
C1455 C1459 1.393 . S
C1456 H1445 0.950 . S
C1456 C1454 1.391 . S
C1456 C1457 1.400 . S
C1457 C1451 1.491 . S
C1457 C1456 1.400 . S
C1457 C1458 1.398 . S
C1458 H1446 0.950 . S
C1458 C1457 1.398 . S
C1458 C1459 1.391 . S
C1459 H1447 0.950 . S
C1459 C1455 1.393 . S
C1459 C1458 1.391 . S
H1460 C1468 0.950 . S
H1461 C1473 0.950 . S
H1462 C1470 0.950 . S
H1463 C1472 0.950 . S
H1464 C1474 0.950 . S
H1465 C1476 0.950 . S
H1466 C1478 0.950 . S
H1467 C1479 0.950 . S
C1468 H1460 0.950 . S
C1468 C1469 1.386 . S
C1468 C1470 1.391 . S
C1469 C1468 1.386 . S
C1469 C1473 1.393 . S
C1470 H1462 0.950 . S
C1470 C1468 1.391 . S
C1470 C1471 1.400 . S
C1471 C1470 1.400 . S
C1471 C1472 1.398 . S
C1471 C1477 1.491 . S
C1472 H1463 0.950 . S
C1472 C1471 1.398 . S
C1472 C1473 1.391 . S
C1473 H1461 0.950 . S
C1473 C1469 1.393 . S
C1473 C1472 1.391 . S
C1474 H1464 0.950 . S
C1474 C1475 1.386 . S
C1474 C1476 1.391 . S
C1475 C1474 1.386 . S
C1475 C1479 1.393 . S
C1476 H1465 0.950 . S
C1476 C1474 1.391 . S
C1476 C1477 1.400 . S
C1477 C1471 1.491 . S
C1477 C1476 1.400 . S
C1477 C1478 1.398 . S
C1478 H1466 0.950 . S
C1478 C1477 1.398 . S
C1478 C1479 1.391 . S
C1479 H1467 0.950 . S
C1479 C1475 1.393 . S
C1479 C1478 1.391 . S
H1480 C1488 0.950 . S
H1481 C1493 0.950 . S
H1482 C1490 0.950 . S
H1483 C1492 0.950 . S
H1484 C1494 0.950 . S
H1485 C1496 0.950 . S
H1486 C1498 0.950 . S
H1487 C1499 0.950 . S
C1488 H1480 0.950 . S
C1488 C1489 1.386 . S
C1488 C1490 1.391 . S
C1489 C1488 1.386 . S
C1489 C1493 1.393 . S
C1490 H1482 0.950 . S
C1490 C1488 1.391 . S
C1490 C1491 1.400 . S
C1491 C1490 1.400 . S
C1491 C1492 1.398 . S
C1491 C1497 1.491 . S
C1492 H1483 0.950 . S
C1492 C1491 1.398 . S
C1492 C1493 1.391 . S
C1493 H1481 0.950 . S
C1493 C1489 1.393 . S
C1493 C1492 1.391 . S
C1494 H1484 0.950 . S
C1494 C1495 1.386 . S
C1494 C1496 1.391 . S
C1495 C1494 1.386 . S
C1495 C1499 1.393 . S
C1496 H1485 0.950 . S
C1496 C1494 1.391 . S
C1496 C1497 1.400 . S
C1497 C1491 1.491 . S
C1497 C1496 1.400 . S
C1497 C1498 1.398 . S
C1498 H1486 0.950 . S
C1498 C1497 1.398 . S
C1498 C1499 1.391 . S
C1499 H1487 0.950 . S
C1499 C1495 1.393 . S
C1499 C1498 1.391 . S
H1500 C1508 0.950 . S
H1501 C1513 0.950 . S
H1502 C1510 0.950 . S
H1503 C1512 0.950 . S
H1504 C1514 0.950 . S
H1505 C1516 0.950 . S
H1506 C1518 0.950 . S
H1507 C1519 0.950 . S
C1508 H1500 0.950 . S
C1508 C1509 1.386 . S
C1508 C1510 1.391 . S
C1509 C1508 1.386 . S
C1509 C1513 1.393 . S
C1510 H1502 0.950 . S
C1510 C1508 1.391 . S
C1510 C1511 1.400 . S
C1511 C1510 1.400 . S
C1511 C1512 1.398 . S
C1511 C1517 1.491 . S
C1512 H1503 0.950 . S
C1512 C1511 1.398 . S
C1512 C1513 1.391 . S
C1513 H1501 0.950 . S
C1513 C1509 1.393 . S
C1513 C1512 1.391 . S
C1514 H1504 0.950 . S
C1514 C1515 1.386 . S
C1514 C1516 1.391 . S
C1515 C1514 1.386 . S
C1515 C1519 1.393 . S
C1516 H1505 0.950 . S
C1516 C1514 1.391 . S
C1516 C1517 1.400 . S
C1517 C1511 1.491 . S
C1517 C1516 1.400 . S
C1517 C1518 1.398 . S
C1518 H1506 0.950 . S
C1518 C1517 1.398 . S
C1518 C1519 1.391 . S
C1519 H1507 0.950 . S
C1519 C1515 1.393 . S
C1519 C1518 1.391 . S
H1520 C1528 0.950 . S
H1521 C1533 0.950 . S
H1522 C1530 0.950 . S
H1523 C1532 0.950 . S
H1524 C1534 0.950 . S
H1525 C1536 0.950 . S
H1526 C1538 0.950 . S
H1527 C1539 0.950 . S
C1528 H1520 0.950 . S
C1528 C1529 1.386 . S
C1528 C1530 1.391 . S
C1529 C1528 1.386 . S
C1529 C1533 1.393 . S
C1530 H1522 0.950 . S
C1530 C1528 1.391 . S
C1530 C1531 1.400 . S
C1531 C1530 1.400 . S
C1531 C1532 1.398 . S
C1531 C1537 1.491 . S
C1532 H1523 0.950 . S
C1532 C1531 1.398 . S
C1532 C1533 1.391 . S
C1533 H1521 0.950 . S
C1533 C1529 1.393 . S
C1533 C1532 1.391 . S
C1534 H1524 0.950 . S
C1534 C1535 1.386 . S
C1534 C1536 1.391 . S
C1535 C1534 1.386 . S
C1535 C1539 1.393 . S
C1536 H1525 0.950 . S
C1536 C1534 1.391 . S
C1536 C1537 1.400 . S
C1537 C1531 1.491 . S
C1537 C1536 1.400 . S
C1537 C1538 1.398 . S
C1538 H1526 0.950 . S
C1538 C1537 1.398 . S
C1538 C1539 1.391 . S
C1539 H1527 0.950 . S
C1539 C1535 1.393 . S
C1539 C1538 1.391 . S
H1540 C1548 0.950 . S
H1541 C1553 0.950 . S
H1542 C1550 0.950 . S
H1543 C1552 0.950 . S
H1544 C1554 0.950 . S
H1545 C1556 0.950 . S
H1546 C1558 0.950 . S
H1547 C1559 0.950 . S
C1548 H1540 0.950 . S
C1548 C1549 1.386 . S
C1548 C1550 1.391 . S
C1549 C1548 1.386 . S
C1549 C1553 1.393 . S
C1550 H1542 0.950 . S
C1550 C1548 1.391 . S
C1550 C1551 1.400 . S
C1551 C1550 1.400 . S
C1551 C1552 1.398 . S
C1551 C1557 1.491 . S
C1552 H1543 0.950 . S
C1552 C1551 1.398 . S
C1552 C1553 1.391 . S
C1553 H1541 0.950 . S
C1553 C1549 1.393 . S
C1553 C1552 1.391 . S
C1554 H1544 0.950 . S
C1554 C1555 1.386 . S
C1554 C1556 1.391 . S
C1555 C1554 1.386 . S
C1555 C1559 1.393 . S
C1556 H1545 0.950 . S
C1556 C1554 1.391 . S
C1556 C1557 1.400 . S
C1557 C1551 1.491 . S
C1557 C1556 1.400 . S
C1557 C1558 1.398 . S
C1558 H1546 0.950 . S
C1558 C1557 1.398 . S
C1558 C1559 1.391 . S
C1559 H1547 0.950 . S
C1559 C1555 1.393 . S
C1559 C1558 1.391 . S
H1560 C1568 0.950 . S
H1561 C1573 0.950 . S
H1562 C1570 0.950 . S
H1563 C1572 0.950 . S
H1564 C1574 0.950 . S
H1565 C1576 0.950 . S
H1566 C1578 0.950 . S
H1567 C1579 0.950 . S
C1568 H1560 0.950 . S
C1568 C1569 1.386 . S
C1568 C1570 1.391 . S
C1569 C1568 1.386 . S
C1569 C1573 1.393 . S
C1570 H1562 0.950 . S
C1570 C1568 1.391 . S
C1570 C1571 1.400 . S
C1571 C1570 1.400 . S
C1571 C1572 1.398 . S
C1571 C1577 1.491 . S
C1572 H1563 0.950 . S
C1572 C1571 1.398 . S
C1572 C1573 1.391 . S
C1573 H1561 0.950 . S
C1573 C1569 1.393 . S
C1573 C1572 1.391 . S
C1574 H1564 0.950 . S
C1574 C1575 1.386 . S
C1574 C1576 1.391 . S
C1575 C1574 1.386 . S
C1575 C1579 1.393 . S
C1576 H1565 0.950 . S
C1576 C1574 1.391 . S
C1576 C1577 1.400 . S
C1577 C1571 1.491 . S
C1577 C1576 1.400 . S
C1577 C1578 1.398 . S
C1578 H1566 0.950 . S
C1578 C1577 1.398 . S
C1578 C1579 1.391 . S
C1579 H1567 0.950 . S
C1579 C1575 1.393 . S
C1579 C1578 1.391 . S
H1580 C1588 0.950 . S
H1581 C1593 0.950 . S
H1582 C1590 0.950 . S
H1583 C1592 0.950 . S
H1584 C1594 0.950 . S
H1585 C1596 0.950 . S
H1586 C1598 0.950 . S
H1587 C1599 0.950 . S
C1588 H1580 0.950 . S
C1588 C1589 1.386 . S
C1588 C1590 1.391 . S
C1589 C1588 1.386 . S
C1589 C1593 1.393 . S
C1590 H1582 0.950 . S
C1590 C1588 1.391 . S
C1590 C1591 1.400 . S
C1591 C1590 1.400 . S
C1591 C1592 1.398 . S
C1591 C1597 1.491 . S
C1592 H1583 0.950 . S
C1592 C1591 1.398 . S
C1592 C1593 1.391 . S
C1593 H1581 0.950 . S
C1593 C1589 1.393 . S
C1593 C1592 1.391 . S
C1594 H1584 0.950 . S
C1594 C1595 1.386 . S
C1594 C1596 1.391 . S
C1595 C1594 1.386 . S
C1595 C1599 1.393 . S
C1596 H1585 0.950 . S
C1596 C1594 1.391 . S
C1596 C1597 1.400 . S
C1597 C1591 1.491 . S
C1597 C1596 1.400 . S
C1597 C1598 1.398 . S
C1598 H1586 0.950 . S
C1598 C1597 1.398 . S
C1598 C1599 1.391 . S
C1599 H1587 0.950 . S
C1599 C1595 1.393 . S
C1599 C1598 1.391 . S
H1600 C1608 0.950 . S
H1601 C1613 0.950 . S
H1602 C1610 0.950 . S
H1603 C1612 0.950 . S
H1604 C1614 0.950 . S
H1605 C1616 0.950 . S
H1606 C1618 0.950 . S
H1607 C1619 0.950 . S
C1608 H1600 0.950 . S
C1608 C1609 1.386 . S
C1608 C1610 1.391 . S
C1609 C1608 1.386 . S
C1609 C1613 1.393 . S
C1610 H1602 0.950 . S
C1610 C1608 1.391 . S
C1610 C1611 1.400 . S
C1611 C1610 1.400 . S
C1611 C1612 1.398 . S
C1611 C1617 1.491 . S
C1612 H1603 0.950 . S
C1612 C1611 1.398 . S
C1612 C1613 1.391 . S
C1613 H1601 0.950 . S
C1613 C1609 1.393 . S
C1613 C1612 1.391 . S
C1614 H1604 0.950 . S
C1614 C1615 1.386 . S
C1614 C1616 1.391 . S
C1615 C1614 1.386 . S
C1615 C1619 1.393 . S
C1616 H1605 0.950 . S
C1616 C1614 1.391 . S
C1616 C1617 1.400 . S
C1617 C1611 1.491 . S
C1617 C1616 1.400 . S
C1617 C1618 1.398 . S
C1618 H1606 0.950 . S
C1618 C1617 1.398 . S
C1618 C1619 1.391 . S
C1619 H1607 0.950 . S
C1619 C1615 1.393 . S
C1619 C1618 1.391 . S
H1620 C1628 0.950 . S
H1621 C1633 0.950 . S
H1622 C1630 0.950 . S
H1623 C1632 0.950 . S
H1624 C1634 0.950 . S
H1625 C1636 0.950 . S
H1626 C1638 0.950 . S
H1627 C1639 0.950 . S
C1628 H1620 0.950 . S
C1628 C1629 1.386 . S
C1628 C1630 1.391 . S
C1629 C1628 1.386 . S
C1629 C1633 1.393 . S
C1630 H1622 0.950 . S
C1630 C1628 1.391 . S
C1630 C1631 1.400 . S
C1631 C1630 1.400 . S
C1631 C1632 1.398 . S
C1631 C1637 1.491 . S
C1632 H1623 0.950 . S
C1632 C1631 1.398 . S
C1632 C1633 1.391 . S
C1633 H1621 0.950 . S
C1633 C1629 1.393 . S
C1633 C1632 1.391 . S
C1634 H1624 0.950 . S
C1634 C1635 1.386 . S
C1634 C1636 1.391 . S
C1635 C1634 1.386 . S
C1635 C1639 1.393 . S
C1636 H1625 0.950 . S
C1636 C1634 1.391 . S
C1636 C1637 1.400 . S
C1637 C1631 1.491 . S
C1637 C1636 1.400 . S
C1637 C1638 1.398 . S
C1638 H1626 0.950 . S
C1638 C1637 1.398 . S
C1638 C1639 1.391 . S
C1639 H1627 0.950 . S
C1639 C1635 1.393 . S
C1639 C1638 1.391 . S
H1640 C1648 0.950 . S
H1641 C1653 0.950 . S
H1642 C1650 0.950 . S
H1643 C1652 0.950 . S
H1644 C1654 0.950 . S
H1645 C1656 0.950 . S
H1646 C1658 0.950 . S
H1647 C1659 0.950 . S
C1648 H1640 0.950 . S
C1648 C1649 1.386 . S
C1648 C1650 1.391 . S
C1649 C1648 1.386 . S
C1649 C1653 1.393 . S
C1650 H1642 0.950 . S
C1650 C1648 1.391 . S
C1650 C1651 1.400 . S
C1651 C1650 1.400 . S
C1651 C1652 1.398 . S
C1651 C1657 1.491 . S
C1652 H1643 0.950 . S
C1652 C1651 1.398 . S
C1652 C1653 1.391 . S
C1653 H1641 0.950 . S
C1653 C1649 1.393 . S
C1653 C1652 1.391 . S
C1654 H1644 0.950 . S
C1654 C1655 1.386 . S
C1654 C1656 1.391 . S
C1655 C1654 1.386 . S
C1655 C1659 1.393 . S
C1656 H1645 0.950 . S
C1656 C1654 1.391 . S
C1656 C1657 1.400 . S
C1657 C1651 1.491 . S
C1657 C1656 1.400 . S
C1657 C1658 1.398 . S
C1658 H1646 0.950 . S
C1658 C1657 1.398 . S
C1658 C1659 1.391 . S
C1659 H1647 0.950 . S
C1659 C1655 1.393 . S
C1659 C1658 1.391 . S
H1660 C1668 0.950 . S
H1661 C1673 0.950 . S
H1662 C1670 0.950 . S
H1663 C1672 0.950 . S
H1664 C1674 0.950 . S
H1665 C1676 0.950 . S
H1666 C1678 0.950 . S
H1667 C1679 0.950 . S
C1668 H1660 0.950 . S
C1668 C1669 1.386 . S
C1668 C1670 1.391 . S
C1669 C1668 1.386 . S
C1669 C1673 1.393 . S
C1670 H1662 0.950 . S
C1670 C1668 1.391 . S
C1670 C1671 1.400 . S
C1671 C1670 1.400 . S
C1671 C1672 1.398 . S
C1671 C1677 1.491 . S
C1672 H1663 0.950 . S
C1672 C1671 1.398 . S
C1672 C1673 1.391 . S
C1673 H1661 0.950 . S
C1673 C1669 1.393 . S
C1673 C1672 1.391 . S
C1674 H1664 0.950 . S
C1674 C1675 1.386 . S
C1674 C1676 1.391 . S
C1675 C1674 1.386 . S
C1675 C1679 1.393 . S
C1676 H1665 0.950 . S
C1676 C1674 1.391 . S
C1676 C1677 1.400 . S
C1677 C1671 1.491 . S
C1677 C1676 1.400 . S
C1677 C1678 1.398 . S
C1678 H1666 0.950 . S
C1678 C1677 1.398 . S
C1678 C1679 1.391 . S
C1679 H1667 0.950 . S
C1679 C1675 1.393 . S
C1679 C1678 1.391 . S
H1680 C1688 0.950 . S
H1681 C1693 0.950 . S
H1682 C1690 0.950 . S
H1683 C1692 0.950 . S
H1684 C1694 0.950 . S
H1685 C1696 0.950 . S
H1686 C1698 0.950 . S
H1687 C1699 0.950 . S
C1688 H1680 0.950 . S
C1688 C1689 1.386 . S
C1688 C1690 1.391 . S
C1689 C1688 1.386 . S
C1689 C1693 1.393 . S
C1690 H1682 0.950 . S
C1690 C1688 1.391 . S
C1690 C1691 1.400 . S
C1691 C1690 1.400 . S
C1691 C1692 1.398 . S
C1691 C1697 1.491 . S
C1692 H1683 0.950 . S
C1692 C1691 1.398 . S
C1692 C1693 1.391 . S
C1693 H1681 0.950 . S
C1693 C1689 1.393 . S
C1693 C1692 1.391 . S
C1694 H1684 0.950 . S
C1694 C1695 1.386 . S
C1694 C1696 1.391 . S
C1695 C1694 1.386 . S
C1695 C1699 1.393 . S
C1696 H1685 0.950 . S
C1696 C1694 1.391 . S
C1696 C1697 1.400 . S
C1697 C1691 1.491 . S
C1697 C1696 1.400 . S
C1697 C1698 1.398 . S
C1698 H1686 0.950 . S
C1698 C1697 1.398 . S
C1698 C1699 1.391 . S
C1699 H1687 0.950 . S
C1699 C1695 1.393 . S
C1699 C1698 1.391 . S
H1700 C1708 0.950 . S
H1701 C1713 0.950 . S
H1702 C1710 0.950 . S
H1703 C1712 0.950 . S
H1704 C1714 0.950 . S
H1705 C1716 0.950 . S
H1706 C1718 0.950 . S
H1707 C1719 0.950 . S
C1708 H1700 0.950 . S
C1708 C1709 1.386 . S
C1708 C1710 1.391 . S
C1709 C1708 1.386 . S
C1709 C1713 1.393 . S
C1710 H1702 0.950 . S
C1710 C1708 1.391 . S
C1710 C1711 1.400 . S
C1711 C1710 1.400 . S
C1711 C1712 1.398 . S
C1711 C1717 1.491 . S
C1712 H1703 0.950 . S
C1712 C1711 1.398 . S
C1712 C1713 1.391 . S
C1713 H1701 0.950 . S
C1713 C1709 1.393 . S
C1713 C1712 1.391 . S
C1714 H1704 0.950 . S
C1714 C1715 1.386 . S
C1714 C1716 1.391 . S
C1715 C1714 1.386 . S
C1715 C1719 1.393 . S
C1716 H1705 0.950 . S
C1716 C1714 1.391 . S
C1716 C1717 1.400 . S
C1717 C1711 1.491 . S
C1717 C1716 1.400 . S
C1717 C1718 1.398 . S
C1718 H1706 0.950 . S
C1718 C1717 1.398 . S
C1718 C1719 1.391 . S
C1719 H1707 0.950 . S
C1719 C1715 1.393 . S
C1719 C1718 1.391 . S
H1720 C1728 0.950 . S
H1721 C1733 0.950 . S
H1722 C1730 0.950 . S
H1723 C1732 0.950 . S
H1724 C1734 0.950 . S
H1725 C1736 0.950 . S
H1726 C1738 0.950 . S
H1727 C1739 0.950 . S
C1728 H1720 0.950 . S
C1728 C1729 1.386 . S
C1728 C1730 1.391 . S
C1729 C1728 1.386 . S
C1729 C1733 1.393 . S
C1730 H1722 0.950 . S
C1730 C1728 1.391 . S
C1730 C1731 1.400 . S
C1731 C1730 1.400 . S
C1731 C1732 1.398 . S
C1731 C1737 1.491 . S
C1732 H1723 0.950 . S
C1732 C1731 1.398 . S
C1732 C1733 1.391 . S
C1733 H1721 0.950 . S
C1733 C1729 1.393 . S
C1733 C1732 1.391 . S
C1734 H1724 0.950 . S
C1734 C1735 1.386 . S
C1734 C1736 1.391 . S
C1735 C1734 1.386 . S
C1735 C1739 1.393 . S
C1736 H1725 0.950 . S
C1736 C1734 1.391 . S
C1736 C1737 1.400 . S
C1737 C1731 1.491 . S
C1737 C1736 1.400 . S
C1737 C1738 1.398 . S
C1738 H1726 0.950 . S
C1738 C1737 1.398 . S
C1738 C1739 1.391 . S
C1739 H1727 0.950 . S
C1739 C1735 1.393 . S
C1739 C1738 1.391 . S
H1740 C1748 0.950 . S
H1741 C1753 0.950 . S
H1742 C1750 0.950 . S
H1743 C1752 0.950 . S
H1744 C1754 0.950 . S
H1745 C1756 0.950 . S
H1746 C1758 0.950 . S
H1747 C1759 0.950 . S
C1748 H1740 0.950 . S
C1748 C1749 1.386 . S
C1748 C1750 1.391 . S
C1749 C1748 1.386 . S
C1749 C1753 1.393 . S
C1750 H1742 0.950 . S
C1750 C1748 1.391 . S
C1750 C1751 1.400 . S
C1751 C1750 1.400 . S
C1751 C1752 1.398 . S
C1751 C1757 1.491 . S
C1752 H1743 0.950 . S
C1752 C1751 1.398 . S
C1752 C1753 1.391 . S
C1753 H1741 0.950 . S
C1753 C1749 1.393 . S
C1753 C1752 1.391 . S
C1754 H1744 0.950 . S
C1754 C1755 1.386 . S
C1754 C1756 1.391 . S
C1755 C1754 1.386 . S
C1755 C1759 1.393 . S
C1756 H1745 0.950 . S
C1756 C1754 1.391 . S
C1756 C1757 1.400 . S
C1757 C1751 1.491 . S
C1757 C1756 1.400 . S
C1757 C1758 1.398 . S
C1758 H1746 0.950 . S
C1758 C1757 1.398 . S
C1758 C1759 1.391 . S
C1759 H1747 0.950 . S
C1759 C1755 1.393 . S
C1759 C1758 1.391 . S
H1760 C1768 0.950 . S
H1761 C1773 0.958 . S
H1762 C1770 0.950 . S
H1763 C1772 0.950 . S
H1764 C1774 0.950 . S
H1765 C1776 0.950 . S
H1766 C1778 0.950 . S
H1767 C1779 0.955 . S
C1768 H1760 0.950 . S
C1768 C1769 1.386 . S
C1768 C1770 1.391 . S
C1769 C1768 1.386 . S
C1769 C1773 1.381 1_545 S
C1770 H1762 0.950 . S
C1770 C1768 1.391 . S
C1770 C1771 1.417 . S
C1771 C1770 1.417 . S
C1771 C1772 1.388 1_545 S
C1771 C1777 1.487 1_545 S
C1772 H1763 0.950 . S
C1772 C1771 1.388 1_565 S
C1772 C1773 1.396 . S
C1773 H1761 0.958 . S
C1773 C1769 1.381 1_565 S
C1773 C1772 1.396 . S
C1774 H1764 0.950 . S
C1774 C1775 1.386 . S
C1774 C1776 1.391 . S
C1775 C1774 1.386 . S
C1775 C1779 1.385 1_565 S
C1776 H1765 0.950 . S
C1776 C1774 1.391 . S
C1776 C1777 1.400 . S
C1777 C1771 1.487 1_565 S
C1777 C1776 1.400 . S
C1777 C1778 1.398 1_565 S
C1778 H1766 0.950 . S
C1778 C1777 1.398 1_545 S
C1778 C1779 1.394 . S
C1779 H1767 0.955 . S
C1779 C1775 1.385 1_545 S
C1779 C1778 1.394 . S
H1780 C1788 0.950 . S
H1781 C1793 0.950 . S
H1782 C1790 0.950 . S
H1783 C1792 0.950 . S
H1784 C1794 0.950 . S
H1785 C1796 0.950 . S
H1786 C1798 0.950 . S
H1787 C1799 0.950 . S
C1788 H1780 0.950 . S
C1788 C1789 1.386 . S
C1788 C1790 1.391 . S
C1789 C1788 1.386 . S
C1789 C1793 1.393 . S
C1790 H1782 0.950 . S
C1790 C1788 1.391 . S
C1790 C1791 1.400 . S
C1791 C1790 1.400 . S
C1791 C1792 1.398 . S
C1791 C1797 1.491 . S
C1792 H1783 0.950 . S
C1792 C1791 1.398 . S
C1792 C1793 1.391 . S
C1793 H1781 0.950 . S
C1793 C1789 1.393 . S
C1793 C1792 1.391 . S
C1794 H1784 0.950 . S
C1794 C1795 1.386 . S
C1794 C1796 1.391 . S
C1795 C1794 1.386 . S
C1795 C1799 1.393 . S
C1796 H1785 0.950 . S
C1796 C1794 1.391 . S
C1796 C1797 1.400 . S
C1797 C1791 1.491 . S
C1797 C1796 1.400 . S
C1797 C1798 1.398 . S
C1798 H1786 0.950 . S
C1798 C1797 1.398 . S
C1798 C1799 1.391 . S
C1799 H1787 0.950 . S
C1799 C1795 1.393 . S
C1799 C1798 1.391 . S
H1800 C1808 0.950 . S
H1801 C1813 0.950 . S
H1802 C1810 0.950 . S
H1803 C1812 0.950 . S
H1804 C1814 0.950 . S
H1805 C1816 0.950 . S
H1806 C1818 0.950 . S
H1807 C1819 0.950 . S
C1808 H1800 0.950 . S
C1808 C1809 1.386 . S
C1808 C1810 1.391 . S
C1809 C1808 1.386 . S
C1809 C1813 1.393 . S
C1810 H1802 0.950 . S
C1810 C1808 1.391 . S
C1810 C1811 1.400 . S
C1811 C1810 1.400 . S
C1811 C1812 1.398 . S
C1811 C1817 1.491 . S
C1812 H1803 0.950 . S
C1812 C1811 1.398 . S
C1812 C1813 1.391 . S
C1813 H1801 0.950 . S
C1813 C1809 1.393 . S
C1813 C1812 1.391 . S
C1814 H1804 0.950 . S
C1814 C1815 1.386 . S
C1814 C1816 1.391 . S
C1815 C1814 1.386 . S
C1815 C1819 1.393 . S
C1816 H1805 0.950 . S
C1816 C1814 1.391 . S
C1816 C1817 1.400 . S
C1817 C1811 1.491 . S
C1817 C1816 1.400 . S
C1817 C1818 1.398 . S
C1818 H1806 0.950 . S
C1818 C1817 1.398 . S
C1818 C1819 1.391 . S
C1819 H1807 0.950 . S
C1819 C1815 1.393 . S
C1819 C1818 1.391 . S
H1820 C1828 0.950 . S
H1821 C1833 0.950 . S
H1822 C1830 0.950 . S
H1823 C1832 0.950 . S
H1824 C1834 0.950 . S
H1825 C1836 0.950 . S
H1826 C1838 0.950 . S
H1827 C1839 0.950 . S
C1828 H1820 0.950 . S
C1828 C1829 1.386 . S
C1828 C1830 1.391 . S
C1829 C1828 1.386 . S
C1829 C1833 1.393 1_545 S
C1830 H1822 0.950 . S
C1830 C1828 1.391 . S
C1830 C1831 1.400 . S
C1831 C1830 1.400 . S
C1831 C1832 1.398 1_545 S
C1831 C1837 1.491 1_545 S
C1832 H1823 0.950 . S
C1832 C1831 1.398 1_565 S
C1832 C1833 1.391 . S
C1833 H1821 0.950 . S
C1833 C1829 1.393 1_565 S
C1833 C1832 1.391 . S
C1834 H1824 0.950 . S
C1834 C1835 1.386 . S
C1834 C1836 1.391 . S
C1835 C1834 1.386 . S
C1835 C1839 1.393 1_565 S
C1836 H1825 0.950 . S
C1836 C1834 1.391 . S
C1836 C1837 1.400 . S
C1837 C1831 1.491 1_565 S
C1837 C1836 1.400 . S
C1837 C1838 1.398 1_565 S
C1838 H1826 0.950 . S
C1838 C1837 1.398 1_545 S
C1838 C1839 1.391 . S
C1839 H1827 0.950 . S
C1839 C1835 1.393 1_545 S
C1839 C1838 1.391 . S
H1840 C1848 0.950 . S
H1841 C1853 0.950 . S
H1842 C1850 0.950 . S
H1843 C1852 0.950 . S
H1844 C1854 0.950 . S
H1845 C1856 0.950 . S
H1846 C1858 0.950 . S
H1847 C1859 0.950 . S
C1848 H1840 0.950 . S
C1848 C1849 1.386 1_545 S
C1848 C1850 1.391 . S
C1849 C1848 1.386 1_565 S
C1849 C1853 1.393 . S
C1850 H1842 0.950 . S
C1850 C1848 1.391 . S
C1850 C1851 1.373 1_545 S
C1851 C1850 1.373 1_565 S
C1851 C1852 1.433 . S
C1851 C1857 1.486 1_565 S
C1852 H1843 0.950 . S
C1852 C1851 1.433 . S
C1852 C1853 1.391 . S
C1853 H1841 0.950 . S
C1853 C1849 1.393 . S
C1853 C1852 1.391 . S
C1854 H1844 0.950 . S
C1854 C1855 1.386 1_565 S
C1854 C1856 1.391 . S
C1855 C1854 1.386 1_545 S
C1855 C1859 1.393 . S
C1856 H1845 0.950 . S
C1856 C1854 1.391 . S
C1856 C1857 1.400 1_565 S
C1857 C1851 1.486 1_545 S
C1857 C1856 1.400 1_545 S
C1857 C1858 1.398 . S
C1858 H1846 0.950 . S
C1858 C1857 1.398 . S
C1858 C1859 1.391 . S
C1859 H1847 0.950 . S
C1859 C1855 1.393 . S
C1859 C1858 1.391 . S
H1860 C1868 0.950 . S
H1861 C1873 0.950 . S
H1862 C1870 0.950 . S
H1863 C1872 0.950 . S
H1864 C1874 0.950 . S
H1865 C1876 0.950 . S
H1866 C1878 0.950 . S
H1867 C1879 0.950 . S
C1868 H1860 0.950 . S
C1868 C1869 1.386 . S
C1868 C1870 1.391 . S
C1869 C1868 1.386 . S
C1869 C1873 1.393 . S
C1870 H1862 0.950 . S
C1870 C1868 1.391 . S
C1870 C1871 1.400 . S
C1871 C1870 1.400 . S
C1871 C1872 1.398 . S
C1871 C1877 1.491 . S
C1872 H1863 0.950 . S
C1872 C1871 1.398 . S
C1872 C1873 1.391 . S
C1873 H1861 0.950 . S
C1873 C1869 1.393 . S
C1873 C1872 1.391 . S
C1874 H1864 0.950 . S
C1874 C1875 1.386 . S
C1874 C1876 1.391 . S
C1875 C1874 1.386 . S
C1875 C1879 1.393 . S
C1876 H1865 0.950 . S
C1876 C1874 1.391 . S
C1876 C1877 1.400 . S
C1877 C1871 1.491 . S
C1877 C1876 1.400 . S
C1877 C1878 1.398 . S
C1878 H1866 0.950 . S
C1878 C1877 1.398 . S
C1878 C1879 1.391 . S
C1879 H1867 0.950 . S
C1879 C1875 1.393 . S
C1879 C1878 1.391 . S
H1880 C1888 0.950 . S
H1881 C1893 0.950 . S
H1882 C1890 0.950 . S
H1883 C1892 0.950 . S
H1884 C1894 0.950 . S
H1885 C1896 0.950 . S
H1886 C1898 0.950 . S
H1887 C1899 0.950 . S
C1888 H1880 0.950 . S
C1888 C1889 1.386 . S
C1888 C1890 1.391 . S
C1889 C1888 1.386 . S
C1889 C1893 1.393 . S
C1890 H1882 0.950 . S
C1890 C1888 1.391 . S
C1890 C1891 1.400 . S
C1891 C1890 1.400 . S
C1891 C1892 1.398 . S
C1891 C1897 1.491 . S
C1892 H1883 0.950 . S
C1892 C1891 1.398 . S
C1892 C1893 1.391 . S
C1893 H1881 0.950 . S
C1893 C1889 1.393 . S
C1893 C1892 1.391 . S
C1894 H1884 0.950 . S
C1894 C1895 1.386 . S
C1894 C1896 1.391 . S
C1895 C1894 1.386 . S
C1895 C1899 1.393 . S
C1896 H1885 0.950 . S
C1896 C1894 1.391 . S
C1896 C1897 1.400 . S
C1897 C1891 1.491 . S
C1897 C1896 1.400 . S
C1897 C1898 1.398 . S
C1898 H1886 0.950 . S
C1898 C1897 1.398 . S
C1898 C1899 1.391 . S
C1899 H1887 0.950 . S
C1899 C1895 1.393 . S
C1899 C1898 1.391 . S
H1900 C1908 0.950 . S
H1901 C1913 0.950 . S
H1902 C1910 0.950 . S
H1903 C1912 0.950 . S
H1904 C1914 0.950 . S
H1905 C1916 0.950 . S
H1906 C1918 0.950 . S
H1907 C1919 0.950 . S
C1908 H1900 0.950 . S
C1908 C1909 1.386 1_545 S
C1908 C1910 1.391 . S
C1909 C1908 1.386 1_565 S
C1909 C1913 1.393 . S
C1910 H1902 0.950 . S
C1910 C1908 1.391 . S
C1910 C1911 1.400 1_545 S
C1911 C1910 1.400 1_565 S
C1911 C1912 1.398 . S
C1911 C1917 1.491 1_565 S
C1912 H1903 0.950 . S
C1912 C1911 1.398 . S
C1912 C1913 1.391 . S
C1913 H1901 0.950 . S
C1913 C1909 1.393 . S
C1913 C1912 1.391 . S
C1914 H1904 0.950 . S
C1914 C1915 1.386 1_565 S
C1914 C1916 1.391 . S
C1915 C1914 1.386 1_545 S
C1915 C1919 1.393 . S
C1916 H1905 0.950 . S
C1916 C1914 1.391 . S
C1916 C1917 1.400 1_565 S
C1917 C1911 1.491 1_545 S
C1917 C1916 1.400 1_545 S
C1917 C1918 1.398 . S
C1918 H1906 0.950 . S
C1918 C1917 1.398 . S
C1918 C1919 1.391 . S
C1919 H1907 0.950 . S
C1919 C1915 1.393 . S
C1919 C1918 1.391 . S
H1920 C1928 0.950 . S
H1921 C1933 0.950 . S
H1922 C1930 0.950 . S
H1923 C1932 0.950 . S
H1924 C1934 0.950 . S
H1925 C1936 0.950 . S
H1926 C1938 0.950 . S
H1927 C1939 0.950 . S
C1928 H1920 0.950 . S
C1928 C1929 1.386 . S
C1928 C1930 1.391 . S
C1929 C1928 1.386 . S
C1929 C1933 1.393 . S
C1930 H1922 0.950 . S
C1930 C1928 1.391 . S
C1930 C1931 1.400 . S
C1931 C1930 1.400 . S
C1931 C1932 1.398 . S
C1931 C1937 1.491 1_455 S
C1932 H1923 0.950 . S
C1932 C1931 1.398 . S
C1932 C1933 1.391 . S
C1933 H1921 0.950 . S
C1933 C1929 1.393 . S
C1933 C1932 1.391 . S
C1934 H1924 0.950 . S
C1934 C1935 1.386 . S
C1934 C1936 1.391 . S
C1935 C1934 1.386 . S
C1935 C1939 1.393 . S
C1936 H1925 0.950 . S
C1936 C1934 1.391 . S
C1936 C1937 1.400 . S
C1937 C1931 1.491 1_655 S
C1937 C1936 1.400 . S
C1937 C1938 1.398 . S
C1938 H1926 0.950 . S
C1938 C1937 1.398 . S
C1938 C1939 1.391 . S
C1939 H1927 0.950 . S
C1939 C1935 1.393 . S
C1939 C1938 1.391 . S
H1940 C1948 0.950 . S
H1941 C1953 0.950 . S
H1942 C1950 0.950 . S
H1943 C1952 0.950 . S
H1944 C1954 0.950 1_655 S
H1945 C1956 0.950 . S
H1946 C1958 0.950 . S
H1947 C1959 0.950 . S
C1948 H1940 0.950 . S
C1948 C1949 1.386 . S
C1948 C1950 1.391 . S
C1949 C1948 1.386 . S
C1949 C1953 1.393 . S
C1950 H1942 0.950 . S
C1950 C1948 1.391 . S
C1950 C1951 1.400 . S
C1951 C1950 1.400 . S
C1951 C1952 1.398 . S
C1951 C1957 1.491 . S
C1952 H1943 0.950 . S
C1952 C1951 1.398 . S
C1952 C1953 1.391 . S
C1953 H1941 0.950 . S
C1953 C1949 1.393 . S
C1953 C1952 1.391 . S
C1954 H1944 0.950 1_455 S
C1954 C1955 1.386 . S
C1954 C1956 1.391 . S
C1955 C1954 1.386 . S
C1955 C1959 1.393 . S
C1956 H1945 0.950 . S
C1956 C1954 1.391 . S
C1956 C1957 1.400 . S
C1957 C1951 1.491 . S
C1957 C1956 1.400 . S
C1957 C1958 1.398 . S
C1958 H1946 0.950 . S
C1958 C1957 1.398 . S
C1958 C1959 1.391 . S
C1959 H1947 0.950 . S
C1959 C1955 1.393 . S
C1959 C1958 1.391 . S
H1960 C1968 0.950 . S
H1961 C1973 0.950 . S
H1962 C1970 0.950 . S
H1963 C1972 0.950 . S
H1964 C1974 0.950 . S
H1965 C1976 0.950 . S
H1966 C1978 0.950 . S
H1967 C1979 0.950 . S
C1968 H1960 0.950 . S
C1968 C1969 1.386 . S
C1968 C1970 1.391 . S
C1969 C1968 1.386 . S
C1969 C1973 1.393 . S
C1970 H1962 0.950 . S
C1970 C1968 1.391 . S
C1970 C1971 1.400 . S
C1971 C1970 1.400 . S
C1971 C1972 1.398 . S
C1971 C1977 1.491 1_655 S
C1972 H1963 0.950 . S
C1972 C1971 1.398 . S
C1972 C1973 1.391 . S
C1973 H1961 0.950 . S
C1973 C1969 1.393 . S
C1973 C1972 1.391 . S
C1974 H1964 0.950 . S
C1974 C1975 1.386 . S
C1974 C1976 1.391 . S
C1975 C1974 1.386 . S
C1975 C1979 1.393 . S
C1976 H1965 0.950 . S
C1976 C1974 1.391 . S
C1976 C1977 1.400 . S
C1977 C1971 1.491 1_455 S
C1977 C1976 1.400 . S
C1977 C1978 1.398 . S
C1978 H1966 0.950 . S
C1978 C1977 1.398 . S
C1978 C1979 1.391 . S
C1979 H1967 0.950 . S
C1979 C1975 1.393 . S
C1979 C1978 1.391 . S
H1980 C1988 0.950 . S
H1981 C1993 0.950 . S
H1982 C1990 0.950 . S
H1983 C1992 0.950 . S
H1984 C1994 0.950 . S
H1985 C1996 0.950 . S
H1986 C1998 0.950 . S
H1987 C1999 0.950 . S
C1988 H1980 0.950 . S
C1988 C1989 1.386 . S
C1988 C1990 1.391 . S
C1989 C1988 1.386 . S
C1989 C1993 1.393 . S
C1990 H1982 0.950 . S
C1990 C1988 1.391 . S
C1990 C1991 1.400 . S
C1991 C1990 1.400 . S
C1991 C1992 1.398 . S
C1991 C1997 1.491 . S
C1992 H1983 0.950 . S
C1992 C1991 1.398 . S
C1992 C1993 1.391 . S
C1993 H1981 0.950 . S
C1993 C1989 1.393 . S
C1993 C1992 1.391 . S
C1994 H1984 0.950 . S
C1994 C1995 1.386 . S
C1994 C1996 1.391 . S
C1995 C1994 1.386 . S
C1995 C1999 1.393 . S
C1996 H1985 0.950 . S
C1996 C1994 1.391 . S
C1996 C1997 1.400 . S
C1997 C1991 1.491 . S
C1997 C1996 1.400 . S
C1997 C1998 1.398 . S
C1998 H1986 0.950 . S
C1998 C1997 1.398 . S
C1998 C1999 1.391 . S
C1999 H1987 0.950 . S
C1999 C1995 1.393 . S
C1999 C1998 1.391 . S
H2000 C2008 0.950 . S
H2001 C2013 0.950 . S
H2002 C2010 0.950 . S
H2003 C2012 0.950 . S
H2004 C2014 0.950 . S
H2005 C2016 0.950 . S
H2006 C2018 0.950 . S
H2007 C2019 0.950 . S
C2008 H2000 0.950 . S
C2008 C2009 1.386 . S
C2008 C2010 1.391 . S
C2009 C2008 1.386 . S
C2009 C2013 1.393 . S
C2010 H2002 0.950 . S
C2010 C2008 1.391 . S
C2010 C2011 1.400 . S
C2011 C2010 1.400 . S
C2011 C2012 1.398 . S
C2011 C2017 1.491 1_655 S
C2012 H2003 0.950 . S
C2012 C2011 1.398 . S
C2012 C2013 1.391 . S
C2013 H2001 0.950 . S
C2013 C2009 1.393 . S
C2013 C2012 1.391 . S
C2014 H2004 0.950 . S
C2014 C2015 1.386 . S
C2014 C2016 1.391 . S
C2015 C2014 1.386 . S
C2015 C2019 1.393 . S
C2016 H2005 0.950 . S
C2016 C2014 1.391 . S
C2016 C2017 1.400 . S
C2017 C2011 1.491 1_455 S
C2017 C2016 1.400 . S
C2017 C2018 1.398 . S
C2018 H2006 0.950 . S
C2018 C2017 1.398 . S
C2018 C2019 1.391 . S
C2019 H2007 0.950 . S
C2019 C2015 1.393 . S
C2019 C2018 1.391 . S
H2020 C2028 0.950 . S
H2021 C2033 0.944 1_455 S
H2022 C2030 0.950 . S
H2023 C2032 0.950 . S
H2024 C2034 0.950 . S
H2025 C2036 0.950 . S
H2026 C2038 0.950 . S
H2027 C2039 0.950 . S
C2028 H2020 0.950 . S
C2028 C2029 1.386 . S
C2028 C2030 1.391 . S
C2029 C2028 1.386 . S
C2029 C2033 1.393 . S
C2030 H2022 0.950 . S
C2030 C2028 1.391 . S
C2030 C2031 1.400 . S
C2031 C2030 1.400 . S
C2031 C2032 1.398 . S
C2031 C2037 1.491 . S
C2032 H2023 0.950 . S
C2032 C2031 1.398 . S
C2032 C2033 1.391 . S
C2033 H2021 0.944 1_655 S
C2033 C2029 1.393 . S
C2033 C2032 1.391 . S
C2034 H2024 0.950 . S
C2034 C2035 1.386 . S
C2034 C2036 1.391 . S
C2035 C2034 1.386 . S
C2035 C2039 1.393 . S
C2036 H2025 0.950 . S
C2036 C2034 1.391 . S
C2036 C2037 1.400 . S
C2037 C2031 1.491 . S
C2037 C2036 1.400 . S
C2037 C2038 1.398 . S
C2038 H2026 0.950 . S
C2038 C2037 1.398 . S
C2038 C2039 1.391 . S
C2039 H2027 0.950 . S
C2039 C2035 1.393 . S
C2039 C2038 1.391 . S
H2040 C2048 0.950 . S
H2041 C2053 0.950 . S
H2042 C2050 0.950 . S
H2043 C2052 0.950 . S
H2044 C2054 0.950 . S
H2045 C2056 0.950 . S
H2046 C2058 0.950 . S
H2047 C2059 0.950 . S
C2048 H2040 0.950 . S
C2048 C2049 1.386 . S
C2048 C2050 1.391 . S
C2049 C2048 1.386 . S
C2049 C2053 1.393 . S
C2050 H2042 0.950 . S
C2050 C2048 1.391 . S
C2050 C2051 1.400 . S
C2051 C2050 1.400 . S
C2051 C2052 1.398 . S
C2051 C2057 1.491 1_455 S
C2052 H2043 0.950 . S
C2052 C2051 1.398 . S
C2052 C2053 1.391 . S
C2053 H2041 0.950 . S
C2053 C2049 1.393 . S
C2053 C2052 1.391 . S
C2054 H2044 0.950 . S
C2054 C2055 1.386 . S
C2054 C2056 1.391 . S
C2055 C2054 1.386 . S
C2055 C2059 1.393 . S
C2056 H2045 0.950 . S
C2056 C2054 1.391 . S
C2056 C2057 1.400 . S
C2057 C2051 1.491 1_655 S
C2057 C2056 1.400 . S
C2057 C2058 1.398 . S
C2058 H2046 0.950 . S
C2058 C2057 1.398 . S
C2058 C2059 1.391 . S
C2059 H2047 0.950 . S
C2059 C2055 1.393 . S
C2059 C2058 1.391 . S
H2060 C2068 0.950 . S
H2061 C2073 0.950 . S
H2062 C2070 0.950 . S
H2063 C2072 0.950 . S
H2064 C2074 0.950 . S
H2065 C2076 0.950 . S
H2066 C2078 0.950 . S
H2067 C2079 0.950 . S
C2068 H2060 0.950 . S
C2068 C2069 1.386 . S
C2068 C2070 1.391 . S
C2069 C2068 1.386 . S
C2069 C2073 1.393 . S
C2070 H2062 0.950 . S
C2070 C2068 1.391 . S
C2070 C2071 1.400 . S
C2071 C2070 1.400 . S
C2071 C2072 1.398 . S
C2071 C2077 1.491 . S
C2072 H2063 0.950 . S
C2072 C2071 1.398 . S
C2072 C2073 1.391 . S
C2073 H2061 0.950 . S
C2073 C2069 1.393 . S
C2073 C2072 1.391 . S
C2074 H2064 0.950 . S
C2074 C2075 1.386 . S
C2074 C2076 1.391 . S
C2075 C2074 1.386 . S
C2075 C2079 1.393 . S
C2076 H2065 0.950 . S
C2076 C2074 1.391 . S
C2076 C2077 1.400 . S
C2077 C2071 1.491 . S
C2077 C2076 1.400 . S
C2077 C2078 1.398 . S
C2078 H2066 0.950 . S
C2078 C2077 1.398 . S
C2078 C2079 1.391 . S
C2079 H2067 0.950 . S
C2079 C2075 1.393 . S
C2079 C2078 1.391 . S
H2080 C2088 0.950 . S
H2081 C2093 0.950 . S
H2082 C2090 0.950 . S
H2083 C2092 0.950 . S
H2084 C2094 0.950 . S
H2085 C2096 0.950 . S
H2086 C2098 0.950 . S
H2087 C2099 0.950 . S
C2088 H2080 0.950 . S
C2088 C2089 1.386 . S
C2088 C2090 1.391 . S
C2089 C2088 1.386 . S
C2089 C2093 1.393 1_545 S
C2090 H2082 0.950 . S
C2090 C2088 1.391 . S
C2090 C2091 1.400 . S
C2091 C2090 1.400 . S
C2091 C2092 1.398 1_545 S
C2091 C2097 1.491 1_645 S
C2092 H2083 0.950 . S
C2092 C2091 1.398 1_565 S
C2092 C2093 1.391 . S
C2093 H2081 0.950 . S
C2093 C2089 1.393 1_565 S
C2093 C2092 1.391 . S
C2094 H2084 0.950 . S
C2094 C2095 1.386 . S
C2094 C2096 1.391 . S
C2095 C2094 1.386 . S
C2095 C2099 1.393 1_565 S
C2096 H2085 0.950 . S
C2096 C2094 1.391 . S
C2096 C2097 1.400 . S
C2097 C2091 1.491 1_465 S
C2097 C2096 1.400 . S
C2097 C2098 1.398 1_565 S
C2098 H2086 0.950 . S
C2098 C2097 1.398 1_545 S
C2098 C2099 1.391 . S
C2099 H2087 0.950 . S
C2099 C2095 1.393 1_545 S
C2099 C2098 1.391 . S
H2100 C2108 0.946 1_655 S
H2101 C2113 0.950 . S
H2102 C2110 0.950 . S
H2103 C2112 0.950 . S
H2104 C2114 0.950 . S
H2105 C2116 0.950 . S
H2106 C2118 0.950 . S
H2107 C2119 0.950 . S
C2108 H2100 0.946 1_455 S
C2108 C2109 1.386 . S
C2108 C2110 1.391 . S
C2109 C2108 1.386 . S
C2109 C2113 1.393 . S
C2110 H2102 0.950 . S
C2110 C2108 1.391 . S
C2110 C2111 1.400 . S
C2111 C2110 1.400 . S
C2111 C2112 1.398 . S
C2111 C2117 1.491 . S
C2112 H2103 0.950 . S
C2112 C2111 1.398 . S
C2112 C2113 1.391 . S
C2113 H2101 0.950 . S
C2113 C2109 1.393 . S
C2113 C2112 1.391 . S
C2114 H2104 0.950 . S
C2114 C2115 1.386 . S
C2114 C2116 1.391 . S
C2115 C2114 1.386 . S
C2115 C2119 1.393 . S
C2116 H2105 0.950 . S
C2116 C2114 1.391 . S
C2116 C2117 1.400 . S
C2117 C2111 1.491 . S
C2117 C2116 1.400 . S
C2117 C2118 1.398 . S
C2118 H2106 0.950 . S
C2118 C2117 1.398 . S
C2118 C2119 1.391 . S
C2119 H2107 0.950 . S
C2119 C2115 1.393 . S
C2119 C2118 1.391 . S
H2120 C2128 0.950 . S
H2121 C2133 0.950 . S
H2122 C2130 0.950 . S
H2123 C2132 0.950 . S
H2124 C2134 0.950 . S
H2125 C2136 0.950 . S
H2126 C2138 0.950 . S
H2127 C2139 0.950 . S
C2128 H2120 0.950 . S
C2128 C2129 1.386 . S
C2128 C2130 1.391 . S
C2129 C2128 1.386 . S
C2129 C2133 1.393 . S
C2130 H2122 0.950 . S
C2130 C2128 1.391 . S
C2130 C2131 1.400 . S
C2131 C2130 1.400 . S
C2131 C2132 1.398 . S
C2131 C2137 1.491 1_655 S
C2132 H2123 0.950 . S
C2132 C2131 1.398 . S
C2132 C2133 1.391 . S
C2133 H2121 0.950 . S
C2133 C2129 1.393 . S
C2133 C2132 1.391 . S
C2134 H2124 0.950 . S
C2134 C2135 1.386 . S
C2134 C2136 1.391 . S
C2135 C2134 1.386 . S
C2135 C2139 1.393 . S
C2136 H2125 0.950 . S
C2136 C2134 1.391 . S
C2136 C2137 1.400 . S
C2137 C2131 1.491 1_455 S
C2137 C2136 1.400 . S
C2137 C2138 1.398 . S
C2138 H2126 0.950 . S
C2138 C2137 1.398 . S
C2138 C2139 1.391 . S
C2139 H2127 0.950 . S
C2139 C2135 1.393 . S
C2139 C2138 1.391 . S
H2140 C2148 0.950 . S
H2141 C2153 0.950 . S
H2142 C2150 0.954 . S
H2143 C2152 0.950 . S
H2144 C2154 0.950 . S
H2145 C2156 0.950 . S
H2146 C2158 0.950 . S
H2147 C2159 0.950 . S
C2148 H2140 0.950 . S
C2148 C2149 1.386 . S
C2148 C2150 1.389 1_545 S
C2149 C2148 1.386 . S
C2149 C2153 1.393 . S
C2150 H2142 0.954 . S
C2150 C2148 1.389 1_565 S
C2150 C2151 1.399 1_565 S
C2151 C2150 1.399 1_545 S
C2151 C2152 1.398 . S
C2151 C2157 1.491 1_545 S
C2152 H2143 0.950 . S
C2152 C2151 1.398 . S
C2152 C2153 1.391 . S
C2153 H2141 0.950 . S
C2153 C2149 1.393 . S
C2153 C2152 1.391 . S
C2154 H2144 0.950 . S
C2154 C2155 1.390 . S
C2154 C2156 1.391 1_565 S
C2155 C2154 1.390 . S
C2155 C2159 1.398 . S
C2156 H2145 0.950 . S
C2156 C2154 1.391 1_545 S
C2156 C2157 1.400 1_545 S
C2157 C2151 1.491 1_565 S
C2157 C2156 1.400 1_565 S
C2157 C2158 1.398 . S
C2158 H2146 0.950 . S
C2158 C2157 1.398 . S
C2158 C2159 1.391 . S
C2159 H2147 0.950 . S
C2159 C2155 1.398 . S
C2159 C2158 1.391 . S
H2160 C2168 0.950 . S
H2161 C2173 0.950 . S
H2162 C2170 0.950 . S
H2163 C2172 0.950 . S
H2164 C2174 0.950 . S
H2165 C2176 0.950 . S
H2166 C2178 0.950 . S
H2167 C2179 0.950 . S
C2168 H2160 0.950 . S
C2168 C2169 1.386 1_565 S
C2168 C2170 1.391 . S
C2169 C2168 1.386 1_545 S
C2169 C2173 1.393 . S
C2170 H2162 0.950 . S
C2170 C2168 1.391 . S
C2170 C2171 1.400 1_565 S
C2171 C2170 1.400 1_545 S
C2171 C2172 1.398 . S
C2171 C2177 1.491 1_645 S
C2172 H2163 0.950 . S
C2172 C2171 1.398 . S
C2172 C2173 1.391 . S
C2173 H2161 0.950 . S
C2173 C2169 1.393 . S
C2173 C2172 1.391 . S
C2174 H2164 0.950 . S
C2174 C2175 1.386 1_545 S
C2174 C2176 1.391 . S
C2175 C2174 1.386 1_565 S
C2175 C2179 1.393 . S
C2176 H2165 0.950 . S
C2176 C2174 1.391 . S
C2176 C2177 1.400 1_545 S
C2177 C2171 1.491 1_465 S
C2177 C2176 1.400 1_565 S
C2177 C2178 1.398 . S
C2178 H2166 0.950 . S
C2178 C2177 1.398 . S
C2178 C2179 1.391 . S
C2179 H2167 0.950 . S
C2179 C2175 1.393 . S
C2179 C2178 1.391 . S
H2180 C2188 0.950 1_455 S
H2181 C2193 0.950 . S
H2182 C2190 0.950 . S
H2183 C2192 0.950 . S
H2184 C2194 0.950 . S
H2185 C2196 0.950 . S
H2186 C2198 0.950 . S
H2187 C2199 0.950 . S
C2188 H2180 0.950 1_655 S
C2188 C2189 1.386 . S
C2188 C2190 1.391 . S
C2189 C2188 1.386 . S
C2189 C2193 1.393 . S
C2190 H2182 0.950 . S
C2190 C2188 1.391 . S
C2190 C2191 1.400 . S
C2191 C2190 1.400 . S
C2191 C2192 1.398 . S
C2191 C2197 1.491 . S
C2192 H2183 0.950 . S
C2192 C2191 1.398 . S
C2192 C2193 1.391 . S
C2193 H2181 0.950 . S
C2193 C2189 1.393 . S
C2193 C2192 1.391 . S
C2194 H2184 0.950 . S
C2194 C2195 1.386 . S
C2194 C2196 1.391 . S
C2195 C2194 1.386 . S
C2195 C2199 1.393 . S
C2196 H2185 0.950 . S
C2196 C2194 1.391 . S
C2196 C2197 1.400 . S
C2197 C2191 1.491 . S
C2197 C2196 1.400 . S
C2197 C2198 1.398 . S
C2198 H2186 0.950 . S
C2198 C2197 1.398 . S
C2198 C2199 1.391 . S
C2199 H2187 0.950 . S
C2199 C2195 1.393 . S
C2199 C2198 1.391 . S
H2200 C2208 0.950 . S
H2201 C2213 0.950 . S
H2202 C2210 0.950 . S
H2203 C2212 0.950 . S
H2204 C2214 0.950 . S
H2205 C2216 0.950 . S
H2206 C2218 0.950 . S
H2207 C2219 0.950 . S
C2208 H2200 0.950 . S
C2208 C2209 1.386 . S
C2208 C2210 1.391 . S
C2209 C2208 1.386 . S
C2209 C2213 1.393 . S
C2210 H2202 0.950 . S
C2210 C2208 1.391 . S
C2210 C2211 1.400 . S
C2211 C2210 1.400 . S
C2211 C2212 1.398 . S
C2211 C2217 1.491 1_455 S
C2212 H2203 0.950 . S
C2212 C2211 1.398 . S
C2212 C2213 1.391 . S
C2213 H2201 0.950 . S
C2213 C2209 1.393 . S
C2213 C2212 1.391 . S
C2214 H2204 0.950 . S
C2214 C2215 1.386 . S
C2214 C2216 1.391 . S
C2215 C2214 1.386 . S
C2215 C2219 1.393 . S
C2216 H2205 0.950 . S
C2216 C2214 1.391 . S
C2216 C2217 1.400 . S
C2217 C2211 1.491 1_655 S
C2217 C2216 1.400 . S
C2217 C2218 1.398 . S
C2218 H2206 0.950 . S
C2218 C2217 1.398 . S
C2218 C2219 1.391 . S
C2219 H2207 0.950 . S
C2219 C2215 1.393 . S
C2219 C2218 1.391 . S
H2220 C2228 0.950 . S
H2221 C2233 0.950 . S
H2222 C2230 0.950 . S
H2223 C2232 0.950 . S
H2224 C2234 0.950 . S
H2225 C2236 0.950 . S
H2226 C2238 0.950 . S
H2227 C2239 0.953 . S
C2228 H2220 0.950 . S
C2228 C2229 1.386 . S
C2228 C2230 1.391 . S
C2229 C2228 1.386 . S
C2229 C2233 1.393 1_565 S
C2230 H2222 0.950 . S
C2230 C2228 1.391 . S
C2230 C2231 1.400 . S
C2231 C2230 1.400 . S
C2231 C2232 1.398 1_565 S
C2231 C2237 1.491 1_565 S
C2232 H2223 0.950 . S
C2232 C2231 1.398 1_545 S
C2232 C2233 1.391 . S
C2233 H2221 0.950 . S
C2233 C2229 1.393 1_545 S
C2233 C2232 1.391 . S
C2234 H2224 0.950 . S
C2234 C2235 1.385 . S
C2234 C2236 1.391 . S
C2235 C2234 1.385 . S
C2235 C2239 1.393 1_545 S
C2236 H2225 0.950 . S
C2236 C2234 1.391 . S
C2236 C2237 1.400 . S
C2237 C2231 1.491 1_545 S
C2237 C2236 1.400 . S
C2237 C2238 1.398 1_545 S
C2238 H2226 0.950 . S
C2238 C2237 1.398 1_565 S
C2238 C2239 1.391 . S
C2239 H2227 0.953 . S
C2239 C2235 1.393 1_565 S
C2239 C2238 1.391 . S
H2240 C2248 0.950 . S
H2241 C2253 0.950 . S
H2242 C2250 0.950 . S
H2243 C2252 0.950 . S
H2244 C2254 0.950 . S
H2245 C2256 0.950 . S
H2246 C2258 0.950 . S
H2247 C2259 0.950 . S
C2248 H2240 0.950 . S
C2248 C2249 1.386 . S
C2248 C2250 1.391 . S
C2249 C2248 1.386 . S
C2249 C2253 1.393 1_655 S
C2250 H2242 0.950 . S
C2250 C2248 1.391 . S
C2250 C2251 1.400 . S
C2251 C2250 1.400 . S
C2251 C2252 1.398 1_655 S
C2251 C2257 1.491 1_654 S
C2252 H2243 0.950 . S
C2252 C2251 1.398 1_455 S
C2252 C2253 1.391 . S
C2253 H2241 0.950 . S
C2253 C2249 1.393 1_455 S
C2253 C2252 1.391 . S
C2254 H2244 0.950 . S
C2254 C2255 1.386 . S
C2254 C2256 1.391 . S
C2255 C2254 1.386 . S
C2255 C2259 1.393 1_455 S
C2256 H2245 0.950 . S
C2256 C2254 1.391 . S
C2256 C2257 1.400 . S
C2257 C2251 1.491 1_456 S
C2257 C2256 1.400 . S
C2257 C2258 1.398 1_455 S
C2258 H2246 0.950 . S
C2258 C2257 1.398 1_655 S
C2258 C2259 1.391 . S
C2259 H2247 0.950 . S
C2259 C2255 1.393 1_655 S
C2259 C2258 1.391 . S
H2260 C2268 0.950 . S
H2261 C2273 0.950 . S
H2262 C2270 0.950 . S
H2263 C2272 0.950 . S
H2264 C2274 0.950 . S
H2265 C2276 0.950 . S
H2266 C2278 0.950 . S
H2267 C2279 0.950 . S
C2268 H2260 0.950 . S
C2268 C2269 1.386 . S
C2268 C2270 1.391 . S
C2269 C2268 1.386 . S
C2269 C2273 1.393 . S
C2270 H2262 0.950 . S
C2270 C2268 1.391 . S
C2270 C2271 1.400 . S
C2271 C2270 1.400 . S
C2271 C2272 1.398 . S
C2271 C2277 1.491 1_556 S
C2272 H2263 0.950 . S
C2272 C2271 1.398 . S
C2272 C2273 1.391 . S
C2273 H2261 0.950 . S
C2273 C2269 1.393 . S
C2273 C2272 1.391 . S
C2274 H2264 0.950 . S
C2274 C2275 1.386 . S
C2274 C2276 1.391 . S
C2275 C2274 1.386 . S
C2275 C2279 1.393 . S
C2276 H2265 0.950 . S
C2276 C2274 1.391 . S
C2276 C2277 1.400 . S
C2277 C2271 1.491 1_554 S
C2277 C2276 1.400 . S
C2277 C2278 1.398 . S
C2278 H2266 0.950 . S
C2278 C2277 1.398 . S
C2278 C2279 1.391 . S
C2279 H2267 0.950 . S
C2279 C2275 1.393 . S
C2279 C2278 1.391 . S
H2280 C2288 0.950 . S
H2281 C2293 0.950 . S
H2282 C2290 0.950 . S
H2283 C2292 0.950 . S
H2284 C2294 0.950 . S
H2285 C2296 0.950 . S
H2286 C2298 0.950 . S
H2287 C2299 0.950 . S
C2288 H2280 0.950 . S
C2288 C2289 1.386 1_655 S
C2288 C2290 1.391 . S
C2289 C2288 1.386 1_455 S
C2289 C2293 1.393 . S
C2290 H2282 0.950 . S
C2290 C2288 1.391 . S
C2290 C2291 1.400 1_655 S
C2291 C2290 1.400 1_455 S
C2291 C2292 1.398 . S
C2291 C2297 1.491 1_455 S
C2292 H2283 0.950 . S
C2292 C2291 1.398 . S
C2292 C2293 1.391 . S
C2293 H2281 0.950 . S
C2293 C2289 1.393 . S
C2293 C2292 1.391 . S
C2294 H2284 0.950 . S
C2294 C2295 1.386 1_455 S
C2294 C2296 1.391 . S
C2295 C2294 1.386 1_655 S
C2295 C2299 1.393 . S
C2296 H2285 0.950 . S
C2296 C2294 1.391 . S
C2296 C2297 1.400 1_455 S
C2297 C2291 1.491 1_655 S
C2297 C2296 1.400 1_655 S
C2297 C2298 1.398 . S
C2298 H2286 0.950 . S
C2298 C2297 1.398 . S
C2298 C2299 1.391 . S
C2299 H2287 0.950 . S
C2299 C2295 1.393 . S
C2299 C2298 1.391 . S
H2300 C2308 0.950 . S
H2301 C2313 0.950 . S
H2302 C2310 0.950 . S
H2303 C2312 0.950 . S
H2304 C2314 0.950 . S
H2305 C2316 0.950 . S
H2306 C2318 0.950 . S
H2307 C2319 0.950 . S
C2308 H2300 0.950 . S
C2308 C2309 1.386 . S
C2308 C2310 1.391 . S
C2309 C2308 1.386 . S
C2309 C2313 1.393 . S
C2310 H2302 0.950 . S
C2310 C2308 1.391 . S
C2310 C2311 1.400 . S
C2311 C2310 1.400 . S
C2311 C2312 1.398 . S
C2311 C2317 1.491 . S
C2312 H2303 0.950 . S
C2312 C2311 1.398 . S
C2312 C2313 1.391 . S
C2313 H2301 0.950 . S
C2313 C2309 1.393 . S
C2313 C2312 1.391 . S
C2314 H2304 0.950 . S
C2314 C2315 1.386 . S
C2314 C2316 1.391 . S
C2315 C2314 1.386 . S
C2315 C2319 1.393 . S
C2316 H2305 0.950 . S
C2316 C2314 1.391 . S
C2316 C2317 1.400 . S
C2317 C2311 1.491 . S
C2317 C2316 1.400 . S
C2317 C2318 1.398 . S
C2318 H2306 0.950 . S
C2318 C2317 1.398 . S
C2318 C2319 1.391 . S
C2319 H2307 0.950 . S
C2319 C2315 1.393 . S
C2319 C2318 1.391 . S
H2320 C2328 0.950 . S
H2321 C2333 0.950 . S
H2322 C2330 0.950 . S
H2323 C2332 0.950 . S
H2324 C2334 0.950 . S
H2325 C2336 0.950 . S
H2326 C2338 0.950 . S
H2327 C2339 0.950 . S
C2328 H2320 0.950 . S
C2328 C2329 1.386 . S
C2328 C2330 1.391 . S
C2329 C2328 1.386 . S
C2329 C2333 1.393 . S
C2330 H2322 0.950 . S
C2330 C2328 1.391 . S
C2330 C2331 1.400 . S
C2331 C2330 1.400 . S
C2331 C2332 1.398 . S
C2331 C2337 1.491 1_556 S
C2332 H2323 0.950 . S
C2332 C2331 1.398 . S
C2332 C2333 1.391 . S
C2333 H2321 0.950 . S
C2333 C2329 1.393 . S
C2333 C2332 1.391 . S
C2334 H2324 0.950 . S
C2334 C2335 1.386 . S
C2334 C2336 1.391 . S
C2335 C2334 1.386 . S
C2335 C2339 1.393 . S
C2336 H2325 0.950 . S
C2336 C2334 1.391 . S
C2336 C2337 1.400 . S
C2337 C2331 1.491 1_554 S
C2337 C2336 1.400 . S
C2337 C2338 1.398 . S
C2338 H2326 0.950 . S
C2338 C2337 1.398 . S
C2338 C2339 1.391 . S
C2339 H2327 0.950 . S
C2339 C2335 1.393 . S
C2339 C2338 1.391 . S
H2340 C2348 0.950 . S
H2341 C2353 0.950 . S
H2342 C2350 0.950 . S
H2343 C2352 0.950 . S
H2344 C2354 0.950 . S
H2345 C2356 0.950 . S
H2346 C2358 0.950 . S
H2347 C2359 0.950 . S
C2348 H2340 0.950 . S
C2348 C2349 1.386 . S
C2348 C2350 1.391 . S
C2349 C2348 1.386 . S
C2349 C2353 1.393 1_455 S
C2350 H2342 0.950 . S
C2350 C2348 1.391 . S
C2350 C2351 1.400 . S
C2351 C2350 1.400 . S
C2351 C2352 1.398 1_455 S
C2351 C2357 1.490 1_455 S
C2352 H2343 0.950 . S
C2352 C2351 1.398 1_655 S
C2352 C2353 1.391 . S
C2353 H2341 0.950 . S
C2353 C2349 1.393 1_655 S
C2353 C2352 1.391 . S
C2354 H2344 0.950 . S
C2354 C2355 1.386 . S
C2354 C2356 1.391 . S
C2355 C2354 1.386 . S
C2355 C2359 1.393 1_655 S
C2356 H2345 0.950 . S
C2356 C2354 1.391 . S
C2356 C2357 1.407 . S
C2357 C2351 1.490 1_655 S
C2357 C2356 1.407 . S
C2357 C2358 1.392 1_655 S
C2358 H2346 0.950 . S
C2358 C2357 1.392 1_455 S
C2358 C2359 1.391 . S
C2359 H2347 0.950 . S
C2359 C2355 1.393 1_455 S
C2359 C2358 1.391 . S
H2360 C2368 0.950 . S
H2361 C2373 0.950 . S
H2362 C2370 0.950 . S
H2363 C2372 0.950 . S
H2364 C2374 0.950 . S
H2365 C2376 0.950 . S
H2366 C2378 0.950 . S
H2367 C2379 0.950 . S
C2368 H2360 0.950 . S
C2368 C2369 1.386 . S
C2368 C2370 1.391 . S
C2369 C2368 1.386 . S
C2369 C2373 1.393 . S
C2370 H2362 0.950 . S
C2370 C2368 1.391 . S
C2370 C2371 1.400 . S
C2371 C2370 1.400 . S
C2371 C2372 1.398 . S
C2371 C2377 1.491 . S
C2372 H2363 0.950 . S
C2372 C2371 1.398 . S
C2372 C2373 1.391 . S
C2373 H2361 0.950 . S
C2373 C2369 1.393 . S
C2373 C2372 1.391 . S
C2374 H2364 0.950 . S
C2374 C2375 1.386 . S
C2374 C2376 1.391 . S
C2375 C2374 1.386 . S
C2375 C2379 1.393 . S
C2376 H2365 0.950 . S
C2376 C2374 1.391 . S
C2376 C2377 1.400 . S
C2377 C2371 1.491 . S
C2377 C2376 1.400 . S
C2377 C2378 1.398 . S
C2378 H2366 0.950 . S
C2378 C2377 1.398 . S
C2378 C2379 1.391 . S
C2379 H2367 0.950 . S
C2379 C2375 1.393 . S
C2379 C2378 1.391 . S
H2380 C2388 0.950 . S
H2381 C2393 0.950 . S
H2382 C2390 0.950 . S
H2383 C2392 0.950 . S
H2384 C2394 0.950 . S
H2385 C2396 0.950 . S
H2386 C2398 0.950 . S
H2387 C2399 0.950 . S
C2388 H2380 0.950 . S
C2388 C2389 1.407 1_455 S
C2388 C2390 1.392 . S
C2389 C2388 1.407 1_655 S
C2389 C2393 1.370 1_565 S
C2390 H2382 0.950 . S
C2390 C2388 1.392 . S
C2390 C2391 1.406 1_455 S
C2391 C2390 1.406 1_655 S
C2391 C2392 1.393 1_565 S
C2391 C2397 1.491 1_655 S
C2392 H2383 0.950 . S
C2392 C2391 1.393 1_545 S
C2392 C2393 1.391 . S
C2393 H2381 0.950 . S
C2393 C2389 1.370 1_545 S
C2393 C2392 1.391 . S
C2394 H2384 0.950 . S
C2394 C2395 1.395 1_655 S
C2394 C2396 1.392 . S
C2395 C2394 1.395 1_455 S
C2395 C2399 1.383 1_545 S
C2396 H2385 0.950 . S
C2396 C2394 1.392 . S
C2396 C2397 1.406 1_645 S
C2397 C2391 1.491 1_455 S
C2397 C2396 1.406 1_465 S
C2397 C2398 1.393 . S
C2398 H2386 0.950 . S
C2398 C2397 1.393 . S
C2398 C2399 1.391 . S
C2399 H2387 0.950 . S
C2399 C2395 1.383 1_565 S
C2399 C2398 1.391 . S
H2400 C2408 0.950 . S
H2401 C2413 0.950 . S
H2402 C2410 0.950 . S
H2403 C2412 0.950 . S
H2404 C2414 0.950 . S
H2405 C2416 0.950 . S
H2406 C2418 0.950 . S
H2407 C2419 0.950 . S
C2408 H2400 0.950 . S
C2408 C2409 1.386 . S
C2408 C2410 1.391 . S
C2409 C2408 1.386 . S
C2409 C2413 1.393 . S
C2410 H2402 0.950 . S
C2410 C2408 1.391 . S
C2410 C2411 1.400 . S
C2411 C2410 1.400 . S
C2411 C2412 1.398 . S
C2411 C2417 1.491 . S
C2412 H2403 0.950 . S
C2412 C2411 1.398 . S
C2412 C2413 1.391 . S
C2413 H2401 0.950 . S
C2413 C2409 1.393 . S
C2413 C2412 1.391 . S
C2414 H2404 0.950 . S
C2414 C2415 1.386 . S
C2414 C2416 1.391 . S
C2415 C2414 1.386 . S
C2415 C2419 1.393 . S
C2416 H2405 0.950 . S
C2416 C2414 1.391 . S
C2416 C2417 1.400 . S
C2417 C2411 1.491 . S
C2417 C2416 1.400 . S
C2417 C2418 1.398 . S
C2418 H2406 0.950 . S
C2418 C2417 1.398 . S
C2418 C2419 1.391 . S
C2419 H2407 0.950 . S
C2419 C2415 1.393 . S
C2419 C2418 1.391 . S
H2420 C2428 0.950 . S
H2421 C2433 0.950 . S
H2422 C2430 0.950 . S
H2423 C2432 0.950 . S
H2424 C2434 0.950 . S
H2425 C2436 0.950 . S
H2426 C2438 0.950 . S
H2427 C2439 0.950 . S
C2428 H2420 0.950 . S
C2428 C2429 1.386 1_565 S
C2428 C2430 1.391 . S
C2429 C2428 1.386 1_545 S
C2429 C2433 1.392 . S
C2430 H2422 0.950 . S
C2430 C2428 1.391 . S
C2430 C2431 1.396 . S
C2431 C2430 1.396 . S
C2431 C2432 1.402 1_565 S
C2431 C2437 1.491 1_565 S
C2432 H2423 0.950 . S
C2432 C2431 1.402 1_545 S
C2432 C2433 1.391 . S
C2433 H2421 0.950 . S
C2433 C2429 1.392 . S
C2433 C2432 1.391 . S
C2434 H2424 0.950 . S
C2434 C2435 1.386 . S
C2434 C2436 1.391 . S
C2435 C2434 1.386 . S
C2435 C2439 1.392 1_545 S
C2436 H2425 0.950 . S
C2436 C2434 1.391 . S
C2436 C2437 1.406 . S
C2437 C2431 1.491 1_545 S
C2437 C2436 1.406 . S
C2437 C2438 1.393 1_545 S
C2438 H2426 0.950 . S
C2438 C2437 1.393 1_565 S
C2438 C2439 1.391 . S
C2439 H2427 0.950 . S
C2439 C2435 1.392 1_565 S
C2439 C2438 1.391 . S
H2440 C2448 0.950 . S
H2441 C2453 0.950 . S
H2442 C2450 0.950 . S
H2443 C2452 0.950 . S
H2444 C2454 0.950 . S
H2445 C2456 0.950 . S
H2446 C2458 0.950 . S
H2447 C2459 0.950 . S
C2448 H2440 0.950 . S
C2448 C2449 1.386 . S
C2448 C2450 1.391 . S
C2449 C2448 1.386 . S
C2449 C2453 1.393 . S
C2450 H2442 0.950 . S
C2450 C2448 1.391 . S
C2450 C2451 1.400 . S
C2451 C2450 1.400 . S
C2451 C2452 1.398 . S
C2451 C2457 1.491 . S
C2452 H2443 0.950 . S
C2452 C2451 1.398 . S
C2452 C2453 1.391 . S
C2453 H2441 0.950 . S
C2453 C2449 1.393 . S
C2453 C2452 1.391 . S
C2454 H2444 0.950 . S
C2454 C2455 1.386 . S
C2454 C2456 1.391 . S
C2455 C2454 1.386 . S
C2455 C2459 1.393 . S
C2456 H2445 0.950 . S
C2456 C2454 1.391 . S
C2456 C2457 1.400 . S
C2457 C2451 1.491 . S
C2457 C2456 1.400 . S
C2457 C2458 1.398 . S
C2458 H2446 0.950 . S
C2458 C2457 1.398 . S
C2458 C2459 1.391 . S
C2459 H2447 0.950 . S
C2459 C2455 1.393 . S
C2459 C2458 1.391 . S
H2460 C2468 0.950 . S
H2461 C2473 0.950 . S
H2462 C2470 0.950 . S
H2463 C2472 0.950 . S
H2464 C2474 0.950 . S
H2465 C2476 0.950 . S
H2466 C2478 0.950 . S
H2467 C2479 0.950 . S
C2468 H2460 0.950 . S
C2468 C2469 1.387 . S
C2468 C2470 1.391 . S
C2469 C2468 1.387 . S
C2469 C2473 1.391 1_545 S
C2470 H2462 0.950 . S
C2470 C2468 1.391 . S
C2470 C2471 1.401 . S
C2471 C2470 1.401 . S
C2471 C2472 1.397 1_545 S
C2471 C2477 1.490 1_545 S
C2472 H2463 0.950 . S
C2472 C2471 1.397 1_565 S
C2472 C2473 1.391 . S
C2473 H2461 0.950 . S
C2473 C2469 1.391 1_565 S
C2473 C2472 1.391 . S
C2474 H2464 0.950 . S
C2474 C2475 1.392 . S
C2474 C2476 1.391 . S
C2475 C2474 1.392 . S
C2475 C2479 1.387 1_565 S
C2476 H2465 0.950 . S
C2476 C2474 1.391 . S
C2476 C2477 1.406 . S
C2477 C2471 1.490 1_565 S
C2477 C2476 1.406 . S
C2477 C2478 1.393 1_565 S
C2478 H2466 0.950 . S
C2478 C2477 1.393 1_545 S
C2478 C2479 1.391 . S
C2479 H2467 0.950 . S
C2479 C2475 1.387 1_545 S
C2479 C2478 1.391 . S
H2480 C2488 0.950 . S
H2481 C2493 0.950 . S
H2482 C2490 0.950 . S
H2483 C2492 0.950 . S
H2484 C2494 0.950 . S
H2485 C2496 0.950 . S
H2486 C2498 0.950 . S
H2487 C2499 0.950 . S
C2488 H2480 0.950 . S
C2488 C2489 1.386 . S
C2488 C2490 1.391 . S
C2489 C2488 1.386 . S
C2489 C2493 1.393 . S
C2490 H2482 0.950 . S
C2490 C2488 1.391 . S
C2490 C2491 1.400 . S
C2491 C2490 1.400 . S
C2491 C2492 1.398 . S
C2491 C2497 1.491 . S
C2492 H2483 0.950 . S
C2492 C2491 1.398 . S
C2492 C2493 1.391 . S
C2493 H2481 0.950 . S
C2493 C2489 1.393 . S
C2493 C2492 1.391 . S
C2494 H2484 0.950 . S
C2494 C2495 1.386 . S
C2494 C2496 1.391 . S
C2495 C2494 1.386 . S
C2495 C2499 1.393 . S
C2496 H2485 0.950 . S
C2496 C2494 1.391 . S
C2496 C2497 1.400 . S
C2497 C2491 1.491 . S
C2497 C2496 1.400 . S
C2497 C2498 1.398 . S
C2498 H2486 0.950 . S
C2498 C2497 1.398 . S
C2498 C2499 1.391 . S
C2499 H2487 0.950 . S
C2499 C2495 1.393 . S
C2499 C2498 1.391 . S
H2500 C2508 0.950 . S
H2501 C2513 0.950 . S
H2502 C2510 0.950 . S
H2503 C2512 0.950 . S
H2504 C2514 0.950 . S
H2505 C2516 0.950 . S
H2506 C2518 0.950 . S
H2507 C2519 0.950 . S
C2508 H2500 0.950 . S
C2508 C2509 1.386 . S
C2508 C2510 1.391 . S
C2509 C2508 1.386 . S
C2509 C2513 1.393 . S
C2510 H2502 0.950 . S
C2510 C2508 1.391 . S
C2510 C2511 1.400 . S
C2511 C2510 1.400 . S
C2511 C2512 1.398 . S
C2511 C2517 1.491 . S
C2512 H2503 0.950 . S
C2512 C2511 1.398 . S
C2512 C2513 1.391 . S
C2513 H2501 0.950 . S
C2513 C2509 1.393 . S
C2513 C2512 1.391 . S
C2514 H2504 0.950 . S
C2514 C2515 1.386 . S
C2514 C2516 1.391 . S
C2515 C2514 1.386 . S
C2515 C2519 1.393 . S
C2516 H2505 0.950 . S
C2516 C2514 1.391 . S
C2516 C2517 1.400 . S
C2517 C2511 1.491 . S
C2517 C2516 1.400 . S
C2517 C2518 1.398 . S
C2518 H2506 0.950 . S
C2518 C2517 1.398 . S
C2518 C2519 1.391 . S
C2519 H2507 0.950 . S
C2519 C2515 1.393 . S
C2519 C2518 1.391 . S
H2520 C2528 0.950 . S
H2521 C2533 0.950 . S
H2522 C2530 0.950 . S
H2523 C2532 0.950 . S
H2524 C2534 0.950 . S
H2525 C2536 0.950 . S
H2526 C2538 0.950 . S
H2527 C2539 0.950 . S
C2528 H2520 0.950 . S
C2528 C2529 1.386 . S
C2528 C2530 1.391 . S
C2529 C2528 1.386 . S
C2529 C2533 1.393 . S
C2530 H2522 0.950 . S
C2530 C2528 1.391 . S
C2530 C2531 1.400 . S
C2531 C2530 1.400 . S
C2531 C2532 1.398 . S
C2531 C2537 1.491 . S
C2532 H2523 0.950 . S
C2532 C2531 1.398 . S
C2532 C2533 1.391 . S
C2533 H2521 0.950 . S
C2533 C2529 1.393 . S
C2533 C2532 1.391 . S
C2534 H2524 0.950 . S
C2534 C2535 1.386 . S
C2534 C2536 1.391 . S
C2535 C2534 1.386 . S
C2535 C2539 1.393 . S
C2536 H2525 0.950 . S
C2536 C2534 1.391 . S
C2536 C2537 1.400 . S
C2537 C2531 1.491 . S
C2537 C2536 1.400 . S
C2537 C2538 1.398 . S
C2538 H2526 0.950 . S
C2538 C2537 1.398 . S
C2538 C2539 1.391 . S
C2539 H2527 0.950 . S
C2539 C2535 1.393 . S
C2539 C2538 1.391 . S
H2540 C2548 0.950 . S
H2541 C2553 0.950 . S
H2542 C2550 0.950 . S
H2543 C2552 0.950 . S
H2544 C2554 0.950 . S
H2545 C2556 0.950 . S
H2546 C2558 0.950 . S
H2547 C2559 0.950 . S
C2548 H2540 0.950 . S
C2548 C2549 1.385 . S
C2548 C2550 1.391 . S
C2549 C2548 1.385 . S
C2549 C2553 1.393 1_545 S
C2550 H2542 0.950 . S
C2550 C2548 1.391 . S
C2550 C2551 1.401 . S
C2551 C2550 1.401 . S
C2551 C2552 1.398 1_545 S
C2551 C2557 1.490 1_544 S
C2552 H2543 0.950 . S
C2552 C2551 1.398 1_565 S
C2552 C2553 1.391 . S
C2553 H2541 0.950 . S
C2553 C2549 1.393 1_565 S
C2553 C2552 1.391 . S
C2554 H2544 0.950 . S
C2554 C2555 1.392 . S
C2554 C2556 1.391 . S
C2555 C2554 1.392 . S
C2555 C2559 1.387 1_565 S
C2556 H2545 0.950 . S
C2556 C2554 1.391 . S
C2556 C2557 1.407 . S
C2557 C2551 1.490 1_566 S
C2557 C2556 1.407 . S
C2557 C2558 1.392 1_565 S
C2558 H2546 0.950 . S
C2558 C2557 1.392 1_545 S
C2558 C2559 1.391 . S
C2559 H2547 0.950 . S
C2559 C2555 1.387 1_545 S
C2559 C2558 1.391 . S
C649 C16 1.668 . S
C655 C516 1.667 . S
C669 C496 1.673 . S
C675 C36 1.665 . S
C689 C556 1.675 . S
C695 C56 1.669 . S
C709 C76 1.676 . S
C715 C536 1.675 . S
C729 C86 1.674 . S
C735 C586 1.675 . S
C749 C106 1.650 . S
C755 C566 1.644 . S
C769 C126 1.675 . S
C775 C626 1.667 . S
C789 C606 1.689 . S
C795 C146 1.690 . S
C809 C176 1.672 . S
C815 C356 1.664 . S
C829 C196 1.675 . S
C835 C336 1.676 . S
C849 C216 1.679 . S
C855 C396 1.681 . S
C869 C376 1.662 . S
C875 C236 1.654 . S
C889 C246 1.676 . S
C895 C426 1.670 . S
C909 C266 1.681 . S
C915 C406 1.682 . S
C929 C466 1.676 . S
C935 C286 1.675 . S
C949 C306 1.663 . S
C955 C446 1.658 . S
C969 C1 1.495 . S
C975 C61 1.499 . S
C989 C21 1.499 . S
C995 C41 1.504 . S
C1009 C149 1.499 . S
C1015 C89 1.494 . S
C1029 C129 1.501 . S
C1035 C109 1.506 . S
C1049 C161 1.500 1_545 S
C1055 C221 1.500 . S
C1069 C181 1.492 . S
C1075 C201 1.490 . S
C1089 C249 1.502 . S
C1095 C309 1.502 1_565 S
C1109 C289 1.498 . S
C1115 C269 1.502 . S
C1129 C321 1.505 . S
C1135 C381 1.501 . S
C1149 C341 1.505 . S
C1155 C361 1.507 . S
C1169 C469 1.496 . S
C1175 C409 1.493 . S
C1189 C429 1.495 . S
C1195 C449 1.497 . S
C1209 C541 1.494 . S
C1215 C481 1.494 1_545 S
C1229 C501 1.491 . S
C1235 C521 1.495 . S
C1249 C629 1.495 . S
C1255 C569 1.495 1_565 S
C1269 C609 1.490 . S
C1275 C589 1.492 . S
C1289 C26 1.509 . S
C1295 C6 1.510 . S
C1309 C46 1.499 . S
C1315 C66 1.501 . S
C1329 C116 1.517 . S
C1335 C96 1.515 . S
C1349 C156 1.497 . S
C1355 C136 1.496 . S
C1369 C166 1.506 . S
C1375 C186 1.512 . S
C1389 C206 1.507 . S
C1395 C226 1.513 . S
C1409 C276 1.528 . S
C1415 C256 1.533 . S
C1429 C296 1.539 . S
C1435 C316 1.546 . S
C1449 C326 1.505 . S
C1455 C346 1.507 . S
C1469 C386 1.487 . S
C1475 C366 1.487 . S
C1489 C416 1.491 . S
C1495 C436 1.490 . S
C1509 C456 1.504 . S
C1515 C476 1.502 . S
C1529 C486 1.538 . S
C1535 C506 1.544 . S
C1549 C526 1.507 . S
C1555 C546 1.512 . S
C1569 C596 1.535 . S
C1575 C576 1.543 . S
C1589 C616 1.532 . S
C1595 C636 1.540 . S
C1609 C8 1.959 . S
C1615 C19 1.959 . S
C1629 C28 1.973 . S
C1635 C39 1.973 1_655 S
C1649 C48 1.961 . S
C1655 C59 1.961 . S
C1669 C79 1.985 1_655 S
C1675 C68 1.985 . S
C1689 C88 1.985 . S
C1695 C99 1.985 . S
C1709 C119 1.957 . S
C1715 C108 1.957 1_455 S
C1729 C128 1.985 . S
C1735 C139 1.985 . S
C1749 C148 1.966 1_455 S
C1755 C159 1.966 . S
C1769 C179 1.959 . S
C1775 C168 1.959 . S
C1789 C188 1.978 . S
C1795 C199 1.978 1_655 S
C1809 C208 1.959 . S
C1815 C219 1.959 . S
C1829 C239 1.982 1_655 S
C1835 C228 1.982 . S
C1849 C248 1.966 . S
C1855 C259 1.966 . S
C1869 C279 1.977 . S
C1875 C268 1.977 1_455 S
C1889 C299 1.963 . S
C1895 C288 1.963 . S
C1909 C308 1.985 1_455 S
C1915 C319 1.985 . S
C1929 C328 1.971 . S
C1935 C339 1.971 . S
C1949 C359 1.977 . S
C1955 C348 1.977 1_455 S
C1969 C379 1.982 . S
C1975 C368 1.982 . S
C1989 C388 1.985 1_455 S
C1995 C399 1.985 . S
C2009 C419 1.958 . S
C2015 C408 1.958 . S
C2029 C439 1.968 1_655 S
C2035 C428 1.968 . S
C2049 C448 1.957 . S
C2055 C459 1.957 . S
C2069 C479 1.957 1_655 S
C2075 C468 1.957 . S
C2089 C499 1.974 . S
C2095 C488 1.974 . S
C2109 C508 1.978 1_455 S
C2115 C519 1.978 . S
C2129 C539 1.975 . S
C2135 C528 1.975 . S
C2149 C559 1.984 . S
C2155 C548 1.975 1_455 S
C2169 C579 1.971 . S
C2175 C568 1.971 . S
C2189 C599 1.974 1_655 S
C2195 C588 1.974 . S
C2209 C608 1.970 . S
C2215 C619 1.970 . S
C2229 C628 1.962 . S
C2235 C639 1.962 1_655 S
C2249 C9 1.527 1_655 S
C2255 C81 1.527 1_455 S
C2269 C581 1.525 . S
C2275 C29 1.525 . S
C2289 C281 1.519 1_455 S
C2295 C49 1.519 1_655 S
C2309 C69 1.520 . S
C2315 C461 1.520 . S
C2329 C101 1.513 . S
C2335 C509 1.513 . S
C2349 C121 1.515 1_455 S
C2355 C209 1.515 1_655 S
C2369 C141 1.529 . S
C2375 C389 1.529 . S
C2389 C169 1.533 1_665 S
C2395 C241 1.533 1_445 S
C2409 C421 1.513 . S
C2415 C189 1.513 . S
C2429 C621 1.532 1_545 S
C2435 C229 1.532 . S
C2449 C261 1.516 . S
C2455 C349 1.516 . S
C2469 C549 1.516 . S
C2475 C301 1.516 . S
C2489 C329 1.533 . S
C2495 C401 1.533 . S
C2509 C601 1.531 . S
C2515 C369 1.531 . S
C2529 C441 1.530 . S
C2535 C529 1.530 . S
C2549 C489 1.514 . S
C2555 C561 1.514 . S
