# Generated by pormake.
# Topology rhr, (4)-cn, num edge types: 1
# Building blocks:
#     Node 0, Type 0, BuildingBlock: NAWXER_clean_sbu_0, # of connection points: 4
#     Node 1, Type 0, BuildingBlock: NAWXER_clean_sbu_0, # of connection points: 4
#     Node 2, Type 0, BuildingBlock: NAWXER_clean_sbu_0, # of connection points: 4
#     Node 3, Type 0, BuildingBlock: NAWXER_clean_sbu_0, # of connection points: 4
#     Node 4, Type 0, BuildingBlock: NAWXER_clean_sbu_0, # of connection points: 4
#     Node 5, Type 0, BuildingBlock: NAWXER_clean_sbu_0, # of connection points: 4
#     Node 6, Type 0, BuildingBlock: NAWXER_clean_sbu_0, # of connection points: 4
#     Node 7, Type 0, BuildingBlock: NAWXER_clean_sbu_0, # of connection points: 4
#     Node 8, Type 0, BuildingBlock: NAWXER_clean_sbu_0, # of connection points: 4
#     Node 9, Type 0, BuildingBlock: NAWXER_clean_sbu_0, # of connection points: 4
#     Node 10, Type 0, BuildingBlock: NAWXER_clean_sbu_0, # of connection points: 4
#     Node 11, Type 0, BuildingBlock: NAWXER_clean_sbu_0, # of connection points: 4
#     Node 12, Type 0, BuildingBlock: NAWXER_clean_sbu_0, # of connection points: 4
#     Node 13, Type 0, BuildingBlock: NAWXER_clean_sbu_0, # of connection points: 4
#     Node 14, Type 0, BuildingBlock: NAWXER_clean_sbu_0, # of connection points: 4
#     Node 15, Type 0, BuildingBlock: NAWXER_clean_sbu_0, # of connection points: 4
#     Node 16, Type 0, BuildingBlock: NAWXER_clean_sbu_0, # of connection points: 4
#     Node 17, Type 0, BuildingBlock: NAWXER_clean_sbu_0, # of connection points: 4
#     Node 18, Type 0, BuildingBlock: NAWXER_clean_sbu_0, # of connection points: 4
#     Node 19, Type 0, BuildingBlock: NAWXER_clean_sbu_0, # of connection points: 4
#     Node 20, Type 0, BuildingBlock: NAWXER_clean_sbu_0, # of connection points: 4
#     Node 21, Type 0, BuildingBlock: NAWXER_clean_sbu_0, # of connection points: 4
#     Node 22, Type 0, BuildingBlock: NAWXER_clean_sbu_0, # of connection points: 4
#     Node 23, Type 0, BuildingBlock: NAWXER_clean_sbu_0, # of connection points: 4
#     Edge 24, Type (0, 0), BuildingBlock: UVAHIK_clean_linker_0, # of connection points: 2
#     Edge 25, Type (0, 0), BuildingBlock: UVAHIK_clean_linker_0, # of connection points: 2
#     Edge 26, Type (0, 0), BuildingBlock: UVAHIK_clean_linker_0, # of connection points: 2
#     Edge 27, Type (0, 0), BuildingBlock: UVAHIK_clean_linker_0, # of connection points: 2
#     Edge 28, Type (0, 0), BuildingBlock: UVAHIK_clean_linker_0, # of connection points: 2
#     Edge 29, Type (0, 0), BuildingBlock: UVAHIK_clean_linker_0, # of connection points: 2
#     Edge 30, Type (0, 0), BuildingBlock: UVAHIK_clean_linker_0, # of connection points: 2
#     Edge 31, Type (0, 0), BuildingBlock: UVAHIK_clean_linker_0, # of connection points: 2
#     Edge 32, Type (0, 0), BuildingBlock: UVAHIK_clean_linker_0, # of connection points: 2
#     Edge 33, Type (0, 0), BuildingBlock: UVAHIK_clean_linker_0, # of connection points: 2
#     Edge 34, Type (0, 0), BuildingBlock: UVAHIK_clean_linker_0, # of connection points: 2
#     Edge 35, Type (0, 0), BuildingBlock: UVAHIK_clean_linker_0, # of connection points: 2
#     Edge 36, Type (0, 0), BuildingBlock: UVAHIK_clean_linker_0, # of connection points: 2
#     Edge 37, Type (0, 0), BuildingBlock: UVAHIK_clean_linker_0, # of connection points: 2
#     Edge 38, Type (0, 0), BuildingBlock: UVAHIK_clean_linker_0, # of connection points: 2
#     Edge 39, Type (0, 0), BuildingBlock: UVAHIK_clean_linker_0, # of connection points: 2
#     Edge 40, Type (0, 0), BuildingBlock: UVAHIK_clean_linker_0, # of connection points: 2
#     Edge 41, Type (0, 0), BuildingBlock: UVAHIK_clean_linker_0, # of connection points: 2
#     Edge 42, Type (0, 0), BuildingBlock: UVAHIK_clean_linker_0, # of connection points: 2
#     Edge 43, Type (0, 0), BuildingBlock: UVAHIK_clean_linker_0, # of connection points: 2
#     Edge 44, Type (0, 0), BuildingBlock: UVAHIK_clean_linker_0, # of connection points: 2
#     Edge 45, Type (0, 0), BuildingBlock: UVAHIK_clean_linker_0, # of connection points: 2
#     Edge 46, Type (0, 0), BuildingBlock: UVAHIK_clean_linker_0, # of connection points: 2
#     Edge 47, Type (0, 0), BuildingBlock: UVAHIK_clean_linker_0, # of connection points: 2
#     Edge 48, Type (0, 0), BuildingBlock: UVAHIK_clean_linker_0, # of connection points: 2
#     Edge 49, Type (0, 0), BuildingBlock: UVAHIK_clean_linker_0, # of connection points: 2
#     Edge 50, Type (0, 0), BuildingBlock: UVAHIK_clean_linker_0, # of connection points: 2
#     Edge 51, Type (0, 0), BuildingBlock: UVAHIK_clean_linker_0, # of connection points: 2
#     Edge 52, Type (0, 0), BuildingBlock: UVAHIK_clean_linker_0, # of connection points: 2
#     Edge 53, Type (0, 0), BuildingBlock: UVAHIK_clean_linker_0, # of connection points: 2
#     Edge 54, Type (0, 0), BuildingBlock: UVAHIK_clean_linker_0, # of connection points: 2
#     Edge 55, Type (0, 0), BuildingBlock: UVAHIK_clean_linker_0, # of connection points: 2
#     Edge 56, Type (0, 0), BuildingBlock: UVAHIK_clean_linker_0, # of connection points: 2
#     Edge 57, Type (0, 0), BuildingBlock: UVAHIK_clean_linker_0, # of connection points: 2
#     Edge 58, Type (0, 0), BuildingBlock: UVAHIK_clean_linker_0, # of connection points: 2
#     Edge 59, Type (0, 0), BuildingBlock: UVAHIK_clean_linker_0, # of connection points: 2
#     Edge 60, Type (0, 0), BuildingBlock: UVAHIK_clean_linker_0, # of connection points: 2
#     Edge 61, Type (0, 0), BuildingBlock: UVAHIK_clean_linker_0, # of connection points: 2
#     Edge 62, Type (0, 0), BuildingBlock: UVAHIK_clean_linker_0, # of connection points: 2
#     Edge 63, Type (0, 0), BuildingBlock: UVAHIK_clean_linker_0, # of connection points: 2
#     Edge 64, Type (0, 0), BuildingBlock: UVAHIK_clean_linker_0, # of connection points: 2
#     Edge 65, Type (0, 0), BuildingBlock: UVAHIK_clean_linker_0, # of connection points: 2
#     Edge 66, Type (0, 0), BuildingBlock: UVAHIK_clean_linker_0, # of connection points: 2
#     Edge 67, Type (0, 0), BuildingBlock: UVAHIK_clean_linker_0, # of connection points: 2
#     Edge 68, Type (0, 0), BuildingBlock: UVAHIK_clean_linker_0, # of connection points: 2
#     Edge 69, Type (0, 0), BuildingBlock: UVAHIK_clean_linker_0, # of connection points: 2
#     Edge 70, Type (0, 0), BuildingBlock: UVAHIK_clean_linker_0, # of connection points: 2
#     Edge 71, Type (0, 0), BuildingBlock: UVAHIK_clean_linker_0, # of connection points: 2
# Relax obj value: 0.003
# Max RMSD: 0.009
# Mean RMSD: 0.009
data_MOF--net-rhr--node1-NAWXER_clean_sbu_0--edge1-UVAHIK_clean_linker_0
_symmetry_space_group_name_H-M    P1
_symmetry_Int_Tables_number       1
_symmetry_cell_setting            triclinic
loop_
_symmetry_equiv_pos_as_xyz
'x, y, z'
_cell_length_a     65.94582
_cell_length_b     65.96631
_cell_length_c     65.974766
_cell_angle_alpha  89.854805
_cell_angle_beta   90.121122
_cell_angle_gamma 90.12283
loop_
_atom_site_label
_atom_site_type_symbol
_atom_site_fract_x
_atom_site_fract_y
_atom_site_fract_z
_atom_type_partial_charge
C0 C 0.28112 0.02558 0.33933 0.0
C1 C 0.31641 0.97013 0.30474 0.0
O2 O 0.27469 0.01551 0.3242 0.0
Zn3 Zn 0.29844 0.9981 0.32106 0.0
O4 O 0.29875 0.02181 0.34659 0.0
Zn5 Zn 0.32319 1.00127 0.34175 0.0
O6 O 0.34569 0.01871 0.3351 0.0
O7 O 0.32221 0.01803 0.31124 0.0
O8 O 0.32629 0.97742 0.31984 0.0
O9 O 0.29931 0.97768 0.29992 0.0
O10 O 0.29671 0.98006 0.34806 0.0
O11 O 0.32338 0.98691 0.36728 0.0
C12 C 0.33942 0.02436 0.31776 0.0
C13 C 0.30685 0.97738 0.36444 0.0
C14 C 0.05899 0.33511 0.30276 0.0
C15 C 1.00245 0.29856 0.33481 0.0
O16 O 0.05165 0.31816 0.29715 0.0
Zn17 Zn 0.03009 0.31675 0.31734 0.0
O18 O 0.05089 0.34464 0.31756 0.0
Zn19 Zn 0.02624 0.34113 0.33834 0.0
O20 O 0.04062 0.34159 0.36393 0.0
O21 O 0.0467 0.31444 0.34531 0.0
O22 O 0.00618 0.31591 0.34272 0.0
O23 O 0.01241 0.29301 0.31929 0.0
O24 O 0.0105 0.34038 0.30707 0.0
O25 O 0.00829 0.36327 0.33126 0.0
C26 C 0.04944 0.32461 0.36165 0.0
C27 C 0.00349 0.35723 0.31361 0.0
C28 C 0.64861 0.98449 0.29619 0.0
C29 C 0.68944 0.02969 0.33825 0.0
O30 O 0.64108 0.98744 0.31382 0.0
Zn31 Zn 0.64772 0.0041 0.34064 0.0
O32 O 0.66519 0.99305 0.29135 0.0
Zn33 Zn 0.66971 0.00688 0.31698 0.0
O34 O 0.67523 0.98272 0.33824 0.0
O35 O 0.65059 0.9826 0.36079 0.0
O36 O 0.69349 0.02364 0.32041 0.0
O37 O 0.67325 0.02344 0.34707 0.0
O38 O 0.62494 0.02311 0.34161 0.0
O39 O 0.64644 0.02945 0.3168 0.0
C40 C 0.66699 0.97502 0.3541 0.0
C41 C 0.6304 0.03408 0.32668 0.0
C42 C 0.0369 0.63909 0.32463 0.0
C43 C 0.98931 0.67491 0.36859 0.0
O44 O 0.02922 0.63232 0.34098 0.0
Zn45 Zn 0.01274 0.656 0.34736 0.0
O46 O 0.03207 0.65681 0.31834 0.0
Zn47 Zn 0.01326 0.68145 0.32663 0.0
O48 O 0.03288 0.70329 0.33097 0.0
O49 O 0.03472 0.67904 0.35402 0.0
O50 O 0.99476 0.6849 0.35284 0.0
O51 O 0.99573 0.65694 0.37144 0.0
O52 O 0.9902 0.65519 0.32436 0.0
O53 O 0.99339 0.68186 0.30439 0.0
C54 C 0.04088 0.69615 0.34707 0.0
C55 C 0.9842 0.6655 0.30904 0.0
C56 C 0.31628 0.02605 0.67105 0.0
C57 C 0.35478 0.97697 0.71095 0.0
O58 O 0.33232 0.01979 0.66211 0.0
Zn59 Zn 0.35649 0.99879 0.66726 0.0
O60 O 0.31143 0.01877 0.68824 0.0
Zn61 Zn 0.33455 1.00089 0.69112 0.0
O62 O 0.3594 0.02181 0.69288 0.0
O63 O 0.37993 0.01701 0.66697 0.0
O64 O 0.33828 0.98552 0.71597 0.0
O65 O 0.36257 0.98063 0.69352 0.0
O66 O 0.35246 0.97855 0.64602 0.0
O67 O 0.32819 0.97818 0.66894 0.0
C68 C 0.37553 0.02656 0.68312 0.0
C69 C 0.3359 0.97113 0.65259 0.0
C70 C 0.01955 0.35668 0.68004 0.0
C71 C 0.96131 0.32681 0.64578 0.0
O72 O 0.01115 0.36264 0.66374 0.0
Zn73 Zn 0.98994 0.34246 0.66317 0.0
O74 O 0.01213 0.34148 0.68969 0.0
Zn75 Zn 0.98734 0.32047 0.6866 0.0
O76 O 1.00111 0.29459 0.68471 0.0
O77 O 0.00703 0.31495 0.65874 0.0
O78 O 0.96571 0.31774 0.66244 0.0
O79 O 0.97146 0.3423 0.64042 0.0
O80 O 0.97082 0.35118 0.68801 0.0
O81 O 0.97092 0.3262 0.71027 0.0
C82 C 0.00989 0.29799 0.66789 0.0
C83 C 0.96491 0.34373 0.70498 0.0
C84 C 0.65978 0.02587 0.68286 0.0
C85 C 0.69745 0.9767 0.64291 0.0
O86 O 0.65384 0.01693 0.66687 0.0
Zn87 Zn 0.67812 1.00109 0.66237 0.0
O88 O 0.67747 0.02223 0.69004 0.0
Zn89 Zn 0.70273 0.00323 0.68356 0.0
O90 O 0.72464 0.02259 0.6787 0.0
O91 O 0.70118 0.02289 0.6548 0.0
O92 O 0.70711 0.98294 0.6586 0.0
O93 O 0.67958 0.98309 0.63939 0.0
O94 O 0.67688 0.97992 0.6867 0.0
O95 O 0.70285 0.98507 0.70717 0.0
C96 C 0.7181 0.02948 0.66186 0.0
C97 C 0.6868 0.97527 0.70274 0.0
C98 C 0.95178 0.66645 0.7009 0.0
C99 C 0.00449 0.70471 0.6655 0.0
O100 O 0.95891 0.65738 0.6853 0.0
Zn101 Zn 0.98058 0.66244 0.6617 0.0
O102 O 0.95817 0.68409 0.7054 0.0
Zn103 Zn 0.97765 0.68623 0.68346 0.0
O104 O 0.95809 0.68877 0.65763 0.0
O105 O 0.96343 0.66271 0.63752 0.0
O106 O 0.99466 0.71019 0.68109 0.0
O107 O 1.00057 0.68756 0.65727 0.0
O108 O 0.99941 0.64029 0.66658 0.0
O109 O 0.99853 0.66242 0.69162 0.0
C110 C 0.95394 0.67903 0.64135 0.0
C111 C 0.00534 0.64586 0.68408 0.0
C112 C 0.32505 0.36476 0.01248 0.0
C113 C 0.35923 0.3179 0.96697 0.0
O114 O 0.34135 0.36817 1.00277 0.0
Zn115 Zn 0.34222 0.34206 0.98953 0.0
O116 O 0.31567 0.34783 0.0104 0.0
Zn117 Zn 0.31855 0.32019 0.99345 0.0
O118 O 0.32045 0.30023 0.01525 0.0
O119 O 0.346 0.32193 0.01487 0.0
O120 O 0.3424 0.31081 0.97367 0.0
O121 O 0.36487 0.33555 0.97221 0.0
O122 O 0.31711 0.34543 0.96941 0.0
O123 O 0.29452 0.32167 0.97595 0.0
C124 C 0.33686 0.30682 0.02305 0.0
C125 C 0.29985 0.33722 0.96582 0.0
C126 C 0.69636 0.34782 0.03757 0.0
C127 C 0.66446 0.31134 0.98085 0.0
O128 O 0.70313 0.33236 0.02834 0.0
Zn129 Zn 0.68054 0.32827 0.00964 0.0
O130 O 0.67901 0.35501 0.03253 0.0
Zn131 Zn 0.65547 0.34881 0.01102 0.0
O132 O 0.63227 0.34188 0.02776 0.0
O133 O 0.65594 0.31831 0.02814 0.0
O134 O 0.65404 0.32629 0.98752 0.0
O135 O 0.68105 0.30657 0.98955 0.0
O136 O 0.68242 0.35433 0.99029 0.0
O137 O 0.65515 0.37325 0.99444 0.0
C138 C 0.63845 0.32461 0.0337 0.0
C139 C 0.672 0.37006 0.98562 0.0
C140 C 0.66198 0.69412 0.05709 0.0
C141 C 0.69701 0.65638 0.00415 0.0
O142 O 0.67741 0.70375 0.0501 0.0
Zn143 Zn 0.70087 0.69888 0.02784 0.0
O144 O 0.65803 0.67647 0.05049 0.0
Zn145 Zn 0.67961 0.67501 0.0308 0.0
O146 O 0.70635 0.67204 0.049 0.0
O147 O 0.72597 0.69853 0.04304 0.0
O148 O 0.68151 0.651 0.01424 0.0
O149 O 0.70521 0.67371 0.00749 0.0
O150 O 0.69628 0.72128 0.00979 0.0
O151 O 0.67156 0.69861 0.00949 0.0
C152 C 0.72292 0.68177 0.05204 0.0
C153 C 0.67915 0.71541 0.00316 0.0
C154 C 0.31076 0.65487 0.96122 0.0
C155 C 0.3449 0.70249 0.00611 0.0
O156 O 0.32766 0.64794 0.96796 0.0
Zn157 Zn 0.35145 0.65766 0.9882 0.0
O158 O 0.30451 0.67203 0.96723 0.0
Zn159 Zn 0.32696 0.67831 0.98483 0.0
O160 O 0.35151 0.68184 0.96347 0.0
O161 O 0.3748 0.65878 0.9703 0.0
O162 O 0.32719 0.70418 0.99869 0.0
O163 O 0.35508 0.68621 0.00332 0.0
O164 O 0.35066 0.638 0.01036 0.0
O165 O 0.32346 0.65725 0.00931 0.0
C166 C 0.36874 0.67369 0.95962 0.0
C167 C 0.33348 0.64279 0.01759 0.0
C168 C 0.82547 0.53253 0.81534 0.0
C169 C 0.77969 0.4802 0.84031 0.0
O170 O 0.83266 0.52303 0.83076 0.0
Zn171 Zn 0.8236 0.49852 0.85053 0.0
O172 O 0.80835 0.52738 0.80809 0.0
Zn173 Zn 0.80278 0.50594 0.82706 0.0
O174 O 0.79928 0.52275 0.85464 0.0
O175 O 0.82179 0.51157 0.87683 0.0
O176 O 0.77692 0.49197 0.8253 0.0
O177 O 0.7963 0.48112 0.85037 0.0
O178 O 0.84427 0.47828 0.84612 0.0
O179 O 0.82518 0.48348 0.81912 0.0
C180 C 0.80721 0.52337 0.87238 0.0
C181 C 0.84006 0.47433 0.82774 0.0
C182 C 0.49979 0.80548 0.84691 0.0
C183 C 0.55262 0.84832 0.81645 0.0
O184 O 0.50945 0.80209 0.8306 0.0
Zn185 Zn 0.5256 0.82683 0.83072 0.0
O186 O 0.50305 0.82202 0.8566 0.0
Zn187 Zn 0.52184 0.84864 0.85425 0.0
O188 O 0.50214 0.87021 0.851 0.0
O189 O 0.50356 0.84981 0.82461 0.0
O190 O 0.54493 0.85595 0.83254 0.0
O191 O 0.5458 0.83156 0.80977 0.0
O192 O 0.54367 0.82218 0.8574 0.0
O193 O 0.53757 0.84697 0.87901 0.0
C194 C 0.49597 0.86534 0.83341 0.0
C195 C 0.54685 0.8307 0.87457 0.0
C196 C 0.13934 0.52149 0.80542 0.0
C197 C 0.17795 0.47036 0.84361 0.0
O198 O 0.15677 0.51758 0.79785 0.0
Zn199 Zn 0.18283 0.49955 0.80448 0.0
O200 O 0.13428 0.51337 0.82218 0.0
Zn201 Zn 0.15875 0.49702 0.82612 0.0
O202 O 0.18129 0.51884 0.83363 0.0
O203 O 0.20428 0.51921 0.80945 0.0
O204 O 0.161 0.47802 0.84868 0.0
O205 O 0.18718 0.47708 0.82785 0.0
O206 O 0.18338 0.483 0.78025 0.0
O207 O 0.15747 0.47673 0.80069 0.0
C208 C 0.19782 0.52592 0.82628 0.0
C209 C 0.16744 0.47295 0.78446 0.0
C210 C 0.49491 0.17146 0.79166 0.0
C211 C 0.5476 0.20335 0.83363 0.0
O212 O 0.5055 0.18688 0.78685 0.0
Zn213 Zn 0.52093 0.18851 0.8122 0.0
O214 O 0.49744 0.16309 0.80902 0.0
Zn215 Zn 0.51614 0.166 0.83526 0.0
O216 O 0.49675 0.17113 0.85667 0.0
O217 O 0.49856 0.19608 0.8344 0.0
O218 O 0.53961 0.18756 0.84173 0.0
O219 O 0.54119 0.20956 0.8165 0.0
O220 O 0.5391 0.16188 0.80984 0.0
O221 O 0.53066 0.1404 0.83424 0.0
C222 C 0.49087 0.18844 0.85054 0.0
C223 C 0.54127 0.14473 0.81873 0.0
C224 C 0.81871 0.47659 0.16459 0.0
C225 C 0.85426 0.53282 0.19866 0.0
O226 O 0.8132 0.48571 0.18063 0.0
Zn227 Zn 0.83615 0.50431 0.18297 0.0
O228 O 0.83545 0.48164 0.15608 0.0
Zn229 Zn 0.85965 0.50291 0.16035 0.0
O230 O 0.88309 0.48565 0.16537 0.0
O231 O 0.86109 0.48541 0.19053 0.0
O232 O 0.86325 0.52603 0.18288 0.0
O233 O 0.83789 0.52446 0.20466 0.0
O234 O 0.83209 0.52332 0.15718 0.0
O235 O 0.85787 0.51987 0.13612 0.0
C236 C 0.87797 0.4796 0.18296 0.0
C237 C 0.84106 0.52817 0.14065 0.0
C238 C 0.51008 0.87015 0.17335 0.0
C239 C 0.46052 0.8347 0.13155 0.0
O240 O 0.50376 0.87508 0.15582 0.0
Zn241 Zn 0.48546 0.8525 0.15217 0.0
O242 O 0.5032 0.85405 0.18188 0.0
Zn243 Zn 0.48213 0.83005 0.17507 0.0
O244 O 0.49918 0.80595 0.17468 0.0
O245 O 0.50608 0.82757 0.15009 0.0
O246 O 0.46334 0.82598 0.14872 0.0
O247 O 0.47064 0.85047 0.12702 0.0
O248 O 0.46186 0.85821 0.17408 0.0
O249 O 0.46232 0.8332 0.19639 0.0
C250 C 0.50978 0.81088 0.15937 0.0
C251 C 0.45471 0.84976 0.1901 0.0
C252 C 0.22513 0.53108 0.16832 0.0
C253 C 0.18904 0.47356 0.19905 0.0
O254 O 0.23079 0.52055 0.18348 0.0
Zn255 Zn 0.20702 0.50293 0.18506 0.0
O256 O 0.20781 0.52758 0.1602 0.0
Zn257 Zn 0.18313 0.50675 0.16347 0.0
O258 O 0.1602 0.52363 0.17022 0.0
O259 O 0.18281 0.52206 0.19485 0.0
O260 O 0.17959 0.48155 0.18401 0.0
O261 O 0.20571 0.48129 0.20503 0.0
O262 O 0.20992 0.48618 0.15752 0.0
O263 O 0.18412 0.49347 0.13728 0.0
C264 C 0.16579 0.52852 0.188 0.0
C265 C 0.20057 0.48399 0.14062 0.0
C266 C 0.51141 0.19309 0.15367 0.0
C267 C 0.4623 0.15026 0.18933 0.0
O268 O 0.5059 0.1753 0.14865 0.0
Zn269 Zn 0.48739 0.1705 0.17114 0.0
O270 O 0.50462 0.20091 0.17006 0.0
Zn271 Zn 0.48455 0.19348 0.19419 0.0
O272 O 0.50206 0.19158 0.21826 0.0
O273 O 0.50714 0.16691 0.1964 0.0
O274 O 0.46592 0.16729 0.19791 0.0
O275 O 0.4716 0.14558 0.1731 0.0
O276 O 0.46417 0.19259 0.16595 0.0
O277 O 0.46432 0.2148 0.19098 0.0
C278 C 0.5113 0.1754 0.21334 0.0
C279 C 0.45689 0.20853 0.17429 0.0
C280 C 0.81185 0.77927 0.51218 0.0
C281 C 0.77884 0.81851 0.45783 0.0
O282 O 0.79535 0.77467 0.50322 0.0
Zn283 Zn 0.79503 0.79775 0.48452 0.0
O284 O 0.82152 0.7953 0.50691 0.0
Zn285 Zn 0.81925 0.81934 0.48517 0.0
O286 O 0.81804 0.84277 0.50255 0.0
O287 O 0.79089 0.82314 0.50433 0.0
O288 O 0.79586 0.82594 0.46364 0.0
O289 O 0.77259 0.80195 0.46555 0.0
O290 O 0.82064 0.7903 0.46613 0.0
O291 O 0.8431 0.81497 0.4689 0.0
C292 C 0.8005 0.83917 0.50972 0.0
C293 C 0.83805 0.7978 0.46176 0.0
C294 C 0.20614 0.83536 0.54416 0.0
C295 C 0.16291 0.80507 0.49171 0.0
O296 O 0.20938 0.8192 0.53423 0.0
Zn297 Zn 0.18425 0.81921 0.51863 0.0
O298 O 0.18955 0.84507 0.54138 0.0
Zn299 Zn 0.16306 0.84311 0.5226 0.0
O300 O 0.14134 0.8404 0.54194 0.0
O301 O 0.16068 0.8132 0.54037 0.0
O302 O 0.15522 0.82117 0.49943 0.0
O303 O 0.17975 0.79848 0.49845 0.0
O304 O 0.18865 0.84522 0.4998 0.0
O305 O 0.16553 0.8682 0.50738 0.0
C306 C 0.14531 0.82248 0.5478 0.0
C307 C 0.18082 0.86276 0.49705 0.0
C308 C 0.13779 0.1744 0.54486 0.0
C309 C 0.17427 0.14057 0.48967 0.0
O310 O 0.15485 0.1827 0.54051 0.0
Zn311 Zn 0.17976 0.1783 0.52004 0.0
O312 O 0.13227 0.15849 0.53545 0.0
Zn313 Zn 0.1558 0.15673 0.51774 0.0
O314 O 0.17946 0.1489 0.53876 0.0
O315 O 0.20232 0.17337 0.53793 0.0
O316 O 0.15728 0.13553 0.49726 0.0
O317 O 0.18378 0.15593 0.49688 0.0
O318 O 0.17913 0.2034 0.50494 0.0
O319 O 0.15244 0.18377 0.49977 0.0
C320 C 0.19626 0.1565 0.54502 0.0
C321 C 0.16214 0.20031 0.49633 0.0
C322 C 0.84484 0.20612 0.50936 0.0
C323 C 0.81135 0.16224 0.46029 0.0
O324 O 0.8541 0.18926 0.50668 0.0
Zn325 Zn 0.85122 0.16254 0.48847 0.0
O326 O 0.82886 0.21002 0.49929 0.0
Zn327 Zn 0.82786 0.18458 0.48474 0.0
O328 O 0.82282 0.16276 0.50862 0.0
O329 O 0.84851 0.14139 0.50893 0.0
O330 O 0.8056 0.17955 0.4664 0.0
O331 O 0.82779 0.15457 0.46734 0.0
O332 O 0.87545 0.16409 0.47148 0.0
O333 O 0.85296 0.18776 0.46442 0.0
C334 C 0.83167 0.14719 0.51626 0.0
C335 C 0.87005 0.17929 0.46087 0.0
C336 C 0.17259 0.11364 0.46253 0.0
C337 C 0.18344 0.12891 0.47276 0.0
C338 C 0.18166 0.10277 0.44668 0.0
C339 C 0.2319 0.08784 0.42795 0.0
H340 H 0.20537 0.07828 0.37633 0.0
C341 C 0.27711 0.05542 0.36199 0.0
C342 C 0.26806 0.04021 0.35017 0.0
C343 C 0.26552 0.06703 0.37527 0.0
C344 C 0.21291 0.08063 0.39073 0.0
H345 H 0.21227 0.14481 0.47416 0.0
H346 H 0.22795 0.12587 0.44686 0.0
H347 H 0.18725 0.0962 0.40329 0.0
H348 H 0.23955 0.02587 0.34227 0.0
H349 H 0.21922 0.04593 0.36589 0.0
H350 H 0.25737 0.07213 0.41585 0.0
C351 C 0.21251 0.1222 0.45108 0.0
C352 C 0.20252 0.09089 0.40616 0.0
C353 C 0.20345 0.13313 0.46671 0.0
C354 C 0.24692 0.0376 0.3511 0.0
C355 C 0.23529 0.04909 0.36467 0.0
C356 C 0.24218 0.07751 0.41268 0.0
C357 C 0.20181 0.10681 0.44095 0.0
C358 C 0.21205 0.09487 0.42484 0.0
C359 C 0.24458 0.06351 0.37741 0.0
C360 C 0.233 0.07404 0.39372 0.0
H361 H 0.15713 0.11006 0.46676 0.0
H362 H 0.17307 0.09094 0.4392 0.0
H363 H 0.23952 0.09028 0.44231 0.0
H364 H 0.29334 0.05795 0.36145 0.0
H365 H 0.27314 0.07843 0.38431 0.0
C366 C 0.97684 0.29179 0.3619 0.0
C367 C 0.98751 0.28491 0.34482 0.0
C368 C 0.96374 0.27892 0.37245 0.0
C369 C 0.92883 0.25288 0.38609 0.0
H370 H 0.94391 0.19715 0.39711 0.0
C371 C 0.8749 0.20066 0.42996 0.0
C372 C 0.88331 0.1879 0.44484 0.0
C373 C 0.88724 0.21051 0.41586 0.0
C374 C 0.93952 0.21271 0.39426 0.0
H375 H 0.99252 0.25898 0.32535 0.0
H376 H 0.96926 0.23646 0.3437 0.0
H377 H 0.96594 0.21847 0.37616 0.0
H378 H 0.9113 0.1749 0.45609 0.0
H379 H 0.93306 0.1926 0.43173 0.0
H380 H 0.90296 0.24761 0.40473 0.0
C381 C 0.9713 0.25185 0.34902 0.0
C382 C 0.95203 0.22486 0.38202 0.0
C383 C 0.9845 0.2648 0.3384 0.0
C384 C 0.90436 0.18462 0.44479 0.0
C385 C 0.91681 0.19472 0.43076 0.0
C386 C 0.91642 0.24082 0.39832 0.0
C387 C 0.96079 0.25876 0.36623 0.0
C388 C 0.94694 0.24519 0.37798 0.0
C389 C 0.90843 0.20815 0.41637 0.0
C390 C 0.9216 0.22059 0.40269 0.0
H391 H 0.97881 0.30712 0.36742 0.0
H392 H 0.95625 0.28473 0.38581 0.0
H393 H 0.92423 0.26835 0.3831 0.0
H394 H 0.85869 0.20329 0.42935 0.0
H395 H 0.88012 0.22024 0.40469 0.0
C396 C 0.77508 0.84483 0.43086 0.0
C397 C 0.76598 0.83069 0.44394 0.0
C398 C 0.76334 0.85891 0.42022 0.0
C399 C 0.7102 0.87309 0.40591 0.0
H400 H 0.73454 0.92646 0.40117 0.0
C401 C 0.66686 0.94599 0.3792 0.0
C402 C 0.67702 0.95769 0.36451 0.0
C403 C 0.67668 0.9297 0.3888 0.0
C404 C 0.72756 0.91162 0.40227 0.0
H405 H 0.73728 0.81974 0.45557 0.0
H406 H 0.71669 0.8447 0.43741 0.0
H407 H 0.75335 0.89928 0.41743 0.0
H408 H 0.7055 0.96137 0.34846 0.0
H409 H 0.72256 0.93336 0.36537 0.0
H410 H 0.68413 0.88592 0.39109 0.0
C411 C 0.73293 0.8447 0.43502 0.0
C412 C 0.73841 0.89592 0.41148 0.0
C413 C 0.74472 0.83033 0.44544 0.0
C414 C 0.69717 0.95272 0.35968 0.0
C415 C 0.70702 0.9367 0.36944 0.0
C416 C 0.69922 0.88895 0.39688 0.0
C417 C 0.74215 0.85956 0.42268 0.0
C418 C 0.73006 0.87631 0.41319 0.0
C419 C 0.69695 0.92501 0.38414 0.0
C420 C 0.7079 0.90832 0.39473 0.0
H421 H 0.79143 0.84538 0.42925 0.0
H422 H 0.77101 0.86959 0.41038 0.0
H423 H 0.70326 0.85823 0.4068 0.0
H424 H 0.65132 0.94937 0.38322 0.0
H425 H 0.66856 0.92101 0.40015 0.0
C426 C 0.13205 0.79946 0.47011 0.0
C427 C 0.15221 0.79448 0.47495 0.0
C428 C 0.12186 0.78956 0.45436 0.0
C429 C 0.10581 0.77351 0.4144 0.0
H430 H 0.11545 0.71614 0.40664 0.0
C431 C 0.06292 0.72707 0.35282 0.0
C432 C 0.05634 0.70767 0.3588 0.0
C433 C 0.07649 0.73811 0.365 0.0
C434 C 0.11246 0.73215 0.40863 0.0
H435 H 0.1776 0.77543 0.46667 0.0
H436 H 0.16005 0.75853 0.43886 0.0
H437 H 0.13473 0.73446 0.43207 0.0
H438 H 0.05916 0.68463 0.38222 0.0
H439 H 0.08215 0.70382 0.40336 0.0
H440 H 0.08274 0.77086 0.39166 0.0
C441 C 0.15188 0.76974 0.44756 0.0
C442 C 0.12377 0.74277 0.42308 0.0
C443 C 0.16201 0.77951 0.46348 0.0
C444 C 0.06392 0.69948 0.377 0.0
C445 C 0.07731 0.71048 0.38914 0.0
C446 C 0.09435 0.76282 0.40004 0.0
C447 C 0.1316 0.77454 0.44282 0.0
C448 C 0.12043 0.76355 0.42641 0.0
C449 C 0.08373 0.73 0.38343 0.0
C450 C 0.09727 0.7419 0.3972 0.0
H451 H 0.12399 0.81086 0.47869 0.0
H452 H 0.10616 0.79345 0.45152 0.0
H453 H 0.10304 0.78957 0.41619 0.0
H454 H 0.0574 0.73383 0.33889 0.0
H455 H 0.08126 0.75302 0.35999 0.0
C456 C 0.24259 0.84134 0.55375 0.0
C457 C 0.22183 0.84422 0.5576 0.0
C458 C 0.25725 0.85225 0.56469 0.0
C459 C 0.26576 0.88068 0.61188 0.0
H460 H 0.30347 0.9135 0.58085 0.0
C461 C 0.30525 0.94939 0.64743 0.0
C462 C 0.32508 0.95467 0.64163 0.0
C463 C 0.29469 0.934 0.63746 0.0
C464 C 0.29336 0.90417 0.58983 0.0
H465 H 0.2002 0.86006 0.57647 0.0
H466 H 0.22571 0.87852 0.59592 0.0
H467 H 0.28168 0.88902 0.56349 0.0
H468 H 0.34937 0.94774 0.62071 0.0
H469 H 0.33103 0.92041 0.60347 0.0
H470 H 0.27728 0.8956 0.63821 0.0
C471 C 0.23069 0.86802 0.58435 0.0
C472 C 0.28084 0.89016 0.57984 0.0
C473 C 0.21608 0.85749 0.57318 0.0
C474 C 0.3341 0.94409 0.62553 0.0
C475 C 0.32353 0.92847 0.6156 0.0
C476 C 0.27841 0.89445 0.62188 0.0
C477 C 0.25141 0.86586 0.57997 0.0
C478 C 0.26656 0.87865 0.59073 0.0
C479 C 0.30367 0.92318 0.62149 0.0
C480 C 0.29199 0.90684 0.61095 0.0
H481 H 0.24747 0.83136 0.54169 0.0
H482 H 0.27313 0.85024 0.56106 0.0
H483 H 0.25509 0.8718 0.62069 0.0
H484 H 0.29769 0.95732 0.65961 0.0
H485 H 0.27927 0.93084 0.64213 0.0
C486 C 0.03895 0.28906 0.64553 0.0
C487 C 0.02338 0.28273 0.65861 0.0
C488 C 0.05141 0.27489 0.63605 0.0
C489 C 0.05261 0.22478 0.61525 0.0
H490 H 0.11104 0.23027 0.61888 0.0
C491 C 0.10733 0.17431 0.56803 0.0
C492 C 0.12456 0.18412 0.56017 0.0
C493 C 0.09497 0.18406 0.5823 0.0
C494 C 0.09476 0.22861 0.61748 0.0
H495 H 0.00854 0.25657 0.67194 0.0
H496 H 0.03009 0.23159 0.65467 0.0
H497 H 0.0894 0.25177 0.63955 0.0
H498 H 0.1421 0.212 0.56093 0.0
H499 H 0.12047 0.22904 0.58495 0.0
H500 H 0.05783 0.20248 0.59232 0.0
C501 C 0.03273 0.24761 0.65211 0.0
C502 C 0.08241 0.24083 0.62948 0.0
C503 C 0.02051 0.26186 0.66203 0.0
C504 C 0.1291 0.20385 0.56682 0.0
C505 C 0.1167 0.21361 0.5808 0.0
C506 C 0.06499 0.21275 0.60293 0.0
C507 C 0.04831 0.25405 0.63908 0.0
C508 C 0.06123 0.23931 0.62821 0.0
C509 C 0.0995 0.20389 0.58886 0.0
C510 C 0.08625 0.21485 0.60354 0.0
H511 H 0.04156 0.30503 0.64265 0.0
H512 H 0.06324 0.28022 0.62598 0.0
H513 H 0.03629 0.22343 0.61393 0.0
H514 H 0.10344 0.1591 0.56324 0.0
H515 H 0.08196 0.17601 0.58826 0.0
C516 C 0.82771 0.11642 0.53874 0.0
C517 C 0.82199 0.13627 0.53345 0.0
C518 C 0.81757 0.10597 0.55428 0.0
C519 C 0.79921 0.08954 0.59362 0.0
H520 H 0.7414 0.09894 0.59802 0.0
C521 C 0.74958 0.05058 0.65565 0.0
C522 C 0.73032 0.04381 0.6494 0.0
C523 C 0.7614 0.06293 0.64289 0.0
C524 C 0.7575 0.09598 0.59697 0.0
H525 H 0.8018 0.16101 0.54103 0.0
H526 H 0.78471 0.1432 0.56834 0.0
H527 H 0.76089 0.11745 0.57297 0.0
H528 H 0.7084 0.04492 0.62481 0.0
H529 H 0.72889 0.06589 0.60273 0.0
H530 H 0.79548 0.06729 0.61709 0.0
C531 C 0.79649 0.13532 0.56013 0.0
C532 C 0.76881 0.10688 0.58273 0.0
C533 C 0.80641 0.14563 0.54448 0.0
C534 C 0.72309 0.04992 0.63027 0.0
C535 C 0.73485 0.06211 0.61757 0.0
C536 C 0.78782 0.07848 0.60782 0.0
C537 C 0.80163 0.1152 0.56504 0.0
C538 C 0.78983 0.10378 0.58074 0.0
C539 C 0.75421 0.06877 0.62361 0.0
C540 C 0.76675 0.08141 0.60954 0.0
H541 H 0.83963 0.10877 0.53052 0.0
H542 H 0.82186 0.09044 0.55743 0.0
H543 H 0.81538 0.08689 0.59276 0.0
H544 H 0.75565 0.04614 0.67026 0.0
H545 H 0.77613 0.06793 0.64817 0.0
C546 C 0.92937 0.67487 0.61218 0.0
C547 C 0.93785 0.68687 0.62764 0.0
C548 C 0.91339 0.68231 0.60019 0.0
C549 C 0.87396 0.72295 0.59985 0.0
H550 H 0.87164 0.71281 0.54204 0.0
C551 C 0.83267 0.77477 0.54333 0.0
C552 C 0.82102 0.76601 0.5278 0.0
C553 C 0.84402 0.76267 0.55649 0.0
C554 C 0.8719 0.71549 0.55823 0.0
H555 H 0.9366 0.71635 0.64209 0.0
H556 H 0.90946 0.7294 0.62103 0.0
H557 H 0.89786 0.69645 0.56261 0.0
H558 H 0.81182 0.73767 0.51402 0.0
H559 H 0.83218 0.71634 0.53695 0.0
H560 H 0.84862 0.74272 0.59528 0.0
C561 C 0.91455 0.71402 0.61848 0.0
C562 C 0.88693 0.70612 0.57004 0.0
C563 C 0.93031 0.70657 0.6305 0.0
C564 C 0.82049 0.74478 0.52603 0.0
C565 C 0.83226 0.73263 0.539 0.0
C566 C 0.85915 0.73246 0.58804 0.0
C567 C 0.90563 0.70195 0.60334 0.0
C568 C 0.88847 0.71012 0.59095 0.0
C569 C 0.84433 0.7415 0.55421 0.0
C570 C 0.8582 0.72917 0.56704 0.0
H571 H 0.93478 0.6596 0.60962 0.0
H572 H 0.90687 0.67253 0.58873 0.0
H573 H 0.87424 0.72597 0.61598 0.0
H574 H 0.83343 0.79109 0.54498 0.0
H575 H 0.85329 0.76997 0.56793 0.0
C576 C 0.35837 0.30928 0.05406 0.0
C577 C 0.34563 0.29761 0.04159 0.0
C578 C 0.36784 0.30069 0.07096 0.0
C579 C 0.36846 0.25473 0.10441 0.0
H580 H 0.42334 0.27298 0.11537 0.0
C581 C 0.42782 0.20911 0.15008 0.0
C582 C 0.4405 0.2196 0.16365 0.0
C583 C 0.41393 0.21953 0.13794 0.0
C584 C 0.40792 0.26794 0.11273 0.0
H585 H 0.33247 0.26784 0.03728 0.0
H586 H 0.34967 0.25248 0.06636 0.0
H587 H 0.4039 0.28892 0.0884 0.0
H588 H 0.44811 0.2492 0.17563 0.0
H589 H 0.42398 0.26759 0.15398 0.0
H590 H 0.37312 0.233 0.12822 0.0
C591 C 0.35198 0.26847 0.06343 0.0
C592 C 0.39668 0.27711 0.09725 0.0
C593 C 0.34217 0.27721 0.04666 0.0
C594 C 0.43847 0.24072 0.16538 0.0
C595 C 0.42478 0.25123 0.15291 0.0
C596 C 0.37985 0.24536 0.11973 0.0
C597 C 0.36519 0.28004 0.07567 0.0
C598 C 0.3768 0.27059 0.09275 0.0
C599 C 0.4126 0.24074 0.13884 0.0
C600 C 0.39974 0.2518 0.12396 0.0
H601 H 0.36109 0.32515 0.05075 0.0
H602 H 0.37735 0.31032 0.08027 0.0
H603 H 0.35312 0.2495 0.10171 0.0
H604 H 0.42898 0.19281 0.14847 0.0
H605 H 0.40489 0.21104 0.12716 0.0
C606 C 0.81412 0.44764 0.1405 0.0
C607 C 0.80578 0.4608 0.155 0.0
C608 C 0.80189 0.43374 0.13014 0.0
C609 C 0.74979 0.42637 0.11274 0.0
H610 H 0.7667 0.37106 0.10264 0.0
C611 C 0.69906 0.37187 0.06678 0.0
C612 C 0.70849 0.35823 0.05346 0.0
C613 C 0.71046 0.38292 0.08085 0.0
C614 C 0.76182 0.38652 0.10506 0.0
H615 H 0.77801 0.46938 0.17021 0.0
H616 H 0.75651 0.44523 0.15182 0.0
H617 H 0.78735 0.3929 0.12425 0.0
H618 H 0.73733 0.34528 0.04475 0.0
H619 H 0.75736 0.36502 0.06882 0.0
H620 H 0.72475 0.42047 0.09302 0.0
C621 C 0.7726 0.44569 0.14857 0.0
C622 C 0.77364 0.399 0.11758 0.0
C623 C 0.78492 0.45943 0.15919 0.0
C624 C 0.72958 0.35558 0.05487 0.0
C625 C 0.74106 0.36687 0.06878 0.0
C626 C 0.73811 0.414 0.10003 0.0
C627 C 0.78093 0.43281 0.13379 0.0
C628 C 0.7678 0.41911 0.1215 0.0
C629 C 0.73169 0.38091 0.08184 0.0
C630 C 0.74396 0.39388 0.09592 0.0
H631 H 0.83014 0.44825 0.13692 0.0
H632 H 0.80876 0.42417 0.11875 0.0
H633 H 0.74504 0.44188 0.11519 0.0
H634 H 0.6828 0.37413 0.06626 0.0
H635 H 0.70254 0.39312 0.09093 0.0
C636 C 0.6498 0.72534 0.07468 0.0
C637 C 0.64793 0.70438 0.07127 0.0
C638 C 0.6353 0.73568 0.08604 0.0
C639 C 0.59516 0.73106 0.12394 0.0
H640 H 0.57277 0.77814 0.09674 0.0
C641 C 0.52649 0.77676 0.15563 0.0
C642 C 0.52633 0.79775 0.1519 0.0
C643 C 0.54149 0.76445 0.14698 0.0
C644 C 0.57904 0.76527 0.10479 0.0
H645 H 0.62985 0.6777 0.07801 0.0
H646 H 0.60462 0.69587 0.09826 0.0
H647 H 0.59907 0.75848 0.08028 0.0
H648 H 0.54236 0.82243 0.13719 0.0
H649 H 0.56875 0.80134 0.12294 0.0
H650 H 0.57545 0.73816 0.14873 0.0
C651 C 0.6173 0.70421 0.09195 0.0
C652 C 0.59406 0.75394 0.09525 0.0
C653 C 0.6317 0.69385 0.08032 0.0
C654 C 0.54186 0.80626 0.14008 0.0
C655 C 0.55694 0.79409 0.13176 0.0
C656 C 0.58025 0.74262 0.13369 0.0
C657 C 0.61872 0.72531 0.09448 0.0
C658 C 0.60241 0.73683 0.10476 0.0
C659 C 0.55675 0.77295 0.13465 0.0
C660 C 0.57214 0.76003 0.1243 0.0
H661 H 0.66209 0.73395 0.06798 0.0
H662 H 0.63688 0.75192 0.08795 0.0
H663 H 0.60137 0.71792 0.1316 0.0
H664 H 0.51468 0.76978 0.16467 0.0
H665 H 0.54074 0.74824 0.14948 0.0
C666 C 0.26009 0.54333 0.15914 0.0
C667 C 0.23892 0.54581 0.15838 0.0
C668 C 0.27277 0.55514 0.14676 0.0
C669 C 0.27463 0.60204 0.11581 0.0
H670 H 0.31193 0.5724 0.0816 0.0
C671 C 0.30493 0.63632 0.04173 0.0
C672 C 0.32482 0.63204 0.03544 0.0
C673 C 0.29652 0.62653 0.05853 0.0
C674 C 0.3019 0.58102 0.09125 0.0
H675 H 0.21458 0.56331 0.14489 0.0
H676 H 0.23663 0.58414 0.12378 0.0
H677 H 0.29399 0.55474 0.10879 0.0
H678 H 0.35149 0.61402 0.04204 0.0
H679 H 0.33688 0.59707 0.07167 0.0
H680 H 0.28232 0.62827 0.09834 0.0
C681 C 0.24347 0.57303 0.13378 0.0
C682 C 0.2916 0.57087 0.10685 0.0
C683 C 0.23082 0.56105 0.14585 0.0
C684 C 0.33611 0.61764 0.04643 0.0
C685 C 0.32769 0.60787 0.06338 0.0
C686 C 0.28502 0.61221 0.10036 0.0
C687 C 0.26455 0.5699 0.13369 0.0
C688 C 0.27749 0.58117 0.11899 0.0
C689 C 0.30777 0.61223 0.06969 0.0
C690 C 0.29841 0.60175 0.08751 0.0
H691 H 0.26676 0.5316 0.16851 0.0
H692 H 0.28897 0.55248 0.14711 0.0
H693 H 0.26408 0.61046 0.1251 0.0
H694 H 0.2957 0.6472 0.03359 0.0
H695 H 0.281 0.62999 0.06255 0.0
C696 C 0.37314 0.69596 0.92928 0.0
C697 C 0.38175 0.68287 0.94375 0.0
C698 C 0.38539 0.70691 0.91592 0.0
C699 C 0.41399 0.73955 0.90182 0.0
H700 H 0.46482 0.72069 0.87937 0.0
C701 C 0.47444 0.79507 0.87308 0.0
C702 C 0.48537 0.79039 0.85543 0.0
C703 C 0.46143 0.78089 0.88189 0.0
C704 C 0.45055 0.72612 0.88533 0.0
H705 H 0.40999 0.67031 0.95491 0.0
H706 H 0.43153 0.68983 0.93183 0.0
H707 H 0.44278 0.69694 0.89755 0.0
H708 H 0.49106 0.76696 0.83317 0.0
H709 H 0.46805 0.74209 0.84856 0.0
H710 H 0.42156 0.76862 0.8896 0.0
C711 C 0.41523 0.6914 0.93061 0.0
C712 C 0.43802 0.71256 0.89595 0.0
C713 C 0.4029 0.68023 0.94389 0.0
C714 C 0.48283 0.77109 0.84673 0.0
C715 C 0.46976 0.7568 0.85562 0.0
C716 C 0.42644 0.75303 0.89124 0.0
C717 C 0.40664 0.7053 0.91682 0.0
C718 C 0.41965 0.71917 0.90449 0.0
C719 C 0.45889 0.76156 0.87332 0.0
C720 C 0.44502 0.7466 0.88312 0.0
H721 H 0.35688 0.69814 0.92858 0.0
H722 H 0.37819 0.71704 0.90517 0.0
H723 H 0.40013 0.74533 0.90839 0.0
H724 H 0.47605 0.80972 0.88031 0.0
H725 H 0.4536 0.78499 0.8957 0.0
C726 C 0.26581 0.34079 0.94834 0.0
C727 C 0.28597 0.34726 0.95113 0.0
C728 C 0.25258 0.35177 0.93571 0.0
C729 C 0.25275 0.39123 0.89498 0.0
H730 H 0.19725 0.40071 0.91157 0.0
C731 C 0.18366 0.45112 0.8762 0.0
C732 C 0.18722 0.45357 0.85535 0.0
C733 C 0.19401 0.43614 0.88727 0.0
C734 C 0.21275 0.39835 0.90678 0.0
H735 H 0.30798 0.37025 0.94254 0.0
H736 H 0.28515 0.38928 0.92115 0.0
H737 H 0.21887 0.37839 0.93177 0.0
H738 H 0.20331 0.44141 0.8295 0.0
H739 H 0.22051 0.41492 0.84839 0.0
H740 H 0.24727 0.41191 0.87076 0.0
C741 C 0.27949 0.3756 0.92827 0.0
C742 C 0.22508 0.38528 0.91822 0.0
C743 C 0.29263 0.36467 0.94073 0.0
C744 C 0.20053 0.44016 0.84564 0.0
C745 C 0.21052 0.42501 0.85655 0.0
C746 C 0.24058 0.40439 0.88373 0.0
C747 C 0.25925 0.36941 0.9256 0.0
C748 C 0.24536 0.38178 0.91262 0.0
C749 C 0.20788 0.42308 0.87764 0.0
C750 C 0.22042 0.40829 0.88948 0.0
H751 H 0.26016 0.3275 0.95618 0.0
H752 H 0.23714 0.34645 0.93387 0.0
H753 H 0.26815 0.38867 0.88993 0.0
H754 H 0.17348 0.46125 0.88409 0.0
H755 H 0.19165 0.4353 0.90348 0.0
C756 C 0.56728 0.23513 0.84136 0.0
C757 C 0.56361 0.21443 0.84489 0.0
C758 C 0.58081 0.24589 0.85374 0.0
C759 C 0.6231 0.24062 0.89018 0.0
H760 H 0.60073 0.28895 0.91467 0.0
C761 C 0.65956 0.2794 0.96058 0.0
C762 C 0.6569 0.30037 0.96283 0.0
C763 C 0.65018 0.26909 0.94448 0.0
C764 C 0.60752 0.27576 0.90772 0.0
H765 H 0.57205 0.18856 0.86342 0.0
H766 H 0.59585 0.20725 0.8847 0.0
H767 H 0.58149 0.27113 0.88883 0.0
H768 H 0.64364 0.32724 0.94935 0.0
H769 H 0.62828 0.30966 0.92093 0.0
H770 H 0.64925 0.24531 0.90893 0.0
C771 C 0.5882 0.21519 0.87251 0.0
C772 C 0.59638 0.26551 0.8929 0.0
C773 C 0.57446 0.20453 0.86038 0.0
C774 C 0.64566 0.31099 0.94818 0.0
C775 C 0.63669 0.30083 0.93194 0.0
C776 C 0.63444 0.25107 0.90482 0.0
C777 C 0.59119 0.23607 0.86962 0.0
C778 C 0.60394 0.24774 0.8841 0.0
C779 C 0.63827 0.27965 0.93014 0.0
C780 C 0.62673 0.26873 0.91393 0.0
H781 H 0.55913 0.24317 0.82956 0.0
H782 H 0.58293 0.26197 0.85111 0.0
H783 H 0.62934 0.22698 0.88357 0.0
H784 H 0.66811 0.27085 0.97172 0.0
H785 H 0.65167 0.25277 0.94375 0.0
C786 C 0.71857 0.64981 0.97382 0.0
C787 C 0.70677 0.64227 0.98982 0.0
C788 C 0.72957 0.63663 0.96148 0.0
C789 C 0.73618 0.58167 0.94867 0.0
H790 H 0.78718 0.60134 0.92689 0.0
C791 C 0.79709 0.53193 0.90796 0.0
C792 C 0.7987 0.53746 0.88745 0.0
C793 C 0.78676 0.54448 0.92158 0.0
C794 C 0.77301 0.59568 0.93299 0.0
H795 H 0.69704 0.61503 0.00543 0.0
H796 H 0.71689 0.59205 0.98458 0.0
H797 H 0.76688 0.62342 0.94832 0.0
H798 H 0.79163 0.56067 0.86523 0.0
H799 H 0.77442 0.58295 0.88925 0.0
H800 H 0.74298 0.55363 0.93369 0.0
C801 C 0.71723 0.60806 0.98099 0.0
C802 C 0.76119 0.60837 0.94507 0.0
C803 C 0.70584 0.62124 0.99303 0.0
C804 C 0.79058 0.55606 0.88097 0.0
C805 C 0.78077 0.5688 0.89466 0.0
C806 C 0.74828 0.56884 0.93696 0.0
C807 C 0.72948 0.61558 0.96516 0.0
C808 C 0.74241 0.60169 0.95284 0.0
C809 C 0.77846 0.56294 0.91496 0.0
C810 C 0.76664 0.57584 0.92885 0.0
H811 H 0.71944 0.66596 0.97091 0.0
H812 H 0.73823 0.64306 0.94911 0.0
H813 H 0.72175 0.57598 0.95402 0.0
H814 H 0.80307 0.51759 0.91327 0.0
H815 H 0.78512 0.53973 0.93723 0.0
C816 C 0.09003 0.35656 0.30345 0.0
C817 C 0.07646 0.3445 0.29232 0.0
C818 C 0.10514 0.3677 0.29368 0.0
C819 C 0.13061 0.37614 0.24356 0.0
H820 H 0.14073 0.42932 0.26649 0.0
C821 C 0.16526 0.444 0.19956 0.0
C822 C 0.17994 0.45587 0.20952 0.0
C823 C 0.15528 0.4283 0.20974 0.0
C824 C 0.1383 0.41441 0.26005 0.0
H825 H 0.06837 0.33412 0.26229 0.0
H826 H 0.09423 0.35431 0.24495 0.0
H827 H 0.11813 0.40596 0.28382 0.0
H828 H 0.19603 0.46022 0.23786 0.0
H829 H 0.17817 0.43297 0.25586 0.0
H830 H 0.1501 0.38535 0.21916 0.0
C831 C 0.09364 0.35476 0.26133 0.0
C832 C 0.12537 0.4009 0.27003 0.0
C833 C 0.07875 0.3432 0.27123 0.0
C834 C 0.18482 0.45133 0.22977 0.0
C835 C 0.17455 0.43581 0.24009 0.0
C836 C 0.14332 0.38984 0.2334 0.0
C837 C 0.10677 0.36755 0.27241 0.0
C838 C 0.12126 0.38155 0.26194 0.0
C839 C 0.15951 0.4243 0.23022 0.0
C840 C 0.14723 0.40914 0.24153 0.0
H841 H 0.08875 0.35763 0.31979 0.0
H842 H 0.11531 0.37676 0.30286 0.0
H843 H 0.12813 0.36133 0.23696 0.0
H844 H 0.16123 0.44705 0.18392 0.0
H845 H 0.14366 0.4198 0.2018 0.0
C846 C 0.1087 0.5443 0.80294 0.0
C847 C 0.12511 0.53444 0.79371 0.0
C848 C 0.09564 0.55659 0.79142 0.0
C849 C 0.09215 0.58261 0.74076 0.0
H850 H 0.03514 0.58659 0.7543 0.0
C851 C 0.03154 0.61828 0.68736 0.0
C852 C 0.01918 0.63304 0.69638 0.0
C853 C 0.04447 0.60629 0.69929 0.0
C854 C 0.05106 0.58564 0.7504 0.0
H855 H 0.14023 0.52916 0.76504 0.0
H856 H 0.11722 0.54958 0.74502 0.0
H857 H 0.05745 0.56562 0.77515 0.0
H858 H 0.01041 0.6465 0.72503 0.0
H859 H 0.03257 0.62528 0.74577 0.0
H860 H 0.08545 0.60216 0.7156 0.0
C861 C 0.11475 0.54871 0.76121 0.0
C862 C 0.06392 0.57374 0.76243 0.0
C863 C 0.12793 0.53681 0.77273 0.0
C864 C 0.01984 0.63537 0.71757 0.0
C865 C 0.03242 0.62313 0.72949 0.0
C866 C 0.07921 0.59418 0.72854 0.0
C867 C 0.09849 0.55899 0.77035 0.0
C868 C 0.08469 0.57201 0.7578 0.0
C869 C 0.04493 0.60853 0.72049 0.0
C870 C 0.05854 0.59585 0.73324 0.0
H871 H 0.10615 0.54279 0.81909 0.0
H872 H 0.0835 0.56442 0.79914 0.0
H873 H 0.10808 0.58219 0.73689 0.0
H874 H 0.03137 0.61612 0.67109 0.0
H875 H 0.05392 0.59508 0.69197 0.0
C876 C 0.4051 0.05097 0.68023 0.0
C877 C 0.3888 0.04281 0.69135 0.0
C878 C 0.41741 0.06623 0.68867 0.0
C879 C 0.43393 0.08513 0.73817 0.0
H880 H 0.44549 0.13655 0.71194 0.0
C881 C 0.46434 0.15054 0.78484 0.0
C882 C 0.48084 0.16164 0.77721 0.0
C883 C 0.45324 0.13766 0.7723 0.0
C884 C 0.44258 0.12218 0.71935 0.0
H885 H 0.37262 0.04447 0.71995 0.0
H886 H 0.39401 0.07057 0.73448 0.0
H887 H 0.42684 0.11007 0.69344 0.0
H888 H 0.49794 0.16888 0.75015 0.0
H889 H 0.47856 0.14596 0.72804 0.0
H890 H 0.44948 0.09686 0.76398 0.0
C891 C 0.39736 0.06525 0.71933 0.0
C892 C 0.43196 0.10704 0.70876 0.0
C893 C 0.38503 0.0503 0.71091 0.0
C894 C 0.4852 0.16058 0.75639 0.0
C895 C 0.47415 0.14742 0.74377 0.0
C896 C 0.44455 0.1001 0.74864 0.0
C897 C 0.41377 0.07329 0.70843 0.0
C898 C 0.42711 0.08856 0.71829 0.0
C899 C 0.45852 0.13524 0.75181 0.0
C900 C 0.44855 0.11903 0.73962 0.0
H901 H 0.40834 0.04559 0.66509 0.0
H902 H 0.43 0.07216 0.67995 0.0
H903 H 0.43078 0.07089 0.74577 0.0
H904 H 0.46048 0.15122 0.80079 0.0
H905 H 0.4409 0.12902 0.77887 0.0
C906 C 0.86593 0.44638 0.82583 0.0
C907 C 0.85255 0.45981 0.81603 0.0
C908 C 0.87796 0.43304 0.81456 0.0
C909 C 0.90146 0.42753 0.76476 0.0
H910 H 0.90401 0.37006 0.77692 0.0
C911 C 0.94077 0.37242 0.71023 0.0
C912 C 0.95145 0.35582 0.71825 0.0
C913 C 0.92863 0.38444 0.72266 0.0
C914 C 0.90376 0.38611 0.77348 0.0
H915 H 0.84134 0.46972 0.7867 0.0
H916 H 0.86257 0.44676 0.76712 0.0
H917 H 0.88336 0.39234 0.79801 0.0
H918 H 0.95766 0.33876 0.74567 0.0
H919 H 0.937 0.36016 0.76759 0.0
H920 H 0.92217 0.42169 0.74066 0.0
C921 C 0.86368 0.44649 0.7835 0.0
C922 C 0.89185 0.39884 0.78554 0.0
C923 C 0.85144 0.45956 0.79474 0.0
C924 C 0.94954 0.35139 0.73901 0.0
C925 C 0.93759 0.36364 0.75156 0.0
C926 C 0.91358 0.41491 0.7529 0.0
C927 C 0.87711 0.43313 0.79327 0.0
C928 C 0.89038 0.41964 0.78113 0.0
C929 C 0.92708 0.38045 0.74358 0.0
C930 C 0.91471 0.39395 0.75688 0.0
H931 H 0.86711 0.44617 0.84221 0.0
H932 H 0.88825 0.42296 0.82247 0.0
H933 H 0.90088 0.44356 0.76121 0.0
H934 H 0.94172 0.37612 0.69426 0.0
H935 H 0.92039 0.39685 0.71577 0.0
C936 C 0.68071 0.95989 0.73717 0.0
C937 C 0.6786 0.95909 0.71599 0.0
C938 C 0.67005 0.9462 0.74954 0.0
C939 C 0.64243 0.89723 0.74962 0.0
H940 H 0.60875 0.92201 0.7907 0.0
C941 C 0.57446 0.85482 0.78582 0.0
C942 C 0.56934 0.85919 0.806 0.0
C943 C 0.5897 0.86589 0.77592 0.0
C944 C 0.6183 0.91466 0.7796 0.0
H945 H 0.66469 0.94267 0.69114 0.0
H946 H 0.64661 0.91863 0.71259 0.0
H947 H 0.63323 0.94263 0.77229 0.0
H948 H 0.57678 0.87808 0.83184 0.0
H949 H 0.60366 0.89677 0.81494 0.0
H950 H 0.62762 0.86925 0.75688 0.0
C951 C 0.65628 0.92985 0.71971 0.0
C952 C 0.63235 0.92656 0.76903 0.0
C953 C 0.66658 0.9437 0.70742 0.0
C954 C 0.58015 0.87448 0.8162 0.0
C955 C 0.59554 0.88532 0.80643 0.0
C956 C 0.62856 0.88526 0.76037 0.0
C957 C 0.65747 0.93124 0.7409 0.0
C958 C 0.64435 0.91806 0.75371 0.0
C959 C 0.60038 0.88141 0.78605 0.0
C960 C 0.61605 0.89386 0.77532 0.0
H961 H 0.68976 0.97168 0.74418 0.0
H962 H 0.67132 0.94755 0.76585 0.0
H963 H 0.65159 0.89023 0.73797 0.0
H964 H 0.56636 0.84319 0.77752 0.0
H965 H 0.59272 0.86257 0.76015 0.0
C966 C 0.953 0.64434 0.30624 0.0
C967 C 0.96697 0.65755 0.29697 0.0
C968 C 0.93812 0.6345 0.29483 0.0
C969 C 0.92985 0.61483 0.24408 0.0
H970 H 0.87499 0.60506 0.2629 0.0
C971 C 0.87594 0.56378 0.19859 0.0
C972 C 0.86337 0.55035 0.20937 0.0
C973 C 0.88628 0.57935 0.20851 0.0
C974 C 0.8903 0.60746 0.25751 0.0
H975 H 0.9758 0.6714 0.26854 0.0
H976 H 0.94981 0.65386 0.24835 0.0
H977 H 0.89697 0.62854 0.28133 0.0
H978 H 0.85125 0.54311 0.23898 0.0
H979 H 0.8699 0.56997 0.25662 0.0
H980 H 0.92373 0.5932 0.22086 0.0
C981 C 0.95043 0.65122 0.26455 0.0
C982 C 0.90285 0.62103 0.26801 0.0
C983 C 0.96521 0.66135 0.27609 0.0
C984 C 0.8608 0.55327 0.23028 0.0
C985 C 0.87146 0.56874 0.24034 0.0
C986 C 0.91741 0.60113 0.23372 0.0
C987 C 0.93696 0.6374 0.27378 0.0
C988 C 0.92284 0.62473 0.26151 0.0
C989 C 0.88466 0.58176 0.22962 0.0
C990 C 0.89749 0.5971 0.24034 0.0
H991 H 0.95388 0.64117 0.32234 0.0
H992 H 0.92813 0.62386 0.30239 0.0
H993 H 0.94527 0.61703 0.2389 0.0
H994 H 0.87798 0.56214 0.18238 0.0
H995 H 0.89575 0.58937 0.19958 0.0
C996 C 0.3405 0.94123 0.30136 0.0
C997 C 0.32585 0.95394 0.29251 0.0
C998 C 0.35146 0.92758 0.28952 0.0
C999 C 0.37173 0.92266 0.23902 0.0
H1000 H 0.38265 0.8669 0.25413 0.0
C1001 C 0.4251 0.87334 0.19094 0.0
C1002 C 0.43774 0.85949 0.20104 0.0
C1003 C 0.40947 0.88316 0.20124 0.0
C1004 C 0.38001 0.88251 0.2498 0.0
H1005 H 0.31077 0.96194 0.26441 0.0
H1006 H 0.33037 0.93833 0.24353 0.0
H1007 H 0.35845 0.88675 0.27375 0.0
H1008 H 0.44385 0.84496 0.22988 0.0
H1009 H 0.4172 0.86274 0.24817 0.0
H1010 H 0.39393 0.91906 0.21584 0.0
C1011 C 0.33317 0.93885 0.2597 0.0
C1012 C 0.36599 0.89381 0.26096 0.0
C1013 C 0.32189 0.95225 0.27165 0.0
C1014 C 0.43428 0.85548 0.22166 0.0
C1015 C 0.41886 0.86561 0.2321 0.0
C1016 C 0.38598 0.91152 0.22807 0.0
C1017 C 0.34828 0.92662 0.2685 0.0
C1018 C 0.3618 0.91402 0.25574 0.0
C1019 C 0.4063 0.87973 0.22207 0.0
C1020 C 0.39045 0.8913 0.23335 0.0
H1021 H 0.34386 0.94216 0.31742 0.0
H1022 H 0.3631 0.91844 0.29667 0.0
H1023 H 0.36904 0.93833 0.23487 0.0
H1024 H 0.42722 0.87655 0.17497 0.0
H1025 H 0.39987 0.89346 0.19279 0.0
C1026 C 0.62885 0.0682 0.31057 0.0
C1027 C 0.6187 0.05212 0.32019 0.0
C1028 C 0.61808 0.08436 0.30217 0.0
C1029 C 0.56683 0.10846 0.29812 0.0
H1030 H 0.5881 0.12615 0.24626 0.0
C1031 C 0.52698 0.16991 0.24799 0.0
C1032 C 0.52579 0.16512 0.22725 0.0
C1033 C 0.53921 0.15833 0.26111 0.0
C1034 C 0.58188 0.12139 0.26069 0.0
H1035 H 0.58928 0.04075 0.32931 0.0
H1036 H 0.57021 0.0687 0.3139 0.0
H1037 H 0.60674 0.10153 0.2661 0.0
H1038 H 0.53697 0.14476 0.20402 0.0
H1039 H 0.55788 0.12482 0.22661 0.0
H1040 H 0.54134 0.12773 0.29194 0.0
C1041 C 0.5866 0.06906 0.31322 0.0
C1042 C 0.59275 0.10741 0.27229 0.0
C1043 C 0.5975 0.05298 0.32201 0.0
C1044 C 0.53749 0.14896 0.21988 0.0
C1045 C 0.54965 0.13753 0.23287 0.0
C1046 C 0.55583 0.12244 0.28639 0.0
C1047 C 0.59676 0.08472 0.30272 0.0
C1048 C 0.58535 0.10055 0.2911 0.0
C1049 C 0.55059 0.14189 0.25369 0.0
C1050 C 0.56307 0.12881 0.26735 0.0
H1051 H 0.64523 0.06814 0.30923 0.0
H1052 H 0.62654 0.09639 0.29484 0.0
H1053 H 0.56074 0.10375 0.31262 0.0
H1054 H 0.51807 0.18219 0.25417 0.0
H1055 H 0.53971 0.16221 0.27704 0.0
C1056 C 0.69674 0.95127 0.61465 0.0
C1057 C 0.70771 0.96279 0.6288 0.0
C1058 C 0.70684 0.93803 0.60158 0.0
C1059 C 0.75634 0.91172 0.59529 0.0
H1060 H 0.7374 0.90424 0.54013 0.0
C1061 C 0.80167 0.86867 0.53369 0.0
C1062 C 0.79052 0.85367 0.52344 0.0
C1063 C 0.79183 0.88234 0.5465 0.0
C1064 C 0.7428 0.90619 0.55553 0.0
H1065 H 0.73786 0.96997 0.63996 0.0
H1066 H 0.75541 0.94759 0.61685 0.0
H1067 H 0.71944 0.92746 0.56251 0.0
H1068 H 0.76034 0.84142 0.51833 0.0
H1069 H 0.74327 0.86545 0.54039 0.0
H1070 H 0.77998 0.89072 0.58802 0.0
C1071 C 0.73901 0.94812 0.61621 0.0
C1072 C 0.73245 0.91936 0.5684 0.0
C1073 C 0.72893 0.96107 0.62941 0.0
C1074 C 0.76939 0.85273 0.52611 0.0
C1075 C 0.75956 0.86656 0.53861 0.0
C1076 C 0.76684 0.89878 0.58232 0.0
C1077 C 0.72812 0.93629 0.60223 0.0
C1078 C 0.73904 0.92223 0.58848 0.0
C1079 C 0.77067 0.88145 0.54894 0.0
C1080 C 0.76009 0.89583 0.56238 0.0
H1081 H 0.68036 0.95226 0.61389 0.0
H1082 H 0.69793 0.92896 0.59119 0.0
H1083 H 0.76165 0.91321 0.61075 0.0
H1084 H 0.81796 0.86974 0.53191 0.0
H1085 H 0.80069 0.89378 0.55429 0.0
C1086 C 0.11638 0.82227 0.57262 0.0
C1087 C 0.13182 0.81186 0.5623 0.0
C1088 C 0.103 0.8118 0.58539 0.0
C1089 C 0.08067 0.76167 0.59183 0.0
H1090 H 0.06755 0.77829 0.64659 0.0
C1091 C 0.03481 0.70938 0.64352 0.0
C1092 C 0.02014 0.71791 0.6563 0.0
C1093 C 0.04875 0.72165 0.6334 0.0
C1094 C 0.07083 0.77359 0.63123 0.0
H1095 H 0.14555 0.78235 0.55766 0.0
H1096 H 0.12209 0.76416 0.57964 0.0
H1097 H 0.09115 0.79863 0.6263 0.0
H1098 H 0.00892 0.746 0.66895 0.0
H1099 H 0.03298 0.76766 0.65071 0.0
H1100 H 0.06017 0.73702 0.59627 0.0
C1101 C 0.12034 0.7804 0.57785 0.0
C1102 C 0.08438 0.78521 0.61966 0.0
C1103 C 0.13383 0.79086 0.56534 0.0
C1104 C 0.02009 0.73901 0.65921 0.0
C1105 C 0.03393 0.75139 0.6488 0.0
C1106 C 0.06699 0.75024 0.60323 0.0
C1107 C 0.10465 0.7907 0.58782 0.0
C1108 C 0.08964 0.77916 0.59996 0.0
C1109 C 0.04821 0.74286 0.63547 0.0
C1110 C 0.06213 0.75581 0.62321 0.0
H1111 H 0.11448 0.83846 0.57065 0.0
H1112 H 0.09099 0.82008 0.59285 0.0
H1113 H 0.08414 0.75687 0.57653 0.0
H1114 H 0.03545 0.69314 0.6412 0.0
H1115 H 0.05989 0.71444 0.62379 0.0
C1116 C 0.2292 0.14964 0.56274 0.0
C1117 C 0.20846 0.14541 0.56022 0.0
C1118 C 0.24087 0.13828 0.57634 0.0
C1119 C 0.23858 0.10586 0.62139 0.0
H1120 H 0.28687 0.08081 0.59949 0.0
C1121 C 0.28286 0.04294 0.66422 0.0
C1122 C 0.30386 0.04178 0.66109 0.0
C1123 C 0.27116 0.05685 0.65319 0.0
C1124 C 0.27369 0.08797 0.60607 0.0
H1125 H 0.18353 0.1265 0.57047 0.0
H1126 H 0.2039 0.10693 0.59447 0.0
H1127 H 0.2669 0.10344 0.57832 0.0
H1128 H 0.32932 0.05498 0.64502 0.0
H1129 H 0.30925 0.07975 0.62663 0.0
H1130 H 0.2455 0.09071 0.64929 0.0
C1131 C 0.2111 0.11892 0.58583 0.0
C1132 C 0.26221 0.10089 0.59385 0.0
C1133 C 0.1995 0.13004 0.57201 0.0
C1134 C 0.31308 0.05532 0.64749 0.0
C1135 C 0.30152 0.06944 0.63681 0.0
C1136 C 0.25026 0.09317 0.63378 0.0
C1137 C 0.23194 0.12275 0.58791 0.0
C1138 C 0.2445 0.10986 0.60134 0.0
C1139 C 0.28033 0.07008 0.6391 0.0
C1140 C 0.26795 0.08398 0.62625 0.0
H1141 H 0.23651 0.16139 0.55387 0.0
H1142 H 0.25692 0.14157 0.57776 0.0
H1143 H 0.225 0.1127 0.62754 0.0
H1144 H 0.27539 0.03261 0.6746 0.0
H1145 H 0.25488 0.05674 0.65526 0.0
C1146 C 0.86532 0.21362 0.54003 0.0
C1147 C 0.85325 0.22075 0.52402 0.0
C1148 C 0.87502 0.22714 0.55301 0.0
C1149 C 0.87736 0.28078 0.56978 0.0
H1150 H 0.93122 0.26417 0.5867 0.0
C1151 C 0.93951 0.32795 0.61441 0.0
C1152 C 0.94565 0.31803 0.63231 0.0
C1153 C 0.9263 0.31834 0.60079 0.0
C1154 C 0.91621 0.26898 0.58204 0.0
H1155 H 0.84123 0.2476 0.50937 0.0
H1156 H 0.85883 0.27147 0.53181 0.0
H1157 H 0.91212 0.24306 0.56328 0.0
H1158 H 0.94205 0.29062 0.6503 0.0
H1159 H 0.91953 0.27387 0.62635 0.0
H1160 H 0.88202 0.30706 0.58851 0.0
C1161 C 0.8605 0.25537 0.53451 0.0
C1162 C 0.90516 0.25684 0.56878 0.0
C1163 C 0.85046 0.24173 0.52165 0.0
C1164 C 0.9377 0.29871 0.63667 0.0
C1165 C 0.92482 0.28907 0.62298 0.0
C1166 C 0.88863 0.29314 0.58291 0.0
C1167 C 0.87327 0.24818 0.55008 0.0
C1168 C 0.88538 0.26226 0.56289 0.0
C1169 C 0.91934 0.29863 0.60479 0.0
C1170 C 0.90794 0.28704 0.58944 0.0
H1171 H 0.86746 0.19751 0.54244 0.0
H1172 H 0.88414 0.22102 0.56524 0.0
H1173 H 0.86217 0.28539 0.56558 0.0
H1174 H 0.94531 0.34287 0.61068 0.0
H1175 H 0.92227 0.32591 0.58676 0.0
C1176 C 0.69879 0.04948 0.36909 0.0
C1177 C 0.70278 0.04433 0.34883 0.0
C1178 C 0.7107 0.06378 0.37911 0.0
C1179 C 0.73035 0.10245 0.39343 0.0
H1180 H 0.78883 0.10164 0.38778 0.0
C1181 C 0.78178 0.15899 0.4364 0.0
C1182 C 0.79929 0.15069 0.44529 0.0
C1183 C 0.77033 0.1477 0.42254 0.0
C1184 C 0.77251 0.10203 0.38957 0.0
H1185 H 0.72254 0.05013 0.32322 0.0
H1186 H 0.74335 0.07536 0.34075 0.0
H1187 H 0.76815 0.07833 0.36788 0.0
H1188 H 0.81857 0.12407 0.44645 0.0
H1189 H 0.79847 0.10436 0.42275 0.0
H1190 H 0.73472 0.12548 0.41576 0.0
C1191 C 0.73106 0.06813 0.34891 0.0
C1192 C 0.76064 0.08883 0.37797 0.0
C1193 C 0.71913 0.05371 0.33885 0.0
C1194 C 0.8052 0.13098 0.43986 0.0
C1195 C 0.79375 0.1197 0.42611 0.0
C1196 C 0.74221 0.11558 0.40507 0.0
C1197 C 0.72689 0.07341 0.36913 0.0
C1198 C 0.73944 0.08862 0.38005 0.0
C1199 C 0.77612 0.12786 0.41733 0.0
C1200 C 0.76346 0.11528 0.40355 0.0
H1201 H 0.6864 0.04247 0.37729 0.0
H1202 H 0.70734 0.06713 0.39481 0.0
H1203 H 0.71403 0.10294 0.39514 0.0
H1204 H 0.77688 0.17417 0.44017 0.0
H1205 H 0.75695 0.15452 0.41589 0.0
C1206 C 0.95922 0.67464 0.3918 0.0
C1207 C 0.97564 0.68495 0.38301 0.0
C1208 C 0.94447 0.68545 0.40256 0.0
C1209 C 0.93425 0.73402 0.42818 0.0
H1210 H 0.87933 0.72747 0.40813 0.0
C1211 C 0.87238 0.79263 0.44623 0.0
C1212 C 0.85292 0.78519 0.45075 0.0
C1213 C 0.88718 0.77973 0.43832 0.0
C1214 C 0.8945 0.72932 0.41415 0.0
H1215 H 0.99037 0.71415 0.37955 0.0
H1216 H 0.96506 0.73282 0.39868 0.0
H1217 H 0.90592 0.70475 0.39634 0.0
H1218 H 0.83361 0.7585 0.44991 0.0
H1219 H 0.8594 0.73608 0.43657 0.0
H1220 H 0.92297 0.75852 0.44602 0.0
C1221 C 0.96336 0.71655 0.39718 0.0
C1222 C 0.90971 0.71625 0.40743 0.0
C1223 C 0.97779 0.70588 0.38616 0.0
C1224 C 0.8484 0.76479 0.44651 0.0
C1225 C 0.86322 0.75189 0.43879 0.0
C1226 C 0.91903 0.74697 0.43506 0.0
C1227 C 0.94627 0.70657 0.40501 0.0
C1228 C 0.92977 0.71867 0.41415 0.0
C1229 C 0.88291 0.75909 0.43492 0.0
C1230 C 0.89901 0.74499 0.4279 0.0
H1231 H 0.95721 0.65852 0.38942 0.0
H1232 H 0.93144 0.67742 0.40855 0.0
H1233 H 0.9496 0.73613 0.43369 0.0
H1234 H 0.87633 0.80827 0.44925 0.0
H1235 H 0.90206 0.78591 0.43508 0.0
C1236 C 0.29846 0.97033 0.40066 0.0
C1237 C 0.29816 0.96431 0.38026 0.0
C1238 C 0.28698 0.95973 0.41504 0.0
C1239 C 0.26361 0.91141 0.42669 0.0
H1240 H 0.21934 0.94126 0.4511 0.0
C1241 C 0.19892 0.86876 0.4648 0.0
C1242 C 0.19081 0.87661 0.48274 0.0
C1243 C 0.21176 0.88051 0.45283 0.0
C1244 C 0.23179 0.93274 0.44473 0.0
H1245 H 0.2867 0.94211 0.35896 0.0
H1246 H 0.26742 0.92305 0.38426 0.0
H1247 H 0.24465 0.95923 0.43078 0.0
H1248 H 0.18902 0.90302 0.50203 0.0
H1249 H 0.21214 0.92354 0.48146 0.0
H1250 H 0.25129 0.88501 0.44073 0.0
C1251 C 0.2762 0.9361 0.38906 0.0
C1252 C 0.24626 0.94305 0.43311 0.0
C1253 C 0.28719 0.94696 0.37464 0.0
C1254 C 0.19495 0.89676 0.48809 0.0
C1255 C 0.20823 0.90845 0.47631 0.0
C1256 C 0.24943 0.90117 0.43856 0.0
C1257 C 0.27558 0.9427 0.40924 0.0
C1258 C 0.26201 0.93237 0.4237 0.0
C1259 C 0.21726 0.90022 0.45883 0.0
C1260 C 0.23301 0.91159 0.44731 0.0
H1261 H 0.30663 0.98384 0.40525 0.0
H1262 H 0.28669 0.96501 0.43057 0.0
H1263 H 0.27574 0.90293 0.41963 0.0
H1264 H 0.1958 0.85326 0.46033 0.0
H1265 H 0.21779 0.87389 0.43911 0.0
C1266 C 0.15964 0.23612 0.48334 0.0
C1267 C 0.15272 0.21594 0.48329 0.0
C1268 C 0.14922 0.25107 0.47237 0.0
C1269 C 0.0986 0.26057 0.44987 0.0
H1270 H 0.12598 0.30049 0.41638 0.0
C1271 C 0.06506 0.29465 0.37824 0.0
C1272 C 0.06201 0.31572 0.37791 0.0
C1273 C 0.07649 0.28569 0.39355 0.0
C1274 C 0.11821 0.28967 0.42602 0.0
H1275 H 0.13011 0.19543 0.47094 0.0
H1276 H 0.11239 0.22118 0.45159 0.0
H1277 H 0.14596 0.27804 0.4384 0.0
H1278 H 0.06884 0.34401 0.39317 0.0
H1279 H 0.08957 0.3281 0.41997 0.0
H1280 H 0.07102 0.27132 0.43653 0.0
C1281 C 0.12542 0.2257 0.46055 0.0
C1282 C 0.12958 0.27683 0.43858 0.0
C1283 C 0.1357 0.21087 0.47152 0.0
C1284 C 0.07091 0.32772 0.39313 0.0
C1285 C 0.08277 0.31871 0.40834 0.0
C1286 C 0.08733 0.2732 0.43723 0.0
C1287 C 0.13175 0.24604 0.46117 0.0
C1288 C 0.1199 0.26168 0.4501 0.0
C1289 C 0.08541 0.2976 0.40869 0.0
C1290 C 0.09708 0.28744 0.42482 0.0
H1291 H 0.1727 0.24048 0.49231 0.0
H1292 H 0.15449 0.26661 0.47311 0.0
H1293 H 0.09064 0.24943 0.45898 0.0
H1294 H 0.05832 0.28496 0.36682 0.0
H1295 H 0.07843 0.26938 0.39356 0.0
C1296 C 0.65127 0.72 0.97796 0.0
C1297 C 0.66725 0.72837 0.98928 0.0
C1298 C 0.6388 0.73239 0.96618 0.0
C1299 C 0.6345 0.78409 0.94377 0.0
H1300 H 0.57774 0.76892 0.94037 0.0
C1301 C 0.57055 0.83186 0.90448 0.0
C1302 C 0.56063 0.82081 0.88918 0.0
C1303 C 0.58385 0.82206 0.91788 0.0
C1304 C 0.59354 0.77335 0.94129 0.0
H1305 H 0.68294 0.75624 0.99691 0.0
H1306 H 0.66076 0.77803 0.97683 0.0
H1307 H 0.60069 0.74897 0.96134 0.0
H1308 H 0.55648 0.79089 0.87617 0.0
H1309 H 0.57914 0.77385 0.89986 0.0
H1310 H 0.62695 0.80877 0.92384 0.0
C1311 C 0.6581 0.76183 0.97666 0.0
C1312 C 0.60677 0.76183 0.9531 0.0
C1313 C 0.67081 0.74935 0.98822 0.0
C1314 C 0.564 0.79984 0.88772 0.0
C1315 C 0.57687 0.79005 0.90132 0.0
C1316 C 0.62113 0.79584 0.93217 0.0
C1317 C 0.64175 0.75353 0.96572 0.0
C1318 C 0.62753 0.76674 0.95414 0.0
C1319 C 0.58695 0.80105 0.91645 0.0
C1320 C 0.60065 0.79028 0.93054 0.0
H1321 H 0.64829 0.70385 0.97832 0.0
H1322 H 0.62676 0.72534 0.9575 0.0
H1323 H 0.65039 0.78826 0.94405 0.0
H1324 H 0.56826 0.84805 0.90588 0.0
H1325 H 0.5915 0.8308 0.92951 0.0
C1326 C 0.28237 0.65168 0.93599 0.0
C1327 C 0.299 0.64305 0.94616 0.0
C1328 C 0.27168 0.64059 0.92139 0.0
C1329 C 0.27568 0.59496 0.8885 0.0
H1330 H 0.21713 0.59938 0.88648 0.0
C1331 C 0.22729 0.54998 0.83039 0.0
C1332 C 0.20933 0.54132 0.83794 0.0
C1333 C 0.23826 0.564 0.84201 0.0
C1334 C 0.23347 0.59788 0.88689 0.0
H1335 H 0.3173 0.6159 0.94912 0.0
H1336 H 0.29838 0.59644 0.92416 0.0
H1337 H 0.23622 0.62015 0.91021 0.0
H1338 H 0.1888 0.54071 0.86364 0.0
H1339 H 0.20797 0.56462 0.88387 0.0
H1340 H 0.27282 0.57198 0.86582 0.0
C1341 C 0.29386 0.61194 0.92703 0.0
C1342 C 0.24446 0.61001 0.90034 0.0
C1343 C 0.30462 0.62306 0.9415 0.0
C1344 C 0.2025 0.54713 0.85725 0.0
C1345 C 0.21345 0.56101 0.86884 0.0
C1346 C 0.26467 0.58272 0.87512 0.0
C1347 C 0.27729 0.62057 0.91672 0.0
C1348 C 0.2657 0.60852 0.90152 0.0
C1349 C 0.2315 0.56961 0.86144 0.0
C1350 C 0.24339 0.58381 0.87436 0.0
H1351 H 0.27773 0.6671 0.93912 0.0
H1352 H 0.25917 0.64783 0.91359 0.0
H1353 H 0.29205 0.59365 0.88873 0.0
H1354 H 0.23294 0.54586 0.81555 0.0
H1355 H 0.25199 0.57048 0.83576 0.0
C1356 C 0.39238 0.31066 0.94979 0.0
C1357 C 0.37225 0.30508 0.95399 0.0
C1358 C 0.40494 0.29785 0.93856 0.0
C1359 C 0.4252 0.27319 0.90557 0.0
H1360 H 0.42057 0.21503 0.91305 0.0
C1361 C 0.46707 0.21771 0.85339 0.0
C1362 C 0.47586 0.20037 0.86215 0.0
C1363 C 0.45398 0.22994 0.86455 0.0
C1364 C 0.42221 0.23122 0.9109 0.0
H1365 H 0.34937 0.28188 0.94921 0.0
H1366 H 0.37104 0.25987 0.92922 0.0
H1367 H 0.39926 0.23766 0.93281 0.0
H1368 H 0.47746 0.18207 0.88944 0.0
H1369 H 0.45485 0.20369 0.90913 0.0
H1370 H 0.4486 0.26682 0.88416 0.0
C1371 C 0.37734 0.27388 0.93503 0.0
C1372 C 0.40977 0.24423 0.92204 0.0
C1373 C 0.36485 0.2866 0.94637 0.0
C1374 C 0.47087 0.19528 0.88223 0.0
C1375 C 0.45786 0.20766 0.89349 0.0
C1376 C 0.4377 0.26021 0.89452 0.0
C1377 C 0.39762 0.27923 0.93113 0.0
C1378 C 0.41104 0.26538 0.91945 0.0
C1379 C 0.44944 0.22529 0.88485 0.0
C1380 C 0.4363 0.23905 0.89694 0.0
H1381 H 0.3986 0.32473 0.95555 0.0
H1382 H 0.42054 0.30238 0.93608 0.0
H1383 H 0.42649 0.28936 0.903 0.0
H1384 H 0.47041 0.22196 0.83788 0.0
H1385 H 0.44742 0.2431 0.85721 0.0
C1386 C 0.66689 0.39825 0.96016 0.0
C1387 C 0.67921 0.38314 0.96883 0.0
C1388 C 0.67337 0.40885 0.94285 0.0
C1389 C 0.70868 0.40336 0.89987 0.0
H1390 H 0.70896 0.46206 0.89709 0.0
C1391 C 0.76871 0.44882 0.85797 0.0
C1392 C 0.76347 0.46672 0.84773 0.0
C1393 C 0.75405 0.43774 0.86841 0.0
C1394 C 0.70854 0.44564 0.89739 0.0
H1395 H 0.70834 0.36799 0.96662 0.0
H1396 H 0.7195 0.38637 0.93688 0.0
H1397 H 0.69132 0.44497 0.92496 0.0
H1398 H 0.73872 0.48674 0.83964 0.0
H1399 H 0.71293 0.46742 0.85841 0.0
H1400 H 0.72674 0.40399 0.87297 0.0
C1401 C 0.70469 0.38978 0.94307 0.0
C1402 C 0.69849 0.43588 0.91337 0.0
C1403 C 0.69833 0.37935 0.96027 0.0
C1404 C 0.74308 0.47286 0.84728 0.0
C1405 C 0.7284 0.46193 0.85812 0.0
C1406 C 0.71872 0.41308 0.88399 0.0
C1407 C 0.69217 0.40435 0.93391 0.0
C1408 C 0.69921 0.41467 0.91519 0.0
C1409 C 0.73387 0.4445 0.86913 0.0
C1410 C 0.71944 0.43432 0.88304 0.0
H1411 H 0.65207 0.4015 0.96638 0.0
H1412 H 0.66347 0.42012 0.93614 0.0
H1413 H 0.70907 0.38696 0.90064 0.0
H1414 H 0.78433 0.4438 0.85857 0.0
H1415 H 0.75879 0.4245 0.87692 0.0
C1416 C 0.60843 0.31855 0.05642 0.0
C1417 C 0.62535 0.31109 0.04597 0.0
C1418 C 0.59608 0.30539 0.06767 0.0
C1419 C 0.59526 0.25324 0.09013 0.0
H1420 H 0.53749 0.26336 0.0935 0.0
C1421 C 0.53703 0.19678 0.12559 0.0
C1422 C 0.52457 0.20555 0.14041 0.0
C1423 C 0.54937 0.20904 0.11332 0.0
C1424 C 0.55362 0.26037 0.09266 0.0
H1425 H 0.64234 0.28392 0.03875 0.0
H1426 H 0.62055 0.26104 0.05757 0.0
H1427 H 0.55887 0.28613 0.07367 0.0
H1428 H 0.51496 0.23404 0.15371 0.0
H1429 H 0.53608 0.25526 0.13211 0.0
H1430 H 0.58973 0.22716 0.10883 0.0
C1431 C 0.61708 0.27707 0.05779 0.0
C1432 C 0.56593 0.27351 0.08145 0.0
C1433 C 0.62957 0.29023 0.04686 0.0
C1434 C 0.52449 0.22677 0.14253 0.0
C1435 C 0.53646 0.23897 0.13007 0.0
C1436 C 0.58288 0.23992 0.10107 0.0
C1437 C 0.60019 0.28443 0.06843 0.0
C1438 C 0.58697 0.27025 0.08017 0.0
C1439 C 0.54906 0.23026 0.1154 0.0
C1440 C 0.56198 0.24348 0.10261 0.0
H1441 H 0.60484 0.33456 0.05607 0.0
H1442 H 0.58343 0.31173 0.07593 0.0
H1443 H 0.61142 0.25037 0.08986 0.0
H1444 H 0.5374 0.18049 0.12363 0.0
H1445 H 0.55896 0.20199 0.10206 0.0
C1446 C 0.81152 0.54923 0.13096 0.0
C1447 C 0.83209 0.54454 0.12824 0.0
C1448 C 0.80329 0.5667 0.12252 0.0
C1449 C 0.80813 0.60578 0.08392 0.0
H1450 H 0.77441 0.63572 0.12154 0.0
C1451 C 0.75958 0.67498 0.05936 0.0
C1452 C 0.73902 0.67206 0.06417 0.0
C1453 C 0.77449 0.66275 0.06829 0.0
C1454 C 0.78389 0.62763 0.1109 0.0
H1455 H 0.85992 0.55382 0.11343 0.0
H1456 H 0.84527 0.58467 0.09829 0.0
H1457 H 0.79401 0.60682 0.13361 0.0
H1458 H 0.71801 0.65502 0.08285 0.0
H1459 H 0.74393 0.63412 0.09873 0.0
H1460 H 0.79726 0.62624 0.06103 0.0
C1461 C 0.83567 0.57472 0.10718 0.0
C1462 C 0.79505 0.61107 0.11777 0.0
C1463 C 0.844 0.55707 0.11573 0.0
C1464 C 0.73375 0.65762 0.0789 0.0
C1465 C 0.74861 0.64569 0.08803 0.0
C1466 C 0.79691 0.62245 0.07701 0.0
C1467 C 0.8154 0.57999 0.11113 0.0
C1468 C 0.80664 0.59949 0.10422 0.0
C1469 C 0.76906 0.64775 0.08244 0.0
C1470 C 0.7841 0.63303 0.09032 0.0
H1471 H 0.80184 0.53972 0.14026 0.0
H1472 H 0.78747 0.57007 0.12531 0.0
H1473 H 0.81697 0.59712 0.07318 0.0
H1474 H 0.76402 0.68589 0.0479 0.0
H1475 H 0.79017 0.66467 0.06379 0.0
C1476 C 0.34438 0.73075 0.03144 0.0
C1477 C 0.35467 0.71951 0.0167 0.0
C1478 C 0.35465 0.74573 0.04249 0.0
C1479 C 0.40762 0.76176 0.05516 0.0
H1480 H 0.38064 0.80818 0.07883 0.0
C1481 C 0.4491 0.82761 0.09605 0.0
C1482 C 0.44599 0.82581 0.11704 0.0
C1483 C 0.43659 0.81714 0.08248 0.0
C1484 C 0.38829 0.79532 0.07213 0.0
H1485 H 0.3831 0.7158 1.00084 0.0
H1486 H 0.4006 0.74265 0.01892 0.0
H1487 H 0.36151 0.78514 0.05685 0.0
H1488 H 0.42675 0.81271 0.14027 0.0
H1489 H 0.40451 0.79491 0.11641 0.0
H1490 H 0.43448 0.7724 0.0701 0.0
C1491 C 0.38504 0.73937 0.02298 0.0
C1492 C 0.37736 0.78199 0.05973 0.0
C1493 C 0.37498 0.72408 0.01244 0.0
C1494 C 0.42953 0.81426 0.12416 0.0
C1495 C 0.41676 0.8042 0.11058 0.0
C1496 C 0.41858 0.77533 0.06712 0.0
C1497 C 0.37525 0.75005 0.03859 0.0
C1498 C 0.38684 0.76489 0.05119 0.0
C1499 C 0.42049 0.80521 0.08971 0.0
C1500 C 0.40898 0.79207 0.0758 0.0
H1501 H 0.32869 0.7274 0.03497 0.0
H1502 H 0.34659 0.75339 0.0545 0.0
H1503 H 0.41544 0.74855 0.04948 0.0
H1504 H 0.46173 0.83634 0.09018 0.0
H1505 H 0.43975 0.81793 0.06639 0.0
C1506 C 0.3072 0.37384 0.0441 0.0
C1507 C 0.31616 0.38009 0.02586 0.0
C1508 C 0.29626 0.38753 0.05578 0.0
C1509 C 0.26289 0.42945 0.05187 0.0
H1510 H 0.27305 0.43637 0.10932 0.0
C1511 C 0.2119 0.47817 0.10498 0.0
C1512 C 0.21011 0.47133 0.12506 0.0
C1513 C 0.22492 0.46823 0.09152 0.0
C1514 C 0.26982 0.4344 0.09335 0.0
H1515 H 0.32103 0.4054 0.00547 0.0
H1516 H 0.30112 0.42946 0.02582 0.0
H1517 H 0.2973 0.41785 0.08871 0.0
H1518 H 0.21899 0.44808 0.14648 0.0
H1519 H 0.24067 0.43009 0.12287 0.0
H1520 H 0.23484 0.44506 0.05665 0.0
C1521 C 0.30296 0.41403 0.03113 0.0
C1522 C 0.28386 0.42402 0.08155 0.0
C1523 C 0.31442 0.40038 0.01965 0.0
C1524 C 0.22028 0.45369 0.13108 0.0
C1525 C 0.23291 0.44358 0.11761 0.0
C1526 C 0.24861 0.43962 0.06376 0.0
C1527 C 0.29367 0.40759 0.04917 0.0
C1528 C 0.28034 0.42116 0.06082 0.0
C1529 C 0.23609 0.45119 0.09794 0.0
C1530 C 0.2517 0.44178 0.08475 0.0
H1531 H 0.30831 0.35822 0.04911 0.0
H1532 H 0.28911 0.38223 0.06959 0.0
H1533 H 0.25983 0.42721 0.03589 0.0
H1534 H 0.20433 0.49191 0.10012 0.0
H1535 H 0.22699 0.4745 0.07649 0.0
C1536 C 0.85681 0.55383 0.81338 0.0
C1537 C 0.83731 0.54921 0.80605 0.0
C1538 C 0.86848 0.56892 0.80417 0.0
C1539 C 0.86672 0.61327 0.77001 0.0
H1540 H 0.92155 0.59701 0.75657 0.0
C1541 C 0.92774 0.66486 0.73058 0.0
C1542 C 0.93712 0.65551 0.71391 0.0
C1543 C 0.91479 0.65369 0.74325 0.0
C1544 C 0.90631 0.6018 0.76032 0.0
H1545 H 0.8145 0.55732 0.78373 0.0
H1546 H 0.83502 0.58366 0.76755 0.0
H1547 H 0.90017 0.57435 0.77645 0.0
H1548 H 0.93988 0.62724 0.69728 0.0
H1549 H 0.91767 0.60799 0.71937 0.0
H1550 H 0.87295 0.64063 0.75338 0.0
C1551 C 0.84117 0.57564 0.78051 0.0
C1552 C 0.89412 0.5889 0.77181 0.0
C1553 C 0.8295 0.56045 0.78968 0.0
C1554 C 0.933 0.63497 0.70999 0.0
C1555 C 0.92034 0.62385 0.7227 0.0
C1556 C 0.87906 0.62632 0.75864 0.0
C1557 C 0.8609 0.57979 0.78748 0.0
C1558 C 0.8741 0.59435 0.77653 0.0
C1559 C 0.91132 0.63299 0.73957 0.0
C1560 C 0.89882 0.62048 0.75338 0.0
H1561 H 0.86326 0.54558 0.82606 0.0
H1562 H 0.88355 0.57194 0.81 0.0
H1563 H 0.85139 0.61789 0.77358 0.0
H1564 H 0.93058 0.68067 0.73395 0.0
H1565 H 0.90796 0.66104 0.7562 0.0
C1566 C 0.88867 0.46613 0.21656 0.0
C1567 C 0.89148 0.46676 0.19546 0.0
C1568 C 0.90109 0.4542 0.22882 0.0
C1569 C 0.9501 0.42649 0.22963 0.0
H1570 H 0.92626 0.40148 0.27728 0.0
C1571 C 0.99068 0.36626 0.27911 0.0
C1572 C 0.99061 0.36974 0.30014 0.0
C1573 C 0.97891 0.37816 0.26612 0.0
C1574 C 0.93313 0.4085 0.26411 0.0
H1575 H 0.9096 0.45539 0.17064 0.0
H1576 H 0.93098 0.43381 0.19204 0.0
H1577 H 0.905 0.4212 0.2544 0.0
H1578 H 0.97805 0.38834 0.32405 0.0
H1579 H 0.957 0.40888 0.30126 0.0
H1580 H 0.97813 0.41306 0.23922 0.0
C1581 C 0.91941 0.44295 0.19917 0.0
C1582 C 0.921 0.41989 0.25099 0.0
C1583 C 0.90711 0.45521 0.18686 0.0
C1584 C 0.97841 0.38531 0.30792 0.0
C1585 C 0.96634 0.397 0.29492 0.0
C1586 C 0.96217 0.4148 0.24261 0.0
C1587 C 0.91649 0.44225 0.22033 0.0
C1588 C 0.92934 0.42926 0.23368 0.0
C1589 C 0.96657 0.39357 0.27389 0.0
C1590 C 0.95382 0.40587 0.26006 0.0
H1591 H 0.87698 0.4751 0.22373 0.0
H1592 H 0.89869 0.45459 0.24504 0.0
H1593 H 0.95715 0.43367 0.21666 0.0
H1594 H 1.00001 0.35446 0.27262 0.0
H1595 H 0.97925 0.37511 0.24999 0.0
C1596 C 0.63942 0.97414 0.26064 0.0
C1597 C 0.63726 0.97172 0.28169 0.0
C1598 C 0.62662 0.96362 0.24727 0.0
C1599 C 0.57634 0.93845 0.24717 0.0
H1600 H 0.5935 0.91521 0.19609 0.0
C1601 C 0.52855 0.8797 0.20497 0.0
C1602 C 0.5252 0.88276 0.18415 0.0
C1603 C 0.54264 0.8915 0.21544 0.0
C1604 C 0.5885 0.92184 0.21022 0.0
H1605 H 0.62107 0.95541 0.30523 0.0
H1606 H 0.59938 0.93672 0.28213 0.0
H1607 H 0.6181 0.93354 0.21717 0.0
H1608 H 0.5343 0.90039 0.15788 0.0
H1609 H 0.55929 0.92096 0.17632 0.0
H1610 H 0.54697 0.92634 0.24056 0.0
C1611 C 0.61032 0.94725 0.27582 0.0
C1612 C 0.60254 0.93234 0.22227 0.0
C1613 C 0.62287 0.95786 0.28908 0.0
C1614 C 0.53648 0.89776 0.17395 0.0
C1615 C 0.55084 0.90943 0.18443 0.0
C1616 C 0.56244 0.92785 0.23528 0.0
C1617 C 0.61159 0.95042 0.25479 0.0
C1618 C 0.59668 0.94042 0.24109 0.0
C1619 C 0.55388 0.90651 0.20532 0.0
C1620 C 0.56844 0.91915 0.21687 0.0
H1621 H 0.65037 0.98477 0.25453 0.0
H1622 H 0.62799 0.96642 0.23115 0.0
H1623 H 0.57112 0.945 0.26125 0.0
H1624 H 0.52015 0.86828 0.21329 0.0
H1625 H 0.54485 0.88879 0.23149 0.0
C1626 C 0.1592 0.54641 0.22071 0.0
C1627 C 0.15234 0.54037 0.20145 0.0
C1628 C 0.14621 0.55625 0.23415 0.0
C1629 C 0.1128 0.56586 0.26404 0.0
H1630 H 0.07602 0.60723 0.24436 0.0
C1631 C 0.05329 0.60584 0.31539 0.0
C1632 C 0.05081 0.62675 0.31211 0.0
C1633 C 0.06532 0.59432 0.30224 0.0
C1634 C 0.08628 0.59578 0.25013 0.0
H1635 H 0.12644 0.54017 0.18113 0.0
H1636 H 0.10369 0.55726 0.20467 0.0
H1637 H 0.0978 0.58957 0.22053 0.0
H1638 H 0.05972 0.65207 0.29296 0.0
H1639 H 0.08077 0.6322 0.27051 0.0
H1640 H 0.10167 0.57259 0.29377 0.0
C1641 C 0.11921 0.55455 0.2093 0.0
C1642 C 0.0986 0.58547 0.23642 0.0
C1643 C 0.13225 0.54473 0.1958 0.0
C1644 C 0.06107 0.63595 0.29583 0.0
C1645 C 0.07306 0.62452 0.28282 0.0
C1646 C 0.10047 0.57621 0.27779 0.0
C1647 C 0.126 0.56027 0.22871 0.0
C1648 C 0.11219 0.57055 0.24321 0.0
C1649 C 0.07508 0.60352 0.28562 0.0
C1650 C 0.08727 0.5915 0.27102 0.0
H1651 H 0.17461 0.54337 0.22554 0.0
H1652 H 0.15208 0.56082 0.24879 0.0
H1653 H 0.12286 0.55422 0.26976 0.0
H1654 H 0.04554 0.59831 0.32777 0.0
H1655 H 0.06654 0.57814 0.30478 0.0
C1656 C 0.44847 0.11517 0.19561 0.0
C1657 C 0.44808 0.13612 0.19938 0.0
C1658 C 0.43677 0.1019 0.20746 0.0
C1659 C 0.41338 0.09959 0.25808 0.0
H1660 H 0.38245 0.05435 0.23682 0.0
C1661 C 0.37196 0.04277 0.31039 0.0
C1662 C 0.35229 0.03707 0.30444 0.0
C1663 C 0.3844 0.05378 0.2972 0.0
C1664 C 0.39098 0.06698 0.24295 0.0
H1665 H 0.43414 0.15971 0.21751 0.0
H1666 H 0.41374 0.13676 0.23775 0.0
H1667 H 0.40219 0.07564 0.21367 0.0
H1668 H 0.33022 0.03864 0.28001 0.0
H1669 H 0.35178 0.05807 0.25724 0.0
H1670 H 0.40186 0.09138 0.28722 0.0
C1671 C 0.42342 0.13045 0.22613 0.0
C1672 C 0.40242 0.07902 0.22973 0.0
C1673 C 0.43505 0.14361 0.21441 0.0
C1674 C 0.34529 0.04276 0.2851 0.0
C1675 C 0.35772 0.05374 0.27194 0.0
C1676 C 0.40202 0.08756 0.27126 0.0
C1677 C 0.42456 0.10943 0.2232 0.0
C1678 C 0.41347 0.09566 0.23713 0.0
C1679 C 0.37745 0.05931 0.27779 0.0
C1680 C 0.39047 0.07128 0.26384 0.0
H1681 H 0.4584 0.10898 0.18414 0.0
H1682 H 0.4379 0.08574 0.20485 0.0
H1683 H 0.42202 0.11211 0.26429 0.0
H1684 H 0.37786 0.03851 0.32513 0.0
H1685 H 0.39959 0.05771 0.3021 0.0
C1686 C 0.04621 0.36065 0.70664 0.0
C1687 C 0.03766 0.36716 0.68822 0.0
C1688 C 0.06271 0.37084 0.71504 0.0
C1689 C 0.10487 0.40582 0.70473 0.0
H1690 H 0.09883 0.41851 0.76174 0.0
C1691 C 0.15666 0.46169 0.74993 0.0
C1692 C 0.15929 0.45752 0.77063 0.0
C1693 C 0.14435 0.44908 0.73802 0.0
C1694 C 0.10101 0.41479 0.74591 0.0
H1695 H 0.04026 0.3891 0.66379 0.0
H1696 H 0.06924 0.40706 0.67866 0.0
H1697 H 0.07226 0.39996 0.74438 0.0
H1698 H 0.15299 0.43619 0.79479 0.0
H1699 H 0.13246 0.41369 0.77394 0.0
H1700 H 0.13379 0.42078 0.70641 0.0
C1701 C 0.06308 0.39398 0.68648 0.0
C1702 C 0.08569 0.40423 0.73594 0.0
C1703 C 0.04643 0.38378 0.67806 0.0
C1704 C 0.15099 0.43976 0.77886 0.0
C1705 C 0.13908 0.42702 0.76696 0.0
C1706 C 0.12038 0.41636 0.7148 0.0
C1707 C 0.07113 0.38779 0.70524 0.0
C1708 C 0.08749 0.39948 0.71532 0.0
C1709 C 0.13474 0.43206 0.74669 0.0
C1710 C 0.11868 0.42078 0.73558 0.0
H1711 H 0.03999 0.3478 0.7148 0.0
H1712 H 0.0688 0.36555 0.72937 0.0
H1713 H 0.10663 0.40231 0.68881 0.0
H1714 H 0.16281 0.47545 0.74335 0.0
H1715 H 0.14131 0.45341 0.72247 0.0
C1716 C 0.54792 0.11046 0.80438 0.0
C1717 C 0.55494 0.12989 0.80943 0.0
C1718 C 0.55903 0.0983 0.79104 0.0
C1719 C 0.5982 0.10428 0.75089 0.0
H1720 H 0.59867 0.04552 0.75147 0.0
C1721 C 0.6544 0.05503 0.70604 0.0
C1722 C 0.64615 0.03928 0.69433 0.0
C1723 C 0.6421 0.06623 0.71902 0.0
C1724 C 0.59844 0.06194 0.75106 0.0
H1725 H 0.57952 0.15136 0.80598 0.0
H1726 H 0.59959 0.12976 0.78395 0.0
H1727 H 0.5808 0.06385 0.7782 0.0
H1728 H 0.61861 0.02297 0.68679 0.0
H1729 H 0.59706 0.04237 0.71007 0.0
H1730 H 0.61658 0.10226 0.72423 0.0
C1731 C 0.58514 0.12413 0.78934 0.0
C1732 C 0.58822 0.07246 0.76635 0.0
C1733 C 0.57384 0.1364 0.80223 0.0
C1734 C 0.62527 0.03519 0.6955 0.0
C1735 C 0.61302 0.04612 0.7089 0.0
C1736 C 0.60868 0.09378 0.73588 0.0
C1737 C 0.57748 0.1053 0.78281 0.0
C1738 C 0.58814 0.09381 0.76657 0.0
C1739 C 0.62142 0.06159 0.72089 0.0
C1740 C 0.60899 0.07255 0.7359 0.0
H1741 H 0.5332 0.1053 0.80953 0.0
H1742 H 0.55256 0.08397 0.78633 0.0
H1743 H 0.59797 0.12067 0.75008 0.0
H1744 H 0.67047 0.05844 0.70544 0.0
H1745 H 0.64892 0.07805 0.72817 0.0
C1746 C 0.47699 0.87435 0.80192 0.0
C1747 C 0.48033 0.87743 0.82273 0.0
C1748 C 0.46251 0.88567 0.79148 0.0
C1749 C 0.41579 0.91452 0.79665 0.0
H1750 H 0.43246 0.93814 0.74544 0.0
C1751 C 0.36376 0.96586 0.74635 0.0
C1752 C 0.366 0.96384 0.72527 0.0
C1753 C 0.37667 0.95536 0.75963 0.0
C1754 C 0.42743 0.93144 0.75957 0.0
H1755 H 0.47076 0.89462 0.849 0.0
H1756 H 0.44507 0.91438 0.8306 0.0
H1757 H 0.45712 0.92025 0.7662 0.0
H1758 H 0.38245 0.94819 0.7016 0.0
H1759 H 0.40433 0.92949 0.72457 0.0
H1760 H 0.3859 0.92534 0.78971 0.0
C1761 C 0.45384 0.90317 0.82248 0.0
C1762 C 0.44163 0.92129 0.77151 0.0
C1763 C 0.4686 0.89197 0.83295 0.0
C1764 C 0.38055 0.9503 0.71777 0.0
C1765 C 0.39321 0.9397 0.73096 0.0
C1766 C 0.40146 0.92458 0.78456 0.0
C1767 C 0.45084 0.90024 0.80159 0.0
C1768 C 0.43591 0.91244 0.79 0.0
C1769 C 0.39191 0.94256 0.75203 0.0
C1770 C 0.40706 0.93282 0.76568 0.0
H1771 H 0.48571 0.86328 0.79357 0.0
H1772 H 0.46035 0.88293 0.77543 0.0
H1773 H 0.411 0.90777 0.81084 0.0
H1774 H 0.3527 0.97625 0.75255 0.0
H1775 H 0.37525 0.95793 0.77577 0.0
loop_
_geom_bond_atom_site_label_1
_geom_bond_atom_site_label_2
_geom_bond_distance
_geom_bond_site_symmetry_2
_ccdc_geom_bond_type
C0 O2 1.247 . S
C0 O4 1.258 . S
C1 O8 1.247 . S
C1 O9 1.258 . S
O2 C0 1.247 . S
O2 Zn3 2.028 . S
Zn3 O2 2.028 . S
Zn3 O7 2.035 . S
Zn3 O9 2.035 1_545 S
Zn3 O10 2.028 1_545 S
O4 C0 1.258 . S
O4 Zn5 2.035 . S
Zn5 O4 2.035 . S
Zn5 O6 2.028 . S
Zn5 O8 2.028 1_545 S
Zn5 O11 2.035 1_545 S
O6 Zn5 2.028 . S
O6 C12 1.247 . S
O7 Zn3 2.035 . S
O7 C12 1.258 . S
O8 C1 1.247 . S
O8 Zn5 2.028 1_565 S
O9 C1 1.258 . S
O9 Zn3 2.035 1_565 S
O10 Zn3 2.028 1_565 S
O10 C13 1.247 . S
O11 Zn5 2.035 1_565 S
O11 C13 1.258 . S
C12 O6 1.247 . S
C12 O7 1.258 . S
C13 O10 1.247 . S
C13 O11 1.258 . S
C14 O16 1.247 . S
C14 O18 1.258 . S
C15 O22 1.247 . S
C15 O23 1.258 . S
O16 C14 1.247 . S
O16 Zn17 2.028 . S
Zn17 O16 2.028 . S
Zn17 O21 2.035 . S
Zn17 O23 2.035 1_455 S
Zn17 O24 2.028 1_455 S
O18 C14 1.258 . S
O18 Zn19 2.035 . S
Zn19 O18 2.035 . S
Zn19 O20 2.028 . S
Zn19 O22 2.028 1_455 S
Zn19 O25 2.035 1_455 S
O20 Zn19 2.028 . S
O20 C26 1.247 . S
O21 Zn17 2.035 . S
O21 C26 1.258 . S
O22 C15 1.247 . S
O22 Zn19 2.028 1_655 S
O23 C15 1.258 . S
O23 Zn17 2.035 1_655 S
O24 Zn17 2.028 1_655 S
O24 C27 1.247 . S
O25 Zn19 2.035 1_655 S
O25 C27 1.258 . S
C26 O20 1.247 . S
C26 O21 1.258 . S
C27 O24 1.247 . S
C27 O25 1.258 . S
C28 O30 1.247 . S
C28 O32 1.258 . S
C29 O36 1.247 . S
C29 O37 1.258 . S
O30 C28 1.247 . S
O30 Zn31 2.028 1_565 S
Zn31 O30 2.028 1_545 S
Zn31 O35 2.035 1_545 S
Zn31 O37 2.035 . S
Zn31 O38 2.028 . S
O32 C28 1.258 . S
O32 Zn33 2.035 1_565 S
Zn33 O32 2.035 1_545 S
Zn33 O34 2.028 1_545 S
Zn33 O36 2.028 . S
Zn33 O39 2.035 . S
O34 Zn33 2.028 1_565 S
O34 C40 1.247 . S
O35 Zn31 2.035 1_565 S
O35 C40 1.258 . S
O36 C29 1.247 . S
O36 Zn33 2.028 . S
O37 C29 1.258 . S
O37 Zn31 2.035 . S
O38 Zn31 2.028 . S
O38 C41 1.247 . S
O39 Zn33 2.035 . S
O39 C41 1.258 . S
C40 O34 1.247 . S
C40 O35 1.258 . S
C41 O38 1.247 . S
C41 O39 1.258 . S
C42 O44 1.247 . S
C42 O46 1.258 . S
C43 O50 1.247 . S
C43 O51 1.258 . S
O44 C42 1.247 . S
O44 Zn45 2.028 . S
Zn45 O44 2.028 . S
Zn45 O49 2.035 . S
Zn45 O51 2.035 1_455 S
Zn45 O52 2.028 1_455 S
O46 C42 1.258 . S
O46 Zn47 2.035 . S
Zn47 O46 2.035 . S
Zn47 O48 2.028 . S
Zn47 O50 2.028 1_455 S
Zn47 O53 2.035 1_455 S
O48 Zn47 2.028 . S
O48 C54 1.247 . S
O49 Zn45 2.035 . S
O49 C54 1.258 . S
O50 C43 1.247 . S
O50 Zn47 2.028 1_655 S
O51 C43 1.258 . S
O51 Zn45 2.035 1_655 S
O52 Zn45 2.028 1_655 S
O52 C55 1.247 . S
O53 Zn47 2.035 1_655 S
O53 C55 1.258 . S
C54 O48 1.247 . S
C54 O49 1.258 . S
C55 O52 1.247 . S
C55 O53 1.258 . S
C56 O58 1.247 . S
C56 O60 1.258 . S
C57 O64 1.247 . S
C57 O65 1.258 . S
O58 C56 1.247 . S
O58 Zn59 2.028 . S
Zn59 O58 2.028 . S
Zn59 O63 2.035 . S
Zn59 O65 2.035 1_545 S
Zn59 O66 2.028 1_545 S
O60 C56 1.258 . S
O60 Zn61 2.035 . S
Zn61 O60 2.035 . S
Zn61 O62 2.028 . S
Zn61 O64 2.028 1_545 S
Zn61 O67 2.035 1_545 S
O62 Zn61 2.028 . S
O62 C68 1.247 . S
O63 Zn59 2.035 . S
O63 C68 1.258 . S
O64 C57 1.247 . S
O64 Zn61 2.028 1_565 S
O65 C57 1.258 . S
O65 Zn59 2.035 1_565 S
O66 Zn59 2.028 1_565 S
O66 C69 1.247 . S
O67 Zn61 2.035 1_565 S
O67 C69 1.258 . S
C68 O62 1.247 . S
C68 O63 1.258 . S
C69 O66 1.247 . S
C69 O67 1.258 . S
C70 O72 1.247 . S
C70 O74 1.258 . S
C71 O78 1.247 . S
C71 O79 1.258 . S
O72 C70 1.247 . S
O72 Zn73 2.028 . S
Zn73 O72 2.028 . S
Zn73 O77 2.035 . S
Zn73 O79 2.035 1_455 S
Zn73 O80 2.028 1_455 S
O74 C70 1.258 . S
O74 Zn75 2.035 . S
Zn75 O74 2.035 . S
Zn75 O76 2.028 . S
Zn75 O78 2.028 1_455 S
Zn75 O81 2.035 1_455 S
O76 Zn75 2.028 . S
O76 C82 1.247 . S
O77 Zn73 2.035 . S
O77 C82 1.258 . S
O78 C71 1.247 . S
O78 Zn75 2.028 1_655 S
O79 C71 1.258 . S
O79 Zn73 2.035 1_655 S
O80 Zn73 2.028 1_655 S
O80 C83 1.247 . S
O81 Zn75 2.035 1_655 S
O81 C83 1.258 . S
C82 O76 1.247 . S
C82 O77 1.258 . S
C83 O80 1.247 . S
C83 O81 1.258 . S
C84 O86 1.247 . S
C84 O88 1.258 . S
C85 O92 1.247 . S
C85 O93 1.258 . S
O86 C84 1.247 . S
O86 Zn87 2.028 . S
Zn87 O86 2.028 . S
Zn87 O91 2.035 . S
Zn87 O93 2.035 1_545 S
Zn87 O94 2.028 1_545 S
O88 C84 1.258 . S
O88 Zn89 2.035 . S
Zn89 O88 2.035 . S
Zn89 O90 2.028 . S
Zn89 O92 2.028 1_545 S
Zn89 O95 2.035 1_545 S
O90 Zn89 2.028 . S
O90 C96 1.247 . S
O91 Zn87 2.035 . S
O91 C96 1.258 . S
O92 C85 1.247 . S
O92 Zn89 2.028 1_565 S
O93 C85 1.258 . S
O93 Zn87 2.035 1_565 S
O94 Zn87 2.028 1_565 S
O94 C97 1.247 . S
O95 Zn89 2.035 1_565 S
O95 C97 1.258 . S
C96 O90 1.247 . S
C96 O91 1.258 . S
C97 O94 1.247 . S
C97 O95 1.258 . S
C98 O100 1.247 . S
C98 O102 1.258 . S
C99 O106 1.247 . S
C99 O107 1.258 . S
O100 C98 1.247 . S
O100 Zn101 2.028 1_655 S
Zn101 O100 2.028 1_455 S
Zn101 O105 2.035 1_455 S
Zn101 O107 2.035 . S
Zn101 O108 2.028 . S
O102 C98 1.258 . S
O102 Zn103 2.035 1_655 S
Zn103 O102 2.035 1_455 S
Zn103 O104 2.028 1_455 S
Zn103 O106 2.028 . S
Zn103 O109 2.035 . S
O104 Zn103 2.028 1_655 S
O104 C110 1.247 . S
O105 Zn101 2.035 1_655 S
O105 C110 1.258 . S
O106 C99 1.247 . S
O106 Zn103 2.028 . S
O107 C99 1.258 . S
O107 Zn101 2.035 . S
O108 Zn101 2.028 . S
O108 C111 1.247 . S
O109 Zn103 2.035 . S
O109 C111 1.258 . S
C110 O104 1.247 . S
C110 O105 1.258 . S
C111 O108 1.247 . S
C111 O109 1.258 . S
C112 O114 1.247 . S
C112 O116 1.258 . S
C113 O120 1.247 . S
C113 O121 1.258 . S
O114 C112 1.247 . S
O114 Zn115 2.028 . S
Zn115 O114 2.028 . S
Zn115 O119 2.035 . S
Zn115 O121 2.035 1_554 S
Zn115 O122 2.028 1_554 S
O116 C112 1.258 . S
O116 Zn117 2.035 . S
Zn117 O116 2.035 . S
Zn117 O118 2.028 . S
Zn117 O120 2.028 1_554 S
Zn117 O123 2.035 1_554 S
O118 Zn117 2.028 . S
O118 C124 1.247 . S
O119 Zn115 2.035 . S
O119 C124 1.258 . S
O120 C113 1.247 . S
O120 Zn117 2.028 1_556 S
O121 C113 1.258 . S
O121 Zn115 2.035 1_556 S
O122 Zn115 2.028 1_556 S
O122 C125 1.247 . S
O123 Zn117 2.035 1_556 S
O123 C125 1.258 . S
C124 O118 1.247 . S
C124 O119 1.258 . S
C125 O122 1.247 . S
C125 O123 1.258 . S
C126 O128 1.247 . S
C126 O130 1.258 . S
C127 O134 1.247 . S
C127 O135 1.258 . S
O128 C126 1.247 . S
O128 Zn129 2.028 . S
Zn129 O128 2.028 . S
Zn129 O133 2.035 . S
Zn129 O135 2.035 1_554 S
Zn129 O136 2.028 1_554 S
O130 C126 1.258 . S
O130 Zn131 2.035 . S
Zn131 O130 2.035 . S
Zn131 O132 2.028 . S
Zn131 O134 2.028 1_554 S
Zn131 O137 2.035 1_554 S
O132 Zn131 2.028 . S
O132 C138 1.247 . S
O133 Zn129 2.035 . S
O133 C138 1.258 . S
O134 C127 1.247 . S
O134 Zn131 2.028 1_556 S
O135 C127 1.258 . S
O135 Zn129 2.035 1_556 S
O136 Zn129 2.028 1_556 S
O136 C139 1.247 . S
O137 Zn131 2.035 1_556 S
O137 C139 1.258 . S
C138 O132 1.247 . S
C138 O133 1.258 . S
C139 O136 1.247 . S
C139 O137 1.258 . S
C140 O142 1.247 . S
C140 O144 1.258 . S
C141 O148 1.247 . S
C141 O149 1.258 . S
O142 C140 1.247 . S
O142 Zn143 2.028 . S
Zn143 O142 2.028 . S
Zn143 O147 2.035 . S
Zn143 O149 2.035 1_554 S
Zn143 O150 2.028 1_554 S
O144 C140 1.258 . S
O144 Zn145 2.035 . S
Zn145 O144 2.035 . S
Zn145 O146 2.028 . S
Zn145 O148 2.028 1_554 S
Zn145 O151 2.035 1_554 S
O146 Zn145 2.028 . S
O146 C152 1.247 . S
O147 Zn143 2.035 . S
O147 C152 1.258 . S
O148 C141 1.247 . S
O148 Zn145 2.028 1_556 S
O149 C141 1.258 . S
O149 Zn143 2.035 1_556 S
O150 Zn143 2.028 1_556 S
O150 C153 1.247 . S
O151 Zn145 2.035 1_556 S
O151 C153 1.258 . S
C152 O146 1.247 . S
C152 O147 1.258 . S
C153 O150 1.247 . S
C153 O151 1.258 . S
C154 O156 1.247 . S
C154 O158 1.258 . S
C155 O162 1.247 . S
C155 O163 1.258 . S
O156 C154 1.247 . S
O156 Zn157 2.028 1_556 S
Zn157 O156 2.028 1_554 S
Zn157 O161 2.035 1_554 S
Zn157 O163 2.035 . S
Zn157 O164 2.028 . S
O158 C154 1.258 . S
O158 Zn159 2.035 1_556 S
Zn159 O158 2.035 1_554 S
Zn159 O160 2.028 1_554 S
Zn159 O162 2.028 . S
Zn159 O165 2.035 . S
O160 Zn159 2.028 1_556 S
O160 C166 1.247 . S
O161 Zn157 2.035 1_556 S
O161 C166 1.258 . S
O162 C155 1.247 . S
O162 Zn159 2.028 . S
O163 C155 1.258 . S
O163 Zn157 2.035 . S
O164 Zn157 2.028 . S
O164 C167 1.247 . S
O165 Zn159 2.035 . S
O165 C167 1.258 . S
C166 O160 1.247 . S
C166 O161 1.258 . S
C167 O164 1.247 . S
C167 O165 1.258 . S
C168 O170 1.247 . S
C168 O172 1.258 . S
C169 O176 1.247 . S
C169 O177 1.258 . S
O170 C168 1.247 . S
O170 Zn171 2.028 . S
Zn171 O170 2.028 . S
Zn171 O175 2.035 . S
Zn171 O177 2.035 . S
Zn171 O178 2.028 . S
O172 C168 1.258 . S
O172 Zn173 2.035 . S
Zn173 O172 2.035 . S
Zn173 O174 2.028 . S
Zn173 O176 2.028 . S
Zn173 O179 2.035 . S
O174 Zn173 2.028 . S
O174 C180 1.247 . S
O175 Zn171 2.035 . S
O175 C180 1.258 . S
O176 C169 1.247 . S
O176 Zn173 2.028 . S
O177 C169 1.258 . S
O177 Zn171 2.035 . S
O178 Zn171 2.028 . S
O178 C181 1.247 . S
O179 Zn173 2.035 . S
O179 C181 1.258 . S
C180 O174 1.247 . S
C180 O175 1.258 . S
C181 O178 1.247 . S
C181 O179 1.258 . S
C182 O184 1.247 . S
C182 O186 1.258 . S
C183 O190 1.247 . S
C183 O191 1.258 . S
O184 C182 1.247 . S
O184 Zn185 2.028 . S
Zn185 O184 2.028 . S
Zn185 O189 2.035 . S
Zn185 O191 2.035 . S
Zn185 O192 2.028 . S
O186 C182 1.258 . S
O186 Zn187 2.035 . S
Zn187 O186 2.035 . S
Zn187 O188 2.028 . S
Zn187 O190 2.028 . S
Zn187 O193 2.035 . S
O188 Zn187 2.028 . S
O188 C194 1.247 . S
O189 Zn185 2.035 . S
O189 C194 1.258 . S
O190 C183 1.247 . S
O190 Zn187 2.028 . S
O191 C183 1.258 . S
O191 Zn185 2.035 . S
O192 Zn185 2.028 . S
O192 C195 1.247 . S
O193 Zn187 2.035 . S
O193 C195 1.258 . S
C194 O188 1.247 . S
C194 O189 1.258 . S
C195 O192 1.247 . S
C195 O193 1.258 . S
C196 O198 1.247 . S
C196 O200 1.258 . S
C197 O204 1.247 . S
C197 O205 1.258 . S
O198 C196 1.247 . S
O198 Zn199 2.028 . S
Zn199 O198 2.028 . S
Zn199 O203 2.035 . S
Zn199 O205 2.035 . S
Zn199 O206 2.028 . S
O200 C196 1.258 . S
O200 Zn201 2.035 . S
Zn201 O200 2.035 . S
Zn201 O202 2.028 . S
Zn201 O204 2.028 . S
Zn201 O207 2.035 . S
O202 Zn201 2.028 . S
O202 C208 1.247 . S
O203 Zn199 2.035 . S
O203 C208 1.258 . S
O204 C197 1.247 . S
O204 Zn201 2.028 . S
O205 C197 1.258 . S
O205 Zn199 2.035 . S
O206 Zn199 2.028 . S
O206 C209 1.247 . S
O207 Zn201 2.035 . S
O207 C209 1.258 . S
C208 O202 1.247 . S
C208 O203 1.258 . S
C209 O206 1.247 . S
C209 O207 1.258 . S
C210 O212 1.247 . S
C210 O214 1.258 . S
C211 O218 1.247 . S
C211 O219 1.258 . S
O212 C210 1.247 . S
O212 Zn213 2.028 . S
Zn213 O212 2.028 . S
Zn213 O217 2.035 . S
Zn213 O219 2.035 . S
Zn213 O220 2.028 . S
O214 C210 1.258 . S
O214 Zn215 2.035 . S
Zn215 O214 2.035 . S
Zn215 O216 2.028 . S
Zn215 O218 2.028 . S
Zn215 O221 2.035 . S
O216 Zn215 2.028 . S
O216 C222 1.247 . S
O217 Zn213 2.035 . S
O217 C222 1.258 . S
O218 C211 1.247 . S
O218 Zn215 2.028 . S
O219 C211 1.258 . S
O219 Zn213 2.035 . S
O220 Zn213 2.028 . S
O220 C223 1.247 . S
O221 Zn215 2.035 . S
O221 C223 1.258 . S
C222 O216 1.247 . S
C222 O217 1.258 . S
C223 O220 1.247 . S
C223 O221 1.258 . S
C224 O226 1.247 . S
C224 O228 1.258 . S
C225 O232 1.247 . S
C225 O233 1.258 . S
O226 C224 1.247 . S
O226 Zn227 2.028 . S
Zn227 O226 2.028 . S
Zn227 O231 2.035 . S
Zn227 O233 2.035 . S
Zn227 O234 2.028 . S
O228 C224 1.258 . S
O228 Zn229 2.035 . S
Zn229 O228 2.035 . S
Zn229 O230 2.028 . S
Zn229 O232 2.028 . S
Zn229 O235 2.035 . S
O230 Zn229 2.028 . S
O230 C236 1.247 . S
O231 Zn227 2.035 . S
O231 C236 1.258 . S
O232 C225 1.247 . S
O232 Zn229 2.028 . S
O233 C225 1.258 . S
O233 Zn227 2.035 . S
O234 Zn227 2.028 . S
O234 C237 1.247 . S
O235 Zn229 2.035 . S
O235 C237 1.258 . S
C236 O230 1.247 . S
C236 O231 1.258 . S
C237 O234 1.247 . S
C237 O235 1.258 . S
C238 O240 1.247 . S
C238 O242 1.258 . S
C239 O246 1.247 . S
C239 O247 1.258 . S
O240 C238 1.247 . S
O240 Zn241 2.028 . S
Zn241 O240 2.028 . S
Zn241 O245 2.035 . S
Zn241 O247 2.035 . S
Zn241 O248 2.028 . S
O242 C238 1.258 . S
O242 Zn243 2.035 . S
Zn243 O242 2.035 . S
Zn243 O244 2.028 . S
Zn243 O246 2.028 . S
Zn243 O249 2.035 . S
O244 Zn243 2.028 . S
O244 C250 1.247 . S
O245 Zn241 2.035 . S
O245 C250 1.258 . S
O246 C239 1.247 . S
O246 Zn243 2.028 . S
O247 C239 1.258 . S
O247 Zn241 2.035 . S
O248 Zn241 2.028 . S
O248 C251 1.247 . S
O249 Zn243 2.035 . S
O249 C251 1.258 . S
C250 O244 1.247 . S
C250 O245 1.258 . S
C251 O248 1.247 . S
C251 O249 1.258 . S
C252 O254 1.247 . S
C252 O256 1.258 . S
C253 O260 1.247 . S
C253 O261 1.258 . S
O254 C252 1.247 . S
O254 Zn255 2.028 . S
Zn255 O254 2.028 . S
Zn255 O259 2.035 . S
Zn255 O261 2.035 . S
Zn255 O262 2.028 . S
O256 C252 1.258 . S
O256 Zn257 2.035 . S
Zn257 O256 2.035 . S
Zn257 O258 2.028 . S
Zn257 O260 2.028 . S
Zn257 O263 2.035 . S
O258 Zn257 2.028 . S
O258 C264 1.247 . S
O259 Zn255 2.035 . S
O259 C264 1.258 . S
O260 C253 1.247 . S
O260 Zn257 2.028 . S
O261 C253 1.258 . S
O261 Zn255 2.035 . S
O262 Zn255 2.028 . S
O262 C265 1.247 . S
O263 Zn257 2.035 . S
O263 C265 1.258 . S
C264 O258 1.247 . S
C264 O259 1.258 . S
C265 O262 1.247 . S
C265 O263 1.258 . S
C266 O268 1.247 . S
C266 O270 1.258 . S
C267 O274 1.247 . S
C267 O275 1.258 . S
O268 C266 1.247 . S
O268 Zn269 2.028 . S
Zn269 O268 2.028 . S
Zn269 O273 2.035 . S
Zn269 O275 2.035 . S
Zn269 O276 2.028 . S
O270 C266 1.258 . S
O270 Zn271 2.035 . S
Zn271 O270 2.035 . S
Zn271 O272 2.028 . S
Zn271 O274 2.028 . S
Zn271 O277 2.035 . S
O272 Zn271 2.028 . S
O272 C278 1.247 . S
O273 Zn269 2.035 . S
O273 C278 1.258 . S
O274 C267 1.247 . S
O274 Zn271 2.028 . S
O275 C267 1.258 . S
O275 Zn269 2.035 . S
O276 Zn269 2.028 . S
O276 C279 1.247 . S
O277 Zn271 2.035 . S
O277 C279 1.258 . S
C278 O272 1.247 . S
C278 O273 1.258 . S
C279 O276 1.247 . S
C279 O277 1.258 . S
C280 O282 1.247 . S
C280 O284 1.258 . S
C281 O288 1.247 . S
C281 O289 1.258 . S
O282 C280 1.247 . S
O282 Zn283 2.028 . S
Zn283 O282 2.028 . S
Zn283 O287 2.035 . S
Zn283 O289 2.035 . S
Zn283 O290 2.028 . S
O284 C280 1.258 . S
O284 Zn285 2.035 . S
Zn285 O284 2.035 . S
Zn285 O286 2.028 . S
Zn285 O288 2.028 . S
Zn285 O291 2.035 . S
O286 Zn285 2.028 . S
O286 C292 1.247 . S
O287 Zn283 2.035 . S
O287 C292 1.258 . S
O288 C281 1.247 . S
O288 Zn285 2.028 . S
O289 C281 1.258 . S
O289 Zn283 2.035 . S
O290 Zn283 2.028 . S
O290 C293 1.247 . S
O291 Zn285 2.035 . S
O291 C293 1.258 . S
C292 O286 1.247 . S
C292 O287 1.258 . S
C293 O290 1.247 . S
C293 O291 1.258 . S
C294 O296 1.247 . S
C294 O298 1.258 . S
C295 O302 1.247 . S
C295 O303 1.258 . S
O296 C294 1.247 . S
O296 Zn297 2.028 . S
Zn297 O296 2.028 . S
Zn297 O301 2.035 . S
Zn297 O303 2.035 . S
Zn297 O304 2.028 . S
O298 C294 1.258 . S
O298 Zn299 2.035 . S
Zn299 O298 2.035 . S
Zn299 O300 2.028 . S
Zn299 O302 2.028 . S
Zn299 O305 2.035 . S
O300 Zn299 2.028 . S
O300 C306 1.247 . S
O301 Zn297 2.035 . S
O301 C306 1.258 . S
O302 C295 1.247 . S
O302 Zn299 2.028 . S
O303 C295 1.258 . S
O303 Zn297 2.035 . S
O304 Zn297 2.028 . S
O304 C307 1.247 . S
O305 Zn299 2.035 . S
O305 C307 1.258 . S
C306 O300 1.247 . S
C306 O301 1.258 . S
C307 O304 1.247 . S
C307 O305 1.258 . S
C308 O310 1.247 . S
C308 O312 1.258 . S
C309 O316 1.247 . S
C309 O317 1.258 . S
O310 C308 1.247 . S
O310 Zn311 2.028 . S
Zn311 O310 2.028 . S
Zn311 O315 2.035 . S
Zn311 O317 2.035 . S
Zn311 O318 2.028 . S
O312 C308 1.258 . S
O312 Zn313 2.035 . S
Zn313 O312 2.035 . S
Zn313 O314 2.028 . S
Zn313 O316 2.028 . S
Zn313 O319 2.035 . S
O314 Zn313 2.028 . S
O314 C320 1.247 . S
O315 Zn311 2.035 . S
O315 C320 1.258 . S
O316 C309 1.247 . S
O316 Zn313 2.028 . S
O317 C309 1.258 . S
O317 Zn311 2.035 . S
O318 Zn311 2.028 . S
O318 C321 1.247 . S
O319 Zn313 2.035 . S
O319 C321 1.258 . S
C320 O314 1.247 . S
C320 O315 1.258 . S
C321 O318 1.247 . S
C321 O319 1.258 . S
C322 O324 1.247 . S
C322 O326 1.258 . S
C323 O330 1.247 . S
C323 O331 1.258 . S
O324 C322 1.247 . S
O324 Zn325 2.028 . S
Zn325 O324 2.028 . S
Zn325 O329 2.035 . S
Zn325 O331 2.035 . S
Zn325 O332 2.028 . S
O326 C322 1.258 . S
O326 Zn327 2.035 . S
Zn327 O326 2.035 . S
Zn327 O328 2.028 . S
Zn327 O330 2.028 . S
Zn327 O333 2.035 . S
O328 Zn327 2.028 . S
O328 C334 1.247 . S
O329 Zn325 2.035 . S
O329 C334 1.258 . S
O330 C323 1.247 . S
O330 Zn327 2.028 . S
O331 C323 1.258 . S
O331 Zn325 2.035 . S
O332 Zn325 2.028 . S
O332 C335 1.247 . S
O333 Zn327 2.035 . S
O333 C335 1.258 . S
C334 O328 1.247 . S
C334 O329 1.258 . S
C335 O332 1.247 . S
C335 O333 1.258 . S
C336 C337 1.349 . S
C336 C338 1.327 . S
C336 H361 0.950 . S
C337 C336 1.349 . S
C337 C353 1.349 . S
C338 C336 1.327 . S
C338 C357 1.429 . S
C338 H362 0.950 . S
C339 C356 1.574 . S
C339 C358 1.368 . S
C339 H363 0.949 . S
H340 C344 0.949 . S
C341 C342 1.349 . S
C341 C343 1.327 . S
C341 H364 0.950 . S
C342 C341 1.349 . S
C342 C354 1.349 . S
C343 C341 1.327 . S
C343 C359 1.429 . S
C343 H365 0.950 . S
C344 H340 0.949 . S
C344 C352 1.574 . S
C344 C360 1.368 . S
H345 C353 0.950 . S
H346 C351 0.950 . S
H347 C352 0.949 . S
H348 C354 0.950 . S
H349 C355 0.950 . S
H350 C356 0.949 . S
C351 H346 0.950 . S
C351 C353 1.327 . S
C351 C357 1.429 . S
C352 C344 1.574 . S
C352 H347 0.949 . S
C352 C358 1.368 . S
C353 C337 1.349 . S
C353 H345 0.950 . S
C353 C351 1.327 . S
C354 C342 1.349 . S
C354 H348 0.950 . S
C354 C355 1.327 . S
C355 H349 0.950 . S
C355 C354 1.327 . S
C355 C359 1.429 . S
C356 C339 1.574 . S
C356 H350 0.949 . S
C356 C360 1.368 . S
C357 C338 1.429 . S
C357 C351 1.429 . S
C357 C358 1.523 . S
C358 C339 1.368 . S
C358 C352 1.368 . S
C358 C357 1.523 . S
C359 C343 1.429 . S
C359 C355 1.429 . S
C359 C360 1.523 . S
C360 C344 1.368 . S
C360 C356 1.368 . S
C360 C359 1.523 . S
H361 C336 0.950 . S
H362 C338 0.950 . S
H363 C339 0.949 . S
H364 C341 0.950 . S
H365 C343 0.950 . S
C366 C367 1.349 . S
C366 C368 1.327 . S
C366 H391 0.950 . S
C367 C366 1.349 . S
C367 C383 1.349 . S
C368 C366 1.327 . S
C368 C387 1.429 . S
C368 H392 0.950 . S
C369 C386 1.574 . S
C369 C388 1.368 . S
C369 H393 0.949 . S
H370 C374 0.949 . S
C371 C372 1.349 . S
C371 C373 1.327 . S
C371 H394 0.950 . S
C372 C371 1.349 . S
C372 C384 1.349 . S
C373 C371 1.327 . S
C373 C389 1.429 . S
C373 H395 0.950 . S
C374 H370 0.949 . S
C374 C382 1.574 . S
C374 C390 1.368 . S
H375 C383 0.950 . S
H376 C381 0.950 . S
H377 C382 0.949 . S
H378 C384 0.950 . S
H379 C385 0.950 . S
H380 C386 0.949 . S
C381 H376 0.950 . S
C381 C383 1.327 . S
C381 C387 1.429 . S
C382 C374 1.574 . S
C382 H377 0.949 . S
C382 C388 1.368 . S
C383 C367 1.349 . S
C383 H375 0.950 . S
C383 C381 1.327 . S
C384 C372 1.349 . S
C384 H378 0.950 . S
C384 C385 1.327 . S
C385 H379 0.950 . S
C385 C384 1.327 . S
C385 C389 1.429 . S
C386 C369 1.574 . S
C386 H380 0.949 . S
C386 C390 1.368 . S
C387 C368 1.429 . S
C387 C381 1.429 . S
C387 C388 1.523 . S
C388 C369 1.368 . S
C388 C382 1.368 . S
C388 C387 1.523 . S
C389 C373 1.429 . S
C389 C385 1.429 . S
C389 C390 1.523 . S
C390 C374 1.368 . S
C390 C386 1.368 . S
C390 C389 1.523 . S
H391 C366 0.950 . S
H392 C368 0.950 . S
H393 C369 0.949 . S
H394 C371 0.950 . S
H395 C373 0.950 . S
C396 C397 1.349 . S
C396 C398 1.327 . S
C396 H421 0.950 . S
C397 C396 1.349 . S
C397 C413 1.349 . S
C398 C396 1.327 . S
C398 C417 1.429 . S
C398 H422 0.950 . S
C399 C416 1.574 . S
C399 C418 1.368 . S
C399 H423 0.949 . S
H400 C404 0.949 . S
C401 C402 1.349 . S
C401 C403 1.327 . S
C401 H424 0.950 . S
C402 C401 1.349 . S
C402 C414 1.349 . S
C403 C401 1.327 . S
C403 C419 1.429 . S
C403 H425 0.950 . S
C404 H400 0.949 . S
C404 C412 1.574 . S
C404 C420 1.368 . S
H405 C413 0.950 . S
H406 C411 0.950 . S
H407 C412 0.949 . S
H408 C414 0.950 . S
H409 C415 0.950 . S
H410 C416 0.949 . S
C411 H406 0.950 . S
C411 C413 1.327 . S
C411 C417 1.429 . S
C412 C404 1.574 . S
C412 H407 0.949 . S
C412 C418 1.368 . S
C413 C397 1.349 . S
C413 H405 0.950 . S
C413 C411 1.327 . S
C414 C402 1.349 . S
C414 H408 0.950 . S
C414 C415 1.327 . S
C415 H409 0.950 . S
C415 C414 1.327 . S
C415 C419 1.429 . S
C416 C399 1.574 . S
C416 H410 0.949 . S
C416 C420 1.368 . S
C417 C398 1.429 . S
C417 C411 1.429 . S
C417 C418 1.523 . S
C418 C399 1.368 . S
C418 C412 1.368 . S
C418 C417 1.523 . S
C419 C403 1.429 . S
C419 C415 1.429 . S
C419 C420 1.523 . S
C420 C404 1.368 . S
C420 C416 1.368 . S
C420 C419 1.523 . S
H421 C396 0.950 . S
H422 C398 0.950 . S
H423 C399 0.949 . S
H424 C401 0.950 . S
H425 C403 0.950 . S
C426 C427 1.349 . S
C426 C428 1.327 . S
C426 H451 0.950 . S
C427 C426 1.349 . S
C427 C443 1.349 . S
C428 C426 1.327 . S
C428 C447 1.429 . S
C428 H452 0.950 . S
C429 C446 1.574 . S
C429 C448 1.368 . S
C429 H453 0.949 . S
H430 C434 0.949 . S
C431 C432 1.349 . S
C431 C433 1.327 . S
C431 H454 0.950 . S
C432 C431 1.349 . S
C432 C444 1.349 . S
C433 C431 1.327 . S
C433 C449 1.429 . S
C433 H455 0.950 . S
C434 H430 0.949 . S
C434 C442 1.574 . S
C434 C450 1.368 . S
H435 C443 0.950 . S
H436 C441 0.950 . S
H437 C442 0.949 . S
H438 C444 0.950 . S
H439 C445 0.950 . S
H440 C446 0.949 . S
C441 H436 0.950 . S
C441 C443 1.327 . S
C441 C447 1.429 . S
C442 C434 1.574 . S
C442 H437 0.949 . S
C442 C448 1.368 . S
C443 C427 1.349 . S
C443 H435 0.950 . S
C443 C441 1.327 . S
C444 C432 1.349 . S
C444 H438 0.950 . S
C444 C445 1.327 . S
C445 H439 0.950 . S
C445 C444 1.327 . S
C445 C449 1.429 . S
C446 C429 1.574 . S
C446 H440 0.949 . S
C446 C450 1.368 . S
C447 C428 1.429 . S
C447 C441 1.429 . S
C447 C448 1.523 . S
C448 C429 1.368 . S
C448 C442 1.368 . S
C448 C447 1.523 . S
C449 C433 1.429 . S
C449 C445 1.429 . S
C449 C450 1.523 . S
C450 C434 1.368 . S
C450 C446 1.368 . S
C450 C449 1.523 . S
H451 C426 0.950 . S
H452 C428 0.950 . S
H453 C429 0.949 . S
H454 C431 0.950 . S
H455 C433 0.950 . S
C456 C457 1.349 . S
C456 C458 1.327 . S
C456 H481 0.950 . S
C457 C456 1.349 . S
C457 C473 1.349 . S
C458 C456 1.327 . S
C458 C477 1.429 . S
C458 H482 0.950 . S
C459 C476 1.574 . S
C459 C478 1.368 . S
C459 H483 0.949 . S
H460 C464 0.949 . S
C461 C462 1.349 . S
C461 C463 1.327 . S
C461 H484 0.950 . S
C462 C461 1.349 . S
C462 C474 1.349 . S
C463 C461 1.327 . S
C463 C479 1.429 . S
C463 H485 0.950 . S
C464 H460 0.949 . S
C464 C472 1.574 . S
C464 C480 1.368 . S
H465 C473 0.950 . S
H466 C471 0.950 . S
H467 C472 0.949 . S
H468 C474 0.950 . S
H469 C475 0.950 . S
H470 C476 0.949 . S
C471 H466 0.950 . S
C471 C473 1.327 . S
C471 C477 1.429 . S
C472 C464 1.574 . S
C472 H467 0.949 . S
C472 C478 1.368 . S
C473 C457 1.349 . S
C473 H465 0.950 . S
C473 C471 1.327 . S
C474 C462 1.349 . S
C474 H468 0.950 . S
C474 C475 1.327 . S
C475 H469 0.950 . S
C475 C474 1.327 . S
C475 C479 1.429 . S
C476 C459 1.574 . S
C476 H470 0.949 . S
C476 C480 1.368 . S
C477 C458 1.429 . S
C477 C471 1.429 . S
C477 C478 1.523 . S
C478 C459 1.368 . S
C478 C472 1.368 . S
C478 C477 1.523 . S
C479 C463 1.429 . S
C479 C475 1.429 . S
C479 C480 1.523 . S
C480 C464 1.368 . S
C480 C476 1.368 . S
C480 C479 1.523 . S
H481 C456 0.950 . S
H482 C458 0.950 . S
H483 C459 0.949 . S
H484 C461 0.950 . S
H485 C463 0.950 . S
C486 C487 1.349 . S
C486 C488 1.327 . S
C486 H511 0.950 . S
C487 C486 1.349 . S
C487 C503 1.349 . S
C488 C486 1.327 . S
C488 C507 1.429 . S
C488 H512 0.950 . S
C489 C506 1.574 . S
C489 C508 1.368 . S
C489 H513 0.949 . S
H490 C494 0.949 . S
C491 C492 1.349 . S
C491 C493 1.327 . S
C491 H514 0.950 . S
C492 C491 1.349 . S
C492 C504 1.349 . S
C493 C491 1.327 . S
C493 C509 1.429 . S
C493 H515 0.950 . S
C494 H490 0.949 . S
C494 C502 1.574 . S
C494 C510 1.368 . S
H495 C503 0.950 . S
H496 C501 0.950 . S
H497 C502 0.949 . S
H498 C504 0.950 . S
H499 C505 0.950 . S
H500 C506 0.949 . S
C501 H496 0.950 . S
C501 C503 1.327 . S
C501 C507 1.429 . S
C502 C494 1.574 . S
C502 H497 0.949 . S
C502 C508 1.368 . S
C503 C487 1.349 . S
C503 H495 0.950 . S
C503 C501 1.327 . S
C504 C492 1.349 . S
C504 H498 0.950 . S
C504 C505 1.327 . S
C505 H499 0.950 . S
C505 C504 1.327 . S
C505 C509 1.429 . S
C506 C489 1.574 . S
C506 H500 0.949 . S
C506 C510 1.368 . S
C507 C488 1.429 . S
C507 C501 1.429 . S
C507 C508 1.523 . S
C508 C489 1.368 . S
C508 C502 1.368 . S
C508 C507 1.523 . S
C509 C493 1.429 . S
C509 C505 1.429 . S
C509 C510 1.523 . S
C510 C494 1.368 . S
C510 C506 1.368 . S
C510 C509 1.523 . S
H511 C486 0.950 . S
H512 C488 0.950 . S
H513 C489 0.949 . S
H514 C491 0.950 . S
H515 C493 0.950 . S
C516 C517 1.349 . S
C516 C518 1.327 . S
C516 H541 0.950 . S
C517 C516 1.349 . S
C517 C533 1.349 . S
C518 C516 1.327 . S
C518 C537 1.429 . S
C518 H542 0.950 . S
C519 C536 1.574 . S
C519 C538 1.368 . S
C519 H543 0.949 . S
H520 C524 0.949 . S
C521 C522 1.349 . S
C521 C523 1.327 . S
C521 H544 0.950 . S
C522 C521 1.349 . S
C522 C534 1.349 . S
C523 C521 1.327 . S
C523 C539 1.429 . S
C523 H545 0.950 . S
C524 H520 0.949 . S
C524 C532 1.574 . S
C524 C540 1.368 . S
H525 C533 0.950 . S
H526 C531 0.950 . S
H527 C532 0.949 . S
H528 C534 0.950 . S
H529 C535 0.950 . S
H530 C536 0.949 . S
C531 H526 0.950 . S
C531 C533 1.327 . S
C531 C537 1.429 . S
C532 C524 1.574 . S
C532 H527 0.949 . S
C532 C538 1.368 . S
C533 C517 1.349 . S
C533 H525 0.950 . S
C533 C531 1.327 . S
C534 C522 1.349 . S
C534 H528 0.950 . S
C534 C535 1.327 . S
C535 H529 0.950 . S
C535 C534 1.327 . S
C535 C539 1.429 . S
C536 C519 1.574 . S
C536 H530 0.949 . S
C536 C540 1.368 . S
C537 C518 1.429 . S
C537 C531 1.429 . S
C537 C538 1.523 . S
C538 C519 1.368 . S
C538 C532 1.368 . S
C538 C537 1.523 . S
C539 C523 1.429 . S
C539 C535 1.429 . S
C539 C540 1.523 . S
C540 C524 1.368 . S
C540 C536 1.368 . S
C540 C539 1.523 . S
H541 C516 0.950 . S
H542 C518 0.950 . S
H543 C519 0.949 . S
H544 C521 0.950 . S
H545 C523 0.950 . S
C546 C547 1.349 . S
C546 C548 1.327 . S
C546 H571 0.950 . S
C547 C546 1.349 . S
C547 C563 1.349 . S
C548 C546 1.327 . S
C548 C567 1.429 . S
C548 H572 0.950 . S
C549 C566 1.574 . S
C549 C568 1.368 . S
C549 H573 0.949 . S
H550 C554 0.949 . S
C551 C552 1.349 . S
C551 C553 1.327 . S
C551 H574 0.950 . S
C552 C551 1.349 . S
C552 C564 1.349 . S
C553 C551 1.327 . S
C553 C569 1.429 . S
C553 H575 0.950 . S
C554 H550 0.949 . S
C554 C562 1.574 . S
C554 C570 1.368 . S
H555 C563 0.950 . S
H556 C561 0.950 . S
H557 C562 0.949 . S
H558 C564 0.950 . S
H559 C565 0.950 . S
H560 C566 0.949 . S
C561 H556 0.950 . S
C561 C563 1.327 . S
C561 C567 1.429 . S
C562 C554 1.574 . S
C562 H557 0.949 . S
C562 C568 1.368 . S
C563 C547 1.349 . S
C563 H555 0.950 . S
C563 C561 1.327 . S
C564 C552 1.349 . S
C564 H558 0.950 . S
C564 C565 1.327 . S
C565 H559 0.950 . S
C565 C564 1.327 . S
C565 C569 1.429 . S
C566 C549 1.574 . S
C566 H560 0.949 . S
C566 C570 1.368 . S
C567 C548 1.429 . S
C567 C561 1.429 . S
C567 C568 1.523 . S
C568 C549 1.368 . S
C568 C562 1.368 . S
C568 C567 1.523 . S
C569 C553 1.429 . S
C569 C565 1.429 . S
C569 C570 1.523 . S
C570 C554 1.368 . S
C570 C566 1.368 . S
C570 C569 1.523 . S
H571 C546 0.950 . S
H572 C548 0.950 . S
H573 C549 0.949 . S
H574 C551 0.950 . S
H575 C553 0.950 . S
C576 C577 1.349 . S
C576 C578 1.327 . S
C576 H601 0.950 . S
C577 C576 1.349 . S
C577 C593 1.349 . S
C578 C576 1.327 . S
C578 C597 1.429 . S
C578 H602 0.950 . S
C579 C596 1.574 . S
C579 C598 1.368 . S
C579 H603 0.949 . S
H580 C584 0.949 . S
C581 C582 1.349 . S
C581 C583 1.327 . S
C581 H604 0.950 . S
C582 C581 1.349 . S
C582 C594 1.349 . S
C583 C581 1.327 . S
C583 C599 1.429 . S
C583 H605 0.950 . S
C584 H580 0.949 . S
C584 C592 1.574 . S
C584 C600 1.368 . S
H585 C593 0.950 . S
H586 C591 0.950 . S
H587 C592 0.949 . S
H588 C594 0.950 . S
H589 C595 0.950 . S
H590 C596 0.949 . S
C591 H586 0.950 . S
C591 C593 1.327 . S
C591 C597 1.429 . S
C592 C584 1.574 . S
C592 H587 0.949 . S
C592 C598 1.368 . S
C593 C577 1.349 . S
C593 H585 0.950 . S
C593 C591 1.327 . S
C594 C582 1.349 . S
C594 H588 0.950 . S
C594 C595 1.327 . S
C595 H589 0.950 . S
C595 C594 1.327 . S
C595 C599 1.429 . S
C596 C579 1.574 . S
C596 H590 0.949 . S
C596 C600 1.368 . S
C597 C578 1.429 . S
C597 C591 1.429 . S
C597 C598 1.523 . S
C598 C579 1.368 . S
C598 C592 1.368 . S
C598 C597 1.523 . S
C599 C583 1.429 . S
C599 C595 1.429 . S
C599 C600 1.523 . S
C600 C584 1.368 . S
C600 C596 1.368 . S
C600 C599 1.523 . S
H601 C576 0.950 . S
H602 C578 0.950 . S
H603 C579 0.949 . S
H604 C581 0.950 . S
H605 C583 0.950 . S
C606 C607 1.349 . S
C606 C608 1.327 . S
C606 H631 0.950 . S
C607 C606 1.349 . S
C607 C623 1.349 . S
C608 C606 1.327 . S
C608 C627 1.429 . S
C608 H632 0.950 . S
C609 C626 1.574 . S
C609 C628 1.368 . S
C609 H633 0.949 . S
H610 C614 0.949 . S
C611 C612 1.349 . S
C611 C613 1.327 . S
C611 H634 0.950 . S
C612 C611 1.349 . S
C612 C624 1.349 . S
C613 C611 1.327 . S
C613 C629 1.429 . S
C613 H635 0.950 . S
C614 H610 0.949 . S
C614 C622 1.574 . S
C614 C630 1.368 . S
H615 C623 0.950 . S
H616 C621 0.950 . S
H617 C622 0.949 . S
H618 C624 0.950 . S
H619 C625 0.950 . S
H620 C626 0.949 . S
C621 H616 0.950 . S
C621 C623 1.327 . S
C621 C627 1.429 . S
C622 C614 1.574 . S
C622 H617 0.949 . S
C622 C628 1.368 . S
C623 C607 1.349 . S
C623 H615 0.950 . S
C623 C621 1.327 . S
C624 C612 1.349 . S
C624 H618 0.950 . S
C624 C625 1.327 . S
C625 H619 0.950 . S
C625 C624 1.327 . S
C625 C629 1.429 . S
C626 C609 1.574 . S
C626 H620 0.949 . S
C626 C630 1.368 . S
C627 C608 1.429 . S
C627 C621 1.429 . S
C627 C628 1.523 . S
C628 C609 1.368 . S
C628 C622 1.368 . S
C628 C627 1.523 . S
C629 C613 1.429 . S
C629 C625 1.429 . S
C629 C630 1.523 . S
C630 C614 1.368 . S
C630 C626 1.368 . S
C630 C629 1.523 . S
H631 C606 0.950 . S
H632 C608 0.950 . S
H633 C609 0.949 . S
H634 C611 0.950 . S
H635 C613 0.950 . S
C636 C637 1.349 . S
C636 C638 1.327 . S
C636 H661 0.950 . S
C637 C636 1.349 . S
C637 C653 1.349 . S
C638 C636 1.327 . S
C638 C657 1.429 . S
C638 H662 0.950 . S
C639 C656 1.574 . S
C639 C658 1.368 . S
C639 H663 0.949 . S
H640 C644 0.949 . S
C641 C642 1.349 . S
C641 C643 1.327 . S
C641 H664 0.950 . S
C642 C641 1.349 . S
C642 C654 1.349 . S
C643 C641 1.327 . S
C643 C659 1.429 . S
C643 H665 0.950 . S
C644 H640 0.949 . S
C644 C652 1.574 . S
C644 C660 1.368 . S
H645 C653 0.950 . S
H646 C651 0.950 . S
H647 C652 0.949 . S
H648 C654 0.950 . S
H649 C655 0.950 . S
H650 C656 0.949 . S
C651 H646 0.950 . S
C651 C653 1.327 . S
C651 C657 1.429 . S
C652 C644 1.574 . S
C652 H647 0.949 . S
C652 C658 1.368 . S
C653 C637 1.349 . S
C653 H645 0.950 . S
C653 C651 1.327 . S
C654 C642 1.349 . S
C654 H648 0.950 . S
C654 C655 1.327 . S
C655 H649 0.950 . S
C655 C654 1.327 . S
C655 C659 1.429 . S
C656 C639 1.574 . S
C656 H650 0.949 . S
C656 C660 1.368 . S
C657 C638 1.429 . S
C657 C651 1.429 . S
C657 C658 1.523 . S
C658 C639 1.368 . S
C658 C652 1.368 . S
C658 C657 1.523 . S
C659 C643 1.429 . S
C659 C655 1.429 . S
C659 C660 1.523 . S
C660 C644 1.368 . S
C660 C656 1.368 . S
C660 C659 1.523 . S
H661 C636 0.950 . S
H662 C638 0.950 . S
H663 C639 0.949 . S
H664 C641 0.950 . S
H665 C643 0.950 . S
C666 C667 1.349 . S
C666 C668 1.327 . S
C666 H691 0.950 . S
C667 C666 1.349 . S
C667 C683 1.349 . S
C668 C666 1.327 . S
C668 C687 1.429 . S
C668 H692 0.950 . S
C669 C686 1.574 . S
C669 C688 1.368 . S
C669 H693 0.949 . S
H670 C674 0.949 . S
C671 C672 1.349 . S
C671 C673 1.327 . S
C671 H694 0.950 . S
C672 C671 1.349 . S
C672 C684 1.349 . S
C673 C671 1.327 . S
C673 C689 1.429 . S
C673 H695 0.950 . S
C674 H670 0.949 . S
C674 C682 1.574 . S
C674 C690 1.368 . S
H675 C683 0.950 . S
H676 C681 0.950 . S
H677 C682 0.949 . S
H678 C684 0.950 . S
H679 C685 0.950 . S
H680 C686 0.949 . S
C681 H676 0.950 . S
C681 C683 1.327 . S
C681 C687 1.429 . S
C682 C674 1.574 . S
C682 H677 0.949 . S
C682 C688 1.368 . S
C683 C667 1.349 . S
C683 H675 0.950 . S
C683 C681 1.327 . S
C684 C672 1.349 . S
C684 H678 0.950 . S
C684 C685 1.327 . S
C685 H679 0.950 . S
C685 C684 1.327 . S
C685 C689 1.429 . S
C686 C669 1.574 . S
C686 H680 0.949 . S
C686 C690 1.368 . S
C687 C668 1.429 . S
C687 C681 1.429 . S
C687 C688 1.523 . S
C688 C669 1.368 . S
C688 C682 1.368 . S
C688 C687 1.523 . S
C689 C673 1.429 . S
C689 C685 1.429 . S
C689 C690 1.523 . S
C690 C674 1.368 . S
C690 C686 1.368 . S
C690 C689 1.523 . S
H691 C666 0.950 . S
H692 C668 0.950 . S
H693 C669 0.949 . S
H694 C671 0.950 . S
H695 C673 0.950 . S
C696 C697 1.349 . S
C696 C698 1.327 . S
C696 H721 0.950 . S
C697 C696 1.349 . S
C697 C713 1.349 . S
C698 C696 1.327 . S
C698 C717 1.429 . S
C698 H722 0.950 . S
C699 C716 1.574 . S
C699 C718 1.368 . S
C699 H723 0.949 . S
H700 C704 0.949 . S
C701 C702 1.349 . S
C701 C703 1.327 . S
C701 H724 0.950 . S
C702 C701 1.349 . S
C702 C714 1.349 . S
C703 C701 1.327 . S
C703 C719 1.429 . S
C703 H725 0.950 . S
C704 H700 0.949 . S
C704 C712 1.574 . S
C704 C720 1.368 . S
H705 C713 0.950 . S
H706 C711 0.950 . S
H707 C712 0.949 . S
H708 C714 0.950 . S
H709 C715 0.950 . S
H710 C716 0.949 . S
C711 H706 0.950 . S
C711 C713 1.327 . S
C711 C717 1.429 . S
C712 C704 1.574 . S
C712 H707 0.949 . S
C712 C718 1.368 . S
C713 C697 1.349 . S
C713 H705 0.950 . S
C713 C711 1.327 . S
C714 C702 1.349 . S
C714 H708 0.950 . S
C714 C715 1.327 . S
C715 H709 0.950 . S
C715 C714 1.327 . S
C715 C719 1.429 . S
C716 C699 1.574 . S
C716 H710 0.949 . S
C716 C720 1.368 . S
C717 C698 1.429 . S
C717 C711 1.429 . S
C717 C718 1.523 . S
C718 C699 1.368 . S
C718 C712 1.368 . S
C718 C717 1.523 . S
C719 C703 1.429 . S
C719 C715 1.429 . S
C719 C720 1.523 . S
C720 C704 1.368 . S
C720 C716 1.368 . S
C720 C719 1.523 . S
H721 C696 0.950 . S
H722 C698 0.950 . S
H723 C699 0.949 . S
H724 C701 0.950 . S
H725 C703 0.950 . S
C726 C727 1.349 . S
C726 C728 1.327 . S
C726 H751 0.950 . S
C727 C726 1.349 . S
C727 C743 1.349 . S
C728 C726 1.327 . S
C728 C747 1.429 . S
C728 H752 0.950 . S
C729 C746 1.574 . S
C729 C748 1.368 . S
C729 H753 0.949 . S
H730 C734 0.949 . S
C731 C732 1.349 . S
C731 C733 1.327 . S
C731 H754 0.950 . S
C732 C731 1.349 . S
C732 C744 1.349 . S
C733 C731 1.327 . S
C733 C749 1.429 . S
C733 H755 0.950 . S
C734 H730 0.949 . S
C734 C742 1.574 . S
C734 C750 1.368 . S
H735 C743 0.950 . S
H736 C741 0.950 . S
H737 C742 0.949 . S
H738 C744 0.950 . S
H739 C745 0.950 . S
H740 C746 0.949 . S
C741 H736 0.950 . S
C741 C743 1.327 . S
C741 C747 1.429 . S
C742 C734 1.574 . S
C742 H737 0.949 . S
C742 C748 1.368 . S
C743 C727 1.349 . S
C743 H735 0.950 . S
C743 C741 1.327 . S
C744 C732 1.349 . S
C744 H738 0.950 . S
C744 C745 1.327 . S
C745 H739 0.950 . S
C745 C744 1.327 . S
C745 C749 1.429 . S
C746 C729 1.574 . S
C746 H740 0.949 . S
C746 C750 1.368 . S
C747 C728 1.429 . S
C747 C741 1.429 . S
C747 C748 1.523 . S
C748 C729 1.368 . S
C748 C742 1.368 . S
C748 C747 1.523 . S
C749 C733 1.429 . S
C749 C745 1.429 . S
C749 C750 1.523 . S
C750 C734 1.368 . S
C750 C746 1.368 . S
C750 C749 1.523 . S
H751 C726 0.950 . S
H752 C728 0.950 . S
H753 C729 0.949 . S
H754 C731 0.950 . S
H755 C733 0.950 . S
C756 C757 1.349 . S
C756 C758 1.327 . S
C756 H781 0.950 . S
C757 C756 1.349 . S
C757 C773 1.349 . S
C758 C756 1.327 . S
C758 C777 1.429 . S
C758 H782 0.950 . S
C759 C776 1.574 . S
C759 C778 1.368 . S
C759 H783 0.949 . S
H760 C764 0.949 . S
C761 C762 1.349 . S
C761 C763 1.327 . S
C761 H784 0.950 . S
C762 C761 1.349 . S
C762 C774 1.349 . S
C763 C761 1.327 . S
C763 C779 1.429 . S
C763 H785 0.950 . S
C764 H760 0.949 . S
C764 C772 1.574 . S
C764 C780 1.368 . S
H765 C773 0.950 . S
H766 C771 0.950 . S
H767 C772 0.949 . S
H768 C774 0.950 . S
H769 C775 0.950 . S
H770 C776 0.949 . S
C771 H766 0.950 . S
C771 C773 1.327 . S
C771 C777 1.429 . S
C772 C764 1.574 . S
C772 H767 0.949 . S
C772 C778 1.368 . S
C773 C757 1.349 . S
C773 H765 0.950 . S
C773 C771 1.327 . S
C774 C762 1.349 . S
C774 H768 0.950 . S
C774 C775 1.327 . S
C775 H769 0.950 . S
C775 C774 1.327 . S
C775 C779 1.429 . S
C776 C759 1.574 . S
C776 H770 0.949 . S
C776 C780 1.368 . S
C777 C758 1.429 . S
C777 C771 1.429 . S
C777 C778 1.523 . S
C778 C759 1.368 . S
C778 C772 1.368 . S
C778 C777 1.523 . S
C779 C763 1.429 . S
C779 C775 1.429 . S
C779 C780 1.523 . S
C780 C764 1.368 . S
C780 C776 1.368 . S
C780 C779 1.523 . S
H781 C756 0.950 . S
H782 C758 0.950 . S
H783 C759 0.949 . S
H784 C761 0.950 . S
H785 C763 0.950 . S
C786 C787 1.349 . S
C786 C788 1.327 . S
C786 H811 0.950 . S
C787 C786 1.349 . S
C787 C803 1.349 . S
C788 C786 1.327 . S
C788 C807 1.429 . S
C788 H812 0.950 . S
C789 C806 1.574 . S
C789 C808 1.368 . S
C789 H813 0.949 . S
H790 C794 0.949 . S
C791 C792 1.349 . S
C791 C793 1.327 . S
C791 H814 0.950 . S
C792 C791 1.349 . S
C792 C804 1.349 . S
C793 C791 1.327 . S
C793 C809 1.429 . S
C793 H815 0.950 . S
C794 H790 0.949 . S
C794 C802 1.574 . S
C794 C810 1.368 . S
H795 C803 0.950 . S
H796 C801 0.950 . S
H797 C802 0.949 . S
H798 C804 0.950 . S
H799 C805 0.950 . S
H800 C806 0.949 . S
C801 H796 0.950 . S
C801 C803 1.327 . S
C801 C807 1.429 . S
C802 C794 1.574 . S
C802 H797 0.949 . S
C802 C808 1.368 . S
C803 C787 1.349 . S
C803 H795 0.950 . S
C803 C801 1.327 . S
C804 C792 1.349 . S
C804 H798 0.950 . S
C804 C805 1.327 . S
C805 H799 0.950 . S
C805 C804 1.327 . S
C805 C809 1.429 . S
C806 C789 1.574 . S
C806 H800 0.949 . S
C806 C810 1.368 . S
C807 C788 1.429 . S
C807 C801 1.429 . S
C807 C808 1.523 . S
C808 C789 1.368 . S
C808 C802 1.368 . S
C808 C807 1.523 . S
C809 C793 1.429 . S
C809 C805 1.429 . S
C809 C810 1.523 . S
C810 C794 1.368 . S
C810 C806 1.368 . S
C810 C809 1.523 . S
H811 C786 0.950 . S
H812 C788 0.950 . S
H813 C789 0.949 . S
H814 C791 0.950 . S
H815 C793 0.950 . S
C816 C817 1.349 . S
C816 C818 1.327 . S
C816 H841 0.950 . S
C817 C816 1.349 . S
C817 C833 1.349 . S
C818 C816 1.327 . S
C818 C837 1.429 . S
C818 H842 0.950 . S
C819 C836 1.574 . S
C819 C838 1.368 . S
C819 H843 0.949 . S
H820 C824 0.949 . S
C821 C822 1.349 . S
C821 C823 1.327 . S
C821 H844 0.950 . S
C822 C821 1.349 . S
C822 C834 1.349 . S
C823 C821 1.327 . S
C823 C839 1.429 . S
C823 H845 0.950 . S
C824 H820 0.949 . S
C824 C832 1.574 . S
C824 C840 1.368 . S
H825 C833 0.950 . S
H826 C831 0.950 . S
H827 C832 0.949 . S
H828 C834 0.950 . S
H829 C835 0.950 . S
H830 C836 0.949 . S
C831 H826 0.950 . S
C831 C833 1.327 . S
C831 C837 1.429 . S
C832 C824 1.574 . S
C832 H827 0.949 . S
C832 C838 1.368 . S
C833 C817 1.349 . S
C833 H825 0.950 . S
C833 C831 1.327 . S
C834 C822 1.349 . S
C834 H828 0.950 . S
C834 C835 1.327 . S
C835 H829 0.950 . S
C835 C834 1.327 . S
C835 C839 1.429 . S
C836 C819 1.574 . S
C836 H830 0.949 . S
C836 C840 1.368 . S
C837 C818 1.429 . S
C837 C831 1.429 . S
C837 C838 1.523 . S
C838 C819 1.368 . S
C838 C832 1.368 . S
C838 C837 1.523 . S
C839 C823 1.429 . S
C839 C835 1.429 . S
C839 C840 1.523 . S
C840 C824 1.368 . S
C840 C836 1.368 . S
C840 C839 1.523 . S
H841 C816 0.950 . S
H842 C818 0.950 . S
H843 C819 0.949 . S
H844 C821 0.950 . S
H845 C823 0.950 . S
C846 C847 1.349 . S
C846 C848 1.327 . S
C846 H871 0.950 . S
C847 C846 1.349 . S
C847 C863 1.349 . S
C848 C846 1.327 . S
C848 C867 1.429 . S
C848 H872 0.950 . S
C849 C866 1.574 . S
C849 C868 1.368 . S
C849 H873 0.949 . S
H850 C854 0.949 . S
C851 C852 1.349 . S
C851 C853 1.327 . S
C851 H874 0.950 . S
C852 C851 1.349 . S
C852 C864 1.349 . S
C853 C851 1.327 . S
C853 C869 1.429 . S
C853 H875 0.950 . S
C854 H850 0.949 . S
C854 C862 1.574 . S
C854 C870 1.368 . S
H855 C863 0.950 . S
H856 C861 0.950 . S
H857 C862 0.949 . S
H858 C864 0.950 . S
H859 C865 0.950 . S
H860 C866 0.949 . S
C861 H856 0.950 . S
C861 C863 1.327 . S
C861 C867 1.429 . S
C862 C854 1.574 . S
C862 H857 0.949 . S
C862 C868 1.368 . S
C863 C847 1.349 . S
C863 H855 0.950 . S
C863 C861 1.327 . S
C864 C852 1.349 . S
C864 H858 0.950 . S
C864 C865 1.327 . S
C865 H859 0.950 . S
C865 C864 1.327 . S
C865 C869 1.429 . S
C866 C849 1.574 . S
C866 H860 0.949 . S
C866 C870 1.368 . S
C867 C848 1.429 . S
C867 C861 1.429 . S
C867 C868 1.523 . S
C868 C849 1.368 . S
C868 C862 1.368 . S
C868 C867 1.523 . S
C869 C853 1.429 . S
C869 C865 1.429 . S
C869 C870 1.523 . S
C870 C854 1.368 . S
C870 C866 1.368 . S
C870 C869 1.523 . S
H871 C846 0.950 . S
H872 C848 0.950 . S
H873 C849 0.949 . S
H874 C851 0.950 . S
H875 C853 0.950 . S
C876 C877 1.349 . S
C876 C878 1.327 . S
C876 H901 0.950 . S
C877 C876 1.349 . S
C877 C893 1.349 . S
C878 C876 1.327 . S
C878 C897 1.429 . S
C878 H902 0.950 . S
C879 C896 1.574 . S
C879 C898 1.368 . S
C879 H903 0.949 . S
H880 C884 0.949 . S
C881 C882 1.349 . S
C881 C883 1.327 . S
C881 H904 0.950 . S
C882 C881 1.349 . S
C882 C894 1.349 . S
C883 C881 1.327 . S
C883 C899 1.429 . S
C883 H905 0.950 . S
C884 H880 0.949 . S
C884 C892 1.574 . S
C884 C900 1.368 . S
H885 C893 0.950 . S
H886 C891 0.950 . S
H887 C892 0.949 . S
H888 C894 0.950 . S
H889 C895 0.950 . S
H890 C896 0.949 . S
C891 H886 0.950 . S
C891 C893 1.327 . S
C891 C897 1.429 . S
C892 C884 1.574 . S
C892 H887 0.949 . S
C892 C898 1.368 . S
C893 C877 1.349 . S
C893 H885 0.950 . S
C893 C891 1.327 . S
C894 C882 1.349 . S
C894 H888 0.950 . S
C894 C895 1.327 . S
C895 H889 0.950 . S
C895 C894 1.327 . S
C895 C899 1.429 . S
C896 C879 1.574 . S
C896 H890 0.949 . S
C896 C900 1.368 . S
C897 C878 1.429 . S
C897 C891 1.429 . S
C897 C898 1.523 . S
C898 C879 1.368 . S
C898 C892 1.368 . S
C898 C897 1.523 . S
C899 C883 1.429 . S
C899 C895 1.429 . S
C899 C900 1.523 . S
C900 C884 1.368 . S
C900 C896 1.368 . S
C900 C899 1.523 . S
H901 C876 0.950 . S
H902 C878 0.950 . S
H903 C879 0.949 . S
H904 C881 0.950 . S
H905 C883 0.950 . S
C906 C907 1.349 . S
C906 C908 1.327 . S
C906 H931 0.950 . S
C907 C906 1.349 . S
C907 C923 1.349 . S
C908 C906 1.327 . S
C908 C927 1.429 . S
C908 H932 0.950 . S
C909 C926 1.574 . S
C909 C928 1.368 . S
C909 H933 0.949 . S
H910 C914 0.949 . S
C911 C912 1.349 . S
C911 C913 1.327 . S
C911 H934 0.950 . S
C912 C911 1.349 . S
C912 C924 1.349 . S
C913 C911 1.327 . S
C913 C929 1.429 . S
C913 H935 0.950 . S
C914 H910 0.949 . S
C914 C922 1.574 . S
C914 C930 1.368 . S
H915 C923 0.950 . S
H916 C921 0.950 . S
H917 C922 0.949 . S
H918 C924 0.950 . S
H919 C925 0.950 . S
H920 C926 0.949 . S
C921 H916 0.950 . S
C921 C923 1.327 . S
C921 C927 1.429 . S
C922 C914 1.574 . S
C922 H917 0.949 . S
C922 C928 1.368 . S
C923 C907 1.349 . S
C923 H915 0.950 . S
C923 C921 1.327 . S
C924 C912 1.349 . S
C924 H918 0.950 . S
C924 C925 1.327 . S
C925 H919 0.950 . S
C925 C924 1.327 . S
C925 C929 1.429 . S
C926 C909 1.574 . S
C926 H920 0.949 . S
C926 C930 1.368 . S
C927 C908 1.429 . S
C927 C921 1.429 . S
C927 C928 1.523 . S
C928 C909 1.368 . S
C928 C922 1.368 . S
C928 C927 1.523 . S
C929 C913 1.429 . S
C929 C925 1.429 . S
C929 C930 1.523 . S
C930 C914 1.368 . S
C930 C926 1.368 . S
C930 C929 1.523 . S
H931 C906 0.950 . S
H932 C908 0.950 . S
H933 C909 0.949 . S
H934 C911 0.950 . S
H935 C913 0.950 . S
C936 C937 1.349 . S
C936 C938 1.327 . S
C936 H961 0.950 . S
C937 C936 1.349 . S
C937 C953 1.349 . S
C938 C936 1.327 . S
C938 C957 1.429 . S
C938 H962 0.950 . S
C939 C956 1.574 . S
C939 C958 1.368 . S
C939 H963 0.949 . S
H940 C944 0.949 . S
C941 C942 1.349 . S
C941 C943 1.327 . S
C941 H964 0.950 . S
C942 C941 1.349 . S
C942 C954 1.349 . S
C943 C941 1.327 . S
C943 C959 1.429 . S
C943 H965 0.950 . S
C944 H940 0.949 . S
C944 C952 1.574 . S
C944 C960 1.368 . S
H945 C953 0.950 . S
H946 C951 0.950 . S
H947 C952 0.949 . S
H948 C954 0.950 . S
H949 C955 0.950 . S
H950 C956 0.949 . S
C951 H946 0.950 . S
C951 C953 1.327 . S
C951 C957 1.429 . S
C952 C944 1.574 . S
C952 H947 0.949 . S
C952 C958 1.368 . S
C953 C937 1.349 . S
C953 H945 0.950 . S
C953 C951 1.327 . S
C954 C942 1.349 . S
C954 H948 0.950 . S
C954 C955 1.327 . S
C955 H949 0.950 . S
C955 C954 1.327 . S
C955 C959 1.429 . S
C956 C939 1.574 . S
C956 H950 0.949 . S
C956 C960 1.368 . S
C957 C938 1.429 . S
C957 C951 1.429 . S
C957 C958 1.523 . S
C958 C939 1.368 . S
C958 C952 1.368 . S
C958 C957 1.523 . S
C959 C943 1.429 . S
C959 C955 1.429 . S
C959 C960 1.523 . S
C960 C944 1.368 . S
C960 C956 1.368 . S
C960 C959 1.523 . S
H961 C936 0.950 . S
H962 C938 0.950 . S
H963 C939 0.949 . S
H964 C941 0.950 . S
H965 C943 0.950 . S
C966 C967 1.349 . S
C966 C968 1.327 . S
C966 H991 0.950 . S
C967 C966 1.349 . S
C967 C983 1.349 . S
C968 C966 1.327 . S
C968 C987 1.429 . S
C968 H992 0.950 . S
C969 C986 1.574 . S
C969 C988 1.368 . S
C969 H993 0.949 . S
H970 C974 0.949 . S
C971 C972 1.349 . S
C971 C973 1.327 . S
C971 H994 0.950 . S
C972 C971 1.349 . S
C972 C984 1.349 . S
C973 C971 1.327 . S
C973 C989 1.429 . S
C973 H995 0.950 . S
C974 H970 0.949 . S
C974 C982 1.574 . S
C974 C990 1.368 . S
H975 C983 0.950 . S
H976 C981 0.950 . S
H977 C982 0.949 . S
H978 C984 0.950 . S
H979 C985 0.950 . S
H980 C986 0.949 . S
C981 H976 0.950 . S
C981 C983 1.327 . S
C981 C987 1.429 . S
C982 C974 1.574 . S
C982 H977 0.949 . S
C982 C988 1.368 . S
C983 C967 1.349 . S
C983 H975 0.950 . S
C983 C981 1.327 . S
C984 C972 1.349 . S
C984 H978 0.950 . S
C984 C985 1.327 . S
C985 H979 0.950 . S
C985 C984 1.327 . S
C985 C989 1.429 . S
C986 C969 1.574 . S
C986 H980 0.949 . S
C986 C990 1.368 . S
C987 C968 1.429 . S
C987 C981 1.429 . S
C987 C988 1.523 . S
C988 C969 1.368 . S
C988 C982 1.368 . S
C988 C987 1.523 . S
C989 C973 1.429 . S
C989 C985 1.429 . S
C989 C990 1.523 . S
C990 C974 1.368 . S
C990 C986 1.368 . S
C990 C989 1.523 . S
H991 C966 0.950 . S
H992 C968 0.950 . S
H993 C969 0.949 . S
H994 C971 0.950 . S
H995 C973 0.950 . S
C996 C997 1.349 . S
C996 C998 1.327 . S
C996 H1021 0.950 . S
C997 C996 1.349 . S
C997 C1013 1.349 . S
C998 C996 1.327 . S
C998 C1017 1.429 . S
C998 H1022 0.950 . S
C999 C1016 1.574 . S
C999 C1018 1.368 . S
C999 H1023 0.949 . S
H1000 C1004 0.949 . S
C1001 C1002 1.349 . S
C1001 C1003 1.327 . S
C1001 H1024 0.950 . S
C1002 C1001 1.349 . S
C1002 C1014 1.349 . S
C1003 C1001 1.327 . S
C1003 C1019 1.429 . S
C1003 H1025 0.950 . S
C1004 H1000 0.949 . S
C1004 C1012 1.574 . S
C1004 C1020 1.368 . S
H1005 C1013 0.950 . S
H1006 C1011 0.950 . S
H1007 C1012 0.949 . S
H1008 C1014 0.950 . S
H1009 C1015 0.950 . S
H1010 C1016 0.949 . S
C1011 H1006 0.950 . S
C1011 C1013 1.327 . S
C1011 C1017 1.429 . S
C1012 C1004 1.574 . S
C1012 H1007 0.949 . S
C1012 C1018 1.368 . S
C1013 C997 1.349 . S
C1013 H1005 0.950 . S
C1013 C1011 1.327 . S
C1014 C1002 1.349 . S
C1014 H1008 0.950 . S
C1014 C1015 1.327 . S
C1015 H1009 0.950 . S
C1015 C1014 1.327 . S
C1015 C1019 1.429 . S
C1016 C999 1.574 . S
C1016 H1010 0.949 . S
C1016 C1020 1.368 . S
C1017 C998 1.429 . S
C1017 C1011 1.429 . S
C1017 C1018 1.523 . S
C1018 C999 1.368 . S
C1018 C1012 1.368 . S
C1018 C1017 1.523 . S
C1019 C1003 1.429 . S
C1019 C1015 1.429 . S
C1019 C1020 1.523 . S
C1020 C1004 1.368 . S
C1020 C1016 1.368 . S
C1020 C1019 1.523 . S
H1021 C996 0.950 . S
H1022 C998 0.950 . S
H1023 C999 0.949 . S
H1024 C1001 0.950 . S
H1025 C1003 0.950 . S
C1026 C1027 1.349 . S
C1026 C1028 1.327 . S
C1026 H1051 0.950 . S
C1027 C1026 1.349 . S
C1027 C1043 1.349 . S
C1028 C1026 1.327 . S
C1028 C1047 1.429 . S
C1028 H1052 0.950 . S
C1029 C1046 1.574 . S
C1029 C1048 1.368 . S
C1029 H1053 0.949 . S
H1030 C1034 0.949 . S
C1031 C1032 1.349 . S
C1031 C1033 1.327 . S
C1031 H1054 0.950 . S
C1032 C1031 1.349 . S
C1032 C1044 1.349 . S
C1033 C1031 1.327 . S
C1033 C1049 1.429 . S
C1033 H1055 0.950 . S
C1034 H1030 0.949 . S
C1034 C1042 1.574 . S
C1034 C1050 1.368 . S
H1035 C1043 0.950 . S
H1036 C1041 0.950 . S
H1037 C1042 0.949 . S
H1038 C1044 0.950 . S
H1039 C1045 0.950 . S
H1040 C1046 0.949 . S
C1041 H1036 0.950 . S
C1041 C1043 1.327 . S
C1041 C1047 1.429 . S
C1042 C1034 1.574 . S
C1042 H1037 0.949 . S
C1042 C1048 1.368 . S
C1043 C1027 1.349 . S
C1043 H1035 0.950 . S
C1043 C1041 1.327 . S
C1044 C1032 1.349 . S
C1044 H1038 0.950 . S
C1044 C1045 1.327 . S
C1045 H1039 0.950 . S
C1045 C1044 1.327 . S
C1045 C1049 1.429 . S
C1046 C1029 1.574 . S
C1046 H1040 0.949 . S
C1046 C1050 1.368 . S
C1047 C1028 1.429 . S
C1047 C1041 1.429 . S
C1047 C1048 1.523 . S
C1048 C1029 1.368 . S
C1048 C1042 1.368 . S
C1048 C1047 1.523 . S
C1049 C1033 1.429 . S
C1049 C1045 1.429 . S
C1049 C1050 1.523 . S
C1050 C1034 1.368 . S
C1050 C1046 1.368 . S
C1050 C1049 1.523 . S
H1051 C1026 0.950 . S
H1052 C1028 0.950 . S
H1053 C1029 0.949 . S
H1054 C1031 0.950 . S
H1055 C1033 0.950 . S
C1056 C1057 1.349 . S
C1056 C1058 1.327 . S
C1056 H1081 0.950 . S
C1057 C1056 1.349 . S
C1057 C1073 1.349 . S
C1058 C1056 1.327 . S
C1058 C1077 1.429 . S
C1058 H1082 0.950 . S
C1059 C1076 1.574 . S
C1059 C1078 1.368 . S
C1059 H1083 0.949 . S
H1060 C1064 0.949 . S
C1061 C1062 1.349 . S
C1061 C1063 1.327 . S
C1061 H1084 0.950 . S
C1062 C1061 1.349 . S
C1062 C1074 1.349 . S
C1063 C1061 1.327 . S
C1063 C1079 1.429 . S
C1063 H1085 0.950 . S
C1064 H1060 0.949 . S
C1064 C1072 1.574 . S
C1064 C1080 1.368 . S
H1065 C1073 0.950 . S
H1066 C1071 0.950 . S
H1067 C1072 0.949 . S
H1068 C1074 0.950 . S
H1069 C1075 0.950 . S
H1070 C1076 0.949 . S
C1071 H1066 0.950 . S
C1071 C1073 1.327 . S
C1071 C1077 1.429 . S
C1072 C1064 1.574 . S
C1072 H1067 0.949 . S
C1072 C1078 1.368 . S
C1073 C1057 1.349 . S
C1073 H1065 0.950 . S
C1073 C1071 1.327 . S
C1074 C1062 1.349 . S
C1074 H1068 0.950 . S
C1074 C1075 1.327 . S
C1075 H1069 0.950 . S
C1075 C1074 1.327 . S
C1075 C1079 1.429 . S
C1076 C1059 1.574 . S
C1076 H1070 0.949 . S
C1076 C1080 1.368 . S
C1077 C1058 1.429 . S
C1077 C1071 1.429 . S
C1077 C1078 1.523 . S
C1078 C1059 1.368 . S
C1078 C1072 1.368 . S
C1078 C1077 1.523 . S
C1079 C1063 1.429 . S
C1079 C1075 1.429 . S
C1079 C1080 1.523 . S
C1080 C1064 1.368 . S
C1080 C1076 1.368 . S
C1080 C1079 1.523 . S
H1081 C1056 0.950 . S
H1082 C1058 0.950 . S
H1083 C1059 0.949 . S
H1084 C1061 0.950 . S
H1085 C1063 0.950 . S
C1086 C1087 1.349 . S
C1086 C1088 1.327 . S
C1086 H1111 0.950 . S
C1087 C1086 1.349 . S
C1087 C1103 1.349 . S
C1088 C1086 1.327 . S
C1088 C1107 1.429 . S
C1088 H1112 0.950 . S
C1089 C1106 1.574 . S
C1089 C1108 1.368 . S
C1089 H1113 0.949 . S
H1090 C1094 0.949 . S
C1091 C1092 1.349 . S
C1091 C1093 1.327 . S
C1091 H1114 0.950 . S
C1092 C1091 1.349 . S
C1092 C1104 1.349 . S
C1093 C1091 1.327 . S
C1093 C1109 1.429 . S
C1093 H1115 0.950 . S
C1094 H1090 0.949 . S
C1094 C1102 1.574 . S
C1094 C1110 1.368 . S
H1095 C1103 0.950 . S
H1096 C1101 0.950 . S
H1097 C1102 0.949 . S
H1098 C1104 0.950 . S
H1099 C1105 0.950 . S
H1100 C1106 0.949 . S
C1101 H1096 0.950 . S
C1101 C1103 1.327 . S
C1101 C1107 1.429 . S
C1102 C1094 1.574 . S
C1102 H1097 0.949 . S
C1102 C1108 1.368 . S
C1103 C1087 1.349 . S
C1103 H1095 0.950 . S
C1103 C1101 1.327 . S
C1104 C1092 1.349 . S
C1104 H1098 0.950 . S
C1104 C1105 1.327 . S
C1105 H1099 0.950 . S
C1105 C1104 1.327 . S
C1105 C1109 1.429 . S
C1106 C1089 1.574 . S
C1106 H1100 0.949 . S
C1106 C1110 1.368 . S
C1107 C1088 1.429 . S
C1107 C1101 1.429 . S
C1107 C1108 1.523 . S
C1108 C1089 1.368 . S
C1108 C1102 1.368 . S
C1108 C1107 1.523 . S
C1109 C1093 1.429 . S
C1109 C1105 1.429 . S
C1109 C1110 1.523 . S
C1110 C1094 1.368 . S
C1110 C1106 1.368 . S
C1110 C1109 1.523 . S
H1111 C1086 0.950 . S
H1112 C1088 0.950 . S
H1113 C1089 0.949 . S
H1114 C1091 0.950 . S
H1115 C1093 0.950 . S
C1116 C1117 1.349 . S
C1116 C1118 1.327 . S
C1116 H1141 0.950 . S
C1117 C1116 1.349 . S
C1117 C1133 1.349 . S
C1118 C1116 1.327 . S
C1118 C1137 1.429 . S
C1118 H1142 0.950 . S
C1119 C1136 1.574 . S
C1119 C1138 1.368 . S
C1119 H1143 0.949 . S
H1120 C1124 0.949 . S
C1121 C1122 1.349 . S
C1121 C1123 1.327 . S
C1121 H1144 0.950 . S
C1122 C1121 1.349 . S
C1122 C1134 1.349 . S
C1123 C1121 1.327 . S
C1123 C1139 1.429 . S
C1123 H1145 0.950 . S
C1124 H1120 0.949 . S
C1124 C1132 1.574 . S
C1124 C1140 1.368 . S
H1125 C1133 0.950 . S
H1126 C1131 0.950 . S
H1127 C1132 0.949 . S
H1128 C1134 0.950 . S
H1129 C1135 0.950 . S
H1130 C1136 0.949 . S
C1131 H1126 0.950 . S
C1131 C1133 1.327 . S
C1131 C1137 1.429 . S
C1132 C1124 1.574 . S
C1132 H1127 0.949 . S
C1132 C1138 1.368 . S
C1133 C1117 1.349 . S
C1133 H1125 0.950 . S
C1133 C1131 1.327 . S
C1134 C1122 1.349 . S
C1134 H1128 0.950 . S
C1134 C1135 1.327 . S
C1135 H1129 0.950 . S
C1135 C1134 1.327 . S
C1135 C1139 1.429 . S
C1136 C1119 1.574 . S
C1136 H1130 0.949 . S
C1136 C1140 1.368 . S
C1137 C1118 1.429 . S
C1137 C1131 1.429 . S
C1137 C1138 1.523 . S
C1138 C1119 1.368 . S
C1138 C1132 1.368 . S
C1138 C1137 1.523 . S
C1139 C1123 1.429 . S
C1139 C1135 1.429 . S
C1139 C1140 1.523 . S
C1140 C1124 1.368 . S
C1140 C1136 1.368 . S
C1140 C1139 1.523 . S
H1141 C1116 0.950 . S
H1142 C1118 0.950 . S
H1143 C1119 0.949 . S
H1144 C1121 0.950 . S
H1145 C1123 0.950 . S
C1146 C1147 1.349 . S
C1146 C1148 1.327 . S
C1146 H1171 0.950 . S
C1147 C1146 1.349 . S
C1147 C1163 1.349 . S
C1148 C1146 1.327 . S
C1148 C1167 1.429 . S
C1148 H1172 0.950 . S
C1149 C1166 1.574 . S
C1149 C1168 1.368 . S
C1149 H1173 0.949 . S
H1150 C1154 0.949 . S
C1151 C1152 1.349 . S
C1151 C1153 1.327 . S
C1151 H1174 0.950 . S
C1152 C1151 1.349 . S
C1152 C1164 1.349 . S
C1153 C1151 1.327 . S
C1153 C1169 1.429 . S
C1153 H1175 0.950 . S
C1154 H1150 0.949 . S
C1154 C1162 1.574 . S
C1154 C1170 1.368 . S
H1155 C1163 0.950 . S
H1156 C1161 0.950 . S
H1157 C1162 0.949 . S
H1158 C1164 0.950 . S
H1159 C1165 0.950 . S
H1160 C1166 0.949 . S
C1161 H1156 0.950 . S
C1161 C1163 1.327 . S
C1161 C1167 1.429 . S
C1162 C1154 1.574 . S
C1162 H1157 0.949 . S
C1162 C1168 1.368 . S
C1163 C1147 1.349 . S
C1163 H1155 0.950 . S
C1163 C1161 1.327 . S
C1164 C1152 1.349 . S
C1164 H1158 0.950 . S
C1164 C1165 1.327 . S
C1165 H1159 0.950 . S
C1165 C1164 1.327 . S
C1165 C1169 1.429 . S
C1166 C1149 1.574 . S
C1166 H1160 0.949 . S
C1166 C1170 1.368 . S
C1167 C1148 1.429 . S
C1167 C1161 1.429 . S
C1167 C1168 1.523 . S
C1168 C1149 1.368 . S
C1168 C1162 1.368 . S
C1168 C1167 1.523 . S
C1169 C1153 1.429 . S
C1169 C1165 1.429 . S
C1169 C1170 1.523 . S
C1170 C1154 1.368 . S
C1170 C1166 1.368 . S
C1170 C1169 1.523 . S
H1171 C1146 0.950 . S
H1172 C1148 0.950 . S
H1173 C1149 0.949 . S
H1174 C1151 0.950 . S
H1175 C1153 0.950 . S
C1176 C1177 1.349 . S
C1176 C1178 1.327 . S
C1176 H1201 0.950 . S
C1177 C1176 1.349 . S
C1177 C1193 1.349 . S
C1178 C1176 1.327 . S
C1178 C1197 1.429 . S
C1178 H1202 0.950 . S
C1179 C1196 1.574 . S
C1179 C1198 1.368 . S
C1179 H1203 0.949 . S
H1180 C1184 0.949 . S
C1181 C1182 1.349 . S
C1181 C1183 1.327 . S
C1181 H1204 0.950 . S
C1182 C1181 1.349 . S
C1182 C1194 1.349 . S
C1183 C1181 1.327 . S
C1183 C1199 1.429 . S
C1183 H1205 0.950 . S
C1184 H1180 0.949 . S
C1184 C1192 1.574 . S
C1184 C1200 1.368 . S
H1185 C1193 0.950 . S
H1186 C1191 0.950 . S
H1187 C1192 0.949 . S
H1188 C1194 0.950 . S
H1189 C1195 0.950 . S
H1190 C1196 0.949 . S
C1191 H1186 0.950 . S
C1191 C1193 1.327 . S
C1191 C1197 1.429 . S
C1192 C1184 1.574 . S
C1192 H1187 0.949 . S
C1192 C1198 1.368 . S
C1193 C1177 1.349 . S
C1193 H1185 0.950 . S
C1193 C1191 1.327 . S
C1194 C1182 1.349 . S
C1194 H1188 0.950 . S
C1194 C1195 1.327 . S
C1195 H1189 0.950 . S
C1195 C1194 1.327 . S
C1195 C1199 1.429 . S
C1196 C1179 1.574 . S
C1196 H1190 0.949 . S
C1196 C1200 1.368 . S
C1197 C1178 1.429 . S
C1197 C1191 1.429 . S
C1197 C1198 1.523 . S
C1198 C1179 1.368 . S
C1198 C1192 1.368 . S
C1198 C1197 1.523 . S
C1199 C1183 1.429 . S
C1199 C1195 1.429 . S
C1199 C1200 1.523 . S
C1200 C1184 1.368 . S
C1200 C1196 1.368 . S
C1200 C1199 1.523 . S
H1201 C1176 0.950 . S
H1202 C1178 0.950 . S
H1203 C1179 0.949 . S
H1204 C1181 0.950 . S
H1205 C1183 0.950 . S
C1206 C1207 1.349 . S
C1206 C1208 1.327 . S
C1206 H1231 0.950 . S
C1207 C1206 1.349 . S
C1207 C1223 1.349 . S
C1208 C1206 1.327 . S
C1208 C1227 1.429 . S
C1208 H1232 0.950 . S
C1209 C1226 1.574 . S
C1209 C1228 1.368 . S
C1209 H1233 0.949 . S
H1210 C1214 0.949 . S
C1211 C1212 1.349 . S
C1211 C1213 1.327 . S
C1211 H1234 0.950 . S
C1212 C1211 1.349 . S
C1212 C1224 1.349 . S
C1213 C1211 1.327 . S
C1213 C1229 1.429 . S
C1213 H1235 0.950 . S
C1214 H1210 0.949 . S
C1214 C1222 1.574 . S
C1214 C1230 1.368 . S
H1215 C1223 0.950 . S
H1216 C1221 0.950 . S
H1217 C1222 0.949 . S
H1218 C1224 0.950 . S
H1219 C1225 0.950 . S
H1220 C1226 0.949 . S
C1221 H1216 0.950 . S
C1221 C1223 1.327 . S
C1221 C1227 1.429 . S
C1222 C1214 1.574 . S
C1222 H1217 0.949 . S
C1222 C1228 1.368 . S
C1223 C1207 1.349 . S
C1223 H1215 0.950 . S
C1223 C1221 1.327 . S
C1224 C1212 1.349 . S
C1224 H1218 0.950 . S
C1224 C1225 1.327 . S
C1225 H1219 0.950 . S
C1225 C1224 1.327 . S
C1225 C1229 1.429 . S
C1226 C1209 1.574 . S
C1226 H1220 0.949 . S
C1226 C1230 1.368 . S
C1227 C1208 1.429 . S
C1227 C1221 1.429 . S
C1227 C1228 1.523 . S
C1228 C1209 1.368 . S
C1228 C1222 1.368 . S
C1228 C1227 1.523 . S
C1229 C1213 1.429 . S
C1229 C1225 1.429 . S
C1229 C1230 1.523 . S
C1230 C1214 1.368 . S
C1230 C1226 1.368 . S
C1230 C1229 1.523 . S
H1231 C1206 0.950 . S
H1232 C1208 0.950 . S
H1233 C1209 0.949 . S
H1234 C1211 0.950 . S
H1235 C1213 0.950 . S
C1236 C1237 1.349 . S
C1236 C1238 1.327 . S
C1236 H1261 0.950 . S
C1237 C1236 1.349 . S
C1237 C1253 1.349 . S
C1238 C1236 1.327 . S
C1238 C1257 1.429 . S
C1238 H1262 0.950 . S
C1239 C1256 1.574 . S
C1239 C1258 1.368 . S
C1239 H1263 0.949 . S
H1240 C1244 0.949 . S
C1241 C1242 1.349 . S
C1241 C1243 1.327 . S
C1241 H1264 0.950 . S
C1242 C1241 1.349 . S
C1242 C1254 1.349 . S
C1243 C1241 1.327 . S
C1243 C1259 1.429 . S
C1243 H1265 0.950 . S
C1244 H1240 0.949 . S
C1244 C1252 1.574 . S
C1244 C1260 1.368 . S
H1245 C1253 0.950 . S
H1246 C1251 0.950 . S
H1247 C1252 0.949 . S
H1248 C1254 0.950 . S
H1249 C1255 0.950 . S
H1250 C1256 0.949 . S
C1251 H1246 0.950 . S
C1251 C1253 1.327 . S
C1251 C1257 1.429 . S
C1252 C1244 1.574 . S
C1252 H1247 0.949 . S
C1252 C1258 1.368 . S
C1253 C1237 1.349 . S
C1253 H1245 0.950 . S
C1253 C1251 1.327 . S
C1254 C1242 1.349 . S
C1254 H1248 0.950 . S
C1254 C1255 1.327 . S
C1255 H1249 0.950 . S
C1255 C1254 1.327 . S
C1255 C1259 1.429 . S
C1256 C1239 1.574 . S
C1256 H1250 0.949 . S
C1256 C1260 1.368 . S
C1257 C1238 1.429 . S
C1257 C1251 1.429 . S
C1257 C1258 1.523 . S
C1258 C1239 1.368 . S
C1258 C1252 1.368 . S
C1258 C1257 1.523 . S
C1259 C1243 1.429 . S
C1259 C1255 1.429 . S
C1259 C1260 1.523 . S
C1260 C1244 1.368 . S
C1260 C1256 1.368 . S
C1260 C1259 1.523 . S
H1261 C1236 0.950 . S
H1262 C1238 0.950 . S
H1263 C1239 0.949 . S
H1264 C1241 0.950 . S
H1265 C1243 0.950 . S
C1266 C1267 1.349 . S
C1266 C1268 1.327 . S
C1266 H1291 0.950 . S
C1267 C1266 1.349 . S
C1267 C1283 1.349 . S
C1268 C1266 1.327 . S
C1268 C1287 1.429 . S
C1268 H1292 0.950 . S
C1269 C1286 1.574 . S
C1269 C1288 1.368 . S
C1269 H1293 0.949 . S
H1270 C1274 0.949 . S
C1271 C1272 1.349 . S
C1271 C1273 1.327 . S
C1271 H1294 0.950 . S
C1272 C1271 1.349 . S
C1272 C1284 1.349 . S
C1273 C1271 1.327 . S
C1273 C1289 1.429 . S
C1273 H1295 0.950 . S
C1274 H1270 0.949 . S
C1274 C1282 1.574 . S
C1274 C1290 1.368 . S
H1275 C1283 0.950 . S
H1276 C1281 0.950 . S
H1277 C1282 0.949 . S
H1278 C1284 0.950 . S
H1279 C1285 0.950 . S
H1280 C1286 0.949 . S
C1281 H1276 0.950 . S
C1281 C1283 1.327 . S
C1281 C1287 1.429 . S
C1282 C1274 1.574 . S
C1282 H1277 0.949 . S
C1282 C1288 1.368 . S
C1283 C1267 1.349 . S
C1283 H1275 0.950 . S
C1283 C1281 1.327 . S
C1284 C1272 1.349 . S
C1284 H1278 0.950 . S
C1284 C1285 1.327 . S
C1285 H1279 0.950 . S
C1285 C1284 1.327 . S
C1285 C1289 1.429 . S
C1286 C1269 1.574 . S
C1286 H1280 0.949 . S
C1286 C1290 1.368 . S
C1287 C1268 1.429 . S
C1287 C1281 1.429 . S
C1287 C1288 1.523 . S
C1288 C1269 1.368 . S
C1288 C1282 1.368 . S
C1288 C1287 1.523 . S
C1289 C1273 1.429 . S
C1289 C1285 1.429 . S
C1289 C1290 1.523 . S
C1290 C1274 1.368 . S
C1290 C1286 1.368 . S
C1290 C1289 1.523 . S
H1291 C1266 0.950 . S
H1292 C1268 0.950 . S
H1293 C1269 0.949 . S
H1294 C1271 0.950 . S
H1295 C1273 0.950 . S
C1296 C1297 1.349 . S
C1296 C1298 1.327 . S
C1296 H1321 0.950 . S
C1297 C1296 1.349 . S
C1297 C1313 1.349 . S
C1298 C1296 1.327 . S
C1298 C1317 1.429 . S
C1298 H1322 0.950 . S
C1299 C1316 1.574 . S
C1299 C1318 1.368 . S
C1299 H1323 0.949 . S
H1300 C1304 0.949 . S
C1301 C1302 1.349 . S
C1301 C1303 1.327 . S
C1301 H1324 0.950 . S
C1302 C1301 1.349 . S
C1302 C1314 1.349 . S
C1303 C1301 1.327 . S
C1303 C1319 1.429 . S
C1303 H1325 0.950 . S
C1304 H1300 0.949 . S
C1304 C1312 1.574 . S
C1304 C1320 1.368 . S
H1305 C1313 0.950 . S
H1306 C1311 0.950 . S
H1307 C1312 0.949 . S
H1308 C1314 0.950 . S
H1309 C1315 0.950 . S
H1310 C1316 0.949 . S
C1311 H1306 0.950 . S
C1311 C1313 1.327 . S
C1311 C1317 1.429 . S
C1312 C1304 1.574 . S
C1312 H1307 0.949 . S
C1312 C1318 1.368 . S
C1313 C1297 1.349 . S
C1313 H1305 0.950 . S
C1313 C1311 1.327 . S
C1314 C1302 1.349 . S
C1314 H1308 0.950 . S
C1314 C1315 1.327 . S
C1315 H1309 0.950 . S
C1315 C1314 1.327 . S
C1315 C1319 1.429 . S
C1316 C1299 1.574 . S
C1316 H1310 0.949 . S
C1316 C1320 1.368 . S
C1317 C1298 1.429 . S
C1317 C1311 1.429 . S
C1317 C1318 1.523 . S
C1318 C1299 1.368 . S
C1318 C1312 1.368 . S
C1318 C1317 1.523 . S
C1319 C1303 1.429 . S
C1319 C1315 1.429 . S
C1319 C1320 1.523 . S
C1320 C1304 1.368 . S
C1320 C1316 1.368 . S
C1320 C1319 1.523 . S
H1321 C1296 0.950 . S
H1322 C1298 0.950 . S
H1323 C1299 0.949 . S
H1324 C1301 0.950 . S
H1325 C1303 0.950 . S
C1326 C1327 1.349 . S
C1326 C1328 1.327 . S
C1326 H1351 0.950 . S
C1327 C1326 1.349 . S
C1327 C1343 1.349 . S
C1328 C1326 1.327 . S
C1328 C1347 1.429 . S
C1328 H1352 0.950 . S
C1329 C1346 1.574 . S
C1329 C1348 1.368 . S
C1329 H1353 0.949 . S
H1330 C1334 0.949 . S
C1331 C1332 1.349 . S
C1331 C1333 1.327 . S
C1331 H1354 0.950 . S
C1332 C1331 1.349 . S
C1332 C1344 1.349 . S
C1333 C1331 1.327 . S
C1333 C1349 1.429 . S
C1333 H1355 0.950 . S
C1334 H1330 0.949 . S
C1334 C1342 1.574 . S
C1334 C1350 1.368 . S
H1335 C1343 0.950 . S
H1336 C1341 0.950 . S
H1337 C1342 0.949 . S
H1338 C1344 0.950 . S
H1339 C1345 0.950 . S
H1340 C1346 0.949 . S
C1341 H1336 0.950 . S
C1341 C1343 1.327 . S
C1341 C1347 1.429 . S
C1342 C1334 1.574 . S
C1342 H1337 0.949 . S
C1342 C1348 1.368 . S
C1343 C1327 1.349 . S
C1343 H1335 0.950 . S
C1343 C1341 1.327 . S
C1344 C1332 1.349 . S
C1344 H1338 0.950 . S
C1344 C1345 1.327 . S
C1345 H1339 0.950 . S
C1345 C1344 1.327 . S
C1345 C1349 1.429 . S
C1346 C1329 1.574 . S
C1346 H1340 0.949 . S
C1346 C1350 1.368 . S
C1347 C1328 1.429 . S
C1347 C1341 1.429 . S
C1347 C1348 1.523 . S
C1348 C1329 1.368 . S
C1348 C1342 1.368 . S
C1348 C1347 1.523 . S
C1349 C1333 1.429 . S
C1349 C1345 1.429 . S
C1349 C1350 1.523 . S
C1350 C1334 1.368 . S
C1350 C1346 1.368 . S
C1350 C1349 1.523 . S
H1351 C1326 0.950 . S
H1352 C1328 0.950 . S
H1353 C1329 0.949 . S
H1354 C1331 0.950 . S
H1355 C1333 0.950 . S
C1356 C1357 1.349 . S
C1356 C1358 1.327 . S
C1356 H1381 0.950 . S
C1357 C1356 1.349 . S
C1357 C1373 1.349 . S
C1358 C1356 1.327 . S
C1358 C1377 1.429 . S
C1358 H1382 0.950 . S
C1359 C1376 1.574 . S
C1359 C1378 1.368 . S
C1359 H1383 0.949 . S
H1360 C1364 0.949 . S
C1361 C1362 1.349 . S
C1361 C1363 1.327 . S
C1361 H1384 0.950 . S
C1362 C1361 1.349 . S
C1362 C1374 1.349 . S
C1363 C1361 1.327 . S
C1363 C1379 1.429 . S
C1363 H1385 0.950 . S
C1364 H1360 0.949 . S
C1364 C1372 1.574 . S
C1364 C1380 1.368 . S
H1365 C1373 0.950 . S
H1366 C1371 0.950 . S
H1367 C1372 0.949 . S
H1368 C1374 0.950 . S
H1369 C1375 0.950 . S
H1370 C1376 0.949 . S
C1371 H1366 0.950 . S
C1371 C1373 1.327 . S
C1371 C1377 1.429 . S
C1372 C1364 1.574 . S
C1372 H1367 0.949 . S
C1372 C1378 1.368 . S
C1373 C1357 1.349 . S
C1373 H1365 0.950 . S
C1373 C1371 1.327 . S
C1374 C1362 1.349 . S
C1374 H1368 0.950 . S
C1374 C1375 1.327 . S
C1375 H1369 0.950 . S
C1375 C1374 1.327 . S
C1375 C1379 1.429 . S
C1376 C1359 1.574 . S
C1376 H1370 0.949 . S
C1376 C1380 1.368 . S
C1377 C1358 1.429 . S
C1377 C1371 1.429 . S
C1377 C1378 1.523 . S
C1378 C1359 1.368 . S
C1378 C1372 1.368 . S
C1378 C1377 1.523 . S
C1379 C1363 1.429 . S
C1379 C1375 1.429 . S
C1379 C1380 1.523 . S
C1380 C1364 1.368 . S
C1380 C1376 1.368 . S
C1380 C1379 1.523 . S
H1381 C1356 0.950 . S
H1382 C1358 0.950 . S
H1383 C1359 0.949 . S
H1384 C1361 0.950 . S
H1385 C1363 0.950 . S
C1386 C1387 1.349 . S
C1386 C1388 1.327 . S
C1386 H1411 0.950 . S
C1387 C1386 1.349 . S
C1387 C1403 1.349 . S
C1388 C1386 1.327 . S
C1388 C1407 1.429 . S
C1388 H1412 0.950 . S
C1389 C1406 1.574 . S
C1389 C1408 1.368 . S
C1389 H1413 0.949 . S
H1390 C1394 0.949 . S
C1391 C1392 1.349 . S
C1391 C1393 1.327 . S
C1391 H1414 0.950 . S
C1392 C1391 1.349 . S
C1392 C1404 1.349 . S
C1393 C1391 1.327 . S
C1393 C1409 1.429 . S
C1393 H1415 0.950 . S
C1394 H1390 0.949 . S
C1394 C1402 1.574 . S
C1394 C1410 1.368 . S
H1395 C1403 0.950 . S
H1396 C1401 0.950 . S
H1397 C1402 0.949 . S
H1398 C1404 0.950 . S
H1399 C1405 0.950 . S
H1400 C1406 0.949 . S
C1401 H1396 0.950 . S
C1401 C1403 1.327 . S
C1401 C1407 1.429 . S
C1402 C1394 1.574 . S
C1402 H1397 0.949 . S
C1402 C1408 1.368 . S
C1403 C1387 1.349 . S
C1403 H1395 0.950 . S
C1403 C1401 1.327 . S
C1404 C1392 1.349 . S
C1404 H1398 0.950 . S
C1404 C1405 1.327 . S
C1405 H1399 0.950 . S
C1405 C1404 1.327 . S
C1405 C1409 1.429 . S
C1406 C1389 1.574 . S
C1406 H1400 0.949 . S
C1406 C1410 1.368 . S
C1407 C1388 1.429 . S
C1407 C1401 1.429 . S
C1407 C1408 1.523 . S
C1408 C1389 1.368 . S
C1408 C1402 1.368 . S
C1408 C1407 1.523 . S
C1409 C1393 1.429 . S
C1409 C1405 1.429 . S
C1409 C1410 1.523 . S
C1410 C1394 1.368 . S
C1410 C1406 1.368 . S
C1410 C1409 1.523 . S
H1411 C1386 0.950 . S
H1412 C1388 0.950 . S
H1413 C1389 0.949 . S
H1414 C1391 0.950 . S
H1415 C1393 0.950 . S
C1416 C1417 1.349 . S
C1416 C1418 1.327 . S
C1416 H1441 0.950 . S
C1417 C1416 1.349 . S
C1417 C1433 1.349 . S
C1418 C1416 1.327 . S
C1418 C1437 1.429 . S
C1418 H1442 0.950 . S
C1419 C1436 1.574 . S
C1419 C1438 1.368 . S
C1419 H1443 0.949 . S
H1420 C1424 0.949 . S
C1421 C1422 1.349 . S
C1421 C1423 1.327 . S
C1421 H1444 0.950 . S
C1422 C1421 1.349 . S
C1422 C1434 1.349 . S
C1423 C1421 1.327 . S
C1423 C1439 1.429 . S
C1423 H1445 0.950 . S
C1424 H1420 0.949 . S
C1424 C1432 1.574 . S
C1424 C1440 1.368 . S
H1425 C1433 0.950 . S
H1426 C1431 0.950 . S
H1427 C1432 0.949 . S
H1428 C1434 0.950 . S
H1429 C1435 0.950 . S
H1430 C1436 0.949 . S
C1431 H1426 0.950 . S
C1431 C1433 1.327 . S
C1431 C1437 1.429 . S
C1432 C1424 1.574 . S
C1432 H1427 0.949 . S
C1432 C1438 1.368 . S
C1433 C1417 1.349 . S
C1433 H1425 0.950 . S
C1433 C1431 1.327 . S
C1434 C1422 1.349 . S
C1434 H1428 0.950 . S
C1434 C1435 1.327 . S
C1435 H1429 0.950 . S
C1435 C1434 1.327 . S
C1435 C1439 1.429 . S
C1436 C1419 1.574 . S
C1436 H1430 0.949 . S
C1436 C1440 1.368 . S
C1437 C1418 1.429 . S
C1437 C1431 1.429 . S
C1437 C1438 1.523 . S
C1438 C1419 1.368 . S
C1438 C1432 1.368 . S
C1438 C1437 1.523 . S
C1439 C1423 1.429 . S
C1439 C1435 1.429 . S
C1439 C1440 1.523 . S
C1440 C1424 1.368 . S
C1440 C1436 1.368 . S
C1440 C1439 1.523 . S
H1441 C1416 0.950 . S
H1442 C1418 0.950 . S
H1443 C1419 0.949 . S
H1444 C1421 0.950 . S
H1445 C1423 0.950 . S
C1446 C1447 1.349 . S
C1446 C1448 1.327 . S
C1446 H1471 0.950 . S
C1447 C1446 1.349 . S
C1447 C1463 1.349 . S
C1448 C1446 1.327 . S
C1448 C1467 1.429 . S
C1448 H1472 0.950 . S
C1449 C1466 1.574 . S
C1449 C1468 1.368 . S
C1449 H1473 0.949 . S
H1450 C1454 0.949 . S
C1451 C1452 1.349 . S
C1451 C1453 1.327 . S
C1451 H1474 0.950 . S
C1452 C1451 1.349 . S
C1452 C1464 1.349 . S
C1453 C1451 1.327 . S
C1453 C1469 1.429 . S
C1453 H1475 0.950 . S
C1454 H1450 0.949 . S
C1454 C1462 1.574 . S
C1454 C1470 1.368 . S
H1455 C1463 0.950 . S
H1456 C1461 0.950 . S
H1457 C1462 0.949 . S
H1458 C1464 0.950 . S
H1459 C1465 0.950 . S
H1460 C1466 0.949 . S
C1461 H1456 0.950 . S
C1461 C1463 1.327 . S
C1461 C1467 1.429 . S
C1462 C1454 1.574 . S
C1462 H1457 0.949 . S
C1462 C1468 1.368 . S
C1463 C1447 1.349 . S
C1463 H1455 0.950 . S
C1463 C1461 1.327 . S
C1464 C1452 1.349 . S
C1464 H1458 0.950 . S
C1464 C1465 1.327 . S
C1465 H1459 0.950 . S
C1465 C1464 1.327 . S
C1465 C1469 1.429 . S
C1466 C1449 1.574 . S
C1466 H1460 0.949 . S
C1466 C1470 1.368 . S
C1467 C1448 1.429 . S
C1467 C1461 1.429 . S
C1467 C1468 1.523 . S
C1468 C1449 1.368 . S
C1468 C1462 1.368 . S
C1468 C1467 1.523 . S
C1469 C1453 1.429 . S
C1469 C1465 1.429 . S
C1469 C1470 1.523 . S
C1470 C1454 1.368 . S
C1470 C1466 1.368 . S
C1470 C1469 1.523 . S
H1471 C1446 0.950 . S
H1472 C1448 0.950 . S
H1473 C1449 0.949 . S
H1474 C1451 0.950 . S
H1475 C1453 0.950 . S
C1476 C1477 1.349 . S
C1476 C1478 1.327 . S
C1476 H1501 0.950 . S
C1477 C1476 1.349 . S
C1477 C1493 1.349 . S
C1478 C1476 1.327 . S
C1478 C1497 1.429 . S
C1478 H1502 0.950 . S
C1479 C1496 1.574 . S
C1479 C1498 1.368 . S
C1479 H1503 0.949 . S
H1480 C1484 0.949 . S
C1481 C1482 1.349 . S
C1481 C1483 1.327 . S
C1481 H1504 0.950 . S
C1482 C1481 1.349 . S
C1482 C1494 1.349 . S
C1483 C1481 1.327 . S
C1483 C1499 1.429 . S
C1483 H1505 0.950 . S
C1484 H1480 0.949 . S
C1484 C1492 1.574 . S
C1484 C1500 1.368 . S
H1485 C1493 0.950 . S
H1486 C1491 0.950 . S
H1487 C1492 0.949 . S
H1488 C1494 0.950 . S
H1489 C1495 0.950 . S
H1490 C1496 0.949 . S
C1491 H1486 0.950 . S
C1491 C1493 1.327 . S
C1491 C1497 1.429 . S
C1492 C1484 1.574 . S
C1492 H1487 0.949 . S
C1492 C1498 1.368 . S
C1493 C1477 1.349 . S
C1493 H1485 0.950 . S
C1493 C1491 1.327 . S
C1494 C1482 1.349 . S
C1494 H1488 0.950 . S
C1494 C1495 1.327 . S
C1495 H1489 0.950 . S
C1495 C1494 1.327 . S
C1495 C1499 1.429 . S
C1496 C1479 1.574 . S
C1496 H1490 0.949 . S
C1496 C1500 1.368 . S
C1497 C1478 1.429 . S
C1497 C1491 1.429 . S
C1497 C1498 1.523 . S
C1498 C1479 1.368 . S
C1498 C1492 1.368 . S
C1498 C1497 1.523 . S
C1499 C1483 1.429 . S
C1499 C1495 1.429 . S
C1499 C1500 1.523 . S
C1500 C1484 1.368 . S
C1500 C1496 1.368 . S
C1500 C1499 1.523 . S
H1501 C1476 0.950 . S
H1502 C1478 0.950 . S
H1503 C1479 0.949 . S
H1504 C1481 0.950 . S
H1505 C1483 0.950 . S
C1506 C1507 1.349 . S
C1506 C1508 1.327 . S
C1506 H1531 0.950 . S
C1507 C1506 1.349 . S
C1507 C1523 1.349 . S
C1508 C1506 1.327 . S
C1508 C1527 1.429 . S
C1508 H1532 0.950 . S
C1509 C1526 1.574 . S
C1509 C1528 1.368 . S
C1509 H1533 0.949 . S
H1510 C1514 0.949 . S
C1511 C1512 1.349 . S
C1511 C1513 1.327 . S
C1511 H1534 0.950 . S
C1512 C1511 1.349 . S
C1512 C1524 1.349 . S
C1513 C1511 1.327 . S
C1513 C1529 1.429 . S
C1513 H1535 0.950 . S
C1514 H1510 0.949 . S
C1514 C1522 1.574 . S
C1514 C1530 1.368 . S
H1515 C1523 0.950 . S
H1516 C1521 0.950 . S
H1517 C1522 0.949 . S
H1518 C1524 0.950 . S
H1519 C1525 0.950 . S
H1520 C1526 0.949 . S
C1521 H1516 0.950 . S
C1521 C1523 1.327 . S
C1521 C1527 1.429 . S
C1522 C1514 1.574 . S
C1522 H1517 0.949 . S
C1522 C1528 1.368 . S
C1523 C1507 1.349 . S
C1523 H1515 0.950 . S
C1523 C1521 1.327 . S
C1524 C1512 1.349 . S
C1524 H1518 0.950 . S
C1524 C1525 1.327 . S
C1525 H1519 0.950 . S
C1525 C1524 1.327 . S
C1525 C1529 1.429 . S
C1526 C1509 1.574 . S
C1526 H1520 0.949 . S
C1526 C1530 1.368 . S
C1527 C1508 1.429 . S
C1527 C1521 1.429 . S
C1527 C1528 1.523 . S
C1528 C1509 1.368 . S
C1528 C1522 1.368 . S
C1528 C1527 1.523 . S
C1529 C1513 1.429 . S
C1529 C1525 1.429 . S
C1529 C1530 1.523 . S
C1530 C1514 1.368 . S
C1530 C1526 1.368 . S
C1530 C1529 1.523 . S
H1531 C1506 0.950 . S
H1532 C1508 0.950 . S
H1533 C1509 0.949 . S
H1534 C1511 0.950 . S
H1535 C1513 0.950 . S
C1536 C1537 1.349 . S
C1536 C1538 1.327 . S
C1536 H1561 0.950 . S
C1537 C1536 1.349 . S
C1537 C1553 1.349 . S
C1538 C1536 1.327 . S
C1538 C1557 1.429 . S
C1538 H1562 0.950 . S
C1539 C1556 1.574 . S
C1539 C1558 1.368 . S
C1539 H1563 0.949 . S
H1540 C1544 0.949 . S
C1541 C1542 1.349 . S
C1541 C1543 1.327 . S
C1541 H1564 0.950 . S
C1542 C1541 1.349 . S
C1542 C1554 1.349 . S
C1543 C1541 1.327 . S
C1543 C1559 1.429 . S
C1543 H1565 0.950 . S
C1544 H1540 0.949 . S
C1544 C1552 1.574 . S
C1544 C1560 1.368 . S
H1545 C1553 0.950 . S
H1546 C1551 0.950 . S
H1547 C1552 0.949 . S
H1548 C1554 0.950 . S
H1549 C1555 0.950 . S
H1550 C1556 0.949 . S
C1551 H1546 0.950 . S
C1551 C1553 1.327 . S
C1551 C1557 1.429 . S
C1552 C1544 1.574 . S
C1552 H1547 0.949 . S
C1552 C1558 1.368 . S
C1553 C1537 1.349 . S
C1553 H1545 0.950 . S
C1553 C1551 1.327 . S
C1554 C1542 1.349 . S
C1554 H1548 0.950 . S
C1554 C1555 1.327 . S
C1555 H1549 0.950 . S
C1555 C1554 1.327 . S
C1555 C1559 1.429 . S
C1556 C1539 1.574 . S
C1556 H1550 0.949 . S
C1556 C1560 1.368 . S
C1557 C1538 1.429 . S
C1557 C1551 1.429 . S
C1557 C1558 1.523 . S
C1558 C1539 1.368 . S
C1558 C1552 1.368 . S
C1558 C1557 1.523 . S
C1559 C1543 1.429 . S
C1559 C1555 1.429 . S
C1559 C1560 1.523 . S
C1560 C1544 1.368 . S
C1560 C1556 1.368 . S
C1560 C1559 1.523 . S
H1561 C1536 0.950 . S
H1562 C1538 0.950 . S
H1563 C1539 0.949 . S
H1564 C1541 0.950 . S
H1565 C1543 0.950 . S
C1566 C1567 1.349 . S
C1566 C1568 1.327 . S
C1566 H1591 0.950 . S
C1567 C1566 1.349 . S
C1567 C1583 1.349 . S
C1568 C1566 1.327 . S
C1568 C1587 1.429 . S
C1568 H1592 0.950 . S
C1569 C1586 1.574 . S
C1569 C1588 1.368 . S
C1569 H1593 0.949 . S
H1570 C1574 0.949 . S
C1571 C1572 1.349 . S
C1571 C1573 1.327 . S
C1571 H1594 0.950 . S
C1572 C1571 1.349 . S
C1572 C1584 1.349 . S
C1573 C1571 1.327 . S
C1573 C1589 1.429 . S
C1573 H1595 0.950 . S
C1574 H1570 0.949 . S
C1574 C1582 1.574 . S
C1574 C1590 1.368 . S
H1575 C1583 0.950 . S
H1576 C1581 0.950 . S
H1577 C1582 0.949 . S
H1578 C1584 0.950 . S
H1579 C1585 0.950 . S
H1580 C1586 0.949 . S
C1581 H1576 0.950 . S
C1581 C1583 1.327 . S
C1581 C1587 1.429 . S
C1582 C1574 1.574 . S
C1582 H1577 0.949 . S
C1582 C1588 1.368 . S
C1583 C1567 1.349 . S
C1583 H1575 0.950 . S
C1583 C1581 1.327 . S
C1584 C1572 1.349 . S
C1584 H1578 0.950 . S
C1584 C1585 1.327 . S
C1585 H1579 0.950 . S
C1585 C1584 1.327 . S
C1585 C1589 1.429 . S
C1586 C1569 1.574 . S
C1586 H1580 0.949 . S
C1586 C1590 1.368 . S
C1587 C1568 1.429 . S
C1587 C1581 1.429 . S
C1587 C1588 1.523 . S
C1588 C1569 1.368 . S
C1588 C1582 1.368 . S
C1588 C1587 1.523 . S
C1589 C1573 1.429 . S
C1589 C1585 1.429 . S
C1589 C1590 1.523 . S
C1590 C1574 1.368 . S
C1590 C1586 1.368 . S
C1590 C1589 1.523 . S
H1591 C1566 0.950 . S
H1592 C1568 0.950 . S
H1593 C1569 0.949 . S
H1594 C1571 0.950 . S
H1595 C1573 0.950 . S
C1596 C1597 1.349 . S
C1596 C1598 1.327 . S
C1596 H1621 0.950 . S
C1597 C1596 1.349 . S
C1597 C1613 1.349 . S
C1598 C1596 1.327 . S
C1598 C1617 1.429 . S
C1598 H1622 0.950 . S
C1599 C1616 1.574 . S
C1599 C1618 1.368 . S
C1599 H1623 0.949 . S
H1600 C1604 0.949 . S
C1601 C1602 1.349 . S
C1601 C1603 1.327 . S
C1601 H1624 0.950 . S
C1602 C1601 1.349 . S
C1602 C1614 1.349 . S
C1603 C1601 1.327 . S
C1603 C1619 1.429 . S
C1603 H1625 0.950 . S
C1604 H1600 0.949 . S
C1604 C1612 1.574 . S
C1604 C1620 1.368 . S
H1605 C1613 0.950 . S
H1606 C1611 0.950 . S
H1607 C1612 0.949 . S
H1608 C1614 0.950 . S
H1609 C1615 0.950 . S
H1610 C1616 0.949 . S
C1611 H1606 0.950 . S
C1611 C1613 1.327 . S
C1611 C1617 1.429 . S
C1612 C1604 1.574 . S
C1612 H1607 0.949 . S
C1612 C1618 1.368 . S
C1613 C1597 1.349 . S
C1613 H1605 0.950 . S
C1613 C1611 1.327 . S
C1614 C1602 1.349 . S
C1614 H1608 0.950 . S
C1614 C1615 1.327 . S
C1615 H1609 0.950 . S
C1615 C1614 1.327 . S
C1615 C1619 1.429 . S
C1616 C1599 1.574 . S
C1616 H1610 0.949 . S
C1616 C1620 1.368 . S
C1617 C1598 1.429 . S
C1617 C1611 1.429 . S
C1617 C1618 1.523 . S
C1618 C1599 1.368 . S
C1618 C1612 1.368 . S
C1618 C1617 1.523 . S
C1619 C1603 1.429 . S
C1619 C1615 1.429 . S
C1619 C1620 1.523 . S
C1620 C1604 1.368 . S
C1620 C1616 1.368 . S
C1620 C1619 1.523 . S
H1621 C1596 0.950 . S
H1622 C1598 0.950 . S
H1623 C1599 0.949 . S
H1624 C1601 0.950 . S
H1625 C1603 0.950 . S
C1626 C1627 1.349 . S
C1626 C1628 1.327 . S
C1626 H1651 0.950 . S
C1627 C1626 1.349 . S
C1627 C1643 1.349 . S
C1628 C1626 1.327 . S
C1628 C1647 1.429 . S
C1628 H1652 0.950 . S
C1629 C1646 1.574 . S
C1629 C1648 1.368 . S
C1629 H1653 0.949 . S
H1630 C1634 0.949 . S
C1631 C1632 1.349 . S
C1631 C1633 1.327 . S
C1631 H1654 0.950 . S
C1632 C1631 1.349 . S
C1632 C1644 1.349 . S
C1633 C1631 1.327 . S
C1633 C1649 1.429 . S
C1633 H1655 0.950 . S
C1634 H1630 0.949 . S
C1634 C1642 1.574 . S
C1634 C1650 1.368 . S
H1635 C1643 0.950 . S
H1636 C1641 0.950 . S
H1637 C1642 0.949 . S
H1638 C1644 0.950 . S
H1639 C1645 0.950 . S
H1640 C1646 0.949 . S
C1641 H1636 0.950 . S
C1641 C1643 1.327 . S
C1641 C1647 1.429 . S
C1642 C1634 1.574 . S
C1642 H1637 0.949 . S
C1642 C1648 1.368 . S
C1643 C1627 1.349 . S
C1643 H1635 0.950 . S
C1643 C1641 1.327 . S
C1644 C1632 1.349 . S
C1644 H1638 0.950 . S
C1644 C1645 1.327 . S
C1645 H1639 0.950 . S
C1645 C1644 1.327 . S
C1645 C1649 1.429 . S
C1646 C1629 1.574 . S
C1646 H1640 0.949 . S
C1646 C1650 1.368 . S
C1647 C1628 1.429 . S
C1647 C1641 1.429 . S
C1647 C1648 1.523 . S
C1648 C1629 1.368 . S
C1648 C1642 1.368 . S
C1648 C1647 1.523 . S
C1649 C1633 1.429 . S
C1649 C1645 1.429 . S
C1649 C1650 1.523 . S
C1650 C1634 1.368 . S
C1650 C1646 1.368 . S
C1650 C1649 1.523 . S
H1651 C1626 0.950 . S
H1652 C1628 0.950 . S
H1653 C1629 0.949 . S
H1654 C1631 0.950 . S
H1655 C1633 0.950 . S
C1656 C1657 1.349 . S
C1656 C1658 1.327 . S
C1656 H1681 0.950 . S
C1657 C1656 1.349 . S
C1657 C1673 1.349 . S
C1658 C1656 1.327 . S
C1658 C1677 1.429 . S
C1658 H1682 0.950 . S
C1659 C1676 1.574 . S
C1659 C1678 1.368 . S
C1659 H1683 0.949 . S
H1660 C1664 0.949 . S
C1661 C1662 1.349 . S
C1661 C1663 1.327 . S
C1661 H1684 0.950 . S
C1662 C1661 1.349 . S
C1662 C1674 1.349 . S
C1663 C1661 1.327 . S
C1663 C1679 1.429 . S
C1663 H1685 0.950 . S
C1664 H1660 0.949 . S
C1664 C1672 1.574 . S
C1664 C1680 1.368 . S
H1665 C1673 0.950 . S
H1666 C1671 0.950 . S
H1667 C1672 0.949 . S
H1668 C1674 0.950 . S
H1669 C1675 0.950 . S
H1670 C1676 0.949 . S
C1671 H1666 0.950 . S
C1671 C1673 1.327 . S
C1671 C1677 1.429 . S
C1672 C1664 1.574 . S
C1672 H1667 0.949 . S
C1672 C1678 1.368 . S
C1673 C1657 1.349 . S
C1673 H1665 0.950 . S
C1673 C1671 1.327 . S
C1674 C1662 1.349 . S
C1674 H1668 0.950 . S
C1674 C1675 1.327 . S
C1675 H1669 0.950 . S
C1675 C1674 1.327 . S
C1675 C1679 1.429 . S
C1676 C1659 1.574 . S
C1676 H1670 0.949 . S
C1676 C1680 1.368 . S
C1677 C1658 1.429 . S
C1677 C1671 1.429 . S
C1677 C1678 1.523 . S
C1678 C1659 1.368 . S
C1678 C1672 1.368 . S
C1678 C1677 1.523 . S
C1679 C1663 1.429 . S
C1679 C1675 1.429 . S
C1679 C1680 1.523 . S
C1680 C1664 1.368 . S
C1680 C1676 1.368 . S
C1680 C1679 1.523 . S
H1681 C1656 0.950 . S
H1682 C1658 0.950 . S
H1683 C1659 0.949 . S
H1684 C1661 0.950 . S
H1685 C1663 0.950 . S
C1686 C1687 1.349 . S
C1686 C1688 1.327 . S
C1686 H1711 0.950 . S
C1687 C1686 1.349 . S
C1687 C1703 1.349 . S
C1688 C1686 1.327 . S
C1688 C1707 1.429 . S
C1688 H1712 0.950 . S
C1689 C1706 1.574 . S
C1689 C1708 1.368 . S
C1689 H1713 0.949 . S
H1690 C1694 0.949 . S
C1691 C1692 1.349 . S
C1691 C1693 1.327 . S
C1691 H1714 0.950 . S
C1692 C1691 1.349 . S
C1692 C1704 1.349 . S
C1693 C1691 1.327 . S
C1693 C1709 1.429 . S
C1693 H1715 0.950 . S
C1694 H1690 0.949 . S
C1694 C1702 1.574 . S
C1694 C1710 1.368 . S
H1695 C1703 0.950 . S
H1696 C1701 0.950 . S
H1697 C1702 0.949 . S
H1698 C1704 0.950 . S
H1699 C1705 0.950 . S
H1700 C1706 0.949 . S
C1701 H1696 0.950 . S
C1701 C1703 1.327 . S
C1701 C1707 1.429 . S
C1702 C1694 1.574 . S
C1702 H1697 0.949 . S
C1702 C1708 1.368 . S
C1703 C1687 1.349 . S
C1703 H1695 0.950 . S
C1703 C1701 1.327 . S
C1704 C1692 1.349 . S
C1704 H1698 0.950 . S
C1704 C1705 1.327 . S
C1705 H1699 0.950 . S
C1705 C1704 1.327 . S
C1705 C1709 1.429 . S
C1706 C1689 1.574 . S
C1706 H1700 0.949 . S
C1706 C1710 1.368 . S
C1707 C1688 1.429 . S
C1707 C1701 1.429 . S
C1707 C1708 1.523 . S
C1708 C1689 1.368 . S
C1708 C1702 1.368 . S
C1708 C1707 1.523 . S
C1709 C1693 1.429 . S
C1709 C1705 1.429 . S
C1709 C1710 1.523 . S
C1710 C1694 1.368 . S
C1710 C1706 1.368 . S
C1710 C1709 1.523 . S
H1711 C1686 0.950 . S
H1712 C1688 0.950 . S
H1713 C1689 0.949 . S
H1714 C1691 0.950 . S
H1715 C1693 0.950 . S
C1716 C1717 1.349 . S
C1716 C1718 1.327 . S
C1716 H1741 0.950 . S
C1717 C1716 1.349 . S
C1717 C1733 1.349 . S
C1718 C1716 1.327 . S
C1718 C1737 1.429 . S
C1718 H1742 0.950 . S
C1719 C1736 1.574 . S
C1719 C1738 1.368 . S
C1719 H1743 0.949 . S
H1720 C1724 0.949 . S
C1721 C1722 1.349 . S
C1721 C1723 1.327 . S
C1721 H1744 0.950 . S
C1722 C1721 1.349 . S
C1722 C1734 1.349 . S
C1723 C1721 1.327 . S
C1723 C1739 1.429 . S
C1723 H1745 0.950 . S
C1724 H1720 0.949 . S
C1724 C1732 1.574 . S
C1724 C1740 1.368 . S
H1725 C1733 0.950 . S
H1726 C1731 0.950 . S
H1727 C1732 0.949 . S
H1728 C1734 0.950 . S
H1729 C1735 0.950 . S
H1730 C1736 0.949 . S
C1731 H1726 0.950 . S
C1731 C1733 1.327 . S
C1731 C1737 1.429 . S
C1732 C1724 1.574 . S
C1732 H1727 0.949 . S
C1732 C1738 1.368 . S
C1733 C1717 1.349 . S
C1733 H1725 0.950 . S
C1733 C1731 1.327 . S
C1734 C1722 1.349 . S
C1734 H1728 0.950 . S
C1734 C1735 1.327 . S
C1735 H1729 0.950 . S
C1735 C1734 1.327 . S
C1735 C1739 1.429 . S
C1736 C1719 1.574 . S
C1736 H1730 0.949 . S
C1736 C1740 1.368 . S
C1737 C1718 1.429 . S
C1737 C1731 1.429 . S
C1737 C1738 1.523 . S
C1738 C1719 1.368 . S
C1738 C1732 1.368 . S
C1738 C1737 1.523 . S
C1739 C1723 1.429 . S
C1739 C1735 1.429 . S
C1739 C1740 1.523 . S
C1740 C1724 1.368 . S
C1740 C1736 1.368 . S
C1740 C1739 1.523 . S
H1741 C1716 0.950 . S
H1742 C1718 0.950 . S
H1743 C1719 0.949 . S
H1744 C1721 0.950 . S
H1745 C1723 0.950 . S
C1746 C1747 1.349 . S
C1746 C1748 1.327 . S
C1746 H1771 0.950 . S
C1747 C1746 1.349 . S
C1747 C1763 1.349 . S
C1748 C1746 1.327 . S
C1748 C1767 1.429 . S
C1748 H1772 0.950 . S
C1749 C1766 1.574 . S
C1749 C1768 1.368 . S
C1749 H1773 0.949 . S
H1750 C1754 0.949 . S
C1751 C1752 1.349 . S
C1751 C1753 1.327 . S
C1751 H1774 0.950 . S
C1752 C1751 1.349 . S
C1752 C1764 1.349 . S
C1753 C1751 1.327 . S
C1753 C1769 1.429 . S
C1753 H1775 0.950 . S
C1754 H1750 0.949 . S
C1754 C1762 1.574 . S
C1754 C1770 1.368 . S
H1755 C1763 0.950 . S
H1756 C1761 0.950 . S
H1757 C1762 0.949 . S
H1758 C1764 0.950 . S
H1759 C1765 0.950 . S
H1760 C1766 0.949 . S
C1761 H1756 0.950 . S
C1761 C1763 1.327 . S
C1761 C1767 1.429 . S
C1762 C1754 1.574 . S
C1762 H1757 0.949 . S
C1762 C1768 1.368 . S
C1763 C1747 1.349 . S
C1763 H1755 0.950 . S
C1763 C1761 1.327 . S
C1764 C1752 1.349 . S
C1764 H1758 0.950 . S
C1764 C1765 1.327 . S
C1765 H1759 0.950 . S
C1765 C1764 1.327 . S
C1765 C1769 1.429 . S
C1766 C1749 1.574 . S
C1766 H1760 0.949 . S
C1766 C1770 1.368 . S
C1767 C1748 1.429 . S
C1767 C1761 1.429 . S
C1767 C1768 1.523 . S
C1768 C1749 1.368 . S
C1768 C1762 1.368 . S
C1768 C1767 1.523 . S
C1769 C1753 1.429 . S
C1769 C1765 1.429 . S
C1769 C1770 1.523 . S
C1770 C1754 1.368 . S
C1770 C1766 1.368 . S
C1770 C1769 1.523 . S
H1771 C1746 0.950 . S
H1772 C1748 0.950 . S
H1773 C1749 0.949 . S
H1774 C1751 0.950 . S
H1775 C1753 0.950 . S
C337 C309 1.615 . S
C342 C0 1.612 . S
C367 C15 1.615 . S
C372 C335 1.619 . S
C397 C281 1.615 . S
C402 C40 1.621 . S
C427 C295 1.615 . S
C432 C54 1.612 . S
C457 C294 1.617 . S
C462 C69 1.620 . S
C487 C82 1.617 . S
C492 C308 1.612 . S
C517 C334 1.616 . S
C522 C96 1.612 . S
C547 C110 1.617 . S
C552 C280 1.621 . S
C577 C124 1.617 . S
C582 C279 1.611 . S
C607 C224 1.617 . S
C612 C126 1.612 . S
C637 C140 1.617 . S
C642 C250 1.612 . S
C667 C252 1.617 . S
C672 C167 1.611 . S
C697 C166 1.617 . S
C702 C182 1.621 . S
C727 C125 1.615 . S
C732 C197 1.619 . S
C757 C211 1.615 . S
C762 C127 1.620 . S
C787 C141 1.615 . S
C792 C180 1.621 . S
C817 C14 1.617 . S
C822 C253 1.611 . S
C847 C196 1.616 . S
C852 C111 1.611 . S
C877 C68 1.616 . S
C882 C210 1.612 . S
C907 C181 1.615 . S
C912 C83 1.620 . S
C937 C97 1.615 . S
C942 C183 1.620 . S
C967 C55 1.615 . S
C972 C225 1.619 . S
C997 C1 1.615 . S
C1002 C251 1.619 . S
C1027 C41 1.615 . S
C1032 C278 1.612 . S
C1057 C85 1.617 . S
C1062 C292 1.619 . S
C1087 C306 1.615 . S
C1092 C99 1.612 . S
C1117 C320 1.615 . S
C1122 C56 1.611 . S
C1147 C322 1.615 . S
C1152 C71 1.621 . S
C1177 C29 1.616 . S
C1182 C323 1.612 . S
C1207 C43 1.617 . S
C1212 C293 1.621 . S
C1237 C13 1.617 . S
C1242 C307 1.621 . S
C1267 C321 1.616 . S
C1272 C26 1.611 . S
C1297 C153 1.617 . S
C1302 C195 1.621 . S
C1327 C154 1.615 . S
C1332 C208 1.620 . S
C1357 C113 1.617 . S
C1362 C222 1.619 . S
C1387 C139 1.617 . S
C1392 C169 1.621 . S
C1417 C138 1.615 . S
C1422 C266 1.611 . S
C1447 C237 1.617 . S
C1452 C152 1.611 . S
C1477 C155 1.616 . S
C1482 C239 1.612 . S
C1507 C112 1.615 . S
C1512 C265 1.612 . S
C1537 C168 1.615 . S
C1542 C98 1.620 . S
C1567 C236 1.615 . S
C1572 C27 1.621 . S
C1597 C28 1.615 . S
C1602 C238 1.620 . S
C1627 C264 1.615 . S
C1632 C42 1.611 . S
C1657 C267 1.616 . S
C1662 C12 1.611 . S
C1687 C70 1.615 . S
C1692 C209 1.612 . S
C1717 C223 1.617 . S
C1722 C84 1.611 . S
C1747 C194 1.615 . S
C1752 C57 1.621 . S
