# Generated by pormake.
# Topology wir, (6)-cn, num edge types: 1
# Building blocks:
#     Node 0, Type 0, BuildingBlock: CUWYAW_clean_sbu_0, # of connection points: 6
#     Node 1, Type 0, BuildingBlock: CUWYAW_clean_sbu_0, # of connection points: 6
#     Node 2, Type 0, BuildingBlock: CUWYAW_clean_sbu_0, # of connection points: 6
#     Node 3, Type 0, BuildingBlock: CUWYAW_clean_sbu_0, # of connection points: 6
#     Node 4, Type 0, BuildingBlock: CUWYAW_clean_sbu_0, # of connection points: 6
#     Node 5, Type 0, BuildingBlock: CUWYAW_clean_sbu_0, # of connection points: 6
#     Node 6, Type 0, BuildingBlock: CUWYAW_clean_sbu_0, # of connection points: 6
#     Node 7, Type 0, BuildingBlock: CUWYAW_clean_sbu_0, # of connection points: 6
#     Node 8, Type 0, BuildingBlock: CUWYAW_clean_sbu_0, # of connection points: 6
#     Node 9, Type 0, BuildingBlock: CUWYAW_clean_sbu_0, # of connection points: 6
#     Node 10, Type 0, BuildingBlock: CUWYAW_clean_sbu_0, # of connection points: 6
#     Node 11, Type 0, BuildingBlock: CUWYAW_clean_sbu_0, # of connection points: 6
#     Node 12, Type 0, BuildingBlock: CUWYAW_clean_sbu_0, # of connection points: 6
#     Node 13, Type 0, BuildingBlock: CUWYAW_clean_sbu_0, # of connection points: 6
#     Node 14, Type 0, BuildingBlock: CUWYAW_clean_sbu_0, # of connection points: 6
#     Node 15, Type 0, BuildingBlock: CUWYAW_clean_sbu_0, # of connection points: 6
#     Node 16, Type 0, BuildingBlock: CUWYAW_clean_sbu_0, # of connection points: 6
#     Node 17, Type 0, BuildingBlock: CUWYAW_clean_sbu_0, # of connection points: 6
#     Node 18, Type 0, BuildingBlock: CUWYAW_clean_sbu_0, # of connection points: 6
#     Node 19, Type 0, BuildingBlock: CUWYAW_clean_sbu_0, # of connection points: 6
#     Node 20, Type 0, BuildingBlock: CUWYAW_clean_sbu_0, # of connection points: 6
#     Node 21, Type 0, BuildingBlock: CUWYAW_clean_sbu_0, # of connection points: 6
#     Node 22, Type 0, BuildingBlock: CUWYAW_clean_sbu_0, # of connection points: 6
#     Node 23, Type 0, BuildingBlock: CUWYAW_clean_sbu_0, # of connection points: 6
#     Node 24, Type 0, BuildingBlock: CUWYAW_clean_sbu_0, # of connection points: 6
#     Node 25, Type 0, BuildingBlock: CUWYAW_clean_sbu_0, # of connection points: 6
#     Node 26, Type 0, BuildingBlock: CUWYAW_clean_sbu_0, # of connection points: 6
#     Node 27, Type 0, BuildingBlock: CUWYAW_clean_sbu_0, # of connection points: 6
#     Node 28, Type 0, BuildingBlock: CUWYAW_clean_sbu_0, # of connection points: 6
#     Node 29, Type 0, BuildingBlock: CUWYAW_clean_sbu_0, # of connection points: 6
#     Node 30, Type 0, BuildingBlock: CUWYAW_clean_sbu_0, # of connection points: 6
#     Node 31, Type 0, BuildingBlock: CUWYAW_clean_sbu_0, # of connection points: 6
#     Edge 32, Type (0, 0), BuildingBlock: OJICUG_clean_linker_0, # of connection points: 2
#     Edge 33, Type (0, 0), BuildingBlock: OJICUG_clean_linker_0, # of connection points: 2
#     Edge 34, Type (0, 0), BuildingBlock: OJICUG_clean_linker_0, # of connection points: 2
#     Edge 35, Type (0, 0), BuildingBlock: OJICUG_clean_linker_0, # of connection points: 2
#     Edge 36, Type (0, 0), BuildingBlock: OJICUG_clean_linker_0, # of connection points: 2
#     Edge 37, Type (0, 0), BuildingBlock: OJICUG_clean_linker_0, # of connection points: 2
#     Edge 38, Type (0, 0), BuildingBlock: OJICUG_clean_linker_0, # of connection points: 2
#     Edge 39, Type (0, 0), BuildingBlock: OJICUG_clean_linker_0, # of connection points: 2
#     Edge 40, Type (0, 0), BuildingBlock: OJICUG_clean_linker_0, # of connection points: 2
#     Edge 41, Type (0, 0), BuildingBlock: OJICUG_clean_linker_0, # of connection points: 2
#     Edge 42, Type (0, 0), BuildingBlock: OJICUG_clean_linker_0, # of connection points: 2
#     Edge 43, Type (0, 0), BuildingBlock: OJICUG_clean_linker_0, # of connection points: 2
#     Edge 44, Type (0, 0), BuildingBlock: OJICUG_clean_linker_0, # of connection points: 2
#     Edge 45, Type (0, 0), BuildingBlock: OJICUG_clean_linker_0, # of connection points: 2
#     Edge 46, Type (0, 0), BuildingBlock: OJICUG_clean_linker_0, # of connection points: 2
#     Edge 47, Type (0, 0), BuildingBlock: OJICUG_clean_linker_0, # of connection points: 2
#     Edge 48, Type (0, 0), BuildingBlock: OJICUG_clean_linker_0, # of connection points: 2
#     Edge 49, Type (0, 0), BuildingBlock: OJICUG_clean_linker_0, # of connection points: 2
#     Edge 50, Type (0, 0), BuildingBlock: OJICUG_clean_linker_0, # of connection points: 2
#     Edge 51, Type (0, 0), BuildingBlock: OJICUG_clean_linker_0, # of connection points: 2
#     Edge 52, Type (0, 0), BuildingBlock: OJICUG_clean_linker_0, # of connection points: 2
#     Edge 53, Type (0, 0), BuildingBlock: OJICUG_clean_linker_0, # of connection points: 2
#     Edge 54, Type (0, 0), BuildingBlock: OJICUG_clean_linker_0, # of connection points: 2
#     Edge 55, Type (0, 0), BuildingBlock: OJICUG_clean_linker_0, # of connection points: 2
#     Edge 56, Type (0, 0), BuildingBlock: OJICUG_clean_linker_0, # of connection points: 2
#     Edge 57, Type (0, 0), BuildingBlock: OJICUG_clean_linker_0, # of connection points: 2
#     Edge 58, Type (0, 0), BuildingBlock: OJICUG_clean_linker_0, # of connection points: 2
#     Edge 59, Type (0, 0), BuildingBlock: OJICUG_clean_linker_0, # of connection points: 2
#     Edge 60, Type (0, 0), BuildingBlock: OJICUG_clean_linker_0, # of connection points: 2
#     Edge 61, Type (0, 0), BuildingBlock: OJICUG_clean_linker_0, # of connection points: 2
#     Edge 62, Type (0, 0), BuildingBlock: OJICUG_clean_linker_0, # of connection points: 2
#     Edge 63, Type (0, 0), BuildingBlock: OJICUG_clean_linker_0, # of connection points: 2
#     Edge 64, Type (0, 0), BuildingBlock: OJICUG_clean_linker_0, # of connection points: 2
#     Edge 65, Type (0, 0), BuildingBlock: OJICUG_clean_linker_0, # of connection points: 2
#     Edge 66, Type (0, 0), BuildingBlock: OJICUG_clean_linker_0, # of connection points: 2
#     Edge 67, Type (0, 0), BuildingBlock: OJICUG_clean_linker_0, # of connection points: 2
#     Edge 68, Type (0, 0), BuildingBlock: OJICUG_clean_linker_0, # of connection points: 2
#     Edge 69, Type (0, 0), BuildingBlock: OJICUG_clean_linker_0, # of connection points: 2
#     Edge 70, Type (0, 0), BuildingBlock: OJICUG_clean_linker_0, # of connection points: 2
#     Edge 71, Type (0, 0), BuildingBlock: OJICUG_clean_linker_0, # of connection points: 2
#     Edge 72, Type (0, 0), BuildingBlock: OJICUG_clean_linker_0, # of connection points: 2
#     Edge 73, Type (0, 0), BuildingBlock: OJICUG_clean_linker_0, # of connection points: 2
#     Edge 74, Type (0, 0), BuildingBlock: OJICUG_clean_linker_0, # of connection points: 2
#     Edge 75, Type (0, 0), BuildingBlock: OJICUG_clean_linker_0, # of connection points: 2
#     Edge 76, Type (0, 0), BuildingBlock: OJICUG_clean_linker_0, # of connection points: 2
#     Edge 77, Type (0, 0), BuildingBlock: OJICUG_clean_linker_0, # of connection points: 2
#     Edge 78, Type (0, 0), BuildingBlock: OJICUG_clean_linker_0, # of connection points: 2
#     Edge 79, Type (0, 0), BuildingBlock: OJICUG_clean_linker_0, # of connection points: 2
#     Edge 80, Type (0, 0), BuildingBlock: OJICUG_clean_linker_0, # of connection points: 2
#     Edge 81, Type (0, 0), BuildingBlock: OJICUG_clean_linker_0, # of connection points: 2
#     Edge 82, Type (0, 0), BuildingBlock: OJICUG_clean_linker_0, # of connection points: 2
#     Edge 83, Type (0, 0), BuildingBlock: OJICUG_clean_linker_0, # of connection points: 2
#     Edge 84, Type (0, 0), BuildingBlock: OJICUG_clean_linker_0, # of connection points: 2
#     Edge 85, Type (0, 0), BuildingBlock: OJICUG_clean_linker_0, # of connection points: 2
#     Edge 86, Type (0, 0), BuildingBlock: OJICUG_clean_linker_0, # of connection points: 2
#     Edge 87, Type (0, 0), BuildingBlock: OJICUG_clean_linker_0, # of connection points: 2
#     Edge 88, Type (0, 0), BuildingBlock: OJICUG_clean_linker_0, # of connection points: 2
#     Edge 89, Type (0, 0), BuildingBlock: OJICUG_clean_linker_0, # of connection points: 2
#     Edge 90, Type (0, 0), BuildingBlock: OJICUG_clean_linker_0, # of connection points: 2
#     Edge 91, Type (0, 0), BuildingBlock: OJICUG_clean_linker_0, # of connection points: 2
#     Edge 92, Type (0, 0), BuildingBlock: OJICUG_clean_linker_0, # of connection points: 2
#     Edge 93, Type (0, 0), BuildingBlock: OJICUG_clean_linker_0, # of connection points: 2
#     Edge 94, Type (0, 0), BuildingBlock: OJICUG_clean_linker_0, # of connection points: 2
#     Edge 95, Type (0, 0), BuildingBlock: OJICUG_clean_linker_0, # of connection points: 2
#     Edge 96, Type (0, 0), BuildingBlock: OJICUG_clean_linker_0, # of connection points: 2
#     Edge 97, Type (0, 0), BuildingBlock: OJICUG_clean_linker_0, # of connection points: 2
#     Edge 98, Type (0, 0), BuildingBlock: OJICUG_clean_linker_0, # of connection points: 2
#     Edge 99, Type (0, 0), BuildingBlock: OJICUG_clean_linker_0, # of connection points: 2
#     Edge 100, Type (0, 0), BuildingBlock: OJICUG_clean_linker_0, # of connection points: 2
#     Edge 101, Type (0, 0), BuildingBlock: OJICUG_clean_linker_0, # of connection points: 2
#     Edge 102, Type (0, 0), BuildingBlock: OJICUG_clean_linker_0, # of connection points: 2
#     Edge 103, Type (0, 0), BuildingBlock: OJICUG_clean_linker_0, # of connection points: 2
#     Edge 104, Type (0, 0), BuildingBlock: OJICUG_clean_linker_0, # of connection points: 2
#     Edge 105, Type (0, 0), BuildingBlock: OJICUG_clean_linker_0, # of connection points: 2
#     Edge 106, Type (0, 0), BuildingBlock: OJICUG_clean_linker_0, # of connection points: 2
#     Edge 107, Type (0, 0), BuildingBlock: OJICUG_clean_linker_0, # of connection points: 2
#     Edge 108, Type (0, 0), BuildingBlock: OJICUG_clean_linker_0, # of connection points: 2
#     Edge 109, Type (0, 0), BuildingBlock: OJICUG_clean_linker_0, # of connection points: 2
#     Edge 110, Type (0, 0), BuildingBlock: OJICUG_clean_linker_0, # of connection points: 2
#     Edge 111, Type (0, 0), BuildingBlock: OJICUG_clean_linker_0, # of connection points: 2
#     Edge 112, Type (0, 0), BuildingBlock: OJICUG_clean_linker_0, # of connection points: 2
#     Edge 113, Type (0, 0), BuildingBlock: OJICUG_clean_linker_0, # of connection points: 2
#     Edge 114, Type (0, 0), BuildingBlock: OJICUG_clean_linker_0, # of connection points: 2
#     Edge 115, Type (0, 0), BuildingBlock: OJICUG_clean_linker_0, # of connection points: 2
#     Edge 116, Type (0, 0), BuildingBlock: OJICUG_clean_linker_0, # of connection points: 2
#     Edge 117, Type (0, 0), BuildingBlock: OJICUG_clean_linker_0, # of connection points: 2
#     Edge 118, Type (0, 0), BuildingBlock: OJICUG_clean_linker_0, # of connection points: 2
#     Edge 119, Type (0, 0), BuildingBlock: OJICUG_clean_linker_0, # of connection points: 2
#     Edge 120, Type (0, 0), BuildingBlock: OJICUG_clean_linker_0, # of connection points: 2
#     Edge 121, Type (0, 0), BuildingBlock: OJICUG_clean_linker_0, # of connection points: 2
#     Edge 122, Type (0, 0), BuildingBlock: OJICUG_clean_linker_0, # of connection points: 2
#     Edge 123, Type (0, 0), BuildingBlock: OJICUG_clean_linker_0, # of connection points: 2
#     Edge 124, Type (0, 0), BuildingBlock: OJICUG_clean_linker_0, # of connection points: 2
#     Edge 125, Type (0, 0), BuildingBlock: OJICUG_clean_linker_0, # of connection points: 2
#     Edge 126, Type (0, 0), BuildingBlock: OJICUG_clean_linker_0, # of connection points: 2
#     Edge 127, Type (0, 0), BuildingBlock: OJICUG_clean_linker_0, # of connection points: 2
# Relax obj value: 0.595
# Max RMSD: 0.195
# Mean RMSD: 0.195
data_MOF--net-wir--node1-CUWYAW_clean_sbu_0--edge1-OJICUG_clean_linker_0
_symmetry_space_group_name_H-M    P1
_symmetry_Int_Tables_number       1
_symmetry_cell_setting            triclinic
loop_
_symmetry_equiv_pos_as_xyz
'x, y, z'
_cell_length_a     29.561738
_cell_length_b     29.68068
_cell_length_c     83.090209
_cell_angle_alpha  90.066737
_cell_angle_beta   90.23135
_cell_angle_gamma 89.960333
loop_
_atom_site_label
_atom_site_type_symbol
_atom_site_fract_x
_atom_site_fract_y
_atom_site_fract_z
_atom_type_partial_charge
C0 C 0.26495 0.1583 0.38764 0.0
Eu1 Eu 0.24678 0.21772 0.40958 0.0
C2 C 0.27084 0.16475 0.37014 0.0
C3 C 0.23348 0.16714 0.35973 0.0
C4 C 0.23951 0.17769 0.34352 0.0
C5 C 0.283 0.18663 0.33735 0.0
C6 C 0.32014 0.18537 0.3479 0.0
C7 C 0.31424 0.17381 0.364 0.0
C8 C 0.15849 0.25807 0.4118 0.0
C9 C 0.28468 0.27462 0.37943 0.0
C10 C 0.31469 0.3301 0.42664 0.0
Eu11 Eu 0.2744 0.25577 0.41764 0.0
C12 C 0.29444 0.37445 0.42886 0.0
C13 C 0.31215 0.40229 0.44089 0.0
C14 C 0.28288 0.42918 0.44982 0.0
C15 C 0.23601 0.42693 0.44694 0.0
C16 C 0.22009 0.40668 0.43279 0.0
C17 C 0.24958 0.38061 0.42363 0.0
C18 C 0.3125 0.18675 0.44469 0.0
C19 C 0.21121 0.21496 0.44228 0.0
O20 O 0.29584 0.17816 0.39636 0.0
O21 O 0.22434 0.16301 0.39369 0.0
O22 O 0.1678 0.21487 0.41125 0.0
O23 O 0.19826 0.27843 0.41152 0.0
O24 O 0.24491 0.2619 0.38492 0.0
O25 O 0.31193 0.26766 0.39183 0.0
O26 O 0.3158 0.31487 0.41199 0.0
O27 O 0.2991 0.30021 0.43656 0.0
O28 O 0.31067 0.19257 0.42872 0.0
O29 O 0.30903 0.1945 0.42855 0.0
O30 O 0.22721 0.25512 0.43922 0.0
O31 O 0.21754 0.18493 0.4311 0.0
H32 H 0.1996 0.16074 0.36408 0.0
H33 H 0.21008 0.17696 0.33573 0.0
H34 H 0.354 0.19237 0.34367 0.0
H35 H 0.34381 0.17281 0.37174 0.0
H36 H 0.34678 0.39821 0.44496 0.0
H37 H 0.29579 0.44563 0.46055 0.0
H38 H 0.18416 0.40507 0.43023 0.0
H39 H 0.23563 0.3598 0.41412 0.0
C40 C 0.22562 0.97478 0.65967 0.0
Eu41 Eu 0.14477 0.98095 0.67161 0.0
C42 C 0.27058 0.99418 0.66306 0.0
C43 C 0.27946 1.0397 0.65994 0.0
C44 C 0.32391 0.05481 0.65879 0.0
C45 C 0.36047 1.02434 0.66034 0.0
C46 C 0.35097 0.98163 0.66699 0.0
C47 C 0.30637 0.9662 0.66785 0.0
C48 C 0.09548 0.89746 0.67249 0.0
C49 C 0.09332 1.02141 0.63853 0.0
C50 C 1.02579 0.05772 0.68303 0.0
Eu51 Eu 0.10003 1.01465 0.67723 0.0
C52 C 0.98235 1.03474 0.68104 0.0
C53 C 0.95 1.03829 0.69321 0.0
C54 C 0.92264 1.00127 0.6967 0.0
C55 C 0.92848 0.96062 0.68824 0.0
C56 C 0.95454 0.96015 0.67427 0.0
C57 C 0.98123 0.99731 0.67059 0.0
C58 C 0.16943 0.05413 0.70443 0.0
C59 C 0.11688 0.95715 0.70577 0.0
O60 O 0.20975 0.94623 0.67012 0.0
O61 O 0.19462 1.00211 0.65407 0.0
O62 O 0.13848 0.90342 0.67503 0.0
O63 O 0.07934 0.93839 0.66974 0.0
O64 O 0.11423 0.98457 0.64395 0.0
O65 O 0.08797 1.04749 0.65116 0.0
O66 O 1.04879 0.06392 0.66986 0.0
O67 O 1.05054 1.04004 0.69439 0.0
O68 O 0.16486 1.049 0.68848 0.0
O69 O 0.16317 1.04771 0.68833 0.0
O70 O 0.08106 0.97344 0.6989 0.0
O71 O 0.15403 0.96051 0.69753 0.0
H72 H 0.25235 0.06291 0.65702 0.0
H73 H 0.32842 0.08904 0.65473 0.0
H74 H 0.37766 0.95809 0.6699 0.0
H75 H 0.30022 0.93142 0.67111 0.0
H76 H 0.95039 0.0667 0.70141 0.0
H77 H 0.90249 1.00208 0.70757 0.0
H78 H 0.95891 0.92933 0.66748 0.0
H79 H 1.00552 0.994 0.66093 0.0
C80 C 0.34074 0.95186 0.88847 0.0
Eu81 Eu 0.35985 0.89284 0.9105 0.0
C82 C 0.33349 0.94497 0.87102 0.0
C83 C 0.36996 0.93933 0.86048 0.0
C84 C 0.36228 0.92722 0.84445 0.0
C85 C 0.31797 0.9198 0.83863 0.0
C86 C 0.28165 0.9248 0.84931 0.0
C87 C 0.28924 0.93797 0.86519 0.0
C88 C 0.44756 0.85113 0.91255 0.0
C89 C 0.32318 0.83656 0.88012 0.0
C90 C 0.29117 0.78036 0.92689 0.0
Eu91 Eu 0.33204 0.85483 0.91841 0.0
C92 C 0.30991 0.73509 0.9285 0.0
C93 C 0.28895 0.70494 0.93898 0.0
C94 C 0.31538 0.67425 0.94754 0.0
C95 C 0.36278 0.67523 0.94598 0.0
C96 C 0.38195 0.69842 0.93302 0.0
C97 C 0.3553 0.72828 0.92417 0.0
C98 C 0.2948 0.92478 0.94547 0.0
C99 C 0.39508 0.89679 0.94326 0.0
O100 O 0.31031 0.93239 0.89739 0.0
O101 O 0.38169 0.94696 0.89432 0.0
O102 O 0.43892 0.89452 0.91226 0.0
O103 O 0.40753 0.83137 0.91222 0.0
O104 O 0.36285 0.84835 0.88599 0.0
O105 O 0.2954 0.84418 0.89224 0.0
O106 O 0.2894 0.79672 0.91242 0.0
O107 O 0.30841 0.80904 0.93699 0.0
O108 O 0.29559 0.91789 0.92953 0.0
O109 O 0.29737 0.91587 0.92937 0.0
O110 O 0.37902 0.85655 0.94022 0.0
O111 O 0.38939 0.92631 0.93189 0.0
H112 H 0.40444 0.94405 0.86459 0.0
H113 H 0.39119 0.92514 0.83653 0.0
H114 H 0.24717 0.91905 0.84539 0.0
H115 H 0.26031 0.9415 0.87306 0.0
H116 H 0.25375 0.7093 0.94224 0.0
H117 H 0.29982 0.6554 0.95721 0.0
H118 H 0.41829 0.69906 0.93136 0.0
H119 H 0.37167 0.75074 0.91576 0.0
C120 C 0.40238 0.08832 0.14795 0.0
Eu121 Eu 0.46386 0.10444 0.16959 0.0
C122 C 0.40739 0.08215 0.13035 0.0
C123 C 0.41304 0.11894 0.11996 0.0
C124 C 0.42214 0.11187 0.10365 0.0
C125 C 0.42633 0.06786 1.09738 0.0
C126 C 0.42189 1.03123 0.10792 0.0
C127 C 0.41183 1.03826 0.1241 0.0
C128 C 0.50754 0.19084 0.1713 0.0
C129 C 0.51792 0.06674 0.13881 0.0
C130 C 0.57796 1.03598 0.18451 0.0
Eu131 Eu 0.50214 0.07536 0.17707 0.0
C132 C 0.62136 0.0589 0.18247 0.0
C133 C 0.65387 0.05588 0.19469 0.0
C134 C 0.68153 0.09291 0.19795 0.0
C135 C 0.67572 0.13311 0.18923 0.0
C136 C 0.64951 0.13286 0.17521 0.0
C137 C 0.6226 0.09559 0.17174 0.0
C138 C 0.43373 1.03767 0.20451 0.0
C139 C 0.46646 0.1386 0.20265 0.0
O140 O 0.42209 0.05696 0.15642 0.0
O141 O 0.40857 0.12854 0.15409 0.0
O142 O 0.46381 0.18314 0.17156 0.0
O143 O 0.52647 0.15048 0.17054 0.0
O144 O 0.50701 0.10641 0.14475 0.0
O145 O 0.51094 1.03904 0.15094 0.0
O146 O 0.5559 1.0271 0.17131 0.0
O147 O 0.5522 0.05543 0.19507 0.0
O148 O 0.43872 1.04046 0.18854 0.0
O149 O 0.44066 1.04204 0.18835 0.0
O150 O 0.50545 0.12074 0.19903 0.0
O151 O 0.43475 0.13416 0.19185 0.0
H152 H 0.41041 0.15315 0.1244 0.0
H153 H 0.42424 0.141 1.09586 0.0
H154 H 0.42541 0.99696 0.10363 0.0
H155 H 0.40833 1.00908 0.13182 0.0
H156 H 0.65343 1.02796 0.20308 0.0
H157 H 0.70181 0.09265 0.20884 0.0
H158 H 0.64519 0.16331 0.16821 0.0
H159 H 0.59833 0.09825 0.16199 0.0
C160 C 0.22197 0.96506 0.29633 0.0
Eu161 Eu 0.23229 0.88453 0.28462 0.0
C162 C 0.23071 1.01082 0.2906 0.0
C163 C 0.20067 1.04497 0.29494 0.0
C164 C 0.21185 0.08977 0.29218 0.0
C165 C 0.25395 0.10113 0.28534 0.0
C166 C 0.28039 0.0664 0.27864 0.0
C167 C 0.26908 1.02135 0.28143 0.0
C168 C 0.14866 0.83435 0.28323 0.0
C169 C 0.27479 0.82914 0.31657 0.0
C170 C 0.30423 0.76278 0.26815 0.0
Eu171 Eu 0.26443 0.83642 0.27744 0.0
C172 C 0.28093 0.7194 0.267 0.0
C173 C 0.28889 0.69268 0.25342 0.0
C174 C 0.25305 0.66913 0.24639 0.0
C175 C 0.20934 0.67281 0.25286 0.0
C176 C 0.20349 0.69255 0.26798 0.0
C177 C 0.23954 0.71525 0.2752 0.0
C178 C 0.30443 0.90885 0.25175 0.0
C179 C 0.20484 0.864 0.25017 0.0
O180 O 0.19022 0.94352 0.28872 0.0
O181 O 0.2571 0.93977 0.29954 0.0
O182 O 0.15487 0.8768 0.28024 0.0
O183 O 0.18954 0.81873 0.2865 0.0
O184 O 0.24188 0.85744 0.31228 0.0
O185 O 0.2959 0.81706 0.30329 0.0
O186 O 0.30944 0.7794 0.28257 0.0
O187 O 0.28768 0.7924 0.25822 0.0
O188 O 0.30066 0.90184 0.26765 0.0
O189 O 0.29932 0.90022 0.26776 0.0
O190 O 0.21793 0.82571 0.25613 0.0
O191 O 0.21219 0.89917 0.25911 0.0
H192 H 0.17008 1.0372 0.30153 0.0
H193 H 0.1899 0.11512 0.29734 0.0
H194 H 0.31227 0.07396 0.27285 0.0
H195 H 0.29181 0.99509 0.27738 0.0
H196 H 0.32042 0.69557 0.24689 0.0
H197 H 0.258 0.65392 0.23466 0.0
H198 H 0.17001 0.69562 0.2731 0.0
H199 H 0.23274 0.7355 0.28577 0.0
C200 C 0.40715 1.01151 0.54967 0.0
Eu201 Eu 0.46833 0.99253 0.52839 0.0
C202 C 0.41115 1.0166 0.56736 0.0
C203 C 0.40432 0.97996 0.57766 0.0
C204 C 0.41268 0.98428 0.59416 0.0
C205 C 0.42883 1.02517 0.60073 0.0
C206 C 0.43548 0.06179 0.59033 0.0
C207 C 0.42601 0.0578 0.57396 0.0
C208 C 0.51034 0.90509 0.52653 0.0
C209 C 0.52509 1.02887 0.55909 0.0
C210 C 0.58443 0.05752 0.51238 0.0
Eu211 Eu 0.50818 1.0202 0.52042 0.0
C212 C 0.62799 1.03518 0.51505 0.0
C213 C 0.66053 1.03698 0.5029 0.0
C214 C 0.68738 0.99921 0.49992 0.0
C215 C 0.68042 0.95941 0.50875 0.0
C216 C 0.65449 0.96091 0.52276 0.0
C217 C 0.62887 0.9992 0.52609 0.0
C218 C 0.43989 0.05906 0.49315 0.0
C219 C 0.46675 0.9573 0.49546 0.0
O220 O 0.42913 1.04193 0.5415 0.0
O221 O 0.41146 0.97108 0.54347 0.0
O222 O 0.46681 0.91374 0.52671 0.0
O223 O 0.53025 0.94495 0.52712 0.0
O224 O 0.50924 0.99009 0.55378 0.0
O225 O 0.52192 0.05581 0.54649 0.0
O226 O 0.56239 0.06873 0.52529 0.0
O227 O 0.55868 1.03614 0.50222 0.0
O228 O 0.44513 0.05658 0.50912 0.0
O229 O 0.447 0.05498 0.50932 0.0
O230 O 0.50675 0.97406 0.49854 0.0
O231 O 0.43646 0.96303 0.50659 0.0
H232 H 0.39268 0.94789 0.573 0.0
H233 H 0.40538 0.95561 0.60174 0.0
H234 H 0.44838 0.09363 0.59473 0.0
H235 H 0.43176 0.08691 0.56639 0.0
H236 H 0.66043 0.06436 0.49429 0.0
H237 H 0.70746 0.99854 0.48903 0.0
H238 H 0.64889 0.93063 0.52974 0.0
H239 H 0.60433 0.99737 0.53571 0.0
C240 C 0.38063 0.1273 0.79628 0.0
Eu241 Eu 0.37057 0.20793 0.78473 0.0
C242 C 0.37128 0.08193 0.79023 0.0
C243 C 0.40071 1.04711 0.79444 0.0
C244 C 0.38849 1.00261 0.79153 0.0
C245 C 0.34579 0.99234 0.78478 0.0
C246 C 0.32039 1.02769 0.77795 0.0
C247 C 0.33274 0.07242 0.78088 0.0
C248 C 0.4541 0.25815 0.78351 0.0
C249 C 0.32751 0.26306 0.81655 0.0
C250 C 0.30051 0.33044 0.76754 0.0
Eu251 Eu 0.3387 0.25646 0.77739 0.0
C252 C 0.32493 0.37306 0.76584 0.0
C253 C 0.31631 0.39958 0.75226 0.0
C254 C 0.35145 0.42416 0.74534 0.0
C255 C 0.39525 0.42188 0.75192 0.0
C256 C 0.40207 0.40108 0.76681 0.0
C257 C 0.36673 0.37725 0.7739 0.0
C258 C 0.29944 0.18309 0.75165 0.0
C259 C 0.39843 0.22781 0.75038 0.0
O260 O 0.41253 0.14882 0.78885 0.0
O261 O 0.34575 0.15278 0.79955 0.0
O262 O 0.44792 0.21572 0.78045 0.0
O263 O 0.41335 0.2737 0.78682 0.0
O264 O 0.36056 0.23487 0.81238 0.0
O265 O 0.30665 0.27532 0.80317 0.0
O266 O 0.29559 0.31514 0.78213 0.0
O267 O 0.31563 0.29956 0.75785 0.0
O268 O 0.30219 0.1911 0.76754 0.0
O269 O 0.30359 0.19274 0.76764 0.0
O270 O 0.38566 0.26625 0.7563 0.0
O271 O 0.39089 0.19279 0.75932 0.0
H272 H 0.43154 0.05409 0.80109 0.0
H273 H 0.40997 0.97675 0.79665 0.0
H274 H 0.28822 1.02098 0.77213 0.0
H275 H 0.31055 0.09921 0.77687 0.0
H276 H 0.28458 0.39642 0.74578 0.0
H277 H 0.34584 0.43995 0.73375 0.0
H278 H 0.43571 0.39883 0.77196 0.0
H279 H 0.37415 0.35692 0.7844 0.0
C280 C 0.22268 0.13652 1.03813 0.0
Eu281 Eu 0.14172 0.12512 1.02634 0.0
C282 C 0.26972 0.12371 1.03496 0.0
C283 C 0.30389 0.15318 1.03986 0.0
C284 C 0.34818 0.13778 1.0414 0.0
C285 C 0.3587 0.09221 1.03834 0.0
C286 C 0.32584 0.06534 1.03059 0.0
C287 C 0.28126 0.0808 1.02914 0.0
C288 C 0.09074 0.20792 1.02518 0.0
C289 C 0.08938 0.08414 1.05933 0.0
C290 C 1.02252 1.04516 1.01489 0.0
Eu291 Eu 0.0955 0.09112 1.02044 0.0
C292 C 0.97754 0.06357 1.01819 0.0
C293 C 0.94338 0.05722 1.00672 0.0
C294 C 0.91407 0.09278 1.00318 0.0
C295 C 0.92047 0.13482 1.0107 0.0
C296 C 0.94751 0.13746 1.02449 0.0
C297 C 0.97558 0.10139 1.02843 0.0
C298 C 0.16507 1.05143 0.99354 0.0
C299 C 0.11306 0.14778 0.99185 0.0
O300 O 0.20391 0.16443 1.02808 0.0
O301 O 0.19528 0.10459 1.04279 0.0
O302 O 0.13326 0.202 1.02196 0.0
O303 O 0.07565 0.16699 1.02864 0.0
O304 O 0.11479 0.11856 1.05435 0.0
O305 O 0.07937 0.0605 1.04645 0.0
O306 O 1.04801 1.03822 1.02749 0.0
O307 O 1.04388 0.06726 1.00368 0.0
O308 O 0.16091 0.05715 1.00948 0.0
O309 O 0.15933 0.05833 1.00964 0.0
O310 O 0.07701 0.13156 0.9985 0.0
O311 O 0.1501 0.14458 1.00031 0.0
H312 H 0.29567 0.18686 1.04399 0.0
H313 H 0.37228 0.16019 1.04709 0.0
H314 H 0.33318 1.03067 1.02746 0.0
H315 H 0.25536 0.058 1.02477 0.0
H316 H 0.94411 1.02827 0.99877 0.0
H317 H 0.89289 0.09015 0.99254 0.0
H318 H 0.95259 0.16947 1.0305 0.0
H319 H 1.00125 0.10678 1.03757 0.0
C320 C 0.79578 0.76513 0.76203 0.0
Eu321 Eu 0.83619 0.83997 0.76918 0.0
C322 C 0.81861 0.72167 0.76426 0.0
C323 C 0.81707 0.69002 0.75178 0.0
C324 C 0.85467 0.66271 0.74888 0.0
C325 C 0.89406 0.66776 0.75827 0.0
C326 C 0.89247 0.69354 0.77233 0.0
C327 C 0.85453 0.71999 0.77545 0.0
C328 C 0.7976 0.91246 0.74288 0.0
C329 C 0.89607 0.86225 0.74155 0.0
C330 C 0.87118 0.96832 0.78785 0.0
Eu331 Eu 0.86833 0.88757 0.77571 0.0
C332 C 0.84352 1.00956 0.78639 0.0
C333 C 0.79983 1.01111 0.79288 0.0
C334 C 0.77894 1.05238 0.79572 0.0
C335 C 0.80175 0.09312 0.79238 0.0
C336 C 0.84066 0.09059 0.78262 0.0
C337 C 0.86218 1.04918 0.7801 0.0
C338 C 0.95314 0.839 0.77508 0.0
C339 C 0.8266 0.83402 0.8081 0.0
O340 O 0.78696 0.78754 0.77516 0.0
O341 O 0.81525 0.79036 0.75126 0.0
O342 O 0.79989 0.90463 0.75876 0.0
O343 O 0.80127 0.90301 0.75887 0.0
O344 O 0.87962 0.82557 0.7476 0.0
O345 O 0.89169 0.89839 0.75028 0.0
O346 O 0.89527 0.95635 0.77547 0.0
O347 O 0.85218 0.93407 0.79495 0.0
O348 O 0.94655 0.88185 0.77287 0.0
O349 O 0.91227 0.82244 0.77756 0.0
O350 O 0.86048 0.86069 0.80355 0.0
O351 O 0.80453 0.82256 0.79497 0.0
H352 H 0.78994 0.69091 0.74297 0.0
H353 H 0.85546 0.64298 0.7379 0.0
H354 H 0.92241 0.69764 0.77972 0.0
H355 H 0.85652 0.74403 0.78525 0.0
H356 H 0.78329 0.98085 0.79714 0.0
H357 H 0.74771 1.05145 0.80241 0.0
H358 H 0.85749 0.12072 0.77847 0.0
H359 H 0.89494 1.04863 0.7743 0.0
C360 C 0.07882 1.04179 0.51966 0.0
Eu361 Eu 1.00426 0.08186 0.52868 0.0
C362 C 0.12333 0.06179 0.51727 0.0
C363 C 0.1511 1.04361 0.50535 0.0
C364 C 0.17902 0.07211 0.49655 0.0
C365 C 0.17811 0.11879 0.49948 0.0
C366 C 0.15734 0.13516 0.51341 0.0
C367 C 0.1301 0.10643 0.52242 0.0
C368 C 0.93406 1.04466 0.50155 0.0
C369 C 0.96308 0.14506 0.50388 0.0
C370 C 0.90597 0.09174 0.55835 0.0
Eu371 Eu 0.96617 0.10969 0.53665 0.0
C372 C 0.91236 0.08399 0.57578 0.0
C373 C 0.91685 0.12002 0.58658 0.0
C374 C 0.92826 0.11197 0.60265 0.0
C375 C 0.93609 0.06774 0.60823 0.0
C376 C 0.93233 1.03188 0.59729 0.0
C377 C 0.91981 1.03981 0.58137 0.0
C378 C 1.00793 0.19727 0.53474 0.0
C379 C 1.02254 0.07045 0.56699 0.0
O380 O 0.06397 1.04089 0.53434 0.0
O381 O 1.04852 0.0572 0.50976 0.0
O382 O 0.94064 1.04594 0.5175 0.0
O383 O 0.94262 1.04762 0.51768 0.0
O384 O 1.00332 0.12881 0.50701 0.0
O385 O 0.93317 0.1393 0.51511 0.0
O386 O 0.92501 0.06116 0.54937 0.0
O387 O 0.912 0.13251 0.55272 0.0
O388 O 0.96442 0.18849 0.53495 0.0
O389 O 1.02777 0.15731 0.53506 0.0
O390 O 1.01021 0.11032 0.56151 0.0
O391 O 1.01546 1.0437 0.55449 0.0
H392 H 0.14642 1.00919 0.5013 0.0
H393 H 0.19554 0.05892 0.48591 0.0
H394 H 0.15656 0.17098 0.51593 0.0
H395 H 0.10923 0.12078 0.5318 0.0
H396 H 0.9117 0.15442 0.58265 0.0
H397 H 0.92944 0.14046 0.61078 0.0
H398 H 0.93841 0.99749 0.60106 0.0
H399 H 0.91709 1.0112 0.57332 0.0
C400 C 0.80949 0.33957 0.26167 0.0
Eu401 Eu 0.77081 0.26395 0.26887 0.0
C402 C 0.78729 0.38288 0.2648 0.0
C403 C 0.78778 0.41572 0.25274 0.0
C404 C 0.74935 0.44219 0.25018 0.0
C405 C 0.71023 0.43475 0.25939 0.0
C406 C 0.71324 0.40864 0.27334 0.0
C407 C 0.75206 0.38318 0.27618 0.0
C408 C 0.81056 0.19173 0.24296 0.0
C409 C 0.70865 0.2369 0.24165 0.0
C410 C 0.74052 0.13327 0.28872 0.0
Eu411 Eu 0.73983 0.21313 0.27587 0.0
C412 C 0.77658 0.11818 0.29954 0.0
C413 C 0.77016 0.08135 0.30972 0.0
C414 C 0.79908 0.07516 0.32287 0.0
C415 C 0.83382 0.10636 0.32607 0.0
C416 C 0.84245 0.14098 0.31513 0.0
C417 C 0.81438 0.14638 0.30176 0.0
C418 C 0.65438 0.26069 0.27411 0.0
C419 C 0.78277 0.26812 0.30817 0.0
O420 O 0.82076 0.31625 0.27437 0.0
O421 O 0.78782 0.31515 0.25112 0.0
O422 O 0.80892 0.20016 0.25879 0.0
O423 O 0.80746 0.20177 0.25894 0.0
O424 O 0.72799 0.27361 0.2467 0.0
O425 O 0.71025 0.20212 0.25122 0.0
O426 O 0.75289 0.14062 0.27398 0.0
O427 O 0.71668 0.16648 0.29438 0.0
O428 O 0.66184 0.21799 0.27147 0.0
O429 O 0.69472 0.27783 0.27723 0.0
O430 O 0.7545 0.23543 0.30382 0.0
O431 O 0.79911 0.28589 0.29491 0.0
H432 H 0.8145 0.41608 0.24385 0.0
H433 H 0.74759 0.46241 0.23933 0.0
H434 H 0.68358 0.40282 0.28065 0.0
H435 H 0.75098 0.35838 0.28571 0.0
H436 H 0.74105 0.05956 0.30824 0.0
H437 H 0.79156 1.04869 0.33142 0.0
H438 H 0.8685 0.16574 0.31759 0.0
H439 H 0.81978 0.17506 0.29395 0.0
C440 C 0.52702 0.0542 1.02203 0.0
Eu441 Eu 0.6012 1.01041 1.02931 0.0
C442 C 0.48089 1.03715 1.02078 0.0
C443 C 0.45058 0.05925 1.01055 0.0
C444 C 0.41903 1.03398 1.00192 0.0
C445 C 0.41977 0.98666 1.00307 0.0
C446 C 0.44252 0.96648 1.016 0.0
C447 C 0.4731 0.99199 1.02498 0.0
C448 C 0.67019 1.04743 1.00197 0.0
C449 C 0.63774 0.94768 1.00362 0.0
C450 C 0.69997 0.99733 1.05845 0.0
Eu451 Eu 0.63865 0.9813 1.03671 0.0
C452 C 0.69374 1.00658 1.07581 0.0
C453 C 0.68872 0.97156 1.08696 0.0
C454 C 0.6773 0.98113 0.10291 0.0
C455 C 0.66985 1.02591 0.10803 0.0
C456 C 0.67412 0.06071 1.09671 0.0
C457 C 0.68684 1.05129 1.08096 0.0
C458 C 0.59566 0.89472 1.03457 0.0
C459 C 0.58483 1.01951 1.06739 0.0
O460 O 0.54486 0.05419 1.03631 0.0
O461 O 0.55423 1.03694 1.01145 0.0
O462 O 0.66465 1.04544 1.01793 0.0
O463 O 0.66264 1.04378 1.01811 0.0
O464 O 0.59848 0.96544 1.00712 0.0
O465 O 0.66871 0.95163 1.0147 0.0
O466 O 0.68275 1.0282 1.04915 0.0
O467 O 0.69176 0.95666 1.05307 0.0
O468 O 0.63935 0.90274 1.03447 0.0
O469 O 0.5764 0.93495 1.03522 0.0
O470 O 0.59395 0.97966 1.06123 0.0
O471 O 0.59417 1.04715 1.05545 0.0
H472 H 0.4556 0.09434 1.00744 0.0
H473 H 0.40039 1.05029 0.99229 0.0
H474 H 0.44282 0.93018 1.01737 0.0
H475 H 0.49564 0.97478 1.03324 0.0
H476 H 0.69346 0.93679 1.08338 0.0
H477 H 0.67578 0.9533 0.11129 0.0
H478 H 0.66807 0.09547 1.10001 0.0
H479 H 0.68994 0.07921 1.07265 0.0
C480 C 0.78746 0.31679 0.93126 0.0
Eu481 Eu 0.83461 0.24406 0.92625 0.0
C482 C 0.80455 0.36244 0.92908 0.0
C483 C 0.79083 0.39606 0.9398 0.0
C484 C 0.82172 0.42914 0.94443 0.0
C485 C 0.86663 0.42659 0.93897 0.0
C486 C 0.87673 0.39951 0.92569 0.0
C487 C 0.84541 0.36742 0.92065 0.0
C488 C 0.798 0.176 0.95416 0.0
C489 C 0.89529 0.2243 0.95425 0.0
C490 C 0.86288 0.133 0.90156 0.0
Eu491 Eu 0.86771 0.20321 0.9202 0.0
C492 C 0.84781 0.13445 0.88457 0.0
C493 C 0.87892 0.12938 0.87205 0.0
C494 C 0.86586 0.13808 0.85616 0.0
C495 C 0.82154 0.1527 0.85247 0.0
C496 C 0.7903 0.15695 0.86502 0.0
C497 C 0.80305 0.14742 0.8808 0.0
C498 C 0.95206 0.24977 0.92222 0.0
C499 C 0.82678 0.2541 0.88792 0.0
O500 O 0.78386 0.29288 0.9182 0.0
O501 O 0.80827 0.29489 0.94267 0.0
O502 O 0.80157 0.18027 0.9382 0.0
O503 O 0.80298 0.1821 0.93798 0.0
O504 O 0.87512 0.2598 0.94853 0.0
O505 O 0.8952 0.18877 0.94494 0.0
O506 O 0.83182 0.14344 0.91189 0.0
O507 O 0.90126 0.15234 0.90507 0.0
O508 O 0.94538 0.20664 0.92474 0.0
O509 O 0.91121 0.26699 0.91953 0.0
O510 O 0.86586 0.23993 0.89381 0.0
O511 O 0.79905 0.25199 0.90019 0.0
H512 H 0.75926 0.39297 0.94628 0.0
H513 H 0.8133 0.45052 0.95457 0.0
H514 H 0.91104 0.39752 0.9212 0.0
H515 H 0.85622 0.34207 0.91209 0.0
H516 H 0.91352 0.11954 0.87456 0.0
H517 H 0.89056 0.13272 0.84677 0.0
H518 H 0.75606 0.16829 0.86275 0.0
H519 H 0.77797 0.15211 0.89012 0.0
C520 C 0.52304 1.04291 0.67744 0.0
Eu521 Eu 0.59768 0.08371 0.66975 0.0
C522 C 0.47964 0.06622 0.67901 0.0
C523 C 0.45194 0.05538 0.69206 0.0
C524 C 0.42699 0.08928 0.69958 0.0
C525 C 0.42999 0.13394 0.69407 0.0
C526 C 0.45114 0.14292 0.67942 0.0
C527 C 0.47562 0.10895 0.6718 0.0
C528 C 0.66878 1.04322 0.69615 0.0
C529 C 0.61937 0.141 0.69806 0.0
C530 C 0.72725 0.12778 0.65306 0.0
Eu531 Eu 0.64565 0.11677 0.66376 0.0
C532 C 0.77277 0.11776 0.65899 0.0
C533 C 0.80742 0.14808 0.65555 0.0
C534 C 0.85223 0.13553 0.65794 0.0
C535 C 0.8629 0.09168 0.66333 0.0
C536 C 0.82782 0.06511 0.66971 0.0
C537 C 0.78276 0.07773 0.66727 0.0
C538 C 0.59618 0.19999 0.66481 0.0
C539 C 0.59339 0.0756 0.63089 0.0
O540 O 0.54011 1.04099 0.66301 0.0
O541 O 0.55265 0.05658 0.68798 0.0
O542 O 0.66272 1.04764 0.68022 0.0
O543 O 0.6611 1.04896 0.68011 0.0
O544 O 0.58227 0.1279 0.69113 0.0
O545 O 0.65612 0.13492 0.68981 0.0
O546 O 0.70552 0.15845 0.66106 0.0
O547 O 0.70176 0.0936 0.64896 0.0
O548 O 0.63855 0.19359 0.66822 0.0
O549 O 0.58016 0.15947 0.66142 0.0
O550 O 0.61838 0.11029 0.63589 0.0
O551 O 0.58334 1.05175 0.64371 0.0
H552 H 0.45472 1.02276 0.69783 0.0
H553 H 0.41073 0.08193 0.71094 0.0
H554 H 0.45375 0.17717 0.67505 0.0
H555 H 0.4966 0.11799 0.66164 0.0
H556 H 0.80005 0.18 0.64978 0.0
H557 H 0.87788 0.15801 0.65332 0.0
H558 H 0.83489 1.03205 0.67464 0.0
H559 H 0.75608 0.05477 0.67074 0.0
C560 C 0.80898 0.77367 0.43233 0.0
Eu561 Eu 0.76447 0.84697 0.42664 0.0
C562 C 0.78833 0.72975 0.42937 0.0
C563 C 0.79509 0.69509 0.4405 0.0
C564 C 0.75984 0.66513 0.44362 0.0
C565 C 0.7176 0.67142 0.43608 0.0
C566 C 0.71431 0.69985 0.42276 0.0
C567 C 0.74988 0.72884 0.4193 0.0
C568 C 0.80388 0.91778 0.45324 0.0
C569 C 0.70421 0.86296 0.45477 0.0
C570 C 0.72546 0.97782 0.41048 0.0
Eu571 Eu 0.73068 0.89506 0.42077 0.0
C572 C 0.76226 1.00579 0.40419 0.0
C573 C 0.79706 0.98542 0.39542 0.0
C574 C 0.82881 1.0116 0.38749 0.0
C575 C 0.82707 0.05907 0.38834 0.0
C576 C 0.79625 0.07875 0.39927 0.0
C577 C 0.76346 1.05232 0.40688 0.0
C578 C 0.64615 0.84637 0.42218 0.0
C579 C 0.77261 0.84253 0.38755 0.0
O580 O 0.81609 0.79807 0.41954 0.0
O581 O 0.78837 0.79628 0.4436 0.0
O582 O 0.80044 0.91141 0.43731 0.0
O583 O 0.79909 0.90978 0.43713 0.0
O584 O 0.72555 0.82879 0.44877 0.0
O585 O 0.70297 0.8993 0.44597 0.0
O586 O 0.72849 0.96764 0.42562 0.0
O587 O 0.71483 0.94297 0.40171 0.0
O588 O 0.65284 0.88918 0.42459 0.0
O589 O 0.687 0.82974 0.41944 0.0
O590 O 0.74154 0.87223 0.3924 0.0
O591 O 0.79312 0.82785 0.40056 0.0
H592 H 0.82449 0.69518 0.44832 0.0
H593 H 0.76289 0.64295 0.45392 0.0
H594 H 0.68209 0.70485 0.41676 0.0
H595 H 0.74413 0.75503 0.41046 0.0
H596 H 0.7982 0.94919 0.39385 0.0
H597 H 0.85177 0.99397 0.37961 0.0
H598 H 0.79525 0.11479 0.40117 0.0
H599 H 0.73812 0.06838 0.41432 0.0
C600 C 0.08773 0.06214 0.17962 0.0
Eu601 Eu 1.0133 1.02425 0.16988 0.0
C602 C 0.13013 1.03721 0.18169 0.0
C603 C 0.15492 1.04405 0.19587 0.0
C604 C 0.17731 1.0078 0.20303 0.0
C605 C 0.17488 0.96475 0.19603 0.0
C606 C 0.1566 0.95976 0.18061 0.0
C607 C 0.13469 0.99612 0.17334 0.0
C608 C 0.94105 0.06403 0.19585 0.0
C609 C 0.98789 0.96475 0.19704 0.0
C610 C 0.8827 0.98252 0.15175 0.0
Eu611 Eu 0.96429 0.99259 0.16288 0.0
C612 C 0.83699 0.99034 0.15789 0.0
C613 C 0.80381 0.95809 0.1547 0.0
C614 C 0.75853 0.96811 0.15739 0.0
C615 C 0.74574 1.01135 0.16282 0.0
C616 C 0.77975 1.04006 0.16888 0.0
C617 C 0.82531 1.02994 0.16616 0.0
C618 C 1.01333 0.9087 0.16398 0.0
C619 C 1.01939 1.03545 0.13088 0.0
O620 O 0.07258 0.06637 0.16494 0.0
O621 O 0.0564 1.04826 0.18936 0.0
O622 O 0.94805 0.0607 0.17994 0.0
O623 O 0.94963 0.05938 0.17983 0.0
O624 O 1.02585 0.97664 0.19056 0.0
O625 O 0.95177 0.97323 0.18863 0.0
O626 O 0.90513 0.95058 0.15885 0.0
O627 O 0.90759 1.01782 0.14863 0.0
O628 O 0.97083 0.91542 0.16699 0.0
O629 O 1.02969 0.94916 0.16085 0.0
O630 O 0.99114 1.00257 0.13516 0.0
O631 O 1.03182 0.05636 0.14419 0.0
H632 H 0.15153 0.07522 0.20256 0.0
H633 H 0.19133 1.01205 0.21501 0.0
H634 H 0.15448 0.92676 0.17509 0.0
H635 H 0.11572 0.99 0.16237 0.0
H636 H 0.81253 0.9265 0.14893 0.0
H637 H 0.73384 0.94412 0.15299 0.0
H638 H 0.77115 0.07278 0.17379 0.0
H639 H 0.85089 0.05441 0.16946 0.0
C640 C 0.71815 0.6346 0.90131 0.0
Eu641 Eu 0.73195 0.71563 0.91221 0.0
C642 C 0.72702 0.58873 0.90693 0.0
C643 C 0.69706 0.55464 0.90242 0.0
C644 C 0.7087 0.50975 0.90484 0.0
C645 C 0.75113 0.4983 0.91153 0.0
C646 C 0.77754 0.53283 0.91842 0.0
C647 C 0.7658 0.57795 0.91596 0.0
C648 C 0.64924 0.76715 0.91358 0.0
C649 C 0.77552 0.76691 0.87958 0.0
C650 C 0.8121 0.83414 0.92589 0.0
Eu651 Eu 0.76622 0.76223 0.91845 0.0
C652 C 0.79332 0.87943 0.92744 0.0
C653 C 0.81008 0.90673 0.93981 0.0
C654 C 0.77995 0.93243 0.94885 0.0
C655 C 0.73328 0.92982 0.94561 0.0
C656 C 0.71844 0.91082 0.93111 0.0
C657 C 0.74878 0.88595 0.92186 0.0
C658 C 0.8058 0.69123 0.94486 0.0
C659 C 0.70856 0.74273 0.94658 0.0
O660 O 0.68838 0.65705 0.9095 0.0
O661 O 0.75315 0.659 0.89731 0.0
O662 O 0.65496 0.72474 0.91676 0.0
O663 O 0.69034 0.782 0.91013 0.0
O664 O 0.74075 0.74154 0.88427 0.0
O665 O 0.79842 0.77754 0.89263 0.0
O666 O 0.812 0.81679 0.91149 0.0
O667 O 0.79578 0.8064 0.93651 0.0
O668 O 0.80055 0.69646 0.92892 0.0
O669 O 0.79932 0.69807 0.92879 0.0
O670 O 0.72283 0.77941 0.93983 0.0
O671 O 0.71372 0.70601 0.93824 0.0
H672 H 0.66622 0.56258 0.89591 0.0
H673 H 0.68678 0.48454 0.89953 0.0
H674 H 0.80968 0.52518 0.92411 0.0
H675 H 0.78853 0.60413 0.9201 0.0
H676 H 0.8444 0.90241 0.94418 0.0
H677 H 0.79199 0.94779 0.9599 0.0
H678 H 0.68265 0.90889 0.92832 0.0
H679 H 0.7354 0.86545 0.91215 0.0
C680 C 0.72676 0.46027 0.15991 0.0
Eu681 Eu 0.64568 0.47365 0.17111 0.0
C682 C 0.7738 0.4731 0.1631 0.0
C683 C 0.80791 0.4437 0.15816 0.0
C684 C 0.85197 0.45937 0.15639 0.0
C685 C 0.86222 0.50511 0.15925 0.0
C686 C 0.82968 0.53182 0.16716 0.0
C687 C 0.78532 0.51612 0.16883 0.0
C688 C 0.594 0.39131 0.17223 0.0
C689 C 0.5963 0.51518 0.13753 0.0
C690 C 0.52601 0.55208 0.18179 0.0
Eu691 Eu 0.59995 0.50837 0.17622 0.0
C692 C 0.48276 0.52903 0.1796 0.0
C693 C 0.44911 0.53374 0.19128 0.0
C694 C 0.42099 0.49722 0.19474 0.0
C695 C 0.42733 0.45586 0.18675 0.0
C696 C 0.45567 0.45386 0.1734 0.0
C697 C 0.48298 0.4905 0.16971 0.0
C698 C 0.66786 0.55001 0.20332 0.0
C699 C 0.61492 0.45313 0.20534 0.0
O700 O 0.70766 0.43371 0.17028 0.0
O701 O 0.69969 0.49191 0.15469 0.0
O702 O 0.6362 0.39708 0.1761 0.0
O703 O 0.57975 0.43219 0.16824 0.0
O704 O 0.6187 0.47918 0.143 0.0
O705 O 0.58788 0.54039 0.15014 0.0
O706 O 0.54943 0.55821 0.1687 0.0
O707 O 0.55033 0.53424 0.19324 0.0
O708 O 0.66486 0.54271 0.18744 0.0
O709 O 0.6633 0.54154 0.18727 0.0
O710 O 0.57944 0.46806 0.1979 0.0
O711 O 0.65271 0.45655 0.19746 0.0
H712 H 0.79971 0.40993 0.15412 0.0
H713 H 0.87589 0.43701 0.15063 0.0
H714 H 0.83693 0.56657 0.17021 0.0
H715 H 0.75947 0.53883 0.17324 0.0
H716 H 0.44869 0.5629 0.19913 0.0
H717 H 0.39934 0.49916 0.20521 0.0
H718 H 0.46037 0.42254 0.16698 0.0
H719 H 0.50832 0.48624 0.16045 0.0
C720 C 0.88026 0.46855 0.40351 0.0
Eu721 Eu 0.87061 0.38645 0.41353 0.0
C722 C 0.86576 0.51278 0.40929 0.0
C723 C 0.89424 0.54954 0.40688 0.0
C724 C 0.87764 0.59303 0.40876 0.0
C725 C 0.83165 0.60017 0.41258 0.0
C726 C 0.80636 0.56321 0.41819 0.0
C727 C 0.823 0.51951 0.4162 0.0
C728 C 0.95489 0.33751 0.41413 0.0
C729 C 0.82994 0.33479 0.3803 0.0
C730 C 0.79171 0.26696 0.42616 0.0
Eu731 Eu 0.83743 0.33933 0.41932 0.0
C732 C 0.80988 0.22131 0.42731 0.0
C733 C 0.79143 0.1926 0.43887 0.0
C734 C 0.82017 0.16501 0.44784 0.0
C735 C 0.86719 0.16729 0.44541 0.0
C736 C 0.88375 0.18795 0.43149 0.0
C737 C 0.85481 0.21474 0.42229 0.0
C738 C 0.79663 0.40949 0.44607 0.0
C739 C 0.89499 0.35704 0.44766 0.0
O740 O 0.91016 0.44813 0.41239 0.0
O741 O 0.84861 0.44158 0.39815 0.0
O742 O 0.94829 0.37991 0.41713 0.0
O743 O 0.9139 0.32115 0.4113 0.0
O744 O 0.86304 0.36201 0.38531 0.0
O745 O 0.80747 0.32241 0.39317 0.0
O746 O 0.79152 0.28517 0.4119 0.0
O747 O 0.80864 0.29387 0.43701 0.0
O748 O 0.80188 0.40429 0.43011 0.0
O749 O 0.80315 0.4027 0.42998 0.0
O750 O 0.88118 0.32073 0.44051 0.0
O751 O 0.88908 0.39427 0.43969 0.0
H752 H 0.92808 0.54477 0.4022 0.0
H753 H 0.89937 0.62021 0.4049 0.0
H754 H 0.7717 0.56754 0.42209 0.0
H755 H 0.80114 0.49127 0.41884 0.0
H756 H 0.75676 0.19689 0.44278 0.0
H757 H 0.80675 0.14828 0.45838 0.0
H758 H 0.91981 0.1896 0.42928 0.0
H759 H 0.86946 0.23631 0.41318 0.0
C760 C 0.87589 0.63813 0.65998 0.0
Eu761 Eu 0.95508 0.61681 0.67158 0.0
C762 C 0.86241 0.67402 0.64895 0.0
C763 C 0.89511 0.7035 0.64276 0.0
C764 C 0.88283 0.73646 0.63163 0.0
C765 C 0.83772 0.74009 0.6264 0.0
C766 C 0.80469 0.71218 0.63344 0.0
C767 C 0.81702 0.67938 0.64465 0.0
C768 C 1.00772 0.69822 0.67275 0.0
C769 C 1.00357 0.57598 0.63776 0.0
C770 C 0.0714 0.53162 0.68111 0.0
Eu771 Eu 1.00017 0.58083 0.67642 0.0
C772 C 0.11697 0.54941 0.67911 0.0
C773 C 0.15017 0.53785 0.6904 0.0
C774 C 0.18146 0.57034 0.69523 0.0
C775 C 0.17779 0.61451 0.68925 0.0
C776 C 0.15154 0.62261 0.67554 0.0
C777 C 0.12114 0.58983 0.67038 0.0
C778 C 0.93225 0.54137 0.7036 0.0
C779 C 0.98986 0.63647 0.70564 0.0
O780 O 0.90108 0.6062 0.65392 0.0
O781 O 0.8911 0.6523 0.67376 0.0
O782 O 0.96542 0.69318 0.67633 0.0
O783 O 1.02181 0.65708 0.66905 0.0
O784 O 0.98139 0.61187 0.6434 0.0
O785 O 1.0117 0.55013 0.65019 0.0
O786 O 1.04719 0.52906 0.66799 0.0
O787 O 1.04959 0.55127 0.69279 0.0
O788 O 0.93487 0.54815 0.68769 0.0
O789 O 0.93641 0.54926 0.68751 0.0
O790 O 1.02418 0.6195 0.69814 0.0
O791 O 0.95153 0.63485 0.69792 0.0
H792 H 0.93035 0.70006 0.64615 0.0
H793 H 0.90894 0.7575 0.62647 0.0
H794 H 0.76977 0.71345 0.62948 0.0
H795 H 0.79139 0.6572 0.64951 0.0
H796 H 0.14763 0.50678 0.69716 0.0
H797 H 0.20215 0.56354 0.70575 0.0
H798 H 0.14871 0.65634 0.67067 0.0
H799 H 0.09617 0.59912 0.6614 0.0
C800 C 0.76487 0.43936 0.80885 0.0
Eu801 Eu 0.74295 0.38167 0.78674 0.0
C802 C 0.77025 0.43299 0.82639 0.0
C803 C 0.73264 0.43148 0.83659 0.0
C804 C 0.73817 0.42135 0.85288 0.0
C805 C 0.7814 0.41205 0.85933 0.0
C806 C 0.81878 0.41235 0.84898 0.0
C807 C 0.81337 0.42335 0.83279 0.0
C808 C 0.65498 0.34058 0.78498 0.0
C809 C 0.77954 0.32307 0.8165 0.0
C810 C 0.80453 0.26671 0.76745 0.0
Eu811 Eu 0.76923 0.34196 0.77794 0.0
C812 C 0.78156 0.2231 0.7665 0.0
C813 C 0.78957 0.19575 0.75309 0.0
C814 C 0.7546 0.16928 0.74691 0.0
C815 C 0.71157 0.17072 0.75402 0.0
C816 C 0.70623 0.19158 0.76898 0.0
C817 C 0.74145 0.21741 0.77534 0.0
C818 C 0.8056 0.41349 0.75152 0.0
C819 C 0.70472 0.38952 0.75456 0.0
O820 O 0.79448 0.41728 0.80029 0.0
O821 O 0.724 0.43741 0.80266 0.0
O822 O 0.66388 0.38385 0.78553 0.0
O823 O 0.69466 0.32034 0.78509 0.0
O824 O 0.74042 0.33903 0.8115 0.0
O825 O 0.80622 0.32688 0.80381 0.0
O826 O 0.81214 0.28256 0.78179 0.0
O827 O 0.78643 0.29693 0.75817 0.0
O828 O 0.80639 0.40505 0.76735 0.0
O829 O 0.8046 0.40313 0.76748 0.0
O830 O 0.71973 0.34849 0.7569 0.0
O831 O 0.71259 0.41791 0.76615 0.0
H832 H 0.69894 0.43828 0.83204 0.0
H833 H 0.7086 0.42277 0.86051 0.0
H834 H 0.85245 0.40512 0.85347 0.0
H835 H 0.84307 0.42363 0.82519 0.0
H836 H 0.82023 0.19969 0.74613 0.0
H837 H 0.7592 0.15321 0.73531 0.0
H838 H 0.67339 0.19254 0.77467 0.0
H839 H 0.73486 0.2379 0.78587 0.0
C840 C 0.90313 0.51404 1.04883 0.0
Eu841 Eu 0.96483 0.49679 1.02758 0.0
C842 C 0.90746 0.51925 1.06648 0.0
C843 C 0.9122 0.48186 1.07667 0.0
C844 C 0.92098 0.48795 1.09307 0.0
C845 C 0.92575 0.53155 1.09962 0.0
C846 C 0.92192 0.56881 1.08933 0.0
C847 C 0.91224 0.56276 1.07304 0.0
C848 C 1.00724 0.40959 1.02607 0.0
C849 C 1.02085 0.53532 1.05816 0.0
C850 C 0.08087 0.56185 1.01154 0.0
Eu851 Eu 1.00464 0.52484 1.01977 0.0
C852 C 0.1243 0.53845 1.01321 0.0
C853 C 0.15481 0.53984 1.00039 0.0
C854 C 0.18197 0.5024 0.99722 0.0
C855 C 0.17797 0.46338 1.00669 0.0
C856 C 0.15331 0.46504 1.02098 0.0
C857 C 0.12696 0.50282 1.02437 0.0
C858 C 0.93462 0.56216 0.9925 0.0
C859 C 0.96669 0.46167 0.99453 0.0
O860 O 0.92434 0.5451 1.04072 0.0
O861 O 0.90828 0.47386 1.04252 0.0
O862 O 0.96368 0.4181 1.02565 0.0
O863 O 1.02685 0.4496 1.02697 0.0
O864 O 1.00669 0.4959 1.05283 0.0
O865 O 1.01659 0.56209 1.04558 0.0
O866 O 0.06024 0.57159 1.0249 0.0
O867 O 1.05376 0.54252 1.00131 0.0
O868 O 0.94119 0.56076 1.00845 0.0
O869 O 0.94309 0.55912 1.00862 0.0
O870 O 1.00624 0.47839 0.99812 0.0
O871 O 0.93522 0.46736 1.00526 0.0
H872 H 0.90922 0.44791 1.07199 0.0
H873 H 0.92257 0.45842 1.10069 0.0
H874 H 0.92573 0.60279 1.09388 0.0
H875 H 0.90935 0.59236 1.06548 0.0
H876 H 0.15311 0.56679 0.99163 0.0
H877 H 0.20082 0.5015 0.98606 0.0
H878 H 0.15008 0.43536 1.02845 0.0
H879 H 0.10381 0.5011 1.03442 0.0
C880 C 0.83809 0.64883 0.30668 0.0
Eu881 Eu 0.85904 0.71086 0.28609 0.0
C882 C 0.82886 0.65224 0.32405 0.0
C883 C 0.86396 0.65651 0.33532 0.0
C884 C 0.8541 0.66561 0.35141 0.0
C885 C 0.80898 0.67136 0.35651 0.0
C886 C 0.77402 0.66738 0.34515 0.0
C887 C 0.78379 0.65717 0.32919 0.0
C888 C 0.94703 0.75229 0.28453 0.0
C889 C 0.82042 0.76979 0.31607 0.0
C890 C 0.79865 0.82751 0.26598 0.0
Eu891 Eu 0.83247 0.7525 0.27719 0.0
C892 C 0.82332 0.86989 0.26409 0.0
C893 C 0.81506 0.89595 0.25037 0.0
C894 C 0.8498 0.92198 0.24391 0.0
C895 C 0.8929 0.92163 0.25109 0.0
C896 C 0.89909 0.90097 0.26604 0.0
C897 C 0.86417 0.87545 0.27263 0.0
C898 C 0.79601 0.67936 0.25093 0.0
C899 C 0.89669 0.70734 0.25349 0.0
O900 O 0.80854 0.6704 0.2979 0.0
O901 O 0.87967 0.65463 0.30162 0.0
O902 O 0.9381 0.70899 0.28459 0.0
O903 O 0.90728 0.77245 0.28506 0.0
O904 O 0.85861 0.7504 0.31169 0.0
O905 O 0.79525 0.76966 0.30281 0.0
O906 O 0.79198 0.81373 0.28063 0.0
O907 O 0.81444 0.79553 0.25696 0.0
O908 O 0.7949 0.68913 0.26667 0.0
O909 O 0.79672 0.69103 0.26681 0.0
O910 O 0.88206 0.74814 0.25638 0.0
O911 O 0.88893 0.67778 0.26469 0.0
H912 H 0.89898 0.65315 0.33173 0.0
H913 H 0.88193 0.6669 0.3599 0.0
H914 H 0.73899 0.67153 0.34861 0.0
H915 H 0.7559 0.65426 0.32075 0.0
H916 H 0.784 0.89177 0.24356 0.0
H917 H 0.84469 0.93768 0.23228 0.0
H918 H 0.93215 0.90056 0.27168 0.0
H919 H 0.87118 0.85559 0.28328 0.0
C920 C 0.71983 0.64602 0.53531 0.0
Eu921 Eu 0.64326 0.61039 0.52607 0.0
C922 C 0.7321 0.68482 0.54531 0.0
C923 C 0.7696 0.7112 0.54126 0.0
C924 C 0.78504 0.74447 0.55184 0.0
C925 C 0.76371 0.75093 0.5668 0.0
C926 C 0.72306 0.72769 0.56986 0.0
C927 C 0.70733 0.69507 0.55917 0.0
C928 C 0.59612 0.7057 0.5212 0.0
C929 C 0.59119 0.56926 0.55822 0.0
C930 C 0.51862 0.55287 0.51138 0.0
Eu931 Eu 0.59621 0.58745 0.51903 0.0
C932 C 0.47569 0.5766 0.51388 0.0
C933 C 0.4423 0.57433 0.50193 0.0
C934 C 0.41375 0.61119 0.4994 0.0
C935 C 0.4192 0.6506 0.50864 0.0
C936 C 0.4473 0.64981 0.52218 0.0
C937 C 0.47526 0.61277 0.52488 0.0
C938 C 0.66759 0.54086 0.49339 0.0
C939 C 0.62376 0.64151 0.49147 0.0
O940 O 0.7007 0.61216 0.54259 0.0
O941 O 0.70022 0.6555 0.52175 0.0
O942 O 0.58839 0.66623 0.52819 0.0
O943 O 0.58943 0.66525 0.52803 0.0
O944 O 0.63176 0.58377 0.55366 0.0
O945 O 0.56628 0.56724 0.54507 0.0
O946 O 0.54067 0.54119 0.52439 0.0
O947 O 0.54461 0.57304 0.50098 0.0
O948 O 0.65781 0.54327 0.5092 0.0
O949 O 0.65664 0.54452 0.50929 0.0
O950 O 0.58491 0.63072 0.49733 0.0
O951 O 0.65854 0.6318 0.50048 0.0
H952 H 0.78823 0.7046 0.5303 0.0
H953 H 0.81563 0.76263 0.54887 0.0
H954 H 0.70543 0.73133 0.58118 0.0
H955 H 0.67734 0.67601 0.56226 0.0
H956 H 0.44229 0.54704 0.49325 0.0
H957 H 0.3923 0.61137 0.48879 0.0
H958 H 0.45169 0.67978 0.52944 0.0
H959 H 0.50077 0.61554 0.53419 0.0
C960 C 0.28501 0.28378 0.26515 0.0
Eu961 Eu 0.33529 0.35422 0.26981 0.0
C962 C 0.30186 0.23792 0.2672 0.0
C963 C 0.28906 0.20504 0.25603 0.0
C964 C 0.32058 0.17269 0.2513 0.0
C965 C 0.36508 0.17486 0.2573 0.0
C966 C 0.37433 0.20121 0.27086 0.0
C967 C 0.34244 0.23262 0.27593 0.0
C968 C 0.29781 0.42395 0.24249 0.0
C969 C 0.39148 0.36498 0.24083 0.0
C970 C 0.39003 0.47269 0.28889 0.0
Eu971 Eu 0.37116 0.39685 0.27491 0.0
C972 C 0.42191 0.48205 0.30217 0.0
C973 C 0.46483 0.50035 0.29896 0.0
C974 C 0.49635 0.50633 0.31137 0.0
C975 C 0.48539 0.49426 0.32722 0.0
C976 C 0.44254 0.47545 0.33029 0.0
C977 C 0.41128 0.46941 0.31795 0.0
C978 C 0.45337 0.34586 0.27373 0.0
C979 C 0.33117 0.34674 0.30825 0.0
O980 O 0.28302 0.30786 0.27825 0.0
O981 O 0.30503 0.30521 0.25348 0.0
O982 O 0.30319 0.4198 0.25845 0.0
O983 O 0.30437 0.41815 0.2586 0.0
O984 O 0.37358 0.33075 0.24803 0.0
O985 O 0.39055 0.40274 0.24879 0.0
O986 O 0.35402 0.449 0.29237 0.0
O987 O 0.40866 0.45982 0.27549 0.0
O988 O 0.44811 0.38844 0.27071 0.0
O989 O 0.412 0.33082 0.27678 0.0
O990 O 0.36865 0.36561 0.30246 0.0
O991 O 0.30351 0.34355 0.29596 0.0
H992 H 0.25784 0.20844 0.24926 0.0
H993 H 0.3129 0.15205 0.24087 0.0
H994 H 0.40836 0.20303 0.27571 0.0
H995 H 0.35269 0.25738 0.28482 0.0
H996 H 0.47407 0.51 0.28684 0.0
H997 H 0.52886 0.52117 0.30862 0.0
H998 H 0.43208 0.46711 0.3424 0.0
H999 H 0.37866 0.45502 0.32087 0.0
C1000 C 0.58857 0.54728 1.01543 0.0
Eu1001 Eu 0.51257 0.57861 1.02687 0.0
C1002 C 0.63027 0.57329 1.01348 0.0
C1003 C 0.65506 0.56772 0.99931 0.0
C1004 C 0.67883 0.60413 0.99296 0.0
C1005 C 0.67753 0.6462 1.00071 0.0
C1006 C 0.65874 0.6497 1.01605 0.0
C1007 C 0.6355 0.6131 1.02253 0.0
C1008 C 0.44043 0.53983 1.00075 0.0
C1009 C 0.46119 0.64154 1.00379 0.0
C1010 C 0.41287 0.58213 1.05749 0.0
Eu1011 Eu 0.47184 0.60422 1.03587 0.0
C1012 C 0.41899 0.57336 1.07486 0.0
C1013 C 0.41527 0.60812 1.08616 0.0
C1014 C 0.42538 0.60008 0.10232 0.0
C1015 C 0.44016 0.55718 0.10754 0.0
C1016 C 0.44453 0.52271 1.09608 0.0
C1017 C 0.43321 0.53043 1.08005 0.0
C1018 C 0.5134 0.69255 1.03421 0.0
C1019 C 0.53042 0.56566 1.06561 0.0
O1020 O 0.57527 0.53991 1.03009 0.0
O1021 O 0.55573 0.56214 1.00652 0.0
O1022 O 0.44984 0.53961 1.01652 0.0
O1023 O 0.45175 0.54148 1.01668 0.0
O1024 O 0.50293 0.6278 1.00595 0.0
O1025 O 0.43363 0.63342 1.01555 0.0
O1026 O 0.43343 0.5531 1.04826 0.0
O1027 O 0.41718 0.62361 1.0523 0.0
O1028 O 0.46997 0.68335 1.03424 0.0
O1029 O 0.53343 0.65286 1.03467 0.0
O1030 O 0.51301 0.60451 1.0611 0.0
O1031 O 0.52843 0.54035 1.05245 0.0
H1032 H 0.65118 0.53749 0.99211 0.0
H1033 H 0.69316 0.60107 0.98102 0.0
H1034 H 0.65774 0.6819 1.02215 0.0
H1035 H 0.6168 0.61801 1.03358 0.0
H1036 H 0.40447 0.64151 1.08256 0.0
H1037 H 0.41994 0.62736 0.11074 0.0
H1038 H 0.45635 0.48951 1.09945 0.0
H1039 H 0.4368 0.50275 1.07164 0.0
C1040 C 0.30977 0.82658 0.76296 0.0
Eu1041 Eu 0.27071 0.75089 0.77022 0.0
C1042 C 0.28691 0.86978 0.76539 0.0
C1043 C 0.28993 0.90291 0.7535 0.0
C1044 C 0.25304 0.93124 0.75067 0.0
C1045 C 0.21284 0.92538 0.75943 0.0
C1046 C 0.21316 0.89816 0.77313 0.0
C1047 C 0.25037 0.87067 0.77621 0.0
C1048 C 0.30838 0.68259 0.74265 0.0
C1049 C 0.20759 0.71559 0.7444 0.0
C1050 C 0.25804 0.65055 0.79905 0.0
Eu1051 Eu 0.24176 0.71203 0.77756 0.0
C1052 C 0.26244 0.65501 0.81676 0.0
C1053 C 0.22532 0.6482 0.82688 0.0
C1054 C 0.22894 0.65689 0.84338 0.0
C1055 C 0.26956 0.67357 0.8502 0.0
C1056 C 0.3066 0.68031 0.83993 0.0
C1057 C 0.30339 0.67026 0.82358 0.0
C1058 C 0.15479 0.75482 0.77584 0.0
C1059 C 0.27805 0.76746 0.80853 0.0
O1060 O 0.31946 0.80422 0.77598 0.0
O1061 O 0.2896 0.80128 0.75237 0.0
O1062 O 0.30625 0.68792 0.75863 0.0
O1063 O 0.30464 0.68983 0.75882 0.0
O1064 O 0.22512 0.75447 0.74826 0.0
O1065 O 0.21237 0.68372 0.75503 0.0
O1066 O 0.28957 0.67116 0.79096 0.0
O1067 O 0.21794 0.65596 0.79254 0.0
O1068 O 0.1629 0.71135 0.7753 0.0
O1069 O 0.19506 0.77405 0.77685 0.0
O1070 O 0.23868 0.755 0.80251 0.0
O1071 O 0.30625 0.76118 0.79647 0.0
H1072 H 0.31774 0.90273 0.74504 0.0
H1073 H 0.25329 0.95226 0.74001 0.0
H1074 H 0.18274 0.89377 0.78016 0.0
H1075 H 0.24769 0.84584 0.7857 0.0
H1076 H 0.19342 0.63621 0.82206 0.0
H1077 H 0.19989 0.64925 0.85075 0.0
H1078 H 0.3383 0.69366 0.84436 0.0
H1079 H 0.3329 0.67602 0.81618 0.0
C1080 C 1.01245 0.54853 0.51681 0.0
Eu1081 Eu 0.08858 0.51526 0.52753 0.0
C1082 C 0.97016 0.52323 0.51531 0.0
C1083 C 0.94415 0.52886 0.50135 0.0
C1084 C 0.91997 0.4924 0.49513 0.0
C1085 C 0.92226 0.45025 0.50278 0.0
C1086 C 0.94209 0.44681 0.51801 0.0
C1087 C 0.96556 0.4835 0.52439 0.0
C1088 C 0.16002 0.55353 0.5012 0.0
C1089 C 0.13548 0.45194 0.50386 0.0
C1090 C 0.18876 0.50939 0.55791 0.0
Eu1091 Eu 0.12902 0.48905 0.5362 0.0
C1092 C 0.18315 0.51511 0.57545 0.0
C1093 C 0.18186 0.47784 0.58578 0.0
C1094 C 0.17168 0.48363 0.60203 0.0
C1095 C 0.16201 0.52677 0.60829 0.0
C1096 C 0.16242 0.56384 0.59784 0.0
C1097 C 0.17358 0.55819 0.5817 0.0
C1098 C 0.08782 0.40071 0.53455 0.0
C1099 C 0.07109 0.52743 0.56609 0.0
O1100 O 1.02731 0.5556 0.53134 0.0
O1101 O 1.04411 0.53304 0.50757 0.0
O1102 O 0.15143 0.55348 0.51702 0.0
O1103 O 0.14952 0.55166 0.51716 0.0
O1104 O 0.09432 0.4664 0.50644 0.0
O1105 O 0.16451 0.45986 0.51529 0.0
O1106 O 0.16697 0.53936 0.54941 0.0
O1107 O 0.18532 0.46872 0.55184 0.0
O1108 O 0.13121 0.41004 0.53458 0.0
O1109 O 0.06764 0.44042 0.53501 0.0
O1110 O 0.08748 0.48837 0.5613 0.0
O1111 O 0.07384 0.5533 0.55315 0.0
H1112 H 0.9475 0.55906 0.49414 0.0
H1113 H 0.90483 0.49542 0.48328 0.0
H1114 H 0.94388 0.41456 0.52404 0.0
H1115 H 0.98518 0.47857 0.53529 0.0
H1116 H 0.18871 0.44421 0.58133 0.0
H1117 H 0.17309 0.45435 0.60977 0.0
H1118 H 0.15494 0.59743 0.60219 0.0
H1119 H 0.1738 0.58766 0.57401 0.0
C1120 C 0.27557 0.82515 0.43239 0.0
Eu1121 Eu 0.32639 0.75534 0.42727 0.0
C1122 C 0.29099 0.87162 0.43047 0.0
C1123 C 0.27938 0.9027 0.44242 0.0
C1124 C 0.31214 0.93268 0.44805 0.0
C1125 C 0.35637 0.93037 0.44191 0.0
C1126 C 0.36415 0.90724 0.42753 0.0
C1127 C 0.33105 0.8781 0.42165 0.0
C1128 C 0.28734 0.68444 0.45389 0.0
C1129 C 0.38226 0.7452 0.45624 0.0
C1130 C 0.38491 0.62848 0.41232 0.0
Eu1131 Eu 0.36238 0.70861 0.42218 0.0
C1132 C 0.42194 0.61207 0.40217 0.0
C1133 C 0.45087 0.57817 0.40792 0.0
C1134 C 0.48589 0.56181 0.39829 0.0
C1135 C 0.49205 0.57867 0.38263 0.0
C1136 C 0.46472 0.6149 0.37745 0.0
C1137 C 0.43025 0.6315 0.38713 0.0
C1138 C 0.44477 0.76067 0.42284 0.0
C1139 C 0.3216 0.75942 0.38836 0.0
O1140 O 0.27309 0.80133 0.4192 0.0
O1141 O 0.29697 0.80385 0.44386 0.0
O1142 O 0.2932 0.68927 0.43798 0.0
O1143 O 0.2943 0.69078 0.43783 0.0
O1144 O 0.36625 0.77963 0.4486 0.0
O1145 O 0.37944 0.70683 0.44871 0.0
O1146 O 0.35321 0.65256 0.40543 0.0
O1147 O 0.39777 0.64529 0.42602 0.0
O1148 O 0.43964 0.71818 0.42579 0.0
O1149 O 0.40319 0.7755 0.41987 0.0
O1150 O 0.35377 0.73122 0.39363 0.0
O1151 O 0.29924 0.77316 0.40101 0.0
H1152 H 0.2485 0.89856 0.44925 0.0
H1153 H 0.3055 0.95103 0.45907 0.0
H1154 H 0.39793 0.90543 0.42254 0.0
H1155 H 0.34043 0.85483 0.41217 0.0
H1156 H 0.44577 0.5637 0.41974 0.0
H1157 H 0.50665 0.53451 0.40281 0.0
H1158 H 0.46751 0.62867 0.36544 0.0
H1159 H 0.40927 0.6586 0.38258 0.0
C1160 C 1.02532 0.5447 0.1739 0.0
Eu1161 Eu 0.09837 0.59096 0.16806 0.0
C1162 C 0.97961 0.56248 0.17568 0.0
C1163 C 0.95088 0.54171 0.18673 0.0
C1164 C 0.92197 0.56824 0.19595 0.0
C1165 C 0.92325 0.61544 0.1944 0.0
C1166 C 0.94421 0.63449 0.18095 0.0
C1167 C 0.97227 0.60777 0.17146 0.0
C1168 C 0.16976 0.55383 0.19508 0.0
C1169 C 0.11728 0.64959 0.1963 0.0
C1170 C 0.22188 0.62445 0.14975 0.0
Eu1171 Eu 0.14199 0.62386 0.16216 0.0
C1172 C 0.26323 0.59961 0.15418 0.0
C1173 C 0.27013 0.55601 0.14824 0.0
C1174 C 0.31133 0.53456 0.15052 0.0
C1175 C 0.34736 0.55675 0.15844 0.0
C1176 C 0.33773 0.59724 0.16661 0.0
C1177 C 0.29627 0.61897 0.16423 0.0
C1178 C 0.09542 0.70825 0.16322 0.0
C1179 C 0.0909 0.58399 0.12946 0.0
O1180 O 1.04299 0.54784 0.15963 0.0
O1181 O 1.05287 0.55894 0.18505 0.0
O1182 O 0.16323 0.55638 0.17912 0.0
O1183 O 0.16144 0.55783 0.17902 0.0
O1184 O 0.08107 0.63208 0.19002 0.0
O1185 O 0.15357 0.64685 0.18758 0.0
O1186 O 0.20823 0.65523 0.15984 0.0
O1187 O 0.18863 0.60019 0.14395 0.0
O1188 O 0.13872 0.70154 0.16462 0.0
O1189 O 0.07743 0.66771 0.16152 0.0
O1190 O 0.10947 0.62181 0.13494 0.0
O1191 O 0.08831 0.55718 0.14199 0.0
H1192 H 0.95565 0.50665 0.18994 0.0
H1193 H 0.90477 0.55285 0.20604 0.0
H1194 H 0.945 0.67071 0.17934 0.0
H1195 H 0.99376 0.62414 0.16271 0.0
H1196 H 0.24473 0.53927 0.14095 0.0
H1197 H 0.31575 0.50283 0.14433 0.0
H1198 H 0.36347 0.6143 0.17361 0.0
H1199 H 0.29108 0.65185 0.16957 0.0
C1200 C 0.31289 0.26421 0.93421 0.0
Eu1201 Eu 0.27075 0.33826 0.92726 0.0
C1202 C 0.29072 0.22039 0.93211 0.0
C1203 C 0.29159 0.19002 0.94499 0.0
C1204 C 0.25303 0.16469 0.94842 0.0
C1205 C 0.21358 0.17039 0.93912 0.0
C1206 C 0.21594 0.19378 0.92457 0.0
C1207 C 0.25482 0.21816 0.92092 0.0
C1208 C 0.31165 0.40913 0.95359 0.0
C1209 C 0.21281 0.36003 0.95535 0.0
C1210 C 0.23 0.46665 0.90937 0.0
Eu1211 Eu 0.2375 0.38557 0.92098 0.0
C1212 C 0.24861 0.51202 0.91247 0.0
C1213 C 0.29261 0.52291 0.90763 0.0
C1214 C 0.30558 0.5678 0.90618 0.0
C1215 C 0.27445 0.6029 0.90928 0.0
C1216 C 0.23395 0.59148 0.91721 0.0
C1217 C 0.22061 0.54639 0.9184 0.0
C1218 C 0.15341 0.33573 0.92199 0.0
C1219 C 0.27832 0.33212 0.88822 0.0
O1220 O 0.3208 0.28669 0.92104 0.0
O1221 O 0.29334 0.28918 0.94507 0.0
O1222 O 0.30662 0.40328 0.93768 0.0
O1223 O 0.30535 0.40169 0.93753 0.0
O1224 O 0.22759 0.32314 0.94888 0.0
O1225 O 0.21796 0.39638 0.94683 0.0
O1226 O 0.20226 0.45022 0.91998 0.0
O1227 O 0.25763 0.43629 0.90361 0.0
O1228 O 0.15958 0.37856 0.92434 0.0
O1229 O 0.19451 0.31975 0.91924 0.0
O1230 O 0.24473 0.35902 0.89299 0.0
O1231 O 0.30088 0.32057 0.90124 0.0
H1232 H 0.31878 0.19118 0.95376 0.0
H1233 H 0.25169 0.14661 0.95973 0.0
H1234 H 0.186 0.19819 0.91719 0.0
H1235 H 0.25343 0.24098 0.91076 0.0
H1236 H 0.31582 0.49707 0.90356 0.0
H1237 H 0.33803 0.57398 0.90067 0.0
H1238 H 0.21024 0.6172 0.92093 0.0
H1239 H 0.18704 0.53877 0.9228 0.0
C1240 C 0.58155 0.56275 0.67726 0.0
Eu1241 Eu 0.51069 0.51613 0.66897 0.0
C1242 C 0.62772 0.54579 0.67855 0.0
C1243 C 0.65568 0.56464 0.69036 0.0
C1244 C 0.68323 0.53642 0.69954 0.0
C1245 C 0.68144 0.48951 0.6971 0.0
C1246 C 0.66175 0.47268 0.68296 0.0
C1247 C 0.63521 0.50116 0.67352 0.0
C1248 C 0.43744 0.55459 0.69479 0.0
C1249 C 0.48853 0.45768 0.69659 0.0
C1250 C 0.38148 0.46946 0.65124 0.0
Eu1251 Eu 0.46286 0.48276 0.66211 0.0
C1252 C 0.33565 0.47705 0.65717 0.0
C1253 C 0.30215 0.44594 0.65309 0.0
C1254 C 0.25692 0.45643 0.65561 0.0
C1255 C 0.24464 0.49894 0.66185 0.0
C1256 C 0.27876 0.52614 0.66866 0.0
C1257 C 0.32423 0.51558 0.6661 0.0
C1258 C 0.51319 0.39991 0.66375 0.0
C1259 C 0.51862 0.52296 0.62971 0.0
O1260 O 0.56412 0.56417 0.66284 0.0
O1261 O 0.55448 0.54375 0.68754 0.0
O1262 O 0.44422 0.55082 0.67886 0.0
O1263 O 0.44583 0.54955 0.67875 0.0
O1264 O 0.526 0.47154 0.69021 0.0
O1265 O 0.45212 0.4638 0.68803 0.0
O1266 O 0.40453 0.4391 0.65894 0.0
O1267 O 0.40548 0.50499 0.6476 0.0
O1268 O 0.47028 0.40586 0.66605 0.0
O1269 O 0.52949 0.44065 0.66096 0.0
O1270 O 0.48786 0.49254 0.63412 0.0
O1271 O 0.53291 0.54304 0.64291 0.0
H1272 H 0.65073 0.59914 0.69426 0.0
H1273 H 0.69955 0.55016 0.71017 0.0
H1274 H 0.66061 0.43675 0.68067 0.0
H1275 H 0.61421 0.48626 0.66421 0.0
H1276 H 0.31069 0.41515 0.64676 0.0
H1277 H 0.23205 0.4337 0.65053 0.0
H1278 H 0.27045 0.55825 0.67412 0.0
H1279 H 0.35005 0.53907 0.67001 0.0
C1280 C 0.16563 0.45615 0.46032 0.0
C1281 C 0.20536 0.4303 0.46075 0.0
H1282 H 0.11043 0.48263 0.47418 0.0
C1283 C 0.21549 0.40449 0.47445 0.0
H1284 H 0.15668 0.47524 0.44967 0.0
C1285 C 0.18899 0.40782 0.48809 0.0
C1286 C 0.15173 0.43678 0.48825 0.0
H1287 H 0.24485 0.3826 0.47477 0.0
H1288 H 0.19936 0.38998 0.49887 0.0
C1289 C 0.13883 0.45954 0.47414 0.0
C1290 C 0.88115 0.89948 0.69982 0.0
C1291 C 0.92366 0.91886 0.69744 0.0
H1292 H 0.83974 0.86162 0.71603 0.0
C1293 C 0.96015 0.90636 0.70737 0.0
H1294 H 0.85293 0.90872 0.69216 0.0
C1295 C 0.95251 0.88085 0.72114 0.0
C1296 C 0.90867 0.86651 0.7247 0.0
H1297 H 0.99328 0.92123 0.70566 0.0
H1298 H 0.97958 0.87692 0.72986 0.0
C1299 C 0.87385 0.87255 0.71336 0.0
C1300 C 0.43195 0.6435 0.95978 0.0
C1301 C 0.39083 0.66718 0.96039 0.0
H1302 H 0.48798 0.61727 0.97346 0.0
C1303 C 0.37785 0.6881 0.97482 0.0
H1304 H 0.44315 0.62816 0.94865 0.0
C1305 C 0.40358 0.68294 0.98865 0.0
C1306 C 0.44299 0.65691 0.98839 0.0
H1307 H 0.34744 0.70843 0.97547 0.0
H1308 H 0.39154 0.69775 0.99977 0.0
C1309 C 0.45793 0.63816 0.9738 0.0
C1310 C 0.72957 0.22435 0.2135 0.0
C1311 C 0.69522 0.23033 0.22493 0.0
H1312 H 0.75054 0.18674 0.19266 0.0
C1313 C 0.65168 0.21431 0.22173 0.0
H1314 H 0.76341 0.23668 0.21589 0.0
C1315 C 0.64402 0.18751 0.20825 0.0
C1316 C 0.68028 0.17529 0.19826 0.0
H1317 H 0.62499 0.21823 0.23053 0.0
H1318 H 0.61121 0.17168 0.20679 0.0
C1319 C 0.72241 0.1959 0.2003 0.0
C1320 C 0.14623 0.63217 0.23898 0.0
C1321 C 0.17115 0.67157 0.24157 0.0
H1322 H 0.10603 0.59503 0.22201 0.0
C1323 C 0.16601 0.70826 0.23108 0.0
H1324 H 0.14968 0.60384 0.24709 0.0
C1325 C 0.14157 0.7033 0.21686 0.0
C1326 C 0.12139 0.66193 0.21321 0.0
H1327 H 0.18493 0.73908 0.23304 0.0
H1328 H 0.14271 0.72996 0.20797 0.0
C1329 C 0.12093 0.62747 0.22479 0.0
C1330 C 0.72972 0.87053 0.48271 0.0
C1331 C 0.69352 0.86617 0.47181 0.0
H1332 H 0.75396 0.90513 0.50379 0.0
C1333 C 0.65046 0.88115 0.47615 0.0
H1334 H 0.76331 0.85926 0.47941 0.0
C1335 C 0.64501 0.906 0.49021 0.0
C1336 C 0.68288 0.91711 0.49969 0.0
H1337 H 0.62236 0.87844 0.46779 0.0
H1338 H 0.61252 0.92176 0.49245 0.0
C1339 C 0.7246 0.8968 0.49655 0.0
C1340 C 0.46874 0.40073 0.71658 0.0
C1341 C 0.48424 0.44426 0.71336 0.0
H1342 H 0.42875 0.35954 0.73209 0.0
C1343 C 0.4792 0.47827 0.72498 0.0
H1344 H 0.4716 0.3744 0.70759 0.0
C1345 C 0.45329 0.4703 0.73874 0.0
C1346 C 0.43358 0.42796 0.74101 0.0
H1347 H 0.49058 0.51224 0.7225 0.0
H1348 H 0.4455 0.49792 0.7468 0.0
C1349 C 0.44392 0.39247 0.73046 0.0
C1350 C 0.95554 0.18114 0.98992 0.0
C1351 C 0.91836 0.17419 1.00012 0.0
H1352 H 0.97689 0.20301 0.96663 0.0
C1353 C 0.87736 0.19594 0.99695 0.0
H1354 H 0.9875 0.16439 0.99226 0.0
C1355 C 0.87199 0.21977 0.98256 0.0
C1356 C 0.90706 0.22006 0.9712 0.0
H1357 H 0.84862 0.19096 1.00478 0.0
H1358 H 0.83887 0.23287 0.97948 0.0
C1359 C 0.94963 0.20318 0.97532 0.0
C1360 C 0.95492 0.69778 0.74151 0.0
C1361 C 0.93753 0.661 0.75014 0.0
H1362 H 0.98725 0.7184 0.71972 0.0
C1363 C 0.95289 0.61749 0.74669 0.0
H1364 H 0.94321 0.7317 0.74401 0.0
C1365 C 0.98013 0.61028 0.73322 0.0
C1366 C 0.98987 0.6462 0.72283 0.0
H1367 H 0.93982 0.58891 0.75328 0.0
H1368 H 0.98769 0.57603 0.72963 0.0
C1369 C 0.98039 0.69032 0.72768 0.0
C1370 C 0.21361 0.18569 0.48594 0.0
C1371 C 0.18346 0.14925 0.48573 0.0
H1372 H 0.24552 0.23712 0.47177 0.0
C1373 C 0.15617 0.14165 0.47214 0.0
H1374 H 0.2341 0.19258 0.49649 0.0
C1375 C 0.162 0.16709 0.45835 0.0
C1376 C 0.19489 0.20083 0.45798 0.0
H1377 H 0.13136 0.11476 0.47198 0.0
H1378 H 0.14284 0.15844 0.44763 0.0
C1379 C 0.21942 0.21152 0.47199 0.0
C1380 C 0.62194 0.48269 0.23272 0.0
C1381 C 0.61611 0.44513 0.22263 0.0
H1382 H 0.6583 0.50904 0.2531 0.0
C1383 C 0.62886 0.40242 0.22807 0.0
H1384 H 0.61184 0.51587 0.22866 0.0
C1385 C 0.65343 0.39833 0.24233 0.0
C1386 C 0.66685 0.43717 0.2508 0.0
H1387 H 0.62495 0.37318 0.22036 0.0
H1388 H 0.66769 0.36573 0.24535 0.0
C1389 C 0.6483 0.47893 0.24665 0.0
C1390 C 0.43567 0.95054 0.96027 0.0
C1391 C 0.40865 0.91203 0.95927 0.0
H1392 H 0.45955 1.0043 0.97489 0.0
C1393 C 0.38695 0.89571 0.97311 0.0
H1394 H 0.45281 0.96357 0.94975 0.0
C1395 C 0.39006 0.91974 0.98761 0.0
C1396 C 0.41439 0.96031 0.98818 0.0
H1397 H 0.36534 0.8663 0.97247 0.0
H1398 H 0.37237 0.90763 0.99814 0.0
C1399 C 0.43857 0.97438 0.97456 0.0
C1400 C 0.90272 0.39934 0.96366 0.0
C1401 C 0.90185 0.43145 0.95125 0.0
H1402 H 0.92541 0.38397 0.98746 0.0
C1403 C 0.93144 0.46817 0.95169 0.0
H1404 H 0.88064 0.37019 0.96327 0.0
C1405 C 0.95843 0.47504 0.96535 0.0
C1406 C 0.95486 0.44565 0.97854 0.0
H1407 H 0.93148 0.49272 0.94205 0.0
H1408 H 0.97843 0.50552 0.96626 0.0
C1409 C 0.92862 0.40674 0.97734 0.0
C1410 C 0.38593 0.19496 0.70774 0.0
C1411 C 0.4259 0.1702 0.70598 0.0
H1412 H 0.34668 0.23621 0.72368 0.0
C1413 C 0.46107 0.17523 0.71723 0.0
H1414 H 0.35868 0.19147 0.69907 0.0
C1415 C 0.4543 0.20033 0.73116 0.0
C1416 C 0.41262 0.2213 0.73379 0.0
H1417 H 0.49232 0.15644 0.71592 0.0
H1418 H 0.47988 0.19966 0.74054 0.0
C1419 C 0.37943 0.22086 0.72163 0.0
C1420 C 0.66806 0.70357 0.45657 0.0
C1421 C 0.67793 0.66698 0.4464 0.0
H1422 H 0.64247 0.72366 0.47955 0.0
C1423 C 0.65848 0.62493 0.4493 0.0
H1424 H 0.68318 0.73631 0.45447 0.0
C1425 C 0.63366 0.6183 0.46337 0.0
C1426 C 0.6299 0.65328 0.47467 0.0
H1427 H 0.66583 0.59662 0.4415 0.0
H1428 H 0.62187 0.58474 0.46626 0.0
C1429 C 0.64482 0.69653 0.47085 0.0
C1430 C 0.14871 0.89048 0.23076 0.0
C1431 C 0.19085 0.87042 0.23351 0.0
H1432 H 0.11073 0.93606 0.21608 0.0
C1433 C 0.22465 0.87326 0.22172 0.0
H1434 H 0.12261 0.88927 0.23988 0.0
C1435 C 0.21848 0.90127 0.20835 0.0
C1436 C 0.17814 0.92553 0.20668 0.0
H1437 H 0.25764 0.85844 0.22384 0.0
H1438 H 0.24631 0.90698 0.20016 0.0
C1439 C 0.14224 0.91763 0.21731 0.0
C1440 C 0.63881 0.96094 0.97414 0.0
C1441 C 0.65083 0.93414 0.98743 0.0
H1442 H 0.65673 0.98137 0.95012 0.0
C1443 C 0.68538 0.90226 0.98597 0.0
H1444 H 0.61247 0.98618 0.97516 0.0
C1445 C 0.71075 0.90024 0.97201 0.0
C1446 C 0.70217 0.93031 0.95933 0.0
H1447 H 0.69501 0.88125 0.99609 0.0
H1448 H 0.73854 0.87645 0.97139 0.0
C1449 C 0.66449 0.95891 0.96002 0.0
C1450 C 0.36679 0.37478 0.21297 0.0
C1451 C 0.40218 0.36541 0.22376 0.0
H1452 H 0.34716 0.41267 0.19202 0.0
C1453 C 0.44685 0.37417 0.21931 0.0
H1454 H 0.3321 0.36792 0.2163 0.0
C1455 C 0.45546 0.3981 0.20526 0.0
C1456 C 0.41927 0.41462 0.19596 0.0
H1457 H 0.47444 0.36761 0.22762 0.0
H1458 H 0.4898 0.40905 0.20293 0.0
C1459 C 0.3752 0.40031 0.19919 0.0
C1460 C 0.9119 0.18909 0.4869 0.0
C1461 C 0.94825 0.15908 0.48788 0.0
H1462 H 0.85787 0.21466 0.47257 0.0
C1463 C 0.9615 0.13467 0.47417 0.0
H1464 H 0.90127 0.20825 0.49734 0.0
C1465 C 0.93589 0.13756 0.45997 0.0
C1466 C 0.89696 0.16457 0.45959 0.0
H1467 H 0.9892 0.11081 0.47481 0.0
H1468 H 0.94505 0.11722 0.44965 0.0
C1469 C 0.88659 0.19194 0.47287 0.0
C1470 C 0.14718 0.65228 0.71301 0.0
C1471 C 0.18077 0.65078 0.70111 0.0
H1472 H 0.12947 0.6757 0.73646 0.0
C1473 C 0.2175 0.68035 0.70184 0.0
H1474 H 0.11807 0.63012 0.71238 0.0
C1475 C 0.22302 0.7078 0.71541 0.0
C1476 C 0.19234 0.70459 0.72824 0.0
H1477 H 0.24315 0.67989 0.69257 0.0
H1478 H 0.25359 0.72765 0.71662 0.0
C1479 C 0.15325 0.67864 0.72662 0.0
C1480 C 0.63704 0.19573 0.71922 0.0
C1481 C 0.62269 0.15238 0.71508 0.0
H1482 H 0.67581 0.23545 0.73571 0.0
C1483 C 0.6279 0.11699 0.72614 0.0
H1484 H 0.63394 0.22319 0.71069 0.0
C1485 C 0.65342 0.12349 0.74017 0.0
C1486 C 0.67232 0.16577 0.74332 0.0
H1487 H 0.61708 0.08324 0.72301 0.0
H1488 H 0.66172 0.09493 0.74773 0.0
C1489 C 0.66124 0.20254 0.73342 0.0
C1490 C 0.15675 0.37556 0.97623 0.0
C1491 C 0.20122 0.36407 0.97231 0.0
H1492 H 0.1145 0.41553 0.99141 0.0
C1493 C 0.23643 0.3744 0.98307 0.0
H1494 H 0.12928 0.36831 0.96795 0.0
C1495 C 0.22854 0.40343 0.99601 0.0
C1496 C 0.18487 0.41997 0.99862 0.0
H1497 H 0.27087 0.36521 0.98019 0.0
H1498 H 0.2569 0.41645 1.00287 0.0
C1499 C 0.14849 0.40282 0.98956 0.0
C1500 C 0.97563 0.98352 0.22538 0.0
C1501 C 0.98348 0.9503 0.21368 0.0
H1502 H 0.93899 1.00058 0.24684 0.0
C1503 C 0.9706 0.90578 0.2166 0.0
H1504 H 0.98537 1.0181 0.22315 0.0
C1505 C 0.94536 0.89561 0.23023 0.0
C1506 C 0.93199 0.93013 0.24076 0.0
H1507 H 0.97569 0.87999 0.20754 0.0
H1508 H 0.93209 0.86179 0.2316 0.0
C1509 C 0.94918 0.97366 0.23882 0.0
C1510 C 0.3652 0.70615 0.49713 0.0
C1511 C 0.40976 0.69372 0.50068 0.0
H1512 H 0.32159 0.73829 0.48001 0.0
C1513 C 0.44558 0.71379 0.49222 0.0
H1514 H 0.33732 0.691 0.50357 0.0
C1515 C 0.43659 0.73895 0.47842 0.0
C1516 C 0.39183 0.74541 0.47345 0.0
H1517 H 0.48031 0.70438 0.4948 0.0
H1518 H 0.46436 0.74791 0.47056 0.0
C1519 C 0.35635 0.73303 0.4837 0.0
C1520 C 0.42902 0.13136 0.24505 0.0
C1521 C 0.40132 0.16953 0.24553 0.0
H1522 H 0.47511 0.09276 0.23066 0.0
C1523 C 0.40463 0.20246 0.23347 0.0
H1524 H 0.42708 0.10608 0.25441 0.0
C1525 C 0.43097 0.19468 0.21999 0.0
C1526 C 0.45523 0.1545 0.21868 0.0
H1527 H 0.38388 0.23259 0.23389 0.0
H1528 H 0.42943 0.21822 0.21003 0.0
C1529 C 0.45657 0.12413 0.23164 0.0
C1530 C 0.72469 0.70632 0.98825 0.0
C1531 C 0.68235 0.68658 0.99073 0.0
H1532 H 0.76547 0.74459 0.97195 0.0
C1533 C 0.64568 0.69851 0.98082 0.0
H1534 H 0.75316 0.6974 0.99585 0.0
C1535 C 0.65279 0.72446 0.96713 0.0
C1536 C 0.69638 0.73942 0.96348 0.0
H1537 H 0.61272 0.68337 0.98263 0.0
H1538 H 0.62554 0.72815 0.95846 0.0
C1539 C 0.7315 0.73342 0.97471 0.0
C1540 C 0.15384 0.97474 0.74734 0.0
C1541 C 0.17029 0.93152 0.75058 0.0
H1542 H 0.11849 1.01616 0.73033 0.0
C1543 C 0.15502 0.89482 0.74133 0.0
H1544 H 0.16533 1.00322 0.75441 0.0
C1545 C 0.13025 0.90236 0.72729 0.0
C1546 C 0.1192 0.94641 0.72285 0.0
H1547 H 0.16768 0.86114 0.74365 0.0
H1548 H 0.12464 0.87463 0.71903 0.0
C1549 C 0.1273 0.98198 0.73363 0.0
C1550 C 0.87586 0.39095 0.48941 0.0
C1551 C 0.91814 0.41004 0.49265 0.0
H1552 H 0.83606 0.35432 0.47222 0.0
C1553 C 0.95554 0.39834 0.48315 0.0
H1554 H 0.84685 0.39973 0.49669 0.0
C1555 C 0.94931 0.37349 0.46909 0.0
C1556 C 0.90589 0.35931 0.46473 0.0
H1557 H 0.98845 0.41307 0.48552 0.0
H1558 H 0.97723 0.37013 0.46076 0.0
C1559 C 0.86991 0.36488 0.47554 0.0
C1560 C 0.45604 0.97121 0.4664 0.0
C1561 C 0.45262 0.94185 0.47961 0.0
H1562 H 0.42638 0.9915 0.4438 0.0
C1563 C 0.42343 0.90493 0.47887 0.0
H1564 H 0.47836 1.0001 0.46691 0.0
C1565 C 0.39434 0.9001 0.46586 0.0
C1566 C 0.39351 0.93264 0.45361 0.0
H1567 H 0.42033 0.88212 0.48899 0.0
H1568 H 0.37016 0.87263 0.46592 0.0
C1569 C 0.4261 0.96681 0.45338 0.0
C1570 C 0.93951 0.65432 0.23694 0.0
C1571 C 0.91143 0.69213 0.23766 0.0
H1572 H 0.96479 0.60059 0.22261 0.0
C1573 C 0.88964 0.7076 0.22365 0.0
H1574 H 0.95672 0.64203 0.24761 0.0
C1575 C 0.89338 0.68312 0.20928 0.0
C1576 C 0.91857 0.64304 0.20901 0.0
H1577 H 0.86725 0.73648 0.22408 0.0
H1578 H 0.87523 0.6943 0.19866 0.0
C1579 C 0.94321 0.63012 0.22275 0.0
C1580 C 0.15762 0.20606 0.95665 0.0
C1581 C 0.17029 0.16804 0.94763 0.0
H1582 H 0.12749 0.2292 0.97852 0.0
C1583 C 0.14979 0.12651 0.95068 0.0
H1584 H 0.17331 0.23846 0.95443 0.0
C1585 C 0.12178 0.12178 0.96409 0.0
C1586 C 0.11609 0.15808 0.97475 0.0
H1587 H 0.15915 0.09709 0.94374 0.0
H1588 H 0.1101 0.08846 0.96736 0.0
C1589 C 0.13117 0.20094 0.97035 0.0
C1590 C 0.70835 0.41868 0.71082 0.0
C1591 C 0.68476 0.45972 0.7112 0.0
H1592 H 0.73255 0.36255 0.72471 0.0
C1593 C 0.66042 0.4716 0.72506 0.0
H1594 H 0.72617 0.40829 0.70007 0.0
C1595 C 0.66306 0.44534 0.73879 0.0
C1596 C 0.68991 0.40657 0.73895 0.0
H1597 H 0.63995 0.5019 0.72541 0.0
H1598 H 0.64628 0.45687 0.74962 0.0
C1599 C 0.71112 0.39218 0.72473 0.0
C1600 C 0.094 0.32549 0.41397 0.0
C1601 C 0.10631 0.27889 0.41205 0.0
H1602 H 1.04287 0.3785 0.41615 0.0
C1603 C 0.06571 0.2517 0.41069 0.0
H1604 H 0.12111 0.34974 0.41524 0.0
C1605 C 1.01872 0.26887 0.41109 0.0
C1606 C 1.0065 0.31556 0.41305 0.0
H1607 H 0.0701 0.21571 0.40927 0.0
H1608 H 0.99157 0.24462 0.40997 0.0
C1609 C 1.04714 0.34257 0.41451 0.0
C1610 C 1.00574 0.79019 0.67293 0.0
C1611 C 1.03156 0.74876 0.67187 0.0
H1612 H 1.00121 0.86399 0.67381 0.0
C1613 C 0.079 0.75915 0.67079 0.0
H1614 H 0.96937 0.78726 0.67397 0.0
C1615 C 0.09795 0.80524 0.67089 0.0
C1616 C 0.07202 0.84668 0.67177 0.0
H1617 H 0.10248 0.73123 0.67013 0.0
H1618 H 0.13438 0.80821 0.67027 0.0
C1619 C 1.02462 0.8362 0.67277 0.0
C1620 C 0.54033 0.85552 0.9108 0.0
C1621 C 0.49926 0.82927 0.91245 0.0
H1622 H 0.61455 0.86085 0.90956 0.0
C1623 C 0.51058 0.78241 0.91429 0.0
H1624 H 0.53667 0.89159 0.9094 0.0
C1625 C 0.55704 0.76426 0.91453 0.0
C1626 C 0.59815 0.79031 0.91277 0.0
H1627 H 0.48301 0.75882 0.91576 0.0
H1628 H 0.56059 0.72826 0.91617 0.0
C1629 C 0.58691 0.83725 0.91087 0.0
C1630 C 0.50482 0.28318 0.16845 0.0
C1631 C 0.53031 0.24208 0.1711 0.0
H1632 H 0.50059 0.35681 0.16623 0.0
C1633 C 0.57705 0.25316 0.17401 0.0
H1634 H 0.46888 0.27987 0.16622 0.0
C1635 C 0.59574 0.29929 0.17425 0.0
C1636 C 0.57045 0.34042 0.17143 0.0
H1637 H 0.60005 0.22571 0.17647 0.0
H1638 H 0.63153 0.30255 0.17679 0.0
C1639 C 0.52367 0.32936 0.16848 0.0
C1640 C 1.03961 0.74697 0.28608 0.0
C1641 C 0.99874 0.77364 0.28466 0.0
H1642 H 0.11375 0.74114 0.28718 0.0
C1643 C 1.01019 0.82044 0.28299 0.0
H1644 H 1.03577 0.71089 0.28734 0.0
C1645 C 0.05665 0.83826 0.28264 0.0
C1646 C 0.09756 0.81178 0.28415 0.0
H1647 H 0.98269 0.84422 0.28178 0.0
H1648 H 0.06038 0.87428 0.28113 0.0
C1649 C 0.08621 0.7649 0.28595 0.0
C1650 C 0.57748 0.84231 0.52146 0.0
C1651 C 0.5323 0.85353 0.52628 0.0
H1652 H 0.62993 0.79278 0.51604 0.0
C1653 C 0.50783 0.81253 0.53018 0.0
H1654 H 0.59953 0.86968 0.51807 0.0
C1655 C 0.5265 0.76613 0.5295 0.0
C1656 C 0.57171 0.75519 0.52437 0.0
H1657 H 0.47298 0.81609 0.53391 0.0
H1658 H 0.50444 0.73862 0.53271 0.0
C1659 C 0.59556 0.79621 0.52033 0.0
C1660 C 0.59217 0.27256 0.78276 0.0
C1661 C 0.60345 0.31919 0.78502 0.0
H1662 H 0.54213 0.21875 0.78043 0.0
C1663 C 0.56266 0.34562 0.78696 0.0
H1664 H 0.61968 0.24908 0.78107 0.0
C1665 C 0.51617 0.32755 0.78678 0.0
C1666 C 0.50502 0.28083 0.78443 0.0
H1667 H 0.5665 0.38156 0.78869 0.0
H1668 H 0.48859 0.35105 0.78842 0.0
C1669 C 0.54583 0.25461 0.7824 0.0
C1670 C 0.09401 0.29988 1.02419 0.0
C1671 C 0.06771 0.25901 1.02598 0.0
H1672 H 0.09979 0.37352 1.02283 0.0
C1673 C 1.02064 0.27054 1.02786 0.0
H1674 H 0.13011 0.2962 1.0225 0.0
C1675 C 1.00254 0.31707 1.02792 0.0
C1676 C 1.02906 0.35792 1.02629 0.0
H1677 H 0.99678 0.24317 1.02916 0.0
H1678 H 0.96634 0.32087 1.02929 0.0
C1679 C 0.07601 0.34628 1.02441 0.0
C1680 C 0.09197 0.82403 0.77481 0.0
C1681 C 0.1032 0.77697 0.77598 0.0
H1682 H 1.04209 0.8785 0.77355 0.0
C1683 C 0.06204 0.75062 0.77691 0.0
H1684 H 0.11955 0.8477 0.7738 0.0
C1685 C 1.01554 0.76896 0.77686 0.0
C1686 C 1.00437 0.81611 0.77573 0.0
H1687 H 0.06556 0.71439 0.7777 0.0
H1688 H 0.98789 0.74527 0.77756 0.0
C1689 C 1.04555 0.84233 0.77463 0.0
C1690 C 0.07661 0.26136 0.5342 0.0
C1691 C 1.02943 0.24914 0.53485 0.0
H1692 H 0.13033 0.31233 0.53356 0.0
C1693 C 1.00215 0.28969 0.53543 0.0
H1694 H 0.1011 0.23429 0.53364 0.0
C1695 C 1.01958 0.33639 0.53544 0.0
C1696 C 0.0667 0.34868 0.53476 0.0
H1697 H 0.96582 0.28552 0.53593 0.0
H1698 H 0.99514 0.36339 0.53605 0.0
C1699 C 0.09402 0.30812 0.53414 0.0
C1700 C 0.59194 0.33024 0.27461 0.0
C1701 C 0.60295 0.28305 0.27469 0.0
H1702 H 0.54228 0.38493 0.2741 0.0
C1703 C 0.56165 0.25669 0.27466 0.0
H1704 H 0.61966 0.35396 0.27443 0.0
C1705 C 0.51516 0.27511 0.27474 0.0
C1706 C 0.50426 0.32239 0.27455 0.0
H1707 H 0.56507 0.22039 0.27457 0.0
H1708 H 0.48736 0.2514 0.27466 0.0
C1709 C 0.54558 0.34862 0.2744 0.0
C1710 C 0.60025 0.8024 1.0352 0.0
C1711 C 0.57345 0.84325 1.03465 0.0
H1712 H 0.60631 0.72865 1.03581 0.0
C1713 C 0.5261 0.83169 1.03402 0.0
H1714 H 0.63664 0.80611 1.03569 0.0
C1715 C 0.50809 0.78518 1.03392 0.0
C1716 C 0.53496 0.74433 1.03449 0.0
H1717 H 0.50196 0.85909 1.0335 0.0
H1718 H 0.47172 0.7814 1.03334 0.0
C1719 C 0.58223 0.75598 1.03519 0.0
C1720 C 0.09131 0.26521 0.92208 0.0
C1721 C 0.10221 0.31247 0.9214 0.0
H1722 H 1.04174 0.21038 0.92304 0.0
C1723 C 0.06069 0.33853 0.92095 0.0
H1724 H 0.1191 0.24162 0.92275 0.0
C1725 C 1.01428 0.31995 0.92094 0.0
C1726 C 1.0034 0.27269 0.92167 0.0
H1727 H 0.06385 0.37483 0.92058 0.0
H1728 H 0.98641 0.3436 0.92055 0.0
C1729 C 1.0449 0.24664 0.92231 0.0
C1730 C 0.58306 0.33794 0.66414 0.0
C1731 C 0.53585 0.34912 0.66319 0.0
H1732 H 0.63718 0.28774 0.66554 0.0
C1733 C 0.50891 0.30844 0.66252 0.0
H1734 H 0.60705 0.36538 0.66492 0.0
C1735 C 0.52678 0.26211 0.66261 0.0
C1736 C 0.57393 0.2509 0.66373 0.0
H1737 H 0.47253 0.31225 0.66191 0.0
H1738 H 0.50275 0.23469 0.66203 0.0
C1739 C 0.60087 0.29158 0.66454 0.0
C1740 C 0.5533 0.84979 0.42155 0.0
C1741 C 0.59476 0.82354 0.42164 0.0
H1742 H 0.47898 0.85513 0.42152 0.0
C1743 C 0.58375 0.77631 0.42191 0.0
H1744 H 0.55661 0.8861 0.42149 0.0
C1745 C 0.5373 0.75794 0.42215 0.0
C1746 C 0.49581 0.78411 0.4219 0.0
H1747 H 0.61152 0.75257 0.42222 0.0
H1748 H 0.53406 0.72164 0.42258 0.0
C1749 C 0.50678 0.83138 0.42154 0.0
C1750 C 1.00846 0.81711 0.16441 0.0
C1751 C 1.03541 0.85765 0.16311 0.0
H1752 H 1.0021 0.74337 0.16528 0.0
C1753 C 0.08241 0.84618 0.1616 0.0
H1754 H 0.97227 0.82111 0.16572 0.0
C1755 C 0.10015 0.79978 0.16159 0.0
C1756 C 0.07316 0.75925 0.16277 0.0
H1757 H 0.10642 0.87347 0.16056 0.0
H1758 H 0.13642 0.79579 0.1606 0.0
C1759 C 1.02611 0.77068 0.16414 0.0
C1760 C 0.26566 0.29602 0.34801 0.0
C1761 C 0.29718 0.2936 0.36125 0.0
H1762 H 0.24962 0.31187 0.32288 0.0
C1763 C 0.34096 0.30984 0.35623 0.0
H1764 H 0.23145 0.28457 0.35012 0.0
C1765 C 0.35174 0.32671 0.33996 0.0
C1766 C 0.32012 0.32891 0.3267 0.0
H1767 H 0.36794 0.30974 0.36507 0.0
H1768 H 0.38597 0.33802 0.3378 0.0
C1769 C 0.27655 0.31232 0.33174 0.0
C1770 C 1.05602 1.01323 0.5904 0.0
C1771 C 1.04128 0.05738 0.58525 0.0
H1772 H 0.08256 0.96741 0.60895 0.0
C1773 C 1.04503 0.0887 0.59848 0.0
H1774 H 1.05488 0.98632 0.58162 0.0
C1775 C 0.06107 0.07731 0.6148 0.0
C1776 C 0.07597 1.0333 0.61998 0.0
H1777 H 1.0349 0.12321 0.59629 0.0
H1778 H 0.06191 0.10422 0.6236 0.0
C1779 C 0.07258 1.00193 0.60673 0.0
C1780 C 0.26675 0.80767 0.85587 0.0
C1781 C 0.31137 0.8183 0.86181 0.0
H1782 H 0.2214 0.7852 0.8365 0.0
C1783 C 0.34442 0.81112 0.84935 0.0
H1784 H 0.23871 0.81156 0.86408 0.0
C1785 C 0.3341 0.79547 0.83293 0.0
C1786 C 0.28948 0.78523 0.82693 0.0
H1787 H 0.37946 0.81791 0.85227 0.0
H1788 H 0.36218 0.79133 0.82474 0.0
C1789 C 0.25642 0.79208 0.83942 0.0
C1790 C 0.54302 0.0873 0.10796 0.0
C1791 C 0.53504 0.05463 0.12045 0.0
H1792 H 0.5631 0.10426 1.08332 0.0
C1793 C 0.54382 1.00983 0.11454 0.0
H1794 H 0.5374 0.12242 0.11085 0.0
C1795 C 0.55897 0.99901 1.09813 0.0
C1796 C 0.56717 1.03169 1.08568 0.0
H1797 H 0.53896 0.98206 0.12278 0.0
H1798 H 0.56461 0.96389 1.09525 0.0
C1799 C 0.55822 0.07649 1.09156 0.0
C1800 C 0.33381 0.7633 0.3553 0.0
C1801 C 0.31032 0.77646 0.36975 0.0
H1802 H 0.3432 0.76695 0.32912 0.0
C1803 C 0.27472 0.80799 0.36576 0.0
H1804 H 0.36153 0.7397 0.35653 0.0
C1805 C 0.2638 0.8243 0.34944 0.0
C1806 C 0.28717 0.81121 0.33498 0.0
H1807 H 0.25436 0.82078 0.37556 0.0
H1808 H 0.23608 0.84791 0.34824 0.0
C1809 C 0.32286 0.77966 0.33893 0.0
C1810 C 0.55498 1.0224 0.60756 0.0
C1811 C 0.57658 0.06395 0.61232 0.0
H1812 H 0.52409 0.97889 0.58922 0.0
C1813 C 0.58042 0.0935 0.59862 0.0
H1814 H 0.54969 0.99721 0.61677 0.0
C1815 C 0.56438 0.08283 0.58221 0.0
C1816 C 0.54321 1.04106 0.57744 0.0
H1817 H 0.59587 0.12612 0.60055 0.0
H1818 H 0.569 0.10823 0.57303 0.0
C1819 C 0.5397 1.01144 0.59112 0.0
C1820 C 0.33829 0.26814 0.84952 0.0
C1821 C 0.31467 0.28064 0.83496 0.0
H1822 H 0.34757 0.27201 0.87569 0.0
C1823 C 0.27823 0.3113 0.83882 0.0
H1824 H 0.3666 0.24523 0.8484 0.0
C1825 C 0.26678 0.32733 0.85516 0.0
C1826 C 0.29048 0.31482 0.86971 0.0
H1827 H 0.25763 0.32352 0.82895 0.0
H1828 H 0.23849 0.35025 0.8563 0.0
C1829 C 0.32691 0.28422 0.86583 0.0
C1830 C 0.08333 0.09644 1.09232 0.0
C1831 C 0.07181 0.07218 1.07781 0.0
H1832 H 0.07858 0.10604 0.11847 0.0
C1833 C 1.04187 1.03527 1.08168 0.0
H1834 H 0.10566 0.12513 1.09119 0.0
C1835 C 1.0255 1.02398 1.09796 0.0
C1836 C 1.03708 1.04813 0.11248 0.0
H1837 H 1.03042 1.01418 1.07185 0.0
H1838 H 1.00316 0.9953 1.09907 0.0
C1839 C 0.06708 0.08503 0.10862 0.0
C1840 C 0.76425 0.77208 0.84662 0.0
C1841 C 0.78842 0.78373 0.86115 0.0
H1842 H 0.75519 0.77626 0.82045 0.0
C1843 C 0.8259 0.81302 0.85733 0.0
H1844 H 0.73518 0.75019 0.84775 0.0
C1845 C 0.83781 0.82871 0.84104 0.0
C1846 C 0.81368 0.81703 0.82652 0.0
H1847 H 0.84694 0.82446 0.86721 0.0
H1848 H 0.86686 0.85064 0.83992 0.0
C1849 C 0.77621 0.78771 0.83033 0.0
C1850 C 0.78554 0.28358 0.35766 0.0
C1851 C 0.81837 0.31789 0.36169 0.0
H1852 H 0.74946 0.24177 0.33997 0.0
C1853 C 0.83916 0.33455 0.34719 0.0
H1854 H 0.76745 0.26798 0.36749 0.0
C1855 C 0.82809 0.31912 0.33073 0.0
C1856 C 0.79527 0.28477 0.32672 0.0
H1857 H 0.86461 0.36051 0.34846 0.0
H1858 H 0.84606 0.33478 0.3209 0.0
C1859 C 0.77479 0.26786 0.34123 0.0
C1860 C 0.76056 0.30318 0.84792 0.0
C1861 C 0.79205 0.30467 0.83474 0.0
H1862 H 0.74454 0.28836 0.8731 0.0
C1863 C 0.83571 0.28831 0.83989 0.0
H1864 H 0.7264 0.31474 0.84566 0.0
C1865 C 0.84654 0.27255 0.85628 0.0
C1866 C 0.81502 0.27134 0.86948 0.0
H1867 H 0.86254 0.28754 0.83107 0.0
H1868 H 0.88068 0.26097 0.85857 0.0
C1869 C 0.77139 0.28752 0.86429 0.0
C1870 C 0.75605 0.83073 0.35485 0.0
C1871 C 0.78431 0.82527 0.36896 0.0
H1872 H 0.74242 0.81977 0.32909 0.0
C1873 C 0.82482 0.801 0.36462 0.0
H1874 H 0.72429 0.84838 0.35634 0.0
C1875 C 0.83582 0.78427 0.34836 0.0
C1876 C 0.8075 0.78918 0.33429 0.0
H1877 H 0.84939 0.79497 0.37405 0.0
H1878 H 0.86766 0.76674 0.34691 0.0
C1879 C 0.76685 0.81352 0.33856 0.0
C1880 C 0.56081 0.56981 0.11411 0.0
C1881 C 0.58039 0.52728 0.11886 0.0
H1882 H 0.53193 0.61481 1.09586 0.0
C1883 C 0.58303 0.4977 0.10507 0.0
H1884 H 0.55659 0.59519 0.12334 0.0
C1885 C 0.56771 0.5093 1.08862 0.0
C1886 C 0.54833 0.55203 1.08391 0.0
H1887 H 0.59695 0.46439 0.10695 0.0
H1888 H 0.57127 0.48379 1.0794 0.0
C1889 C 0.54608 0.58156 1.09768 0.0
C1890 C 1.01862 0.59485 0.60556 0.0
C1891 C 1.01979 0.56451 0.61912 0.0
H1892 H 1.032 0.60966 0.5801 0.0
C1893 C 1.03844 0.52171 0.61424 0.0
H1894 H 1.0055 0.62843 0.60756 0.0
C1895 C 1.05372 0.51038 0.59789 0.0
C1896 C 1.05294 0.54063 0.58434 0.0
H1897 H 1.04133 0.49573 0.62331 0.0
H1898 H 0.06695 0.47682 0.59594 0.0
C1899 C 1.03445 0.58364 0.58917 0.0
C1900 C 0.07217 0.60291 1.09766 0.0
C1901 C 0.0733 0.57203 0.11104 0.0
H1902 H 0.05669 0.61806 1.07238 0.0
C1903 C 0.05616 0.52865 0.10612 0.0
H1904 H 0.08401 0.63692 1.09976 0.0
C1905 C 1.04016 0.51734 1.08981 0.0
C1906 C 1.03901 0.54814 1.07643 0.0
H1907 H 1.05506 0.50228 0.1151 0.0
H1908 H 1.02817 0.48337 1.08775 0.0
C1909 C 1.05586 0.59167 1.08135 0.0
C1910 C 0.51558 0.52101 0.59639 0.0
C1911 C 0.5372 0.53419 0.61128 0.0
H1912 H 0.51227 0.52053 0.56999 0.0
C1913 C 0.578 0.55915 0.60778 0.0
H1914 H 0.48441 0.50208 0.59721 0.0
C1915 C 0.59527 0.56928 0.59151 0.0
C1916 C 0.57338 0.55656 0.57662 0.0
H1917 H 0.59773 0.57116 0.61791 0.0
H1918 H 0.62644 0.58822 0.59069 0.0
C1919 C 0.53231 0.53202 0.58012 0.0
C1920 C 0.34349 0.15264 0.47396 0.0
C1921 C 0.34613 0.15251 0.45628 0.0
H1922 H 0.36407 0.13018 0.49837 0.0
C1923 C 0.38103 0.12014 0.45215 0.0
H1924 H 0.31888 0.1753 0.47917 0.0
C1925 C 0.40831 0.09272 0.46389 0.0
C1926 C 0.40577 0.0929 0.48156 0.0
H1927 H 0.388 0.11542 0.43949 0.0
H1928 H 0.43309 0.07031 0.45866 0.0
C1929 C 0.37092 0.12534 0.4857 0.0
C1930 C 0.22846 0.11841 0.74486 0.0
C1931 C 0.26517 0.14832 0.74049 0.0
H1932 H 0.17418 0.07088 0.73871 0.0
C1933 C 0.26891 0.14568 0.72286 0.0
H1934 H 0.22031 0.11601 0.75751 0.0
C1935 C 0.24113 0.11797 0.71134 0.0
C1936 C 0.20443 0.088 0.7157 0.0
H1937 H 0.29473 0.16642 0.71748 0.0
H1938 H 0.24913 0.12055 0.69868 0.0
C1939 C 0.20062 0.09079 0.73333 0.0
C1940 C 0.23954 0.99073 0.98622 0.0
C1941 C 0.20014 1.01785 0.98221 0.0
H1942 H 0.29534 0.94506 0.97967 0.0
C1943 C 0.19368 1.01284 0.96473 0.0
H1944 H 0.24988 0.99013 0.99873 0.0
C1945 C 0.22143 0.98587 0.95305 0.0
C1946 C 0.26085 0.95887 0.95702 0.0
H1947 H 0.16498 1.03027 0.95963 0.0
H1948 H 0.21087 0.98623 0.94057 0.0
C1949 C 0.26727 0.96355 0.97453 0.0
C1950 C 0.37183 0.9776 0.24512 0.0
C1951 C 0.33875 0.9436 0.24066 0.0
H1952 H 0.4228 1.02887 0.2391 0.0
C1953 C 0.33841 0.94238 0.22295 0.0
H1954 H 0.37698 0.98348 0.25785 0.0
C1955 C 0.36604 0.97001 0.21147 0.0
C1956 C 0.39906 1.00402 0.2159 0.0
H1957 H 0.31565 0.91834 0.21748 0.0
H1958 H 0.361 0.96396 0.19874 0.0
C1959 C 0.39951 1.00529 0.23362 0.0
C1960 C 0.7653 0.94821 0.71409 0.0
C1961 C 0.76338 0.94728 0.73177 0.0
H1962 H 0.7442 0.97231 0.68994 0.0
C1963 C 0.72877 0.97941 0.73633 0.0
H1964 H 0.78924 0.92559 0.70859 0.0
C1965 C 0.7012 1.00754 0.72492 0.0
C1966 C 0.70325 1.0086 0.70723 0.0
H1967 H 0.72226 0.98337 0.74906 0.0
H1968 H 0.67658 1.02947 0.73043 0.0
C1969 C 0.73778 0.97638 0.70268 0.0
C1970 C 0.86761 0.97576 0.49404 0.0
C1971 C 0.89944 1.01111 0.48992 0.0
H1972 H 0.81808 0.92349 0.48757 0.0
C1973 C 0.89849 1.01423 0.47222 0.0
H1974 H 0.86366 0.96822 0.50669 0.0
C1975 C 0.87069 0.987 0.4605 0.0
C1976 C 0.83871 0.95173 0.46464 0.0
H1977 H 0.92069 1.0391 0.46697 0.0
H1978 H 0.87473 0.99441 0.44784 0.0
C1979 C 0.83978 0.94868 0.48232 0.0
C1980 C 0.90805 0.09823 0.22473 0.0
C1981 C 0.90645 0.09821 0.20702 0.0
H1982 H 0.88642 0.12098 0.24895 0.0
C1983 C 0.87195 0.13066 0.20255 0.0
H1984 H 0.93238 0.0758 0.23023 0.0
C1985 C 0.84405 0.15809 0.21404 0.0
C1986 C 0.84564 0.1581 0.23175 0.0
H1987 H 0.86573 0.1354 0.18982 0.0
H1988 H 0.82006 0.18084 0.20857 0.0
C1989 C 0.88025 0.12577 0.23622 0.0
C1990 C 0.73604 0.11675 0.99481 0.0
C1991 C 0.70467 0.08108 0.99052 0.0
H1992 H 0.78462 0.16991 0.98857 0.0
C1993 C 0.7055 0.07812 0.97284 0.0
H1994 H 0.73983 0.12429 1.00749 0.0
C1995 C 0.73296 0.10569 0.96126 0.0
C1996 C 0.76447 0.14128 0.96557 0.0
H1997 H 0.68343 0.05321 0.96748 0.0
H1998 H 0.72886 0.09846 0.94857 0.0
C1999 C 0.76342 0.14433 0.98323 0.0
C2000 C 0.87044 0.62001 0.95177 0.0
C2001 C 0.83977 0.65626 0.95608 0.0
H2002 H 0.91953 0.56698 0.95801 0.0
C2003 C 0.84184 0.6598 0.97373 0.0
H2004 H 0.87359 0.61223 0.9391 0.0
C2005 C 0.86948 0.63223 0.98531 0.0
C2006 C 0.9001 0.59598 0.98103 0.0
H2007 H 0.82118 0.68577 0.97908 0.0
H2008 H 0.86649 0.64019 0.99797 0.0
C2009 C 0.89817 0.59241 0.96336 0.0
C2010 C 0.74284 0.60974 0.21063 0.0
C2011 C 0.70246 0.58428 0.21455 0.0
H2012 H 0.79926 0.65466 0.21722 0.0
C2013 C 0.69444 0.59176 0.2318 0.0
H2014 H 0.75434 0.60826 0.19829 0.0
C2015 C 0.72171 0.61963 0.24339 0.0
C2016 C 0.76212 0.64495 0.2395 0.0
H2017 H 0.6649 0.57564 0.23677 0.0
H2018 H 0.71008 0.62124 0.2557 0.0
C2019 C 0.77016 0.63771 0.22222 0.0
C2020 C 0.73208 0.4811 0.45302 0.0
C2021 C 0.76229 0.44438 0.45732 0.0
H2022 H 0.68369 0.53458 0.45909 0.0
C2023 C 0.75947 0.44066 0.475 0.0
H2024 H 0.72935 0.48928 0.44037 0.0
C2025 C 0.73171 0.46846 0.48653 0.0
C2026 C 0.70158 0.50532 0.48223 0.0
H2027 H 0.77968 0.41438 0.48041 0.0
H2028 H 0.73442 0.46029 0.49918 0.0
C2029 C 0.70436 0.50885 0.46455 0.0
C2030 C 0.83188 0.45256 0.72258 0.0
C2031 C 0.83901 0.44768 0.74002 0.0
H2032 H 0.8483 0.47969 0.69844 0.0
C2033 C 0.87805 0.475 0.74402 0.0
H2034 H 0.80396 0.43377 0.71749 0.0
C2035 C 0.905 0.50255 0.73237 0.0
C2036 C 0.89783 0.50773 0.71495 0.0
H2037 H 0.88884 0.47526 0.75648 0.0
H2038 H 0.9335 0.52036 0.73744 0.0
C2039 C 0.85883 0.48024 0.71092 0.0
C2040 C 0.23393 0.4955 0.23556 0.0
C2041 C 0.26448 0.45926 0.2312 0.0
H2042 H 0.18508 0.54866 0.22938 0.0
C2043 C 0.26242 0.45583 0.21355 0.0
H2044 H 0.23064 0.50303 0.24825 0.0
C2045 C 0.23497 0.48368 0.202 0.0
C2046 C 0.20451 0.51994 0.20636 0.0
H2047 H 0.28279 0.42974 0.20818 0.0
H2048 H 0.2379 0.47584 0.18933 0.0
C2049 C 0.20637 0.52327 0.22401 0.0
C2050 C 0.37867 0.46676 0.99369 0.0
C2051 C 0.40658 0.50503 0.9894 0.0
H2052 H 0.33233 0.41152 0.98762 0.0
C2053 C 0.40201 0.51023 0.97185 0.0
H2054 H 0.37783 0.45751 1.00628 0.0
C2055 C 0.37435 0.48215 0.96036 0.0
C2056 C 0.34627 0.44392 0.96468 0.0
H2057 H 0.42092 0.5376 0.96653 0.0
H2058 H 0.37516 0.49141 0.94778 0.0
C2059 C 0.35091 0.4389 0.98223 0.0
C2060 C 0.36852 0.6218 0.70174 0.0
C2061 C 0.40253 0.58853 0.70603 0.0
H2062 H 0.31736 0.67274 0.70802 0.0
C2063 C 0.40384 0.58777 0.72374 0.0
H2064 H 0.36259 0.62733 0.68903 0.0
C2065 C 0.37629 0.61517 0.73536 0.0
C2066 C 0.34225 0.64837 0.7311 0.0
H2067 H 0.42785 0.56482 0.72912 0.0
H2068 H 0.38239 0.60976 0.74806 0.0
C2069 C 0.3409 0.64923 0.71337 0.0
C2070 C 0.22175 0.62658 0.49407 0.0
C2071 C 0.19381 0.58815 0.48983 0.0
H2072 H 0.26762 0.68204 0.48791 0.0
C2073 C 0.19801 0.58284 0.47227 0.0
H2074 H 0.22281 0.63607 0.50664 0.0
C2075 C 0.2254 0.61082 0.46075 0.0
C2076 C 0.25352 0.64919 0.46503 0.0
H2077 H 0.17891 0.55551 0.46695 0.0
H2078 H 0.22419 0.60148 0.44817 0.0
C2079 C 0.24915 0.65442 0.48257 0.0
C2080 C 0.25493 0.20263 0.30942 0.0
C2081 C 0.28996 0.18798 0.31966 0.0
H2082 H 0.21667 0.18689 0.28828 0.0
C2083 C 0.32482 0.16174 0.31301 0.0
H2084 H 0.22913 0.22547 0.31378 0.0
C2085 C 0.31786 0.14012 0.29835 0.0
C2086 C 0.27557 0.14387 0.29064 0.0
H2087 H 0.35373 0.15138 0.32013 0.0
H2088 H 0.34178 0.11415 0.295 0.0
C2089 C 0.24799 0.18078 0.29473 0.0
C2090 C 0.40821 0.07215 0.64203 0.0
C2091 C 0.40213 1.03116 0.65029 0.0
H2092 H 0.41837 0.10257 0.6192 0.0
C2093 C 0.4254 0.99323 0.64424 0.0
H2094 H 0.39632 0.1037 0.64697 0.0
C2095 C 0.44078 0.99305 0.62839 0.0
C2096 C 0.43324 1.03067 0.61851 0.0
H2097 H 0.42636 0.96154 0.65059 0.0
H2098 H 0.45373 0.96185 0.62344 0.0
C2099 C 0.42193 0.0717 0.62599 0.0
C2100 C 0.28096 0.95796 0.79849 0.0
C2101 C 0.32246 0.95112 0.79061 0.0
H2102 H 0.2471 0.95377 0.82087 0.0
C2103 C 0.34884 0.91405 0.79548 0.0
H2104 H 0.25745 0.98364 0.79451 0.0
C2105 C 0.34323 0.89684 0.81098 0.0
C2106 C 0.30977 0.91521 0.82104 0.0
H2107 H 0.37918 0.90519 0.78892 0.0
H2108 H 0.36898 0.87458 0.81577 0.0
C2109 C 0.27499 0.94067 0.81389 0.0
C2110 C 0.38366 1.03221 1.05709 0.0
C2111 C 0.39507 0.07086 1.0482 0.0
H2112 H 0.38388 1.00146 1.08013 0.0
C2113 C 0.43196 0.09689 1.05358 0.0
H2114 H 0.35685 1.00986 1.05319 0.0
C2115 C 0.44758 0.09222 1.0694 0.0
C2116 C 0.42732 0.06054 1.07967 0.0
H2117 H 0.44375 0.12524 1.04656 0.0
H2118 H 0.47149 0.11663 1.07406 0.0
C2119 C 0.39923 1.02742 1.07283 0.0
C2120 C 0.83255 0.15913 0.80776 0.0
C2121 C 0.79472 0.13279 0.80335 0.0
H2122 H 0.87075 0.18686 0.82727 0.0
C2123 C 0.75763 0.13304 0.81396 0.0
H2124 H 0.86071 0.16421 0.79973 0.0
C2125 C 0.76443 0.14403 0.83014 0.0
C2126 C 0.80724 0.1587 0.83542 0.0
H2127 H 0.72565 0.118 0.81056 0.0
H2128 H 0.73787 0.13592 0.83857 0.0
C2129 C 0.83886 0.17172 0.82377 0.0
C2130 C 0.89621 1.02908 0.64786 0.0
C2131 C 0.90347 0.06959 0.65631 0.0
H2132 H 0.90078 0.9968 0.62516 0.0
C2133 C 0.94039 0.09645 0.65167 0.0
H2134 H 0.87041 1.00541 0.65152 0.0
C2135 C 0.95785 0.09179 0.63617 0.0
C2136 C 0.93974 0.05896 0.62577 0.0
H2137 H 0.9495 0.12605 0.65859 0.0
H2138 H 0.98029 0.11764 0.63167 0.0
C2139 C 0.91384 1.02407 0.63247 0.0
C2140 C 0.88074 0.06645 0.36495 0.0
C2141 C 0.84805 0.08621 0.37513 0.0
H2142 H 0.90033 0.0558 0.34037 0.0
C2143 C 0.82561 0.12518 0.36955 0.0
H2144 H 0.90194 1.03904 0.36907 0.0
C2145 C 0.8274 0.13669 0.35334 0.0
C2146 C 0.85118 0.10928 0.34257 0.0
H2147 H 0.8015 0.14321 0.37688 0.0
H2148 H 0.80495 0.16282 0.3489 0.0
C2149 C 0.88078 0.07653 0.34853 0.0
C2150 C 0.70773 0.07101 0.14731 0.0
C2151 C 0.70325 1.03086 0.15614 0.0
H2152 H 0.70138 0.10066 0.12426 0.0
C2153 C 0.66761 1.00172 0.15187 0.0
H2154 H 0.73216 0.09647 0.15072 0.0
C2155 C 0.64951 1.00395 0.13633 0.0
C2156 C 0.66594 1.03641 0.12549 0.0
H2157 H 0.66039 0.97231 0.15912 0.0
H2158 H 0.628 0.97675 0.1322 0.0
C2159 C 0.68986 0.07339 0.13183 0.0
C2160 C 0.81508 0.45995 0.89835 0.0
C2161 C 0.77285 0.4559 0.90596 0.0
H2162 H 0.85131 0.44847 0.87675 0.0
C2163 C 0.74547 0.41889 0.90177 0.0
H2164 H 0.83875 0.48614 0.90175 0.0
C2165 C 0.75274 0.39686 0.88714 0.0
C2166 C 0.7879 0.41139 0.87706 0.0
H2167 H 0.71416 0.41265 0.90812 0.0
H2168 H 0.72711 0.37387 0.88271 0.0
C2169 C 0.82241 0.43805 0.88378 0.0
C2170 C 0.94822 0.50588 0.12737 0.0
C2171 C 0.92724 0.5379 0.11736 0.0
H2172 H 0.94649 0.47242 0.15014 0.0
C2173 C 0.89936 0.57064 0.12446 0.0
H2174 H 0.97181 0.48161 0.12246 0.0
C2175 C 0.88494 0.56537 0.14028 0.0
C2176 C 0.89737 0.52664 0.14901 0.0
H2177 H 0.88345 0.59674 0.11732 0.0
H2178 H 0.8583 0.58753 0.1444 0.0
C2179 C 0.93391 0.50083 0.14328 0.0
C2180 C 0.83366 0.67672 0.40027 0.0
C2181 C 0.80811 0.63882 0.40477 0.0
H2182 H 0.8551 0.71677 0.38043 0.0
C2183 C 0.76878 0.62923 0.39576 0.0
H2184 H 0.86195 0.68779 0.40759 0.0
C2185 C 0.76455 0.64603 0.3802 0.0
C2186 C 0.79872 0.67369 0.37393 0.0
H2187 H 0.74593 0.60248 0.3992 0.0
H2188 H 0.73872 0.63149 0.37253 0.0
C2189 C 0.82974 0.69342 0.38466 0.0
C2190 C 0.83488 0.7605 0.58246 0.0
C2191 C 0.78879 0.77119 0.58056 0.0
H2192 H 0.88707 0.7426 0.59892 0.0
C2193 C 0.76514 0.78827 0.59391 0.0
H2194 H 0.85482 0.74804 0.57251 0.0
C2195 C 0.78378 0.78445 0.60932 0.0
C2196 C 0.82654 0.76457 0.61139 0.0
H2197 H 0.73024 0.79894 0.59274 0.0
H2198 H 0.7628 0.79205 0.61964 0.0
C2199 C 0.85363 0.75723 0.5978 0.0
C2200 C 0.51397 0.50568 0.37011 0.0
C2201 C 0.51824 0.55289 0.37046 0.0
H2202 H 0.50272 0.44813 0.35521 0.0
C2203 C 0.53335 0.57475 0.35646 0.0
H2204 H 0.50438 0.48691 0.38072 0.0
C2205 C 0.5302 0.55274 0.34165 0.0
C2206 C 0.51397 0.50829 0.34103 0.0
H2207 H 0.54003 0.61064 0.35653 0.0
H2208 H 0.53365 0.57267 0.33082 0.0
C2209 C 0.51253 0.4833 0.35537 0.0
C2210 C 0.42564 0.50587 0.13077 0.0
C2211 C 0.44289 0.54697 0.12503 0.0
H2212 H 0.38454 0.47468 0.14856 0.0
C2213 C 0.44901 0.58214 0.13615 0.0
H2214 H 0.42311 0.47638 0.12317 0.0
C2215 C 0.42452 0.58177 0.15045 0.0
C2216 C 0.39464 0.5458 0.15353 0.0
H2217 H 0.46622 0.61285 0.13272 0.0
H2218 H 0.42329 0.61278 0.15726 0.0
C2219 C 0.40273 0.50503 0.14538 0.0
C2220 C 0.23621 0.68163 0.87791 0.0
C2221 C 0.2746 0.678 0.86807 0.0
H2222 H 0.20558 0.66205 0.8998 0.0
C2223 C 0.31661 0.6703 0.87569 0.0
H2224 H 0.20389 0.69208 0.87301 0.0
C2225 C 0.3181 0.65606 0.8917 0.0
C2226 C 0.27758 0.6456 0.8997 0.0
H2227 H 0.34799 0.66991 0.86908 0.0
H2228 H 0.35053 0.64643 0.89672 0.0
C2229 C 0.23752 0.66521 0.89363 0.0
C2230 C 0.1453 0.49875 0.63606 0.0
C2231 C 0.16045 0.53354 0.62596 0.0
H2232 H 0.15933 0.46139 0.65747 0.0
C2233 C 0.18656 0.56827 0.63275 0.0
H2234 H 0.12278 0.4729 0.6315 0.0
C2235 C 0.20736 0.56167 0.64759 0.0
C2236 C 0.20267 0.51997 0.65546 0.0
H2237 H 0.19741 0.59685 0.62567 0.0
H2238 H 0.2332 0.58557 0.65113 0.0
C2239 C 0.16609 0.49228 0.65099 0.0
loop_
_geom_bond_atom_site_label_1
_geom_bond_atom_site_label_2
_geom_bond_distance
_geom_bond_site_symmetry_2
_ccdc_geom_bond_type
C0 Eu1 2.835 . S
C0 C2 1.500 . S
C0 O20 1.257 . S
C0 O21 1.260 . S
Eu1 C0 2.835 . S
Eu1 O20 2.473 . S
Eu1 O21 2.480 . S
Eu1 O22 2.430 . S
Eu1 O23 2.670 . S
Eu1 O24 2.394 . S
Eu1 O29 2.355 . S
Eu1 O31 2.374 . S
C2 C0 1.500 . S
C2 C3 1.377 . S
C2 C7 1.377 . S
C3 C2 1.377 . S
C3 C4 1.395 . S
C3 H32 0.931 . S
C4 C3 1.395 . S
C4 C5 1.383 . S
C4 H33 0.931 . S
C5 C4 1.383 . S
C5 C6 1.394 . S
C6 C5 1.394 . S
C6 C7 1.378 . S
C6 H34 0.931 . S
C7 C2 1.377 . S
C7 C6 1.378 . S
C7 H35 0.931 . S
C8 O22 1.259 . S
C8 O23 1.270 . S
C9 O24 1.251 . S
C9 O25 1.251 . S
C10 Eu11 2.835 . S
C10 C12 1.500 . S
C10 O26 1.257 . S
C10 O27 1.260 . S
Eu11 C10 2.835 . S
Eu11 O23 2.355 . S
Eu11 O25 2.374 . S
Eu11 O26 2.473 . S
Eu11 O27 2.480 . S
Eu11 O28 2.430 . S
Eu11 O29 2.670 . S
Eu11 O30 2.394 . S
C12 C10 1.500 . S
C12 C13 1.377 . S
C12 C17 1.377 . S
C13 C12 1.377 . S
C13 C14 1.395 . S
C13 H36 0.931 . S
C14 C13 1.395 . S
C14 C15 1.383 . S
C14 H37 0.931 . S
C15 C14 1.383 . S
C15 C16 1.394 . S
C16 C15 1.394 . S
C16 C17 1.378 . S
C16 H38 0.931 . S
C17 C12 1.377 . S
C17 C16 1.378 . S
C17 H39 0.931 . S
C18 O28 1.259 . S
C18 O29 1.270 . S
C19 O30 1.251 . S
C19 O31 1.251 . S
O20 C0 1.257 . S
O20 Eu1 2.473 . S
O21 C0 1.260 . S
O21 Eu1 2.480 . S
O22 Eu1 2.430 . S
O22 C8 1.259 . S
O23 Eu1 2.670 . S
O23 C8 1.270 . S
O23 Eu11 2.355 . S
O24 Eu1 2.394 . S
O24 C9 1.251 . S
O25 C9 1.251 . S
O25 Eu11 2.374 . S
O26 C10 1.257 . S
O26 Eu11 2.473 . S
O27 C10 1.260 . S
O27 Eu11 2.480 . S
O28 Eu11 2.430 . S
O28 C18 1.259 . S
O29 Eu1 2.355 . S
O29 Eu11 2.670 . S
O29 C18 1.270 . S
O30 Eu11 2.394 . S
O30 C19 1.251 . S
O31 Eu1 2.374 . S
O31 C19 1.251 . S
H32 C3 0.931 . S
H33 C4 0.931 . S
H34 C6 0.931 . S
H35 C7 0.931 . S
H36 C13 0.931 . S
H37 C14 0.931 . S
H38 C16 0.931 . S
H39 C17 0.931 . S
C40 Eu41 2.835 . S
C40 C42 1.500 . S
C40 O60 1.257 . S
C40 O61 1.260 . S
Eu41 C40 2.835 . S
Eu41 O60 2.473 . S
Eu41 O61 2.480 . S
Eu41 O62 2.430 . S
Eu41 O63 2.670 . S
Eu41 O64 2.394 . S
Eu41 O69 2.355 . S
Eu41 O71 2.374 . S
C42 C40 1.500 . S
C42 C43 1.377 . S
C42 C47 1.377 1_565 S
C43 C42 1.377 . S
C43 C44 1.395 . S
C43 H72 0.931 . S
C44 C43 1.395 . S
C44 C45 1.383 . S
C44 H73 0.931 . S
C45 C44 1.383 . S
C45 C46 1.394 1_565 S
C46 C45 1.394 1_545 S
C46 C47 1.378 . S
C46 H74 0.931 . S
C47 C42 1.377 1_545 S
C47 C46 1.378 . S
C47 H75 0.931 . S
C48 O62 1.259 . S
C48 O63 1.270 . S
C49 O64 1.251 . S
C49 O65 1.251 1_455 S
C50 Eu51 2.835 . S
C50 C52 1.500 . S
C50 O66 1.257 . S
C50 O67 1.260 . S
Eu51 C50 2.835 . S
Eu51 O63 2.355 1_655 S
Eu51 O65 2.374 . S
Eu51 O66 2.473 . S
Eu51 O67 2.480 . S
Eu51 O68 2.430 1_665 S
Eu51 O69 2.670 1_655 S
Eu51 O70 2.394 1_655 S
C52 C50 1.500 . S
C52 C53 1.377 . S
C52 C57 1.377 . S
C53 C52 1.377 . S
C53 C54 1.395 . S
C53 H76 0.931 . S
C54 C53 1.395 . S
C54 C55 1.383 . S
C54 H77 0.931 . S
C55 C54 1.383 . S
C55 C56 1.394 . S
C56 C55 1.394 . S
C56 C57 1.378 . S
C56 H78 0.931 . S
C57 C52 1.377 . S
C57 C56 1.378 . S
C57 H79 0.931 . S
C58 O68 1.259 . S
C58 O69 1.270 1_545 S
C59 O70 1.251 . S
C59 O71 1.251 . S
O60 C40 1.257 . S
O60 Eu41 2.473 . S
O61 C40 1.260 . S
O61 Eu41 2.480 . S
O62 Eu41 2.430 . S
O62 C48 1.259 . S
O63 Eu41 2.670 . S
O63 C48 1.270 . S
O63 Eu51 2.355 1_455 S
O64 Eu41 2.394 . S
O64 C49 1.251 . S
O65 C49 1.251 1_655 S
O65 Eu51 2.374 . S
O66 C50 1.257 . S
O66 Eu51 2.473 . S
O67 C50 1.260 . S
O67 Eu51 2.480 . S
O68 Eu51 2.430 1_445 S
O68 C58 1.259 . S
O69 Eu41 2.355 . S
O69 Eu51 2.670 1_455 S
O69 C58 1.270 1_565 S
O70 Eu51 2.394 1_455 S
O70 C59 1.251 . S
O71 Eu41 2.374 . S
O71 C59 1.251 . S
H72 C43 0.931 . S
H73 C44 0.931 . S
H74 C46 0.931 . S
H75 C47 0.931 . S
H76 C53 0.931 . S
H77 C54 0.931 . S
H78 C56 0.931 . S
H79 C57 0.931 . S
C80 Eu81 2.835 . S
C80 C82 1.500 . S
C80 O100 1.257 . S
C80 O101 1.260 . S
Eu81 C80 2.835 . S
Eu81 O100 2.473 . S
Eu81 O101 2.480 . S
Eu81 O102 2.430 . S
Eu81 O103 2.670 . S
Eu81 O104 2.394 . S
Eu81 O109 2.355 . S
Eu81 O111 2.374 . S
C82 C80 1.500 . S
C82 C83 1.377 . S
C82 C87 1.377 . S
C83 C82 1.377 . S
C83 C84 1.395 . S
C83 H112 0.931 . S
C84 C83 1.395 . S
C84 C85 1.383 . S
C84 H113 0.931 . S
C85 C84 1.383 . S
C85 C86 1.394 . S
C86 C85 1.394 . S
C86 C87 1.378 . S
C86 H114 0.931 . S
C87 C82 1.377 . S
C87 C86 1.378 . S
C87 H115 0.931 . S
C88 O102 1.259 . S
C88 O103 1.270 . S
C89 O104 1.251 . S
C89 O105 1.251 . S
C90 Eu91 2.835 . S
C90 C92 1.500 . S
C90 O106 1.257 . S
C90 O107 1.260 . S
Eu91 C90 2.835 . S
Eu91 O103 2.355 . S
Eu91 O105 2.374 . S
Eu91 O106 2.473 . S
Eu91 O107 2.480 . S
Eu91 O108 2.430 . S
Eu91 O109 2.670 . S
Eu91 O110 2.394 . S
C92 C90 1.500 . S
C92 C93 1.377 . S
C92 C97 1.377 . S
C93 C92 1.377 . S
C93 C94 1.395 . S
C93 H116 0.931 . S
C94 C93 1.395 . S
C94 C95 1.383 . S
C94 H117 0.931 . S
C95 C94 1.383 . S
C95 C96 1.394 . S
C96 C95 1.394 . S
C96 C97 1.378 . S
C96 H118 0.931 . S
C97 C92 1.377 . S
C97 C96 1.378 . S
C97 H119 0.931 . S
C98 O108 1.259 . S
C98 O109 1.270 . S
C99 O110 1.251 . S
C99 O111 1.251 . S
O100 C80 1.257 . S
O100 Eu81 2.473 . S
O101 C80 1.260 . S
O101 Eu81 2.480 . S
O102 Eu81 2.430 . S
O102 C88 1.259 . S
O103 Eu81 2.670 . S
O103 C88 1.270 . S
O103 Eu91 2.355 . S
O104 Eu81 2.394 . S
O104 C89 1.251 . S
O105 C89 1.251 . S
O105 Eu91 2.374 . S
O106 C90 1.257 . S
O106 Eu91 2.473 . S
O107 C90 1.260 . S
O107 Eu91 2.480 . S
O108 Eu91 2.430 . S
O108 C98 1.259 . S
O109 Eu81 2.355 . S
O109 Eu91 2.670 . S
O109 C98 1.270 . S
O110 Eu91 2.394 . S
O110 C99 1.251 . S
O111 Eu81 2.374 . S
O111 C99 1.251 . S
H112 C83 0.931 . S
H113 C84 0.931 . S
H114 C86 0.931 . S
H115 C87 0.931 . S
H116 C93 0.931 . S
H117 C94 0.931 . S
H118 C96 0.931 . S
H119 C97 0.931 . S
C120 Eu121 2.835 . S
C120 C122 1.500 . S
C120 O140 1.257 . S
C120 O141 1.260 . S
Eu121 C120 2.835 . S
Eu121 O140 2.473 . S
Eu121 O141 2.480 . S
Eu121 O142 2.430 . S
Eu121 O143 2.670 . S
Eu121 O144 2.394 . S
Eu121 O149 2.355 . S
Eu121 O151 2.374 . S
C122 C120 1.500 . S
C122 C123 1.377 . S
C122 C127 1.377 1_545 S
C123 C122 1.377 . S
C123 C124 1.395 . S
C123 H152 0.931 . S
C124 C123 1.395 . S
C124 C125 1.383 . S
C124 H153 0.931 . S
C125 C124 1.383 . S
C125 C126 1.394 1_545 S
C126 C125 1.394 1_565 S
C126 C127 1.378 . S
C126 H154 0.931 . S
C127 C122 1.377 1_565 S
C127 C126 1.378 . S
C127 H155 0.931 . S
C128 O142 1.259 . S
C128 O143 1.270 . S
C129 O144 1.251 . S
C129 O145 1.251 . S
C130 Eu131 2.835 . S
C130 C132 1.500 . S
C130 O146 1.257 . S
C130 O147 1.260 . S
Eu131 C130 2.835 . S
Eu131 O143 2.355 . S
Eu131 O145 2.374 . S
Eu131 O146 2.473 . S
Eu131 O147 2.480 . S
Eu131 O148 2.430 1_545 S
Eu131 O149 2.670 . S
Eu131 O150 2.394 . S
C132 C130 1.500 . S
C132 C133 1.377 . S
C132 C137 1.377 . S
C133 C132 1.377 . S
C133 C134 1.395 . S
C133 H156 0.931 . S
C134 C133 1.395 . S
C134 C135 1.383 . S
C134 H157 0.931 . S
C135 C134 1.383 . S
C135 C136 1.394 . S
C136 C135 1.394 . S
C136 C137 1.378 . S
C136 H158 0.931 . S
C137 C132 1.377 . S
C137 C136 1.378 . S
C137 H159 0.931 . S
C138 O148 1.259 . S
C138 O149 1.270 1_565 S
C139 O150 1.251 . S
C139 O151 1.251 . S
O140 C120 1.257 . S
O140 Eu121 2.473 . S
O141 C120 1.260 . S
O141 Eu121 2.480 . S
O142 Eu121 2.430 . S
O142 C128 1.259 . S
O143 Eu121 2.670 . S
O143 C128 1.270 . S
O143 Eu131 2.355 . S
O144 Eu121 2.394 . S
O144 C129 1.251 . S
O145 C129 1.251 . S
O145 Eu131 2.374 . S
O146 C130 1.257 . S
O146 Eu131 2.473 . S
O147 C130 1.260 . S
O147 Eu131 2.480 . S
O148 Eu131 2.430 1_565 S
O148 C138 1.259 . S
O149 Eu121 2.355 . S
O149 Eu131 2.670 . S
O149 C138 1.270 1_545 S
O150 Eu131 2.394 . S
O150 C139 1.251 . S
O151 Eu121 2.374 . S
O151 C139 1.251 . S
H152 C123 0.931 . S
H153 C124 0.931 . S
H154 C126 0.931 . S
H155 C127 0.931 . S
H156 C133 0.931 . S
H157 C134 0.931 . S
H158 C136 0.931 . S
H159 C137 0.931 . S
C160 Eu161 2.835 . S
C160 C162 1.500 . S
C160 O180 1.257 . S
C160 O181 1.260 . S
Eu161 C160 2.835 . S
Eu161 O180 2.473 . S
Eu161 O181 2.480 . S
Eu161 O182 2.430 . S
Eu161 O183 2.670 . S
Eu161 O184 2.394 . S
Eu161 O189 2.355 . S
Eu161 O191 2.374 . S
C162 C160 1.500 . S
C162 C163 1.377 . S
C162 C167 1.377 . S
C163 C162 1.377 . S
C163 C164 1.395 . S
C163 H192 0.931 . S
C164 C163 1.395 . S
C164 C165 1.383 . S
C164 H193 0.931 . S
C165 C164 1.383 . S
C165 C166 1.394 . S
C166 C165 1.394 . S
C166 C167 1.378 . S
C166 H194 0.931 . S
C167 C162 1.377 . S
C167 C166 1.378 . S
C167 H195 0.931 . S
C168 O182 1.259 . S
C168 O183 1.270 . S
C169 O184 1.251 . S
C169 O185 1.251 . S
C170 Eu171 2.835 . S
C170 C172 1.500 . S
C170 O186 1.257 . S
C170 O187 1.260 . S
Eu171 C170 2.835 . S
Eu171 O183 2.355 . S
Eu171 O185 2.374 . S
Eu171 O186 2.473 . S
Eu171 O187 2.480 . S
Eu171 O188 2.430 . S
Eu171 O189 2.670 . S
Eu171 O190 2.394 . S
C172 C170 1.500 . S
C172 C173 1.377 . S
C172 C177 1.377 . S
C173 C172 1.377 . S
C173 C174 1.395 . S
C173 H196 0.931 . S
C174 C173 1.395 . S
C174 C175 1.383 . S
C174 H197 0.931 . S
C175 C174 1.383 . S
C175 C176 1.394 . S
C176 C175 1.394 . S
C176 C177 1.378 . S
C176 H198 0.931 . S
C177 C172 1.377 . S
C177 C176 1.378 . S
C177 H199 0.931 . S
C178 O188 1.259 . S
C178 O189 1.270 . S
C179 O190 1.251 . S
C179 O191 1.251 . S
O180 C160 1.257 . S
O180 Eu161 2.473 . S
O181 C160 1.260 . S
O181 Eu161 2.480 . S
O182 Eu161 2.430 . S
O182 C168 1.259 . S
O183 Eu161 2.670 . S
O183 C168 1.270 . S
O183 Eu171 2.355 . S
O184 Eu161 2.394 . S
O184 C169 1.251 . S
O185 C169 1.251 . S
O185 Eu171 2.374 . S
O186 C170 1.257 . S
O186 Eu171 2.473 . S
O187 C170 1.260 . S
O187 Eu171 2.480 . S
O188 Eu171 2.430 . S
O188 C178 1.259 . S
O189 Eu161 2.355 . S
O189 Eu171 2.670 . S
O189 C178 1.270 . S
O190 Eu171 2.394 . S
O190 C179 1.251 . S
O191 Eu161 2.374 . S
O191 C179 1.251 . S
H192 C163 0.931 . S
H193 C164 0.931 . S
H194 C166 0.931 . S
H195 C167 0.931 . S
H196 C173 0.931 . S
H197 C174 0.931 . S
H198 C176 0.931 . S
H199 C177 0.931 . S
C200 Eu201 2.835 . S
C200 C202 1.500 . S
C200 O220 1.257 . S
C200 O221 1.260 . S
Eu201 C200 2.835 . S
Eu201 O220 2.473 . S
Eu201 O221 2.480 . S
Eu201 O222 2.430 . S
Eu201 O223 2.670 . S
Eu201 O224 2.394 . S
Eu201 O229 2.355 . S
Eu201 O231 2.374 . S
C202 C200 1.500 . S
C202 C203 1.377 . S
C202 C207 1.377 1_565 S
C203 C202 1.377 . S
C203 C204 1.395 . S
C203 H232 0.931 . S
C204 C203 1.395 . S
C204 C205 1.383 . S
C204 H233 0.931 . S
C205 C204 1.383 . S
C205 C206 1.394 1_565 S
C206 C205 1.394 1_545 S
C206 C207 1.378 . S
C206 H234 0.931 . S
C207 C202 1.377 1_545 S
C207 C206 1.378 . S
C207 H235 0.931 . S
C208 O222 1.259 . S
C208 O223 1.270 . S
C209 O224 1.251 . S
C209 O225 1.251 . S
C210 Eu211 2.835 . S
C210 C212 1.500 . S
C210 O226 1.257 . S
C210 O227 1.260 . S
Eu211 C210 2.835 . S
Eu211 O223 2.355 . S
Eu211 O225 2.374 . S
Eu211 O226 2.473 . S
Eu211 O227 2.480 . S
Eu211 O228 2.430 1_565 S
Eu211 O229 2.670 . S
Eu211 O230 2.394 . S
C212 C210 1.500 . S
C212 C213 1.377 . S
C212 C217 1.377 . S
C213 C212 1.377 . S
C213 C214 1.395 . S
C213 H236 0.931 . S
C214 C213 1.395 . S
C214 C215 1.383 . S
C214 H237 0.931 . S
C215 C214 1.383 . S
C215 C216 1.394 . S
C216 C215 1.394 . S
C216 C217 1.378 . S
C216 H238 0.931 . S
C217 C212 1.377 . S
C217 C216 1.378 . S
C217 H239 0.931 . S
C218 O228 1.259 . S
C218 O229 1.270 1_545 S
C219 O230 1.251 . S
C219 O231 1.251 . S
O220 C200 1.257 . S
O220 Eu201 2.473 . S
O221 C200 1.260 . S
O221 Eu201 2.480 . S
O222 Eu201 2.430 . S
O222 C208 1.259 . S
O223 Eu201 2.670 . S
O223 C208 1.270 . S
O223 Eu211 2.355 . S
O224 Eu201 2.394 . S
O224 C209 1.251 . S
O225 C209 1.251 . S
O225 Eu211 2.374 . S
O226 C210 1.257 . S
O226 Eu211 2.473 . S
O227 C210 1.260 . S
O227 Eu211 2.480 . S
O228 Eu211 2.430 1_545 S
O228 C218 1.259 . S
O229 Eu201 2.355 . S
O229 Eu211 2.670 . S
O229 C218 1.270 1_565 S
O230 Eu211 2.394 . S
O230 C219 1.251 . S
O231 Eu201 2.374 . S
O231 C219 1.251 . S
H232 C203 0.931 . S
H233 C204 0.931 . S
H234 C206 0.931 . S
H235 C207 0.931 . S
H236 C213 0.931 . S
H237 C214 0.931 . S
H238 C216 0.931 . S
H239 C217 0.931 . S
C240 Eu241 2.835 . S
C240 C242 1.500 . S
C240 O260 1.257 . S
C240 O261 1.260 . S
Eu241 C240 2.835 . S
Eu241 O260 2.473 . S
Eu241 O261 2.480 . S
Eu241 O262 2.430 . S
Eu241 O263 2.670 . S
Eu241 O264 2.394 . S
Eu241 O269 2.355 . S
Eu241 O271 2.374 . S
C242 C240 1.500 . S
C242 C243 1.377 . S
C242 C247 1.377 . S
C243 C242 1.377 . S
C243 C244 1.395 . S
C243 H272 0.931 . S
C244 C243 1.395 . S
C244 C245 1.383 . S
C244 H273 0.931 . S
C245 C244 1.383 . S
C245 C246 1.394 . S
C246 C245 1.394 . S
C246 C247 1.378 . S
C246 H274 0.931 . S
C247 C242 1.377 . S
C247 C246 1.378 . S
C247 H275 0.931 . S
C248 O262 1.259 . S
C248 O263 1.270 . S
C249 O264 1.251 . S
C249 O265 1.251 . S
C250 Eu251 2.835 . S
C250 C252 1.500 . S
C250 O266 1.257 . S
C250 O267 1.260 . S
Eu251 C250 2.835 . S
Eu251 O263 2.355 . S
Eu251 O265 2.374 . S
Eu251 O266 2.473 . S
Eu251 O267 2.480 . S
Eu251 O268 2.430 . S
Eu251 O269 2.670 . S
Eu251 O270 2.394 . S
C252 C250 1.500 . S
C252 C253 1.377 . S
C252 C257 1.377 . S
C253 C252 1.377 . S
C253 C254 1.395 . S
C253 H276 0.931 . S
C254 C253 1.395 . S
C254 C255 1.383 . S
C254 H277 0.931 . S
C255 C254 1.383 . S
C255 C256 1.394 . S
C256 C255 1.394 . S
C256 C257 1.378 . S
C256 H278 0.931 . S
C257 C252 1.377 . S
C257 C256 1.378 . S
C257 H279 0.931 . S
C258 O268 1.259 . S
C258 O269 1.270 . S
C259 O270 1.251 . S
C259 O271 1.251 . S
O260 C240 1.257 . S
O260 Eu241 2.473 . S
O261 C240 1.260 . S
O261 Eu241 2.480 . S
O262 Eu241 2.430 . S
O262 C248 1.259 . S
O263 Eu241 2.670 . S
O263 C248 1.270 . S
O263 Eu251 2.355 . S
O264 Eu241 2.394 . S
O264 C249 1.251 . S
O265 C249 1.251 . S
O265 Eu251 2.374 . S
O266 C250 1.257 . S
O266 Eu251 2.473 . S
O267 C250 1.260 . S
O267 Eu251 2.480 . S
O268 Eu251 2.430 . S
O268 C258 1.259 . S
O269 Eu241 2.355 . S
O269 Eu251 2.670 . S
O269 C258 1.270 . S
O270 Eu251 2.394 . S
O270 C259 1.251 . S
O271 Eu241 2.374 . S
O271 C259 1.251 . S
H272 C243 0.931 . S
H273 C244 0.931 . S
H274 C246 0.931 . S
H275 C247 0.931 . S
H276 C253 0.931 . S
H277 C254 0.931 . S
H278 C256 0.931 . S
H279 C257 0.931 . S
C280 Eu281 2.835 . S
C280 C282 1.500 . S
C280 O300 1.257 . S
C280 O301 1.260 . S
Eu281 C280 2.835 . S
Eu281 O300 2.473 . S
Eu281 O301 2.480 . S
Eu281 O302 2.430 . S
Eu281 O303 2.670 . S
Eu281 O304 2.394 . S
Eu281 O309 2.355 . S
Eu281 O311 2.374 . S
C282 C280 1.500 . S
C282 C283 1.377 . S
C282 C287 1.377 1_545 S
C283 C282 1.377 . S
C283 C284 1.395 . S
C283 H312 0.931 . S
C284 C283 1.395 . S
C284 C285 1.383 . S
C284 H313 0.931 . S
C285 C284 1.383 . S
C285 C286 1.394 1_545 S
C286 C285 1.394 1_565 S
C286 C287 1.378 . S
C286 H314 0.931 . S
C287 C282 1.377 1_565 S
C287 C286 1.378 . S
C287 H315 0.931 . S
C288 O302 1.259 . S
C288 O303 1.270 . S
C289 O304 1.251 . S
C289 O305 1.251 1_455 S
C290 Eu291 2.835 . S
C290 C292 1.500 . S
C290 O306 1.257 . S
C290 O307 1.260 . S
Eu291 C290 2.835 . S
Eu291 O303 2.355 1_655 S
Eu291 O305 2.374 . S
Eu291 O306 2.473 . S
Eu291 O307 2.480 . S
Eu291 O308 2.430 1_645 S
Eu291 O309 2.670 1_655 S
Eu291 O310 2.394 1_655 S
C292 C290 1.500 . S
C292 C293 1.377 . S
C292 C297 1.377 . S
C293 C292 1.377 . S
C293 C294 1.395 . S
C293 H316 0.931 . S
C294 C293 1.395 . S
C294 C295 1.383 . S
C294 H317 0.931 . S
C295 C294 1.383 . S
C295 C296 1.394 . S
C296 C295 1.394 . S
C296 C297 1.378 . S
C296 H318 0.931 . S
C297 C292 1.377 . S
C297 C296 1.378 . S
C297 H319 0.931 . S
C298 O308 1.259 . S
C298 O309 1.270 1_565 S
C299 O310 1.251 . S
C299 O311 1.251 . S
O300 C280 1.257 . S
O300 Eu281 2.473 . S
O301 C280 1.260 . S
O301 Eu281 2.480 . S
O302 Eu281 2.430 . S
O302 C288 1.259 . S
O303 Eu281 2.670 . S
O303 C288 1.270 . S
O303 Eu291 2.355 1_455 S
O304 Eu281 2.394 . S
O304 C289 1.251 . S
O305 C289 1.251 1_655 S
O305 Eu291 2.374 . S
O306 C290 1.257 . S
O306 Eu291 2.473 . S
O307 C290 1.260 . S
O307 Eu291 2.480 . S
O308 Eu291 2.430 1_465 S
O308 C298 1.259 . S
O309 Eu281 2.355 . S
O309 Eu291 2.670 1_455 S
O309 C298 1.270 1_545 S
O310 Eu291 2.394 1_455 S
O310 C299 1.251 . S
O311 Eu281 2.374 . S
O311 C299 1.251 . S
H312 C283 0.931 . S
H313 C284 0.931 . S
H314 C286 0.931 . S
H315 C287 0.931 . S
H316 C293 0.931 . S
H317 C294 0.931 . S
H318 C296 0.931 . S
H319 C297 0.931 . S
C320 Eu321 2.835 . S
C320 C322 1.500 . S
C320 O340 1.257 . S
C320 O341 1.260 . S
Eu321 C320 2.835 . S
Eu321 O340 2.473 . S
Eu321 O341 2.480 . S
Eu321 O342 2.430 . S
Eu321 O343 2.670 . S
Eu321 O344 2.394 . S
Eu321 O349 2.355 . S
Eu321 O351 2.374 . S
C322 C320 1.500 . S
C322 C323 1.377 . S
C322 C327 1.377 . S
C323 C322 1.377 . S
C323 C324 1.395 . S
C323 H352 0.931 . S
C324 C323 1.395 . S
C324 C325 1.383 . S
C324 H353 0.931 . S
C325 C324 1.383 . S
C325 C326 1.394 . S
C326 C325 1.394 . S
C326 C327 1.378 . S
C326 H354 0.931 . S
C327 C322 1.377 . S
C327 C326 1.378 . S
C327 H355 0.931 . S
C328 O342 1.259 . S
C328 O343 1.270 . S
C329 O344 1.251 . S
C329 O345 1.251 . S
C330 Eu331 2.835 . S
C330 C332 1.500 . S
C330 O346 1.257 . S
C330 O347 1.260 . S
Eu331 C330 2.835 . S
Eu331 O343 2.355 . S
Eu331 O345 2.374 . S
Eu331 O346 2.473 . S
Eu331 O347 2.480 . S
Eu331 O348 2.430 . S
Eu331 O349 2.670 . S
Eu331 O350 2.394 . S
C332 C330 1.500 . S
C332 C333 1.377 . S
C332 C337 1.377 . S
C333 C332 1.377 . S
C333 C334 1.395 . S
C333 H356 0.931 . S
C334 C333 1.395 . S
C334 C335 1.383 . S
C334 H357 0.931 . S
C335 C334 1.383 . S
C335 C336 1.394 . S
C336 C335 1.394 . S
C336 C337 1.378 . S
C336 H358 0.931 . S
C337 C332 1.377 . S
C337 C336 1.378 . S
C337 H359 0.931 . S
C338 O348 1.259 . S
C338 O349 1.270 . S
C339 O350 1.251 . S
C339 O351 1.251 . S
O340 C320 1.257 . S
O340 Eu321 2.473 . S
O341 C320 1.260 . S
O341 Eu321 2.480 . S
O342 Eu321 2.430 . S
O342 C328 1.259 . S
O343 Eu321 2.670 . S
O343 C328 1.270 . S
O343 Eu331 2.355 . S
O344 Eu321 2.394 . S
O344 C329 1.251 . S
O345 C329 1.251 . S
O345 Eu331 2.374 . S
O346 C330 1.257 . S
O346 Eu331 2.473 . S
O347 C330 1.260 . S
O347 Eu331 2.480 . S
O348 Eu331 2.430 . S
O348 C338 1.259 . S
O349 Eu321 2.355 . S
O349 Eu331 2.670 . S
O349 C338 1.270 . S
O350 Eu331 2.394 . S
O350 C339 1.251 . S
O351 Eu321 2.374 . S
O351 C339 1.251 . S
H352 C323 0.931 . S
H353 C324 0.931 . S
H354 C326 0.931 . S
H355 C327 0.931 . S
H356 C333 0.931 . S
H357 C334 0.931 . S
H358 C336 0.931 . S
H359 C337 0.931 . S
C360 Eu361 2.835 . S
C360 C362 1.500 . S
C360 O380 1.257 . S
C360 O381 1.260 . S
Eu361 C360 2.835 . S
Eu361 O380 2.473 . S
Eu361 O381 2.480 . S
Eu361 O382 2.430 1_445 S
Eu361 O383 2.670 1_455 S
Eu361 O384 2.394 1_455 S
Eu361 O389 2.355 1_455 S
Eu361 O391 2.374 . S
C362 C360 1.500 . S
C362 C363 1.377 . S
C362 C367 1.377 . S
C363 C362 1.377 . S
C363 C364 1.395 . S
C363 H392 0.931 . S
C364 C363 1.395 . S
C364 C365 1.383 . S
C364 H393 0.931 . S
C365 C364 1.383 . S
C365 C366 1.394 . S
C366 C365 1.394 . S
C366 C367 1.378 . S
C366 H394 0.931 . S
C367 C362 1.377 . S
C367 C366 1.378 . S
C367 H395 0.931 . S
C368 O382 1.259 . S
C368 O383 1.270 1_565 S
C369 O384 1.251 . S
C369 O385 1.251 . S
C370 Eu371 2.835 . S
C370 C372 1.500 . S
C370 O386 1.257 . S
C370 O387 1.260 . S
Eu371 C370 2.835 . S
Eu371 O383 2.355 . S
Eu371 O385 2.374 . S
Eu371 O386 2.473 . S
Eu371 O387 2.480 . S
Eu371 O388 2.430 . S
Eu371 O389 2.670 . S
Eu371 O390 2.394 . S
C372 C370 1.500 . S
C372 C373 1.377 . S
C372 C377 1.377 1_545 S
C373 C372 1.377 . S
C373 C374 1.395 . S
C373 H396 0.931 . S
C374 C373 1.395 . S
C374 C375 1.383 . S
C374 H397 0.931 . S
C375 C374 1.383 . S
C375 C376 1.394 1_545 S
C376 C375 1.394 1_565 S
C376 C377 1.378 . S
C376 H398 0.931 . S
C377 C372 1.377 1_565 S
C377 C376 1.378 . S
C377 H399 0.931 . S
C378 O388 1.259 . S
C378 O389 1.270 . S
C379 O390 1.251 . S
C379 O391 1.251 1_655 S
O380 C360 1.257 . S
O380 Eu361 2.473 . S
O381 C360 1.260 . S
O381 Eu361 2.480 . S
O382 Eu361 2.430 1_665 S
O382 C368 1.259 . S
O383 Eu361 2.670 1_655 S
O383 C368 1.270 1_545 S
O383 Eu371 2.355 . S
O384 Eu361 2.394 1_655 S
O384 C369 1.251 . S
O385 C369 1.251 . S
O385 Eu371 2.374 . S
O386 C370 1.257 . S
O386 Eu371 2.473 . S
O387 C370 1.260 . S
O387 Eu371 2.480 . S
O388 Eu371 2.430 . S
O388 C378 1.259 . S
O389 Eu361 2.355 1_655 S
O389 Eu371 2.670 . S
O389 C378 1.270 . S
O390 Eu371 2.394 . S
O390 C379 1.251 . S
O391 Eu361 2.374 . S
O391 C379 1.251 1_455 S
H392 C363 0.931 . S
H393 C364 0.931 . S
H394 C366 0.931 . S
H395 C367 0.931 . S
H396 C373 0.931 . S
H397 C374 0.931 . S
H398 C376 0.931 . S
H399 C377 0.931 . S
C400 Eu401 2.835 . S
C400 C402 1.500 . S
C400 O420 1.257 . S
C400 O421 1.260 . S
Eu401 C400 2.835 . S
Eu401 O420 2.473 . S
Eu401 O421 2.480 . S
Eu401 O422 2.430 . S
Eu401 O423 2.670 . S
Eu401 O424 2.394 . S
Eu401 O429 2.355 . S
Eu401 O431 2.374 . S
C402 C400 1.500 . S
C402 C403 1.377 . S
C402 C407 1.377 . S
C403 C402 1.377 . S
C403 C404 1.395 . S
C403 H432 0.931 . S
C404 C403 1.395 . S
C404 C405 1.383 . S
C404 H433 0.931 . S
C405 C404 1.383 . S
C405 C406 1.394 . S
C406 C405 1.394 . S
C406 C407 1.378 . S
C406 H434 0.931 . S
C407 C402 1.377 . S
C407 C406 1.378 . S
C407 H435 0.931 . S
C408 O422 1.259 . S
C408 O423 1.270 . S
C409 O424 1.251 . S
C409 O425 1.251 . S
C410 Eu411 2.835 . S
C410 C412 1.500 . S
C410 O426 1.257 . S
C410 O427 1.260 . S
Eu411 C410 2.835 . S
Eu411 O423 2.355 . S
Eu411 O425 2.374 . S
Eu411 O426 2.473 . S
Eu411 O427 2.480 . S
Eu411 O428 2.430 . S
Eu411 O429 2.670 . S
Eu411 O430 2.394 . S
C412 C410 1.500 . S
C412 C413 1.377 . S
C412 C417 1.377 . S
C413 C412 1.377 . S
C413 C414 1.395 . S
C413 H436 0.931 . S
C414 C413 1.395 . S
C414 C415 1.383 . S
C414 H437 0.931 . S
C415 C414 1.383 . S
C415 C416 1.394 . S
C416 C415 1.394 . S
C416 C417 1.378 . S
C416 H438 0.931 . S
C417 C412 1.377 . S
C417 C416 1.378 . S
C417 H439 0.931 . S
C418 O428 1.259 . S
C418 O429 1.270 . S
C419 O430 1.251 . S
C419 O431 1.251 . S
O420 C400 1.257 . S
O420 Eu401 2.473 . S
O421 C400 1.260 . S
O421 Eu401 2.480 . S
O422 Eu401 2.430 . S
O422 C408 1.259 . S
O423 Eu401 2.670 . S
O423 C408 1.270 . S
O423 Eu411 2.355 . S
O424 Eu401 2.394 . S
O424 C409 1.251 . S
O425 C409 1.251 . S
O425 Eu411 2.374 . S
O426 C410 1.257 . S
O426 Eu411 2.473 . S
O427 C410 1.260 . S
O427 Eu411 2.480 . S
O428 Eu411 2.430 . S
O428 C418 1.259 . S
O429 Eu401 2.355 . S
O429 Eu411 2.670 . S
O429 C418 1.270 . S
O430 Eu411 2.394 . S
O430 C419 1.251 . S
O431 Eu401 2.374 . S
O431 C419 1.251 . S
H432 C403 0.931 . S
H433 C404 0.931 . S
H434 C406 0.931 . S
H435 C407 0.931 . S
H436 C413 0.931 . S
H437 C414 0.931 . S
H438 C416 0.931 . S
H439 C417 0.931 . S
C440 Eu441 2.835 . S
C440 C442 1.500 . S
C440 O460 1.257 . S
C440 O461 1.260 . S
Eu441 C440 2.835 . S
Eu441 O460 2.473 . S
Eu441 O461 2.480 . S
Eu441 O462 2.430 1_565 S
Eu441 O463 2.670 . S
Eu441 O464 2.394 . S
Eu441 O469 2.355 . S
Eu441 O471 2.374 . S
C442 C440 1.500 . S
C442 C443 1.377 . S
C442 C447 1.377 . S
C443 C442 1.377 . S
C443 C444 1.395 . S
C443 H472 0.931 . S
C444 C443 1.395 . S
C444 C445 1.383 . S
C444 H473 0.931 . S
C445 C444 1.383 . S
C445 C446 1.394 . S
C446 C445 1.394 . S
C446 C447 1.378 . S
C446 H474 0.931 . S
C447 C442 1.377 . S
C447 C446 1.378 . S
C447 H475 0.931 . S
C448 O462 1.259 . S
C448 O463 1.270 1_545 S
C449 O464 1.251 . S
C449 O465 1.251 . S
C450 Eu451 2.835 . S
C450 C452 1.500 . S
C450 O466 1.257 . S
C450 O467 1.260 . S
Eu451 C450 2.835 . S
Eu451 O463 2.355 . S
Eu451 O465 2.374 . S
Eu451 O466 2.473 . S
Eu451 O467 2.480 . S
Eu451 O468 2.430 . S
Eu451 O469 2.670 . S
Eu451 O470 2.394 . S
C452 C450 1.500 . S
C452 C453 1.377 . S
C452 C457 1.377 1_565 S
C453 C452 1.377 . S
C453 C454 1.395 . S
C453 H476 0.931 . S
C454 C453 1.395 . S
C454 C455 1.383 . S
C454 H477 0.931 . S
C455 C454 1.383 . S
C455 C456 1.394 1_565 S
C456 C455 1.394 1_545 S
C456 C457 1.378 . S
C456 H478 0.931 . S
C457 C452 1.377 1_545 S
C457 C456 1.378 . S
C457 H479 0.931 . S
C458 O468 1.259 . S
C458 O469 1.270 . S
C459 O470 1.251 . S
C459 O471 1.251 . S
O460 C440 1.257 . S
O460 Eu441 2.473 . S
O461 C440 1.260 . S
O461 Eu441 2.480 . S
O462 Eu441 2.430 1_545 S
O462 C448 1.259 . S
O463 Eu441 2.670 . S
O463 C448 1.270 1_565 S
O463 Eu451 2.355 . S
O464 Eu441 2.394 . S
O464 C449 1.251 . S
O465 C449 1.251 . S
O465 Eu451 2.374 . S
O466 C450 1.257 . S
O466 Eu451 2.473 . S
O467 C450 1.260 . S
O467 Eu451 2.480 . S
O468 Eu451 2.430 . S
O468 C458 1.259 . S
O469 Eu441 2.355 . S
O469 Eu451 2.670 . S
O469 C458 1.270 . S
O470 Eu451 2.394 . S
O470 C459 1.251 . S
O471 Eu441 2.374 . S
O471 C459 1.251 . S
H472 C443 0.931 . S
H473 C444 0.931 . S
H474 C446 0.931 . S
H475 C447 0.931 . S
H476 C453 0.931 . S
H477 C454 0.931 . S
H478 C456 0.931 . S
H479 C457 0.931 . S
C480 Eu481 2.835 . S
C480 C482 1.500 . S
C480 O500 1.257 . S
C480 O501 1.260 . S
Eu481 C480 2.835 . S
Eu481 O500 2.473 . S
Eu481 O501 2.480 . S
Eu481 O502 2.430 . S
Eu481 O503 2.670 . S
Eu481 O504 2.394 . S
Eu481 O509 2.355 . S
Eu481 O511 2.374 . S
C482 C480 1.500 . S
C482 C483 1.377 . S
C482 C487 1.377 . S
C483 C482 1.377 . S
C483 C484 1.395 . S
C483 H512 0.931 . S
C484 C483 1.395 . S
C484 C485 1.383 . S
C484 H513 0.931 . S
C485 C484 1.383 . S
C485 C486 1.394 . S
C486 C485 1.394 . S
C486 C487 1.378 . S
C486 H514 0.931 . S
C487 C482 1.377 . S
C487 C486 1.378 . S
C487 H515 0.931 . S
C488 O502 1.259 . S
C488 O503 1.270 . S
C489 O504 1.251 . S
C489 O505 1.251 . S
C490 Eu491 2.835 . S
C490 C492 1.500 . S
C490 O506 1.257 . S
C490 O507 1.260 . S
Eu491 C490 2.835 . S
Eu491 O503 2.355 . S
Eu491 O505 2.374 . S
Eu491 O506 2.473 . S
Eu491 O507 2.480 . S
Eu491 O508 2.430 . S
Eu491 O509 2.670 . S
Eu491 O510 2.394 . S
C492 C490 1.500 . S
C492 C493 1.377 . S
C492 C497 1.377 . S
C493 C492 1.377 . S
C493 C494 1.395 . S
C493 H516 0.931 . S
C494 C493 1.395 . S
C494 C495 1.383 . S
C494 H517 0.931 . S
C495 C494 1.383 . S
C495 C496 1.394 . S
C496 C495 1.394 . S
C496 C497 1.378 . S
C496 H518 0.931 . S
C497 C492 1.377 . S
C497 C496 1.378 . S
C497 H519 0.931 . S
C498 O508 1.259 . S
C498 O509 1.270 . S
C499 O510 1.251 . S
C499 O511 1.251 . S
O500 C480 1.257 . S
O500 Eu481 2.473 . S
O501 C480 1.260 . S
O501 Eu481 2.480 . S
O502 Eu481 2.430 . S
O502 C488 1.259 . S
O503 Eu481 2.670 . S
O503 C488 1.270 . S
O503 Eu491 2.355 . S
O504 Eu481 2.394 . S
O504 C489 1.251 . S
O505 C489 1.251 . S
O505 Eu491 2.374 . S
O506 C490 1.257 . S
O506 Eu491 2.473 . S
O507 C490 1.260 . S
O507 Eu491 2.480 . S
O508 Eu491 2.430 . S
O508 C498 1.259 . S
O509 Eu481 2.355 . S
O509 Eu491 2.670 . S
O509 C498 1.270 . S
O510 Eu491 2.394 . S
O510 C499 1.251 . S
O511 Eu481 2.374 . S
O511 C499 1.251 . S
H512 C483 0.931 . S
H513 C484 0.931 . S
H514 C486 0.931 . S
H515 C487 0.931 . S
H516 C493 0.931 . S
H517 C494 0.931 . S
H518 C496 0.931 . S
H519 C497 0.931 . S
C520 Eu521 2.835 . S
C520 C522 1.500 . S
C520 O540 1.257 . S
C520 O541 1.260 . S
Eu521 C520 2.835 . S
Eu521 O540 2.473 . S
Eu521 O541 2.480 . S
Eu521 O542 2.430 1_545 S
Eu521 O543 2.670 . S
Eu521 O544 2.394 . S
Eu521 O549 2.355 . S
Eu521 O551 2.374 . S
C522 C520 1.500 . S
C522 C523 1.377 . S
C522 C527 1.377 . S
C523 C522 1.377 . S
C523 C524 1.395 . S
C523 H552 0.931 . S
C524 C523 1.395 . S
C524 C525 1.383 . S
C524 H553 0.931 . S
C525 C524 1.383 . S
C525 C526 1.394 . S
C526 C525 1.394 . S
C526 C527 1.378 . S
C526 H554 0.931 . S
C527 C522 1.377 . S
C527 C526 1.378 . S
C527 H555 0.931 . S
C528 O542 1.259 . S
C528 O543 1.270 1_565 S
C529 O544 1.251 . S
C529 O545 1.251 . S
C530 Eu531 2.835 . S
C530 C532 1.500 . S
C530 O546 1.257 . S
C530 O547 1.260 . S
Eu531 C530 2.835 . S
Eu531 O543 2.355 . S
Eu531 O545 2.374 . S
Eu531 O546 2.473 . S
Eu531 O547 2.480 . S
Eu531 O548 2.430 . S
Eu531 O549 2.670 . S
Eu531 O550 2.394 . S
C532 C530 1.500 . S
C532 C533 1.377 . S
C532 C537 1.377 1_545 S
C533 C532 1.377 . S
C533 C534 1.395 . S
C533 H556 0.931 . S
C534 C533 1.395 . S
C534 C535 1.383 . S
C534 H557 0.931 . S
C535 C534 1.383 . S
C535 C536 1.394 1_545 S
C536 C535 1.394 1_565 S
C536 C537 1.378 . S
C536 H558 0.931 . S
C537 C532 1.377 1_565 S
C537 C536 1.378 . S
C537 H559 0.931 . S
C538 O548 1.259 . S
C538 O549 1.270 . S
C539 O550 1.251 . S
C539 O551 1.251 . S
O540 C520 1.257 . S
O540 Eu521 2.473 . S
O541 C520 1.260 . S
O541 Eu521 2.480 . S
O542 Eu521 2.430 1_565 S
O542 C528 1.259 . S
O543 Eu521 2.670 . S
O543 C528 1.270 1_545 S
O543 Eu531 2.355 . S
O544 Eu521 2.394 . S
O544 C529 1.251 . S
O545 C529 1.251 . S
O545 Eu531 2.374 . S
O546 C530 1.257 . S
O546 Eu531 2.473 . S
O547 C530 1.260 . S
O547 Eu531 2.480 . S
O548 Eu531 2.430 . S
O548 C538 1.259 . S
O549 Eu521 2.355 . S
O549 Eu531 2.670 . S
O549 C538 1.270 . S
O550 Eu531 2.394 . S
O550 C539 1.251 . S
O551 Eu521 2.374 . S
O551 C539 1.251 . S
H552 C523 0.931 . S
H553 C524 0.931 . S
H554 C526 0.931 . S
H555 C527 0.931 . S
H556 C533 0.931 . S
H557 C534 0.931 . S
H558 C536 0.931 . S
H559 C537 0.931 . S
C560 Eu561 2.835 . S
C560 C562 1.500 . S
C560 O580 1.257 . S
C560 O581 1.260 . S
Eu561 C560 2.835 . S
Eu561 O580 2.473 . S
Eu561 O581 2.480 . S
Eu561 O582 2.430 . S
Eu561 O583 2.670 . S
Eu561 O584 2.394 . S
Eu561 O589 2.355 . S
Eu561 O591 2.374 . S
C562 C560 1.500 . S
C562 C563 1.377 . S
C562 C567 1.377 . S
C563 C562 1.377 . S
C563 C564 1.395 . S
C563 H592 0.931 . S
C564 C563 1.395 . S
C564 C565 1.383 . S
C564 H593 0.931 . S
C565 C564 1.383 . S
C565 C566 1.394 . S
C566 C565 1.394 . S
C566 C567 1.378 . S
C566 H594 0.931 . S
C567 C562 1.377 . S
C567 C566 1.378 . S
C567 H595 0.931 . S
C568 O582 1.259 . S
C568 O583 1.270 . S
C569 O584 1.251 . S
C569 O585 1.251 . S
C570 Eu571 2.835 . S
C570 C572 1.500 . S
C570 O586 1.257 . S
C570 O587 1.260 . S
Eu571 C570 2.835 . S
Eu571 O583 2.355 . S
Eu571 O585 2.374 . S
Eu571 O586 2.473 . S
Eu571 O587 2.480 . S
Eu571 O588 2.430 . S
Eu571 O589 2.670 . S
Eu571 O590 2.394 . S
C572 C570 1.500 . S
C572 C573 1.377 . S
C572 C577 1.377 . S
C573 C572 1.377 . S
C573 C574 1.395 . S
C573 H596 0.931 . S
C574 C573 1.395 . S
C574 C575 1.383 . S
C574 H597 0.931 . S
C575 C574 1.383 . S
C575 C576 1.394 . S
C576 C575 1.394 . S
C576 C577 1.378 . S
C576 H598 0.931 . S
C577 C572 1.377 . S
C577 C576 1.378 . S
C577 H599 0.931 . S
C578 O588 1.259 . S
C578 O589 1.270 . S
C579 O590 1.251 . S
C579 O591 1.251 . S
O580 C560 1.257 . S
O580 Eu561 2.473 . S
O581 C560 1.260 . S
O581 Eu561 2.480 . S
O582 Eu561 2.430 . S
O582 C568 1.259 . S
O583 Eu561 2.670 . S
O583 C568 1.270 . S
O583 Eu571 2.355 . S
O584 Eu561 2.394 . S
O584 C569 1.251 . S
O585 C569 1.251 . S
O585 Eu571 2.374 . S
O586 C570 1.257 . S
O586 Eu571 2.473 . S
O587 C570 1.260 . S
O587 Eu571 2.480 . S
O588 Eu571 2.430 . S
O588 C578 1.259 . S
O589 Eu561 2.355 . S
O589 Eu571 2.670 . S
O589 C578 1.270 . S
O590 Eu571 2.394 . S
O590 C579 1.251 . S
O591 Eu561 2.374 . S
O591 C579 1.251 . S
H592 C563 0.931 . S
H593 C564 0.931 . S
H594 C566 0.931 . S
H595 C567 0.931 . S
H596 C573 0.931 . S
H597 C574 0.931 . S
H598 C576 0.931 . S
H599 C577 0.931 . S
C600 Eu601 2.835 . S
C600 C602 1.500 . S
C600 O620 1.257 . S
C600 O621 1.260 . S
Eu601 C600 2.835 . S
Eu601 O620 2.473 . S
Eu601 O621 2.480 . S
Eu601 O622 2.430 1_465 S
Eu601 O623 2.670 1_455 S
Eu601 O624 2.394 1_455 S
Eu601 O629 2.355 1_455 S
Eu601 O631 2.374 . S
C602 C600 1.500 . S
C602 C603 1.377 . S
C602 C607 1.377 . S
C603 C602 1.377 . S
C603 C604 1.395 . S
C603 H632 0.931 . S
C604 C603 1.395 . S
C604 C605 1.383 . S
C604 H633 0.931 . S
C605 C604 1.383 . S
C605 C606 1.394 . S
C606 C605 1.394 . S
C606 C607 1.378 . S
C606 H634 0.931 . S
C607 C602 1.377 . S
C607 C606 1.378 . S
C607 H635 0.931 . S
C608 O622 1.259 . S
C608 O623 1.270 1_545 S
C609 O624 1.251 . S
C609 O625 1.251 . S
C610 Eu611 2.835 . S
C610 C612 1.500 . S
C610 O626 1.257 . S
C610 O627 1.260 . S
Eu611 C610 2.835 . S
Eu611 O623 2.355 . S
Eu611 O625 2.374 . S
Eu611 O626 2.473 . S
Eu611 O627 2.480 . S
Eu611 O628 2.430 . S
Eu611 O629 2.670 . S
Eu611 O630 2.394 . S
C612 C610 1.500 . S
C612 C613 1.377 . S
C612 C617 1.377 1_565 S
C613 C612 1.377 . S
C613 C614 1.395 . S
C613 H636 0.931 . S
C614 C613 1.395 . S
C614 C615 1.383 . S
C614 H637 0.931 . S
C615 C614 1.383 . S
C615 C616 1.394 1_565 S
C616 C615 1.394 1_545 S
C616 C617 1.378 . S
C616 H638 0.931 . S
C617 C612 1.377 1_545 S
C617 C616 1.378 . S
C617 H639 0.931 . S
C618 O628 1.259 . S
C618 O629 1.270 . S
C619 O630 1.251 . S
C619 O631 1.251 1_655 S
O620 C600 1.257 . S
O620 Eu601 2.473 . S
O621 C600 1.260 . S
O621 Eu601 2.480 . S
O622 Eu601 2.430 1_645 S
O622 C608 1.259 . S
O623 Eu601 2.670 1_655 S
O623 C608 1.270 1_565 S
O623 Eu611 2.355 . S
O624 Eu601 2.394 1_655 S
O624 C609 1.251 . S
O625 C609 1.251 . S
O625 Eu611 2.374 . S
O626 C610 1.257 . S
O626 Eu611 2.473 . S
O627 C610 1.260 . S
O627 Eu611 2.480 . S
O628 Eu611 2.430 . S
O628 C618 1.259 . S
O629 Eu601 2.355 1_655 S
O629 Eu611 2.670 . S
O629 C618 1.270 . S
O630 Eu611 2.394 . S
O630 C619 1.251 . S
O631 Eu601 2.374 . S
O631 C619 1.251 1_455 S
H632 C603 0.931 . S
H633 C604 0.931 . S
H634 C606 0.931 . S
H635 C607 0.931 . S
H636 C613 0.931 . S
H637 C614 0.931 . S
H638 C616 0.931 . S
H639 C617 0.931 . S
C640 Eu641 2.835 . S
C640 C642 1.500 . S
C640 O660 1.257 . S
C640 O661 1.260 . S
Eu641 C640 2.835 . S
Eu641 O660 2.473 . S
Eu641 O661 2.480 . S
Eu641 O662 2.430 . S
Eu641 O663 2.670 . S
Eu641 O664 2.394 . S
Eu641 O669 2.355 . S
Eu641 O671 2.374 . S
C642 C640 1.500 . S
C642 C643 1.377 . S
C642 C647 1.377 . S
C643 C642 1.377 . S
C643 C644 1.395 . S
C643 H672 0.931 . S
C644 C643 1.395 . S
C644 C645 1.383 . S
C644 H673 0.931 . S
C645 C644 1.383 . S
C645 C646 1.394 . S
C646 C645 1.394 . S
C646 C647 1.378 . S
C646 H674 0.931 . S
C647 C642 1.377 . S
C647 C646 1.378 . S
C647 H675 0.931 . S
C648 O662 1.259 . S
C648 O663 1.270 . S
C649 O664 1.251 . S
C649 O665 1.251 . S
C650 Eu651 2.835 . S
C650 C652 1.500 . S
C650 O666 1.257 . S
C650 O667 1.260 . S
Eu651 C650 2.835 . S
Eu651 O663 2.355 . S
Eu651 O665 2.374 . S
Eu651 O666 2.473 . S
Eu651 O667 2.480 . S
Eu651 O668 2.430 . S
Eu651 O669 2.670 . S
Eu651 O670 2.394 . S
C652 C650 1.500 . S
C652 C653 1.377 . S
C652 C657 1.377 . S
C653 C652 1.377 . S
C653 C654 1.395 . S
C653 H676 0.931 . S
C654 C653 1.395 . S
C654 C655 1.383 . S
C654 H677 0.931 . S
C655 C654 1.383 . S
C655 C656 1.394 . S
C656 C655 1.394 . S
C656 C657 1.378 . S
C656 H678 0.931 . S
C657 C652 1.377 . S
C657 C656 1.378 . S
C657 H679 0.931 . S
C658 O668 1.259 . S
C658 O669 1.270 . S
C659 O670 1.251 . S
C659 O671 1.251 . S
O660 C640 1.257 . S
O660 Eu641 2.473 . S
O661 C640 1.260 . S
O661 Eu641 2.480 . S
O662 Eu641 2.430 . S
O662 C648 1.259 . S
O663 Eu641 2.670 . S
O663 C648 1.270 . S
O663 Eu651 2.355 . S
O664 Eu641 2.394 . S
O664 C649 1.251 . S
O665 C649 1.251 . S
O665 Eu651 2.374 . S
O666 C650 1.257 . S
O666 Eu651 2.473 . S
O667 C650 1.260 . S
O667 Eu651 2.480 . S
O668 Eu651 2.430 . S
O668 C658 1.259 . S
O669 Eu641 2.355 . S
O669 Eu651 2.670 . S
O669 C658 1.270 . S
O670 Eu651 2.394 . S
O670 C659 1.251 . S
O671 Eu641 2.374 . S
O671 C659 1.251 . S
H672 C643 0.931 . S
H673 C644 0.931 . S
H674 C646 0.931 . S
H675 C647 0.931 . S
H676 C653 0.931 . S
H677 C654 0.931 . S
H678 C656 0.931 . S
H679 C657 0.931 . S
C680 Eu681 2.835 . S
C680 C682 1.500 . S
C680 O700 1.257 . S
C680 O701 1.260 . S
Eu681 C680 2.835 . S
Eu681 O700 2.473 . S
Eu681 O701 2.480 . S
Eu681 O702 2.430 . S
Eu681 O703 2.670 . S
Eu681 O704 2.394 . S
Eu681 O709 2.355 . S
Eu681 O711 2.374 . S
C682 C680 1.500 . S
C682 C683 1.377 . S
C682 C687 1.377 . S
C683 C682 1.377 . S
C683 C684 1.395 . S
C683 H712 0.931 . S
C684 C683 1.395 . S
C684 C685 1.383 . S
C684 H713 0.931 . S
C685 C684 1.383 . S
C685 C686 1.394 . S
C686 C685 1.394 . S
C686 C687 1.378 . S
C686 H714 0.931 . S
C687 C682 1.377 . S
C687 C686 1.378 . S
C687 H715 0.931 . S
C688 O702 1.259 . S
C688 O703 1.270 . S
C689 O704 1.251 . S
C689 O705 1.251 . S
C690 Eu691 2.835 . S
C690 C692 1.500 . S
C690 O706 1.257 . S
C690 O707 1.260 . S
Eu691 C690 2.835 . S
Eu691 O703 2.355 . S
Eu691 O705 2.374 . S
Eu691 O706 2.473 . S
Eu691 O707 2.480 . S
Eu691 O708 2.430 . S
Eu691 O709 2.670 . S
Eu691 O710 2.394 . S
C692 C690 1.500 . S
C692 C693 1.377 . S
C692 C697 1.377 . S
C693 C692 1.377 . S
C693 C694 1.395 . S
C693 H716 0.931 . S
C694 C693 1.395 . S
C694 C695 1.383 . S
C694 H717 0.931 . S
C695 C694 1.383 . S
C695 C696 1.394 . S
C696 C695 1.394 . S
C696 C697 1.378 . S
C696 H718 0.931 . S
C697 C692 1.377 . S
C697 C696 1.378 . S
C697 H719 0.931 . S
C698 O708 1.259 . S
C698 O709 1.270 . S
C699 O710 1.251 . S
C699 O711 1.251 . S
O700 C680 1.257 . S
O700 Eu681 2.473 . S
O701 C680 1.260 . S
O701 Eu681 2.480 . S
O702 Eu681 2.430 . S
O702 C688 1.259 . S
O703 Eu681 2.670 . S
O703 C688 1.270 . S
O703 Eu691 2.355 . S
O704 Eu681 2.394 . S
O704 C689 1.251 . S
O705 C689 1.251 . S
O705 Eu691 2.374 . S
O706 C690 1.257 . S
O706 Eu691 2.473 . S
O707 C690 1.260 . S
O707 Eu691 2.480 . S
O708 Eu691 2.430 . S
O708 C698 1.259 . S
O709 Eu681 2.355 . S
O709 Eu691 2.670 . S
O709 C698 1.270 . S
O710 Eu691 2.394 . S
O710 C699 1.251 . S
O711 Eu681 2.374 . S
O711 C699 1.251 . S
H712 C683 0.931 . S
H713 C684 0.931 . S
H714 C686 0.931 . S
H715 C687 0.931 . S
H716 C693 0.931 . S
H717 C694 0.931 . S
H718 C696 0.931 . S
H719 C697 0.931 . S
C720 Eu721 2.835 . S
C720 C722 1.500 . S
C720 O740 1.257 . S
C720 O741 1.260 . S
Eu721 C720 2.835 . S
Eu721 O740 2.473 . S
Eu721 O741 2.480 . S
Eu721 O742 2.430 . S
Eu721 O743 2.670 . S
Eu721 O744 2.394 . S
Eu721 O749 2.355 . S
Eu721 O751 2.374 . S
C722 C720 1.500 . S
C722 C723 1.377 . S
C722 C727 1.377 . S
C723 C722 1.377 . S
C723 C724 1.395 . S
C723 H752 0.931 . S
C724 C723 1.395 . S
C724 C725 1.383 . S
C724 H753 0.931 . S
C725 C724 1.383 . S
C725 C726 1.394 . S
C726 C725 1.394 . S
C726 C727 1.378 . S
C726 H754 0.931 . S
C727 C722 1.377 . S
C727 C726 1.378 . S
C727 H755 0.931 . S
C728 O742 1.259 . S
C728 O743 1.270 . S
C729 O744 1.251 . S
C729 O745 1.251 . S
C730 Eu731 2.835 . S
C730 C732 1.500 . S
C730 O746 1.257 . S
C730 O747 1.260 . S
Eu731 C730 2.835 . S
Eu731 O743 2.355 . S
Eu731 O745 2.374 . S
Eu731 O746 2.473 . S
Eu731 O747 2.480 . S
Eu731 O748 2.430 . S
Eu731 O749 2.670 . S
Eu731 O750 2.394 . S
C732 C730 1.500 . S
C732 C733 1.377 . S
C732 C737 1.377 . S
C733 C732 1.377 . S
C733 C734 1.395 . S
C733 H756 0.931 . S
C734 C733 1.395 . S
C734 C735 1.383 . S
C734 H757 0.931 . S
C735 C734 1.383 . S
C735 C736 1.394 . S
C736 C735 1.394 . S
C736 C737 1.378 . S
C736 H758 0.931 . S
C737 C732 1.377 . S
C737 C736 1.378 . S
C737 H759 0.931 . S
C738 O748 1.259 . S
C738 O749 1.270 . S
C739 O750 1.251 . S
C739 O751 1.251 . S
O740 C720 1.257 . S
O740 Eu721 2.473 . S
O741 C720 1.260 . S
O741 Eu721 2.480 . S
O742 Eu721 2.430 . S
O742 C728 1.259 . S
O743 Eu721 2.670 . S
O743 C728 1.270 . S
O743 Eu731 2.355 . S
O744 Eu721 2.394 . S
O744 C729 1.251 . S
O745 C729 1.251 . S
O745 Eu731 2.374 . S
O746 C730 1.257 . S
O746 Eu731 2.473 . S
O747 C730 1.260 . S
O747 Eu731 2.480 . S
O748 Eu731 2.430 . S
O748 C738 1.259 . S
O749 Eu721 2.355 . S
O749 Eu731 2.670 . S
O749 C738 1.270 . S
O750 Eu731 2.394 . S
O750 C739 1.251 . S
O751 Eu721 2.374 . S
O751 C739 1.251 . S
H752 C723 0.931 . S
H753 C724 0.931 . S
H754 C726 0.931 . S
H755 C727 0.931 . S
H756 C733 0.931 . S
H757 C734 0.931 . S
H758 C736 0.931 . S
H759 C737 0.931 . S
C760 Eu761 2.835 . S
C760 C762 1.500 . S
C760 O780 1.257 . S
C760 O781 1.260 . S
Eu761 C760 2.835 . S
Eu761 O780 2.473 . S
Eu761 O781 2.480 . S
Eu761 O782 2.430 . S
Eu761 O783 2.670 . S
Eu761 O784 2.394 . S
Eu761 O789 2.355 . S
Eu761 O791 2.374 . S
C762 C760 1.500 . S
C762 C763 1.377 . S
C762 C767 1.377 . S
C763 C762 1.377 . S
C763 C764 1.395 . S
C763 H792 0.931 . S
C764 C763 1.395 . S
C764 C765 1.383 . S
C764 H793 0.931 . S
C765 C764 1.383 . S
C765 C766 1.394 . S
C766 C765 1.394 . S
C766 C767 1.378 . S
C766 H794 0.931 . S
C767 C762 1.377 . S
C767 C766 1.378 . S
C767 H795 0.931 . S
C768 O782 1.259 . S
C768 O783 1.270 . S
C769 O784 1.251 . S
C769 O785 1.251 1_655 S
C770 Eu771 2.835 . S
C770 C772 1.500 . S
C770 O786 1.257 . S
C770 O787 1.260 . S
Eu771 C770 2.835 . S
Eu771 O783 2.355 1_455 S
Eu771 O785 2.374 . S
Eu771 O786 2.473 . S
Eu771 O787 2.480 . S
Eu771 O788 2.430 1_455 S
Eu771 O789 2.670 1_455 S
Eu771 O790 2.394 1_455 S
C772 C770 1.500 . S
C772 C773 1.377 . S
C772 C777 1.377 . S
C773 C772 1.377 . S
C773 C774 1.395 . S
C773 H796 0.931 . S
C774 C773 1.395 . S
C774 C775 1.383 . S
C774 H797 0.931 . S
C775 C774 1.383 . S
C775 C776 1.394 . S
C776 C775 1.394 . S
C776 C777 1.378 . S
C776 H798 0.931 . S
C777 C772 1.377 . S
C777 C776 1.378 . S
C777 H799 0.931 . S
C778 O788 1.259 . S
C778 O789 1.270 . S
C779 O790 1.251 . S
C779 O791 1.251 . S
O780 C760 1.257 . S
O780 Eu761 2.473 . S
O781 C760 1.260 . S
O781 Eu761 2.480 . S
O782 Eu761 2.430 . S
O782 C768 1.259 . S
O783 Eu761 2.670 . S
O783 C768 1.270 . S
O783 Eu771 2.355 1_655 S
O784 Eu761 2.394 . S
O784 C769 1.251 . S
O785 C769 1.251 1_455 S
O785 Eu771 2.374 . S
O786 C770 1.257 . S
O786 Eu771 2.473 . S
O787 C770 1.260 . S
O787 Eu771 2.480 . S
O788 Eu771 2.430 1_655 S
O788 C778 1.259 . S
O789 Eu761 2.355 . S
O789 Eu771 2.670 1_655 S
O789 C778 1.270 . S
O790 Eu771 2.394 1_655 S
O790 C779 1.251 . S
O791 Eu761 2.374 . S
O791 C779 1.251 . S
H792 C763 0.931 . S
H793 C764 0.931 . S
H794 C766 0.931 . S
H795 C767 0.931 . S
H796 C773 0.931 . S
H797 C774 0.931 . S
H798 C776 0.931 . S
H799 C777 0.931 . S
C800 Eu801 2.835 . S
C800 C802 1.500 . S
C800 O820 1.257 . S
C800 O821 1.260 . S
Eu801 C800 2.835 . S
Eu801 O820 2.473 . S
Eu801 O821 2.480 . S
Eu801 O822 2.430 . S
Eu801 O823 2.670 . S
Eu801 O824 2.394 . S
Eu801 O829 2.355 . S
Eu801 O831 2.374 . S
C802 C800 1.500 . S
C802 C803 1.377 . S
C802 C807 1.377 . S
C803 C802 1.377 . S
C803 C804 1.395 . S
C803 H832 0.931 . S
C804 C803 1.395 . S
C804 C805 1.383 . S
C804 H833 0.931 . S
C805 C804 1.383 . S
C805 C806 1.394 . S
C806 C805 1.394 . S
C806 C807 1.378 . S
C806 H834 0.931 . S
C807 C802 1.377 . S
C807 C806 1.378 . S
C807 H835 0.931 . S
C808 O822 1.259 . S
C808 O823 1.270 . S
C809 O824 1.251 . S
C809 O825 1.251 . S
C810 Eu811 2.835 . S
C810 C812 1.500 . S
C810 O826 1.257 . S
C810 O827 1.260 . S
Eu811 C810 2.835 . S
Eu811 O823 2.355 . S
Eu811 O825 2.374 . S
Eu811 O826 2.473 . S
Eu811 O827 2.480 . S
Eu811 O828 2.430 . S
Eu811 O829 2.670 . S
Eu811 O830 2.394 . S
C812 C810 1.500 . S
C812 C813 1.377 . S
C812 C817 1.377 . S
C813 C812 1.377 . S
C813 C814 1.395 . S
C813 H836 0.931 . S
C814 C813 1.395 . S
C814 C815 1.383 . S
C814 H837 0.931 . S
C815 C814 1.383 . S
C815 C816 1.394 . S
C816 C815 1.394 . S
C816 C817 1.378 . S
C816 H838 0.931 . S
C817 C812 1.377 . S
C817 C816 1.378 . S
C817 H839 0.931 . S
C818 O828 1.259 . S
C818 O829 1.270 . S
C819 O830 1.251 . S
C819 O831 1.251 . S
O820 C800 1.257 . S
O820 Eu801 2.473 . S
O821 C800 1.260 . S
O821 Eu801 2.480 . S
O822 Eu801 2.430 . S
O822 C808 1.259 . S
O823 Eu801 2.670 . S
O823 C808 1.270 . S
O823 Eu811 2.355 . S
O824 Eu801 2.394 . S
O824 C809 1.251 . S
O825 C809 1.251 . S
O825 Eu811 2.374 . S
O826 C810 1.257 . S
O826 Eu811 2.473 . S
O827 C810 1.260 . S
O827 Eu811 2.480 . S
O828 Eu811 2.430 . S
O828 C818 1.259 . S
O829 Eu801 2.355 . S
O829 Eu811 2.670 . S
O829 C818 1.270 . S
O830 Eu811 2.394 . S
O830 C819 1.251 . S
O831 Eu801 2.374 . S
O831 C819 1.251 . S
H832 C803 0.931 . S
H833 C804 0.931 . S
H834 C806 0.931 . S
H835 C807 0.931 . S
H836 C813 0.931 . S
H837 C814 0.931 . S
H838 C816 0.931 . S
H839 C817 0.931 . S
C840 Eu841 2.835 . S
C840 C842 1.500 . S
C840 O860 1.257 . S
C840 O861 1.260 . S
Eu841 C840 2.835 . S
Eu841 O860 2.473 . S
Eu841 O861 2.480 . S
Eu841 O862 2.430 . S
Eu841 O863 2.670 . S
Eu841 O864 2.394 . S
Eu841 O869 2.355 . S
Eu841 O871 2.374 . S
C842 C840 1.500 . S
C842 C843 1.377 . S
C842 C847 1.377 . S
C843 C842 1.377 . S
C843 C844 1.395 . S
C843 H872 0.931 . S
C844 C843 1.395 . S
C844 C845 1.383 . S
C844 H873 0.931 . S
C845 C844 1.383 . S
C845 C846 1.394 . S
C846 C845 1.394 . S
C846 C847 1.378 . S
C846 H874 0.931 . S
C847 C842 1.377 . S
C847 C846 1.378 . S
C847 H875 0.931 . S
C848 O862 1.259 . S
C848 O863 1.270 . S
C849 O864 1.251 . S
C849 O865 1.251 1_655 S
C850 Eu851 2.835 . S
C850 C852 1.500 . S
C850 O866 1.257 . S
C850 O867 1.260 . S
Eu851 C850 2.835 . S
Eu851 O863 2.355 1_455 S
Eu851 O865 2.374 . S
Eu851 O866 2.473 . S
Eu851 O867 2.480 . S
Eu851 O868 2.430 1_455 S
Eu851 O869 2.670 1_455 S
Eu851 O870 2.394 1_455 S
C852 C850 1.500 . S
C852 C853 1.377 . S
C852 C857 1.377 . S
C853 C852 1.377 . S
C853 C854 1.395 . S
C853 H876 0.931 . S
C854 C853 1.395 . S
C854 C855 1.383 . S
C854 H877 0.931 . S
C855 C854 1.383 . S
C855 C856 1.394 . S
C856 C855 1.394 . S
C856 C857 1.378 . S
C856 H878 0.931 . S
C857 C852 1.377 . S
C857 C856 1.378 . S
C857 H879 0.931 . S
C858 O868 1.259 . S
C858 O869 1.270 . S
C859 O870 1.251 . S
C859 O871 1.251 . S
O860 C840 1.257 . S
O860 Eu841 2.473 . S
O861 C840 1.260 . S
O861 Eu841 2.480 . S
O862 Eu841 2.430 . S
O862 C848 1.259 . S
O863 Eu841 2.670 . S
O863 C848 1.270 . S
O863 Eu851 2.355 1_655 S
O864 Eu841 2.394 . S
O864 C849 1.251 . S
O865 C849 1.251 1_455 S
O865 Eu851 2.374 . S
O866 C850 1.257 . S
O866 Eu851 2.473 . S
O867 C850 1.260 . S
O867 Eu851 2.480 . S
O868 Eu851 2.430 1_655 S
O868 C858 1.259 . S
O869 Eu841 2.355 . S
O869 Eu851 2.670 1_655 S
O869 C858 1.270 . S
O870 Eu851 2.394 1_655 S
O870 C859 1.251 . S
O871 Eu841 2.374 . S
O871 C859 1.251 . S
H872 C843 0.931 . S
H873 C844 0.931 . S
H874 C846 0.931 . S
H875 C847 0.931 . S
H876 C853 0.931 . S
H877 C854 0.931 . S
H878 C856 0.931 . S
H879 C857 0.931 . S
C880 Eu881 2.835 . S
C880 C882 1.500 . S
C880 O900 1.257 . S
C880 O901 1.260 . S
Eu881 C880 2.835 . S
Eu881 O900 2.473 . S
Eu881 O901 2.480 . S
Eu881 O902 2.430 . S
Eu881 O903 2.670 . S
Eu881 O904 2.394 . S
Eu881 O909 2.355 . S
Eu881 O911 2.374 . S
C882 C880 1.500 . S
C882 C883 1.377 . S
C882 C887 1.377 . S
C883 C882 1.377 . S
C883 C884 1.395 . S
C883 H912 0.931 . S
C884 C883 1.395 . S
C884 C885 1.383 . S
C884 H913 0.931 . S
C885 C884 1.383 . S
C885 C886 1.394 . S
C886 C885 1.394 . S
C886 C887 1.378 . S
C886 H914 0.931 . S
C887 C882 1.377 . S
C887 C886 1.378 . S
C887 H915 0.931 . S
C888 O902 1.259 . S
C888 O903 1.270 . S
C889 O904 1.251 . S
C889 O905 1.251 . S
C890 Eu891 2.835 . S
C890 C892 1.500 . S
C890 O906 1.257 . S
C890 O907 1.260 . S
Eu891 C890 2.835 . S
Eu891 O903 2.355 . S
Eu891 O905 2.374 . S
Eu891 O906 2.473 . S
Eu891 O907 2.480 . S
Eu891 O908 2.430 . S
Eu891 O909 2.670 . S
Eu891 O910 2.394 . S
C892 C890 1.500 . S
C892 C893 1.377 . S
C892 C897 1.377 . S
C893 C892 1.377 . S
C893 C894 1.395 . S
C893 H916 0.931 . S
C894 C893 1.395 . S
C894 C895 1.383 . S
C894 H917 0.931 . S
C895 C894 1.383 . S
C895 C896 1.394 . S
C896 C895 1.394 . S
C896 C897 1.378 . S
C896 H918 0.931 . S
C897 C892 1.377 . S
C897 C896 1.378 . S
C897 H919 0.931 . S
C898 O908 1.259 . S
C898 O909 1.270 . S
C899 O910 1.251 . S
C899 O911 1.251 . S
O900 C880 1.257 . S
O900 Eu881 2.473 . S
O901 C880 1.260 . S
O901 Eu881 2.480 . S
O902 Eu881 2.430 . S
O902 C888 1.259 . S
O903 Eu881 2.670 . S
O903 C888 1.270 . S
O903 Eu891 2.355 . S
O904 Eu881 2.394 . S
O904 C889 1.251 . S
O905 C889 1.251 . S
O905 Eu891 2.374 . S
O906 C890 1.257 . S
O906 Eu891 2.473 . S
O907 C890 1.260 . S
O907 Eu891 2.480 . S
O908 Eu891 2.430 . S
O908 C898 1.259 . S
O909 Eu881 2.355 . S
O909 Eu891 2.670 . S
O909 C898 1.270 . S
O910 Eu891 2.394 . S
O910 C899 1.251 . S
O911 Eu881 2.374 . S
O911 C899 1.251 . S
H912 C883 0.931 . S
H913 C884 0.931 . S
H914 C886 0.931 . S
H915 C887 0.931 . S
H916 C893 0.931 . S
H917 C894 0.931 . S
H918 C896 0.931 . S
H919 C897 0.931 . S
C920 Eu921 2.835 . S
C920 C922 1.500 . S
C920 O940 1.257 . S
C920 O941 1.260 . S
Eu921 C920 2.835 . S
Eu921 O940 2.473 . S
Eu921 O941 2.480 . S
Eu921 O942 2.430 . S
Eu921 O943 2.670 . S
Eu921 O944 2.394 . S
Eu921 O949 2.355 . S
Eu921 O951 2.374 . S
C922 C920 1.500 . S
C922 C923 1.377 . S
C922 C927 1.377 . S
C923 C922 1.377 . S
C923 C924 1.395 . S
C923 H952 0.931 . S
C924 C923 1.395 . S
C924 C925 1.383 . S
C924 H953 0.931 . S
C925 C924 1.383 . S
C925 C926 1.394 . S
C926 C925 1.394 . S
C926 C927 1.378 . S
C926 H954 0.931 . S
C927 C922 1.377 . S
C927 C926 1.378 . S
C927 H955 0.931 . S
C928 O942 1.259 . S
C928 O943 1.270 . S
C929 O944 1.251 . S
C929 O945 1.251 . S
C930 Eu931 2.835 . S
C930 C932 1.500 . S
C930 O946 1.257 . S
C930 O947 1.260 . S
Eu931 C930 2.835 . S
Eu931 O943 2.355 . S
Eu931 O945 2.374 . S
Eu931 O946 2.473 . S
Eu931 O947 2.480 . S
Eu931 O948 2.430 . S
Eu931 O949 2.670 . S
Eu931 O950 2.394 . S
C932 C930 1.500 . S
C932 C933 1.377 . S
C932 C937 1.377 . S
C933 C932 1.377 . S
C933 C934 1.395 . S
C933 H956 0.931 . S
C934 C933 1.395 . S
C934 C935 1.383 . S
C934 H957 0.931 . S
C935 C934 1.383 . S
C935 C936 1.394 . S
C936 C935 1.394 . S
C936 C937 1.378 . S
C936 H958 0.931 . S
C937 C932 1.377 . S
C937 C936 1.378 . S
C937 H959 0.931 . S
C938 O948 1.259 . S
C938 O949 1.270 . S
C939 O950 1.251 . S
C939 O951 1.251 . S
O940 C920 1.257 . S
O940 Eu921 2.473 . S
O941 C920 1.260 . S
O941 Eu921 2.480 . S
O942 Eu921 2.430 . S
O942 C928 1.259 . S
O943 Eu921 2.670 . S
O943 C928 1.270 . S
O943 Eu931 2.355 . S
O944 Eu921 2.394 . S
O944 C929 1.251 . S
O945 C929 1.251 . S
O945 Eu931 2.374 . S
O946 C930 1.257 . S
O946 Eu931 2.473 . S
O947 C930 1.260 . S
O947 Eu931 2.480 . S
O948 Eu931 2.430 . S
O948 C938 1.259 . S
O949 Eu921 2.355 . S
O949 Eu931 2.670 . S
O949 C938 1.270 . S
O950 Eu931 2.394 . S
O950 C939 1.251 . S
O951 Eu921 2.374 . S
O951 C939 1.251 . S
H952 C923 0.931 . S
H953 C924 0.931 . S
H954 C926 0.931 . S
H955 C927 0.931 . S
H956 C933 0.931 . S
H957 C934 0.931 . S
H958 C936 0.931 . S
H959 C937 0.931 . S
C960 Eu961 2.835 . S
C960 C962 1.500 . S
C960 O980 1.257 . S
C960 O981 1.260 . S
Eu961 C960 2.835 . S
Eu961 O980 2.473 . S
Eu961 O981 2.480 . S
Eu961 O982 2.430 . S
Eu961 O983 2.670 . S
Eu961 O984 2.394 . S
Eu961 O989 2.355 . S
Eu961 O991 2.374 . S
C962 C960 1.500 . S
C962 C963 1.377 . S
C962 C967 1.377 . S
C963 C962 1.377 . S
C963 C964 1.395 . S
C963 H992 0.931 . S
C964 C963 1.395 . S
C964 C965 1.383 . S
C964 H993 0.931 . S
C965 C964 1.383 . S
C965 C966 1.394 . S
C966 C965 1.394 . S
C966 C967 1.378 . S
C966 H994 0.931 . S
C967 C962 1.377 . S
C967 C966 1.378 . S
C967 H995 0.931 . S
C968 O982 1.259 . S
C968 O983 1.270 . S
C969 O984 1.251 . S
C969 O985 1.251 . S
C970 Eu971 2.835 . S
C970 C972 1.500 . S
C970 O986 1.257 . S
C970 O987 1.260 . S
Eu971 C970 2.835 . S
Eu971 O983 2.355 . S
Eu971 O985 2.374 . S
Eu971 O986 2.473 . S
Eu971 O987 2.480 . S
Eu971 O988 2.430 . S
Eu971 O989 2.670 . S
Eu971 O990 2.394 . S
C972 C970 1.500 . S
C972 C973 1.377 . S
C972 C977 1.377 . S
C973 C972 1.377 . S
C973 C974 1.395 . S
C973 H996 0.931 . S
C974 C973 1.395 . S
C974 C975 1.383 . S
C974 H997 0.931 . S
C975 C974 1.383 . S
C975 C976 1.394 . S
C976 C975 1.394 . S
C976 C977 1.378 . S
C976 H998 0.931 . S
C977 C972 1.377 . S
C977 C976 1.378 . S
C977 H999 0.931 . S
C978 O988 1.259 . S
C978 O989 1.270 . S
C979 O990 1.251 . S
C979 O991 1.251 . S
O980 C960 1.257 . S
O980 Eu961 2.473 . S
O981 C960 1.260 . S
O981 Eu961 2.480 . S
O982 Eu961 2.430 . S
O982 C968 1.259 . S
O983 Eu961 2.670 . S
O983 C968 1.270 . S
O983 Eu971 2.355 . S
O984 Eu961 2.394 . S
O984 C969 1.251 . S
O985 C969 1.251 . S
O985 Eu971 2.374 . S
O986 C970 1.257 . S
O986 Eu971 2.473 . S
O987 C970 1.260 . S
O987 Eu971 2.480 . S
O988 Eu971 2.430 . S
O988 C978 1.259 . S
O989 Eu961 2.355 . S
O989 Eu971 2.670 . S
O989 C978 1.270 . S
O990 Eu971 2.394 . S
O990 C979 1.251 . S
O991 Eu961 2.374 . S
O991 C979 1.251 . S
H992 C963 0.931 . S
H993 C964 0.931 . S
H994 C966 0.931 . S
H995 C967 0.931 . S
H996 C973 0.931 . S
H997 C974 0.931 . S
H998 C976 0.931 . S
H999 C977 0.931 . S
C1000 Eu1001 2.835 . S
C1000 C1002 1.500 . S
C1000 O1020 1.257 . S
C1000 O1021 1.260 . S
Eu1001 C1000 2.835 . S
Eu1001 O1020 2.473 . S
Eu1001 O1021 2.480 . S
Eu1001 O1022 2.430 . S
Eu1001 O1023 2.670 . S
Eu1001 O1024 2.394 . S
Eu1001 O1029 2.355 . S
Eu1001 O1031 2.374 . S
C1002 C1000 1.500 . S
C1002 C1003 1.377 . S
C1002 C1007 1.377 . S
C1003 C1002 1.377 . S
C1003 C1004 1.395 . S
C1003 H1032 0.931 . S
C1004 C1003 1.395 . S
C1004 C1005 1.383 . S
C1004 H1033 0.931 . S
C1005 C1004 1.383 . S
C1005 C1006 1.394 . S
C1006 C1005 1.394 . S
C1006 C1007 1.378 . S
C1006 H1034 0.931 . S
C1007 C1002 1.377 . S
C1007 C1006 1.378 . S
C1007 H1035 0.931 . S
C1008 O1022 1.259 . S
C1008 O1023 1.270 . S
C1009 O1024 1.251 . S
C1009 O1025 1.251 . S
C1010 Eu1011 2.835 . S
C1010 C1012 1.500 . S
C1010 O1026 1.257 . S
C1010 O1027 1.260 . S
Eu1011 C1010 2.835 . S
Eu1011 O1023 2.355 . S
Eu1011 O1025 2.374 . S
Eu1011 O1026 2.473 . S
Eu1011 O1027 2.480 . S
Eu1011 O1028 2.430 . S
Eu1011 O1029 2.670 . S
Eu1011 O1030 2.394 . S
C1012 C1010 1.500 . S
C1012 C1013 1.377 . S
C1012 C1017 1.377 . S
C1013 C1012 1.377 . S
C1013 C1014 1.395 . S
C1013 H1036 0.931 . S
C1014 C1013 1.395 . S
C1014 C1015 1.383 . S
C1014 H1037 0.931 . S
C1015 C1014 1.383 . S
C1015 C1016 1.394 . S
C1016 C1015 1.394 . S
C1016 C1017 1.378 . S
C1016 H1038 0.931 . S
C1017 C1012 1.377 . S
C1017 C1016 1.378 . S
C1017 H1039 0.931 . S
C1018 O1028 1.259 . S
C1018 O1029 1.270 . S
C1019 O1030 1.251 . S
C1019 O1031 1.251 . S
O1020 C1000 1.257 . S
O1020 Eu1001 2.473 . S
O1021 C1000 1.260 . S
O1021 Eu1001 2.480 . S
O1022 Eu1001 2.430 . S
O1022 C1008 1.259 . S
O1023 Eu1001 2.670 . S
O1023 C1008 1.270 . S
O1023 Eu1011 2.355 . S
O1024 Eu1001 2.394 . S
O1024 C1009 1.251 . S
O1025 C1009 1.251 . S
O1025 Eu1011 2.374 . S
O1026 C1010 1.257 . S
O1026 Eu1011 2.473 . S
O1027 C1010 1.260 . S
O1027 Eu1011 2.480 . S
O1028 Eu1011 2.430 . S
O1028 C1018 1.259 . S
O1029 Eu1001 2.355 . S
O1029 Eu1011 2.670 . S
O1029 C1018 1.270 . S
O1030 Eu1011 2.394 . S
O1030 C1019 1.251 . S
O1031 Eu1001 2.374 . S
O1031 C1019 1.251 . S
H1032 C1003 0.931 . S
H1033 C1004 0.931 . S
H1034 C1006 0.931 . S
H1035 C1007 0.931 . S
H1036 C1013 0.931 . S
H1037 C1014 0.931 . S
H1038 C1016 0.931 . S
H1039 C1017 0.931 . S
C1040 Eu1041 2.835 . S
C1040 C1042 1.500 . S
C1040 O1060 1.257 . S
C1040 O1061 1.260 . S
Eu1041 C1040 2.835 . S
Eu1041 O1060 2.473 . S
Eu1041 O1061 2.480 . S
Eu1041 O1062 2.430 . S
Eu1041 O1063 2.670 . S
Eu1041 O1064 2.394 . S
Eu1041 O1069 2.355 . S
Eu1041 O1071 2.374 . S
C1042 C1040 1.500 . S
C1042 C1043 1.377 . S
C1042 C1047 1.377 . S
C1043 C1042 1.377 . S
C1043 C1044 1.395 . S
C1043 H1072 0.931 . S
C1044 C1043 1.395 . S
C1044 C1045 1.383 . S
C1044 H1073 0.931 . S
C1045 C1044 1.383 . S
C1045 C1046 1.394 . S
C1046 C1045 1.394 . S
C1046 C1047 1.378 . S
C1046 H1074 0.931 . S
C1047 C1042 1.377 . S
C1047 C1046 1.378 . S
C1047 H1075 0.931 . S
C1048 O1062 1.259 . S
C1048 O1063 1.270 . S
C1049 O1064 1.251 . S
C1049 O1065 1.251 . S
C1050 Eu1051 2.835 . S
C1050 C1052 1.500 . S
C1050 O1066 1.257 . S
C1050 O1067 1.260 . S
Eu1051 C1050 2.835 . S
Eu1051 O1063 2.355 . S
Eu1051 O1065 2.374 . S
Eu1051 O1066 2.473 . S
Eu1051 O1067 2.480 . S
Eu1051 O1068 2.430 . S
Eu1051 O1069 2.670 . S
Eu1051 O1070 2.394 . S
C1052 C1050 1.500 . S
C1052 C1053 1.377 . S
C1052 C1057 1.377 . S
C1053 C1052 1.377 . S
C1053 C1054 1.395 . S
C1053 H1076 0.931 . S
C1054 C1053 1.395 . S
C1054 C1055 1.383 . S
C1054 H1077 0.931 . S
C1055 C1054 1.383 . S
C1055 C1056 1.394 . S
C1056 C1055 1.394 . S
C1056 C1057 1.378 . S
C1056 H1078 0.931 . S
C1057 C1052 1.377 . S
C1057 C1056 1.378 . S
C1057 H1079 0.931 . S
C1058 O1068 1.259 . S
C1058 O1069 1.270 . S
C1059 O1070 1.251 . S
C1059 O1071 1.251 . S
O1060 C1040 1.257 . S
O1060 Eu1041 2.473 . S
O1061 C1040 1.260 . S
O1061 Eu1041 2.480 . S
O1062 Eu1041 2.430 . S
O1062 C1048 1.259 . S
O1063 Eu1041 2.670 . S
O1063 C1048 1.270 . S
O1063 Eu1051 2.355 . S
O1064 Eu1041 2.394 . S
O1064 C1049 1.251 . S
O1065 C1049 1.251 . S
O1065 Eu1051 2.374 . S
O1066 C1050 1.257 . S
O1066 Eu1051 2.473 . S
O1067 C1050 1.260 . S
O1067 Eu1051 2.480 . S
O1068 Eu1051 2.430 . S
O1068 C1058 1.259 . S
O1069 Eu1041 2.355 . S
O1069 Eu1051 2.670 . S
O1069 C1058 1.270 . S
O1070 Eu1051 2.394 . S
O1070 C1059 1.251 . S
O1071 Eu1041 2.374 . S
O1071 C1059 1.251 . S
H1072 C1043 0.931 . S
H1073 C1044 0.931 . S
H1074 C1046 0.931 . S
H1075 C1047 0.931 . S
H1076 C1053 0.931 . S
H1077 C1054 0.931 . S
H1078 C1056 0.931 . S
H1079 C1057 0.931 . S
C1080 Eu1081 2.835 . S
C1080 C1082 1.500 . S
C1080 O1100 1.257 . S
C1080 O1101 1.260 . S
Eu1081 C1080 2.835 . S
Eu1081 O1100 2.473 . S
Eu1081 O1101 2.480 . S
Eu1081 O1102 2.430 1_655 S
Eu1081 O1103 2.670 1_655 S
Eu1081 O1104 2.394 1_655 S
Eu1081 O1109 2.355 1_655 S
Eu1081 O1111 2.374 . S
C1082 C1080 1.500 . S
C1082 C1083 1.377 . S
C1082 C1087 1.377 . S
C1083 C1082 1.377 . S
C1083 C1084 1.395 . S
C1083 H1112 0.931 . S
C1084 C1083 1.395 . S
C1084 C1085 1.383 . S
C1084 H1113 0.931 . S
C1085 C1084 1.383 . S
C1085 C1086 1.394 . S
C1086 C1085 1.394 . S
C1086 C1087 1.378 . S
C1086 H1114 0.931 . S
C1087 C1082 1.377 . S
C1087 C1086 1.378 . S
C1087 H1115 0.931 . S
C1088 O1102 1.259 . S
C1088 O1103 1.270 . S
C1089 O1104 1.251 . S
C1089 O1105 1.251 . S
C1090 Eu1091 2.835 . S
C1090 C1092 1.500 . S
C1090 O1106 1.257 . S
C1090 O1107 1.260 . S
Eu1091 C1090 2.835 . S
Eu1091 O1103 2.355 . S
Eu1091 O1105 2.374 . S
Eu1091 O1106 2.473 . S
Eu1091 O1107 2.480 . S
Eu1091 O1108 2.430 . S
Eu1091 O1109 2.670 . S
Eu1091 O1110 2.394 . S
C1092 C1090 1.500 . S
C1092 C1093 1.377 . S
C1092 C1097 1.377 . S
C1093 C1092 1.377 . S
C1093 C1094 1.395 . S
C1093 H1116 0.931 . S
C1094 C1093 1.395 . S
C1094 C1095 1.383 . S
C1094 H1117 0.931 . S
C1095 C1094 1.383 . S
C1095 C1096 1.394 . S
C1096 C1095 1.394 . S
C1096 C1097 1.378 . S
C1096 H1118 0.931 . S
C1097 C1092 1.377 . S
C1097 C1096 1.378 . S
C1097 H1119 0.931 . S
C1098 O1108 1.259 . S
C1098 O1109 1.270 . S
C1099 O1110 1.251 . S
C1099 O1111 1.251 1_455 S
O1100 C1080 1.257 . S
O1100 Eu1081 2.473 . S
O1101 C1080 1.260 . S
O1101 Eu1081 2.480 . S
O1102 Eu1081 2.430 1_455 S
O1102 C1088 1.259 . S
O1103 Eu1081 2.670 1_455 S
O1103 C1088 1.270 . S
O1103 Eu1091 2.355 . S
O1104 Eu1081 2.394 1_455 S
O1104 C1089 1.251 . S
O1105 C1089 1.251 . S
O1105 Eu1091 2.374 . S
O1106 C1090 1.257 . S
O1106 Eu1091 2.473 . S
O1107 C1090 1.260 . S
O1107 Eu1091 2.480 . S
O1108 Eu1091 2.430 . S
O1108 C1098 1.259 . S
O1109 Eu1081 2.355 1_455 S
O1109 Eu1091 2.670 . S
O1109 C1098 1.270 . S
O1110 Eu1091 2.394 . S
O1110 C1099 1.251 . S
O1111 Eu1081 2.374 . S
O1111 C1099 1.251 1_655 S
H1112 C1083 0.931 . S
H1113 C1084 0.931 . S
H1114 C1086 0.931 . S
H1115 C1087 0.931 . S
H1116 C1093 0.931 . S
H1117 C1094 0.931 . S
H1118 C1096 0.931 . S
H1119 C1097 0.931 . S
C1120 Eu1121 2.835 . S
C1120 C1122 1.500 . S
C1120 O1140 1.257 . S
C1120 O1141 1.260 . S
Eu1121 C1120 2.835 . S
Eu1121 O1140 2.473 . S
Eu1121 O1141 2.480 . S
Eu1121 O1142 2.430 . S
Eu1121 O1143 2.670 . S
Eu1121 O1144 2.394 . S
Eu1121 O1149 2.355 . S
Eu1121 O1151 2.374 . S
C1122 C1120 1.500 . S
C1122 C1123 1.377 . S
C1122 C1127 1.377 . S
C1123 C1122 1.377 . S
C1123 C1124 1.395 . S
C1123 H1152 0.931 . S
C1124 C1123 1.395 . S
C1124 C1125 1.383 . S
C1124 H1153 0.931 . S
C1125 C1124 1.383 . S
C1125 C1126 1.394 . S
C1126 C1125 1.394 . S
C1126 C1127 1.378 . S
C1126 H1154 0.931 . S
C1127 C1122 1.377 . S
C1127 C1126 1.378 . S
C1127 H1155 0.931 . S
C1128 O1142 1.259 . S
C1128 O1143 1.270 . S
C1129 O1144 1.251 . S
C1129 O1145 1.251 . S
C1130 Eu1131 2.835 . S
C1130 C1132 1.500 . S
C1130 O1146 1.257 . S
C1130 O1147 1.260 . S
Eu1131 C1130 2.835 . S
Eu1131 O1143 2.355 . S
Eu1131 O1145 2.374 . S
Eu1131 O1146 2.473 . S
Eu1131 O1147 2.480 . S
Eu1131 O1148 2.430 . S
Eu1131 O1149 2.670 . S
Eu1131 O1150 2.394 . S
C1132 C1130 1.500 . S
C1132 C1133 1.377 . S
C1132 C1137 1.377 . S
C1133 C1132 1.377 . S
C1133 C1134 1.395 . S
C1133 H1156 0.931 . S
C1134 C1133 1.395 . S
C1134 C1135 1.383 . S
C1134 H1157 0.931 . S
C1135 C1134 1.383 . S
C1135 C1136 1.394 . S
C1136 C1135 1.394 . S
C1136 C1137 1.378 . S
C1136 H1158 0.931 . S
C1137 C1132 1.377 . S
C1137 C1136 1.378 . S
C1137 H1159 0.931 . S
C1138 O1148 1.259 . S
C1138 O1149 1.270 . S
C1139 O1150 1.251 . S
C1139 O1151 1.251 . S
O1140 C1120 1.257 . S
O1140 Eu1121 2.473 . S
O1141 C1120 1.260 . S
O1141 Eu1121 2.480 . S
O1142 Eu1121 2.430 . S
O1142 C1128 1.259 . S
O1143 Eu1121 2.670 . S
O1143 C1128 1.270 . S
O1143 Eu1131 2.355 . S
O1144 Eu1121 2.394 . S
O1144 C1129 1.251 . S
O1145 C1129 1.251 . S
O1145 Eu1131 2.374 . S
O1146 C1130 1.257 . S
O1146 Eu1131 2.473 . S
O1147 C1130 1.260 . S
O1147 Eu1131 2.480 . S
O1148 Eu1131 2.430 . S
O1148 C1138 1.259 . S
O1149 Eu1121 2.355 . S
O1149 Eu1131 2.670 . S
O1149 C1138 1.270 . S
O1150 Eu1131 2.394 . S
O1150 C1139 1.251 . S
O1151 Eu1121 2.374 . S
O1151 C1139 1.251 . S
H1152 C1123 0.931 . S
H1153 C1124 0.931 . S
H1154 C1126 0.931 . S
H1155 C1127 0.931 . S
H1156 C1133 0.931 . S
H1157 C1134 0.931 . S
H1158 C1136 0.931 . S
H1159 C1137 0.931 . S
C1160 Eu1161 2.835 . S
C1160 C1162 1.500 . S
C1160 O1180 1.257 . S
C1160 O1181 1.260 . S
Eu1161 C1160 2.835 . S
Eu1161 O1180 2.473 . S
Eu1161 O1181 2.480 . S
Eu1161 O1182 2.430 1_655 S
Eu1161 O1183 2.670 1_655 S
Eu1161 O1184 2.394 1_655 S
Eu1161 O1189 2.355 1_655 S
Eu1161 O1191 2.374 . S
C1162 C1160 1.500 . S
C1162 C1163 1.377 . S
C1162 C1167 1.377 . S
C1163 C1162 1.377 . S
C1163 C1164 1.395 . S
C1163 H1192 0.931 . S
C1164 C1163 1.395 . S
C1164 C1165 1.383 . S
C1164 H1193 0.931 . S
C1165 C1164 1.383 . S
C1165 C1166 1.394 . S
C1166 C1165 1.394 . S
C1166 C1167 1.378 . S
C1166 H1194 0.931 . S
C1167 C1162 1.377 . S
C1167 C1166 1.378 . S
C1167 H1195 0.931 . S
C1168 O1182 1.259 . S
C1168 O1183 1.270 . S
C1169 O1184 1.251 . S
C1169 O1185 1.251 . S
C1170 Eu1171 2.835 . S
C1170 C1172 1.500 . S
C1170 O1186 1.257 . S
C1170 O1187 1.260 . S
Eu1171 C1170 2.835 . S
Eu1171 O1183 2.355 . S
Eu1171 O1185 2.374 . S
Eu1171 O1186 2.473 . S
Eu1171 O1187 2.480 . S
Eu1171 O1188 2.430 . S
Eu1171 O1189 2.670 . S
Eu1171 O1190 2.394 . S
C1172 C1170 1.500 . S
C1172 C1173 1.377 . S
C1172 C1177 1.377 . S
C1173 C1172 1.377 . S
C1173 C1174 1.395 . S
C1173 H1196 0.931 . S
C1174 C1173 1.395 . S
C1174 C1175 1.383 . S
C1174 H1197 0.931 . S
C1175 C1174 1.383 . S
C1175 C1176 1.394 . S
C1176 C1175 1.394 . S
C1176 C1177 1.378 . S
C1176 H1198 0.931 . S
C1177 C1172 1.377 . S
C1177 C1176 1.378 . S
C1177 H1199 0.931 . S
C1178 O1188 1.259 . S
C1178 O1189 1.270 . S
C1179 O1190 1.251 . S
C1179 O1191 1.251 1_455 S
O1180 C1160 1.257 . S
O1180 Eu1161 2.473 . S
O1181 C1160 1.260 . S
O1181 Eu1161 2.480 . S
O1182 Eu1161 2.430 1_455 S
O1182 C1168 1.259 . S
O1183 Eu1161 2.670 1_455 S
O1183 C1168 1.270 . S
O1183 Eu1171 2.355 . S
O1184 Eu1161 2.394 1_455 S
O1184 C1169 1.251 . S
O1185 C1169 1.251 . S
O1185 Eu1171 2.374 . S
O1186 C1170 1.257 . S
O1186 Eu1171 2.473 . S
O1187 C1170 1.260 . S
O1187 Eu1171 2.480 . S
O1188 Eu1171 2.430 . S
O1188 C1178 1.259 . S
O1189 Eu1161 2.355 1_455 S
O1189 Eu1171 2.670 . S
O1189 C1178 1.270 . S
O1190 Eu1171 2.394 . S
O1190 C1179 1.251 . S
O1191 Eu1161 2.374 . S
O1191 C1179 1.251 1_655 S
H1192 C1163 0.931 . S
H1193 C1164 0.931 . S
H1194 C1166 0.931 . S
H1195 C1167 0.931 . S
H1196 C1173 0.931 . S
H1197 C1174 0.931 . S
H1198 C1176 0.931 . S
H1199 C1177 0.931 . S
C1200 Eu1201 2.835 . S
C1200 C1202 1.500 . S
C1200 O1220 1.257 . S
C1200 O1221 1.260 . S
Eu1201 C1200 2.835 . S
Eu1201 O1220 2.473 . S
Eu1201 O1221 2.480 . S
Eu1201 O1222 2.430 . S
Eu1201 O1223 2.670 . S
Eu1201 O1224 2.394 . S
Eu1201 O1229 2.355 . S
Eu1201 O1231 2.374 . S
C1202 C1200 1.500 . S
C1202 C1203 1.377 . S
C1202 C1207 1.377 . S
C1203 C1202 1.377 . S
C1203 C1204 1.395 . S
C1203 H1232 0.931 . S
C1204 C1203 1.395 . S
C1204 C1205 1.383 . S
C1204 H1233 0.931 . S
C1205 C1204 1.383 . S
C1205 C1206 1.394 . S
C1206 C1205 1.394 . S
C1206 C1207 1.378 . S
C1206 H1234 0.931 . S
C1207 C1202 1.377 . S
C1207 C1206 1.378 . S
C1207 H1235 0.931 . S
C1208 O1222 1.259 . S
C1208 O1223 1.270 . S
C1209 O1224 1.251 . S
C1209 O1225 1.251 . S
C1210 Eu1211 2.835 . S
C1210 C1212 1.500 . S
C1210 O1226 1.257 . S
C1210 O1227 1.260 . S
Eu1211 C1210 2.835 . S
Eu1211 O1223 2.355 . S
Eu1211 O1225 2.374 . S
Eu1211 O1226 2.473 . S
Eu1211 O1227 2.480 . S
Eu1211 O1228 2.430 . S
Eu1211 O1229 2.670 . S
Eu1211 O1230 2.394 . S
C1212 C1210 1.500 . S
C1212 C1213 1.377 . S
C1212 C1217 1.377 . S
C1213 C1212 1.377 . S
C1213 C1214 1.395 . S
C1213 H1236 0.931 . S
C1214 C1213 1.395 . S
C1214 C1215 1.383 . S
C1214 H1237 0.931 . S
C1215 C1214 1.383 . S
C1215 C1216 1.394 . S
C1216 C1215 1.394 . S
C1216 C1217 1.378 . S
C1216 H1238 0.931 . S
C1217 C1212 1.377 . S
C1217 C1216 1.378 . S
C1217 H1239 0.931 . S
C1218 O1228 1.259 . S
C1218 O1229 1.270 . S
C1219 O1230 1.251 . S
C1219 O1231 1.251 . S
O1220 C1200 1.257 . S
O1220 Eu1201 2.473 . S
O1221 C1200 1.260 . S
O1221 Eu1201 2.480 . S
O1222 Eu1201 2.430 . S
O1222 C1208 1.259 . S
O1223 Eu1201 2.670 . S
O1223 C1208 1.270 . S
O1223 Eu1211 2.355 . S
O1224 Eu1201 2.394 . S
O1224 C1209 1.251 . S
O1225 C1209 1.251 . S
O1225 Eu1211 2.374 . S
O1226 C1210 1.257 . S
O1226 Eu1211 2.473 . S
O1227 C1210 1.260 . S
O1227 Eu1211 2.480 . S
O1228 Eu1211 2.430 . S
O1228 C1218 1.259 . S
O1229 Eu1201 2.355 . S
O1229 Eu1211 2.670 . S
O1229 C1218 1.270 . S
O1230 Eu1211 2.394 . S
O1230 C1219 1.251 . S
O1231 Eu1201 2.374 . S
O1231 C1219 1.251 . S
H1232 C1203 0.931 . S
H1233 C1204 0.931 . S
H1234 C1206 0.931 . S
H1235 C1207 0.931 . S
H1236 C1213 0.931 . S
H1237 C1214 0.931 . S
H1238 C1216 0.931 . S
H1239 C1217 0.931 . S
C1240 Eu1241 2.835 . S
C1240 C1242 1.500 . S
C1240 O1260 1.257 . S
C1240 O1261 1.260 . S
Eu1241 C1240 2.835 . S
Eu1241 O1260 2.473 . S
Eu1241 O1261 2.480 . S
Eu1241 O1262 2.430 . S
Eu1241 O1263 2.670 . S
Eu1241 O1264 2.394 . S
Eu1241 O1269 2.355 . S
Eu1241 O1271 2.374 . S
C1242 C1240 1.500 . S
C1242 C1243 1.377 . S
C1242 C1247 1.377 . S
C1243 C1242 1.377 . S
C1243 C1244 1.395 . S
C1243 H1272 0.931 . S
C1244 C1243 1.395 . S
C1244 C1245 1.383 . S
C1244 H1273 0.931 . S
C1245 C1244 1.383 . S
C1245 C1246 1.394 . S
C1246 C1245 1.394 . S
C1246 C1247 1.378 . S
C1246 H1274 0.931 . S
C1247 C1242 1.377 . S
C1247 C1246 1.378 . S
C1247 H1275 0.931 . S
C1248 O1262 1.259 . S
C1248 O1263 1.270 . S
C1249 O1264 1.251 . S
C1249 O1265 1.251 . S
C1250 Eu1251 2.835 . S
C1250 C1252 1.500 . S
C1250 O1266 1.257 . S
C1250 O1267 1.260 . S
Eu1251 C1250 2.835 . S
Eu1251 O1263 2.355 . S
Eu1251 O1265 2.374 . S
Eu1251 O1266 2.473 . S
Eu1251 O1267 2.480 . S
Eu1251 O1268 2.430 . S
Eu1251 O1269 2.670 . S
Eu1251 O1270 2.394 . S
C1252 C1250 1.500 . S
C1252 C1253 1.377 . S
C1252 C1257 1.377 . S
C1253 C1252 1.377 . S
C1253 C1254 1.395 . S
C1253 H1276 0.931 . S
C1254 C1253 1.395 . S
C1254 C1255 1.383 . S
C1254 H1277 0.931 . S
C1255 C1254 1.383 . S
C1255 C1256 1.394 . S
C1256 C1255 1.394 . S
C1256 C1257 1.378 . S
C1256 H1278 0.931 . S
C1257 C1252 1.377 . S
C1257 C1256 1.378 . S
C1257 H1279 0.931 . S
C1258 O1268 1.259 . S
C1258 O1269 1.270 . S
C1259 O1270 1.251 . S
C1259 O1271 1.251 . S
O1260 C1240 1.257 . S
O1260 Eu1241 2.473 . S
O1261 C1240 1.260 . S
O1261 Eu1241 2.480 . S
O1262 Eu1241 2.430 . S
O1262 C1248 1.259 . S
O1263 Eu1241 2.670 . S
O1263 C1248 1.270 . S
O1263 Eu1251 2.355 . S
O1264 Eu1241 2.394 . S
O1264 C1249 1.251 . S
O1265 C1249 1.251 . S
O1265 Eu1251 2.374 . S
O1266 C1250 1.257 . S
O1266 Eu1251 2.473 . S
O1267 C1250 1.260 . S
O1267 Eu1251 2.480 . S
O1268 Eu1251 2.430 . S
O1268 C1258 1.259 . S
O1269 Eu1241 2.355 . S
O1269 Eu1251 2.670 . S
O1269 C1258 1.270 . S
O1270 Eu1251 2.394 . S
O1270 C1259 1.251 . S
O1271 Eu1241 2.374 . S
O1271 C1259 1.251 . S
H1272 C1243 0.931 . S
H1273 C1244 0.931 . S
H1274 C1246 0.931 . S
H1275 C1247 0.931 . S
H1276 C1253 0.931 . S
H1277 C1254 0.931 . S
H1278 C1256 0.931 . S
H1279 C1257 0.931 . S
C1280 C1281 1.387 . S
C1280 H1284 0.950 . S
C1280 C1289 1.390 . S
C1281 C1280 1.387 . S
C1281 C1283 1.387 . S
H1282 C1289 0.950 . S
C1283 C1281 1.387 . S
C1283 C1285 1.390 . S
C1283 H1287 0.950 . S
H1284 C1280 0.950 . S
C1285 C1283 1.390 . S
C1285 C1286 1.387 . S
C1285 H1288 0.950 . S
C1286 C1285 1.387 . S
C1286 C1289 1.387 . S
H1287 C1283 0.950 . S
H1288 C1285 0.950 . S
C1289 C1280 1.390 . S
C1289 H1282 0.950 . S
C1289 C1286 1.387 . S
C1290 C1291 1.387 . S
C1290 H1294 0.950 . S
C1290 C1299 1.390 . S
C1291 C1290 1.387 . S
C1291 C1293 1.387 . S
H1292 C1299 0.950 . S
C1293 C1291 1.387 . S
C1293 C1295 1.390 . S
C1293 H1297 0.950 . S
H1294 C1290 0.950 . S
C1295 C1293 1.390 . S
C1295 C1296 1.387 . S
C1295 H1298 0.950 . S
C1296 C1295 1.387 . S
C1296 C1299 1.387 . S
H1297 C1293 0.950 . S
H1298 C1295 0.950 . S
C1299 C1290 1.390 . S
C1299 H1292 0.950 . S
C1299 C1296 1.387 . S
C1300 C1301 1.387 . S
C1300 H1304 0.950 . S
C1300 C1309 1.390 . S
C1301 C1300 1.387 . S
C1301 C1303 1.387 . S
H1302 C1309 0.950 . S
C1303 C1301 1.387 . S
C1303 C1305 1.390 . S
C1303 H1307 0.950 . S
H1304 C1300 0.950 . S
C1305 C1303 1.390 . S
C1305 C1306 1.387 . S
C1305 H1308 0.950 . S
C1306 C1305 1.387 . S
C1306 C1309 1.387 . S
H1307 C1303 0.950 . S
H1308 C1305 0.950 . S
C1309 C1300 1.390 . S
C1309 H1302 0.950 . S
C1309 C1306 1.387 . S
C1310 C1311 1.387 . S
C1310 H1314 0.950 . S
C1310 C1319 1.390 . S
C1311 C1310 1.387 . S
C1311 C1313 1.387 . S
H1312 C1319 0.950 . S
C1313 C1311 1.387 . S
C1313 C1315 1.390 . S
C1313 H1317 0.950 . S
H1314 C1310 0.950 . S
C1315 C1313 1.390 . S
C1315 C1316 1.387 . S
C1315 H1318 0.950 . S
C1316 C1315 1.387 . S
C1316 C1319 1.387 . S
H1317 C1313 0.950 . S
H1318 C1315 0.950 . S
C1319 C1310 1.390 . S
C1319 H1312 0.950 . S
C1319 C1316 1.387 . S
C1320 C1321 1.387 . S
C1320 H1324 0.950 . S
C1320 C1329 1.390 . S
C1321 C1320 1.387 . S
C1321 C1323 1.387 . S
H1322 C1329 0.950 . S
C1323 C1321 1.387 . S
C1323 C1325 1.390 . S
C1323 H1327 0.950 . S
H1324 C1320 0.950 . S
C1325 C1323 1.390 . S
C1325 C1326 1.387 . S
C1325 H1328 0.950 . S
C1326 C1325 1.387 . S
C1326 C1329 1.387 . S
H1327 C1323 0.950 . S
H1328 C1325 0.950 . S
C1329 C1320 1.390 . S
C1329 H1322 0.950 . S
C1329 C1326 1.387 . S
C1330 C1331 1.387 . S
C1330 H1334 0.950 . S
C1330 C1339 1.390 . S
C1331 C1330 1.387 . S
C1331 C1333 1.387 . S
H1332 C1339 0.950 . S
C1333 C1331 1.387 . S
C1333 C1335 1.390 . S
C1333 H1337 0.950 . S
H1334 C1330 0.950 . S
C1335 C1333 1.390 . S
C1335 C1336 1.387 . S
C1335 H1338 0.950 . S
C1336 C1335 1.387 . S
C1336 C1339 1.387 . S
H1337 C1333 0.950 . S
H1338 C1335 0.950 . S
C1339 C1330 1.390 . S
C1339 H1332 0.950 . S
C1339 C1336 1.387 . S
C1340 C1341 1.387 . S
C1340 H1344 0.950 . S
C1340 C1349 1.390 . S
C1341 C1340 1.387 . S
C1341 C1343 1.387 . S
H1342 C1349 0.950 . S
C1343 C1341 1.387 . S
C1343 C1345 1.390 . S
C1343 H1347 0.950 . S
H1344 C1340 0.950 . S
C1345 C1343 1.390 . S
C1345 C1346 1.387 . S
C1345 H1348 0.950 . S
C1346 C1345 1.387 . S
C1346 C1349 1.387 . S
H1347 C1343 0.950 . S
H1348 C1345 0.950 . S
C1349 C1340 1.390 . S
C1349 H1342 0.950 . S
C1349 C1346 1.387 . S
C1350 C1351 1.387 . S
C1350 H1354 0.950 . S
C1350 C1359 1.390 . S
C1351 C1350 1.387 . S
C1351 C1353 1.387 . S
H1352 C1359 0.950 . S
C1353 C1351 1.387 . S
C1353 C1355 1.390 . S
C1353 H1357 0.950 . S
H1354 C1350 0.950 . S
C1355 C1353 1.390 . S
C1355 C1356 1.387 . S
C1355 H1358 0.950 . S
C1356 C1355 1.387 . S
C1356 C1359 1.387 . S
H1357 C1353 0.950 . S
H1358 C1355 0.950 . S
C1359 C1350 1.390 . S
C1359 H1352 0.950 . S
C1359 C1356 1.387 . S
C1360 C1361 1.387 . S
C1360 H1364 0.950 . S
C1360 C1369 1.390 . S
C1361 C1360 1.387 . S
C1361 C1363 1.387 . S
H1362 C1369 0.950 . S
C1363 C1361 1.387 . S
C1363 C1365 1.390 . S
C1363 H1367 0.950 . S
H1364 C1360 0.950 . S
C1365 C1363 1.390 . S
C1365 C1366 1.387 . S
C1365 H1368 0.950 . S
C1366 C1365 1.387 . S
C1366 C1369 1.387 . S
H1367 C1363 0.950 . S
H1368 C1365 0.950 . S
C1369 C1360 1.390 . S
C1369 H1362 0.950 . S
C1369 C1366 1.387 . S
C1370 C1371 1.387 . S
C1370 H1374 0.950 . S
C1370 C1379 1.390 . S
C1371 C1370 1.387 . S
C1371 C1373 1.387 . S
H1372 C1379 0.950 . S
C1373 C1371 1.387 . S
C1373 C1375 1.390 . S
C1373 H1377 0.950 . S
H1374 C1370 0.950 . S
C1375 C1373 1.390 . S
C1375 C1376 1.387 . S
C1375 H1378 0.950 . S
C1376 C1375 1.387 . S
C1376 C1379 1.387 . S
H1377 C1373 0.950 . S
H1378 C1375 0.950 . S
C1379 C1370 1.390 . S
C1379 H1372 0.950 . S
C1379 C1376 1.387 . S
C1380 C1381 1.387 . S
C1380 H1384 0.950 . S
C1380 C1389 1.390 . S
C1381 C1380 1.387 . S
C1381 C1383 1.387 . S
H1382 C1389 0.950 . S
C1383 C1381 1.387 . S
C1383 C1385 1.390 . S
C1383 H1387 0.950 . S
H1384 C1380 0.950 . S
C1385 C1383 1.390 . S
C1385 C1386 1.387 . S
C1385 H1388 0.950 . S
C1386 C1385 1.387 . S
C1386 C1389 1.387 . S
H1387 C1383 0.950 . S
H1388 C1385 0.950 . S
C1389 C1380 1.390 . S
C1389 H1382 0.950 . S
C1389 C1386 1.387 . S
C1390 C1391 1.387 . S
C1390 H1394 0.950 . S
C1390 C1399 1.390 . S
C1391 C1390 1.387 . S
C1391 C1393 1.387 . S
H1392 C1399 0.950 . S
C1393 C1391 1.387 . S
C1393 C1395 1.390 . S
C1393 H1397 0.950 . S
H1394 C1390 0.950 . S
C1395 C1393 1.390 . S
C1395 C1396 1.387 . S
C1395 H1398 0.950 . S
C1396 C1395 1.387 . S
C1396 C1399 1.387 . S
H1397 C1393 0.950 . S
H1398 C1395 0.950 . S
C1399 C1390 1.390 . S
C1399 H1392 0.950 . S
C1399 C1396 1.387 . S
C1400 C1401 1.387 . S
C1400 H1404 0.950 . S
C1400 C1409 1.390 . S
C1401 C1400 1.387 . S
C1401 C1403 1.387 . S
H1402 C1409 0.950 . S
C1403 C1401 1.387 . S
C1403 C1405 1.390 . S
C1403 H1407 0.950 . S
H1404 C1400 0.950 . S
C1405 C1403 1.390 . S
C1405 C1406 1.387 . S
C1405 H1408 0.950 . S
C1406 C1405 1.387 . S
C1406 C1409 1.387 . S
H1407 C1403 0.950 . S
H1408 C1405 0.950 . S
C1409 C1400 1.390 . S
C1409 H1402 0.950 . S
C1409 C1406 1.387 . S
C1410 C1411 1.387 . S
C1410 H1414 0.950 . S
C1410 C1419 1.390 . S
C1411 C1410 1.387 . S
C1411 C1413 1.387 . S
H1412 C1419 0.950 . S
C1413 C1411 1.387 . S
C1413 C1415 1.390 . S
C1413 H1417 0.950 . S
H1414 C1410 0.950 . S
C1415 C1413 1.390 . S
C1415 C1416 1.387 . S
C1415 H1418 0.950 . S
C1416 C1415 1.387 . S
C1416 C1419 1.387 . S
H1417 C1413 0.950 . S
H1418 C1415 0.950 . S
C1419 C1410 1.390 . S
C1419 H1412 0.950 . S
C1419 C1416 1.387 . S
C1420 C1421 1.387 . S
C1420 H1424 0.950 . S
C1420 C1429 1.390 . S
C1421 C1420 1.387 . S
C1421 C1423 1.387 . S
H1422 C1429 0.950 . S
C1423 C1421 1.387 . S
C1423 C1425 1.390 . S
C1423 H1427 0.950 . S
H1424 C1420 0.950 . S
C1425 C1423 1.390 . S
C1425 C1426 1.387 . S
C1425 H1428 0.950 . S
C1426 C1425 1.387 . S
C1426 C1429 1.387 . S
H1427 C1423 0.950 . S
H1428 C1425 0.950 . S
C1429 C1420 1.390 . S
C1429 H1422 0.950 . S
C1429 C1426 1.387 . S
C1430 C1431 1.387 . S
C1430 H1434 0.950 . S
C1430 C1439 1.390 . S
C1431 C1430 1.387 . S
C1431 C1433 1.387 . S
H1432 C1439 0.950 . S
C1433 C1431 1.387 . S
C1433 C1435 1.390 . S
C1433 H1437 0.950 . S
H1434 C1430 0.950 . S
C1435 C1433 1.390 . S
C1435 C1436 1.387 . S
C1435 H1438 0.950 . S
C1436 C1435 1.387 . S
C1436 C1439 1.387 . S
H1437 C1433 0.950 . S
H1438 C1435 0.950 . S
C1439 C1430 1.390 . S
C1439 H1432 0.950 . S
C1439 C1436 1.387 . S
C1440 C1441 1.387 . S
C1440 H1444 0.950 . S
C1440 C1449 1.390 . S
C1441 C1440 1.387 . S
C1441 C1443 1.387 . S
H1442 C1449 0.950 . S
C1443 C1441 1.387 . S
C1443 C1445 1.390 . S
C1443 H1447 0.950 . S
H1444 C1440 0.950 . S
C1445 C1443 1.390 . S
C1445 C1446 1.387 . S
C1445 H1448 0.950 . S
C1446 C1445 1.387 . S
C1446 C1449 1.387 . S
H1447 C1443 0.950 . S
H1448 C1445 0.950 . S
C1449 C1440 1.390 . S
C1449 H1442 0.950 . S
C1449 C1446 1.387 . S
C1450 C1451 1.387 . S
C1450 H1454 0.950 . S
C1450 C1459 1.390 . S
C1451 C1450 1.387 . S
C1451 C1453 1.387 . S
H1452 C1459 0.950 . S
C1453 C1451 1.387 . S
C1453 C1455 1.390 . S
C1453 H1457 0.950 . S
H1454 C1450 0.950 . S
C1455 C1453 1.390 . S
C1455 C1456 1.387 . S
C1455 H1458 0.950 . S
C1456 C1455 1.387 . S
C1456 C1459 1.387 . S
H1457 C1453 0.950 . S
H1458 C1455 0.950 . S
C1459 C1450 1.390 . S
C1459 H1452 0.950 . S
C1459 C1456 1.387 . S
C1460 C1461 1.387 . S
C1460 H1464 0.950 . S
C1460 C1469 1.390 . S
C1461 C1460 1.387 . S
C1461 C1463 1.387 . S
H1462 C1469 0.950 . S
C1463 C1461 1.387 . S
C1463 C1465 1.390 . S
C1463 H1467 0.950 . S
H1464 C1460 0.950 . S
C1465 C1463 1.390 . S
C1465 C1466 1.387 . S
C1465 H1468 0.950 . S
C1466 C1465 1.387 . S
C1466 C1469 1.387 . S
H1467 C1463 0.950 . S
H1468 C1465 0.950 . S
C1469 C1460 1.390 . S
C1469 H1462 0.950 . S
C1469 C1466 1.387 . S
C1470 C1471 1.387 . S
C1470 H1474 0.950 . S
C1470 C1479 1.390 . S
C1471 C1470 1.387 . S
C1471 C1473 1.387 . S
H1472 C1479 0.950 . S
C1473 C1471 1.387 . S
C1473 C1475 1.390 . S
C1473 H1477 0.950 . S
H1474 C1470 0.950 . S
C1475 C1473 1.390 . S
C1475 C1476 1.387 . S
C1475 H1478 0.950 . S
C1476 C1475 1.387 . S
C1476 C1479 1.387 . S
H1477 C1473 0.950 . S
H1478 C1475 0.950 . S
C1479 C1470 1.390 . S
C1479 H1472 0.950 . S
C1479 C1476 1.387 . S
C1480 C1481 1.387 . S
C1480 H1484 0.950 . S
C1480 C1489 1.390 . S
C1481 C1480 1.387 . S
C1481 C1483 1.387 . S
H1482 C1489 0.950 . S
C1483 C1481 1.387 . S
C1483 C1485 1.390 . S
C1483 H1487 0.950 . S
H1484 C1480 0.950 . S
C1485 C1483 1.390 . S
C1485 C1486 1.387 . S
C1485 H1488 0.950 . S
C1486 C1485 1.387 . S
C1486 C1489 1.387 . S
H1487 C1483 0.950 . S
H1488 C1485 0.950 . S
C1489 C1480 1.390 . S
C1489 H1482 0.950 . S
C1489 C1486 1.387 . S
C1490 C1491 1.387 . S
C1490 H1494 0.950 . S
C1490 C1499 1.390 . S
C1491 C1490 1.387 . S
C1491 C1493 1.387 . S
H1492 C1499 0.950 . S
C1493 C1491 1.387 . S
C1493 C1495 1.390 . S
C1493 H1497 0.950 . S
H1494 C1490 0.950 . S
C1495 C1493 1.390 . S
C1495 C1496 1.387 . S
C1495 H1498 0.950 . S
C1496 C1495 1.387 . S
C1496 C1499 1.387 . S
H1497 C1493 0.950 . S
H1498 C1495 0.950 . S
C1499 C1490 1.390 . S
C1499 H1492 0.950 . S
C1499 C1496 1.387 . S
C1500 C1501 1.387 . S
C1500 H1504 0.950 . S
C1500 C1509 1.390 . S
C1501 C1500 1.387 . S
C1501 C1503 1.387 . S
H1502 C1509 0.950 . S
C1503 C1501 1.387 . S
C1503 C1505 1.390 . S
C1503 H1507 0.950 . S
H1504 C1500 0.950 . S
C1505 C1503 1.390 . S
C1505 C1506 1.387 . S
C1505 H1508 0.950 . S
C1506 C1505 1.387 . S
C1506 C1509 1.387 . S
H1507 C1503 0.950 . S
H1508 C1505 0.950 . S
C1509 C1500 1.390 . S
C1509 H1502 0.950 . S
C1509 C1506 1.387 . S
C1510 C1511 1.387 . S
C1510 H1514 0.950 . S
C1510 C1519 1.390 . S
C1511 C1510 1.387 . S
C1511 C1513 1.387 . S
H1512 C1519 0.950 . S
C1513 C1511 1.387 . S
C1513 C1515 1.390 . S
C1513 H1517 0.950 . S
H1514 C1510 0.950 . S
C1515 C1513 1.390 . S
C1515 C1516 1.387 . S
C1515 H1518 0.950 . S
C1516 C1515 1.387 . S
C1516 C1519 1.387 . S
H1517 C1513 0.950 . S
H1518 C1515 0.950 . S
C1519 C1510 1.390 . S
C1519 H1512 0.950 . S
C1519 C1516 1.387 . S
C1520 C1521 1.387 . S
C1520 H1524 0.950 . S
C1520 C1529 1.390 . S
C1521 C1520 1.387 . S
C1521 C1523 1.387 . S
H1522 C1529 0.950 . S
C1523 C1521 1.387 . S
C1523 C1525 1.390 . S
C1523 H1527 0.950 . S
H1524 C1520 0.950 . S
C1525 C1523 1.390 . S
C1525 C1526 1.387 . S
C1525 H1528 0.950 . S
C1526 C1525 1.387 . S
C1526 C1529 1.387 . S
H1527 C1523 0.950 . S
H1528 C1525 0.950 . S
C1529 C1520 1.390 . S
C1529 H1522 0.950 . S
C1529 C1526 1.387 . S
C1530 C1531 1.387 . S
C1530 H1534 0.950 . S
C1530 C1539 1.390 . S
C1531 C1530 1.387 . S
C1531 C1533 1.387 . S
H1532 C1539 0.950 . S
C1533 C1531 1.387 . S
C1533 C1535 1.390 . S
C1533 H1537 0.950 . S
H1534 C1530 0.950 . S
C1535 C1533 1.390 . S
C1535 C1536 1.387 . S
C1535 H1538 0.950 . S
C1536 C1535 1.387 . S
C1536 C1539 1.387 . S
H1537 C1533 0.950 . S
H1538 C1535 0.950 . S
C1539 C1530 1.390 . S
C1539 H1532 0.950 . S
C1539 C1536 1.387 . S
C1540 C1541 1.387 . S
C1540 H1544 0.950 . S
C1540 C1549 1.390 . S
C1541 C1540 1.387 . S
C1541 C1543 1.387 . S
H1542 C1549 0.950 . S
C1543 C1541 1.387 . S
C1543 C1545 1.390 . S
C1543 H1547 0.950 . S
H1544 C1540 0.950 . S
C1545 C1543 1.390 . S
C1545 C1546 1.387 . S
C1545 H1548 0.950 . S
C1546 C1545 1.387 . S
C1546 C1549 1.387 . S
H1547 C1543 0.950 . S
H1548 C1545 0.950 . S
C1549 C1540 1.390 . S
C1549 H1542 0.950 . S
C1549 C1546 1.387 . S
C1550 C1551 1.387 . S
C1550 H1554 0.950 . S
C1550 C1559 1.390 . S
C1551 C1550 1.387 . S
C1551 C1553 1.387 . S
H1552 C1559 0.950 . S
C1553 C1551 1.387 . S
C1553 C1555 1.390 . S
C1553 H1557 0.950 . S
H1554 C1550 0.950 . S
C1555 C1553 1.390 . S
C1555 C1556 1.387 . S
C1555 H1558 0.950 . S
C1556 C1555 1.387 . S
C1556 C1559 1.387 . S
H1557 C1553 0.950 . S
H1558 C1555 0.950 . S
C1559 C1550 1.390 . S
C1559 H1552 0.950 . S
C1559 C1556 1.387 . S
C1560 C1561 1.387 . S
C1560 H1564 0.950 . S
C1560 C1569 1.390 . S
C1561 C1560 1.387 . S
C1561 C1563 1.387 . S
H1562 C1569 0.950 . S
C1563 C1561 1.387 . S
C1563 C1565 1.390 . S
C1563 H1567 0.950 . S
H1564 C1560 0.950 . S
C1565 C1563 1.390 . S
C1565 C1566 1.387 . S
C1565 H1568 0.950 . S
C1566 C1565 1.387 . S
C1566 C1569 1.387 . S
H1567 C1563 0.950 . S
H1568 C1565 0.950 . S
C1569 C1560 1.390 . S
C1569 H1562 0.950 . S
C1569 C1566 1.387 . S
C1570 C1571 1.387 . S
C1570 H1574 0.950 . S
C1570 C1579 1.390 . S
C1571 C1570 1.387 . S
C1571 C1573 1.387 . S
H1572 C1579 0.950 . S
C1573 C1571 1.387 . S
C1573 C1575 1.390 . S
C1573 H1577 0.950 . S
H1574 C1570 0.950 . S
C1575 C1573 1.390 . S
C1575 C1576 1.387 . S
C1575 H1578 0.950 . S
C1576 C1575 1.387 . S
C1576 C1579 1.387 . S
H1577 C1573 0.950 . S
H1578 C1575 0.950 . S
C1579 C1570 1.390 . S
C1579 H1572 0.950 . S
C1579 C1576 1.387 . S
C1580 C1581 1.387 . S
C1580 H1584 0.950 . S
C1580 C1589 1.390 . S
C1581 C1580 1.387 . S
C1581 C1583 1.387 . S
H1582 C1589 0.950 . S
C1583 C1581 1.387 . S
C1583 C1585 1.390 . S
C1583 H1587 0.950 . S
H1584 C1580 0.950 . S
C1585 C1583 1.390 . S
C1585 C1586 1.387 . S
C1585 H1588 0.950 . S
C1586 C1585 1.387 . S
C1586 C1589 1.387 . S
H1587 C1583 0.950 . S
H1588 C1585 0.950 . S
C1589 C1580 1.390 . S
C1589 H1582 0.950 . S
C1589 C1586 1.387 . S
C1590 C1591 1.387 . S
C1590 H1594 0.950 . S
C1590 C1599 1.390 . S
C1591 C1590 1.387 . S
C1591 C1593 1.387 . S
H1592 C1599 0.950 . S
C1593 C1591 1.387 . S
C1593 C1595 1.390 . S
C1593 H1597 0.950 . S
H1594 C1590 0.950 . S
C1595 C1593 1.390 . S
C1595 C1596 1.387 . S
C1595 H1598 0.950 . S
C1596 C1595 1.387 . S
C1596 C1599 1.387 . S
H1597 C1593 0.950 . S
H1598 C1595 0.950 . S
C1599 C1590 1.390 . S
C1599 H1592 0.950 . S
C1599 C1596 1.387 . S
C1600 C1601 1.387 . S
C1600 H1604 0.950 . S
C1600 C1609 1.390 1_455 S
C1601 C1600 1.387 . S
C1601 C1603 1.387 . S
H1602 C1609 0.950 . S
C1603 C1601 1.387 . S
C1603 C1605 1.390 1_455 S
C1603 H1607 0.950 . S
H1604 C1600 0.950 . S
C1605 C1603 1.390 1_655 S
C1605 C1606 1.387 . S
C1605 H1608 0.950 . S
C1606 C1605 1.387 . S
C1606 C1609 1.387 . S
H1607 C1603 0.950 . S
H1608 C1605 0.950 . S
C1609 C1600 1.390 1_655 S
C1609 H1602 0.950 . S
C1609 C1606 1.387 . S
C1610 C1611 1.387 . S
C1610 H1614 0.950 . S
C1610 C1619 1.390 1_455 S
C1611 C1610 1.387 . S
C1611 C1613 1.387 . S
H1612 C1619 0.950 . S
C1613 C1611 1.387 . S
C1613 C1615 1.390 1_455 S
C1613 H1617 0.950 . S
H1614 C1610 0.950 . S
C1615 C1613 1.390 1_655 S
C1615 C1616 1.387 . S
C1615 H1618 0.950 . S
C1616 C1615 1.387 . S
C1616 C1619 1.387 . S
H1617 C1613 0.950 . S
H1618 C1615 0.950 . S
C1619 C1610 1.390 1_655 S
C1619 H1612 0.950 . S
C1619 C1616 1.387 . S
C1620 C1621 1.387 . S
C1620 H1624 0.950 . S
C1620 C1629 1.390 . S
C1621 C1620 1.387 . S
C1621 C1623 1.387 . S
H1622 C1629 0.950 . S
C1623 C1621 1.387 . S
C1623 C1625 1.390 . S
C1623 H1627 0.950 . S
H1624 C1620 0.950 . S
C1625 C1623 1.390 . S
C1625 C1626 1.387 . S
C1625 H1628 0.950 . S
C1626 C1625 1.387 . S
C1626 C1629 1.387 . S
H1627 C1623 0.950 . S
H1628 C1625 0.950 . S
C1629 C1620 1.390 . S
C1629 H1622 0.950 . S
C1629 C1626 1.387 . S
C1630 C1631 1.387 . S
C1630 H1634 0.950 . S
C1630 C1639 1.390 . S
C1631 C1630 1.387 . S
C1631 C1633 1.387 . S
H1632 C1639 0.950 . S
C1633 C1631 1.387 . S
C1633 C1635 1.390 . S
C1633 H1637 0.950 . S
H1634 C1630 0.950 . S
C1635 C1633 1.390 . S
C1635 C1636 1.387 . S
C1635 H1638 0.950 . S
C1636 C1635 1.387 . S
C1636 C1639 1.387 . S
H1637 C1633 0.950 . S
H1638 C1635 0.950 . S
C1639 C1630 1.390 . S
C1639 H1632 0.950 . S
C1639 C1636 1.387 . S
C1640 C1641 1.387 . S
C1640 H1644 0.950 . S
C1640 C1649 1.390 1_655 S
C1641 C1640 1.387 . S
C1641 C1643 1.387 . S
H1642 C1649 0.950 . S
C1643 C1641 1.387 . S
C1643 C1645 1.390 1_655 S
C1643 H1647 0.950 . S
H1644 C1640 0.950 . S
C1645 C1643 1.390 1_455 S
C1645 C1646 1.387 . S
C1645 H1648 0.950 . S
C1646 C1645 1.387 . S
C1646 C1649 1.387 . S
H1647 C1643 0.950 . S
H1648 C1645 0.950 . S
C1649 C1640 1.390 1_455 S
C1649 H1642 0.950 . S
C1649 C1646 1.387 . S
C1650 C1651 1.387 . S
C1650 H1654 0.950 . S
C1650 C1659 1.390 . S
C1651 C1650 1.387 . S
C1651 C1653 1.387 . S
H1652 C1659 0.950 . S
C1653 C1651 1.387 . S
C1653 C1655 1.390 . S
C1653 H1657 0.950 . S
H1654 C1650 0.950 . S
C1655 C1653 1.390 . S
C1655 C1656 1.387 . S
C1655 H1658 0.950 . S
C1656 C1655 1.387 . S
C1656 C1659 1.387 . S
H1657 C1653 0.950 . S
H1658 C1655 0.950 . S
C1659 C1650 1.390 . S
C1659 H1652 0.950 . S
C1659 C1656 1.387 . S
C1660 C1661 1.387 . S
C1660 H1664 0.950 . S
C1660 C1669 1.390 . S
C1661 C1660 1.387 . S
C1661 C1663 1.387 . S
H1662 C1669 0.950 . S
C1663 C1661 1.387 . S
C1663 C1665 1.390 . S
C1663 H1667 0.950 . S
H1664 C1660 0.950 . S
C1665 C1663 1.390 . S
C1665 C1666 1.387 . S
C1665 H1668 0.950 . S
C1666 C1665 1.387 . S
C1666 C1669 1.387 . S
H1667 C1663 0.950 . S
H1668 C1665 0.950 . S
C1669 C1660 1.390 . S
C1669 H1662 0.950 . S
C1669 C1666 1.387 . S
C1670 C1671 1.387 . S
C1670 H1674 0.950 . S
C1670 C1679 1.390 1_655 S
C1671 C1670 1.387 . S
C1671 C1673 1.387 . S
H1672 C1679 0.950 . S
C1673 C1671 1.387 . S
C1673 C1675 1.390 1_655 S
C1673 H1677 0.950 . S
H1674 C1670 0.950 . S
C1675 C1673 1.390 1_455 S
C1675 C1676 1.387 . S
C1675 H1678 0.950 . S
C1676 C1675 1.387 . S
C1676 C1679 1.387 . S
H1677 C1673 0.950 . S
H1678 C1675 0.950 . S
C1679 C1670 1.390 1_455 S
C1679 H1672 0.950 . S
C1679 C1676 1.387 . S
C1680 C1681 1.387 . S
C1680 H1684 0.950 . S
C1680 C1689 1.390 1_455 S
C1681 C1680 1.387 . S
C1681 C1683 1.387 . S
H1682 C1689 0.950 . S
C1683 C1681 1.387 . S
C1683 C1685 1.390 1_455 S
C1683 H1687 0.950 . S
H1684 C1680 0.950 . S
C1685 C1683 1.390 1_655 S
C1685 C1686 1.387 . S
C1685 H1688 0.950 . S
C1686 C1685 1.387 . S
C1686 C1689 1.387 . S
H1687 C1683 0.950 . S
H1688 C1685 0.950 . S
C1689 C1680 1.390 1_655 S
C1689 H1682 0.950 . S
C1689 C1686 1.387 . S
C1690 C1691 1.387 . S
C1690 H1694 0.950 . S
C1690 C1699 1.390 1_455 S
C1691 C1690 1.387 . S
C1691 C1693 1.387 . S
H1692 C1699 0.950 . S
C1693 C1691 1.387 . S
C1693 C1695 1.390 1_455 S
C1693 H1697 0.950 . S
H1694 C1690 0.950 . S
C1695 C1693 1.390 1_655 S
C1695 C1696 1.387 . S
C1695 H1698 0.950 . S
C1696 C1695 1.387 . S
C1696 C1699 1.387 . S
H1697 C1693 0.950 . S
H1698 C1695 0.950 . S
C1699 C1690 1.390 1_655 S
C1699 H1692 0.950 . S
C1699 C1696 1.387 . S
C1700 C1701 1.387 . S
C1700 H1704 0.950 . S
C1700 C1709 1.390 . S
C1701 C1700 1.387 . S
C1701 C1703 1.387 . S
H1702 C1709 0.950 . S
C1703 C1701 1.387 . S
C1703 C1705 1.390 . S
C1703 H1707 0.950 . S
H1704 C1700 0.950 . S
C1705 C1703 1.390 . S
C1705 C1706 1.387 . S
C1705 H1708 0.950 . S
C1706 C1705 1.387 . S
C1706 C1709 1.387 . S
H1707 C1703 0.950 . S
H1708 C1705 0.950 . S
C1709 C1700 1.390 . S
C1709 H1702 0.950 . S
C1709 C1706 1.387 . S
C1710 C1711 1.387 . S
C1710 H1714 0.950 . S
C1710 C1719 1.390 . S
C1711 C1710 1.387 . S
C1711 C1713 1.387 . S
H1712 C1719 0.950 . S
C1713 C1711 1.387 . S
C1713 C1715 1.390 . S
C1713 H1717 0.950 . S
H1714 C1710 0.950 . S
C1715 C1713 1.390 . S
C1715 C1716 1.387 . S
C1715 H1718 0.950 . S
C1716 C1715 1.387 . S
C1716 C1719 1.387 . S
H1717 C1713 0.950 . S
H1718 C1715 0.950 . S
C1719 C1710 1.390 . S
C1719 H1712 0.950 . S
C1719 C1716 1.387 . S
C1720 C1721 1.387 . S
C1720 H1724 0.950 . S
C1720 C1729 1.390 1_455 S
C1721 C1720 1.387 . S
C1721 C1723 1.387 . S
H1722 C1729 0.950 . S
C1723 C1721 1.387 . S
C1723 C1725 1.390 1_455 S
C1723 H1727 0.950 . S
H1724 C1720 0.950 . S
C1725 C1723 1.390 1_655 S
C1725 C1726 1.387 . S
C1725 H1728 0.950 . S
C1726 C1725 1.387 . S
C1726 C1729 1.387 . S
H1727 C1723 0.950 . S
H1728 C1725 0.950 . S
C1729 C1720 1.390 1_655 S
C1729 H1722 0.950 . S
C1729 C1726 1.387 . S
C1730 C1731 1.387 . S
C1730 H1734 0.950 . S
C1730 C1739 1.390 . S
C1731 C1730 1.387 . S
C1731 C1733 1.387 . S
H1732 C1739 0.950 . S
C1733 C1731 1.387 . S
C1733 C1735 1.390 . S
C1733 H1737 0.950 . S
H1734 C1730 0.950 . S
C1735 C1733 1.390 . S
C1735 C1736 1.387 . S
C1735 H1738 0.950 . S
C1736 C1735 1.387 . S
C1736 C1739 1.387 . S
H1737 C1733 0.950 . S
H1738 C1735 0.950 . S
C1739 C1730 1.390 . S
C1739 H1732 0.950 . S
C1739 C1736 1.387 . S
C1740 C1741 1.387 . S
C1740 H1744 0.950 . S
C1740 C1749 1.390 . S
C1741 C1740 1.387 . S
C1741 C1743 1.387 . S
H1742 C1749 0.950 . S
C1743 C1741 1.387 . S
C1743 C1745 1.390 . S
C1743 H1747 0.950 . S
H1744 C1740 0.950 . S
C1745 C1743 1.390 . S
C1745 C1746 1.387 . S
C1745 H1748 0.950 . S
C1746 C1745 1.387 . S
C1746 C1749 1.387 . S
H1747 C1743 0.950 . S
H1748 C1745 0.950 . S
C1749 C1740 1.390 . S
C1749 H1742 0.950 . S
C1749 C1746 1.387 . S
C1750 C1751 1.387 . S
C1750 H1754 0.950 . S
C1750 C1759 1.390 1_455 S
C1751 C1750 1.387 . S
C1751 C1753 1.387 . S
H1752 C1759 0.950 . S
C1753 C1751 1.387 . S
C1753 C1755 1.390 1_455 S
C1753 H1757 0.950 . S
H1754 C1750 0.950 . S
C1755 C1753 1.390 1_655 S
C1755 C1756 1.387 . S
C1755 H1758 0.950 . S
C1756 C1755 1.387 . S
C1756 C1759 1.387 . S
H1757 C1753 0.950 . S
H1758 C1755 0.950 . S
C1759 C1750 1.390 1_655 S
C1759 H1752 0.950 . S
C1759 C1756 1.387 . S
C1760 C1761 1.387 . S
C1760 H1764 0.950 . S
C1760 C1769 1.390 . S
C1761 C1760 1.387 . S
C1761 C1763 1.387 . S
H1762 C1769 0.950 . S
C1763 C1761 1.387 . S
C1763 C1765 1.390 . S
C1763 H1767 0.950 . S
H1764 C1760 0.950 . S
C1765 C1763 1.390 . S
C1765 C1766 1.387 . S
C1765 H1768 0.950 . S
C1766 C1765 1.387 . S
C1766 C1769 1.387 . S
H1767 C1763 0.950 . S
H1768 C1765 0.950 . S
C1769 C1760 1.390 . S
C1769 H1762 0.950 . S
C1769 C1766 1.387 . S
C1770 C1771 1.387 . S
C1770 H1774 0.950 . S
C1770 C1779 1.390 . S
C1771 C1770 1.387 . S
C1771 C1773 1.388 1_665 S
H1772 C1779 0.950 . S
C1773 C1771 1.388 1_445 S
C1773 C1775 1.390 . S
C1773 H1777 0.950 . S
H1774 C1770 0.950 . S
C1775 C1773 1.390 . S
C1775 C1776 1.387 . S
C1775 H1778 0.950 . S
C1776 C1775 1.387 . S
C1776 C1779 1.388 1_445 S
H1777 C1773 0.950 . S
H1778 C1775 0.950 . S
C1779 C1770 1.390 . S
C1779 H1772 0.950 . S
C1779 C1776 1.388 1_665 S
C1780 C1781 1.387 . S
C1780 H1784 0.950 . S
C1780 C1789 1.390 . S
C1781 C1780 1.387 . S
C1781 C1783 1.387 . S
H1782 C1789 0.950 . S
C1783 C1781 1.387 . S
C1783 C1785 1.390 . S
C1783 H1787 0.950 . S
H1784 C1780 0.950 . S
C1785 C1783 1.390 . S
C1785 C1786 1.387 . S
C1785 H1788 0.950 . S
C1786 C1785 1.387 . S
C1786 C1789 1.387 . S
H1787 C1783 0.950 . S
H1788 C1785 0.950 . S
C1789 C1780 1.390 . S
C1789 H1782 0.950 . S
C1789 C1786 1.387 . S
C1790 C1791 1.389 1_545 S
C1790 H1794 0.950 . S
C1790 C1799 1.390 1_554 S
C1791 C1790 1.389 1_565 S
C1791 C1793 1.386 . S
H1792 C1799 0.950 . S
C1793 C1791 1.386 . S
C1793 C1795 1.390 1_554 S
C1793 H1797 0.950 . S
H1794 C1790 0.950 . S
C1795 C1793 1.390 1_556 S
C1795 C1796 1.389 1_565 S
C1795 H1798 0.950 . S
C1796 C1795 1.389 1_545 S
C1796 C1799 1.386 . S
H1797 C1793 0.950 . S
H1798 C1795 0.950 . S
C1799 C1790 1.390 1_556 S
C1799 H1792 0.950 . S
C1799 C1796 1.386 . S
C1800 C1801 1.387 . S
C1800 H1804 0.950 . S
C1800 C1809 1.390 . S
C1801 C1800 1.387 . S
C1801 C1803 1.387 . S
H1802 C1809 0.950 . S
C1803 C1801 1.387 . S
C1803 C1805 1.390 . S
C1803 H1807 0.950 . S
H1804 C1800 0.950 . S
C1805 C1803 1.390 . S
C1805 C1806 1.387 . S
C1805 H1808 0.950 . S
C1806 C1805 1.387 . S
C1806 C1809 1.387 . S
H1807 C1803 0.950 . S
H1808 C1805 0.950 . S
C1809 C1800 1.390 . S
C1809 H1802 0.950 . S
C1809 C1806 1.387 . S
C1810 C1811 1.387 . S
C1810 H1814 0.950 . S
C1810 C1819 1.390 . S
C1811 C1810 1.387 . S
C1811 C1813 1.388 1_565 S
H1812 C1819 0.950 . S
C1813 C1811 1.388 1_545 S
C1813 C1815 1.390 . S
C1813 H1817 0.950 . S
H1814 C1810 0.950 . S
C1815 C1813 1.390 . S
C1815 C1816 1.387 . S
C1815 H1818 0.950 . S
C1816 C1815 1.387 . S
C1816 C1819 1.388 1_545 S
H1817 C1813 0.950 . S
H1818 C1815 0.950 . S
C1819 C1810 1.390 . S
C1819 H1812 0.950 . S
C1819 C1816 1.388 1_565 S
C1820 C1821 1.387 . S
C1820 H1824 0.950 . S
C1820 C1829 1.390 . S
C1821 C1820 1.387 . S
C1821 C1823 1.387 . S
H1822 C1829 0.950 . S
C1823 C1821 1.387 . S
C1823 C1825 1.390 . S
C1823 H1827 0.950 . S
H1824 C1820 0.950 . S
C1825 C1823 1.390 . S
C1825 C1826 1.387 . S
C1825 H1828 0.950 . S
C1826 C1825 1.387 . S
C1826 C1829 1.387 . S
H1827 C1823 0.950 . S
H1828 C1825 0.950 . S
C1829 C1820 1.390 . S
C1829 H1822 0.950 . S
C1829 C1826 1.387 . S
C1830 C1831 1.389 1_545 S
C1830 H1834 0.950 . S
C1830 C1839 1.389 1_456 S
C1831 C1830 1.389 1_565 S
C1831 C1833 1.387 . S
H1832 C1839 0.950 . S
C1833 C1831 1.387 . S
C1833 C1835 1.389 1_456 S
C1833 H1837 0.950 . S
H1834 C1830 0.950 . S
C1835 C1833 1.389 1_654 S
C1835 C1836 1.389 1_565 S
C1835 H1838 0.950 . S
C1836 C1835 1.389 1_545 S
C1836 C1839 1.387 . S
H1837 C1833 0.950 . S
H1838 C1835 0.950 . S
C1839 C1830 1.389 1_654 S
C1839 H1832 0.950 . S
C1839 C1836 1.387 . S
C1840 C1841 1.387 . S
C1840 H1844 0.950 . S
C1840 C1849 1.390 . S
C1841 C1840 1.387 . S
C1841 C1843 1.387 . S
H1842 C1849 0.950 . S
C1843 C1841 1.387 . S
C1843 C1845 1.390 . S
C1843 H1847 0.950 . S
H1844 C1840 0.950 . S
C1845 C1843 1.390 . S
C1845 C1846 1.387 . S
C1845 H1848 0.950 . S
C1846 C1845 1.387 . S
C1846 C1849 1.387 . S
H1847 C1843 0.950 . S
H1848 C1845 0.950 . S
C1849 C1840 1.390 . S
C1849 H1842 0.950 . S
C1849 C1846 1.387 . S
C1850 C1851 1.387 . S
C1850 H1854 0.950 . S
C1850 C1859 1.390 . S
C1851 C1850 1.387 . S
C1851 C1853 1.387 . S
H1852 C1859 0.950 . S
C1853 C1851 1.387 . S
C1853 C1855 1.390 . S
C1853 H1857 0.950 . S
H1854 C1850 0.950 . S
C1855 C1853 1.390 . S
C1855 C1856 1.387 . S
C1855 H1858 0.950 . S
C1856 C1855 1.387 . S
C1856 C1859 1.387 . S
H1857 C1853 0.950 . S
H1858 C1855 0.950 . S
C1859 C1850 1.390 . S
C1859 H1852 0.950 . S
C1859 C1856 1.387 . S
C1860 C1861 1.387 . S
C1860 H1864 0.950 . S
C1860 C1869 1.390 . S
C1861 C1860 1.387 . S
C1861 C1863 1.387 . S
H1862 C1869 0.950 . S
C1863 C1861 1.387 . S
C1863 C1865 1.390 . S
C1863 H1867 0.950 . S
H1864 C1860 0.950 . S
C1865 C1863 1.390 . S
C1865 C1866 1.387 . S
C1865 H1868 0.950 . S
C1866 C1865 1.387 . S
C1866 C1869 1.387 . S
H1867 C1863 0.950 . S
H1868 C1865 0.950 . S
C1869 C1860 1.390 . S
C1869 H1862 0.950 . S
C1869 C1866 1.387 . S
C1870 C1871 1.387 . S
C1870 H1874 0.950 . S
C1870 C1879 1.390 . S
C1871 C1870 1.387 . S
C1871 C1873 1.387 . S
H1872 C1879 0.950 . S
C1873 C1871 1.387 . S
C1873 C1875 1.390 . S
C1873 H1877 0.950 . S
H1874 C1870 0.950 . S
C1875 C1873 1.390 . S
C1875 C1876 1.387 . S
C1875 H1878 0.950 . S
C1876 C1875 1.387 . S
C1876 C1879 1.387 . S
H1877 C1873 0.950 . S
H1878 C1875 0.950 . S
C1879 C1870 1.390 . S
C1879 H1872 0.950 . S
C1879 C1876 1.387 . S
C1880 C1881 1.387 . S
C1880 H1884 0.950 . S
C1880 C1889 1.390 1_554 S
C1881 C1880 1.387 . S
C1881 C1883 1.387 . S
H1882 C1889 0.950 . S
C1883 C1881 1.387 . S
C1883 C1885 1.390 1_554 S
C1883 H1887 0.950 . S
H1884 C1880 0.950 . S
C1885 C1883 1.390 1_556 S
C1885 C1886 1.387 . S
C1885 H1888 0.950 . S
C1886 C1885 1.387 . S
C1886 C1889 1.387 . S
H1887 C1883 0.950 . S
H1888 C1885 0.950 . S
C1889 C1880 1.390 1_556 S
C1889 H1882 0.950 . S
C1889 C1886 1.387 . S
C1890 C1891 1.388 . S
C1890 H1894 0.951 . S
C1890 C1899 1.389 1_655 S
C1891 C1890 1.388 . S
C1891 C1893 1.388 . S
H1892 C1899 0.950 . S
C1893 C1891 1.388 . S
C1893 C1895 1.389 1_655 S
C1893 H1897 0.950 . S
H1894 C1890 0.951 . S
C1895 C1893 1.389 1_455 S
C1895 C1896 1.388 . S
C1895 H1898 0.951 . S
C1896 C1895 1.388 . S
C1896 C1899 1.388 . S
H1897 C1893 0.950 . S
H1898 C1895 0.951 . S
C1899 C1890 1.389 1_455 S
C1899 H1892 0.950 . S
C1899 C1896 1.388 . S
C1900 C1901 1.387 . S
C1900 H1904 0.950 . S
C1900 C1909 1.390 1_454 S
C1901 C1900 1.387 . S
C1901 C1903 1.387 . S
H1902 C1909 0.950 1_455 S
C1903 C1901 1.387 . S
C1903 C1905 1.390 1_454 S
C1903 H1907 0.950 1_455 S
H1904 C1900 0.950 . S
C1905 C1903 1.390 1_656 S
C1905 C1906 1.387 . S
C1905 H1908 0.950 . S
C1906 C1905 1.387 . S
C1906 C1909 1.387 . S
H1907 C1903 0.950 1_655 S
H1908 C1905 0.950 . S
C1909 C1900 1.390 1_656 S
C1909 H1902 0.950 1_655 S
C1909 C1906 1.387 . S
C1910 C1911 1.387 . S
C1910 H1914 0.950 . S
C1910 C1919 1.390 . S
C1911 C1910 1.387 . S
C1911 C1913 1.387 . S
H1912 C1919 0.950 . S
C1913 C1911 1.387 . S
C1913 C1915 1.390 . S
C1913 H1917 0.950 . S
H1914 C1910 0.950 . S
C1915 C1913 1.390 . S
C1915 C1916 1.387 . S
C1915 H1918 0.950 . S
C1916 C1915 1.387 . S
C1916 C1919 1.387 . S
H1917 C1913 0.950 . S
H1918 C1915 0.950 . S
C1919 C1910 1.390 . S
C1919 H1912 0.950 . S
C1919 C1916 1.387 . S
C1920 C1921 1.387 . S
C1920 H1924 0.950 . S
C1920 C1929 1.390 . S
C1921 C1920 1.387 . S
C1921 C1923 1.387 . S
H1922 C1929 0.950 . S
C1923 C1921 1.387 . S
C1923 C1925 1.390 . S
C1923 H1927 0.950 . S
H1924 C1920 0.950 . S
C1925 C1923 1.390 . S
C1925 C1926 1.387 . S
C1925 H1928 0.950 . S
C1926 C1925 1.387 . S
C1926 C1929 1.387 . S
H1927 C1923 0.950 . S
H1928 C1925 0.950 . S
C1929 C1920 1.390 . S
C1929 H1922 0.950 . S
C1929 C1926 1.387 . S
C1930 C1931 1.387 . S
C1930 H1934 0.950 . S
C1930 C1939 1.390 . S
C1931 C1930 1.387 . S
C1931 C1933 1.387 . S
H1932 C1939 0.950 . S
C1933 C1931 1.387 . S
C1933 C1935 1.390 . S
C1933 H1937 0.950 . S
H1934 C1930 0.950 . S
C1935 C1933 1.390 . S
C1935 C1936 1.387 . S
C1935 H1938 0.950 . S
C1936 C1935 1.387 . S
C1936 C1939 1.387 . S
H1937 C1933 0.950 . S
H1938 C1935 0.950 . S
C1939 C1930 1.390 . S
C1939 H1932 0.950 . S
C1939 C1936 1.387 . S
C1940 C1941 1.387 . S
C1940 H1944 0.950 . S
C1940 C1949 1.390 . S
C1941 C1940 1.387 . S
C1941 C1943 1.387 . S
H1942 C1949 0.950 . S
C1943 C1941 1.387 . S
C1943 C1945 1.390 . S
C1943 H1947 0.950 . S
H1944 C1940 0.950 . S
C1945 C1943 1.390 . S
C1945 C1946 1.387 . S
C1945 H1948 0.950 . S
C1946 C1945 1.387 . S
C1946 C1949 1.387 . S
H1947 C1943 0.950 . S
H1948 C1945 0.950 . S
C1949 C1940 1.390 . S
C1949 H1942 0.950 . S
C1949 C1946 1.387 . S
C1950 C1951 1.387 . S
C1950 H1954 0.950 . S
C1950 C1959 1.390 . S
C1951 C1950 1.387 . S
C1951 C1953 1.387 . S
H1952 C1959 0.950 . S
C1953 C1951 1.387 . S
C1953 C1955 1.390 . S
C1953 H1957 0.950 . S
H1954 C1950 0.950 . S
C1955 C1953 1.390 . S
C1955 C1956 1.387 . S
C1955 H1958 0.950 . S
C1956 C1955 1.387 . S
C1956 C1959 1.387 . S
H1957 C1953 0.950 . S
H1958 C1955 0.950 . S
C1959 C1950 1.390 . S
C1959 H1952 0.950 . S
C1959 C1956 1.387 . S
C1960 C1961 1.387 . S
C1960 H1964 0.950 . S
C1960 C1969 1.390 . S
C1961 C1960 1.387 . S
C1961 C1963 1.387 . S
H1962 C1969 0.950 . S
C1963 C1961 1.387 . S
C1963 C1965 1.390 . S
C1963 H1967 0.950 . S
H1964 C1960 0.950 . S
C1965 C1963 1.390 . S
C1965 C1966 1.387 . S
C1965 H1968 0.950 . S
C1966 C1965 1.387 . S
C1966 C1969 1.387 . S
H1967 C1963 0.950 . S
H1968 C1965 0.950 . S
C1969 C1960 1.390 . S
C1969 H1962 0.950 . S
C1969 C1966 1.387 . S
C1970 C1971 1.387 . S
C1970 H1974 0.950 . S
C1970 C1979 1.390 . S
C1971 C1970 1.387 . S
C1971 C1973 1.387 . S
H1972 C1979 0.950 . S
C1973 C1971 1.387 . S
C1973 C1975 1.390 . S
C1973 H1977 0.950 . S
H1974 C1970 0.950 . S
C1975 C1973 1.390 . S
C1975 C1976 1.387 . S
C1975 H1978 0.950 . S
C1976 C1975 1.387 . S
C1976 C1979 1.387 . S
H1977 C1973 0.950 . S
H1978 C1975 0.950 . S
C1979 C1970 1.390 . S
C1979 H1972 0.950 . S
C1979 C1976 1.387 . S
C1980 C1981 1.387 . S
C1980 H1984 0.950 . S
C1980 C1989 1.390 . S
C1981 C1980 1.387 . S
C1981 C1983 1.387 . S
H1982 C1989 0.950 . S
C1983 C1981 1.387 . S
C1983 C1985 1.390 . S
C1983 H1987 0.950 . S
H1984 C1980 0.950 . S
C1985 C1983 1.390 . S
C1985 C1986 1.387 . S
C1985 H1988 0.950 . S
C1986 C1985 1.387 . S
C1986 C1989 1.387 . S
H1987 C1983 0.950 . S
H1988 C1985 0.950 . S
C1989 C1980 1.390 . S
C1989 H1982 0.950 . S
C1989 C1986 1.387 . S
C1990 C1991 1.387 . S
C1990 H1994 0.950 . S
C1990 C1999 1.390 . S
C1991 C1990 1.387 . S
C1991 C1993 1.387 . S
H1992 C1999 0.950 . S
C1993 C1991 1.387 . S
C1993 C1995 1.390 . S
C1993 H1997 0.950 . S
H1994 C1990 0.950 . S
C1995 C1993 1.390 . S
C1995 C1996 1.387 . S
C1995 H1998 0.950 . S
C1996 C1995 1.387 . S
C1996 C1999 1.387 . S
H1997 C1993 0.950 . S
H1998 C1995 0.950 . S
C1999 C1990 1.390 . S
C1999 H1992 0.950 . S
C1999 C1996 1.387 . S
C2000 C2001 1.387 . S
C2000 H2004 0.950 . S
C2000 C2009 1.390 . S
C2001 C2000 1.387 . S
C2001 C2003 1.387 . S
H2002 C2009 0.950 . S
C2003 C2001 1.387 . S
C2003 C2005 1.390 . S
C2003 H2007 0.950 . S
H2004 C2000 0.950 . S
C2005 C2003 1.390 . S
C2005 C2006 1.387 . S
C2005 H2008 0.950 . S
C2006 C2005 1.387 . S
C2006 C2009 1.387 . S
H2007 C2003 0.950 . S
H2008 C2005 0.950 . S
C2009 C2000 1.390 . S
C2009 H2002 0.950 . S
C2009 C2006 1.387 . S
C2010 C2011 1.387 . S
C2010 H2014 0.950 . S
C2010 C2019 1.390 . S
C2011 C2010 1.387 . S
C2011 C2013 1.387 . S
H2012 C2019 0.950 . S
C2013 C2011 1.387 . S
C2013 C2015 1.390 . S
C2013 H2017 0.950 . S
H2014 C2010 0.950 . S
C2015 C2013 1.390 . S
C2015 C2016 1.387 . S
C2015 H2018 0.950 . S
C2016 C2015 1.387 . S
C2016 C2019 1.387 . S
H2017 C2013 0.950 . S
H2018 C2015 0.950 . S
C2019 C2010 1.390 . S
C2019 H2012 0.950 . S
C2019 C2016 1.387 . S
C2020 C2021 1.387 . S
C2020 H2024 0.950 . S
C2020 C2029 1.390 . S
C2021 C2020 1.387 . S
C2021 C2023 1.387 . S
H2022 C2029 0.950 . S
C2023 C2021 1.387 . S
C2023 C2025 1.390 . S
C2023 H2027 0.950 . S
H2024 C2020 0.950 . S
C2025 C2023 1.390 . S
C2025 C2026 1.387 . S
C2025 H2028 0.950 . S
C2026 C2025 1.387 . S
C2026 C2029 1.387 . S
H2027 C2023 0.950 . S
H2028 C2025 0.950 . S
C2029 C2020 1.390 . S
C2029 H2022 0.950 . S
C2029 C2026 1.387 . S
C2030 C2031 1.387 . S
C2030 H2034 0.950 . S
C2030 C2039 1.390 . S
C2031 C2030 1.387 . S
C2031 C2033 1.387 . S
H2032 C2039 0.950 . S
C2033 C2031 1.387 . S
C2033 C2035 1.390 . S
C2033 H2037 0.950 . S
H2034 C2030 0.950 . S
C2035 C2033 1.390 . S
C2035 C2036 1.387 . S
C2035 H2038 0.950 . S
C2036 C2035 1.387 . S
C2036 C2039 1.387 . S
H2037 C2033 0.950 . S
H2038 C2035 0.950 . S
C2039 C2030 1.390 . S
C2039 H2032 0.950 . S
C2039 C2036 1.387 . S
C2040 C2041 1.387 . S
C2040 H2044 0.950 . S
C2040 C2049 1.390 . S
C2041 C2040 1.387 . S
C2041 C2043 1.387 . S
H2042 C2049 0.950 . S
C2043 C2041 1.387 . S
C2043 C2045 1.390 . S
C2043 H2047 0.950 . S
H2044 C2040 0.950 . S
C2045 C2043 1.390 . S
C2045 C2046 1.387 . S
C2045 H2048 0.950 . S
C2046 C2045 1.387 . S
C2046 C2049 1.387 . S
H2047 C2043 0.950 . S
H2048 C2045 0.950 . S
C2049 C2040 1.390 . S
C2049 H2042 0.950 . S
C2049 C2046 1.387 . S
C2050 C2051 1.387 . S
C2050 H2054 0.950 . S
C2050 C2059 1.390 . S
C2051 C2050 1.387 . S
C2051 C2053 1.387 . S
H2052 C2059 0.950 . S
C2053 C2051 1.387 . S
C2053 C2055 1.390 . S
C2053 H2057 0.950 . S
H2054 C2050 0.950 . S
C2055 C2053 1.390 . S
C2055 C2056 1.387 . S
C2055 H2058 0.950 . S
C2056 C2055 1.387 . S
C2056 C2059 1.387 . S
H2057 C2053 0.950 . S
H2058 C2055 0.950 . S
C2059 C2050 1.390 . S
C2059 H2052 0.950 . S
C2059 C2056 1.387 . S
C2060 C2061 1.387 . S
C2060 H2064 0.950 . S
C2060 C2069 1.390 . S
C2061 C2060 1.387 . S
C2061 C2063 1.387 . S
H2062 C2069 0.950 . S
C2063 C2061 1.387 . S
C2063 C2065 1.390 . S
C2063 H2067 0.950 . S
H2064 C2060 0.950 . S
C2065 C2063 1.390 . S
C2065 C2066 1.387 . S
C2065 H2068 0.950 . S
C2066 C2065 1.387 . S
C2066 C2069 1.387 . S
H2067 C2063 0.950 . S
H2068 C2065 0.950 . S
C2069 C2060 1.390 . S
C2069 H2062 0.950 . S
C2069 C2066 1.387 . S
C2070 C2071 1.387 . S
C2070 H2074 0.950 . S
C2070 C2079 1.390 . S
C2071 C2070 1.387 . S
C2071 C2073 1.387 . S
H2072 C2079 0.950 . S
C2073 C2071 1.387 . S
C2073 C2075 1.390 . S
C2073 H2077 0.950 . S
H2074 C2070 0.950 . S
C2075 C2073 1.390 . S
C2075 C2076 1.387 . S
C2075 H2078 0.950 . S
C2076 C2075 1.387 . S
C2076 C2079 1.387 . S
H2077 C2073 0.950 . S
H2078 C2075 0.950 . S
C2079 C2070 1.390 . S
C2079 H2072 0.950 . S
C2079 C2076 1.387 . S
C2080 C2081 1.387 . S
C2080 H2084 0.950 . S
C2080 C2089 1.390 1_545 S
C2081 C2080 1.387 . S
C2081 C2083 1.387 . S
H2082 C2089 0.950 . S
C2083 C2081 1.387 . S
C2083 C2085 1.390 1_545 S
C2083 H2087 0.950 . S
H2084 C2080 0.950 . S
C2085 C2083 1.390 1_565 S
C2085 C2086 1.387 . S
C2085 H2088 0.950 . S
C2086 C2085 1.387 . S
C2086 C2089 1.387 . S
H2087 C2083 0.950 . S
H2088 C2085 0.950 . S
C2089 C2080 1.390 1_565 S
C2089 H2082 0.950 . S
C2089 C2086 1.387 . S
C2090 C2091 1.387 . S
C2090 H2094 0.950 . S
C2090 C2099 1.390 . S
C2091 C2090 1.387 . S
C2091 C2093 1.387 1_545 S
H2092 C2099 0.950 . S
C2093 C2091 1.387 1_565 S
C2093 C2095 1.390 . S
C2093 H2097 0.950 . S
H2094 C2090 0.950 . S
C2095 C2093 1.390 . S
C2095 C2096 1.387 1_565 S
C2095 H2098 0.950 . S
C2096 C2095 1.387 1_545 S
C2096 C2099 1.387 . S
H2097 C2093 0.950 . S
H2098 C2095 0.950 . S
C2099 C2090 1.390 . S
C2099 H2092 0.950 . S
C2099 C2096 1.387 . S
C2100 C2101 1.387 . S
C2100 H2104 0.950 . S
C2100 C2109 1.390 1_545 S
C2101 C2100 1.387 . S
C2101 C2103 1.387 . S
H2102 C2109 0.950 . S
C2103 C2101 1.387 . S
C2103 C2105 1.390 1_545 S
C2103 H2107 0.950 . S
H2104 C2100 0.950 . S
C2105 C2103 1.390 1_565 S
C2105 C2106 1.387 . S
C2105 H2108 0.950 . S
C2106 C2105 1.387 . S
C2106 C2109 1.387 . S
H2107 C2103 0.950 . S
H2108 C2105 0.950 . S
C2109 C2100 1.390 1_565 S
C2109 H2102 0.950 . S
C2109 C2106 1.387 . S
C2110 C2111 1.387 . S
C2110 H2114 0.950 . S
C2110 C2119 1.390 1_556 S
C2111 C2110 1.387 . S
C2111 C2113 1.387 1_565 S
H2112 C2119 0.950 . S
C2113 C2111 1.387 1_545 S
C2113 C2115 1.390 1_556 S
C2113 H2117 0.950 . S
H2114 C2110 0.950 . S
C2115 C2113 1.390 1_554 S
C2115 C2116 1.387 1_545 S
C2115 H2118 0.950 . S
C2116 C2115 1.387 1_565 S
C2116 C2119 1.387 . S
H2117 C2113 0.950 . S
H2118 C2115 0.950 . S
C2119 C2110 1.390 1_554 S
C2119 H2112 0.950 . S
C2119 C2116 1.387 . S
C2120 C2121 1.387 . S
C2120 H2124 0.950 . S
C2120 C2129 1.390 1_565 S
C2121 C2120 1.387 . S
C2121 C2123 1.387 . S
H2122 C2129 0.950 . S
C2123 C2121 1.387 . S
C2123 C2125 1.390 1_565 S
C2123 H2127 0.950 . S
H2124 C2120 0.950 . S
C2125 C2123 1.390 1_545 S
C2125 C2126 1.387 . S
C2125 H2128 0.950 . S
C2126 C2125 1.387 . S
C2126 C2129 1.387 . S
H2127 C2123 0.950 . S
H2128 C2125 0.950 . S
C2129 C2120 1.390 1_545 S
C2129 H2122 0.950 . S
C2129 C2126 1.387 . S
C2130 C2131 1.387 . S
C2130 H2134 0.950 . S
C2130 C2139 1.390 . S
C2131 C2130 1.387 . S
C2131 C2133 1.387 1_565 S
H2132 C2139 0.950 . S
C2133 C2131 1.387 1_545 S
C2133 C2135 1.390 . S
C2133 H2137 0.950 . S
H2134 C2130 0.950 . S
C2135 C2133 1.390 . S
C2135 C2136 1.387 1_545 S
C2135 H2138 0.950 . S
C2136 C2135 1.387 1_565 S
C2136 C2139 1.387 . S
H2137 C2133 0.950 . S
H2138 C2135 0.950 . S
C2139 C2130 1.390 . S
C2139 H2132 0.950 . S
C2139 C2136 1.387 . S
C2140 C2141 1.387 . S
C2140 H2144 0.950 . S
C2140 C2149 1.390 1_565 S
C2141 C2140 1.387 . S
C2141 C2143 1.387 . S
H2142 C2149 0.950 . S
C2143 C2141 1.387 . S
C2143 C2145 1.390 1_565 S
C2143 H2147 0.950 . S
H2144 C2140 0.950 . S
C2145 C2143 1.390 1_545 S
C2145 C2146 1.387 . S
C2145 H2148 0.950 . S
C2146 C2145 1.387 . S
C2146 C2149 1.387 . S
H2147 C2143 0.950 . S
H2148 C2145 0.950 . S
C2149 C2140 1.390 1_545 S
C2149 H2142 0.950 . S
C2149 C2146 1.387 . S
C2150 C2151 1.387 . S
C2150 H2154 0.950 . S
C2150 C2159 1.390 1_554 S
C2151 C2150 1.387 . S
C2151 C2153 1.387 1_545 S
H2152 C2159 0.950 . S
C2153 C2151 1.387 1_565 S
C2153 C2155 1.390 1_554 S
C2153 H2157 0.950 . S
H2154 C2150 0.950 . S
C2155 C2153 1.390 1_556 S
C2155 C2156 1.387 1_565 S
C2155 H2158 0.950 . S
C2156 C2155 1.387 1_545 S
C2156 C2159 1.387 . S
H2157 C2153 0.950 . S
H2158 C2155 0.950 . S
C2159 C2150 1.390 1_556 S
C2159 H2152 0.950 . S
C2159 C2156 1.387 . S
C2160 C2161 1.387 . S
C2160 H2164 0.950 . S
C2160 C2169 1.390 . S
C2161 C2160 1.387 . S
C2161 C2163 1.387 . S
H2162 C2169 0.950 . S
C2163 C2161 1.387 . S
C2163 C2165 1.390 . S
C2163 H2167 0.950 . S
H2164 C2160 0.950 . S
C2165 C2163 1.390 . S
C2165 C2166 1.387 . S
C2165 H2168 0.950 . S
C2166 C2165 1.387 . S
C2166 C2169 1.387 . S
H2167 C2163 0.950 . S
H2168 C2165 0.950 . S
C2169 C2160 1.390 . S
C2169 H2162 0.950 . S
C2169 C2166 1.387 . S
C2170 C2171 1.387 . S
C2170 H2174 0.950 . S
C2170 C2179 1.390 1_556 S
C2171 C2170 1.387 . S
C2171 C2173 1.387 . S
H2172 C2179 0.950 . S
C2173 C2171 1.387 . S
C2173 C2175 1.390 1_556 S
C2173 H2177 0.950 . S
H2174 C2170 0.950 . S
C2175 C2173 1.390 1_554 S
C2175 C2176 1.387 . S
C2175 H2178 0.950 . S
C2176 C2175 1.387 . S
C2176 C2179 1.387 . S
H2177 C2173 0.950 . S
H2178 C2175 0.950 . S
C2179 C2170 1.390 1_554 S
C2179 H2172 0.950 . S
C2179 C2176 1.387 . S
C2180 C2181 1.387 . S
C2180 H2184 0.950 . S
C2180 C2189 1.390 . S
C2181 C2180 1.387 . S
C2181 C2183 1.387 . S
H2182 C2189 0.950 . S
C2183 C2181 1.387 . S
C2183 C2185 1.390 . S
C2183 H2187 0.950 . S
H2184 C2180 0.950 . S
C2185 C2183 1.390 . S
C2185 C2186 1.387 . S
C2185 H2188 0.950 . S
C2186 C2185 1.387 . S
C2186 C2189 1.387 . S
H2187 C2183 0.950 . S
H2188 C2185 0.950 . S
C2189 C2180 1.390 . S
C2189 H2182 0.950 . S
C2189 C2186 1.387 . S
C2190 C2191 1.387 . S
C2190 H2194 0.950 . S
C2190 C2199 1.390 . S
C2191 C2190 1.387 . S
C2191 C2193 1.387 . S
H2192 C2199 0.950 . S
C2193 C2191 1.387 . S
C2193 C2195 1.390 . S
C2193 H2197 0.950 . S
H2194 C2190 0.950 . S
C2195 C2193 1.390 . S
C2195 C2196 1.387 . S
C2195 H2198 0.950 . S
C2196 C2195 1.387 . S
C2196 C2199 1.387 . S
H2197 C2193 0.950 . S
H2198 C2195 0.950 . S
C2199 C2190 1.390 . S
C2199 H2192 0.950 . S
C2199 C2196 1.387 . S
C2200 C2201 1.387 . S
C2200 H2204 0.950 . S
C2200 C2209 1.390 . S
C2201 C2200 1.387 . S
C2201 C2203 1.387 . S
H2202 C2209 0.950 . S
C2203 C2201 1.387 . S
C2203 C2205 1.390 . S
C2203 H2207 0.950 . S
H2204 C2200 0.950 . S
C2205 C2203 1.390 . S
C2205 C2206 1.387 . S
C2205 H2208 0.950 . S
C2206 C2205 1.387 . S
C2206 C2209 1.387 . S
H2207 C2203 0.950 . S
H2208 C2205 0.950 . S
C2209 C2200 1.390 . S
C2209 H2202 0.950 . S
C2209 C2206 1.387 . S
C2210 C2211 1.387 . S
C2210 H2214 0.950 . S
C2210 C2219 1.390 1_556 S
C2211 C2210 1.387 . S
C2211 C2213 1.387 . S
H2212 C2219 0.950 . S
C2213 C2211 1.387 . S
C2213 C2215 1.390 1_556 S
C2213 H2217 0.950 . S
H2214 C2210 0.950 . S
C2215 C2213 1.390 1_554 S
C2215 C2216 1.387 . S
C2215 H2218 0.950 . S
C2216 C2215 1.387 . S
C2216 C2219 1.387 . S
H2217 C2213 0.950 . S
H2218 C2215 0.950 . S
C2219 C2210 1.390 1_554 S
C2219 H2212 0.950 . S
C2219 C2216 1.387 . S
C2220 C2221 1.387 . S
C2220 H2224 0.950 . S
C2220 C2229 1.390 . S
C2221 C2220 1.387 . S
C2221 C2223 1.387 . S
H2222 C2229 0.950 . S
C2223 C2221 1.387 . S
C2223 C2225 1.390 . S
C2223 H2227 0.950 . S
H2224 C2220 0.950 . S
C2225 C2223 1.390 . S
C2225 C2226 1.387 . S
C2225 H2228 0.950 . S
C2226 C2225 1.387 . S
C2226 C2229 1.387 . S
H2227 C2223 0.950 . S
H2228 C2225 0.950 . S
C2229 C2220 1.390 . S
C2229 H2222 0.950 . S
C2229 C2226 1.387 . S
C2230 C2231 1.387 . S
C2230 H2234 0.950 . S
C2230 C2239 1.390 . S
C2231 C2230 1.387 . S
C2231 C2233 1.387 . S
H2232 C2239 0.950 . S
C2233 C2231 1.387 . S
C2233 C2235 1.390 . S
C2233 H2237 0.950 . S
H2234 C2230 0.950 . S
C2235 C2233 1.390 . S
C2235 C2236 1.387 . S
C2235 H2238 0.950 . S
C2236 C2235 1.387 . S
C2236 C2239 1.387 . S
H2237 C2233 0.950 . S
H2238 C2235 0.950 . S
C2239 C2230 1.390 . S
C2239 H2232 0.950 . S
C2239 C2236 1.387 . S
C1281 C15 0.937 . S
C1286 C1089 0.904 . S
C1291 C55 0.935 . S
C1296 C329 0.902 . S
C1301 C95 0.937 . S
C1306 C1009 0.904 . S
C1311 C409 0.901 . S
C1316 C135 0.934 . S
C1321 C175 0.936 . S
C1326 C1169 0.904 . S
C1331 C569 0.903 . S
C1336 C215 0.936 . S
C1341 C1249 0.895 . S
C1346 C255 0.929 . S
C1351 C295 0.929 . S
C1356 C489 0.895 . S
C1361 C325 0.937 . S
C1366 C779 0.904 . S
C1371 C365 0.929 . S
C1376 C19 0.896 . S
C1381 C699 0.895 . S
C1386 C405 0.929 . S
C1391 C99 0.904 . S
C1396 C445 0.937 . S
C1401 C485 0.937 . S
C1406 C859 0.904 . S
C1411 C525 0.931 . S
C1416 C259 0.897 . S
C1421 C565 0.936 . S
C1426 C939 0.903 . S
C1431 C179 0.902 . S
C1436 C605 0.935 . S
C1441 C449 0.904 . S
C1446 C655 0.936 . S
C1451 C969 0.899 . S
C1456 C695 0.931 . S
C1461 C369 0.894 . S
C1466 C735 0.928 . S
C1471 C775 0.930 . S
C1476 C1049 0.896 . S
C1481 C529 0.894 . S
C1486 C815 0.928 . S
C1491 C1209 0.899 . S
C1496 C855 0.933 . S
C1501 C609 0.901 . S
C1506 C895 0.935 . S
C1511 C935 0.937 . S
C1516 C1129 0.904 . S
C1521 C965 0.928 . S
C1526 C139 0.894 . S
C1531 C1005 0.928 . S
C1536 C659 0.895 . S
C1541 C1045 0.928 . S
C1546 C59 0.894 . S
C1551 C1085 0.928 . S
C1556 C739 0.894 . S
C1561 C219 0.895 . S
C1566 C1125 0.929 . S
C1571 C899 0.902 . S
C1576 C1165 0.934 . S
C1581 C1205 0.936 . S
C1586 C299 0.903 . S
C1591 C1245 0.928 . S
C1596 C819 0.894 . S
C1601 C8 3.096 . S
C1606 C728 3.096 . S
C1611 C768 3.094 1_455 S
C1616 C48 3.094 1_655 S
C1621 C88 3.096 . S
C1626 C648 3.096 . S
C1631 C128 3.094 . S
C1636 C688 3.094 . S
C1641 C888 3.094 . S
C1646 C168 3.094 . S
C1651 C208 3.094 . S
C1656 C928 3.094 . S
C1661 C808 3.096 . S
C1666 C248 3.096 . S
C1671 C288 3.096 1_655 S
C1676 C848 3.096 1_455 S
C1681 C1058 3.096 . S
C1686 C338 3.096 . S
C1691 C378 3.094 1_455 S
C1696 C1098 3.094 1_655 S
C1701 C418 3.094 . S
C1706 C978 3.094 . S
C1711 C458 3.094 . S
C1716 C1018 3.094 . S
C1721 C1218 3.096 . S
C1726 C498 3.096 . S
C1731 C1258 3.097 . S
C1736 C538 3.097 . S
C1741 C578 3.094 . S
C1746 C1138 3.094 . S
C1751 C618 3.096 1_455 S
C1756 C1178 3.096 1_655 S
C1761 C9 3.427 . S
C1766 C979 3.427 . S
C1771 C379 3.427 1_565 S
C1776 C49 3.427 1_545 S
C1781 C89 3.427 . S
C1786 C1059 3.427 . S
C1791 C129 3.427 1_565 S
C1796 C459 3.427 1_545 S
C1801 C1139 3.427 . S
C1806 C169 3.427 . S
C1811 C539 3.427 1_565 S
C1816 C209 3.427 1_545 S
C1821 C249 3.427 . S
C1826 C1219 3.427 . S
C1831 C289 3.427 1_565 S
C1836 C619 3.427 1_545 S
C1841 C649 3.427 . S
C1846 C339 3.427 . S
C1851 C729 3.427 . S
C1856 C419 3.427 . S
C1861 C809 3.427 . S
C1866 C499 3.427 . S
C1871 C579 3.427 . S
C1876 C889 3.427 . S
C1881 C689 3.427 . S
C1886 C1019 3.427 . S
C1891 C769 3.427 . S
C1896 C1099 3.427 . S
C1901 C1179 3.428 . S
C1906 C849 3.428 . S
C1911 C1259 3.427 . S
C1916 C929 3.427 . S
C1921 C18 4.570 . S
C1926 C218 4.571 . S
C1931 C258 4.570 . S
C1936 C58 4.570 . S
C1941 C298 4.571 . S
C1946 C98 4.571 . S
C1951 C178 4.570 . S
C1956 C138 4.570 . S
C1961 C328 4.571 . S
C1966 C528 4.571 . S
C1971 C368 4.570 . S
C1976 C568 4.570 . S
C1981 C608 4.571 . S
C1986 C408 4.571 . S
C1991 C448 4.570 . S
C1996 C488 4.570 . S
C2001 C658 4.570 . S
C2006 C858 4.570 . S
C2011 C698 4.571 . S
C2016 C898 4.571 . S
C2021 C738 4.570 . S
C2026 C938 4.570 . S
C2031 C818 4.571 . S
C2036 C778 4.571 . S
C2041 C968 4.571 . S
C2046 C1168 4.571 . S
C2051 C1008 4.570 . S
C2056 C1208 4.571 . S
C2061 C1248 4.570 . S
C2066 C1048 4.570 . S
C2071 C1088 4.570 . S
C2076 C1128 4.571 . S
C2081 C5 0.584 . S
C2086 C165 0.584 . S
C2091 C45 0.593 1_545 S
C2096 C205 0.593 1_545 S
C2101 C245 0.593 . S
C2106 C85 0.593 . S
C2111 C285 0.593 1_565 S
C2116 C125 0.593 1_565 S
C2121 C335 0.593 . S
C2126 C495 0.593 . S
C2131 C535 0.584 1_565 S
C2136 C375 0.584 1_565 S
C2141 C575 0.584 . S
C2146 C415 0.584 . S
C2151 C615 0.584 1_545 S
C2156 C455 0.584 1_545 S
C2161 C645 0.593 . S
C2166 C805 0.593 . S
C2171 C845 0.584 . S
C2176 C685 0.584 . S
C2181 C725 0.584 . S
C2186 C885 0.584 . S
C2191 C925 0.593 . S
C2196 C765 0.593 . S
C2201 C1135 0.584 . S
C2206 C975 0.584 . S
C2211 C1015 0.584 . S
C2216 C1175 0.584 . S
C2221 C1055 0.593 . S
C2226 C1215 0.593 . S
C2231 C1095 0.593 . S
C2236 C1255 0.593 . S
