# Generated by pormake.
# Topology afw, (4)-cn, num edge types: 1
# Building blocks:
#     Node 0, Type 0, BuildingBlock: TATPOV_clean_sbu_0, # of connection points: 4
#     Node 1, Type 0, BuildingBlock: TATPOV_clean_sbu_0, # of connection points: 4
#     Node 2, Type 0, BuildingBlock: TATPOV_clean_sbu_0, # of connection points: 4
#     Node 3, Type 0, BuildingBlock: TATPOV_clean_sbu_0, # of connection points: 4
#     Node 4, Type 0, BuildingBlock: TATPOV_clean_sbu_0, # of connection points: 4
#     Node 5, Type 0, BuildingBlock: TATPOV_clean_sbu_0, # of connection points: 4
#     Node 6, Type 0, BuildingBlock: TATPOV_clean_sbu_0, # of connection points: 4
#     Node 7, Type 0, BuildingBlock: TATPOV_clean_sbu_0, # of connection points: 4
#     Node 8, Type 0, BuildingBlock: TATPOV_clean_sbu_0, # of connection points: 4
#     Edge 9, Type (0, 0), BuildingBlock: FUNLAD_clean_linker_0, # of connection points: 2
#     Edge 10, Type (0, 0), BuildingBlock: FUNLAD_clean_linker_0, # of connection points: 2
#     Edge 11, Type (0, 0), BuildingBlock: FUNLAD_clean_linker_0, # of connection points: 2
#     Edge 12, Type (0, 0), BuildingBlock: FUNLAD_clean_linker_0, # of connection points: 2
#     Edge 13, Type (0, 0), BuildingBlock: FUNLAD_clean_linker_0, # of connection points: 2
#     Edge 14, Type (0, 0), BuildingBlock: FUNLAD_clean_linker_0, # of connection points: 2
#     Edge 15, Type (0, 0), BuildingBlock: FUNLAD_clean_linker_0, # of connection points: 2
#     Edge 16, Type (0, 0), BuildingBlock: FUNLAD_clean_linker_0, # of connection points: 2
#     Edge 17, Type (0, 0), BuildingBlock: FUNLAD_clean_linker_0, # of connection points: 2
#     Edge 18, Type (0, 0), BuildingBlock: FUNLAD_clean_linker_0, # of connection points: 2
#     Edge 19, Type (0, 0), BuildingBlock: FUNLAD_clean_linker_0, # of connection points: 2
#     Edge 20, Type (0, 0), BuildingBlock: FUNLAD_clean_linker_0, # of connection points: 2
#     Edge 21, Type (0, 0), BuildingBlock: FUNLAD_clean_linker_0, # of connection points: 2
#     Edge 22, Type (0, 0), BuildingBlock: FUNLAD_clean_linker_0, # of connection points: 2
#     Edge 23, Type (0, 0), BuildingBlock: FUNLAD_clean_linker_0, # of connection points: 2
#     Edge 24, Type (0, 0), BuildingBlock: FUNLAD_clean_linker_0, # of connection points: 2
#     Edge 25, Type (0, 0), BuildingBlock: FUNLAD_clean_linker_0, # of connection points: 2
#     Edge 26, Type (0, 0), BuildingBlock: FUNLAD_clean_linker_0, # of connection points: 2
# Relax obj value: 0.194
# Max RMSD: 0.219
# Mean RMSD: 0.214
data_MOF--net-afw--node1-TATPOV_clean_sbu_0--edge1-FUNLAD_clean_linker_0
_symmetry_space_group_name_H-M    P1
_symmetry_Int_Tables_number       1
_symmetry_cell_setting            triclinic
loop_
_symmetry_equiv_pos_as_xyz
'x, y, z'
_cell_length_a     47.218517
_cell_length_b     46.000825
_cell_length_c     41.38712
_cell_angle_alpha  90.057394
_cell_angle_beta   90.453765
_cell_angle_gamma 120.33136
loop_
_atom_site_label
_atom_site_type_symbol
_atom_site_fract_x
_atom_site_fract_y
_atom_site_fract_z
_atom_type_partial_charge
Zn0 Zn 0.05748 0.22862 0.09752 0.0
Zn1 Zn 0.06883 0.26124 0.0414 0.0
O2 O 0.10624 0.25016 0.04417 0.0
O3 O 0.09759 0.22501 0.09136 0.0
O4 O 0.07804 0.28729 -0.00036 0.0
O5 O 0.06191 0.26801 0.12193 0.0
O6 O 0.06969 0.29471 0.07579 0.0
C7 C 0.11435 0.23602 0.06592 0.0
C8 C 0.00468 0.1942 0.0515 0.0
O9 O 0.02353 0.21896 0.03359 0.0
O10 O 0.01333 0.19264 0.0802 0.0
C11 C 0.0576 0.29452 0.98732 0.0
O12 O 0.02964 0.28462 0.00202 0.0
C13 C 0.06706 0.29391 0.10651 0.0
Zn14 Zn 0.83324 0.86933 0.90881 0.0
Zn15 Zn 0.80133 0.83745 0.96292 0.0
O16 O 0.84141 0.8311 0.96361 0.0
O17 O 0.86777 0.85717 0.91953 0.0
O18 O 0.77535 0.81182 0.00193 0.0
O19 O 0.79435 0.83794 0.88151 0.0
O20 O 0.76843 0.81237 0.92588 0.0
C21 C 0.86563 0.8405 0.94466 0.0
C22 C 0.82791 0.91337 0.95468 0.0
O23 O 0.81356 0.88663 0.97156 0.0
O24 O 0.83784 0.91239 0.92657 0.0
C25 C 0.78825 0.81375 0.02951 0.0
O26 O 0.81999 0.83399 0.03349 0.0
C27 C 0.76904 0.81502 0.89521 0.0
Zn28 Zn 0.16336 0.97216 0.10987 0.0
Zn29 Zn 0.19107 0.96985 0.05402 0.0
O30 O 0.14358 0.93081 0.04836 0.0
O31 O 0.12053 0.93326 0.09355 0.0
O32 O 0.21385 0.9696 0.01316 0.0
O33 O 0.19439 0.96299 0.13526 0.0
O34 O 0.21858 0.96393 0.0897 0.0
C35 C 0.1184 0.91973 0.06628 0.0
C36 C 0.18826 0.03292 0.07241 0.0
O37 O 0.19491 0.01624 0.05239 0.0
O38 O 0.17557 0.02019 0.09939 0.0
C39 C 0.20531 0.97514 0.98568 0.0
O40 O 0.18021 0.97998 0.9837 0.0
C41 C 0.21672 0.9611 0.12038 0.0
Zn42 Zn 0.62702 0.51082 0.22602 0.0
Zn43 Zn 0.62867 0.54625 0.27761 0.0
O44 O 0.58636 0.49958 0.28152 0.0
O45 O 0.58128 0.47337 0.23551 0.0
O46 O 0.6255 0.57021 0.31688 0.0
O47 O 0.63482 0.54934 0.19703 0.0
O48 O 0.63455 0.57794 0.23958 0.0
C49 C 0.57039 0.47395 0.26319 0.0
C50 C 0.67973 0.52562 0.2721 0.0
O51 O 0.66968 0.54326 0.2862 0.0
O52 O 0.66521 0.50877 0.24691 0.0
C53 C 0.62995 0.5608 0.34438 0.0
O54 O 0.63721 0.53676 0.34585 0.0
C55 C 0.63714 0.57576 0.20914 0.0
Zn56 Zn 0.50034 0.15457 0.28551 0.0
Zn57 Zn 0.4837 0.13566 0.34579 0.0
O58 O 0.53241 0.14729 0.34488 0.0
O59 O 0.54522 0.16224 0.29413 0.0
O60 O 0.46714 0.1149 0.38978 0.0
O61 O 0.46681 0.11105 0.2662 0.0
O62 O 0.45037 0.09626 0.31614 0.0
C63 C 0.55318 0.15739 0.322 0.0
C64 C 0.48229 0.1972 0.32049 0.0
O65 O 0.47957 0.17845 0.34437 0.0
O66 O 0.48993 0.19147 0.29291 0.0
C67 C 0.48348 0.12324 0.41611 0.0
O68 O 0.51388 0.1485 0.4163 0.0
C69 C 0.447 0.08963 0.28592 0.0
Zn70 Zn 0.87205 0.40569 0.24857 0.0
Zn71 Zn 0.89789 0.40588 0.30687 0.0
O72 O 0.88896 0.44502 0.31137 0.0
O73 O 0.86984 0.4464 0.26298 0.0
O74 O 0.917 0.40431 0.34998 0.0
O75 O 0.9126 0.41275 0.2266 0.0
O76 O 0.93372 0.41255 0.27416 0.0
C77 C 0.87817 0.45822 0.29135 0.0
C78 C 0.83324 0.34449 0.28437 0.0
O79 O 0.8557 0.35994 0.30552 0.0
O80 O 0.83459 0.35827 0.25748 0.0
C81 C 0.9015 0.40154 0.37586 0.0
O82 O 0.87339 0.40089 0.37417 0.0
C83 C 0.93607 0.41494 0.24345 0.0
Zn84 Zn 0.35872 0.87296 0.76331 0.0
Zn85 Zn 0.35809 0.90324 0.70948 0.0
O86 O 0.3988 0.89725 0.7069 0.0
O87 O 0.40112 0.87531 0.75333 0.0
O88 O 0.3641 0.93144 0.66974 0.0
O89 O 0.35834 0.90786 0.79139 0.0
O90 O 0.35341 0.93111 0.74682 0.0
C91 C 0.41279 0.88624 0.72568 0.0
C92 C 0.30278 0.83208 0.72039 0.0
O93 O 0.31591 0.85775 0.702 0.0
O94 O 0.31602 0.83282 0.74741 0.0
C95 C 0.3663 0.92097 0.64193 0.0
O96 O 0.36265 0.89079 0.63922 0.0
C97 C 0.35458 0.9302 0.77762 0.0
Zn98 Zn 0.14373 0.4882 0.60642 0.0
Zn99 Zn 0.11309 0.46358 0.66258 0.0
O100 O 0.15432 0.45868 0.66356 0.0
O101 O 0.17858 0.47702 0.61675 0.0
O102 O 0.09244 0.442 0.70523 0.0
O103 O 0.10377 0.45462 0.58219 0.0
O104 O 0.07693 0.43636 0.62796 0.0
C105 C 0.17751 0.46461 0.64426 0.0
C106 C 0.13963 0.53763 0.6471 0.0
O107 O 0.12487 0.51302 0.66652 0.0
O108 O 0.14955 0.53327 0.62013 0.0
C109 C 0.1105 0.45222 0.73047 0.0
O110 O 0.14068 0.47763 0.728 0.0
C111 C 0.07764 0.43542 0.59717 0.0
Zn112 Zn 0.47476 0.6509 0.74594 0.0
Zn113 Zn 0.5195 0.64472 0.65103 0.0
O114 O 0.47343 0.60326 0.65563 0.0
O115 O 0.4753 0.62774 0.70112 0.0
O116 O 0.53935 0.64087 0.60975 0.0
O117 O 0.51025 0.64766 0.71666 0.0
O118 O 0.54876 0.64689 0.68901 0.0
C119 C 0.45911 0.60295 0.68161 0.0
C120 C 0.50415 0.69113 0.67817 0.0
O121 O 0.51633 0.68796 0.65199 0.0
O122 O 0.49531 0.66741 0.69882 0.0
C123 C 0.54065 0.61417 0.60598 0.0
O124 O 0.52908 0.59128 0.62879 0.0
C125 C 0.53804 0.64904 0.71645 0.0
C126 C 0.19417 0.08821 0.08775 0.0
C127 C 0.19334 0.06635 0.06359 0.0
C128 C 0.19505 0.11806 0.07958 0.0
C129 C 0.19494 0.12669 0.04696 0.0
C130 C 0.19515 0.10536 0.0228 0.0
C131 C 0.19478 0.07564 0.03102 0.0
C132 C 0.18957 0.1548 0.03793 0.0
C133 C 0.19937 0.18203 0.05701 0.0
C134 C 0.18339 0.20275 0.05633 0.0
C135 C 0.18024 0.21588 0.0858 0.0
C136 C 0.15931 0.22886 0.08833 0.0
C137 C 0.14173 0.22977 0.06124 0.0
H138 H 0.17067 0.19736 0.0052 0.0
C139 C 0.14741 0.21994 0.03098 0.0
C140 C 0.16799 0.2063 0.02853 0.0
H141 H 0.13421 0.22056 0.0097 0.0
H142 H 0.19309 0.08174 0.11305 0.0
H143 H 0.19382 0.13321 0.09893 0.0
H144 H 0.19459 0.11117 0.99753 0.0
H145 H 0.194 0.05919 0.01185 0.0
H146 H 0.17385 0.15072 0.0171 0.0
H147 H 0.21553 0.18581 0.07742 0.0
H148 H 0.19206 0.21382 0.10753 0.0
H149 H 0.15562 0.23665 0.11189 0.0
C150 C 0.85086 0.97543 0.94945 0.0
C151 C 0.8363 0.94642 0.96877 0.0
C152 C 0.86401 0.00741 0.96331 0.0
C153 C 0.86277 0.01116 0.99695 0.0
C154 C 0.8465 0.98205 0.01598 0.0
C155 C 0.83327 0.95 0.00207 0.0
C156 C 0.8817 0.04449 0.01343 0.0
C157 C 0.89377 0.07439 -0.00169 0.0
C158 C 0.91916 0.10688 0.01301 0.0
C159 C 0.92428 0.11154 0.04662 0.0
C160 C 0.95138 0.14059 0.0591 0.0
C161 C 0.97373 0.16584 0.03837 0.0
H162 H 0.93669 0.13049 0.96649 0.0
C163 C 0.96727 0.16235 0.00497 0.0
C164 C 0.94024 0.13316 0.99246 0.0
H165 H 0.98385 0.18146 0.98835 0.0
H166 H 0.85351 0.97359 0.92367 0.0
H167 H 0.87676 0.02889 0.94762 0.0
H168 H 0.84523 0.98411 0.04195 0.0
H169 H 0.82219 0.92818 0.01766 0.0
H170 H 0.88797 0.04387 0.03858 0.0
H171 H 0.88737 0.07505 0.9732 0.0
H172 H 0.90789 0.09271 0.06347 0.0
H173 H 0.95524 0.14283 0.08503 0.0
C174 C 0.89243 0.81823 0.98192 0.0
C175 C 0.89275 0.83445 0.95306 0.0
C176 C 0.92011 0.81677 0.99176 0.0
C177 C 0.94884 0.83191 0.97302 0.0
C178 C 0.94808 0.84577 0.94305 0.0
C179 C 0.92045 0.84708 0.93318 0.0
C180 C 0.98099 0.83707 0.98473 0.0
C181 C 0.98786 0.83496 0.01603 0.0
C182 C 0.02193 0.85121 0.02924 0.0
C183 C 0.02677 0.86063 0.06197 0.0
C184 C 0.05829 0.88141 0.07439 0.0
C185 C 0.08582 0.89315 0.05438 0.0
H186 H 0.04713 0.85257 0.9849 0.0
C187 C 0.08127 0.88139 0.02234 0.0
C188 C 0.04962 0.86047 0.00988 0.0
H189 H 0.10202 0.88946 0.00646 0.0
H190 H 0.87123 0.80767 0.99749 0.0
H191 H 0.91892 0.80457 0.0144 0.0
H192 H 0.96957 0.85723 0.92784 0.0
H193 H 0.9214 0.85931 0.91054 0.0
H194 H 0.00085 0.84782 0.96749 0.0
H195 H 0.96841 0.82577 0.03366 0.0
H196 H 0.00602 0.85351 0.07763 0.0
H197 H 0.0609 0.88949 0.09938 0.0
C198 C 0.87221 0.50779 0.27918 0.0
C199 C 0.87121 0.48456 0.30179 0.0
C200 C 0.85761 0.52692 0.28603 0.0
C201 C 0.84097 0.52234 0.31517 0.0
C202 C 0.84282 0.50164 0.33908 0.0
C203 C 0.85815 0.48306 0.33252 0.0
C204 C 0.81699 0.53395 0.31715 0.0
C205 C 0.78562 0.51176 0.32444 0.0
C206 C 0.75828 0.51606 0.31296 0.0
C207 C 0.73156 0.48862 0.29763 0.0
C208 C 0.70639 0.49208 0.28395 0.0
C209 C 0.70692 0.52278 0.28626 0.0
H210 H 0.77923 0.56828 0.32744 0.0
C211 C 0.73307 0.55002 0.30263 0.0
C212 C 0.75891 0.54685 0.3155 0.0
H213 H 0.73385 0.57388 0.30486 0.0
H214 H 0.88243 0.50958 0.25542 0.0
H215 H 0.85658 0.54284 0.26731 0.0
H216 H 0.83044 0.49805 0.36192 0.0
H217 H 0.85714 0.46535 0.35036 0.0
H218 H 0.8229 0.55739 0.30526 0.0
H219 H 0.77927 0.48678 0.33274 0.0
H220 H 0.73064 0.46468 0.29538 0.0
H221 H 0.68627 0.47057 0.27185 0.0
C222 C 0.47099 0.24027 0.29738 0.0
C223 C 0.47874 0.22717 0.32447 0.0
C224 C 0.47311 0.27159 0.29886 0.0
C225 C 0.48316 0.29077 0.32757 0.0
C226 C 0.48926 0.27687 0.35518 0.0
C227 C 0.48674 0.24517 0.35377 0.0
C228 C 0.49248 0.32694 0.32774 0.0
C229 C 0.48107 0.34024 0.30572 0.0
C230 C 0.49898 0.3766 0.29728 0.0
C231 C 0.49854 0.38529 0.26485 0.0
C232 C 0.52021 0.41784 0.25409 0.0
C233 C 0.54228 0.44263 0.27573 0.0
H234 H 0.51928 0.39654 0.34488 0.0
C235 C 0.54039 0.43493 0.30881 0.0
C236 C 0.51904 0.4021 0.31951 0.0
H237 H 0.55703 0.45358 0.32609 0.0
H238 H 0.46466 0.22694 0.27446 0.0
H239 H 0.46903 0.28146 0.27672 0.0
H240 H 0.49737 0.29119 0.37752 0.0
H241 H 0.49303 0.23576 0.37499 0.0
H242 H 0.51224 0.34344 0.3441 0.0
H243 H 0.461 0.32353 0.28977 0.0
H244 H 0.48308 0.36625 0.24726 0.0
H245 H 0.52091 0.42312 0.22851 0.0
C246 C 0.60355 0.1798 0.3572 0.0
C247 C 0.58756 0.16629 0.32757 0.0
C248 C 0.63781 0.19529 0.35955 0.0
C249 C 0.65654 0.19709 0.33252 0.0
C250 C 0.63995 0.18104 0.30366 0.0
C251 C 0.60596 0.16588 0.3013 0.0
C252 C 0.69282 0.22012 0.33363 0.0
C253 C 0.71318 0.22081 0.31056 0.0
C254 C 0.74612 0.25058 0.30514 0.0
C255 C 0.75648 0.25961 0.27316 0.0
C256 C 0.7852 0.28976 0.26646 0.0
C257 C 0.80462 0.31115 0.29168 0.0
H258 H 0.75925 0.26458 0.35547 0.0
C259 C 0.79537 0.30116 0.32382 0.0
C260 C 0.76621 0.27123 0.33053 0.0
H261 H 0.80998 0.31708 0.34377 0.0
H262 H 0.58993 0.18056 0.37781 0.0
H263 H 0.64983 0.20749 0.38206 0.0
H264 H 0.65288 0.18202 0.28191 0.0
H265 H 0.59422 0.15543 0.27819 0.0
H266 H 0.70231 0.23971 0.35205 0.0
H267 H 0.70415 0.20131 0.29214 0.0
H268 H 0.74152 0.24403 0.25318 0.0
H269 H 0.79189 0.2966 0.24147 0.0
C270 C 0.45934 0.87644 0.73593 0.0
C271 C 0.43892 0.88041 0.71374 0.0
C272 C 0.47758 0.86179 0.72629 0.0
C273 C 0.47513 0.85008 0.69438 0.0
C274 C 0.45763 0.85752 0.67145 0.0
C275 C 0.43965 0.87262 0.68103 0.0
C276 C 0.48745 0.82716 0.6852 0.0
C277 C 0.48803 0.80529 0.70655 0.0
C278 C 0.49373 0.77716 0.69825 0.0
C279 C 0.48505 0.75164 0.72122 0.0
C280 C 0.48848 0.72387 0.71463 0.0
C281 C 0.50088 0.72089 0.68489 0.0
H282 H 0.51441 0.79393 0.65042 0.0
C283 C 0.51021 0.74665 0.66198 0.0
C284 C 0.50674 0.77458 0.66858 0.0
H285 H 0.52015 0.74522 0.63893 0.0
H286 H 0.45974 0.88287 0.7612 0.0
H287 H 0.49223 0.85815 0.74431 0.0
H288 H 0.45584 0.84937 0.64656 0.0
H289 H 0.42422 0.87552 0.66335 0.0
H290 H 0.49184 0.82536 0.6598 0.0
H291 H 0.48094 0.80588 0.73133 0.0
H292 H 0.4751 0.75291 0.74434 0.0
H293 H 0.48127 0.70469 0.73293 0.0
C294 C 0.26144 0.79613 0.6778 0.0
C295 C 0.27363 0.80018 0.70956 0.0
C296 C 0.23686 0.76447 0.6667 0.0
C297 C 0.22385 0.73624 0.68707 0.0
C298 C 0.2351 0.74079 0.71933 0.0
C299 C 0.2595 0.77234 0.73039 0.0
C300 C 0.20182 0.70218 0.67284 0.0
C301 C 0.18502 0.67386 0.69046 0.0
C302 C 0.16963 0.63901 0.67693 0.0
C303 C 0.17625 0.63221 0.64557 0.0
C304 C 0.16519 0.59917 0.63556 0.0
C305 C 0.1475 0.57202 0.65661 0.0
H306 H 0.14516 0.61602 0.72173 0.0
C307 C 0.13964 0.57857 0.68741 0.0
C308 C 0.15061 0.61169 0.69742 0.0
H309 H 0.12599 0.55825 0.70423 0.0
H310 H 0.27177 0.81704 0.66111 0.0
H311 H 0.22887 0.76181 0.64171 0.0
H312 H 0.22657 0.71997 0.73591 0.0
H313 H 0.26823 0.77452 0.75506 0.0
H314 H 0.20094 0.70056 0.64669 0.0
H315 H 0.18362 0.67586 0.71643 0.0
H316 H 0.19118 0.65211 0.62893 0.0
H317 H 0.17165 0.59508 0.61161 0.0
C318 C 0.21574 0.4667 0.68752 0.0
C319 C 0.20549 0.46113 0.655 0.0
C320 C 0.24645 0.47136 0.69628 0.0
C321 C 0.26702 0.46996 0.67267 0.0
C322 C 0.25521 0.46093 0.6409 0.0
C323 C 0.2249 0.45699 0.63202 0.0
C324 C 0.30208 0.48169 0.6791 0.0
C325 C 0.32092 0.50934 0.69723 0.0
C326 C 0.35737 0.5295 0.69548 0.0
C327 C 0.37449 0.55538 0.71829 0.0
C328 C 0.40791 0.57856 0.71458 0.0
C329 C 0.42487 0.57646 0.6878 0.0
H330 H 0.36288 0.50772 0.65077 0.0
C331 C 0.40821 0.54976 0.66575 0.0
C332 C 0.37486 0.5266 0.66944 0.0
H333 H 0.42063 0.54741 0.6449 0.0
H334 H 0.20115 0.46986 0.70574 0.0
H335 H 0.25462 0.47744 0.72117 0.0
H336 H 0.27049 0.45941 0.62235 0.0
H337 H 0.21738 0.45233 0.60685 0.0
H338 H 0.31323 0.47066 0.66448 0.0
H339 H 0.30915 0.52004 0.71152 0.0
H340 H 0.36171 0.55843 0.73846 0.0
H341 H 0.4201 0.59881 0.73206 0.0
C342 C 0.04279 0.32215 0.94322 0.0
C343 C 0.0654 0.31428 0.95704 0.0
C344 C 0.05037 0.34124 0.91493 0.0
C345 C 0.08077 0.35279 0.8997 0.0
C346 C 0.10334 0.345 0.91365 0.0
C347 C 0.09574 0.32588 0.94186 0.0
C348 C 0.09051 0.37403 0.87012 0.0
C349 C 0.06914 0.37555 0.84931 0.0
C350 C 0.07969 0.39647 0.81951 0.0
C351 C 0.05811 0.38682 0.79289 0.0
C352 C 0.06771 0.40525 0.76414 0.0
C353 C 0.09907 0.43399 0.76152 0.0
H354 H 0.12752 0.435 0.83757 0.0
C355 C 0.12019 0.44437 0.78859 0.0
C356 C 0.11062 0.42593 0.81725 0.0
H357 H 0.14438 0.46658 0.78757 0.0
H358 H 0.01927 0.31381 0.9544 0.0
H359 H 0.0326 0.34739 0.90559 0.0
H360 H 0.12703 0.35371 0.90265 0.0
H361 H 0.1138 0.3204 0.95185 0.0
H362 H 0.1165 0.38779 0.86459 0.0
H363 H 0.04296 0.35952 0.85296 0.0
H364 H 0.03397 0.36451 0.79407 0.0
H365 H 0.05077 0.39663 0.74382 0.0
C366 C 0.71193 0.76523 0.88946 0.0
C367 C 0.74079 0.79072 0.87523 0.0
C368 C 0.68579 0.74186 0.87014 0.0
C369 C 0.68814 0.74364 0.83623 0.0
C370 C 0.71706 0.76896 0.82219 0.0
C371 C 0.74298 0.79231 0.84139 0.0
C372 C 0.6615 0.71967 0.81434 0.0
C373 C 0.62957 0.70201 0.82234 0.0
C374 C 0.60379 0.68287 0.7976 0.0
C375 C 0.5737 0.68197 0.7995 0.0
C376 C 0.55124 0.66915 0.77377 0.0
C377 C 0.55856 0.65691 0.74583 0.0
H378 H 0.63205 0.6668 0.76924 0.0
C379 C 0.58741 0.65524 0.74511 0.0
C380 C 0.60971 0.66785 0.77085 0.0
H381 H 0.59336 0.64529 0.72415 0.0
H382 H 0.70959 0.76317 0.91549 0.0
H383 H 0.66418 0.72223 0.88187 0.0
H384 H 0.71959 0.77087 0.79615 0.0
H385 H 0.76488 0.81146 0.82957 0.0
H386 H 0.66836 0.71898 0.78947 0.0
H387 H 0.62184 0.7049 0.84618 0.0
H388 H 0.56837 0.69296 0.82007 0.0
H389 H 0.52906 0.67052 0.7751 0.0
C390 C 0.32395 0.96035 0.78893 0.0
C391 C 0.34789 0.95231 0.79805 0.0
C392 C 0.3119 0.97395 0.81164 0.0
C393 C 0.32401 0.98006 0.84365 0.0
C394 C 0.35009 0.97495 0.85166 0.0
C395 C 0.36164 0.96084 0.82924 0.0
C396 C 0.30866 0.98898 0.87012 0.0
C397 C 0.27631 0.97823 0.87097 0.0
C398 C 0.25958 0.97967 0.90071 0.0
C399 C 0.23015 0.98011 0.89793 0.0
C400 C 0.21264 0.97901 0.92549 0.0
C401 C 0.22395 0.97683 0.95642 0.0
H402 H 0.29281 0.97592 0.93492 0.0
C403 C 0.25332 0.97624 0.9592 0.0
C404 C 0.27092 0.97761 0.93172 0.0
H405 H 0.26268 0.97443 0.98264 0.0
H406 H 0.31296 0.954 0.765 0.0
H407 H 0.29248 0.97859 0.80437 0.0
H408 H 0.36015 0.97982 0.876 0.0
H409 H 0.38028 0.95509 0.83681 0.0
H410 H 0.32384 1.00136 0.89125 0.0
H411 H 0.26097 0.9661 0.84988 0.0
H412 H 0.22059 0.98116 0.87434 0.0
H413 H 0.19003 0.97941 0.9225 0.0
C414 C 0.39004 0.04016 0.29149 0.0
C415 C 0.41849 0.05852 0.27308 0.0
C416 C 0.36115 0.01487 0.27695 0.0
C417 C 0.36027 0.00721 0.24392 0.0
C418 C 0.38954 0.02396 0.22622 0.0
C419 C 0.41826 0.04924 0.24068 0.0
C420 C 0.32784 0.98625 0.22776 0.0
C421 C 0.32398 0.97363 0.19755 0.0
C422 C 0.2941 0.96379 0.17765 0.0
C423 C 0.29743 0.96796 0.144 0.0
C424 C 0.27165 0.96529 0.12492 0.0
C425 C 0.24199 0.9583 0.1392 0.0
H426 H 0.25932 0.94882 0.21704 0.0
C427 C 0.23772 0.95129 0.17244 0.0
C428 C 0.26341 0.95378 0.19146 0.0
H429 H 0.21485 0.94499 0.18405 0.0
H430 H 0.38948 0.0467 0.31654 0.0
H431 H 0.33898 0.00249 0.29116 0.0
H432 H 0.39019 0.01957 0.20066 0.0
H433 H 0.4399 0.06274 0.22591 0.0
H434 H 0.30698 0.9848 0.24011 0.0
H435 H 0.34473 0.97476 0.18529 0.0
H436 H 0.32068 0.97528 0.13265 0.0
H437 H 0.2756 0.97046 0.09931 0.0
C438 C 0.05982 0.34427 0.10947 0.0
C439 C 0.06766 0.32191 0.1246 0.0
C440 C 0.05449 0.36655 0.12799 0.0
C441 C 0.05732 0.36704 0.16201 0.0
C442 C 0.0677 0.34646 0.17663 0.0
C443 C 0.07273 0.32413 0.15822 0.0
C444 C 0.04524 0.38435 0.18349 0.0
C445 C 0.03638 0.40647 0.1734 0.0
C446 C 0.01492 0.41453 0.19292 0.0
C447 C 0.99283 0.4213 0.1765 0.0
C448 C 0.96813 0.42292 0.1932 0.0
C449 C 0.96514 0.41812 0.22684 0.0
H450 H 0.0311 0.40863 0.2406 0.0
C451 C 0.9889 0.41414 0.24369 0.0
C452 C 0.01365 0.41246 0.22691 0.0
H453 H 0.98764 0.411 0.26967 0.0
H454 H 0.05577 0.34311 0.08359 0.0
H455 H 0.04629 0.38162 0.11551 0.0
H456 H 0.07026 0.34632 0.20267 0.0
H457 H 0.07926 0.30754 0.17056 0.0
H458 H 0.0402 0.37543 0.20822 0.0
H459 H 0.04099 0.41543 0.14871 0.0
H460 H -0.00653 0.42345 0.15041 0.0
H461 H 0.9506 0.42666 0.17949 0.0
C462 C 0.65995 0.63773 0.20046 0.0
C463 C 0.64563 0.60485 0.18784 0.0
C464 C 0.6721 0.66547 0.17972 0.0
C465 C 0.66993 0.66074 0.14597 0.0
C466 C 0.65381 0.62779 0.13354 0.0
C467 C 0.64205 0.60019 0.15418 0.0
C468 C 0.68493 0.68919 0.12279 0.0
C469 C 0.71187 0.71912 0.12969 0.0
C470 C 0.73022 0.74514 0.10472 0.0
C471 C 0.76391 0.76765 0.10951 0.0
C472 C 0.78265 0.79054 0.08546 0.0
C473 C 0.76803 0.79155 0.0561 0.0
H474 H 0.68918 0.73137 0.07176 0.0
C475 C 0.73402 0.77014 0.05189 0.0
C476 C 0.71528 0.74732 0.07596 0.0
H477 H 0.72186 0.77063 0.02977 0.0
H478 H 0.66292 0.64213 0.22631 0.0
H479 H 0.68346 0.69047 0.1902 0.0
H480 H 0.65142 0.62336 0.10768 0.0
H481 H 0.63085 0.57518 0.14366 0.0
H482 H 0.6756 0.68372 0.09814 0.0
H483 H 0.72297 0.72339 0.1536 0.0
H484 H 0.77603 0.76683 0.13155 0.0
H485 H 0.80874 0.80685 0.08962 0.0
C486 C 0.01806 0.4123 0.58486 0.0
C487 C 0.04789 0.414 0.57784 0.0
C488 C 0.99249 0.39912 0.56195 0.0
C489 C -0.00358 0.38709 0.53197 0.0
C490 C 0.02509 0.38588 0.52654 0.0
C491 C 0.05074 0.39962 0.54903 0.0
C492 C 0.97312 0.37868 0.50451 0.0
C493 C 0.95615 0.39459 0.4993 0.0
C494 C 0.9408 0.3937 0.46755 0.0
C495 C 0.91397 0.39888 0.46626 0.0
C496 C 0.90083 0.40095 0.43649 0.0
C497 C 0.91475 0.39855 0.40741 0.0
H498 H 0.97599 0.38829 0.43833 0.0
C499 C 0.94165 0.39344 0.40872 0.0
C500 C 0.95453 0.39103 0.43841 0.0
H501 H 0.95301 0.39158 0.38678 0.0
H502 H 0.01535 0.42329 0.60695 0.0
H503 H 0.97027 0.39949 0.56729 0.0
H504 H 0.02862 0.37643 0.50383 0.0
H505 H 0.07349 0.40049 0.54319 0.0
H506 H 0.97346 0.36228 0.48579 0.0
H507 H 0.9553 0.4108 0.51788 0.0
H508 H 0.90328 0.40156 0.48833 0.0
H509 H 0.88014 0.40501 0.4363 0.0
C510 C 0.63279 0.56666 0.40451 0.0
C511 C 0.62481 0.57487 0.37442 0.0
C512 C 0.62577 0.57775 0.43313 0.0
C513 C 0.61011 0.59691 0.43228 0.0
C514 C 0.6035 0.60637 0.40217 0.0
C515 C 0.61073 0.59544 0.3735 0.0
C516 C 0.5999 0.60702 0.46216 0.0
C517 C 0.59343 0.58966 0.48999 0.0
C518 C 0.58061 0.59731 0.51955 0.0
C519 C 0.56657 0.57242 0.54342 0.0
C520 C 0.55373 0.57797 0.57146 0.0
C521 C 0.55469 0.60866 0.57638 0.0
H522 H 0.59359 0.64866 0.50757 0.0
C523 C 0.56916 0.63386 0.55281 0.0
C524 C 0.58215 0.62836 0.52475 0.0
H525 H 0.5706 0.65794 0.55607 0.0
H526 H 0.64421 0.55136 0.40603 0.0
H527 H 0.63264 0.57114 0.45575 0.0
H528 H 0.59187 0.62149 0.40078 0.0
H529 H 0.60448 0.60239 0.35067 0.0
H530 H 0.5952 0.62772 0.46017 0.0
H531 H 0.59555 0.56725 0.4908 0.0
H532 H 0.56523 0.54836 0.54025 0.0
H533 H 0.54287 0.55805 0.58918 0.0
C534 C 0.38508 0.97755 0.6168 0.0
C535 C 0.37527 0.94329 0.61335 0.0
C536 C 0.39547 0.99895 0.58999 0.0
C537 C 0.39622 0.98649 0.5591 0.0
C538 C 0.38543 0.95206 0.55558 0.0
C539 C 0.37531 0.93076 0.58237 0.0
C540 C 0.40755 0.00829 0.52993 0.0
C541 C 0.42923 0.04171 0.53093 0.0
C542 C 0.44209 0.06281 0.5014 0.0
C543 C 0.47316 0.09213 0.50265 0.0
C544 C 0.48649 0.11202 0.47513 0.0
C545 C 0.46884 0.10322 0.44578 0.0
H546 H 0.39957 0.0328 0.47052 0.0
C547 C 0.43729 0.07444 0.4448 0.0
C548 C 0.42404 0.05451 0.47225 0.0
H549 H 0.42285 0.06706 0.42269 0.0
H550 H 0.38517 0.98799 0.64029 0.0
H551 H 0.40263 0.02509 0.59357 0.0
H552 H 0.3854 0.94167 0.53206 0.0
H553 H 0.36775 0.90449 0.57878 0.0
H554 H 0.39941 0.99573 0.50664 0.0
H555 H 0.43982 0.05374 0.554 0.0
H556 H 0.48747 0.09937 0.52484 0.0
H557 H 0.51076 0.13409 0.47683 0.0
loop_
_geom_bond_atom_site_label_1
_geom_bond_atom_site_label_2
_geom_bond_distance
_geom_bond_site_symmetry_2
_ccdc_geom_bond_type
Zn0 O3 2.031 . S
Zn0 O5 2.049 1_455 S
Zn0 O10 2.067 1_455 S
Zn1 O2 1.962 . S
Zn1 O4 1.986 1_554 S
Zn1 O6 1.996 . S
Zn1 O9 1.943 1_454 S
O2 Zn1 1.962 . S
O2 C7 1.254 . S
O3 Zn0 2.031 . S
O3 C7 1.269 . S
O4 Zn1 1.986 1_556 S
O4 C11 1.262 . S
O5 Zn0 2.049 1_655 S
O5 C13 1.260 . S
O6 Zn1 1.996 . S
O6 C13 1.257 1_455 S
C7 O2 1.254 . S
C7 O3 1.269 . S
C8 O9 1.249 1_554 S
C8 O10 1.270 . S
O9 Zn1 1.943 1_656 S
O9 C8 1.249 1_556 S
O10 Zn0 2.067 1_655 S
O10 C8 1.270 . S
C11 O4 1.262 . S
C11 O12 1.232 . S
O12 C11 1.232 . S
C13 O5 1.260 . S
C13 O6 1.257 1_655 S
Zn14 O17 2.031 . S
Zn14 O19 2.049 . S
Zn14 O24 2.067 . S
Zn15 O16 1.962 . S
Zn15 O18 1.986 . S
Zn15 O20 1.996 1_554 S
Zn15 O23 1.943 . S
O16 Zn15 1.962 . S
O16 C21 1.251 1_554 S
O17 Zn14 2.031 . S
O17 C21 1.272 . S
O18 Zn15 1.986 . S
O18 C25 1.262 . S
O19 Zn14 2.049 . S
O19 C27 1.260 . S
O20 Zn15 1.996 1_556 S
O20 C27 1.257 . S
C21 O16 1.251 1_556 S
C21 O17 1.272 . S
C22 O23 1.249 . S
C22 O24 1.270 1_554 S
O23 Zn15 1.943 . S
O23 C22 1.249 . S
O24 Zn14 2.067 . S
O24 C22 1.270 1_556 S
C25 O18 1.262 . S
C25 O26 1.232 . S
O26 C25 1.232 . S
C27 O19 1.260 . S
C27 O20 1.257 . S
Zn28 O31 2.031 1_545 S
Zn28 O33 2.049 . S
Zn28 O38 2.067 . S
Zn29 O30 1.960 1_546 S
Zn29 O32 1.992 . S
Zn29 O34 1.984 1_556 S
Zn29 O37 1.946 . S
O30 Zn29 1.960 1_564 S
O30 C35 1.254 . S
O31 Zn28 2.031 1_565 S
O31 C35 1.269 . S
O32 Zn29 1.992 . S
O32 C39 1.262 1_545 S
O33 Zn28 2.049 . S
O33 C41 1.260 . S
O34 Zn29 1.984 1_554 S
O34 C41 1.257 . S
C35 O30 1.254 . S
C35 O31 1.269 . S
C36 O37 1.249 1_554 S
C36 O38 1.270 . S
O37 Zn29 1.946 . S
O37 C36 1.249 1_556 S
O38 Zn28 2.067 . S
O38 C36 1.270 . S
C39 O32 1.262 1_565 S
C39 O40 1.232 . S
O40 C39 1.232 . S
C41 O33 1.260 . S
C41 O34 1.257 . S
Zn42 O45 2.031 . S
Zn42 O47 2.049 . S
Zn42 O52 2.067 . S
Zn43 O44 1.962 . S
Zn43 O46 1.986 . S
Zn43 O48 1.996 . S
Zn43 O51 1.943 . S
O44 Zn43 1.962 . S
O44 C49 1.254 . S
O45 Zn42 2.031 . S
O45 C49 1.269 . S
O46 Zn43 1.986 . S
O46 C53 1.262 . S
O47 Zn42 2.049 . S
O47 C55 1.260 . S
O48 Zn43 1.996 . S
O48 C55 1.257 . S
C49 O44 1.254 . S
C49 O45 1.269 . S
C50 O51 1.249 . S
C50 O52 1.270 . S
O51 Zn43 1.943 . S
O51 C50 1.249 . S
O52 Zn42 2.067 . S
O52 C50 1.270 . S
C53 O46 1.262 . S
C53 O54 1.232 . S
O54 C53 1.232 . S
C55 O47 1.260 . S
C55 O48 1.257 . S
Zn56 O59 2.031 . S
Zn56 O61 2.049 . S
Zn56 O66 2.067 . S
Zn57 O58 1.962 . S
Zn57 O60 1.986 . S
Zn57 O62 1.996 . S
Zn57 O65 1.943 . S
O58 Zn57 1.962 . S
O58 C63 1.254 . S
O59 Zn56 2.031 . S
O59 C63 1.269 . S
O60 Zn57 1.986 . S
O60 C67 1.262 . S
O61 Zn56 2.049 . S
O61 C69 1.260 . S
O62 Zn57 1.996 . S
O62 C69 1.257 . S
C63 O58 1.254 . S
C63 O59 1.269 . S
C64 O65 1.249 . S
C64 O66 1.270 . S
O65 Zn57 1.943 . S
O65 C64 1.249 . S
O66 Zn56 2.067 . S
O66 C64 1.270 . S
C67 O60 1.262 . S
C67 O68 1.232 . S
O68 C67 1.232 . S
C69 O61 1.260 . S
C69 O62 1.257 . S
Zn70 O73 2.031 . S
Zn70 O75 2.049 . S
Zn70 O80 2.067 . S
Zn71 O72 1.962 . S
Zn71 O74 1.986 . S
Zn71 O76 1.996 . S
Zn71 O79 1.943 . S
O72 Zn71 1.962 . S
O72 C77 1.254 . S
O73 Zn70 2.031 . S
O73 C77 1.269 . S
O74 Zn71 1.986 . S
O74 C81 1.262 . S
O75 Zn70 2.049 . S
O75 C83 1.260 . S
O76 Zn71 1.996 . S
O76 C83 1.257 . S
C77 O72 1.254 . S
C77 O73 1.269 . S
C78 O79 1.249 . S
C78 O80 1.270 . S
O79 Zn71 1.943 . S
O79 C78 1.249 . S
O80 Zn70 2.067 . S
O80 C78 1.270 . S
C81 O74 1.262 . S
C81 O82 1.232 . S
O82 C81 1.232 . S
C83 O75 1.260 . S
C83 O76 1.257 . S
Zn84 O87 2.031 . S
Zn84 O89 2.049 . S
Zn84 O94 2.067 . S
Zn85 O86 1.962 . S
Zn85 O88 1.986 . S
Zn85 O90 1.996 . S
Zn85 O93 1.943 . S
O86 Zn85 1.962 . S
O86 C91 1.254 . S
O87 Zn84 2.031 . S
O87 C91 1.269 . S
O88 Zn85 1.986 . S
O88 C95 1.262 . S
O89 Zn84 2.049 . S
O89 C97 1.260 . S
O90 Zn85 1.996 . S
O90 C97 1.257 . S
C91 O86 1.254 . S
C91 O87 1.269 . S
C92 O93 1.249 . S
C92 O94 1.270 . S
O93 Zn85 1.943 . S
O93 C92 1.249 . S
O94 Zn84 2.067 . S
O94 C92 1.270 . S
C95 O88 1.262 . S
C95 O96 1.232 . S
O96 C95 1.232 . S
C97 O89 1.260 . S
C97 O90 1.257 . S
Zn98 O101 2.031 . S
Zn98 O103 2.049 . S
Zn98 O108 2.067 . S
Zn99 O100 1.962 . S
Zn99 O102 1.986 . S
Zn99 O104 1.996 . S
Zn99 O107 1.943 . S
O100 Zn99 1.962 . S
O100 C105 1.254 . S
O101 Zn98 2.031 . S
O101 C105 1.269 . S
O102 Zn99 1.986 . S
O102 C109 1.262 . S
O103 Zn98 2.049 . S
O103 C111 1.260 . S
O104 Zn99 1.996 . S
O104 C111 1.257 . S
C105 O100 1.254 . S
C105 O101 1.269 . S
C106 O107 1.249 . S
C106 O108 1.270 . S
O107 Zn99 1.943 . S
O107 C106 1.249 . S
O108 Zn98 2.067 . S
O108 C106 1.270 . S
C109 O102 1.262 . S
C109 O110 1.232 . S
O110 C109 1.232 . S
C111 O103 1.260 . S
C111 O104 1.257 . S
Zn112 O115 2.031 . S
Zn112 O117 2.049 . S
Zn112 O122 2.067 . S
Zn113 O114 1.962 . S
Zn113 O116 1.986 . S
Zn113 O118 1.996 . S
Zn113 O121 1.943 . S
O114 Zn113 1.962 . S
O114 C119 1.254 . S
O115 Zn112 2.031 . S
O115 C119 1.269 . S
O116 Zn113 1.986 . S
O116 C123 1.262 . S
O117 Zn112 2.049 . S
O117 C125 1.260 . S
O118 Zn113 1.996 . S
O118 C125 1.257 . S
C119 O114 1.254 . S
C119 O115 1.269 . S
C120 O121 1.249 . S
C120 O122 1.270 . S
O121 Zn113 1.943 . S
O121 C120 1.249 . S
O122 Zn112 2.067 . S
O122 C120 1.270 . S
C123 O116 1.262 . S
C123 O124 1.232 . S
O124 C123 1.232 . S
C125 O117 1.260 . S
C125 O118 1.257 . S
C126 C127 1.386 . S
C126 C128 1.383 . S
C126 H142 0.951 . S
C127 C126 1.386 . S
C127 C131 1.383 1_556 S
C128 C126 1.383 . S
C128 C129 1.402 1_556 S
C128 H143 0.951 . S
C129 C128 1.402 1_554 S
C129 C130 1.375 . S
C129 C132 1.481 . S
C130 C129 1.375 . S
C130 C131 1.367 . S
C130 H144 0.951 . S
C131 C127 1.383 1_554 S
C131 C130 1.367 . S
C131 H145 0.950 . S
C132 C129 1.481 . S
C132 C133 1.297 1_554 S
C132 H146 0.950 . S
C133 C132 1.297 1_556 S
C133 C134 1.477 1_556 S
C133 H147 0.950 . S
C134 C133 1.477 1_554 S
C134 C135 1.373 1_554 S
C134 C140 1.410 . S
C135 C134 1.373 1_556 S
C135 C136 1.369 1_556 S
C135 H148 0.950 . S
C136 C135 1.369 1_554 S
C136 C137 1.392 . S
C136 H149 0.951 . S
C137 C136 1.392 . S
C137 C139 1.384 . S
H138 C140 0.949 . S
C139 C137 1.384 . S
C139 C140 1.385 . S
C139 H141 0.950 . S
C140 C134 1.410 . S
C140 H138 0.949 . S
C140 C139 1.385 . S
H141 C139 0.950 . S
H142 C126 0.951 . S
H143 C128 0.951 . S
H144 C130 0.951 . S
H145 C131 0.950 . S
H146 C132 0.950 . S
H147 C133 0.950 . S
H148 C135 0.950 . S
H149 C136 0.951 . S
C150 C151 1.386 . S
C150 C152 1.383 . S
C150 H166 0.951 . S
C151 C150 1.386 . S
C151 C155 1.383 1_554 S
C152 C150 1.383 . S
C152 C153 1.402 . S
C152 H167 0.951 . S
C153 C152 1.402 . S
C153 C154 1.375 1_554 S
C153 C156 1.481 1_565 S
C154 C153 1.375 1_556 S
C154 C155 1.367 . S
C154 H168 0.951 . S
C155 C151 1.383 1_556 S
C155 C154 1.367 . S
C155 H169 0.950 . S
C156 C153 1.481 1_545 S
C156 C157 1.297 . S
C156 H170 0.950 1_554 S
C157 C156 1.297 . S
C157 C158 1.479 . S
C157 H171 0.950 . S
C158 C157 1.479 . S
C158 C159 1.375 . S
C158 C164 1.404 1_554 S
C159 C158 1.375 . S
C159 C160 1.369 . S
C159 H172 0.950 . S
C160 C159 1.369 . S
C160 C161 1.392 . S
C160 H173 0.951 . S
C161 C160 1.392 . S
C161 C163 1.384 1_554 S
H162 C164 0.949 . S
C163 C161 1.384 1_556 S
C163 C164 1.385 . S
C163 H165 0.950 . S
C164 C158 1.404 1_556 S
C164 H162 0.949 . S
C164 C163 1.385 . S
H165 C163 0.950 . S
H166 C150 0.951 . S
H167 C152 0.951 . S
H168 C154 0.951 . S
H169 C155 0.950 . S
H170 C156 0.950 1_556 S
H171 C157 0.950 . S
H172 C159 0.950 . S
H173 C160 0.951 . S
C174 C175 1.386 1_554 S
C174 C176 1.383 . S
C174 H190 0.951 . S
C175 C174 1.386 1_556 S
C175 C179 1.383 . S
C176 C174 1.383 . S
C176 C177 1.402 1_554 S
C176 H191 0.951 . S
C177 C176 1.402 1_556 S
C177 C178 1.375 . S
C177 C180 1.481 1_655 S
C178 C177 1.375 . S
C178 C179 1.367 . S
C178 H192 0.951 . S
C179 C175 1.383 . S
C179 C178 1.367 . S
C179 H193 0.950 . S
C180 C177 1.481 1_455 S
C180 C181 1.297 1_556 S
C180 H194 0.950 . S
C181 C180 1.297 1_554 S
C181 C182 1.479 . S
C181 H195 0.950 . S
C182 C181 1.479 . S
C182 C183 1.375 . S
C182 C188 1.404 1_554 S
C183 C182 1.375 . S
C183 C184 1.369 . S
C183 H196 0.950 . S
C184 C183 1.369 . S
C184 C185 1.392 . S
C184 H197 0.951 . S
C185 C184 1.392 . S
C185 C187 1.384 1_554 S
H186 C188 0.949 . S
C187 C185 1.384 1_556 S
C187 C188 1.385 . S
C187 H189 0.950 . S
C188 C182 1.404 1_556 S
C188 H186 0.949 . S
C188 C187 1.385 . S
H189 C187 0.950 . S
H190 C174 0.951 . S
H191 C176 0.951 . S
H192 C178 0.951 . S
H193 C179 0.950 . S
H194 C180 0.950 . S
H195 C181 0.950 . S
H196 C183 0.950 . S
H197 C184 0.951 . S
C198 C199 1.386 . S
C198 C200 1.383 . S
C198 H214 0.951 . S
C199 C198 1.386 . S
C199 C203 1.383 . S
C200 C198 1.383 . S
C200 C201 1.402 . S
C200 H215 0.951 . S
C201 C200 1.402 . S
C201 C202 1.375 . S
C201 C204 1.481 . S
C202 C201 1.375 . S
C202 C203 1.367 . S
C202 H216 0.951 . S
C203 C199 1.383 . S
C203 C202 1.367 . S
C203 H217 0.950 . S
C204 C201 1.481 . S
C204 C205 1.297 . S
C204 H218 0.950 . S
C205 C204 1.297 . S
C205 C206 1.479 . S
C205 H219 0.950 . S
C206 C205 1.479 . S
C206 C207 1.375 . S
C206 C212 1.404 . S
C207 C206 1.375 . S
C207 C208 1.369 . S
C207 H220 0.950 . S
C208 C207 1.369 . S
C208 C209 1.392 . S
C208 H221 0.951 . S
C209 C208 1.392 . S
C209 C211 1.384 . S
H210 C212 0.949 . S
C211 C209 1.384 . S
C211 C212 1.385 . S
C211 H213 0.950 . S
C212 C206 1.404 . S
C212 H210 0.949 . S
C212 C211 1.385 . S
H213 C211 0.950 . S
H214 C198 0.951 . S
H215 C200 0.951 . S
H216 C202 0.951 . S
H217 C203 0.950 . S
H218 C204 0.950 . S
H219 C205 0.950 . S
H220 C207 0.950 . S
H221 C208 0.951 . S
C222 C223 1.386 . S
C222 C224 1.383 . S
C222 H238 0.951 . S
C223 C222 1.386 . S
C223 C227 1.383 . S
C224 C222 1.383 . S
C224 C225 1.402 . S
C224 H239 0.951 . S
C225 C224 1.402 . S
C225 C226 1.375 . S
C225 C228 1.481 . S
C226 C225 1.375 . S
C226 C227 1.367 . S
C226 H240 0.951 . S
C227 C223 1.383 . S
C227 C226 1.367 . S
C227 H241 0.950 . S
C228 C225 1.481 . S
C228 C229 1.297 . S
C228 H242 0.950 . S
C229 C228 1.297 . S
C229 C230 1.479 . S
C229 H243 0.950 . S
C230 C229 1.479 . S
C230 C231 1.375 . S
C230 C236 1.404 . S
C231 C230 1.375 . S
C231 C232 1.369 . S
C231 H244 0.950 . S
C232 C231 1.369 . S
C232 C233 1.392 . S
C232 H245 0.951 . S
C233 C232 1.392 . S
C233 C235 1.384 . S
H234 C236 0.949 . S
C235 C233 1.384 . S
C235 C236 1.385 . S
C235 H237 0.950 . S
C236 C230 1.404 . S
C236 H234 0.949 . S
C236 C235 1.385 . S
H237 C235 0.950 . S
H238 C222 0.951 . S
H239 C224 0.951 . S
H240 C226 0.951 . S
H241 C227 0.950 . S
H242 C228 0.950 . S
H243 C229 0.950 . S
H244 C231 0.950 . S
H245 C232 0.951 . S
C246 C247 1.386 . S
C246 C248 1.383 . S
C246 H262 0.951 . S
C247 C246 1.386 . S
C247 C251 1.383 . S
C248 C246 1.383 . S
C248 C249 1.402 . S
C248 H263 0.951 . S
C249 C248 1.402 . S
C249 C250 1.375 . S
C249 C252 1.481 . S
C250 C249 1.375 . S
C250 C251 1.367 . S
C250 H264 0.951 . S
C251 C247 1.383 . S
C251 C250 1.367 . S
C251 H265 0.950 . S
C252 C249 1.481 . S
C252 C253 1.297 . S
C252 H266 0.950 . S
C253 C252 1.297 . S
C253 C254 1.479 . S
C253 H267 0.950 . S
C254 C253 1.479 . S
C254 C255 1.375 . S
C254 C260 1.404 . S
C255 C254 1.375 . S
C255 C256 1.369 . S
C255 H268 0.950 . S
C256 C255 1.369 . S
C256 C257 1.392 . S
C256 H269 0.951 . S
C257 C256 1.392 . S
C257 C259 1.384 . S
H258 C260 0.949 . S
C259 C257 1.384 . S
C259 C260 1.385 . S
C259 H261 0.950 . S
C260 C254 1.404 . S
C260 H258 0.949 . S
C260 C259 1.385 . S
H261 C259 0.950 . S
H262 C246 0.951 . S
H263 C248 0.951 . S
H264 C250 0.951 . S
H265 C251 0.950 . S
H266 C252 0.950 . S
H267 C253 0.950 . S
H268 C255 0.950 . S
H269 C256 0.951 . S
C270 C271 1.386 . S
C270 C272 1.383 . S
C270 H286 0.951 . S
C271 C270 1.386 . S
C271 C275 1.383 . S
C272 C270 1.383 . S
C272 C273 1.402 . S
C272 H287 0.951 . S
C273 C272 1.402 . S
C273 C274 1.375 . S
C273 C276 1.481 . S
C274 C273 1.375 . S
C274 C275 1.367 . S
C274 H288 0.951 . S
C275 C271 1.383 . S
C275 C274 1.367 . S
C275 H289 0.950 . S
C276 C273 1.481 . S
C276 C277 1.297 . S
C276 H290 0.950 . S
C277 C276 1.297 . S
C277 C278 1.479 . S
C277 H291 0.950 . S
C278 C277 1.479 . S
C278 C279 1.375 . S
C278 C284 1.404 . S
C279 C278 1.375 . S
C279 C280 1.369 . S
C279 H292 0.950 . S
C280 C279 1.369 . S
C280 C281 1.392 . S
C280 H293 0.951 . S
C281 C280 1.392 . S
C281 C283 1.384 . S
H282 C284 0.949 . S
C283 C281 1.384 . S
C283 C284 1.385 . S
C283 H285 0.950 . S
C284 C278 1.404 . S
C284 H282 0.949 . S
C284 C283 1.385 . S
H285 C283 0.950 . S
H286 C270 0.951 . S
H287 C272 0.951 . S
H288 C274 0.951 . S
H289 C275 0.950 . S
H290 C276 0.950 . S
H291 C277 0.950 . S
H292 C279 0.950 . S
H293 C280 0.951 . S
C294 C295 1.386 . S
C294 C296 1.383 . S
C294 H310 0.951 . S
C295 C294 1.386 . S
C295 C299 1.383 . S
C296 C294 1.383 . S
C296 C297 1.402 . S
C296 H311 0.951 . S
C297 C296 1.402 . S
C297 C298 1.375 . S
C297 C300 1.481 . S
C298 C297 1.375 . S
C298 C299 1.367 . S
C298 H312 0.951 . S
C299 C295 1.383 . S
C299 C298 1.367 . S
C299 H313 0.950 . S
C300 C297 1.481 . S
C300 C301 1.297 . S
C300 H314 0.950 . S
C301 C300 1.297 . S
C301 C302 1.479 . S
C301 H315 0.950 . S
C302 C301 1.479 . S
C302 C303 1.375 . S
C302 C308 1.404 . S
C303 C302 1.375 . S
C303 C304 1.369 . S
C303 H316 0.950 . S
C304 C303 1.369 . S
C304 C305 1.392 . S
C304 H317 0.951 . S
C305 C304 1.392 . S
C305 C307 1.384 . S
H306 C308 0.949 . S
C307 C305 1.384 . S
C307 C308 1.385 . S
C307 H309 0.950 . S
C308 C302 1.404 . S
C308 H306 0.949 . S
C308 C307 1.385 . S
H309 C307 0.950 . S
H310 C294 0.951 . S
H311 C296 0.951 . S
H312 C298 0.951 . S
H313 C299 0.950 . S
H314 C300 0.950 . S
H315 C301 0.950 . S
H316 C303 0.950 . S
H317 C304 0.951 . S
C318 C319 1.386 . S
C318 C320 1.383 . S
C318 H334 0.951 . S
C319 C318 1.386 . S
C319 C323 1.383 . S
C320 C318 1.383 . S
C320 C321 1.402 . S
C320 H335 0.951 . S
C321 C320 1.402 . S
C321 C322 1.375 . S
C321 C324 1.481 . S
C322 C321 1.375 . S
C322 C323 1.367 . S
C322 H336 0.951 . S
C323 C319 1.383 . S
C323 C322 1.367 . S
C323 H337 0.950 . S
C324 C321 1.481 . S
C324 C325 1.297 . S
C324 H338 0.950 . S
C325 C324 1.297 . S
C325 C326 1.479 . S
C325 H339 0.950 . S
C326 C325 1.479 . S
C326 C327 1.375 . S
C326 C332 1.404 . S
C327 C326 1.375 . S
C327 C328 1.369 . S
C327 H340 0.950 . S
C328 C327 1.369 . S
C328 C329 1.392 . S
C328 H341 0.951 . S
C329 C328 1.392 . S
C329 C331 1.384 . S
H330 C332 0.949 . S
C331 C329 1.384 . S
C331 C332 1.385 . S
C331 H333 0.950 . S
C332 C326 1.404 . S
C332 H330 0.949 . S
C332 C331 1.385 . S
H333 C331 0.950 . S
H334 C318 0.951 . S
H335 C320 0.951 . S
H336 C322 0.951 . S
H337 C323 0.950 . S
H338 C324 0.950 . S
H339 C325 0.950 . S
H340 C327 0.950 . S
H341 C328 0.951 . S
C342 C343 1.386 . S
C342 C344 1.383 . S
C342 H358 0.951 1_455 S
C343 C342 1.386 . S
C343 C347 1.383 . S
C344 C342 1.383 . S
C344 C345 1.402 . S
C344 H359 0.951 . S
C345 C344 1.402 . S
C345 C346 1.375 . S
C345 C348 1.481 . S
C346 C345 1.375 . S
C346 C347 1.367 . S
C346 H360 0.951 . S
C347 C343 1.383 . S
C347 C346 1.367 . S
C347 H361 0.950 . S
C348 C345 1.481 . S
C348 C349 1.297 . S
C348 H362 0.950 . S
C349 C348 1.297 . S
C349 C350 1.479 . S
C349 H363 0.950 . S
C350 C349 1.479 . S
C350 C351 1.375 . S
C350 C356 1.404 . S
C351 C350 1.375 . S
C351 C352 1.369 . S
C351 H364 0.950 . S
C352 C351 1.369 . S
C352 C353 1.392 . S
C352 H365 0.951 . S
C353 C352 1.392 . S
C353 C355 1.384 . S
H354 C356 0.949 . S
C355 C353 1.384 . S
C355 C356 1.385 . S
C355 H357 0.950 . S
C356 C350 1.404 . S
C356 H354 0.949 . S
C356 C355 1.385 . S
H357 C355 0.950 . S
H358 C342 0.951 1_655 S
H359 C344 0.951 . S
H360 C346 0.951 . S
H361 C347 0.950 . S
H362 C348 0.950 . S
H363 C349 0.950 . S
H364 C351 0.950 . S
H365 C352 0.951 . S
C366 C367 1.386 . S
C366 C368 1.383 . S
C366 H382 0.951 . S
C367 C366 1.386 . S
C367 C371 1.383 . S
C368 C366 1.383 . S
C368 C369 1.402 . S
C368 H383 0.951 . S
C369 C368 1.402 . S
C369 C370 1.375 . S
C369 C372 1.481 . S
C370 C369 1.375 . S
C370 C371 1.367 . S
C370 H384 0.951 . S
C371 C367 1.383 . S
C371 C370 1.367 . S
C371 H385 0.950 . S
C372 C369 1.481 . S
C372 C373 1.297 . S
C372 H386 0.950 . S
C373 C372 1.297 . S
C373 C374 1.479 . S
C373 H387 0.950 . S
C374 C373 1.479 . S
C374 C375 1.375 . S
C374 C380 1.404 . S
C375 C374 1.375 . S
C375 C376 1.369 . S
C375 H388 0.950 . S
C376 C375 1.369 . S
C376 C377 1.392 . S
C376 H389 0.951 . S
C377 C376 1.392 . S
C377 C379 1.384 . S
H378 C380 0.949 . S
C379 C377 1.384 . S
C379 C380 1.385 . S
C379 H381 0.950 . S
C380 C374 1.404 . S
C380 H378 0.949 . S
C380 C379 1.385 . S
H381 C379 0.950 . S
H382 C366 0.951 . S
H383 C368 0.951 . S
H384 C370 0.951 . S
H385 C371 0.950 . S
H386 C372 0.950 . S
H387 C373 0.950 . S
H388 C375 0.950 . S
H389 C376 0.951 . S
C390 C391 1.386 . S
C390 C392 1.383 . S
C390 H406 0.951 . S
C391 C390 1.386 . S
C391 C395 1.383 . S
C392 C390 1.383 . S
C392 C393 1.402 . S
C392 H407 0.951 . S
C393 C392 1.402 . S
C393 C394 1.375 . S
C393 C396 1.481 . S
C394 C393 1.375 . S
C394 C395 1.367 . S
C394 H408 0.951 . S
C395 C391 1.383 . S
C395 C394 1.367 . S
C395 H409 0.950 . S
C396 C393 1.481 . S
C396 C397 1.297 . S
C396 H410 0.950 . S
C397 C396 1.297 . S
C397 C398 1.479 . S
C397 H411 0.950 . S
C398 C397 1.479 . S
C398 C399 1.375 . S
C398 C404 1.404 . S
C399 C398 1.375 . S
C399 C400 1.369 1_565 S
C399 H412 0.950 . S
C400 C399 1.369 1_545 S
C400 C401 1.392 1_545 S
C400 H413 0.951 . S
C401 C400 1.392 1_565 S
C401 C403 1.384 . S
H402 C404 0.949 . S
C403 C401 1.384 . S
C403 C404 1.385 . S
C403 H405 0.950 . S
C404 C398 1.404 . S
C404 H402 0.949 . S
C404 C403 1.385 . S
H405 C403 0.950 . S
H406 C390 0.951 . S
H407 C392 0.951 . S
H408 C394 0.951 . S
H409 C395 0.950 . S
H410 C396 0.950 . S
H411 C397 0.950 . S
H412 C399 0.950 . S
H413 C400 0.951 . S
C414 C415 1.386 . S
C414 C416 1.383 . S
C414 H430 0.951 . S
C415 C414 1.386 . S
C415 C419 1.383 . S
C416 C414 1.383 . S
C416 C417 1.402 . S
C416 H431 0.951 . S
C417 C416 1.402 . S
C417 C418 1.375 . S
C417 C420 1.481 . S
C418 C417 1.375 . S
C418 C419 1.367 . S
C418 H432 0.951 . S
C419 C415 1.383 . S
C419 C418 1.367 . S
C419 H433 0.950 . S
C420 C417 1.481 . S
C420 C421 1.297 . S
C420 H434 0.950 . S
C421 C420 1.297 . S
C421 C422 1.479 . S
C421 H435 0.950 . S
C422 C421 1.479 . S
C422 C423 1.375 . S
C422 C428 1.404 . S
C423 C422 1.375 . S
C423 C424 1.369 . S
C423 H436 0.950 . S
C424 C423 1.369 . S
C424 C425 1.392 . S
C424 H437 0.951 1_545 S
C425 C424 1.392 . S
C425 C427 1.384 . S
H426 C428 0.949 . S
C427 C425 1.384 . S
C427 C428 1.385 . S
C427 H429 0.950 . S
C428 C422 1.404 . S
C428 H426 0.949 . S
C428 C427 1.385 . S
H429 C427 0.950 . S
H430 C414 0.951 . S
H431 C416 0.951 . S
H432 C418 0.951 . S
H433 C419 0.950 . S
H434 C420 0.950 . S
H435 C421 0.950 . S
H436 C423 0.950 . S
H437 C424 0.951 1_565 S
C438 C439 1.386 . S
C438 C440 1.383 . S
C438 H454 0.951 . S
C439 C438 1.386 . S
C439 C443 1.383 . S
C440 C438 1.383 . S
C440 C441 1.402 . S
C440 H455 0.951 . S
C441 C440 1.402 . S
C441 C442 1.375 . S
C441 C444 1.481 . S
C442 C441 1.375 . S
C442 C443 1.367 . S
C442 H456 0.951 . S
C443 C439 1.383 . S
C443 C442 1.367 . S
C443 H457 0.950 1_655 S
C444 C441 1.481 . S
C444 C445 1.297 . S
C444 H458 0.950 . S
C445 C444 1.297 . S
C445 C446 1.479 . S
C445 H459 0.950 . S
C446 C445 1.479 . S
C446 C447 1.375 . S
C446 C452 1.404 . S
C447 C446 1.375 . S
C447 C448 1.369 . S
C447 H460 0.950 . S
C448 C447 1.369 . S
C448 C449 1.392 . S
C448 H461 0.951 . S
C449 C448 1.392 . S
C449 C451 1.384 . S
H450 C452 0.949 . S
C451 C449 1.384 . S
C451 C452 1.385 . S
C451 H453 0.950 . S
C452 C446 1.404 . S
C452 H450 0.949 . S
C452 C451 1.385 . S
H453 C451 0.950 . S
H454 C438 0.951 . S
H455 C440 0.951 . S
H456 C442 0.951 . S
H457 C443 0.950 1_455 S
H458 C444 0.950 . S
H459 C445 0.950 . S
H460 C447 0.950 . S
H461 C448 0.951 . S
C462 C463 1.386 . S
C462 C464 1.383 . S
C462 H478 0.951 . S
C463 C462 1.386 . S
C463 C467 1.383 . S
C464 C462 1.383 . S
C464 C465 1.402 . S
C464 H479 0.951 . S
C465 C464 1.402 . S
C465 C466 1.375 . S
C465 C468 1.481 . S
C466 C465 1.375 . S
C466 C467 1.367 . S
C466 H480 0.951 . S
C467 C463 1.383 . S
C467 C466 1.367 . S
C467 H481 0.950 . S
C468 C465 1.481 . S
C468 C469 1.297 . S
C468 H482 0.950 . S
C469 C468 1.297 . S
C469 C470 1.479 . S
C469 H483 0.950 . S
C470 C469 1.479 . S
C470 C471 1.375 . S
C470 C476 1.404 . S
C471 C470 1.375 . S
C471 C472 1.369 . S
C471 H484 0.950 . S
C472 C471 1.369 . S
C472 C473 1.392 . S
C472 H485 0.951 . S
C473 C472 1.392 . S
C473 C475 1.384 . S
H474 C476 0.949 . S
C475 C473 1.384 . S
C475 C476 1.385 . S
C475 H477 0.950 . S
C476 C470 1.404 . S
C476 H474 0.949 . S
C476 C475 1.385 . S
H477 C475 0.950 . S
H478 C462 0.951 . S
H479 C464 0.951 . S
H480 C466 0.951 . S
H481 C467 0.950 . S
H482 C468 0.950 . S
H483 C469 0.950 . S
H484 C471 0.950 . S
H485 C472 0.951 . S
C486 C487 1.386 . S
C486 C488 1.383 . S
C486 H502 0.951 . S
C487 C486 1.386 . S
C487 C491 1.383 . S
C488 C486 1.383 . S
C488 C489 1.402 . S
C488 H503 0.951 . S
C489 C488 1.402 . S
C489 C490 1.375 . S
C489 C492 1.481 . S
C490 C489 1.375 . S
C490 C491 1.367 . S
C490 H504 0.951 . S
C491 C487 1.383 . S
C491 C490 1.367 . S
C491 H505 0.950 . S
C492 C489 1.481 . S
C492 C493 1.297 . S
C492 H506 0.950 . S
C493 C492 1.297 . S
C493 C494 1.467 1_455 S
C493 H507 0.950 . S
C494 C493 1.467 1_655 S
C494 C495 1.394 . S
C494 C500 1.400 . S
C495 C494 1.394 . S
C495 C496 1.369 . S
C495 H508 0.950 . S
C496 C495 1.369 . S
C496 C497 1.392 . S
C496 H509 0.951 . S
C497 C496 1.392 . S
C497 C499 1.384 . S
H498 C500 0.949 . S
C499 C497 1.384 . S
C499 C500 1.385 . S
C499 H501 0.950 . S
C500 C494 1.400 . S
C500 H498 0.949 . S
C500 C499 1.385 . S
H501 C499 0.950 . S
H502 C486 0.951 . S
H503 C488 0.951 . S
H504 C490 0.951 . S
H505 C491 0.950 . S
H506 C492 0.950 . S
H507 C493 0.950 . S
H508 C495 0.950 . S
H509 C496 0.951 . S
C510 C511 1.386 . S
C510 C512 1.383 . S
C510 H526 0.951 . S
C511 C510 1.386 . S
C511 C515 1.383 . S
C512 C510 1.383 . S
C512 C513 1.402 . S
C512 H527 0.951 . S
C513 C512 1.402 . S
C513 C514 1.375 . S
C513 C516 1.481 . S
C514 C513 1.375 . S
C514 C515 1.367 . S
C514 H528 0.951 . S
C515 C511 1.383 . S
C515 C514 1.367 . S
C515 H529 0.950 . S
C516 C513 1.481 . S
C516 C517 1.297 . S
C516 H530 0.950 . S
C517 C516 1.297 . S
C517 C518 1.479 . S
C517 H531 0.950 . S
C518 C517 1.479 . S
C518 C519 1.375 . S
C518 C524 1.404 . S
C519 C518 1.375 . S
C519 C520 1.369 . S
C519 H532 0.950 . S
C520 C519 1.369 . S
C520 C521 1.392 . S
C520 H533 0.951 . S
C521 C520 1.392 . S
C521 C523 1.384 . S
H522 C524 0.949 . S
C523 C521 1.384 . S
C523 C524 1.385 . S
C523 H525 0.950 . S
C524 C518 1.404 . S
C524 H522 0.949 . S
C524 C523 1.385 . S
H525 C523 0.950 . S
H526 C510 0.951 . S
H527 C512 0.951 . S
H528 C514 0.951 . S
H529 C515 0.950 . S
H530 C516 0.950 . S
H531 C517 0.950 . S
H532 C519 0.950 . S
H533 C520 0.951 . S
C534 C535 1.386 . S
C534 C536 1.383 . S
C534 H550 0.951 . S
C535 C534 1.386 . S
C535 C539 1.383 . S
C536 C534 1.383 . S
C536 C537 1.402 . S
C536 H551 0.951 . S
C537 C536 1.402 . S
C537 C538 1.375 . S
C537 C540 1.481 . S
C538 C537 1.375 . S
C538 C539 1.367 . S
C538 H552 0.951 . S
C539 C535 1.383 . S
C539 C538 1.367 . S
C539 H553 0.950 . S
C540 C537 1.481 . S
C540 C541 1.297 1_565 S
C540 H554 0.950 . S
C541 C540 1.297 1_545 S
C541 C542 1.479 . S
C541 H555 0.950 . S
C542 C541 1.479 . S
C542 C543 1.375 . S
C542 C548 1.404 . S
C543 C542 1.375 . S
C543 C544 1.369 . S
C543 H556 0.950 . S
C544 C543 1.369 . S
C544 C545 1.392 . S
C544 H557 0.951 . S
C545 C544 1.392 . S
C545 C547 1.384 . S
H546 C548 0.949 . S
C547 C545 1.384 . S
C547 C548 1.385 . S
C547 H549 0.950 . S
C548 C542 1.404 . S
C548 H546 0.949 . S
C548 C547 1.385 . S
H549 C547 0.950 . S
H550 C534 0.951 . S
H551 C536 0.951 . S
H552 C538 0.951 . S
H553 C539 0.950 . S
H554 C540 0.950 . S
H555 C541 0.950 . S
H556 C543 0.950 . S
H557 C544 0.951 . S
C127 C36 0.951 1_556 S
C137 C7 0.958 . S
C151 C22 0.935 . S
C161 C8 0.885 . S
C175 C21 0.886 . S
C185 C35 0.929 . S
C199 C77 0.930 . S
C209 C50 0.952 . S
C223 C64 0.929 . S
C233 C49 0.941 . S
C247 C63 0.942 . S
C257 C78 0.864 . S
C271 C91 0.851 . S
C281 C120 0.815 . S
C295 C92 0.894 . S
C305 C106 0.966 . S
C319 C105 0.889 . S
C329 C119 0.877 . S
C343 C11 1.316 . S
C353 C109 1.337 . S
C367 C27 1.197 . S
C377 C125 1.174 . S
C391 C97 1.196 . S
C401 C39 1.277 . S
C415 C69 1.228 . S
C425 C41 1.152 . S
C439 C13 1.261 . S
C449 C83 1.248 . S
C463 C55 1.221 . S
C473 C25 1.289 . S
C487 C111 1.227 . S
C497 C81 1.313 . S
C511 C53 1.276 . S
C521 C123 1.254 . S
C535 C95 1.337 . S
C545 C67 1.317 . S
