# Generated by pormake.
# Topology cag, (4)-cn, num edge types: 1
# Building blocks:
#     Node 0, Type 0, BuildingBlock: NAHDIM_clean_sbu_0, # of connection points: 4
#     Node 1, Type 0, BuildingBlock: NAHDIM_clean_sbu_0, # of connection points: 4
#     Node 2, Type 0, BuildingBlock: NAHDIM_clean_sbu_0, # of connection points: 4
#     Node 3, Type 0, BuildingBlock: NAHDIM_clean_sbu_0, # of connection points: 4
#     Node 4, Type 0, BuildingBlock: NAHDIM_clean_sbu_0, # of connection points: 4
#     Node 5, Type 0, BuildingBlock: NAHDIM_clean_sbu_0, # of connection points: 4
#     Node 6, Type 0, BuildingBlock: NAHDIM_clean_sbu_0, # of connection points: 4
#     Node 7, Type 0, BuildingBlock: NAHDIM_clean_sbu_0, # of connection points: 4
#     Node 8, Type 0, BuildingBlock: NAHDIM_clean_sbu_0, # of connection points: 4
#     Node 9, Type 0, BuildingBlock: NAHDIM_clean_sbu_0, # of connection points: 4
#     Node 10, Type 0, BuildingBlock: NAHDIM_clean_sbu_0, # of connection points: 4
#     Node 11, Type 0, BuildingBlock: NAHDIM_clean_sbu_0, # of connection points: 4
#     Node 12, Type 0, BuildingBlock: NAHDIM_clean_sbu_0, # of connection points: 4
#     Node 13, Type 0, BuildingBlock: NAHDIM_clean_sbu_0, # of connection points: 4
#     Node 14, Type 0, BuildingBlock: NAHDIM_clean_sbu_0, # of connection points: 4
#     Node 15, Type 0, BuildingBlock: NAHDIM_clean_sbu_0, # of connection points: 4
#     Edge 16, Type (0, 0), BuildingBlock: XIVTED_clean_linker_0, # of connection points: 2
#     Edge 17, Type (0, 0), BuildingBlock: XIVTED_clean_linker_0, # of connection points: 2
#     Edge 18, Type (0, 0), BuildingBlock: XIVTED_clean_linker_0, # of connection points: 2
#     Edge 19, Type (0, 0), BuildingBlock: XIVTED_clean_linker_0, # of connection points: 2
#     Edge 20, Type (0, 0), BuildingBlock: XIVTED_clean_linker_0, # of connection points: 2
#     Edge 21, Type (0, 0), BuildingBlock: XIVTED_clean_linker_0, # of connection points: 2
#     Edge 22, Type (0, 0), BuildingBlock: XIVTED_clean_linker_0, # of connection points: 2
#     Edge 23, Type (0, 0), BuildingBlock: XIVTED_clean_linker_0, # of connection points: 2
#     Edge 24, Type (0, 0), BuildingBlock: XIVTED_clean_linker_0, # of connection points: 2
#     Edge 25, Type (0, 0), BuildingBlock: XIVTED_clean_linker_0, # of connection points: 2
#     Edge 26, Type (0, 0), BuildingBlock: XIVTED_clean_linker_0, # of connection points: 2
#     Edge 27, Type (0, 0), BuildingBlock: XIVTED_clean_linker_0, # of connection points: 2
#     Edge 28, Type (0, 0), BuildingBlock: XIVTED_clean_linker_0, # of connection points: 2
#     Edge 29, Type (0, 0), BuildingBlock: XIVTED_clean_linker_0, # of connection points: 2
#     Edge 30, Type (0, 0), BuildingBlock: XIVTED_clean_linker_0, # of connection points: 2
#     Edge 31, Type (0, 0), BuildingBlock: XIVTED_clean_linker_0, # of connection points: 2
#     Edge 32, Type (0, 0), BuildingBlock: XIVTED_clean_linker_0, # of connection points: 2
#     Edge 33, Type (0, 0), BuildingBlock: XIVTED_clean_linker_0, # of connection points: 2
#     Edge 34, Type (0, 0), BuildingBlock: XIVTED_clean_linker_0, # of connection points: 2
#     Edge 35, Type (0, 0), BuildingBlock: XIVTED_clean_linker_0, # of connection points: 2
#     Edge 36, Type (0, 0), BuildingBlock: XIVTED_clean_linker_0, # of connection points: 2
#     Edge 37, Type (0, 0), BuildingBlock: XIVTED_clean_linker_0, # of connection points: 2
#     Edge 38, Type (0, 0), BuildingBlock: XIVTED_clean_linker_0, # of connection points: 2
#     Edge 39, Type (0, 0), BuildingBlock: XIVTED_clean_linker_0, # of connection points: 2
#     Edge 40, Type (0, 0), BuildingBlock: XIVTED_clean_linker_0, # of connection points: 2
#     Edge 41, Type (0, 0), BuildingBlock: XIVTED_clean_linker_0, # of connection points: 2
#     Edge 42, Type (0, 0), BuildingBlock: XIVTED_clean_linker_0, # of connection points: 2
#     Edge 43, Type (0, 0), BuildingBlock: XIVTED_clean_linker_0, # of connection points: 2
#     Edge 44, Type (0, 0), BuildingBlock: XIVTED_clean_linker_0, # of connection points: 2
#     Edge 45, Type (0, 0), BuildingBlock: XIVTED_clean_linker_0, # of connection points: 2
#     Edge 46, Type (0, 0), BuildingBlock: XIVTED_clean_linker_0, # of connection points: 2
#     Edge 47, Type (0, 0), BuildingBlock: XIVTED_clean_linker_0, # of connection points: 2
# Relax obj value: 0.038
# Max RMSD: 0.071
# Mean RMSD: 0.071
data_MOF--net-cag--node1-NAHDIM_clean_sbu_0--edge1-XIVTED_clean_linker_0
_symmetry_space_group_name_H-M    P1
_symmetry_Int_Tables_number       1
_symmetry_cell_setting            triclinic
loop_
_symmetry_equiv_pos_as_xyz
'x, y, z'
_cell_length_a     42.305734
_cell_length_b     50.690102
_cell_length_c     43.357711
_cell_angle_alpha  90.014449
_cell_angle_beta   90.105789
_cell_angle_gamma 89.963577
loop_
_atom_site_label
_atom_site_type_symbol
_atom_site_fract_x
_atom_site_fract_y
_atom_site_fract_z
_atom_type_partial_charge
C0 C 0.27628 0.18383 0.05978 0.0
O1 O 0.29294 0.18609 0.08523 0.0
O2 O 0.34029 0.13424 0.06618 0.0
Zn3 Zn 0.29302 0.12963 0.06755 0.0
O4 O 0.27825 0.12655 0.11147 0.0
C5 C 0.26854 0.07675 0.05215 0.0
O6 O 0.2577 0.07606 0.08051 0.0
O7 O 0.27261 0.16116 0.0478 0.0
C8 C 0.292 0.11167 0.1309 0.0
O9 O 0.31593 0.09705 0.12188 0.0
C10 C 0.357 0.14439 0.0875 0.0
O11 O 0.34327 0.15311 0.11266 0.0
O12 O 0.28295 0.09718 0.04267 0.0
C13 C 0.20992 0.81239 0.55806 0.0
O14 O 0.18921 0.80998 0.58041 0.0
O15 O 0.15026 0.86263 0.56783 0.0
Zn16 Zn 0.19762 0.86671 0.56942 0.0
O17 O 0.21251 0.86902 0.61328 0.0
C18 C 0.20106 0.90164 0.51844 0.0
O19 O 0.18752 0.88134 0.50499 0.0
O20 O 0.21775 0.83533 0.54909 0.0
C21 C 0.20171 0.88635 0.63162 0.0
O22 O 0.18076 0.90344 0.62148 0.0
C23 C 0.13354 0.85417 0.59006 0.0
O24 O 0.14731 0.84723 0.61599 0.0
O25 O 0.20869 0.89992 0.54672 0.0
C26 C 0.27704 0.82324 0.95631 0.0
O27 O 0.2927 0.84032 0.97325 0.0
O28 O 0.34081 0.85577 0.91122 0.0
Zn29 Zn 0.29352 0.85979 0.90903 0.0
O30 O 0.27991 0.86306 0.86477 0.0
C31 C 0.28825 0.91474 0.92205 0.0
O32 O 0.30289 0.91609 0.8954 0.0
O33 O 0.27374 0.82762 0.92764 0.0
C34 C 0.25489 0.87507 0.85662 0.0
O35 O 0.23656 0.88549 0.8778 0.0
C36 C 0.35881 0.86346 0.88958 0.0
O37 O 0.34632 0.87427 0.86486 0.0
O38 O 0.28114 0.89224 0.9329 0.0
C39 C 0.20482 0.18514 0.42425 0.0
O40 O 0.18288 0.18922 0.40329 0.0
O41 O 0.14584 0.13746 0.40753 0.0
Zn42 Zn 0.19299 0.13219 0.40632 0.0
O43 O 0.20799 0.13222 0.36238 0.0
C44 C 0.19533 0.07629 0.41143 0.0
O45 O 0.18214 0.07837 0.38408 0.0
O46 O 0.21374 0.16166 0.42973 0.0
C47 C 0.23405 0.12161 0.3548 0.0
O48 O 0.252 0.11109 0.37629 0.0
C49 C 0.12812 0.13224 0.38464 0.0
O50 O 0.14081 0.12337 0.35902 0.0
O51 O 0.2028 0.09717 0.42595 0.0
C52 C 0.68654 0.84722 0.84485 0.0
O53 O 0.67607 0.8254 0.85759 0.0
O54 O 0.61251 0.86595 0.89181 0.0
Zn55 Zn 0.65923 0.86977 0.89909 0.0
O56 O 0.67529 0.83979 0.92519 0.0
C57 C 0.66272 0.90767 0.94871 0.0
O58 O 0.65394 0.88731 0.96538 0.0
O59 O 0.68189 0.86908 0.85845 0.0
C60 C 0.70275 0.84073 0.93704 0.0
O61 O 0.72026 0.86178 0.93261 0.0
C62 C 0.59457 0.85614 0.91229 0.0
O63 O 0.607 0.84775 0.93829 0.0
O64 O 0.66693 0.90469 0.91991 0.0
C65 C 0.79951 0.14603 0.34708 0.0
O66 O 0.80921 0.16822 0.35958 0.0
O67 O 0.87534 0.12804 0.39294 0.0
Zn68 Zn 0.82879 0.12412 0.40102 0.0
O69 O 0.81382 0.15445 0.42717 0.0
C70 C 0.82799 0.08588 0.45058 0.0
O71 O 0.83865 0.10584 0.46689 0.0
O72 O 0.80529 0.12438 0.36074 0.0
C73 C 0.78897 0.15335 0.44349 0.0
O74 O 0.77214 0.13158 0.44367 0.0
C75 C 0.89324 0.13874 0.4129 0.0
O76 O 0.88088 0.14767 0.43864 0.0
O77 O 0.82167 0.08928 0.42219 0.0
C78 C 0.68409 0.14913 0.14467 0.0
O79 O 0.67548 0.17144 0.13172 0.0
O80 O 0.6102 0.13354 0.09522 0.0
Zn81 Zn 0.65676 0.12754 0.08958 0.0
O82 O 0.67423 0.15697 0.06367 0.0
C83 C 0.66719 0.08924 0.04036 0.0
O84 O 0.66805 0.11016 0.02252 0.0
O85 O 0.67835 0.12754 0.13086 0.0
C86 C 0.70312 0.15772 0.05583 0.0
O87 O 0.72209 0.13854 0.06443 0.0
C88 C 0.59297 0.13533 0.07129 0.0
O89 O 0.60621 0.13341 0.04399 0.0
O90 O 0.66309 0.09213 0.0692 0.0
C91 C 0.8039 0.84396 0.64391 0.0
O92 O 0.81108 0.82132 0.63092 0.0
O93 O 0.88002 0.85925 0.59576 0.0
Zn94 Zn 0.8335 0.86503 0.58947 0.0
O95 O 0.81623 0.83566 0.56321 0.0
C96 C 0.82416 0.90361 0.54021 0.0
O97 O 0.82397 0.88286 0.52207 0.0
O98 O 0.81138 0.8653 0.63042 0.0
C99 C 0.78774 0.83572 0.55391 0.0
O100 O 0.76925 0.85555 0.56138 0.0
C101 C 0.8974 0.85701 0.57204 0.0
O102 O 0.88425 0.85806 0.54459 0.0
O103 O 0.82745 0.90048 0.56913 0.0
C104 C 0.79413 0.68644 0.05151 0.0
O105 O 0.81711 0.68968 0.07159 0.0
O106 O 0.85178 0.6376 0.06817 0.0
Zn107 Zn 0.80441 0.63321 0.069 0.0
O108 O 0.78912 0.63326 0.11287 0.0
C109 C 0.80483 0.57778 0.06257 0.0
O110 O 0.82082 0.58049 0.08839 0.0
O111 O 0.78411 0.66327 0.04608 0.0
C112 C 0.76425 0.62112 0.12105 0.0
O113 O 0.74743 0.60861 0.10017 0.0
C114 C 0.86857 0.63713 0.09252 0.0
O115 O 0.85477 0.63415 0.1194 0.0
O116 O 0.7943 0.59829 0.04918 0.0
C117 C 0.71248 0.31059 0.56225 0.0
O118 O 0.69267 0.30779 0.58532 0.0
O119 O 0.65007 0.35449 0.57398 0.0
Zn120 Zn 0.69653 0.36355 0.57409 0.0
O121 O 0.71235 0.36657 0.61781 0.0
C122 C 0.67907 0.41395 0.55078 0.0
O123 O 0.6535 0.40785 0.56635 0.0
O124 O 0.71906 0.33371 0.55291 0.0
C125 C 0.71202 0.38807 0.6329 0.0
O126 O 0.70178 0.40968 0.61949 0.0
C127 C 0.63324 0.352 0.59805 0.0
O128 O 0.64639 0.35467 0.62533 0.0
O129 O 0.70223 0.39793 0.5508 0.0
C130 C 0.7886 0.30962 0.93355 0.0
O131 O 0.81365 0.30677 0.91599 0.0
O132 O 0.84267 0.35751 0.91229 0.0
Zn133 Zn 0.79567 0.36293 0.91364 0.0
O134 O 0.77922 0.36447 0.87013 0.0
C135 C 0.79792 0.39941 0.96342 0.0
O136 O 0.81302 0.37951 0.97612 0.0
O137 O 0.77602 0.3323 0.93606 0.0
C138 C 0.77327 0.38613 0.85654 0.0
O139 O 0.77712 0.40844 0.87152 0.0
C140 C 0.86042 0.37271 0.8968 0.0
O141 O 0.84775 0.39243 0.88148 0.0
O142 O 0.78715 0.39684 0.93622 0.0
C143 C 0.70699 0.68584 0.42492 0.0
O144 O 0.68446 0.69034 0.40472 0.0
O145 O 0.64807 0.64031 0.40468 0.0
Zn146 Zn 0.69495 0.63292 0.40577 0.0
O147 O 0.71175 0.63103 0.36245 0.0
C148 C 0.67845 0.58184 0.4286 0.0
O149 O 0.65187 0.58814 0.41476 0.0
O150 O 0.71634 0.66228 0.42923 0.0
C151 C 0.70006 0.61456 0.34349 0.0
O152 O 0.67759 0.59859 0.35283 0.0
C153 C 0.63258 0.64984 0.38213 0.0
O154 O 0.64759 0.65705 0.35702 0.0
O155 O 0.70151 0.59794 0.42767 0.0
C156 C 0.18726 0.35232 0.84802 0.0
O157 O 0.17456 0.33081 0.85947 0.0
O158 O 0.11368 0.37082 0.89372 0.0
Zn159 Zn 0.16032 0.37301 0.90257 0.0
O160 O 0.1746 0.34143 0.92708 0.0
C161 C 0.15415 0.40726 0.95341 0.0
O162 O 0.13666 0.38731 0.96249 0.0
O163 O 0.18428 0.3739 0.86266 0.0
C164 C 0.19766 0.34286 0.94581 0.0
O165 O 0.21256 0.36541 0.9492 0.0
C166 C 0.09588 0.35386 0.90649 0.0
O167 O 0.1083 0.33644 0.92539 0.0
O168 O 0.16778 0.40596 0.92735 0.0
C169 C 0.30245 0.6409 0.36111 0.0
O170 O 0.30564 0.66329 0.37605 0.0
O171 O 0.38348 0.62697 0.40768 0.0
Zn172 Zn 0.33684 0.62183 0.4135 0.0
O173 O 0.32021 0.65241 0.43806 0.0
C174 C 0.34321 0.58681 0.46397 0.0
O175 O 0.35882 0.60728 0.47466 0.0
O176 O 0.31424 0.62001 0.37257 0.0
C177 C 0.29521 0.65068 0.4541 0.0
O178 O 0.27994 0.62814 0.45516 0.0
C179 C 0.39609 0.64023 0.3861 0.0
O180 O 0.37805 0.65138 0.36513 0.0
O181 O 0.3307 0.58823 0.43735 0.0
C182 C 0.18881 0.64141 0.15782 0.0
O183 O 0.17518 0.66302 0.14761 0.0
O184 O 0.12209 0.63009 0.10388 0.0
Zn185 Zn 0.16878 0.62406 0.09901 0.0
O186 O 0.18788 0.65511 0.07713 0.0
C187 C 0.16136 0.56997 0.08463 0.0
O188 O 0.14476 0.57126 0.11018 0.0
O189 O 0.18896 0.62103 0.14077 0.0
C190 C 0.19221 0.65613 0.04818 0.0
O191 O 0.18435 0.63582 0.03098 0.0
C192 C 0.10493 0.63136 0.07984 0.0
O193 O 0.11828 0.62902 0.05265 0.0
O194 O 0.17511 0.59063 0.07495 0.0
C195 C 0.30407 0.34213 0.64718 0.0
O196 O 0.31214 0.31928 0.63522 0.0
O197 O 0.37999 0.3548 0.59999 0.0
Zn198 Zn 0.33384 0.36116 0.59238 0.0
O199 O 0.31639 0.33144 0.56686 0.0
C200 C 0.34146 0.41617 0.581 0.0
O201 O 0.35649 0.41458 0.60748 0.0
O202 O 0.31094 0.36318 0.6328 0.0
C203 C 0.29265 0.33478 0.54931 0.0
O204 O 0.27923 0.35813 0.54794 0.0
C205 C 0.39777 0.35101 0.57684 0.0
O206 O 0.38522 0.35097 0.5491 0.0
O207 O 0.32915 0.39547 0.56965 0.0
H208 H 0.28568 0.23557 0.07526 0.0
H209 H 0.17689 0.29202 0.93931 0.0
H210 H 0.23688 0.18603 0.00963 0.0
H211 H 0.24117 0.34015 0.99248 0.0
H212 H 0.19451 0.25329 0.96818 0.0
H213 H 0.26529 0.27448 0.04857 0.0
C214 C 0.27058 0.23286 0.05531 0.0
C215 C 0.26309 0.2075 0.04457 0.0
C216 C 0.20474 0.27233 0.97353 0.0
C217 C 0.23967 0.25196 0.01395 0.0
C218 C 0.19466 0.29446 0.9571 0.0
C219 C 0.20769 0.31935 0.96342 0.0
C220 C 0.22785 0.27512 -0.00341 0.0
C221 C 0.23061 0.32133 0.98674 0.0
C222 C 0.25902 0.25509 0.04004 0.0
C223 C 0.24338 0.2052 0.01863 0.0
N224 N 0.23995 0.29951 0.00249 0.0
N225 N 0.23237 0.22715 0.00419 0.0
H226 H 0.24527 0.65342 0.49411 0.0
H227 H 0.25652 0.81002 0.51434 0.0
H228 H 0.31736 0.70132 0.45147 0.0
H229 H 0.19411 0.76078 0.56798 0.0
H230 H 0.27791 0.77053 0.48969 0.0
H231 H 0.22495 0.6927 0.52014 0.0
C232 C 0.25685 0.67218 0.49025 0.0
C233 C 0.28303 0.67409 0.47057 0.0
C234 C 0.2596 0.76836 0.50692 0.0
C235 C 0.25985 0.71911 0.50018 0.0
C236 C 0.24733 0.79091 0.52096 0.0
C237 C 0.22347 0.7887 0.54324 0.0
C238 C 0.24779 0.74343 0.51506 0.0
C239 C 0.21251 0.76341 0.55094 0.0
C240 C 0.24528 0.69459 0.50516 0.0
C241 C 0.29714 0.6989 0.46648 0.0
N242 N 0.22468 0.74177 0.5368 0.0
N243 N 0.2853 0.72045 0.48106 0.0
H244 H 0.27687 0.80907 0.0172 0.0
H245 H 0.19914 0.66746 0.98672 0.0
H246 H 0.24842 0.78172 0.927 0.0
H247 H 0.2149 0.69998 0.07752 0.0
H248 H 0.21977 0.70815 0.96414 0.0
H249 H 0.25666 0.76821 0.03951 0.0
C250 C 0.26633 0.7945 0.00208 0.0
C251 C 0.26431 0.79884 0.97019 0.0
C252 C 0.2187 0.70637 0.989 0.0
C253 C 0.24124 0.75195 -0.00443 0.0
C254 C 0.207 0.68312 0.00191 0.0
C255 C 0.20525 0.68032 0.03406 0.0
C256 C 0.22887 0.72691 0.00839 0.0
C257 C 0.21574 0.70128 0.05261 0.0
C258 C 0.25478 0.77117 0.01484 0.0
C259 C 0.25042 0.77924 0.95173 0.0
N260 N 0.22712 0.72366 0.03951 0.0
N261 N 0.23948 0.75662 0.96468 0.0
H262 H 0.31314 0.28353 0.54876 0.0
H263 H 0.18847 0.23729 0.42058 0.0
H264 H 0.24418 0.33549 0.50733 0.0
H265 H 0.25174 0.18402 0.46793 0.0
H266 H 0.21014 0.27386 0.45054 0.0
H267 H 0.29241 0.24718 0.51782 0.0
C268 C 0.29364 0.28732 0.53314 0.0
C269 C 0.28035 0.31261 0.53066 0.0
C270 C 0.2193 0.25418 0.45437 0.0
C271 C 0.25652 0.27104 0.49513 0.0
C272 C 0.20697 0.23327 0.43723 0.0
C273 C 0.21826 0.20752 0.44178 0.0
C274 C 0.24318 0.24934 0.4762 0.0
C275 C 0.24227 0.20353 0.46368 0.0
C276 C 0.2818 0.26653 0.51549 0.0
C277 C 0.25513 0.31632 0.51004 0.0
N278 N 0.25392 0.22422 0.48008 0.0
N279 N 0.24405 0.29576 0.49306 0.0
H280 H 0.8143 0.73766 0.05334 0.0
H281 H 0.6759 0.79199 0.94453 0.0
H282 H 0.74257 0.68775 0.01309 0.0
H283 H 0.75784 0.83784 0.97008 0.0
H284 H 0.69755 0.75448 0.97301 0.0
H285 H 0.79153 0.77546 0.02636 0.0
C286 C 0.79373 0.73464 0.03886 0.0
C287 C 0.78037 0.70947 0.03542 0.0
C288 C 0.71078 0.77275 0.97238 0.0
C289 C 0.75412 0.75273 0.00452 0.0
C290 C 0.6984 0.79421 0.95621 0.0
C291 C 0.71513 0.81809 0.95486 0.0
C292 C 0.74001 0.77522 0.98751 0.0
C293 C 0.74418 0.8198 0.97041 0.0
C294 C 0.78078 0.75624 0.02341 0.0
C295 C 0.75372 0.70677 0.01633 0.0
N296 N 0.75568 0.79866 0.98611 0.0
N297 N 0.74144 0.72815 0.00164 0.0
H298 H 0.81432 0.20302 0.443 0.0
H299 H 0.69746 0.25888 0.57231 0.0
H300 H 0.74116 0.15643 0.48587 0.0
H301 H 0.75668 0.30872 0.51604 0.0
H302 H 0.71707 0.22038 0.54445 0.0
H303 H 0.79713 0.2412 0.47302 0.0
C304 C 0.79467 0.20079 0.45878 0.0
C305 C 0.77907 0.1765 0.46186 0.0
C306 C 0.72581 0.23973 0.53822 0.0
C307 C 0.75938 0.22013 0.49636 0.0
C308 C 0.71471 0.26174 0.55418 0.0
C309 C 0.72536 0.2871 0.54642 0.0
C310 C 0.74789 0.24303 0.51441 0.0
C311 C 0.74773 0.28956 0.52272 0.0
C312 C 0.78485 0.22263 0.47586 0.0
C313 C 0.75378 0.17479 0.48266 0.0
N314 N 0.75825 0.26779 0.50754 0.0
N315 N 0.74475 0.19631 0.49914 0.0
H316 H 0.81418 0.26028 0.93899 0.0
H317 H 0.67218 0.20328 0.04043 0.0
H318 H 0.73394 0.30701 0.96728 0.0
H319 H 0.76135 0.16299 0.02897 0.0
H320 H 0.69255 0.2401 0.01009 0.0
H321 H 0.79322 0.22304 0.96822 0.0
C322 C 0.7921 0.2627 0.95128 0.0
C323 C 0.7758 0.28683 0.95072 0.0
C324 C 0.70766 0.22322 0.01424 0.0
C325 C 0.75168 0.24422 0.9842 0.0
C326 C 0.69604 0.20214 0.03149 0.0
C327 C 0.71512 0.18002 0.03729 0.0
C328 C 0.73852 0.22211 0.00246 0.0
C329 C 0.74585 0.17968 0.02515 0.0
C330 C 0.78021 0.24144 0.96804 0.0
C331 C 0.74733 0.28881 0.96714 0.0
N332 N 0.75657 0.20039 0.00825 0.0
N333 N 0.73615 0.26776 0.98316 0.0
H334 H 0.73157 0.83299 0.52265 0.0
H335 H 0.75796 0.68507 0.46416 0.0
H336 H 0.81665 0.78863 0.54122 0.0
H337 H 0.68574 0.73669 0.42778 0.0
H338 H 0.77805 0.72165 0.49541 0.0
H339 H 0.71237 0.7966 0.49073 0.0
C340 C 0.7462 0.81559 0.52006 0.0
C341 C 0.77577 0.81386 0.53461 0.0
C342 C 0.75787 0.72496 0.48049 0.0
C343 C 0.75389 0.77211 0.4982 0.0
C344 C 0.74637 0.70409 0.4627 0.0
C345 C 0.72013 0.70782 0.44333 0.0
C346 C 0.74283 0.74965 0.47915 0.0
C347 C 0.70606 0.73291 0.44233 0.0
C348 C 0.73527 0.79486 0.50175 0.0
C349 C 0.79375 0.79084 0.53035 0.0
N350 N 0.71749 0.75281 0.46009 0.0
N351 N 0.78247 0.77083 0.51263 0.0
H352 H 0.24614 0.02741 0.06652 0.0
H353 H 0.29907 0.96573 0.90465 0.0
H354 H 0.28654 0.07248 0.99187 0.0
H355 H 0.26178 0.91917 0.97958 0.0
H356 H 0.29035 0.00554 0.93502 0.0
H357 H 0.24727 0.98809 0.03376 0.0
C358 C 0.25499 0.02911 0.04318 0.0
C359 C 0.2665 0.05325 0.03202 0.0
C360 C 0.28393 0.98664 0.94482 0.0
C361 C 0.26795 0.00834 0.99448 0.0
C362 C 0.28892 0.96387 0.92746 0.0
C363 C 0.28137 0.93904 0.93967 0.0
C364 C 0.27137 0.98464 0.97469 0.0
C365 C 0.26809 0.93789 0.9693 0.0
C366 C 0.25569 0.00663 0.02451 0.0
C367 C 0.27764 0.05427 0.00156 0.0
N368 N 0.26367 0.96037 0.98589 0.0
N369 N 0.27824 0.03213 0.98396 0.0
H370 H 0.2252 0.94831 0.54012 0.0
H371 H 0.18181 0.02804 0.3865 0.0
H372 H 0.18538 0.91243 0.45851 0.0
H373 H 0.21946 0.06469 0.46862 0.0
H374 H 0.18688 0.98503 0.41122 0.0
H375 H 0.22734 0.99052 0.51299 0.0
C376 C 0.21711 0.94925 0.51642 0.0
C377 C 0.20487 0.92682 0.50164 0.0
C378 C 0.19418 0.00245 0.42381 0.0
C379 C 0.20714 0.97512 0.4705 0.0
C380 C 0.19129 0.02705 0.40969 0.0
C381 C 0.20001 0.05004 0.42559 0.0
C382 C 0.20583 0.00077 0.4541 0.0
C383 C 0.2123 0.0475 0.45555 0.0
C384 C 0.21831 0.97338 0.50096 0.0
C385 C 0.19484 0.92921 0.47089 0.0
N386 N 0.21468 0.02331 0.46889 0.0
N387 N 0.19603 0.95295 0.45642 0.0
H388 H 0.65643 0.92089 0.00965 0.0
H389 H 0.67707 0.07579 0.97993 0.0
H390 H 0.67679 0.95452 0.92038 0.0
H391 H 0.66233 0.04169 0.07002 0.0
H392 H 0.67839 0.03145 0.95788 0.0
H393 H 0.65986 0.96489 0.03238 0.0
C394 C 0.66175 0.93751 0.99483 0.0
C395 C 0.6662 0.93401 0.96303 0.0
C396 C 0.675 0.03366 0.98249 0.0
C397 C 0.67006 0.98449 0.98892 0.0
C398 C 0.67423 0.05898 0.99511 0.0
C399 C 0.66945 0.06249 0.02687 0.0
C400 C 0.67085 0.01163 0.00173 0.0
C401 C 0.666 0.03996 0.0454 0.0
C402 C 0.66371 0.96264 0.00784 0.0
C403 C 0.67311 0.95628 0.945 0.0
N404 N 0.66662 0.01552 0.03254 0.0
N405 N 0.67469 0.98056 0.95817 0.0
H406 H 0.83697 0.072 0.51102 0.0
H407 H 0.81427 0.91758 0.47993 0.0
H408 H 0.81176 0.03949 0.42228 0.0
H409 H 0.82918 0.95089 0.57045 0.0
H410 H 0.8129 0.96211 0.45842 0.0
H411 H 0.83383 0.02783 0.53331 0.0
C412 C 0.83066 0.0556 0.49623 0.0
C413 C 0.82474 0.05946 0.4647 0.0
C414 C 0.81634 0.95969 0.48301 0.0
C415 C 0.82122 0.00878 0.49006 0.0
C416 C 0.81715 0.93425 0.49531 0.0
C417 C 0.82196 0.93047 0.52704 0.0
C418 C 0.82053 0.98153 0.50253 0.0
C419 C 0.82546 0.95284 0.54585 0.0
C420 C 0.82884 0.03037 0.50899 0.0
C421 C 0.81657 0.03746 0.44669 0.0
N422 N 0.82483 0.97739 0.53329 0.0
N423 N 0.81521 0.01306 0.45959 0.0
H424 H 0.81887 0.41153 0.02142 0.0
H425 H 0.77527 0.56488 0.00818 0.0
H426 H 0.7717 0.4456 0.94252 0.0
H427 H 0.82425 0.53032 0.08574 0.0
H428 H 0.77059 0.52101 0.98509 0.0
H429 H 0.81779 0.45451 0.04671 0.0
C430 C 0.80812 0.42801 0.00946 0.0
C431 C 0.79551 0.42497 0.97972 0.0
C432 C 0.78224 0.52303 0.00722 0.0
C433 C 0.79431 0.47436 0.00855 0.0
C434 C 0.78491 0.54807 0.02043 0.0
C435 C 0.80034 0.55131 0.04887 0.0
C436 C 0.7951 0.50107 0.02255 0.0
C437 C 0.8123 0.52881 0.06372 0.0
C438 C 0.80754 0.45259 0.02392 0.0
C439 C 0.78179 0.44705 0.96542 0.0
N440 N 0.80953 0.50469 0.05034 0.0
N441 N 0.7817 0.47084 0.97991 0.0
H442 H 0.62994 0.44676 0.53793 0.0
H443 H 0.73118 0.55797 0.45363 0.0
H444 H 0.7303 0.43785 0.52325 0.0
H445 H 0.63022 0.54884 0.44354 0.0
H446 H 0.73265 0.51673 0.48351 0.0
H447 H 0.63093 0.48741 0.50822 0.0
C448 C 0.65226 0.45339 0.52851 0.0
C449 C 0.68008 0.43882 0.53303 0.0
C450 C 0.71027 0.52381 0.4746 0.0
C451 C 0.68136 0.48558 0.49888 0.0
C452 C 0.70939 0.54732 0.45766 0.0
C453 C 0.68053 0.55686 0.44609 0.0
C454 C 0.68204 0.51009 0.4803 0.0
C455 C 0.65302 0.54226 0.45191 0.0
C456 C 0.65277 0.47659 0.51141 0.0
C457 C 0.70829 0.44843 0.52018 0.0
N458 N 0.65445 0.51975 0.46872 0.0
N459 N 0.70825 0.47133 0.50373 0.0
H460 H 0.13393 0.52266 0.09861 0.0
H461 H 0.18739 0.45261 0.94153 0.0
H462 H 0.19114 0.56094 0.02947 0.0
H463 H 0.12835 0.41576 0.01026 0.0
H464 H 0.19113 0.49182 0.97425 0.0
H465 H 0.13385 0.48261 0.06745 0.0
C466 C 0.14661 0.52263 0.07693 0.0
C467 C 0.16249 0.54524 0.0666 0.0
C468 C 0.17742 0.47512 0.98218 0.0
C469 C 0.16239 0.49938 0.03069 0.0
C470 C 0.17528 0.45273 0.96352 0.0
C471 C 0.15743 0.4309 0.97312 0.0
C472 C 0.16161 0.47567 0.01065 0.0
C473 C 0.1423 0.43214 0.00186 0.0
C474 C 0.14652 0.49972 0.05911 0.0
C475 C 0.17854 0.54398 0.03831 0.0
N476 N 0.14468 0.45415 0.01955 0.0
N477 N 0.17799 0.52146 0.02129 0.0
H478 H 0.36747 0.57746 0.52144 0.0
H479 H 0.31288 0.42628 0.52544 0.0
H480 H 0.3145 0.54019 0.44824 0.0
H481 H 0.3661 0.46386 0.59826 0.0
H482 H 0.31166 0.46814 0.49753 0.0
H483 H 0.36559 0.53636 0.55064 0.0
C484 C 0.35536 0.56066 0.51152 0.0
C485 C 0.34121 0.56226 0.48228 0.0
C486 C 0.32354 0.46724 0.51965 0.0
C487 C 0.33903 0.51504 0.51562 0.0
C488 C 0.32424 0.44334 0.53561 0.0
C489 C 0.3397 0.44153 0.56421 0.0
C490 C 0.33842 0.48951 0.53234 0.0
C491 C 0.35397 0.4643 0.57627 0.0
C492 C 0.3543 0.53716 0.52822 0.0
C493 C 0.32579 0.53984 0.47066 0.0
N494 N 0.35304 0.48732 0.56024 0.0
N495 N 0.32519 0.51714 0.48733 0.0
H496 H 0.55817 0.14393 0.12365 0.0
H497 H 0.39225 0.13328 0.03635 0.0
H498 H 0.54894 0.13432 0.0251 0.0
H499 H 0.40097 0.15711 0.1316 0.0
H500 H 0.44973 0.13276 0.03217 0.0
H501 H 0.50069 0.148 0.1275 0.0
C502 C 0.54408 0.14274 0.10282 0.0
C503 C 0.55838 0.13868 0.07401 0.0
C504 C 0.4391 0.13824 0.05396 0.0
C505 C 0.49265 0.14323 0.07827 0.0
C506 C 0.40626 0.13849 0.05638 0.0
C507 C 0.39177 0.14517 0.08441 0.0
C508 C 0.45768 0.14449 0.07981 0.0
C509 C 0.41114 0.15184 0.10955 0.0
C510 C 0.51128 0.14512 0.10503 0.0
C511 C 0.53896 0.13739 0.04778 0.0
N512 N 0.44313 0.15118 0.10671 0.0
N513 N 0.5071 0.13952 0.05057 0.0
H514 H 0.93228 0.85139 0.62502 0.0
H515 H 0.09814 0.86192 0.538 0.0
H516 H 0.94153 0.85696 0.52608 0.0
H517 H 0.08978 0.84337 0.63484 0.0
H518 H 0.04067 0.86091 0.53348 0.0
H519 H 0.98985 0.84905 0.62943 0.0
C520 C 0.9464 0.85203 0.60422 0.0
C521 C 0.93207 0.85447 0.57514 0.0
C522 C 0.05139 0.85695 0.5557 0.0
C523 C -0.00208 0.85191 0.58004 0.0
C524 C 0.08422 0.85758 0.55832 0.0
C525 C 0.0988 0.85279 0.58688 0.0
C526 C 0.03291 0.8517 0.58186 0.0
C527 C 0.07955 0.84718 0.61238 0.0
C528 C 0.97926 0.85066 0.60676 0.0
C529 C 0.95153 0.85513 0.54897 0.0
N530 N 0.04757 0.84692 0.6093 0.0
N531 N 0.98345 0.854 0.55207 0.0
H532 H 0.39247 0.84232 0.93763 0.0
H533 H 0.56098 0.87286 0.86186 0.0
H534 H 0.40422 0.87832 0.84814 0.0
H535 H 0.54923 0.83789 0.95191 0.0
H536 H 0.50363 0.8733 0.8555 0.0
H537 H 0.44985 0.83893 0.94241 0.0
C538 C 0.4071 0.84947 0.91894 0.0
C539 C 0.39349 0.86071 0.89248 0.0
C540 C 0.51359 0.86545 0.87661 0.0
C541 C 0.45926 0.85689 0.89782 0.0
C542 C 0.54636 0.86517 0.88026 0.0
C543 C 0.55996 0.85541 0.90752 0.0
C544 C 0.49421 0.85593 0.9004 0.0
C545 C 0.53981 0.84567 0.93054 0.0
C546 C 0.43988 0.84752 0.92169 0.0
C547 C 0.41365 0.86958 0.86899 0.0
N548 N 0.50796 0.84625 0.92649 0.0
N549 N 0.44551 0.86753 0.87225 0.0
H550 H 0.08293 0.12008 0.34158 0.0
H551 H 0.93839 0.15837 0.4519 0.0
H552 H 0.09429 0.15106 0.43372 0.0
H553 H 0.92678 0.12213 0.36245 0.0
H554 H -0.00449 0.15867 0.44411 0.0
H555 H 0.02563 0.12349 0.34732 0.0
C556 C 0.0734 0.1277 0.36298 0.0
C557 C 0.09346 0.13517 0.38727 0.0
C558 C 0.98048 0.15072 0.42614 0.0
C559 C 0.02787 0.1391 0.39398 0.0
C560 C 0.94783 0.15056 0.43055 0.0
C561 C 0.92776 0.14009 0.40785 0.0
C562 C 0.99321 0.14034 0.39881 0.0
C563 C 0.94136 0.13031 0.38063 0.0
C564 C 0.04067 0.12961 0.36624 0.0
C565 C 0.07975 0.14495 0.41443 0.0
N566 N 0.97324 0.1306 0.37691 0.0
N567 N 0.04782 0.14657 0.41707 0.0
H568 H 0.06909 0.63391 0.13238 0.0
H569 H 0.90491 0.64201 0.04061 0.0
H570 H 0.06181 0.63581 0.03306 0.0
H571 H 0.91164 0.63577 0.13973 0.0
H572 H 0.96252 0.6426 0.03763 0.0
H573 H 0.01157 0.63735 0.13576 0.0
C574 C 0.05542 0.63515 0.11128 0.0
C575 C 0.07029 0.63445 0.08238 0.0
C576 C 0.9514 0.64118 0.06005 0.0
C577 C 0.00444 0.63837 0.08609 0.0
C578 C 0.91848 0.64086 0.06177 0.0
C579 C 0.9034 0.63871 0.09046 0.0
C580 C 0.96943 0.63932 0.0872 0.0
C581 C 0.92224 0.63736 0.11711 0.0
C582 C 0.02257 0.6371 0.11323 0.0
C583 C 0.05137 0.63617 0.05583 0.0
N584 N 0.95427 0.6376 0.11482 0.0
N585 N 0.01944 0.63798 0.05833 0.0
H586 H 0.59888 0.34485 0.54523 0.0
H587 H 0.43171 0.35122 0.63078 0.0
H588 H 0.5889 0.35068 0.64409 0.0
H589 H 0.44252 0.34398 0.53213 0.0
H590 H 0.4891 0.34846 0.63653 0.0
H591 H 0.54158 0.34178 0.54041 0.0
C592 C 0.58465 0.34533 0.56597 0.0
C593 C 0.59872 0.3482 0.59511 0.0
C594 C 0.4789 0.34734 0.61364 0.0
C595 C 0.53296 0.34482 0.58972 0.0
C596 C 0.44613 0.34892 0.61034 0.0
C597 C 0.43229 0.34799 0.5809 0.0
C598 C 0.49799 0.34488 0.58733 0.0
C599 C 0.45214 0.34491 0.55526 0.0
C600 C 0.55189 0.34358 0.56318 0.0
C601 C 0.57907 0.34858 0.62115 0.0
N602 N 0.48397 0.3436 0.55906 0.0
N603 N 0.54716 0.34708 0.61783 0.0
H604 H 0.06217 0.38854 0.87082 0.0
H605 H 0.89408 0.33394 0.92607 0.0
H606 H 0.05065 0.32208 0.93206 0.0
H607 H 0.9055 0.40162 0.86667 0.0
H608 H 0.9513 0.32782 0.92622 0.0
H609 H 0.00477 0.39199 0.86648 0.0
C610 C 0.04759 0.37456 0.88322 0.0
C611 C 0.06126 0.35507 0.90199 0.0
C612 C 0.94131 0.34397 0.91308 0.0
C613 C -0.00451 0.359 0.8972 0.0
C614 C 0.90861 0.3475 0.91299 0.0
C615 C 0.89498 0.36842 0.89644 0.0
C616 C 0.96057 0.36149 0.89651 0.0
C617 C 0.91499 0.38529 0.87984 0.0
C618 C 0.01479 0.37658 0.88076 0.0
C619 C 0.04117 0.33748 0.91743 0.0
N620 N 0.94678 0.3815 0.88038 0.0
N621 N 0.0093 0.33994 0.9148 0.0
H622 H 0.59473 0.635 0.42999 0.0
H623 H 0.43219 0.66403 0.34143 0.0
H624 H 0.59091 0.66695 0.33772 0.0
H625 H 0.43916 0.62341 0.42872 0.0
H626 H 0.48988 0.6684 0.34075 0.0
H627 H 0.53725 0.63418 0.43122 0.0
C628 C 0.58181 0.64199 0.41 0.0
C629 C 0.59771 0.65095 0.38364 0.0
C630 C 0.47871 0.65856 0.36003 0.0
C631 C 0.53164 0.64993 0.38486 0.0
C632 C 0.44581 0.65607 0.36045 0.0
C633 C 0.43082 0.64326 0.38512 0.0
C634 C 0.49666 0.64829 0.38454 0.0
C635 C 0.44965 0.63334 0.40915 0.0
C636 C 0.54892 0.64145 0.4107 0.0
C637 C 0.57963 0.65981 0.3585 0.0
N638 N 0.48152 0.63608 0.40824 0.0
N639 N 0.54751 0.659 0.35968 0.0
H640 H 0.24205 0.13791 0.15656 0.0
H641 H 0.28599 0.09738 0.32983 0.0
H642 H 0.3203 0.08692 0.17992 0.0
H643 H 0.20293 0.14218 0.30494 0.0
H644 H 0.29985 0.09421 0.27524 0.0
H645 H 0.22797 0.14025 0.21101 0.0
C646 C 0.25622 0.12712 0.17313 0.0
C647 C 0.28242 0.11221 0.16365 0.0
C648 C 0.27859 0.10473 0.28174 0.0
C649 C 0.26651 0.11493 0.22615 0.0
C650 C 0.27071 0.10661 0.31291 0.0
C651 C 0.24326 0.12008 0.32198 0.0
C652 C 0.25894 0.11646 0.25948 0.0
C653 C 0.22432 0.13161 0.29903 0.0
C654 C 0.24817 0.12848 0.20425 0.0
C655 C 0.29989 0.09863 0.18617 0.0
N656 N 0.23253 0.12954 0.26887 0.0
N657 N 0.29168 0.10039 0.2164 0.0
H658 H 0.20609 0.90279 0.83035 0.0
H659 H 0.2477 0.85645 0.65886 0.0
H660 H 0.28579 0.85329 0.8075 0.0
H661 H 0.17672 0.91512 0.67928 0.0
H662 H 0.26109 0.8544 0.71352 0.0
H663 H 0.19381 0.90674 0.77538 0.0
C664 C 0.22098 0.89274 0.8138 0.0
C665 C 0.24696 0.87763 0.82355 0.0
C666 C 0.24267 0.86781 0.70606 0.0
C667 C 0.23306 0.88208 0.76068 0.0
C668 C 0.23499 0.86899 0.67483 0.0
C669 C 0.211 0.88596 0.66448 0.0
C670 C 0.22611 0.88358 0.72721 0.0
C671 C 0.1954 0.90178 0.68624 0.0
C672 C 0.21402 0.89507 0.78243 0.0
C673 C 0.26551 0.86512 0.80107 0.0
N674 N 0.20312 0.90011 0.71663 0.0
N675 N 0.25814 0.86757 0.77072 0.0
H676 H 0.7021 0.80374 0.81054 0.0
H677 H 0.78671 0.88735 0.67756 0.0
H678 H 0.7103 0.88864 0.81164 0.0
H679 H 0.78234 0.80225 0.67812 0.0
H680 H 0.75822 0.88815 0.72644 0.0
H681 H 0.73085 0.80275 0.76174 0.0
C682 C 0.70992 0.82218 0.80053 0.0
C683 C 0.70376 0.84632 0.81522 0.0
C684 C 0.76351 0.86929 0.7159 0.0
C685 C 0.73671 0.84531 0.75933 0.0
C686 C 0.77978 0.86881 0.68796 0.0
C687 C 0.78693 0.84468 0.6737 0.0
C688 C 0.75422 0.84548 0.72972 0.0
C689 C 0.77735 0.8213 0.68829 0.0
C690 C 0.72637 0.82159 0.77266 0.0
C691 C 0.71451 0.86958 0.80115 0.0
N692 N 0.76146 0.82229 0.71548 0.0
N693 N 0.73043 0.86849 0.774 0.0
H694 H 0.77761 0.10368 0.31416 0.0
H695 H 0.70231 0.19169 0.17935 0.0
H696 H 0.78173 0.18878 0.31248 0.0
H697 H 0.70349 0.10651 0.1786 0.0
H698 H 0.73005 0.19111 0.22883 0.0
H699 H 0.74911 0.10442 0.26518 0.0
C700 C 0.77252 0.12253 0.30351 0.0
C701 C 0.78212 0.14621 0.31745 0.0
C702 C 0.72423 0.17255 0.21784 0.0
C703 C 0.74943 0.14719 0.26131 0.0
C704 C 0.70836 0.17286 0.18959 0.0
C705 C 0.70058 0.14911 0.17478 0.0
C706 C 0.73235 0.14831 0.23143 0.0
C707 C 0.70904 0.12531 0.18915 0.0
C708 C 0.75624 0.12294 0.27551 0.0
C709 C 0.77483 0.17004 0.30256 0.0
N710 N 0.72445 0.12553 0.21666 0.0
N711 N 0.75892 0.16992 0.2753 0.0
H712 H 0.6763 0.58497 0.29604 0.0
H713 H 0.79245 0.64646 0.16958 0.0
H714 H 0.74664 0.64414 0.31656 0.0
H715 H 0.71526 0.59403 0.14746 0.0
H716 H 0.77748 0.64439 0.22386 0.0
H717 H 0.69198 0.58633 0.24189 0.0
C718 C 0.69513 0.59818 0.2892 0.0
C719 C 0.71015 0.6145 0.31088 0.0
C720 C 0.76378 0.63336 0.20714 0.0
C721 C 0.72817 0.61619 0.24887 0.0
C722 C 0.77231 0.63453 0.17611 0.0
C723 C 0.75504 0.62042 0.15391 0.0
C724 C 0.73787 0.61788 0.2161 0.0
C725 C 0.7292 0.60528 0.16376 0.0
C726 C 0.70401 0.599 0.25824 0.0
C727 C 0.73437 0.63124 0.30064 0.0
N728 N 0.72143 0.60438 0.19414 0.0
N729 N 0.74261 0.63166 0.27038 0.0
H730 H 0.71536 0.43054 0.67189 0.0
H731 H 0.7662 0.34374 0.81806 0.0
H732 H 0.73031 0.34631 0.66875 0.0
H733 H 0.75828 0.42865 0.82029 0.0
H734 H 0.75153 0.34431 0.76364 0.0
H735 H 0.72988 0.4303 0.72649 0.0
C736 C 0.72176 0.41201 0.68264 0.0
C737 C 0.72162 0.38841 0.6657 0.0
C738 C 0.75298 0.36283 0.77601 0.0
C739 C 0.73812 0.38798 0.72821 0.0
C740 C 0.76129 0.36252 0.80714 0.0
C741 C 0.7635 0.3862 0.82378 0.0
C742 C 0.74674 0.38698 0.76135 0.0
C743 C 0.75689 0.40992 0.80837 0.0
C744 C 0.73003 0.41188 0.71383 0.0
C745 C 0.73012 0.36498 0.68086 0.0
N746 N 0.74882 0.40971 0.77801 0.0
N747 N 0.73796 0.36537 0.71124 0.0
H748 H 0.28277 0.30096 0.68228 0.0
H749 H 0.21361 0.39339 0.81595 0.0
H750 H 0.2868 0.38605 0.67993 0.0
H751 H 0.20088 0.30892 0.81301 0.0
H752 H 0.24238 0.39104 0.76718 0.0
H753 H 0.25463 0.30342 0.73132 0.0
C754 C 0.27776 0.32017 0.69207 0.0
C755 C 0.28713 0.34334 0.67694 0.0
C756 C 0.23327 0.37303 0.7772 0.0
C757 C 0.25493 0.3463 0.73313 0.0
C758 C 0.21687 0.37435 0.80507 0.0
C759 C 0.20478 0.35132 0.81857 0.0
C760 C 0.23772 0.34849 0.76278 0.0
C761 C 0.20972 0.32719 0.80342 0.0
C762 C 0.26165 0.32156 0.72007 0.0
C763 C 0.27998 0.36768 0.69075 0.0
N764 N 0.22583 0.32641 0.77637 0.0
N765 N 0.26434 0.36852 0.71807 0.0
H766 H 0.29306 0.59852 0.32276 0.0
H767 H 0.19453 0.68214 0.19877 0.0
H768 H 0.27289 0.68169 0.33163 0.0
H769 H 0.21899 0.60012 0.18632 0.0
H770 H 0.22164 0.68175 0.24844 0.0
H771 H 0.26468 0.59815 0.27355 0.0
C772 C 0.28266 0.6167 0.31438 0.0
C773 C 0.28539 0.64018 0.33134 0.0
C774 C 0.22107 0.66381 0.23489 0.0
C775 C 0.25287 0.63988 0.2751 0.0
C776 C 0.20554 0.66401 0.2065 0.0
C777 C 0.20453 0.64114 0.1883 0.0
C778 C 0.2357 0.64056 0.24525 0.0
C779 C 0.21923 0.61822 0.19956 0.0
C780 C 0.26647 0.61647 0.28628 0.0
C781 C 0.27144 0.66313 0.31936 0.0
N782 N 0.23424 0.61852 0.22731 0.0
N783 N 0.25579 0.66239 0.292 0.0
loop_
_geom_bond_atom_site_label_1
_geom_bond_atom_site_label_2
_geom_bond_distance
_geom_bond_site_symmetry_2
_ccdc_geom_bond_type
C0 O1 1.160 . S
C0 O7 1.185 . S
O1 C0 1.160 . S
O2 Zn3 1.899 . S
O2 C10 1.284 . S
Zn3 O2 1.899 . S
Zn3 O4 2.032 . S
Zn3 O7 2.086 . S
Zn3 O12 1.977 . S
O4 Zn3 2.032 . S
O4 C8 1.278 . S
C5 O6 1.203 . S
C5 O12 1.267 . S
O6 C5 1.203 . S
O7 C0 1.185 . S
O7 Zn3 2.086 . S
C8 O4 1.278 . S
C8 O9 1.211 . S
O9 C8 1.211 . S
C10 O2 1.284 . S
C10 O11 1.273 . S
O11 C10 1.273 . S
O12 Zn3 1.977 . S
O12 C5 1.267 . S
C13 O14 1.160 . S
C13 O20 1.185 . S
O14 C13 1.160 . S
O15 Zn16 1.899 . S
O15 C23 1.284 . S
Zn16 O15 1.899 . S
Zn16 O17 2.032 . S
Zn16 O20 2.086 . S
Zn16 O25 1.977 . S
O17 Zn16 2.032 . S
O17 C21 1.278 . S
C18 O19 1.203 . S
C18 O25 1.267 . S
O19 C18 1.203 . S
O20 C13 1.185 . S
O20 Zn16 2.086 . S
C21 O17 1.278 . S
C21 O22 1.211 . S
O22 C21 1.211 . S
C23 O15 1.284 . S
C23 O24 1.273 . S
O24 C23 1.273 . S
O25 Zn16 1.977 . S
O25 C18 1.267 . S
C26 O27 1.160 . S
C26 O33 1.185 . S
O27 C26 1.160 . S
O28 Zn29 1.899 . S
O28 C36 1.284 . S
Zn29 O28 1.899 . S
Zn29 O30 2.032 . S
Zn29 O33 2.086 . S
Zn29 O38 1.977 . S
O30 Zn29 2.032 . S
O30 C34 1.278 . S
C31 O32 1.203 . S
C31 O38 1.267 . S
O32 C31 1.203 . S
O33 C26 1.185 . S
O33 Zn29 2.086 . S
C34 O30 1.278 . S
C34 O35 1.211 . S
O35 C34 1.211 . S
C36 O28 1.284 . S
C36 O37 1.273 . S
O37 C36 1.273 . S
O38 Zn29 1.977 . S
O38 C31 1.267 . S
C39 O40 1.160 . S
C39 O46 1.185 . S
O40 C39 1.160 . S
O41 Zn42 1.899 . S
O41 C49 1.284 . S
Zn42 O41 1.899 . S
Zn42 O43 2.032 . S
Zn42 O46 2.086 . S
Zn42 O51 1.977 . S
O43 Zn42 2.032 . S
O43 C47 1.278 . S
C44 O45 1.203 . S
C44 O51 1.267 . S
O45 C44 1.203 . S
O46 C39 1.185 . S
O46 Zn42 2.086 . S
C47 O43 1.278 . S
C47 O48 1.211 . S
O48 C47 1.211 . S
C49 O41 1.284 . S
C49 O50 1.273 . S
O50 C49 1.273 . S
O51 Zn42 1.977 . S
O51 C44 1.267 . S
C52 O53 1.160 . S
C52 O59 1.185 . S
O53 C52 1.160 . S
O54 Zn55 1.899 . S
O54 C62 1.284 . S
Zn55 O54 1.899 . S
Zn55 O56 2.032 . S
Zn55 O59 2.086 . S
Zn55 O64 1.977 . S
O56 Zn55 2.032 . S
O56 C60 1.278 . S
C57 O58 1.203 . S
C57 O64 1.267 . S
O58 C57 1.203 . S
O59 C52 1.185 . S
O59 Zn55 2.086 . S
C60 O56 1.278 . S
C60 O61 1.211 . S
O61 C60 1.211 . S
C62 O54 1.284 . S
C62 O63 1.273 . S
O63 C62 1.273 . S
O64 Zn55 1.977 . S
O64 C57 1.267 . S
C65 O66 1.160 . S
C65 O72 1.185 . S
O66 C65 1.160 . S
O67 Zn68 1.899 . S
O67 C75 1.284 . S
Zn68 O67 1.899 . S
Zn68 O69 2.032 . S
Zn68 O72 2.086 . S
Zn68 O77 1.977 . S
O69 Zn68 2.032 . S
O69 C73 1.278 . S
C70 O71 1.203 . S
C70 O77 1.267 . S
O71 C70 1.203 . S
O72 C65 1.185 . S
O72 Zn68 2.086 . S
C73 O69 1.278 . S
C73 O74 1.211 . S
O74 C73 1.211 . S
C75 O67 1.284 . S
C75 O76 1.273 . S
O76 C75 1.273 . S
O77 Zn68 1.977 . S
O77 C70 1.267 . S
C78 O79 1.160 . S
C78 O85 1.185 . S
O79 C78 1.160 . S
O80 Zn81 1.899 . S
O80 C88 1.284 . S
Zn81 O80 1.899 . S
Zn81 O82 2.032 . S
Zn81 O85 2.086 . S
Zn81 O90 1.977 . S
O82 Zn81 2.032 . S
O82 C86 1.278 . S
C83 O84 1.203 . S
C83 O90 1.267 . S
O84 C83 1.203 . S
O85 C78 1.185 . S
O85 Zn81 2.086 . S
C86 O82 1.278 . S
C86 O87 1.211 . S
O87 C86 1.211 . S
C88 O80 1.284 . S
C88 O89 1.273 . S
O89 C88 1.273 . S
O90 Zn81 1.977 . S
O90 C83 1.267 . S
C91 O92 1.160 . S
C91 O98 1.185 . S
O92 C91 1.160 . S
O93 Zn94 1.899 . S
O93 C101 1.284 . S
Zn94 O93 1.899 . S
Zn94 O95 2.032 . S
Zn94 O98 2.086 . S
Zn94 O103 1.977 . S
O95 Zn94 2.032 . S
O95 C99 1.278 . S
C96 O97 1.203 . S
C96 O103 1.267 . S
O97 C96 1.203 . S
O98 C91 1.185 . S
O98 Zn94 2.086 . S
C99 O95 1.278 . S
C99 O100 1.211 . S
O100 C99 1.211 . S
C101 O93 1.284 . S
C101 O102 1.273 . S
O102 C101 1.273 . S
O103 Zn94 1.977 . S
O103 C96 1.267 . S
C104 O105 1.160 . S
C104 O111 1.185 . S
O105 C104 1.160 . S
O106 Zn107 1.899 . S
O106 C114 1.284 . S
Zn107 O106 1.899 . S
Zn107 O108 2.032 . S
Zn107 O111 2.086 . S
Zn107 O116 1.977 . S
O108 Zn107 2.032 . S
O108 C112 1.278 . S
C109 O110 1.203 . S
C109 O116 1.267 . S
O110 C109 1.203 . S
O111 C104 1.185 . S
O111 Zn107 2.086 . S
C112 O108 1.278 . S
C112 O113 1.211 . S
O113 C112 1.211 . S
C114 O106 1.284 . S
C114 O115 1.273 . S
O115 C114 1.273 . S
O116 Zn107 1.977 . S
O116 C109 1.267 . S
C117 O118 1.160 . S
C117 O124 1.185 . S
O118 C117 1.160 . S
O119 Zn120 1.899 . S
O119 C127 1.284 . S
Zn120 O119 1.899 . S
Zn120 O121 2.032 . S
Zn120 O124 2.086 . S
Zn120 O129 1.977 . S
O121 Zn120 2.032 . S
O121 C125 1.278 . S
C122 O123 1.203 . S
C122 O129 1.267 . S
O123 C122 1.203 . S
O124 C117 1.185 . S
O124 Zn120 2.086 . S
C125 O121 1.278 . S
C125 O126 1.211 . S
O126 C125 1.211 . S
C127 O119 1.284 . S
C127 O128 1.273 . S
O128 C127 1.273 . S
O129 Zn120 1.977 . S
O129 C122 1.267 . S
C130 O131 1.160 . S
C130 O137 1.185 . S
O131 C130 1.160 . S
O132 Zn133 1.899 . S
O132 C140 1.284 . S
Zn133 O132 1.899 . S
Zn133 O134 2.032 . S
Zn133 O137 2.086 . S
Zn133 O142 1.977 . S
O134 Zn133 2.032 . S
O134 C138 1.278 . S
C135 O136 1.203 . S
C135 O142 1.267 . S
O136 C135 1.203 . S
O137 C130 1.185 . S
O137 Zn133 2.086 . S
C138 O134 1.278 . S
C138 O139 1.211 . S
O139 C138 1.211 . S
C140 O132 1.284 . S
C140 O141 1.273 . S
O141 C140 1.273 . S
O142 Zn133 1.977 . S
O142 C135 1.267 . S
C143 O144 1.160 . S
C143 O150 1.185 . S
O144 C143 1.160 . S
O145 Zn146 1.899 . S
O145 C153 1.284 . S
Zn146 O145 1.899 . S
Zn146 O147 2.032 . S
Zn146 O150 2.086 . S
Zn146 O155 1.977 . S
O147 Zn146 2.032 . S
O147 C151 1.278 . S
C148 O149 1.203 . S
C148 O155 1.267 . S
O149 C148 1.203 . S
O150 C143 1.185 . S
O150 Zn146 2.086 . S
C151 O147 1.278 . S
C151 O152 1.211 . S
O152 C151 1.211 . S
C153 O145 1.284 . S
C153 O154 1.273 . S
O154 C153 1.273 . S
O155 Zn146 1.977 . S
O155 C148 1.267 . S
C156 O157 1.160 . S
C156 O163 1.185 . S
O157 C156 1.160 . S
O158 Zn159 1.899 . S
O158 C166 1.284 . S
Zn159 O158 1.899 . S
Zn159 O160 2.032 . S
Zn159 O163 2.086 . S
Zn159 O168 1.977 . S
O160 Zn159 2.032 . S
O160 C164 1.278 . S
C161 O162 1.203 . S
C161 O168 1.267 . S
O162 C161 1.203 . S
O163 C156 1.185 . S
O163 Zn159 2.086 . S
C164 O160 1.278 . S
C164 O165 1.211 . S
O165 C164 1.211 . S
C166 O158 1.284 . S
C166 O167 1.273 . S
O167 C166 1.273 . S
O168 Zn159 1.977 . S
O168 C161 1.267 . S
C169 O170 1.160 . S
C169 O176 1.185 . S
O170 C169 1.160 . S
O171 Zn172 1.899 . S
O171 C179 1.284 . S
Zn172 O171 1.899 . S
Zn172 O173 2.032 . S
Zn172 O176 2.086 . S
Zn172 O181 1.977 . S
O173 Zn172 2.032 . S
O173 C177 1.278 . S
C174 O175 1.203 . S
C174 O181 1.267 . S
O175 C174 1.203 . S
O176 C169 1.185 . S
O176 Zn172 2.086 . S
C177 O173 1.278 . S
C177 O178 1.211 . S
O178 C177 1.211 . S
C179 O171 1.284 . S
C179 O180 1.273 . S
O180 C179 1.273 . S
O181 Zn172 1.977 . S
O181 C174 1.267 . S
C182 O183 1.160 . S
C182 O189 1.185 . S
O183 C182 1.160 . S
O184 Zn185 1.899 . S
O184 C192 1.284 . S
Zn185 O184 1.899 . S
Zn185 O186 2.032 . S
Zn185 O189 2.086 . S
Zn185 O194 1.977 . S
O186 Zn185 2.032 . S
O186 C190 1.278 . S
C187 O188 1.203 . S
C187 O194 1.267 . S
O188 C187 1.203 . S
O189 C182 1.185 . S
O189 Zn185 2.086 . S
C190 O186 1.278 . S
C190 O191 1.211 . S
O191 C190 1.211 . S
C192 O184 1.284 . S
C192 O193 1.273 . S
O193 C192 1.273 . S
O194 Zn185 1.977 . S
O194 C187 1.267 . S
C195 O196 1.160 . S
C195 O202 1.185 . S
O196 C195 1.160 . S
O197 Zn198 1.899 . S
O197 C205 1.284 . S
Zn198 O197 1.899 . S
Zn198 O199 2.032 . S
Zn198 O202 2.086 . S
Zn198 O207 1.977 . S
O199 Zn198 2.032 . S
O199 C203 1.278 . S
C200 O201 1.203 . S
C200 O207 1.267 . S
O201 C200 1.203 . S
O202 C195 1.185 . S
O202 Zn198 2.086 . S
C203 O199 1.278 . S
C203 O204 1.211 . S
O204 C203 1.211 . S
C205 O197 1.284 . S
C205 O206 1.273 . S
O206 C205 1.273 . S
O207 Zn198 1.977 . S
O207 C200 1.267 . S
H208 C214 0.930 . S
H209 C218 0.930 . S
H210 C223 0.929 . S
H211 C221 0.929 . S
H212 C216 0.929 . S
H213 C222 0.929 . S
C214 H208 0.930 . S
C214 C215 1.367 . S
C214 C222 1.378 . S
C215 C214 1.367 . S
C215 C223 1.433 . S
C216 H212 0.929 . S
C216 C218 1.378 . S
C216 C220 1.350 . S
C217 C220 1.463 1_554 S
C217 C222 1.350 . S
C217 N225 1.427 1_554 S
C218 H209 0.930 . S
C218 C216 1.378 . S
C218 C219 1.367 . S
C219 C218 1.367 . S
C219 C221 1.433 . S
C220 C216 1.350 . S
C220 C217 1.463 1_556 S
C220 N224 1.427 1_556 S
C221 H211 0.929 . S
C221 C219 1.433 . S
C221 N224 1.384 1_556 S
C222 H213 0.929 . S
C222 C214 1.378 . S
C222 C217 1.350 . S
C223 H210 0.929 . S
C223 C215 1.433 . S
C223 N225 1.384 1_554 S
N224 C220 1.427 1_554 S
N224 C221 1.384 1_554 S
N225 C217 1.427 1_556 S
N225 C223 1.384 1_556 S
H226 C232 0.930 . S
H227 C236 0.930 . S
H228 C241 0.929 . S
H229 C239 0.929 . S
H230 C234 0.929 . S
H231 C240 0.929 . S
C232 H226 0.930 . S
C232 C233 1.367 . S
C232 C240 1.378 . S
C233 C232 1.367 . S
C233 C241 1.433 . S
C234 H230 0.929 . S
C234 C236 1.378 . S
C234 C238 1.350 . S
C235 C238 1.463 . S
C235 C240 1.350 . S
C235 N243 1.427 . S
C236 H227 0.930 . S
C236 C234 1.378 . S
C236 C237 1.367 . S
C237 C236 1.367 . S
C237 C239 1.433 . S
C238 C234 1.350 . S
C238 C235 1.463 . S
C238 N242 1.427 . S
C239 H229 0.929 . S
C239 C237 1.433 . S
C239 N242 1.384 . S
C240 H231 0.929 . S
C240 C232 1.378 . S
C240 C235 1.350 . S
C241 H228 0.929 . S
C241 C233 1.433 . S
C241 N243 1.384 . S
N242 C238 1.427 . S
N242 C239 1.384 . S
N243 C235 1.427 . S
N243 C241 1.384 . S
H244 C250 0.930 . S
H245 C254 0.930 . S
H246 C259 0.929 . S
H247 C257 0.929 . S
H248 C252 0.929 1_556 S
H249 C258 0.929 1_554 S
C250 H244 0.930 . S
C250 C251 1.367 . S
C250 C258 1.378 . S
C251 C250 1.367 . S
C251 C259 1.433 . S
C252 H248 0.929 1_554 S
C252 C254 1.378 . S
C252 C256 1.350 . S
C253 C256 1.463 1_556 S
C253 C258 1.350 . S
C253 N261 1.427 . S
C254 H245 0.930 . S
C254 C252 1.378 . S
C254 C255 1.367 . S
C255 C254 1.367 . S
C255 C257 1.433 . S
C256 C252 1.350 . S
C256 C253 1.463 1_554 S
C256 N260 1.427 . S
C257 H247 0.929 . S
C257 C255 1.433 . S
C257 N260 1.384 . S
C258 H249 0.929 1_556 S
C258 C250 1.378 . S
C258 C253 1.350 . S
C259 H246 0.929 . S
C259 C251 1.433 . S
C259 N261 1.384 . S
N260 C256 1.427 . S
N260 C257 1.384 . S
N261 C253 1.427 . S
N261 C259 1.384 . S
H262 C268 0.930 . S
H263 C272 0.930 . S
H264 C277 0.929 . S
H265 C275 0.929 . S
H266 C270 0.929 . S
H267 C276 0.929 . S
C268 H262 0.930 . S
C268 C269 1.367 . S
C268 C276 1.378 . S
C269 C268 1.367 . S
C269 C277 1.433 . S
C270 H266 0.929 . S
C270 C272 1.378 . S
C270 C274 1.350 . S
C271 C274 1.463 . S
C271 C276 1.350 . S
C271 N279 1.427 . S
C272 H263 0.930 . S
C272 C270 1.378 . S
C272 C273 1.367 . S
C273 C272 1.367 . S
C273 C275 1.433 . S
C274 C270 1.350 . S
C274 C271 1.463 . S
C274 N278 1.427 . S
C275 H265 0.929 . S
C275 C273 1.433 . S
C275 N278 1.384 . S
C276 H267 0.929 . S
C276 C268 1.378 . S
C276 C271 1.350 . S
C277 H264 0.929 . S
C277 C269 1.433 . S
C277 N279 1.384 . S
N278 C274 1.427 . S
N278 C275 1.384 . S
N279 C271 1.427 . S
N279 C277 1.384 . S
H280 C286 0.930 . S
H281 C290 0.930 . S
H282 C295 0.929 1_556 S
H283 C293 0.929 1_554 S
H284 C288 0.929 . S
H285 C294 0.929 . S
C286 H280 0.930 . S
C286 C287 1.367 . S
C286 C294 1.378 . S
C287 C286 1.367 . S
C287 C295 1.433 . S
C288 H284 0.929 . S
C288 C290 1.378 . S
C288 C292 1.350 . S
C289 C292 1.463 1_554 S
C289 C294 1.350 . S
C289 N297 1.427 1_554 S
C290 H281 0.930 . S
C290 C288 1.378 . S
C290 C291 1.367 . S
C291 C290 1.367 . S
C291 C293 1.433 . S
C292 C288 1.350 . S
C292 C289 1.463 1_556 S
C292 N296 1.427 1_556 S
C293 H283 0.929 1_556 S
C293 C291 1.433 . S
C293 N296 1.384 1_556 S
C294 H285 0.929 . S
C294 C286 1.378 . S
C294 C289 1.350 . S
C295 H282 0.929 1_554 S
C295 C287 1.433 . S
C295 N297 1.384 1_554 S
N296 C292 1.427 1_554 S
N296 C293 1.384 1_554 S
N297 C289 1.427 1_556 S
N297 C295 1.384 1_556 S
H298 C304 0.930 . S
H299 C308 0.930 . S
H300 C313 0.929 . S
H301 C311 0.929 . S
H302 C306 0.929 . S
H303 C312 0.929 . S
C304 H298 0.930 . S
C304 C305 1.367 . S
C304 C312 1.378 . S
C305 C304 1.367 . S
C305 C313 1.433 . S
C306 H302 0.929 . S
C306 C308 1.378 . S
C306 C310 1.350 . S
C307 C310 1.463 . S
C307 C312 1.350 . S
C307 N315 1.427 . S
C308 H299 0.930 . S
C308 C306 1.378 . S
C308 C309 1.367 . S
C309 C308 1.367 . S
C309 C311 1.433 . S
C310 C306 1.350 . S
C310 C307 1.463 . S
C310 N314 1.427 . S
C311 H301 0.929 . S
C311 C309 1.433 . S
C311 N314 1.384 . S
C312 H303 0.929 . S
C312 C304 1.378 . S
C312 C307 1.350 . S
C313 H300 0.929 . S
C313 C305 1.433 . S
C313 N315 1.384 . S
N314 C310 1.427 . S
N314 C311 1.384 . S
N315 C307 1.427 . S
N315 C313 1.384 . S
H316 C322 0.930 . S
H317 C326 0.930 . S
H318 C331 0.929 . S
H319 C329 0.929 . S
H320 C324 0.929 . S
H321 C330 0.929 . S
C322 H316 0.930 . S
C322 C323 1.367 . S
C322 C330 1.378 . S
C323 C322 1.367 . S
C323 C331 1.433 . S
C324 H320 0.929 . S
C324 C326 1.378 . S
C324 C328 1.350 . S
C325 C328 1.463 1_556 S
C325 C330 1.350 . S
C325 N333 1.427 1_556 S
C326 H317 0.930 . S
C326 C324 1.378 . S
C326 C327 1.367 . S
C327 C326 1.367 . S
C327 C329 1.433 . S
C328 C324 1.350 . S
C328 C325 1.463 1_554 S
C328 N332 1.427 1_554 S
C329 H319 0.929 . S
C329 C327 1.433 . S
C329 N332 1.384 1_554 S
C330 H321 0.929 . S
C330 C322 1.378 . S
C330 C325 1.350 . S
C331 H318 0.929 . S
C331 C323 1.433 . S
C331 N333 1.384 1_556 S
N332 C328 1.427 1_556 S
N332 C329 1.384 1_556 S
N333 C325 1.427 1_554 S
N333 C331 1.384 1_554 S
H334 C340 0.930 . S
H335 C344 0.930 . S
H336 C349 0.929 . S
H337 C347 0.929 . S
H338 C342 0.929 . S
H339 C348 0.929 . S
C340 H334 0.930 . S
C340 C341 1.367 . S
C340 C348 1.378 . S
C341 C340 1.367 . S
C341 C349 1.433 . S
C342 H338 0.929 . S
C342 C344 1.378 . S
C342 C346 1.350 . S
C343 C346 1.463 . S
C343 C348 1.350 . S
C343 N351 1.427 . S
C344 H335 0.930 . S
C344 C342 1.378 . S
C344 C345 1.367 . S
C345 C344 1.367 . S
C345 C347 1.433 . S
C346 C342 1.350 . S
C346 C343 1.463 . S
C346 N350 1.427 . S
C347 H337 0.929 . S
C347 C345 1.433 . S
C347 N350 1.384 . S
C348 H339 0.929 . S
C348 C340 1.378 . S
C348 C343 1.350 . S
C349 H336 0.929 . S
C349 C341 1.433 . S
C349 N351 1.384 . S
N350 C346 1.427 . S
N350 C347 1.384 . S
N351 C343 1.427 . S
N351 C349 1.384 . S
H352 C358 0.930 . S
H353 C362 0.930 . S
H354 C367 0.941 . S
H355 C365 0.941 . S
H356 C360 0.929 1_545 S
H357 C366 0.929 1_565 S
C358 H352 0.930 . S
C358 C359 1.367 . S
C358 C366 1.378 . S
C359 C358 1.367 . S
C359 C367 1.433 . S
C360 H356 0.929 1_565 S
C360 C362 1.378 . S
C360 C364 1.350 . S
C361 C364 1.463 1_544 S
C361 C366 1.350 . S
C361 N369 1.427 1_554 S
C362 H353 0.930 . S
C362 C360 1.378 . S
C362 C363 1.367 . S
C363 C362 1.367 . S
C363 C365 1.433 . S
C364 C360 1.350 . S
C364 C361 1.463 1_566 S
C364 N368 1.427 1_556 S
C365 H355 0.941 . S
C365 C363 1.433 . S
C365 N368 1.384 1_556 S
C366 H357 0.929 1_545 S
C366 C358 1.378 . S
C366 C361 1.350 . S
C367 H354 0.941 . S
C367 C359 1.433 . S
C367 N369 1.384 1_554 S
N368 C364 1.427 1_554 S
N368 C365 1.384 1_554 S
N369 C361 1.427 1_556 S
N369 C367 1.384 1_556 S
H370 C376 0.930 . S
H371 C380 0.930 . S
H372 C385 0.929 . S
H373 C383 0.929 . S
H374 C378 0.929 1_565 S
H375 C384 0.929 1_545 S
C376 H370 0.930 . S
C376 C377 1.367 . S
C376 C384 1.378 . S
C377 C376 1.367 . S
C377 C385 1.433 . S
C378 H374 0.929 1_545 S
C378 C380 1.378 . S
C378 C382 1.350 . S
C379 C382 1.463 1_565 S
C379 C384 1.350 . S
C379 N387 1.427 . S
C380 H371 0.930 . S
C380 C378 1.378 . S
C380 C381 1.367 . S
C381 C380 1.367 . S
C381 C383 1.433 . S
C382 C378 1.350 . S
C382 C379 1.463 1_545 S
C382 N386 1.427 . S
C383 H373 0.929 . S
C383 C381 1.433 . S
C383 N386 1.384 . S
C384 H375 0.929 1_565 S
C384 C376 1.378 . S
C384 C379 1.350 . S
C385 H372 0.929 . S
C385 C377 1.433 . S
C385 N387 1.384 . S
N386 C382 1.427 . S
N386 C383 1.384 . S
N387 C379 1.427 . S
N387 C385 1.384 . S
H388 C394 0.930 1_554 S
H389 C398 0.930 1_556 S
H390 C403 0.929 . S
H391 C401 0.929 . S
H392 C396 0.929 . S
H393 C402 0.929 . S
C394 H388 0.930 1_556 S
C394 C395 1.367 . S
C394 C402 1.378 1_556 S
C395 C394 1.367 . S
C395 C403 1.433 . S
C396 H392 0.929 . S
C396 C398 1.378 1_556 S
C396 C400 1.350 1_556 S
C397 C400 1.463 1_566 S
C397 C402 1.350 1_556 S
C397 N405 1.427 . S
C398 H389 0.930 1_554 S
C398 C396 1.378 1_554 S
C398 C399 1.367 . S
C399 C398 1.367 . S
C399 C401 1.433 . S
C400 C396 1.350 1_554 S
C400 C397 1.463 1_544 S
C400 N404 1.427 . S
C401 H391 0.929 . S
C401 C399 1.433 . S
C401 N404 1.384 . S
C402 H393 0.929 . S
C402 C394 1.378 1_554 S
C402 C397 1.350 1_554 S
C403 H390 0.929 . S
C403 C395 1.433 . S
C403 N405 1.384 . S
N404 C400 1.427 . S
N404 C401 1.384 . S
N405 C397 1.427 . S
N405 C403 1.384 . S
H406 C412 0.930 . S
H407 C416 0.930 . S
H408 C421 0.929 . S
H409 C419 0.929 . S
H410 C414 0.929 . S
H411 C420 0.929 . S
C412 H406 0.930 . S
C412 C413 1.367 . S
C412 C420 1.378 . S
C413 C412 1.367 . S
C413 C421 1.433 . S
C414 H410 0.929 . S
C414 C416 1.378 . S
C414 C418 1.350 . S
C415 C418 1.463 1_545 S
C415 C420 1.350 . S
C415 N423 1.427 . S
C416 H407 0.930 . S
C416 C414 1.378 . S
C416 C417 1.367 . S
C417 C416 1.367 . S
C417 C419 1.433 . S
C418 C414 1.350 . S
C418 C415 1.463 1_565 S
C418 N422 1.427 . S
C419 H409 0.929 . S
C419 C417 1.433 . S
C419 N422 1.384 . S
C420 H411 0.929 . S
C420 C412 1.378 . S
C420 C415 1.350 . S
C421 H408 0.929 . S
C421 C413 1.433 . S
C421 N423 1.384 . S
N422 C418 1.427 . S
N422 C419 1.384 . S
N423 C415 1.427 . S
N423 C421 1.384 . S
H424 C430 0.930 . S
H425 C434 0.930 . S
H426 C439 0.929 . S
H427 C437 0.929 . S
H428 C432 0.929 1_556 S
H429 C438 0.929 1_554 S
C430 H424 0.930 . S
C430 C431 1.367 . S
C430 C438 1.378 . S
C431 C430 1.367 . S
C431 C439 1.433 . S
C432 H428 0.929 1_554 S
C432 C434 1.378 . S
C432 C436 1.350 . S
C433 C436 1.463 1_556 S
C433 C438 1.350 . S
C433 N441 1.427 . S
C434 H425 0.930 . S
C434 C432 1.378 . S
C434 C435 1.367 . S
C435 C434 1.367 . S
C435 C437 1.433 . S
C436 C432 1.350 . S
C436 C433 1.463 1_554 S
C436 N440 1.427 . S
C437 H427 0.929 . S
C437 C435 1.433 . S
C437 N440 1.384 . S
C438 H429 0.929 1_556 S
C438 C430 1.378 . S
C438 C433 1.350 . S
C439 H426 0.929 . S
C439 C431 1.433 . S
C439 N441 1.384 . S
N440 C436 1.427 . S
N440 C437 1.384 . S
N441 C433 1.427 . S
N441 C439 1.384 . S
H442 C448 0.930 . S
H443 C452 0.930 . S
H444 C457 0.929 . S
H445 C455 0.929 . S
H446 C450 0.929 . S
H447 C456 0.929 . S
C448 H442 0.930 . S
C448 C449 1.367 . S
C448 C456 1.378 . S
C449 C448 1.367 . S
C449 C457 1.433 . S
C450 H446 0.929 . S
C450 C452 1.378 . S
C450 C454 1.350 . S
C451 C454 1.463 . S
C451 C456 1.350 . S
C451 N459 1.427 . S
C452 H443 0.930 . S
C452 C450 1.378 . S
C452 C453 1.367 . S
C453 C452 1.367 . S
C453 C455 1.433 . S
C454 C450 1.350 . S
C454 C451 1.463 . S
C454 N458 1.427 . S
C455 H445 0.929 . S
C455 C453 1.433 . S
C455 N458 1.384 . S
C456 H447 0.929 . S
C456 C448 1.378 . S
C456 C451 1.350 . S
C457 H444 0.929 . S
C457 C449 1.433 . S
C457 N459 1.384 . S
N458 C454 1.427 . S
N458 C455 1.384 . S
N459 C451 1.427 . S
N459 C457 1.384 . S
H460 C466 0.930 . S
H461 C470 0.930 . S
H462 C475 0.929 . S
H463 C473 0.929 . S
H464 C468 0.929 . S
H465 C474 0.929 . S
C466 H460 0.930 . S
C466 C467 1.367 . S
C466 C474 1.378 . S
C467 C466 1.367 . S
C467 C475 1.433 . S
C468 H464 0.929 . S
C468 C470 1.378 . S
C468 C472 1.350 . S
C469 C472 1.463 1_554 S
C469 C474 1.350 . S
C469 N477 1.433 . S
C470 H461 0.930 . S
C470 C468 1.378 . S
C470 C471 1.367 . S
C471 C470 1.367 . S
C471 C473 1.433 . S
C472 C468 1.350 . S
C472 C469 1.463 1_556 S
C472 N476 1.433 . S
C473 H463 0.929 . S
C473 C471 1.433 . S
C473 N476 1.395 . S
C474 H465 0.929 . S
C474 C466 1.378 . S
C474 C469 1.350 . S
C475 H462 0.929 . S
C475 C467 1.433 . S
C475 N477 1.395 . S
N476 C472 1.433 . S
N476 C473 1.395 . S
N477 C469 1.433 . S
N477 C475 1.395 . S
H478 C484 0.930 . S
H479 C488 0.930 . S
H480 C493 0.929 . S
H481 C491 0.929 . S
H482 C486 0.929 . S
H483 C492 0.929 . S
C484 H478 0.930 . S
C484 C485 1.367 . S
C484 C492 1.378 . S
C485 C484 1.367 . S
C485 C493 1.433 . S
C486 H482 0.929 . S
C486 C488 1.378 . S
C486 C490 1.350 . S
C487 C490 1.463 . S
C487 C492 1.350 . S
C487 N495 1.427 . S
C488 H479 0.930 . S
C488 C486 1.378 . S
C488 C489 1.367 . S
C489 C488 1.367 . S
C489 C491 1.433 . S
C490 C486 1.350 . S
C490 C487 1.463 . S
C490 N494 1.427 . S
C491 H481 0.929 . S
C491 C489 1.433 . S
C491 N494 1.384 . S
C492 H483 0.929 . S
C492 C484 1.378 . S
C492 C487 1.350 . S
C493 H480 0.929 . S
C493 C485 1.433 . S
C493 N495 1.384 . S
N494 C490 1.427 . S
N494 C491 1.384 . S
N495 C487 1.427 . S
N495 C493 1.384 . S
H496 C502 0.930 . S
H497 C506 0.930 . S
H498 C511 0.929 . S
H499 C509 0.929 . S
H500 C504 0.929 . S
H501 C510 0.929 . S
C502 H496 0.930 . S
C502 C503 1.367 . S
C502 C510 1.378 . S
C503 C502 1.367 . S
C503 C511 1.433 . S
C504 H500 0.929 . S
C504 C506 1.378 . S
C504 C508 1.350 . S
C505 C508 1.463 . S
C505 C510 1.350 . S
C505 N513 1.427 . S
C506 H497 0.930 . S
C506 C504 1.378 . S
C506 C507 1.367 . S
C507 C506 1.367 . S
C507 C509 1.433 . S
C508 C504 1.350 . S
C508 C505 1.463 . S
C508 N512 1.427 . S
C509 H499 0.929 . S
C509 C507 1.433 . S
C509 N512 1.384 . S
C510 H501 0.929 . S
C510 C502 1.378 . S
C510 C505 1.350 . S
C511 H498 0.929 . S
C511 C503 1.433 . S
C511 N513 1.384 . S
N512 C508 1.427 . S
N512 C509 1.384 . S
N513 C505 1.427 . S
N513 C511 1.384 . S
H514 C520 0.930 . S
H515 C524 0.930 . S
H516 C529 0.929 . S
H517 C527 0.929 . S
H518 C522 0.929 . S
H519 C528 0.929 . S
C520 H514 0.930 . S
C520 C521 1.367 . S
C520 C528 1.378 . S
C521 C520 1.367 . S
C521 C529 1.433 . S
C522 H518 0.929 . S
C522 C524 1.378 . S
C522 C526 1.350 . S
C523 C526 1.463 1_655 S
C523 C528 1.350 . S
C523 N531 1.427 . S
C524 H515 0.930 . S
C524 C522 1.378 . S
C524 C525 1.367 . S
C525 C524 1.367 . S
C525 C527 1.433 . S
C526 C522 1.350 . S
C526 C523 1.463 1_455 S
C526 N530 1.427 . S
C527 H517 0.929 . S
C527 C525 1.433 . S
C527 N530 1.384 . S
C528 H519 0.929 . S
C528 C520 1.378 . S
C528 C523 1.350 . S
C529 H516 0.929 . S
C529 C521 1.433 . S
C529 N531 1.384 . S
N530 C526 1.427 . S
N530 C527 1.384 . S
N531 C523 1.427 . S
N531 C529 1.384 . S
H532 C538 0.930 . S
H533 C542 0.930 . S
H534 C547 0.929 . S
H535 C545 0.929 . S
H536 C540 0.929 . S
H537 C546 0.929 . S
C538 H532 0.930 . S
C538 C539 1.367 . S
C538 C546 1.378 . S
C539 C538 1.367 . S
C539 C547 1.433 . S
C540 H536 0.929 . S
C540 C542 1.378 . S
C540 C544 1.350 . S
C541 C544 1.463 . S
C541 C546 1.350 . S
C541 N549 1.427 . S
C542 H533 0.930 . S
C542 C540 1.378 . S
C542 C543 1.367 . S
C543 C542 1.367 . S
C543 C545 1.433 . S
C544 C540 1.350 . S
C544 C541 1.463 . S
C544 N548 1.427 . S
C545 H535 0.929 . S
C545 C543 1.433 . S
C545 N548 1.384 . S
C546 H537 0.929 . S
C546 C538 1.378 . S
C546 C541 1.350 . S
C547 H534 0.929 . S
C547 C539 1.433 . S
C547 N549 1.384 . S
N548 C544 1.427 . S
N548 C545 1.384 . S
N549 C541 1.427 . S
N549 C547 1.384 . S
H550 C556 0.930 . S
H551 C560 0.930 . S
H552 C565 0.929 . S
H553 C563 0.929 . S
H554 C558 0.929 . S
H555 C564 0.929 . S
C556 H550 0.930 . S
C556 C557 1.367 . S
C556 C564 1.378 . S
C557 C556 1.367 . S
C557 C565 1.433 . S
C558 H554 0.929 . S
C558 C560 1.378 . S
C558 C562 1.350 . S
C559 C562 1.463 1_455 S
C559 C564 1.350 . S
C559 N567 1.427 . S
C560 H551 0.930 . S
C560 C558 1.378 . S
C560 C561 1.367 . S
C561 C560 1.367 . S
C561 C563 1.433 . S
C562 C558 1.350 . S
C562 C559 1.463 1_655 S
C562 N566 1.427 . S
C563 H553 0.929 . S
C563 C561 1.433 . S
C563 N566 1.384 . S
C564 H555 0.929 . S
C564 C556 1.378 . S
C564 C559 1.350 . S
C565 H552 0.929 . S
C565 C557 1.433 . S
C565 N567 1.384 . S
N566 C562 1.427 . S
N566 C563 1.384 . S
N567 C559 1.427 . S
N567 C565 1.384 . S
H568 C574 0.930 . S
H569 C578 0.930 . S
H570 C583 0.929 . S
H571 C581 0.929 . S
H572 C576 0.929 . S
H573 C582 0.929 . S
C574 H568 0.930 . S
C574 C575 1.367 . S
C574 C582 1.378 . S
C575 C574 1.367 . S
C575 C583 1.433 . S
C576 H572 0.929 . S
C576 C578 1.378 . S
C576 C580 1.350 . S
C577 C580 1.463 1_455 S
C577 C582 1.350 . S
C577 N585 1.427 . S
C578 H569 0.930 . S
C578 C576 1.378 . S
C578 C579 1.367 . S
C579 C578 1.367 . S
C579 C581 1.433 . S
C580 C576 1.350 . S
C580 C577 1.463 1_655 S
C580 N584 1.427 . S
C581 H571 0.929 . S
C581 C579 1.433 . S
C581 N584 1.384 . S
C582 H573 0.929 . S
C582 C574 1.378 . S
C582 C577 1.350 . S
C583 H570 0.929 . S
C583 C575 1.433 . S
C583 N585 1.384 . S
N584 C580 1.427 . S
N584 C581 1.384 . S
N585 C577 1.427 . S
N585 C583 1.384 . S
H586 C592 0.930 . S
H587 C596 0.930 . S
H588 C601 0.929 . S
H589 C599 0.929 . S
H590 C594 0.929 . S
H591 C600 0.929 . S
C592 H586 0.930 . S
C592 C593 1.367 . S
C592 C600 1.378 . S
C593 C592 1.367 . S
C593 C601 1.433 . S
C594 H590 0.929 . S
C594 C596 1.378 . S
C594 C598 1.350 . S
C595 C598 1.463 . S
C595 C600 1.350 . S
C595 N603 1.427 . S
C596 H587 0.930 . S
C596 C594 1.378 . S
C596 C597 1.367 . S
C597 C596 1.367 . S
C597 C599 1.433 . S
C598 C594 1.350 . S
C598 C595 1.463 . S
C598 N602 1.427 . S
C599 H589 0.929 . S
C599 C597 1.433 . S
C599 N602 1.384 . S
C600 H591 0.929 . S
C600 C592 1.378 . S
C600 C595 1.350 . S
C601 H588 0.929 . S
C601 C593 1.433 . S
C601 N603 1.384 . S
N602 C598 1.427 . S
N602 C599 1.384 . S
N603 C595 1.427 . S
N603 C601 1.384 . S
H604 C610 0.930 . S
H605 C614 0.930 . S
H606 C619 0.929 . S
H607 C617 0.929 . S
H608 C612 0.929 . S
H609 C618 0.929 . S
C610 H604 0.930 . S
C610 C611 1.367 . S
C610 C618 1.378 . S
C611 C610 1.367 . S
C611 C619 1.433 . S
C612 H608 0.929 . S
C612 C614 1.378 . S
C612 C616 1.350 . S
C613 C616 1.463 1_455 S
C613 C618 1.350 . S
C613 N621 1.427 . S
C614 H605 0.930 . S
C614 C612 1.378 . S
C614 C615 1.367 . S
C615 C614 1.367 . S
C615 C617 1.433 . S
C616 C612 1.350 . S
C616 C613 1.463 1_655 S
C616 N620 1.427 . S
C617 H607 0.929 . S
C617 C615 1.433 . S
C617 N620 1.384 . S
C618 H609 0.929 . S
C618 C610 1.378 . S
C618 C613 1.350 . S
C619 H606 0.929 . S
C619 C611 1.433 . S
C619 N621 1.384 . S
N620 C616 1.427 . S
N620 C617 1.384 . S
N621 C613 1.427 . S
N621 C619 1.384 . S
H622 C628 0.930 . S
H623 C632 0.930 . S
H624 C637 0.929 . S
H625 C635 0.929 . S
H626 C630 0.929 . S
H627 C636 0.929 . S
C628 H622 0.930 . S
C628 C629 1.367 . S
C628 C636 1.378 . S
C629 C628 1.367 . S
C629 C637 1.433 . S
C630 H626 0.929 . S
C630 C632 1.378 . S
C630 C634 1.350 . S
C631 C634 1.463 . S
C631 C636 1.350 . S
C631 N639 1.427 . S
C632 H623 0.930 . S
C632 C630 1.378 . S
C632 C633 1.367 . S
C633 C632 1.367 . S
C633 C635 1.433 . S
C634 C630 1.350 . S
C634 C631 1.463 . S
C634 N638 1.427 . S
C635 H625 0.929 . S
C635 C633 1.433 . S
C635 N638 1.384 . S
C636 H627 0.929 . S
C636 C628 1.378 . S
C636 C631 1.350 . S
C637 H624 0.929 . S
C637 C629 1.433 . S
C637 N639 1.384 . S
N638 C634 1.427 . S
N638 C635 1.384 . S
N639 C631 1.427 . S
N639 C637 1.384 . S
H640 C646 0.930 . S
H641 C650 0.930 . S
H642 C655 0.929 . S
H643 C653 0.929 . S
H644 C648 0.929 . S
H645 C654 0.929 . S
C646 H640 0.930 . S
C646 C647 1.367 . S
C646 C654 1.378 . S
C647 C646 1.367 . S
C647 C655 1.433 . S
C648 H644 0.929 . S
C648 C650 1.378 . S
C648 C652 1.350 . S
C649 C652 1.463 . S
C649 C654 1.350 . S
C649 N657 1.427 . S
C650 H641 0.930 . S
C650 C648 1.378 . S
C650 C651 1.367 . S
C651 C650 1.367 . S
C651 C653 1.433 . S
C652 C648 1.350 . S
C652 C649 1.463 . S
C652 N656 1.427 . S
C653 H643 0.929 . S
C653 C651 1.433 . S
C653 N656 1.384 . S
C654 H645 0.929 . S
C654 C646 1.378 . S
C654 C649 1.350 . S
C655 H642 0.929 . S
C655 C647 1.433 . S
C655 N657 1.384 . S
N656 C652 1.427 . S
N656 C653 1.384 . S
N657 C649 1.427 . S
N657 C655 1.384 . S
H658 C664 0.930 . S
H659 C668 0.930 . S
H660 C673 0.929 . S
H661 C671 0.929 . S
H662 C666 0.929 . S
H663 C672 0.929 . S
C664 H658 0.930 . S
C664 C665 1.367 . S
C664 C672 1.378 . S
C665 C664 1.367 . S
C665 C673 1.433 . S
C666 H662 0.929 . S
C666 C668 1.378 . S
C666 C670 1.350 . S
C667 C670 1.463 . S
C667 C672 1.350 . S
C667 N675 1.427 . S
C668 H659 0.930 . S
C668 C666 1.378 . S
C668 C669 1.367 . S
C669 C668 1.367 . S
C669 C671 1.433 . S
C670 C666 1.350 . S
C670 C667 1.463 . S
C670 N674 1.427 . S
C671 H661 0.929 . S
C671 C669 1.433 . S
C671 N674 1.384 . S
C672 H663 0.929 . S
C672 C664 1.378 . S
C672 C667 1.350 . S
C673 H660 0.929 . S
C673 C665 1.433 . S
C673 N675 1.384 . S
N674 C670 1.427 . S
N674 C671 1.384 . S
N675 C667 1.427 . S
N675 C673 1.384 . S
H676 C682 0.930 . S
H677 C686 0.930 . S
H678 C691 0.929 . S
H679 C689 0.929 . S
H680 C684 0.929 . S
H681 C690 0.929 . S
C682 H676 0.930 . S
C682 C683 1.367 . S
C682 C690 1.378 . S
C683 C682 1.367 . S
C683 C691 1.433 . S
C684 H680 0.929 . S
C684 C686 1.378 . S
C684 C688 1.350 . S
C685 C688 1.463 . S
C685 C690 1.350 . S
C685 N693 1.427 . S
C686 H677 0.930 . S
C686 C684 1.378 . S
C686 C687 1.367 . S
C687 C686 1.367 . S
C687 C689 1.433 . S
C688 C684 1.350 . S
C688 C685 1.463 . S
C688 N692 1.427 . S
C689 H679 0.929 . S
C689 C687 1.433 . S
C689 N692 1.384 . S
C690 H681 0.929 . S
C690 C682 1.378 . S
C690 C685 1.350 . S
C691 H678 0.929 . S
C691 C683 1.433 . S
C691 N693 1.384 . S
N692 C688 1.427 . S
N692 C689 1.384 . S
N693 C685 1.427 . S
N693 C691 1.384 . S
H694 C700 0.930 . S
H695 C704 0.930 . S
H696 C709 0.929 . S
H697 C707 0.929 . S
H698 C702 0.929 . S
H699 C708 0.929 . S
C700 H694 0.930 . S
C700 C701 1.367 . S
C700 C708 1.378 . S
C701 C700 1.367 . S
C701 C709 1.433 . S
C702 H698 0.929 . S
C702 C704 1.378 . S
C702 C706 1.350 . S
C703 C706 1.463 . S
C703 C708 1.350 . S
C703 N711 1.427 . S
C704 H695 0.930 . S
C704 C702 1.378 . S
C704 C705 1.367 . S
C705 C704 1.367 . S
C705 C707 1.433 . S
C706 C702 1.350 . S
C706 C703 1.463 . S
C706 N710 1.427 . S
C707 H697 0.929 . S
C707 C705 1.433 . S
C707 N710 1.384 . S
C708 H699 0.929 . S
C708 C700 1.378 . S
C708 C703 1.350 . S
C709 H696 0.929 . S
C709 C701 1.433 . S
C709 N711 1.384 . S
N710 C706 1.427 . S
N710 C707 1.384 . S
N711 C703 1.427 . S
N711 C709 1.384 . S
H712 C718 0.930 . S
H713 C722 0.930 . S
H714 C727 0.929 . S
H715 C725 0.929 . S
H716 C720 0.929 . S
H717 C726 0.929 . S
C718 H712 0.930 . S
C718 C719 1.367 . S
C718 C726 1.378 . S
C719 C718 1.367 . S
C719 C727 1.433 . S
C720 H716 0.929 . S
C720 C722 1.378 . S
C720 C724 1.350 . S
C721 C724 1.463 . S
C721 C726 1.350 . S
C721 N729 1.427 . S
C722 H713 0.930 . S
C722 C720 1.378 . S
C722 C723 1.367 . S
C723 C722 1.367 . S
C723 C725 1.433 . S
C724 C720 1.350 . S
C724 C721 1.463 . S
C724 N728 1.427 . S
C725 H715 0.929 . S
C725 C723 1.433 . S
C725 N728 1.384 . S
C726 H717 0.929 . S
C726 C718 1.378 . S
C726 C721 1.350 . S
C727 H714 0.929 . S
C727 C719 1.433 . S
C727 N729 1.384 . S
N728 C724 1.427 . S
N728 C725 1.384 . S
N729 C721 1.427 . S
N729 C727 1.384 . S
H730 C736 0.930 . S
H731 C740 0.930 . S
H732 C745 0.929 . S
H733 C743 0.929 . S
H734 C738 0.929 . S
H735 C744 0.929 . S
C736 H730 0.930 . S
C736 C737 1.367 . S
C736 C744 1.378 . S
C737 C736 1.367 . S
C737 C745 1.433 . S
C738 H734 0.929 . S
C738 C740 1.378 . S
C738 C742 1.350 . S
C739 C742 1.463 . S
C739 C744 1.350 . S
C739 N747 1.427 . S
C740 H731 0.930 . S
C740 C738 1.378 . S
C740 C741 1.367 . S
C741 C740 1.367 . S
C741 C743 1.433 . S
C742 C738 1.350 . S
C742 C739 1.463 . S
C742 N746 1.427 . S
C743 H733 0.929 . S
C743 C741 1.433 . S
C743 N746 1.384 . S
C744 H735 0.929 . S
C744 C736 1.378 . S
C744 C739 1.350 . S
C745 H732 0.929 . S
C745 C737 1.433 . S
C745 N747 1.384 . S
N746 C742 1.427 . S
N746 C743 1.384 . S
N747 C739 1.427 . S
N747 C745 1.384 . S
H748 C754 0.930 . S
H749 C758 0.930 . S
H750 C763 0.929 . S
H751 C761 0.929 . S
H752 C756 0.929 . S
H753 C762 0.929 . S
C754 H748 0.930 . S
C754 C755 1.367 . S
C754 C762 1.378 . S
C755 C754 1.367 . S
C755 C763 1.433 . S
C756 H752 0.929 . S
C756 C758 1.378 . S
C756 C760 1.350 . S
C757 C760 1.463 . S
C757 C762 1.350 . S
C757 N765 1.427 . S
C758 H749 0.930 . S
C758 C756 1.378 . S
C758 C759 1.367 . S
C759 C758 1.367 . S
C759 C761 1.433 . S
C760 C756 1.350 . S
C760 C757 1.463 . S
C760 N764 1.427 . S
C761 H751 0.929 . S
C761 C759 1.433 . S
C761 N764 1.384 . S
C762 H753 0.929 . S
C762 C754 1.378 . S
C762 C757 1.350 . S
C763 H750 0.929 . S
C763 C755 1.433 . S
C763 N765 1.384 . S
N764 C760 1.427 . S
N764 C761 1.384 . S
N765 C757 1.427 . S
N765 C763 1.384 . S
H766 C772 0.930 . S
H767 C776 0.930 . S
H768 C781 0.929 . S
H769 C779 0.929 . S
H770 C774 0.929 . S
H771 C780 0.929 . S
C772 H766 0.930 . S
C772 C773 1.367 . S
C772 C780 1.378 . S
C773 C772 1.367 . S
C773 C781 1.433 . S
C774 H770 0.929 . S
C774 C776 1.378 . S
C774 C778 1.350 . S
C775 C778 1.463 . S
C775 C780 1.350 . S
C775 N783 1.427 . S
C776 H767 0.930 . S
C776 C774 1.378 . S
C776 C777 1.367 . S
C777 C776 1.367 . S
C777 C779 1.433 . S
C778 C774 1.350 . S
C778 C775 1.463 . S
C778 N782 1.427 . S
C779 H769 0.929 . S
C779 C777 1.433 . S
C779 N782 1.384 . S
C780 H771 0.929 . S
C780 C772 1.378 . S
C780 C775 1.350 . S
C781 H768 0.929 . S
C781 C773 1.433 . S
C781 N783 1.384 . S
N782 C778 1.427 . S
N782 C779 1.384 . S
N783 C775 1.427 . S
N783 C781 1.384 . S
C215 C0 1.399 . S
C219 C164 1.412 . S
C233 C177 1.402 . S
C237 C13 1.404 . S
C251 C26 1.394 . S
C255 C190 1.406 . S
C269 C203 1.409 . S
C273 C39 1.395 . S
C287 C104 1.402 . S
C291 C60 1.412 . S
C305 C73 1.412 . S
C309 C117 1.401 . S
C323 C130 1.398 . S
C327 C86 1.411 . S
C341 C99 1.401 . S
C345 C143 1.402 . S
C359 C5 1.526 . S
C363 C31 1.528 . S
C377 C18 1.531 . S
C381 C44 1.523 . S
C395 C57 1.358 . S
C399 C83 1.352 . S
C413 C70 1.352 . S
C417 C96 1.358 . S
C431 C135 1.524 . S
C435 C109 1.533 . S
C449 C122 1.522 . S
C453 C148 1.532 . S
C467 C187 1.351 . S
C471 C161 1.362 . S
C485 C174 1.350 . S
C489 C200 1.360 . S
C503 C88 1.463 . S
C507 C10 1.463 . S
C521 C101 1.462 . S
C525 C23 1.463 . S
C539 C36 1.462 . S
C543 C62 1.462 . S
C557 C49 1.458 . S
C561 C75 1.457 . S
C575 C192 1.464 . S
C579 C114 1.464 . S
C593 C127 1.465 . S
C597 C205 1.464 . S
C611 C166 1.464 . S
C615 C140 1.464 . S
C629 C153 1.460 . S
C633 C179 1.460 . S
C647 C8 1.558 . S
C651 C47 1.551 . S
C665 C34 1.550 . S
C669 C21 1.559 . S
C683 C52 1.259 . S
C687 C91 1.259 . S
C701 C65 1.261 . S
C705 C78 1.261 . S
C719 C151 1.551 . S
C723 C112 1.557 . S
C737 C125 1.551 . S
C741 C138 1.558 . S
C755 C195 1.261 . S
C759 C156 1.261 . S
C773 C169 1.266 . S
C777 C182 1.266 . S
