# Generated by pormake.
# Topology fnq, (5)-cn, num edge types: 1
# Building blocks:
#     Node 0, Type 0, BuildingBlock: BEQFEK_clean_sbu_0, # of connection points: 5
#     Node 1, Type 0, BuildingBlock: BEQFEK_clean_sbu_0, # of connection points: 5
#     Node 2, Type 0, BuildingBlock: BEQFEK_clean_sbu_0, # of connection points: 5
#     Node 3, Type 0, BuildingBlock: BEQFEK_clean_sbu_0, # of connection points: 5
#     Node 4, Type 0, BuildingBlock: BEQFEK_clean_sbu_0, # of connection points: 5
#     Node 5, Type 0, BuildingBlock: BEQFEK_clean_sbu_0, # of connection points: 5
#     Node 6, Type 0, BuildingBlock: BEQFEK_clean_sbu_0, # of connection points: 5
#     Node 7, Type 0, BuildingBlock: BEQFEK_clean_sbu_0, # of connection points: 5
#     Node 8, Type 0, BuildingBlock: BEQFEK_clean_sbu_0, # of connection points: 5
#     Node 9, Type 0, BuildingBlock: BEQFEK_clean_sbu_0, # of connection points: 5
#     Node 10, Type 0, BuildingBlock: BEQFEK_clean_sbu_0, # of connection points: 5
#     Node 11, Type 0, BuildingBlock: BEQFEK_clean_sbu_0, # of connection points: 5
#     Node 12, Type 0, BuildingBlock: BEQFEK_clean_sbu_0, # of connection points: 5
#     Node 13, Type 0, BuildingBlock: BEQFEK_clean_sbu_0, # of connection points: 5
#     Node 14, Type 0, BuildingBlock: BEQFEK_clean_sbu_0, # of connection points: 5
#     Node 15, Type 0, BuildingBlock: BEQFEK_clean_sbu_0, # of connection points: 5
#     Node 16, Type 0, BuildingBlock: BEQFEK_clean_sbu_0, # of connection points: 5
#     Node 17, Type 0, BuildingBlock: BEQFEK_clean_sbu_0, # of connection points: 5
#     Edge 18, Type (0, 0), BuildingBlock: UVAHIK_clean_linker_0, # of connection points: 2
#     Edge 19, Type (0, 0), BuildingBlock: UVAHIK_clean_linker_0, # of connection points: 2
#     Edge 20, Type (0, 0), BuildingBlock: UVAHIK_clean_linker_0, # of connection points: 2
#     Edge 21, Type (0, 0), BuildingBlock: UVAHIK_clean_linker_0, # of connection points: 2
#     Edge 22, Type (0, 0), BuildingBlock: UVAHIK_clean_linker_0, # of connection points: 2
#     Edge 23, Type (0, 0), BuildingBlock: UVAHIK_clean_linker_0, # of connection points: 2
#     Edge 24, Type (0, 0), BuildingBlock: UVAHIK_clean_linker_0, # of connection points: 2
#     Edge 25, Type (0, 0), BuildingBlock: UVAHIK_clean_linker_0, # of connection points: 2
#     Edge 26, Type (0, 0), BuildingBlock: UVAHIK_clean_linker_0, # of connection points: 2
#     Edge 27, Type (0, 0), BuildingBlock: UVAHIK_clean_linker_0, # of connection points: 2
#     Edge 28, Type (0, 0), BuildingBlock: UVAHIK_clean_linker_0, # of connection points: 2
#     Edge 29, Type (0, 0), BuildingBlock: UVAHIK_clean_linker_0, # of connection points: 2
#     Edge 30, Type (0, 0), BuildingBlock: UVAHIK_clean_linker_0, # of connection points: 2
#     Edge 31, Type (0, 0), BuildingBlock: UVAHIK_clean_linker_0, # of connection points: 2
#     Edge 32, Type (0, 0), BuildingBlock: UVAHIK_clean_linker_0, # of connection points: 2
#     Edge 33, Type (0, 0), BuildingBlock: UVAHIK_clean_linker_0, # of connection points: 2
#     Edge 34, Type (0, 0), BuildingBlock: UVAHIK_clean_linker_0, # of connection points: 2
#     Edge 35, Type (0, 0), BuildingBlock: UVAHIK_clean_linker_0, # of connection points: 2
#     Edge 36, Type (0, 0), BuildingBlock: UVAHIK_clean_linker_0, # of connection points: 2
#     Edge 37, Type (0, 0), BuildingBlock: UVAHIK_clean_linker_0, # of connection points: 2
#     Edge 38, Type (0, 0), BuildingBlock: UVAHIK_clean_linker_0, # of connection points: 2
#     Edge 39, Type (0, 0), BuildingBlock: UVAHIK_clean_linker_0, # of connection points: 2
#     Edge 40, Type (0, 0), BuildingBlock: UVAHIK_clean_linker_0, # of connection points: 2
#     Edge 41, Type (0, 0), BuildingBlock: UVAHIK_clean_linker_0, # of connection points: 2
#     Edge 42, Type (0, 0), BuildingBlock: UVAHIK_clean_linker_0, # of connection points: 2
#     Edge 43, Type (0, 0), BuildingBlock: UVAHIK_clean_linker_0, # of connection points: 2
#     Edge 44, Type (0, 0), BuildingBlock: UVAHIK_clean_linker_0, # of connection points: 2
#     Edge 45, Type (0, 0), BuildingBlock: UVAHIK_clean_linker_0, # of connection points: 2
#     Edge 46, Type (0, 0), BuildingBlock: UVAHIK_clean_linker_0, # of connection points: 2
#     Edge 47, Type (0, 0), BuildingBlock: UVAHIK_clean_linker_0, # of connection points: 2
#     Edge 48, Type (0, 0), BuildingBlock: UVAHIK_clean_linker_0, # of connection points: 2
#     Edge 49, Type (0, 0), BuildingBlock: UVAHIK_clean_linker_0, # of connection points: 2
#     Edge 50, Type (0, 0), BuildingBlock: UVAHIK_clean_linker_0, # of connection points: 2
#     Edge 51, Type (0, 0), BuildingBlock: UVAHIK_clean_linker_0, # of connection points: 2
#     Edge 52, Type (0, 0), BuildingBlock: UVAHIK_clean_linker_0, # of connection points: 2
#     Edge 53, Type (0, 0), BuildingBlock: UVAHIK_clean_linker_0, # of connection points: 2
#     Edge 54, Type (0, 0), BuildingBlock: UVAHIK_clean_linker_0, # of connection points: 2
#     Edge 55, Type (0, 0), BuildingBlock: UVAHIK_clean_linker_0, # of connection points: 2
#     Edge 56, Type (0, 0), BuildingBlock: UVAHIK_clean_linker_0, # of connection points: 2
#     Edge 57, Type (0, 0), BuildingBlock: UVAHIK_clean_linker_0, # of connection points: 2
#     Edge 58, Type (0, 0), BuildingBlock: UVAHIK_clean_linker_0, # of connection points: 2
#     Edge 59, Type (0, 0), BuildingBlock: UVAHIK_clean_linker_0, # of connection points: 2
#     Edge 60, Type (0, 0), BuildingBlock: UVAHIK_clean_linker_0, # of connection points: 2
#     Edge 61, Type (0, 0), BuildingBlock: UVAHIK_clean_linker_0, # of connection points: 2
#     Edge 62, Type (0, 0), BuildingBlock: UVAHIK_clean_linker_0, # of connection points: 2
# Relax obj value: 0.326
# Max RMSD: 0.234
# Mean RMSD: 0.220
data_MOF--net-fnq--node1-BEQFEK_clean_sbu_0--edge1-UVAHIK_clean_linker_0
_symmetry_space_group_name_H-M    P1
_symmetry_Int_Tables_number       1
_symmetry_cell_setting            triclinic
loop_
_symmetry_equiv_pos_as_xyz
'x, y, z'
_cell_length_a     65.17141
_cell_length_b     65.172842
_cell_length_c     46.656804
_cell_angle_alpha  89.9481
_cell_angle_beta   90.079454
_cell_angle_gamma 119.91605
loop_
_atom_site_label
_atom_site_type_symbol
_atom_site_fract_x
_atom_site_fract_y
_atom_site_fract_z
_atom_type_partial_charge
Co0 Co 0.18418 0.36596 0.12854 0.0
Co1 Co 0.17801 0.31579 0.13457 0.0
C2 C 0.22647 0.35968 0.12756 0.0
O3 O 0.21728 0.37274 0.12409 0.0
O4 O 0.21335 0.33747 0.13145 0.0
C5 C 0.20067 0.41398 0.13616 0.0
O6 O 0.21629 0.41156 0.15143 0.0
C7 C 0.1804 0.27699 0.10898 0.0
C8 C 0.1579 0.24633 0.1366 0.0
C9 C 0.17118 0.25283 0.11166 0.0
N10 N 0.17262 0.28446 0.13094 0.0
N11 N 0.15942 0.26617 0.14769 0.0
C12 C 0.19627 0.29305 0.0859 0.0
H13 H 0.21395 0.30505 0.09527 0.0
H14 H 0.18919 0.30429 0.07772 0.0
H15 H 0.19848 0.28315 0.06801 0.0
C16 C 0.14386 0.3408 0.08801 0.0
N17 N 0.16155 0.34185 0.10426 0.0
N18 N 0.15887 0.32055 0.10657 0.0
C19 C 0.13938 0.30523 0.09157 0.0
C20 C 0.129 0.31744 0.07933 0.0
C21 C 0.1395 0.36117 0.08474 0.0
H22 H 0.13957 0.36854 0.10619 0.0
H23 H 0.15415 0.37536 0.07215 0.0
H24 H 0.12239 0.35593 0.07403 0.0
O25 O 0.17526 0.35705 0.16907 0.0
O26 O 0.169 0.32043 0.17381 0.0
H27 H 0.12645 0.27145 0.11173 0.0
H28 H 0.11437 0.26984 0.07624 0.0
C29 C 0.13036 0.27915 0.08986 0.0
H30 H 0.14418 0.27618 0.08032 0.0
H31 H 0.1509 0.26709 0.16615 0.0
O32 O 0.18463 0.3961 0.12294 0.0
C33 C 0.1696 0.33878 0.18436 0.0
Co34 Co 0.66408 0.82707 0.13047 0.0
Co35 Co 0.71438 0.87084 0.13531 0.0
C36 C 0.6703 0.87554 0.12961 0.0
O37 O 0.6572 0.85333 0.12624 0.0
O38 O 0.69257 0.88456 0.13307 0.0
C39 C 0.61603 0.79576 0.13868 0.0
O40 O 0.61855 0.81382 0.15393 0.0
C41 C 0.75348 0.91052 0.10744 0.0
C42 C 0.78347 0.92114 0.13727 0.0
C43 C 0.77746 0.92602 0.11066 0.0
N44 N 0.74564 0.89665 0.13071 0.0
N45 N 0.76356 0.9032 0.14869 0.0
C46 C 0.73812 0.90894 0.08264 0.0
H47 H 0.71915 0.89719 0.08775 0.0
H48 H 0.74252 0.90171 0.06361 0.0
H49 H 0.74144 0.92689 0.07698 0.0
C50 C 0.68835 0.8115 0.08916 0.0
N51 N 0.68769 0.82832 0.10542 0.0
N52 N 0.70916 0.84665 0.10765 0.0
C53 C 0.72426 0.84194 0.09297 0.0
C54 C 0.71164 0.81946 0.08064 0.0
C55 C 0.66766 0.78703 0.08584 0.0
H56 H 0.66135 0.77915 0.10737 0.0
H57 H 0.65295 0.78803 0.07518 0.0
H58 H 0.67218 0.7754 0.07329 0.0
O59 O 0.67381 0.82724 0.17084 0.0
O60 O 0.71061 0.85744 0.17449 0.0
H61 H 0.75743 0.86306 0.11442 0.0
H62 H 0.75992 0.85021 0.08111 0.0
C63 C 0.75055 0.85811 0.09225 0.0
H64 H 0.75458 0.87441 0.08049 0.0
H65 H 0.7623 0.89513 0.16843 0.0
O66 O 0.63384 0.79747 0.12543 0.0
C67 C 0.69246 0.83984 0.18555 0.0
Co68 Co 0.20109 0.84282 0.13025 0.0
Co69 Co 0.1574 0.84952 0.13567 0.0
C70 C 0.15268 0.80072 0.12988 0.0
O71 O 0.17486 0.80969 0.12628 0.0
O72 O 0.14375 0.81404 0.13346 0.0
C73 C 0.23289 0.82673 0.13929 0.0
O74 O 0.21502 0.81145 0.15496 0.0
C75 C 0.11782 0.84907 0.10757 0.0
C76 C 0.10672 0.86794 0.13751 0.0
C77 C 0.10214 0.85736 0.11075 0.0
N78 N 0.13151 0.85492 0.13101 0.0
N79 N 0.12469 0.866 0.14904 0.0
C80 C 0.11971 0.83559 0.08269 0.0
H81 H 0.1018 0.82146 0.07612 0.0
H82 H 0.13091 0.82777 0.08817 0.0
H83 H 0.1278 0.84759 0.06414 0.0
C84 C 0.21639 0.8825 0.08886 0.0
N85 N 0.19966 0.86511 0.10525 0.0
N86 N 0.18147 0.86846 0.1079 0.0
C87 C 0.18619 0.88836 0.09339 0.0
C88 C 0.20852 0.89802 0.08071 0.0
C89 C 0.24077 0.88607 0.08517 0.0
H90 H 0.24903 0.88809 0.10657 0.0
H91 H 0.23955 0.87011 0.075 0.0
H92 H 0.25222 0.9019 0.07204 0.0
O93 O 0.20107 0.85247 0.17052 0.0
O94 O 0.17087 0.85905 0.17485 0.0
H95 H 0.16531 0.90036 0.11556 0.0
H96 H 0.17831 0.91626 0.08261 0.0
C97 C 0.17024 0.89878 0.09326 0.0
H98 H 0.15389 0.88691 0.08133 0.0
H99 H 0.13257 0.87263 0.16892 0.0
O100 O 0.23081 0.84235 0.1253 0.0
C101 C 0.18862 0.8585 0.18556 0.0
Co102 Co 0.37229 0.17812 0.88066 0.0
Co103 Co 0.3219 0.17144 0.87508 0.0
C104 C 0.36601 0.22026 0.8806 0.0
O105 O 0.37923 0.21128 0.88439 0.0
O106 O 0.34377 0.20694 0.877 0.0
C107 C 0.41982 0.19375 0.87078 0.0
O108 O 0.41699 0.20901 0.85528 0.0
C109 C 0.2826 0.17131 0.90345 0.0
C110 C 0.2534 0.15473 0.87204 0.0
C111 C 0.25886 0.16402 0.89953 0.0
N112 N 0.29068 0.16612 0.87973 0.0
N113 N 0.27321 0.15626 0.86092 0.0
C114 C 0.2979 0.18409 0.9287 0.0
H115 H 0.31684 0.19356 0.92255 0.0
H116 H 0.29546 0.17115 0.94567 0.0
H117 H 0.29293 0.19679 0.93763 0.0
C118 C 0.34813 0.13935 0.9234 0.0
N119 N 0.3487 0.15621 0.906 0.0
N120 N 0.32717 0.15287 0.90323 0.0
C121 C 0.31212 0.13349 0.91859 0.0
C122 C 0.32489 0.12433 0.93215 0.0
C123 C 0.36921 0.13674 0.92971 0.0
H124 H 0.38484 0.15438 0.93396 0.0
H125 H 0.36598 0.12498 0.94841 0.0
H126 H 0.37319 0.12913 0.91066 0.0
O127 O 0.36241 0.16832 0.84042 0.0
O128 O 0.3256 0.16157 0.83606 0.0
H129 H 0.2773 0.1024 0.92192 0.0
H130 H 0.27902 0.12989 0.93155 0.0
C131 C 0.28569 0.12147 0.91642 0.0
H132 H 0.28037 0.12317 0.89438 0.0
H133 H 0.27478 0.1505 0.84061 0.0
O134 O 0.4024 0.1783 0.88519 0.0
C135 C 0.34389 0.16216 0.82538 0.0
Co136 Co 0.84696 0.19554 0.88047 0.0
Co137 Co 0.85712 0.15426 0.87323 0.0
C138 C 0.8069 0.14654 0.87907 0.0
O139 O 0.81433 0.16822 0.8847 0.0
O140 O 0.82148 0.13932 0.87408 0.0
C141 C 0.82943 0.22619 0.87164 0.0
O142 O 0.81447 0.20812 0.85596 0.0
C143 C 0.85907 0.11593 0.9011 0.0
C144 C 0.8765 0.10438 0.86958 0.0
C145 C 0.86723 0.10017 0.89708 0.0
N146 N 0.86376 0.12919 0.87745 0.0
N147 N 0.87413 0.12223 0.85856 0.0
C148 C 0.84593 0.11777 0.92639 0.0
H149 H 0.83584 0.12667 0.92029 0.0
H150 H 0.8587 0.1285 0.94338 0.0
H151 H 0.83373 0.09995 0.93527 0.0
C152 C 0.88618 0.21145 0.9232 0.0
N153 N 0.86985 0.19503 0.90545 0.0
N154 N 0.87449 0.17773 0.90202 0.0
C155 C 0.89416 0.18279 0.91723 0.0
C156 C 0.90218 0.20424 0.93147 0.0
C157 C 0.88734 0.23436 0.93039 0.0
H158 H 0.86926 0.23124 0.93465 0.0
H159 H 0.89878 0.24283 0.94935 0.0
H160 H 0.89459 0.24649 0.91176 0.0
O161 O 0.8568 0.19641 0.83976 0.0
O162 O 0.86713 0.16882 0.83499 0.0
H163 H 0.92651 0.18114 0.91955 0.0
H164 H 0.89996 0.15438 0.92915 0.0
C165 C 0.90749 0.16967 0.91426 0.0
H166 H 0.90599 0.16306 0.89206 0.0
H167 H 0.87967 0.12971 0.83827 0.0
O168 O 0.8453 0.22461 0.8857 0.0
C169 C 0.86468 0.18557 0.82458 0.0
Co170 Co 0.82939 0.65686 0.88021 0.0
Co171 Co 0.87259 0.70734 0.87393 0.0
C172 C 0.87806 0.6637 0.88011 0.0
O173 O 0.85594 0.65045 0.88407 0.0
O174 O 0.88679 0.68588 0.87615 0.0
C175 C 0.79867 0.60883 0.87217 0.0
O176 O 0.81692 0.61175 0.85703 0.0
C177 C 0.91149 0.74728 0.90162 0.0
C178 C 0.92332 0.77612 0.86983 0.0
C179 C 0.92749 0.77108 0.89739 0.0
N180 N 0.89813 0.73877 0.87802 0.0
N181 N 0.90527 0.75602 0.85897 0.0
C182 C 0.90948 0.73236 0.92709 0.0
H183 H 0.90034 0.71336 0.92121 0.0
H184 H 0.8989 0.7347 0.94402 0.0
H185 H 0.92727 0.73776 0.93597 0.0
C186 C 0.81464 0.68107 0.92273 0.0
N187 N 0.83089 0.68054 0.90527 0.0
N188 N 0.84887 0.70213 0.90222 0.0
C189 C 0.8444 0.71717 0.91744 0.0
C190 C 0.82264 0.70434 0.93123 0.0
C191 C 0.79119 0.65987 0.92941 0.0
H192 H 0.79351 0.64441 0.93379 0.0
H193 H 0.78274 0.66315 0.94814 0.0
H194 H 0.77941 0.65558 0.91048 0.0
O195 O 0.82885 0.66619 0.8398 0.0
O196 O 0.85866 0.70304 0.83503 0.0
H197 H 0.84761 0.75182 0.92028 0.0
H198 H 0.87364 0.75058 0.92999 0.0
C199 C 0.85848 0.74359 0.91493 0.0
H200 H 0.86533 0.74877 0.89282 0.0
H201 H 0.89775 0.75411 0.8387 0.0
O202 O 0.8 0.62646 0.88548 0.0
C203 C 0.84098 0.68462 0.82457 0.0
Co204 Co 0.85118 0.69716 0.46294 0.0
Co205 Co 0.84256 0.64617 0.46959 0.0
C206 C 0.89215 0.68922 0.4636 0.0
O207 O 0.88405 0.70301 0.45844 0.0
O208 O 0.8781 0.6673 0.4684 0.0
C209 C 0.86862 0.74534 0.47095 0.0
O210 O 0.88394 0.74246 0.48626 0.0
C211 C 0.84287 0.60604 0.44372 0.0
C212 C 0.82225 0.57675 0.47396 0.0
C213 C 0.83389 0.58202 0.44785 0.0
N214 N 0.83634 0.61453 0.46594 0.0
N215 N 0.82417 0.59702 0.48412 0.0
C216 C 0.85777 0.62091 0.41927 0.0
H217 H 0.86768 0.63985 0.42533 0.0
H218 H 0.84627 0.61907 0.40079 0.0
H219 H 0.87028 0.61498 0.41238 0.0
C220 C 0.81106 0.67317 0.42169 0.0
N221 N 0.82826 0.67352 0.43828 0.0
N222 N 0.8245 0.65185 0.44109 0.0
C223 C 0.80463 0.63693 0.42643 0.0
C224 C 0.79529 0.64987 0.41356 0.0
C225 C 0.80795 0.69425 0.41767 0.0
H226 H 0.82387 0.70854 0.40694 0.0
H227 H 0.79196 0.68999 0.4049 0.0
H228 H 0.80653 0.701 0.43898 0.0
O229 O 0.84168 0.6882 0.50364 0.0
O230 O 0.8327 0.65066 0.50808 0.0
H231 H 0.79081 0.60386 0.44864 0.0
H232 H 0.77722 0.60149 0.41396 0.0
C233 C 0.79395 0.61056 0.42629 0.0
H234 H 0.80643 0.60595 0.41614 0.0
H235 H 0.81694 0.59883 0.50324 0.0
O236 O 0.85247 0.72771 0.45749 0.0
C237 C 0.83448 0.6695 0.51869 0.0
Co238 Co 0.32773 0.15702 0.46426 0.0
Co239 Co 0.37816 0.20057 0.46941 0.0
C240 C 0.33413 0.20551 0.46422 0.0
O241 O 0.32086 0.18333 0.46066 0.0
O242 O 0.35639 0.21437 0.46756 0.0
C243 C 0.28011 0.12526 0.474 0.0
O244 O 0.2829 0.14326 0.48959 0.0
C245 C 0.41774 0.23991 0.44157 0.0
C246 C 0.44667 0.25197 0.47331 0.0
C247 C 0.44145 0.25623 0.44588 0.0
N248 N 0.40945 0.22632 0.46502 0.0
N249 N 0.42676 0.23359 0.48402 0.0
C250 C 0.40265 0.23787 0.41626 0.0
H251 H 0.38365 0.22824 0.42213 0.0
H252 H 0.40534 0.22778 0.39898 0.0
H253 H 0.40763 0.25569 0.40784 0.0
C254 C 0.35174 0.14234 0.42122 0.0
N255 N 0.35124 0.15861 0.4387 0.0
N256 N 0.37278 0.17679 0.44124 0.0
C257 C 0.38774 0.17246 0.42568 0.0
C258 C 0.37493 0.15055 0.41219 0.0
C259 C 0.33062 0.11872 0.41496 0.0
H260 H 0.32674 0.10709 0.43395 0.0
H261 H 0.31497 0.12078 0.41092 0.0
H262 H 0.33375 0.11024 0.39614 0.0
O263 O 0.33764 0.15692 0.50453 0.0
O264 O 0.37451 0.18688 0.50829 0.0
H265 H 0.41964 0.19383 0.44963 0.0
H266 H 0.42259 0.17623 0.42193 0.0
C267 C 0.41419 0.18687 0.42761 0.0
H268 H 0.42072 0.20198 0.41251 0.0
H269 H 0.425 0.22598 0.5042 0.0
O270 O 0.29757 0.12723 0.45966 0.0
C271 C 0.35633 0.16929 0.51925 0.0
Co272 Co 0.86902 0.17679 0.46375 0.0
Co273 Co 0.82481 0.18265 0.46936 0.0
C274 C 0.8203 0.13423 0.46385 0.0
O275 O 0.84256 0.14355 0.46059 0.0
O276 O 0.81098 0.14724 0.46711 0.0
C277 C 0.90046 0.1603 0.47191 0.0
O278 O 0.88266 0.1453 0.48789 0.0
C279 C 0.7809 0.1777 0.44848 0.0
C280 C 0.77751 0.20533 0.47186 0.0
C281 C 0.76676 0.1879 0.45114 0.0
N282 N 0.79908 0.18847 0.46679 0.0
N283 N 0.79688 0.20481 0.48101 0.0
C284 C 0.77907 0.16016 0.42645 0.0
H285 H 0.79679 0.1624 0.42199 0.0
H286 H 0.77128 0.16223 0.40624 0.0
H287 H 0.76749 0.14199 0.43479 0.0
C288 C 0.88332 0.21638 0.42216 0.0
N289 N 0.86699 0.19881 0.43874 0.0
N290 N 0.84801 0.20094 0.44045 0.0
C291 C 0.85151 0.21975 0.42446 0.0
C292 C 0.87415 0.23048 0.41246 0.0
C293 C 0.90831 0.22147 0.41949 0.0
H294 H 0.91498 0.21995 0.44082 0.0
H295 H 0.90869 0.20804 0.40524 0.0
H296 H 0.92021 0.23939 0.41073 0.0
O297 O 0.86998 0.18688 0.50389 0.0
O298 O 0.83924 0.19255 0.50816 0.0
H299 H 0.83234 0.23548 0.44211 0.0
H300 H 0.83866 0.24118 0.40424 0.0
C301 C 0.83376 0.22783 0.42149 0.0
H302 H 0.81623 0.21251 0.41624 0.0
H303 H 0.80898 0.21607 0.49626 0.0
O304 O 0.8985 0.17597 0.4579 0.0
C305 C 0.85732 0.19267 0.51884 0.0
Co306 Co 0.0358 0.51218 0.21384 0.0
Co307 Co 0.98531 0.50511 0.2085 0.0
C308 C 0.02921 0.55404 0.21491 0.0
O309 O 0.0425 0.54515 0.2185 0.0
O310 O 1.00701 0.54066 0.21107 0.0
C311 C 0.08343 0.5286 0.204 0.0
O312 O 0.08033 0.54385 0.18884 0.0
C313 C 0.94612 0.50341 0.23863 0.0
C314 C 0.91674 0.48845 0.20735 0.0
C315 C 0.92236 0.49616 0.23545 0.0
N316 N 0.95413 0.49967 0.21388 0.0
N317 N 0.93657 0.49084 0.1951 0.0
C318 C 0.96142 0.51468 0.26438 0.0
H319 H 0.95653 0.52693 0.27487 0.0
H320 H 0.98038 0.52438 0.25827 0.0
H321 H 0.95879 0.50083 0.28012 0.0
C322 C 1.01184 0.47281 0.25603 0.0
N323 N 1.01229 0.48976 0.2389 0.0
N324 N 0.99065 0.48609 0.23592 0.0
C325 C 0.97565 0.46629 0.25064 0.0
C326 C 0.98855 0.4573 0.26425 0.0
C327 C 0.03318 0.47074 0.26276 0.0
H328 H 0.04865 0.48858 0.26657 0.0
H329 H 0.03014 0.45942 0.28187 0.0
H330 H 0.03725 0.46283 0.2441 0.0
O331 O 0.02598 0.50295 0.17335 0.0
O332 O 0.98898 0.49577 0.16927 0.0
H333 H 0.94141 0.43432 0.25093 0.0
H334 H 0.94168 0.46037 0.26385 0.0
C335 C 0.94924 0.45366 0.24757 0.0
H336 H 0.94422 0.45666 0.22594 0.0
H337 H 0.93805 0.48621 0.17412 0.0
O338 O 0.06608 0.51271 0.21808 0.0
C339 C 1.00741 0.49677 0.1584 0.0
Co340 Co 0.51511 0.53215 0.21202 0.0
Co341 Co 0.52191 0.48848 0.20791 0.0
C342 C 0.47306 0.48381 0.21306 0.0
O343 O 0.48203 0.50603 0.21622 0.0
O344 O 0.4864 0.47484 0.2099 0.0
C345 C 0.49884 0.56364 0.20196 0.0
O346 O 0.48356 0.54549 0.18663 0.0
C347 C 0.52275 0.4505 0.23819 0.0
C348 C 0.53812 0.43623 0.20731 0.0
C349 C 0.52979 0.4338 0.23514 0.0
N350 N 0.52718 0.46264 0.21362 0.0
N351 N 0.53628 0.45403 0.1951 0.0
C352 C 0.51091 0.45425 0.26354 0.0
H353 H 0.50174 0.46403 0.25721 0.0
H354 H 0.52435 0.46484 0.27998 0.0
H355 H 0.49809 0.43699 0.27328 0.0
C356 C 0.55406 0.54746 0.25485 0.0
N357 N 0.53719 0.53094 0.2377 0.0
N358 N 0.54064 0.51278 0.23544 0.0
C359 C 0.56014 0.5174 0.25079 0.0
C360 C 0.56921 0.53943 0.26394 0.0
C361 C 0.55649 0.57113 0.2607 0.0
H362 H 0.56404 0.58253 0.24151 0.0
H363 H 0.5388 0.56907 0.26479 0.0
H364 H 0.56823 0.57985 0.27936 0.0
O365 O 0.52481 0.53152 0.1718 0.0
O366 O 0.5317 0.50144 0.16868 0.0
H367 H 0.57004 0.49532 0.22723 0.0
H368 H 0.59169 0.51436 0.25317 0.0
C369 C 0.57246 0.50322 0.24884 0.0
H370 H 0.56494 0.48884 0.26499 0.0
H371 H 0.54138 0.46038 0.17428 0.0
O372 O 0.51463 0.56193 0.21605 0.0
C373 C 0.53102 0.51891 0.15736 0.0
Co374 Co 0.49771 0.9926 0.21158 0.0
Co375 Co 0.5417 0.04282 0.2072 0.0
C376 C 0.54622 0.99873 0.21326 0.0
O377 O 0.52394 0.98564 0.21605 0.0
O378 O 0.55537 0.02103 0.21006 0.0
C379 C 0.46612 0.94474 0.2026 0.0
O380 O 0.48413 0.94731 0.18724 0.0
C381 C 0.58162 0.08174 0.23481 0.0
C382 C 0.59197 0.11196 0.20547 0.0
C383 C 0.59715 0.10568 0.23172 0.0
N384 N 0.56754 0.07407 0.21171 0.0
N385 N 0.57393 0.09211 0.194 0.0
C386 C 0.5799 0.06636 0.2596 0.0
H387 H 0.56483 0.04812 0.25679 0.0
H388 H 0.57759 0.07383 0.27988 0.0
H389 H 0.59664 0.06589 0.26139 0.0
C390 C 0.48212 0.01693 0.25281 0.0
N391 N 0.49892 0.01623 0.23657 0.0
N392 N 0.5174 0.03762 0.23468 0.0
C393 C 0.51288 0.05271 0.24968 0.0
C394 C 0.49029 0.04018 0.26173 0.0
C395 C 0.45755 0.99637 0.25586 0.0
H396 H 0.44987 0.98999 0.23425 0.0
H397 H 0.45832 0.98165 0.26682 0.0
H398 H 0.44586 1.00105 0.26803 0.0
O399 O 0.49811 1.00234 0.17123 0.0
O400 O 0.52858 0.03899 0.16782 0.0
H401 H 0.53461 0.08629 0.22943 0.0
H402 H 0.52186 0.08825 0.26309 0.0
C403 C 0.52948 0.07887 0.25135 0.0
H404 H 0.54564 0.08219 0.26299 0.0
H405 H 0.56564 0.09102 0.17446 0.0
O406 O 0.46799 0.96243 0.21632 0.0
C407 C 0.51095 0.02095 0.1566 0.0
Co408 Co 0.52007 0.02964 0.79416 0.0
Co409 Co 0.51098 0.97867 0.80262 0.0
C410 C 0.56073 0.02159 0.79538 0.0
O411 O 0.55287 0.03544 0.78928 0.0
O412 O 0.54648 0.99988 0.80108 0.0
C413 C 0.537 0.07781 0.80181 0.0
O414 O 0.55244 0.07526 0.81729 0.0
C415 C 0.51106 0.93914 0.77553 0.0
C416 C 0.49218 0.90948 0.80584 0.0
C417 C 0.50278 0.91523 0.77908 0.0
N418 N 0.50522 0.94721 0.79874 0.0
N419 N 0.49412 0.92949 0.817 0.0
C420 C 0.52449 0.95425 0.75046 0.0
H421 H 0.53222 0.97329 0.75559 0.0
H422 H 0.51246 0.95009 0.73186 0.0
H423 H 0.53868 0.95045 0.74416 0.0
C424 C 0.47964 1.00522 0.75354 0.0
N425 N 0.49682 1.00567 0.77026 0.0
N426 N 0.49267 0.98395 0.77406 0.0
C427 C 0.47254 0.96888 0.75992 0.0
C428 C 0.46346 0.98179 0.74634 0.0
C429 C 0.47697 0.02646 0.74858 0.0
H430 H 0.47556 0.03367 0.76956 0.0
H431 H 0.49305 0.04041 0.73773 0.0
H432 H 0.46111 0.02224 0.73556 0.0
O433 O 0.51103 0.02121 0.83505 0.0
O434 O 0.50148 0.98364 0.84113 0.0
H435 H 0.45968 0.93646 0.7834 0.0
H436 H 0.44407 0.93321 0.75004 0.0
C437 C 0.4615 0.94247 0.76083 0.0
H438 H 0.47312 0.93729 0.74957 0.0
H439 H 0.48752 0.93095 0.83679 0.0
O440 O 0.52109 0.06003 0.78832 0.0
C441 C 0.50378 1.00294 0.85092 0.0
Co442 Co 0.99463 0.49035 0.79688 0.0
Co443 Co 0.04456 0.53465 0.80231 0.0
C444 C 1.0004 0.53883 0.79634 0.0
O445 O 0.98747 0.51659 0.79295 0.0
O446 O 0.02265 0.54806 0.79989 0.0
C447 C 0.94672 0.45863 0.805 0.0
O448 O 0.94917 0.47654 0.8205 0.0
C449 C 0.0821 0.57781 0.77892 0.0
C450 C 0.114 0.58382 0.80262 0.0
C451 C 0.10636 0.59283 0.78073 0.0
N452 N 0.07569 0.56084 0.79877 0.0
N453 N 0.09473 0.56462 0.81321 0.0
C454 C 0.06558 0.57735 0.75622 0.0
H455 H 0.05025 0.5592 0.75378 0.0
H456 H 0.07479 0.58339 0.73532 0.0
H457 H 0.05885 0.58932 0.76258 0.0
C458 C 0.02011 0.47569 0.75595 0.0
N459 N 0.01874 0.49213 0.77222 0.0
N460 N 0.03976 0.51118 0.77379 0.0
C461 C 0.05511 0.50766 0.75793 0.0
C462 C 0.04334 0.48489 0.74623 0.0
C463 C 1.00036 0.45062 0.75352 0.0
H464 H 0.99176 0.44433 0.7747 0.0
H465 H 0.98685 0.4499 0.73841 0.0
H466 H 1.00665 0.43861 0.74588 0.0
O467 O 1.00391 0.4902 0.83717 0.0
O468 O 0.04041 0.52075 0.84142 0.0
H469 H 0.09003 0.52795 0.77529 0.0
H470 H 0.08939 0.52057 0.73774 0.0
C471 C 0.08078 0.52566 0.75455 0.0
H472 H 0.08256 0.54284 0.74832 0.0
H473 H 0.09469 0.55365 0.82953 0.0
O474 O 0.96452 0.46063 0.79142 0.0
C475 C 0.02232 0.5029 0.85218 0.0
Co476 Co 0.53736 0.50917 0.79571 0.0
Co477 Co 0.49341 0.51547 0.80149 0.0
C478 C 0.48855 0.46691 0.79546 0.0
O479 O 0.51077 0.47607 0.79202 0.0
O480 O 0.47942 0.48005 0.79905 0.0
C481 C 0.56828 0.4921 0.80377 0.0
O482 O 0.55024 0.4771 0.81942 0.0
C483 C 0.44963 0.51067 0.78041 0.0
C484 C 0.44623 0.53834 0.80369 0.0
C485 C 0.43552 0.52091 0.78296 0.0
N486 N 0.46775 0.5214 0.79881 0.0
N487 N 0.46555 0.53776 0.81297 0.0
C488 C 0.44781 0.49311 0.75842 0.0
H489 H 0.46556 0.4954 0.75393 0.0
H490 H 0.43998 0.49511 0.73821 0.0
H491 H 0.43629 0.47495 0.76681 0.0
C492 C 0.55209 0.54917 0.75457 0.0
N493 N 0.53566 0.53155 0.77099 0.0
N494 N 0.51676 0.53382 0.77275 0.0
C495 C 0.52042 0.55277 0.75694 0.0
C496 C 0.54309 0.56345 0.74502 0.0
C497 C 0.57703 0.55408 0.75184 0.0
H498 H 0.58357 0.55217 0.77308 0.0
H499 H 0.57734 0.54082 0.73722 0.0
H500 H 0.58906 0.57211 0.74346 0.0
O501 O 0.53811 0.51881 0.83602 0.0
O502 O 0.50772 0.52506 0.84039 0.0
H503 H 0.50139 0.56861 0.77469 0.0
H504 H 0.50778 0.57442 0.73685 0.0
C505 C 0.50279 0.56099 0.75403 0.0
H506 H 0.48522 0.54576 0.7487 0.0
H507 H 0.47761 0.54901 0.82825 0.0
O508 O 0.56671 0.50809 0.78995 0.0
C509 C 0.52559 0.52472 0.85106 0.0
Co510 Co 0.7055 0.84546 0.54756 0.0
Co511 Co 0.65492 0.83807 0.54101 0.0
C512 C 0.69855 0.88716 0.54757 0.0
O513 O 0.71194 0.87842 0.55166 0.0
O514 O 0.67641 0.87363 0.54345 0.0
C515 C 0.7534 0.862 0.53894 0.0
O516 O 0.75064 0.87739 0.52364 0.0
C517 C 0.61513 0.83691 0.56924 0.0
C518 C 0.58617 0.8205 0.5375 0.0
C519 C 0.59133 0.82932 0.56522 0.0
N520 N 0.62352 0.83231 0.54536 0.0
N521 N 0.60621 0.82257 0.52634 0.0
C522 C 0.63017 0.84935 0.59479 0.0
H523 H 0.64914 0.8593 0.58878 0.0
H524 H 0.62795 0.83614 0.61128 0.0
H525 H 0.62481 0.86158 0.60426 0.0
C526 C 0.68117 0.80618 0.58973 0.0
N527 N 0.68173 0.82306 0.57237 0.0
N528 N 0.66011 0.81935 0.56904 0.0
C529 C 0.64501 0.79966 0.58388 0.0
C530 C 0.65782 0.79069 0.59778 0.0
C531 C 0.70245 0.80411 0.59681 0.0
H532 H 0.71784 0.82194 0.60095 0.0
H533 H 0.69922 0.79265 0.61583 0.0
H534 H 0.70681 0.79641 0.57819 0.0
O535 O 0.69624 0.83604 0.50703 0.0
O536 O 0.65928 0.82874 0.502 0.0
H537 H 0.61049 0.76803 0.58549 0.0
H538 H 0.61129 0.7949 0.59614 0.0
C539 C 0.61861 0.78722 0.58083 0.0
H540 H 0.61369 0.7894 0.55877 0.0
H541 H 0.60801 0.81721 0.50589 0.0
O542 O 0.73578 0.84609 0.55265 0.0
C543 C 0.67788 0.82979 0.49163 0.0
Co544 Co 0.18075 0.86098 0.54755 0.0
Co545 Co 0.18922 0.81852 0.54047 0.0
C546 C 0.13974 0.8121 0.54736 0.0
O547 O 0.14792 0.83402 0.5523 0.0
O548 O 0.15371 0.80412 0.54244 0.0
C549 C 0.16356 0.89214 0.54021 0.0
O550 O 0.14808 0.87422 0.52476 0.0
C551 C 0.18906 0.77807 0.56567 0.0
C552 C 0.20887 0.76887 0.53478 0.0
C553 C 0.19754 0.7627 0.56107 0.0
N554 N 0.19547 0.79308 0.54349 0.0
N555 N 0.20718 0.78745 0.52491 0.0
C556 C 0.17465 0.77826 0.59054 0.0
H557 H 0.16937 0.79188 0.5876 0.0
H558 H 0.18501 0.78207 0.61064 0.0
H559 H 0.15867 0.76052 0.59287 0.0
C560 C 0.22126 0.87692 0.58817 0.0
N561 N 0.20392 0.86015 0.57172 0.0
N562 N 0.20749 0.84211 0.56895 0.0
C563 C 0.22727 0.84681 0.58372 0.0
C564 C 0.23685 0.86914 0.59641 0.0
C565 C 0.2246 0.90121 0.59201 0.0
H566 H 0.20935 0.8999 0.60412 0.0
H567 H 0.24128 0.91323 0.60341 0.0
H568 H 0.22479 0.90886 0.57069 0.0
O569 O 0.18982 0.86162 0.50673 0.0
O570 O 0.19862 0.83294 0.5019 0.0
H571 H 0.25392 0.83792 0.59721 0.0
H572 H 0.22446 0.81376 0.59487 0.0
C573 C 0.23736 0.83059 0.58459 0.0
H574 H 0.24058 0.8267 0.56244 0.0
H575 H 0.2142 0.79641 0.50569 0.0
O576 O 0.17959 0.89026 0.55347 0.0
C577 C 0.1968 0.85006 0.49146 0.0
Co578 Co 0.16422 0.32543 0.54579 0.0
Co579 Co 0.20855 0.37546 0.54156 0.0
C580 C 0.21274 0.33134 0.54793 0.0
O581 O 0.19043 0.31844 0.55056 0.0
O582 O 0.22213 0.35365 0.54469 0.0
C583 C 0.13281 0.27754 0.53715 0.0
O584 O 0.15091 0.28017 0.52191 0.0
C585 C 0.24961 0.41441 0.56755 0.0
C586 C 0.25789 0.44487 0.53946 0.0
C587 C 0.26465 0.43846 0.56452 0.0
N588 N 0.2344 0.40679 0.5455 0.0
N589 N 0.23959 0.42498 0.52848 0.0
C590 C 0.24905 0.39896 0.59164 0.0
H591 H 0.23242 0.38161 0.59118 0.0
H592 H 0.2507 0.4077 0.61258 0.0
H593 H 0.26436 0.39603 0.58952 0.0
C594 C 0.14864 0.35032 0.58628 0.0
N595 N 0.16546 0.34929 0.57044 0.0
N596 N 0.18435 0.37045 0.56916 0.0
C597 C 0.18022 0.38562 0.58458 0.0
C598 C 0.15733 0.37349 0.59588 0.0
C599 C 0.12372 0.33022 0.58841 0.0
H600 H 0.11731 0.32255 0.56682 0.0
H601 H 0.12341 0.31614 0.60212 0.0
H602 H 0.1116 0.33586 0.59745 0.0
O603 O 0.16468 0.33487 0.50541 0.0
O604 O 0.19533 0.3714 0.50209 0.0
H605 H 0.20217 0.42004 0.5665 0.0
H606 H 0.19123 0.42058 0.60204 0.0
C607 C 0.19775 0.41144 0.58787 0.0
H608 H 0.21412 0.41346 0.59763 0.0
H609 H 0.23021 0.42396 0.50989 0.0
O610 O 0.13454 0.29524 0.55071 0.0
C611 C 0.17769 0.35342 0.4908 0.0
C612 C 0.22691 0.1734 0.91022 0.0
C613 C 0.24268 0.16613 0.91985 0.0
C614 C 0.21332 0.17772 0.92985 0.0
C615 C 0.19341 0.16926 0.00583 0.0
H616 H 0.1971 0.22998 0.99495 0.0
C617 C 0.1822 0.22275 0.09722 0.0
C618 C 0.17225 0.23684 0.09031 0.0
C619 C 0.1858 0.20988 0.07578 0.0
C620 C 0.19543 0.21275 0.99811 0.0
H621 H 0.25477 0.15516 0.95703 0.0
H622 H 0.23174 0.1634 0.99135 0.0
H623 H 0.21194 0.21468 0.95793 0.0
H624 H 0.15625 0.2471 0.0567 0.0
H625 H 0.16209 0.22436 0.01931 0.0
H626 H 0.17752 0.1678 0.04653 0.0
C627 C 0.22989 0.16595 0.96876 0.0
C628 C 0.20394 0.20395 0.97682 0.0
C629 C 0.24345 0.16166 0.94915 0.0
C630 C 0.16442 0.23667 0.06227 0.0
C631 C 0.16783 0.22373 0.04092 0.0
C632 C 0.18486 0.17808 0.02719 0.0
C633 C 0.21514 0.17462 0.95941 0.0
C634 C 0.20341 0.18232 0.98062 0.0
C635 C 0.17924 0.21079 0.04723 0.0
C636 C 0.18613 0.20011 0.02373 0.0
H637 H 0.22578 0.17665 0.88765 0.0
H638 H 0.2018 0.18401 0.92195 0.0
H639 H 0.19251 0.15239 0.00922 0.0
H640 H 0.18822 0.22261 0.11884 0.0
H641 H 0.19476 0.20019 0.08131 0.0
C642 C 0.79395 0.93472 0.06135 0.0
C643 C 0.79362 0.94272 0.08913 0.0
C644 C 0.80719 0.95074 0.03987 0.0
C645 C 0.8535 0.01293 0.02551 0.0
H646 H 0.81764 1.00324 0.95549 0.0
C647 C 0.87033 0.08746 0.94662 0.0
C648 C 0.86579 0.08214 0.91736 0.0
C649 C 0.86626 0.06974 0.96632 0.0
C650 C 0.82818 1.006 0.97459 0.0
H651 H 0.8079 0.97323 0.11706 0.0
H652 H 0.83083 1.0016 0.07926 0.0
H653 H 0.80177 0.97346 0.99289 0.0
H654 H 0.85552 0.05474 0.88528 0.0
H655 H 0.84854 0.02358 0.91977 0.0
H656 H 0.87956 0.04597 0.00736 0.0
C657 C 0.82102 0.98292 0.07406 0.0
C658 C 0.81905 0.9889 0.9961 0.0
C659 C 0.80785 0.96679 0.09565 0.0
C660 C 0.85882 0.05917 0.90782 0.0
C661 C 0.85471 0.04137 0.92755 0.0
C662 C 0.86266 0.03008 1.00391 0.0
C663 C 0.82029 0.9751 0.04575 0.0
C664 C 0.83139 0.99234 0.02201 0.0
C665 C 0.85774 0.04634 0.9571 0.0
C666 C 0.84986 0.02698 0.97844 0.0
H667 H 0.78369 0.91607 0.05612 0.0
H668 H 0.80675 0.94409 0.01847 0.0
H669 H 0.86357 0.01593 0.04508 0.0
H670 H 0.8766 0.10525 0.9544 0.0
H671 H 0.86874 0.07418 0.9889 0.0
C672 C 0.06133 0.84695 0.09568 0.0
C673 C 0.08539 0.85674 0.08915 0.0
C674 C 0.04512 0.84377 0.07403 0.0
C675 C 0.03904 0.83501 0.99622 0.0
H676 H 0.98176 0.8383 0.00687 0.0
C677 C 0.96856 0.80351 0.90794 0.0
C678 C 0.9456 0.78765 0.91757 0.0
C679 C 0.98638 0.81733 0.92756 0.0
C680 C 0.9977 0.83732 1.00359 0.0
H681 H 0.11196 0.87321 0.05604 0.0
H682 H 0.08383 0.86788 0.01828 0.0
H683 H 1.01189 0.85285 0.04454 0.0
H684 H 0.92255 0.7757 0.95466 0.0
H685 H 0.95367 0.79912 0.98898 0.0
H686 H 0.02467 0.81881 0.95583 0.0
C687 C 0.07723 0.86187 0.03974 0.0
C688 C 1.01491 0.84561 0.02516 0.0
C689 C 0.09332 0.86485 0.06129 0.0
C690 C 0.94033 0.78709 0.94681 0.0
C691 C 0.95808 0.80088 0.9664 0.0
C692 C 0.02189 0.82676 0.97473 0.0
C693 C 0.05287 0.8506 0.04565 0.0
C694 C 0.03558 0.84416 0.02189 0.0
C695 C 0.98145 0.81566 0.9571 0.0
C696 C 1.00083 0.82739 0.97838 0.0
H697 H 0.05493 0.84071 0.11715 0.0
H698 H 0.02646 0.83492 0.07926 0.0
H699 H 0.05455 0.83323 0.99319 0.0
H700 H 0.97295 0.80448 0.88541 0.0
H701 H 1.00415 0.82887 0.9197 0.0
C702 C 0.78705 0.70935 0.93889 0.0
C703 C 0.80967 0.71406 0.94754 0.0
C704 C 0.77552 0.71965 0.95334 0.0
C705 C 0.77312 0.74598 0.02246 0.0
H706 H 0.74587 0.77705 0.97859 0.0
C707 C 0.73964 0.8033 0.07842 0.0
C708 C 0.72134 0.80572 0.06588 0.0
C709 C 0.74952 0.79134 0.06414 0.0
C710 C 0.75292 0.76811 0.99135 0.0
H711 H 0.83784 0.73309 0.97818 0.0
H712 H 0.81749 0.7506 1.00393 0.0
H713 H 0.7642 0.75738 0.9538 0.0
H714 H 0.6983 0.79644 0.02898 0.0
H715 H 0.71459 0.77455 1.00455 0.0
H716 H 0.76139 0.75593 0.05998 0.0
C717 C 0.80867 0.73901 0.98592 0.0
C718 C 0.7636 0.75689 0.977 0.0
C719 C 0.82036 0.72905 0.97116 0.0
C720 C 0.71253 0.79505 0.03911 0.0
C721 C 0.72214 0.78272 0.02496 0.0
C722 C 0.7621 0.75682 0.03682 0.0
C723 C 0.78616 0.73462 0.97708 0.0
C724 C 0.77404 0.74586 0.99235 0.0
C725 C 0.74103 0.78085 0.03707 0.0
C726 C 0.752 0.76834 0.02157 0.0
H727 H 0.77849 0.6981 0.92056 0.0
H728 H 0.75817 0.7158 0.94602 0.0
H729 H 0.7807 0.73738 0.03498 0.0
H730 H 0.7465 0.81087 0.09931 0.0
H731 H 0.76416 0.79076 0.07429 0.0
C732 C 0.31937 0.0835 0.93943 0.0
C733 C 0.31509 0.10162 0.94841 0.0
C734 C 0.30893 0.06163 0.95378 0.0
C735 C 0.28305 0.03291 0.023 0.0
H736 H 0.25059 0.97493 0.97892 0.0
C737 C 0.22521 0.94222 0.07882 0.0
C738 C 0.2223 0.92144 0.06598 0.0
C739 C 0.23728 0.96408 0.06462 0.0
C740 C 0.25992 0.99081 0.99172 0.0
H741 H 0.2967 0.1111 0.97956 0.0
H742 H 0.27896 0.07318 1.00516 0.0
H743 H 0.27055 0.01297 0.95429 0.0
H744 H 0.23078 0.90755 0.0286 0.0
H745 H 0.25285 0.94572 1.00428 0.0
H746 H 0.2732 0.01105 0.06039 0.0
C747 C 0.29031 0.07581 0.98696 0.0
C748 C 0.2713 0.01273 0.97747 0.0
C749 C 0.30041 0.0975 0.97228 0.0
C750 C 0.23255 0.92322 0.03897 0.0
C751 C 0.24499 0.94517 0.02488 0.0
C752 C 0.27204 0.01101 0.03726 0.0
C753 C 0.29425 0.05749 0.97777 0.0
C754 C 0.28283 0.03409 0.99292 0.0
C755 C 0.24738 0.96601 0.03732 0.0
C756 C 0.26003 0.98951 0.02192 0.0
H757 H 0.33038 0.08607 0.92089 0.0
H758 H 0.31244 0.04798 0.9462 0.0
H759 H 0.29203 0.04899 0.03558 0.0
H760 H 0.21797 0.94157 0.09991 0.0
H761 H 0.23826 0.97937 0.07502 0.0
C762 C 0.942 0.24067 0.93989 0.0
C763 C 0.92472 0.21765 0.94798 0.0
C764 C 0.96388 0.25247 0.95423 0.0
C765 C 0.99371 0.25401 0.0224 0.0
H766 H 0.05152 0.28403 0.97781 0.0
C767 C 0.08529 0.28795 0.07644 0.0
C768 C 0.10551 0.30727 0.06455 0.0
C769 C 0.06335 0.2779 0.06236 0.0
C770 C 0.03566 0.27617 0.99078 0.0
H771 H 0.91671 0.18907 0.9776 0.0
H772 H 0.95461 0.20984 1.00312 0.0
H773 H 1.0133 0.26554 0.95351 0.0
H774 H 0.11827 0.33169 0.02887 0.0
H775 H 0.07989 0.31501 1.00484 0.0
H776 H 1.01575 0.26502 0.05969 0.0
C777 C 0.95134 0.21879 0.98566 0.0
C778 C 1.01364 0.26543 0.97672 0.0
C779 C 0.92965 0.20686 0.97101 0.0
C780 C 0.10305 0.31674 0.03855 0.0
C781 C 0.081 0.30692 0.0246 0.0
C782 C 1.01569 0.26506 0.0365 0.0
C783 C 0.96887 0.24168 0.9773 0.0
C784 C 0.99235 0.25399 0.99232 0.0
C785 C 0.06074 0.28716 0.03614 0.0
C786 C 0.03712 0.27614 0.02097 0.0
H787 H 0.93883 0.24932 0.92199 0.0
H788 H 0.9769 0.27011 0.9473 0.0
H789 H 0.97769 0.24566 0.03514 0.0
H790 H 0.08643 0.28049 0.09673 0.0
H791 H 0.04853 0.26257 0.07199 0.0
C792 C 0.89162 0.50583 0.2513 0.0
C793 C 0.90628 0.49635 0.25744 0.0
C794 C 0.87852 0.50857 0.27316 0.0
C795 C 0.88115 0.51658 0.35115 0.0
H796 H 0.82076 0.51362 0.34005 0.0
C797 C 0.84203 0.54905 0.4384 0.0
C798 C 0.83555 0.56526 0.42817 0.0
C799 C 0.846 0.53493 0.4192 0.0
C800 C 0.83761 0.51445 0.34347 0.0
H801 H 0.91692 0.47993 0.29016 0.0
H802 H 0.894 0.48452 0.32829 0.0
H803 H 0.8363 0.49893 0.30257 0.0
H804 H 0.82568 0.57777 0.39045 0.0
H805 H 0.83312 0.55367 0.3569 0.0
H806 H 0.8829 0.53278 0.39154 0.0
C807 C 0.8932 0.49065 0.30695 0.0
C808 C 0.84652 0.50611 0.32201 0.0
C809 C 0.90639 0.48809 0.28518 0.0
C810 C 0.83149 0.56599 0.39875 0.0
C811 C 0.83533 0.55186 0.3796 0.0
C812 C 0.87223 0.52486 0.37258 0.0
C813 C 0.87969 0.50158 0.3014 0.0
C814 C 0.86865 0.50759 0.32535 0.0
C815 C 0.84322 0.53662 0.38952 0.0
C816 C 0.85066 0.52443 0.36869 0.0
H817 H 0.89119 0.51217 0.22996 0.0
H818 H 0.86843 0.51721 0.26818 0.0
H819 H 0.89843 0.51834 0.35427 0.0
H820 H 0.84497 0.54801 0.46109 0.0
H821 H 0.85177 0.5231 0.42748 0.0
C822 C 0.51918 0.39293 0.25012 0.0
C823 C 0.52869 0.41693 0.25692 0.0
C824 C 0.51563 0.37654 0.27165 0.0
C825 C 0.50538 0.36944 0.34921 0.0
H826 H 0.50926 0.31253 0.33801 0.0
C827 C 0.47336 0.29768 0.43612 0.0
C828 C 0.45778 0.2748 0.426 0.0
C829 C 0.48713 0.31586 0.4169 0.0
C830 C 0.50811 0.32836 0.34143 0.0
H831 H 0.54431 0.44314 0.29061 0.0
H832 H 0.53826 0.41466 0.32818 0.0
H833 H 0.52439 0.34321 0.30105 0.0
H834 H 0.4462 0.25231 0.38838 0.0
H835 H 0.4696 0.28404 0.35475 0.0
H836 H 0.48849 0.35441 0.38909 0.0
C837 C 0.53274 0.40829 0.30653 0.0
C838 C 0.51673 0.34589 0.32027 0.0
C839 C 0.53612 0.42458 0.28507 0.0
C840 C 0.45738 0.27 0.39663 0.0
C841 C 0.47115 0.28811 0.37743 0.0
C842 C 0.49681 0.35197 0.37032 0.0
C843 C 0.5218 0.384 0.30024 0.0
C844 C 0.51505 0.36642 0.32372 0.0
C845 C 0.48572 0.31136 0.38726 0.0
C846 C 0.49765 0.33104 0.36644 0.0
H847 H 0.51347 0.3867 0.22846 0.0
H848 H 0.50702 0.35794 0.26611 0.0
H849 H 0.50342 0.38483 0.35236 0.0
H850 H 0.47419 0.30173 0.45876 0.0
H851 H 0.49849 0.33354 0.42515 0.0
C852 C 0.7291 0.15985 0.42655 0.0
C853 C 0.74619 0.1832 0.43331 0.0
C854 C 0.71112 0.15534 0.40705 0.0
C855 C 0.69903 0.18185 0.34513 0.0
H856 H 0.63594 0.12774 0.35323 0.0
C857 C 0.63807 0.13239 0.24954 0.0
C858 C 0.61357 0.12159 0.25357 0.0
C859 C 0.65349 0.14444 0.27221 0.0
C860 C 0.65332 0.14319 0.35073 0.0
H861 H 0.75731 0.22017 0.42645 0.0
H862 H 0.72565 0.21227 0.39217 0.0
H863 H 0.66321 0.14001 0.39351 0.0
H864 H 0.58574 0.11626 0.28304 0.0
H865 H 0.61258 0.13769 0.32253 0.0
H866 H 0.68919 0.18478 0.30213 0.0
C867 C 0.72637 0.19749 0.40171 0.0
C868 C 0.66903 0.15004 0.37375 0.0
C869 C 0.74432 0.20199 0.42143 0.0
C870 C 0.60465 0.12424 0.27976 0.0
C871 C 0.61999 0.13641 0.30231 0.0
C872 C 0.68328 0.17498 0.32204 0.0
C873 C 0.70985 0.1741 0.39395 0.0
C874 C 0.69223 0.16906 0.37098 0.0
C875 C 0.64454 0.14595 0.29911 0.0
C876 C 0.66042 0.15525 0.3244 0.0
H877 H 0.72993 0.14506 0.43589 0.0
H878 H 0.69877 0.13713 0.40138 0.0
H879 H 0.71687 0.1965 0.3423 0.0
H880 H 0.64519 0.13043 0.22942 0.0
H881 H 0.67228 0.15142 0.2691 0.0
C882 C 0.47491 0.06879 0.26446 0.0
C883 C 0.47672 0.05 0.27663 0.0
C884 C 0.46319 0.07883 0.2789 0.0
C885 C 0.41825 0.06758 0.33426 0.0
H886 H 0.44977 0.13598 0.33939 0.0
C887 C 0.38032 0.11523 0.40401 0.0
C888 C 0.38469 0.13776 0.39557 0.0
C889 C 0.39089 0.10401 0.38943 0.0
C890 C 0.44036 0.11687 0.33782 0.0
H891 H 0.46667 0.02637 0.31304 0.0
H892 H 0.44557 0.0435 0.33806 0.0
H893 H 0.46873 0.11729 0.31403 0.0
H894 H 0.40315 0.16597 0.36491 0.0
H895 H 0.42075 0.14622 0.33868 0.0
H896 H 0.38958 0.06703 0.35731 0.0
C897 C 0.45356 0.05069 0.31744 0.0
C898 C 0.4514 0.10612 0.32333 0.0
C899 C 0.46564 0.04087 0.30314 0.0
C900 C 0.39952 0.14863 0.37194 0.0
C901 C 0.40982 0.13731 0.35709 0.0
C902 C 0.40701 0.07833 0.34841 0.0
C903 C 0.45246 0.07005 0.30569 0.0
C904 C 0.44054 0.08134 0.32134 0.0
C905 C 0.40596 0.11489 0.36575 0.0
C906 C 0.41786 0.10321 0.35047 0.0
H907 H 0.48268 0.07582 0.2437 0.0
H908 H 0.46234 0.09341 0.26894 0.0
H909 H 0.40925 0.04845 0.33293 0.0
H910 H 0.36926 0.10657 0.42245 0.0
H911 H 0.38766 0.08703 0.3973 0.0
C912 C 0.98462 0.41717 0.27277 0.0
C913 C 0.97885 0.43454 0.28047 0.0
C914 C 0.97428 0.39525 0.28704 0.0
C915 C 0.94424 0.36539 0.35467 0.0
H916 H 0.9194 0.30755 0.31037 0.0
C917 C 0.88618 0.27362 0.40774 0.0
C918 C 0.88695 0.2538 0.39722 0.0
C919 C 0.89793 0.29548 0.39352 0.0
C920 C 0.92655 0.32345 0.32326 0.0
H921 H 0.95785 0.44257 0.3093 0.0
H922 H 0.94009 0.40457 0.33453 0.0
H923 H 0.93924 0.34577 0.28605 0.0
H924 H 0.90116 0.24168 0.36361 0.0
H925 H 0.92248 0.27996 0.33931 0.0
H926 H 0.93211 0.34335 0.39192 0.0
C927 C 0.95262 0.40783 0.31749 0.0
C928 C 0.93791 0.34546 0.3092 0.0
C929 C 0.96272 0.42958 0.30297 0.0
C930 C 0.90018 0.25657 0.37228 0.0
C931 C 0.9122 0.27855 0.35817 0.0
C932 C 0.93316 0.34343 0.36877 0.0
C933 C 0.9581 0.39024 0.30961 0.0
C934 C 0.94673 0.36675 0.32467 0.0
C935 C 0.91124 0.29842 0.36848 0.0
C936 C 0.92388 0.32201 0.35333 0.0
H937 H 0.99673 0.42031 0.25526 0.0
H938 H 0.97904 0.38223 0.28047 0.0
H939 H 0.95112 0.38139 0.36736 0.0
H940 H 0.87652 0.27228 0.42717 0.0
H941 H 0.89629 0.31001 0.40211 0.0
C942 C 0.77006 0.649 0.37181 0.0
C943 C 0.77186 0.64044 0.39883 0.0
C944 C 0.74813 0.63932 0.35756 0.0
C945 C 0.69026 0.5845 0.35285 0.0
H946 H 0.66785 0.62345 0.31733 0.0
C947 C 0.5959 0.54175 0.30424 0.0
C948 C 0.59182 0.5524 0.28042 0.0
C949 C 0.61756 0.5532 0.319 0.0
C950 C 0.67387 0.61218 0.32666 0.0
H951 H 0.75174 0.61585 0.43269 0.0
H952 H 0.71377 0.59842 0.40753 0.0
H953 H 0.70617 0.64214 0.34158 0.0
H954 H 0.6074 0.58332 0.2531 0.0
H955 H 0.64544 0.60304 0.27802 0.0
H956 H 0.65868 0.55456 0.33729 0.0
C957 C 0.72931 0.61247 0.39717 0.0
C958 C 0.69591 0.62299 0.34073 0.0
C959 C 0.7511 0.62242 0.41157 0.0
C960 C 0.6099 0.57483 0.27168 0.0
C961 C 0.63175 0.58616 0.28614 0.0
C962 C 0.66846 0.57369 0.33839 0.0
C963 C 0.72752 0.62063 0.36986 0.0
C964 C 0.70431 0.60929 0.35423 0.0
C965 C 0.63606 0.5755 0.31003 0.0
C966 C 0.6597 0.58728 0.3252 0.0
H967 H 0.78571 0.6629 0.36146 0.0
H968 H 0.74742 0.64601 0.33654 0.0
H969 H 0.69632 0.57338 0.36261 0.0
H970 H 0.58225 0.52448 0.3115 0.0
H971 H 0.61965 0.54446 0.33758 0.0
C972 C 0.55877 0.83772 0.57635 0.0
C973 C 0.57485 0.83074 0.58569 0.0
C974 C 0.54495 0.8415 0.59618 0.0
C975 C 0.52531 0.83233 0.67239 0.0
H976 H 0.52771 0.8925 0.66212 0.0
C977 C 0.51391 0.88525 0.76443 0.0
C978 C 0.50352 0.899 0.75778 0.0
C979 C 0.5175 0.87245 0.74288 0.0
C980 C 0.52641 0.87541 0.66512 0.0
H981 H 0.58716 0.81963 0.62254 0.0
H982 H 0.56378 0.82702 0.65723 0.0
H983 H 0.54274 0.87774 0.62471 0.0
H984 H 0.48646 0.9084 0.72455 0.0
H985 H 0.49247 0.88596 0.68698 0.0
H986 H 0.50965 0.83052 0.71337 0.0
C987 C 0.56186 0.82974 0.6347 0.0
C988 C 0.53502 0.86692 0.64359 0.0
C989 C 0.57563 0.82596 0.61489 0.0
C990 C 0.4952 0.89847 0.72991 0.0
C991 C 0.49861 0.88561 0.70847 0.0
C992 C 0.51668 0.84086 0.69401 0.0
C993 C 0.54684 0.83818 0.62568 0.0
C994 C 0.53496 0.84549 0.64716 0.0
C995 C 0.51051 0.8731 0.71447 0.0
C996 C 0.51748 0.86268 0.69075 0.0
H997 H 0.5576 0.84118 0.55387 0.0
H998 H 0.5332 0.84759 0.58851 0.0
H999 H 0.52477 0.8156 0.67562 0.0
H1000 H 0.52034 0.88539 0.7859 0.0
H1001 H 0.52683 0.86308 0.74817 0.0
C1002 C 0.14253 0.61441 0.75025 0.0
C1003 C 0.12131 0.61214 0.7608 0.0
C1004 C 0.15476 0.6304 0.72811 0.0
C1005 C 0.1426 0.65777 0.66747 0.0
H1006 H 0.20969 0.70382 0.66681 0.0
C1007 C 0.18395 0.72046 0.57228 0.0
C1008 C 0.19565 0.74424 0.58076 0.0
C1009 C 0.17882 0.70269 0.5925 0.0
C1010 C 0.19098 0.69086 0.66664 0.0
H1011 H 0.09764 0.62646 0.7589 0.0
H1012 H 0.11868 0.65398 0.71998 0.0
H1013 H 0.19262 0.67668 0.7076 0.0
H1014 H 0.21326 0.76855 0.61579 0.0
H1015 H 0.20422 0.7376 0.6512 0.0
H1016 H 0.14062 0.67219 0.62712 0.0
C1017 C 0.12552 0.64302 0.72822 0.0
C1018 C 0.18127 0.67536 0.68987 0.0
C1019 C 0.11347 0.62726 0.75041 0.0
C1020 C 0.20378 0.75021 0.60903 0.0
C1021 C 0.19886 0.73252 0.62915 0.0
C1022 C 0.1523 0.67302 0.64419 0.0
C1023 C 0.14586 0.64424 0.71631 0.0
C1024 C 0.15688 0.65914 0.69078 0.0
C1025 C 0.18562 0.70857 0.62132 0.0
C1026 C 0.17647 0.69009 0.64383 0.0
H1027 H 0.149 0.60303 0.75808 0.0
H1028 H 0.17051 0.63115 0.71936 0.0
H1029 H 0.12378 0.64517 0.66752 0.0
H1030 H 0.17767 0.71558 0.55048 0.0
H1031 H 0.16877 0.68434 0.58587 0.0
C1032 C 0.39781 0.49284 0.7585 0.0
C1033 C 0.415 0.5162 0.76504 0.0
C1034 C 0.37983 0.48828 0.73896 0.0
C1035 C 0.3679 0.51433 0.67653 0.0
H1036 H 0.30438 0.4611 0.68559 0.0
C1037 C 0.30585 0.46426 0.58194 0.0
C1038 C 0.28146 0.45438 0.58603 0.0
C1039 C 0.32153 0.47631 0.60439 0.0
C1040 C 0.32189 0.47629 0.68282 0.0
H1041 H 0.42635 0.55316 0.75767 0.0
H1042 H 0.39474 0.54519 0.72327 0.0
H1043 H 0.33188 0.47343 0.72568 0.0
H1044 H 0.25408 0.45035 0.61547 0.0
H1045 H 0.28141 0.47176 0.65462 0.0
H1046 H 0.35797 0.51689 0.63344 0.0
C1047 C 0.39535 0.53043 0.73306 0.0
C1048 C 0.33772 0.48318 0.70573 0.0
C1049 C 0.41328 0.53498 0.75284 0.0
C1050 C 0.27292 0.45779 0.61209 0.0
C1051 C 0.28853 0.4699 0.63445 0.0
C1052 C 0.35204 0.50739 0.65354 0.0
C1053 C 0.37869 0.50702 0.72557 0.0
C1054 C 0.36104 0.50191 0.70263 0.0
C1055 C 0.31295 0.47865 0.63117 0.0
C1056 C 0.32902 0.48798 0.65627 0.0
H1057 H 0.39855 0.47807 0.76805 0.0
H1058 H 0.36737 0.47005 0.7335 0.0
H1059 H 0.38582 0.52873 0.67346 0.0
H1060 H 0.31266 0.46165 0.56194 0.0
H1061 H 0.34021 0.48264 0.60125 0.0
C1062 C 0.04292 0.45823 0.70646 0.0
C1063 C 0.05392 0.47219 0.73081 0.0
C1064 C 0.05307 0.44652 0.692 0.0
C1065 C 0.1101 0.45029 0.67741 0.0
H1066 H 0.07411 0.3834 0.65899 0.0
C1067 C 0.14462 0.40417 0.60033 0.0
C1068 C 0.14409 0.38367 0.61089 0.0
C1069 C 0.13308 0.41436 0.61488 0.0
C1070 C 0.08438 0.40209 0.664 0.0
H1071 H 0.08381 0.48384 0.75963 0.0
H1072 H 0.10205 0.46449 0.73365 0.0
H1073 H 0.05489 0.40237 0.68429 0.0
H1074 H 0.13008 0.3573 0.64452 0.0
H1075 H 0.10906 0.3746 0.66942 0.0
H1076 H 0.13944 0.4502 0.65663 0.0
C1077 C 0.08558 0.46263 0.72571 0.0
C1078 C 0.07334 0.41298 0.67832 0.0
C1079 C 0.07518 0.47387 0.74048 0.0
C1080 C 0.13087 0.37309 0.63582 0.0
C1081 C 0.11886 0.383 0.65009 0.0
C1082 C 0.12097 0.43955 0.66253 0.0
C1083 C 0.07469 0.44882 0.70126 0.0
C1084 C 0.08612 0.4372 0.68538 0.0
C1085 C 0.1201 0.40397 0.64001 0.0
C1086 C 0.10831 0.41528 0.65576 0.0
H1087 H 0.02658 0.45659 0.69837 0.0
H1088 H 0.04427 0.43609 0.67318 0.0
H1089 H 0.12042 0.46899 0.6824 0.0
H1090 H 0.15402 0.4124 0.58072 0.0
H1091 H 0.13411 0.43029 0.6063 0.0
C1092 C 0.65377 0.75051 0.60613 0.0
C1093 C 0.64806 0.7679 0.61394 0.0
C1094 C 0.64341 0.72857 0.62034 0.0
C1095 C 0.61342 0.69858 0.68793 0.0
H1096 H 0.58854 0.64086 0.6434 0.0
C1097 C 0.55531 0.60665 0.74063 0.0
C1098 C 0.55602 0.58685 0.72996 0.0
C1099 C 0.56712 0.62857 0.72654 0.0
C1100 C 0.5957 0.65672 0.65635 0.0
H1101 H 0.62715 0.77595 0.6429 0.0
H1102 H 0.60935 0.73789 0.66803 0.0
H1103 H 0.60836 0.67913 0.61922 0.0
H1104 H 0.57022 0.5748 0.69625 0.0
H1105 H 0.59163 0.61317 0.67216 0.0
H1106 H 0.60133 0.67645 0.7251 0.0
C1107 C 0.62185 0.74115 0.65095 0.0
C1108 C 0.60704 0.67877 0.64237 0.0
C1109 C 0.63197 0.76294 0.63649 0.0
C1110 C 0.56927 0.58969 0.70503 0.0
C1111 C 0.58135 0.61172 0.69103 0.0
C1112 C 0.60236 0.67658 0.70195 0.0
C1113 C 0.62727 0.72355 0.64295 0.0
C1114 C 0.61589 0.70002 0.65793 0.0
C1115 C 0.58042 0.63157 0.70148 0.0
C1116 C 0.59306 0.6552 0.68642 0.0
H1117 H 0.66586 0.75367 0.58859 0.0
H1118 H 0.64814 0.71555 0.61369 0.0
H1119 H 0.62032 0.71455 0.70069 0.0
H1120 H 0.54564 0.60526 0.76008 0.0
H1121 H 0.5655 0.64308 0.73523 0.0
C1122 C 0.26206 0.89407 0.63775 0.0
C1123 C 0.26021 0.88289 0.61137 0.0
C1124 C 0.28394 0.90646 0.65204 0.0
C1125 C 0.34973 0.93062 0.64145 0.0
H1126 H 0.35029 0.93334 0.72432 0.0
C1127 C 0.43865 0.98074 0.70411 0.0
C1128 C 0.44013 0.97246 0.7314 0.0
C1129 C 0.41681 0.97143 0.68978 0.0
C1130 C 0.35069 0.93255 0.70119 0.0
H1131 H 0.28021 0.87688 0.57877 0.0
H1132 H 0.31771 0.8968 0.6042 0.0
H1133 H 0.31289 0.91357 0.69912 0.0
H1134 H 0.41954 0.94861 0.76558 0.0
H1135 H 0.38199 0.93121 0.7402 0.0
H1136 H 0.38749 0.94817 0.64358 0.0
C1137 C 0.30261 0.89672 0.61388 0.0
C1138 C 0.32895 0.92149 0.68652 0.0
C1139 C 0.28087 0.88481 0.5994 0.0
C1140 C 0.41914 0.95499 0.74426 0.0
C1141 C 0.3974 0.9453 0.72977 0.0
C1142 C 0.37145 0.94123 0.65613 0.0
C1143 C 0.30462 0.90778 0.64056 0.0
C1144 C 0.32801 0.92023 0.65634 0.0
C1145 C 0.39576 0.95325 0.70215 0.0
C1146 C 0.3724 0.94238 0.68632 0.0
H1147 H 0.24651 0.89307 0.64749 0.0
H1148 H 0.28452 0.91508 0.67207 0.0
H1149 H 0.35015 0.93067 0.61827 0.0
H1150 H 0.45448 0.99433 0.6937 0.0
H1151 H 0.41655 0.97864 0.66898 0.0
C1152 C 0.15863 0.33153 0.44563 0.0
C1153 C 0.17311 0.35315 0.45965 0.0
C1154 C 0.15582 0.33069 0.41592 0.0
C1155 C 0.18506 0.36545 0.35053 0.0
H1156 H 0.1275 0.31766 0.31376 0.0
C1157 C 0.17202 0.36185 0.22829 0.0
C1158 C 0.16567 0.33993 0.21547 0.0
C1159 C 0.17075 0.36371 0.25795 0.0
C1160 C 0.14368 0.33103 0.3238 0.0
H1161 H 0.19518 0.391 0.45353 0.0
H1162 H 0.18956 0.38971 0.40172 0.0
H1163 H 0.12898 0.32146 0.3659 0.0
H1164 H 0.15201 0.30258 0.22376 0.0
H1165 H 0.14939 0.30584 0.27578 0.0
H1166 H 0.19952 0.37522 0.30827 0.0
C1167 C 0.18096 0.37325 0.41359 0.0
C1168 C 0.14461 0.3332 0.35367 0.0
C1169 C 0.18405 0.37405 0.44335 0.0
C1170 C 0.15708 0.31972 0.23295 0.0
C1171 C 0.1555 0.32155 0.26268 0.0
C1172 C 0.18397 0.36352 0.32069 0.0
C1173 C 0.16714 0.35149 0.3994 0.0
C1174 C 0.16544 0.35025 0.36749 0.0
C1175 C 0.1628 0.34367 0.27547 0.0
C1176 C 0.16337 0.34615 0.30706 0.0
H1177 H 0.15005 0.31504 0.45748 0.0
H1178 H 0.1454 0.31355 0.40587 0.0
H1179 H 0.20157 0.37845 0.36026 0.0
H1180 H 0.17871 0.37781 0.21554 0.0
H1181 H 0.17627 0.38092 0.26726 0.0
C1182 C 0.65896 0.81689 0.44302 0.0
C1183 C 0.67916 0.82571 0.46059 0.0
C1184 C 0.66088 0.81534 0.41331 0.0
C1185 C 0.703 0.84427 0.35555 0.0
H1186 H 0.66065 0.78974 0.30979 0.0
C1187 C 0.71315 0.84538 0.2328 0.0
C1188 C 0.6922 0.83482 0.21657 0.0
C1189 C 0.71242 0.84194 0.26248 0.0
C1190 C 0.67248 0.80524 0.32218 0.0
H1191 H 0.7171 0.8391 0.4607 0.0
H1192 H 0.72035 0.83666 0.40899 0.0
H1193 H 0.65698 0.78783 0.36195 0.0
H1194 H 0.65406 0.81202 0.21876 0.0
H1195 H 0.6527 0.80674 0.27029 0.0
H1196 H 0.71789 0.86215 0.31613 0.0
C1197 C 0.70309 0.83097 0.41822 0.0
C1198 C 0.6704 0.80406 0.35206 0.0
C1199 C 0.70115 0.83224 0.44787 0.0
C1200 C 0.67059 0.82032 0.23056 0.0
C1201 C 0.66982 0.81715 0.26022 0.0
C1202 C 0.70486 0.84559 0.32571 0.0
C1203 C 0.68306 0.82286 0.40061 0.0
C1204 C 0.68559 0.8236 0.369 0.0
C1205 C 0.69068 0.82814 0.27667 0.0
C1206 C 0.68955 0.82614 0.30856 0.0
H1207 H 0.64176 0.81168 0.45212 0.0
H1208 H 0.64517 0.80911 0.40016 0.0
H1209 H 0.71476 0.85972 0.3681 0.0
H1210 H 0.73011 0.8565 0.22264 0.0
H1211 H 0.72893 0.85029 0.2743 0.0
C1212 C 0.18165 0.87089 0.234 0.0
C1213 C 0.19394 0.86301 0.21657 0.0
C1214 C 0.18523 0.87283 0.26371 0.0
C1215 C 0.20127 0.84616 0.32164 0.0
H1216 H 0.2101 0.89966 0.36724 0.0
C1217 C 0.21263 0.84636 0.44391 0.0
C1218 C 0.20111 0.85555 0.46051 0.0
C1219 C 0.21477 0.84991 0.41425 0.0
C1220 C 0.20739 0.88445 0.35489 0.0
H1221 H 0.22029 0.85185 0.21671 0.0
H1222 H 0.22621 0.85499 0.26835 0.0
H1223 H 0.2076 0.90111 0.31508 0.0
H1224 H 0.18328 0.87614 0.45903 0.0
H1225 H 0.18626 0.88159 0.40743 0.0
H1226 H 0.20001 0.82898 0.36107 0.0
C1227 C 0.21379 0.85959 0.25904 0.0
C1228 C 0.20605 0.88536 0.32501 0.0
C1229 C 0.21044 0.8579 0.22941 0.0
C1230 C 0.19238 0.86891 0.44691 0.0
C1231 C 0.19422 0.87216 0.41723 0.0
C1232 C 0.20227 0.8451 0.35145 0.0
C1233 C 0.20095 0.86667 0.27653 0.0
C1234 C 0.20295 0.86621 0.30813 0.0
C1235 C 0.20513 0.86241 0.40041 0.0
C1236 C 0.20528 0.86419 0.36854 0.0
H1237 H 0.16886 0.87502 0.22481 0.0
H1238 H 0.17503 0.87825 0.27676 0.0
H1239 H 0.19853 0.83099 0.30915 0.0
H1240 H 0.21974 0.83618 0.45377 0.0
H1241 H 0.22379 0.84259 0.40214 0.0
C1242 C 0.3243 0.14909 0.77712 0.0
C1243 C 0.34466 0.15765 0.79437 0.0
C1244 C 0.32582 0.14713 0.74741 0.0
C1245 C 0.36752 0.17472 0.68897 0.0
H1246 H 0.32411 0.12006 0.64411 0.0
C1247 C 0.37705 0.17445 0.56637 0.0
C1248 C 0.35604 0.16417 0.55023 0.0
C1249 C 0.37634 0.17116 0.59606 0.0
C1250 C 0.33623 0.13559 0.65625 0.0
H1251 H 0.38243 0.17013 0.79391 0.0
H1252 H 0.38498 0.16699 0.74222 0.0
H1253 H 0.32078 0.11879 0.69631 0.0
H1254 H 0.31784 0.14196 0.5526 0.0
H1255 H 0.31653 0.13695 0.60419 0.0
H1256 H 0.3824 0.19204 0.64929 0.0
C1257 C 0.36791 0.16182 0.7517 0.0
C1258 C 0.33434 0.13478 0.68615 0.0
C1259 C 0.36637 0.16349 0.78134 0.0
C1260 C 0.33439 0.15003 0.56433 0.0
C1261 C 0.33365 0.14703 0.59402 0.0
C1262 C 0.3692 0.17569 0.65913 0.0
C1263 C 0.34775 0.15399 0.73439 0.0
C1264 C 0.34995 0.15436 0.70277 0.0
C1265 C 0.35458 0.15782 0.61039 0.0
C1266 C 0.35353 0.15618 0.6423 0.0
H1267 H 0.30731 0.1444 0.78647 0.0
H1268 H 0.31001 0.14113 0.73449 0.0
H1269 H 0.37959 0.1902 0.70127 0.0
H1270 H 0.39403 0.18528 0.55611 0.0
H1271 H 0.39288 0.17931 0.6078 0.0
C1272 C 0.85007 0.20517 0.56703 0.0
C1273 C 0.86277 0.19767 0.54977 0.0
C1274 C 0.85372 0.20747 0.59672 0.0
C1275 C 0.87104 0.18222 0.65503 0.0
H1276 H 0.8774 0.23499 0.70018 0.0
C1277 C 0.8817 0.18302 0.77739 0.0
C1278 C 0.86928 0.19137 0.79372 0.0
C1279 C 0.88405 0.18666 0.74776 0.0
C1280 C 0.8754 0.21999 0.68794 0.0
H1281 H 0.88993 0.1876 0.55013 0.0
H1282 H 0.896 0.19138 0.60176 0.0
H1283 H 0.87512 0.23618 0.64796 0.0
H1284 H 0.85012 0.21064 0.79181 0.0
H1285 H 0.85349 0.21626 0.74022 0.0
H1286 H 0.87027 0.16546 0.69463 0.0
C1287 C 0.8832 0.1954 0.59234 0.0
C1288 C 0.87418 0.22075 0.65803 0.0
C1289 C 0.87976 0.19335 0.56272 0.0
C1290 C 0.8599 0.20406 0.77989 0.0
C1291 C 0.86196 0.20741 0.75023 0.0
C1292 C 0.87193 0.1813 0.68486 0.0
C1293 C 0.86992 0.20206 0.60969 0.0
C1294 C 0.87195 0.20184 0.64132 0.0
C1295 C 0.87373 0.19842 0.73367 0.0
C1296 C 0.87405 0.20012 0.70178 0.0
H1297 H 0.8369 0.2087 0.55774 0.0
H1298 H 0.84318 0.21255 0.60965 0.0
H1299 H 0.86895 0.16722 0.64268 0.0
H1300 H 0.88933 0.17337 0.78744 0.0
H1301 H 0.89373 0.17997 0.73587 0.0
C1302 C 0.8382 0.69227 0.56345 0.0
C1303 C 0.8298 0.67036 0.54961 0.0
C1304 C 0.83599 0.69337 0.59311 0.0
C1305 C 0.82757 0.65779 0.65862 0.0
H1306 H 0.82129 0.70784 0.69509 0.0
C1307 C 0.81928 0.66196 0.7808 0.0
C1308 C 0.83546 0.68367 0.79359 0.0
C1309 C 0.81586 0.66025 0.75117 0.0
C1310 C 0.8231 0.69382 0.68514 0.0
H1311 H 0.81139 0.63234 0.5559 0.0
H1312 H 0.80673 0.63417 0.60749 0.0
H1313 H 0.81923 0.70425 0.6429 0.0
H1314 H 0.85987 0.72085 0.78526 0.0
H1315 H 0.8536 0.71783 0.73336 0.0
H1316 H 0.83119 0.64726 0.70092 0.0
C1317 C 0.81575 0.6506 0.59559 0.0
C1318 C 0.82201 0.69178 0.65525 0.0
C1319 C 0.81825 0.64951 0.56595 0.0
C1320 C 0.84734 0.70386 0.77612 0.0
C1321 C 0.84369 0.70217 0.74643 0.0
C1322 C 0.82833 0.65965 0.68845 0.0
C1323 C 0.82504 0.67257 0.60967 0.0
C1324 C 0.82451 0.67388 0.64156 0.0
C1325 C 0.82831 0.68023 0.73364 0.0
C1326 C 0.82633 0.6778 0.70201 0.0
H1327 H 0.84731 0.7087 0.55154 0.0
H1328 H 0.84369 0.71063 0.6031 0.0
H1329 H 0.8301 0.64411 0.64898 0.0
H1330 H 0.80976 0.64603 0.79355 0.0
H1331 H 0.80371 0.64317 0.74189 0.0
C1332 C 0.02997 0.50039 0.11357 0.0
C1333 C 1.00811 0.49247 0.12734 0.0
C1334 C 0.03108 0.49843 0.08389 0.0
C1335 C 0.99605 0.49134 0.01816 0.0
H1336 H 0.04543 0.48379 0.98195 0.0
C1337 C 0.99995 0.48166 0.89622 0.0
C1338 C 0.02157 0.49782 0.88326 0.0
C1339 C 0.99832 0.4786 0.92588 0.0
C1340 C 0.03161 0.48596 0.99184 0.0
H1341 H 0.97016 0.47526 0.12086 0.0
H1342 H 0.97197 0.47096 0.06916 0.0
H1343 H 0.04161 0.48161 0.0341 0.0
H1344 H 0.05871 0.52258 0.89134 0.0
H1345 H 0.05586 0.51685 0.9434 0.0
H1346 H 0.98587 0.49528 0.97577 0.0
C1347 C 0.98838 0.47943 0.08117 0.0
C1348 C 0.02943 0.48482 0.02171 0.0
C1349 C 0.98729 0.48172 0.11087 0.0
C1350 C 0.04179 0.51005 0.90063 0.0
C1351 C 0.04019 0.50673 0.93039 0.0
C1352 C 0.99801 0.49211 0.98834 0.0
C1353 C 1.01034 0.48819 0.0672 0.0
C1354 C 1.01177 0.48776 0.03531 0.0
C1355 C 0.01831 0.49137 0.9433 0.0
C1356 C 1.01592 0.48964 0.9749 0.0
H1357 H 0.04639 0.50892 0.12558 0.0
H1358 H 0.04835 0.50576 0.07401 0.0
H1359 H 0.98256 0.49422 0.02772 0.0
H1360 H 0.98399 0.47189 0.88356 0.0
H1361 H 0.98129 0.46648 0.93529 0.0
C1362 C 0.54676 0.52344 0.8952 0.0
C1363 C 0.53088 0.52927 0.88207 0.0
C1364 C 0.55 0.52518 0.92485 0.0
C1365 C 0.54354 0.55249 0.99015 0.0
H1366 H 0.53434 0.49532 0.02748 0.0
C1367 C 0.52821 0.53777 0.11193 0.0
C1368 C 0.53571 0.52369 0.12631 0.0
C1369 C 0.53046 0.54059 0.08223 0.0
C1370 C 0.53749 0.51165 0.01752 0.0
H1371 H 0.50679 0.54258 0.88979 0.0
H1372 H 0.51282 0.54599 0.94177 0.0
H1373 H 0.53341 0.49698 0.97546 0.0
H1374 H 0.55254 0.50246 0.12089 0.0
H1375 H 0.55736 0.5081 0.06916 0.0
H1376 H 0.54797 0.56736 0.03209 0.0
C1377 C 0.5226 0.53993 0.92893 0.0
C1378 C 0.5368 0.51251 0.98765 0.0
C1379 C 0.51909 0.53789 0.89922 0.0
C1380 C 0.5464 0.51325 0.11042 0.0
C1381 C 0.54898 0.51636 0.0807 0.0
C1382 C 0.54459 0.55178 0.02007 0.0
C1383 C 0.53769 0.53309 0.94205 0.0
C1384 C 0.53957 0.53284 0.97369 0.0
C1385 C 0.54061 0.52968 0.06612 0.0
C1386 C 0.54128 0.53122 0.03419 0.0
H1387 H 0.55617 0.51675 0.8827 0.0
H1388 H 0.56191 0.52002 0.93441 0.0
H1389 H 0.54595 0.56846 0.97987 0.0
H1390 H 0.51975 0.54596 0.12347 0.0
H1391 H 0.52343 0.55065 0.07186 0.0
C1392 C 0.48981 0.98502 0.89979 0.0
C1393 C 0.49975 1.005 0.88179 0.0
C1394 C 0.48806 0.98753 0.92934 0.0
C1395 C 0.51763 0.03007 0.98667 0.0
H1396 H 0.46177 0.98986 0.03166 0.0
C1397 C 0.51755 0.04154 0.1091 0.0
C1398 C 0.50622 0.02071 0.12549 0.0
C1399 C 0.51446 0.04073 0.07935 0.0
C1400 C 0.47762 1.00109 0.01949 0.0
H1401 H 0.51498 0.04321 0.88074 0.0
H1402 H 0.51216 0.04747 0.93219 0.0
H1403 H 0.46048 0.98561 0.97958 0.0
H1404 H 0.48234 0.98273 0.12349 0.0
H1405 H 0.47762 0.98122 0.07188 0.0
H1406 H 0.53521 0.04491 0.02629 0.0
C1407 C 0.50576 0.02992 0.92342 0.0
C1408 C 0.4768 0.99868 0.98965 0.0
C1409 C 0.50725 0.02742 0.89391 0.0
C1410 C 0.49126 0.99917 0.11157 0.0
C1411 C 0.48841 0.99832 0.08186 0.0
C1412 C 0.51857 0.03227 0.01648 0.0
C1413 C 0.49648 1.01007 0.94147 0.0
C1414 C 0.49684 0.01308 0.97299 0.0
C1415 C 0.50021 0.01903 0.06526 0.0
C1416 C 0.49863 0.0177 0.03336 0.0
H1417 H 0.48382 0.96751 0.89115 0.0
H1418 H 0.48092 0.97194 0.94283 0.0
H1419 H 0.53344 0.0412 0.97436 0.0
H1420 H 0.52905 0.05845 0.11919 0.0
H1421 H 0.52344 0.05713 0.06738 0.0
C1422 C 0.26657 0.39598 0.13351 0.0
C1423 C 0.25267 0.37114 0.13173 0.0
C1424 C 0.29028 0.40688 0.14224 0.0
C1425 C 0.34227 0.39883 0.15137 0.0
H1426 H 0.36056 0.44773 0.209 0.0
C1427 C 0.43613 0.44444 0.20336 0.0
C1428 C 0.44689 0.46889 0.20888 0.0
C1429 C 0.41212 0.43127 0.19552 0.0
C1430 C 0.35599 0.43437 0.19264 0.0
H1431 H 0.25354 0.33847 0.13645 0.0
H1432 H 0.29515 0.35762 0.15115 0.0
H1433 H 0.32039 0.42784 0.19019 0.0
H1434 H 0.4403 0.49838 0.211 0.0
H1435 H 0.39908 0.47581 0.19697 0.0
H1436 H 0.37803 0.40574 0.15324 0.0
C1437 C 0.28751 0.36859 0.14596 0.0
C1438 C 0.33282 0.42289 0.18186 0.0
C1439 C 0.26362 0.35761 0.13749 0.0
C1440 C 0.43274 0.47958 0.20719 0.0
C1441 C 0.40887 0.4665 0.19917 0.0
C1442 C 0.36559 0.41053 0.16192 0.0
C1443 C 0.30096 0.39335 0.1492 0.0
C1444 C 0.32566 0.40509 0.16092 0.0
C1445 C 0.39818 0.44218 0.19281 0.0
C1446 C 0.37291 0.42866 0.18258 0.0
H1447 H 0.2589 0.40708 0.12927 0.0
H1448 H 0.3002 0.426 0.14399 0.0
H1449 H 0.3374 0.38528 0.13516 0.0
H1450 H 0.4464 0.43555 0.2044 0.0
H1451 H 0.40456 0.41253 0.19137 0.0
C1452 C 0.55026 0.96249 0.20767 0.0
C1453 C 0.56105 0.9873 0.20948 0.0
C1454 C 0.56333 0.9516 0.19993 0.0
C1455 C 0.61961 0.96409 0.16364 0.0
H1456 H 0.60176 0.9014 0.19176 0.0
C1457 C 0.67242 0.91474 0.13984 0.0
C1458 C 0.65888 0.89032 0.13395 0.0
C1459 C 0.66144 0.92768 0.14825 0.0
C1460 C 0.60687 0.91883 0.18348 0.0
H1461 H 0.59456 0.01999 0.20555 0.0
H1462 H 0.61753 1.00099 0.19302 0.0
H1463 H 0.5818 0.92176 0.21016 0.0
H1464 H 0.62292 0.86076 0.13127 0.0
H1465 H 0.60401 0.88319 0.14588 0.0
H1466 H 0.64505 0.9611 0.13732 0.0
C1467 C 0.59873 0.98991 0.19685 0.0
C1468 C 0.59535 0.93056 0.19402 0.0
C1469 C 0.58558 1.00085 0.2044 0.0
C1470 C 0.63404 0.87948 0.13562 0.0
C1471 C 0.62314 0.89232 0.14428 0.0
C1472 C 0.63134 0.95241 0.15332 0.0
C1473 C 0.58773 0.9651 0.19398 0.0
C1474 C 0.60126 0.95327 0.18401 0.0
C1475 C 0.63667 0.91647 0.15131 0.0
C1476 C 0.6249 0.92948 0.16282 0.0
H1477 H 0.53141 0.95137 0.21113 0.0
H1478 H 0.55396 0.93254 0.1976 0.0
H1479 H 0.62456 0.98136 0.155 0.0
H1480 H 0.69156 0.92373 0.1389 0.0
H1481 H 0.67242 0.94624 0.1535 0.0
C1482 C 0.02673 0.59097 0.20481 0.0
C1483 C 0.04039 0.58024 0.21095 0.0
C1484 C 0.03761 0.61503 0.19713 0.0
C1485 C 0.09674 0.67123 0.19572 0.0
H1486 H 0.06721 0.69002 0.13701 0.0
C1487 C 0.14865 0.76055 0.13669 0.0
C1488 C 0.13784 0.77457 0.13437 0.0
C1489 C 0.13569 0.73687 0.1455 0.0
C1490 C 0.07561 0.6851 0.15357 0.0
H1491 H 0.07644 0.58693 0.21434 0.0
H1492 H 0.09515 0.62819 0.20057 0.0
H1493 H 0.0468 0.64934 0.1549 0.0
H1494 H 0.10439 0.77397 0.1383 0.0
H1495 H 0.08165 0.7324 0.1531 0.0
H1496 H 0.1258 0.70681 0.19377 0.0
C1497 C 0.07605 0.61836 0.20218 0.0
C1498 C 0.06384 0.66174 0.16401 0.0
C1499 C 0.06522 0.59446 0.21005 0.0
C1500 C 0.11335 0.76378 0.13975 0.0
C1501 C 0.10029 0.73993 0.14827 0.0
C1502 C 0.10857 0.69442 0.18504 0.0
C1503 C 0.06247 0.62903 0.19519 0.0
C1504 C 0.07431 0.65434 0.18511 0.0
C1505 C 0.11145 0.72635 0.15199 0.0
C1506 C 0.0983 0.70165 0.16365 0.0
H1507 H 1.00758 0.58065 0.20523 0.0
H1508 H 0.02646 0.62256 0.19248 0.0
H1509 H 0.10526 0.66662 0.21243 0.0
H1510 H 0.16743 0.76809 0.13278 0.0
H1511 H 0.14479 0.72685 0.14763 0.0
C1512 C 0.40209 0.26044 0.87419 0.0
C1513 C 0.37727 0.24639 0.87602 0.0
C1514 C 0.41282 0.28412 0.86538 0.0
C1515 C 0.40424 0.33577 0.85632 0.0
H1516 H 0.45338 0.35459 0.79894 0.0
C1517 C 0.44934 0.42975 0.80483 0.0
C1518 C 0.47382 0.44071 0.79946 0.0
C1519 C 0.4363 0.4057 0.81251 0.0
C1520 C 0.43995 0.34987 0.81523 0.0
H1521 H 0.34444 0.24694 0.87121 0.0
H1522 H 0.36329 0.28849 0.85635 0.0
H1523 H 0.43372 0.31437 0.81756 0.0
H1524 H 0.50353 0.43446 0.79743 0.0
H1525 H 0.4812 0.39316 0.81121 0.0
H1526 H 0.41087 0.37143 0.85458 0.0
C1527 C 0.37439 0.281 0.86159 0.0
C1528 C 0.4286 0.32667 0.82589 0.0
C1529 C 0.36358 0.25715 0.87014 0.0
C1530 C 0.4847 0.42673 0.80113 0.0
C1531 C 0.47176 0.40283 0.809 0.0
C1532 C 0.41581 0.35912 0.84588 0.0
C1533 C 0.39913 0.29461 0.85838 0.0
C1534 C 0.41072 0.31932 0.84674 0.0
C1535 C 0.4474 0.39193 0.81522 0.0
C1536 C 0.43402 0.36663 0.82531 0.0
H1537 H 0.41332 0.25293 0.87852 0.0
H1538 H 0.43194 0.29416 0.86366 0.0
H1539 H 0.39064 0.33076 0.87246 0.0
H1540 H 0.4403 0.43988 0.80378 0.0
H1541 H 0.41753 0.39798 0.81655 0.0
C1542 C 0.59486 0.02024 0.81875 0.0
C1543 C 0.58666 0.0317 0.80024 0.0
C1544 C 0.6187 0.03132 0.82714 0.0
C1545 C 0.67913 0.07594 0.80765 0.0
H1546 H 0.69202 0.08279 0.88938 0.0
C1547 C 0.77324 0.11071 0.85574 0.0
C1548 C 0.78106 0.13039 0.87407 0.0
C1549 C 0.74944 0.09761 0.84727 0.0
C1550 C 0.68869 0.08095 0.86651 0.0
H1551 H 0.59754 0.0635 0.77517 0.0
H1552 H 0.6394 0.08238 0.7889 0.0
H1553 H 0.65094 0.06168 0.87216 0.0
H1554 H 0.76956 0.15098 0.89876 0.0
H1555 H 0.72779 0.12741 0.88492 0.0
H1556 H 0.71688 0.09484 0.80201 0.0
C1557 C 0.62719 0.06494 0.79722 0.0
C1558 C 0.6652 0.06879 0.85665 0.0
C1559 C 0.60321 0.0541 0.78933 0.0
C1560 C 0.76418 0.13591 0.88473 0.0
C1561 C 0.74025 0.12243 0.87679 0.0
C1562 C 0.70262 0.0876 0.81752 0.0
C1563 C 0.6351 0.05391 0.81675 0.0
C1564 C 0.66013 0.06628 0.8271 0.0
C1565 C 0.73271 0.10346 0.85744 0.0
C1566 C 0.70768 0.0904 0.84706 0.0
H1567 H 0.58265 1.0031 0.82782 0.0
H1568 H 0.62429 0.02231 0.84205 0.0
H1569 H 0.67579 0.07426 0.78479 0.0
H1570 H 0.78572 0.10604 0.84686 0.0
H1571 H 0.74413 0.083 0.8325 0.0
C1572 C 0.88242 0.62758 0.87582 0.0
C1573 C 0.893 0.65242 0.87603 0.0
C1574 C 0.89533 0.61657 0.86795 0.0
C1575 C 0.95 0.62785 0.82858 0.0
H1576 H 0.93403 0.56665 0.86024 0.0
C1577 C 1.00247 0.57818 0.80488 0.0
C1578 C 0.98889 0.55354 0.80055 0.0
C1579 C 0.99166 0.59131 0.81314 0.0
C1580 C 0.93859 0.58365 0.85097 0.0
H1581 H 0.92601 0.68508 0.86905 0.0
H1582 H 0.94879 0.6659 0.85628 0.0
H1583 H 0.91469 0.58761 0.87866 0.0
H1584 H 0.95302 0.52369 0.80055 0.0
H1585 H 0.93438 0.54647 0.81494 0.0
H1586 H 0.97433 0.62386 0.80127 0.0
C1587 C 0.93023 0.65486 0.86149 0.0
C1588 C 0.92742 0.59572 0.86152 0.0
C1589 C 0.91721 0.66593 0.86918 0.0
C1590 C 0.96414 0.5426 0.80364 0.0
C1591 C 0.95341 0.55564 0.81219 0.0
C1592 C 0.9614 0.61585 0.81825 0.0
C1593 C 0.91939 0.62997 0.86028 0.0
C1594 C 0.93265 0.61789 0.85025 0.0
C1595 C 0.96704 0.58008 0.81763 0.0
C1596 C 0.9556 0.59342 0.82904 0.0
H1597 H 0.86379 0.61647 0.88069 0.0
H1598 H 0.88606 0.59743 0.86692 0.0
H1599 H 0.95439 0.64467 0.81897 0.0
H1600 H 0.02155 0.58726 0.80278 0.0
H1601 H 1.00271 0.61009 0.81716 0.0
C1602 C 0.61108 0.51005 0.79128 0.0
C1603 C 0.59112 0.49261 0.80582 0.0
C1604 C 0.63345 0.51314 0.79703 0.0
C1605 C 0.67948 0.51415 0.80886 0.0
H1606 H 0.69088 0.52107 0.89085 0.0
C1607 C 0.77363 0.56818 0.85209 0.0
C1608 C 0.77595 0.58641 0.87028 0.0
C1609 C 0.75135 0.54869 0.8465 0.0
C1610 C 0.68796 0.51894 0.86791 0.0
H1611 H 0.57862 0.46334 0.83586 0.0
H1612 H 0.61779 0.46882 0.8459 0.0
H1613 H 0.6504 0.50085 0.87289 0.0
H1614 H 0.7571 0.59756 0.8988 0.0
H1615 H 0.71829 0.5638 0.88884 0.0
H1616 H 0.71703 0.53391 0.80386 0.0
C1617 C 0.61613 0.48028 0.83037 0.0
C1618 C 0.66477 0.50714 0.8576 0.0
C1619 C 0.59372 0.47715 0.82456 0.0
C1620 C 0.75586 0.5839 0.8845 0.0
C1621 C 0.73362 0.5644 0.87897 0.0
C1622 C 0.70267 0.52596 0.81918 0.0
C1623 C 0.63631 0.49884 0.81743 0.0
C1624 C 0.66032 0.50565 0.82795 0.0
C1625 C 0.73103 0.54704 0.85912 0.0
C1626 C 0.7071 0.52946 0.84879 0.0
H1627 H 0.60964 0.52214 0.77657 0.0
H1628 H 0.64866 0.52777 0.7869 0.0
H1629 H 0.67656 0.51294 0.78591 0.0
H1630 H 0.78884 0.56947 0.84105 0.0
H1631 H 0.7499 0.53542 0.83139 0.0
C1632 C 0.44391 0.17474 0.88262 0.0
C1633 C 0.44169 0.19242 0.86811 0.0
C1634 C 0.4628 0.17107 0.87662 0.0
C1635 C 0.50014 0.17652 0.81618 0.0
H1636 H 0.52591 0.15025 0.8705 0.0
C1637 C 0.518 0.10175 0.78918 0.0
C1638 C 0.53578 0.09978 0.80381 0.0
C1639 C 0.51421 0.1206 0.79485 0.0
C1640 C 0.51939 0.15804 0.85503 0.0
H1641 H 0.45852 0.22137 0.83767 0.0
H1642 H 0.49153 0.2149 0.82727 0.0
H1643 H 0.5057 0.17067 0.88799 0.0
H1644 H 0.56487 0.11709 0.834 0.0
H1645 H 0.55821 0.15007 0.84385 0.0
H1646 H 0.51307 0.16309 0.78322 0.0
C1647 C 0.47848 0.2037 0.84295 0.0
C1648 C 0.50759 0.16951 0.86508 0.0
C1649 C 0.4596 0.20742 0.84899 0.0
C1650 C 0.55084 0.11797 0.82261 0.0
C1651 C 0.54701 0.13683 0.82832 0.0
C1652 C 0.51196 0.16505 0.80613 0.0
C1653 C 0.47985 0.185 0.85603 0.0
C1654 C 0.49695 0.17795 0.84576 0.0
C1655 C 0.52813 0.13789 0.81525 0.0
C1656 C 0.52079 0.15479 0.82545 0.0
H1657 H 0.43048 0.16298 0.89759 0.0
H1658 H 0.46319 0.15634 0.88686 0.0
H1659 H 0.49208 0.18274 0.80072 0.0
H1660 H 0.50619 0.0881 0.77443 0.0
H1661 H 0.49936 0.12075 0.7846 0.0
C1662 C 0.92287 0.41574 0.79245 0.0
C1663 C 0.92469 0.43553 0.80673 0.0
C1664 C 0.90372 0.39321 0.7977 0.0
C1665 C 0.86446 0.36106 0.85659 0.0
H1666 H 0.84081 0.3094 0.80202 0.0
C1667 C 0.84732 0.26892 0.88444 0.0
C1668 C 0.8302 0.24915 0.86929 0.0
C1669 C 0.85081 0.29143 0.87856 0.0
C1670 C 0.84671 0.32359 0.81753 0.0
H1671 H 0.90692 0.44753 0.8359 0.0
H1672 H 0.87345 0.40811 0.84501 0.0
H1673 H 0.86124 0.35008 0.78478 0.0
H1674 H 0.80191 0.23713 0.83788 0.0
H1675 H 0.80806 0.27653 0.82764 0.0
H1676 H 0.85074 0.33457 0.88938 0.0
C1677 C 0.887 0.41001 0.83009 0.0
C1678 C 0.85864 0.3469 0.80763 0.0
C1679 C 0.90616 0.43257 0.8248 0.0
C1680 C 0.81544 0.25208 0.8497 0.0
C1681 C 0.81897 0.27463 0.84377 0.0
C1682 C 0.85252 0.33775 0.86648 0.0
C1683 C 0.886 0.39002 0.81732 0.0
C1684 C 0.86858 0.36584 0.82711 0.0
C1685 C 0.83725 0.29462 0.85742 0.0
C1686 C 0.84448 0.3188 0.84711 0.0
H1687 H 0.93679 0.41745 0.77827 0.0
H1688 H 0.90363 0.37816 0.78773 0.0
H1689 H 0.87196 0.37525 0.87218 0.0
H1690 H 0.85886 0.26723 0.89981 0.0
H1691 H 0.8652 0.30647 0.88928 0.0
C1692 C 0.57529 0.77002 0.15819 0.0
C1693 C 0.59377 0.77285 0.14013 0.0
C1694 C 0.55586 0.74755 0.16311 0.0
C1695 C 0.52684 0.68462 0.1397 0.0
H1696 H 0.51939 0.67151 0.2213 0.0
C1697 C 0.48461 0.58949 0.1805 0.0
C1698 C 0.49964 0.58661 0.19969 0.0
C1699 C 0.48787 0.61199 0.17498 0.0
C1700 C 0.52102 0.67491 0.19845 0.0
H1701 H 0.6055 0.75471 0.11123 0.0
H1702 H 0.57188 0.7156 0.12004 0.0
H1703 H 0.54047 0.71235 0.20466 0.0
H1704 H 0.52858 0.6047 0.22987 0.0
H1705 H 0.53444 0.64387 0.22002 0.0
H1706 H 0.50906 0.64718 0.13355 0.0
C1707 C 0.57222 0.73067 0.13031 0.0
C1708 C 0.53288 0.69831 0.18887 0.0
C1709 C 0.59164 0.75309 0.12544 0.0
C1710 C 0.51683 0.60637 0.2148 0.0
C1711 C 0.52004 0.62882 0.20933 0.0
C1712 C 0.51499 0.66122 0.14928 0.0
C1713 C 0.55454 0.72755 0.14995 0.0
C1714 C 0.5369 0.70337 0.15944 0.0
C1715 C 0.50613 0.63197 0.18865 0.0
C1716 C 0.51299 0.65616 0.17878 0.0
H1717 H 0.5763 0.78497 0.16959 0.0
H1718 H 0.54235 0.7457 0.17808 0.0
H1719 H 0.52935 0.68802 0.11688 0.0
H1720 H 0.47102 0.57455 0.16874 0.0
H1721 H 0.47672 0.61387 0.15918 0.0
C1722 C 0.25932 0.81298 0.1602 0.0
C1723 C 0.25605 0.82789 0.14122 0.0
C1724 C 0.28199 0.81662 0.16554 0.0
C1725 C 0.34479 0.8507 0.14183 0.0
H1726 H 0.35815 0.8584 0.22337 0.0
C1727 C 0.44008 0.90438 0.18216 0.0
C1728 C 0.44308 0.92265 0.20074 0.0
C1729 C 0.41753 0.88517 0.17694 0.0
C1730 C 0.35469 0.85608 0.20055 0.0
H1731 H 0.27365 0.85701 0.11122 0.0
H1732 H 0.31311 0.86353 0.12074 0.0
H1733 H 0.31726 0.83801 0.20686 0.0
H1734 H 0.42512 0.9342 0.23017 0.0
H1735 H 0.38586 0.90094 0.22085 0.0
H1736 H 0.38221 0.87039 0.13549 0.0
C1737 C 0.29823 0.84894 0.1314 0.0
C1738 C 0.33126 0.84418 0.19106 0.0
C1739 C 0.27561 0.84534 0.12612 0.0
C1740 C 0.42337 0.9205 0.21557 0.0
C1741 C 0.40086 0.90129 0.21041 0.0
C1742 C 0.36822 0.86262 0.15132 0.0
C1743 C 0.30176 0.83515 0.1519 0.0
C1744 C 0.32609 0.84234 0.16159 0.0
C1745 C 0.39761 0.88383 0.19032 0.0
C1746 C 0.37337 0.86637 0.18076 0.0
H1747 H 0.24454 0.7992 0.17196 0.0
H1748 H 0.28415 0.80555 0.18117 0.0
H1749 H 0.34131 0.84922 0.11899 0.0
H1750 H 0.45498 0.90541 0.17062 0.0
H1751 H 0.41557 0.87183 0.16162 0.0
C1752 C 0.1234 0.54319 0.18229 0.0
C1753 C 0.10564 0.52791 0.20139 0.0
C1754 C 0.14265 0.54006 0.17632 0.0
C1755 C 0.16487 0.5134 0.14949 0.0
H1756 H 0.1914 0.48786 0.20376 0.0
C1757 C 0.18177 0.43799 0.12346 0.0
C1758 C 0.19966 0.43607 0.13787 0.0
C1759 C 0.17833 0.45711 0.12881 0.0
C1760 C 0.18469 0.49547 0.18829 0.0
H1761 H 0.09507 0.49862 0.23094 0.0
H1762 H 0.12842 0.49298 0.22032 0.0
H1763 H 0.17119 0.50827 0.22129 0.0
H1764 H 0.2293 0.45369 0.16727 0.0
H1765 H 0.22322 0.4871 0.17659 0.0
H1766 H 0.17751 0.49972 0.11651 0.0
C1767 C 0.12763 0.50748 0.21005 0.0
C1768 C 0.1729 0.50694 0.19837 0.0
C1769 C 0.10838 0.51057 0.21596 0.0
C1770 C 0.21516 0.45453 0.15608 0.0
C1771 C 0.21168 0.47365 0.16148 0.0
C1772 C 0.17667 0.50193 0.13941 0.0
C1773 C 0.14454 0.52167 0.18944 0.0
C1774 C 0.16192 0.51503 0.1791 0.0
C1775 C 0.19272 0.4747 0.14866 0.0
C1776 C 0.18572 0.49188 0.15873 0.0
H1777 H 0.12192 0.5569 0.17093 0.0
H1778 H 0.15557 0.55142 0.1606 0.0
H1779 H 0.15655 0.51938 0.13406 0.0
H1780 H 0.16963 0.42414 0.10915 0.0
H1781 H 0.1634 0.45725 0.11879 0.0
C1782 C 0.09769 0.80379 0.5519 0.0
C1783 C 0.1137 0.79651 0.54304 0.0
C1784 C 0.07369 0.79087 0.54414 0.0
C1785 C 0.02748 0.73327 0.51097 0.0
H1786 H 0.99567 0.76918 0.49761 0.0
C1787 C 0.93427 0.72279 0.45945 0.0
C1788 C 0.91816 0.69953 0.46818 0.0
C1789 C 0.95823 0.73368 0.46732 0.0
C1790 C 1.00425 0.75877 0.50073 0.0
H1791 H 0.11663 0.76946 0.51943 0.0
H1792 H 0.07527 0.74748 0.50516 0.0
H1793 H 0.03632 0.78933 0.514 0.0
H1794 H 0.915 0.66939 0.49171 0.0
H1795 H 0.9563 0.68845 0.50617 0.0
H1796 H 0.99576 0.70292 0.49622 0.0
C1797 C 0.08093 0.76281 0.51877 0.0
C1798 C 0.02765 0.77037 0.51083 0.0
C1799 C 0.10484 0.77552 0.52695 0.0
C1800 C 0.92687 0.68723 0.48428 0.0
C1801 C 0.95075 0.69825 0.49257 0.0
C1802 C 1.00417 0.72172 0.50045 0.0
C1803 C 0.06497 0.77048 0.52678 0.0
C1804 C 0.03971 0.75785 0.51628 0.0
C1805 C 0.96682 0.72184 0.48466 0.0
C1806 C 0.99207 0.73424 0.49521 0.0
H1807 H 0.1038 0.8198 0.56438 0.0
H1808 H 0.06207 0.79714 0.55156 0.0
H1809 H 0.0358 0.72276 0.51514 0.0
H1810 H 0.92827 0.73281 0.44695 0.0
H1811 H 0.96995 0.75157 0.45997 0.0
C1812 C 0.33672 0.24492 0.47442 0.0
C1813 C 0.32295 0.22048 0.46877 0.0
C1814 C 0.32601 0.25809 0.4829 0.0
C1815 C 0.27192 0.25006 0.51863 0.0
H1816 H 0.29006 0.31256 0.48963 0.0
C1817 C 0.21632 0.2948 0.54273 0.0
C1818 C 0.22735 0.31965 0.54432 0.0
C1819 C 0.22914 0.28364 0.53506 0.0
C1820 C 0.285 0.2953 0.49841 0.0
H1821 H 0.28685 0.19112 0.46663 0.0
H1822 H 0.26841 0.21396 0.48134 0.0
H1823 H 0.31005 0.29181 0.47193 0.0
H1824 H 0.26103 0.3521 0.54009 0.0
H1825 H 0.28358 0.33263 0.52765 0.0
H1826 H 0.24723 0.25349 0.54546 0.0
C1827 C 0.28751 0.22293 0.47951 0.0
C1828 C 0.29644 0.28334 0.48808 0.0
C1829 C 0.29814 0.20985 0.47078 0.0
C1830 C 0.25187 0.33295 0.53911 0.0
C1831 C 0.26478 0.32174 0.53161 0.0
C1832 C 0.26069 0.26207 0.52917 0.0
C1833 C 0.30129 0.24711 0.48626 0.0
C1834 C 0.28982 0.26041 0.49777 0.0
C1835 C 0.25353 0.2969 0.52895 0.0
C1836 C 0.26677 0.28478 0.51898 0.0
H1837 H 0.35585 0.25375 0.47321 0.0
H1838 H 0.33718 0.27668 0.48794 0.0
H1839 H 0.26669 0.23264 0.52706 0.0
H1840 H 0.19746 0.28387 0.54632 0.0
H1841 H 0.21959 0.26457 0.5329 0.0
C1842 C 0.73442 0.92762 0.54202 0.0
C1843 C 0.7096 0.91331 0.5432 0.0
C1844 C 0.74506 0.95133 0.53337 0.0
C1845 C 0.73595 1.00259 0.52368 0.0
H1846 H 0.78611 0.02216 0.46757 0.0
C1847 C 0.78114 0.09685 0.47281 0.0
C1848 C 0.80571 0.10801 0.46791 0.0
C1849 C 0.76818 0.07277 0.48037 0.0
C1850 C 0.77239 0.01724 0.48351 0.0
H1851 H 0.67664 0.91343 0.53739 0.0
H1852 H 0.69531 0.95504 0.52283 0.0
H1853 H 0.76648 0.98186 0.48589 0.0
H1854 H 0.83564 0.10209 0.46665 0.0
H1855 H 0.81343 0.06075 0.48025 0.0
H1856 H 0.74224 0.03814 0.52191 0.0
C1857 C 0.70649 0.94772 0.52845 0.0
C1858 C 0.76105 0.99399 0.494 0.0
C1859 C 0.69578 0.92383 0.53683 0.0
C1860 C 0.81675 0.09421 0.46998 0.0
C1861 C 0.80388 0.07028 0.47774 0.0
C1862 C 0.7475 0.02601 0.51343 0.0
C1863 C 0.73127 0.9616 0.52588 0.0
C1864 C 0.74281 0.98636 0.5144 0.0
C1865 C 0.77942 0.05916 0.48344 0.0
C1866 C 0.76608 0.0338 0.49333 0.0
H1867 H 0.74576 0.92029 0.54674 0.0
H1868 H 0.76419 0.96157 0.53215 0.0
H1869 H 0.72205 0.99737 0.53947 0.0
H1870 H 0.77198 0.10685 0.47144 0.0
H1871 H 0.74934 0.0649 0.48401 0.0
C1872 C 0.18233 0.93491 0.55329 0.0
C1873 C 0.16461 0.91527 0.53852 0.0
C1874 C 0.18595 0.95753 0.54795 0.0
C1875 C 0.18046 0.99015 0.48834 0.0
H1876 H 0.20765 0.04163 0.54321 0.0
C1877 C 0.25595 0.08235 0.46166 0.0
C1878 C 0.2582 0.10212 0.47644 0.0
C1879 C 0.23702 0.0598 0.46741 0.0
C1880 C 0.19961 0.02749 0.52759 0.0
H1881 H 0.13547 0.90364 0.50842 0.0
H1882 H 0.14183 0.94325 0.49914 0.0
H1883 H 0.18676 1.00089 0.56026 0.0
H1884 H 0.24137 0.11405 0.50712 0.0
H1885 H 0.20827 0.07459 0.51712 0.0
H1886 H 0.1941 0.01675 0.45566 0.0
C1887 C 0.15311 0.94114 0.51452 0.0
C1888 C 0.18786 1.00415 0.53739 0.0
C1889 C 0.14945 0.91847 0.51992 0.0
C1890 C 0.24026 0.09912 0.4956 0.0
C1891 C 0.22133 0.07653 0.50139 0.0
C1892 C 0.19221 0.0135 0.47854 0.0
C1893 C 0.17192 0.96098 0.52774 0.0
C1894 C 0.1791 0.98526 0.51785 0.0
C1895 C 0.21994 0.05657 0.48804 0.0
C1896 C 0.20281 0.03237 0.49806 0.0
H1897 H 0.19421 0.933 0.5679 0.0
H1898 H 0.20075 0.97245 0.5583 0.0
H1899 H 0.17399 0.97601 0.4727 0.0
H1900 H 0.2694 0.0841 0.44665 0.0
H1901 H 0.23661 0.04477 0.45696 0.0
C1902 C 0.08999 0.2532 0.54976 0.0
C1903 C 0.10983 0.2554 0.53521 0.0
C1904 C 0.06755 0.23396 0.54441 0.0
C1905 C 0.03548 0.19545 0.48502 0.0
H1906 H 0.984 0.17067 0.53986 0.0
C1907 C 0.92655 0.14607 0.4926 0.0
C1908 C 0.9235 0.16118 0.47374 0.0
C1909 C 0.94913 0.14954 0.49808 0.0
C1910 C 0.99815 0.17689 0.52425 0.0
H1911 H 0.12202 0.23818 0.50544 0.0
H1912 H 0.08273 0.20455 0.4961 0.0
H1913 H 0.02474 0.19096 0.55693 0.0
H1914 H 0.94139 0.19046 0.44401 0.0
H1915 H 0.98072 0.19668 0.45377 0.0
H1916 H 1.00888 0.18224 0.45232 0.0
C1917 C 0.08454 0.21788 0.51135 0.0
C1918 C 0.02149 0.18873 0.53406 0.0
C1919 C 0.10702 0.23712 0.51675 0.0
C1920 C 0.94319 0.17864 0.45882 0.0
C1921 C 0.96573 0.18206 0.46425 0.0
C1922 C 1.01214 0.18361 0.4752 0.0
C1923 C 0.06449 0.21652 0.5244 0.0
C1924 C 0.04035 0.19908 0.51453 0.0
C1925 C 0.96904 0.1681 0.4847 0.0
C1926 C 0.99326 0.17518 0.49471 0.0
H1927 H 0.0916 0.26691 0.56425 0.0
H1928 H 0.05245 0.23358 0.5546 0.0
H1929 H 0.04962 0.20328 0.46939 0.0
H1930 H 0.91167 0.13227 0.50421 0.0
H1931 H 0.95113 0.13833 0.51367 0.0
C1932 C 0.77779 0.84343 0.55126 0.0
C1933 C 0.77551 0.86107 0.53676 0.0
C1934 C 0.7969 0.84005 0.54557 0.0
C1935 C 0.83458 0.846 0.48545 0.0
H1936 H 0.85972 0.81902 0.53965 0.0
C1937 C 0.88338 0.78569 0.49169 0.0
C1938 C 0.86797 0.76761 0.47299 0.0
C1939 C 0.88014 0.80492 0.49738 0.0
C1940 C 0.8534 0.82702 0.52421 0.0
H1941 H 0.79248 0.89031 0.50675 0.0
H1942 H 0.82589 0.88435 0.49683 0.0
H1943 H 0.83987 0.83978 0.55723 0.0
H1944 H 0.83838 0.75649 0.44375 0.0
H1945 H 0.83257 0.7898 0.45387 0.0
H1946 H 0.84726 0.83239 0.45242 0.0
C1947 C 0.81272 0.87296 0.51229 0.0
C1948 C 0.84181 0.8387 0.53431 0.0
C1949 C 0.79361 0.87638 0.51804 0.0
C1950 C 0.85044 0.77004 0.45843 0.0
C1951 C 0.84724 0.78928 0.46406 0.0
C1952 C 0.84618 0.83433 0.47534 0.0
C1953 C 0.81412 0.85425 0.52527 0.0
C1954 C 0.83133 0.84732 0.51503 0.0
C1955 C 0.86152 0.80647 0.48437 0.0
C1956 C 0.85472 0.82377 0.49462 0.0
H1957 H 0.76422 0.83144 0.56596 0.0
H1958 H 0.79732 0.82531 0.55574 0.0
H1959 H 0.82665 0.85238 0.47 0.0
H1960 H 0.89724 0.78444 0.50302 0.0
H1961 H 0.89159 0.81806 0.51285 0.0
loop_
_geom_bond_atom_site_label_1
_geom_bond_atom_site_label_2
_geom_bond_distance
_geom_bond_site_symmetry_2
_ccdc_geom_bond_type
Co0 O3 1.970 . S
Co0 N17 1.989 . S
Co0 O25 1.967 . S
Co0 O32 1.920 . S
Co1 O4 1.966 . S
Co1 N10 2.022 . S
Co1 N18 1.993 . S
Co1 O26 1.941 . S
C2 O3 1.258 . S
C2 O4 1.263 . S
O3 Co0 1.970 . S
O3 C2 1.258 . S
O4 Co1 1.966 . S
O4 C2 1.263 . S
C5 O6 1.235 . S
C5 O32 1.289 . S
O6 C5 1.235 . S
C7 C9 1.400 . S
C7 N10 1.351 . S
C7 C12 1.501 . S
C8 C9 1.387 . S
C8 N11 1.341 . S
C9 C7 1.400 . S
C9 C8 1.387 . S
N10 Co1 2.022 . S
N10 C7 1.351 . S
N10 N11 1.365 . S
N11 C8 1.341 . S
N11 N10 1.365 . S
N11 H31 0.862 . S
C12 C7 1.501 . S
C12 H13 0.961 . S
C12 H14 0.961 . S
C12 H15 0.960 . S
H13 C12 0.961 . S
H14 C12 0.961 . S
H15 C12 0.960 . S
C16 N17 1.342 . S
C16 C20 1.401 . S
C16 C21 1.499 . S
N17 Co0 1.989 . S
N17 C16 1.342 . S
N17 N18 1.388 . S
N18 Co1 1.993 . S
N18 N17 1.388 . S
N18 C19 1.346 . S
C19 N18 1.346 . S
C19 C20 1.396 . S
C19 C29 1.510 . S
C20 C16 1.401 . S
C20 C19 1.396 . S
C21 C16 1.499 . S
C21 H22 0.959 . S
C21 H23 0.960 . S
C21 H24 0.961 . S
H22 C21 0.959 . S
H23 C21 0.960 . S
H24 C21 0.961 . S
O25 Co0 1.967 . S
O25 C33 1.258 . S
O26 Co1 1.941 . S
O26 C33 1.266 . S
H27 C29 0.959 . S
H28 C29 0.961 . S
C29 C19 1.510 . S
C29 H27 0.959 . S
C29 H28 0.961 . S
C29 H30 0.960 . S
H30 C29 0.960 . S
H31 N11 0.862 . S
O32 Co0 1.920 . S
O32 C5 1.289 . S
C33 O25 1.258 . S
C33 O26 1.266 . S
Co34 O37 1.970 . S
Co34 N51 1.989 . S
Co34 O59 1.967 . S
Co34 O66 1.920 . S
Co35 O38 1.966 . S
Co35 N44 2.022 . S
Co35 N52 1.993 . S
Co35 O60 1.941 . S
C36 O37 1.258 . S
C36 O38 1.263 . S
O37 Co34 1.970 . S
O37 C36 1.258 . S
O38 Co35 1.966 . S
O38 C36 1.263 . S
C39 O40 1.235 . S
C39 O66 1.289 . S
O40 C39 1.235 . S
C41 C43 1.400 . S
C41 N44 1.351 . S
C41 C46 1.501 . S
C42 C43 1.387 . S
C42 N45 1.341 . S
C43 C41 1.400 . S
C43 C42 1.387 . S
N44 Co35 2.022 . S
N44 C41 1.351 . S
N44 N45 1.365 . S
N45 C42 1.341 . S
N45 N44 1.365 . S
N45 H65 0.862 . S
C46 C41 1.501 . S
C46 H47 0.961 . S
C46 H48 0.961 . S
C46 H49 0.960 . S
H47 C46 0.961 . S
H48 C46 0.961 . S
H49 C46 0.960 . S
C50 N51 1.342 . S
C50 C54 1.401 . S
C50 C55 1.499 . S
N51 Co34 1.989 . S
N51 C50 1.342 . S
N51 N52 1.388 . S
N52 Co35 1.993 . S
N52 N51 1.388 . S
N52 C53 1.346 . S
C53 N52 1.346 . S
C53 C54 1.396 . S
C53 C63 1.510 . S
C54 C50 1.401 . S
C54 C53 1.396 . S
C55 C50 1.499 . S
C55 H56 0.959 . S
C55 H57 0.960 . S
C55 H58 0.961 . S
H56 C55 0.959 . S
H57 C55 0.960 . S
H58 C55 0.961 . S
O59 Co34 1.967 . S
O59 C67 1.258 . S
O60 Co35 1.941 . S
O60 C67 1.266 . S
H61 C63 0.959 . S
H62 C63 0.961 . S
C63 C53 1.510 . S
C63 H61 0.959 . S
C63 H62 0.961 . S
C63 H64 0.960 . S
H64 C63 0.960 . S
H65 N45 0.862 . S
O66 Co34 1.920 . S
O66 C39 1.289 . S
C67 O59 1.258 . S
C67 O60 1.266 . S
Co68 O71 1.970 . S
Co68 N85 1.989 . S
Co68 O93 1.967 . S
Co68 O100 1.920 . S
Co69 O72 1.966 . S
Co69 N78 2.022 . S
Co69 N86 1.993 . S
Co69 O94 1.941 . S
C70 O71 1.258 . S
C70 O72 1.263 . S
O71 Co68 1.970 . S
O71 C70 1.258 . S
O72 Co69 1.966 . S
O72 C70 1.263 . S
C73 O74 1.235 . S
C73 O100 1.289 . S
O74 C73 1.235 . S
C75 C77 1.400 . S
C75 N78 1.351 . S
C75 C80 1.501 . S
C76 C77 1.387 . S
C76 N79 1.341 . S
C77 C75 1.400 . S
C77 C76 1.387 . S
N78 Co69 2.022 . S
N78 C75 1.351 . S
N78 N79 1.365 . S
N79 C76 1.341 . S
N79 N78 1.365 . S
N79 H99 0.862 . S
C80 C75 1.501 . S
C80 H81 0.961 . S
C80 H82 0.961 . S
C80 H83 0.960 . S
H81 C80 0.961 . S
H82 C80 0.961 . S
H83 C80 0.960 . S
C84 N85 1.342 . S
C84 C88 1.401 . S
C84 C89 1.499 . S
N85 Co68 1.989 . S
N85 C84 1.342 . S
N85 N86 1.388 . S
N86 Co69 1.993 . S
N86 N85 1.388 . S
N86 C87 1.346 . S
C87 N86 1.346 . S
C87 C88 1.396 . S
C87 C97 1.510 . S
C88 C84 1.401 . S
C88 C87 1.396 . S
C89 C84 1.499 . S
C89 H90 0.959 . S
C89 H91 0.960 . S
C89 H92 0.961 . S
H90 C89 0.959 . S
H91 C89 0.960 . S
H92 C89 0.961 . S
O93 Co68 1.967 . S
O93 C101 1.258 . S
O94 Co69 1.941 . S
O94 C101 1.266 . S
H95 C97 0.959 . S
H96 C97 0.961 . S
C97 C87 1.510 . S
C97 H95 0.959 . S
C97 H96 0.961 . S
C97 H98 0.960 . S
H98 C97 0.960 . S
H99 N79 0.862 . S
O100 Co68 1.920 . S
O100 C73 1.289 . S
C101 O93 1.258 . S
C101 O94 1.266 . S
Co102 O105 1.970 . S
Co102 N119 1.989 . S
Co102 O127 1.967 . S
Co102 O134 1.920 . S
Co103 O106 1.966 . S
Co103 N112 2.022 . S
Co103 N120 1.993 . S
Co103 O128 1.941 . S
C104 O105 1.258 . S
C104 O106 1.263 . S
O105 Co102 1.970 . S
O105 C104 1.258 . S
O106 Co103 1.966 . S
O106 C104 1.263 . S
C107 O108 1.235 . S
C107 O134 1.289 . S
O108 C107 1.235 . S
C109 C111 1.400 . S
C109 N112 1.351 . S
C109 C114 1.501 . S
C110 C111 1.387 . S
C110 N113 1.341 . S
C111 C109 1.400 . S
C111 C110 1.387 . S
N112 Co103 2.022 . S
N112 C109 1.351 . S
N112 N113 1.365 . S
N113 C110 1.341 . S
N113 N112 1.365 . S
N113 H133 0.862 . S
C114 C109 1.501 . S
C114 H115 0.961 . S
C114 H116 0.961 . S
C114 H117 0.960 . S
H115 C114 0.961 . S
H116 C114 0.961 . S
H117 C114 0.960 . S
C118 N119 1.342 . S
C118 C122 1.401 . S
C118 C123 1.499 . S
N119 Co102 1.989 . S
N119 C118 1.342 . S
N119 N120 1.388 . S
N120 Co103 1.993 . S
N120 N119 1.388 . S
N120 C121 1.346 . S
C121 N120 1.346 . S
C121 C122 1.396 . S
C121 C131 1.510 . S
C122 C118 1.401 . S
C122 C121 1.396 . S
C123 C118 1.499 . S
C123 H124 0.959 . S
C123 H125 0.960 . S
C123 H126 0.961 . S
H124 C123 0.959 . S
H125 C123 0.960 . S
H126 C123 0.961 . S
O127 Co102 1.967 . S
O127 C135 1.258 . S
O128 Co103 1.941 . S
O128 C135 1.266 . S
H129 C131 0.959 . S
H130 C131 0.961 . S
C131 C121 1.510 . S
C131 H129 0.959 . S
C131 H130 0.961 . S
C131 H132 0.960 . S
H132 C131 0.960 . S
H133 N113 0.862 . S
O134 Co102 1.920 . S
O134 C107 1.289 . S
C135 O127 1.258 . S
C135 O128 1.266 . S
Co136 O139 1.970 . S
Co136 N153 1.989 . S
Co136 O161 1.967 . S
Co136 O168 1.920 . S
Co137 O140 1.966 . S
Co137 N146 2.022 . S
Co137 N154 1.993 . S
Co137 O162 1.941 . S
C138 O139 1.258 . S
C138 O140 1.263 . S
O139 Co136 1.970 . S
O139 C138 1.258 . S
O140 Co137 1.966 . S
O140 C138 1.263 . S
C141 O142 1.235 . S
C141 O168 1.289 . S
O142 C141 1.235 . S
C143 C145 1.400 . S
C143 N146 1.351 . S
C143 C148 1.501 . S
C144 C145 1.387 . S
C144 N147 1.341 . S
C145 C143 1.400 . S
C145 C144 1.387 . S
N146 Co137 2.022 . S
N146 C143 1.351 . S
N146 N147 1.365 . S
N147 C144 1.341 . S
N147 N146 1.365 . S
N147 H167 0.862 . S
C148 C143 1.501 . S
C148 H149 0.961 . S
C148 H150 0.961 . S
C148 H151 0.960 . S
H149 C148 0.961 . S
H150 C148 0.961 . S
H151 C148 0.960 . S
C152 N153 1.342 . S
C152 C156 1.401 . S
C152 C157 1.499 . S
N153 Co136 1.989 . S
N153 C152 1.342 . S
N153 N154 1.388 . S
N154 Co137 1.993 . S
N154 N153 1.388 . S
N154 C155 1.346 . S
C155 N154 1.346 . S
C155 C156 1.396 . S
C155 C165 1.510 . S
C156 C152 1.401 . S
C156 C155 1.396 . S
C157 C152 1.499 . S
C157 H158 0.959 . S
C157 H159 0.960 . S
C157 H160 0.961 . S
H158 C157 0.959 . S
H159 C157 0.960 . S
H160 C157 0.961 . S
O161 Co136 1.967 . S
O161 C169 1.258 . S
O162 Co137 1.941 . S
O162 C169 1.266 . S
H163 C165 0.959 . S
H164 C165 0.961 . S
C165 C155 1.510 . S
C165 H163 0.959 . S
C165 H164 0.961 . S
C165 H166 0.960 . S
H166 C165 0.960 . S
H167 N147 0.862 . S
O168 Co136 1.920 . S
O168 C141 1.289 . S
C169 O161 1.258 . S
C169 O162 1.266 . S
Co170 O173 1.970 . S
Co170 N187 1.989 . S
Co170 O195 1.967 . S
Co170 O202 1.920 . S
Co171 O174 1.966 . S
Co171 N180 2.022 . S
Co171 N188 1.993 . S
Co171 O196 1.941 . S
C172 O173 1.258 . S
C172 O174 1.263 . S
O173 Co170 1.970 . S
O173 C172 1.258 . S
O174 Co171 1.966 . S
O174 C172 1.263 . S
C175 O176 1.235 . S
C175 O202 1.289 . S
O176 C175 1.235 . S
C177 C179 1.400 . S
C177 N180 1.351 . S
C177 C182 1.501 . S
C178 C179 1.387 . S
C178 N181 1.341 . S
C179 C177 1.400 . S
C179 C178 1.387 . S
N180 Co171 2.022 . S
N180 C177 1.351 . S
N180 N181 1.365 . S
N181 C178 1.341 . S
N181 N180 1.365 . S
N181 H201 0.862 . S
C182 C177 1.501 . S
C182 H183 0.961 . S
C182 H184 0.961 . S
C182 H185 0.960 . S
H183 C182 0.961 . S
H184 C182 0.961 . S
H185 C182 0.960 . S
C186 N187 1.342 . S
C186 C190 1.401 . S
C186 C191 1.499 . S
N187 Co170 1.989 . S
N187 C186 1.342 . S
N187 N188 1.388 . S
N188 Co171 1.993 . S
N188 N187 1.388 . S
N188 C189 1.346 . S
C189 N188 1.346 . S
C189 C190 1.396 . S
C189 C199 1.510 . S
C190 C186 1.401 . S
C190 C189 1.396 . S
C191 C186 1.499 . S
C191 H192 0.959 . S
C191 H193 0.960 . S
C191 H194 0.961 . S
H192 C191 0.959 . S
H193 C191 0.960 . S
H194 C191 0.961 . S
O195 Co170 1.967 . S
O195 C203 1.258 . S
O196 Co171 1.941 . S
O196 C203 1.266 . S
H197 C199 0.959 . S
H198 C199 0.961 . S
C199 C189 1.510 . S
C199 H197 0.959 . S
C199 H198 0.961 . S
C199 H200 0.960 . S
H200 C199 0.960 . S
H201 N181 0.862 . S
O202 Co170 1.920 . S
O202 C175 1.289 . S
C203 O195 1.258 . S
C203 O196 1.266 . S
Co204 O207 1.970 . S
Co204 N221 1.989 . S
Co204 O229 1.967 . S
Co204 O236 1.920 . S
Co205 O208 1.966 . S
Co205 N214 2.022 . S
Co205 N222 1.993 . S
Co205 O230 1.941 . S
C206 O207 1.258 . S
C206 O208 1.263 . S
O207 Co204 1.970 . S
O207 C206 1.258 . S
O208 Co205 1.966 . S
O208 C206 1.263 . S
C209 O210 1.235 . S
C209 O236 1.289 . S
O210 C209 1.235 . S
C211 C213 1.400 . S
C211 N214 1.351 . S
C211 C216 1.501 . S
C212 C213 1.387 . S
C212 N215 1.341 . S
C213 C211 1.400 . S
C213 C212 1.387 . S
N214 Co205 2.022 . S
N214 C211 1.351 . S
N214 N215 1.365 . S
N215 C212 1.341 . S
N215 N214 1.365 . S
N215 H235 0.862 . S
C216 C211 1.501 . S
C216 H217 0.961 . S
C216 H218 0.961 . S
C216 H219 0.960 . S
H217 C216 0.961 . S
H218 C216 0.961 . S
H219 C216 0.960 . S
C220 N221 1.342 . S
C220 C224 1.401 . S
C220 C225 1.499 . S
N221 Co204 1.989 . S
N221 C220 1.342 . S
N221 N222 1.388 . S
N222 Co205 1.993 . S
N222 N221 1.388 . S
N222 C223 1.346 . S
C223 N222 1.346 . S
C223 C224 1.396 . S
C223 C233 1.510 . S
C224 C220 1.401 . S
C224 C223 1.396 . S
C225 C220 1.499 . S
C225 H226 0.959 . S
C225 H227 0.960 . S
C225 H228 0.961 . S
H226 C225 0.959 . S
H227 C225 0.960 . S
H228 C225 0.961 . S
O229 Co204 1.967 . S
O229 C237 1.258 . S
O230 Co205 1.941 . S
O230 C237 1.266 . S
H231 C233 0.959 . S
H232 C233 0.961 . S
C233 C223 1.510 . S
C233 H231 0.959 . S
C233 H232 0.961 . S
C233 H234 0.960 . S
H234 C233 0.960 . S
H235 N215 0.862 . S
O236 Co204 1.920 . S
O236 C209 1.289 . S
C237 O229 1.258 . S
C237 O230 1.266 . S
Co238 O241 1.970 . S
Co238 N255 1.989 . S
Co238 O263 1.967 . S
Co238 O270 1.920 . S
Co239 O242 1.966 . S
Co239 N248 2.022 . S
Co239 N256 1.993 . S
Co239 O264 1.941 . S
C240 O241 1.258 . S
C240 O242 1.263 . S
O241 Co238 1.970 . S
O241 C240 1.258 . S
O242 Co239 1.966 . S
O242 C240 1.263 . S
C243 O244 1.235 . S
C243 O270 1.289 . S
O244 C243 1.235 . S
C245 C247 1.400 . S
C245 N248 1.351 . S
C245 C250 1.501 . S
C246 C247 1.387 . S
C246 N249 1.341 . S
C247 C245 1.400 . S
C247 C246 1.387 . S
N248 Co239 2.022 . S
N248 C245 1.351 . S
N248 N249 1.365 . S
N249 C246 1.341 . S
N249 N248 1.365 . S
N249 H269 0.862 . S
C250 C245 1.501 . S
C250 H251 0.961 . S
C250 H252 0.961 . S
C250 H253 0.960 . S
H251 C250 0.961 . S
H252 C250 0.961 . S
H253 C250 0.960 . S
C254 N255 1.342 . S
C254 C258 1.401 . S
C254 C259 1.499 . S
N255 Co238 1.989 . S
N255 C254 1.342 . S
N255 N256 1.388 . S
N256 Co239 1.993 . S
N256 N255 1.388 . S
N256 C257 1.346 . S
C257 N256 1.346 . S
C257 C258 1.396 . S
C257 C267 1.510 . S
C258 C254 1.401 . S
C258 C257 1.396 . S
C259 C254 1.499 . S
C259 H260 0.959 . S
C259 H261 0.960 . S
C259 H262 0.961 . S
H260 C259 0.959 . S
H261 C259 0.960 . S
H262 C259 0.961 . S
O263 Co238 1.967 . S
O263 C271 1.258 . S
O264 Co239 1.941 . S
O264 C271 1.266 . S
H265 C267 0.959 . S
H266 C267 0.961 . S
C267 C257 1.510 . S
C267 H265 0.959 . S
C267 H266 0.961 . S
C267 H268 0.960 . S
H268 C267 0.960 . S
H269 N249 0.862 . S
O270 Co238 1.920 . S
O270 C243 1.289 . S
C271 O263 1.258 . S
C271 O264 1.266 . S
Co272 O275 1.970 . S
Co272 N289 1.989 . S
Co272 O297 1.967 . S
Co272 O304 1.920 . S
Co273 O276 1.966 . S
Co273 N282 2.022 . S
Co273 N290 1.993 . S
Co273 O298 1.941 . S
C274 O275 1.258 . S
C274 O276 1.263 . S
O275 Co272 1.970 . S
O275 C274 1.258 . S
O276 Co273 1.966 . S
O276 C274 1.263 . S
C277 O278 1.235 . S
C277 O304 1.289 . S
O278 C277 1.235 . S
C279 C281 1.400 . S
C279 N282 1.351 . S
C279 C284 1.501 . S
C280 C281 1.387 . S
C280 N283 1.341 . S
C281 C279 1.400 . S
C281 C280 1.387 . S
N282 Co273 2.022 . S
N282 C279 1.351 . S
N282 N283 1.365 . S
N283 C280 1.341 . S
N283 N282 1.365 . S
N283 H303 0.862 . S
C284 C279 1.501 . S
C284 H285 0.961 . S
C284 H286 0.961 . S
C284 H287 0.960 . S
H285 C284 0.961 . S
H286 C284 0.961 . S
H287 C284 0.960 . S
C288 N289 1.342 . S
C288 C292 1.401 . S
C288 C293 1.499 . S
N289 Co272 1.989 . S
N289 C288 1.342 . S
N289 N290 1.388 . S
N290 Co273 1.993 . S
N290 N289 1.388 . S
N290 C291 1.346 . S
C291 N290 1.346 . S
C291 C292 1.396 . S
C291 C301 1.510 . S
C292 C288 1.401 . S
C292 C291 1.396 . S
C293 C288 1.499 . S
C293 H294 0.959 . S
C293 H295 0.960 . S
C293 H296 0.961 . S
H294 C293 0.959 . S
H295 C293 0.960 . S
H296 C293 0.961 . S
O297 Co272 1.967 . S
O297 C305 1.258 . S
O298 Co273 1.941 . S
O298 C305 1.266 . S
H299 C301 0.959 . S
H300 C301 0.961 . S
C301 C291 1.510 . S
C301 H299 0.959 . S
C301 H300 0.961 . S
C301 H302 0.960 . S
H302 C301 0.960 . S
H303 N283 0.862 . S
O304 Co272 1.920 . S
O304 C277 1.289 . S
C305 O297 1.258 . S
C305 O298 1.266 . S
Co306 O309 1.970 . S
Co306 N323 1.989 1_455 S
Co306 O331 1.967 . S
Co306 O338 1.920 . S
Co307 O310 1.966 1_655 S
Co307 N316 2.022 . S
Co307 N324 1.993 . S
Co307 O332 1.941 . S
C308 O309 1.258 . S
C308 O310 1.263 . S
O309 Co306 1.970 . S
O309 C308 1.258 . S
O310 Co307 1.966 1_455 S
O310 C308 1.263 . S
C311 O312 1.235 . S
C311 O338 1.289 . S
O312 C311 1.235 . S
C313 C315 1.400 . S
C313 N316 1.351 . S
C313 C318 1.501 . S
C314 C315 1.387 . S
C314 N317 1.341 . S
C315 C313 1.400 . S
C315 C314 1.387 . S
N316 Co307 2.022 . S
N316 C313 1.351 . S
N316 N317 1.365 . S
N317 C314 1.341 . S
N317 N316 1.365 . S
N317 H337 0.862 . S
C318 C313 1.501 . S
C318 H319 0.961 . S
C318 H320 0.961 . S
C318 H321 0.960 . S
H319 C318 0.961 . S
H320 C318 0.961 . S
H321 C318 0.960 . S
C322 N323 1.342 . S
C322 C326 1.401 . S
C322 C327 1.499 1_655 S
N323 Co306 1.989 1_655 S
N323 C322 1.342 . S
N323 N324 1.388 . S
N324 Co307 1.993 . S
N324 N323 1.388 . S
N324 C325 1.346 . S
C325 N324 1.346 . S
C325 C326 1.396 . S
C325 C335 1.510 . S
C326 C322 1.401 . S
C326 C325 1.396 . S
C327 C322 1.499 1_455 S
C327 H328 0.959 . S
C327 H329 0.960 . S
C327 H330 0.961 1_455 S
H328 C327 0.959 . S
H329 C327 0.960 . S
H330 C327 0.961 1_655 S
O331 Co306 1.967 . S
O331 C339 1.258 1_455 S
O332 Co307 1.941 . S
O332 C339 1.266 . S
H333 C335 0.959 . S
H334 C335 0.961 . S
C335 C325 1.510 . S
C335 H333 0.959 . S
C335 H334 0.961 . S
C335 H336 0.960 . S
H336 C335 0.960 . S
H337 N317 0.862 . S
O338 Co306 1.920 . S
O338 C311 1.289 . S
C339 O331 1.258 1_655 S
C339 O332 1.266 . S
Co340 O343 1.970 . S
Co340 N357 1.989 . S
Co340 O365 1.967 . S
Co340 O372 1.920 . S
Co341 O344 1.966 . S
Co341 N350 2.022 . S
Co341 N358 1.993 . S
Co341 O366 1.941 . S
C342 O343 1.258 . S
C342 O344 1.263 . S
O343 Co340 1.970 . S
O343 C342 1.258 . S
O344 Co341 1.966 . S
O344 C342 1.263 . S
C345 O346 1.235 . S
C345 O372 1.289 . S
O346 C345 1.235 . S
C347 C349 1.400 . S
C347 N350 1.351 . S
C347 C352 1.501 . S
C348 C349 1.387 . S
C348 N351 1.341 . S
C349 C347 1.400 . S
C349 C348 1.387 . S
N350 Co341 2.022 . S
N350 C347 1.351 . S
N350 N351 1.365 . S
N351 C348 1.341 . S
N351 N350 1.365 . S
N351 H371 0.862 . S
C352 C347 1.501 . S
C352 H353 0.961 . S
C352 H354 0.961 . S
C352 H355 0.960 . S
H353 C352 0.961 . S
H354 C352 0.961 . S
H355 C352 0.960 . S
C356 N357 1.342 . S
C356 C360 1.401 . S
C356 C361 1.499 . S
N357 Co340 1.989 . S
N357 C356 1.342 . S
N357 N358 1.388 . S
N358 Co341 1.993 . S
N358 N357 1.388 . S
N358 C359 1.346 . S
C359 N358 1.346 . S
C359 C360 1.396 . S
C359 C369 1.510 . S
C360 C356 1.401 . S
C360 C359 1.396 . S
C361 C356 1.499 . S
C361 H362 0.959 . S
C361 H363 0.960 . S
C361 H364 0.961 . S
H362 C361 0.959 . S
H363 C361 0.960 . S
H364 C361 0.961 . S
O365 Co340 1.967 . S
O365 C373 1.258 . S
O366 Co341 1.941 . S
O366 C373 1.266 . S
H367 C369 0.959 . S
H368 C369 0.961 . S
C369 C359 1.510 . S
C369 H367 0.959 . S
C369 H368 0.961 . S
C369 H370 0.960 . S
H370 C369 0.960 . S
H371 N351 0.862 . S
O372 Co340 1.920 . S
O372 C345 1.289 . S
C373 O365 1.258 . S
C373 O366 1.266 . S
Co374 O377 1.970 . S
Co374 N391 1.989 1_565 S
Co374 O399 1.967 . S
Co374 O406 1.920 . S
Co375 O378 1.966 1_545 S
Co375 N384 2.022 . S
Co375 N392 1.993 . S
Co375 O400 1.941 . S
C376 O377 1.258 . S
C376 O378 1.263 . S
O377 Co374 1.970 . S
O377 C376 1.258 . S
O378 Co375 1.966 1_565 S
O378 C376 1.263 . S
C379 O380 1.235 . S
C379 O406 1.289 . S
O380 C379 1.235 . S
C381 C383 1.400 . S
C381 N384 1.351 . S
C381 C386 1.501 . S
C382 C383 1.387 . S
C382 N385 1.341 . S
C383 C381 1.400 . S
C383 C382 1.387 . S
N384 Co375 2.022 . S
N384 C381 1.351 . S
N384 N385 1.365 . S
N385 C382 1.341 . S
N385 N384 1.365 . S
N385 H405 0.862 . S
C386 C381 1.501 . S
C386 H387 0.961 . S
C386 H388 0.961 . S
C386 H389 0.960 . S
H387 C386 0.961 . S
H388 C386 0.961 . S
H389 C386 0.960 . S
C390 N391 1.342 . S
C390 C394 1.401 . S
C390 C395 1.499 1_545 S
N391 Co374 1.989 1_545 S
N391 C390 1.342 . S
N391 N392 1.388 . S
N392 Co375 1.993 . S
N392 N391 1.388 . S
N392 C393 1.346 . S
C393 N392 1.346 . S
C393 C394 1.396 . S
C393 C403 1.510 . S
C394 C390 1.401 . S
C394 C393 1.396 . S
C395 C390 1.499 1_565 S
C395 H396 0.959 . S
C395 H397 0.960 . S
C395 H398 0.961 1_565 S
H396 C395 0.959 . S
H397 C395 0.960 . S
H398 C395 0.961 1_545 S
O399 Co374 1.967 . S
O399 C407 1.258 1_565 S
O400 Co375 1.941 . S
O400 C407 1.266 . S
H401 C403 0.959 . S
H402 C403 0.961 . S
C403 C393 1.510 . S
C403 H401 0.959 . S
C403 H402 0.961 . S
C403 H404 0.960 . S
H404 C403 0.960 . S
H405 N385 0.862 . S
O406 Co374 1.920 . S
O406 C379 1.289 . S
C407 O399 1.258 1_545 S
C407 O400 1.266 . S
Co408 O411 1.970 . S
Co408 N425 1.989 1_545 S
Co408 O433 1.967 . S
Co408 O440 1.920 . S
Co409 O412 1.966 1_565 S
Co409 N418 2.022 . S
Co409 N426 1.993 . S
Co409 O434 1.941 . S
C410 O411 1.258 . S
C410 O412 1.263 . S
O411 Co408 1.970 . S
O411 C410 1.258 . S
O412 Co409 1.966 1_545 S
O412 C410 1.263 . S
C413 O414 1.235 . S
C413 O440 1.289 . S
O414 C413 1.235 . S
C415 C417 1.400 . S
C415 N418 1.351 . S
C415 C420 1.501 . S
C416 C417 1.387 . S
C416 N419 1.341 . S
C417 C415 1.400 . S
C417 C416 1.387 . S
N418 Co409 2.022 . S
N418 C415 1.351 . S
N418 N419 1.365 . S
N419 C416 1.341 . S
N419 N418 1.365 . S
N419 H439 0.862 . S
C420 C415 1.501 . S
C420 H421 0.961 . S
C420 H422 0.961 . S
C420 H423 0.960 . S
H421 C420 0.961 . S
H422 C420 0.961 . S
H423 C420 0.960 . S
C424 N425 1.342 . S
C424 C428 1.401 . S
C424 C429 1.499 1_565 S
N425 Co408 1.989 1_565 S
N425 C424 1.342 . S
N425 N426 1.388 . S
N426 Co409 1.993 . S
N426 N425 1.388 . S
N426 C427 1.346 . S
C427 N426 1.346 . S
C427 C428 1.396 . S
C427 C437 1.510 . S
C428 C424 1.401 . S
C428 C427 1.396 . S
C429 C424 1.499 1_545 S
C429 H430 0.959 . S
C429 H431 0.960 . S
C429 H432 0.961 1_545 S
H430 C429 0.959 . S
H431 C429 0.960 . S
H432 C429 0.961 1_565 S
O433 Co408 1.967 . S
O433 C441 1.258 1_545 S
O434 Co409 1.941 . S
O434 C441 1.266 . S
H435 C437 0.959 . S
H436 C437 0.961 . S
C437 C427 1.510 . S
C437 H435 0.959 . S
C437 H436 0.961 . S
C437 H438 0.960 . S
H438 C437 0.960 . S
H439 N419 0.862 . S
O440 Co408 1.920 . S
O440 C413 1.289 . S
C441 O433 1.258 1_565 S
C441 O434 1.266 . S
Co442 O445 1.970 . S
Co442 N459 1.989 1_655 S
Co442 O467 1.967 . S
Co442 O474 1.920 . S
Co443 O446 1.966 1_455 S
Co443 N452 2.022 . S
Co443 N460 1.993 . S
Co443 O468 1.941 . S
C444 O445 1.258 . S
C444 O446 1.263 . S
O445 Co442 1.970 . S
O445 C444 1.258 . S
O446 Co443 1.966 1_655 S
O446 C444 1.263 . S
C447 O448 1.235 . S
C447 O474 1.289 . S
O448 C447 1.235 . S
C449 C451 1.400 . S
C449 N452 1.351 . S
C449 C454 1.501 . S
C450 C451 1.387 . S
C450 N453 1.341 . S
C451 C449 1.400 . S
C451 C450 1.387 . S
N452 Co443 2.022 . S
N452 C449 1.351 . S
N452 N453 1.365 . S
N453 C450 1.341 . S
N453 N452 1.365 . S
N453 H473 0.862 . S
C454 C449 1.501 . S
C454 H455 0.961 . S
C454 H456 0.961 . S
C454 H457 0.960 . S
H455 C454 0.961 . S
H456 C454 0.961 . S
H457 C454 0.960 . S
C458 N459 1.342 . S
C458 C462 1.401 . S
C458 C463 1.499 1_455 S
N459 Co442 1.989 1_455 S
N459 C458 1.342 . S
N459 N460 1.388 . S
N460 Co443 1.993 . S
N460 N459 1.388 . S
N460 C461 1.346 . S
C461 N460 1.346 . S
C461 C462 1.396 . S
C461 C471 1.510 . S
C462 C458 1.401 . S
C462 C461 1.396 . S
C463 C458 1.499 1_655 S
C463 H464 0.959 . S
C463 H465 0.960 . S
C463 H466 0.961 1_655 S
H464 C463 0.959 . S
H465 C463 0.960 . S
H466 C463 0.961 1_455 S
O467 Co442 1.967 . S
O467 C475 1.258 1_655 S
O468 Co443 1.941 . S
O468 C475 1.266 . S
H469 C471 0.959 . S
H470 C471 0.961 . S
C471 C461 1.510 . S
C471 H469 0.959 . S
C471 H470 0.961 . S
C471 H472 0.960 . S
H472 C471 0.960 . S
H473 N453 0.862 . S
O474 Co442 1.920 . S
O474 C447 1.289 . S
C475 O467 1.258 1_455 S
C475 O468 1.266 . S
Co476 O479 1.970 . S
Co476 N493 1.989 . S
Co476 O501 1.967 . S
Co476 O508 1.920 . S
Co477 O480 1.966 . S
Co477 N486 2.022 . S
Co477 N494 1.993 . S
Co477 O502 1.941 . S
C478 O479 1.258 . S
C478 O480 1.263 . S
O479 Co476 1.970 . S
O479 C478 1.258 . S
O480 Co477 1.966 . S
O480 C478 1.263 . S
C481 O482 1.235 . S
C481 O508 1.289 . S
O482 C481 1.235 . S
C483 C485 1.400 . S
C483 N486 1.351 . S
C483 C488 1.501 . S
C484 C485 1.387 . S
C484 N487 1.341 . S
C485 C483 1.400 . S
C485 C484 1.387 . S
N486 Co477 2.022 . S
N486 C483 1.351 . S
N486 N487 1.365 . S
N487 C484 1.341 . S
N487 N486 1.365 . S
N487 H507 0.862 . S
C488 C483 1.501 . S
C488 H489 0.961 . S
C488 H490 0.961 . S
C488 H491 0.960 . S
H489 C488 0.961 . S
H490 C488 0.961 . S
H491 C488 0.960 . S
C492 N493 1.342 . S
C492 C496 1.401 . S
C492 C497 1.499 . S
N493 Co476 1.989 . S
N493 C492 1.342 . S
N493 N494 1.388 . S
N494 Co477 1.993 . S
N494 N493 1.388 . S
N494 C495 1.346 . S
C495 N494 1.346 . S
C495 C496 1.396 . S
C495 C505 1.510 . S
C496 C492 1.401 . S
C496 C495 1.396 . S
C497 C492 1.499 . S
C497 H498 0.959 . S
C497 H499 0.960 . S
C497 H500 0.961 . S
H498 C497 0.959 . S
H499 C497 0.960 . S
H500 C497 0.961 . S
O501 Co476 1.967 . S
O501 C509 1.258 . S
O502 Co477 1.941 . S
O502 C509 1.266 . S
H503 C505 0.959 . S
H504 C505 0.961 . S
C505 C495 1.510 . S
C505 H503 0.959 . S
C505 H504 0.961 . S
C505 H506 0.960 . S
H506 C505 0.960 . S
H507 N487 0.862 . S
O508 Co476 1.920 . S
O508 C481 1.289 . S
C509 O501 1.258 . S
C509 O502 1.266 . S
Co510 O513 1.970 . S
Co510 N527 1.989 . S
Co510 O535 1.967 . S
Co510 O542 1.920 . S
Co511 O514 1.966 . S
Co511 N520 2.022 . S
Co511 N528 1.993 . S
Co511 O536 1.941 . S
C512 O513 1.258 . S
C512 O514 1.263 . S
O513 Co510 1.970 . S
O513 C512 1.258 . S
O514 Co511 1.966 . S
O514 C512 1.263 . S
C515 O516 1.235 . S
C515 O542 1.289 . S
O516 C515 1.235 . S
C517 C519 1.400 . S
C517 N520 1.351 . S
C517 C522 1.501 . S
C518 C519 1.387 . S
C518 N521 1.341 . S
C519 C517 1.400 . S
C519 C518 1.387 . S
N520 Co511 2.022 . S
N520 C517 1.351 . S
N520 N521 1.365 . S
N521 C518 1.341 . S
N521 N520 1.365 . S
N521 H541 0.862 . S
C522 C517 1.501 . S
C522 H523 0.961 . S
C522 H524 0.961 . S
C522 H525 0.960 . S
H523 C522 0.961 . S
H524 C522 0.961 . S
H525 C522 0.960 . S
C526 N527 1.342 . S
C526 C530 1.401 . S
C526 C531 1.499 . S
N527 Co510 1.989 . S
N527 C526 1.342 . S
N527 N528 1.388 . S
N528 Co511 1.993 . S
N528 N527 1.388 . S
N528 C529 1.346 . S
C529 N528 1.346 . S
C529 C530 1.396 . S
C529 C539 1.510 . S
C530 C526 1.401 . S
C530 C529 1.396 . S
C531 C526 1.499 . S
C531 H532 0.959 . S
C531 H533 0.960 . S
C531 H534 0.961 . S
H532 C531 0.959 . S
H533 C531 0.960 . S
H534 C531 0.961 . S
O535 Co510 1.967 . S
O535 C543 1.258 . S
O536 Co511 1.941 . S
O536 C543 1.266 . S
H537 C539 0.959 . S
H538 C539 0.961 . S
C539 C529 1.510 . S
C539 H537 0.959 . S
C539 H538 0.961 . S
C539 H540 0.960 . S
H540 C539 0.960 . S
H541 N521 0.862 . S
O542 Co510 1.920 . S
O542 C515 1.289 . S
C543 O535 1.258 . S
C543 O536 1.266 . S
Co544 O547 1.970 . S
Co544 N561 1.989 . S
Co544 O569 1.967 . S
Co544 O576 1.920 . S
Co545 O548 1.966 . S
Co545 N554 2.022 . S
Co545 N562 1.993 . S
Co545 O570 1.941 . S
C546 O547 1.258 . S
C546 O548 1.263 . S
O547 Co544 1.970 . S
O547 C546 1.258 . S
O548 Co545 1.966 . S
O548 C546 1.263 . S
C549 O550 1.235 . S
C549 O576 1.289 . S
O550 C549 1.235 . S
C551 C553 1.400 . S
C551 N554 1.351 . S
C551 C556 1.501 . S
C552 C553 1.387 . S
C552 N555 1.341 . S
C553 C551 1.400 . S
C553 C552 1.387 . S
N554 Co545 2.022 . S
N554 C551 1.351 . S
N554 N555 1.365 . S
N555 C552 1.341 . S
N555 N554 1.365 . S
N555 H575 0.862 . S
C556 C551 1.501 . S
C556 H557 0.961 . S
C556 H558 0.961 . S
C556 H559 0.960 . S
H557 C556 0.961 . S
H558 C556 0.961 . S
H559 C556 0.960 . S
C560 N561 1.342 . S
C560 C564 1.401 . S
C560 C565 1.499 . S
N561 Co544 1.989 . S
N561 C560 1.342 . S
N561 N562 1.388 . S
N562 Co545 1.993 . S
N562 N561 1.388 . S
N562 C563 1.346 . S
C563 N562 1.346 . S
C563 C564 1.396 . S
C563 C573 1.510 . S
C564 C560 1.401 . S
C564 C563 1.396 . S
C565 C560 1.499 . S
C565 H566 0.959 . S
C565 H567 0.960 . S
C565 H568 0.961 . S
H566 C565 0.959 . S
H567 C565 0.960 . S
H568 C565 0.961 . S
O569 Co544 1.967 . S
O569 C577 1.258 . S
O570 Co545 1.941 . S
O570 C577 1.266 . S
H571 C573 0.959 . S
H572 C573 0.961 . S
C573 C563 1.510 . S
C573 H571 0.959 . S
C573 H572 0.961 . S
C573 H574 0.960 . S
H574 C573 0.960 . S
H575 N555 0.862 . S
O576 Co544 1.920 . S
O576 C549 1.289 . S
C577 O569 1.258 . S
C577 O570 1.266 . S
Co578 O581 1.970 . S
Co578 N595 1.989 . S
Co578 O603 1.967 . S
Co578 O610 1.920 . S
Co579 O582 1.966 . S
Co579 N588 2.022 . S
Co579 N596 1.993 . S
Co579 O604 1.941 . S
C580 O581 1.258 . S
C580 O582 1.263 . S
O581 Co578 1.970 . S
O581 C580 1.258 . S
O582 Co579 1.966 . S
O582 C580 1.263 . S
C583 O584 1.235 . S
C583 O610 1.289 . S
O584 C583 1.235 . S
C585 C587 1.400 . S
C585 N588 1.351 . S
C585 C590 1.501 . S
C586 C587 1.387 . S
C586 N589 1.341 . S
C587 C585 1.400 . S
C587 C586 1.387 . S
N588 Co579 2.022 . S
N588 C585 1.351 . S
N588 N589 1.365 . S
N589 C586 1.341 . S
N589 N588 1.365 . S
N589 H609 0.862 . S
C590 C585 1.501 . S
C590 H591 0.961 . S
C590 H592 0.961 . S
C590 H593 0.960 . S
H591 C590 0.961 . S
H592 C590 0.961 . S
H593 C590 0.960 . S
C594 N595 1.342 . S
C594 C598 1.401 . S
C594 C599 1.499 . S
N595 Co578 1.989 . S
N595 C594 1.342 . S
N595 N596 1.388 . S
N596 Co579 1.993 . S
N596 N595 1.388 . S
N596 C597 1.346 . S
C597 N596 1.346 . S
C597 C598 1.396 . S
C597 C607 1.510 . S
C598 C594 1.401 . S
C598 C597 1.396 . S
C599 C594 1.499 . S
C599 H600 0.959 . S
C599 H601 0.960 . S
C599 H602 0.961 . S
H600 C599 0.959 . S
H601 C599 0.960 . S
H602 C599 0.961 . S
O603 Co578 1.967 . S
O603 C611 1.258 . S
O604 Co579 1.941 . S
O604 C611 1.266 . S
H605 C607 0.959 . S
H606 C607 0.961 . S
C607 C597 1.510 . S
C607 H605 0.959 . S
C607 H606 0.961 . S
C607 H608 0.960 . S
H608 C607 0.960 . S
H609 N589 0.862 . S
O610 Co578 1.920 . S
O610 C583 1.289 . S
C611 O603 1.258 . S
C611 O604 1.266 . S
C612 C613 1.349 . S
C612 C614 1.327 . S
C612 H637 0.950 . S
C613 C612 1.349 . S
C613 C629 1.349 . S
C614 C612 1.327 . S
C614 C633 1.429 . S
C614 H638 0.950 . S
C615 C632 1.574 . S
C615 C634 1.368 1_554 S
C615 H639 0.949 . S
H616 C620 0.949 . S
C617 C618 1.349 . S
C617 C619 1.327 . S
C617 H640 0.950 . S
C618 C617 1.349 . S
C618 C630 1.349 . S
C619 C617 1.327 . S
C619 C635 1.429 . S
C619 H641 0.950 . S
C620 H616 0.949 . S
C620 C628 1.574 . S
C620 C636 1.368 1_556 S
H621 C629 0.950 . S
H622 C627 0.950 . S
H623 C628 0.949 . S
H624 C630 0.950 . S
H625 C631 0.950 . S
H626 C632 0.949 . S
C627 H622 0.950 . S
C627 C629 1.327 . S
C627 C633 1.429 . S
C628 C620 1.574 . S
C628 H623 0.949 . S
C628 C634 1.368 . S
C629 C613 1.349 . S
C629 H621 0.950 . S
C629 C627 1.327 . S
C630 C618 1.349 . S
C630 H624 0.950 . S
C630 C631 1.327 . S
C631 H625 0.950 . S
C631 C630 1.327 . S
C631 C635 1.429 . S
C632 C615 1.574 . S
C632 H626 0.949 . S
C632 C636 1.368 . S
C633 C614 1.429 . S
C633 C627 1.429 . S
C633 C634 1.523 . S
C634 C615 1.368 1_556 S
C634 C628 1.368 . S
C634 C633 1.523 . S
C635 C619 1.429 . S
C635 C631 1.429 . S
C635 C636 1.523 . S
C636 C620 1.368 1_554 S
C636 C632 1.368 . S
C636 C635 1.523 . S
H637 C612 0.950 . S
H638 C614 0.950 . S
H639 C615 0.949 . S
H640 C617 0.950 . S
H641 C619 0.950 . S
C642 C643 1.349 . S
C642 C644 1.327 . S
C642 H667 0.950 . S
C643 C642 1.349 . S
C643 C659 1.349 . S
C644 C642 1.327 . S
C644 C663 1.429 . S
C644 H668 0.950 . S
C645 C662 1.574 1_565 S
C645 C664 1.368 . S
C645 H669 0.949 . S
H646 C650 0.949 . S
C647 C648 1.349 . S
C647 C649 1.327 . S
C647 H670 0.950 . S
C648 C647 1.349 . S
C648 C660 1.349 . S
C649 C647 1.327 . S
C649 C665 1.429 . S
C649 H671 0.950 . S
C650 H646 0.949 . S
C650 C658 1.574 1_545 S
C650 C666 1.368 . S
H651 C659 0.950 . S
H652 C657 0.950 . S
H653 C658 0.949 . S
H654 C660 0.950 . S
H655 C661 0.950 . S
H656 C662 0.949 . S
C657 H652 0.950 . S
C657 C659 1.327 . S
C657 C663 1.429 . S
C658 C650 1.574 1_565 S
C658 H653 0.949 . S
C658 C664 1.368 1_556 S
C659 C643 1.349 . S
C659 H651 0.950 . S
C659 C657 1.327 . S
C660 C648 1.349 . S
C660 H654 0.950 . S
C660 C661 1.327 . S
C661 H655 0.950 . S
C661 C660 1.327 . S
C661 C665 1.429 . S
C662 C645 1.574 1_545 S
C662 H656 0.949 . S
C662 C666 1.368 1_554 S
C663 C644 1.429 . S
C663 C657 1.429 . S
C663 C664 1.523 . S
C664 C645 1.368 . S
C664 C658 1.368 1_554 S
C664 C663 1.523 . S
C665 C649 1.429 . S
C665 C661 1.429 . S
C665 C666 1.523 . S
C666 C650 1.368 . S
C666 C662 1.368 1_556 S
C666 C665 1.523 . S
H667 C642 0.950 . S
H668 C644 0.950 . S
H669 C645 0.949 . S
H670 C647 0.950 . S
H671 C649 0.950 . S
C672 C673 1.349 . S
C672 C674 1.327 . S
C672 H697 0.950 . S
C673 C672 1.349 . S
C673 C689 1.349 . S
C674 C672 1.327 . S
C674 C693 1.429 . S
C674 H698 0.950 . S
C675 C692 1.574 1_455 S
C675 C694 1.368 1_556 S
C675 H699 0.949 . S
H676 C680 0.949 . S
C677 C678 1.349 . S
C677 C679 1.327 . S
C677 H700 0.950 . S
C678 C677 1.349 . S
C678 C690 1.349 . S
C679 C677 1.327 . S
C679 C695 1.429 . S
C679 H701 0.950 . S
C680 H676 0.949 . S
C680 C688 1.574 1_655 S
C680 C696 1.368 1_554 S
H681 C689 0.950 . S
H682 C687 0.950 . S
H683 C688 0.949 . S
H684 C690 0.950 . S
H685 C691 0.950 . S
H686 C692 0.949 . S
C687 H682 0.950 . S
C687 C689 1.327 . S
C687 C693 1.429 . S
C688 C680 1.574 1_455 S
C688 H683 0.949 . S
C688 C694 1.368 . S
C689 C673 1.349 . S
C689 H681 0.950 . S
C689 C687 1.327 . S
C690 C678 1.349 . S
C690 H684 0.950 . S
C690 C691 1.327 . S
C691 H685 0.950 . S
C691 C690 1.327 . S
C691 C695 1.429 . S
C692 C675 1.574 1_655 S
C692 H686 0.949 . S
C692 C696 1.368 . S
C693 C674 1.429 . S
C693 C687 1.429 . S
C693 C694 1.523 . S
C694 C675 1.368 1_554 S
C694 C688 1.368 . S
C694 C693 1.523 . S
C695 C679 1.429 . S
C695 C691 1.429 . S
C695 C696 1.523 . S
C696 C680 1.368 1_556 S
C696 C692 1.368 . S
C696 C695 1.523 . S
H697 C672 0.950 . S
H698 C674 0.950 . S
H699 C675 0.949 . S
H700 C677 0.950 . S
H701 C679 0.950 . S
C702 C703 1.349 . S
C702 C704 1.327 . S
C702 H727 0.950 . S
C703 C702 1.349 . S
C703 C719 1.349 . S
C704 C702 1.327 . S
C704 C723 1.429 . S
C704 H728 0.950 . S
C705 C722 1.574 . S
C705 C724 1.368 1_554 S
C705 H729 0.949 . S
H706 C710 0.949 . S
C707 C708 1.349 . S
C707 C709 1.327 . S
C707 H730 0.950 . S
C708 C707 1.349 . S
C708 C720 1.349 . S
C709 C707 1.327 . S
C709 C725 1.429 . S
C709 H731 0.950 . S
C710 H706 0.949 . S
C710 C718 1.574 . S
C710 C726 1.368 1_556 S
H711 C719 0.950 . S
H712 C717 0.950 1_554 S
H713 C718 0.949 . S
H714 C720 0.950 . S
H715 C721 0.950 1_556 S
H716 C722 0.949 . S
C717 H712 0.950 1_556 S
C717 C719 1.327 . S
C717 C723 1.429 . S
C718 C710 1.574 . S
C718 H713 0.949 . S
C718 C724 1.368 . S
C719 C703 1.349 . S
C719 H711 0.950 . S
C719 C717 1.327 . S
C720 C708 1.349 . S
C720 H714 0.950 . S
C720 C721 1.327 . S
C721 H715 0.950 1_554 S
C721 C720 1.327 . S
C721 C725 1.429 . S
C722 C705 1.574 . S
C722 H716 0.949 . S
C722 C726 1.368 . S
C723 C704 1.429 . S
C723 C717 1.429 . S
C723 C724 1.523 . S
C724 C705 1.368 1_556 S
C724 C718 1.368 . S
C724 C723 1.523 . S
C725 C709 1.429 . S
C725 C721 1.429 . S
C725 C726 1.523 . S
C726 C710 1.368 1_554 S
C726 C722 1.368 . S
C726 C725 1.523 . S
H727 C702 0.950 . S
H728 C704 0.950 . S
H729 C705 0.949 . S
H730 C707 0.950 . S
H731 C709 0.950 . S
C732 C733 1.349 . S
C732 C734 1.327 . S
C732 H757 0.950 . S
C733 C732 1.349 . S
C733 C749 1.349 . S
C734 C732 1.327 . S
C734 C753 1.429 . S
C734 H758 0.950 . S
C735 C752 1.574 1_545 S
C735 C754 1.368 1_554 S
C735 H759 0.949 . S
H736 C740 0.949 . S
C737 C738 1.349 . S
C737 C739 1.327 . S
C737 H760 0.950 . S
C738 C737 1.349 . S
C738 C750 1.349 . S
C739 C737 1.327 . S
C739 C755 1.429 . S
C739 H761 0.950 . S
C740 H736 0.949 . S
C740 C748 1.574 1_565 S
C740 C756 1.368 1_556 S
H741 C749 0.950 . S
H742 C747 0.950 1_554 S
H743 C748 0.949 . S
H744 C750 0.950 . S
H745 C751 0.950 1_556 S
H746 C752 0.949 . S
C747 H742 0.950 1_556 S
C747 C749 1.327 . S
C747 C753 1.429 . S
C748 C740 1.574 1_545 S
C748 H743 0.949 . S
C748 C754 1.368 . S
C749 C733 1.349 . S
C749 H741 0.950 . S
C749 C747 1.327 . S
C750 C738 1.349 . S
C750 H744 0.950 . S
C750 C751 1.327 . S
C751 H745 0.950 1_554 S
C751 C750 1.327 . S
C751 C755 1.429 . S
C752 C735 1.574 1_565 S
C752 H746 0.949 . S
C752 C756 1.368 . S
C753 C734 1.429 . S
C753 C747 1.429 . S
C753 C754 1.523 . S
C754 C735 1.368 1_556 S
C754 C748 1.368 . S
C754 C753 1.523 . S
C755 C739 1.429 . S
C755 C751 1.429 . S
C755 C756 1.523 . S
C756 C740 1.368 1_554 S
C756 C752 1.368 . S
C756 C755 1.523 . S
H757 C732 0.950 . S
H758 C734 0.950 . S
H759 C735 0.949 . S
H760 C737 0.950 . S
H761 C739 0.950 . S
C762 C763 1.349 . S
C762 C764 1.327 . S
C762 H787 0.950 . S
C763 C762 1.349 . S
C763 C779 1.349 . S
C764 C762 1.327 . S
C764 C783 1.429 . S
C764 H788 0.950 . S
C765 C782 1.574 1_655 S
C765 C784 1.368 1_554 S
C765 H789 0.949 . S
H766 C770 0.949 . S
C767 C768 1.349 . S
C767 C769 1.327 . S
C767 H790 0.950 . S
C768 C767 1.349 . S
C768 C780 1.349 . S
C769 C767 1.327 . S
C769 C785 1.429 . S
C769 H791 0.950 . S
C770 H766 0.949 . S
C770 C778 1.574 1_455 S
C770 C786 1.368 1_556 S
H771 C779 0.950 . S
H772 C777 0.950 . S
H773 C778 0.949 . S
H774 C780 0.950 . S
H775 C781 0.950 . S
H776 C782 0.949 . S
C777 H772 0.950 . S
C777 C779 1.327 . S
C777 C783 1.429 . S
C778 C770 1.574 1_655 S
C778 H773 0.949 . S
C778 C784 1.368 . S
C779 C763 1.349 . S
C779 H771 0.950 . S
C779 C777 1.327 . S
C780 C768 1.349 . S
C780 H774 0.950 . S
C780 C781 1.327 . S
C781 H775 0.950 . S
C781 C780 1.327 . S
C781 C785 1.429 . S
C782 C765 1.574 1_455 S
C782 H776 0.949 . S
C782 C786 1.368 . S
C783 C764 1.429 . S
C783 C777 1.429 . S
C783 C784 1.523 . S
C784 C765 1.368 1_556 S
C784 C778 1.368 . S
C784 C783 1.523 . S
C785 C769 1.429 . S
C785 C781 1.429 . S
C785 C786 1.523 . S
C786 C770 1.368 1_554 S
C786 C782 1.368 . S
C786 C785 1.523 . S
H787 C762 0.950 . S
H788 C764 0.950 . S
H789 C765 0.949 . S
H790 C767 0.950 . S
H791 C769 0.950 . S
C792 C793 1.349 . S
C792 C794 1.327 . S
C792 H817 0.950 . S
C793 C792 1.349 . S
C793 C809 1.349 . S
C794 C792 1.327 . S
C794 C813 1.429 . S
C794 H818 0.950 . S
C795 C812 1.574 . S
C795 C814 1.368 . S
C795 H819 0.949 . S
H796 C800 0.949 . S
C797 C798 1.349 . S
C797 C799 1.327 . S
C797 H820 0.950 . S
C798 C797 1.349 . S
C798 C810 1.349 . S
C799 C797 1.327 . S
C799 C815 1.429 . S
C799 H821 0.950 . S
C800 H796 0.949 . S
C800 C808 1.574 . S
C800 C816 1.368 . S
H801 C809 0.950 . S
H802 C807 0.950 . S
H803 C808 0.949 . S
H804 C810 0.950 . S
H805 C811 0.950 . S
H806 C812 0.949 . S
C807 H802 0.950 . S
C807 C809 1.327 . S
C807 C813 1.429 . S
C808 C800 1.574 . S
C808 H803 0.949 . S
C808 C814 1.368 . S
C809 C793 1.349 . S
C809 H801 0.950 . S
C809 C807 1.327 . S
C810 C798 1.349 . S
C810 H804 0.950 . S
C810 C811 1.327 . S
C811 H805 0.950 . S
C811 C810 1.327 . S
C811 C815 1.429 . S
C812 C795 1.574 . S
C812 H806 0.949 . S
C812 C816 1.368 . S
C813 C794 1.429 . S
C813 C807 1.429 . S
C813 C814 1.523 . S
C814 C795 1.368 . S
C814 C808 1.368 . S
C814 C813 1.523 . S
C815 C799 1.429 . S
C815 C811 1.429 . S
C815 C816 1.523 . S
C816 C800 1.368 . S
C816 C812 1.368 . S
C816 C815 1.523 . S
H817 C792 0.950 . S
H818 C794 0.950 . S
H819 C795 0.949 . S
H820 C797 0.950 . S
H821 C799 0.950 . S
C822 C823 1.349 . S
C822 C824 1.327 . S
C822 H847 0.950 . S
C823 C822 1.349 . S
C823 C839 1.349 . S
C824 C822 1.327 . S
C824 C843 1.429 . S
C824 H848 0.950 . S
C825 C842 1.574 . S
C825 C844 1.368 . S
C825 H849 0.949 . S
H826 C830 0.949 . S
C827 C828 1.349 . S
C827 C829 1.327 . S
C827 H850 0.950 . S
C828 C827 1.349 . S
C828 C840 1.349 . S
C829 C827 1.327 . S
C829 C845 1.429 . S
C829 H851 0.950 . S
C830 H826 0.949 . S
C830 C838 1.574 . S
C830 C846 1.368 . S
H831 C839 0.950 . S
H832 C837 0.950 . S
H833 C838 0.949 . S
H834 C840 0.950 . S
H835 C841 0.950 . S
H836 C842 0.949 . S
C837 H832 0.950 . S
C837 C839 1.327 . S
C837 C843 1.429 . S
C838 C830 1.574 . S
C838 H833 0.949 . S
C838 C844 1.368 . S
C839 C823 1.349 . S
C839 H831 0.950 . S
C839 C837 1.327 . S
C840 C828 1.349 . S
C840 H834 0.950 . S
C840 C841 1.327 . S
C841 H835 0.950 . S
C841 C840 1.327 . S
C841 C845 1.429 . S
C842 C825 1.574 . S
C842 H836 0.949 . S
C842 C846 1.368 . S
C843 C824 1.429 . S
C843 C837 1.429 . S
C843 C844 1.523 . S
C844 C825 1.368 . S
C844 C838 1.368 . S
C844 C843 1.523 . S
C845 C829 1.429 . S
C845 C841 1.429 . S
C845 C846 1.523 . S
C846 C830 1.368 . S
C846 C842 1.368 . S
C846 C845 1.523 . S
H847 C822 0.950 . S
H848 C824 0.950 . S
H849 C825 0.949 . S
H850 C827 0.950 . S
H851 C829 0.950 . S
C852 C853 1.349 . S
C852 C854 1.327 . S
C852 H877 0.950 . S
C853 C852 1.349 . S
C853 C869 1.349 . S
C854 C852 1.327 . S
C854 C873 1.429 . S
C854 H878 0.950 . S
C855 C872 1.574 . S
C855 C874 1.368 . S
C855 H879 0.949 . S
H856 C860 0.949 . S
C857 C858 1.349 . S
C857 C859 1.327 . S
C857 H880 0.950 . S
C858 C857 1.349 . S
C858 C870 1.349 . S
C859 C857 1.327 . S
C859 C875 1.429 . S
C859 H881 0.950 . S
C860 H856 0.949 . S
C860 C868 1.574 . S
C860 C876 1.368 . S
H861 C869 0.950 . S
H862 C867 0.950 . S
H863 C868 0.949 . S
H864 C870 0.950 . S
H865 C871 0.950 . S
H866 C872 0.949 . S
C867 H862 0.950 . S
C867 C869 1.327 . S
C867 C873 1.429 . S
C868 C860 1.574 . S
C868 H863 0.949 . S
C868 C874 1.368 . S
C869 C853 1.349 . S
C869 H861 0.950 . S
C869 C867 1.327 . S
C870 C858 1.349 . S
C870 H864 0.950 . S
C870 C871 1.327 . S
C871 H865 0.950 . S
C871 C870 1.327 . S
C871 C875 1.429 . S
C872 C855 1.574 . S
C872 H866 0.949 . S
C872 C876 1.368 . S
C873 C854 1.429 . S
C873 C867 1.429 . S
C873 C874 1.523 . S
C874 C855 1.368 . S
C874 C868 1.368 . S
C874 C873 1.523 . S
C875 C859 1.429 . S
C875 C871 1.429 . S
C875 C876 1.523 . S
C876 C860 1.368 . S
C876 C872 1.368 . S
C876 C875 1.523 . S
H877 C852 0.950 . S
H878 C854 0.950 . S
H879 C855 0.949 . S
H880 C857 0.950 . S
H881 C859 0.950 . S
C882 C883 1.349 . S
C882 C884 1.327 . S
C882 H907 0.950 . S
C883 C882 1.349 . S
C883 C899 1.349 . S
C884 C882 1.327 . S
C884 C903 1.429 . S
C884 H908 0.950 . S
C885 C902 1.574 . S
C885 C904 1.368 . S
C885 H909 0.949 . S
H886 C890 0.949 . S
C887 C888 1.349 . S
C887 C889 1.327 . S
C887 H910 0.950 . S
C888 C887 1.349 . S
C888 C900 1.349 . S
C889 C887 1.327 . S
C889 C905 1.429 . S
C889 H911 0.950 . S
C890 H886 0.949 . S
C890 C898 1.574 . S
C890 C906 1.368 . S
H891 C899 0.950 . S
H892 C897 0.950 . S
H893 C898 0.949 . S
H894 C900 0.950 . S
H895 C901 0.950 . S
H896 C902 0.949 . S
C897 H892 0.950 . S
C897 C899 1.327 . S
C897 C903 1.429 . S
C898 C890 1.574 . S
C898 H893 0.949 . S
C898 C904 1.368 . S
C899 C883 1.349 . S
C899 H891 0.950 . S
C899 C897 1.327 . S
C900 C888 1.349 . S
C900 H894 0.950 . S
C900 C901 1.327 . S
C901 H895 0.950 . S
C901 C900 1.327 . S
C901 C905 1.429 . S
C902 C885 1.574 . S
C902 H896 0.949 . S
C902 C906 1.368 . S
C903 C884 1.429 . S
C903 C897 1.429 . S
C903 C904 1.523 . S
C904 C885 1.368 . S
C904 C898 1.368 . S
C904 C903 1.523 . S
C905 C889 1.429 . S
C905 C901 1.429 . S
C905 C906 1.523 . S
C906 C890 1.368 . S
C906 C902 1.368 . S
C906 C905 1.523 . S
H907 C882 0.950 . S
H908 C884 0.950 . S
H909 C885 0.949 . S
H910 C887 0.950 . S
H911 C889 0.950 . S
C912 C913 1.349 . S
C912 C914 1.327 . S
C912 H937 0.950 . S
C913 C912 1.349 . S
C913 C929 1.349 . S
C914 C912 1.327 . S
C914 C933 1.429 . S
C914 H938 0.950 . S
C915 C932 1.574 . S
C915 C934 1.368 . S
C915 H939 0.949 . S
H916 C920 0.949 . S
C917 C918 1.349 . S
C917 C919 1.327 . S
C917 H940 0.950 . S
C918 C917 1.349 . S
C918 C930 1.349 . S
C919 C917 1.327 . S
C919 C935 1.429 . S
C919 H941 0.950 . S
C920 H916 0.949 . S
C920 C928 1.574 . S
C920 C936 1.368 . S
H921 C929 0.950 . S
H922 C927 0.950 . S
H923 C928 0.949 . S
H924 C930 0.950 . S
H925 C931 0.950 . S
H926 C932 0.949 . S
C927 H922 0.950 . S
C927 C929 1.327 . S
C927 C933 1.429 . S
C928 C920 1.574 . S
C928 H923 0.949 . S
C928 C934 1.368 . S
C929 C913 1.349 . S
C929 H921 0.950 . S
C929 C927 1.327 . S
C930 C918 1.349 . S
C930 H924 0.950 . S
C930 C931 1.327 . S
C931 H925 0.950 . S
C931 C930 1.327 . S
C931 C935 1.429 . S
C932 C915 1.574 . S
C932 H926 0.949 . S
C932 C936 1.368 . S
C933 C914 1.429 . S
C933 C927 1.429 . S
C933 C934 1.523 . S
C934 C915 1.368 . S
C934 C928 1.368 . S
C934 C933 1.523 . S
C935 C919 1.429 . S
C935 C931 1.429 . S
C935 C936 1.523 . S
C936 C920 1.368 . S
C936 C932 1.368 . S
C936 C935 1.523 . S
H937 C912 0.950 . S
H938 C914 0.950 . S
H939 C915 0.949 . S
H940 C917 0.950 . S
H941 C919 0.950 . S
C942 C943 1.349 . S
C942 C944 1.327 . S
C942 H967 0.950 . S
C943 C942 1.349 . S
C943 C959 1.349 . S
C944 C942 1.327 . S
C944 C963 1.429 . S
C944 H968 0.950 . S
C945 C962 1.574 . S
C945 C964 1.368 . S
C945 H969 0.949 . S
H946 C950 0.949 . S
C947 C948 1.349 . S
C947 C949 1.327 . S
C947 H970 0.950 . S
C948 C947 1.349 . S
C948 C960 1.349 . S
C949 C947 1.327 . S
C949 C965 1.429 . S
C949 H971 0.950 . S
C950 H946 0.949 . S
C950 C958 1.574 . S
C950 C966 1.368 . S
H951 C959 0.950 . S
H952 C957 0.950 . S
H953 C958 0.949 . S
H954 C960 0.950 . S
H955 C961 0.950 . S
H956 C962 0.949 . S
C957 H952 0.950 . S
C957 C959 1.327 . S
C957 C963 1.429 . S
C958 C950 1.574 . S
C958 H953 0.949 . S
C958 C964 1.368 . S
C959 C943 1.349 . S
C959 H951 0.950 . S
C959 C957 1.327 . S
C960 C948 1.349 . S
C960 H954 0.950 . S
C960 C961 1.327 . S
C961 H955 0.950 . S
C961 C960 1.327 . S
C961 C965 1.429 . S
C962 C945 1.574 . S
C962 H956 0.949 . S
C962 C966 1.368 . S
C963 C944 1.429 . S
C963 C957 1.429 . S
C963 C964 1.523 . S
C964 C945 1.368 . S
C964 C958 1.368 . S
C964 C963 1.523 . S
C965 C949 1.429 . S
C965 C961 1.429 . S
C965 C966 1.523 . S
C966 C950 1.368 . S
C966 C962 1.368 . S
C966 C965 1.523 . S
H967 C942 0.950 . S
H968 C944 0.950 . S
H969 C945 0.949 . S
H970 C947 0.950 . S
H971 C949 0.950 . S
C972 C973 1.349 . S
C972 C974 1.327 . S
C972 H997 0.950 . S
C973 C972 1.349 . S
C973 C989 1.349 . S
C974 C972 1.327 . S
C974 C993 1.429 . S
C974 H998 0.950 . S
C975 C992 1.574 . S
C975 C994 1.368 . S
C975 H999 0.949 . S
H976 C980 0.949 . S
C977 C978 1.349 . S
C977 C979 1.327 . S
C977 H1000 0.950 . S
C978 C977 1.349 . S
C978 C990 1.349 . S
C979 C977 1.327 . S
C979 C995 1.429 . S
C979 H1001 0.950 . S
C980 H976 0.949 . S
C980 C988 1.574 . S
C980 C996 1.368 . S
H981 C989 0.950 . S
H982 C987 0.950 . S
H983 C988 0.949 . S
H984 C990 0.950 . S
H985 C991 0.950 . S
H986 C992 0.949 . S
C987 H982 0.950 . S
C987 C989 1.327 . S
C987 C993 1.429 . S
C988 C980 1.574 . S
C988 H983 0.949 . S
C988 C994 1.368 . S
C989 C973 1.349 . S
C989 H981 0.950 . S
C989 C987 1.327 . S
C990 C978 1.349 . S
C990 H984 0.950 . S
C990 C991 1.327 . S
C991 H985 0.950 . S
C991 C990 1.327 . S
C991 C995 1.429 . S
C992 C975 1.574 . S
C992 H986 0.949 . S
C992 C996 1.368 . S
C993 C974 1.429 . S
C993 C987 1.429 . S
C993 C994 1.523 . S
C994 C975 1.368 . S
C994 C988 1.368 . S
C994 C993 1.523 . S
C995 C979 1.429 . S
C995 C991 1.429 . S
C995 C996 1.523 . S
C996 C980 1.368 . S
C996 C992 1.368 . S
C996 C995 1.523 . S
H997 C972 0.950 . S
H998 C974 0.950 . S
H999 C975 0.949 . S
H1000 C977 0.950 . S
H1001 C979 0.950 . S
C1002 C1003 1.349 . S
C1002 C1004 1.327 . S
C1002 H1027 0.950 . S
C1003 C1002 1.349 . S
C1003 C1019 1.349 . S
C1004 C1002 1.327 . S
C1004 C1023 1.429 . S
C1004 H1028 0.950 . S
C1005 C1022 1.574 . S
C1005 C1024 1.368 . S
C1005 H1029 0.949 . S
H1006 C1010 0.949 . S
C1007 C1008 1.349 . S
C1007 C1009 1.327 . S
C1007 H1030 0.950 . S
C1008 C1007 1.349 . S
C1008 C1020 1.349 . S
C1009 C1007 1.327 . S
C1009 C1025 1.429 . S
C1009 H1031 0.950 . S
C1010 H1006 0.949 . S
C1010 C1018 1.574 . S
C1010 C1026 1.368 . S
H1011 C1019 0.950 . S
H1012 C1017 0.950 . S
H1013 C1018 0.949 . S
H1014 C1020 0.950 . S
H1015 C1021 0.950 . S
H1016 C1022 0.949 . S
C1017 H1012 0.950 . S
C1017 C1019 1.327 . S
C1017 C1023 1.429 . S
C1018 C1010 1.574 . S
C1018 H1013 0.949 . S
C1018 C1024 1.368 . S
C1019 C1003 1.349 . S
C1019 H1011 0.950 . S
C1019 C1017 1.327 . S
C1020 C1008 1.349 . S
C1020 H1014 0.950 . S
C1020 C1021 1.327 . S
C1021 H1015 0.950 . S
C1021 C1020 1.327 . S
C1021 C1025 1.429 . S
C1022 C1005 1.574 . S
C1022 H1016 0.949 . S
C1022 C1026 1.368 . S
C1023 C1004 1.429 . S
C1023 C1017 1.429 . S
C1023 C1024 1.523 . S
C1024 C1005 1.368 . S
C1024 C1018 1.368 . S
C1024 C1023 1.523 . S
C1025 C1009 1.429 . S
C1025 C1021 1.429 . S
C1025 C1026 1.523 . S
C1026 C1010 1.368 . S
C1026 C1022 1.368 . S
C1026 C1025 1.523 . S
H1027 C1002 0.950 . S
H1028 C1004 0.950 . S
H1029 C1005 0.949 . S
H1030 C1007 0.950 . S
H1031 C1009 0.950 . S
C1032 C1033 1.349 . S
C1032 C1034 1.327 . S
C1032 H1057 0.950 . S
C1033 C1032 1.349 . S
C1033 C1049 1.349 . S
C1034 C1032 1.327 . S
C1034 C1053 1.429 . S
C1034 H1058 0.950 . S
C1035 C1052 1.574 . S
C1035 C1054 1.368 . S
C1035 H1059 0.949 . S
H1036 C1040 0.949 . S
C1037 C1038 1.349 . S
C1037 C1039 1.327 . S
C1037 H1060 0.950 . S
C1038 C1037 1.349 . S
C1038 C1050 1.349 . S
C1039 C1037 1.327 . S
C1039 C1055 1.429 . S
C1039 H1061 0.950 . S
C1040 H1036 0.949 . S
C1040 C1048 1.574 . S
C1040 C1056 1.368 . S
H1041 C1049 0.950 . S
H1042 C1047 0.950 . S
H1043 C1048 0.949 . S
H1044 C1050 0.950 . S
H1045 C1051 0.950 . S
H1046 C1052 0.949 . S
C1047 H1042 0.950 . S
C1047 C1049 1.327 . S
C1047 C1053 1.429 . S
C1048 C1040 1.574 . S
C1048 H1043 0.949 . S
C1048 C1054 1.368 . S
C1049 C1033 1.349 . S
C1049 H1041 0.950 . S
C1049 C1047 1.327 . S
C1050 C1038 1.349 . S
C1050 H1044 0.950 . S
C1050 C1051 1.327 . S
C1051 H1045 0.950 . S
C1051 C1050 1.327 . S
C1051 C1055 1.429 . S
C1052 C1035 1.574 . S
C1052 H1046 0.949 . S
C1052 C1056 1.368 . S
C1053 C1034 1.429 . S
C1053 C1047 1.429 . S
C1053 C1054 1.523 . S
C1054 C1035 1.368 . S
C1054 C1048 1.368 . S
C1054 C1053 1.523 . S
C1055 C1039 1.429 . S
C1055 C1051 1.429 . S
C1055 C1056 1.523 . S
C1056 C1040 1.368 . S
C1056 C1052 1.368 . S
C1056 C1055 1.523 . S
H1057 C1032 0.950 . S
H1058 C1034 0.950 . S
H1059 C1035 0.949 . S
H1060 C1037 0.950 . S
H1061 C1039 0.950 . S
C1062 C1063 1.349 . S
C1062 C1064 1.327 . S
C1062 H1087 0.950 . S
C1063 C1062 1.349 . S
C1063 C1079 1.349 . S
C1064 C1062 1.327 . S
C1064 C1083 1.429 . S
C1064 H1088 0.950 . S
C1065 C1082 1.574 . S
C1065 C1084 1.368 . S
C1065 H1089 0.949 . S
H1066 C1070 0.949 . S
C1067 C1068 1.349 . S
C1067 C1069 1.327 . S
C1067 H1090 0.950 . S
C1068 C1067 1.349 . S
C1068 C1080 1.349 . S
C1069 C1067 1.327 . S
C1069 C1085 1.429 . S
C1069 H1091 0.950 . S
C1070 H1066 0.949 . S
C1070 C1078 1.574 . S
C1070 C1086 1.368 . S
H1071 C1079 0.950 . S
H1072 C1077 0.950 . S
H1073 C1078 0.949 . S
H1074 C1080 0.950 . S
H1075 C1081 0.950 . S
H1076 C1082 0.949 . S
C1077 H1072 0.950 . S
C1077 C1079 1.327 . S
C1077 C1083 1.429 . S
C1078 C1070 1.574 . S
C1078 H1073 0.949 . S
C1078 C1084 1.368 . S
C1079 C1063 1.349 . S
C1079 H1071 0.950 . S
C1079 C1077 1.327 . S
C1080 C1068 1.349 . S
C1080 H1074 0.950 . S
C1080 C1081 1.327 . S
C1081 H1075 0.950 . S
C1081 C1080 1.327 . S
C1081 C1085 1.429 . S
C1082 C1065 1.574 . S
C1082 H1076 0.949 . S
C1082 C1086 1.368 . S
C1083 C1064 1.429 . S
C1083 C1077 1.429 . S
C1083 C1084 1.523 . S
C1084 C1065 1.368 . S
C1084 C1078 1.368 . S
C1084 C1083 1.523 . S
C1085 C1069 1.429 . S
C1085 C1081 1.429 . S
C1085 C1086 1.523 . S
C1086 C1070 1.368 . S
C1086 C1082 1.368 . S
C1086 C1085 1.523 . S
H1087 C1062 0.950 . S
H1088 C1064 0.950 . S
H1089 C1065 0.949 . S
H1090 C1067 0.950 . S
H1091 C1069 0.950 . S
C1092 C1093 1.349 . S
C1092 C1094 1.327 . S
C1092 H1117 0.950 . S
C1093 C1092 1.349 . S
C1093 C1109 1.349 . S
C1094 C1092 1.327 . S
C1094 C1113 1.429 . S
C1094 H1118 0.950 . S
C1095 C1112 1.574 . S
C1095 C1114 1.368 . S
C1095 H1119 0.949 . S
H1096 C1100 0.949 . S
C1097 C1098 1.349 . S
C1097 C1099 1.327 . S
C1097 H1120 0.950 . S
C1098 C1097 1.349 . S
C1098 C1110 1.349 . S
C1099 C1097 1.327 . S
C1099 C1115 1.429 . S
C1099 H1121 0.950 . S
C1100 H1096 0.949 . S
C1100 C1108 1.574 . S
C1100 C1116 1.368 . S
H1101 C1109 0.950 . S
H1102 C1107 0.950 . S
H1103 C1108 0.949 . S
H1104 C1110 0.950 . S
H1105 C1111 0.950 . S
H1106 C1112 0.949 . S
C1107 H1102 0.950 . S
C1107 C1109 1.327 . S
C1107 C1113 1.429 . S
C1108 C1100 1.574 . S
C1108 H1103 0.949 . S
C1108 C1114 1.368 . S
C1109 C1093 1.349 . S
C1109 H1101 0.950 . S
C1109 C1107 1.327 . S
C1110 C1098 1.349 . S
C1110 H1104 0.950 . S
C1110 C1111 1.327 . S
C1111 H1105 0.950 . S
C1111 C1110 1.327 . S
C1111 C1115 1.429 . S
C1112 C1095 1.574 . S
C1112 H1106 0.949 . S
C1112 C1116 1.368 . S
C1113 C1094 1.429 . S
C1113 C1107 1.429 . S
C1113 C1114 1.523 . S
C1114 C1095 1.368 . S
C1114 C1108 1.368 . S
C1114 C1113 1.523 . S
C1115 C1099 1.429 . S
C1115 C1111 1.429 . S
C1115 C1116 1.523 . S
C1116 C1100 1.368 . S
C1116 C1112 1.368 . S
C1116 C1115 1.523 . S
H1117 C1092 0.950 . S
H1118 C1094 0.950 . S
H1119 C1095 0.949 . S
H1120 C1097 0.950 . S
H1121 C1099 0.950 . S
C1122 C1123 1.349 . S
C1122 C1124 1.327 . S
C1122 H1147 0.950 . S
C1123 C1122 1.349 . S
C1123 C1139 1.349 . S
C1124 C1122 1.327 . S
C1124 C1143 1.429 . S
C1124 H1148 0.950 . S
C1125 C1142 1.574 . S
C1125 C1144 1.368 . S
C1125 H1149 0.949 . S
H1126 C1130 0.949 . S
C1127 C1128 1.349 . S
C1127 C1129 1.327 . S
C1127 H1150 0.950 . S
C1128 C1127 1.349 . S
C1128 C1140 1.349 . S
C1129 C1127 1.327 . S
C1129 C1145 1.429 . S
C1129 H1151 0.950 . S
C1130 H1126 0.949 . S
C1130 C1138 1.574 . S
C1130 C1146 1.368 . S
H1131 C1139 0.950 . S
H1132 C1137 0.950 . S
H1133 C1138 0.949 . S
H1134 C1140 0.950 . S
H1135 C1141 0.950 . S
H1136 C1142 0.949 . S
C1137 H1132 0.950 . S
C1137 C1139 1.327 . S
C1137 C1143 1.429 . S
C1138 C1130 1.574 . S
C1138 H1133 0.949 . S
C1138 C1144 1.368 . S
C1139 C1123 1.349 . S
C1139 H1131 0.950 . S
C1139 C1137 1.327 . S
C1140 C1128 1.349 . S
C1140 H1134 0.950 . S
C1140 C1141 1.327 . S
C1141 H1135 0.950 . S
C1141 C1140 1.327 . S
C1141 C1145 1.429 . S
C1142 C1125 1.574 . S
C1142 H1136 0.949 . S
C1142 C1146 1.368 . S
C1143 C1124 1.429 . S
C1143 C1137 1.429 . S
C1143 C1144 1.523 . S
C1144 C1125 1.368 . S
C1144 C1138 1.368 . S
C1144 C1143 1.523 . S
C1145 C1129 1.429 . S
C1145 C1141 1.429 . S
C1145 C1146 1.523 . S
C1146 C1130 1.368 . S
C1146 C1142 1.368 . S
C1146 C1145 1.523 . S
H1147 C1122 0.950 . S
H1148 C1124 0.950 . S
H1149 C1125 0.949 . S
H1150 C1127 0.950 . S
H1151 C1129 0.950 . S
C1152 C1153 1.349 . S
C1152 C1154 1.327 . S
C1152 H1177 0.950 . S
C1153 C1152 1.349 . S
C1153 C1169 1.349 . S
C1154 C1152 1.327 . S
C1154 C1173 1.429 . S
C1154 H1178 0.950 . S
C1155 C1172 1.574 . S
C1155 C1174 1.368 . S
C1155 H1179 0.949 . S
H1156 C1160 0.949 . S
C1157 C1158 1.349 . S
C1157 C1159 1.327 . S
C1157 H1180 0.950 . S
C1158 C1157 1.349 . S
C1158 C1170 1.349 . S
C1159 C1157 1.327 . S
C1159 C1175 1.429 . S
C1159 H1181 0.950 . S
C1160 H1156 0.949 . S
C1160 C1168 1.574 . S
C1160 C1176 1.368 . S
H1161 C1169 0.950 . S
H1162 C1167 0.950 . S
H1163 C1168 0.949 . S
H1164 C1170 0.950 . S
H1165 C1171 0.950 . S
H1166 C1172 0.949 . S
C1167 H1162 0.950 . S
C1167 C1169 1.327 . S
C1167 C1173 1.429 . S
C1168 C1160 1.574 . S
C1168 H1163 0.949 . S
C1168 C1174 1.368 . S
C1169 C1153 1.349 . S
C1169 H1161 0.950 . S
C1169 C1167 1.327 . S
C1170 C1158 1.349 . S
C1170 H1164 0.950 . S
C1170 C1171 1.327 . S
C1171 H1165 0.950 . S
C1171 C1170 1.327 . S
C1171 C1175 1.429 . S
C1172 C1155 1.574 . S
C1172 H1166 0.949 . S
C1172 C1176 1.368 . S
C1173 C1154 1.429 . S
C1173 C1167 1.429 . S
C1173 C1174 1.523 . S
C1174 C1155 1.368 . S
C1174 C1168 1.368 . S
C1174 C1173 1.523 . S
C1175 C1159 1.429 . S
C1175 C1171 1.429 . S
C1175 C1176 1.523 . S
C1176 C1160 1.368 . S
C1176 C1172 1.368 . S
C1176 C1175 1.523 . S
H1177 C1152 0.950 . S
H1178 C1154 0.950 . S
H1179 C1155 0.949 . S
H1180 C1157 0.950 . S
H1181 C1159 0.950 . S
C1182 C1183 1.349 . S
C1182 C1184 1.327 . S
C1182 H1207 0.950 . S
C1183 C1182 1.349 . S
C1183 C1199 1.349 . S
C1184 C1182 1.327 . S
C1184 C1203 1.429 . S
C1184 H1208 0.950 . S
C1185 C1202 1.574 . S
C1185 C1204 1.368 . S
C1185 H1209 0.949 . S
H1186 C1190 0.949 . S
C1187 C1188 1.349 . S
C1187 C1189 1.327 . S
C1187 H1210 0.950 . S
C1188 C1187 1.349 . S
C1188 C1200 1.349 . S
C1189 C1187 1.327 . S
C1189 C1205 1.429 . S
C1189 H1211 0.950 . S
C1190 H1186 0.949 . S
C1190 C1198 1.574 . S
C1190 C1206 1.368 . S
H1191 C1199 0.950 . S
H1192 C1197 0.950 . S
H1193 C1198 0.949 . S
H1194 C1200 0.950 . S
H1195 C1201 0.950 . S
H1196 C1202 0.949 . S
C1197 H1192 0.950 . S
C1197 C1199 1.327 . S
C1197 C1203 1.429 . S
C1198 C1190 1.574 . S
C1198 H1193 0.949 . S
C1198 C1204 1.368 . S
C1199 C1183 1.349 . S
C1199 H1191 0.950 . S
C1199 C1197 1.327 . S
C1200 C1188 1.349 . S
C1200 H1194 0.950 . S
C1200 C1201 1.327 . S
C1201 H1195 0.950 . S
C1201 C1200 1.327 . S
C1201 C1205 1.429 . S
C1202 C1185 1.574 . S
C1202 H1196 0.949 . S
C1202 C1206 1.368 . S
C1203 C1184 1.429 . S
C1203 C1197 1.429 . S
C1203 C1204 1.523 . S
C1204 C1185 1.368 . S
C1204 C1198 1.368 . S
C1204 C1203 1.523 . S
C1205 C1189 1.429 . S
C1205 C1201 1.429 . S
C1205 C1206 1.523 . S
C1206 C1190 1.368 . S
C1206 C1202 1.368 . S
C1206 C1205 1.523 . S
H1207 C1182 0.950 . S
H1208 C1184 0.950 . S
H1209 C1185 0.949 . S
H1210 C1187 0.950 . S
H1211 C1189 0.950 . S
C1212 C1213 1.349 . S
C1212 C1214 1.327 . S
C1212 H1237 0.950 . S
C1213 C1212 1.349 . S
C1213 C1229 1.349 . S
C1214 C1212 1.327 . S
C1214 C1233 1.429 . S
C1214 H1238 0.950 . S
C1215 C1232 1.574 . S
C1215 C1234 1.368 . S
C1215 H1239 0.949 . S
H1216 C1220 0.949 . S
C1217 C1218 1.349 . S
C1217 C1219 1.327 . S
C1217 H1240 0.950 . S
C1218 C1217 1.349 . S
C1218 C1230 1.349 . S
C1219 C1217 1.327 . S
C1219 C1235 1.429 . S
C1219 H1241 0.950 . S
C1220 H1216 0.949 . S
C1220 C1228 1.574 . S
C1220 C1236 1.368 . S
H1221 C1229 0.950 . S
H1222 C1227 0.950 . S
H1223 C1228 0.949 . S
H1224 C1230 0.950 . S
H1225 C1231 0.950 . S
H1226 C1232 0.949 . S
C1227 H1222 0.950 . S
C1227 C1229 1.327 . S
C1227 C1233 1.429 . S
C1228 C1220 1.574 . S
C1228 H1223 0.949 . S
C1228 C1234 1.368 . S
C1229 C1213 1.349 . S
C1229 H1221 0.950 . S
C1229 C1227 1.327 . S
C1230 C1218 1.349 . S
C1230 H1224 0.950 . S
C1230 C1231 1.327 . S
C1231 H1225 0.950 . S
C1231 C1230 1.327 . S
C1231 C1235 1.429 . S
C1232 C1215 1.574 . S
C1232 H1226 0.949 . S
C1232 C1236 1.368 . S
C1233 C1214 1.429 . S
C1233 C1227 1.429 . S
C1233 C1234 1.523 . S
C1234 C1215 1.368 . S
C1234 C1228 1.368 . S
C1234 C1233 1.523 . S
C1235 C1219 1.429 . S
C1235 C1231 1.429 . S
C1235 C1236 1.523 . S
C1236 C1220 1.368 . S
C1236 C1232 1.368 . S
C1236 C1235 1.523 . S
H1237 C1212 0.950 . S
H1238 C1214 0.950 . S
H1239 C1215 0.949 . S
H1240 C1217 0.950 . S
H1241 C1219 0.950 . S
C1242 C1243 1.349 . S
C1242 C1244 1.327 . S
C1242 H1267 0.950 . S
C1243 C1242 1.349 . S
C1243 C1259 1.349 . S
C1244 C1242 1.327 . S
C1244 C1263 1.429 . S
C1244 H1268 0.950 . S
C1245 C1262 1.574 . S
C1245 C1264 1.368 . S
C1245 H1269 0.949 . S
H1246 C1250 0.949 . S
C1247 C1248 1.349 . S
C1247 C1249 1.327 . S
C1247 H1270 0.950 . S
C1248 C1247 1.349 . S
C1248 C1260 1.349 . S
C1249 C1247 1.327 . S
C1249 C1265 1.429 . S
C1249 H1271 0.950 . S
C1250 H1246 0.949 . S
C1250 C1258 1.574 . S
C1250 C1266 1.368 . S
H1251 C1259 0.950 . S
H1252 C1257 0.950 . S
H1253 C1258 0.949 . S
H1254 C1260 0.950 . S
H1255 C1261 0.950 . S
H1256 C1262 0.949 . S
C1257 H1252 0.950 . S
C1257 C1259 1.327 . S
C1257 C1263 1.429 . S
C1258 C1250 1.574 . S
C1258 H1253 0.949 . S
C1258 C1264 1.368 . S
C1259 C1243 1.349 . S
C1259 H1251 0.950 . S
C1259 C1257 1.327 . S
C1260 C1248 1.349 . S
C1260 H1254 0.950 . S
C1260 C1261 1.327 . S
C1261 H1255 0.950 . S
C1261 C1260 1.327 . S
C1261 C1265 1.429 . S
C1262 C1245 1.574 . S
C1262 H1256 0.949 . S
C1262 C1266 1.368 . S
C1263 C1244 1.429 . S
C1263 C1257 1.429 . S
C1263 C1264 1.523 . S
C1264 C1245 1.368 . S
C1264 C1258 1.368 . S
C1264 C1263 1.523 . S
C1265 C1249 1.429 . S
C1265 C1261 1.429 . S
C1265 C1266 1.523 . S
C1266 C1250 1.368 . S
C1266 C1262 1.368 . S
C1266 C1265 1.523 . S
H1267 C1242 0.950 . S
H1268 C1244 0.950 . S
H1269 C1245 0.949 . S
H1270 C1247 0.950 . S
H1271 C1249 0.950 . S
C1272 C1273 1.349 . S
C1272 C1274 1.327 . S
C1272 H1297 0.950 . S
C1273 C1272 1.349 . S
C1273 C1289 1.349 . S
C1274 C1272 1.327 . S
C1274 C1293 1.429 . S
C1274 H1298 0.950 . S
C1275 C1292 1.574 . S
C1275 C1294 1.368 . S
C1275 H1299 0.949 . S
H1276 C1280 0.949 . S
C1277 C1278 1.349 . S
C1277 C1279 1.327 . S
C1277 H1300 0.950 . S
C1278 C1277 1.349 . S
C1278 C1290 1.349 . S
C1279 C1277 1.327 . S
C1279 C1295 1.429 . S
C1279 H1301 0.950 . S
C1280 H1276 0.949 . S
C1280 C1288 1.574 . S
C1280 C1296 1.368 . S
H1281 C1289 0.950 . S
H1282 C1287 0.950 . S
H1283 C1288 0.949 . S
H1284 C1290 0.950 . S
H1285 C1291 0.950 . S
H1286 C1292 0.949 . S
C1287 H1282 0.950 . S
C1287 C1289 1.327 . S
C1287 C1293 1.429 . S
C1288 C1280 1.574 . S
C1288 H1283 0.949 . S
C1288 C1294 1.368 . S
C1289 C1273 1.349 . S
C1289 H1281 0.950 . S
C1289 C1287 1.327 . S
C1290 C1278 1.349 . S
C1290 H1284 0.950 . S
C1290 C1291 1.327 . S
C1291 H1285 0.950 . S
C1291 C1290 1.327 . S
C1291 C1295 1.429 . S
C1292 C1275 1.574 . S
C1292 H1286 0.949 . S
C1292 C1296 1.368 . S
C1293 C1274 1.429 . S
C1293 C1287 1.429 . S
C1293 C1294 1.523 . S
C1294 C1275 1.368 . S
C1294 C1288 1.368 . S
C1294 C1293 1.523 . S
C1295 C1279 1.429 . S
C1295 C1291 1.429 . S
C1295 C1296 1.523 . S
C1296 C1280 1.368 . S
C1296 C1292 1.368 . S
C1296 C1295 1.523 . S
H1297 C1272 0.950 . S
H1298 C1274 0.950 . S
H1299 C1275 0.949 . S
H1300 C1277 0.950 . S
H1301 C1279 0.950 . S
C1302 C1303 1.349 . S
C1302 C1304 1.327 . S
C1302 H1327 0.950 . S
C1303 C1302 1.349 . S
C1303 C1319 1.349 . S
C1304 C1302 1.327 . S
C1304 C1323 1.429 . S
C1304 H1328 0.950 . S
C1305 C1322 1.574 . S
C1305 C1324 1.368 . S
C1305 H1329 0.949 . S
H1306 C1310 0.949 . S
C1307 C1308 1.349 . S
C1307 C1309 1.327 . S
C1307 H1330 0.950 . S
C1308 C1307 1.349 . S
C1308 C1320 1.349 . S
C1309 C1307 1.327 . S
C1309 C1325 1.429 . S
C1309 H1331 0.950 . S
C1310 H1306 0.949 . S
C1310 C1318 1.574 . S
C1310 C1326 1.368 . S
H1311 C1319 0.950 . S
H1312 C1317 0.950 . S
H1313 C1318 0.949 . S
H1314 C1320 0.950 . S
H1315 C1321 0.950 . S
H1316 C1322 0.949 . S
C1317 H1312 0.950 . S
C1317 C1319 1.327 . S
C1317 C1323 1.429 . S
C1318 C1310 1.574 . S
C1318 H1313 0.949 . S
C1318 C1324 1.368 . S
C1319 C1303 1.349 . S
C1319 H1311 0.950 . S
C1319 C1317 1.327 . S
C1320 C1308 1.349 . S
C1320 H1314 0.950 . S
C1320 C1321 1.327 . S
C1321 H1315 0.950 . S
C1321 C1320 1.327 . S
C1321 C1325 1.429 . S
C1322 C1305 1.574 . S
C1322 H1316 0.949 . S
C1322 C1326 1.368 . S
C1323 C1304 1.429 . S
C1323 C1317 1.429 . S
C1323 C1324 1.523 . S
C1324 C1305 1.368 . S
C1324 C1318 1.368 . S
C1324 C1323 1.523 . S
C1325 C1309 1.429 . S
C1325 C1321 1.429 . S
C1325 C1326 1.523 . S
C1326 C1310 1.368 . S
C1326 C1322 1.368 . S
C1326 C1325 1.523 . S
H1327 C1302 0.950 . S
H1328 C1304 0.950 . S
H1329 C1305 0.949 . S
H1330 C1307 0.950 . S
H1331 C1309 0.950 . S
C1332 C1333 1.349 1_455 S
C1332 C1334 1.327 . S
C1332 H1357 0.950 . S
C1333 C1332 1.349 1_655 S
C1333 C1349 1.349 . S
C1334 C1332 1.327 . S
C1334 C1353 1.429 1_455 S
C1334 H1358 0.950 . S
C1335 C1352 1.574 1_554 S
C1335 C1354 1.368 . S
C1335 H1359 0.949 . S
H1336 C1340 0.949 . S
C1337 C1338 1.349 1_655 S
C1337 C1339 1.327 . S
C1337 H1360 0.950 . S
C1338 C1337 1.349 1_455 S
C1338 C1350 1.349 . S
C1339 C1337 1.327 . S
C1339 C1355 1.429 1_655 S
C1339 H1361 0.950 . S
C1340 H1336 0.949 . S
C1340 C1348 1.574 1_556 S
C1340 C1356 1.368 . S
H1341 C1349 0.950 . S
H1342 C1347 0.950 . S
H1343 C1348 0.949 . S
H1344 C1350 0.950 . S
H1345 C1351 0.950 . S
H1346 C1352 0.949 . S
C1347 H1342 0.950 . S
C1347 C1349 1.327 . S
C1347 C1353 1.429 . S
C1348 C1340 1.574 1_554 S
C1348 H1343 0.949 . S
C1348 C1354 1.368 1_455 S
C1349 C1333 1.349 . S
C1349 H1341 0.950 . S
C1349 C1347 1.327 . S
C1350 C1338 1.349 . S
C1350 H1344 0.950 . S
C1350 C1351 1.327 . S
C1351 H1345 0.950 . S
C1351 C1350 1.327 . S
C1351 C1355 1.429 . S
C1352 C1335 1.574 1_556 S
C1352 H1346 0.949 . S
C1352 C1356 1.368 1_655 S
C1353 C1334 1.429 1_655 S
C1353 C1347 1.429 . S
C1353 C1354 1.523 . S
C1354 C1335 1.368 . S
C1354 C1348 1.368 1_655 S
C1354 C1353 1.523 . S
C1355 C1339 1.429 1_455 S
C1355 C1351 1.429 . S
C1355 C1356 1.523 . S
C1356 C1340 1.368 . S
C1356 C1352 1.368 1_455 S
C1356 C1355 1.523 . S
H1357 C1332 0.950 . S
H1358 C1334 0.950 . S
H1359 C1335 0.949 . S
H1360 C1337 0.950 . S
H1361 C1339 0.950 . S
C1362 C1363 1.349 . S
C1362 C1364 1.327 . S
C1362 H1387 0.950 . S
C1363 C1362 1.349 . S
C1363 C1379 1.349 . S
C1364 C1362 1.327 . S
C1364 C1383 1.429 . S
C1364 H1388 0.950 . S
C1365 C1382 1.574 1_556 S
C1365 C1384 1.368 . S
C1365 H1389 0.949 . S
H1366 C1370 0.949 . S
C1367 C1368 1.349 . S
C1367 C1369 1.327 . S
C1367 H1390 0.950 . S
C1368 C1367 1.349 . S
C1368 C1380 1.349 . S
C1369 C1367 1.327 . S
C1369 C1385 1.429 . S
C1369 H1391 0.950 . S
C1370 H1366 0.949 . S
C1370 C1378 1.574 1_554 S
C1370 C1386 1.368 . S
H1371 C1379 0.950 . S
H1372 C1377 0.950 . S
H1373 C1378 0.949 . S
H1374 C1380 0.950 . S
H1375 C1381 0.950 . S
H1376 C1382 0.949 . S
C1377 H1372 0.950 . S
C1377 C1379 1.327 . S
C1377 C1383 1.429 . S
C1378 C1370 1.574 1_556 S
C1378 H1373 0.949 . S
C1378 C1384 1.368 . S
C1379 C1363 1.349 . S
C1379 H1371 0.950 . S
C1379 C1377 1.327 . S
C1380 C1368 1.349 . S
C1380 H1374 0.950 . S
C1380 C1381 1.327 . S
C1381 H1375 0.950 . S
C1381 C1380 1.327 . S
C1381 C1385 1.429 . S
C1382 C1365 1.574 1_554 S
C1382 H1376 0.949 . S
C1382 C1386 1.368 . S
C1383 C1364 1.429 . S
C1383 C1377 1.429 . S
C1383 C1384 1.523 . S
C1384 C1365 1.368 . S
C1384 C1378 1.368 . S
C1384 C1383 1.523 . S
C1385 C1369 1.429 . S
C1385 C1381 1.429 . S
C1385 C1386 1.523 . S
C1386 C1370 1.368 . S
C1386 C1382 1.368 . S
C1386 C1385 1.523 . S
H1387 C1362 0.950 . S
H1388 C1364 0.950 . S
H1389 C1365 0.949 . S
H1390 C1367 0.950 . S
H1391 C1369 0.950 . S
C1392 C1393 1.349 . S
C1392 C1394 1.327 . S
C1392 H1417 0.950 . S
C1393 C1392 1.349 . S
C1393 C1409 1.349 1_565 S
C1394 C1392 1.327 . S
C1394 C1413 1.429 . S
C1394 H1418 0.950 . S
C1395 C1412 1.574 1_556 S
C1395 C1414 1.368 1_545 S
C1395 H1419 0.949 . S
H1396 C1400 0.949 . S
C1397 C1398 1.349 . S
C1397 C1399 1.327 . S
C1397 H1420 0.950 . S
C1398 C1397 1.349 . S
C1398 C1410 1.349 1_545 S
C1399 C1397 1.327 . S
C1399 C1415 1.429 . S
C1399 H1421 0.950 . S
C1400 H1396 0.949 . S
C1400 C1408 1.574 1_554 S
C1400 C1416 1.368 1_565 S
H1401 C1409 0.950 . S
H1402 C1407 0.950 . S
H1403 C1408 0.949 . S
H1404 C1410 0.950 . S
H1405 C1411 0.950 . S
H1406 C1412 0.949 . S
C1407 H1402 0.950 . S
C1407 C1409 1.327 . S
C1407 C1413 1.429 1_545 S
C1408 C1400 1.574 1_556 S
C1408 H1403 0.949 . S
C1408 C1414 1.368 . S
C1409 C1393 1.349 1_545 S
C1409 H1401 0.950 . S
C1409 C1407 1.327 . S
C1410 C1398 1.349 1_565 S
C1410 H1404 0.950 . S
C1410 C1411 1.327 . S
C1411 H1405 0.950 . S
C1411 C1410 1.327 . S
C1411 C1415 1.429 1_565 S
C1412 C1395 1.574 1_554 S
C1412 H1406 0.949 . S
C1412 C1416 1.368 . S
C1413 C1394 1.429 . S
C1413 C1407 1.429 1_565 S
C1413 C1414 1.523 . S
C1414 C1395 1.368 1_565 S
C1414 C1408 1.368 . S
C1414 C1413 1.523 . S
C1415 C1399 1.429 . S
C1415 C1411 1.429 1_545 S
C1415 C1416 1.523 . S
C1416 C1400 1.368 1_545 S
C1416 C1412 1.368 . S
C1416 C1415 1.523 . S
H1417 C1392 0.950 . S
H1418 C1394 0.950 . S
H1419 C1395 0.949 . S
H1420 C1397 0.950 . S
H1421 C1399 0.950 . S
C1422 C1423 1.349 . S
C1422 C1424 1.327 . S
C1422 H1447 0.950 . S
C1423 C1422 1.349 . S
C1423 C1439 1.349 . S
C1424 C1422 1.327 . S
C1424 C1443 1.429 . S
C1424 H1448 0.950 . S
C1425 C1442 1.574 . S
C1425 C1444 1.368 . S
C1425 H1449 0.949 . S
H1426 C1430 0.949 . S
C1427 C1428 1.349 . S
C1427 C1429 1.327 . S
C1427 H1450 0.950 . S
C1428 C1427 1.349 . S
C1428 C1440 1.349 . S
C1429 C1427 1.327 . S
C1429 C1445 1.429 . S
C1429 H1451 0.950 . S
C1430 H1426 0.949 . S
C1430 C1438 1.574 . S
C1430 C1446 1.368 . S
H1431 C1439 0.950 . S
H1432 C1437 0.950 . S
H1433 C1438 0.949 . S
H1434 C1440 0.950 . S
H1435 C1441 0.950 . S
H1436 C1442 0.949 . S
C1437 H1432 0.950 . S
C1437 C1439 1.327 . S
C1437 C1443 1.429 . S
C1438 C1430 1.574 . S
C1438 H1433 0.949 . S
C1438 C1444 1.368 . S
C1439 C1423 1.349 . S
C1439 H1431 0.950 . S
C1439 C1437 1.327 . S
C1440 C1428 1.349 . S
C1440 H1434 0.950 . S
C1440 C1441 1.327 . S
C1441 H1435 0.950 . S
C1441 C1440 1.327 . S
C1441 C1445 1.429 . S
C1442 C1425 1.574 . S
C1442 H1436 0.949 . S
C1442 C1446 1.368 . S
C1443 C1424 1.429 . S
C1443 C1437 1.429 . S
C1443 C1444 1.523 . S
C1444 C1425 1.368 . S
C1444 C1438 1.368 . S
C1444 C1443 1.523 . S
C1445 C1429 1.429 . S
C1445 C1441 1.429 . S
C1445 C1446 1.523 . S
C1446 C1430 1.368 . S
C1446 C1442 1.368 . S
C1446 C1445 1.523 . S
H1447 C1422 0.950 . S
H1448 C1424 0.950 . S
H1449 C1425 0.949 . S
H1450 C1427 0.950 . S
H1451 C1429 0.950 . S
C1452 C1453 1.349 . S
C1452 C1454 1.327 . S
C1452 H1477 0.950 . S
C1453 C1452 1.349 . S
C1453 C1469 1.349 . S
C1454 C1452 1.327 . S
C1454 C1473 1.429 . S
C1454 H1478 0.950 . S
C1455 C1472 1.574 . S
C1455 C1474 1.368 . S
C1455 H1479 0.949 . S
H1456 C1460 0.949 . S
C1457 C1458 1.349 . S
C1457 C1459 1.327 . S
C1457 H1480 0.950 . S
C1458 C1457 1.349 . S
C1458 C1470 1.349 . S
C1459 C1457 1.327 . S
C1459 C1475 1.429 . S
C1459 H1481 0.950 . S
C1460 H1456 0.949 . S
C1460 C1468 1.574 . S
C1460 C1476 1.368 . S
H1461 C1469 0.950 . S
H1462 C1467 0.950 . S
H1463 C1468 0.949 . S
H1464 C1470 0.950 . S
H1465 C1471 0.950 . S
H1466 C1472 0.949 . S
C1467 H1462 0.950 . S
C1467 C1469 1.327 . S
C1467 C1473 1.429 . S
C1468 C1460 1.574 . S
C1468 H1463 0.949 . S
C1468 C1474 1.368 . S
C1469 C1453 1.349 . S
C1469 H1461 0.950 . S
C1469 C1467 1.327 . S
C1470 C1458 1.349 . S
C1470 H1464 0.950 . S
C1470 C1471 1.327 . S
C1471 H1465 0.950 . S
C1471 C1470 1.327 . S
C1471 C1475 1.429 . S
C1472 C1455 1.574 . S
C1472 H1466 0.949 . S
C1472 C1476 1.368 . S
C1473 C1454 1.429 . S
C1473 C1467 1.429 . S
C1473 C1474 1.523 . S
C1474 C1455 1.368 . S
C1474 C1468 1.368 . S
C1474 C1473 1.523 . S
C1475 C1459 1.429 . S
C1475 C1471 1.429 . S
C1475 C1476 1.523 . S
C1476 C1460 1.368 . S
C1476 C1472 1.368 . S
C1476 C1475 1.523 . S
H1477 C1452 0.950 . S
H1478 C1454 0.950 . S
H1479 C1455 0.949 . S
H1480 C1457 0.950 . S
H1481 C1459 0.950 . S
C1482 C1483 1.349 . S
C1482 C1484 1.327 . S
C1482 H1507 0.950 . S
C1483 C1482 1.349 . S
C1483 C1499 1.349 . S
C1484 C1482 1.327 . S
C1484 C1503 1.429 . S
C1484 H1508 0.950 . S
C1485 C1502 1.574 . S
C1485 C1504 1.368 . S
C1485 H1509 0.949 . S
H1486 C1490 0.949 . S
C1487 C1488 1.349 . S
C1487 C1489 1.327 . S
C1487 H1510 0.950 . S
C1488 C1487 1.349 . S
C1488 C1500 1.349 . S
C1489 C1487 1.327 . S
C1489 C1505 1.429 . S
C1489 H1511 0.950 . S
C1490 H1486 0.949 . S
C1490 C1498 1.574 . S
C1490 C1506 1.368 . S
H1491 C1499 0.950 . S
H1492 C1497 0.950 . S
H1493 C1498 0.949 . S
H1494 C1500 0.950 . S
H1495 C1501 0.950 . S
H1496 C1502 0.949 . S
C1497 H1492 0.950 . S
C1497 C1499 1.327 . S
C1497 C1503 1.429 . S
C1498 C1490 1.574 . S
C1498 H1493 0.949 . S
C1498 C1504 1.368 . S
C1499 C1483 1.349 . S
C1499 H1491 0.950 . S
C1499 C1497 1.327 . S
C1500 C1488 1.349 . S
C1500 H1494 0.950 . S
C1500 C1501 1.327 . S
C1501 H1495 0.950 . S
C1501 C1500 1.327 . S
C1501 C1505 1.429 . S
C1502 C1485 1.574 . S
C1502 H1496 0.949 . S
C1502 C1506 1.368 . S
C1503 C1484 1.429 . S
C1503 C1497 1.429 . S
C1503 C1504 1.523 . S
C1504 C1485 1.368 . S
C1504 C1498 1.368 . S
C1504 C1503 1.523 . S
C1505 C1489 1.429 . S
C1505 C1501 1.429 . S
C1505 C1506 1.523 . S
C1506 C1490 1.368 . S
C1506 C1502 1.368 . S
C1506 C1505 1.523 . S
H1507 C1482 0.950 . S
H1508 C1484 0.950 . S
H1509 C1485 0.949 . S
H1510 C1487 0.950 . S
H1511 C1489 0.950 . S
C1512 C1513 1.349 . S
C1512 C1514 1.327 . S
C1512 H1537 0.950 . S
C1513 C1512 1.349 . S
C1513 C1529 1.349 . S
C1514 C1512 1.327 . S
C1514 C1533 1.429 . S
C1514 H1538 0.950 . S
C1515 C1532 1.574 . S
C1515 C1534 1.368 . S
C1515 H1539 0.949 . S
H1516 C1520 0.949 . S
C1517 C1518 1.349 . S
C1517 C1519 1.327 . S
C1517 H1540 0.950 . S
C1518 C1517 1.349 . S
C1518 C1530 1.349 . S
C1519 C1517 1.327 . S
C1519 C1535 1.429 . S
C1519 H1541 0.950 . S
C1520 H1516 0.949 . S
C1520 C1528 1.574 . S
C1520 C1536 1.368 . S
H1521 C1529 0.950 . S
H1522 C1527 0.950 . S
H1523 C1528 0.949 . S
H1524 C1530 0.950 . S
H1525 C1531 0.950 . S
H1526 C1532 0.949 . S
C1527 H1522 0.950 . S
C1527 C1529 1.327 . S
C1527 C1533 1.429 . S
C1528 C1520 1.574 . S
C1528 H1523 0.949 . S
C1528 C1534 1.368 . S
C1529 C1513 1.349 . S
C1529 H1521 0.950 . S
C1529 C1527 1.327 . S
C1530 C1518 1.349 . S
C1530 H1524 0.950 . S
C1530 C1531 1.327 . S
C1531 H1525 0.950 . S
C1531 C1530 1.327 . S
C1531 C1535 1.429 . S
C1532 C1515 1.574 . S
C1532 H1526 0.949 . S
C1532 C1536 1.368 . S
C1533 C1514 1.429 . S
C1533 C1527 1.429 . S
C1533 C1534 1.523 . S
C1534 C1515 1.368 . S
C1534 C1528 1.368 . S
C1534 C1533 1.523 . S
C1535 C1519 1.429 . S
C1535 C1531 1.429 . S
C1535 C1536 1.523 . S
C1536 C1520 1.368 . S
C1536 C1532 1.368 . S
C1536 C1535 1.523 . S
H1537 C1512 0.950 . S
H1538 C1514 0.950 . S
H1539 C1515 0.949 . S
H1540 C1517 0.950 . S
H1541 C1519 0.950 . S
C1542 C1543 1.349 . S
C1542 C1544 1.327 . S
C1542 H1567 0.950 . S
C1543 C1542 1.349 . S
C1543 C1559 1.349 . S
C1544 C1542 1.327 . S
C1544 C1563 1.429 . S
C1544 H1568 0.950 . S
C1545 C1562 1.574 . S
C1545 C1564 1.368 . S
C1545 H1569 0.949 . S
H1546 C1550 0.949 . S
C1547 C1548 1.349 . S
C1547 C1549 1.327 . S
C1547 H1570 0.950 . S
C1548 C1547 1.349 . S
C1548 C1560 1.349 . S
C1549 C1547 1.327 . S
C1549 C1565 1.429 . S
C1549 H1571 0.950 . S
C1550 H1546 0.949 . S
C1550 C1558 1.574 . S
C1550 C1566 1.368 . S
H1551 C1559 0.950 . S
H1552 C1557 0.950 . S
H1553 C1558 0.949 . S
H1554 C1560 0.950 . S
H1555 C1561 0.950 . S
H1556 C1562 0.949 . S
C1557 H1552 0.950 . S
C1557 C1559 1.327 . S
C1557 C1563 1.429 . S
C1558 C1550 1.574 . S
C1558 H1553 0.949 . S
C1558 C1564 1.368 . S
C1559 C1543 1.349 . S
C1559 H1551 0.950 . S
C1559 C1557 1.327 . S
C1560 C1548 1.349 . S
C1560 H1554 0.950 . S
C1560 C1561 1.327 . S
C1561 H1555 0.950 . S
C1561 C1560 1.327 . S
C1561 C1565 1.429 . S
C1562 C1545 1.574 . S
C1562 H1556 0.949 . S
C1562 C1566 1.368 . S
C1563 C1544 1.429 . S
C1563 C1557 1.429 . S
C1563 C1564 1.523 . S
C1564 C1545 1.368 . S
C1564 C1558 1.368 . S
C1564 C1563 1.523 . S
C1565 C1549 1.429 . S
C1565 C1561 1.429 . S
C1565 C1566 1.523 . S
C1566 C1550 1.368 . S
C1566 C1562 1.368 . S
C1566 C1565 1.523 . S
H1567 C1542 0.950 . S
H1568 C1544 0.950 . S
H1569 C1545 0.949 . S
H1570 C1547 0.950 . S
H1571 C1549 0.950 . S
C1572 C1573 1.349 . S
C1572 C1574 1.327 . S
C1572 H1597 0.950 . S
C1573 C1572 1.349 . S
C1573 C1589 1.349 . S
C1574 C1572 1.327 . S
C1574 C1593 1.429 . S
C1574 H1598 0.950 . S
C1575 C1592 1.574 . S
C1575 C1594 1.368 . S
C1575 H1599 0.949 . S
H1576 C1580 0.949 . S
C1577 C1578 1.349 . S
C1577 C1579 1.327 . S
C1577 H1600 0.950 . S
C1578 C1577 1.349 . S
C1578 C1590 1.349 . S
C1579 C1577 1.327 . S
C1579 C1595 1.429 . S
C1579 H1601 0.950 . S
C1580 H1576 0.949 . S
C1580 C1588 1.574 . S
C1580 C1596 1.368 . S
H1581 C1589 0.950 . S
H1582 C1587 0.950 . S
H1583 C1588 0.949 . S
H1584 C1590 0.950 . S
H1585 C1591 0.950 . S
H1586 C1592 0.949 . S
C1587 H1582 0.950 . S
C1587 C1589 1.327 . S
C1587 C1593 1.429 . S
C1588 C1580 1.574 . S
C1588 H1583 0.949 . S
C1588 C1594 1.368 . S
C1589 C1573 1.349 . S
C1589 H1581 0.950 . S
C1589 C1587 1.327 . S
C1590 C1578 1.349 . S
C1590 H1584 0.950 . S
C1590 C1591 1.327 . S
C1591 H1585 0.950 . S
C1591 C1590 1.327 . S
C1591 C1595 1.429 . S
C1592 C1575 1.574 . S
C1592 H1586 0.949 . S
C1592 C1596 1.368 . S
C1593 C1574 1.429 . S
C1593 C1587 1.429 . S
C1593 C1594 1.523 . S
C1594 C1575 1.368 . S
C1594 C1588 1.368 . S
C1594 C1593 1.523 . S
C1595 C1579 1.429 . S
C1595 C1591 1.429 . S
C1595 C1596 1.523 . S
C1596 C1580 1.368 . S
C1596 C1592 1.368 . S
C1596 C1595 1.523 . S
H1597 C1572 0.950 . S
H1598 C1574 0.950 . S
H1599 C1575 0.949 . S
H1600 C1577 0.950 . S
H1601 C1579 0.950 . S
C1602 C1603 1.349 . S
C1602 C1604 1.327 . S
C1602 H1627 0.950 . S
C1603 C1602 1.349 . S
C1603 C1619 1.349 . S
C1604 C1602 1.327 . S
C1604 C1623 1.429 . S
C1604 H1628 0.950 . S
C1605 C1622 1.574 . S
C1605 C1624 1.368 . S
C1605 H1629 0.949 . S
H1606 C1610 0.949 . S
C1607 C1608 1.349 . S
C1607 C1609 1.327 . S
C1607 H1630 0.950 . S
C1608 C1607 1.349 . S
C1608 C1620 1.349 . S
C1609 C1607 1.327 . S
C1609 C1625 1.429 . S
C1609 H1631 0.950 . S
C1610 H1606 0.949 . S
C1610 C1618 1.574 . S
C1610 C1626 1.368 . S
H1611 C1619 0.950 . S
H1612 C1617 0.950 . S
H1613 C1618 0.949 . S
H1614 C1620 0.950 . S
H1615 C1621 0.950 . S
H1616 C1622 0.949 . S
C1617 H1612 0.950 . S
C1617 C1619 1.327 . S
C1617 C1623 1.429 . S
C1618 C1610 1.574 . S
C1618 H1613 0.949 . S
C1618 C1624 1.368 . S
C1619 C1603 1.349 . S
C1619 H1611 0.950 . S
C1619 C1617 1.327 . S
C1620 C1608 1.349 . S
C1620 H1614 0.950 . S
C1620 C1621 1.327 . S
C1621 H1615 0.950 . S
C1621 C1620 1.327 . S
C1621 C1625 1.429 . S
C1622 C1605 1.574 . S
C1622 H1616 0.949 . S
C1622 C1626 1.368 . S
C1623 C1604 1.429 . S
C1623 C1617 1.429 . S
C1623 C1624 1.523 . S
C1624 C1605 1.368 . S
C1624 C1618 1.368 . S
C1624 C1623 1.523 . S
C1625 C1609 1.429 . S
C1625 C1621 1.429 . S
C1625 C1626 1.523 . S
C1626 C1610 1.368 . S
C1626 C1622 1.368 . S
C1626 C1625 1.523 . S
H1627 C1602 0.950 . S
H1628 C1604 0.950 . S
H1629 C1605 0.949 . S
H1630 C1607 0.950 . S
H1631 C1609 0.950 . S
C1632 C1633 1.349 . S
C1632 C1634 1.327 . S
C1632 H1657 0.950 . S
C1633 C1632 1.349 . S
C1633 C1649 1.349 . S
C1634 C1632 1.327 . S
C1634 C1653 1.429 . S
C1634 H1658 0.950 . S
C1635 C1652 1.574 . S
C1635 C1654 1.368 . S
C1635 H1659 0.949 . S
H1636 C1640 0.949 . S
C1637 C1638 1.349 . S
C1637 C1639 1.327 . S
C1637 H1660 0.950 . S
C1638 C1637 1.349 . S
C1638 C1650 1.349 . S
C1639 C1637 1.327 . S
C1639 C1655 1.429 . S
C1639 H1661 0.950 . S
C1640 H1636 0.949 . S
C1640 C1648 1.574 . S
C1640 C1656 1.368 . S
H1641 C1649 0.950 . S
H1642 C1647 0.950 . S
H1643 C1648 0.949 . S
H1644 C1650 0.950 . S
H1645 C1651 0.950 . S
H1646 C1652 0.949 . S
C1647 H1642 0.950 . S
C1647 C1649 1.327 . S
C1647 C1653 1.429 . S
C1648 C1640 1.574 . S
C1648 H1643 0.949 . S
C1648 C1654 1.368 . S
C1649 C1633 1.349 . S
C1649 H1641 0.950 . S
C1649 C1647 1.327 . S
C1650 C1638 1.349 . S
C1650 H1644 0.950 . S
C1650 C1651 1.327 . S
C1651 H1645 0.950 . S
C1651 C1650 1.327 . S
C1651 C1655 1.429 . S
C1652 C1635 1.574 . S
C1652 H1646 0.949 . S
C1652 C1656 1.368 . S
C1653 C1634 1.429 . S
C1653 C1647 1.429 . S
C1653 C1654 1.523 . S
C1654 C1635 1.368 . S
C1654 C1648 1.368 . S
C1654 C1653 1.523 . S
C1655 C1639 1.429 . S
C1655 C1651 1.429 . S
C1655 C1656 1.523 . S
C1656 C1640 1.368 . S
C1656 C1652 1.368 . S
C1656 C1655 1.523 . S
H1657 C1632 0.950 . S
H1658 C1634 0.950 . S
H1659 C1635 0.949 . S
H1660 C1637 0.950 . S
H1661 C1639 0.950 . S
C1662 C1663 1.349 . S
C1662 C1664 1.327 . S
C1662 H1687 0.950 . S
C1663 C1662 1.349 . S
C1663 C1679 1.349 . S
C1664 C1662 1.327 . S
C1664 C1683 1.429 . S
C1664 H1688 0.950 . S
C1665 C1682 1.574 . S
C1665 C1684 1.368 . S
C1665 H1689 0.949 . S
H1666 C1670 0.949 . S
C1667 C1668 1.349 . S
C1667 C1669 1.327 . S
C1667 H1690 0.950 . S
C1668 C1667 1.349 . S
C1668 C1680 1.349 . S
C1669 C1667 1.327 . S
C1669 C1685 1.429 . S
C1669 H1691 0.950 . S
C1670 H1666 0.949 . S
C1670 C1678 1.574 . S
C1670 C1686 1.368 . S
H1671 C1679 0.950 . S
H1672 C1677 0.950 . S
H1673 C1678 0.949 . S
H1674 C1680 0.950 . S
H1675 C1681 0.950 . S
H1676 C1682 0.949 . S
C1677 H1672 0.950 . S
C1677 C1679 1.327 . S
C1677 C1683 1.429 . S
C1678 C1670 1.574 . S
C1678 H1673 0.949 . S
C1678 C1684 1.368 . S
C1679 C1663 1.349 . S
C1679 H1671 0.950 . S
C1679 C1677 1.327 . S
C1680 C1668 1.349 . S
C1680 H1674 0.950 . S
C1680 C1681 1.327 . S
C1681 H1675 0.950 . S
C1681 C1680 1.327 . S
C1681 C1685 1.429 . S
C1682 C1665 1.574 . S
C1682 H1676 0.949 . S
C1682 C1686 1.368 . S
C1683 C1664 1.429 . S
C1683 C1677 1.429 . S
C1683 C1684 1.523 . S
C1684 C1665 1.368 . S
C1684 C1678 1.368 . S
C1684 C1683 1.523 . S
C1685 C1669 1.429 . S
C1685 C1681 1.429 . S
C1685 C1686 1.523 . S
C1686 C1670 1.368 . S
C1686 C1682 1.368 . S
C1686 C1685 1.523 . S
H1687 C1662 0.950 . S
H1688 C1664 0.950 . S
H1689 C1665 0.949 . S
H1690 C1667 0.950 . S
H1691 C1669 0.950 . S
C1692 C1693 1.349 . S
C1692 C1694 1.327 . S
C1692 H1717 0.950 . S
C1693 C1692 1.349 . S
C1693 C1709 1.349 . S
C1694 C1692 1.327 . S
C1694 C1713 1.429 . S
C1694 H1718 0.950 . S
C1695 C1712 1.574 . S
C1695 C1714 1.368 . S
C1695 H1719 0.949 . S
H1696 C1700 0.949 . S
C1697 C1698 1.349 . S
C1697 C1699 1.327 . S
C1697 H1720 0.950 . S
C1698 C1697 1.349 . S
C1698 C1710 1.349 . S
C1699 C1697 1.327 . S
C1699 C1715 1.429 . S
C1699 H1721 0.950 . S
C1700 H1696 0.949 . S
C1700 C1708 1.574 . S
C1700 C1716 1.368 . S
H1701 C1709 0.950 . S
H1702 C1707 0.950 . S
H1703 C1708 0.949 . S
H1704 C1710 0.950 . S
H1705 C1711 0.950 . S
H1706 C1712 0.949 . S
C1707 H1702 0.950 . S
C1707 C1709 1.327 . S
C1707 C1713 1.429 . S
C1708 C1700 1.574 . S
C1708 H1703 0.949 . S
C1708 C1714 1.368 . S
C1709 C1693 1.349 . S
C1709 H1701 0.950 . S
C1709 C1707 1.327 . S
C1710 C1698 1.349 . S
C1710 H1704 0.950 . S
C1710 C1711 1.327 . S
C1711 H1705 0.950 . S
C1711 C1710 1.327 . S
C1711 C1715 1.429 . S
C1712 C1695 1.574 . S
C1712 H1706 0.949 . S
C1712 C1716 1.368 . S
C1713 C1694 1.429 . S
C1713 C1707 1.429 . S
C1713 C1714 1.523 . S
C1714 C1695 1.368 . S
C1714 C1708 1.368 . S
C1714 C1713 1.523 . S
C1715 C1699 1.429 . S
C1715 C1711 1.429 . S
C1715 C1716 1.523 . S
C1716 C1700 1.368 . S
C1716 C1712 1.368 . S
C1716 C1715 1.523 . S
H1717 C1692 0.950 . S
H1718 C1694 0.950 . S
H1719 C1695 0.949 . S
H1720 C1697 0.950 . S
H1721 C1699 0.950 . S
C1722 C1723 1.349 . S
C1722 C1724 1.327 . S
C1722 H1747 0.950 . S
C1723 C1722 1.349 . S
C1723 C1739 1.349 . S
C1724 C1722 1.327 . S
C1724 C1743 1.429 . S
C1724 H1748 0.950 . S
C1725 C1742 1.574 . S
C1725 C1744 1.368 . S
C1725 H1749 0.949 . S
H1726 C1730 0.949 . S
C1727 C1728 1.349 . S
C1727 C1729 1.327 . S
C1727 H1750 0.950 . S
C1728 C1727 1.349 . S
C1728 C1740 1.349 . S
C1729 C1727 1.327 . S
C1729 C1745 1.429 . S
C1729 H1751 0.950 . S
C1730 H1726 0.949 . S
C1730 C1738 1.574 . S
C1730 C1746 1.368 . S
H1731 C1739 0.950 . S
H1732 C1737 0.950 . S
H1733 C1738 0.949 . S
H1734 C1740 0.950 . S
H1735 C1741 0.950 . S
H1736 C1742 0.949 . S
C1737 H1732 0.950 . S
C1737 C1739 1.327 . S
C1737 C1743 1.429 . S
C1738 C1730 1.574 . S
C1738 H1733 0.949 . S
C1738 C1744 1.368 . S
C1739 C1723 1.349 . S
C1739 H1731 0.950 . S
C1739 C1737 1.327 . S
C1740 C1728 1.349 . S
C1740 H1734 0.950 . S
C1740 C1741 1.327 . S
C1741 H1735 0.950 . S
C1741 C1740 1.327 . S
C1741 C1745 1.429 . S
C1742 C1725 1.574 . S
C1742 H1736 0.949 . S
C1742 C1746 1.368 . S
C1743 C1724 1.429 . S
C1743 C1737 1.429 . S
C1743 C1744 1.523 . S
C1744 C1725 1.368 . S
C1744 C1738 1.368 . S
C1744 C1743 1.523 . S
C1745 C1729 1.429 . S
C1745 C1741 1.429 . S
C1745 C1746 1.523 . S
C1746 C1730 1.368 . S
C1746 C1742 1.368 . S
C1746 C1745 1.523 . S
H1747 C1722 0.950 . S
H1748 C1724 0.950 . S
H1749 C1725 0.949 . S
H1750 C1727 0.950 . S
H1751 C1729 0.950 . S
C1752 C1753 1.349 . S
C1752 C1754 1.327 . S
C1752 H1777 0.950 . S
C1753 C1752 1.349 . S
C1753 C1769 1.349 . S
C1754 C1752 1.327 . S
C1754 C1773 1.429 . S
C1754 H1778 0.950 . S
C1755 C1772 1.574 . S
C1755 C1774 1.368 . S
C1755 H1779 0.949 . S
H1756 C1760 0.949 . S
C1757 C1758 1.349 . S
C1757 C1759 1.327 . S
C1757 H1780 0.950 . S
C1758 C1757 1.349 . S
C1758 C1770 1.349 . S
C1759 C1757 1.327 . S
C1759 C1775 1.429 . S
C1759 H1781 0.950 . S
C1760 H1756 0.949 . S
C1760 C1768 1.574 . S
C1760 C1776 1.368 . S
H1761 C1769 0.950 . S
H1762 C1767 0.950 . S
H1763 C1768 0.949 . S
H1764 C1770 0.950 . S
H1765 C1771 0.950 . S
H1766 C1772 0.949 . S
C1767 H1762 0.950 . S
C1767 C1769 1.327 . S
C1767 C1773 1.429 . S
C1768 C1760 1.574 . S
C1768 H1763 0.949 . S
C1768 C1774 1.368 . S
C1769 C1753 1.349 . S
C1769 H1761 0.950 . S
C1769 C1767 1.327 . S
C1770 C1758 1.349 . S
C1770 H1764 0.950 . S
C1770 C1771 1.327 . S
C1771 H1765 0.950 . S
C1771 C1770 1.327 . S
C1771 C1775 1.429 . S
C1772 C1755 1.574 . S
C1772 H1766 0.949 . S
C1772 C1776 1.368 . S
C1773 C1754 1.429 . S
C1773 C1767 1.429 . S
C1773 C1774 1.523 . S
C1774 C1755 1.368 . S
C1774 C1768 1.368 . S
C1774 C1773 1.523 . S
C1775 C1759 1.429 . S
C1775 C1771 1.429 . S
C1775 C1776 1.523 . S
C1776 C1760 1.368 . S
C1776 C1772 1.368 . S
C1776 C1775 1.523 . S
H1777 C1752 0.950 . S
H1778 C1754 0.950 . S
H1779 C1755 0.949 . S
H1780 C1757 0.950 . S
H1781 C1759 0.950 . S
C1782 C1783 1.349 . S
C1782 C1784 1.327 . S
C1782 H1807 0.950 . S
C1783 C1782 1.349 . S
C1783 C1799 1.349 . S
C1784 C1782 1.327 . S
C1784 C1803 1.429 . S
C1784 H1808 0.950 . S
C1785 C1802 1.574 1_455 S
C1785 C1804 1.368 . S
C1785 H1809 0.949 . S
H1786 C1790 0.949 . S
C1787 C1788 1.349 . S
C1787 C1789 1.327 . S
C1787 H1810 0.950 . S
C1788 C1787 1.349 . S
C1788 C1800 1.349 . S
C1789 C1787 1.327 . S
C1789 C1805 1.429 . S
C1789 H1811 0.950 . S
C1790 H1786 0.949 . S
C1790 C1798 1.574 1_655 S
C1790 C1806 1.368 . S
H1791 C1799 0.950 . S
H1792 C1797 0.950 . S
H1793 C1798 0.949 . S
H1794 C1800 0.950 . S
H1795 C1801 0.950 . S
H1796 C1802 0.949 . S
C1797 H1792 0.950 . S
C1797 C1799 1.327 . S
C1797 C1803 1.429 . S
C1798 C1790 1.574 1_455 S
C1798 H1793 0.949 . S
C1798 C1804 1.368 . S
C1799 C1783 1.349 . S
C1799 H1791 0.950 . S
C1799 C1797 1.327 . S
C1800 C1788 1.349 . S
C1800 H1794 0.950 . S
C1800 C1801 1.327 . S
C1801 H1795 0.950 . S
C1801 C1800 1.327 . S
C1801 C1805 1.429 . S
C1802 C1785 1.574 1_655 S
C1802 H1796 0.949 . S
C1802 C1806 1.368 . S
C1803 C1784 1.429 . S
C1803 C1797 1.429 . S
C1803 C1804 1.523 . S
C1804 C1785 1.368 . S
C1804 C1798 1.368 . S
C1804 C1803 1.523 . S
C1805 C1789 1.429 . S
C1805 C1801 1.429 . S
C1805 C1806 1.523 . S
C1806 C1790 1.368 . S
C1806 C1802 1.368 . S
C1806 C1805 1.523 . S
H1807 C1782 0.950 . S
H1808 C1784 0.950 . S
H1809 C1785 0.949 . S
H1810 C1787 0.950 . S
H1811 C1789 0.950 . S
C1812 C1813 1.349 . S
C1812 C1814 1.327 . S
C1812 H1837 0.950 . S
C1813 C1812 1.349 . S
C1813 C1829 1.349 . S
C1814 C1812 1.327 . S
C1814 C1833 1.429 . S
C1814 H1838 0.950 . S
C1815 C1832 1.574 . S
C1815 C1834 1.368 . S
C1815 H1839 0.949 . S
H1816 C1820 0.949 . S
C1817 C1818 1.349 . S
C1817 C1819 1.327 . S
C1817 H1840 0.950 . S
C1818 C1817 1.349 . S
C1818 C1830 1.349 . S
C1819 C1817 1.327 . S
C1819 C1835 1.429 . S
C1819 H1841 0.950 . S
C1820 H1816 0.949 . S
C1820 C1828 1.574 . S
C1820 C1836 1.368 . S
H1821 C1829 0.950 . S
H1822 C1827 0.950 . S
H1823 C1828 0.949 . S
H1824 C1830 0.950 . S
H1825 C1831 0.950 . S
H1826 C1832 0.949 . S
C1827 H1822 0.950 . S
C1827 C1829 1.327 . S
C1827 C1833 1.429 . S
C1828 C1820 1.574 . S
C1828 H1823 0.949 . S
C1828 C1834 1.368 . S
C1829 C1813 1.349 . S
C1829 H1821 0.950 . S
C1829 C1827 1.327 . S
C1830 C1818 1.349 . S
C1830 H1824 0.950 . S
C1830 C1831 1.327 . S
C1831 H1825 0.950 . S
C1831 C1830 1.327 . S
C1831 C1835 1.429 . S
C1832 C1815 1.574 . S
C1832 H1826 0.949 . S
C1832 C1836 1.368 . S
C1833 C1814 1.429 . S
C1833 C1827 1.429 . S
C1833 C1834 1.523 . S
C1834 C1815 1.368 . S
C1834 C1828 1.368 . S
C1834 C1833 1.523 . S
C1835 C1819 1.429 . S
C1835 C1831 1.429 . S
C1835 C1836 1.523 . S
C1836 C1820 1.368 . S
C1836 C1832 1.368 . S
C1836 C1835 1.523 . S
H1837 C1812 0.950 . S
H1838 C1814 0.950 . S
H1839 C1815 0.949 . S
H1840 C1817 0.950 . S
H1841 C1819 0.950 . S
C1842 C1843 1.349 . S
C1842 C1844 1.327 . S
C1842 H1867 0.950 . S
C1843 C1842 1.349 . S
C1843 C1859 1.349 . S
C1844 C1842 1.327 . S
C1844 C1863 1.429 . S
C1844 H1868 0.950 . S
C1845 C1862 1.574 1_565 S
C1845 C1864 1.368 . S
C1845 H1869 0.949 . S
H1846 C1850 0.949 . S
C1847 C1848 1.349 . S
C1847 C1849 1.327 . S
C1847 H1870 0.950 . S
C1848 C1847 1.349 . S
C1848 C1860 1.349 . S
C1849 C1847 1.327 . S
C1849 C1865 1.429 . S
C1849 H1871 0.950 . S
C1850 H1846 0.949 . S
C1850 C1858 1.574 1_545 S
C1850 C1866 1.368 . S
H1851 C1859 0.950 . S
H1852 C1857 0.950 . S
H1853 C1858 0.949 . S
H1854 C1860 0.950 . S
H1855 C1861 0.950 . S
H1856 C1862 0.949 . S
C1857 H1852 0.950 . S
C1857 C1859 1.327 . S
C1857 C1863 1.429 . S
C1858 C1850 1.574 1_565 S
C1858 H1853 0.949 . S
C1858 C1864 1.368 . S
C1859 C1843 1.349 . S
C1859 H1851 0.950 . S
C1859 C1857 1.327 . S
C1860 C1848 1.349 . S
C1860 H1854 0.950 . S
C1860 C1861 1.327 . S
C1861 H1855 0.950 . S
C1861 C1860 1.327 . S
C1861 C1865 1.429 . S
C1862 C1845 1.574 1_545 S
C1862 H1856 0.949 . S
C1862 C1866 1.368 . S
C1863 C1844 1.429 . S
C1863 C1857 1.429 . S
C1863 C1864 1.523 . S
C1864 C1845 1.368 . S
C1864 C1858 1.368 . S
C1864 C1863 1.523 . S
C1865 C1849 1.429 . S
C1865 C1861 1.429 . S
C1865 C1866 1.523 . S
C1866 C1850 1.368 . S
C1866 C1862 1.368 . S
C1866 C1865 1.523 . S
H1867 C1842 0.950 . S
H1868 C1844 0.950 . S
H1869 C1845 0.949 . S
H1870 C1847 0.950 . S
H1871 C1849 0.950 . S
C1872 C1873 1.349 . S
C1872 C1874 1.327 . S
C1872 H1897 0.950 . S
C1873 C1872 1.349 . S
C1873 C1889 1.349 . S
C1874 C1872 1.327 . S
C1874 C1893 1.429 . S
C1874 H1898 0.950 . S
C1875 C1892 1.574 1_565 S
C1875 C1894 1.368 . S
C1875 H1899 0.949 . S
H1876 C1880 0.949 . S
C1877 C1878 1.349 . S
C1877 C1879 1.327 . S
C1877 H1900 0.950 . S
C1878 C1877 1.349 . S
C1878 C1890 1.349 . S
C1879 C1877 1.327 . S
C1879 C1895 1.429 . S
C1879 H1901 0.950 . S
C1880 H1876 0.949 . S
C1880 C1888 1.574 1_545 S
C1880 C1896 1.368 . S
H1881 C1889 0.950 . S
H1882 C1887 0.950 . S
H1883 C1888 0.949 . S
H1884 C1890 0.950 . S
H1885 C1891 0.950 . S
H1886 C1892 0.949 . S
C1887 H1882 0.950 . S
C1887 C1889 1.327 . S
C1887 C1893 1.429 . S
C1888 C1880 1.574 1_565 S
C1888 H1883 0.949 . S
C1888 C1894 1.368 . S
C1889 C1873 1.349 . S
C1889 H1881 0.950 . S
C1889 C1887 1.327 . S
C1890 C1878 1.349 . S
C1890 H1884 0.950 . S
C1890 C1891 1.327 . S
C1891 H1885 0.950 . S
C1891 C1890 1.327 . S
C1891 C1895 1.429 . S
C1892 C1875 1.574 1_545 S
C1892 H1886 0.949 . S
C1892 C1896 1.368 . S
C1893 C1874 1.429 . S
C1893 C1887 1.429 . S
C1893 C1894 1.523 . S
C1894 C1875 1.368 . S
C1894 C1888 1.368 . S
C1894 C1893 1.523 . S
C1895 C1879 1.429 . S
C1895 C1891 1.429 . S
C1895 C1896 1.523 . S
C1896 C1880 1.368 . S
C1896 C1892 1.368 . S
C1896 C1895 1.523 . S
H1897 C1872 0.950 . S
H1898 C1874 0.950 . S
H1899 C1875 0.949 . S
H1900 C1877 0.950 . S
H1901 C1879 0.950 . S
C1902 C1903 1.349 . S
C1902 C1904 1.327 . S
C1902 H1927 0.950 . S
C1903 C1902 1.349 . S
C1903 C1919 1.349 . S
C1904 C1902 1.327 . S
C1904 C1923 1.429 . S
C1904 H1928 0.950 . S
C1905 C1922 1.574 1_455 S
C1905 C1924 1.368 . S
C1905 H1929 0.949 . S
H1906 C1910 0.949 . S
C1907 C1908 1.349 . S
C1907 C1909 1.327 . S
C1907 H1930 0.950 . S
C1908 C1907 1.349 . S
C1908 C1920 1.349 . S
C1909 C1907 1.327 . S
C1909 C1925 1.429 . S
C1909 H1931 0.950 . S
C1910 H1906 0.949 . S
C1910 C1918 1.574 1_655 S
C1910 C1926 1.368 . S
H1911 C1919 0.950 . S
H1912 C1917 0.950 . S
H1913 C1918 0.949 . S
H1914 C1920 0.950 . S
H1915 C1921 0.950 . S
H1916 C1922 0.949 . S
C1917 H1912 0.950 . S
C1917 C1919 1.327 . S
C1917 C1923 1.429 . S
C1918 C1910 1.574 1_455 S
C1918 H1913 0.949 . S
C1918 C1924 1.368 . S
C1919 C1903 1.349 . S
C1919 H1911 0.950 . S
C1919 C1917 1.327 . S
C1920 C1908 1.349 . S
C1920 H1914 0.950 . S
C1920 C1921 1.327 . S
C1921 H1915 0.950 . S
C1921 C1920 1.327 . S
C1921 C1925 1.429 . S
C1922 C1905 1.574 1_655 S
C1922 H1916 0.949 . S
C1922 C1926 1.368 . S
C1923 C1904 1.429 . S
C1923 C1917 1.429 . S
C1923 C1924 1.523 . S
C1924 C1905 1.368 . S
C1924 C1918 1.368 . S
C1924 C1923 1.523 . S
C1925 C1909 1.429 . S
C1925 C1921 1.429 . S
C1925 C1926 1.523 . S
C1926 C1910 1.368 . S
C1926 C1922 1.368 . S
C1926 C1925 1.523 . S
H1927 C1902 0.950 . S
H1928 C1904 0.950 . S
H1929 C1905 0.949 . S
H1930 C1907 0.950 . S
H1931 C1909 0.950 . S
C1932 C1933 1.349 . S
C1932 C1934 1.327 . S
C1932 H1957 0.950 . S
C1933 C1932 1.349 . S
C1933 C1949 1.349 . S
C1934 C1932 1.327 . S
C1934 C1953 1.429 . S
C1934 H1958 0.950 . S
C1935 C1952 1.574 . S
C1935 C1954 1.368 . S
C1935 H1959 0.949 . S
H1936 C1940 0.949 . S
C1937 C1938 1.349 . S
C1937 C1939 1.327 . S
C1937 H1960 0.950 . S
C1938 C1937 1.349 . S
C1938 C1950 1.349 . S
C1939 C1937 1.327 . S
C1939 C1955 1.429 . S
C1939 H1961 0.950 . S
C1940 H1936 0.949 . S
C1940 C1948 1.574 . S
C1940 C1956 1.368 . S
H1941 C1949 0.950 . S
H1942 C1947 0.950 . S
H1943 C1948 0.949 . S
H1944 C1950 0.950 . S
H1945 C1951 0.950 . S
H1946 C1952 0.949 . S
C1947 H1942 0.950 . S
C1947 C1949 1.327 . S
C1947 C1953 1.429 . S
C1948 C1940 1.574 . S
C1948 H1943 0.949 . S
C1948 C1954 1.368 . S
C1949 C1933 1.349 . S
C1949 H1941 0.950 . S
C1949 C1947 1.327 . S
C1950 C1938 1.349 . S
C1950 H1944 0.950 . S
C1950 C1951 1.327 . S
C1951 H1945 0.950 . S
C1951 C1950 1.327 . S
C1951 C1955 1.429 . S
C1952 C1935 1.574 . S
C1952 H1946 0.949 . S
C1952 C1956 1.368 . S
C1953 C1934 1.429 . S
C1953 C1947 1.429 . S
C1953 C1954 1.523 . S
C1954 C1935 1.368 . S
C1954 C1948 1.368 . S
C1954 C1953 1.523 . S
C1955 C1939 1.429 . S
C1955 C1951 1.429 . S
C1955 C1956 1.523 . S
C1956 C1940 1.368 . S
C1956 C1952 1.368 . S
C1956 C1955 1.523 . S
H1957 C1932 0.950 . S
H1958 C1934 0.950 . S
H1959 C1935 0.949 . S
H1960 C1937 0.950 . S
H1961 C1939 0.950 . S
C613 C111 0.688 . S
C618 C9 0.688 . S
C643 C43 0.586 . S
C648 C145 0.587 . S
C673 C77 0.587 . S
C678 C179 0.586 . S
C703 C190 2.480 . S
C708 C54 2.480 . S
C733 C122 2.372 . S
C738 C88 2.373 . S
C763 C156 2.373 . S
C768 C20 2.372 . S
C793 C315 0.552 . S
C798 C213 0.555 . S
C823 C349 0.618 . S
C828 C247 0.616 . S
C853 C281 0.547 . S
C858 C383 0.540 . S
C883 C394 2.305 . S
C888 C258 2.304 . S
C913 C326 2.290 . S
C918 C292 2.296 . S
C943 C224 2.408 . S
C948 C360 2.409 . S
C973 C519 0.559 . S
C978 C417 0.550 . S
C1003 C451 0.538 . S
C1008 C553 0.544 . S
C1033 C485 0.618 . S
C1038 C587 0.616 . S
C1063 C462 2.305 . S
C1068 C598 2.304 . S
C1093 C530 2.408 . S
C1098 C496 2.409 . S
C1123 C564 2.295 . S
C1128 C428 2.289 . S
C1153 C611 1.634 . S
C1158 C33 1.634 . S
C1183 C543 1.634 . S
C1188 C67 1.634 . S
C1213 C101 1.577 . S
C1218 C577 1.578 . S
C1243 C135 1.634 . S
C1248 C271 1.634 . S
C1273 C305 1.578 . S
C1278 C169 1.577 . S
C1303 C237 1.634 . S
C1308 C203 1.634 . S
C1333 C339 1.522 . S
C1338 C475 1.521 . S
C1363 C509 1.705 . S
C1368 C373 1.705 . S
C1393 C441 1.522 . S
C1398 C407 1.521 . S
C1423 C2 1.484 . S
C1428 C342 1.482 . S
C1453 C376 1.632 . S
C1458 C36 1.632 . S
C1483 C308 1.637 . S
C1488 C70 1.628 . S
C1513 C104 1.484 . S
C1518 C478 1.482 . S
C1543 C410 1.637 . S
C1548 C138 1.628 . S
C1573 C172 1.627 . S
C1578 C444 1.638 . S
C1603 C481 0.460 . S
C1608 C175 0.453 . S
C1633 C107 0.345 . S
C1638 C413 0.320 . S
C1663 C447 0.312 . S
C1668 C141 0.339 . S
C1693 C39 0.453 . S
C1698 C345 0.460 . S
C1723 C73 0.342 . S
C1728 C379 0.312 . S
C1753 C311 0.325 . S
C1758 C5 0.339 . S
C1783 C546 1.543 . S
C1788 C206 1.542 . S
C1813 C240 1.423 . S
C1818 C580 1.423 . S
C1843 C512 1.542 . S
C1848 C274 1.543 . S
C1873 C549 0.383 . S
C1878 C243 0.380 . S
C1903 C583 0.380 . S
C1908 C277 0.383 . S
C1933 C515 0.522 . S
C1938 C209 0.522 . S
