# Generated by pormake.
# Topology sxc, (6)-cn, num edge types: 1
# Building blocks:
#     Node 0, Type 0, BuildingBlock: BETGAK_clean_sbu_0, # of connection points: 6
#     Node 1, Type 0, BuildingBlock: BETGAK_clean_sbu_0, # of connection points: 6
#     Node 2, Type 0, BuildingBlock: BETGAK_clean_sbu_0, # of connection points: 6
#     Edge 3, Type (0, 0), BuildingBlock: UVAHIK_clean_linker_0, # of connection points: 2
#     Edge 4, Type (0, 0), BuildingBlock: UVAHIK_clean_linker_0, # of connection points: 2
#     Edge 5, Type (0, 0), BuildingBlock: UVAHIK_clean_linker_0, # of connection points: 2
#     Edge 6, Type (0, 0), BuildingBlock: UVAHIK_clean_linker_0, # of connection points: 2
#     Edge 7, Type (0, 0), BuildingBlock: UVAHIK_clean_linker_0, # of connection points: 2
#     Edge 8, Type (0, 0), BuildingBlock: UVAHIK_clean_linker_0, # of connection points: 2
#     Edge 9, Type (0, 0), BuildingBlock: UVAHIK_clean_linker_0, # of connection points: 2
#     Edge 10, Type (0, 0), BuildingBlock: UVAHIK_clean_linker_0, # of connection points: 2
#     Edge 11, Type (0, 0), BuildingBlock: UVAHIK_clean_linker_0, # of connection points: 2
# Relax obj value: 0.221
# Max RMSD: 0.139
# Mean RMSD: 0.077
data_MOF--net-sxc--node1-BETGAK_clean_sbu_0--edge1-UVAHIK_clean_linker_0
_symmetry_space_group_name_H-M    P1
_symmetry_Int_Tables_number       1
_symmetry_cell_setting            triclinic
loop_
_symmetry_equiv_pos_as_xyz
'x, y, z'
_cell_length_a     22.590929
_cell_length_b     20.815063
_cell_length_c     57.992205
_cell_angle_alpha  91.263253
_cell_angle_beta   93.882182
_cell_angle_gamma 100.03831
loop_
_atom_site_label
_atom_site_type_symbol
_atom_site_fract_x
_atom_site_fract_y
_atom_site_fract_z
_atom_type_partial_charge
La0 La 0.17224 0.07084 0.00672 0.0
La1 La 1.04683 0.05721 0.01161 0.0
C2 C 0.27762 0.09388 0.99356 0.0
C3 C 0.32852 0.14782 0.99406 0.0
C4 C 0.38699 0.13409 0.99719 0.0
C5 C 0.43641 0.18477 0.9991 0.0
C6 C 0.4278 0.24977 0.99778 0.0
C7 C 0.36913 0.26332 0.9942 0.0
C8 C 0.3197 0.21261 0.99244 0.0
C9 C 0.1438 0.05995 0.05045 0.0
C10 C 0.11338 0.20368 0.00988 0.0
C11 C 0.9425 1.0318 0.02569 0.0
C12 C 0.90267 0.97277 0.03195 0.0
C13 C 0.84029 0.96884 0.02835 0.0
C14 C 0.8019 0.90984 0.03108 0.0
C15 C 0.82565 0.85399 0.03725 0.0
C16 C 0.88808 0.85927 0.04219 0.0
C17 C 0.92635 0.91837 0.0396 0.0
C18 C 1.07506 0.06958 0.96795 0.0
C19 C 0.10551 0.92515 0.0079 0.0
O20 O 0.26445 0.07074 0.01366 0.0
O21 O 0.22954 0.09988 0.98046 0.0
O22 O 0.18427 1.03254 0.04142 0.0
O23 O 0.1221 0.09366 0.03528 0.0
O24 O 0.16132 0.17701 0.00531 0.0
O25 O 1.06323 0.16474 0.01477 0.0
O26 O 0.95332 0.03471 0.00387 0.0
O27 O 0.99138 0.0499 0.0393 0.0
O28 O 1.03453 0.09658 0.97725 0.0
O29 O 0.0971 0.03519 0.98288 0.0
O30 O 1.06008 0.95229 0.01488 0.0
O31 O 0.15286 0.96398 0.00063 0.0
H32 H 0.39432 0.08416 0.99849 0.0
H33 H 0.48129 0.17325 0.0017 0.0
H34 H 0.36139 0.31318 0.99343 0.0
H35 H 0.27476 0.22405 0.99017 0.0
H36 H 0.82145 1.01068 0.02258 0.0
H37 H 0.75383 0.90725 0.0275 0.0
H38 H 0.90771 0.81695 0.04677 0.0
H39 H 0.97448 0.92075 0.04269 0.0
La40 La 1.04037 0.05077 0.34174 0.0
La41 La 0.16471 0.07739 0.34245 0.0
C42 C 0.93513 0.05971 0.35037 0.0
C43 C 0.90437 0.11664 0.35038 0.0
C44 C 0.86315 0.12373 0.33192 0.0
C45 C 0.82933 0.17337 0.3326 0.0
C46 C 0.83476 0.21641 0.35212 0.0
C47 C 0.88105 0.21378 0.36936 0.0
C48 C 0.9153 0.16403 0.3686 0.0
C49 C 1.07858 0.04564 0.29962 0.0
C50 C 0.10771 0.20378 0.34134 0.0
C51 C 0.26985 0.06781 0.33393 0.0
C52 C 0.29896 1.0097 0.33366 0.0
C53 C 0.34101 1.00192 0.35173 0.0
C54 C 0.37131 0.94931 0.35131 0.0
C55 C 0.3613 0.90356 0.33247 0.0
C56 C 0.31513 0.90825 0.31541 0.0
C57 C 0.28438 0.96098 0.31593 0.0
C58 C 0.12614 0.08177 0.38453 0.0
C59 C 0.0973 0.92438 0.34284 0.0
O60 O 0.94906 0.0399 0.33022 0.0
O61 O 0.9786 0.05991 0.36646 0.0
O62 O 1.03531 1.00427 0.30728 0.0
O63 O 0.09864 0.08859 0.31538 0.0
O64 O 1.05813 0.16092 0.34466 0.0
O65 O 0.15774 0.18107 0.33783 0.0
O66 O 0.25583 0.08689 0.35416 0.0
O67 O 0.22691 0.06947 0.31778 0.0
O68 O 0.16929 0.12355 0.37698 0.0
O69 O 0.10644 0.03904 0.36868 0.0
O70 O 0.14678 0.96721 0.33935 0.0
O71 O 1.04742 0.94718 0.34653 0.0
H72 H 0.85471 0.08883 0.31742 0.0
H73 H 0.79459 0.17305 0.31878 0.0
H74 H 0.88718 0.24659 0.38443 0.0
H75 H 0.94825 0.16106 0.38281 0.0
H76 H 0.3523 0.038 0.36582 0.0
H77 H 0.40655 0.94853 0.36485 0.0
H78 H 0.30593 0.87384 0.30078 0.0
H79 H 0.25077 0.96462 0.30202 0.0
La80 La 0.096 0.99352 0.67872 0.0
La81 La 0.11049 0.12487 0.67335 0.0
C82 C 1.06711 0.88001 0.69341 0.0
C83 C 1.00966 0.83735 0.69667 0.0
C84 C 1.00171 0.77149 0.68958 0.0
C85 C 0.94527 0.7318 0.68989 0.0
C86 C 0.89595 0.75757 0.6973 0.0
C87 C 0.90473 0.82298 0.70531 0.0
C88 C 0.96113 0.86262 0.70497 0.0
C89 C 0.10254 1.02275 0.63456 0.0
C90 C 0.96616 0.05918 0.67512 0.0
C91 C 0.13958 0.23919 0.65938 0.0
C92 C 0.19712 0.28165 0.65611 0.0
C93 C 0.2055 0.34739 0.66338 0.0
C94 C 0.26205 0.38682 0.66302 0.0
C95 C 0.31105 0.36091 0.65538 0.0
C96 C 0.30187 0.29563 0.64722 0.0
C97 C 0.24534 0.25625 0.64759 0.0
C98 C 0.10212 0.09481 0.71727 0.0
C99 C 0.24026 0.05906 0.67676 0.0
O100 O 1.07758 0.89222 0.67196 0.0
O101 O 1.08086 0.93251 0.70683 0.0
O102 O 0.12832 0.97903 0.64467 0.0
O103 O 1.07296 0.04795 0.64908 0.0
O104 O 0.99352 1.0067 0.67948 0.0
O105 O 1.00576 0.11323 0.67061 0.0
O106 O 0.12969 0.22586 0.68079 0.0
O107 O 0.12517 0.18741 0.64565 0.0
O108 O 1.0754 0.1374 0.70693 0.0
O109 O 0.13317 0.07064 0.70302 0.0
O110 O 0.2129 0.11155 0.67247 0.0
O111 O 0.20067 1.005 0.68123 0.0
H112 H 1.03865 0.75135 0.68303 0.0
H113 H 0.93971 0.68178 0.68338 0.0
H114 H 0.86769 0.84385 0.71141 0.0
H115 H 0.96625 0.91333 0.71064 0.0
H116 H 0.16881 0.36762 0.6701 0.0
H117 H 0.26795 0.43675 0.66965 0.0
H118 H 0.33866 0.27466 0.64096 0.0
H119 H 0.23988 0.20563 0.64178 0.0
C120 C 0.16487 0.32392 0.00389 0.0
C121 C 0.11456 0.27821 0.00983 0.0
C122 C 0.1641 0.39249 0.00368 0.0
C123 C 1.05671 0.51878 0.00609 0.0
H124 H 0.20511 0.64398 0.01475 0.0
C125 C 1.05546 0.8053 0.01515 0.0
C126 C 0.10462 0.8507 0.00809 0.0
C127 C 1.05628 0.73675 0.01538 0.0
C128 C 0.16274 0.61047 0.012 0.0
H129 H 1.02374 0.27294 0.02043 0.0
H130 H 1.02266 0.38953 0.02049 0.0
H131 H 0.20787 0.5276 0.01493 0.0
H132 H 0.19355 0.85556 0.99566 0.0
H133 H 0.19487 0.73882 0.99587 0.0
H134 H 1.01162 0.60178 0.00325 0.0
C135 C 1.06297 0.37322 0.01545 0.0
C136 C 0.16438 0.54223 0.01209 0.0
C137 C 1.06374 0.305 0.01562 0.0
C138 C 0.15445 0.82369 0.00131 0.0
C139 C 0.15539 0.7555 0.00161 0.0
C140 C 1.05507 0.58701 0.00606 0.0
C141 C 0.11297 0.4194 0.00941 0.0
C142 C 0.11141 0.49402 0.00915 0.0
C143 C 0.10644 0.70967 0.00868 0.0
C144 C 0.10803 0.63515 0.00897 0.0
H145 H 0.20514 0.30675 0.9992 0.0
H146 H 0.20388 0.42428 0.9986 0.0
H147 H 1.01429 0.48542 0.00326 0.0
H148 H 1.016 0.82268 0.02063 0.0
H149 H 1.01741 0.70508 0.02125 0.0
C150 C 0.44823 0.85374 0.34638 0.0
C151 C 0.41001 0.8665 0.3275 0.0
C152 C 0.50817 0.88597 0.34786 0.0
C153 C 0.54682 0.04541 0.32677 0.0
H154 H 0.68771 0.06191 0.36967 0.0
C155 C 0.7417 0.25651 0.33879 0.0
C156 C 0.78163 0.24611 0.35747 0.0
C157 C 0.68333 0.22005 0.33727 0.0
C158 C 0.64752 0.05822 0.35807 0.0
H159 H 0.40944 0.88517 0.29081 0.0
H160 H 0.51385 0.93776 0.2927 0.0
H161 H 0.6339 0.95361 0.35727 0.0
H162 H 0.78428 0.22419 0.39393 0.0
H163 H 0.68226 0.16444 0.392 0.0
H164 H 0.56012 0.14991 0.32766 0.0
C165 C 0.49695 0.91256 0.30772 0.0
C166 C 0.61767 0.99607 0.35061 0.0
C167 C 0.43684 0.88154 0.30663 0.0
C168 C 0.75609 0.22674 0.37824 0.0
C169 C 0.69746 0.19145 0.37711 0.0
C170 C 0.57659 0.10752 0.33425 0.0
C171 C 0.52922 0.92421 0.32941 0.0
C172 C 0.56718 0.98896 0.33478 0.0
C173 C 0.66477 0.17962 0.35552 0.0
C174 C 0.62717 0.11468 0.35005 0.0
H175 H 0.42917 0.83568 0.36214 0.0
H176 H 0.53318 0.89068 0.36459 0.0
H177 H 0.50658 0.04173 0.3152 0.0
H178 H 0.75926 0.27737 0.32315 0.0
H179 H 0.65786 0.21504 0.32063 0.0
C180 C 0.82564 0.65151 0.70068 0.0
C181 C 0.83484 0.71764 0.69508 0.0
C182 C 0.76871 0.61281 0.69679 0.0
C183 C 0.6075 0.62064 0.68682 0.0
H184 H 0.59778 0.44962 0.65734 0.0
C185 C 0.38162 0.46672 0.65196 0.0
C186 C 0.37228 0.40056 0.6575 0.0
C187 C 0.43865 0.50522 0.6558 0.0
C188 C 0.59987 0.49703 0.66575 0.0
H189 H 0.79169 0.79527 0.68119 0.0
H190 H 0.69231 0.72779 0.67452 0.0
H191 H 0.69615 0.51752 0.66695 0.0
H192 H 0.41528 0.3226 0.67121 0.0
H193 H 0.51485 0.38976 0.67783 0.0
H194 H 0.51124 0.60017 0.68562 0.0
C195 C 0.72888 0.70607 0.68217 0.0
C196 C 0.6561 0.53577 0.67131 0.0
C197 C 0.78576 0.74471 0.68604 0.0
C198 C 0.42133 0.37321 0.66641 0.0
C199 C 0.47831 0.41167 0.67025 0.0
C200 C 0.55128 0.5819 0.68126 0.0
C201 C 0.71999 0.63958 0.68724 0.0
C202 C 0.66042 0.59794 0.68189 0.0
C203 C 0.48734 0.47823 0.66527 0.0
C204 C 0.54694 0.51976 0.67066 0.0
H205 H 0.86254 0.62961 0.70795 0.0
H206 H 0.76283 0.56189 0.70119 0.0
H207 H 0.60958 0.66806 0.69522 0.0
H208 H 0.34474 0.48881 0.64479 0.0
H209 H 0.44462 0.55618 0.65145 0.0
C210 C 0.8453 1.00281 0.67998 0.0
C211 C 0.89114 0.05818 0.67527 0.0
C212 C 0.77929 1.00287 0.68013 0.0
C213 C 0.64445 0.11421 0.67133 0.0
H214 H 0.53373 0.95851 0.68434 0.0
C215 C 0.36115 0.11544 0.67194 0.0
C216 C 0.31529 0.06005 0.6766 0.0
C217 C 0.42716 0.11537 0.67179 0.0
C218 C 0.56198 1.00399 0.68055 0.0
H219 H 0.88947 0.15895 0.66697 0.0
H220 H 0.78053 0.15913 0.66722 0.0
H221 H 0.64247 0.95784 0.68411 0.0
H222 H 0.31693 0.95923 0.68484 0.0
H223 H 0.42587 0.95904 0.6846 0.0
H224 H 0.56396 0.16037 0.66778 0.0
C225 C 0.79531 0.11352 0.67094 0.0
C226 C 0.62788 1.00357 0.68041 0.0
C227 C 0.86121 0.11345 0.67079 0.0
C228 C 0.3452 1.00474 0.68105 0.0
C229 C 0.4111 1.00467 0.6809 0.0
C230 C 0.57855 0.11463 0.67147 0.0
C231 C 0.74927 0.05828 0.67563 0.0
C232 C 0.67419 0.05866 0.67579 0.0
C233 C 0.45716 0.05993 0.67625 0.0
C234 C 0.53224 0.05955 0.67609 0.0
H235 H 0.86044 0.95736 0.68372 0.0
H236 H 0.75122 0.95731 0.68397 0.0
H237 H 0.6727 0.1597 0.66755 0.0
H238 H 0.34602 0.16092 0.66823 0.0
H239 H 0.45524 0.16095 0.66798 0.0
C240 C 0.79446 0.7418 0.05206 0.0
C241 C 0.7867 0.78912 0.03574 0.0
C242 C 0.76215 0.6783 0.04888 0.0
C243 C 0.68465 0.56495 0.00273 0.0
H244 H 0.60038 0.474 0.05184 0.0
C245 C 0.48453 0.35645 0.98634 0.0
C246 C 0.47957 0.30365 0.0011 0.0
C247 C 0.53075 0.40989 0.99059 0.0
C248 C 0.62468 0.49833 0.03809 0.0
H249 H 0.73862 0.80753 0.00355 0.0
H250 H 0.68125 0.69757 0.9984 0.0
H251 H 0.66362 0.58075 0.06018 0.0
H252 H 0.51933 0.26405 0.03151 0.0
H253 H 0.60057 0.35793 0.03896 0.0
H254 H 0.6443 0.48358 0.98048 0.0
C255 C 0.71285 0.70918 0.01343 0.0
C256 C 0.66068 0.55933 0.04285 0.0
C257 C 0.74495 0.77241 0.01659 0.0
C258 C 0.52256 0.30414 0.0198 0.0
C259 C 0.56863 0.35784 0.02415 0.0
C260 C 0.64867 0.50413 0.99797 0.0
C261 C 0.72198 0.6613 0.02928 0.0
C262 C 0.68959 0.59383 0.02505 0.0
C263 C 0.57254 0.41148 0.00975 0.0
C264 C 0.61721 0.47111 0.01547 0.0
H265 H 0.82617 0.75362 0.06703 0.0
H266 H 0.7698 0.64215 0.06137 0.0
H267 H 0.70763 0.59007 0.98882 0.0
H268 H 0.45211 0.35682 0.97171 0.0
H269 H 0.53243 0.45101 0.97937 0.0
C270 C 1.05351 0.30318 0.34492 0.0
C271 C 0.10659 0.27779 0.34144 0.0
C272 C 1.05245 0.37152 0.34507 0.0
C273 C 0.15553 0.54094 0.34815 0.0
H274 H 1.00723 0.60251 0.33088 0.0
C275 C 0.15146 0.82493 0.33936 0.0
C276 C 0.09837 0.85036 0.34276 0.0
C277 C 0.1525 0.7566 0.33922 0.0
C278 C 1.04934 0.58718 0.3361 0.0
H279 H 0.2006 0.30849 0.33529 0.0
H280 H 0.19889 0.42559 0.33529 0.0
H281 H 1.00883 0.48588 0.33062 0.0
H282 H 1.00429 0.81972 0.34881 0.0
H283 H 1.00594 0.7026 0.34883 0.0
H284 H 0.19604 0.64223 0.35363 0.0
C285 C 0.15755 0.39297 0.33829 0.0
C286 C 1.05028 0.51881 0.33595 0.0
C287 C 0.15854 0.32462 0.33811 0.0
C288 C 1.04636 0.80355 0.34604 0.0
C289 C 1.04733 0.73519 0.34588 0.0
C290 C 0.15459 0.6093 0.3483 0.0
C291 C 0.10446 0.41873 0.34177 0.0
C292 C 0.10341 0.49338 0.34196 0.0
C293 C 0.10043 0.7094 0.34246 0.0
C294 C 0.10147 0.63474 0.34228 0.0
H295 H 1.01219 0.27003 0.34763 0.0
H296 H 1.01037 0.38713 0.34817 0.0
H297 H 0.19764 0.5256 0.35337 0.0
H298 H 0.19283 0.85805 0.33673 0.0
H299 H 0.19461 0.74098 0.33617 0.0
C300 C 1.0793 0.9931 0.26025 0.0
C301 C 1.08997 0.04998 0.2745 0.0
C302 C 1.08607 0.9959 0.23634 0.0
C303 C 0.14163 0.11164 0.18903 0.0
H304 H 1.05432 0.96897 0.14944 0.0
C305 C 0.11332 0.11254 0.08677 0.0
C306 C 0.13385 0.06046 0.07574 0.0
C307 C 0.10774 0.11364 0.11088 0.0
C308 C 1.07905 1.00924 0.16025 0.0
H309 H 0.11619 0.15495 0.27459 0.0
H310 H 0.12469 0.16088 0.2329 0.0
H311 H 1.04443 0.96725 0.19087 0.0
H312 H 0.16299 0.96802 0.08145 0.0
H313 H 0.15048 0.96845 0.12312 0.0
H314 H 0.17343 0.15459 0.15766 0.0
C315 C 0.11323 0.11317 0.24005 0.0
C316 C 1.07409 1.00812 0.1843 0.0
C317 C 0.10806 0.11004 0.26416 0.0
C318 C 0.14716 1.00892 0.08935 0.0
C319 C 0.13993 1.00911 0.11325 0.0
C320 C 0.14522 0.11347 0.16484 0.0
C321 C 0.10194 0.05608 0.22551 0.0
C322 C 0.10597 0.05879 0.19938 0.0
C323 C 0.12079 0.06175 0.12445 0.0
C324 C 0.11455 0.06191 0.15013 0.0
H325 H 1.06585 0.94591 0.26765 0.0
H326 H 1.07888 0.95016 0.2265 0.0
H327 H 0.168 0.15146 0.19952 0.0
H328 H 0.10286 0.15312 0.07685 0.0
H329 H 1.09261 0.15478 0.11891 0.0
C330 C 0.12598 0.13167 0.42446 0.0
C331 C 0.1154 0.07582 0.40968 0.0
C332 C 0.11951 0.12697 0.44836 0.0
C333 C 1.0661 1.00589 0.49451 0.0
H334 H 0.15401 0.14436 0.53574 0.0
C335 C 0.11585 0.98261 0.59425 0.0
C336 C 0.09844 1.03005 0.60883 0.0
C337 C 0.11365 0.98862 0.57012 0.0
C338 C 0.1288 0.10546 0.52446 0.0
H339 H 1.08984 0.97073 0.40864 0.0
H340 H 1.0821 0.96146 0.45019 0.0
H341 H 0.16022 0.15277 0.49419 0.0
H342 H 1.06474 0.12123 0.60902 0.0
H343 H 1.06392 0.1335 0.56685 0.0
H344 H 1.03824 0.95717 0.52537 0.0
C345 C 1.09302 1.00986 0.44353 0.0
C346 C 0.13183 0.11029 0.50035 0.0
C347 C 0.09783 1.01489 0.41948 0.0
C348 C 1.07886 0.08398 0.59845 0.0
C349 C 1.07837 0.09098 0.57426 0.0
C350 C 1.06452 1.00037 0.51865 0.0
C351 C 0.10401 0.06584 0.45862 0.0
C352 C 0.10039 0.0607 0.48472 0.0
C353 C 0.09554 0.04318 0.55975 0.0
C354 C 0.09566 0.05014 0.53398 0.0
H355 H 0.13912 0.17949 0.41747 0.0
H356 H 0.12667 0.17194 0.45865 0.0
H357 H 1.03977 0.96689 0.48364 0.0
H358 H 0.1311 0.94033 0.60152 0.0
H359 H 0.12743 0.95107 0.55954 0.0
C360 C 1.06936 0.12189 0.75628 0.0
C361 C 0.10378 0.08697 0.74298 0.0
C362 C 1.07062 0.11765 0.78041 0.0
C363 C 0.11027 1.01791 0.83028 0.0
H364 H 0.10196 0.17612 0.86549 0.0
C365 C 0.12153 1.03146 0.93234 0.0
C366 C 1.08395 0.06964 0.94253 0.0
C367 C 0.1279 1.03186 0.90824 0.0
C368 C 0.10359 0.13108 0.85605 0.0
H369 H 0.16592 1.01871 0.74501 0.0
H370 H 0.16842 1.01121 0.78739 0.0
H371 H 0.10576 0.17911 0.82377 0.0
H372 H 1.02378 0.13815 0.93514 0.0
H373 H 1.03432 0.13865 0.8937 0.0
H374 H 0.10786 0.96999 0.86281 0.0
C375 C 0.14011 0.04202 0.779 0.0
C376 C 0.1058 0.1328 0.83191 0.0
C377 C 0.13894 0.04647 0.75465 0.0
C378 C 1.05329 0.10825 0.92801 0.0
C379 C 1.05974 0.10885 0.9041 0.0
C380 C 0.10803 1.01617 0.85456 0.0
C381 C 0.1064 0.07823 0.79234 0.0
C382 C 0.10817 0.07613 0.81847 0.0
C383 C 0.09721 0.07085 0.89368 0.0
C384 C 0.10365 0.0726 0.86786 0.0
H385 H 1.04121 0.15311 0.748 0.0
H386 H 1.04283 0.14519 0.78973 0.0
H387 H 0.11177 0.97305 0.82071 0.0
H388 H 0.14589 1.00113 0.94296 0.0
H389 H 0.15757 1.00225 0.90108 0.0
loop_
_geom_bond_atom_site_label_1
_geom_bond_atom_site_label_2
_geom_bond_distance
_geom_bond_site_symmetry_2
_ccdc_geom_bond_type
La0 C2 2.928 . S
La0 O20 2.521 . S
La0 O21 2.628 1_554 S
La0 O22 2.554 . S
La0 O23 2.757 1_545 S
La0 O24 2.470 . S
La0 O29 2.482 1_554 S
La0 O31 2.503 1_545 S
La1 C11 2.928 . S
La1 O23 2.482 1_655 S
La1 O25 2.503 1_565 S
La1 O26 2.521 1_554 S
La1 O27 2.628 . S
La1 O28 2.554 1_554 S
La1 O29 2.757 1_664 S
La1 O30 2.467 1_554 S
C2 La0 2.928 . S
C2 C3 1.503 . S
C2 O20 1.261 . S
C2 O21 1.243 1_554 S
C3 C2 1.503 . S
C3 C4 1.394 . S
C3 C8 1.373 1_554 S
C4 C3 1.394 . S
C4 C5 1.380 . S
C4 H32 0.930 . S
C5 C4 1.380 . S
C5 C6 1.376 . S
C5 H33 0.930 . S
C6 C5 1.376 . S
C6 C7 1.370 1_554 S
C7 C6 1.370 1_556 S
C7 C8 1.396 . S
C7 H34 0.929 . S
C8 C3 1.373 1_556 S
C8 C7 1.396 . S
C8 H35 0.929 . S
C9 O22 1.240 . S
C9 O23 1.289 1_545 S
C10 O24 1.258 . S
C10 O25 1.256 1_455 S
C11 La1 2.928 . S
C11 C12 1.503 . S
C11 O26 1.261 1_554 S
C11 O27 1.243 . S
C12 C11 1.503 . S
C12 C13 1.394 1_554 S
C12 C17 1.373 . S
C13 C12 1.394 1_556 S
C13 C14 1.380 . S
C13 H36 0.930 . S
C14 C13 1.380 . S
C14 C15 1.376 1_556 S
C14 H37 0.930 . S
C15 C14 1.376 1_554 S
C15 C16 1.370 . S
C16 C15 1.370 . S
C16 C17 1.396 . S
C16 H38 0.929 . S
C17 C12 1.373 . S
C17 C16 1.396 . S
C17 H39 0.929 . S
C18 O28 1.240 1_445 S
C18 O29 1.289 . S
C19 O30 1.252 1_454 S
C19 O31 1.256 . S
O20 La0 2.521 . S
O20 C2 1.261 . S
O21 La0 2.628 1_556 S
O21 C2 1.243 1_556 S
O22 La0 2.554 . S
O22 C9 1.240 . S
O23 La0 2.757 1_565 S
O23 La1 2.482 1_455 S
O23 C9 1.289 1_565 S
O24 La0 2.470 . S
O24 C10 1.258 . S
O25 La1 2.503 1_545 S
O25 C10 1.256 1_655 S
O26 La1 2.521 1_556 S
O26 C11 1.261 1_556 S
O27 La1 2.628 . S
O27 C11 1.243 . S
O28 La1 2.554 1_556 S
O28 C18 1.240 1_665 S
O29 La0 2.482 1_556 S
O29 La1 2.757 1_446 S
O29 C18 1.289 . S
O30 La1 2.467 1_556 S
O30 C19 1.252 1_656 S
O31 La0 2.503 1_565 S
O31 C19 1.256 . S
H32 C4 0.930 . S
H33 C5 0.930 . S
H34 C7 0.929 . S
H35 C8 0.929 . S
H36 C13 0.930 . S
H37 C14 0.930 . S
H38 C16 0.929 . S
H39 C17 0.929 . S
La40 C42 2.928 1_565 S
La40 O60 2.521 . S
La40 O61 2.628 1_565 S
La40 O62 2.554 . S
La40 O63 2.757 1_665 S
La40 O64 2.470 1_565 S
La40 O69 2.482 1_565 S
La40 O71 2.503 . S
La41 C51 2.928 . S
La41 O63 2.482 . S
La41 O65 2.503 . S
La41 O66 2.521 . S
La41 O67 2.628 . S
La41 O68 2.554 . S
La41 O69 2.757 1_455 S
La41 O70 2.470 1_545 S
C42 La40 2.928 1_545 S
C42 C43 1.503 . S
C42 O60 1.261 1_545 S
C42 O61 1.243 . S
C43 C42 1.503 . S
C43 C44 1.394 . S
C43 C48 1.373 . S
C44 C43 1.394 . S
C44 C45 1.380 . S
C44 H72 0.930 . S
C45 C44 1.380 . S
C45 C46 1.376 . S
C45 H73 0.930 . S
C46 C45 1.376 . S
C46 C47 1.370 . S
C47 C46 1.370 . S
C47 C48 1.396 . S
C47 H74 0.929 . S
C48 C43 1.373 . S
C48 C47 1.396 . S
C48 H75 0.929 . S
C49 O62 1.240 1_545 S
C49 O63 1.289 1_655 S
C50 O64 1.258 . S
C50 O65 1.256 1_655 S
C51 La41 2.928 . S
C51 C52 1.503 1_545 S
C51 O66 1.261 . S
C51 O67 1.243 . S
C52 C51 1.503 1_565 S
C52 C53 1.394 1_565 S
C52 C57 1.373 . S
C53 C52 1.394 1_545 S
C53 C54 1.380 1_545 S
C53 H76 0.930 . S
C54 C53 1.380 1_565 S
C54 C55 1.376 . S
C54 H77 0.930 . S
C55 C54 1.376 . S
C55 C56 1.370 . S
C56 C55 1.370 . S
C56 C57 1.396 . S
C56 H78 0.929 . S
C57 C52 1.373 . S
C57 C56 1.396 . S
C57 H79 0.929 . S
C58 O68 1.240 . S
C58 O69 1.289 1_455 S
C59 O70 1.258 . S
C59 O71 1.256 1_455 S
O60 La40 2.521 . S
O60 C42 1.261 1_565 S
O61 La40 2.628 1_545 S
O61 C42 1.243 . S
O62 La40 2.554 . S
O62 C49 1.240 1_565 S
O63 La40 2.757 1_445 S
O63 La41 2.482 . S
O63 C49 1.289 1_455 S
O64 La40 2.470 1_545 S
O64 C50 1.258 . S
O65 La41 2.503 . S
O65 C50 1.256 1_455 S
O66 La41 2.521 . S
O66 C51 1.261 . S
O67 La41 2.628 . S
O67 C51 1.243 . S
O68 La41 2.554 . S
O68 C58 1.240 . S
O69 La40 2.482 1_545 S
O69 La41 2.757 1_655 S
O69 C58 1.289 1_655 S
O70 La41 2.470 1_565 S
O70 C59 1.258 . S
O71 La40 2.503 . S
O71 C59 1.256 1_655 S
H72 C44 0.930 . S
H73 C45 0.930 . S
H74 C47 0.929 . S
H75 C48 0.929 . S
H76 C53 0.930 . S
H77 C54 0.930 . S
H78 C56 0.929 . S
H79 C57 0.929 . S
La80 C82 2.928 . S
La80 O100 2.521 . S
La80 O101 2.628 . S
La80 O102 2.554 . S
La80 O103 2.757 1_665 S
La80 O104 2.470 1_565 S
La80 O109 2.482 1_565 S
La80 O111 2.503 1_655 S
La81 C91 2.928 . S
La81 O103 2.482 . S
La81 O105 2.503 1_455 S
La81 O106 2.521 . S
La81 O107 2.628 . S
La81 O108 2.554 . S
La81 O109 2.757 1_455 S
La81 O110 2.470 . S
C82 La80 2.928 . S
C82 C83 1.503 . S
C82 O100 1.261 . S
C82 O101 1.243 . S
C83 C82 1.503 . S
C83 C84 1.394 . S
C83 C88 1.373 . S
C84 C83 1.394 . S
C84 C85 1.380 . S
C84 H112 0.930 . S
C85 C84 1.380 . S
C85 C86 1.376 . S
C85 H113 0.930 . S
C86 C85 1.376 . S
C86 C87 1.370 . S
C87 C86 1.370 . S
C87 C88 1.396 . S
C87 H114 0.929 . S
C88 C83 1.373 . S
C88 C87 1.396 . S
C88 H115 0.929 . S
C89 O102 1.240 1_445 S
C89 O103 1.289 . S
C90 O104 1.258 . S
C90 O105 1.256 . S
C91 La81 2.928 . S
C91 C92 1.503 . S
C91 O106 1.261 . S
C91 O107 1.243 . S
C92 C91 1.503 . S
C92 C93 1.394 . S
C92 C97 1.373 . S
C93 C92 1.394 . S
C93 C94 1.380 . S
C93 H116 0.930 . S
C94 C93 1.380 . S
C94 C95 1.376 . S
C94 H117 0.930 . S
C95 C94 1.376 . S
C95 C96 1.370 . S
C96 C95 1.370 . S
C96 C97 1.396 . S
C96 H118 0.929 . S
C97 C92 1.373 . S
C97 C96 1.396 . S
C97 H119 0.929 . S
C98 O108 1.240 . S
C98 O109 1.289 1_455 S
C99 O110 1.258 . S
C99 O111 1.256 1_545 S
O100 La80 2.521 . S
O100 C82 1.261 . S
O101 La80 2.628 . S
O101 C82 1.243 . S
O102 La80 2.554 . S
O102 C89 1.240 1_665 S
O103 La80 2.757 1_445 S
O103 La81 2.482 . S
O103 C89 1.289 . S
O104 La80 2.470 1_545 S
O104 C90 1.258 . S
O105 La81 2.503 1_655 S
O105 C90 1.256 . S
O106 La81 2.521 . S
O106 C91 1.261 . S
O107 La81 2.628 . S
O107 C91 1.243 . S
O108 La81 2.554 . S
O108 C98 1.240 . S
O109 La80 2.482 1_545 S
O109 La81 2.757 1_655 S
O109 C98 1.289 1_655 S
O110 La81 2.470 . S
O110 C99 1.258 . S
O111 La80 2.503 1_455 S
O111 C99 1.256 1_565 S
H112 C84 0.930 . S
H113 C85 0.930 . S
H114 C87 0.929 . S
H115 C88 0.929 . S
H116 C93 0.930 . S
H117 C94 0.930 . S
H118 C96 0.929 . S
H119 C97 0.929 . S
C120 C121 1.349 . S
C120 C122 1.327 . S
C120 H145 0.950 . S
C121 C120 1.349 . S
C121 C137 1.354 1_554 S
C122 C120 1.327 . S
C122 C141 1.429 . S
C122 H146 0.950 . S
C123 C140 1.574 . S
C123 C142 1.368 1_656 S
C123 H147 0.949 . S
H124 C128 0.949 . S
C125 C126 1.349 1_656 S
C125 C127 1.327 . S
C125 H148 0.950 . S
C126 C125 1.349 1_454 S
C126 C138 1.349 . S
C127 C125 1.327 . S
C127 C143 1.429 1_656 S
C127 H149 0.950 . S
C128 H124 0.949 . S
C128 C136 1.574 . S
C128 C144 1.368 . S
H129 C137 0.947 1_655 S
H130 C135 0.950 . S
H131 C136 0.949 . S
H132 C138 0.950 . S
H133 C139 0.950 . S
H134 C140 0.949 . S
C135 H130 0.950 . S
C135 C137 1.324 1_655 S
C135 C141 1.429 1_656 S
C136 C128 1.574 . S
C136 H131 0.949 . S
C136 C142 1.368 . S
C137 C121 1.354 1_556 S
C137 H129 0.947 1_455 S
C137 C135 1.324 1_455 S
C138 C126 1.349 . S
C138 H132 0.950 . S
C138 C139 1.327 . S
C139 H133 0.950 . S
C139 C138 1.327 . S
C139 C143 1.429 . S
C140 C123 1.574 . S
C140 H134 0.949 . S
C140 C144 1.368 1_656 S
C141 C122 1.429 . S
C141 C135 1.429 1_454 S
C141 C142 1.523 . S
C142 C123 1.368 1_454 S
C142 C136 1.368 . S
C142 C141 1.523 . S
C143 C127 1.429 1_454 S
C143 C139 1.429 . S
C143 C144 1.523 . S
C144 C128 1.368 . S
C144 C140 1.368 1_454 S
C144 C143 1.523 . S
H145 C120 0.950 . S
H146 C122 0.950 . S
H147 C123 0.949 . S
H148 C125 0.950 . S
H149 C127 0.950 . S
C150 C151 1.349 . S
C150 C152 1.327 . S
C150 H175 0.950 . S
C151 C150 1.349 . S
C151 C167 1.349 . S
C152 C150 1.327 . S
C152 C171 1.429 . S
C152 H176 0.950 . S
C153 C170 1.574 . S
C153 C172 1.368 1_545 S
C153 H177 0.949 . S
H154 C158 0.949 . S
C155 C156 1.349 . S
C155 C157 1.327 . S
C155 H178 0.950 . S
C156 C155 1.349 . S
C156 C168 1.349 . S
C157 C155 1.327 . S
C157 C173 1.429 . S
C157 H179 0.950 . S
C158 H154 0.949 . S
C158 C166 1.574 1_545 S
C158 C174 1.368 . S
H159 C167 0.950 . S
H160 C165 0.950 . S
H161 C166 0.949 . S
H162 C168 0.950 . S
H163 C169 0.950 . S
H164 C170 0.949 . S
C165 H160 0.950 . S
C165 C167 1.327 . S
C165 C171 1.429 . S
C166 C158 1.574 1_565 S
C166 H161 0.949 . S
C166 C172 1.368 . S
C167 C151 1.349 . S
C167 H159 0.950 . S
C167 C165 1.327 . S
C168 C156 1.349 . S
C168 H162 0.950 . S
C168 C169 1.327 . S
C169 H163 0.950 . S
C169 C168 1.327 . S
C169 C173 1.429 . S
C170 C153 1.574 . S
C170 H164 0.949 . S
C170 C174 1.368 . S
C171 C152 1.429 . S
C171 C165 1.429 . S
C171 C172 1.523 . S
C172 C153 1.368 1_565 S
C172 C166 1.368 . S
C172 C171 1.523 . S
C173 C157 1.429 . S
C173 C169 1.429 . S
C173 C174 1.523 . S
C174 C158 1.368 . S
C174 C170 1.368 . S
C174 C173 1.523 . S
H175 C150 0.950 . S
H176 C152 0.950 . S
H177 C153 0.949 . S
H178 C155 0.950 . S
H179 C157 0.950 . S
C180 C181 1.349 . S
C180 C182 1.327 . S
C180 H205 0.950 . S
C181 C180 1.349 . S
C181 C197 1.349 . S
C182 C180 1.327 . S
C182 C201 1.429 . S
C182 H206 0.950 . S
C183 C200 1.574 . S
C183 C202 1.368 . S
C183 H207 0.949 . S
H184 C188 0.949 . S
C185 C186 1.349 . S
C185 C187 1.327 . S
C185 H208 0.950 . S
C186 C185 1.349 . S
C186 C198 1.349 . S
C187 C185 1.327 . S
C187 C203 1.429 . S
C187 H209 0.950 . S
C188 H184 0.949 . S
C188 C196 1.574 . S
C188 C204 1.368 . S
H189 C197 0.950 . S
H190 C195 0.950 . S
H191 C196 0.949 . S
H192 C198 0.950 . S
H193 C199 0.950 . S
H194 C200 0.949 . S
C195 H190 0.950 . S
C195 C197 1.327 . S
C195 C201 1.429 . S
C196 C188 1.574 . S
C196 H191 0.949 . S
C196 C202 1.368 . S
C197 C181 1.349 . S
C197 H189 0.950 . S
C197 C195 1.327 . S
C198 C186 1.349 . S
C198 H192 0.950 . S
C198 C199 1.327 . S
C199 H193 0.950 . S
C199 C198 1.327 . S
C199 C203 1.429 . S
C200 C183 1.574 . S
C200 H194 0.949 . S
C200 C204 1.368 . S
C201 C182 1.429 . S
C201 C195 1.429 . S
C201 C202 1.523 . S
C202 C183 1.368 . S
C202 C196 1.368 . S
C202 C201 1.523 . S
C203 C187 1.429 . S
C203 C199 1.429 . S
C203 C204 1.523 . S
C204 C188 1.368 . S
C204 C200 1.368 . S
C204 C203 1.523 . S
H205 C180 0.950 . S
H206 C182 0.950 . S
H207 C183 0.949 . S
H208 C185 0.950 . S
H209 C187 0.950 . S
C210 C211 1.349 . S
C210 C212 1.327 . S
C210 H235 0.950 . S
C211 C210 1.349 . S
C211 C227 1.349 . S
C212 C210 1.327 . S
C212 C231 1.429 . S
C212 H236 0.950 1_545 S
C213 C230 1.574 . S
C213 C232 1.368 . S
C213 H237 0.949 . S
H214 C218 0.949 1_565 S
C215 C216 1.349 . S
C215 C217 1.327 . S
C215 H238 0.950 . S
C216 C215 1.349 . S
C216 C228 1.349 . S
C217 C215 1.327 . S
C217 C233 1.429 . S
C217 H239 0.950 . S
C218 H214 0.949 1_545 S
C218 C226 1.574 . S
C218 C234 1.368 . S
H219 C227 0.950 . S
H220 C225 0.950 . S
H221 C226 0.949 1_565 S
H222 C228 0.950 1_565 S
H223 C229 0.950 1_565 S
H224 C230 0.949 . S
C225 H220 0.950 . S
C225 C227 1.327 . S
C225 C231 1.429 . S
C226 C218 1.574 . S
C226 H221 0.949 1_545 S
C226 C232 1.368 . S
C227 C211 1.349 . S
C227 H219 0.950 . S
C227 C225 1.327 . S
C228 C216 1.349 . S
C228 H222 0.950 1_545 S
C228 C229 1.327 . S
C229 H223 0.950 1_545 S
C229 C228 1.327 . S
C229 C233 1.429 . S
C230 C213 1.574 . S
C230 H224 0.949 . S
C230 C234 1.368 . S
C231 C212 1.429 . S
C231 C225 1.429 . S
C231 C232 1.523 . S
C232 C213 1.368 . S
C232 C226 1.368 . S
C232 C231 1.523 . S
C233 C217 1.429 . S
C233 C229 1.429 . S
C233 C234 1.523 . S
C234 C218 1.368 . S
C234 C230 1.368 . S
C234 C233 1.523 . S
H235 C210 0.950 . S
H236 C212 0.950 1_565 S
H237 C213 0.949 . S
H238 C215 0.950 . S
H239 C217 0.950 . S
C240 C241 1.349 . S
C240 C242 1.327 . S
C240 H265 0.950 . S
C241 C240 1.349 . S
C241 C257 1.349 1_554 S
C242 C240 1.327 . S
C242 C261 1.429 . S
C242 H266 0.950 . S
C243 C260 1.574 . S
C243 C262 1.368 1_556 S
C243 H267 0.949 . S
H244 C248 0.949 . S
C245 C246 1.349 1_556 S
C245 C247 1.327 . S
C245 H268 0.950 . S
C246 C245 1.349 1_554 S
C246 C258 1.349 . S
C247 C245 1.327 . S
C247 C263 1.429 1_556 S
C247 H269 0.950 . S
C248 H244 0.949 . S
C248 C256 1.574 . S
C248 C264 1.368 . S
H249 C257 0.950 . S
H250 C255 0.950 . S
H251 C256 0.949 . S
H252 C258 0.950 . S
H253 C259 0.950 . S
H254 C260 0.949 . S
C255 H250 0.950 . S
C255 C257 1.327 . S
C255 C261 1.429 1_556 S
C256 C248 1.574 . S
C256 H251 0.949 . S
C256 C262 1.368 . S
C257 C241 1.349 1_556 S
C257 H249 0.950 . S
C257 C255 1.327 . S
C258 C246 1.349 . S
C258 H252 0.950 . S
C258 C259 1.327 . S
C259 H253 0.950 . S
C259 C258 1.327 . S
C259 C263 1.429 . S
C260 C243 1.574 . S
C260 H254 0.949 . S
C260 C264 1.368 1_556 S
C261 C242 1.429 . S
C261 C255 1.429 1_554 S
C261 C262 1.523 . S
C262 C243 1.368 1_554 S
C262 C256 1.368 . S
C262 C261 1.523 . S
C263 C247 1.429 1_554 S
C263 C259 1.429 . S
C263 C264 1.523 . S
C264 C248 1.368 . S
C264 C260 1.368 1_554 S
C264 C263 1.523 . S
H265 C240 0.950 . S
H266 C242 0.950 . S
H267 C243 0.949 . S
H268 C245 0.950 . S
H269 C247 0.950 . S
C270 C271 1.349 . S
C270 C272 1.327 . S
C270 H295 0.950 . S
C271 C270 1.349 . S
C271 C287 1.349 1_655 S
C272 C270 1.327 . S
C272 C291 1.429 . S
C272 H296 0.950 . S
C273 C290 1.574 . S
C273 C292 1.368 . S
C273 H297 0.949 . S
H274 C278 0.949 . S
C275 C276 1.349 . S
C275 C277 1.327 . S
C275 H298 0.950 . S
C276 C275 1.349 . S
C276 C288 1.349 1_455 S
C277 C275 1.327 . S
C277 C293 1.429 . S
C277 H299 0.950 . S
C278 H274 0.949 . S
C278 C286 1.574 . S
C278 C294 1.368 1_655 S
H279 C287 0.950 . S
H280 C285 0.950 . S
H281 C286 0.949 . S
H282 C288 0.950 . S
H283 C289 0.950 . S
H284 C290 0.949 . S
C285 H280 0.950 . S
C285 C287 1.327 . S
C285 C291 1.427 1_455 S
C286 C278 1.574 . S
C286 H281 0.949 . S
C286 C292 1.368 1_655 S
C287 C271 1.349 1_455 S
C287 H279 0.950 . S
C287 C285 1.327 . S
C288 C276 1.349 1_655 S
C288 H282 0.950 . S
C288 C289 1.327 . S
C289 H283 0.950 . S
C289 C288 1.327 . S
C289 C293 1.429 1_655 S
C290 C273 1.574 . S
C290 H284 0.949 . S
C290 C294 1.368 . S
C291 C272 1.429 . S
C291 C285 1.427 1_655 S
C291 C292 1.523 1_655 S
C292 C273 1.368 . S
C292 C286 1.368 1_455 S
C292 C291 1.523 1_455 S
C293 C277 1.429 . S
C293 C289 1.429 1_455 S
C293 C294 1.523 . S
C294 C278 1.368 1_455 S
C294 C290 1.368 . S
C294 C293 1.523 . S
H295 C270 0.950 . S
H296 C272 0.950 . S
H297 C273 0.949 . S
H298 C275 0.950 . S
H299 C277 0.950 . S
C300 C301 1.349 1_665 S
C300 C302 1.327 . S
C300 H325 0.950 . S
C301 C300 1.349 1_445 S
C301 C317 1.349 . S
C302 C300 1.327 . S
C302 C321 1.429 1_665 S
C302 H326 0.950 . S
C303 C320 1.574 . S
C303 C322 1.368 . S
C303 H327 0.949 . S
H304 C308 0.949 . S
C305 C306 1.349 . S
C305 C307 1.327 . S
C305 H328 0.950 . S
C306 C305 1.349 . S
C306 C318 1.349 1_445 S
C307 C305 1.327 . S
C307 C323 1.429 . S
C307 H329 0.950 . S
C308 H304 0.949 . S
C308 C316 1.574 . S
C308 C324 1.368 1_665 S
H309 C317 0.950 . S
H310 C315 0.950 . S
H311 C316 0.949 . S
H312 C318 0.950 . S
H313 C319 0.950 . S
H314 C320 0.949 . S
C315 H310 0.950 . S
C315 C317 1.327 . S
C315 C321 1.429 . S
C316 C308 1.574 . S
C316 H311 0.949 . S
C316 C322 1.368 1_665 S
C317 C301 1.349 . S
C317 H309 0.950 . S
C317 C315 1.327 . S
C318 C306 1.349 1_665 S
C318 H312 0.950 . S
C318 C319 1.327 . S
C319 H313 0.950 . S
C319 C318 1.327 . S
C319 C323 1.429 1_665 S
C320 C303 1.574 . S
C320 H314 0.949 . S
C320 C324 1.368 . S
C321 C302 1.429 1_445 S
C321 C315 1.429 . S
C321 C322 1.523 . S
C322 C303 1.368 . S
C322 C316 1.368 1_445 S
C322 C321 1.523 . S
C323 C307 1.429 . S
C323 C319 1.429 1_445 S
C323 C324 1.523 . S
C324 C308 1.368 1_445 S
C324 C320 1.368 . S
C324 C323 1.523 . S
H325 C300 0.950 . S
H326 C302 0.950 . S
H327 C303 0.949 . S
H328 C305 0.950 . S
H329 C307 0.950 . S
C330 C331 1.342 1_655 S
C330 C332 1.326 . S
C330 H355 0.955 . S
C331 C330 1.342 1_455 S
C331 C347 1.349 1_545 S
C332 C330 1.326 . S
C332 C351 1.421 1_655 S
C332 H356 0.960 . S
C333 C350 1.574 . S
C333 C352 1.368 1_565 S
C333 H357 0.949 . S
H334 C338 0.949 . S
C335 C336 1.349 1_565 S
C335 C337 1.327 . S
C335 H358 0.950 . S
C336 C335 1.349 1_545 S
C336 C348 1.342 1_455 S
C337 C335 1.327 . S
C337 C353 1.429 1_565 S
C337 H359 0.950 . S
C338 H334 0.949 . S
C338 C346 1.574 . S
C338 C354 1.368 1_655 S
H339 C347 0.950 . S
H340 C345 0.950 . S
H341 C346 0.949 . S
H342 C348 0.959 . S
H343 C349 0.950 . S
H344 C350 0.949 . S
C345 H340 0.950 . S
C345 C347 1.327 . S
C345 C351 1.429 1_565 S
C346 C338 1.574 . S
C346 H341 0.949 . S
C346 C352 1.368 1_655 S
C347 C331 1.349 1_565 S
C347 H339 0.950 . S
C347 C345 1.327 . S
C348 C336 1.342 1_655 S
C348 H342 0.959 . S
C348 C349 1.325 . S
C349 H343 0.950 . S
C349 C348 1.325 . S
C349 C353 1.429 1_655 S
C350 C333 1.574 . S
C350 H344 0.949 . S
C350 C354 1.368 1_565 S
C351 C332 1.421 1_455 S
C351 C345 1.429 1_545 S
C351 C352 1.523 . S
C352 C333 1.368 1_545 S
C352 C346 1.368 1_455 S
C352 C351 1.523 . S
C353 C337 1.429 1_545 S
C353 C349 1.429 1_455 S
C353 C354 1.523 . S
C354 C338 1.368 1_455 S
C354 C350 1.368 1_545 S
C354 C353 1.523 . S
H355 C330 0.955 . S
H356 C332 0.960 . S
H357 C333 0.949 . S
H358 C335 0.950 . S
H359 C337 0.950 . S
C360 C361 1.349 . S
C360 C362 1.327 . S
C360 H385 0.950 . S
C361 C360 1.349 . S
C361 C377 1.349 1_545 S
C362 C360 1.327 . S
C362 C381 1.429 . S
C362 H386 0.950 . S
C363 C380 1.574 . S
C363 C382 1.368 1_565 S
C363 H387 0.949 . S
H364 C368 0.949 . S
C365 C366 1.349 1_565 S
C365 C367 1.327 . S
C365 H388 0.950 . S
C366 C365 1.349 1_545 S
C366 C378 1.349 . S
C367 C365 1.327 . S
C367 C383 1.429 1_565 S
C367 H389 0.950 . S
C368 H364 0.949 . S
C368 C376 1.574 . S
C368 C384 1.368 . S
H369 C377 0.950 . S
H370 C375 0.950 . S
H371 C376 0.949 . S
H372 C378 0.950 . S
H373 C379 0.950 . S
H374 C380 0.949 . S
C375 H370 0.950 . S
C375 C377 1.327 . S
C375 C381 1.429 1_565 S
C376 C368 1.574 . S
C376 H371 0.949 . S
C376 C382 1.368 . S
C377 C361 1.349 1_565 S
C377 H369 0.950 . S
C377 C375 1.327 . S
C378 C366 1.349 . S
C378 H372 0.950 . S
C378 C379 1.327 . S
C379 H373 0.950 . S
C379 C378 1.327 . S
C379 C383 1.429 . S
C380 C363 1.574 . S
C380 H374 0.949 . S
C380 C384 1.368 1_565 S
C381 C362 1.429 . S
C381 C375 1.429 1_545 S
C381 C382 1.523 . S
C382 C363 1.368 1_545 S
C382 C376 1.368 . S
C382 C381 1.523 . S
C383 C367 1.429 1_545 S
C383 C379 1.429 . S
C383 C384 1.523 . S
C384 C368 1.368 . S
C384 C380 1.368 1_545 S
C384 C383 1.523 . S
H385 C360 0.950 . S
H386 C362 0.950 . S
H387 C363 0.949 . S
H388 C365 0.950 . S
H389 C367 0.950 . S
C121 C10 2.977 . S
C126 C19 2.977 . S
C151 C55 0.921 . S
C156 C46 0.921 . S
C181 C86 0.580 . S
C186 C95 0.580 . S
C211 C90 4.886 . S
C216 C99 4.886 . S
C241 C15 0.542 . S
C246 C6 0.542 . S
C271 C50 3.016 . S
C276 C59 3.016 . S
C301 C49 1.462 1_455 S
C306 C9 1.462 . S
C331 C58 1.454 . S
C336 C89 1.445 . S
C361 C98 1.465 . S
C366 C18 1.453 . S
