# Generated by pormake.
# Topology rhr, (4)-cn, num edge types: 1
# Building blocks:
#     Node 0, Type 0, BuildingBlock: NAWXER_clean_sbu_0, # of connection points: 4
#     Node 1, Type 0, BuildingBlock: NAWXER_clean_sbu_0, # of connection points: 4
#     Node 2, Type 0, BuildingBlock: NAWXER_clean_sbu_0, # of connection points: 4
#     Node 3, Type 0, BuildingBlock: NAWXER_clean_sbu_0, # of connection points: 4
#     Node 4, Type 0, BuildingBlock: NAWXER_clean_sbu_0, # of connection points: 4
#     Node 5, Type 0, BuildingBlock: NAWXER_clean_sbu_0, # of connection points: 4
#     Node 6, Type 0, BuildingBlock: NAWXER_clean_sbu_0, # of connection points: 4
#     Node 7, Type 0, BuildingBlock: NAWXER_clean_sbu_0, # of connection points: 4
#     Node 8, Type 0, BuildingBlock: NAWXER_clean_sbu_0, # of connection points: 4
#     Node 9, Type 0, BuildingBlock: NAWXER_clean_sbu_0, # of connection points: 4
#     Node 10, Type 0, BuildingBlock: NAWXER_clean_sbu_0, # of connection points: 4
#     Node 11, Type 0, BuildingBlock: NAWXER_clean_sbu_0, # of connection points: 4
#     Node 12, Type 0, BuildingBlock: NAWXER_clean_sbu_0, # of connection points: 4
#     Node 13, Type 0, BuildingBlock: NAWXER_clean_sbu_0, # of connection points: 4
#     Node 14, Type 0, BuildingBlock: NAWXER_clean_sbu_0, # of connection points: 4
#     Node 15, Type 0, BuildingBlock: NAWXER_clean_sbu_0, # of connection points: 4
#     Node 16, Type 0, BuildingBlock: NAWXER_clean_sbu_0, # of connection points: 4
#     Node 17, Type 0, BuildingBlock: NAWXER_clean_sbu_0, # of connection points: 4
#     Node 18, Type 0, BuildingBlock: NAWXER_clean_sbu_0, # of connection points: 4
#     Node 19, Type 0, BuildingBlock: NAWXER_clean_sbu_0, # of connection points: 4
#     Node 20, Type 0, BuildingBlock: NAWXER_clean_sbu_0, # of connection points: 4
#     Node 21, Type 0, BuildingBlock: NAWXER_clean_sbu_0, # of connection points: 4
#     Node 22, Type 0, BuildingBlock: NAWXER_clean_sbu_0, # of connection points: 4
#     Node 23, Type 0, BuildingBlock: NAWXER_clean_sbu_0, # of connection points: 4
#     Edge 24, Type (0, 0), None
#     Edge 25, Type (0, 0), None
#     Edge 26, Type (0, 0), None
#     Edge 27, Type (0, 0), None
#     Edge 28, Type (0, 0), None
#     Edge 29, Type (0, 0), None
#     Edge 30, Type (0, 0), None
#     Edge 31, Type (0, 0), None
#     Edge 32, Type (0, 0), None
#     Edge 33, Type (0, 0), None
#     Edge 34, Type (0, 0), None
#     Edge 35, Type (0, 0), None
#     Edge 36, Type (0, 0), None
#     Edge 37, Type (0, 0), None
#     Edge 38, Type (0, 0), None
#     Edge 39, Type (0, 0), None
#     Edge 40, Type (0, 0), None
#     Edge 41, Type (0, 0), None
#     Edge 42, Type (0, 0), None
#     Edge 43, Type (0, 0), None
#     Edge 44, Type (0, 0), None
#     Edge 45, Type (0, 0), None
#     Edge 46, Type (0, 0), None
#     Edge 47, Type (0, 0), None
#     Edge 48, Type (0, 0), None
#     Edge 49, Type (0, 0), None
#     Edge 50, Type (0, 0), None
#     Edge 51, Type (0, 0), None
#     Edge 52, Type (0, 0), None
#     Edge 53, Type (0, 0), None
#     Edge 54, Type (0, 0), None
#     Edge 55, Type (0, 0), None
#     Edge 56, Type (0, 0), None
#     Edge 57, Type (0, 0), None
#     Edge 58, Type (0, 0), None
#     Edge 59, Type (0, 0), None
#     Edge 60, Type (0, 0), None
#     Edge 61, Type (0, 0), None
#     Edge 62, Type (0, 0), None
#     Edge 63, Type (0, 0), None
#     Edge 64, Type (0, 0), None
#     Edge 65, Type (0, 0), None
#     Edge 66, Type (0, 0), None
#     Edge 67, Type (0, 0), None
#     Edge 68, Type (0, 0), None
#     Edge 69, Type (0, 0), None
#     Edge 70, Type (0, 0), None
#     Edge 71, Type (0, 0), None
# Relax obj value: 0.003
# Max RMSD: 0.009
# Mean RMSD: 0.009
data_MOF--net-rhr--node1-NAWXER_clean_sbu_0--edge1-none
_symmetry_space_group_name_H-M    P1
_symmetry_Int_Tables_number       1
_symmetry_cell_setting            triclinic
loop_
_symmetry_equiv_pos_as_xyz
'x, y, z'
_cell_length_a     21.541842
_cell_length_b     21.541872
_cell_length_c     21.541396
_cell_angle_alpha  90.000251
_cell_angle_beta   90.000289
_cell_angle_gamma 89.999897
loop_
_atom_site_label
_atom_site_type_symbol
_atom_site_fract_x
_atom_site_fract_y
_atom_site_fract_z
_atom_type_partial_charge
C0 C 0.25281 0.08691 0.391 0.0
C1 C 0.39064 0.96738 0.25294 0.0
O2 O 0.23673 0.06999 0.33657 0.0
Zn3 Zn 0.3159 0.02714 0.31615 0.0
O4 O 0.30688 0.07403 0.41153 0.0
Zn5 Zn 0.38899 0.02719 0.3891 0.0
O6 O 0.44946 0.09595 0.38758 0.0
O7 O 0.38086 0.10057 0.31157 0.0
O8 O 0.41128 0.98032 0.30696 0.0
O9 O 0.33616 0.98423 0.23698 0.0
O10 O 0.31154 0.95374 0.38115 0.0
O11 O 0.38765 0.95846 0.44963 0.0
C12 C 0.42826 0.123 0.33938 0.0
C13 C 0.33946 0.93133 0.4285 0.0
C14 C 0.08684 0.39088 0.25286 0.0
C15 C 0.96729 0.25292 0.39077 0.0
O16 O 0.06993 0.33644 0.23682 0.0
Zn17 Zn 1.02704 0.31609 0.31599 0.0
O18 O 0.07394 0.41146 0.30691 0.0
Zn19 Zn 1.02708 0.38908 0.38903 0.0
O20 O 0.09583 0.38762 0.44952 0.0
O21 O 0.10046 0.31157 0.38096 0.0
O22 O 0.98021 0.30695 0.41138 0.0
O23 O 0.98415 0.23692 0.33629 0.0
O24 O 0.95365 0.38109 0.31156 0.0
O25 O 0.95835 0.4496 0.38764 0.0
C26 C 0.12289 0.33941 0.42835 0.0
C27 C 0.93124 0.42846 0.33945 0.0
C28 C 0.62592 0.931 0.33935 0.0
C29 C 0.71483 0.12275 0.42823 0.0
O30 O 0.60476 0.9581 0.38754 0.0
Zn31 Zn 0.66524 1.02686 0.38896 0.0
O32 O 0.67331 0.95342 0.31149 0.0
Zn33 Zn 0.73827 1.02684 0.31594 0.0
O34 O 0.81746 0.984 0.33633 0.0
O35 O 0.74738 0.98005 0.41136 0.0
O36 O 0.74271 0.10029 0.38087 0.0
O37 O 0.66665 0.09565 0.44941 0.0
O38 O 0.64288 0.07368 0.30682 0.0
O39 O 0.71793 0.06971 0.23676 0.0
C40 C 0.80143 0.96715 0.3908 0.0
C41 C 0.66347 0.08659 0.25278 0.0
C42 C 0.12327 0.62612 0.33934 0.0
C43 C 0.9315 0.71482 0.42838 0.0
O44 O 0.09621 0.6049 0.38752 0.0
Zn45 Zn 0.02742 0.66534 0.38904 0.0
O46 O 0.10082 0.67353 0.31154 0.0
Zn47 Zn 0.02737 0.73845 0.3161 0.0
O48 O 0.07018 0.81764 0.33659 0.0
O49 O 0.07419 0.74746 0.41153 0.0
O50 O 0.95394 0.74275 0.38105 0.0
O51 O 0.95864 0.66664 0.44953 0.0
O52 O 0.98058 0.64305 0.30689 0.0
O53 O 0.98447 0.71818 0.23691 0.0
C54 C 0.08706 0.80154 0.39103 0.0
C55 C 0.96765 0.66369 0.25288 0.0
C56 C 0.33932 0.12322 0.62625 0.0
C57 C 0.42833 0.93139 0.71485 0.0
O58 O 0.38749 0.09616 0.60499 0.0
Zn59 Zn 0.38901 0.02734 0.6654 0.0
O60 O 0.31153 0.10076 0.67365 0.0
Zn61 Zn 0.31608 0.02728 0.73854 0.0
O62 O 0.33661 0.07007 0.81773 0.0
O63 O 0.41152 0.07408 0.74753 0.0
O64 O 0.38101 0.95383 0.74279 0.0
O65 O 0.44948 0.95854 0.66668 0.0
O66 O 0.30685 0.98054 0.64311 0.0
O67 O 0.23688 0.98441 0.71825 0.0
C68 C 0.39104 0.08694 0.80163 0.0
C69 C 0.25284 0.96761 0.66375 0.0
C70 C 0.12274 0.42819 0.71486 0.0
C71 C 0.93093 0.33935 0.62604 0.0
O72 O 0.09566 0.44938 0.66667 0.0
Zn73 Zn 1.02684 0.38894 0.6653 0.0
O74 O 0.10028 0.38084 0.74274 0.0
Zn75 Zn 1.02681 0.31594 0.73836 0.0
O76 O 0.06967 0.23674 0.71801 0.0
O77 O 0.07363 0.3068 0.64296 0.0
O78 O 0.95336 0.3115 0.67342 0.0
O79 O 0.95805 0.38751 0.60484 0.0
O80 O 0.98007 0.41139 0.74744 0.0
O81 O 0.98399 0.33639 0.81755 0.0
C82 C 0.08654 0.25276 0.66355 0.0
C83 C 0.96719 0.39086 0.8015 0.0
C84 C 0.62627 0.12295 0.71492 0.0
C85 C 0.71492 0.93104 0.62608 0.0
O86 O 0.60503 0.09587 0.66675 0.0
Zn87 Zn 0.66542 1.02701 0.66531 0.0
O88 O 0.67363 0.10046 0.74276 0.0
Zn89 Zn 0.73849 1.02696 0.73833 0.0
O90 O 0.8177 0.06976 0.71786 0.0
O91 O 0.74756 0.07374 0.64289 0.0
O92 O 0.74281 0.95349 0.67343 0.0
O93 O 0.66677 0.95819 0.60488 0.0
O94 O 0.64303 0.98027 0.74747 0.0
O95 O 0.71807 0.98414 0.81754 0.0
C96 C 0.80163 0.08662 0.66341 0.0
C97 C 0.66358 0.96737 0.80152 0.0
C98 C 0.9312 0.62614 0.71493 0.0
C99 C 0.12313 0.71493 0.62627 0.0
O100 O 0.95832 0.60495 0.66676 0.0
Zn101 Zn 0.02716 0.66535 0.66542 0.0
O102 O 0.95366 0.67349 0.74282 0.0
Zn103 Zn 0.02715 0.73836 0.7385 0.0
O104 O 0.98434 0.81758 0.71809 0.0
O105 O 0.98044 0.74752 0.64304 0.0
O106 O 0.10065 0.74278 0.67364 0.0
O107 O 0.09601 0.66678 0.60503 0.0
O108 O 0.07387 0.6429 0.74757 0.0
O109 O 0.06995 0.71787 0.8177 0.0
C110 C 0.96753 0.80156 0.66361 0.0
C111 C 0.08675 0.6634 0.80164 0.0
C112 C 0.33941 0.42821 0.12287 0.0
C113 C 0.42849 0.33943 0.93116 0.0
O114 O 0.3876 0.44942 0.09582 0.0
Zn115 Zn 0.3891 0.38897 1.02703 0.0
O116 O 0.31159 0.38082 0.10042 0.0
Zn117 Zn 0.31614 0.31588 1.02697 0.0
O118 O 0.33655 0.23671 0.06983 0.0
O119 O 0.41152 0.30685 0.07387 0.0
O120 O 0.38113 0.31152 0.95357 0.0
O121 O 0.44962 0.38762 0.9583 0.0
O122 O 0.30696 0.41129 0.98018 0.0
O123 O 0.23696 0.33617 0.98408 0.0
C124 C 0.39098 0.25279 0.08675 0.0
C125 C 0.25294 0.39066 0.96726 0.0
C126 C 0.80159 0.39107 0.08693 0.0
C127 C 0.66375 0.25292 0.96751 0.0
O128 O 0.8177 0.33664 0.07003 0.0
Zn129 Zn 0.73851 0.31615 0.02722 0.0
O130 O 0.74751 0.41156 0.07407 0.0
Zn131 Zn 0.66538 0.38907 0.02729 0.0
O132 O 0.60496 0.38753 0.0961 0.0
O133 O 0.6736 0.31156 0.10068 0.0
O134 O 0.6431 0.30692 0.98045 0.0
O135 O 0.71825 0.23696 0.98432 0.0
O136 O 0.74278 0.38111 0.95379 0.0
O137 O 0.66666 0.44957 0.95853 0.0
C138 C 0.6262 0.33934 0.12315 0.0
C139 C 0.71483 0.42845 0.93137 0.0
C140 C 0.66329 0.80164 0.08673 0.0
C141 C 0.80149 0.66369 0.96746 0.0
O142 O 0.71773 0.81774 0.06987 0.0
Zn143 Zn 0.73825 0.73854 1.02708 0.0
O144 O 0.64281 0.74756 0.07386 0.0
Zn145 Zn 0.66529 0.66542 1.02714 0.0
O146 O 0.66678 0.60503 0.09599 0.0
O147 O 0.74275 0.67368 0.10058 0.0
O148 O 0.74746 0.64309 0.98038 0.0
O149 O 0.81746 0.7182 0.98424 0.0
O150 O 0.67334 0.7428 0.95362 0.0
O151 O 0.60484 0.66671 0.95832 0.0
C152 C 0.71495 0.62629 0.12306 0.0
C153 C 0.62601 0.71487 0.93117 0.0
C154 C 0.33936 0.62596 0.93099 0.0
C155 C 0.42811 0.71484 0.12282 0.0
O156 O 0.38754 0.60479 0.9581 0.0
Zn157 Zn 0.38891 0.66525 1.02689 0.0
O158 O 0.31148 0.67333 0.95341 0.0
Zn159 Zn 0.31586 0.73826 1.02686 0.0
O160 O 0.33624 0.81746 0.98404 0.0
O161 O 0.4113 0.74741 0.98012 0.0
O162 O 0.38075 0.7427 0.10034 0.0
O163 O 0.44933 0.66668 0.09572 0.0
O164 O 0.30677 0.64285 0.07367 0.0
O165 O 0.23667 0.71785 0.0697 0.0
C166 C 0.39072 0.80145 0.96722 0.0
C167 C 0.25271 0.6634 0.08656 0.0
C168 C 0.89072 0.58694 0.7528 0.0
C169 C 0.75268 0.4677 0.89091 0.0
O170 O 0.91127 0.57403 0.80685 0.0
Zn171 Zn 0.88889 0.5273 0.88901 0.0
O172 O 0.83623 0.57016 0.73678 0.0
Zn173 Zn 0.81581 0.52735 0.81599 0.0
O174 O 0.81149 0.60083 0.88088 0.0
O175 O 0.88754 0.59612 0.94945 0.0
O176 O 0.7366 0.48456 0.83646 0.0
O177 O 0.80675 0.48058 0.91142 0.0
O178 O 0.94928 0.45844 0.88757 0.0
O179 O 0.88066 0.45384 0.81155 0.0
C180 C 0.8394 0.62326 0.92823 0.0
C181 C 0.92802 0.43136 0.83941 0.0
C182 C 0.43119 0.83939 0.92804 0.0
C183 C 0.6231 0.92815 0.8394 0.0
O184 O 0.45365 0.81152 0.88069 0.0
Zn185 Zn 0.52716 0.81594 0.81583 0.0
O186 O 0.4583 0.88752 0.94932 0.0
Zn187 Zn 0.52715 0.88896 0.88892 0.0
O188 O 0.48044 0.9114 0.80676 0.0
O189 O 0.48437 0.83643 0.73662 0.0
O190 O 0.59599 0.94937 0.88756 0.0
O191 O 0.60065 0.88081 0.8115 0.0
O192 O 0.56996 0.73672 0.83623 0.0
O193 O 0.57387 0.80679 0.91127 0.0
C194 C 0.46756 0.8909 0.75269 0.0
C195 C 0.58677 0.75274 0.89071 0.0
C196 C 0.12599 0.62292 0.83949 0.0
C197 C 0.21498 0.43109 0.92807 0.0
O198 O 0.17331 0.60049 0.81153 0.0
Zn199 Zn 0.23823 0.52703 0.81578 0.0
O200 O 0.10482 0.59577 0.88765 0.0
Zn201 Zn 0.16529 0.52697 0.88893 0.0
O202 O 0.24745 0.57376 0.91121 0.0
O203 O 0.31744 0.56989 0.83608 0.0
O204 O 0.16682 0.45815 0.94934 0.0
O205 O 0.24279 0.45354 0.88067 0.0
O206 O 0.2177 0.48425 0.73659 0.0
O207 O 0.1428 0.48024 0.8068 0.0
C208 C 0.30147 0.58669 0.89058 0.0
C209 C 0.16327 0.46738 0.75271 0.0
C210 C 0.43155 0.12613 0.8395 0.0
C211 C 0.62336 0.21499 0.92826 0.0
O212 O 0.454 0.17347 0.81159 0.0
Zn213 Zn 0.52748 0.23837 0.81595 0.0
O214 O 0.45866 0.10493 0.88766 0.0
Zn215 Zn 0.52748 0.16537 0.88903 0.0
O216 O 0.48068 0.24752 0.91135 0.0
O217 O 0.48462 0.31756 0.83629 0.0
O218 O 0.59626 0.16683 0.94948 0.0
O219 O 0.60094 0.24284 0.88087 0.0
O220 O 0.57028 0.21791 0.73675 0.0
O221 O 0.57423 0.14293 0.80689 0.0
C222 C 0.46778 0.30156 0.89076 0.0
C223 C 0.58712 0.16346 0.75282 0.0
C224 C 0.83948 0.43156 0.12612 0.0
C225 C 0.92837 0.6233 0.21497 0.0
O226 O 0.8116 0.45401 0.17348 0.0
Zn227 Zn 0.81603 0.52747 0.2384 0.0
O228 O 0.88765 0.45865 0.10491 0.0
Zn229 Zn 0.88906 0.52745 0.16537 0.0
O230 O 0.91141 0.48063 0.24751 0.0
O231 O 0.83637 0.4846 0.31758 0.0
O232 O 0.94956 0.59621 0.1668 0.0
O233 O 0.88098 0.6009 0.24284 0.0
O234 O 0.73684 0.5703 0.21801 0.0
O235 O 0.80693 0.57425 0.14298 0.0
C236 C 0.89083 0.46773 0.30156 0.0
C237 C 0.75288 0.58714 0.16354 0.0
C238 C 0.58665 0.89061 0.30145 0.0
C239 C 0.46726 0.75274 0.16332 0.0
O240 O 0.57372 0.91124 0.24744 0.0
Zn241 Zn 0.52689 0.88896 0.16529 0.0
O242 O 0.56983 0.83612 0.31743 0.0
Zn243 Zn 0.52694 0.81584 0.23824 0.0
O244 O 0.60038 0.81154 0.1733 0.0
O245 O 0.59567 0.88765 0.1048 0.0
O246 O 0.48414 0.73665 0.21776 0.0
O247 O 0.48012 0.80683 0.14282 0.0
O248 O 0.45809 0.9494 0.16682 0.0
O249 O 0.45347 0.88075 0.24281 0.0
C250 C 0.6228 0.83949 0.12597 0.0
C251 C 0.43104 0.92816 0.21499 0.0
C252 C 0.21485 0.62297 0.12584 0.0
C253 C 0.12606 0.4313 0.21494 0.0
O254 O 0.24278 0.60057 0.1732 0.0
Zn255 Zn 0.23842 0.52716 0.23819 0.0
O256 O 0.16667 0.59585 0.1047 0.0
Zn257 Zn 0.16532 0.52712 0.16523 0.0
O258 O 0.14304 0.57398 0.24737 0.0
O259 O 0.21816 0.57007 0.31736 0.0
O260 O 0.10484 0.45835 0.16675 0.0
O261 O 0.17347 0.45373 0.24276 0.0
O262 O 0.31759 0.48432 0.21777 0.0
O263 O 0.24743 0.48028 0.14281 0.0
C264 C 0.16368 0.58691 0.30139 0.0
C265 C 0.3015 0.4674 0.16334 0.0
C266 C 0.58701 0.30139 0.16357 0.0
C267 C 0.46748 0.16344 0.30146 0.0
O268 O 0.5741 0.24736 0.14296 0.0
Zn269 Zn 0.52723 0.16523 0.16529 0.0
O270 O 0.57015 0.3174 0.21804 0.0
Zn271 Zn 0.52726 0.23823 0.23835 0.0
O272 O 0.60067 0.17324 0.24278 0.0
O273 O 0.59596 0.1047 0.1667 0.0
O274 O 0.48439 0.21787 0.31751 0.0
O275 O 0.48037 0.14286 0.24741 0.0
O276 O 0.45848 0.1667 0.10479 0.0
O277 O 0.45384 0.24274 0.17338 0.0
C278 C 0.62307 0.12587 0.21488 0.0
C279 C 0.43142 0.21489 0.12599 0.0
C280 C 0.92829 0.83944 0.62315 0.0
C281 C 0.83936 0.92799 0.43127 0.0
O282 O 0.88096 0.8115 0.60072 0.0
Zn283 Zn 0.81605 0.81575 0.52725 0.0
O284 O 0.94947 0.88759 0.596 0.0
Zn285 Zn 0.88902 0.88889 0.52719 0.0
O286 O 0.80685 0.9112 0.57394 0.0
O287 O 0.73684 0.8361 0.57008 0.0
O288 O 0.88752 0.94927 0.45834 0.0
O289 O 0.81154 0.88061 0.45374 0.0
O290 O 0.83657 0.73655 0.48447 0.0
O291 O 0.91149 0.80675 0.48047 0.0
C292 C 0.75282 0.8906 0.58686 0.0
C293 C 0.89101 0.75266 0.46761 0.0
C294 C 0.21493 0.92834 0.62335 0.0
C295 C 0.12623 0.83943 0.43154 0.0
O296 O 0.24283 0.88098 0.60094 0.0
Zn297 Zn 0.23848 0.81605 0.52749 0.0
O298 O 0.16677 0.94953 0.59622 0.0
Zn299 Zn 0.1654 0.88905 0.52744 0.0
O300 O 0.14303 0.8069 0.57421 0.0
O301 O 0.21809 0.73685 0.57032 0.0
O302 O 0.10498 0.8876 0.45861 0.0
O303 O 0.17359 0.81158 0.454 0.0
O304 O 0.31767 0.83646 0.48466 0.0
O305 O 0.24754 0.91144 0.48066 0.0
C306 C 0.1636 0.75285 0.58711 0.0
C307 C 0.3016 0.8909 0.46777 0.0
C308 C 0.12583 0.21487 0.62315 0.0
C309 C 0.2149 0.12611 0.43146 0.0
O310 O 0.17319 0.24279 0.60076 0.0
Zn311 Zn 0.23818 0.23843 0.52735 0.0
O312 O 0.10468 0.1667 0.59602 0.0
Zn313 Zn 0.16521 0.16534 0.52729 0.0
O314 O 0.24735 0.14303 0.57414 0.0
O315 O 0.31735 0.21814 0.57023 0.0
O316 O 0.16671 0.10488 0.45851 0.0
O317 O 0.24273 0.1735 0.4539 0.0
O318 O 0.21777 0.31761 0.4845 0.0
O319 O 0.1428 0.24746 0.48046 0.0
C320 C 0.30137 0.16365 0.58706 0.0
C321 C 0.16334 0.30152 0.46758 0.0
C322 C 0.89054 0.30141 0.5868 0.0
C323 C 0.75272 0.16325 0.46741 0.0
O324 O 0.91119 0.2474 0.57387 0.0
Zn325 Zn 0.88893 0.16525 0.52704 0.0
O326 O 0.83604 0.31736 0.56999 0.0
Zn327 Zn 0.81579 0.23817 0.52711 0.0
O328 O 0.81152 0.17322 0.60054 0.0
O329 O 0.88765 0.10474 0.59581 0.0
O330 O 0.7366 0.21767 0.48431 0.0
O331 O 0.8068 0.14276 0.48027 0.0
O332 O 0.94936 0.16679 0.45824 0.0
O333 O 0.88069 0.24276 0.45363 0.0
C334 C 0.83948 0.12589 0.62295 0.0
C335 C 0.9281 0.21497 0.43119 0.0
loop_
_geom_bond_atom_site_label_1
_geom_bond_atom_site_label_2
_geom_bond_distance
_geom_bond_site_symmetry_2
_ccdc_geom_bond_type
C0 O2 1.247 . S
C0 O4 1.258 . S
C1 O8 1.247 . S
C1 O9 1.258 . S
O2 C0 1.247 . S
O2 Zn3 2.028 . S
Zn3 O2 2.028 . S
Zn3 O7 2.035 . S
Zn3 O9 2.035 1_545 S
Zn3 O10 2.028 1_545 S
O4 C0 1.258 . S
O4 Zn5 2.035 . S
Zn5 O4 2.035 . S
Zn5 O6 2.028 . S
Zn5 O8 2.028 1_545 S
Zn5 O11 2.035 1_545 S
O6 Zn5 2.028 . S
O6 C12 1.247 . S
O7 Zn3 2.035 . S
O7 C12 1.258 . S
O8 C1 1.247 . S
O8 Zn5 2.028 1_565 S
O9 C1 1.258 . S
O9 Zn3 2.035 1_565 S
O10 Zn3 2.028 1_565 S
O10 C13 1.247 . S
O11 Zn5 2.035 1_565 S
O11 C13 1.258 . S
C12 O6 1.247 . S
C12 O7 1.258 . S
C13 O10 1.247 . S
C13 O11 1.258 . S
C14 O16 1.247 . S
C14 O18 1.258 . S
C15 O22 1.247 . S
C15 O23 1.258 . S
O16 C14 1.247 . S
O16 Zn17 2.028 . S
Zn17 O16 2.028 . S
Zn17 O21 2.035 . S
Zn17 O23 2.035 1_455 S
Zn17 O24 2.028 1_455 S
O18 C14 1.258 . S
O18 Zn19 2.035 . S
Zn19 O18 2.035 . S
Zn19 O20 2.028 . S
Zn19 O22 2.028 1_455 S
Zn19 O25 2.035 1_455 S
O20 Zn19 2.028 . S
O20 C26 1.247 . S
O21 Zn17 2.035 . S
O21 C26 1.258 . S
O22 C15 1.247 . S
O22 Zn19 2.028 1_655 S
O23 C15 1.258 . S
O23 Zn17 2.035 1_655 S
O24 Zn17 2.028 1_655 S
O24 C27 1.247 . S
O25 Zn19 2.035 1_655 S
O25 C27 1.258 . S
C26 O20 1.247 . S
C26 O21 1.258 . S
C27 O24 1.247 . S
C27 O25 1.258 . S
C28 O30 1.247 . S
C28 O32 1.258 . S
C29 O36 1.247 . S
C29 O37 1.258 . S
O30 C28 1.247 . S
O30 Zn31 2.028 1_565 S
Zn31 O30 2.028 1_545 S
Zn31 O35 2.035 1_545 S
Zn31 O37 2.035 . S
Zn31 O38 2.028 . S
O32 C28 1.258 . S
O32 Zn33 2.035 1_565 S
Zn33 O32 2.035 1_545 S
Zn33 O34 2.028 1_545 S
Zn33 O36 2.028 . S
Zn33 O39 2.035 . S
O34 Zn33 2.028 1_565 S
O34 C40 1.247 . S
O35 Zn31 2.035 1_565 S
O35 C40 1.258 . S
O36 C29 1.247 . S
O36 Zn33 2.028 . S
O37 C29 1.258 . S
O37 Zn31 2.035 . S
O38 Zn31 2.028 . S
O38 C41 1.247 . S
O39 Zn33 2.035 . S
O39 C41 1.258 . S
C40 O34 1.247 . S
C40 O35 1.258 . S
C41 O38 1.247 . S
C41 O39 1.258 . S
C42 O44 1.247 . S
C42 O46 1.258 . S
C43 O50 1.247 . S
C43 O51 1.258 . S
O44 C42 1.247 . S
O44 Zn45 2.028 . S
Zn45 O44 2.028 . S
Zn45 O49 2.035 . S
Zn45 O51 2.035 1_455 S
Zn45 O52 2.028 1_455 S
O46 C42 1.258 . S
O46 Zn47 2.035 . S
Zn47 O46 2.035 . S
Zn47 O48 2.028 . S
Zn47 O50 2.028 1_455 S
Zn47 O53 2.035 1_455 S
O48 Zn47 2.028 . S
O48 C54 1.247 . S
O49 Zn45 2.035 . S
O49 C54 1.258 . S
O50 C43 1.247 . S
O50 Zn47 2.028 1_655 S
O51 C43 1.258 . S
O51 Zn45 2.035 1_655 S
O52 Zn45 2.028 1_655 S
O52 C55 1.247 . S
O53 Zn47 2.035 1_655 S
O53 C55 1.258 . S
C54 O48 1.247 . S
C54 O49 1.258 . S
C55 O52 1.247 . S
C55 O53 1.258 . S
C56 O58 1.247 . S
C56 O60 1.258 . S
C57 O64 1.247 . S
C57 O65 1.258 . S
O58 C56 1.247 . S
O58 Zn59 2.028 . S
Zn59 O58 2.028 . S
Zn59 O63 2.035 . S
Zn59 O65 2.035 1_545 S
Zn59 O66 2.028 1_545 S
O60 C56 1.258 . S
O60 Zn61 2.035 . S
Zn61 O60 2.035 . S
Zn61 O62 2.028 . S
Zn61 O64 2.028 1_545 S
Zn61 O67 2.035 1_545 S
O62 Zn61 2.028 . S
O62 C68 1.247 . S
O63 Zn59 2.035 . S
O63 C68 1.258 . S
O64 C57 1.247 . S
O64 Zn61 2.028 1_565 S
O65 C57 1.258 . S
O65 Zn59 2.035 1_565 S
O66 Zn59 2.028 1_565 S
O66 C69 1.247 . S
O67 Zn61 2.035 1_565 S
O67 C69 1.258 . S
C68 O62 1.247 . S
C68 O63 1.258 . S
C69 O66 1.247 . S
C69 O67 1.258 . S
C70 O72 1.247 . S
C70 O74 1.258 . S
C71 O78 1.247 . S
C71 O79 1.258 . S
O72 C70 1.247 . S
O72 Zn73 2.028 . S
Zn73 O72 2.028 . S
Zn73 O77 2.035 . S
Zn73 O79 2.035 1_455 S
Zn73 O80 2.028 1_455 S
O74 C70 1.258 . S
O74 Zn75 2.035 . S
Zn75 O74 2.035 . S
Zn75 O76 2.028 . S
Zn75 O78 2.028 1_455 S
Zn75 O81 2.035 1_455 S
O76 Zn75 2.028 . S
O76 C82 1.247 . S
O77 Zn73 2.035 . S
O77 C82 1.258 . S
O78 C71 1.247 . S
O78 Zn75 2.028 1_655 S
O79 C71 1.258 . S
O79 Zn73 2.035 1_655 S
O80 Zn73 2.028 1_655 S
O80 C83 1.247 . S
O81 Zn75 2.035 1_655 S
O81 C83 1.258 . S
C82 O76 1.247 . S
C82 O77 1.258 . S
C83 O80 1.247 . S
C83 O81 1.258 . S
C84 O86 1.247 . S
C84 O88 1.258 . S
C85 O92 1.247 . S
C85 O93 1.258 . S
O86 C84 1.247 . S
O86 Zn87 2.028 . S
Zn87 O86 2.028 . S
Zn87 O91 2.035 . S
Zn87 O93 2.035 1_545 S
Zn87 O94 2.028 1_545 S
O88 C84 1.258 . S
O88 Zn89 2.035 . S
Zn89 O88 2.035 . S
Zn89 O90 2.028 . S
Zn89 O92 2.028 1_545 S
Zn89 O95 2.035 1_545 S
O90 Zn89 2.028 . S
O90 C96 1.247 . S
O91 Zn87 2.035 . S
O91 C96 1.258 . S
O92 C85 1.247 . S
O92 Zn89 2.028 1_565 S
O93 C85 1.258 . S
O93 Zn87 2.035 1_565 S
O94 Zn87 2.028 1_565 S
O94 C97 1.247 . S
O95 Zn89 2.035 1_565 S
O95 C97 1.258 . S
C96 O90 1.247 . S
C96 O91 1.258 . S
C97 O94 1.247 . S
C97 O95 1.258 . S
C98 O100 1.247 . S
C98 O102 1.258 . S
C99 O106 1.247 . S
C99 O107 1.258 . S
O100 C98 1.247 . S
O100 Zn101 2.028 1_655 S
Zn101 O100 2.028 1_455 S
Zn101 O105 2.035 1_455 S
Zn101 O107 2.035 . S
Zn101 O108 2.028 . S
O102 C98 1.258 . S
O102 Zn103 2.035 1_655 S
Zn103 O102 2.035 1_455 S
Zn103 O104 2.028 1_455 S
Zn103 O106 2.028 . S
Zn103 O109 2.035 . S
O104 Zn103 2.028 1_655 S
O104 C110 1.247 . S
O105 Zn101 2.035 1_655 S
O105 C110 1.258 . S
O106 C99 1.247 . S
O106 Zn103 2.028 . S
O107 C99 1.258 . S
O107 Zn101 2.035 . S
O108 Zn101 2.028 . S
O108 C111 1.247 . S
O109 Zn103 2.035 . S
O109 C111 1.258 . S
C110 O104 1.247 . S
C110 O105 1.258 . S
C111 O108 1.247 . S
C111 O109 1.258 . S
C112 O114 1.247 . S
C112 O116 1.258 . S
C113 O120 1.247 . S
C113 O121 1.258 . S
O114 C112 1.247 . S
O114 Zn115 2.028 . S
Zn115 O114 2.028 . S
Zn115 O119 2.035 . S
Zn115 O121 2.035 1_554 S
Zn115 O122 2.028 1_554 S
O116 C112 1.258 . S
O116 Zn117 2.035 . S
Zn117 O116 2.035 . S
Zn117 O118 2.028 . S
Zn117 O120 2.028 1_554 S
Zn117 O123 2.035 1_554 S
O118 Zn117 2.028 . S
O118 C124 1.247 . S
O119 Zn115 2.035 . S
O119 C124 1.258 . S
O120 C113 1.247 . S
O120 Zn117 2.028 1_556 S
O121 C113 1.258 . S
O121 Zn115 2.035 1_556 S
O122 Zn115 2.028 1_556 S
O122 C125 1.247 . S
O123 Zn117 2.035 1_556 S
O123 C125 1.258 . S
C124 O118 1.247 . S
C124 O119 1.258 . S
C125 O122 1.247 . S
C125 O123 1.258 . S
C126 O128 1.247 . S
C126 O130 1.258 . S
C127 O134 1.247 . S
C127 O135 1.258 . S
O128 C126 1.247 . S
O128 Zn129 2.028 . S
Zn129 O128 2.028 . S
Zn129 O133 2.035 . S
Zn129 O135 2.035 1_554 S
Zn129 O136 2.028 1_554 S
O130 C126 1.258 . S
O130 Zn131 2.035 . S
Zn131 O130 2.035 . S
Zn131 O132 2.028 . S
Zn131 O134 2.028 1_554 S
Zn131 O137 2.035 1_554 S
O132 Zn131 2.028 . S
O132 C138 1.247 . S
O133 Zn129 2.035 . S
O133 C138 1.258 . S
O134 C127 1.247 . S
O134 Zn131 2.028 1_556 S
O135 C127 1.258 . S
O135 Zn129 2.035 1_556 S
O136 Zn129 2.028 1_556 S
O136 C139 1.247 . S
O137 Zn131 2.035 1_556 S
O137 C139 1.258 . S
C138 O132 1.247 . S
C138 O133 1.258 . S
C139 O136 1.247 . S
C139 O137 1.258 . S
C140 O142 1.247 . S
C140 O144 1.258 . S
C141 O148 1.247 . S
C141 O149 1.258 . S
O142 C140 1.247 . S
O142 Zn143 2.028 . S
Zn143 O142 2.028 . S
Zn143 O147 2.035 . S
Zn143 O149 2.035 1_554 S
Zn143 O150 2.028 1_554 S
O144 C140 1.258 . S
O144 Zn145 2.035 . S
Zn145 O144 2.035 . S
Zn145 O146 2.028 . S
Zn145 O148 2.028 1_554 S
Zn145 O151 2.035 1_554 S
O146 Zn145 2.028 . S
O146 C152 1.247 . S
O147 Zn143 2.035 . S
O147 C152 1.258 . S
O148 C141 1.247 . S
O148 Zn145 2.028 1_556 S
O149 C141 1.258 . S
O149 Zn143 2.035 1_556 S
O150 Zn143 2.028 1_556 S
O150 C153 1.247 . S
O151 Zn145 2.035 1_556 S
O151 C153 1.258 . S
C152 O146 1.247 . S
C152 O147 1.258 . S
C153 O150 1.247 . S
C153 O151 1.258 . S
C154 O156 1.247 . S
C154 O158 1.258 . S
C155 O162 1.247 . S
C155 O163 1.258 . S
O156 C154 1.247 . S
O156 Zn157 2.028 1_556 S
Zn157 O156 2.028 1_554 S
Zn157 O161 2.035 1_554 S
Zn157 O163 2.035 . S
Zn157 O164 2.028 . S
O158 C154 1.258 . S
O158 Zn159 2.035 1_556 S
Zn159 O158 2.035 1_554 S
Zn159 O160 2.028 1_554 S
Zn159 O162 2.028 . S
Zn159 O165 2.035 . S
O160 Zn159 2.028 1_556 S
O160 C166 1.247 . S
O161 Zn157 2.035 1_556 S
O161 C166 1.258 . S
O162 C155 1.247 . S
O162 Zn159 2.028 . S
O163 C155 1.258 . S
O163 Zn157 2.035 . S
O164 Zn157 2.028 . S
O164 C167 1.247 . S
O165 Zn159 2.035 . S
O165 C167 1.258 . S
C166 O160 1.247 . S
C166 O161 1.258 . S
C167 O164 1.247 . S
C167 O165 1.258 . S
C168 O170 1.247 . S
C168 O172 1.258 . S
C169 O176 1.247 . S
C169 O177 1.258 . S
O170 C168 1.247 . S
O170 Zn171 2.028 . S
Zn171 O170 2.028 . S
Zn171 O175 2.035 . S
Zn171 O177 2.035 . S
Zn171 O178 2.028 . S
O172 C168 1.258 . S
O172 Zn173 2.035 . S
Zn173 O172 2.035 . S
Zn173 O174 2.028 . S
Zn173 O176 2.028 . S
Zn173 O179 2.035 . S
O174 Zn173 2.028 . S
O174 C180 1.247 . S
O175 Zn171 2.035 . S
O175 C180 1.258 . S
O176 C169 1.247 . S
O176 Zn173 2.028 . S
O177 C169 1.258 . S
O177 Zn171 2.035 . S
O178 Zn171 2.028 . S
O178 C181 1.247 . S
O179 Zn173 2.035 . S
O179 C181 1.258 . S
C180 O174 1.247 . S
C180 O175 1.258 . S
C181 O178 1.247 . S
C181 O179 1.258 . S
C182 O184 1.247 . S
C182 O186 1.258 . S
C183 O190 1.247 . S
C183 O191 1.258 . S
O184 C182 1.247 . S
O184 Zn185 2.028 . S
Zn185 O184 2.028 . S
Zn185 O189 2.035 . S
Zn185 O191 2.035 . S
Zn185 O192 2.028 . S
O186 C182 1.258 . S
O186 Zn187 2.035 . S
Zn187 O186 2.035 . S
Zn187 O188 2.028 . S
Zn187 O190 2.028 . S
Zn187 O193 2.035 . S
O188 Zn187 2.028 . S
O188 C194 1.247 . S
O189 Zn185 2.035 . S
O189 C194 1.258 . S
O190 C183 1.247 . S
O190 Zn187 2.028 . S
O191 C183 1.258 . S
O191 Zn185 2.035 . S
O192 Zn185 2.028 . S
O192 C195 1.247 . S
O193 Zn187 2.035 . S
O193 C195 1.258 . S
C194 O188 1.247 . S
C194 O189 1.258 . S
C195 O192 1.247 . S
C195 O193 1.258 . S
C196 O198 1.247 . S
C196 O200 1.258 . S
C197 O204 1.247 . S
C197 O205 1.258 . S
O198 C196 1.247 . S
O198 Zn199 2.028 . S
Zn199 O198 2.028 . S
Zn199 O203 2.035 . S
Zn199 O205 2.035 . S
Zn199 O206 2.028 . S
O200 C196 1.258 . S
O200 Zn201 2.035 . S
Zn201 O200 2.035 . S
Zn201 O202 2.028 . S
Zn201 O204 2.028 . S
Zn201 O207 2.035 . S
O202 Zn201 2.028 . S
O202 C208 1.247 . S
O203 Zn199 2.035 . S
O203 C208 1.258 . S
O204 C197 1.247 . S
O204 Zn201 2.028 . S
O205 C197 1.258 . S
O205 Zn199 2.035 . S
O206 Zn199 2.028 . S
O206 C209 1.247 . S
O207 Zn201 2.035 . S
O207 C209 1.258 . S
C208 O202 1.247 . S
C208 O203 1.258 . S
C209 O206 1.247 . S
C209 O207 1.258 . S
C210 O212 1.247 . S
C210 O214 1.258 . S
C211 O218 1.247 . S
C211 O219 1.258 . S
O212 C210 1.247 . S
O212 Zn213 2.028 . S
Zn213 O212 2.028 . S
Zn213 O217 2.035 . S
Zn213 O219 2.035 . S
Zn213 O220 2.028 . S
O214 C210 1.258 . S
O214 Zn215 2.035 . S
Zn215 O214 2.035 . S
Zn215 O216 2.028 . S
Zn215 O218 2.028 . S
Zn215 O221 2.035 . S
O216 Zn215 2.028 . S
O216 C222 1.247 . S
O217 Zn213 2.035 . S
O217 C222 1.258 . S
O218 C211 1.247 . S
O218 Zn215 2.028 . S
O219 C211 1.258 . S
O219 Zn213 2.035 . S
O220 Zn213 2.028 . S
O220 C223 1.247 . S
O221 Zn215 2.035 . S
O221 C223 1.258 . S
C222 O216 1.247 . S
C222 O217 1.258 . S
C223 O220 1.247 . S
C223 O221 1.258 . S
C224 O226 1.247 . S
C224 O228 1.258 . S
C225 O232 1.247 . S
C225 O233 1.258 . S
O226 C224 1.247 . S
O226 Zn227 2.028 . S
Zn227 O226 2.028 . S
Zn227 O231 2.035 . S
Zn227 O233 2.035 . S
Zn227 O234 2.028 . S
O228 C224 1.258 . S
O228 Zn229 2.035 . S
Zn229 O228 2.035 . S
Zn229 O230 2.028 . S
Zn229 O232 2.028 . S
Zn229 O235 2.035 . S
O230 Zn229 2.028 . S
O230 C236 1.247 . S
O231 Zn227 2.035 . S
O231 C236 1.258 . S
O232 C225 1.247 . S
O232 Zn229 2.028 . S
O233 C225 1.258 . S
O233 Zn227 2.035 . S
O234 Zn227 2.028 . S
O234 C237 1.247 . S
O235 Zn229 2.035 . S
O235 C237 1.258 . S
C236 O230 1.247 . S
C236 O231 1.258 . S
C237 O234 1.247 . S
C237 O235 1.258 . S
C238 O240 1.247 . S
C238 O242 1.258 . S
C239 O246 1.247 . S
C239 O247 1.258 . S
O240 C238 1.247 . S
O240 Zn241 2.028 . S
Zn241 O240 2.028 . S
Zn241 O245 2.035 . S
Zn241 O247 2.035 . S
Zn241 O248 2.028 . S
O242 C238 1.258 . S
O242 Zn243 2.035 . S
Zn243 O242 2.035 . S
Zn243 O244 2.028 . S
Zn243 O246 2.028 . S
Zn243 O249 2.035 . S
O244 Zn243 2.028 . S
O244 C250 1.247 . S
O245 Zn241 2.035 . S
O245 C250 1.258 . S
O246 C239 1.247 . S
O246 Zn243 2.028 . S
O247 C239 1.258 . S
O247 Zn241 2.035 . S
O248 Zn241 2.028 . S
O248 C251 1.247 . S
O249 Zn243 2.035 . S
O249 C251 1.258 . S
C250 O244 1.247 . S
C250 O245 1.258 . S
C251 O248 1.247 . S
C251 O249 1.258 . S
C252 O254 1.247 . S
C252 O256 1.258 . S
C253 O260 1.247 . S
C253 O261 1.258 . S
O254 C252 1.247 . S
O254 Zn255 2.028 . S
Zn255 O254 2.028 . S
Zn255 O259 2.035 . S
Zn255 O261 2.035 . S
Zn255 O262 2.028 . S
O256 C252 1.258 . S
O256 Zn257 2.035 . S
Zn257 O256 2.035 . S
Zn257 O258 2.028 . S
Zn257 O260 2.028 . S
Zn257 O263 2.035 . S
O258 Zn257 2.028 . S
O258 C264 1.247 . S
O259 Zn255 2.035 . S
O259 C264 1.258 . S
O260 C253 1.247 . S
O260 Zn257 2.028 . S
O261 C253 1.258 . S
O261 Zn255 2.035 . S
O262 Zn255 2.028 . S
O262 C265 1.247 . S
O263 Zn257 2.035 . S
O263 C265 1.258 . S
C264 O258 1.247 . S
C264 O259 1.258 . S
C265 O262 1.247 . S
C265 O263 1.258 . S
C266 O268 1.247 . S
C266 O270 1.258 . S
C267 O274 1.247 . S
C267 O275 1.258 . S
O268 C266 1.247 . S
O268 Zn269 2.028 . S
Zn269 O268 2.028 . S
Zn269 O273 2.035 . S
Zn269 O275 2.035 . S
Zn269 O276 2.028 . S
O270 C266 1.258 . S
O270 Zn271 2.035 . S
Zn271 O270 2.035 . S
Zn271 O272 2.028 . S
Zn271 O274 2.028 . S
Zn271 O277 2.035 . S
O272 Zn271 2.028 . S
O272 C278 1.247 . S
O273 Zn269 2.035 . S
O273 C278 1.258 . S
O274 C267 1.247 . S
O274 Zn271 2.028 . S
O275 C267 1.258 . S
O275 Zn269 2.035 . S
O276 Zn269 2.028 . S
O276 C279 1.247 . S
O277 Zn271 2.035 . S
O277 C279 1.258 . S
C278 O272 1.247 . S
C278 O273 1.258 . S
C279 O276 1.247 . S
C279 O277 1.258 . S
C280 O282 1.247 . S
C280 O284 1.258 . S
C281 O288 1.247 . S
C281 O289 1.258 . S
O282 C280 1.247 . S
O282 Zn283 2.028 . S
Zn283 O282 2.028 . S
Zn283 O287 2.035 . S
Zn283 O289 2.035 . S
Zn283 O290 2.028 . S
O284 C280 1.258 . S
O284 Zn285 2.035 . S
Zn285 O284 2.035 . S
Zn285 O286 2.028 . S
Zn285 O288 2.028 . S
Zn285 O291 2.035 . S
O286 Zn285 2.028 . S
O286 C292 1.247 . S
O287 Zn283 2.035 . S
O287 C292 1.258 . S
O288 C281 1.247 . S
O288 Zn285 2.028 . S
O289 C281 1.258 . S
O289 Zn283 2.035 . S
O290 Zn283 2.028 . S
O290 C293 1.247 . S
O291 Zn285 2.035 . S
O291 C293 1.258 . S
C292 O286 1.247 . S
C292 O287 1.258 . S
C293 O290 1.247 . S
C293 O291 1.258 . S
C294 O296 1.247 . S
C294 O298 1.258 . S
C295 O302 1.247 . S
C295 O303 1.258 . S
O296 C294 1.247 . S
O296 Zn297 2.028 . S
Zn297 O296 2.028 . S
Zn297 O301 2.035 . S
Zn297 O303 2.035 . S
Zn297 O304 2.028 . S
O298 C294 1.258 . S
O298 Zn299 2.035 . S
Zn299 O298 2.035 . S
Zn299 O300 2.028 . S
Zn299 O302 2.028 . S
Zn299 O305 2.035 . S
O300 Zn299 2.028 . S
O300 C306 1.247 . S
O301 Zn297 2.035 . S
O301 C306 1.258 . S
O302 C295 1.247 . S
O302 Zn299 2.028 . S
O303 C295 1.258 . S
O303 Zn297 2.035 . S
O304 Zn297 2.028 . S
O304 C307 1.247 . S
O305 Zn299 2.035 . S
O305 C307 1.258 . S
C306 O300 1.247 . S
C306 O301 1.258 . S
C307 O304 1.247 . S
C307 O305 1.258 . S
C308 O310 1.247 . S
C308 O312 1.258 . S
C309 O316 1.247 . S
C309 O317 1.258 . S
O310 C308 1.247 . S
O310 Zn311 2.028 . S
Zn311 O310 2.028 . S
Zn311 O315 2.035 . S
Zn311 O317 2.035 . S
Zn311 O318 2.028 . S
O312 C308 1.258 . S
O312 Zn313 2.035 . S
Zn313 O312 2.035 . S
Zn313 O314 2.028 . S
Zn313 O316 2.028 . S
Zn313 O319 2.035 . S
O314 Zn313 2.028 . S
O314 C320 1.247 . S
O315 Zn311 2.035 . S
O315 C320 1.258 . S
O316 C309 1.247 . S
O316 Zn313 2.028 . S
O317 C309 1.258 . S
O317 Zn311 2.035 . S
O318 Zn311 2.028 . S
O318 C321 1.247 . S
O319 Zn313 2.035 . S
O319 C321 1.258 . S
C320 O314 1.247 . S
C320 O315 1.258 . S
C321 O318 1.247 . S
C321 O319 1.258 . S
C322 O324 1.247 . S
C322 O326 1.258 . S
C323 O330 1.247 . S
C323 O331 1.258 . S
O324 C322 1.247 . S
O324 Zn325 2.028 . S
Zn325 O324 2.028 . S
Zn325 O329 2.035 . S
Zn325 O331 2.035 . S
Zn325 O332 2.028 . S
O326 C322 1.258 . S
O326 Zn327 2.035 . S
Zn327 O326 2.035 . S
Zn327 O328 2.028 . S
Zn327 O330 2.028 . S
Zn327 O333 2.035 . S
O328 Zn327 2.028 . S
O328 C334 1.247 . S
O329 Zn325 2.035 . S
O329 C334 1.258 . S
O330 C323 1.247 . S
O330 Zn327 2.028 . S
O331 C323 1.258 . S
O331 Zn325 2.035 . S
O332 Zn325 2.028 . S
O332 C335 1.247 . S
O333 Zn327 2.035 . S
O333 C335 1.258 . S
C334 O328 1.247 . S
C334 O329 1.258 . S
C335 O332 1.247 . S
C335 O333 1.258 . S
C309 C0 1.721 . S
C15 C335 1.720 . S
C281 C40 1.725 . S
C295 C54 1.721 . S
C294 C69 1.725 . S
C82 C308 1.726 . S
C334 C96 1.726 . S
C110 C280 1.729 . S
C124 C279 1.721 . S
C224 C126 1.726 . S
C140 C250 1.726 . S
C252 C167 1.721 . S
C166 C182 1.729 . S
C125 C197 1.720 . S
C211 C127 1.720 . S
C141 C180 1.725 . S
C14 C253 1.721 . S
C196 C111 1.721 . S
C68 C210 1.726 . S
C181 C83 1.720 . S
C97 C183 1.720 . S
C55 C225 1.720 . S
C1 C251 1.720 . S
C41 C278 1.721 . S
C85 C292 1.725 . S
C306 C99 1.721 . S
C320 C56 1.717 . S
C322 C71 1.725 . S
C29 C323 1.726 . S
C43 C293 1.729 . S
C13 C307 1.729 . S
C321 C26 1.721 . S
C153 C195 1.729 . S
C154 C208 1.720 . S
C113 C222 1.725 . S
C139 C169 1.729 . S
C138 C266 1.717 . S
C237 C152 1.721 . S
C155 C239 1.726 . S
C112 C265 1.721 . S
C168 C98 1.720 . S
C236 C27 1.725 . S
C28 C238 1.720 . S
C264 C42 1.717 . S
C267 C12 1.721 . S
C70 C209 1.721 . S
C223 C84 1.721 . S
C194 C57 1.725 . S
