# Generated by pormake.
# Topology wjf, (4)-cn, num edge types: 1
# Building blocks:
#     Node 0, Type 0, BuildingBlock: QUQFOY_clean_sbu_3, # of connection points: 4
#     Node 1, Type 0, BuildingBlock: QUQFOY_clean_sbu_3, # of connection points: 4
#     Node 2, Type 0, BuildingBlock: QUQFOY_clean_sbu_3, # of connection points: 4
#     Node 3, Type 0, BuildingBlock: QUQFOY_clean_sbu_3, # of connection points: 4
#     Node 4, Type 0, BuildingBlock: QUQFOY_clean_sbu_3, # of connection points: 4
#     Node 5, Type 0, BuildingBlock: QUQFOY_clean_sbu_3, # of connection points: 4
#     Node 6, Type 0, BuildingBlock: QUQFOY_clean_sbu_3, # of connection points: 4
#     Node 7, Type 0, BuildingBlock: QUQFOY_clean_sbu_3, # of connection points: 4
#     Node 8, Type 0, BuildingBlock: QUQFOY_clean_sbu_3, # of connection points: 4
#     Node 9, Type 0, BuildingBlock: QUQFOY_clean_sbu_3, # of connection points: 4
#     Node 10, Type 0, BuildingBlock: QUQFOY_clean_sbu_3, # of connection points: 4
#     Node 11, Type 0, BuildingBlock: QUQFOY_clean_sbu_3, # of connection points: 4
#     Edge 12, Type (0, 0), BuildingBlock: XIVTED_clean_linker_0, # of connection points: 2
#     Edge 13, Type (0, 0), BuildingBlock: XIVTED_clean_linker_0, # of connection points: 2
#     Edge 14, Type (0, 0), BuildingBlock: XIVTED_clean_linker_0, # of connection points: 2
#     Edge 15, Type (0, 0), BuildingBlock: XIVTED_clean_linker_0, # of connection points: 2
#     Edge 16, Type (0, 0), BuildingBlock: XIVTED_clean_linker_0, # of connection points: 2
#     Edge 17, Type (0, 0), BuildingBlock: XIVTED_clean_linker_0, # of connection points: 2
#     Edge 18, Type (0, 0), BuildingBlock: XIVTED_clean_linker_0, # of connection points: 2
#     Edge 19, Type (0, 0), BuildingBlock: XIVTED_clean_linker_0, # of connection points: 2
#     Edge 20, Type (0, 0), BuildingBlock: XIVTED_clean_linker_0, # of connection points: 2
#     Edge 21, Type (0, 0), BuildingBlock: XIVTED_clean_linker_0, # of connection points: 2
#     Edge 22, Type (0, 0), BuildingBlock: XIVTED_clean_linker_0, # of connection points: 2
#     Edge 23, Type (0, 0), BuildingBlock: XIVTED_clean_linker_0, # of connection points: 2
#     Edge 24, Type (0, 0), BuildingBlock: XIVTED_clean_linker_0, # of connection points: 2
#     Edge 25, Type (0, 0), BuildingBlock: XIVTED_clean_linker_0, # of connection points: 2
#     Edge 26, Type (0, 0), BuildingBlock: XIVTED_clean_linker_0, # of connection points: 2
#     Edge 27, Type (0, 0), BuildingBlock: XIVTED_clean_linker_0, # of connection points: 2
#     Edge 28, Type (0, 0), BuildingBlock: XIVTED_clean_linker_0, # of connection points: 2
#     Edge 29, Type (0, 0), BuildingBlock: XIVTED_clean_linker_0, # of connection points: 2
#     Edge 30, Type (0, 0), BuildingBlock: XIVTED_clean_linker_0, # of connection points: 2
#     Edge 31, Type (0, 0), BuildingBlock: XIVTED_clean_linker_0, # of connection points: 2
#     Edge 32, Type (0, 0), BuildingBlock: XIVTED_clean_linker_0, # of connection points: 2
#     Edge 33, Type (0, 0), BuildingBlock: XIVTED_clean_linker_0, # of connection points: 2
#     Edge 34, Type (0, 0), BuildingBlock: XIVTED_clean_linker_0, # of connection points: 2
#     Edge 35, Type (0, 0), BuildingBlock: XIVTED_clean_linker_0, # of connection points: 2
# Relax obj value: 0.105
# Max RMSD: 0.136
# Mean RMSD: 0.136
data_MOF--net-wjf--node1-QUQFOY_clean_sbu_3--edge1-XIVTED_clean_linker_0
_symmetry_space_group_name_H-M    P1
_symmetry_Int_Tables_number       1
_symmetry_cell_setting            triclinic
loop_
_symmetry_equiv_pos_as_xyz
'x, y, z'
_cell_length_a     52.866183
_cell_length_b     52.799287
_cell_length_c     28.909802
_cell_angle_alpha  90.271255
_cell_angle_beta   89.668636
_cell_angle_gamma 120.00221
loop_
_atom_site_label
_atom_site_type_symbol
_atom_site_fract_x
_atom_site_fract_y
_atom_site_fract_z
_atom_type_partial_charge
C0 C 0.32191 0.33599 0.13468 0.0
O1 O 0.33271 0.32401 0.10936 0.0
Cd2 Cd 0.34134 0.33159 0.02795 0.0
O3 O 0.31434 0.35337 0.1174 0.0
Cd4 Cd 0.31374 0.37306 0.04057 0.0
C5 C 0.38732 0.40587 0.02876 0.0
O6 O 0.29755 0.32753 -0.00237 0.0
O7 O 0.30978 0.3665 0.95773 0.0
O8 O 0.26686 0.36808 0.05841 0.0
C9 C 0.29877 0.33901 0.95872 0.0
O10 O 0.3837 0.38051 0.02106 0.0
C11 C 0.27303 0.3931 0.04341 0.0
O12 O 0.36572 0.40925 0.03897 0.0
O13 O 0.29937 0.4102 0.03147 0.0
C14 C 0.97512 0.32291 0.47039 0.0
O15 O -0.00222 0.3332 0.44493 0.0
Cd16 Cd -0.00117 0.34106 0.36325 0.0
O17 O 0.95021 0.31549 0.45324 0.0
Cd18 Cd 0.92946 0.31436 0.37667 0.0
C19 C 0.97152 0.3879 0.36307 0.0
O20 O 0.95824 0.2974 0.3339 0.0
O21 O 0.93089 0.30867 0.29402 0.0
O22 O 0.88691 0.26837 0.39664 0.0
C23 C 0.94776 0.29815 0.29499 0.0
O24 O -0.00702 0.38382 0.35557 0.0
C25 C 0.86845 0.27493 0.3813 0.0
O26 O 0.94644 0.36664 0.37369 0.0
O27 O 0.87832 0.3011 0.36791 0.0
C28 C 0.65377 0.98639 0.79629 0.0
O29 O 0.66398 0.00842 0.76959 0.0
Cd30 Cd 0.65385 0.00648 0.68824 0.0
O31 O 0.63615 0.96081 0.78126 0.0
Cd32 Cd 0.61222 0.9379 0.70841 0.0
C33 C 0.58042 0.97948 0.69675 0.0
O34 O 0.65563 0.96493 0.66033 0.0
O35 O 0.61502 0.93737 0.625 0.0
O36 O 0.61592 0.89547 0.72733 0.0
C37 C 0.64247 0.95366 0.62282 0.0
O38 O 0.60489 -0.00016 0.68189 0.0
C39 C 0.59016 0.87691 0.71479 0.0
O40 O 0.57765 0.95575 0.71253 0.0
O41 O 0.57348 0.8868 0.70392 0.0
C42 C 0.65433 0.64982 0.14142 0.0
O43 O 0.6439 0.66205 0.11627 0.0
Cd44 Cd 0.63565 0.6548 0.03469 0.0
O45 O 0.66172 0.63226 0.12394 0.0
Cd46 Cd 0.66241 0.61254 0.04689 0.0
C47 C 0.58895 0.58072 0.03409 0.0
O48 O 0.67918 0.65807 0.00386 0.0
O49 O 0.66695 0.61885 0.96424 0.0
O50 O 0.70887 0.61644 0.06358 0.0
C51 C 0.67799 0.64634 0.96501 0.0
O52 O 0.5929 0.60621 0.02679 0.0
C53 C 0.70198 0.59112 0.04874 0.0
O54 O 0.61027 0.57703 0.04445 0.0
O55 O 0.67545 0.57442 0.03763 0.0
C56 C -0.00586 0.65523 0.46649 0.0
O57 O 0.97172 0.64482 0.44079 0.0
Cd58 Cd 0.97198 0.63665 0.35929 0.0
O59 O 0.01921 0.66264 0.4496 0.0
Cd60 Cd 0.04094 0.66392 0.37343 0.0
C61 C 4e-05 0.59038 0.36064 0.0
O62 O 0.01241 0.68049 0.32984 0.0
O63 O 0.04001 0.66883 0.29065 0.0
O64 O 0.08225 0.71035 0.39494 0.0
C65 C 0.02333 0.67958 0.29118 0.0
O66 O 0.97853 0.59423 0.35265 0.0
C67 C 0.1015 0.70493 0.37903 0.0
O68 O 0.02495 0.61183 0.37133 0.0
O69 O 0.09266 0.67907 0.36466 0.0
C70 C 0.33603 0.00526 0.79495 0.0
O71 O 0.32625 0.98313 0.76838 0.0
Cd72 Cd 0.33724 0.98526 0.68725 0.0
O73 O 0.35366 0.0308 0.77983 0.0
Cd74 Cd 0.37791 0.05307 0.70642 0.0
C75 C 0.41062 0.01253 0.6947 0.0
O76 O 0.33433 0.02603 0.65905 0.0
O77 O 0.37494 0.05257 0.62273 0.0
O78 O 0.37333 0.09492 0.72663 0.0
C79 C 0.34739 0.03699 0.62128 0.0
O80 O 0.38625 -0.0079 0.67988 0.0
C81 C 0.39852 0.11389 0.7123 0.0
O82 O 0.41317 0.03615 0.71091 0.0
O83 O 0.41553 0.10462 0.6998 0.0
C84 C 0.64265 0.65649 0.48496 0.0
O85 O 0.65467 0.64606 0.51054 0.0
Cd86 Cd 0.6464 0.63802 0.59205 0.0
O87 O 0.62495 0.66385 0.50193 0.0
Cd88 Cd 0.60442 0.6648 0.57813 0.0
C89 C 0.5723 0.59137 0.59104 0.0
O90 O 0.64975 0.68197 0.62144 0.0
O91 O 0.61059 0.67023 0.66084 0.0
O92 O 0.60842 0.71078 0.557 0.0
C93 C 0.63804 0.68124 0.66012 0.0
O94 O 0.59769 0.59532 0.59905 0.0
C95 C 0.58363 0.70483 0.57299 0.0
O96 O 0.56873 0.61273 0.58026 0.0
O97 O 0.56709 0.67889 0.58719 0.0
C98 C 0.97494 0.64672 0.80997 0.0
O99 O -0.00252 0.65884 0.83543 0.0
Cd100 Cd -0.00204 0.65115 0.91692 0.0
O101 O 0.94992 0.62917 0.82709 0.0
Cd102 Cd 0.92887 0.60922 0.90364 0.0
C103 C 0.97002 0.57687 0.91607 0.0
O104 O 0.95769 0.65458 0.94723 0.0
O105 O 0.93018 0.61545 -0.01361 0.0
O106 O 0.8869 0.61361 0.88442 0.0
C107 C 0.94695 0.64289 -0.01406 0.0
O108 O -0.0084 0.60229 0.92381 0.0
C109 C 0.86809 0.58866 0.89983 0.0
O110 O 0.94509 0.57335 0.90562 0.0
O111 O 0.87747 0.57188 0.91271 0.0
C112 C 0.31301 0.98085 0.13546 0.0
O113 O 0.32449 0.00396 0.15994 0.0
Cd114 Cd 0.3364 0.00702 0.24022 0.0
O115 O 0.30598 0.95613 0.1532 0.0
Cd116 Cd 0.30746 0.93703 0.23014 0.0
C117 C 0.38143 0.97756 0.23455 0.0
O118 O 0.29434 0.96796 0.27568 0.0
O119 O 0.30745 0.94109 0.3131 0.0
O120 O 0.25939 0.8954 0.21944 0.0
C121 C 0.29737 0.95835 0.31408 0.0
O122 O 0.37832 -0.00039 0.24243 0.0
C123 C 0.26599 0.87648 0.23233 0.0
O124 O 0.35938 0.95245 0.22662 0.0
O125 O 0.29285 0.88544 0.23955 0.0
C126 C 0.33106 0.32374 0.47763 0.0
O127 O 0.31857 0.33399 0.50302 0.0
Cd128 Cd 0.32481 0.34166 0.58488 0.0
O129 O 0.34855 0.31636 0.49489 0.0
Cd130 Cd 0.36796 0.31557 0.57173 0.0
C131 C 0.39863 0.389 0.58659 0.0
O132 O 0.32192 0.298 0.61381 0.0
O133 O 0.36041 0.30943 0.65418 0.0
O134 O 0.36601 0.27008 0.55254 0.0
C135 C 0.33301 0.29866 0.65282 0.0
O136 O 0.37303 0.38478 0.59387 0.0
C137 C 0.39126 0.27756 0.56792 0.0
O138 O 0.40262 0.36786 0.57569 0.0
O139 O 0.40694 0.30395 0.58084 0.0
C140 C -0.00282 0.33498 0.81336 0.0
O141 O 0.97446 0.32297 0.8387 0.0
Cd142 Cd 0.97354 0.33067 0.92018 0.0
O143 O 0.02212 0.35239 0.83064 0.0
Cd144 Cd 0.04274 0.37221 0.90741 0.0
C145 C 0.00191 0.40502 0.9194 0.0
O146 O 0.01342 0.32677 0.95019 0.0
O147 O 0.04055 0.36565 -0.00978 0.0
O148 O 0.08459 0.36742 0.88795 0.0
C149 C 0.02378 0.33822 -0.01085 0.0
O150 O 0.98018 0.37967 0.92701 0.0
C151 C 0.10347 0.39232 0.90345 0.0
O152 O 0.02688 0.40837 0.90924 0.0
O153 O 0.09423 0.40923 0.91671 0.0
C154 C 0.65514 0.00462 0.13725 0.0
O155 O 0.64306 0.9814 0.16129 0.0
Cd156 Cd 0.62977 0.97855 0.24088 0.0
O157 O 0.66153 0.02923 0.15503 0.0
Cd158 Cd 0.65818 0.04808 0.23166 0.0
C159 C 0.5843 0.0074 0.23486 0.0
O160 O 0.67226 0.01766 0.27528 0.0
O161 O 0.65878 0.04373 0.31482 0.0
O162 O 0.70588 0.08982 0.21851 0.0
C163 C 0.66964 0.02712 0.31425 0.0
O164 O 0.58747 0.98543 0.2426 0.0
C165 C 0.69969 0.10869 0.23368 0.0
O166 O 0.60635 0.03257 0.22739 0.0
O167 O 0.67307 0.09968 0.24345 0.0
H168 H 0.29724 0.35528 0.19918 0.0
H169 H 0.35125 0.30001 0.41301 0.0
H170 H 0.34053 0.30462 0.18487 0.0
H171 H 0.2998 0.34245 0.42733 0.0
H172 H 0.34568 0.29959 0.32929 0.0
H173 H 0.29607 0.34895 0.28283 0.0
C174 C 0.30635 0.34269 0.21358 0.0
C175 C 0.31921 0.33066 0.18499 0.0
C176 C 0.33544 0.30881 0.35077 0.0
C177 C 0.31803 0.32343 0.28071 0.0
C178 C 0.33864 0.3091 0.39859 0.0
C179 C 0.32617 0.3215 0.42722 0.0
C180 C 0.31982 0.32119 0.3314 0.0
C181 C 0.30992 0.33278 0.4066 0.0
C182 C 0.30563 0.33904 0.26136 0.0
C183 C 0.33052 0.3144 0.20557 0.0
N184 N 0.3074 0.33256 0.3599 0.0
N185 N 0.32986 0.31145 0.25223 0.0
H186 H 0.93136 0.29898 0.53507 0.0
H187 H 0.041 0.3544 0.74875 0.0
H188 H 0.02519 0.34177 0.52054 0.0
H189 H 0.94715 0.3035 0.76315 0.0
H190 H 0.0357 0.34812 0.66506 0.0
H191 H 0.93669 0.29852 0.61874 0.0
C192 C 0.95308 0.30814 0.54943 0.0
C193 C 0.97788 0.32065 0.52076 0.0
C194 C 0.01628 0.33815 0.68656 0.0
C195 C 0.98414 0.32028 0.61653 0.0
C196 C 0.01928 0.34176 0.73437 0.0
C197 C -0.00554 0.32965 0.763 0.0
C198 C -0.01175 0.32249 0.66723 0.0
C199 C 0.96689 0.31334 0.74242 0.0
C200 C 0.95611 0.30783 0.59723 0.0
C201 C 0.00546 0.33202 0.54131 0.0
N202 N 0.96452 0.31043 0.69574 0.0
N203 N 0.00785 0.33176 0.58799 0.0
H204 H 0.6826 0.03789 0.84472 0.0
H205 H 0.64553 0.95622 0.08828 0.0
H206 H 0.64086 0.94419 0.86111 0.0
H207 H 0.6779 0.04883 0.07336 0.0
H208 H 0.65132 0.95276 0.0053 0.0
H209 H 0.68873 0.04349 0.92857 0.0
C210 C 0.67503 0.01853 0.86586 0.0
C211 C 0.6608 0.9905 0.84599 0.0
C212 C 0.65735 0.97389 0.0202 0.0
C213 C 0.66767 -0.00324 0.94168 0.0
C214 C 0.65403 0.97589 0.06762 0.0
C215 C 0.66084 0.00279 0.08771 0.0
C216 C 0.66745 -0.00106 -0.0074 0.0
C217 C 0.67208 0.02758 0.05925 0.0
C218 C 0.67848 0.02174 0.9137 0.0
C219 C 0.65158 0.9662 0.87499 0.0
N220 N 0.67479 0.02501 0.013 0.0
N221 N 0.65497 0.96989 0.92141 0.0
H222 H 0.63672 0.68231 0.19188 0.0
H223 H 0.67498 0.63843 0.43504 0.0
H224 H 0.6772 0.6291 0.20587 0.0
H225 H 0.62354 0.68074 0.42036 0.0
H226 H 0.68162 0.64039 0.35126 0.0
H227 H 0.63747 0.68753 0.2758 0.0
C228 C 0.64596 0.67188 0.21254 0.0
C229 C 0.65666 0.655 0.19182 0.0
C230 C 0.669 0.64937 0.36643 0.0
C231 C 0.65751 0.66087 0.28788 0.0
C232 C 0.66523 0.6483 0.41427 0.0
C233 C 0.64845 0.6592 0.43472 0.0
C234 C 0.65596 0.66148 0.33889 0.0
C235 C 0.63644 0.67185 0.40607 0.0
C236 C 0.64632 0.67484 0.26047 0.0
C237 C 0.66849 0.64212 0.22036 0.0
N238 N 0.64032 0.67252 0.35958 0.0
N239 N 0.66845 0.6452 0.26699 0.0
H240 H 0.02519 0.67922 0.76015 0.0
H241 H 0.9437 0.63703 0.51614 0.0
H242 H 0.93159 0.62642 0.74506 0.0
H243 H 0.03736 0.67912 0.53151 0.0
H244 H 0.93885 0.63848 0.59996 0.0
H245 H 0.02991 0.6849 0.67633 0.0
C246 C 0.0056 0.66897 0.73927 0.0
C247 C 0.97796 0.65208 0.75965 0.0
C248 C 0.96046 0.64753 0.58494 0.0
C249 C 0.98325 0.65848 0.6637 0.0
C250 C 0.96327 0.64675 0.53708 0.0
C251 C -0.00903 0.65773 0.51679 0.0
C252 C 0.98554 0.65942 0.6127 0.0
C253 C 0.01555 0.67018 0.54566 0.0
C254 C 0.00833 0.67219 0.6914 0.0
C255 C 0.95335 0.63944 0.73084 0.0
N256 N 0.01223 0.67055 0.59218 0.0
N257 N 0.9566 0.64277 0.68428 0.0
H258 H 0.29115 0.93672 0.07109 0.0
H259 H 0.34774 0.04777 0.85927 0.0
H260 H 0.32795 0.03012 0.08513 0.0
H261 H 0.30513 0.95396 0.84295 0.0
H262 H 0.33672 0.04118 0.94169 0.0
H263 H 0.29179 0.94195 -0.01283 0.0
C264 C 0.29907 0.95828 0.05659 0.0
C265 C 0.30989 0.98308 0.08518 0.0
C266 C 0.32957 0.02201 0.92007 0.0
C267 C 0.31084 0.9892 -0.01075 0.0
C268 C 0.33593 0.02576 0.87297 0.0
C269 C 0.32764 0.00138 0.84426 0.0
C270 C 0.31501 -0.00631 0.93872 0.0
C271 C 0.31211 0.97338 0.86388 0.0
C272 C 0.29944 0.96125 0.00866 0.0
C273 C 0.31968 0.01043 0.06447 0.0
N274 N 0.30654 0.9703 0.91004 0.0
N275 N 0.3202 0.01278 0.01774 0.0
H276 H 0.12578 0.35623 0.89097 0.0
H277 H 0.27804 0.44399 0.00891 0.0
H278 H 0.14847 0.44184 0.943 0.0
H279 H 0.21457 0.35548 0.0474 0.0
H280 H 0.2389 0.44837 0.97044 0.0
H281 H 0.16898 0.36062 0.92841 0.0
C282 C 0.14021 0.37629 0.90923 0.0
C283 C 0.13325 0.39851 0.91453 0.0
C284 C 0.23373 0.42828 -0.01192 0.0
C285 C 0.18254 0.40346 0.9574 0.0
C286 C 0.25586 0.42578 0.01024 0.0
C287 C 0.24957 0.39922 0.03102 0.0
C288 C 0.20561 0.40381 -0.01406 0.0
C289 C 0.2205 0.37629 0.03162 0.0
C290 C 0.16466 0.3786 0.93091 0.0
C291 C 0.15295 0.42409 0.93846 0.0
N292 N 0.19973 0.37891 0.00848 0.0
N293 N 0.17675 0.42583 0.95954 0.0
H294 H 0.84444 0.21644 0.39506 0.0
H295 H 0.69472 0.15466 0.2688 0.0
H296 H 0.82454 0.28052 0.3406 0.0
H297 H 0.75794 0.12838 0.23457 0.0
H298 H 0.73325 0.1974 0.31025 0.0
H299 H 0.80112 0.17801 0.35688 0.0
C300 C 0.83056 0.22241 0.37616 0.0
C301 C 0.83841 0.25179 0.37028 0.0
C302 C 0.73851 0.18236 0.29294 0.0
C303 C 0.78899 0.20791 0.32659 0.0
C304 C 0.71673 0.15819 0.2691 0.0
C305 C 0.7231 0.13782 0.24849 0.0
C306 C 0.76631 0.18545 0.29697 0.0
C307 C 0.75194 0.14336 0.25007 0.0
C308 C 0.80604 0.20049 0.35408 0.0
C309 C 0.81939 0.25813 0.34556 0.0
N310 N 0.77231 0.1663 0.27476 0.0
N311 N 0.79556 0.23629 0.32402 0.0
H312 H 0.53766 0.83175 0.68364 0.0
H313 H 0.61845 0.7629 0.55608 0.0
H314 H 0.62588 0.85377 0.71716 0.0
H315 H 0.53546 0.7009 0.61697 0.0
H316 H 0.61539 0.80244 0.5946 0.0
H317 H 0.53076 0.78712 0.64466 0.0
C318 C 0.55527 0.82688 0.68386 0.0
C319 C 0.58252 0.84667 0.70322 0.0
C320 C 0.59763 0.78017 0.59873 0.0
C321 C 0.57504 0.79684 0.65759 0.0
C322 C 0.59918 0.75761 0.57647 0.0
C323 C 0.57744 0.7285 0.58405 0.0
C324 C 0.574 0.77365 0.62809 0.0
C325 C 0.55284 0.72306 0.61064 0.0
C326 C 0.55133 0.80162 0.66141 0.0
C327 C 0.60461 0.83933 0.70245 0.0
N328 N 0.55188 0.74552 0.63233 0.0
N329 N 0.6006 0.81535 0.67899 0.0
H330 H 0.69532 0.5395 0.01375 0.0
H331 H 0.84527 0.62422 0.88734 0.0
H332 H 0.76068 0.62771 0.05053 0.0
H333 H 0.82368 0.53955 0.94132 0.0
H334 H 0.80269 0.62036 0.92702 0.0
H335 H 0.7333 0.53397 -0.02726 0.0
C336 C 0.71768 0.5574 0.01419 0.0
C337 C 0.72482 0.58423 0.0352 0.0
C338 C 0.80708 0.60244 0.9294 0.0
C339 C 0.76745 0.57832 -0.01274 0.0
C340 C 0.83117 0.60444 0.90645 0.0
C341 C 0.83833 0.5824 0.91172 0.0
C342 C 0.78977 0.57806 0.95713 0.0
C343 C 0.81905 0.55717 0.93678 0.0
C344 C 0.73914 0.55424 -0.00941 0.0
C345 C 0.75409 0.60672 0.03462 0.0
N346 N 0.79563 0.55575 0.95914 0.0
N347 N 0.77419 0.60348 0.01008 0.0
H348 H 0.12379 0.76279 0.39739 0.0
H349 H 0.27184 0.82978 0.26002 0.0
H350 H 0.14629 0.70221 0.33464 0.0
H351 H 0.20808 0.85721 0.24152 0.0
H352 H 0.23463 0.78614 0.30151 0.0
H353 H 0.16611 0.80304 0.35984 0.0
C354 C 0.13804 0.75796 0.37675 0.0
C355 C 0.13118 0.72904 0.36839 0.0
C356 C 0.22895 0.80168 0.2877 0.0
C357 C 0.17943 0.775 0.32532 0.0
C358 C 0.24996 0.82636 0.26383 0.0
C359 C 0.24305 0.84721 0.24748 0.0
C360 C 0.2014 0.79854 0.29612 0.0
C361 C 0.21444 0.84182 0.25354 0.0
C362 C 0.16199 0.78092 0.35503 0.0
C363 C 0.15066 0.7242 0.34156 0.0
N364 N 0.19485 0.81831 0.27813 0.0
N365 N 0.17388 0.74703 0.32036 0.0
H366 H 0.44867 0.1591 0.67434 0.0
H367 H 0.35789 0.21869 0.5569 0.0
H368 H 0.36197 0.13585 0.72112 0.0
H369 H 0.44193 0.2854 0.60754 0.0
H370 H 0.36468 0.1818 0.59626 0.0
H371 H 0.4521 0.202 0.63491 0.0
C372 C 0.43073 0.1634 0.67741 0.0
C373 C 0.40481 0.14365 0.70054 0.0
C374 C 0.38181 0.20452 0.59795 0.0
C375 C 0.40832 0.19151 0.6545 0.0
C376 C 0.37814 0.22555 0.57518 0.0
C377 C 0.39916 0.25523 0.57963 0.0
C378 C 0.40686 0.21312 0.6246 0.0
C379 C 0.42507 0.26274 0.60367 0.0
C380 C 0.43268 0.18768 0.65469 0.0
C381 C 0.38223 0.15024 0.70336 0.0
N382 N 0.42814 0.24174 0.62584 0.0
N383 N 0.38423 0.17322 0.67959 0.0
H384 H 0.28466 0.30322 0.67044 0.0
H385 H 0.29984 0.28866 0.94149 0.0
H386 H 0.34312 0.27847 0.73255 0.0
H387 H 0.28062 0.35101 0.87845 0.0
H388 H 0.29633 0.26659 0.86515 0.0
H389 H 0.26394 0.30189 0.74722 0.0
C390 C 0.29249 0.29667 0.70006 0.0
C391 C 0.316 0.29162 0.69576 0.0
C392 C 0.29213 0.28461 0.86843 0.0
C393 C 0.29241 0.28975 0.78261 0.0
C394 C 0.29414 0.29717 0.91177 0.0
C395 C 0.29122 0.32205 0.91568 0.0
C396 C 0.28676 0.29685 0.82933 0.0
C397 C 0.28369 0.33223 0.87642 0.0
C398 C 0.28073 0.29596 0.74366 0.0
C399 C 0.3254 0.28313 0.73489 0.0
N400 N 0.28204 0.31978 0.83462 0.0
N401 N 0.31379 0.2828 0.77695 0.0
H402 H 0.00061 0.30252 0.27751 0.0
H403 H 0.97186 0.28845 0.00598 0.0
H404 H 0.91787 0.27888 0.21458 0.0
H405 H 0.05356 0.34995 0.06982 0.0
H406 H 0.95281 0.26677 0.0822 0.0
H407 H 0.02017 0.30133 0.20082 0.0
C408 C 0.98637 0.29627 0.24771 0.0
C409 C 0.95788 0.29145 0.25181 0.0
C410 C 0.97515 0.28452 0.07915 0.0
C411 C 0.9798 0.28972 0.16503 0.0
C412 C 0.986 0.29685 0.03586 0.0
C413 C 0.014 0.32138 0.03218 0.0
C414 C -0.00731 0.29664 0.11842 0.0
C415 C 0.03158 0.33143 0.07166 0.0
C416 C -0.00249 0.29563 0.20416 0.0
C417 C 0.94019 0.28335 0.21243 0.0
N418 N 0.02051 0.3192 0.11339 0.0
N419 N 0.95156 0.28306 0.17043 0.0
H420 H 0.69048 0.00594 0.60144 0.0
H421 H 0.6675 0.97524 0.33055 0.0
H422 H 0.62746 0.92287 0.54252 0.0
H423 H 0.68686 0.05672 0.39545 0.0
H424 H 0.67132 0.95658 0.40632 0.0
H425 H 0.70781 0.02461 0.5232 0.0
C426 C 0.6809 0.99143 0.5721 0.0
C427 C 0.65716 0.96311 0.57793 0.0
C428 C 0.6754 0.97877 0.40355 0.0
C429 C 0.67696 0.98402 0.48943 0.0
C430 C 0.6732 0.98938 0.36059 0.0
C431 C 0.67626 0.01724 0.35737 0.0
C432 C 0.68124 -0.00353 0.44289 0.0
C433 C 0.68375 0.03486 0.39697 0.0
C434 C 0.69073 0.00207 0.5277 0.0
C435 C 0.64546 0.94506 0.53908 0.0
N436 N 0.68578 0.02407 0.43835 0.0
N437 N 0.65529 0.95594 0.49621 0.0
H438 H 0.62545 0.70005 0.73976 0.0
H439 H 0.69778 0.63487 0.88554 0.0
H440 H 0.68802 0.68003 0.67851 0.0
H441 H 0.67403 0.69487 0.94631 0.0
H442 H 0.69977 0.65579 0.80961 0.0
H443 H 0.64734 0.70373 0.81537 0.0
C444 C 0.64419 0.69697 0.74225 0.0
C445 C 0.65463 0.68909 0.70336 0.0
C446 C 0.69489 0.66496 0.83965 0.0
C447 C 0.67939 0.69279 0.78941 0.0
C448 C 0.69357 0.65289 0.88285 0.0
C449 C 0.68514 0.66284 0.92171 0.0
C450 C 0.6868 0.68641 0.83531 0.0
C451 C 0.68029 0.68645 0.91685 0.0
C452 C 0.65681 0.69929 0.78528 0.0
C453 C 0.67918 0.68579 0.70799 0.0
N454 N 0.68039 0.69697 0.87404 0.0
N455 N 0.6903 0.68686 0.75064 0.0
H456 H 0.05428 0.6979 0.21122 0.0
H457 H 0.91604 0.63131 0.06577 0.0
H458 H 0.9717 0.67748 0.27277 0.0
H459 H -0.0005 0.69134 0.00473 0.0
H460 H 0.93524 0.65227 0.14173 0.0
H461 H 0.0356 0.70072 0.13557 0.0
C462 C 0.03236 0.69454 0.20878 0.0
C463 C 0.01421 0.68684 0.2478 0.0
C464 C 0.94916 0.66142 0.11163 0.0
C465 C -0.00739 0.68956 0.1617 0.0
C466 C 0.93828 0.64934 0.06841 0.0
C467 C 0.95649 0.6593 0.02943 0.0
C468 C 0.97868 0.68293 0.11586 0.0
C469 C 0.98494 0.68291 0.03425 0.0
C470 C 0.02179 0.69637 0.16573 0.0
C471 C 0.9862 0.68314 0.24321 0.0
N472 N -0.00451 0.69346 0.07706 0.0
N473 N 0.97591 0.68376 0.20055 0.0
H474 H 0.27841 0.92889 0.39475 0.0
H475 H 0.36493 0.06664 0.53999 0.0
H476 H 0.30853 0.0136 0.33347 0.0
H477 H 0.29494 0.98863 0.60203 0.0
H478 H 0.34288 0.04888 0.46405 0.0
H479 H 0.28142 0.95011 0.47119 0.0
C480 C 0.2851 0.95188 0.39751 0.0
C481 C 0.29364 0.96972 0.35826 0.0
C482 C 0.33198 0.03598 0.49441 0.0
C483 C 0.29776 -0.00584 0.44507 0.0
C484 C 0.34467 0.04597 0.53759 0.0
C485 C 0.33197 0.02874 0.57693 0.0
C486 C 0.30694 0.00827 0.49065 0.0
C487 C 0.30554 0.00237 0.5723 0.0
C488 C 0.28666 0.96393 0.44097 0.0
C489 C 0.30193 -0.00073 0.36322 0.0
N490 N 0.29422 -0.00746 0.52963 0.0
N491 N 0.30458 0.01084 0.40618 0.0
H492 H 0.43907 0.40635 0.01875 0.0
H493 H 0.53744 0.58063 0.02383 0.0
H494 H 0.40356 0.46393 0.03453 0.0
H495 H 0.57242 0.52258 0.0374 0.0
H496 H 0.4883 0.5382 0.02031 0.0
H497 H 0.48817 0.44888 0.01798 0.0
C498 C 0.44156 0.42793 0.0219 0.0
C499 C 0.41711 0.43155 0.02687 0.0
C500 C 0.50674 0.53476 0.02405 0.0
C501 C 0.47335 0.48034 0.02598 0.0
C502 C 0.53483 0.55897 0.02595 0.0
C503 C 0.55913 0.55517 0.03107 0.0
C504 C 0.50289 0.50652 0.02695 0.0
C505 C 0.55435 0.52656 0.03365 0.0
C506 C 0.46963 0.4522 0.02159 0.0
C507 C 0.42175 0.46008 0.03082 0.0
N508 N 0.52678 0.50333 0.03152 0.0
N509 N 0.44933 0.48338 0.03028 0.0
H510 H 0.94865 0.53884 0.34995 0.0
H511 H 0.02317 0.43931 0.3528 0.0
H512 H 0.04142 0.57367 0.36625 0.0
H513 H 0.93023 0.4048 0.36686 0.0
H514 H 0.03031 0.48866 0.34999 0.0
H515 H 0.94165 0.48955 0.34835 0.0
C516 C 0.96759 0.53617 0.35305 0.0
C517 C -0.00432 0.56047 0.3584 0.0
C518 C 0.00836 0.47028 0.35367 0.0
C519 C -0.01224 0.50401 0.35653 0.0
C520 C 0.00423 0.44207 0.35516 0.0
C521 C 0.97604 0.41784 0.36023 0.0
C522 C 0.98412 0.47433 0.35695 0.0
C523 C 0.95236 0.42281 0.36313 0.0
C524 C 0.96354 0.50798 0.35225 0.0
C525 C 0.01936 0.55559 0.36226 0.0
N526 N 0.95694 0.4505 0.36141 0.0
N527 N 0.01486 0.5279 0.36123 0.0
H528 H 0.53913 0.96474 0.76395 0.0
H529 H 0.42715 0.98877 0.62547 0.0
H530 H 0.56445 0.00414 0.62885 0.0
H531 H 0.45144 0.02656 0.76188 0.0
H532 H 0.46936 0.98104 0.62524 0.0
H533 H 0.4978 0.97387 0.7636 0.0
C534 C 0.53579 0.97507 0.73415 0.0
C535 C 0.55505 0.98379 0.69639 0.0
C536 C 0.46533 0.99104 0.65506 0.0
C537 C 0.508 -0.00644 0.69547 0.0
C538 C 0.44138 -0.00464 0.65531 0.0
C539 C 0.4361 0.0084 0.69368 0.0
C540 C 0.48331 -0.00112 0.69409 0.0
C541 C 0.45506 0.01664 0.73156 0.0
C542 C 0.51247 0.98039 0.73413 0.0
C543 C 0.55005 -0.00273 0.65865 0.0
N544 N 0.47771 0.01135 0.73115 0.0
N545 N 0.52669 0.00145 0.65883 0.0
H546 H 0.57221 0.53985 0.6019 0.0
H547 H 0.39824 0.44037 0.59747 0.0
H548 H 0.51426 0.57469 0.5854 0.0
H549 H 0.45678 0.4059 0.58367 0.0
H550 H 0.44041 0.48973 0.60112 0.0
H551 H 0.52994 0.49056 0.60336 0.0
C552 C 0.5506 0.53718 0.59874 0.0
C553 C 0.5468 0.56148 0.59333 0.0
C554 C 0.444 0.47135 0.59732 0.0
C555 C 0.49831 0.50505 0.59504 0.0
C556 C 0.41995 0.44314 0.59536 0.0
C557 C 0.42397 0.41894 0.59007 0.0
C558 C 0.4723 0.47539 0.59432 0.0
C559 C 0.45262 0.4239 0.58752 0.0
C560 C 0.52648 0.509 0.59946 0.0
C561 C 0.51825 0.55661 0.58941 0.0
N562 N 0.47569 0.45158 0.58969 0.0
N563 N 0.49509 0.52894 0.59035 0.0
H564 H 0.92833 0.51878 0.91188 0.0
H565 H 0.04374 0.46305 0.91452 0.0
H566 H 0.02134 0.57656 0.92583 0.0
H567 H 0.95061 0.40554 0.92832 0.0
H568 H 0.03602 0.50497 0.91547 0.0
H569 H 0.93609 0.47693 0.91459 0.0
C570 C 0.95037 0.52269 0.91555 0.0
C571 C 0.97422 0.55125 0.91855 0.0
C572 C 0.0173 0.48317 0.91846 0.0
C573 C 0.98325 0.50343 0.92153 0.0
C574 C 0.02168 0.45922 0.91784 0.0
C575 C -0.00221 0.43071 0.92126 0.0
C576 C -0.0112 0.47859 0.92216 0.0
C577 C 0.9697 0.42711 0.92562 0.0
C578 C 0.95478 0.49877 0.91722 0.0
C579 C 0.00229 0.55495 0.92343 0.0
N580 N 0.96598 0.45076 0.92572 0.0
N581 N 0.00604 0.53132 0.92456 0.0
H582 H 0.56867 0.04959 0.22867 0.0
H583 H 0.39697 0.93525 0.22798 0.0
H584 H 0.53208 0.95614 0.23999 0.0
H585 H 0.43364 0.0287 0.24051 0.0
H586 H 0.44638 0.94245 0.22767 0.0
H587 H 0.51926 0.04231 0.22825 0.0
C588 C 0.55028 0.02754 0.23102 0.0
C589 C 0.55456 0.00345 0.23442 0.0
C590 C 0.44358 0.96136 0.23055 0.0
C591 C 0.49795 -0.00503 0.23386 0.0
C592 C 0.41538 0.95728 0.23064 0.0
C593 C 0.41112 0.9814 0.23432 0.0
C594 C 0.4677 0.98978 0.23387 0.0
C595 C 0.43583 0.00944 0.23772 0.0
C596 C 0.52207 0.02341 0.23087 0.0
C597 C 0.52986 0.97538 0.23744 0.0
N598 N 0.46304 0.01284 0.23732 0.0
N599 N 0.50263 0.97192 0.237 0.0
loop_
_geom_bond_atom_site_label_1
_geom_bond_atom_site_label_2
_geom_bond_distance
_geom_bond_site_symmetry_2
_ccdc_geom_bond_type
C0 O1 1.306 . S
C0 O3 1.160 . S
O1 C0 1.306 . S
O1 Cd2 2.228 . S
Cd2 O1 2.228 . S
Cd2 O6 2.273 . S
Cd2 O10 2.277 . S
O3 C0 1.160 . S
O3 Cd4 2.203 . S
Cd4 O3 2.203 . S
Cd4 O6 2.411 . S
Cd4 O7 2.333 1_554 S
Cd4 O8 2.352 . S
Cd4 O12 2.277 . S
Cd4 O13 2.356 . S
C5 O10 1.209 . S
C5 O12 1.226 . S
O6 Cd2 2.273 . S
O6 Cd4 2.411 . S
O6 C9 1.320 1_554 S
O7 Cd4 2.333 1_556 S
O7 C9 1.214 . S
O8 Cd4 2.352 . S
O8 C11 1.258 . S
C9 O6 1.320 1_556 S
C9 O7 1.214 . S
O10 Cd2 2.277 . S
O10 C5 1.209 . S
C11 O8 1.258 . S
C11 O13 1.282 . S
O12 Cd4 2.277 . S
O12 C5 1.226 . S
O13 Cd4 2.356 . S
O13 C11 1.282 . S
C14 O15 1.306 1_655 S
C14 O17 1.160 . S
O15 C14 1.306 1_455 S
O15 Cd16 2.228 . S
Cd16 O15 2.228 . S
Cd16 O20 2.273 1_455 S
Cd16 O24 2.277 1_455 S
O17 C14 1.160 . S
O17 Cd18 2.203 . S
Cd18 O17 2.203 . S
Cd18 O20 2.411 . S
Cd18 O21 2.333 . S
Cd18 O22 2.352 . S
Cd18 O26 2.277 . S
Cd18 O27 2.356 . S
C19 O24 1.209 . S
C19 O26 1.226 . S
O20 Cd16 2.273 1_655 S
O20 Cd18 2.411 . S
O20 C23 1.320 . S
O21 Cd18 2.333 . S
O21 C23 1.214 . S
O22 Cd18 2.352 . S
O22 C25 1.258 . S
C23 O20 1.320 . S
C23 O21 1.214 . S
O24 Cd16 2.277 1_655 S
O24 C19 1.209 . S
C25 O22 1.258 . S
C25 O27 1.282 . S
O26 Cd18 2.277 . S
O26 C19 1.226 . S
O27 Cd18 2.356 . S
O27 C25 1.282 . S
C28 O29 1.306 1_565 S
C28 O31 1.160 . S
O29 C28 1.306 1_545 S
O29 Cd30 2.228 . S
Cd30 O29 2.228 . S
Cd30 O34 2.273 1_545 S
Cd30 O38 2.277 1_545 S
O31 C28 1.160 . S
O31 Cd32 2.203 . S
Cd32 O31 2.203 . S
Cd32 O34 2.411 . S
Cd32 O35 2.333 . S
Cd32 O36 2.352 . S
Cd32 O40 2.277 . S
Cd32 O41 2.356 . S
C33 O38 1.209 . S
C33 O40 1.226 . S
O34 Cd30 2.273 1_565 S
O34 Cd32 2.411 . S
O34 C37 1.320 . S
O35 Cd32 2.333 . S
O35 C37 1.214 . S
O36 Cd32 2.352 . S
O36 C39 1.258 . S
C37 O34 1.320 . S
C37 O35 1.214 . S
O38 Cd30 2.277 1_565 S
O38 C33 1.209 . S
C39 O36 1.258 . S
C39 O41 1.282 . S
O40 Cd32 2.277 . S
O40 C33 1.226 . S
O41 Cd32 2.356 . S
O41 C39 1.282 . S
C42 O43 1.306 . S
C42 O45 1.160 . S
O43 C42 1.306 . S
O43 Cd44 2.228 . S
Cd44 O43 2.228 . S
Cd44 O48 2.273 . S
Cd44 O52 2.277 . S
O45 C42 1.160 . S
O45 Cd46 2.203 . S
Cd46 O45 2.203 . S
Cd46 O48 2.411 . S
Cd46 O49 2.333 1_554 S
Cd46 O50 2.352 . S
Cd46 O54 2.277 . S
Cd46 O55 2.356 . S
C47 O52 1.209 . S
C47 O54 1.226 . S
O48 Cd44 2.273 . S
O48 Cd46 2.411 . S
O48 C51 1.320 1_554 S
O49 Cd46 2.333 1_556 S
O49 C51 1.214 . S
O50 Cd46 2.352 . S
O50 C53 1.258 . S
C51 O48 1.320 1_556 S
C51 O49 1.214 . S
O52 Cd44 2.277 . S
O52 C47 1.209 . S
C53 O50 1.258 . S
C53 O55 1.282 . S
O54 Cd46 2.277 . S
O54 C47 1.226 . S
O55 Cd46 2.356 . S
O55 C53 1.282 . S
C56 O57 1.306 1_455 S
C56 O59 1.160 . S
O57 C56 1.306 1_655 S
O57 Cd58 2.228 . S
Cd58 O57 2.228 . S
Cd58 O62 2.273 1_655 S
Cd58 O66 2.277 1_655 S
O59 C56 1.160 . S
O59 Cd60 2.203 . S
Cd60 O59 2.203 . S
Cd60 O62 2.411 . S
Cd60 O63 2.333 . S
Cd60 O64 2.352 . S
Cd60 O68 2.277 . S
Cd60 O69 2.356 . S
C61 O66 1.209 . S
C61 O68 1.226 . S
O62 Cd58 2.273 1_455 S
O62 Cd60 2.411 . S
O62 C65 1.320 . S
O63 Cd60 2.333 . S
O63 C65 1.214 . S
O64 Cd60 2.352 . S
O64 C67 1.258 . S
C65 O62 1.320 . S
C65 O63 1.214 . S
O66 Cd58 2.277 1_455 S
O66 C61 1.209 . S
C67 O64 1.258 . S
C67 O69 1.282 . S
O68 Cd60 2.277 . S
O68 C61 1.226 . S
O69 Cd60 2.356 . S
O69 C67 1.282 . S
C70 O71 1.306 1_545 S
C70 O73 1.160 . S
O71 C70 1.306 1_565 S
O71 Cd72 2.228 . S
Cd72 O71 2.228 . S
Cd72 O76 2.273 1_565 S
Cd72 O80 2.277 1_565 S
O73 C70 1.160 . S
O73 Cd74 2.203 . S
Cd74 O73 2.203 . S
Cd74 O76 2.411 . S
Cd74 O77 2.333 . S
Cd74 O78 2.352 . S
Cd74 O82 2.277 . S
Cd74 O83 2.356 . S
C75 O80 1.209 . S
C75 O82 1.226 . S
O76 Cd72 2.273 1_545 S
O76 Cd74 2.411 . S
O76 C79 1.320 . S
O77 Cd74 2.333 . S
O77 C79 1.214 . S
O78 Cd74 2.352 . S
O78 C81 1.258 . S
C79 O76 1.320 . S
C79 O77 1.214 . S
O80 Cd72 2.277 1_545 S
O80 C75 1.209 . S
C81 O78 1.258 . S
C81 O83 1.282 . S
O82 Cd74 2.277 . S
O82 C75 1.226 . S
O83 Cd74 2.356 . S
O83 C81 1.282 . S
C84 O85 1.306 . S
C84 O87 1.160 . S
O85 C84 1.306 . S
O85 Cd86 2.228 . S
Cd86 O85 2.228 . S
Cd86 O90 2.273 . S
Cd86 O94 2.277 . S
O87 C84 1.160 . S
O87 Cd88 2.203 . S
Cd88 O87 2.203 . S
Cd88 O90 2.411 . S
Cd88 O91 2.333 . S
Cd88 O92 2.352 . S
Cd88 O96 2.277 . S
Cd88 O97 2.356 . S
C89 O94 1.209 . S
C89 O96 1.226 . S
O90 Cd86 2.273 . S
O90 Cd88 2.411 . S
O90 C93 1.320 . S
O91 Cd88 2.333 . S
O91 C93 1.214 . S
O92 Cd88 2.352 . S
O92 C95 1.258 . S
C93 O90 1.320 . S
C93 O91 1.214 . S
O94 Cd86 2.277 . S
O94 C89 1.209 . S
C95 O92 1.258 . S
C95 O97 1.282 . S
O96 Cd88 2.277 . S
O96 C89 1.226 . S
O97 Cd88 2.356 . S
O97 C95 1.282 . S
C98 O99 1.306 1_655 S
C98 O101 1.160 . S
O99 C98 1.306 1_455 S
O99 Cd100 2.228 . S
Cd100 O99 2.228 . S
Cd100 O104 2.273 1_455 S
Cd100 O108 2.277 1_455 S
O101 C98 1.160 . S
O101 Cd102 2.203 . S
Cd102 O101 2.203 . S
Cd102 O104 2.411 . S
Cd102 O105 2.333 1_556 S
Cd102 O106 2.352 . S
Cd102 O110 2.277 . S
Cd102 O111 2.356 . S
C103 O108 1.209 . S
C103 O110 1.226 . S
O104 Cd100 2.273 1_655 S
O104 Cd102 2.411 . S
O104 C107 1.320 1_556 S
O105 Cd102 2.333 1_554 S
O105 C107 1.214 . S
O106 Cd102 2.352 . S
O106 C109 1.258 . S
C107 O104 1.320 1_554 S
C107 O105 1.214 . S
O108 Cd100 2.277 1_655 S
O108 C103 1.209 . S
C109 O106 1.258 . S
C109 O111 1.282 . S
O110 Cd102 2.277 . S
O110 C103 1.226 . S
O111 Cd102 2.356 . S
O111 C109 1.282 . S
C112 O113 1.306 1_565 S
C112 O115 1.160 . S
O113 C112 1.306 1_545 S
O113 Cd114 2.228 . S
Cd114 O113 2.228 . S
Cd114 O118 2.273 1_545 S
Cd114 O122 2.277 1_545 S
O115 C112 1.160 . S
O115 Cd116 2.203 . S
Cd116 O115 2.203 . S
Cd116 O118 2.411 . S
Cd116 O119 2.333 . S
Cd116 O120 2.352 . S
Cd116 O124 2.277 . S
Cd116 O125 2.356 . S
C117 O122 1.209 . S
C117 O124 1.226 . S
O118 Cd114 2.273 1_565 S
O118 Cd116 2.411 . S
O118 C121 1.320 . S
O119 Cd116 2.333 . S
O119 C121 1.214 . S
O120 Cd116 2.352 . S
O120 C123 1.258 . S
C121 O118 1.320 . S
C121 O119 1.214 . S
O122 Cd114 2.277 1_565 S
O122 C117 1.209 . S
C123 O120 1.258 . S
C123 O125 1.282 . S
O124 Cd116 2.277 . S
O124 C117 1.226 . S
O125 Cd116 2.356 . S
O125 C123 1.282 . S
C126 O127 1.306 . S
C126 O129 1.160 . S
O127 C126 1.306 . S
O127 Cd128 2.228 . S
Cd128 O127 2.228 . S
Cd128 O132 2.273 . S
Cd128 O136 2.277 . S
O129 C126 1.160 . S
O129 Cd130 2.203 . S
Cd130 O129 2.203 . S
Cd130 O132 2.411 . S
Cd130 O133 2.333 . S
Cd130 O134 2.352 . S
Cd130 O138 2.277 . S
Cd130 O139 2.356 . S
C131 O136 1.209 . S
C131 O138 1.226 . S
O132 Cd128 2.273 . S
O132 Cd130 2.411 . S
O132 C135 1.320 . S
O133 Cd130 2.333 . S
O133 C135 1.214 . S
O134 Cd130 2.352 . S
O134 C137 1.258 . S
C135 O132 1.320 . S
C135 O133 1.214 . S
O136 Cd128 2.277 . S
O136 C131 1.209 . S
C137 O134 1.258 . S
C137 O139 1.282 . S
O138 Cd130 2.277 . S
O138 C131 1.226 . S
O139 Cd130 2.356 . S
O139 C137 1.282 . S
C140 O141 1.306 1_455 S
C140 O143 1.160 . S
O141 C140 1.306 1_655 S
O141 Cd142 2.228 . S
Cd142 O141 2.228 . S
Cd142 O146 2.273 1_655 S
Cd142 O150 2.277 1_655 S
O143 C140 1.160 . S
O143 Cd144 2.203 . S
Cd144 O143 2.203 . S
Cd144 O146 2.411 . S
Cd144 O147 2.333 1_556 S
Cd144 O148 2.352 . S
Cd144 O152 2.277 . S
Cd144 O153 2.356 . S
C145 O150 1.209 . S
C145 O152 1.226 . S
O146 Cd142 2.273 1_455 S
O146 Cd144 2.411 . S
O146 C149 1.320 1_556 S
O147 Cd144 2.333 1_554 S
O147 C149 1.214 . S
O148 Cd144 2.352 . S
O148 C151 1.258 . S
C149 O146 1.320 1_554 S
C149 O147 1.214 . S
O150 Cd142 2.277 1_455 S
O150 C145 1.209 . S
C151 O148 1.258 . S
C151 O153 1.282 . S
O152 Cd144 2.277 . S
O152 C145 1.226 . S
O153 Cd144 2.356 . S
O153 C151 1.282 . S
C154 O155 1.306 1_545 S
C154 O157 1.160 . S
O155 C154 1.306 1_565 S
O155 Cd156 2.228 . S
Cd156 O155 2.228 . S
Cd156 O160 2.273 1_565 S
Cd156 O164 2.277 1_565 S
O157 C154 1.160 . S
O157 Cd158 2.203 . S
Cd158 O157 2.203 . S
Cd158 O160 2.411 . S
Cd158 O161 2.333 . S
Cd158 O162 2.352 . S
Cd158 O166 2.277 . S
Cd158 O167 2.356 . S
C159 O164 1.209 . S
C159 O166 1.226 . S
O160 Cd156 2.273 1_545 S
O160 Cd158 2.411 . S
O160 C163 1.320 . S
O161 Cd158 2.333 . S
O161 C163 1.214 . S
O162 Cd158 2.352 . S
O162 C165 1.258 . S
C163 O160 1.320 . S
C163 O161 1.214 . S
O164 Cd156 2.277 1_545 S
O164 C159 1.209 . S
C165 O162 1.258 . S
C165 O167 1.282 . S
O166 Cd158 2.277 . S
O166 C159 1.226 . S
O167 Cd158 2.356 . S
O167 C165 1.282 . S
H168 C174 0.930 . S
H169 C178 0.930 . S
H170 C183 0.929 . S
H171 C181 0.929 . S
H172 C176 0.929 . S
H173 C182 0.929 . S
C174 H168 0.930 . S
C174 C175 1.367 . S
C174 C182 1.378 . S
C175 C174 1.367 . S
C175 C183 1.433 . S
C176 H172 0.929 . S
C176 C178 1.378 . S
C176 C180 1.350 . S
C177 C180 1.463 . S
C177 C182 1.350 . S
C177 N185 1.427 . S
C178 H169 0.930 . S
C178 C176 1.378 . S
C178 C179 1.367 . S
C179 C178 1.367 . S
C179 C181 1.433 . S
C180 C176 1.350 . S
C180 C177 1.463 . S
C180 N184 1.427 . S
C181 H171 0.929 . S
C181 C179 1.433 . S
C181 N184 1.384 . S
C182 H173 0.929 . S
C182 C174 1.378 . S
C182 C177 1.350 . S
C183 H170 0.929 . S
C183 C175 1.433 . S
C183 N185 1.384 . S
N184 C180 1.427 . S
N184 C181 1.384 . S
N185 C177 1.427 . S
N185 C183 1.384 . S
H186 C192 0.930 . S
H187 C196 0.930 . S
H188 C201 0.929 . S
H189 C199 0.929 . S
H190 C194 0.929 . S
H191 C200 0.929 . S
C192 H186 0.930 . S
C192 C193 1.367 . S
C192 C200 1.378 . S
C193 C192 1.367 . S
C193 C201 1.433 1_655 S
C194 H190 0.929 . S
C194 C196 1.378 . S
C194 C198 1.350 . S
C195 C198 1.463 1_655 S
C195 C200 1.350 . S
C195 N203 1.427 1_655 S
C196 H187 0.930 . S
C196 C194 1.378 . S
C196 C197 1.367 . S
C197 C196 1.367 . S
C197 C199 1.433 1_455 S
C198 C194 1.350 . S
C198 C195 1.463 1_455 S
C198 N202 1.427 1_455 S
C199 H189 0.929 . S
C199 C197 1.433 1_655 S
C199 N202 1.384 . S
C200 H191 0.929 . S
C200 C192 1.378 . S
C200 C195 1.350 . S
C201 H188 0.929 . S
C201 C193 1.433 1_455 S
C201 N203 1.384 . S
N202 C198 1.427 1_655 S
N202 C199 1.384 . S
N203 C195 1.427 1_455 S
N203 C201 1.384 . S
H204 C210 0.930 . S
H205 C214 0.930 . S
H206 C219 0.929 . S
H207 C217 0.929 . S
H208 C212 0.929 . S
H209 C218 0.929 . S
C210 H204 0.930 . S
C210 C211 1.367 1_545 S
C210 C218 1.378 . S
C211 C210 1.367 1_565 S
C211 C219 1.433 . S
C212 H208 0.929 . S
C212 C214 1.378 . S
C212 C216 1.350 1_565 S
C213 C216 1.463 1_566 S
C213 C218 1.350 1_565 S
C213 N221 1.427 . S
C214 H205 0.930 . S
C214 C212 1.378 . S
C214 C215 1.367 1_565 S
C215 C214 1.367 1_545 S
C215 C217 1.433 . S
C216 C212 1.350 1_545 S
C216 C213 1.463 1_544 S
C216 N220 1.427 . S
C217 H207 0.929 . S
C217 C215 1.433 . S
C217 N220 1.384 . S
C218 H209 0.929 . S
C218 C210 1.378 . S
C218 C213 1.350 1_545 S
C219 H206 0.929 . S
C219 C211 1.433 . S
C219 N221 1.384 . S
N220 C216 1.427 . S
N220 C217 1.384 . S
N221 C213 1.427 . S
N221 C219 1.384 . S
H222 C228 0.930 . S
H223 C232 0.930 . S
H224 C237 0.929 . S
H225 C235 0.929 . S
H226 C230 0.929 . S
H227 C236 0.929 . S
C228 H222 0.930 . S
C228 C229 1.367 . S
C228 C236 1.378 . S
C229 C228 1.367 . S
C229 C237 1.433 . S
C230 H226 0.929 . S
C230 C232 1.378 . S
C230 C234 1.350 . S
C231 C234 1.463 . S
C231 C236 1.350 . S
C231 N239 1.427 . S
C232 H223 0.930 . S
C232 C230 1.378 . S
C232 C233 1.367 . S
C233 C232 1.367 . S
C233 C235 1.433 . S
C234 C230 1.350 . S
C234 C231 1.463 . S
C234 N238 1.427 . S
C235 H225 0.929 . S
C235 C233 1.433 . S
C235 N238 1.384 . S
C236 H227 0.929 . S
C236 C228 1.378 . S
C236 C231 1.350 . S
C237 H224 0.929 . S
C237 C229 1.433 . S
C237 N239 1.384 . S
N238 C234 1.427 . S
N238 C235 1.384 . S
N239 C231 1.427 . S
N239 C237 1.384 . S
H240 C246 0.930 . S
H241 C250 0.930 . S
H242 C255 0.929 . S
H243 C253 0.929 . S
H244 C248 0.929 . S
H245 C254 0.929 . S
C246 H240 0.930 . S
C246 C247 1.367 1_455 S
C246 C254 1.378 . S
C247 C246 1.367 1_655 S
C247 C255 1.433 . S
C248 H244 0.929 . S
C248 C250 1.378 . S
C248 C252 1.350 1_655 S
C249 C252 1.463 1_655 S
C249 C254 1.350 1_655 S
C249 N257 1.427 . S
C250 H241 0.930 . S
C250 C248 1.378 . S
C250 C251 1.367 1_655 S
C251 C250 1.367 1_455 S
C251 C253 1.433 . S
C252 C248 1.350 1_455 S
C252 C249 1.463 1_455 S
C252 N256 1.427 . S
C253 H243 0.929 . S
C253 C251 1.433 . S
C253 N256 1.384 . S
C254 H245 0.929 . S
C254 C246 1.378 . S
C254 C249 1.350 1_455 S
C255 H242 0.929 . S
C255 C247 1.433 . S
C255 N257 1.384 . S
N256 C252 1.427 . S
N256 C253 1.384 . S
N257 C249 1.427 . S
N257 C255 1.384 . S
H258 C264 0.930 . S
H259 C268 0.930 . S
H260 C273 0.929 . S
H261 C271 0.929 . S
H262 C266 0.929 . S
H263 C272 0.929 . S
C264 H258 0.930 . S
C264 C265 1.367 . S
C264 C272 1.378 . S
C265 C264 1.367 . S
C265 C273 1.433 1_565 S
C266 H262 0.929 . S
C266 C268 1.378 . S
C266 C270 1.350 . S
C267 C270 1.463 1_564 S
C267 C272 1.350 . S
C267 N275 1.427 1_565 S
C268 H259 0.930 . S
C268 C266 1.378 . S
C268 C269 1.367 . S
C269 C268 1.367 . S
C269 C271 1.433 1_545 S
C270 C266 1.350 . S
C270 C267 1.463 1_546 S
C270 N274 1.427 1_545 S
C271 H261 0.929 . S
C271 C269 1.433 1_565 S
C271 N274 1.384 . S
C272 H263 0.929 . S
C272 C264 1.378 . S
C272 C267 1.350 . S
C273 H260 0.929 . S
C273 C265 1.433 1_545 S
C273 N275 1.384 . S
N274 C270 1.427 1_565 S
N274 C271 1.384 . S
N275 C267 1.427 1_545 S
N275 C273 1.384 . S
H276 C282 0.930 . S
H277 C286 0.930 . S
H278 C291 0.929 . S
H279 C289 0.929 . S
H280 C284 0.929 . S
H281 C290 0.929 . S
C282 H276 0.930 . S
C282 C283 1.367 . S
C282 C290 1.378 . S
C283 C282 1.367 . S
C283 C291 1.433 . S
C284 H280 0.929 . S
C284 C286 1.378 . S
C284 C288 1.350 . S
C285 C288 1.463 1_556 S
C285 C290 1.350 . S
C285 N293 1.427 1_556 S
C286 H277 0.930 . S
C286 C284 1.378 . S
C286 C287 1.367 . S
C287 C286 1.367 . S
C287 C289 1.433 . S
C288 C284 1.350 . S
C288 C285 1.463 1_554 S
C288 N292 1.427 1_554 S
C289 H279 0.929 . S
C289 C287 1.433 . S
C289 N292 1.384 1_554 S
C290 H281 0.929 . S
C290 C282 1.378 . S
C290 C285 1.350 . S
C291 H278 0.929 . S
C291 C283 1.433 . S
C291 N293 1.384 1_556 S
N292 C288 1.427 1_556 S
N292 C289 1.384 1_556 S
N293 C285 1.427 1_554 S
N293 C291 1.384 1_554 S
H294 C300 0.930 . S
H295 C304 0.930 . S
H296 C309 0.929 . S
H297 C307 0.929 . S
H298 C302 0.929 . S
H299 C308 0.929 . S
C300 H294 0.930 . S
C300 C301 1.367 . S
C300 C308 1.378 . S
C301 C300 1.367 . S
C301 C309 1.433 . S
C302 H298 0.929 . S
C302 C304 1.378 . S
C302 C306 1.350 . S
C303 C306 1.463 . S
C303 C308 1.350 . S
C303 N311 1.427 . S
C304 H295 0.930 . S
C304 C302 1.378 . S
C304 C305 1.367 . S
C305 C304 1.367 . S
C305 C307 1.433 . S
C306 C302 1.350 . S
C306 C303 1.463 . S
C306 N310 1.427 . S
C307 H297 0.929 . S
C307 C305 1.433 . S
C307 N310 1.384 . S
C308 H299 0.929 . S
C308 C300 1.378 . S
C308 C303 1.350 . S
C309 H296 0.929 . S
C309 C301 1.433 . S
C309 N311 1.384 . S
N310 C306 1.427 . S
N310 C307 1.384 . S
N311 C303 1.427 . S
N311 C309 1.384 . S
H312 C318 0.930 . S
H313 C322 0.930 . S
H314 C327 0.929 . S
H315 C325 0.929 . S
H316 C320 0.929 . S
H317 C326 0.929 . S
C318 H312 0.930 . S
C318 C319 1.367 . S
C318 C326 1.378 . S
C319 C318 1.367 . S
C319 C327 1.433 . S
C320 H316 0.929 . S
C320 C322 1.378 . S
C320 C324 1.350 . S
C321 C324 1.463 . S
C321 C326 1.350 . S
C321 N329 1.427 . S
C322 H313 0.930 . S
C322 C320 1.378 . S
C322 C323 1.367 . S
C323 C322 1.367 . S
C323 C325 1.433 . S
C324 C320 1.350 . S
C324 C321 1.463 . S
C324 N328 1.427 . S
C325 H315 0.929 . S
C325 C323 1.433 . S
C325 N328 1.384 . S
C326 H317 0.929 . S
C326 C318 1.378 . S
C326 C321 1.350 . S
C327 H314 0.929 . S
C327 C319 1.433 . S
C327 N329 1.384 . S
N328 C324 1.427 . S
N328 C325 1.384 . S
N329 C321 1.427 . S
N329 C327 1.384 . S
H330 C336 0.930 . S
H331 C340 0.930 . S
H332 C345 0.929 . S
H333 C343 0.929 . S
H334 C338 0.929 1_554 S
H335 C344 0.929 1_556 S
C336 H330 0.930 . S
C336 C337 1.367 . S
C336 C344 1.378 . S
C337 C336 1.367 . S
C337 C345 1.433 . S
C338 H334 0.929 1_556 S
C338 C340 1.378 . S
C338 C342 1.350 . S
C339 C342 1.463 1_554 S
C339 C344 1.350 . S
C339 N347 1.427 . S
C340 H331 0.930 . S
C340 C338 1.378 . S
C340 C341 1.367 . S
C341 C340 1.367 . S
C341 C343 1.433 . S
C342 C338 1.350 . S
C342 C339 1.463 1_556 S
C342 N346 1.427 . S
C343 H333 0.929 . S
C343 C341 1.433 . S
C343 N346 1.384 . S
C344 H335 0.929 1_554 S
C344 C336 1.378 . S
C344 C339 1.350 . S
C345 H332 0.929 . S
C345 C337 1.433 . S
C345 N347 1.384 . S
N346 C342 1.427 . S
N346 C343 1.384 . S
N347 C339 1.427 . S
N347 C345 1.384 . S
H348 C354 0.930 . S
H349 C358 0.930 . S
H350 C363 0.929 . S
H351 C361 0.929 . S
H352 C356 0.929 . S
H353 C362 0.929 . S
C354 H348 0.930 . S
C354 C355 1.367 . S
C354 C362 1.378 . S
C355 C354 1.367 . S
C355 C363 1.433 . S
C356 H352 0.929 . S
C356 C358 1.378 . S
C356 C360 1.350 . S
C357 C360 1.463 . S
C357 C362 1.350 . S
C357 N365 1.427 . S
C358 H349 0.930 . S
C358 C356 1.378 . S
C358 C359 1.367 . S
C359 C358 1.367 . S
C359 C361 1.433 . S
C360 C356 1.350 . S
C360 C357 1.463 . S
C360 N364 1.427 . S
C361 H351 0.929 . S
C361 C359 1.433 . S
C361 N364 1.384 . S
C362 H353 0.929 . S
C362 C354 1.378 . S
C362 C357 1.350 . S
C363 H350 0.929 . S
C363 C355 1.433 . S
C363 N365 1.384 . S
N364 C360 1.427 . S
N364 C361 1.384 . S
N365 C357 1.427 . S
N365 C363 1.384 . S
H366 C372 0.930 . S
H367 C376 0.930 . S
H368 C381 0.929 . S
H369 C379 0.929 . S
H370 C374 0.929 . S
H371 C380 0.929 . S
C372 H366 0.930 . S
C372 C373 1.367 . S
C372 C380 1.378 . S
C373 C372 1.367 . S
C373 C381 1.433 . S
C374 H370 0.929 . S
C374 C376 1.378 . S
C374 C378 1.350 . S
C375 C378 1.463 . S
C375 C380 1.350 . S
C375 N383 1.427 . S
C376 H367 0.930 . S
C376 C374 1.378 . S
C376 C377 1.367 . S
C377 C376 1.367 . S
C377 C379 1.433 . S
C378 C374 1.350 . S
C378 C375 1.463 . S
C378 N382 1.427 . S
C379 H369 0.929 . S
C379 C377 1.433 . S
C379 N382 1.384 . S
C380 H371 0.929 . S
C380 C372 1.378 . S
C380 C375 1.350 . S
C381 H368 0.929 . S
C381 C373 1.433 . S
C381 N383 1.384 . S
N382 C378 1.427 . S
N382 C379 1.384 . S
N383 C375 1.427 . S
N383 C381 1.384 . S
H384 C390 0.930 . S
H385 C394 0.930 . S
H386 C399 0.929 . S
H387 C397 0.929 . S
H388 C392 0.929 . S
H389 C398 0.929 . S
C390 H384 0.930 . S
C390 C391 1.367 . S
C390 C398 1.378 . S
C391 C390 1.367 . S
C391 C399 1.433 . S
C392 H388 0.929 . S
C392 C394 1.378 . S
C392 C396 1.350 . S
C393 C396 1.463 . S
C393 C398 1.350 . S
C393 N401 1.427 . S
C394 H385 0.930 . S
C394 C392 1.378 . S
C394 C395 1.367 . S
C395 C394 1.367 . S
C395 C397 1.433 . S
C396 C392 1.350 . S
C396 C393 1.463 . S
C396 N400 1.427 . S
C397 H387 0.929 . S
C397 C395 1.433 . S
C397 N400 1.384 . S
C398 H389 0.929 . S
C398 C390 1.378 . S
C398 C393 1.350 . S
C399 H386 0.929 . S
C399 C391 1.433 . S
C399 N401 1.384 . S
N400 C396 1.427 . S
N400 C397 1.384 . S
N401 C393 1.427 . S
N401 C399 1.384 . S
H402 C408 0.930 . S
H403 C412 0.930 . S
H404 C417 0.929 . S
H405 C415 0.929 . S
H406 C410 0.929 . S
H407 C416 0.929 . S
C408 H402 0.930 . S
C408 C409 1.367 1_455 S
C408 C416 1.378 . S
C409 C408 1.367 1_655 S
C409 C417 1.433 . S
C410 H406 0.929 . S
C410 C412 1.378 . S
C410 C414 1.341 1_655 S
C411 C414 1.462 1_655 S
C411 C416 1.340 1_655 S
C411 N419 1.438 . S
C412 H403 0.930 . S
C412 C410 1.378 . S
C412 C413 1.367 1_655 S
C413 C412 1.367 1_455 S
C413 C415 1.433 . S
C414 C410 1.341 1_455 S
C414 C411 1.462 1_455 S
C414 N418 1.438 . S
C415 H405 0.929 . S
C415 C413 1.433 . S
C415 N418 1.384 . S
C416 H407 0.929 . S
C416 C408 1.378 . S
C416 C411 1.340 1_455 S
C417 H404 0.929 . S
C417 C409 1.433 . S
C417 N419 1.384 . S
N418 C414 1.438 . S
N418 C415 1.384 . S
N419 C411 1.438 . S
N419 C417 1.384 . S
H420 C426 0.930 . S
H421 C430 0.930 . S
H422 C435 0.929 . S
H423 C433 0.929 . S
H424 C428 0.929 . S
H425 C434 0.929 . S
C426 H420 0.930 . S
C426 C427 1.367 1_545 S
C426 C434 1.378 . S
C427 C426 1.367 1_565 S
C427 C435 1.433 . S
C428 H424 0.929 . S
C428 C430 1.378 . S
C428 C432 1.342 1_565 S
C429 C432 1.462 1_565 S
C429 C434 1.342 1_565 S
C429 N437 1.436 . S
C430 H421 0.930 . S
C430 C428 1.378 . S
C430 C431 1.367 1_565 S
C431 C430 1.367 1_545 S
C431 C433 1.433 . S
C432 C428 1.342 1_545 S
C432 C429 1.462 1_545 S
C432 N436 1.436 . S
C433 H423 0.929 . S
C433 C431 1.433 . S
C433 N436 1.384 . S
C434 H425 0.929 . S
C434 C426 1.378 . S
C434 C429 1.342 1_545 S
C435 H422 0.929 . S
C435 C427 1.433 . S
C435 N437 1.384 . S
N436 C432 1.436 . S
N436 C433 1.384 . S
N437 C429 1.436 . S
N437 C435 1.384 . S
H438 C444 0.930 . S
H439 C448 0.930 . S
H440 C453 0.929 . S
H441 C451 0.929 . S
H442 C446 0.929 . S
H443 C452 0.929 . S
C444 H438 0.930 . S
C444 C445 1.367 . S
C444 C452 1.378 . S
C445 C444 1.367 . S
C445 C453 1.433 . S
C446 H442 0.929 . S
C446 C448 1.378 . S
C446 C450 1.350 . S
C447 C450 1.463 . S
C447 C452 1.350 . S
C447 N455 1.427 . S
C448 H439 0.930 . S
C448 C446 1.378 . S
C448 C449 1.367 . S
C449 C448 1.367 . S
C449 C451 1.433 . S
C450 C446 1.350 . S
C450 C447 1.463 . S
C450 N454 1.427 . S
C451 H441 0.929 . S
C451 C449 1.433 . S
C451 N454 1.384 . S
C452 H443 0.929 . S
C452 C444 1.378 . S
C452 C447 1.350 . S
C453 H440 0.929 . S
C453 C445 1.433 . S
C453 N455 1.384 . S
N454 C450 1.427 . S
N454 C451 1.384 . S
N455 C447 1.427 . S
N455 C453 1.384 . S
H456 C462 0.930 . S
H457 C466 0.930 . S
H458 C471 0.929 . S
H459 C469 0.929 . S
H460 C464 0.929 . S
H461 C470 0.929 . S
C462 H456 0.930 . S
C462 C463 1.367 . S
C462 C470 1.378 . S
C463 C462 1.367 . S
C463 C471 1.433 1_455 S
C464 H460 0.929 . S
C464 C466 1.378 . S
C464 C468 1.350 . S
C465 C468 1.463 1_455 S
C465 C470 1.350 . S
C465 N473 1.427 1_455 S
C466 H457 0.930 . S
C466 C464 1.378 . S
C466 C467 1.367 . S
C467 C466 1.367 . S
C467 C469 1.433 1_655 S
C468 C464 1.350 . S
C468 C465 1.463 1_655 S
C468 N472 1.427 1_655 S
C469 H459 0.929 . S
C469 C467 1.433 1_455 S
C469 N472 1.384 . S
C470 H461 0.929 . S
C470 C462 1.378 . S
C470 C465 1.350 . S
C471 H458 0.929 . S
C471 C463 1.433 1_655 S
C471 N473 1.384 . S
N472 C468 1.427 1_455 S
N472 C469 1.384 . S
N473 C465 1.427 1_655 S
N473 C471 1.384 . S
H474 C480 0.930 . S
H475 C484 0.930 . S
H476 C489 0.929 . S
H477 C487 0.929 . S
H478 C482 0.929 . S
H479 C488 0.929 . S
C480 H474 0.930 . S
C480 C481 1.367 . S
C480 C488 1.378 . S
C481 C480 1.367 . S
C481 C489 1.433 1_565 S
C482 H478 0.929 . S
C482 C484 1.378 . S
C482 C486 1.350 . S
C483 C486 1.463 1_565 S
C483 C488 1.350 . S
C483 N491 1.427 1_565 S
C484 H475 0.930 . S
C484 C482 1.378 . S
C484 C485 1.367 . S
C485 C484 1.367 . S
C485 C487 1.433 1_545 S
C486 C482 1.350 . S
C486 C483 1.463 1_545 S
C486 N490 1.427 1_545 S
C487 H477 0.929 . S
C487 C485 1.433 1_565 S
C487 N490 1.384 . S
C488 H479 0.929 . S
C488 C480 1.378 . S
C488 C483 1.350 . S
C489 H476 0.929 . S
C489 C481 1.433 1_545 S
C489 N491 1.384 . S
N490 C486 1.427 1_565 S
N490 C487 1.384 . S
N491 C483 1.427 1_545 S
N491 C489 1.384 . S
H492 C498 0.930 . S
H493 C502 0.930 . S
H494 C507 0.929 . S
H495 C505 0.929 . S
H496 C500 0.929 . S
H497 C506 0.929 . S
C498 H492 0.930 . S
C498 C499 1.367 . S
C498 C506 1.378 . S
C499 C498 1.367 . S
C499 C507 1.433 . S
C500 H496 0.929 . S
C500 C502 1.378 . S
C500 C504 1.350 . S
C501 C504 1.463 . S
C501 C506 1.350 . S
C501 N509 1.427 . S
C502 H493 0.930 . S
C502 C500 1.378 . S
C502 C503 1.367 . S
C503 C502 1.367 . S
C503 C505 1.433 . S
C504 C500 1.350 . S
C504 C501 1.463 . S
C504 N508 1.427 . S
C505 H495 0.929 . S
C505 C503 1.433 . S
C505 N508 1.384 . S
C506 H497 0.929 . S
C506 C498 1.378 . S
C506 C501 1.350 . S
C507 H494 0.929 . S
C507 C499 1.433 . S
C507 N509 1.384 . S
N508 C504 1.427 . S
N508 C505 1.384 . S
N509 C501 1.427 . S
N509 C507 1.384 . S
H510 C516 0.930 . S
H511 C520 0.930 . S
H512 C525 0.929 . S
H513 C523 0.929 . S
H514 C518 0.929 . S
H515 C524 0.929 . S
C516 H510 0.930 . S
C516 C517 1.367 1_655 S
C516 C524 1.378 . S
C517 C516 1.367 1_455 S
C517 C525 1.433 . S
C518 H514 0.929 . S
C518 C520 1.378 . S
C518 C522 1.350 1_455 S
C519 C522 1.463 1_455 S
C519 C524 1.350 1_455 S
C519 N527 1.427 . S
C520 H511 0.930 . S
C520 C518 1.378 . S
C520 C521 1.367 1_455 S
C521 C520 1.367 1_655 S
C521 C523 1.433 . S
C522 C518 1.350 1_655 S
C522 C519 1.463 1_655 S
C522 N526 1.427 . S
C523 H513 0.929 . S
C523 C521 1.433 . S
C523 N526 1.384 . S
C524 H515 0.929 . S
C524 C516 1.378 . S
C524 C519 1.350 1_655 S
C525 H512 0.929 . S
C525 C517 1.433 . S
C525 N527 1.384 . S
N526 C522 1.427 . S
N526 C523 1.384 . S
N527 C519 1.427 . S
N527 C525 1.384 . S
H528 C534 0.930 . S
H529 C538 0.930 . S
H530 C543 0.929 . S
H531 C541 0.929 . S
H532 C536 0.929 . S
H533 C542 0.929 . S
C534 H528 0.930 . S
C534 C535 1.367 . S
C534 C542 1.378 . S
C535 C534 1.367 . S
C535 C543 1.433 . S
C536 H532 0.929 . S
C536 C538 1.378 . S
C536 C540 1.350 . S
C537 C540 1.463 1_565 S
C537 C542 1.350 . S
C537 N545 1.427 . S
C538 H529 0.930 . S
C538 C536 1.378 . S
C538 C539 1.367 . S
C539 C538 1.367 . S
C539 C541 1.433 . S
C540 C536 1.350 . S
C540 C537 1.463 1_545 S
C540 N544 1.427 . S
C541 H531 0.929 . S
C541 C539 1.433 . S
C541 N544 1.384 . S
C542 H533 0.929 . S
C542 C534 1.378 . S
C542 C537 1.350 . S
C543 H530 0.929 . S
C543 C535 1.433 . S
C543 N545 1.384 . S
N544 C540 1.427 . S
N544 C541 1.384 . S
N545 C537 1.427 . S
N545 C543 1.384 . S
H546 C552 0.930 . S
H547 C556 0.930 . S
H548 C561 0.929 . S
H549 C559 0.929 . S
H550 C554 0.929 . S
H551 C560 0.929 . S
C552 H546 0.930 . S
C552 C553 1.367 . S
C552 C560 1.378 . S
C553 C552 1.367 . S
C553 C561 1.433 . S
C554 H550 0.929 . S
C554 C556 1.378 . S
C554 C558 1.350 . S
C555 C558 1.463 . S
C555 C560 1.350 . S
C555 N563 1.427 . S
C556 H547 0.930 . S
C556 C554 1.378 . S
C556 C557 1.367 . S
C557 C556 1.367 . S
C557 C559 1.433 . S
C558 C554 1.350 . S
C558 C555 1.463 . S
C558 N562 1.427 . S
C559 H549 0.929 . S
C559 C557 1.433 . S
C559 N562 1.384 . S
C560 H551 0.929 . S
C560 C552 1.378 . S
C560 C555 1.350 . S
C561 H548 0.929 . S
C561 C553 1.433 . S
C561 N563 1.384 . S
N562 C558 1.427 . S
N562 C559 1.384 . S
N563 C555 1.427 . S
N563 C561 1.384 . S
H564 C570 0.930 1_554 S
H565 C574 0.930 . S
H566 C579 0.929 . S
H567 C577 0.929 1_554 S
H568 C572 0.929 . S
H569 C578 0.929 1_554 S
C570 H564 0.930 1_556 S
C570 C571 1.367 . S
C570 C578 1.378 . S
C571 C570 1.367 . S
C571 C579 1.433 . S
C572 H568 0.929 . S
C572 C574 1.378 . S
C572 C576 1.350 . S
C573 C576 1.463 1_655 S
C573 C578 1.350 . S
C573 N581 1.423 . S
C574 H565 0.930 . S
C574 C572 1.378 . S
C574 C575 1.367 . S
C575 C574 1.367 . S
C575 C577 1.433 . S
C576 C572 1.350 . S
C576 C573 1.463 1_455 S
C576 N580 1.423 . S
C577 H567 0.929 1_556 S
C577 C575 1.433 . S
C577 N580 1.407 . S
C578 H569 0.929 1_556 S
C578 C570 1.378 . S
C578 C573 1.350 . S
C579 H566 0.929 . S
C579 C571 1.433 . S
C579 N581 1.407 . S
N580 C576 1.423 . S
N580 C577 1.407 . S
N581 C573 1.423 . S
N581 C579 1.407 . S
H582 C588 0.930 . S
H583 C592 0.930 . S
H584 C597 0.929 . S
H585 C595 0.929 . S
H586 C590 0.929 . S
H587 C596 0.929 . S
C588 H582 0.930 . S
C588 C589 1.367 . S
C588 C596 1.378 . S
C589 C588 1.367 . S
C589 C597 1.433 . S
C590 H586 0.929 . S
C590 C592 1.378 . S
C590 C594 1.350 . S
C591 C594 1.463 1_545 S
C591 C596 1.350 . S
C591 N599 1.427 . S
C592 H583 0.930 . S
C592 C590 1.378 . S
C592 C593 1.367 . S
C593 C592 1.367 . S
C593 C595 1.433 . S
C594 C590 1.350 . S
C594 C591 1.463 1_565 S
C594 N598 1.427 . S
C595 H585 0.929 . S
C595 C593 1.433 . S
C595 N598 1.384 . S
C596 H587 0.929 . S
C596 C588 1.378 . S
C596 C591 1.350 . S
C597 H584 0.929 . S
C597 C589 1.433 . S
C597 N599 1.384 . S
N598 C594 1.427 . S
N598 C595 1.384 . S
N599 C591 1.427 . S
N599 C597 1.384 . S
C175 C0 1.504 . S
C179 C126 1.509 . S
C193 C14 1.502 . S
C197 C140 1.510 . S
C211 C28 1.503 . S
C215 C154 1.509 . S
C229 C42 1.510 . S
C233 C84 1.503 . S
C247 C98 1.508 . S
C251 C56 1.504 . S
C265 C112 1.509 . S
C269 C70 1.504 . S
C283 C151 1.546 . S
C287 C11 1.543 . S
C301 C25 1.541 . S
C305 C165 1.539 . S
C319 C39 1.541 . S
C323 C95 1.544 . S
C337 C53 1.540 . S
C341 C109 1.543 . S
C355 C67 1.545 . S
C359 C123 1.542 . S
C373 C81 1.545 . S
C377 C137 1.547 . S
C391 C135 0.748 . S
C395 C9 0.755 . S
C409 C23 0.755 . S
C413 C149 0.754 . S
C427 C37 0.756 . S
C431 C163 0.752 . S
C445 C93 0.726 . S
C449 C51 0.725 . S
C463 C65 0.724 . S
C467 C107 0.731 . S
C481 C121 0.740 . S
C485 C79 0.729 . S
C499 C5 1.507 . S
C503 C47 1.508 . S
C517 C61 1.507 . S
C521 C19 1.507 . S
C535 C33 1.509 . S
C539 C75 1.508 . S
C553 C89 1.507 . S
C557 C131 1.507 . S
C571 C103 1.508 . S
C575 C145 1.509 . S
C589 C159 1.509 . S
C593 C117 1.508 . S
