# Generated by pormake.
# Topology smc, (6)-cn, num edge types: 1
# Building blocks:
#     Node 0, Type 0, BuildingBlock: INOVEN_clean_sbu_0, # of connection points: 6
#     Node 1, Type 0, BuildingBlock: INOVEN_clean_sbu_0, # of connection points: 6
#     Node 2, Type 0, BuildingBlock: INOVEN_clean_sbu_0, # of connection points: 6
#     Node 3, Type 0, BuildingBlock: INOVEN_clean_sbu_0, # of connection points: 6
#     Node 4, Type 0, BuildingBlock: INOVEN_clean_sbu_0, # of connection points: 6
#     Node 5, Type 0, BuildingBlock: INOVEN_clean_sbu_0, # of connection points: 6
#     Node 6, Type 0, BuildingBlock: INOVEN_clean_sbu_0, # of connection points: 6
#     Node 7, Type 0, BuildingBlock: INOVEN_clean_sbu_0, # of connection points: 6
#     Node 8, Type 0, BuildingBlock: INOVEN_clean_sbu_0, # of connection points: 6
#     Edge 9, Type (0, 0), BuildingBlock: CIFDUS_clean_linker_0, # of connection points: 2
#     Edge 10, Type (0, 0), BuildingBlock: CIFDUS_clean_linker_0, # of connection points: 2
#     Edge 11, Type (0, 0), BuildingBlock: CIFDUS_clean_linker_0, # of connection points: 2
#     Edge 12, Type (0, 0), BuildingBlock: CIFDUS_clean_linker_0, # of connection points: 2
#     Edge 13, Type (0, 0), BuildingBlock: CIFDUS_clean_linker_0, # of connection points: 2
#     Edge 14, Type (0, 0), BuildingBlock: CIFDUS_clean_linker_0, # of connection points: 2
#     Edge 15, Type (0, 0), BuildingBlock: CIFDUS_clean_linker_0, # of connection points: 2
#     Edge 16, Type (0, 0), BuildingBlock: CIFDUS_clean_linker_0, # of connection points: 2
#     Edge 17, Type (0, 0), BuildingBlock: CIFDUS_clean_linker_0, # of connection points: 2
#     Edge 18, Type (0, 0), BuildingBlock: CIFDUS_clean_linker_0, # of connection points: 2
#     Edge 19, Type (0, 0), BuildingBlock: CIFDUS_clean_linker_0, # of connection points: 2
#     Edge 20, Type (0, 0), BuildingBlock: CIFDUS_clean_linker_0, # of connection points: 2
#     Edge 21, Type (0, 0), BuildingBlock: CIFDUS_clean_linker_0, # of connection points: 2
#     Edge 22, Type (0, 0), BuildingBlock: CIFDUS_clean_linker_0, # of connection points: 2
#     Edge 23, Type (0, 0), BuildingBlock: CIFDUS_clean_linker_0, # of connection points: 2
#     Edge 24, Type (0, 0), BuildingBlock: CIFDUS_clean_linker_0, # of connection points: 2
#     Edge 25, Type (0, 0), BuildingBlock: CIFDUS_clean_linker_0, # of connection points: 2
#     Edge 26, Type (0, 0), BuildingBlock: CIFDUS_clean_linker_0, # of connection points: 2
#     Edge 27, Type (0, 0), BuildingBlock: CIFDUS_clean_linker_0, # of connection points: 2
#     Edge 28, Type (0, 0), BuildingBlock: CIFDUS_clean_linker_0, # of connection points: 2
#     Edge 29, Type (0, 0), BuildingBlock: CIFDUS_clean_linker_0, # of connection points: 2
#     Edge 30, Type (0, 0), BuildingBlock: CIFDUS_clean_linker_0, # of connection points: 2
#     Edge 31, Type (0, 0), BuildingBlock: CIFDUS_clean_linker_0, # of connection points: 2
#     Edge 32, Type (0, 0), BuildingBlock: CIFDUS_clean_linker_0, # of connection points: 2
#     Edge 33, Type (0, 0), BuildingBlock: CIFDUS_clean_linker_0, # of connection points: 2
#     Edge 34, Type (0, 0), BuildingBlock: CIFDUS_clean_linker_0, # of connection points: 2
#     Edge 35, Type (0, 0), BuildingBlock: CIFDUS_clean_linker_0, # of connection points: 2
# Relax obj value: 0.170
# Max RMSD: 0.321
# Mean RMSD: 0.320
data_MOF--net-smc--node1-INOVEN_clean_sbu_0--edge1-CIFDUS_clean_linker_0
_symmetry_space_group_name_H-M    P1
_symmetry_Int_Tables_number       1
_symmetry_cell_setting            triclinic
loop_
_symmetry_equiv_pos_as_xyz
'x, y, z'
_cell_length_a     35.80134
_cell_length_b     35.870728
_cell_length_c     33.607244
_cell_angle_alpha  90.37298
_cell_angle_beta   89.517871
_cell_angle_gamma 119.81462
loop_
_atom_site_label
_atom_site_type_symbol
_atom_site_fract_x
_atom_site_fract_y
_atom_site_fract_z
_atom_type_partial_charge
Gd0 Gd 0.05664 0.49689 1.01849 0.0
Gd1 Gd 1.00201 0.40641 0.03844 0.0
C2 C 0.10444 0.44213 1.02356 0.0
C3 C 0.10984 0.57753 1.00573 0.0
C4 C 0.15192 0.61724 1.00824 0.0
C5 C 0.16532 0.64575 0.97598 0.0
C6 C 0.17558 0.63008 0.04364 0.0
C7 C 0.22236 0.70145 1.01591 0.0
C8 C 0.21058 0.6718 0.0474 0.0
C9 C 0.20019 0.68743 0.97972 0.0
C10 C 1.0102 0.445 0.95551 0.0
C11 C 0.96315 0.47059 0.04268 0.0
C12 C 0.94385 0.32579 0.0344 0.0
C13 C 0.89583 0.30318 0.0377 0.0
C14 C 0.87472 0.28477 0.0738 0.0
C15 C 0.87046 0.30012 1.0045 0.0
C16 C 0.80459 0.26065 0.04343 0.0
C17 C 0.82544 0.27897 1.00734 0.0
C18 C 0.8296 0.26392 0.07668 0.0
C19 C 0.03959 0.45108 0.10663 0.0
O20 O 0.10848 0.48051 1.0207 0.0
O21 O 0.06635 0.40692 0.03025 0.0
O22 O 0.10468 0.54739 0.98061 0.0
O23 O 0.08656 0.56295 0.03817 0.0
O24 O 1.01441 0.48239 0.96269 0.0
O25 O 1.02994 0.43751 0.98195 0.0
O26 O 0.95499 0.43174 0.03224 0.0
O27 O 1.003 0.50066 0.04841 0.0
O28 O 0.96674 0.34299 0.06644 0.0
O29 O 0.96005 0.35071 1.00366 0.0
O30 O 0.99914 0.4227 0.1026 0.0
O31 O 0.05675 0.45877 0.07215 0.0
H32 H 0.14746 0.63644 0.94838 0.0
H33 H 0.16584 0.60865 0.06896 0.0
H34 H 0.22692 0.68144 0.07573 0.0
H35 H 0.20903 0.70902 0.9546 0.0
H36 H 0.89307 0.28631 0.09983 0.0
H37 H 0.88531 0.31384 0.97609 0.0
H38 H 0.80683 0.27675 0.98127 0.0
H39 H 0.81414 0.24954 0.1047 0.0
Gd40 Gd 0.56137 0.57404 1.01758 0.0
Gd41 Gd 0.65481 0.61289 0.03913 0.0
C42 C 0.61262 0.67058 1.00715 0.0
C43 C 0.48209 0.5553 0.02723 0.0
C44 C 0.44195 0.55541 1.01723 0.0
C45 C 0.42034 0.5381 0.98133 0.0
C46 C 0.42144 0.56662 0.04698 0.0
C47 C 0.35607 0.53745 1.0074 0.0
C48 C 0.37895 0.55774 0.04217 0.0
C49 C 0.37792 0.52937 0.97642 0.0
C50 C 0.60835 0.57593 0.95036 0.0
C51 C 0.59222 0.50972 0.043 0.0
C52 C 0.73684 0.6423 0.04302 0.0
C53 C 0.76233 0.61974 0.04221 0.0
C54 C 0.79159 0.62715 0.0729 0.0
C55 C 0.75711 0.58993 1.01208 0.0
C56 C 0.81244 0.57834 0.04201 0.0
C57 C 0.78196 0.56943 1.01201 0.0
C58 C 0.81644 0.60689 0.07271 0.0
C59 C 0.60679 0.60392 0.10402 0.0
O60 O 0.58788 0.63576 0.98728 0.0
O61 O 0.64267 0.67104 0.03107 0.0
O62 O 0.49352 0.5315 1.00638 0.0
O63 O 0.51456 0.58992 0.04223 0.0
O64 O 0.56669 0.56026 0.95053 0.0
O65 O 0.6201 0.58708 0.98558 0.0
O66 O 0.63188 0.54101 0.03508 0.0
O67 O 0.55989 0.5171 0.04499 0.0
O68 O 0.71276 0.63576 0.07453 0.0
O69 O 0.7175 0.64247 1.01026 0.0
O70 O 0.63144 0.5871 0.09978 0.0
O71 O 0.60174 0.61615 0.0699 0.0
H72 H 0.4353 0.52914 0.95787 0.0
H73 H 0.43744 0.58005 0.07499 0.0
H74 H 0.36352 0.56531 0.06627 0.0
H75 H 0.3614 0.51374 0.94923 0.0
H76 H 0.79572 0.64922 0.09685 0.0
H77 H 0.73429 0.58289 0.98829 0.0
H78 H 0.77849 0.54787 0.9878 0.0
H79 H 0.83967 0.61428 0.09619 0.0
Gd80 Gd 0.48455 1.00104 1.01343 0.0
Gd81 Gd 0.44875 0.05493 0.03301 0.0
C82 C 0.38522 0.95339 0.0289 0.0
C83 C 0.50732 0.94491 0.99388 0.0
C84 C 0.50957 0.90605 1.00387 0.0
C85 C 0.51688 0.88412 0.97282 0.0
C86 C 0.51143 0.89456 0.04344 0.0
C87 C 0.53378 0.84398 1.02044 0.0
C88 C 0.52368 0.86378 0.05167 0.0
C89 C 0.52867 0.85322 0.981 0.0
C90 C 0.47509 0.045 0.95073 0.0
C91 C 0.55177 0.0897 0.04168 0.0
C92 C 0.43051 0.11583 1.02319 0.0
C93 C 0.45517 0.16369 0.02612 0.0
C94 C 0.45085 0.18525 0.0595 0.0
C95 C 0.48195 0.18846 0.99457 0.0
C96 C 0.49632 0.2549 0.02798 0.0
C97 C 0.50221 0.23333 0.99554 0.0
C98 C 0.4714 0.2304 0.06052 0.0
C99 C 0.44497 1.01922 0.10417 0.0
O100 O 0.42078 0.95233 0.03498 0.0
O101 O 0.38668 0.99062 1.02188 0.0
O102 O 0.47051 0.94116 0.98348 0.0
O103 O 0.53112 0.97953 1.01473 0.0
O104 O 0.51087 0.04629 0.959 0.0
O105 O 0.44832 0.0236 0.9772 0.0
O106 O 0.52245 0.09994 0.03113 0.0
O107 O 0.54027 0.04945 0.04681 0.0
O108 O 0.42201 0.0938 0.05609 0.0
O109 O 0.44108 0.09849 0.99412 0.0
O110 O 0.43701 0.04994 0.0977 0.0
O111 O 0.45893 1.00951 0.07257 0.0
H112 H 0.51587 0.89263 0.94212 0.0
H113 H 0.50559 0.91089 0.06786 0.0
H114 H 0.52664 0.85647 0.08231 0.0
H115 H 0.53612 0.83822 0.95645 0.0
H116 H 0.43064 0.1672 0.08438 0.0
H117 H 0.48652 0.17325 0.96848 0.0
H118 H 0.5218 0.25122 0.97029 0.0
H119 H 0.46617 0.24598 0.08594 0.0
Gd120 Gd 0.72486 0.82862 0.34268 0.0
Gd121 Gd 0.66998 0.7412 0.36713 0.0
C122 C 0.76627 0.77351 0.33312 0.0
C123 C 0.79036 0.9051 0.33761 0.0
C124 C 0.82853 0.9487 0.33567 0.0
C125 C 0.82877 0.9799 0.31057 0.0
C126 C 0.86247 0.96105 0.36267 0.0
C127 C 0.89288 0.03626 0.34335 0.0
C128 C 0.89445 1.0042 0.36621 0.0
C129 C 0.8604 0.02315 0.31446 0.0
C130 C 0.67054 0.77638 0.28378 0.0
C131 C 0.6374 0.80955 0.37443 0.0
C132 C 0.61523 0.65964 0.36885 0.0
C133 C 0.56737 0.63472 0.37211 0.0
C134 C 0.54805 0.60551 0.40345 0.0
C135 C 0.54052 0.63931 0.34438 0.0
C136 C 0.47633 0.58291 0.37738 0.0
C137 C 0.49544 0.6137 0.34705 0.0
C138 C 0.5032 0.57997 0.40605 0.0
C139 C 0.71432 0.78741 0.43111 0.0
O140 O 0.75528 0.79655 0.31167 0.0
O141 O 0.73785 0.74743 0.36012 0.0
O142 O 0.75581 0.89274 0.31614 0.0
O143 O 0.78956 0.87538 0.36043 0.0
O144 O 0.67865 0.81574 0.2897 0.0
O145 O 0.69166 0.76857 0.30852 0.0
O146 O 0.62514 0.76983 0.36274 0.0
O147 O 0.67826 0.83582 0.38042 0.0
O148 O 0.63617 0.68131 0.40028 0.0
O149 O 0.63161 0.68091 0.33593 0.0
O150 O 0.6727 0.76253 0.43053 0.0
O151 O 0.72872 0.79189 0.39568 0.0
H152 H 0.80312 0.97132 0.28937 0.0
H153 H 0.86337 0.93771 0.38235 0.0
H154 H 0.91961 1.01239 0.38785 0.0
H155 H 0.8576 0.04639 0.29627 0.0
H156 H 0.56775 0.60175 0.42558 0.0
H157 H 0.55428 0.66201 0.32011 0.0
H158 H 0.47568 0.61668 0.32446 0.0
H159 H 0.48946 0.55699 0.43009 0.0
Gd160 Gd 0.22762 0.91143 0.34712 0.0
Gd161 Gd 0.32146 0.94487 0.37288 0.0
C162 C 0.28599 1.00786 0.3415 0.0
C163 C 0.15032 0.89784 0.3505 0.0
C164 C 0.10605 0.89024 0.35317 0.0
C165 C 0.07831 0.87258 0.32066 0.0
C166 C 0.08962 0.89519 0.38973 0.0
C167 C 1.01752 0.8608 0.36222 0.0
C168 C 0.04546 0.88011 0.39436 0.0
C169 C 0.03445 0.8584 0.32504 0.0
C170 C 0.27533 0.91158 0.28194 0.0
C171 C 0.24931 0.84156 0.37731 0.0
C172 C 0.40176 0.96593 0.37299 0.0
C173 C 0.42524 0.94195 0.36886 0.0
C174 C 0.45669 0.94935 0.39723 0.0
C175 C 0.41367 0.90865 0.3409 0.0
C176 C 0.4659 0.89163 0.36944 0.0
C177 C 0.43394 0.88364 0.3412 0.0
C178 C 0.47682 0.92458 0.3975 0.0
C179 C 0.28339 0.9522 0.43865 0.0
O180 O 0.26215 0.97475 0.31957 0.0
O181 O 0.31481 1.00627 0.36538 0.0
O182 O 0.16053 0.8731 0.32967 0.0
O183 O 0.18234 0.93047 0.36863 0.0
O184 O 0.23401 0.89723 0.28128 0.0
O185 O 0.28691 0.92193 0.31763 0.0
O186 O 0.29106 0.87075 0.37463 0.0
O187 O 0.21951 0.85229 0.37364 0.0
O188 O 0.37792 0.9561 0.40494 0.0
O189 O 0.38304 0.97101 0.3418 0.0
O190 O 0.32141 0.95698 0.43691 0.0
O191 O 0.26317 0.93744 0.40552 0.0
H192 H 0.09032 0.86849 0.29222 0.0
H193 H 0.11053 0.90867 0.41523 0.0
H194 H 0.03304 0.88284 0.42307 0.0
H195 H 1.0134 0.84395 0.29977 0.0
H196 H 0.46521 0.97397 0.41978 0.0
H197 H 0.38875 0.90165 0.31926 0.0
H198 H 0.42513 0.85854 0.31913 0.0
H199 H 0.50094 0.93108 0.41989 0.0
Gd200 Gd 0.14871 0.33305 0.35076 0.0
Gd201 Gd 0.11515 0.39072 0.36668 0.0
C202 C 0.05132 0.28863 0.35824 0.0
C203 C 0.18483 0.28603 0.34288 0.0
C204 C 0.18555 0.24567 0.34945 0.0
C205 C 0.19508 0.2271 0.31683 0.0
C206 C 0.18366 0.22922 0.38776 0.0
C207 C 0.20747 0.18114 0.36111 0.0
C208 C 0.19475 0.19721 0.39355 0.0
C209 C 0.20572 0.19496 0.32257 0.0
C210 C 0.12794 0.36236 0.28385 0.0
C211 C 0.21876 0.43034 0.37177 0.0
C212 C 0.09436 0.44999 0.35975 0.0
C213 C 0.11989 0.4977 0.36017 0.0
C214 C 0.11199 0.52007 0.39046 0.0
C215 C 0.15367 0.52119 0.33303 0.0
C216 C 0.16958 0.58872 0.36558 0.0
C217 C 0.17818 0.56625 0.33565 0.0
C218 C 0.13657 0.56479 0.39328 0.0
C219 C 0.10359 0.35119 0.43746 0.0
O220 O 0.08411 0.28633 0.37218 0.0
O221 O 0.05643 0.32645 0.34681 0.0
O222 O 0.15775 0.28606 0.31716 0.0
O223 O 0.19212 0.31219 0.37286 0.0
O224 O 0.11851 0.32309 0.29 0.0
O225 O 0.14815 0.38474 0.31384 0.0
O226 O 0.18655 0.43824 0.37529 0.0
O227 O 0.21166 0.39173 0.36289 0.0
O228 O 0.0938 0.43193 0.39336 0.0
O229 O 0.09776 0.42912 0.32914 0.0
O230 O 0.09705 0.38253 0.43019 0.0
O231 O 0.11976 0.34212 0.40716 0.0
H232 H 0.19682 0.23925 0.28703 0.0
H233 H 0.17588 0.24259 0.41338 0.0
H234 H 0.19504 0.18621 0.42342 0.0
H235 H 0.2151 0.18272 0.29711 0.0
H236 H 0.08686 0.5028 0.41234 0.0
H237 H 0.16121 0.50486 0.30983 0.0
H238 H 0.20324 0.58351 0.31376 0.0
H239 H 0.12963 0.58064 0.4174 0.0
Gd240 Gd 0.39186 0.16203 0.68605 0.0
Gd241 Gd 0.33248 0.06786 0.70597 0.0
C242 C 0.43459 0.10439 0.68035 0.0
C243 C 0.44674 0.24291 0.69429 0.0
C244 C 0.48842 0.28202 0.68662 0.0
C245 C 0.50083 0.30003 0.64844 0.0
C246 C 0.5119 0.30601 0.71959 0.0
C247 C 0.55362 0.36864 0.67762 0.0
C248 C 0.54388 0.34879 0.71527 0.0
C249 C 0.53347 0.34295 0.64397 0.0
C250 C 0.35022 0.11661 0.61763 0.0
C251 C 0.29544 0.13287 0.70919 0.0
C252 C 0.27829 0.98636 0.70914 0.0
C253 C 0.23046 0.96168 0.71078 0.0
C254 C 0.20969 0.93394 0.74282 0.0
C255 C 0.20512 0.96667 0.68177 0.0
C256 C 0.13905 0.91622 0.7169 0.0
C257 C 0.16002 0.94416 0.68476 0.0
C258 C 0.16468 0.9115 0.74584 0.0
C259 C 0.37106 0.11393 0.77166 0.0
O260 O 0.43713 0.14065 0.66956 0.0
O261 O 0.39879 0.07209 0.69644 0.0
O262 O 0.41761 0.2277 0.66633 0.0
O263 O 0.44541 0.21346 0.71797 0.0
O264 O 0.37788 0.15753 0.61814 0.0
O265 O 0.34718 0.1044 0.65291 0.0
O266 O 0.28575 0.09303 0.70061 0.0
O267 O 0.33547 0.16385 0.71249 0.0
O268 O 0.29748 1.00933 0.74062 0.0
O269 O 0.29612 1.00651 0.67601 0.0
O270 O 0.32967 0.09238 0.76637 0.0
O271 O 0.38899 0.11886 0.73764 0.0
H272 H 0.48361 0.28195 0.62237 0.0
H273 H 0.50301 0.29282 0.74933 0.0
H274 H 0.55819 0.36693 0.74214 0.0
H275 H 0.54123 0.35655 0.61436 0.0
H276 H 0.22836 0.92969 0.76572 0.0
H277 H 0.22007 0.98828 0.65691 0.0
H278 H 0.14164 0.94927 0.66218 0.0
H279 H 0.15 0.88995 0.77076 0.0
Gd280 Gd 0.89206 0.24037 0.68608 0.0
Gd281 Gd 0.98272 0.27566 0.70339 0.0
C282 C 0.94471 0.34028 0.69762 0.0
C283 C 0.81242 0.21631 0.6713 0.0
C284 C 0.77219 0.21795 0.67431 0.0
C285 C 0.74945 0.21201 0.63908 0.0
C286 C 0.75324 0.21931 0.71078 0.0
C287 C 0.68756 0.20486 0.67618 0.0
C288 C 0.7111 0.2129 0.71169 0.0
C289 C 0.70779 0.2054 0.63994 0.0
C290 C 0.94389 0.24776 0.62201 0.0
C291 C 0.91424 0.173 0.71527 0.0
C292 C 0.0615 0.29304 0.69148 0.0
C293 C 0.08546 0.26915 0.69464 0.0
C294 C 0.11234 0.27505 0.72721 0.0
C295 C 0.08329 0.24163 0.66358 0.0
C296 C 0.13695 0.22944 0.69573 0.0
C297 C 0.10854 0.22202 0.6642 0.0
C298 C 0.1377 0.25519 0.72785 0.0
C299 C 0.9521 0.28214 0.77427 0.0
O300 O 0.90781 0.30517 0.70308 0.0
O301 O 0.9807 0.3383 0.69194 0.0
O302 O 0.8444 0.24503 0.65001 0.0
O303 O 0.82438 0.20149 0.70107 0.0
O304 O 0.9084 0.21298 0.6306 0.0
O305 O 0.95072 0.27498 0.6486 0.0
O306 O 0.95411 0.20169 0.70466 0.0
O307 O 0.88535 0.18474 0.71831 0.0
O308 O 0.04919 0.30387 0.72415 0.0
O309 O 0.03211 0.2795 0.66409 0.0
O310 O 0.99055 0.28924 0.76747 0.0
O311 O 0.92789 0.26726 0.74352 0.0
H312 H 0.76312 0.21016 0.61073 0.0
H313 H 0.77028 0.22382 0.73846 0.0
H314 H 0.69666 0.21319 0.74005 0.0
H315 H 0.69066 0.19838 0.61203 0.0
H316 H 0.11467 0.29593 0.75164 0.0
H317 H 0.06286 0.23597 0.63803 0.0
H318 H 0.10655 0.20171 0.63937 0.0
H319 H 0.15927 0.26151 0.75258 0.0
Gd320 Gd 0.81642 0.66952 0.68061 0.0
Gd321 Gd 0.77855 0.72109 0.70381 0.0
C322 C 0.71664 0.6178 0.69878 0.0
C323 C 0.84488 0.61718 0.66466 0.0
C324 C 0.84351 0.57565 0.66877 0.0
C325 C 0.86215 0.5633 0.63832 0.0
C326 C 0.83022 0.55167 0.70411 0.0
C327 C 0.85897 0.50662 0.67981 0.0
C328 C 0.83759 0.5171 0.70944 0.0
C329 C 0.87002 0.52927 0.64381 0.0
C330 C 0.79522 0.70647 0.61936 0.0
C331 C 0.8837 0.76281 0.70188 0.0
C332 C 0.75989 0.78137 0.69346 0.0
C333 C 0.78646 0.82907 0.69764 0.0
C334 C 0.78002 0.85052 0.72975 0.0
C335 C 0.81871 0.85376 0.6694 0.0
C336 C 0.83592 0.92024 0.70432 0.0
C337 C 0.84305 0.89861 0.67272 0.0
C338 C 0.80449 0.89542 0.73313 0.0
C339 C 0.78164 0.68949 0.77432 0.0
O340 O 0.75248 0.6166 0.69537 0.0
O341 O 0.7163 0.65495 0.69966 0.0
O342 O 0.81655 0.61993 0.64251 0.0
O343 O 0.85668 0.64268 0.69557 0.0
O344 O 0.83279 0.7096 0.62227 0.0
O345 O 0.77374 0.68687 0.6493 0.0
O346 O 0.85095 0.76968 0.69811 0.0
O347 O 0.87731 0.7239 0.70183 0.0
O348 O 0.749 0.75802 0.72583 0.0
O349 O 0.77127 0.76447 0.66473 0.0
O350 O 0.77701 0.72248 0.76879 0.0
O351 O 0.7924 0.67708 0.74203 0.0
H352 H 0.8726 0.58141 0.61085 0.0
H353 H 0.81582 0.56068 0.72808 0.0
H354 H 0.82835 0.49981 0.73738 0.0
H355 H 0.88554 0.52119 0.62017 0.0
H356 H 0.75584 0.83259 0.75218 0.0
H357 H 0.82494 0.83858 0.64424 0.0
H358 H 0.86655 0.91639 0.64975 0.0
H359 H 0.79856 0.9107 0.75837 0.0
H360 H 0.29444 0.49862 0.06542 0.0
H361 H 0.31103 0.53925 0.94275 0.0
H362 H 0.23315 0.505 0.93521 0.0
H363 H 0.16048 0.46536 0.9636 0.0
H364 H 0.14292 0.42877 0.08691 0.0
H365 H 0.22091 0.45884 0.09406 0.0
C366 C 0.28109 0.50038 0.03712 0.0
C367 C 0.3088 0.52114 1.00452 0.0
C368 C 0.23603 0.48029 0.03288 0.0
C369 C 0.29066 0.52291 0.96812 0.0
C370 C 0.24606 0.50322 0.96374 0.0
C371 C 0.17366 0.46215 0.9915 0.0
C372 C 0.14586 0.44285 1.02413 0.0
C373 C 0.21848 0.48136 0.99571 0.0
C374 C 0.16341 0.44113 0.06081 0.0
C375 C 0.20811 0.4594 0.0651 0.0
H376 H 0.49854 0.75978 1.00356 0.0
H377 H 0.61197 0.86662 0.05275 0.0
H378 H 0.64785 0.82331 0.05489 0.0
H379 H 0.64815 0.75493 0.03806 0.0
H380 H 0.53185 0.65092 0.98692 0.0
H381 H 0.49671 0.69225 0.99149 0.0
C382 C 0.53086 0.77326 1.01537 0.0
C383 C 0.55258 0.81604 0.02808 0.0
C384 C 0.55129 0.74851 1.01601 0.0
C385 C 0.59449 0.83337 0.04321 0.0
C386 C 0.61512 0.80871 0.04411 0.0
C387 C 0.61533 0.74153 0.02779 0.0
C388 C 0.59394 0.69981 1.01131 0.0
C389 C 0.59419 0.76624 0.02973 0.0
C390 C 0.55065 0.68305 0.99896 0.0
C391 C 0.52972 0.70666 1.00161 0.0
H392 H 0.37569 0.88248 0.06384 0.0
H393 H 0.30674 0.92719 0.99175 0.0
H394 H 0.24958 0.85213 0.98117 0.0
H395 H 0.22217 0.77374 0.98965 0.0
H396 H 0.29856 0.7324 0.05505 0.0
H397 H 0.35121 0.80688 0.06959 0.0
C398 C 0.34815 0.87619 0.04579 0.0
C399 C 0.34559 0.91059 0.02848 0.0
C400 C 0.31738 0.83353 0.03797 0.0
C401 C 0.30926 0.90148 1.00584 0.0
C402 C 0.27703 0.85854 0.99931 0.0
C403 C 0.25058 0.78104 1.00672 0.0
C404 C 0.25602 0.74726 1.0217 0.0
C405 C 0.2813 0.82428 1.01455 0.0
C406 C 0.29295 0.75747 0.04393 0.0
C407 C 0.32312 0.80008 0.05223 0.0
H408 H 0.53956 0.31747 0.08498 0.0
H409 H 0.48962 0.2987 0.96565 0.0
H410 H 0.5162 0.37545 0.95941 0.0
H411 H 0.55299 0.44832 0.98761 0.0
H412 H 0.60461 0.46922 0.10596 0.0
H413 H 0.57814 0.39177 0.11304 0.0
C414 C 0.53455 0.33028 0.05768 0.0
C415 C 0.51294 0.30222 1.02566 0.0
C416 C 0.55052 0.375 0.05402 0.0
C417 C 0.50674 0.31947 0.99049 0.0
C418 C 0.52181 0.36343 0.98691 0.0
C419 C 0.55916 0.4359 1.01462 0.0
C420 C 0.58174 0.46437 0.0458 0.0
C421 C 0.54392 0.39154 1.01831 0.0
C422 C 0.58845 0.44794 0.08114 0.0
C423 C 0.57294 0.40364 0.08527 0.0
H424 H 0.60197 0.17287 0.07048 0.0
H425 H 0.60726 0.07358 1.00176 0.0
H426 H 0.68489 0.11789 0.99482 0.0
H427 H 0.75231 0.18374 1.00983 0.0
H428 H 0.75019 0.28206 0.08212 0.0
H429 H 0.67111 0.23995 0.08608 0.0
C430 C 0.62022 0.1613 0.05378 0.0
C431 C 0.59873 0.1199 0.03676 0.0
C432 C 0.66567 0.18678 0.05067 0.0
C433 C 0.62293 0.10515 1.01545 0.0
C434 C 0.66744 0.13049 1.01137 0.0
C435 C 0.73439 0.1959 0.02631 0.0
C436 C 0.75679 0.2358 0.0456 0.0
C437 C 0.68925 0.17112 0.02915 0.0
C438 C 0.73344 0.25125 0.06714 0.0
C439 C 0.68827 0.22719 0.06933 0.0
H440 H 0.97301 0.55022 0.03476 0.0
H441 H 0.87547 0.41784 0.05178 0.0
H442 H 0.81953 0.43855 0.052 0.0
H443 H 0.79842 0.4954 0.04769 0.0
H444 H 0.89762 0.62698 0.03001 0.0
H445 H 0.95249 0.60549 0.02885 0.0
C446 C 0.93954 0.52577 0.03876 0.0
C447 C 0.92861 0.48248 0.04361 0.0
C448 C 0.90766 0.53786 0.03827 0.0
C449 C 0.8849 0.45136 0.04805 0.0
C450 C 0.85287 0.46324 0.04812 0.0
C451 C 0.83206 0.51914 0.04338 0.0
C452 C 0.84408 0.56286 0.03915 0.0
C453 C 0.86381 0.50648 0.0432 0.0
C454 C 0.88772 0.59331 0.03364 0.0
C455 C 0.9191 0.58102 0.03303 0.0
H456 H 0.81457 0.74869 0.38017 0.0
H457 H 0.8266 0.84273 0.29306 0.0
H458 H 0.9029 0.88082 0.29992 0.0
H459 H 0.96831 0.88634 0.32537 0.0
H460 H 0.96208 0.79289 0.40858 0.0
H461 H 0.88285 0.75595 0.40796 0.0
C462 C 0.83398 0.7769 0.36217 0.0
C463 C 0.81383 0.79158 0.33565 0.0
C464 C 0.87953 0.79915 0.36521 0.0
C465 C 0.84008 0.82927 0.31335 0.0
C466 C 0.88436 0.85181 0.31724 0.0
C467 C 0.94948 0.85814 0.34368 0.0
C468 C 0.97052 0.8422 0.36686 0.0
C469 C 0.90449 0.83677 0.34238 0.0
C470 C 0.94615 0.8058 0.39069 0.0
C471 C 0.90094 0.78451 0.39004 0.0
H472 H 0.1727 0.09799 0.34023 0.0
H473 H 0.28508 0.20244 0.39335 0.0
H474 H 0.32066 0.15883 0.39438 0.0
H475 H 0.32074 0.09061 0.37634 0.0
H476 H 0.20722 0.99107 0.31738 0.0
H477 H 0.17169 0.03165 0.32428 0.0
C478 C 0.2047 0.11083 0.35263 0.0
C479 C 0.22616 0.15292 0.36705 0.0
C480 C 0.2251 0.08605 0.35236 0.0
C481 C 0.26777 0.16958 0.38269 0.0
C482 C 0.28821 0.14477 0.38298 0.0
C483 C 0.28844 0.07802 0.36492 0.0
C484 C 0.26765 0.03732 0.34642 0.0
C485 C 0.26749 0.1029 0.36722 0.0
C486 C 0.22524 0.02191 0.332 0.0
C487 C 0.20416 0.04525 0.33569 0.0
H488 H 1.0146 0.22306 0.40912 0.0
H489 H 1.00694 0.25817 0.28857 0.0
H490 H 0.95934 0.18193 0.27201 0.0
H491 H 0.9241 0.10534 0.29171 0.0
H492 H 0.92756 0.07375 0.41525 0.0
H493 H 0.97331 0.14913 0.43067 0.0
C494 C 1.00045 0.21467 0.37988 0.0
C495 C 1.01251 0.24668 0.35074 0.0
C496 C 0.97355 0.17122 0.37083 0.0
C497 C 0.99644 0.23442 0.31203 0.0
C498 C 0.96999 0.19075 0.30245 0.0
C499 C 0.93405 0.11473 0.3222 0.0
C500 C 0.92233 0.08302 0.35199 0.0
C501 C 0.95888 0.15879 0.33158 0.0
C502 C 0.93679 0.09655 0.39113 0.0
C503 C 0.96249 0.13997 0.40029 0.0
H504 H 0.29041 0.79321 0.36504 0.0
H505 H 0.16832 0.78217 0.39841 0.0
H506 H 0.13386 0.70507 0.39575 0.0
H507 H 0.13595 0.64004 0.38202 0.0
H508 H 0.25624 0.64616 0.35249 0.0
H509 H 0.29319 0.72501 0.35546 0.0
C510 C 0.25656 0.7739 0.37253 0.0
C511 C 0.23243 0.79428 0.38171 0.0
C512 C 0.23612 0.72829 0.37134 0.0
C513 C 0.18824 0.7682 0.39094 0.0
C514 C 0.16808 0.72366 0.38941 0.0
C515 C 0.17043 0.65837 0.37688 0.0
C516 C 0.19311 0.63687 0.36727 0.0
C517 C 0.19146 0.70336 0.3793 0.0
C518 C 0.23767 0.66168 0.35959 0.0
C519 C 0.25893 0.70687 0.36157 0.0
H520 H 0.28913 0.42125 0.38002 0.0
H521 H 0.25209 0.51834 0.37071 0.0
H522 H 0.32828 0.57453 0.37055 0.0
H523 H 0.40641 0.59592 0.37168 0.0
H524 H 0.44064 0.49682 0.38207 0.0
H525 H 0.3649 0.44188 0.38272 0.0
C526 C 0.29748 0.45469 0.37811 0.0
C527 C 0.26461 0.46536 0.3753 0.0
C528 C 0.34118 0.48665 0.37798 0.0
C529 C 0.2765 0.50904 0.37314 0.0
C530 C 0.32018 0.54122 0.3728 0.0
C531 C 0.39713 0.56228 0.37406 0.0
C532 C 0.42933 0.55058 0.37718 0.0
C533 C 0.35294 0.53042 0.37491 0.0
C534 C 0.4167 0.50682 0.38026 0.0
C535 C 0.3733 0.47529 0.38051 0.0
H536 H 0.55153 0.926 0.36535 0.0
H537 H 0.43438 0.8042 0.37276 0.0
H538 H 0.47633 0.76681 0.37549 0.0
H539 H 0.54779 0.76959 0.37614 0.0
H540 H 0.66321 0.89395 0.36894 0.0
H541 H 0.62067 0.92896 0.36545 0.0
C542 C 0.53518 0.89122 0.36751 0.0
C543 C 0.4901 0.86788 0.36883 0.0
C544 C 0.55934 0.87026 0.3691 0.0
C545 C 0.46919 0.82282 0.3713 0.0
C546 C 0.49319 0.80151 0.37307 0.0
C547 C 0.56346 0.80428 0.37398 0.0
C548 C 0.60883 0.8288 0.37342 0.0
C549 C 0.5385 0.82494 0.37207 0.0
C550 C 0.62851 0.87389 0.37028 0.0
C551 C 0.6042 0.89425 0.36802 0.0
H552 H 0.62265 0.15238 0.7284 0.0
H553 H 0.64757 0.22986 0.62298 0.0
H554 H 0.57091 0.19633 0.61051 0.0
H555 H 0.49755 0.14414 0.62742 0.0
H556 H 0.46867 0.07699 0.73916 0.0
H557 H 0.54611 0.10563 0.75047 0.0
C558 C 0.61127 0.1625 0.70315 0.0
C559 C 0.64112 0.19241 0.67571 0.0
C560 C 0.56655 0.14362 0.69647 0.0
C561 C 0.62557 0.20574 0.64369 0.0
C562 C 0.58168 0.18646 0.63639 0.0
C563 C 0.50806 0.13475 0.65385 0.0
C564 C 0.47723 0.10721 0.68169 0.0
C565 C 0.55209 0.15453 0.66186 0.0
C566 C 0.4915 0.09641 0.7163 0.0
C567 C 0.53586 0.11386 0.72328 0.0
H568 H 0.87513 0.34531 0.71915 0.0
H569 H 1.00473 0.42463 0.67445 0.0
H570 H 0.98963 0.4843 0.66612 0.0
H571 H 0.93693 0.5112 0.66765 0.0
H572 H 0.8064 0.42583 0.70665 0.0
H573 H 0.82419 0.36961 0.719 0.0
C574 C 0.90063 0.37534 0.70721 0.0
C575 C 0.94114 0.38 0.69689 0.0
C576 C 0.89101 0.40791 0.70066 0.0
C577 C 0.97337 0.41994 0.68262 0.0
C578 C 0.96448 0.45381 0.6775 0.0
C579 C 0.9125 0.48019 0.67879 0.0
C580 C 0.8704 0.4727 0.68662 0.0
C581 C 0.92301 0.44774 0.68565 0.0
C582 C 0.83903 0.43256 0.7011 0.0
C583 C 0.84922 0.40048 0.7081 0.0
H584 H 0.64265 0.5714 0.6544 0.0
H585 H 0.71227 0.56587 0.75625 0.0
H586 H 0.67141 0.48872 0.75612 0.0
H587 H 0.62191 0.42244 0.7237 0.0
H588 H 0.54573 0.42343 0.62529 0.0
H589 H 0.58469 0.50193 0.62596 0.0
C590 C 0.64701 0.55326 0.6778 0.0
C591 C 0.67917 0.57496 0.70657 0.0
C592 C 0.62383 0.50774 0.67694 0.0
C593 C 0.68594 0.55056 0.73538 0.0
C594 C 0.66353 0.50606 0.73456 0.0
C595 C 0.61287 0.43946 0.70282 0.0
C596 C 0.58054 0.41648 0.67471 0.0
C597 C 0.63329 0.48433 0.70492 0.0
C598 C 0.57099 0.43987 0.64696 0.0
C599 C 0.59274 0.48497 0.64776 0.0
H600 H 0.80345 0.97135 0.72661 0.0
H601 H 0.92092 0.97819 0.68502 0.0
H602 H 0.95698 0.05691 0.68568 0.0
H603 H 0.95429 0.12486 0.6969 0.0
H604 H 0.83555 0.11362 0.74193 0.0
H605 H 0.80181 0.03652 0.74135 0.0
C606 C 0.83721 0.98982 0.71843 0.0
C607 C 0.85923 0.96844 0.70605 0.0
C608 C 0.85787 0.0349 0.71938 0.0
C609 C 0.90277 0.99349 0.69441 0.0
C610 C 0.92358 0.03868 0.69498 0.0
C611 C 0.92136 0.10553 0.70726 0.0
C612 C 0.89794 0.12582 0.71938 0.0
C613 C 0.90141 0.05996 0.70732 0.0
C614 C 0.85493 0.09972 0.7323 0.0
C615 C 0.83519 0.05517 0.73199 0.0
H616 H 0.93981 0.80815 0.76127 0.0
H617 H 0.92966 0.79193 0.63409 0.0
H618 H 1.00766 0.83835 0.62692 0.0
H619 H 0.07934 0.87993 0.6572 0.0
H620 H 0.08952 0.89761 0.78464 0.0
H621 H 1.01151 0.85437 0.79128 0.0
C622 C 0.95467 0.81599 0.73199 0.0
C623 C 0.92893 0.79786 0.69815 0.0
C624 C 0.99976 0.84242 0.72817 0.0
C625 C 0.9487 0.80674 0.66044 0.0
C626 C 0.99336 0.83288 0.65638 0.0
C627 C 0.06459 0.87506 0.68642 0.0
C628 C 0.09083 0.8919 0.72036 0.0
C629 C 1.01935 0.85051 0.69008 0.0
C630 C 0.07063 0.88443 0.75795 0.0
C631 C 1.02579 0.85991 0.76182 0.0
H632 H 0.27219 0.17023 0.65319 0.0
H633 H 0.2461 0.12533 0.77412 0.0
H634 H 0.19559 0.15267 0.78176 0.0
H635 H 0.15858 0.18942 0.75333 0.0
H636 H 0.18539 0.23337 0.63173 0.0
H637 H 0.23539 0.20622 0.62488 0.0
C638 C 0.25473 0.16579 0.68093 0.0
C639 C 0.26162 0.14478 0.7127 0.0
C640 C 0.22595 0.18157 0.68495 0.0
C641 C 0.24011 0.14032 0.74896 0.0
C642 C 0.21158 0.15627 0.75337 0.0
C643 C 0.17549 0.19309 0.72543 0.0
C644 C 0.16785 0.21305 0.69297 0.0
C645 C 0.20418 0.17696 0.72152 0.0
C646 C 0.19002 0.2175 0.65697 0.0
C647 C 0.21881 0.20212 0.65303 0.0
H648 H 0.14087 0.44371 0.26109 0.0
H649 H 0.08141 0.31128 0.22325 0.0
H650 H 0.05131 0.32719 0.16568 0.0
H651 H 0.03731 0.37687 0.12715 0.0
H652 H 0.09509 0.50953 0.16245 0.0
H653 H 0.12951 0.49551 0.2193 0.0
C654 C 0.12105 0.41831 0.24046 0.0
C655 C 0.11282 0.37589 0.24762 0.0
C656 C 0.10294 0.42765 0.20676 0.0
C657 C 0.08805 0.34399 0.21941 0.0
C658 C 0.0706 0.35304 0.18618 0.0
C659 C 0.05733 0.40282 0.14733 0.0
C660 C 0.06269 0.44412 0.14075 0.0
C661 C 0.07703 0.39444 0.17986 0.0
C662 C 0.08975 0.47736 0.16685 0.0
C663 C 0.1095 0.46925 0.19946 0.0
H664 H 0.67791 0.70769 0.26423 0.0
H665 H 0.62303 0.78236 0.22033 0.0
H666 H 0.59584 0.73479 0.16139 0.0
H667 H 0.59001 0.67175 0.12102 0.0
H668 H 0.64326 0.5978 0.17173 0.0
H669 H 0.66901 0.64556 0.22827 0.0
C670 C 0.65968 0.71372 0.2421 0.0
C671 C 0.65259 0.74881 0.24714 0.0
C672 C 0.64393 0.68615 0.20892 0.0
C673 C 0.62925 0.75585 0.21746 0.0
C674 C 0.6136 0.72844 0.18372 0.0
C675 C 0.60631 0.66551 0.14489 0.0
C676 C 0.61427 0.63046 0.1414 0.0
C677 C 0.62082 0.69327 0.17893 0.0
C678 C 0.63611 0.6238 0.17288 0.0
C679 C 0.6512 0.65139 0.20556 0.0
H680 H 0.36276 0.95262 0.10989 0.0
H681 H 0.47686 0.02812 0.17905 0.0
H682 H 0.43493 1.00005 0.24058 0.0
H683 H 0.36413 0.96044 0.27444 0.0
H684 H 0.24973 0.88654 0.20543 0.0
H685 H 0.29296 0.90739 0.1443 0.0
C686 C 0.37894 0.96126 0.13833 0.0
C687 C 0.42368 0.99108 0.13948 0.0
C688 C 0.35408 0.946 0.17378 0.0
C689 C 0.44317 1.00389 0.17699 0.0
C690 C 0.41889 0.98836 0.21229 0.0
C691 C 0.34872 0.94787 0.24644 0.0
C692 C 0.30348 0.92136 0.24532 0.0
C693 C 0.37407 0.96026 0.21112 0.0
C694 C 0.28432 0.90672 0.20777 0.0
C695 C 0.30916 0.91871 0.17259 0.0
H696 H 0.39677 0.02131 0.9209 0.0
H697 H 0.53089 0.11157 0.90103 0.0
H698 H 0.51203 0.14261 0.84459 0.0
H699 H 0.45559 0.14303 0.79957 0.0
H700 H 0.32194 0.05138 0.82464 0.0
H701 H 0.34262 0.02195 0.8785 0.0
C702 C 0.42203 0.04781 0.90428 0.0
C703 C 0.46519 0.06391 0.91535 0.0
C704 C 0.41092 0.06537 0.87208 0.0
C705 C 0.49736 0.09816 0.89309 0.0
C706 C 0.48648 0.11604 0.86081 0.0
C707 C 0.43101 0.11712 0.81722 0.0
C708 C 0.38692 0.10041 0.8075 0.0
C709 C 0.44311 0.09992 0.84982 0.0
C710 C 0.356 0.06613 0.83089 0.0
C711 C 0.36773 0.04874 0.86208 0.0
H712 H 0.99442 0.36351 0.94151 0.0
H713 H 0.99362 0.46914 0.88255 0.0
H714 H 0.97016 0.42646 0.82077 0.0
H715 H 0.95248 0.35869 0.7833 0.0
H716 H 0.94225 0.25074 0.84811 0.0
H717 H 0.96238 0.29298 0.90938 0.0
C718 C 0.98624 0.3765 0.91637 0.0
C719 C 0.99382 0.41901 0.91788 0.0
C720 C 0.96947 0.35067 0.8821 0.0
C721 C 0.98711 0.43625 0.88291 0.0
C722 C 0.97349 0.41169 0.84752 0.0
C723 C 0.95232 0.34368 0.81121 0.0
C724 C 0.94453 0.30081 0.81109 0.0
C725 C 0.96428 0.36858 0.84678 0.0
C726 C 0.94667 0.28289 0.8474 0.0
C727 C 0.95915 0.30744 0.88236 0.0
H728 H 0.70125 0.61916 0.78081 0.0
H729 H 0.80918 0.70758 0.85073 0.0
H730 H 0.76538 0.68078 0.91131 0.0
H731 H 0.69415 0.63636 0.94342 0.0
H732 H 0.58776 0.54288 0.87452 0.0
H733 H 0.63339 0.56537 0.81454 0.0
C734 C 0.71653 0.62963 0.80932 0.0
C735 C 0.76008 0.66298 0.81077 0.0
C736 C 0.69085 0.61355 0.84432 0.0
C737 C 0.77692 0.68031 0.84843 0.0
C738 C 0.75149 0.66536 0.88318 0.0
C739 C 0.6813 0.61965 0.91585 0.0
C740 C 0.63742 0.58737 0.9142 0.0
C741 C 0.70814 0.63246 0.88147 0.0
C742 C 0.62113 0.56782 0.87709 0.0
C743 C 0.64738 0.58072 0.84267 0.0
H744 H 0.68501 0.75516 0.50563 0.0
H745 H 0.79887 0.8055 0.43207 0.0
H746 H 0.83469 0.78523 0.4824 0.0
H747 H 0.83284 0.75027 0.5478 0.0
H748 H 0.71576 0.69685 0.61752 0.0
H749 H 0.68309 0.72142 0.56918 0.0
C750 C 0.71796 0.76251 0.50077 0.0
C751 C 0.73901 0.78234 0.46488 0.0
C752 C 0.73815 0.7499 0.52957 0.0
C753 C 0.7817 0.79085 0.45939 0.0
C754 C 0.80222 0.77888 0.4882 0.0
C755 C 0.80026 0.74412 0.55237 0.0
C756 C 0.77732 0.72205 0.58704 0.0
C757 C 0.78066 0.75785 0.52344 0.0
C758 C 0.73475 0.714 0.59172 0.0
C759 C 0.71576 0.72812 0.56391 0.0
H760 H 0.2852 0.02906 0.44715 0.0
H761 H 0.26714 0.91824 0.51202 0.0
H762 H 0.28688 0.95957 0.57384 0.0
H763 H 0.31904 0.02989 0.60806 0.0
H764 H 0.33764 0.14141 0.5443 0.0
H765 H 0.30858 0.09784 0.48386 0.0
C766 C 0.28293 1.01323 0.47517 0.0
C767 C 0.27252 0.96959 0.47471 0.0
C768 C 0.29605 0.03802 0.51087 0.0
C769 C 0.27267 0.95081 0.51137 0.0
C770 C 0.28514 0.97491 0.54678 0.0
C771 C 0.31534 0.04442 0.5815 0.0
C772 C 0.33008 0.08899 0.58136 0.0
C773 C 0.29824 1.0189 0.54676 0.0
C774 C 0.32679 0.10736 0.54559 0.0
C775 C 0.30992 0.0823 0.51093 0.0
H776 H 1.02445 0.31541 0.6072 0.0
H777 H 0.92247 0.20282 0.55106 0.0
H778 H 0.9646 0.22163 0.48883 0.0
H779 H 1.02876 0.27545 0.44948 0.0
H780 H 0.13531 0.37795 0.51088 0.0
H781 H 0.09424 0.3566 0.5731 0.0
C782 C 1.01212 0.29334 0.58233 0.0
C783 C 0.97051 0.25691 0.58466 0.0
C784 C 0.03784 0.30245 0.54771 0.0
C785 C 0.95443 0.23075 0.5506 0.0
C786 C 0.97867 0.24148 0.51496 0.0
C787 C 0.04436 0.29066 0.4769 0.0
C788 C 0.08629 0.3269 0.47541 0.0
C789 C 1.02049 0.27749 0.51308 0.0
C790 C 0.10404 0.34906 0.51113 0.0
C791 C 0.08013 0.3373 0.54668 0.0
loop_
_geom_bond_atom_site_label_1
_geom_bond_atom_site_label_2
_geom_bond_distance
_geom_bond_site_symmetry_2
_ccdc_geom_bond_type
Gd0 C3 2.818 . S
Gd0 O20 2.377 . S
Gd0 O22 2.448 . S
Gd0 O23 2.506 1_556 S
Gd0 O24 2.435 . S
Gd0 O25 2.717 1_455 S
Gd0 O27 2.396 1_455 S
Gd0 O31 2.327 1_556 S
Gd1 C12 2.818 . S
Gd1 O21 2.395 1_655 S
Gd1 O25 2.327 1_554 S
Gd1 O26 2.377 . S
Gd1 O28 2.448 . S
Gd1 O29 2.506 1_554 S
Gd1 O30 2.435 . S
Gd1 O31 2.717 1_655 S
C2 O20 1.240 . S
C2 O21 1.240 1_556 S
C3 Gd0 2.818 . S
C3 C4 1.510 . S
C3 O22 1.249 . S
C3 O23 1.252 1_556 S
C4 C3 1.510 . S
C4 C5 1.404 . S
C4 C6 1.352 1_556 S
C5 C4 1.404 . S
C5 C9 1.389 . S
C5 H32 0.930 . S
C6 C4 1.352 1_554 S
C6 C8 1.374 . S
C6 H33 0.931 . S
C7 C8 1.359 1_556 S
C7 C9 1.364 . S
C8 C6 1.374 . S
C8 C7 1.359 1_554 S
C8 H34 0.931 . S
C9 C5 1.389 . S
C9 C7 1.364 . S
C9 H35 0.931 . S
C10 O24 1.256 1_655 S
C10 O25 1.257 . S
C11 O26 1.240 . S
C11 O27 1.239 1_554 S
C12 Gd1 2.818 . S
C12 C13 1.510 . S
C12 O28 1.249 . S
C12 O29 1.252 1_554 S
C13 C12 1.510 . S
C13 C14 1.404 . S
C13 C15 1.352 1_554 S
C14 C13 1.404 . S
C14 C18 1.389 . S
C14 H36 0.930 . S
C15 C13 1.352 1_556 S
C15 C17 1.374 . S
C15 H37 0.931 . S
C16 C17 1.359 1_554 S
C16 C18 1.364 . S
C17 C15 1.374 . S
C17 C16 1.359 1_556 S
C17 H38 0.931 . S
C18 C14 1.389 . S
C18 C16 1.364 . S
C18 H39 0.931 . S
C19 O30 1.256 1_455 S
C19 O31 1.257 . S
O20 Gd0 2.377 . S
O20 C2 1.240 . S
O21 Gd1 2.395 1_455 S
O21 C2 1.240 1_554 S
O22 Gd0 2.448 . S
O22 C3 1.249 . S
O23 Gd0 2.506 1_554 S
O23 C3 1.252 1_554 S
O24 Gd0 2.435 . S
O24 C10 1.256 1_455 S
O25 Gd0 2.717 1_655 S
O25 Gd1 2.327 1_556 S
O25 C10 1.257 . S
O26 Gd1 2.377 . S
O26 C11 1.240 . S
O27 Gd0 2.396 1_655 S
O27 C11 1.239 1_556 S
O28 Gd1 2.448 . S
O28 C12 1.249 . S
O29 Gd1 2.506 1_556 S
O29 C12 1.252 1_556 S
O30 Gd1 2.435 . S
O30 C19 1.256 1_655 S
O31 Gd0 2.327 1_554 S
O31 Gd1 2.717 1_455 S
O31 C19 1.257 . S
H32 C5 0.930 . S
H33 C6 0.931 . S
H34 C8 0.931 . S
H35 C9 0.931 . S
H36 C14 0.930 . S
H37 C15 0.931 . S
H38 C17 0.931 . S
H39 C18 0.931 . S
Gd40 C43 2.818 . S
Gd40 O60 2.377 . S
Gd40 O62 2.448 . S
Gd40 O63 2.506 1_556 S
Gd40 O64 2.435 . S
Gd40 O65 2.717 . S
Gd40 O67 2.396 . S
Gd40 O71 2.327 1_556 S
Gd41 C52 2.818 . S
Gd41 O61 2.395 . S
Gd41 O65 2.327 1_554 S
Gd41 O66 2.377 . S
Gd41 O68 2.448 . S
Gd41 O69 2.506 1_554 S
Gd41 O70 2.435 . S
Gd41 O71 2.717 . S
C42 O60 1.240 . S
C42 O61 1.240 1_556 S
C43 Gd40 2.818 . S
C43 C44 1.510 . S
C43 O62 1.249 . S
C43 O63 1.252 1_556 S
C44 C43 1.510 . S
C44 C45 1.404 . S
C44 C46 1.352 1_556 S
C45 C44 1.404 . S
C45 C49 1.389 . S
C45 H72 0.930 . S
C46 C44 1.352 1_554 S
C46 C48 1.374 . S
C46 H73 0.931 . S
C47 C48 1.359 1_556 S
C47 C49 1.364 . S
C48 C46 1.374 . S
C48 C47 1.359 1_554 S
C48 H74 0.931 . S
C49 C45 1.389 . S
C49 C47 1.364 . S
C49 H75 0.931 . S
C50 O64 1.256 . S
C50 O65 1.257 . S
C51 O66 1.240 . S
C51 O67 1.239 1_554 S
C52 Gd41 2.818 . S
C52 C53 1.510 . S
C52 O68 1.249 . S
C52 O69 1.252 1_554 S
C53 C52 1.510 . S
C53 C54 1.404 . S
C53 C55 1.352 1_554 S
C54 C53 1.404 . S
C54 C58 1.389 . S
C54 H76 0.930 . S
C55 C53 1.352 1_556 S
C55 C57 1.374 . S
C55 H77 0.931 . S
C56 C57 1.359 1_554 S
C56 C58 1.364 . S
C57 C55 1.374 . S
C57 C56 1.359 1_556 S
C57 H78 0.931 . S
C58 C54 1.389 . S
C58 C56 1.364 . S
C58 H79 0.931 . S
C59 O70 1.256 . S
C59 O71 1.257 . S
O60 Gd40 2.377 . S
O60 C42 1.240 . S
O61 Gd41 2.395 . S
O61 C42 1.240 1_554 S
O62 Gd40 2.448 . S
O62 C43 1.249 . S
O63 Gd40 2.506 1_554 S
O63 C43 1.252 1_554 S
O64 Gd40 2.435 . S
O64 C50 1.256 . S
O65 Gd40 2.717 . S
O65 Gd41 2.327 1_556 S
O65 C50 1.257 . S
O66 Gd41 2.377 . S
O66 C51 1.240 . S
O67 Gd40 2.396 . S
O67 C51 1.239 1_556 S
O68 Gd41 2.448 . S
O68 C52 1.249 . S
O69 Gd41 2.506 1_556 S
O69 C52 1.252 1_556 S
O70 Gd41 2.435 . S
O70 C59 1.256 . S
O71 Gd40 2.327 1_554 S
O71 Gd41 2.717 . S
O71 C59 1.257 . S
H72 C45 0.930 . S
H73 C46 0.931 . S
H74 C48 0.931 . S
H75 C49 0.931 . S
H76 C54 0.930 . S
H77 C55 0.931 . S
H78 C57 0.931 . S
H79 C58 0.931 . S
Gd80 C83 2.818 . S
Gd80 O100 2.377 . S
Gd80 O102 2.448 . S
Gd80 O103 2.506 1_556 S
Gd80 O104 2.435 . S
Gd80 O105 2.717 1_565 S
Gd80 O107 2.396 1_565 S
Gd80 O111 2.327 1_556 S
Gd81 C92 2.818 . S
Gd81 O101 2.395 1_545 S
Gd81 O105 2.327 1_554 S
Gd81 O106 2.377 . S
Gd81 O108 2.448 . S
Gd81 O109 2.506 1_554 S
Gd81 O110 2.435 . S
Gd81 O111 2.717 1_545 S
C82 O100 1.240 . S
C82 O101 1.240 1_556 S
C83 Gd80 2.818 . S
C83 C84 1.510 . S
C83 O102 1.249 . S
C83 O103 1.252 1_556 S
C84 C83 1.510 . S
C84 C85 1.404 . S
C84 C86 1.352 1_556 S
C85 C84 1.404 . S
C85 C89 1.389 . S
C85 H112 0.930 . S
C86 C84 1.352 1_554 S
C86 C88 1.374 . S
C86 H113 0.931 . S
C87 C88 1.359 1_556 S
C87 C89 1.364 . S
C88 C86 1.374 . S
C88 C87 1.359 1_554 S
C88 H114 0.931 . S
C89 C85 1.389 . S
C89 C87 1.364 . S
C89 H115 0.931 . S
C90 O104 1.256 1_545 S
C90 O105 1.257 . S
C91 O106 1.240 . S
C91 O107 1.239 1_554 S
C92 Gd81 2.818 . S
C92 C93 1.510 . S
C92 O108 1.249 . S
C92 O109 1.252 1_554 S
C93 C92 1.510 . S
C93 C94 1.404 . S
C93 C95 1.352 1_554 S
C94 C93 1.404 . S
C94 C98 1.389 . S
C94 H116 0.930 . S
C95 C93 1.352 1_556 S
C95 C97 1.374 . S
C95 H117 0.931 . S
C96 C97 1.359 1_554 S
C96 C98 1.364 . S
C97 C95 1.374 . S
C97 C96 1.359 1_556 S
C97 H118 0.931 . S
C98 C94 1.389 . S
C98 C96 1.364 . S
C98 H119 0.931 . S
C99 O110 1.256 1_565 S
C99 O111 1.257 . S
O100 Gd80 2.377 . S
O100 C82 1.240 . S
O101 Gd81 2.395 1_565 S
O101 C82 1.240 1_554 S
O102 Gd80 2.448 . S
O102 C83 1.249 . S
O103 Gd80 2.506 1_554 S
O103 C83 1.252 1_554 S
O104 Gd80 2.435 . S
O104 C90 1.256 1_565 S
O105 Gd80 2.717 1_545 S
O105 Gd81 2.327 1_556 S
O105 C90 1.257 . S
O106 Gd81 2.377 . S
O106 C91 1.240 . S
O107 Gd80 2.396 1_545 S
O107 C91 1.239 1_556 S
O108 Gd81 2.448 . S
O108 C92 1.249 . S
O109 Gd81 2.506 1_556 S
O109 C92 1.252 1_556 S
O110 Gd81 2.435 . S
O110 C99 1.256 1_545 S
O111 Gd80 2.327 1_554 S
O111 Gd81 2.717 1_565 S
O111 C99 1.257 . S
H112 C85 0.930 . S
H113 C86 0.931 . S
H114 C88 0.931 . S
H115 C89 0.931 . S
H116 C94 0.930 . S
H117 C95 0.931 . S
H118 C97 0.931 . S
H119 C98 0.931 . S
Gd120 C123 2.818 . S
Gd120 O140 2.377 . S
Gd120 O142 2.448 . S
Gd120 O143 2.506 . S
Gd120 O144 2.435 . S
Gd120 O145 2.717 . S
Gd120 O147 2.395 . S
Gd120 O151 2.327 . S
Gd121 C132 2.818 . S
Gd121 O141 2.395 . S
Gd121 O145 2.327 . S
Gd121 O146 2.377 . S
Gd121 O148 2.448 . S
Gd121 O149 2.506 . S
Gd121 O150 2.435 . S
Gd121 O151 2.717 . S
C122 O140 1.240 . S
C122 O141 1.240 . S
C123 Gd120 2.818 . S
C123 C124 1.510 . S
C123 O142 1.249 . S
C123 O143 1.252 . S
C124 C123 1.510 . S
C124 C125 1.404 . S
C124 C126 1.352 . S
C125 C124 1.404 . S
C125 C129 1.389 1_565 S
C125 H152 0.930 . S
C126 C124 1.352 . S
C126 C128 1.374 . S
C126 H153 0.931 . S
C127 C128 1.359 1_545 S
C127 C129 1.364 . S
C128 C126 1.374 . S
C128 C127 1.359 1_565 S
C128 H154 0.931 . S
C129 C125 1.389 1_545 S
C129 C127 1.364 . S
C129 H155 0.931 . S
C130 O144 1.256 . S
C130 O145 1.257 . S
C131 O146 1.240 . S
C131 O147 1.240 . S
C132 Gd121 2.818 . S
C132 C133 1.510 . S
C132 O148 1.249 . S
C132 O149 1.252 . S
C133 C132 1.510 . S
C133 C134 1.404 . S
C133 C135 1.352 . S
C134 C133 1.404 . S
C134 C138 1.389 . S
C134 H156 0.930 . S
C135 C133 1.352 . S
C135 C137 1.374 . S
C135 H157 0.931 . S
C136 C137 1.359 . S
C136 C138 1.364 . S
C137 C135 1.374 . S
C137 C136 1.359 . S
C137 H158 0.931 . S
C138 C134 1.389 . S
C138 C136 1.364 . S
C138 H159 0.931 . S
C139 O150 1.256 . S
C139 O151 1.257 . S
O140 Gd120 2.377 . S
O140 C122 1.240 . S
O141 Gd121 2.395 . S
O141 C122 1.240 . S
O142 Gd120 2.448 . S
O142 C123 1.249 . S
O143 Gd120 2.506 . S
O143 C123 1.252 . S
O144 Gd120 2.435 . S
O144 C130 1.256 . S
O145 Gd120 2.717 . S
O145 Gd121 2.327 . S
O145 C130 1.257 . S
O146 Gd121 2.377 . S
O146 C131 1.240 . S
O147 Gd120 2.395 . S
O147 C131 1.240 . S
O148 Gd121 2.448 . S
O148 C132 1.249 . S
O149 Gd121 2.506 . S
O149 C132 1.252 . S
O150 Gd121 2.435 . S
O150 C139 1.256 . S
O151 Gd120 2.327 . S
O151 Gd121 2.717 . S
O151 C139 1.257 . S
H152 C125 0.930 . S
H153 C126 0.931 . S
H154 C128 0.931 . S
H155 C129 0.931 . S
H156 C134 0.930 . S
H157 C135 0.931 . S
H158 C137 0.931 . S
H159 C138 0.931 . S
Gd160 C163 2.818 . S
Gd160 O180 2.377 . S
Gd160 O182 2.448 . S
Gd160 O183 2.506 . S
Gd160 O184 2.435 . S
Gd160 O185 2.717 . S
Gd160 O187 2.395 . S
Gd160 O191 2.327 . S
Gd161 C172 2.818 . S
Gd161 O181 2.395 . S
Gd161 O185 2.327 . S
Gd161 O186 2.377 . S
Gd161 O188 2.448 . S
Gd161 O189 2.506 . S
Gd161 O190 2.435 . S
Gd161 O191 2.717 . S
C162 O180 1.240 . S
C162 O181 1.240 . S
C163 Gd160 2.818 . S
C163 C164 1.510 . S
C163 O182 1.249 . S
C163 O183 1.252 . S
C164 C163 1.510 . S
C164 C165 1.404 . S
C164 C166 1.352 . S
C165 C164 1.404 . S
C165 C169 1.389 . S
C165 H192 0.930 . S
C166 C164 1.352 . S
C166 C168 1.374 . S
C166 H193 0.931 . S
C167 C168 1.359 1_655 S
C167 C169 1.364 1_655 S
C168 C166 1.374 . S
C168 C167 1.359 1_455 S
C168 H194 0.931 . S
C169 C165 1.389 . S
C169 C167 1.364 1_455 S
C169 H195 0.931 1_455 S
C170 O184 1.256 . S
C170 O185 1.257 . S
C171 O186 1.240 . S
C171 O187 1.240 . S
C172 Gd161 2.818 . S
C172 C173 1.510 . S
C172 O188 1.249 . S
C172 O189 1.252 . S
C173 C172 1.510 . S
C173 C174 1.404 . S
C173 C175 1.352 . S
C174 C173 1.404 . S
C174 C178 1.389 . S
C174 H196 0.930 . S
C175 C173 1.352 . S
C175 C177 1.374 . S
C175 H197 0.931 . S
C176 C177 1.359 . S
C176 C178 1.364 . S
C177 C175 1.374 . S
C177 C176 1.359 . S
C177 H198 0.931 . S
C178 C174 1.389 . S
C178 C176 1.364 . S
C178 H199 0.931 . S
C179 O190 1.256 . S
C179 O191 1.257 . S
O180 Gd160 2.377 . S
O180 C162 1.240 . S
O181 Gd161 2.395 . S
O181 C162 1.240 . S
O182 Gd160 2.448 . S
O182 C163 1.249 . S
O183 Gd160 2.506 . S
O183 C163 1.252 . S
O184 Gd160 2.435 . S
O184 C170 1.256 . S
O185 Gd160 2.717 . S
O185 Gd161 2.327 . S
O185 C170 1.257 . S
O186 Gd161 2.377 . S
O186 C171 1.240 . S
O187 Gd160 2.395 . S
O187 C171 1.240 . S
O188 Gd161 2.448 . S
O188 C172 1.249 . S
O189 Gd161 2.506 . S
O189 C172 1.252 . S
O190 Gd161 2.435 . S
O190 C179 1.256 . S
O191 Gd160 2.327 . S
O191 Gd161 2.717 . S
O191 C179 1.257 . S
H192 C165 0.930 . S
H193 C166 0.931 . S
H194 C168 0.931 . S
H195 C169 0.931 1_655 S
H196 C174 0.930 . S
H197 C175 0.931 . S
H198 C177 0.931 . S
H199 C178 0.931 . S
Gd200 C203 2.818 . S
Gd200 O220 2.377 . S
Gd200 O222 2.448 . S
Gd200 O223 2.506 . S
Gd200 O224 2.435 . S
Gd200 O225 2.717 . S
Gd200 O227 2.395 . S
Gd200 O231 2.327 . S
Gd201 C212 2.818 . S
Gd201 O221 2.395 . S
Gd201 O225 2.327 . S
Gd201 O226 2.377 . S
Gd201 O228 2.448 . S
Gd201 O229 2.506 . S
Gd201 O230 2.435 . S
Gd201 O231 2.717 . S
C202 O220 1.240 . S
C202 O221 1.240 . S
C203 Gd200 2.818 . S
C203 C204 1.510 . S
C203 O222 1.249 . S
C203 O223 1.252 . S
C204 C203 1.510 . S
C204 C205 1.404 . S
C204 C206 1.352 . S
C205 C204 1.404 . S
C205 C209 1.389 . S
C205 H232 0.930 . S
C206 C204 1.352 . S
C206 C208 1.374 . S
C206 H233 0.931 . S
C207 C208 1.359 . S
C207 C209 1.364 . S
C208 C206 1.374 . S
C208 C207 1.359 . S
C208 H234 0.931 . S
C209 C205 1.389 . S
C209 C207 1.364 . S
C209 H235 0.931 . S
C210 O224 1.256 . S
C210 O225 1.257 . S
C211 O226 1.240 . S
C211 O227 1.240 . S
C212 Gd201 2.818 . S
C212 C213 1.510 . S
C212 O228 1.249 . S
C212 O229 1.252 . S
C213 C212 1.510 . S
C213 C214 1.404 . S
C213 C215 1.352 . S
C214 C213 1.404 . S
C214 C218 1.389 . S
C214 H236 0.930 . S
C215 C213 1.352 . S
C215 C217 1.374 . S
C215 H237 0.931 . S
C216 C217 1.359 . S
C216 C218 1.364 . S
C217 C215 1.374 . S
C217 C216 1.359 . S
C217 H238 0.931 . S
C218 C214 1.389 . S
C218 C216 1.364 . S
C218 H239 0.931 . S
C219 O230 1.256 . S
C219 O231 1.257 . S
O220 Gd200 2.377 . S
O220 C202 1.240 . S
O221 Gd201 2.395 . S
O221 C202 1.240 . S
O222 Gd200 2.448 . S
O222 C203 1.249 . S
O223 Gd200 2.506 . S
O223 C203 1.252 . S
O224 Gd200 2.435 . S
O224 C210 1.256 . S
O225 Gd200 2.717 . S
O225 Gd201 2.327 . S
O225 C210 1.257 . S
O226 Gd201 2.377 . S
O226 C211 1.240 . S
O227 Gd200 2.395 . S
O227 C211 1.240 . S
O228 Gd201 2.448 . S
O228 C212 1.249 . S
O229 Gd201 2.506 . S
O229 C212 1.252 . S
O230 Gd201 2.435 . S
O230 C219 1.256 . S
O231 Gd200 2.327 . S
O231 Gd201 2.717 . S
O231 C219 1.257 . S
H232 C205 0.930 . S
H233 C206 0.931 . S
H234 C208 0.931 . S
H235 C209 0.931 . S
H236 C214 0.930 . S
H237 C215 0.931 . S
H238 C217 0.931 . S
H239 C218 0.931 . S
Gd240 C243 2.818 . S
Gd240 O260 2.377 . S
Gd240 O262 2.448 . S
Gd240 O263 2.506 . S
Gd240 O264 2.435 . S
Gd240 O265 2.717 . S
Gd240 O267 2.395 . S
Gd240 O271 2.327 . S
Gd241 C252 2.818 1_545 S
Gd241 O261 2.395 . S
Gd241 O265 2.327 . S
Gd241 O266 2.377 . S
Gd241 O268 2.448 . S
Gd241 O269 2.506 . S
Gd241 O270 2.435 . S
Gd241 O271 2.717 . S
C242 O260 1.240 . S
C242 O261 1.240 . S
C243 Gd240 2.818 . S
C243 C244 1.510 . S
C243 O262 1.249 . S
C243 O263 1.252 . S
C244 C243 1.510 . S
C244 C245 1.404 . S
C244 C246 1.352 . S
C245 C244 1.404 . S
C245 C249 1.389 . S
C245 H272 0.930 . S
C246 C244 1.352 . S
C246 C248 1.374 . S
C246 H273 0.931 . S
C247 C248 1.359 . S
C247 C249 1.364 . S
C248 C246 1.374 . S
C248 C247 1.359 . S
C248 H274 0.931 . S
C249 C245 1.389 . S
C249 C247 1.364 . S
C249 H275 0.931 . S
C250 O264 1.256 . S
C250 O265 1.257 . S
C251 O266 1.240 . S
C251 O267 1.240 . S
C252 Gd241 2.818 1_565 S
C252 C253 1.510 . S
C252 O268 1.249 1_565 S
C252 O269 1.252 1_565 S
C253 C252 1.510 . S
C253 C254 1.404 . S
C253 C255 1.352 . S
C254 C253 1.404 . S
C254 C258 1.389 . S
C254 H276 0.930 . S
C255 C253 1.352 . S
C255 C257 1.374 . S
C255 H277 0.931 . S
C256 C257 1.359 . S
C256 C258 1.364 . S
C257 C255 1.374 . S
C257 C256 1.359 . S
C257 H278 0.931 . S
C258 C254 1.389 . S
C258 C256 1.364 . S
C258 H279 0.931 . S
C259 O270 1.256 . S
C259 O271 1.257 . S
O260 Gd240 2.377 . S
O260 C242 1.240 . S
O261 Gd241 2.395 . S
O261 C242 1.240 . S
O262 Gd240 2.448 . S
O262 C243 1.249 . S
O263 Gd240 2.506 . S
O263 C243 1.252 . S
O264 Gd240 2.435 . S
O264 C250 1.256 . S
O265 Gd240 2.717 . S
O265 Gd241 2.327 . S
O265 C250 1.257 . S
O266 Gd241 2.377 . S
O266 C251 1.240 . S
O267 Gd240 2.395 . S
O267 C251 1.240 . S
O268 Gd241 2.448 . S
O268 C252 1.249 1_545 S
O269 Gd241 2.506 . S
O269 C252 1.252 1_545 S
O270 Gd241 2.435 . S
O270 C259 1.256 . S
O271 Gd240 2.327 . S
O271 Gd241 2.717 . S
O271 C259 1.257 . S
H272 C245 0.930 . S
H273 C246 0.931 . S
H274 C248 0.931 . S
H275 C249 0.931 . S
H276 C254 0.930 . S
H277 C255 0.931 . S
H278 C257 0.931 . S
H279 C258 0.931 . S
Gd280 C283 2.818 . S
Gd280 O300 2.377 . S
Gd280 O302 2.448 . S
Gd280 O303 2.506 . S
Gd280 O304 2.435 . S
Gd280 O305 2.717 . S
Gd280 O307 2.395 . S
Gd280 O311 2.327 . S
Gd281 C292 2.818 1_655 S
Gd281 O301 2.395 . S
Gd281 O305 2.327 . S
Gd281 O306 2.377 . S
Gd281 O308 2.448 1_655 S
Gd281 O309 2.506 . S
Gd281 O310 2.435 . S
Gd281 O311 2.717 . S
C282 O300 1.240 . S
C282 O301 1.240 . S
C283 Gd280 2.818 . S
C283 C284 1.510 . S
C283 O302 1.249 . S
C283 O303 1.252 . S
C284 C283 1.510 . S
C284 C285 1.404 . S
C284 C286 1.352 . S
C285 C284 1.404 . S
C285 C289 1.389 . S
C285 H312 0.930 . S
C286 C284 1.352 . S
C286 C288 1.374 . S
C286 H313 0.931 . S
C287 C288 1.359 . S
C287 C289 1.364 . S
C288 C286 1.374 . S
C288 C287 1.359 . S
C288 H314 0.931 . S
C289 C285 1.389 . S
C289 C287 1.364 . S
C289 H315 0.931 . S
C290 O304 1.256 . S
C290 O305 1.257 . S
C291 O306 1.240 . S
C291 O307 1.240 . S
C292 Gd281 2.818 1_455 S
C292 C293 1.510 . S
C292 O308 1.249 . S
C292 O309 1.252 1_455 S
C293 C292 1.510 . S
C293 C294 1.404 . S
C293 C295 1.352 . S
C294 C293 1.404 . S
C294 C298 1.389 . S
C294 H316 0.930 . S
C295 C293 1.352 . S
C295 C297 1.374 . S
C295 H317 0.931 . S
C296 C297 1.359 . S
C296 C298 1.364 . S
C297 C295 1.374 . S
C297 C296 1.359 . S
C297 H318 0.931 . S
C298 C294 1.389 . S
C298 C296 1.364 . S
C298 H319 0.931 . S
C299 O310 1.256 . S
C299 O311 1.257 . S
O300 Gd280 2.377 . S
O300 C282 1.240 . S
O301 Gd281 2.395 . S
O301 C282 1.240 . S
O302 Gd280 2.448 . S
O302 C283 1.249 . S
O303 Gd280 2.506 . S
O303 C283 1.252 . S
O304 Gd280 2.435 . S
O304 C290 1.256 . S
O305 Gd280 2.717 . S
O305 Gd281 2.327 . S
O305 C290 1.257 . S
O306 Gd281 2.377 . S
O306 C291 1.240 . S
O307 Gd280 2.395 . S
O307 C291 1.240 . S
O308 Gd281 2.448 1_455 S
O308 C292 1.249 . S
O309 Gd281 2.506 . S
O309 C292 1.252 1_655 S
O310 Gd281 2.435 . S
O310 C299 1.256 . S
O311 Gd280 2.327 . S
O311 Gd281 2.717 . S
O311 C299 1.257 . S
H312 C285 0.930 . S
H313 C286 0.931 . S
H314 C288 0.931 . S
H315 C289 0.931 . S
H316 C294 0.930 . S
H317 C295 0.931 . S
H318 C297 0.931 . S
H319 C298 0.931 . S
Gd320 C323 2.818 . S
Gd320 O340 2.377 . S
Gd320 O342 2.448 . S
Gd320 O343 2.506 . S
Gd320 O344 2.435 . S
Gd320 O345 2.717 . S
Gd320 O347 2.395 . S
Gd320 O351 2.327 . S
Gd321 C332 2.818 . S
Gd321 O341 2.395 . S
Gd321 O345 2.327 . S
Gd321 O346 2.377 . S
Gd321 O348 2.448 . S
Gd321 O349 2.506 . S
Gd321 O350 2.435 . S
Gd321 O351 2.717 . S
C322 O340 1.240 . S
C322 O341 1.240 . S
C323 Gd320 2.818 . S
C323 C324 1.510 . S
C323 O342 1.249 . S
C323 O343 1.252 . S
C324 C323 1.510 . S
C324 C325 1.404 . S
C324 C326 1.352 . S
C325 C324 1.404 . S
C325 C329 1.389 . S
C325 H352 0.930 . S
C326 C324 1.352 . S
C326 C328 1.374 . S
C326 H353 0.931 . S
C327 C328 1.359 . S
C327 C329 1.364 . S
C328 C326 1.374 . S
C328 C327 1.359 . S
C328 H354 0.931 . S
C329 C325 1.389 . S
C329 C327 1.364 . S
C329 H355 0.931 . S
C330 O344 1.256 . S
C330 O345 1.257 . S
C331 O346 1.240 . S
C331 O347 1.240 . S
C332 Gd321 2.818 . S
C332 C333 1.510 . S
C332 O348 1.249 . S
C332 O349 1.252 . S
C333 C332 1.510 . S
C333 C334 1.404 . S
C333 C335 1.352 . S
C334 C333 1.404 . S
C334 C338 1.389 . S
C334 H356 0.930 . S
C335 C333 1.352 . S
C335 C337 1.374 . S
C335 H357 0.931 . S
C336 C337 1.359 . S
C336 C338 1.364 . S
C337 C335 1.374 . S
C337 C336 1.359 . S
C337 H358 0.931 . S
C338 C334 1.389 . S
C338 C336 1.364 . S
C338 H359 0.931 . S
C339 O350 1.256 . S
C339 O351 1.257 . S
O340 Gd320 2.377 . S
O340 C322 1.240 . S
O341 Gd321 2.395 . S
O341 C322 1.240 . S
O342 Gd320 2.448 . S
O342 C323 1.249 . S
O343 Gd320 2.506 . S
O343 C323 1.252 . S
O344 Gd320 2.435 . S
O344 C330 1.256 . S
O345 Gd320 2.717 . S
O345 Gd321 2.327 . S
O345 C330 1.257 . S
O346 Gd321 2.377 . S
O346 C331 1.240 . S
O347 Gd320 2.395 . S
O347 C331 1.240 . S
O348 Gd321 2.448 . S
O348 C332 1.249 . S
O349 Gd321 2.506 . S
O349 C332 1.252 . S
O350 Gd321 2.435 . S
O350 C339 1.256 . S
O351 Gd320 2.327 . S
O351 Gd321 2.717 . S
O351 C339 1.257 . S
H352 C325 0.930 . S
H353 C326 0.931 . S
H354 C328 0.931 . S
H355 C329 0.931 . S
H356 C334 0.930 . S
H357 C335 0.931 . S
H358 C337 0.931 . S
H359 C338 0.931 . S
H360 C366 0.930 . S
H361 C369 0.930 . S
H362 C370 0.930 . S
H363 C371 0.930 . S
H364 C374 0.930 . S
H365 C375 0.930 . S
C366 H360 0.930 . S
C366 C367 1.355 1_554 S
C366 C368 1.415 . S
C367 C366 1.355 1_556 S
C367 C369 1.419 . S
C368 C366 1.415 . S
C368 C373 1.425 1_554 S
C368 C375 1.409 . S
C369 H361 0.930 . S
C369 C367 1.419 . S
C369 C370 1.362 . S
C370 H362 0.930 . S
C370 C369 1.362 . S
C370 C373 1.409 . S
C371 H363 0.930 . S
C371 C372 1.355 . S
C371 C373 1.415 . S
C372 C371 1.355 . S
C372 C374 1.419 1_556 S
C373 C368 1.425 1_556 S
C373 C370 1.409 . S
C373 C371 1.415 . S
C374 H364 0.930 . S
C374 C372 1.419 1_554 S
C374 C375 1.362 . S
C375 H365 0.930 . S
C375 C368 1.409 . S
C375 C374 1.362 . S
H376 C382 0.930 . S
H377 C385 0.929 1_554 S
H378 C386 0.929 1_554 S
H379 C387 0.930 . S
H380 C390 0.930 . S
H381 C391 0.930 . S
C382 H376 0.930 . S
C382 C383 1.355 . S
C382 C384 1.415 . S
C383 C382 1.355 . S
C383 C385 1.419 . S
C384 C382 1.415 . S
C384 C389 1.425 . S
C384 C391 1.409 . S
C385 H377 0.929 1_556 S
C385 C383 1.419 . S
C385 C386 1.363 . S
C386 H378 0.929 1_556 S
C386 C385 1.363 . S
C386 C389 1.410 . S
C387 H379 0.930 . S
C387 C388 1.355 . S
C387 C389 1.415 . S
C388 C387 1.355 . S
C388 C390 1.419 . S
C389 C384 1.425 . S
C389 C386 1.410 . S
C389 C387 1.415 . S
C390 H380 0.930 . S
C390 C388 1.419 . S
C390 C391 1.362 . S
C391 H381 0.930 . S
C391 C384 1.409 . S
C391 C390 1.362 . S
H392 C398 0.930 . S
H393 C401 0.930 . S
H394 C402 0.930 . S
H395 C403 0.930 . S
H396 C406 0.930 . S
H397 C407 0.930 . S
C398 H392 0.930 . S
C398 C399 1.355 1_554 S
C398 C400 1.415 . S
C399 C398 1.355 1_556 S
C399 C401 1.419 . S
C400 C398 1.415 . S
C400 C405 1.425 1_554 S
C400 C407 1.409 . S
C401 H393 0.930 . S
C401 C399 1.419 . S
C401 C402 1.362 . S
C402 H394 0.930 . S
C402 C401 1.362 . S
C402 C405 1.409 . S
C403 H395 0.930 . S
C403 C404 1.355 . S
C403 C405 1.415 . S
C404 C403 1.355 . S
C404 C406 1.419 1_556 S
C405 C400 1.425 1_556 S
C405 C402 1.409 . S
C405 C403 1.415 . S
C406 H396 0.930 . S
C406 C404 1.419 1_554 S
C406 C407 1.362 . S
C407 H397 0.930 . S
C407 C400 1.409 . S
C407 C406 1.362 . S
H408 C414 0.930 . S
H409 C417 0.930 . S
H410 C418 0.930 . S
H411 C419 0.930 . S
H412 C422 0.930 . S
H413 C423 0.930 . S
C414 H408 0.930 . S
C414 C415 1.355 . S
C414 C416 1.415 . S
C415 C414 1.355 . S
C415 C417 1.419 1_554 S
C416 C414 1.415 . S
C416 C421 1.425 1_554 S
C416 C423 1.409 . S
C417 H409 0.930 . S
C417 C415 1.419 1_556 S
C417 C418 1.362 . S
C418 H410 0.930 . S
C418 C417 1.362 . S
C418 C421 1.409 . S
C419 H411 0.930 . S
C419 C420 1.355 1_556 S
C419 C421 1.415 . S
C420 C419 1.355 1_554 S
C420 C422 1.419 . S
C421 C416 1.425 1_556 S
C421 C418 1.409 . S
C421 C419 1.415 . S
C422 H412 0.930 . S
C422 C420 1.419 . S
C422 C423 1.362 . S
C423 H413 0.930 . S
C423 C416 1.409 . S
C423 C422 1.362 . S
H424 C430 0.930 . S
H425 C433 0.930 . S
H426 C434 0.930 . S
H427 C435 0.930 1_556 S
H428 C438 0.930 . S
H429 C439 0.930 . S
C430 H424 0.930 . S
C430 C431 1.355 . S
C430 C432 1.415 . S
C431 C430 1.355 . S
C431 C433 1.419 1_554 S
C432 C430 1.415 . S
C432 C437 1.425 . S
C432 C439 1.409 . S
C433 H425 0.930 . S
C433 C431 1.419 1_556 S
C433 C434 1.362 . S
C434 H426 0.930 . S
C434 C433 1.362 . S
C434 C437 1.409 1_556 S
C435 H427 0.930 1_554 S
C435 C436 1.355 . S
C435 C437 1.415 . S
C436 C435 1.355 . S
C436 C438 1.419 . S
C437 C432 1.425 . S
C437 C434 1.409 1_554 S
C437 C435 1.415 . S
C438 H428 0.930 . S
C438 C436 1.419 . S
C438 C439 1.362 . S
C439 H429 0.930 . S
C439 C432 1.409 . S
C439 C438 1.362 . S
H440 C446 0.930 . S
H441 C449 0.930 . S
H442 C450 0.930 . S
H443 C451 0.930 . S
H444 C454 0.928 1_556 S
H445 C455 0.924 1_556 S
C446 H440 0.930 . S
C446 C447 1.355 . S
C446 C448 1.415 . S
C447 C446 1.355 . S
C447 C449 1.419 . S
C448 C446 1.415 . S
C448 C453 1.425 . S
C448 C455 1.414 . S
C449 H441 0.930 . S
C449 C447 1.419 . S
C449 C450 1.362 . S
C450 H442 0.930 . S
C450 C449 1.362 . S
C450 C453 1.409 . S
C451 H443 0.930 . S
C451 C452 1.355 . S
C451 C453 1.415 . S
C452 C451 1.355 . S
C452 C454 1.419 . S
C453 C448 1.425 . S
C453 C450 1.409 . S
C453 C451 1.415 . S
C454 H444 0.928 1_554 S
C454 C452 1.419 . S
C454 C455 1.364 . S
C455 H445 0.924 1_554 S
C455 C448 1.414 . S
C455 C454 1.364 . S
H456 C462 0.930 . S
H457 C465 0.930 . S
H458 C466 0.930 . S
H459 C467 0.930 . S
H460 C470 0.930 . S
H461 C471 0.930 . S
C462 H456 0.930 . S
C462 C463 1.355 . S
C462 C464 1.415 . S
C463 C462 1.355 . S
C463 C465 1.419 . S
C464 C462 1.415 . S
C464 C469 1.425 . S
C464 C471 1.409 . S
C465 H457 0.930 . S
C465 C463 1.419 . S
C465 C466 1.362 . S
C466 H458 0.930 . S
C466 C465 1.362 . S
C466 C469 1.409 . S
C467 H459 0.930 . S
C467 C468 1.355 . S
C467 C469 1.415 . S
C468 C467 1.355 . S
C468 C470 1.419 . S
C469 C464 1.425 . S
C469 C466 1.409 . S
C469 C467 1.415 . S
C470 H460 0.930 . S
C470 C468 1.419 . S
C470 C471 1.362 . S
C471 H461 0.930 . S
C471 C464 1.409 . S
C471 C470 1.362 . S
H472 C478 0.930 . S
H473 C481 0.930 . S
H474 C482 0.930 . S
H475 C483 0.930 . S
H476 C486 0.930 . S
H477 C487 0.930 . S
C478 H472 0.930 . S
C478 C479 1.355 . S
C478 C480 1.415 . S
C479 C478 1.355 . S
C479 C481 1.419 . S
C480 C478 1.415 . S
C480 C485 1.425 . S
C480 C487 1.409 1_545 S
C481 H473 0.930 . S
C481 C479 1.419 . S
C481 C482 1.362 . S
C482 H474 0.930 . S
C482 C481 1.362 . S
C482 C485 1.409 . S
C483 H475 0.930 . S
C483 C484 1.355 1_545 S
C483 C485 1.415 . S
C484 C483 1.355 1_565 S
C484 C486 1.419 . S
C485 C480 1.425 . S
C485 C482 1.409 . S
C485 C483 1.415 . S
C486 H476 0.930 . S
C486 C484 1.419 . S
C486 C487 1.362 . S
C487 H477 0.930 . S
C487 C480 1.409 1_565 S
C487 C486 1.362 . S
H488 C494 0.930 . S
H489 C497 0.930 . S
H490 C498 0.930 . S
H491 C499 0.930 . S
H492 C502 0.930 . S
H493 C503 0.930 . S
C494 H488 0.930 . S
C494 C495 1.355 . S
C494 C496 1.415 1_455 S
C495 C494 1.355 . S
C495 C497 1.419 . S
C496 C494 1.415 1_655 S
C496 C501 1.425 . S
C496 C503 1.409 . S
C497 H489 0.930 . S
C497 C495 1.419 . S
C497 C498 1.362 1_455 S
C498 H490 0.930 . S
C498 C497 1.362 1_655 S
C498 C501 1.409 . S
C499 H491 0.930 . S
C499 C500 1.355 . S
C499 C501 1.415 . S
C500 C499 1.355 . S
C500 C502 1.419 . S
C501 C496 1.425 . S
C501 C498 1.409 . S
C501 C499 1.415 . S
C502 H492 0.930 . S
C502 C500 1.419 . S
C502 C503 1.362 . S
C503 H493 0.930 . S
C503 C496 1.409 . S
C503 C502 1.362 . S
H504 C510 0.930 . S
H505 C513 0.930 . S
H506 C514 0.930 . S
H507 C515 0.930 . S
H508 C518 0.930 . S
H509 C519 0.930 . S
C510 H504 0.930 . S
C510 C511 1.355 . S
C510 C512 1.415 . S
C511 C510 1.355 . S
C511 C513 1.419 . S
C512 C510 1.415 . S
C512 C517 1.425 . S
C512 C519 1.409 . S
C513 H505 0.930 . S
C513 C511 1.419 . S
C513 C514 1.362 . S
C514 H506 0.930 . S
C514 C513 1.362 . S
C514 C517 1.409 . S
C515 H507 0.930 . S
C515 C516 1.355 . S
C515 C517 1.415 . S
C516 C515 1.355 . S
C516 C518 1.419 . S
C517 C512 1.425 . S
C517 C514 1.409 . S
C517 C515 1.415 . S
C518 H508 0.930 . S
C518 C516 1.419 . S
C518 C519 1.362 . S
C519 H509 0.930 . S
C519 C512 1.409 . S
C519 C518 1.362 . S
H520 C526 0.930 . S
H521 C529 0.930 . S
H522 C530 0.930 . S
H523 C531 0.930 . S
H524 C534 0.930 . S
H525 C535 0.930 . S
C526 H520 0.930 . S
C526 C527 1.355 . S
C526 C528 1.415 . S
C527 C526 1.355 . S
C527 C529 1.419 . S
C528 C526 1.415 . S
C528 C533 1.425 . S
C528 C535 1.409 . S
C529 H521 0.930 . S
C529 C527 1.419 . S
C529 C530 1.362 . S
C530 H522 0.930 . S
C530 C529 1.362 . S
C530 C533 1.409 . S
C531 H523 0.930 . S
C531 C532 1.355 . S
C531 C533 1.415 . S
C532 C531 1.355 . S
C532 C534 1.419 . S
C533 C528 1.425 . S
C533 C530 1.409 . S
C533 C531 1.415 . S
C534 H524 0.930 . S
C534 C532 1.419 . S
C534 C535 1.362 . S
C535 H525 0.930 . S
C535 C528 1.409 . S
C535 C534 1.362 . S
H536 C542 0.930 . S
H537 C545 0.930 . S
H538 C546 0.930 . S
H539 C547 0.930 . S
H540 C550 0.930 . S
H541 C551 0.930 . S
C542 H536 0.930 . S
C542 C543 1.355 . S
C542 C544 1.415 . S
C543 C542 1.355 . S
C543 C545 1.419 . S
C544 C542 1.415 . S
C544 C549 1.425 . S
C544 C551 1.409 . S
C545 H537 0.930 . S
C545 C543 1.419 . S
C545 C546 1.362 . S
C546 H538 0.930 . S
C546 C545 1.362 . S
C546 C549 1.409 . S
C547 H539 0.930 . S
C547 C548 1.355 . S
C547 C549 1.415 . S
C548 C547 1.355 . S
C548 C550 1.419 . S
C549 C544 1.425 . S
C549 C546 1.409 . S
C549 C547 1.415 . S
C550 H540 0.930 . S
C550 C548 1.419 . S
C550 C551 1.362 . S
C551 H541 0.930 . S
C551 C544 1.409 . S
C551 C550 1.362 . S
H552 C558 0.930 . S
H553 C561 0.930 . S
H554 C562 0.930 . S
H555 C563 0.930 . S
H556 C566 0.930 . S
H557 C567 0.930 . S
C558 H552 0.930 . S
C558 C559 1.355 . S
C558 C560 1.415 . S
C559 C558 1.355 . S
C559 C561 1.419 . S
C560 C558 1.415 . S
C560 C565 1.425 . S
C560 C567 1.409 . S
C561 H553 0.930 . S
C561 C559 1.419 . S
C561 C562 1.362 . S
C562 H554 0.930 . S
C562 C561 1.362 . S
C562 C565 1.409 . S
C563 H555 0.930 . S
C563 C564 1.355 . S
C563 C565 1.415 . S
C564 C563 1.355 . S
C564 C566 1.419 . S
C565 C560 1.425 . S
C565 C562 1.409 . S
C565 C563 1.415 . S
C566 H556 0.930 . S
C566 C564 1.419 . S
C566 C567 1.362 . S
C567 H557 0.930 . S
C567 C560 1.409 . S
C567 C566 1.362 . S
H568 C574 0.930 . S
H569 C577 0.930 . S
H570 C578 0.930 . S
H571 C579 0.930 . S
H572 C582 0.930 . S
H573 C583 0.930 . S
C574 H568 0.930 . S
C574 C575 1.355 . S
C574 C576 1.415 . S
C575 C574 1.355 . S
C575 C577 1.419 . S
C576 C574 1.415 . S
C576 C581 1.425 . S
C576 C583 1.409 . S
C577 H569 0.930 . S
C577 C575 1.419 . S
C577 C578 1.362 . S
C578 H570 0.930 . S
C578 C577 1.362 . S
C578 C581 1.409 . S
C579 H571 0.930 . S
C579 C580 1.355 . S
C579 C581 1.415 . S
C580 C579 1.355 . S
C580 C582 1.419 . S
C581 C576 1.425 . S
C581 C578 1.409 . S
C581 C579 1.415 . S
C582 H572 0.930 . S
C582 C580 1.419 . S
C582 C583 1.362 . S
C583 H573 0.930 . S
C583 C576 1.409 . S
C583 C582 1.362 . S
H584 C590 0.930 . S
H585 C593 0.930 . S
H586 C594 0.930 . S
H587 C595 0.930 . S
H588 C598 0.930 . S
H589 C599 0.930 . S
C590 H584 0.930 . S
C590 C591 1.355 . S
C590 C592 1.415 . S
C591 C590 1.355 . S
C591 C593 1.419 . S
C592 C590 1.415 . S
C592 C597 1.425 . S
C592 C599 1.409 . S
C593 H585 0.930 . S
C593 C591 1.419 . S
C593 C594 1.362 . S
C594 H586 0.930 . S
C594 C593 1.362 . S
C594 C597 1.409 . S
C595 H587 0.930 . S
C595 C596 1.355 . S
C595 C597 1.415 . S
C596 C595 1.355 . S
C596 C598 1.419 . S
C597 C592 1.425 . S
C597 C594 1.409 . S
C597 C595 1.415 . S
C598 H588 0.930 . S
C598 C596 1.419 . S
C598 C599 1.362 . S
C599 H589 0.930 . S
C599 C592 1.409 . S
C599 C598 1.362 . S
H600 C606 0.930 . S
H601 C609 0.930 . S
H602 C610 0.930 . S
H603 C611 0.930 . S
H604 C614 0.930 . S
H605 C615 0.930 . S
C606 H600 0.930 . S
C606 C607 1.355 . S
C606 C608 1.415 1_565 S
C607 C606 1.355 . S
C607 C609 1.419 . S
C608 C606 1.415 1_545 S
C608 C613 1.425 . S
C608 C615 1.409 . S
C609 H601 0.930 . S
C609 C607 1.419 . S
C609 C610 1.362 1_565 S
C610 H602 0.930 . S
C610 C609 1.362 1_545 S
C610 C613 1.409 . S
C611 H603 0.930 . S
C611 C612 1.355 . S
C611 C613 1.415 . S
C612 C611 1.355 . S
C612 C614 1.419 . S
C613 C608 1.425 . S
C613 C610 1.409 . S
C613 C611 1.415 . S
C614 H604 0.930 . S
C614 C612 1.419 . S
C614 C615 1.362 . S
C615 H605 0.930 . S
C615 C608 1.409 . S
C615 C614 1.362 . S
H616 C622 0.930 . S
H617 C625 0.930 . S
H618 C626 0.930 . S
H619 C627 0.930 . S
H620 C630 0.930 . S
H621 C631 0.930 . S
C622 H616 0.930 . S
C622 C623 1.355 . S
C622 C624 1.415 . S
C623 C622 1.355 . S
C623 C625 1.419 . S
C624 C622 1.415 . S
C624 C629 1.425 . S
C624 C631 1.409 . S
C625 H617 0.930 . S
C625 C623 1.419 . S
C625 C626 1.362 . S
C626 H618 0.930 . S
C626 C625 1.362 . S
C626 C629 1.409 . S
C627 H619 0.930 . S
C627 C628 1.355 . S
C627 C629 1.415 1_455 S
C628 C627 1.355 . S
C628 C630 1.419 . S
C629 C624 1.425 . S
C629 C626 1.409 . S
C629 C627 1.415 1_655 S
C630 H620 0.930 . S
C630 C628 1.419 . S
C630 C631 1.362 1_455 S
C631 H621 0.930 . S
C631 C624 1.409 . S
C631 C630 1.362 1_655 S
H632 C638 0.930 . S
H633 C641 0.930 . S
H634 C642 0.930 . S
H635 C643 0.930 . S
H636 C646 0.930 . S
H637 C647 0.930 . S
C638 H632 0.930 . S
C638 C639 1.355 . S
C638 C640 1.415 . S
C639 C638 1.355 . S
C639 C641 1.419 . S
C640 C638 1.415 . S
C640 C645 1.425 . S
C640 C647 1.409 . S
C641 H633 0.930 . S
C641 C639 1.419 . S
C641 C642 1.362 . S
C642 H634 0.930 . S
C642 C641 1.362 . S
C642 C645 1.409 . S
C643 H635 0.930 . S
C643 C644 1.355 . S
C643 C645 1.415 . S
C644 C643 1.355 . S
C644 C646 1.419 . S
C645 C640 1.425 . S
C645 C642 1.409 . S
C645 C643 1.415 . S
C646 H636 0.930 . S
C646 C644 1.419 . S
C646 C647 1.362 . S
C647 H637 0.930 . S
C647 C640 1.409 . S
C647 C646 1.362 . S
H648 C654 0.930 . S
H649 C657 0.930 . S
H650 C658 0.930 . S
H651 C659 0.930 . S
H652 C662 0.930 . S
H653 C663 0.930 . S
C654 H648 0.930 . S
C654 C655 1.355 . S
C654 C656 1.415 . S
C655 C654 1.355 . S
C655 C657 1.419 . S
C656 C654 1.415 . S
C656 C661 1.425 . S
C656 C663 1.409 . S
C657 H649 0.930 . S
C657 C655 1.419 . S
C657 C658 1.362 . S
C658 H650 0.930 . S
C658 C657 1.362 . S
C658 C661 1.409 . S
C659 H651 0.930 . S
C659 C660 1.355 . S
C659 C661 1.415 . S
C660 C659 1.355 . S
C660 C662 1.419 . S
C661 C656 1.425 . S
C661 C658 1.409 . S
C661 C659 1.415 . S
C662 H652 0.930 . S
C662 C660 1.419 . S
C662 C663 1.362 . S
C663 H653 0.930 . S
C663 C656 1.409 . S
C663 C662 1.362 . S
H664 C670 0.930 . S
H665 C673 0.930 . S
H666 C674 0.930 . S
H667 C675 0.930 . S
H668 C678 0.930 . S
H669 C679 0.930 . S
C670 H664 0.930 . S
C670 C671 1.355 . S
C670 C672 1.415 . S
C671 C670 1.355 . S
C671 C673 1.419 . S
C672 C670 1.415 . S
C672 C677 1.425 . S
C672 C679 1.409 . S
C673 H665 0.930 . S
C673 C671 1.419 . S
C673 C674 1.362 . S
C674 H666 0.930 . S
C674 C673 1.362 . S
C674 C677 1.409 . S
C675 H667 0.930 . S
C675 C676 1.355 . S
C675 C677 1.415 . S
C676 C675 1.355 . S
C676 C678 1.419 . S
C677 C672 1.425 . S
C677 C674 1.409 . S
C677 C675 1.415 . S
C678 H668 0.930 . S
C678 C676 1.419 . S
C678 C679 1.362 . S
C679 H669 0.930 . S
C679 C672 1.409 . S
C679 C678 1.362 . S
H680 C686 0.930 . S
H681 C689 0.930 . S
H682 C690 0.930 . S
H683 C691 0.930 . S
H684 C694 0.930 . S
H685 C695 0.930 . S
C686 H680 0.930 . S
C686 C687 1.355 . S
C686 C688 1.415 . S
C687 C686 1.355 . S
C687 C689 1.419 . S
C688 C686 1.415 . S
C688 C693 1.425 . S
C688 C695 1.409 . S
C689 H681 0.930 . S
C689 C687 1.419 . S
C689 C690 1.362 . S
C690 H682 0.930 . S
C690 C689 1.362 . S
C690 C693 1.409 . S
C691 H683 0.930 . S
C691 C692 1.355 . S
C691 C693 1.415 . S
C692 C691 1.355 . S
C692 C694 1.419 . S
C693 C688 1.425 . S
C693 C690 1.409 . S
C693 C691 1.415 . S
C694 H684 0.930 . S
C694 C692 1.419 . S
C694 C695 1.362 . S
C695 H685 0.930 . S
C695 C688 1.409 . S
C695 C694 1.362 . S
H696 C702 0.930 . S
H697 C705 0.930 . S
H698 C706 0.930 . S
H699 C707 0.930 . S
H700 C710 0.930 . S
H701 C711 0.930 . S
C702 H696 0.930 . S
C702 C703 1.355 . S
C702 C704 1.415 . S
C703 C702 1.355 . S
C703 C705 1.419 . S
C704 C702 1.415 . S
C704 C709 1.425 . S
C704 C711 1.409 . S
C705 H697 0.930 . S
C705 C703 1.419 . S
C705 C706 1.362 . S
C706 H698 0.930 . S
C706 C705 1.362 . S
C706 C709 1.409 . S
C707 H699 0.930 . S
C707 C708 1.355 . S
C707 C709 1.415 . S
C708 C707 1.355 . S
C708 C710 1.419 . S
C709 C704 1.425 . S
C709 C706 1.409 . S
C709 C707 1.415 . S
C710 H700 0.930 . S
C710 C708 1.419 . S
C710 C711 1.362 . S
C711 H701 0.930 . S
C711 C704 1.409 . S
C711 C710 1.362 . S
H712 C718 0.930 . S
H713 C721 0.930 . S
H714 C722 0.930 . S
H715 C723 0.930 . S
H716 C726 0.930 . S
H717 C727 0.930 . S
C718 H712 0.930 . S
C718 C719 1.355 . S
C718 C720 1.415 . S
C719 C718 1.355 . S
C719 C721 1.419 . S
C720 C718 1.415 . S
C720 C725 1.425 . S
C720 C727 1.409 . S
C721 H713 0.930 . S
C721 C719 1.419 . S
C721 C722 1.362 . S
C722 H714 0.930 . S
C722 C721 1.362 . S
C722 C725 1.409 . S
C723 H715 0.930 . S
C723 C724 1.355 . S
C723 C725 1.415 . S
C724 C723 1.355 . S
C724 C726 1.419 . S
C725 C720 1.425 . S
C725 C722 1.409 . S
C725 C723 1.415 . S
C726 H716 0.930 . S
C726 C724 1.419 . S
C726 C727 1.362 . S
C727 H717 0.930 . S
C727 C720 1.409 . S
C727 C726 1.362 . S
H728 C734 0.930 . S
H729 C737 0.930 . S
H730 C738 0.930 . S
H731 C739 0.930 . S
H732 C742 0.930 . S
H733 C743 0.930 . S
C734 H728 0.930 . S
C734 C735 1.355 . S
C734 C736 1.415 . S
C735 C734 1.355 . S
C735 C737 1.419 . S
C736 C734 1.415 . S
C736 C741 1.425 . S
C736 C743 1.409 . S
C737 H729 0.930 . S
C737 C735 1.419 . S
C737 C738 1.362 . S
C738 H730 0.930 . S
C738 C737 1.362 . S
C738 C741 1.409 . S
C739 H731 0.930 . S
C739 C740 1.355 . S
C739 C741 1.415 . S
C740 C739 1.355 . S
C740 C742 1.419 . S
C741 C736 1.425 . S
C741 C738 1.409 . S
C741 C739 1.415 . S
C742 H732 0.930 . S
C742 C740 1.419 . S
C742 C743 1.362 . S
C743 H733 0.930 . S
C743 C736 1.409 . S
C743 C742 1.362 . S
H744 C750 0.930 . S
H745 C753 0.930 . S
H746 C754 0.930 . S
H747 C755 0.930 . S
H748 C758 0.930 . S
H749 C759 0.930 . S
C750 H744 0.930 . S
C750 C751 1.355 . S
C750 C752 1.415 . S
C751 C750 1.355 . S
C751 C753 1.419 . S
C752 C750 1.415 . S
C752 C757 1.425 . S
C752 C759 1.409 . S
C753 H745 0.930 . S
C753 C751 1.419 . S
C753 C754 1.362 . S
C754 H746 0.930 . S
C754 C753 1.362 . S
C754 C757 1.409 . S
C755 H747 0.930 . S
C755 C756 1.355 . S
C755 C757 1.415 . S
C756 C755 1.355 . S
C756 C758 1.419 . S
C757 C752 1.425 . S
C757 C754 1.409 . S
C757 C755 1.415 . S
C758 H748 0.930 . S
C758 C756 1.419 . S
C758 C759 1.362 . S
C759 H749 0.930 . S
C759 C752 1.409 . S
C759 C758 1.362 . S
H760 C766 0.930 . S
H761 C769 0.930 . S
H762 C770 0.930 . S
H763 C771 0.930 . S
H764 C774 0.930 . S
H765 C775 0.930 . S
C766 H760 0.930 . S
C766 C767 1.355 . S
C766 C768 1.415 1_565 S
C767 C766 1.355 . S
C767 C769 1.419 . S
C768 C766 1.415 1_545 S
C768 C773 1.424 . S
C768 C775 1.409 . S
C769 H761 0.930 . S
C769 C767 1.419 . S
C769 C770 1.362 . S
C770 H762 0.930 . S
C770 C769 1.362 . S
C770 C773 1.413 1_565 S
C771 H763 0.930 . S
C771 C772 1.355 . S
C771 C773 1.413 . S
C772 C771 1.355 . S
C772 C774 1.419 . S
C773 C768 1.424 . S
C773 C770 1.413 1_545 S
C773 C771 1.413 . S
C774 H764 0.930 . S
C774 C772 1.419 . S
C774 C775 1.362 . S
C775 H765 0.930 . S
C775 C768 1.409 . S
C775 C774 1.362 . S
H776 C782 0.930 . S
H777 C785 0.930 . S
H778 C786 0.930 . S
H779 C787 0.930 . S
H780 C790 0.930 . S
H781 C791 0.930 . S
C782 H776 0.930 . S
C782 C783 1.355 . S
C782 C784 1.415 1_655 S
C783 C782 1.355 . S
C783 C785 1.419 . S
C784 C782 1.415 1_455 S
C784 C789 1.427 1_455 S
C784 C791 1.409 . S
C785 H777 0.930 . S
C785 C783 1.419 . S
C785 C786 1.362 . S
C786 H778 0.930 . S
C786 C785 1.362 . S
C786 C789 1.421 . S
C787 H779 0.930 . S
C787 C788 1.355 . S
C787 C789 1.401 1_455 S
C788 C787 1.355 . S
C788 C790 1.419 . S
C789 C784 1.427 1_655 S
C789 C786 1.421 . S
C789 C787 1.401 1_655 S
C790 H780 0.930 . S
C790 C788 1.419 . S
C790 C791 1.362 . S
C791 H781 0.930 . S
C791 C784 1.409 . S
C791 C790 1.362 . S
C367 C47 1.591 . S
C372 C2 1.655 . S
C383 C87 1.571 . S
C388 C42 1.642 . S
C399 C82 1.678 . S
C404 C7 1.628 . S
C415 C96 1.497 . S
C420 C51 1.464 . S
C431 C91 1.427 . S
C436 C16 1.483 . S
C447 C11 1.479 . S
C452 C56 1.507 . S
C463 C122 1.641 . S
C468 C167 1.569 . S
C479 C207 1.570 . S
C484 C162 1.641 . S
C495 C202 1.653 . S
C500 C127 1.589 . S
C511 C171 1.414 . S
C516 C216 1.473 . S
C527 C211 1.486 . S
C532 C136 1.512 . S
C543 C176 1.469 . S
C548 C131 1.410 . S
C559 C287 1.616 . S
C564 C242 1.671 . S
C575 C282 1.684 . S
C580 C327 1.639 . S
C591 C322 1.653 . S
C596 C247 1.587 . S
C607 C336 1.469 . S
C612 C291 1.412 . S
C623 C331 1.468 . S
C628 C256 1.507 . S
C639 C251 1.437 . S
C644 C296 1.480 . S
C655 C210 2.622 . S
C660 C19 2.349 . S
C671 C130 2.636 . S
C676 C59 2.314 . S
C687 C99 2.331 . S
C692 C170 2.638 . S
C703 C90 2.634 . S
C708 C259 2.303 . S
C719 C10 2.636 . S
C724 C299 2.348 . S
C735 C339 2.306 . S
C740 C50 2.635 . S
C751 C139 2.314 . S
C756 C330 2.612 . S
C767 C179 2.305 . S
C772 C250 2.635 . S
C783 C290 2.638 . S
C788 C219 2.340 . S
