# Generated by pormake.
# Topology fcp, (5)-cn, num edge types: 1
# Building blocks:
#     Node 0, Type 0, BuildingBlock: XOMCOT_clean_sbu_1, # of connection points: 5
#     Node 1, Type 0, BuildingBlock: XOMCOT_clean_sbu_1, # of connection points: 5
#     Node 2, Type 0, BuildingBlock: XOMCOT_clean_sbu_1, # of connection points: 5
#     Node 3, Type 0, BuildingBlock: XOMCOT_clean_sbu_1, # of connection points: 5
#     Node 4, Type 0, BuildingBlock: XOMCOT_clean_sbu_1, # of connection points: 5
#     Node 5, Type 0, BuildingBlock: XOMCOT_clean_sbu_1, # of connection points: 5
#     Node 6, Type 0, BuildingBlock: XOMCOT_clean_sbu_1, # of connection points: 5
#     Node 7, Type 0, BuildingBlock: XOMCOT_clean_sbu_1, # of connection points: 5
#     Node 8, Type 0, BuildingBlock: XOMCOT_clean_sbu_1, # of connection points: 5
#     Node 9, Type 0, BuildingBlock: XOMCOT_clean_sbu_1, # of connection points: 5
#     Node 10, Type 0, BuildingBlock: XOMCOT_clean_sbu_1, # of connection points: 5
#     Node 11, Type 0, BuildingBlock: XOMCOT_clean_sbu_1, # of connection points: 5
#     Node 12, Type 0, BuildingBlock: XOMCOT_clean_sbu_1, # of connection points: 5
#     Node 13, Type 0, BuildingBlock: XOMCOT_clean_sbu_1, # of connection points: 5
#     Node 14, Type 0, BuildingBlock: XOMCOT_clean_sbu_1, # of connection points: 5
#     Node 15, Type 0, BuildingBlock: XOMCOT_clean_sbu_1, # of connection points: 5
#     Node 16, Type 0, BuildingBlock: XOMCOT_clean_sbu_1, # of connection points: 5
#     Node 17, Type 0, BuildingBlock: XOMCOT_clean_sbu_1, # of connection points: 5
#     Node 18, Type 0, BuildingBlock: XOMCOT_clean_sbu_1, # of connection points: 5
#     Node 19, Type 0, BuildingBlock: XOMCOT_clean_sbu_1, # of connection points: 5
#     Node 20, Type 0, BuildingBlock: XOMCOT_clean_sbu_1, # of connection points: 5
#     Node 21, Type 0, BuildingBlock: XOMCOT_clean_sbu_1, # of connection points: 5
#     Node 22, Type 0, BuildingBlock: XOMCOT_clean_sbu_1, # of connection points: 5
#     Node 23, Type 0, BuildingBlock: XOMCOT_clean_sbu_1, # of connection points: 5
#     Edge 24, Type (0, 0), BuildingBlock: AJUNOK_clean_linker_0, # of connection points: 2
#     Edge 25, Type (0, 0), BuildingBlock: AJUNOK_clean_linker_0, # of connection points: 2
#     Edge 26, Type (0, 0), BuildingBlock: AJUNOK_clean_linker_0, # of connection points: 2
#     Edge 27, Type (0, 0), BuildingBlock: AJUNOK_clean_linker_0, # of connection points: 2
#     Edge 28, Type (0, 0), BuildingBlock: AJUNOK_clean_linker_0, # of connection points: 2
#     Edge 29, Type (0, 0), BuildingBlock: AJUNOK_clean_linker_0, # of connection points: 2
#     Edge 30, Type (0, 0), BuildingBlock: AJUNOK_clean_linker_0, # of connection points: 2
#     Edge 31, Type (0, 0), BuildingBlock: AJUNOK_clean_linker_0, # of connection points: 2
#     Edge 32, Type (0, 0), BuildingBlock: AJUNOK_clean_linker_0, # of connection points: 2
#     Edge 33, Type (0, 0), BuildingBlock: AJUNOK_clean_linker_0, # of connection points: 2
#     Edge 34, Type (0, 0), BuildingBlock: AJUNOK_clean_linker_0, # of connection points: 2
#     Edge 35, Type (0, 0), BuildingBlock: AJUNOK_clean_linker_0, # of connection points: 2
#     Edge 36, Type (0, 0), BuildingBlock: AJUNOK_clean_linker_0, # of connection points: 2
#     Edge 37, Type (0, 0), BuildingBlock: AJUNOK_clean_linker_0, # of connection points: 2
#     Edge 38, Type (0, 0), BuildingBlock: AJUNOK_clean_linker_0, # of connection points: 2
#     Edge 39, Type (0, 0), BuildingBlock: AJUNOK_clean_linker_0, # of connection points: 2
#     Edge 40, Type (0, 0), BuildingBlock: AJUNOK_clean_linker_0, # of connection points: 2
#     Edge 41, Type (0, 0), BuildingBlock: AJUNOK_clean_linker_0, # of connection points: 2
#     Edge 42, Type (0, 0), BuildingBlock: AJUNOK_clean_linker_0, # of connection points: 2
#     Edge 43, Type (0, 0), BuildingBlock: AJUNOK_clean_linker_0, # of connection points: 2
#     Edge 44, Type (0, 0), BuildingBlock: AJUNOK_clean_linker_0, # of connection points: 2
#     Edge 45, Type (0, 0), BuildingBlock: AJUNOK_clean_linker_0, # of connection points: 2
#     Edge 46, Type (0, 0), BuildingBlock: AJUNOK_clean_linker_0, # of connection points: 2
#     Edge 47, Type (0, 0), BuildingBlock: AJUNOK_clean_linker_0, # of connection points: 2
#     Edge 48, Type (0, 0), BuildingBlock: AJUNOK_clean_linker_0, # of connection points: 2
#     Edge 49, Type (0, 0), BuildingBlock: AJUNOK_clean_linker_0, # of connection points: 2
#     Edge 50, Type (0, 0), BuildingBlock: AJUNOK_clean_linker_0, # of connection points: 2
#     Edge 51, Type (0, 0), BuildingBlock: AJUNOK_clean_linker_0, # of connection points: 2
#     Edge 52, Type (0, 0), BuildingBlock: AJUNOK_clean_linker_0, # of connection points: 2
#     Edge 53, Type (0, 0), BuildingBlock: AJUNOK_clean_linker_0, # of connection points: 2
#     Edge 54, Type (0, 0), BuildingBlock: AJUNOK_clean_linker_0, # of connection points: 2
#     Edge 55, Type (0, 0), BuildingBlock: AJUNOK_clean_linker_0, # of connection points: 2
#     Edge 56, Type (0, 0), BuildingBlock: AJUNOK_clean_linker_0, # of connection points: 2
#     Edge 57, Type (0, 0), BuildingBlock: AJUNOK_clean_linker_0, # of connection points: 2
#     Edge 58, Type (0, 0), BuildingBlock: AJUNOK_clean_linker_0, # of connection points: 2
#     Edge 59, Type (0, 0), BuildingBlock: AJUNOK_clean_linker_0, # of connection points: 2
#     Edge 60, Type (0, 0), BuildingBlock: AJUNOK_clean_linker_0, # of connection points: 2
#     Edge 61, Type (0, 0), BuildingBlock: AJUNOK_clean_linker_0, # of connection points: 2
#     Edge 62, Type (0, 0), BuildingBlock: AJUNOK_clean_linker_0, # of connection points: 2
#     Edge 63, Type (0, 0), BuildingBlock: AJUNOK_clean_linker_0, # of connection points: 2
#     Edge 64, Type (0, 0), BuildingBlock: AJUNOK_clean_linker_0, # of connection points: 2
#     Edge 65, Type (0, 0), BuildingBlock: AJUNOK_clean_linker_0, # of connection points: 2
#     Edge 66, Type (0, 0), BuildingBlock: AJUNOK_clean_linker_0, # of connection points: 2
#     Edge 67, Type (0, 0), BuildingBlock: AJUNOK_clean_linker_0, # of connection points: 2
#     Edge 68, Type (0, 0), BuildingBlock: AJUNOK_clean_linker_0, # of connection points: 2
#     Edge 69, Type (0, 0), BuildingBlock: AJUNOK_clean_linker_0, # of connection points: 2
#     Edge 70, Type (0, 0), BuildingBlock: AJUNOK_clean_linker_0, # of connection points: 2
#     Edge 71, Type (0, 0), BuildingBlock: AJUNOK_clean_linker_0, # of connection points: 2
#     Edge 72, Type (0, 0), BuildingBlock: AJUNOK_clean_linker_0, # of connection points: 2
#     Edge 73, Type (0, 0), BuildingBlock: AJUNOK_clean_linker_0, # of connection points: 2
#     Edge 74, Type (0, 0), BuildingBlock: AJUNOK_clean_linker_0, # of connection points: 2
#     Edge 75, Type (0, 0), BuildingBlock: AJUNOK_clean_linker_0, # of connection points: 2
#     Edge 76, Type (0, 0), BuildingBlock: AJUNOK_clean_linker_0, # of connection points: 2
#     Edge 77, Type (0, 0), BuildingBlock: AJUNOK_clean_linker_0, # of connection points: 2
#     Edge 78, Type (0, 0), BuildingBlock: AJUNOK_clean_linker_0, # of connection points: 2
#     Edge 79, Type (0, 0), BuildingBlock: AJUNOK_clean_linker_0, # of connection points: 2
#     Edge 80, Type (0, 0), BuildingBlock: AJUNOK_clean_linker_0, # of connection points: 2
#     Edge 81, Type (0, 0), BuildingBlock: AJUNOK_clean_linker_0, # of connection points: 2
#     Edge 82, Type (0, 0), BuildingBlock: AJUNOK_clean_linker_0, # of connection points: 2
#     Edge 83, Type (0, 0), BuildingBlock: AJUNOK_clean_linker_0, # of connection points: 2
# Relax obj value: 0.095
# Max RMSD: 0.137
# Mean RMSD: 0.137
data_MOF--net-fcp--node1-XOMCOT_clean_sbu_1--edge1-AJUNOK_clean_linker_0
_symmetry_space_group_name_H-M    P1
_symmetry_Int_Tables_number       1
_symmetry_cell_setting            triclinic
loop_
_symmetry_equiv_pos_as_xyz
'x, y, z'
_cell_length_a     39.232671
_cell_length_b     39.284517
_cell_length_c     39.284091
_cell_angle_alpha  89.955241
_cell_angle_beta   90.078911
_cell_angle_gamma 89.873244
loop_
_atom_site_label
_atom_site_type_symbol
_atom_site_fract_x
_atom_site_fract_y
_atom_site_fract_z
_atom_type_partial_charge
C0 C 0.03173 0.33519 0.17792 0.0
C1 C 1.00266 0.34245 0.19609 0.0
N2 N 1.01113 0.36308 0.22214 0.0
N3 N 0.05843 0.35116 0.1924 0.0
C4 C 0.04518 0.36761 0.21955 0.0
H5 H 0.03341 0.31926 0.15553 0.0
Co6 Co 0.10316 0.34904 0.17635 0.0
C7 C 0.12032 0.42275 0.19368 0.0
O8 O 0.1194 0.43329 0.16199 0.0
N9 N 0.14856 0.34548 0.16056 0.0
C10 C 0.20124 0.35393 0.14112 0.0
C11 C 0.17115 0.36936 0.15044 0.0
C12 C 0.1656 0.31573 0.15671 0.0
N13 N 0.19776 0.32015 0.14529 0.0
O14 O 0.11585 0.32348 0.2162 0.0
H15 H 0.16634 0.39624 0.14889 0.0
H16 H 0.15456 0.2911 0.16197 0.0
O17 O 0.11442 0.39146 0.20064 0.0
C18 C 0.10711 0.29227 0.21456 0.0
O19 O 0.09095 0.282 0.18712 0.0
N20 N 0.08916 0.37141 0.13576 0.0
C21 C 0.05745 0.38973 0.0744 0.0
C22 C 0.04968 0.40687 0.10473 0.0
C23 C 0.0655 0.39708 0.13518 0.0
C24 C 0.09718 0.35476 0.10635 0.0
C25 C 0.08193 0.36369 0.07547 0.0
H26 H 0.05748 0.4091 0.15859 0.0
H27 H 0.11377 0.33279 0.10699 0.0
H28 H 0.0601 0.38284 0.23699 0.0
H29 H 0.97744 0.33257 0.19099 0.0
H30 H 0.22348 0.36656 0.13089 0.0
H31 H 0.03049 0.42672 0.10518 0.0
H32 H 0.08765 0.3487 0.05306 0.0
C33 C 0.83978 0.49927 0.35211 0.0
C34 C 0.84612 0.52775 0.33284 0.0
N35 N 0.86023 0.5179 0.3031 0.0
N36 N 0.85068 0.47154 0.33515 0.0
C37 C 0.86266 0.4836 0.30527 0.0
H38 H 0.82892 0.49881 0.37741 0.0
Co39 Co 0.84911 0.42696 0.35135 0.0
C40 C 0.92202 0.4088 0.33048 0.0
O41 O 0.93457 0.40923 0.36147 0.0
N42 N 0.84628 0.3818 0.36738 0.0
C43 C 0.85569 0.32997 0.38856 0.0
C44 C 0.87049 0.36027 0.37916 0.0
C45 C 0.81695 0.36406 0.37044 0.0
N46 N 0.82198 0.33239 0.38288 0.0
O47 O 0.82211 0.41446 0.31243 0.0
H48 H 0.89704 0.36618 0.38219 0.0
H49 H 0.79215 0.37427 0.36405 0.0
O50 O 0.89046 0.41544 0.32543 0.0
C51 C 0.79097 0.42365 0.31429 0.0
O52 O 0.78114 0.44041 0.34151 0.0
N53 N 0.87301 0.44072 0.39099 0.0
C54 C 0.89217 0.47391 0.45112 0.0
C55 C 0.90998 0.47958 0.42068 0.0
C56 C 0.8996 0.46322 0.39076 0.0
C57 C 0.85632 0.43403 0.42069 0.0
C58 C 0.86569 0.45 0.451 0.0
H59 H 0.91152 0.47034 0.367 0.0
H60 H 0.83392 0.41807 0.4206 0.0
H61 H 0.87289 0.46746 0.28547 0.0
H62 H 0.8418 0.5537 0.34093 0.0
H63 H 0.86855 0.30843 0.40005 0.0
H64 H 0.93074 0.49765 0.41959 0.0
H65 H 0.85074 0.44533 0.47368 0.0
C66 C 0.99523 0.69352 0.18019 0.0
C67 C 0.02316 0.68735 0.2006 0.0
N68 N 1.01337 0.66717 0.22655 0.0
N69 N 0.96809 0.67686 0.19293 0.0
C70 C 0.97987 0.66121 0.22126 0.0
H71 H 0.99464 0.70909 0.15747 0.0
Co72 Co 0.92397 0.67761 0.17523 0.0
C73 C 0.91076 0.60323 0.1943 0.0
O74 O 0.91743 0.58949 0.16461 0.0
N75 N 0.879 0.67939 0.15838 0.0
C76 C 0.82675 0.66818 0.13918 0.0
C77 C 0.8574 0.65421 0.14937 0.0
C78 C 0.861 0.70827 0.15307 0.0
N79 N 0.8291 0.70226 0.14172 0.0
O80 O 0.90945 0.70197 0.21477 0.0
H81 H 0.86346 0.62742 0.14949 0.0
H82 H 0.87114 0.73345 0.1572 0.0
O83 O 0.91302 0.63534 0.19873 0.0
C84 C 0.91415 0.734 0.21349 0.0
O85 O 0.92836 0.74732 0.18631 0.0
N86 N 0.93968 0.65605 0.13475 0.0
C87 C 0.97362 0.64166 0.07365 0.0
C88 C 0.98255 0.62469 0.10383 0.0
C89 C 0.96536 0.63239 0.13416 0.0
C90 C 0.93018 0.67188 0.10526 0.0
C91 C 0.94623 0.66456 0.07451 0.0
H92 H 0.97437 0.62101 0.15758 0.0
H93 H 0.91171 0.69227 0.10558 0.0
H94 H 0.96425 0.64543 0.23751 0.0
H95 H 0.04858 0.69738 0.19698 0.0
H96 H 0.80491 0.65434 0.12966 0.0
H97 H 1.00416 0.60752 0.10457 0.0
H98 H 0.93861 0.67842 0.05188 0.0
C99 C 0.18835 0.53096 0.3493 0.0
C100 C 0.18185 0.50288 0.32944 0.0
N101 N 0.16303 0.51284 0.30249 0.0
N102 N 0.17338 0.55847 0.33517 0.0
C103 C 0.15822 0.54669 0.30662 0.0
H104 H 0.2031 0.53141 0.37258 0.0
Co105 Co 0.17563 0.60265 0.35251 0.0
C106 C 0.10173 0.62062 0.33568 0.0
O107 O 0.09102 0.61942 0.36729 0.0
N108 N 0.17933 0.64724 0.36947 0.0
C109 C 0.1721 0.69999 0.38897 0.0
C110 C 0.15585 0.67085 0.37832 0.0
C111 C 0.20956 0.66268 0.37512 0.0
N112 N 0.2059 0.69469 0.38712 0.0
O113 O 0.2004 0.61679 0.31279 0.0
H114 H 0.12868 0.66756 0.3776 0.0
H115 H 0.23386 0.6506 0.37022 0.0
O116 O 0.13305 0.61457 0.32891 0.0
C117 C 0.23088 0.60592 0.30993 0.0
O118 O 0.24331 0.58528 0.33317 0.0
N119 N 0.15377 0.58762 0.39295 0.0
C120 C 0.13572 0.55518 0.45391 0.0
C121 C 0.11814 0.54821 0.42358 0.0
C122 C 0.12774 0.56446 0.39331 0.0
C123 C 0.17094 0.59471 0.42233 0.0
C124 C 0.16214 0.57912 0.45301 0.0
H125 H 0.11535 0.55714 0.36984 0.0
H126 H 0.19315 0.61088 0.42183 0.0
H127 H 0.14365 0.56258 0.28942 0.0
H128 H 0.1908 0.47721 0.33411 0.0
H129 H 0.16 0.72305 0.39804 0.0
H130 H 0.098 0.5294 0.423 0.0
H131 H 0.17745 0.5842 0.47539 0.0
C132 C 0.0348 0.69013 0.8475 0.0
C133 C 1.00578 0.68258 0.82934 0.0
N134 N 0.01437 0.66158 0.80363 0.0
N135 N 0.06158 0.67395 0.83334 0.0
C136 C 0.04843 0.6571 0.80637 0.0
H137 H 0.0364 0.70641 0.86963 0.0
Co138 Co 0.1063 0.67635 0.84932 0.0
C139 C 0.12349 0.60246 0.83362 0.0
O140 O 0.12303 0.59241 0.86549 0.0
N141 N 0.15146 0.68022 0.86479 0.0
C142 C 0.20497 0.67362 0.88261 0.0
C143 C 0.17596 0.65706 0.872 0.0
C144 C 0.16629 0.71055 0.87118 0.0
N145 N 0.1987 0.70727 0.88232 0.0
O146 O 0.11916 0.70037 0.80888 0.0
H147 H 0.17339 0.62988 0.87017 0.0
H148 H 0.15338 0.73465 0.86767 0.0
O149 O 0.11738 0.63359 0.82629 0.0
C150 C 0.10941 0.73125 0.80698 0.0
O151 O 0.09092 0.74425 0.8316 0.0
N152 N 0.09252 0.65522 0.89067 0.0
C153 C 0.05972 0.64129 0.95244 0.0
C154 C 0.0518 0.62264 0.92303 0.0
C155 C 0.06844 0.63008 0.89233 0.0
C156 C 0.10128 0.67255 0.91948 0.0
C157 C 0.08578 0.66554 0.95056 0.0
H158 H 0.06018 0.61728 0.86942 0.0
H159 H 0.11851 0.69386 0.91825 0.0
H160 H 0.06343 0.64166 0.78918 0.0
H161 H 0.98049 0.69248 0.83422 0.0
H162 H 0.2286 0.6618 0.89065 0.0
H163 H 0.03127 0.60427 0.92308 0.0
H164 H 0.09262 0.68065 0.97259 0.0
C165 C 0.19218 0.49448 0.67753 0.0
C166 C 0.18671 0.52279 0.69753 0.0
N167 N 0.16871 0.51322 0.72511 0.0
N168 N 0.17724 0.46735 0.69224 0.0
C169 C 0.16332 0.47952 0.72122 0.0
H170 H 0.20603 0.49366 0.65375 0.0
Co171 Co 0.17707 0.42272 0.67638 0.0
C172 C 0.10428 0.40522 0.69283 0.0
O173 O 0.09701 0.39799 0.66099 0.0
N174 N 0.17835 0.37691 0.66143 0.0
C175 C 0.17499 0.32024 0.6616 0.0
C176 C 0.16004 0.3499 0.67242 0.0
C177 C 0.20492 0.36252 0.64477 0.0
N178 N 0.20333 0.3281 0.64414 0.0
O179 O 0.20203 0.40907 0.71581 0.0
H180 H 0.13938 0.35071 0.6904 0.0
H181 H 0.22638 0.37698 0.63541 0.0
O182 O 0.13445 0.41458 0.70071 0.0
C183 C 0.23415 0.41232 0.71264 0.0
O184 O 0.24604 0.42447 0.68383 0.0
N185 N 0.1547 0.43763 0.6361 0.0
C186 C 0.13594 0.47231 0.5765 0.0
C187 C 0.1176 0.47697 0.6068 0.0
C188 C 0.12768 0.45976 0.63644 0.0
C189 C 0.17213 0.43229 0.60656 0.0
C190 C 0.16293 0.44891 0.57651 0.0
H191 H 0.11507 0.46591 0.66009 0.0
H192 H 0.19502 0.41717 0.60653 0.0
H193 H 0.14904 0.46403 0.7389 0.0
H194 H 0.19562 0.54835 0.6924 0.0
H195 H 0.16736 0.29488 0.66913 0.0
H196 H 0.09656 0.49481 0.60798 0.0
H197 H 0.17838 0.44516 0.55398 0.0
C198 C 0.99829 0.33591 0.84858 0.0
C199 C 0.026 0.34319 0.82843 0.0
N200 N 0.01523 0.36184 0.80168 0.0
N201 N 0.97025 0.35024 0.83478 0.0
C202 C 0.98134 0.36576 0.80619 0.0
H203 H 0.99845 0.32117 0.87185 0.0
Co204 Co 0.92629 0.3473 0.85225 0.0
C205 C 0.90592 0.41993 0.83236 0.0
O206 O 0.90701 0.43278 0.86318 0.0
N207 N 0.88168 0.34325 0.86942 0.0
C208 C 0.83041 0.35164 0.89227 0.0
C209 C 0.86052 0.36685 0.88286 0.0
C210 C 0.86395 0.31385 0.8715 0.0
N211 N 0.8326 0.31828 0.88491 0.0
O212 O 0.91322 0.32107 0.81323 0.0
H213 H 0.86669 0.39318 0.88698 0.0
H214 H 0.87394 0.28942 0.86367 0.0
O215 O 0.91302 0.38854 0.8275 0.0
C216 C 0.92324 0.29018 0.81382 0.0
O217 O 0.94058 0.27966 0.84047 0.0
N218 N 0.9408 0.37058 0.89182 0.0
C219 C 0.97507 0.38936 0.95147 0.0
C220 C 0.9798 0.40767 0.92114 0.0
C221 C 0.96282 0.39754 0.89145 0.0
C222 C 0.93523 0.35323 0.92138 0.0
C223 C 0.95169 0.36244 0.95147 0.0
H224 H 0.96898 0.41007 0.86774 0.0
H225 H 0.9197 0.33053 0.9213 0.0
H226 H 0.96498 0.38009 0.78928 0.0
H227 H 0.052 0.33498 0.83283 0.0
H228 H 0.80918 0.3639 0.90491 0.0
H229 H 0.99754 0.42871 0.92 0.0
H230 H 0.9478 0.3471 0.97406 0.0
C231 C 0.83526 0.52882 0.67703 0.0
C232 C 0.84121 0.4997 0.69567 0.0
N233 N 0.86136 0.50778 0.72227 0.0
N234 N 0.85161 0.5551 0.69178 0.0
C235 C 0.86693 0.54158 0.7195 0.0
H236 H 0.81985 0.53085 0.65426 0.0
Co237 Co 0.85099 0.59994 0.67633 0.0
C238 C 0.92457 0.61522 0.69617 0.0
O239 O 0.93617 0.61577 0.66483 0.0
N240 N 0.84887 0.64553 0.6614 0.0
C241 C 0.85714 0.70044 0.65002 0.0
C242 C 0.87271 0.6701 0.65817 0.0
C243 C 0.81916 0.66165 0.65458 0.0
N244 N 0.82332 0.69518 0.64816 0.0
O245 O 0.82522 0.61269 0.71569 0.0
H246 H 0.89963 0.66705 0.6622 0.0
H247 H 0.79489 0.64875 0.65418 0.0
O248 O 0.89298 0.60956 0.7017 0.0
C249 C 0.79342 0.60633 0.71403 0.0
O250 O 0.78166 0.59112 0.68665 0.0
N251 N 0.87386 0.58617 0.63615 0.0
C252 C 0.89257 0.55491 0.57481 0.0
C253 C 0.90938 0.54675 0.60531 0.0
C254 C 0.8994 0.56238 0.63576 0.0
C255 C 0.85761 0.59463 0.60659 0.0
C256 C 0.8667 0.57957 0.57574 0.0
H257 H 0.91101 0.554 0.6593 0.0
H258 H 0.83575 0.61136 0.60705 0.0
H259 H 0.88203 0.55614 0.73731 0.0
H260 H 0.83075 0.47476 0.69051 0.0
H261 H 0.86971 0.72473 0.64674 0.0
H262 H 0.92908 0.5274 0.60588 0.0
H263 H 0.85191 0.58559 0.55322 0.0
C264 C 0.17524 0.02663 0.33859 0.0
C265 C 0.19462 0.99787 0.34404 0.0
N266 N 0.22609 1.00759 0.3537 0.0
N267 N 0.19411 0.05443 0.34564 0.0
C268 C 0.22528 0.04196 0.35354 0.0
H269 H 0.1487 0.02715 0.33115 0.0
Co270 Co 0.17982 0.10001 0.34385 0.0
C271 C 0.21404 0.09657 0.41435 0.0
O272 O 0.21038 0.06368 0.41895 0.0
N273 N 0.16594 0.14544 0.34083 0.0
C274 C 0.14836 0.1983 0.35125 0.0
C275 C 0.15871 0.16797 0.36575 0.0
C276 C 0.15968 0.16245 0.31162 0.0
N277 N 0.1487 0.19455 0.3172 0.0
O278 O 0.22095 0.11149 0.32054 0.0
H279 H 0.16011 0.16252 0.3927 0.0
H280 H 0.16273 0.15128 0.28665 0.0
O281 O 0.20238 0.11079 0.3874 0.0
C282 C 0.22038 0.10404 0.28899 0.0
O283 O 0.19313 0.08889 0.27678 0.0
N284 N 0.1374 0.08835 0.36377 0.0
C285 C 0.07397 0.05761 0.37448 0.0
C286 C 0.10006 0.05471 0.39881 0.0
C287 C 0.13155 0.07063 0.39315 0.0
C288 C 0.11135 0.09355 0.34132 0.0
C289 C 0.07929 0.07939 0.3467 0.0
H290 H 0.1515 0.06628 0.41119 0.0
H291 H 0.11598 0.10693 0.31774 0.0
H292 H 0.24665 0.05783 0.36068 0.0
H293 H 0.18555 0.97189 0.34307 0.0
H294 H 0.14009 0.22092 0.36466 0.0
H295 H 0.09702 0.0385 0.42091 0.0
H296 H 0.05948 0.08382 0.32799 0.0
C297 C 0.52986 0.35007 0.18829 0.0
C298 C 0.50199 0.33011 0.18096 0.0
N299 N 0.51246 0.30361 0.16185 0.0
N300 N 0.55773 0.33642 0.17359 0.0
C301 C 0.54634 0.30815 0.15769 0.0
H302 H 0.52992 0.37305 0.20345 0.0
Co303 Co 0.60192 0.35363 0.17694 0.0
C304 C 0.62227 0.33335 0.10446 0.0
O305 O 0.6215 0.36416 0.09146 0.0
N306 N 0.64662 0.37053 0.18167 0.0
C307 C 0.69907 0.39105 0.17477 0.0
C308 C 0.66985 0.38059 0.15839 0.0
C309 C 0.66231 0.37547 0.21194 0.0
N310 N 0.69417 0.388 0.2085 0.0
O311 O 0.6147 0.31455 0.20336 0.0
H312 H 0.66604 0.38106 0.13129 0.0
H313 H 0.65058 0.3698 0.23614 0.0
O314 O 0.61522 0.32872 0.13587 0.0
C315 C 0.60502 0.31523 0.2343 0.0
O316 O 0.58749 0.34177 0.24474 0.0
N317 N 0.58786 0.39334 0.15331 0.0
C318 C 0.554 0.45316 0.13393 0.0
C319 C 0.54887 0.4227 0.116 0.0
C320 C 0.56572 0.39296 0.12637 0.0
C321 C 0.59394 0.42308 0.17018 0.0
C322 C 0.57771 0.45326 0.16064 0.0
H323 H 0.55929 0.36921 0.11408 0.0
H324 H 0.60959 0.42315 0.19283 0.0
H325 H 0.56252 0.29147 0.14297 0.0
H326 H 0.47614 0.33442 0.18955 0.0
H327 H 0.72186 0.40092 0.16283 0.0
H328 H 0.53081 0.4215 0.09517 0.0
H329 H 0.5819 0.47598 0.17567 0.0
C330 C 0.84807 0.99492 0.33109 0.0
C331 C 0.82965 0.02408 0.33757 0.0
N332 N 0.80368 0.01604 0.35848 0.0
N333 N 0.83388 0.96867 0.34801 0.0
C334 C 0.80656 0.98223 0.36402 0.0
H335 H 0.87042 0.99288 0.31513 0.0
Co336 Co 0.84913 0.9236 0.34751 0.0
C337 C 0.83324 0.90969 0.42129 0.0
O338 O 0.86551 0.90954 0.43015 0.0
N339 N 0.86321 0.87769 0.34539 0.0
C340 C 0.87199 0.82209 0.35247 0.0
C341 C 0.86387 0.85218 0.3685 0.0
C342 C 0.87124 0.86233 0.31568 0.0
N343 N 0.87625 0.82847 0.3191 0.0
O344 O 0.8091 0.91123 0.32244 0.0
H345 H 0.8578 0.85439 0.3951 0.0
H346 H 0.87364 0.87604 0.29197 0.0
O347 O 0.82504 0.91466 0.39016 0.0
C348 C 0.8122 0.91767 0.29077 0.0
O349 O 0.84027 0.93267 0.28051 0.0
N350 N 0.89065 0.93713 0.36947 0.0
C351 C 0.95263 0.9709 0.38031 0.0
C352 C 0.92283 0.98175 0.3968 0.0
C353 C 0.89216 0.96425 0.39138 0.0
C354 C 0.92015 0.92472 0.35574 0.0
C355 C 0.95137 0.94043 0.36185 0.0
H356 H 0.86912 0.97431 0.40264 0.0
H357 H 0.91979 0.90418 0.33765 0.0
H358 H 0.78919 0.96771 0.37968 0.0
H359 H 0.83458 0.04908 0.32709 0.0
H360 H 0.87348 0.79725 0.36432 0.0
H361 H 0.92261 1.00489 0.41177 0.0
H362 H 0.974 0.93007 0.34994 0.0
C363 C 0.49403 0.67855 0.19366 0.0
C364 C 0.52223 0.69817 0.18676 0.0
N365 N 0.51243 0.72444 0.16697 0.0
N366 N 0.46662 0.69219 0.17803 0.0
C367 C 0.47862 0.72013 0.16197 0.0
H368 H 0.49346 0.65572 0.20906 0.0
Co369 Co 0.42259 0.67442 0.18012 0.0
C370 C 0.4005 0.69431 0.10797 0.0
O371 O 0.39941 0.66332 0.09558 0.0
N372 N 0.37791 0.65651 0.18321 0.0
C373 C 0.33032 0.62686 0.17444 0.0
C374 C 0.36088 0.63684 0.16066 0.0
C375 C 0.35694 0.65796 0.21055 0.0
N376 N 0.3278 0.64034 0.20576 0.0
O377 O 0.40855 0.71337 0.20592 0.0
H378 H 0.3708 0.62808 0.13667 0.0
H379 H 0.36362 0.67 0.23435 0.0
O380 O 0.40962 0.6992 0.13882 0.0
C381 C 0.41723 0.71354 0.23717 0.0
O382 O 0.4345 0.68739 0.24906 0.0
N383 N 0.43805 0.63517 0.15712 0.0
C384 C 0.47086 0.57522 0.13688 0.0
C385 C 0.47529 0.60554 0.11847 0.0
C386 C 0.45874 0.63539 0.12913 0.0
C387 C 0.43388 0.60595 0.1754 0.0
C388 C 0.44956 0.5757 0.16548 0.0
H389 H 0.46404 0.65901 0.11606 0.0
H390 H 0.41957 0.60644 0.1989 0.0
H391 H 0.46303 0.73667 0.14645 0.0
H392 H 0.54787 0.69376 0.19602 0.0
H393 H 0.31193 0.6099 0.16288 0.0
H394 H 0.49225 0.60641 0.09676 0.0
H395 H 0.44659 0.5533 0.18129 0.0
C396 C 0.18205 0.99689 0.69524 0.0
C397 C 0.20183 0.02483 0.68773 0.0
N398 N 0.22675 0.01497 0.6663 0.0
N399 N 0.1942 0.96963 0.67833 0.0
C400 C 0.22147 0.98142 0.66098 0.0
H401 H 0.16012 0.99639 0.7119 0.0
Co402 Co 0.1761 0.92585 0.68044 0.0
C403 C 0.19489 0.90563 0.6073 0.0
O404 O 0.16405 0.90691 0.59436 0.0
N405 N 0.1581 0.88122 0.68331 0.0
C406 C 0.13028 0.8329 0.67285 0.0
C407 C 0.13997 0.86386 0.65975 0.0
C408 C 0.15877 0.86013 0.7106 0.0
N409 N 0.14237 0.83052 0.70479 0.0
O410 O 0.21575 0.91153 0.70524 0.0
H411 H 0.13248 0.87356 0.63522 0.0
H412 H 0.16957 0.86685 0.73495 0.0
O413 O 0.19981 0.91306 0.63858 0.0
C414 C 0.21514 0.91665 0.73724 0.0
O415 O 0.18768 0.92992 0.75103 0.0
N416 N 0.13613 0.94168 0.65848 0.0
C417 C 0.0752 0.97415 0.63991 0.0
C418 C 0.10528 0.97969 0.62137 0.0
C419 C 0.1356 0.96333 0.63121 0.0
C420 C 0.10716 0.93646 0.67692 0.0
C421 C 0.07647 0.95197 0.66784 0.0
H422 H 0.15897 0.96941 0.618 0.0
H423 H 0.10815 0.92141 0.69997 0.0
H424 H 0.2368 0.96592 0.64426 0.0
H425 H 0.19846 0.05033 0.69763 0.0
H426 H 0.11479 0.81396 0.66019 0.0
H427 H 0.10558 0.9973 0.60015 0.0
H428 H 0.05433 0.94809 0.68381 0.0
C429 C 0.49984 0.35115 0.83741 0.0
C430 C 0.5287 0.33267 0.84465 0.0
N431 N 0.51941 0.30291 0.8591 0.0
N432 N 0.47232 0.3338 0.84816 0.0
C433 C 0.48493 0.30439 0.86087 0.0
H434 H 0.49899 0.3763 0.8262 0.0
Co435 Co 0.42755 0.34989 0.84595 0.0
C436 C 0.408 0.33096 0.91875 0.0
O437 O 0.40711 0.36226 0.93035 0.0
N438 N 0.38226 0.36598 0.84252 0.0
C439 C 0.33186 0.39098 0.85058 0.0
C440 C 0.36249 0.3824 0.86541 0.0
C441 C 0.3631 0.36541 0.81387 0.0
N442 N 0.33224 0.38011 0.81814 0.0
O443 O 0.41496 0.31021 0.82062 0.0
H444 H 0.37027 0.38983 0.89058 0.0
H445 H 0.3719 0.35517 0.78992 0.0
O446 O 0.41595 0.32522 0.88772 0.0
C447 C 0.42412 0.30923 0.78954 0.0
O448 O 0.44173 0.33491 0.77734 0.0
N449 N 0.44125 0.38997 0.86871 0.0
C450 C 0.47404 0.45027 0.88726 0.0
C451 C 0.47911 0.42031 0.90608 0.0
C452 C 0.46286 0.39027 0.89607 0.0
C453 C 0.43527 0.41917 0.85087 0.0
C454 C 0.45102 0.44963 0.85996 0.0
H455 H 0.46943 0.36679 0.90889 0.0
H456 H 0.41995 0.41848 0.82798 0.0
H457 H 0.46903 0.28449 0.87127 0.0
H458 H 0.55446 0.3415 0.84078 0.0
H459 H 0.31178 0.40587 0.86222 0.0
H460 H 0.49666 0.41971 0.92737 0.0
H461 H 0.44693 0.47197 0.84428 0.0
C462 C 0.84716 0.03249 0.69262 0.0
C463 C 0.8276 1.00418 0.686 0.0
N464 N 0.80141 0.0136 0.66583 0.0
N465 N 0.83359 0.05951 0.67633 0.0
C466 C 0.8057 0.04725 0.66034 0.0
H467 H 0.86987 0.03342 0.70823 0.0
Co468 Co 0.85033 0.10377 0.67768 0.0
C469 C 0.83142 0.12096 0.60412 0.0
O470 O 0.86285 0.12176 0.59265 0.0
N471 N 0.86669 0.14882 0.68061 0.0
C472 C 0.88047 0.20342 0.67362 0.0
C473 C 0.86934 0.17432 0.65761 0.0
C474 C 0.87645 0.16324 0.71029 0.0
N475 N 0.88507 0.1963 0.70678 0.0
O476 O 0.81071 0.11734 0.70278 0.0
H477 H 0.86305 0.17275 0.63103 0.0
H478 H 0.8765 0.14984 0.7343 0.0
O479 O 0.82584 0.11464 0.63553 0.0
C480 C 0.8121 0.11242 0.73479 0.0
O481 O 0.83944 0.09833 0.74807 0.0
N482 N 0.89063 0.089 0.65531 0.0
C483 C 0.95105 0.05515 0.63745 0.0
C484 C 0.92068 0.04924 0.61947 0.0
C485 C 0.89065 0.06607 0.62909 0.0
C486 C 0.92024 0.09572 0.67228 0.0
C487 C 0.95069 0.07949 0.66351 0.0
H488 H 0.86703 0.05917 0.61672 0.0
H489 H 0.92007 0.1119 0.69446 0.0
H490 H 0.78915 0.06255 0.64453 0.0
H491 H 0.83201 0.97873 0.69565 0.0
H492 H 0.88476 0.22795 0.66182 0.0
H493 H 0.91978 0.03074 0.59907 0.0
H494 H 0.97329 0.08433 0.6786 0.0
C495 C 0.52979 0.67817 0.83274 0.0
C496 C 0.50117 0.69693 0.8404 0.0
N497 N 0.51049 0.72318 0.86043 0.0
N498 N 0.55699 0.69217 0.84825 0.0
C499 C 0.54451 0.71967 0.86476 0.0
H500 H 0.53066 0.6552 0.81758 0.0
Co501 Co 0.60134 0.67506 0.84625 0.0
C502 C 0.61869 0.69109 0.92021 0.0
O503 O 0.6172 0.65938 0.93057 0.0
N504 N 0.64642 0.65829 0.84292 0.0
C505 C 0.6979 0.63583 0.8518 0.0
C506 C 0.6676 0.64516 0.86674 0.0
C507 C 0.66446 0.65618 0.81366 0.0
N508 N 0.69594 0.64299 0.81838 0.0
O509 O 0.61477 0.71486 0.82149 0.0
H510 H 0.66144 0.64116 0.89306 0.0
H511 H 0.65458 0.6638 0.78911 0.0
O512 O 0.61292 0.69842 0.88896 0.0
C513 C 0.60569 0.71428 0.79032 0.0
O514 O 0.58918 0.68741 0.77924 0.0
N515 N 0.58654 0.63463 0.86797 0.0
C516 C 0.55492 0.57354 0.88641 0.0
C517 C 0.54729 0.60388 0.90358 0.0
C518 C 0.56306 0.63422 0.89372 0.0
C519 C 0.59416 0.60526 0.85106 0.0
C520 C 0.57898 0.57448 0.86008 0.0
H521 H 0.55531 0.65768 0.90586 0.0
H522 H 0.61056 0.60586 0.829 0.0
H523 H 0.56 0.73672 0.87986 0.0
H524 H 0.47536 0.69083 0.83289 0.0
H525 H 0.7191 0.62336 0.86434 0.0
H526 H 0.52834 0.60439 0.9236 0.0
H527 H 0.58449 0.55203 0.84506 0.0
C528 C 0.33371 0.17956 0.02907 0.0
C529 C 0.34016 0.19813 1.00009 0.0
N530 N 0.36122 0.22388 1.00837 0.0
N531 N 0.35072 0.19347 0.05543 0.0
C532 C 0.36683 0.22078 0.04215 0.0
H533 H 0.31796 0.15706 0.03086 0.0
Co534 Co 0.35101 0.17594 0.09948 0.0
C535 C 0.42479 0.1946 0.11474 0.0
O536 O 0.43612 0.16325 0.11227 0.0
N537 N 0.34975 0.15862 0.14423 0.0
C538 C 0.36007 0.13886 0.19646 0.0
C539 C 0.37455 0.14943 0.16635 0.0
C540 C 0.32051 0.15298 0.16148 0.0
N541 N 0.32603 0.14132 0.19335 0.0
O542 O 0.32516 0.21473 0.11435 0.0
H543 H 0.40145 0.14965 0.16131 0.0
H544 H 0.29545 0.15736 0.15085 0.0
O545 O 0.39311 0.20096 0.11005 0.0
C546 C 0.29343 0.21417 0.10732 0.0
O547 O 0.28132 0.18772 0.09082 0.0
N548 N 0.37409 0.13649 0.08333 0.0
C549 C 0.39192 0.07768 0.04733 0.0
C550 C 0.40773 0.10878 0.04015 0.0
C551 C 0.39836 0.13793 0.05833 0.0
C552 C 0.35933 0.10604 0.09124 0.0
C553 C 0.3683 0.07628 0.07397 0.0
H554 H 0.40925 0.16205 0.0509 0.0
H555 H 0.33867 0.10496 0.10935 0.0
H556 H 0.38292 0.23771 0.05675 0.0
H557 H 0.32976 0.19333 0.97502 0.0
H558 H 0.37355 0.12922 0.21851 0.0
H559 H 0.42599 0.11087 0.01961 0.0
H560 H 0.35502 0.05283 0.07976 0.0
C561 C 0.34161 0.85593 1.00004 0.0
C562 C 0.34579 0.83704 0.02923 0.0
N563 N 0.35782 0.80606 0.0206 0.0
N564 N 0.35108 0.83717 0.97291 0.0
C565 C 0.35954 0.8065 0.9862 0.0
H566 H 0.33183 0.88162 0.9988 0.0
Co567 Co 0.34919 0.85116 0.92722 0.0
C568 C 0.41873 0.81538 0.93033 0.0
O569 O 0.42495 0.82203 0.96253 0.0
N570 N 0.34608 0.86509 0.88187 0.0
C571 C 0.35607 0.8764 0.8274 0.0
C572 C 0.37065 0.86755 0.85807 0.0
C573 C 0.31703 0.87338 0.86536 0.0
N574 N 0.32218 0.8803 0.83198 0.0
O575 O 0.32406 0.8111 0.91618 0.0
H576 H 0.39743 0.86265 0.86243 0.0
H577 H 0.29247 0.87421 0.87777 0.0
O578 O 0.39145 0.82652 0.9163 0.0
C579 C 0.29244 0.8133 0.9232 0.0
O580 O 0.28142 0.84124 0.93795 0.0
N581 N 0.37088 0.89232 0.93825 0.0
C582 C 0.3879 0.95576 0.96507 0.0
C583 C 0.41295 0.93064 0.96068 0.0
C584 C 0.40402 0.8991 0.94652 0.0
C585 C 0.34676 0.91721 0.9407 0.0
C586 C 0.35469 0.9491 0.95395 0.0
H587 H 0.42367 0.88042 0.94315 0.0
H588 H 0.32062 0.91151 0.93403 0.0
H589 H 0.36769 0.78509 0.9709 0.0
H590 H 0.33968 0.84545 0.05471 0.0
H591 H 0.36952 0.87844 0.80351 0.0
H592 H 0.43899 0.93515 0.96865 0.0
H593 H 0.33458 0.96777 0.95717 0.0
C594 C 0.34747 0.19445 0.52945 0.0
C595 C 0.32895 0.18765 0.50044 0.0
N596 N 0.30312 0.16666 0.50875 0.0
N597 N 0.33372 0.17739 0.55583 0.0
C598 C 0.30658 0.16096 0.54251 0.0
H599 H 0.37002 0.21015 0.53116 0.0
Co600 Co 0.34958 0.17807 0.6006 0.0
C601 C 0.33273 0.10381 0.61469 0.0
O602 O 0.36445 0.09339 0.61237 0.0
N603 N 0.36465 0.1802 0.64624 0.0
C604 C 0.3821 0.17027 0.69937 0.0
C605 C 0.3719 0.15558 0.66923 0.0
C606 C 0.37086 0.20954 0.66311 0.0
N607 N 0.38131 0.20427 0.69544 0.0
O608 O 0.30947 0.2026 0.61322 0.0
H609 H 0.37072 0.12862 0.66471 0.0
H610 H 0.3682 0.23448 0.65177 0.0
O611 O 0.32563 0.13533 0.61043 0.0
C612 C 0.3109 0.23445 0.60723 0.0
O613 O 0.33879 0.24707 0.59377 0.0
N614 N 0.39092 0.15646 0.58657 0.0
C615 C 0.45297 0.14373 0.55361 0.0
C616 C 0.42327 0.12659 0.54369 0.0
C617 C 0.39244 0.13334 0.5605 0.0
C618 C 0.4202 0.17167 0.59762 0.0
C619 C 0.45145 0.16489 0.58223 0.0
H620 H 0.36939 0.12175 0.5509 0.0
H621 H 0.41944 0.19132 0.61674 0.0
H622 H 0.28965 0.14499 0.55722 0.0
H623 H 0.33491 0.19645 0.47504 0.0
H624 H 0.39056 0.15693 0.72197 0.0
H625 H 0.42331 0.11005 0.52165 0.0
H626 H 0.47391 0.17817 0.59119 0.0
C627 C 0.69405 0.177 0.99839 0.0
C628 C 0.68757 0.1961 0.02703 0.0
N629 N 0.6672 0.22234 0.01815 0.0
N630 N 0.67781 0.19106 0.97159 0.0
C631 C 0.66203 0.2189 0.98431 0.0
H632 H 0.70976 0.15438 0.99705 0.0
Co633 Co 0.67942 0.1746 0.92714 0.0
C634 C 0.60568 0.19495 0.9113 0.0
O635 O 0.59202 0.16472 0.91499 0.0
N636 N 0.68234 0.15881 0.88202 0.0
C637 C 0.67335 0.14471 0.8279 0.0
C638 C 0.65806 0.15267 0.85844 0.0
C639 C 0.71202 0.15376 0.86533 0.0
N640 N 0.7074 0.14577 0.83217 0.0
O641 O 0.70497 0.21386 0.91413 0.0
H642 H 0.63098 0.1542 0.86265 0.0
H643 H 0.73659 0.1555 0.8776 0.0
O644 O 0.63767 0.19942 0.91553 0.0
C645 C 0.73663 0.2128 0.92124 0.0
O646 O 0.74859 0.18584 0.93714 0.0
N647 N 0.65663 0.13443 0.94126 0.0
C648 C 0.63783 0.07312 0.97251 0.0
C649 C 0.6213 0.1037 0.98082 0.0
C650 C 0.63133 0.13412 0.96521 0.0
C651 C 0.67274 0.1048 0.9328 0.0
C652 C 0.66357 0.07396 0.94781 0.0
H653 H 0.6199 0.15769 0.97371 0.0
H654 H 0.69453 0.10513 0.91605 0.0
H655 H 0.64694 0.2363 0.96911 0.0
H656 H 0.69784 0.19152 0.0522 0.0
H657 H 0.66033 0.13928 0.80422 0.0
H658 H 0.60174 0.10432 1.00025 0.0
H659 H 0.67817 0.05135 0.94171 0.0
C660 C 0.68466 0.83171 0.53266 0.0
C661 C 0.70407 0.83846 0.50426 0.0
N662 N 0.72931 0.85987 0.51326 0.0
N663 N 0.69735 0.84917 0.55931 0.0
C664 C 0.72464 0.86591 0.54677 0.0
H665 H 0.6626 0.81529 0.53388 0.0
Co666 Co 0.68046 0.8485 0.6036 0.0
C667 C 0.69544 0.92262 0.61848 0.0
O668 O 0.66322 0.93174 0.61854 0.0
N669 N 0.66432 0.84626 0.64888 0.0
C670 C 0.65103 0.85376 0.70356 0.0
C671 C 0.6622 0.86943 0.67427 0.0
C672 C 0.65444 0.8168 0.66364 0.0
N673 N 0.64597 0.82066 0.69669 0.0
O674 O 0.72052 0.82455 0.61769 0.0
H675 H 0.66892 0.89589 0.67252 0.0
H676 H 0.65395 0.79272 0.65042 0.0
O677 O 0.70347 0.89151 0.61331 0.0
C678 C 0.71883 0.79247 0.61337 0.0
O679 O 0.69137 0.77936 0.59947 0.0
N680 N 0.6394 0.86961 0.58823 0.0
C681 C 0.57844 0.88301 0.55321 0.0
C682 C 0.6085 0.90043 0.54485 0.0
C683 C 0.63869 0.89346 0.56276 0.0
C684 C 0.60996 0.85363 0.59743 0.0
C685 C 0.57927 0.86053 0.58092 0.0
H686 H 0.662 0.90548 0.55446 0.0
H687 H 0.61025 0.83337 0.6159 0.0
H688 H 0.74045 0.88269 0.56179 0.0
H689 H 0.70018 0.82811 0.47902 0.0
H690 H 0.64699 0.86576 0.72803 0.0
H691 H 0.60939 0.91745 0.52319 0.0
H692 H 0.55672 0.84657 0.58845 0.0
C693 C 0.68828 0.84479 0.02953 0.0
C694 C 0.68142 0.82527 1.0013 0.0
N695 N 0.66214 0.79867 1.01105 0.0
N696 N 0.67306 0.83078 0.05688 0.0
C697 C 0.6574 0.80265 0.0449 0.0
H698 H 0.70347 0.86773 0.03021 0.0
Co699 Co 0.67596 0.84772 0.10099 0.0
C700 C 0.6023 0.8318 0.1203 0.0
O701 O 0.59196 0.86357 0.11925 0.0
N702 N 0.68038 0.86458 0.14573 0.0
C703 C 0.67386 0.8885 0.19674 0.0
C704 C 0.65751 0.87838 0.16742 0.0
C705 C 0.71041 0.86685 0.16249 0.0
N706 N 0.70724 0.88143 0.19346 0.0
O707 O 0.70078 0.8076 0.11417 0.0
H708 H 0.63089 0.8823 0.16224 0.0
H709 H 0.73431 0.85817 0.15199 0.0
O710 O 0.63336 0.82447 0.11349 0.0
C711 C 0.73187 0.80722 0.10477 0.0
O712 O 0.74345 0.83346 0.08755 0.0
N713 N 0.6542 0.8883 0.08639 0.0
C714 C 0.63701 0.94888 0.05281 0.0
C715 C 0.61818 0.91905 0.04729 0.0
C716 C 0.62759 0.88888 0.06383 0.0
C717 C 0.67213 0.91736 0.09267 0.0
C718 C 0.66372 0.9479 0.07653 0.0
H719 H 0.61458 0.86558 0.05715 0.0
H720 H 0.69461 0.91654 0.10857 0.0
H721 H 0.64259 0.78562 0.06065 0.0
H722 H 0.69048 0.82989 0.9757 0.0
H723 H 0.66231 0.90128 0.21824 0.0
H724 H 0.59722 0.91865 0.02933 0.0
H725 H 0.67946 0.97007 0.08101 0.0
C726 C 0.3545 0.83918 0.50077 0.0
C727 C 0.33585 0.84437 0.52996 0.0
N728 N 0.30528 0.85754 0.52119 0.0
N729 N 0.33601 0.84923 0.47362 0.0
C730 C 0.30572 0.859 0.4868 0.0
H731 H 0.37994 0.8286 0.49939 0.0
Co732 Co 0.34979 0.84637 0.42808 0.0
C733 C 0.31531 0.91729 0.428 0.0
O734 O 0.31817 0.9242 0.46056 0.0
N735 N 0.36309 0.84247 0.38254 0.0
C736 C 0.37949 0.8527 0.32934 0.0
C737 C 0.37048 0.86729 0.35996 0.0
C738 C 0.36792 0.81318 0.36523 0.0
N739 N 0.37775 0.81863 0.33276 0.0
O740 O 0.30889 0.82199 0.41759 0.0
H741 H 0.37002 0.89424 0.36554 0.0
H742 H 0.36465 0.78822 0.37636 0.0
O743 O 0.32685 0.88928 0.41601 0.0
C744 C 0.31112 0.79059 0.42557 0.0
O745 O 0.33922 0.78009 0.44053 0.0
N746 N 0.39206 0.86731 0.439 0.0
C747 C 0.45619 0.88083 0.46757 0.0
C748 C 0.42845 0.90265 0.47347 0.0
C749 C 0.39666 0.89557 0.45874 0.0
C750 C 0.41924 0.84683 0.43179 0.0
C751 C 0.45149 0.85352 0.44509 0.0
H752 H 0.37552 0.91107 0.46608 0.0
H753 H 0.41559 0.82363 0.41752 0.0
H754 H 0.28455 0.86771 0.47138 0.0
H755 H 0.34411 0.83822 0.5555 0.0
H756 H 0.38787 0.86612 0.3068 0.0
H757 H 0.4304 0.92349 0.49137 0.0
H758 H 0.47212 0.83604 0.4395 0.0
C759 C 0.67821 0.19325 0.49347 0.0
C760 C 0.69651 0.18631 0.52259 0.0
N761 N 0.72279 0.16578 0.51431 0.0
N762 N 0.69281 0.17711 0.46695 0.0
C763 C 0.72017 0.16095 0.48036 0.0
H764 H 0.65575 0.20918 0.4916 0.0
Co765 Co 0.67758 0.17921 0.42196 0.0
C766 C 0.69633 0.10578 0.40575 0.0
O767 O 0.66495 0.0942 0.40634 0.0
N768 N 0.66304 0.18277 0.37638 0.0
C769 C 0.64636 0.17538 0.32265 0.0
C770 C 0.65686 0.15927 0.35204 0.0
C771 C 0.65613 0.21283 0.36108 0.0
N772 N 0.64565 0.20908 0.32856 0.0
O773 O 0.7176 0.20428 0.41027 0.0
H774 H 0.65922 0.13214 0.35508 0.0
H775 H 0.65862 0.23712 0.37372 0.0
O776 O 0.70206 0.13726 0.41137 0.0
C777 C 0.71665 0.23573 0.41808 0.0
O778 O 0.68941 0.24747 0.43363 0.0
N779 N 0.6364 0.15692 0.43478 0.0
C780 C 0.57455 0.14373 0.4677 0.0
C781 C 0.60409 0.12558 0.47654 0.0
C782 C 0.63485 0.13255 0.4597 0.0
C783 C 0.60721 0.17297 0.42457 0.0
C784 C 0.57603 0.16603 0.43994 0.0
H785 H 0.6579 0.12035 0.46869 0.0
H786 H 0.60805 0.19348 0.40636 0.0
H787 H 0.73785 0.14582 0.46561 0.0
H788 H 0.69138 0.19638 0.5477 0.0
H789 H 0.63901 0.16322 0.29904 0.0
H790 H 0.60404 0.10813 0.4979 0.0
H791 H 0.55367 0.18013 0.43186 0.0
C792 C 0.14112 0.45767 0.28173 0.0
C793 C 0.15112 0.49141 0.27512 0.0
C794 C 0.13072 0.43588 0.25541 0.0
C795 C 0.13003 0.44689 0.22128 0.0
H796 H 0.14127 0.44803 0.30756 0.0
H797 H 0.12342 0.41012 0.26195 0.0
S798 S 0.15463 0.53294 0.19038 0.0
N799 N 0.16033 0.53468 0.23196 0.0
N800 N 0.14047 0.49422 0.18248 0.0
C801 C 0.13975 0.48079 0.21437 0.0
C802 C 0.15033 0.50291 0.24125 0.0
C803 C 1.00031 0.37824 0.28213 0.0
C804 C 0.98884 0.37607 0.24831 0.0
C805 C 0.97865 0.38926 0.30826 0.0
C806 C 0.94456 0.39872 0.3017 0.0
H807 H 0.02603 0.37055 0.28859 0.0
H808 H 0.98874 0.38987 0.33393 0.0
S809 S 0.90305 0.40059 0.21665 0.0
N810 N 0.942 0.38655 0.20911 0.0
N811 N 0.90105 0.40684 0.25815 0.0
C812 C 0.93303 0.39752 0.26773 0.0
C813 C 0.95519 0.38627 0.2411 0.0
C814 C 0.89905 0.52863 0.25451 0.0
C815 C 0.872 0.53939 0.27558 0.0
C816 C 0.91131 0.54927 0.22806 0.0
C817 C 0.89746 0.58173 0.22209 0.0
H818 H 0.91127 0.50426 0.25874 0.0
H819 H 0.93221 0.54003 0.21259 0.0
S820 S 0.82432 0.62089 0.26712 0.0
N821 N 0.82985 0.5838 0.28614 0.0
N822 N 0.85419 0.62307 0.23768 0.0
C823 C 0.87028 0.59276 0.24251 0.0
C824 C 0.85724 0.5715 0.26894 0.0
C825 C 0.08988 0.63389 0.27419 0.0
C826 C 0.07804 0.63143 0.30797 0.0
C827 C 0.0686 0.64542 0.24781 0.0
C828 C 0.03453 0.65472 0.25399 0.0
H829 H 0.11592 0.62714 0.26798 0.0
H830 H 0.07885 0.64687 0.22228 0.0
S831 S 0.99081 0.65371 0.33765 0.0
N832 N 0.02959 0.63954 0.34592 0.0
N833 N 0.99003 0.66144 0.29636 0.0
C834 C 0.0222 0.65223 0.28747 0.0
C835 C 0.04383 0.64055 0.31441 0.0
C836 C 0.14627 0.56822 0.74585 0.0
C837 C 0.15707 0.53472 0.75254 0.0
C838 C 0.13495 0.58963 0.77209 0.0
C839 C 0.13413 0.57851 0.80621 0.0
H840 H 0.14629 0.57787 0.72003 0.0
H841 H 0.12696 0.61521 0.76547 0.0
S842 S 0.16099 0.49311 0.83728 0.0
N843 N 0.16719 0.49162 0.79578 0.0
N844 N 0.14559 0.53146 0.84508 0.0
C845 C 0.14485 0.54492 0.8132 0.0
C846 C 0.15638 0.52315 0.78641 0.0
C847 C 0.06937 0.38584 0.78089 0.0
C848 C 0.03597 0.37475 0.7743 0.0
C849 C 0.09075 0.3968 0.75456 0.0
C850 C 0.07973 0.39683 0.72039 0.0
H851 H 0.07913 0.38589 0.80668 0.0
H852 H 0.11643 0.40451 0.76109 0.0
S853 S 0.99391 0.37119 0.68972 0.0
N854 N 0.99249 0.36511 0.73127 0.0
N855 N 0.03242 0.38601 0.6817 0.0
C856 C 0.04599 0.38663 0.71354 0.0
C857 C 0.02418 0.37555 0.74048 0.0
C858 C 0.88612 0.47613 0.80927 0.0
C859 C 0.89536 0.44195 0.80331 0.0
C860 C 0.87537 0.49745 0.7827 0.0
C861 C 0.87325 0.48553 0.74903 0.0
H862 H 0.8869 0.4866 0.83475 0.0
H863 H 0.86803 0.52335 0.78867 0.0
S864 S 0.89667 0.39905 0.719 0.0
N865 N 0.9028 0.39765 0.76055 0.0
N866 N 0.88314 0.43801 0.71072 0.0
C867 C 0.88295 0.45167 0.74248 0.0
C868 C 0.89389 0.42986 0.76955 0.0
C869 C 1.00334 0.64575 0.74381 0.0
C870 C 0.99213 0.6481 0.77768 0.0
C871 C 0.98153 0.63449 0.71786 0.0
C872 C 0.94759 0.62496 0.72472 0.0
H873 H 0.02892 0.65358 0.73715 0.0
H874 H 0.99131 0.63384 0.6921 0.0
S875 S 0.907 0.62313 0.81013 0.0
N876 N 0.94587 0.63747 0.81729 0.0
N877 N 0.90464 0.61669 0.76869 0.0
C878 C 0.93642 0.62616 0.75879 0.0
C879 C 0.9587 0.63767 0.78519 0.0
C880 C 0.24728 0.10003 0.46873 0.0
C881 C 0.23475 0.1163 0.43924 0.0
C882 C 0.26889 0.11687 0.49158 0.0
C883 C 0.27907 0.1507 0.48596 0.0
H884 H 0.2409 0.07375 0.47404 0.0
H885 H 0.27854 0.10288 0.51332 0.0
S886 S 0.25161 0.20595 0.41427 0.0
N887 N 0.23308 0.16905 0.40665 0.0
N888 N 0.27321 0.20074 0.45001 0.0
C889 C 0.26602 0.1677 0.4572 0.0
C890 C 0.24397 0.15054 0.43382 0.0
C891 C 0.64207 0.30969 0.04852 0.0
C892 C 0.63272 0.30408 0.08271 0.0
C893 C 0.65285 0.28287 0.02754 0.0
C894 C 0.65487 0.24932 0.03984 0.0
H895 H 0.64142 0.33509 0.0378 0.0
H896 H 0.66036 0.28858 1.00165 0.0
S897 S 0.63098 0.22014 0.12644 0.0
N898 N 0.62493 0.26171 0.12736 0.0
N899 N 0.64464 0.21147 0.08767 0.0
C900 C 0.64495 0.24311 0.07367 0.0
C901 C 0.63399 0.2704 0.09512 0.0
C902 C 0.74766 0.88204 0.45738 0.0
C903 C 0.75536 0.87365 0.49134 0.0
C904 C 0.77273 0.89457 0.43528 0.0
C905 C 0.80668 0.89902 0.44614 0.0
H906 H 0.72196 0.87893 0.44781 0.0
H907 H 0.76543 0.90029 0.40929 0.0
S908 S 0.84001 0.88075 0.53292 0.0
N909 N 0.79929 0.87053 0.53487 0.0
N910 N 0.84637 0.89447 0.49372 0.0
C911 C 0.81459 0.8912 0.48031 0.0
C912 C 0.78897 0.87844 0.50279 0.0
C913 C 0.36591 0.74461 0.03236 0.0
C914 C 0.36822 0.7787 0.04308 0.0
C915 C 0.37653 0.71769 0.05339 0.0
C916 C 0.38984 0.7236 0.0862 0.0
H917 H 0.35548 0.73858 1.00758 0.0
H918 H 0.37403 0.69199 0.04378 0.0
S919 S 0.40254 0.80836 0.12617 0.0
N920 N 0.38641 0.81693 0.08831 0.0
N921 N 0.40483 0.76649 0.12831 0.0
C922 C 0.39225 0.75762 0.09732 0.0
C923 C 0.38182 0.78507 0.07571 0.0
C924 C 0.2441 0.86837 0.53246 0.0
C925 C 0.27826 0.86916 0.54346 0.0
C926 C 0.21753 0.88041 0.55311 0.0
C927 C 0.22384 0.89363 0.58584 0.0
H928 H 0.23772 0.85805 0.50773 0.0
H929 H 0.19176 0.87901 0.54331 0.0
S930 S 0.30894 0.90262 0.62652 0.0
N931 N 0.31703 0.8858 0.58891 0.0
N932 N 0.26716 0.90695 0.62821 0.0
C933 C 0.25791 0.89453 0.59727 0.0
C934 C 0.28504 0.88265 0.57602 0.0
C935 C 0.38794 0.3095 0.97535 0.0
C936 C 0.39784 0.3025 0.94157 0.0
C937 C 0.37657 0.28365 0.99713 0.0
C938 C 0.37442 0.24976 0.98601 0.0
H939 H 0.38849 0.33528 0.98508 0.0
H940 H 0.36861 0.29035 0.02264 0.0
S941 S 0.40012 0.21694 0.90132 0.0
N942 N 0.40656 0.25838 0.89886 0.0
N943 N 0.3854 0.20994 0.94004 0.0
C944 C 0.38507 0.2421 0.95273 0.0
C945 C 0.39676 0.2684 0.93049 0.0
C946 C 0.8093 0.1401 0.54719 0.0
C947 C 0.80269 0.1307 0.58119 0.0
C948 C 0.78306 0.15095 0.52538 0.0
C949 C 0.74913 0.15301 0.53667 0.0
H950 H 0.83505 0.13956 0.53731 0.0
H951 H 0.78953 0.15859 0.49971 0.0
S952 S 0.71732 0.12852 0.62213 0.0
N953 N 0.75891 0.12252 0.62438 0.0
N954 N 0.70981 0.14241 0.58316 0.0
C955 C 0.7419 0.14282 0.5702 0.0
C956 C 0.76858 0.13177 0.59248 0.0
C957 C 0.64 0.77859 0.95577 0.0
C958 C 0.64994 0.77161 0.98948 0.0
C959 C 0.62945 0.75254 0.93378 0.0
C960 C 0.62855 0.71836 0.94457 0.0
H961 H 0.64035 0.80448 0.94631 0.0
H962 H 0.62221 0.75934 0.90804 0.0
S963 S 0.65285 0.6866 0.03051 0.0
N964 N 0.65883 0.7281 0.03254 0.0
N965 N 0.63866 0.6791 0.99166 0.0
C966 C 0.63817 0.71109 0.97845 0.0
C967 C 0.64891 0.7377 1.00079 0.0
C968 C 0.4576 0.28248 0.13919 0.0
C969 C 0.49156 0.27623 0.14901 0.0
C970 C 0.43645 0.25613 0.12763 0.0
C971 C 0.44833 0.22233 0.12548 0.0
H972 H 0.4473 0.30804 0.14034 0.0
H973 H 0.41047 0.26237 0.12056 0.0
S974 S 0.53522 0.19233 0.14904 0.0
N975 N 0.53591 0.23363 0.15657 0.0
N976 N 0.49665 0.18421 0.13437 0.0
C977 C 0.48243 0.21579 0.135 0.0
C978 C 0.5039 0.24267 0.14684 0.0
C979 C 0.4729 0.78149 0.92654 0.0
C980 C 0.44276 0.79335 0.91089 0.0
C981 C 0.49521 0.75925 0.90966 0.0
C982 C 0.48836 0.74784 0.87643 0.0
H983 H 0.47918 0.78897 0.95232 0.0
H984 H 0.51753 0.75017 0.92314 0.0
S985 S 0.41445 0.77301 0.82288 0.0
N986 N 0.4081 0.79276 0.85939 0.0
N987 N 0.45054 0.75184 0.82754 0.0
C988 C 0.45891 0.76019 0.86005 0.0
C989 C 0.43605 0.78272 0.87727 0.0
C990 C 0.24628 0.07006 0.643 0.0
C991 C 0.25327 0.03612 0.65216 0.0
C992 C 0.27186 0.09142 0.63016 0.0
C993 C 0.30565 0.07982 0.62616 0.0
H994 H 0.22073 0.08016 0.64571 0.0
H995 H 0.26508 0.11739 0.62373 0.0
S996 S 0.33733 0.99302 0.6472 0.0
N997 N 0.29643 0.99198 0.65689 0.0
N998 N 0.34449 0.03171 0.63251 0.0
C999 C 0.31287 0.04572 0.63495 0.0
C1000 C 0.28674 0.024 0.64799 0.0
C1001 C 0.53017 0.25393 0.89767 0.0
C1002 C 0.54149 0.27601 0.87169 0.0
C1003 C 0.55107 0.2278 0.91039 0.0
C1004 C 0.58441 0.22318 0.89828 0.0
H1005 H 0.50505 0.25694 0.9086 0.0
H1006 H 0.5412 0.21135 0.9302 0.0
S1007 S 0.62604 0.27159 0.82894 0.0
N1008 N 0.58796 0.28914 0.83261 0.0
N1009 N 0.62759 0.24144 0.85815 0.0
C1010 C 0.59623 0.24481 0.87246 0.0
C1011 C 0.57471 0.27086 0.85879 0.0
C1012 C 0.7821 0.95822 0.64337 0.0
C1013 C 0.77475 0.99197 0.65277 0.0
C1014 C 0.75649 0.93637 0.63152 0.0
C1015 C 0.72233 0.94726 0.6288 0.0
H1016 H 0.80794 0.94864 0.6451 0.0
H1017 H 0.76359 0.91055 0.62487 0.0
S1018 S 0.68976 0.03351 0.65043 0.0
N1019 N 0.73094 0.03533 0.6588 0.0
N1020 N 0.6828 0.99461 0.6362 0.0
C1021 C 0.71474 0.98122 0.63771 0.0
C1022 C 0.74091 1.00346 0.64975 0.0
C1023 C 0.56767 0.74446 0.14436 0.0
C1024 C 0.53389 0.7514 0.15421 0.0
C1025 C 0.58936 0.77043 0.13292 0.0
C1026 C 0.57824 0.80452 0.13105 0.0
H1027 H 0.57739 0.71867 0.14541 0.0
H1028 H 0.61517 0.76366 0.12578 0.0
S1029 S 0.49207 0.83616 0.15486 0.0
N1030 N 0.49047 0.79481 0.16204 0.0
N1031 N 0.53077 0.8436 0.14027 0.0
C1032 C 0.54432 0.81172 0.14066 0.0
C1033 C 0.52228 0.78521 0.15226 0.0
C1034 C 0.26847 0.99674 0.3989 0.0
C1035 C 0.25181 0.98616 0.36901 0.0
C1036 C 0.28977 0.97459 0.4171 0.0
C1037 C 0.29573 0.94105 0.40594 0.0
H1038 H 0.26384 0.02184 0.40923 0.0
H1039 H 0.30105 0.98368 0.44057 0.0
S1040 S 0.26142 0.90229 0.32683 0.0
N1041 N 0.24494 0.94102 0.3274 0.0
N1042 N 0.28526 0.89928 0.36138 0.0
C1043 C 0.28076 0.93075 0.37501 0.0
C1044 C 0.2587 0.95329 0.35666 0.0
C1045 C 0.74371 0.02731 0.37394 0.0
C1046 C 0.77762 0.03849 0.37147 0.0
C1047 C 0.71778 0.04906 0.3855 0.0
C1048 C 0.72473 0.08287 0.39525 0.0
H1049 H 0.73703 1.00175 0.36614 0.0
H1050 H 0.692 0.0393 0.38632 0.0
S1051 S 0.81029 0.12337 0.39659 0.0
N1052 N 0.81734 0.08462 0.38193 0.0
N1053 N 0.76885 0.12571 0.40337 0.0
C1054 C 0.75885 0.09404 0.39374 0.0
C1055 C 0.7852 0.07184 0.38189 0.0
C1056 C 0.9814 0.3958 0.01472 0.0
C1057 C 0.99648 0.39551 0.98222 0.0
C1058 C 1.00133 0.39594 0.04441 0.0
C1059 C 0.03718 0.39565 0.04282 0.0
H1060 H 0.95393 0.3947 0.01724 0.0
H1061 H 0.98849 0.39446 0.06876 0.0
S1062 S 0.08932 0.39803 0.96415 0.0
N1063 N 0.04958 0.39697 0.95032 0.0
N1064 N 0.08692 0.39812 1.00611 0.0
C1065 C 0.05258 0.39727 1.01053 0.0
C1066 C 0.03229 0.39707 0.98027 0.0
C1067 C 0.89868 0.47956 0.5145 0.0
C1068 C 0.89828 0.49497 0.48212 0.0
C1069 C 0.89889 0.49914 0.54437 0.0
C1070 C 0.89862 0.53497 0.5431 0.0
H1071 H 0.89764 0.4521 0.51679 0.0
H1072 H 0.89744 0.48606 0.5686 0.0
S1073 S 0.90079 0.58792 0.46488 0.0
N1074 N 0.89958 0.54839 0.45072 0.0
N1075 N 0.90111 0.58502 0.50681 0.0
C1076 C 0.9002 0.55068 0.51094 0.0
C1077 C 0.89983 0.53076 0.4805 0.0
C1078 C 0.02618 0.6702 0.99793 0.0
C1079 C 0.038 0.63962 0.98348 0.0
C1080 C 1.00552 0.67028 0.02686 0.0
C1081 C 0.99544 0.63979 0.04269 0.0
H1082 H 0.0327 0.69447 0.98659 0.0
H1083 H 0.99762 0.69465 0.03711 0.0
S1084 S 0.01918 0.55263 0.01503 0.0
N1085 N 0.03823 0.57783 0.98727 0.0
N1086 N 0.99871 0.57798 0.04166 0.0
C1087 C 1.00698 0.6089 0.02862 0.0
C1088 C 0.0282 0.60881 0.99893 0.0
C1089 C 0.12936 0.47897 0.51322 0.0
C1090 C 0.12983 0.49388 0.54581 0.0
C1091 C 0.12919 0.49901 0.48361 0.0
C1092 C 0.12971 0.5348 0.48538 0.0
H1093 H 0.13031 0.45153 0.51058 0.0
H1094 H 0.13048 0.48631 0.45918 0.0
S1095 S 0.12809 0.58654 0.56433 0.0
N1096 N 0.12888 0.54677 0.57796 0.0
N1097 N 0.1278 0.58432 0.52236 0.0
C1098 C 0.12835 0.55004 0.51776 0.0
C1099 C 0.12852 0.52964 0.54793 0.0
C1100 C 0.99612 1.00951 0.40818 0.0
C1101 C 0.98369 0.99287 0.37893 0.0
C1102 C 0.02524 0.03041 0.40675 0.0
C1103 C 0.04293 0.03563 0.37598 0.0
H1104 H 0.98344 1.00615 0.43242 0.0
H1105 H 0.03377 0.0428 0.42985 0.0
S1106 S 0.02075 0.99806 0.29201 0.0
N1107 N 0.99078 0.98433 0.31796 0.0
N1108 N 0.0464 0.02121 0.31582 0.0
C1109 C 0.03084 0.01889 0.34665 0.0
C1110 C 1.00104 0.99819 0.34798 0.0
C1111 C 0.54708 0.5164 0.12678 0.0
C1112 C 0.53227 0.48378 0.12801 0.0
C1113 C 0.5269 0.54598 0.12722 0.0
C1114 C 0.49114 0.54407 0.12924 0.0
H1115 H 0.57455 0.51907 0.12679 0.0
H1116 H 0.53949 0.57048 0.12801 0.0
S1117 S 0.43956 0.46507 0.13003 0.0
N1118 N 0.47942 0.45151 0.12918 0.0
N1119 N 0.44165 0.50705 0.12951 0.0
C1120 C 0.47595 0.51169 0.12852 0.0
C1121 C 0.49645 0.48158 0.12798 0.0
C1122 C 0.04463 0.02971 0.63117 0.0
C1123 C 0.04345 0.99395 0.633 0.0
C1124 C 0.0146 0.04931 0.63083 0.0
C1125 C 0.9822 0.03393 0.63201 0.0
H1126 H 0.06891 0.04276 0.63186 0.0
H1127 H 0.01678 0.07679 0.6308 0.0
S1128 S 0.96528 0.94098 0.63378 0.0
N1129 N 1.00726 0.94385 0.63318 0.0
N1130 N 0.95095 0.98052 0.63315 0.0
C1131 C 0.98072 0.99811 0.63198 0.0
C1132 C 1.01127 0.9782 0.63238 0.0
C1133 C 0.49916 0.54337 0.89304 0.0
C1134 C 0.53502 0.54198 0.89272 0.0
C1135 C 0.47956 0.51356 0.89317 0.0
C1136 C 0.49503 0.4812 0.89317 0.0
H1137 H 0.48609 0.56763 0.89134 0.0
H1138 H 0.45206 0.51584 0.89203 0.0
S1139 S 0.58805 0.46375 0.89563 0.0
N1140 N 0.58519 0.50569 0.8954 0.0
N1141 N 0.54845 0.44964 0.89479 0.0
C1142 C 0.53085 0.47948 0.8947 0.0
C1143 C 0.5508 0.50985 0.89461 0.0
C1144 C 0.40502 0.01574 0.03854 0.0
C1145 C 0.39651 0.04773 0.02474 0.0
C1146 C 0.40458 0.98625 0.01833 0.0
C1147 C 0.39498 0.9877 0.98384 0.0
H1148 H 0.41101 0.01339 0.06537 0.0
H1149 H 0.40992 0.96192 0.03023 0.0
S1150 S 0.37187 0.06526 0.93522 0.0
N1151 N 0.37972 0.07921 0.9741 0.0
N1152 N 0.37841 0.02372 0.93638 0.0
C1153 C 0.38765 0.01963 0.96948 0.0
C1154 C 0.38856 0.04967 0.98987 0.0
C1155 C 0.49871 0.11271 0.52038 0.0
C1156 C 0.48412 0.14342 0.53192 0.0
C1157 C 0.5282 0.11268 0.4999 0.0
C1158 C 0.54373 0.14338 0.48984 0.0
H1159 H 0.48743 0.08859 0.52749 0.0
H1160 H 0.53866 0.08856 0.49153 0.0
S1161 S 0.5154 0.2306 0.51306 0.0
N1162 N 0.48714 0.20526 0.53097 0.0
N1163 N 0.54281 0.20516 0.49391 0.0
C1164 C 0.5294 0.17414 0.50139 0.0
C1165 C 0.49954 0.17418 0.52198 0.0
C1166 C 0.63182 0.04239 0.02814 0.0
C1167 C 0.63165 0.04137 0.99231 0.0
C1168 C 0.63178 1.01239 0.04755 0.0
C1169 C 0.63145 0.98013 0.03194 0.0
H1170 H 0.63377 0.06651 0.04134 0.0
H1171 H 0.63314 0.01445 0.07501 0.0
S1172 S 0.62773 0.9636 0.93894 0.0
N1173 N 0.62813 1.00551 0.94206 0.0
N1174 N 0.62909 0.94913 0.97838 0.0
C1175 C 0.62952 0.97879 0.99616 0.0
C1176 C 0.62944 1.00936 0.97642 0.0
C1177 C 0.50216 0.85296 0.50187 0.0
C1178 C 0.48814 0.88305 0.48822 0.0
C1179 C 0.53124 0.85351 0.52241 0.0
C1180 C 0.54762 0.88421 0.53088 0.0
H1181 H 0.49025 0.82857 0.49717 0.0
H1182 H 0.54104 0.82941 0.53165 0.0
S1183 S 0.52169 0.97035 0.50165 0.0
N1184 N 0.49353 0.94461 0.48396 0.0
N1185 N 0.54768 0.94573 0.52388 0.0
C1186 C 0.53412 0.91462 0.51738 0.0
C1187 C 0.50445 0.91404 0.49599 0.0
C1188 C 0.13646 0.27715 0.26972 0.0
C1189 C 0.11654 0.26726 0.24153 0.0
C1190 C 0.14656 0.2534 0.29463 0.0
C1191 C 0.13743 0.21888 0.29207 0.0
H1192 H 0.14461 0.30333 0.27243 0.0
H1193 H 0.1622 0.26191 0.31568 0.0
S1194 S 0.08318 0.18014 0.22528 0.0
N1195 N 0.08645 0.22047 0.21399 0.0
N1196 N 0.10553 0.1764 0.26069 0.0
C1197 C 0.11696 0.2088 0.26458 0.0
C1198 C 0.10649 0.23283 0.23938 0.0
C1199 C 0.77647 0.39893 0.25696 0.0
C1200 C 0.7658 0.41471 0.28733 0.0
C1201 C 0.75299 0.39038 0.2313 0.0
C1202 C 0.7179 0.39693 0.23513 0.0
H1203 H 0.80317 0.3932 0.25287 0.0
H1204 H 0.76228 0.37816 0.20842 0.0
S1205 S 0.67665 0.43888 0.30892 0.0
N1206 N 0.71741 0.43714 0.3192 0.0
N1207 N 0.67379 0.42125 0.27093 0.0
C1208 C 0.70689 0.41282 0.26518 0.0
C1209 C 0.7307 0.42169 0.29123 0.0
C1210 C 0.90383 0.77501 0.30005 0.0
C1211 C 0.88386 0.80402 0.29271 0.0
C1212 C 0.91256 0.75155 0.27453 0.0
C1213 C 0.90201 0.75661 0.24076 0.0
H1214 H 0.91351 0.77084 0.32553 0.0
H1215 H 0.92865 0.73003 0.281 0.0
S1216 S 0.84543 0.82522 0.20878 0.0
N1217 N 0.85041 0.83379 0.24962 0.0
N1218 N 0.86837 0.79069 0.20157 0.0
C1219 C 0.88121 0.78471 0.23318 0.0
C1220 C 0.87174 0.8082 0.25918 0.0
C1221 C 0.29032 0.59924 0.23474 0.0
C1222 C 0.30193 0.63286 0.23064 0.0
C1223 C 0.2665 0.59093 0.25997 0.0
C1224 C 0.25272 0.6161 0.28127 0.0
H1225 H 0.30062 0.57904 0.21907 0.0
H1226 H 0.25908 0.56455 0.26311 0.0
S1227 S 0.2738 0.70796 0.28041 0.0
N1228 N 0.29752 0.6915 0.24977 0.0
N1229 N 0.25187 0.67594 0.29662 0.0
C1230 C 0.26333 0.64992 0.27694 0.0
C1231 C 0.28821 0.65829 0.25176 0.0
C1232 C 0.09508 0.76423 0.75498 0.0
C1233 C 0.11965 0.75327 0.77857 0.0
C1234 C 0.10302 0.78874 0.73027 0.0
C1235 C 0.13556 0.80373 0.72892 0.0
H1236 H 0.06937 0.75426 0.75609 0.0
H1237 H 0.08318 0.79697 0.71292 0.0
S1238 S 0.20883 0.78328 0.78519 0.0
N1239 N 0.1778 0.75848 0.79899 0.0
N1240 N 0.19273 0.80502 0.7529 0.0
C1241 C 0.16046 0.7926 0.75224 0.0
C1242 C 0.15249 0.76722 0.77701 0.0
C1243 C 0.31737 0.39483 0.75892 0.0
C1244 C 0.30703 0.38676 0.79218 0.0
C1245 C 0.29354 0.40279 0.73356 0.0
C1246 C 0.25827 0.40284 0.74027 0.0
H1247 H 0.34419 0.3958 0.75258 0.0
H1248 H 0.30304 0.40913 0.70848 0.0
S1249 S 0.21778 0.38162 0.82294 0.0
N1250 N 0.25909 0.37786 0.83027 0.0
N1251 N 0.21415 0.39305 0.78263 0.0
C1252 C 0.24747 0.3942 0.77332 0.0
C1253 C 0.27187 0.38619 0.79926 0.0
C1254 C 0.89334 0.27634 0.7589 0.0
C1255 C 0.91442 0.26599 0.78607 0.0
C1256 C 0.88412 0.25358 0.73293 0.0
C1257 C 0.89549 0.21956 0.73319 0.0
H1258 H 0.88361 0.30215 0.75777 0.0
H1259 H 0.86745 0.26248 0.71282 0.0
S1260 S 0.95313 0.18012 0.79689 0.0
N1261 N 0.94765 0.21947 0.81054 0.0
N1262 N 0.93046 0.17717 0.76162 0.0
C1263 C 0.91702 0.20903 0.75976 0.0
C1264 C 0.92648 0.23211 0.78617 0.0
C1265 C 0.71029 0.62299 0.76065 0.0
C1266 C 0.72087 0.63516 0.79256 0.0
C1267 C 0.73399 0.61386 0.73563 0.0
C1268 C 0.76936 0.61676 0.74131 0.0
H1269 H 0.68343 0.61978 0.75522 0.0
H1270 H 0.72434 0.60437 0.71161 0.0
S1271 S 0.81024 0.6496 0.81993 0.0
N1272 N 0.76898 0.65131 0.82804 0.0
N1273 N 0.81368 0.63407 0.78103 0.0
C1274 C 0.78031 0.62962 0.77291 0.0
C1275 C 0.75607 0.63877 0.79851 0.0
C1276 C 0.24517 0.10654 0.23052 0.0
C1277 C 0.24859 0.11335 0.26558 0.0
C1278 C 0.27052 0.11573 0.20725 0.0
C1279 C 0.30054 0.1319 0.218 0.0
H1280 H 0.22257 0.09414 0.22072 0.0
H1281 H 0.26674 0.10983 0.1806 0.0
S1282 S 0.32209 0.15633 0.30667 0.0
N1283 N 0.2845 0.13776 0.30981 0.0
N1284 N 0.33215 0.15509 0.26587 0.0
C1285 C 0.30452 0.13883 0.25292 0.0
C1286 C 0.27855 0.12959 0.27673 0.0
C1287 C 0.64377 0.23383 0.27065 0.0
C1288 C 0.63488 0.23543 0.3053 0.0
C1289 C 0.63392 0.25957 0.24778 0.0
C1290 C 0.61455 0.28777 0.25867 0.0
H1291 H 0.65894 0.21277 0.26129 0.0
H1292 H 0.64172 0.25739 0.22142 0.0
S1293 S 0.58244 0.30227 0.34655 0.0
N1294 N 0.604 0.26624 0.34903 0.0
N1295 N 0.58562 0.31468 0.30655 0.0
C1296 C 0.60493 0.28919 0.29324 0.0
C1297 C 0.61508 0.26305 0.31643 0.0
C1298 C 0.75357 0.89617 0.27629 0.0
C1299 C 0.78572 0.9078 0.26553 0.0
C1300 C 0.72814 0.88747 0.25263 0.0
C1301 C 0.73397 0.88973 0.21733 0.0
H1302 H 0.74785 0.89405 0.30318 0.0
H1303 H 0.70375 0.8787 0.26201 0.0
S1304 S 0.81359 0.91886 0.17572 0.0
N1305 N 0.8219 0.92084 0.21685 0.0
N1306 N 0.77402 0.90506 0.17283 0.0
C1307 C 0.766 0.90113 0.20624 0.0
C1308 C 0.79185 0.91004 0.23021 0.0
C1309 C 0.41416 0.73833 0.29564 0.0
C1310 C 0.40679 0.74134 0.26065 0.0
C1311 C 0.40449 0.76356 0.31886 0.0
C1312 C 0.38723 0.79306 0.30816 0.0
H1313 H 0.42749 0.71621 0.30541 0.0
H1314 H 0.41101 0.76014 0.34543 0.0
S1315 S 0.36092 0.81331 0.21966 0.0
N1316 N 0.38061 0.77625 0.21652 0.0
N1317 N 0.36234 0.82364 0.26038 0.0
C1318 C 0.37961 0.79655 0.27331 0.0
C1319 C 0.38935 0.7707 0.24955 0.0
C1320 C 0.26225 0.8783 0.81207 0.0
C1321 C 0.29632 0.88843 0.80678 0.0
C1322 C 0.23633 0.88708 0.7891 0.0
C1323 C 0.24344 0.90557 0.75939 0.0
H1324 H 0.25535 0.86345 0.8342 0.0
H1325 H 0.21045 0.87925 0.79463 0.0
S1326 S 0.32747 0.93878 0.73278 0.0
N1327 N 0.33511 0.91915 0.76921 0.0
N1328 N 0.28638 0.93373 0.72529 0.0
C1329 C 0.27721 0.91514 0.75299 0.0
C1330 C 0.30365 0.90702 0.77682 0.0
C1331 C 0.4208 0.28349 0.73145 0.0
C1332 C 0.41324 0.28131 0.76645 0.0
C1333 C 0.41019 0.25835 0.70854 0.0
C1334 C 0.39182 0.22978 0.71963 0.0
H1335 H 0.4349 0.30494 0.72144 0.0
H1336 H 0.41678 0.2611 0.68193 0.0
S1337 S 0.36465 0.21189 0.80825 0.0
N1338 N 0.38571 0.24814 0.81095 0.0
N1339 N 0.36579 0.20091 0.7677 0.0
C1340 C 0.3841 0.22707 0.75448 0.0
C1341 C 0.39475 0.25282 0.7779 0.0
C1342 C 0.75199 0.10921 0.75528 0.0
C1343 C 0.78453 0.12377 0.75751 0.0
C1344 C 0.72681 0.11682 0.77954 0.0
C1345 C 0.73321 0.13954 0.80661 0.0
H1346 H 0.74639 0.09088 0.73545 0.0
H1347 H 0.70248 0.10404 0.7776 0.0
S1348 S 0.81335 0.18812 0.82004 0.0
N1349 N 0.82134 0.16372 0.78677 0.0
N1350 N 0.77375 0.17949 0.83132 0.0
C1351 C 0.76533 0.15554 0.80785 0.0
C1352 C 0.79105 0.14728 0.78354 0.0
C1353 C 0.6366 0.76862 0.7767 0.0
C1354 C 0.61484 0.74209 0.76634 0.0
C1355 C 0.64637 0.79442 0.75396 0.0
C1356 C 0.6349 0.79459 0.72 0.0
H1357 H 0.64651 0.76928 0.80244 0.0
H1358 H 0.66358 0.81402 0.76281 0.0
S1359 S 0.5754 0.73283 0.68069 0.0
N1360 N 0.58072 0.71885 0.71996 0.0
N1361 N 0.59899 0.76741 0.67772 0.0
C1362 C 0.61262 0.76873 0.70951 0.0
C1363 C 0.60261 0.74251 0.73255 0.0
C1364 C 0.2345 0.23804 0.11251 0.0
C1365 C 0.26981 0.24187 0.11797 0.0
C1366 C 0.21123 0.26346 0.12187 0.0
C1367 C 0.22222 0.29397 0.13685 0.0
H1368 H 0.22453 0.21517 0.10081 0.0
H1369 H 0.18442 0.25945 0.11671 0.0
S1370 S 0.31156 0.3164 0.15827 0.0
N1371 N 0.31447 0.27846 0.14042 0.0
N1372 N 0.2706 0.32619 0.15809 0.0
C1373 C 0.25736 0.29814 0.14285 0.0
C1374 C 0.28115 0.27212 0.13346 0.0
C1375 C 0.27938 0.7574 0.89507 0.0
C1376 C 0.2681 0.78601 0.91351 0.0
C1377 C 0.25659 0.7318 0.88499 0.0
C1378 C 0.22165 0.73391 0.89273 0.0
H1379 H 0.30597 0.75479 0.88816 0.0
H1380 H 0.26629 0.71037 0.87061 0.0
S1381 S 0.1792 0.80225 0.94214 0.0
N1382 N 0.21948 0.8141 0.94011 0.0
N1383 N 0.1771 0.76587 0.9213 0.0
C1384 C 0.21007 0.76207 0.91143 0.0
C1385 C 0.23318 0.78811 0.92181 0.0
C1386 C 0.29015 0.2911 0.6267 0.0
C1387 C 0.28271 0.25764 0.61646 0.0
C1388 C 0.26418 0.31405 0.63528 0.0
C1389 C 0.22963 0.30461 0.63346 0.0
H1390 H 0.31637 0.29951 0.6287 0.0
H1391 H 0.27137 0.3391 0.64411 0.0
S1392 S 0.19668 0.22079 0.60472 0.0
N1393 N 0.23853 0.21653 0.60333 0.0
N1394 N 0.18946 0.25998 0.61816 0.0
C1395 C 0.22185 0.27138 0.62236 0.0
C1396 C 0.24842 0.24782 0.6142 0.0
C1397 C 0.81908 0.2606 0.90539 0.0
C1398 C 0.80805 0.2922 0.89274 0.0
C1399 C 0.79573 0.23526 0.91442 0.0
C1400 C 0.76033 0.24034 0.91088 0.0
H1401 H 0.846 0.25567 0.90903 0.0
H1402 H 0.80568 0.21149 0.92431 0.0
S1403 S 0.71845 0.31795 0.87655 0.0
N1404 N 0.75958 0.32677 0.87549 0.0
N1405 N 0.7155 0.27912 0.8924 0.0
C1406 C 0.74895 0.27162 0.89751 0.0
C1407 C 0.77283 0.29756 0.88853 0.0
C1408 C 0.77931 0.77275 0.61217 0.0
C1409 C 0.74614 0.76956 0.62503 0.0
C1410 C 0.80445 0.74847 0.62004 0.0
C1411 C 0.79733 0.72043 0.64134 0.0
H1412 H 0.78549 0.79338 0.59494 0.0
H1413 H 0.82938 0.7512 0.60862 0.0
S1414 S 0.7152 0.70409 0.68541 0.0
N1415 N 0.70787 0.73827 0.662 0.0
N1416 N 0.75533 0.69358 0.67822 0.0
C1417 C 0.7645 0.71811 0.65564 0.0
C1418 C 0.73885 0.74248 0.64712 0.0
C1419 C 0.81439 0.75811 0.11712 0.0
C1420 C 0.80398 0.72753 0.13243 0.0
C1421 C 0.7908 0.78335 0.10818 0.0
C1422 C 0.75567 0.7793 0.11437 0.0
H1423 H 0.84107 0.76246 0.11166 0.0
H1424 H 0.80041 0.80637 0.09647 0.0
S1425 S 0.71517 0.70417 0.15479 0.0
N1426 N 0.75622 0.69472 0.15409 0.0
N1427 N 0.71166 0.74218 0.13712 0.0
C1428 C 0.74481 0.74883 0.12978 0.0
C1429 C 0.76897 0.72294 0.13877 0.0
C1430 C 0.22904 0.75317 0.3896 0.0
C1431 C 0.23235 0.71822 0.39683 0.0
C1432 C 0.25445 0.77649 0.39908 0.0
C1433 C 0.28401 0.76575 0.41645 0.0
H1434 H 0.20681 0.76247 0.3761 0.0
H1435 H 0.25091 0.80307 0.39259 0.0
S1436 S 0.30362 0.67696 0.44327 0.0
N1437 N 0.26653 0.67419 0.42364 0.0
N1438 N 0.31432 0.71751 0.44142 0.0
C1439 C 0.28728 0.7308 0.42423 0.0
C1440 C 0.26149 0.70716 0.4144 0.0
C1441 C 0.73981 0.29475 0.41389 0.0
C1442 C 0.74447 0.25954 0.40872 0.0
C1443 C 0.76507 0.31827 0.40513 0.0
C1444 C 0.79622 0.30763 0.39111 0.0
H1445 H 0.71635 0.30443 0.42473 0.0
H1446 H 0.76039 0.34502 0.40988 0.0
S1447 S 0.82115 0.2187 0.37127 0.0
N1448 N 0.78266 0.21532 0.38789 0.0
N1449 N 0.83016 0.25975 0.37144 0.0
C1450 C 0.80133 0.2726 0.38563 0.0
C1451 C 0.77546 0.24854 0.39437 0.0
loop_
_geom_bond_atom_site_label_1
_geom_bond_atom_site_label_2
_geom_bond_distance
_geom_bond_site_symmetry_2
_ccdc_geom_bond_type
C0 C1 1.351 1_455 S
C0 N3 1.368 . S
C0 H5 0.931 . S
C1 C0 1.351 1_655 S
C1 N2 1.373 . S
C1 H29 0.930 . S
N2 C1 1.373 . S
N2 C4 1.340 1_655 S
N3 C0 1.368 . S
N3 C4 1.321 . S
N3 Co6 2.135 . S
C4 N2 1.340 1_455 S
C4 N3 1.321 . S
C4 H28 0.930 . S
H5 C0 0.931 . S
Co6 N3 2.135 . S
Co6 N9 2.121 . S
Co6 O14 2.055 . S
Co6 O17 2.039 . S
Co6 N20 2.140 . S
C7 O8 1.227 . S
C7 O17 1.265 . S
O8 C7 1.227 . S
N9 Co6 2.121 . S
N9 C11 1.375 . S
N9 C12 1.313 . S
C10 C11 1.338 . S
C10 N13 1.377 . S
C10 H30 0.930 . S
C11 N9 1.375 . S
C11 C10 1.338 . S
C11 H15 0.931 . S
C12 N9 1.313 . S
C12 N13 1.344 . S
C12 H16 0.930 . S
N13 C10 1.377 . S
N13 C12 1.344 . S
O14 Co6 2.055 . S
O14 C18 1.253 . S
H15 C11 0.931 . S
H16 C12 0.930 . S
O17 Co6 2.039 . S
O17 C7 1.265 . S
C18 O14 1.253 . S
C18 O19 1.227 . S
O19 C18 1.227 . S
N20 Co6 2.140 . S
N20 C23 1.346 . S
N20 C24 1.345 . S
C21 C22 1.387 . S
C21 C25 1.391 . S
C22 C21 1.387 . S
C22 C23 1.369 . S
C22 H31 0.929 . S
C23 N20 1.346 . S
C23 C22 1.369 . S
C23 H26 0.928 . S
C24 N20 1.345 . S
C24 C25 1.371 . S
C24 H27 0.931 . S
C25 C21 1.391 . S
C25 C24 1.371 . S
C25 H32 0.930 . S
H26 C23 0.928 . S
H27 C24 0.931 . S
H28 C4 0.930 . S
H29 C1 0.930 . S
H30 C10 0.930 . S
H31 C22 0.929 . S
H32 C25 0.930 . S
C33 C34 1.351 . S
C33 N36 1.368 . S
C33 H38 0.931 . S
C34 C33 1.351 . S
C34 N35 1.373 . S
C34 H62 0.930 . S
N35 C34 1.373 . S
N35 C37 1.340 . S
N36 C33 1.368 . S
N36 C37 1.321 . S
N36 Co39 2.135 . S
C37 N35 1.340 . S
C37 N36 1.321 . S
C37 H61 0.930 . S
H38 C33 0.931 . S
Co39 N36 2.135 . S
Co39 N42 2.121 . S
Co39 O47 2.055 . S
Co39 O50 2.039 . S
Co39 N53 2.140 . S
C40 O41 1.227 . S
C40 O50 1.265 . S
O41 C40 1.227 . S
N42 Co39 2.121 . S
N42 C44 1.375 . S
N42 C45 1.313 . S
C43 C44 1.338 . S
C43 N46 1.377 . S
C43 H63 0.930 . S
C44 N42 1.375 . S
C44 C43 1.338 . S
C44 H48 0.931 . S
C45 N42 1.313 . S
C45 N46 1.344 . S
C45 H49 0.930 . S
N46 C43 1.377 . S
N46 C45 1.344 . S
O47 Co39 2.055 . S
O47 C51 1.253 . S
H48 C44 0.931 . S
H49 C45 0.930 . S
O50 Co39 2.039 . S
O50 C40 1.265 . S
C51 O47 1.253 . S
C51 O52 1.227 . S
O52 C51 1.227 . S
N53 Co39 2.140 . S
N53 C56 1.346 . S
N53 C57 1.345 . S
C54 C55 1.387 . S
C54 C58 1.391 . S
C55 C54 1.387 . S
C55 C56 1.369 . S
C55 H64 0.929 . S
C56 N53 1.346 . S
C56 C55 1.369 . S
C56 H59 0.928 . S
C57 N53 1.345 . S
C57 C58 1.371 . S
C57 H60 0.931 . S
C58 C54 1.391 . S
C58 C57 1.371 . S
C58 H65 0.930 . S
H59 C56 0.928 . S
H60 C57 0.931 . S
H61 C37 0.930 . S
H62 C34 0.930 . S
H63 C43 0.930 . S
H64 C55 0.929 . S
H65 C58 0.930 . S
C66 C67 1.351 1_655 S
C66 N69 1.368 . S
C66 H71 0.931 . S
C67 C66 1.351 1_455 S
C67 N68 1.373 . S
C67 H95 0.930 . S
N68 C67 1.373 . S
N68 C70 1.340 1_455 S
N69 C66 1.368 . S
N69 C70 1.321 . S
N69 Co72 2.135 . S
C70 N68 1.340 1_655 S
C70 N69 1.321 . S
C70 H94 0.930 . S
H71 C66 0.931 . S
Co72 N69 2.135 . S
Co72 N75 2.121 . S
Co72 O80 2.055 . S
Co72 O83 2.039 . S
Co72 N86 2.140 . S
C73 O74 1.227 . S
C73 O83 1.265 . S
O74 C73 1.227 . S
N75 Co72 2.121 . S
N75 C77 1.375 . S
N75 C78 1.313 . S
C76 C77 1.338 . S
C76 N79 1.377 . S
C76 H96 0.930 . S
C77 N75 1.375 . S
C77 C76 1.338 . S
C77 H81 0.931 . S
C78 N75 1.313 . S
C78 N79 1.344 . S
C78 H82 0.930 . S
N79 C76 1.377 . S
N79 C78 1.344 . S
O80 Co72 2.055 . S
O80 C84 1.253 . S
H81 C77 0.931 . S
H82 C78 0.930 . S
O83 Co72 2.039 . S
O83 C73 1.265 . S
C84 O80 1.253 . S
C84 O85 1.227 . S
O85 C84 1.227 . S
N86 Co72 2.140 . S
N86 C89 1.346 . S
N86 C90 1.345 . S
C87 C88 1.387 . S
C87 C91 1.391 . S
C88 C87 1.387 . S
C88 C89 1.369 . S
C88 H97 0.929 . S
C89 N86 1.346 . S
C89 C88 1.369 . S
C89 H92 0.928 . S
C90 N86 1.345 . S
C90 C91 1.371 . S
C90 H93 0.931 . S
C91 C87 1.391 . S
C91 C90 1.371 . S
C91 H98 0.930 . S
H92 C89 0.928 . S
H93 C90 0.931 . S
H94 C70 0.930 . S
H95 C67 0.930 . S
H96 C76 0.930 . S
H97 C88 0.929 . S
H98 C91 0.930 . S
C99 C100 1.351 . S
C99 N102 1.368 . S
C99 H104 0.931 . S
C100 C99 1.351 . S
C100 N101 1.373 . S
C100 H128 0.930 . S
N101 C100 1.373 . S
N101 C103 1.340 . S
N102 C99 1.368 . S
N102 C103 1.321 . S
N102 Co105 2.135 . S
C103 N101 1.340 . S
C103 N102 1.321 . S
C103 H127 0.930 . S
H104 C99 0.931 . S
Co105 N102 2.135 . S
Co105 N108 2.121 . S
Co105 O113 2.055 . S
Co105 O116 2.039 . S
Co105 N119 2.140 . S
C106 O107 1.227 . S
C106 O116 1.265 . S
O107 C106 1.227 . S
N108 Co105 2.121 . S
N108 C110 1.375 . S
N108 C111 1.313 . S
C109 C110 1.338 . S
C109 N112 1.377 . S
C109 H129 0.930 . S
C110 N108 1.375 . S
C110 C109 1.338 . S
C110 H114 0.931 . S
C111 N108 1.313 . S
C111 N112 1.344 . S
C111 H115 0.930 . S
N112 C109 1.377 . S
N112 C111 1.344 . S
O113 Co105 2.055 . S
O113 C117 1.253 . S
H114 C110 0.931 . S
H115 C111 0.930 . S
O116 Co105 2.039 . S
O116 C106 1.265 . S
C117 O113 1.253 . S
C117 O118 1.227 . S
O118 C117 1.227 . S
N119 Co105 2.140 . S
N119 C122 1.346 . S
N119 C123 1.345 . S
C120 C121 1.387 . S
C120 C124 1.391 . S
C121 C120 1.387 . S
C121 C122 1.369 . S
C121 H130 0.929 . S
C122 N119 1.346 . S
C122 C121 1.369 . S
C122 H125 0.928 . S
C123 N119 1.345 . S
C123 C124 1.371 . S
C123 H126 0.931 . S
C124 C120 1.391 . S
C124 C123 1.371 . S
C124 H131 0.930 . S
H125 C122 0.928 . S
H126 C123 0.931 . S
H127 C103 0.930 . S
H128 C100 0.930 . S
H129 C109 0.930 . S
H130 C121 0.929 . S
H131 C124 0.930 . S
C132 C133 1.351 1_455 S
C132 N135 1.368 . S
C132 H137 0.931 . S
C133 C132 1.351 1_655 S
C133 N134 1.373 . S
C133 H161 0.930 . S
N134 C133 1.373 . S
N134 C136 1.340 1_655 S
N135 C132 1.368 . S
N135 C136 1.321 . S
N135 Co138 2.135 . S
C136 N134 1.340 1_455 S
C136 N135 1.321 . S
C136 H160 0.930 . S
H137 C132 0.931 . S
Co138 N135 2.135 . S
Co138 N141 2.121 . S
Co138 O146 2.055 . S
Co138 O149 2.039 . S
Co138 N152 2.140 . S
C139 O140 1.227 . S
C139 O149 1.265 . S
O140 C139 1.227 . S
N141 Co138 2.121 . S
N141 C143 1.375 . S
N141 C144 1.313 . S
C142 C143 1.338 . S
C142 N145 1.377 . S
C142 H162 0.930 . S
C143 N141 1.375 . S
C143 C142 1.338 . S
C143 H147 0.931 . S
C144 N141 1.313 . S
C144 N145 1.344 . S
C144 H148 0.930 . S
N145 C142 1.377 . S
N145 C144 1.344 . S
O146 Co138 2.055 . S
O146 C150 1.253 . S
H147 C143 0.931 . S
H148 C144 0.930 . S
O149 Co138 2.039 . S
O149 C139 1.265 . S
C150 O146 1.253 . S
C150 O151 1.227 . S
O151 C150 1.227 . S
N152 Co138 2.140 . S
N152 C155 1.346 . S
N152 C156 1.345 . S
C153 C154 1.387 . S
C153 C157 1.391 . S
C154 C153 1.387 . S
C154 C155 1.369 . S
C154 H163 0.929 . S
C155 N152 1.346 . S
C155 C154 1.369 . S
C155 H158 0.928 . S
C156 N152 1.345 . S
C156 C157 1.371 . S
C156 H159 0.931 . S
C157 C153 1.391 . S
C157 C156 1.371 . S
C157 H164 0.930 . S
H158 C155 0.928 . S
H159 C156 0.931 . S
H160 C136 0.930 . S
H161 C133 0.930 . S
H162 C142 0.930 . S
H163 C154 0.929 . S
H164 C157 0.930 . S
C165 C166 1.351 . S
C165 N168 1.368 . S
C165 H170 0.931 . S
C166 C165 1.351 . S
C166 N167 1.373 . S
C166 H194 0.930 . S
N167 C166 1.373 . S
N167 C169 1.340 . S
N168 C165 1.368 . S
N168 C169 1.321 . S
N168 Co171 2.135 . S
C169 N167 1.340 . S
C169 N168 1.321 . S
C169 H193 0.930 . S
H170 C165 0.931 . S
Co171 N168 2.135 . S
Co171 N174 2.121 . S
Co171 O179 2.055 . S
Co171 O182 2.039 . S
Co171 N185 2.140 . S
C172 O173 1.227 . S
C172 O182 1.265 . S
O173 C172 1.227 . S
N174 Co171 2.121 . S
N174 C176 1.375 . S
N174 C177 1.313 . S
C175 C176 1.338 . S
C175 N178 1.377 . S
C175 H195 0.930 . S
C176 N174 1.375 . S
C176 C175 1.338 . S
C176 H180 0.931 . S
C177 N174 1.313 . S
C177 N178 1.344 . S
C177 H181 0.930 . S
N178 C175 1.377 . S
N178 C177 1.344 . S
O179 Co171 2.055 . S
O179 C183 1.253 . S
H180 C176 0.931 . S
H181 C177 0.930 . S
O182 Co171 2.039 . S
O182 C172 1.265 . S
C183 O179 1.253 . S
C183 O184 1.227 . S
O184 C183 1.227 . S
N185 Co171 2.140 . S
N185 C188 1.346 . S
N185 C189 1.345 . S
C186 C187 1.387 . S
C186 C190 1.391 . S
C187 C186 1.387 . S
C187 C188 1.369 . S
C187 H196 0.929 . S
C188 N185 1.346 . S
C188 C187 1.369 . S
C188 H191 0.928 . S
C189 N185 1.345 . S
C189 C190 1.371 . S
C189 H192 0.931 . S
C190 C186 1.391 . S
C190 C189 1.371 . S
C190 H197 0.930 . S
H191 C188 0.928 . S
H192 C189 0.931 . S
H193 C169 0.930 . S
H194 C166 0.930 . S
H195 C175 0.930 . S
H196 C187 0.929 . S
H197 C190 0.930 . S
C198 C199 1.351 1_655 S
C198 N201 1.368 . S
C198 H203 0.931 . S
C199 C198 1.351 1_455 S
C199 N200 1.373 . S
C199 H227 0.930 . S
N200 C199 1.373 . S
N200 C202 1.340 1_455 S
N201 C198 1.368 . S
N201 C202 1.321 . S
N201 Co204 2.135 . S
C202 N200 1.340 1_655 S
C202 N201 1.321 . S
C202 H226 0.930 . S
H203 C198 0.931 . S
Co204 N201 2.135 . S
Co204 N207 2.121 . S
Co204 O212 2.055 . S
Co204 O215 2.039 . S
Co204 N218 2.140 . S
C205 O206 1.227 . S
C205 O215 1.265 . S
O206 C205 1.227 . S
N207 Co204 2.121 . S
N207 C209 1.375 . S
N207 C210 1.313 . S
C208 C209 1.338 . S
C208 N211 1.377 . S
C208 H228 0.930 . S
C209 N207 1.375 . S
C209 C208 1.338 . S
C209 H213 0.931 . S
C210 N207 1.313 . S
C210 N211 1.344 . S
C210 H214 0.930 . S
N211 C208 1.377 . S
N211 C210 1.344 . S
O212 Co204 2.055 . S
O212 C216 1.253 . S
H213 C209 0.931 . S
H214 C210 0.930 . S
O215 Co204 2.039 . S
O215 C205 1.265 . S
C216 O212 1.253 . S
C216 O217 1.227 . S
O217 C216 1.227 . S
N218 Co204 2.140 . S
N218 C221 1.346 . S
N218 C222 1.345 . S
C219 C220 1.387 . S
C219 C223 1.391 . S
C220 C219 1.387 . S
C220 C221 1.369 . S
C220 H229 0.929 . S
C221 N218 1.346 . S
C221 C220 1.369 . S
C221 H224 0.928 . S
C222 N218 1.345 . S
C222 C223 1.371 . S
C222 H225 0.931 . S
C223 C219 1.391 . S
C223 C222 1.371 . S
C223 H230 0.930 . S
H224 C221 0.928 . S
H225 C222 0.931 . S
H226 C202 0.930 . S
H227 C199 0.930 . S
H228 C208 0.930 . S
H229 C220 0.929 . S
H230 C223 0.930 . S
C231 C232 1.351 . S
C231 N234 1.368 . S
C231 H236 0.931 . S
C232 C231 1.351 . S
C232 N233 1.373 . S
C232 H260 0.930 . S
N233 C232 1.373 . S
N233 C235 1.340 . S
N234 C231 1.368 . S
N234 C235 1.321 . S
N234 Co237 2.135 . S
C235 N233 1.340 . S
C235 N234 1.321 . S
C235 H259 0.930 . S
H236 C231 0.931 . S
Co237 N234 2.135 . S
Co237 N240 2.121 . S
Co237 O245 2.055 . S
Co237 O248 2.039 . S
Co237 N251 2.140 . S
C238 O239 1.227 . S
C238 O248 1.265 . S
O239 C238 1.227 . S
N240 Co237 2.121 . S
N240 C242 1.375 . S
N240 C243 1.313 . S
C241 C242 1.338 . S
C241 N244 1.377 . S
C241 H261 0.930 . S
C242 N240 1.375 . S
C242 C241 1.338 . S
C242 H246 0.931 . S
C243 N240 1.313 . S
C243 N244 1.344 . S
C243 H247 0.930 . S
N244 C241 1.377 . S
N244 C243 1.344 . S
O245 Co237 2.055 . S
O245 C249 1.253 . S
H246 C242 0.931 . S
H247 C243 0.930 . S
O248 Co237 2.039 . S
O248 C238 1.265 . S
C249 O245 1.253 . S
C249 O250 1.227 . S
O250 C249 1.227 . S
N251 Co237 2.140 . S
N251 C254 1.346 . S
N251 C255 1.345 . S
C252 C253 1.387 . S
C252 C256 1.391 . S
C253 C252 1.387 . S
C253 C254 1.369 . S
C253 H262 0.929 . S
C254 N251 1.346 . S
C254 C253 1.369 . S
C254 H257 0.928 . S
C255 N251 1.345 . S
C255 C256 1.371 . S
C255 H258 0.931 . S
C256 C252 1.391 . S
C256 C255 1.371 . S
C256 H263 0.930 . S
H257 C254 0.928 . S
H258 C255 0.931 . S
H259 C235 0.930 . S
H260 C232 0.930 . S
H261 C241 0.930 . S
H262 C253 0.929 . S
H263 C256 0.930 . S
C264 C265 1.351 1_545 S
C264 N267 1.368 . S
C264 H269 0.931 . S
C265 C264 1.351 1_565 S
C265 N266 1.373 . S
C265 H293 0.930 . S
N266 C265 1.373 . S
N266 C268 1.340 1_565 S
N267 C264 1.368 . S
N267 C268 1.321 . S
N267 Co270 2.135 . S
C268 N266 1.340 1_545 S
C268 N267 1.321 . S
C268 H292 0.930 . S
H269 C264 0.931 . S
Co270 N267 2.135 . S
Co270 N273 2.121 . S
Co270 O278 2.055 . S
Co270 O281 2.039 . S
Co270 N284 2.140 . S
C271 O272 1.227 . S
C271 O281 1.265 . S
O272 C271 1.227 . S
N273 Co270 2.121 . S
N273 C275 1.375 . S
N273 C276 1.313 . S
C274 C275 1.338 . S
C274 N277 1.377 . S
C274 H294 0.930 . S
C275 N273 1.375 . S
C275 C274 1.338 . S
C275 H279 0.931 . S
C276 N273 1.313 . S
C276 N277 1.344 . S
C276 H280 0.930 . S
N277 C274 1.377 . S
N277 C276 1.344 . S
O278 Co270 2.055 . S
O278 C282 1.253 . S
H279 C275 0.931 . S
H280 C276 0.930 . S
O281 Co270 2.039 . S
O281 C271 1.265 . S
C282 O278 1.253 . S
C282 O283 1.227 . S
O283 C282 1.227 . S
N284 Co270 2.140 . S
N284 C287 1.346 . S
N284 C288 1.345 . S
C285 C286 1.387 . S
C285 C289 1.391 . S
C286 C285 1.387 . S
C286 C287 1.369 . S
C286 H295 0.929 . S
C287 N284 1.346 . S
C287 C286 1.369 . S
C287 H290 0.928 . S
C288 N284 1.345 . S
C288 C289 1.371 . S
C288 H291 0.931 . S
C289 C285 1.391 . S
C289 C288 1.371 . S
C289 H296 0.930 . S
H290 C287 0.928 . S
H291 C288 0.931 . S
H292 C268 0.930 . S
H293 C265 0.930 . S
H294 C274 0.930 . S
H295 C286 0.929 . S
H296 C289 0.930 . S
C297 C298 1.351 . S
C297 N300 1.368 . S
C297 H302 0.931 . S
C298 C297 1.351 . S
C298 N299 1.373 . S
C298 H326 0.930 . S
N299 C298 1.373 . S
N299 C301 1.340 . S
N300 C297 1.368 . S
N300 C301 1.321 . S
N300 Co303 2.135 . S
C301 N299 1.340 . S
C301 N300 1.321 . S
C301 H325 0.930 . S
H302 C297 0.931 . S
Co303 N300 2.135 . S
Co303 N306 2.121 . S
Co303 O311 2.055 . S
Co303 O314 2.039 . S
Co303 N317 2.140 . S
C304 O305 1.227 . S
C304 O314 1.265 . S
O305 C304 1.227 . S
N306 Co303 2.121 . S
N306 C308 1.375 . S
N306 C309 1.313 . S
C307 C308 1.338 . S
C307 N310 1.377 . S
C307 H327 0.930 . S
C308 N306 1.375 . S
C308 C307 1.338 . S
C308 H312 0.931 . S
C309 N306 1.313 . S
C309 N310 1.344 . S
C309 H313 0.930 . S
N310 C307 1.377 . S
N310 C309 1.344 . S
O311 Co303 2.055 . S
O311 C315 1.253 . S
H312 C308 0.931 . S
H313 C309 0.930 . S
O314 Co303 2.039 . S
O314 C304 1.265 . S
C315 O311 1.253 . S
C315 O316 1.227 . S
O316 C315 1.227 . S
N317 Co303 2.140 . S
N317 C320 1.346 . S
N317 C321 1.345 . S
C318 C319 1.387 . S
C318 C322 1.391 . S
C319 C318 1.387 . S
C319 C320 1.369 . S
C319 H328 0.929 . S
C320 N317 1.346 . S
C320 C319 1.369 . S
C320 H323 0.928 . S
C321 N317 1.345 . S
C321 C322 1.371 . S
C321 H324 0.931 . S
C322 C318 1.391 . S
C322 C321 1.371 . S
C322 H329 0.930 . S
H323 C320 0.928 . S
H324 C321 0.931 . S
H325 C301 0.930 . S
H326 C298 0.930 . S
H327 C307 0.930 . S
H328 C319 0.929 . S
H329 C322 0.930 . S
C330 C331 1.351 1_565 S
C330 N333 1.368 . S
C330 H335 0.931 . S
C331 C330 1.351 1_545 S
C331 N332 1.373 . S
C331 H359 0.930 . S
N332 C331 1.373 . S
N332 C334 1.340 1_545 S
N333 C330 1.368 . S
N333 C334 1.321 . S
N333 Co336 2.135 . S
C334 N332 1.340 1_565 S
C334 N333 1.321 . S
C334 H358 0.930 . S
H335 C330 0.931 . S
Co336 N333 2.135 . S
Co336 N339 2.121 . S
Co336 O344 2.055 . S
Co336 O347 2.039 . S
Co336 N350 2.140 . S
C337 O338 1.227 . S
C337 O347 1.265 . S
O338 C337 1.227 . S
N339 Co336 2.121 . S
N339 C341 1.375 . S
N339 C342 1.313 . S
C340 C341 1.338 . S
C340 N343 1.377 . S
C340 H360 0.930 . S
C341 N339 1.375 . S
C341 C340 1.338 . S
C341 H345 0.931 . S
C342 N339 1.313 . S
C342 N343 1.344 . S
C342 H346 0.930 . S
N343 C340 1.377 . S
N343 C342 1.344 . S
O344 Co336 2.055 . S
O344 C348 1.253 . S
H345 C341 0.931 . S
H346 C342 0.930 . S
O347 Co336 2.039 . S
O347 C337 1.265 . S
C348 O344 1.253 . S
C348 O349 1.227 . S
O349 C348 1.227 . S
N350 Co336 2.140 . S
N350 C353 1.346 . S
N350 C354 1.345 . S
C351 C352 1.387 . S
C351 C355 1.391 . S
C352 C351 1.387 . S
C352 C353 1.369 . S
C352 H361 0.929 . S
C353 N350 1.346 . S
C353 C352 1.369 . S
C353 H356 0.928 . S
C354 N350 1.345 . S
C354 C355 1.371 . S
C354 H357 0.931 . S
C355 C351 1.391 . S
C355 C354 1.371 . S
C355 H362 0.930 . S
H356 C353 0.928 . S
H357 C354 0.931 . S
H358 C334 0.930 . S
H359 C331 0.930 . S
H360 C340 0.930 . S
H361 C352 0.929 . S
H362 C355 0.930 . S
C363 C364 1.351 . S
C363 N366 1.368 . S
C363 H368 0.931 . S
C364 C363 1.351 . S
C364 N365 1.373 . S
C364 H392 0.930 . S
N365 C364 1.373 . S
N365 C367 1.340 . S
N366 C363 1.368 . S
N366 C367 1.321 . S
N366 Co369 2.135 . S
C367 N365 1.340 . S
C367 N366 1.321 . S
C367 H391 0.930 . S
H368 C363 0.931 . S
Co369 N366 2.135 . S
Co369 N372 2.121 . S
Co369 O377 2.055 . S
Co369 O380 2.039 . S
Co369 N383 2.140 . S
C370 O371 1.227 . S
C370 O380 1.265 . S
O371 C370 1.227 . S
N372 Co369 2.121 . S
N372 C374 1.375 . S
N372 C375 1.313 . S
C373 C374 1.338 . S
C373 N376 1.377 . S
C373 H393 0.930 . S
C374 N372 1.375 . S
C374 C373 1.338 . S
C374 H378 0.931 . S
C375 N372 1.313 . S
C375 N376 1.344 . S
C375 H379 0.930 . S
N376 C373 1.377 . S
N376 C375 1.344 . S
O377 Co369 2.055 . S
O377 C381 1.253 . S
H378 C374 0.931 . S
H379 C375 0.930 . S
O380 Co369 2.039 . S
O380 C370 1.265 . S
C381 O377 1.253 . S
C381 O382 1.227 . S
O382 C381 1.227 . S
N383 Co369 2.140 . S
N383 C386 1.346 . S
N383 C387 1.345 . S
C384 C385 1.387 . S
C384 C388 1.391 . S
C385 C384 1.387 . S
C385 C386 1.369 . S
C385 H394 0.929 . S
C386 N383 1.346 . S
C386 C385 1.369 . S
C386 H389 0.928 . S
C387 N383 1.345 . S
C387 C388 1.371 . S
C387 H390 0.931 . S
C388 C384 1.391 . S
C388 C387 1.371 . S
C388 H395 0.930 . S
H389 C386 0.928 . S
H390 C387 0.931 . S
H391 C367 0.930 . S
H392 C364 0.930 . S
H393 C373 0.930 . S
H394 C385 0.929 . S
H395 C388 0.930 . S
C396 C397 1.351 1_565 S
C396 N399 1.368 . S
C396 H401 0.931 . S
C397 C396 1.351 1_545 S
C397 N398 1.373 . S
C397 H425 0.930 . S
N398 C397 1.373 . S
N398 C400 1.340 1_545 S
N399 C396 1.368 . S
N399 C400 1.321 . S
N399 Co402 2.135 . S
C400 N398 1.340 1_565 S
C400 N399 1.321 . S
C400 H424 0.930 . S
H401 C396 0.931 . S
Co402 N399 2.135 . S
Co402 N405 2.121 . S
Co402 O410 2.055 . S
Co402 O413 2.039 . S
Co402 N416 2.140 . S
C403 O404 1.227 . S
C403 O413 1.265 . S
O404 C403 1.227 . S
N405 Co402 2.121 . S
N405 C407 1.375 . S
N405 C408 1.313 . S
C406 C407 1.338 . S
C406 N409 1.377 . S
C406 H426 0.930 . S
C407 N405 1.375 . S
C407 C406 1.338 . S
C407 H411 0.931 . S
C408 N405 1.313 . S
C408 N409 1.344 . S
C408 H412 0.930 . S
N409 C406 1.377 . S
N409 C408 1.344 . S
O410 Co402 2.055 . S
O410 C414 1.253 . S
H411 C407 0.931 . S
H412 C408 0.930 . S
O413 Co402 2.039 . S
O413 C403 1.265 . S
C414 O410 1.253 . S
C414 O415 1.227 . S
O415 C414 1.227 . S
N416 Co402 2.140 . S
N416 C419 1.346 . S
N416 C420 1.345 . S
C417 C418 1.387 . S
C417 C421 1.391 . S
C418 C417 1.387 . S
C418 C419 1.369 . S
C418 H427 0.929 . S
C419 N416 1.346 . S
C419 C418 1.369 . S
C419 H422 0.928 . S
C420 N416 1.345 . S
C420 C421 1.371 . S
C420 H423 0.931 . S
C421 C417 1.391 . S
C421 C420 1.371 . S
C421 H428 0.930 . S
H422 C419 0.928 . S
H423 C420 0.931 . S
H424 C400 0.930 . S
H425 C397 0.930 . S
H426 C406 0.930 . S
H427 C418 0.929 . S
H428 C421 0.930 . S
C429 C430 1.351 . S
C429 N432 1.368 . S
C429 H434 0.931 . S
C430 C429 1.351 . S
C430 N431 1.373 . S
C430 H458 0.930 . S
N431 C430 1.373 . S
N431 C433 1.340 . S
N432 C429 1.368 . S
N432 C433 1.321 . S
N432 Co435 2.135 . S
C433 N431 1.340 . S
C433 N432 1.321 . S
C433 H457 0.930 . S
H434 C429 0.931 . S
Co435 N432 2.135 . S
Co435 N438 2.121 . S
Co435 O443 2.055 . S
Co435 O446 2.039 . S
Co435 N449 2.140 . S
C436 O437 1.227 . S
C436 O446 1.265 . S
O437 C436 1.227 . S
N438 Co435 2.121 . S
N438 C440 1.375 . S
N438 C441 1.313 . S
C439 C440 1.338 . S
C439 N442 1.377 . S
C439 H459 0.930 . S
C440 N438 1.375 . S
C440 C439 1.338 . S
C440 H444 0.931 . S
C441 N438 1.313 . S
C441 N442 1.344 . S
C441 H445 0.930 . S
N442 C439 1.377 . S
N442 C441 1.344 . S
O443 Co435 2.055 . S
O443 C447 1.253 . S
H444 C440 0.931 . S
H445 C441 0.930 . S
O446 Co435 2.039 . S
O446 C436 1.265 . S
C447 O443 1.253 . S
C447 O448 1.227 . S
O448 C447 1.227 . S
N449 Co435 2.140 . S
N449 C452 1.346 . S
N449 C453 1.345 . S
C450 C451 1.387 . S
C450 C454 1.391 . S
C451 C450 1.387 . S
C451 C452 1.369 . S
C451 H460 0.929 . S
C452 N449 1.346 . S
C452 C451 1.369 . S
C452 H455 0.928 . S
C453 N449 1.345 . S
C453 C454 1.371 . S
C453 H456 0.931 . S
C454 C450 1.391 . S
C454 C453 1.371 . S
C454 H461 0.930 . S
H455 C452 0.928 . S
H456 C453 0.931 . S
H457 C433 0.930 . S
H458 C430 0.930 . S
H459 C439 0.930 . S
H460 C451 0.929 . S
H461 C454 0.930 . S
C462 C463 1.351 1_545 S
C462 N465 1.368 . S
C462 H467 0.931 . S
C463 C462 1.351 1_565 S
C463 N464 1.373 . S
C463 H491 0.930 . S
N464 C463 1.373 . S
N464 C466 1.340 1_565 S
N465 C462 1.368 . S
N465 C466 1.321 . S
N465 Co468 2.135 . S
C466 N464 1.340 1_545 S
C466 N465 1.321 . S
C466 H490 0.930 . S
H467 C462 0.931 . S
Co468 N465 2.135 . S
Co468 N471 2.121 . S
Co468 O476 2.055 . S
Co468 O479 2.039 . S
Co468 N482 2.140 . S
C469 O470 1.227 . S
C469 O479 1.265 . S
O470 C469 1.227 . S
N471 Co468 2.121 . S
N471 C473 1.375 . S
N471 C474 1.313 . S
C472 C473 1.338 . S
C472 N475 1.377 . S
C472 H492 0.930 . S
C473 N471 1.375 . S
C473 C472 1.338 . S
C473 H477 0.931 . S
C474 N471 1.313 . S
C474 N475 1.344 . S
C474 H478 0.930 . S
N475 C472 1.377 . S
N475 C474 1.344 . S
O476 Co468 2.055 . S
O476 C480 1.253 . S
H477 C473 0.931 . S
H478 C474 0.930 . S
O479 Co468 2.039 . S
O479 C469 1.265 . S
C480 O476 1.253 . S
C480 O481 1.227 . S
O481 C480 1.227 . S
N482 Co468 2.140 . S
N482 C485 1.346 . S
N482 C486 1.345 . S
C483 C484 1.387 . S
C483 C487 1.391 . S
C484 C483 1.387 . S
C484 C485 1.369 . S
C484 H493 0.929 . S
C485 N482 1.346 . S
C485 C484 1.369 . S
C485 H488 0.928 . S
C486 N482 1.345 . S
C486 C487 1.371 . S
C486 H489 0.931 . S
C487 C483 1.391 . S
C487 C486 1.371 . S
C487 H494 0.930 . S
H488 C485 0.928 . S
H489 C486 0.931 . S
H490 C466 0.930 . S
H491 C463 0.930 . S
H492 C472 0.930 . S
H493 C484 0.929 . S
H494 C487 0.930 . S
C495 C496 1.351 . S
C495 N498 1.368 . S
C495 H500 0.931 . S
C496 C495 1.351 . S
C496 N497 1.373 . S
C496 H524 0.930 . S
N497 C496 1.373 . S
N497 C499 1.340 . S
N498 C495 1.368 . S
N498 C499 1.321 . S
N498 Co501 2.135 . S
C499 N497 1.340 . S
C499 N498 1.321 . S
C499 H523 0.930 . S
H500 C495 0.931 . S
Co501 N498 2.135 . S
Co501 N504 2.121 . S
Co501 O509 2.055 . S
Co501 O512 2.039 . S
Co501 N515 2.140 . S
C502 O503 1.227 . S
C502 O512 1.265 . S
O503 C502 1.227 . S
N504 Co501 2.121 . S
N504 C506 1.375 . S
N504 C507 1.313 . S
C505 C506 1.338 . S
C505 N508 1.377 . S
C505 H525 0.930 . S
C506 N504 1.375 . S
C506 C505 1.338 . S
C506 H510 0.931 . S
C507 N504 1.313 . S
C507 N508 1.344 . S
C507 H511 0.930 . S
N508 C505 1.377 . S
N508 C507 1.344 . S
O509 Co501 2.055 . S
O509 C513 1.253 . S
H510 C506 0.931 . S
H511 C507 0.930 . S
O512 Co501 2.039 . S
O512 C502 1.265 . S
C513 O509 1.253 . S
C513 O514 1.227 . S
O514 C513 1.227 . S
N515 Co501 2.140 . S
N515 C518 1.346 . S
N515 C519 1.345 . S
C516 C517 1.387 . S
C516 C520 1.391 . S
C517 C516 1.387 . S
C517 C518 1.369 . S
C517 H526 0.929 . S
C518 N515 1.346 . S
C518 C517 1.369 . S
C518 H521 0.928 . S
C519 N515 1.345 . S
C519 C520 1.371 . S
C519 H522 0.931 . S
C520 C516 1.391 . S
C520 C519 1.371 . S
C520 H527 0.930 . S
H521 C518 0.928 . S
H522 C519 0.931 . S
H523 C499 0.930 . S
H524 C496 0.930 . S
H525 C505 0.930 . S
H526 C517 0.929 . S
H527 C520 0.930 . S
C528 C529 1.351 1_554 S
C528 N531 1.368 . S
C528 H533 0.931 . S
C529 C528 1.351 1_556 S
C529 N530 1.373 . S
C529 H557 0.930 . S
N530 C529 1.373 . S
N530 C532 1.340 1_556 S
N531 C528 1.368 . S
N531 C532 1.321 . S
N531 Co534 2.135 . S
C532 N530 1.340 1_554 S
C532 N531 1.321 . S
C532 H556 0.930 . S
H533 C528 0.931 . S
Co534 N531 2.135 . S
Co534 N537 2.121 . S
Co534 O542 2.055 . S
Co534 O545 2.039 . S
Co534 N548 2.140 . S
C535 O536 1.227 . S
C535 O545 1.265 . S
O536 C535 1.227 . S
N537 Co534 2.121 . S
N537 C539 1.375 . S
N537 C540 1.313 . S
C538 C539 1.338 . S
C538 N541 1.377 . S
C538 H558 0.930 . S
C539 N537 1.375 . S
C539 C538 1.338 . S
C539 H543 0.931 . S
C540 N537 1.313 . S
C540 N541 1.344 . S
C540 H544 0.930 . S
N541 C538 1.377 . S
N541 C540 1.344 . S
O542 Co534 2.055 . S
O542 C546 1.253 . S
H543 C539 0.931 . S
H544 C540 0.930 . S
O545 Co534 2.039 . S
O545 C535 1.265 . S
C546 O542 1.253 . S
C546 O547 1.227 . S
O547 C546 1.227 . S
N548 Co534 2.140 . S
N548 C551 1.346 . S
N548 C552 1.345 . S
C549 C550 1.387 . S
C549 C553 1.391 . S
C550 C549 1.387 . S
C550 C551 1.369 . S
C550 H559 0.929 . S
C551 N548 1.346 . S
C551 C550 1.369 . S
C551 H554 0.928 . S
C552 N548 1.345 . S
C552 C553 1.371 . S
C552 H555 0.931 . S
C553 C549 1.391 . S
C553 C552 1.371 . S
C553 H560 0.930 . S
H554 C551 0.928 . S
H555 C552 0.931 . S
H556 C532 0.930 . S
H557 C529 0.930 . S
H558 C538 0.930 . S
H559 C550 0.929 . S
H560 C553 0.930 . S
C561 C562 1.351 1_556 S
C561 N564 1.368 . S
C561 H566 0.931 . S
C562 C561 1.351 1_554 S
C562 N563 1.373 . S
C562 H590 0.930 . S
N563 C562 1.373 . S
N563 C565 1.340 1_554 S
N564 C561 1.368 . S
N564 C565 1.321 . S
N564 Co567 2.135 . S
C565 N563 1.340 1_556 S
C565 N564 1.321 . S
C565 H589 0.930 . S
H566 C561 0.931 . S
Co567 N564 2.135 . S
Co567 N570 2.121 . S
Co567 O575 2.055 . S
Co567 O578 2.039 . S
Co567 N581 2.140 . S
C568 O569 1.227 . S
C568 O578 1.265 . S
O569 C568 1.227 . S
N570 Co567 2.121 . S
N570 C572 1.375 . S
N570 C573 1.313 . S
C571 C572 1.338 . S
C571 N574 1.377 . S
C571 H591 0.930 . S
C572 N570 1.375 . S
C572 C571 1.338 . S
C572 H576 0.931 . S
C573 N570 1.313 . S
C573 N574 1.344 . S
C573 H577 0.930 . S
N574 C571 1.377 . S
N574 C573 1.344 . S
O575 Co567 2.055 . S
O575 C579 1.253 . S
H576 C572 0.931 . S
H577 C573 0.930 . S
O578 Co567 2.039 . S
O578 C568 1.265 . S
C579 O575 1.253 . S
C579 O580 1.227 . S
O580 C579 1.227 . S
N581 Co567 2.140 . S
N581 C584 1.346 . S
N581 C585 1.345 . S
C582 C583 1.387 . S
C582 C586 1.391 . S
C583 C582 1.387 . S
C583 C584 1.369 . S
C583 H592 0.929 . S
C584 N581 1.346 . S
C584 C583 1.369 . S
C584 H587 0.928 . S
C585 N581 1.345 . S
C585 C586 1.371 . S
C585 H588 0.931 . S
C586 C582 1.391 . S
C586 C585 1.371 . S
C586 H593 0.930 . S
H587 C584 0.928 . S
H588 C585 0.931 . S
H589 C565 0.930 . S
H590 C562 0.930 . S
H591 C571 0.930 . S
H592 C583 0.929 . S
H593 C586 0.930 . S
C594 C595 1.351 . S
C594 N597 1.368 . S
C594 H599 0.931 . S
C595 C594 1.351 . S
C595 N596 1.373 . S
C595 H623 0.930 . S
N596 C595 1.373 . S
N596 C598 1.340 . S
N597 C594 1.368 . S
N597 C598 1.321 . S
N597 Co600 2.135 . S
C598 N596 1.340 . S
C598 N597 1.321 . S
C598 H622 0.930 . S
H599 C594 0.931 . S
Co600 N597 2.135 . S
Co600 N603 2.121 . S
Co600 O608 2.055 . S
Co600 O611 2.039 . S
Co600 N614 2.140 . S
C601 O602 1.227 . S
C601 O611 1.265 . S
O602 C601 1.227 . S
N603 Co600 2.121 . S
N603 C605 1.375 . S
N603 C606 1.313 . S
C604 C605 1.338 . S
C604 N607 1.377 . S
C604 H624 0.930 . S
C605 N603 1.375 . S
C605 C604 1.338 . S
C605 H609 0.931 . S
C606 N603 1.313 . S
C606 N607 1.344 . S
C606 H610 0.930 . S
N607 C604 1.377 . S
N607 C606 1.344 . S
O608 Co600 2.055 . S
O608 C612 1.253 . S
H609 C605 0.931 . S
H610 C606 0.930 . S
O611 Co600 2.039 . S
O611 C601 1.265 . S
C612 O608 1.253 . S
C612 O613 1.227 . S
O613 C612 1.227 . S
N614 Co600 2.140 . S
N614 C617 1.346 . S
N614 C618 1.345 . S
C615 C616 1.387 . S
C615 C619 1.391 . S
C616 C615 1.387 . S
C616 C617 1.369 . S
C616 H625 0.929 . S
C617 N614 1.346 . S
C617 C616 1.369 . S
C617 H620 0.928 . S
C618 N614 1.345 . S
C618 C619 1.371 . S
C618 H621 0.931 . S
C619 C615 1.391 . S
C619 C618 1.371 . S
C619 H626 0.930 . S
H620 C617 0.928 . S
H621 C618 0.931 . S
H622 C598 0.930 . S
H623 C595 0.930 . S
H624 C604 0.930 . S
H625 C616 0.929 . S
H626 C619 0.930 . S
C627 C628 1.351 1_556 S
C627 N630 1.368 . S
C627 H632 0.931 . S
C628 C627 1.351 1_554 S
C628 N629 1.373 . S
C628 H656 0.930 . S
N629 C628 1.373 . S
N629 C631 1.340 1_554 S
N630 C627 1.368 . S
N630 C631 1.321 . S
N630 Co633 2.135 . S
C631 N629 1.340 1_556 S
C631 N630 1.321 . S
C631 H655 0.930 . S
H632 C627 0.931 . S
Co633 N630 2.135 . S
Co633 N636 2.121 . S
Co633 O641 2.055 . S
Co633 O644 2.039 . S
Co633 N647 2.140 . S
C634 O635 1.227 . S
C634 O644 1.265 . S
O635 C634 1.227 . S
N636 Co633 2.121 . S
N636 C638 1.375 . S
N636 C639 1.313 . S
C637 C638 1.338 . S
C637 N640 1.377 . S
C637 H657 0.930 . S
C638 N636 1.375 . S
C638 C637 1.338 . S
C638 H642 0.931 . S
C639 N636 1.313 . S
C639 N640 1.344 . S
C639 H643 0.930 . S
N640 C637 1.377 . S
N640 C639 1.344 . S
O641 Co633 2.055 . S
O641 C645 1.253 . S
H642 C638 0.931 . S
H643 C639 0.930 . S
O644 Co633 2.039 . S
O644 C634 1.265 . S
C645 O641 1.253 . S
C645 O646 1.227 . S
O646 C645 1.227 . S
N647 Co633 2.140 . S
N647 C650 1.346 . S
N647 C651 1.345 . S
C648 C649 1.387 . S
C648 C652 1.391 . S
C649 C648 1.387 . S
C649 C650 1.369 . S
C649 H658 0.929 . S
C650 N647 1.346 . S
C650 C649 1.369 . S
C650 H653 0.928 . S
C651 N647 1.345 . S
C651 C652 1.371 . S
C651 H654 0.931 . S
C652 C648 1.391 . S
C652 C651 1.371 . S
C652 H659 0.930 . S
H653 C650 0.928 . S
H654 C651 0.931 . S
H655 C631 0.930 . S
H656 C628 0.930 . S
H657 C637 0.930 . S
H658 C649 0.929 . S
H659 C652 0.930 . S
C660 C661 1.351 . S
C660 N663 1.368 . S
C660 H665 0.931 . S
C661 C660 1.351 . S
C661 N662 1.373 . S
C661 H689 0.930 . S
N662 C661 1.373 . S
N662 C664 1.340 . S
N663 C660 1.368 . S
N663 C664 1.321 . S
N663 Co666 2.135 . S
C664 N662 1.340 . S
C664 N663 1.321 . S
C664 H688 0.930 . S
H665 C660 0.931 . S
Co666 N663 2.135 . S
Co666 N669 2.121 . S
Co666 O674 2.055 . S
Co666 O677 2.039 . S
Co666 N680 2.140 . S
C667 O668 1.227 . S
C667 O677 1.265 . S
O668 C667 1.227 . S
N669 Co666 2.121 . S
N669 C671 1.375 . S
N669 C672 1.313 . S
C670 C671 1.338 . S
C670 N673 1.377 . S
C670 H690 0.930 . S
C671 N669 1.375 . S
C671 C670 1.338 . S
C671 H675 0.931 . S
C672 N669 1.313 . S
C672 N673 1.344 . S
C672 H676 0.930 . S
N673 C670 1.377 . S
N673 C672 1.344 . S
O674 Co666 2.055 . S
O674 C678 1.253 . S
H675 C671 0.931 . S
H676 C672 0.930 . S
O677 Co666 2.039 . S
O677 C667 1.265 . S
C678 O674 1.253 . S
C678 O679 1.227 . S
O679 C678 1.227 . S
N680 Co666 2.140 . S
N680 C683 1.346 . S
N680 C684 1.345 . S
C681 C682 1.387 . S
C681 C685 1.391 . S
C682 C681 1.387 . S
C682 C683 1.369 . S
C682 H691 0.929 . S
C683 N680 1.346 . S
C683 C682 1.369 . S
C683 H686 0.928 . S
C684 N680 1.345 . S
C684 C685 1.371 . S
C684 H687 0.931 . S
C685 C681 1.391 . S
C685 C684 1.371 . S
C685 H692 0.930 . S
H686 C683 0.928 . S
H687 C684 0.931 . S
H688 C664 0.930 . S
H689 C661 0.930 . S
H690 C670 0.930 . S
H691 C682 0.929 . S
H692 C685 0.930 . S
C693 C694 1.351 1_554 S
C693 N696 1.368 . S
C693 H698 0.931 . S
C694 C693 1.351 1_556 S
C694 N695 1.373 . S
C694 H722 0.930 . S
N695 C694 1.373 . S
N695 C697 1.340 1_556 S
N696 C693 1.368 . S
N696 C697 1.321 . S
N696 Co699 2.135 . S
C697 N695 1.340 1_554 S
C697 N696 1.321 . S
C697 H721 0.930 . S
H698 C693 0.931 . S
Co699 N696 2.135 . S
Co699 N702 2.121 . S
Co699 O707 2.055 . S
Co699 O710 2.039 . S
Co699 N713 2.140 . S
C700 O701 1.227 . S
C700 O710 1.265 . S
O701 C700 1.227 . S
N702 Co699 2.121 . S
N702 C704 1.375 . S
N702 C705 1.313 . S
C703 C704 1.338 . S
C703 N706 1.377 . S
C703 H723 0.930 . S
C704 N702 1.375 . S
C704 C703 1.338 . S
C704 H708 0.931 . S
C705 N702 1.313 . S
C705 N706 1.344 . S
C705 H709 0.930 . S
N706 C703 1.377 . S
N706 C705 1.344 . S
O707 Co699 2.055 . S
O707 C711 1.253 . S
H708 C704 0.931 . S
H709 C705 0.930 . S
O710 Co699 2.039 . S
O710 C700 1.265 . S
C711 O707 1.253 . S
C711 O712 1.227 . S
O712 C711 1.227 . S
N713 Co699 2.140 . S
N713 C716 1.346 . S
N713 C717 1.345 . S
C714 C715 1.387 . S
C714 C718 1.391 . S
C715 C714 1.387 . S
C715 C716 1.369 . S
C715 H724 0.929 . S
C716 N713 1.346 . S
C716 C715 1.369 . S
C716 H719 0.928 . S
C717 N713 1.345 . S
C717 C718 1.371 . S
C717 H720 0.931 . S
C718 C714 1.391 . S
C718 C717 1.371 . S
C718 H725 0.930 . S
H719 C716 0.928 . S
H720 C717 0.931 . S
H721 C697 0.930 . S
H722 C694 0.930 . S
H723 C703 0.930 . S
H724 C715 0.929 . S
H725 C718 0.930 . S
C726 C727 1.351 . S
C726 N729 1.368 . S
C726 H731 0.931 . S
C727 C726 1.351 . S
C727 N728 1.373 . S
C727 H755 0.930 . S
N728 C727 1.373 . S
N728 C730 1.340 . S
N729 C726 1.368 . S
N729 C730 1.321 . S
N729 Co732 2.135 . S
C730 N728 1.340 . S
C730 N729 1.321 . S
C730 H754 0.930 . S
H731 C726 0.931 . S
Co732 N729 2.135 . S
Co732 N735 2.121 . S
Co732 O740 2.055 . S
Co732 O743 2.039 . S
Co732 N746 2.140 . S
C733 O734 1.227 . S
C733 O743 1.265 . S
O734 C733 1.227 . S
N735 Co732 2.121 . S
N735 C737 1.375 . S
N735 C738 1.313 . S
C736 C737 1.338 . S
C736 N739 1.377 . S
C736 H756 0.930 . S
C737 N735 1.375 . S
C737 C736 1.338 . S
C737 H741 0.931 . S
C738 N735 1.313 . S
C738 N739 1.344 . S
C738 H742 0.930 . S
N739 C736 1.377 . S
N739 C738 1.344 . S
O740 Co732 2.055 . S
O740 C744 1.253 . S
H741 C737 0.931 . S
H742 C738 0.930 . S
O743 Co732 2.039 . S
O743 C733 1.265 . S
C744 O740 1.253 . S
C744 O745 1.227 . S
O745 C744 1.227 . S
N746 Co732 2.140 . S
N746 C749 1.346 . S
N746 C750 1.345 . S
C747 C748 1.387 . S
C747 C751 1.391 . S
C748 C747 1.387 . S
C748 C749 1.369 . S
C748 H757 0.929 . S
C749 N746 1.346 . S
C749 C748 1.369 . S
C749 H752 0.928 . S
C750 N746 1.345 . S
C750 C751 1.371 . S
C750 H753 0.931 . S
C751 C747 1.391 . S
C751 C750 1.371 . S
C751 H758 0.930 . S
H752 C749 0.928 . S
H753 C750 0.931 . S
H754 C730 0.930 . S
H755 C727 0.930 . S
H756 C736 0.930 . S
H757 C748 0.929 . S
H758 C751 0.930 . S
C759 C760 1.351 . S
C759 N762 1.368 . S
C759 H764 0.931 . S
C760 C759 1.351 . S
C760 N761 1.373 . S
C760 H788 0.930 . S
N761 C760 1.373 . S
N761 C763 1.340 . S
N762 C759 1.368 . S
N762 C763 1.321 . S
N762 Co765 2.135 . S
C763 N761 1.340 . S
C763 N762 1.321 . S
C763 H787 0.930 . S
H764 C759 0.931 . S
Co765 N762 2.135 . S
Co765 N768 2.121 . S
Co765 O773 2.055 . S
Co765 O776 2.039 . S
Co765 N779 2.140 . S
C766 O767 1.227 . S
C766 O776 1.265 . S
O767 C766 1.227 . S
N768 Co765 2.121 . S
N768 C770 1.375 . S
N768 C771 1.313 . S
C769 C770 1.338 . S
C769 N772 1.377 . S
C769 H789 0.930 . S
C770 N768 1.375 . S
C770 C769 1.338 . S
C770 H774 0.931 . S
C771 N768 1.313 . S
C771 N772 1.344 . S
C771 H775 0.930 . S
N772 C769 1.377 . S
N772 C771 1.344 . S
O773 Co765 2.055 . S
O773 C777 1.253 . S
H774 C770 0.931 . S
H775 C771 0.930 . S
O776 Co765 2.039 . S
O776 C766 1.265 . S
C777 O773 1.253 . S
C777 O778 1.227 . S
O778 C777 1.227 . S
N779 Co765 2.140 . S
N779 C782 1.346 . S
N779 C783 1.345 . S
C780 C781 1.387 . S
C780 C784 1.391 . S
C781 C780 1.387 . S
C781 C782 1.369 . S
C781 H790 0.929 . S
C782 N779 1.346 . S
C782 C781 1.369 . S
C782 H785 0.928 . S
C783 N779 1.345 . S
C783 C784 1.371 . S
C783 H786 0.931 . S
C784 C780 1.391 . S
C784 C783 1.371 . S
C784 H791 0.930 . S
H785 C782 0.928 . S
H786 C783 0.931 . S
H787 C763 0.930 . S
H788 C760 0.930 . S
H789 C769 0.930 . S
H790 C781 0.929 . S
H791 C784 0.930 . S
C792 C793 1.369 . S
C792 C794 1.419 . S
C792 H796 0.930 . S
C793 C792 1.369 . S
C793 C802 1.429 . S
C794 C792 1.419 . S
C794 C795 1.363 . S
C794 H797 0.929 . S
C795 C794 1.363 . S
C795 C801 1.428 . S
H796 C792 0.930 . S
H797 C794 0.929 . S
S798 N799 1.613 . S
S798 N800 1.610 . S
N799 S798 1.613 . S
N799 C802 1.350 . S
N800 S798 1.610 . S
N800 C801 1.351 . S
C801 C795 1.428 . S
C801 N800 1.351 . S
C801 C802 1.434 . S
C802 C793 1.429 . S
C802 N799 1.350 . S
C802 C801 1.434 . S
C803 C804 1.369 . S
C803 C805 1.419 . S
C803 H807 0.930 . S
C804 C803 1.369 . S
C804 C813 1.429 . S
C805 C803 1.419 . S
C805 C806 1.363 . S
C805 H808 0.929 . S
C806 C805 1.363 . S
C806 C812 1.428 . S
H807 C803 0.930 . S
H808 C805 0.929 . S
S809 N810 1.613 . S
S809 N811 1.610 . S
N810 S809 1.613 . S
N810 C813 1.350 . S
N811 S809 1.610 . S
N811 C812 1.351 . S
C812 C806 1.428 . S
C812 N811 1.351 . S
C812 C813 1.434 . S
C813 C804 1.429 . S
C813 N810 1.350 . S
C813 C812 1.434 . S
C814 C815 1.369 . S
C814 C816 1.419 . S
C814 H818 0.930 . S
C815 C814 1.369 . S
C815 C824 1.429 . S
C816 C814 1.419 . S
C816 C817 1.363 . S
C816 H819 0.929 . S
C817 C816 1.363 . S
C817 C823 1.428 . S
H818 C814 0.930 . S
H819 C816 0.929 . S
S820 N821 1.613 . S
S820 N822 1.610 . S
N821 S820 1.613 . S
N821 C824 1.350 . S
N822 S820 1.610 . S
N822 C823 1.351 . S
C823 C817 1.428 . S
C823 N822 1.351 . S
C823 C824 1.434 . S
C824 C815 1.429 . S
C824 N821 1.350 . S
C824 C823 1.434 . S
C825 C826 1.369 . S
C825 C827 1.419 . S
C825 H829 0.930 . S
C826 C825 1.369 . S
C826 C835 1.429 . S
C827 C825 1.419 . S
C827 C828 1.363 . S
C827 H830 0.929 . S
C828 C827 1.363 . S
C828 C834 1.428 . S
H829 C825 0.930 . S
H830 C827 0.929 . S
S831 N832 1.596 1_655 S
S831 N833 1.612 . S
N832 S831 1.596 1_455 S
N832 C835 1.350 . S
N833 S831 1.612 . S
N833 C834 1.351 1_655 S
C834 C828 1.428 . S
C834 N833 1.351 1_455 S
C834 C835 1.434 . S
C835 C826 1.429 . S
C835 N832 1.350 . S
C835 C834 1.434 . S
C836 C837 1.369 . S
C836 C838 1.419 . S
C836 H840 0.930 . S
C837 C836 1.369 . S
C837 C846 1.429 . S
C838 C836 1.419 . S
C838 C839 1.363 . S
C838 H841 0.929 . S
C839 C838 1.363 . S
C839 C845 1.428 . S
H840 C836 0.930 . S
H841 C838 0.929 . S
S842 N843 1.613 . S
S842 N844 1.610 . S
N843 S842 1.613 . S
N843 C846 1.350 . S
N844 S842 1.610 . S
N844 C845 1.351 . S
C845 C839 1.428 . S
C845 N844 1.351 . S
C845 C846 1.434 . S
C846 C837 1.429 . S
C846 N843 1.350 . S
C846 C845 1.434 . S
C847 C848 1.369 . S
C847 C849 1.419 . S
C847 H851 0.930 . S
C848 C847 1.369 . S
C848 C857 1.429 . S
C849 C847 1.419 . S
C849 C850 1.363 . S
C849 H852 0.929 . S
C850 C849 1.363 . S
C850 C856 1.428 . S
H851 C847 0.930 . S
H852 C849 0.929 . S
S853 N854 1.613 . S
S853 N855 1.610 . S
N854 S853 1.613 . S
N854 C857 1.350 . S
N855 S853 1.610 . S
N855 C856 1.351 . S
C856 C850 1.428 . S
C856 N855 1.351 . S
C856 C857 1.434 . S
C857 C848 1.429 . S
C857 N854 1.350 . S
C857 C856 1.434 . S
C858 C859 1.369 . S
C858 C860 1.419 . S
C858 H862 0.930 . S
C859 C858 1.369 . S
C859 C868 1.429 . S
C860 C858 1.419 . S
C860 C861 1.363 . S
C860 H863 0.929 . S
C861 C860 1.363 . S
C861 C867 1.428 . S
H862 C858 0.930 . S
H863 C860 0.929 . S
S864 N865 1.613 . S
S864 N866 1.610 . S
N865 S864 1.613 . S
N865 C868 1.350 . S
N866 S864 1.610 . S
N866 C867 1.351 . S
C867 C861 1.428 . S
C867 N866 1.351 . S
C867 C868 1.434 . S
C868 C859 1.429 . S
C868 N865 1.350 . S
C868 C867 1.434 . S
C869 C870 1.369 . S
C869 C871 1.419 . S
C869 H873 0.930 . S
C870 C869 1.369 . S
C870 C879 1.429 . S
C871 C869 1.419 . S
C871 C872 1.363 . S
C871 H874 0.929 . S
C872 C871 1.363 . S
C872 C878 1.428 . S
H873 C869 0.930 . S
H874 C871 0.929 . S
S875 N876 1.613 . S
S875 N877 1.610 . S
N876 S875 1.613 . S
N876 C879 1.350 . S
N877 S875 1.610 . S
N877 C878 1.351 . S
C878 C872 1.428 . S
C878 N877 1.351 . S
C878 C879 1.434 . S
C879 C870 1.429 . S
C879 N876 1.350 . S
C879 C878 1.434 . S
C880 C881 1.369 . S
C880 C882 1.419 . S
C880 H884 0.930 . S
C881 C880 1.369 . S
C881 C890 1.429 . S
C882 C880 1.419 . S
C882 C883 1.363 . S
C882 H885 0.929 . S
C883 C882 1.363 . S
C883 C889 1.428 . S
H884 C880 0.930 . S
H885 C882 0.929 . S
S886 N887 1.613 . S
S886 N888 1.610 . S
N887 S886 1.613 . S
N887 C890 1.350 . S
N888 S886 1.610 . S
N888 C889 1.351 . S
C889 C883 1.428 . S
C889 N888 1.351 . S
C889 C890 1.434 . S
C890 C881 1.429 . S
C890 N887 1.350 . S
C890 C889 1.434 . S
C891 C892 1.369 . S
C891 C893 1.419 . S
C891 H895 0.930 . S
C892 C891 1.369 . S
C892 C901 1.429 . S
C893 C891 1.419 . S
C893 C894 1.363 . S
C893 H896 0.929 . S
C894 C893 1.363 . S
C894 C900 1.428 . S
H895 C891 0.930 . S
H896 C893 0.929 . S
S897 N898 1.613 . S
S897 N899 1.610 . S
N898 S897 1.613 . S
N898 C901 1.350 . S
N899 S897 1.610 . S
N899 C900 1.351 . S
C900 C894 1.428 . S
C900 N899 1.351 . S
C900 C901 1.434 . S
C901 C892 1.429 . S
C901 N898 1.350 . S
C901 C900 1.434 . S
C902 C903 1.369 . S
C902 C904 1.419 . S
C902 H906 0.930 . S
C903 C902 1.369 . S
C903 C912 1.429 . S
C904 C902 1.419 . S
C904 C905 1.363 . S
C904 H907 0.929 . S
C905 C904 1.363 . S
C905 C911 1.428 . S
H906 C902 0.930 . S
H907 C904 0.929 . S
S908 N909 1.613 . S
S908 N910 1.610 . S
N909 S908 1.613 . S
N909 C912 1.350 . S
N910 S908 1.610 . S
N910 C911 1.351 . S
C911 C905 1.428 . S
C911 N910 1.351 . S
C911 C912 1.434 . S
C912 C903 1.429 . S
C912 N909 1.350 . S
C912 C911 1.434 . S
C913 C914 1.369 . S
C913 C915 1.419 . S
C913 H917 0.930 . S
C914 C913 1.369 . S
C914 C923 1.429 . S
C915 C913 1.419 . S
C915 C916 1.363 . S
C915 H918 0.929 . S
C916 C915 1.363 . S
C916 C922 1.428 . S
H917 C913 0.930 . S
H918 C915 0.929 . S
S919 N920 1.613 . S
S919 N921 1.610 . S
N920 S919 1.613 . S
N920 C923 1.350 . S
N921 S919 1.610 . S
N921 C922 1.351 . S
C922 C916 1.428 . S
C922 N921 1.351 . S
C922 C923 1.434 . S
C923 C914 1.429 . S
C923 N920 1.350 . S
C923 C922 1.434 . S
C924 C925 1.369 . S
C924 C926 1.419 . S
C924 H928 0.930 . S
C925 C924 1.369 . S
C925 C934 1.429 . S
C926 C924 1.419 . S
C926 C927 1.363 . S
C926 H929 0.929 . S
C927 C926 1.363 . S
C927 C933 1.428 . S
H928 C924 0.930 . S
H929 C926 0.929 . S
S930 N931 1.613 . S
S930 N932 1.610 . S
N931 S930 1.613 . S
N931 C934 1.350 . S
N932 S930 1.610 . S
N932 C933 1.351 . S
C933 C927 1.428 . S
C933 N932 1.351 . S
C933 C934 1.434 . S
C934 C925 1.429 . S
C934 N931 1.350 . S
C934 C933 1.434 . S
C935 C936 1.369 . S
C935 C937 1.419 . S
C935 H939 0.930 . S
C936 C935 1.369 . S
C936 C945 1.429 . S
C937 C935 1.419 . S
C937 C938 1.363 . S
C937 H940 0.929 . S
C938 C937 1.363 . S
C938 C944 1.428 . S
H939 C935 0.930 . S
H940 C937 0.929 . S
S941 N942 1.613 . S
S941 N943 1.610 . S
N942 S941 1.613 . S
N942 C945 1.350 . S
N943 S941 1.610 . S
N943 C944 1.351 . S
C944 C938 1.428 . S
C944 N943 1.351 . S
C944 C945 1.434 . S
C945 C936 1.429 . S
C945 N942 1.350 . S
C945 C944 1.434 . S
C946 C947 1.369 . S
C946 C948 1.419 . S
C946 H950 0.930 . S
C947 C946 1.369 . S
C947 C956 1.429 . S
C948 C946 1.419 . S
C948 C949 1.363 . S
C948 H951 0.929 . S
C949 C948 1.363 . S
C949 C955 1.428 . S
H950 C946 0.930 . S
H951 C948 0.929 . S
S952 N953 1.613 . S
S952 N954 1.610 . S
N953 S952 1.613 . S
N953 C956 1.350 . S
N954 S952 1.610 . S
N954 C955 1.351 . S
C955 C949 1.428 . S
C955 N954 1.351 . S
C955 C956 1.434 . S
C956 C947 1.429 . S
C956 N953 1.350 . S
C956 C955 1.434 . S
C957 C958 1.369 . S
C957 C959 1.419 . S
C957 H961 0.930 . S
C958 C957 1.369 . S
C958 C967 1.429 . S
C959 C957 1.419 . S
C959 C960 1.363 . S
C959 H962 0.929 . S
C960 C959 1.363 . S
C960 C966 1.428 . S
H961 C957 0.930 . S
H962 C959 0.929 . S
S963 N964 1.613 . S
S963 N965 1.610 1_554 S
N964 S963 1.613 . S
N964 C967 1.350 1_554 S
N965 S963 1.610 1_556 S
N965 C966 1.351 . S
C966 C960 1.428 . S
C966 N965 1.351 . S
C966 C967 1.434 . S
C967 C958 1.429 . S
C967 N964 1.350 1_556 S
C967 C966 1.434 . S
C968 C969 1.369 . S
C968 C970 1.419 . S
C968 H972 0.930 . S
C969 C968 1.369 . S
C969 C978 1.429 . S
C970 C968 1.419 . S
C970 C971 1.363 . S
C970 H973 0.929 . S
C971 C970 1.363 . S
C971 C977 1.428 . S
H972 C968 0.930 . S
H973 C970 0.929 . S
S974 N975 1.613 . S
S974 N976 1.610 . S
N975 S974 1.613 . S
N975 C978 1.350 . S
N976 S974 1.610 . S
N976 C977 1.351 . S
C977 C971 1.428 . S
C977 N976 1.351 . S
C977 C978 1.434 . S
C978 C969 1.429 . S
C978 N975 1.350 . S
C978 C977 1.434 . S
C979 C980 1.369 . S
C979 C981 1.419 . S
C979 H983 0.930 . S
C980 C979 1.369 . S
C980 C989 1.429 . S
C981 C979 1.419 . S
C981 C982 1.363 . S
C981 H984 0.929 . S
C982 C981 1.363 . S
C982 C988 1.428 . S
H983 C979 0.930 . S
H984 C981 0.929 . S
S985 N986 1.613 . S
S985 N987 1.610 . S
N986 S985 1.613 . S
N986 C989 1.350 . S
N987 S985 1.610 . S
N987 C988 1.351 . S
C988 C982 1.428 . S
C988 N987 1.351 . S
C988 C989 1.434 . S
C989 C980 1.429 . S
C989 N986 1.350 . S
C989 C988 1.434 . S
C990 C991 1.369 . S
C990 C992 1.419 . S
C990 H994 0.930 . S
C991 C990 1.369 . S
C991 C1000 1.429 . S
C992 C990 1.419 . S
C992 C993 1.363 . S
C992 H995 0.929 . S
C993 C992 1.363 . S
C993 C999 1.428 . S
H994 C990 0.930 . S
H995 C992 0.929 . S
S996 N997 1.613 . S
S996 N998 1.610 . S
N997 S996 1.613 . S
N997 C1000 1.350 . S
N998 S996 1.610 . S
N998 C999 1.351 . S
C999 C993 1.428 . S
C999 N998 1.351 . S
C999 C1000 1.434 . S
C1000 C991 1.429 . S
C1000 N997 1.350 . S
C1000 C999 1.434 . S
C1001 C1002 1.369 . S
C1001 C1003 1.419 . S
C1001 H1005 0.930 . S
C1002 C1001 1.369 . S
C1002 C1011 1.429 . S
C1003 C1001 1.419 . S
C1003 C1004 1.363 . S
C1003 H1006 0.929 . S
C1004 C1003 1.363 . S
C1004 C1010 1.428 . S
H1005 C1001 0.930 . S
H1006 C1003 0.929 . S
S1007 N1008 1.613 . S
S1007 N1009 1.610 . S
N1008 S1007 1.613 . S
N1008 C1011 1.350 . S
N1009 S1007 1.610 . S
N1009 C1010 1.351 . S
C1010 C1004 1.428 . S
C1010 N1009 1.351 . S
C1010 C1011 1.434 . S
C1011 C1002 1.429 . S
C1011 N1008 1.350 . S
C1011 C1010 1.434 . S
C1012 C1013 1.369 . S
C1012 C1014 1.419 . S
C1012 H1016 0.930 . S
C1013 C1012 1.369 . S
C1013 C1022 1.429 . S
C1014 C1012 1.419 . S
C1014 C1015 1.363 . S
C1014 H1017 0.929 . S
C1015 C1014 1.363 . S
C1015 C1021 1.428 . S
H1016 C1012 0.930 . S
H1017 C1014 0.929 . S
S1018 N1019 1.613 . S
S1018 N1020 1.610 1_545 S
N1019 S1018 1.613 . S
N1019 C1022 1.350 1_545 S
N1020 S1018 1.610 1_565 S
N1020 C1021 1.351 . S
C1021 C1015 1.428 . S
C1021 N1020 1.351 . S
C1021 C1022 1.434 . S
C1022 C1013 1.429 . S
C1022 N1019 1.350 1_565 S
C1022 C1021 1.434 . S
C1023 C1024 1.369 . S
C1023 C1025 1.419 . S
C1023 H1027 0.930 . S
C1024 C1023 1.369 . S
C1024 C1033 1.429 . S
C1025 C1023 1.419 . S
C1025 C1026 1.363 . S
C1025 H1028 0.929 . S
C1026 C1025 1.363 . S
C1026 C1032 1.428 . S
H1027 C1023 0.930 . S
H1028 C1025 0.929 . S
S1029 N1030 1.613 . S
S1029 N1031 1.610 . S
N1030 S1029 1.613 . S
N1030 C1033 1.350 . S
N1031 S1029 1.610 . S
N1031 C1032 1.351 . S
C1032 C1026 1.428 . S
C1032 N1031 1.351 . S
C1032 C1033 1.434 . S
C1033 C1024 1.429 . S
C1033 N1030 1.350 . S
C1033 C1032 1.434 . S
C1034 C1035 1.369 . S
C1034 C1036 1.419 . S
C1034 H1038 0.930 . S
C1035 C1034 1.369 . S
C1035 C1044 1.429 . S
C1036 C1034 1.419 . S
C1036 C1037 1.363 . S
C1036 H1039 0.929 . S
C1037 C1036 1.363 . S
C1037 C1043 1.428 . S
H1038 C1034 0.930 . S
H1039 C1036 0.929 . S
S1040 N1041 1.613 . S
S1040 N1042 1.610 . S
N1041 S1040 1.613 . S
N1041 C1044 1.350 . S
N1042 S1040 1.610 . S
N1042 C1043 1.351 . S
C1043 C1037 1.428 . S
C1043 N1042 1.351 . S
C1043 C1044 1.434 . S
C1044 C1035 1.429 . S
C1044 N1041 1.350 . S
C1044 C1043 1.434 . S
C1045 C1046 1.369 . S
C1045 C1047 1.419 . S
C1045 H1049 0.930 . S
C1046 C1045 1.369 . S
C1046 C1055 1.429 . S
C1047 C1045 1.419 . S
C1047 C1048 1.363 . S
C1047 H1050 0.929 . S
C1048 C1047 1.363 . S
C1048 C1054 1.428 . S
H1049 C1045 0.930 . S
H1050 C1047 0.929 . S
S1051 N1052 1.613 . S
S1051 N1053 1.610 . S
N1052 S1051 1.613 . S
N1052 C1055 1.350 . S
N1053 S1051 1.610 . S
N1053 C1054 1.351 . S
C1054 C1048 1.428 . S
C1054 N1053 1.351 . S
C1054 C1055 1.434 . S
C1055 C1046 1.429 . S
C1055 N1052 1.350 . S
C1055 C1054 1.434 . S
C1056 C1057 1.369 . S
C1056 C1058 1.419 1_556 S
C1056 H1060 0.930 . S
C1057 C1056 1.369 . S
C1057 C1066 1.429 1_655 S
C1058 C1056 1.419 1_554 S
C1058 C1059 1.363 1_655 S
C1058 H1061 0.929 . S
C1059 C1058 1.363 1_455 S
C1059 C1065 1.428 . S
H1060 C1056 0.930 . S
H1061 C1058 0.929 . S
S1062 N1063 1.613 . S
S1062 N1064 1.610 1_556 S
N1063 S1062 1.613 . S
N1063 C1066 1.350 . S
N1064 S1062 1.610 1_554 S
N1064 C1065 1.351 . S
C1065 C1059 1.428 . S
C1065 N1064 1.351 . S
C1065 C1066 1.434 1_554 S
C1066 C1057 1.429 1_455 S
C1066 N1063 1.350 . S
C1066 C1065 1.434 1_556 S
C1067 C1068 1.369 . S
C1067 C1069 1.419 . S
C1067 H1071 0.930 . S
C1068 C1067 1.369 . S
C1068 C1077 1.429 . S
C1069 C1067 1.419 . S
C1069 C1070 1.363 . S
C1069 H1072 0.929 . S
C1070 C1069 1.363 . S
C1070 C1076 1.428 . S
H1071 C1067 0.930 . S
H1072 C1069 0.929 . S
S1073 N1074 1.613 . S
S1073 N1075 1.610 . S
N1074 S1073 1.613 . S
N1074 C1077 1.350 . S
N1075 S1073 1.610 . S
N1075 C1076 1.351 . S
C1076 C1070 1.428 . S
C1076 N1075 1.351 . S
C1076 C1077 1.434 . S
C1077 C1068 1.429 . S
C1077 N1074 1.350 . S
C1077 C1076 1.434 . S
C1078 C1079 1.369 . S
C1078 C1080 1.419 1_456 S
C1078 H1082 0.930 . S
C1079 C1078 1.369 . S
C1079 C1088 1.429 1_455 S
C1080 C1078 1.419 1_654 S
C1080 C1081 1.362 . S
C1080 H1083 0.929 1_655 S
C1081 C1080 1.362 . S
C1081 C1087 1.428 . S
H1082 C1078 0.930 . S
H1083 C1080 0.929 1_455 S
S1084 N1085 1.613 . S
S1084 N1086 1.610 1_556 S
N1085 S1084 1.613 . S
N1085 C1088 1.350 . S
N1086 S1084 1.610 1_554 S
N1086 C1087 1.351 . S
C1087 C1081 1.428 . S
C1087 N1086 1.351 . S
C1087 C1088 1.434 1_554 S
C1088 C1079 1.429 1_655 S
C1088 N1085 1.350 . S
C1088 C1087 1.434 1_556 S
C1089 C1090 1.369 . S
C1089 C1091 1.419 . S
C1089 H1093 0.930 . S
C1090 C1089 1.369 . S
C1090 C1099 1.429 . S
C1091 C1089 1.419 . S
C1091 C1092 1.363 . S
C1091 H1094 0.929 . S
C1092 C1091 1.363 . S
C1092 C1098 1.428 . S
H1093 C1089 0.930 . S
H1094 C1091 0.929 . S
S1095 N1096 1.613 . S
S1095 N1097 1.610 . S
N1096 S1095 1.613 . S
N1096 C1099 1.350 . S
N1097 S1095 1.610 . S
N1097 C1098 1.351 . S
C1098 C1092 1.428 . S
C1098 N1097 1.351 . S
C1098 C1099 1.434 . S
C1099 C1090 1.429 . S
C1099 N1096 1.350 . S
C1099 C1098 1.434 . S
C1100 C1101 1.369 . S
C1100 C1102 1.419 1_655 S
C1100 H1104 0.930 . S
C1101 C1100 1.369 . S
C1101 C1110 1.429 1_565 S
C1102 C1100 1.419 1_455 S
C1102 C1103 1.363 1_565 S
C1102 H1105 0.929 . S
C1103 C1102 1.363 1_545 S
C1103 C1109 1.428 . S
H1104 C1100 0.930 . S
H1105 C1102 0.929 . S
S1106 N1107 1.613 . S
S1106 N1108 1.610 1_655 S
N1107 S1106 1.613 . S
N1107 C1110 1.350 . S
N1108 S1106 1.610 1_455 S
N1108 C1109 1.351 . S
C1109 C1103 1.428 . S
C1109 N1108 1.351 . S
C1109 C1110 1.434 1_455 S
C1110 C1101 1.429 1_545 S
C1110 N1107 1.350 . S
C1110 C1109 1.434 1_655 S
C1111 C1112 1.369 . S
C1111 C1113 1.419 . S
C1111 H1115 0.930 . S
C1112 C1111 1.369 . S
C1112 C1121 1.429 . S
C1113 C1111 1.419 . S
C1113 C1114 1.363 . S
C1113 H1116 0.929 . S
C1114 C1113 1.363 . S
C1114 C1120 1.428 . S
H1115 C1111 0.930 . S
H1116 C1113 0.929 . S
S1117 N1118 1.613 . S
S1117 N1119 1.610 . S
N1118 S1117 1.613 . S
N1118 C1121 1.350 . S
N1119 S1117 1.610 . S
N1119 C1120 1.351 . S
C1120 C1114 1.428 . S
C1120 N1119 1.351 . S
C1120 C1121 1.434 . S
C1121 C1112 1.429 . S
C1121 N1118 1.350 . S
C1121 C1120 1.434 . S
C1122 C1123 1.369 1_545 S
C1122 C1124 1.419 1_455 S
C1122 H1126 0.930 . S
C1123 C1122 1.369 1_565 S
C1123 C1132 1.429 . S
C1124 C1122 1.419 1_655 S
C1124 C1125 1.363 . S
C1124 H1127 0.929 . S
C1125 C1124 1.363 . S
C1125 C1131 1.428 1_545 S
H1126 C1122 0.930 . S
H1127 C1124 0.929 . S
S1128 N1129 1.613 1_655 S
S1128 N1130 1.610 . S
N1129 S1128 1.613 1_455 S
N1129 C1132 1.350 . S
N1130 S1128 1.610 . S
N1130 C1131 1.351 . S
C1131 C1125 1.428 1_565 S
C1131 N1130 1.351 . S
C1131 C1132 1.434 1_655 S
C1132 C1123 1.429 . S
C1132 N1129 1.350 . S
C1132 C1131 1.434 1_455 S
C1133 C1134 1.369 . S
C1133 C1135 1.419 . S
C1133 H1137 0.930 . S
C1134 C1133 1.369 . S
C1134 C1143 1.429 . S
C1135 C1133 1.419 . S
C1135 C1136 1.363 . S
C1135 H1138 0.929 . S
C1136 C1135 1.363 . S
C1136 C1142 1.428 . S
H1137 C1133 0.930 . S
H1138 C1135 0.929 . S
S1139 N1140 1.613 . S
S1139 N1141 1.610 . S
N1140 S1139 1.613 . S
N1140 C1143 1.350 . S
N1141 S1139 1.610 . S
N1141 C1142 1.351 . S
C1142 C1136 1.428 . S
C1142 N1141 1.351 . S
C1142 C1143 1.434 . S
C1143 C1134 1.429 . S
C1143 N1140 1.350 . S
C1143 C1142 1.434 . S
C1144 C1145 1.369 . S
C1144 C1146 1.419 1_545 S
C1144 H1148 0.930 . S
C1145 C1144 1.369 . S
C1145 C1154 1.429 1_554 S
C1146 C1144 1.419 1_565 S
C1146 C1147 1.363 1_554 S
C1146 H1149 0.929 . S
C1147 C1146 1.363 1_556 S
C1147 C1153 1.428 . S
H1148 C1144 0.930 . S
H1149 C1146 0.929 . S
S1150 N1151 1.613 . S
S1150 N1152 1.610 1_545 S
N1151 S1150 1.613 . S
N1151 C1154 1.350 . S
N1152 S1150 1.610 1_565 S
N1152 C1153 1.351 . S
C1153 C1147 1.428 . S
C1153 N1152 1.351 . S
C1153 C1154 1.434 1_565 S
C1154 C1145 1.429 1_556 S
C1154 N1151 1.350 . S
C1154 C1153 1.434 1_545 S
C1155 C1156 1.369 . S
C1155 C1157 1.419 . S
C1155 H1159 0.930 . S
C1156 C1155 1.369 . S
C1156 C1165 1.429 . S
C1157 C1155 1.419 . S
C1157 C1158 1.363 . S
C1157 H1160 0.929 . S
C1158 C1157 1.363 . S
C1158 C1164 1.428 . S
H1159 C1155 0.930 . S
H1160 C1157 0.929 . S
S1161 N1162 1.613 . S
S1161 N1163 1.610 . S
N1162 S1161 1.613 . S
N1162 C1165 1.350 . S
N1163 S1161 1.610 . S
N1163 C1164 1.351 . S
C1164 C1158 1.428 . S
C1164 N1163 1.351 . S
C1164 C1165 1.434 . S
C1165 C1156 1.429 . S
C1165 N1162 1.350 . S
C1165 C1164 1.434 . S
C1166 C1167 1.369 1_554 S
C1166 C1168 1.419 1_545 S
C1166 H1170 0.930 . S
C1167 C1166 1.369 1_556 S
C1167 C1176 1.429 . S
C1168 C1166 1.419 1_565 S
C1168 C1169 1.363 . S
C1168 H1171 0.929 . S
C1169 C1168 1.363 . S
C1169 C1175 1.428 1_554 S
H1170 C1166 0.930 . S
H1171 C1168 0.929 . S
S1172 N1173 1.613 1_565 S
S1172 N1174 1.610 . S
N1173 S1172 1.613 1_545 S
N1173 C1176 1.350 . S
N1174 S1172 1.610 . S
N1174 C1175 1.351 . S
C1175 C1169 1.428 1_556 S
C1175 N1174 1.351 . S
C1175 C1176 1.434 1_565 S
C1176 C1167 1.429 . S
C1176 N1173 1.350 . S
C1176 C1175 1.434 1_545 S
C1177 C1178 1.369 . S
C1177 C1179 1.419 . S
C1177 H1181 0.930 . S
C1178 C1177 1.369 . S
C1178 C1187 1.429 . S
C1179 C1177 1.419 . S
C1179 C1180 1.363 . S
C1179 H1182 0.929 . S
C1180 C1179 1.363 . S
C1180 C1186 1.428 . S
H1181 C1177 0.930 . S
H1182 C1179 0.929 . S
S1183 N1184 1.613 . S
S1183 N1185 1.610 . S
N1184 S1183 1.613 . S
N1184 C1187 1.350 . S
N1185 S1183 1.610 . S
N1185 C1186 1.351 . S
C1186 C1180 1.428 . S
C1186 N1185 1.351 . S
C1186 C1187 1.434 . S
C1187 C1178 1.429 . S
C1187 N1184 1.350 . S
C1187 C1186 1.434 . S
C1188 C1189 1.369 . S
C1188 C1190 1.419 . S
C1188 H1192 0.930 . S
C1189 C1188 1.369 . S
C1189 C1198 1.429 . S
C1190 C1188 1.419 . S
C1190 C1191 1.363 . S
C1190 H1193 0.929 . S
C1191 C1190 1.363 . S
C1191 C1197 1.428 . S
H1192 C1188 0.930 . S
H1193 C1190 0.929 . S
S1194 N1195 1.613 . S
S1194 N1196 1.610 . S
N1195 S1194 1.613 . S
N1195 C1198 1.350 . S
N1196 S1194 1.610 . S
N1196 C1197 1.351 . S
C1197 C1191 1.428 . S
C1197 N1196 1.351 . S
C1197 C1198 1.434 . S
C1198 C1189 1.429 . S
C1198 N1195 1.350 . S
C1198 C1197 1.434 . S
C1199 C1200 1.369 . S
C1199 C1201 1.419 . S
C1199 H1203 0.930 . S
C1200 C1199 1.369 . S
C1200 C1209 1.429 . S
C1201 C1199 1.419 . S
C1201 C1202 1.363 . S
C1201 H1204 0.929 . S
C1202 C1201 1.363 . S
C1202 C1208 1.428 . S
H1203 C1199 0.930 . S
H1204 C1201 0.929 . S
S1205 N1206 1.613 . S
S1205 N1207 1.610 . S
N1206 S1205 1.613 . S
N1206 C1209 1.350 . S
N1207 S1205 1.610 . S
N1207 C1208 1.351 . S
C1208 C1202 1.428 . S
C1208 N1207 1.351 . S
C1208 C1209 1.434 . S
C1209 C1200 1.429 . S
C1209 N1206 1.350 . S
C1209 C1208 1.434 . S
C1210 C1211 1.369 . S
C1210 C1212 1.419 . S
C1210 H1214 0.930 . S
C1211 C1210 1.369 . S
C1211 C1220 1.429 . S
C1212 C1210 1.419 . S
C1212 C1213 1.363 . S
C1212 H1215 0.929 . S
C1213 C1212 1.363 . S
C1213 C1219 1.428 . S
H1214 C1210 0.930 . S
H1215 C1212 0.929 . S
S1216 N1217 1.613 . S
S1216 N1218 1.610 . S
N1217 S1216 1.613 . S
N1217 C1220 1.350 . S
N1218 S1216 1.610 . S
N1218 C1219 1.351 . S
C1219 C1213 1.428 . S
C1219 N1218 1.351 . S
C1219 C1220 1.434 . S
C1220 C1211 1.429 . S
C1220 N1217 1.350 . S
C1220 C1219 1.434 . S
C1221 C1222 1.369 . S
C1221 C1223 1.419 . S
C1221 H1225 0.930 . S
C1222 C1221 1.369 . S
C1222 C1231 1.429 . S
C1223 C1221 1.419 . S
C1223 C1224 1.363 . S
C1223 H1226 0.929 . S
C1224 C1223 1.363 . S
C1224 C1230 1.428 . S
H1225 C1221 0.930 . S
H1226 C1223 0.929 . S
S1227 N1228 1.613 . S
S1227 N1229 1.610 . S
N1228 S1227 1.613 . S
N1228 C1231 1.350 . S
N1229 S1227 1.610 . S
N1229 C1230 1.351 . S
C1230 C1224 1.428 . S
C1230 N1229 1.351 . S
C1230 C1231 1.434 . S
C1231 C1222 1.429 . S
C1231 N1228 1.350 . S
C1231 C1230 1.434 . S
C1232 C1233 1.369 . S
C1232 C1234 1.419 . S
C1232 H1236 0.930 . S
C1233 C1232 1.369 . S
C1233 C1242 1.429 . S
C1234 C1232 1.419 . S
C1234 C1235 1.363 . S
C1234 H1237 0.929 . S
C1235 C1234 1.363 . S
C1235 C1241 1.428 . S
H1236 C1232 0.930 . S
H1237 C1234 0.929 . S
S1238 N1239 1.613 . S
S1238 N1240 1.610 . S
N1239 S1238 1.613 . S
N1239 C1242 1.350 . S
N1240 S1238 1.610 . S
N1240 C1241 1.351 . S
C1241 C1235 1.428 . S
C1241 N1240 1.351 . S
C1241 C1242 1.434 . S
C1242 C1233 1.429 . S
C1242 N1239 1.350 . S
C1242 C1241 1.434 . S
C1243 C1244 1.369 . S
C1243 C1245 1.419 . S
C1243 H1247 0.930 . S
C1244 C1243 1.369 . S
C1244 C1253 1.429 . S
C1245 C1243 1.419 . S
C1245 C1246 1.363 . S
C1245 H1248 0.929 . S
C1246 C1245 1.363 . S
C1246 C1252 1.428 . S
H1247 C1243 0.930 . S
H1248 C1245 0.929 . S
S1249 N1250 1.613 . S
S1249 N1251 1.610 . S
N1250 S1249 1.613 . S
N1250 C1253 1.350 . S
N1251 S1249 1.610 . S
N1251 C1252 1.351 . S
C1252 C1246 1.428 . S
C1252 N1251 1.351 . S
C1252 C1253 1.434 . S
C1253 C1244 1.429 . S
C1253 N1250 1.350 . S
C1253 C1252 1.434 . S
C1254 C1255 1.369 . S
C1254 C1256 1.419 . S
C1254 H1258 0.930 . S
C1255 C1254 1.369 . S
C1255 C1264 1.429 . S
C1256 C1254 1.419 . S
C1256 C1257 1.363 . S
C1256 H1259 0.929 . S
C1257 C1256 1.363 . S
C1257 C1263 1.428 . S
H1258 C1254 0.930 . S
H1259 C1256 0.929 . S
S1260 N1261 1.613 . S
S1260 N1262 1.610 . S
N1261 S1260 1.613 . S
N1261 C1264 1.350 . S
N1262 S1260 1.610 . S
N1262 C1263 1.351 . S
C1263 C1257 1.428 . S
C1263 N1262 1.351 . S
C1263 C1264 1.434 . S
C1264 C1255 1.429 . S
C1264 N1261 1.350 . S
C1264 C1263 1.434 . S
C1265 C1266 1.369 . S
C1265 C1267 1.419 . S
C1265 H1269 0.930 . S
C1266 C1265 1.369 . S
C1266 C1275 1.429 . S
C1267 C1265 1.419 . S
C1267 C1268 1.363 . S
C1267 H1270 0.929 . S
C1268 C1267 1.363 . S
C1268 C1274 1.428 . S
H1269 C1265 0.930 . S
H1270 C1267 0.929 . S
S1271 N1272 1.613 . S
S1271 N1273 1.610 . S
N1272 S1271 1.613 . S
N1272 C1275 1.350 . S
N1273 S1271 1.610 . S
N1273 C1274 1.351 . S
C1274 C1268 1.428 . S
C1274 N1273 1.351 . S
C1274 C1275 1.434 . S
C1275 C1266 1.429 . S
C1275 N1272 1.350 . S
C1275 C1274 1.434 . S
C1276 C1277 1.369 . S
C1276 C1278 1.419 . S
C1276 H1280 0.930 . S
C1277 C1276 1.369 . S
C1277 C1286 1.429 . S
C1278 C1276 1.419 . S
C1278 C1279 1.363 . S
C1278 H1281 0.929 . S
C1279 C1278 1.363 . S
C1279 C1285 1.428 . S
H1280 C1276 0.930 . S
H1281 C1278 0.929 . S
S1282 N1283 1.613 . S
S1282 N1284 1.610 . S
N1283 S1282 1.613 . S
N1283 C1286 1.350 . S
N1284 S1282 1.610 . S
N1284 C1285 1.351 . S
C1285 C1279 1.428 . S
C1285 N1284 1.351 . S
C1285 C1286 1.434 . S
C1286 C1277 1.429 . S
C1286 N1283 1.350 . S
C1286 C1285 1.434 . S
C1287 C1288 1.369 . S
C1287 C1289 1.419 . S
C1287 H1291 0.930 . S
C1288 C1287 1.369 . S
C1288 C1297 1.429 . S
C1289 C1287 1.419 . S
C1289 C1290 1.363 . S
C1289 H1292 0.929 . S
C1290 C1289 1.363 . S
C1290 C1296 1.428 . S
H1291 C1287 0.930 . S
H1292 C1289 0.929 . S
S1293 N1294 1.613 . S
S1293 N1295 1.610 . S
N1294 S1293 1.613 . S
N1294 C1297 1.350 . S
N1295 S1293 1.610 . S
N1295 C1296 1.351 . S
C1296 C1290 1.428 . S
C1296 N1295 1.351 . S
C1296 C1297 1.434 . S
C1297 C1288 1.429 . S
C1297 N1294 1.350 . S
C1297 C1296 1.434 . S
C1298 C1299 1.369 . S
C1298 C1300 1.419 . S
C1298 H1302 0.930 . S
C1299 C1298 1.369 . S
C1299 C1308 1.429 . S
C1300 C1298 1.419 . S
C1300 C1301 1.363 . S
C1300 H1303 0.929 . S
C1301 C1300 1.363 . S
C1301 C1307 1.428 . S
H1302 C1298 0.930 . S
H1303 C1300 0.929 . S
S1304 N1305 1.613 . S
S1304 N1306 1.610 . S
N1305 S1304 1.613 . S
N1305 C1308 1.350 . S
N1306 S1304 1.610 . S
N1306 C1307 1.351 . S
C1307 C1301 1.428 . S
C1307 N1306 1.351 . S
C1307 C1308 1.434 . S
C1308 C1299 1.429 . S
C1308 N1305 1.350 . S
C1308 C1307 1.434 . S
C1309 C1310 1.369 . S
C1309 C1311 1.419 . S
C1309 H1313 0.930 . S
C1310 C1309 1.369 . S
C1310 C1319 1.429 . S
C1311 C1309 1.419 . S
C1311 C1312 1.363 . S
C1311 H1314 0.929 . S
C1312 C1311 1.363 . S
C1312 C1318 1.428 . S
H1313 C1309 0.930 . S
H1314 C1311 0.929 . S
S1315 N1316 1.613 . S
S1315 N1317 1.610 . S
N1316 S1315 1.613 . S
N1316 C1319 1.350 . S
N1317 S1315 1.610 . S
N1317 C1318 1.351 . S
C1318 C1312 1.428 . S
C1318 N1317 1.351 . S
C1318 C1319 1.434 . S
C1319 C1310 1.429 . S
C1319 N1316 1.350 . S
C1319 C1318 1.434 . S
C1320 C1321 1.369 . S
C1320 C1322 1.419 . S
C1320 H1324 0.930 . S
C1321 C1320 1.369 . S
C1321 C1330 1.429 . S
C1322 C1320 1.419 . S
C1322 C1323 1.363 . S
C1322 H1325 0.929 . S
C1323 C1322 1.363 . S
C1323 C1329 1.428 . S
H1324 C1320 0.930 . S
H1325 C1322 0.929 . S
S1326 N1327 1.613 . S
S1326 N1328 1.610 . S
N1327 S1326 1.613 . S
N1327 C1330 1.350 . S
N1328 S1326 1.610 . S
N1328 C1329 1.351 . S
C1329 C1323 1.428 . S
C1329 N1328 1.351 . S
C1329 C1330 1.434 . S
C1330 C1321 1.429 . S
C1330 N1327 1.350 . S
C1330 C1329 1.434 . S
C1331 C1332 1.369 . S
C1331 C1333 1.419 . S
C1331 H1335 0.930 . S
C1332 C1331 1.369 . S
C1332 C1341 1.429 . S
C1333 C1331 1.419 . S
C1333 C1334 1.363 . S
C1333 H1336 0.929 . S
C1334 C1333 1.363 . S
C1334 C1340 1.428 . S
H1335 C1331 0.930 . S
H1336 C1333 0.929 . S
S1337 N1338 1.613 . S
S1337 N1339 1.610 . S
N1338 S1337 1.613 . S
N1338 C1341 1.350 . S
N1339 S1337 1.610 . S
N1339 C1340 1.351 . S
C1340 C1334 1.428 . S
C1340 N1339 1.351 . S
C1340 C1341 1.434 . S
C1341 C1332 1.429 . S
C1341 N1338 1.350 . S
C1341 C1340 1.434 . S
C1342 C1343 1.369 . S
C1342 C1344 1.419 . S
C1342 H1346 0.930 . S
C1343 C1342 1.369 . S
C1343 C1352 1.429 . S
C1344 C1342 1.419 . S
C1344 C1345 1.363 . S
C1344 H1347 0.929 . S
C1345 C1344 1.363 . S
C1345 C1351 1.428 . S
H1346 C1342 0.930 . S
H1347 C1344 0.929 . S
S1348 N1349 1.613 . S
S1348 N1350 1.610 . S
N1349 S1348 1.613 . S
N1349 C1352 1.350 . S
N1350 S1348 1.610 . S
N1350 C1351 1.351 . S
C1351 C1345 1.428 . S
C1351 N1350 1.351 . S
C1351 C1352 1.434 . S
C1352 C1343 1.429 . S
C1352 N1349 1.350 . S
C1352 C1351 1.434 . S
C1353 C1354 1.369 . S
C1353 C1355 1.419 . S
C1353 H1357 0.930 . S
C1354 C1353 1.369 . S
C1354 C1363 1.429 . S
C1355 C1353 1.419 . S
C1355 C1356 1.363 . S
C1355 H1358 0.929 . S
C1356 C1355 1.363 . S
C1356 C1362 1.428 . S
H1357 C1353 0.930 . S
H1358 C1355 0.929 . S
S1359 N1360 1.613 . S
S1359 N1361 1.610 . S
N1360 S1359 1.613 . S
N1360 C1363 1.350 . S
N1361 S1359 1.610 . S
N1361 C1362 1.351 . S
C1362 C1356 1.428 . S
C1362 N1361 1.351 . S
C1362 C1363 1.434 . S
C1363 C1354 1.429 . S
C1363 N1360 1.350 . S
C1363 C1362 1.434 . S
C1364 C1365 1.369 . S
C1364 C1366 1.419 . S
C1364 H1368 0.930 . S
C1365 C1364 1.369 . S
C1365 C1374 1.429 . S
C1366 C1364 1.419 . S
C1366 C1367 1.363 . S
C1366 H1369 0.929 . S
C1367 C1366 1.363 . S
C1367 C1373 1.428 . S
H1368 C1364 0.930 . S
H1369 C1366 0.929 . S
S1370 N1371 1.613 . S
S1370 N1372 1.610 . S
N1371 S1370 1.613 . S
N1371 C1374 1.350 . S
N1372 S1370 1.610 . S
N1372 C1373 1.351 . S
C1373 C1367 1.428 . S
C1373 N1372 1.351 . S
C1373 C1374 1.434 . S
C1374 C1365 1.429 . S
C1374 N1371 1.350 . S
C1374 C1373 1.434 . S
C1375 C1376 1.369 . S
C1375 C1377 1.419 . S
C1375 H1379 0.930 . S
C1376 C1375 1.369 . S
C1376 C1385 1.429 . S
C1377 C1375 1.419 . S
C1377 C1378 1.363 . S
C1377 H1380 0.929 . S
C1378 C1377 1.363 . S
C1378 C1384 1.428 . S
H1379 C1375 0.930 . S
H1380 C1377 0.929 . S
S1381 N1382 1.613 . S
S1381 N1383 1.610 . S
N1382 S1381 1.613 . S
N1382 C1385 1.350 . S
N1383 S1381 1.610 . S
N1383 C1384 1.351 . S
C1384 C1378 1.428 . S
C1384 N1383 1.351 . S
C1384 C1385 1.434 . S
C1385 C1376 1.429 . S
C1385 N1382 1.350 . S
C1385 C1384 1.434 . S
C1386 C1387 1.369 . S
C1386 C1388 1.419 . S
C1386 H1390 0.930 . S
C1387 C1386 1.369 . S
C1387 C1396 1.429 . S
C1388 C1386 1.419 . S
C1388 C1389 1.363 . S
C1388 H1391 0.929 . S
C1389 C1388 1.363 . S
C1389 C1395 1.428 . S
H1390 C1386 0.930 . S
H1391 C1388 0.929 . S
S1392 N1393 1.613 . S
S1392 N1394 1.610 . S
N1393 S1392 1.613 . S
N1393 C1396 1.350 . S
N1394 S1392 1.610 . S
N1394 C1395 1.351 . S
C1395 C1389 1.428 . S
C1395 N1394 1.351 . S
C1395 C1396 1.434 . S
C1396 C1387 1.429 . S
C1396 N1393 1.350 . S
C1396 C1395 1.434 . S
C1397 C1398 1.369 . S
C1397 C1399 1.419 . S
C1397 H1401 0.930 . S
C1398 C1397 1.369 . S
C1398 C1407 1.429 . S
C1399 C1397 1.419 . S
C1399 C1400 1.363 . S
C1399 H1402 0.929 . S
C1400 C1399 1.363 . S
C1400 C1406 1.428 . S
H1401 C1397 0.930 . S
H1402 C1399 0.929 . S
S1403 N1404 1.613 . S
S1403 N1405 1.610 . S
N1404 S1403 1.613 . S
N1404 C1407 1.350 . S
N1405 S1403 1.610 . S
N1405 C1406 1.351 . S
C1406 C1400 1.428 . S
C1406 N1405 1.351 . S
C1406 C1407 1.434 . S
C1407 C1398 1.429 . S
C1407 N1404 1.350 . S
C1407 C1406 1.434 . S
C1408 C1409 1.369 . S
C1408 C1410 1.419 . S
C1408 H1412 0.930 . S
C1409 C1408 1.369 . S
C1409 C1418 1.429 . S
C1410 C1408 1.419 . S
C1410 C1411 1.363 . S
C1410 H1413 0.929 . S
C1411 C1410 1.363 . S
C1411 C1417 1.428 . S
H1412 C1408 0.930 . S
H1413 C1410 0.929 . S
S1414 N1415 1.613 . S
S1414 N1416 1.610 . S
N1415 S1414 1.613 . S
N1415 C1418 1.350 . S
N1416 S1414 1.610 . S
N1416 C1417 1.351 . S
C1417 C1411 1.428 . S
C1417 N1416 1.351 . S
C1417 C1418 1.434 . S
C1418 C1409 1.429 . S
C1418 N1415 1.350 . S
C1418 C1417 1.434 . S
C1419 C1420 1.369 . S
C1419 C1421 1.419 . S
C1419 H1423 0.930 . S
C1420 C1419 1.369 . S
C1420 C1429 1.429 . S
C1421 C1419 1.419 . S
C1421 C1422 1.363 . S
C1421 H1424 0.929 . S
C1422 C1421 1.363 . S
C1422 C1428 1.428 . S
H1423 C1419 0.930 . S
H1424 C1421 0.929 . S
S1425 N1426 1.613 . S
S1425 N1427 1.610 . S
N1426 S1425 1.613 . S
N1426 C1429 1.350 . S
N1427 S1425 1.610 . S
N1427 C1428 1.351 . S
C1428 C1422 1.428 . S
C1428 N1427 1.351 . S
C1428 C1429 1.434 . S
C1429 C1420 1.429 . S
C1429 N1426 1.350 . S
C1429 C1428 1.434 . S
C1430 C1431 1.369 . S
C1430 C1432 1.419 . S
C1430 H1434 0.930 . S
C1431 C1430 1.369 . S
C1431 C1440 1.429 . S
C1432 C1430 1.419 . S
C1432 C1433 1.363 . S
C1432 H1435 0.929 . S
C1433 C1432 1.363 . S
C1433 C1439 1.428 . S
H1434 C1430 0.930 . S
H1435 C1432 0.929 . S
S1436 N1437 1.613 . S
S1436 N1438 1.610 . S
N1437 S1436 1.613 . S
N1437 C1440 1.350 . S
N1438 S1436 1.610 . S
N1438 C1439 1.351 . S
C1439 C1433 1.428 . S
C1439 N1438 1.351 . S
C1439 C1440 1.434 . S
C1440 C1431 1.429 . S
C1440 N1437 1.350 . S
C1440 C1439 1.434 . S
C1441 C1442 1.369 . S
C1441 C1443 1.419 . S
C1441 H1445 0.930 . S
C1442 C1441 1.369 . S
C1442 C1451 1.429 . S
C1443 C1441 1.419 . S
C1443 C1444 1.363 . S
C1443 H1446 0.929 . S
C1444 C1443 1.363 . S
C1444 C1450 1.428 . S
H1445 C1441 0.930 . S
H1446 C1443 0.929 . S
S1447 N1448 1.613 . S
S1447 N1449 1.610 . S
N1448 S1447 1.613 . S
N1448 C1451 1.350 . S
N1449 S1447 1.610 . S
N1449 C1450 1.351 . S
C1450 C1444 1.428 . S
C1450 N1449 1.351 . S
C1450 C1451 1.434 . S
C1451 C1442 1.429 . S
C1451 N1448 1.350 . S
C1451 C1450 1.434 . S
C793 N101 1.332 . S
C795 C7 1.372 . S
C804 N2 1.336 . S
C806 C40 1.369 . S
C815 N35 1.331 . S
C817 C73 1.372 . S
C826 C106 1.368 . S
C828 N68 1.339 . S
C837 N167 1.332 . S
C839 C139 1.372 . S
C848 N200 1.332 . S
C850 C172 1.371 . S
C859 C205 1.368 . S
C861 N233 1.336 . S
C870 N134 1.342 . S
C872 C238 1.366 . S
C881 C271 1.369 . S
C883 N596 1.335 . S
C892 C304 1.368 . S
C894 N629 1.337 . S
C903 N662 1.338 . S
C905 C337 1.370 . S
C914 N563 1.342 . S
C916 C370 1.366 . S
C925 N728 1.340 . S
C927 C403 1.367 . S
C936 C436 1.365 . S
C938 N530 1.341 . S
C947 C469 1.366 . S
C949 N761 1.339 . S
C958 N695 1.334 . S
C960 C502 1.371 . S
C969 N299 1.335 . S
C971 C535 1.371 . S
C980 C568 1.370 . S
C982 N497 1.335 . S
C991 N398 1.332 . S
C993 C601 1.371 . S
C1002 N431 1.332 . S
C1004 C634 1.372 . S
C1013 N464 1.333 . S
C1015 C667 1.372 . S
C1024 N365 1.336 . S
C1026 C700 1.371 . S
C1035 N266 1.334 . S
C1037 C733 1.370 . S
C1046 N332 1.342 . S
C1048 C766 1.366 . S
C1057 C219 1.725 . S
C1059 C21 1.725 . S
C1068 C54 1.726 . S
C1070 C252 1.725 . S
C1079 C153 1.726 . S
C1081 C87 1.725 . S
C1090 C186 1.726 . S
C1092 C120 1.725 . S
C1101 C351 1.725 . S
C1103 C285 1.725 . S
C1112 C318 1.726 . S
C1114 C384 1.725 . S
C1123 C417 1.725 . S
C1125 C483 1.726 . S
C1134 C516 1.724 . S
C1136 C450 1.726 . S
C1145 C549 1.726 . S
C1147 C582 1.725 . S
C1156 C615 1.725 . S
C1158 C780 1.725 . S
C1167 C648 1.724 . S
C1169 C714 1.726 . S
C1178 C747 1.725 . S
C1180 C681 1.726 . S
C1189 C18 1.309 . S
C1191 N277 1.341 . S
C1200 C51 1.309 . S
C1202 N310 1.341 . S
C1211 N343 1.343 . S
C1213 C84 1.303 . S
C1222 N376 1.343 . S
C1224 C117 1.304 . S
C1233 C150 1.304 . S
C1235 N409 1.342 . S
C1244 N442 1.344 . S
C1246 C183 1.302 . S
C1255 C216 1.308 . S
C1257 N475 1.341 . S
C1266 N508 1.343 . S
C1268 C249 1.303 . S
C1277 C282 1.303 . S
C1279 N541 1.342 . S
C1288 N772 1.340 . S
C1290 C315 1.308 . S
C1299 C348 1.310 . S
C1301 N706 1.341 . S
C1310 C381 1.301 . S
C1312 N739 1.343 . S
C1321 N574 1.340 . S
C1323 C414 1.308 . S
C1332 C447 1.304 . S
C1334 N607 1.342 . S
C1343 C480 1.307 . S
C1345 N640 1.342 . S
C1354 C513 1.311 . S
C1356 N673 1.340 . S
C1365 C546 1.302 . S
C1367 N13 1.343 . S
C1376 C579 1.311 . S
C1378 N145 1.340 . S
C1387 C612 1.309 . S
C1389 N178 1.341 . S
C1398 N211 1.342 . S
C1400 C645 1.305 . S
C1409 C678 1.303 . S
C1411 N244 1.343 . S
C1420 N79 1.343 . S
C1422 C711 1.303 . S
C1431 N112 1.340 . S
C1433 C744 1.309 . S
C1442 C777 1.304 . S
C1444 N46 1.342 . S
