# Generated by pormake.
# Topology zfn, (5)-cn, num edge types: 1
# Building blocks:
#     Node 0, Type 0, BuildingBlock: XOMCOT_clean_sbu_0, # of connection points: 5
#     Node 1, Type 0, BuildingBlock: XOMCOT_clean_sbu_0, # of connection points: 5
#     Node 2, Type 0, BuildingBlock: XOMCOT_clean_sbu_0, # of connection points: 5
#     Node 3, Type 0, BuildingBlock: XOMCOT_clean_sbu_0, # of connection points: 5
#     Node 4, Type 0, BuildingBlock: XOMCOT_clean_sbu_0, # of connection points: 5
#     Node 5, Type 0, BuildingBlock: XOMCOT_clean_sbu_0, # of connection points: 5
#     Node 6, Type 0, BuildingBlock: XOMCOT_clean_sbu_0, # of connection points: 5
#     Node 7, Type 0, BuildingBlock: XOMCOT_clean_sbu_0, # of connection points: 5
#     Node 8, Type 0, BuildingBlock: XOMCOT_clean_sbu_0, # of connection points: 5
#     Node 9, Type 0, BuildingBlock: XOMCOT_clean_sbu_0, # of connection points: 5
#     Node 10, Type 0, BuildingBlock: XOMCOT_clean_sbu_0, # of connection points: 5
#     Node 11, Type 0, BuildingBlock: XOMCOT_clean_sbu_0, # of connection points: 5
#     Node 12, Type 0, BuildingBlock: XOMCOT_clean_sbu_0, # of connection points: 5
#     Node 13, Type 0, BuildingBlock: XOMCOT_clean_sbu_0, # of connection points: 5
#     Node 14, Type 0, BuildingBlock: XOMCOT_clean_sbu_0, # of connection points: 5
#     Node 15, Type 0, BuildingBlock: XOMCOT_clean_sbu_0, # of connection points: 5
#     Edge 16, Type (0, 0), BuildingBlock: TEMPAE_clean_linker_10, # of connection points: 2
#     Edge 17, Type (0, 0), BuildingBlock: TEMPAE_clean_linker_10, # of connection points: 2
#     Edge 18, Type (0, 0), BuildingBlock: TEMPAE_clean_linker_10, # of connection points: 2
#     Edge 19, Type (0, 0), BuildingBlock: TEMPAE_clean_linker_10, # of connection points: 2
#     Edge 20, Type (0, 0), BuildingBlock: TEMPAE_clean_linker_10, # of connection points: 2
#     Edge 21, Type (0, 0), BuildingBlock: TEMPAE_clean_linker_10, # of connection points: 2
#     Edge 22, Type (0, 0), BuildingBlock: TEMPAE_clean_linker_10, # of connection points: 2
#     Edge 23, Type (0, 0), BuildingBlock: TEMPAE_clean_linker_10, # of connection points: 2
#     Edge 24, Type (0, 0), BuildingBlock: TEMPAE_clean_linker_10, # of connection points: 2
#     Edge 25, Type (0, 0), BuildingBlock: TEMPAE_clean_linker_10, # of connection points: 2
#     Edge 26, Type (0, 0), BuildingBlock: TEMPAE_clean_linker_10, # of connection points: 2
#     Edge 27, Type (0, 0), BuildingBlock: TEMPAE_clean_linker_10, # of connection points: 2
#     Edge 28, Type (0, 0), BuildingBlock: TEMPAE_clean_linker_10, # of connection points: 2
#     Edge 29, Type (0, 0), BuildingBlock: TEMPAE_clean_linker_10, # of connection points: 2
#     Edge 30, Type (0, 0), BuildingBlock: TEMPAE_clean_linker_10, # of connection points: 2
#     Edge 31, Type (0, 0), BuildingBlock: TEMPAE_clean_linker_10, # of connection points: 2
#     Edge 32, Type (0, 0), BuildingBlock: TEMPAE_clean_linker_10, # of connection points: 2
#     Edge 33, Type (0, 0), BuildingBlock: TEMPAE_clean_linker_10, # of connection points: 2
#     Edge 34, Type (0, 0), BuildingBlock: TEMPAE_clean_linker_10, # of connection points: 2
#     Edge 35, Type (0, 0), BuildingBlock: TEMPAE_clean_linker_10, # of connection points: 2
#     Edge 36, Type (0, 0), BuildingBlock: TEMPAE_clean_linker_10, # of connection points: 2
#     Edge 37, Type (0, 0), BuildingBlock: TEMPAE_clean_linker_10, # of connection points: 2
#     Edge 38, Type (0, 0), BuildingBlock: TEMPAE_clean_linker_10, # of connection points: 2
#     Edge 39, Type (0, 0), BuildingBlock: TEMPAE_clean_linker_10, # of connection points: 2
#     Edge 40, Type (0, 0), BuildingBlock: TEMPAE_clean_linker_10, # of connection points: 2
#     Edge 41, Type (0, 0), BuildingBlock: TEMPAE_clean_linker_10, # of connection points: 2
#     Edge 42, Type (0, 0), BuildingBlock: TEMPAE_clean_linker_10, # of connection points: 2
#     Edge 43, Type (0, 0), BuildingBlock: TEMPAE_clean_linker_10, # of connection points: 2
#     Edge 44, Type (0, 0), BuildingBlock: TEMPAE_clean_linker_10, # of connection points: 2
#     Edge 45, Type (0, 0), BuildingBlock: TEMPAE_clean_linker_10, # of connection points: 2
#     Edge 46, Type (0, 0), BuildingBlock: TEMPAE_clean_linker_10, # of connection points: 2
#     Edge 47, Type (0, 0), BuildingBlock: TEMPAE_clean_linker_10, # of connection points: 2
#     Edge 48, Type (0, 0), BuildingBlock: TEMPAE_clean_linker_10, # of connection points: 2
#     Edge 49, Type (0, 0), BuildingBlock: TEMPAE_clean_linker_10, # of connection points: 2
#     Edge 50, Type (0, 0), BuildingBlock: TEMPAE_clean_linker_10, # of connection points: 2
#     Edge 51, Type (0, 0), BuildingBlock: TEMPAE_clean_linker_10, # of connection points: 2
#     Edge 52, Type (0, 0), BuildingBlock: TEMPAE_clean_linker_10, # of connection points: 2
#     Edge 53, Type (0, 0), BuildingBlock: TEMPAE_clean_linker_10, # of connection points: 2
#     Edge 54, Type (0, 0), BuildingBlock: TEMPAE_clean_linker_10, # of connection points: 2
#     Edge 55, Type (0, 0), BuildingBlock: TEMPAE_clean_linker_10, # of connection points: 2
# Relax obj value: 0.133
# Max RMSD: 0.137
# Mean RMSD: 0.137
data_MOF--net-zfn--node1-XOMCOT_clean_sbu_0--edge1-TEMPAE_clean_linker_10
_symmetry_space_group_name_H-M    P1
_symmetry_Int_Tables_number       1
_symmetry_cell_setting            triclinic
loop_
_symmetry_equiv_pos_as_xyz
'x, y, z'
_cell_length_a     76.090502
_cell_length_b     76.080903
_cell_length_c     17.781029
_cell_angle_alpha  90.017475
_cell_angle_beta   89.964318
_cell_angle_gamma 90.011248
loop_
_atom_site_label
_atom_site_type_symbol
_atom_site_fract_x
_atom_site_fract_y
_atom_site_fract_z
_atom_type_partial_charge
Co0 Co 0.01458 0.33744 0.16429 0.0
C1 C 0.01767 0.33692 0.32988 0.0
C2 C 0.04201 0.34442 0.27771 0.0
C3 C 0.04419 0.34475 0.3547 0.0
N4 N 0.02535 0.33964 0.26237 0.0
N5 N 0.02889 0.33998 0.38732 0.0
H6 H 0.00407 0.33306 0.3368 0.0
H7 H 0.05191 0.34741 0.23602 0.0
C8 C 0.02835 0.36788 0.07494 0.0
O9 O 0.01254 0.37002 0.04671 0.0
N10 N 0.00395 0.33486 0.06498 0.0
C11 C 0.98678 0.33398 0.04634 0.0
C12 C 0.98531 0.33307 0.96931 0.0
C13 C 0.01267 0.3337 0.99869 0.0
N14 N 0.00158 0.33301 0.93936 0.0
C15 C 0.98071 0.34983 0.21318 0.0
C16 C 0.98973 0.38482 0.22625 0.0
C17 C 0.97208 0.38002 0.23735 0.0
C18 C 0.96788 0.36205 0.23374 0.0
C19 C 0.00221 0.37206 0.20852 0.0
N20 N -0.00264 0.35505 0.19537 0.0
H21 H 0.97715 0.33611 0.21135 0.0
H22 H 0.01578 0.37605 0.20561 0.0
H23 H 0.97588 0.33396 0.08487 0.0
H24 H 0.02684 0.33419 0.99386 0.0
O25 O 0.00261 0.31653 0.19792 0.0
O26 O 0.02888 0.31704 0.14374 0.0
O27 O 0.03121 0.35579 0.12339 0.0
C28 C 0.0163 0.30791 0.17433 0.0
H29 H 0.05617 0.34801 0.3844 0.0
H30 H 0.97317 0.33252 0.93766 0.0
H31 H 0.99402 0.39835 0.22976 0.0
H32 H 0.95479 0.35735 0.2465 0.0
Co33 Co 0.15064 0.0208 0.70669 0.0
C34 C 0.1471 0.02328 0.87464 0.0
C35 C 0.14778 0.04841 0.82051 0.0
C36 C 0.14771 0.05103 0.89708 0.0
N37 N 0.14715 0.03101 0.80607 0.0
N38 N 0.14727 0.03521 0.93095 0.0
H39 H 0.14816 0.00936 0.88425 0.0
H40 H 0.14891 0.05853 0.77808 0.0
C41 C 0.11976 0.04466 0.68639 0.0
O42 O 0.11321 0.03865 0.74978 0.0
N43 N 0.15451 0.01118 0.60749 0.0
C44 C 0.15914 0.99458 0.59016 0.0
C45 C 0.16012 0.99309 0.51296 0.0
C46 C 0.15272 0.01955 0.54107 0.0
N47 N 0.15599 0.00878 0.48236 0.0
C48 C 0.13362 0.9903 0.76927 0.0
C49 C 0.10466 0.99101 0.67574 0.0
C50 C 0.10601 0.97757 0.72921 0.0
C51 C 0.12079 0.97725 0.77614 0.0
C52 C 0.11776 0.00377 0.67091 0.0
N53 N 0.13162 0.00388 0.71984 0.0
H54 H 0.14554 0.98893 0.8013 0.0
H55 H 0.11697 0.01316 0.62564 0.0
H56 H 0.1614 0.98424 0.63076 0.0
H57 H 0.14919 0.03326 0.53562 0.0
O58 O 0.16995 0.00707 0.7454 0.0
O59 O 0.17216 0.03396 0.69784 0.0
O60 O 0.13442 0.03885 0.6619 0.0
C61 C 0.17986 0.0204 0.72787 0.0
H62 H 0.14833 0.06359 0.92564 0.0
H63 H 0.16321 0.98127 0.48173 0.0
H64 H 0.09368 0.99156 0.63707 0.0
H65 H 0.12279 0.96663 0.81574 0.0
Co66 Co 0.46699 0.15016 0.21423 0.0
C67 C 0.46473 0.14727 0.38227 0.0
C68 C 0.43994 0.14318 0.32827 0.0
C69 C 0.4373 0.14316 0.40488 0.0
N70 N 0.45723 0.14535 0.31367 0.0
N71 N 0.45293 0.14567 0.4386 0.0
H72 H 0.47812 0.15125 0.39174 0.0
H73 H 0.42975 0.1425 0.28604 0.0
C74 C 0.44521 0.11809 0.18657 0.0
O75 O 0.45233 0.11079 0.24626 0.0
N76 N 0.47607 0.1554 0.11505 0.0
C77 C 0.49223 0.16137 0.09748 0.0
C78 C 0.49344 0.16289 0.02031 0.0
C79 C 0.46769 0.15335 0.04875 0.0
N80 N 0.47803 0.15773 0.98998 0.0
C81 C 0.49724 0.13261 0.27693 0.0
C82 C 0.4989 0.10622 0.17057 0.0
C83 C 0.51129 0.10631 0.22893 0.0
C84 C 0.51037 0.11985 0.28238 0.0
C85 C 0.48583 0.11905 0.16813 0.0
N86 N 0.48457 0.13161 0.22288 0.0
H87 H 0.49783 0.14366 0.31435 0.0
H88 H 0.47699 0.11912 0.12064 0.0
H89 H 0.5025 0.16414 0.13782 0.0
H90 H 0.4543 0.14875 0.04333 0.0
O91 O 0.48025 0.16948 0.25554 0.0
O92 O 0.4531 0.17128 0.21027 0.0
O93 O 0.4495 0.13366 0.16733 0.0
C94 C 0.46656 0.17911 0.24058 0.0
H95 H 0.42481 0.14186 0.43351 0.0
H96 H 0.50492 0.16698 0.98884 0.0
H97 H 0.49954 0.09663 0.12564 0.0
H98 H 0.51982 0.1208 0.32767 0.0
Co99 Co 0.3401 0.46791 0.72253 0.0
C100 C 0.34126 0.4651 0.89028 0.0
C101 C 0.35209 0.44224 0.83786 0.0
C102 C 0.35258 0.43991 0.91466 0.0
N103 N 0.34567 0.45839 0.82215 0.0
N104 N 0.34573 0.4543 0.94742 0.0
H105 H 0.33432 0.47733 0.89844 0.0
H106 H 0.35549 0.43236 0.79677 0.0
C107 C 0.37301 0.448 0.68638 0.0
O108 O 0.3809 0.45594 0.74269 0.0
N109 N 0.33407 0.47695 0.62397 0.0
C110 C 0.33008 0.49373 0.60693 0.0
C111 C 0.32891 0.49529 0.52986 0.0
C112 C 0.33498 0.46845 0.55734 0.0
N113 N 0.33205 0.4794 0.49883 0.0
C114 C 0.35841 0.49729 0.78934 0.0
C115 C 0.38257 0.50151 0.67472 0.0
C116 C 0.38349 0.51268 0.73732 0.0
C117 C 0.37106 0.51051 0.79484 0.0
C118 C 0.3698 0.48838 0.67184 0.0
N119 N 0.35831 0.4859 0.73007 0.0
H120 H 0.34844 0.49661 0.83193 0.0
H121 H 0.36908 0.48026 0.62208 0.0
H122 H 0.32885 0.50424 0.64756 0.0
H123 H 0.33857 0.45475 0.55146 0.0
O124 O 0.32077 0.48077 0.76561 0.0
O125 O 0.31928 0.45351 0.72091 0.0
O126 O 0.35679 0.45094 0.67292 0.0
C127 C 0.31139 0.46679 0.75251 0.0
H128 H 0.35691 0.42823 0.94405 0.0
H129 H 0.32631 0.50726 0.49894 0.0
H130 H 0.39142 0.5031 0.62747 0.0
H131 H 0.37104 0.51898 0.84382 0.0
Co132 Co 0.02394 0.14919 0.30197 0.0
C133 C 0.02644 0.1477 0.13418 0.0
C134 C 0.05006 0.1386 0.18635 0.0
C135 C 0.05233 0.13808 0.10954 0.0
N136 N 0.03353 0.14394 0.20223 0.0
N137 N 0.03747 0.14385 0.07695 0.0
H138 H 0.01379 0.15383 0.12607 0.0
H139 H 0.06018 0.136 0.2274 0.0
C140 C 0.04504 0.11696 0.33563 0.0
O141 O 0.03736 0.10911 0.27853 0.0
N142 N 0.0148 0.15491 0.40066 0.0
C143 C -0.0021 0.15838 0.41779 0.0
C144 C -0.00371 0.15939 0.49486 0.0
C145 C 0.02331 0.15415 0.46724 0.0
N146 N 0.01225 0.15669 0.52577 0.0
C147 C 0.99458 0.13038 0.23773 0.0
C148 C 0.99166 0.10589 0.35182 0.0
C149 C 0.97983 0.10517 0.29162 0.0
C150 C 0.98135 0.11768 0.2342 0.0
C151 C 0.0047 0.11875 0.35298 0.0
N152 N 0.0065 0.13045 0.29502 0.0
H153 H 0.99469 0.14055 0.19591 0.0
H154 H 0.01321 0.11946 0.40148 0.0
H155 H 0.98737 0.15933 0.37719 0.0
H156 H 0.03709 0.15094 0.47306 0.0
O157 O 0.01042 0.16811 0.25935 0.0
O158 O 0.03765 0.1705 0.30336 0.0
O159 O 0.04151 0.13298 0.35084 0.0
C160 C 0.02406 0.17797 0.27234 0.0
H161 H 0.06426 0.13453 0.07998 0.0
H162 H 0.98424 0.16157 0.52587 0.0
H163 H 0.99084 0.09661 0.39789 0.0
H164 H 0.97204 0.11803 0.18818 0.0
Co165 Co 0.34027 0.0202 0.8228 0.0
C166 C 0.34355 0.02294 0.6552 0.0
C167 C 0.33997 0.04791 0.70891 0.0
C168 C 0.33999 0.05045 0.6323 0.0
N169 N 0.34236 0.03068 0.72351 0.0
N170 N 0.34224 0.03474 0.59867 0.0
H171 H 0.34437 0.00897 0.6461 0.0
H172 H 0.33786 0.05789 0.75128 0.0
C173 C 0.37036 0.0455 0.83717 0.0
O174 O 0.37612 0.04067 0.77061 0.0
N175 N 0.33787 0.01016 0.92193 0.0
C176 C 0.33417 0.99332 0.93903 0.0
C177 C 0.33362 0.99165 0.01621 0.0
C178 C 0.33955 0.01851 0.98846 0.0
N179 N 0.33707 0.0075 0.04706 0.0
C180 C 0.35586 0.98922 0.75916 0.0
C181 C 0.38783 0.99182 0.83141 0.0
C182 C 0.38482 0.97724 0.78465 0.0
C183 C 0.36839 0.97602 0.74902 0.0
C184 C 0.37468 0.00432 0.84227 0.0
N185 N 0.35923 0.00351 0.80326 0.0
H186 H 0.34315 0.98754 0.73335 0.0
H187 H 0.37687 0.01421 0.88449 0.0
H188 H 0.33209 0.98297 0.89825 0.0
H189 H 0.34227 0.03241 0.99398 0.0
O190 O 0.32056 0.00643 0.78785 0.0
O191 O 0.31873 0.03307 0.83795 0.0
O192 O 0.35667 0.03838 0.86525 0.0
C193 C 0.31077 0.01958 0.8086 0.0
H194 H 0.33821 0.06286 0.60355 0.0
H195 H 0.33117 0.97966 0.04722 0.0
H196 H 0.40014 0.99357 0.86091 0.0
H197 H 0.36488 0.9647 0.71535 0.0
Co198 Co 0.46891 0.33957 0.33096 0.0
C199 C 0.4664 0.34073 0.16315 0.0
C200 C 0.44116 0.34188 0.21647 0.0
C201 C 0.43871 0.34218 0.13975 0.0
N202 N 0.45855 0.34149 0.23132 0.0
N203 N 0.45459 0.34138 0.10658 0.0
H204 H 0.48033 0.33938 0.15423 0.0
H205 H 0.43091 0.34171 0.25865 0.0
C206 C 0.44486 0.37071 0.34392 0.0
O207 O 0.45043 0.37633 0.27819 0.0
N208 N 0.47887 0.33735 0.43027 0.0
C209 C 0.49607 0.33669 0.44809 0.0
C210 C 0.49764 0.33675 0.52527 0.0
C211 C 0.47019 0.33747 0.49643 0.0
N212 N 0.48137 0.33721 0.55533 0.0
C213 C 0.50002 0.35445 0.26461 0.0
C214 C 0.49865 0.38628 0.3388 0.0
C215 C 0.51297 0.38297 0.29102 0.0
C216 C 0.51356 0.36663 0.25427 0.0
C217 C 0.48583 0.37346 0.34991 0.0
N218 N 0.48601 0.35811 0.31003 0.0
H219 H 0.50136 0.34169 0.23891 0.0
H220 H 0.47621 0.37579 0.39321 0.0
H221 H 0.50672 0.33659 0.40785 0.0
H222 H 0.45603 0.33832 0.50141 0.0
O223 O 0.48228 0.31944 0.29781 0.0
O224 O 0.45551 0.31843 0.34733 0.0
O225 O 0.45114 0.35663 0.37232 0.0
C226 C 0.46885 0.31006 0.31891 0.0
H227 H 0.42623 0.3424 0.11054 0.0
H228 H 0.50979 0.33652 0.55694 0.0
H229 H 0.49736 0.39854 0.36912 0.0
H230 H 0.52467 0.36286 0.21986 0.0
Co231 Co 0.15258 0.47195 0.87943 0.0
C232 C 0.15085 0.46948 0.71377 0.0
C233 C 0.14748 0.44429 0.76644 0.0
C234 C 0.14741 0.442 0.68959 0.0
N235 N 0.14961 0.46151 0.78132 0.0
N236 N 0.14953 0.45784 0.65663 0.0
H237 H 0.15322 0.48341 0.70678 0.0
H238 H 0.14646 0.43409 0.80855 0.0
C239 C 0.12069 0.45913 0.96054 0.0
O240 O 0.1181 0.4753 0.9841 0.0
N241 N 0.15628 0.48199 0.97952 0.0
C242 C 0.16552 0.4966 0.99727 0.0
C243 C 0.16722 0.49773 0.07414 0.0
C244 C 0.15342 0.474 0.04648 0.0
N245 N 0.1595 0.48354 0.10499 0.0
C246 C 0.13864 0.50689 0.85915 0.0
C247 C 0.10604 0.49653 0.8071 0.0
C248 C 0.10924 0.51449 0.81857 0.0
C249 C 0.12596 0.51961 0.84353 0.0
C250 C 0.11907 0.48425 0.82416 0.0
N251 N 0.13484 0.48943 0.85363 0.0
H252 H 0.15156 0.5112 0.87481 0.0
H253 H 0.11639 0.47049 0.8143 0.0
H254 H 0.17168 0.5054 0.95763 0.0
H255 H 0.14787 0.46101 0.05257 0.0
O256 O 0.17307 0.484 0.84274 0.0
O257 O 0.17308 0.45749 0.89518 0.0
O258 O 0.13407 0.45547 0.91993 0.0
C259 C 0.1819 0.4702 0.8637 0.0
H260 H 0.14599 0.42961 0.66025 0.0
H261 H 0.17393 0.50802 0.10482 0.0
H262 H 0.09359 0.49196 0.78507 0.0
H263 H 0.1292 0.53331 0.85223 0.0
Co264 Co 0.96986 0.65024 0.81554 0.0
C265 C 0.96701 0.64944 0.64776 0.0
C266 C 0.94377 0.63942 0.70018 0.0
C267 C 0.94142 0.639 0.62342 0.0
N268 N 0.96014 0.64527 0.71583 0.0
N269 N 0.95605 0.64533 0.59065 0.0
H270 H 0.97947 0.65594 0.6396 0.0
H271 H 0.93381 0.63633 0.74137 0.0
C272 C 0.9493 0.61752 0.84871 0.0
O273 O 0.95699 0.60976 0.79142 0.0
N274 N 0.97911 0.65567 0.91428 0.0
C275 C -0.00401 0.65921 0.93133 0.0
C276 C -0.00241 0.66023 1.0084 0.0
C277 C 0.97059 0.6549 0.98085 0.0
N278 N 0.98163 0.65749 0.03935 0.0
C279 C -0.00084 0.63186 0.74762 0.0
C280 C 0.00293 0.60735 0.86116 0.0
C281 C 0.0144 0.60677 0.79968 0.0
C282 C 0.01244 0.61923 0.74239 0.0
C283 C 0.98975 0.62004 0.8637 0.0
N284 N 0.98756 0.63179 0.80621 0.0
H285 H -0.00124 0.64205 0.70598 0.0
H286 H 0.98144 0.62058 0.91291 0.0
H287 H 0.00652 0.66027 0.89065 0.0
H288 H 0.9568 0.65171 0.98665 0.0
O289 O 0.98293 0.66969 0.77416 0.0
O290 O 0.95575 0.67118 0.81982 0.0
O291 O 0.95268 0.63357 0.86397 0.0
C292 C 0.96913 0.67917 0.78952 0.0
H293 H 0.92961 0.63504 0.59403 0.0
H294 H 0.00962 0.66252 0.03937 0.0
H295 H 0.00416 0.59809 0.90714 0.0
H296 H 0.02147 0.61959 0.69529 0.0
Co297 Co 0.84047 0.9689 0.3078 0.0
C298 C 0.84195 0.96644 0.14 0.0
C299 C 0.85068 0.94267 0.19218 0.0
C300 C 0.85119 0.9404 0.11537 0.0
N301 N 0.84559 0.95928 0.20804 0.0
N302 N 0.84564 0.95535 0.08279 0.0
H303 H 0.836 0.97917 0.13187 0.0
H304 H 0.85314 0.93251 0.23328 0.0
C305 C 0.87276 0.94776 0.33989 0.0
O306 O 0.88044 0.95539 0.28226 0.0
N307 N 0.8349 0.97808 0.40651 0.0
C308 C 0.83151 0.99499 0.42359 0.0
C309 C 0.83053 -0.00338 0.50065 0.0
C310 C 0.83567 0.96958 0.47311 0.0
N311 N 0.83318 0.98065 0.5316 0.0
C312 C 0.85896 -0.00156 0.24322 0.0
C313 C 0.88434 0.00072 0.35394 0.0
C314 C 0.88492 0.01253 0.29364 0.0
C315 C 0.87187 0.01145 0.2383 0.0
C316 C 0.87117 0.988 0.3568 0.0
N317 N 0.85915 0.98638 0.30004 0.0
H318 H 0.84854 -0.00149 0.20259 0.0
H319 H 0.87055 0.97955 0.40552 0.0
H320 H 0.83056 0.00552 0.38294 0.0
H321 H 0.83883 0.95578 0.47894 0.0
O322 O 0.82141 0.9823 0.26557 0.0
O323 O 0.81925 0.95508 0.31 0.0
O324 O 0.85681 0.95138 0.3562 0.0
C325 C 0.81166 0.96859 0.27885 0.0
H326 H 0.85457 0.92842 0.0858 0.0
H327 H 0.82838 0.00868 0.53164 0.0
H328 H 0.89374 0.00155 0.39953 0.0
H329 H 0.87157 0.02059 0.19166 0.0
Co330 Co 0.52054 0.83896 0.82635 0.0
C331 C 0.52282 0.84131 0.66075 0.0
C332 C 0.54807 0.84445 0.71303 0.0
C333 C 0.55031 0.8444 0.63608 0.0
N334 N 0.53086 0.84249 0.72825 0.0
N335 N 0.53443 0.84242 0.60338 0.0
H336 H 0.50889 0.83892 0.65389 0.0
H337 H 0.55833 0.84527 0.75497 0.0
C338 C 0.53294 0.86977 0.91615 0.0
O339 O 0.51684 0.87144 0.94208 0.0
N340 N 0.51054 0.83484 0.92606 0.0
C341 C 0.49453 0.82842 0.94418 0.0
C342 C 0.49348 0.82645 0.02113 0.0
C343 C 0.5192 0.83586 0.99241 0.0
N344 N 0.50896 0.83132 0.0513 0.0
C345 C 0.48559 0.85091 0.79146 0.0
C346 C 0.49417 0.88581 0.77034 0.0
C347 C 0.47636 0.88093 0.76778 0.0
C348 C 0.47231 0.863 0.77533 0.0
C349 C 0.50705 0.87316 0.78382 0.0
N350 N 0.50256 0.85623 0.80077 0.0
H351 H 0.48219 0.8372 0.79489 0.0
H352 H 0.52065 0.87713 0.78148 0.0
H353 H 0.48438 0.82479 0.90495 0.0
H354 H 0.53286 0.83962 0.99767 0.0
O355 O 0.50909 0.81815 0.7891 0.0
O356 O 0.53555 0.81879 0.84156 0.0
O357 O 0.53662 0.85761 0.86897 0.0
C358 C 0.5231 0.80966 0.80992 0.0
H359 H 0.5627 0.84552 0.60645 0.0
H360 H 0.48216 0.82191 0.0525 0.0
H361 H 0.4983 0.89932 0.76359 0.0
H362 H 0.45901 0.8582 0.76869 0.0
Co363 Co 0.65154 0.51788 0.34281 0.0
C364 C 0.64919 0.52027 0.17721 0.0
C365 C 0.64602 0.5455 0.22981 0.0
C366 C 0.64603 0.54777 0.15286 0.0
N367 N 0.64802 0.52828 0.24484 0.0
N368 N 0.64803 0.5319 0.11995 0.0
H369 H 0.65159 0.50635 0.17016 0.0
H370 H 0.64517 0.55574 0.27188 0.0
C371 C 0.62069 0.52973 0.43326 0.0
O372 O 0.61915 0.51347 0.45736 0.0
N373 N 0.65565 0.5078 0.44237 0.0
C374 C 0.6619 0.49174 0.46055 0.0
C375 C 0.66384 0.4907 0.53754 0.0
C376 C 0.65468 0.5165 0.50872 0.0
N377 N 0.65909 0.50623 0.56767 0.0
C378 C 0.63995 0.48291 0.30594 0.0
C379 C 0.60503 0.49126 0.28385 0.0
C380 C 0.61009 0.47352 0.27976 0.0
C381 C 0.62803 0.4696 0.28798 0.0
C382 C 0.61752 0.50419 0.29909 0.0
N383 N 0.63445 0.4998 0.31632 0.0
H384 H 0.65368 0.47963 0.30971 0.0
H385 H 0.61343 0.51777 0.29771 0.0
H386 H 0.66541 0.48153 0.42136 0.0
H387 H 0.651 0.53018 0.51394 0.0
O388 O 0.67247 0.50663 0.30555 0.0
O389 O 0.67159 0.53302 0.35881 0.0
O390 O 0.63274 0.53374 0.38601 0.0
C391 C 0.68083 0.52066 0.32706 0.0
H392 H 0.64487 0.56016 0.12338 0.0
H393 H 0.66824 0.47935 0.56898 0.0
H394 H 0.59151 0.4953 0.27684 0.0
H395 H 0.63297 0.45638 0.28038 0.0
Co396 Co 0.96906 0.83957 0.69542 0.0
C397 C 0.9663 0.84271 0.86354 0.0
C398 C 0.94128 0.84082 0.80897 0.0
C399 C 0.93858 0.84084 0.88551 0.0
N400 N 0.95865 0.84219 0.79487 0.0
N401 N 0.95433 0.84205 0.91964 0.0
H402 H 0.98024 0.84251 0.87343 0.0
H403 H 0.93126 0.83936 0.76628 0.0
C404 C 0.94515 0.87056 0.68018 0.0
O405 O 0.95084 0.87638 0.74538 0.0
N406 N 0.97888 0.83659 0.59612 0.0
C407 C -0.00442 0.83238 0.57862 0.0
C408 C -0.00291 0.83159 0.5014 0.0
C409 C 0.97046 0.83833 0.52983 0.0
N410 N 0.98129 0.8354 0.47098 0.0
C411 C -0.00025 0.85553 0.76103 0.0
C412 C -0.00119 0.886 0.67671 0.0
C413 C 0.01225 0.88385 0.72967 0.0
C414 C 0.01276 0.86826 0.77152 0.0
C415 C 0.98614 0.87292 0.66792 0.0
N416 N 0.98608 0.85832 0.71274 0.0
H417 H 0.00107 0.84316 0.79001 0.0
H418 H 0.9768 0.87435 0.62273 0.0
H419 H 0.00594 0.83016 0.61915 0.0
H420 H 0.95665 0.84145 0.52466 0.0
O421 O 0.98255 0.81977 0.73121 0.0
O422 O 0.95578 0.81825 0.6821 0.0
O423 O 0.95122 0.85629 0.65276 0.0
C424 C 0.9692 0.81015 0.71124 0.0
H425 H 0.92603 0.83977 0.91386 0.0
H426 H 0.00895 0.82875 0.47004 0.0
H427 H -0.00155 0.8974 0.64028 0.0
H428 H 0.02322 0.8658 0.81144 0.0
Co429 Co 0.65297 0.97489 0.14804 0.0
C430 C 0.65277 0.97221 0.31376 0.0
C431 C 0.64362 0.94835 0.2624 0.0
C432 C 0.64286 0.94642 0.33942 0.0
N433 N 0.64969 0.96457 0.24651 0.0
N434 N 0.64869 0.96139 0.37137 0.0
H435 H 0.65763 0.98549 0.32044 0.0
H436 H 0.64002 0.93857 0.22113 0.0
C437 C 0.62204 0.9618 0.06126 0.0
O438 O 0.61966 0.97797 0.03722 0.0
N439 N 0.65681 0.98492 0.04802 0.0
C440 C 0.66311 0.00098 0.0298 0.0
C441 C 0.66423 0.00238 0.95282 0.0
C442 C 0.65544 0.97641 0.98132 0.0
N443 N 0.65934 0.98694 0.92252 0.0
C444 C 0.63913 0.00965 0.17505 0.0
C445 C 0.60548 -0.00094 0.21186 0.0
C446 C 0.60906 0.01701 0.20455 0.0
C447 C 0.62622 0.02232 0.18792 0.0
C448 C 0.61874 0.98686 0.19701 0.0
N449 N 0.63501 0.99221 0.17346 0.0
H450 H 0.65247 0.01394 0.16797 0.0
H451 H 0.6158 0.97305 0.20349 0.0
H452 H 0.66755 0.01086 0.06871 0.0
H453 H 0.65156 0.9628 0.97558 0.0
O454 O 0.67335 0.98713 0.18504 0.0
O455 O 0.67359 0.96055 0.13324 0.0
O456 O 0.63481 0.95828 0.10552 0.0
C457 C 0.68229 0.97334 0.16463 0.0
H458 H 0.6386 0.93483 0.36968 0.0
H459 H 0.66878 0.0137 0.9215 0.0
H460 H 0.59246 0.9945 0.22697 0.0
H461 H 0.62965 0.03613 0.18568 0.0
Co462 Co 0.52042 0.65025 0.69957 0.0
C463 C 0.5223 0.64739 0.86519 0.0
C464 C 0.54717 0.64196 0.81291 0.0
C465 C 0.54935 0.64161 0.8898 0.0
N466 N 0.53023 0.64557 0.79771 0.0
N467 N 0.53372 0.64506 0.92253 0.0
H468 H 0.50865 0.65109 0.87201 0.0
H469 H 0.55735 0.64028 0.77105 0.0
C470 C 0.53182 0.61871 0.61233 0.0
O471 O 0.51548 0.61705 0.58939 0.0
N472 N 0.51109 0.65569 0.59953 0.0
C473 C 0.49715 0.66596 0.58234 0.0
C474 C 0.49617 0.66799 0.50551 0.0
C475 C 0.51893 0.65261 0.5324 0.0
N476 N 0.50981 0.65942 0.47423 0.0
C477 C 0.48473 0.63778 0.71135 0.0
C478 C 0.49309 0.60408 0.75698 0.0
C479 C 0.47554 0.60819 0.74111 0.0
C480 C 0.47136 0.62541 0.72 0.0
C481 C 0.50608 0.61684 0.7468 0.0
N482 N 0.50192 0.63316 0.71989 0.0
H483 H 0.48115 0.65107 0.69827 0.0
H484 H 0.51959 0.61341 0.75838 0.0
H485 H 0.48864 0.67237 0.62246 0.0
H486 H 0.53152 0.64624 0.52578 0.0
O487 O 0.5092 0.67084 0.73993 0.0
O488 O 0.53594 0.67021 0.68959 0.0
O489 O 0.53613 0.63143 0.65566 0.0
C490 C 0.52349 0.67924 0.72197 0.0
H491 H 0.56156 0.63924 0.91931 0.0
H492 H 0.48627 0.67532 0.47513 0.0
H493 H 0.49683 0.59098 0.77472 0.0
H494 H 0.45784 0.62928 0.71037 0.0
Co495 Co 0.8406 0.52416 0.21934 0.0
C496 C 0.84278 0.5263 0.38694 0.0
C497 C 0.84655 0.55136 0.33448 0.0
C498 C 0.84717 0.55363 0.41127 0.0
N499 N 0.84437 0.53412 0.31895 0.0
N500 N 0.84471 0.53787 0.44393 0.0
H501 H 0.83969 0.51262 0.39537 0.0
H502 H 0.84716 0.5617 0.29284 0.0
C503 C 0.8726 0.54667 0.19789 0.0
O504 O 0.87905 0.54038 0.26096 0.0
N505 N 0.83653 0.51457 0.12029 0.0
C506 C 0.8343 0.49748 0.10286 0.0
C507 C 0.83395 0.49582 0.02573 0.0
C508 C 0.8372 0.52314 0.05388 0.0
N509 N 0.83577 0.51195 0.99521 0.0
C510 C 0.85575 0.49272 0.28155 0.0
C511 C 0.88577 0.49266 0.19435 0.0
C512 C 0.88309 0.47867 0.24464 0.0
C513 C 0.86764 0.4788 0.28792 0.0
C514 C 0.8732 0.50589 0.18761 0.0
N515 N 0.85885 0.50642 0.23381 0.0
H516 H 0.84357 0.49188 0.31218 0.0
H517 H 0.87486 0.51532 0.14296 0.0
H518 H 0.83359 0.48691 0.14337 0.0
H519 H 0.83943 0.53713 0.04846 0.0
O520 O 0.82071 0.51126 0.25752 0.0
O521 O 0.81962 0.53823 0.21016 0.0
O522 O 0.85763 0.54148 0.17415 0.0
C523 C 0.81138 0.52502 0.2405 0.0
H524 H 0.84856 0.56599 0.44088 0.0
H525 H 0.83268 0.48368 0.9944 0.0
H526 H 0.89731 0.49339 0.15899 0.0
H527 H 0.86429 0.46797 0.32462 0.0
C528 C 0.94087 0.39082 0.22534 0.0
C529 C 0.95819 0.39363 0.25026 0.0
C530 C 0.92803 0.40396 0.23163 0.0
C531 C 0.93272 0.42065 0.26028 0.0
C532 C 0.94998 0.42355 0.28703 0.0
C533 C 0.96235 0.4099 0.28346 0.0
C534 C 0.90956 0.40014 0.2051 0.0
C535 C 0.95565 0.44133 0.31603 0.0
C536 C 0.90606 0.45901 0.18631 0.0
C537 C 0.89586 0.46373 0.24915 0.0
C538 C 0.91839 0.44535 0.19002 0.0
C539 C 0.91998 0.43544 0.25692 0.0
C540 C 0.90943 0.43965 0.31988 0.0
C541 C 0.89782 0.45398 0.31587 0.0
C542 C 0.92975 0.44158 0.12215 0.0
C543 C 0.91026 0.42892 0.39122 0.0
H544 H 0.93735 0.37854 0.19852 0.0
H545 H 0.9754 0.4122 0.30554 0.0
H546 H 0.89981 0.40483 0.24703 0.0
H547 H 0.907 0.40725 0.15179 0.0
H548 H 0.90738 0.38589 0.19518 0.0
H549 H 0.96945 0.44132 0.33644 0.0
H550 H 0.95444 0.45122 0.27043 0.0
H551 H 0.94697 0.44563 0.36259 0.0
H552 H 0.90442 0.46585 0.13344 0.0
H553 H 0.89036 0.45752 0.36546 0.0
H554 H 0.92665 0.42837 0.09945 0.0
H555 H 0.94383 0.44155 0.13847 0.0
H556 H 0.92785 0.45139 0.07658 0.0
H557 H 0.90795 0.41484 0.37822 0.0
H558 H 0.90042 0.43325 0.4335 0.0
H559 H 0.92353 0.42993 0.41658 0.0
C560 C 0.08579 0.95606 0.66707 0.0
C561 C 0.09253 0.96349 0.73325 0.0
C562 C 0.07289 0.94291 0.66967 0.0
C563 C 0.06658 0.93703 0.74019 0.0
C564 C 0.07342 0.94435 0.80727 0.0
C565 C 0.08635 0.95748 0.803 0.0
C566 C 0.06599 0.93537 0.59687 0.0
C567 C 0.06696 0.93842 0.88345 0.0
C568 C 0.02169 0.91531 0.73823 0.0
C569 C 0.02615 0.89742 0.73769 0.0
C570 C 0.03471 0.92834 0.74106 0.0
C571 C 0.05263 0.92336 0.74326 0.0
C572 C 0.05721 0.90533 0.74458 0.0
C573 C 0.04391 0.89257 0.74182 0.0
C574 C 0.02931 0.94744 0.73992 0.0
C575 C 0.07618 0.89952 0.74663 0.0
H576 H 0.09075 0.96041 0.61302 0.0
H577 H 0.09142 0.96328 0.85429 0.0
H578 H 0.06811 0.92094 0.59565 0.0
H579 H 0.05162 0.93764 0.59278 0.0
H580 H 0.07242 0.94125 0.54675 0.0
H581 H 0.07385 0.9452 0.93026 0.0
H582 H 0.05266 0.941 0.88856 0.0
H583 H 0.06888 0.92404 0.88972 0.0
H584 H 0.00797 0.91912 0.73602 0.0
H585 H 0.04745 0.87877 0.74051 0.0
H586 H 0.03432 0.95379 0.688 0.0
H587 H 0.0352 0.95449 0.78838 0.0
H588 H 0.01481 0.9491 0.74198 0.0
H589 H 0.08294 0.90382 0.69448 0.0
H590 H 0.0775 0.88503 0.75173 0.0
H591 H 0.08308 0.90579 0.79461 0.0
C592 C 0.58453 0.03073 0.27749 0.0
C593 C 0.59491 0.03016 0.21249 0.0
C594 C 0.57096 0.04312 0.28471 0.0
C595 C 0.56748 0.05484 0.22463 0.0
C596 C 0.57789 0.05417 0.15865 0.0
C597 C 0.59162 0.04196 0.15377 0.0
C598 C 0.5604 0.04372 0.35657 0.0
C599 C 0.57434 0.06618 0.09274 0.0
C600 C 0.52226 0.07552 0.20847 0.0
C601 C 0.52553 0.09287 0.23161 0.0
C602 C 0.53575 0.06297 0.20659 0.0
C603 C 0.55286 0.06772 0.23015 0.0
C604 C 0.55617 0.08501 0.25587 0.0
C605 C 0.54254 0.09742 0.25543 0.0
C606 C 0.53178 0.04472 0.17773 0.0
C607 C 0.5742 0.09049 0.28248 0.0
H608 H 0.5872 0.02162 0.32295 0.0
H609 H 0.59959 0.04135 0.10325 0.0
H610 H 0.56109 0.05708 0.38146 0.0
H611 H 0.54637 0.04097 0.34444 0.0
H612 H 0.56514 0.03407 0.3988 0.0
H613 H 0.5835 0.06379 0.04512 0.0
H614 H 0.56068 0.06427 0.07256 0.0
H615 H 0.5756 0.08011 0.11042 0.0
H616 H 0.50913 0.07173 0.19138 0.0
H617 H 0.54537 0.11081 0.27218 0.0
H618 H 0.53517 0.03478 0.22097 0.0
H619 H 0.53998 0.04191 0.12749 0.0
H620 H 0.51774 0.04307 0.16222 0.0
H621 H 0.57905 0.08121 0.32589 0.0
H622 H 0.57427 0.10398 0.30638 0.0
H623 H 0.58361 0.09005 0.23483 0.0
C624 C 0.39286 0.54337 0.77064 0.0
C625 C 0.39705 0.52674 0.7415 0.0
C626 C 0.40549 0.55679 0.77392 0.0
C627 C 0.42266 0.55358 0.74654 0.0
C628 C 0.42701 0.53683 0.7173 0.0
C629 C 0.41418 0.52359 0.71557 0.0
C630 C 0.40041 0.57447 0.80582 0.0
C631 C 0.44515 0.53295 0.68704 0.0
C632 C 0.45005 0.59256 0.68373 0.0
C633 C 0.46173 0.5945 0.7441 0.0
C634 C 0.43725 0.57931 0.68391 0.0
C635 C 0.43597 0.56788 0.74646 0.0
C636 C 0.44756 0.56994 0.80813 0.0
C637 C 0.46042 0.58317 0.80595 0.0
C638 C 0.4253 0.57737 0.61663 0.0
C639 C 0.44639 0.55815 0.87623 0.0
H640 H 0.3796 0.54604 0.7897 0.0
H641 H 0.41763 0.51071 0.69411 0.0
H642 H 0.40953 0.57818 0.85184 0.0
H643 H 0.40153 0.5847 0.76161 0.0
H644 H 0.38676 0.57459 0.82805 0.0
H645 H 0.44642 0.51922 0.66647 0.0
H646 H 0.44823 0.54203 0.64 0.0
H647 H 0.45513 0.5352 0.73145 0.0
H648 H 0.45121 0.60118 0.63545 0.0
H649 H 0.46936 0.58476 0.85289 0.0
H650 H 0.41136 0.57848 0.63437 0.0
H651 H 0.42701 0.56414 0.59132 0.0
H652 H 0.42793 0.58743 0.57277 0.0
H653 H 0.43299 0.5588 0.90069 0.0
H654 H 0.45606 0.5618 0.92036 0.0
H655 H 0.44876 0.5443 0.85952 0.0
C656 C 0.89454 0.04361 0.27169 0.0
C657 C 0.8988 0.0262 0.29001 0.0
C658 C 0.90751 0.05673 0.27017 0.0
C659 C 0.92513 0.05228 0.28711 0.0
C660 C 0.92953 0.03469 0.30483 0.0
C661 C 0.9163 0.02187 0.30619 0.0
C662 C 0.90231 0.07538 0.25152 0.0
C663 C 0.9482 0.02944 0.32283 0.0
C664 C 0.96171 0.0828 0.22332 0.0
C665 C 0.96564 0.0918 0.29004 0.0
C666 C 0.94848 0.06995 0.22141 0.0
C667 C 0.93894 0.06609 0.28774 0.0
C668 C 0.94273 0.07525 0.35508 0.0
C669 C 0.95605 0.08799 0.35543 0.0
C670 C 0.94484 0.06038 0.14866 0.0
C671 C 0.93276 0.07157 0.42683 0.0
H672 H 0.88099 0.04706 0.26008 0.0
H673 H 0.91967 0.00838 0.31951 0.0
H674 H 0.90536 0.08413 0.29971 0.0
H675 H 0.91002 0.08018 0.20269 0.0
H676 H 0.8881 0.07659 0.23818 0.0
H677 H 0.94949 0.01514 0.334 0.0
H678 H 0.957 0.03297 0.2754 0.0
H679 H 0.95287 0.03675 0.37301 0.0
H680 H 0.9692 0.08559 0.17284 0.0
H681 H 0.95885 0.09512 0.40685 0.0
H682 H 0.93087 0.06209 0.13245 0.0
H683 H 0.94712 0.04608 0.15627 0.0
H684 H 0.95327 0.06511 0.10181 0.0
H685 H 0.91849 0.07372 0.41782 0.0
H686 H 0.93716 0.08002 0.47415 0.0
H687 H 0.9345 0.05761 0.44326 0.0
C688 C 0.46539 0.91044 0.72233 0.0
C689 C 0.46218 0.89443 0.75946 0.0
C690 C 0.45283 0.92394 0.72184 0.0
C691 C 0.43629 0.92114 0.75615 0.0
C692 C 0.43249 0.9047 0.7895 0.0
C693 C 0.44557 0.89173 0.79227 0.0
C694 C 0.45756 0.94148 0.68758 0.0
C695 C 0.41478 0.90097 0.82448 0.0
C696 C 0.41023 0.95944 0.83461 0.0
C697 C 0.39831 0.96305 0.77618 0.0
C698 C 0.42301 0.94628 0.82751 0.0
C699 C 0.4234 0.93576 0.76197 0.0
C700 C 0.4113 0.93899 0.70327 0.0
C701 C 0.3992 0.95283 0.7103 0.0
C702 C 0.43603 0.94357 0.89061 0.0
C703 C 0.4109 0.92761 0.63367 0.0
H704 H 0.47785 0.91264 0.69451 0.0
H705 H 0.44282 0.87967 0.82237 0.0
H706 H 0.44779 0.94525 0.64431 0.0
H707 H 0.45728 0.95179 0.73176 0.0
H708 H 0.47082 0.9414 0.66135 0.0
H709 H 0.41311 0.88685 0.83872 0.0
H710 H 0.41326 0.90878 0.87676 0.0
H711 H 0.40407 0.90493 0.78568 0.0
H712 H 0.40954 0.9667 0.88687 0.0
H713 H 0.39042 0.95557 0.66386 0.0
H714 H 0.44964 0.94358 0.86814 0.0
H715 H 0.43379 0.9306 0.91741 0.0
H716 H 0.43499 0.95389 0.93459 0.0
H717 H 0.42368 0.92835 0.60387 0.0
H718 H 0.40033 0.93154 0.59404 0.0
H719 H 0.40885 0.91367 0.64982 0.0
C720 C 0.59949 0.44249 0.30036 0.0
C721 C 0.59675 0.45926 0.26921 0.0
C722 C 0.58656 0.42939 0.29616 0.0
C723 C 0.57012 0.43332 0.26314 0.0
C724 C 0.56733 0.44998 0.23002 0.0
C725 C 0.58081 0.46257 0.2318 0.0
C726 C 0.59029 0.41153 0.32969 0.0
C727 C 0.5498 0.45486 0.19615 0.0
C728 C 0.53773 0.39683 0.2168 0.0
C729 C 0.52758 0.39603 0.28292 0.0
C730 C 0.55184 0.40864 0.20996 0.0
C731 C 0.55541 0.42054 0.2691 0.0
C732 C 0.54503 0.42017 0.33507 0.0
C733 C 0.53162 0.40766 0.34198 0.0
C734 C 0.56308 0.40819 0.13997 0.0
C735 C 0.54811 0.43297 0.39873 0.0
H736 H 0.61151 0.43964 0.33049 0.0
H737 H 0.5786 0.47515 0.20502 0.0
H738 H 0.58274 0.40993 0.38263 0.0
H739 H 0.58605 0.40096 0.29068 0.0
H740 H 0.60446 0.40971 0.34251 0.0
H741 H 0.54995 0.46813 0.17012 0.0
H742 H 0.5459 0.44514 0.15282 0.0
H743 H 0.53954 0.45463 0.24057 0.0
H744 H 0.5347 0.38825 0.16999 0.0
H745 H 0.52448 0.40697 0.39451 0.0
H746 H 0.57705 0.4061 0.15558 0.0
H747 H 0.56232 0.42096 0.11018 0.0
H748 H 0.55904 0.39761 0.10052 0.0
H749 H 0.56113 0.43049 0.42465 0.0
H750 H 0.53791 0.43195 0.44325 0.0
H751 H 0.54821 0.44665 0.37699 0.0
C752 C 0.03937 0.59088 0.8601 0.0
C753 C 0.0287 0.5936 0.79697 0.0
C754 C 0.05268 0.57816 0.8594 0.0
C755 C 0.05525 0.56778 0.79423 0.0
C756 C 0.04462 0.57057 0.73 0.0
C757 C 0.03152 0.58356 0.73197 0.0
C758 C 0.06392 0.57575 0.92863 0.0
C759 C 0.04684 0.5596 0.65988 0.0
C760 C 0.09912 0.5444 0.777 0.0
C761 C 0.09515 0.52775 0.80655 0.0
C762 C 0.08618 0.55747 0.77118 0.0
C763 C 0.0688 0.55372 0.79441 0.0
C764 C 0.06454 0.53677 0.82165 0.0
C765 C 0.07778 0.52404 0.8279 0.0
C766 C 0.09124 0.57543 0.74225 0.0
C767 C 0.04609 0.53224 0.84638 0.0
H768 H 0.03734 0.59881 0.91003 0.0
H769 H 0.02319 0.58559 0.6833 0.0
H770 H 0.06217 0.56228 0.95123 0.0
H771 H 0.07801 0.57727 0.91389 0.0
H772 H 0.06063 0.58533 0.97367 0.0
H773 H 0.03781 0.56372 0.61411 0.0
H774 H 0.06056 0.56053 0.63912 0.0
H775 H 0.0443 0.54557 0.6731 0.0
H776 H 0.11242 0.5473 0.75896 0.0
H777 H 0.07459 0.51133 0.85176 0.0
H778 H 0.08923 0.58537 0.78715 0.0
H779 H 0.08269 0.57919 0.69437 0.0
H780 H 0.10516 0.57601 0.72362 0.0
H781 H 0.04251 0.54018 0.89644 0.0
H782 H 0.04466 0.51811 0.86083 0.0
H783 H 0.03657 0.5355 0.80127 0.0
C784 C 0.05823 0.38059 0.09718 0.0
C785 C 0.04245 0.38056 0.05638 0.0
C786 C 0.0714 0.39303 0.0824 0.0
C787 C 0.06878 0.40564 0.02504 0.0
C788 C 0.05303 0.4055 0.98275 0.0
C789 C 0.04002 0.39299 0.9991 0.0
C790 C 0.08801 0.39282 0.12888 0.0
C791 C 0.04983 0.41867 0.92073 0.0
C792 C 0.09446 0.44839 0.03173 0.0
C793 C 0.1078 0.44523 0.979 0.0
C794 C 0.08179 0.43554 0.04788 0.0
C795 C 0.08242 0.41918 1.00999 0.0
C796 C 0.09593 0.41584 0.95719 0.0
C797 C 0.10851 0.42889 0.94251 0.0
C798 C 0.06765 0.43951 0.10506 0.0
C799 C 0.09698 0.39858 0.91546 0.0
H800 H 0.06022 0.37107 0.14164 0.0
H801 H 0.02791 0.393 0.96704 0.0
H802 H 0.09964 0.39137 0.09174 0.0
H803 H 0.08945 0.40549 0.15917 0.0
H804 H 0.0881 0.38198 0.17074 0.0
H805 H 0.03709 0.41649 0.89176 0.0
H806 H 0.04993 0.43218 0.9442 0.0
H807 H 0.06055 0.41793 0.87848 0.0
H808 H 0.09388 0.46095 0.06043 0.0
H809 H 0.11874 0.42637 0.90146 0.0
H810 H 0.06782 0.42948 0.15035 0.0
H811 H 0.05454 0.43887 0.07794 0.0
H812 H 0.06927 0.4527 0.13092 0.0
H813 H 0.09793 0.38754 0.956 0.0
H814 H 0.10844 0.39799 0.87682 0.0
H815 H 0.08482 0.39655 0.88217 0.0
C816 C 0.11671 0.06354 0.57222 0.0
C817 C 0.10933 0.0566 0.63823 0.0
C818 C 0.10673 0.07389 0.52303 0.0
C819 C 0.08891 0.07738 0.54016 0.0
C820 C 0.08145 0.07072 0.60736 0.0
C821 C 0.09178 0.06045 0.65577 0.0
C822 C 0.11519 0.08088 0.45221 0.0
C823 C 0.06245 0.07409 0.62717 0.0
C824 C 0.06595 0.11551 0.44393 0.0
C825 C 0.05683 0.10693 0.38593 0.0
C826 C 0.07654 0.10607 0.49426 0.0
C827 C 0.07796 0.08762 0.48671 0.0
C828 C 0.0689 0.07889 0.42804 0.0
C829 C 0.0585 0.08867 0.37813 0.0
C830 C 0.08615 0.11585 0.5557 0.0
C831 C 0.07003 0.05919 0.41853 0.0
H832 H 0.1303 0.06073 0.55839 0.0
H833 H 0.08597 0.05511 0.70653 0.0
H834 H 0.10824 0.07569 0.40208 0.0
H835 H 0.11407 0.09542 0.45053 0.0
H836 H 0.1293 0.07724 0.4479 0.0
H837 H 0.05874 0.06825 0.6822 0.0
H838 H 0.05987 0.08843 0.62926 0.0
H839 H 0.0538 0.06848 0.58301 0.0
H840 H 0.06476 0.12962 0.45031 0.0
H841 H 0.05145 0.08193 0.33373 0.0
H842 H 0.10047 0.11328 0.55155 0.0
H843 H 0.08176 0.11107 0.61158 0.0
H844 H 0.08393 0.13027 0.55295 0.0
H845 H 0.08389 0.05519 0.40949 0.0
H846 H 0.06205 0.0544 0.37041 0.0
H847 H 0.06541 0.05256 0.4705 0.0
C848 C 0.43187 0.08957 0.1456 0.0
C849 C 0.4335 0.10781 0.13687 0.0
C850 C 0.4216 0.07961 0.09575 0.0
C851 C 0.4126 0.08815 0.03639 0.0
C852 C 0.41399 0.10659 0.02795 0.0
C853 C 0.42448 0.11618 0.07809 0.0
C854 C 0.42054 0.05994 0.10602 0.0
C855 C 0.40447 0.11618 0.96577 0.0
C856 C 0.3985 0.06107 0.86731 0.0
C857 C 0.38094 0.05734 0.88513 0.0
C858 C 0.40897 0.07116 0.91594 0.0
C859 C 0.40162 0.0778 0.98342 0.0
C860 C 0.38379 0.07442 1.00078 0.0
C861 C 0.3737 0.06418 0.95157 0.0
C862 C 0.42801 0.07434 0.89612 0.0
C863 C 0.37542 0.08148 0.07167 0.0
H864 H 0.43889 0.083 0.19054 0.0
H865 H 0.42562 0.13028 0.07104 0.0
H866 H 0.4067 0.05592 0.11548 0.0
H867 H 0.42512 0.05321 0.05421 0.0
H868 H 0.42858 0.05528 0.15418 0.0
H869 H 0.4065 0.13062 0.96839 0.0
H870 H 0.40911 0.1114 0.91025 0.0
H871 H 0.39016 0.11344 0.96907 0.0
H872 H 0.40421 0.05573 0.81634 0.0
H873 H 0.3601 0.06144 0.96552 0.0
H874 H 0.43658 0.0683 0.93946 0.0
H875 H 0.43087 0.08863 0.8957 0.0
H876 H 0.43156 0.06878 0.84036 0.0
H877 H 0.38239 0.07632 0.12176 0.0
H878 H 0.36131 0.07788 0.07625 0.0
H879 H 0.37657 0.09602 0.07311 0.0
C880 C 0.40135 0.43494 0.64211 0.0
C881 C 0.38304 0.43626 0.63579 0.0
C882 C 0.41105 0.42434 0.5926 0.0
C883 C 0.40219 0.41475 0.53585 0.0
C884 C 0.38371 0.41596 0.52936 0.0
C885 C 0.37435 0.42674 0.57928 0.0
C886 C 0.43079 0.42347 0.60081 0.0
C887 C 0.3738 0.40583 0.46987 0.0
C888 C 0.42907 0.399 0.36887 0.0
C889 C 0.43297 0.38168 0.39004 0.0
C890 C 0.41885 0.40988 0.41535 0.0
C891 C 0.41229 0.4032 0.48419 0.0
C892 C 0.41578 0.38559 0.50482 0.0
C893 C 0.42611 0.37506 0.45762 0.0
C894 C 0.41545 0.42864 0.39173 0.0
C895 C 0.40885 0.37794 0.57742 0.0
H896 H 0.40817 0.44233 0.68527 0.0
H897 H 0.36019 0.42768 0.57396 0.0
H898 H 0.43491 0.40975 0.61239 0.0
H899 H 0.43719 0.42753 0.54748 0.0
H900 H 0.4357 0.43201 0.6469 0.0
H901 H 0.35942 0.40827 0.4722 0.0
H902 H 0.37864 0.4095 0.41315 0.0
H903 H 0.37617 0.39153 0.47695 0.0
H904 H 0.43435 0.40422 0.31683 0.0
H905 H 0.42897 0.36166 0.47422 0.0
H906 H 0.42122 0.43778 0.43361 0.0
H907 H 0.40111 0.43123 0.39005 0.0
H908 H 0.4211 0.43167 0.33559 0.0
H909 H 0.41447 0.38517 0.62595 0.0
H910 H 0.41212 0.36378 0.58362 0.0
H911 H 0.39436 0.37947 0.58016 0.0
C912 C 0.87633 0.56523 0.0831 0.0
C913 C 0.88345 0.55813 0.14924 0.0
C914 C 0.88667 0.57525 0.03388 0.0
C915 C 0.90458 0.57819 0.05104 0.0
C916 C 0.91181 0.57129 0.11819 0.0
C917 C 0.90113 0.56138 0.16667 0.0
C918 C 0.87846 0.58253 0.96309 0.0
C919 C 0.93089 0.5741 0.13814 0.0
C920 C 0.93544 0.58928 0.89001 0.0
C921 C 0.93738 0.6075 0.89859 0.0
C922 C 0.9248 0.57957 0.93932 0.0
C923 C 0.91581 0.58832 0.99821 0.0
C924 C 0.91756 0.60672 1.00663 0.0
C925 C 0.92835 0.61608 0.95685 0.0
C926 C 0.92332 0.55992 0.92893 0.0
C927 C 0.90808 0.61652 0.06843 0.0
H928 H 0.86267 0.56285 0.06928 0.0
H929 H 0.90675 0.5559 0.21752 0.0
H930 H 0.88015 0.597 0.96113 0.0
H931 H 0.88517 0.57701 0.91297 0.0
H932 H 0.86421 0.57945 0.95905 0.0
H933 H 0.93444 0.56799 0.19278 0.0
H934 H 0.93941 0.56845 0.0936 0.0
H935 H 0.93382 0.58837 0.14116 0.0
H936 H 0.94242 0.58254 0.84539 0.0
H937 H 0.92974 0.63017 0.96385 0.0
H938 H 0.90938 0.55619 0.91987 0.0
H939 H 0.92783 0.55309 0.98054 0.0
H940 H 0.9312 0.55511 0.8805 0.0
H941 H 0.89371 0.61431 0.06378 0.0
H942 H 0.91064 0.63089 0.06661 0.0
H943 H 0.91225 0.61146 0.12413 0.0
C944 C 0.92651 0.87472 0.56607 0.0
C945 C 0.93327 0.88144 0.63364 0.0
C946 C 0.91616 0.88514 0.51859 0.0
C947 C 0.91252 0.90273 0.53901 0.0
C948 C 0.91903 0.90953 0.60771 0.0
C949 C 0.92929 0.89877 0.65442 0.0
C950 C 0.90932 0.87738 0.44606 0.0
C951 C 0.91552 0.9283 0.63099 0.0
C952 C 0.90115 0.93446 0.38178 0.0
C953 C 0.88286 0.93583 0.38923 0.0
C954 C 0.91097 0.92381 0.4305 0.0
C955 C 0.90226 0.91415 0.48746 0.0
C956 C 0.88378 0.91531 0.49477 0.0
C957 C 0.8743 0.92621 0.44578 0.0
C958 C 0.9307 0.923 0.42145 0.0
C959 C 0.87402 0.90506 0.55433 0.0
H960 H 0.92943 0.86131 0.54973 0.0
H961 H 0.93451 0.90407 0.70639 0.0
H962 H 0.89478 0.87845 0.44414 0.0
H963 H 0.91457 0.88485 0.39743 0.0
H964 H 0.91303 0.86334 0.43925 0.0
H965 H 0.92126 0.93147 0.6868 0.0
H966 H 0.92112 0.93743 0.58863 0.0
H967 H 0.90116 0.93077 0.63321 0.0
H968 H 0.90787 0.94194 0.33857 0.0
H969 H 0.86016 0.92717 0.45184 0.0
H970 H 0.93486 0.90929 0.40981 0.0
H971 H 0.93718 0.92712 0.47448 0.0
H972 H 0.93549 0.93154 0.3751 0.0
H973 H 0.87663 0.8908 0.54747 0.0
H974 H 0.8596 0.90726 0.55193 0.0
H975 H 0.87878 0.90887 0.611 0.0
C976 C 0.5964 0.95121 0.98597 0.0
C977 C 0.6096 0.94779 0.03898 0.0
C978 C 0.58424 0.9382 0.96561 0.0
C979 C 0.58525 0.92138 0.99938 0.0
C980 C 0.59861 0.91779 0.05252 0.0
C981 C 0.61067 0.93102 0.07151 0.0
C982 C 0.57022 0.94248 0.90839 0.0
C983 C 0.60005 0.90002 0.08991 0.0
C984 C 0.54359 0.89395 0.99953 0.0
C985 C 0.54661 0.8825 0.93909 0.0
C986 C 0.55619 0.90648 0.02055 0.0
C987 C 0.57214 0.90765 0.97979 0.0
C988 C 0.57537 0.89598 0.91934 0.0
C989 C 0.56258 0.88349 0.89987 0.0
C990 C 0.55236 0.91859 0.08583 0.0
C991 C 0.5922 0.89688 0.87446 0.0
H992 H 0.59552 0.9641 0.96032 0.0
H993 H 0.62081 0.92825 0.11253 0.0
H994 H 0.57095 0.93313 0.86061 0.0
H995 H 0.55702 0.94101 0.93418 0.0
H996 H 0.57148 0.95607 0.88614 0.0
H997 H 0.61131 0.89929 0.12952 0.0
H998 H 0.58779 0.89711 0.12135 0.0
H999 H 0.60162 0.88961 0.04675 0.0
H1000 H 0.53135 0.89316 0.03052 0.0
H1001 H 0.56499 0.87469 0.853 0.0
H1002 H 0.55206 0.93242 0.06604 0.0
H1003 H 0.56294 0.9176 0.12848 0.0
H1004 H 0.5396 0.91556 0.11335 0.0
H1005 H 0.59336 0.90995 0.84724 0.0
H1006 H 0.59286 0.88659 0.83021 0.0
H1007 H 0.60368 0.89535 0.91228 0.0
C1008 C 0.60753 0.55984 0.42562 0.0
C1009 C 0.60829 0.54331 0.46033 0.0
C1010 C 0.59552 0.57264 0.45001 0.0
C1011 C 0.58411 0.56883 0.51078 0.0
C1012 C 0.58503 0.55227 0.5468 0.0
C1013 C 0.59708 0.53969 0.52102 0.0
C1014 C 0.59488 0.59016 0.41017 0.0
C1015 C 0.57316 0.54776 0.61213 0.0
C1016 C 0.56228 0.60631 0.61669 0.0
C1017 C 0.54534 0.6062 0.58564 0.0
C1018 C 0.5751 0.5943 0.59246 0.0
C1019 C 0.57088 0.58198 0.53562 0.0
C1020 C 0.55387 0.58194 0.50346 0.0
C1021 C 0.54129 0.59403 0.52898 0.0
C1022 C 0.5931 0.59469 0.62816 0.0
C1023 C 0.5489 0.56904 0.44248 0.0
H1024 H 0.61616 0.56272 0.37868 0.0
H1025 H 0.59771 0.52701 0.54861 0.0
H1026 H 0.5817 0.59215 0.38498 0.0
H1027 H 0.59703 0.60097 0.45102 0.0
H1028 H 0.60491 0.59119 0.36495 0.0
H1029 H 0.57589 0.53449 0.63538 0.0
H1030 H 0.57477 0.55758 0.65775 0.0
H1031 H 0.55922 0.54826 0.5939 0.0
H1032 H 0.5655 0.61566 0.66056 0.0
H1033 H 0.52827 0.59393 0.50431 0.0
H1034 H 0.6033 0.59666 0.58438 0.0
H1035 H 0.59585 0.5819 0.65569 0.0
H1036 H 0.59436 0.60529 0.67081 0.0
H1037 H 0.55802 0.57034 0.39407 0.0
H1038 H 0.53525 0.57102 0.42209 0.0
H1039 H 0.55014 0.55541 0.46395 0.0
C1040 C 0.00698 0.2802 0.23716 0.0
C1041 C 0.01773 0.28873 0.18461 0.0
C1042 C 0.00853 0.26208 0.24982 0.0
C1043 C 0.02089 0.25223 0.20783 0.0
C1044 C 0.03161 0.26074 0.15383 0.0
C1045 C 0.03002 0.27896 0.14338 0.0
C1046 C -0.00294 0.25353 0.30873 0.0
C1047 C 0.04471 0.25059 0.10708 0.0
C1048 C 0.03533 0.20849 0.28973 0.0
C1049 C 0.02398 0.1968 0.25305 0.0
C1050 C 0.03463 0.22659 0.27483 0.0
C1051 C 0.02257 0.23302 0.22083 0.0
C1052 C 0.01151 0.22116 0.18177 0.0
C1053 C 0.01222 0.20319 0.19899 0.0
C1054 C 0.04642 0.23887 0.31846 0.0
C1055 C -0.00126 0.22748 0.12269 0.0
H1056 H -0.00244 0.28775 0.26958 0.0
H1057 H 0.03829 0.28554 0.10246 0.0
H1058 H 0.98877 0.24321 0.2825 0.0
H1059 H 0.00538 0.24699 0.35165 0.0
H1060 H 0.98833 0.26312 0.33748 0.0
H1061 H 0.05172 0.2591 0.06609 0.0
H1062 H 0.05456 0.24426 0.14417 0.0
H1063 H 0.03791 0.23995 0.07584 0.0
H1064 H 0.04439 0.20355 0.33174 0.0
H1065 H 0.00358 0.19412 0.16995 0.0
H1066 H 0.0383 0.24808 0.35216 0.0
H1067 H 0.05443 0.24691 0.27929 0.0
H1068 H 0.05541 0.23172 0.35701 0.0
H1069 H 0.98863 0.23597 0.14911 0.0
H1070 H 0.99202 0.21643 0.09363 0.0
H1071 H 0.0057 0.23555 0.08007 0.0
C1072 C 0.28087 0.03079 0.83994 0.0
C1073 C 0.29155 0.01932 0.79855 0.0
C1074 C 0.26257 0.03076 0.83061 0.0
C1075 C 0.25486 0.01926 0.77743 0.0
C1076 C 0.26562 0.00769 0.73529 0.0
C1077 C 0.28385 0.00773 0.74696 0.0
C1078 C 0.25149 0.04305 0.87756 0.0
C1079 C 0.25789 -0.00453 0.67707 0.0
C1080 C 0.20631 0.0083 0.79247 0.0
C1081 C 0.19898 0.02012 0.74087 0.0
C1082 C 0.22449 0.008 0.80562 0.0
C1083 C 0.23557 0.01954 0.76494 0.0
C1084 C 0.22823 0.03139 0.71222 0.0
C1085 C 0.20998 0.03166 0.70142 0.0
C1086 C 0.23182 0.99544 0.86335 0.0
C1087 C 0.23966 0.04367 0.6668 0.0
H1088 H 0.28681 0.03968 0.88025 0.0
H1089 H 0.29211 -0.00107 0.71456 0.0
H1090 H 0.24443 0.05242 0.84056 0.0
H1091 H 0.24139 0.03547 0.90885 0.0
H1092 H 0.25946 0.05066 0.91852 0.0
H1093 H 0.26808 0.98736 0.64882 0.0
H1094 H 0.24816 0.98657 0.7037 0.0
H1095 H 0.25082 0.00321 0.63371 0.0
H1096 H 0.1978 -0.00055 0.82339 0.0
H1097 H 0.20434 0.04074 0.6611 0.0
H1098 H 0.23917 0.00284 0.90694 0.0
H1099 H 0.24123 0.98628 0.83626 0.0
H1100 H 0.22137 0.9876 0.89135 0.0
H1101 H 0.24702 0.05257 0.70489 0.0
H1102 H 0.23192 0.05179 0.62687 0.0
H1103 H 0.24951 0.036 0.63446 0.0
C1104 C 0.45706 0.28053 0.35265 0.0
C1105 C 0.46866 0.29081 0.31007 0.0
C1106 C 0.45665 0.2622 0.34444 0.0
C1107 C 0.46783 0.25406 0.29118 0.0
C1108 C 0.47952 0.26441 0.2478 0.0
C1109 C 0.47992 0.28267 0.25838 0.0
C1110 C 0.44426 0.25155 0.39271 0.0
C1111 C 0.49141 0.25622 0.18945 0.0
C1112 C 0.47836 0.20545 0.30697 0.0
C1113 C 0.46649 0.19816 0.25547 0.0
C1114 C 0.4787 0.22362 0.32036 0.0
C1115 C 0.46715 0.23473 0.27998 0.0
C1116 C 0.45513 0.22741 0.22792 0.0
C1117 C 0.45481 0.20916 0.2169 0.0
C1118 C 0.49144 0.23092 0.37747 0.0
C1119 C 0.44283 0.23888 0.18286 0.0
H1120 H 0.44842 0.28681 0.39304 0.0
H1121 H 0.48882 0.29063 0.22504 0.0
H1122 H 0.43467 0.24452 0.35665 0.0
H1123 H 0.45172 0.24144 0.42438 0.0
H1124 H 0.43691 0.25983 0.43343 0.0
H1125 H 0.49959 0.26614 0.15988 0.0
H1126 H 0.50023 0.24647 0.21633 0.0
H1127 H 0.48341 0.24907 0.14715 0.0
H1128 H 0.48732 0.19692 0.33723 0.0
H1129 H 0.4457 0.20355 0.17667 0.0
H1130 H 0.48425 0.23871 0.42036 0.0
H1131 H 0.50085 0.23993 0.34947 0.0
H1132 H 0.49899 0.22042 0.40644 0.0
H1133 H 0.43431 0.24662 0.22117 0.0
H1134 H 0.43432 0.23112 0.14445 0.0
H1135 H 0.45053 0.2484 0.14889 0.0
C1136 C 0.28606 0.47729 0.8289 0.0
C1137 C 0.29265 0.46608 0.7731 0.0
C1138 C 0.26817 0.47715 0.84783 0.0
C1139 C 0.25659 0.46581 0.80872 0.0
C1140 C 0.26325 0.4543 0.75297 0.0
C1141 C 0.28128 0.45443 0.73639 0.0
C1142 C 0.26163 0.48935 0.9087 0.0
C1143 C 0.25124 0.44224 0.70922 0.0
C1144 C 0.21123 0.45669 0.88933 0.0
C1145 C 0.20098 0.46897 0.85037 0.0
C1146 C 0.22943 0.45556 0.87684 0.0
C1147 C 0.23739 0.46676 0.8231 0.0
C1148 C 0.22703 0.47904 0.78307 0.0
C1149 C 0.20897 0.48011 0.79773 0.0
C1150 C 0.24014 0.44253 0.92148 0.0
C1151 C 0.235 0.49101 0.72445 0.0
H1152 H 0.29491 0.48615 0.858 0.0
H1153 H 0.28638 0.44579 0.69309 0.0
H1154 H 0.25271 0.49932 0.88393 0.0
H1155 H 0.25395 0.48189 0.95106 0.0
H1156 H 0.27254 0.49628 0.93777 0.0
H1157 H 0.25858 0.43366 0.66957 0.0
H1158 H 0.2436 0.43381 0.74824 0.0
H1159 H 0.24166 0.45017 0.67668 0.0
H1160 H 0.20508 0.44812 0.9303 0.0
H1161 H 0.20104 0.48953 0.76705 0.0
H1162 H 0.25058 0.44952 0.9532 0.0
H1163 H 0.24677 0.43318 0.88293 0.0
H1164 H 0.23198 0.43494 0.96186 0.0
H1165 H 0.24507 0.49958 0.75071 0.0
H1166 H 0.22501 0.49948 0.69683 0.0
H1167 H 0.2417 0.48308 0.68061 0.0
C1168 C 0.98092 0.78301 0.77161 0.0
C1169 C 0.96928 0.79092 0.72089 0.0
C1170 C 0.98091 0.76474 0.78222 0.0
C1171 C 0.96923 0.75416 0.73988 0.0
C1172 C 0.95764 0.76208 0.68768 0.0
C1173 C 0.95767 0.78041 0.6794 0.0
C1174 C 0.99322 0.75678 0.83943 0.0
C1175 C 0.94523 0.75118 0.64053 0.0
C1176 C 0.98039 0.70569 0.7227 0.0
C1177 C 0.96883 0.69823 0.77507 0.0
C1178 C 0.98044 0.72388 0.70959 0.0
C1179 C 0.96893 0.73482 0.75115 0.0
C1180 C 0.95725 0.72732 0.80417 0.0
C1181 C 0.95721 0.70906 0.81488 0.0
C1182 C 0.99281 0.73138 0.65141 0.0
C1183 C 0.945 0.7386 0.85045 0.0
H1184 H 0.98984 0.79114 0.80403 0.0
H1185 H 0.94875 0.7865 0.6397 0.0
H1186 H 0.98557 0.74949 0.88246 0.0
H1187 H 0.00209 0.74719 0.81172 0.0
H1188 H 0.00136 0.76686 0.86823 0.0
H1189 H 0.93752 0.75932 0.60056 0.0
H1190 H 0.95273 0.74122 0.60812 0.0
H1191 H 0.93595 0.74397 0.67745 0.0
H1192 H 0.9893 0.69729 0.69147 0.0
H1193 H 0.94834 0.7033 0.85579 0.0
H1194 H 0.00219 0.74055 0.6786 0.0
H1195 H 0.9853 0.73904 0.60915 0.0
H1196 H 0.0004 0.721 0.6218 0.0
H1197 H 0.95271 0.74826 0.88358 0.0
H1198 H 0.93684 0.73071 0.88977 0.0
H1199 H 0.93615 0.74616 0.813 0.0
C1200 C 0.78644 0.98002 0.20437 0.0
C1201 C 0.79288 0.96839 0.25887 0.0
C1202 C 0.76855 0.98025 0.18556 0.0
C1203 C 0.75681 0.96883 0.2234 0.0
C1204 C 0.76328 0.95697 0.2781 0.0
C1205 C 0.78131 0.95676 0.29463 0.0
C1206 C 0.76219 0.99284 0.12585 0.0
C1207 C 0.75111 0.94481 0.32049 0.0
C1208 C 0.70911 0.98307 0.23287 0.0
C1209 C 0.70133 0.97215 0.17884 0.0
C1210 C 0.72713 0.98195 0.24851 0.0
C1211 C 0.73765 0.96987 0.20804 0.0
C1212 C 0.72988 0.95891 0.15287 0.0
C1213 C 0.71174 0.96006 0.13945 0.0
C1214 C 0.73487 0.99363 0.30867 0.0
C1215 C 0.74076 0.9461 0.10773 0.0
H1216 H 0.79542 0.98889 0.17604 0.0
H1217 H 0.78629 0.9478 0.33695 0.0
H1218 H 0.7547 0.98562 0.0821 0.0
H1219 H 0.75313 0.0026 0.15124 0.0
H1220 H 0.77317 -0.0 0.09834 0.0
H1221 H 0.75829 0.93612 0.36017 0.0
H1222 H 0.7414 0.95265 0.3528 0.0
H1223 H 0.74363 0.93649 0.28054 0.0
H1224 H 0.70105 0.99232 0.26392 0.0
H1225 H 0.70573 0.95166 0.09743 0.0
H1226 H 0.74504 0.00233 0.28382 0.0
H1227 H 0.74142 0.9855 0.35219 0.0
H1228 H 0.72478 0.00197 0.33644 0.0
H1229 H 0.75133 0.95323 0.07734 0.0
H1230 H 0.73276 0.93871 0.06614 0.0
H1231 H 0.74724 0.93655 0.14584 0.0
C1232 C 0.53704 0.78058 0.83691 0.0
C1233 C 0.52475 0.7906 0.79685 0.0
C1234 C 0.5382 0.76232 0.82628 0.0
C1235 C 0.52702 0.75403 0.77339 0.0
C1236 C 0.51494 0.7642 0.73141 0.0
C1237 C 0.51384 0.78234 0.74418 0.0
C1238 C 0.55104 0.75185 0.87291 0.0
C1239 C 0.50298 0.75589 0.67367 0.0
C1240 C 0.53747 0.70845 0.69833 0.0
C1241 C 0.52532 0.69816 0.7379 0.0
C1242 C 0.53847 0.72667 0.71034 0.0
C1243 C 0.52727 0.73463 0.76415 0.0
C1244 C 0.51545 0.72414 0.80618 0.0
C1245 C 0.5145 0.70606 0.79199 0.0
C1246 C 0.55104 0.73749 0.66369 0.0
C1247 C 0.50351 0.73209 0.86498 0.0
H1248 H 0.54547 0.78696 0.8778 0.0
H1249 H 0.50444 0.79008 0.71254 0.0
H1250 H 0.54378 0.74236 0.90872 0.0
H1251 H 0.55985 0.7441 0.83584 0.0
H1252 H 0.55922 0.76035 0.90973 0.0
H1253 H 0.49509 0.76579 0.64261 0.0
H1254 H 0.51082 0.74822 0.63253 0.0
H1255 H 0.49384 0.7466 0.70171 0.0
H1256 H 0.54582 0.70235 0.65637 0.0
H1257 H 0.50523 0.69808 0.82329 0.0
H1258 H 0.5596 0.74552 0.70067 0.0
H1259 H 0.54352 0.74672 0.62771 0.0
H1260 H 0.55947 0.7292 0.62701 0.0
H1261 H 0.51128 0.74002 0.90543 0.0
H1262 H 0.49608 0.72194 0.89672 0.0
H1263 H 0.49396 0.74107 0.8377 0.0
C1264 C 0.78489 0.51399 0.30786 0.0
C1265 C 0.79234 0.52558 0.25562 0.0
C1266 C 0.76677 0.5141 0.3221 0.0
C1267 C 0.75583 0.52585 0.28195 0.0
C1268 C 0.76331 0.53771 0.22959 0.0
C1269 C 0.78155 0.53756 0.21758 0.0
C1270 C 0.75931 0.50147 0.37935 0.0
C1271 C 0.75202 0.55023 0.18484 0.0
C1272 C 0.70829 0.51184 0.26116 0.0
C1273 C 0.69991 0.52243 0.31476 0.0
C1274 C 0.72642 0.51314 0.24878 0.0
C1275 C 0.73647 0.52507 0.29215 0.0
C1276 C 0.72807 0.53584 0.34632 0.0
C1277 C 0.70981 0.53452 0.35646 0.0
C1278 C 0.73485 0.50166 0.18955 0.0
C1279 C 0.73842 0.5485 0.39444 0.0
H1280 H 0.79326 0.50485 0.33796 0.0
H1281 H 0.7873 0.54651 0.17702 0.0
H1282 H 0.75134 0.50871 0.42145 0.0
H1283 H 0.75046 0.49195 0.35111 0.0
H1284 H 0.76973 0.49402 0.40929 0.0
H1285 H 0.75993 0.55897 0.14801 0.0
H1286 H 0.74273 0.54266 0.14922 0.0
H1287 H 0.74403 0.55849 0.22323 0.0
H1288 H 0.70062 0.5026 0.22832 0.0
H1289 H 0.70334 0.54267 0.39814 0.0
H1290 H 0.74445 0.49263 0.21621 0.0
H1291 H 0.74221 0.5099 0.14876 0.0
H1292 H 0.72506 0.49368 0.15826 0.0
H1293 H 0.74826 0.54117 0.4281 0.0
H1294 H 0.72988 0.55609 0.43339 0.0
H1295 H 0.74574 0.55787 0.35835 0.0
C1296 C 0.02082 0.32504 0.83233 0.0
C1297 C 0.00594 0.33371 0.86037 0.0
C1298 C 0.02495 0.32549 0.75511 0.0
C1299 C 0.01413 0.33515 0.70503 0.0
C1300 C -0.00076 0.34413 0.73341 0.0
C1301 C 0.99526 0.34318 0.81045 0.0
C1302 C 0.04078 0.31551 0.72699 0.0
C1303 C 0.98756 0.35488 0.68248 0.0
C1304 C 0.03312 0.35037 0.51767 0.0
C1305 C 0.02534 0.33861 0.46687 0.0
C1306 C 0.02966 0.34935 0.59523 0.0
C1307 C 0.01838 0.33603 0.62302 0.0
C1308 C 0.0107 0.32393 0.57203 0.0
C1309 C 0.01414 0.32548 0.49455 0.0
C1310 C 0.03782 0.36274 0.64728 0.0
C1311 C -0.00116 0.30937 0.59933 0.0
H1312 H 0.02903 0.31763 0.87068 0.0
H1313 H 0.98391 0.35014 0.83204 0.0
H1314 H 0.0367 0.30588 0.6835 0.0
H1315 H 0.0502 0.32469 0.70006 0.0
H1316 H 0.04766 0.30838 0.77283 0.0
H1317 H 0.97666 0.36134 0.71358 0.0
H1318 H -0.00457 0.36518 0.65382 0.0
H1319 H 0.98184 0.34638 0.63811 0.0
H1320 H 0.04163 0.36065 0.49641 0.0
H1321 H 0.00828 0.31624 0.45556 0.0
H1322 H 0.04575 0.35604 0.69103 0.0
H1323 H 0.02735 0.37021 0.67668 0.0
H1324 H 0.0464 0.37219 0.6169 0.0
H1325 H 0.00573 0.30137 0.64237 0.0
H1326 H 0.99454 0.30057 0.55296 0.0
H1327 H 0.987 0.31504 0.62651 0.0
C1328 C 0.15824 0.04256 0.05779 0.0
C1329 C 0.14821 0.03172 1.01056 0.0
C1330 C 0.15953 0.03914 0.13523 0.0
C1331 C 0.15034 0.02469 0.16649 0.0
C1332 C 0.14001 0.01383 0.11917 0.0
C1333 C 0.13921 0.01739 0.04168 0.0
C1334 C 0.17096 0.05083 0.1834 0.0
C1335 C 0.12978 -0.00153 0.15044 0.0
C1336 C 0.16611 0.0051 0.35143 0.0
C1337 C 0.15471 0.01297 0.40347 0.0
C1338 C 0.16494 0.00894 0.27432 0.0
C1339 C 0.15185 0.0207 0.24838 0.0
C1340 C 0.14025 0.02864 0.30071 0.0
C1341 C 0.14192 0.02479 0.37767 0.0
C1342 C 0.17779 0.00047 0.22065 0.0
C1343 C 0.12595 0.04105 0.27538 0.0
H1344 H 0.1654 0.0535 0.03378 0.0
H1345 H 0.13132 0.00911 1.00538 0.0
H1346 H 0.16302 0.0568 0.22905 0.0
H1347 H 0.18142 0.04289 0.21048 0.0
H1348 H 0.17724 0.06153 0.15046 0.0
H1349 H 0.12193 0.99166 0.10658 0.0
H1350 H 0.13892 0.98884 0.17616 0.0
H1351 H 0.12078 0.00305 0.19549 0.0
H1352 H 0.17613 -0.00387 0.37133 0.0
H1353 H 0.13296 0.03073 0.41763 0.0
H1354 H 0.18507 0.01075 0.18918 0.0
H1355 H 0.17061 0.99241 0.17873 0.0
H1356 H 0.18744 0.99193 0.25002 0.0
H1357 H 0.13183 0.05257 0.24656 0.0
H1358 H 0.11778 0.04584 0.32301 0.0
H1359 H 0.11727 0.03438 0.23418 0.0
C1360 C 0.46348 0.14231 0.88494 0.0
C1361 C 0.47383 0.15628 0.91117 0.0
C1362 C 0.45979 0.14037 0.80795 0.0
C1363 C 0.46632 0.15291 0.75605 0.0
C1364 C 0.47648 0.16724 0.78253 0.0
C1365 C 0.48027 0.16864 0.85965 0.0
C1366 C 0.44917 0.12473 0.78207 0.0
C1367 C 0.48334 0.18112 0.72938 0.0
C1368 C 0.4716 0.14056 0.54972 0.0
C1369 C 0.45623 0.14748 0.51805 0.0
C1370 C 0.47492 0.14199 0.62723 0.0
C1371 C 0.46275 0.15093 0.67396 0.0
C1372 C 0.44728 0.15811 0.64204 0.0
C1373 C 0.44412 0.15613 0.56462 0.0
C1374 C 0.49138 0.13384 0.65918 0.0
C1375 C 0.43418 0.16806 0.68952 0.0
H1376 H 0.45866 0.13262 0.92456 0.0
H1377 H 0.4881 0.17954 0.87998 0.0
H1378 H 0.43738 0.12919 0.75079 0.0
H1379 H 0.45713 0.11663 0.7429 0.0
H1380 H 0.44484 0.11633 0.82969 0.0
H1381 H 0.49044 0.1918 0.75929 0.0
H1382 H 0.49242 0.17508 0.68796 0.0
H1383 H 0.4723 0.18698 0.6973 0.0
H1384 H 0.48087 0.13373 0.51384 0.0
H1385 H 0.43233 0.16167 0.54007 0.0
H1386 H 0.48789 0.12433 0.70409 0.0
H1387 H 0.49971 0.14414 0.68523 0.0
H1388 H 0.49925 0.1269 0.61566 0.0
H1389 H 0.42901 0.15945 0.73474 0.0
H1390 H 0.42293 0.17305 0.65593 0.0
H1391 H 0.44074 0.17937 0.71718 0.0
C1392 C 0.32816 0.46571 0.05371 0.0
C1393 C 0.34329 0.45727 0.02688 0.0
C1394 C 0.32574 0.46877 0.13105 0.0
C1395 C 0.33896 0.46362 0.18271 0.0
C1396 C 0.35428 0.4551 0.15577 0.0
C1397 C 0.35615 0.45186 0.07833 0.0
C1398 C 0.30904 0.47754 0.15747 0.0
C1399 C 0.36887 0.44974 0.20855 0.0
C1400 C 0.34085 0.48779 0.3701 0.0
C1401 C 0.33363 0.47541 0.41973 0.0
C1402 C 0.34277 0.48407 0.29313 0.0
C1403 C 0.33703 0.46766 0.26457 0.0
C1404 C 0.32961 0.45513 0.31436 0.0
C1405 C 0.32818 0.45909 0.39147 0.0
C1406 C 0.35114 0.49763 0.24251 0.0
C1407 C 0.32306 0.43761 0.28607 0.0
H1408 H 0.3181 0.46969 0.01414 0.0
H1409 H 0.36793 0.44548 0.05755 0.0
H1410 H 0.30247 0.46925 0.20045 0.0
H1411 H 0.31219 0.4903 0.18446 0.0
H1412 H 0.29968 0.47994 0.11066 0.0
H1413 H 0.37989 0.44316 0.17873 0.0
H1414 H 0.37407 0.4615 0.23804 0.0
H1415 H 0.36374 0.44068 0.25221 0.0
H1416 H 0.34535 0.5003 0.39189 0.0
H1417 H 0.3225 0.44954 0.42961 0.0
H1418 H 0.3418 0.50154 0.19764 0.0
H1419 H 0.36287 0.49195 0.21448 0.0
H1420 H 0.35521 0.50961 0.27372 0.0
H1421 H 0.31302 0.43967 0.24172 0.0
H1422 H 0.31722 0.4295 0.33163 0.0
H1423 H 0.33403 0.43015 0.2602 0.0
C1424 C 0.00416 0.14722 0.65388 0.0
C1425 C 0.01625 0.1551 0.60477 0.0
C1426 C 0.00788 0.14535 0.73083 0.0
C1427 C 0.02396 0.15183 0.75985 0.0
C1428 C 0.03619 0.1599 0.71056 0.0
C1429 C 0.03227 0.16125 0.63344 0.0
C1430 C 0.99467 0.13627 0.78093 0.0
C1431 C 0.05334 0.16724 0.73941 0.0
C1432 C 0.02517 0.16074 0.9707 0.0
C1433 C 0.03435 0.14607 0.99755 0.0
C1434 C 0.02207 0.16301 0.89335 0.0
C1435 C 0.02794 0.15006 0.84175 0.0
C1436 C 0.03718 0.13518 0.86874 0.0
C1437 C 0.04044 0.13348 0.9462 0.0
C1438 C 0.01252 0.17925 0.86683 0.0
C1439 C 0.04331 0.12087 0.81598 0.0
H1440 H 0.9919 0.14218 0.63168 0.0
H1441 H 0.04157 0.16742 0.59562 0.0
H1442 H 0.00089 0.12483 0.80903 0.0
H1443 H 0.9902 0.14538 0.82575 0.0
H1444 H 0.98298 0.1316 0.74928 0.0
H1445 H 0.06124 0.17347 0.69413 0.0
H1446 H 0.05073 0.17717 0.78377 0.0
H1447 H 0.06125 0.15662 0.76541 0.0
H1448 H 0.02066 0.1706 1.01026 0.0
H1449 H 0.0474 0.12205 0.96706 0.0
H1450 H -1e-05 0.17548 0.83939 0.0
H1451 H 0.02055 0.18625 0.82419 0.0
H1452 H 0.00956 0.18846 0.91367 0.0
H1453 H 0.03187 0.11515 0.78604 0.0
H1454 H 0.05033 0.11016 0.84591 0.0
H1455 H 0.05221 0.12644 0.77269 0.0
C1456 C 0.32727 0.00298 0.17795 0.0
C1457 C 0.33806 0.0117 0.12604 0.0
C1458 C 0.32809 0.00689 0.25506 0.0
C1459 C 0.34018 0.01966 0.28118 0.0
C1460 C 0.35119 0.02845 0.22904 0.0
C1461 C 0.3499 0.02446 0.15205 0.0
C1462 C 0.31589 -0.00256 0.30854 0.0
C1463 C 0.36441 0.042 0.25458 0.0
C1464 C 0.33128 0.04106 0.47083 0.0
C1465 C 0.34199 0.03115 0.519 0.0
C1466 C 0.33063 0.03752 0.39335 0.0
C1467 C 0.34114 0.02389 0.363 0.0
C1468 C 0.35218 0.014 0.41121 0.0
C1469 C 0.35236 0.01766 0.48872 0.0
C1470 C 0.31845 0.04817 0.34418 0.0
C1471 C 0.36377 -0.00046 0.38092 0.0
H1472 H 0.31796 0.99328 0.15796 0.0
H1473 H 0.35841 0.03109 0.11223 0.0
H1474 H 0.32364 0.99014 0.35114 0.0
H1475 H 0.30766 0.00711 0.33921 0.0
H1476 H 0.30711 0.98802 0.27913 0.0
H1477 H 0.37228 0.04735 0.20713 0.0
H1478 H 0.35757 0.05305 0.28287 0.0
H1479 H 0.3735 0.03609 0.29629 0.0
H1480 H 0.32306 0.05134 0.49411 0.0
H1481 H 0.36079 0.01012 0.52567 0.0
H1482 H 0.30872 0.03937 0.31693 0.0
H1483 H 0.32602 0.05466 0.29866 0.0
H1484 H 0.31126 0.05841 0.37638 0.0
H1485 H 0.35557 0.98912 0.35504 0.0
H1486 H 0.37205 0.9935 0.42539 0.0
H1487 H 0.37248 0.0048 0.3362 0.0
C1488 C 0.48688 0.34864 0.68265 0.0
C1489 C 0.47699 0.33807 0.63396 0.0
C1490 C 0.4829 0.34955 0.75966 0.0
C1491 C 0.46898 0.33927 0.78899 0.0
C1492 C 0.45897 0.32852 0.73995 0.0
C1493 C 0.46296 0.32824 0.66275 0.0
C1494 C 0.49357 0.36155 0.80957 0.0
C1495 C 0.44428 0.31707 0.76923 0.0
C1496 C 0.47077 0.3292 0.99843 0.0
C1497 C 0.45813 0.34077 0.02712 0.0
C1498 C 0.47418 0.32831 0.92086 0.0
C1499 C 0.46504 0.33963 0.87112 0.0
C1500 C 0.45237 0.35149 0.90007 0.0
C1501 C 0.44891 0.35173 0.97768 0.0
C1502 C 0.48748 0.31521 0.8921 0.0
C1503 C 0.44269 0.36409 0.84926 0.0
H1504 H 0.49759 0.35641 0.66005 0.0
H1505 H 0.45542 0.31999 0.62501 0.0
H1506 H 0.48476 0.37083 0.83954 0.0
H1507 H 0.50054 0.35372 0.8529 0.0
H1508 H 0.50344 0.36925 0.77739 0.0
H1509 H 0.43789 0.30932 0.72386 0.0
H1510 H 0.44947 0.30785 0.81217 0.0
H1511 H 0.43415 0.32528 0.79713 0.0
H1512 H 0.47774 0.32059 0.03672 0.0
H1513 H 0.43924 0.36078 1.00018 0.0
H1514 H 0.49851 0.32219 0.86432 0.0
H1515 H 0.48133 0.30657 0.84924 0.0
H1516 H 0.49291 0.30686 0.93778 0.0
H1517 H 0.45224 0.37257 0.81906 0.0
H1518 H 0.43342 0.37263 0.88079 0.0
H1519 H 0.4352 0.3567 0.80608 0.0
C1520 C 0.1715 0.48448 0.23398 0.0
C1521 C 0.15823 0.47934 0.18389 0.0
C1522 C 0.17021 0.48087 0.31124 0.0
C1523 C 0.15517 0.47207 0.33932 0.0
C1524 C 0.14173 0.46682 0.289 0.0
C1525 C 0.14347 0.47042 0.21185 0.0
C1526 C 0.18495 0.48645 0.36282 0.0
C1527 C 0.12541 0.45757 0.31676 0.0
C1528 C 0.15836 0.44898 0.52849 0.0
C1529 C 0.15087 0.46141 0.57718 0.0
C1530 C 0.15986 0.45228 0.45106 0.0
C1531 C 0.15355 0.46835 0.42134 0.0
C1532 C 0.14587 0.48092 0.47014 0.0
C1533 C 0.14472 0.47734 0.54753 0.0
C1534 C 0.16835 0.43864 0.40116 0.0
C1535 C 0.13881 0.49812 0.44056 0.0
H1536 H 0.18302 0.49117 0.21253 0.0
H1537 H 0.13309 0.46662 0.17347 0.0
H1538 H 0.1799 0.49571 0.40591 0.0
H1539 H 0.19025 0.47485 0.39304 0.0
H1540 H 0.19588 0.49292 0.33194 0.0
H1541 H 0.11616 0.45439 0.27039 0.0
H1542 H 0.12905 0.4452 0.34583 0.0
H1543 H 0.1185 0.46597 0.35838 0.0
H1544 H 0.16336 0.43676 0.55124 0.0
H1545 H 0.13876 0.48689 0.58483 0.0
H1546 H 0.17998 0.44438 0.37258 0.0
H1547 H 0.15903 0.43446 0.35668 0.0
H1548 H 0.17261 0.42684 0.43307 0.0
H1549 H 0.14952 0.50567 0.41317 0.0
H1550 H 0.13296 0.50636 0.48568 0.0
H1551 H 0.12865 0.49559 0.39716 0.0
C1552 C 0.95326 0.63477 0.46007 0.0
C1553 C 0.95914 0.64752 0.51117 0.0
C1554 C 0.95657 0.6364 0.38261 0.0
C1555 C 0.96567 0.65135 0.35532 0.0
C1556 C 0.97131 0.66445 0.40661 0.0
C1557 C 0.96816 0.66227 0.484 0.0
C1558 C 0.95066 0.62194 0.33018 0.0
C1559 C 0.98072 0.68075 0.37974 0.0
C1560 C 0.98969 0.64839 0.16794 0.0
C1561 C 0.97758 0.65604 0.11837 0.0
C1562 C 0.98591 0.64664 0.2449 0.0
C1563 C 0.96973 0.65301 0.27345 0.0
C1564 C 0.95748 0.66086 0.2237 0.0
C1565 C 0.96148 0.6621 0.1466 0.0
C1566 C -0.00084 0.63781 0.29553 0.0
C1567 C 0.94022 0.66807 0.25201 0.0
H1568 H 0.94644 0.62328 0.48114 0.0
H1569 H 0.97251 0.67224 0.52331 0.0
H1570 H 0.94179 0.62733 0.28646 0.0
H1571 H 0.96221 0.61627 0.30074 0.0
H1572 H 0.94369 0.6112 0.36028 0.0
H1573 H 0.98351 0.69008 0.42633 0.0
H1574 H 0.99333 0.67708 0.35267 0.0
H1575 H 0.97267 0.68758 0.33672 0.0
H1576 H 0.00202 0.64343 0.1461 0.0
H1577 H 0.95215 0.6681 0.10845 0.0
H1578 H 0.99303 0.62634 0.32385 0.0
H1579 H 0.00345 0.64704 0.34018 0.0
H1580 H 0.01095 0.63324 0.26426 0.0
H1581 H 0.93238 0.65741 0.27821 0.0
H1582 H 0.93231 0.67413 0.2064 0.0
H1583 H 0.94266 0.6781 0.2961 0.0
C1584 C 0.85603 0.95232 0.95212 0.0
C1585 C 0.84348 0.95851 1.00342 0.0
C1586 C 0.85438 0.95562 0.87466 0.0
C1587 C 0.83957 0.96498 0.84764 0.0
C1588 C 0.82667 0.97094 0.8992 0.0
C1589 C 0.82889 0.96782 0.97655 0.0
C1590 C 0.86865 0.94938 0.82195 0.0
C1591 C 0.81051 0.98063 0.87264 0.0
C1592 C 0.84266 0.9887 0.6597 0.0
C1593 C 0.83472 0.97666 0.61061 0.0
C1594 C 0.84447 0.98498 0.73667 0.0
C1595 C 0.83786 0.96896 0.76574 0.0
C1596 C 0.82972 0.95678 0.71648 0.0
C1597 C 0.82843 0.96069 0.63933 0.0
C1598 C 0.85363 -0.00186 0.78676 0.0
C1599 C 0.82222 0.9397 0.74539 0.0
H1600 H 0.86739 0.94526 0.97302 0.0
H1601 H 0.81906 0.97241 0.0161 0.0
H1602 H 0.86303 0.94051 0.7787 0.0
H1603 H 0.87445 0.96078 0.79196 0.0
H1604 H 0.87931 0.94229 0.85192 0.0
H1605 H 0.80132 0.98366 0.91946 0.0
H1606 H 0.81438 0.99313 0.8452 0.0
H1607 H 0.80345 0.97265 0.82999 0.0
H1608 H 0.8478 0.00092 0.63745 0.0
H1609 H 0.8222 0.95143 0.60152 0.0
H1610 H 0.86501 0.99184 0.81493 0.0
H1611 H 0.84454 0.00268 0.83153 0.0
H1612 H 0.85839 0.00979 0.75508 0.0
H1613 H 0.83276 0.9317 0.77148 0.0
H1614 H 0.81594 0.93183 0.70013 0.0
H1615 H 0.8123 0.94239 0.7897 0.0
C1616 C 0.54278 0.83209 0.47665 0.0
C1617 C 0.53083 0.84073 0.52402 0.0
C1618 C 0.53946 0.83024 0.3993 0.0
C1619 C 0.52394 0.83748 0.36813 0.0
C1620 C 0.51188 0.84634 0.41567 0.0
C1621 C 0.51539 0.84769 0.49315 0.0
C1622 C 0.55249 0.82038 0.35105 0.0
C1623 C 0.49533 0.85451 0.38459 0.0
C1624 C 0.5234 0.8465 0.15725 0.0
C1625 C 0.51323 0.83249 0.13018 0.0
C1626 C 0.52687 0.84838 0.23451 0.0
C1627 C 0.52032 0.83572 0.28588 0.0
C1628 C 0.51031 0.82136 0.25857 0.0
C1629 C 0.50673 0.82003 0.18119 0.0
C1630 C 0.53732 0.86405 0.26124 0.0
C1631 C 0.5034 0.80738 0.31109 0.0
H1632 H 0.55461 0.82647 0.50047 0.0
H1633 H 0.50621 0.85451 0.52952 0.0
H1634 H 0.54588 0.80917 0.32289 0.0
H1635 H 0.55764 0.82912 0.30624 0.0
H1636 H 0.56376 0.81526 0.38415 0.0
H1637 H 0.48748 0.86124 0.42872 0.0
H1638 H 0.49873 0.8642 0.34026 0.0
H1639 H 0.48704 0.84426 0.35799 0.0
H1640 H 0.52822 0.85629 0.11805 0.0
H1641 H 0.49899 0.80913 0.16029 0.0
H1642 H 0.54934 0.85959 0.29089 0.0
H1643 H 0.52943 0.87176 0.3021 0.0
H1644 H 0.54126 0.87283 0.21424 0.0
H1645 H 0.51443 0.80141 0.34289 0.0
H1646 H 0.49628 0.7968 0.28072 0.0
H1647 H 0.49435 0.81335 0.35281 0.0
C1648 C 0.65823 0.5403 0.99301 0.0
C1649 C 0.64965 0.52833 0.0405 0.0
C1650 C 0.66004 0.53697 0.91561 0.0
C1651 C 0.65281 0.52143 0.88446 0.0
C1652 C 0.64399 0.50936 0.9321 0.0
C1653 C 0.64268 0.51287 1.00962 0.0
C1654 C 0.66986 0.55001 0.86729 0.0
C1655 C 0.63581 0.4928 0.90107 0.0
C1656 C 0.64386 0.52073 0.67344 0.0
C1657 C 0.65788 0.51054 0.64653 0.0
C1658 C 0.64196 0.52426 0.75067 0.0
C1659 C 0.65459 0.51776 0.80219 0.0
C1660 C 0.66896 0.50773 0.77502 0.0
C1661 C 0.67031 0.50408 0.69768 0.0
C1662 C 0.62627 0.53472 0.7772 0.0
C1663 C 0.68293 0.50088 0.82766 0.0
H1664 H 0.66385 0.55214 0.0168 0.0
H1665 H 0.6359 0.50368 0.04605 0.0
H1666 H 0.68109 0.54341 0.8392 0.0
H1667 H 0.66112 0.5551 0.82242 0.0
H1668 H 0.67494 0.56131 0.90032 0.0
H1669 H 0.62905 0.48498 0.9452 0.0
H1670 H 0.62615 0.49618 0.85663 0.0
H1671 H 0.64606 0.48448 0.87462 0.0
H1672 H 0.6341 0.52553 0.63413 0.0
H1673 H 0.68121 0.49632 0.67689 0.0
H1674 H 0.63071 0.54676 0.80674 0.0
H1675 H 0.61855 0.52685 0.8181 0.0
H1676 H 0.6175 0.53862 0.7301 0.0
H1677 H 0.68887 0.51193 0.85942 0.0
H1678 H 0.69353 0.49375 0.79738 0.0
H1679 H 0.67695 0.49184 0.8694 0.0
C1680 C 0.98518 0.82524 0.34024 0.0
C1681 C 0.977 0.83645 0.39214 0.0
C1682 C 0.98122 0.82616 0.26321 0.0
C1683 C 0.96897 0.83879 0.23719 0.0
C1684 C 0.9607 0.85019 0.28937 0.0
C1685 C 0.96471 0.84878 0.36627 0.0
C1686 C 0.99008 0.81354 0.20969 0.0
C1687 C 0.94775 0.86399 0.26391 0.0
C1688 C 0.97173 0.85116 0.03008 0.0
C1689 C 0.95778 0.84151 0.99935 0.0
C1690 C 0.97531 0.85067 0.10759 0.0
C1691 C 0.96486 0.84003 0.15535 0.0
C1692 C 0.95076 0.83024 0.12455 0.0
C1693 C 0.94731 0.83121 0.04705 0.0
C1694 C 0.99029 0.86152 0.13835 0.0
C1695 C 0.93951 0.8185 0.17325 0.0
H1696 H 0.99451 0.81556 0.36018 0.0
H1697 H 0.9585 0.85759 0.40612 0.0
H1698 H 0.98003 0.80585 0.17867 0.0
H1699 H -0.00218 0.82095 0.16739 0.0
H1700 H -0.00101 0.80425 0.23913 0.0
H1701 H 0.94262 0.87196 0.3115 0.0
H1702 H 0.95411 0.87293 0.2228 0.0
H1703 H 0.93649 0.85767 0.23494 0.0
H1704 H 0.97971 0.85927 0.99344 0.0
H1705 H 0.93666 0.82356 0.02337 0.0
H1706 H 0.00029 0.85279 0.16409 0.0
H1707 H 0.98541 0.8704 0.18328 0.0
H1708 H -0.00325 0.86958 0.0942 0.0
H1709 H 0.94782 0.80833 0.20036 0.0
H1710 H 0.92898 0.81183 0.1407 0.0
H1711 H 0.93333 0.82629 0.21888 0.0
C1712 C 0.65106 -0.00452 0.79389 0.0
C1713 C 0.65791 0.98294 0.8436 0.0
C1714 C 0.64938 0.99186 0.71681 0.0
C1715 C 0.6551 0.97545 0.68835 0.0
C1716 C 0.66219 0.96277 0.73831 0.0
C1717 C 0.66328 0.96659 0.81559 0.0
C1718 C 0.6413 0.00555 0.66597 0.0
C1719 C 0.6688 0.94528 0.70998 0.0
C1720 C 0.63709 0.95961 0.5005 0.0
C1721 C 0.6503 0.96496 0.45057 0.0
C1722 C 0.63843 0.96302 0.57795 0.0
C1723 C 0.65358 0.97157 0.60635 0.0
C1724 C 0.66709 0.97675 0.55611 0.0
C1725 C 0.66516 0.9736 0.47865 0.0
C1726 C 0.62351 0.95772 0.62919 0.0
C1727 C 0.68363 0.98553 0.58423 0.0
H1728 H 0.64669 0.00803 0.81581 0.0
H1729 H 0.66869 0.95697 0.85404 0.0
H1730 H 0.6509 0.00959 0.62231 0.0
H1731 H 0.62975 -6e-05 0.63642 0.0
H1732 H 0.63704 0.01744 0.69734 0.0
H1733 H 0.67436 0.93705 0.75578 0.0
H1734 H 0.65794 0.93792 0.68279 0.0
H1735 H 0.6791 0.94738 0.66668 0.0
H1736 H 0.62553 0.95306 0.47852 0.0
H1737 H 0.67545 0.97755 0.43999 0.0
H1738 H 0.61836 0.96945 0.65908 0.0
H1739 H 0.6283 0.94841 0.67257 0.0
H1740 H 0.61253 0.95142 0.59806 0.0
H1741 H 0.68033 -0.00178 0.61151 0.0
H1742 H 0.6932 0.98806 0.53828 0.0
H1743 H 0.69002 0.97715 0.62737 0.0
C1744 C 0.51393 0.6424 0.0322 0.0
C1745 C 0.53029 0.64707 1.00189 0.0
C1746 C 0.5105 0.64422 0.10954 0.0
C1747 C 0.52368 0.65111 0.15755 0.0
C1748 C 0.54017 0.65597 0.12709 0.0
C1749 C 0.5433 0.6538 0.04981 0.0
C1750 C 0.49282 0.63868 0.13995 0.0
C1751 C 0.55447 0.6636 0.17606 0.0
C1752 C 0.50937 0.67097 0.34434 0.0
C1753 C 0.51366 0.65756 0.39518 0.0
C1754 C 0.51266 0.6691 0.26698 0.0
C1755 C 0.5202 0.65332 0.23959 0.0
C1756 C 0.52454 0.63971 0.2907 0.0
C1757 C 0.52132 0.64205 0.36787 0.0
C1758 C 0.50812 0.68403 0.21455 0.0
C1759 C 0.53242 0.62261 0.26382 0.0
H1760 H 0.50391 0.63705 0.9955 0.0
H1761 H 0.55587 0.65769 0.02653 0.0
H1762 H 0.49458 0.6285 0.18399 0.0
H1763 H 0.48619 0.65005 0.16677 0.0
H1764 H 0.48409 0.63334 0.09541 0.0
H1765 H 0.56651 0.66686 0.14356 0.0
H1766 H 0.54966 0.67572 0.20405 0.0
H1767 H 0.55802 0.65414 0.22101 0.0
H1768 H 0.50362 0.68304 0.36529 0.0
H1769 H 0.52443 0.63155 0.40682 0.0
H1770 H 0.49842 0.67954 0.17211 0.0
H1771 H 0.52003 0.68832 0.18359 0.0
H1772 H 0.50256 0.69553 0.24488 0.0
H1773 H 0.52343 0.61624 0.22294 0.0
H1774 H 0.53494 0.6133 0.31074 0.0
H1775 H 0.54499 0.62516 0.23417 0.0
C1776 C 0.85518 0.54227 0.5736 0.0
C1777 C 0.84342 0.53437 0.52329 0.0
C1778 C 0.85422 0.53888 0.65118 0.0
C1779 C 0.84084 0.5277 0.67923 0.0
C1780 C 0.82873 0.51993 0.62858 0.0
C1781 C 0.83033 0.52318 0.55108 0.0
C1782 C 0.86767 0.54704 0.70294 0.0
C1783 C 0.81403 0.50828 0.65629 0.0
C1784 C 0.84668 0.50502 0.86816 0.0
C1785 C 0.83721 0.51609 0.91643 0.0
C1786 C 0.84823 0.50882 0.79117 0.0
C1787 C 0.83972 0.52383 0.76133 0.0
C1788 C 0.83007 0.53503 0.80988 0.0
C1789 C 0.82913 0.53114 0.88711 0.0
C1790 C 0.85904 0.4968 0.74184 0.0
C1791 C 0.82051 0.55095 0.78007 0.0
H1792 H 0.86538 0.55082 0.55182 0.0
H1793 H 0.82111 0.51727 0.51214 0.0
H1794 H 0.86104 0.55535 0.74566 0.0
H1795 H 0.87485 0.53658 0.73366 0.0
H1796 H 0.87735 0.55525 0.67208 0.0
H1797 H 0.80528 0.50387 0.60998 0.0
H1798 H 0.81956 0.49651 0.68445 0.0
H1799 H 0.80602 0.51541 0.69861 0.0
H1800 H 0.85314 0.49352 0.89109 0.0
H1801 H 0.82173 0.53962 0.92445 0.0
H1802 H 0.86942 0.50446 0.71268 0.0
H1803 H 0.8506 0.49085 0.69783 0.0
H1804 H 0.86537 0.48606 0.77431 0.0
H1805 H 0.82995 0.56008 0.753 0.0
H1806 H 0.81336 0.55816 0.825 0.0
H1807 H 0.81093 0.54687 0.73634 0.0
loop_
_geom_bond_atom_site_label_1
_geom_bond_atom_site_label_2
_geom_bond_distance
_geom_bond_site_symmetry_2
_ccdc_geom_bond_type
Co0 N4 2.148 . S
Co0 N10 2.128 . S
Co0 N20 2.194 . S
Co0 O25 2.351 . S
Co0 O26 2.155 . S
Co0 O27 2.096 . S
C1 N4 1.301 . S
C1 N5 1.328 . S
C1 H6 0.930 . S
C2 C3 1.333 . S
C2 N4 1.317 . S
C2 H7 0.930 . S
C3 C2 1.333 . S
C3 N5 1.350 . S
C3 H29 0.931 . S
N4 Co0 2.148 . S
N4 C1 1.301 . S
N4 C2 1.317 . S
N5 C1 1.328 . S
N5 C3 1.350 . S
H6 C1 0.930 . S
H7 C2 0.930 . S
C8 O9 1.224 . S
C8 O27 1.247 . S
O9 C8 1.224 . S
N10 Co0 2.128 . S
N10 C11 1.355 1_554 S
N10 C13 1.311 1_554 S
C11 N10 1.355 1_556 S
C11 C12 1.363 . S
C11 H23 0.929 1_456 S
C12 C11 1.363 . S
C12 N14 1.375 . S
C12 H30 0.931 1_455 S
C13 N10 1.311 1_556 S
C13 N14 1.347 . S
C13 H24 0.929 . S
N14 C12 1.375 . S
N14 C13 1.347 . S
C15 C18 1.365 . S
C15 N20 1.328 1_655 S
C15 H21 0.929 . S
C16 C17 1.362 . S
C16 C19 1.378 1_655 S
C16 H31 0.929 . S
C17 C16 1.362 . S
C17 C18 1.366 . S
C18 C15 1.365 . S
C18 C17 1.366 . S
C18 H32 0.930 . S
C19 C16 1.378 1_455 S
C19 N20 1.315 . S
C19 H22 0.930 . S
N20 Co0 2.194 . S
N20 C15 1.328 1_455 S
N20 C19 1.315 . S
H21 C15 0.929 . S
H22 C19 0.930 . S
H23 C11 0.929 1_654 S
H24 C13 0.929 . S
O25 Co0 2.351 . S
O25 C28 1.244 . S
O26 Co0 2.155 . S
O26 C28 1.240 . S
O27 Co0 2.096 . S
O27 C8 1.247 . S
C28 O25 1.244 . S
C28 O26 1.240 . S
H29 C3 0.931 . S
H30 C12 0.931 1_655 S
H31 C16 0.929 . S
H32 C18 0.930 . S
Co33 N37 2.148 . S
Co33 N43 2.128 . S
Co33 N53 2.194 . S
Co33 O58 2.351 . S
Co33 O59 2.155 . S
Co33 O60 2.096 . S
C34 N37 1.301 . S
C34 N38 1.328 . S
C34 H39 0.930 . S
C35 C36 1.333 . S
C35 N37 1.317 . S
C35 H40 0.930 . S
C36 C35 1.333 . S
C36 N38 1.350 . S
C36 H62 0.931 . S
N37 Co33 2.148 . S
N37 C34 1.301 . S
N37 C35 1.317 . S
N38 C34 1.328 . S
N38 C36 1.350 . S
H39 C34 0.930 . S
H40 C35 0.930 . S
C41 O42 1.224 . S
C41 O60 1.247 . S
O42 C41 1.224 . S
N43 Co33 2.128 . S
N43 C44 1.355 . S
N43 C46 1.311 . S
C44 N43 1.355 . S
C44 C45 1.363 . S
C44 H56 0.929 1_545 S
C45 C44 1.363 . S
C45 N47 1.375 . S
C45 H63 0.931 1_545 S
C46 N43 1.311 . S
C46 N47 1.347 . S
C46 H57 0.929 . S
N47 C45 1.375 . S
N47 C46 1.347 . S
C48 C51 1.365 . S
C48 N53 1.328 1_565 S
C48 H54 0.929 . S
C49 C50 1.362 . S
C49 C52 1.378 1_565 S
C49 H64 0.929 . S
C50 C49 1.362 . S
C50 C51 1.366 . S
C51 C48 1.365 . S
C51 C50 1.366 . S
C51 H65 0.930 . S
C52 C49 1.378 1_545 S
C52 N53 1.315 . S
C52 H55 0.930 . S
N53 Co33 2.194 . S
N53 C48 1.328 1_545 S
N53 C52 1.315 . S
H54 C48 0.929 . S
H55 C52 0.930 . S
H56 C44 0.929 1_565 S
H57 C46 0.929 . S
O58 Co33 2.351 . S
O58 C61 1.244 . S
O59 Co33 2.155 . S
O59 C61 1.240 . S
O60 Co33 2.096 . S
O60 C41 1.247 . S
C61 O58 1.244 . S
C61 O59 1.240 . S
H62 C36 0.931 . S
H63 C45 0.931 1_565 S
H64 C49 0.929 . S
H65 C51 0.930 . S
Co66 N70 2.148 . S
Co66 N76 2.128 . S
Co66 N86 2.194 . S
Co66 O91 2.351 . S
Co66 O92 2.155 . S
Co66 O93 2.096 . S
C67 N70 1.301 . S
C67 N71 1.328 . S
C67 H72 0.930 . S
C68 C69 1.333 . S
C68 N70 1.317 . S
C68 H73 0.930 . S
C69 C68 1.333 . S
C69 N71 1.350 . S
C69 H95 0.931 . S
N70 Co66 2.148 . S
N70 C67 1.301 . S
N70 C68 1.317 . S
N71 C67 1.328 . S
N71 C69 1.350 . S
H72 C67 0.930 . S
H73 C68 0.930 . S
C74 O75 1.224 . S
C74 O93 1.247 . S
O75 C74 1.224 . S
N76 Co66 2.128 . S
N76 C77 1.355 1_554 S
N76 C79 1.311 1_554 S
C77 N76 1.355 1_556 S
C77 C78 1.363 . S
C77 H89 0.929 1_556 S
C78 C77 1.363 . S
C78 N80 1.375 . S
C78 H96 0.931 . S
C79 N76 1.311 1_556 S
C79 N80 1.347 . S
C79 H90 0.929 . S
N80 C78 1.375 . S
N80 C79 1.347 . S
C81 C84 1.365 . S
C81 N86 1.328 . S
C81 H87 0.929 . S
C82 C83 1.362 . S
C82 C85 1.378 . S
C82 H97 0.929 . S
C83 C82 1.362 . S
C83 C84 1.366 . S
C84 C81 1.365 . S
C84 C83 1.366 . S
C84 H98 0.930 . S
C85 C82 1.378 . S
C85 N86 1.315 . S
C85 H88 0.930 . S
N86 Co66 2.194 . S
N86 C81 1.328 . S
N86 C85 1.315 . S
H87 C81 0.929 . S
H88 C85 0.930 . S
H89 C77 0.929 1_554 S
H90 C79 0.929 . S
O91 Co66 2.351 . S
O91 C94 1.244 . S
O92 Co66 2.155 . S
O92 C94 1.240 . S
O93 Co66 2.096 . S
O93 C74 1.247 . S
C94 O91 1.244 . S
C94 O92 1.240 . S
H95 C69 0.931 . S
H96 C78 0.931 . S
H97 C82 0.929 . S
H98 C84 0.930 . S
Co99 N103 2.148 . S
Co99 N109 2.128 . S
Co99 N119 2.194 . S
Co99 O124 2.351 . S
Co99 O125 2.155 . S
Co99 O126 2.096 . S
C100 N103 1.301 . S
C100 N104 1.328 . S
C100 H105 0.930 . S
C101 C102 1.333 . S
C101 N103 1.317 . S
C101 H106 0.930 . S
C102 C101 1.333 . S
C102 N104 1.350 . S
C102 H128 0.931 . S
N103 Co99 2.148 . S
N103 C100 1.301 . S
N103 C101 1.317 . S
N104 C100 1.328 . S
N104 C102 1.350 . S
H105 C100 0.930 . S
H106 C101 0.930 . S
C107 O108 1.224 . S
C107 O126 1.247 . S
O108 C107 1.224 . S
N109 Co99 2.128 . S
N109 C110 1.355 . S
N109 C112 1.311 . S
C110 N109 1.355 . S
C110 C111 1.363 . S
C110 H122 0.929 . S
C111 C110 1.363 . S
C111 N113 1.375 . S
C111 H129 0.931 . S
C112 N109 1.311 . S
C112 N113 1.347 . S
C112 H123 0.929 . S
N113 C111 1.375 . S
N113 C112 1.347 . S
C114 C117 1.365 . S
C114 N119 1.328 . S
C114 H120 0.929 . S
C115 C116 1.362 . S
C115 C118 1.378 . S
C115 H130 0.929 . S
C116 C115 1.362 . S
C116 C117 1.366 . S
C117 C114 1.365 . S
C117 C116 1.366 . S
C117 H131 0.930 . S
C118 C115 1.378 . S
C118 N119 1.315 . S
C118 H121 0.930 . S
N119 Co99 2.194 . S
N119 C114 1.328 . S
N119 C118 1.315 . S
H120 C114 0.929 . S
H121 C118 0.930 . S
H122 C110 0.929 . S
H123 C112 0.929 . S
O124 Co99 2.351 . S
O124 C127 1.244 . S
O125 Co99 2.155 . S
O125 C127 1.240 . S
O126 Co99 2.096 . S
O126 C107 1.247 . S
C127 O124 1.244 . S
C127 O125 1.240 . S
H128 C102 0.931 . S
H129 C111 0.931 . S
H130 C115 0.929 . S
H131 C117 0.930 . S
Co132 N136 2.148 . S
Co132 N142 2.128 . S
Co132 N152 2.194 . S
Co132 O157 2.351 . S
Co132 O158 2.155 . S
Co132 O159 2.096 . S
C133 N136 1.301 . S
C133 N137 1.328 . S
C133 H138 0.930 . S
C134 C135 1.333 . S
C134 N136 1.317 . S
C134 H139 0.930 . S
C135 C134 1.333 . S
C135 N137 1.350 . S
C135 H161 0.931 . S
N136 Co132 2.148 . S
N136 C133 1.301 . S
N136 C134 1.317 . S
N137 C133 1.328 . S
N137 C135 1.350 . S
H138 C133 0.930 . S
H139 C134 0.930 . S
C140 O141 1.224 . S
C140 O159 1.247 . S
O141 C140 1.224 . S
N142 Co132 2.128 . S
N142 C143 1.355 . S
N142 C145 1.311 . S
C143 N142 1.355 . S
C143 C144 1.363 . S
C143 H155 0.929 1_455 S
C144 C143 1.363 . S
C144 N146 1.375 . S
C144 H162 0.931 1_455 S
C145 N142 1.311 . S
C145 N146 1.347 . S
C145 H156 0.929 . S
N146 C144 1.375 . S
N146 C145 1.347 . S
C147 C150 1.365 . S
C147 N152 1.328 1_655 S
C147 H153 0.929 . S
C148 C149 1.362 . S
C148 C151 1.378 1_655 S
C148 H163 0.929 . S
C149 C148 1.362 . S
C149 C150 1.366 . S
C150 C147 1.365 . S
C150 C149 1.366 . S
C150 H164 0.930 . S
C151 C148 1.378 1_455 S
C151 N152 1.315 . S
C151 H154 0.930 . S
N152 Co132 2.194 . S
N152 C147 1.328 1_455 S
N152 C151 1.315 . S
H153 C147 0.929 . S
H154 C151 0.930 . S
H155 C143 0.929 1_655 S
H156 C145 0.929 . S
O157 Co132 2.351 . S
O157 C160 1.244 . S
O158 Co132 2.155 . S
O158 C160 1.240 . S
O159 Co132 2.096 . S
O159 C140 1.247 . S
C160 O157 1.244 . S
C160 O158 1.240 . S
H161 C135 0.931 . S
H162 C144 0.931 1_655 S
H163 C148 0.929 . S
H164 C150 0.930 . S
Co165 N169 2.148 . S
Co165 N175 2.128 . S
Co165 N185 2.194 . S
Co165 O190 2.351 . S
Co165 O191 2.155 . S
Co165 O192 2.096 . S
C166 N169 1.301 . S
C166 N170 1.328 . S
C166 H171 0.930 . S
C167 C168 1.333 . S
C167 N169 1.317 . S
C167 H172 0.930 . S
C168 C167 1.333 . S
C168 N170 1.350 . S
C168 H194 0.931 . S
N169 Co165 2.148 . S
N169 C166 1.301 . S
N169 C167 1.317 . S
N170 C166 1.328 . S
N170 C168 1.350 . S
H171 C166 0.930 . S
H172 C167 0.930 . S
C173 O174 1.224 . S
C173 O192 1.247 . S
O174 C173 1.224 . S
N175 Co165 2.128 . S
N175 C176 1.355 1_556 S
N175 C178 1.311 1_556 S
C176 N175 1.355 1_554 S
C176 C177 1.363 . S
C176 H188 0.929 1_544 S
C177 C176 1.363 . S
C177 N179 1.375 . S
C177 H195 0.931 1_545 S
C178 N175 1.311 1_554 S
C178 N179 1.347 . S
C178 H189 0.929 . S
N179 C177 1.375 . S
N179 C178 1.347 . S
C180 C183 1.365 . S
C180 N185 1.328 1_565 S
C180 H186 0.929 . S
C181 C182 1.362 . S
C181 C184 1.378 1_565 S
C181 H196 0.929 . S
C182 C181 1.362 . S
C182 C183 1.366 . S
C183 C180 1.365 . S
C183 C182 1.366 . S
C183 H197 0.930 . S
C184 C181 1.378 1_545 S
C184 N185 1.315 . S
C184 H187 0.930 . S
N185 Co165 2.194 . S
N185 C180 1.328 1_545 S
N185 C184 1.315 . S
H186 C180 0.929 . S
H187 C184 0.930 . S
H188 C176 0.929 1_566 S
H189 C178 0.929 . S
O190 Co165 2.351 . S
O190 C193 1.244 . S
O191 Co165 2.155 . S
O191 C193 1.240 . S
O192 Co165 2.096 . S
O192 C173 1.247 . S
C193 O190 1.244 . S
C193 O191 1.240 . S
H194 C168 0.931 . S
H195 C177 0.931 1_565 S
H196 C181 0.929 . S
H197 C183 0.930 . S
Co198 N202 2.148 . S
Co198 N208 2.128 . S
Co198 N218 2.194 . S
Co198 O223 2.351 . S
Co198 O224 2.155 . S
Co198 O225 2.096 . S
C199 N202 1.301 . S
C199 N203 1.328 . S
C199 H204 0.930 . S
C200 C201 1.333 . S
C200 N202 1.317 . S
C200 H205 0.930 . S
C201 C200 1.333 . S
C201 N203 1.350 . S
C201 H227 0.931 . S
N202 Co198 2.148 . S
N202 C199 1.301 . S
N202 C200 1.317 . S
N203 C199 1.328 . S
N203 C201 1.350 . S
H204 C199 0.930 . S
H205 C200 0.930 . S
C206 O207 1.224 . S
C206 O225 1.247 . S
O207 C206 1.224 . S
N208 Co198 2.128 . S
N208 C209 1.355 . S
N208 C211 1.311 . S
C209 N208 1.355 . S
C209 C210 1.363 . S
C209 H221 0.929 . S
C210 C209 1.363 . S
C210 N212 1.375 . S
C210 H228 0.931 . S
C211 N208 1.311 . S
C211 N212 1.347 . S
C211 H222 0.929 . S
N212 C210 1.375 . S
N212 C211 1.347 . S
C213 C216 1.365 . S
C213 N218 1.328 . S
C213 H219 0.929 . S
C214 C215 1.362 . S
C214 C217 1.378 . S
C214 H229 0.929 . S
C215 C214 1.362 . S
C215 C216 1.366 . S
C216 C213 1.365 . S
C216 C215 1.366 . S
C216 H230 0.930 . S
C217 C214 1.378 . S
C217 N218 1.315 . S
C217 H220 0.930 . S
N218 Co198 2.194 . S
N218 C213 1.328 . S
N218 C217 1.315 . S
H219 C213 0.929 . S
H220 C217 0.930 . S
H221 C209 0.929 . S
H222 C211 0.929 . S
O223 Co198 2.351 . S
O223 C226 1.244 . S
O224 Co198 2.155 . S
O224 C226 1.240 . S
O225 Co198 2.096 . S
O225 C206 1.247 . S
C226 O223 1.244 . S
C226 O224 1.240 . S
H227 C201 0.931 . S
H228 C210 0.931 . S
H229 C214 0.929 . S
H230 C216 0.930 . S
Co231 N235 2.148 . S
Co231 N241 2.128 . S
Co231 N251 2.194 . S
Co231 O256 2.351 . S
Co231 O257 2.155 . S
Co231 O258 2.096 . S
C232 N235 1.301 . S
C232 N236 1.328 . S
C232 H237 0.930 . S
C233 C234 1.333 . S
C233 N235 1.317 . S
C233 H238 0.930 . S
C234 C233 1.333 . S
C234 N236 1.350 . S
C234 H260 0.931 . S
N235 Co231 2.148 . S
N235 C232 1.301 . S
N235 C233 1.317 . S
N236 C232 1.328 . S
N236 C234 1.350 . S
H237 C232 0.930 . S
H238 C233 0.930 . S
C239 O240 1.224 . S
C239 O258 1.247 . S
O240 C239 1.224 . S
N241 Co231 2.128 . S
N241 C242 1.355 1_556 S
N241 C244 1.311 1_556 S
C242 N241 1.355 1_554 S
C242 C243 1.363 . S
C242 H254 0.929 1_554 S
C243 C242 1.363 . S
C243 N245 1.375 . S
C243 H261 0.931 . S
C244 N241 1.311 1_554 S
C244 N245 1.347 . S
C244 H255 0.929 . S
N245 C243 1.375 . S
N245 C244 1.347 . S
C246 C249 1.365 . S
C246 N251 1.328 . S
C246 H252 0.929 . S
C247 C248 1.362 . S
C247 C250 1.378 . S
C247 H262 0.929 . S
C248 C247 1.362 . S
C248 C249 1.366 . S
C249 C246 1.365 . S
C249 C248 1.366 . S
C249 H263 0.930 . S
C250 C247 1.378 . S
C250 N251 1.315 . S
C250 H253 0.930 . S
N251 Co231 2.194 . S
N251 C246 1.328 . S
N251 C250 1.315 . S
H252 C246 0.929 . S
H253 C250 0.930 . S
H254 C242 0.929 1_556 S
H255 C244 0.929 . S
O256 Co231 2.351 . S
O256 C259 1.244 . S
O257 Co231 2.155 . S
O257 C259 1.240 . S
O258 Co231 2.096 . S
O258 C239 1.247 . S
C259 O256 1.244 . S
C259 O257 1.240 . S
H260 C234 0.931 . S
H261 C243 0.931 . S
H262 C247 0.929 . S
H263 C249 0.930 . S
Co264 N268 2.148 . S
Co264 N274 2.128 . S
Co264 N284 2.194 . S
Co264 O289 2.351 . S
Co264 O290 2.155 . S
Co264 O291 2.096 . S
C265 N268 1.301 . S
C265 N269 1.328 . S
C265 H270 0.930 . S
C266 C267 1.333 . S
C266 N268 1.317 . S
C266 H271 0.930 . S
C267 C266 1.333 . S
C267 N269 1.350 . S
C267 H293 0.931 . S
N268 Co264 2.148 . S
N268 C265 1.301 . S
N268 C266 1.317 . S
N269 C265 1.328 . S
N269 C267 1.350 . S
H270 C265 0.930 . S
H271 C266 0.930 . S
C272 O273 1.224 . S
C272 O291 1.247 . S
O273 C272 1.224 . S
N274 Co264 2.128 . S
N274 C275 1.355 1_556 S
N274 C277 1.311 1_556 S
C275 N274 1.355 1_554 S
C275 C276 1.363 . S
C275 H287 0.929 1_654 S
C276 C275 1.363 . S
C276 N278 1.375 . S
C276 H294 0.931 1_655 S
C277 N274 1.311 1_554 S
C277 N278 1.347 . S
C277 H288 0.929 . S
N278 C276 1.375 . S
N278 C277 1.347 . S
C279 C282 1.365 . S
C279 N284 1.328 1_455 S
C279 H285 0.929 . S
C280 C281 1.362 . S
C280 C283 1.378 1_455 S
C280 H295 0.929 . S
C281 C280 1.362 . S
C281 C282 1.366 . S
C282 C279 1.365 . S
C282 C281 1.366 . S
C282 H296 0.930 . S
C283 C280 1.378 1_655 S
C283 N284 1.315 . S
C283 H286 0.930 . S
N284 Co264 2.194 . S
N284 C279 1.328 1_655 S
N284 C283 1.315 . S
H285 C279 0.929 . S
H286 C283 0.930 . S
H287 C275 0.929 1_456 S
H288 C277 0.929 . S
O289 Co264 2.351 . S
O289 C292 1.244 . S
O290 Co264 2.155 . S
O290 C292 1.240 . S
O291 Co264 2.096 . S
O291 C272 1.247 . S
C292 O289 1.244 . S
C292 O290 1.240 . S
H293 C267 0.931 . S
H294 C276 0.931 1_455 S
H295 C280 0.929 . S
H296 C282 0.930 . S
Co297 N301 2.148 . S
Co297 N307 2.128 . S
Co297 N317 2.194 . S
Co297 O322 2.351 . S
Co297 O323 2.155 . S
Co297 O324 2.096 . S
C298 N301 1.301 . S
C298 N302 1.328 . S
C298 H303 0.930 . S
C299 C300 1.333 . S
C299 N301 1.317 . S
C299 H304 0.930 . S
C300 C299 1.333 . S
C300 N302 1.350 . S
C300 H326 0.931 . S
N301 Co297 2.148 . S
N301 C298 1.301 . S
N301 C299 1.317 . S
N302 C298 1.328 . S
N302 C300 1.350 . S
H303 C298 0.930 . S
H304 C299 0.930 . S
C305 O306 1.224 . S
C305 O324 1.247 . S
O306 C305 1.224 . S
N307 Co297 2.128 . S
N307 C308 1.355 . S
N307 C310 1.311 . S
C308 N307 1.355 . S
C308 C309 1.363 . S
C308 H320 0.929 1_565 S
C309 C308 1.363 . S
C309 N311 1.375 . S
C309 H327 0.931 1_565 S
C310 N307 1.311 . S
C310 N311 1.347 . S
C310 H321 0.929 . S
N311 C309 1.375 . S
N311 C310 1.347 . S
C312 C315 1.365 . S
C312 N317 1.328 1_545 S
C312 H318 0.929 . S
C313 C314 1.362 . S
C313 C316 1.378 1_545 S
C313 H328 0.929 . S
C314 C313 1.362 . S
C314 C315 1.366 . S
C315 C312 1.365 . S
C315 C314 1.366 . S
C315 H329 0.930 . S
C316 C313 1.378 1_565 S
C316 N317 1.315 . S
C316 H319 0.930 . S
N317 Co297 2.194 . S
N317 C312 1.328 1_565 S
N317 C316 1.315 . S
H318 C312 0.929 . S
H319 C316 0.930 . S
H320 C308 0.929 1_545 S
H321 C310 0.929 . S
O322 Co297 2.351 . S
O322 C325 1.244 . S
O323 Co297 2.155 . S
O323 C325 1.240 . S
O324 Co297 2.096 . S
O324 C305 1.247 . S
C325 O322 1.244 . S
C325 O323 1.240 . S
H326 C300 0.931 . S
H327 C309 0.931 1_545 S
H328 C313 0.929 . S
H329 C315 0.930 . S
Co330 N334 2.148 . S
Co330 N340 2.128 . S
Co330 N350 2.194 . S
Co330 O355 2.351 . S
Co330 O356 2.155 . S
Co330 O357 2.096 . S
C331 N334 1.301 . S
C331 N335 1.328 . S
C331 H336 0.930 . S
C332 C333 1.333 . S
C332 N334 1.317 . S
C332 H337 0.930 . S
C333 C332 1.333 . S
C333 N335 1.350 . S
C333 H359 0.931 . S
N334 Co330 2.148 . S
N334 C331 1.301 . S
N334 C332 1.317 . S
N335 C331 1.328 . S
N335 C333 1.350 . S
H336 C331 0.930 . S
H337 C332 0.930 . S
C338 O339 1.224 . S
C338 O357 1.247 . S
O339 C338 1.224 . S
N340 Co330 2.128 . S
N340 C341 1.355 1_556 S
N340 C343 1.311 1_556 S
C341 N340 1.355 1_554 S
C341 C342 1.363 . S
C341 H353 0.929 1_554 S
C342 C341 1.363 . S
C342 N344 1.375 . S
C342 H360 0.931 . S
C343 N340 1.311 1_554 S
C343 N344 1.347 . S
C343 H354 0.929 . S
N344 C342 1.375 . S
N344 C343 1.347 . S
C345 C348 1.365 . S
C345 N350 1.328 . S
C345 H351 0.929 . S
C346 C347 1.362 . S
C346 C349 1.378 . S
C346 H361 0.929 . S
C347 C346 1.362 . S
C347 C348 1.366 . S
C348 C345 1.365 . S
C348 C347 1.366 . S
C348 H362 0.930 . S
C349 C346 1.378 . S
C349 N350 1.315 . S
C349 H352 0.930 . S
N350 Co330 2.194 . S
N350 C345 1.328 . S
N350 C349 1.315 . S
H351 C345 0.929 . S
H352 C349 0.930 . S
H353 C341 0.929 1_556 S
H354 C343 0.929 . S
O355 Co330 2.351 . S
O355 C358 1.244 . S
O356 Co330 2.155 . S
O356 C358 1.240 . S
O357 Co330 2.096 . S
O357 C338 1.247 . S
C358 O355 1.244 . S
C358 O356 1.240 . S
H359 C333 0.931 . S
H360 C342 0.931 . S
H361 C346 0.929 . S
H362 C348 0.930 . S
Co363 N367 2.148 . S
Co363 N373 2.128 . S
Co363 N383 2.194 . S
Co363 O388 2.351 . S
Co363 O389 2.155 . S
Co363 O390 2.096 . S
C364 N367 1.301 . S
C364 N368 1.328 . S
C364 H369 0.930 . S
C365 C366 1.333 . S
C365 N367 1.317 . S
C365 H370 0.930 . S
C366 C365 1.333 . S
C366 N368 1.350 . S
C366 H392 0.931 . S
N367 Co363 2.148 . S
N367 C364 1.301 . S
N367 C365 1.317 . S
N368 C364 1.328 . S
N368 C366 1.350 . S
H369 C364 0.930 . S
H370 C365 0.930 . S
C371 O372 1.224 . S
C371 O390 1.247 . S
O372 C371 1.224 . S
N373 Co363 2.128 . S
N373 C374 1.355 . S
N373 C376 1.311 . S
C374 N373 1.355 . S
C374 C375 1.363 . S
C374 H386 0.929 . S
C375 C374 1.363 . S
C375 N377 1.375 . S
C375 H393 0.931 . S
C376 N373 1.311 . S
C376 N377 1.347 . S
C376 H387 0.929 . S
N377 C375 1.375 . S
N377 C376 1.347 . S
C378 C381 1.365 . S
C378 N383 1.328 . S
C378 H384 0.929 . S
C379 C380 1.362 . S
C379 C382 1.378 . S
C379 H394 0.929 . S
C380 C379 1.362 . S
C380 C381 1.366 . S
C381 C378 1.365 . S
C381 C380 1.366 . S
C381 H395 0.930 . S
C382 C379 1.378 . S
C382 N383 1.315 . S
C382 H385 0.930 . S
N383 Co363 2.194 . S
N383 C378 1.328 . S
N383 C382 1.315 . S
H384 C378 0.929 . S
H385 C382 0.930 . S
H386 C374 0.929 . S
H387 C376 0.929 . S
O388 Co363 2.351 . S
O388 C391 1.244 . S
O389 Co363 2.155 . S
O389 C391 1.240 . S
O390 Co363 2.096 . S
O390 C371 1.247 . S
C391 O388 1.244 . S
C391 O389 1.240 . S
H392 C366 0.931 . S
H393 C375 0.931 . S
H394 C379 0.929 . S
H395 C381 0.930 . S
Co396 N400 2.148 . S
Co396 N406 2.128 . S
Co396 N416 2.194 . S
Co396 O421 2.351 . S
Co396 O422 2.155 . S
Co396 O423 2.096 . S
C397 N400 1.301 . S
C397 N401 1.328 . S
C397 H402 0.930 . S
C398 C399 1.333 . S
C398 N400 1.317 . S
C398 H403 0.930 . S
C399 C398 1.333 . S
C399 N401 1.350 . S
C399 H425 0.931 . S
N400 Co396 2.148 . S
N400 C397 1.301 . S
N400 C398 1.317 . S
N401 C397 1.328 . S
N401 C399 1.350 . S
H402 C397 0.930 . S
H403 C398 0.930 . S
C404 O405 1.224 . S
C404 O423 1.247 . S
O405 C404 1.224 . S
N406 Co396 2.128 . S
N406 C407 1.355 . S
N406 C409 1.311 . S
C407 N406 1.355 . S
C407 C408 1.363 . S
C407 H419 0.929 1_655 S
C408 C407 1.363 . S
C408 N410 1.375 . S
C408 H426 0.931 1_655 S
C409 N406 1.311 . S
C409 N410 1.347 . S
C409 H420 0.929 . S
N410 C408 1.375 . S
N410 C409 1.347 . S
C411 C414 1.365 . S
C411 N416 1.328 1_455 S
C411 H417 0.929 . S
C412 C413 1.362 . S
C412 C415 1.378 1_455 S
C412 H427 0.929 . S
C413 C412 1.362 . S
C413 C414 1.366 . S
C414 C411 1.365 . S
C414 C413 1.366 . S
C414 H428 0.930 . S
C415 C412 1.378 1_655 S
C415 N416 1.315 . S
C415 H418 0.930 . S
N416 Co396 2.194 . S
N416 C411 1.328 1_655 S
N416 C415 1.315 . S
H417 C411 0.929 . S
H418 C415 0.930 . S
H419 C407 0.929 1_455 S
H420 C409 0.929 . S
O421 Co396 2.351 . S
O421 C424 1.244 . S
O422 Co396 2.155 . S
O422 C424 1.240 . S
O423 Co396 2.096 . S
O423 C404 1.247 . S
C424 O421 1.244 . S
C424 O422 1.240 . S
H425 C399 0.931 . S
H426 C408 0.931 1_455 S
H427 C412 0.929 . S
H428 C414 0.930 . S
Co429 N433 2.148 . S
Co429 N439 2.128 . S
Co429 N449 2.194 . S
Co429 O454 2.351 . S
Co429 O455 2.155 . S
Co429 O456 2.096 . S
C430 N433 1.301 . S
C430 N434 1.328 . S
C430 H435 0.930 . S
C431 C432 1.333 . S
C431 N433 1.317 . S
C431 H436 0.930 . S
C432 C431 1.333 . S
C432 N434 1.350 . S
C432 H458 0.931 . S
N433 Co429 2.148 . S
N433 C430 1.301 . S
N433 C431 1.317 . S
N434 C430 1.328 . S
N434 C432 1.350 . S
H435 C430 0.930 . S
H436 C431 0.930 . S
C437 O438 1.224 . S
C437 O456 1.247 . S
O438 C437 1.224 . S
N439 Co429 2.128 . S
N439 C440 1.355 1_554 S
N439 C442 1.311 1_554 S
C440 N439 1.355 1_556 S
C440 C441 1.363 . S
C440 H452 0.929 1_566 S
C441 C440 1.363 . S
C441 N443 1.375 . S
C441 H459 0.931 1_565 S
C442 N439 1.311 1_556 S
C442 N443 1.347 . S
C442 H453 0.929 . S
N443 C441 1.375 . S
N443 C442 1.347 . S
C444 C447 1.365 . S
C444 N449 1.328 1_545 S
C444 H450 0.929 . S
C445 C446 1.362 . S
C445 C448 1.378 1_545 S
C445 H460 0.929 . S
C446 C445 1.362 . S
C446 C447 1.366 . S
C447 C444 1.365 . S
C447 C446 1.366 . S
C447 H461 0.930 . S
C448 C445 1.378 1_565 S
C448 N449 1.315 . S
C448 H451 0.930 . S
N449 Co429 2.194 . S
N449 C444 1.328 1_565 S
N449 C448 1.315 . S
H450 C444 0.929 . S
H451 C448 0.930 . S
H452 C440 0.929 1_544 S
H453 C442 0.929 . S
O454 Co429 2.351 . S
O454 C457 1.244 . S
O455 Co429 2.155 . S
O455 C457 1.240 . S
O456 Co429 2.096 . S
O456 C437 1.247 . S
C457 O454 1.244 . S
C457 O455 1.240 . S
H458 C432 0.931 . S
H459 C441 0.931 1_545 S
H460 C445 0.929 . S
H461 C447 0.930 . S
Co462 N466 2.148 . S
Co462 N472 2.128 . S
Co462 N482 2.194 . S
Co462 O487 2.351 . S
Co462 O488 2.155 . S
Co462 O489 2.096 . S
C463 N466 1.301 . S
C463 N467 1.328 . S
C463 H468 0.930 . S
C464 C465 1.333 . S
C464 N466 1.317 . S
C464 H469 0.930 . S
C465 C464 1.333 . S
C465 N467 1.350 . S
C465 H491 0.931 . S
N466 Co462 2.148 . S
N466 C463 1.301 . S
N466 C464 1.317 . S
N467 C463 1.328 . S
N467 C465 1.350 . S
H468 C463 0.930 . S
H469 C464 0.930 . S
C470 O471 1.224 . S
C470 O489 1.247 . S
O471 C470 1.224 . S
N472 Co462 2.128 . S
N472 C473 1.355 . S
N472 C475 1.311 . S
C473 N472 1.355 . S
C473 C474 1.363 . S
C473 H485 0.929 . S
C474 C473 1.363 . S
C474 N476 1.375 . S
C474 H492 0.931 . S
C475 N472 1.311 . S
C475 N476 1.347 . S
C475 H486 0.929 . S
N476 C474 1.375 . S
N476 C475 1.347 . S
C477 C480 1.365 . S
C477 N482 1.328 . S
C477 H483 0.929 . S
C478 C479 1.362 . S
C478 C481 1.378 . S
C478 H493 0.929 . S
C479 C478 1.362 . S
C479 C480 1.366 . S
C480 C477 1.365 . S
C480 C479 1.366 . S
C480 H494 0.930 . S
C481 C478 1.378 . S
C481 N482 1.315 . S
C481 H484 0.930 . S
N482 Co462 2.194 . S
N482 C477 1.328 . S
N482 C481 1.315 . S
H483 C477 0.929 . S
H484 C481 0.930 . S
H485 C473 0.929 . S
H486 C475 0.929 . S
O487 Co462 2.351 . S
O487 C490 1.244 . S
O488 Co462 2.155 . S
O488 C490 1.240 . S
O489 Co462 2.096 . S
O489 C470 1.247 . S
C490 O487 1.244 . S
C490 O488 1.240 . S
H491 C465 0.931 . S
H492 C474 0.931 . S
H493 C478 0.929 . S
H494 C480 0.930 . S
Co495 N499 2.148 . S
Co495 N505 2.128 . S
Co495 N515 2.194 . S
Co495 O520 2.351 . S
Co495 O521 2.155 . S
Co495 O522 2.096 . S
C496 N499 1.301 . S
C496 N500 1.328 . S
C496 H501 0.930 . S
C497 C498 1.333 . S
C497 N499 1.317 . S
C497 H502 0.930 . S
C498 C497 1.333 . S
C498 N500 1.350 . S
C498 H524 0.931 . S
N499 Co495 2.148 . S
N499 C496 1.301 . S
N499 C497 1.317 . S
N500 C496 1.328 . S
N500 C498 1.350 . S
H501 C496 0.930 . S
H502 C497 0.930 . S
C503 O504 1.224 . S
C503 O522 1.247 . S
O504 C503 1.224 . S
N505 Co495 2.128 . S
N505 C506 1.355 1_554 S
N505 C508 1.311 1_554 S
C506 N505 1.355 1_556 S
C506 C507 1.363 . S
C506 H518 0.929 1_556 S
C507 C506 1.363 . S
C507 N509 1.375 . S
C507 H525 0.931 . S
C508 N505 1.311 1_556 S
C508 N509 1.347 . S
C508 H519 0.929 . S
N509 C507 1.375 . S
N509 C508 1.347 . S
C510 C513 1.365 . S
C510 N515 1.328 . S
C510 H516 0.929 . S
C511 C512 1.362 . S
C511 C514 1.378 . S
C511 H526 0.929 . S
C512 C511 1.362 . S
C512 C513 1.366 . S
C513 C510 1.365 . S
C513 C512 1.366 . S
C513 H527 0.930 . S
C514 C511 1.378 . S
C514 N515 1.315 . S
C514 H517 0.930 . S
N515 Co495 2.194 . S
N515 C510 1.328 . S
N515 C514 1.315 . S
H516 C510 0.929 . S
H517 C514 0.930 . S
H518 C506 0.929 1_554 S
H519 C508 0.929 . S
O520 Co495 2.351 . S
O520 C523 1.244 . S
O521 Co495 2.155 . S
O521 C523 1.240 . S
O522 Co495 2.096 . S
O522 C503 1.247 . S
C523 O520 1.244 . S
C523 O521 1.240 . S
H524 C498 0.931 . S
H525 C507 0.931 . S
H526 C511 0.929 . S
H527 C513 0.930 . S
C528 C529 1.391 . S
C528 C530 1.394 . S
C528 H544 0.931 . S
C529 C528 1.391 . S
C529 C533 1.376 . S
C530 C528 1.394 . S
C530 C531 1.369 . S
C530 C534 1.531 . S
C531 C530 1.369 . S
C531 C532 1.410 . S
C531 C539 1.503 . S
C532 C531 1.410 . S
C532 C533 1.392 . S
C532 C535 1.511 . S
C533 C529 1.376 . S
C533 C532 1.392 . S
C533 H545 0.929 . S
C534 C530 1.531 . S
C534 H546 0.960 . S
C534 H547 0.962 . S
C534 H548 0.960 . S
C535 C532 1.511 . S
C535 H549 0.961 . S
C535 H550 0.961 . S
C535 H551 0.961 . S
C536 C537 1.370 . S
C536 C538 1.363 . S
C536 H552 0.931 . S
C537 C536 1.370 . S
C537 C541 1.408 . S
C538 C536 1.363 . S
C538 C539 1.370 . S
C538 C542 1.524 . S
C539 C531 1.503 . S
C539 C538 1.370 . S
C539 C540 1.403 . S
C540 C539 1.403 . S
C540 C541 1.404 . S
C540 C543 1.539 . S
C541 C537 1.408 . S
C541 C540 1.404 . S
C541 H553 0.930 . S
C542 C538 1.524 . S
C542 H554 0.956 . S
C542 H555 0.961 . S
C542 H556 0.961 1_554 S
C543 C540 1.539 . S
C543 H557 0.958 . S
C543 H558 0.961 . S
C543 H559 0.960 . S
H544 C528 0.931 . S
H545 C533 0.929 . S
H546 C534 0.960 . S
H547 C534 0.962 . S
H548 C534 0.960 . S
H549 C535 0.961 . S
H550 C535 0.961 . S
H551 C535 0.961 . S
H552 C536 0.931 . S
H553 C541 0.930 . S
H554 C542 0.956 . S
H555 C542 0.961 . S
H556 C542 0.961 1_556 S
H557 C543 0.958 . S
H558 C543 0.961 . S
H559 C543 0.960 . S
C560 C561 1.391 . S
C560 C562 1.394 . S
C560 H576 0.931 . S
C561 C560 1.391 . S
C561 C565 1.376 . S
C562 C560 1.394 . S
C562 C563 1.369 . S
C562 C566 1.531 . S
C563 C562 1.369 . S
C563 C564 1.410 . S
C563 C571 1.503 . S
C564 C563 1.410 . S
C564 C565 1.392 . S
C564 C567 1.511 . S
C565 C561 1.376 . S
C565 C564 1.392 . S
C565 H577 0.929 . S
C566 C562 1.531 . S
C566 H578 0.960 . S
C566 H579 0.962 . S
C566 H580 0.960 . S
C567 C564 1.511 . S
C567 H581 0.961 . S
C567 H582 0.961 . S
C567 H583 0.961 . S
C568 C569 1.370 . S
C568 C570 1.363 . S
C568 H584 0.931 . S
C569 C568 1.370 . S
C569 C573 1.408 . S
C570 C568 1.363 . S
C570 C571 1.370 . S
C570 C574 1.524 . S
C571 C563 1.503 . S
C571 C570 1.370 . S
C571 C572 1.403 . S
C572 C571 1.403 . S
C572 C573 1.404 . S
C572 C575 1.539 . S
C573 C569 1.408 . S
C573 C572 1.404 . S
C573 H585 0.930 . S
C574 C570 1.524 . S
C574 H586 0.956 . S
C574 H587 0.961 . S
C574 H588 0.961 . S
C575 C572 1.539 . S
C575 H589 0.958 . S
C575 H590 0.961 . S
C575 H591 0.960 . S
H576 C560 0.931 . S
H577 C565 0.929 . S
H578 C566 0.960 . S
H579 C566 0.962 . S
H580 C566 0.960 . S
H581 C567 0.961 . S
H582 C567 0.961 . S
H583 C567 0.961 . S
H584 C568 0.931 . S
H585 C573 0.930 . S
H586 C574 0.956 . S
H587 C574 0.961 . S
H588 C574 0.961 . S
H589 C575 0.958 . S
H590 C575 0.961 . S
H591 C575 0.960 . S
C592 C593 1.391 . S
C592 C594 1.394 . S
C592 H608 0.931 . S
C593 C592 1.391 . S
C593 C597 1.376 . S
C594 C592 1.394 . S
C594 C595 1.369 . S
C594 C598 1.531 . S
C595 C594 1.369 . S
C595 C596 1.410 . S
C595 C603 1.503 . S
C596 C595 1.410 . S
C596 C597 1.392 . S
C596 C599 1.511 . S
C597 C593 1.376 . S
C597 C596 1.392 . S
C597 H609 0.929 . S
C598 C594 1.531 . S
C598 H610 0.960 . S
C598 H611 0.962 . S
C598 H612 0.960 . S
C599 C596 1.511 . S
C599 H613 0.961 1_554 S
C599 H614 0.961 . S
C599 H615 0.961 . S
C600 C601 1.370 . S
C600 C602 1.363 . S
C600 H616 0.931 . S
C601 C600 1.370 . S
C601 C605 1.408 . S
C602 C600 1.363 . S
C602 C603 1.370 . S
C602 C606 1.524 . S
C603 C595 1.503 . S
C603 C602 1.370 . S
C603 C604 1.403 . S
C604 C603 1.403 . S
C604 C605 1.404 . S
C604 C607 1.539 . S
C605 C601 1.408 . S
C605 C604 1.404 . S
C605 H617 0.930 . S
C606 C602 1.524 . S
C606 H618 0.956 . S
C606 H619 0.961 . S
C606 H620 0.961 . S
C607 C604 1.539 . S
C607 H621 0.958 . S
C607 H622 0.961 . S
C607 H623 0.960 . S
H608 C592 0.931 . S
H609 C597 0.929 . S
H610 C598 0.960 . S
H611 C598 0.962 . S
H612 C598 0.960 . S
H613 C599 0.961 1_556 S
H614 C599 0.961 . S
H615 C599 0.961 . S
H616 C600 0.931 . S
H617 C605 0.930 . S
H618 C606 0.956 . S
H619 C606 0.961 . S
H620 C606 0.961 . S
H621 C607 0.958 . S
H622 C607 0.961 . S
H623 C607 0.960 . S
C624 C625 1.391 . S
C624 C626 1.394 . S
C624 H640 0.931 . S
C625 C624 1.391 . S
C625 C629 1.376 . S
C626 C624 1.394 . S
C626 C627 1.369 . S
C626 C630 1.531 . S
C627 C626 1.369 . S
C627 C628 1.410 . S
C627 C635 1.503 . S
C628 C627 1.410 . S
C628 C629 1.392 . S
C628 C631 1.511 . S
C629 C625 1.376 . S
C629 C628 1.392 . S
C629 H641 0.929 . S
C630 C626 1.531 . S
C630 H642 0.960 . S
C630 H643 0.962 . S
C630 H644 0.960 . S
C631 C628 1.511 . S
C631 H645 0.961 . S
C631 H646 0.961 . S
C631 H647 0.961 . S
C632 C633 1.370 . S
C632 C634 1.363 . S
C632 H648 0.931 . S
C633 C632 1.370 . S
C633 C637 1.408 . S
C634 C632 1.363 . S
C634 C635 1.370 . S
C634 C638 1.524 . S
C635 C627 1.503 . S
C635 C634 1.370 . S
C635 C636 1.403 . S
C636 C635 1.403 . S
C636 C637 1.404 . S
C636 C639 1.539 . S
C637 C633 1.408 . S
C637 C636 1.404 . S
C637 H649 0.930 . S
C638 C634 1.524 . S
C638 H650 0.956 . S
C638 H651 0.961 . S
C638 H652 0.961 . S
C639 C636 1.539 . S
C639 H653 0.958 . S
C639 H654 0.961 . S
C639 H655 0.960 . S
H640 C624 0.931 . S
H641 C629 0.929 . S
H642 C630 0.960 . S
H643 C630 0.962 . S
H644 C630 0.960 . S
H645 C631 0.961 . S
H646 C631 0.961 . S
H647 C631 0.961 . S
H648 C632 0.931 . S
H649 C637 0.930 . S
H650 C638 0.956 . S
H651 C638 0.961 . S
H652 C638 0.961 . S
H653 C639 0.958 . S
H654 C639 0.961 . S
H655 C639 0.960 . S
C656 C657 1.391 . S
C656 C658 1.394 . S
C656 H672 0.931 . S
C657 C656 1.391 . S
C657 C661 1.376 . S
C658 C656 1.394 . S
C658 C659 1.369 . S
C658 C662 1.531 . S
C659 C658 1.369 . S
C659 C660 1.410 . S
C659 C667 1.503 . S
C660 C659 1.410 . S
C660 C661 1.392 . S
C660 C663 1.511 . S
C661 C657 1.376 . S
C661 C660 1.392 . S
C661 H673 0.929 . S
C662 C658 1.531 . S
C662 H674 0.960 . S
C662 H675 0.962 . S
C662 H676 0.960 . S
C663 C660 1.511 . S
C663 H677 0.961 . S
C663 H678 0.961 . S
C663 H679 0.961 . S
C664 C665 1.370 . S
C664 C666 1.363 . S
C664 H680 0.931 . S
C665 C664 1.370 . S
C665 C669 1.408 . S
C666 C664 1.363 . S
C666 C667 1.370 . S
C666 C670 1.524 . S
C667 C659 1.503 . S
C667 C666 1.370 . S
C667 C668 1.403 . S
C668 C667 1.403 . S
C668 C669 1.404 . S
C668 C671 1.539 . S
C669 C665 1.408 . S
C669 C668 1.404 . S
C669 H681 0.930 . S
C670 C666 1.524 . S
C670 H682 0.956 . S
C670 H683 0.961 . S
C670 H684 0.961 . S
C671 C668 1.539 . S
C671 H685 0.958 . S
C671 H686 0.961 . S
C671 H687 0.960 . S
H672 C656 0.931 . S
H673 C661 0.929 . S
H674 C662 0.960 . S
H675 C662 0.962 . S
H676 C662 0.960 . S
H677 C663 0.961 . S
H678 C663 0.961 . S
H679 C663 0.961 . S
H680 C664 0.931 . S
H681 C669 0.930 . S
H682 C670 0.956 . S
H683 C670 0.961 . S
H684 C670 0.961 . S
H685 C671 0.958 . S
H686 C671 0.961 . S
H687 C671 0.960 . S
C688 C689 1.391 . S
C688 C690 1.394 . S
C688 H704 0.931 . S
C689 C688 1.391 . S
C689 C693 1.376 . S
C690 C688 1.394 . S
C690 C691 1.369 . S
C690 C694 1.531 . S
C691 C690 1.369 . S
C691 C692 1.410 . S
C691 C699 1.503 . S
C692 C691 1.410 . S
C692 C693 1.392 . S
C692 C695 1.511 . S
C693 C689 1.376 . S
C693 C692 1.392 . S
C693 H705 0.929 . S
C694 C690 1.531 . S
C694 H706 0.960 . S
C694 H707 0.962 . S
C694 H708 0.960 . S
C695 C692 1.511 . S
C695 H709 0.961 . S
C695 H710 0.961 . S
C695 H711 0.961 . S
C696 C697 1.370 . S
C696 C698 1.363 . S
C696 H712 0.931 . S
C697 C696 1.370 . S
C697 C701 1.408 . S
C698 C696 1.363 . S
C698 C699 1.370 . S
C698 C702 1.524 . S
C699 C691 1.503 . S
C699 C698 1.370 . S
C699 C700 1.403 . S
C700 C699 1.403 . S
C700 C701 1.404 . S
C700 C703 1.539 . S
C701 C697 1.408 . S
C701 C700 1.404 . S
C701 H713 0.930 . S
C702 C698 1.524 . S
C702 H714 0.956 . S
C702 H715 0.961 . S
C702 H716 0.961 . S
C703 C700 1.539 . S
C703 H717 0.958 . S
C703 H718 0.961 . S
C703 H719 0.960 . S
H704 C688 0.931 . S
H705 C693 0.929 . S
H706 C694 0.960 . S
H707 C694 0.962 . S
H708 C694 0.960 . S
H709 C695 0.961 . S
H710 C695 0.961 . S
H711 C695 0.961 . S
H712 C696 0.931 . S
H713 C701 0.930 . S
H714 C702 0.956 . S
H715 C702 0.961 . S
H716 C702 0.961 . S
H717 C703 0.958 . S
H718 C703 0.961 . S
H719 C703 0.960 . S
C720 C721 1.391 . S
C720 C722 1.394 . S
C720 H736 0.931 . S
C721 C720 1.391 . S
C721 C725 1.376 . S
C722 C720 1.394 . S
C722 C723 1.369 . S
C722 C726 1.531 . S
C723 C722 1.369 . S
C723 C724 1.410 . S
C723 C731 1.503 . S
C724 C723 1.410 . S
C724 C725 1.392 . S
C724 C727 1.511 . S
C725 C721 1.376 . S
C725 C724 1.392 . S
C725 H737 0.929 . S
C726 C722 1.531 . S
C726 H738 0.960 . S
C726 H739 0.962 . S
C726 H740 0.960 . S
C727 C724 1.511 . S
C727 H741 0.961 . S
C727 H742 0.961 . S
C727 H743 0.961 . S
C728 C729 1.370 . S
C728 C730 1.363 . S
C728 H744 0.931 . S
C729 C728 1.370 . S
C729 C733 1.408 . S
C730 C728 1.363 . S
C730 C731 1.370 . S
C730 C734 1.524 . S
C731 C723 1.503 . S
C731 C730 1.370 . S
C731 C732 1.403 . S
C732 C731 1.403 . S
C732 C733 1.404 . S
C732 C735 1.539 . S
C733 C729 1.408 . S
C733 C732 1.404 . S
C733 H745 0.930 . S
C734 C730 1.524 . S
C734 H746 0.956 . S
C734 H747 0.961 . S
C734 H748 0.961 . S
C735 C732 1.539 . S
C735 H749 0.958 . S
C735 H750 0.961 . S
C735 H751 0.960 . S
H736 C720 0.931 . S
H737 C725 0.929 . S
H738 C726 0.960 . S
H739 C726 0.962 . S
H740 C726 0.960 . S
H741 C727 0.961 . S
H742 C727 0.961 . S
H743 C727 0.961 . S
H744 C728 0.931 . S
H745 C733 0.930 . S
H746 C734 0.956 . S
H747 C734 0.961 . S
H748 C734 0.961 . S
H749 C735 0.958 . S
H750 C735 0.961 . S
H751 C735 0.960 . S
C752 C753 1.391 . S
C752 C754 1.394 . S
C752 H768 0.931 . S
C753 C752 1.391 . S
C753 C757 1.376 . S
C754 C752 1.394 . S
C754 C755 1.369 . S
C754 C758 1.531 . S
C755 C754 1.369 . S
C755 C756 1.410 . S
C755 C763 1.503 . S
C756 C755 1.410 . S
C756 C757 1.392 . S
C756 C759 1.511 . S
C757 C753 1.376 . S
C757 C756 1.392 . S
C757 H769 0.929 . S
C758 C754 1.531 . S
C758 H770 0.960 . S
C758 H771 0.962 . S
C758 H772 0.960 . S
C759 C756 1.511 . S
C759 H773 0.961 . S
C759 H774 0.961 . S
C759 H775 0.961 . S
C760 C761 1.370 . S
C760 C762 1.363 . S
C760 H776 0.931 . S
C761 C760 1.370 . S
C761 C765 1.408 . S
C762 C760 1.363 . S
C762 C763 1.370 . S
C762 C766 1.524 . S
C763 C755 1.503 . S
C763 C762 1.370 . S
C763 C764 1.403 . S
C764 C763 1.403 . S
C764 C765 1.404 . S
C764 C767 1.539 . S
C765 C761 1.408 . S
C765 C764 1.404 . S
C765 H777 0.930 . S
C766 C762 1.524 . S
C766 H778 0.956 . S
C766 H779 0.961 . S
C766 H780 0.961 . S
C767 C764 1.539 . S
C767 H781 0.958 1_556 S
C767 H782 0.960 1_556 S
C767 H783 0.960 . S
H768 C752 0.931 . S
H769 C757 0.929 . S
H770 C758 0.960 . S
H771 C758 0.962 . S
H772 C758 0.960 . S
H773 C759 0.961 . S
H774 C759 0.961 . S
H775 C759 0.961 . S
H776 C760 0.931 . S
H777 C765 0.930 . S
H778 C766 0.956 . S
H779 C766 0.961 . S
H780 C766 0.961 . S
H781 C767 0.958 1_554 S
H782 C767 0.960 1_554 S
H783 C767 0.960 . S
C784 C785 1.391 . S
C784 C786 1.394 . S
C784 H800 0.931 . S
C785 C784 1.391 . S
C785 C789 1.376 . S
C786 C784 1.394 . S
C786 C787 1.369 . S
C786 C790 1.531 . S
C787 C786 1.369 . S
C787 C788 1.410 . S
C787 C795 1.503 1_554 S
C788 C787 1.410 . S
C788 C789 1.392 . S
C788 C791 1.511 1_554 S
C789 C785 1.376 . S
C789 C788 1.392 . S
C789 H801 0.929 . S
C790 C786 1.531 . S
C790 H802 0.960 . S
C790 H803 0.962 . S
C790 H804 0.960 . S
C791 C788 1.511 1_556 S
C791 H805 0.961 . S
C791 H806 0.961 . S
C791 H807 0.961 . S
C792 C793 1.370 . S
C792 C794 1.363 . S
C792 H808 0.931 . S
C793 C792 1.370 . S
C793 C797 1.408 . S
C794 C792 1.363 . S
C794 C795 1.370 . S
C794 C798 1.524 . S
C795 C787 1.503 1_556 S
C795 C794 1.370 . S
C795 C796 1.403 1_556 S
C796 C795 1.403 1_554 S
C796 C797 1.404 1_554 S
C796 C799 1.539 . S
C797 C793 1.408 . S
C797 C796 1.404 1_556 S
C797 H809 0.930 1_556 S
C798 C794 1.524 . S
C798 H810 0.956 . S
C798 H811 0.961 . S
C798 H812 0.961 . S
C799 C796 1.539 . S
C799 H813 0.958 . S
C799 H814 0.961 . S
C799 H815 0.960 . S
H800 C784 0.931 . S
H801 C789 0.929 . S
H802 C790 0.960 . S
H803 C790 0.962 . S
H804 C790 0.960 . S
H805 C791 0.961 . S
H806 C791 0.961 . S
H807 C791 0.961 . S
H808 C792 0.931 . S
H809 C797 0.930 1_554 S
H810 C798 0.956 . S
H811 C798 0.961 . S
H812 C798 0.961 . S
H813 C799 0.958 . S
H814 C799 0.961 . S
H815 C799 0.960 . S
C816 C817 1.391 . S
C816 C818 1.394 . S
C816 H832 0.931 . S
C817 C816 1.391 . S
C817 C821 1.376 . S
C818 C816 1.394 . S
C818 C819 1.369 . S
C818 C822 1.531 . S
C819 C818 1.369 . S
C819 C820 1.410 . S
C819 C827 1.503 . S
C820 C819 1.410 . S
C820 C821 1.392 . S
C820 C823 1.511 . S
C821 C817 1.376 . S
C821 C820 1.392 . S
C821 H833 0.929 . S
C822 C818 1.531 . S
C822 H834 0.960 . S
C822 H835 0.962 . S
C822 H836 0.960 . S
C823 C820 1.511 . S
C823 H837 0.961 . S
C823 H838 0.961 . S
C823 H839 0.961 . S
C824 C825 1.370 . S
C824 C826 1.363 . S
C824 H840 0.931 . S
C825 C824 1.370 . S
C825 C829 1.408 . S
C826 C824 1.363 . S
C826 C827 1.370 . S
C826 C830 1.524 . S
C827 C819 1.503 . S
C827 C826 1.370 . S
C827 C828 1.403 . S
C828 C827 1.403 . S
C828 C829 1.404 . S
C828 C831 1.539 . S
C829 C825 1.408 . S
C829 C828 1.404 . S
C829 H841 0.930 . S
C830 C826 1.524 . S
C830 H842 0.956 . S
C830 H843 0.961 . S
C830 H844 0.961 . S
C831 C828 1.539 . S
C831 H845 0.958 . S
C831 H846 0.961 . S
C831 H847 0.960 . S
H832 C816 0.931 . S
H833 C821 0.929 . S
H834 C822 0.960 . S
H835 C822 0.962 . S
H836 C822 0.960 . S
H837 C823 0.961 . S
H838 C823 0.961 . S
H839 C823 0.961 . S
H840 C824 0.931 . S
H841 C829 0.930 . S
H842 C830 0.956 . S
H843 C830 0.961 . S
H844 C830 0.961 . S
H845 C831 0.958 . S
H846 C831 0.961 . S
H847 C831 0.960 . S
C848 C849 1.391 . S
C848 C850 1.394 . S
C848 H864 0.931 . S
C849 C848 1.391 . S
C849 C853 1.376 . S
C850 C848 1.394 . S
C850 C851 1.369 . S
C850 C854 1.531 1_554 S
C851 C850 1.369 . S
C851 C852 1.410 . S
C851 C859 1.503 1_554 S
C852 C851 1.410 . S
C852 C853 1.392 . S
C852 C855 1.511 . S
C853 C849 1.376 . S
C853 C852 1.392 . S
C853 H865 0.929 . S
C854 C850 1.531 1_556 S
C854 H866 0.960 . S
C854 H867 0.962 . S
C854 H868 0.960 1_556 S
C855 C852 1.511 . S
C855 H869 0.961 . S
C855 H870 0.961 . S
C855 H871 0.961 . S
C856 C857 1.370 . S
C856 C858 1.363 . S
C856 H872 0.931 . S
C857 C856 1.370 . S
C857 C861 1.408 1_556 S
C858 C856 1.363 . S
C858 C859 1.370 . S
C858 C862 1.524 . S
C859 C851 1.503 1_556 S
C859 C858 1.370 . S
C859 C860 1.403 1_556 S
C860 C859 1.403 1_554 S
C860 C861 1.404 . S
C860 C863 1.539 . S
C861 C857 1.408 1_554 S
C861 C860 1.404 . S
C861 H873 0.930 . S
C862 C858 1.524 . S
C862 H874 0.956 . S
C862 H875 0.961 . S
C862 H876 0.961 . S
C863 C860 1.539 . S
C863 H877 0.958 . S
C863 H878 0.961 . S
C863 H879 0.960 . S
H864 C848 0.931 . S
H865 C853 0.929 . S
H866 C854 0.960 . S
H867 C854 0.962 . S
H868 C854 0.960 1_554 S
H869 C855 0.961 . S
H870 C855 0.961 . S
H871 C855 0.961 . S
H872 C856 0.931 . S
H873 C861 0.930 . S
H874 C862 0.956 . S
H875 C862 0.961 . S
H876 C862 0.961 . S
H877 C863 0.958 . S
H878 C863 0.961 . S
H879 C863 0.960 . S
C880 C881 1.391 . S
C880 C882 1.394 . S
C880 H896 0.931 . S
C881 C880 1.391 . S
C881 C885 1.376 . S
C882 C880 1.394 . S
C882 C883 1.369 . S
C882 C886 1.531 . S
C883 C882 1.369 . S
C883 C884 1.410 . S
C883 C891 1.503 . S
C884 C883 1.410 . S
C884 C885 1.392 . S
C884 C887 1.511 . S
C885 C881 1.376 . S
C885 C884 1.392 . S
C885 H897 0.929 . S
C886 C882 1.531 . S
C886 H898 0.960 . S
C886 H899 0.962 . S
C886 H900 0.960 . S
C887 C884 1.511 . S
C887 H901 0.961 . S
C887 H902 0.961 . S
C887 H903 0.961 . S
C888 C889 1.370 . S
C888 C890 1.363 . S
C888 H904 0.931 . S
C889 C888 1.370 . S
C889 C893 1.408 . S
C890 C888 1.363 . S
C890 C891 1.370 . S
C890 C894 1.524 . S
C891 C883 1.503 . S
C891 C890 1.370 . S
C891 C892 1.403 . S
C892 C891 1.403 . S
C892 C893 1.404 . S
C892 C895 1.539 . S
C893 C889 1.408 . S
C893 C892 1.404 . S
C893 H905 0.930 . S
C894 C890 1.524 . S
C894 H906 0.956 . S
C894 H907 0.961 . S
C894 H908 0.961 . S
C895 C892 1.539 . S
C895 H909 0.958 . S
C895 H910 0.961 . S
C895 H911 0.960 . S
H896 C880 0.931 . S
H897 C885 0.929 . S
H898 C886 0.960 . S
H899 C886 0.962 . S
H900 C886 0.960 . S
H901 C887 0.961 . S
H902 C887 0.961 . S
H903 C887 0.961 . S
H904 C888 0.931 . S
H905 C893 0.930 . S
H906 C894 0.956 . S
H907 C894 0.961 . S
H908 C894 0.961 . S
H909 C895 0.958 . S
H910 C895 0.961 . S
H911 C895 0.960 . S
C912 C913 1.391 1_556 S
C912 C914 1.394 . S
C912 H928 0.931 . S
C913 C912 1.391 1_554 S
C913 C917 1.376 . S
C914 C912 1.394 . S
C914 C915 1.369 1_556 S
C914 C918 1.531 . S
C915 C914 1.369 1_554 S
C915 C916 1.410 . S
C915 C923 1.503 1_554 S
C916 C915 1.410 . S
C916 C917 1.392 . S
C916 C919 1.511 . S
C917 C913 1.376 . S
C917 C916 1.392 . S
C917 H929 0.929 . S
C918 C914 1.531 . S
C918 H930 0.960 . S
C918 H931 0.962 . S
C918 H932 0.960 . S
C919 C916 1.511 . S
C919 H933 0.961 . S
C919 H934 0.961 . S
C919 H935 0.961 . S
C920 C921 1.370 . S
C920 C922 1.363 . S
C920 H936 0.931 . S
C921 C920 1.370 . S
C921 C925 1.408 . S
C922 C920 1.363 . S
C922 C923 1.370 . S
C922 C926 1.524 1_556 S
C923 C915 1.503 1_556 S
C923 C922 1.370 . S
C923 C924 1.403 . S
C924 C923 1.403 . S
C924 C925 1.404 . S
C924 C927 1.539 . S
C925 C921 1.408 . S
C925 C924 1.404 . S
C925 H937 0.930 . S
C926 C922 1.524 1_554 S
C926 H938 0.956 . S
C926 H939 0.961 . S
C926 H940 0.961 . S
C927 C924 1.539 . S
C927 H941 0.958 . S
C927 H942 0.961 . S
C927 H943 0.960 . S
H928 C912 0.931 . S
H929 C917 0.929 . S
H930 C918 0.960 . S
H931 C918 0.962 . S
H932 C918 0.960 . S
H933 C919 0.961 . S
H934 C919 0.961 . S
H935 C919 0.961 . S
H936 C920 0.931 . S
H937 C925 0.930 . S
H938 C926 0.956 . S
H939 C926 0.961 . S
H940 C926 0.961 . S
H941 C927 0.958 . S
H942 C927 0.961 . S
H943 C927 0.960 . S
C944 C945 1.391 . S
C944 C946 1.394 . S
C944 H960 0.931 . S
C945 C944 1.391 . S
C945 C949 1.376 . S
C946 C944 1.394 . S
C946 C947 1.369 . S
C946 C950 1.531 . S
C947 C946 1.369 . S
C947 C948 1.410 . S
C947 C955 1.503 . S
C948 C947 1.410 . S
C948 C949 1.392 . S
C948 C951 1.511 . S
C949 C945 1.376 . S
C949 C948 1.392 . S
C949 H961 0.929 . S
C950 C946 1.531 . S
C950 H962 0.960 . S
C950 H963 0.962 . S
C950 H964 0.960 . S
C951 C948 1.511 . S
C951 H965 0.961 . S
C951 H966 0.961 . S
C951 H967 0.961 . S
C952 C953 1.370 . S
C952 C954 1.363 . S
C952 H968 0.931 . S
C953 C952 1.370 . S
C953 C957 1.408 . S
C954 C952 1.363 . S
C954 C955 1.370 . S
C954 C958 1.524 . S
C955 C947 1.503 . S
C955 C954 1.370 . S
C955 C956 1.403 . S
C956 C955 1.403 . S
C956 C957 1.404 . S
C956 C959 1.539 . S
C957 C953 1.408 . S
C957 C956 1.404 . S
C957 H969 0.930 . S
C958 C954 1.524 . S
C958 H970 0.956 . S
C958 H971 0.961 . S
C958 H972 0.961 . S
C959 C956 1.539 . S
C959 H973 0.958 . S
C959 H974 0.961 . S
C959 H975 0.960 . S
H960 C944 0.931 . S
H961 C949 0.929 . S
H962 C950 0.960 . S
H963 C950 0.962 . S
H964 C950 0.960 . S
H965 C951 0.961 . S
H966 C951 0.961 . S
H967 C951 0.961 . S
H968 C952 0.931 . S
H969 C957 0.930 . S
H970 C958 0.956 . S
H971 C958 0.961 . S
H972 C958 0.961 . S
H973 C959 0.958 . S
H974 C959 0.961 . S
H975 C959 0.960 . S
C976 C977 1.391 . S
C976 C978 1.394 1_554 S
C976 H992 0.931 1_554 S
C977 C976 1.391 . S
C977 C981 1.376 . S
C978 C976 1.394 1_556 S
C978 C979 1.369 1_556 S
C978 C982 1.531 . S
C979 C978 1.369 1_554 S
C979 C980 1.410 . S
C979 C987 1.503 1_554 S
C980 C979 1.410 . S
C980 C981 1.392 . S
C980 C983 1.511 . S
C981 C977 1.376 . S
C981 C980 1.392 . S
C981 H993 0.929 . S
C982 C978 1.531 . S
C982 H994 0.960 . S
C982 H995 0.962 . S
C982 H996 0.960 . S
C983 C980 1.511 . S
C983 H997 0.961 . S
C983 H998 0.961 . S
C983 H999 0.961 . S
C984 C985 1.370 . S
C984 C986 1.363 . S
C984 H1000 0.931 . S
C985 C984 1.370 . S
C985 C989 1.408 . S
C986 C984 1.363 . S
C986 C987 1.370 . S
C986 C990 1.524 . S
C987 C979 1.503 1_556 S
C987 C986 1.370 . S
C987 C988 1.403 1_556 S
C988 C987 1.403 1_554 S
C988 C989 1.404 1_554 S
C988 C991 1.539 . S
C989 C985 1.408 . S
C989 C988 1.404 1_556 S
C989 H1001 0.930 1_556 S
C990 C986 1.524 . S
C990 H1002 0.956 . S
C990 H1003 0.961 . S
C990 H1004 0.961 . S
C991 C988 1.539 . S
C991 H1005 0.958 . S
C991 H1006 0.961 . S
C991 H1007 0.960 . S
H992 C976 0.931 1_556 S
H993 C981 0.929 . S
H994 C982 0.960 . S
H995 C982 0.962 . S
H996 C982 0.960 . S
H997 C983 0.961 . S
H998 C983 0.961 . S
H999 C983 0.961 . S
H1000 C984 0.931 . S
H1001 C989 0.930 1_554 S
H1002 C990 0.956 . S
H1003 C990 0.961 . S
H1004 C990 0.961 . S
H1005 C991 0.958 . S
H1006 C991 0.961 . S
H1007 C991 0.960 . S
C1008 C1009 1.391 . S
C1008 C1010 1.394 . S
C1008 H1024 0.931 . S
C1009 C1008 1.391 . S
C1009 C1013 1.376 . S
C1010 C1008 1.394 . S
C1010 C1011 1.369 . S
C1010 C1014 1.531 . S
C1011 C1010 1.369 . S
C1011 C1012 1.410 . S
C1011 C1019 1.503 . S
C1012 C1011 1.410 . S
C1012 C1013 1.392 . S
C1012 C1015 1.511 . S
C1013 C1009 1.376 . S
C1013 C1012 1.392 . S
C1013 H1025 0.929 . S
C1014 C1010 1.531 . S
C1014 H1026 0.960 . S
C1014 H1027 0.962 . S
C1014 H1028 0.960 . S
C1015 C1012 1.511 . S
C1015 H1029 0.961 . S
C1015 H1030 0.961 . S
C1015 H1031 0.961 . S
C1016 C1017 1.370 . S
C1016 C1018 1.363 . S
C1016 H1032 0.931 . S
C1017 C1016 1.370 . S
C1017 C1021 1.408 . S
C1018 C1016 1.363 . S
C1018 C1019 1.370 . S
C1018 C1022 1.524 . S
C1019 C1011 1.503 . S
C1019 C1018 1.370 . S
C1019 C1020 1.403 . S
C1020 C1019 1.403 . S
C1020 C1021 1.404 . S
C1020 C1023 1.539 . S
C1021 C1017 1.408 . S
C1021 C1020 1.404 . S
C1021 H1033 0.930 . S
C1022 C1018 1.524 . S
C1022 H1034 0.956 . S
C1022 H1035 0.961 . S
C1022 H1036 0.961 . S
C1023 C1020 1.539 . S
C1023 H1037 0.958 . S
C1023 H1038 0.961 . S
C1023 H1039 0.960 . S
H1024 C1008 0.931 . S
H1025 C1013 0.929 . S
H1026 C1014 0.960 . S
H1027 C1014 0.962 . S
H1028 C1014 0.960 . S
H1029 C1015 0.961 . S
H1030 C1015 0.961 . S
H1031 C1015 0.961 . S
H1032 C1016 0.931 . S
H1033 C1021 0.930 . S
H1034 C1022 0.956 . S
H1035 C1022 0.961 . S
H1036 C1022 0.961 . S
H1037 C1023 0.958 . S
H1038 C1023 0.961 . S
H1039 C1023 0.960 . S
C1040 C1041 1.391 . S
C1040 C1042 1.394 . S
C1040 H1056 0.931 1_455 S
C1041 C1040 1.391 . S
C1041 C1045 1.376 . S
C1042 C1040 1.394 . S
C1042 C1043 1.369 . S
C1042 C1046 1.531 1_455 S
C1043 C1042 1.369 . S
C1043 C1044 1.410 . S
C1043 C1051 1.503 . S
C1044 C1043 1.410 . S
C1044 C1045 1.392 . S
C1044 C1047 1.511 . S
C1045 C1041 1.376 . S
C1045 C1044 1.392 . S
C1045 H1057 0.929 . S
C1046 C1042 1.531 1_655 S
C1046 H1058 0.960 . S
C1046 H1059 0.962 . S
C1046 H1060 0.960 . S
C1047 C1044 1.511 . S
C1047 H1061 0.961 . S
C1047 H1062 0.961 . S
C1047 H1063 0.961 . S
C1048 C1049 1.370 . S
C1048 C1050 1.363 . S
C1048 H1064 0.931 . S
C1049 C1048 1.370 . S
C1049 C1053 1.408 . S
C1050 C1048 1.363 . S
C1050 C1051 1.370 . S
C1050 C1054 1.524 . S
C1051 C1043 1.503 . S
C1051 C1050 1.370 . S
C1051 C1052 1.403 . S
C1052 C1051 1.403 . S
C1052 C1053 1.404 . S
C1052 C1055 1.539 . S
C1053 C1049 1.408 . S
C1053 C1052 1.404 . S
C1053 H1065 0.930 . S
C1054 C1050 1.524 . S
C1054 H1066 0.956 . S
C1054 H1067 0.961 . S
C1054 H1068 0.961 . S
C1055 C1052 1.539 . S
C1055 H1069 0.958 . S
C1055 H1070 0.961 . S
C1055 H1071 0.960 . S
H1056 C1040 0.931 1_655 S
H1057 C1045 0.929 . S
H1058 C1046 0.960 . S
H1059 C1046 0.962 . S
H1060 C1046 0.960 . S
H1061 C1047 0.961 . S
H1062 C1047 0.961 . S
H1063 C1047 0.961 . S
H1064 C1048 0.931 . S
H1065 C1053 0.930 . S
H1066 C1054 0.956 . S
H1067 C1054 0.961 . S
H1068 C1054 0.961 . S
H1069 C1055 0.958 . S
H1070 C1055 0.961 . S
H1071 C1055 0.960 . S
C1072 C1073 1.391 . S
C1072 C1074 1.394 . S
C1072 H1088 0.931 . S
C1073 C1072 1.391 . S
C1073 C1077 1.376 . S
C1074 C1072 1.394 . S
C1074 C1075 1.369 . S
C1074 C1078 1.531 . S
C1075 C1074 1.369 . S
C1075 C1076 1.410 . S
C1075 C1083 1.503 . S
C1076 C1075 1.410 . S
C1076 C1077 1.392 . S
C1076 C1079 1.511 . S
C1077 C1073 1.376 . S
C1077 C1076 1.392 . S
C1077 H1089 0.929 . S
C1078 C1074 1.531 . S
C1078 H1090 0.960 . S
C1078 H1091 0.962 . S
C1078 H1092 0.960 . S
C1079 C1076 1.511 . S
C1079 H1093 0.961 . S
C1079 H1094 0.961 . S
C1079 H1095 0.961 . S
C1080 C1081 1.370 . S
C1080 C1082 1.363 . S
C1080 H1096 0.931 1_545 S
C1081 C1080 1.370 . S
C1081 C1085 1.408 . S
C1082 C1080 1.363 . S
C1082 C1083 1.370 . S
C1082 C1086 1.524 1_545 S
C1083 C1075 1.503 . S
C1083 C1082 1.370 . S
C1083 C1084 1.403 . S
C1084 C1083 1.403 . S
C1084 C1085 1.404 . S
C1084 C1087 1.539 . S
C1085 C1081 1.408 . S
C1085 C1084 1.404 . S
C1085 H1097 0.930 . S
C1086 C1082 1.524 1_565 S
C1086 H1098 0.956 . S
C1086 H1099 0.961 . S
C1086 H1100 0.961 . S
C1087 C1084 1.539 . S
C1087 H1101 0.958 . S
C1087 H1102 0.961 . S
C1087 H1103 0.960 . S
H1088 C1072 0.931 . S
H1089 C1077 0.929 . S
H1090 C1078 0.960 . S
H1091 C1078 0.962 . S
H1092 C1078 0.960 . S
H1093 C1079 0.961 . S
H1094 C1079 0.961 . S
H1095 C1079 0.961 . S
H1096 C1080 0.931 1_565 S
H1097 C1085 0.930 . S
H1098 C1086 0.956 . S
H1099 C1086 0.961 . S
H1100 C1086 0.961 . S
H1101 C1087 0.958 . S
H1102 C1087 0.961 . S
H1103 C1087 0.960 . S
C1104 C1105 1.391 . S
C1104 C1106 1.394 . S
C1104 H1120 0.931 . S
C1105 C1104 1.391 . S
C1105 C1109 1.376 . S
C1106 C1104 1.394 . S
C1106 C1107 1.369 . S
C1106 C1110 1.531 . S
C1107 C1106 1.369 . S
C1107 C1108 1.410 . S
C1107 C1115 1.503 . S
C1108 C1107 1.410 . S
C1108 C1109 1.392 . S
C1108 C1111 1.511 . S
C1109 C1105 1.376 . S
C1109 C1108 1.392 . S
C1109 H1121 0.929 . S
C1110 C1106 1.531 . S
C1110 H1122 0.960 . S
C1110 H1123 0.962 . S
C1110 H1124 0.960 . S
C1111 C1108 1.511 . S
C1111 H1125 0.961 . S
C1111 H1126 0.961 . S
C1111 H1127 0.961 . S
C1112 C1113 1.370 . S
C1112 C1114 1.363 . S
C1112 H1128 0.931 . S
C1113 C1112 1.370 . S
C1113 C1117 1.408 . S
C1114 C1112 1.363 . S
C1114 C1115 1.370 . S
C1114 C1118 1.524 . S
C1115 C1107 1.503 . S
C1115 C1114 1.370 . S
C1115 C1116 1.403 . S
C1116 C1115 1.403 . S
C1116 C1117 1.404 . S
C1116 C1119 1.539 . S
C1117 C1113 1.408 . S
C1117 C1116 1.404 . S
C1117 H1129 0.930 . S
C1118 C1114 1.524 . S
C1118 H1130 0.956 . S
C1118 H1131 0.961 . S
C1118 H1132 0.961 . S
C1119 C1116 1.539 . S
C1119 H1133 0.958 . S
C1119 H1134 0.961 . S
C1119 H1135 0.960 . S
H1120 C1104 0.931 . S
H1121 C1109 0.929 . S
H1122 C1110 0.960 . S
H1123 C1110 0.962 . S
H1124 C1110 0.960 . S
H1125 C1111 0.961 . S
H1126 C1111 0.961 . S
H1127 C1111 0.961 . S
H1128 C1112 0.931 . S
H1129 C1117 0.930 . S
H1130 C1118 0.956 . S
H1131 C1118 0.961 . S
H1132 C1118 0.961 . S
H1133 C1119 0.958 . S
H1134 C1119 0.961 . S
H1135 C1119 0.960 . S
C1136 C1137 1.391 . S
C1136 C1138 1.394 . S
C1136 H1152 0.931 . S
C1137 C1136 1.391 . S
C1137 C1141 1.376 . S
C1138 C1136 1.394 . S
C1138 C1139 1.369 . S
C1138 C1142 1.531 . S
C1139 C1138 1.369 . S
C1139 C1140 1.410 . S
C1139 C1147 1.503 . S
C1140 C1139 1.410 . S
C1140 C1141 1.392 . S
C1140 C1143 1.511 . S
C1141 C1137 1.376 . S
C1141 C1140 1.392 . S
C1141 H1153 0.929 . S
C1142 C1138 1.531 . S
C1142 H1154 0.960 . S
C1142 H1155 0.962 . S
C1142 H1156 0.960 . S
C1143 C1140 1.511 . S
C1143 H1157 0.961 . S
C1143 H1158 0.961 . S
C1143 H1159 0.961 . S
C1144 C1145 1.370 . S
C1144 C1146 1.363 . S
C1144 H1160 0.931 . S
C1145 C1144 1.370 . S
C1145 C1149 1.408 . S
C1146 C1144 1.363 . S
C1146 C1147 1.370 . S
C1146 C1150 1.524 . S
C1147 C1139 1.503 . S
C1147 C1146 1.370 . S
C1147 C1148 1.403 . S
C1148 C1147 1.403 . S
C1148 C1149 1.404 . S
C1148 C1151 1.539 . S
C1149 C1145 1.408 . S
C1149 C1148 1.404 . S
C1149 H1161 0.930 . S
C1150 C1146 1.524 . S
C1150 H1162 0.956 . S
C1150 H1163 0.961 . S
C1150 H1164 0.961 . S
C1151 C1148 1.539 . S
C1151 H1165 0.958 . S
C1151 H1166 0.961 . S
C1151 H1167 0.960 . S
H1152 C1136 0.931 . S
H1153 C1141 0.929 . S
H1154 C1142 0.960 . S
H1155 C1142 0.962 . S
H1156 C1142 0.960 . S
H1157 C1143 0.961 . S
H1158 C1143 0.961 . S
H1159 C1143 0.961 . S
H1160 C1144 0.931 . S
H1161 C1149 0.930 . S
H1162 C1150 0.956 . S
H1163 C1150 0.961 . S
H1164 C1150 0.961 . S
H1165 C1151 0.958 . S
H1166 C1151 0.961 . S
H1167 C1151 0.960 . S
C1168 C1169 1.391 . S
C1168 C1170 1.394 . S
C1168 H1184 0.931 . S
C1169 C1168 1.391 . S
C1169 C1173 1.376 . S
C1170 C1168 1.394 . S
C1170 C1171 1.369 . S
C1170 C1174 1.531 . S
C1171 C1170 1.369 . S
C1171 C1172 1.410 . S
C1171 C1179 1.503 . S
C1172 C1171 1.410 . S
C1172 C1173 1.392 . S
C1172 C1175 1.511 . S
C1173 C1169 1.376 . S
C1173 C1172 1.392 . S
C1173 H1185 0.929 . S
C1174 C1170 1.531 . S
C1174 H1186 0.960 . S
C1174 H1187 0.962 . S
C1174 H1188 0.960 . S
C1175 C1172 1.511 . S
C1175 H1189 0.961 . S
C1175 H1190 0.961 . S
C1175 H1191 0.961 . S
C1176 C1177 1.370 . S
C1176 C1178 1.363 . S
C1176 H1192 0.931 1_655 S
C1177 C1176 1.370 . S
C1177 C1181 1.408 . S
C1178 C1176 1.363 . S
C1178 C1179 1.370 . S
C1178 C1182 1.524 1_655 S
C1179 C1171 1.503 . S
C1179 C1178 1.370 . S
C1179 C1180 1.403 . S
C1180 C1179 1.403 . S
C1180 C1181 1.404 . S
C1180 C1183 1.539 . S
C1181 C1177 1.408 . S
C1181 C1180 1.404 . S
C1181 H1193 0.930 . S
C1182 C1178 1.524 1_455 S
C1182 H1194 0.956 . S
C1182 H1195 0.961 . S
C1182 H1196 0.961 . S
C1183 C1180 1.539 . S
C1183 H1197 0.958 . S
C1183 H1198 0.961 . S
C1183 H1199 0.960 . S
H1184 C1168 0.931 . S
H1185 C1173 0.929 . S
H1186 C1174 0.960 . S
H1187 C1174 0.962 . S
H1188 C1174 0.960 . S
H1189 C1175 0.961 . S
H1190 C1175 0.961 . S
H1191 C1175 0.961 . S
H1192 C1176 0.931 1_455 S
H1193 C1181 0.930 . S
H1194 C1182 0.956 . S
H1195 C1182 0.961 . S
H1196 C1182 0.961 . S
H1197 C1183 0.958 . S
H1198 C1183 0.961 . S
H1199 C1183 0.960 . S
C1200 C1201 1.391 . S
C1200 C1202 1.394 . S
C1200 H1216 0.931 . S
C1201 C1200 1.391 . S
C1201 C1205 1.376 . S
C1202 C1200 1.394 . S
C1202 C1203 1.369 . S
C1202 C1206 1.531 . S
C1203 C1202 1.369 . S
C1203 C1204 1.410 . S
C1203 C1211 1.503 . S
C1204 C1203 1.410 . S
C1204 C1205 1.392 . S
C1204 C1207 1.511 . S
C1205 C1201 1.376 . S
C1205 C1204 1.392 . S
C1205 H1217 0.929 . S
C1206 C1202 1.531 . S
C1206 H1218 0.960 . S
C1206 H1219 0.962 1_565 S
C1206 H1220 0.960 . S
C1207 C1204 1.511 . S
C1207 H1221 0.961 . S
C1207 H1222 0.961 . S
C1207 H1223 0.961 . S
C1208 C1209 1.370 . S
C1208 C1210 1.363 . S
C1208 H1224 0.931 1_565 S
C1209 C1208 1.370 . S
C1209 C1213 1.408 . S
C1210 C1208 1.363 . S
C1210 C1211 1.370 . S
C1210 C1214 1.524 1_565 S
C1211 C1203 1.503 . S
C1211 C1210 1.370 . S
C1211 C1212 1.403 . S
C1212 C1211 1.403 . S
C1212 C1213 1.404 . S
C1212 C1215 1.539 . S
C1213 C1209 1.408 . S
C1213 C1212 1.404 . S
C1213 H1225 0.930 . S
C1214 C1210 1.524 1_545 S
C1214 H1226 0.956 . S
C1214 H1227 0.961 . S
C1214 H1228 0.961 . S
C1215 C1212 1.539 . S
C1215 H1229 0.958 . S
C1215 H1230 0.961 . S
C1215 H1231 0.960 . S
H1216 C1200 0.931 . S
H1217 C1205 0.929 . S
H1218 C1206 0.960 . S
H1219 C1206 0.962 1_545 S
H1220 C1206 0.960 . S
H1221 C1207 0.961 . S
H1222 C1207 0.961 . S
H1223 C1207 0.961 . S
H1224 C1208 0.931 1_545 S
H1225 C1213 0.930 . S
H1226 C1214 0.956 . S
H1227 C1214 0.961 . S
H1228 C1214 0.961 . S
H1229 C1215 0.958 . S
H1230 C1215 0.961 . S
H1231 C1215 0.960 . S
C1232 C1233 1.391 . S
C1232 C1234 1.394 . S
C1232 H1248 0.931 . S
C1233 C1232 1.391 . S
C1233 C1237 1.376 . S
C1234 C1232 1.394 . S
C1234 C1235 1.369 . S
C1234 C1238 1.531 . S
C1235 C1234 1.369 . S
C1235 C1236 1.410 . S
C1235 C1243 1.503 . S
C1236 C1235 1.410 . S
C1236 C1237 1.392 . S
C1236 C1239 1.511 . S
C1237 C1233 1.376 . S
C1237 C1236 1.392 . S
C1237 H1249 0.929 . S
C1238 C1234 1.531 . S
C1238 H1250 0.960 . S
C1238 H1251 0.962 . S
C1238 H1252 0.960 . S
C1239 C1236 1.511 . S
C1239 H1253 0.961 . S
C1239 H1254 0.961 . S
C1239 H1255 0.961 . S
C1240 C1241 1.370 . S
C1240 C1242 1.363 . S
C1240 H1256 0.931 . S
C1241 C1240 1.370 . S
C1241 C1245 1.408 . S
C1242 C1240 1.363 . S
C1242 C1243 1.370 . S
C1242 C1246 1.524 . S
C1243 C1235 1.503 . S
C1243 C1242 1.370 . S
C1243 C1244 1.403 . S
C1244 C1243 1.403 . S
C1244 C1245 1.404 . S
C1244 C1247 1.539 . S
C1245 C1241 1.408 . S
C1245 C1244 1.404 . S
C1245 H1257 0.930 . S
C1246 C1242 1.524 . S
C1246 H1258 0.956 . S
C1246 H1259 0.961 . S
C1246 H1260 0.961 . S
C1247 C1244 1.539 . S
C1247 H1261 0.958 . S
C1247 H1262 0.961 . S
C1247 H1263 0.960 . S
H1248 C1232 0.931 . S
H1249 C1237 0.929 . S
H1250 C1238 0.960 . S
H1251 C1238 0.962 . S
H1252 C1238 0.960 . S
H1253 C1239 0.961 . S
H1254 C1239 0.961 . S
H1255 C1239 0.961 . S
H1256 C1240 0.931 . S
H1257 C1245 0.930 . S
H1258 C1246 0.956 . S
H1259 C1246 0.961 . S
H1260 C1246 0.961 . S
H1261 C1247 0.958 . S
H1262 C1247 0.961 . S
H1263 C1247 0.960 . S
C1264 C1265 1.391 . S
C1264 C1266 1.394 . S
C1264 H1280 0.931 . S
C1265 C1264 1.391 . S
C1265 C1269 1.376 . S
C1266 C1264 1.394 . S
C1266 C1267 1.369 . S
C1266 C1270 1.531 . S
C1267 C1266 1.369 . S
C1267 C1268 1.410 . S
C1267 C1275 1.503 . S
C1268 C1267 1.410 . S
C1268 C1269 1.392 . S
C1268 C1271 1.511 . S
C1269 C1265 1.376 . S
C1269 C1268 1.392 . S
C1269 H1281 0.929 . S
C1270 C1266 1.531 . S
C1270 H1282 0.960 . S
C1270 H1283 0.962 . S
C1270 H1284 0.960 . S
C1271 C1268 1.511 . S
C1271 H1285 0.961 . S
C1271 H1286 0.961 . S
C1271 H1287 0.961 . S
C1272 C1273 1.370 . S
C1272 C1274 1.363 . S
C1272 H1288 0.931 . S
C1273 C1272 1.370 . S
C1273 C1277 1.408 . S
C1274 C1272 1.363 . S
C1274 C1275 1.370 . S
C1274 C1278 1.524 . S
C1275 C1267 1.503 . S
C1275 C1274 1.370 . S
C1275 C1276 1.403 . S
C1276 C1275 1.403 . S
C1276 C1277 1.404 . S
C1276 C1279 1.539 . S
C1277 C1273 1.408 . S
C1277 C1276 1.404 . S
C1277 H1289 0.930 . S
C1278 C1274 1.524 . S
C1278 H1290 0.956 . S
C1278 H1291 0.961 . S
C1278 H1292 0.961 . S
C1279 C1276 1.539 . S
C1279 H1293 0.958 . S
C1279 H1294 0.961 . S
C1279 H1295 0.960 . S
H1280 C1264 0.931 . S
H1281 C1269 0.929 . S
H1282 C1270 0.960 . S
H1283 C1270 0.962 . S
H1284 C1270 0.960 . S
H1285 C1271 0.961 . S
H1286 C1271 0.961 . S
H1287 C1271 0.961 . S
H1288 C1272 0.931 . S
H1289 C1277 0.930 . S
H1290 C1278 0.956 . S
H1291 C1278 0.961 . S
H1292 C1278 0.961 . S
H1293 C1279 0.958 . S
H1294 C1279 0.961 . S
H1295 C1279 0.960 . S
C1296 C1297 1.391 . S
C1296 C1298 1.394 . S
C1296 H1312 0.931 . S
C1297 C1296 1.391 . S
C1297 C1301 1.376 . S
C1298 C1296 1.394 . S
C1298 C1299 1.369 . S
C1298 C1302 1.531 . S
C1299 C1298 1.369 . S
C1299 C1300 1.410 . S
C1299 C1307 1.503 . S
C1300 C1299 1.410 . S
C1300 C1301 1.392 . S
C1300 C1303 1.511 1_455 S
C1301 C1297 1.376 . S
C1301 C1300 1.392 . S
C1301 H1313 0.935 . S
C1302 C1298 1.531 . S
C1302 H1314 0.960 . S
C1302 H1315 0.962 . S
C1302 H1316 0.960 . S
C1303 C1300 1.511 1_655 S
C1303 H1317 0.961 . S
C1303 H1318 0.961 . S
C1303 H1319 0.961 . S
C1304 C1305 1.370 . S
C1304 C1306 1.363 . S
C1304 H1320 0.931 . S
C1305 C1304 1.370 . S
C1305 C1309 1.408 . S
C1306 C1304 1.363 . S
C1306 C1307 1.370 . S
C1306 C1310 1.524 . S
C1307 C1299 1.503 . S
C1307 C1306 1.370 . S
C1307 C1308 1.403 . S
C1308 C1307 1.403 . S
C1308 C1309 1.404 . S
C1308 C1311 1.539 . S
C1309 C1305 1.408 . S
C1309 C1308 1.404 . S
C1309 H1321 0.930 . S
C1310 C1306 1.524 . S
C1310 H1322 0.956 . S
C1310 H1323 0.961 . S
C1310 H1324 0.961 . S
C1311 C1308 1.539 . S
C1311 H1325 0.958 . S
C1311 H1326 0.961 1_455 S
C1311 H1327 0.960 1_455 S
H1312 C1296 0.931 . S
H1313 C1301 0.935 . S
H1314 C1302 0.960 . S
H1315 C1302 0.962 . S
H1316 C1302 0.960 . S
H1317 C1303 0.961 . S
H1318 C1303 0.961 . S
H1319 C1303 0.961 . S
H1320 C1304 0.931 . S
H1321 C1309 0.930 . S
H1322 C1310 0.956 . S
H1323 C1310 0.961 . S
H1324 C1310 0.961 . S
H1325 C1311 0.958 . S
H1326 C1311 0.961 1_655 S
H1327 C1311 0.960 1_655 S
C1328 C1329 1.391 . S
C1328 C1330 1.394 1_556 S
C1328 H1344 0.931 . S
C1329 C1328 1.391 . S
C1329 C1333 1.376 . S
C1330 C1328 1.394 1_554 S
C1330 C1331 1.369 . S
C1330 C1334 1.531 . S
C1331 C1330 1.369 . S
C1331 C1332 1.410 . S
C1331 C1339 1.503 . S
C1332 C1331 1.410 . S
C1332 C1333 1.392 1_554 S
C1332 C1335 1.511 . S
C1333 C1329 1.376 . S
C1333 C1332 1.392 1_556 S
C1333 H1345 0.929 . S
C1334 C1330 1.531 . S
C1334 H1346 0.960 . S
C1334 H1347 0.962 . S
C1334 H1348 0.960 . S
C1335 C1332 1.511 . S
C1335 H1349 0.969 . S
C1335 H1350 0.961 . S
C1335 H1351 0.961 . S
C1336 C1337 1.370 . S
C1336 C1338 1.363 . S
C1336 H1352 0.931 . S
C1337 C1336 1.370 . S
C1337 C1341 1.408 . S
C1338 C1336 1.363 . S
C1338 C1339 1.370 . S
C1338 C1342 1.514 1_545 S
C1339 C1331 1.503 . S
C1339 C1338 1.370 . S
C1339 C1340 1.403 . S
C1340 C1339 1.403 . S
C1340 C1341 1.404 . S
C1340 C1343 1.539 . S
C1341 C1337 1.408 . S
C1341 C1340 1.404 . S
C1341 H1353 0.930 . S
C1342 C1338 1.514 1_565 S
C1342 H1354 0.949 1_565 S
C1342 H1355 0.967 . S
C1342 H1356 0.972 . S
C1343 C1340 1.539 . S
C1343 H1357 0.958 . S
C1343 H1358 0.961 . S
C1343 H1359 0.960 . S
H1344 C1328 0.931 . S
H1345 C1333 0.929 . S
H1346 C1334 0.960 . S
H1347 C1334 0.962 . S
H1348 C1334 0.960 . S
H1349 C1335 0.969 . S
H1350 C1335 0.961 . S
H1351 C1335 0.961 . S
H1352 C1336 0.931 . S
H1353 C1341 0.930 . S
H1354 C1342 0.949 1_545 S
H1355 C1342 0.967 . S
H1356 C1342 0.972 . S
H1357 C1343 0.958 . S
H1358 C1343 0.961 . S
H1359 C1343 0.960 . S
C1360 C1361 1.391 . S
C1360 C1362 1.394 . S
C1360 H1376 0.931 . S
C1361 C1360 1.391 . S
C1361 C1365 1.376 . S
C1362 C1360 1.394 . S
C1362 C1363 1.369 . S
C1362 C1366 1.531 . S
C1363 C1362 1.369 . S
C1363 C1364 1.410 . S
C1363 C1371 1.503 . S
C1364 C1363 1.410 . S
C1364 C1365 1.392 . S
C1364 C1367 1.511 . S
C1365 C1361 1.376 . S
C1365 C1364 1.392 . S
C1365 H1377 0.929 . S
C1366 C1362 1.531 . S
C1366 H1378 0.960 . S
C1366 H1379 0.962 . S
C1366 H1380 0.960 . S
C1367 C1364 1.511 . S
C1367 H1381 0.961 . S
C1367 H1382 0.961 . S
C1367 H1383 0.961 . S
C1368 C1369 1.370 . S
C1368 C1370 1.363 . S
C1368 H1384 0.931 . S
C1369 C1368 1.370 . S
C1369 C1373 1.408 . S
C1370 C1368 1.363 . S
C1370 C1371 1.370 . S
C1370 C1374 1.524 . S
C1371 C1363 1.503 . S
C1371 C1370 1.370 . S
C1371 C1372 1.403 . S
C1372 C1371 1.403 . S
C1372 C1373 1.404 . S
C1372 C1375 1.539 . S
C1373 C1369 1.408 . S
C1373 C1372 1.404 . S
C1373 H1385 0.930 . S
C1374 C1370 1.524 . S
C1374 H1386 0.956 . S
C1374 H1387 0.961 . S
C1374 H1388 0.961 . S
C1375 C1372 1.539 . S
C1375 H1389 0.958 . S
C1375 H1390 0.961 . S
C1375 H1391 0.960 . S
H1376 C1360 0.931 . S
H1377 C1365 0.929 . S
H1378 C1366 0.960 . S
H1379 C1366 0.962 . S
H1380 C1366 0.960 . S
H1381 C1367 0.961 . S
H1382 C1367 0.961 . S
H1383 C1367 0.961 . S
H1384 C1368 0.931 . S
H1385 C1373 0.930 . S
H1386 C1374 0.956 . S
H1387 C1374 0.961 . S
H1388 C1374 0.961 . S
H1389 C1375 0.958 . S
H1390 C1375 0.961 . S
H1391 C1375 0.960 . S
C1392 C1393 1.391 . S
C1392 C1394 1.394 1_556 S
C1392 H1408 0.931 . S
C1393 C1392 1.391 . S
C1393 C1397 1.376 . S
C1394 C1392 1.394 1_554 S
C1394 C1395 1.369 . S
C1394 C1398 1.531 . S
C1395 C1394 1.369 . S
C1395 C1396 1.410 . S
C1395 C1403 1.503 . S
C1396 C1395 1.410 . S
C1396 C1397 1.392 1_554 S
C1396 C1399 1.511 . S
C1397 C1393 1.376 . S
C1397 C1396 1.392 1_556 S
C1397 H1409 0.929 . S
C1398 C1394 1.531 . S
C1398 H1410 0.960 . S
C1398 H1411 0.962 . S
C1398 H1412 0.960 . S
C1399 C1396 1.511 . S
C1399 H1413 0.961 . S
C1399 H1414 0.961 . S
C1399 H1415 0.961 . S
C1400 C1401 1.370 . S
C1400 C1402 1.363 . S
C1400 H1416 0.931 . S
C1401 C1400 1.370 . S
C1401 C1405 1.408 . S
C1402 C1400 1.363 . S
C1402 C1403 1.370 . S
C1402 C1406 1.524 . S
C1403 C1395 1.503 . S
C1403 C1402 1.370 . S
C1403 C1404 1.403 . S
C1404 C1403 1.403 . S
C1404 C1405 1.404 . S
C1404 C1407 1.539 . S
C1405 C1401 1.408 . S
C1405 C1404 1.404 . S
C1405 H1417 0.930 . S
C1406 C1402 1.524 . S
C1406 H1418 0.956 . S
C1406 H1419 0.961 . S
C1406 H1420 0.961 . S
C1407 C1404 1.539 . S
C1407 H1421 0.958 . S
C1407 H1422 0.961 . S
C1407 H1423 0.960 . S
H1408 C1392 0.931 . S
H1409 C1397 0.929 . S
H1410 C1398 0.960 . S
H1411 C1398 0.962 . S
H1412 C1398 0.960 . S
H1413 C1399 0.961 . S
H1414 C1399 0.961 . S
H1415 C1399 0.961 . S
H1416 C1400 0.931 . S
H1417 C1405 0.930 . S
H1418 C1406 0.956 . S
H1419 C1406 0.961 . S
H1420 C1406 0.961 . S
H1421 C1407 0.958 . S
H1422 C1407 0.961 . S
H1423 C1407 0.960 . S
C1424 C1425 1.391 . S
C1424 C1426 1.394 . S
C1424 H1440 0.931 . S
C1425 C1424 1.391 . S
C1425 C1429 1.376 . S
C1426 C1424 1.394 . S
C1426 C1427 1.369 . S
C1426 C1430 1.531 . S
C1427 C1426 1.369 . S
C1427 C1428 1.410 . S
C1427 C1435 1.503 . S
C1428 C1427 1.410 . S
C1428 C1429 1.392 . S
C1428 C1431 1.511 . S
C1429 C1425 1.376 . S
C1429 C1428 1.392 . S
C1429 H1441 0.929 . S
C1430 C1426 1.531 . S
C1430 H1442 0.960 . S
C1430 H1443 0.962 1_455 S
C1430 H1444 0.960 . S
C1431 C1428 1.511 . S
C1431 H1445 0.961 . S
C1431 H1446 0.961 . S
C1431 H1447 0.961 . S
C1432 C1433 1.370 . S
C1432 C1434 1.363 1_554 S
C1432 H1448 0.931 . S
C1433 C1432 1.370 . S
C1433 C1437 1.408 . S
C1434 C1432 1.363 1_556 S
C1434 C1435 1.370 . S
C1434 C1438 1.524 . S
C1435 C1427 1.503 . S
C1435 C1434 1.370 . S
C1435 C1436 1.403 . S
C1436 C1435 1.403 . S
C1436 C1437 1.404 1_556 S
C1436 C1439 1.539 . S
C1437 C1433 1.408 . S
C1437 C1436 1.404 1_554 S
C1437 H1449 0.930 . S
C1438 C1434 1.524 . S
C1438 H1450 0.956 1_455 S
C1438 H1451 0.961 . S
C1438 H1452 0.961 1_455 S
C1439 C1436 1.539 . S
C1439 H1453 0.958 . S
C1439 H1454 0.961 . S
C1439 H1455 0.960 . S
H1440 C1424 0.931 . S
H1441 C1429 0.929 . S
H1442 C1430 0.960 . S
H1443 C1430 0.962 1_655 S
H1444 C1430 0.960 . S
H1445 C1431 0.961 . S
H1446 C1431 0.961 . S
H1447 C1431 0.961 . S
H1448 C1432 0.931 . S
H1449 C1437 0.930 . S
H1450 C1438 0.956 1_655 S
H1451 C1438 0.961 . S
H1452 C1438 0.961 1_655 S
H1453 C1439 0.958 . S
H1454 C1439 0.961 . S
H1455 C1439 0.960 . S
C1456 C1457 1.391 . S
C1456 C1458 1.394 . S
C1456 H1472 0.931 1_545 S
C1457 C1456 1.391 . S
C1457 C1461 1.376 . S
C1458 C1456 1.394 . S
C1458 C1459 1.369 . S
C1458 C1462 1.531 1_545 S
C1459 C1458 1.369 . S
C1459 C1460 1.410 . S
C1459 C1467 1.503 . S
C1460 C1459 1.410 . S
C1460 C1461 1.392 . S
C1460 C1463 1.511 . S
C1461 C1457 1.376 . S
C1461 C1460 1.392 . S
C1461 H1473 0.929 . S
C1462 C1458 1.531 1_565 S
C1462 H1474 0.960 . S
C1462 H1475 0.962 . S
C1462 H1476 0.960 . S
C1463 C1460 1.511 . S
C1463 H1477 0.961 . S
C1463 H1478 0.961 . S
C1463 H1479 0.961 . S
C1464 C1465 1.370 . S
C1464 C1466 1.363 . S
C1464 H1480 0.931 . S
C1465 C1464 1.370 . S
C1465 C1469 1.408 . S
C1466 C1464 1.363 . S
C1466 C1467 1.370 . S
C1466 C1470 1.524 . S
C1467 C1459 1.503 . S
C1467 C1466 1.370 . S
C1467 C1468 1.403 . S
C1468 C1467 1.403 . S
C1468 C1469 1.404 . S
C1468 C1471 1.539 . S
C1469 C1465 1.408 . S
C1469 C1468 1.404 . S
C1469 H1481 0.930 . S
C1470 C1466 1.524 . S
C1470 H1482 0.956 . S
C1470 H1483 0.961 . S
C1470 H1484 0.961 . S
C1471 C1468 1.539 . S
C1471 H1485 0.958 . S
C1471 H1486 0.961 . S
C1471 H1487 0.960 . S
H1472 C1456 0.931 1_565 S
H1473 C1461 0.929 . S
H1474 C1462 0.960 . S
H1475 C1462 0.962 . S
H1476 C1462 0.960 . S
H1477 C1463 0.961 . S
H1478 C1463 0.961 . S
H1479 C1463 0.961 . S
H1480 C1464 0.931 . S
H1481 C1469 0.930 . S
H1482 C1470 0.956 . S
H1483 C1470 0.961 . S
H1484 C1470 0.961 . S
H1485 C1471 0.958 . S
H1486 C1471 0.961 . S
H1487 C1471 0.960 . S
C1488 C1489 1.391 . S
C1488 C1490 1.394 . S
C1488 H1504 0.931 . S
C1489 C1488 1.391 . S
C1489 C1493 1.376 . S
C1490 C1488 1.394 . S
C1490 C1491 1.369 . S
C1490 C1494 1.531 . S
C1491 C1490 1.369 . S
C1491 C1492 1.410 . S
C1491 C1499 1.503 . S
C1492 C1491 1.410 . S
C1492 C1493 1.392 . S
C1492 C1495 1.511 . S
C1493 C1489 1.376 . S
C1493 C1492 1.392 . S
C1493 H1505 0.929 . S
C1494 C1490 1.531 . S
C1494 H1506 0.960 . S
C1494 H1507 0.962 . S
C1494 H1508 0.960 . S
C1495 C1492 1.511 . S
C1495 H1509 0.961 . S
C1495 H1510 0.961 . S
C1495 H1511 0.961 . S
C1496 C1497 1.370 . S
C1496 C1498 1.363 1_554 S
C1496 H1512 0.931 . S
C1497 C1496 1.370 . S
C1497 C1501 1.408 . S
C1498 C1496 1.363 1_556 S
C1498 C1499 1.370 . S
C1498 C1502 1.524 . S
C1499 C1491 1.503 . S
C1499 C1498 1.370 . S
C1499 C1500 1.403 . S
C1500 C1499 1.403 . S
C1500 C1501 1.404 1_556 S
C1500 C1503 1.539 . S
C1501 C1497 1.408 . S
C1501 C1500 1.404 1_554 S
C1501 H1513 0.930 . S
C1502 C1498 1.524 . S
C1502 H1514 0.956 . S
C1502 H1515 0.961 . S
C1502 H1516 0.961 . S
C1503 C1500 1.539 . S
C1503 H1517 0.958 . S
C1503 H1518 0.961 . S
C1503 H1519 0.960 . S
H1504 C1488 0.931 . S
H1505 C1493 0.929 . S
H1506 C1494 0.960 . S
H1507 C1494 0.962 . S
H1508 C1494 0.960 . S
H1509 C1495 0.961 . S
H1510 C1495 0.961 . S
H1511 C1495 0.961 . S
H1512 C1496 0.931 . S
H1513 C1501 0.930 . S
H1514 C1502 0.956 . S
H1515 C1502 0.961 . S
H1516 C1502 0.961 . S
H1517 C1503 0.958 . S
H1518 C1503 0.961 . S
H1519 C1503 0.960 . S
C1520 C1521 1.391 . S
C1520 C1522 1.394 . S
C1520 H1536 0.931 . S
C1521 C1520 1.391 . S
C1521 C1525 1.376 . S
C1522 C1520 1.394 . S
C1522 C1523 1.369 . S
C1522 C1526 1.531 . S
C1523 C1522 1.369 . S
C1523 C1524 1.410 . S
C1523 C1531 1.503 . S
C1524 C1523 1.410 . S
C1524 C1525 1.392 . S
C1524 C1527 1.511 . S
C1525 C1521 1.376 . S
C1525 C1524 1.392 . S
C1525 H1537 0.929 . S
C1526 C1522 1.531 . S
C1526 H1538 0.960 . S
C1526 H1539 0.962 . S
C1526 H1540 0.960 . S
C1527 C1524 1.511 . S
C1527 H1541 0.961 . S
C1527 H1542 0.961 . S
C1527 H1543 0.961 . S
C1528 C1529 1.370 . S
C1528 C1530 1.363 . S
C1528 H1544 0.931 . S
C1529 C1528 1.370 . S
C1529 C1533 1.408 . S
C1530 C1528 1.363 . S
C1530 C1531 1.370 . S
C1530 C1534 1.524 . S
C1531 C1523 1.503 . S
C1531 C1530 1.370 . S
C1531 C1532 1.403 . S
C1532 C1531 1.403 . S
C1532 C1533 1.404 . S
C1532 C1535 1.539 . S
C1533 C1529 1.408 . S
C1533 C1532 1.404 . S
C1533 H1545 0.930 . S
C1534 C1530 1.524 . S
C1534 H1546 0.956 . S
C1534 H1547 0.961 . S
C1534 H1548 0.961 . S
C1535 C1532 1.539 . S
C1535 H1549 0.958 . S
C1535 H1550 0.961 . S
C1535 H1551 0.960 . S
H1536 C1520 0.931 . S
H1537 C1525 0.929 . S
H1538 C1526 0.960 . S
H1539 C1526 0.962 . S
H1540 C1526 0.960 . S
H1541 C1527 0.961 . S
H1542 C1527 0.961 . S
H1543 C1527 0.961 . S
H1544 C1528 0.931 . S
H1545 C1533 0.930 . S
H1546 C1534 0.956 . S
H1547 C1534 0.961 . S
H1548 C1534 0.961 . S
H1549 C1535 0.958 . S
H1550 C1535 0.961 . S
H1551 C1535 0.960 . S
C1552 C1553 1.391 . S
C1552 C1554 1.394 . S
C1552 H1568 0.931 . S
C1553 C1552 1.391 . S
C1553 C1557 1.376 . S
C1554 C1552 1.394 . S
C1554 C1555 1.369 . S
C1554 C1558 1.531 . S
C1555 C1554 1.369 . S
C1555 C1556 1.410 . S
C1555 C1563 1.503 . S
C1556 C1555 1.410 . S
C1556 C1557 1.392 . S
C1556 C1559 1.511 . S
C1557 C1553 1.376 . S
C1557 C1556 1.392 . S
C1557 H1569 0.929 . S
C1558 C1554 1.531 . S
C1558 H1570 0.960 . S
C1558 H1571 0.962 . S
C1558 H1572 0.960 . S
C1559 C1556 1.511 . S
C1559 H1573 0.961 . S
C1559 H1574 0.961 . S
C1559 H1575 0.961 . S
C1560 C1561 1.370 . S
C1560 C1562 1.363 . S
C1560 H1576 0.931 1_655 S
C1561 C1560 1.370 . S
C1561 C1565 1.408 . S
C1562 C1560 1.363 . S
C1562 C1563 1.370 . S
C1562 C1566 1.524 1_655 S
C1563 C1555 1.503 . S
C1563 C1562 1.370 . S
C1563 C1564 1.403 . S
C1564 C1563 1.403 . S
C1564 C1565 1.404 . S
C1564 C1567 1.539 . S
C1565 C1561 1.408 . S
C1565 C1564 1.404 . S
C1565 H1577 0.930 . S
C1566 C1562 1.524 1_455 S
C1566 H1578 0.956 . S
C1566 H1579 0.961 . S
C1566 H1580 0.961 . S
C1567 C1564 1.539 . S
C1567 H1581 0.958 . S
C1567 H1582 0.961 . S
C1567 H1583 0.960 . S
H1568 C1552 0.931 . S
H1569 C1557 0.929 . S
H1570 C1558 0.960 . S
H1571 C1558 0.962 . S
H1572 C1558 0.960 . S
H1573 C1559 0.961 . S
H1574 C1559 0.961 . S
H1575 C1559 0.961 . S
H1576 C1560 0.931 1_455 S
H1577 C1565 0.930 . S
H1578 C1566 0.956 . S
H1579 C1566 0.961 . S
H1580 C1566 0.961 . S
H1581 C1567 0.958 . S
H1582 C1567 0.961 . S
H1583 C1567 0.960 . S
C1584 C1585 1.391 . S
C1584 C1586 1.394 1_554 S
C1584 H1600 0.931 . S
C1585 C1584 1.391 . S
C1585 C1589 1.376 . S
C1586 C1584 1.394 1_556 S
C1586 C1587 1.369 . S
C1586 C1590 1.531 . S
C1587 C1586 1.369 . S
C1587 C1588 1.410 . S
C1587 C1595 1.503 . S
C1588 C1587 1.410 . S
C1588 C1589 1.392 1_556 S
C1588 C1591 1.511 . S
C1589 C1585 1.376 . S
C1589 C1588 1.392 1_554 S
C1589 H1601 0.929 . S
C1590 C1586 1.531 . S
C1590 H1602 0.960 . S
C1590 H1603 0.962 . S
C1590 H1604 0.960 . S
C1591 C1588 1.511 . S
C1591 H1605 0.961 1_565 S
C1591 H1606 0.961 . S
C1591 H1607 0.961 . S
C1592 C1593 1.370 . S
C1592 C1594 1.363 . S
C1592 H1608 0.931 . S
C1593 C1592 1.370 . S
C1593 C1597 1.408 . S
C1594 C1592 1.363 . S
C1594 C1595 1.370 . S
C1594 C1598 1.553 . S
C1595 C1587 1.503 . S
C1595 C1594 1.370 . S
C1595 C1596 1.403 . S
C1596 C1595 1.403 . S
C1596 C1597 1.404 . S
C1596 C1599 1.539 . S
C1597 C1593 1.408 . S
C1597 C1596 1.404 . S
C1597 H1609 0.930 . S
C1598 C1594 1.553 . S
C1598 H1610 0.978 . S
C1598 H1611 0.943 1_565 S
C1598 H1612 0.930 1_565 S
C1599 C1596 1.539 . S
C1599 H1613 0.958 . S
C1599 H1614 0.961 . S
C1599 H1615 0.960 . S
H1600 C1584 0.931 . S
H1601 C1589 0.929 . S
H1602 C1590 0.960 . S
H1603 C1590 0.962 . S
H1604 C1590 0.960 . S
H1605 C1591 0.961 1_545 S
H1606 C1591 0.961 . S
H1607 C1591 0.961 . S
H1608 C1592 0.931 . S
H1609 C1597 0.930 . S
H1610 C1598 0.978 . S
H1611 C1598 0.943 1_545 S
H1612 C1598 0.930 1_545 S
H1613 C1599 0.958 . S
H1614 C1599 0.961 . S
H1615 C1599 0.960 . S
C1616 C1617 1.391 . S
C1616 C1618 1.394 . S
C1616 H1632 0.931 . S
C1617 C1616 1.391 . S
C1617 C1621 1.376 . S
C1618 C1616 1.394 . S
C1618 C1619 1.369 . S
C1618 C1622 1.531 . S
C1619 C1618 1.369 . S
C1619 C1620 1.410 . S
C1619 C1627 1.503 . S
C1620 C1619 1.410 . S
C1620 C1621 1.392 . S
C1620 C1623 1.511 . S
C1621 C1617 1.376 . S
C1621 C1620 1.392 . S
C1621 H1633 0.929 . S
C1622 C1618 1.531 . S
C1622 H1634 0.960 . S
C1622 H1635 0.962 . S
C1622 H1636 0.960 . S
C1623 C1620 1.511 . S
C1623 H1637 0.961 . S
C1623 H1638 0.961 . S
C1623 H1639 0.961 . S
C1624 C1625 1.370 . S
C1624 C1626 1.363 . S
C1624 H1640 0.931 . S
C1625 C1624 1.370 . S
C1625 C1629 1.408 . S
C1626 C1624 1.363 . S
C1626 C1627 1.370 . S
C1626 C1630 1.524 . S
C1627 C1619 1.503 . S
C1627 C1626 1.370 . S
C1627 C1628 1.403 . S
C1628 C1627 1.403 . S
C1628 C1629 1.404 . S
C1628 C1631 1.539 . S
C1629 C1625 1.408 . S
C1629 C1628 1.404 . S
C1629 H1641 0.930 . S
C1630 C1626 1.524 . S
C1630 H1642 0.956 . S
C1630 H1643 0.961 . S
C1630 H1644 0.961 . S
C1631 C1628 1.539 . S
C1631 H1645 0.958 . S
C1631 H1646 0.961 . S
C1631 H1647 0.960 . S
H1632 C1616 0.931 . S
H1633 C1621 0.929 . S
H1634 C1622 0.960 . S
H1635 C1622 0.962 . S
H1636 C1622 0.960 . S
H1637 C1623 0.961 . S
H1638 C1623 0.961 . S
H1639 C1623 0.961 . S
H1640 C1624 0.931 . S
H1641 C1629 0.930 . S
H1642 C1630 0.956 . S
H1643 C1630 0.961 . S
H1644 C1630 0.961 . S
H1645 C1631 0.958 . S
H1646 C1631 0.961 . S
H1647 C1631 0.960 . S
C1648 C1649 1.391 . S
C1648 C1650 1.394 1_554 S
C1648 H1664 0.931 . S
C1649 C1648 1.391 . S
C1649 C1653 1.376 . S
C1650 C1648 1.394 1_556 S
C1650 C1651 1.369 . S
C1650 C1654 1.531 . S
C1651 C1650 1.369 . S
C1651 C1652 1.410 . S
C1651 C1659 1.503 . S
C1652 C1651 1.410 . S
C1652 C1653 1.392 1_556 S
C1652 C1655 1.511 . S
C1653 C1649 1.376 . S
C1653 C1652 1.392 1_554 S
C1653 H1665 0.929 . S
C1654 C1650 1.531 . S
C1654 H1666 0.960 . S
C1654 H1667 0.962 . S
C1654 H1668 0.960 . S
C1655 C1652 1.511 . S
C1655 H1669 0.961 . S
C1655 H1670 0.961 . S
C1655 H1671 0.961 . S
C1656 C1657 1.370 . S
C1656 C1658 1.363 . S
C1656 H1672 0.931 . S
C1657 C1656 1.370 . S
C1657 C1661 1.408 . S
C1658 C1656 1.363 . S
C1658 C1659 1.370 . S
C1658 C1662 1.524 . S
C1659 C1651 1.503 . S
C1659 C1658 1.370 . S
C1659 C1660 1.403 . S
C1660 C1659 1.403 . S
C1660 C1661 1.404 . S
C1660 C1663 1.539 . S
C1661 C1657 1.408 . S
C1661 C1660 1.404 . S
C1661 H1673 0.930 . S
C1662 C1658 1.524 . S
C1662 H1674 0.956 . S
C1662 H1675 0.961 . S
C1662 H1676 0.961 . S
C1663 C1660 1.539 . S
C1663 H1677 0.958 . S
C1663 H1678 0.961 . S
C1663 H1679 0.960 . S
H1664 C1648 0.931 . S
H1665 C1653 0.929 . S
H1666 C1654 0.960 . S
H1667 C1654 0.962 . S
H1668 C1654 0.960 . S
H1669 C1655 0.961 . S
H1670 C1655 0.961 . S
H1671 C1655 0.961 . S
H1672 C1656 0.931 . S
H1673 C1661 0.930 . S
H1674 C1662 0.956 . S
H1675 C1662 0.961 . S
H1676 C1662 0.961 . S
H1677 C1663 0.958 . S
H1678 C1663 0.961 . S
H1679 C1663 0.960 . S
C1680 C1681 1.391 . S
C1680 C1682 1.394 . S
C1680 H1696 0.953 . S
C1681 C1680 1.391 . S
C1681 C1685 1.376 . S
C1682 C1680 1.394 . S
C1682 C1683 1.369 . S
C1682 C1686 1.531 1_655 S
C1683 C1682 1.369 . S
C1683 C1684 1.410 . S
C1683 C1691 1.503 . S
C1684 C1683 1.410 . S
C1684 C1685 1.392 . S
C1684 C1687 1.511 . S
C1685 C1681 1.376 . S
C1685 C1684 1.392 . S
C1685 H1697 0.929 . S
C1686 C1682 1.531 1_455 S
C1686 H1698 0.960 1_455 S
C1686 H1699 0.962 . S
C1686 H1700 0.960 . S
C1687 C1684 1.511 . S
C1687 H1701 0.961 . S
C1687 H1702 0.961 . S
C1687 H1703 0.961 . S
C1688 C1689 1.370 . S
C1688 C1690 1.363 1_556 S
C1688 H1704 0.931 . S
C1689 C1688 1.370 . S
C1689 C1693 1.408 . S
C1690 C1688 1.363 1_554 S
C1690 C1691 1.370 . S
C1690 C1694 1.524 . S
C1691 C1683 1.503 . S
C1691 C1690 1.370 . S
C1691 C1692 1.403 . S
C1692 C1691 1.403 . S
C1692 C1693 1.404 1_554 S
C1692 C1695 1.539 . S
C1693 C1689 1.408 . S
C1693 C1692 1.404 1_556 S
C1693 H1705 0.930 . S
C1694 C1690 1.524 . S
C1694 H1706 0.992 . S
C1694 H1707 0.961 . S
C1694 H1708 0.961 . S
C1695 C1692 1.539 . S
C1695 H1709 0.958 . S
C1695 H1710 0.961 . S
C1695 H1711 0.960 . S
H1696 C1680 0.953 . S
H1697 C1685 0.929 . S
H1698 C1686 0.960 1_655 S
H1699 C1686 0.962 . S
H1700 C1686 0.960 . S
H1701 C1687 0.961 . S
H1702 C1687 0.961 . S
H1703 C1687 0.961 . S
H1704 C1688 0.931 . S
H1705 C1693 0.930 . S
H1706 C1694 0.992 . S
H1707 C1694 0.961 . S
H1708 C1694 0.961 . S
H1709 C1695 0.958 . S
H1710 C1695 0.961 . S
H1711 C1695 0.960 . S
C1712 C1713 1.391 . S
C1712 C1714 1.394 . S
C1712 H1728 0.931 . S
C1713 C1712 1.391 . S
C1713 C1717 1.376 . S
C1714 C1712 1.394 . S
C1714 C1715 1.369 . S
C1714 C1718 1.531 1_565 S
C1715 C1714 1.369 . S
C1715 C1716 1.410 . S
C1715 C1723 1.503 . S
C1716 C1715 1.410 . S
C1716 C1717 1.392 . S
C1716 C1719 1.511 . S
C1717 C1713 1.376 . S
C1717 C1716 1.392 . S
C1717 H1729 0.929 . S
C1718 C1714 1.531 1_545 S
C1718 H1730 0.960 . S
C1718 H1731 0.962 1_545 S
C1718 H1732 0.960 . S
C1719 C1716 1.511 . S
C1719 H1733 0.961 . S
C1719 H1734 0.961 . S
C1719 H1735 0.961 . S
C1720 C1721 1.370 . S
C1720 C1722 1.363 . S
C1720 H1736 0.931 . S
C1721 C1720 1.370 . S
C1721 C1725 1.408 . S
C1722 C1720 1.363 . S
C1722 C1723 1.370 . S
C1722 C1726 1.524 . S
C1723 C1715 1.503 . S
C1723 C1722 1.370 . S
C1723 C1724 1.403 . S
C1724 C1723 1.403 . S
C1724 C1725 1.404 . S
C1724 C1727 1.559 . S
C1725 C1721 1.408 . S
C1725 C1724 1.404 . S
C1725 H1737 0.930 . S
C1726 C1722 1.524 . S
C1726 H1738 0.956 . S
C1726 H1739 0.961 . S
C1726 H1740 0.961 . S
C1727 C1724 1.559 . S
C1727 H1741 0.928 1_565 S
C1727 H1742 0.961 . S
C1727 H1743 0.971 . S
H1728 C1712 0.931 . S
H1729 C1717 0.929 . S
H1730 C1718 0.960 . S
H1731 C1718 0.962 1_565 S
H1732 C1718 0.960 . S
H1733 C1719 0.961 . S
H1734 C1719 0.961 . S
H1735 C1719 0.961 . S
H1736 C1720 0.931 . S
H1737 C1725 0.930 . S
H1738 C1726 0.956 . S
H1739 C1726 0.961 . S
H1740 C1726 0.961 . S
H1741 C1727 0.928 1_545 S
H1742 C1727 0.961 . S
H1743 C1727 0.971 . S
C1744 C1745 1.391 . S
C1744 C1746 1.394 1_556 S
C1744 H1760 0.931 . S
C1745 C1744 1.391 . S
C1745 C1749 1.376 . S
C1746 C1744 1.394 1_554 S
C1746 C1747 1.369 . S
C1746 C1750 1.531 . S
C1747 C1746 1.369 . S
C1747 C1748 1.410 . S
C1747 C1755 1.503 . S
C1748 C1747 1.410 . S
C1748 C1749 1.392 1_554 S
C1748 C1751 1.511 . S
C1749 C1745 1.376 . S
C1749 C1748 1.392 1_556 S
C1749 H1761 0.929 . S
C1750 C1746 1.531 . S
C1750 H1762 0.960 . S
C1750 H1763 0.962 . S
C1750 H1764 0.960 . S
C1751 C1748 1.511 . S
C1751 H1765 0.961 . S
C1751 H1766 0.961 . S
C1751 H1767 0.961 . S
C1752 C1753 1.370 . S
C1752 C1754 1.363 . S
C1752 H1768 0.931 . S
C1753 C1752 1.370 . S
C1753 C1757 1.408 . S
C1754 C1752 1.363 . S
C1754 C1755 1.370 . S
C1754 C1758 1.524 . S
C1755 C1747 1.503 . S
C1755 C1754 1.370 . S
C1755 C1756 1.403 . S
C1756 C1755 1.403 . S
C1756 C1757 1.404 . S
C1756 C1759 1.539 . S
C1757 C1753 1.408 . S
C1757 C1756 1.404 . S
C1757 H1769 0.930 . S
C1758 C1754 1.524 . S
C1758 H1770 0.956 . S
C1758 H1771 0.961 . S
C1758 H1772 0.961 . S
C1759 C1756 1.539 . S
C1759 H1773 0.958 . S
C1759 H1774 0.961 . S
C1759 H1775 0.960 . S
H1760 C1744 0.931 . S
H1761 C1749 0.929 . S
H1762 C1750 0.960 . S
H1763 C1750 0.962 . S
H1764 C1750 0.960 . S
H1765 C1751 0.961 . S
H1766 C1751 0.961 . S
H1767 C1751 0.961 . S
H1768 C1752 0.931 . S
H1769 C1757 0.930 . S
H1770 C1758 0.956 . S
H1771 C1758 0.961 . S
H1772 C1758 0.961 . S
H1773 C1759 0.958 . S
H1774 C1759 0.961 . S
H1775 C1759 0.960 . S
C1776 C1777 1.391 . S
C1776 C1778 1.394 . S
C1776 H1792 0.931 . S
C1777 C1776 1.391 . S
C1777 C1781 1.376 . S
C1778 C1776 1.394 . S
C1778 C1779 1.369 . S
C1778 C1782 1.531 . S
C1779 C1778 1.369 . S
C1779 C1780 1.410 . S
C1779 C1787 1.503 . S
C1780 C1779 1.410 . S
C1780 C1781 1.392 . S
C1780 C1783 1.511 . S
C1781 C1777 1.376 . S
C1781 C1780 1.392 . S
C1781 H1793 0.929 . S
C1782 C1778 1.531 . S
C1782 H1794 0.960 . S
C1782 H1795 0.962 . S
C1782 H1796 0.960 . S
C1783 C1780 1.511 . S
C1783 H1797 0.961 . S
C1783 H1798 0.961 . S
C1783 H1799 0.961 . S
C1784 C1785 1.370 . S
C1784 C1786 1.363 . S
C1784 H1800 0.931 . S
C1785 C1784 1.370 . S
C1785 C1789 1.408 . S
C1786 C1784 1.363 . S
C1786 C1787 1.370 . S
C1786 C1790 1.524 . S
C1787 C1779 1.503 . S
C1787 C1786 1.370 . S
C1787 C1788 1.403 . S
C1788 C1787 1.403 . S
C1788 C1789 1.404 . S
C1788 C1791 1.539 . S
C1789 C1785 1.408 . S
C1789 C1788 1.404 . S
C1789 H1801 0.930 . S
C1790 C1786 1.524 . S
C1790 H1802 0.956 . S
C1790 H1803 0.961 . S
C1790 H1804 0.961 . S
C1791 C1788 1.539 . S
C1791 H1805 0.958 . S
C1791 H1806 0.961 . S
C1791 H1807 0.960 . S
H1792 C1776 0.931 . S
H1793 C1781 0.929 . S
H1794 C1782 0.960 . S
H1795 C1782 0.962 . S
H1796 C1782 0.960 . S
H1797 C1783 0.961 . S
H1798 C1783 0.961 . S
H1799 C1783 0.961 . S
H1800 C1784 0.931 . S
H1801 C1789 0.930 . S
H1802 C1790 0.956 . S
H1803 C1790 0.961 . S
H1804 C1790 0.961 . S
H1805 C1791 0.958 . S
H1806 C1791 0.961 . S
H1807 C1791 0.960 . S
C529 C17 1.506 . S
C537 C512 1.514 . S
C561 C50 1.527 . S
C569 C413 1.524 . S
C593 C446 1.526 . S
C601 C83 1.524 . S
C625 C116 1.511 . S
C633 C479 1.516 . S
C657 C314 1.514 . S
C665 C149 1.517 . S
C689 C347 1.518 . S
C697 C182 1.521 . S
C721 C380 1.507 . S
C729 C215 1.514 . S
C753 C281 1.511 . S
C761 C248 1.516 . S
C785 C8 1.372 . S
C793 C239 1.361 . S
C817 C41 1.360 . S
C825 C140 1.364 . S
C849 C74 1.354 . S
C857 C173 1.352 . S
C881 C107 1.374 . S
C889 C206 1.367 . S
C913 C503 1.371 . S
C921 C272 1.367 . S
C945 C404 1.364 . S
C953 C305 1.367 . S
C977 C437 1.374 . S
C985 C338 1.360 . S
C1009 C371 1.331 . S
C1017 C470 1.351 . S
C1041 C28 1.021 . S
C1049 C160 1.012 . S
C1073 C193 1.008 . S
C1081 C61 1.015 . S
C1105 C226 1.007 . S
C1113 C94 1.020 . S
C1137 C127 1.016 . S
C1145 C259 1.018 . S
C1169 C424 1.007 . S
C1177 C292 1.014 . S
C1201 C325 1.005 . S
C1209 C457 1.015 . S
C1233 C358 1.023 . S
C1241 C490 1.015 . S
C1265 C523 1.009 . S
C1273 C391 1.019 . S
C1297 N14 1.346 . S
C1305 N5 1.378 . S
C1329 N38 1.349 . S
C1337 N47 1.374 . S
C1361 N80 1.381 . S
C1369 N71 1.366 . S
C1393 N104 1.355 . S
C1401 N113 1.374 . S
C1425 N146 1.383 . S
C1433 N137 1.363 . S
C1457 N179 1.366 . S
C1465 N170 1.367 . S
C1489 N212 1.378 . S
C1497 N203 1.364 . S
C1521 N245 1.357 . S
C1529 N236 1.371 . S
C1553 N269 1.350 . S
C1561 N278 1.375 . S
C1585 N302 1.360 . S
C1593 N311 1.370 . S
C1617 N335 1.380 . S
C1625 N344 1.360 . S
C1649 N368 1.385 . S
C1657 N377 1.358 . S
C1681 N410 1.366 . S
C1689 N401 1.370 . S
C1713 N443 1.344 . S
C1721 N434 1.377 . S
C1745 N467 1.352 . S
C1753 N476 1.374 . S
C1777 N500 1.357 . S
C1785 N509 1.371 . S
