# Generated by pormake.
# Topology uol, (4)-cn, num edge types: 1
# Building blocks:
#     Node 0, Type 0, BuildingBlock: ICAMEG_clean_sbu_1, # of connection points: 4
#     Node 1, Type 0, BuildingBlock: ICAMEG_clean_sbu_1, # of connection points: 4
#     Node 2, Type 0, BuildingBlock: ICAMEG_clean_sbu_1, # of connection points: 4
#     Node 3, Type 0, BuildingBlock: ICAMEG_clean_sbu_1, # of connection points: 4
#     Node 4, Type 0, BuildingBlock: ICAMEG_clean_sbu_1, # of connection points: 4
#     Node 5, Type 0, BuildingBlock: ICAMEG_clean_sbu_1, # of connection points: 4
#     Node 6, Type 0, BuildingBlock: ICAMEG_clean_sbu_1, # of connection points: 4
#     Node 7, Type 0, BuildingBlock: ICAMEG_clean_sbu_1, # of connection points: 4
#     Node 8, Type 0, BuildingBlock: ICAMEG_clean_sbu_1, # of connection points: 4
#     Node 9, Type 0, BuildingBlock: ICAMEG_clean_sbu_1, # of connection points: 4
#     Node 10, Type 0, BuildingBlock: ICAMEG_clean_sbu_1, # of connection points: 4
#     Node 11, Type 0, BuildingBlock: ICAMEG_clean_sbu_1, # of connection points: 4
#     Edge 12, Type (0, 0), BuildingBlock: ZUJKAS_clean_linker_0, # of connection points: 2
#     Edge 13, Type (0, 0), BuildingBlock: ZUJKAS_clean_linker_0, # of connection points: 2
#     Edge 14, Type (0, 0), BuildingBlock: ZUJKAS_clean_linker_0, # of connection points: 2
#     Edge 15, Type (0, 0), BuildingBlock: ZUJKAS_clean_linker_0, # of connection points: 2
#     Edge 16, Type (0, 0), BuildingBlock: ZUJKAS_clean_linker_0, # of connection points: 2
#     Edge 17, Type (0, 0), BuildingBlock: ZUJKAS_clean_linker_0, # of connection points: 2
#     Edge 18, Type (0, 0), BuildingBlock: ZUJKAS_clean_linker_0, # of connection points: 2
#     Edge 19, Type (0, 0), BuildingBlock: ZUJKAS_clean_linker_0, # of connection points: 2
#     Edge 20, Type (0, 0), BuildingBlock: ZUJKAS_clean_linker_0, # of connection points: 2
#     Edge 21, Type (0, 0), BuildingBlock: ZUJKAS_clean_linker_0, # of connection points: 2
#     Edge 22, Type (0, 0), BuildingBlock: ZUJKAS_clean_linker_0, # of connection points: 2
#     Edge 23, Type (0, 0), BuildingBlock: ZUJKAS_clean_linker_0, # of connection points: 2
#     Edge 24, Type (0, 0), BuildingBlock: ZUJKAS_clean_linker_0, # of connection points: 2
#     Edge 25, Type (0, 0), BuildingBlock: ZUJKAS_clean_linker_0, # of connection points: 2
#     Edge 26, Type (0, 0), BuildingBlock: ZUJKAS_clean_linker_0, # of connection points: 2
#     Edge 27, Type (0, 0), BuildingBlock: ZUJKAS_clean_linker_0, # of connection points: 2
#     Edge 28, Type (0, 0), BuildingBlock: ZUJKAS_clean_linker_0, # of connection points: 2
#     Edge 29, Type (0, 0), BuildingBlock: ZUJKAS_clean_linker_0, # of connection points: 2
#     Edge 30, Type (0, 0), BuildingBlock: ZUJKAS_clean_linker_0, # of connection points: 2
#     Edge 31, Type (0, 0), BuildingBlock: ZUJKAS_clean_linker_0, # of connection points: 2
#     Edge 32, Type (0, 0), BuildingBlock: ZUJKAS_clean_linker_0, # of connection points: 2
#     Edge 33, Type (0, 0), BuildingBlock: ZUJKAS_clean_linker_0, # of connection points: 2
#     Edge 34, Type (0, 0), BuildingBlock: ZUJKAS_clean_linker_0, # of connection points: 2
#     Edge 35, Type (0, 0), BuildingBlock: ZUJKAS_clean_linker_0, # of connection points: 2
# Relax obj value: 0.052
# Max RMSD: 0.107
# Mean RMSD: 0.107
data_MOF--net-uol--node1-ICAMEG_clean_sbu_1--edge1-ZUJKAS_clean_linker_0
_symmetry_space_group_name_H-M    P1
_symmetry_Int_Tables_number       1
_symmetry_cell_setting            triclinic
loop_
_symmetry_equiv_pos_as_xyz
'x, y, z'
_cell_length_a     44.896732
_cell_length_b     44.888785
_cell_length_c     91.52633
_cell_angle_alpha  90.000586
_cell_angle_beta   89.986905
_cell_angle_gamma 120.00266
loop_
_atom_site_label
_atom_site_type_symbol
_atom_site_fract_x
_atom_site_fract_y
_atom_site_fract_z
_atom_type_partial_charge
Co0 Co 0.07396 0.29118 0.1122 0.0
Co1 Co 0.1476 0.36838 0.11947 0.0
O2 O 0.09775 0.33869 0.11902 0.0
C3 C 0.04889 0.28664 0.14221 0.0
O4 O 0.08128 0.30553 0.14603 0.0
C5 C 0.12236 0.4057 0.10169 0.0
O6 O 0.10343 0.3766 0.09474 0.0
O7 O 0.15211 0.35587 0.09908 0.0
O8 O 0.10666 0.30305 0.09553 0.0
H9 H 0.27025 0.39842 0.11154 0.0
H10 H 0.03424 0.3266 0.11767 0.0
O11 O 0.04093 0.27841 0.12888 0.0
H12 H 0.01638 0.29459 0.06554 0.0
H13 H 0.96885 0.17692 0.10149 0.0
H14 H 0.09565 0.24286 0.1011 0.0
H15 H 0.05177 0.27936 0.08101 0.0
H16 H 6e-05 0.23746 0.10957 0.0
O17 O 0.14228 0.40735 0.11196 0.0
H18 H 0.20722 0.3606 0.11123 0.0
H19 H 0.19408 0.44113 0.12846 0.0
H20 H 0.06549 0.18248 0.09281 0.0
H21 H 0.99845 0.34212 0.10262 0.0
H22 H 0.00162 0.1491 0.09297 0.0
H23 H 0.98944 0.3262 0.07634 0.0
O24 O 0.10388 0.28002 0.12432 0.0
H25 H 0.0962 0.40478 0.15961 0.0
H26 H 0.18301 0.37197 0.14753 0.0
H27 H 0.17687 0.38584 0.17303 0.0
H28 H 0.13324 0.40244 0.1792 0.0
H29 H 0.103 0.39042 0.13427 0.0
H30 H 0.25697 0.47993 0.12886 0.0
H31 H 0.2955 0.45856 0.12041 0.0
O32 O 0.15362 0.3299 0.12695 0.0
C33 C 0.13515 0.3287 0.09145 0.0
C34 C 0.25374 0.40799 0.1153 0.0
C35 C 0.24628 0.45376 0.125 0.0
N36 N 0.19704 0.39857 0.11994 0.0
C37 C 0.21804 0.38667 0.11519 0.0
C38 C 0.2107 0.4317 0.12472 0.0
C39 C 0.26789 0.44174 0.12026 0.0
C40 C 0.03012 0.31926 0.10628 0.0
N41 N 0.04492 0.30195 0.10024 0.0
C42 C 0.00996 0.32825 0.0978 0.0
C43 C 0.00496 0.31936 0.08305 0.0
C44 C 0.0201 0.30165 0.07698 0.0
C45 C 0.04016 0.29315 0.08578 0.0
C46 C 0.99668 0.19123 0.10132 0.0
C47 C 0.06785 0.22857 0.10109 0.0
C48 C 0.01449 0.22549 0.10591 0.0
N49 N 0.04962 0.24376 0.10565 0.0
C50 C 0.05092 0.19436 0.09644 0.0
C51 C 0.01509 0.17563 0.09655 0.0
C52 C 0.13498 0.29743 0.12867 0.0
C53 C 0.11537 0.39769 0.15705 0.0
C54 C 0.16392 0.3791 0.15013 0.0
C55 C 0.16061 0.38699 0.16459 0.0
C56 C 0.13613 0.39632 0.16804 0.0
N57 N 0.1435 0.38056 0.13941 0.0
C58 C 0.11944 0.38967 0.14271 0.0
Co59 Co 0.78036 0.07291 0.28019 0.0
Co60 Co 0.77696 0.14719 0.28585 0.0
O61 O 0.75631 0.09727 0.28575 0.0
C62 C 0.75489 0.04872 0.30983 0.0
O63 O 0.76698 0.0812 0.31318 0.0
C64 C 0.71594 0.12195 0.26705 0.0
O65 O 0.72633 0.10265 0.26057 0.0
O66 O 0.79571 0.15078 0.26585 0.0
O67 O 0.80346 0.10523 0.26356 0.0
H68 H 0.87121 0.26919 0.27796 0.0
H69 H 0.70464 0.03394 0.28403 0.0
O70 O 0.75793 0.04032 0.29686 0.0
H71 H 0.72474 0.01462 0.23282 0.0
H72 H 0.78939 0.96687 0.27182 0.0
H73 H 0.85144 0.09371 0.27092 0.0
H74 H 0.77355 0.05001 0.24917 0.0
H75 H 0.7597 0.99876 0.27835 0.0
O76 O 0.73362 0.14212 0.27736 0.0
H77 H 0.84536 0.20608 0.27818 0.0
H78 H 0.75076 0.1946 0.29334 0.0
H79 H 0.88206 0.06287 0.2642 0.0
H80 H 0.65508 0.99819 0.26809 0.0
H81 H 0.85098 0.99898 0.26463 0.0
H82 H 0.66499 0.98843 0.24227 0.0
O83 O 0.81997 0.10273 0.29301 0.0
H84 H 0.6855 0.09791 0.32463 0.0
H85 H 0.80653 0.18328 0.31405 0.0
H86 H 0.78432 0.17808 0.33913 0.0
H87 H 0.72339 0.13516 0.34454 0.0
H88 H 0.70884 0.10376 0.29973 0.0
H89 H 0.77549 0.25759 0.29318 0.0
H90 H 0.83618 0.29533 0.2855 0.0
O91 O 0.82058 0.15304 0.29434 0.0
C92 C 0.80676 0.13356 0.25894 0.0
C93 C 0.84477 0.25303 0.28138 0.0
C94 C 0.79103 0.24651 0.2899 0.0
N95 N 0.7967 0.19673 0.28589 0.0
C96 C 0.83004 0.21728 0.28157 0.0
C97 C 0.77716 0.21087 0.28995 0.0
C98 C 0.82509 0.26767 0.28559 0.0
C99 C 0.70916 0.0295 0.27286 0.0
N100 N 0.74194 0.04388 0.26756 0.0
C101 C 0.681 0.00936 0.26386 0.0
C102 C 0.68657 0.00395 0.24937 0.0
C103 C 0.72009 0.01866 0.24406 0.0
C104 C 0.74762 0.03872 0.25336 0.0
C105 C 0.80318 0.99471 0.27155 0.0
C106 C 0.83769 0.0659 0.27102 0.0
C107 C 0.78652 0.01289 0.27525 0.0
N108 N 0.80375 0.04804 0.27486 0.0
C109 C 0.85519 0.04859 0.26726 0.0
C110 C 0.83774 0.01274 0.26751 0.0
C111 C 0.83372 0.13411 0.29697 0.0
C112 C 0.71207 0.11678 0.32239 0.0
C113 C 0.78 0.1645 0.31633 0.0
C114 C 0.76755 0.16172 0.33054 0.0
C115 C 0.73335 0.13765 0.33357 0.0
N116 N 0.75895 0.14395 0.30542 0.0
C117 C 0.72538 0.12032 0.3083 0.0
Co118 Co 0.70589 0.78256 0.44533 0.0
Co119 Co 0.63023 0.77983 0.45509 0.0
O120 O 0.65914 0.75908 0.453 0.0
C121 C 0.71271 0.76056 0.47472 0.0
O122 O 0.69415 0.77391 0.47922 0.0
C123 C 0.59056 0.71972 0.43618 0.0
O124 O 0.61873 0.73086 0.42841 0.0
O125 O 0.64149 0.79921 0.43497 0.0
O126 O 0.69259 0.80412 0.42949 0.0
H127 H 0.60161 0.87444 0.45148 0.0
H128 H 0.66991 0.70721 0.45031 0.0
O129 O 0.72 0.76148 0.46121 0.0
H130 H 0.69689 0.72262 0.39767 0.0
H131 H 0.81824 0.79067 0.43152 0.0
H132 H 0.75339 0.85253 0.43395 0.0
H133 H 0.71442 0.7729 0.41367 0.0
H134 H 0.75871 0.76175 0.44087 0.0
O135 O 0.59029 0.73659 0.44732 0.0
H136 H 0.63857 0.84853 0.44905 0.0
H137 H 0.55839 0.75351 0.46542 0.0
H138 H 0.81274 0.88234 0.42441 0.0
H139 H 0.65212 0.65621 0.43472 0.0
H140 H 0.84557 0.85136 0.42316 0.0
H141 H 0.66551 0.66376 0.40819 0.0
O142 O 0.71895 0.82348 0.45793 0.0
H143 H 0.59573 0.68773 0.49321 0.0
H144 H 0.62953 0.80895 0.48429 0.0
H145 H 0.61754 0.78634 0.50947 0.0
H146 H 0.60047 0.72531 0.51405 0.0
H147 H 0.60823 0.71146 0.46822 0.0
H148 H 0.52046 0.77831 0.46793 0.0
H149 H 0.54209 0.83923 0.46098 0.0
O150 O 0.66971 0.82319 0.46283 0.0
C151 C 0.66738 0.8087 0.42656 0.0
C152 C 0.59193 0.84789 0.45459 0.0
C153 C 0.54637 0.79393 0.46381 0.0
N154 N 0.60074 0.79964 0.4572 0.0
C155 C 0.61277 0.83312 0.45328 0.0
C156 C 0.56793 0.78001 0.46233 0.0
C157 C 0.55853 0.82812 0.45991 0.0
C158 C 0.67613 0.7107 0.4388 0.0
N159 N 0.69333 0.74299 0.43292 0.0
C160 C 0.66586 0.68173 0.43001 0.0
C161 C 0.67334 0.68598 0.41512 0.0
C162 C 0.69093 0.719 0.40921 0.0
C163 C 0.70074 0.74737 0.41832 0.0
C164 C 0.80417 0.80442 0.43199 0.0
C165 C 0.76744 0.83882 0.43335 0.0
C166 C 0.7705 0.7882 0.4373 0.0
N167 N 0.75253 0.80536 0.43784 0.0
C168 C 0.80107 0.85586 0.42798 0.0
C169 C 0.81949 0.83847 0.42729 0.0
C170 C 0.70236 0.83691 0.46352 0.0
C171 C 0.60304 0.71434 0.49135 0.0
C172 C 0.62216 0.78237 0.4862 0.0
C173 C 0.61535 0.7697 0.50047 0.0
C174 C 0.60575 0.73545 0.50304 0.0
N175 N 0.6194 0.76149 0.47479 0.0
C176 C 0.61001 0.72788 0.47721 0.0
Co177 Co 0.92505 0.70764 0.61213 0.0
Co178 Co 0.85019 0.63059 0.61761 0.0
O179 O 0.90015 0.65962 0.61825 0.0
C180 C 0.94862 0.70968 0.64226 0.0
O181 O 0.91603 0.69091 0.64582 0.0
C182 C 0.87642 0.59302 0.60066 0.0
O183 O 0.89618 0.62219 0.5939 0.0
O184 O 0.84873 0.6439 0.59707 0.0
O185 O 0.89327 0.69784 0.5952 0.0
H186 H 0.72935 0.60257 0.60638 0.0
H187 H 0.96344 0.6707 0.61709 0.0
O188 O 0.9572 0.71849 0.62901 0.0
H189 H 0.98432 0.70714 0.5655 0.0
H190 H 0.03188 0.82175 0.60321 0.0
H191 H 0.90508 0.75778 0.60175 0.0
H192 H 0.94876 0.72182 0.58115 0.0
H193 H 0.9994 0.7606 0.61038 0.0
O194 O 0.85574 0.59142 0.61057 0.0
H195 H 0.79241 0.63965 0.60754 0.0
H196 H 0.80171 0.55783 0.62595 0.0
H197 H 0.93653 0.81881 0.59436 0.0
H198 H 0.99939 0.6557 0.60187 0.0
H199 H 0.0004 0.85121 0.59507 0.0
H200 H 0.00992 0.67385 0.57586 0.0
O201 O 0.89515 0.71829 0.62448 0.0
H202 H 0.89483 0.59151 0.6594 0.0
H203 H 0.81154 0.62707 0.64467 0.0
H204 H 0.81397 0.61222 0.67042 0.0
H205 H 0.85581 0.59423 0.67792 0.0
H206 H 0.89175 0.60689 0.6338 0.0
H207 H 0.73875 0.51976 0.62489 0.0
H208 H 0.70213 0.54215 0.6151 0.0
O209 O 0.84379 0.66934 0.62453 0.0
C210 C 0.86592 0.6722 0.5902 0.0
C211 C 0.74502 0.59256 0.61072 0.0
C212 C 0.7503 0.54606 0.62109 0.0
N213 N 0.80066 0.601 0.61693 0.0
C214 C 0.78073 0.61346 0.61145 0.0
C215 C 0.78593 0.56771 0.62164 0.0
C216 C 0.72977 0.55865 0.6156 0.0
C217 C 0.96822 0.679 0.60583 0.0
N218 N 0.95416 0.69724 0.60004 0.0
C219 C 0.98847 0.6703 0.59724 0.0
C220 C 0.99431 0.68045 0.58264 0.0
C221 C 0.97994 0.69911 0.57682 0.0
C222 C 0.95977 0.70728 0.58573 0.0
C223 C 0.00405 0.80789 0.60282 0.0
C224 C 0.93288 0.77165 0.60198 0.0
C225 C 0.98553 0.77328 0.60688 0.0
N226 N 0.9504 0.75558 0.60633 0.0
C227 C 0.95054 0.80623 0.59783 0.0
C228 C 0.98637 0.8244 0.59825 0.0
C229 C 0.86316 0.70117 0.62748 0.0
C230 C 0.87642 0.59921 0.65626 0.0
C231 C 0.82988 0.61935 0.64786 0.0
C232 C 0.83108 0.6109 0.66245 0.0
C233 C 0.85455 0.60079 0.66665 0.0
N234 N 0.85137 0.61768 0.63773 0.0
C235 C 0.87446 0.60781 0.64176 0.0
Co236 Co 0.2164 0.9238 0.78112 0.0
Co237 Co 0.22012 0.84953 0.78553 0.0
O238 O 0.24083 0.8995 0.78616 0.0
C239 C 0.24347 0.94871 0.81056 0.0
O240 O 0.23175 0.91636 0.81405 0.0
C241 C 0.28239 0.8759 0.76744 0.0
O242 O 0.27244 0.89562 0.76103 0.0
O243 O 0.20324 0.84783 0.76535 0.0
O244 O 0.19195 0.89125 0.76465 0.0
H245 H 0.12685 0.72836 0.77512 0.0
H246 H 0.29233 0.96309 0.7839 0.0
O247 O 0.23999 0.95669 0.79757 0.0
H248 H 0.26819 0.98163 0.73319 0.0
H249 H 0.20638 0.02952 0.77353 0.0
H250 H 0.14459 0.90268 0.77299 0.0
H251 H 0.22071 0.94623 0.75013 0.0
H252 H 0.23672 0.99789 0.77935 0.0
O253 O 0.26416 0.85527 0.77753 0.0
H254 H 0.15256 0.79139 0.77636 0.0
H255 H 0.24556 0.80144 0.79286 0.0
H256 H 0.11332 0.93326 0.76697 0.0
H257 H 0.34059 0.9989 0.76736 0.0
H258 H 0.14427 0.99715 0.76722 0.0
H259 H 0.32864 0.00827 0.74178 0.0
O260 O 0.1781 0.89413 0.79452 0.0
H261 H 0.3081 0.89483 0.82573 0.0
H262 H 0.1879 0.81112 0.81302 0.0
H263 H 0.20785 0.81392 0.83835 0.0
H264 H 0.26837 0.85598 0.84484 0.0
H265 H 0.28699 0.8914 0.80056 0.0
H266 H 0.22095 0.73852 0.79171 0.0
H267 H 0.16112 0.70153 0.78283 0.0
O268 O 0.17556 0.84279 0.79342 0.0
C269 C 0.1903 0.86426 0.75923 0.0
C270 C 0.15289 0.74419 0.77906 0.0
C271 C 0.20572 0.7499 0.78835 0.0
N272 N 0.20039 0.80002 0.78481 0.0
C273 C 0.16755 0.77988 0.77983 0.0
C274 C 0.21954 0.7855 0.78896 0.0
C275 C 0.17215 0.72916 0.78338 0.0
C276 C 0.28693 0.96736 0.77283 0.0
N277 N 0.25376 0.95273 0.768 0.0
C278 C 0.31436 0.98753 0.7635 0.0
C279 C 0.30763 0.99272 0.74914 0.0
C280 C 0.27372 0.97776 0.74431 0.0
C281 C 0.24695 0.95768 0.75394 0.0
C282 C 0.19264 0.00168 0.77335 0.0
C283 C 0.15828 0.93048 0.77301 0.0
C284 C 0.20966 0.98364 0.77665 0.0
N285 N 0.1925 0.94849 0.77636 0.0
C286 C 0.14042 0.94766 0.76964 0.0
C287 C 0.15779 0.9835 0.7698 0.0
C288 C 0.16351 0.86204 0.79725 0.0
C289 C 0.28171 0.87632 0.82303 0.0
C290 C 0.21424 0.82956 0.81576 0.0
C291 C 0.22542 0.83097 0.83012 0.0
C292 C 0.25938 0.85456 0.83375 0.0
N293 N 0.23631 0.85098 0.80531 0.0
C294 C 0.26965 0.87415 0.80878 0.0
Co295 Co 0.29229 0.21708 0.94643 0.0
Co296 Co 0.36872 0.22006 0.95491 0.0
O297 O 0.33955 0.24067 0.95349 0.0
C298 C 0.28756 0.23978 0.97602 0.0
O299 O 0.30597 0.2261 0.98032 0.0
C300 C 0.40629 0.28034 0.93592 0.0
O301 O 0.37717 0.26943 0.9289 0.0
O302 O 0.35598 0.2005 0.93487 0.0
O303 O 0.30434 0.19517 0.93027 0.0
H304 H 0.39728 0.12559 0.95019 0.0
H305 H 0.32859 0.29254 0.95117 0.0
O306 O 0.27946 0.23857 0.96261 0.0
H307 H 0.2977 0.2761 0.89892 0.0
H308 H 0.17894 0.2087 0.93444 0.0
H309 H 0.24391 0.14686 0.93556 0.0
H310 H 0.28135 0.22613 0.91498 0.0
H311 H 0.23917 0.23782 0.94292 0.0
O312 O 0.40797 0.26322 0.94668 0.0
H313 H 0.36004 0.15134 0.94858 0.0
H314 H 0.44136 0.24667 0.96411 0.0
H315 H 0.18384 0.11684 0.9269 0.0
H316 H 0.34524 0.34323 0.93553 0.0
H317 H 0.15094 0.14781 0.9263 0.0
H318 H 0.32989 0.33517 0.90919 0.0
O319 O 0.28026 0.17642 0.95905 0.0
H320 H 0.40604 0.31259 0.993 0.0
H321 H 0.37179 0.19133 0.98387 0.0
H322 H 0.38578 0.21426 0.00897 0.0
H323 H 0.40309 0.27532 0.01365 0.0
H324 H 0.39157 0.28854 0.96809 0.0
H325 H 0.47958 0.22203 0.96577 0.0
H326 H 0.45752 0.16103 0.95883 0.0
O327 O 0.32987 0.17673 0.96304 0.0
C328 C 0.32942 0.19072 0.92688 0.0
C329 C 0.40715 0.15216 0.95329 0.0
C330 C 0.45336 0.20631 0.96202 0.0
N331 N 0.39844 0.20037 0.95636 0.0
C332 C 0.38616 0.16685 0.95245 0.0
C333 C 0.43163 0.22013 0.96102 0.0
C334 C 0.44096 0.17208 0.95813 0.0
C335 C 0.3215 0.28881 0.93975 0.0
N336 N 0.30388 0.25641 0.93401 0.0
C337 C 0.33112 0.31762 0.93094 0.0
C338 C 0.32255 0.31308 0.91615 0.0
C339 C 0.30452 0.27994 0.91038 0.0
C340 C 0.29538 0.25175 0.91952 0.0
C341 C 0.19303 0.19495 0.93462 0.0
C342 C 0.22983 0.16057 0.93524 0.0
C343 C 0.22711 0.21129 0.93943 0.0
N344 N 0.2451 0.19413 0.93961 0.0
C345 C 0.19579 0.14341 0.93037 0.0
C346 C 0.17734 0.16079 0.93005 0.0
C347 C 0.29729 0.16303 0.96423 0.0
C348 C 0.39864 0.28598 0.99109 0.0
C349 C 0.37926 0.21792 0.98583 0.0
C350 C 0.3872 0.23077 6e-05 0.0
C351 C 0.39693 0.26504 0.00268 0.0
N352 N 0.38106 0.23864 0.97452 0.0
C353 C 0.39056 0.27225 0.977 0.0
Co354 Co 0.70785 0.92527 0.71848 0.0
Co355 Co 0.63042 0.85124 0.7121 0.0
O356 O 0.65987 0.90121 0.71229 0.0
C357 C 0.70949 0.95089 0.68879 0.0
O358 O 0.68908 0.91864 0.68509 0.0
C359 C 0.5934 0.87654 0.73005 0.0
O360 O 0.62264 0.89566 0.73687 0.0
O361 O 0.64379 0.84742 0.73238 0.0
O362 O 0.69735 0.89228 0.73499 0.0
H363 H 0.60108 0.72894 0.72064 0.0
H364 H 0.67163 0.96459 0.71421 0.0
O365 O 0.71946 0.95858 0.70198 0.0
H366 H 0.70758 0.98209 0.76587 0.0
H367 H 0.82258 0.03057 0.72833 0.0
H368 H 0.757 0.90372 0.72857 0.0
H369 H 0.72194 0.94713 0.74969 0.0
H370 H 0.76156 0.99925 0.72094 0.0
O371 O 0.59159 0.85653 0.71979 0.0
H372 H 0.63873 0.79199 0.72055 0.0
H373 H 0.5575 0.80425 0.70354 0.0
H374 H 0.81787 0.93399 0.73617 0.0
H375 H 0.65695 -3e-05 0.72998 0.0
H376 H 0.85108 0.99788 0.73607 0.0
H377 H 0.67485 0.0088 0.75602 0.0
O378 O 0.7183 0.89588 0.70566 0.0
H379 H 0.59183 0.90078 0.67202 0.0
H380 H 0.62652 0.81538 0.68414 0.0
H381 H 0.61178 0.82071 0.65868 0.0
H382 H 0.59426 0.86364 0.65249 0.0
H383 H 0.60708 0.89481 0.69732 0.0
H384 H 0.51886 0.74132 0.70355 0.0
H385 H 0.54066 0.70321 0.7121 0.0
O386 O 0.66881 0.8451 0.70456 0.0
C387 C 0.67184 0.86412 0.73947 0.0
C388 C 0.59131 0.74526 0.71684 0.0
C389 C 0.54516 0.75222 0.70727 0.0
N390 N 0.60041 0.80174 0.71192 0.0
C391 C 0.61255 0.78097 0.71672 0.0
C392 C 0.56713 0.78782 0.70731 0.0
C393 C 0.55741 0.73085 0.71206 0.0
C394 C 0.67982 0.96862 0.72549 0.0
N395 N 0.69774 0.95394 0.73101 0.0
C396 C 0.6713 0.98855 0.73438 0.0
C397 C 0.68131 0.99345 0.749 0.0
C398 C 0.69965 0.97844 0.75454 0.0
C399 C 0.70764 0.95861 0.74533 0.0
C400 C 0.80837 0.00273 0.72844 0.0
C401 C 0.77123 0.93153 0.72859 0.0
C402 C 0.77384 0.98486 0.72424 0.0
N403 N 0.7557 0.94971 0.72444 0.0
C404 C 0.80571 0.94852 0.73286 0.0
C405 C 0.82434 0.98437 0.73279 0.0
C406 C 0.70085 0.86431 0.702 0.0
C407 C 0.59933 0.8819 0.67459 0.0
C408 C 0.61898 0.83416 0.68153 0.0
C409 C 0.6106 0.83702 0.6671 0.0
C410 C 0.60075 0.86109 0.66363 0.0
N411 N 0.6175 0.85465 0.69221 0.0
C412 C 0.60783 0.87829 0.68891 0.0
Co413 Co 0.7812 0.706 0.88573 0.0
Co414 Co 0.77768 0.6284 0.87963 0.0
O415 O 0.75736 0.65804 0.87949 0.0
C416 C 0.75843 0.70794 0.85583 0.0
O417 O 0.77018 0.68738 0.85226 0.0
C418 C 0.7147 0.59152 0.89717 0.0
O419 O 0.72469 0.62079 0.90394 0.0
O420 O 0.79398 0.64161 0.90003 0.0
O421 O 0.8028 0.69524 0.90249 0.0
H422 H 0.86983 0.59847 0.88922 0.0
H423 H 0.70588 0.67005 0.88086 0.0
O424 O 0.76036 0.71789 0.869 0.0
H425 H 0.72215 0.70573 0.93255 0.0
H426 H 0.79085 0.82095 0.89528 0.0
H427 H 0.85152 0.75483 0.89633 0.0
H428 H 0.77213 0.72001 0.9168 0.0
H429 H 0.76119 0.75997 0.88782 0.0
O430 O 0.73315 0.58963 0.88704 0.0
H431 H 0.84469 0.63633 0.88875 0.0
H432 H 0.75184 0.55547 0.87108 0.0
H433 H 0.88205 0.81566 0.90401 0.0
H434 H 0.65517 0.65544 0.89619 0.0
H435 H 0.85167 0.84914 0.9035 0.0
H436 H 0.66316 0.67322 0.92225 0.0
O437 O 0.82155 0.71635 0.87327 0.0
H438 H 0.69137 0.59031 0.83884 0.0
H439 H 0.81078 0.62452 0.852 0.0
H440 H 0.79182 0.60997 0.8264 0.0
H441 H 0.7317 0.59269 0.81969 0.0
H442 H 0.71149 0.60537 0.86428 0.0
H443 H 0.77587 0.51663 0.87146 0.0
H444 H 0.83533 0.53813 0.88053 0.0
O445 O 0.82263 0.66672 0.87239 0.0
C446 C 0.80508 0.66963 0.90712 0.0
C447 C 0.84395 0.58883 0.88519 0.0
C448 C 0.79119 0.54289 0.87524 0.0
N449 N 0.79697 0.59822 0.87976 0.0
C450 C 0.82962 0.61019 0.88485 0.0
C451 C 0.7777 0.56498 0.87507 0.0
C452 C 0.82456 0.55497 0.88033 0.0
C453 C 0.70956 0.67818 0.89215 0.0
N454 N 0.74192 0.69598 0.89791 0.0
C455 C 0.68076 0.66971 0.90079 0.0
C456 C 0.68525 0.67964 0.91542 0.0
C457 C 0.71834 0.69786 0.92121 0.0
C458 C 0.74654 0.70581 0.91225 0.0
C459 C 0.80434 0.80662 0.89557 0.0
C460 C 0.83807 0.76918 0.89617 0.0
C461 C 0.78771 0.77211 0.89133 0.0
N462 N 0.80454 0.75382 0.89175 0.0
C463 C 0.85552 0.80364 0.90049 0.0
C464 C 0.83846 0.82242 0.90019 0.0
C465 C 0.83573 0.69881 0.86985 0.0
C466 C 0.71759 0.5977 0.84164 0.0
C467 C 0.7846 0.61708 0.84916 0.0
C468 C 0.77399 0.60881 0.83465 0.0
C469 C 0.74025 0.59909 0.8309 0.0
N470 N 0.76221 0.61563 0.85964 0.0
C471 C 0.72908 0.60609 0.85604 0.0
Co472 Co 0.07296 0.78057 0.05339 0.0
Co473 Co 0.14642 0.77698 0.04547 0.0
O474 O 0.09657 0.75658 0.04665 0.0
C475 C 0.04675 0.75739 0.02372 0.0
O476 O 0.07885 0.76866 0.01995 0.0
C477 C 0.12297 0.71655 0.06452 0.0
O478 O 0.10424 0.72715 0.07134 0.0
O479 O 0.15272 0.7967 0.06545 0.0
O480 O 0.10627 0.80197 0.06979 0.0
H481 H 0.26942 0.87114 0.05066 0.0
H482 H 0.03331 0.70523 0.04848 0.0
O483 O 0.03933 0.75985 0.03694 0.0
H484 H 0.01689 0.72132 0.10056 0.0
H485 H 0.96835 0.79034 0.06446 0.0
H486 H 0.09514 0.85085 0.06427 0.0
H487 H 0.05163 0.77137 0.08469 0.0
H488 H 0.99918 0.76066 0.05634 0.0
O489 O 0.14217 0.73386 0.0539 0.0
H490 H 0.20642 0.84561 0.05191 0.0
H491 H 0.19251 0.75006 0.03674 0.0
H492 H 0.06537 0.88143 0.07259 0.0
H493 H 0.99818 0.65446 0.06393 0.0
H494 H 0.00151 0.85113 0.07272 0.0
H495 H 0.98989 0.66235 0.09018 0.0
O496 O 0.1023 0.82115 0.04088 0.0
H497 H 0.09203 0.68402 0.00751 0.0
H498 H 0.17902 0.80531 0.01657 0.0
H499 H 0.17064 0.7821 0.99155 0.0
H500 H 0.12688 0.72103 0.98689 0.0
H501 H 0.10105 0.70836 0.03235 0.0
H502 H 0.25537 0.77447 0.03543 0.0
H503 H 0.29428 0.83548 0.04237 0.0
O504 O 0.15137 0.8203 0.03711 0.0
C505 C 0.13567 0.80636 0.07334 0.0
C506 C 0.25274 0.84456 0.04756 0.0
C507 C 0.24485 0.79029 0.03903 0.0
N508 N 0.19584 0.79648 0.04429 0.0
C509 C 0.21705 0.83 0.04821 0.0
C510 C 0.20929 0.77659 0.03982 0.0
C511 C 0.26667 0.82453 0.04292 0.0
C512 C 0.02952 0.70888 0.05985 0.0
N513 N 0.04436 0.74122 0.06566 0.0
C514 C 0.00972 0.68003 0.06856 0.0
C515 C 0.00513 0.68447 0.0833 0.0
C516 C 0.02029 0.71755 0.08913 0.0
C517 C 0.03998 0.74579 0.0801 0.0
C518 C 0.99618 0.8038 0.06448 0.0
C519 C 0.06735 0.83744 0.06438 0.0
C520 C 0.01377 0.78715 0.05987 0.0
N521 N 0.04891 0.80394 0.05995 0.0
C522 C 0.05063 0.85491 0.06907 0.0
C523 C 0.0148 0.8379 0.06912 0.0
C524 C 0.13273 0.83422 0.03576 0.0
C525 C 0.11124 0.71064 0.00941 0.0
C526 C 0.1599 0.77873 0.01464 0.0
C527 C 0.15531 0.76571 0.00044 0.0
C528 C 0.13077 0.73144 0.99784 0.0
N529 N 0.14067 0.75816 0.02593 0.0
C530 C 0.11658 0.72452 0.02346 0.0
Co531 Co 0.29233 0.0743 0.21933 0.0
Co532 Co 0.36974 0.14771 0.21186 0.0
O533 O 0.34004 0.09787 0.21276 0.0
C534 C 0.28988 0.04883 0.18957 0.0
O535 O 0.31054 0.08107 0.18594 0.0
C536 C 0.40614 0.12317 0.23065 0.0
O537 O 0.37678 0.10455 0.23746 0.0
O538 O 0.35619 0.15346 0.2319 0.0
O539 O 0.30404 0.10728 0.23587 0.0
H540 H 0.39939 0.27081 0.21781 0.0
H541 H 0.32783 0.03448 0.21437 0.0
O542 O 0.27971 0.04105 0.20274 0.0
H543 H 0.29419 0.01696 0.26632 0.0
H544 H 0.17748 0.96971 0.22979 0.0
H545 H 0.24425 0.09651 0.23019 0.0
H546 H 0.27946 0.05225 0.25053 0.0
H547 H 0.23817 0.00053 0.2219 0.0
O548 O 0.4083 0.14282 0.22017 0.0
H549 H 0.36156 0.20781 0.2187 0.0
H550 H 0.44292 0.19369 0.20332 0.0
H551 H 0.18373 0.06675 0.23829 0.0
H552 H 0.34289 0.99879 0.22974 0.0
H553 H 0.14993 0.00288 0.23812 0.0
H554 H 0.32614 0.98995 0.25593 0.0
O555 O 0.28155 0.1041 0.20691 0.0
H556 H 0.40803 0.09398 0.17347 0.0
H557 H 0.37459 0.18137 0.18318 0.0
H558 H 0.38953 0.17364 0.15807 0.0
H559 H 0.40641 0.12969 0.15309 0.0
H560 H 0.39262 0.10237 0.19839 0.0
H561 H 0.48173 0.25655 0.20237 0.0
H562 H 0.45996 0.29555 0.2096 0.0
O563 O 0.33166 0.15325 0.20359 0.0
C564 C 0.3292 0.13642 0.23963 0.0
C565 C 0.40915 0.25408 0.21459 0.0
C566 C 0.45537 0.24607 0.20594 0.0
N567 N 0.39995 0.19713 0.21096 0.0
C568 C 0.38782 0.2184 0.21503 0.0
C569 C 0.43331 0.21052 0.20653 0.0
C570 C 0.44314 0.26795 0.21 0.0
C571 C 0.32014 0.03044 0.22572 0.0
N572 N 0.30265 0.04529 0.23153 0.0
C573 C 0.32887 0.01034 0.23438 0.0
C574 C 0.31951 0.00543 0.24908 0.0
C575 C 0.30161 0.0206 0.25492 0.0
C576 C 0.29339 0.04061 0.24594 0.0
C577 C 0.19196 0.99754 0.22995 0.0
C578 C 0.22976 0.06871 0.23018 0.0
C579 C 0.2263 0.01513 0.22546 0.0
N580 N 0.24478 0.05026 0.22571 0.0
C581 C 0.19548 0.052 0.23473 0.0
C582 C 0.17652 0.01617 0.23462 0.0
C583 C 0.29914 0.13475 0.20204 0.0
C584 C 0.40082 0.11329 0.17551 0.0
C585 C 0.38188 0.16217 0.18109 0.0
C586 C 0.39036 0.15795 0.16686 0.0
C587 C 0.39985 0.1333 0.16407 0.0
N588 N 0.38291 0.14246 0.19225 0.0
C589 C 0.39222 0.11827 0.18961 0.0
Co590 Co 0.21695 0.29371 0.38526 0.0
Co591 Co 0.22094 0.37101 0.37771 0.0
O592 O 0.2412 0.34145 0.37871 0.0
C593 C 0.24074 0.29114 0.35567 0.0
O594 O 0.22899 0.31157 0.35189 0.0
C595 C 0.28172 0.4089 0.39654 0.0
O596 O 0.27068 0.38028 0.40398 0.0
O597 O 0.20241 0.35811 0.3979 0.0
O598 O 0.195 0.30528 0.40158 0.0
H599 H 0.12763 0.40071 0.384 0.0
H600 H 0.29246 0.32944 0.38081 0.0
O601 O 0.23825 0.2812 0.36888 0.0
H602 H 0.27448 0.2958 0.43276 0.0
H603 H 0.20694 0.17914 0.39615 0.0
H604 H 0.14621 0.24521 0.39553 0.0
H605 H 0.22502 0.28101 0.4166 0.0
H606 H 0.23688 0.23988 0.38832 0.0
O607 O 0.26464 0.40993 0.38564 0.0
H608 H 0.15293 0.363 0.38496 0.0
H609 H 0.24767 0.44382 0.36868 0.0
H610 H 0.11536 0.18462 0.40355 0.0
H611 H 0.34264 0.34455 0.39655 0.0
H612 H 0.14577 0.15117 0.40389 0.0
H613 H 0.3338 0.32779 0.42274 0.0
O614 O 0.1768 0.28278 0.37257 0.0
H615 H 0.31169 0.40822 0.3388 0.0
H616 H 0.19109 0.3747 0.34911 0.0
H617 H 0.21292 0.3888 0.32385 0.0
H618 H 0.27363 0.40572 0.31857 0.0
H619 H 0.28872 0.39363 0.36388 0.0
H620 H 0.22348 0.48249 0.36764 0.0
H621 H 0.163 0.46092 0.37529 0.0
O622 O 0.177 0.33262 0.36977 0.0
C623 C 0.1918 0.33083 0.4055 0.0
C624 C 0.15397 0.41037 0.38059 0.0
C625 C 0.20779 0.45629 0.37143 0.0
N626 N 0.20163 0.40112 0.37676 0.0
C627 C 0.16841 0.38911 0.38107 0.0
C628 C 0.22136 0.43429 0.37206 0.0
C629 C 0.17385 0.44416 0.37572 0.0
C630 C 0.2884 0.32176 0.39216 0.0
N631 N 0.25586 0.30419 0.39776 0.0
C632 C 0.31692 0.33052 0.40104 0.0
C633 C 0.31194 0.32115 0.41573 0.0
C634 C 0.27866 0.30322 0.42136 0.0
C635 C 0.25076 0.29496 0.41217 0.0
C636 C 0.19344 0.19347 0.39609 0.0
C637 C 0.15968 0.23088 0.39576 0.0
C638 C 0.21024 0.22784 0.39165 0.0
N639 N 0.19339 0.24613 0.39162 0.0
C640 C 0.14205 0.19656 0.40026 0.0
C641 C 0.15912 0.17779 0.40043 0.0
C642 C 0.16333 0.30019 0.36798 0.0
C643 C 0.28521 0.40098 0.34097 0.0
C644 C 0.21752 0.38199 0.3469 0.0
C645 C 0.22975 0.39 0.33258 0.0
C646 C 0.26383 0.39952 0.32962 0.0
N647 N 0.23866 0.38349 0.35797 0.0
C648 C 0.27211 0.39285 0.35516 0.0
Co649 Co 0.92801 0.22048 0.5523 0.0
Co650 Co 0.85327 0.22154 0.54446 0.0
O651 O 0.9032 0.24311 0.54548 0.0
C652 C 0.95378 0.24293 0.52249 0.0
O653 O 0.92143 0.2287 0.5185 0.0
C654 C 0.87558 0.28195 0.56333 0.0
O655 O 0.89455 0.27174 0.57021 0.0
O656 O 0.84775 0.20241 0.56452 0.0
O657 O 0.89494 0.19837 0.56875 0.0
H658 H 0.73131 0.12535 0.55014 0.0
H659 H 0.96562 0.29586 0.54727 0.0
O660 O 0.96145 0.24216 0.53583 0.0
H661 H 0.98306 0.28104 0.59938 0.0
H662 H 0.03494 0.21491 0.56334 0.0
H663 H 0.9081 0.15082 0.56331 0.0
H664 H 0.9495 0.23054 0.58358 0.0
H665 H 0.00239 0.24278 0.55517 0.0
O666 O 0.85655 0.2644 0.55271 0.0
H667 H 0.79449 0.15233 0.55123 0.0
H668 H 0.80565 0.24655 0.53569 0.0
H669 H 0.93961 0.12204 0.57168 0.0
H670 H -0.00044 0.34706 0.56265 0.0
H671 H 0.0035 0.15414 0.57172 0.0
H672 H 0.00835 0.33981 0.58892 0.0
O673 O 0.89944 0.17938 0.5399 0.0
H674 H 0.90518 0.31362 0.50602 0.0
H675 H 0.82051 0.1919 0.51574 0.0
H676 H 0.82787 0.21434 0.4906 0.0
H677 H 0.87043 0.27563 0.48562 0.0
H678 H 0.89719 0.29005 0.53098 0.0
H679 H 0.74258 0.22067 0.53455 0.0
H680 H 0.70497 0.15961 0.54176 0.0
O681 O 0.84943 0.1785 0.53631 0.0
C682 C 0.86532 0.19333 0.57238 0.0
C683 C 0.74743 0.15195 0.54693 0.0
C684 C 0.75375 0.20546 0.53819 0.0
N685 N 0.8037 0.20087 0.54341 0.0
C686 C 0.78321 0.16733 0.54748 0.0
C687 C 0.78943 0.21999 0.53889 0.0
C688 C 0.73267 0.17119 0.54224 0.0
C689 C 0.96965 0.29249 0.55866 0.0
N690 N 0.95573 0.26025 0.56451 0.0
C691 C 0.98876 0.32158 0.56732 0.0
C692 C 0.99363 0.3175 0.58207 0.0
C693 C 0.97943 0.28453 0.58794 0.0
C694 C 0.96039 0.25603 0.57895 0.0
C695 C 0.00711 0.20067 0.5634 0.0
C696 C 0.9359 0.16502 0.56339 0.0
C697 C 0.98855 0.21629 0.55876 0.0
N698 N 0.9534 0.19852 0.55888 0.0
C699 C 0.9536 0.14856 0.5681 0.0
C700 C 0.98945 0.16658 0.5681 0.0
C701 C 0.86878 0.16538 0.53495 0.0
C702 C 0.88647 0.2869 0.50806 0.0
C703 C 0.83912 0.21859 0.51365 0.0
C704 C 0.84313 0.23116 0.4994 0.0
C705 C 0.867 0.26556 0.49662 0.0
N706 N 0.85827 0.2397 0.52483 0.0
C707 C 0.88174 0.27345 0.52218 0.0
H708 H 0.16611 0.69309 0.05651 0.0
H709 H 0.16191 0.63838 0.063 0.0
H710 H 0.0703 0.61063 0.0881 0.0
H711 H 0.07489 0.66588 0.08199 0.0
H712 H 0.11294 0.59581 0.10262 0.0
H713 H 0.09658 0.54518 0.04631 0.0
H714 H 0.13494 0.58621 0.04814 0.0
H715 H 0.09355 0.58276 0.05072 0.0
C716 C 0.14502 0.67534 0.0634 0.0
C717 C 0.12076 0.68373 0.06871 0.0
C718 C 0.14251 0.64395 0.067 0.0
C719 C 0.11534 0.62007 0.07575 0.0
C720 C 0.09133 0.62859 0.08124 0.0
H721 H 0.07348 0.4087 0.08497 0.0
H722 H 0.06902 0.4596 0.07926 0.0
C723 C 0.09403 0.66017 0.07776 0.0
C724 C 0.11264 0.58668 0.0795 0.0
H725 H 0.11142 0.51645 0.06452 0.0
C726 C 0.11227 0.57828 0.09429 0.0
C727 C 0.11105 0.56349 0.06863 0.0
C728 C 0.10866 0.56967 0.05257 0.0
C729 C 0.1116 0.54791 0.09851 0.0
C730 C 0.1123 0.52585 0.08764 0.0
C731 C 0.11141 0.53363 0.07285 0.0
C732 C 0.11466 0.49494 0.09134 0.0
C733 C 0.10983 0.53967 0.11459 0.0
C734 C 0.14205 0.49798 0.09984 0.0
C735 C 0.1445 0.46896 0.10323 0.0
C736 C 0.11993 0.4364 0.09793 0.0
C737 C 0.09286 0.43346 0.08918 0.0
C738 C 0.09024 0.46249 0.08593 0.0
H739 H 0.09827 0.55246 0.12095 0.0
H740 H 0.09453 0.51153 0.11657 0.0
H741 H 0.13626 0.54923 0.1188 0.0
H742 H 0.16176 0.52288 0.10377 0.0
H743 H 0.16584 0.47211 0.10988 0.0
H744 H 0.69252 0.16536 0.27457 0.0
H745 H 0.63735 0.16031 0.26834 0.0
H746 H 0.60898 0.06713 0.24434 0.0
H747 H 0.66469 0.0725 0.25021 0.0
H748 H 0.59321 0.10887 0.22943 0.0
H749 H 0.54503 0.09544 0.28603 0.0
H750 H 0.58599 0.13371 0.28381 0.0
H751 H 0.58242 0.09219 0.28149 0.0
C752 C 0.67454 0.14374 0.26798 0.0
C753 C 0.68289 0.11925 0.26292 0.0
C754 C 0.6429 0.14075 0.26453 0.0
C755 C 0.61872 0.11289 0.25618 0.0
C756 C 0.62717 0.08867 0.2509 0.0
H757 H 0.408 0.07421 0.24779 0.0
H758 H 0.45812 0.06836 0.25348 0.0
C759 C 0.65902 0.09182 0.25424 0.0
C760 C 0.58512 0.10982 0.25259 0.0
H761 H 0.51599 0.11023 0.26788 0.0
C762 C 0.57613 0.10878 0.23784 0.0
C763 C 0.56248 0.10894 0.26356 0.0
C764 C 0.56928 0.10724 0.27961 0.0
C765 C 0.54582 0.10837 0.23375 0.0
C766 C 0.52445 0.11002 0.24472 0.0
C767 C 0.53268 0.10955 0.25948 0.0
C768 C 0.49401 0.11326 0.24113 0.0
C769 C 0.53697 0.10603 0.21773 0.0
C770 C 0.49768 0.14078 0.23253 0.0
C771 C 0.46913 0.14404 0.22918 0.0
C772 C 0.43643 0.12018 0.23459 0.0
C773 C 0.43289 0.09306 0.24349 0.0
C774 C 0.46147 0.08963 0.24672 0.0
H775 H 0.54903 0.09369 0.21141 0.0
H776 H 0.50873 0.09118 0.21597 0.0
H777 H 0.54692 0.13235 0.2133 0.0
H778 H 0.5227 0.1599 0.22847 0.0
H779 H 0.47274 0.16539 0.2224 0.0
H780 H 0.58046 0.67926 0.41224 0.0
H781 H 0.52817 0.62604 0.40554 0.0
H782 H 0.47812 0.63297 0.44457 0.0
H783 H 0.5299 0.68652 0.45119 0.0
H784 H 0.49321 0.56439 0.42001 0.0
H785 H 0.4102 0.62231 0.41288 0.0
H786 H 0.45637 0.64794 0.41443 0.0
H787 H 0.43026 0.63039 0.43051 0.0
C788 C 0.55827 0.66956 0.41936 0.0
C789 C 0.5592 0.68732 0.43216 0.0
C790 C 0.52846 0.6391 0.41553 0.0
C791 C 0.4991 0.6259 0.42443 0.0
C792 C 0.50021 0.64316 0.43737 0.0
H793 H 0.32205 0.41849 0.42052 0.0
H794 H 0.37527 0.47067 0.42736 0.0
C795 C 0.52991 0.67369 0.44117 0.0
C796 C 0.46738 0.59391 0.42021 0.0
H797 H 0.38224 0.56129 0.41262 0.0
C798 C 0.46894 0.56368 0.41835 0.0
C799 C 0.4359 0.59321 0.41787 0.0
C800 C 0.43304 0.62525 0.41888 0.0
C801 C 0.43971 0.5326 0.41436 0.0
C802 C 0.40797 0.53167 0.41249 0.0
C803 C 0.40653 0.562 0.4142 0.0
C804 C 0.37605 0.49978 0.40836 0.0
C805 C 0.44327 0.50129 0.41188 0.0
C806 C 0.35841 0.49911 0.3956 0.0
C807 C 0.32781 0.46957 0.39178 0.0
C808 C 0.31422 0.44005 0.40065 0.0
C809 C 0.33193 0.44074 0.41343 0.0
C810 C 0.36248 0.47045 0.4173 0.0
H811 H 0.47044 0.50841 0.40986 0.0
H812 H 0.43431 0.48476 0.42176 0.0
H813 H 0.42742 0.48597 0.40246 0.0
H814 H 0.36838 0.5215 0.38858 0.0
H815 H 0.31486 0.46989 0.38184 0.0
H816 H 0.83185 0.52661 0.60856 0.0
H817 H 0.8352 0.47544 0.60244 0.0
H818 H 0.92937 0.53818 0.5787 0.0
H819 H 0.92568 0.58949 0.58443 0.0
H820 H 0.88659 0.48192 0.56354 0.0
H821 H 0.89697 0.44402 0.62 0.0
H822 H 0.85953 0.44809 0.61758 0.0
H823 H 0.90166 0.48538 0.6157 0.0
C824 C 0.85336 0.52956 0.60208 0.0
C825 C 0.87855 0.56209 0.597 0.0
C826 C 0.85537 0.5003 0.59869 0.0
C827 C 0.88292 0.50307 0.59038 0.0
C828 C 0.908 0.5355 0.58521 0.0
H829 H 0.92284 0.33257 0.58102 0.0
H830 H 0.92674 0.38746 0.58718 0.0
C831 C 0.90583 0.56477 0.58847 0.0
C832 C 0.88483 0.47193 0.58664 0.0
H833 H 0.88307 0.40133 0.60149 0.0
C834 C 0.88613 0.46445 0.57184 0.0
C835 C 0.88487 0.44947 0.59748 0.0
C836 C 0.88606 0.45732 0.61358 0.0
C837 C 0.8864 0.43457 0.56757 0.0
C838 C 0.88432 0.41108 0.57839 0.0
C839 C 0.88413 0.4191 0.5932 0.0
C840 C 0.88199 0.37788 0.57459 0.0
C841 C 0.88929 0.42873 0.55152 0.0
C842 C 0.85522 0.35406 0.56566 0.0
C843 C 0.8531 0.32284 0.56203 0.0
C844 C 0.87736 0.3146 0.56748 0.0
C845 C 0.9037 0.33814 0.57669 0.0
C846 C 0.906 0.36953 0.5802 0.0
H847 H 0.90143 0.45332 0.54533 0.0
H848 H 0.90459 0.41581 0.54973 0.0
H849 H 0.86317 0.41213 0.54696 0.0
H850 H 0.83584 0.35952 0.56155 0.0
H851 H 0.83232 0.3051 0.55502 0.0
H852 H 0.59023 0.92515 0.74694 0.0
H853 H 0.53906 0.92871 0.75312 0.0
H854 H 0.47597 0.836 0.72855 0.0
H855 H 0.527 0.83279 0.72198 0.0
H856 H 0.45944 0.88479 0.7228 0.0
H857 H 0.46631 0.87081 0.78277 0.0
H858 H 0.50432 0.90627 0.77511 0.0
H859 H 0.49236 0.86295 0.77009 0.0
C860 C 0.56542 0.90543 0.74292 0.0
C861 C 0.56259 0.87856 0.73406 0.0
C862 C 0.5362 0.90743 0.74651 0.0
C863 C 0.50363 0.88229 0.74151 0.0
C864 C 0.50084 0.85562 0.73257 0.0
H865 H 0.30452 0.83124 0.77461 0.0
H866 H 0.35871 0.83464 0.76783 0.0
C867 C 0.53002 0.85379 0.72885 0.0
C868 C 0.47234 0.88377 0.74539 0.0
H869 H 0.42371 0.88287 0.77423 0.0
C870 C 0.4516 0.8844 0.73404 0.0
C871 C 0.46203 0.88291 0.76006 0.0
C872 C 0.48221 0.88037 0.77272 0.0
C873 C 0.42066 0.88388 0.73696 0.0
C874 C 0.41067 0.88363 0.75164 0.0
C875 C 0.43156 0.88332 0.76298 0.0
C876 C 0.37778 0.8819 0.75552 0.0
C877 C 0.39846 0.88241 0.72428 0.0
C878 C 0.37057 0.90747 0.75091 0.0
C879 C 0.33936 0.90537 0.75463 0.0
C880 C 0.31512 0.87796 0.76322 0.0
C881 C 0.32265 0.85268 0.76797 0.0
C882 C 0.35364 0.85461 0.76413 0.0
H883 H 0.40518 0.87365 0.71409 0.0
H884 H 0.37079 0.86484 0.72667 0.0
H885 H 0.40238 0.90851 0.72227 0.0
H886 H 0.38918 0.92919 0.74456 0.0
H887 H 0.33446 0.92547 0.75096 0.0
H888 H 0.47285 0.30461 0.94429 0.0
H889 H 0.52323 0.35933 0.93763 0.0
H890 H 0.45916 0.38561 0.91188 0.0
H891 H 0.40872 0.3304 0.91814 0.0
H892 H 0.51642 0.40003 0.89751 0.0
H893 H 0.55096 0.45317 0.95344 0.0
H894 H 0.54862 0.41222 0.95195 0.0
H895 H 0.51046 0.41523 0.94927 0.0
C896 C 0.46946 0.32206 0.93723 0.0
C897 C 0.43682 0.31325 0.93176 0.0
C898 C 0.49825 0.35346 0.93353 0.0
C899 C 0.49485 0.3769 0.92453 0.0
C900 C 0.46232 0.368 0.91893 0.0
H901 H 0.66262 0.58858 0.91374 0.0
H902 H 0.60767 0.53751 0.91982 0.0
C903 C 0.43355 0.33642 0.92249 0.0
C904 C 0.52543 0.4102 0.92057 0.0
H905 H 0.59417 0.48148 0.93506 0.0
C906 C 0.53325 0.41799 0.90572 0.0
C907 C 0.54701 0.43397 0.93127 0.0
C908 C 0.53865 0.42842 0.94736 0.0
C909 C 0.56269 0.44836 0.90129 0.0
C910 C 0.58543 0.47104 0.91201 0.0
C911 C 0.57699 0.46383 0.92685 0.0
C912 C 0.61843 0.50204 0.90809 0.0
C913 C 0.56889 0.45593 0.88515 0.0
C914 C 0.64288 0.49899 0.89966 0.0
C915 C 0.67409 0.5281 0.89607 0.0
C916 C 0.68173 0.56077 0.90108 0.0
C917 C 0.6575 0.56374 0.90975 0.0
C918 C 0.62609 0.53461 0.91321 0.0
H919 H 0.54448 0.44262 0.87886 0.0
H920 H 0.58139 0.48397 0.88295 0.0
H921 H 0.58596 0.44651 0.88106 0.0
H922 H 0.63797 0.47402 0.89596 0.0
H923 H 0.69238 0.52492 0.88949 0.0
H924 H 0.32644 0.20017 0.19127 0.0
H925 H 0.29623 0.22561 0.17902 0.0
H926 H 0.20062 0.12982 0.18289 0.0
H927 H 0.23053 0.10385 0.19517 0.0
H928 H 0.2153 0.16254 0.15426 0.0
H929 H 0.22918 0.25119 0.19948 0.0
H930 H 0.26835 0.25274 0.19396 0.0
H931 H 0.2345 0.21424 0.20211 0.0
C932 C 0.29899 0.18438 0.18954 0.0
C933 C 0.28092 0.14993 0.19428 0.0
C934 C 0.28177 0.19907 0.18259 0.0
C935 C 0.24619 0.1797 0.18025 0.0
C936 C 0.2281 0.14519 0.18469 0.0
H937 H 0.10361 0.22921 0.13626 0.0
H938 H 0.12929 0.19945 0.14881 0.0
C939 C 0.24526 0.13045 0.19171 0.0
C940 C 0.22802 0.19553 0.17305 0.0
H941 H 0.20836 0.25935 0.17689 0.0
C942 C 0.21349 0.18353 0.15922 0.0
C943 C 0.22585 0.2229 0.17959 0.0
C944 C 0.24002 0.23592 0.19466 0.0
C945 C 0.19768 0.19896 0.15152 0.0
C946 C 0.19578 0.22658 0.15801 0.0
C947 C 0.20991 0.23821 0.17194 0.0
C948 C 0.18 0.24441 0.15041 0.0
C949 C 0.18418 0.18631 0.13633 0.0
C950 C 0.19977 0.27974 0.14749 0.0
C951 C 0.18515 0.29694 0.14046 0.0
C952 C 0.15035 0.27912 0.13623 0.0
C953 C 0.13052 0.24371 0.13928 0.0
C954 C 0.1452 0.22657 0.14637 0.0
H955 H 0.19529 0.17121 0.13158 0.0
H956 H 0.15584 0.16937 0.13681 0.0
H957 H 0.18997 0.20813 0.12892 0.0
H958 H 0.22666 0.294 0.15058 0.0
H959 H 0.20124 0.32419 0.13831 0.0
H960 H 0.87035 0.10302 0.3053 0.0
H961 H 0.92562 0.12924 0.31802 0.0
H962 H 0.92808 0.22649 0.31892 0.0
H963 H 0.8727 0.20058 0.30647 0.0
H964 H 0.98805 0.18397 0.30905 0.0
H965 H 0.94679 0.21426 0.3614 0.0
H966 H 0.91655 0.18527 0.34807 0.0
H967 H 0.93616 0.23105 0.3457 0.0
C968 C 0.88246 0.12993 0.3083 0.0
C969 C 0.86689 0.14961 0.30493 0.0
C970 C 0.91408 0.14486 0.31555 0.0
C971 C 0.93064 0.17963 0.31961 0.0
C972 C 0.91534 0.1994 0.31619 0.0
H973 H 0.12477 0.3272 0.35743 0.0
H974 H 0.06872 0.29665 0.34549 0.0
C975 C 0.88372 0.18453 0.30898 0.0
C976 C 0.96453 0.19565 0.32698 0.0
H977 H 0.00723 0.24011 0.35754 0.0
C978 C 0.99222 0.19598 0.31971 0.0
C979 C 0.96982 0.21126 0.34089 0.0
C980 C 0.94069 0.21021 0.34955 0.0
C981 C 0.02536 0.21241 0.3258 0.0
C982 C 0.03072 0.22853 0.33957 0.0
C983 C 0.00297 0.22783 0.34693 0.0
C984 C 0.0651 0.24681 0.34647 0.0
C985 C 0.05456 0.21326 0.31729 0.0
C986 C 0.0815 0.22879 0.35102 0.0
C987 C 0.11358 0.24613 0.35788 0.0
C988 C 0.12979 0.28183 0.36033 0.0
C989 C 0.11318 0.29975 0.35569 0.0
C990 C 0.0811 0.28235 0.34888 0.0
H991 H 0.04763 0.20603 0.30565 0.0
H992 H 0.07776 0.23926 0.31774 0.0
H993 H 0.06127 0.19478 0.3222 0.0
H994 H 0.06927 0.20123 0.34944 0.0
H995 H 0.1255 0.23146 0.36136 0.0
H996 H 0.90185 0.1297 0.52803 0.0
H997 H 0.87737 0.07352 0.51606 0.0
H998 H 0.77939 0.06892 0.51273 0.0
H999 H 0.80335 0.12488 0.52463 0.0
H1000 H 0.77953 0.00838 0.52537 0.0
H1001 H 0.84732 0.05111 0.47191 0.0
H1002 H 0.87289 0.06697 0.48824 0.0
H1003 H 0.84213 0.08005 0.48397 0.0
C1004 C 0.87514 0.11687 0.52468 0.0
C1005 C 0.85461 0.13191 0.52729 0.0
C1006 C 0.86127 0.08484 0.51781 0.0
C1007 C 0.8267 0.06732 0.51345 0.0
C1008 C 0.80618 0.08218 0.516 0.0
H1009 H 0.6772 0.87572 0.47552 0.0
H1010 H 0.70915 0.93073 0.48805 0.0
C1011 C 0.81999 0.11422 0.52278 0.0
C1012 C 0.81138 0.03296 0.50661 0.0
H1013 H 0.80978 0.99165 0.47506 0.0
C1014 C 0.7862 0.00462 0.51439 0.0
C1015 C 0.82045 0.02827 0.49236 0.0
C1016 C 0.84703 0.05814 0.48352 0.0
C1017 C 0.76951 0.97159 0.50824 0.0
C1018 C 0.77766 0.96703 0.49378 0.0
C1019 C 0.80352 0.99527 0.48613 0.0
C1020 C 0.75852 0.93351 0.48617 0.0
C1021 C 0.74344 0.94188 0.51732 0.0
C1022 C 0.77585 0.91726 0.48056 0.0
C1023 C 0.75768 0.88581 0.47323 0.0
C1024 C 0.72184 0.87014 0.47134 0.0
C1025 C 0.7047 0.88678 0.47687 0.0
C1026 C 0.7229 0.9182 0.48413 0.0
H1027 H 0.74794 0.94746 0.5292 0.0
H1028 H 0.71731 0.93728 0.51476 0.0
H1029 H 0.74407 0.91795 0.51493 0.0
H1030 H 0.80341 0.92882 0.48192 0.0
H1031 H 0.77175 0.87383 0.46906 0.0
H1032 H 0.88824 0.74334 0.65104 0.0
H1033 H 0.86074 0.77051 0.66436 0.0
H1034 H 0.77719 0.72842 0.63326 0.0
H1035 H 0.80333 0.69902 0.62072 0.0
H1036 H 0.84653 0.81659 0.65866 0.0
H1037 H 0.72192 0.69922 0.66893 0.0
H1038 H 0.75797 0.69746 0.6613 0.0
H1039 H 0.73004 0.70525 0.64971 0.0
C1040 C 0.86386 0.7398 0.64717 0.0
C1041 C 0.84759 0.71892 0.63501 0.0
C1042 C 0.84817 0.75532 0.65475 0.0
C1043 C 0.81634 0.75086 0.65007 0.0
C1044 C 0.80093 0.73113 0.63749 0.0
H1045 H 0.74349 0.88921 0.67852 0.0
H1046 H 0.77163 0.86195 0.66576 0.0
C1047 C 0.81602 0.71465 0.63022 0.0
C1048 C 0.79974 0.76743 0.65819 0.0
H1049 H 0.72321 0.75266 0.67232 0.0
C1050 C 0.81964 0.80246 0.6618 0.0
C1051 C 0.76481 0.749 0.66259 0.0
C1052 C 0.74263 0.71059 0.66057 0.0
C1053 C 0.80561 0.8196 0.66951 0.0
C1054 C 0.7701 0.80173 0.673 0.0
C1055 C 0.7503 0.76663 0.66951 0.0
C1056 C 0.75292 0.81848 0.68055 0.0
C1057 C 0.82943 0.85629 0.6742 0.0
C1058 C 0.73158 0.80242 0.69268 0.0
C1059 C 0.71431 0.8172 0.69952 0.0
C1060 C 0.71877 0.84875 0.69461 0.0
C1061 C 0.74016 0.86505 0.68259 0.0
C1062 C 0.75651 0.84965 0.67541 0.0
H1063 H 0.8563 0.86162 0.67536 0.0
H1064 H 0.8295 0.87401 0.66573 0.0
H1065 H 0.82132 0.86213 0.68477 0.0
H1066 H 0.72825 0.77837 0.69688 0.0
H1067 H 0.69794 0.80428 0.70882 0.0
H1068 H 0.89189 0.69464 0.87719 0.0
H1069 H 0.94895 0.72503 0.86599 0.0
H1070 H 0.9119 0.77108 0.83472 0.0
H1071 H 0.8556 0.74277 0.84676 0.0
H1072 H 0.97121 0.72111 0.84164 0.0
H1073 H 0.99678 0.85456 0.84566 0.0
H1074 H 0.96041 0.81931 0.85452 0.0
H1075 H 0.95815 0.82875 0.83551 0.0
C1076 C 0.89619 0.71158 0.86801 0.0
C1077 C 0.8697 0.71671 0.86285 0.0
C1078 C 0.92874 0.72891 0.8616 0.0
C1079 C 0.93515 0.75104 0.84966 0.0
C1080 C 0.90819 0.75533 0.84425 0.0
H1081 H 0.10589 0.80214 0.7906 0.0
H1082 H 0.05057 0.77578 0.80328 0.0
C1083 C 0.87593 0.73888 0.85101 0.0
C1084 C 0.96959 0.76829 0.84254 0.0
H1085 H 0.03251 0.8451 0.82905 0.0
C1086 C 0.98475 0.74834 0.83907 0.0
C1087 C 0.98781 0.80398 0.8394 0.0
C1088 C 0.97509 0.8279 0.84413 0.0
C1089 C 0.01721 0.76286 0.83244 0.0
C1090 C 0.03424 0.79799 0.82832 0.0
C1091 C 0.01934 0.81806 0.83197 0.0
C1092 C 0.06754 0.8145 0.82029 0.0
C1093 C 0.03313 0.74041 0.83039 0.0
C1094 C 0.09506 0.84613 0.82508 0.0
C1095 C 0.12619 0.86195 0.81744 0.0
C1096 C 0.13058 0.846 0.80511 0.0
C1097 C 0.10318 0.81455 0.80026 0.0
C1098 C 0.0717 0.79933 0.80759 0.0
H1099 H 0.02341 0.7195 0.83866 0.0
H1100 H 0.02599 0.72806 0.81947 0.0
H1101 H 0.0616 0.75549 0.83122 0.0
H1102 H 0.09255 0.85851 0.83478 0.0
H1103 H 0.14708 0.88626 0.82134 0.0
H1104 H 0.10107 0.87125 0.02895 0.0
H1105 H 0.12585 0.9263 0.01607 0.0
H1106 H 0.22238 0.92793 0.01222 0.0
H1107 H 0.19785 0.87277 0.02477 0.0
H1108 H 0.18131 0.98873 0.02373 0.0
H1109 H 0.20518 0.94572 0.97047 0.0
H1110 H 0.17807 0.9159 0.98436 0.0
H1111 H 0.22411 0.93553 0.98552 0.0
C1112 C 0.12751 0.88316 0.02527 0.0
C1113 C 0.14737 0.86739 0.02782 0.0
C1114 C 0.14162 0.91465 0.01793 0.0
C1115 C 0.17575 0.93088 0.01296 0.0
C1116 C 0.19572 0.91543 0.01563 0.0
H1117 H 0.32317 0.12381 0.97513 0.0
H1118 H 0.29171 0.06781 0.98705 0.0
C1119 C 0.18166 0.88393 0.0229 0.0
C1120 C 0.19096 0.96456 0.00543 0.0
H1121 H 0.23302 0.00647 0.97432 0.0
C1122 C 0.19227 0.99256 0.01286 0.0
C1123 C 0.20514 0.96943 0.99123 0.0
C1124 C 0.20278 0.93997 0.98236 0.0
C1125 C 0.20851 0.02561 0.00666 0.0
C1126 C 0.22351 0.03058 0.99266 0.0
C1127 C 0.22161 0.0025 0.98511 0.0
C1128 C 0.24226 0.06495 0.9858 0.0
C1129 C 0.2105 0.05519 0.01529 0.0
C1130 C 0.22474 0.08177 0.98112 0.0
C1131 C 0.2426 0.11382 0.97424 0.0
C1132 C 0.27833 0.12958 0.97193 0.0
C1133 C 0.29573 0.11258 0.97674 0.0
C1134 C 0.27781 0.08053 0.98354 0.0
H1135 H 0.20282 0.04816 0.02688 0.0
H1136 H 0.237 0.07764 0.01496 0.0
H1137 H 0.19303 0.06318 0.01032 0.0
H1138 H 0.19719 0.06989 0.98262 0.0
H1139 H 0.22834 0.12608 0.97064 0.0
H1140 H 0.19082 0.37937 0.07679 0.0
H1141 H 0.21795 0.37305 0.05473 0.0
H1142 H 0.14184 0.26513 0.05299 0.0
H1143 H 0.11388 0.27141 0.07455 0.0
H1144 H 0.24794 0.33639 0.05131 0.0
H1145 H 0.14236 0.29016 0.01125 0.0
H1146 H 0.14054 0.30824 0.02861 0.0
H1147 H 0.12838 0.26349 0.0272 0.0
C1148 C 0.17949 0.35442 0.07155 0.0
C1149 C 0.1501 0.32592 0.07744 0.0
C1150 C 0.19506 0.35085 0.05895 0.0
C1151 C 0.18162 0.31874 0.05204 0.0
C1152 C 0.1521 0.2904 0.05783 0.0
H1153 H 0.28634 0.23376 0.00569 0.0
H1154 H 0.26318 0.25753 0.02339 0.0
C1155 C 0.13628 0.294 0.07028 0.0
C1156 C 0.19992 0.31397 0.03956 0.0
H1157 H 0.1866 0.27571 0.00615 0.0
C1158 C 0.23468 0.32366 0.04132 0.0
C1159 C 0.18293 0.29805 0.02638 0.0
C1160 C 0.14661 0.28978 0.02319 0.0
C1161 C 0.25234 0.31617 0.03062 0.0
C1162 C 0.23441 0.29744 0.01804 0.0
C1163 C 0.20023 0.28948 0.01591 0.0
C1164 C 0.24995 0.28443 0.00731 0.0
C1165 C 0.28998 0.32836 0.03296 0.0
C1166 C 0.24932 0.29074 0.99232 0.0
C1167 C 0.26184 0.27649 0.98214 0.0
C1168 C 0.27539 0.25581 0.98678 0.0
C1169 C 0.27637 0.24985 0.00179 0.0
C1170 C 0.2634 0.26369 0.01194 0.0
H1171 H 0.30233 0.35193 0.03983 0.0
H1172 H 0.29259 0.30811 0.03879 0.0
H1173 H 0.30409 0.33393 0.02244 0.0
H1174 H 0.23888 0.30648 0.98848 0.0
H1175 H 0.26081 0.2816 0.97064 0.0
H1176 H 0.84585 0.11268 0.24403 0.0
H1177 H 0.88299 0.14045 0.2231 0.0
H1178 H 0.84847 0.21446 0.22147 0.0
H1179 H 0.81212 0.18763 0.24287 0.0
H1180 H 0.87198 0.15175 0.19572 0.0
H1181 H 0.95074 0.27693 0.22381 0.0
H1182 H 0.91961 0.23882 0.23334 0.0
H1183 H 0.90588 0.2636 0.22278 0.0
C1184 C 0.84597 0.13478 0.23923 0.0
C1185 C 0.82631 0.14819 0.24527 0.0
C1186 C 0.86724 0.15062 0.22722 0.0
C1187 C 0.86911 0.18 0.22092 0.0
C1188 C 0.8482 0.19243 0.22643 0.0
H1189 H 0.97972 0.25868 0.13811 0.0
H1190 H 0.93454 0.23459 0.1567 0.0
C1191 C 0.82723 0.17688 0.23859 0.0
C1192 C 0.89359 0.19777 0.20879 0.0
H1193 H 0.96356 0.27417 0.199 0.0
C1194 C 0.89196 0.17855 0.19641 0.0
C1195 C 0.91993 0.23263 0.20981 0.0
C1196 C 0.92446 0.25415 0.2232 0.0
C1197 C 0.91622 0.19301 0.18512 0.0
C1198 C 0.94217 0.22805 0.18601 0.0
C1199 C 0.94348 0.24742 0.19828 0.0
C1200 C 0.96943 0.24457 0.17476 0.0
C1201 C 0.91461 0.17015 0.17268 0.0
C1202 C 0.00415 0.25967 0.17882 0.0
C1203 C 0.03005 0.27411 0.16828 0.0
C1204 C 0.02166 0.27345 0.15345 0.0
C1205 C 0.98693 0.25914 0.14944 0.0
C1206 C 0.96107 0.24516 0.16003 0.0
H1207 H 0.89949 0.14247 0.17565 0.0
H1208 H 0.90189 0.1744 0.16316 0.0
H1209 H 0.94077 0.17606 0.16931 0.0
H1210 H 0.01122 0.25967 0.19014 0.0
H1211 H 0.05657 0.285 0.17172 0.0
H1212 H 0.73465 0.98046 0.30761 0.0
H1213 H 0.71237 0.93738 0.32703 0.0
H1214 H 0.71653 0.01318 0.35722 0.0
H1215 H 0.73944 0.05666 0.33792 0.0
H1216 H 0.74791 0.97953 0.36776 0.0
H1217 H 0.61887 0.88523 0.34666 0.0
H1218 H 0.65266 0.89495 0.33377 0.0
H1219 H 0.64377 0.92818 0.33932 0.0
C1220 C 0.73044 0.98789 0.31833 0.0
C1221 C 0.73899 0.02202 0.32125 0.0
C1222 C 0.71742 0.96314 0.32939 0.0
C1223 C 0.71232 0.97196 0.34351 0.0
C1224 C 0.72012 0.00582 0.34637 0.0
H1225 H 0.62466 0.83273 0.41789 0.0
H1226 H 0.63335 0.8713 0.3974 0.0
C1227 C 0.73328 0.03064 0.33534 0.0
C1228 C 0.70188 0.94673 0.35558 0.0
H1229 H 0.64062 0.86607 0.36627 0.0
C1230 C 0.72429 0.95487 0.36749 0.0
C1231 C 0.6709 0.9147 0.35527 0.0
C1232 C 0.64498 0.90533 0.34313 0.0
C1233 C 0.71707 0.93147 0.37892 0.0
C1234 C 0.68695 0.8988 0.37826 0.0
C1235 C 0.66393 0.89099 0.3666 0.0
C1236 C 0.6794 0.87249 0.38959 0.0
C1237 C 0.74174 0.94194 0.39162 0.0
C1238 C 0.70175 0.85953 0.39161 0.0
C1239 C 0.69699 0.83763 0.40329 0.0
C1240 C 0.66959 0.82808 0.41313 0.0
C1241 C 0.64609 0.83962 0.41057 0.0
C1242 C 0.65098 0.86166 0.39887 0.0
H1243 H 0.75845 0.97033 0.39231 0.0
H1244 H 0.72767 0.93241 0.40211 0.0
H1245 H 0.75858 0.93061 0.3902 0.0
H1246 H 0.7235 0.86716 0.38437 0.0
H1247 H 0.71543 0.82904 0.40482 0.0
H1248 H 0.81411 0.62214 0.57371 0.0
H1249 H 0.78848 0.62994 0.55153 0.0
H1250 H 0.85988 0.73916 0.55303 0.0
H1251 H 0.88643 0.73152 0.5748 0.0
H1252 H 0.75556 0.66406 0.54894 0.0
H1253 H 0.86529 0.7213 0.51071 0.0
H1254 H 0.86657 0.70133 0.52763 0.0
H1255 H 0.87606 0.74539 0.52739 0.0
C1256 C 0.82478 0.64775 0.56916 0.0
C1257 C 0.85236 0.67621 0.57604 0.0
C1258 C 0.81007 0.65215 0.55649 0.0
C1259 C 0.82256 0.68506 0.55047 0.0
C1260 C 0.85042 0.71339 0.55719 0.0
H1261 H 0.71271 0.76508 0.50443 0.0
H1262 H 0.73753 0.74277 0.52199 0.0
C1263 C 0.86542 0.70899 0.56975 0.0
C1264 C 0.80464 0.69033 0.53799 0.0
H1265 H 0.81867 0.73195 0.50535 0.0
C1266 C 0.76927 0.67842 0.53929 0.0
C1267 C 0.82229 0.70848 0.52527 0.0
C1268 C 0.85956 0.71949 0.5226 0.0
C1269 C 0.75147 0.68564 0.52857 0.0
C1270 C 0.76978 0.70625 0.51645 0.0
C1271 C 0.80474 0.71665 0.51477 0.0
C1272 C 0.75363 0.71862 0.50574 0.0
C1273 C 0.71326 0.67112 0.53039 0.0
C1274 C 0.7553 0.71337 0.49072 0.0
C1275 C 0.7417 0.7267 0.48061 0.0
C1276 C 0.72612 0.74547 0.48537 0.0
C1277 C 0.72426 0.75047 0.50042 0.0
C1278 C 0.7382 0.73748 0.51049 0.0
H1279 H 0.70156 0.64705 0.53694 0.0
H1280 H 0.70868 0.69003 0.53631 0.0
H1281 H 0.69997 0.66558 0.51967 0.0
H1282 H 0.76728 0.69908 0.48681 0.0
H1283 H 0.7435 0.7224 0.46908 0.0
H1284 H 0.14852 0.88364 0.74554 0.0
H1285 H 0.11066 0.85593 0.72477 0.0
H1286 H 0.14933 0.78552 0.72097 0.0
H1287 H 0.18651 0.81231 0.74212 0.0
H1288 H 0.12145 0.8468 0.69685 0.0
H1289 H 0.04744 0.71985 0.72412 0.0
H1290 H 0.07787 0.75808 0.73379 0.0
H1291 H 0.09263 0.73486 0.72274 0.0
C1292 C 0.14917 0.86237 0.74028 0.0
C1293 C 0.17029 0.84994 0.74563 0.0
C1294 C 0.12748 0.84655 0.72838 0.0
C1295 C 0.12659 0.81816 0.72153 0.0
C1296 C 0.14887 0.80676 0.72636 0.0
H1297 H 0.01811 0.73946 0.63862 0.0
H1298 H 0.0625 0.7642 0.65749 0.0
C1299 C 0.17031 0.8223 0.73839 0.0
C1300 C 0.10184 0.80031 0.70951 0.0
H1301 H 0.03388 0.7228 0.69938 0.0
C1302 C 0.10234 0.81967 0.69738 0.0
C1303 C 0.07658 0.76501 0.71034 0.0
C1304 C 0.07327 0.74328 0.7235 0.0
C1305 C 0.07815 0.80481 0.68609 0.0
C1306 C 0.05344 0.76932 0.68675 0.0
C1307 C 0.05307 0.74991 0.69883 0.0
C1308 C 0.02666 0.75223 0.67536 0.0
C1309 C 0.07857 0.82761 0.67387 0.0
C1310 C 0.99173 0.73579 0.67922 0.0
C1311 C 0.96629 0.72105 0.6685 0.0
C1312 C 0.97536 0.72268 0.65371 0.0
C1313 C 0.01033 0.73819 0.64991 0.0
C1314 C 0.03574 0.75254 0.66067 0.0
H1315 H 0.09256 0.8552 0.67704 0.0
H1316 H 0.09189 0.82458 0.66425 0.0
H1317 H 0.05206 0.82055 0.67055 0.0
H1318 H 0.98415 0.73507 0.69052 0.0
H1319 H 0.93957 0.70923 0.67178 0.0
H1320 H 0.3712 0.1661 0.91764 0.0
H1321 H 0.36179 0.12813 0.8969 0.0
H1322 H 0.27155 0.13311 0.8848 0.0
H1323 H 0.28024 0.17049 0.90561 0.0
H1324 H 0.25923 0.06722 0.88715 0.0
H1325 H 0.37486 0.1453 0.85297 0.0
H1326 H 0.38411 0.14086 0.87168 0.0
H1327 H 0.36183 0.16372 0.86744 0.0
C1328 C 0.34967 0.15964 0.91044 0.0
C1329 C 0.32642 0.17132 0.91334 0.0
C1330 C 0.34445 0.13803 0.89854 0.0
C1331 C 0.31616 0.12806 0.88925 0.0
C1332 C 0.29359 0.14057 0.89184 0.0
H1333 H 0.26347 0.01679 0.80775 0.0
H1334 H 0.28327 0.06017 0.82704 0.0
C1335 C 0.29865 0.16199 0.90375 0.0
C1336 C 0.3083 0.10236 0.87756 0.0
H1337 H 0.33941 0.08663 0.84623 0.0
C1338 C 0.27673 0.07148 0.87819 0.0
C1339 C 0.33113 0.10812 0.86586 0.0
C1340 C 0.36476 0.14141 0.86432 0.0
C1341 C 0.26729 0.04614 0.86742 0.0
C1342 C 0.29041 0.05152 0.85588 0.0
C1343 C 0.32196 0.08246 0.8552 0.0
C1344 C 0.28143 0.0259 0.84408 0.0
C1345 C 0.23226 0.0142 0.86831 0.0
C1346 C 0.27474 0.9925 0.84722 0.0
C1347 C 0.26319 0.96754 0.83624 0.0
C1348 C 0.25843 0.97569 0.82192 0.0
C1349 C 0.26669 0.00961 0.81869 0.0
C1350 C 0.27808 0.03448 0.82968 0.0
H1351 H 0.21471 0.0178 0.87572 0.0
H1352 H 0.22015 0.00677 0.85735 0.0
H1353 H 0.23505 0.99262 0.87262 0.0
H1354 H 0.27784 0.98558 0.85822 0.0
H1355 H 0.25744 0.94176 0.83905 0.0
H1356 H 0.72504 0.89313 0.75905 0.0
H1357 H 0.73539 0.8651 0.7797 0.0
H1358 H 0.63965 0.77201 0.77112 0.0
H1359 H 0.62858 0.79995 0.75062 0.0
H1360 H 0.65157 0.78644 0.80068 0.0
H1361 H 0.76543 0.79404 0.77331 0.0
H1362 H 0.76809 0.83505 0.77541 0.0
H1363 H 0.73539 0.80286 0.76389 0.0
C1364 C 0.70593 0.86682 0.76163 0.0
C1365 C 0.67613 0.8487 0.75305 0.0
C1366 C 0.71203 0.85079 0.77339 0.0
C1367 C 0.68868 0.81626 0.7767 0.0
C1368 C 0.65811 0.79862 0.76866 0.0
H1369 H 0.74381 0.68711 0.82738 0.0
H1370 H 0.72347 0.71085 0.80833 0.0
C1371 C 0.65185 0.81468 0.75694 0.0
C1372 C 0.69678 0.79816 0.78818 0.0
H1373 H 0.75613 0.77561 0.79803 0.0
C1374 C 0.67435 0.78393 0.8001 0.0
C1375 C 0.72613 0.79431 0.78722 0.0
C1376 C 0.74998 0.80705 0.7742 0.0
C1377 C 0.68097 0.76665 0.81131 0.0
C1378 C 0.71117 0.76419 0.81066 0.0
C1379 C 0.73314 0.77776 0.79857 0.0
C1380 C 0.72091 0.74815 0.82248 0.0
C1381 C 0.65532 0.7508 0.82359 0.0
C1382 C 0.72619 0.76121 0.83676 0.0
C1383 C 0.73759 0.74757 0.84768 0.0
C1384 C 0.74443 0.72092 0.84447 0.0
C1385 C 0.73887 0.70768 0.83019 0.0
C1386 C 0.72722 0.7212 0.8193 0.0
H1387 H 0.62939 0.74571 0.82026 0.0
H1388 H 0.65325 0.72629 0.82732 0.0
H1389 H 0.66385 0.76889 0.83296 0.0
H1390 H 0.72234 0.78257 0.83938 0.0
H1391 H 0.74185 0.75851 0.85854 0.0
H1392 H 0.82824 0.72266 0.92674 0.0
H1393 H 0.86577 0.733 0.94769 0.0
H1394 H 0.86351 0.63729 0.93951 0.0
H1395 H 0.82535 0.62623 0.91868 0.0
H1396 H 0.86022 0.6499 0.96919 0.0
H1397 H 0.96708 0.76265 0.94143 0.0
H1398 H 0.92867 0.76533 0.94324 0.0
H1399 H 0.92833 0.73227 0.93203 0.0
C1400 C 0.83531 0.70353 0.92947 0.0
C1401 C 0.82405 0.67378 0.9209 0.0
C1402 C 0.85693 0.70961 0.94142 0.0
C1403 C 0.86801 0.68629 0.94492 0.0
C1404 C 0.85541 0.65572 0.9369 0.0
H1405 H 0.05181 0.74098 0.99545 0.0
H1406 H 0.00728 0.72027 0.97662 0.0
C1407 C 0.83359 0.64947 0.92499 0.0
C1408 C 0.89402 0.69459 0.95648 0.0
H1409 H 0.97607 0.75379 0.9662 0.0
C1410 C 0.8856 0.67254 0.96855 0.0
C1411 C 0.92732 0.72377 0.95543 0.0
C1412 C 0.9386 0.7472 0.94227 0.0
C1413 C 0.90942 0.67936 0.97981 0.0
C1414 C 0.94223 0.70934 0.97904 0.0
C1415 C 0.95081 0.73096 0.96682 0.0
C1416 C 0.96813 0.71913 0.9908 0.0
C1417 C 0.89943 0.65415 0.99228 0.0
C1418 C 0.96085 0.72527 0.00503 0.0
C1419 C 0.98617 0.73691 0.01584 0.0
C1420 C 0.01939 0.74311 0.01254 0.0
C1421 C 0.02651 0.7366 0.99832 0.0
C1422 C 0.0011 0.72472 0.98755 0.0
H1423 H 0.87818 0.62825 0.98915 0.0
H1424 H 0.92166 0.65174 0.99602 0.0
H1425 H 0.89038 0.66338 0.00159 0.0
H1426 H 0.93585 0.72194 0.00769 0.0
H1427 H 0.97994 0.74189 0.02667 0.0
H1428 H 0.1064 0.82717 0.09425 0.0
H1429 H 0.13492 0.86531 0.11489 0.0
H1430 H 0.2299 0.86878 0.10371 0.0
H1431 H 0.20155 0.83014 0.0831 0.0
H1432 H 0.21626 0.86407 0.1342 0.0
H1433 H 0.20294 0.96806 0.10772 0.0
H1434 H 0.16304 0.92842 0.10983 0.0
H1435 H 0.19585 0.93005 0.09803 0.0
C1436 C 0.13325 0.83564 0.09624 0.0
C1437 C 0.15176 0.82585 0.08689 0.0
C1438 C 0.14953 0.85757 0.10802 0.0
C1439 C 0.18464 0.87037 0.11061 0.0
C1440 C 0.2028 0.8593 0.10181 0.0
H1441 H 0.31101 0.0552 0.16119 0.0
H1442 H 0.28828 0.01096 0.14221 0.0
C1443 C 0.18652 0.83721 0.09003 0.0
C1444 C 0.2027 0.89663 0.12204 0.0
H1445 H 0.22266 0.97761 0.13224 0.0
C1446 C 0.21783 0.88897 0.13378 0.0
C1447 C 0.20523 0.92928 0.12127 0.0
C1448 C 0.19121 0.93968 0.10847 0.0
C1449 C 0.23469 0.91289 0.14502 0.0
C1450 C 0.2359 0.94499 0.14456 0.0
C1451 C 0.22148 0.95288 0.13263 0.0
C1452 C 0.25153 0.97076 0.15639 0.0
C1453 C 0.25136 0.90374 0.15719 0.0
C1454 C 0.23844 0.96278 0.17066 0.0
C1455 C 0.25144 0.98796 0.18154 0.0
C1456 C 0.27748 0.0217 0.17829 0.0
C1457 C 0.29084 0.0295 0.16403 0.0
C1458 C 0.27794 0.00425 0.15318 0.0
H1459 H 0.2569 0.88322 0.15381 0.0
H1460 H 0.27572 0.92656 0.16077 0.0
H1461 H 0.23362 0.89404 0.16668 0.0
H1462 H 0.21751 0.93733 0.17329 0.0
H1463 H 0.24048 0.98117 0.19241 0.0
H1464 H 0.2785 0.107 0.2603 0.0
H1465 H 0.26872 0.13526 0.28099 0.0
H1466 H 0.3611 0.23002 0.27042 0.0
H1467 H 0.37157 0.20192 0.24976 0.0
H1468 H 0.35136 0.21593 0.30077 0.0
H1469 H 0.23498 0.204 0.27397 0.0
H1470 H 0.23426 0.16387 0.27604 0.0
H1471 H 0.26584 0.19668 0.26436 0.0
C1472 C 0.29704 0.13374 0.26243 0.0
C1473 C 0.32564 0.15227 0.25323 0.0
C1474 C 0.29128 0.14988 0.27424 0.0
C1475 C 0.3138 0.18487 0.27702 0.0
C1476 C 0.34332 0.20302 0.26837 0.0
H1477 H 0.25604 0.31212 0.3273 0.0
H1478 H 0.27745 0.28898 0.30846 0.0
C1479 C 0.34922 0.18688 0.25657 0.0
C1480 C 0.30555 0.20287 0.28847 0.0
H1481 H 0.2449 0.22347 0.29852 0.0
C1482 C 0.32817 0.21774 0.30029 0.0
C1483 C 0.27561 0.20571 0.28763 0.0
C1484 C 0.25141 0.19203 0.27475 0.0
C1485 C 0.32115 0.23468 0.31152 0.0
C1486 C 0.29046 0.23623 0.31097 0.0
C1487 C 0.26829 0.22202 0.29897 0.0
C1488 C 0.28041 0.25212 0.32274 0.0
C1489 C 0.34683 0.2511 0.32374 0.0
C1490 C 0.27509 0.23914 0.33703 0.0
C1491 C 0.26298 0.25239 0.34785 0.0
C1492 C 0.25556 0.27857 0.3445 0.0
C1493 C 0.26136 0.29185 0.33022 0.0
C1494 C 0.27364 0.2787 0.31944 0.0
H1495 H 0.37285 0.25639 0.32044 0.0
H1496 H 0.34859 0.27557 0.32732 0.0
H1497 H 0.3385 0.23331 0.33322 0.0
H1498 H 0.27937 0.21808 0.33974 0.0
H1499 H 0.25862 0.24149 0.35873 0.0
H1500 H 0.18626 0.38137 0.42002 0.0
H1501 H 0.15278 0.37503 0.44208 0.0
H1502 H 0.12091 0.2671 0.44381 0.0
H1503 H 0.15511 0.27336 0.42223 0.0
H1504 H 0.08597 0.33812 0.44587 0.0
H1505 H 0.14726 0.29282 0.48543 0.0
H1506 H 0.16647 0.31083 0.46796 0.0
H1507 H 0.13405 0.26605 0.4695 0.0
C1508 C 0.17256 0.35639 0.42524 0.0
C1509 C 0.17351 0.3279 0.41936 0.0
C1510 C 0.15342 0.35282 0.43784 0.0
C1511 C 0.13482 0.32073 0.44477 0.0
C1512 C 0.13587 0.29235 0.43895 0.0
H1513 H 0.94734 0.23627 0.49286 0.0
H1514 H 0.99328 0.2598 0.4747 0.0
C1515 C 0.15528 0.29595 0.42649 0.0
C1516 C 0.1122 0.31607 0.45741 0.0
H1517 H 0.08893 0.27863 0.49104 0.0
C1518 C 0.08699 0.32564 0.45585 0.0
C1519 C 0.11392 0.30048 0.47058 0.0
C1520 C 0.14217 0.29235 0.47352 0.0
C1521 C 0.06233 0.31835 0.46677 0.0
C1522 C 0.06222 0.3 0.47937 0.0
C1523 C 0.08857 0.29214 0.48127 0.0
C1524 C 0.03424 0.28727 0.49038 0.0
C1525 C 0.03668 0.33037 0.46464 0.0
C1526 C 0.04199 0.294 0.50529 0.0
C1527 C 0.0158 0.2799 0.51574 0.0
C1528 C 0.98135 0.25893 0.51144 0.0
C1529 C 0.97359 0.25258 0.49651 0.0
C1530 C -0.00017 0.26629 0.48609 0.0
H1531 H 0.04748 0.35372 0.45765 0.0
H1532 H 0.01355 0.3099 0.45904 0.0
H1533 H 0.02866 0.33623 0.47523 0.0
H1534 H 0.06836 0.30994 0.50887 0.0
H1535 H 0.02256 0.28532 0.52718 0.0
H1536 H 0.69107 0.94455 0.65999 0.0
H1537 H 0.71593 0.9888 0.64104 0.0
H1538 H 0.78274 0.06267 0.67299 0.0
H1539 H 0.7577 0.01882 0.69207 0.0
H1540 H 0.75405 0.0894 0.65352 0.0
H1541 H 0.81224 0.0223 0.62446 0.0
H1542 H 0.7666 0.99654 0.62709 0.0
H1543 H 0.79477 0.01056 0.64266 0.0
C1544 C 0.71093 0.97025 0.66301 0.0
C1545 C 0.72268 0.97808 0.6775 0.0
C1546 C 0.72517 0.99545 0.65216 0.0
C1547 C 0.75159 0.02879 0.65558 0.0
C1548 C 0.76248 0.03702 0.67012 0.0
H1549 H 0.89588 0.17428 0.5934 0.0
H1550 H 0.86857 0.13725 0.61447 0.0
C1551 C 0.74817 0.0119 0.681 0.0
C1552 C 0.76872 0.0548 0.64395 0.0
H1553 H 0.81609 0.07115 0.61278 0.0
C1554 C 0.76767 0.08551 0.64461 0.0
C1555 C 0.78693 0.04981 0.63249 0.0
C1556 C 0.79056 0.01819 0.63165 0.0
C1557 C 0.78399 0.11123 0.63397 0.0
C1558 C 0.8013 0.10575 0.62227 0.0
C1559 C 0.80264 0.0752 0.62172 0.0
C1560 C 0.81837 0.13124 0.61043 0.0
C1561 C 0.78308 0.14423 0.63547 0.0
C1562 C 0.79929 0.14053 0.60127 0.0
C1563 C 0.81487 0.16193 0.58924 0.0
C1564 C 0.84976 0.17408 0.58604 0.0
C1565 C 0.86898 0.16541 0.5955 0.0
C1566 C 0.85341 0.1442 0.60755 0.0
H1567 H 0.77729 0.14826 0.64687 0.0
H1568 H 0.80794 0.16674 0.63212 0.0
H1569 H 0.7626 0.14306 0.6283 0.0
H1570 H 0.77204 0.13025 0.60312 0.0
H1571 H 0.79922 0.16787 0.58215 0.0
loop_
_geom_bond_atom_site_label_1
_geom_bond_atom_site_label_2
_geom_bond_distance
_geom_bond_site_symmetry_2
_ccdc_geom_bond_type
Co0 O2 2.143 . S
Co0 O8 2.074 . S
Co0 O11 2.093 . S
Co0 O24 2.097 . S
Co0 N41 2.151 . S
Co0 N49 2.214 . S
Co1 O2 2.160 . S
Co1 O7 2.058 . S
Co1 O17 2.057 . S
Co1 O32 2.037 . S
Co1 N36 2.145 . S
Co1 N57 2.257 . S
O2 Co0 2.143 . S
O2 Co1 2.160 . S
C3 O4 1.278 . S
C3 O11 1.224 . S
O4 C3 1.278 . S
C5 O6 1.245 . S
C5 O17 1.232 . S
O6 C5 1.245 . S
O7 Co1 2.058 . S
O7 C33 1.269 . S
O8 Co0 2.074 . S
O8 C33 1.257 . S
H9 C34 0.930 . S
H10 C40 0.930 . S
O11 Co0 2.093 . S
O11 C3 1.224 . S
H12 C44 0.929 . S
H13 C46 0.930 . S
H14 C47 0.930 . S
H15 C45 0.929 . S
H16 C48 0.928 . S
O17 Co1 2.057 . S
O17 C5 1.232 . S
H18 C37 0.929 . S
H19 C38 0.929 . S
H20 C50 0.931 . S
H21 C42 0.929 1_655 S
H22 C51 0.930 . S
H23 C43 0.931 1_655 S
O24 Co0 2.097 . S
O24 C52 1.214 . S
H25 C53 0.929 . S
H26 C54 0.929 . S
H27 C55 0.930 . S
H28 C56 0.929 . S
H29 C58 0.930 . S
H30 C35 0.930 . S
H31 C39 0.930 . S
O32 Co1 2.037 . S
O32 C52 1.234 . S
C33 O7 1.269 . S
C33 O8 1.257 . S
C34 H9 0.930 . S
C34 C37 1.388 . S
C34 C39 1.418 . S
C35 H30 0.930 . S
C35 C38 1.404 . S
C35 C39 1.353 . S
N36 Co1 2.145 . S
N36 C37 1.397 . S
N36 C38 1.334 . S
C37 H18 0.929 . S
C37 C34 1.388 . S
C37 N36 1.397 . S
C38 H19 0.929 . S
C38 C35 1.404 . S
C38 N36 1.334 . S
C39 H31 0.930 . S
C39 C34 1.418 . S
C39 C35 1.353 . S
C40 H10 0.930 . S
C40 N41 1.330 . S
C40 C42 1.446 . S
N41 Co0 2.151 . S
N41 C40 1.330 . S
N41 C45 1.418 . S
C42 H21 0.929 1_455 S
C42 C40 1.446 . S
C42 C43 1.332 . S
C43 H23 0.931 1_455 S
C43 C42 1.332 . S
C43 C44 1.267 . S
C44 H12 0.929 . S
C44 C43 1.267 . S
C44 C45 1.251 . S
C45 H15 0.929 . S
C45 N41 1.418 . S
C45 C44 1.251 . S
C46 H13 0.930 . S
C46 C48 1.406 . S
C46 C51 1.261 . S
C47 H14 0.930 . S
C47 N49 1.325 . S
C47 C50 1.357 . S
C48 H16 0.928 . S
C48 C46 1.406 . S
C48 N49 1.261 . S
N49 Co0 2.214 . S
N49 C47 1.325 . S
N49 C48 1.261 . S
C50 H20 0.931 . S
C50 C47 1.357 . S
C50 C51 1.312 . S
C51 H22 0.930 . S
C51 C46 1.261 . S
C51 C50 1.312 . S
C52 O24 1.214 . S
C52 O32 1.234 . S
C53 H25 0.929 . S
C53 C56 1.391 . S
C53 C58 1.391 . S
C54 H26 0.929 . S
C54 C55 1.390 . S
C54 N57 1.391 . S
C55 H27 0.930 . S
C55 C54 1.390 . S
C55 C56 1.392 . S
C56 H28 0.929 . S
C56 C53 1.391 . S
C56 C55 1.392 . S
N57 Co1 2.257 . S
N57 C54 1.391 . S
N57 C58 1.388 . S
C58 H29 0.930 . S
C58 C53 1.391 . S
C58 N57 1.388 . S
Co59 O61 2.143 . S
Co59 O67 2.074 . S
Co59 O70 2.093 . S
Co59 O83 2.097 . S
Co59 N100 2.151 . S
Co59 N108 2.214 . S
Co60 O61 2.160 . S
Co60 O66 2.058 . S
Co60 O76 2.057 . S
Co60 O91 2.037 . S
Co60 N95 2.145 . S
Co60 N116 2.257 . S
O61 Co59 2.143 . S
O61 Co60 2.160 . S
C62 O63 1.278 . S
C62 O70 1.224 . S
O63 C62 1.278 . S
C64 O65 1.245 . S
C64 O76 1.232 . S
O65 C64 1.245 . S
O66 Co60 2.058 . S
O66 C92 1.269 . S
O67 Co59 2.074 . S
O67 C92 1.257 . S
H68 C93 0.930 . S
H69 C99 0.930 . S
O70 Co59 2.093 . S
O70 C62 1.224 . S
H71 C103 0.929 . S
H72 C105 0.930 . S
H73 C106 0.930 . S
H74 C104 0.929 . S
H75 C107 0.928 . S
O76 Co60 2.057 . S
O76 C64 1.232 . S
H77 C96 0.929 . S
H78 C97 0.929 . S
H79 C109 0.931 . S
H80 C101 0.929 1_565 S
H81 C110 0.930 . S
H82 C102 0.931 1_565 S
O83 Co59 2.097 . S
O83 C111 1.214 . S
H84 C112 0.929 . S
H85 C113 0.929 . S
H86 C114 0.930 . S
H87 C115 0.929 . S
H88 C117 0.930 . S
H89 C94 0.930 . S
H90 C98 0.930 . S
O91 Co60 2.037 . S
O91 C111 1.234 . S
C92 O66 1.269 . S
C92 O67 1.257 . S
C93 H68 0.930 . S
C93 C96 1.388 . S
C93 C98 1.418 . S
C94 H89 0.930 . S
C94 C97 1.404 . S
C94 C98 1.353 . S
N95 Co60 2.145 . S
N95 C96 1.397 . S
N95 C97 1.334 . S
C96 H77 0.929 . S
C96 C93 1.388 . S
C96 N95 1.397 . S
C97 H78 0.929 . S
C97 C94 1.404 . S
C97 N95 1.334 . S
C98 H90 0.930 . S
C98 C93 1.418 . S
C98 C94 1.353 . S
C99 H69 0.930 . S
C99 N100 1.330 . S
C99 C101 1.446 . S
N100 Co59 2.151 . S
N100 C99 1.330 . S
N100 C104 1.418 . S
C101 H80 0.929 1_545 S
C101 C99 1.446 . S
C101 C102 1.332 . S
C102 H82 0.931 1_545 S
C102 C101 1.332 . S
C102 C103 1.267 . S
C103 H71 0.929 . S
C103 C102 1.267 . S
C103 C104 1.251 . S
C104 H74 0.929 . S
C104 N100 1.418 . S
C104 C103 1.251 . S
C105 H72 0.930 . S
C105 C107 1.406 . S
C105 C110 1.261 . S
C106 H73 0.930 . S
C106 N108 1.325 . S
C106 C109 1.357 . S
C107 H75 0.928 . S
C107 C105 1.406 . S
C107 N108 1.261 . S
N108 Co59 2.214 . S
N108 C106 1.325 . S
N108 C107 1.261 . S
C109 H79 0.931 . S
C109 C106 1.357 . S
C109 C110 1.312 . S
C110 H81 0.930 . S
C110 C105 1.261 . S
C110 C109 1.312 . S
C111 O83 1.214 . S
C111 O91 1.234 . S
C112 H84 0.929 . S
C112 C115 1.391 . S
C112 C117 1.391 . S
C113 H85 0.929 . S
C113 C114 1.390 . S
C113 N116 1.391 . S
C114 H86 0.930 . S
C114 C113 1.390 . S
C114 C115 1.392 . S
C115 H87 0.929 . S
C115 C112 1.391 . S
C115 C114 1.392 . S
N116 Co60 2.257 . S
N116 C113 1.391 . S
N116 C117 1.388 . S
C117 H88 0.930 . S
C117 C112 1.391 . S
C117 N116 1.388 . S
Co118 O120 2.143 . S
Co118 O126 2.074 . S
Co118 O129 2.093 . S
Co118 O142 2.097 . S
Co118 N159 2.151 . S
Co118 N167 2.214 . S
Co119 O120 2.160 . S
Co119 O125 2.058 . S
Co119 O135 2.057 . S
Co119 O150 2.037 . S
Co119 N154 2.145 . S
Co119 N175 2.257 . S
O120 Co118 2.143 . S
O120 Co119 2.160 . S
C121 O122 1.278 . S
C121 O129 1.224 . S
O122 C121 1.278 . S
C123 O124 1.245 . S
C123 O135 1.232 . S
O124 C123 1.245 . S
O125 Co119 2.058 . S
O125 C151 1.269 . S
O126 Co118 2.074 . S
O126 C151 1.257 . S
H127 C152 0.930 . S
H128 C158 0.930 . S
O129 Co118 2.093 . S
O129 C121 1.224 . S
H130 C162 0.929 . S
H131 C164 0.930 . S
H132 C165 0.930 . S
H133 C163 0.929 . S
H134 C166 0.928 . S
O135 Co119 2.057 . S
O135 C123 1.232 . S
H136 C155 0.929 . S
H137 C156 0.929 . S
H138 C168 0.931 . S
H139 C160 0.929 . S
H140 C169 0.930 . S
H141 C161 0.931 . S
O142 Co118 2.097 . S
O142 C170 1.214 . S
H143 C171 0.929 . S
H144 C172 0.929 . S
H145 C173 0.930 . S
H146 C174 0.929 . S
H147 C176 0.930 . S
H148 C153 0.930 . S
H149 C157 0.930 . S
O150 Co119 2.037 . S
O150 C170 1.234 . S
C151 O125 1.269 . S
C151 O126 1.257 . S
C152 H127 0.930 . S
C152 C155 1.388 . S
C152 C157 1.418 . S
C153 H148 0.930 . S
C153 C156 1.404 . S
C153 C157 1.353 . S
N154 Co119 2.145 . S
N154 C155 1.397 . S
N154 C156 1.334 . S
C155 H136 0.929 . S
C155 C152 1.388 . S
C155 N154 1.397 . S
C156 H137 0.929 . S
C156 C153 1.404 . S
C156 N154 1.334 . S
C157 H149 0.930 . S
C157 C152 1.418 . S
C157 C153 1.353 . S
C158 H128 0.930 . S
C158 N159 1.330 . S
C158 C160 1.446 . S
N159 Co118 2.151 . S
N159 C158 1.330 . S
N159 C163 1.418 . S
C160 H139 0.929 . S
C160 C158 1.446 . S
C160 C161 1.332 . S
C161 H141 0.931 . S
C161 C160 1.332 . S
C161 C162 1.267 . S
C162 H130 0.929 . S
C162 C161 1.267 . S
C162 C163 1.251 . S
C163 H133 0.929 . S
C163 N159 1.418 . S
C163 C162 1.251 . S
C164 H131 0.930 . S
C164 C166 1.406 . S
C164 C169 1.261 . S
C165 H132 0.930 . S
C165 N167 1.325 . S
C165 C168 1.357 . S
C166 H134 0.928 . S
C166 C164 1.406 . S
C166 N167 1.261 . S
N167 Co118 2.214 . S
N167 C165 1.325 . S
N167 C166 1.261 . S
C168 H138 0.931 . S
C168 C165 1.357 . S
C168 C169 1.312 . S
C169 H140 0.930 . S
C169 C164 1.261 . S
C169 C168 1.312 . S
C170 O142 1.214 . S
C170 O150 1.234 . S
C171 H143 0.929 . S
C171 C174 1.391 . S
C171 C176 1.391 . S
C172 H144 0.929 . S
C172 C173 1.390 . S
C172 N175 1.391 . S
C173 H145 0.930 . S
C173 C172 1.390 . S
C173 C174 1.392 . S
C174 H146 0.929 . S
C174 C171 1.391 . S
C174 C173 1.392 . S
N175 Co119 2.257 . S
N175 C172 1.391 . S
N175 C176 1.388 . S
C176 H147 0.930 . S
C176 C171 1.391 . S
C176 N175 1.388 . S
Co177 O179 2.143 . S
Co177 O185 2.074 . S
Co177 O188 2.093 . S
Co177 O201 2.097 . S
Co177 N218 2.151 . S
Co177 N226 2.214 . S
Co178 O179 2.160 . S
Co178 O184 2.058 . S
Co178 O194 2.057 . S
Co178 O209 2.037 . S
Co178 N213 2.145 . S
Co178 N234 2.257 . S
O179 Co177 2.143 . S
O179 Co178 2.160 . S
C180 O181 1.278 . S
C180 O188 1.224 . S
O181 C180 1.278 . S
C182 O183 1.245 . S
C182 O194 1.232 . S
O183 C182 1.245 . S
O184 Co178 2.058 . S
O184 C210 1.269 . S
O185 Co177 2.074 . S
O185 C210 1.257 . S
H186 C211 0.930 . S
H187 C217 0.930 . S
O188 Co177 2.093 . S
O188 C180 1.224 . S
H189 C221 0.929 . S
H190 C223 0.930 . S
H191 C224 0.930 . S
H192 C222 0.929 . S
H193 C225 0.928 . S
O194 Co178 2.057 . S
O194 C182 1.232 . S
H195 C214 0.929 . S
H196 C215 0.929 . S
H197 C227 0.931 . S
H198 C219 0.929 1_455 S
H199 C228 0.930 . S
H200 C220 0.931 1_455 S
O201 Co177 2.097 . S
O201 C229 1.214 . S
H202 C230 0.929 . S
H203 C231 0.929 . S
H204 C232 0.930 . S
H205 C233 0.929 . S
H206 C235 0.930 . S
H207 C212 0.930 . S
H208 C216 0.930 . S
O209 Co178 2.037 . S
O209 C229 1.234 . S
C210 O184 1.269 . S
C210 O185 1.257 . S
C211 H186 0.930 . S
C211 C214 1.388 . S
C211 C216 1.418 . S
C212 H207 0.930 . S
C212 C215 1.404 . S
C212 C216 1.353 . S
N213 Co178 2.145 . S
N213 C214 1.397 . S
N213 C215 1.334 . S
C214 H195 0.929 . S
C214 C211 1.388 . S
C214 N213 1.397 . S
C215 H196 0.929 . S
C215 C212 1.404 . S
C215 N213 1.334 . S
C216 H208 0.930 . S
C216 C211 1.418 . S
C216 C212 1.353 . S
C217 H187 0.930 . S
C217 N218 1.330 . S
C217 C219 1.446 . S
N218 Co177 2.151 . S
N218 C217 1.330 . S
N218 C222 1.418 . S
C219 H198 0.929 1_655 S
C219 C217 1.446 . S
C219 C220 1.332 . S
C220 H200 0.931 1_655 S
C220 C219 1.332 . S
C220 C221 1.267 . S
C221 H189 0.929 . S
C221 C220 1.267 . S
C221 C222 1.251 . S
C222 H192 0.929 . S
C222 N218 1.418 . S
C222 C221 1.251 . S
C223 H190 0.930 . S
C223 C225 1.406 . S
C223 C228 1.261 . S
C224 H191 0.930 . S
C224 N226 1.325 . S
C224 C227 1.357 . S
C225 H193 0.928 . S
C225 C223 1.406 . S
C225 N226 1.261 . S
N226 Co177 2.214 . S
N226 C224 1.325 . S
N226 C225 1.261 . S
C227 H197 0.931 . S
C227 C224 1.357 . S
C227 C228 1.312 . S
C228 H199 0.930 . S
C228 C223 1.261 . S
C228 C227 1.312 . S
C229 O201 1.214 . S
C229 O209 1.234 . S
C230 H202 0.929 . S
C230 C233 1.391 . S
C230 C235 1.391 . S
C231 H203 0.929 . S
C231 C232 1.390 . S
C231 N234 1.391 . S
C232 H204 0.930 . S
C232 C231 1.390 . S
C232 C233 1.392 . S
C233 H205 0.929 . S
C233 C230 1.391 . S
C233 C232 1.392 . S
N234 Co178 2.257 . S
N234 C231 1.391 . S
N234 C235 1.388 . S
C235 H206 0.930 . S
C235 C230 1.391 . S
C235 N234 1.388 . S
Co236 O238 2.143 . S
Co236 O244 2.074 . S
Co236 O247 2.093 . S
Co236 O260 2.097 . S
Co236 N277 2.151 . S
Co236 N285 2.214 . S
Co237 O238 2.160 . S
Co237 O243 2.058 . S
Co237 O253 2.057 . S
Co237 O268 2.037 . S
Co237 N272 2.145 . S
Co237 N293 2.257 . S
O238 Co236 2.143 . S
O238 Co237 2.160 . S
C239 O240 1.278 . S
C239 O247 1.224 . S
O240 C239 1.278 . S
C241 O242 1.245 . S
C241 O253 1.232 . S
O242 C241 1.245 . S
O243 Co237 2.058 . S
O243 C269 1.269 . S
O244 Co236 2.074 . S
O244 C269 1.257 . S
H245 C270 0.930 . S
H246 C276 0.930 . S
O247 Co236 2.093 . S
O247 C239 1.224 . S
H248 C280 0.929 . S
H249 C282 0.930 . S
H250 C283 0.930 . S
H251 C281 0.929 . S
H252 C284 0.928 . S
O253 Co237 2.057 . S
O253 C241 1.232 . S
H254 C273 0.929 . S
H255 C274 0.929 . S
H256 C286 0.931 . S
H257 C278 0.929 1_545 S
H258 C287 0.930 . S
H259 C279 0.931 1_545 S
O260 Co236 2.097 . S
O260 C288 1.214 . S
H261 C289 0.929 . S
H262 C290 0.929 . S
H263 C291 0.930 . S
H264 C292 0.929 . S
H265 C294 0.930 . S
H266 C271 0.930 . S
H267 C275 0.930 . S
O268 Co237 2.037 . S
O268 C288 1.234 . S
C269 O243 1.269 . S
C269 O244 1.257 . S
C270 H245 0.930 . S
C270 C273 1.388 . S
C270 C275 1.418 . S
C271 H266 0.930 . S
C271 C274 1.404 . S
C271 C275 1.353 . S
N272 Co237 2.145 . S
N272 C273 1.397 . S
N272 C274 1.334 . S
C273 H254 0.929 . S
C273 C270 1.388 . S
C273 N272 1.397 . S
C274 H255 0.929 . S
C274 C271 1.404 . S
C274 N272 1.334 . S
C275 H267 0.930 . S
C275 C270 1.418 . S
C275 C271 1.353 . S
C276 H246 0.930 . S
C276 N277 1.330 . S
C276 C278 1.446 . S
N277 Co236 2.151 . S
N277 C276 1.330 . S
N277 C281 1.418 . S
C278 H257 0.929 1_565 S
C278 C276 1.446 . S
C278 C279 1.332 . S
C279 H259 0.931 1_565 S
C279 C278 1.332 . S
C279 C280 1.267 . S
C280 H248 0.929 . S
C280 C279 1.267 . S
C280 C281 1.251 . S
C281 H251 0.929 . S
C281 N277 1.418 . S
C281 C280 1.251 . S
C282 H249 0.930 . S
C282 C284 1.406 . S
C282 C287 1.261 . S
C283 H250 0.930 . S
C283 N285 1.325 . S
C283 C286 1.357 . S
C284 H252 0.928 . S
C284 C282 1.406 . S
C284 N285 1.261 . S
N285 Co236 2.214 . S
N285 C283 1.325 . S
N285 C284 1.261 . S
C286 H256 0.931 . S
C286 C283 1.357 . S
C286 C287 1.312 . S
C287 H258 0.930 . S
C287 C282 1.261 . S
C287 C286 1.312 . S
C288 O260 1.214 . S
C288 O268 1.234 . S
C289 H261 0.929 . S
C289 C292 1.391 . S
C289 C294 1.391 . S
C290 H262 0.929 . S
C290 C291 1.390 . S
C290 N293 1.391 . S
C291 H263 0.930 . S
C291 C290 1.390 . S
C291 C292 1.392 . S
C292 H264 0.929 . S
C292 C289 1.391 . S
C292 C291 1.392 . S
N293 Co237 2.257 . S
N293 C290 1.391 . S
N293 C294 1.388 . S
C294 H265 0.930 . S
C294 C289 1.391 . S
C294 N293 1.388 . S
Co295 O297 2.143 . S
Co295 O303 2.074 . S
Co295 O306 2.093 . S
Co295 O319 2.097 . S
Co295 N336 2.151 . S
Co295 N344 2.214 . S
Co296 O297 2.160 . S
Co296 O302 2.058 . S
Co296 O312 2.057 . S
Co296 O327 2.037 . S
Co296 N331 2.145 . S
Co296 N352 2.257 . S
O297 Co295 2.143 . S
O297 Co296 2.160 . S
C298 O299 1.278 . S
C298 O306 1.224 . S
O299 C298 1.278 . S
C300 O301 1.245 . S
C300 O312 1.232 . S
O301 C300 1.245 . S
O302 Co296 2.058 . S
O302 C328 1.269 . S
O303 Co295 2.074 . S
O303 C328 1.257 . S
H304 C329 0.930 . S
H305 C335 0.930 . S
O306 Co295 2.093 . S
O306 C298 1.224 . S
H307 C339 0.929 . S
H308 C341 0.930 . S
H309 C342 0.930 . S
H310 C340 0.929 . S
H311 C343 0.928 . S
O312 Co296 2.057 . S
O312 C300 1.232 . S
H313 C332 0.929 . S
H314 C333 0.929 . S
H315 C345 0.931 . S
H316 C337 0.929 . S
H317 C346 0.930 . S
H318 C338 0.931 . S
O319 Co295 2.097 . S
O319 C347 1.214 . S
H320 C348 0.929 . S
H321 C349 0.929 . S
H322 C350 0.930 1_554 S
H323 C351 0.929 . S
H324 C353 0.930 . S
H325 C330 0.930 . S
H326 C334 0.930 . S
O327 Co296 2.037 . S
O327 C347 1.234 . S
C328 O302 1.269 . S
C328 O303 1.257 . S
C329 H304 0.930 . S
C329 C332 1.388 . S
C329 C334 1.418 . S
C330 H325 0.930 . S
C330 C333 1.404 . S
C330 C334 1.353 . S
N331 Co296 2.145 . S
N331 C332 1.397 . S
N331 C333 1.334 . S
C332 H313 0.929 . S
C332 C329 1.388 . S
C332 N331 1.397 . S
C333 H314 0.929 . S
C333 C330 1.404 . S
C333 N331 1.334 . S
C334 H326 0.930 . S
C334 C329 1.418 . S
C334 C330 1.353 . S
C335 H305 0.930 . S
C335 N336 1.330 . S
C335 C337 1.446 . S
N336 Co295 2.151 . S
N336 C335 1.330 . S
N336 C340 1.418 . S
C337 H316 0.929 . S
C337 C335 1.446 . S
C337 C338 1.332 . S
C338 H318 0.931 . S
C338 C337 1.332 . S
C338 C339 1.267 . S
C339 H307 0.929 . S
C339 C338 1.267 . S
C339 C340 1.251 . S
C340 H310 0.929 . S
C340 N336 1.418 . S
C340 C339 1.251 . S
C341 H308 0.930 . S
C341 C343 1.406 . S
C341 C346 1.261 . S
C342 H309 0.930 . S
C342 N344 1.325 . S
C342 C345 1.357 . S
C343 H311 0.928 . S
C343 C341 1.406 . S
C343 N344 1.261 . S
N344 Co295 2.214 . S
N344 C342 1.325 . S
N344 C343 1.261 . S
C345 H315 0.931 . S
C345 C342 1.357 . S
C345 C346 1.312 . S
C346 H317 0.930 . S
C346 C341 1.261 . S
C346 C345 1.312 . S
C347 O319 1.214 . S
C347 O327 1.234 . S
C348 H320 0.929 . S
C348 C351 1.391 1_556 S
C348 C353 1.391 . S
C349 H321 0.929 . S
C349 C350 1.390 . S
C349 N352 1.391 . S
C350 H322 0.930 1_556 S
C350 C349 1.390 . S
C350 C351 1.392 1_556 S
C351 H323 0.929 . S
C351 C348 1.391 1_554 S
C351 C350 1.392 1_554 S
N352 Co296 2.257 . S
N352 C349 1.391 . S
N352 C353 1.388 . S
C353 H324 0.930 . S
C353 C348 1.391 . S
C353 N352 1.388 . S
Co354 O356 2.143 . S
Co354 O362 2.074 . S
Co354 O365 2.093 . S
Co354 O378 2.097 . S
Co354 N395 2.151 . S
Co354 N403 2.214 . S
Co355 O356 2.160 . S
Co355 O361 2.058 . S
Co355 O371 2.057 . S
Co355 O386 2.037 . S
Co355 N390 2.145 . S
Co355 N411 2.257 . S
O356 Co354 2.143 . S
O356 Co355 2.160 . S
C357 O358 1.278 . S
C357 O365 1.224 . S
O358 C357 1.278 . S
C359 O360 1.245 . S
C359 O371 1.232 . S
O360 C359 1.245 . S
O361 Co355 2.058 . S
O361 C387 1.269 . S
O362 Co354 2.074 . S
O362 C387 1.257 . S
H363 C388 0.930 . S
H364 C394 0.930 . S
O365 Co354 2.093 . S
O365 C357 1.224 . S
H366 C398 0.929 . S
H367 C400 0.930 . S
H368 C401 0.930 . S
H369 C399 0.929 . S
H370 C402 0.928 . S
O371 Co355 2.057 . S
O371 C359 1.232 . S
H372 C391 0.929 . S
H373 C392 0.929 . S
H374 C404 0.931 . S
H375 C396 0.929 1_545 S
H376 C405 0.930 . S
H377 C397 0.931 1_545 S
O378 Co354 2.097 . S
O378 C406 1.214 . S
H379 C407 0.929 . S
H380 C408 0.929 . S
H381 C409 0.930 . S
H382 C410 0.929 . S
H383 C412 0.930 . S
H384 C389 0.930 . S
H385 C393 0.930 . S
O386 Co355 2.037 . S
O386 C406 1.234 . S
C387 O361 1.269 . S
C387 O362 1.257 . S
C388 H363 0.930 . S
C388 C391 1.388 . S
C388 C393 1.418 . S
C389 H384 0.930 . S
C389 C392 1.404 . S
C389 C393 1.353 . S
N390 Co355 2.145 . S
N390 C391 1.397 . S
N390 C392 1.334 . S
C391 H372 0.929 . S
C391 C388 1.388 . S
C391 N390 1.397 . S
C392 H373 0.929 . S
C392 C389 1.404 . S
C392 N390 1.334 . S
C393 H385 0.930 . S
C393 C388 1.418 . S
C393 C389 1.353 . S
C394 H364 0.930 . S
C394 N395 1.330 . S
C394 C396 1.446 . S
N395 Co354 2.151 . S
N395 C394 1.330 . S
N395 C399 1.418 . S
C396 H375 0.929 1_565 S
C396 C394 1.446 . S
C396 C397 1.332 . S
C397 H377 0.931 1_565 S
C397 C396 1.332 . S
C397 C398 1.267 . S
C398 H366 0.929 . S
C398 C397 1.267 . S
C398 C399 1.251 . S
C399 H369 0.929 . S
C399 N395 1.418 . S
C399 C398 1.251 . S
C400 H367 0.930 . S
C400 C402 1.406 . S
C400 C405 1.261 . S
C401 H368 0.930 . S
C401 N403 1.325 . S
C401 C404 1.357 . S
C402 H370 0.928 . S
C402 C400 1.406 . S
C402 N403 1.261 . S
N403 Co354 2.214 . S
N403 C401 1.325 . S
N403 C402 1.261 . S
C404 H374 0.931 . S
C404 C401 1.357 . S
C404 C405 1.312 . S
C405 H376 0.930 . S
C405 C400 1.261 . S
C405 C404 1.312 . S
C406 O378 1.214 . S
C406 O386 1.234 . S
C407 H379 0.929 . S
C407 C410 1.391 . S
C407 C412 1.391 . S
C408 H380 0.929 . S
C408 C409 1.390 . S
C408 N411 1.391 . S
C409 H381 0.930 . S
C409 C408 1.390 . S
C409 C410 1.392 . S
C410 H382 0.929 . S
C410 C407 1.391 . S
C410 C409 1.392 . S
N411 Co355 2.257 . S
N411 C408 1.391 . S
N411 C412 1.388 . S
C412 H383 0.930 . S
C412 C407 1.391 . S
C412 N411 1.388 . S
Co413 O415 2.143 . S
Co413 O421 2.074 . S
Co413 O424 2.093 . S
Co413 O437 2.097 . S
Co413 N454 2.151 . S
Co413 N462 2.214 . S
Co414 O415 2.160 . S
Co414 O420 2.058 . S
Co414 O430 2.057 . S
Co414 O445 2.037 . S
Co414 N449 2.145 . S
Co414 N470 2.257 . S
O415 Co413 2.143 . S
O415 Co414 2.160 . S
C416 O417 1.278 . S
C416 O424 1.224 . S
O417 C416 1.278 . S
C418 O419 1.245 . S
C418 O430 1.232 . S
O419 C418 1.245 . S
O420 Co414 2.058 . S
O420 C446 1.269 . S
O421 Co413 2.074 . S
O421 C446 1.257 . S
H422 C447 0.930 . S
H423 C453 0.930 . S
O424 Co413 2.093 . S
O424 C416 1.224 . S
H425 C457 0.929 . S
H426 C459 0.930 . S
H427 C460 0.930 . S
H428 C458 0.929 . S
H429 C461 0.928 . S
O430 Co414 2.057 . S
O430 C418 1.232 . S
H431 C450 0.929 . S
H432 C451 0.929 . S
H433 C463 0.931 . S
H434 C455 0.929 . S
H435 C464 0.930 . S
H436 C456 0.931 . S
O437 Co413 2.097 . S
O437 C465 1.214 . S
H438 C466 0.929 . S
H439 C467 0.929 . S
H440 C468 0.930 . S
H441 C469 0.929 . S
H442 C471 0.930 . S
H443 C448 0.930 . S
H444 C452 0.930 . S
O445 Co414 2.037 . S
O445 C465 1.234 . S
C446 O420 1.269 . S
C446 O421 1.257 . S
C447 H422 0.930 . S
C447 C450 1.388 . S
C447 C452 1.418 . S
C448 H443 0.930 . S
C448 C451 1.404 . S
C448 C452 1.353 . S
N449 Co414 2.145 . S
N449 C450 1.397 . S
N449 C451 1.334 . S
C450 H431 0.929 . S
C450 C447 1.388 . S
C450 N449 1.397 . S
C451 H432 0.929 . S
C451 C448 1.404 . S
C451 N449 1.334 . S
C452 H444 0.930 . S
C452 C447 1.418 . S
C452 C448 1.353 . S
C453 H423 0.930 . S
C453 N454 1.330 . S
C453 C455 1.446 . S
N454 Co413 2.151 . S
N454 C453 1.330 . S
N454 C458 1.418 . S
C455 H434 0.929 . S
C455 C453 1.446 . S
C455 C456 1.332 . S
C456 H436 0.931 . S
C456 C455 1.332 . S
C456 C457 1.267 . S
C457 H425 0.929 . S
C457 C456 1.267 . S
C457 C458 1.251 . S
C458 H428 0.929 . S
C458 N454 1.418 . S
C458 C457 1.251 . S
C459 H426 0.930 . S
C459 C461 1.406 . S
C459 C464 1.261 . S
C460 H427 0.930 . S
C460 N462 1.325 . S
C460 C463 1.357 . S
C461 H429 0.928 . S
C461 C459 1.406 . S
C461 N462 1.261 . S
N462 Co413 2.214 . S
N462 C460 1.325 . S
N462 C461 1.261 . S
C463 H433 0.931 . S
C463 C460 1.357 . S
C463 C464 1.312 . S
C464 H435 0.930 . S
C464 C459 1.261 . S
C464 C463 1.312 . S
C465 O437 1.214 . S
C465 O445 1.234 . S
C466 H438 0.929 . S
C466 C469 1.391 . S
C466 C471 1.391 . S
C467 H439 0.929 . S
C467 C468 1.390 . S
C467 N470 1.391 . S
C468 H440 0.930 . S
C468 C467 1.390 . S
C468 C469 1.392 . S
C469 H441 0.929 . S
C469 C466 1.391 . S
C469 C468 1.392 . S
N470 Co414 2.257 . S
N470 C467 1.391 . S
N470 C471 1.388 . S
C471 H442 0.930 . S
C471 C466 1.391 . S
C471 N470 1.388 . S
Co472 O474 2.143 . S
Co472 O480 2.074 . S
Co472 O483 2.093 . S
Co472 O496 2.097 . S
Co472 N513 2.151 . S
Co472 N521 2.214 . S
Co473 O474 2.160 . S
Co473 O479 2.058 . S
Co473 O489 2.057 . S
Co473 O504 2.037 . S
Co473 N508 2.145 . S
Co473 N529 2.257 . S
O474 Co472 2.143 . S
O474 Co473 2.160 . S
C475 O476 1.278 . S
C475 O483 1.224 . S
O476 C475 1.278 . S
C477 O478 1.245 . S
C477 O489 1.232 . S
O478 C477 1.245 . S
O479 Co473 2.058 . S
O479 C505 1.269 . S
O480 Co472 2.074 . S
O480 C505 1.257 . S
H481 C506 0.930 . S
H482 C512 0.930 . S
O483 Co472 2.093 . S
O483 C475 1.224 . S
H484 C516 0.929 . S
H485 C518 0.930 . S
H486 C519 0.930 . S
H487 C517 0.929 . S
H488 C520 0.928 . S
O489 Co473 2.057 . S
O489 C477 1.232 . S
H490 C509 0.929 . S
H491 C510 0.929 . S
H492 C522 0.931 . S
H493 C514 0.929 1_655 S
H494 C523 0.930 . S
H495 C515 0.931 1_655 S
O496 Co472 2.097 . S
O496 C524 1.214 . S
H497 C525 0.929 . S
H498 C526 0.929 . S
H499 C527 0.930 1_556 S
H500 C528 0.929 . S
H501 C530 0.930 . S
H502 C507 0.930 . S
H503 C511 0.930 . S
O504 Co473 2.037 . S
O504 C524 1.234 . S
C505 O479 1.269 . S
C505 O480 1.257 . S
C506 H481 0.930 . S
C506 C509 1.388 . S
C506 C511 1.418 . S
C507 H502 0.930 . S
C507 C510 1.404 . S
C507 C511 1.353 . S
N508 Co473 2.145 . S
N508 C509 1.397 . S
N508 C510 1.334 . S
C509 H490 0.929 . S
C509 C506 1.388 . S
C509 N508 1.397 . S
C510 H491 0.929 . S
C510 C507 1.404 . S
C510 N508 1.334 . S
C511 H503 0.930 . S
C511 C506 1.418 . S
C511 C507 1.353 . S
C512 H482 0.930 . S
C512 N513 1.330 . S
C512 C514 1.446 . S
N513 Co472 2.151 . S
N513 C512 1.330 . S
N513 C517 1.418 . S
C514 H493 0.929 1_455 S
C514 C512 1.446 . S
C514 C515 1.332 . S
C515 H495 0.931 1_455 S
C515 C514 1.332 . S
C515 C516 1.267 . S
C516 H484 0.929 . S
C516 C515 1.267 . S
C516 C517 1.251 . S
C517 H487 0.929 . S
C517 N513 1.418 . S
C517 C516 1.251 . S
C518 H485 0.930 . S
C518 C520 1.406 . S
C518 C523 1.261 . S
C519 H486 0.930 . S
C519 N521 1.325 . S
C519 C522 1.357 . S
C520 H488 0.928 . S
C520 C518 1.406 . S
C520 N521 1.261 . S
N521 Co472 2.214 . S
N521 C519 1.325 . S
N521 C520 1.261 . S
C522 H492 0.931 . S
C522 C519 1.357 . S
C522 C523 1.312 . S
C523 H494 0.930 . S
C523 C518 1.261 . S
C523 C522 1.312 . S
C524 O496 1.214 . S
C524 O504 1.234 . S
C525 H497 0.929 . S
C525 C528 1.391 1_554 S
C525 C530 1.391 . S
C526 H498 0.929 . S
C526 C527 1.390 . S
C526 N529 1.391 . S
C527 H499 0.930 1_554 S
C527 C526 1.390 . S
C527 C528 1.392 1_554 S
C528 H500 0.929 . S
C528 C525 1.391 1_556 S
C528 C527 1.392 1_556 S
N529 Co473 2.257 . S
N529 C526 1.391 . S
N529 C530 1.388 . S
C530 H501 0.930 . S
C530 C525 1.391 . S
C530 N529 1.388 . S
Co531 O533 2.143 . S
Co531 O539 2.074 . S
Co531 O542 2.093 . S
Co531 O555 2.097 . S
Co531 N572 2.151 . S
Co531 N580 2.214 . S
Co532 O533 2.160 . S
Co532 O538 2.058 . S
Co532 O548 2.057 . S
Co532 O563 2.037 . S
Co532 N567 2.145 . S
Co532 N588 2.257 . S
O533 Co531 2.143 . S
O533 Co532 2.160 . S
C534 O535 1.278 . S
C534 O542 1.224 . S
O535 C534 1.278 . S
C536 O537 1.245 . S
C536 O548 1.232 . S
O537 C536 1.245 . S
O538 Co532 2.058 . S
O538 C564 1.269 . S
O539 Co531 2.074 . S
O539 C564 1.257 . S
H540 C565 0.930 . S
H541 C571 0.930 . S
O542 Co531 2.093 . S
O542 C534 1.224 . S
H543 C575 0.929 . S
H544 C577 0.930 . S
H545 C578 0.930 . S
H546 C576 0.929 . S
H547 C579 0.928 . S
O548 Co532 2.057 . S
O548 C536 1.232 . S
H549 C568 0.929 . S
H550 C569 0.929 . S
H551 C581 0.931 . S
H552 C573 0.929 1_565 S
H553 C582 0.930 . S
H554 C574 0.931 1_565 S
O555 Co531 2.097 . S
O555 C583 1.214 . S
H556 C584 0.929 . S
H557 C585 0.929 . S
H558 C586 0.930 . S
H559 C587 0.929 . S
H560 C589 0.930 . S
H561 C566 0.930 . S
H562 C570 0.930 . S
O563 Co532 2.037 . S
O563 C583 1.234 . S
C564 O538 1.269 . S
C564 O539 1.257 . S
C565 H540 0.930 . S
C565 C568 1.388 . S
C565 C570 1.418 . S
C566 H561 0.930 . S
C566 C569 1.404 . S
C566 C570 1.353 . S
N567 Co532 2.145 . S
N567 C568 1.397 . S
N567 C569 1.334 . S
C568 H549 0.929 . S
C568 C565 1.388 . S
C568 N567 1.397 . S
C569 H550 0.929 . S
C569 C566 1.404 . S
C569 N567 1.334 . S
C570 H562 0.930 . S
C570 C565 1.418 . S
C570 C566 1.353 . S
C571 H541 0.930 . S
C571 N572 1.330 . S
C571 C573 1.446 . S
N572 Co531 2.151 . S
N572 C571 1.330 . S
N572 C576 1.418 . S
C573 H552 0.929 1_545 S
C573 C571 1.446 . S
C573 C574 1.332 . S
C574 H554 0.931 1_545 S
C574 C573 1.332 . S
C574 C575 1.267 . S
C575 H543 0.929 . S
C575 C574 1.267 . S
C575 C576 1.251 . S
C576 H546 0.929 . S
C576 N572 1.418 . S
C576 C575 1.251 . S
C577 H544 0.930 . S
C577 C579 1.406 . S
C577 C582 1.261 . S
C578 H545 0.930 . S
C578 N580 1.325 . S
C578 C581 1.357 . S
C579 H547 0.928 . S
C579 C577 1.406 . S
C579 N580 1.261 . S
N580 Co531 2.214 . S
N580 C578 1.325 . S
N580 C579 1.261 . S
C581 H551 0.931 . S
C581 C578 1.357 . S
C581 C582 1.312 . S
C582 H553 0.930 . S
C582 C577 1.261 . S
C582 C581 1.312 . S
C583 O555 1.214 . S
C583 O563 1.234 . S
C584 H556 0.929 . S
C584 C587 1.391 . S
C584 C589 1.391 . S
C585 H557 0.929 . S
C585 C586 1.390 . S
C585 N588 1.391 . S
C586 H558 0.930 . S
C586 C585 1.390 . S
C586 C587 1.392 . S
C587 H559 0.929 . S
C587 C584 1.391 . S
C587 C586 1.392 . S
N588 Co532 2.257 . S
N588 C585 1.391 . S
N588 C589 1.388 . S
C589 H560 0.930 . S
C589 C584 1.391 . S
C589 N588 1.388 . S
Co590 O592 2.143 . S
Co590 O598 2.074 . S
Co590 O601 2.093 . S
Co590 O614 2.097 . S
Co590 N631 2.151 . S
Co590 N639 2.214 . S
Co591 O592 2.160 . S
Co591 O597 2.058 . S
Co591 O607 2.057 . S
Co591 O622 2.037 . S
Co591 N626 2.145 . S
Co591 N647 2.257 . S
O592 Co590 2.143 . S
O592 Co591 2.160 . S
C593 O594 1.278 . S
C593 O601 1.224 . S
O594 C593 1.278 . S
C595 O596 1.245 . S
C595 O607 1.232 . S
O596 C595 1.245 . S
O597 Co591 2.058 . S
O597 C623 1.269 . S
O598 Co590 2.074 . S
O598 C623 1.257 . S
H599 C624 0.930 . S
H600 C630 0.930 . S
O601 Co590 2.093 . S
O601 C593 1.224 . S
H602 C634 0.929 . S
H603 C636 0.930 . S
H604 C637 0.930 . S
H605 C635 0.929 . S
H606 C638 0.928 . S
O607 Co591 2.057 . S
O607 C595 1.232 . S
H608 C627 0.929 . S
H609 C628 0.929 . S
H610 C640 0.931 . S
H611 C632 0.929 . S
H612 C641 0.930 . S
H613 C633 0.931 . S
O614 Co590 2.097 . S
O614 C642 1.214 . S
H615 C643 0.929 . S
H616 C644 0.929 . S
H617 C645 0.930 . S
H618 C646 0.929 . S
H619 C648 0.930 . S
H620 C625 0.930 . S
H621 C629 0.930 . S
O622 Co591 2.037 . S
O622 C642 1.234 . S
C623 O597 1.269 . S
C623 O598 1.257 . S
C624 H599 0.930 . S
C624 C627 1.388 . S
C624 C629 1.418 . S
C625 H620 0.930 . S
C625 C628 1.404 . S
C625 C629 1.353 . S
N626 Co591 2.145 . S
N626 C627 1.397 . S
N626 C628 1.334 . S
C627 H608 0.929 . S
C627 C624 1.388 . S
C627 N626 1.397 . S
C628 H609 0.929 . S
C628 C625 1.404 . S
C628 N626 1.334 . S
C629 H621 0.930 . S
C629 C624 1.418 . S
C629 C625 1.353 . S
C630 H600 0.930 . S
C630 N631 1.330 . S
C630 C632 1.446 . S
N631 Co590 2.151 . S
N631 C630 1.330 . S
N631 C635 1.418 . S
C632 H611 0.929 . S
C632 C630 1.446 . S
C632 C633 1.332 . S
C633 H613 0.931 . S
C633 C632 1.332 . S
C633 C634 1.267 . S
C634 H602 0.929 . S
C634 C633 1.267 . S
C634 C635 1.251 . S
C635 H605 0.929 . S
C635 N631 1.418 . S
C635 C634 1.251 . S
C636 H603 0.930 . S
C636 C638 1.406 . S
C636 C641 1.261 . S
C637 H604 0.930 . S
C637 N639 1.325 . S
C637 C640 1.357 . S
C638 H606 0.928 . S
C638 C636 1.406 . S
C638 N639 1.261 . S
N639 Co590 2.214 . S
N639 C637 1.325 . S
N639 C638 1.261 . S
C640 H610 0.931 . S
C640 C637 1.357 . S
C640 C641 1.312 . S
C641 H612 0.930 . S
C641 C636 1.261 . S
C641 C640 1.312 . S
C642 O614 1.214 . S
C642 O622 1.234 . S
C643 H615 0.929 . S
C643 C646 1.391 . S
C643 C648 1.391 . S
C644 H616 0.929 . S
C644 C645 1.390 . S
C644 N647 1.391 . S
C645 H617 0.930 . S
C645 C644 1.390 . S
C645 C646 1.392 . S
C646 H618 0.929 . S
C646 C643 1.391 . S
C646 C645 1.392 . S
N647 Co591 2.257 . S
N647 C644 1.391 . S
N647 C648 1.388 . S
C648 H619 0.930 . S
C648 C643 1.391 . S
C648 N647 1.388 . S
Co649 O651 2.143 . S
Co649 O657 2.074 . S
Co649 O660 2.093 . S
Co649 O673 2.097 . S
Co649 N690 2.151 . S
Co649 N698 2.214 . S
Co650 O651 2.160 . S
Co650 O656 2.058 . S
Co650 O666 2.057 . S
Co650 O681 2.037 . S
Co650 N685 2.145 . S
Co650 N706 2.257 . S
O651 Co649 2.143 . S
O651 Co650 2.160 . S
C652 O653 1.278 . S
C652 O660 1.224 . S
O653 C652 1.278 . S
C654 O655 1.245 . S
C654 O666 1.232 . S
O655 C654 1.245 . S
O656 Co650 2.058 . S
O656 C682 1.269 . S
O657 Co649 2.074 . S
O657 C682 1.257 . S
H658 C683 0.930 . S
H659 C689 0.930 . S
O660 Co649 2.093 . S
O660 C652 1.224 . S
H661 C693 0.929 . S
H662 C695 0.930 . S
H663 C696 0.930 . S
H664 C694 0.929 . S
H665 C697 0.928 . S
O666 Co650 2.057 . S
O666 C654 1.232 . S
H667 C686 0.929 . S
H668 C687 0.929 . S
H669 C699 0.931 . S
H670 C691 0.929 1_455 S
H671 C700 0.930 . S
H672 C692 0.931 1_455 S
O673 Co649 2.097 . S
O673 C701 1.214 . S
H674 C702 0.929 . S
H675 C703 0.929 . S
H676 C704 0.930 . S
H677 C705 0.929 . S
H678 C707 0.930 . S
H679 C684 0.930 . S
H680 C688 0.930 . S
O681 Co650 2.037 . S
O681 C701 1.234 . S
C682 O656 1.269 . S
C682 O657 1.257 . S
C683 H658 0.930 . S
C683 C686 1.388 . S
C683 C688 1.418 . S
C684 H679 0.930 . S
C684 C687 1.404 . S
C684 C688 1.353 . S
N685 Co650 2.145 . S
N685 C686 1.397 . S
N685 C687 1.334 . S
C686 H667 0.929 . S
C686 C683 1.388 . S
C686 N685 1.397 . S
C687 H668 0.929 . S
C687 C684 1.404 . S
C687 N685 1.334 . S
C688 H680 0.930 . S
C688 C683 1.418 . S
C688 C684 1.353 . S
C689 H659 0.930 . S
C689 N690 1.330 . S
C689 C691 1.446 . S
N690 Co649 2.151 . S
N690 C689 1.330 . S
N690 C694 1.418 . S
C691 H670 0.929 1_655 S
C691 C689 1.446 . S
C691 C692 1.332 . S
C692 H672 0.931 1_655 S
C692 C691 1.332 . S
C692 C693 1.267 . S
C693 H661 0.929 . S
C693 C692 1.267 . S
C693 C694 1.251 . S
C694 H664 0.929 . S
C694 N690 1.418 . S
C694 C693 1.251 . S
C695 H662 0.930 . S
C695 C697 1.406 . S
C695 C700 1.261 . S
C696 H663 0.930 . S
C696 N698 1.325 . S
C696 C699 1.357 . S
C697 H665 0.928 . S
C697 C695 1.406 . S
C697 N698 1.261 . S
N698 Co649 2.214 . S
N698 C696 1.325 . S
N698 C697 1.261 . S
C699 H669 0.931 . S
C699 C696 1.357 . S
C699 C700 1.312 . S
C700 H671 0.930 . S
C700 C695 1.261 . S
C700 C699 1.312 . S
C701 O673 1.214 . S
C701 O681 1.234 . S
C702 H674 0.929 . S
C702 C705 1.391 . S
C702 C707 1.391 . S
C703 H675 0.929 . S
C703 C704 1.390 . S
C703 N706 1.391 . S
C704 H676 0.930 . S
C704 C703 1.390 . S
C704 C705 1.392 . S
C705 H677 0.929 . S
C705 C702 1.391 . S
C705 C704 1.392 . S
N706 Co650 2.257 . S
N706 C703 1.391 . S
N706 C707 1.388 . S
C707 H678 0.930 . S
C707 C702 1.391 . S
C707 N706 1.388 . S
H708 C716 0.929 . S
H709 C718 0.930 . S
H710 C720 0.930 . S
H711 C723 0.929 . S
H712 C726 0.930 . S
H713 C728 0.960 . S
H714 C728 0.960 . S
H715 C728 0.960 . S
C716 H708 0.929 . S
C716 C717 1.377 . S
C716 C718 1.384 . S
C717 C716 1.377 . S
C717 C723 1.390 . S
C718 H709 0.930 . S
C718 C716 1.384 . S
C718 C719 1.372 . S
C719 C718 1.372 . S
C719 C720 1.400 . S
C719 C724 1.490 . S
C720 H710 0.930 . S
C720 C719 1.400 . S
C720 C723 1.386 . S
H721 C737 0.930 . S
H722 C738 0.931 . S
C723 H711 0.929 . S
C723 C717 1.390 . S
C723 C720 1.386 . S
C724 C719 1.490 . S
C724 C726 1.395 . S
C724 C727 1.403 . S
H725 C731 0.930 . S
C726 H712 0.930 . S
C726 C724 1.395 . S
C726 C729 1.403 . S
C727 C724 1.403 . S
C727 C728 1.524 . S
C727 C731 1.400 . S
C728 H713 0.960 . S
C728 H714 0.960 . S
C728 H715 0.960 . S
C728 C727 1.524 . S
C729 C726 1.403 . S
C729 C730 1.392 . S
C729 C733 1.495 . S
C730 C729 1.392 . S
C730 C731 1.385 . S
C730 C732 1.478 . S
C731 H725 0.930 . S
C731 C727 1.400 . S
C731 C730 1.385 . S
C732 C730 1.478 . S
C732 C734 1.381 . S
C732 C738 1.383 . S
C733 C729 1.495 . S
C733 H739 0.959 . S
C733 H740 0.961 . S
C733 H741 0.960 . S
C734 C732 1.381 . S
C734 C735 1.394 . S
C734 H742 0.930 . S
C735 C734 1.394 . S
C735 C736 1.383 . S
C735 H743 0.929 . S
C736 C735 1.383 . S
C736 C737 1.377 . S
C737 H721 0.930 . S
C737 C736 1.377 . S
C737 C738 1.379 . S
C738 H722 0.931 . S
C738 C732 1.383 . S
C738 C737 1.379 . S
H739 C733 0.959 . S
H740 C733 0.961 . S
H741 C733 0.960 . S
H742 C734 0.930 . S
H743 C735 0.929 . S
H744 C752 0.929 . S
H745 C754 0.930 . S
H746 C756 0.930 . S
H747 C759 0.929 . S
H748 C762 0.930 . S
H749 C764 0.960 . S
H750 C764 0.960 . S
H751 C764 0.960 . S
C752 H744 0.929 . S
C752 C753 1.377 . S
C752 C754 1.384 . S
C753 C752 1.377 . S
C753 C759 1.390 . S
C754 H745 0.930 . S
C754 C752 1.384 . S
C754 C755 1.372 . S
C755 C754 1.372 . S
C755 C756 1.400 . S
C755 C760 1.490 . S
C756 H746 0.930 . S
C756 C755 1.400 . S
C756 C759 1.386 . S
H757 C773 0.930 . S
H758 C774 0.931 . S
C759 H747 0.929 . S
C759 C753 1.390 . S
C759 C756 1.386 . S
C760 C755 1.490 . S
C760 C762 1.395 . S
C760 C763 1.403 . S
H761 C767 0.930 . S
C762 H748 0.930 . S
C762 C760 1.395 . S
C762 C765 1.403 . S
C763 C760 1.403 . S
C763 C764 1.524 . S
C763 C767 1.400 . S
C764 H749 0.960 . S
C764 H750 0.960 . S
C764 H751 0.960 . S
C764 C763 1.524 . S
C765 C762 1.403 . S
C765 C766 1.392 . S
C765 C769 1.495 . S
C766 C765 1.392 . S
C766 C767 1.385 . S
C766 C768 1.478 . S
C767 H761 0.930 . S
C767 C763 1.400 . S
C767 C766 1.385 . S
C768 C766 1.478 . S
C768 C770 1.381 . S
C768 C774 1.383 . S
C769 C765 1.495 . S
C769 H775 0.959 . S
C769 H776 0.961 . S
C769 H777 0.960 . S
C770 C768 1.381 . S
C770 C771 1.394 . S
C770 H778 0.930 . S
C771 C770 1.394 . S
C771 C772 1.383 . S
C771 H779 0.929 . S
C772 C771 1.383 . S
C772 C773 1.377 . S
C773 H757 0.930 . S
C773 C772 1.377 . S
C773 C774 1.379 . S
C774 H758 0.931 . S
C774 C768 1.383 . S
C774 C773 1.379 . S
H775 C769 0.959 . S
H776 C769 0.961 . S
H777 C769 0.960 . S
H778 C770 0.930 . S
H779 C771 0.929 . S
H780 C788 0.929 . S
H781 C790 0.930 . S
H782 C792 0.930 . S
H783 C795 0.929 . S
H784 C798 0.930 . S
H785 C800 0.960 . S
H786 C800 0.960 . S
H787 C800 0.960 . S
C788 H780 0.929 . S
C788 C789 1.377 . S
C788 C790 1.384 . S
C789 C788 1.377 . S
C789 C795 1.390 . S
C790 H781 0.930 . S
C790 C788 1.384 . S
C790 C791 1.372 . S
C791 C790 1.372 . S
C791 C792 1.400 . S
C791 C796 1.490 . S
C792 H782 0.930 . S
C792 C791 1.400 . S
C792 C795 1.386 . S
H793 C809 0.930 . S
H794 C810 0.931 . S
C795 H783 0.929 . S
C795 C789 1.390 . S
C795 C792 1.386 . S
C796 C791 1.490 . S
C796 C798 1.395 . S
C796 C799 1.403 . S
H797 C803 0.930 . S
C798 H784 0.930 . S
C798 C796 1.395 . S
C798 C801 1.403 . S
C799 C796 1.403 . S
C799 C800 1.524 . S
C799 C803 1.400 . S
C800 H785 0.960 . S
C800 H786 0.960 . S
C800 H787 0.960 . S
C800 C799 1.524 . S
C801 C798 1.403 . S
C801 C802 1.392 . S
C801 C805 1.495 . S
C802 C801 1.392 . S
C802 C803 1.385 . S
C802 C804 1.478 . S
C803 H797 0.930 . S
C803 C799 1.400 . S
C803 C802 1.385 . S
C804 C802 1.478 . S
C804 C806 1.381 . S
C804 C810 1.383 . S
C805 C801 1.495 . S
C805 H811 0.959 . S
C805 H812 0.961 . S
C805 H813 0.960 . S
C806 C804 1.381 . S
C806 C807 1.394 . S
C806 H814 0.930 . S
C807 C806 1.394 . S
C807 C808 1.383 . S
C807 H815 0.929 . S
C808 C807 1.383 . S
C808 C809 1.377 . S
C809 H793 0.930 . S
C809 C808 1.377 . S
C809 C810 1.379 . S
C810 H794 0.931 . S
C810 C804 1.383 . S
C810 C809 1.379 . S
H811 C805 0.959 . S
H812 C805 0.961 . S
H813 C805 0.960 . S
H814 C806 0.930 . S
H815 C807 0.929 . S
H816 C824 0.929 . S
H817 C826 0.930 . S
H818 C828 0.930 . S
H819 C831 0.929 . S
H820 C834 0.930 . S
H821 C836 0.960 . S
H822 C836 0.960 . S
H823 C836 0.960 . S
C824 H816 0.929 . S
C824 C825 1.377 . S
C824 C826 1.384 . S
C825 C824 1.377 . S
C825 C831 1.390 . S
C826 H817 0.930 . S
C826 C824 1.384 . S
C826 C827 1.372 . S
C827 C826 1.372 . S
C827 C828 1.400 . S
C827 C832 1.490 . S
C828 H818 0.930 . S
C828 C827 1.400 . S
C828 C831 1.386 . S
H829 C845 0.930 . S
H830 C846 0.931 . S
C831 H819 0.929 . S
C831 C825 1.390 . S
C831 C828 1.386 . S
C832 C827 1.490 . S
C832 C834 1.395 . S
C832 C835 1.403 . S
H833 C839 0.930 . S
C834 H820 0.930 . S
C834 C832 1.395 . S
C834 C837 1.403 . S
C835 C832 1.403 . S
C835 C836 1.524 . S
C835 C839 1.400 . S
C836 H821 0.960 . S
C836 H822 0.960 . S
C836 H823 0.960 . S
C836 C835 1.524 . S
C837 C834 1.403 . S
C837 C838 1.392 . S
C837 C841 1.495 . S
C838 C837 1.392 . S
C838 C839 1.385 . S
C838 C840 1.478 . S
C839 H833 0.930 . S
C839 C835 1.400 . S
C839 C838 1.385 . S
C840 C838 1.478 . S
C840 C842 1.381 . S
C840 C846 1.383 . S
C841 C837 1.495 . S
C841 H847 0.959 . S
C841 H848 0.961 . S
C841 H849 0.960 . S
C842 C840 1.381 . S
C842 C843 1.394 . S
C842 H850 0.930 . S
C843 C842 1.394 . S
C843 C844 1.383 . S
C843 H851 0.929 . S
C844 C843 1.383 . S
C844 C845 1.377 . S
C845 H829 0.930 . S
C845 C844 1.377 . S
C845 C846 1.379 . S
C846 H830 0.931 . S
C846 C840 1.383 . S
C846 C845 1.379 . S
H847 C841 0.959 . S
H848 C841 0.961 . S
H849 C841 0.960 . S
H850 C842 0.930 . S
H851 C843 0.929 . S
H852 C860 0.929 . S
H853 C862 0.930 . S
H854 C864 0.930 . S
H855 C867 0.929 . S
H856 C870 0.930 . S
H857 C872 0.960 . S
H858 C872 0.960 . S
H859 C872 0.960 . S
C860 H852 0.929 . S
C860 C861 1.377 . S
C860 C862 1.384 . S
C861 C860 1.377 . S
C861 C867 1.390 . S
C862 H853 0.930 . S
C862 C860 1.384 . S
C862 C863 1.372 . S
C863 C862 1.372 . S
C863 C864 1.400 . S
C863 C868 1.490 . S
C864 H854 0.930 . S
C864 C863 1.400 . S
C864 C867 1.386 . S
H865 C881 0.930 . S
H866 C882 0.931 . S
C867 H855 0.929 . S
C867 C861 1.390 . S
C867 C864 1.386 . S
C868 C863 1.490 . S
C868 C870 1.395 . S
C868 C871 1.403 . S
H869 C875 0.930 . S
C870 H856 0.930 . S
C870 C868 1.395 . S
C870 C873 1.403 . S
C871 C868 1.403 . S
C871 C872 1.524 . S
C871 C875 1.400 . S
C872 H857 0.960 . S
C872 H858 0.960 . S
C872 H859 0.960 . S
C872 C871 1.524 . S
C873 C870 1.403 . S
C873 C874 1.392 . S
C873 C877 1.495 . S
C874 C873 1.392 . S
C874 C875 1.385 . S
C874 C876 1.478 . S
C875 H869 0.930 . S
C875 C871 1.400 . S
C875 C874 1.385 . S
C876 C874 1.478 . S
C876 C878 1.381 . S
C876 C882 1.383 . S
C877 C873 1.495 . S
C877 H883 0.959 . S
C877 H884 0.961 . S
C877 H885 0.960 . S
C878 C876 1.381 . S
C878 C879 1.394 . S
C878 H886 0.930 . S
C879 C878 1.394 . S
C879 C880 1.383 . S
C879 H887 0.929 . S
C880 C879 1.383 . S
C880 C881 1.377 . S
C881 H865 0.930 . S
C881 C880 1.377 . S
C881 C882 1.379 . S
C882 H866 0.931 . S
C882 C876 1.383 . S
C882 C881 1.379 . S
H883 C877 0.959 . S
H884 C877 0.961 . S
H885 C877 0.960 . S
H886 C878 0.930 . S
H887 C879 0.929 . S
H888 C896 0.929 . S
H889 C898 0.930 . S
H890 C900 0.930 . S
H891 C903 0.929 . S
H892 C906 0.930 . S
H893 C908 0.960 . S
H894 C908 0.960 . S
H895 C908 0.960 . S
C896 H888 0.929 . S
C896 C897 1.377 . S
C896 C898 1.384 . S
C897 C896 1.377 . S
C897 C903 1.390 . S
C898 H889 0.930 . S
C898 C896 1.384 . S
C898 C899 1.372 . S
C899 C898 1.372 . S
C899 C900 1.400 . S
C899 C904 1.490 . S
C900 H890 0.930 . S
C900 C899 1.400 . S
C900 C903 1.386 . S
H901 C917 0.930 . S
H902 C918 0.931 . S
C903 H891 0.929 . S
C903 C897 1.390 . S
C903 C900 1.386 . S
C904 C899 1.490 . S
C904 C906 1.395 . S
C904 C907 1.403 . S
H905 C911 0.930 . S
C906 H892 0.930 . S
C906 C904 1.395 . S
C906 C909 1.403 . S
C907 C904 1.403 . S
C907 C908 1.524 . S
C907 C911 1.400 . S
C908 H893 0.960 . S
C908 H894 0.960 . S
C908 H895 0.960 . S
C908 C907 1.524 . S
C909 C906 1.403 . S
C909 C910 1.392 . S
C909 C913 1.495 . S
C910 C909 1.392 . S
C910 C911 1.385 . S
C910 C912 1.478 . S
C911 H905 0.930 . S
C911 C907 1.400 . S
C911 C910 1.385 . S
C912 C910 1.478 . S
C912 C914 1.381 . S
C912 C918 1.383 . S
C913 C909 1.495 . S
C913 H919 0.959 . S
C913 H920 0.961 . S
C913 H921 0.960 . S
C914 C912 1.381 . S
C914 C915 1.394 . S
C914 H922 0.930 . S
C915 C914 1.394 . S
C915 C916 1.383 . S
C915 H923 0.929 . S
C916 C915 1.383 . S
C916 C917 1.377 . S
C917 H901 0.930 . S
C917 C916 1.377 . S
C917 C918 1.379 . S
C918 H902 0.931 . S
C918 C912 1.383 . S
C918 C917 1.379 . S
H919 C913 0.959 . S
H920 C913 0.961 . S
H921 C913 0.960 . S
H922 C914 0.930 . S
H923 C915 0.929 . S
H924 C932 0.929 . S
H925 C934 0.930 . S
H926 C936 0.930 . S
H927 C939 0.929 . S
H928 C942 0.930 . S
H929 C944 0.960 . S
H930 C944 0.960 . S
H931 C944 0.960 . S
C932 H924 0.929 . S
C932 C933 1.377 . S
C932 C934 1.384 . S
C933 C932 1.377 . S
C933 C939 1.390 . S
C934 H925 0.930 . S
C934 C932 1.384 . S
C934 C935 1.372 . S
C935 C934 1.372 . S
C935 C936 1.400 . S
C935 C940 1.490 . S
C936 H926 0.930 . S
C936 C935 1.400 . S
C936 C939 1.386 . S
H937 C953 0.930 . S
H938 C954 0.931 . S
C939 H927 0.929 . S
C939 C933 1.390 . S
C939 C936 1.386 . S
C940 C935 1.490 . S
C940 C942 1.395 . S
C940 C943 1.403 . S
H941 C947 0.930 . S
C942 H928 0.930 . S
C942 C940 1.395 . S
C942 C945 1.403 . S
C943 C940 1.403 . S
C943 C944 1.524 . S
C943 C947 1.400 . S
C944 H929 0.960 . S
C944 H930 0.960 . S
C944 H931 0.960 . S
C944 C943 1.524 . S
C945 C942 1.403 . S
C945 C946 1.392 . S
C945 C949 1.495 . S
C946 C945 1.392 . S
C946 C947 1.385 . S
C946 C948 1.478 . S
C947 H941 0.930 . S
C947 C943 1.400 . S
C947 C946 1.385 . S
C948 C946 1.478 . S
C948 C950 1.381 . S
C948 C954 1.383 . S
C949 C945 1.495 . S
C949 H955 0.959 . S
C949 H956 0.961 . S
C949 H957 0.960 . S
C950 C948 1.381 . S
C950 C951 1.394 . S
C950 H958 0.930 . S
C951 C950 1.394 . S
C951 C952 1.383 . S
C951 H959 0.929 . S
C952 C951 1.383 . S
C952 C953 1.377 . S
C953 H937 0.930 . S
C953 C952 1.377 . S
C953 C954 1.379 . S
C954 H938 0.931 . S
C954 C948 1.383 . S
C954 C953 1.379 . S
H955 C949 0.959 . S
H956 C949 0.961 . S
H957 C949 0.960 . S
H958 C950 0.930 . S
H959 C951 0.929 . S
H960 C968 0.929 . S
H961 C970 0.930 . S
H962 C972 0.930 . S
H963 C975 0.929 . S
H964 C978 0.930 . S
H965 C980 0.960 . S
H966 C980 0.960 . S
H967 C980 0.960 . S
C968 H960 0.929 . S
C968 C969 1.377 . S
C968 C970 1.384 . S
C969 C968 1.377 . S
C969 C975 1.390 . S
C970 H961 0.930 . S
C970 C968 1.384 . S
C970 C971 1.372 . S
C971 C970 1.372 . S
C971 C972 1.400 . S
C971 C976 1.490 . S
C972 H962 0.930 . S
C972 C971 1.400 . S
C972 C975 1.386 . S
H973 C989 0.930 . S
H974 C990 0.931 . S
C975 H963 0.929 . S
C975 C969 1.390 . S
C975 C972 1.386 . S
C976 C971 1.490 . S
C976 C978 1.395 . S
C976 C979 1.403 . S
H977 C983 0.930 . S
C978 H964 0.930 . S
C978 C976 1.395 . S
C978 C981 1.403 1_655 S
C979 C976 1.403 . S
C979 C980 1.524 . S
C979 C983 1.400 1_655 S
C980 H965 0.960 . S
C980 H966 0.960 . S
C980 H967 0.960 . S
C980 C979 1.524 . S
C981 C978 1.403 1_455 S
C981 C982 1.392 . S
C981 C985 1.495 . S
C982 C981 1.392 . S
C982 C983 1.385 . S
C982 C984 1.478 . S
C983 H977 0.930 . S
C983 C979 1.400 1_455 S
C983 C982 1.385 . S
C984 C982 1.478 . S
C984 C986 1.381 . S
C984 C990 1.383 . S
C985 C981 1.495 . S
C985 H991 0.959 . S
C985 H992 0.961 . S
C985 H993 0.960 . S
C986 C984 1.381 . S
C986 C987 1.394 . S
C986 H994 0.930 . S
C987 C986 1.394 . S
C987 C988 1.383 . S
C987 H995 0.929 . S
C988 C987 1.383 . S
C988 C989 1.377 . S
C989 H973 0.930 . S
C989 C988 1.377 . S
C989 C990 1.379 . S
C990 H974 0.931 . S
C990 C984 1.383 . S
C990 C989 1.379 . S
H991 C985 0.959 . S
H992 C985 0.961 . S
H993 C985 0.960 . S
H994 C986 0.930 . S
H995 C987 0.929 . S
H996 C1004 0.929 . S
H997 C1006 0.930 . S
H998 C1008 0.930 . S
H999 C1011 0.929 . S
H1000 C1014 0.930 . S
H1001 C1016 0.960 . S
H1002 C1016 0.960 . S
H1003 C1016 0.960 . S
C1004 H996 0.929 . S
C1004 C1005 1.377 . S
C1004 C1006 1.384 . S
C1005 C1004 1.377 . S
C1005 C1011 1.390 . S
C1006 H997 0.930 . S
C1006 C1004 1.384 . S
C1006 C1007 1.372 . S
C1007 C1006 1.372 . S
C1007 C1008 1.400 . S
C1007 C1012 1.490 . S
C1008 H998 0.930 . S
C1008 C1007 1.400 . S
C1008 C1011 1.386 . S
H1009 C1025 0.930 . S
H1010 C1026 0.931 . S
C1011 H999 0.929 . S
C1011 C1005 1.390 . S
C1011 C1008 1.386 . S
C1012 C1007 1.490 . S
C1012 C1014 1.395 . S
C1012 C1015 1.403 . S
H1013 C1019 0.930 . S
C1014 H1000 0.930 . S
C1014 C1012 1.395 . S
C1014 C1017 1.403 1_545 S
C1015 C1012 1.403 . S
C1015 C1016 1.524 . S
C1015 C1019 1.400 1_545 S
C1016 H1001 0.960 . S
C1016 H1002 0.960 . S
C1016 H1003 0.960 . S
C1016 C1015 1.524 . S
C1017 C1014 1.403 1_565 S
C1017 C1018 1.392 . S
C1017 C1021 1.495 . S
C1018 C1017 1.392 . S
C1018 C1019 1.385 . S
C1018 C1020 1.478 . S
C1019 H1013 0.930 . S
C1019 C1015 1.400 1_565 S
C1019 C1018 1.385 . S
C1020 C1018 1.478 . S
C1020 C1022 1.381 . S
C1020 C1026 1.383 . S
C1021 C1017 1.495 . S
C1021 H1027 0.959 . S
C1021 H1028 0.961 . S
C1021 H1029 0.960 . S
C1022 C1020 1.381 . S
C1022 C1023 1.394 . S
C1022 H1030 0.930 . S
C1023 C1022 1.394 . S
C1023 C1024 1.383 . S
C1023 H1031 0.929 . S
C1024 C1023 1.383 . S
C1024 C1025 1.377 . S
C1025 H1009 0.930 . S
C1025 C1024 1.377 . S
C1025 C1026 1.379 . S
C1026 H1010 0.931 . S
C1026 C1020 1.383 . S
C1026 C1025 1.379 . S
H1027 C1021 0.959 . S
H1028 C1021 0.961 . S
H1029 C1021 0.960 . S
H1030 C1022 0.930 . S
H1031 C1023 0.929 . S
H1032 C1040 0.929 . S
H1033 C1042 0.930 . S
H1034 C1044 0.930 . S
H1035 C1047 0.929 . S
H1036 C1050 0.930 . S
H1037 C1052 0.960 . S
H1038 C1052 0.960 . S
H1039 C1052 0.960 . S
C1040 H1032 0.929 . S
C1040 C1041 1.377 . S
C1040 C1042 1.384 . S
C1041 C1040 1.377 . S
C1041 C1047 1.390 . S
C1042 H1033 0.930 . S
C1042 C1040 1.384 . S
C1042 C1043 1.372 . S
C1043 C1042 1.372 . S
C1043 C1044 1.400 . S
C1043 C1048 1.490 . S
C1044 H1034 0.930 . S
C1044 C1043 1.400 . S
C1044 C1047 1.386 . S
H1045 C1061 0.930 . S
H1046 C1062 0.931 . S
C1047 H1035 0.929 . S
C1047 C1041 1.390 . S
C1047 C1044 1.386 . S
C1048 C1043 1.490 . S
C1048 C1050 1.395 . S
C1048 C1051 1.403 . S
H1049 C1055 0.930 . S
C1050 H1036 0.930 . S
C1050 C1048 1.395 . S
C1050 C1053 1.403 . S
C1051 C1048 1.403 . S
C1051 C1052 1.524 . S
C1051 C1055 1.400 . S
C1052 H1037 0.960 . S
C1052 H1038 0.960 . S
C1052 H1039 0.960 . S
C1052 C1051 1.524 . S
C1053 C1050 1.403 . S
C1053 C1054 1.392 . S
C1053 C1057 1.495 . S
C1054 C1053 1.392 . S
C1054 C1055 1.385 . S
C1054 C1056 1.478 . S
C1055 H1049 0.930 . S
C1055 C1051 1.400 . S
C1055 C1054 1.385 . S
C1056 C1054 1.478 . S
C1056 C1058 1.381 . S
C1056 C1062 1.383 . S
C1057 C1053 1.495 . S
C1057 H1063 0.959 . S
C1057 H1064 0.961 . S
C1057 H1065 0.960 . S
C1058 C1056 1.381 . S
C1058 C1059 1.394 . S
C1058 H1066 0.930 . S
C1059 C1058 1.394 . S
C1059 C1060 1.383 . S
C1059 H1067 0.929 . S
C1060 C1059 1.383 . S
C1060 C1061 1.377 . S
C1061 H1045 0.930 . S
C1061 C1060 1.377 . S
C1061 C1062 1.379 . S
C1062 H1046 0.931 . S
C1062 C1056 1.383 . S
C1062 C1061 1.379 . S
H1063 C1057 0.959 . S
H1064 C1057 0.961 . S
H1065 C1057 0.960 . S
H1066 C1058 0.930 . S
H1067 C1059 0.929 . S
H1068 C1076 0.929 . S
H1069 C1078 0.930 . S
H1070 C1080 0.930 . S
H1071 C1083 0.929 . S
H1072 C1086 0.930 . S
H1073 C1088 0.960 . S
H1074 C1088 0.960 . S
H1075 C1088 0.960 . S
C1076 H1068 0.929 . S
C1076 C1077 1.377 . S
C1076 C1078 1.384 . S
C1077 C1076 1.377 . S
C1077 C1083 1.390 . S
C1078 H1069 0.930 . S
C1078 C1076 1.384 . S
C1078 C1079 1.372 . S
C1079 C1078 1.372 . S
C1079 C1080 1.400 . S
C1079 C1084 1.490 . S
C1080 H1070 0.930 . S
C1080 C1079 1.400 . S
C1080 C1083 1.386 . S
H1081 C1097 0.930 . S
H1082 C1098 0.931 . S
C1083 H1071 0.929 . S
C1083 C1077 1.390 . S
C1083 C1080 1.386 . S
C1084 C1079 1.490 . S
C1084 C1086 1.395 . S
C1084 C1087 1.403 . S
H1085 C1091 0.930 . S
C1086 H1072 0.930 . S
C1086 C1084 1.395 . S
C1086 C1089 1.403 1_655 S
C1087 C1084 1.403 . S
C1087 C1088 1.524 . S
C1087 C1091 1.400 1_655 S
C1088 H1073 0.960 . S
C1088 H1074 0.960 . S
C1088 H1075 0.960 . S
C1088 C1087 1.524 . S
C1089 C1086 1.403 1_455 S
C1089 C1090 1.392 . S
C1089 C1093 1.495 . S
C1090 C1089 1.392 . S
C1090 C1091 1.385 . S
C1090 C1092 1.478 . S
C1091 H1085 0.930 . S
C1091 C1087 1.400 1_455 S
C1091 C1090 1.385 . S
C1092 C1090 1.478 . S
C1092 C1094 1.381 . S
C1092 C1098 1.383 . S
C1093 C1089 1.495 . S
C1093 H1099 0.959 . S
C1093 H1100 0.961 . S
C1093 H1101 0.960 . S
C1094 C1092 1.381 . S
C1094 C1095 1.394 . S
C1094 H1102 0.930 . S
C1095 C1094 1.394 . S
C1095 C1096 1.383 . S
C1095 H1103 0.929 . S
C1096 C1095 1.383 . S
C1096 C1097 1.377 . S
C1097 H1081 0.930 . S
C1097 C1096 1.377 . S
C1097 C1098 1.379 . S
C1098 H1082 0.931 . S
C1098 C1092 1.383 . S
C1098 C1097 1.379 . S
H1099 C1093 0.959 . S
H1100 C1093 0.961 . S
H1101 C1093 0.960 . S
H1102 C1094 0.930 . S
H1103 C1095 0.929 . S
H1104 C1112 0.929 . S
H1105 C1114 0.930 . S
H1106 C1116 0.930 . S
H1107 C1119 0.929 . S
H1108 C1122 0.930 . S
H1109 C1124 0.960 . S
H1110 C1124 0.960 . S
H1111 C1124 0.960 . S
C1112 H1104 0.929 . S
C1112 C1113 1.377 . S
C1112 C1114 1.384 . S
C1113 C1112 1.377 . S
C1113 C1119 1.390 . S
C1114 H1105 0.930 . S
C1114 C1112 1.384 . S
C1114 C1115 1.372 . S
C1115 C1114 1.372 . S
C1115 C1116 1.400 . S
C1115 C1120 1.490 . S
C1116 H1106 0.930 . S
C1116 C1115 1.400 . S
C1116 C1119 1.386 . S
H1117 C1133 0.930 . S
H1118 C1134 0.931 . S
C1119 H1107 0.929 . S
C1119 C1113 1.390 . S
C1119 C1116 1.386 . S
C1120 C1115 1.490 . S
C1120 C1122 1.395 . S
C1120 C1123 1.403 1_554 S
H1121 C1127 0.930 . S
C1122 H1108 0.930 . S
C1122 C1120 1.395 . S
C1122 C1125 1.403 1_565 S
C1123 C1120 1.403 1_556 S
C1123 C1124 1.524 . S
C1123 C1127 1.400 1_565 S
C1124 H1109 0.960 . S
C1124 H1110 0.960 . S
C1124 H1111 0.960 . S
C1124 C1123 1.524 . S
C1125 C1122 1.403 1_545 S
C1125 C1126 1.392 1_554 S
C1125 C1129 1.495 . S
C1126 C1125 1.392 1_556 S
C1126 C1127 1.385 . S
C1126 C1128 1.478 . S
C1127 H1121 0.930 . S
C1127 C1123 1.400 1_545 S
C1127 C1126 1.385 . S
C1128 C1126 1.478 . S
C1128 C1130 1.381 . S
C1128 C1134 1.383 . S
C1129 C1125 1.495 . S
C1129 H1135 0.959 . S
C1129 H1136 0.961 . S
C1129 H1137 0.960 . S
C1130 C1128 1.381 . S
C1130 C1131 1.394 . S
C1130 H1138 0.965 . S
C1131 C1130 1.394 . S
C1131 C1132 1.383 . S
C1131 H1139 0.929 . S
C1132 C1131 1.383 . S
C1132 C1133 1.377 . S
C1133 H1117 0.930 . S
C1133 C1132 1.377 . S
C1133 C1134 1.379 . S
C1134 H1118 0.931 . S
C1134 C1128 1.383 . S
C1134 C1133 1.379 . S
H1135 C1129 0.959 . S
H1136 C1129 0.961 . S
H1137 C1129 0.960 . S
H1138 C1130 0.965 . S
H1139 C1131 0.929 . S
H1140 C1148 0.929 . S
H1141 C1150 0.930 . S
H1142 C1152 0.930 . S
H1143 C1155 0.929 . S
H1144 C1158 0.930 . S
H1145 C1160 0.960 . S
H1146 C1160 0.960 . S
H1147 C1160 0.960 . S
C1148 H1140 0.929 . S
C1148 C1149 1.377 . S
C1148 C1150 1.384 . S
C1149 C1148 1.377 . S
C1149 C1155 1.390 . S
C1150 H1141 0.930 . S
C1150 C1148 1.384 . S
C1150 C1151 1.372 . S
C1151 C1150 1.372 . S
C1151 C1152 1.400 . S
C1151 C1156 1.490 . S
C1152 H1142 0.930 . S
C1152 C1151 1.400 . S
C1152 C1155 1.386 . S
H1153 C1169 0.930 . S
H1154 C1170 0.931 . S
C1155 H1143 0.929 . S
C1155 C1149 1.390 . S
C1155 C1152 1.386 . S
C1156 C1151 1.490 . S
C1156 C1158 1.395 . S
C1156 C1159 1.403 . S
H1157 C1163 0.930 . S
C1158 H1144 0.930 . S
C1158 C1156 1.395 . S
C1158 C1161 1.403 . S
C1159 C1156 1.403 . S
C1159 C1160 1.524 . S
C1159 C1163 1.400 . S
C1160 H1145 0.960 . S
C1160 H1146 0.960 . S
C1160 H1147 0.960 . S
C1160 C1159 1.524 . S
C1161 C1158 1.403 . S
C1161 C1162 1.392 . S
C1161 C1165 1.495 . S
C1162 C1161 1.392 . S
C1162 C1163 1.385 . S
C1162 C1164 1.478 . S
C1163 H1157 0.930 . S
C1163 C1159 1.400 . S
C1163 C1162 1.385 . S
C1164 C1162 1.478 . S
C1164 C1166 1.381 1_554 S
C1164 C1170 1.383 . S
C1165 C1161 1.495 . S
C1165 H1171 0.959 . S
C1165 H1172 0.961 . S
C1165 H1173 0.960 . S
C1166 C1164 1.381 1_556 S
C1166 C1167 1.394 . S
C1166 H1174 0.930 . S
C1167 C1166 1.394 . S
C1167 C1168 1.383 . S
C1167 H1175 0.929 . S
C1168 C1167 1.383 . S
C1168 C1169 1.377 1_556 S
C1169 H1153 0.930 . S
C1169 C1168 1.377 1_554 S
C1169 C1170 1.379 . S
C1170 H1154 0.931 . S
C1170 C1164 1.383 . S
C1170 C1169 1.379 . S
H1171 C1165 0.959 . S
H1172 C1165 0.961 . S
H1173 C1165 0.960 . S
H1174 C1166 0.930 . S
H1175 C1167 0.929 . S
H1176 C1184 0.929 . S
H1177 C1186 0.930 . S
H1178 C1188 0.930 . S
H1179 C1191 0.929 . S
H1180 C1194 0.930 . S
H1181 C1196 0.960 . S
H1182 C1196 0.960 . S
H1183 C1196 0.960 . S
C1184 H1176 0.929 . S
C1184 C1185 1.377 . S
C1184 C1186 1.384 . S
C1185 C1184 1.377 . S
C1185 C1191 1.390 . S
C1186 H1177 0.930 . S
C1186 C1184 1.384 . S
C1186 C1187 1.372 . S
C1187 C1186 1.372 . S
C1187 C1188 1.400 . S
C1187 C1192 1.490 . S
C1188 H1178 0.930 . S
C1188 C1187 1.400 . S
C1188 C1191 1.386 . S
H1189 C1205 0.930 1_655 S
H1190 C1206 0.931 . S
C1191 H1179 0.929 . S
C1191 C1185 1.390 . S
C1191 C1188 1.386 . S
C1192 C1187 1.490 . S
C1192 C1194 1.395 . S
C1192 C1195 1.403 . S
H1193 C1199 0.930 . S
C1194 H1180 0.930 . S
C1194 C1192 1.395 . S
C1194 C1197 1.403 . S
C1195 C1192 1.403 . S
C1195 C1196 1.524 . S
C1195 C1199 1.400 . S
C1196 H1181 0.960 . S
C1196 H1182 0.960 . S
C1196 H1183 0.960 . S
C1196 C1195 1.524 . S
C1197 C1194 1.403 . S
C1197 C1198 1.392 . S
C1197 C1201 1.495 . S
C1198 C1197 1.392 . S
C1198 C1199 1.385 . S
C1198 C1200 1.478 . S
C1199 H1193 0.930 . S
C1199 C1195 1.400 . S
C1199 C1198 1.385 . S
C1200 C1198 1.478 . S
C1200 C1202 1.381 1_655 S
C1200 C1206 1.383 . S
C1201 C1197 1.495 . S
C1201 H1207 0.959 . S
C1201 H1208 0.961 . S
C1201 H1209 0.960 1_655 S
C1202 C1200 1.381 1_455 S
C1202 C1203 1.394 . S
C1202 H1210 0.930 . S
C1203 C1202 1.394 . S
C1203 C1204 1.383 . S
C1203 H1211 0.929 . S
C1204 C1203 1.383 . S
C1204 C1205 1.377 . S
C1205 H1189 0.930 1_455 S
C1205 C1204 1.377 . S
C1205 C1206 1.379 1_455 S
C1206 H1190 0.931 . S
C1206 C1200 1.383 . S
C1206 C1205 1.379 1_655 S
H1207 C1201 0.959 . S
H1208 C1201 0.961 . S
H1209 C1201 0.960 1_455 S
H1210 C1202 0.930 . S
H1211 C1203 0.929 . S
H1212 C1220 0.929 . S
H1213 C1222 0.930 . S
H1214 C1224 0.930 . S
H1215 C1227 0.929 . S
H1216 C1230 0.930 1_545 S
H1217 C1232 0.960 . S
H1218 C1232 0.960 . S
H1219 C1232 0.960 . S
C1220 H1212 0.929 . S
C1220 C1221 1.377 . S
C1220 C1222 1.384 . S
C1221 C1220 1.377 . S
C1221 C1227 1.390 . S
C1222 H1213 0.930 . S
C1222 C1220 1.384 . S
C1222 C1223 1.372 1_545 S
C1223 C1222 1.372 1_565 S
C1223 C1224 1.400 . S
C1223 C1228 1.490 . S
C1224 H1214 0.930 . S
C1224 C1223 1.400 . S
C1224 C1227 1.386 1_565 S
H1225 C1241 0.930 . S
H1226 C1242 0.931 . S
C1227 H1215 0.929 . S
C1227 C1221 1.390 . S
C1227 C1224 1.386 1_545 S
C1228 C1223 1.490 . S
C1228 C1230 1.395 . S
C1228 C1231 1.403 . S
H1229 C1235 0.930 . S
C1230 H1216 0.930 1_565 S
C1230 C1228 1.395 . S
C1230 C1233 1.403 . S
C1231 C1228 1.403 . S
C1231 C1232 1.524 . S
C1231 C1235 1.400 . S
C1232 H1217 0.960 . S
C1232 H1218 0.960 . S
C1232 H1219 0.960 . S
C1232 C1231 1.524 . S
C1233 C1230 1.403 . S
C1233 C1234 1.392 . S
C1233 C1237 1.495 . S
C1234 C1233 1.392 . S
C1234 C1235 1.385 . S
C1234 C1236 1.478 . S
C1235 H1229 0.930 . S
C1235 C1231 1.400 . S
C1235 C1234 1.385 . S
C1236 C1234 1.478 . S
C1236 C1238 1.381 . S
C1236 C1242 1.383 . S
C1237 C1233 1.495 . S
C1237 H1243 0.959 . S
C1237 H1244 0.961 . S
C1237 H1245 0.960 . S
C1238 C1236 1.381 . S
C1238 C1239 1.394 . S
C1238 H1246 0.930 . S
C1239 C1238 1.394 . S
C1239 C1240 1.383 . S
C1239 H1247 0.929 . S
C1240 C1239 1.383 . S
C1240 C1241 1.377 . S
C1241 H1225 0.930 . S
C1241 C1240 1.377 . S
C1241 C1242 1.379 . S
C1242 H1226 0.931 . S
C1242 C1236 1.383 . S
C1242 C1241 1.379 . S
H1243 C1237 0.959 . S
H1244 C1237 0.961 . S
H1245 C1237 0.960 . S
H1246 C1238 0.930 . S
H1247 C1239 0.929 . S
H1248 C1256 0.929 . S
H1249 C1258 0.930 . S
H1250 C1260 0.930 . S
H1251 C1263 0.929 . S
H1252 C1266 0.930 . S
H1253 C1268 0.960 . S
H1254 C1268 0.960 . S
H1255 C1268 0.960 . S
C1256 H1248 0.929 . S
C1256 C1257 1.377 . S
C1256 C1258 1.384 . S
C1257 C1256 1.377 . S
C1257 C1263 1.390 . S
C1258 H1249 0.930 . S
C1258 C1256 1.384 . S
C1258 C1259 1.372 . S
C1259 C1258 1.372 . S
C1259 C1260 1.400 . S
C1259 C1264 1.490 . S
C1260 H1250 0.930 . S
C1260 C1259 1.400 . S
C1260 C1263 1.386 . S
H1261 C1277 0.930 . S
H1262 C1278 0.931 . S
C1263 H1251 0.929 . S
C1263 C1257 1.390 . S
C1263 C1260 1.386 . S
C1264 C1259 1.490 . S
C1264 C1266 1.395 . S
C1264 C1267 1.403 . S
H1265 C1271 0.930 . S
C1266 H1252 0.930 . S
C1266 C1264 1.395 . S
C1266 C1269 1.403 . S
C1267 C1264 1.403 . S
C1267 C1268 1.524 . S
C1267 C1271 1.400 . S
C1268 H1253 0.960 . S
C1268 H1254 0.960 . S
C1268 H1255 0.960 . S
C1268 C1267 1.524 . S
C1269 C1266 1.403 . S
C1269 C1270 1.392 . S
C1269 C1273 1.495 . S
C1270 C1269 1.392 . S
C1270 C1271 1.385 . S
C1270 C1272 1.478 . S
C1271 H1265 0.930 . S
C1271 C1267 1.400 . S
C1271 C1270 1.385 . S
C1272 C1270 1.478 . S
C1272 C1274 1.381 . S
C1272 C1278 1.383 . S
C1273 C1269 1.495 . S
C1273 H1279 0.959 . S
C1273 H1280 0.961 . S
C1273 H1281 0.960 . S
C1274 C1272 1.381 . S
C1274 C1275 1.394 . S
C1274 H1282 0.930 . S
C1275 C1274 1.394 . S
C1275 C1276 1.383 . S
C1275 H1283 0.929 . S
C1276 C1275 1.383 . S
C1276 C1277 1.377 . S
C1277 H1261 0.930 . S
C1277 C1276 1.377 . S
C1277 C1278 1.379 . S
C1278 H1262 0.931 . S
C1278 C1272 1.383 . S
C1278 C1277 1.379 . S
H1279 C1273 0.959 . S
H1280 C1273 0.961 . S
H1281 C1273 0.960 . S
H1282 C1274 0.930 . S
H1283 C1275 0.929 . S
H1284 C1292 0.929 . S
H1285 C1294 0.930 . S
H1286 C1296 0.930 . S
H1287 C1299 0.929 . S
H1288 C1302 0.930 . S
H1289 C1304 0.960 . S
H1290 C1304 0.960 . S
H1291 C1304 0.960 . S
C1292 H1284 0.929 . S
C1292 C1293 1.377 . S
C1292 C1294 1.384 . S
C1293 C1292 1.377 . S
C1293 C1299 1.390 . S
C1294 H1285 0.930 . S
C1294 C1292 1.384 . S
C1294 C1295 1.372 . S
C1295 C1294 1.372 . S
C1295 C1296 1.400 . S
C1295 C1300 1.490 . S
C1296 H1286 0.930 . S
C1296 C1295 1.400 . S
C1296 C1299 1.386 . S
H1297 C1313 0.930 1_455 S
H1298 C1314 0.931 . S
C1299 H1287 0.929 . S
C1299 C1293 1.390 . S
C1299 C1296 1.386 . S
C1300 C1295 1.490 . S
C1300 C1302 1.395 . S
C1300 C1303 1.403 . S
H1301 C1307 0.930 . S
C1302 H1288 0.930 . S
C1302 C1300 1.395 . S
C1302 C1305 1.403 . S
C1303 C1300 1.403 . S
C1303 C1304 1.524 . S
C1303 C1307 1.400 . S
C1304 H1289 0.960 . S
C1304 H1290 0.960 . S
C1304 H1291 0.960 . S
C1304 C1303 1.524 . S
C1305 C1302 1.403 . S
C1305 C1306 1.392 . S
C1305 C1309 1.529 . S
C1306 C1305 1.392 . S
C1306 C1307 1.385 . S
C1306 C1308 1.478 . S
C1307 H1301 0.930 . S
C1307 C1303 1.400 . S
C1307 C1306 1.385 . S
C1308 C1306 1.478 . S
C1308 C1310 1.381 1_455 S
C1308 C1314 1.383 . S
C1309 C1305 1.529 . S
C1309 H1315 0.952 . S
C1309 H1316 0.956 . S
C1309 H1317 0.939 1_455 S
C1310 C1308 1.381 1_655 S
C1310 C1311 1.394 . S
C1310 H1318 0.930 . S
C1311 C1310 1.394 . S
C1311 C1312 1.383 . S
C1311 H1319 0.929 . S
C1312 C1311 1.383 . S
C1312 C1313 1.377 . S
C1313 H1297 0.930 1_655 S
C1313 C1312 1.377 . S
C1313 C1314 1.379 1_655 S
C1314 H1298 0.931 . S
C1314 C1308 1.383 . S
C1314 C1313 1.379 1_455 S
H1315 C1309 0.952 . S
H1316 C1309 0.956 . S
H1317 C1309 0.939 1_655 S
H1318 C1310 0.930 . S
H1319 C1311 0.929 . S
H1320 C1328 0.929 . S
H1321 C1330 0.930 . S
H1322 C1332 0.930 . S
H1323 C1335 0.929 . S
H1324 C1338 0.930 . S
H1325 C1340 0.960 . S
H1326 C1340 0.960 . S
H1327 C1340 0.960 . S
C1328 H1320 0.929 . S
C1328 C1329 1.377 . S
C1328 C1330 1.384 . S
C1329 C1328 1.377 . S
C1329 C1335 1.390 . S
C1330 H1321 0.930 . S
C1330 C1328 1.384 . S
C1330 C1331 1.372 . S
C1331 C1330 1.372 . S
C1331 C1332 1.400 . S
C1331 C1336 1.490 . S
C1332 H1322 0.930 . S
C1332 C1331 1.400 . S
C1332 C1335 1.386 . S
H1333 C1349 0.930 . S
H1334 C1350 0.931 . S
C1335 H1323 0.929 . S
C1335 C1329 1.390 . S
C1335 C1332 1.386 . S
C1336 C1331 1.490 . S
C1336 C1338 1.395 . S
C1336 C1339 1.403 . S
H1337 C1343 0.930 . S
C1338 H1324 0.930 . S
C1338 C1336 1.395 . S
C1338 C1341 1.403 . S
C1339 C1336 1.403 . S
C1339 C1340 1.524 . S
C1339 C1343 1.400 . S
C1340 H1325 0.960 . S
C1340 H1326 0.960 . S
C1340 H1327 0.960 . S
C1340 C1339 1.524 . S
C1341 C1338 1.403 . S
C1341 C1342 1.392 . S
C1341 C1345 1.495 1_545 S
C1342 C1341 1.392 . S
C1342 C1343 1.385 . S
C1342 C1344 1.478 . S
C1343 H1337 0.930 . S
C1343 C1339 1.400 . S
C1343 C1342 1.385 . S
C1344 C1342 1.478 . S
C1344 C1346 1.381 1_545 S
C1344 C1350 1.383 . S
C1345 C1341 1.495 1_565 S
C1345 H1351 0.959 . S
C1345 H1352 0.961 . S
C1345 H1353 0.960 . S
C1346 C1344 1.381 1_565 S
C1346 C1347 1.394 . S
C1346 H1354 0.930 . S
C1347 C1346 1.394 . S
C1347 C1348 1.383 . S
C1347 H1355 0.929 . S
C1348 C1347 1.383 . S
C1348 C1349 1.377 . S
C1349 H1333 0.930 . S
C1349 C1348 1.377 . S
C1349 C1350 1.379 1_565 S
C1350 H1334 0.931 . S
C1350 C1344 1.383 . S
C1350 C1349 1.379 1_545 S
H1351 C1345 0.959 . S
H1352 C1345 0.961 . S
H1353 C1345 0.960 . S
H1354 C1346 0.930 . S
H1355 C1347 0.929 . S
H1356 C1364 0.929 . S
H1357 C1366 0.930 . S
H1358 C1368 0.930 . S
H1359 C1371 0.929 . S
H1360 C1374 0.930 . S
H1361 C1376 0.960 . S
H1362 C1376 0.960 . S
H1363 C1376 0.960 . S
C1364 H1356 0.929 . S
C1364 C1365 1.377 . S
C1364 C1366 1.384 . S
C1365 C1364 1.377 . S
C1365 C1371 1.390 . S
C1366 H1357 0.930 . S
C1366 C1364 1.384 . S
C1366 C1367 1.372 . S
C1367 C1366 1.372 . S
C1367 C1368 1.400 . S
C1367 C1372 1.490 . S
C1368 H1358 0.930 . S
C1368 C1367 1.400 . S
C1368 C1371 1.386 . S
H1369 C1385 0.930 . S
H1370 C1386 0.931 . S
C1371 H1359 0.929 . S
C1371 C1365 1.390 . S
C1371 C1368 1.386 . S
C1372 C1367 1.490 . S
C1372 C1374 1.395 . S
C1372 C1375 1.403 . S
H1373 C1379 0.930 . S
C1374 H1360 0.930 . S
C1374 C1372 1.395 . S
C1374 C1377 1.403 . S
C1375 C1372 1.403 . S
C1375 C1376 1.524 . S
C1375 C1379 1.400 . S
C1376 H1361 0.960 . S
C1376 H1362 0.960 . S
C1376 H1363 0.960 . S
C1376 C1375 1.524 . S
C1377 C1374 1.403 . S
C1377 C1378 1.392 . S
C1377 C1381 1.495 . S
C1378 C1377 1.392 . S
C1378 C1379 1.385 . S
C1378 C1380 1.478 . S
C1379 H1373 0.930 . S
C1379 C1375 1.400 . S
C1379 C1378 1.385 . S
C1380 C1378 1.478 . S
C1380 C1382 1.381 . S
C1380 C1386 1.383 . S
C1381 C1377 1.495 . S
C1381 H1387 0.959 . S
C1381 H1388 0.961 . S
C1381 H1389 0.960 . S
C1382 C1380 1.381 . S
C1382 C1383 1.394 . S
C1382 H1390 0.930 . S
C1383 C1382 1.394 . S
C1383 C1384 1.383 . S
C1383 H1391 0.929 . S
C1384 C1383 1.383 . S
C1384 C1385 1.377 . S
C1385 H1369 0.930 . S
C1385 C1384 1.377 . S
C1385 C1386 1.379 . S
C1386 H1370 0.931 . S
C1386 C1380 1.383 . S
C1386 C1385 1.379 . S
H1387 C1381 0.959 . S
H1388 C1381 0.961 . S
H1389 C1381 0.960 . S
H1390 C1382 0.930 . S
H1391 C1383 0.929 . S
H1392 C1400 0.929 . S
H1393 C1402 0.930 . S
H1394 C1404 0.930 . S
H1395 C1407 0.929 . S
H1396 C1410 0.930 . S
H1397 C1412 0.960 . S
H1398 C1412 0.960 . S
H1399 C1412 0.960 . S
C1400 H1392 0.929 . S
C1400 C1401 1.377 . S
C1400 C1402 1.384 . S
C1401 C1400 1.377 . S
C1401 C1407 1.390 . S
C1402 H1393 0.930 . S
C1402 C1400 1.384 . S
C1402 C1403 1.372 . S
C1403 C1402 1.372 . S
C1403 C1404 1.400 . S
C1403 C1408 1.490 . S
C1404 H1394 0.930 . S
C1404 C1403 1.400 . S
C1404 C1407 1.386 . S
H1405 C1421 0.930 . S
H1406 C1422 0.931 . S
C1407 H1395 0.929 . S
C1407 C1401 1.390 . S
C1407 C1404 1.386 . S
C1408 C1403 1.490 . S
C1408 C1410 1.395 . S
C1408 C1411 1.403 . S
H1409 C1415 0.930 . S
C1410 H1396 0.930 . S
C1410 C1408 1.395 . S
C1410 C1413 1.403 . S
C1411 C1408 1.403 . S
C1411 C1412 1.524 . S
C1411 C1415 1.400 . S
C1412 H1397 0.960 . S
C1412 H1398 0.960 . S
C1412 H1399 0.960 . S
C1412 C1411 1.524 . S
C1413 C1410 1.403 . S
C1413 C1414 1.392 . S
C1413 C1417 1.495 . S
C1414 C1413 1.392 . S
C1414 C1415 1.385 . S
C1414 C1416 1.478 . S
C1415 H1409 0.930 . S
C1415 C1411 1.400 . S
C1415 C1414 1.385 . S
C1416 C1414 1.478 . S
C1416 C1418 1.381 1_556 S
C1416 C1422 1.383 1_655 S
C1417 C1413 1.495 . S
C1417 H1423 0.959 . S
C1417 H1424 0.961 . S
C1417 H1425 1.018 . S
C1418 C1416 1.381 1_554 S
C1418 C1419 1.394 1_655 S
C1418 H1426 0.930 . S
C1419 C1418 1.394 1_455 S
C1419 C1420 1.383 . S
C1419 H1427 0.929 . S
C1420 C1419 1.383 . S
C1420 C1421 1.377 1_554 S
C1421 H1405 0.930 . S
C1421 C1420 1.377 1_556 S
C1421 C1422 1.379 . S
C1422 H1406 0.931 . S
C1422 C1416 1.383 1_455 S
C1422 C1421 1.379 . S
H1423 C1417 0.959 . S
H1424 C1417 0.961 . S
H1425 C1417 1.018 . S
H1426 C1418 0.930 . S
H1427 C1419 0.929 . S
H1428 C1436 0.929 . S
H1429 C1438 0.930 . S
H1430 C1440 0.930 . S
H1431 C1443 0.929 . S
H1432 C1446 0.930 . S
H1433 C1448 0.960 . S
H1434 C1448 0.960 . S
H1435 C1448 0.960 . S
C1436 H1428 0.929 . S
C1436 C1437 1.377 . S
C1436 C1438 1.384 . S
C1437 C1436 1.377 . S
C1437 C1443 1.390 . S
C1438 H1429 0.930 . S
C1438 C1436 1.384 . S
C1438 C1439 1.372 . S
C1439 C1438 1.372 . S
C1439 C1440 1.400 . S
C1439 C1444 1.490 . S
C1440 H1430 0.930 . S
C1440 C1439 1.400 . S
C1440 C1443 1.386 . S
H1441 C1457 0.930 . S
H1442 C1458 0.931 . S
C1443 H1431 0.929 . S
C1443 C1437 1.390 . S
C1443 C1440 1.386 . S
C1444 C1439 1.490 . S
C1444 C1446 1.395 . S
C1444 C1447 1.403 . S
H1445 C1451 0.930 . S
C1446 H1432 0.930 . S
C1446 C1444 1.395 . S
C1446 C1449 1.403 . S
C1447 C1444 1.403 . S
C1447 C1448 1.524 . S
C1447 C1451 1.400 . S
C1448 H1433 0.960 . S
C1448 H1434 0.960 . S
C1448 H1435 0.960 . S
C1448 C1447 1.524 . S
C1449 C1446 1.403 . S
C1449 C1450 1.392 . S
C1449 C1453 1.495 . S
C1450 C1449 1.392 . S
C1450 C1451 1.385 . S
C1450 C1452 1.478 . S
C1451 H1445 0.930 . S
C1451 C1447 1.400 . S
C1451 C1450 1.385 . S
C1452 C1450 1.478 . S
C1452 C1454 1.381 1_565 S
C1452 C1458 1.383 . S
C1453 C1449 1.495 . S
C1453 H1459 0.959 . S
C1453 H1460 0.961 . S
C1453 H1461 0.960 . S
C1454 C1452 1.381 1_545 S
C1454 C1455 1.394 . S
C1454 H1462 0.930 1_545 S
C1455 C1454 1.394 . S
C1455 C1456 1.383 . S
C1455 H1463 0.929 . S
C1456 C1455 1.383 . S
C1456 C1457 1.377 . S
C1457 H1441 0.930 . S
C1457 C1456 1.377 . S
C1457 C1458 1.379 1_545 S
C1458 H1442 0.931 . S
C1458 C1452 1.383 . S
C1458 C1457 1.379 1_565 S
H1459 C1453 0.959 . S
H1460 C1453 0.961 . S
H1461 C1453 0.960 . S
H1462 C1454 0.930 1_565 S
H1463 C1455 0.929 . S
H1464 C1472 0.929 . S
H1465 C1474 0.930 . S
H1466 C1476 0.930 . S
H1467 C1479 0.929 . S
H1468 C1482 0.930 . S
H1469 C1484 0.960 . S
H1470 C1484 0.960 . S
H1471 C1484 0.960 . S
C1472 H1464 0.929 . S
C1472 C1473 1.377 . S
C1472 C1474 1.384 . S
C1473 C1472 1.377 . S
C1473 C1479 1.390 . S
C1474 H1465 0.930 . S
C1474 C1472 1.384 . S
C1474 C1475 1.372 . S
C1475 C1474 1.372 . S
C1475 C1476 1.400 . S
C1475 C1480 1.490 . S
C1476 H1466 0.930 . S
C1476 C1475 1.400 . S
C1476 C1479 1.386 . S
H1477 C1493 0.930 . S
H1478 C1494 0.931 . S
C1479 H1467 0.929 . S
C1479 C1473 1.390 . S
C1479 C1476 1.386 . S
C1480 C1475 1.490 . S
C1480 C1482 1.395 . S
C1480 C1483 1.403 . S
H1481 C1487 0.930 . S
C1482 H1468 0.930 . S
C1482 C1480 1.395 . S
C1482 C1485 1.403 . S
C1483 C1480 1.403 . S
C1483 C1484 1.524 . S
C1483 C1487 1.400 . S
C1484 H1469 0.960 . S
C1484 H1470 0.960 . S
C1484 H1471 0.960 . S
C1484 C1483 1.524 . S
C1485 C1482 1.403 . S
C1485 C1486 1.392 . S
C1485 C1489 1.495 . S
C1486 C1485 1.392 . S
C1486 C1487 1.385 . S
C1486 C1488 1.478 . S
C1487 H1481 0.930 . S
C1487 C1483 1.400 . S
C1487 C1486 1.385 . S
C1488 C1486 1.478 . S
C1488 C1490 1.381 . S
C1488 C1494 1.383 . S
C1489 C1485 1.495 . S
C1489 H1495 0.959 . S
C1489 H1496 0.961 . S
C1489 H1497 0.960 . S
C1490 C1488 1.381 . S
C1490 C1491 1.394 . S
C1490 H1498 0.930 . S
C1491 C1490 1.394 . S
C1491 C1492 1.383 . S
C1491 H1499 0.929 . S
C1492 C1491 1.383 . S
C1492 C1493 1.377 . S
C1493 H1477 0.930 . S
C1493 C1492 1.377 . S
C1493 C1494 1.379 . S
C1494 H1478 0.931 . S
C1494 C1488 1.383 . S
C1494 C1493 1.379 . S
H1495 C1489 0.959 . S
H1496 C1489 0.961 . S
H1497 C1489 0.960 . S
H1498 C1490 0.930 . S
H1499 C1491 0.929 . S
H1500 C1508 0.929 . S
H1501 C1510 0.930 . S
H1502 C1512 0.930 . S
H1503 C1515 0.929 . S
H1504 C1518 0.930 . S
H1505 C1520 0.960 . S
H1506 C1520 0.960 . S
H1507 C1520 0.960 . S
C1508 H1500 0.929 . S
C1508 C1509 1.377 . S
C1508 C1510 1.384 . S
C1509 C1508 1.377 . S
C1509 C1515 1.390 . S
C1510 H1501 0.930 . S
C1510 C1508 1.384 . S
C1510 C1511 1.372 . S
C1511 C1510 1.372 . S
C1511 C1512 1.400 . S
C1511 C1516 1.490 . S
C1512 H1502 0.930 . S
C1512 C1511 1.400 . S
C1512 C1515 1.386 . S
H1513 C1529 0.930 . S
H1514 C1530 0.931 . S
C1515 H1503 0.929 . S
C1515 C1509 1.390 . S
C1515 C1512 1.386 . S
C1516 C1511 1.490 . S
C1516 C1518 1.395 . S
C1516 C1519 1.403 . S
H1517 C1523 0.930 . S
C1518 H1504 0.930 . S
C1518 C1516 1.395 . S
C1518 C1521 1.403 . S
C1519 C1516 1.403 . S
C1519 C1520 1.524 . S
C1519 C1523 1.400 . S
C1520 H1505 0.960 . S
C1520 H1506 0.960 . S
C1520 H1507 0.960 . S
C1520 C1519 1.524 . S
C1521 C1518 1.403 . S
C1521 C1522 1.392 . S
C1521 C1525 1.495 . S
C1522 C1521 1.392 . S
C1522 C1523 1.385 . S
C1522 C1524 1.478 . S
C1523 H1517 0.930 . S
C1523 C1519 1.400 . S
C1523 C1522 1.385 . S
C1524 C1522 1.478 . S
C1524 C1526 1.381 . S
C1524 C1530 1.383 1_455 S
C1525 C1521 1.495 . S
C1525 H1531 0.959 . S
C1525 H1532 0.961 . S
C1525 H1533 0.960 . S
C1526 C1524 1.381 . S
C1526 C1527 1.394 1_455 S
C1526 H1534 0.930 . S
C1527 C1526 1.394 1_655 S
C1527 C1528 1.383 . S
C1527 H1535 0.929 1_655 S
C1528 C1527 1.383 . S
C1528 C1529 1.377 . S
C1529 H1513 0.930 . S
C1529 C1528 1.377 . S
C1529 C1530 1.379 . S
C1530 H1514 0.931 . S
C1530 C1524 1.383 1_655 S
C1530 C1529 1.379 . S
H1531 C1525 0.959 . S
H1532 C1525 0.961 . S
H1533 C1525 0.960 . S
H1534 C1526 0.930 . S
H1535 C1527 0.929 1_455 S
H1536 C1544 0.929 . S
H1537 C1546 0.930 . S
H1538 C1548 0.930 . S
H1539 C1551 0.929 . S
H1540 C1554 0.930 . S
H1541 C1556 0.960 . S
H1542 C1556 0.960 . S
H1543 C1556 0.960 . S
C1544 H1536 0.929 . S
C1544 C1545 1.377 . S
C1544 C1546 1.384 1_565 S
C1545 C1544 1.377 . S
C1545 C1551 1.390 . S
C1546 H1537 0.930 . S
C1546 C1544 1.384 1_545 S
C1546 C1547 1.372 . S
C1547 C1546 1.372 . S
C1547 C1548 1.400 1_545 S
C1547 C1552 1.490 . S
C1548 H1538 0.930 . S
C1548 C1547 1.400 1_565 S
C1548 C1551 1.386 . S
H1549 C1565 0.930 . S
H1550 C1566 0.931 . S
C1551 H1539 0.929 . S
C1551 C1545 1.390 . S
C1551 C1548 1.386 . S
C1552 C1547 1.490 . S
C1552 C1554 1.395 . S
C1552 C1555 1.403 . S
H1553 C1559 0.930 . S
C1554 H1540 0.930 . S
C1554 C1552 1.395 . S
C1554 C1557 1.403 . S
C1555 C1552 1.403 . S
C1555 C1556 1.524 1_545 S
C1555 C1559 1.400 . S
C1556 H1541 0.960 . S
C1556 H1542 0.960 . S
C1556 H1543 0.960 . S
C1556 C1555 1.524 1_565 S
C1557 C1554 1.403 . S
C1557 C1558 1.392 . S
C1557 C1561 1.495 . S
C1558 C1557 1.392 . S
C1558 C1559 1.385 . S
C1558 C1560 1.478 . S
C1559 H1553 0.930 . S
C1559 C1555 1.400 . S
C1559 C1558 1.385 . S
C1560 C1558 1.478 . S
C1560 C1562 1.381 . S
C1560 C1566 1.383 . S
C1561 C1557 1.495 . S
C1561 H1567 0.959 . S
C1561 H1568 0.961 . S
C1561 H1569 0.960 . S
C1562 C1560 1.381 . S
C1562 C1563 1.394 . S
C1562 H1570 0.930 . S
C1563 C1562 1.394 . S
C1563 C1564 1.383 . S
C1563 H1571 0.929 . S
C1564 C1563 1.383 . S
C1564 C1565 1.377 . S
C1565 H1549 0.930 . S
C1565 C1564 1.377 . S
C1565 C1566 1.379 . S
C1566 H1550 0.931 . S
C1566 C1560 1.383 . S
C1566 C1565 1.379 . S
H1567 C1561 0.959 . S
H1568 C1561 0.961 . S
H1569 C1561 0.960 . S
H1570 C1562 0.930 . S
H1571 C1563 0.929 . S
C717 C477 1.272 . S
C736 C5 1.275 . S
C753 C64 1.271 . S
C772 C536 1.274 . S
C789 C123 1.271 . S
C808 C595 1.271 . S
C825 C182 1.272 . S
C844 C654 1.275 . S
C861 C359 1.270 . S
C880 C241 1.261 . S
C897 C300 1.272 . S
C916 C418 1.273 . S
C933 C583 0.909 . S
C952 C52 0.899 . S
C969 C111 0.905 . S
C988 C642 0.894 . S
C1005 C701 0.903 . S
C1024 C170 0.912 . S
C1041 C229 0.908 . S
C1060 C406 0.891 . S
C1077 C465 0.905 . S
C1096 C288 0.918 . S
C1113 C524 0.903 . S
C1132 C347 0.909 . S
C1149 C33 1.538 . S
C1168 C298 1.525 . S
C1185 C92 1.533 . S
C1204 C3 1.485 . S
C1221 C62 1.505 . S
C1240 C151 1.520 . S
C1257 C210 1.538 . S
C1276 C121 1.523 . S
C1293 C269 1.533 . S
C1312 C180 1.484 . S
C1329 C328 1.533 . S
C1348 C239 1.483 . S
C1365 C387 1.534 . S
C1384 C416 1.508 . S
C1401 C446 1.537 . S
C1420 C475 1.526 . S
C1437 C505 1.535 . S
C1456 C534 1.516 . S
C1473 C564 1.534 . S
C1492 C593 1.510 . S
C1509 C623 1.538 . S
C1528 C652 1.526 . S
C1545 C357 1.509 . S
C1564 C682 1.540 . S
