# Generated by pormake.
# Topology upc, (4)-cn, num edge types: 1
# Building blocks:
#     Node 0, Type 0, BuildingBlock: QUQFOY_clean_sbu_1, # of connection points: 4
#     Node 1, Type 0, BuildingBlock: QUQFOY_clean_sbu_1, # of connection points: 4
#     Node 2, Type 0, BuildingBlock: QUQFOY_clean_sbu_1, # of connection points: 4
#     Node 3, Type 0, BuildingBlock: QUQFOY_clean_sbu_1, # of connection points: 4
#     Node 4, Type 0, BuildingBlock: QUQFOY_clean_sbu_1, # of connection points: 4
#     Node 5, Type 0, BuildingBlock: QUQFOY_clean_sbu_1, # of connection points: 4
#     Node 6, Type 0, BuildingBlock: QUQFOY_clean_sbu_1, # of connection points: 4
#     Node 7, Type 0, BuildingBlock: QUQFOY_clean_sbu_1, # of connection points: 4
#     Node 8, Type 0, BuildingBlock: QUQFOY_clean_sbu_1, # of connection points: 4
#     Node 9, Type 0, BuildingBlock: QUQFOY_clean_sbu_1, # of connection points: 4
#     Node 10, Type 0, BuildingBlock: QUQFOY_clean_sbu_1, # of connection points: 4
#     Node 11, Type 0, BuildingBlock: QUQFOY_clean_sbu_1, # of connection points: 4
#     Node 12, Type 0, BuildingBlock: QUQFOY_clean_sbu_1, # of connection points: 4
#     Node 13, Type 0, BuildingBlock: QUQFOY_clean_sbu_1, # of connection points: 4
#     Node 14, Type 0, BuildingBlock: QUQFOY_clean_sbu_1, # of connection points: 4
#     Node 15, Type 0, BuildingBlock: QUQFOY_clean_sbu_1, # of connection points: 4
#     Edge 16, Type (0, 0), BuildingBlock: UVAHIK_clean_linker_0, # of connection points: 2
#     Edge 17, Type (0, 0), BuildingBlock: UVAHIK_clean_linker_0, # of connection points: 2
#     Edge 18, Type (0, 0), BuildingBlock: UVAHIK_clean_linker_0, # of connection points: 2
#     Edge 19, Type (0, 0), BuildingBlock: UVAHIK_clean_linker_0, # of connection points: 2
#     Edge 20, Type (0, 0), BuildingBlock: UVAHIK_clean_linker_0, # of connection points: 2
#     Edge 21, Type (0, 0), BuildingBlock: UVAHIK_clean_linker_0, # of connection points: 2
#     Edge 22, Type (0, 0), BuildingBlock: UVAHIK_clean_linker_0, # of connection points: 2
#     Edge 23, Type (0, 0), BuildingBlock: UVAHIK_clean_linker_0, # of connection points: 2
#     Edge 24, Type (0, 0), BuildingBlock: UVAHIK_clean_linker_0, # of connection points: 2
#     Edge 25, Type (0, 0), BuildingBlock: UVAHIK_clean_linker_0, # of connection points: 2
#     Edge 26, Type (0, 0), BuildingBlock: UVAHIK_clean_linker_0, # of connection points: 2
#     Edge 27, Type (0, 0), BuildingBlock: UVAHIK_clean_linker_0, # of connection points: 2
#     Edge 28, Type (0, 0), BuildingBlock: UVAHIK_clean_linker_0, # of connection points: 2
#     Edge 29, Type (0, 0), BuildingBlock: UVAHIK_clean_linker_0, # of connection points: 2
#     Edge 30, Type (0, 0), BuildingBlock: UVAHIK_clean_linker_0, # of connection points: 2
#     Edge 31, Type (0, 0), BuildingBlock: UVAHIK_clean_linker_0, # of connection points: 2
#     Edge 32, Type (0, 0), BuildingBlock: UVAHIK_clean_linker_0, # of connection points: 2
#     Edge 33, Type (0, 0), BuildingBlock: UVAHIK_clean_linker_0, # of connection points: 2
#     Edge 34, Type (0, 0), BuildingBlock: UVAHIK_clean_linker_0, # of connection points: 2
#     Edge 35, Type (0, 0), BuildingBlock: UVAHIK_clean_linker_0, # of connection points: 2
#     Edge 36, Type (0, 0), BuildingBlock: UVAHIK_clean_linker_0, # of connection points: 2
#     Edge 37, Type (0, 0), BuildingBlock: UVAHIK_clean_linker_0, # of connection points: 2
#     Edge 38, Type (0, 0), BuildingBlock: UVAHIK_clean_linker_0, # of connection points: 2
#     Edge 39, Type (0, 0), BuildingBlock: UVAHIK_clean_linker_0, # of connection points: 2
#     Edge 40, Type (0, 0), BuildingBlock: UVAHIK_clean_linker_0, # of connection points: 2
#     Edge 41, Type (0, 0), BuildingBlock: UVAHIK_clean_linker_0, # of connection points: 2
#     Edge 42, Type (0, 0), BuildingBlock: UVAHIK_clean_linker_0, # of connection points: 2
#     Edge 43, Type (0, 0), BuildingBlock: UVAHIK_clean_linker_0, # of connection points: 2
#     Edge 44, Type (0, 0), BuildingBlock: UVAHIK_clean_linker_0, # of connection points: 2
#     Edge 45, Type (0, 0), BuildingBlock: UVAHIK_clean_linker_0, # of connection points: 2
#     Edge 46, Type (0, 0), BuildingBlock: UVAHIK_clean_linker_0, # of connection points: 2
#     Edge 47, Type (0, 0), BuildingBlock: UVAHIK_clean_linker_0, # of connection points: 2
# Relax obj value: 0.094
# Max RMSD: 0.198
# Mean RMSD: 0.198
data_MOF--net-upc--node1-QUQFOY_clean_sbu_1--edge1-UVAHIK_clean_linker_0
_symmetry_space_group_name_H-M    P1
_symmetry_Int_Tables_number       1
_symmetry_cell_setting            triclinic
loop_
_symmetry_equiv_pos_as_xyz
'x, y, z'
_cell_length_a     46.569299
_cell_length_b     46.540401
_cell_length_c     57.143751
_cell_angle_alpha  89.887303
_cell_angle_beta   89.944789
_cell_angle_gamma 90.161863
loop_
_atom_site_label
_atom_site_type_symbol
_atom_site_fract_x
_atom_site_fract_y
_atom_site_fract_z
_atom_type_partial_charge
O0 O 0.05489 0.58106 0.1476 0.0
Cd1 Cd 0.04965 0.61558 0.12589 0.0
Cd2 Cd 0.10021 0.63107 0.14792 0.0
O3 O 0.09852 0.58923 0.16096 0.0
O4 O 0.019 0.60173 0.1047 0.0
O5 O 0.06315 0.61134 0.09264 0.0
C6 C 0.03773 0.60165 0.08811 0.0
C7 C 0.14361 0.65255 0.13664 0.0
C8 C 0.07643 0.57316 0.15955 0.0
C9 C 0.04618 0.6668 0.15578 0.0
O10 O 0.07191 0.66091 0.1614 0.0
O11 O 0.03298 0.65205 0.14055 0.0
O12 O 0.13795 0.64674 0.15821 0.0
O13 O 0.12524 0.64447 0.12104 0.0
O14 O 0.93142 0.06204 0.14468 0.0
Cd15 Cd 0.89777 0.05154 0.1234 0.0
Cd16 Cd 0.87727 0.10314 0.14432 0.0
O17 O 0.91889 0.10489 0.1575 0.0
O18 O 0.91448 0.01972 0.10491 0.0
O19 O 0.90152 0.06113 0.08916 0.0
C20 C 0.9132 0.03615 0.0868 0.0
C21 C 0.85253 0.1457 0.13581 0.0
C22 C 0.93705 0.08456 0.1563 0.0
C23 C 0.84611 0.04575 0.15296 0.0
O24 O 0.84944 0.07231 0.15734 0.0
O25 O 0.86265 0.03284 0.13887 0.0
O26 O 0.85893 0.13843 0.15691 0.0
O27 O 0.86181 0.12959 0.11907 0.0
O28 O 0.44147 0.95357 0.12926 0.0
Cd29 Cd 0.45285 0.92247 0.1058 0.0
Cd30 Cd 0.40071 0.89814 0.12762 0.0
O31 O 0.39973 0.93858 0.14314 0.0
O32 O 0.48451 0.94204 0.08853 0.0
O33 O 0.44379 0.92934 0.07167 0.0
C34 C 0.46846 0.94196 0.07021 0.0
C35 C 0.35789 0.87184 0.12275 0.0
C36 C 0.41963 0.95736 0.14219 0.0
C37 C 0.45978 0.86849 0.1328 0.0
O38 O 0.43321 0.87068 0.13749 0.0
O39 O 0.47232 0.88656 0.1196 0.0
O40 O 0.36795 0.87797 0.14308 0.0
O41 O 0.3711 0.88238 0.10479 0.0
O42 O 0.57353 0.45782 0.1486 0.0
Cd43 Cd 0.60777 0.46426 0.12682 0.0
Cd44 Cd 0.62543 0.41401 0.14843 0.0
O45 O 0.58458 0.41539 0.16319 0.0
O46 O 0.59317 0.49368 0.10483 0.0
O47 O 0.60467 0.44957 0.09391 0.0
C48 C 0.59426 0.47448 0.08866 0.0
C49 C 0.64585 0.36974 0.13848 0.0
C50 C 0.56732 0.43643 0.16146 0.0
C51 C 0.6601 0.46923 0.15534 0.0
O52 O 0.65577 0.44295 0.16034 0.0
O53 O 0.64368 0.48245 0.14132 0.0
O54 O 0.64137 0.37699 0.1599 0.0
O55 O 0.63738 0.38718 0.12231 0.0
O56 O 0.05189 0.94917 0.33403 0.0
Cd57 Cd 0.04281 0.91402 0.35421 0.0
Cd58 Cd 0.09486 0.8965 0.3336 0.0
O59 O 0.09509 0.93845 0.32087 0.0
O60 O 0.01143 0.92821 0.3745 0.0
O61 O 0.05391 0.9152 0.38817 0.0
C62 C 0.0287 0.92575 0.39197 0.0
C63 C 0.13788 0.87313 0.34283 0.0
C64 C 0.0742 0.9559 0.32244 0.0
C65 C 0.0391 0.86336 0.32362 0.0
O66 O 0.06565 0.86766 0.3198 0.0
O67 O 0.02521 0.87915 0.33765 0.0
O68 O 0.13121 0.87969 0.32164 0.0
O69 O 0.12093 0.88166 0.3593 0.0
O70 O 0.56694 0.04986 0.33055 0.0
Cd71 Cd 0.60116 0.04165 0.35188 0.0
Cd72 Cd 0.61935 0.09366 0.33113 0.0
O73 O 0.57759 0.09346 0.31799 0.0
O74 O 0.58612 0.01099 0.37269 0.0
O75 O 0.59877 0.05403 0.38551 0.0
C76 C 0.58798 0.02893 0.38975 0.0
C77 C 0.64293 0.13706 0.33954 0.0
C78 C 0.5604 0.07217 0.31893 0.0
C79 C 0.65266 0.03773 0.32233 0.0
O80 O 0.64827 0.06415 0.31801 0.0
O81 O 0.63669 0.02399 0.33644 0.0
O82 O 0.63636 0.1298 0.31849 0.0
O83 O 0.63428 0.12052 0.35631 0.0
O84 O 0.45374 0.60163 0.32979 0.0
Cd85 Cd 0.45592 0.63937 0.348 0.0
Cd86 Cd 0.40573 0.64856 0.32694 0.0
O87 O 0.40915 0.60556 0.31744 0.0
O88 O 0.48284 0.6312 0.37393 0.0
O89 O 0.43659 0.64011 0.37937 0.0
C90 C 0.46116 0.63269 0.38795 0.0
C91 C 0.36202 0.66796 0.33924 0.0
C92 C 0.43213 0.59104 0.31935 0.0
C93 C 0.45674 0.68621 0.31371 0.0
O94 O 0.43115 0.67819 0.3095 0.0
O95 O 0.47117 0.67442 0.3299 0.0
O96 O 0.36627 0.6603 0.31787 0.0
O97 O 0.38226 0.66313 0.35418 0.0
O98 O 0.93188 0.44459 0.33475 0.0
Cd99 Cd 0.89734 0.45176 0.356 0.0
Cd100 Cd 0.87884 0.40211 0.33203 0.0
O101 O 0.92045 0.40311 0.31862 0.0
O102 O 0.91244 0.48262 0.37644 0.0
O103 O 0.90022 0.43969 0.38979 0.0
C104 C 0.91094 0.46486 0.39368 0.0
C105 C 0.85607 0.35818 0.34013 0.0
C106 C 0.93812 0.42373 0.32144 0.0
C107 C 0.84628 0.45865 0.32587 0.0
O108 O 0.85014 0.43259 0.3201 0.0
O109 O 0.86229 0.47071 0.34087 0.0
O110 O 0.86188 0.3662 0.31907 0.0
O111 O 0.86464 0.37451 0.35701 0.0
O112 O 0.95271 0.4324 0.84109 0.0
Cd113 Cd 0.95969 0.39778 0.86234 0.0
Cd114 Cd 0.90735 0.38273 0.84412 0.0
O115 O 0.90761 0.42466 0.83129 0.0
O116 O 0.99145 0.41134 0.88256 0.0
O117 O 0.94787 0.40161 0.89597 0.0
C118 C 0.9735 0.41129 0.89973 0.0
C119 C 0.86607 0.36103 0.8594 0.0
C120 C 0.9299 0.44054 0.83096 0.0
C121 C 0.95986 0.34671 0.83228 0.0
O122 O 0.93376 0.35294 0.82829 0.0
O123 O 0.97465 0.36118 0.84671 0.0
O124 O 0.86819 0.36746 0.83753 0.0
O125 O 0.88676 0.36872 0.87311 0.0
O126 O 0.08102 0.93908 0.84048 0.0
Cd127 Cd 0.1154 0.94871 0.86123 0.0
Cd128 Cd 0.13466 0.89677 0.8398 0.0
O129 O 0.09277 0.89625 0.82717 0.0
O130 O 0.09982 0.9808 0.88006 0.0
O131 O 0.11217 0.93903 0.89549 0.0
C132 C 0.10106 0.96423 0.89808 0.0
C133 C 0.15741 0.85289 0.84764 0.0
C134 C 0.07488 0.91675 0.82879 0.0
C135 C 0.16684 0.95353 0.83112 0.0
O136 O 0.16314 0.927 0.82675 0.0
O137 O 0.15058 0.96667 0.8453 0.0
O138 O 0.15118 0.86087 0.82669 0.0
O139 O 0.14954 0.86937 0.86462 0.0
O140 O 0.58052 0.07663 0.82264 0.0
Cd141 Cd 0.57871 0.1163 0.83799 0.0
Cd142 Cd 0.63295 0.11632 0.82386 0.0
O143 O 0.62727 0.07259 0.81801 0.0
O144 O 0.54319 0.11341 0.85723 0.0
O145 O 0.58665 0.11729 0.87252 0.0
C146 C 0.55944 0.11311 0.87549 0.0
C147 C 0.66855 0.13728 0.84675 0.0
C148 C 0.60221 0.06169 0.81704 0.0
C149 C 0.59257 0.15704 0.79986 0.0
O150 O 0.61657 0.1441 0.79913 0.0
O151 O 0.57434 0.15102 0.81573 0.0
O152 O 0.67449 0.12607 0.82667 0.0
O153 O 0.64266 0.13451 0.85465 0.0
O154 O 0.43235 0.53538 0.83054 0.0
Cd155 Cd 0.39847 0.52982 0.8528 0.0
Cd156 Cd 0.38205 0.5807 0.83165 0.0
O157 O 0.42319 0.57896 0.81741 0.0
O158 O 0.41292 0.50062 0.87504 0.0
O159 O 0.40242 0.5452 0.88541 0.0
C160 C 0.41253 0.52025 0.89091 0.0
C161 C 0.36087 0.62481 0.84104 0.0
C162 C 0.4395 0.55709 0.81838 0.0
C163 C 0.34618 0.52605 0.82456 0.0
O164 O 0.35154 0.5521 0.81942 0.0
O165 O 0.3619 0.5124 0.83883 0.0
O166 O 0.36608 0.61751 0.81975 0.0
O167 O 0.36952 0.60777 0.85744 0.0
O168 O 0.9401 0.05441 0.65834 0.0
Cd169 Cd 0.94454 0.09069 0.63843 0.0
Cd170 Cd 0.89389 0.10368 0.66217 0.0
O171 O 0.89737 0.06151 0.67386 0.0
O172 O 0.97584 0.07956 0.61681 0.0
O173 O 0.93172 0.08906 0.60484 0.0
C174 C 0.95749 0.08072 0.6 0.0
C175 C 0.84935 0.12304 0.65205 0.0
C176 C 0.91931 0.04572 0.67087 0.0
C177 C 0.94702 0.14071 0.6702 0.0
O178 O 0.9214 0.13422 0.67583 0.0
O179 O 0.96037 0.1266 0.65468 0.0
O180 O 0.85559 0.11669 0.67339 0.0
O181 O 0.86796 0.11692 0.63603 0.0
O182 O 0.44307 0.94006 0.65388 0.0
Cd183 Cd 0.40931 0.9504 0.63265 0.0
Cd184 Cd 0.38778 0.89946 0.6539 0.0
O185 O 0.42885 0.89837 0.6683 0.0
O186 O 0.42602 0.98104 0.61264 0.0
O187 O 0.41153 0.93913 0.59872 0.0
C188 C 0.42349 0.96384 0.59514 0.0
C189 C 0.36402 0.85632 0.64501 0.0
C190 C 0.44771 0.91809 0.6665 0.0
C191 C 0.35702 0.95691 0.66151 0.0
O192 O 0.35945 0.93023 0.66579 0.0
O193 O 0.37456 0.96972 0.64806 0.0
O194 O 0.36943 0.86383 0.66622 0.0
O195 O 0.37349 0.87271 0.62843 0.0
O196 O 0.5451 0.42151 0.62561 0.0
Cd197 Cd 0.5235 0.40142 0.59812 0.0
Cd198 Cd 0.59129 0.36791 0.62246 0.0
O199 O 0.58626 0.40565 0.64131 0.0
O200 O 0.49176 0.42589 0.5864 0.0
O201 O 0.53215 0.41759 0.56674 0.0
C202 C 0.5078 0.43082 0.56833 0.0
C203 C 0.62743 0.3346 0.62779 0.0
C204 C 0.5658 0.42392 0.64019 0.0
C205 C 0.5369 0.34626 0.60569 0.0
O206 O 0.55905 0.36026 0.59963 0.0
O207 O 0.51313 0.35855 0.60223 0.0
O208 O 0.60451 0.33397 0.6406 0.0
O209 O 0.63011 0.35498 0.61246 0.0
O210 O 0.06695 0.55627 0.65002 0.0
Cd211 Cd 0.10071 0.54684 0.62851 0.0
Cd212 Cd 0.12159 0.59709 0.65099 0.0
O213 O 0.0801 0.59813 0.6646 0.0
O214 O 0.08411 0.51595 0.60887 0.0
O215 O 0.09775 0.55799 0.59454 0.0
C216 C 0.08608 0.53311 0.59126 0.0
C217 C 0.14664 0.63983 0.64313 0.0
C218 C 0.06168 0.57802 0.66265 0.0
C219 C 0.15218 0.53938 0.65796 0.0
O220 O 0.14925 0.56576 0.66309 0.0
O221 O 0.13544 0.52722 0.64356 0.0
O222 O 0.14026 0.63202 0.66412 0.0
O223 O 0.13709 0.62422 0.62615 0.0
C224 C 0.17284 0.6817 0.10798 0.0
C225 C 0.16907 0.67031 0.1306 0.0
C226 C 0.19486 0.70158 0.10342 0.0
C227 C 0.26232 0.73185 0.12886 0.0
H228 H 0.24291 0.80002 0.0931 0.0
C229 C 0.32306 0.83738 0.14063 0.0
C230 C 0.33391 0.85097 0.12046 0.0
C231 C 0.30341 0.81484 0.13884 0.0
C232 C 0.24872 0.78094 0.10288 0.0
H233 H 0.18614 0.67011 0.16591 0.0
H234 H 0.22395 0.70465 0.15813 0.0
H235 H 0.20888 0.75985 0.09511 0.0
H236 H 0.33147 0.85234 0.08258 0.0
H237 H 0.29628 0.81305 0.07953 0.0
H238 H 0.30154 0.75343 0.13746 0.0
C239 C 0.21032 0.69813 0.14374 0.0
C240 C 0.22932 0.75786 0.10397 0.0
C241 C 0.18843 0.67836 0.14826 0.0
C242 C 0.32351 0.84234 0.09844 0.0
C243 C 0.30343 0.81987 0.09668 0.0
C244 C 0.28147 0.75495 0.12798 0.0
C245 C 0.21361 0.71039 0.12137 0.0
C246 C 0.23559 0.7333 0.11748 0.0
C247 C 0.29381 0.80544 0.11688 0.0
C248 C 0.2746 0.77999 0.11545 0.0
H249 H 0.15823 0.67599 0.09399 0.0
H250 H 0.19697 0.71033 0.08593 0.0
H251 H 0.26824 0.71304 0.13893 0.0
H252 H 0.33048 0.84347 0.15789 0.0
H253 H 0.29598 0.80444 0.15472 0.0
C254 C 0.81979 0.1838 0.1507 0.0
C255 C 0.83275 0.17005 0.13154 0.0
C256 C 0.79823 0.20406 0.14728 0.0
C257 C 0.7674 0.25644 0.10814 0.0
H258 H 0.69799 0.24212 0.14397 0.0
C259 C 0.67286 0.33784 0.11054 0.0
C260 C 0.66217 0.34327 0.13313 0.0
C261 C 0.69124 0.31451 0.10654 0.0
C262 C 0.71722 0.24655 0.1339 0.0
H263 H 0.83413 0.16792 0.09364 0.0
H264 H 0.79659 0.20428 0.08767 0.0
H265 H 0.73649 0.20681 0.14422 0.0
H266 H 0.66158 0.32789 0.169 0.0
H267 H 0.69349 0.28782 0.16216 0.0
H268 H 0.74873 0.29693 0.09878 0.0
C269 C 0.80311 0.19886 0.10532 0.0
C270 C 0.7392 0.22626 0.13399 0.0
C271 C 0.82456 0.17813 0.10875 0.0
C272 C 0.66936 0.32434 0.15137 0.0
C273 C 0.68758 0.30115 0.14739 0.0
C274 C 0.74544 0.27701 0.10825 0.0
C275 C 0.78928 0.2114 0.12462 0.0
C276 C 0.76479 0.23134 0.12165 0.0
C277 C 0.69911 0.29611 0.12502 0.0
C278 C 0.72044 0.27265 0.12172 0.0
H279 H 0.82556 0.17821 0.16849 0.0
H280 H 0.78819 0.21376 0.16244 0.0
H281 H 0.78697 0.26082 0.0985 0.0
H282 H 0.66777 0.35209 0.09614 0.0
H283 H 0.69955 0.31109 0.08906 0.0
C284 C 0.17061 0.84632 0.3704 0.0
C285 C 0.16245 0.85377 0.34747 0.0
C286 C 0.19155 0.82518 0.37424 0.0
C287 C 0.21803 0.76001 0.3483 0.0
H288 H 0.29184 0.77276 0.37786 0.0
C289 C 0.31446 0.68873 0.32865 0.0
C290 C 0.33573 0.68401 0.34562 0.0
C291 C 0.29141 0.70693 0.3332 0.0
C292 C 0.27108 0.76857 0.37004 0.0
H293 H 0.17059 0.84552 0.31066 0.0
H294 H 0.20639 0.80852 0.31744 0.0
H295 H 0.25567 0.81091 0.3782 0.0
H296 H 0.34878 0.69381 0.38114 0.0
H297 H 0.30801 0.72539 0.3893 0.0
H298 H 0.23303 0.71794 0.33995 0.0
C299 C 0.1967 0.81904 0.33239 0.0
C300 C 0.25048 0.79048 0.37019 0.0
C301 C 0.17629 0.84036 0.32855 0.0
C302 C 0.33273 0.697 0.36769 0.0
C303 C 0.30951 0.71528 0.37229 0.0
C304 C 0.23835 0.73804 0.34843 0.0
C305 C 0.20415 0.81089 0.35521 0.0
C306 C 0.22419 0.78664 0.35862 0.0
C307 C 0.28881 0.72085 0.35492 0.0
C308 C 0.26556 0.74237 0.35853 0.0
H309 H 0.16032 0.85625 0.38533 0.0
H310 H 0.19708 0.81922 0.392 0.0
H311 H 0.19771 0.75647 0.33952 0.0
H312 H 0.31609 0.67915 0.31144 0.0
H313 H 0.27627 0.711 0.31922 0.0
C314 C 0.82955 0.31533 0.32521 0.0
C315 C 0.83817 0.33226 0.34429 0.0
C316 C 0.81013 0.29277 0.32823 0.0
C317 C 0.75246 0.26707 0.36749 0.0
H318 H 0.75742 0.19985 0.32772 0.0
C319 C 0.67185 0.16903 0.36632 0.0
C320 C 0.66243 0.16178 0.34368 0.0
C321 C 0.69343 0.1898 0.36947 0.0
C322 C 0.75577 0.2185 0.33896 0.0
H323 H 0.83371 0.33816 0.38174 0.0
H324 H 0.79996 0.29818 0.38714 0.0
H325 H 0.79687 0.23427 0.32831 0.0
H326 H 0.66742 0.17167 0.30674 0.0
H327 H 0.705 0.20733 0.31228 0.0
H328 H 0.71112 0.25085 0.37806 0.0
C329 C 0.80801 0.30273 0.36974 0.0
C330 C 0.77831 0.2383 0.33926 0.0
C331 C 0.82754 0.32547 0.36668 0.0
C332 C 0.67417 0.17657 0.32442 0.0
C333 C 0.69586 0.19691 0.32755 0.0
C334 C 0.72995 0.24696 0.3674 0.0
C335 C 0.79882 0.28631 0.35046 0.0
C336 C 0.77661 0.26333 0.35294 0.0
C337 C 0.70617 0.20328 0.35001 0.0
C338 C 0.73109 0.22295 0.35258 0.0
H339 H 0.83718 0.31999 0.30769 0.0
H340 H 0.80323 0.28103 0.31288 0.0
H341 H 0.7503 0.28615 0.37815 0.0
H342 H 0.66325 0.15802 0.38151 0.0
H343 H 0.701 0.19442 0.38699 0.0
C344 C 0.84539 0.32498 0.88749 0.0
C345 C 0.84218 0.34253 0.86761 0.0
C346 C 0.82519 0.30344 0.89249 0.0
C347 C 0.79332 0.24652 0.88393 0.0
H348 H 0.71145 0.25588 0.8744 0.0
C349 C 0.71836 0.15698 0.8507 0.0
C350 C 0.6898 0.15597 0.85864 0.0
C351 C 0.73708 0.17845 0.85851 0.0
C352 C 0.73418 0.25289 0.87753 0.0
H353 H 0.81439 0.35256 0.83832 0.0
H354 H 0.77901 0.3155 0.84725 0.0
H355 H 0.74246 0.29819 0.87613 0.0
H356 H 0.65904 0.17563 0.88216 0.0
H357 H 0.69176 0.21325 0.89569 0.0
H358 H 0.78517 0.20115 0.88436 0.0
C359 C 0.79712 0.31819 0.85894 0.0
C360 C 0.75196 0.27714 0.87833 0.0
C361 C 0.81747 0.33938 0.85376 0.0
C362 C 0.68091 0.1758 0.8757 0.0
C363 C 0.69957 0.19748 0.88333 0.0
C364 C 0.77556 0.22224 0.88291 0.0
C365 C 0.80118 0.2994 0.87793 0.0
C366 C 0.78182 0.27419 0.88094 0.0
C367 C 0.7276 0.19955 0.87428 0.0
C368 C 0.74588 0.22513 0.87912 0.0
H369 H 0.8643 0.32679 0.89842 0.0
H370 H 0.82876 0.28939 0.90733 0.0
H371 H 0.81626 0.24352 0.88578 0.0
H372 H 0.7259 0.14201 0.83759 0.0
H373 H 0.75845 0.17952 0.85106 0.0
C374 C 0.33087 0.66571 0.82719 0.0
C375 C 0.34279 0.65026 0.84597 0.0
C376 C 0.31029 0.68684 0.83115 0.0
C377 C 0.28031 0.73789 0.87195 0.0
H378 H 0.21082 0.72704 0.83559 0.0
C379 C 0.18593 0.81978 0.87368 0.0
C380 C 0.17472 0.82664 0.85152 0.0
C381 C 0.20466 0.79643 0.87639 0.0
C382 C 0.2301 0.73053 0.84579 0.0
H383 H 0.34358 0.64611 0.88378 0.0
H384 H 0.30778 0.68389 0.8907 0.0
H385 H 0.24876 0.69123 0.83386 0.0
H386 H 0.17384 0.81395 0.81501 0.0
H387 H 0.20638 0.77393 0.81962 0.0
H388 H 0.26218 0.77795 0.88302 0.0
C389 C 0.31433 0.67917 0.87293 0.0
C390 C 0.25177 0.70995 0.84485 0.0
C391 C 0.3348 0.65762 0.86895 0.0
C392 C 0.18196 0.80926 0.83235 0.0
C393 C 0.20056 0.78609 0.83504 0.0
C394 C 0.25867 0.75879 0.87269 0.0
C395 C 0.30132 0.69332 0.85397 0.0
C396 C 0.27736 0.71375 0.85744 0.0
C397 C 0.2124 0.77947 0.85702 0.0
C398 C 0.23363 0.75569 0.85908 0.0
H399 H 0.33657 0.66075 0.80927 0.0
H400 H 0.30089 0.69776 0.81626 0.0
H401 H 0.29987 0.74126 0.88182 0.0
H402 H 0.18081 0.83282 0.88878 0.0
H403 H 0.21321 0.79178 0.8936 0.0
C404 C 0.67209 0.31006 0.61378 0.0
C405 C 0.6495 0.31194 0.63004 0.0
C406 C 0.69222 0.28789 0.61531 0.0
C407 C 0.72404 0.23683 0.65676 0.0
H408 H 0.74743 0.19548 0.60107 0.0
C409 C 0.80096 0.14116 0.66358 0.0
C410 C 0.82289 0.13932 0.64676 0.0
C411 C 0.77793 0.15991 0.66039 0.0
C412 C 0.74137 0.20698 0.61676 0.0
H413 H 0.63046 0.29213 0.66076 0.0
H414 H 0.66574 0.25358 0.66354 0.0
H415 H 0.71157 0.23351 0.59807 0.0
H416 H 0.83729 0.15484 0.61294 0.0
H417 H 0.79741 0.18811 0.60756 0.0
H418 H 0.75421 0.21106 0.67542 0.0
C419 C 0.66789 0.26929 0.64963 0.0
C420 C 0.72079 0.22875 0.61503 0.0
C421 C 0.64763 0.29132 0.64799 0.0
C422 C 0.82062 0.15566 0.62615 0.0
C423 C 0.79769 0.17472 0.62307 0.0
C424 C 0.74476 0.21528 0.65846 0.0
C425 C 0.69034 0.26726 0.63325 0.0
C426 C 0.71192 0.24391 0.63502 0.0
C427 C 0.77642 0.17761 0.64045 0.0
C428 C 0.75371 0.20002 0.6385 0.0
H429 H 0.67409 0.32555 0.5997 0.0
H430 H 0.70946 0.28708 0.60259 0.0
H431 H 0.71797 0.24841 0.67242 0.0
H432 H 0.80197 0.12864 0.67956 0.0
H433 H 0.76158 0.16093 0.67385 0.0
C434 C 0.17924 0.67791 0.65855 0.0
C435 C 0.16677 0.66411 0.63918 0.0
C436 C 0.20135 0.69783 0.65551 0.0
C437 C 0.23581 0.74849 0.61621 0.0
H438 H 0.30301 0.733 0.65422 0.0
C439 C 0.33495 0.82506 0.61785 0.0
C440 C 0.34567 0.83089 0.64036 0.0
C441 C 0.31501 0.80279 0.61439 0.0
C442 C 0.2844 0.73779 0.64357 0.0
H443 H 0.16675 0.66166 0.60128 0.0
H444 H 0.20529 0.69731 0.59597 0.0
H445 H 0.26292 0.69933 0.6545 0.0
H446 H 0.34444 0.8174 0.67671 0.0
H447 H 0.30985 0.77921 0.67081 0.0
H448 H 0.25679 0.78768 0.60611 0.0
C449 C 0.19795 0.69225 0.61349 0.0
C450 C 0.26148 0.71842 0.64369 0.0
C451 C 0.17592 0.67191 0.61655 0.0
C452 C 0.33674 0.81348 0.65912 0.0
C453 C 0.31695 0.79136 0.65569 0.0
C454 C 0.25871 0.76814 0.6163 0.0
C455 C 0.21138 0.70473 0.63302 0.0
C456 C 0.23668 0.7239 0.63048 0.0
C457 C 0.30555 0.78587 0.63336 0.0
C458 C 0.28296 0.76337 0.63049 0.0
H459 H 0.1727 0.67258 0.67623 0.0
H460 H 0.21102 0.70749 0.67084 0.0
H461 H 0.2169 0.75317 0.60588 0.0
H462 H 0.34134 0.83816 0.60304 0.0
H463 H 0.30686 0.79898 0.59693 0.0
C464 C 0.98319 0.44941 0.31048 0.0
C465 C 0.96506 0.42549 0.30764 0.0
C466 C 0.00576 0.45451 0.29503 0.0
C467 C 0.05435 0.46351 0.2619 0.0
H468 H 0.03159 0.44933 0.19784 0.0
C469 C 0.09607 0.53684 0.18827 0.0
C470 C 0.0743 0.5459 0.17293 0.0
C471 C 0.0918 0.51285 0.2028 0.0
C472 C 0.03829 0.45363 0.21564 0.0
H473 H 0.9583 0.38654 0.28763 0.0
H474 H 0.99857 0.39486 0.26098 0.0
H475 H 0.00734 0.4242 0.22922 0.0
H476 H 0.03168 0.5357 0.15987 0.0
H477 H 0.02384 0.49544 0.18541 0.0
H478 H 0.08288 0.49547 0.24845 0.0
C479 C 0.99463 0.41032 0.27472 0.0
C480 C 0.02466 0.43869 0.23376 0.0
C481 C 0.97163 0.40539 0.29012 0.0
C482 C 0.04893 0.52957 0.17154 0.0
C483 C 0.04456 0.50598 0.18612 0.0
C484 C 0.06736 0.47911 0.24382 0.0
C485 C 0.01129 0.4356 0.27639 0.0
C486 C 0.03129 0.44472 0.25726 0.0
C487 C 0.06558 0.49759 0.2024 0.0
C488 C 0.05822 0.47561 0.22054 0.0
H489 H 0.97904 0.46526 0.32391 0.0
H490 H 0.01753 0.47444 0.29694 0.0
H491 H 0.06107 0.46781 0.27969 0.0
H492 H 0.11599 0.54879 0.1896 0.0
H493 H 0.10872 0.50681 0.2148 0.0
C494 C 0.97064 0.10826 0.18512 0.0
C495 C 0.96415 0.0855 0.16987 0.0
C496 C 0.99426 0.10645 0.20027 0.0
C497 C 0.05591 0.0574 0.21648 0.0
H498 H 0.03453 0.0795 0.27934 0.0
C499 C 0.04991 1.0012 0.31046 0.0
C500 C 0.07406 0.98326 0.3091 0.0
C501 C 0.04665 0.02419 0.29512 0.0
C502 C 0.04084 0.07299 0.2619 0.0
H503 H 0.97877 0.04401 0.15734 0.0
H504 H 0.01832 0.04019 0.18398 0.0
H505 H 0.00923 0.10003 0.24644 0.0
H506 H 0.11524 0.97732 0.29211 0.0
H507 H 0.11008 0.01832 0.26569 0.0
H508 H 0.08487 0.0276 0.23197 0.0
C509 C 0.00604 0.0599 0.18421 0.0
C510 C 0.02661 0.08529 0.24286 0.0
C511 C 0.98284 0.06188 0.16899 0.0
C512 C 0.09616 0.99048 0.29337 0.0
C513 C 0.09307 0.01391 0.27811 0.0
C514 C 0.06941 0.04434 0.23554 0.0
C515 C 0.01166 0.08168 0.20064 0.0
C516 C 0.0326 0.07616 0.21992 0.0
C517 C 0.06765 0.03035 0.27809 0.0
C518 C 0.06063 0.05053 0.25854 0.0
H519 H 0.95686 0.12696 0.18602 0.0
H520 H 0.99818 0.12398 0.21227 0.0
H521 H 0.06223 0.05091 0.19905 0.0
H522 H 0.03254 0.99656 0.32253 0.0
H523 H 0.02654 0.03574 0.2957 0.0
C524 C 0.51735 0.04631 0.3038 0.0
C525 C 0.53355 0.07178 0.30499 0.0
C526 C 0.49433 0.04388 0.28843 0.0
C527 C 0.4689 0.07504 0.23272 0.0
H528 H 0.41491 0.01219 0.24004 0.0
C529 C 0.44276 1.00194 0.15731 0.0
C530 C 0.41965 0.9825 0.15813 0.0
C531 C 0.44672 0.02215 0.17494 0.0
C532 C 0.42914 0.03037 0.23757 0.0
H533 H 0.53672 0.11555 0.29219 0.0
H534 H 0.49561 0.1117 0.26578 0.0
H535 H 0.43864 0.03165 0.27407 0.0
H536 H 0.38069 0.97124 0.17684 0.0
H537 H 0.38688 0.00749 0.2073 0.0
H538 H 0.45854 0.07454 0.19635 0.0
C539 C 0.50138 0.0932 0.27625 0.0
C540 C 0.44332 0.04122 0.2572 0.0
C541 C 0.52488 0.0955 0.2915 0.0
C542 C 0.39897 0.98563 0.17587 0.0
C543 C 0.40271 0.0063 0.19346 0.0
C544 C 0.45399 0.06485 0.21319 0.0
C545 C 0.48633 0.067 0.27396 0.0
C546 C 0.46503 0.06215 0.25479 0.0
C547 C 0.42739 0.02396 0.19383 0.0
C548 C 0.43559 0.04087 0.21505 0.0
H549 H 0.52326 0.02756 0.31394 0.0
H550 H 0.48398 0.0231 0.28705 0.0
H551 H 0.48504 0.09148 0.22998 0.0
H552 H 0.459 1.00047 0.14377 0.0
H553 H 0.46621 0.03483 0.17443 0.0
C554 C 0.53582 0.41818 0.19421 0.0
C555 C 0.54096 0.43782 0.17595 0.0
C556 C 0.51355 0.423 0.21027 0.0
C557 C 0.45279 0.47405 0.22353 0.0
H558 H 0.48111 0.4664 0.28689 0.0
C559 C 0.46141 0.54814 0.30895 0.0
C560 C 0.43498 0.56257 0.308 0.0
C561 C 0.46601 0.52343 0.29581 0.0
C562 C 0.47281 0.46877 0.2693 0.0
H563 H 0.5251 0.47642 0.159 0.0
H564 H 0.4876 0.48534 0.18699 0.0
H565 H 0.50417 0.44 0.25567 0.0
H566 H 0.3918 0.56094 0.2939 0.0
H567 H 0.39959 0.51711 0.27126 0.0
H568 H 0.42364 0.50536 0.23672 0.0
C569 C 0.50009 0.46592 0.18905 0.0
C570 C 0.48577 0.45313 0.25134 0.0
C571 C 0.52204 0.461 0.17302 0.0
C572 C 0.41254 0.55051 0.2948 0.0
C573 C 0.41707 0.52545 0.28174 0.0
C574 C 0.44031 0.49025 0.24139 0.0
C575 C 0.49613 0.44762 0.20841 0.0
C576 C 0.47707 0.45693 0.22798 0.0
C577 C 0.4442 0.5121 0.28148 0.0
C578 C 0.45136 0.48912 0.26427 0.0
H579 H 0.54982 0.39991 0.19681 0.0
H580 H 0.51081 0.40809 0.22466 0.0
H581 H 0.44469 0.47665 0.20589 0.0
H582 H 0.47918 0.55666 0.31903 0.0
H583 H 0.48737 0.51432 0.29589 0.0
C584 C 0.02914 0.59955 0.69328 0.0
C585 C 0.03495 0.57796 0.67679 0.0
C586 C 0.00632 0.59638 0.70913 0.0
C587 C 0.97678 0.57188 0.7519 0.0
H588 H 0.91789 0.51447 0.74112 0.0
C589 C 0.95574 0.48459 0.81775 0.0
C590 C 0.93068 0.46773 0.8174 0.0
C591 C 0.95902 0.50775 0.80256 0.0
C592 C 0.93359 0.53108 0.74466 0.0
H593 H 0.01979 0.53733 0.66277 0.0
H594 H 0.98164 0.53116 0.69057 0.0
H595 H 0.93876 0.53978 0.70821 0.0
H596 H 0.88828 0.46362 0.80214 0.0
H597 H 0.89365 0.50484 0.77584 0.0
H598 H 0.97097 0.56384 0.78838 0.0
C599 C 0.99385 0.55095 0.6913 0.0
C600 C 0.94606 0.5453 0.72561 0.0
C601 C 0.01623 0.5543 0.67538 0.0
C602 C 0.908 0.47598 0.80266 0.0
C603 C 0.91119 0.49953 0.78748 0.0
C604 C 0.96366 0.55836 0.77097 0.0
C605 C 0.9891 0.57139 0.709 0.0
C606 C 0.96944 0.56415 0.72887 0.0
C607 C 0.93719 0.51513 0.78667 0.0
C608 C 0.94358 0.5361 0.76752 0.0
H609 H 0.04292 0.61826 0.69463 0.0
H610 H 1.00297 0.61299 0.72208 0.0
H611 H 0.99434 0.58653 0.75539 0.0
H612 H 0.97361 0.4791 0.82902 0.0
H613 H 0.9796 0.51861 0.80239 0.0
C614 C 0.02854 0.93953 0.8176 0.0
C615 C 0.04731 0.91606 0.81586 0.0
C616 C 0.00452 0.94152 0.80325 0.0
C617 C 0.95213 0.94294 0.7736 0.0
H618 H 0.97002 0.92386 0.70935 0.0
C619 C 0.90197 0.00887 0.7001 0.0
C620 C 0.92242 0.01813 0.68361 0.0
C621 C 0.90778 0.98534 0.71471 0.0
C622 C 0.96463 0.92945 0.7272 0.0
H623 H 0.05416 0.87499 0.79895 0.0
H624 H 0.01152 0.87807 0.7741 0.0
H625 H 0.9985 0.90346 0.7406 0.0
H626 H 0.96387 0.00837 0.66816 0.0
H627 H 0.97446 0.96893 0.69384 0.0
H628 H 0.92066 0.97167 0.76014 0.0
C629 C 0.01591 0.89539 0.7862 0.0
C630 C 0.98073 0.91725 0.74527 0.0
C631 C 0.0403 0.89353 0.80052 0.0
C632 C 0.94771 1.00211 0.68084 0.0
C633 C 0.95364 0.97899 0.69551 0.0
C634 C 0.93662 0.95582 0.75551 0.0
C635 C 0.99821 0.91991 0.78685 0.0
C636 C 0.97589 0.92533 0.76864 0.0
C637 C 0.93427 0.97085 0.71326 0.0
C638 C 0.94396 0.95067 0.732 0.0
H639 H 0.03305 0.95724 0.82934 0.0
H640 H 0.99199 0.96104 0.80415 0.0
H641 H 0.94686 0.94866 0.79145 0.0
H642 H 0.88208 0.02052 0.70246 0.0
H643 H 0.892 0.97934 0.72776 0.0
C644 C 0.61818 0.0179 0.7946 0.0
C645 C 0.59722 0.03242 0.8077 0.0
C646 C 0.61104 0.99273 0.78239 0.0
C647 C 0.5496 0.94112 0.77197 0.0
H648 H 0.57525 0.94663 0.70766 0.0
C649 C 0.47833 0.89717 0.69867 0.0
C650 C 0.47446 0.91724 0.68053 0.0
C651 C 0.50152 0.89991 0.71418 0.0
C652 C 0.5678 0.9447 0.72555 0.0
H653 H 0.55316 0.03048 0.82005 0.0
H654 H 0.54058 0.98791 0.79854 0.0
H655 H 0.60069 0.97289 0.73778 0.0
H656 H 0.49328 0.9544 0.66329 0.0
H657 H 0.53248 0.95975 0.69032 0.0
H658 H 0.51474 0.91569 0.75937 0.0
C659 C 0.56264 0.99522 0.79767 0.0
C660 C 0.58279 0.95945 0.743 0.0
C661 C 0.56978 0.02008 0.80986 0.0
C662 C 0.49534 0.93871 0.67721 0.0
C663 C 0.51824 0.94155 0.69267 0.0
C664 C 0.53419 0.92697 0.75444 0.0
C665 C 0.5828 0.98171 0.78305 0.0
C666 C 0.57279 0.95931 0.76623 0.0
C667 C 0.52121 0.92282 0.71187 0.0
C668 C 0.54207 0.93007 0.7308 0.0
H669 H 0.6396 0.02674 0.79276 0.0
H670 H 0.6273 0.98264 0.77167 0.0
H671 H 0.54193 0.93952 0.78982 0.0
H672 H 0.46276 0.8802 0.70158 0.0
H673 H 0.50336 0.88474 0.72848 0.0
C674 C 0.54002 0.4655 0.6578 0.0
C675 C 0.5647 0.44822 0.65693 0.0
C676 C 0.53712 0.48672 0.67473 0.0
C677 C 0.56276 0.5043 0.73392 0.0
H678 H 0.50627 0.56433 0.72523 0.0
C679 C 0.48205 0.5299 0.80417 0.0
C680 C 0.46577 0.55526 0.80381 0.0
C681 C 0.5039 0.52548 0.78795 0.0
C682 C 0.52268 0.54832 0.72816 0.0
H683 H 0.60656 0.44102 0.67243 0.0
H684 H 0.60182 0.47885 0.70183 0.0
H685 H 0.52805 0.54209 0.69143 0.0
H686 H 0.46163 0.59715 0.78753 0.0
H687 H 0.50064 0.58988 0.75953 0.0
H688 H 0.55801 0.51108 0.77066 0.0
C689 C 0.58435 0.47539 0.68968 0.0
C690 C 0.53484 0.53508 0.70863 0.0
C691 C 0.58712 0.45375 0.67277 0.0
C692 C 0.4735 0.57718 0.78805 0.0
C693 C 0.49578 0.5729 0.7719 0.0
C694 C 0.55125 0.51814 0.75346 0.0
C695 C 0.55897 0.49174 0.69121 0.0
C696 C 0.55336 0.51144 0.71127 0.0
C697 C 0.51052 0.54649 0.77103 0.0
C698 C 0.52943 0.5388 0.75088 0.0
H699 H 0.52224 0.46198 0.64594 0.0
H700 H 0.51693 0.49815 0.67551 0.0
H701 H 0.57726 0.48651 0.73682 0.0
H702 H 0.47695 0.51258 0.81619 0.0
H703 H 0.51418 0.50466 0.78785 0.0
C704 C 1.00281 0.68613 0.17601 0.0
C705 C 0.03126 0.68989 0.16834 0.0
C706 C 0.99049 0.70591 0.19144 0.0
C707 C 0.99219 0.73611 0.24032 0.0
H708 H 0.99642 0.81891 0.23314 0.0
C709 C 0.03841 0.81476 0.30593 0.0
C710 C 0.02432 0.84077 0.31031 0.0
C711 C 0.02686 0.79506 0.29019 0.0
C712 C 0.99431 0.79587 0.23532 0.0
H713 H 0.06842 0.71794 0.16919 0.0
H714 H 0.04651 0.75305 0.19537 0.0
H715 H 0.99895 0.78812 0.19853 0.0
H716 H 0.98668 0.86634 0.3026 0.0
H717 H 0.96706 0.83219 0.27394 0.0
H718 H 0.99081 0.74378 0.27729 0.0
C719 C 0.03389 0.73474 0.18974 0.0
C720 C 0.99585 0.77832 0.21557 0.0
C721 C 0.04646 0.71463 0.17492 0.0
C722 C 0.99776 0.84625 0.29958 0.0
C723 C 0.98658 0.82684 0.28324 0.0
C724 C 0.99125 0.75364 0.26011 0.0
C725 C 0.00618 0.73009 0.19869 0.0
C726 C 0.99603 0.74833 0.21804 0.0
C727 C 1.00141 0.80139 0.27811 0.0
C728 C 0.99354 0.78359 0.25778 0.0
H729 H 0.9908 0.66704 0.17127 0.0
H730 H 0.96918 0.70185 0.19835 0.0
H731 H 0.99259 0.713 0.24262 0.0
H732 H 0.05892 0.81015 0.31404 0.0
H733 H 0.03888 0.77575 0.28626 0.0
C734 C 0.79786 0.04315 0.17137 0.0
C735 C 0.82388 0.02969 0.16583 0.0
C736 C 0.77851 0.03003 0.18667 0.0
C737 C 0.78022 0.9914 0.23929 0.0
H738 H 0.6973 0.99143 0.233 0.0
C739 C 0.67043 0.99582 0.29933 0.0
C740 C 0.6755 0.02287 0.30941 0.0
C741 C 0.68997 0.98448 0.28318 0.0
C742 C 0.72041 0.9905 0.23497 0.0
H743 H 0.84976 0.99159 0.171 0.0
H744 H 0.81622 0.9691 0.19883 0.0
H745 H 0.72749 0.99346 0.19796 0.0
H746 H 0.70561 0.05823 0.3122 0.0
H747 H 0.7402 0.03798 0.28475 0.0
H748 H 0.7731 0.99158 0.27637 0.0
C749 C 0.81062 0.98943 0.1908 0.0
C750 C 0.73762 0.99177 0.21497 0.0
C751 C 0.82968 1.00225 0.17494 0.0
C752 C 0.70129 0.03734 0.30461 0.0
C753 C 0.72112 0.02567 0.28905 0.0
C754 C 0.763 0.99069 0.25931 0.0
C755 C 0.78516 0.00355 0.19712 0.0
C756 C 0.7676 0.99352 0.21705 0.0
C757 C 0.71515 0.99969 0.27756 0.0
C758 C 0.73298 0.99153 0.25729 0.0
H759 H 0.79295 0.0643 0.16453 0.0
H760 H 0.75919 0.04151 0.19152 0.0
H761 H 0.8033 0.993 0.24132 0.0
H762 H 0.65052 0.98443 0.30267 0.0
H763 H 0.68489 0.96452 0.27437 0.0
C764 C 0.49854 0.70501 0.29076 0.0
C765 C 0.47003 0.70805 0.29845 0.0
C766 C 0.50948 0.72313 0.27329 0.0
C767 C 0.50086 0.79192 0.24381 0.0
H768 H 0.50992 0.75211 0.18467 0.0
C769 C 0.50144 0.85409 0.15747 0.0
C770 C 0.47631 0.84646 0.14539 0.0
C771 C 0.51247 0.83585 0.17477 0.0
C772 C 0.50823 0.76348 0.20114 0.0
H773 H 0.4312 0.73322 0.29514 0.0
H774 H 0.45071 0.76562 0.26537 0.0
H775 H 0.50718 0.72449 0.22119 0.0
H776 H 0.44458 0.81305 0.14008 0.0
H777 H 0.46444 0.78074 0.16954 0.0
H778 H 0.50025 0.83078 0.22374 0.0
C779 C 0.46442 0.74905 0.27258 0.0
C780 C 0.50673 0.74775 0.22198 0.0
C781 C 0.45324 0.73049 0.28949 0.0
C782 C 0.46405 0.81928 0.14914 0.0
C783 C 0.47548 0.80079 0.16593 0.0
C784 C 0.50294 0.80768 0.22305 0.0
C785 C 0.49232 0.74505 0.2639 0.0
C786 C 0.50172 0.7618 0.24331 0.0
C787 C 0.49893 0.80949 0.17967 0.0
C788 C 0.50529 0.79351 0.20145 0.0
H789 H 0.51178 0.68765 0.29729 0.0
H790 H 0.531 0.71961 0.26668 0.0
H791 H 0.49686 0.80313 0.26008 0.0
H792 H 0.51103 0.87512 0.15504 0.0
H793 H 0.5305 0.84302 0.18522 0.0
C794 C 0.70867 0.47081 0.17307 0.0
C795 C 0.68285 0.4848 0.16783 0.0
C796 C 0.72804 0.48302 0.18876 0.0
C797 C 0.72461 0.51792 0.24264 0.0
H798 H 0.80773 0.51557 0.23894 0.0
C799 C 0.83059 0.50351 0.30568 0.0
C800 C 0.82445 0.47544 0.31336 0.0
C801 C 0.81226 0.51724 0.28985 0.0
C802 C 0.78457 0.51717 0.24024 0.0
H803 H 0.65748 0.52307 0.17375 0.0
H804 H 0.691 0.5439 0.20226 0.0
H805 H 0.77936 0.51778 0.20297 0.0
H806 H 0.79359 0.4406 0.31222 0.0
H807 H 0.76104 0.46498 0.2853 0.0
H808 H 0.72976 0.51397 0.27979 0.0
C809 C 0.69648 0.5239 0.19369 0.0
C810 C 0.76841 0.51835 0.2197 0.0
C811 C 0.67742 0.51203 0.17743 0.0
C812 C 0.79873 0.46223 0.3065 0.0
C813 C 0.78007 0.47624 0.29126 0.0
C814 C 0.74076 0.51618 0.26316 0.0
C815 C 0.72155 0.50906 0.19992 0.0
C816 C 0.73831 0.51734 0.22074 0.0
C817 C 0.78719 0.50339 0.28216 0.0
C818 C 0.7708 0.51442 0.26201 0.0
H819 H 0.71324 0.44979 0.16586 0.0
H820 H 0.74705 0.47098 0.19353 0.0
H821 H 0.70141 0.51684 0.24386 0.0
H822 H 0.85047 0.51399 0.31063 0.0
H823 H 0.81822 0.53808 0.28286 0.0
C824 C 0.94594 0.18836 0.68963 0.0
C825 C 0.9616 0.16414 0.6827 0.0
C826 C 0.95864 0.20919 0.70375 0.0
C827 C 1.00172 0.21421 0.75272 0.0
H828 H 0.99852 0.29651 0.74218 0.0
C829 C 1.00014 0.32691 0.80848 0.0
C830 C 0.97311 0.32324 0.81902 0.0
C831 C 0.01035 0.30647 0.7926 0.0
C832 C 1.00036 0.27361 0.74526 0.0
H833 H 1.00288 0.14284 0.68439 0.0
H834 H 0.02474 0.17889 0.71033 0.0
H835 H 0.99489 0.26358 0.70891 0.0
H836 H 0.93647 0.29487 0.82278 0.0
H837 H 0.95483 0.25861 0.79582 0.0
H838 H 0.00378 0.22419 0.78931 0.0
C839 C 1.00297 0.18199 0.7042 0.0
C840 C 0.99821 0.25486 0.72629 0.0
C841 C 0.99049 0.1615 0.68945 0.0
C842 C 0.95737 0.29808 0.81481 0.0
C843 C 0.96793 0.27733 0.79956 0.0
C844 C 0.00324 0.23295 0.77174 0.0
C845 C 0.98695 0.20576 0.71164 0.0
C846 C 0.9977 0.22507 0.73004 0.0
C847 C 0.99404 0.28179 0.78779 0.0
C848 C 1.00137 0.26272 0.76816 0.0
H849 H 0.92366 0.19085 0.68457 0.0
H850 H 0.94581 0.22721 0.70958 0.0
H851 H 1.00104 0.19127 0.75597 0.0
H852 H 0.01248 0.34634 0.81139 0.0
H853 H 0.03039 0.31038 0.78347 0.0
C854 C 0.30808 0.96032 0.67845 0.0
C855 C 0.33477 0.97321 0.67397 0.0
C856 C 0.28879 0.97307 0.69389 0.0
C857 C 0.24896 0.00909 0.72441 0.0
H858 H 0.28549 0.00439 0.78528 0.0
C859 C 0.18363 0.99713 0.80945 0.0
C860 C 0.18909 0.96938 0.8181 0.0
C861 C 0.20262 0.00993 0.79352 0.0
C862 C 0.2751 0.00664 0.76842 0.0
H863 H 0.36183 0.01013 0.68098 0.0
H864 H 0.32837 0.03192 0.70904 0.0
H865 H 0.31507 0.0061 0.74993 0.0
H866 H 0.21938 0.93417 0.81848 0.0
H867 H 0.253 0.95691 0.79136 0.0
H868 H 0.20895 0.00754 0.74288 0.0
C869 C 0.3222 0.01235 0.7001 0.0
C870 C 0.29196 0.00774 0.74822 0.0
C871 C 0.34124 0.99993 0.6841 0.0
C872 C 0.21473 0.95555 0.812 0.0
C873 C 0.23401 0.96864 0.79664 0.0
C874 C 0.23209 0.00851 0.74463 0.0
C875 C 0.29617 0.99857 0.70556 0.0
C876 C 0.27898 0.00731 0.72605 0.0
C877 C 0.22767 0.99548 0.78667 0.0
C878 C 0.24506 0.00564 0.76669 0.0
H879 H 0.30266 0.93972 0.6708 0.0
H880 H 0.26903 0.96182 0.69804 0.0
H881 H 0.23852 0.00871 0.70748 0.0
H882 H 0.16385 0.00809 0.81381 0.0
H883 H 0.19725 0.03054 0.78588 0.0
C884 C 0.55692 0.18319 0.77497 0.0
C885 C 0.58555 0.17811 0.78138 0.0
C886 C 0.55053 0.20113 0.75602 0.0
C887 C 0.58485 0.23411 0.70328 0.0
H888 H 0.51484 0.27881 0.70213 0.0
C889 C 0.52934 0.33252 0.64723 0.0
C890 C 0.53907 0.32528 0.6248 0.0
C891 C 0.53395 0.31395 0.66606 0.0
C892 C 0.5347 0.26679 0.7022 0.0
H893 H 0.6299 0.18881 0.77375 0.0
H894 H 0.61884 0.22122 0.7416 0.0
H895 H 0.52592 0.2499 0.73625 0.0
H896 H 0.56071 0.29316 0.60406 0.0
H897 H 0.56738 0.25971 0.63663 0.0
H898 H 0.59446 0.2522 0.66985 0.0
C899 C 0.60124 0.21048 0.75043 0.0
C900 C 0.54084 0.24973 0.72172 0.0
C901 C 0.60762 0.1921 0.76904 0.0
C902 C 0.55288 0.29896 0.62127 0.0
C903 C 0.55699 0.28004 0.64002 0.0
C904 C 0.57897 0.25155 0.68396 0.0
C905 C 0.57264 0.21484 0.74333 0.0
C906 C 0.56602 0.23315 0.72256 0.0
C907 C 0.54795 0.28746 0.66278 0.0
C908 C 0.55382 0.2682 0.68313 0.0
H909 H 0.53948 0.17247 0.78405 0.0
H910 H 0.52828 0.20352 0.75096 0.0
H911 H 0.60417 0.22124 0.70295 0.0
H912 H 0.51912 0.35305 0.65035 0.0
H913 H 0.52726 0.32086 0.68329 0.0
C914 C 0.32703 0.48409 0.80236 0.0
C915 C 0.32272 0.51136 0.81223 0.0
C916 C 0.30707 0.47292 0.78647 0.0
C917 C 0.27673 0.47968 0.73834 0.0
H918 H 0.19393 0.48361 0.74493 0.0
C919 C 0.20041 0.53543 0.67614 0.0
C920 C 0.17412 0.52255 0.67034 0.0
C921 C 0.2195 0.52149 0.69105 0.0
C922 C 0.21696 0.48159 0.74283 0.0
H923 H 0.29352 0.5473 0.815 0.0
H924 H 0.25815 0.52734 0.78802 0.0
H925 H 0.22414 0.48117 0.77989 0.0
H926 H 0.14749 0.48464 0.67465 0.0
H927 H 0.18059 0.4607 0.70185 0.0
H928 H 0.26968 0.48336 0.70139 0.0
C929 C 0.27696 0.51472 0.79228 0.0
C930 C 0.23418 0.48029 0.7628 0.0
C931 C 0.29722 0.52622 0.80757 0.0
C932 C 0.16778 0.49487 0.67878 0.0
C933 C 0.1866 0.48122 0.69429 0.0
C934 C 0.25953 0.48155 0.7184 0.0
C935 C 0.28222 0.48853 0.78092 0.0
C936 C 0.26421 0.48066 0.7607 0.0
C937 C 0.21232 0.49475 0.70088 0.0
C938 C 0.22961 0.48384 0.72059 0.0
H939 H 0.34673 0.47241 0.80559 0.0
H940 H 0.31161 0.4528 0.77773 0.0
H941 H 0.29986 0.48027 0.73631 0.0
H942 H 0.20572 0.55676 0.6698 0.0
H943 H 0.23904 0.53252 0.69615 0.0
C944 C 0.05284 0.57988 0.05001 0.0
C945 C 0.03091 0.58755 0.06567 0.0
C946 C 0.04695 0.56169 0.03114 0.0
C947 C 0.98783 0.52968 -0.00374 0.0
H948 H 0.04107 0.46647 0.9884 0.0
C949 C 0.9599 0.43307 0.93815 0.0
C950 C 0.98124 0.42541 0.92196 0.0
C951 C 0.96641 0.45147 0.95673 0.0
C952 C 0.0261 0.48408 -0.0097 0.0
H953 H 0.98531 0.58382 0.07297 0.0
H954 H 0.97511 0.55221 0.04025 0.0
H955 H 0.0518 0.50432 0.01657 0.0
H956 H 0.02652 0.4293 0.91346 0.0
H957 H 0.03782 0.46124 0.94582 0.0
H958 H 0.96207 0.50938 0.97007 0.0
C959 C 0.99682 0.56017 0.04241 0.0
C960 C 0.03232 0.50586 0.00631 0.0
C961 C 1.00271 0.57824 0.06125 0.0
C962 C 0.00957 0.43488 0.92561 0.0
C963 C 0.01609 0.45314 0.9442 0.0
C964 C 0.98158 0.50788 0.98029 0.0
C965 C 0.01901 0.551 0.02756 0.0
C966 C 0.01322 0.52887 0.0095 0.0
C967 C 0.9944 0.46237 0.9595 0.0
C968 C 1.0006 0.48481 0.97719 0.0
H969 H 0.07479 0.58673 0.05295 0.0
H970 H 0.0644 0.55538 0.01973 0.0
H971 H 0.97283 0.54728 -0.00188 0.0
H972 H 0.93788 0.42609 0.93582 0.0
H973 H 0.94937 0.45782 0.96853 0.0
C974 C 0.08054 0.95258 0.9375 0.0
C975 C 0.08702 0.97295 0.9201 0.0
C976 C 0.0625 0.95981 0.95615 0.0
C977 C 0.00427 0.01023 0.96973 0.0
H978 H 0.01429 0.98319 0.03336 0.0
C979 C 0.93414 0.04792 0.04755 0.0
C980 C 0.9277 0.02754 0.06495 0.0
C981 C 0.95241 0.0408 0.02902 0.0
C982 C 0.01099 0.99058 0.01558 0.0
H983 H 0.08152 0.0174 0.9095 0.0
H984 H 0.05058 0.03007 0.94219 0.0
H985 H 0.0508 0.97254 0.00405 0.0
H986 H 0.93357 0.9832 0.07571 0.0
H987 H 0.96488 0.9707 0.04321 0.0
H988 H 0.96444 0.02823 0.98124 0.0
C989 C 0.05876 0.00835 0.94113 0.0
C990 C 0.03197 0.98455 -0.00116 0.0
C991 C 0.07669 1.00113 0.92251 0.0
C992 C 0.93837 0.99947 0.06269 0.0
C993 C 0.95651 0.99236 0.04418 0.0
C994 C 0.98328 0.01625 0.98646 0.0
C995 C 0.05072 0.98754 0.95772 0.0
C996 C 0.02885 0.99435 0.97574 0.0
C997 C 0.96445 0.01317 0.02755 0.0
C998 C 0.98639 0.00645 0.00957 0.0
H999 H 0.08811 0.93067 0.93607 0.0
H1000 H 0.05664 0.94328 0.96865 0.0
H1001 H 1.00098 0.01762 0.95194 0.0
H1002 H 0.92631 0.06975 0.04888 0.0
H1003 H 0.95819 0.05734 0.0165 0.0
C1004 C 0.45758 0.96455 0.0313 0.0
C1005 C 0.47738 0.95808 0.04907 0.0
C1006 C 0.46528 0.98295 0.0129 0.0
C1007 C 0.51797 0.04015 -0.00178 0.0
H1008 H 0.49268 0.0268 0.93457 0.0
C1009 C 0.5662 0.09754 0.91713 0.0
C1010 C 0.54772 0.10381 0.89838 0.0
C1011 C 0.55595 0.08289 0.93686 0.0
C1012 C 0.49955 0.0311 0.95233 0.0
H1013 H 0.52116 0.96473 0.06089 0.0
H1014 H 0.53473 0.99608 0.02861 0.0
H1015 H 0.47864 0.99331 0.96536 0.0
H1016 H 0.50352 0.10166 0.88648 0.0
H1017 H 0.48567 0.07648 0.92097 0.0
H1018 H 0.53934 0.07768 0.98503 0.0
C1019 C 0.51303 0.98766 0.02916 0.0
C1020 C 0.49153 0.01184 0.96998 0.0
C1021 C 0.50532 0.96944 0.04756 0.0
C1022 C 0.5184 0.09698 0.90053 0.0
C1023 C 0.50819 0.08232 0.92021 0.0
C1024 C 0.52609 0.05934 0.98054 0.0
C1025 C 0.49296 0.99515 0.01186 0.0
C1026 C 0.50083 0.01599 -0.00688 0.0
C1027 C 0.52703 0.07423 0.93822 0.0
C1028 C 0.5171 0.05495 0.95737 0.0
H1029 H 0.43584 0.95628 0.03205 0.0
H1030 H 0.44922 0.98837 -6e-05 0.0
H1031 H 0.52504 0.04435 0.01594 0.0
H1032 H 0.58891 0.10245 0.91601 0.0
H1033 H 0.57105 0.07693 0.95042 0.0
C1034 C 0.43306 0.53783 0.92875 0.0
C1035 C 0.42638 0.51493 0.91371 0.0
C1036 C 0.45075 0.53338 0.94816 0.0
C1037 C 0.50778 0.48465 0.96787 0.0
H1038 H 0.49677 0.52148 0.02795 0.0
C1039 C 0.57445 0.45749 0.0504 0.0
C1040 C 0.58088 0.48016 0.06573 0.0
C1041 C 0.55708 0.46224 0.03083 0.0
C1042 C 0.50036 0.51136 0.01115 0.0
H1043 H 0.43126 0.46909 0.90811 0.0
H1044 H 0.46162 0.46131 0.94215 0.0
H1045 H 0.4612 0.52816 -0.00284 0.0
H1046 H 0.57602 0.52593 0.07169 0.0
H1047 H 0.54626 0.53426 0.03739 0.0
H1048 H 0.54693 0.46784 0.98186 0.0
C1049 C 0.45383 0.4828 0.93863 0.0
C1050 C 0.47992 0.51512 -0.00643 0.0
C1051 C 0.43624 0.48723 0.91925 0.0
C1052 C 0.5712 0.50796 0.06033 0.0
C1053 C 0.55395 0.5127 0.04078 0.0
C1054 C 0.52823 0.4809 0.98545 0.0
C1055 C 0.462 0.50596 0.95288 0.0
C1056 C 0.48338 0.50174 0.97176 0.0
C1057 C 0.54595 0.48975 0.02625 0.0
C1058 C 0.52474 0.49422 0.00728 0.0
H1059 H 0.42585 0.55943 0.92488 0.0
H1060 H 0.45673 0.55168 0.9588 0.0
H1061 H 0.51132 0.4745 0.95107 0.0
H1062 H 0.58154 0.43583 0.05415 0.0
H1063 H 0.55123 0.4441 0.01998 0.0
C1064 C 0.04123 0.94219 0.43239 0.0
C1065 C 0.02048 0.93736 0.41503 0.0
C1066 C 0.03411 0.95733 0.45269 0.0
C1067 C 0.98159 0.01058 0.47352 0.0
H1068 H 0.0122 0.99184 0.5347 0.0
C1069 C 0.9442 0.06455 0.55963 0.0
C1070 C 0.96534 0.0699 0.5766 0.0
C1071 C 0.95118 0.04986 0.53908 0.0
C1072 C 0.00377 0.99755 0.51765 0.0
H1073 H 0.9756 0.94293 0.4059 0.0
H1074 H 0.96309 0.9687 0.44146 0.0
H1075 H 0.02326 0.96106 0.50145 0.0
H1076 H 0.0107 0.06584 0.58467 0.0
H1077 H 0.02285 0.04063 0.54877 0.0
H1078 H 0.96198 0.04701 0.4898 0.0
C1079 C 0.98502 0.96154 0.43916 0.0
C1080 C 0.01007 0.97988 0.49864 0.0
C1081 C 0.99216 0.94656 0.41888 0.0
C1082 C 0.99385 0.06179 0.57203 0.0
C1083 C 1.0008 0.04716 0.55155 0.0
C1084 C 0.97523 0.02822 0.49256 0.0
C1085 C 0.00608 0.96778 0.456 0.0
C1086 C 0.99905 0.98619 0.47636 0.0
C1087 C 0.97941 0.0403 0.53518 0.0
C1088 C 0.98632 0.02192 0.51481 0.0
H1089 H 0.06326 0.93546 0.42986 0.0
H1090 H 0.05086 0.9619 0.46529 0.0
H1091 H 0.9732 0.01634 0.45648 0.0
H1092 H 0.92204 0.0705 0.56269 0.0
H1093 H 0.93423 0.04482 0.52678 0.0
C1094 C 0.57191 0.04264 0.43008 0.0
C1095 C 0.57557 0.02155 0.41279 0.0
C1096 C 0.55635 0.03642 0.45043 0.0
C1097 C 0.52686 0.97655 0.48607 0.0
H1098 H 0.47019 0.03301 0.50464 0.0
C1099 C 0.43994 0.95074 0.55479 0.0
C1100 C 0.43636 0.97152 0.57234 0.0
C1101 C 0.45587 0.95715 0.53467 0.0
C1102 C 0.48604 0.01712 0.49976 0.0
H1103 H 0.5671 0.97704 0.40379 0.0
H1104 H 0.53999 0.96631 0.43908 0.0
H1105 H 0.50271 0.04359 0.47225 0.0
H1106 H 0.44538 0.0157 0.58205 0.0
H1107 H 0.47304 0.02679 0.54707 0.0
H1108 H 0.51012 0.95004 0.51354 0.0
C1109 C 0.54917 0.98758 0.43707 0.0
C1110 C 0.50477 0.02324 0.48131 0.0
C1111 C 0.56462 0.99379 0.41676 0.0
C1112 C 0.44779 0.99919 0.56887 0.0
C1113 C 0.46357 0.00561 0.54876 0.0
C1114 C 0.50811 0.97042 0.5045 0.0
C1115 C 0.54428 0.00899 0.45388 0.0
C1116 C 0.52537 1.003 0.47424 0.0
C1117 C 0.46834 0.98448 0.5317 0.0
C1118 C 0.48747 0.99062 0.51153 0.0
H1119 H 0.58012 0.06422 0.42754 0.0
H1120 H 0.55333 0.05323 0.46327 0.0
H1121 H 0.54271 0.96064 0.48121 0.0
H1122 H 0.43138 0.92924 0.55697 0.0
H1123 H 0.45883 0.94057 0.52162 0.0
C1124 C 0.47208 0.46522 0.55134 0.0
C1125 C 0.49961 0.45287 0.55094 0.0
C1126 C 0.46539 0.48812 0.53643 0.0
C1127 C 0.49941 0.54733 0.50455 0.0
H1128 H 0.43202 0.5461 0.4648 0.0
C1129 C 0.49092 0.61387 0.42075 0.0
C1130 C 0.4639 0.62226 0.4123 0.0
C1131 C 0.49322 0.59816 0.44146 0.0
C1132 C 0.45057 0.54721 0.47618 0.0
H1133 H 0.54149 0.45444 0.53431 0.0
H1134 H 0.52982 0.49447 0.50845 0.0
H1135 H 0.43963 0.5074 0.49296 0.0
H1136 H 0.41829 0.62287 0.41994 0.0
H1137 H 0.42237 0.59586 0.4565 0.0
H1138 H 0.51058 0.58693 0.4878 0.0
C1139 C 0.51351 0.48652 0.52036 0.0
C1140 C 0.45499 0.52491 0.49219 0.0
C1141 C 0.52007 0.46343 0.53501 0.0
C1142 C 0.43941 0.6166 0.42596 0.0
C1143 C 0.44172 0.60087 0.44678 0.0
C1144 C 0.49485 0.56977 0.48876 0.0
C1145 C 0.48624 0.49932 0.52114 0.0
C1146 C 0.47987 0.52436 0.50602 0.0
C1147 C 0.46856 0.59057 0.4543 0.0
C1148 C 0.47083 0.56956 0.47386 0.0
H1149 H 0.45586 0.45756 0.56344 0.0
H1150 H 0.4442 0.4976 0.53733 0.0
H1151 H 0.51849 0.54769 0.51538 0.0
H1152 H 0.51024 0.61797 0.4107 0.0
H1153 H 0.51423 0.59044 0.44653 0.0
C1154 C 0.92942 0.45135 0.43334 0.0
C1155 C 0.92393 0.4725 0.41638 0.0
C1156 C 0.94608 0.45788 0.45299 0.0
C1157 C 0.97628 0.51819 0.48747 0.0
H1158 H 0.03659 0.46368 0.50194 0.0
C1159 C 0.06734 0.5461 0.55157 0.0
C1160 C 0.07269 0.52521 0.56877 0.0
C1161 C 0.05045 0.53941 0.5321 0.0
C1162 C 0.01976 0.47903 0.49819 0.0
H1163 H 0.93003 0.51743 0.40736 0.0
H1164 H 0.959 0.52872 0.44145 0.0
H1165 H 1.00169 0.4524 0.4715 0.0
H1166 H 0.06609 0.48054 0.57841 0.0
H1167 H 0.03677 0.46894 0.54454 0.0
H1168 H 0.99441 0.54485 0.51412 0.0
C1169 C 0.95049 0.50715 0.4397 0.0
C1170 C 0.99966 0.47249 0.48088 0.0
C1171 C 0.93396 0.50062 0.42009 0.0
C1172 C 0.06226 0.49714 0.56548 0.0
C1173 C 0.04554 0.49044 0.54601 0.0
C1174 C 0.99639 0.52474 0.50476 0.0
C1175 C 0.95737 0.48569 0.45604 0.0
C1176 C 0.97772 0.49201 0.47531 0.0
C1177 C 0.03882 0.51168 0.52944 0.0
C1178 C 0.01835 0.50523 0.5103 0.0
H1179 H 0.92195 0.42949 0.43095 0.0
H1180 H 0.95065 0.44101 0.46552 0.0
H1181 H 0.95945 0.53354 0.48374 0.0
H1182 H 0.07511 0.5679 0.55364 0.0
H1183 H 0.04597 0.55609 0.51938 0.0
loop_
_geom_bond_atom_site_label_1
_geom_bond_atom_site_label_2
_geom_bond_distance
_geom_bond_site_symmetry_2
_ccdc_geom_bond_type
O0 Cd1 2.223 1_655 S
O0 C8 1.315 1_655 S
Cd1 O0 2.223 1_455 S
Cd1 O4 2.297 1_455 S
Cd1 O5 2.439 . S
Cd1 O11 2.240 . S
Cd2 O3 2.240 . S
Cd2 O10 2.223 . S
Cd2 O12 2.297 . S
Cd2 O13 2.439 . S
O3 Cd2 2.240 . S
O3 C8 1.279 . S
O4 Cd1 2.297 1_655 S
O4 C6 1.247 1_655 S
O5 Cd1 2.439 . S
O5 C6 1.208 . S
C6 O4 1.247 1_455 S
C6 O5 1.208 . S
C7 O12 1.247 . S
C7 O13 1.208 . S
C8 O0 1.315 1_455 S
C8 O3 1.279 . S
C9 O10 1.315 . S
C9 O11 1.279 . S
O10 Cd2 2.223 . S
O10 C9 1.315 . S
O11 Cd1 2.240 . S
O11 C9 1.279 . S
O12 Cd2 2.297 . S
O12 C7 1.247 . S
O13 Cd2 2.439 . S
O13 C7 1.208 . S
O14 Cd15 2.223 1_565 S
O14 C22 1.315 1_565 S
Cd15 O14 2.223 1_545 S
Cd15 O18 2.297 1_545 S
Cd15 O19 2.439 . S
Cd15 O25 2.240 . S
Cd16 O17 2.240 . S
Cd16 O24 2.223 . S
Cd16 O26 2.297 . S
Cd16 O27 2.439 . S
O17 Cd16 2.240 . S
O17 C22 1.279 . S
O18 Cd15 2.297 1_565 S
O18 C20 1.247 1_565 S
O19 Cd15 2.439 . S
O19 C20 1.208 . S
C20 O18 1.247 1_545 S
C20 O19 1.208 . S
C21 O26 1.247 . S
C21 O27 1.208 . S
C22 O14 1.315 1_545 S
C22 O17 1.279 . S
C23 O24 1.315 . S
C23 O25 1.279 . S
O24 Cd16 2.223 . S
O24 C23 1.315 . S
O25 Cd15 2.240 . S
O25 C23 1.279 . S
O26 Cd16 2.297 . S
O26 C21 1.247 . S
O27 Cd16 2.439 . S
O27 C21 1.208 . S
O28 Cd29 2.223 . S
O28 C36 1.315 . S
Cd29 O28 2.223 . S
Cd29 O32 2.297 . S
Cd29 O33 2.439 . S
Cd29 O39 2.240 . S
Cd30 O31 2.240 . S
Cd30 O38 2.223 . S
Cd30 O40 2.297 . S
Cd30 O41 2.439 . S
O31 Cd30 2.240 . S
O31 C36 1.279 . S
O32 Cd29 2.297 . S
O32 C34 1.247 . S
O33 Cd29 2.439 . S
O33 C34 1.208 . S
C34 O32 1.247 . S
C34 O33 1.208 . S
C35 O40 1.247 . S
C35 O41 1.208 . S
C36 O28 1.315 . S
C36 O31 1.279 . S
C37 O38 1.315 . S
C37 O39 1.279 . S
O38 Cd30 2.223 . S
O38 C37 1.315 . S
O39 Cd29 2.240 . S
O39 C37 1.279 . S
O40 Cd30 2.297 . S
O40 C35 1.247 . S
O41 Cd30 2.439 . S
O41 C35 1.208 . S
O42 Cd43 2.223 . S
O42 C50 1.315 . S
Cd43 O42 2.223 . S
Cd43 O46 2.297 . S
Cd43 O47 2.439 . S
Cd43 O53 2.240 . S
Cd44 O45 2.240 . S
Cd44 O52 2.223 . S
Cd44 O54 2.297 . S
Cd44 O55 2.439 . S
O45 Cd44 2.240 . S
O45 C50 1.279 . S
O46 Cd43 2.297 . S
O46 C48 1.247 . S
O47 Cd43 2.439 . S
O47 C48 1.208 . S
C48 O46 1.247 . S
C48 O47 1.208 . S
C49 O54 1.247 . S
C49 O55 1.208 . S
C50 O42 1.315 . S
C50 O45 1.279 . S
C51 O52 1.315 . S
C51 O53 1.279 . S
O52 Cd44 2.223 . S
O52 C51 1.315 . S
O53 Cd43 2.240 . S
O53 C51 1.279 . S
O54 Cd44 2.297 . S
O54 C49 1.247 . S
O55 Cd44 2.439 . S
O55 C49 1.208 . S
O56 Cd57 2.223 1_655 S
O56 C64 1.315 1_655 S
Cd57 O56 2.223 1_455 S
Cd57 O60 2.297 1_455 S
Cd57 O61 2.439 . S
Cd57 O67 2.240 . S
Cd58 O59 2.240 . S
Cd58 O66 2.223 . S
Cd58 O68 2.297 . S
Cd58 O69 2.439 . S
O59 Cd58 2.240 . S
O59 C64 1.279 . S
O60 Cd57 2.297 1_655 S
O60 C62 1.247 1_655 S
O61 Cd57 2.439 . S
O61 C62 1.208 . S
C62 O60 1.247 1_455 S
C62 O61 1.208 . S
C63 O68 1.247 . S
C63 O69 1.208 . S
C64 O56 1.315 1_455 S
C64 O59 1.279 . S
C65 O66 1.315 . S
C65 O67 1.279 . S
O66 Cd58 2.223 . S
O66 C65 1.315 . S
O67 Cd57 2.240 . S
O67 C65 1.279 . S
O68 Cd58 2.297 . S
O68 C63 1.247 . S
O69 Cd58 2.439 . S
O69 C63 1.208 . S
O70 Cd71 2.223 1_565 S
O70 C78 1.315 1_565 S
Cd71 O70 2.223 1_545 S
Cd71 O74 2.297 1_545 S
Cd71 O75 2.439 . S
Cd71 O81 2.240 . S
Cd72 O73 2.240 . S
Cd72 O80 2.223 . S
Cd72 O82 2.297 . S
Cd72 O83 2.439 . S
O73 Cd72 2.240 . S
O73 C78 1.279 . S
O74 Cd71 2.297 1_565 S
O74 C76 1.247 1_565 S
O75 Cd71 2.439 . S
O75 C76 1.208 . S
C76 O74 1.247 1_545 S
C76 O75 1.208 . S
C77 O82 1.247 . S
C77 O83 1.208 . S
C78 O70 1.315 1_545 S
C78 O73 1.279 . S
C79 O80 1.315 . S
C79 O81 1.279 . S
O80 Cd72 2.223 . S
O80 C79 1.315 . S
O81 Cd71 2.240 . S
O81 C79 1.279 . S
O82 Cd72 2.297 . S
O82 C77 1.247 . S
O83 Cd72 2.439 . S
O83 C77 1.208 . S
O84 Cd85 2.223 . S
O84 C92 1.315 . S
Cd85 O84 2.223 . S
Cd85 O88 2.297 . S
Cd85 O89 2.439 . S
Cd85 O95 2.240 . S
Cd86 O87 2.240 . S
Cd86 O94 2.223 . S
Cd86 O96 2.297 . S
Cd86 O97 2.439 . S
O87 Cd86 2.240 . S
O87 C92 1.279 . S
O88 Cd85 2.297 . S
O88 C90 1.247 . S
O89 Cd85 2.439 . S
O89 C90 1.208 . S
C90 O88 1.247 . S
C90 O89 1.208 . S
C91 O96 1.247 . S
C91 O97 1.208 . S
C92 O84 1.315 . S
C92 O87 1.279 . S
C93 O94 1.315 . S
C93 O95 1.279 . S
O94 Cd86 2.223 . S
O94 C93 1.315 . S
O95 Cd85 2.240 . S
O95 C93 1.279 . S
O96 Cd86 2.297 . S
O96 C91 1.247 . S
O97 Cd86 2.439 . S
O97 C91 1.208 . S
O98 Cd99 2.223 . S
O98 C106 1.315 . S
Cd99 O98 2.223 . S
Cd99 O102 2.297 . S
Cd99 O103 2.439 . S
Cd99 O109 2.240 . S
Cd100 O101 2.240 . S
Cd100 O108 2.223 . S
Cd100 O110 2.297 . S
Cd100 O111 2.439 . S
O101 Cd100 2.240 . S
O101 C106 1.279 . S
O102 Cd99 2.297 . S
O102 C104 1.247 . S
O103 Cd99 2.439 . S
O103 C104 1.208 . S
C104 O102 1.247 . S
C104 O103 1.208 . S
C105 O110 1.247 . S
C105 O111 1.208 . S
C106 O98 1.315 . S
C106 O101 1.279 . S
C107 O108 1.315 . S
C107 O109 1.279 . S
O108 Cd100 2.223 . S
O108 C107 1.315 . S
O109 Cd99 2.240 . S
O109 C107 1.279 . S
O110 Cd100 2.297 . S
O110 C105 1.247 . S
O111 Cd100 2.439 . S
O111 C105 1.208 . S
O112 Cd113 2.223 1_455 S
O112 C120 1.315 1_455 S
Cd113 O112 2.223 1_655 S
Cd113 O116 2.297 1_655 S
Cd113 O117 2.439 . S
Cd113 O123 2.240 . S
Cd114 O115 2.240 . S
Cd114 O122 2.223 . S
Cd114 O124 2.297 . S
Cd114 O125 2.439 . S
O115 Cd114 2.240 . S
O115 C120 1.279 . S
O116 Cd113 2.297 1_455 S
O116 C118 1.247 1_455 S
O117 Cd113 2.439 . S
O117 C118 1.208 . S
C118 O116 1.247 1_655 S
C118 O117 1.208 . S
C119 O124 1.247 . S
C119 O125 1.208 . S
C120 O112 1.315 1_655 S
C120 O115 1.279 . S
C121 O122 1.315 . S
C121 O123 1.279 . S
O122 Cd114 2.223 . S
O122 C121 1.315 . S
O123 Cd113 2.240 . S
O123 C121 1.279 . S
O124 Cd114 2.297 . S
O124 C119 1.247 . S
O125 Cd114 2.439 . S
O125 C119 1.208 . S
O126 Cd127 2.223 1_545 S
O126 C134 1.315 1_545 S
Cd127 O126 2.223 1_565 S
Cd127 O130 2.297 1_565 S
Cd127 O131 2.439 . S
Cd127 O137 2.240 . S
Cd128 O129 2.240 . S
Cd128 O136 2.223 . S
Cd128 O138 2.297 . S
Cd128 O139 2.439 . S
O129 Cd128 2.240 . S
O129 C134 1.279 . S
O130 Cd127 2.297 1_545 S
O130 C132 1.247 1_545 S
O131 Cd127 2.439 . S
O131 C132 1.208 . S
C132 O130 1.247 1_565 S
C132 O131 1.208 . S
C133 O138 1.247 . S
C133 O139 1.208 . S
C134 O126 1.315 1_565 S
C134 O129 1.279 . S
C135 O136 1.315 . S
C135 O137 1.279 . S
O136 Cd128 2.223 . S
O136 C135 1.315 . S
O137 Cd127 2.240 . S
O137 C135 1.279 . S
O138 Cd128 2.297 . S
O138 C133 1.247 . S
O139 Cd128 2.439 . S
O139 C133 1.208 . S
O140 Cd141 2.223 . S
O140 C148 1.315 . S
Cd141 O140 2.223 . S
Cd141 O144 2.297 . S
Cd141 O145 2.439 . S
Cd141 O151 2.240 . S
Cd142 O143 2.240 . S
Cd142 O150 2.223 . S
Cd142 O152 2.297 . S
Cd142 O153 2.439 . S
O143 Cd142 2.240 . S
O143 C148 1.279 . S
O144 Cd141 2.297 . S
O144 C146 1.247 . S
O145 Cd141 2.439 . S
O145 C146 1.208 . S
C146 O144 1.247 . S
C146 O145 1.208 . S
C147 O152 1.247 . S
C147 O153 1.208 . S
C148 O140 1.315 . S
C148 O143 1.279 . S
C149 O150 1.315 . S
C149 O151 1.279 . S
O150 Cd142 2.223 . S
O150 C149 1.315 . S
O151 Cd141 2.240 . S
O151 C149 1.279 . S
O152 Cd142 2.297 . S
O152 C147 1.247 . S
O153 Cd142 2.439 . S
O153 C147 1.208 . S
O154 Cd155 2.223 . S
O154 C162 1.315 . S
Cd155 O154 2.223 . S
Cd155 O158 2.297 . S
Cd155 O159 2.439 . S
Cd155 O165 2.240 . S
Cd156 O157 2.240 . S
Cd156 O164 2.223 . S
Cd156 O166 2.297 . S
Cd156 O167 2.439 . S
O157 Cd156 2.240 . S
O157 C162 1.279 . S
O158 Cd155 2.297 . S
O158 C160 1.247 . S
O159 Cd155 2.439 . S
O159 C160 1.208 . S
C160 O158 1.247 . S
C160 O159 1.208 . S
C161 O166 1.247 . S
C161 O167 1.208 . S
C162 O154 1.315 . S
C162 O157 1.279 . S
C163 O164 1.315 . S
C163 O165 1.279 . S
O164 Cd156 2.223 . S
O164 C163 1.315 . S
O165 Cd155 2.240 . S
O165 C163 1.279 . S
O166 Cd156 2.297 . S
O166 C161 1.247 . S
O167 Cd156 2.439 . S
O167 C161 1.208 . S
O168 Cd169 2.223 1_455 S
O168 C176 1.315 1_455 S
Cd169 O168 2.223 1_655 S
Cd169 O172 2.297 1_655 S
Cd169 O173 2.439 . S
Cd169 O179 2.240 . S
Cd170 O171 2.240 . S
Cd170 O178 2.223 . S
Cd170 O180 2.297 . S
Cd170 O181 2.439 . S
O171 Cd170 2.240 . S
O171 C176 1.279 . S
O172 Cd169 2.297 1_455 S
O172 C174 1.247 1_455 S
O173 Cd169 2.439 . S
O173 C174 1.208 . S
C174 O172 1.247 1_655 S
C174 O173 1.208 . S
C175 O180 1.247 . S
C175 O181 1.208 . S
C176 O168 1.315 1_655 S
C176 O171 1.279 . S
C177 O178 1.315 . S
C177 O179 1.279 . S
O178 Cd170 2.223 . S
O178 C177 1.315 . S
O179 Cd169 2.240 . S
O179 C177 1.279 . S
O180 Cd170 2.297 . S
O180 C175 1.247 . S
O181 Cd170 2.439 . S
O181 C175 1.208 . S
O182 Cd183 2.223 1_545 S
O182 C190 1.315 1_545 S
Cd183 O182 2.223 1_565 S
Cd183 O186 2.297 1_565 S
Cd183 O187 2.439 . S
Cd183 O193 2.240 . S
Cd184 O185 2.240 . S
Cd184 O192 2.223 . S
Cd184 O194 2.297 . S
Cd184 O195 2.439 . S
O185 Cd184 2.240 . S
O185 C190 1.279 . S
O186 Cd183 2.297 1_545 S
O186 C188 1.247 1_545 S
O187 Cd183 2.439 . S
O187 C188 1.208 . S
C188 O186 1.247 1_565 S
C188 O187 1.208 . S
C189 O194 1.247 . S
C189 O195 1.208 . S
C190 O182 1.315 1_565 S
C190 O185 1.279 . S
C191 O192 1.315 . S
C191 O193 1.279 . S
O192 Cd184 2.223 . S
O192 C191 1.315 . S
O193 Cd183 2.240 . S
O193 C191 1.279 . S
O194 Cd184 2.297 . S
O194 C189 1.247 . S
O195 Cd184 2.439 . S
O195 C189 1.208 . S
O196 Cd197 2.223 . S
O196 C204 1.315 . S
Cd197 O196 2.223 . S
Cd197 O200 2.297 . S
Cd197 O201 2.439 . S
Cd197 O207 2.240 . S
Cd198 O199 2.240 . S
Cd198 O206 2.223 . S
Cd198 O208 2.297 . S
Cd198 O209 2.439 . S
O199 Cd198 2.240 . S
O199 C204 1.279 . S
O200 Cd197 2.297 . S
O200 C202 1.247 . S
O201 Cd197 2.439 . S
O201 C202 1.208 . S
C202 O200 1.247 . S
C202 O201 1.208 . S
C203 O208 1.247 . S
C203 O209 1.208 . S
C204 O196 1.315 . S
C204 O199 1.279 . S
C205 O206 1.315 . S
C205 O207 1.279 . S
O206 Cd198 2.223 . S
O206 C205 1.315 . S
O207 Cd197 2.240 . S
O207 C205 1.279 . S
O208 Cd198 2.297 . S
O208 C203 1.247 . S
O209 Cd198 2.439 . S
O209 C203 1.208 . S
O210 Cd211 2.223 . S
O210 C218 1.315 . S
Cd211 O210 2.223 . S
Cd211 O214 2.297 . S
Cd211 O215 2.439 . S
Cd211 O221 2.240 . S
Cd212 O213 2.240 . S
Cd212 O220 2.223 . S
Cd212 O222 2.297 . S
Cd212 O223 2.439 . S
O213 Cd212 2.240 . S
O213 C218 1.279 . S
O214 Cd211 2.297 . S
O214 C216 1.247 . S
O215 Cd211 2.439 . S
O215 C216 1.208 . S
C216 O214 1.247 . S
C216 O215 1.208 . S
C217 O222 1.247 . S
C217 O223 1.208 . S
C218 O210 1.315 . S
C218 O213 1.279 . S
C219 O220 1.315 . S
C219 O221 1.279 . S
O220 Cd212 2.223 . S
O220 C219 1.315 . S
O221 Cd211 2.240 . S
O221 C219 1.279 . S
O222 Cd212 2.297 . S
O222 C217 1.247 . S
O223 Cd212 2.439 . S
O223 C217 1.208 . S
C224 C225 1.349 . S
C224 C226 1.327 . S
C224 H249 0.950 . S
C225 C224 1.349 . S
C225 C241 1.349 . S
C226 C224 1.327 . S
C226 C245 1.429 . S
C226 H250 0.950 . S
C227 C244 1.574 . S
C227 C246 1.368 . S
C227 H251 0.949 . S
H228 C232 0.949 . S
C229 C230 1.349 . S
C229 C231 1.327 . S
C229 H252 0.950 . S
C230 C229 1.349 . S
C230 C242 1.349 . S
C231 C229 1.327 . S
C231 C247 1.429 . S
C231 H253 0.950 . S
C232 H228 0.949 . S
C232 C240 1.574 . S
C232 C248 1.368 . S
H233 C241 0.950 . S
H234 C239 0.950 . S
H235 C240 0.949 . S
H236 C242 0.950 . S
H237 C243 0.950 . S
H238 C244 0.949 . S
C239 H234 0.950 . S
C239 C241 1.327 . S
C239 C245 1.429 . S
C240 C232 1.574 . S
C240 H235 0.949 . S
C240 C246 1.368 . S
C241 C225 1.349 . S
C241 H233 0.950 . S
C241 C239 1.327 . S
C242 C230 1.349 . S
C242 H236 0.950 . S
C242 C243 1.327 . S
C243 H237 0.950 . S
C243 C242 1.327 . S
C243 C247 1.429 . S
C244 C227 1.574 . S
C244 H238 0.949 . S
C244 C248 1.368 . S
C245 C226 1.429 . S
C245 C239 1.429 . S
C245 C246 1.523 . S
C246 C227 1.368 . S
C246 C240 1.368 . S
C246 C245 1.523 . S
C247 C231 1.429 . S
C247 C243 1.429 . S
C247 C248 1.523 . S
C248 C232 1.368 . S
C248 C244 1.368 . S
C248 C247 1.523 . S
H249 C224 0.950 . S
H250 C226 0.950 . S
H251 C227 0.949 . S
H252 C229 0.950 . S
H253 C231 0.950 . S
C254 C255 1.349 . S
C254 C256 1.327 . S
C254 H279 0.950 . S
C255 C254 1.349 . S
C255 C271 1.349 . S
C256 C254 1.327 . S
C256 C275 1.429 . S
C256 H280 0.950 . S
C257 C274 1.574 . S
C257 C276 1.368 . S
C257 H281 0.949 . S
H258 C262 0.949 . S
C259 C260 1.349 . S
C259 C261 1.327 . S
C259 H282 0.950 . S
C260 C259 1.349 . S
C260 C272 1.349 . S
C261 C259 1.327 . S
C261 C277 1.429 . S
C261 H283 0.950 . S
C262 H258 0.949 . S
C262 C270 1.574 . S
C262 C278 1.368 . S
H263 C271 0.950 . S
H264 C269 0.950 . S
H265 C270 0.949 . S
H266 C272 0.950 . S
H267 C273 0.950 . S
H268 C274 0.949 . S
C269 H264 0.950 . S
C269 C271 1.327 . S
C269 C275 1.429 . S
C270 C262 1.574 . S
C270 H265 0.949 . S
C270 C276 1.368 . S
C271 C255 1.349 . S
C271 H263 0.950 . S
C271 C269 1.327 . S
C272 C260 1.349 . S
C272 H266 0.950 . S
C272 C273 1.327 . S
C273 H267 0.950 . S
C273 C272 1.327 . S
C273 C277 1.429 . S
C274 C257 1.574 . S
C274 H268 0.949 . S
C274 C278 1.368 . S
C275 C256 1.429 . S
C275 C269 1.429 . S
C275 C276 1.523 . S
C276 C257 1.368 . S
C276 C270 1.368 . S
C276 C275 1.523 . S
C277 C261 1.429 . S
C277 C273 1.429 . S
C277 C278 1.523 . S
C278 C262 1.368 . S
C278 C274 1.368 . S
C278 C277 1.523 . S
H279 C254 0.950 . S
H280 C256 0.950 . S
H281 C257 0.949 . S
H282 C259 0.950 . S
H283 C261 0.950 . S
C284 C285 1.349 . S
C284 C286 1.327 . S
C284 H309 0.950 . S
C285 C284 1.349 . S
C285 C301 1.349 . S
C286 C284 1.327 . S
C286 C305 1.429 . S
C286 H310 0.950 . S
C287 C304 1.574 . S
C287 C306 1.368 . S
C287 H311 0.949 . S
H288 C292 0.949 . S
C289 C290 1.349 . S
C289 C291 1.327 . S
C289 H312 0.950 . S
C290 C289 1.349 . S
C290 C302 1.349 . S
C291 C289 1.327 . S
C291 C307 1.429 . S
C291 H313 0.950 . S
C292 H288 0.949 . S
C292 C300 1.574 . S
C292 C308 1.368 . S
H293 C301 0.950 . S
H294 C299 0.950 . S
H295 C300 0.949 . S
H296 C302 0.950 . S
H297 C303 0.950 . S
H298 C304 0.949 . S
C299 H294 0.950 . S
C299 C301 1.327 . S
C299 C305 1.429 . S
C300 C292 1.574 . S
C300 H295 0.949 . S
C300 C306 1.368 . S
C301 C285 1.349 . S
C301 H293 0.950 . S
C301 C299 1.327 . S
C302 C290 1.349 . S
C302 H296 0.950 . S
C302 C303 1.327 . S
C303 H297 0.950 . S
C303 C302 1.327 . S
C303 C307 1.429 . S
C304 C287 1.574 . S
C304 H298 0.949 . S
C304 C308 1.368 . S
C305 C286 1.429 . S
C305 C299 1.429 . S
C305 C306 1.523 . S
C306 C287 1.368 . S
C306 C300 1.368 . S
C306 C305 1.523 . S
C307 C291 1.429 . S
C307 C303 1.429 . S
C307 C308 1.523 . S
C308 C292 1.368 . S
C308 C304 1.368 . S
C308 C307 1.523 . S
H309 C284 0.950 . S
H310 C286 0.950 . S
H311 C287 0.949 . S
H312 C289 0.950 . S
H313 C291 0.950 . S
C314 C315 1.349 . S
C314 C316 1.327 . S
C314 H339 0.950 . S
C315 C314 1.349 . S
C315 C331 1.349 . S
C316 C314 1.327 . S
C316 C335 1.429 . S
C316 H340 0.950 . S
C317 C334 1.574 . S
C317 C336 1.368 . S
C317 H341 0.949 . S
H318 C322 0.949 . S
C319 C320 1.349 . S
C319 C321 1.327 . S
C319 H342 0.950 . S
C320 C319 1.349 . S
C320 C332 1.349 . S
C321 C319 1.327 . S
C321 C337 1.429 . S
C321 H343 0.950 . S
C322 H318 0.949 . S
C322 C330 1.574 . S
C322 C338 1.368 . S
H323 C331 0.950 . S
H324 C329 0.950 . S
H325 C330 0.949 . S
H326 C332 0.950 . S
H327 C333 0.950 . S
H328 C334 0.949 . S
C329 H324 0.950 . S
C329 C331 1.327 . S
C329 C335 1.429 . S
C330 C322 1.574 . S
C330 H325 0.949 . S
C330 C336 1.368 . S
C331 C315 1.349 . S
C331 H323 0.950 . S
C331 C329 1.327 . S
C332 C320 1.349 . S
C332 H326 0.950 . S
C332 C333 1.327 . S
C333 H327 0.950 . S
C333 C332 1.327 . S
C333 C337 1.429 . S
C334 C317 1.574 . S
C334 H328 0.949 . S
C334 C338 1.368 . S
C335 C316 1.429 . S
C335 C329 1.429 . S
C335 C336 1.523 . S
C336 C317 1.368 . S
C336 C330 1.368 . S
C336 C335 1.523 . S
C337 C321 1.429 . S
C337 C333 1.429 . S
C337 C338 1.523 . S
C338 C322 1.368 . S
C338 C334 1.368 . S
C338 C337 1.523 . S
H339 C314 0.950 . S
H340 C316 0.950 . S
H341 C317 0.949 . S
H342 C319 0.950 . S
H343 C321 0.950 . S
C344 C345 1.349 . S
C344 C346 1.327 . S
C344 H369 0.950 . S
C345 C344 1.349 . S
C345 C361 1.349 . S
C346 C344 1.327 . S
C346 C365 1.429 . S
C346 H370 0.950 . S
C347 C364 1.574 . S
C347 C366 1.368 . S
C347 H371 0.949 . S
H348 C352 0.949 . S
C349 C350 1.349 . S
C349 C351 1.327 . S
C349 H372 0.950 . S
C350 C349 1.349 . S
C350 C362 1.349 . S
C351 C349 1.327 . S
C351 C367 1.429 . S
C351 H373 0.950 . S
C352 H348 0.949 . S
C352 C360 1.574 . S
C352 C368 1.368 . S
H353 C361 0.950 . S
H354 C359 0.950 . S
H355 C360 0.949 . S
H356 C362 0.950 . S
H357 C363 0.950 . S
H358 C364 0.949 . S
C359 H354 0.950 . S
C359 C361 1.327 . S
C359 C365 1.429 . S
C360 C352 1.574 . S
C360 H355 0.949 . S
C360 C366 1.368 . S
C361 C345 1.349 . S
C361 H353 0.950 . S
C361 C359 1.327 . S
C362 C350 1.349 . S
C362 H356 0.950 . S
C362 C363 1.327 . S
C363 H357 0.950 . S
C363 C362 1.327 . S
C363 C367 1.429 . S
C364 C347 1.574 . S
C364 H358 0.949 . S
C364 C368 1.368 . S
C365 C346 1.429 . S
C365 C359 1.429 . S
C365 C366 1.523 . S
C366 C347 1.368 . S
C366 C360 1.368 . S
C366 C365 1.523 . S
C367 C351 1.429 . S
C367 C363 1.429 . S
C367 C368 1.523 . S
C368 C352 1.368 . S
C368 C364 1.368 . S
C368 C367 1.523 . S
H369 C344 0.950 . S
H370 C346 0.950 . S
H371 C347 0.949 . S
H372 C349 0.950 . S
H373 C351 0.950 . S
C374 C375 1.349 . S
C374 C376 1.327 . S
C374 H399 0.950 . S
C375 C374 1.349 . S
C375 C391 1.349 . S
C376 C374 1.327 . S
C376 C395 1.429 . S
C376 H400 0.950 . S
C377 C394 1.574 . S
C377 C396 1.368 . S
C377 H401 0.949 . S
H378 C382 0.949 . S
C379 C380 1.349 . S
C379 C381 1.327 . S
C379 H402 0.950 . S
C380 C379 1.349 . S
C380 C392 1.349 . S
C381 C379 1.327 . S
C381 C397 1.429 . S
C381 H403 0.950 . S
C382 H378 0.949 . S
C382 C390 1.574 . S
C382 C398 1.368 . S
H383 C391 0.950 . S
H384 C389 0.950 . S
H385 C390 0.949 . S
H386 C392 0.950 . S
H387 C393 0.950 . S
H388 C394 0.949 . S
C389 H384 0.950 . S
C389 C391 1.327 . S
C389 C395 1.429 . S
C390 C382 1.574 . S
C390 H385 0.949 . S
C390 C396 1.368 . S
C391 C375 1.349 . S
C391 H383 0.950 . S
C391 C389 1.327 . S
C392 C380 1.349 . S
C392 H386 0.950 . S
C392 C393 1.327 . S
C393 H387 0.950 . S
C393 C392 1.327 . S
C393 C397 1.429 . S
C394 C377 1.574 . S
C394 H388 0.949 . S
C394 C398 1.368 . S
C395 C376 1.429 . S
C395 C389 1.429 . S
C395 C396 1.523 . S
C396 C377 1.368 . S
C396 C390 1.368 . S
C396 C395 1.523 . S
C397 C381 1.429 . S
C397 C393 1.429 . S
C397 C398 1.523 . S
C398 C382 1.368 . S
C398 C394 1.368 . S
C398 C397 1.523 . S
H399 C374 0.950 . S
H400 C376 0.950 . S
H401 C377 0.949 . S
H402 C379 0.950 . S
H403 C381 0.950 . S
C404 C405 1.349 . S
C404 C406 1.327 . S
C404 H429 0.950 . S
C405 C404 1.349 . S
C405 C421 1.349 . S
C406 C404 1.327 . S
C406 C425 1.429 . S
C406 H430 0.950 . S
C407 C424 1.574 . S
C407 C426 1.368 . S
C407 H431 0.949 . S
H408 C412 0.949 . S
C409 C410 1.349 . S
C409 C411 1.327 . S
C409 H432 0.950 . S
C410 C409 1.349 . S
C410 C422 1.349 . S
C411 C409 1.327 . S
C411 C427 1.429 . S
C411 H433 0.950 . S
C412 H408 0.949 . S
C412 C420 1.574 . S
C412 C428 1.368 . S
H413 C421 0.950 . S
H414 C419 0.950 . S
H415 C420 0.949 . S
H416 C422 0.950 . S
H417 C423 0.950 . S
H418 C424 0.949 . S
C419 H414 0.950 . S
C419 C421 1.327 . S
C419 C425 1.429 . S
C420 C412 1.574 . S
C420 H415 0.949 . S
C420 C426 1.368 . S
C421 C405 1.349 . S
C421 H413 0.950 . S
C421 C419 1.327 . S
C422 C410 1.349 . S
C422 H416 0.950 . S
C422 C423 1.327 . S
C423 H417 0.950 . S
C423 C422 1.327 . S
C423 C427 1.429 . S
C424 C407 1.574 . S
C424 H418 0.949 . S
C424 C428 1.368 . S
C425 C406 1.429 . S
C425 C419 1.429 . S
C425 C426 1.523 . S
C426 C407 1.368 . S
C426 C420 1.368 . S
C426 C425 1.523 . S
C427 C411 1.429 . S
C427 C423 1.429 . S
C427 C428 1.523 . S
C428 C412 1.368 . S
C428 C424 1.368 . S
C428 C427 1.523 . S
H429 C404 0.950 . S
H430 C406 0.950 . S
H431 C407 0.949 . S
H432 C409 0.950 . S
H433 C411 0.950 . S
C434 C435 1.349 . S
C434 C436 1.327 . S
C434 H459 0.950 . S
C435 C434 1.349 . S
C435 C451 1.349 . S
C436 C434 1.327 . S
C436 C455 1.429 . S
C436 H460 0.950 . S
C437 C454 1.574 . S
C437 C456 1.368 . S
C437 H461 0.949 . S
H438 C442 0.949 . S
C439 C440 1.349 . S
C439 C441 1.327 . S
C439 H462 0.950 . S
C440 C439 1.349 . S
C440 C452 1.349 . S
C441 C439 1.327 . S
C441 C457 1.429 . S
C441 H463 0.950 . S
C442 H438 0.949 . S
C442 C450 1.574 . S
C442 C458 1.368 . S
H443 C451 0.950 . S
H444 C449 0.950 . S
H445 C450 0.949 . S
H446 C452 0.950 . S
H447 C453 0.950 . S
H448 C454 0.949 . S
C449 H444 0.950 . S
C449 C451 1.327 . S
C449 C455 1.429 . S
C450 C442 1.574 . S
C450 H445 0.949 . S
C450 C456 1.368 . S
C451 C435 1.349 . S
C451 H443 0.950 . S
C451 C449 1.327 . S
C452 C440 1.349 . S
C452 H446 0.950 . S
C452 C453 1.327 . S
C453 H447 0.950 . S
C453 C452 1.327 . S
C453 C457 1.429 . S
C454 C437 1.574 . S
C454 H448 0.949 . S
C454 C458 1.368 . S
C455 C436 1.429 . S
C455 C449 1.429 . S
C455 C456 1.523 . S
C456 C437 1.368 . S
C456 C450 1.368 . S
C456 C455 1.523 . S
C457 C441 1.429 . S
C457 C453 1.429 . S
C457 C458 1.523 . S
C458 C442 1.368 . S
C458 C454 1.368 . S
C458 C457 1.523 . S
H459 C434 0.950 . S
H460 C436 0.950 . S
H461 C437 0.949 . S
H462 C439 0.950 . S
H463 C441 0.950 . S
C464 C465 1.349 . S
C464 C466 1.327 . S
C464 H489 0.950 . S
C465 C464 1.349 . S
C465 C481 1.349 . S
C466 C464 1.327 . S
C466 C485 1.429 . S
C466 H490 0.950 . S
C467 C484 1.574 . S
C467 C486 1.368 . S
C467 H491 0.949 . S
H468 C472 0.949 . S
C469 C470 1.349 1_455 S
C469 C471 1.342 . S
C469 H492 0.950 . S
C470 C469 1.349 1_655 S
C470 C482 1.349 . S
C471 C469 1.342 . S
C471 C487 1.396 1_455 S
C471 H493 0.968 . S
C472 H468 0.949 . S
C472 C480 1.574 . S
C472 C488 1.368 . S
H473 C481 0.950 . S
H474 C479 0.950 . S
H475 C480 0.949 . S
H476 C482 0.950 . S
H477 C483 0.950 . S
H478 C484 0.949 . S
C479 H474 0.950 . S
C479 C481 1.327 . S
C479 C485 1.429 . S
C480 C472 1.574 . S
C480 H475 0.949 . S
C480 C486 1.368 . S
C481 C465 1.349 . S
C481 H473 0.950 . S
C481 C479 1.327 . S
C482 C470 1.349 . S
C482 H476 0.950 . S
C482 C483 1.327 . S
C483 H477 0.950 . S
C483 C482 1.327 . S
C483 C487 1.429 . S
C484 C467 1.574 . S
C484 H478 0.949 . S
C484 C488 1.368 . S
C485 C466 1.429 . S
C485 C479 1.429 . S
C485 C486 1.523 . S
C486 C467 1.368 . S
C486 C480 1.368 . S
C486 C485 1.523 . S
C487 C471 1.396 1_655 S
C487 C483 1.429 . S
C487 C488 1.523 . S
C488 C472 1.368 . S
C488 C484 1.368 . S
C488 C487 1.523 . S
H489 C464 0.950 . S
H490 C466 0.950 . S
H491 C467 0.949 . S
H492 C469 0.950 . S
H493 C471 0.968 . S
C494 C495 1.349 1_545 S
C494 C496 1.327 . S
C494 H519 0.950 . S
C495 C494 1.349 1_565 S
C495 C511 1.349 . S
C496 C494 1.327 . S
C496 C515 1.429 1_545 S
C496 H520 0.950 . S
C497 C514 1.574 . S
C497 C516 1.368 . S
C497 H521 0.949 . S
H498 C502 0.949 . S
C499 C500 1.349 . S
C499 C501 1.327 . S
C499 H522 0.950 . S
C500 C499 1.349 . S
C500 C512 1.349 . S
C501 C499 1.327 . S
C501 C517 1.429 . S
C501 H523 0.950 . S
C502 H498 0.949 . S
C502 C510 1.574 . S
C502 C518 1.368 . S
H503 C511 0.950 . S
H504 C509 0.950 . S
H505 C510 0.949 . S
H506 C512 0.950 1_455 S
H507 C513 0.950 . S
H508 C514 0.949 . S
C509 H504 0.950 . S
C509 C511 1.327 . S
C509 C515 1.429 . S
C510 C502 1.574 . S
C510 H505 0.949 . S
C510 C516 1.368 . S
C511 C495 1.349 . S
C511 H503 0.950 . S
C511 C509 1.327 . S
C512 C500 1.349 . S
C512 H506 0.950 1_655 S
C512 C513 1.327 . S
C513 H507 0.950 . S
C513 C512 1.327 . S
C513 C517 1.429 . S
C514 C497 1.574 . S
C514 H508 0.949 . S
C514 C518 1.368 . S
C515 C496 1.429 1_565 S
C515 C509 1.429 . S
C515 C516 1.523 . S
C516 C497 1.368 . S
C516 C510 1.368 . S
C516 C515 1.523 . S
C517 C501 1.429 . S
C517 C513 1.429 . S
C517 C518 1.523 . S
C518 C502 1.368 . S
C518 C514 1.368 . S
C518 C517 1.523 . S
H519 C494 0.950 . S
H520 C496 0.950 . S
H521 C497 0.949 . S
H522 C499 0.950 . S
H523 C501 0.950 . S
C524 C525 1.349 . S
C524 C526 1.327 . S
C524 H549 0.950 . S
C525 C524 1.349 . S
C525 C541 1.349 1_565 S
C526 C524 1.327 . S
C526 C545 1.429 . S
C526 H550 0.950 . S
C527 C544 1.574 . S
C527 C546 1.368 . S
C527 H551 0.949 . S
H528 C532 0.949 . S
C529 C530 1.349 . S
C529 C531 1.327 . S
C529 H552 0.950 . S
C530 C529 1.349 . S
C530 C542 1.349 . S
C531 C529 1.327 . S
C531 C547 1.429 . S
C531 H553 0.950 . S
C532 H528 0.949 . S
C532 C540 1.574 . S
C532 C548 1.368 . S
H533 C541 0.950 . S
H534 C539 0.950 . S
H535 C540 0.949 . S
H536 C542 0.950 . S
H537 C543 0.950 . S
H538 C544 0.949 . S
C539 H534 0.950 . S
C539 C541 1.327 . S
C539 C545 1.429 1_545 S
C540 C532 1.574 . S
C540 H535 0.949 . S
C540 C546 1.368 . S
C541 C525 1.349 1_545 S
C541 H533 0.950 . S
C541 C539 1.327 . S
C542 C530 1.349 . S
C542 H536 0.950 . S
C542 C543 1.327 . S
C543 H537 0.950 . S
C543 C542 1.327 . S
C543 C547 1.429 . S
C544 C527 1.574 . S
C544 H538 0.949 . S
C544 C548 1.368 . S
C545 C526 1.429 . S
C545 C539 1.429 1_565 S
C545 C546 1.523 . S
C546 C527 1.368 . S
C546 C540 1.368 . S
C546 C545 1.523 . S
C547 C531 1.429 . S
C547 C543 1.429 . S
C547 C548 1.523 . S
C548 C532 1.368 . S
C548 C544 1.368 . S
C548 C547 1.523 . S
H549 C524 0.950 . S
H550 C526 0.950 . S
H551 C527 0.949 . S
H552 C529 0.950 . S
H553 C531 0.950 . S
C554 C555 1.349 . S
C554 C556 1.327 . S
C554 H579 0.950 . S
C555 C554 1.349 . S
C555 C571 1.349 . S
C556 C554 1.327 . S
C556 C575 1.429 . S
C556 H580 0.950 . S
C557 C574 1.574 . S
C557 C576 1.368 . S
C557 H581 0.949 . S
H558 C562 0.949 . S
C559 C560 1.349 . S
C559 C561 1.327 . S
C559 H582 0.950 . S
C560 C559 1.349 . S
C560 C572 1.349 . S
C561 C559 1.327 . S
C561 C577 1.429 . S
C561 H583 0.950 . S
C562 H558 0.949 . S
C562 C570 1.574 . S
C562 C578 1.368 . S
H563 C571 0.950 . S
H564 C569 0.950 . S
H565 C570 0.949 . S
H566 C572 0.950 . S
H567 C573 0.950 . S
H568 C574 0.949 . S
C569 H564 0.950 . S
C569 C571 1.327 . S
C569 C575 1.429 . S
C570 C562 1.574 . S
C570 H565 0.949 . S
C570 C576 1.368 . S
C571 C555 1.349 . S
C571 H563 0.950 . S
C571 C569 1.327 . S
C572 C560 1.349 . S
C572 H566 0.950 . S
C572 C573 1.327 . S
C573 H567 0.950 . S
C573 C572 1.327 . S
C573 C577 1.429 . S
C574 C557 1.574 . S
C574 H568 0.949 . S
C574 C578 1.368 . S
C575 C556 1.429 . S
C575 C569 1.429 . S
C575 C576 1.523 . S
C576 C557 1.368 . S
C576 C570 1.368 . S
C576 C575 1.523 . S
C577 C561 1.429 . S
C577 C573 1.429 . S
C577 C578 1.523 . S
C578 C562 1.368 . S
C578 C574 1.368 . S
C578 C577 1.523 . S
H579 C554 0.950 . S
H580 C556 0.950 . S
H581 C557 0.949 . S
H582 C559 0.950 . S
H583 C561 0.950 . S
C584 C585 1.349 . S
C584 C586 1.327 . S
C584 H609 0.950 . S
C585 C584 1.349 . S
C585 C601 1.349 . S
C586 C584 1.327 . S
C586 C605 1.429 . S
C586 H610 0.950 . S
C587 C604 1.574 . S
C587 C606 1.368 . S
C587 H611 0.949 . S
H588 C592 0.949 . S
C589 C590 1.349 . S
C589 C591 1.327 . S
C589 H612 0.950 . S
C590 C589 1.349 . S
C590 C602 1.349 1_455 S
C591 C589 1.327 . S
C591 C607 1.429 . S
C591 H613 0.950 . S
C592 H588 0.949 . S
C592 C600 1.574 . S
C592 C608 1.368 . S
H593 C601 0.950 . S
H594 C599 0.950 . S
H595 C600 0.949 . S
H596 C602 0.950 . S
H597 C603 0.966 . S
H598 C604 0.949 . S
C599 H594 0.950 . S
C599 C601 1.327 . S
C599 C605 1.429 . S
C600 C592 1.574 . S
C600 H595 0.949 . S
C600 C606 1.368 . S
C601 C585 1.349 . S
C601 H593 0.950 . S
C601 C599 1.327 . S
C602 C590 1.349 1_655 S
C602 H596 0.950 . S
C602 C603 1.341 . S
C603 H597 0.966 . S
C603 C602 1.341 . S
C603 C607 1.399 1_655 S
C604 C587 1.574 . S
C604 H598 0.949 . S
C604 C608 1.368 . S
C605 C586 1.429 . S
C605 C599 1.429 . S
C605 C606 1.523 . S
C606 C587 1.368 . S
C606 C600 1.368 . S
C606 C605 1.523 . S
C607 C591 1.429 . S
C607 C603 1.399 1_455 S
C607 C608 1.523 . S
C608 C592 1.368 . S
C608 C604 1.368 . S
C608 C607 1.523 . S
H609 C584 0.950 . S
H610 C586 0.950 . S
H611 C587 0.949 . S
H612 C589 0.950 . S
H613 C591 0.950 . S
C614 C615 1.349 . S
C614 C616 1.327 . S
C614 H639 0.950 . S
C615 C614 1.349 . S
C615 C631 1.349 . S
C616 C614 1.327 . S
C616 C635 1.429 . S
C616 H640 0.950 . S
C617 C634 1.574 . S
C617 C636 1.368 . S
C617 H641 0.949 . S
H618 C622 0.949 . S
C619 C620 1.349 1_655 S
C619 C621 1.327 . S
C619 H642 0.950 . S
C620 C619 1.349 1_455 S
C620 C632 1.349 . S
C621 C619 1.327 . S
C621 C637 1.429 1_655 S
C621 H643 0.950 . S
C622 H618 0.949 . S
C622 C630 1.574 . S
C622 C638 1.368 . S
H623 C631 0.950 1_565 S
H624 C629 0.950 . S
H625 C630 0.949 . S
H626 C632 0.950 . S
H627 C633 0.950 . S
H628 C634 0.949 . S
C629 H624 0.950 . S
C629 C631 1.327 . S
C629 C635 1.429 . S
C630 C622 1.574 . S
C630 H625 0.949 . S
C630 C636 1.368 . S
C631 C615 1.349 . S
C631 H623 0.950 1_545 S
C631 C629 1.327 . S
C632 C620 1.349 . S
C632 H626 0.950 . S
C632 C633 1.327 . S
C633 H627 0.950 . S
C633 C632 1.327 . S
C633 C637 1.429 . S
C634 C617 1.574 . S
C634 H628 0.949 . S
C634 C638 1.368 . S
C635 C616 1.429 . S
C635 C629 1.429 . S
C635 C636 1.523 . S
C636 C617 1.368 . S
C636 C630 1.368 . S
C636 C635 1.523 . S
C637 C621 1.429 1_455 S
C637 C633 1.429 . S
C637 C638 1.523 . S
C638 C622 1.368 . S
C638 C634 1.368 . S
C638 C637 1.523 . S
H639 C614 0.950 . S
H640 C616 0.950 . S
H641 C617 0.949 . S
H642 C619 0.950 . S
H643 C621 0.950 . S
C644 C645 1.349 . S
C644 C646 1.327 . S
C644 H669 0.950 . S
C645 C644 1.349 . S
C645 C661 1.349 . S
C646 C644 1.327 . S
C646 C665 1.429 . S
C646 H670 0.950 . S
C647 C664 1.574 . S
C647 C666 1.368 . S
C647 H671 0.949 . S
H648 C652 0.949 . S
C649 C650 1.349 1_565 S
C649 C651 1.327 1_565 S
C649 H672 0.950 . S
C650 C649 1.349 1_545 S
C650 C662 1.349 . S
C651 C649 1.327 1_545 S
C651 C667 1.429 . S
C651 H673 0.950 . S
C652 H648 0.949 . S
C652 C660 1.574 . S
C652 C668 1.368 . S
H653 C661 0.950 . S
H654 C659 0.950 . S
H655 C660 0.949 . S
H656 C662 0.950 . S
H657 C663 0.950 . S
H658 C664 0.949 . S
C659 H654 0.950 . S
C659 C661 1.327 . S
C659 C665 1.429 . S
C660 C652 1.574 . S
C660 H655 0.949 . S
C660 C666 1.368 . S
C661 C645 1.349 . S
C661 H653 0.950 . S
C661 C659 1.327 . S
C662 C650 1.349 . S
C662 H656 0.950 . S
C662 C663 1.327 . S
C663 H657 0.950 . S
C663 C662 1.327 . S
C663 C667 1.429 . S
C664 C647 1.574 . S
C664 H658 0.949 . S
C664 C668 1.368 . S
C665 C646 1.429 . S
C665 C659 1.429 . S
C665 C666 1.523 . S
C666 C647 1.368 . S
C666 C660 1.368 . S
C666 C665 1.523 . S
C667 C651 1.429 . S
C667 C663 1.429 . S
C667 C668 1.523 . S
C668 C652 1.368 . S
C668 C664 1.368 . S
C668 C667 1.523 . S
H669 C644 0.950 . S
H670 C646 0.950 . S
H671 C647 0.949 . S
H672 C649 0.950 . S
H673 C651 0.950 . S
C674 C675 1.349 . S
C674 C676 1.327 . S
C674 H699 0.950 . S
C675 C674 1.349 . S
C675 C691 1.349 . S
C676 C674 1.327 . S
C676 C695 1.429 . S
C676 H700 0.950 . S
C677 C694 1.574 . S
C677 C696 1.368 . S
C677 H701 0.949 . S
H678 C682 0.949 . S
C679 C680 1.349 . S
C679 C681 1.327 . S
C679 H702 0.950 . S
C680 C679 1.349 . S
C680 C692 1.349 . S
C681 C679 1.327 . S
C681 C697 1.429 . S
C681 H703 0.950 . S
C682 H678 0.949 . S
C682 C690 1.574 . S
C682 C698 1.368 . S
H683 C691 0.950 . S
H684 C689 0.950 . S
H685 C690 0.949 . S
H686 C692 0.950 . S
H687 C693 0.950 . S
H688 C694 0.949 . S
C689 H684 0.950 . S
C689 C691 1.327 . S
C689 C695 1.429 . S
C690 C682 1.574 . S
C690 H685 0.949 . S
C690 C696 1.368 . S
C691 C675 1.349 . S
C691 H683 0.950 . S
C691 C689 1.327 . S
C692 C680 1.349 . S
C692 H686 0.950 . S
C692 C693 1.327 . S
C693 H687 0.950 . S
C693 C692 1.327 . S
C693 C697 1.429 . S
C694 C677 1.574 . S
C694 H688 0.949 . S
C694 C698 1.368 . S
C695 C676 1.429 . S
C695 C689 1.429 . S
C695 C696 1.523 . S
C696 C677 1.368 . S
C696 C690 1.368 . S
C696 C695 1.523 . S
C697 C681 1.429 . S
C697 C693 1.429 . S
C697 C698 1.523 . S
C698 C682 1.368 . S
C698 C694 1.368 . S
C698 C697 1.523 . S
H699 C674 0.950 . S
H700 C676 0.950 . S
H701 C677 0.949 . S
H702 C679 0.950 . S
H703 C681 0.950 . S
C704 C705 1.349 . S
C704 C706 1.327 . S
C704 H729 0.950 1_455 S
C705 C704 1.349 . S
C705 C721 1.349 . S
C706 C704 1.327 . S
C706 C725 1.429 . S
C706 H730 0.950 1_455 S
C707 C724 1.574 . S
C707 C726 1.368 . S
C707 H731 0.949 . S
H708 C712 0.949 1_655 S
C709 C710 1.349 . S
C709 C711 1.327 . S
C709 H732 0.950 . S
C710 C709 1.349 . S
C710 C722 1.349 . S
C711 C709 1.327 . S
C711 C727 1.429 . S
C711 H733 0.950 . S
C712 H708 0.949 1_455 S
C712 C720 1.574 . S
C712 C728 1.368 . S
H713 C721 0.950 . S
H714 C719 0.950 . S
H715 C720 0.949 1_655 S
H716 C722 0.950 1_655 S
H717 C723 0.950 1_655 S
H718 C724 0.949 . S
C719 H714 0.950 . S
C719 C721 1.327 . S
C719 C725 1.429 . S
C720 C712 1.574 . S
C720 H715 0.949 1_455 S
C720 C726 1.368 . S
C721 C705 1.349 . S
C721 H713 0.950 . S
C721 C719 1.327 . S
C722 C710 1.349 . S
C722 H716 0.950 1_455 S
C722 C723 1.327 . S
C723 H717 0.950 1_455 S
C723 C722 1.327 . S
C723 C727 1.429 . S
C724 C707 1.574 . S
C724 H718 0.949 . S
C724 C728 1.368 . S
C725 C706 1.429 . S
C725 C719 1.429 . S
C725 C726 1.523 . S
C726 C707 1.368 . S
C726 C720 1.368 . S
C726 C725 1.523 . S
C727 C711 1.429 . S
C727 C723 1.429 . S
C727 C728 1.523 . S
C728 C712 1.368 . S
C728 C724 1.368 . S
C728 C727 1.523 . S
H729 C704 0.950 1_655 S
H730 C706 0.950 1_655 S
H731 C707 0.949 . S
H732 C709 0.950 . S
H733 C711 0.950 . S
C734 C735 1.349 . S
C734 C736 1.327 . S
C734 H759 0.950 . S
C735 C734 1.349 . S
C735 C751 1.349 . S
C736 C734 1.327 . S
C736 C755 1.429 . S
C736 H760 0.950 . S
C737 C754 1.574 . S
C737 C756 1.368 . S
C737 H761 0.950 1_545 S
H738 C742 0.949 . S
C739 C740 1.349 . S
C739 C741 1.327 . S
C739 H762 0.950 1_545 S
C740 C739 1.349 . S
C740 C752 1.349 . S
C741 C739 1.327 . S
C741 C757 1.429 . S
C741 H763 0.950 1_545 S
C742 H738 0.949 . S
C742 C750 1.574 . S
C742 C758 1.368 . S
H743 C751 0.950 1_565 S
H744 C749 0.950 1_565 S
H745 C750 0.949 . S
H746 C752 0.950 . S
H747 C753 0.950 . S
H748 C754 0.950 1_565 S
C749 H744 0.950 1_545 S
C749 C751 1.327 . S
C749 C755 1.429 . S
C750 C742 1.574 . S
C750 H745 0.949 . S
C750 C756 1.368 . S
C751 C735 1.349 . S
C751 H743 0.950 1_545 S
C751 C749 1.327 . S
C752 C740 1.349 . S
C752 H746 0.950 . S
C752 C753 1.327 . S
C753 H747 0.950 . S
C753 C752 1.327 . S
C753 C757 1.429 . S
C754 C737 1.574 . S
C754 H748 0.950 1_545 S
C754 C758 1.368 . S
C755 C736 1.429 . S
C755 C749 1.429 . S
C755 C756 1.523 . S
C756 C737 1.368 . S
C756 C750 1.368 . S
C756 C755 1.523 . S
C757 C741 1.429 . S
C757 C753 1.429 . S
C757 C758 1.523 . S
C758 C742 1.368 . S
C758 C754 1.368 . S
C758 C757 1.523 . S
H759 C734 0.950 . S
H760 C736 0.950 . S
H761 C737 0.950 1_565 S
H762 C739 0.950 1_565 S
H763 C741 0.950 1_565 S
C764 C765 1.349 . S
C764 C766 1.327 . S
C764 H789 0.950 . S
C765 C764 1.349 . S
C765 C781 1.349 . S
C766 C764 1.327 . S
C766 C785 1.429 . S
C766 H790 0.950 . S
C767 C784 1.574 . S
C767 C786 1.368 . S
C767 H791 0.949 . S
H768 C772 0.949 . S
C769 C770 1.349 . S
C769 C771 1.327 . S
C769 H792 0.950 . S
C770 C769 1.349 . S
C770 C782 1.349 . S
C771 C769 1.327 . S
C771 C787 1.429 . S
C771 H793 0.950 . S
C772 H768 0.949 . S
C772 C780 1.574 . S
C772 C788 1.368 . S
H773 C781 0.950 . S
H774 C779 0.950 . S
H775 C780 0.949 . S
H776 C782 0.950 . S
H777 C783 0.950 . S
H778 C784 0.949 . S
C779 H774 0.950 . S
C779 C781 1.327 . S
C779 C785 1.429 . S
C780 C772 1.574 . S
C780 H775 0.949 . S
C780 C786 1.368 . S
C781 C765 1.349 . S
C781 H773 0.950 . S
C781 C779 1.327 . S
C782 C770 1.349 . S
C782 H776 0.950 . S
C782 C783 1.327 . S
C783 H777 0.950 . S
C783 C782 1.327 . S
C783 C787 1.429 . S
C784 C767 1.574 . S
C784 H778 0.949 . S
C784 C788 1.368 . S
C785 C766 1.429 . S
C785 C779 1.429 . S
C785 C786 1.523 . S
C786 C767 1.368 . S
C786 C780 1.368 . S
C786 C785 1.523 . S
C787 C771 1.429 . S
C787 C783 1.429 . S
C787 C788 1.523 . S
C788 C772 1.368 . S
C788 C784 1.368 . S
C788 C787 1.523 . S
H789 C764 0.950 . S
H790 C766 0.950 . S
H791 C767 0.949 . S
H792 C769 0.950 . S
H793 C771 0.950 . S
C794 C795 1.349 . S
C794 C796 1.327 . S
C794 H819 0.950 . S
C795 C794 1.349 . S
C795 C811 1.349 . S
C796 C794 1.327 . S
C796 C815 1.429 . S
C796 H820 0.950 . S
C797 C814 1.574 . S
C797 C816 1.368 . S
C797 H821 0.949 . S
H798 C802 0.949 . S
C799 C800 1.349 . S
C799 C801 1.327 . S
C799 H822 0.950 . S
C800 C799 1.349 . S
C800 C812 1.349 . S
C801 C799 1.327 . S
C801 C817 1.429 . S
C801 H823 0.950 . S
C802 H798 0.949 . S
C802 C810 1.574 . S
C802 C818 1.368 . S
H803 C811 0.950 . S
H804 C809 0.950 . S
H805 C810 0.949 . S
H806 C812 0.950 . S
H807 C813 0.950 . S
H808 C814 0.949 . S
C809 H804 0.950 . S
C809 C811 1.327 . S
C809 C815 1.429 . S
C810 C802 1.574 . S
C810 H805 0.949 . S
C810 C816 1.368 . S
C811 C795 1.349 . S
C811 H803 0.950 . S
C811 C809 1.327 . S
C812 C800 1.349 . S
C812 H806 0.950 . S
C812 C813 1.327 . S
C813 H807 0.950 . S
C813 C812 1.327 . S
C813 C817 1.429 . S
C814 C797 1.574 . S
C814 H808 0.949 . S
C814 C818 1.368 . S
C815 C796 1.429 . S
C815 C809 1.429 . S
C815 C816 1.523 . S
C816 C797 1.368 . S
C816 C810 1.368 . S
C816 C815 1.523 . S
C817 C801 1.429 . S
C817 C813 1.429 . S
C817 C818 1.523 . S
C818 C802 1.368 . S
C818 C814 1.368 . S
C818 C817 1.523 . S
H819 C794 0.950 . S
H820 C796 0.950 . S
H821 C797 0.949 . S
H822 C799 0.950 . S
H823 C801 0.950 . S
C824 C825 1.349 . S
C824 C826 1.327 . S
C824 H849 0.950 . S
C825 C824 1.349 . S
C825 C841 1.349 . S
C826 C824 1.327 . S
C826 C845 1.429 . S
C826 H850 0.950 . S
C827 C844 1.574 . S
C827 C846 1.391 . S
C827 H851 0.929 1_655 S
H828 C832 0.949 . S
C829 C830 1.349 . S
C829 C831 1.327 . S
C829 H852 0.950 1_655 S
C830 C829 1.349 . S
C830 C842 1.349 . S
C831 C829 1.327 . S
C831 C847 1.429 . S
C831 H853 0.950 1_655 S
C832 H828 0.949 . S
C832 C840 1.574 . S
C832 C848 1.368 . S
H833 C841 0.950 1_455 S
H834 C839 0.950 1_455 S
H835 C840 0.949 . S
H836 C842 0.950 . S
H837 C843 0.950 . S
H838 C844 0.929 1_455 S
C839 H834 0.950 1_655 S
C839 C841 1.327 . S
C839 C845 1.429 . S
C840 C832 1.574 . S
C840 H835 0.949 . S
C840 C846 1.368 . S
C841 C825 1.349 . S
C841 H833 0.950 1_655 S
C841 C839 1.327 . S
C842 C830 1.349 . S
C842 H836 0.950 . S
C842 C843 1.327 . S
C843 H837 0.950 . S
C843 C842 1.327 . S
C843 C847 1.429 . S
C844 C827 1.574 . S
C844 H838 0.929 1_655 S
C844 C848 1.391 . S
C845 C826 1.429 . S
C845 C839 1.429 . S
C845 C846 1.523 . S
C846 C827 1.391 . S
C846 C840 1.368 . S
C846 C845 1.523 . S
C847 C831 1.429 . S
C847 C843 1.429 . S
C847 C848 1.523 . S
C848 C832 1.368 . S
C848 C844 1.391 . S
C848 C847 1.523 . S
H849 C824 0.950 . S
H850 C826 0.950 . S
H851 C827 0.929 1_455 S
H852 C829 0.950 1_455 S
H853 C831 0.950 1_455 S
C854 C855 1.349 . S
C854 C856 1.327 . S
C854 H879 0.950 . S
C855 C854 1.349 . S
C855 C871 1.349 . S
C856 C854 1.327 . S
C856 C875 1.429 . S
C856 H880 0.950 . S
C857 C874 1.574 . S
C857 C876 1.368 . S
C857 H881 0.950 1_565 S
H858 C862 0.949 . S
C859 C860 1.349 . S
C859 C861 1.327 . S
C859 H882 0.950 1_565 S
C860 C859 1.349 . S
C860 C872 1.349 . S
C861 C859 1.327 . S
C861 C877 1.429 . S
C861 H883 0.950 1_565 S
C862 H858 0.949 . S
C862 C870 1.574 . S
C862 C878 1.368 . S
H863 C871 0.950 1_545 S
H864 C869 0.950 1_545 S
H865 C870 0.949 . S
H866 C872 0.950 . S
H867 C873 0.950 . S
H868 C874 0.950 1_545 S
C869 H864 0.950 1_565 S
C869 C871 1.327 . S
C869 C875 1.429 . S
C870 C862 1.574 . S
C870 H865 0.949 . S
C870 C876 1.368 . S
C871 C855 1.349 . S
C871 H863 0.950 1_565 S
C871 C869 1.327 . S
C872 C860 1.349 . S
C872 H866 0.950 . S
C872 C873 1.327 . S
C873 H867 0.950 . S
C873 C872 1.327 . S
C873 C877 1.429 . S
C874 C857 1.574 . S
C874 H868 0.950 1_565 S
C874 C878 1.368 . S
C875 C856 1.429 . S
C875 C869 1.429 . S
C875 C876 1.523 . S
C876 C857 1.368 . S
C876 C870 1.368 . S
C876 C875 1.523 . S
C877 C861 1.429 . S
C877 C873 1.429 . S
C877 C878 1.523 . S
C878 C862 1.368 . S
C878 C874 1.368 . S
C878 C877 1.523 . S
H879 C854 0.950 . S
H880 C856 0.950 . S
H881 C857 0.950 1_545 S
H882 C859 0.950 1_545 S
H883 C861 0.950 1_545 S
C884 C885 1.349 . S
C884 C886 1.327 . S
C884 H909 0.950 . S
C885 C884 1.349 . S
C885 C901 1.349 . S
C886 C884 1.327 . S
C886 C905 1.429 . S
C886 H910 0.950 . S
C887 C904 1.574 . S
C887 C906 1.368 . S
C887 H911 0.949 . S
H888 C892 0.949 . S
C889 C890 1.349 . S
C889 C891 1.327 . S
C889 H912 0.950 . S
C890 C889 1.349 . S
C890 C902 1.349 . S
C891 C889 1.327 . S
C891 C907 1.429 . S
C891 H913 0.950 . S
C892 H888 0.949 . S
C892 C900 1.574 . S
C892 C908 1.368 . S
H893 C901 0.950 . S
H894 C899 0.950 . S
H895 C900 0.949 . S
H896 C902 0.950 . S
H897 C903 0.950 . S
H898 C904 0.949 . S
C899 H894 0.950 . S
C899 C901 1.327 . S
C899 C905 1.429 . S
C900 C892 1.574 . S
C900 H895 0.949 . S
C900 C906 1.368 . S
C901 C885 1.349 . S
C901 H893 0.950 . S
C901 C899 1.327 . S
C902 C890 1.349 . S
C902 H896 0.950 . S
C902 C903 1.327 . S
C903 H897 0.950 . S
C903 C902 1.327 . S
C903 C907 1.429 . S
C904 C887 1.574 . S
C904 H898 0.949 . S
C904 C908 1.368 . S
C905 C886 1.429 . S
C905 C899 1.429 . S
C905 C906 1.523 . S
C906 C887 1.368 . S
C906 C900 1.368 . S
C906 C905 1.523 . S
C907 C891 1.429 . S
C907 C903 1.429 . S
C907 C908 1.523 . S
C908 C892 1.368 . S
C908 C904 1.368 . S
C908 C907 1.523 . S
H909 C884 0.950 . S
H910 C886 0.950 . S
H911 C887 0.949 . S
H912 C889 0.950 . S
H913 C891 0.950 . S
C914 C915 1.349 . S
C914 C916 1.327 . S
C914 H939 0.950 . S
C915 C914 1.349 . S
C915 C931 1.349 . S
C916 C914 1.327 . S
C916 C935 1.429 . S
C916 H940 0.950 . S
C917 C934 1.574 . S
C917 C936 1.368 . S
C917 H941 0.949 . S
H918 C922 0.949 . S
C919 C920 1.349 . S
C919 C921 1.327 . S
C919 H942 0.950 . S
C920 C919 1.349 . S
C920 C932 1.349 . S
C921 C919 1.327 . S
C921 C937 1.429 . S
C921 H943 0.950 . S
C922 H918 0.949 . S
C922 C930 1.574 . S
C922 C938 1.368 . S
H923 C931 0.950 . S
H924 C929 0.950 . S
H925 C930 0.949 . S
H926 C932 0.950 . S
H927 C933 0.950 . S
H928 C934 0.949 . S
C929 H924 0.950 . S
C929 C931 1.327 . S
C929 C935 1.429 . S
C930 C922 1.574 . S
C930 H925 0.949 . S
C930 C936 1.368 . S
C931 C915 1.349 . S
C931 H923 0.950 . S
C931 C929 1.327 . S
C932 C920 1.349 . S
C932 H926 0.950 . S
C932 C933 1.327 . S
C933 H927 0.950 . S
C933 C932 1.327 . S
C933 C937 1.429 . S
C934 C917 1.574 . S
C934 H928 0.949 . S
C934 C938 1.368 . S
C935 C916 1.429 . S
C935 C929 1.429 . S
C935 C936 1.523 . S
C936 C917 1.368 . S
C936 C930 1.368 . S
C936 C935 1.523 . S
C937 C921 1.429 . S
C937 C933 1.429 . S
C937 C938 1.523 . S
C938 C922 1.368 . S
C938 C934 1.368 . S
C938 C937 1.523 . S
H939 C914 0.950 . S
H940 C916 0.950 . S
H941 C917 0.949 . S
H942 C919 0.950 . S
H943 C921 0.950 . S
C944 C945 1.349 . S
C944 C946 1.327 . S
C944 H969 0.950 . S
C945 C944 1.349 . S
C945 C961 1.349 . S
C946 C944 1.327 . S
C946 C965 1.429 . S
C946 H970 0.950 . S
C947 C964 1.574 . S
C947 C966 1.368 1_656 S
C947 H971 0.949 . S
H948 C952 0.949 . S
C949 C950 1.349 . S
C949 C951 1.327 . S
C949 H972 0.950 . S
C950 C949 1.349 . S
C950 C962 1.349 . S
C951 C949 1.327 . S
C951 C967 1.429 . S
C951 H973 0.950 . S
C952 H948 0.949 . S
C952 C960 1.574 . S
C952 C968 1.368 1_454 S
H953 C961 0.950 1_655 S
H954 C959 0.951 . S
H955 C960 0.949 . S
H956 C962 0.950 1_455 S
H957 C963 0.951 . S
H958 C964 0.949 . S
C959 H954 0.951 . S
C959 C961 1.327 1_655 S
C959 C965 1.428 1_655 S
C960 C952 1.574 . S
C960 H955 0.949 . S
C960 C966 1.368 . S
C961 C945 1.349 . S
C961 H953 0.950 1_455 S
C961 C959 1.327 1_455 S
C962 C950 1.349 . S
C962 H956 0.950 1_655 S
C962 C963 1.327 1_655 S
C963 H957 0.951 . S
C963 C962 1.327 1_455 S
C963 C967 1.428 1_455 S
C964 C947 1.574 . S
C964 H958 0.949 . S
C964 C968 1.368 . S
C965 C946 1.429 . S
C965 C959 1.428 1_455 S
C965 C966 1.523 . S
C966 C947 1.368 1_454 S
C966 C960 1.368 . S
C966 C965 1.523 . S
C967 C951 1.429 . S
C967 C963 1.428 1_655 S
C967 C968 1.523 . S
C968 C952 1.368 1_656 S
C968 C964 1.368 . S
C968 C967 1.523 . S
H969 C944 0.950 . S
H970 C946 0.950 . S
H971 C947 0.949 . S
H972 C949 0.950 . S
H973 C951 0.950 . S
C974 C975 1.349 . S
C974 C976 1.327 . S
C974 H999 0.950 . S
C975 C974 1.349 . S
C975 C991 1.349 1_565 S
C976 C974 1.327 . S
C976 C995 1.429 . S
C976 H1000 0.950 . S
C977 C994 1.574 1_455 S
C977 C996 1.368 1_545 S
C977 H1001 0.949 . S
H978 C982 0.949 . S
C979 C980 1.349 . S
C979 C981 1.327 . S
C979 H1002 0.950 . S
C980 C979 1.349 . S
C980 C992 1.349 1_545 S
C981 C979 1.327 . S
C981 C997 1.429 . S
C981 H1003 0.950 . S
C982 H978 0.949 . S
C982 C990 1.574 1_655 S
C982 C998 1.368 1_565 S
H983 C991 0.950 . S
H984 C989 0.950 . S
H985 C990 0.949 . S
H986 C992 0.950 . S
H987 C993 0.950 . S
H988 C994 0.949 . S
C989 H984 0.950 . S
C989 C991 1.327 . S
C989 C995 1.429 1_545 S
C990 C982 1.574 1_455 S
C990 H985 0.949 . S
C990 C996 1.368 1_554 S
C991 C975 1.349 1_545 S
C991 H983 0.950 . S
C991 C989 1.327 . S
C992 C980 1.349 1_565 S
C992 H986 0.950 . S
C992 C993 1.327 . S
C993 H987 0.950 . S
C993 C992 1.327 . S
C993 C997 1.429 1_565 S
C994 C977 1.574 1_655 S
C994 H988 0.949 . S
C994 C998 1.368 1_556 S
C995 C976 1.429 . S
C995 C989 1.429 1_565 S
C995 C996 1.523 . S
C996 C977 1.368 1_565 S
C996 C990 1.368 1_556 S
C996 C995 1.523 . S
C997 C981 1.429 . S
C997 C993 1.429 1_545 S
C997 C998 1.523 . S
C998 C982 1.368 1_545 S
C998 C994 1.368 1_554 S
C998 C997 1.523 . S
H999 C974 0.950 . S
H1000 C976 0.950 . S
H1001 C977 0.949 . S
H1002 C979 0.950 . S
H1003 C981 0.950 . S
C1004 C1005 1.349 . S
C1004 C1006 1.327 . S
C1004 H1029 0.950 . S
C1005 C1004 1.349 . S
C1005 C1021 1.349 . S
C1006 C1004 1.327 . S
C1006 C1025 1.429 . S
C1006 H1030 0.950 . S
C1007 C1024 1.574 1_565 S
C1007 C1026 1.368 . S
C1007 H1031 0.949 . S
H1008 C1012 0.949 . S
C1009 C1010 1.349 . S
C1009 C1011 1.327 . S
C1009 H1032 0.950 . S
C1010 C1009 1.349 . S
C1010 C1022 1.349 . S
C1011 C1009 1.327 . S
C1011 C1027 1.429 . S
C1011 H1033 0.950 . S
C1012 H1008 0.949 . S
C1012 C1020 1.574 1_545 S
C1012 C1028 1.368 . S
H1013 C1021 0.950 . S
H1014 C1019 0.950 . S
H1015 C1020 0.949 . S
H1016 C1022 0.950 . S
H1017 C1023 0.950 . S
H1018 C1024 0.949 . S
C1019 H1014 0.950 . S
C1019 C1021 1.327 . S
C1019 C1025 1.429 . S
C1020 C1012 1.574 1_565 S
C1020 H1015 0.949 . S
C1020 C1026 1.368 1_556 S
C1021 C1005 1.349 . S
C1021 H1013 0.950 . S
C1021 C1019 1.327 . S
C1022 C1010 1.349 . S
C1022 H1016 0.950 . S
C1022 C1023 1.327 . S
C1023 H1017 0.950 . S
C1023 C1022 1.327 . S
C1023 C1027 1.429 . S
C1024 C1007 1.574 1_545 S
C1024 H1018 0.949 . S
C1024 C1028 1.368 1_554 S
C1025 C1006 1.429 . S
C1025 C1019 1.429 . S
C1025 C1026 1.523 . S
C1026 C1007 1.368 . S
C1026 C1020 1.368 1_554 S
C1026 C1025 1.523 . S
C1027 C1011 1.429 . S
C1027 C1023 1.429 . S
C1027 C1028 1.523 . S
C1028 C1012 1.368 . S
C1028 C1024 1.368 1_556 S
C1028 C1027 1.523 . S
H1029 C1004 0.950 . S
H1030 C1006 0.950 . S
H1031 C1007 0.949 . S
H1032 C1009 0.950 . S
H1033 C1011 0.950 . S
C1034 C1035 1.349 . S
C1034 C1036 1.327 . S
C1034 H1059 0.950 . S
C1035 C1034 1.349 . S
C1035 C1051 1.349 . S
C1036 C1034 1.327 . S
C1036 C1055 1.429 . S
C1036 H1060 0.950 . S
C1037 C1054 1.574 . S
C1037 C1056 1.368 . S
C1037 H1061 0.949 . S
H1038 C1042 0.949 . S
C1039 C1040 1.349 . S
C1039 C1041 1.327 . S
C1039 H1062 0.950 . S
C1040 C1039 1.349 . S
C1040 C1052 1.349 . S
C1041 C1039 1.327 . S
C1041 C1057 1.429 . S
C1041 H1063 0.950 . S
C1042 H1038 0.949 . S
C1042 C1050 1.574 . S
C1042 C1058 1.368 . S
H1043 C1051 0.950 . S
H1044 C1049 0.950 . S
H1045 C1050 0.949 . S
H1046 C1052 0.950 . S
H1047 C1053 0.950 . S
H1048 C1054 0.949 . S
C1049 H1044 0.950 . S
C1049 C1051 1.327 . S
C1049 C1055 1.429 . S
C1050 C1042 1.574 . S
C1050 H1045 0.949 . S
C1050 C1056 1.368 1_554 S
C1051 C1035 1.349 . S
C1051 H1043 0.950 . S
C1051 C1049 1.327 . S
C1052 C1040 1.349 . S
C1052 H1046 0.950 . S
C1052 C1053 1.327 . S
C1053 H1047 0.950 . S
C1053 C1052 1.327 . S
C1053 C1057 1.429 . S
C1054 C1037 1.574 . S
C1054 H1048 0.949 . S
C1054 C1058 1.368 1_556 S
C1055 C1036 1.429 . S
C1055 C1049 1.429 . S
C1055 C1056 1.523 . S
C1056 C1037 1.368 . S
C1056 C1050 1.368 1_556 S
C1056 C1055 1.523 . S
C1057 C1041 1.429 . S
C1057 C1053 1.429 . S
C1057 C1058 1.523 . S
C1058 C1042 1.368 . S
C1058 C1054 1.368 1_554 S
C1058 C1057 1.523 . S
H1059 C1034 0.950 . S
H1060 C1036 0.950 . S
H1061 C1037 0.949 . S
H1062 C1039 0.950 . S
H1063 C1041 0.950 . S
C1064 C1065 1.349 . S
C1064 C1066 1.327 . S
C1064 H1089 0.950 . S
C1065 C1064 1.349 . S
C1065 C1081 1.349 1_455 S
C1066 C1064 1.327 . S
C1066 C1085 1.429 . S
C1066 H1090 0.950 . S
C1067 C1084 1.574 1_565 S
C1067 C1086 1.368 1_655 S
C1067 H1091 0.949 . S
H1068 C1072 0.949 . S
C1069 C1070 1.349 . S
C1069 C1071 1.327 . S
C1069 H1092 0.950 . S
C1070 C1069 1.349 . S
C1070 C1082 1.349 1_655 S
C1071 C1069 1.327 . S
C1071 C1087 1.429 . S
C1071 H1093 0.950 . S
C1072 H1068 0.949 . S
C1072 C1080 1.574 1_545 S
C1072 C1088 1.368 1_455 S
H1073 C1081 0.950 . S
H1074 C1079 0.950 . S
H1075 C1080 0.949 . S
H1076 C1082 0.950 . S
H1077 C1083 0.950 . S
H1078 C1084 0.949 . S
C1079 H1074 0.950 . S
C1079 C1081 1.327 . S
C1079 C1085 1.429 1_655 S
C1080 C1072 1.574 1_565 S
C1080 H1075 0.949 . S
C1080 C1086 1.368 . S
C1081 C1065 1.349 1_655 S
C1081 H1073 0.950 . S
C1081 C1079 1.327 . S
C1082 C1070 1.349 1_455 S
C1082 H1076 0.950 . S
C1082 C1083 1.327 . S
C1083 H1077 0.950 . S
C1083 C1082 1.327 . S
C1083 C1087 1.429 1_455 S
C1084 C1067 1.574 1_545 S
C1084 H1078 0.949 . S
C1084 C1088 1.368 . S
C1085 C1066 1.429 . S
C1085 C1079 1.429 1_455 S
C1085 C1086 1.523 . S
C1086 C1067 1.368 1_455 S
C1086 C1080 1.368 . S
C1086 C1085 1.523 . S
C1087 C1071 1.429 . S
C1087 C1083 1.429 1_655 S
C1087 C1088 1.523 . S
C1088 C1072 1.368 1_655 S
C1088 C1084 1.368 . S
C1088 C1087 1.523 . S
H1089 C1064 0.950 . S
H1090 C1066 0.950 . S
H1091 C1067 0.949 . S
H1092 C1069 0.950 . S
H1093 C1071 0.950 . S
C1094 C1095 1.349 . S
C1094 C1096 1.327 . S
C1094 H1119 0.950 . S
C1095 C1094 1.349 . S
C1095 C1111 1.349 . S
C1096 C1094 1.327 . S
C1096 C1115 1.429 . S
C1096 H1120 0.950 . S
C1097 C1114 1.575 . S
C1097 C1116 1.368 . S
C1097 H1121 0.949 . S
H1098 C1102 0.949 . S
C1099 C1100 1.349 . S
C1099 C1101 1.327 . S
C1099 H1122 0.950 . S
C1100 C1099 1.349 . S
C1100 C1112 1.349 . S
C1101 C1099 1.327 . S
C1101 C1117 1.429 . S
C1101 H1123 0.950 . S
C1102 H1098 0.949 . S
C1102 C1110 1.575 . S
C1102 C1118 1.368 . S
H1103 C1111 0.950 . S
H1104 C1109 0.950 . S
H1105 C1110 0.949 . S
H1106 C1112 0.950 . S
H1107 C1113 0.950 . S
H1108 C1114 0.949 . S
C1109 H1104 0.950 . S
C1109 C1111 1.327 . S
C1109 C1115 1.429 . S
C1110 C1102 1.575 . S
C1110 H1105 0.949 . S
C1110 C1116 1.367 1_565 S
C1111 C1095 1.349 . S
C1111 H1103 0.950 . S
C1111 C1109 1.327 . S
C1112 C1100 1.349 . S
C1112 H1106 0.950 . S
C1112 C1113 1.327 . S
C1113 H1107 0.950 . S
C1113 C1112 1.327 . S
C1113 C1117 1.429 . S
C1114 C1097 1.575 . S
C1114 H1108 0.949 . S
C1114 C1118 1.367 1_545 S
C1115 C1096 1.429 . S
C1115 C1109 1.429 . S
C1115 C1116 1.523 . S
C1116 C1097 1.368 . S
C1116 C1110 1.367 1_545 S
C1116 C1115 1.523 . S
C1117 C1101 1.429 . S
C1117 C1113 1.429 . S
C1117 C1118 1.523 . S
C1118 C1102 1.368 . S
C1118 C1114 1.367 1_565 S
C1118 C1117 1.523 . S
H1119 C1094 0.950 . S
H1120 C1096 0.950 . S
H1121 C1097 0.949 . S
H1122 C1099 0.950 . S
H1123 C1101 0.950 . S
C1124 C1125 1.349 . S
C1124 C1126 1.327 . S
C1124 H1149 0.950 . S
C1125 C1124 1.349 . S
C1125 C1141 1.349 . S
C1126 C1124 1.327 . S
C1126 C1145 1.429 . S
C1126 H1150 0.950 . S
C1127 C1144 1.574 . S
C1127 C1146 1.368 . S
C1127 H1151 0.949 . S
H1128 C1132 0.949 . S
C1129 C1130 1.349 . S
C1129 C1131 1.327 . S
C1129 H1152 0.950 . S
C1130 C1129 1.349 . S
C1130 C1142 1.349 . S
C1131 C1129 1.327 . S
C1131 C1147 1.429 . S
C1131 H1153 0.950 . S
C1132 H1128 0.949 . S
C1132 C1140 1.574 . S
C1132 C1148 1.368 . S
H1133 C1141 0.950 . S
H1134 C1139 0.950 . S
H1135 C1140 0.949 . S
H1136 C1142 0.950 . S
H1137 C1143 0.950 . S
H1138 C1144 0.949 . S
C1139 H1134 0.950 . S
C1139 C1141 1.327 . S
C1139 C1145 1.429 . S
C1140 C1132 1.574 . S
C1140 H1135 0.949 . S
C1140 C1146 1.368 . S
C1141 C1125 1.349 . S
C1141 H1133 0.950 . S
C1141 C1139 1.327 . S
C1142 C1130 1.349 . S
C1142 H1136 0.950 . S
C1142 C1143 1.327 . S
C1143 H1137 0.950 . S
C1143 C1142 1.327 . S
C1143 C1147 1.429 . S
C1144 C1127 1.574 . S
C1144 H1138 0.949 . S
C1144 C1148 1.368 . S
C1145 C1126 1.429 . S
C1145 C1139 1.429 . S
C1145 C1146 1.523 . S
C1146 C1127 1.368 . S
C1146 C1140 1.368 . S
C1146 C1145 1.523 . S
C1147 C1131 1.429 . S
C1147 C1143 1.429 . S
C1147 C1148 1.523 . S
C1148 C1132 1.368 . S
C1148 C1144 1.368 . S
C1148 C1147 1.523 . S
H1149 C1124 0.950 . S
H1150 C1126 0.950 . S
H1151 C1127 0.949 . S
H1152 C1129 0.950 . S
H1153 C1131 0.950 . S
C1154 C1155 1.349 . S
C1154 C1156 1.327 . S
C1154 H1179 0.950 . S
C1155 C1154 1.349 . S
C1155 C1171 1.349 . S
C1156 C1154 1.327 . S
C1156 C1175 1.429 . S
C1156 H1180 0.950 . S
C1157 C1174 1.574 1_655 S
C1157 C1176 1.368 . S
C1157 H1181 0.949 . S
H1158 C1162 0.949 . S
C1159 C1160 1.349 . S
C1159 C1161 1.327 . S
C1159 H1182 0.950 . S
C1160 C1159 1.349 . S
C1160 C1172 1.349 . S
C1161 C1159 1.327 . S
C1161 C1177 1.429 . S
C1161 H1183 0.950 . S
C1162 H1158 0.949 . S
C1162 C1170 1.574 1_455 S
C1162 C1178 1.368 . S
H1163 C1171 0.950 . S
H1164 C1169 0.950 . S
H1165 C1170 0.949 . S
H1166 C1172 0.950 . S
H1167 C1173 0.950 . S
H1168 C1174 0.949 . S
C1169 H1164 0.950 . S
C1169 C1171 1.327 . S
C1169 C1175 1.429 . S
C1170 C1162 1.574 1_655 S
C1170 H1165 0.949 . S
C1170 C1176 1.368 . S
C1171 C1155 1.349 . S
C1171 H1163 0.950 . S
C1171 C1169 1.327 . S
C1172 C1160 1.349 . S
C1172 H1166 0.950 . S
C1172 C1173 1.327 . S
C1173 H1167 0.950 . S
C1173 C1172 1.327 . S
C1173 C1177 1.429 . S
C1174 C1157 1.574 1_455 S
C1174 H1168 0.949 . S
C1174 C1178 1.368 . S
C1175 C1156 1.429 . S
C1175 C1169 1.429 . S
C1175 C1176 1.523 . S
C1176 C1157 1.368 . S
C1176 C1170 1.368 . S
C1176 C1175 1.523 . S
C1177 C1161 1.429 . S
C1177 C1173 1.429 . S
C1177 C1178 1.523 . S
C1178 C1162 1.368 . S
C1178 C1174 1.368 . S
C1178 C1177 1.523 . S
H1179 C1154 0.950 . S
H1180 C1156 0.950 . S
H1181 C1157 0.949 . S
H1182 C1159 0.950 . S
H1183 C1161 0.950 . S
C225 C7 1.591 . S
C230 C35 1.591 . S
C255 C21 1.591 . S
C260 C49 1.591 . S
C285 C63 1.591 . S
C290 C91 1.591 . S
C315 C105 1.591 . S
C320 C77 1.591 . S
C345 C119 1.591 . S
C350 C147 1.591 . S
C375 C161 1.591 . S
C380 C133 1.591 . S
C405 C203 1.591 . S
C410 C175 1.591 . S
C435 C217 1.591 . S
C440 C189 1.591 . S
C465 C106 1.574 . S
C470 C8 1.574 1_655 S
C495 C22 1.574 1_565 S
C500 C64 1.574 1_655 S
C525 C78 1.574 1_565 S
C530 C36 1.574 . S
C555 C50 1.574 . S
C560 C92 1.574 . S
C585 C218 1.574 . S
C590 C120 1.574 1_455 S
C615 C134 1.574 1_545 S
C620 C176 1.574 1_455 S
C645 C148 1.574 . S
C650 C190 1.574 1_545 S
C675 C204 1.574 . S
C680 C162 1.574 . S
C705 C9 0.660 . S
C710 C65 0.660 . S
C735 C23 0.660 . S
C740 C79 0.660 . S
C765 C93 0.660 . S
C770 C37 0.660 . S
C795 C51 0.660 . S
C800 C107 0.660 . S
C825 C177 0.660 . S
C830 C121 0.660 . S
C855 C191 0.660 . S
C860 C135 0.660 . S
C885 C149 0.660 . S
C890 C205 0.660 . S
C915 C163 0.660 . S
C920 C219 0.660 . S
C945 C6 1.738 . S
C950 C118 1.738 . S
C975 C132 1.738 . S
C980 C20 1.738 . S
C1005 C34 1.738 . S
C1010 C146 1.738 . S
C1035 C160 1.738 . S
C1040 C48 1.738 . S
C1065 C62 1.738 . S
C1070 C174 1.738 . S
C1095 C76 1.738 . S
C1100 C188 1.738 . S
C1125 C202 1.738 . S
C1130 C90 1.738 . S
C1155 C104 1.738 . S
C1160 C216 1.738 . S
