# Generated by pormake.
# Topology whw, (6)-cn, num edge types: 1
# Building blocks:
#     Node 0, Type 0, BuildingBlock: BETGAK_clean_sbu_0, # of connection points: 6
#     Node 1, Type 0, BuildingBlock: BETGAK_clean_sbu_0, # of connection points: 6
#     Node 2, Type 0, BuildingBlock: BETGAK_clean_sbu_0, # of connection points: 6
#     Node 3, Type 0, BuildingBlock: BETGAK_clean_sbu_0, # of connection points: 6
#     Node 4, Type 0, BuildingBlock: BETGAK_clean_sbu_0, # of connection points: 6
#     Node 5, Type 0, BuildingBlock: BETGAK_clean_sbu_0, # of connection points: 6
#     Node 6, Type 0, BuildingBlock: BETGAK_clean_sbu_0, # of connection points: 6
#     Node 7, Type 0, BuildingBlock: BETGAK_clean_sbu_0, # of connection points: 6
#     Node 8, Type 0, BuildingBlock: BETGAK_clean_sbu_0, # of connection points: 6
#     Node 9, Type 0, BuildingBlock: BETGAK_clean_sbu_0, # of connection points: 6
#     Node 10, Type 0, BuildingBlock: BETGAK_clean_sbu_0, # of connection points: 6
#     Node 11, Type 0, BuildingBlock: BETGAK_clean_sbu_0, # of connection points: 6
#     Node 12, Type 0, BuildingBlock: BETGAK_clean_sbu_0, # of connection points: 6
#     Node 13, Type 0, BuildingBlock: BETGAK_clean_sbu_0, # of connection points: 6
#     Node 14, Type 0, BuildingBlock: BETGAK_clean_sbu_0, # of connection points: 6
#     Node 15, Type 0, BuildingBlock: BETGAK_clean_sbu_0, # of connection points: 6
#     Edge 16, Type (0, 0), BuildingBlock: CIFDUS_clean_linker_0, # of connection points: 2
#     Edge 17, Type (0, 0), BuildingBlock: CIFDUS_clean_linker_0, # of connection points: 2
#     Edge 18, Type (0, 0), BuildingBlock: CIFDUS_clean_linker_0, # of connection points: 2
#     Edge 19, Type (0, 0), BuildingBlock: CIFDUS_clean_linker_0, # of connection points: 2
#     Edge 20, Type (0, 0), BuildingBlock: CIFDUS_clean_linker_0, # of connection points: 2
#     Edge 21, Type (0, 0), BuildingBlock: CIFDUS_clean_linker_0, # of connection points: 2
#     Edge 22, Type (0, 0), BuildingBlock: CIFDUS_clean_linker_0, # of connection points: 2
#     Edge 23, Type (0, 0), BuildingBlock: CIFDUS_clean_linker_0, # of connection points: 2
#     Edge 24, Type (0, 0), BuildingBlock: CIFDUS_clean_linker_0, # of connection points: 2
#     Edge 25, Type (0, 0), BuildingBlock: CIFDUS_clean_linker_0, # of connection points: 2
#     Edge 26, Type (0, 0), BuildingBlock: CIFDUS_clean_linker_0, # of connection points: 2
#     Edge 27, Type (0, 0), BuildingBlock: CIFDUS_clean_linker_0, # of connection points: 2
#     Edge 28, Type (0, 0), BuildingBlock: CIFDUS_clean_linker_0, # of connection points: 2
#     Edge 29, Type (0, 0), BuildingBlock: CIFDUS_clean_linker_0, # of connection points: 2
#     Edge 30, Type (0, 0), BuildingBlock: CIFDUS_clean_linker_0, # of connection points: 2
#     Edge 31, Type (0, 0), BuildingBlock: CIFDUS_clean_linker_0, # of connection points: 2
#     Edge 32, Type (0, 0), BuildingBlock: CIFDUS_clean_linker_0, # of connection points: 2
#     Edge 33, Type (0, 0), BuildingBlock: CIFDUS_clean_linker_0, # of connection points: 2
#     Edge 34, Type (0, 0), BuildingBlock: CIFDUS_clean_linker_0, # of connection points: 2
#     Edge 35, Type (0, 0), BuildingBlock: CIFDUS_clean_linker_0, # of connection points: 2
#     Edge 36, Type (0, 0), BuildingBlock: CIFDUS_clean_linker_0, # of connection points: 2
#     Edge 37, Type (0, 0), BuildingBlock: CIFDUS_clean_linker_0, # of connection points: 2
#     Edge 38, Type (0, 0), BuildingBlock: CIFDUS_clean_linker_0, # of connection points: 2
#     Edge 39, Type (0, 0), BuildingBlock: CIFDUS_clean_linker_0, # of connection points: 2
#     Edge 40, Type (0, 0), BuildingBlock: CIFDUS_clean_linker_0, # of connection points: 2
#     Edge 41, Type (0, 0), BuildingBlock: CIFDUS_clean_linker_0, # of connection points: 2
#     Edge 42, Type (0, 0), BuildingBlock: CIFDUS_clean_linker_0, # of connection points: 2
#     Edge 43, Type (0, 0), BuildingBlock: CIFDUS_clean_linker_0, # of connection points: 2
#     Edge 44, Type (0, 0), BuildingBlock: CIFDUS_clean_linker_0, # of connection points: 2
#     Edge 45, Type (0, 0), BuildingBlock: CIFDUS_clean_linker_0, # of connection points: 2
#     Edge 46, Type (0, 0), BuildingBlock: CIFDUS_clean_linker_0, # of connection points: 2
#     Edge 47, Type (0, 0), BuildingBlock: CIFDUS_clean_linker_0, # of connection points: 2
#     Edge 48, Type (0, 0), BuildingBlock: CIFDUS_clean_linker_0, # of connection points: 2
#     Edge 49, Type (0, 0), BuildingBlock: CIFDUS_clean_linker_0, # of connection points: 2
#     Edge 50, Type (0, 0), BuildingBlock: CIFDUS_clean_linker_0, # of connection points: 2
#     Edge 51, Type (0, 0), BuildingBlock: CIFDUS_clean_linker_0, # of connection points: 2
#     Edge 52, Type (0, 0), BuildingBlock: CIFDUS_clean_linker_0, # of connection points: 2
#     Edge 53, Type (0, 0), BuildingBlock: CIFDUS_clean_linker_0, # of connection points: 2
#     Edge 54, Type (0, 0), BuildingBlock: CIFDUS_clean_linker_0, # of connection points: 2
#     Edge 55, Type (0, 0), BuildingBlock: CIFDUS_clean_linker_0, # of connection points: 2
#     Edge 56, Type (0, 0), BuildingBlock: CIFDUS_clean_linker_0, # of connection points: 2
#     Edge 57, Type (0, 0), BuildingBlock: CIFDUS_clean_linker_0, # of connection points: 2
#     Edge 58, Type (0, 0), BuildingBlock: CIFDUS_clean_linker_0, # of connection points: 2
#     Edge 59, Type (0, 0), BuildingBlock: CIFDUS_clean_linker_0, # of connection points: 2
#     Edge 60, Type (0, 0), BuildingBlock: CIFDUS_clean_linker_0, # of connection points: 2
#     Edge 61, Type (0, 0), BuildingBlock: CIFDUS_clean_linker_0, # of connection points: 2
#     Edge 62, Type (0, 0), BuildingBlock: CIFDUS_clean_linker_0, # of connection points: 2
#     Edge 63, Type (0, 0), BuildingBlock: CIFDUS_clean_linker_0, # of connection points: 2
# Relax obj value: 0.495
# Max RMSD: 0.255
# Mean RMSD: 0.226
data_MOF--net-whw--node1-BETGAK_clean_sbu_0--edge1-CIFDUS_clean_linker_0
_symmetry_space_group_name_H-M    P1
_symmetry_Int_Tables_number       1
_symmetry_cell_setting            triclinic
loop_
_symmetry_equiv_pos_as_xyz
'x, y, z'
_cell_length_a     41.843589
_cell_length_b     41.132623
_cell_length_c     30.081167
_cell_angle_alpha  89.421398
_cell_angle_beta   104.11934
_cell_angle_gamma 98.490659
loop_
_atom_site_label
_atom_site_type_symbol
_atom_site_fract_x
_atom_site_fract_y
_atom_site_fract_z
_atom_type_partial_charge
La0 La 0.08195 0.13258 0.19345 0.0
La1 La 0.01108 0.11883 0.19567 0.0
C2 C 0.14002 0.12253 0.19335 0.0
C3 C 0.15801 0.11413 0.15959 0.0
C4 C 0.16585 0.13712 0.12765 0.0
C5 C 0.18156 0.1285 0.09467 0.0
C6 C 0.18997 0.09674 0.09291 0.0
C7 C 0.18319 0.07407 0.12588 0.0
C8 C 0.16746 0.08276 0.15907 0.0
C9 C 0.05778 0.1843 0.21083 0.0
C10 C 0.02716 0.15409 0.10841 0.0
C11 C 0.95534 0.10652 0.21394 0.0
C12 C 0.94458 0.10911 0.25627 0.0
C13 C 0.92044 0.08458 0.26602 0.0
C14 C 0.91414 0.0834 0.30952 0.0
C15 C 0.93205 0.10675 0.34373 0.0
C16 C 0.95511 0.1322 0.33302 0.0
C17 C 0.96149 0.13325 0.28972 0.0
C18 C 0.02906 0.07568 0.14432 0.0
C19 C 0.06845 0.1261 0.29474 0.0
O20 O 0.13068 0.1516 0.19076 0.0
O21 O 0.11678 0.09973 0.2009 0.0
O22 O 0.08253 0.18594 0.19149 0.0
O23 O 0.05055 0.15569 0.22295 0.0
O24 O 0.05605 0.14194 0.12098 0.0
O25 O 0.00702 0.15231 0.13683 0.0
O26 O 0.97518 0.08452 0.21489 0.0
O27 O 0.96565 0.1343 0.19633 0.0
O28 O 1.00134 0.08723 0.13458 0.0
O29 O 0.04596 0.08808 0.18301 0.0
O30 O 0.03614 0.119 0.27223 0.0
O31 O 0.09113 0.13241 0.27015 0.0
H32 H 0.15915 0.16159 0.12726 0.0
H33 H 0.1857 0.14637 0.06919 0.0
H34 H 0.18945 0.04947 0.12544 0.0
H35 H 0.16208 0.06473 0.18378 0.0
H36 H 0.90754 0.06552 0.24065 0.0
H37 H 0.89637 0.06345 0.31693 0.0
H38 H 0.96878 0.15091 0.35845 0.0
H39 H 0.98051 0.15221 0.28298 0.0
La40 La 0.14214 0.77373 0.37846 0.0
La41 La 0.13709 0.70326 0.35453 0.0
C42 C 0.14129 0.82985 0.41008 0.0
C43 C 0.13051 0.84076 0.44932 0.0
C44 C 0.14134 0.87285 0.4673 0.0
C45 C 0.13315 0.8822 0.50715 0.0
C46 C 0.11375 0.85955 0.52882 0.0
C47 C 0.10219 0.82775 0.50986 0.0
C48 C 0.1108 0.81837 0.47065 0.0
C49 C 0.19289 0.7593 0.34748 0.0
C50 C 0.14039 0.71994 0.45908 0.0
C51 C 0.15027 0.64865 0.33344 0.0
C52 C 0.16542 0.63197 0.30278 0.0
C53 C 0.14814 0.60233 0.28147 0.0
C54 C 0.16082 0.58617 0.25077 0.0
C55 C 0.1913 0.59927 0.24073 0.0
C56 C 0.20984 0.62781 0.26498 0.0
C57 C 0.19689 0.64416 0.29558 0.0
C58 C 0.08288 0.71921 0.37293 0.0
C59 C 0.11402 0.75512 0.27384 0.0
O60 O 0.16736 0.81456 0.42045 0.0
O61 O 0.11748 0.81457 0.37721 0.0
O62 O 0.1798 0.7859 0.33999 0.0
O63 O 0.1788 0.74196 0.37459 0.0
O64 O 0.13872 0.75066 0.44529 0.0
O65 O 0.14331 0.69721 0.4298 0.0
O66 O 0.12193 0.65918 0.31524 0.0
O67 O 0.17041 0.66928 0.36432 0.0
O68 O 0.09194 0.69044 0.38052 0.0
O69 O 0.10252 0.73571 0.35308 0.0
O70 O 0.12554 0.72637 0.28444 0.0
O71 O 0.11433 0.77622 0.30703 0.0
H72 H 0.15681 0.8903 0.4513 0.0
H73 H 0.14252 0.90677 0.52164 0.0
H74 H 0.0879 0.80966 0.52666 0.0
H75 H 0.1029 0.79334 0.45777 0.0
H76 H 0.12413 0.59221 0.28734 0.0
H77 H 0.14528 0.56468 0.23251 0.0
H78 H 0.23352 0.63843 0.25858 0.0
H79 H 0.21106 0.66669 0.31256 0.0
La80 La 0.50885 0.89221 0.74007 0.0
La81 La 0.54204 0.86644 0.6626 0.0
C82 C 0.49714 0.89096 0.82078 0.0
C83 C 0.48446 0.87083 0.8584 0.0
C84 C 0.4586 0.87965 0.87656 0.0
C85 C 0.44989 0.86422 0.9157 0.0
C86 C 0.46669 0.83911 0.93924 0.0
C87 C 0.49249 0.83029 0.92062 0.0
C88 C 0.5011 0.84565 0.88159 0.0
C89 C 0.51492 0.93261 0.67063 0.0
C90 C 0.58923 0.90592 0.74742 0.0
C91 C 0.55591 0.84723 0.59004 0.0
C92 C 0.56412 0.83427 0.54744 0.0
C93 C 0.5665 0.8007 0.54252 0.0
C94 C 0.57349 0.78798 0.50297 0.0
C95 C 0.57814 0.80807 0.46582 0.0
C96 C 0.5759 0.84185 0.47096 0.0
C97 C 0.56912 0.85465 0.5109 0.0
C98 C 0.54287 0.83461 0.73838 0.0
C99 C 0.46307 0.8552 0.65373 0.0
O100 O 0.47672 0.9001 0.78374 0.0
O101 O 0.52464 0.88492 0.81127 0.0
O102 O 0.49502 0.93567 0.69754 0.0
O103 O 0.53224 0.91114 0.68766 0.0
O104 O 0.5631 0.90667 0.76545 0.0
O105 O 0.58689 0.89462 0.7052 0.0
O106 O 0.54693 0.82744 0.62077 0.0
O107 O 0.5573 0.8785 0.60054 0.0
O108 O 0.56549 0.83469 0.7155 0.0
O109 O 0.51935 0.84803 0.71595 0.0
O110 O 0.48804 0.86037 0.6332 0.0
O111 O 0.46652 0.86085 0.6979 0.0
H112 H 0.44535 0.89923 0.86098 0.0
H113 H 0.42975 0.87219 0.92738 0.0
H114 H 0.50711 0.81191 0.93694 0.0
H115 H 0.52167 0.83819 0.8703 0.0
H116 H 0.56305 0.78398 0.56956 0.0
H117 H 0.5756 0.76211 0.50212 0.0
H118 H 0.57878 0.85856 0.44374 0.0
H119 H 0.5674 0.88058 0.51286 0.0
La120 La 0.4069 0.23441 0.99468 0.0
La121 La 0.41696 0.30131 0.9659 0.0
C122 C 0.39947 0.17972 1.03208 0.0
C123 C 0.395 0.169 0.07707 0.0
C124 C 0.37144 0.14141 0.07936 0.0
C125 C 0.36478 0.13205 0.12131 0.0
C126 C 0.38158 0.15023 0.16166 0.0
C127 C 0.40487 0.17819 0.15904 0.0
C128 C 0.41146 0.18754 0.11709 0.0
C129 C 0.35615 0.24867 0.92947 0.0
C130 C 0.42161 0.29341 0.07283 0.0
C131 C 0.40743 0.35417 0.92536 0.0
C132 C 0.39019 0.36363 0.87946 0.0
C133 C 0.40844 0.3834 0.85333 0.0
C134 C 0.39379 0.38958 0.80787 0.0
C135 C 0.36051 0.3761 0.78768 0.0
C136 C 0.34164 0.35795 0.81475 0.0
C137 C 0.35635 0.35191 0.86036 0.0
C138 C 0.47349 0.28245 1.01225 0.0
C139 C 0.42915 0.2429 0.90173 0.0
O140 O 0.37494 0.19356 1.00811 0.0
O141 O 0.42865 0.1956 1.03007 0.0
O142 O 0.36837 0.22161 0.93257 0.0
O143 O 0.37191 0.26752 0.96406 0.0
O144 O 0.41512 0.26139 1.06202 0.0
O145 O 0.42127 0.31475 1.03928 0.0
O146 O 0.43372 0.33995 0.92722 0.0
O147 O 0.3887 0.33981 0.95118 0.0
O148 O 0.46634 0.31205 1.01318 0.0
O149 O 0.44911 0.26577 0.98512 0.0
O150 O 0.42149 0.27343 0.90321 0.0
O151 O 0.4295 0.22421 0.93827 0.0
H152 H 0.35801 0.12721 1.04856 0.0
H153 H 0.34667 0.11047 0.12224 0.0
H154 H 0.4188 0.19233 0.18963 0.0
H155 H 0.42945 0.20917 0.11603 0.0
H156 H 0.4345 0.39293 0.86751 0.0
H157 H 0.40923 0.40321 0.7878 0.0
H158 H 0.3159 0.34747 0.80023 0.0
H159 H 0.34152 0.33728 0.88013 0.0
La160 La 0.04165 0.86962 0.9404 0.0
La161 La 0.97174 0.85625 0.94716 0.0
C162 C 0.09706 0.88308 0.92074 0.0
C163 C 0.10857 0.87827 0.8796 0.0
C164 C 0.13282 0.90209 0.86868 0.0
C165 C 0.13958 0.90134 0.82557 0.0
C166 C 0.12207 0.87671 0.79297 0.0
C167 C 0.09912 0.85184 0.80512 0.0
C168 C 0.09223 0.85277 0.84801 0.0
C169 C 0.024 0.91541 0.98765 0.0
C170 C 0.98224 0.85837 0.84587 0.0
C171 C 0.91651 0.86356 0.96169 0.0
C172 C 0.90377 0.88037 0.99464 0.0
C173 C 0.86933 0.87955 0.98755 0.0
C174 C 0.85661 0.89488 1.0192 0.0
C175 C 0.87828 0.91122 1.05833 0.0
C176 C 0.91295 0.91331 1.06396 0.0
C177 C 0.92561 0.89796 1.0323 0.0
C178 C 0.9909 0.80652 0.91257 0.0
C179 C 0.0306 0.8373 1.03189 0.0
O180 O 0.0752 0.9034 0.91569 0.0
O181 O 0.08868 0.85661 0.94232 0.0
O182 O 0.05207 0.90454 0.99765 0.0
O183 O 0.00624 0.90109 0.95055 0.0
O184 O 0.01474 0.85998 0.86563 0.0
O185 O 0.9613 0.86148 0.8719 0.0
O186 O 0.93209 0.83866 0.97664 0.0
O187 O 0.93208 0.88311 0.93666 0.0
O188 O 0.95986 0.81046 0.90466 0.0
O189 O 0.00784 0.82695 0.94281 0.0
O190 O 1.00018 0.8464 1.01877 0.0
O191 O 0.0506 0.8404 1.00324 0.0
H192 H 0.1453 0.92217 0.89262 0.0
H193 H 0.15722 0.92093 0.817 0.0
H194 H 0.08572 0.83222 0.78096 0.0
H195 H 0.07313 0.83439 0.85563 0.0
H196 H 0.85226 0.86649 0.95803 0.0
H197 H 0.82985 0.893 1.01395 0.0
H198 H 0.93031 0.92521 0.09414 0.0
H199 H 0.95234 0.89908 1.03776 0.0
La200 La 0.41301 0.78551 0.28375 0.0
La201 La 0.41748 0.71767 0.25641 0.0
C202 C 0.39183 0.834 0.31073 0.0
C203 C 0.37397 0.83921 0.34568 0.0
C204 C 0.3793 0.86999 0.36767 0.0
C205 C 0.36753 0.8736 0.40665 0.0
C206 C 0.3501 0.84638 0.42401 0.0
C207 C 0.34121 0.8167 0.39817 0.0
C208 C 0.35387 0.81292 0.36009 0.0
C209 C 0.47141 0.77783 0.27027 0.0
C210 C 0.43725 0.73273 0.36241 0.0
C211 C 0.42695 0.66395 0.22655 0.0
C212 C 0.44103 0.65406 0.19003 0.0
C213 C 0.43802 0.62069 0.17861 0.0
C214 C 0.44803 0.61128 0.14034 0.0
C215 C 0.46122 0.63526 0.11344 0.0
C216 C 0.46602 0.66858 0.12672 0.0
C217 C 0.45577 0.67791 0.16469 0.0
C218 C 0.36143 0.72423 0.28071 0.0
C219 C 0.41563 0.77475 0.17978 0.0
O220 O 0.42237 0.82779 0.32628 0.0
O221 O 0.37501 0.81444 0.27621 0.0
O222 O 0.45895 0.80504 0.26238 0.0
O223 O 0.45226 0.75827 0.28755 0.0
O224 O 0.42261 0.75973 0.35182 0.0
O225 O 0.4418 0.71436 0.32924 0.0
O226 O 0.39904 0.67612 0.21295 0.0
O227 O 0.4481 0.68138 0.26011 0.0
O228 O 0.37714 0.69931 0.28893 0.0
O229 O 0.3762 0.74401 0.25699 0.0
O230 O 0.4222 0.74467 0.19207 0.0
O231 O 0.40724 0.79382 0.20933 0.0
H232 H 0.39461 0.89061 0.35675 0.0
H233 H 0.37515 0.89685 0.42557 0.0
H234 H 0.32735 0.79542 0.41 0.0
H235 H 0.34988 0.7889 0.3439 0.0
H236 H 0.42672 0.60206 0.19812 0.0
H237 H 0.44404 0.58546 0.13046 0.0
H238 H 0.47557 0.68754 0.10603 0.0
H239 H 0.45813 0.70376 0.17315 0.0
La240 La 0.5074 0.12006 0.46918 0.0
La241 La 0.53595 0.09174 0.38849 0.0
C242 C 0.49533 0.14107 0.54229 0.0
C243 C 0.48871 0.15531 0.58547 0.0
C244 C 0.49626 0.18945 0.59583 0.0
C245 C 0.48919 0.20338 0.63463 0.0
C246 C 0.47414 0.18396 0.66532 0.0
C247 C 0.46717 0.14964 0.65544 0.0
C248 C 0.47419 0.13566 0.61636 0.0
C249 C 0.51064 0.15399 0.39596 0.0
C250 C 0.58567 0.11905 0.47763 0.0
C251 C 0.5464 0.09346 0.30709 0.0
C252 C 0.56315 0.10778 0.26922 0.0
C253 C 0.57095 0.14191 0.26214 0.0
C254 C 0.58268 0.154 0.22315 0.0
C255 C 0.5868 0.13267 0.18857 0.0
C256 C 0.57851 0.09856 0.19607 0.0
C257 C 0.56731 0.08663 0.23508 0.0
C258 C 0.52669 0.05095 0.45613 0.0
C259 C 0.4562 0.08501 0.38319 0.0
O260 O 0.50946 0.15963 0.51457 0.0
O261 O 0.48833 0.10985 0.52893 0.0
O262 O 0.4885 0.15572 0.41907 0.0
O263 O 0.53179 0.13716 0.41688 0.0
O264 O 0.56061 0.11748 0.49809 0.0
O265 O 0.58176 0.11527 0.433 0.0
O266 O 0.56064 0.07498 0.3399 0.0
O267 O 0.52613 0.10999 0.3212 0.0
O268 O 0.54597 0.04658 0.42883 0.0
O269 O 0.51135 0.07422 0.44058 0.0
O270 O 0.48128 0.08116 0.36435 0.0
O271 O 0.46014 0.0971 0.42543 0.0
H272 H 0.50757 0.20573 0.57358 0.0
H273 H 0.49582 0.2297 0.64057 0.0
H274 H 0.45546 0.13343 0.67735 0.0
H275 H 0.46786 0.10935 0.61009 0.0
H276 H 0.56762 0.15947 0.28659 0.0
H277 H 0.58851 0.18032 0.22038 0.0
H278 H 0.57967 0.08037 0.17111 0.0
H279 H 0.5608 0.06032 0.23775 0.0
La280 La 0.14186 0.18643 0.66914 0.0
La281 La 0.14799 0.25506 0.64255 0.0
C282 C 0.15493 0.1338 0.70802 0.0
C283 C 0.17174 0.12346 0.75375 0.0
C284 C 0.15252 0.10597 0.78077 0.0
C285 C 0.1673 0.09783 0.8253 0.0
C286 C 0.20177 0.10675 0.84376 0.0
C287 C 0.22133 0.12288 0.81591 0.0
C288 C 0.20646 0.131 0.77117 0.0
C289 C 0.08382 0.20324 0.62454 0.0
C290 C 0.12561 0.24133 0.73482 0.0
C291 C 0.15178 0.31066 0.60684 0.0
C292 C 0.15221 0.32371 0.56142 0.0
C293 C 0.17117 0.35436 0.55847 0.0
C294 C 0.17267 0.36718 0.51576 0.0
C295 C 0.15517 0.34951 0.47523 0.0
C296 C 0.13697 0.31827 0.47844 0.0
C297 C 0.13557 0.30544 0.52121 0.0
C298 C 0.19969 0.24178 0.70715 0.0
C299 C 0.13658 0.19719 0.56331 0.0
O300 O 0.12705 0.14546 0.7053 0.0
O301 O 0.17364 0.15078 0.68416 0.0
O302 O 0.09207 0.1741 0.62298 0.0
O303 O 0.10806 0.22035 0.65113 0.0
O304 O 0.13543 0.21193 0.73186 0.0
O305 O 0.12451 0.26165 0.69978 0.0
O306 O 0.17761 0.29665 0.62598 0.0
O307 O 0.12376 0.29392 0.61203 0.0
O308 O 0.18642 0.26823 0.70486 0.0
O309 O 0.18471 0.22338 0.67183 0.0
O310 O 0.14043 0.22906 0.5745 0.0
O311 O 0.13887 0.17525 0.59611 0.0
H312 H 0.12579 0.09944 0.76793 0.0
H313 H 0.1513 0.08597 0.84596 0.0
H314 H 0.24796 0.12985 0.82903 0.0
H315 H 0.22208 0.1437 0.75068 0.0
H316 H 0.18469 0.36848 0.58928 0.0
H317 H 0.18707 0.39116 0.51442 0.0
H318 H 0.12273 0.30427 0.4479 0.0
H319 H 0.12114 0.28152 0.5228 0.0
La320 La 0.92415 0.29047 0.78544 0.0
La321 La 0.91948 0.22084 0.75899 0.0
C322 C 0.90903 0.34391 0.80753 0.0
C323 C 0.89078 0.35851 0.83602 0.0
C324 C 0.90441 0.38925 0.8569 0.0
C325 C 0.88883 0.4033 0.88613 0.0
C326 C 0.85913 0.38679 0.89516 0.0
C327 C 0.84395 0.35724 0.87072 0.0
C328 C 0.85984 0.34304 0.84168 0.0
C329 C 0.97843 0.27838 0.76311 0.0
C330 C 0.94858 0.23776 0.86393 0.0
C331 C 0.91662 0.16433 0.72519 0.0
C332 C 0.92469 0.15174 0.68469 0.0
C333 C 0.91605 0.11829 0.6721 0.0
C334 C 0.9228 0.10671 0.63229 0.0
C335 C 0.93872 0.12852 0.60549 0.0
C336 C 0.94743 0.16188 0.6184 0.0
C337 C 0.94017 0.1734 0.6575 0.0
C338 C 0.86923 0.23467 0.7921 0.0
C339 C 0.91996 0.27573 0.67993 0.0
O340 O 0.93658 0.33289 0.82842 0.0
O341 O 0.89098 0.32453 0.77356 0.0
O342 O 0.96907 0.3071 0.76168 0.0
O343 O 0.95975 0.25924 0.78219 0.0
O344 O 0.93625 0.26618 0.85438 0.0
O345 O 0.94859 0.21747 0.8299 0.0
O346 O 0.89171 0.18117 0.71666 0.0
O347 O 0.94201 0.17881 0.7566 0.0
O348 O 0.88331 0.20873 0.80031 0.0
O349 O 0.88269 0.25189 0.76443 0.0
O350 O 0.92196 0.24485 0.69264 0.0
O351 O 0.91727 0.29786 0.71021 0.0
H352 H 0.92791 0.40187 0.85205 0.0
H353 H 0.9018 0.42582 0.90442 0.0
H354 H 0.82092 0.34404 0.87624 0.0
H355 H 0.84851 0.31959 0.8249 0.0
H356 H 0.90373 0.10132 0.69261 0.0
H357 H 0.9155 0.08094 0.62228 0.0
H358 H 0.95912 0.17919 0.59759 0.0
H359 H 0.94662 0.19924 0.66643 0.0
La360 La 0.6357 0.69729 0.16529 0.0
La361 La 0.65497 0.76431 0.14029 0.0
C362 C 0.63581 0.64076 0.19807 0.0
C363 C 0.64903 0.6239 0.24029 0.0
C364 C 0.627 0.60148 0.25789 0.0
C365 C 0.63825 0.58618 0.29907 0.0
C366 C 0.6719 0.59289 0.32334 0.0
C367 C 0.69435 0.61399 0.30421 0.0
C368 C 0.68298 0.62949 0.26309 0.0
C369 C 0.58371 0.72522 0.11969 0.0
C370 C 0.63125 0.75553 0.23352 0.0
C371 C 0.66885 0.82071 0.11037 0.0
C372 C 0.66997 0.8383 1.0682 0.0
C373 C 0.684 0.87155 0.07153 0.0
C374 C 0.68525 0.88923 1.03202 0.0
C375 C 0.67255 0.87381 0.98857 0.0
C376 C 0.6594 0.84011 0.98549 0.0
C377 C 0.65814 0.82244 1.0251 0.0
C378 C 0.7012 0.74417 0.20696 0.0
C379 C 0.63403 0.70609 1.05996 0.0
O380 O 0.61314 0.65926 0.19957 0.0
O381 O 0.65732 0.65426 0.17559 0.0
O382 O 0.58656 0.69436 0.11697 0.0
O383 O 0.60986 0.73804 0.14741 0.0
O384 O 0.63357 0.72367 0.22932 0.0
O385 O 0.63487 0.77567 0.19934 0.0
O386 O 0.69019 0.80003 0.12205 0.0
O387 O 0.63937 0.80899 0.11647 0.0
O388 O 0.69321 0.77318 0.20287 0.0
O389 O 0.68435 0.72648 0.1716 0.0
O390 O 0.64323 0.73802 0.07133 0.0
O391 O 0.63193 0.6847 0.09265 0.0
H392 H 0.60079 0.59657 0.24047 0.0
H393 H 0.62009 0.57059 0.31307 0.0
H394 H 0.72047 0.61942 0.32184 0.0
H395 H 0.70058 0.64632 0.24977 0.0
H396 H 0.69364 0.88395 0.10475 0.0
H397 H 0.69559 0.91509 1.03539 0.0
H398 H 0.64885 0.8277 0.95243 0.0
H399 H 0.64748 0.79667 1.02207 0.0
La400 La 0.64576 0.27646 0.88467 0.0
La401 La 0.64167 0.20837 0.855 0.0
C402 C 0.65203 0.33382 0.91725 0.0
C403 C 0.64699 0.35134 0.95608 0.0
C404 C 0.65944 0.38492 0.96275 0.0
C405 C 0.65651 0.40184 1.00112 0.0
C406 C 0.64068 0.38529 1.03268 0.0
C407 C 0.62788 0.35167 1.02551 0.0
C408 C 0.63134 0.3347 0.98759 0.0
C409 C 0.69689 0.2643 0.85225 0.0
C410 C 0.64124 0.21982 0.96034 0.0
C411 C 0.65831 0.15826 0.82481 0.0
C412 C 0.67571 0.15301 0.78933 0.0
C413 C 0.66509 0.12498 0.76073 0.0
C414 C 0.67554 0.12346 0.72031 0.0
C415 C 0.69673 0.15013 0.70792 0.0
C416 C 0.71062 0.17622 0.73974 0.0
C417 C 0.69975 0.1778 0.7798 0.0
C418 C 0.58636 0.21814 0.87555 0.0
C419 C 0.61682 0.26289 0.77938 0.0
O420 O 0.67533 0.31505 0.9271 0.0
O421 O 0.62519 0.31963 0.88797 0.0
O422 O 0.68149 0.28922 0.8429 0.0
O423 O 0.68329 0.2463 0.87907 0.0
O424 O 0.63973 0.25109 0.9489 0.0
O425 O 0.6461 0.19874 0.92993 0.0
O426 O 0.62896 0.16742 0.80971 0.0
O427 O 0.67618 0.17553 0.86109 0.0
O428 O 0.5963 0.18968 0.87597 0.0
O429 O 0.60529 0.23864 0.85836 0.0
O430 O 0.62925 0.23445 0.78712 0.0
O431 O 0.61633 0.28165 0.81466 0.0
H432 H 0.67188 0.39789 0.93866 0.0
H433 H 0.66664 0.42771 1.00627 0.0
H434 H 0.61607 0.33833 1.04994 0.0
H435 H 0.62218 0.30864 0.98305 0.0
H436 H 0.64663 0.1055 0.76768 0.0
H437 H 0.66401 0.10297 0.69669 0.0
H438 H 0.72731 0.19689 0.73165 0.0
H439 H 0.70816 0.19952 0.80151 0.0
La440 La 0.90345 0.73072 0.49977 0.0
La441 La 0.91614 0.7973 0.46822 0.0
C442 C 0.89421 0.67706 0.53882 0.0
C443 C 0.89463 0.66553 0.58535 0.0
C444 C 0.91074 0.63864 0.60099 0.0
C445 C 0.91053 0.62641 0.64431 0.0
C446 C 0.89381 0.64059 0.67278 0.0
C447 C 0.87748 0.66752 0.65685 0.0
C448 C 0.878 0.67998 0.6136 0.0
C449 C 0.85424 0.74553 0.43244 0.0
C450 C 0.92095 0.7919 0.57476 0.0
C451 C 0.90868 0.85109 0.42938 0.0
C452 C 0.89195 0.86413 0.38556 0.0
C453 C 0.91146 0.88243 0.35966 0.0
C454 C 0.89655 0.89456 0.31757 0.0
C455 C 0.8617 0.88877 0.30056 0.0
C456 C 0.84202 0.87148 0.32733 0.0
C457 C 0.85703 0.85944 0.36967 0.0
C458 C 0.97129 0.77662 0.51759 0.0
C459 C 0.92742 0.73769 0.40703 0.0
O460 O 0.87051 0.69415 0.52055 0.0
O461 O 0.92291 0.68925 0.53055 0.0
O462 O 0.86491 0.71765 0.43757 0.0
O463 O 0.87036 0.76473 0.46641 0.0
O464 O 0.91514 0.75949 0.56674 0.0
O465 O 0.91958 0.81191 0.53982 0.0
O466 O 0.93353 0.83519 0.42886 0.0
O467 O 0.88958 0.83699 0.45488 0.0
O468 O 0.96557 0.80685 0.51594 0.0
O469 O 0.94643 0.76056 0.49074 0.0
O470 O 0.92174 0.76887 0.40771 0.0
O471 O 0.92521 0.71872 0.44284 0.0
H472 H 0.92366 0.62716 0.57973 0.0
H473 H 0.92426 0.60629 0.65585 0.0
H474 H 0.86435 0.679 0.67778 0.0
H475 H 0.8653 0.70081 0.60228 0.0
H476 H 0.9384 0.88678 0.37156 0.0
H477 H 0.91255 0.90714 0.29742 0.0
H478 H 0.81513 0.86673 0.31512 0.0
H479 H 0.84129 0.8462 0.38955 0.0
La480 La 0.5735 0.63316 0.6952 0.0
La481 La 0.50296 0.61874 0.69713 0.0
C482 C 0.62995 0.62848 0.68274 0.0
C483 C 0.64485 0.61686 0.648 0.0
C484 C 0.67953 0.62279 0.65476 0.0
C485 C 0.6942 0.61432 0.62044 0.0
C486 C 0.67427 0.59979 0.57891 0.0
C487 C 0.63954 0.59239 0.57332 0.0
C488 C 0.6249 0.60092 0.60767 0.0
C489 C 0.55279 0.68138 0.7301 0.0
C490 C 0.51669 0.65201 0.60756 0.0
C491 C 0.44648 0.60671 0.71367 0.0
C492 C 0.4356 0.6096 0.75596 0.0
C493 C 0.41932 0.58154 0.77252 0.0
C494 C 0.41639 0.58117 0.8177 0.0
C495 C 0.42961 0.60898 0.84664 0.0
C496 C 0.44328 0.63793 0.82872 0.0
C497 C 0.44644 0.63819 0.7838 0.0
C498 C 0.52306 0.57353 0.65202 0.0
C499 C 0.55997 0.62827 0.795 0.0
O500 O 0.61518 0.6545 0.67255 0.0
O501 O 0.61261 0.60573 0.70167 0.0
O502 O 0.58369 0.67681 0.73996 0.0
O503 O 0.53627 0.66226 0.69779 0.0
O504 O 0.54741 0.64404 0.62287 0.0
O505 O 0.49532 0.64769 0.63415 0.0
O506 O 0.46624 0.58466 0.71504 0.0
O507 O 0.4571 0.63414 0.69578 0.0
O508 O 0.49479 0.58401 0.64004 0.0
O509 O 0.53947 0.58787 0.68981 0.0
O510 O 0.52772 0.62498 0.77293 0.0
O511 O 0.58276 0.62813 0.77094 0.0
H512 H 0.69519 0.63488 0.68606 0.0
H513 H 0.72099 0.62015 0.62569 0.0
H514 H 0.62346 0.58172 0.5414 0.0
H515 H 0.59803 0.59612 0.60218 0.0
H516 H 0.41096 0.5592 0.75151 0.0
H517 H 0.40571 0.55856 0.83071 0.0
H518 H 0.45289 0.65997 0.85007 0.0
H519 H 0.45904 0.66019 0.77192 0.0
La520 La 0.99136 0.39042 0.22381 0.0
La521 La 0.01427 0.36413 0.13665 0.0
C522 C 0.97817 0.38115 0.30257 0.0
C523 C 0.97118 0.37232 0.34961 0.0
C524 C 0.9566 0.39269 0.37403 0.0
C525 C 0.94955 0.38345 0.41691 0.0
C526 C 0.9567 0.35329 0.43793 0.0
C527 C 0.97121 0.33295 0.41313 0.0
C528 C 0.97821 0.34219 0.37032 0.0
C529 C 0.01273 0.4353 0.16852 0.0
C530 C 0.06753 0.37839 0.23138 0.0
C531 C 0.02885 0.34928 1.06258 0.0
C532 C 0.03711 0.33837 1.01898 0.0
C533 C 0.03195 0.30476 1.00544 0.0
C534 C 0.0416 0.29416 0.96655 0.0
C535 C 0.05657 0.31674 0.93917 0.0
C536 C 0.06144 0.35038 0.95267 0.0
C537 C 0.0521 0.36092 0.99178 0.0
C538 C 0.99312 0.32135 0.19233 0.0
C539 C 0.94119 0.38343 0.12864 0.0
O540 O 0.97257 0.40791 0.27908 0.0
O541 O 0.99188 0.36138 0.28179 0.0
O542 O 0.99352 0.44084 0.19547 0.0
O543 O 0.02184 0.40769 0.17799 0.0
O544 O 0.04432 0.38734 0.25013 0.0
O545 O 0.06227 0.36966 0.18741 0.0
O546 O 0.00871 0.33014 0.08223 0.0
O547 O 0.03948 0.3782 0.08355 0.0
O548 O 0.01523 0.31708 0.17024 0.0
O549 O 0.98277 0.34786 0.18115 0.0
O550 O 0.96608 0.38143 0.10861 0.0
O551 O 0.94403 0.38143 0.17343 0.0
H552 H 0.95032 0.41588 0.35982 0.0
H553 H 0.93788 0.40009 0.43318 0.0
H554 H 0.97779 0.30981 0.42703 0.0
H555 H 0.98929 0.32539 0.35329 0.0
H556 H 0.0208 0.28639 1.0254 0.0
H557 H 0.03694 0.26815 0.95771 0.0
H558 H 0.07318 0.36882 0.93342 0.0
H559 H 0.05691 0.38689 1.00093 0.0
La560 La 0.555 0.38498 0.43771 0.0
La561 La 0.49124 0.35331 0.44721 0.0
C562 C 0.60514 0.41065 0.41186 0.0
C563 C 0.61102 0.41095 0.366 0.0
C564 C 0.62726 0.43946 0.35041 0.0
C565 C 0.62716 0.44199 0.30402 0.0
C566 C 0.6104 0.41617 0.27296 0.0
C567 C 0.59522 0.38727 0.28914 0.0
C568 C 0.59549 0.38469 0.33524 0.0
C569 C 0.53133 0.41841 0.49458 0.0
C570 C 0.49448 0.36468 0.34282 0.0
C571 C 0.43111 0.34697 0.45109 0.0
C572 C 0.41372 0.3607 0.48135 0.0
C573 C 0.37934 0.35149 0.47534 0.0
C574 C 0.36307 0.36362 0.50562 0.0
C575 C 0.38109 0.38521 0.54208 0.0
C576 C 0.41538 0.39534 0.54664 0.0
C577 C 0.43157 0.38308 0.5166 0.0
C578 C 0.52923 0.31259 0.42775 0.0
C579 C 0.5533 0.34433 0.5281 0.0
O580 O 0.58095 0.4267 0.41519 0.0
O581 O 0.60317 0.38182 0.43114 0.0
O582 O 0.56166 0.41351 0.50043 0.0
O583 O 0.51447 0.40448 0.4567 0.0
O584 O 0.52463 0.38184 0.36248 0.0
O585 O 0.47701 0.34965 0.37055 0.0
O586 O 0.45161 0.32681 0.47 0.0
O587 O 0.44439 0.36849 0.42604 0.0
O588 O 0.5064 0.30442 0.45005 0.0
O589 O 0.52635 0.34058 0.41314 0.0
O590 O 0.52127 0.3484 0.5185 0.0
O591 O 0.5711 0.35345 0.49746 0.0
H592 H 0.63882 0.46016 0.3737 0.0
H593 H 0.63914 0.46443 0.29219 0.0
H594 H 0.58277 0.36674 0.266 0.0
H595 H 0.58241 0.36262 0.34645 0.0
H596 H 0.36525 0.3344 0.44792 0.0
H597 H 0.33666 0.35543 0.50135 0.0
H598 H 0.43013 0.41137 0.5749 0.0
H599 H 0.4582 0.39033 0.52159 0.0
La600 La 0.0446 0.62817 1.00636 0.0
La601 La 0.06312 0.60581 0.91345 0.0
C602 C 0.03607 0.63497 0.08713 0.0
C603 C 0.02064 0.65099 0.12038 0.0
C604 C 0.01763 0.6847 0.12014 0.0
C605 C 0.0063 0.69935 0.15487 0.0
C606 C 0.99794 0.68107 0.19188 0.0
C607 C 1.00101 0.64724 0.19155 0.0
C608 C 0.01195 0.63264 0.15662 0.0
C609 C 0.06747 0.67401 0.95619 0.0
C610 C 0.11419 0.60344 1.00585 0.0
C611 C 0.07604 0.61656 0.83468 0.0
C612 C 0.08308 0.62548 0.78766 0.0
C613 C 0.09667 0.6045 0.76278 0.0
C614 C 0.10438 0.61372 0.7203 0.0
C615 C 0.09871 0.64442 0.69983 0.0
C616 C 0.08508 0.66537 0.72505 0.0
C617 C 0.07759 0.6562 0.76769 0.0
C618 C 0.0403 0.55875 0.96507 0.0
C619 C 0.98928 0.62243 0.91382 0.0
O620 O 0.05932 0.65266 0.07113 0.0
O621 O 0.01784 0.61272 1.05669 0.0
O622 O 0.04745 0.67819 0.98179 0.0
O623 O 0.07542 0.64587 0.96163 0.0
O624 O 0.08983 0.60453 1.0271 0.0
O625 O 0.11121 0.60953 0.96184 0.0
O626 O 0.07691 0.58777 0.85435 0.0
O627 O 0.06718 0.63799 0.85932 0.0
O628 O 0.05864 0.55378 0.93672 0.0
O629 O 0.03331 0.5874 0.95931 0.0
O630 O 0.01077 0.61337 0.89176 0.0
O631 O 0.99617 0.62866 0.95872 0.0
H632 H 0.02441 0.69995 0.09333 0.0
H633 H 0.00413 0.72521 0.15229 0.0
H634 H 0.99589 0.63182 0.21906 0.0
H635 H 0.01453 0.6068 0.15874 0.0
H636 H 0.10188 0.58087 0.77648 0.0
H637 H 0.11545 0.59655 0.70401 0.0
H638 H 0.07965 0.68899 0.71171 0.0
H639 H 0.06733 0.67348 0.78514 0.0
H640 H 0.23559 0.13176 1.05339 0.0
H641 H 0.17007 0.0392 1.04264 0.0
H642 H 0.17581 0.03 0.9653 0.0
H643 H 0.18811 0.05445 0.89568 0.0
H644 H 0.24668 0.15079 0.9037 0.0
H645 H 0.25583 0.15191 0.98681 0.0
C646 C 0.22312 0.10927 1.03438 0.0
C647 C 0.20169 0.08669 1.05318 0.0
C648 C 0.22495 0.10504 0.98898 0.0
C649 C 0.18656 0.05713 1.02892 0.0
C650 C 0.18952 0.05201 0.98441 0.0
C651 C 0.20339 0.07541 0.91576 0.0
C652 C 0.2158 0.10287 0.89344 0.0
C653 C 0.20687 0.07677 0.96322 0.0
C654 C 0.23659 0.12938 0.91989 0.0
C655 C 0.24152 0.13023 0.96748 0.0
H656 H 0.06784 0.79667 0.24283 0.0
H657 H 0.12735 0.73543 0.19285 0.0
H658 H 0.10768 0.75521 0.11492 0.0
H659 H 0.07494 0.7922 1.06049 0.0
H660 H 0.01234 0.84971 0.11085 0.0
H661 H 0.03172 0.82936 0.18801 0.0
C662 C 0.07656 0.78744 0.21498 0.0
C663 C 0.09963 0.7646 0.22464 0.0
C664 C 0.0646 0.79862 0.16978 0.0
C665 C 0.1098 0.75284 0.18724 0.0
C666 C 0.09859 0.76439 0.14241 0.0
C667 C 0.06549 0.80034 0.0883 0.0
C668 C 0.04224 0.82312 0.07915 0.0
C669 C 0.07626 0.78768 0.13316 0.0
C670 C 0.03011 0.83253 0.1161 0.0
C671 C 0.04132 0.82084 0.16058 0.0
H672 H 0.36322 0.79712 0.48266 0.0
H673 H 0.33965 0.89599 0.4777 0.0
H674 H 0.36784 0.90478 0.55885 0.0
H675 H 0.41332 0.88991 0.6213 0.0
H676 H 0.44139 0.79339 0.62046 0.0
H677 H 0.39672 0.77763 0.55179 0.0
C678 C 0.36262 0.82011 0.49951 0.0
C679 C 0.3507 0.84642 0.47358 0.0
C680 C 0.38052 0.82555 0.54513 0.0
C681 C 0.34978 0.87575 0.49659 0.0
C682 C 0.36614 0.88086 0.54291 0.0
C683 C 0.40842 0.86501 0.60706 0.0
C684 C 0.43025 0.84273 0.62504 0.0
C685 C 0.38394 0.85688 0.5662 0.0
C686 C 0.42454 0.81068 0.60665 0.0
C687 C 0.39921 0.80183 0.56734 0.0
H688 H 0.4303 0.26928 0.81457 0.0
H689 H 0.4514 0.18429 0.89553 0.0
H690 H 0.46669 0.1592 0.83246 0.0
H691 H 0.47388 0.15982 0.75293 0.0
H692 H 0.45343 0.24451 0.67114 0.0
H693 H 0.43878 0.27034 0.73459 0.0
C694 C 0.43823 0.24528 0.81858 0.0
C695 C 0.43913 0.229 0.86078 0.0
C696 C 0.44734 0.23043 0.7813 0.0
C697 C 0.44986 0.19782 0.8642 0.0
C698 C 0.45878 0.18319 0.82774 0.0
C699 C 0.46605 0.18385 0.74852 0.0
C700 C 0.4651 0.19972 0.70606 0.0
C701 C 0.45746 0.19899 0.78582 0.0
C702 C 0.45516 0.23129 0.70272 0.0
C703 C 0.44644 0.24624 0.73934 0.0
H704 H 0.87684 0.94471 0.25635 0.0
H705 H 0.81423 0.85016 0.2366 0.0
H706 H 0.80605 0.85404 0.15394 0.0
H707 H 0.8301 0.87607 0.09184 0.0
H708 H 0.89814 0.96734 0.11241 0.0
H709 H 0.89087 0.97308 0.19 0.0
C710 C 0.8607 0.92541 0.23375 0.0
C711 C 0.84714 0.89673 0.25249 0.0
C712 C 0.85783 0.92683 0.18647 0.0
C713 C 0.8253 0.87236 0.22308 0.0
C714 C 0.82094 0.87436 0.17575 0.0
C715 C 0.84223 0.89796 0.1125 0.0
C716 C 0.86533 0.92081 0.09705 0.0
C717 C 0.8391 0.90027 0.15755 0.0
C718 C 0.88085 0.94904 0.12418 0.0
C719 C 0.87677 0.95226 0.16851 0.0
H720 H 0.99292 0.19392 0.89618 0.0
H721 H 0.93498 0.25785 0.94431 0.0
H722 H 0.95315 0.23807 1.02243 0.0
H723 H 0.98443 0.20072 0.07804 0.0
H724 H 0.04557 0.14026 1.02989 0.0
H725 H 0.02744 0.16031 0.95231 0.0
C726 C 0.98423 0.20373 0.92365 0.0
C727 C 0.96203 0.22744 0.91325 0.0
C728 C 0.9954 0.19255 0.96923 0.0
C729 C 0.95184 0.23978 0.95031 0.0
C730 C 0.96222 0.22825 0.99535 0.0
C731 C 0.9939 0.19189 1.05067 0.0
C732 C 0.01642 0.1684 1.06076 0.0
C733 C 0.9838 0.20433 1.00541 0.0
C734 C 0.02842 0.15806 1.02414 0.0
C735 C 0.0179 0.16958 0.97931 0.0
H736 H 0.69896 0.10402 0.64443 0.0
H737 H 0.69139 0.20663 0.65992 0.0
H738 H 0.66125 0.20765 0.58045 0.0
H739 H 0.62148 0.17518 0.51717 0.0
H740 H 0.62345 0.07144 0.50434 0.0
H741 H 0.67055 0.07467 0.57181 0.0
C742 C 0.69176 0.12686 0.62982 0.0
C743 C 0.69587 0.1546 0.65868 0.0
C744 C 0.67214 0.12669 0.58485 0.0
C745 C 0.68795 0.18453 0.63899 0.0
C746 C 0.67006 0.18507 0.59349 0.0
C747 C 0.63329 0.15371 0.52828 0.0
C748 C 0.61929 0.12313 0.50698 0.0
C749 C 0.65948 0.15564 0.5677 0.0
C750 C 0.63422 0.09518 0.5209 0.0
C751 C 0.66094 0.09702 0.55946 0.0
H752 H 0.6124 0.8381 0.40292 0.0
H753 H 0.55845 0.74461 0.428 0.0
H754 H 0.57092 0.72017 0.36211 0.0
H755 H 0.59766 0.72429 0.29593 0.0
H756 H 0.64719 0.81879 0.26728 0.0
H757 H 0.63575 0.84309 0.33445 0.0
C758 C 0.60295 0.81243 0.39415 0.0
C759 C 0.5849 0.79358 0.42251 0.0
C760 C 0.60961 0.79823 0.35476 0.0
C761 C 0.57335 0.76015 0.40905 0.0
C762 C 0.58025 0.74593 0.37056 0.0
C763 C 0.60608 0.75019 0.30439 0.0
C764 C 0.62369 0.76939 0.27599 0.0
C765 C 0.59865 0.76453 0.34317 0.0
C766 C 0.63371 0.80309 0.28786 0.0
C767 C 0.62714 0.81715 0.32663 0.0
H768 H 0.71233 0.62896 0.39554 0.0
H769 H 0.65293 0.53357 0.35953 0.0
H770 H 0.65394 0.52428 0.44017 0.0
H771 H 0.66146 0.54868 0.51717 0.0
H772 H 0.71871 0.64526 0.55075 0.0
H773 H 0.73006 0.64799 0.47519 0.0
C774 C 0.70074 0.60553 0.4053 0.0
C775 C 0.68172 0.58243 0.37144 0.0
C776 C 0.70075 0.60072 0.45139 0.0
C777 C 0.6669 0.55219 0.38492 0.0
C778 C 0.66743 0.54688 0.43099 0.0
C779 C 0.67706 0.56994 0.50818 0.0
C780 C 0.68858 0.59699 0.53901 0.0
C781 C 0.68254 0.57186 0.46402 0.0
C782 C 0.70945 0.62411 0.52759 0.0
C783 C 0.71569 0.62586 0.48417 0.0
H784 H 0.64298 0.27924 0.70288 0.0
H785 H 0.55244 0.27269 0.74854 0.0
H786 H 0.52475 0.2962 0.67693 0.0
H787 H 0.5262 0.3214 0.60138 0.0
H788 H 0.6173 0.32984 0.55649 0.0
H789 H 0.64404 0.30365 0.62619 0.0
C790 C 0.61701 0.28238 0.69685 0.0
C791 C 0.59987 0.27334 0.73159 0.0
C792 C 0.60114 0.29706 0.65529 0.0
C793 C 0.56641 0.27877 0.72285 0.0
C794 C 0.55048 0.29255 0.68167 0.0
C795 C 0.55193 0.31762 0.60664 0.0
C796 C 0.56938 0.32823 0.57266 0.0
C797 C 0.56759 0.30232 0.64766 0.0
C798 C 0.60282 0.32252 0.58121 0.0
C799 C 0.61831 0.30728 0.62147 0.0
H800 H 0.91642 0.43456 0.08372 0.0
H801 H 0.89366 0.33093 0.10504 0.0
H802 H 0.85085 0.32471 1.03289 0.0
H803 H 0.83677 0.34538 0.95585 0.0
H804 H 0.86122 0.44863 0.93237 0.0
H805 H 0.88461 0.459 1.01435 0.0
C806 C 0.90076 0.41107 0.07347 0.0
C807 C 0.90819 0.38306 0.09836 0.0
C808 C 0.8769 0.40762 1.03145 0.0
C809 C 0.88813 0.35263 0.08566 0.0
C810 C 0.86386 0.34909 1.04436 0.0
C811 C 0.84546 0.3705 0.96853 0.0
C812 C 0.8502 0.39578 0.93788 0.0
C813 C 0.86026 0.37589 1.01534 0.0
C814 C 0.85947 0.42835 0.95534 0.0
C815 C 0.87322 0.43427 1.00221 0.0
H816 H 0.96261 0.76881 0.34612 0.0
H817 H 0.91604 0.67367 0.37758 0.0
H818 H 0.93247 0.64837 0.3152 0.0
H819 H 0.95962 0.65247 0.25089 0.0
H820 H 0.01104 0.74661 0.22311 0.0
H821 H 0.99293 0.77233 0.28333 0.0
C822 C 0.95585 0.74257 0.3392 0.0
C823 C 0.93758 0.72343 0.36695 0.0
C824 C 0.96628 0.72767 0.30332 0.0
C825 C 0.92986 0.6893 0.35733 0.0
C826 C 0.93933 0.67468 0.32136 0.0
C827 C 0.96748 0.67857 0.25787 0.0
C828 C 0.98678 0.69704 0.23063 0.0
C829 C 0.95764 0.69349 0.29404 0.0
C830 C 0.99565 0.73114 0.24144 0.0
C831 C 0.98544 0.74612 0.27667 0.0
H832 H 0.34137 0.3435 0.58262 0.0
H833 H 0.38778 0.44464 0.58619 0.0
H834 H 0.3779 0.45301 0.66174 0.0
H835 H 0.3676 0.428 0.73232 0.0
H836 H 0.32563 0.32549 0.72991 0.0
H837 H 0.32065 0.32167 0.64776 0.0
C838 C 0.34812 0.36774 0.59905 0.0
C839 C 0.36596 0.39322 0.57946 0.0
C840 C 0.34341 0.37201 0.64301 0.0
C841 C 0.37464 0.42447 0.60121 0.0
C842 C 0.36907 0.42923 0.6444 0.0
C843 C 0.35663 0.40506 0.7135 0.0
C844 C 0.34783 0.3769 0.7373 0.0
C845 C 0.35534 0.40261 0.66667 0.0
C846 C 0.33277 0.34754 0.71249 0.0
C847 C 0.33027 0.34521 0.66552 0.0
H848 H 0.46709 0.69095 0.57405 0.0
H849 H 0.54262 0.64607 0.53296 0.0
H850 H 0.5254 0.66693 0.45565 0.0
H851 H 0.48787 0.69665 0.39789 0.0
H852 H 0.41483 0.74514 0.43924 0.0
H853 H 0.43209 0.72462 0.51718 0.0
C854 C 0.47985 0.68566 0.54825 0.0
C855 C 0.50617 0.66633 0.56009 0.0
C856 C 0.47015 0.69853 0.50334 0.0
C857 C 0.52241 0.66055 0.52568 0.0
C858 C 0.51245 0.67253 0.48107 0.0
C859 C 0.47566 0.7029 0.42387 0.0
C860 C 0.44959 0.72242 0.41175 0.0
C861 C 0.4862 0.69136 0.46923 0.0
C862 C 0.4348 0.73037 0.44679 0.0
C863 C 0.44466 0.71841 0.49162 0.0
H864 H 0.21732 0.63639 0.17883 0.0
H865 H 0.18189 0.5359 0.20516 0.0
H866 H 0.15965 0.5247 0.12318 0.0
H867 H 0.13264 0.55016 1.05172 0.0
H868 H 0.16745 0.65083 1.02667 0.0
H869 H 0.20849 0.65519 0.1004 0.0
C870 C 0.20649 0.61149 0.16688 0.0
C871 C 0.19861 0.58773 0.19806 0.0
C872 C 0.19285 0.6056 0.11984 0.0
C873 C 0.18622 0.55523 0.18166 0.0
C874 C 0.17326 0.54884 0.13476 0.0
C875 C 0.15062 0.57233 1.06145 0.0
C876 C 0.1469 0.60039 1.03505 0.0
C877 C 0.17344 0.57484 0.10434 0.0
C878 C 0.17005 0.62908 1.0471 0.0
C879 C 0.19324 0.63164 0.08943 0.0
H880 H 0.09567 0.29523 0.74845 0.0
H881 H 0.12738 0.20817 0.81536 0.0
H882 H 0.10834 0.22249 0.88237 0.0
H883 H 0.08372 0.26064 0.92405 0.0
H884 H 0.05198 0.34755 0.85647 0.0
H885 H 0.06968 0.33237 0.78901 0.0
C886 C 0.09862 0.27933 0.77768 0.0
C887 C 0.11353 0.25059 0.77623 0.0
C888 C 0.08749 0.2878 0.81671 0.0
C889 C 0.11638 0.23045 0.81482 0.0
C890 C 0.10538 0.23869 0.85349 0.0
C891 C 0.08044 0.27629 0.89459 0.0
C892 C 0.06669 0.30575 0.89663 0.0
C893 C 0.09101 0.26742 0.85515 0.0
C894 C 0.06301 0.32527 0.85731 0.0
C895 C 0.07306 0.31646 0.81819 0.0
H896 H 0.03844 0.31934 0.27188 0.0
H897 H 0.93854 0.27907 0.20257 0.0
H898 H 0.95171 0.22336 0.21551 0.0
H899 H 0.99642 0.19161 0.2127 0.0
H900 H 0.09896 0.2361 0.25907 0.0
H901 H 0.08157 0.2844 0.288 0.0
C902 C 0.01924 0.2981 0.26206 0.0
C903 C 0.98893 0.30236 0.23214 0.0
C904 C 0.02884 0.26709 0.26235 0.0
C905 C 0.96298 0.27581 0.22303 0.0
C906 C 0.97084 0.24401 0.22908 0.0
C907 C 0.01479 0.21171 0.22993 0.0
C908 C 0.04849 0.21165 0.23197 0.0
C909 C 0.00453 0.24 0.24299 0.0
C910 C 0.07266 0.237 0.25515 0.0
C911 C 0.06279 0.26423 0.27207 0.0
H912 H 1.00364 0.80698 0.46026 0.0
H913 H 0.00646 0.72851 0.55636 0.0
H914 H 0.04233 0.70249 0.51843 0.0
H915 H 0.06501 0.69818 0.45048 0.0
H916 H 0.0553 0.77391 0.34989 0.0
H917 H 0.02718 0.80372 0.39484 0.0
C918 C 0.01331 0.78491 0.47409 0.0
C919 C 1.00323 0.76994 0.51153 0.0
C920 C 0.03052 0.76855 0.44933 0.0
C921 C 0.01484 0.74081 0.52832 0.0
C922 C 0.03442 0.72553 0.50582 0.0
C923 C 0.05663 0.72118 0.43857 0.0
C924 C 0.06224 0.73413 0.39734 0.0
C925 C 0.04094 0.73837 0.46495 0.0
C926 C 0.05121 0.76373 0.38176 0.0
C927 C 0.03547 0.78087 0.40757 0.0
H928 H 0.58661 0.71969 0.80246 0.0
H929 H 0.48831 0.69152 0.71521 0.0
H930 H 0.46986 0.73958 0.74121 0.0
H931 H 0.48986 0.79755 0.75559 0.0
H932 H 0.59391 0.82985 0.81383 0.0
H933 H 0.60178 0.77431 0.83821 0.0
C934 C 0.56085 0.72358 0.79069 0.0
C935 C 0.53909 0.7033 0.75576 0.0
C936 C 0.55177 0.75314 0.80165 0.0
C937 C 0.50556 0.70751 0.74138 0.0
C938 C 0.49508 0.73509 0.75625 0.0
C939 C 0.51374 0.79239 0.77595 0.0
C940 C 0.5419 0.81604 0.77955 0.0
C941 C 0.51906 0.75978 0.78158 0.0
C942 C 0.57234 0.81085 0.80847 0.0
C943 C 0.57689 0.77896 0.82144 0.0
H944 H 0.57872 0.27841 0.90443 0.0
H945 H 0.54807 0.17451 0.91534 0.0
H946 H 0.51744 0.18553 0.97142 0.0
H947 H 0.4952 0.22472 1.01141 0.0
H948 H 0.52422 0.32876 0.99908 0.0
H949 H 0.56111 0.31777 0.95156 0.0
C950 C 0.56536 0.25833 0.91915 0.0
C951 C 0.56538 0.22583 0.90558 0.0
C952 C 0.54842 0.26481 0.95219 0.0
C953 C 0.54809 0.19983 0.92499 0.0
C954 C 0.53097 0.20604 0.9575 0.0
C955 C 0.51096 0.24493 1.00022 0.0
C956 C 0.50658 0.27736 1.00792 0.0
C957 C 0.53078 0.23843 0.97107 0.0
C958 C 0.52707 0.30348 0.99352 0.0
C959 C 0.54773 0.29721 0.96553 0.0
H960 H 0.0552 0.8042 0.92242 0.0
H961 H 0.95793 0.75672 0.85078 0.0
H962 H 0.98227 0.70862 0.83492 0.0
H963 H 0.02402 0.67537 0.87447 0.0
H964 H 0.11854 0.72238 0.95567 0.0
H965 H 0.10347 0.77612 0.93274 0.0
C966 C 0.03956 0.78401 0.90167 0.0
C967 C 0.00496 0.78294 0.88993 0.0
C968 C 0.05331 0.75624 0.89526 0.0
C969 C 0.98463 0.7571 0.86205 0.0
C970 C 0.99845 0.72971 0.85322 0.0
C971 C 0.04217 0.69728 0.88443 0.0
C972 C 0.07134 0.69557 0.91868 0.0
C973 C 0.03191 0.72782 0.8745 0.0
C974 C 0.0954 0.72357 0.9303 0.0
C975 C 0.08645 0.75429 0.91798 0.0
H976 H 0.55495 0.69648 0.18139 0.0
H977 H 0.54931 0.77544 0.08608 0.0
H978 H 0.5149 0.80113 0.12709 0.0
H979 H 0.49068 0.80286 0.19464 0.0
H980 H 0.50422 0.72668 0.29422 0.0
H981 H 0.53349 0.69912 0.24862 0.0
C982 C 0.54505 0.71866 0.16851 0.0
C983 C 0.55346 0.73352 0.12992 0.0
C984 C 0.52844 0.73462 0.19459 0.0
C985 C 0.54194 0.76302 0.11474 0.0
C986 C 0.52313 0.77807 0.13891 0.0
C987 C 0.50046 0.78046 0.20643 0.0
C988 C 0.49492 0.76636 0.24717 0.0
C989 C 0.51715 0.76458 0.17978 0.0
C990 C 0.5079 0.73761 0.26257 0.0
C991 C 0.52434 0.72172 0.2364 0.0
H992 H 0.56879 0.18554 0.38664 0.0
H993 H 0.46378 0.17217 0.32359 0.0
H994 H 0.46637 0.2308 0.30943 0.0
H995 H 0.49028 0.28183 0.35321 0.0
H996 H 0.58938 0.29204 0.44087 0.0
H997 H 0.5983 0.24029 0.40963 0.0
C998 C 0.54702 0.19555 0.36754 0.0
C999 C 0.51574 0.17608 0.35949 0.0
C1000 C 0.54775 0.22951 0.36735 0.0
C1001 C 0.48782 0.18774 0.33219 0.0
C1002 C 0.48925 0.22132 0.32506 0.0
C1003 C 0.51417 0.27306 0.36379 0.0
C1004 C 0.53862 0.28883 0.40035 0.0
C1005 C 0.51772 0.2423 0.34869 0.0
C1006 C 0.56999 0.27885 0.41375 0.0
C1007 C 0.57502 0.24952 0.39572 0.0
H1008 H 0.05527 0.25762 0.613 0.0
H1009 H 0.04283 0.1582 0.65958 0.0
H1010 H 0.0115 0.17401 0.71214 0.0
H1011 H 0.99371 0.2177 0.75155 0.0
H1012 H 0.00553 0.31694 0.70419 0.0
H1013 H 0.03189 0.29994 0.64616 0.0
C1014 C 0.04397 0.23909 0.63274 0.0
C1015 C 0.05138 0.20693 0.6325 0.0
C1016 C 0.02714 0.24865 0.6642 0.0
C1017 C 0.03721 0.18311 0.65877 0.0
C1018 C 0.02014 0.19235 0.68989 0.0
C1019 C 1.0018 0.23542 0.72823 0.0
C1020 C 0.9975 0.26832 0.73185 0.0
C1021 C 0.01613 0.22531 0.69414 0.0
C1022 C 0.0087 0.29138 0.70212 0.0
C1023 C 0.02336 0.28163 0.66854 0.0
H1024 H 0.98584 0.04242 0.07051 0.0
H1025 H 0.08239 0.04099 0.16262 0.0
H1026 H 0.08857 0.99157 0.1224 0.0
H1027 H 0.0665 0.94859 1.06141 0.0
H1028 H 0.96982 0.94937 0.96944 0.0
H1029 H 0.96345 -0.00112 1.0097 0.0
C1030 C 0.00832 0.03136 0.0819 0.0
C1031 C 0.03374 0.04573 0.11981 0.0
C1032 C 0.0115 0.00265 1.05872 0.0
C1033 C 0.06254 0.03081 0.13378 0.0
C1034 C 0.06598 0.00241 0.11073 0.0
C1035 C 0.04394 0.95952 1.04998 0.0
C1036 C 0.01866 0.94512 1.01202 0.0
C1037 C 0.04063 0.98808 0.07324 0.0
C1038 C 0.98967 0.95977 0.99819 0.0
C1039 C 0.98611 0.98816 1.02129 0.0
H1040 H 0.23946 0.7162 0.37547 0.0
H1041 H 0.21274 0.79116 0.27802 0.0
H1042 H 0.26137 0.78776 0.24849 0.0
H1043 H 0.31296 0.76437 0.25038 0.0
H1044 H 0.3403 0.68969 0.34785 0.0
H1045 H 0.29084 0.692 0.3764 0.0
C1046 C 0.24415 0.73154 0.34755 0.0
C1047 C 0.22214 0.7539 0.3292 0.0
C1048 C 0.27274 0.72967 0.33047 0.0
C1049 C 0.22906 0.77373 0.29314 0.0
C1050 C 0.25704 0.77186 0.27604 0.0
C1051 C 0.30809 0.74865 0.27785 0.0
C1052 C 0.33069 0.72705 0.29696 0.0
C1053 C 0.27932 0.75011 0.29451 0.0
C1054 C 0.32358 0.70668 0.3324 0.0
C1055 C 0.29517 0.70798 0.34894 0.0
H1056 H 0.56482 0.00799 0.5078 0.0
H1057 H 0.47311 0.04748 0.49287 0.0
H1058 H 0.46106 0.01568 0.55736 0.0
H1059 H 0.47622 0.97568 0.61892 0.0
H1060 H 0.569 0.93794 0.63514 0.0
H1061 H 0.58055 0.96917 0.57021 0.0
C1062 C 0.54216 0.00952 0.51858 0.0
C1063 C 0.52003 0.03035 0.49532 0.0
C1064 C 0.53535 0.9911 0.5563 0.0
C1065 C 0.49088 0.03205 0.51022 0.0
C1066 C 0.48383 0.01368 0.54719 0.0
C1067 C 0.49896 0.97438 0.60828 0.0
C1068 C 0.52129 0.9537 0.63166 0.0
C1069 C 0.50587 0.99306 0.57074 0.0
C1070 C 0.55078 0.95272 0.61728 0.0
C1071 C 0.55763 0.97089 0.58014 0.0
H1072 H 0.33064 0.21102 0.85164 0.0
H1073 H 0.31311 0.29509 0.92169 0.0
H1074 H 0.26372 0.29975 0.85916 0.0
H1075 H 0.2252 0.27951 0.78499 0.0
H1076 H 0.24226 0.19494 0.71551 0.0
H1077 H 0.29173 0.19036 0.77795 0.0
C1078 C 0.31609 0.23049 0.85342 0.0
C1079 C 0.32616 0.25309 0.89151 0.0
C1080 C 0.28739 0.23258 0.81754 0.0
C1081 C 0.30659 0.2778 0.89285 0.0
C1082 C 0.27815 0.28026 0.85708 0.0
C1083 C 0.23968 0.25997 0.7833 0.0
C1084 C 0.22962 0.23737 0.74522 0.0
C1085 C 0.26828 0.25776 0.81929 0.0
C1086 C 0.24892 0.21237 0.74419 0.0
C1087 C 0.27739 0.20995 0.77991 0.0
H1088 H 0.7495 0.23008 0.88998 0.0
H1089 H 0.714 0.2924 0.77836 0.0
H1090 H 0.76383 0.29078 0.75052 0.0
H1091 H 0.81807 0.27105 0.75657 0.0
H1092 H 0.85331 0.20825 0.86767 0.0
H1093 H 0.80403 0.21081 0.89648 0.0
C1094 C 0.75267 0.24319 0.85954 0.0
C1095 C 0.72768 0.26118 0.8363 0.0
C1096 C 0.78177 0.24223 0.84339 0.0
C1097 C 0.7326 0.27826 0.79705 0.0
C1098 C 0.76123 0.27737 0.78095 0.0
C1099 C 0.81508 0.25821 0.78729 0.0
C1100 C 0.83969 0.23962 0.8099 0.0
C1101 C 0.78614 0.25946 0.80372 0.0
C1102 C 0.83496 0.22283 0.84944 0.0
C1103 C 0.80662 0.22421 0.86604 0.0
H1104 H 0.82492 0.70475 0.35817 0.0
H1105 H 0.81719 0.79689 0.41883 0.0
H1106 H 0.7695 0.80356 0.35472 0.0
H1107 H 0.72988 0.78304 0.28222 0.0
H1108 H 0.73685 0.69085 0.22086 0.0
H1109 H 0.78448 0.68381 0.28526 0.0
C1110 C 0.81284 0.72639 0.35753 0.0
C1111 C 0.82517 0.75066 0.39347 0.0
C1112 C 0.78505 0.72969 0.32068 0.0
C1113 C 0.8089 0.77827 0.39166 0.0
C1114 C 0.7814 0.78185 0.35505 0.0
C1115 C 0.74169 0.76125 0.28261 0.0
C1116 C 0.7294 0.73735 0.24624 0.0
C1117 C 0.76926 0.75773 0.31945 0.0
C1118 C 0.74526 0.70942 0.24811 0.0
C1119 C 0.7727 0.70559 0.28495 0.0
H1120 H 0.48186 0.53738 0.57963 0.0
H1121 H 0.57968 0.54342 0.67105 0.0
H1122 H 0.58988 0.49566 0.63105 0.0
H1123 H 0.57116 0.45248 0.56972 0.0
H1124 H 0.47338 0.44643 0.47815 0.0
H1125 H 0.4627 0.49349 0.51918 0.0
C1126 C 0.50547 0.52828 0.59102 0.0
C1127 C 0.53007 0.54425 0.62858 0.0
C1128 C 0.51099 0.50061 0.56792 0.0
C1129 C 0.56037 0.53187 0.64252 0.0
C1130 C 0.56613 0.50446 0.61957 0.0
C1131 C 0.54738 0.46133 0.55865 0.0
C1132 C 0.52306 0.44574 0.52054 0.0
C1133 C 0.54164 0.48865 0.58221 0.0
C1134 C 0.49249 0.4577 0.50713 0.0
C1135 C 0.48649 0.48475 0.5306 0.0
H1136 H 0.07138 0.50861 1.01092 0.0
H1137 H 0.98684 0.55918 1.00041 0.0
H1138 H 0.97111 0.52713 1.06259 0.0
H1139 H 0.98129 0.4845 0.12133 0.0
H1140 H 0.06606 0.4342 0.13253 0.0
H1141 H 0.08151 0.4658 0.06974 0.0
C1142 C 0.04935 0.51233 1.02195 0.0
C1143 C 0.0304 0.53646 1.00082 0.0
C1144 C 0.04045 0.49378 1.05843 0.0
C1145 C 1.0021 0.54105 1.01613 0.0
C1146 C 0.99302 0.52266 1.05183 0.0
C1147 C 1.00324 0.48063 0.1102 0.0
C1148 C 0.02229 0.45669 0.13167 0.0
C1149 C 0.01208 0.49906 0.07363 0.0
C1150 C 0.05059 0.45204 0.11639 0.0
C1151 C 0.05956 0.47024 0.0804 0.0
H1152 H 0.11848 0.17372 0.34526 0.0
H1153 H 0.04004 0.09812 0.36313 0.0
H1154 H 0.0547 0.11136 0.44578 0.0
H1155 H 0.08992 0.14513 0.51494 0.0
H1156 H 0.16332 0.2252 0.49445 0.0
H1157 H 0.15083 0.20967 0.41288 0.0
C1158 C 0.10473 0.15974 0.36714 0.0
C1159 C 0.07846 0.13401 0.34683 0.0
C1160 C 0.11259 0.16848 0.41521 0.0
C1161 C 0.0606 0.11747 0.37671 0.0
C1162 C 0.06904 0.12519 0.42448 0.0
C1163 C 0.1035 0.15908 0.49284 0.0
C1164 C 0.12843 0.18619 0.51236 0.0
C1165 C 0.09508 0.15066 0.44451 0.0
C1166 C 0.14453 0.20415 0.48171 0.0
C1167 C 0.13726 0.1952 0.43453 0.0
H1168 H 0.16136 0.8818 0.60373 0.0
H1169 H 0.05526 0.8527 0.55471 0.0
H1170 H 0.04836 0.85726 0.63279 0.0
H1171 H 0.07311 0.86606 0.71501 0.0
H1172 H 0.1798 0.89104 0.76471 0.0
H1173 H 0.18596 0.89218 0.68596 0.0
C1174 C 0.1367 0.87725 0.61019 0.0
C1175 C 0.1088 0.86728 0.57397 0.0
C1176 C 0.13315 0.87887 0.6551 0.0
C1177 C 0.07697 0.86062 0.58241 0.0
C1178 C 0.07309 0.86305 0.62691 0.0
C1179 C 0.09775 0.87145 0.70863 0.0
C1180 C 0.12601 0.87803 0.74552 0.0
C1181 C 0.10111 0.87142 0.66356 0.0
C1182 C 0.15769 0.88594 0.73678 0.0
C1183 C 0.16122 0.8865 0.69186 0.0
H1184 H 0.44208 0.74923 0.11122 0.0
H1185 H 0.40301 0.83478 0.14411 0.0
H1186 H 0.41447 0.86141 0.07568 0.0
H1187 H 0.43696 0.86218 1.00601 0.0
H1188 H 0.4754 0.77635 0.97214 0.0
H1189 H 0.46348 0.74953 1.03997 0.0
C1190 C 0.43564 0.77357 0.10341 0.0
C1191 C 0.42118 0.78939 0.13414 0.0
C1192 C 0.44268 0.78942 1.06311 0.0
C1193 C 0.41384 0.82131 0.12225 0.0
C1194 C 0.42056 0.83686 0.08261 0.0
C1195 C 0.44257 0.83747 1.0127 0.0
C1196 C 0.45775 0.82219 0.98227 0.0
C1197 C 0.43517 0.82141 1.0526 0.0
C1198 C 0.46464 0.78997 0.99385 0.0
C1199 C 0.45742 0.7741 1.03311 0.0
H1200 H 0.41609 0.13075 0.36971 0.0
H1201 H 0.42534 0.03497 0.32239 0.0
H1202 H 0.39259 0.04518 0.24594 0.0
H1203 H 0.37913 0.08745 0.18985 0.0
H1204 H 0.3771 0.18602 0.23564 0.0
H1205 H 0.38939 0.16897 0.31523 0.0
C1206 C 0.40918 0.11144 0.34329 0.0
C1207 C 0.42342 0.08245 0.35101 0.0
C1208 C 0.39305 0.11874 0.29857 0.0
C1209 C 0.41464 0.05755 0.3168 0.0
C1210 C 0.39651 0.06369 0.2729 0.0
C1211 C 0.37992 0.10489 0.21705 0.0
C1212 C 0.37822 0.13814 0.20709 0.0
C1213 C 0.38827 0.09521 0.26268 0.0
C1214 C 0.37931 0.16046 0.24271 0.0
C1215 C 0.38624 0.1507 0.28819 0.0
H1216 H 0.89826 0.7826 0.65608 0.0
H1217 H 0.97826 0.83507 0.60496 0.0
H1218 H 0.0051 0.85907 0.68145 0.0
H1219 H 0.00675 0.86594 0.76518 0.0
H1220 H 0.92306 0.81843 0.81341 0.0
H1221 H 0.89785 0.79264 0.73806 0.0
C1222 C 0.92153 0.79931 0.66149 0.0
C1223 C 0.93592 0.80656 0.62358 0.0
C1224 C 0.93663 0.8144 0.70614 0.0
C1225 C 0.96612 0.82874 0.63248 0.0
C1226 C 0.98173 0.84261 0.67674 0.0
C1227 C 0.98287 0.85019 0.7593 0.0
C1228 C 0.96718 0.84475 0.79638 0.0
C1229 C 0.96735 0.83583 0.71423 0.0
C1230 C 0.93608 0.8239 0.7866 0.0
C1231 C 0.92144 0.80876 0.74297 0.0
H1232 H 0.8913 0.10367 0.53185 0.0
H1233 H 0.99744 0.13136 0.58163 0.0
H1234 H 0.00502 0.12378 0.5044 0.0
H1235 H 0.98072 0.11478 0.42219 0.0
H1236 H 0.87397 0.09214 0.37113 0.0
H1237 H 0.86719 0.09157 0.4496 0.0
C1238 C 0.91607 0.10715 0.52572 0.0
C1239 C 0.94384 0.11775 0.5618 0.0
C1240 C 0.91998 0.10405 0.48113 0.0
C1241 C 0.97587 0.12296 0.55396 0.0
C1242 C 0.98012 0.11885 0.50995 0.0
C1243 C 0.95596 0.10985 0.42824 0.0
C1244 C 0.92784 0.10407 0.39103 0.0
C1245 C 0.95224 0.11043 0.47313 0.0
C1246 C 0.89598 0.0967 0.39931 0.0
C1247 C 0.89208 0.0965 0.44409 0.0
H1248 H 0.64166 0.15777 1.00348 0.0
H1249 H 0.61827 0.25477 1.02061 0.0
H1250 H 0.59961 0.23779 0.08906 0.0
H1251 H 0.58856 0.19519 0.14565 0.0
H1252 H 0.61551 0.09909 0.13126 0.0
H1253 H 0.63306 0.11584 1.0625 0.0
C1254 C 0.63284 0.17547 1.02224 0.0
C1255 C 0.63208 0.20807 1.00551 0.0
C1256 C 0.6221 0.1655 1.06314 0.0
C1257 C 0.61995 0.22979 1.03149 0.0
C1258 C 0.60895 0.21996 0.07122 0.0
C1259 C 0.59844 0.17763 0.12817 0.0
C1260 C 0.59939 0.14505 0.14541 0.0
C1261 C 0.60977 0.1878 0.08776 0.0
C1262 C 0.61271 0.12377 0.12012 0.0
C1263 C 0.62341 0.13356 0.08012 0.0
H1264 H 0.60981 0.94903 0.81911 0.0
H1265 H 0.64064 0.87177 0.75125 0.0
H1266 H 0.67685 0.85843 0.82361 0.0
H1267 H 0.68603 0.85856 0.90775 0.0
H1268 H 0.65061 0.93299 0.97521 0.0
H1269 H 0.63046 0.95787 0.90195 0.0
C1270 C 0.62577 0.93038 0.81989 0.0
C1271 C 0.62191 0.91076 0.78049 0.0
C1272 C 0.64488 0.92158 0.86203 0.0
C1273 C 0.64303 0.88707 0.78133 0.0
C1274 C 0.66324 0.87897 0.82296 0.0
C1275 C 0.67465 0.88071 0.90639 0.0
C1276 C 0.66902 0.89341 0.94656 0.0
C1277 C 0.66217 0.89434 0.86389 0.0
C1278 C 0.65504 0.92259 0.94472 0.0
C1279 C 0.64331 0.93675 0.90275 0.0
H1280 H 0.6138 0.67358 0.84315 0.0
H1281 H 0.53028 0.60618 0.86489 0.0
H1282 H 0.54623 0.62203 0.9467 0.0
H1283 H 0.58354 0.65632 1.01382 0.0
H1284 H 0.66206 0.7292 0.98929 0.0
H1285 H 0.64832 0.71068 0.90865 0.0
C1286 C 0.59904 0.66212 0.86566 0.0
C1287 C 0.57096 0.63776 0.84669 0.0
C1288 C 0.60747 0.67281 0.91312 0.0
C1289 C 0.55214 0.62436 0.8774 0.0
C1290 C 0.56127 0.63369 0.92468 0.0
C1291 C 0.59789 0.66814 0.99104 0.0
C1292 C 0.6246 0.69412 1.0092 0.0
C1293 C 0.58887 0.65801 0.94328 0.0
C1294 C 0.6418 0.7092 0.97765 0.0
C1295 C 0.63385 0.69847 0.93101 0.0
H1296 H 0.66157 0.43573 0.23374 0.0
H1297 H 0.55591 0.40132 0.20234 0.0
H1298 H 0.55506 0.3931 0.12181 0.0
H1299 H 0.58605 0.38751 1.06379 0.0
H1300 H 0.69199 0.42019 0.09522 0.0
H1301 H 0.69111 0.43823 0.17215 0.0
C1302 C 0.63827 0.42736 0.20892 0.0
C1303 C 0.60897 0.41843 0.2237 0.0
C1304 C 0.63814 0.42216 0.16295 0.0
C1305 C 0.57884 0.40762 0.1915 0.0
C1306 C 0.57835 0.40295 0.14561 0.0
C1307 C 0.60875 0.39919 0.08734 0.0
C1308 C 0.63906 0.40217 0.07465 0.0
C1309 C 0.60811 0.40877 0.13147 0.0
C1310 C 0.66839 0.41769 0.1047 0.0
C1311 C 0.66792 0.42776 0.14865 0.0
H1312 H 0.94314 0.29059 0.47523 0.0
H1313 H 0.95464 0.39383 0.51063 0.0
H1314 H 0.94337 0.38002 0.58477 0.0
H1315 H 0.93092 0.33864 0.64258 0.0
H1316 H 0.92059 0.23564 0.60743 0.0
H1317 H 0.93108 0.24944 0.53275 0.0
C1318 C 0.94349 0.31036 0.49891 0.0
C1319 C 0.94969 0.34365 0.48521 0.0
C1320 C 0.93712 0.3022 0.5429 0.0
C1321 C 0.9494 0.36807 0.51795 0.0
C1322 C 0.94313 0.36013 0.56129 0.0
C1323 C 0.93057 0.31906 0.61857 0.0
C1324 C 0.92452 0.28576 0.63199 0.0
C1325 C 0.93684 0.32727 0.57448 0.0
C1326 C 0.92494 0.26136 0.59943 0.0
C1327 C 0.93102 0.26932 0.55607 0.0
H1328 H 0.94824 0.57689 0.85613 0.0
H1329 H 0.95859 0.67674 0.90513 0.0
H1330 H 0.92086 0.69027 0.83366 0.0
H1331 H 0.90115 0.67739 0.75084 0.0
H1332 H 0.89156 0.57721 0.70178 0.0
H1333 H 0.91323 0.56012 0.7797 0.0
C1334 C 0.94091 0.60119 0.85182 0.0
C1335 C 0.95649 0.62605 0.88481 0.0
C1336 C 0.92073 0.60904 0.80998 0.0
C1337 C 0.9468 0.65733 0.87979 0.0
C1338 C 0.92573 0.66516 0.83861 0.0
C1339 C 0.90243 0.65157 0.75722 0.0
C1340 C 0.89629 0.62889 0.72023 0.0
C1341 C 0.915 0.64187 0.80219 0.0
C1342 C 0.89767 0.59546 0.72945 0.0
C1343 C 0.90985 0.58559 0.77402 0.0
H1344 H 0.44947 0.31205 0.29402 0.0
H1345 H 0.5135 0.3992 0.27068 0.0
H1346 H 0.49564 0.38712 0.18763 0.0
H1347 H 0.46282 0.35054 0.1195 0.0
H1348 H 0.40291 0.26107 0.14508 0.0
H1349 H 0.41833 0.27498 0.22709 0.0
C1350 C 0.45961 0.32869 0.27105 0.0
C1351 C 0.48283 0.35716 0.29027 0.0
C1352 C 0.44999 0.32087 0.2225 0.0
C1353 C 0.4956 0.37743 0.25842 0.0
C1354 C 0.48538 0.37034 0.21031 0.0
C1355 C 0.45269 0.33416 0.14275 0.0
C1356 C 0.43081 0.30462 0.12423 0.0
C1357 C 0.46261 0.34202 0.19151 0.0
C1358 C 0.41927 0.28391 0.15664 0.0
C1359 C 0.42825 0.29194 0.20426 0.0
H1360 H 0.41442 0.59914 1.04886 0.0
H1361 H 0.51374 0.65366 0.07518 0.0
H1362 H 0.51332 0.64817 0.99405 0.0
H1363 H 0.48264 0.63198 0.91534 0.0
H1364 H 0.38161 0.5813 0.88864 0.0
H1365 H 0.38493 0.58044 0.97089 0.0
C1366 C 0.43633 0.60893 1.037 0.0
C1367 C 0.46417 0.62651 1.06757 0.0
C1368 C 0.43538 0.60665 0.99043 0.0
C1369 C 0.49216 0.63988 1.05193 0.0
C1370 C 0.49182 0.63688 1.00569 0.0
C1371 C 0.46129 0.62093 0.92756 0.0
C1372 C 0.43172 0.60723 0.89617 0.0
C1373 C 0.46317 0.62116 0.97453 0.0
C1374 C 0.40457 0.59207 0.91231 0.0
C1375 C 0.40644 0.59164 0.9592 0.0
H1376 H 0.12908 0.65765 0.49759 0.0
H1377 H 0.13742 0.76093 0.52961 0.0
H1378 H 0.12545 0.74782 0.60382 0.0
H1379 H 0.11269 0.70709 0.66176 0.0
H1380 H 0.10191 0.60359 0.62795 0.0
H1381 H 0.11505 0.61688 0.55497 0.0
C1382 C 0.12872 0.67746 0.52085 0.0
C1383 C 0.13489 0.71059 0.50685 0.0
C1384 C 0.12134 0.66966 0.56441 0.0
C1385 C 0.13334 0.7353 0.53831 0.0
C1386 C 0.12631 0.72774 0.58131 0.0
C1387 C 0.11289 0.68712 0.63871 0.0
C1388 C 0.10648 0.65391 0.6528 0.0
C1389 C 0.12018 0.69497 0.59508 0.0
C1390 C 0.10741 0.6293 0.62065 0.0
C1391 C 0.11474 0.63694 0.57786 0.0
H1392 H 0.09997 0.4219 0.29864 0.0
H1393 H 0.10589 0.32957 0.23732 0.0
H1394 H 0.14185 0.31456 0.30947 0.0
H1395 H 0.15723 0.32161 0.39397 0.0
H1396 H 0.14599 0.41255 0.45491 0.0
H1397 H 0.12683 0.43428 0.37929 0.0
C1398 C 0.1103 0.39907 0.30067 0.0
C1399 C 0.09976 0.37642 0.26355 0.0
C1400 C 0.12906 0.38991 0.34275 0.0
C1401 C 0.11362 0.34725 0.26577 0.0
C1402 C 0.13364 0.33845 0.30728 0.0
C1403 C 0.15128 0.34644 0.39057 0.0
C1404 C 0.15223 0.36509 0.43002 0.0
C1405 C 0.1392 0.3585 0.34678 0.0
C1406 C 0.14536 0.39756 0.42523 0.0
C1407 C 0.13414 0.40998 0.3819 0.0
loop_
_geom_bond_atom_site_label_1
_geom_bond_atom_site_label_2
_geom_bond_distance
_geom_bond_site_symmetry_2
_ccdc_geom_bond_type
La0 C2 2.928 . S
La0 O20 2.521 . S
La0 O21 2.628 . S
La0 O22 2.554 . S
La0 O23 2.737 1_455 S
La0 O24 2.470 1_455 S
La0 O29 2.482 . S
La0 O31 2.503 . S
La1 C11 2.928 . S
La1 O23 2.495 . S
La1 O25 2.503 . S
La1 O26 2.521 . S
La1 O27 2.628 . S
La1 O28 2.554 . S
La1 O29 2.757 1_655 S
La1 O30 2.470 1_655 S
C2 La0 2.928 . S
C2 C3 1.503 1_554 S
C2 O20 1.261 . S
C2 O21 1.243 . S
C3 C2 1.503 1_556 S
C3 C4 1.394 . S
C3 C8 1.373 . S
C4 C3 1.394 . S
C4 C5 1.380 . S
C4 H32 0.930 . S
C5 C4 1.380 . S
C5 C6 1.376 . S
C5 H33 0.930 . S
C6 C5 1.376 . S
C6 C7 1.370 . S
C7 C6 1.370 . S
C7 C8 1.396 . S
C7 H34 0.929 . S
C8 C3 1.373 . S
C8 C7 1.396 . S
C8 H35 0.929 . S
C9 O22 1.240 . S
C9 O23 1.284 1_455 S
C10 O24 1.258 . S
C10 O25 1.256 . S
C11 La1 2.928 . S
C11 C12 1.503 . S
C11 O26 1.261 . S
C11 O27 1.243 . S
C12 C11 1.503 . S
C12 C13 1.394 . S
C12 C17 1.373 . S
C13 C12 1.394 . S
C13 C14 1.380 . S
C13 H36 0.930 . S
C14 C13 1.380 . S
C14 C15 1.376 . S
C14 H37 0.930 . S
C15 C14 1.376 . S
C15 C16 1.370 . S
C16 C15 1.370 . S
C16 C17 1.396 . S
C16 H38 0.929 . S
C17 C12 1.373 . S
C17 C16 1.396 . S
C17 H39 0.929 . S
C18 O28 1.240 . S
C18 O29 1.289 1_655 S
C19 O30 1.258 . S
C19 O31 1.256 . S
O20 La0 2.521 . S
O20 C2 1.261 . S
O21 La0 2.628 . S
O21 C2 1.243 . S
O22 La0 2.554 . S
O22 C9 1.240 . S
O23 La0 2.737 1_655 S
O23 La1 2.495 . S
O23 C9 1.284 1_655 S
O24 La0 2.470 1_655 S
O24 C10 1.258 . S
O25 La1 2.503 . S
O25 C10 1.256 . S
O26 La1 2.521 . S
O26 C11 1.261 . S
O27 La1 2.628 . S
O27 C11 1.243 . S
O28 La1 2.554 . S
O28 C18 1.240 . S
O29 La0 2.482 . S
O29 La1 2.757 1_455 S
O29 C18 1.289 1_455 S
O30 La1 2.470 1_455 S
O30 C19 1.258 . S
O31 La0 2.503 . S
O31 C19 1.256 . S
H32 C4 0.930 . S
H33 C5 0.930 . S
H34 C7 0.929 . S
H35 C8 0.929 . S
H36 C13 0.930 . S
H37 C14 0.930 . S
H38 C16 0.929 . S
H39 C17 0.929 . S
La40 C42 2.928 . S
La40 O60 2.521 . S
La40 O61 2.628 . S
La40 O62 2.554 . S
La40 O63 2.757 . S
La40 O64 2.470 . S
La40 O69 2.482 . S
La40 O71 2.503 . S
La41 C51 2.928 . S
La41 O63 2.482 . S
La41 O65 2.503 . S
La41 O66 2.521 . S
La41 O67 2.628 . S
La41 O68 2.554 . S
La41 O69 2.757 . S
La41 O70 2.470 . S
C42 La40 2.928 . S
C42 C43 1.503 . S
C42 O60 1.261 . S
C42 O61 1.243 . S
C43 C42 1.503 . S
C43 C44 1.394 . S
C43 C48 1.373 . S
C44 C43 1.394 . S
C44 C45 1.380 . S
C44 H72 0.930 . S
C45 C44 1.380 . S
C45 C46 1.376 . S
C45 H73 0.930 . S
C46 C45 1.376 . S
C46 C47 1.370 . S
C47 C46 1.370 . S
C47 C48 1.396 . S
C47 H74 0.929 . S
C48 C43 1.373 . S
C48 C47 1.396 . S
C48 H75 0.929 . S
C49 O62 1.240 . S
C49 O63 1.289 . S
C50 O64 1.258 . S
C50 O65 1.256 . S
C51 La41 2.928 . S
C51 C52 1.503 . S
C51 O66 1.261 . S
C51 O67 1.243 . S
C52 C51 1.503 . S
C52 C53 1.394 . S
C52 C57 1.373 . S
C53 C52 1.394 . S
C53 C54 1.380 . S
C53 H76 0.930 . S
C54 C53 1.380 . S
C54 C55 1.376 . S
C54 H77 0.930 . S
C55 C54 1.376 . S
C55 C56 1.370 . S
C56 C55 1.370 . S
C56 C57 1.396 . S
C56 H78 0.929 . S
C57 C52 1.373 . S
C57 C56 1.396 . S
C57 H79 0.929 . S
C58 O68 1.240 . S
C58 O69 1.289 . S
C59 O70 1.258 . S
C59 O71 1.256 . S
O60 La40 2.521 . S
O60 C42 1.261 . S
O61 La40 2.628 . S
O61 C42 1.243 . S
O62 La40 2.554 . S
O62 C49 1.240 . S
O63 La40 2.757 . S
O63 La41 2.482 . S
O63 C49 1.289 . S
O64 La40 2.470 . S
O64 C50 1.258 . S
O65 La41 2.503 . S
O65 C50 1.256 . S
O66 La41 2.521 . S
O66 C51 1.261 . S
O67 La41 2.628 . S
O67 C51 1.243 . S
O68 La41 2.554 . S
O68 C58 1.240 . S
O69 La40 2.482 . S
O69 La41 2.757 . S
O69 C58 1.289 . S
O70 La41 2.470 . S
O70 C59 1.258 . S
O71 La40 2.503 . S
O71 C59 1.256 . S
H72 C44 0.930 . S
H73 C45 0.930 . S
H74 C47 0.929 . S
H75 C48 0.929 . S
H76 C53 0.930 . S
H77 C54 0.930 . S
H78 C56 0.929 . S
H79 C57 0.929 . S
La80 C82 2.928 . S
La80 O100 2.521 . S
La80 O101 2.628 . S
La80 O102 2.554 . S
La80 O103 2.757 . S
La80 O104 2.470 . S
La80 O109 2.482 . S
La80 O111 2.503 . S
La81 C91 2.928 . S
La81 O103 2.482 . S
La81 O105 2.503 . S
La81 O106 2.521 . S
La81 O107 2.628 . S
La81 O108 2.554 . S
La81 O109 2.757 . S
La81 O110 2.470 . S
C82 La80 2.928 . S
C82 C83 1.503 . S
C82 O100 1.261 . S
C82 O101 1.243 . S
C83 C82 1.503 . S
C83 C84 1.394 . S
C83 C88 1.373 . S
C84 C83 1.394 . S
C84 C85 1.380 . S
C84 H112 0.930 . S
C85 C84 1.380 . S
C85 C86 1.376 . S
C85 H113 0.930 . S
C86 C85 1.376 . S
C86 C87 1.370 . S
C87 C86 1.370 . S
C87 C88 1.396 . S
C87 H114 0.929 . S
C88 C83 1.373 . S
C88 C87 1.396 . S
C88 H115 0.929 . S
C89 O102 1.240 . S
C89 O103 1.289 . S
C90 O104 1.258 . S
C90 O105 1.256 . S
C91 La81 2.928 . S
C91 C92 1.503 . S
C91 O106 1.261 . S
C91 O107 1.243 . S
C92 C91 1.503 . S
C92 C93 1.394 . S
C92 C97 1.373 . S
C93 C92 1.394 . S
C93 C94 1.380 . S
C93 H116 0.930 . S
C94 C93 1.380 . S
C94 C95 1.376 . S
C94 H117 0.930 . S
C95 C94 1.376 . S
C95 C96 1.370 . S
C96 C95 1.370 . S
C96 C97 1.396 . S
C96 H118 0.929 . S
C97 C92 1.373 . S
C97 C96 1.396 . S
C97 H119 0.929 . S
C98 O108 1.240 . S
C98 O109 1.289 . S
C99 O110 1.258 . S
C99 O111 1.256 . S
O100 La80 2.521 . S
O100 C82 1.261 . S
O101 La80 2.628 . S
O101 C82 1.243 . S
O102 La80 2.554 . S
O102 C89 1.240 . S
O103 La80 2.757 . S
O103 La81 2.482 . S
O103 C89 1.289 . S
O104 La80 2.470 . S
O104 C90 1.258 . S
O105 La81 2.503 . S
O105 C90 1.256 . S
O106 La81 2.521 . S
O106 C91 1.261 . S
O107 La81 2.628 . S
O107 C91 1.243 . S
O108 La81 2.554 . S
O108 C98 1.240 . S
O109 La80 2.482 . S
O109 La81 2.757 . S
O109 C98 1.289 . S
O110 La81 2.470 . S
O110 C99 1.258 . S
O111 La80 2.503 . S
O111 C99 1.256 . S
H112 C84 0.930 . S
H113 C85 0.930 . S
H114 C87 0.929 . S
H115 C88 0.929 . S
H116 C93 0.930 . S
H117 C94 0.930 . S
H118 C96 0.929 . S
H119 C97 0.929 . S
La120 C122 2.928 1_556 S
La120 O140 2.521 . S
La120 O141 2.628 . S
La120 O142 2.554 . S
La120 O143 2.757 . S
La120 O144 2.470 . S
La120 O149 2.482 . S
La120 O151 2.503 . S
La121 C131 2.928 . S
La121 O143 2.482 . S
La121 O145 2.503 . S
La121 O146 2.521 . S
La121 O147 2.628 . S
La121 O148 2.554 . S
La121 O149 2.757 . S
La121 O150 2.470 . S
C122 La120 2.928 1_554 S
C122 C123 1.503 . S
C122 O140 1.261 1_554 S
C122 O141 1.243 1_554 S
C123 C122 1.503 . S
C123 C124 1.394 . S
C123 C128 1.373 . S
C124 C123 1.394 . S
C124 C125 1.380 . S
C124 H152 0.930 . S
C125 C124 1.380 . S
C125 C126 1.376 . S
C125 H153 0.930 . S
C126 C125 1.376 . S
C126 C127 1.370 . S
C127 C126 1.370 . S
C127 C128 1.396 . S
C127 H154 0.929 . S
C128 C123 1.373 . S
C128 C127 1.396 . S
C128 H155 0.929 . S
C129 O142 1.240 . S
C129 O143 1.289 . S
C130 O144 1.258 . S
C130 O145 1.256 . S
C131 La121 2.928 . S
C131 C132 1.503 . S
C131 O146 1.261 . S
C131 O147 1.243 . S
C132 C131 1.503 . S
C132 C133 1.394 . S
C132 C137 1.373 . S
C133 C132 1.394 . S
C133 C134 1.380 . S
C133 H156 0.930 . S
C134 C133 1.380 . S
C134 C135 1.376 . S
C134 H157 0.930 . S
C135 C134 1.376 . S
C135 C136 1.370 . S
C136 C135 1.370 . S
C136 C137 1.396 . S
C136 H158 0.929 . S
C137 C132 1.373 . S
C137 C136 1.396 . S
C137 H159 0.929 . S
C138 O148 1.240 . S
C138 O149 1.289 . S
C139 O150 1.258 . S
C139 O151 1.256 . S
O140 La120 2.521 . S
O140 C122 1.261 1_556 S
O141 La120 2.628 . S
O141 C122 1.243 1_556 S
O142 La120 2.554 . S
O142 C129 1.240 . S
O143 La120 2.757 . S
O143 La121 2.482 . S
O143 C129 1.289 . S
O144 La120 2.470 . S
O144 C130 1.258 . S
O145 La121 2.503 . S
O145 C130 1.256 . S
O146 La121 2.521 . S
O146 C131 1.261 . S
O147 La121 2.628 . S
O147 C131 1.243 . S
O148 La121 2.554 . S
O148 C138 1.240 . S
O149 La120 2.482 . S
O149 La121 2.757 . S
O149 C138 1.289 . S
O150 La121 2.470 . S
O150 C139 1.258 . S
O151 La120 2.503 . S
O151 C139 1.256 . S
H152 C124 0.930 . S
H153 C125 0.930 . S
H154 C127 0.929 . S
H155 C128 0.929 . S
H156 C133 0.930 . S
H157 C134 0.930 . S
H158 C136 0.929 . S
H159 C137 0.929 . S
La160 C162 2.928 . S
La160 O180 2.521 . S
La160 O181 2.628 . S
La160 O182 2.554 . S
La160 O183 2.757 . S
La160 O184 2.470 . S
La160 O189 2.482 . S
La160 O191 2.503 . S
La161 C171 2.918 1_455 S
La161 O183 2.493 . S
La161 O185 2.503 1_455 S
La161 O186 2.510 1_455 S
La161 O187 2.621 1_455 S
La161 O188 2.561 . S
La161 O189 2.774 . S
La161 O190 2.485 . S
C162 La160 2.928 . S
C162 C163 1.503 . S
C162 O180 1.261 . S
C162 O181 1.243 . S
C163 C162 1.503 . S
C163 C164 1.394 . S
C163 C168 1.373 . S
C164 C163 1.394 . S
C164 C165 1.380 . S
C164 H192 0.930 . S
C165 C164 1.380 . S
C165 C166 1.376 . S
C165 H193 0.930 . S
C166 C165 1.376 . S
C166 C167 1.370 . S
C167 C166 1.370 . S
C167 C168 1.396 . S
C167 H194 0.929 . S
C168 C163 1.373 . S
C168 C167 1.396 . S
C168 H195 0.929 . S
C169 O182 1.240 . S
C169 O183 1.289 . S
C170 O184 1.258 . S
C170 O185 1.256 1_455 S
C171 La161 2.918 1_655 S
C171 C172 1.503 1_556 S
C171 O186 1.261 . S
C171 O187 1.243 . S
C172 C171 1.503 1_554 S
C172 C173 1.394 . S
C172 C177 1.373 . S
C173 C172 1.394 . S
C173 C174 1.380 . S
C173 H196 0.930 . S
C174 C173 1.380 . S
C174 C175 1.376 . S
C174 H197 0.930 . S
C175 C174 1.376 . S
C175 C176 1.370 . S
C176 C175 1.370 . S
C176 C177 1.396 . S
C176 H198 0.929 . S
C177 C172 1.373 . S
C177 C176 1.396 . S
C177 H199 0.929 . S
C178 O188 1.240 . S
C178 O189 1.289 . S
C179 O190 1.258 . S
C179 O191 1.256 . S
O180 La160 2.521 . S
O180 C162 1.261 . S
O181 La160 2.628 . S
O181 C162 1.243 . S
O182 La160 2.554 . S
O182 C169 1.240 . S
O183 La160 2.757 . S
O183 La161 2.493 . S
O183 C169 1.289 . S
O184 La160 2.470 . S
O184 C170 1.258 . S
O185 La161 2.503 1_655 S
O185 C170 1.256 1_655 S
O186 La161 2.510 1_655 S
O186 C171 1.261 . S
O187 La161 2.621 1_655 S
O187 C171 1.243 . S
O188 La161 2.561 . S
O188 C178 1.240 . S
O189 La160 2.482 . S
O189 La161 2.774 . S
O189 C178 1.289 . S
O190 La161 2.485 . S
O190 C179 1.258 . S
O191 La160 2.503 . S
O191 C179 1.256 . S
H192 C164 0.930 . S
H193 C165 0.930 . S
H194 C167 0.929 . S
H195 C168 0.929 . S
H196 C173 0.930 . S
H197 C174 0.930 . S
H198 C176 0.929 . S
H199 C177 0.929 . S
La200 C202 2.928 . S
La200 O220 2.521 . S
La200 O221 2.628 . S
La200 O222 2.554 . S
La200 O223 2.757 . S
La200 O224 2.470 . S
La200 O229 2.482 . S
La200 O231 2.503 . S
La201 C211 2.928 . S
La201 O223 2.482 . S
La201 O225 2.503 . S
La201 O226 2.521 . S
La201 O227 2.628 . S
La201 O228 2.554 . S
La201 O229 2.757 . S
La201 O230 2.470 . S
C202 La200 2.928 . S
C202 C203 1.503 . S
C202 O220 1.261 . S
C202 O221 1.243 . S
C203 C202 1.503 . S
C203 C204 1.394 . S
C203 C208 1.373 . S
C204 C203 1.394 . S
C204 C205 1.380 . S
C204 H232 0.930 . S
C205 C204 1.380 . S
C205 C206 1.376 . S
C205 H233 0.930 . S
C206 C205 1.376 . S
C206 C207 1.370 . S
C207 C206 1.370 . S
C207 C208 1.396 . S
C207 H234 0.929 . S
C208 C203 1.373 . S
C208 C207 1.396 . S
C208 H235 0.929 . S
C209 O222 1.240 . S
C209 O223 1.289 . S
C210 O224 1.258 . S
C210 O225 1.256 . S
C211 La201 2.928 . S
C211 C212 1.503 . S
C211 O226 1.261 . S
C211 O227 1.243 . S
C212 C211 1.503 . S
C212 C213 1.394 1_554 S
C212 C217 1.373 1_554 S
C213 C212 1.394 1_556 S
C213 C214 1.380 . S
C213 H236 0.930 1_556 S
C214 C213 1.380 . S
C214 C215 1.376 . S
C214 H237 0.930 . S
C215 C214 1.376 . S
C215 C216 1.370 . S
C216 C215 1.370 . S
C216 C217 1.396 . S
C216 H238 0.929 . S
C217 C212 1.373 1_556 S
C217 C216 1.396 . S
C217 H239 0.925 1_556 S
C218 O228 1.240 . S
C218 O229 1.289 . S
C219 O230 1.258 . S
C219 O231 1.256 . S
O220 La200 2.521 . S
O220 C202 1.261 . S
O221 La200 2.628 . S
O221 C202 1.243 . S
O222 La200 2.554 . S
O222 C209 1.240 . S
O223 La200 2.757 . S
O223 La201 2.482 . S
O223 C209 1.289 . S
O224 La200 2.470 . S
O224 C210 1.258 . S
O225 La201 2.503 . S
O225 C210 1.256 . S
O226 La201 2.521 . S
O226 C211 1.261 . S
O227 La201 2.628 . S
O227 C211 1.243 . S
O228 La201 2.554 . S
O228 C218 1.240 . S
O229 La200 2.482 . S
O229 La201 2.757 . S
O229 C218 1.289 . S
O230 La201 2.470 . S
O230 C219 1.258 . S
O231 La200 2.503 . S
O231 C219 1.256 . S
H232 C204 0.930 . S
H233 C205 0.930 . S
H234 C207 0.929 . S
H235 C208 0.929 . S
H236 C213 0.930 1_554 S
H237 C214 0.930 . S
H238 C216 0.929 . S
H239 C217 0.925 1_554 S
La240 C242 2.928 . S
La240 O260 2.521 . S
La240 O261 2.628 . S
La240 O262 2.554 . S
La240 O263 2.757 . S
La240 O264 2.470 . S
La240 O269 2.482 . S
La240 O271 2.503 . S
La241 C251 2.928 . S
La241 O263 2.482 . S
La241 O265 2.503 . S
La241 O266 2.521 . S
La241 O267 2.628 . S
La241 O268 2.554 . S
La241 O269 2.757 . S
La241 O270 2.470 . S
C242 La240 2.928 . S
C242 C243 1.503 . S
C242 O260 1.261 . S
C242 O261 1.243 . S
C243 C242 1.503 . S
C243 C244 1.394 . S
C243 C248 1.373 . S
C244 C243 1.394 . S
C244 C245 1.380 . S
C244 H272 0.930 . S
C245 C244 1.380 . S
C245 C246 1.376 . S
C245 H273 0.930 . S
C246 C245 1.376 . S
C246 C247 1.370 . S
C247 C246 1.370 . S
C247 C248 1.396 . S
C247 H274 0.929 . S
C248 C243 1.373 . S
C248 C247 1.396 . S
C248 H275 0.929 . S
C249 O262 1.240 . S
C249 O263 1.289 . S
C250 O264 1.258 . S
C250 O265 1.256 . S
C251 La241 2.928 . S
C251 C252 1.503 . S
C251 O266 1.261 . S
C251 O267 1.243 . S
C252 C251 1.503 . S
C252 C253 1.394 . S
C252 C257 1.373 . S
C253 C252 1.394 . S
C253 C254 1.380 . S
C253 H276 0.930 . S
C254 C253 1.380 . S
C254 C255 1.376 . S
C254 H277 0.930 . S
C255 C254 1.376 . S
C255 C256 1.370 . S
C256 C255 1.370 . S
C256 C257 1.396 . S
C256 H278 0.929 . S
C257 C252 1.373 . S
C257 C256 1.396 . S
C257 H279 0.929 . S
C258 O268 1.240 . S
C258 O269 1.289 . S
C259 O270 1.258 . S
C259 O271 1.256 . S
O260 La240 2.521 . S
O260 C242 1.261 . S
O261 La240 2.628 . S
O261 C242 1.243 . S
O262 La240 2.554 . S
O262 C249 1.240 . S
O263 La240 2.757 . S
O263 La241 2.482 . S
O263 C249 1.289 . S
O264 La240 2.470 . S
O264 C250 1.258 . S
O265 La241 2.503 . S
O265 C250 1.256 . S
O266 La241 2.521 . S
O266 C251 1.261 . S
O267 La241 2.628 . S
O267 C251 1.243 . S
O268 La241 2.554 . S
O268 C258 1.240 . S
O269 La240 2.482 . S
O269 La241 2.757 . S
O269 C258 1.289 . S
O270 La241 2.470 . S
O270 C259 1.258 . S
O271 La240 2.503 . S
O271 C259 1.256 . S
H272 C244 0.930 . S
H273 C245 0.930 . S
H274 C247 0.929 . S
H275 C248 0.929 . S
H276 C253 0.930 . S
H277 C254 0.930 . S
H278 C256 0.929 . S
H279 C257 0.929 . S
La280 C282 2.928 . S
La280 O300 2.521 . S
La280 O301 2.628 . S
La280 O302 2.554 . S
La280 O303 2.757 . S
La280 O304 2.470 . S
La280 O309 2.482 . S
La280 O311 2.503 . S
La281 C291 2.928 . S
La281 O303 2.482 . S
La281 O305 2.503 . S
La281 O306 2.521 . S
La281 O307 2.628 . S
La281 O308 2.554 . S
La281 O309 2.757 . S
La281 O310 2.470 . S
C282 La280 2.928 . S
C282 C283 1.503 . S
C282 O300 1.261 . S
C282 O301 1.243 . S
C283 C282 1.503 . S
C283 C284 1.394 . S
C283 C288 1.373 . S
C284 C283 1.394 . S
C284 C285 1.380 . S
C284 H312 0.930 . S
C285 C284 1.380 . S
C285 C286 1.376 . S
C285 H313 0.930 . S
C286 C285 1.376 . S
C286 C287 1.370 . S
C287 C286 1.370 . S
C287 C288 1.396 . S
C287 H314 0.929 . S
C288 C283 1.373 . S
C288 C287 1.396 . S
C288 H315 0.929 . S
C289 O302 1.240 . S
C289 O303 1.289 . S
C290 O304 1.258 . S
C290 O305 1.256 . S
C291 La281 2.928 . S
C291 C292 1.503 . S
C291 O306 1.261 . S
C291 O307 1.243 . S
C292 C291 1.503 . S
C292 C293 1.394 . S
C292 C297 1.373 . S
C293 C292 1.394 . S
C293 C294 1.380 . S
C293 H316 0.930 . S
C294 C293 1.380 . S
C294 C295 1.376 . S
C294 H317 0.930 . S
C295 C294 1.376 . S
C295 C296 1.370 . S
C296 C295 1.370 . S
C296 C297 1.396 . S
C296 H318 0.929 . S
C297 C292 1.373 . S
C297 C296 1.396 . S
C297 H319 0.929 . S
C298 O308 1.240 . S
C298 O309 1.289 . S
C299 O310 1.258 . S
C299 O311 1.256 . S
O300 La280 2.521 . S
O300 C282 1.261 . S
O301 La280 2.628 . S
O301 C282 1.243 . S
O302 La280 2.554 . S
O302 C289 1.240 . S
O303 La280 2.757 . S
O303 La281 2.482 . S
O303 C289 1.289 . S
O304 La280 2.470 . S
O304 C290 1.258 . S
O305 La281 2.503 . S
O305 C290 1.256 . S
O306 La281 2.521 . S
O306 C291 1.261 . S
O307 La281 2.628 . S
O307 C291 1.243 . S
O308 La281 2.554 . S
O308 C298 1.240 . S
O309 La280 2.482 . S
O309 La281 2.757 . S
O309 C298 1.289 . S
O310 La281 2.470 . S
O310 C299 1.258 . S
O311 La280 2.503 . S
O311 C299 1.256 . S
H312 C284 0.930 . S
H313 C285 0.930 . S
H314 C287 0.929 . S
H315 C288 0.929 . S
H316 C293 0.930 . S
H317 C294 0.930 . S
H318 C296 0.929 . S
H319 C297 0.929 . S
La320 C322 2.928 . S
La320 O340 2.521 . S
La320 O341 2.628 . S
La320 O342 2.554 . S
La320 O343 2.757 . S
La320 O344 2.470 . S
La320 O349 2.482 . S
La320 O351 2.503 . S
La321 C331 2.928 . S
La321 O343 2.482 . S
La321 O345 2.503 . S
La321 O346 2.521 . S
La321 O347 2.628 . S
La321 O348 2.554 . S
La321 O349 2.757 . S
La321 O350 2.470 . S
C322 La320 2.928 . S
C322 C323 1.503 . S
C322 O340 1.261 . S
C322 O341 1.243 . S
C323 C322 1.503 . S
C323 C324 1.394 . S
C323 C328 1.373 . S
C324 C323 1.394 . S
C324 C325 1.380 . S
C324 H352 0.930 . S
C325 C324 1.380 . S
C325 C326 1.376 . S
C325 H353 0.930 . S
C326 C325 1.376 . S
C326 C327 1.370 . S
C327 C326 1.370 . S
C327 C328 1.396 . S
C327 H354 0.929 . S
C328 C323 1.373 . S
C328 C327 1.396 . S
C328 H355 0.929 . S
C329 O342 1.240 . S
C329 O343 1.289 . S
C330 O344 1.258 . S
C330 O345 1.256 . S
C331 La321 2.928 . S
C331 C332 1.503 . S
C331 O346 1.261 . S
C331 O347 1.243 . S
C332 C331 1.503 . S
C332 C333 1.394 . S
C332 C337 1.373 . S
C333 C332 1.394 . S
C333 C334 1.380 . S
C333 H356 0.930 . S
C334 C333 1.380 . S
C334 C335 1.376 . S
C334 H357 0.930 . S
C335 C334 1.376 . S
C335 C336 1.370 . S
C336 C335 1.370 . S
C336 C337 1.396 . S
C336 H358 0.929 . S
C337 C332 1.373 . S
C337 C336 1.396 . S
C337 H359 0.929 . S
C338 O348 1.240 . S
C338 O349 1.289 . S
C339 O350 1.258 . S
C339 O351 1.256 . S
O340 La320 2.521 . S
O340 C322 1.261 . S
O341 La320 2.628 . S
O341 C322 1.243 . S
O342 La320 2.554 . S
O342 C329 1.240 . S
O343 La320 2.757 . S
O343 La321 2.482 . S
O343 C329 1.289 . S
O344 La320 2.470 . S
O344 C330 1.258 . S
O345 La321 2.503 . S
O345 C330 1.256 . S
O346 La321 2.521 . S
O346 C331 1.261 . S
O347 La321 2.628 . S
O347 C331 1.243 . S
O348 La321 2.554 . S
O348 C338 1.240 . S
O349 La320 2.482 . S
O349 La321 2.757 . S
O349 C338 1.289 . S
O350 La321 2.470 . S
O350 C339 1.258 . S
O351 La320 2.503 . S
O351 C339 1.256 . S
H352 C324 0.930 . S
H353 C325 0.930 . S
H354 C327 0.929 . S
H355 C328 0.929 . S
H356 C333 0.930 . S
H357 C334 0.930 . S
H358 C336 0.929 . S
H359 C337 0.929 . S
La360 C362 2.928 . S
La360 O380 2.521 . S
La360 O381 2.628 . S
La360 O382 2.554 . S
La360 O383 2.757 . S
La360 O384 2.470 . S
La360 O389 2.482 . S
La360 O391 2.503 . S
La361 C371 2.928 1_554 S
La361 O383 2.482 . S
La361 O385 2.503 . S
La361 O386 2.521 . S
La361 O387 2.628 . S
La361 O388 2.554 . S
La361 O389 2.757 . S
La361 O390 2.470 . S
C362 La360 2.928 . S
C362 C363 1.503 . S
C362 O380 1.261 . S
C362 O381 1.243 . S
C363 C362 1.503 . S
C363 C364 1.394 . S
C363 C368 1.373 . S
C364 C363 1.394 . S
C364 C365 1.380 . S
C364 H392 0.930 . S
C365 C364 1.380 . S
C365 C366 1.376 . S
C365 H393 0.930 . S
C366 C365 1.376 . S
C366 C367 1.370 . S
C367 C366 1.370 . S
C367 C368 1.396 . S
C367 H394 0.929 . S
C368 C363 1.373 . S
C368 C367 1.396 . S
C368 H395 0.929 . S
C369 O382 1.240 . S
C369 O383 1.289 . S
C370 O384 1.258 . S
C370 O385 1.256 . S
C371 La361 2.928 1_556 S
C371 C372 1.503 . S
C371 O386 1.261 1_556 S
C371 O387 1.243 1_556 S
C372 C371 1.503 . S
C372 C373 1.394 . S
C372 C377 1.373 . S
C373 C372 1.394 . S
C373 C374 1.380 . S
C373 H396 0.930 . S
C374 C373 1.380 . S
C374 C375 1.376 . S
C374 H397 0.930 . S
C375 C374 1.376 . S
C375 C376 1.370 . S
C376 C375 1.370 . S
C376 C377 1.396 . S
C376 H398 0.929 . S
C377 C372 1.373 . S
C377 C376 1.396 . S
C377 H399 0.929 . S
C378 O388 1.240 . S
C378 O389 1.289 . S
C379 O390 1.258 . S
C379 O391 1.256 . S
O380 La360 2.521 . S
O380 C362 1.261 . S
O381 La360 2.628 . S
O381 C362 1.243 . S
O382 La360 2.554 . S
O382 C369 1.240 . S
O383 La360 2.757 . S
O383 La361 2.482 . S
O383 C369 1.289 . S
O384 La360 2.470 . S
O384 C370 1.258 . S
O385 La361 2.503 . S
O385 C370 1.256 . S
O386 La361 2.521 . S
O386 C371 1.261 1_554 S
O387 La361 2.628 . S
O387 C371 1.243 1_554 S
O388 La361 2.554 . S
O388 C378 1.240 . S
O389 La360 2.482 . S
O389 La361 2.757 . S
O389 C378 1.289 . S
O390 La361 2.470 . S
O390 C379 1.258 . S
O391 La360 2.503 . S
O391 C379 1.256 . S
H392 C364 0.930 . S
H393 C365 0.930 . S
H394 C367 0.929 . S
H395 C368 0.929 . S
H396 C373 0.930 . S
H397 C374 0.930 . S
H398 C376 0.929 . S
H399 C377 0.929 . S
La400 C402 2.928 . S
La400 O420 2.521 . S
La400 O421 2.628 . S
La400 O422 2.554 . S
La400 O423 2.757 . S
La400 O424 2.470 . S
La400 O429 2.482 . S
La400 O431 2.503 . S
La401 C411 2.928 . S
La401 O423 2.482 . S
La401 O425 2.503 . S
La401 O426 2.521 . S
La401 O427 2.628 . S
La401 O428 2.554 . S
La401 O429 2.757 . S
La401 O430 2.470 . S
C402 La400 2.928 . S
C402 C403 1.503 . S
C402 O420 1.261 . S
C402 O421 1.243 . S
C403 C402 1.503 . S
C403 C404 1.394 1_556 S
C403 C408 1.373 1_556 S
C404 C403 1.394 1_554 S
C404 C405 1.380 . S
C404 H432 0.930 1_554 S
C405 C404 1.380 . S
C405 C406 1.376 . S
C405 H433 0.930 . S
C406 C405 1.376 . S
C406 C407 1.370 . S
C407 C406 1.370 . S
C407 C408 1.396 . S
C407 H434 0.929 . S
C408 C403 1.373 1_554 S
C408 C407 1.396 . S
C408 H435 0.925 1_554 S
C409 O422 1.240 . S
C409 O423 1.289 . S
C410 O424 1.258 . S
C410 O425 1.256 . S
C411 La401 2.928 . S
C411 C412 1.503 . S
C411 O426 1.261 . S
C411 O427 1.243 . S
C412 C411 1.503 . S
C412 C413 1.394 . S
C412 C417 1.373 . S
C413 C412 1.394 . S
C413 C414 1.380 . S
C413 H436 0.930 . S
C414 C413 1.380 . S
C414 C415 1.376 . S
C414 H437 0.930 . S
C415 C414 1.376 . S
C415 C416 1.370 . S
C416 C415 1.370 . S
C416 C417 1.396 . S
C416 H438 0.929 . S
C417 C412 1.373 . S
C417 C416 1.396 . S
C417 H439 0.929 . S
C418 O428 1.240 . S
C418 O429 1.289 . S
C419 O430 1.258 . S
C419 O431 1.256 . S
O420 La400 2.521 . S
O420 C402 1.261 . S
O421 La400 2.628 . S
O421 C402 1.243 . S
O422 La400 2.554 . S
O422 C409 1.240 . S
O423 La400 2.757 . S
O423 La401 2.482 . S
O423 C409 1.289 . S
O424 La400 2.470 . S
O424 C410 1.258 . S
O425 La401 2.503 . S
O425 C410 1.256 . S
O426 La401 2.521 . S
O426 C411 1.261 . S
O427 La401 2.628 . S
O427 C411 1.243 . S
O428 La401 2.554 . S
O428 C418 1.240 . S
O429 La400 2.482 . S
O429 La401 2.757 . S
O429 C418 1.289 . S
O430 La401 2.470 . S
O430 C419 1.258 . S
O431 La400 2.503 . S
O431 C419 1.256 . S
H432 C404 0.930 1_556 S
H433 C405 0.930 . S
H434 C407 0.929 . S
H435 C408 0.925 1_556 S
H436 C413 0.930 . S
H437 C414 0.930 . S
H438 C416 0.929 . S
H439 C417 0.929 . S
La440 C442 2.928 . S
La440 O460 2.521 . S
La440 O461 2.628 . S
La440 O462 2.554 . S
La440 O463 2.757 . S
La440 O464 2.470 . S
La440 O469 2.482 . S
La440 O471 2.503 . S
La441 C451 2.928 . S
La441 O463 2.482 . S
La441 O465 2.503 . S
La441 O466 2.521 . S
La441 O467 2.628 . S
La441 O468 2.554 . S
La441 O469 2.757 . S
La441 O470 2.470 . S
C442 La440 2.928 . S
C442 C443 1.503 . S
C442 O460 1.261 . S
C442 O461 1.243 . S
C443 C442 1.503 . S
C443 C444 1.394 . S
C443 C448 1.373 . S
C444 C443 1.394 . S
C444 C445 1.380 . S
C444 H472 0.930 . S
C445 C444 1.380 . S
C445 C446 1.376 . S
C445 H473 0.930 . S
C446 C445 1.376 . S
C446 C447 1.370 . S
C447 C446 1.370 . S
C447 C448 1.396 . S
C447 H474 0.929 . S
C448 C443 1.373 . S
C448 C447 1.396 . S
C448 H475 0.929 . S
C449 O462 1.240 . S
C449 O463 1.289 . S
C450 O464 1.258 . S
C450 O465 1.256 . S
C451 La441 2.928 . S
C451 C452 1.503 . S
C451 O466 1.261 . S
C451 O467 1.243 . S
C452 C451 1.503 . S
C452 C453 1.394 . S
C452 C457 1.373 . S
C453 C452 1.394 . S
C453 C454 1.380 . S
C453 H476 0.930 . S
C454 C453 1.380 . S
C454 C455 1.376 . S
C454 H477 0.930 . S
C455 C454 1.376 . S
C455 C456 1.370 . S
C456 C455 1.370 . S
C456 C457 1.396 . S
C456 H478 0.929 . S
C457 C452 1.373 . S
C457 C456 1.396 . S
C457 H479 0.929 . S
C458 O468 1.240 . S
C458 O469 1.289 . S
C459 O470 1.258 . S
C459 O471 1.256 . S
O460 La440 2.521 . S
O460 C442 1.261 . S
O461 La440 2.628 . S
O461 C442 1.243 . S
O462 La440 2.554 . S
O462 C449 1.240 . S
O463 La440 2.757 . S
O463 La441 2.482 . S
O463 C449 1.289 . S
O464 La440 2.470 . S
O464 C450 1.258 . S
O465 La441 2.503 . S
O465 C450 1.256 . S
O466 La441 2.521 . S
O466 C451 1.261 . S
O467 La441 2.628 . S
O467 C451 1.243 . S
O468 La441 2.554 . S
O468 C458 1.240 . S
O469 La440 2.482 . S
O469 La441 2.757 . S
O469 C458 1.289 . S
O470 La441 2.470 . S
O470 C459 1.258 . S
O471 La440 2.503 . S
O471 C459 1.256 . S
H472 C444 0.930 . S
H473 C445 0.930 . S
H474 C447 0.929 . S
H475 C448 0.929 . S
H476 C453 0.930 . S
H477 C454 0.930 . S
H478 C456 0.929 . S
H479 C457 0.929 . S
La480 C482 2.928 . S
La480 O500 2.521 . S
La480 O501 2.628 . S
La480 O502 2.554 . S
La480 O503 2.757 . S
La480 O504 2.470 . S
La480 O509 2.482 . S
La480 O511 2.503 . S
La481 C491 2.928 . S
La481 O503 2.482 . S
La481 O505 2.503 . S
La481 O506 2.521 . S
La481 O507 2.628 . S
La481 O508 2.554 . S
La481 O509 2.757 . S
La481 O510 2.470 . S
C482 La480 2.928 . S
C482 C483 1.503 . S
C482 O500 1.261 . S
C482 O501 1.243 . S
C483 C482 1.503 . S
C483 C484 1.394 . S
C483 C488 1.373 . S
C484 C483 1.394 . S
C484 C485 1.380 . S
C484 H512 0.930 . S
C485 C484 1.380 . S
C485 C486 1.376 . S
C485 H513 0.930 . S
C486 C485 1.376 . S
C486 C487 1.370 . S
C487 C486 1.370 . S
C487 C488 1.396 . S
C487 H514 0.929 . S
C488 C483 1.373 . S
C488 C487 1.396 . S
C488 H515 0.929 . S
C489 O502 1.240 . S
C489 O503 1.289 . S
C490 O504 1.258 . S
C490 O505 1.256 . S
C491 La481 2.928 . S
C491 C492 1.503 . S
C491 O506 1.261 . S
C491 O507 1.243 . S
C492 C491 1.503 . S
C492 C493 1.394 . S
C492 C497 1.373 . S
C493 C492 1.394 . S
C493 C494 1.380 . S
C493 H516 0.930 . S
C494 C493 1.380 . S
C494 C495 1.376 . S
C494 H517 0.930 . S
C495 C494 1.376 . S
C495 C496 1.370 . S
C496 C495 1.370 . S
C496 C497 1.396 . S
C496 H518 0.929 . S
C497 C492 1.373 . S
C497 C496 1.396 . S
C497 H519 0.929 . S
C498 O508 1.240 . S
C498 O509 1.289 . S
C499 O510 1.258 . S
C499 O511 1.256 . S
O500 La480 2.521 . S
O500 C482 1.261 . S
O501 La480 2.628 . S
O501 C482 1.243 . S
O502 La480 2.554 . S
O502 C489 1.240 . S
O503 La480 2.757 . S
O503 La481 2.482 . S
O503 C489 1.289 . S
O504 La480 2.470 . S
O504 C490 1.258 . S
O505 La481 2.503 . S
O505 C490 1.256 . S
O506 La481 2.521 . S
O506 C491 1.261 . S
O507 La481 2.628 . S
O507 C491 1.243 . S
O508 La481 2.554 . S
O508 C498 1.240 . S
O509 La480 2.482 . S
O509 La481 2.757 . S
O509 C498 1.289 . S
O510 La481 2.470 . S
O510 C499 1.258 . S
O511 La480 2.503 . S
O511 C499 1.256 . S
H512 C484 0.930 . S
H513 C485 0.930 . S
H514 C487 0.929 . S
H515 C488 0.929 . S
H516 C493 0.930 . S
H517 C494 0.930 . S
H518 C496 0.929 . S
H519 C497 0.929 . S
La520 C522 2.928 . S
La520 O540 2.521 . S
La520 O541 2.628 . S
La520 O542 2.554 . S
La520 O543 2.757 1_655 S
La520 O544 2.470 1_655 S
La520 O549 2.482 1_655 S
La520 O551 2.503 . S
La521 C531 2.928 . S
La521 O543 2.482 . S
La521 O545 2.503 . S
La521 O546 2.521 . S
La521 O547 2.628 . S
La521 O548 2.554 . S
La521 O549 2.757 . S
La521 O550 2.470 . S
C522 La520 2.928 . S
C522 C523 1.503 . S
C522 O540 1.261 . S
C522 O541 1.243 . S
C523 C522 1.503 . S
C523 C524 1.394 . S
C523 C528 1.373 . S
C524 C523 1.394 . S
C524 C525 1.380 . S
C524 H552 0.930 . S
C525 C524 1.380 . S
C525 C526 1.376 . S
C525 H553 0.930 . S
C526 C525 1.376 . S
C526 C527 1.370 . S
C527 C526 1.370 . S
C527 C528 1.396 . S
C527 H554 0.929 . S
C528 C523 1.373 . S
C528 C527 1.396 . S
C528 H555 0.929 . S
C529 O542 1.240 1_455 S
C529 O543 1.289 . S
C530 O544 1.258 . S
C530 O545 1.256 . S
C531 La521 2.928 . S
C531 C532 1.503 1_554 S
C531 O546 1.261 . S
C531 O547 1.243 . S
C532 C531 1.503 1_556 S
C532 C533 1.394 . S
C532 C537 1.373 . S
C533 C532 1.394 . S
C533 C534 1.380 . S
C533 H556 0.930 . S
C534 C533 1.380 . S
C534 C535 1.376 . S
C534 H557 0.930 . S
C535 C534 1.376 . S
C535 C536 1.370 . S
C536 C535 1.370 . S
C536 C537 1.396 . S
C536 H558 0.929 . S
C537 C532 1.373 . S
C537 C536 1.396 . S
C537 H559 0.929 . S
C538 O548 1.240 . S
C538 O549 1.289 . S
C539 O550 1.258 1_655 S
C539 O551 1.256 . S
O540 La520 2.521 . S
O540 C522 1.261 . S
O541 La520 2.628 . S
O541 C522 1.243 . S
O542 La520 2.554 . S
O542 C529 1.240 1_655 S
O543 La520 2.757 1_455 S
O543 La521 2.482 . S
O543 C529 1.289 . S
O544 La520 2.470 1_455 S
O544 C530 1.258 . S
O545 La521 2.503 . S
O545 C530 1.256 . S
O546 La521 2.521 . S
O546 C531 1.261 . S
O547 La521 2.628 . S
O547 C531 1.243 . S
O548 La521 2.554 . S
O548 C538 1.240 . S
O549 La520 2.482 1_455 S
O549 La521 2.757 . S
O549 C538 1.289 . S
O550 La521 2.470 . S
O550 C539 1.258 1_455 S
O551 La520 2.503 . S
O551 C539 1.256 . S
H552 C524 0.930 . S
H553 C525 0.930 . S
H554 C527 0.929 . S
H555 C528 0.929 . S
H556 C533 0.930 . S
H557 C534 0.930 . S
H558 C536 0.929 . S
H559 C537 0.929 . S
La560 C562 2.928 . S
La560 O580 2.521 . S
La560 O581 2.628 . S
La560 O582 2.554 . S
La560 O583 2.757 . S
La560 O584 2.470 . S
La560 O589 2.482 . S
La560 O591 2.503 . S
La561 C571 2.928 . S
La561 O583 2.482 . S
La561 O585 2.503 . S
La561 O586 2.521 . S
La561 O587 2.628 . S
La561 O588 2.554 . S
La561 O589 2.757 . S
La561 O590 2.470 . S
C562 La560 2.928 . S
C562 C563 1.503 . S
C562 O580 1.261 . S
C562 O581 1.243 . S
C563 C562 1.503 . S
C563 C564 1.394 . S
C563 C568 1.373 . S
C564 C563 1.394 . S
C564 C565 1.380 . S
C564 H592 0.930 . S
C565 C564 1.380 . S
C565 C566 1.376 . S
C565 H593 0.930 . S
C566 C565 1.376 . S
C566 C567 1.370 . S
C567 C566 1.370 . S
C567 C568 1.396 . S
C567 H594 0.929 . S
C568 C563 1.373 . S
C568 C567 1.396 . S
C568 H595 0.929 . S
C569 O582 1.240 . S
C569 O583 1.289 . S
C570 O584 1.258 . S
C570 O585 1.256 . S
C571 La561 2.928 . S
C571 C572 1.503 . S
C571 O586 1.261 . S
C571 O587 1.243 . S
C572 C571 1.503 . S
C572 C573 1.394 . S
C572 C577 1.373 . S
C573 C572 1.394 . S
C573 C574 1.380 . S
C573 H596 0.930 . S
C574 C573 1.380 . S
C574 C575 1.376 . S
C574 H597 0.930 . S
C575 C574 1.376 . S
C575 C576 1.370 . S
C576 C575 1.370 . S
C576 C577 1.396 . S
C576 H598 0.929 . S
C577 C572 1.373 . S
C577 C576 1.396 . S
C577 H599 0.929 . S
C578 O588 1.240 . S
C578 O589 1.289 . S
C579 O590 1.258 . S
C579 O591 1.256 . S
O580 La560 2.521 . S
O580 C562 1.261 . S
O581 La560 2.628 . S
O581 C562 1.243 . S
O582 La560 2.554 . S
O582 C569 1.240 . S
O583 La560 2.757 . S
O583 La561 2.482 . S
O583 C569 1.289 . S
O584 La560 2.470 . S
O584 C570 1.258 . S
O585 La561 2.503 . S
O585 C570 1.256 . S
O586 La561 2.521 . S
O586 C571 1.261 . S
O587 La561 2.628 . S
O587 C571 1.243 . S
O588 La561 2.554 . S
O588 C578 1.240 . S
O589 La560 2.482 . S
O589 La561 2.757 . S
O589 C578 1.289 . S
O590 La561 2.470 . S
O590 C579 1.258 . S
O591 La560 2.503 . S
O591 C579 1.256 . S
H592 C564 0.930 . S
H593 C565 0.930 . S
H594 C567 0.929 . S
H595 C568 0.929 . S
H596 C573 0.930 . S
H597 C574 0.930 . S
H598 C576 0.929 . S
H599 C577 0.929 . S
La600 C602 2.928 . S
La600 O620 2.521 . S
La600 O621 2.628 . S
La600 O622 2.554 1_655 S
La600 O623 2.757 1_655 S
La600 O624 2.470 1_655 S
La600 O629 2.482 1_655 S
La600 O631 2.503 . S
La601 C611 2.928 . S
La601 O623 2.482 . S
La601 O625 2.503 . S
La601 O626 2.521 . S
La601 O627 2.628 . S
La601 O628 2.554 . S
La601 O629 2.757 . S
La601 O630 2.470 . S
C602 La600 2.928 . S
C602 C603 1.503 1_556 S
C602 O620 1.261 . S
C602 O621 1.243 . S
C603 C602 1.503 1_554 S
C603 C604 1.394 . S
C603 C608 1.373 . S
C604 C603 1.394 . S
C604 C605 1.380 . S
C604 H632 0.930 . S
C605 C604 1.380 . S
C605 C606 1.376 . S
C605 H633 0.930 . S
C606 C605 1.376 . S
C606 C607 1.370 . S
C607 C606 1.370 . S
C607 C608 1.396 . S
C607 H634 0.929 . S
C608 C603 1.373 . S
C608 C607 1.396 . S
C608 H635 0.929 . S
C609 O622 1.240 . S
C609 O623 1.289 . S
C610 O624 1.258 . S
C610 O625 1.256 . S
C611 La601 2.928 . S
C611 C612 1.503 . S
C611 O626 1.261 . S
C611 O627 1.243 . S
C612 C611 1.503 . S
C612 C613 1.394 . S
C612 C617 1.373 . S
C613 C612 1.394 . S
C613 C614 1.380 . S
C613 H636 0.930 . S
C614 C613 1.380 . S
C614 C615 1.376 . S
C614 H637 0.930 . S
C615 C614 1.376 . S
C615 C616 1.370 . S
C616 C615 1.370 . S
C616 C617 1.396 . S
C616 H638 0.929 . S
C617 C612 1.373 . S
C617 C616 1.396 . S
C617 H639 0.929 . S
C618 O628 1.240 . S
C618 O629 1.289 . S
C619 O630 1.258 1_655 S
C619 O631 1.256 . S
O620 La600 2.521 . S
O620 C602 1.261 . S
O621 La600 2.628 . S
O621 C602 1.243 . S
O622 La600 2.554 1_455 S
O622 C609 1.240 . S
O623 La600 2.757 1_455 S
O623 La601 2.482 . S
O623 C609 1.289 . S
O624 La600 2.470 1_455 S
O624 C610 1.258 . S
O625 La601 2.503 . S
O625 C610 1.256 . S
O626 La601 2.521 . S
O626 C611 1.261 . S
O627 La601 2.628 . S
O627 C611 1.243 . S
O628 La601 2.554 . S
O628 C618 1.240 . S
O629 La600 2.482 1_455 S
O629 La601 2.757 . S
O629 C618 1.289 . S
O630 La601 2.470 . S
O630 C619 1.258 1_455 S
O631 La600 2.503 . S
O631 C619 1.256 . S
H632 C604 0.930 . S
H633 C605 0.930 . S
H634 C607 0.929 . S
H635 C608 0.929 . S
H636 C613 0.930 . S
H637 C614 0.930 . S
H638 C616 0.929 . S
H639 C617 0.929 . S
H640 C646 0.930 . S
H641 C649 0.930 . S
H642 C650 0.930 . S
H643 C651 0.930 . S
H644 C654 0.930 . S
H645 C655 0.930 . S
C646 H640 0.930 . S
C646 C647 1.355 . S
C646 C648 1.415 . S
C647 C646 1.355 . S
C647 C649 1.419 . S
C648 C646 1.415 . S
C648 C653 1.425 . S
C648 C655 1.409 . S
C649 H641 0.930 . S
C649 C647 1.419 . S
C649 C650 1.362 . S
C650 H642 0.930 . S
C650 C649 1.362 . S
C650 C653 1.409 . S
C651 H643 0.930 . S
C651 C652 1.355 . S
C651 C653 1.415 . S
C652 C651 1.355 . S
C652 C654 1.419 . S
C653 C648 1.425 . S
C653 C650 1.409 . S
C653 C651 1.415 . S
C654 H644 0.930 . S
C654 C652 1.419 . S
C654 C655 1.362 . S
C655 H645 0.930 . S
C655 C648 1.409 . S
C655 C654 1.362 . S
H656 C662 0.930 . S
H657 C665 0.930 . S
H658 C666 0.930 . S
H659 C667 0.930 . S
H660 C670 0.930 . S
H661 C671 0.930 . S
C662 H656 0.930 . S
C662 C663 1.355 . S
C662 C664 1.415 . S
C663 C662 1.355 . S
C663 C665 1.419 . S
C664 C662 1.415 . S
C664 C669 1.425 . S
C664 C671 1.409 . S
C665 H657 0.930 . S
C665 C663 1.419 . S
C665 C666 1.362 . S
C666 H658 0.930 . S
C666 C665 1.362 . S
C666 C669 1.409 . S
C667 H659 0.930 . S
C667 C668 1.355 . S
C667 C669 1.415 . S
C668 C667 1.355 . S
C668 C670 1.419 . S
C669 C664 1.425 . S
C669 C666 1.409 . S
C669 C667 1.415 . S
C670 H660 0.930 . S
C670 C668 1.419 . S
C670 C671 1.362 . S
C671 H661 0.930 . S
C671 C664 1.409 . S
C671 C670 1.362 . S
H672 C678 0.930 . S
H673 C681 0.930 . S
H674 C682 0.930 . S
H675 C683 0.930 . S
H676 C686 0.930 . S
H677 C687 0.930 . S
C678 H672 0.930 . S
C678 C679 1.355 . S
C678 C680 1.415 . S
C679 C678 1.355 . S
C679 C681 1.419 . S
C680 C678 1.415 . S
C680 C685 1.425 . S
C680 C687 1.409 . S
C681 H673 0.930 . S
C681 C679 1.419 . S
C681 C682 1.362 . S
C682 H674 0.930 . S
C682 C681 1.362 . S
C682 C685 1.409 . S
C683 H675 0.930 . S
C683 C684 1.355 . S
C683 C685 1.415 . S
C684 C683 1.355 . S
C684 C686 1.419 . S
C685 C680 1.425 . S
C685 C682 1.409 . S
C685 C683 1.415 . S
C686 H676 0.930 . S
C686 C684 1.419 . S
C686 C687 1.362 . S
C687 H677 0.930 . S
C687 C680 1.409 . S
C687 C686 1.362 . S
H688 C694 0.930 . S
H689 C697 0.930 . S
H690 C698 0.930 . S
H691 C699 0.930 . S
H692 C702 0.930 . S
H693 C703 0.930 . S
C694 H688 0.930 . S
C694 C695 1.355 . S
C694 C696 1.415 . S
C695 C694 1.355 . S
C695 C697 1.419 . S
C696 C694 1.415 . S
C696 C701 1.425 . S
C696 C703 1.409 . S
C697 H689 0.930 . S
C697 C695 1.419 . S
C697 C698 1.362 . S
C698 H690 0.930 . S
C698 C697 1.362 . S
C698 C701 1.409 . S
C699 H691 0.930 . S
C699 C700 1.355 . S
C699 C701 1.415 . S
C700 C699 1.355 . S
C700 C702 1.419 . S
C701 C696 1.425 . S
C701 C698 1.409 . S
C701 C699 1.415 . S
C702 H692 0.930 . S
C702 C700 1.419 . S
C702 C703 1.362 . S
C703 H693 0.930 . S
C703 C696 1.409 . S
C703 C702 1.362 . S
H704 C710 0.930 . S
H705 C713 0.930 . S
H706 C714 0.930 . S
H707 C715 0.930 . S
H708 C718 0.930 . S
H709 C719 0.930 . S
C710 H704 0.930 . S
C710 C711 1.355 . S
C710 C712 1.415 . S
C711 C710 1.355 . S
C711 C713 1.419 . S
C712 C710 1.415 . S
C712 C717 1.425 . S
C712 C719 1.409 . S
C713 H705 0.930 . S
C713 C711 1.419 . S
C713 C714 1.362 . S
C714 H706 0.930 . S
C714 C713 1.362 . S
C714 C717 1.409 . S
C715 H707 0.930 . S
C715 C716 1.355 . S
C715 C717 1.415 . S
C716 C715 1.355 . S
C716 C718 1.419 . S
C717 C712 1.425 . S
C717 C714 1.409 . S
C717 C715 1.415 . S
C718 H708 0.930 . S
C718 C716 1.419 . S
C718 C719 1.362 . S
C719 H709 0.930 . S
C719 C712 1.409 . S
C719 C718 1.362 . S
H720 C726 0.930 . S
H721 C729 0.930 . S
H722 C730 0.930 . S
H723 C731 0.930 . S
H724 C734 0.930 . S
H725 C735 0.930 . S
C726 H720 0.930 . S
C726 C727 1.355 . S
C726 C728 1.415 . S
C727 C726 1.355 . S
C727 C729 1.419 . S
C728 C726 1.415 . S
C728 C733 1.425 . S
C728 C735 1.409 . S
C729 H721 0.930 . S
C729 C727 1.419 . S
C729 C730 1.362 . S
C730 H722 0.930 . S
C730 C729 1.362 . S
C730 C733 1.409 . S
C731 H723 0.930 . S
C731 C732 1.355 . S
C731 C733 1.415 . S
C732 C731 1.355 . S
C732 C734 1.419 . S
C733 C728 1.425 . S
C733 C730 1.409 . S
C733 C731 1.415 . S
C734 H724 0.930 . S
C734 C732 1.419 . S
C734 C735 1.362 . S
C735 H725 0.930 . S
C735 C728 1.409 . S
C735 C734 1.362 . S
H736 C742 0.930 . S
H737 C745 0.930 . S
H738 C746 0.930 . S
H739 C747 0.930 . S
H740 C750 0.930 . S
H741 C751 0.930 . S
C742 H736 0.930 . S
C742 C743 1.355 . S
C742 C744 1.415 . S
C743 C742 1.355 . S
C743 C745 1.419 . S
C744 C742 1.415 . S
C744 C749 1.425 . S
C744 C751 1.409 . S
C745 H737 0.930 . S
C745 C743 1.419 . S
C745 C746 1.362 . S
C746 H738 0.930 . S
C746 C745 1.362 . S
C746 C749 1.409 . S
C747 H739 0.930 . S
C747 C748 1.355 . S
C747 C749 1.415 . S
C748 C747 1.355 . S
C748 C750 1.419 . S
C749 C744 1.425 . S
C749 C746 1.409 . S
C749 C747 1.415 . S
C750 H740 0.930 . S
C750 C748 1.419 . S
C750 C751 1.362 . S
C751 H741 0.930 . S
C751 C744 1.409 . S
C751 C750 1.362 . S
H752 C758 0.930 . S
H753 C761 0.930 . S
H754 C762 0.930 . S
H755 C763 0.930 . S
H756 C766 0.930 . S
H757 C767 0.930 . S
C758 H752 0.930 . S
C758 C759 1.355 . S
C758 C760 1.415 . S
C759 C758 1.355 . S
C759 C761 1.419 . S
C760 C758 1.415 . S
C760 C765 1.425 . S
C760 C767 1.409 . S
C761 H753 0.930 . S
C761 C759 1.419 . S
C761 C762 1.362 . S
C762 H754 0.930 . S
C762 C761 1.362 . S
C762 C765 1.409 . S
C763 H755 0.930 . S
C763 C764 1.355 . S
C763 C765 1.415 . S
C764 C763 1.355 . S
C764 C766 1.419 . S
C765 C760 1.425 . S
C765 C762 1.409 . S
C765 C763 1.415 . S
C766 H756 0.930 . S
C766 C764 1.419 . S
C766 C767 1.362 . S
C767 H757 0.930 . S
C767 C760 1.409 . S
C767 C766 1.362 . S
H768 C774 0.930 . S
H769 C777 0.930 . S
H770 C778 0.930 . S
H771 C779 0.930 . S
H772 C782 0.930 . S
H773 C783 0.930 . S
C774 H768 0.930 . S
C774 C775 1.355 . S
C774 C776 1.415 . S
C775 C774 1.355 . S
C775 C777 1.419 . S
C776 C774 1.415 . S
C776 C781 1.425 . S
C776 C783 1.409 . S
C777 H769 0.930 . S
C777 C775 1.419 . S
C777 C778 1.362 . S
C778 H770 0.930 . S
C778 C777 1.362 . S
C778 C781 1.409 . S
C779 H771 0.930 . S
C779 C780 1.355 . S
C779 C781 1.415 . S
C780 C779 1.355 . S
C780 C782 1.419 . S
C781 C776 1.425 . S
C781 C778 1.409 . S
C781 C779 1.415 . S
C782 H772 0.930 . S
C782 C780 1.419 . S
C782 C783 1.362 . S
C783 H773 0.930 . S
C783 C776 1.409 . S
C783 C782 1.362 . S
H784 C790 0.930 . S
H785 C793 0.930 . S
H786 C794 0.930 . S
H787 C795 0.930 . S
H788 C798 0.930 . S
H789 C799 0.930 . S
C790 H784 0.930 . S
C790 C791 1.355 . S
C790 C792 1.415 . S
C791 C790 1.355 . S
C791 C793 1.419 . S
C792 C790 1.415 . S
C792 C797 1.425 . S
C792 C799 1.409 . S
C793 H785 0.930 . S
C793 C791 1.419 . S
C793 C794 1.362 . S
C794 H786 0.930 . S
C794 C793 1.362 . S
C794 C797 1.409 . S
C795 H787 0.930 . S
C795 C796 1.355 . S
C795 C797 1.415 . S
C796 C795 1.355 . S
C796 C798 1.419 . S
C797 C792 1.425 . S
C797 C794 1.409 . S
C797 C795 1.415 . S
C798 H788 0.930 . S
C798 C796 1.419 . S
C798 C799 1.362 . S
C799 H789 0.930 . S
C799 C792 1.409 . S
C799 C798 1.362 . S
H800 C806 0.923 1_456 S
H801 C809 0.930 . S
H802 C810 0.930 . S
H803 C811 0.930 . S
H804 C814 0.930 . S
H805 C815 0.930 . S
C806 H800 0.923 1_654 S
C806 C807 1.376 . S
C806 C808 1.400 1_554 S
C807 C806 1.376 . S
C807 C809 1.419 . S
C808 C806 1.400 1_556 S
C808 C813 1.425 . S
C808 C815 1.409 . S
C809 H801 0.930 . S
C809 C807 1.419 . S
C809 C810 1.362 . S
C810 H802 0.930 . S
C810 C809 1.362 . S
C810 C813 1.409 1_554 S
C811 H803 0.930 . S
C811 C812 1.355 . S
C811 C813 1.415 . S
C812 C811 1.355 . S
C812 C814 1.419 . S
C813 C808 1.425 . S
C813 C810 1.409 1_556 S
C813 C811 1.415 . S
C814 H804 0.930 . S
C814 C812 1.419 . S
C814 C815 1.362 . S
C815 H805 0.930 . S
C815 C808 1.409 . S
C815 C814 1.362 . S
H816 C822 0.930 . S
H817 C825 0.930 . S
H818 C826 0.930 . S
H819 C827 0.930 . S
H820 C830 0.930 . S
H821 C831 0.930 . S
C822 H816 0.930 . S
C822 C823 1.355 . S
C822 C824 1.415 . S
C823 C822 1.355 . S
C823 C825 1.419 . S
C824 C822 1.415 . S
C824 C829 1.425 . S
C824 C831 1.409 . S
C825 H817 0.930 . S
C825 C823 1.419 . S
C825 C826 1.362 . S
C826 H818 0.930 . S
C826 C825 1.362 . S
C826 C829 1.409 . S
C827 H819 0.930 . S
C827 C828 1.355 . S
C827 C829 1.415 . S
C828 C827 1.355 . S
C828 C830 1.419 . S
C829 C824 1.425 . S
C829 C826 1.409 . S
C829 C827 1.415 . S
C830 H820 0.930 . S
C830 C828 1.419 . S
C830 C831 1.362 . S
C831 H821 0.930 . S
C831 C824 1.409 . S
C831 C830 1.362 . S
H832 C838 0.930 . S
H833 C841 0.930 . S
H834 C842 0.930 . S
H835 C843 0.930 . S
H836 C846 0.930 . S
H837 C847 0.930 . S
C838 H832 0.930 . S
C838 C839 1.355 . S
C838 C840 1.415 . S
C839 C838 1.355 . S
C839 C841 1.419 . S
C840 C838 1.415 . S
C840 C845 1.425 . S
C840 C847 1.409 . S
C841 H833 0.930 . S
C841 C839 1.419 . S
C841 C842 1.362 . S
C842 H834 0.930 . S
C842 C841 1.362 . S
C842 C845 1.409 . S
C843 H835 0.930 . S
C843 C844 1.355 . S
C843 C845 1.415 . S
C844 C843 1.355 . S
C844 C846 1.419 . S
C845 C840 1.425 . S
C845 C842 1.409 . S
C845 C843 1.415 . S
C846 H836 0.930 . S
C846 C844 1.419 . S
C846 C847 1.362 . S
C847 H837 0.930 . S
C847 C840 1.409 . S
C847 C846 1.362 . S
H848 C854 0.930 . S
H849 C857 0.930 . S
H850 C858 0.930 . S
H851 C859 0.930 . S
H852 C862 0.930 . S
H853 C863 0.930 . S
C854 H848 0.930 . S
C854 C855 1.355 . S
C854 C856 1.415 . S
C855 C854 1.355 . S
C855 C857 1.419 . S
C856 C854 1.415 . S
C856 C861 1.425 . S
C856 C863 1.409 . S
C857 H849 0.930 . S
C857 C855 1.419 . S
C857 C858 1.362 . S
C858 H850 0.930 . S
C858 C857 1.362 . S
C858 C861 1.409 . S
C859 H851 0.930 . S
C859 C860 1.355 . S
C859 C861 1.415 . S
C860 C859 1.355 . S
C860 C862 1.419 . S
C861 C856 1.425 . S
C861 C858 1.409 . S
C861 C859 1.415 . S
C862 H852 0.930 . S
C862 C860 1.419 . S
C862 C863 1.362 . S
C863 H853 0.930 . S
C863 C856 1.409 . S
C863 C862 1.362 . S
H864 C870 0.930 . S
H865 C873 0.930 . S
H866 C874 0.930 . S
H867 C875 0.930 . S
H868 C878 0.930 . S
H869 C879 0.930 . S
C870 H864 0.930 . S
C870 C871 1.355 . S
C870 C872 1.415 . S
C871 C870 1.355 . S
C871 C873 1.419 . S
C872 C870 1.415 . S
C872 C877 1.425 . S
C872 C879 1.409 1_554 S
C873 H865 0.930 . S
C873 C871 1.419 . S
C873 C874 1.362 . S
C874 H866 0.930 . S
C874 C873 1.362 . S
C874 C877 1.409 . S
C875 H867 0.930 . S
C875 C876 1.355 . S
C875 C877 1.415 1_556 S
C876 C875 1.355 . S
C876 C878 1.419 . S
C877 C872 1.425 . S
C877 C874 1.409 . S
C877 C875 1.415 1_554 S
C878 H868 0.930 . S
C878 C876 1.419 . S
C878 C879 1.362 . S
C879 H869 0.930 . S
C879 C872 1.409 1_556 S
C879 C878 1.362 . S
H880 C886 0.930 . S
H881 C889 0.930 . S
H882 C890 0.930 . S
H883 C891 0.930 . S
H884 C894 0.930 . S
H885 C895 0.930 . S
C886 H880 0.930 . S
C886 C887 1.355 . S
C886 C888 1.415 . S
C887 C886 1.355 . S
C887 C889 1.419 . S
C888 C886 1.415 . S
C888 C893 1.425 . S
C888 C895 1.409 . S
C889 H881 0.930 . S
C889 C887 1.419 . S
C889 C890 1.362 . S
C890 H882 0.930 . S
C890 C889 1.362 . S
C890 C893 1.409 . S
C891 H883 0.930 . S
C891 C892 1.355 . S
C891 C893 1.415 . S
C892 C891 1.355 . S
C892 C894 1.419 . S
C893 C888 1.425 . S
C893 C890 1.409 . S
C893 C891 1.415 . S
C894 H884 0.930 . S
C894 C892 1.419 . S
C894 C895 1.362 . S
C895 H885 0.930 . S
C895 C888 1.409 . S
C895 C894 1.362 . S
H896 C902 0.930 . S
H897 C905 0.930 . S
H898 C906 0.930 . S
H899 C907 0.930 . S
H900 C910 0.930 . S
H901 C911 0.930 . S
C902 H896 0.930 . S
C902 C903 1.355 . S
C902 C904 1.415 . S
C903 C902 1.355 . S
C903 C905 1.419 1_455 S
C904 C902 1.415 . S
C904 C909 1.425 1_455 S
C904 C911 1.409 . S
C905 H897 0.930 . S
C905 C903 1.419 1_655 S
C905 C906 1.362 . S
C906 H898 0.930 . S
C906 C905 1.362 . S
C906 C909 1.409 . S
C907 H899 0.930 . S
C907 C908 1.355 1_655 S
C907 C909 1.415 . S
C908 C907 1.355 1_455 S
C908 C910 1.419 . S
C909 C904 1.425 1_655 S
C909 C906 1.409 . S
C909 C907 1.415 . S
C910 H900 0.930 . S
C910 C908 1.419 . S
C910 C911 1.362 . S
C911 H901 0.930 . S
C911 C904 1.409 . S
C911 C910 1.362 . S
H912 C918 0.930 . S
H913 C921 0.930 . S
H914 C922 0.930 . S
H915 C923 0.930 . S
H916 C926 0.930 . S
H917 C927 0.930 . S
C918 H912 0.930 . S
C918 C919 1.355 1_455 S
C918 C920 1.415 . S
C919 C918 1.355 1_655 S
C919 C921 1.419 . S
C920 C918 1.415 . S
C920 C925 1.425 . S
C920 C927 1.409 . S
C921 H913 0.930 . S
C921 C919 1.419 . S
C921 C922 1.362 . S
C922 H914 0.930 . S
C922 C921 1.362 . S
C922 C925 1.409 1_655 S
C923 H915 0.930 . S
C923 C924 1.355 . S
C923 C925 1.415 . S
C924 C923 1.355 . S
C924 C926 1.419 . S
C925 C920 1.425 . S
C925 C922 1.409 1_455 S
C925 C923 1.415 . S
C926 H916 0.930 . S
C926 C924 1.419 . S
C926 C927 1.362 . S
C927 H917 0.930 . S
C927 C920 1.409 . S
C927 C926 1.362 . S
H928 C934 0.930 . S
H929 C937 0.930 . S
H930 C938 0.930 . S
H931 C939 0.930 . S
H932 C942 0.930 . S
H933 C943 0.930 . S
C934 H928 0.930 . S
C934 C935 1.355 . S
C934 C936 1.415 . S
C935 C934 1.355 . S
C935 C937 1.419 . S
C936 C934 1.415 . S
C936 C941 1.425 . S
C936 C943 1.409 . S
C937 H929 0.930 . S
C937 C935 1.419 . S
C937 C938 1.362 . S
C938 H930 0.930 . S
C938 C937 1.362 . S
C938 C941 1.409 . S
C939 H931 0.930 . S
C939 C940 1.355 . S
C939 C941 1.415 . S
C940 C939 1.355 . S
C940 C942 1.419 . S
C941 C936 1.425 . S
C941 C938 1.409 . S
C941 C939 1.415 . S
C942 H932 0.930 . S
C942 C940 1.419 . S
C942 C943 1.362 . S
C943 H933 0.930 . S
C943 C936 1.409 . S
C943 C942 1.362 . S
H944 C950 0.930 . S
H945 C953 0.930 . S
H946 C954 0.930 . S
H947 C955 0.930 . S
H948 C958 0.930 . S
H949 C959 0.930 . S
C950 H944 0.930 . S
C950 C951 1.355 . S
C950 C952 1.415 . S
C951 C950 1.355 . S
C951 C953 1.419 . S
C952 C950 1.415 . S
C952 C957 1.425 . S
C952 C959 1.409 . S
C953 H945 0.930 . S
C953 C951 1.419 . S
C953 C954 1.362 . S
C954 H946 0.930 . S
C954 C953 1.362 . S
C954 C957 1.409 . S
C955 H947 0.930 . S
C955 C956 1.355 . S
C955 C957 1.415 . S
C956 C955 1.355 . S
C956 C958 1.419 . S
C957 C952 1.425 . S
C957 C954 1.409 . S
C957 C955 1.415 . S
C958 H948 0.930 . S
C958 C956 1.419 . S
C958 C959 1.362 . S
C959 H949 0.930 . S
C959 C952 1.409 . S
C959 C958 1.362 . S
H960 C966 0.930 . S
H961 C969 0.930 . S
H962 C970 0.930 . S
H963 C971 0.930 . S
H964 C974 0.930 . S
H965 C975 0.930 . S
C966 H960 0.930 . S
C966 C967 1.355 . S
C966 C968 1.415 . S
C967 C966 1.355 . S
C967 C969 1.419 . S
C968 C966 1.415 . S
C968 C973 1.425 . S
C968 C975 1.409 . S
C969 H961 0.930 . S
C969 C967 1.419 . S
C969 C970 1.362 . S
C970 H962 0.930 . S
C970 C969 1.362 . S
C970 C973 1.409 . S
C971 H963 0.930 . S
C971 C972 1.355 . S
C971 C973 1.415 . S
C972 C971 1.355 . S
C972 C974 1.419 . S
C973 C968 1.425 . S
C973 C970 1.409 . S
C973 C971 1.415 . S
C974 H964 0.930 . S
C974 C972 1.419 . S
C974 C975 1.362 . S
C975 H965 0.930 . S
C975 C968 1.409 . S
C975 C974 1.362 . S
H976 C982 0.930 . S
H977 C985 0.930 . S
H978 C986 0.930 . S
H979 C987 0.930 . S
H980 C990 0.930 . S
H981 C991 0.930 . S
C982 H976 0.930 . S
C982 C983 1.355 . S
C982 C984 1.415 . S
C983 C982 1.355 . S
C983 C985 1.419 . S
C984 C982 1.415 . S
C984 C989 1.425 . S
C984 C991 1.409 . S
C985 H977 0.930 . S
C985 C983 1.419 . S
C985 C986 1.362 . S
C986 H978 0.930 . S
C986 C985 1.362 . S
C986 C989 1.409 . S
C987 H979 0.930 . S
C987 C988 1.355 . S
C987 C989 1.415 . S
C988 C987 1.355 . S
C988 C990 1.419 . S
C989 C984 1.425 . S
C989 C986 1.409 . S
C989 C987 1.415 . S
C990 H980 0.930 . S
C990 C988 1.419 . S
C990 C991 1.362 . S
C991 H981 0.930 . S
C991 C984 1.409 . S
C991 C990 1.362 . S
H992 C998 0.930 . S
H993 C1001 0.930 . S
H994 C1002 0.930 . S
H995 C1003 0.930 . S
H996 C1006 0.930 . S
H997 C1007 0.930 . S
C998 H992 0.930 . S
C998 C999 1.355 . S
C998 C1000 1.415 . S
C999 C998 1.355 . S
C999 C1001 1.419 . S
C1000 C998 1.415 . S
C1000 C1005 1.425 . S
C1000 C1007 1.409 . S
C1001 H993 0.930 . S
C1001 C999 1.419 . S
C1001 C1002 1.362 . S
C1002 H994 0.930 . S
C1002 C1001 1.362 . S
C1002 C1005 1.409 . S
C1003 H995 0.930 . S
C1003 C1004 1.355 . S
C1003 C1005 1.415 . S
C1004 C1003 1.355 . S
C1004 C1006 1.419 . S
C1005 C1000 1.425 . S
C1005 C1002 1.409 . S
C1005 C1003 1.415 . S
C1006 H996 0.930 . S
C1006 C1004 1.419 . S
C1006 C1007 1.362 . S
C1007 H997 0.930 . S
C1007 C1000 1.409 . S
C1007 C1006 1.362 . S
H1008 C1014 0.930 . S
H1009 C1017 0.930 . S
H1010 C1018 0.930 . S
H1011 C1019 0.930 . S
H1012 C1022 0.930 . S
H1013 C1023 0.930 . S
C1014 H1008 0.930 . S
C1014 C1015 1.355 . S
C1014 C1016 1.415 . S
C1015 C1014 1.355 . S
C1015 C1017 1.419 . S
C1016 C1014 1.415 . S
C1016 C1021 1.425 . S
C1016 C1023 1.409 1_455 S
C1017 H1009 0.930 . S
C1017 C1015 1.419 . S
C1017 C1018 1.362 . S
C1018 H1010 0.930 . S
C1018 C1017 1.362 . S
C1018 C1021 1.409 . S
C1019 H1011 0.930 . S
C1019 C1020 1.355 1_455 S
C1019 C1021 1.415 . S
C1020 C1019 1.355 1_655 S
C1020 C1022 1.419 . S
C1021 C1016 1.425 . S
C1021 C1018 1.409 . S
C1021 C1019 1.415 . S
C1022 H1012 0.930 . S
C1022 C1020 1.419 . S
C1022 C1023 1.362 . S
C1023 H1013 0.930 . S
C1023 C1016 1.409 1_655 S
C1023 C1022 1.362 . S
H1024 C1030 0.923 1_655 S
H1025 C1033 0.930 . S
H1026 C1034 0.930 . S
H1027 C1035 0.930 . S
H1028 C1038 0.930 . S
H1029 C1039 0.931 1_655 S
C1030 H1024 0.923 1_455 S
C1030 C1031 1.356 . S
C1030 C1032 1.419 1_554 S
C1031 C1030 1.356 . S
C1031 C1033 1.419 1_545 S
C1032 C1030 1.419 1_556 S
C1032 C1037 1.425 1_546 S
C1032 C1039 1.409 . S
C1033 H1025 0.930 . S
C1033 C1031 1.419 1_565 S
C1033 C1034 1.362 . S
C1034 H1026 0.930 . S
C1034 C1033 1.362 . S
C1034 C1037 1.409 . S
C1035 H1027 0.930 . S
C1035 C1036 1.355 . S
C1035 C1037 1.415 1_556 S
C1036 C1035 1.355 . S
C1036 C1038 1.419 1_565 S
C1037 C1032 1.425 1_564 S
C1037 C1034 1.409 . S
C1037 C1035 1.415 1_554 S
C1038 H1028 0.930 . S
C1038 C1036 1.419 1_545 S
C1038 C1039 1.362 . S
C1039 H1029 0.931 1_455 S
C1039 C1032 1.409 . S
C1039 C1038 1.362 . S
H1040 C1046 0.930 . S
H1041 C1049 0.930 . S
H1042 C1050 0.930 . S
H1043 C1051 0.930 . S
H1044 C1054 0.930 . S
H1045 C1055 0.930 . S
C1046 H1040 0.930 . S
C1046 C1047 1.355 . S
C1046 C1048 1.415 . S
C1047 C1046 1.355 . S
C1047 C1049 1.419 . S
C1048 C1046 1.415 . S
C1048 C1053 1.425 . S
C1048 C1055 1.409 . S
C1049 H1041 0.930 . S
C1049 C1047 1.419 . S
C1049 C1050 1.362 . S
C1050 H1042 0.930 . S
C1050 C1049 1.362 . S
C1050 C1053 1.409 . S
C1051 H1043 0.930 . S
C1051 C1052 1.355 . S
C1051 C1053 1.415 . S
C1052 C1051 1.355 . S
C1052 C1054 1.419 . S
C1053 C1048 1.425 . S
C1053 C1050 1.409 . S
C1053 C1051 1.415 . S
C1054 H1044 0.930 . S
C1054 C1052 1.419 . S
C1054 C1055 1.362 . S
C1055 H1045 0.930 . S
C1055 C1048 1.409 . S
C1055 C1054 1.362 . S
H1056 C1062 0.930 . S
H1057 C1065 0.930 . S
H1058 C1066 0.930 . S
H1059 C1067 0.930 . S
H1060 C1070 0.930 . S
H1061 C1071 0.930 . S
C1062 H1056 0.930 . S
C1062 C1063 1.355 . S
C1062 C1064 1.415 1_545 S
C1063 C1062 1.355 . S
C1063 C1065 1.419 . S
C1064 C1062 1.415 1_565 S
C1064 C1069 1.425 1_565 S
C1064 C1071 1.409 . S
C1065 H1057 0.930 . S
C1065 C1063 1.419 . S
C1065 C1066 1.362 . S
C1066 H1058 0.930 . S
C1066 C1065 1.362 . S
C1066 C1069 1.409 . S
C1067 H1059 0.930 . S
C1067 C1068 1.355 . S
C1067 C1069 1.415 1_565 S
C1068 C1067 1.355 . S
C1068 C1070 1.419 . S
C1069 C1064 1.425 1_545 S
C1069 C1066 1.409 . S
C1069 C1067 1.415 1_545 S
C1070 H1060 0.930 . S
C1070 C1068 1.419 . S
C1070 C1071 1.362 . S
C1071 H1061 0.930 . S
C1071 C1064 1.409 . S
C1071 C1070 1.362 . S
H1072 C1078 0.930 . S
H1073 C1081 0.930 . S
H1074 C1082 0.930 . S
H1075 C1083 0.930 . S
H1076 C1086 0.930 . S
H1077 C1087 0.930 . S
C1078 H1072 0.930 . S
C1078 C1079 1.355 . S
C1078 C1080 1.415 . S
C1079 C1078 1.355 . S
C1079 C1081 1.419 . S
C1080 C1078 1.415 . S
C1080 C1085 1.425 . S
C1080 C1087 1.409 . S
C1081 H1073 0.930 . S
C1081 C1079 1.419 . S
C1081 C1082 1.362 . S
C1082 H1074 0.930 . S
C1082 C1081 1.362 . S
C1082 C1085 1.409 . S
C1083 H1075 0.930 . S
C1083 C1084 1.355 . S
C1083 C1085 1.415 . S
C1084 C1083 1.355 . S
C1084 C1086 1.419 . S
C1085 C1080 1.425 . S
C1085 C1082 1.409 . S
C1085 C1083 1.415 . S
C1086 H1076 0.930 . S
C1086 C1084 1.419 . S
C1086 C1087 1.362 . S
C1087 H1077 0.930 . S
C1087 C1080 1.409 . S
C1087 C1086 1.362 . S
H1088 C1094 0.930 . S
H1089 C1097 0.930 . S
H1090 C1098 0.930 . S
H1091 C1099 0.930 . S
H1092 C1102 0.930 . S
H1093 C1103 0.930 . S
C1094 H1088 0.930 . S
C1094 C1095 1.355 . S
C1094 C1096 1.415 . S
C1095 C1094 1.355 . S
C1095 C1097 1.419 . S
C1096 C1094 1.415 . S
C1096 C1101 1.425 . S
C1096 C1103 1.409 . S
C1097 H1089 0.930 . S
C1097 C1095 1.419 . S
C1097 C1098 1.362 . S
C1098 H1090 0.930 . S
C1098 C1097 1.362 . S
C1098 C1101 1.409 . S
C1099 H1091 0.930 . S
C1099 C1100 1.355 . S
C1099 C1101 1.415 . S
C1100 C1099 1.355 . S
C1100 C1102 1.419 . S
C1101 C1096 1.425 . S
C1101 C1098 1.409 . S
C1101 C1099 1.415 . S
C1102 H1092 0.930 . S
C1102 C1100 1.419 . S
C1102 C1103 1.362 . S
C1103 H1093 0.930 . S
C1103 C1096 1.409 . S
C1103 C1102 1.362 . S
H1104 C1110 0.930 . S
H1105 C1113 0.930 . S
H1106 C1114 0.930 . S
H1107 C1115 0.930 . S
H1108 C1118 0.930 . S
H1109 C1119 0.930 . S
C1110 H1104 0.930 . S
C1110 C1111 1.355 . S
C1110 C1112 1.415 . S
C1111 C1110 1.355 . S
C1111 C1113 1.419 . S
C1112 C1110 1.415 . S
C1112 C1117 1.425 . S
C1112 C1119 1.409 . S
C1113 H1105 0.930 . S
C1113 C1111 1.419 . S
C1113 C1114 1.362 . S
C1114 H1106 0.930 . S
C1114 C1113 1.362 . S
C1114 C1117 1.409 . S
C1115 H1107 0.930 . S
C1115 C1116 1.355 . S
C1115 C1117 1.415 . S
C1116 C1115 1.355 . S
C1116 C1118 1.419 . S
C1117 C1112 1.425 . S
C1117 C1114 1.409 . S
C1117 C1115 1.415 . S
C1118 H1108 0.930 . S
C1118 C1116 1.419 . S
C1118 C1119 1.362 . S
C1119 H1109 0.930 . S
C1119 C1112 1.409 . S
C1119 C1118 1.362 . S
H1120 C1126 0.930 . S
H1121 C1129 0.930 . S
H1122 C1130 0.930 . S
H1123 C1131 0.930 . S
H1124 C1134 0.930 . S
H1125 C1135 0.930 . S
C1126 H1120 0.930 . S
C1126 C1127 1.355 . S
C1126 C1128 1.415 . S
C1127 C1126 1.355 . S
C1127 C1129 1.419 . S
C1128 C1126 1.415 . S
C1128 C1133 1.425 . S
C1128 C1135 1.409 . S
C1129 H1121 0.930 . S
C1129 C1127 1.419 . S
C1129 C1130 1.362 . S
C1130 H1122 0.930 . S
C1130 C1129 1.362 . S
C1130 C1133 1.409 . S
C1131 H1123 0.930 . S
C1131 C1132 1.355 . S
C1131 C1133 1.415 . S
C1132 C1131 1.355 . S
C1132 C1134 1.419 . S
C1133 C1128 1.425 . S
C1133 C1130 1.409 . S
C1133 C1131 1.415 . S
C1134 H1124 0.930 . S
C1134 C1132 1.419 . S
C1134 C1135 1.362 . S
C1135 H1125 0.930 . S
C1135 C1128 1.409 . S
C1135 C1134 1.362 . S
H1136 C1142 0.930 . S
H1137 C1145 0.930 . S
H1138 C1146 0.930 . S
H1139 C1147 0.930 1_655 S
H1140 C1150 0.930 . S
H1141 C1151 0.930 . S
C1142 H1136 0.930 . S
C1142 C1143 1.355 . S
C1142 C1144 1.415 . S
C1143 C1142 1.355 . S
C1143 C1145 1.419 1_455 S
C1144 C1142 1.415 . S
C1144 C1149 1.425 1_556 S
C1144 C1151 1.409 1_556 S
C1145 H1137 0.930 . S
C1145 C1143 1.419 1_655 S
C1145 C1146 1.362 . S
C1146 H1138 0.930 . S
C1146 C1145 1.362 . S
C1146 C1149 1.409 1_656 S
C1147 H1139 0.930 1_455 S
C1147 C1148 1.355 . S
C1147 C1149 1.415 . S
C1148 C1147 1.355 . S
C1148 C1150 1.419 . S
C1149 C1144 1.425 1_554 S
C1149 C1146 1.409 1_454 S
C1149 C1147 1.415 . S
C1150 H1140 0.930 . S
C1150 C1148 1.419 . S
C1150 C1151 1.362 . S
C1151 H1141 0.930 . S
C1151 C1144 1.409 1_554 S
C1151 C1150 1.362 . S
H1152 C1158 0.930 . S
H1153 C1161 0.930 . S
H1154 C1162 0.930 . S
H1155 C1163 0.930 . S
H1156 C1166 0.930 . S
H1157 C1167 0.930 . S
C1158 H1152 0.930 . S
C1158 C1159 1.355 . S
C1158 C1160 1.415 . S
C1159 C1158 1.355 . S
C1159 C1161 1.419 . S
C1160 C1158 1.415 . S
C1160 C1165 1.425 . S
C1160 C1167 1.409 . S
C1161 H1153 0.930 . S
C1161 C1159 1.419 . S
C1161 C1162 1.362 . S
C1162 H1154 0.930 . S
C1162 C1161 1.362 . S
C1162 C1165 1.409 . S
C1163 H1155 0.930 . S
C1163 C1164 1.355 . S
C1163 C1165 1.415 . S
C1164 C1163 1.355 . S
C1164 C1166 1.419 . S
C1165 C1160 1.425 . S
C1165 C1162 1.409 . S
C1165 C1163 1.415 . S
C1166 H1156 0.930 . S
C1166 C1164 1.419 . S
C1166 C1167 1.362 . S
C1167 H1157 0.930 . S
C1167 C1160 1.409 . S
C1167 C1166 1.362 . S
H1168 C1174 0.930 . S
H1169 C1177 0.930 . S
H1170 C1178 0.930 . S
H1171 C1179 0.930 . S
H1172 C1182 0.930 . S
H1173 C1183 0.930 . S
C1174 H1168 0.930 . S
C1174 C1175 1.355 . S
C1174 C1176 1.415 . S
C1175 C1174 1.355 . S
C1175 C1177 1.419 . S
C1176 C1174 1.415 . S
C1176 C1181 1.425 . S
C1176 C1183 1.409 . S
C1177 H1169 0.930 . S
C1177 C1175 1.419 . S
C1177 C1178 1.362 . S
C1178 H1170 0.930 . S
C1178 C1177 1.362 . S
C1178 C1181 1.409 . S
C1179 H1171 0.930 . S
C1179 C1180 1.355 . S
C1179 C1181 1.415 . S
C1180 C1179 1.355 . S
C1180 C1182 1.419 . S
C1181 C1176 1.425 . S
C1181 C1178 1.409 . S
C1181 C1179 1.415 . S
C1182 H1172 0.930 . S
C1182 C1180 1.419 . S
C1182 C1183 1.362 . S
C1183 H1173 0.930 . S
C1183 C1176 1.409 . S
C1183 C1182 1.362 . S
H1184 C1190 0.930 . S
H1185 C1193 0.932 . S
H1186 C1194 0.930 . S
H1187 C1195 0.930 . S
H1188 C1198 0.930 . S
H1189 C1199 0.930 . S
C1190 H1184 0.930 . S
C1190 C1191 1.355 . S
C1190 C1192 1.415 1_554 S
C1191 C1190 1.355 . S
C1191 C1193 1.419 1_554 S
C1192 C1190 1.415 1_556 S
C1192 C1197 1.425 . S
C1192 C1199 1.409 . S
C1193 H1185 0.932 . S
C1193 C1191 1.419 1_556 S
C1193 C1194 1.362 . S
C1194 H1186 0.930 . S
C1194 C1193 1.362 . S
C1194 C1197 1.409 . S
C1195 H1187 0.930 . S
C1195 C1196 1.355 . S
C1195 C1197 1.415 . S
C1196 C1195 1.355 . S
C1196 C1198 1.419 . S
C1197 C1192 1.425 . S
C1197 C1194 1.409 . S
C1197 C1195 1.415 . S
C1198 H1188 0.930 . S
C1198 C1196 1.419 . S
C1198 C1199 1.362 . S
C1199 H1189 0.930 . S
C1199 C1192 1.409 . S
C1199 C1198 1.362 . S
H1200 C1206 0.930 . S
H1201 C1209 0.930 . S
H1202 C1210 0.930 . S
H1203 C1211 0.930 . S
H1204 C1214 0.930 . S
H1205 C1215 0.930 . S
C1206 H1200 0.930 . S
C1206 C1207 1.355 . S
C1206 C1208 1.415 . S
C1207 C1206 1.355 . S
C1207 C1209 1.419 . S
C1208 C1206 1.415 . S
C1208 C1213 1.425 . S
C1208 C1215 1.409 . S
C1209 H1201 0.930 . S
C1209 C1207 1.419 . S
C1209 C1210 1.362 . S
C1210 H1202 0.930 . S
C1210 C1209 1.362 . S
C1210 C1213 1.409 . S
C1211 H1203 0.930 . S
C1211 C1212 1.355 . S
C1211 C1213 1.415 . S
C1212 C1211 1.355 . S
C1212 C1214 1.419 . S
C1213 C1208 1.425 . S
C1213 C1210 1.409 . S
C1213 C1211 1.415 . S
C1214 H1204 0.930 . S
C1214 C1212 1.419 . S
C1214 C1215 1.362 . S
C1215 H1205 0.930 . S
C1215 C1208 1.409 . S
C1215 C1214 1.362 . S
H1216 C1222 0.930 . S
H1217 C1225 0.930 . S
H1218 C1226 0.930 . S
H1219 C1227 0.930 . S
H1220 C1230 0.930 . S
H1221 C1231 0.930 . S
C1222 H1216 0.930 . S
C1222 C1223 1.355 . S
C1222 C1224 1.415 . S
C1223 C1222 1.355 . S
C1223 C1225 1.419 . S
C1224 C1222 1.415 . S
C1224 C1229 1.425 . S
C1224 C1231 1.409 . S
C1225 H1217 0.930 . S
C1225 C1223 1.419 . S
C1225 C1226 1.362 . S
C1226 H1218 0.930 . S
C1226 C1225 1.362 . S
C1226 C1229 1.409 . S
C1227 H1219 0.930 . S
C1227 C1228 1.355 . S
C1227 C1229 1.415 . S
C1228 C1227 1.355 . S
C1228 C1230 1.419 . S
C1229 C1224 1.425 . S
C1229 C1226 1.409 . S
C1229 C1227 1.415 . S
C1230 H1220 0.930 . S
C1230 C1228 1.419 . S
C1230 C1231 1.362 . S
C1231 H1221 0.930 . S
C1231 C1224 1.409 . S
C1231 C1230 1.362 . S
H1232 C1238 0.930 . S
H1233 C1241 0.930 . S
H1234 C1242 0.930 . S
H1235 C1243 0.930 . S
H1236 C1246 0.930 . S
H1237 C1247 0.930 . S
C1238 H1232 0.930 . S
C1238 C1239 1.355 . S
C1238 C1240 1.415 . S
C1239 C1238 1.355 . S
C1239 C1241 1.419 . S
C1240 C1238 1.415 . S
C1240 C1245 1.425 . S
C1240 C1247 1.409 . S
C1241 H1233 0.930 . S
C1241 C1239 1.419 . S
C1241 C1242 1.362 . S
C1242 H1234 0.930 . S
C1242 C1241 1.362 . S
C1242 C1245 1.409 . S
C1243 H1235 0.930 . S
C1243 C1244 1.355 . S
C1243 C1245 1.415 . S
C1244 C1243 1.355 . S
C1244 C1246 1.419 . S
C1245 C1240 1.425 . S
C1245 C1242 1.409 . S
C1245 C1243 1.415 . S
C1246 H1236 0.930 . S
C1246 C1244 1.419 . S
C1246 C1247 1.362 . S
C1247 H1237 0.930 . S
C1247 C1240 1.409 . S
C1247 C1246 1.362 . S
H1248 C1254 0.930 . S
H1249 C1257 0.930 1_556 S
H1250 C1258 0.930 . S
H1251 C1259 0.930 . S
H1252 C1262 0.930 . S
H1253 C1263 0.930 . S
C1254 H1248 0.930 . S
C1254 C1255 1.355 . S
C1254 C1256 1.415 1_556 S
C1255 C1254 1.355 . S
C1255 C1257 1.419 1_556 S
C1256 C1254 1.415 1_554 S
C1256 C1261 1.425 . S
C1256 C1263 1.409 . S
C1257 H1249 0.930 1_554 S
C1257 C1255 1.419 1_554 S
C1257 C1258 1.362 . S
C1258 H1250 0.930 . S
C1258 C1257 1.362 . S
C1258 C1261 1.409 . S
C1259 H1251 0.930 . S
C1259 C1260 1.355 . S
C1259 C1261 1.415 . S
C1260 C1259 1.355 . S
C1260 C1262 1.419 . S
C1261 C1256 1.425 . S
C1261 C1258 1.409 . S
C1261 C1259 1.415 . S
C1262 H1252 0.930 . S
C1262 C1260 1.419 . S
C1262 C1263 1.362 . S
C1263 H1253 0.930 . S
C1263 C1256 1.409 . S
C1263 C1262 1.362 . S
H1264 C1270 0.930 . S
H1265 C1273 0.930 . S
H1266 C1274 0.930 . S
H1267 C1275 0.930 . S
H1268 C1278 0.930 . S
H1269 C1279 0.930 . S
C1270 H1264 0.930 . S
C1270 C1271 1.355 . S
C1270 C1272 1.415 . S
C1271 C1270 1.355 . S
C1271 C1273 1.419 . S
C1272 C1270 1.415 . S
C1272 C1277 1.425 . S
C1272 C1279 1.409 . S
C1273 H1265 0.930 . S
C1273 C1271 1.419 . S
C1273 C1274 1.362 . S
C1274 H1266 0.930 . S
C1274 C1273 1.362 . S
C1274 C1277 1.409 . S
C1275 H1267 0.930 . S
C1275 C1276 1.355 . S
C1275 C1277 1.415 . S
C1276 C1275 1.355 . S
C1276 C1278 1.419 . S
C1277 C1272 1.425 . S
C1277 C1274 1.409 . S
C1277 C1275 1.415 . S
C1278 H1268 0.930 . S
C1278 C1276 1.419 . S
C1278 C1279 1.362 . S
C1279 H1269 0.930 . S
C1279 C1272 1.409 . S
C1279 C1278 1.362 . S
H1280 C1286 0.930 . S
H1281 C1289 0.930 . S
H1282 C1290 0.930 . S
H1283 C1291 0.930 . S
H1284 C1294 0.930 . S
H1285 C1295 0.930 . S
C1286 H1280 0.930 . S
C1286 C1287 1.355 . S
C1286 C1288 1.415 . S
C1287 C1286 1.355 . S
C1287 C1289 1.419 . S
C1288 C1286 1.415 . S
C1288 C1293 1.425 . S
C1288 C1295 1.409 . S
C1289 H1281 0.930 . S
C1289 C1287 1.419 . S
C1289 C1290 1.362 . S
C1290 H1282 0.930 . S
C1290 C1289 1.362 . S
C1290 C1293 1.409 . S
C1291 H1283 0.930 . S
C1291 C1292 1.355 . S
C1291 C1293 1.415 . S
C1292 C1291 1.355 . S
C1292 C1294 1.419 . S
C1293 C1288 1.425 . S
C1293 C1290 1.409 . S
C1293 C1291 1.415 . S
C1294 H1284 0.930 . S
C1294 C1292 1.419 . S
C1294 C1295 1.362 . S
C1295 H1285 0.930 . S
C1295 C1288 1.409 . S
C1295 C1294 1.362 . S
H1296 C1302 0.930 . S
H1297 C1305 0.930 . S
H1298 C1306 0.930 . S
H1299 C1307 0.930 . S
H1300 C1310 0.930 . S
H1301 C1311 0.930 . S
C1302 H1296 0.930 . S
C1302 C1303 1.355 . S
C1302 C1304 1.415 . S
C1303 C1302 1.355 . S
C1303 C1305 1.419 . S
C1304 C1302 1.415 . S
C1304 C1309 1.425 . S
C1304 C1311 1.409 . S
C1305 H1297 0.930 . S
C1305 C1303 1.419 . S
C1305 C1306 1.362 . S
C1306 H1298 0.930 . S
C1306 C1305 1.362 . S
C1306 C1309 1.409 . S
C1307 H1299 0.930 . S
C1307 C1308 1.355 . S
C1307 C1309 1.415 . S
C1308 C1307 1.355 . S
C1308 C1310 1.419 . S
C1309 C1304 1.425 . S
C1309 C1306 1.409 . S
C1309 C1307 1.415 . S
C1310 H1300 0.930 . S
C1310 C1308 1.419 . S
C1310 C1311 1.362 . S
C1311 H1301 0.930 . S
C1311 C1304 1.409 . S
C1311 C1310 1.362 . S
H1312 C1318 0.930 . S
H1313 C1321 0.930 . S
H1314 C1322 0.930 . S
H1315 C1323 0.930 . S
H1316 C1326 0.930 . S
H1317 C1327 0.930 . S
C1318 H1312 0.930 . S
C1318 C1319 1.355 . S
C1318 C1320 1.415 . S
C1319 C1318 1.355 . S
C1319 C1321 1.419 . S
C1320 C1318 1.415 . S
C1320 C1325 1.425 . S
C1320 C1327 1.409 . S
C1321 H1313 0.930 . S
C1321 C1319 1.419 . S
C1321 C1322 1.362 . S
C1322 H1314 0.930 . S
C1322 C1321 1.362 . S
C1322 C1325 1.409 . S
C1323 H1315 0.930 . S
C1323 C1324 1.355 . S
C1323 C1325 1.415 . S
C1324 C1323 1.355 . S
C1324 C1326 1.419 . S
C1325 C1320 1.425 . S
C1325 C1322 1.409 . S
C1325 C1323 1.415 . S
C1326 H1316 0.930 . S
C1326 C1324 1.419 . S
C1326 C1327 1.362 . S
C1327 H1317 0.930 . S
C1327 C1320 1.409 . S
C1327 C1326 1.362 . S
H1328 C1334 0.930 . S
H1329 C1337 0.930 . S
H1330 C1338 0.930 . S
H1331 C1339 0.930 . S
H1332 C1342 0.930 . S
H1333 C1343 0.930 . S
C1334 H1328 0.930 . S
C1334 C1335 1.355 . S
C1334 C1336 1.415 . S
C1335 C1334 1.355 . S
C1335 C1337 1.419 1_655 S
C1336 C1334 1.415 . S
C1336 C1341 1.425 . S
C1336 C1343 1.409 . S
C1337 H1329 0.930 . S
C1337 C1335 1.419 1_455 S
C1337 C1338 1.362 1_455 S
C1338 H1330 0.930 . S
C1338 C1337 1.362 1_655 S
C1338 C1341 1.409 . S
C1339 H1331 0.930 . S
C1339 C1340 1.355 . S
C1339 C1341 1.415 . S
C1340 C1339 1.355 . S
C1340 C1342 1.419 . S
C1341 C1336 1.425 . S
C1341 C1338 1.409 . S
C1341 C1339 1.415 . S
C1342 H1332 0.930 . S
C1342 C1340 1.419 . S
C1342 C1343 1.362 . S
C1343 H1333 0.930 . S
C1343 C1336 1.409 . S
C1343 C1342 1.362 . S
H1344 C1350 0.930 . S
H1345 C1353 0.930 . S
H1346 C1354 0.930 . S
H1347 C1355 0.930 . S
H1348 C1358 0.930 . S
H1349 C1359 0.930 . S
C1350 H1344 0.930 . S
C1350 C1351 1.355 . S
C1350 C1352 1.415 . S
C1351 C1350 1.355 . S
C1351 C1353 1.419 . S
C1352 C1350 1.415 . S
C1352 C1357 1.425 . S
C1352 C1359 1.409 . S
C1353 H1345 0.930 . S
C1353 C1351 1.419 . S
C1353 C1354 1.362 . S
C1354 H1346 0.930 . S
C1354 C1353 1.362 . S
C1354 C1357 1.409 . S
C1355 H1347 0.930 . S
C1355 C1356 1.355 . S
C1355 C1357 1.415 . S
C1356 C1355 1.355 . S
C1356 C1358 1.419 . S
C1357 C1352 1.425 . S
C1357 C1354 1.409 . S
C1357 C1355 1.415 . S
C1358 H1348 0.930 . S
C1358 C1356 1.419 . S
C1358 C1359 1.362 . S
C1359 H1349 0.930 . S
C1359 C1352 1.409 . S
C1359 C1358 1.362 . S
H1360 C1366 0.930 . S
H1361 C1369 0.930 . S
H1362 C1370 0.930 . S
H1363 C1371 0.930 . S
H1364 C1374 0.930 . S
H1365 C1375 0.930 . S
C1366 H1360 0.930 . S
C1366 C1367 1.355 . S
C1366 C1368 1.415 . S
C1367 C1366 1.355 . S
C1367 C1369 1.419 . S
C1368 C1366 1.415 . S
C1368 C1373 1.425 . S
C1368 C1375 1.409 . S
C1369 H1361 0.930 . S
C1369 C1367 1.419 . S
C1369 C1370 1.362 . S
C1370 H1362 0.930 . S
C1370 C1369 1.362 . S
C1370 C1373 1.409 . S
C1371 H1363 0.930 . S
C1371 C1372 1.355 . S
C1371 C1373 1.415 . S
C1372 C1371 1.355 . S
C1372 C1374 1.419 . S
C1373 C1368 1.425 . S
C1373 C1370 1.409 . S
C1373 C1371 1.415 . S
C1374 H1364 0.930 . S
C1374 C1372 1.419 . S
C1374 C1375 1.362 . S
C1375 H1365 0.930 . S
C1375 C1368 1.409 . S
C1375 C1374 1.362 . S
H1376 C1382 0.930 . S
H1377 C1385 0.930 . S
H1378 C1386 0.930 . S
H1379 C1387 0.930 . S
H1380 C1390 0.930 . S
H1381 C1391 0.930 . S
C1382 H1376 0.930 . S
C1382 C1383 1.355 . S
C1382 C1384 1.415 . S
C1383 C1382 1.355 . S
C1383 C1385 1.419 . S
C1384 C1382 1.415 . S
C1384 C1389 1.425 . S
C1384 C1391 1.409 . S
C1385 H1377 0.930 . S
C1385 C1383 1.419 . S
C1385 C1386 1.362 . S
C1386 H1378 0.930 . S
C1386 C1385 1.362 . S
C1386 C1389 1.409 . S
C1387 H1379 0.930 . S
C1387 C1388 1.355 . S
C1387 C1389 1.415 . S
C1388 C1387 1.355 . S
C1388 C1390 1.419 . S
C1389 C1384 1.425 . S
C1389 C1386 1.409 . S
C1389 C1387 1.415 . S
C1390 H1380 0.930 . S
C1390 C1388 1.419 . S
C1390 C1391 1.362 . S
C1391 H1381 0.930 . S
C1391 C1384 1.409 . S
C1391 C1390 1.362 . S
H1392 C1398 0.930 . S
H1393 C1401 0.930 . S
H1394 C1402 0.930 . S
H1395 C1403 0.930 . S
H1396 C1406 0.930 . S
H1397 C1407 0.930 . S
C1398 H1392 0.930 . S
C1398 C1399 1.355 . S
C1398 C1400 1.415 . S
C1399 C1398 1.355 . S
C1399 C1401 1.419 . S
C1400 C1398 1.415 . S
C1400 C1405 1.425 . S
C1400 C1407 1.409 . S
C1401 H1393 0.930 . S
C1401 C1399 1.419 . S
C1401 C1402 1.362 . S
C1402 H1394 0.930 . S
C1402 C1401 1.362 . S
C1402 C1405 1.409 . S
C1403 H1395 0.930 . S
C1403 C1404 1.355 . S
C1403 C1405 1.415 . S
C1404 C1403 1.355 . S
C1404 C1406 1.419 . S
C1405 C1400 1.425 . S
C1405 C1402 1.409 . S
C1405 C1403 1.415 . S
C1406 H1396 0.930 . S
C1406 C1404 1.419 . S
C1406 C1407 1.362 . S
C1407 H1397 0.930 . S
C1407 C1400 1.409 . S
C1407 C1406 1.362 . S
C647 C6 0.878 . S
C652 C286 1.080 . S
C663 C59 2.858 . S
C668 C179 2.759 1_554 S
C679 C206 0.580 . S
C684 C99 0.338 . S
C695 C139 1.985 . S
C700 C246 1.998 . S
C711 C455 1.006 . S
C716 C175 0.876 . S
C727 C330 2.862 . S
C732 C10 2.784 1_556 S
C743 C415 0.601 . S
C748 C250 0.506 . S
C759 C95 2.005 . S
C764 C370 2.009 . S
C775 C366 1.039 . S
C780 C486 0.821 . S
C791 C419 2.833 . S
C796 C579 2.770 . S
C807 C539 0.377 . S
C812 C326 0.446 . S
C823 C459 2.005 . S
C828 C606 2.000 . S
C839 C575 0.807 . S
C844 C135 0.949 . S
C855 C490 2.794 . S
C860 C210 2.854 . S
C871 C55 0.527 . S
C876 C610 0.325 . S
C887 C290 2.002 . S
C892 C535 2.023 . S
C903 C538 0.643 . S
C908 C9 0.611 . S
C919 C458 0.913 . S
C924 C58 1.110 . S
C935 C489 0.606 . S
C940 C98 0.663 . S
C951 C418 1.094 . S
C956 C138 0.887 . S
C967 C178 0.729 . S
C972 C609 0.530 . S
C983 C369 1.048 . S
C988 C209 1.162 . S
C999 C249 0.525 . S
C1004 C578 0.735 . S
C1015 C289 0.885 . S
C1020 C329 1.092 . S
C1031 C18 1.741 1_455 S
C1036 C169 1.741 . S
C1047 C49 1.317 . S
C1052 C218 1.317 . S
C1063 C258 1.754 . S
C1068 C89 1.754 . S
C1079 C129 2.096 . S
C1084 C298 2.096 . S
C1095 C409 1.383 . S
C1100 C338 1.383 . S
C1111 C449 2.133 . S
C1116 C378 2.133 . S
C1127 C498 1.731 . S
C1132 C569 1.731 . S
C1143 C618 1.752 . S
C1148 C529 1.752 . S
C1159 C19 3.715 . S
C1164 C299 3.724 . S
C1175 C46 0.666 . S
C1180 C166 0.765 . S
C1191 C219 2.963 . S
C1196 C86 2.876 . S
C1207 C259 1.085 . S
C1212 C126 1.040 . S
C1223 C450 3.717 . S
C1228 C170 3.703 1_655 S
C1239 C335 0.629 . S
C1244 C15 0.704 . S
C1255 C410 2.964 . S
C1260 C255 2.881 . S
C1271 C90 1.025 . S
C1276 C375 0.969 . S
C1287 C499 3.707 . S
C1292 C379 3.721 1_556 S
C1303 C566 0.775 . S
C1308 C406 0.815 . S
C1319 C526 2.891 . S
C1324 C339 2.966 . S
C1335 C619 1.094 . S
C1340 C446 1.071 . S
C1351 C570 3.715 . S
C1356 C130 3.724 1_554 S
C1367 C215 0.631 . S
C1372 C495 0.707 . S
C1383 C50 2.966 . S
C1388 C615 2.902 . S
C1399 C530 1.021 . S
C1404 C295 0.933 . S
