# Generated by pormake.
# Topology zfe, (5)-cn, num edge types: 1
# Building blocks:
#     Node 0, Type 0, BuildingBlock: XOMCOT_clean_sbu_1, # of connection points: 5
#     Node 1, Type 0, BuildingBlock: XOMCOT_clean_sbu_1, # of connection points: 5
#     Node 2, Type 0, BuildingBlock: XOMCOT_clean_sbu_1, # of connection points: 5
#     Node 3, Type 0, BuildingBlock: XOMCOT_clean_sbu_1, # of connection points: 5
#     Node 4, Type 0, BuildingBlock: XOMCOT_clean_sbu_1, # of connection points: 5
#     Node 5, Type 0, BuildingBlock: XOMCOT_clean_sbu_1, # of connection points: 5
#     Node 6, Type 0, BuildingBlock: XOMCOT_clean_sbu_1, # of connection points: 5
#     Node 7, Type 0, BuildingBlock: XOMCOT_clean_sbu_1, # of connection points: 5
#     Node 8, Type 0, BuildingBlock: XOMCOT_clean_sbu_1, # of connection points: 5
#     Node 9, Type 0, BuildingBlock: XOMCOT_clean_sbu_1, # of connection points: 5
#     Node 10, Type 0, BuildingBlock: XOMCOT_clean_sbu_1, # of connection points: 5
#     Node 11, Type 0, BuildingBlock: XOMCOT_clean_sbu_1, # of connection points: 5
#     Node 12, Type 0, BuildingBlock: XOMCOT_clean_sbu_1, # of connection points: 5
#     Node 13, Type 0, BuildingBlock: XOMCOT_clean_sbu_1, # of connection points: 5
#     Node 14, Type 0, BuildingBlock: XOMCOT_clean_sbu_1, # of connection points: 5
#     Node 15, Type 0, BuildingBlock: XOMCOT_clean_sbu_1, # of connection points: 5
#     Edge 16, Type (0, 0), BuildingBlock: EZIPEK_clean_linker_0, # of connection points: 2
#     Edge 17, Type (0, 0), BuildingBlock: EZIPEK_clean_linker_0, # of connection points: 2
#     Edge 18, Type (0, 0), BuildingBlock: EZIPEK_clean_linker_0, # of connection points: 2
#     Edge 19, Type (0, 0), BuildingBlock: EZIPEK_clean_linker_0, # of connection points: 2
#     Edge 20, Type (0, 0), BuildingBlock: EZIPEK_clean_linker_0, # of connection points: 2
#     Edge 21, Type (0, 0), BuildingBlock: EZIPEK_clean_linker_0, # of connection points: 2
#     Edge 22, Type (0, 0), BuildingBlock: EZIPEK_clean_linker_0, # of connection points: 2
#     Edge 23, Type (0, 0), BuildingBlock: EZIPEK_clean_linker_0, # of connection points: 2
#     Edge 24, Type (0, 0), BuildingBlock: EZIPEK_clean_linker_0, # of connection points: 2
#     Edge 25, Type (0, 0), BuildingBlock: EZIPEK_clean_linker_0, # of connection points: 2
#     Edge 26, Type (0, 0), BuildingBlock: EZIPEK_clean_linker_0, # of connection points: 2
#     Edge 27, Type (0, 0), BuildingBlock: EZIPEK_clean_linker_0, # of connection points: 2
#     Edge 28, Type (0, 0), BuildingBlock: EZIPEK_clean_linker_0, # of connection points: 2
#     Edge 29, Type (0, 0), BuildingBlock: EZIPEK_clean_linker_0, # of connection points: 2
#     Edge 30, Type (0, 0), BuildingBlock: EZIPEK_clean_linker_0, # of connection points: 2
#     Edge 31, Type (0, 0), BuildingBlock: EZIPEK_clean_linker_0, # of connection points: 2
#     Edge 32, Type (0, 0), BuildingBlock: EZIPEK_clean_linker_0, # of connection points: 2
#     Edge 33, Type (0, 0), BuildingBlock: EZIPEK_clean_linker_0, # of connection points: 2
#     Edge 34, Type (0, 0), BuildingBlock: EZIPEK_clean_linker_0, # of connection points: 2
#     Edge 35, Type (0, 0), BuildingBlock: EZIPEK_clean_linker_0, # of connection points: 2
#     Edge 36, Type (0, 0), BuildingBlock: EZIPEK_clean_linker_0, # of connection points: 2
#     Edge 37, Type (0, 0), BuildingBlock: EZIPEK_clean_linker_0, # of connection points: 2
#     Edge 38, Type (0, 0), BuildingBlock: EZIPEK_clean_linker_0, # of connection points: 2
#     Edge 39, Type (0, 0), BuildingBlock: EZIPEK_clean_linker_0, # of connection points: 2
#     Edge 40, Type (0, 0), BuildingBlock: EZIPEK_clean_linker_0, # of connection points: 2
#     Edge 41, Type (0, 0), BuildingBlock: EZIPEK_clean_linker_0, # of connection points: 2
#     Edge 42, Type (0, 0), BuildingBlock: EZIPEK_clean_linker_0, # of connection points: 2
#     Edge 43, Type (0, 0), BuildingBlock: EZIPEK_clean_linker_0, # of connection points: 2
#     Edge 44, Type (0, 0), BuildingBlock: EZIPEK_clean_linker_0, # of connection points: 2
#     Edge 45, Type (0, 0), BuildingBlock: EZIPEK_clean_linker_0, # of connection points: 2
#     Edge 46, Type (0, 0), BuildingBlock: EZIPEK_clean_linker_0, # of connection points: 2
#     Edge 47, Type (0, 0), BuildingBlock: EZIPEK_clean_linker_0, # of connection points: 2
#     Edge 48, Type (0, 0), BuildingBlock: EZIPEK_clean_linker_0, # of connection points: 2
#     Edge 49, Type (0, 0), BuildingBlock: EZIPEK_clean_linker_0, # of connection points: 2
#     Edge 50, Type (0, 0), BuildingBlock: EZIPEK_clean_linker_0, # of connection points: 2
#     Edge 51, Type (0, 0), BuildingBlock: EZIPEK_clean_linker_0, # of connection points: 2
#     Edge 52, Type (0, 0), BuildingBlock: EZIPEK_clean_linker_0, # of connection points: 2
#     Edge 53, Type (0, 0), BuildingBlock: EZIPEK_clean_linker_0, # of connection points: 2
#     Edge 54, Type (0, 0), BuildingBlock: EZIPEK_clean_linker_0, # of connection points: 2
#     Edge 55, Type (0, 0), BuildingBlock: EZIPEK_clean_linker_0, # of connection points: 2
# Relax obj value: 0.176
# Max RMSD: 0.147
# Mean RMSD: 0.147
data_MOF--net-zfe--node1-XOMCOT_clean_sbu_1--edge1-EZIPEK_clean_linker_0
_symmetry_space_group_name_H-M    P1
_symmetry_Int_Tables_number       1
_symmetry_cell_setting            triclinic
loop_
_symmetry_equiv_pos_as_xyz
'x, y, z'
_cell_length_a     42.354873
_cell_length_b     42.519002
_cell_length_c     20.551371
_cell_angle_alpha  90.032903
_cell_angle_beta   90.135087
_cell_angle_gamma 89.864063
loop_
_atom_site_label
_atom_site_type_symbol
_atom_site_fract_x
_atom_site_fract_y
_atom_site_fract_z
_atom_type_partial_charge
C0 C 0.10025 0.26367 0.94114 0.0
C1 C 0.1212 0.28806 0.94528 0.0
N2 N 0.11972 0.29992 1.00555 0.0
N3 N 0.08536 0.25927 0.99878 0.0
C4 C 0.09751 0.2827 0.03674 0.0
H5 H 0.09733 0.24925 0.89843 0.0
Co6 Co 0.05509 0.22532 1.0089 0.0
C7 C 0.05008 0.24817 0.14853 0.0
O8 O 0.08081 0.24519 0.1547 0.0
N9 N 0.02513 0.19251 1.01629 0.0
C10 C 1.00205 0.14569 1.00749 0.0
C11 C 0.02899 0.1627 0.99499 0.0
C12 C 0.99553 0.19307 0.04146 0.0
N13 N 0.98102 0.16484 0.03649 0.0
O14 O 0.02609 0.24765 0.95051 0.0
H15 H 0.05008 0.15393 0.9715 0.0
H16 H 0.98464 0.21378 0.06238 0.0
O17 O 0.03744 0.24327 0.09235 0.0
C18 C 0.03335 0.23398 0.89655 0.0
O19 O 0.05484 0.21162 0.89863 0.0
N20 N 0.085 0.19967 0.05255 0.0
C21 C 0.11947 0.14388 0.07024 0.0
C22 C 0.09694 0.15352 0.11644 0.0
C23 C 0.079 0.1809 0.10521 0.0
C24 C 0.10886 0.19189 1.01101 0.0
C25 C 0.126 0.16418 1.01851 0.0
H26 H 0.05828 0.18497 0.13459 0.0
H27 H 0.11221 0.2049 0.96673 0.0
H28 H 0.09052 0.28768 0.08591 0.0
H29 H 0.13741 0.29565 0.90781 0.0
H30 H 0.99807 0.12117 0.99594 0.0
H31 H 0.09105 0.13841 0.15704 0.0
H32 H 0.14285 0.15763 0.98125 0.0
C33 C 0.75878 0.1115 0.99374 0.0
C34 C 0.73545 0.13403 0.99574 0.0
N35 N 0.71124 0.12267 0.0307 0.0
N36 N 0.74947 0.08591 0.02738 0.0
C37 C 0.72025 0.09344 0.04957 0.0
H38 H 0.78086 0.11325 0.96768 0.0
Co39 Co 0.77252 0.04791 0.0286 0.0
C40 C 0.76642 0.03427 0.17347 0.0
O41 O 0.79664 0.0397 0.1817 0.0
N42 N 0.79541 0.00912 0.02703 0.0
C43 C 0.82327 0.96943 0.98457 0.0
C44 C 0.80681 0.99656 0.97126 0.0
C45 C 0.8047 0.98831 0.07347 0.0
N46 N 0.82201 0.96447 0.04894 0.0
O47 O 0.73852 0.02745 0.98098 0.0
H48 H 0.80418 0.00694 0.92361 0.0
H49 H 0.79958 0.99007 0.12439 0.0
O50 O 0.75397 0.03674 0.11641 0.0
C51 C 0.74309 0.0342 0.9208 0.0
O52 O 0.76602 0.05379 0.90666 0.0
N53 N 0.80818 0.06974 0.06322 0.0
C54 C 0.86159 0.10788 0.07958 0.0
C55 C 0.8349 0.11208 0.11923 0.0
C56 C 0.80805 0.09308 0.10931 0.0
C57 C 0.83395 0.06628 0.02397 0.0
C58 C 0.86086 0.08453 0.03205 0.0
H59 H 0.78683 0.09787 0.13677 0.0
H60 H 0.83319 0.0508 0.98262 0.0
H61 H 0.70538 0.07745 0.07659 0.0
H62 H 0.73585 0.15678 0.97213 0.0
H63 H 0.83544 0.95457 0.9499 0.0
H64 H 0.83439 0.13057 0.15546 0.0
H65 H 0.88061 0.08132 0.99924 0.0
C66 C 0.89356 0.76397 0.03469 0.0
C67 C 0.87265 0.7396 0.04082 0.0
N68 N 0.88886 0.7138 0.05824 0.0
N69 N 0.92318 0.75391 0.0484 0.0
C70 C 0.91948 0.72292 0.06284 0.0
H71 H 0.88743 0.78723 1.01783 0.0
Co72 Co 0.95985 0.77943 0.03814 0.0
C73 C 0.98946 0.77467 0.17272 0.0
O74 O 0.99189 0.80547 0.1728 0.0
N75 N 0.99674 0.80509 0.02738 0.0
C76 C 0.02931 0.84415 0.99991 0.0
C77 C 0.99947 0.83207 0.99282 0.0
C78 C 0.02638 0.80038 0.0511 0.0
N79 N 0.04618 0.82435 0.03703 0.0
O80 O 0.97974 0.7486 0.97793 0.0
H81 H 0.98135 0.84276 0.96337 0.0
H82 H 0.03345 0.7797 0.07782 0.0
O83 O 0.97802 0.76072 0.1219 0.0
C84 C 0.96443 0.74122 0.92563 0.0
O85 O 0.93353 0.74151 0.92712 0.0
N86 N 0.93839 0.81204 0.08258 0.0
C87 C 0.89656 0.86087 0.11164 0.0
C88 C 0.90504 0.8389 0.15976 0.0
C89 C 0.92576 0.81407 0.14376 0.0
C90 C 0.92893 0.83266 0.03573 0.0
C91 C 0.90888 0.85751 0.04935 0.0
H92 H 0.93009 0.7959 0.17925 0.0
H93 H 0.93452 0.82802 0.98564 0.0
H94 H 0.93889 0.70709 0.07321 0.0
H95 H 0.84758 0.74034 0.03045 0.0
H96 H 0.03794 0.86608 0.98003 0.0
H97 H 0.89482 0.84023 0.20792 0.0
H98 H 0.90164 0.87311 1.01032 0.0
C99 C 0.30561 0.93754 1.0073 0.0
C100 C 0.32813 0.91445 1.00809 0.0
N101 N 0.3136 0.88655 1.01297 0.0
N102 N 0.27645 0.92471 1.00984 0.0
C103 C 0.28218 0.89324 1.01405 0.0
H104 H 0.31058 0.96245 1.00634 0.0
Co105 Co 0.23993 0.95104 1.00768 0.0
C106 C 0.23812 0.97434 0.14928 0.0
O107 O 0.20749 0.96953 0.15003 0.0
N108 N 0.20442 0.97908 1.00495 0.0
C109 C 0.16045 0.00392 0.97325 0.0
C110 C 0.17895 0.97758 0.96517 0.0
C111 C 0.20106 0.00742 0.03493 0.0
N112 N 0.17431 0.02263 1.01754 0.0
O113 O 0.26314 0.98121 0.95349 0.0
H114 H 0.17439 0.9593 0.93003 0.0
H115 H 0.2183 0.01753 0.06735 0.0
O116 O 0.25364 0.96896 0.09617 0.0
C117 C 0.25679 0.97136 0.89556 0.0
O118 O 0.2371 0.94774 0.89017 0.0
N119 N 0.2149 0.9188 0.04489 0.0
C120 C 0.16713 0.87556 0.0723 0.0
C121 C 0.18949 0.88372 0.12038 0.0
C122 C 0.21392 0.90507 0.10489 0.0
C123 C 0.19624 0.90721 0.99644 0.0
C124 C 0.17182 0.88647 1.00917 0.0
H125 H 0.2319 0.9104 0.14021 0.0
H126 H 0.19973 0.91466 0.94706 0.0
H127 H 0.26391 0.87564 1.01867 0.0
H128 H 0.35346 0.91789 1.00768 0.0
H129 H 0.13866 0.00921 0.94782 0.0
H130 H 0.18773 0.87423 0.1691 0.0
H131 H 0.15619 0.87955 0.96989 0.0
C132 C 0.082 0.74947 0.64082 0.0
C133 C 0.10611 0.7279 0.64426 0.0
N134 N 0.10842 0.71336 0.58638 0.0
N135 N 0.06839 0.74839 0.5814 0.0
C136 C 0.08539 0.72627 0.5488 0.0
H137 H 0.07545 0.76553 0.67921 0.0
Co138 Co 0.03514 0.77589 0.55681 0.0
C139 C 0.021 0.73168 0.43554 0.0
O140 O 0.01387 0.70463 0.4625 0.0
N141 N 1.00214 0.80389 0.52973 0.0
C142 C 0.97394 0.83236 0.45893 0.0
C143 C 0.99919 0.81266 0.46656 0.0
C144 C 0.97853 0.8199 0.56 0.0
N145 N 0.96085 0.83691 0.51745 0.0
O146 O 0.00542 0.74951 0.60516 0.0
H147 H 0.01491 0.8058 0.42769 0.0
H148 H 0.9748 0.81992 0.61191 0.0
O149 O 0.02884 0.755 0.4714 0.0
C150 C 0.00604 0.76162 0.66267 0.0
O151 O 0.02119 0.7882 0.67086 0.0
N152 N 0.06439 0.8034 0.52308 0.0
C153 C 0.109 0.84982 0.50229 0.0
C154 C 0.10626 0.82455 0.45847 0.0
C155 C 0.08372 0.80107 0.47033 0.0
C156 C 0.06696 0.82784 0.56547 0.0
C157 C 0.08912 0.85123 0.55616 0.0
H158 H 0.08208 0.7811 0.43824 0.0
H159 H 0.05174 0.82901 0.60745 0.0
H160 H 0.08173 0.72036 0.49822 0.0
H161 H 0.12169 0.72402 0.68534 0.0
H162 H 0.96608 0.84318 0.41401 0.0
H163 H 0.12142 0.82297 0.41625 0.0
H164 H 0.09062 0.87047 0.59064 0.0
C165 C 0.25264 0.09019 0.60262 0.0
C166 C 0.2717 0.1162 0.60746 0.0
N167 N 0.29247 0.11547 0.55805 0.0
N168 N 0.26186 0.07246 0.5516 0.0
C169 C 0.28589 0.08886 0.52459 0.0
H170 H 0.23288 0.08486 0.63387 0.0
Co171 Co 0.24086 0.0358 0.5251 0.0
C172 C 0.28486 0.02928 0.39461 0.0
O173 O 0.31422 0.03906 0.39738 0.0
N174 N 0.21934 0.99972 0.49609 0.0
C175 C 0.19308 0.97023 0.42472 0.0
C176 C 0.20982 0.99726 0.43341 0.0
C177 C 0.20717 0.9739 0.52528 0.0
N178 N 0.1913 0.95559 0.48231 0.0
O179 O 0.26933 0.01085 0.58027 0.0
H180 H 0.21368 0.01481 0.39633 0.0
H181 H 0.2086 0.96929 0.57698 0.0
O182 O 0.26751 0.03179 0.44569 0.0
C183 C 0.2569 0.01197 0.63742 0.0
O184 O 0.22889 0.0249 0.64328 0.0
N185 N 0.21096 0.06068 0.48495 0.0
C186 C 0.16084 0.10157 0.46484 0.0
C187 C 0.18722 0.10228 0.42318 0.0
C188 C 0.21267 0.08165 0.43487 0.0
C189 C 0.18524 0.05952 0.52432 0.0
C190 C 0.1601 0.0798 0.51548 0.0
H191 H 0.2338 0.08308 0.4056 0.0
H192 H 0.18478 0.04328 0.56471 0.0
H193 H 0.29781 0.08217 0.48034 0.0
H194 H 0.26973 0.13489 0.64302 0.0
H195 H 0.1815 0.96267 0.38037 0.0
H196 H 0.18834 0.11898 0.3835 0.0
H197 H 0.14018 0.07863 0.54842 0.0
C198 C 0.92329 0.25286 0.60667 0.0
C199 C 0.90035 0.27548 0.61299 0.0
N200 N 0.8998 0.29284 0.55838 0.0
N201 N 0.93786 0.25594 0.54857 0.0
C202 C 0.92299 0.28083 0.52029 0.0
H203 H 0.92783 0.23452 0.64173 0.0
Co204 Co 0.97019 0.22852 0.51718 0.0
C205 C 0.97197 0.25587 0.37957 0.0
O206 O 0.94717 0.23971 0.36154 0.0
N207 N 1.00326 0.20241 0.48283 0.0
C208 C 0.02931 0.17447 0.40823 0.0
C209 C 1.0023 0.19072 0.42147 0.0
C210 C 0.03166 0.19253 0.50593 0.0
N211 N 0.04778 0.17548 0.4612 0.0
O212 O 1.00018 0.24943 0.57555 0.0
H213 H 0.98276 0.1931 0.38811 0.0
H214 H 0.04055 0.1977 0.55402 0.0
O215 O 0.97993 0.25615 0.4401 0.0
C216 C 0.99548 0.23186 0.62578 0.0
O217 O 0.97688 0.20744 0.61767 0.0
N218 N 0.93902 0.20269 0.47687 0.0
C219 C 0.89059 0.15823 0.47219 0.0
C220 C 0.88517 0.18909 0.45076 0.0
C221 C 0.90977 0.21118 0.45402 0.0
C222 C 0.94391 0.17236 0.49719 0.0
C223 C 0.9206 0.14974 0.49306 0.0
H224 H 0.90437 0.23536 0.44279 0.0
H225 H 0.96516 0.16574 0.52278 0.0
H226 H 0.92774 0.28888 0.47136 0.0
H227 H 0.88386 0.27776 0.65291 0.0
H228 H 0.03466 0.16188 0.36376 0.0
H229 H 0.86172 0.19654 0.43631 0.0
H230 H 0.92517 0.1264 0.5122 0.0
C231 C 0.7545 0.91248 0.61535 0.0
C232 C 0.73495 0.88669 0.61331 0.0
N233 N 0.71288 0.89153 0.56708 0.0
N234 N 0.74477 0.93375 0.57097 0.0
C235 C 0.71938 0.92026 0.54195 0.0
H236 H 0.77413 0.91589 0.64831 0.0
Co237 Co 0.76154 0.97449 0.5639 0.0
C238 C 0.75665 0.99161 0.42468 0.0
O239 O 0.78708 0.99676 0.42915 0.0
N240 N 0.77687 0.01678 0.55669 0.0
C241 C 0.7705 0.06849 0.541 0.0
C242 C 0.75568 0.04065 0.55341 0.0
C243 C 0.80495 0.03124 0.54521 0.0
N244 N 0.80135 0.0625 0.53537 0.0
O245 O 0.72582 0.98993 0.61499 0.0
H246 H 0.73041 0.0379 0.55478 0.0
H247 H 0.82735 0.01929 0.54036 0.0
O248 O 0.74151 0.98104 0.47466 0.0
C249 C 0.73744 0.98859 0.6729 0.0
O250 O 0.76661 0.97851 0.67947 0.0
N251 N 0.79891 0.95693 0.52982 0.0
C252 C 0.85251 0.91861 0.52155 0.0
C253 C 0.82788 0.91568 0.47596 0.0
C254 C 0.80087 0.93478 0.4817 0.0
C255 C 0.82281 0.95985 0.57403 0.0
C256 C 0.84991 0.94135 0.57025 0.0
H257 H 0.78082 0.93031 0.45056 0.0
H258 H 0.82008 0.97543 0.61518 0.0
H259 H 0.70547 0.93146 0.50425 0.0
H260 H 0.73674 0.86589 0.64347 0.0
H261 H 0.75942 0.09119 0.53358 0.0
H262 H 0.82888 0.89779 0.4385 0.0
H263 H 0.86815 0.94383 0.60695 0.0
C264 C 0.59833 0.76566 0.42951 0.0
C265 C 0.6205 0.78889 0.43375 0.0
N266 N 0.61842 0.80205 0.49281 0.0
N267 N 0.58184 0.76333 0.48564 0.0
C268 C 0.59442 0.78679 0.52299 0.0
H269 H 0.59483 0.75112 0.38711 0.0
Co270 Co 0.54873 0.73208 0.49267 0.0
C271 C 0.54772 0.75151 0.63515 0.0
O272 O 0.5786 0.74903 0.63811 0.0
N273 N 0.51597 0.70184 0.49746 0.0
C274 C 0.48963 0.65675 0.48822 0.0
C275 C 0.51708 0.67243 0.47281 0.0
C276 C 0.48731 0.70364 0.52692 0.0
N277 N 0.47101 0.67637 0.52237 0.0
O278 O 0.52131 0.75954 0.44168 0.0
H279 H 0.53687 0.66282 0.44614 0.0
H280 H 0.47862 0.72436 0.55177 0.0
O281 O 0.53401 0.74782 0.57978 0.0
C282 C 0.5255 0.74956 0.38315 0.0
O283 O 0.54303 0.72438 0.37458 0.0
N284 N 0.57702 0.70256 0.5299 0.0
C285 C 0.61529 0.64982 0.55024 0.0
C286 C 0.59176 0.65788 0.59549 0.0
C287 C 0.57237 0.68424 0.58377 0.0
C288 C 0.5997 0.69437 0.48593 0.0
C289 C 0.61938 0.66868 0.49569 0.0
H290 H 0.5524 0.68848 0.6152 0.0
H291 H 0.60094 0.70587 0.43963 0.0
H292 H 0.58618 0.79333 0.57066 0.0
H293 H 0.63767 0.79505 0.39695 0.0
H294 H 0.48378 0.63274 0.47556 0.0
H295 H 0.58729 0.64298 0.63716 0.0
H296 H 0.63646 0.66242 0.45865 0.0
C297 C 0.25428 0.60764 0.49879 0.0
C298 C 0.23219 0.63129 0.49332 0.0
N299 N 0.20984 0.62677 0.5388 0.0
N300 N 0.24593 0.58797 0.54723 0.0
C301 C 0.2187 0.60033 0.57103 0.0
H302 H 0.27533 0.60504 0.46956 0.0
Co303 Co 0.26966 0.55207 0.57082 0.0
C304 C 0.2506 0.55378 0.71648 0.0
O305 O 0.27197 0.57494 0.73084 0.0
N306 N 0.29279 0.51571 0.59733 0.0
C307 C 0.32009 0.4855 0.66603 0.0
C308 C 0.30632 0.51408 0.65702 0.0
C309 C 0.29986 0.48751 0.56987 0.0
N310 N 0.31631 0.46878 0.61134 0.0
O311 O 0.23927 0.52602 0.52241 0.0
H312 H 0.30769 0.53306 0.6915 0.0
H313 H 0.29402 0.48116 0.52034 0.0
O314 O 0.24601 0.54646 0.6563 0.0
C315 C 0.24862 0.52701 0.46278 0.0
O316 O 0.27526 0.54155 0.45036 0.0
N317 N 0.30291 0.57881 0.60232 0.0
C318 C 0.35475 0.62015 0.59874 0.0
C319 C 0.32623 0.62924 0.62841 0.0
C320 C 0.30032 0.60833 0.62875 0.0
C321 C 0.33072 0.57027 0.57322 0.0
C322 C 0.35683 0.59006 0.57233 0.0
H323 H 0.2777 0.61679 0.64577 0.0
H324 H 0.3323 0.54878 0.54542 0.0
H325 H 0.2058 0.59047 0.61153 0.0
H326 H 0.23278 0.65077 0.45944 0.0
H327 H 0.33365 0.47812 0.70811 0.0
H328 H 0.32345 0.65281 0.64755 0.0
H329 H 0.37803 0.58255 0.54723 0.0
C330 C 0.39978 0.25874 0.46631 0.0
C331 C 0.37613 0.23688 0.45908 0.0
N332 N 0.37909 0.21551 0.50695 0.0
N333 N 0.418 0.25095 0.51786 0.0
C334 C 0.40452 0.22457 0.54199 0.0
H335 H 0.40311 0.27932 0.4363 0.0
Co336 Co 0.45325 0.27402 0.5465 0.0
C337 C 0.45966 0.23084 0.67807 0.0
O338 O 0.45232 0.20093 0.67413 0.0
N339 N 0.48801 0.29703 0.57754 0.0
C340 C 0.51903 0.31994 0.65111 0.0
C341 C 0.49097 0.30494 0.64102 0.0
C342 C 0.51415 0.30901 0.54925 0.0
N343 N 0.53358 0.3225 0.59348 0.0
O344 O 0.48052 0.24685 0.49393 0.0
H345 H 0.47351 0.30046 0.67803 0.0
H346 H 0.51859 0.30856 0.49761 0.0
O347 O 0.45729 0.24811 0.6269 0.0
C348 C 0.47841 0.25903 0.43668 0.0
O349 O 0.46287 0.28554 0.43012 0.0
N350 N 0.42647 0.30309 0.58385 0.0
C351 C 0.38567 0.35352 0.60133 0.0
C352 C 0.38526 0.32795 0.64503 0.0
C353 C 0.40581 0.3023 0.63459 0.0
C354 C 0.42712 0.32793 0.54223 0.0
C355 C 0.40676 0.35304 0.54944 0.0
H356 H 0.40486 0.28197 0.66595 0.0
H357 H 0.44342 0.32802 0.502 0.0
H358 H 0.41267 0.21231 0.58472 0.0
H359 H 0.35761 0.2371 0.42269 0.0
H360 H 0.52786 0.329 0.69692 0.0
H361 H 0.36916 0.32777 0.68586 0.0
H362 H 0.40781 0.37233 0.51504 0.0
C363 C 0.75318 0.39624 0.46888 0.0
C364 C 0.77569 0.37301 0.46494 0.0
N365 N 0.79806 0.37874 0.51002 0.0
N366 N 0.76136 0.41698 0.51562 0.0
C367 C 0.7888 0.40552 0.54044 0.0
H368 H 0.732 0.39789 0.43958 0.0
Co369 Co 0.7365 0.45245 0.53569 0.0
C370 C 0.75061 0.45285 0.6826 0.0
O371 O 0.72614 0.4352 0.69536 0.0
N372 N 0.71128 0.48863 0.558 0.0
C373 C 0.67741 0.51754 0.6162 0.0
C374 C 0.69324 0.48967 0.6124 0.0
C375 C 0.70548 0.51683 0.52899 0.0
N376 N 0.68499 0.53464 0.56401 0.0
O377 O 0.76677 0.47847 0.48945 0.0
H378 H 0.69001 0.47071 0.6462 0.0
H379 H 0.71527 0.52387 0.48271 0.0
O380 O 0.75825 0.45871 0.62308 0.0
C381 C 0.75702 0.47543 0.4304 0.0
O382 O 0.73024 0.46064 0.42051 0.0
N383 N 0.70446 0.42541 0.5648 0.0
C384 C 0.65203 0.38641 0.57447 0.0
C385 C 0.68029 0.37848 0.60645 0.0
C386 C 0.70686 0.39775 0.59849 0.0
C387 C 0.67778 0.43163 0.52958 0.0
C388 C 0.65129 0.41281 0.53438 0.0
H389 H 0.72928 0.39042 0.61884 0.0
H390 H 0.67713 0.45119 0.49606 0.0
H391 H 0.80152 0.41626 0.58038 0.0
H392 H 0.77535 0.35294 0.43249 0.0
H393 H 0.66061 0.5244 0.65327 0.0
H394 H 0.68188 0.35744 0.63594 0.0
H395 H 0.63023 0.41892 0.50707 0.0
C396 C 0.54757 0.20801 0.06221 0.0
C397 C 0.56864 0.18341 0.06124 0.0
N398 N 0.59759 0.19514 0.05094 0.0
N399 N 0.56296 0.23565 0.05465 0.0
C400 C 0.59358 0.22667 0.04605 0.0
H401 H 0.52238 0.20571 0.0689 0.0
Co402 Co 0.54098 0.27559 0.06023 0.0
C403 C 0.50542 0.27758 0.92895 0.0
O404 O 0.50241 0.30826 0.93065 0.0
N405 N 0.51735 0.31422 0.06404 0.0
C406 C 0.50357 0.36445 0.05173 0.0
C407 C 0.52825 0.34386 0.05814 0.0
C408 C 0.48536 0.31807 0.06599 0.0
N409 N 0.47629 0.34853 0.05743 0.0
O410 O 0.50998 0.25725 0.12112 0.0
H411 H 0.55261 0.35052 0.05688 0.0
H412 H 0.469 0.29874 0.07133 0.0
O413 O 0.51893 0.26299 0.97644 0.0
C414 C 0.52506 0.25428 0.17551 0.0
O415 O 0.55596 0.25647 0.17404 0.0
N416 N 0.57517 0.29646 1.01792 0.0
C417 C 0.61904 0.34578 1.0143 0.0
C418 C 0.59795 0.3408 0.96208 0.0
C419 C 0.57649 0.31541 0.96411 0.0
C420 C 0.59764 0.29958 0.06534 0.0
C421 C 0.62054 0.32294 0.06295 0.0
H422 H 0.55876 0.3141 0.92688 0.0
H423 H 0.59623 0.28554 0.1089 0.0
H424 H 0.61291 0.24254 0.03679 0.0
H425 H 0.56316 0.15872 0.0672 0.0
H426 H 0.50558 0.38954 0.04391 0.0
H427 H 0.59632 0.35774 0.92289 0.0
H428 H 0.6368 0.32546 0.10339 0.0
C429 C 0.81316 0.54675 0.05495 0.0
C430 C 0.83635 0.56921 0.05642 0.0
N431 N 0.82249 0.59727 0.06541 0.0
N432 N 0.78453 0.56033 0.0631 0.0
C433 C 0.7911 0.59147 0.06924 0.0
H434 H 0.81699 0.52186 0.04738 0.0
Co435 Co 0.74738 0.5355 0.0628 0.0
C436 C 0.7467 0.50658 0.9278 0.0
O437 O 0.71576 0.50781 0.92697 0.0
N438 N 0.71101 0.50901 0.06171 0.0
C439 C 0.6615 0.49142 0.05967 0.0
C440 C 0.6804 0.51736 0.06818 0.0
C441 C 0.71 0.47735 0.05203 0.0
N442 N 0.68009 0.46626 0.04889 0.0
O443 O 0.76918 0.50496 0.11734 0.0
H444 H 0.67209 0.54071 0.07912 0.0
H445 H 0.73077 0.46277 0.04661 0.0
O446 O 0.76198 0.51661 0.97778 0.0
C447 C 0.75958 0.51262 0.17454 0.0
O448 O 0.73677 0.53343 0.17902 0.0
N449 N 0.72402 0.56882 0.02398 0.0
C450 C 0.67548 0.61277 1.00885 0.0
C451 C 0.68796 0.59704 0.95449 0.0
C452 C 0.7128 0.57532 0.96297 0.0
C453 C 0.71419 0.58667 0.07542 0.0
C454 C 0.6899 0.60852 0.06914 0.0
H455 H 0.7217 0.56338 0.92089 0.0
H456 H 0.72388 0.58248 0.12317 0.0
H457 H 0.77351 0.60969 0.07519 0.0
H458 H 0.86143 0.56542 0.04984 0.0
H459 H 0.63598 0.49088 0.06254 0.0
H460 H 0.6777 0.60046 0.9067 0.0
H461 H 0.68124 0.62068 0.1119 0.0
C462 C 0.41069 0.73201 0.07003 0.0
C463 C 0.38552 0.75244 0.0733 0.0
N464 N 0.39223 0.77769 0.03664 0.0
N465 N 0.43333 0.74422 0.03143 0.0
C466 C 0.42138 0.77232 1.01184 0.0
H467 H 0.41254 0.70962 0.09459 0.0
Co468 Co 0.47188 0.72336 1.01299 0.0
C469 C 0.47324 0.745 0.87003 0.0
O470 O 0.45357 0.72298 0.85177 0.0
N471 N 0.51107 0.7031 0.99273 0.0
C472 C 0.54558 0.67621 0.93233 0.0
C473 C 0.51639 0.68982 0.93378 0.0
C474 C 0.53798 0.69697 0.02667 0.0
N475 N 0.55921 0.68067 0.99042 0.0
O476 O 0.49327 0.7538 0.06877 0.0
H477 H 0.49956 0.68875 0.89444 0.0
H478 H 0.5416 0.70331 0.07712 0.0
O479 O 0.47938 0.74871 0.93103 0.0
C480 C 0.48919 0.74232 0.12613 0.0
O481 O 0.47614 0.71439 0.1306 0.0
N482 N 0.4489 0.68995 0.9726 0.0
C483 C 0.40644 0.63992 0.97713 0.0
C484 C 0.39762 0.66845 0.94824 0.0
C485 C 0.41934 0.69323 0.94603 0.0
C486 C 0.4579 0.66131 0.99716 0.0
C487 C 0.43755 0.6358 0.99741 0.0
H488 H 0.41085 0.71604 0.93063 0.0
H489 H 0.47953 0.65865 0.02437 0.0
H490 H 0.43375 0.78857 0.98047 0.0
H491 H 0.36406 0.74925 0.10099 0.0
H492 H 0.55573 0.66302 0.8924 0.0
H493 H 0.37344 0.67246 0.93302 0.0
H494 H 0.44484 0.6142 1.02114 0.0
C495 C 0.25082 0.40986 0.14819 0.0
C496 C 0.23066 0.3847 0.14277 0.0
N497 N 0.21148 0.38965 0.09147 0.0
N498 N 0.24434 0.43092 0.10097 0.0
C499 C 0.22028 0.41784 0.06667 0.0
H500 H 0.26884 0.41286 0.18501 0.0
Co501 Co 0.26436 0.47015 0.09565 0.0
C502 C 0.25731 0.4908 0.95624 0.0
O503 O 0.28814 0.49322 0.95619 0.0
N504 N 0.28352 0.51047 0.08994 0.0
C505 C 0.2837 0.56249 0.07489 0.0
C506 C 0.26568 0.53693 0.09028 0.0
C507 C 0.31275 0.52087 0.07358 0.0
N508 N 0.3131 0.55229 0.06378 0.0
O509 O 0.23057 0.48822 0.15152 0.0
H510 H 0.24044 0.53756 0.09598 0.0
H511 H 0.33288 0.50581 0.06465 0.0
O512 O 0.24326 0.48028 1.00778 0.0
C513 C 0.24205 0.48607 0.20971 0.0
O514 O 0.27046 0.47418 0.21612 0.0
N515 N 0.30012 0.44995 0.05902 0.0
C516 C 0.35551 0.41375 0.04667 0.0
C517 C 0.33375 0.41622 0.99471 0.0
C518 C 0.30526 0.43314 1.00324 0.0
C519 C 0.32101 0.44745 0.10928 0.0
C520 C 0.34798 0.42901 0.10493 0.0
H521 H 0.28744 0.43223 0.96585 0.0
H522 H 0.31644 0.45946 0.15439 0.0
H523 H 0.20917 0.42879 0.02495 0.0
H524 H 0.2302 0.36413 0.17379 0.0
H525 H 0.27558 0.58647 0.06875 0.0
H526 H 0.33825 0.40444 0.94893 0.0
H527 H 0.36335 0.42728 0.14701 0.0
C528 C 0.13242 0.35359 0.04627 0.0
C529 C 0.14192 0.32232 0.03239 0.0
C530 C 0.19732 0.33728 0.04826 0.0
C531 C 0.18785 0.36785 0.06769 0.0
N532 N 0.14604 0.40384 0.09531 0.0
N533 N 0.18243 0.28271 0.03363 0.0
C534 C 0.15523 0.37574 0.06934 0.0
C535 C 0.17415 0.3137 0.03751 0.0
N536 N 0.1018 0.36222 0.03558 0.0
N537 N 0.22855 0.33119 0.03756 0.0
H538 H 0.16577 0.26489 0.02759 0.0
H539 H 0.20518 0.27448 0.04295 0.0
H540 H 0.24591 0.34843 0.04219 0.0
H541 H 0.2368 0.31019 1.0177 0.0
H542 H 0.09386 0.38538 0.03823 0.0
H543 H 0.08475 0.34629 1.01963 0.0
H544 H 0.12255 0.40986 0.1036 0.0
H545 H 0.16212 0.42019 0.11345 0.0
C546 C 0.65564 0.13248 0.99896 0.0
C547 C 0.68148 0.13871 0.04086 0.0
C548 C 0.65104 0.18117 0.09284 0.0
C549 C 0.62654 0.17704 0.04633 0.0
N550 N 0.60784 0.15246 0.94824 0.0
N551 N 0.70547 0.17043 0.12383 0.0
C552 C 0.62944 0.15355 0.99763 0.0
C553 C 0.67963 0.16358 0.08666 0.0
N554 N 0.65616 0.10627 0.96066 0.0
N555 N 0.64635 0.20081 0.14454 0.0
H556 H 0.72595 0.15675 0.12285 0.0
H557 H 0.70723 0.19046 0.1528 0.0
H558 H 0.62536 0.2132 0.1515 0.0
H559 H 0.66205 0.2028 0.18335 0.0
H560 H 0.63693 0.09868 0.93325 0.0
H561 H 0.67495 0.09045 0.96123 0.0
H562 H 0.60999 0.13779 0.9079 0.0
H563 H 0.5893 0.16853 0.94432 0.0
C564 C 0.84623 0.64259 0.1233 0.0
C565 C 0.83858 0.62716 0.06422 0.0
C566 C 0.86969 0.6658 1.00336 0.0
C567 C 0.8754 0.68265 0.06174 0.0
N568 N 0.86743 0.68925 0.17637 0.0
N569 N 0.83952 0.6253 0.9476 0.0
C570 C 0.86327 0.67152 0.12163 0.0
C571 C 0.84947 0.63911 1.00407 0.0
N572 N 0.83778 0.62902 0.18085 0.0
N573 N 0.88404 0.67535 0.94742 0.0
H574 H 0.82442 0.60595 0.94708 0.0
H575 H 0.84409 0.63425 0.90148 0.0
H576 H 0.8988 0.69486 0.94608 0.0
H577 H 0.88345 0.66279 0.90397 0.0
H578 H 0.84498 0.63724 0.2262 0.0
H579 H 0.82486 0.60818 0.18288 0.0
H580 H 0.85665 0.68446 0.22071 0.0
H581 H 0.88069 0.70991 0.17632 0.0
C582 C 0.35115 0.85398 0.07575 0.0
C583 C 0.33006 0.85695 1.02229 0.0
C584 C 0.34895 0.8061 0.98006 0.0
C585 C 0.37234 0.80515 0.02949 0.0
N586 N 0.39828 0.82938 0.12038 0.0
N587 N 0.3107 0.83749 0.91987 0.0
C588 C 0.37415 0.82951 0.07621 0.0
C589 C 0.32921 0.83326 0.97363 0.0
N590 N 0.34837 0.87425 0.12702 0.0
N591 N 0.34553 0.78078 0.93982 0.0
H592 H 0.2962 0.85711 0.91383 0.0
H593 H 0.31121 0.8227 0.8795 0.0
H594 H 0.36045 0.76124 0.94227 0.0
H595 H 0.32691 0.77826 0.9071 0.0
H596 H 0.36126 0.87216 0.16999 0.0
H597 H 0.33076 0.89143 0.129 0.0
H598 H 0.40302 0.84799 0.15181 0.0
H599 H 0.41519 0.81152 0.1219 0.0
C600 C 0.12669 0.65955 0.55552 0.0
C601 C 0.13339 0.69165 0.5684 0.0
C602 C 0.19008 0.67938 0.57072 0.0
C603 C 0.18371 0.6479 0.55228 0.0
N604 N 0.14626 0.60909 0.51666 0.0
N605 N 0.17148 0.73334 0.57348 0.0
C606 C 0.15202 0.63823 0.5418 0.0
C607 C 0.16517 0.70188 0.57154 0.0
N608 N 0.09623 0.64927 0.55876 0.0
N609 N 0.21985 0.68745 0.58998 0.0
H610 H 0.15367 0.75032 0.57156 0.0
H611 H 0.19419 0.74252 0.57002 0.0
H612 H 0.23825 0.67113 0.59259 0.0
H613 H 0.22544 0.70931 0.60971 0.0
H614 H 0.08997 0.62563 0.55642 0.0
H615 H 0.07738 0.66434 0.5686 0.0
H616 H 0.12397 0.60163 0.5019 0.0
H617 H 0.16432 0.59324 0.50572 0.0
C618 C 0.32536 0.19642 0.53168 0.0
C619 C 0.35769 0.18992 0.52052 0.0
C620 C 0.34744 0.13367 0.53754 0.0
C621 C 0.31458 0.14007 0.54149 0.0
N622 N 0.27195 0.17676 0.52477 0.0
N623 N 0.39869 0.15183 0.50075 0.0
C624 C 0.30345 0.17127 0.53339 0.0
C625 C 0.36856 0.15833 0.52003 0.0
N626 N 0.31576 0.22656 0.54337 0.0
N627 N 0.35859 0.10449 0.55312 0.0
H628 H 0.41438 0.16932 0.48617 0.0
H629 H 0.40709 0.12905 0.49349 0.0
H630 H 0.34387 0.08626 0.56801 0.0
H631 H 0.38255 0.09925 0.55703 0.0
H632 H 0.29285 0.23226 0.55759 0.0
H633 H 0.33153 0.24533 0.54599 0.0
H634 H 0.26281 0.19885 0.51325 0.0
H635 H 0.25548 0.15862 0.52163 0.0
C636 C 0.85604 0.36832 0.51728 0.0
C637 C 0.82436 0.35809 0.52504 0.0
C638 C 0.84325 0.30409 0.54059 0.0
C639 C 0.87491 0.31472 0.54102 0.0
N640 N 0.91165 0.35767 0.53789 0.0
N641 N 0.78852 0.31757 0.55924 0.0
C642 C 0.88142 0.34711 0.53146 0.0
C643 C 0.81821 0.3263 0.54109 0.0
N644 N 0.86183 0.39778 0.49397 0.0
N645 N 0.83716 0.2726 0.53754 0.0
H646 H 0.77004 0.33371 0.56357 0.0
H647 H 0.7832 0.29524 0.57689 0.0
H648 H 0.85509 0.25583 0.53365 0.0
H649 H 0.81452 0.26351 0.53146 0.0
H650 H 0.88427 0.40563 0.48137 0.0
H651 H 0.84378 0.4135 0.48212 0.0
H652 H 0.9176 0.38143 0.53792 0.0
H653 H 0.93051 0.34262 0.54803 0.0
C654 C 0.6323 0.85553 0.5341 0.0
C655 C 0.64114 0.82417 0.51903 0.0
C656 C 0.69699 0.83886 0.52777 0.0
C657 C 0.68836 0.8695 0.54835 0.0
N658 N 0.6476 0.90522 0.58338 0.0
N659 N 0.68143 0.7843 0.51794 0.0
C660 C 0.65588 0.8774 0.55495 0.0
C661 C 0.67341 0.81538 0.52106 0.0
N662 N 0.60163 0.86466 0.52625 0.0
N663 N 0.72762 0.8326 0.5117 0.0
H664 H 0.6645 0.76652 0.51565 0.0
H665 H 0.7044 0.77612 0.52477 0.0
H666 H 0.74516 0.84979 0.51267 0.0
H667 H 0.73486 0.81147 0.49075 0.0
H668 H 0.59417 0.88795 0.52997 0.0
H669 H 0.58403 0.84912 0.51125 0.0
H670 H 0.6244 0.9111 0.59504 0.0
H671 H 0.66425 0.92121 0.60068 0.0
C672 C 0.18053 0.08026 0.03813 0.0
C673 C 0.16221 0.05242 0.04134 0.0
C674 C 0.1156 0.08396 0.06888 0.0
C675 C 0.13436 0.11174 0.07031 0.0
N676 N 0.18673 0.13382 0.07621 0.0
N677 N 0.11544 0.0274 0.0823 0.0
C678 C 0.16758 0.10898 0.06181 0.0
C679 C 0.13077 0.0542 0.06434 0.0
N680 N 0.20933 0.07994 1.00851 0.0
N681 N 0.0834 0.08564 0.0665 0.0
H682 H 0.12651 0.00544 0.08201 0.0
H683 H 0.09332 0.02765 0.10445 0.0
H684 H 0.07087 0.10669 0.06406 0.0
H685 H 0.06924 0.0659 0.05947 0.0
H686 H 0.22224 0.10032 0.99963 0.0
H687 H 0.21873 0.05995 0.98651 0.0
H688 H 0.21129 0.13225 0.07559 0.0
H689 H 0.17802 0.15482 0.09553 0.0
C690 C 0.92272 0.16637 1.02264 0.0
C691 C 0.94969 0.15597 0.05759 0.0
C692 C 0.91691 0.11866 0.11882 0.0
C693 C 0.89004 0.12856 0.0828 0.0
N694 N 0.86549 0.16662 1.01234 0.0
N695 N 0.97175 0.12813 0.14837 0.0
C696 C 0.89237 0.15423 0.03894 0.0
C697 C 0.94643 0.13401 0.10897 0.0
N698 N 0.92646 0.18625 0.97109 0.0
N699 N 0.91441 0.09366 0.16023 0.0
H700 H 0.99339 0.13943 0.14208 0.0
H701 H 0.97069 0.11435 0.19013 0.0
H702 H 0.89286 0.08294 0.1706 0.0
H703 H 0.93369 0.08269 0.18212 0.0
H704 H 0.90839 0.19211 0.93884 0.0
H705 H 0.94833 0.19535 0.95779 0.0
H706 H 0.86508 0.18707 0.98453 0.0
H707 H 0.84307 0.15791 1.02299 0.0
C708 C 0.84204 0.88157 0.09649 0.0
C709 C 0.87289 0.88631 0.12148 0.0
C710 C 0.86501 0.94348 0.11833 0.0
C711 C 0.83653 0.93864 0.08331 0.0
N712 N 0.79536 0.90461 0.04567 0.0
N713 N 0.91288 0.92044 0.1643 0.0
C714 C 0.82402 0.90802 0.07547 0.0
C715 C 0.88374 0.91697 0.1365 0.0
N716 N 0.83071 0.85159 0.09138 0.0
N717 N 0.87445 0.97347 0.13198 0.0
H718 H 0.92622 0.90121 0.18003 0.0
H719 H 0.9241 0.94188 0.17144 0.0
H720 H 0.86196 0.99322 0.11637 0.0
H721 H 0.89373 0.97908 0.1611 0.0
H722 H 0.80814 0.84586 0.0754 0.0
H723 H 0.84368 0.83212 0.10718 0.0
H724 H 0.78539 0.88315 0.03296 0.0
H725 H 0.78137 0.9239 0.03286 0.0
C726 C 0.13493 0.82718 0.05129 0.0
C727 C 0.13818 0.8563 0.0846 0.0
C728 C 0.08124 0.85588 0.1071 0.0
C729 C 0.07738 0.83079 0.06249 0.0
N730 N 0.10003 0.79181 0.99224 0.0
N731 N 0.11411 0.89885 0.14458 0.0
C732 C 0.10418 0.81573 0.03571 0.0
C733 C 0.11134 0.87041 0.11413 0.0
N734 N 0.16144 0.81102 0.03356 0.0
N735 N 0.05575 0.86593 0.14195 0.0
H736 H 0.13571 0.91002 0.15181 0.0
H737 H 0.09485 0.91223 0.15967 0.0
H738 H 0.03359 0.85549 0.13706 0.0
H739 H 0.05719 0.8823 0.17955 0.0
H740 H 0.16105 0.78859 1.01324 0.0
H741 H 0.18406 0.81911 0.04491 0.0
H742 H 0.11828 0.78195 0.96515 0.0
H743 H 0.07776 0.78295 0.98076 0.0
C744 C 0.13823 0.9331 0.48641 0.0
C745 C 0.17115 0.92914 0.49444 0.0
C746 C 0.16397 0.8723 0.50692 0.0
C747 C 0.13138 0.87611 0.49234 0.0
N748 N 0.0885 0.90923 0.4561 0.0
N749 N 0.2164 0.89538 0.50402 0.0
C750 C 0.11881 0.90631 0.47843 0.0
C751 C 0.18435 0.8988 0.5026 0.0
N752 N 0.12562 0.96269 0.48769 0.0
N753 N 0.1752 0.84372 0.52688 0.0
H754 H 0.23169 0.91456 0.50216 0.0
H755 H 0.22775 0.87364 0.50282 0.0
H756 H 0.16107 0.82371 0.52964 0.0
H757 H 0.19796 0.84031 0.54478 0.0
H758 H 0.10144 0.96718 0.48795 0.0
H759 H 0.13945 0.98267 0.49507 0.0
H760 H 0.07897 0.93034 0.4394 0.0
H761 H 0.07379 0.88992 0.44836 0.0
C762 C 0.07526 0.12478 0.45857 0.0
C763 C 0.07655 0.15767 0.46832 0.0
C764 C 0.13435 0.15474 0.47443 0.0
C765 C 0.13289 0.12241 0.45692 0.0
N766 N 0.10211 0.07841 0.41886 0.0
N767 N 0.10712 0.20502 0.47801 0.0
C768 C 0.10331 0.10803 0.44464 0.0
C769 C 0.10608 0.17301 0.47427 0.0
N770 N 0.04711 0.10951 0.46474 0.0
N771 N 0.16236 0.16763 0.49382 0.0
H772 H 0.08681 0.21884 0.48024 0.0
H773 H 0.12797 0.21787 0.47488 0.0
H774 H 0.18356 0.15512 0.49415 0.0
H775 H 0.16419 0.19005 0.51389 0.0
H776 H 0.04504 0.0851 0.46389 0.0
H777 H 0.02638 0.12118 0.47795 0.0
H778 H 0.08118 0.06782 0.40371 0.0
H779 H 0.12236 0.06572 0.40652 0.0
C780 C 0.83641 0.10543 0.568 0.0
C781 C 0.82465 0.08556 0.51858 0.0
C782 C 0.85406 0.11504 0.4361 0.0
C783 C 0.86457 0.13591 0.48535 0.0
N784 N 0.86158 0.15479 0.59593 0.0
N785 N 0.81709 0.07409 0.40513 0.0
C786 C 0.85439 0.13226 0.55074 0.0
C787 C 0.83202 0.09111 0.45234 0.0
N788 N 0.83064 0.09812 0.63159 0.0
N789 N 0.86582 0.11759 0.37447 0.0
H790 H 0.80106 0.05632 0.41605 0.0
H791 H 0.81879 0.07901 0.35564 0.0
H792 H 0.88111 0.13559 0.36064 0.0
H793 H 0.86183 0.101 0.3381 0.0
H794 H 0.84101 0.10971 0.67078 0.0
H795 H 0.81726 0.07862 0.64511 0.0
H796 H 0.85252 0.15505 0.64295 0.0
H797 H 0.87455 0.17491 0.58479 0.0
C798 C 0.93795 0.89007 0.5171 0.0
C799 C 0.9343 0.85751 0.52891 0.0
C800 C 0.87714 0.86519 0.54156 0.0
C801 C 0.88044 0.89707 0.52171 0.0
N802 N 0.91361 0.93893 0.48224 0.0
N803 N 0.90048 0.81296 0.54496 0.0
C804 C 0.91082 0.90931 0.50744 0.0
C805 C 0.90389 0.84477 0.5396 0.0
N806 N 0.96764 0.90248 0.5158 0.0
N807 N 0.84874 0.85466 0.56414 0.0
H808 H 0.91967 0.79755 0.54452 0.0
H809 H 0.87865 0.80174 0.54536 0.0
H810 H 0.82864 0.86883 0.56647 0.0
H811 H 0.84571 0.83268 0.58553 0.0
H812 H 0.97219 0.9265 0.51323 0.0
H813 H 0.98775 0.88874 0.52366 0.0
H814 H 0.93475 0.94805 0.46478 0.0
H815 H 0.89421 0.95349 0.47337 0.0
C816 C 0.63986 0.56462 0.52174 0.0
C817 C 0.67048 0.56447 0.54934 0.0
C818 C 0.66538 0.62049 0.57669 0.0
C819 C 0.63364 0.61996 0.55417 0.0
N820 N 0.58981 0.59184 0.50684 0.0
N821 N 0.71248 0.59062 0.60538 0.0
C822 C 0.62065 0.59208 0.52687 0.0
C823 C 0.68338 0.59213 0.57682 0.0
N824 N 0.62944 0.53816 0.49071 0.0
N825 N 0.67833 0.64822 0.59717 0.0
H826 H 0.72654 0.57047 0.60288 0.0
H827 H 0.72222 0.60858 0.63331 0.0
H828 H 0.66536 0.66904 0.60087 0.0
H829 H 0.7022 0.65113 0.60758 0.0
H830 H 0.60834 0.53668 0.46497 0.0
H831 H 0.64329 0.51791 0.48695 0.0
H832 H 0.57782 0.57178 0.49186 0.0
H833 H 0.57529 0.61166 0.50828 0.0
C834 C 0.40816 0.6418 0.63063 0.0
C835 C 0.38181 0.64221 0.58768 0.0
C836 C 0.41337 0.67057 0.50607 0.0
C837 C 0.44002 0.66887 0.5477 0.0
N838 N 0.46216 0.65859 0.65297 0.0
N839 N 0.35696 0.66231 0.49077 0.0
C840 C 0.43704 0.65649 0.61142 0.0
C841 C 0.38367 0.65857 0.52749 0.0
N842 N 0.4058 0.62615 0.68849 0.0
N843 N 0.41706 0.68255 0.44491 0.0
H844 H 0.33505 0.65356 0.50503 0.0
H845 H 0.35577 0.67594 0.44883 0.0
H846 H 0.43831 0.69234 0.42933 0.0
H847 H 0.39985 0.68172 0.40877 0.0
H848 H 0.42473 0.62187 0.71959 0.0
H849 H 0.38461 0.61647 0.70473 0.0
H850 H 0.46135 0.65244 0.70191 0.0
H851 H 0.48359 0.66859 0.6391 0.0
C852 C 0.36593 0.43971 0.60439 0.0
C853 C 0.33267 0.43967 0.59941 0.0
C854 C 0.33312 0.382 0.59604 0.0
C855 C 0.36608 0.38231 0.6094 0.0
N856 N 0.41245 0.41168 0.64037 0.0
N857 N 0.28374 0.41126 0.59848 0.0
C858 C 0.38203 0.41132 0.61794 0.0
C859 C 0.31594 0.4109 0.59721 0.0
N860 N 0.38203 0.46715 0.59542 0.0
N861 N 0.31849 0.35447 0.58002 0.0
H862 H 0.27076 0.43215 0.59818 0.0
H863 H 0.27013 0.39107 0.60398 0.0
H864 H 0.33023 0.33289 0.57915 0.0
H865 H 0.29529 0.35338 0.56324 0.0
H866 H 0.40656 0.46832 0.59297 0.0
H867 H 0.37058 0.48815 0.58347 0.0
H868 H 0.42429 0.43228 0.6528 0.0
H869 H 0.42468 0.39121 0.65293 0.0
C870 C 0.59021 0.32137 0.56347 0.0
C871 C 0.56309 0.33838 0.58338 0.0
C872 C 0.59585 0.38381 0.6096 0.0
C873 C 0.62246 0.36825 0.5827 0.0
N874 N 0.64383 0.3241 0.52305 0.0
N875 N 0.5389 0.38776 0.61098 0.0
C876 C 0.6194 0.33748 0.55649 0.0
C877 C 0.56561 0.37026 0.60211 0.0
N878 N 0.58836 0.28966 0.55404 0.0
N879 N 0.59961 0.41117 0.64372 0.0
H880 H 0.51636 0.3786 0.60318 0.0
H881 H 0.53921 0.41195 0.61907 0.0
H882 H 0.62167 0.42131 0.6521 0.0
H883 H 0.58133 0.42196 0.66926 0.0
H884 H 0.60804 0.2755 0.54567 0.0
H885 H 0.56747 0.27712 0.5603 0.0
H886 H 0.64166 0.30312 0.49723 0.0
H887 H 0.66551 0.3352 0.51656 0.0
C888 C 0.65128 0.42098 0.09322 0.0
C889 C 0.66912 0.43413 0.04222 0.0
C890 C 0.65874 0.38677 0.97628 0.0
C891 C 0.63665 0.37621 0.0234 0.0
N892 N 0.60787 0.38762 0.12289 0.0
N893 N 0.68782 0.43087 0.93193 0.0
C894 C 0.63192 0.39443 0.08104 0.0
C895 C 0.67251 0.41728 0.98287 0.0
N896 N 0.6533 0.43378 0.15404 0.0
N897 N 0.66742 0.36732 0.92646 0.0
H898 H 0.69839 0.4528 0.93565 0.0
H899 H 0.68811 0.42143 0.88516 0.0
H900 H 0.65843 0.34466 0.92097 0.0
H901 H 0.68566 0.37248 0.89433 0.0
H902 H 0.64324 0.42344 0.195 0.0
H903 H 0.66805 0.45276 0.1645 0.0
H904 H 0.60144 0.40232 0.16125 0.0
H905 H 0.59223 0.36914 0.11608 0.0
C906 C 0.61734 0.68125 0.99056 0.0
C907 C 0.58879 0.66638 1.00856 0.0
C908 C 0.61667 0.61626 1.02201 0.0
C909 C 0.64556 0.63124 1.00552 0.0
N910 N 0.67458 0.67866 0.98323 0.0
N911 N 0.56154 0.622 0.05263 0.0
C912 C 0.64626 0.66403 0.99267 0.0
C913 C 0.58872 0.63459 0.02843 0.0
N914 N 0.61629 0.71162 0.96919 0.0
N915 N 0.61574 0.58428 0.02862 0.0
H916 H 0.54072 0.63502 0.05656 0.0
H917 H 0.5602 0.59983 0.07385 0.0
H918 H 0.6355 0.57002 1.022 0.0
H919 H 0.59505 0.5715 0.03487 0.0
H920 H 0.63528 0.7231 0.94778 0.0
H921 H 0.5956 0.72497 0.9709 0.0
H922 H 0.67712 0.70295 0.97993 0.0
H923 H 0.69601 0.6665 0.98229 0.0
C924 C 0.35662 0.58828 0.08707 0.0
C925 C 0.33847 0.57166 0.041 0.0
C926 C 0.36628 0.59799 0.95188 0.0
C927 C 0.38238 0.61677 0.9982 0.0
N928 N 0.38779 0.63454 0.10961 0.0
N929 N 0.32125 0.56445 0.93044 0.0
C930 C 0.37625 0.61317 0.06589 0.0
C931 C 0.34202 0.57748 0.97348 0.0
N932 N 0.35477 0.58026 0.15128 0.0
N933 N 0.37455 0.59931 0.88771 0.0
H934 H 0.30292 0.54989 0.94532 0.0
H935 H 0.3205 0.57019 0.88119 0.0
H936 H 0.3921 0.61427 0.8703 0.0
H937 H 0.36578 0.5839 0.85269 0.0
H938 H 0.36973 0.58932 0.1869 0.0
H939 H 0.33993 0.56244 0.16792 0.0
H940 H 0.38146 0.63489 0.15854 0.0
H941 H 0.40127 0.65391 0.09605 0.0
C942 C 0.44033 0.39256 0.08565 0.0
C943 C 0.4449 0.36282 0.05578 0.0
C944 C 0.3889 0.3644 1.02248 0.0
C945 C 0.38657 0.3964 0.04261 0.0
N946 N 0.41553 0.44317 0.07311 0.0
N947 N 0.42398 0.3245 0.97993 0.0
C948 C 0.41407 0.41121 0.06756 0.0
C949 C 0.41931 0.34973 1.01961 0.0
N950 N 0.46018 0.40256 0.13368 0.0
N951 N 0.3624 0.34742 1.00886 0.0
H952 H 0.44613 0.31473 0.97225 0.0
H953 H 0.40652 0.31591 0.94884 0.0
H954 H 0.33967 0.35645 1.01407 0.0
H955 H 0.36309 0.32333 0.99935 0.0
H956 H 0.45635 0.42338 0.15938 0.0
H957 H 0.47772 0.38811 0.15331 0.0
H958 H 0.43608 0.45478 0.08747 0.0
H959 H 0.39762 0.45794 0.05605 0.0
C960 C 0.9832 0.27515 0.26488 0.0
C961 C 0.9949 0.26443 0.32608 0.0
C962 C 0.04104 0.24253 0.27068 0.0
C963 C 0.03055 0.25427 0.20911 0.0
N964 N 0.99525 0.29018 0.15359 0.0
N965 N 0.04255 0.25254 0.38609 0.0
C966 C 1.00261 0.27309 0.2078 0.0
C967 C 0.02632 0.2531 0.32877 0.0
N968 N 0.95347 0.2875 0.2614 0.0
N969 N 0.06355 0.21953 0.27465 0.0
H970 H 0.03387 0.26254 0.4287 0.0
H971 H 0.0664 0.24649 0.38836 0.0
H972 H 0.07243 0.20765 0.23444 0.0
H973 H 0.07016 0.2092 0.31865 0.0
H974 H 0.94184 0.29191 0.21761 0.0
H975 H 0.94013 0.29231 0.30291 0.0
H976 H 0.97671 0.30629 0.1519 0.0
H977 H 0.00967 0.291 0.11265 0.0
C978 C 0.73743 0.03266 0.34767 0.0
C979 C 0.74165 1.00024 0.36094 0.0
C980 C 0.74493 0.99035 0.24289 0.0
C981 C 0.74852 0.02313 0.2319 0.0
N982 N 0.74539 0.07603 0.27243 0.0
N983 N 0.74523 0.94737 0.32157 0.0
C984 C 0.7433 0.04447 0.28385 0.0
C985 C 0.74341 0.97875 0.3083 0.0
N986 N 0.72793 0.05198 0.3968 0.0
N987 N 0.74352 0.97048 0.19081 0.0
H988 H 0.74198 0.93872 0.3686 0.0
H989 H 0.75034 0.93023 0.28698 0.0
H990 H 0.74371 0.97879 0.14306 0.0
H991 H 0.73929 0.94645 0.19453 0.0
H992 H 0.72289 0.07578 0.39096 0.0
H993 H 0.72165 0.04284 0.44196 0.0
H994 H 0.7459 0.09293 0.30909 0.0
H995 H 0.74766 0.08518 0.22554 0.0
C996 C 0.03005 0.76059 0.2599 0.0
C997 C 0.9988 0.75751 0.23438 0.0
C998 C 0.98199 0.73642 0.34099 0.0
C999 C 0.01363 0.73761 0.36459 0.0
N1000 N 0.0687 0.74255 0.33898 0.0
N1001 N 0.9465 0.73605 0.24795 0.0
C1002 C 0.03791 0.7472 0.32166 0.0
C1003 C 0.97536 0.74305 0.27386 0.0
N1004 N 0.05229 0.77711 0.22631 0.0
N1005 N 0.95784 0.73098 0.38347 0.0
H1006 H 0.94041 0.74091 0.19991 0.0
H1007 H 0.92964 0.72273 0.27231 0.0
H1008 H 0.96138 0.72664 0.43285 0.0
H1009 H 0.93413 0.73361 0.37103 0.0
H1010 H 0.074 0.78347 0.24623 0.0
H1011 H 0.04831 0.78652 0.18039 0.0
H1012 H 0.08754 0.74625 0.30741 0.0
H1013 H 0.07512 0.73178 0.38265 0.0
C1014 C 0.27342 0.03273 0.27327 0.0
C1015 C 0.27312 0.01492 0.33188 0.0
C1016 C 0.25053 0.97039 0.27102 0.0
C1017 C 0.25333 0.9871 0.21083 0.0
N1018 N 0.27358 0.03281 0.1551 0.0
N1019 N 0.26975 0.96376 0.3815 0.0
C1020 C 0.26688 0.01776 0.21208 0.0
C1021 C 0.26427 0.98283 0.32913 0.0
N1022 N 0.27864 0.0644 0.27621 0.0
N1023 N 0.23406 0.94287 0.27391 0.0
H1024 H 0.27957 0.97193 0.42492 0.0
H1025 H 0.26695 0.93943 0.37993 0.0
H1026 H 0.22369 0.93234 0.23373 0.0
H1027 H 0.2283 0.93186 0.31757 0.0
H1028 H 0.2757 0.07938 0.23657 0.0
H1029 H 0.28295 0.07625 0.3198 0.0
H1030 H 0.28635 0.05369 0.15291 0.0
H1031 H 0.26912 0.0231 0.10954 0.0
C1032 C 0.99874 0.72326 0.82978 0.0
C1033 C 0.97811 0.74562 0.85875 0.0
C1034 C 0.96686 0.76734 0.75018 0.0
C1035 C 0.99056 0.7484 0.72212 0.0
N1036 N 0.0303 0.7085 0.73532 0.0
N1037 N 0.94912 0.79425 0.84679 0.0
C1038 C 0.00678 0.72622 0.76203 0.0
C1039 C 0.96416 0.76923 0.81883 0.0
N1040 N 0.01007 0.69899 0.86648 0.0
N1041 N 0.9466 0.7834 0.71058 0.0
H1042 H 0.94819 0.79733 0.89706 0.0
H1043 H 0.94091 0.8135 0.82028 0.0
H1044 H 0.947 0.78033 0.66019 0.0
H1045 H 0.9273 0.79614 0.72785 0.0
H1046 H 0.0227 0.68014 0.8472 0.0
H1047 H 0.00537 0.69708 0.91615 0.0
H1048 H 0.04575 0.69467 0.76254 0.0
H1049 H 0.03462 0.70847 0.68536 0.0
C1050 C 0.27608 0.02425 0.74949 0.0
C1051 C 0.2725 1.00148 0.6994 0.0
C1052 C 0.27669 0.96059 0.78296 0.0
C1053 C 0.27079 0.98328 0.83283 0.0
N1054 N 0.26559 0.0381 0.86189 0.0
N1055 N 0.27007 0.94704 0.66884 0.0
C1056 C 0.27138 0.01564 0.81601 0.0
C1057 C 0.27371 0.96929 0.7161 0.0
N1058 N 0.28412 0.05417 0.73286 0.0
N1059 N 0.2849 0.93062 0.79989 0.0
H1060 H 0.26888 0.95279 0.61953 0.0
H1061 H 0.26672 0.92327 0.67897 0.0
H1062 H 0.28846 0.92404 0.84833 0.0
H1063 H 0.29145 0.91356 0.76606 0.0
H1064 H 0.28897 0.07173 0.7668 0.0
H1065 H 0.29001 0.05975 0.68502 0.0
H1066 H 0.26193 0.0617 0.85037 0.0
H1067 H 0.26278 0.033 0.91104 0.0
C1068 C 0.0096 0.20994 0.79959 0.0
C1069 C 0.01711 0.23817 0.83215 0.0
C1070 C 0.01056 0.26584 0.72685 0.0
C1071 C 0.00862 0.23629 0.6937 0.0
N1072 N 0.01879 0.18032 0.70217 0.0
N1073 N 0.02868 0.29343 0.82424 0.0
C1074 C 0.01208 0.20843 0.73131 0.0
C1075 C 0.01867 0.26642 0.79513 0.0
N1076 N 1.00063 0.18412 0.83428 0.0
N1077 N 1.0038 0.29308 0.69474 0.0
H1078 H 0.03381 0.29458 0.87387 0.0
H1079 H 0.0335 0.31394 0.79837 0.0
H1080 H 0.998 0.29379 0.64554 0.0
H1081 H 1.00185 0.3147 0.71833 0.0
H1082 H 0.99308 0.16337 0.81214 0.0
H1083 H 0.99721 0.18511 0.88448 0.0
H1084 H 0.0236 0.15994 0.72866 0.0
H1085 H 0.02342 0.17835 0.65256 0.0
C1086 C 0.71439 0.02954 0.74822 0.0
C1087 C 0.72083 0.99756 0.73454 0.0
C1088 C 0.72808 0.98701 0.8516 0.0
C1089 C 0.72587 0.01978 0.86439 0.0
N1090 N 0.70749 0.07058 0.82961 0.0
N1091 N 0.72152 0.94449 0.7732 0.0
C1092 C 0.7155 0.04038 0.81405 0.0
C1093 C 0.72313 0.97588 0.78678 0.0
N1094 N 0.70917 0.04979 0.69795 0.0
N1095 N 0.73741 0.96688 0.89973 0.0
H1096 H 0.71764 0.93638 0.72587 0.0
H1097 H 0.72089 0.92703 0.80864 0.0
H1098 H 0.73982 0.97376 0.94809 0.0
H1099 H 0.74385 0.94358 0.89143 0.0
H1100 H 0.70896 0.07417 0.70257 0.0
H1101 H 0.70489 0.04169 0.65099 0.0
H1102 H 0.69745 0.08645 0.79703 0.0
H1103 H 0.70883 0.07899 0.87721 0.0
C1104 C 0.48031 0.76848 0.75775 0.0
C1105 C 0.49407 0.75809 0.81722 0.0
C1106 C 0.54145 0.74262 0.75757 0.0
C1107 C 0.52906 0.75481 0.69786 0.0
N1108 N 0.48929 0.78825 0.64857 0.0
N1109 N 0.54334 0.74994 0.87389 0.0
C1110 C 0.4992 0.77047 0.70002 0.0
C1111 C 0.52653 0.75034 0.81731 0.0
N1112 N 0.44906 0.77633 0.75637 0.0
N1113 N 0.56565 0.72132 0.75815 0.0
H1114 H 0.53388 0.7575 0.91794 0.0
H1115 H 0.56768 0.74613 0.87476 0.0
H1116 H 0.57457 0.71072 0.71642 0.0
H1117 H 0.57348 0.71056 0.80087 0.0
H1118 H 0.43661 0.7803 0.71335 0.0
H1119 H 0.43543 0.77753 0.7986 0.0
H1120 H 0.46889 0.80197 0.64979 0.0
H1121 H 0.5032 0.79234 0.60774 0.0
C1122 C 0.2451 0.48539 0.83632 0.0
C1123 C 0.24069 0.50218 0.89541 0.0
C1124 C 0.2297 0.55028 0.83174 0.0
C1125 C 0.23798 0.53441 0.77302 0.0
N1126 N 0.24114 0.48413 0.71829 0.0
N1127 N 0.21938 0.54753 0.94853 0.0
C1128 C 0.24158 0.50103 0.7748 0.0
C1129 C 0.22967 0.53366 0.89258 0.0
N1130 N 0.25367 0.45447 0.83946 0.0
N1131 N 0.22253 0.5816 0.82897 0.0
H1132 H 0.21773 0.53494 0.99186 0.0
H1133 H 0.20984 0.57004 0.95124 0.0
H1134 H 0.21962 0.59341 0.78481 0.0
H1135 H 0.21977 0.59597 0.86953 0.0
H1136 H 0.26205 0.44159 0.8 0.0
H1137 H 0.25289 0.44192 0.883 0.0
H1138 H 0.24187 0.45968 0.71642 0.0
H1139 H 0.23624 0.49409 0.67323 0.0
C1140 C 0.51616 0.25744 0.81486 0.0
C1141 C 0.4949 0.26095 0.86792 0.0
C1142 C 0.45053 0.24687 0.79532 0.0
C1143 C 0.47176 0.24319 0.74221 0.0
N1144 N 0.5252 0.24093 0.70281 0.0
N1145 N 0.44316 0.25318 0.91221 0.0
C1146 C 0.50473 0.24744 0.75243 0.0
C1147 C 0.46242 0.25399 0.85899 0.0
N1148 N 0.54739 0.26401 0.82427 0.0
N1149 N 0.41879 0.24431 0.78438 0.0
H1150 H 0.45151 0.25738 0.95924 0.0
H1151 H 0.4198 0.24571 0.91109 0.0
H1152 H 0.40932 0.23823 0.73922 0.0
H1153 H 0.40165 0.25021 0.81848 0.0
H1154 H 0.5637 0.2665 0.78687 0.0
H1155 H 0.55698 0.2675 0.87042 0.0
H1156 H 0.54963 0.24038 0.70788 0.0
H1157 H 0.51766 0.23454 0.6563 0.0
C1158 C 0.77189 0.44962 0.79544 0.0
C1159 C 0.76531 0.46878 0.74044 0.0
C1160 C 0.76447 0.51495 0.81297 0.0
C1161 C 0.76273 0.49479 0.86765 0.0
N1162 N 0.76794 0.44298 0.91269 0.0
N1163 N 0.7576 0.52092 0.69644 0.0
C1164 C 0.76812 0.46215 0.85946 0.0
C1165 C 0.76311 0.50196 0.74881 0.0
N1166 N 0.78107 0.41918 0.78574 0.0
N1167 N 0.76741 0.54654 0.82288 0.0
H1168 H 0.75854 0.51289 0.64867 0.0
H1169 H 0.75118 0.54449 0.70057 0.0
H1170 H 0.76991 0.55594 0.86955 0.0
H1171 H 0.77101 0.5627 0.78559 0.0
H1172 H 0.78835 0.40424 0.823 0.0
H1173 H 0.78415 0.40996 0.73904 0.0
H1174 H 0.7676 0.41853 0.91001 0.0
H1175 H 0.7671 0.4519 0.95995 0.0
C1176 C 0.48603 0.2326 0.26092 0.0
C1177 C 0.51045 0.25368 0.24234 0.0
C1178 C 0.52158 0.26333 0.35811 0.0
C1179 C 0.4942 0.24709 0.37666 0.0
N1180 N 0.44849 0.21739 0.345 0.0
N1181 N 0.54375 0.29701 0.2762 0.0
C1182 C 0.47591 0.23186 0.3277 0.0
C1183 C 0.52603 0.2713 0.29192 0.0
N1184 N 0.47306 0.21288 0.21589 0.0
N1185 N 0.54313 0.2717 0.40424 0.0
H1186 H 0.54498 0.30583 0.22887 0.0
H1187 H 0.55365 0.31177 0.31124 0.0
H1188 H 0.54082 0.26421 0.45236 0.0
H1189 H 0.56461 0.28231 0.39297 0.0
H1190 H 0.45729 0.19505 0.22792 0.0
H1191 H 0.47975 0.21302 0.16713 0.0
H1192 H 0.43209 0.20904 0.31134 0.0
H1193 H 0.44185 0.21493 0.39363 0.0
C1194 C 0.77615 0.51742 0.35313 0.0
C1195 C 0.77462 0.48538 0.37083 0.0
C1196 C 0.77542 0.46997 0.25525 0.0
C1197 C 0.7741 0.50207 0.23736 0.0
N1198 N 0.78606 0.55549 0.26745 0.0
N1199 N 0.78739 0.43242 0.34089 0.0
C1200 C 0.77908 0.52548 0.28601 0.0
C1201 C 0.77936 0.46211 0.32222 0.0
N1202 N 0.77273 0.54005 0.39967 0.0
N1203 N 0.77079 0.44707 0.20969 0.0
H1204 H 0.79245 0.42744 0.38947 0.0
H1205 H 0.79287 0.41448 0.30826 0.0
H1206 H 0.76846 0.45192 0.16023 0.0
H1207 H 0.76768 0.42347 0.22158 0.0
H1208 H 0.76956 0.5638 0.38902 0.0
H1209 H 0.77199 0.53463 0.44914 0.0
H1210 H 0.79206 0.57323 0.30017 0.0
H1211 H 0.78894 0.56158 0.21859 0.0
C1212 C 0.53361 0.77389 0.27437 0.0
C1213 C 0.51198 0.76415 0.32301 0.0
C1214 C 0.472 0.75856 0.23774 0.0
C1215 C 0.49593 0.75908 0.1891 0.0
N1216 N 0.55036 0.7687 0.16195 0.0
N1217 N 0.45931 0.7486 0.35107 0.0
C1218 C 0.52693 0.7679 0.20734 0.0
C1219 C 0.48052 0.75761 0.30486 0.0
N1220 N 0.5605 0.78893 0.29292 0.0
N1221 N 0.44111 0.75899 0.21928 0.0
H1222 H 0.46474 0.74887 0.40063 0.0
H1223 H 0.43705 0.73969 0.33994 0.0
H1224 H 0.43478 0.76176 0.17069 0.0
H1225 H 0.42241 0.76061 0.25196 0.0
H1226 H 0.57673 0.79822 0.26016 0.0
H1227 H 0.56392 0.79559 0.34126 0.0
H1228 H 0.57412 0.77131 0.17398 0.0
H1229 H 0.54612 0.76519 0.11251 0.0
C1230 C 0.22164 0.52734 0.2888 0.0
C1231 C 0.22601 0.49525 0.27241 0.0
C1232 C 0.23106 0.4823 0.38945 0.0
C1233 C 0.23055 0.51475 0.40492 0.0
N1234 N 0.2139 0.56651 0.37397 0.0
N1235 N 0.22307 0.4416 0.3075 0.0
C1236 C 0.22185 0.53668 0.3558 0.0
C1237 C 0.22642 0.47258 0.32335 0.0
N1238 N 0.21897 0.54902 0.24032 0.0
N1239 N 0.23791 0.46103 0.43715 0.0
H1240 H 0.219 0.43453 0.25955 0.0
H1241 H 0.22123 0.42362 0.34162 0.0
H1242 H 0.23966 0.46756 0.48598 0.0
H1243 H 0.24266 0.43738 0.42832 0.0
H1244 H 0.22024 0.57321 0.24775 0.0
H1245 H 0.21563 0.54233 0.1921 0.0
H1246 H 0.20557 0.58359 0.34195 0.0
H1247 H 0.21258 0.57288 0.42292 0.0
loop_
_geom_bond_atom_site_label_1
_geom_bond_atom_site_label_2
_geom_bond_distance
_geom_bond_site_symmetry_2
_ccdc_geom_bond_type
C0 C1 1.351 . S
C0 N3 1.368 . S
C0 H5 0.931 . S
C1 C0 1.351 . S
C1 N2 1.373 1_556 S
C1 H29 0.930 . S
N2 C1 1.373 1_554 S
N2 C4 1.340 . S
N3 C0 1.368 . S
N3 C4 1.321 1_556 S
N3 Co6 2.135 1_556 S
C4 N2 1.340 . S
C4 N3 1.321 1_554 S
C4 H28 0.930 . S
H5 C0 0.931 . S
Co6 N3 2.135 1_554 S
Co6 N9 2.121 1_455 S
Co6 O14 2.055 1_454 S
Co6 O17 2.039 . S
Co6 N20 2.140 . S
C7 O8 1.227 . S
C7 O17 1.265 . S
O8 C7 1.227 . S
N9 Co6 2.121 1_655 S
N9 C11 1.375 . S
N9 C12 1.313 1_554 S
C10 C11 1.338 . S
C10 N13 1.371 1_554 S
C10 H30 0.930 . S
C11 N9 1.375 . S
C11 C10 1.338 . S
C11 H15 0.931 . S
C12 N9 1.313 1_556 S
C12 N13 1.346 . S
C12 H16 0.930 . S
N13 C10 1.371 1_556 S
N13 C12 1.346 . S
O14 Co6 2.055 1_656 S
O14 C18 1.253 1_655 S
H15 C11 0.931 . S
H16 C12 0.930 . S
O17 Co6 2.039 . S
O17 C7 1.265 . S
C18 O14 1.253 1_455 S
C18 O19 1.227 . S
O19 C18 1.227 . S
N20 Co6 2.140 . S
N20 C23 1.346 . S
N20 C24 1.345 1_554 S
C21 C22 1.387 . S
C21 C25 1.391 1_554 S
C22 C21 1.387 . S
C22 C23 1.369 . S
C22 H31 0.929 . S
C23 N20 1.346 . S
C23 C22 1.369 . S
C23 H26 0.928 . S
C24 N20 1.345 1_556 S
C24 C25 1.371 . S
C24 H27 0.931 . S
C25 C21 1.391 1_556 S
C25 C24 1.371 . S
C25 H32 0.930 . S
H26 C23 0.928 . S
H27 C24 0.931 . S
H28 C4 0.930 . S
H29 C1 0.930 . S
H30 C10 0.930 . S
H31 C22 0.929 . S
H32 C25 0.930 . S
C33 C34 1.351 . S
C33 N36 1.368 . S
C33 H38 0.931 . S
C34 C33 1.351 . S
C34 N35 1.373 1_556 S
C34 H62 0.930 . S
N35 C34 1.373 1_554 S
N35 C37 1.340 . S
N36 C33 1.368 . S
N36 C37 1.321 1_556 S
N36 Co39 2.135 1_556 S
C37 N35 1.340 . S
C37 N36 1.321 1_554 S
C37 H61 0.930 . S
H38 C33 0.931 . S
Co39 N36 2.135 1_554 S
Co39 N42 2.121 1_545 S
Co39 O47 2.055 1_544 S
Co39 O50 2.039 . S
Co39 N53 2.140 . S
C40 O41 1.227 . S
C40 O50 1.265 . S
O41 C40 1.227 . S
N42 Co39 2.121 1_565 S
N42 C44 1.375 . S
N42 C45 1.313 1_554 S
C43 C44 1.338 . S
C43 N46 1.371 1_554 S
C43 H63 0.930 . S
C44 N42 1.375 . S
C44 C43 1.338 . S
C44 H48 0.931 . S
C45 N42 1.313 1_556 S
C45 N46 1.346 . S
C45 H49 0.930 . S
N46 C43 1.371 1_556 S
N46 C45 1.346 . S
O47 Co39 2.055 1_566 S
O47 C51 1.253 1_565 S
H48 C44 0.931 . S
H49 C45 0.930 . S
O50 Co39 2.039 . S
O50 C40 1.265 . S
C51 O47 1.253 1_545 S
C51 O52 1.227 . S
O52 C51 1.227 . S
N53 Co39 2.140 . S
N53 C56 1.346 . S
N53 C57 1.345 1_554 S
C54 C55 1.387 . S
C54 C58 1.391 1_554 S
C55 C54 1.387 . S
C55 C56 1.369 . S
C55 H64 0.929 . S
C56 N53 1.346 . S
C56 C55 1.369 . S
C56 H59 0.928 . S
C57 N53 1.345 1_556 S
C57 C58 1.371 . S
C57 H60 0.931 . S
C58 C54 1.391 1_556 S
C58 C57 1.371 . S
C58 H65 0.930 . S
H59 C56 0.928 . S
H60 C57 0.931 . S
H61 C37 0.930 . S
H62 C34 0.930 . S
H63 C43 0.930 . S
H64 C55 0.929 . S
H65 C58 0.930 . S
C66 C67 1.351 . S
C66 N69 1.368 . S
C66 H71 0.931 . S
C67 C66 1.351 . S
C67 N68 1.373 1_556 S
C67 H95 0.930 . S
N68 C67 1.373 1_554 S
N68 C70 1.340 . S
N69 C66 1.368 . S
N69 C70 1.321 1_556 S
N69 Co72 2.135 1_556 S
C70 N68 1.340 . S
C70 N69 1.321 1_554 S
C70 H94 0.930 . S
H71 C66 0.931 . S
Co72 N69 2.135 1_554 S
Co72 N75 2.121 1_655 S
Co72 O80 2.055 1_654 S
Co72 O83 2.039 . S
Co72 N86 2.140 . S
C73 O74 1.227 . S
C73 O83 1.265 . S
O74 C73 1.227 . S
N75 Co72 2.121 1_455 S
N75 C77 1.375 . S
N75 C78 1.313 1_554 S
C76 C77 1.338 . S
C76 N79 1.371 1_554 S
C76 H96 0.930 . S
C77 N75 1.375 . S
C77 C76 1.338 . S
C77 H81 0.931 . S
C78 N75 1.313 1_556 S
C78 N79 1.346 . S
C78 H82 0.930 . S
N79 C76 1.371 1_556 S
N79 C78 1.346 . S
O80 Co72 2.055 1_456 S
O80 C84 1.253 1_455 S
H81 C77 0.931 . S
H82 C78 0.930 . S
O83 Co72 2.039 . S
O83 C73 1.265 . S
C84 O80 1.253 1_655 S
C84 O85 1.227 . S
O85 C84 1.227 . S
N86 Co72 2.140 . S
N86 C89 1.346 . S
N86 C90 1.345 1_554 S
C87 C88 1.387 . S
C87 C91 1.391 1_554 S
C88 C87 1.387 . S
C88 C89 1.369 . S
C88 H97 0.929 . S
C89 N86 1.346 . S
C89 C88 1.369 . S
C89 H92 0.928 . S
C90 N86 1.345 1_556 S
C90 C91 1.371 . S
C90 H93 0.931 . S
C91 C87 1.391 1_556 S
C91 C90 1.371 . S
C91 H98 0.930 . S
H92 C89 0.928 . S
H93 C90 0.931 . S
H94 C70 0.930 . S
H95 C67 0.930 . S
H96 C76 0.930 . S
H97 C88 0.929 . S
H98 C91 0.930 . S
C99 C100 1.351 . S
C99 N102 1.368 . S
C99 H104 0.931 . S
C100 C99 1.351 . S
C100 N101 1.373 1_556 S
C100 H128 0.930 . S
N101 C100 1.373 1_554 S
N101 C103 1.340 . S
N102 C99 1.368 . S
N102 C103 1.321 1_556 S
N102 Co105 2.135 1_556 S
C103 N101 1.340 . S
C103 N102 1.321 1_554 S
C103 H127 0.930 . S
H104 C99 0.931 . S
Co105 N102 2.135 1_554 S
Co105 N108 2.121 1_565 S
Co105 O113 2.055 1_564 S
Co105 O116 2.039 . S
Co105 N119 2.140 . S
C106 O107 1.227 . S
C106 O116 1.265 . S
O107 C106 1.227 . S
N108 Co105 2.121 1_545 S
N108 C110 1.375 . S
N108 C111 1.313 1_554 S
C109 C110 1.338 . S
C109 N112 1.371 1_554 S
C109 H129 0.930 . S
C110 N108 1.375 . S
C110 C109 1.338 . S
C110 H114 0.931 . S
C111 N108 1.313 1_556 S
C111 N112 1.346 . S
C111 H115 0.930 . S
N112 C109 1.371 1_556 S
N112 C111 1.346 . S
O113 Co105 2.055 1_546 S
O113 C117 1.253 1_545 S
H114 C110 0.931 . S
H115 C111 0.930 . S
O116 Co105 2.039 . S
O116 C106 1.265 . S
C117 O113 1.253 1_565 S
C117 O118 1.227 . S
O118 C117 1.227 . S
N119 Co105 2.140 . S
N119 C122 1.346 . S
N119 C123 1.345 1_554 S
C120 C121 1.387 . S
C120 C124 1.391 1_554 S
C121 C120 1.387 . S
C121 C122 1.369 . S
C121 H130 0.929 . S
C122 N119 1.346 . S
C122 C121 1.369 . S
C122 H125 0.928 . S
C123 N119 1.345 1_556 S
C123 C124 1.371 . S
C123 H126 0.931 . S
C124 C120 1.391 1_556 S
C124 C123 1.371 . S
C124 H131 0.930 . S
H125 C122 0.928 . S
H126 C123 0.931 . S
H127 C103 0.930 . S
H128 C100 0.930 . S
H129 C109 0.930 . S
H130 C121 0.929 . S
H131 C124 0.930 . S
C132 C133 1.351 . S
C132 N135 1.368 . S
C132 H137 0.931 . S
C133 C132 1.351 . S
C133 N134 1.373 . S
C133 H161 0.930 . S
N134 C133 1.373 . S
N134 C136 1.340 . S
N135 C132 1.368 . S
N135 C136 1.321 . S
N135 Co138 2.135 . S
C136 N134 1.340 . S
C136 N135 1.321 . S
C136 H160 0.930 . S
H137 C132 0.931 . S
Co138 N135 2.135 . S
Co138 N141 2.121 1_455 S
Co138 O146 2.055 1_455 S
Co138 O149 2.039 . S
Co138 N152 2.140 . S
C139 O140 1.227 . S
C139 O149 1.265 . S
O140 C139 1.227 . S
N141 Co138 2.121 1_655 S
N141 C143 1.375 . S
N141 C144 1.313 . S
C142 C143 1.338 . S
C142 N145 1.377 . S
C142 H162 0.930 . S
C143 N141 1.375 . S
C143 C142 1.338 . S
C143 H147 0.931 . S
C144 N141 1.313 . S
C144 N145 1.344 . S
C144 H148 0.930 . S
N145 C142 1.377 . S
N145 C144 1.344 . S
O146 Co138 2.055 1_655 S
O146 C150 1.253 1_655 S
H147 C143 0.931 . S
H148 C144 0.930 . S
O149 Co138 2.039 . S
O149 C139 1.265 . S
C150 O146 1.253 1_455 S
C150 O151 1.227 . S
O151 C150 1.227 . S
N152 Co138 2.140 . S
N152 C155 1.346 . S
N152 C156 1.345 . S
C153 C154 1.387 . S
C153 C157 1.391 . S
C154 C153 1.387 . S
C154 C155 1.369 . S
C154 H163 0.929 . S
C155 N152 1.346 . S
C155 C154 1.369 . S
C155 H158 0.928 . S
C156 N152 1.345 . S
C156 C157 1.371 . S
C156 H159 0.931 . S
C157 C153 1.391 . S
C157 C156 1.371 . S
C157 H164 0.930 . S
H158 C155 0.928 . S
H159 C156 0.931 . S
H160 C136 0.930 . S
H161 C133 0.930 . S
H162 C142 0.930 . S
H163 C154 0.929 . S
H164 C157 0.930 . S
C165 C166 1.351 . S
C165 N168 1.368 . S
C165 H170 0.931 . S
C166 C165 1.351 . S
C166 N167 1.373 . S
C166 H194 0.930 . S
N167 C166 1.373 . S
N167 C169 1.340 . S
N168 C165 1.368 . S
N168 C169 1.321 . S
N168 Co171 2.135 . S
C169 N167 1.340 . S
C169 N168 1.321 . S
C169 H193 0.930 . S
H170 C165 0.931 . S
Co171 N168 2.135 . S
Co171 N174 2.121 1_545 S
Co171 O179 2.055 1_545 S
Co171 O182 2.039 . S
Co171 N185 2.140 . S
C172 O173 1.227 . S
C172 O182 1.265 . S
O173 C172 1.227 . S
N174 Co171 2.121 1_565 S
N174 C176 1.375 . S
N174 C177 1.313 . S
C175 C176 1.338 . S
C175 N178 1.377 . S
C175 H195 0.930 . S
C176 N174 1.375 . S
C176 C175 1.338 . S
C176 H180 0.931 . S
C177 N174 1.313 . S
C177 N178 1.344 . S
C177 H181 0.930 . S
N178 C175 1.377 . S
N178 C177 1.344 . S
O179 Co171 2.055 1_565 S
O179 C183 1.253 1_565 S
H180 C176 0.931 . S
H181 C177 0.930 . S
O182 Co171 2.039 . S
O182 C172 1.265 . S
C183 O179 1.253 1_545 S
C183 O184 1.227 . S
O184 C183 1.227 . S
N185 Co171 2.140 . S
N185 C188 1.346 . S
N185 C189 1.345 . S
C186 C187 1.387 . S
C186 C190 1.391 . S
C187 C186 1.387 . S
C187 C188 1.369 . S
C187 H196 0.929 . S
C188 N185 1.346 . S
C188 C187 1.369 . S
C188 H191 0.928 . S
C189 N185 1.345 . S
C189 C190 1.371 . S
C189 H192 0.931 . S
C190 C186 1.391 . S
C190 C189 1.371 . S
C190 H197 0.930 . S
H191 C188 0.928 . S
H192 C189 0.931 . S
H193 C169 0.930 . S
H194 C166 0.930 . S
H195 C175 0.930 . S
H196 C187 0.929 . S
H197 C190 0.930 . S
C198 C199 1.351 . S
C198 N201 1.368 . S
C198 H203 0.931 . S
C199 C198 1.351 . S
C199 N200 1.373 . S
C199 H227 0.930 . S
N200 C199 1.373 . S
N200 C202 1.340 . S
N201 C198 1.368 . S
N201 C202 1.321 . S
N201 Co204 2.135 . S
C202 N200 1.340 . S
C202 N201 1.321 . S
C202 H226 0.930 . S
H203 C198 0.931 . S
Co204 N201 2.135 . S
Co204 N207 2.121 1_655 S
Co204 O212 2.055 1_655 S
Co204 O215 2.039 . S
Co204 N218 2.140 . S
C205 O206 1.227 . S
C205 O215 1.265 . S
O206 C205 1.227 . S
N207 Co204 2.121 1_455 S
N207 C209 1.375 . S
N207 C210 1.313 . S
C208 C209 1.338 . S
C208 N211 1.377 . S
C208 H228 0.930 . S
C209 N207 1.375 . S
C209 C208 1.338 . S
C209 H213 0.931 . S
C210 N207 1.313 . S
C210 N211 1.344 . S
C210 H214 0.930 . S
N211 C208 1.377 . S
N211 C210 1.344 . S
O212 Co204 2.055 1_455 S
O212 C216 1.253 1_455 S
H213 C209 0.931 . S
H214 C210 0.930 . S
O215 Co204 2.039 . S
O215 C205 1.265 . S
C216 O212 1.253 1_655 S
C216 O217 1.227 . S
O217 C216 1.227 . S
N218 Co204 2.140 . S
N218 C221 1.346 . S
N218 C222 1.345 . S
C219 C220 1.387 . S
C219 C223 1.391 . S
C220 C219 1.387 . S
C220 C221 1.369 . S
C220 H229 0.929 . S
C221 N218 1.346 . S
C221 C220 1.369 . S
C221 H224 0.928 . S
C222 N218 1.345 . S
C222 C223 1.371 . S
C222 H225 0.931 . S
C223 C219 1.391 . S
C223 C222 1.371 . S
C223 H230 0.930 . S
H224 C221 0.928 . S
H225 C222 0.931 . S
H226 C202 0.930 . S
H227 C199 0.930 . S
H228 C208 0.930 . S
H229 C220 0.929 . S
H230 C223 0.930 . S
C231 C232 1.351 . S
C231 N234 1.368 . S
C231 H236 0.931 . S
C232 C231 1.351 . S
C232 N233 1.373 . S
C232 H260 0.930 . S
N233 C232 1.373 . S
N233 C235 1.340 . S
N234 C231 1.368 . S
N234 C235 1.321 . S
N234 Co237 2.135 . S
C235 N233 1.340 . S
C235 N234 1.321 . S
C235 H259 0.930 . S
H236 C231 0.931 . S
Co237 N234 2.135 . S
Co237 N240 2.121 1_565 S
Co237 O245 2.055 1_565 S
Co237 O248 2.039 . S
Co237 N251 2.140 . S
C238 O239 1.227 . S
C238 O248 1.265 . S
O239 C238 1.227 . S
N240 Co237 2.121 1_545 S
N240 C242 1.375 . S
N240 C243 1.313 . S
C241 C242 1.338 . S
C241 N244 1.377 . S
C241 H261 0.930 . S
C242 N240 1.375 . S
C242 C241 1.338 . S
C242 H246 0.931 . S
C243 N240 1.313 . S
C243 N244 1.344 . S
C243 H247 0.930 . S
N244 C241 1.377 . S
N244 C243 1.344 . S
O245 Co237 2.055 1_545 S
O245 C249 1.253 1_545 S
H246 C242 0.931 . S
H247 C243 0.930 . S
O248 Co237 2.039 . S
O248 C238 1.265 . S
C249 O245 1.253 1_565 S
C249 O250 1.227 . S
O250 C249 1.227 . S
N251 Co237 2.140 . S
N251 C254 1.346 . S
N251 C255 1.345 . S
C252 C253 1.387 . S
C252 C256 1.391 . S
C253 C252 1.387 . S
C253 C254 1.369 . S
C253 H262 0.929 . S
C254 N251 1.346 . S
C254 C253 1.369 . S
C254 H257 0.928 . S
C255 N251 1.345 . S
C255 C256 1.371 . S
C255 H258 0.931 . S
C256 C252 1.391 . S
C256 C255 1.371 . S
C256 H263 0.930 . S
H257 C254 0.928 . S
H258 C255 0.931 . S
H259 C235 0.930 . S
H260 C232 0.930 . S
H261 C241 0.930 . S
H262 C253 0.929 . S
H263 C256 0.930 . S
C264 C265 1.351 . S
C264 N267 1.368 . S
C264 H269 0.931 . S
C265 C264 1.351 . S
C265 N266 1.373 . S
C265 H293 0.930 . S
N266 C265 1.373 . S
N266 C268 1.340 . S
N267 C264 1.368 . S
N267 C268 1.321 . S
N267 Co270 2.135 . S
C268 N266 1.340 . S
C268 N267 1.321 . S
C268 H292 0.930 . S
H269 C264 0.931 . S
Co270 N267 2.135 . S
Co270 N273 2.121 . S
Co270 O278 2.055 . S
Co270 O281 2.039 . S
Co270 N284 2.140 . S
C271 O272 1.227 . S
C271 O281 1.265 . S
O272 C271 1.227 . S
N273 Co270 2.121 . S
N273 C275 1.375 . S
N273 C276 1.313 . S
C274 C275 1.338 . S
C274 N277 1.377 . S
C274 H294 0.930 . S
C275 N273 1.375 . S
C275 C274 1.338 . S
C275 H279 0.931 . S
C276 N273 1.313 . S
C276 N277 1.344 . S
C276 H280 0.930 . S
N277 C274 1.377 . S
N277 C276 1.344 . S
O278 Co270 2.055 . S
O278 C282 1.253 . S
H279 C275 0.931 . S
H280 C276 0.930 . S
O281 Co270 2.039 . S
O281 C271 1.265 . S
C282 O278 1.253 . S
C282 O283 1.227 . S
O283 C282 1.227 . S
N284 Co270 2.140 . S
N284 C287 1.346 . S
N284 C288 1.345 . S
C285 C286 1.387 . S
C285 C289 1.391 . S
C286 C285 1.387 . S
C286 C287 1.369 . S
C286 H295 0.929 . S
C287 N284 1.346 . S
C287 C286 1.369 . S
C287 H290 0.928 . S
C288 N284 1.345 . S
C288 C289 1.371 . S
C288 H291 0.931 . S
C289 C285 1.391 . S
C289 C288 1.371 . S
C289 H296 0.930 . S
H290 C287 0.928 . S
H291 C288 0.931 . S
H292 C268 0.930 . S
H293 C265 0.930 . S
H294 C274 0.930 . S
H295 C286 0.929 . S
H296 C289 0.930 . S
C297 C298 1.351 . S
C297 N300 1.368 . S
C297 H302 0.931 . S
C298 C297 1.351 . S
C298 N299 1.373 . S
C298 H326 0.930 . S
N299 C298 1.373 . S
N299 C301 1.340 . S
N300 C297 1.368 . S
N300 C301 1.321 . S
N300 Co303 2.135 . S
C301 N299 1.340 . S
C301 N300 1.321 . S
C301 H325 0.930 . S
H302 C297 0.931 . S
Co303 N300 2.135 . S
Co303 N306 2.121 . S
Co303 O311 2.055 . S
Co303 O314 2.039 . S
Co303 N317 2.140 . S
C304 O305 1.227 . S
C304 O314 1.265 . S
O305 C304 1.227 . S
N306 Co303 2.121 . S
N306 C308 1.375 . S
N306 C309 1.313 . S
C307 C308 1.338 . S
C307 N310 1.377 . S
C307 H327 0.930 . S
C308 N306 1.375 . S
C308 C307 1.338 . S
C308 H312 0.931 . S
C309 N306 1.313 . S
C309 N310 1.344 . S
C309 H313 0.930 . S
N310 C307 1.377 . S
N310 C309 1.344 . S
O311 Co303 2.055 . S
O311 C315 1.253 . S
H312 C308 0.931 . S
H313 C309 0.930 . S
O314 Co303 2.039 . S
O314 C304 1.265 . S
C315 O311 1.253 . S
C315 O316 1.227 . S
O316 C315 1.227 . S
N317 Co303 2.140 . S
N317 C320 1.346 . S
N317 C321 1.345 . S
C318 C319 1.387 . S
C318 C322 1.391 . S
C319 C318 1.387 . S
C319 C320 1.369 . S
C319 H328 0.929 . S
C320 N317 1.346 . S
C320 C319 1.369 . S
C320 H323 0.928 . S
C321 N317 1.345 . S
C321 C322 1.371 . S
C321 H324 0.931 . S
C322 C318 1.391 . S
C322 C321 1.371 . S
C322 H329 0.930 . S
H323 C320 0.928 . S
H324 C321 0.931 . S
H325 C301 0.930 . S
H326 C298 0.930 . S
H327 C307 0.930 . S
H328 C319 0.929 . S
H329 C322 0.930 . S
C330 C331 1.351 . S
C330 N333 1.368 . S
C330 H335 0.931 . S
C331 C330 1.351 . S
C331 N332 1.373 . S
C331 H359 0.930 . S
N332 C331 1.373 . S
N332 C334 1.340 . S
N333 C330 1.368 . S
N333 C334 1.321 . S
N333 Co336 2.135 . S
C334 N332 1.340 . S
C334 N333 1.321 . S
C334 H358 0.930 . S
H335 C330 0.931 . S
Co336 N333 2.135 . S
Co336 N339 2.121 . S
Co336 O344 2.055 . S
Co336 O347 2.039 . S
Co336 N350 2.140 . S
C337 O338 1.227 . S
C337 O347 1.265 . S
O338 C337 1.227 . S
N339 Co336 2.121 . S
N339 C341 1.375 . S
N339 C342 1.313 . S
C340 C341 1.338 . S
C340 N343 1.377 . S
C340 H360 0.930 . S
C341 N339 1.375 . S
C341 C340 1.338 . S
C341 H345 0.931 . S
C342 N339 1.313 . S
C342 N343 1.344 . S
C342 H346 0.930 . S
N343 C340 1.377 . S
N343 C342 1.344 . S
O344 Co336 2.055 . S
O344 C348 1.253 . S
H345 C341 0.931 . S
H346 C342 0.930 . S
O347 Co336 2.039 . S
O347 C337 1.265 . S
C348 O344 1.253 . S
C348 O349 1.227 . S
O349 C348 1.227 . S
N350 Co336 2.140 . S
N350 C353 1.346 . S
N350 C354 1.345 . S
C351 C352 1.387 . S
C351 C355 1.391 . S
C352 C351 1.387 . S
C352 C353 1.369 . S
C352 H361 0.929 . S
C353 N350 1.346 . S
C353 C352 1.369 . S
C353 H356 0.928 . S
C354 N350 1.345 . S
C354 C355 1.371 . S
C354 H357 0.931 . S
C355 C351 1.391 . S
C355 C354 1.371 . S
C355 H362 0.930 . S
H356 C353 0.928 . S
H357 C354 0.931 . S
H358 C334 0.930 . S
H359 C331 0.930 . S
H360 C340 0.930 . S
H361 C352 0.929 . S
H362 C355 0.930 . S
C363 C364 1.351 . S
C363 N366 1.368 . S
C363 H368 0.931 . S
C364 C363 1.351 . S
C364 N365 1.373 . S
C364 H392 0.930 . S
N365 C364 1.373 . S
N365 C367 1.340 . S
N366 C363 1.368 . S
N366 C367 1.321 . S
N366 Co369 2.135 . S
C367 N365 1.340 . S
C367 N366 1.321 . S
C367 H391 0.930 . S
H368 C363 0.931 . S
Co369 N366 2.135 . S
Co369 N372 2.121 . S
Co369 O377 2.055 . S
Co369 O380 2.039 . S
Co369 N383 2.140 . S
C370 O371 1.227 . S
C370 O380 1.265 . S
O371 C370 1.227 . S
N372 Co369 2.121 . S
N372 C374 1.375 . S
N372 C375 1.313 . S
C373 C374 1.338 . S
C373 N376 1.377 . S
C373 H393 0.930 . S
C374 N372 1.375 . S
C374 C373 1.338 . S
C374 H378 0.931 . S
C375 N372 1.313 . S
C375 N376 1.344 . S
C375 H379 0.930 . S
N376 C373 1.377 . S
N376 C375 1.344 . S
O377 Co369 2.055 . S
O377 C381 1.253 . S
H378 C374 0.931 . S
H379 C375 0.930 . S
O380 Co369 2.039 . S
O380 C370 1.265 . S
C381 O377 1.253 . S
C381 O382 1.227 . S
O382 C381 1.227 . S
N383 Co369 2.140 . S
N383 C386 1.346 . S
N383 C387 1.345 . S
C384 C385 1.387 . S
C384 C388 1.391 . S
C385 C384 1.387 . S
C385 C386 1.369 . S
C385 H394 0.929 . S
C386 N383 1.346 . S
C386 C385 1.369 . S
C386 H389 0.928 . S
C387 N383 1.345 . S
C387 C388 1.371 . S
C387 H390 0.931 . S
C388 C384 1.391 . S
C388 C387 1.371 . S
C388 H395 0.930 . S
H389 C386 0.928 . S
H390 C387 0.931 . S
H391 C367 0.930 . S
H392 C364 0.930 . S
H393 C373 0.930 . S
H394 C385 0.929 . S
H395 C388 0.930 . S
C396 C397 1.351 . S
C396 N399 1.368 . S
C396 H401 0.931 . S
C397 C396 1.351 . S
C397 N398 1.373 . S
C397 H425 0.930 . S
N398 C397 1.373 . S
N398 C400 1.340 . S
N399 C396 1.368 . S
N399 C400 1.321 . S
N399 Co402 2.135 . S
C400 N398 1.340 . S
C400 N399 1.321 . S
C400 H424 0.930 1_554 S
H401 C396 0.931 . S
Co402 N399 2.135 . S
Co402 N405 2.121 . S
Co402 O410 2.055 . S
Co402 O413 2.039 1_554 S
Co402 N416 2.140 . S
C403 O404 1.227 . S
C403 O413 1.265 . S
O404 C403 1.227 . S
N405 Co402 2.121 . S
N405 C407 1.375 1_554 S
N405 C408 1.313 . S
C406 C407 1.338 . S
C406 N409 1.377 1_556 S
C406 H426 0.930 . S
C407 N405 1.375 1_556 S
C407 C406 1.338 . S
C407 H411 0.931 . S
C408 N405 1.313 . S
C408 N409 1.344 . S
C408 H412 0.930 . S
N409 C406 1.377 1_554 S
N409 C408 1.344 . S
O410 Co402 2.055 . S
O410 C414 1.253 . S
H411 C407 0.931 . S
H412 C408 0.930 . S
O413 Co402 2.039 1_556 S
O413 C403 1.265 . S
C414 O410 1.253 . S
C414 O415 1.227 . S
O415 C414 1.227 . S
N416 Co402 2.140 . S
N416 C419 1.346 1_554 S
N416 C420 1.345 . S
C417 C418 1.387 1_554 S
C417 C421 1.391 . S
C418 C417 1.387 1_556 S
C418 C419 1.369 . S
C418 H427 0.929 . S
C419 N416 1.346 1_556 S
C419 C418 1.369 . S
C419 H422 0.928 . S
C420 N416 1.345 . S
C420 C421 1.371 . S
C420 H423 0.931 . S
C421 C417 1.391 . S
C421 C420 1.371 . S
C421 H428 0.930 . S
H422 C419 0.928 . S
H423 C420 0.931 . S
H424 C400 0.930 1_556 S
H425 C397 0.930 . S
H426 C406 0.930 . S
H427 C418 0.929 . S
H428 C421 0.930 . S
C429 C430 1.351 . S
C429 N432 1.368 . S
C429 H434 0.931 . S
C430 C429 1.351 . S
C430 N431 1.373 . S
C430 H458 0.930 . S
N431 C430 1.373 . S
N431 C433 1.340 . S
N432 C429 1.368 . S
N432 C433 1.321 . S
N432 Co435 2.135 . S
C433 N431 1.340 . S
C433 N432 1.321 . S
C433 H457 0.930 1_554 S
H434 C429 0.931 . S
Co435 N432 2.135 . S
Co435 N438 2.121 . S
Co435 O443 2.055 . S
Co435 O446 2.039 1_554 S
Co435 N449 2.140 . S
C436 O437 1.227 . S
C436 O446 1.265 . S
O437 C436 1.227 . S
N438 Co435 2.121 . S
N438 C440 1.375 1_554 S
N438 C441 1.313 . S
C439 C440 1.338 . S
C439 N442 1.377 1_556 S
C439 H459 0.930 . S
C440 N438 1.375 1_556 S
C440 C439 1.338 . S
C440 H444 0.931 . S
C441 N438 1.313 . S
C441 N442 1.344 . S
C441 H445 0.930 . S
N442 C439 1.377 1_554 S
N442 C441 1.344 . S
O443 Co435 2.055 . S
O443 C447 1.253 . S
H444 C440 0.931 . S
H445 C441 0.930 . S
O446 Co435 2.039 1_556 S
O446 C436 1.265 . S
C447 O443 1.253 . S
C447 O448 1.227 . S
O448 C447 1.227 . S
N449 Co435 2.140 . S
N449 C452 1.346 1_554 S
N449 C453 1.345 . S
C450 C451 1.387 1_554 S
C450 C454 1.391 . S
C451 C450 1.387 1_556 S
C451 C452 1.369 . S
C451 H460 0.929 . S
C452 N449 1.346 1_556 S
C452 C451 1.369 . S
C452 H455 0.928 . S
C453 N449 1.345 . S
C453 C454 1.371 . S
C453 H456 0.931 . S
C454 C450 1.391 . S
C454 C453 1.371 . S
C454 H461 0.930 . S
H455 C452 0.928 . S
H456 C453 0.931 . S
H457 C433 0.930 1_556 S
H458 C430 0.930 . S
H459 C439 0.930 . S
H460 C451 0.929 . S
H461 C454 0.930 . S
C462 C463 1.351 . S
C462 N465 1.368 . S
C462 H467 0.931 . S
C463 C462 1.351 . S
C463 N464 1.373 . S
C463 H491 0.930 . S
N464 C463 1.373 . S
N464 C466 1.340 . S
N465 C462 1.368 . S
N465 C466 1.321 . S
N465 Co468 2.135 . S
C466 N464 1.340 . S
C466 N465 1.321 . S
C466 H490 0.930 1_554 S
H467 C462 0.931 . S
Co468 N465 2.135 . S
Co468 N471 2.121 . S
Co468 O476 2.055 . S
Co468 O479 2.039 1_554 S
Co468 N482 2.140 . S
C469 O470 1.227 . S
C469 O479 1.265 . S
O470 C469 1.227 . S
N471 Co468 2.121 . S
N471 C473 1.375 1_554 S
N471 C474 1.313 . S
C472 C473 1.338 . S
C472 N475 1.377 1_556 S
C472 H492 0.930 . S
C473 N471 1.375 1_556 S
C473 C472 1.338 . S
C473 H477 0.931 . S
C474 N471 1.313 . S
C474 N475 1.344 . S
C474 H478 0.930 . S
N475 C472 1.377 1_554 S
N475 C474 1.344 . S
O476 Co468 2.055 . S
O476 C480 1.253 . S
H477 C473 0.931 . S
H478 C474 0.930 . S
O479 Co468 2.039 1_556 S
O479 C469 1.265 . S
C480 O476 1.253 . S
C480 O481 1.227 . S
O481 C480 1.227 . S
N482 Co468 2.140 . S
N482 C485 1.346 1_554 S
N482 C486 1.345 . S
C483 C484 1.387 1_554 S
C483 C487 1.391 . S
C484 C483 1.387 1_556 S
C484 C485 1.369 . S
C484 H493 0.929 . S
C485 N482 1.346 1_556 S
C485 C484 1.369 . S
C485 H488 0.928 . S
C486 N482 1.345 . S
C486 C487 1.371 . S
C486 H489 0.931 . S
C487 C483 1.391 . S
C487 C486 1.371 . S
C487 H494 0.930 . S
H488 C485 0.928 . S
H489 C486 0.931 . S
H490 C466 0.930 1_556 S
H491 C463 0.930 . S
H492 C472 0.930 . S
H493 C484 0.929 . S
H494 C487 0.930 . S
C495 C496 1.351 . S
C495 N498 1.368 . S
C495 H500 0.931 . S
C496 C495 1.351 . S
C496 N497 1.373 . S
C496 H524 0.930 . S
N497 C496 1.373 . S
N497 C499 1.340 . S
N498 C495 1.368 . S
N498 C499 1.321 . S
N498 Co501 2.135 . S
C499 N497 1.340 . S
C499 N498 1.321 . S
C499 H523 0.930 1_554 S
H500 C495 0.931 . S
Co501 N498 2.135 . S
Co501 N504 2.121 . S
Co501 O509 2.055 . S
Co501 O512 2.039 1_554 S
Co501 N515 2.140 . S
C502 O503 1.227 . S
C502 O512 1.265 . S
O503 C502 1.227 . S
N504 Co501 2.121 . S
N504 C506 1.375 1_554 S
N504 C507 1.313 . S
C505 C506 1.338 . S
C505 N508 1.377 1_556 S
C505 H525 0.930 . S
C506 N504 1.375 1_556 S
C506 C505 1.338 . S
C506 H510 0.931 . S
C507 N504 1.313 . S
C507 N508 1.344 . S
C507 H511 0.930 . S
N508 C505 1.377 1_554 S
N508 C507 1.344 . S
O509 Co501 2.055 . S
O509 C513 1.253 . S
H510 C506 0.931 . S
H511 C507 0.930 . S
O512 Co501 2.039 1_556 S
O512 C502 1.265 . S
C513 O509 1.253 . S
C513 O514 1.227 . S
O514 C513 1.227 . S
N515 Co501 2.140 . S
N515 C518 1.346 1_554 S
N515 C519 1.345 . S
C516 C517 1.387 1_554 S
C516 C520 1.391 . S
C517 C516 1.387 1_556 S
C517 C518 1.369 . S
C517 H526 0.929 . S
C518 N515 1.346 1_556 S
C518 C517 1.369 . S
C518 H521 0.928 . S
C519 N515 1.345 . S
C519 C520 1.371 . S
C519 H522 0.931 . S
C520 C516 1.391 . S
C520 C519 1.371 . S
C520 H527 0.930 . S
H521 C518 0.928 . S
H522 C519 0.931 . S
H523 C499 0.930 1_556 S
H524 C496 0.930 . S
H525 C505 0.930 . S
H526 C517 0.929 . S
H527 C520 0.930 . S
C528 C529 1.363 . S
C528 C534 1.379 . S
C528 N536 1.356 . S
C529 C528 1.363 . S
C529 C535 1.363 1_554 S
C530 C531 1.363 1_556 S
C530 C535 1.379 . S
C530 N537 1.356 . S
C531 C530 1.363 1_554 S
C531 C534 1.363 . S
N532 C534 1.356 . S
N532 H544 0.984 . S
N532 H545 0.985 . S
N533 C535 1.356 . S
N533 H538 0.984 . S
N533 H539 0.985 . S
C534 C528 1.379 . S
C534 C531 1.363 . S
C534 N532 1.356 . S
C535 C529 1.363 1_556 S
C535 C530 1.379 . S
C535 N533 1.356 . S
N536 C528 1.356 . S
N536 H542 0.984 . S
N536 H543 0.984 . S
N537 C530 1.356 . S
N537 H540 0.984 . S
N537 H541 0.985 . S
H538 N533 0.984 . S
H539 N533 0.985 . S
H540 N537 0.984 . S
H541 N537 0.985 . S
H542 N536 0.984 . S
H543 N536 0.984 . S
H544 N532 0.984 . S
H545 N532 0.985 . S
C546 C547 1.363 1_556 S
C546 C552 1.379 . S
C546 N554 1.356 . S
C547 C546 1.363 1_554 S
C547 C553 1.363 . S
C548 C549 1.363 . S
C548 C553 1.379 . S
C548 N555 1.356 . S
C549 C548 1.363 . S
C549 C552 1.363 1_554 S
N550 C552 1.356 . S
N550 H562 0.984 . S
N550 H563 0.985 . S
N551 C553 1.356 . S
N551 H556 0.984 . S
N551 H557 0.985 . S
C552 C546 1.379 . S
C552 C549 1.363 1_556 S
C552 N550 1.356 . S
C553 C547 1.363 . S
C553 C548 1.379 . S
C553 N551 1.356 . S
N554 C546 1.356 . S
N554 H560 0.984 . S
N554 H561 0.984 . S
N555 C548 1.356 . S
N555 H558 0.984 . S
N555 H559 0.985 . S
H556 N551 0.984 . S
H557 N551 0.985 . S
H558 N555 0.984 . S
H559 N555 0.985 . S
H560 N554 0.984 . S
H561 N554 0.984 . S
H562 N550 0.984 . S
H563 N550 0.985 . S
C564 C565 1.363 . S
C564 C570 1.379 . S
C564 N572 1.356 . S
C565 C564 1.363 . S
C565 C571 1.363 1_554 S
C566 C567 1.363 1_556 S
C566 C571 1.379 . S
C566 N573 1.356 . S
C567 C566 1.363 1_554 S
C567 C570 1.363 . S
N568 C570 1.356 . S
N568 H580 0.984 . S
N568 H581 0.985 . S
N569 C571 1.356 . S
N569 H574 0.984 . S
N569 H575 0.985 . S
C570 C564 1.379 . S
C570 C567 1.363 . S
C570 N568 1.356 . S
C571 C565 1.363 1_556 S
C571 C566 1.379 . S
C571 N569 1.356 . S
N572 C564 1.356 . S
N572 H578 0.984 . S
N572 H579 0.984 . S
N573 C566 1.356 . S
N573 H576 0.984 . S
N573 H577 0.985 . S
H574 N569 0.984 . S
H575 N569 0.985 . S
H576 N573 0.984 . S
H577 N573 0.985 . S
H578 N572 0.984 . S
H579 N572 0.984 . S
H580 N568 0.984 . S
H581 N568 0.985 . S
C582 C583 1.363 . S
C582 C588 1.379 . S
C582 N590 1.356 . S
C583 C582 1.363 . S
C583 C589 1.363 1_554 S
C584 C585 1.363 1_556 S
C584 C589 1.379 . S
C584 N591 1.356 . S
C585 C584 1.363 1_554 S
C585 C588 1.363 . S
N586 C588 1.356 . S
N586 H598 0.984 . S
N586 H599 0.985 . S
N587 C589 1.356 . S
N587 H592 0.984 . S
N587 H593 0.985 . S
C588 C582 1.379 . S
C588 C585 1.363 . S
C588 N586 1.356 . S
C589 C583 1.363 1_556 S
C589 C584 1.379 . S
C589 N587 1.356 . S
N590 C582 1.356 . S
N590 H596 0.984 . S
N590 H597 0.984 . S
N591 C584 1.356 . S
N591 H594 0.984 . S
N591 H595 0.985 . S
H592 N587 0.984 . S
H593 N587 0.985 . S
H594 N591 0.984 . S
H595 N591 0.985 . S
H596 N590 0.984 . S
H597 N590 0.984 . S
H598 N586 0.984 . S
H599 N586 0.985 . S
C600 C601 1.363 . S
C600 C606 1.379 . S
C600 N608 1.356 . S
C601 C600 1.363 . S
C601 C607 1.363 . S
C602 C603 1.363 . S
C602 C607 1.379 . S
C602 N609 1.356 . S
C603 C602 1.363 . S
C603 C606 1.363 . S
N604 C606 1.356 . S
N604 H616 0.984 . S
N604 H617 0.985 . S
N605 C607 1.356 . S
N605 H610 0.984 . S
N605 H611 0.985 . S
C606 C600 1.379 . S
C606 C603 1.363 . S
C606 N604 1.356 . S
C607 C601 1.363 . S
C607 C602 1.379 . S
C607 N605 1.356 . S
N608 C600 1.356 . S
N608 H614 0.984 . S
N608 H615 0.984 . S
N609 C602 1.356 . S
N609 H612 0.984 . S
N609 H613 0.985 . S
H610 N605 0.984 . S
H611 N605 0.985 . S
H612 N609 0.984 . S
H613 N609 0.985 . S
H614 N608 0.984 . S
H615 N608 0.984 . S
H616 N604 0.984 . S
H617 N604 0.985 . S
C618 C619 1.363 . S
C618 C624 1.379 . S
C618 N626 1.356 . S
C619 C618 1.363 . S
C619 C625 1.363 . S
C620 C621 1.363 . S
C620 C625 1.379 . S
C620 N627 1.356 . S
C621 C620 1.363 . S
C621 C624 1.363 . S
N622 C624 1.356 . S
N622 H634 0.984 . S
N622 H635 0.985 . S
N623 C625 1.356 . S
N623 H628 0.984 . S
N623 H629 0.985 . S
C624 C618 1.379 . S
C624 C621 1.363 . S
C624 N622 1.356 . S
C625 C619 1.363 . S
C625 C620 1.379 . S
C625 N623 1.356 . S
N626 C618 1.356 . S
N626 H632 0.984 . S
N626 H633 0.984 . S
N627 C620 1.356 . S
N627 H630 0.984 . S
N627 H631 0.985 . S
H628 N623 0.984 . S
H629 N623 0.985 . S
H630 N627 0.984 . S
H631 N627 0.985 . S
H632 N626 0.984 . S
H633 N626 0.984 . S
H634 N622 0.984 . S
H635 N622 0.985 . S
C636 C637 1.363 . S
C636 C642 1.379 . S
C636 N644 1.356 . S
C637 C636 1.363 . S
C637 C643 1.363 . S
C638 C639 1.363 . S
C638 C643 1.379 . S
C638 N645 1.356 . S
C639 C638 1.363 . S
C639 C642 1.363 . S
N640 C642 1.356 . S
N640 H652 0.984 . S
N640 H653 0.985 . S
N641 C643 1.356 . S
N641 H646 0.984 . S
N641 H647 0.985 . S
C642 C636 1.379 . S
C642 C639 1.363 . S
C642 N640 1.356 . S
C643 C637 1.363 . S
C643 C638 1.379 . S
C643 N641 1.356 . S
N644 C636 1.356 . S
N644 H650 0.984 . S
N644 H651 0.984 . S
N645 C638 1.356 . S
N645 H648 0.984 . S
N645 H649 0.985 . S
H646 N641 0.984 . S
H647 N641 0.985 . S
H648 N645 0.984 . S
H649 N645 0.985 . S
H650 N644 0.984 . S
H651 N644 0.984 . S
H652 N640 0.984 . S
H653 N640 0.985 . S
C654 C655 1.363 . S
C654 C660 1.379 . S
C654 N662 1.356 . S
C655 C654 1.363 . S
C655 C661 1.363 . S
C656 C657 1.363 . S
C656 C661 1.379 . S
C656 N663 1.356 . S
C657 C656 1.363 . S
C657 C660 1.363 . S
N658 C660 1.356 . S
N658 H670 0.984 . S
N658 H671 0.985 . S
N659 C661 1.356 . S
N659 H664 0.984 . S
N659 H665 0.985 . S
C660 C654 1.379 . S
C660 C657 1.363 . S
C660 N658 1.356 . S
C661 C655 1.363 . S
C661 C656 1.379 . S
C661 N659 1.356 . S
N662 C654 1.356 . S
N662 H668 0.984 . S
N662 H669 0.984 . S
N663 C656 1.356 . S
N663 H666 0.984 . S
N663 H667 0.985 . S
H664 N659 0.984 . S
H665 N659 0.985 . S
H666 N663 0.984 . S
H667 N663 0.985 . S
H668 N662 0.984 . S
H669 N662 0.984 . S
H670 N658 0.984 . S
H671 N658 0.985 . S
C672 C673 1.363 . S
C672 C678 1.379 . S
C672 N680 1.356 . S
C673 C672 1.363 . S
C673 C679 1.363 1_556 S
C674 C675 1.363 . S
C674 C679 1.379 . S
C674 N681 1.356 . S
C675 C674 1.363 . S
C675 C678 1.363 1_554 S
N676 C678 1.356 . S
N676 H688 0.984 . S
N676 H689 0.985 . S
N677 C679 1.356 . S
N677 H682 0.984 . S
N677 H683 0.985 . S
C678 C672 1.379 . S
C678 C675 1.363 1_556 S
C678 N676 1.356 . S
C679 C673 1.363 1_554 S
C679 C674 1.379 . S
C679 N677 1.356 . S
N680 C672 1.356 . S
N680 H686 0.984 . S
N680 H687 0.984 . S
N681 C674 1.356 . S
N681 H684 0.984 . S
N681 H685 0.985 . S
H682 N677 0.984 . S
H683 N677 0.985 . S
H684 N681 0.984 . S
H685 N681 0.985 . S
H686 N680 0.984 . S
H687 N680 0.984 . S
H688 N676 0.984 . S
H689 N676 0.985 . S
C690 C691 1.363 . S
C690 C696 1.379 . S
C690 N698 1.356 . S
C691 C690 1.363 . S
C691 C697 1.363 1_556 S
C692 C693 1.363 . S
C692 C697 1.379 . S
C692 N699 1.356 . S
C693 C692 1.363 . S
C693 C696 1.363 1_554 S
N694 C696 1.356 . S
N694 H706 0.984 . S
N694 H707 0.985 . S
N695 C697 1.356 . S
N695 H700 0.984 . S
N695 H701 0.985 . S
C696 C690 1.379 . S
C696 C693 1.363 1_556 S
C696 N694 1.356 . S
C697 C691 1.363 1_554 S
C697 C692 1.379 . S
C697 N695 1.356 . S
N698 C690 1.356 . S
N698 H704 0.984 . S
N698 H705 0.984 . S
N699 C692 1.356 . S
N699 H702 0.984 . S
N699 H703 0.985 . S
H700 N695 0.984 . S
H701 N695 0.985 . S
H702 N699 0.984 . S
H703 N699 0.985 . S
H704 N698 0.984 . S
H705 N698 0.984 . S
H706 N694 0.984 . S
H707 N694 0.985 . S
C708 C709 1.363 1_556 S
C708 C714 1.379 . S
C708 N716 1.356 . S
C709 C708 1.363 1_554 S
C709 C715 1.363 . S
C710 C711 1.363 1_554 S
C710 C715 1.379 . S
C710 N717 1.356 . S
C711 C710 1.363 1_556 S
C711 C714 1.363 . S
N712 C714 1.356 . S
N712 H724 0.984 . S
N712 H725 0.985 . S
N713 C715 1.356 . S
N713 H718 0.984 . S
N713 H719 0.985 . S
C714 C708 1.379 . S
C714 C711 1.363 . S
C714 N712 1.356 . S
C715 C709 1.363 . S
C715 C710 1.379 . S
C715 N713 1.356 . S
N716 C708 1.356 . S
N716 H722 0.984 . S
N716 H723 0.984 . S
N717 C710 1.356 . S
N717 H720 0.984 . S
N717 H721 0.985 . S
H718 N713 0.984 . S
H719 N713 0.985 . S
H720 N717 0.984 . S
H721 N717 0.985 . S
H722 N716 0.984 . S
H723 N716 0.984 . S
H724 N712 0.984 . S
H725 N712 0.985 . S
C726 C727 1.363 1_556 S
C726 C732 1.379 . S
C726 N734 1.356 . S
C727 C726 1.363 1_554 S
C727 C733 1.363 . S
C728 C729 1.363 1_554 S
C728 C733 1.379 . S
C728 N735 1.356 . S
C729 C728 1.363 1_556 S
C729 C732 1.363 . S
N730 C732 1.356 . S
N730 H742 0.984 . S
N730 H743 0.985 . S
N731 C733 1.356 . S
N731 H736 0.984 . S
N731 H737 0.985 . S
C732 C726 1.379 . S
C732 C729 1.363 . S
C732 N730 1.356 . S
C733 C727 1.363 . S
C733 C728 1.379 . S
C733 N731 1.356 . S
N734 C726 1.356 . S
N734 H740 0.984 . S
N734 H741 0.984 . S
N735 C728 1.356 . S
N735 H738 0.984 . S
N735 H739 0.985 . S
H736 N731 0.984 . S
H737 N731 0.985 . S
H738 N735 0.984 . S
H739 N735 0.985 . S
H740 N734 0.984 . S
H741 N734 0.984 . S
H742 N730 0.984 . S
H743 N730 0.985 . S
C744 C745 1.363 . S
C744 C750 1.379 . S
C744 N752 1.356 . S
C745 C744 1.363 . S
C745 C751 1.363 . S
C746 C747 1.363 . S
C746 C751 1.379 . S
C746 N753 1.356 . S
C747 C746 1.363 . S
C747 C750 1.363 . S
N748 C750 1.356 . S
N748 H760 0.984 . S
N748 H761 0.985 . S
N749 C751 1.356 . S
N749 H754 0.984 . S
N749 H755 0.985 . S
C750 C744 1.379 . S
C750 C747 1.363 . S
C750 N748 1.356 . S
C751 C745 1.363 . S
C751 C746 1.379 . S
C751 N749 1.356 . S
N752 C744 1.356 . S
N752 H758 0.984 . S
N752 H759 0.984 . S
N753 C746 1.356 . S
N753 H756 0.984 . S
N753 H757 0.985 . S
H754 N749 0.984 . S
H755 N749 0.985 . S
H756 N753 0.984 . S
H757 N753 0.985 . S
H758 N752 0.984 . S
H759 N752 0.984 . S
H760 N748 0.984 . S
H761 N748 0.985 . S
C762 C763 1.363 . S
C762 C768 1.379 . S
C762 N770 1.356 . S
C763 C762 1.363 . S
C763 C769 1.363 . S
C764 C765 1.363 . S
C764 C769 1.379 . S
C764 N771 1.356 . S
C765 C764 1.363 . S
C765 C768 1.363 . S
N766 C768 1.356 . S
N766 H778 0.984 . S
N766 H779 0.985 . S
N767 C769 1.356 . S
N767 H772 0.984 . S
N767 H773 0.985 . S
C768 C762 1.379 . S
C768 C765 1.363 . S
C768 N766 1.356 . S
C769 C763 1.363 . S
C769 C764 1.379 . S
C769 N767 1.356 . S
N770 C762 1.356 . S
N770 H776 0.984 . S
N770 H777 0.984 . S
N771 C764 1.356 . S
N771 H774 0.984 . S
N771 H775 0.985 . S
H772 N767 0.984 . S
H773 N767 0.985 . S
H774 N771 0.984 . S
H775 N771 0.985 . S
H776 N770 0.984 . S
H777 N770 0.984 . S
H778 N766 0.984 . S
H779 N766 0.985 . S
C780 C781 1.363 . S
C780 C786 1.379 . S
C780 N788 1.356 . S
C781 C780 1.363 . S
C781 C787 1.363 . S
C782 C783 1.363 . S
C782 C787 1.379 . S
C782 N789 1.356 . S
C783 C782 1.363 . S
C783 C786 1.363 . S
N784 C786 1.356 . S
N784 H796 0.984 . S
N784 H797 0.985 . S
N785 C787 1.356 . S
N785 H790 0.984 . S
N785 H791 0.985 . S
C786 C780 1.379 . S
C786 C783 1.363 . S
C786 N784 1.356 . S
C787 C781 1.363 . S
C787 C782 1.379 . S
C787 N785 1.356 . S
N788 C780 1.356 . S
N788 H794 0.984 . S
N788 H795 0.984 . S
N789 C782 1.356 . S
N789 H792 0.984 . S
N789 H793 0.985 . S
H790 N785 0.984 . S
H791 N785 0.985 . S
H792 N789 0.984 . S
H793 N789 0.985 . S
H794 N788 0.984 . S
H795 N788 0.984 . S
H796 N784 0.984 . S
H797 N784 0.985 . S
C798 C799 1.363 . S
C798 C804 1.379 . S
C798 N806 1.356 . S
C799 C798 1.363 . S
C799 C805 1.363 . S
C800 C801 1.363 . S
C800 C805 1.379 . S
C800 N807 1.356 . S
C801 C800 1.363 . S
C801 C804 1.363 . S
N802 C804 1.356 . S
N802 H814 0.984 . S
N802 H815 0.985 . S
N803 C805 1.356 . S
N803 H808 0.984 . S
N803 H809 0.985 . S
C804 C798 1.379 . S
C804 C801 1.363 . S
C804 N802 1.356 . S
C805 C799 1.363 . S
C805 C800 1.379 . S
C805 N803 1.356 . S
N806 C798 1.356 . S
N806 H812 0.984 . S
N806 H813 0.984 . S
N807 C800 1.356 . S
N807 H810 0.984 . S
N807 H811 0.985 . S
H808 N803 0.984 . S
H809 N803 0.985 . S
H810 N807 0.984 . S
H811 N807 0.985 . S
H812 N806 0.984 . S
H813 N806 0.984 . S
H814 N802 0.984 . S
H815 N802 0.985 . S
C816 C817 1.363 . S
C816 C822 1.379 . S
C816 N824 1.356 . S
C817 C816 1.363 . S
C817 C823 1.363 . S
C818 C819 1.363 . S
C818 C823 1.379 . S
C818 N825 1.356 . S
C819 C818 1.363 . S
C819 C822 1.363 . S
N820 C822 1.356 . S
N820 H832 0.984 . S
N820 H833 0.985 . S
N821 C823 1.356 . S
N821 H826 0.984 . S
N821 H827 0.985 . S
C822 C816 1.379 . S
C822 C819 1.363 . S
C822 N820 1.356 . S
C823 C817 1.363 . S
C823 C818 1.379 . S
C823 N821 1.356 . S
N824 C816 1.356 . S
N824 H830 0.984 . S
N824 H831 0.984 . S
N825 C818 1.356 . S
N825 H828 0.984 . S
N825 H829 0.985 . S
H826 N821 0.984 . S
H827 N821 0.985 . S
H828 N825 0.984 . S
H829 N825 0.985 . S
H830 N824 0.984 . S
H831 N824 0.984 . S
H832 N820 0.984 . S
H833 N820 0.985 . S
C834 C835 1.363 . S
C834 C840 1.379 . S
C834 N842 1.356 . S
C835 C834 1.363 . S
C835 C841 1.363 . S
C836 C837 1.363 . S
C836 C841 1.379 . S
C836 N843 1.356 . S
C837 C836 1.363 . S
C837 C840 1.363 . S
N838 C840 1.356 . S
N838 H850 0.984 . S
N838 H851 0.985 . S
N839 C841 1.356 . S
N839 H844 0.984 . S
N839 H845 0.985 . S
C840 C834 1.379 . S
C840 C837 1.363 . S
C840 N838 1.356 . S
C841 C835 1.363 . S
C841 C836 1.379 . S
C841 N839 1.356 . S
N842 C834 1.356 . S
N842 H848 0.984 . S
N842 H849 0.984 . S
N843 C836 1.356 . S
N843 H846 0.984 . S
N843 H847 0.985 . S
H844 N839 0.984 . S
H845 N839 0.985 . S
H846 N843 0.984 . S
H847 N843 0.985 . S
H848 N842 0.984 . S
H849 N842 0.984 . S
H850 N838 0.984 . S
H851 N838 0.985 . S
C852 C853 1.363 . S
C852 C858 1.379 . S
C852 N860 1.356 . S
C853 C852 1.363 . S
C853 C859 1.363 . S
C854 C855 1.363 . S
C854 C859 1.379 . S
C854 N861 1.356 . S
C855 C854 1.363 . S
C855 C858 1.363 . S
N856 C858 1.356 . S
N856 H868 0.984 . S
N856 H869 0.985 . S
N857 C859 1.356 . S
N857 H862 0.984 . S
N857 H863 0.985 . S
C858 C852 1.379 . S
C858 C855 1.363 . S
C858 N856 1.356 . S
C859 C853 1.363 . S
C859 C854 1.379 . S
C859 N857 1.356 . S
N860 C852 1.356 . S
N860 H866 0.984 . S
N860 H867 0.984 . S
N861 C854 1.356 . S
N861 H864 0.984 . S
N861 H865 0.985 . S
H862 N857 0.984 . S
H863 N857 0.985 . S
H864 N861 0.984 . S
H865 N861 0.985 . S
H866 N860 0.984 . S
H867 N860 0.984 . S
H868 N856 0.984 . S
H869 N856 0.985 . S
C870 C871 1.363 . S
C870 C876 1.379 . S
C870 N878 1.356 . S
C871 C870 1.363 . S
C871 C877 1.363 . S
C872 C873 1.363 . S
C872 C877 1.379 . S
C872 N879 1.356 . S
C873 C872 1.363 . S
C873 C876 1.363 . S
N874 C876 1.356 . S
N874 H886 0.984 . S
N874 H887 0.985 . S
N875 C877 1.356 . S
N875 H880 0.984 . S
N875 H881 0.985 . S
C876 C870 1.379 . S
C876 C873 1.363 . S
C876 N874 1.356 . S
C877 C871 1.363 . S
C877 C872 1.379 . S
C877 N875 1.356 . S
N878 C870 1.356 . S
N878 H884 0.984 . S
N878 H885 0.984 . S
N879 C872 1.356 . S
N879 H882 0.984 . S
N879 H883 0.985 . S
H880 N875 0.984 . S
H881 N875 0.985 . S
H882 N879 0.984 . S
H883 N879 0.985 . S
H884 N878 0.984 . S
H885 N878 0.984 . S
H886 N874 0.984 . S
H887 N874 0.985 . S
C888 C889 1.363 . S
C888 C894 1.379 1_554 S
C888 N896 1.356 1_554 S
C889 C888 1.363 . S
C889 C895 1.363 . S
C890 C891 1.363 . S
C890 C895 1.379 . S
C890 N897 1.356 . S
C891 C890 1.363 . S
C891 C894 1.363 1_554 S
N892 C894 1.356 . S
N892 H904 0.984 . S
N892 H905 0.985 . S
N893 C895 1.356 . S
N893 H898 0.984 . S
N893 H899 0.985 . S
C894 C888 1.379 1_556 S
C894 C891 1.363 1_556 S
C894 N892 1.356 . S
C895 C889 1.363 . S
C895 C890 1.379 . S
C895 N893 1.356 . S
N896 C888 1.356 1_556 S
N896 H902 0.984 . S
N896 H903 0.984 . S
N897 C890 1.356 . S
N897 H900 0.984 . S
N897 H901 0.985 . S
H898 N893 0.984 . S
H899 N893 0.985 . S
H900 N897 0.984 . S
H901 N897 0.985 . S
H902 N896 0.984 . S
H903 N896 0.984 . S
H904 N892 0.984 . S
H905 N892 0.985 . S
C906 C907 1.363 . S
C906 C912 1.379 . S
C906 N914 1.356 . S
C907 C906 1.363 . S
C907 C913 1.363 . S
C908 C909 1.363 . S
C908 C913 1.379 . S
C908 N915 1.356 . S
C909 C908 1.363 . S
C909 C912 1.363 . S
N910 C912 1.356 . S
N910 H922 0.984 . S
N910 H923 0.985 . S
N911 C913 1.356 . S
N911 H916 0.984 . S
N911 H917 0.985 . S
C912 C906 1.379 . S
C912 C909 1.363 . S
C912 N910 1.356 . S
C913 C907 1.363 . S
C913 C908 1.379 . S
C913 N911 1.356 . S
N914 C906 1.356 . S
N914 H920 0.984 . S
N914 H921 0.984 . S
N915 C908 1.356 . S
N915 H918 0.984 . S
N915 H919 0.985 . S
H916 N911 0.984 . S
H917 N911 0.985 . S
H918 N915 0.984 . S
H919 N915 0.985 . S
H920 N914 0.984 . S
H921 N914 0.984 . S
H922 N910 0.984 . S
H923 N910 0.985 . S
C924 C925 1.363 . S
C924 C930 1.379 . S
C924 N932 1.356 . S
C925 C924 1.363 . S
C925 C931 1.363 1_554 S
C926 C927 1.363 1_556 S
C926 C931 1.379 . S
C926 N933 1.356 . S
C927 C926 1.363 1_554 S
C927 C930 1.363 . S
N928 C930 1.356 . S
N928 H940 0.984 . S
N928 H941 0.985 . S
N929 C931 1.356 . S
N929 H934 0.984 . S
N929 H935 0.985 . S
C930 C924 1.379 . S
C930 C927 1.363 . S
C930 N928 1.356 . S
C931 C925 1.363 1_556 S
C931 C926 1.379 . S
C931 N929 1.356 . S
N932 C924 1.356 . S
N932 H938 0.984 . S
N932 H939 0.984 . S
N933 C926 1.356 . S
N933 H936 0.984 . S
N933 H937 0.985 . S
H934 N929 0.984 . S
H935 N929 0.985 . S
H936 N933 0.984 . S
H937 N933 0.985 . S
H938 N932 0.984 . S
H939 N932 0.984 . S
H940 N928 0.984 . S
H941 N928 0.985 . S
C942 C943 1.363 1_556 S
C942 C948 1.379 . S
C942 N950 1.356 . S
C943 C942 1.363 1_554 S
C943 C949 1.363 . S
C944 C945 1.363 . S
C944 C949 1.379 . S
C944 N951 1.356 . S
C945 C944 1.363 . S
C945 C948 1.363 1_554 S
N946 C948 1.356 . S
N946 H958 0.984 . S
N946 H959 0.985 . S
N947 C949 1.356 . S
N947 H952 0.984 . S
N947 H953 0.985 . S
C948 C942 1.379 . S
C948 C945 1.363 1_556 S
C948 N946 1.356 . S
C949 C943 1.363 . S
C949 C944 1.379 . S
C949 N947 1.356 . S
N950 C942 1.356 . S
N950 H956 0.984 . S
N950 H957 0.984 . S
N951 C944 1.356 . S
N951 H954 0.984 . S
N951 H955 0.985 . S
H952 N947 0.984 . S
H953 N947 0.985 . S
H954 N951 0.984 . S
H955 N951 0.985 . S
H956 N950 0.984 . S
H957 N950 0.984 . S
H958 N946 0.984 . S
H959 N946 0.985 . S
C960 C961 1.363 . S
C960 C966 1.379 . S
C960 N968 1.356 . S
C961 C960 1.363 . S
C961 C967 1.363 1_655 S
C962 C963 1.363 . S
C962 C967 1.379 . S
C962 N969 1.356 . S
C963 C962 1.363 . S
C963 C966 1.363 1_455 S
N964 C966 1.356 . S
N964 H976 0.984 . S
N964 H977 0.985 . S
N965 C967 1.356 . S
N965 H970 0.984 . S
N965 H971 0.985 . S
C966 C960 1.379 . S
C966 C963 1.363 1_655 S
C966 N964 1.356 . S
C967 C961 1.363 1_455 S
C967 C962 1.379 . S
C967 N965 1.356 . S
N968 C960 1.356 . S
N968 H974 0.984 . S
N968 H975 0.984 . S
N969 C962 1.356 . S
N969 H972 0.984 . S
N969 H973 0.985 . S
H970 N965 0.984 . S
H971 N965 0.985 . S
H972 N969 0.984 . S
H973 N969 0.985 . S
H974 N968 0.984 . S
H975 N968 0.984 . S
H976 N964 0.984 . S
H977 N964 0.985 . S
C978 C979 1.363 1_545 S
C978 C984 1.379 . S
C978 N986 1.356 . S
C979 C978 1.363 1_565 S
C979 C985 1.363 . S
C980 C981 1.363 1_565 S
C980 C985 1.379 . S
C980 N987 1.356 . S
C981 C980 1.363 1_545 S
C981 C984 1.363 . S
N982 C984 1.356 . S
N982 H994 0.984 . S
N982 H995 0.985 . S
N983 C985 1.356 . S
N983 H988 0.984 . S
N983 H989 0.985 . S
C984 C978 1.379 . S
C984 C981 1.363 . S
C984 N982 1.356 . S
C985 C979 1.363 . S
C985 C980 1.379 . S
C985 N983 1.356 . S
N986 C978 1.356 . S
N986 H992 0.984 . S
N986 H993 0.984 . S
N987 C980 1.356 . S
N987 H990 0.984 . S
N987 H991 0.985 . S
H988 N983 0.984 . S
H989 N983 0.985 . S
H990 N987 0.984 . S
H991 N987 0.985 . S
H992 N986 0.984 . S
H993 N986 0.984 . S
H994 N982 0.984 . S
H995 N982 0.985 . S
C996 C997 1.363 1_455 S
C996 C1002 1.379 . S
C996 N1004 1.356 . S
C997 C996 1.363 1_655 S
C997 C1003 1.363 . S
C998 C999 1.363 1_655 S
C998 C1003 1.379 . S
C998 N1005 1.356 . S
C999 C998 1.363 1_455 S
C999 C1002 1.363 . S
N1000 C1002 1.356 . S
N1000 H1012 0.984 . S
N1000 H1013 0.985 . S
N1001 C1003 1.356 . S
N1001 H1006 0.984 . S
N1001 H1007 0.985 . S
C1002 C996 1.379 . S
C1002 C999 1.363 . S
C1002 N1000 1.356 . S
C1003 C997 1.363 . S
C1003 C998 1.379 . S
C1003 N1001 1.356 . S
N1004 C996 1.356 . S
N1004 H1010 0.984 . S
N1004 H1011 0.984 . S
N1005 C998 1.356 . S
N1005 H1008 0.984 . S
N1005 H1009 0.985 . S
H1006 N1001 0.984 . S
H1007 N1001 0.985 . S
H1008 N1005 0.984 . S
H1009 N1005 0.985 . S
H1010 N1004 0.984 . S
H1011 N1004 0.984 . S
H1012 N1000 0.984 . S
H1013 N1000 0.985 . S
C1014 C1015 1.363 . S
C1014 C1020 1.379 . S
C1014 N1022 1.356 . S
C1015 C1014 1.363 . S
C1015 C1021 1.363 1_545 S
C1016 C1017 1.363 . S
C1016 C1021 1.379 . S
C1016 N1023 1.356 . S
C1017 C1016 1.363 . S
C1017 C1020 1.363 1_565 S
N1018 C1020 1.356 . S
N1018 H1030 0.984 . S
N1018 H1031 0.985 . S
N1019 C1021 1.356 . S
N1019 H1024 0.984 . S
N1019 H1025 0.985 . S
C1020 C1014 1.379 . S
C1020 C1017 1.363 1_545 S
C1020 N1018 1.356 . S
C1021 C1015 1.363 1_565 S
C1021 C1016 1.379 . S
C1021 N1019 1.356 . S
N1022 C1014 1.356 . S
N1022 H1028 0.984 . S
N1022 H1029 0.984 . S
N1023 C1016 1.356 . S
N1023 H1026 0.984 . S
N1023 H1027 0.985 . S
H1024 N1019 0.984 . S
H1025 N1019 0.985 . S
H1026 N1023 0.984 . S
H1027 N1023 0.985 . S
H1028 N1022 0.984 . S
H1029 N1022 0.984 . S
H1030 N1018 0.984 . S
H1031 N1018 0.985 . S
C1032 C1033 1.363 . S
C1032 C1038 1.379 . S
C1032 N1040 1.356 . S
C1033 C1032 1.363 . S
C1033 C1039 1.363 1_455 S
C1034 C1035 1.363 . S
C1034 C1039 1.379 . S
C1034 N1041 1.356 . S
C1035 C1034 1.363 . S
C1035 C1038 1.363 1_655 S
N1036 C1038 1.356 . S
N1036 H1048 0.984 . S
N1036 H1049 0.985 . S
N1037 C1039 1.356 . S
N1037 H1042 0.984 . S
N1037 H1043 0.985 . S
C1038 C1032 1.379 . S
C1038 C1035 1.363 1_455 S
C1038 N1036 1.356 . S
C1039 C1033 1.363 1_655 S
C1039 C1034 1.379 . S
C1039 N1037 1.356 . S
N1040 C1032 1.356 . S
N1040 H1046 0.984 . S
N1040 H1047 0.984 . S
N1041 C1034 1.356 . S
N1041 H1044 0.984 . S
N1041 H1045 0.985 . S
H1042 N1037 0.984 . S
H1043 N1037 0.985 . S
H1044 N1041 0.984 . S
H1045 N1041 0.985 . S
H1046 N1040 0.984 . S
H1047 N1040 0.984 . S
H1048 N1036 0.984 . S
H1049 N1036 0.985 . S
C1050 C1051 1.363 1_545 S
C1050 C1056 1.379 . S
C1050 N1058 1.356 . S
C1051 C1050 1.363 1_565 S
C1051 C1057 1.363 . S
C1052 C1053 1.363 1_565 S
C1052 C1057 1.379 . S
C1052 N1059 1.356 . S
C1053 C1052 1.363 1_545 S
C1053 C1056 1.363 . S
N1054 C1056 1.356 . S
N1054 H1066 0.984 . S
N1054 H1067 0.985 . S
N1055 C1057 1.356 . S
N1055 H1060 0.984 . S
N1055 H1061 0.985 . S
C1056 C1050 1.379 . S
C1056 C1053 1.363 . S
C1056 N1054 1.356 . S
C1057 C1051 1.363 . S
C1057 C1052 1.379 . S
C1057 N1055 1.356 . S
N1058 C1050 1.356 . S
N1058 H1064 0.984 . S
N1058 H1065 0.984 . S
N1059 C1052 1.356 . S
N1059 H1062 0.984 . S
N1059 H1063 0.985 . S
H1060 N1055 0.984 . S
H1061 N1055 0.985 . S
H1062 N1059 0.984 . S
H1063 N1059 0.985 . S
H1064 N1058 0.984 . S
H1065 N1058 0.984 . S
H1066 N1054 0.984 . S
H1067 N1054 0.985 . S
C1068 C1069 1.363 1_455 S
C1068 C1074 1.379 . S
C1068 N1076 1.356 . S
C1069 C1068 1.363 1_655 S
C1069 C1075 1.363 . S
C1070 C1071 1.363 1_655 S
C1070 C1075 1.379 . S
C1070 N1077 1.356 . S
C1071 C1070 1.363 1_455 S
C1071 C1074 1.363 . S
N1072 C1074 1.356 . S
N1072 H1084 0.984 . S
N1072 H1085 0.985 . S
N1073 C1075 1.356 . S
N1073 H1078 0.984 . S
N1073 H1079 0.985 . S
C1074 C1068 1.379 . S
C1074 C1071 1.363 . S
C1074 N1072 1.356 . S
C1075 C1069 1.363 . S
C1075 C1070 1.379 . S
C1075 N1073 1.356 . S
N1076 C1068 1.356 . S
N1076 H1082 0.984 . S
N1076 H1083 0.984 . S
N1077 C1070 1.356 . S
N1077 H1080 0.984 . S
N1077 H1081 0.985 . S
H1078 N1073 0.984 . S
H1079 N1073 0.985 . S
H1080 N1077 0.984 . S
H1081 N1077 0.985 . S
H1082 N1076 0.984 . S
H1083 N1076 0.984 . S
H1084 N1072 0.984 . S
H1085 N1072 0.985 . S
C1086 C1087 1.363 . S
C1086 C1092 1.379 . S
C1086 N1094 1.356 . S
C1087 C1086 1.363 . S
C1087 C1093 1.363 1_545 S
C1088 C1089 1.363 . S
C1088 C1093 1.379 . S
C1088 N1095 1.356 . S
C1089 C1088 1.363 . S
C1089 C1092 1.363 1_565 S
N1090 C1092 1.356 . S
N1090 H1102 0.984 . S
N1090 H1103 0.985 . S
N1091 C1093 1.356 . S
N1091 H1096 0.984 . S
N1091 H1097 0.985 . S
C1092 C1086 1.379 . S
C1092 C1089 1.363 1_545 S
C1092 N1090 1.356 . S
C1093 C1087 1.363 1_565 S
C1093 C1088 1.379 . S
C1093 N1091 1.356 . S
N1094 C1086 1.356 . S
N1094 H1100 0.984 . S
N1094 H1101 0.984 . S
N1095 C1088 1.356 . S
N1095 H1098 0.984 . S
N1095 H1099 0.985 . S
H1096 N1091 0.984 . S
H1097 N1091 0.985 . S
H1098 N1095 0.984 . S
H1099 N1095 0.985 . S
H1100 N1094 0.984 . S
H1101 N1094 0.984 . S
H1102 N1090 0.984 . S
H1103 N1090 0.985 . S
C1104 C1105 1.363 . S
C1104 C1110 1.379 . S
C1104 N1112 1.356 . S
C1105 C1104 1.363 . S
C1105 C1111 1.363 . S
C1106 C1107 1.363 . S
C1106 C1111 1.379 . S
C1106 N1113 1.356 . S
C1107 C1106 1.363 . S
C1107 C1110 1.363 . S
N1108 C1110 1.356 . S
N1108 H1120 0.984 . S
N1108 H1121 0.985 . S
N1109 C1111 1.356 . S
N1109 H1114 0.984 . S
N1109 H1115 0.985 . S
C1110 C1104 1.379 . S
C1110 C1107 1.363 . S
C1110 N1108 1.356 . S
C1111 C1105 1.363 . S
C1111 C1106 1.379 . S
C1111 N1109 1.356 . S
N1112 C1104 1.356 . S
N1112 H1118 0.984 . S
N1112 H1119 0.984 . S
N1113 C1106 1.356 . S
N1113 H1116 0.984 . S
N1113 H1117 0.985 . S
H1114 N1109 0.984 . S
H1115 N1109 0.985 . S
H1116 N1113 0.984 . S
H1117 N1113 0.985 . S
H1118 N1112 0.984 . S
H1119 N1112 0.984 . S
H1120 N1108 0.984 . S
H1121 N1108 0.985 . S
C1122 C1123 1.363 . S
C1122 C1128 1.379 . S
C1122 N1130 1.356 . S
C1123 C1122 1.363 . S
C1123 C1129 1.363 . S
C1124 C1125 1.363 . S
C1124 C1129 1.379 . S
C1124 N1131 1.356 . S
C1125 C1124 1.363 . S
C1125 C1128 1.363 . S
N1126 C1128 1.356 . S
N1126 H1138 0.984 . S
N1126 H1139 0.985 . S
N1127 C1129 1.356 . S
N1127 H1132 0.984 . S
N1127 H1133 0.985 . S
C1128 C1122 1.379 . S
C1128 C1125 1.363 . S
C1128 N1126 1.356 . S
C1129 C1123 1.363 . S
C1129 C1124 1.379 . S
C1129 N1127 1.356 . S
N1130 C1122 1.356 . S
N1130 H1136 0.984 . S
N1130 H1137 0.984 . S
N1131 C1124 1.356 . S
N1131 H1134 0.984 . S
N1131 H1135 0.985 . S
H1132 N1127 0.984 . S
H1133 N1127 0.985 . S
H1134 N1131 0.984 . S
H1135 N1131 0.985 . S
H1136 N1130 0.984 . S
H1137 N1130 0.984 . S
H1138 N1126 0.984 . S
H1139 N1126 0.985 . S
C1140 C1141 1.363 . S
C1140 C1146 1.379 . S
C1140 N1148 1.356 . S
C1141 C1140 1.363 . S
C1141 C1147 1.363 . S
C1142 C1143 1.363 . S
C1142 C1147 1.379 . S
C1142 N1149 1.356 . S
C1143 C1142 1.363 . S
C1143 C1146 1.363 . S
N1144 C1146 1.356 . S
N1144 H1156 0.984 . S
N1144 H1157 0.985 . S
N1145 C1147 1.356 . S
N1145 H1150 0.984 . S
N1145 H1151 0.985 . S
C1146 C1140 1.379 . S
C1146 C1143 1.363 . S
C1146 N1144 1.356 . S
C1147 C1141 1.363 . S
C1147 C1142 1.379 . S
C1147 N1145 1.356 . S
N1148 C1140 1.356 . S
N1148 H1154 0.984 . S
N1148 H1155 0.984 . S
N1149 C1142 1.356 . S
N1149 H1152 0.984 . S
N1149 H1153 0.985 . S
H1150 N1145 0.984 . S
H1151 N1145 0.985 . S
H1152 N1149 0.984 . S
H1153 N1149 0.985 . S
H1154 N1148 0.984 . S
H1155 N1148 0.984 . S
H1156 N1144 0.984 . S
H1157 N1144 0.985 . S
C1158 C1159 1.363 . S
C1158 C1164 1.379 . S
C1158 N1166 1.356 . S
C1159 C1158 1.363 . S
C1159 C1165 1.363 . S
C1160 C1161 1.363 . S
C1160 C1165 1.379 . S
C1160 N1167 1.356 . S
C1161 C1160 1.363 . S
C1161 C1164 1.363 . S
N1162 C1164 1.356 . S
N1162 H1174 0.984 . S
N1162 H1175 0.985 . S
N1163 C1165 1.356 . S
N1163 H1168 0.984 . S
N1163 H1169 0.985 . S
C1164 C1158 1.379 . S
C1164 C1161 1.363 . S
C1164 N1162 1.356 . S
C1165 C1159 1.363 . S
C1165 C1160 1.379 . S
C1165 N1163 1.356 . S
N1166 C1158 1.356 . S
N1166 H1172 0.984 . S
N1166 H1173 0.984 . S
N1167 C1160 1.356 . S
N1167 H1170 0.984 . S
N1167 H1171 0.985 . S
H1168 N1163 0.984 . S
H1169 N1163 0.985 . S
H1170 N1167 0.984 . S
H1171 N1167 0.985 . S
H1172 N1166 0.984 . S
H1173 N1166 0.984 . S
H1174 N1162 0.984 . S
H1175 N1162 0.985 . S
C1176 C1177 1.363 . S
C1176 C1182 1.379 . S
C1176 N1184 1.356 . S
C1177 C1176 1.363 . S
C1177 C1183 1.363 . S
C1178 C1179 1.363 . S
C1178 C1183 1.379 . S
C1178 N1185 1.356 . S
C1179 C1178 1.363 . S
C1179 C1182 1.363 . S
N1180 C1182 1.356 . S
N1180 H1192 0.984 . S
N1180 H1193 0.985 . S
N1181 C1183 1.356 . S
N1181 H1186 0.984 . S
N1181 H1187 0.985 . S
C1182 C1176 1.379 . S
C1182 C1179 1.363 . S
C1182 N1180 1.356 . S
C1183 C1177 1.363 . S
C1183 C1178 1.379 . S
C1183 N1181 1.356 . S
N1184 C1176 1.356 . S
N1184 H1190 0.984 . S
N1184 H1191 0.984 . S
N1185 C1178 1.356 . S
N1185 H1188 0.984 . S
N1185 H1189 0.985 . S
H1186 N1181 0.984 . S
H1187 N1181 0.985 . S
H1188 N1185 0.984 . S
H1189 N1185 0.985 . S
H1190 N1184 0.984 . S
H1191 N1184 0.984 . S
H1192 N1180 0.984 . S
H1193 N1180 0.985 . S
C1194 C1195 1.363 . S
C1194 C1200 1.379 . S
C1194 N1202 1.356 . S
C1195 C1194 1.363 . S
C1195 C1201 1.363 . S
C1196 C1197 1.363 . S
C1196 C1201 1.379 . S
C1196 N1203 1.356 . S
C1197 C1196 1.363 . S
C1197 C1200 1.363 . S
N1198 C1200 1.356 . S
N1198 H1210 0.984 . S
N1198 H1211 0.985 . S
N1199 C1201 1.356 . S
N1199 H1204 0.984 . S
N1199 H1205 0.985 . S
C1200 C1194 1.379 . S
C1200 C1197 1.363 . S
C1200 N1198 1.356 . S
C1201 C1195 1.363 . S
C1201 C1196 1.379 . S
C1201 N1199 1.356 . S
N1202 C1194 1.356 . S
N1202 H1208 0.984 . S
N1202 H1209 0.984 . S
N1203 C1196 1.356 . S
N1203 H1206 0.984 . S
N1203 H1207 0.985 . S
H1204 N1199 0.984 . S
H1205 N1199 0.985 . S
H1206 N1203 0.984 . S
H1207 N1203 0.985 . S
H1208 N1202 0.984 . S
H1209 N1202 0.984 . S
H1210 N1198 0.984 . S
H1211 N1198 0.985 . S
C1212 C1213 1.363 . S
C1212 C1218 1.379 . S
C1212 N1220 1.356 . S
C1213 C1212 1.363 . S
C1213 C1219 1.363 . S
C1214 C1215 1.363 . S
C1214 C1219 1.379 . S
C1214 N1221 1.356 . S
C1215 C1214 1.363 . S
C1215 C1218 1.363 . S
N1216 C1218 1.356 . S
N1216 H1228 0.984 . S
N1216 H1229 0.985 . S
N1217 C1219 1.356 . S
N1217 H1222 0.984 . S
N1217 H1223 0.985 . S
C1218 C1212 1.379 . S
C1218 C1215 1.363 . S
C1218 N1216 1.356 . S
C1219 C1213 1.363 . S
C1219 C1214 1.379 . S
C1219 N1217 1.356 . S
N1220 C1212 1.356 . S
N1220 H1226 0.984 . S
N1220 H1227 0.984 . S
N1221 C1214 1.356 . S
N1221 H1224 0.984 . S
N1221 H1225 0.985 . S
H1222 N1217 0.984 . S
H1223 N1217 0.985 . S
H1224 N1221 0.984 . S
H1225 N1221 0.985 . S
H1226 N1220 0.984 . S
H1227 N1220 0.984 . S
H1228 N1216 0.984 . S
H1229 N1216 0.985 . S
C1230 C1231 1.363 . S
C1230 C1236 1.379 . S
C1230 N1238 1.356 . S
C1231 C1230 1.363 . S
C1231 C1237 1.363 . S
C1232 C1233 1.363 . S
C1232 C1237 1.379 . S
C1232 N1239 1.356 . S
C1233 C1232 1.363 . S
C1233 C1236 1.363 . S
N1234 C1236 1.356 . S
N1234 H1246 0.984 . S
N1234 H1247 0.985 . S
N1235 C1237 1.356 . S
N1235 H1240 0.984 . S
N1235 H1241 0.985 . S
C1236 C1230 1.379 . S
C1236 C1233 1.363 . S
C1236 N1234 1.356 . S
C1237 C1231 1.363 . S
C1237 C1232 1.379 . S
C1237 N1235 1.356 . S
N1238 C1230 1.356 . S
N1238 H1244 0.984 . S
N1238 H1245 0.984 . S
N1239 C1232 1.356 . S
N1239 H1242 0.984 . S
N1239 H1243 0.985 . S
H1240 N1235 0.984 . S
H1241 N1235 0.985 . S
H1242 N1239 0.984 . S
H1243 N1239 0.985 . S
H1244 N1238 0.984 . S
H1245 N1238 0.984 . S
H1246 N1234 0.984 . S
H1247 N1234 0.985 . S
C529 N2 1.348 . S
C531 N497 1.348 . S
C547 N35 1.348 . S
C549 N398 1.348 . S
C565 N431 1.348 . S
C567 N68 1.348 . S
C583 N101 1.348 . S
C585 N464 1.348 . S
C601 N134 1.348 . S
C603 N299 1.348 . S
C619 N332 1.348 . S
C621 N167 1.348 . S
C637 N365 1.348 . S
C639 N200 1.348 . S
C655 N266 1.348 . S
C657 N233 1.348 . S
C673 N112 1.512 . S
C675 C21 1.582 . S
C691 N13 1.512 . S
C693 C54 1.582 . S
C709 C87 1.582 . S
C711 N46 1.512 . S
C727 C120 1.582 . S
C729 N79 1.512 . S
C745 N178 1.511 . S
C747 C153 1.582 . S
C763 N211 1.511 . S
C765 C186 1.582 . S
C781 N244 1.511 . S
C783 C219 1.582 . S
C799 N145 1.511 . S
C801 C252 1.582 . S
C817 N376 1.511 . S
C819 C285 1.582 . S
C835 C318 1.582 . S
C837 N277 1.511 . S
C853 N310 1.511 . S
C855 C351 1.582 . S
C871 N343 1.511 . S
C873 C384 1.582 . S
C889 N442 1.511 . S
C891 C417 1.582 . S
C907 N475 1.511 . S
C909 C450 1.582 . S
C925 N508 1.511 . S
C927 C483 1.582 . S
C943 N409 1.511 . S
C945 C516 1.582 . S
C961 C205 1.646 . S
C963 C7 1.646 . S
C979 C238 1.646 . S
C981 C40 1.646 . S
C997 C73 1.646 . S
C999 C139 1.646 . S
C1015 C172 1.646 . S
C1017 C106 1.646 . S
C1033 C84 1.187 1_455 S
C1035 C150 1.187 1_655 S
C1051 C183 1.187 1_565 S
C1053 C117 1.187 1_545 S
C1069 C18 1.187 1_655 S
C1071 C216 1.187 1_455 S
C1087 C249 1.187 1_545 S
C1089 C51 1.187 1_565 S
C1105 C469 1.646 . S
C1107 C271 1.646 . S
C1123 C502 1.646 . S
C1125 C304 1.646 . S
C1141 C403 1.646 . S
C1143 C337 1.646 . S
C1159 C370 1.646 . S
C1161 C436 1.646 . S
C1177 C414 1.187 . S
C1179 C348 1.187 . S
C1195 C381 1.187 . S
C1197 C447 1.187 . S
C1213 C282 1.187 . S
C1215 C480 1.187 . S
C1231 C513 1.187 . S
C1233 C315 1.187 . S
