# Generated by pormake.
# Topology wne, (6)-cn, num edge types: 1
# Building blocks:
#     Node 0, Type 0, BuildingBlock: VOLQOD_clean_sbu_1, # of connection points: 6
#     Node 1, Type 0, BuildingBlock: VOLQOD_clean_sbu_1, # of connection points: 6
#     Node 2, Type 0, BuildingBlock: VOLQOD_clean_sbu_1, # of connection points: 6
#     Node 3, Type 0, BuildingBlock: VOLQOD_clean_sbu_1, # of connection points: 6
#     Node 4, Type 0, BuildingBlock: VOLQOD_clean_sbu_1, # of connection points: 6
#     Node 5, Type 0, BuildingBlock: VOLQOD_clean_sbu_1, # of connection points: 6
#     Node 6, Type 0, BuildingBlock: VOLQOD_clean_sbu_1, # of connection points: 6
#     Node 7, Type 0, BuildingBlock: VOLQOD_clean_sbu_1, # of connection points: 6
#     Node 8, Type 0, BuildingBlock: VOLQOD_clean_sbu_1, # of connection points: 6
#     Node 9, Type 0, BuildingBlock: VOLQOD_clean_sbu_1, # of connection points: 6
#     Node 10, Type 0, BuildingBlock: VOLQOD_clean_sbu_1, # of connection points: 6
#     Node 11, Type 0, BuildingBlock: VOLQOD_clean_sbu_1, # of connection points: 6
#     Node 12, Type 0, BuildingBlock: VOLQOD_clean_sbu_1, # of connection points: 6
#     Node 13, Type 0, BuildingBlock: VOLQOD_clean_sbu_1, # of connection points: 6
#     Node 14, Type 0, BuildingBlock: VOLQOD_clean_sbu_1, # of connection points: 6
#     Node 15, Type 0, BuildingBlock: VOLQOD_clean_sbu_1, # of connection points: 6
#     Node 16, Type 0, BuildingBlock: VOLQOD_clean_sbu_1, # of connection points: 6
#     Node 17, Type 0, BuildingBlock: VOLQOD_clean_sbu_1, # of connection points: 6
#     Node 18, Type 0, BuildingBlock: VOLQOD_clean_sbu_1, # of connection points: 6
#     Node 19, Type 0, BuildingBlock: VOLQOD_clean_sbu_1, # of connection points: 6
#     Node 20, Type 0, BuildingBlock: VOLQOD_clean_sbu_1, # of connection points: 6
#     Node 21, Type 0, BuildingBlock: VOLQOD_clean_sbu_1, # of connection points: 6
#     Node 22, Type 0, BuildingBlock: VOLQOD_clean_sbu_1, # of connection points: 6
#     Node 23, Type 0, BuildingBlock: VOLQOD_clean_sbu_1, # of connection points: 6
#     Node 24, Type 0, BuildingBlock: VOLQOD_clean_sbu_1, # of connection points: 6
#     Node 25, Type 0, BuildingBlock: VOLQOD_clean_sbu_1, # of connection points: 6
#     Node 26, Type 0, BuildingBlock: VOLQOD_clean_sbu_1, # of connection points: 6
#     Node 27, Type 0, BuildingBlock: VOLQOD_clean_sbu_1, # of connection points: 6
#     Node 28, Type 0, BuildingBlock: VOLQOD_clean_sbu_1, # of connection points: 6
#     Node 29, Type 0, BuildingBlock: VOLQOD_clean_sbu_1, # of connection points: 6
#     Node 30, Type 0, BuildingBlock: VOLQOD_clean_sbu_1, # of connection points: 6
#     Node 31, Type 0, BuildingBlock: VOLQOD_clean_sbu_1, # of connection points: 6
#     Node 32, Type 0, BuildingBlock: VOLQOD_clean_sbu_1, # of connection points: 6
#     Node 33, Type 0, BuildingBlock: VOLQOD_clean_sbu_1, # of connection points: 6
#     Node 34, Type 0, BuildingBlock: VOLQOD_clean_sbu_1, # of connection points: 6
#     Node 35, Type 0, BuildingBlock: VOLQOD_clean_sbu_1, # of connection points: 6
#     Edge 36, Type (0, 0), None
#     Edge 37, Type (0, 0), None
#     Edge 38, Type (0, 0), None
#     Edge 39, Type (0, 0), None
#     Edge 40, Type (0, 0), None
#     Edge 41, Type (0, 0), None
#     Edge 42, Type (0, 0), None
#     Edge 43, Type (0, 0), None
#     Edge 44, Type (0, 0), None
#     Edge 45, Type (0, 0), None
#     Edge 46, Type (0, 0), None
#     Edge 47, Type (0, 0), None
#     Edge 48, Type (0, 0), None
#     Edge 49, Type (0, 0), None
#     Edge 50, Type (0, 0), None
#     Edge 51, Type (0, 0), None
#     Edge 52, Type (0, 0), None
#     Edge 53, Type (0, 0), None
#     Edge 54, Type (0, 0), None
#     Edge 55, Type (0, 0), None
#     Edge 56, Type (0, 0), None
#     Edge 57, Type (0, 0), None
#     Edge 58, Type (0, 0), None
#     Edge 59, Type (0, 0), None
#     Edge 60, Type (0, 0), None
#     Edge 61, Type (0, 0), None
#     Edge 62, Type (0, 0), None
#     Edge 63, Type (0, 0), None
#     Edge 64, Type (0, 0), None
#     Edge 65, Type (0, 0), None
#     Edge 66, Type (0, 0), None
#     Edge 67, Type (0, 0), None
#     Edge 68, Type (0, 0), None
#     Edge 69, Type (0, 0), None
#     Edge 70, Type (0, 0), None
#     Edge 71, Type (0, 0), None
#     Edge 72, Type (0, 0), None
#     Edge 73, Type (0, 0), None
#     Edge 74, Type (0, 0), None
#     Edge 75, Type (0, 0), None
#     Edge 76, Type (0, 0), None
#     Edge 77, Type (0, 0), None
#     Edge 78, Type (0, 0), None
#     Edge 79, Type (0, 0), None
#     Edge 80, Type (0, 0), None
#     Edge 81, Type (0, 0), None
#     Edge 82, Type (0, 0), None
#     Edge 83, Type (0, 0), None
#     Edge 84, Type (0, 0), None
#     Edge 85, Type (0, 0), None
#     Edge 86, Type (0, 0), None
#     Edge 87, Type (0, 0), None
#     Edge 88, Type (0, 0), None
#     Edge 89, Type (0, 0), None
#     Edge 90, Type (0, 0), None
#     Edge 91, Type (0, 0), None
#     Edge 92, Type (0, 0), None
#     Edge 93, Type (0, 0), None
#     Edge 94, Type (0, 0), None
#     Edge 95, Type (0, 0), None
#     Edge 96, Type (0, 0), None
#     Edge 97, Type (0, 0), None
#     Edge 98, Type (0, 0), None
#     Edge 99, Type (0, 0), None
#     Edge 100, Type (0, 0), None
#     Edge 101, Type (0, 0), None
#     Edge 102, Type (0, 0), None
#     Edge 103, Type (0, 0), None
#     Edge 104, Type (0, 0), None
#     Edge 105, Type (0, 0), None
#     Edge 106, Type (0, 0), None
#     Edge 107, Type (0, 0), None
#     Edge 108, Type (0, 0), None
#     Edge 109, Type (0, 0), None
#     Edge 110, Type (0, 0), None
#     Edge 111, Type (0, 0), None
#     Edge 112, Type (0, 0), None
#     Edge 113, Type (0, 0), None
#     Edge 114, Type (0, 0), None
#     Edge 115, Type (0, 0), None
#     Edge 116, Type (0, 0), None
#     Edge 117, Type (0, 0), None
#     Edge 118, Type (0, 0), None
#     Edge 119, Type (0, 0), None
#     Edge 120, Type (0, 0), None
#     Edge 121, Type (0, 0), None
#     Edge 122, Type (0, 0), None
#     Edge 123, Type (0, 0), None
#     Edge 124, Type (0, 0), None
#     Edge 125, Type (0, 0), None
#     Edge 126, Type (0, 0), None
#     Edge 127, Type (0, 0), None
#     Edge 128, Type (0, 0), None
#     Edge 129, Type (0, 0), None
#     Edge 130, Type (0, 0), None
#     Edge 131, Type (0, 0), None
#     Edge 132, Type (0, 0), None
#     Edge 133, Type (0, 0), None
#     Edge 134, Type (0, 0), None
#     Edge 135, Type (0, 0), None
#     Edge 136, Type (0, 0), None
#     Edge 137, Type (0, 0), None
#     Edge 138, Type (0, 0), None
#     Edge 139, Type (0, 0), None
#     Edge 140, Type (0, 0), None
#     Edge 141, Type (0, 0), None
#     Edge 142, Type (0, 0), None
#     Edge 143, Type (0, 0), None
# Relax obj value: 0.169
# Max RMSD: 0.144
# Mean RMSD: 0.144
data_MOF--net-wne--node1-VOLQOD_clean_sbu_1--edge1-none
_symmetry_space_group_name_H-M    P1
_symmetry_Int_Tables_number       1
_symmetry_cell_setting            triclinic
loop_
_symmetry_equiv_pos_as_xyz
'x, y, z'
_cell_length_a     35.634495
_cell_length_b     35.634538
_cell_length_c     22.561861
_cell_angle_alpha  90.000586
_cell_angle_beta   90.001202
_cell_angle_gamma 120.00149
loop_
_atom_site_label
_atom_site_type_symbol
_atom_site_fract_x
_atom_site_fract_y
_atom_site_fract_z
_atom_type_partial_charge
O0 O 0.28981 0.20633 0.99209 0.0
Zn1 Zn 0.26174 0.2014 0.07033 0.0
O2 O 0.19926 0.16438 0.06969 0.0
Zn3 Zn 0.18142 0.1159 0.12463 0.0
Zn4 Zn 0.18209 0.14662 0.9883 0.0
Zn5 Zn 0.1724 0.19655 0.09555 0.0
O6 O 0.15359 0.12406 0.20105 0.0
O7 O 0.15407 0.1854 0.18116 0.0
O8 O 0.29031 0.17972 0.12472 0.0
O9 O 0.23478 0.11636 0.15282 0.0
O10 O 0.15039 0.05812 0.08 0.0
O11 O 0.16536 0.08444 0.98775 0.0
O12 O 0.1294 0.15224 0.9637 0.0
O13 O 0.27709 0.26197 0.0861 0.0
O14 O 0.12032 0.17983 0.04723 0.0
O15 O 0.21371 0.2602 0.0836 0.0
C16 C 0.27469 0.19813 0.93991 0.0
C17 C 0.14665 0.15466 0.21658 0.0
C18 C 0.15267 0.05306 0.02423 0.0
C19 C 0.27516 0.14342 0.1508 0.0
C20 C 0.10767 0.1642 0.99568 0.0
C21 C 0.25496 0.28097 0.08353 0.0
O22 O 0.23377 0.17809 0.93057 0.0
O23 O 0.7216 0.06906 0.99209 0.0
Zn24 Zn 0.72653 0.04592 0.07033 0.0
O25 O 0.76355 0.02047 0.06969 0.0
Zn26 Zn 0.81204 0.05111 0.12463 0.0
Zn27 Zn 0.78131 0.02106 0.98831 0.0
Zn28 Zn 0.73138 0.96144 0.09555 0.0
O29 O 0.80387 0.01512 0.20106 0.0
O30 O 0.74253 0.95425 0.18116 0.0
O31 O 0.74821 0.09618 0.12472 0.0
O32 O 0.81158 0.10402 0.15282 0.0
O33 O 0.86981 0.07786 0.08001 0.0
O34 O 0.84349 0.06651 0.98776 0.0
O35 O 0.77569 0.96275 0.9637 0.0
O36 O 0.66596 0.0007 0.08611 0.0
O37 O 0.7481 0.92608 0.04723 0.0
O38 O 0.66772 0.93909 0.0836 0.0
C39 C 0.7298 0.06215 0.93992 0.0
C40 C 0.77327 -0.02242 0.21659 0.0
C41 C 0.87487 0.0852 0.02424 0.0
C42 C 0.78451 0.11733 0.1508 0.0
C43 C 0.76372 0.92906 0.99568 0.0
C44 C 0.64696 0.95959 0.08353 0.0
O45 O 0.74985 0.04127 0.93057 0.0
O46 O 0.85886 0.63812 0.99209 0.0
Zn47 Zn 0.88201 0.66619 0.07033 0.0
O48 O 0.90746 0.72867 0.06969 0.0
Zn49 Zn 0.87682 0.74652 0.12463 0.0
Zn50 Zn 0.90687 0.74584 0.9883 0.0
Zn51 Zn -0.03351 0.75553 0.09554 0.0
O52 O 0.91281 0.77434 0.20105 0.0
O53 O -0.02632 0.77387 0.18116 0.0
O54 O 0.83176 0.63762 0.12472 0.0
O55 O 0.82392 0.69315 0.15281 0.0
O56 O 0.85008 0.77754 0.08001 0.0
O57 O 0.86142 0.76257 0.98776 0.0
O58 O -0.03481 0.79853 0.96369 0.0
O59 O 0.92723 0.65084 0.0861 0.0
O60 O 0.00185 0.80761 0.04723 0.0
O61 O -0.01116 0.71422 0.08359 0.0
C62 C 0.86578 0.65324 0.93991 0.0
C63 C 0.95035 0.78128 0.21658 0.0
C64 C 0.84274 0.77527 0.02423 0.0
C65 C 0.81061 0.65278 0.1508 0.0
C66 C -0.00113 0.82026 0.99568 0.0
C67 C -0.03166 0.67297 0.08353 0.0
O68 O 0.88666 0.69416 0.93057 0.0
O69 O 0.19192 0.30422 0.50424 0.0
Zn70 Zn 0.18699 0.27615 0.426 0.0
O71 O 0.14996 0.21367 0.42663 0.0
Zn72 Zn 0.10148 0.19583 0.37169 0.0
Zn73 Zn 0.13221 0.19651 0.50802 0.0
Zn74 Zn 0.18214 0.18682 0.40079 0.0
O75 O 0.10965 0.16801 0.29527 0.0
O76 O 0.17099 0.16847 0.31518 0.0
O77 O 0.16531 0.30472 0.3716 0.0
O78 O 0.10194 0.2492 0.3435 0.0
O79 O 0.04371 0.16481 0.41631 0.0
O80 O 0.07002 0.17978 0.50856 0.0
O81 O 0.13783 0.14381 0.53263 0.0
O82 O 0.24756 0.2915 0.41022 0.0
O83 O 0.16542 0.13474 0.4491 0.0
O84 O 0.24579 0.22812 0.41273 0.0
C85 C 0.18372 0.28911 0.55641 0.0
C86 C 0.14025 0.16106 0.27976 0.0
C87 C 0.03864 0.16708 0.47208 0.0
C88 C 0.12901 0.28957 0.34553 0.0
C89 C 0.14979 0.12209 0.50065 0.0
C90 C 0.26655 0.26938 0.4128 0.0
O91 O 0.16367 0.24818 0.56575 0.0
O92 O 0.62371 0.87328 0.50424 0.0
Zn93 Zn 0.65178 0.89642 0.426 0.0
O94 O 0.71426 0.92188 0.42664 0.0
Zn95 Zn 0.7321 0.89124 0.3717 0.0
Zn96 Zn 0.73142 0.92129 0.50802 0.0
Zn97 Zn 0.74111 -0.01909 0.40079 0.0
O98 O 0.75992 0.92723 0.29527 0.0
O99 O 0.75945 -0.0119 0.31518 0.0
O100 O 0.62321 0.84617 0.37161 0.0
O101 O 0.67874 0.83834 0.34351 0.0
O102 O 0.76313 0.86449 0.41632 0.0
O103 O 0.74815 0.87583 0.50857 0.0
O104 O 0.78412 -0.0204 0.53264 0.0
O105 O 0.63643 0.94164 0.41023 0.0
O106 O 0.79319 0.01627 0.44911 0.0
O107 O 0.69981 0.00326 0.41274 0.0
C108 C 0.63882 0.8802 0.55641 0.0
C109 C 0.76687 0.96478 0.27976 0.0
C110 C 0.76085 0.85715 0.47209 0.0
C111 C 0.63836 0.82503 0.34553 0.0
C112 C 0.80584 0.01329 0.50066 0.0
C113 C 0.65855 -0.01724 0.4128 0.0
O114 O 0.67975 0.90107 0.56576 0.0
O115 O 0.05465 0.73601 0.50424 0.0
Zn116 Zn 0.03151 0.74095 0.426 0.0
O117 O 0.00606 0.77797 0.42663 0.0
Zn118 Zn 0.03669 0.82645 0.37169 0.0
Zn119 Zn 0.00665 0.79573 0.50802 0.0
Zn120 Zn 0.94702 0.74579 0.40079 0.0
O121 O 0.0007 0.81828 0.29527 0.0
O122 O 0.93983 0.75694 0.31518 0.0
O123 O 0.08176 0.76263 0.3716 0.0
O124 O 0.0896 0.82599 0.3435 0.0
O125 O 0.06344 0.88422 0.41631 0.0
O126 O 0.0521 0.85791 0.50856 0.0
O127 O 0.94833 0.7901 0.53264 0.0
O128 O -0.01371 0.68038 0.41022 0.0
O129 O 0.91166 0.76251 0.44911 0.0
O130 O 0.92468 0.68214 0.41274 0.0
C131 C 0.04774 0.74422 0.55641 0.0
C132 C -0.03685 0.78768 0.27976 0.0
C133 C 0.07078 0.88929 0.47208 0.0
C134 C 0.10291 0.79893 0.34553 0.0
C135 C 0.91465 0.77814 0.50066 0.0
C136 C 0.94517 0.66138 0.4128 0.0
O137 O 0.02686 0.76427 0.56575 0.0
O138 O 0.62371 0.73602 0.00424 0.0
Zn139 Zn 0.65178 0.74095 0.926 0.0
O140 O 0.71426 0.77797 0.92664 0.0
Zn141 Zn 0.7321 0.82645 0.8717 0.0
Zn142 Zn 0.73143 0.79573 0.00803 0.0
Zn143 Zn 0.74111 0.7458 0.90078 0.0
O144 O 0.75993 0.81829 0.79528 0.0
O145 O 0.75945 0.75695 0.81517 0.0
O146 O 0.62321 0.76263 0.87161 0.0
O147 O 0.67874 0.82599 0.84351 0.0
O148 O 0.76313 0.88423 0.91632 0.0
O149 O 0.74817 0.85791 0.00858 0.0
O150 O 0.78411 0.7901 0.03264 0.0
O151 O 0.63643 0.68038 0.91023 0.0
O152 O 0.7932 0.76252 0.94909 0.0
O153 O 0.69981 0.68214 0.91273 0.0
C154 C 0.63882 0.74422 0.05641 0.0
C155 C 0.76687 0.78769 0.77975 0.0
C156 C 0.76087 0.88929 0.9721 0.0
C157 C 0.63836 0.79893 0.84553 0.0
C158 C 0.80584 0.77814 0.00064 0.0
C159 C 0.65855 0.66138 0.9128 0.0
O160 O 0.67975 0.76427 0.06576 0.0
O161 O 0.19192 0.87328 0.00424 0.0
Zn162 Zn 0.18699 0.89642 0.926 0.0
O163 O 0.14996 0.92187 0.92663 0.0
Zn164 Zn 0.10148 0.89124 0.87169 0.0
Zn165 Zn 0.13221 0.92129 0.00802 0.0
Zn166 Zn 0.18214 -0.01909 0.90078 0.0
O167 O 0.10965 0.92723 0.79527 0.0
O168 O 0.17099 -0.01191 0.81517 0.0
O169 O 0.16531 0.84617 0.8716 0.0
O170 O 0.10194 0.83833 0.8435 0.0
O171 O 0.04371 0.86449 0.91631 0.0
O172 O 0.07002 0.87584 0.00857 0.0
O173 O 0.13784 -0.02039 0.03263 0.0
O174 O 0.24756 0.94164 0.91022 0.0
O175 O 0.16542 0.01627 0.94909 0.0
O176 O 0.24579 0.00325 0.91273 0.0
C177 C 0.18371 0.88019 0.05641 0.0
C178 C 0.14025 0.96477 0.77974 0.0
C179 C 0.03864 0.85717 0.97209 0.0
C180 C 0.129 0.82502 0.84553 0.0
C181 C 0.14979 0.01329 0.00064 0.0
C182 C 0.26655 -0.01724 0.9128 0.0
O183 O 0.16367 0.90107 0.06575 0.0
O184 O 0.05466 0.30423 0.00424 0.0
Zn185 Zn 0.03151 0.27616 0.926 0.0
O186 O 0.00606 0.21368 0.92664 0.0
Zn187 Zn 0.0367 0.19583 0.8717 0.0
Zn188 Zn 0.00665 0.19651 0.00803 0.0
Zn189 Zn 0.94703 0.18682 0.90078 0.0
O190 O 0.00071 0.16801 0.79528 0.0
O191 O 0.93984 0.16848 0.81517 0.0
O192 O 0.08176 0.30472 0.8716 0.0
O193 O 0.0896 0.2492 0.84351 0.0
O194 O 0.06344 0.1648 0.91632 0.0
O195 O 0.05209 0.17977 0.00858 0.0
O196 O 0.94833 0.14382 0.03264 0.0
O197 O -0.0137 0.29151 0.91023 0.0
O198 O 0.91166 0.13474 0.94909 0.0
O199 O 0.92468 0.22813 0.91273 0.0
C200 C 0.04775 0.28911 0.05641 0.0
C201 C -0.03684 0.16107 0.77975 0.0
C202 C 0.07076 0.16706 0.97209 0.0
C203 C 0.10291 0.28957 0.84553 0.0
C204 C 0.91465 0.1221 0.00065 0.0
C205 C 0.94518 0.26938 0.9128 0.0
O206 O 0.02687 0.24819 0.06576 0.0
O207 O 0.7216 0.63813 0.49209 0.0
Zn208 Zn 0.72653 0.6662 0.57033 0.0
O209 O 0.76356 0.72867 0.56969 0.0
Zn210 Zn 0.81204 0.74652 0.62464 0.0
Zn211 Zn 0.78131 0.74584 0.48831 0.0
Zn212 Zn 0.73138 0.75553 0.59554 0.0
O213 O 0.80387 0.77434 0.70106 0.0
O214 O 0.74253 0.77387 0.68115 0.0
O215 O 0.74821 0.63762 0.62472 0.0
O216 O 0.81158 0.69315 0.65283 0.0
O217 O 0.86982 0.77754 0.58002 0.0
O218 O 0.8435 0.76259 0.48776 0.0
O219 O 0.77568 0.79853 0.46369 0.0
O220 O 0.66596 0.65084 0.5861 0.0
O221 O 0.7481 0.80761 0.54723 0.0
O222 O 0.66773 0.71422 0.58359 0.0
C223 C 0.72981 0.65324 0.43992 0.0
C224 C 0.77327 0.78129 0.71657 0.0
C225 C 0.87488 0.77529 0.52424 0.0
C226 C 0.78452 0.65278 0.6508 0.0
C227 C 0.76373 0.82026 0.49568 0.0
C228 C 0.64697 0.67297 0.58353 0.0
O229 O 0.74986 0.69417 0.43058 0.0
O230 O 0.28981 0.06907 0.49209 0.0
Zn231 Zn 0.26174 0.04593 0.57033 0.0
O232 O 0.19926 0.02047 0.56969 0.0
Zn233 Zn 0.18142 0.05111 0.62463 0.0
Zn234 Zn 0.18209 0.02106 0.4883 0.0
Zn235 Zn 0.17241 0.96144 0.59554 0.0
O236 O 0.15359 0.01512 0.70105 0.0
O237 O 0.15407 0.95425 0.68115 0.0
O238 O 0.29031 0.09618 0.62472 0.0
O239 O 0.23478 0.10401 0.65282 0.0
O240 O 0.15039 0.07786 0.58001 0.0
O241 O 0.16535 0.06651 0.48775 0.0
O242 O 0.12941 0.96274 0.46369 0.0
O243 O 0.27709 0.00071 0.5861 0.0
O244 O 0.12033 0.92608 0.54723 0.0
O245 O 0.21371 0.93909 0.58359 0.0
C246 C 0.2747 0.06216 0.43991 0.0
C247 C 0.14664 -0.02243 0.71656 0.0
C248 C 0.15265 0.08518 0.52424 0.0
C249 C 0.27516 0.11733 0.6508 0.0
C250 C 0.10768 0.92906 0.49567 0.0
C251 C 0.25497 0.95959 0.58352 0.0
O252 O 0.23377 0.04128 0.43057 0.0
O253 O 0.85886 0.20633 0.49209 0.0
Zn254 Zn 0.88201 0.2014 0.57033 0.0
O255 O 0.90746 0.16438 0.56969 0.0
Zn256 Zn 0.87682 0.1159 0.62464 0.0
Zn257 Zn 0.90687 0.14662 0.48831 0.0
Zn258 Zn -0.03351 0.19656 0.59554 0.0
O259 O 0.91282 0.12407 0.70106 0.0
O260 O -0.02631 0.18541 0.68115 0.0
O261 O 0.83175 0.17972 0.62472 0.0
O262 O 0.82392 0.11635 0.65282 0.0
O263 O 0.85008 0.05812 0.58002 0.0
O264 O 0.86143 0.08443 0.48776 0.0
O265 O -0.03481 0.15225 0.46369 0.0
O266 O 0.92723 0.26197 0.58611 0.0
O267 O 0.00185 0.17984 0.54723 0.0
O268 O -0.01116 0.26021 0.58359 0.0
C269 C 0.86577 0.19813 0.43992 0.0
C270 C 0.95037 0.15467 0.71657 0.0
C271 C 0.84275 0.05306 0.52424 0.0
C272 C 0.81061 0.14342 0.6508 0.0
C273 C -0.00113 0.16421 0.49567 0.0
C274 C -0.03166 0.28097 0.58353 0.0
O275 O 0.88665 0.17808 0.43058 0.0
O276 O 0.95648 0.53967 0.32542 0.0
Zn277 Zn 0.92841 0.53474 0.40366 0.0
O278 O 0.86593 0.49771 0.40302 0.0
Zn279 Zn 0.84808 0.44923 0.45796 0.0
Zn280 Zn 0.84876 0.47996 0.32164 0.0
Zn281 Zn 0.83907 0.52988 0.42888 0.0
O282 O 0.82026 0.4574 0.53438 0.0
O283 O 0.82073 0.51873 0.51449 0.0
O284 O -0.04302 0.51306 0.45806 0.0
O285 O 0.90145 0.44969 0.48615 0.0
O286 O 0.81706 0.39146 0.41334 0.0
O287 O 0.83203 0.41777 0.32109 0.0
O288 O 0.79607 0.48558 0.29703 0.0
O289 O 0.94376 0.59531 0.41944 0.0
O290 O 0.78699 0.51316 0.38056 0.0
O291 O 0.88038 0.59354 0.41693 0.0
C292 C 0.94136 0.53147 0.27325 0.0
C293 C 0.81332 0.488 0.54991 0.0
C294 C 0.81933 0.38639 0.35757 0.0
C295 C 0.94182 0.47675 0.48413 0.0
C296 C 0.77434 0.49754 0.32901 0.0
C297 C 0.92163 0.6143 0.41687 0.0
O298 O 0.90043 0.51142 0.26391 0.0
O299 O 0.38826 0.4024 0.32542 0.0
Zn300 Zn 0.3932 0.37926 0.40366 0.0
O301 O 0.43022 0.35381 0.40302 0.0
Zn302 Zn 0.4787 0.38444 0.45797 0.0
Zn303 Zn 0.44797 0.35439 0.32164 0.0
Zn304 Zn 0.39805 0.29477 0.42888 0.0
O305 O 0.47054 0.34846 0.53439 0.0
O306 O 0.4092 0.28759 0.51449 0.0
O307 O 0.41488 0.42951 0.45805 0.0
O308 O 0.47825 0.43735 0.48615 0.0
O309 O 0.53648 0.41119 0.41334 0.0
O310 O 0.51016 0.39985 0.32109 0.0
O311 O 0.44235 0.29608 0.29703 0.0
O312 O 0.33263 0.33404 0.41944 0.0
O313 O 0.41477 0.25941 0.38056 0.0
O314 O 0.33439 0.27243 0.41693 0.0
C315 C 0.39647 0.39548 0.27325 0.0
C316 C 0.43993 0.31091 0.54992 0.0
C317 C 0.54154 0.41853 0.35757 0.0
C318 C 0.45118 0.45066 0.48413 0.0
C319 C 0.43039 0.26239 0.32901 0.0
C320 C 0.31363 0.29292 0.41686 0.0
O321 O 0.41651 0.3746 0.26391 0.0
O322 O 0.52553 -0.02855 0.32542 0.0
Zn323 Zn 0.54867 -0.00047 0.40366 0.0
O324 O 0.57413 0.062 0.40302 0.0
Zn325 Zn 0.54349 0.07985 0.45796 0.0
Zn326 Zn 0.57354 0.07917 0.32164 0.0
Zn327 Zn 0.63316 0.08886 0.42888 0.0
O328 O 0.57948 0.10767 0.53439 0.0
O329 O 0.64035 0.1072 0.51449 0.0
O330 O 0.49842 0.97096 0.45806 0.0
O331 O 0.49058 0.02649 0.48615 0.0
O332 O 0.51675 0.11088 0.41334 0.0
O333 O 0.52809 0.0959 0.32109 0.0
O334 O 0.63185 0.13186 0.29703 0.0
O335 O 0.59389 -0.01582 0.41944 0.0
O336 O 0.66852 0.14094 0.38056 0.0
O337 O 0.65551 0.04756 0.41693 0.0
C338 C 0.53245 -0.01343 0.27325 0.0
C339 C 0.61702 0.11461 0.54992 0.0
C340 C 0.5094 0.1086 0.35757 0.0
C341 C 0.47728 -0.01389 0.48413 0.0
C342 C 0.66554 0.15359 0.32901 0.0
C343 C 0.63501 0.0063 0.41687 0.0
O344 O 0.55332 0.02749 0.26391 0.0
O345 O 0.85859 0.63756 0.83757 0.0
Zn346 Zn 0.85365 0.60948 0.75933 0.0
O347 O 0.81663 0.54701 0.75997 0.0
Zn348 Zn 0.76815 0.52916 0.70502 0.0
Zn349 Zn 0.79887 0.52984 0.84135 0.0
Zn350 Zn 0.8488 0.52015 0.73412 0.0
O351 O 0.77631 0.50134 0.6286 0.0
O352 O 0.83765 0.5018 0.64851 0.0
O353 O 0.83197 0.63806 0.70494 0.0
O354 O 0.76861 0.58253 0.67684 0.0
O355 O 0.71037 0.49814 0.74964 0.0
O356 O 0.73669 0.51311 0.8419 0.0
O357 O 0.80449 0.47715 0.86597 0.0
O358 O 0.91422 0.62483 0.74355 0.0
O359 O 0.83208 0.46807 0.78244 0.0
O360 O 0.91246 0.56146 0.74607 0.0
C361 C 0.85038 0.62244 0.88974 0.0
C362 C 0.80691 0.49439 0.61309 0.0
C363 C 0.70531 0.50041 0.80542 0.0
C364 C 0.79567 0.6229 0.67886 0.0
C365 C 0.81646 0.45542 0.83399 0.0
C366 C 0.93322 0.60271 0.74613 0.0
O367 O 0.83033 0.58151 0.89908 0.0
O368 O 0.29037 0.20662 0.83757 0.0
Zn369 Zn 0.31844 0.22976 0.75933 0.0
O370 O 0.38092 0.25521 0.75997 0.0
Zn371 Zn 0.39877 0.22458 0.70503 0.0
Zn372 Zn 0.39809 0.25462 0.84135 0.0
Zn373 Zn 0.40778 0.31424 0.73412 0.0
O374 O 0.42659 0.26057 0.6286 0.0
O375 O 0.42612 0.32144 0.64851 0.0
O376 O 0.28987 0.1795 0.70494 0.0
O377 O 0.34541 0.17167 0.67684 0.0
O378 O 0.4298 0.19783 0.74965 0.0
O379 O 0.41482 0.20917 0.8419 0.0
O380 O 0.45078 0.31294 0.86597 0.0
O381 O 0.30309 0.27498 0.74355 0.0
O382 O 0.45986 0.3496 0.78244 0.0
O383 O 0.36647 0.33659 0.74607 0.0
C384 C 0.30549 0.21353 0.88974 0.0
C385 C 0.43354 0.29812 0.61309 0.0
C386 C 0.42752 0.19049 0.80542 0.0
C387 C 0.30503 0.15836 0.67886 0.0
C388 C 0.47251 0.34662 0.83399 0.0
C389 C 0.32522 0.31609 0.74613 0.0
O390 O 0.34642 0.23441 0.89909 0.0
O391 O 0.72132 0.06934 0.83757 0.0
Zn392 Zn 0.69818 0.07428 0.75933 0.0
O393 O 0.67272 0.1113 0.75997 0.0
Zn394 Zn 0.70336 0.15978 0.70503 0.0
Zn395 Zn 0.67331 0.12906 0.84135 0.0
Zn396 Zn 0.61369 0.07912 0.73412 0.0
O397 O 0.66737 0.15161 0.62861 0.0
O398 O 0.6065 0.09027 0.64851 0.0
O399 O 0.74843 0.09596 0.70494 0.0
O400 O 0.75627 0.15932 0.67684 0.0
O401 O 0.73011 0.21756 0.74965 0.0
O402 O 0.71877 0.19124 0.8419 0.0
O403 O 0.615 0.12344 0.86597 0.0
O404 O 0.65296 0.01371 0.74355 0.0
O405 O 0.57833 0.09585 0.78244 0.0
O406 O 0.59134 0.01547 0.74607 0.0
C407 C 0.7144 0.07755 0.88975 0.0
C408 C 0.62982 0.12102 0.61309 0.0
C409 C 0.73745 0.22262 0.80542 0.0
C410 C 0.76958 0.13226 0.67886 0.0
C411 C 0.58131 0.11147 0.83399 0.0
C412 C 0.61184 -0.00529 0.74613 0.0
O413 O 0.69353 0.0976 0.89909 0.0
O414 O 0.29037 0.06935 0.33757 0.0
Zn415 Zn 0.31845 0.07428 0.25933 0.0
O416 O 0.38092 0.11131 0.25997 0.0
Zn417 Zn 0.39877 0.15979 0.20503 0.0
Zn418 Zn 0.39809 0.12906 0.34136 0.0
Zn419 Zn 0.40778 0.07913 0.23411 0.0
O420 O 0.42659 0.15162 0.12861 0.0
O421 O 0.42612 0.09028 0.1485 0.0
O422 O 0.28988 0.09596 0.20493 0.0
O423 O 0.34541 0.15933 0.17684 0.0
O424 O 0.4298 0.21756 0.24965 0.0
O425 O 0.41484 0.19125 0.34191 0.0
O426 O 0.45078 0.12343 0.36597 0.0
O427 O 0.30309 0.01371 0.24356 0.0
O428 O 0.45986 0.09585 0.28242 0.0
O429 O 0.36647 0.01548 0.24606 0.0
C430 C 0.30549 0.07756 0.38974 0.0
C431 C 0.43353 0.12102 0.11308 0.0
C432 C 0.42754 0.22263 0.30543 0.0
C433 C 0.30503 0.13226 0.17886 0.0
C434 C 0.47251 0.11148 0.33398 0.0
C435 C 0.32522 -0.00528 0.24613 0.0
O436 O 0.34642 0.0976 0.39909 0.0
O437 O 0.85858 0.20661 0.33758 0.0
Zn438 Zn 0.85365 0.22975 0.25934 0.0
O439 O 0.81663 0.25521 0.25997 0.0
Zn440 Zn 0.76815 0.22457 0.20503 0.0
Zn441 Zn 0.79888 0.25462 0.34136 0.0
Zn442 Zn 0.84881 0.31424 0.23412 0.0
O443 O 0.77631 0.26056 0.12861 0.0
O444 O 0.83766 0.32143 0.1485 0.0
O445 O 0.83197 0.1795 0.20494 0.0
O446 O 0.76861 0.17167 0.17684 0.0
O447 O 0.71037 0.19782 0.24965 0.0
O448 O 0.73669 0.20918 0.34191 0.0
O449 O 0.80451 0.31294 0.36597 0.0
O450 O 0.91422 0.27497 0.24357 0.0
O451 O 0.83208 0.3496 0.28242 0.0
O452 O 0.91246 0.33659 0.24607 0.0
C453 C 0.85038 0.21352 0.38975 0.0
C454 C 0.80692 0.2981 0.11308 0.0
C455 C 0.70531 0.1905 0.30543 0.0
C456 C 0.79567 0.15836 0.17886 0.0
C457 C 0.81646 0.34662 0.33398 0.0
C458 C 0.93322 0.31609 0.24614 0.0
O459 O 0.83033 0.2344 0.39909 0.0
O460 O 0.72133 0.63756 0.33758 0.0
Zn461 Zn 0.69818 0.60949 0.25933 0.0
O462 O 0.67273 0.54701 0.25997 0.0
Zn463 Zn 0.70336 0.52917 0.20503 0.0
Zn464 Zn 0.67331 0.52984 0.34136 0.0
Zn465 Zn 0.6137 0.52016 0.23411 0.0
O466 O 0.66737 0.50134 0.12861 0.0
O467 O 0.60651 0.50182 0.1485 0.0
O468 O 0.74843 0.63806 0.20494 0.0
O469 O 0.75627 0.58253 0.17684 0.0
O470 O 0.73011 0.49814 0.24965 0.0
O471 O 0.71876 0.5131 0.34191 0.0
O472 O 0.615 0.47716 0.36597 0.0
O473 O 0.65296 0.62484 0.24356 0.0
O474 O 0.57833 0.46807 0.28243 0.0
O475 O 0.59135 0.56146 0.24607 0.0
C476 C 0.71441 0.62245 0.38975 0.0
C477 C 0.62983 0.49441 0.11308 0.0
C478 C 0.73743 0.5004 0.30543 0.0
C479 C 0.76958 0.6229 0.17886 0.0
C480 C 0.58131 0.45543 0.33398 0.0
C481 C 0.61184 0.60272 0.24613 0.0
O482 O 0.69353 0.58152 0.39909 0.0
O483 O 0.38827 -0.02854 0.82542 0.0
Zn484 Zn 0.3932 -0.00047 0.90366 0.0
O485 O 0.43023 0.06201 0.90302 0.0
Zn486 Zn 0.47871 0.07985 0.95797 0.0
Zn487 Zn 0.44798 0.07918 0.82164 0.0
Zn488 Zn 0.39805 0.08886 0.92887 0.0
O489 O 0.47054 0.10768 0.03439 0.0
O490 O 0.4092 0.10721 0.01448 0.0
O491 O 0.41488 0.97096 0.95805 0.0
O492 O 0.47825 0.02649 0.98616 0.0
O493 O 0.53648 0.11088 0.91335 0.0
O494 O 0.51017 0.09592 0.82109 0.0
O495 O 0.44235 0.13186 0.79702 0.0
O496 O 0.33263 -0.01582 0.91943 0.0
O497 O 0.41477 0.14094 0.88056 0.0
O498 O 0.3344 0.04756 0.91693 0.0
C499 C 0.39648 -0.01342 0.77325 0.0
C500 C 0.43994 0.11463 0.0499 0.0
C501 C 0.54155 0.10862 0.85757 0.0
C502 C 0.45118 -0.01389 0.98413 0.0
C503 C 0.43039 0.15359 0.82901 0.0
C504 C 0.31364 0.0063 0.91686 0.0
O505 O 0.41653 0.0275 0.76391 0.0
O506 O 0.95648 0.4024 0.82542 0.0
Zn507 Zn 0.92841 0.37926 0.90366 0.0
O508 O 0.86593 0.35381 0.90302 0.0
Zn509 Zn 0.84808 0.38444 0.95797 0.0
Zn510 Zn 0.84876 0.35439 0.82164 0.0
Zn511 Zn 0.83908 0.29477 0.92888 0.0
O512 O 0.82026 0.34845 0.03439 0.0
O513 O 0.82073 0.28758 0.01448 0.0
O514 O -0.04302 0.42951 0.95806 0.0
O515 O 0.90145 0.43735 0.98616 0.0
O516 O 0.81706 0.41119 0.91335 0.0
O517 O 0.83202 0.39984 0.82109 0.0
O518 O 0.79608 0.29608 0.79702 0.0
O519 O 0.94376 0.33404 0.91944 0.0
O520 O 0.78699 0.25941 0.88056 0.0
O521 O 0.88038 0.27243 0.91693 0.0
C522 C 0.94136 0.39549 0.77325 0.0
C523 C 0.81331 0.3109 0.0499 0.0
C524 C 0.81931 0.41851 0.85757 0.0
C525 C 0.94182 0.45066 0.98413 0.0
C526 C 0.77435 0.26239 0.82901 0.0
C527 C 0.92164 0.29292 0.91687 0.0
O528 O 0.90044 0.37461 0.76391 0.0
O529 O 0.52553 0.53967 0.82542 0.0
Zn530 Zn 0.54867 0.53474 0.90366 0.0
O531 O 0.57413 0.49771 0.90303 0.0
Zn532 Zn 0.54349 0.44923 0.95797 0.0
Zn533 Zn 0.57354 0.47996 0.82164 0.0
Zn534 Zn 0.63316 0.52989 0.92888 0.0
O535 O 0.57948 0.4574 0.03439 0.0
O536 O 0.64035 0.51874 0.01448 0.0
O537 O 0.49842 0.51305 0.95806 0.0
O538 O 0.49058 0.44969 0.98616 0.0
O539 O 0.51674 0.39146 0.91335 0.0
O540 O 0.52809 0.41777 0.82109 0.0
O541 O 0.63185 0.48559 0.79702 0.0
O542 O 0.59389 0.59531 0.91944 0.0
O543 O 0.66852 0.51317 0.88056 0.0
O544 O 0.65551 0.59354 0.91693 0.0
C545 C 0.53244 0.53146 0.77325 0.0
C546 C 0.61703 0.488 0.0499 0.0
C547 C 0.50942 0.38639 0.85757 0.0
C548 C 0.47727 0.47675 0.98413 0.0
C549 C 0.66554 0.49754 0.82901 0.0
C550 C 0.63501 0.6143 0.91687 0.0
O551 O 0.55332 0.51141 0.76391 0.0
O552 O 0.62314 0.873 0.65876 0.0
Zn553 Zn 0.59507 0.86807 0.737 0.0
O554 O 0.53259 0.83104 0.73636 0.0
Zn555 Zn 0.51475 0.78256 0.7913 0.0
Zn556 Zn 0.51542 0.81329 0.65497 0.0
Zn557 Zn 0.50574 0.86322 0.76221 0.0
O558 O 0.48693 0.79073 0.86772 0.0
O559 O 0.4874 0.85207 0.84783 0.0
O560 O 0.62364 0.84639 0.79139 0.0
O561 O 0.56811 0.78302 0.81949 0.0
O562 O 0.48372 0.72479 0.74667 0.0
O563 O 0.4987 0.7511 0.65442 0.0
O564 O 0.46273 0.81891 0.63036 0.0
O565 O 0.61042 0.92864 0.75277 0.0
O566 O 0.45365 0.8465 0.7139 0.0
O567 O 0.54704 0.92687 0.75027 0.0
C568 C 0.60803 0.8648 0.60658 0.0
C569 C 0.47998 0.82133 0.88325 0.0
C570 C 0.486 0.71973 0.6909 0.0
C571 C 0.60849 0.81009 0.81747 0.0
C572 C 0.44101 0.83087 0.66234 0.0
C573 C 0.5883 0.94763 0.7502 0.0
O574 O 0.5671 0.84475 0.59724 0.0
O575 O 0.05493 0.73573 0.65875 0.0
Zn576 Zn 0.05986 0.71259 0.73699 0.0
O577 O 0.09689 0.68714 0.73636 0.0
Zn578 Zn 0.14537 0.71778 0.7913 0.0
Zn579 Zn 0.11464 0.68773 0.65497 0.0
Zn580 Zn 0.06471 0.62811 0.76221 0.0
O581 O 0.1372 0.68179 0.86772 0.0
O582 O 0.07586 0.62092 0.84782 0.0
O583 O 0.08154 0.76284 0.79139 0.0
O584 O 0.14491 0.77068 0.81949 0.0
O585 O 0.20314 0.74453 0.74668 0.0
O586 O 0.17683 0.73318 0.65443 0.0
O587 O 0.10902 0.62941 0.63036 0.0
O588 O -0.00071 0.66737 0.75277 0.0
O589 O 0.08143 0.59275 0.7139 0.0
O590 O 0.00106 0.60576 0.75026 0.0
C591 C 0.06314 0.72882 0.60658 0.0
C592 C 0.1066 0.64425 0.88325 0.0
C593 C 0.20821 0.75187 0.6909 0.0
C594 C 0.11785 0.78399 0.81747 0.0
C595 C 0.09706 0.59573 0.66235 0.0
C596 C -0.0197 0.62625 0.75019 0.0
O597 O 0.08318 0.70794 0.59724 0.0
O598 O 0.1922 0.30479 0.65875 0.0
Zn599 Zn 0.21534 0.33286 0.73699 0.0
O600 O 0.24079 0.39534 0.73636 0.0
Zn601 Zn 0.21016 0.41318 0.7913 0.0
Zn602 Zn 0.24021 0.4125 0.65497 0.0
Zn603 Zn 0.29983 0.4222 0.76221 0.0
O604 O 0.24615 0.441 0.86772 0.0
O605 O 0.30701 0.44053 0.84783 0.0
O606 O 0.16509 0.30429 0.79139 0.0
O607 O 0.15725 0.35982 0.81948 0.0
O608 O 0.18341 0.44421 0.74668 0.0
O609 O 0.19475 0.42923 0.65442 0.0
O610 O 0.29852 0.4652 0.63036 0.0
O611 O 0.26056 0.31751 0.75277 0.0
O612 O 0.33519 0.47428 0.7139 0.0
O613 O 0.32217 0.38089 0.75026 0.0
C614 C 0.19911 0.3199 0.60658 0.0
C615 C 0.28369 0.44794 0.88325 0.0
C616 C 0.17607 0.44193 0.6909 0.0
C617 C 0.14394 0.31944 0.81747 0.0
C618 C 0.33221 0.48692 0.66234 0.0
C619 C 0.30168 0.33963 0.7502 0.0
O620 O 0.21999 0.36083 0.59724 0.0
O621 O 0.52525 0.97089 0.17091 0.0
Zn622 Zn 0.52032 0.94282 0.09267 0.0
O623 O 0.48329 0.88034 0.0933 0.0
Zn624 Zn 0.43481 0.8625 0.03836 0.0
Zn625 Zn 0.46554 0.86317 0.17469 0.0
Zn626 Zn 0.51547 0.85348 0.06745 0.0
O627 O 0.44298 0.83467 0.96193 0.0
O628 O 0.50432 0.83514 0.98185 0.0
O629 O 0.49864 -0.02861 0.03827 0.0
O630 O 0.43527 0.91586 0.01017 0.0
O631 O 0.37704 0.83147 0.08298 0.0
O632 O 0.40335 0.84644 0.17523 0.0
O633 O 0.47116 0.81048 0.1993 0.0
O634 O 0.58089 0.95817 0.07689 0.0
O635 O 0.49875 0.8014 0.11577 0.0
O636 O 0.57912 0.89479 0.0794 0.0
C637 C 0.51705 0.95577 0.22308 0.0
C638 C 0.47358 0.82772 0.94642 0.0
C639 C 0.37198 0.83375 0.13875 0.0
C640 C 0.46234 0.95624 0.01219 0.0
C641 C 0.48312 0.78876 0.16732 0.0
C642 C 0.59988 0.93605 0.07947 0.0
O643 O 0.497 0.91485 0.23242 0.0
O644 O -0.04296 0.53995 0.17091 0.0
Zn645 Zn -0.01489 0.56309 0.09266 0.0
O646 O 0.04759 0.58855 0.0933 0.0
Zn647 Zn 0.06544 0.55791 0.03836 0.0
Zn648 Zn 0.06476 0.58796 0.17469 0.0
Zn649 Zn 0.07445 0.64758 0.06745 0.0
O650 O 0.09326 0.5939 0.96194 0.0
O651 O 0.09279 0.65477 0.98184 0.0
O652 O 0.95654 0.51284 0.03827 0.0
O653 O 0.01207 0.505 0.01017 0.0
O654 O 0.09646 0.53116 0.08298 0.0
O655 O 0.08149 0.5425 0.17523 0.0
O656 O 0.11745 0.64627 0.1993 0.0
O657 O -0.03024 0.60831 0.07689 0.0
O658 O 0.12653 0.68294 0.11577 0.0
O659 O 0.03314 0.66992 0.0794 0.0
C660 C -0.02784 0.54686 0.22308 0.0
C661 C 0.10021 0.63145 0.94643 0.0
C662 C 0.09418 0.52382 0.13875 0.0
C663 C -0.0283 0.49169 0.01219 0.0
C664 C 0.13917 0.67996 0.16732 0.0
C665 C -0.00812 0.64943 0.07946 0.0
O666 O 0.01308 0.56774 0.23242 0.0
O667 O 0.38798 0.40268 0.17091 0.0
Zn668 Zn 0.36484 0.40761 0.09266 0.0
O669 O 0.33939 0.44463 0.0933 0.0
Zn670 Zn 0.37003 0.49312 0.03836 0.0
Zn671 Zn 0.33998 0.46239 0.17469 0.0
Zn672 Zn 0.28035 0.41246 0.06745 0.0
O673 O 0.33404 0.48495 0.96194 0.0
O674 O 0.27316 0.42361 0.98184 0.0
O675 O 0.41509 0.42929 0.03827 0.0
O676 O 0.42293 0.49266 0.01017 0.0
O677 O 0.39677 0.55089 0.08298 0.0
O678 O 0.38543 0.52457 0.17523 0.0
O679 O 0.28167 0.45677 0.1993 0.0
O680 O 0.31962 0.34704 0.07688 0.0
O681 O 0.245 0.42918 0.11577 0.0
O682 O 0.25801 0.34881 0.0794 0.0
C683 C 0.38107 0.41088 0.22308 0.0
C684 C 0.29649 0.45435 0.94643 0.0
C685 C 0.40412 0.55595 0.13875 0.0
C686 C 0.43624 0.46559 0.01219 0.0
C687 C 0.24798 0.44481 0.16732 0.0
C688 C 0.2785 0.32805 0.07946 0.0
O689 O 0.36019 0.43093 0.23242 0.0
O690 O -0.04296 0.40268 0.67091 0.0
Zn691 Zn -0.01489 0.40761 0.59267 0.0
O692 O 0.04759 0.44464 0.5933 0.0
Zn693 Zn 0.06544 0.49312 0.53836 0.0
Zn694 Zn 0.06476 0.46239 0.67469 0.0
Zn695 Zn 0.07445 0.41246 0.56745 0.0
O696 O 0.09326 0.48495 0.46194 0.0
O697 O 0.09278 0.42361 0.48184 0.0
O698 O 0.95654 0.4293 0.53827 0.0
O699 O 0.01207 0.49266 0.51017 0.0
O700 O 0.09646 0.55089 0.58299 0.0
O701 O 0.0815 0.52458 0.67524 0.0
O702 O 0.11745 0.45676 0.6993 0.0
O703 O -0.03024 0.34704 0.57689 0.0
O704 O 0.12653 0.42919 0.61576 0.0
O705 O 0.03314 0.34881 0.57939 0.0
C706 C -0.02784 0.41089 0.72308 0.0
C707 C 0.1002 0.45435 0.44641 0.0
C708 C 0.09421 0.55596 0.63876 0.0
C709 C -0.0283 0.4656 0.51219 0.0
C710 C 0.13917 0.44481 0.66731 0.0
C711 C -0.00812 0.32805 0.57946 0.0
O712 O 0.01308 0.43094 0.73242 0.0
O713 O 0.52525 0.53995 0.67091 0.0
Zn714 Zn 0.52032 0.56309 0.59267 0.0
O715 O 0.4833 0.58854 0.5933 0.0
Zn716 Zn 0.43481 0.5579 0.53836 0.0
Zn717 Zn 0.46554 0.58796 0.67469 0.0
Zn718 Zn 0.51547 0.64757 0.56745 0.0
O719 O 0.44298 0.59389 0.46194 0.0
O720 O 0.50432 0.65476 0.48184 0.0
O721 O 0.49864 0.51284 0.53827 0.0
O722 O 0.43527 0.505 0.51017 0.0
O723 O 0.37704 0.53115 0.58298 0.0
O724 O 0.40335 0.54251 0.67524 0.0
O725 O 0.47117 0.64627 0.6993 0.0
O726 O 0.58089 0.60831 0.57689 0.0
O727 O 0.49875 0.68293 0.61576 0.0
O728 O 0.57913 0.66992 0.5794 0.0
C729 C 0.51704 0.54686 0.72308 0.0
C730 C 0.47358 0.63143 0.44641 0.0
C731 C 0.37197 0.52383 0.63876 0.0
C732 C 0.46234 0.49169 0.51219 0.0
C733 C 0.48312 0.67995 0.66731 0.0
C734 C 0.59989 0.64943 0.57947 0.0
O735 O 0.497 0.56774 0.73242 0.0
O736 O 0.38799 0.9709 0.6709 0.0
Zn737 Zn 0.36485 0.94282 0.59266 0.0
O738 O 0.33939 0.88035 0.5933 0.0
Zn739 Zn 0.37003 0.8625 0.53836 0.0
Zn740 Zn 0.33998 0.86318 0.67469 0.0
Zn741 Zn 0.28036 0.85349 0.56745 0.0
O742 O 0.33404 0.83468 0.46194 0.0
O743 O 0.27317 0.83515 0.48183 0.0
O744 O 0.4151 -0.02861 0.53827 0.0
O745 O 0.42293 0.91586 0.51017 0.0
O746 O 0.39677 0.83147 0.58298 0.0
O747 O 0.38542 0.84643 0.67524 0.0
O748 O 0.28166 0.81049 0.6993 0.0
O749 O 0.31963 0.95817 0.57689 0.0
O750 O 0.245 0.80141 0.61576 0.0
O751 O 0.25801 0.89479 0.57939 0.0
C752 C 0.38108 0.95578 0.72308 0.0
C753 C 0.2965 0.82774 0.44641 0.0
C754 C 0.4041 0.83373 0.63876 0.0
C755 C 0.43624 0.95624 0.51219 0.0
C756 C 0.24798 0.78876 0.66731 0.0
C757 C 0.27851 0.93605 0.57946 0.0
O758 O 0.3602 0.91486 0.73242 0.0
O759 O 0.05493 0.30479 0.15875 0.0
Zn760 Zn 0.05987 0.33286 0.237 0.0
O761 O 0.09689 0.39534 0.23636 0.0
Zn762 Zn 0.14537 0.41319 0.29131 0.0
Zn763 Zn 0.11465 0.41251 0.15497 0.0
Zn764 Zn 0.06472 0.4222 0.26221 0.0
O765 O 0.13721 0.44101 0.36773 0.0
O766 O 0.07587 0.44054 0.34782 0.0
O767 O 0.08155 0.30429 0.29139 0.0
O768 O 0.14492 0.35982 0.31949 0.0
O769 O 0.20315 0.44421 0.24668 0.0
O770 O 0.17684 0.42925 0.15443 0.0
O771 O 0.10902 0.4652 0.13036 0.0
O772 O -0.0007 0.31751 0.25277 0.0
O773 O 0.08143 0.47428 0.2139 0.0
O774 O 0.00106 0.38089 0.25026 0.0
C775 C 0.06314 0.31991 0.10658 0.0
C776 C 0.10661 0.44796 0.38324 0.0
C777 C 0.20821 0.44196 0.19091 0.0
C778 C 0.11785 0.31945 0.31747 0.0
C779 C 0.09706 0.48692 0.16234 0.0
C780 C -0.0197 0.33963 0.2502 0.0
O781 O 0.08319 0.36083 0.09724 0.0
O782 O 0.62315 0.73573 0.15876 0.0
Zn783 Zn 0.59508 0.71259 0.237 0.0
O784 O 0.5326 0.68714 0.23636 0.0
Zn785 Zn 0.51475 0.71777 0.2913 0.0
Zn786 Zn 0.51543 0.68773 0.15497 0.0
Zn787 Zn 0.50574 0.62811 0.26221 0.0
O788 O 0.48693 0.68178 0.36772 0.0
O789 O 0.4874 0.62091 0.34782 0.0
O790 O 0.62364 0.76285 0.29139 0.0
O791 O 0.56811 0.77068 0.31949 0.0
O792 O 0.48372 0.74452 0.24668 0.0
O793 O 0.49868 0.73317 0.15442 0.0
O794 O 0.46274 0.62941 0.13036 0.0
O795 O 0.61043 0.66738 0.25278 0.0
O796 O 0.45366 0.59275 0.21389 0.0
O797 O 0.54705 0.60576 0.25026 0.0
C798 C 0.60803 0.72883 0.10658 0.0
C799 C 0.47998 0.64423 0.38323 0.0
C800 C 0.48598 0.75184 0.19091 0.0
C801 C 0.60849 0.78399 0.31747 0.0
C802 C 0.44102 0.59573 0.16234 0.0
C803 C 0.5883 0.62626 0.2502 0.0
O804 O 0.5671 0.70795 0.09724 0.0
O805 O 0.1922 0.873 0.15875 0.0
Zn806 Zn 0.21534 0.86807 0.237 0.0
O807 O 0.24079 0.83105 0.23636 0.0
Zn808 Zn 0.21016 0.78257 0.2913 0.0
Zn809 Zn 0.24021 0.81329 0.15497 0.0
Zn810 Zn 0.29983 0.86322 0.26221 0.0
O811 O 0.24615 0.79073 0.36772 0.0
O812 O 0.30702 0.85207 0.34782 0.0
O813 O 0.16509 0.84639 0.29139 0.0
O814 O 0.15725 0.78302 0.31949 0.0
O815 O 0.18341 0.72479 0.24668 0.0
O816 O 0.19476 0.7511 0.15442 0.0
O817 O 0.29852 0.81892 0.13035 0.0
O818 O 0.26056 0.92864 0.25277 0.0
O819 O 0.33519 0.8465 0.21389 0.0
O820 O 0.32217 0.92688 0.25026 0.0
C821 C 0.19911 0.86479 0.10658 0.0
C822 C 0.2837 0.82133 0.38323 0.0
C823 C 0.17609 0.71972 0.1909 0.0
C824 C 0.14394 0.81009 0.31747 0.0
C825 C 0.3322 0.83088 0.16234 0.0
C826 C 0.30168 0.94764 0.2502 0.0
O827 O 0.21999 0.84475 0.09724 0.0
loop_
_geom_bond_atom_site_label_1
_geom_bond_atom_site_label_2
_geom_bond_distance
_geom_bond_site_symmetry_2
_ccdc_geom_bond_type
O0 Zn1 1.953 1_556 S
O0 C16 1.225 . S
Zn1 O0 1.953 1_554 S
Zn1 O2 1.949 . S
Zn1 O8 1.919 . S
Zn1 O13 1.924 . S
O2 Zn1 1.949 . S
O2 Zn3 1.923 . S
O2 Zn4 1.950 1_554 S
O2 Zn5 1.945 . S
Zn3 O2 1.923 . S
Zn3 O6 1.933 . S
Zn3 O9 1.941 . S
Zn3 O10 1.965 . S
Zn4 O2 1.950 1_556 S
Zn4 O11 1.938 . S
Zn4 O12 1.906 . S
Zn4 O22 1.953 . S
Zn5 O2 1.945 . S
Zn5 O7 1.932 . S
Zn5 O14 1.977 . S
Zn5 O15 1.910 . S
O6 Zn3 1.933 . S
O6 C17 1.226 . S
O7 Zn5 1.932 . S
O7 C17 1.307 . S
O8 Zn1 1.919 . S
O8 C19 1.253 . S
O9 Zn3 1.941 . S
O9 C19 1.283 . S
O10 Zn3 1.965 . S
O10 C18 1.303 . S
O11 Zn4 1.938 . S
O11 C18 1.247 1_556 S
O12 Zn4 1.906 . S
O12 C20 1.304 1_556 S
O13 Zn1 1.924 . S
O13 C21 1.311 . S
O14 Zn5 1.977 . S
O14 C20 1.272 . S
O15 Zn5 1.910 . S
O15 C21 1.231 . S
C16 O0 1.225 . S
C16 O22 1.298 . S
C17 O6 1.226 . S
C17 O7 1.307 . S
C18 O10 1.303 . S
C18 O11 1.247 1_554 S
C19 O8 1.253 . S
C19 O9 1.283 . S
C20 O12 1.304 1_554 S
C20 O14 1.272 . S
C21 O13 1.311 . S
C21 O15 1.231 . S
O22 Zn4 1.953 . S
O22 C16 1.298 . S
O23 Zn24 1.953 1_556 S
O23 C39 1.225 . S
Zn24 O23 1.953 1_554 S
Zn24 O25 1.949 . S
Zn24 O31 1.919 . S
Zn24 O36 1.924 . S
O25 Zn24 1.949 . S
O25 Zn26 1.923 . S
O25 Zn27 1.950 1_554 S
O25 Zn28 1.945 1_545 S
Zn26 O25 1.923 . S
Zn26 O29 1.933 . S
Zn26 O32 1.941 . S
Zn26 O33 1.965 . S
Zn27 O25 1.950 1_556 S
Zn27 O34 1.938 . S
Zn27 O35 1.906 1_545 S
Zn27 O45 1.953 . S
Zn28 O25 1.945 1_565 S
Zn28 O30 1.932 . S
Zn28 O37 1.977 . S
Zn28 O38 1.910 . S
O29 Zn26 1.933 . S
O29 C40 1.226 . S
O30 Zn28 1.932 . S
O30 C40 1.307 1_565 S
O31 Zn24 1.919 . S
O31 C42 1.253 . S
O32 Zn26 1.941 . S
O32 C42 1.283 . S
O33 Zn26 1.965 . S
O33 C41 1.303 . S
O34 Zn27 1.938 . S
O34 C41 1.247 1_556 S
O35 Zn27 1.906 1_565 S
O35 C43 1.304 1_556 S
O36 Zn24 1.924 . S
O36 C44 1.311 1_545 S
O37 Zn28 1.977 . S
O37 C43 1.272 . S
O38 Zn28 1.910 . S
O38 C44 1.231 . S
C39 O23 1.225 . S
C39 O45 1.298 . S
C40 O29 1.226 . S
C40 O30 1.307 1_545 S
C41 O33 1.303 . S
C41 O34 1.247 1_554 S
C42 O31 1.253 . S
C42 O32 1.283 . S
C43 O35 1.304 1_554 S
C43 O37 1.272 . S
C44 O36 1.311 1_565 S
C44 O38 1.231 . S
O45 Zn27 1.953 . S
O45 C39 1.298 . S
O46 Zn47 1.953 1_556 S
O46 C62 1.225 . S
Zn47 O46 1.953 1_554 S
Zn47 O48 1.949 . S
Zn47 O54 1.919 . S
Zn47 O59 1.924 . S
O48 Zn47 1.949 . S
O48 Zn49 1.923 . S
O48 Zn50 1.950 1_554 S
O48 Zn51 1.945 1_655 S
Zn49 O48 1.923 . S
Zn49 O52 1.933 . S
Zn49 O55 1.941 . S
Zn49 O56 1.965 . S
Zn50 O48 1.950 1_556 S
Zn50 O57 1.938 . S
Zn50 O58 1.906 1_655 S
Zn50 O68 1.953 . S
Zn51 O48 1.945 1_455 S
Zn51 O53 1.932 . S
Zn51 O60 1.977 . S
Zn51 O61 1.910 . S
O52 Zn49 1.933 . S
O52 C63 1.226 . S
O53 Zn51 1.932 . S
O53 C63 1.307 1_455 S
O54 Zn47 1.919 . S
O54 C65 1.253 . S
O55 Zn49 1.941 . S
O55 C65 1.283 . S
O56 Zn49 1.965 . S
O56 C64 1.303 . S
O57 Zn50 1.938 . S
O57 C64 1.247 1_556 S
O58 Zn50 1.906 1_455 S
O58 C66 1.304 1_556 S
O59 Zn47 1.924 . S
O59 C67 1.311 1_655 S
O60 Zn51 1.977 . S
O60 C66 1.272 . S
O61 Zn51 1.910 . S
O61 C67 1.231 . S
C62 O46 1.225 . S
C62 O68 1.298 . S
C63 O52 1.226 . S
C63 O53 1.307 1_655 S
C64 O56 1.303 . S
C64 O57 1.247 1_554 S
C65 O54 1.253 . S
C65 O55 1.283 . S
C66 O58 1.304 1_554 S
C66 O60 1.272 . S
C67 O59 1.311 1_455 S
C67 O61 1.231 . S
O68 Zn50 1.953 . S
O68 C62 1.298 . S
O69 Zn70 1.953 . S
O69 C85 1.225 . S
Zn70 O69 1.953 . S
Zn70 O71 1.949 . S
Zn70 O77 1.919 . S
Zn70 O82 1.924 . S
O71 Zn70 1.949 . S
O71 Zn72 1.923 . S
O71 Zn73 1.950 . S
O71 Zn74 1.945 . S
Zn72 O71 1.923 . S
Zn72 O75 1.933 . S
Zn72 O78 1.941 . S
Zn72 O79 1.965 . S
Zn73 O71 1.950 . S
Zn73 O80 1.938 . S
Zn73 O81 1.906 . S
Zn73 O91 1.953 . S
Zn74 O71 1.945 . S
Zn74 O76 1.932 . S
Zn74 O83 1.977 . S
Zn74 O84 1.910 . S
O75 Zn72 1.933 . S
O75 C86 1.226 . S
O76 Zn74 1.932 . S
O76 C86 1.307 . S
O77 Zn70 1.919 . S
O77 C88 1.253 . S
O78 Zn72 1.941 . S
O78 C88 1.283 . S
O79 Zn72 1.965 . S
O79 C87 1.303 . S
O80 Zn73 1.938 . S
O80 C87 1.247 . S
O81 Zn73 1.906 . S
O81 C89 1.304 . S
O82 Zn70 1.924 . S
O82 C90 1.311 . S
O83 Zn74 1.977 . S
O83 C89 1.272 . S
O84 Zn74 1.910 . S
O84 C90 1.231 . S
C85 O69 1.225 . S
C85 O91 1.298 . S
C86 O75 1.226 . S
C86 O76 1.307 . S
C87 O79 1.303 . S
C87 O80 1.247 . S
C88 O77 1.253 . S
C88 O78 1.283 . S
C89 O81 1.304 . S
C89 O83 1.272 . S
C90 O82 1.311 . S
C90 O84 1.231 . S
O91 Zn73 1.953 . S
O91 C85 1.298 . S
O92 Zn93 1.953 . S
O92 C108 1.225 . S
Zn93 O92 1.953 . S
Zn93 O94 1.949 . S
Zn93 O100 1.919 . S
Zn93 O105 1.924 . S
O94 Zn93 1.949 . S
O94 Zn95 1.923 . S
O94 Zn96 1.950 . S
O94 Zn97 1.945 1_565 S
Zn95 O94 1.923 . S
Zn95 O98 1.933 . S
Zn95 O101 1.941 . S
Zn95 O102 1.965 . S
Zn96 O94 1.950 . S
Zn96 O103 1.938 . S
Zn96 O104 1.906 1_565 S
Zn96 O114 1.953 . S
Zn97 O94 1.945 1_545 S
Zn97 O99 1.932 . S
Zn97 O106 1.977 . S
Zn97 O107 1.910 . S
O98 Zn95 1.933 . S
O98 C109 1.226 . S
O99 Zn97 1.932 . S
O99 C109 1.307 1_545 S
O100 Zn93 1.919 . S
O100 C111 1.253 . S
O101 Zn95 1.941 . S
O101 C111 1.283 . S
O102 Zn95 1.965 . S
O102 C110 1.303 . S
O103 Zn96 1.938 . S
O103 C110 1.247 . S
O104 Zn96 1.906 1_545 S
O104 C112 1.304 . S
O105 Zn93 1.924 . S
O105 C113 1.311 1_565 S
O106 Zn97 1.977 . S
O106 C112 1.272 . S
O107 Zn97 1.910 . S
O107 C113 1.231 . S
C108 O92 1.225 . S
C108 O114 1.298 . S
C109 O98 1.226 . S
C109 O99 1.307 1_565 S
C110 O102 1.303 . S
C110 O103 1.247 . S
C111 O100 1.253 . S
C111 O101 1.283 . S
C112 O104 1.304 . S
C112 O106 1.272 . S
C113 O105 1.311 1_545 S
C113 O107 1.231 . S
O114 Zn96 1.953 . S
O114 C108 1.298 . S
O115 Zn116 1.953 . S
O115 C131 1.225 . S
Zn116 O115 1.953 . S
Zn116 O117 1.949 . S
Zn116 O123 1.919 . S
Zn116 O128 1.924 . S
O117 Zn116 1.949 . S
O117 Zn118 1.923 . S
O117 Zn119 1.950 . S
O117 Zn120 1.945 1_455 S
Zn118 O117 1.923 . S
Zn118 O121 1.933 . S
Zn118 O124 1.941 . S
Zn118 O125 1.965 . S
Zn119 O117 1.950 . S
Zn119 O126 1.938 . S
Zn119 O127 1.906 1_455 S
Zn119 O137 1.953 . S
Zn120 O117 1.945 1_655 S
Zn120 O122 1.932 . S
Zn120 O129 1.977 . S
Zn120 O130 1.910 . S
O121 Zn118 1.933 . S
O121 C132 1.226 . S
O122 Zn120 1.932 . S
O122 C132 1.307 1_655 S
O123 Zn116 1.919 . S
O123 C134 1.253 . S
O124 Zn118 1.941 . S
O124 C134 1.283 . S
O125 Zn118 1.965 . S
O125 C133 1.303 . S
O126 Zn119 1.938 . S
O126 C133 1.247 . S
O127 Zn119 1.906 1_655 S
O127 C135 1.304 . S
O128 Zn116 1.924 . S
O128 C136 1.311 1_455 S
O129 Zn120 1.977 . S
O129 C135 1.272 . S
O130 Zn120 1.910 . S
O130 C136 1.231 . S
C131 O115 1.225 . S
C131 O137 1.298 . S
C132 O121 1.226 . S
C132 O122 1.307 1_455 S
C133 O125 1.303 . S
C133 O126 1.247 . S
C134 O123 1.253 . S
C134 O124 1.283 . S
C135 O127 1.304 . S
C135 O129 1.272 . S
C136 O128 1.311 1_655 S
C136 O130 1.231 . S
O137 Zn119 1.953 . S
O137 C131 1.298 . S
O138 Zn139 1.953 1_554 S
O138 C154 1.225 . S
Zn139 O138 1.953 1_556 S
Zn139 O140 1.949 . S
Zn139 O146 1.919 . S
Zn139 O151 1.924 . S
O140 Zn139 1.949 . S
O140 Zn141 1.923 . S
O140 Zn142 1.950 1_556 S
O140 Zn143 1.945 . S
Zn141 O140 1.923 . S
Zn141 O144 1.933 . S
Zn141 O147 1.941 . S
Zn141 O148 1.965 . S
Zn142 O140 1.950 1_554 S
Zn142 O149 1.938 . S
Zn142 O150 1.906 . S
Zn142 O160 1.953 . S
Zn143 O140 1.945 . S
Zn143 O145 1.932 . S
Zn143 O152 1.977 . S
Zn143 O153 1.910 . S
O144 Zn141 1.933 . S
O144 C155 1.226 . S
O145 Zn143 1.932 . S
O145 C155 1.307 . S
O146 Zn139 1.919 . S
O146 C157 1.253 . S
O147 Zn141 1.941 . S
O147 C157 1.283 . S
O148 Zn141 1.965 . S
O148 C156 1.303 . S
O149 Zn142 1.938 . S
O149 C156 1.247 1_554 S
O150 Zn142 1.906 . S
O150 C158 1.304 1_554 S
O151 Zn139 1.924 . S
O151 C159 1.311 . S
O152 Zn143 1.977 . S
O152 C158 1.272 . S
O153 Zn143 1.910 . S
O153 C159 1.231 . S
C154 O138 1.225 . S
C154 O160 1.298 . S
C155 O144 1.226 . S
C155 O145 1.307 . S
C156 O148 1.303 . S
C156 O149 1.247 1_556 S
C157 O146 1.253 . S
C157 O147 1.283 . S
C158 O150 1.304 1_556 S
C158 O152 1.272 . S
C159 O151 1.311 . S
C159 O153 1.231 . S
O160 Zn142 1.953 . S
O160 C154 1.298 . S
O161 Zn162 1.953 1_554 S
O161 C177 1.225 . S
Zn162 O161 1.953 1_556 S
Zn162 O163 1.949 . S
Zn162 O169 1.919 . S
Zn162 O174 1.924 . S
O163 Zn162 1.949 . S
O163 Zn164 1.923 . S
O163 Zn165 1.950 1_556 S
O163 Zn166 1.945 1_565 S
Zn164 O163 1.923 . S
Zn164 O167 1.933 . S
Zn164 O170 1.941 . S
Zn164 O171 1.965 . S
Zn165 O163 1.950 1_554 S
Zn165 O172 1.938 . S
Zn165 O173 1.906 1_565 S
Zn165 O183 1.953 . S
Zn166 O163 1.945 1_545 S
Zn166 O168 1.932 . S
Zn166 O175 1.977 . S
Zn166 O176 1.910 . S
O167 Zn164 1.933 . S
O167 C178 1.226 . S
O168 Zn166 1.932 . S
O168 C178 1.307 1_545 S
O169 Zn162 1.919 . S
O169 C180 1.253 . S
O170 Zn164 1.941 . S
O170 C180 1.283 . S
O171 Zn164 1.965 . S
O171 C179 1.303 . S
O172 Zn165 1.938 . S
O172 C179 1.247 1_554 S
O173 Zn165 1.906 1_545 S
O173 C181 1.304 1_554 S
O174 Zn162 1.924 . S
O174 C182 1.311 1_565 S
O175 Zn166 1.977 . S
O175 C181 1.272 . S
O176 Zn166 1.910 . S
O176 C182 1.231 . S
C177 O161 1.225 . S
C177 O183 1.298 . S
C178 O167 1.226 . S
C178 O168 1.307 1_565 S
C179 O171 1.303 . S
C179 O172 1.247 1_556 S
C180 O169 1.253 . S
C180 O170 1.283 . S
C181 O173 1.304 1_556 S
C181 O175 1.272 . S
C182 O174 1.311 1_545 S
C182 O176 1.231 . S
O183 Zn165 1.953 . S
O183 C177 1.298 . S
O184 Zn185 1.953 1_554 S
O184 C200 1.225 . S
Zn185 O184 1.953 1_556 S
Zn185 O186 1.949 . S
Zn185 O192 1.919 . S
Zn185 O197 1.924 . S
O186 Zn185 1.949 . S
O186 Zn187 1.923 . S
O186 Zn188 1.950 1_556 S
O186 Zn189 1.945 1_455 S
Zn187 O186 1.923 . S
Zn187 O190 1.933 . S
Zn187 O193 1.941 . S
Zn187 O194 1.965 . S
Zn188 O186 1.950 1_554 S
Zn188 O195 1.938 . S
Zn188 O196 1.906 1_455 S
Zn188 O206 1.953 . S
Zn189 O186 1.945 1_655 S
Zn189 O191 1.932 . S
Zn189 O198 1.977 . S
Zn189 O199 1.910 . S
O190 Zn187 1.933 . S
O190 C201 1.226 . S
O191 Zn189 1.932 . S
O191 C201 1.307 1_655 S
O192 Zn185 1.919 . S
O192 C203 1.253 . S
O193 Zn187 1.941 . S
O193 C203 1.283 . S
O194 Zn187 1.965 . S
O194 C202 1.303 . S
O195 Zn188 1.938 . S
O195 C202 1.247 1_554 S
O196 Zn188 1.906 1_655 S
O196 C204 1.304 1_554 S
O197 Zn185 1.924 . S
O197 C205 1.311 1_455 S
O198 Zn189 1.977 . S
O198 C204 1.272 . S
O199 Zn189 1.910 . S
O199 C205 1.231 . S
C200 O184 1.225 . S
C200 O206 1.298 . S
C201 O190 1.226 . S
C201 O191 1.307 1_455 S
C202 O194 1.303 . S
C202 O195 1.247 1_556 S
C203 O192 1.253 . S
C203 O193 1.283 . S
C204 O196 1.304 1_556 S
C204 O198 1.272 . S
C205 O197 1.311 1_655 S
C205 O199 1.231 . S
O206 Zn188 1.953 . S
O206 C200 1.298 . S
O207 Zn208 1.953 . S
O207 C223 1.225 . S
Zn208 O207 1.953 . S
Zn208 O209 1.949 . S
Zn208 O215 1.919 . S
Zn208 O220 1.924 . S
O209 Zn208 1.949 . S
O209 Zn210 1.923 . S
O209 Zn211 1.950 . S
O209 Zn212 1.945 . S
Zn210 O209 1.923 . S
Zn210 O213 1.933 . S
Zn210 O216 1.941 . S
Zn210 O217 1.965 . S
Zn211 O209 1.950 . S
Zn211 O218 1.938 . S
Zn211 O219 1.906 . S
Zn211 O229 1.953 . S
Zn212 O209 1.945 . S
Zn212 O214 1.932 . S
Zn212 O221 1.977 . S
Zn212 O222 1.910 . S
O213 Zn210 1.933 . S
O213 C224 1.226 . S
O214 Zn212 1.932 . S
O214 C224 1.307 . S
O215 Zn208 1.919 . S
O215 C226 1.253 . S
O216 Zn210 1.941 . S
O216 C226 1.283 . S
O217 Zn210 1.965 . S
O217 C225 1.303 . S
O218 Zn211 1.938 . S
O218 C225 1.247 . S
O219 Zn211 1.906 . S
O219 C227 1.304 . S
O220 Zn208 1.924 . S
O220 C228 1.311 . S
O221 Zn212 1.977 . S
O221 C227 1.272 . S
O222 Zn212 1.910 . S
O222 C228 1.231 . S
C223 O207 1.225 . S
C223 O229 1.298 . S
C224 O213 1.226 . S
C224 O214 1.307 . S
C225 O217 1.303 . S
C225 O218 1.247 . S
C226 O215 1.253 . S
C226 O216 1.283 . S
C227 O219 1.304 . S
C227 O221 1.272 . S
C228 O220 1.311 . S
C228 O222 1.231 . S
O229 Zn211 1.953 . S
O229 C223 1.298 . S
O230 Zn231 1.953 . S
O230 C246 1.225 . S
Zn231 O230 1.953 . S
Zn231 O232 1.949 . S
Zn231 O238 1.919 . S
Zn231 O243 1.924 . S
O232 Zn231 1.949 . S
O232 Zn233 1.923 . S
O232 Zn234 1.950 . S
O232 Zn235 1.945 1_545 S
Zn233 O232 1.923 . S
Zn233 O236 1.933 . S
Zn233 O239 1.941 . S
Zn233 O240 1.965 . S
Zn234 O232 1.950 . S
Zn234 O241 1.938 . S
Zn234 O242 1.906 1_545 S
Zn234 O252 1.953 . S
Zn235 O232 1.945 1_565 S
Zn235 O237 1.932 . S
Zn235 O244 1.977 . S
Zn235 O245 1.910 . S
O236 Zn233 1.933 . S
O236 C247 1.226 . S
O237 Zn235 1.932 . S
O237 C247 1.307 1_565 S
O238 Zn231 1.919 . S
O238 C249 1.253 . S
O239 Zn233 1.941 . S
O239 C249 1.283 . S
O240 Zn233 1.965 . S
O240 C248 1.303 . S
O241 Zn234 1.938 . S
O241 C248 1.247 . S
O242 Zn234 1.906 1_565 S
O242 C250 1.304 . S
O243 Zn231 1.924 . S
O243 C251 1.311 1_545 S
O244 Zn235 1.977 . S
O244 C250 1.272 . S
O245 Zn235 1.910 . S
O245 C251 1.231 . S
C246 O230 1.225 . S
C246 O252 1.298 . S
C247 O236 1.226 . S
C247 O237 1.307 1_545 S
C248 O240 1.303 . S
C248 O241 1.247 . S
C249 O238 1.253 . S
C249 O239 1.283 . S
C250 O242 1.304 . S
C250 O244 1.272 . S
C251 O243 1.311 1_565 S
C251 O245 1.231 . S
O252 Zn234 1.953 . S
O252 C246 1.298 . S
O253 Zn254 1.953 . S
O253 C269 1.225 . S
Zn254 O253 1.953 . S
Zn254 O255 1.949 . S
Zn254 O261 1.919 . S
Zn254 O266 1.924 . S
O255 Zn254 1.949 . S
O255 Zn256 1.923 . S
O255 Zn257 1.950 . S
O255 Zn258 1.945 1_655 S
Zn256 O255 1.923 . S
Zn256 O259 1.933 . S
Zn256 O262 1.941 . S
Zn256 O263 1.965 . S
Zn257 O255 1.950 . S
Zn257 O264 1.938 . S
Zn257 O265 1.906 1_655 S
Zn257 O275 1.953 . S
Zn258 O255 1.945 1_455 S
Zn258 O260 1.932 . S
Zn258 O267 1.977 . S
Zn258 O268 1.910 . S
O259 Zn256 1.933 . S
O259 C270 1.226 . S
O260 Zn258 1.932 . S
O260 C270 1.307 1_455 S
O261 Zn254 1.919 . S
O261 C272 1.253 . S
O262 Zn256 1.941 . S
O262 C272 1.283 . S
O263 Zn256 1.965 . S
O263 C271 1.303 . S
O264 Zn257 1.938 . S
O264 C271 1.247 . S
O265 Zn257 1.906 1_455 S
O265 C273 1.304 . S
O266 Zn254 1.924 . S
O266 C274 1.311 1_655 S
O267 Zn258 1.977 . S
O267 C273 1.272 . S
O268 Zn258 1.910 . S
O268 C274 1.231 . S
C269 O253 1.225 . S
C269 O275 1.298 . S
C270 O259 1.226 . S
C270 O260 1.307 1_655 S
C271 O263 1.303 . S
C271 O264 1.247 . S
C272 O261 1.253 . S
C272 O262 1.283 . S
C273 O265 1.304 . S
C273 O267 1.272 . S
C274 O266 1.311 1_455 S
C274 O268 1.231 . S
O275 Zn257 1.953 . S
O275 C269 1.298 . S
O276 Zn277 1.953 . S
O276 C292 1.225 . S
Zn277 O276 1.953 . S
Zn277 O278 1.949 . S
Zn277 O284 1.919 1_655 S
Zn277 O289 1.920 . S
O278 Zn277 1.949 . S
O278 Zn279 1.923 . S
O278 Zn280 1.950 . S
O278 Zn281 1.945 . S
Zn279 O278 1.923 . S
Zn279 O282 1.933 . S
Zn279 O285 1.941 . S
Zn279 O286 1.965 . S
Zn280 O278 1.950 . S
Zn280 O287 1.938 . S
Zn280 O288 1.906 . S
Zn280 O298 1.953 . S
Zn281 O278 1.945 . S
Zn281 O283 1.932 . S
Zn281 O290 1.977 . S
Zn281 O291 1.910 . S
O282 Zn279 1.933 . S
O282 C293 1.226 . S
O283 Zn281 1.932 . S
O283 C293 1.307 . S
O284 Zn277 1.919 1_455 S
O284 C295 1.253 1_455 S
O285 Zn279 1.941 . S
O285 C295 1.283 . S
O286 Zn279 1.965 . S
O286 C294 1.303 . S
O287 Zn280 1.938 . S
O287 C294 1.247 . S
O288 Zn280 1.906 . S
O288 C296 1.304 . S
O289 Zn277 1.920 . S
O289 C297 1.337 . S
O290 Zn281 1.977 . S
O290 C296 1.272 . S
O291 Zn281 1.910 . S
O291 C297 1.231 . S
C292 O276 1.225 . S
C292 O298 1.298 . S
C293 O282 1.226 . S
C293 O283 1.307 . S
C294 O286 1.303 . S
C294 O287 1.247 . S
C295 O284 1.253 1_655 S
C295 O285 1.283 . S
C296 O288 1.304 . S
C296 O290 1.272 . S
C297 O289 1.337 . S
C297 O291 1.231 . S
O298 Zn280 1.953 . S
O298 C292 1.298 . S
O299 Zn300 1.953 . S
O299 C315 1.225 . S
Zn300 O299 1.953 . S
Zn300 O301 1.949 . S
Zn300 O307 1.919 . S
Zn300 O312 1.924 . S
O301 Zn300 1.949 . S
O301 Zn302 1.923 . S
O301 Zn303 1.950 . S
O301 Zn304 1.945 . S
Zn302 O301 1.923 . S
Zn302 O305 1.933 . S
Zn302 O308 1.941 . S
Zn302 O309 1.965 . S
Zn303 O301 1.950 . S
Zn303 O310 1.938 . S
Zn303 O311 1.906 . S
Zn303 O321 1.953 . S
Zn304 O301 1.945 . S
Zn304 O306 1.932 . S
Zn304 O313 1.977 . S
Zn304 O314 1.910 . S
O305 Zn302 1.933 . S
O305 C316 1.226 . S
O306 Zn304 1.932 . S
O306 C316 1.307 . S
O307 Zn300 1.919 . S
O307 C318 1.253 . S
O308 Zn302 1.941 . S
O308 C318 1.283 . S
O309 Zn302 1.965 . S
O309 C317 1.303 . S
O310 Zn303 1.938 . S
O310 C317 1.247 . S
O311 Zn303 1.906 . S
O311 C319 1.304 . S
O312 Zn300 1.924 . S
O312 C320 1.311 . S
O313 Zn304 1.977 . S
O313 C319 1.272 . S
O314 Zn304 1.910 . S
O314 C320 1.231 . S
C315 O299 1.225 . S
C315 O321 1.298 . S
C316 O305 1.226 . S
C316 O306 1.307 . S
C317 O309 1.303 . S
C317 O310 1.247 . S
C318 O307 1.253 . S
C318 O308 1.283 . S
C319 O311 1.304 . S
C319 O313 1.272 . S
C320 O312 1.311 . S
C320 O314 1.231 . S
O321 Zn303 1.953 . S
O321 C315 1.298 . S
O322 Zn323 1.953 . S
O322 C338 1.225 . S
Zn323 O322 1.953 . S
Zn323 O324 1.949 . S
Zn323 O330 1.919 1_545 S
Zn323 O335 1.947 . S
O324 Zn323 1.949 . S
O324 Zn325 1.923 . S
O324 Zn326 1.950 . S
O324 Zn327 1.945 . S
Zn325 O324 1.923 . S
Zn325 O328 1.933 . S
Zn325 O331 1.941 . S
Zn325 O332 1.965 . S
Zn326 O324 1.950 . S
Zn326 O333 1.938 . S
Zn326 O334 1.906 . S
Zn326 O344 1.953 . S
Zn327 O324 1.945 . S
Zn327 O329 1.932 . S
Zn327 O336 1.977 . S
Zn327 O337 1.910 . S
O328 Zn325 1.933 . S
O328 C339 1.226 . S
O329 Zn327 1.932 . S
O329 C339 1.307 . S
O330 Zn323 1.919 1_565 S
O330 C341 1.253 1_565 S
O331 Zn325 1.941 . S
O331 C341 1.283 . S
O332 Zn325 1.965 . S
O332 C340 1.303 . S
O333 Zn326 1.938 . S
O333 C340 1.247 . S
O334 Zn326 1.906 . S
O334 C342 1.304 . S
O335 Zn323 1.947 . S
O335 C343 1.312 . S
O336 Zn327 1.977 . S
O336 C342 1.272 . S
O337 Zn327 1.910 . S
O337 C343 1.231 . S
C338 O322 1.225 . S
C338 O344 1.298 . S
C339 O328 1.226 . S
C339 O329 1.307 . S
C340 O332 1.303 . S
C340 O333 1.247 . S
C341 O330 1.253 1_545 S
C341 O331 1.283 . S
C342 O334 1.304 . S
C342 O336 1.272 . S
C343 O335 1.312 . S
C343 O337 1.231 . S
O344 Zn326 1.953 . S
O344 C338 1.298 . S
O345 Zn346 1.953 . S
O345 C361 1.225 . S
Zn346 O345 1.953 . S
Zn346 O347 1.949 . S
Zn346 O353 1.919 . S
Zn346 O358 1.924 . S
O347 Zn346 1.949 . S
O347 Zn348 1.923 . S
O347 Zn349 1.950 . S
O347 Zn350 1.945 . S
Zn348 O347 1.923 . S
Zn348 O351 1.933 . S
Zn348 O354 1.941 . S
Zn348 O355 1.965 . S
Zn349 O347 1.950 . S
Zn349 O356 1.938 . S
Zn349 O357 1.906 . S
Zn349 O367 1.953 . S
Zn350 O347 1.945 . S
Zn350 O352 1.932 . S
Zn350 O359 1.977 . S
Zn350 O360 1.910 . S
O351 Zn348 1.933 . S
O351 C362 1.226 . S
O352 Zn350 1.932 . S
O352 C362 1.307 . S
O353 Zn346 1.919 . S
O353 C364 1.253 . S
O354 Zn348 1.941 . S
O354 C364 1.283 . S
O355 Zn348 1.965 . S
O355 C363 1.303 . S
O356 Zn349 1.938 . S
O356 C363 1.247 . S
O357 Zn349 1.906 . S
O357 C365 1.304 . S
O358 Zn346 1.924 . S
O358 C366 1.311 . S
O359 Zn350 1.977 . S
O359 C365 1.272 . S
O360 Zn350 1.910 . S
O360 C366 1.231 . S
C361 O345 1.225 . S
C361 O367 1.298 . S
C362 O351 1.226 . S
C362 O352 1.307 . S
C363 O355 1.303 . S
C363 O356 1.247 . S
C364 O353 1.253 . S
C364 O354 1.283 . S
C365 O357 1.304 . S
C365 O359 1.272 . S
C366 O358 1.311 . S
C366 O360 1.231 . S
O367 Zn349 1.953 . S
O367 C361 1.298 . S
O368 Zn369 1.953 . S
O368 C384 1.225 . S
Zn369 O368 1.953 . S
Zn369 O370 1.949 . S
Zn369 O376 1.919 . S
Zn369 O381 1.924 . S
O370 Zn369 1.949 . S
O370 Zn371 1.923 . S
O370 Zn372 1.950 . S
O370 Zn373 1.945 . S
Zn371 O370 1.923 . S
Zn371 O374 1.933 . S
Zn371 O377 1.941 . S
Zn371 O378 1.965 . S
Zn372 O370 1.950 . S
Zn372 O379 1.938 . S
Zn372 O380 1.906 . S
Zn372 O390 1.953 . S
Zn373 O370 1.945 . S
Zn373 O375 1.932 . S
Zn373 O382 1.977 . S
Zn373 O383 1.910 . S
O374 Zn371 1.933 . S
O374 C385 1.226 . S
O375 Zn373 1.932 . S
O375 C385 1.307 . S
O376 Zn369 1.919 . S
O376 C387 1.253 . S
O377 Zn371 1.941 . S
O377 C387 1.283 . S
O378 Zn371 1.965 . S
O378 C386 1.303 . S
O379 Zn372 1.938 . S
O379 C386 1.247 . S
O380 Zn372 1.906 . S
O380 C388 1.304 . S
O381 Zn369 1.924 . S
O381 C389 1.311 . S
O382 Zn373 1.977 . S
O382 C388 1.272 . S
O383 Zn373 1.910 . S
O383 C389 1.231 . S
C384 O368 1.225 . S
C384 O390 1.298 . S
C385 O374 1.226 . S
C385 O375 1.307 . S
C386 O378 1.303 . S
C386 O379 1.247 . S
C387 O376 1.253 . S
C387 O377 1.283 . S
C388 O380 1.304 . S
C388 O382 1.272 . S
C389 O381 1.311 . S
C389 O383 1.231 . S
O390 Zn372 1.953 . S
O390 C384 1.298 . S
O391 Zn392 1.953 . S
O391 C407 1.225 . S
Zn392 O391 1.953 . S
Zn392 O393 1.949 . S
Zn392 O399 1.919 . S
Zn392 O404 1.924 . S
O393 Zn392 1.949 . S
O393 Zn394 1.923 . S
O393 Zn395 1.950 . S
O393 Zn396 1.945 . S
Zn394 O393 1.923 . S
Zn394 O397 1.933 . S
Zn394 O400 1.941 . S
Zn394 O401 1.965 . S
Zn395 O393 1.950 . S
Zn395 O402 1.938 . S
Zn395 O403 1.906 . S
Zn395 O413 1.953 . S
Zn396 O393 1.945 . S
Zn396 O398 1.932 . S
Zn396 O405 1.977 . S
Zn396 O406 1.910 . S
O397 Zn394 1.933 . S
O397 C408 1.226 . S
O398 Zn396 1.932 . S
O398 C408 1.307 . S
O399 Zn392 1.919 . S
O399 C410 1.253 . S
O400 Zn394 1.941 . S
O400 C410 1.283 . S
O401 Zn394 1.965 . S
O401 C409 1.303 . S
O402 Zn395 1.938 . S
O402 C409 1.247 . S
O403 Zn395 1.906 . S
O403 C411 1.304 . S
O404 Zn392 1.924 . S
O404 C412 1.311 . S
O405 Zn396 1.977 . S
O405 C411 1.272 . S
O406 Zn396 1.910 . S
O406 C412 1.231 . S
C407 O391 1.225 . S
C407 O413 1.298 . S
C408 O397 1.226 . S
C408 O398 1.307 . S
C409 O401 1.303 . S
C409 O402 1.247 . S
C410 O399 1.253 . S
C410 O400 1.283 . S
C411 O403 1.304 . S
C411 O405 1.272 . S
C412 O404 1.311 . S
C412 O406 1.231 . S
O413 Zn395 1.953 . S
O413 C407 1.298 . S
O414 Zn415 1.953 . S
O414 C430 1.225 . S
Zn415 O414 1.953 . S
Zn415 O416 1.949 . S
Zn415 O422 1.919 . S
Zn415 O427 1.924 . S
O416 Zn415 1.949 . S
O416 Zn417 1.923 . S
O416 Zn418 1.950 . S
O416 Zn419 1.945 . S
Zn417 O416 1.923 . S
Zn417 O420 1.933 . S
Zn417 O423 1.941 . S
Zn417 O424 1.965 . S
Zn418 O416 1.950 . S
Zn418 O425 1.938 . S
Zn418 O426 1.906 . S
Zn418 O436 1.953 . S
Zn419 O416 1.945 . S
Zn419 O421 1.932 . S
Zn419 O428 1.977 . S
Zn419 O429 1.910 . S
O420 Zn417 1.933 . S
O420 C431 1.226 . S
O421 Zn419 1.932 . S
O421 C431 1.307 . S
O422 Zn415 1.919 . S
O422 C433 1.253 . S
O423 Zn417 1.941 . S
O423 C433 1.283 . S
O424 Zn417 1.965 . S
O424 C432 1.303 . S
O425 Zn418 1.938 . S
O425 C432 1.247 . S
O426 Zn418 1.906 . S
O426 C434 1.304 . S
O427 Zn415 1.924 . S
O427 C435 1.311 . S
O428 Zn419 1.977 . S
O428 C434 1.272 . S
O429 Zn419 1.910 . S
O429 C435 1.231 . S
C430 O414 1.225 . S
C430 O436 1.298 . S
C431 O420 1.226 . S
C431 O421 1.307 . S
C432 O424 1.303 . S
C432 O425 1.247 . S
C433 O422 1.253 . S
C433 O423 1.283 . S
C434 O426 1.304 . S
C434 O428 1.272 . S
C435 O427 1.311 . S
C435 O429 1.231 . S
O436 Zn418 1.953 . S
O436 C430 1.298 . S
O437 Zn438 1.953 . S
O437 C453 1.225 . S
Zn438 O437 1.953 . S
Zn438 O439 1.949 . S
Zn438 O445 1.919 . S
Zn438 O450 1.924 . S
O439 Zn438 1.949 . S
O439 Zn440 1.923 . S
O439 Zn441 1.950 . S
O439 Zn442 1.945 . S
Zn440 O439 1.923 . S
Zn440 O443 1.933 . S
Zn440 O446 1.941 . S
Zn440 O447 1.965 . S
Zn441 O439 1.950 . S
Zn441 O448 1.938 . S
Zn441 O449 1.906 . S
Zn441 O459 1.953 . S
Zn442 O439 1.945 . S
Zn442 O444 1.932 . S
Zn442 O451 1.977 . S
Zn442 O452 1.910 . S
O443 Zn440 1.933 . S
O443 C454 1.226 . S
O444 Zn442 1.932 . S
O444 C454 1.307 . S
O445 Zn438 1.919 . S
O445 C456 1.253 . S
O446 Zn440 1.941 . S
O446 C456 1.283 . S
O447 Zn440 1.965 . S
O447 C455 1.303 . S
O448 Zn441 1.938 . S
O448 C455 1.247 . S
O449 Zn441 1.906 . S
O449 C457 1.304 . S
O450 Zn438 1.924 . S
O450 C458 1.311 . S
O451 Zn442 1.977 . S
O451 C457 1.272 . S
O452 Zn442 1.910 . S
O452 C458 1.231 . S
C453 O437 1.225 . S
C453 O459 1.298 . S
C454 O443 1.226 . S
C454 O444 1.307 . S
C455 O447 1.303 . S
C455 O448 1.247 . S
C456 O445 1.253 . S
C456 O446 1.283 . S
C457 O449 1.304 . S
C457 O451 1.272 . S
C458 O450 1.311 . S
C458 O452 1.231 . S
O459 Zn441 1.953 . S
O459 C453 1.298 . S
O460 Zn461 1.953 . S
O460 C476 1.225 . S
Zn461 O460 1.953 . S
Zn461 O462 1.949 . S
Zn461 O468 1.919 . S
Zn461 O473 1.924 . S
O462 Zn461 1.949 . S
O462 Zn463 1.923 . S
O462 Zn464 1.950 . S
O462 Zn465 1.945 . S
Zn463 O462 1.923 . S
Zn463 O466 1.933 . S
Zn463 O469 1.941 . S
Zn463 O470 1.965 . S
Zn464 O462 1.950 . S
Zn464 O471 1.938 . S
Zn464 O472 1.906 . S
Zn464 O482 1.953 . S
Zn465 O462 1.945 . S
Zn465 O467 1.932 . S
Zn465 O474 1.977 . S
Zn465 O475 1.910 . S
O466 Zn463 1.933 . S
O466 C477 1.226 . S
O467 Zn465 1.932 . S
O467 C477 1.307 . S
O468 Zn461 1.919 . S
O468 C479 1.253 . S
O469 Zn463 1.941 . S
O469 C479 1.283 . S
O470 Zn463 1.965 . S
O470 C478 1.303 . S
O471 Zn464 1.938 . S
O471 C478 1.247 . S
O472 Zn464 1.906 . S
O472 C480 1.304 . S
O473 Zn461 1.924 . S
O473 C481 1.311 . S
O474 Zn465 1.977 . S
O474 C480 1.272 . S
O475 Zn465 1.910 . S
O475 C481 1.231 . S
C476 O460 1.225 . S
C476 O482 1.298 . S
C477 O466 1.226 . S
C477 O467 1.307 . S
C478 O470 1.303 . S
C478 O471 1.247 . S
C479 O468 1.253 . S
C479 O469 1.283 . S
C480 O472 1.304 . S
C480 O474 1.272 . S
C481 O473 1.311 . S
C481 O475 1.231 . S
O482 Zn464 1.953 . S
O482 C476 1.298 . S
O483 Zn484 1.953 . S
O483 C499 1.225 . S
Zn484 O483 1.953 . S
Zn484 O485 1.949 . S
Zn484 O491 1.919 1_545 S
Zn484 O496 1.920 . S
O485 Zn484 1.949 . S
O485 Zn486 1.923 . S
O485 Zn487 1.950 . S
O485 Zn488 1.945 . S
Zn486 O485 1.923 . S
Zn486 O489 1.933 1_556 S
Zn486 O492 1.941 . S
Zn486 O493 1.965 . S
Zn487 O485 1.950 . S
Zn487 O494 1.938 . S
Zn487 O495 1.906 . S
Zn487 O505 1.953 . S
Zn488 O485 1.945 . S
Zn488 O490 1.932 1_556 S
Zn488 O497 1.977 . S
Zn488 O498 1.910 . S
O489 Zn486 1.933 1_554 S
O489 C500 1.226 . S
O490 Zn488 1.932 1_554 S
O490 C500 1.307 . S
O491 Zn484 1.919 1_565 S
O491 C502 1.253 1_565 S
O492 Zn486 1.941 . S
O492 C502 1.283 . S
O493 Zn486 1.965 . S
O493 C501 1.303 . S
O494 Zn487 1.938 . S
O494 C501 1.247 . S
O495 Zn487 1.906 . S
O495 C503 1.304 . S
O496 Zn484 1.920 . S
O496 C504 1.337 . S
O497 Zn488 1.977 . S
O497 C503 1.272 . S
O498 Zn488 1.910 . S
O498 C504 1.231 . S
C499 O483 1.225 . S
C499 O505 1.298 . S
C500 O489 1.226 . S
C500 O490 1.307 . S
C501 O493 1.303 . S
C501 O494 1.247 . S
C502 O491 1.253 1_545 S
C502 O492 1.283 . S
C503 O495 1.304 . S
C503 O497 1.272 . S
C504 O496 1.337 . S
C504 O498 1.231 . S
O505 Zn487 1.953 . S
O505 C499 1.298 . S
O506 Zn507 1.953 . S
O506 C522 1.225 . S
Zn507 O506 1.953 . S
Zn507 O508 1.949 . S
Zn507 O514 1.919 1_655 S
Zn507 O519 1.947 . S
O508 Zn507 1.949 . S
O508 Zn509 1.923 . S
O508 Zn510 1.950 . S
O508 Zn511 1.945 . S
Zn509 O508 1.923 . S
Zn509 O512 1.933 1_556 S
Zn509 O515 1.941 . S
Zn509 O516 1.965 . S
Zn510 O508 1.950 . S
Zn510 O517 1.938 . S
Zn510 O518 1.906 . S
Zn510 O528 1.953 . S
Zn511 O508 1.945 . S
Zn511 O513 1.932 1_556 S
Zn511 O520 1.977 . S
Zn511 O521 1.910 . S
O512 Zn509 1.933 1_554 S
O512 C523 1.226 . S
O513 Zn511 1.932 1_554 S
O513 C523 1.307 . S
O514 Zn507 1.919 1_455 S
O514 C525 1.253 1_455 S
O515 Zn509 1.941 . S
O515 C525 1.283 . S
O516 Zn509 1.965 . S
O516 C524 1.303 . S
O517 Zn510 1.938 . S
O517 C524 1.247 . S
O518 Zn510 1.906 . S
O518 C526 1.304 . S
O519 Zn507 1.947 . S
O519 C527 1.312 . S
O520 Zn511 1.977 . S
O520 C526 1.272 . S
O521 Zn511 1.910 . S
O521 C527 1.231 . S
C522 O506 1.225 . S
C522 O528 1.298 . S
C523 O512 1.226 . S
C523 O513 1.307 . S
C524 O516 1.303 . S
C524 O517 1.247 . S
C525 O514 1.253 1_655 S
C525 O515 1.283 . S
C526 O518 1.304 . S
C526 O520 1.272 . S
C527 O519 1.312 . S
C527 O521 1.231 . S
O528 Zn510 1.953 . S
O528 C522 1.298 . S
O529 Zn530 1.953 . S
O529 C545 1.225 . S
Zn530 O529 1.953 . S
Zn530 O531 1.949 . S
Zn530 O537 1.919 . S
Zn530 O542 1.924 . S
O531 Zn530 1.949 . S
O531 Zn532 1.923 . S
O531 Zn533 1.950 . S
O531 Zn534 1.945 . S
Zn532 O531 1.923 . S
Zn532 O535 1.933 1_556 S
Zn532 O538 1.941 . S
Zn532 O539 1.965 . S
Zn533 O531 1.950 . S
Zn533 O540 1.938 . S
Zn533 O541 1.906 . S
Zn533 O551 1.953 . S
Zn534 O531 1.945 . S
Zn534 O536 1.932 1_556 S
Zn534 O543 1.977 . S
Zn534 O544 1.910 . S
O535 Zn532 1.933 1_554 S
O535 C546 1.226 . S
O536 Zn534 1.932 1_554 S
O536 C546 1.307 . S
O537 Zn530 1.919 . S
O537 C548 1.253 . S
O538 Zn532 1.941 . S
O538 C548 1.283 . S
O539 Zn532 1.965 . S
O539 C547 1.303 . S
O540 Zn533 1.938 . S
O540 C547 1.247 . S
O541 Zn533 1.906 . S
O541 C549 1.304 . S
O542 Zn530 1.924 . S
O542 C550 1.311 . S
O543 Zn534 1.977 . S
O543 C549 1.272 . S
O544 Zn534 1.910 . S
O544 C550 1.231 . S
C545 O529 1.225 . S
C545 O551 1.298 . S
C546 O535 1.226 . S
C546 O536 1.307 . S
C547 O539 1.303 . S
C547 O540 1.247 . S
C548 O537 1.253 . S
C548 O538 1.283 . S
C549 O541 1.304 . S
C549 O543 1.272 . S
C550 O542 1.311 . S
C550 O544 1.231 . S
O551 Zn533 1.953 . S
O551 C545 1.298 . S
O552 Zn553 1.953 . S
O552 C568 1.225 . S
Zn553 O552 1.953 . S
Zn553 O554 1.949 . S
Zn553 O560 1.919 . S
Zn553 O565 1.924 . S
O554 Zn553 1.949 . S
O554 Zn555 1.923 . S
O554 Zn556 1.950 . S
O554 Zn557 1.945 . S
Zn555 O554 1.923 . S
Zn555 O558 1.933 . S
Zn555 O561 1.941 . S
Zn555 O562 1.965 . S
Zn556 O554 1.950 . S
Zn556 O563 1.938 . S
Zn556 O564 1.906 . S
Zn556 O574 1.953 . S
Zn557 O554 1.945 . S
Zn557 O559 1.932 . S
Zn557 O566 1.977 . S
Zn557 O567 1.910 . S
O558 Zn555 1.933 . S
O558 C569 1.226 . S
O559 Zn557 1.932 . S
O559 C569 1.307 . S
O560 Zn553 1.919 . S
O560 C571 1.253 . S
O561 Zn555 1.941 . S
O561 C571 1.283 . S
O562 Zn555 1.965 . S
O562 C570 1.303 . S
O563 Zn556 1.938 . S
O563 C570 1.247 . S
O564 Zn556 1.906 . S
O564 C572 1.304 . S
O565 Zn553 1.924 . S
O565 C573 1.311 . S
O566 Zn557 1.977 . S
O566 C572 1.272 . S
O567 Zn557 1.910 . S
O567 C573 1.231 . S
C568 O552 1.225 . S
C568 O574 1.298 . S
C569 O558 1.226 . S
C569 O559 1.307 . S
C570 O562 1.303 . S
C570 O563 1.247 . S
C571 O560 1.253 . S
C571 O561 1.283 . S
C572 O564 1.304 . S
C572 O566 1.272 . S
C573 O565 1.311 . S
C573 O567 1.231 . S
O574 Zn556 1.953 . S
O574 C568 1.298 . S
O575 Zn576 1.953 . S
O575 C591 1.225 . S
Zn576 O575 1.953 . S
Zn576 O577 1.949 . S
Zn576 O583 1.919 . S
Zn576 O588 1.924 . S
O577 Zn576 1.949 . S
O577 Zn578 1.923 . S
O577 Zn579 1.950 . S
O577 Zn580 1.945 . S
Zn578 O577 1.923 . S
Zn578 O581 1.933 . S
Zn578 O584 1.941 . S
Zn578 O585 1.965 . S
Zn579 O577 1.950 . S
Zn579 O586 1.938 . S
Zn579 O587 1.906 . S
Zn579 O597 1.953 . S
Zn580 O577 1.945 . S
Zn580 O582 1.932 . S
Zn580 O589 1.977 . S
Zn580 O590 1.910 . S
O581 Zn578 1.933 . S
O581 C592 1.226 . S
O582 Zn580 1.932 . S
O582 C592 1.307 . S
O583 Zn576 1.919 . S
O583 C594 1.253 . S
O584 Zn578 1.941 . S
O584 C594 1.283 . S
O585 Zn578 1.965 . S
O585 C593 1.303 . S
O586 Zn579 1.938 . S
O586 C593 1.247 . S
O587 Zn579 1.906 . S
O587 C595 1.304 . S
O588 Zn576 1.924 . S
O588 C596 1.311 . S
O589 Zn580 1.977 . S
O589 C595 1.272 . S
O590 Zn580 1.910 . S
O590 C596 1.231 . S
C591 O575 1.225 . S
C591 O597 1.298 . S
C592 O581 1.226 . S
C592 O582 1.307 . S
C593 O585 1.303 . S
C593 O586 1.247 . S
C594 O583 1.253 . S
C594 O584 1.283 . S
C595 O587 1.304 . S
C595 O589 1.272 . S
C596 O588 1.311 . S
C596 O590 1.231 . S
O597 Zn579 1.953 . S
O597 C591 1.298 . S
O598 Zn599 1.953 . S
O598 C614 1.225 . S
Zn599 O598 1.953 . S
Zn599 O600 1.949 . S
Zn599 O606 1.919 . S
Zn599 O611 1.924 . S
O600 Zn599 1.949 . S
O600 Zn601 1.923 . S
O600 Zn602 1.950 . S
O600 Zn603 1.945 . S
Zn601 O600 1.923 . S
Zn601 O604 1.933 . S
Zn601 O607 1.941 . S
Zn601 O608 1.965 . S
Zn602 O600 1.950 . S
Zn602 O609 1.938 . S
Zn602 O610 1.906 . S
Zn602 O620 1.953 . S
Zn603 O600 1.945 . S
Zn603 O605 1.932 . S
Zn603 O612 1.977 . S
Zn603 O613 1.910 . S
O604 Zn601 1.933 . S
O604 C615 1.226 . S
O605 Zn603 1.932 . S
O605 C615 1.307 . S
O606 Zn599 1.919 . S
O606 C617 1.253 . S
O607 Zn601 1.941 . S
O607 C617 1.283 . S
O608 Zn601 1.965 . S
O608 C616 1.303 . S
O609 Zn602 1.938 . S
O609 C616 1.247 . S
O610 Zn602 1.906 . S
O610 C618 1.304 . S
O611 Zn599 1.924 . S
O611 C619 1.311 . S
O612 Zn603 1.977 . S
O612 C618 1.272 . S
O613 Zn603 1.910 . S
O613 C619 1.231 . S
C614 O598 1.225 . S
C614 O620 1.298 . S
C615 O604 1.226 . S
C615 O605 1.307 . S
C616 O608 1.303 . S
C616 O609 1.247 . S
C617 O606 1.253 . S
C617 O607 1.283 . S
C618 O610 1.304 . S
C618 O612 1.272 . S
C619 O611 1.311 . S
C619 O613 1.231 . S
O620 Zn602 1.953 . S
O620 C614 1.298 . S
O621 Zn622 1.953 . S
O621 C637 1.225 . S
Zn622 O621 1.953 . S
Zn622 O623 1.949 . S
Zn622 O629 1.919 1_565 S
Zn622 O634 1.920 . S
O623 Zn622 1.949 . S
O623 Zn624 1.923 . S
O623 Zn625 1.950 . S
O623 Zn626 1.945 . S
Zn624 O623 1.923 . S
Zn624 O627 1.933 1_554 S
Zn624 O630 1.941 . S
Zn624 O631 1.965 . S
Zn625 O623 1.950 . S
Zn625 O632 1.938 . S
Zn625 O633 1.906 . S
Zn625 O643 1.953 . S
Zn626 O623 1.945 . S
Zn626 O628 1.932 1_554 S
Zn626 O635 1.977 . S
Zn626 O636 1.910 . S
O627 Zn624 1.933 1_556 S
O627 C638 1.226 . S
O628 Zn626 1.932 1_556 S
O628 C638 1.307 . S
O629 Zn622 1.919 1_545 S
O629 C640 1.253 1_545 S
O630 Zn624 1.941 . S
O630 C640 1.283 . S
O631 Zn624 1.965 . S
O631 C639 1.303 . S
O632 Zn625 1.938 . S
O632 C639 1.247 . S
O633 Zn625 1.906 . S
O633 C641 1.304 . S
O634 Zn622 1.920 . S
O634 C642 1.337 . S
O635 Zn626 1.977 . S
O635 C641 1.272 . S
O636 Zn626 1.910 . S
O636 C642 1.231 . S
C637 O621 1.225 . S
C637 O643 1.298 . S
C638 O627 1.226 . S
C638 O628 1.307 . S
C639 O631 1.303 . S
C639 O632 1.247 . S
C640 O629 1.253 1_565 S
C640 O630 1.283 . S
C641 O633 1.304 . S
C641 O635 1.272 . S
C642 O634 1.337 . S
C642 O636 1.231 . S
O643 Zn625 1.953 . S
O643 C637 1.298 . S
O644 Zn645 1.953 . S
O644 C660 1.225 . S
Zn645 O644 1.953 . S
Zn645 O646 1.949 . S
Zn645 O652 1.919 1_455 S
Zn645 O657 1.947 . S
O646 Zn645 1.949 . S
O646 Zn647 1.923 . S
O646 Zn648 1.950 . S
O646 Zn649 1.945 . S
Zn647 O646 1.923 . S
Zn647 O650 1.933 1_554 S
Zn647 O653 1.941 . S
Zn647 O654 1.965 . S
Zn648 O646 1.950 . S
Zn648 O655 1.938 . S
Zn648 O656 1.906 . S
Zn648 O666 1.953 . S
Zn649 O646 1.945 . S
Zn649 O651 1.932 1_554 S
Zn649 O658 1.977 . S
Zn649 O659 1.910 . S
O650 Zn647 1.933 1_556 S
O650 C661 1.226 . S
O651 Zn649 1.932 1_556 S
O651 C661 1.307 . S
O652 Zn645 1.919 1_655 S
O652 C663 1.253 1_655 S
O653 Zn647 1.941 . S
O653 C663 1.283 . S
O654 Zn647 1.965 . S
O654 C662 1.303 . S
O655 Zn648 1.938 . S
O655 C662 1.247 . S
O656 Zn648 1.906 . S
O656 C664 1.304 . S
O657 Zn645 1.947 . S
O657 C665 1.312 . S
O658 Zn649 1.977 . S
O658 C664 1.272 . S
O659 Zn649 1.910 . S
O659 C665 1.231 . S
C660 O644 1.225 . S
C660 O666 1.298 . S
C661 O650 1.226 . S
C661 O651 1.307 . S
C662 O654 1.303 . S
C662 O655 1.247 . S
C663 O652 1.253 1_455 S
C663 O653 1.283 . S
C664 O656 1.304 . S
C664 O658 1.272 . S
C665 O657 1.312 . S
C665 O659 1.231 . S
O666 Zn648 1.953 . S
O666 C660 1.298 . S
O667 Zn668 1.953 . S
O667 C683 1.225 . S
Zn668 O667 1.953 . S
Zn668 O669 1.949 . S
Zn668 O675 1.919 . S
Zn668 O680 1.924 . S
O669 Zn668 1.949 . S
O669 Zn670 1.923 . S
O669 Zn671 1.950 . S
O669 Zn672 1.945 . S
Zn670 O669 1.923 . S
Zn670 O673 1.933 1_554 S
Zn670 O676 1.941 . S
Zn670 O677 1.965 . S
Zn671 O669 1.950 . S
Zn671 O678 1.938 . S
Zn671 O679 1.906 . S
Zn671 O689 1.953 . S
Zn672 O669 1.945 . S
Zn672 O674 1.932 1_554 S
Zn672 O681 1.977 . S
Zn672 O682 1.910 . S
O673 Zn670 1.933 1_556 S
O673 C684 1.226 . S
O674 Zn672 1.932 1_556 S
O674 C684 1.307 . S
O675 Zn668 1.919 . S
O675 C686 1.253 . S
O676 Zn670 1.941 . S
O676 C686 1.283 . S
O677 Zn670 1.965 . S
O677 C685 1.303 . S
O678 Zn671 1.938 . S
O678 C685 1.247 . S
O679 Zn671 1.906 . S
O679 C687 1.304 . S
O680 Zn668 1.924 . S
O680 C688 1.311 . S
O681 Zn672 1.977 . S
O681 C687 1.272 . S
O682 Zn672 1.910 . S
O682 C688 1.231 . S
C683 O667 1.225 . S
C683 O689 1.298 . S
C684 O673 1.226 . S
C684 O674 1.307 . S
C685 O677 1.303 . S
C685 O678 1.247 . S
C686 O675 1.253 . S
C686 O676 1.283 . S
C687 O679 1.304 . S
C687 O681 1.272 . S
C688 O680 1.311 . S
C688 O682 1.231 . S
O689 Zn671 1.953 . S
O689 C683 1.298 . S
O690 Zn691 1.953 . S
O690 C706 1.225 . S
Zn691 O690 1.953 . S
Zn691 O692 1.949 . S
Zn691 O698 1.919 1_455 S
Zn691 O703 1.920 . S
O692 Zn691 1.949 . S
O692 Zn693 1.923 . S
O692 Zn694 1.950 . S
O692 Zn695 1.945 . S
Zn693 O692 1.923 . S
Zn693 O696 1.933 . S
Zn693 O699 1.941 . S
Zn693 O700 1.965 . S
Zn694 O692 1.950 . S
Zn694 O701 1.938 . S
Zn694 O702 1.906 . S
Zn694 O712 1.953 . S
Zn695 O692 1.945 . S
Zn695 O697 1.932 . S
Zn695 O704 1.977 . S
Zn695 O705 1.910 . S
O696 Zn693 1.933 . S
O696 C707 1.226 . S
O697 Zn695 1.932 . S
O697 C707 1.307 . S
O698 Zn691 1.919 1_655 S
O698 C709 1.253 1_655 S
O699 Zn693 1.941 . S
O699 C709 1.283 . S
O700 Zn693 1.965 . S
O700 C708 1.303 . S
O701 Zn694 1.938 . S
O701 C708 1.247 . S
O702 Zn694 1.906 . S
O702 C710 1.304 . S
O703 Zn691 1.920 . S
O703 C711 1.337 . S
O704 Zn695 1.977 . S
O704 C710 1.272 . S
O705 Zn695 1.910 . S
O705 C711 1.231 . S
C706 O690 1.225 . S
C706 O712 1.298 . S
C707 O696 1.226 . S
C707 O697 1.307 . S
C708 O700 1.303 . S
C708 O701 1.247 . S
C709 O698 1.253 1_455 S
C709 O699 1.283 . S
C710 O702 1.304 . S
C710 O704 1.272 . S
C711 O703 1.337 . S
C711 O705 1.231 . S
O712 Zn694 1.953 . S
O712 C706 1.298 . S
O713 Zn714 1.953 . S
O713 C729 1.225 . S
Zn714 O713 1.953 . S
Zn714 O715 1.949 . S
Zn714 O721 1.919 . S
Zn714 O726 1.924 . S
O715 Zn714 1.949 . S
O715 Zn716 1.923 . S
O715 Zn717 1.950 . S
O715 Zn718 1.945 . S
Zn716 O715 1.923 . S
Zn716 O719 1.933 . S
Zn716 O722 1.941 . S
Zn716 O723 1.965 . S
Zn717 O715 1.950 . S
Zn717 O724 1.938 . S
Zn717 O725 1.906 . S
Zn717 O735 1.953 . S
Zn718 O715 1.945 . S
Zn718 O720 1.932 . S
Zn718 O727 1.977 . S
Zn718 O728 1.910 . S
O719 Zn716 1.933 . S
O719 C730 1.226 . S
O720 Zn718 1.932 . S
O720 C730 1.307 . S
O721 Zn714 1.919 . S
O721 C732 1.253 . S
O722 Zn716 1.941 . S
O722 C732 1.283 . S
O723 Zn716 1.965 . S
O723 C731 1.303 . S
O724 Zn717 1.938 . S
O724 C731 1.247 . S
O725 Zn717 1.906 . S
O725 C733 1.304 . S
O726 Zn714 1.924 . S
O726 C734 1.311 . S
O727 Zn718 1.977 . S
O727 C733 1.272 . S
O728 Zn718 1.910 . S
O728 C734 1.231 . S
C729 O713 1.225 . S
C729 O735 1.298 . S
C730 O719 1.226 . S
C730 O720 1.307 . S
C731 O723 1.303 . S
C731 O724 1.247 . S
C732 O721 1.253 . S
C732 O722 1.283 . S
C733 O725 1.304 . S
C733 O727 1.272 . S
C734 O726 1.311 . S
C734 O728 1.231 . S
O735 Zn717 1.953 . S
O735 C729 1.298 . S
O736 Zn737 1.953 . S
O736 C752 1.225 . S
Zn737 O736 1.953 . S
Zn737 O738 1.949 . S
Zn737 O744 1.919 1_565 S
Zn737 O749 1.947 . S
O738 Zn737 1.949 . S
O738 Zn739 1.923 . S
O738 Zn740 1.950 . S
O738 Zn741 1.945 . S
Zn739 O738 1.923 . S
Zn739 O742 1.933 . S
Zn739 O745 1.941 . S
Zn739 O746 1.965 . S
Zn740 O738 1.950 . S
Zn740 O747 1.938 . S
Zn740 O748 1.906 . S
Zn740 O758 1.953 . S
Zn741 O738 1.945 . S
Zn741 O743 1.932 . S
Zn741 O750 1.977 . S
Zn741 O751 1.910 . S
O742 Zn739 1.933 . S
O742 C753 1.226 . S
O743 Zn741 1.932 . S
O743 C753 1.307 . S
O744 Zn737 1.919 1_545 S
O744 C755 1.253 1_545 S
O745 Zn739 1.941 . S
O745 C755 1.283 . S
O746 Zn739 1.965 . S
O746 C754 1.303 . S
O747 Zn740 1.938 . S
O747 C754 1.247 . S
O748 Zn740 1.906 . S
O748 C756 1.304 . S
O749 Zn737 1.947 . S
O749 C757 1.312 . S
O750 Zn741 1.977 . S
O750 C756 1.272 . S
O751 Zn741 1.910 . S
O751 C757 1.231 . S
C752 O736 1.225 . S
C752 O758 1.298 . S
C753 O742 1.226 . S
C753 O743 1.307 . S
C754 O746 1.303 . S
C754 O747 1.247 . S
C755 O744 1.253 1_565 S
C755 O745 1.283 . S
C756 O748 1.304 . S
C756 O750 1.272 . S
C757 O749 1.312 . S
C757 O751 1.231 . S
O758 Zn740 1.953 . S
O758 C752 1.298 . S
O759 Zn760 1.953 . S
O759 C775 1.225 . S
Zn760 O759 1.953 . S
Zn760 O761 1.949 . S
Zn760 O767 1.919 . S
Zn760 O772 1.924 . S
O761 Zn760 1.949 . S
O761 Zn762 1.923 . S
O761 Zn763 1.950 . S
O761 Zn764 1.945 . S
Zn762 O761 1.923 . S
Zn762 O765 1.933 . S
Zn762 O768 1.941 . S
Zn762 O769 1.965 . S
Zn763 O761 1.950 . S
Zn763 O770 1.938 . S
Zn763 O771 1.906 . S
Zn763 O781 1.953 . S
Zn764 O761 1.945 . S
Zn764 O766 1.932 . S
Zn764 O773 1.977 . S
Zn764 O774 1.910 . S
O765 Zn762 1.933 . S
O765 C776 1.226 . S
O766 Zn764 1.932 . S
O766 C776 1.307 . S
O767 Zn760 1.919 . S
O767 C778 1.253 . S
O768 Zn762 1.941 . S
O768 C778 1.283 . S
O769 Zn762 1.965 . S
O769 C777 1.303 . S
O770 Zn763 1.938 . S
O770 C777 1.247 . S
O771 Zn763 1.906 . S
O771 C779 1.304 . S
O772 Zn760 1.924 . S
O772 C780 1.311 . S
O773 Zn764 1.977 . S
O773 C779 1.272 . S
O774 Zn764 1.910 . S
O774 C780 1.231 . S
C775 O759 1.225 . S
C775 O781 1.298 . S
C776 O765 1.226 . S
C776 O766 1.307 . S
C777 O769 1.303 . S
C777 O770 1.247 . S
C778 O767 1.253 . S
C778 O768 1.283 . S
C779 O771 1.304 . S
C779 O773 1.272 . S
C780 O772 1.311 . S
C780 O774 1.231 . S
O781 Zn763 1.953 . S
O781 C775 1.298 . S
O782 Zn783 1.953 . S
O782 C798 1.225 . S
Zn783 O782 1.953 . S
Zn783 O784 1.949 . S
Zn783 O790 1.919 . S
Zn783 O795 1.924 . S
O784 Zn783 1.949 . S
O784 Zn785 1.923 . S
O784 Zn786 1.950 . S
O784 Zn787 1.945 . S
Zn785 O784 1.923 . S
Zn785 O788 1.933 . S
Zn785 O791 1.941 . S
Zn785 O792 1.965 . S
Zn786 O784 1.950 . S
Zn786 O793 1.938 . S
Zn786 O794 1.906 . S
Zn786 O804 1.953 . S
Zn787 O784 1.945 . S
Zn787 O789 1.932 . S
Zn787 O796 1.977 . S
Zn787 O797 1.910 . S
O788 Zn785 1.933 . S
O788 C799 1.226 . S
O789 Zn787 1.932 . S
O789 C799 1.307 . S
O790 Zn783 1.919 . S
O790 C801 1.253 . S
O791 Zn785 1.941 . S
O791 C801 1.283 . S
O792 Zn785 1.965 . S
O792 C800 1.303 . S
O793 Zn786 1.938 . S
O793 C800 1.247 . S
O794 Zn786 1.906 . S
O794 C802 1.304 . S
O795 Zn783 1.924 . S
O795 C803 1.311 . S
O796 Zn787 1.977 . S
O796 C802 1.272 . S
O797 Zn787 1.910 . S
O797 C803 1.231 . S
C798 O782 1.225 . S
C798 O804 1.298 . S
C799 O788 1.226 . S
C799 O789 1.307 . S
C800 O792 1.303 . S
C800 O793 1.247 . S
C801 O790 1.253 . S
C801 O791 1.283 . S
C802 O794 1.304 . S
C802 O796 1.272 . S
C803 O795 1.311 . S
C803 O797 1.231 . S
O804 Zn786 1.953 . S
O804 C798 1.298 . S
O805 Zn806 1.953 . S
O805 C821 1.225 . S
Zn806 O805 1.953 . S
Zn806 O807 1.949 . S
Zn806 O813 1.919 . S
Zn806 O818 1.924 . S
O807 Zn806 1.949 . S
O807 Zn808 1.923 . S
O807 Zn809 1.950 . S
O807 Zn810 1.945 . S
Zn808 O807 1.923 . S
Zn808 O811 1.933 . S
Zn808 O814 1.941 . S
Zn808 O815 1.965 . S
Zn809 O807 1.950 . S
Zn809 O816 1.938 . S
Zn809 O817 1.906 . S
Zn809 O827 1.953 . S
Zn810 O807 1.945 . S
Zn810 O812 1.932 . S
Zn810 O819 1.977 . S
Zn810 O820 1.910 . S
O811 Zn808 1.933 . S
O811 C822 1.226 . S
O812 Zn810 1.932 . S
O812 C822 1.307 . S
O813 Zn806 1.919 . S
O813 C824 1.253 . S
O814 Zn808 1.941 . S
O814 C824 1.283 . S
O815 Zn808 1.965 . S
O815 C823 1.303 . S
O816 Zn809 1.938 . S
O816 C823 1.247 . S
O817 Zn809 1.906 . S
O817 C825 1.304 . S
O818 Zn806 1.924 . S
O818 C826 1.311 . S
O819 Zn810 1.977 . S
O819 C825 1.272 . S
O820 Zn810 1.910 . S
O820 C826 1.231 . S
C821 O805 1.225 . S
C821 O827 1.298 . S
C822 O811 1.226 . S
C822 O812 1.307 . S
C823 O815 1.303 . S
C823 O816 1.247 . S
C824 O813 1.253 . S
C824 O814 1.283 . S
C825 O817 1.304 . S
C825 O819 1.272 . S
C826 O818 1.311 . S
C826 O820 1.231 . S
O827 Zn809 1.953 . S
O827 C821 1.298 . S
C18 C181 1.353 1_554 S
C204 C41 1.353 1_556 S
C158 C64 1.353 1_556 S
C273 C87 1.353 . S
C110 C227 1.353 . S
C133 C250 1.353 . S
C43 C156 1.353 1_554 S
C179 C66 1.353 1_556 S
C20 C202 1.353 1_554 S
C135 C225 1.353 . S
C248 C89 1.353 . S
C271 C112 1.353 . S
C294 C457 1.353 . S
C480 C317 1.353 . S
C434 C340 1.353 . S
C363 C549 1.353 . S
C503 C386 1.353 . S
C409 C526 1.353 . S
C432 C319 1.353 . S
C342 C455 1.353 . S
C478 C296 1.353 . S
C411 C501 1.353 . S
C365 C524 1.353 . S
C547 C388 1.353 . S
C570 C733 1.353 . S
C593 C756 1.353 . S
C710 C616 1.353 . S
C825 C639 1.353 . S
C662 C779 1.353 . S
C802 C685 1.353 . S
C595 C708 1.353 . S
C731 C618 1.353 . S
C572 C754 1.353 . S
C777 C687 1.353 . S
C800 C641 1.353 . S
C823 C664 1.353 . S
C19 C433 1.283 . S
C42 C456 1.284 . S
C479 C65 1.283 . S
C778 C88 1.283 . S
C801 C111 1.283 . S
C824 C134 1.284 . S
C157 C571 1.283 . S
C594 C180 1.284 . S
C203 C617 1.283 . S
C226 C364 1.283 . S
C249 C387 1.283 . S
C272 C410 1.284 . S
C295 C709 1.283 1_655 S
C732 C318 1.283 . S
C341 C755 1.283 1_545 S
C640 C502 1.283 1_564 S
C525 C663 1.283 1_656 S
C686 C548 1.283 1_554 S
C16 C384 1.839 . S
C39 C407 1.839 . S
C361 C62 1.839 . S
C85 C614 1.839 . S
C568 C108 1.839 . S
C131 C591 1.839 . S
C798 C154 1.839 . S
C177 C821 1.839 . S
C775 C200 1.839 . S
C223 C476 1.839 . S
C246 C430 1.839 . S
C269 C453 1.839 . S
C660 C292 1.839 1_455 S
C315 C683 1.839 . S
C338 C637 1.839 1_545 S
C752 C499 1.839 1_565 S
C706 C522 1.839 1_455 S
C729 C545 1.839 . S
C86 C17 1.950 . S
C40 C109 1.950 1_545 S
C63 C132 1.950 1_655 S
C224 C155 1.950 . S
C178 C247 1.950 1_565 S
C270 C201 1.950 1_655 S
C362 C293 1.950 . S
C316 C385 1.950 . S
C339 C408 1.950 . S
C431 C500 1.950 . S
C454 C523 1.950 . S
C477 C546 1.950 . S
C569 C638 1.950 . S
C661 C592 1.950 . S
C684 C615 1.950 . S
C707 C776 1.950 . S
C799 C730 1.950 . S
C753 C822 1.950 . S
C21 C688 1.275 . S
C642 C44 1.275 . S
C67 C665 1.275 . S
C320 C90 1.275 . S
C113 C343 1.275 . S
C136 C297 1.275 . S
C550 C159 1.275 . S
C182 C504 1.275 . S
C527 C205 1.275 . S
C228 C734 1.275 . S
C757 C251 1.275 . S
C711 C274 1.275 . S
C366 C596 1.275 1_655 S
C389 C619 1.275 . S
C412 C573 1.275 1_545 S
C435 C826 1.275 1_545 S
C458 C780 1.275 1_655 S
C803 C481 1.275 . S
