# Generated by pormake.
# Topology mmt, (4)-cn, num edge types: 1
# Building blocks:
#     Node 0, Type 0, BuildingBlock: QUQFOY_clean_sbu_3, # of connection points: 4
#     Node 1, Type 0, BuildingBlock: QUQFOY_clean_sbu_3, # of connection points: 4
#     Node 2, Type 0, BuildingBlock: QUQFOY_clean_sbu_3, # of connection points: 4
#     Node 3, Type 0, BuildingBlock: QUQFOY_clean_sbu_3, # of connection points: 4
#     Node 4, Type 0, BuildingBlock: QUQFOY_clean_sbu_3, # of connection points: 4
#     Node 5, Type 0, BuildingBlock: QUQFOY_clean_sbu_3, # of connection points: 4
#     Node 6, Type 0, BuildingBlock: QUQFOY_clean_sbu_3, # of connection points: 4
#     Node 7, Type 0, BuildingBlock: QUQFOY_clean_sbu_3, # of connection points: 4
#     Edge 8, Type (0, 0), BuildingBlock: XIVTED_clean_linker_0, # of connection points: 2
#     Edge 9, Type (0, 0), BuildingBlock: XIVTED_clean_linker_0, # of connection points: 2
#     Edge 10, Type (0, 0), BuildingBlock: XIVTED_clean_linker_0, # of connection points: 2
#     Edge 11, Type (0, 0), BuildingBlock: XIVTED_clean_linker_0, # of connection points: 2
#     Edge 12, Type (0, 0), BuildingBlock: XIVTED_clean_linker_0, # of connection points: 2
#     Edge 13, Type (0, 0), BuildingBlock: XIVTED_clean_linker_0, # of connection points: 2
#     Edge 14, Type (0, 0), BuildingBlock: XIVTED_clean_linker_0, # of connection points: 2
#     Edge 15, Type (0, 0), BuildingBlock: XIVTED_clean_linker_0, # of connection points: 2
#     Edge 16, Type (0, 0), BuildingBlock: XIVTED_clean_linker_0, # of connection points: 2
#     Edge 17, Type (0, 0), BuildingBlock: XIVTED_clean_linker_0, # of connection points: 2
#     Edge 18, Type (0, 0), BuildingBlock: XIVTED_clean_linker_0, # of connection points: 2
#     Edge 19, Type (0, 0), BuildingBlock: XIVTED_clean_linker_0, # of connection points: 2
#     Edge 20, Type (0, 0), BuildingBlock: XIVTED_clean_linker_0, # of connection points: 2
#     Edge 21, Type (0, 0), BuildingBlock: XIVTED_clean_linker_0, # of connection points: 2
#     Edge 22, Type (0, 0), BuildingBlock: XIVTED_clean_linker_0, # of connection points: 2
#     Edge 23, Type (0, 0), BuildingBlock: XIVTED_clean_linker_0, # of connection points: 2
# Relax obj value: 0.026
# Max RMSD: 0.041
# Mean RMSD: 0.041
data_MOF--net-mmt--node1-QUQFOY_clean_sbu_3--edge1-XIVTED_clean_linker_0
_symmetry_space_group_name_H-M    P1
_symmetry_Int_Tables_number       1
_symmetry_cell_setting            triclinic
loop_
_symmetry_equiv_pos_as_xyz
'x, y, z'
_cell_length_a     23.266468
_cell_length_b     38.568672
_cell_length_c     47.257535
_cell_angle_alpha  90.239912
_cell_angle_beta   89.985594
_cell_angle_gamma 90.022492
loop_
_atom_site_label
_atom_site_type_symbol
_atom_site_fract_x
_atom_site_fract_y
_atom_site_fract_z
_atom_type_partial_charge
C0 C 0.08436 0.64363 0.31496 0.0
O1 O 0.0545 0.64497 0.2925 0.0
Cd2 Cd 0.00302 0.59579 0.27303 0.0
O3 O 0.08389 0.6166 0.33032 0.0
Cd4 Cd 0.03369 0.56001 0.3311 0.0
C5 C 0.11098 0.53523 0.27425 0.0
O6 O 0.94086 0.57053 0.30729 0.0
O7 O 0.96927 0.51741 0.31177 0.0
O8 O 0.00304 0.56653 0.38018 0.0
C9 C 0.93039 0.53838 0.30417 0.0
O10 O 0.07565 0.55297 0.25966 0.0
C11 C 0.02716 0.53894 0.38872 0.0
O12 O 0.10882 0.53528 0.3012 0.0
O13 O 0.05665 0.52207 0.37069 0.0
C14 C 0.37196 0.83392 0.32202 0.0
O15 O 0.40813 0.83028 0.30211 0.0
Cd16 Cd 0.45926 0.87863 0.28212 0.0
O17 O 0.36803 0.86255 0.33544 0.0
Cd18 Cd 0.41967 0.91904 0.33776 0.0
C19 C 0.34833 0.93842 0.27814 0.0
O20 O 0.51511 0.9078 0.31694 0.0
O21 O 0.48588 0.96103 0.31939 0.0
O22 O 0.44589 0.91233 0.38731 0.0
C23 C 0.52543 0.93982 0.31304 0.0
O24 O 0.38354 0.9177 0.26619 0.0
C25 C 0.42173 0.94006 0.3957 0.0
O26 O 0.34958 0.94342 0.30483 0.0
O27 O 0.39394 0.95722 0.3773 0.0
C28 C 0.58408 0.32951 0.13918 0.0
O29 O 0.54899 0.3237 0.15915 0.0
Cd30 Cd 0.5045 0.37076 0.18412 0.0
O31 O 0.58828 0.35975 0.12864 0.0
Cd32 Cd 0.53568 0.41592 0.13308 0.0
C33 C 0.61689 0.42959 0.18976 0.0
O34 O 0.44174 0.40423 0.1553 0.0
O35 O 0.48011 0.45464 0.16234 0.0
O36 O 0.49877 0.41523 0.08498 0.0
C37 C 0.43703 0.43483 0.1651 0.0
O38 O 0.58295 0.40781 0.20124 0.0
C39 C 0.52166 0.44367 0.07758 0.0
O40 O 0.61228 0.43706 0.16361 0.0
O41 O 0.5532 0.45884 0.09579 0.0
C42 C 0.87191 0.14283 0.14618 0.0
O43 O 0.90395 0.1483 0.16747 0.0
Cd44 Cd 0.95148 0.10205 0.19219 0.0
O45 O 0.87004 0.11296 0.13463 0.0
Cd46 Cd 0.92098 0.05654 0.13921 0.0
C47 C 0.84221 0.04166 0.19736 0.0
O48 O 0.01428 0.07071 0.16157 0.0
O49 O -0.01468 0.01732 0.16238 0.0
O50 O 0.95437 0.05814 0.09061 0.0
C51 C 0.02452 0.03921 0.16761 0.0
O52 O 0.87533 0.06381 0.20904 0.0
C53 C 0.93164 0.02958 0.08319 0.0
O54 O 0.84688 0.03447 0.17111 0.0
O55 O 0.90115 0.01412 0.10158 0.0
C56 C 0.88687 0.33295 0.65241 0.0
O57 O 0.91628 0.33123 0.675 0.0
Cd58 Cd 0.96928 0.37969 0.6947 0.0
O59 O 0.88809 0.36012 0.63723 0.0
Cd60 Cd 0.93862 0.41644 0.63713 0.0
C61 C 0.8628 0.44099 0.69467 0.0
O62 O 0.03172 0.40429 0.66021 0.0
O63 O 0.00558 0.4579 0.65592 0.0
O64 O 0.96749 0.41016 0.58783 0.0
C65 C 0.04377 0.43626 0.66309 0.0
O66 O 0.89819 0.423 0.70901 0.0
C67 C 0.94419 0.43817 0.57966 0.0
O68 O 0.86443 0.44113 0.66772 0.0
O69 O 0.91583 0.45523 0.59801 0.0
C70 C 0.58924 0.14998 0.65067 0.0
O71 O 0.55491 0.15666 0.67081 0.0
Cd72 Cd 0.50548 0.11099 0.69491 0.0
O73 O 0.59028 0.11992 0.63941 0.0
Cd74 Cd 0.53195 0.06576 0.64269 0.0
C75 C 0.61194 0.04821 0.69902 0.0
O76 O 0.43957 0.08085 0.66516 0.0
O77 O 0.47202 0.02889 0.67128 0.0
O78 O 0.49592 0.06797 0.59435 0.0
C79 C 0.43132 0.05038 0.67444 0.0
O80 O 0.58007 0.07072 0.71112 0.0
C81 C 0.51609 0.03877 0.58685 0.0
O82 O 0.60652 0.04165 0.67271 0.0
O83 O 0.54571 0.0225 0.60508 0.0
C84 C 0.38946 0.65198 0.80925 0.0
O85 O 0.42253 0.65124 0.78788 0.0
Cd86 Cd 0.47754 0.60242 0.77218 0.0
O87 O 0.38747 0.62635 0.82618 0.0
Cd88 Cd 0.43654 0.56892 0.83006 0.0
C89 C 0.36573 0.5435 0.77155 0.0
O90 O 0.53234 0.57716 0.8092 0.0
O91 O 0.49758 0.52523 0.80926 0.0
O92 O 0.46568 0.57543 0.87941 0.0
C93 C 0.53969 0.54508 0.80419 0.0
O94 O 0.40297 0.56138 0.75824 0.0
C95 C 0.43925 0.54868 0.88808 0.0
O96 O 0.36495 0.54288 0.79853 0.0
O97 O 0.40927 0.53226 0.86998 0.0
C98 C 0.08494 0.83543 0.80703 0.0
O99 O 0.0595 0.84105 0.78369 0.0
Cd100 Cd -0.00076 0.88951 0.77126 0.0
O101 O 0.07957 0.85654 0.82768 0.0
Cd102 Cd 0.0304 0.91313 0.83442 0.0
C103 C 0.10328 0.95038 0.77984 0.0
O104 O 0.93825 0.90425 0.80983 0.0
O105 O 0.96075 0.95667 0.82161 0.0
O106 O 0.00193 0.90261 0.88353 0.0
C107 C 0.92409 0.936 0.81118 0.0
O108 O 0.06694 0.93645 0.76316 0.0
C109 C 0.02832 0.9289 0.89335 0.0
O110 O 0.10291 0.94376 0.80626 0.0
O111 O 0.05817 0.94636 0.87598 0.0
H112 H 0.10785 0.5084 0.22069 0.0
H113 H 0.43948 0.47914 0.20971 0.0
H114 H 0.21679 0.51703 0.2943 0.0
H115 H 0.3242 0.41482 0.16093 0.0
H116 H 0.35824 0.49898 0.23826 0.0
H117 H 0.18618 0.47901 0.19546 0.0
C118 C 0.14815 0.50394 0.23156 0.0
C119 C 0.15613 0.51531 0.25954 0.0
C120 C 0.35081 0.48033 0.22146 0.0
C121 C 0.24551 0.48232 0.23077 0.0
C122 C 0.39694 0.46919 0.20505 0.0
C123 C 0.38822 0.44548 0.1829 0.0
C124 C 0.29537 0.46838 0.21518 0.0
C125 C 0.33246 0.43312 0.17788 0.0
C126 C 0.19251 0.48702 0.21723 0.0
C127 C 0.20893 0.50866 0.27275 0.0
N128 N 0.28772 0.44517 0.19367 0.0
N129 N 0.25204 0.49308 0.25808 0.0
H130 H 0.09396 0.07664 0.20351 0.0
H131 H 0.31501 0.92115 0.22469 0.0
H132 H 0.07511 0.97625 0.16399 0.0
H133 H 0.28258 -0.00441 0.29132 0.0
H134 H 0.24099 0.9487 0.19609 0.0
H135 H 0.17737 0.05441 0.23001 0.0
C136 C 0.10792 0.05015 0.20015 0.0
C137 C 0.07778 0.02812 0.18169 0.0
C138 C 0.25025 0.95907 0.21693 0.0
C139 C 0.1724 0.00293 0.21143 0.0
C140 C 0.29257 0.94344 0.23327 0.0
C141 C 0.30469 0.95593 0.26055 0.0
C142 C 0.22021 0.98772 0.22771 0.0
C143 C 0.27415 0.98495 0.27051 0.0
C144 C 0.15501 0.03748 0.21535 0.0
C145 C 0.09705 -0.00604 0.17817 0.0
N146 N 0.2332 -4e-05 0.25404 0.0
N147 N 0.14324 0.98244 0.19284 0.0
H148 H 0.6558 0.40942 0.24156 0.0
H149 H 0.8615 0.57256 0.26618 0.0
H150 H 0.67832 0.48876 0.17831 0.0
H151 H 0.88325 0.47435 0.30823 0.0
H152 H 0.7821 0.54731 0.23853 0.0
H153 H 0.72791 0.43804 0.27093 0.0
C154 C 0.67587 0.4329 0.23384 0.0
C155 C 0.66127 0.44661 0.20735 0.0
C156 C 0.80418 0.53147 0.25396 0.0
C157 C 0.74346 0.47969 0.24106 0.0
C158 C 0.84903 0.54589 0.26984 0.0
C159 C 0.87892 0.5254 0.28938 0.0
C160 C 0.78882 0.49662 0.25812 0.0
C161 C 0.8615 0.49094 0.29323 0.0
C162 C 0.71707 0.44919 0.25062 0.0
C163 C 0.68871 0.47714 0.19848 0.0
N164 N 0.81757 0.47765 0.27777 0.0
N165 N 0.72846 0.49277 0.21537 0.0
H166 H 0.77987 0.98285 0.18507 0.0
H167 H 0.57393 0.00338 0.31773 0.0
H168 H 0.80406 0.06113 0.24958 0.0
H169 H 0.59435 0.90493 0.27526 0.0
H170 H 0.654 0.02653 0.29039 0.0
H171 H 0.70672 0.95532 0.215 0.0
C172 C 0.7698 -0.00575 0.20546 0.0
C173 C 0.79796 0.02441 0.2148 0.0
C174 C 0.64144 -0.00025 0.28721 0.0
C175 C 0.71463 -0.0068 0.2489 0.0
C176 C 0.59574 0.98655 0.30278 0.0
C177 C 0.57769 0.95223 0.29871 0.0
C178 C 0.66867 0.97871 0.26697 0.0
C179 C 0.60736 0.93149 0.2791 0.0
C180 C 0.72843 0.9784 0.22256 0.0
C181 C 0.78353 0.03793 0.24149 0.0
N182 N 0.65111 0.94521 0.26362 0.0
N183 N 0.74261 0.0224 0.25747 0.0
H184 H 0.53765 0.49404 0.76466 0.0
H185 H 0.86872 0.46993 0.74744 0.0
H186 H 0.65163 0.56749 0.80484 0.0
H187 H 0.75498 0.45674 0.67608 0.0
H188 H 0.79095 0.49931 0.77326 0.0
H189 H 0.61803 0.4725 0.7363 0.0
C190 C 0.57975 0.50553 0.76757 0.0
C191 C 0.58834 0.53245 0.78715 0.0
C192 C 0.78347 0.49027 0.75185 0.0
C193 C 0.68016 0.50768 0.75508 0.0
C194 C 0.82748 0.47339 0.7372 0.0
C195 C 0.81799 0.46084 0.70967 0.0
C196 C 0.72937 0.49362 0.73912 0.0
C197 C 0.764 0.46612 0.69725 0.0
C198 C 0.62533 0.49342 0.75125 0.0
C199 C 0.64352 0.54669 0.78991 0.0
N200 N 0.72131 0.48163 0.71227 0.0
N201 N 0.68783 0.53376 0.77428 0.0
H202 H 0.67406 -0.0097 0.68428 0.0
H203 H 0.87124 -0.00256 0.82145 0.0
H204 H 0.64825 0.06338 0.75259 0.0
H205 H 0.86022 0.90604 0.76877 0.0
H206 H 0.79199 0.02308 0.79506 0.0
H207 H 0.74574 0.9602 0.71318 0.0
C208 C 0.68346 3e-05 0.70531 0.0
C209 C 0.6553 0.02951 0.71598 0.0
C210 C 0.80645 -0.00272 0.7894 0.0
C211 C 0.73704 -0.00473 0.74901 0.0
C212 C 0.8517 0.98265 0.80444 0.0
C213 C 0.87227 0.94964 0.79721 0.0
C214 C 0.78213 0.97902 0.76661 0.0
C215 C 0.84537 0.93153 0.77506 0.0
C216 C 0.72406 0.98272 0.72182 0.0
C217 C 0.66887 0.04081 0.74345 0.0
N218 N 0.802 0.94666 0.76026 0.0
N219 N 0.70902 0.02382 0.75891 0.0
H220 H 0.29475 0.49083 0.78939 0.0
H221 H 0.09923 0.49661 0.65324 0.0
H222 H 0.33753 0.55222 0.71612 0.0
H223 H 0.10812 0.40405 0.70395 0.0
H224 H 0.18185 0.52001 0.67875 0.0
H225 H 0.22079 0.4609 0.7613 0.0
C226 C 0.2887 0.49795 0.76745 0.0
C227 C 0.32211 0.52419 0.75511 0.0
C228 C 0.16618 0.49442 0.68413 0.0
C229 C 0.23786 0.49037 0.72318 0.0
C230 C 0.11904 0.48111 0.66963 0.0
C231 C 0.09711 0.44841 0.67655 0.0
C232 C 0.19077 0.47525 0.70618 0.0
C233 C 0.12422 0.42931 0.69793 0.0
C234 C 0.24687 0.48073 0.75144 0.0
C235 C 0.31279 0.53221 0.72654 0.0
N236 N 0.16935 0.44325 0.71237 0.0
N237 N 0.27116 0.51564 0.71165 0.0
H238 H 0.20939 0.96408 0.802 0.0
H239 H 0.3216 0.07614 0.67152 0.0
H240 H 0.10116 0.98647 0.73018 0.0
H241 H 0.42842 0.0047 0.71781 0.0
H242 H 0.23856 0.05757 0.70014 0.0
H243 H 0.28878 -0.0057 0.7786 0.0
C244 C 0.20205 0.97587 0.78156 0.0
C245 C 0.14893 0.97242 0.76782 0.0
C246 C 0.28043 0.04631 0.70407 0.0
C247 C 0.23907 0.0071 0.74121 0.0
C248 C 0.32757 0.05687 0.68786 0.0
C249 C 0.38148 0.04156 0.69217 0.0
C250 C 0.28805 0.02107 0.72508 0.0
C251 C 0.3873 0.01676 0.71359 0.0
C252 C 0.24734 -0.00708 0.7682 0.0
C253 C 0.14175 0.98817 0.7413 0.0
N254 N 0.34117 0.00733 0.72931 0.0
N255 N 0.18646 0.00478 0.72876 0.0
H256 H 0.96366 0.56843 0.43124 0.0
H257 H 0.00614 0.40847 0.53675 0.0
H258 H 0.068 0.47888 0.41188 0.0
H259 H 0.90437 0.4988 0.55696 0.0
H260 H 0.02783 0.43344 0.49056 0.0
H261 H 0.94181 0.54356 0.47748 0.0
C262 C -0.01763 0.54366 0.4368 0.0
C263 C 0.01772 0.5257 0.41766 0.0
C264 C 0.00058 0.44776 0.50504 0.0
C265 C -0.00764 0.4969 0.47045 0.0
C266 C -0.01205 0.43344 0.53138 0.0
C267 C 0.95339 0.45158 0.55075 0.0
C268 C 0.97855 0.48051 0.49798 0.0
C269 C 0.93116 0.48389 0.54267 0.0
C270 C 0.96967 0.5294 0.46317 0.0
C271 C 0.0406 0.49366 0.42598 0.0
N272 N 0.94427 0.49737 0.51694 0.0
N273 N 0.02736 0.48024 0.45171 0.0
H274 H 0.38048 0.00025 0.41903 0.0
H275 H 0.55059 0.9761 0.56514 0.0
H276 H 0.4825 0.91006 0.43869 0.0
H277 H 0.4512 0.06706 0.54459 0.0
H278 H 0.52444 0.95083 0.51936 0.0
H279 H 0.40261 0.02404 0.4658 0.0
C280 C 0.40707 0.98529 0.43329 0.0
C281 C 0.42977 0.95315 0.42491 0.0
C282 C 0.50841 0.97634 0.52485 0.0
C283 C 0.45583 0.9804 0.47839 0.0
C284 C 0.5235 -0.00917 0.55095 0.0
C285 C 0.50316 0.02378 0.55869 0.0
C286 C 0.47265 -0.0051 0.50634 0.0
C287 C 0.46799 0.04162 0.53949 0.0
C288 C 0.41992 -0.00104 0.45995 0.0
C289 C 0.4641 0.93495 0.44424 0.0
N290 N 0.45383 0.02695 0.51425 0.0
N291 N 0.47629 0.9489 0.47001 0.0
H292 H 0.45371 0.41738 0.03552 0.0
H293 H 0.50344 0.57729 0.93078 0.0
H294 H 0.56132 0.50516 0.056 0.0
H295 H 0.39342 0.49015 0.91166 0.0
H296 H 0.52298 0.55236 0.97727 0.0
H297 H 0.43044 0.44415 -0.00972 0.0
C298 C 0.47269 0.44224 0.03045 0.0
C299 C 0.50966 0.45901 0.04956 0.0
C300 C 0.49431 0.53879 0.96297 0.0
C301 C 0.48282 0.48998 -0.00224 0.0
C302 C 0.48295 0.55307 0.93646 0.0
C303 C 0.44683 0.53573 0.91726 0.0
C304 C 0.46952 0.50686 0.97035 0.0
C305 C 0.42157 0.50441 0.92575 0.0
C306 C 0.45919 0.45758 0.00462 0.0
C307 C 0.53276 0.49126 0.04187 0.0
N308 N 0.43362 0.49091 0.9516 0.0
N309 N 0.51895 0.5057 0.01656 0.0
H310 H 0.07798 0.98469 0.91936 0.0
H311 H 0.89182 0.96802 0.0613 0.0
H312 H 0.95873 0.90095 0.93423 0.0
H313 H 0.00023 0.05548 0.04148 0.0
H314 H 0.91852 0.94135 0.01602 0.0
H315 H 0.05482 0.00851 0.96584 0.0
C316 C 0.04736 0.97108 0.93254 0.0
C317 C 0.02008 0.94085 0.92284 0.0
C318 C 0.93631 0.96641 0.02158 0.0
C319 C -0.00728 0.96827 0.97605 0.0
C320 C 0.9209 0.98172 0.04736 0.0
C321 C 0.94371 0.01407 0.05515 0.0
C322 C 0.97497 0.98355 0.00356 0.0
C323 C 0.98144 0.03056 0.03633 0.0
C324 C 0.03389 0.98481 0.95905 0.0
C325 C 0.98075 0.92434 0.94086 0.0
N326 N -0.00405 0.01509 0.01149 0.0
N327 N 0.96798 0.93838 0.96656 0.0
H328 H 0.18823 0.63938 0.3414 0.0
H329 H 0.26007 0.84062 0.33835 0.0
H330 H 0.07178 0.71279 0.30351 0.0
H331 H 0.38803 0.76389 0.3171 0.0
H332 H 0.18746 0.79445 0.3408 0.0
H333 H 0.25895 0.68605 0.34768 0.0
C334 C 0.17714 0.66544 0.3349 0.0
C335 C 0.12421 0.6723 0.32182 0.0
C336 C 0.23166 0.78782 0.33601 0.0
C337 C 0.20428 0.72552 0.32936 0.0
C338 C 0.2731 0.81399 0.3348 0.0
C339 C 0.33003 0.80597 0.32744 0.0
C340 C 0.24771 0.7534 0.33059 0.0
C341 C 0.34453 0.77111 0.32272 0.0
C342 C 0.21757 0.69188 0.33835 0.0
C343 C 0.11224 0.70644 0.31353 0.0
N344 N 0.3036 0.74602 0.32447 0.0
N345 N 0.15196 0.73189 0.31754 0.0
H346 H 0.76721 0.13525 0.12074 0.0
H347 H 0.69398 0.33738 0.11994 0.0
H348 H 0.88611 0.21308 0.15061 0.0
H349 H 0.5681 0.25929 0.14056 0.0
H350 H 0.76672 0.29169 0.11485 0.0
H351 H 0.69619 0.18096 0.11182 0.0
C352 C 0.77882 0.162 0.12483 0.0
C353 C 0.8324 0.17043 0.13667 0.0
C354 C 0.72287 0.28464 0.11996 0.0
C355 C 0.75189 0.22255 0.12619 0.0
C356 C 0.68132 0.31058 0.12268 0.0
C357 C 0.62509 0.30205 0.13089 0.0
C358 C 0.70767 0.24998 0.12486 0.0
C359 C 0.61111 0.26694 0.13443 0.0
C360 C 0.73823 0.18795 0.11988 0.0
C361 C 0.84508 0.20549 0.14174 0.0
N362 N 0.6522 0.24214 0.13146 0.0
N363 N 0.80503 0.23031 0.13651 0.0
H364 H 0.70043 0.1387 0.63482 0.0
H365 H 0.78555 0.33802 0.62375 0.0
H366 H 0.57753 0.22042 0.64992 0.0
H367 H 0.89552 0.2639 0.66528 0.0
H368 H 0.71295 0.29252 0.61739 0.0
H369 H 0.77636 0.18262 0.62996 0.0
C370 C 0.68921 0.1659 0.6364 0.0
C371 C 0.63278 0.17607 0.64286 0.0
C372 C 0.7534 0.28623 0.62749 0.0
C373 C 0.71881 0.226 0.63703 0.0
C374 C 0.7949 0.31202 0.63102 0.0
C375 C 0.84644 0.3047 0.64523 0.0
C376 C 0.76417 0.25275 0.6376 0.0
C377 C 0.85614 0.27064 0.65441 0.0
C378 C 0.73251 0.1908 0.63384 0.0
C379 C 0.62059 0.21159 0.64506 0.0
N380 N 0.81532 0.24583 0.65041 0.0
N381 N 0.66331 0.23536 0.64212 0.0
H382 H 0.31936 0.66833 0.85455 0.0
H383 H 0.12818 0.79652 0.7637 0.0
H384 H 0.36361 0.70115 0.77004 0.0
H385 H 0.1365 0.80809 0.85454 0.0
H386 H 0.20338 0.75274 0.76608 0.0
H387 H 0.24324 0.71265 0.85567 0.0
C388 C 0.31354 0.685 0.8364 0.0
C389 C 0.34795 0.68094 0.81215 0.0
C390 C 0.1886 0.76477 0.78551 0.0
C391 C 0.26046 0.73076 0.81309 0.0
C392 C 0.14528 0.78959 0.78423 0.0
C393 C 0.12605 0.80618 0.80896 0.0
C394 C 0.21255 0.75594 0.81174 0.0
C395 C 0.15022 0.79607 0.83494 0.0
C396 C 0.27014 0.71018 0.83706 0.0
C397 C 0.33838 0.70326 0.78922 0.0
N398 N 0.19226 0.77149 0.83569 0.0
N399 N 0.29519 0.72684 0.79014 0.0
loop_
_geom_bond_atom_site_label_1
_geom_bond_atom_site_label_2
_geom_bond_distance
_geom_bond_site_symmetry_2
_ccdc_geom_bond_type
C0 O1 1.306 . S
C0 O3 1.160 . S
O1 C0 1.306 . S
O1 Cd2 2.228 . S
Cd2 O1 2.228 . S
Cd2 O6 2.273 . S
Cd2 O10 2.277 . S
O3 C0 1.160 . S
O3 Cd4 2.203 . S
Cd4 O3 2.203 . S
Cd4 O6 2.411 . S
Cd4 O7 2.333 . S
Cd4 O8 2.352 . S
Cd4 O12 2.277 . S
Cd4 O13 2.356 . S
C5 O10 1.209 . S
C5 O12 1.226 . S
O6 Cd2 2.273 . S
O6 Cd4 2.411 . S
O6 C9 1.320 . S
O7 Cd4 2.333 . S
O7 C9 1.214 . S
O8 Cd4 2.352 . S
O8 C11 1.258 . S
C9 O6 1.320 . S
C9 O7 1.214 . S
O10 Cd2 2.277 . S
O10 C5 1.209 . S
C11 O8 1.258 . S
C11 O13 1.282 . S
O12 Cd4 2.277 . S
O12 C5 1.226 . S
O13 Cd4 2.356 . S
O13 C11 1.282 . S
C14 O15 1.306 . S
C14 O17 1.160 . S
O15 C14 1.306 . S
O15 Cd16 2.228 . S
Cd16 O15 2.228 . S
Cd16 O20 2.273 . S
Cd16 O24 2.277 . S
O17 C14 1.160 . S
O17 Cd18 2.203 . S
Cd18 O17 2.203 . S
Cd18 O20 2.411 . S
Cd18 O21 2.333 . S
Cd18 O22 2.352 . S
Cd18 O26 2.277 . S
Cd18 O27 2.356 . S
C19 O24 1.209 . S
C19 O26 1.226 . S
O20 Cd16 2.273 . S
O20 Cd18 2.411 . S
O20 C23 1.320 . S
O21 Cd18 2.333 . S
O21 C23 1.214 . S
O22 Cd18 2.352 . S
O22 C25 1.258 . S
C23 O20 1.320 . S
C23 O21 1.214 . S
O24 Cd16 2.277 . S
O24 C19 1.209 . S
C25 O22 1.258 . S
C25 O27 1.282 . S
O26 Cd18 2.277 . S
O26 C19 1.226 . S
O27 Cd18 2.356 . S
O27 C25 1.282 . S
C28 O29 1.306 . S
C28 O31 1.160 . S
O29 C28 1.306 . S
O29 Cd30 2.228 . S
Cd30 O29 2.228 . S
Cd30 O34 2.273 . S
Cd30 O38 2.277 . S
O31 C28 1.160 . S
O31 Cd32 2.203 . S
Cd32 O31 2.203 . S
Cd32 O34 2.411 . S
Cd32 O35 2.333 . S
Cd32 O36 2.352 . S
Cd32 O40 2.277 . S
Cd32 O41 2.356 . S
C33 O38 1.209 . S
C33 O40 1.226 . S
O34 Cd30 2.273 . S
O34 Cd32 2.411 . S
O34 C37 1.320 . S
O35 Cd32 2.333 . S
O35 C37 1.214 . S
O36 Cd32 2.352 . S
O36 C39 1.258 . S
C37 O34 1.320 . S
C37 O35 1.214 . S
O38 Cd30 2.277 . S
O38 C33 1.209 . S
C39 O36 1.258 . S
C39 O41 1.282 . S
O40 Cd32 2.277 . S
O40 C33 1.226 . S
O41 Cd32 2.356 . S
O41 C39 1.282 . S
C42 O43 1.306 . S
C42 O45 1.160 . S
O43 C42 1.306 . S
O43 Cd44 2.228 . S
Cd44 O43 2.228 . S
Cd44 O48 2.273 . S
Cd44 O52 2.277 . S
O45 C42 1.160 . S
O45 Cd46 2.203 . S
Cd46 O45 2.203 . S
Cd46 O48 2.411 . S
Cd46 O49 2.333 . S
Cd46 O50 2.352 . S
Cd46 O54 2.277 . S
Cd46 O55 2.356 . S
C47 O52 1.209 . S
C47 O54 1.226 . S
O48 Cd44 2.273 . S
O48 Cd46 2.411 . S
O48 C51 1.320 . S
O49 Cd46 2.333 . S
O49 C51 1.214 . S
O50 Cd46 2.352 . S
O50 C53 1.258 . S
C51 O48 1.320 . S
C51 O49 1.214 . S
O52 Cd44 2.277 . S
O52 C47 1.209 . S
C53 O50 1.258 . S
C53 O55 1.282 . S
O54 Cd46 2.277 . S
O54 C47 1.226 . S
O55 Cd46 2.356 . S
O55 C53 1.282 . S
C56 O57 1.306 . S
C56 O59 1.160 . S
O57 C56 1.306 . S
O57 Cd58 2.228 . S
Cd58 O57 2.228 . S
Cd58 O62 2.273 . S
Cd58 O66 2.277 . S
O59 C56 1.160 . S
O59 Cd60 2.203 . S
Cd60 O59 2.203 . S
Cd60 O62 2.411 . S
Cd60 O63 2.333 . S
Cd60 O64 2.352 . S
Cd60 O68 2.277 . S
Cd60 O69 2.356 . S
C61 O66 1.209 . S
C61 O68 1.226 . S
O62 Cd58 2.273 . S
O62 Cd60 2.411 . S
O62 C65 1.320 . S
O63 Cd60 2.333 . S
O63 C65 1.214 . S
O64 Cd60 2.352 . S
O64 C67 1.258 . S
C65 O62 1.320 . S
C65 O63 1.214 . S
O66 Cd58 2.277 . S
O66 C61 1.209 . S
C67 O64 1.258 . S
C67 O69 1.282 . S
O68 Cd60 2.277 . S
O68 C61 1.226 . S
O69 Cd60 2.356 . S
O69 C67 1.282 . S
C70 O71 1.306 . S
C70 O73 1.160 . S
O71 C70 1.306 . S
O71 Cd72 2.228 . S
Cd72 O71 2.228 . S
Cd72 O76 2.273 . S
Cd72 O80 2.277 . S
O73 C70 1.160 . S
O73 Cd74 2.203 . S
Cd74 O73 2.203 . S
Cd74 O76 2.411 . S
Cd74 O77 2.333 . S
Cd74 O78 2.352 . S
Cd74 O82 2.277 . S
Cd74 O83 2.356 . S
C75 O80 1.209 . S
C75 O82 1.226 . S
O76 Cd72 2.273 . S
O76 Cd74 2.411 . S
O76 C79 1.320 . S
O77 Cd74 2.333 . S
O77 C79 1.214 . S
O78 Cd74 2.352 . S
O78 C81 1.258 . S
C79 O76 1.320 . S
C79 O77 1.214 . S
O80 Cd72 2.277 . S
O80 C75 1.209 . S
C81 O78 1.258 . S
C81 O83 1.282 . S
O82 Cd74 2.277 . S
O82 C75 1.226 . S
O83 Cd74 2.356 . S
O83 C81 1.282 . S
C84 O85 1.306 . S
C84 O87 1.160 . S
O85 C84 1.306 . S
O85 Cd86 2.228 . S
Cd86 O85 2.228 . S
Cd86 O90 2.273 . S
Cd86 O94 2.277 . S
O87 C84 1.160 . S
O87 Cd88 2.203 . S
Cd88 O87 2.203 . S
Cd88 O90 2.411 . S
Cd88 O91 2.333 . S
Cd88 O92 2.352 . S
Cd88 O96 2.277 . S
Cd88 O97 2.356 . S
C89 O94 1.209 . S
C89 O96 1.226 . S
O90 Cd86 2.273 . S
O90 Cd88 2.411 . S
O90 C93 1.320 . S
O91 Cd88 2.333 . S
O91 C93 1.214 . S
O92 Cd88 2.352 . S
O92 C95 1.258 . S
C93 O90 1.320 . S
C93 O91 1.214 . S
O94 Cd86 2.277 . S
O94 C89 1.209 . S
C95 O92 1.258 . S
C95 O97 1.282 . S
O96 Cd88 2.277 . S
O96 C89 1.226 . S
O97 Cd88 2.356 . S
O97 C95 1.282 . S
C98 O99 1.306 . S
C98 O101 1.160 . S
O99 C98 1.306 . S
O99 Cd100 2.228 . S
Cd100 O99 2.228 . S
Cd100 O104 2.273 . S
Cd100 O108 2.277 . S
O101 C98 1.160 . S
O101 Cd102 2.203 . S
Cd102 O101 2.203 . S
Cd102 O104 2.411 . S
Cd102 O105 2.333 . S
Cd102 O106 2.352 . S
Cd102 O110 2.277 . S
Cd102 O111 2.356 . S
C103 O108 1.209 . S
C103 O110 1.226 . S
O104 Cd100 2.273 . S
O104 Cd102 2.411 . S
O104 C107 1.320 . S
O105 Cd102 2.333 . S
O105 C107 1.214 . S
O106 Cd102 2.352 . S
O106 C109 1.258 . S
C107 O104 1.320 . S
C107 O105 1.214 . S
O108 Cd100 2.277 . S
O108 C103 1.209 . S
C109 O106 1.258 . S
C109 O111 1.282 . S
O110 Cd102 2.277 . S
O110 C103 1.226 . S
O111 Cd102 2.356 . S
O111 C109 1.282 . S
H112 C118 0.930 . S
H113 C122 0.930 . S
H114 C127 0.929 . S
H115 C125 0.929 . S
H116 C120 0.929 . S
H117 C126 0.929 . S
C118 H112 0.930 . S
C118 C119 1.367 . S
C118 C126 1.378 . S
C119 C118 1.367 . S
C119 C127 1.433 . S
C120 H116 0.929 . S
C120 C122 1.378 . S
C120 C124 1.350 . S
C121 C124 1.463 . S
C121 C126 1.350 . S
C121 N129 1.427 . S
C122 H113 0.930 . S
C122 C120 1.378 . S
C122 C123 1.367 . S
C123 C122 1.367 . S
C123 C125 1.433 . S
C124 C120 1.350 . S
C124 C121 1.463 . S
C124 N128 1.427 . S
C125 H115 0.929 . S
C125 C123 1.433 . S
C125 N128 1.384 . S
C126 H117 0.929 . S
C126 C118 1.378 . S
C126 C121 1.350 . S
C127 H114 0.929 . S
C127 C119 1.433 . S
C127 N129 1.384 . S
N128 C124 1.427 . S
N128 C125 1.384 . S
N129 C121 1.427 . S
N129 C127 1.384 . S
H130 C136 0.930 1_655 S
H131 C140 0.930 . S
H132 C145 0.929 . S
H133 C143 0.929 1_545 S
H134 C138 0.929 . S
H135 C144 0.929 . S
C136 H130 0.930 1_455 S
C136 C137 1.367 . S
C136 C144 1.378 . S
C137 C136 1.367 . S
C137 C145 1.433 . S
C138 H134 0.929 . S
C138 C140 1.378 . S
C138 C142 1.350 . S
C139 C142 1.463 1_545 S
C139 C144 1.350 . S
C139 N147 1.427 1_545 S
C140 H131 0.930 . S
C140 C138 1.378 . S
C140 C141 1.367 . S
C141 C140 1.367 . S
C141 C143 1.433 . S
C142 C138 1.350 . S
C142 C139 1.463 1_565 S
C142 N146 1.427 1_565 S
C143 H133 0.929 1_565 S
C143 C141 1.433 . S
C143 N146 1.384 1_565 S
C144 H135 0.929 . S
C144 C136 1.378 . S
C144 C139 1.350 . S
C145 H132 0.929 . S
C145 C137 1.433 . S
C145 N147 1.384 1_545 S
N146 C142 1.427 1_545 S
N146 C143 1.384 1_545 S
N147 C139 1.427 1_565 S
N147 C145 1.384 1_565 S
H148 C154 0.930 . S
H149 C158 0.930 . S
H150 C163 0.929 . S
H151 C161 0.929 . S
H152 C156 0.929 . S
H153 C162 0.929 . S
C154 H148 0.930 . S
C154 C155 1.367 . S
C154 C162 1.378 . S
C155 C154 1.367 . S
C155 C163 1.433 . S
C156 H152 0.929 . S
C156 C158 1.378 . S
C156 C160 1.350 . S
C157 C160 1.463 . S
C157 C162 1.350 . S
C157 N165 1.427 . S
C158 H149 0.930 . S
C158 C156 1.378 . S
C158 C159 1.367 . S
C159 C158 1.367 . S
C159 C161 1.433 . S
C160 C156 1.350 . S
C160 C157 1.463 . S
C160 N164 1.427 . S
C161 H151 0.929 . S
C161 C159 1.433 . S
C161 N164 1.384 . S
C162 H153 0.929 . S
C162 C154 1.378 . S
C162 C157 1.350 . S
C163 H150 0.929 . S
C163 C155 1.433 . S
C163 N165 1.384 . S
N164 C160 1.427 . S
N164 C161 1.384 . S
N165 C157 1.427 . S
N165 C163 1.384 . S
H166 C172 0.930 . S
H167 C176 0.930 . S
H168 C181 0.929 . S
H169 C179 0.929 . S
H170 C174 0.929 . S
H171 C180 0.929 . S
C172 H166 0.930 . S
C172 C173 1.367 1_565 S
C172 C180 1.378 . S
C173 C172 1.367 1_545 S
C173 C181 1.433 . S
C174 H170 0.929 . S
C174 C176 1.378 . S
C174 C178 1.350 1_545 S
C175 C178 1.463 1_545 S
C175 C180 1.350 1_545 S
C175 N183 1.427 . S
C176 H167 0.930 . S
C176 C174 1.378 . S
C176 C177 1.367 1_545 S
C177 C176 1.367 1_565 S
C177 C179 1.433 . S
C178 C174 1.350 1_565 S
C178 C175 1.463 1_565 S
C178 N182 1.427 . S
C179 H169 0.929 . S
C179 C177 1.433 . S
C179 N182 1.384 . S
C180 H171 0.929 . S
C180 C172 1.378 . S
C180 C175 1.350 1_565 S
C181 H168 0.929 . S
C181 C173 1.433 . S
C181 N183 1.384 . S
N182 C178 1.427 . S
N182 C179 1.384 . S
N183 C175 1.427 . S
N183 C181 1.384 . S
H184 C190 0.930 . S
H185 C194 0.930 . S
H186 C199 0.929 . S
H187 C197 0.929 . S
H188 C192 0.929 . S
H189 C198 0.929 . S
C190 H184 0.930 . S
C190 C191 1.367 . S
C190 C198 1.378 . S
C191 C190 1.367 . S
C191 C199 1.433 . S
C192 H188 0.929 . S
C192 C194 1.378 . S
C192 C196 1.350 . S
C193 C196 1.463 . S
C193 C198 1.350 . S
C193 N201 1.427 . S
C194 H185 0.930 . S
C194 C192 1.378 . S
C194 C195 1.367 . S
C195 C194 1.367 . S
C195 C197 1.433 . S
C196 C192 1.350 . S
C196 C193 1.463 . S
C196 N200 1.427 . S
C197 H187 0.929 . S
C197 C195 1.433 . S
C197 N200 1.384 . S
C198 H189 0.929 . S
C198 C190 1.378 . S
C198 C193 1.350 . S
C199 H186 0.929 . S
C199 C191 1.433 . S
C199 N201 1.384 . S
N200 C196 1.427 . S
N200 C197 1.384 . S
N201 C193 1.427 . S
N201 C199 1.384 . S
H202 C208 0.930 1_565 S
H203 C212 0.930 . S
H204 C217 0.929 . S
H205 C215 0.929 1_455 S
H206 C210 0.929 . S
H207 C216 0.929 . S
C208 H202 0.930 1_545 S
C208 C209 1.367 . S
C208 C216 1.378 1_545 S
C209 C208 1.367 . S
C209 C217 1.433 . S
C210 H206 0.929 . S
C210 C212 1.378 1_545 S
C210 C214 1.350 1_545 S
C211 C214 1.463 1_545 S
C211 C216 1.350 1_545 S
C211 N219 1.427 . S
C212 H203 0.930 . S
C212 C210 1.378 1_565 S
C212 C213 1.367 . S
C213 C212 1.367 . S
C213 C215 1.433 . S
C214 C210 1.350 1_565 S
C214 C211 1.463 1_565 S
C214 N218 1.427 . S
C215 H205 0.929 1_655 S
C215 C213 1.433 . S
C215 N218 1.384 . S
C216 H207 0.929 . S
C216 C208 1.378 1_565 S
C216 C211 1.350 1_565 S
C217 H204 0.929 . S
C217 C209 1.433 . S
C217 N219 1.384 . S
N218 C214 1.427 . S
N218 C215 1.384 . S
N219 C211 1.427 . S
N219 C217 1.384 . S
H220 C226 0.930 . S
H221 C230 0.930 . S
H222 C235 0.929 . S
H223 C233 0.929 1_655 S
H224 C228 0.929 . S
H225 C234 0.929 . S
C226 H220 0.930 . S
C226 C227 1.367 . S
C226 C234 1.378 . S
C227 C226 1.367 . S
C227 C235 1.433 . S
C228 H224 0.929 . S
C228 C230 1.378 . S
C228 C232 1.350 . S
C229 C232 1.463 . S
C229 C234 1.350 . S
C229 N237 1.427 . S
C230 H221 0.930 . S
C230 C228 1.378 . S
C230 C231 1.367 . S
C231 C230 1.367 . S
C231 C233 1.433 . S
C232 C228 1.350 . S
C232 C229 1.463 . S
C232 N236 1.427 . S
C233 H223 0.929 1_455 S
C233 C231 1.433 . S
C233 N236 1.384 . S
C234 H225 0.929 . S
C234 C226 1.378 . S
C234 C229 1.350 . S
C235 H222 0.929 . S
C235 C227 1.433 . S
C235 N237 1.384 . S
N236 C232 1.427 . S
N236 C233 1.384 . S
N237 C229 1.427 . S
N237 C235 1.384 . S
H238 C244 0.930 . S
H239 C248 0.930 . S
H240 C253 0.929 . S
H241 C251 0.929 . S
H242 C246 0.929 . S
H243 C252 0.929 . S
C244 H238 0.930 . S
C244 C245 1.367 . S
C244 C252 1.378 . S
C245 C244 1.367 . S
C245 C253 1.433 . S
C246 H242 0.929 . S
C246 C248 1.378 . S
C246 C250 1.350 . S
C247 C250 1.463 1_565 S
C247 C252 1.350 . S
C247 N255 1.427 . S
C248 H239 0.930 . S
C248 C246 1.378 . S
C248 C249 1.367 . S
C249 C248 1.367 . S
C249 C251 1.433 . S
C250 C246 1.350 . S
C250 C247 1.463 1_545 S
C250 N254 1.427 . S
C251 H241 0.929 . S
C251 C249 1.433 . S
C251 N254 1.384 . S
C252 H243 0.929 . S
C252 C244 1.378 . S
C252 C247 1.350 . S
C253 H240 0.929 . S
C253 C245 1.433 . S
C253 N255 1.384 . S
N254 C250 1.427 . S
N254 C251 1.384 . S
N255 C247 1.427 . S
N255 C253 1.384 . S
H256 C262 0.930 . S
H257 C266 0.930 . S
H258 C271 0.929 . S
H259 C269 0.929 . S
H260 C264 0.929 1_455 S
H261 C270 0.929 1_655 S
C262 H256 0.930 . S
C262 C263 1.367 . S
C262 C270 1.378 . S
C263 C262 1.367 . S
C263 C271 1.433 . S
C264 H260 0.929 1_655 S
C264 C266 1.378 . S
C264 C268 1.350 . S
C265 C268 1.463 1_455 S
C265 C270 1.350 . S
C265 N273 1.427 . S
C266 H257 0.930 . S
C266 C264 1.378 . S
C266 C267 1.367 . S
C267 C266 1.367 . S
C267 C269 1.433 . S
C268 C264 1.350 . S
C268 C265 1.463 1_655 S
C268 N272 1.427 . S
C269 H259 0.929 . S
C269 C267 1.433 . S
C269 N272 1.384 . S
C270 H261 0.929 1_455 S
C270 C262 1.378 . S
C270 C265 1.350 . S
C271 H258 0.929 . S
C271 C263 1.433 . S
C271 N273 1.384 . S
N272 C268 1.427 . S
N272 C269 1.384 . S
N273 C265 1.427 . S
N273 C271 1.384 . S
H274 C280 0.930 . S
H275 C284 0.930 . S
H276 C289 0.929 . S
H277 C287 0.929 . S
H278 C282 0.929 . S
H279 C288 0.929 . S
C280 H274 0.930 . S
C280 C281 1.367 1_545 S
C280 C288 1.378 . S
C281 C280 1.367 1_565 S
C281 C289 1.433 . S
C282 H278 0.929 . S
C282 C284 1.378 . S
C282 C286 1.350 1_565 S
C283 C286 1.463 1_565 S
C283 C288 1.350 1_565 S
C283 N291 1.427 . S
C284 H275 0.930 . S
C284 C282 1.378 . S
C284 C285 1.367 1_565 S
C285 C284 1.367 1_545 S
C285 C287 1.433 . S
C286 C282 1.350 1_545 S
C286 C283 1.463 1_545 S
C286 N290 1.427 . S
C287 H277 0.929 . S
C287 C285 1.433 . S
C287 N290 1.384 . S
C288 H279 0.929 . S
C288 C280 1.378 . S
C288 C283 1.350 1_545 S
C289 H276 0.929 . S
C289 C281 1.433 . S
C289 N291 1.384 . S
N290 C286 1.427 . S
N290 C287 1.384 . S
N291 C283 1.427 . S
N291 C289 1.384 . S
H292 C298 0.930 . S
H293 C302 0.930 . S
H294 C307 0.929 . S
H295 C305 0.929 . S
H296 C300 0.929 . S
H297 C306 0.929 . S
C298 H292 0.930 . S
C298 C299 1.367 . S
C298 C306 1.378 . S
C299 C298 1.367 . S
C299 C307 1.433 . S
C300 H296 0.929 . S
C300 C302 1.378 . S
C300 C304 1.350 . S
C301 C304 1.463 1_554 S
C301 C306 1.350 . S
C301 N309 1.427 . S
C302 H293 0.930 . S
C302 C300 1.378 . S
C302 C303 1.367 . S
C303 C302 1.367 . S
C303 C305 1.433 . S
C304 C300 1.350 . S
C304 C301 1.463 1_556 S
C304 N308 1.427 . S
C305 H295 0.929 . S
C305 C303 1.433 . S
C305 N308 1.384 . S
C306 H297 0.929 . S
C306 C298 1.378 . S
C306 C301 1.350 . S
C307 H294 0.929 . S
C307 C299 1.433 . S
C307 N309 1.384 . S
N308 C304 1.427 . S
N308 C305 1.384 . S
N309 C301 1.427 . S
N309 C307 1.384 . S
H310 C316 0.930 . S
H311 C320 0.930 . S
H312 C325 0.938 . S
H313 C323 0.938 . S
H314 C318 0.919 1_565 S
H315 C324 0.919 1_545 S
C316 H310 0.930 . S
C316 C317 1.367 . S
C316 C324 1.385 . S
C317 C316 1.367 . S
C317 C325 1.418 1_455 S
C318 H314 0.919 1_545 S
C318 C320 1.385 . S
C318 C322 1.353 . S
C319 C322 1.463 1_466 S
C319 C324 1.353 . S
C319 N327 1.427 1_455 S
C320 H311 0.930 . S
C320 C318 1.385 . S
C320 C321 1.367 . S
C321 C320 1.367 . S
C321 C323 1.418 1_655 S
C322 C318 1.353 . S
C322 C319 1.463 1_644 S
C322 N326 1.427 1_655 S
C323 H313 0.938 . S
C323 C321 1.418 1_455 S
C323 N326 1.390 . S
C324 H315 0.919 1_565 S
C324 C316 1.385 . S
C324 C319 1.353 . S
C325 H312 0.938 . S
C325 C317 1.418 1_655 S
C325 N327 1.390 . S
N326 C322 1.427 1_455 S
N326 C323 1.390 . S
N327 C319 1.427 1_655 S
N327 C325 1.390 . S
H328 C334 0.930 . S
H329 C338 0.930 . S
H330 C343 0.929 . S
H331 C341 0.929 . S
H332 C336 0.929 . S
H333 C342 0.929 . S
C334 H328 0.930 . S
C334 C335 1.367 . S
C334 C342 1.378 . S
C335 C334 1.367 . S
C335 C343 1.433 . S
C336 H332 0.929 . S
C336 C338 1.378 . S
C336 C340 1.350 . S
C337 C340 1.463 . S
C337 C342 1.350 . S
C337 N345 1.427 . S
C338 H329 0.930 . S
C338 C336 1.378 . S
C338 C339 1.367 . S
C339 C338 1.367 . S
C339 C341 1.433 . S
C340 C336 1.350 . S
C340 C337 1.463 . S
C340 N344 1.427 . S
C341 H331 0.929 . S
C341 C339 1.433 . S
C341 N344 1.384 . S
C342 H333 0.929 . S
C342 C334 1.378 . S
C342 C337 1.350 . S
C343 H330 0.929 . S
C343 C335 1.433 . S
C343 N345 1.384 . S
N344 C340 1.427 . S
N344 C341 1.384 . S
N345 C337 1.427 . S
N345 C343 1.384 . S
H346 C352 0.930 . S
H347 C356 0.930 . S
H348 C361 0.929 . S
H349 C359 0.929 . S
H350 C354 0.929 . S
H351 C360 0.929 . S
C352 H346 0.930 . S
C352 C353 1.367 . S
C352 C360 1.378 . S
C353 C352 1.367 . S
C353 C361 1.433 . S
C354 H350 0.929 . S
C354 C356 1.378 . S
C354 C358 1.350 . S
C355 C358 1.463 . S
C355 C360 1.350 . S
C355 N363 1.427 . S
C356 H347 0.930 . S
C356 C354 1.378 . S
C356 C357 1.367 . S
C357 C356 1.367 . S
C357 C359 1.433 . S
C358 C354 1.350 . S
C358 C355 1.463 . S
C358 N362 1.427 . S
C359 H349 0.929 . S
C359 C357 1.433 . S
C359 N362 1.384 . S
C360 H351 0.929 . S
C360 C352 1.378 . S
C360 C355 1.350 . S
C361 H348 0.929 . S
C361 C353 1.433 . S
C361 N363 1.384 . S
N362 C358 1.427 . S
N362 C359 1.384 . S
N363 C355 1.427 . S
N363 C361 1.384 . S
H364 C370 0.930 . S
H365 C374 0.930 . S
H366 C379 0.929 . S
H367 C377 0.929 . S
H368 C372 0.929 . S
H369 C378 0.929 . S
C370 H364 0.930 . S
C370 C371 1.367 . S
C370 C378 1.378 . S
C371 C370 1.367 . S
C371 C379 1.433 . S
C372 H368 0.929 . S
C372 C374 1.378 . S
C372 C376 1.350 . S
C373 C376 1.463 . S
C373 C378 1.350 . S
C373 N381 1.427 . S
C374 H365 0.930 . S
C374 C372 1.378 . S
C374 C375 1.367 . S
C375 C374 1.367 . S
C375 C377 1.433 . S
C376 C372 1.350 . S
C376 C373 1.463 . S
C376 N380 1.427 . S
C377 H367 0.929 . S
C377 C375 1.433 . S
C377 N380 1.384 . S
C378 H369 0.929 . S
C378 C370 1.378 . S
C378 C373 1.350 . S
C379 H366 0.929 . S
C379 C371 1.433 . S
C379 N381 1.384 . S
N380 C376 1.427 . S
N380 C377 1.384 . S
N381 C373 1.427 . S
N381 C379 1.384 . S
H382 C388 0.930 . S
H383 C392 0.930 . S
H384 C397 0.929 . S
H385 C395 0.929 . S
H386 C390 0.929 . S
H387 C396 0.929 . S
C388 H382 0.930 . S
C388 C389 1.367 . S
C388 C396 1.378 . S
C389 C388 1.367 . S
C389 C397 1.433 . S
C390 H386 0.929 . S
C390 C392 1.378 . S
C390 C394 1.350 . S
C391 C394 1.463 . S
C391 C396 1.350 . S
C391 N399 1.427 . S
C392 H383 0.930 . S
C392 C390 1.378 . S
C392 C393 1.367 . S
C393 C392 1.367 . S
C393 C395 1.433 . S
C394 C390 1.350 . S
C394 C391 1.463 . S
C394 N398 1.427 . S
C395 H385 0.929 . S
C395 C393 1.433 . S
C395 N398 1.384 . S
C396 H387 0.929 . S
C396 C388 1.378 . S
C396 C391 1.350 . S
C397 H384 0.929 . S
C397 C389 1.433 . S
C397 N399 1.384 . S
N398 C394 1.427 . S
N398 C395 1.384 . S
N399 C391 1.427 . S
N399 C397 1.384 . S
C119 C5 1.415 . S
C123 C37 1.419 . S
C137 C51 1.420 1_455 S
C141 C19 1.415 . S
C155 C33 1.415 . S
C159 C9 1.420 1_655 S
C173 C47 1.419 . S
C177 C23 1.417 . S
C191 C93 1.419 . S
C195 C61 1.415 . S
C209 C75 1.419 . S
C213 C107 1.418 1_655 S
C227 C89 1.419 . S
C231 C65 1.418 1_455 S
C245 C103 1.418 . S
C249 C79 1.418 . S
C263 C11 1.512 . S
C267 C67 1.512 . S
C281 C25 1.508 . S
C285 C81 1.508 . S
C299 C39 1.508 . S
C303 C95 1.508 . S
C317 C109 1.509 . S
C321 C53 1.509 . S
C335 C0 1.504 . S
C339 C14 1.510 . S
C353 C42 1.504 . S
C357 C28 1.510 . S
C371 C70 1.507 . S
C375 C56 1.507 . S
C389 C84 1.512 . S
C393 C98 1.503 . S
