# Generated by pormake.
# Topology ukk, (4)-cn, num edge types: 1
# Building blocks:
#     Node 0, Type 0, BuildingBlock: GALJAG_clean_sbu_0, # of connection points: 4
#     Node 1, Type 0, BuildingBlock: GALJAG_clean_sbu_0, # of connection points: 4
#     Node 2, Type 0, BuildingBlock: GALJAG_clean_sbu_0, # of connection points: 4
#     Node 3, Type 0, BuildingBlock: GALJAG_clean_sbu_0, # of connection points: 4
#     Node 4, Type 0, BuildingBlock: GALJAG_clean_sbu_0, # of connection points: 4
#     Node 5, Type 0, BuildingBlock: GALJAG_clean_sbu_0, # of connection points: 4
#     Node 6, Type 0, BuildingBlock: GALJAG_clean_sbu_0, # of connection points: 4
#     Node 7, Type 0, BuildingBlock: GALJAG_clean_sbu_0, # of connection points: 4
#     Node 8, Type 0, BuildingBlock: GALJAG_clean_sbu_0, # of connection points: 4
#     Node 9, Type 0, BuildingBlock: GALJAG_clean_sbu_0, # of connection points: 4
#     Node 10, Type 0, BuildingBlock: GALJAG_clean_sbu_0, # of connection points: 4
#     Node 11, Type 0, BuildingBlock: GALJAG_clean_sbu_0, # of connection points: 4
#     Node 12, Type 0, BuildingBlock: GALJAG_clean_sbu_0, # of connection points: 4
#     Node 13, Type 0, BuildingBlock: GALJAG_clean_sbu_0, # of connection points: 4
#     Node 14, Type 0, BuildingBlock: GALJAG_clean_sbu_0, # of connection points: 4
#     Node 15, Type 0, BuildingBlock: GALJAG_clean_sbu_0, # of connection points: 4
#     Edge 16, Type (0, 0), BuildingBlock: OJICUG_clean_linker_0, # of connection points: 2
#     Edge 17, Type (0, 0), BuildingBlock: OJICUG_clean_linker_0, # of connection points: 2
#     Edge 18, Type (0, 0), BuildingBlock: OJICUG_clean_linker_0, # of connection points: 2
#     Edge 19, Type (0, 0), BuildingBlock: OJICUG_clean_linker_0, # of connection points: 2
#     Edge 20, Type (0, 0), BuildingBlock: OJICUG_clean_linker_0, # of connection points: 2
#     Edge 21, Type (0, 0), BuildingBlock: OJICUG_clean_linker_0, # of connection points: 2
#     Edge 22, Type (0, 0), BuildingBlock: OJICUG_clean_linker_0, # of connection points: 2
#     Edge 23, Type (0, 0), BuildingBlock: OJICUG_clean_linker_0, # of connection points: 2
#     Edge 24, Type (0, 0), BuildingBlock: OJICUG_clean_linker_0, # of connection points: 2
#     Edge 25, Type (0, 0), BuildingBlock: OJICUG_clean_linker_0, # of connection points: 2
#     Edge 26, Type (0, 0), BuildingBlock: OJICUG_clean_linker_0, # of connection points: 2
#     Edge 27, Type (0, 0), BuildingBlock: OJICUG_clean_linker_0, # of connection points: 2
#     Edge 28, Type (0, 0), BuildingBlock: OJICUG_clean_linker_0, # of connection points: 2
#     Edge 29, Type (0, 0), BuildingBlock: OJICUG_clean_linker_0, # of connection points: 2
#     Edge 30, Type (0, 0), BuildingBlock: OJICUG_clean_linker_0, # of connection points: 2
#     Edge 31, Type (0, 0), BuildingBlock: OJICUG_clean_linker_0, # of connection points: 2
#     Edge 32, Type (0, 0), BuildingBlock: OJICUG_clean_linker_0, # of connection points: 2
#     Edge 33, Type (0, 0), BuildingBlock: OJICUG_clean_linker_0, # of connection points: 2
#     Edge 34, Type (0, 0), BuildingBlock: OJICUG_clean_linker_0, # of connection points: 2
#     Edge 35, Type (0, 0), BuildingBlock: OJICUG_clean_linker_0, # of connection points: 2
#     Edge 36, Type (0, 0), BuildingBlock: OJICUG_clean_linker_0, # of connection points: 2
#     Edge 37, Type (0, 0), BuildingBlock: OJICUG_clean_linker_0, # of connection points: 2
#     Edge 38, Type (0, 0), BuildingBlock: OJICUG_clean_linker_0, # of connection points: 2
#     Edge 39, Type (0, 0), BuildingBlock: OJICUG_clean_linker_0, # of connection points: 2
#     Edge 40, Type (0, 0), BuildingBlock: OJICUG_clean_linker_0, # of connection points: 2
#     Edge 41, Type (0, 0), BuildingBlock: OJICUG_clean_linker_0, # of connection points: 2
#     Edge 42, Type (0, 0), BuildingBlock: OJICUG_clean_linker_0, # of connection points: 2
#     Edge 43, Type (0, 0), BuildingBlock: OJICUG_clean_linker_0, # of connection points: 2
#     Edge 44, Type (0, 0), BuildingBlock: OJICUG_clean_linker_0, # of connection points: 2
#     Edge 45, Type (0, 0), BuildingBlock: OJICUG_clean_linker_0, # of connection points: 2
#     Edge 46, Type (0, 0), BuildingBlock: OJICUG_clean_linker_0, # of connection points: 2
#     Edge 47, Type (0, 0), BuildingBlock: OJICUG_clean_linker_0, # of connection points: 2
# Relax obj value: 0.105
# Max RMSD: 0.246
# Mean RMSD: 0.246
data_MOF--net-ukk--node1-GALJAG_clean_sbu_0--edge1-OJICUG_clean_linker_0
_symmetry_space_group_name_H-M    P1
_symmetry_Int_Tables_number       1
_symmetry_cell_setting            triclinic
loop_
_symmetry_equiv_pos_as_xyz
'x, y, z'
_cell_length_a     39.454036
_cell_length_b     39.524655
_cell_length_c     13.576738
_cell_angle_alpha  89.940861
_cell_angle_beta   90.014535
_cell_angle_gamma 90.006053
loop_
_atom_site_label
_atom_site_type_symbol
_atom_site_fract_x
_atom_site_fract_y
_atom_site_fract_z
_atom_type_partial_charge
In0 In 0.34224 0.10282 0.17941 0.0
O1 O 0.32528 0.08291 0.03125 0.0
O2 O 0.28766 0.09556 0.13967 0.0
C3 C 0.40915 0.10658 0.20271 0.0
C4 C 0.33119 0.16907 0.16108 0.0
C5 C 0.33394 0.04868 0.29285 0.0
O6 O 0.39649 0.09922 0.11948 0.0
O7 O 0.38811 0.1119 0.27102 0.0
O8 O 0.32677 0.07795 0.32541 0.0
O9 O 0.34487 0.04734 0.20544 0.0
C10 C 0.29406 0.08488 0.05375 0.0
O11 O 0.32466 0.15363 0.24106 0.0
O12 O 0.34295 0.15097 0.0926 0.0
In13 In 0.11271 0.6327 0.86049 0.0
O14 O 0.09652 0.65188 0.01014 0.0
O15 O 0.09385 0.68537 0.88556 0.0
C16 C 0.13664 0.56982 0.85166 0.0
C17 C 0.17433 0.65947 0.85277 0.0
C18 C 0.05439 0.61999 0.76906 0.0
O19 O 0.1225 0.58071 0.92958 0.0
O20 O 0.13815 0.59063 0.78094 0.0
O21 O 0.07734 0.63741 0.72707 0.0
O22 O 0.06149 0.60955 0.85469 0.0
C23 C 0.08998 0.68133 0.97739 0.0
O24 O 0.15551 0.65845 0.77659 0.0
O25 O 0.16149 0.64754 0.9308 0.0
In26 In 0.63354 0.88556 0.10673 0.0
O27 O 0.65113 0.83721 0.18166 0.0
O28 O 0.63149 0.835 0.03411 0.0
C29 C 0.643 0.94422 0.19596 0.0
C30 C 0.68419 0.89751 0.98464 0.0
C31 C 0.56722 0.88462 0.13877 0.0
O32 O 0.6489 0.91659 0.24097 0.0
O33 O 0.63237 0.94163 0.10827 0.0
O34 O 0.57861 0.88799 0.05173 0.0
O35 O 0.58915 0.88133 0.20592 0.0
C36 C 0.64417 0.81933 0.1065 0.0
O37 O 0.65354 0.89898 0.95546 0.0
O38 O 0.68858 0.89012 0.07456 0.0
In39 In 0.88071 0.3545 0.87916 0.0
O40 O 0.8389 0.32722 0.79427 0.0
O41 O 0.8307 0.34109 0.94527 0.0
C42 C 0.94101 0.36337 0.79398 0.0
C43 C 0.90126 0.30928 0.01014 0.0
C44 C 0.85781 0.4173 0.8566 0.0
O45 O 0.91796 0.34634 0.75123 0.0
O46 O 0.93293 0.37569 0.8766 0.0
O47 O 0.87052 0.40777 0.93803 0.0
O48 O 0.8574 0.3953 0.78906 0.0
C49 C 0.8189 0.32778 0.86786 0.0
O50 O 0.89401 0.33942 0.03515 0.0
O51 O 0.89891 0.30277 0.91909 0.0
In52 In 0.3508 0.37904 0.0981 0.0
O53 O 0.33138 0.32939 0.03309 0.0
O54 O 0.35284 0.32974 0.17837 0.0
C55 C 0.34074 0.43589 -0.00208 0.0
C56 C 0.30239 0.39317 0.2269 0.0
C57 C 0.41741 0.3773 0.06579 0.0
O58 O 0.33523 0.40736 0.95777 0.0
O59 O 0.35103 0.43511 0.08615 0.0
O60 O 0.40593 0.38308 0.15153 0.0
O61 O 0.39543 0.37197 -6e-05 0.0
C62 C 0.33882 0.3129 0.11064 0.0
O63 O 0.33358 0.39485 0.25032 0.0
O64 O 0.2962 0.38493 0.13855 0.0
In65 In 0.37968 0.63358 0.85274 0.0
O66 O 0.33576 0.6597 0.9289 0.0
O67 O 0.33158 0.6467 0.77537 0.0
C68 C 0.43696 0.61897 0.9461 0.0
C69 C 0.40429 0.6841 0.74599 0.0
C70 C 0.35588 0.57084 0.86657 0.0
O71 O 0.41408 0.63649 0.9881 0.0
O72 O 0.43045 0.60965 0.85892 0.0
O73 O 0.37013 0.58101 0.78774 0.0
O74 O 0.35393 0.59241 0.93524 0.0
C75 C 0.31777 0.65947 0.85093 0.0
O76 O 0.39817 0.65529 0.70794 0.0
O77 O 0.39894 0.68649 0.83773 0.0
In78 In 0.64126 0.60774 0.09062 0.0
O79 O 0.65643 0.65705 0.01507 0.0
O80 O 0.63805 0.65831 0.16349 0.0
C81 C 0.65394 0.55264 0.98541 0.0
C82 C 0.69077 0.59551 0.2178 0.0
C83 C 0.57402 0.60494 0.07252 0.0
O84 O 0.65633 0.58177 0.94644 0.0
O85 O 0.64536 0.55195 0.07509 0.0
O86 O 0.58781 0.60228 0.15657 0.0
O87 O 0.59403 0.6091 0.00111 0.0
C88 C 0.64929 0.6746 0.09054 0.0
O89 O 0.65981 0.59233 0.24197 0.0
O90 O 0.69624 0.60467 0.12987 0.0
In91 In 0.61393 0.3565 0.84122 0.0
O92 O 0.65623 0.32977 0.92474 0.0
O93 O 0.66296 0.34134 0.77139 0.0
C94 C 0.55539 0.36852 0.93279 0.0
C95 C 0.5898 0.30869 0.72426 0.0
C96 C 0.63801 0.41918 0.8519 0.0
O97 O 0.57872 0.35171 0.97509 0.0
O98 O 0.56238 0.37917 0.8473 0.0
O99 O 0.62363 0.40873 0.77384 0.0
O100 O 0.63957 0.3981 0.92189 0.0
C101 C 0.67542 0.32898 0.84938 0.0
O102 O 0.59765 0.33774 0.69096 0.0
O103 O 0.59359 0.3046 0.81609 0.0
In104 In 0.84907 0.60853 0.62307 0.0
O105 O 0.83154 0.59462 0.46957 0.0
O106 O 0.79444 0.6025 0.58324 0.0
C107 C 0.91626 0.609 0.64468 0.0
C108 C 0.83672 0.67468 0.62672 0.0
C109 C 0.83927 0.55132 0.72129 0.0
O110 O 0.90312 0.60566 0.55995 0.0
O111 O 0.89564 0.61252 0.71492 0.0
O112 O 0.83492 0.57967 0.76342 0.0
O113 O 0.8483 0.55245 0.63201 0.0
C114 C 0.80044 0.59541 0.49403 0.0
O115 O 0.83055 0.65618 0.70111 0.0
O116 O 0.84948 0.65974 0.5535 0.0
In117 In 0.60978 0.14083 0.3749 0.0
O118 O 0.65481 0.16718 0.30617 0.0
O119 O 0.65777 0.14976 0.45692 0.0
C120 C 0.54889 0.12703 0.30511 0.0
C121 C 0.58772 0.19208 0.47999 0.0
C122 C 0.63153 0.07903 0.33853 0.0
O123 O 0.57029 0.14327 0.2528 0.0
O124 O 0.55881 0.11829 0.39034 0.0
O125 O 0.62124 0.08719 0.42429 0.0
O126 O 0.63085 0.10228 0.27396 0.0
C127 C 0.67228 0.16427 0.38489 0.0
O128 O 0.59291 0.16311 0.51855 0.0
O129 O 0.59301 0.19448 0.38792 0.0
In130 In 0.14727 0.37564 0.64136 0.0
O131 O 0.16884 0.32876 0.7171 0.0
O132 O 0.14848 0.32451 0.5712 0.0
C133 C 0.15523 0.43386 0.73583 0.0
C134 C 0.19457 0.39055 0.50939 0.0
C135 C 0.08044 0.37175 0.67109 0.0
O136 O 0.16169 0.40602 0.77882 0.0
O137 O 0.14497 0.43175 0.64783 0.0
O138 O 0.09221 0.37651 0.58515 0.0
O139 O 0.10228 0.36846 0.7384 0.0
C140 C 0.16275 0.31006 0.64309 0.0
O141 O 0.16331 0.38989 0.4864 0.0
O142 O 0.20136 0.38397 0.59853 0.0
In143 In 0.37869 0.85219 0.39715 0.0
O144 O 0.33754 0.82754 0.30446 0.0
O145 O 0.33014 0.83255 0.46025 0.0
C146 C 0.43363 0.8683 0.29238 0.0
C147 C 0.40441 0.80295 0.50873 0.0
C148 C 0.3529 0.91462 0.40987 0.0
O149 O 0.41033 0.85018 0.25542 0.0
O150 O 0.42873 0.87764 0.38015 0.0
O151 O 0.37069 0.90245 0.47937 0.0
O152 O 0.34863 0.89532 0.33689 0.0
C153 C 0.31826 0.82306 0.37832 0.0
O154 O 0.39586 0.83129 0.54507 0.0
O155 O 0.40103 0.8004 0.41646 0.0
In156 In 0.85045 0.88413 0.61095 0.0
O157 O 0.82945 0.89621 0.76037 0.0
O158 O 0.79536 0.89289 0.63596 0.0
C159 C 0.91449 0.87274 0.56568 0.0
C160 C 0.83552 0.81915 0.61463 0.0
C161 C 0.85188 0.94672 0.54425 0.0
O162 O 0.90585 0.87875 0.65439 0.0
O163 O 0.89073 0.87257 0.50274 0.0
O164 O 0.83979 0.92297 0.49134 0.0
O165 O 0.86311 0.93826 0.62834 0.0
C166 C 0.79918 0.89782 0.72774 0.0
O167 O 0.82907 0.83717 0.53888 0.0
O168 O 0.8493 0.83428 0.68655 0.0
In169 In 0.88047 0.15132 0.40635 0.0
O170 O 0.89568 0.16991 0.25623 0.0
O171 O 0.89288 0.20552 0.37628 0.0
C172 C 0.86634 0.08661 0.43698 0.0
C173 C 0.81613 0.17037 0.40389 0.0
C174 C 0.94162 0.14692 0.48505 0.0
O175 O 0.87426 0.09716 0.35146 0.0
O176 O 0.86543 0.10885 0.50398 0.0
O177 O 0.91716 0.1592 0.53482 0.0
O178 O 0.93458 0.13728 0.39854 0.0
C179 C 0.89878 0.20033 0.28565 0.0
O180 O 0.83432 0.17465 0.48049 0.0
O181 O 0.83077 0.15686 0.33091 0.0
In182 In 0.14308 0.10217 0.63352 0.0
O183 O 0.157 0.08715 0.78913 0.0
O184 O 0.19587 0.08858 0.67806 0.0
C185 C 0.07856 0.11874 0.60155 0.0
C186 C 0.16441 0.16594 0.6346 0.0
C187 C 0.14316 0.04295 0.54083 0.0
O188 O 0.08806 0.10813 0.6855 0.0
O189 O 0.10142 0.12007 0.53649 0.0
O190 O 0.15572 0.06904 0.49994 0.0
O191 O 0.13051 0.04742 0.62541 0.0
C192 C 0.18813 0.0834 0.76737 0.0
O193 O 0.16838 0.14731 0.55908 0.0
O194 O 0.15034 0.15198 0.70768 0.0
In195 In 0.11204 0.84419 0.35383 0.0
O196 O 0.15541 0.81736 0.43037 0.0
O197 O 0.16243 0.83666 0.28325 0.0
C198 C 0.05106 0.8515 0.43117 0.0
C199 C 0.09225 0.79541 0.23421 0.0
C200 C 0.1298 0.90741 0.39491 0.0
O201 O 0.07451 0.83672 0.47924 0.0
O202 O 0.05895 0.86215 0.34612 0.0
O203 O 0.12096 0.89923 0.30784 0.0
O204 O 0.12984 0.88361 0.45745 0.0
C205 C 0.17504 0.8214 0.35679 0.0
O206 O 0.09768 0.82529 0.20242 0.0
O207 O 0.09645 0.79092 0.32591 0.0
C208 C 0.31535 0.95821 0.33798 0.0
C209 C 0.34094 0.94991 0.40574 0.0
H210 H 0.29266 -0.00291 0.25048 0.0
C211 C 0.35856 0.97603 0.45378 0.0
H212 H 0.30114 0.93857 0.30062 0.0
C213 C 0.35331 0.00979 0.42551 0.0
C214 C 0.33034 0.01742 0.34968 0.0
H215 H 0.3785 0.97023 0.50599 0.0
H216 H 0.36949 0.02936 0.4557 0.0
C217 C 0.31026 0.99167 0.30977 0.0
C218 C 0.01032 0.62765 0.63594 0.0
C219 C 0.02054 0.61369 0.72662 0.0
H220 H 0.96858 0.63659 0.53679 0.0
C221 C -0.00296 0.59507 0.78231 0.0
H222 H 0.028 0.642 0.59142 0.0
C223 C 0.96357 0.59239 0.75198 0.0
C224 C 0.95281 0.60774 0.66443 0.0
H225 H 0.00411 0.58361 0.85187 0.0
H226 H 0.94575 0.57907 0.79883 0.0
C227 C 0.97653 0.62446 0.60454 0.0
C228 C 0.63833 0.9835 0.33991 0.0
C229 C 0.64681 0.9777 0.24095 0.0
H230 H 0.62653 0.02088 0.4495 0.0
C231 C 0.6548 0.00512 0.17979 0.0
H232 H 0.63198 0.96258 0.3881 0.0
C233 C 0.65203 0.03802 0.21453 0.0
C234 C 0.64074 0.04421 0.31086 0.0
H235 H 0.66178 0.00116 0.10345 0.0
H236 H 0.65705 0.05863 0.16393 0.0
C237 C 0.63512 0.01674 0.37472 0.0
C238 C 0.03431 0.38261 0.78926 0.0
C239 C 0.04406 0.37167 0.69532 0.0
H240 H 0.99437 0.38904 0.8926 0.0
C241 C 0.01928 0.35943 0.63004 0.0
H242 H 0.05285 0.39246 0.84072 0.0
C243 C 0.98532 0.35688 0.66065 0.0
C244 C 0.97589 0.36724 0.75593 0.0
H245 H 0.02632 0.35079 0.55719 0.0
H246 H 0.96664 0.34651 0.6106 0.0
C247 C 0.00069 0.3807 0.81886 0.0
C248 C 0.35271 0.47516 0.85752 0.0
C249 C 0.33667 0.46851 0.94782 0.0
H250 H 0.37164 0.51362 0.75975 0.0
C251 C 0.32221 0.49519 0.0009 0.0
H252 H 0.36435 0.45482 0.81615 0.0
C253 C 0.32611 0.52837 0.96891 0.0
C254 C 0.34506 0.5356 0.88391 0.0
H255 H 0.30965 0.49054 0.07063 0.0
H256 H 0.31612 0.54852 0.01455 0.0
C257 C 0.35699 0.5087 0.82567 0.0
C258 C 0.48068 0.62573 0.08031 0.0
C259 C 0.47014 0.6112 0.99081 0.0
H260 H 0.52264 0.63457 0.17859 0.0
C261 C 0.49287 0.59075 0.93808 0.0
H262 H 0.46357 0.64146 0.12258 0.0
C263 C 0.52615 0.58709 0.96941 0.0
C264 C 0.53739 0.60332 0.05496 0.0
H265 H 0.48545 0.57874 0.86968 0.0
H266 H 0.54358 0.57265 0.92424 0.0
C267 C 0.51426 0.62165 0.11261 0.0
C268 C 0.63612 0.48119 0.8117 0.0
C269 C 0.64955 0.45421 0.86681 0.0
H270 H 0.62764 0.53493 0.8063 0.0
C271 C 0.67051 0.46116 0.94785 0.0
H272 H 0.61994 0.4764 0.74879 0.0
C273 C 0.67474 0.49419 0.98037 0.0
C274 C 0.65848 0.52088 0.93174 0.0
H275 H 0.68167 0.44086 0.99066 0.0
H276 H 0.6887 0.49863 0.04793 0.0
C277 C 0.64065 0.51457 0.84415 0.0
C278 C 0.47888 0.36574 0.10344 0.0
C279 C 0.45361 0.37812 0.04 0.0
H280 H 0.53154 0.35236 0.11867 0.0
C281 C 0.46259 0.38945 0.94578 0.0
H282 H 0.47239 0.35679 0.17646 0.0
C283 C 0.49594 0.38747 0.9137 0.0
C284 C 0.52116 0.37352 0.97437 0.0
H285 H 0.4436 0.3994 0.89583 0.0
H286 H 0.50164 0.39591 0.83959 0.0
C287 C 0.51254 0.36312 0.07034 0.0
C288 C 0.82831 0.45836 0.74931 0.0
C289 C 0.84636 0.45207 0.83651 0.0
H290 H 0.81151 0.49534 0.64558 0.0
C291 C 0.85637 0.47945 0.89583 0.0
H292 H 0.81971 0.43776 0.703 0.0
C293 C 0.85115 0.51273 0.86311 0.0
C294 C 0.83609 0.51857 0.77094 0.0
H295 H 0.8702 0.47519 0.96364 0.0
H296 H 0.86132 0.53357 0.90564 0.0
C297 C 0.82342 0.49128 0.7166 0.0
C298 C 0.50284 0.12563 0.17619 0.0
C299 C 0.51393 0.11969 0.27316 0.0
H300 H 0.46042 0.12535 0.07631 0.0
C301 C 0.49085 0.10719 0.34293 0.0
H302 H 0.52022 0.1351 0.12093 0.0
C303 C 0.45714 0.10206 0.31797 0.0
C304 C 0.44569 0.10878 0.22226 0.0
H305 H 0.49855 0.10218 0.41815 0.0
H306 H 0.43982 0.09325 0.37441 0.0
C307 C 0.46884 0.11988 0.15057 0.0
C308 C 0.16755 0.52687 0.75455 0.0
C309 C 0.14816 0.53467 0.8382 0.0
H310 H 0.18528 0.4882 0.65772 0.0
C311 C 0.13673 0.50827 0.89928 0.0
H312 H 0.1772 0.54667 0.70694 0.0
C313 C 0.14193 0.47447 0.87141 0.0
C314 C 0.15841 0.46712 0.78233 0.0
H315 H 0.1218 0.51367 0.96432 0.0
H316 H 0.13067 0.45439 0.9148 0.0
C317 C 0.17239 0.49343 0.72655 0.0
C318 C 0.48938 0.89693 0.29041 0.0
C319 C 0.46565 0.87646 0.24162 0.0
H320 H 0.54008 0.91558 0.29455 0.0
C321 C 0.4742 0.86227 0.1499 0.0
H322 H 0.48349 0.90863 0.36047 0.0
C323 C 0.50688 0.86682 0.11107 0.0
C324 C 0.53113 0.88522 0.16447 0.0
H325 H 0.45626 0.84652 0.11063 0.0
H326 H 0.51378 0.85428 0.04307 0.0
C327 C 0.52179 0.90103 0.25262 0.0
C328 C 0.85454 0.00739 0.58582 0.0
C329 C 0.85283 0.98231 0.51308 0.0
H330 H 0.85968 0.05974 0.61843 0.0
C331 C 0.85383 0.99171 0.4133 0.0
H332 H 0.85353 0.00087 0.66333 0.0
C333 C 0.85785 0.02583 0.38714 0.0
C334 C 0.86029 0.05075 0.46065 0.0
H335 H 0.85262 0.97269 0.35602 0.0
H336 H 0.85945 0.03263 0.30998 0.0
C337 C 0.85799 0.04118 0.55997 0.0
C338 C 0.00292 0.14563 0.45296 0.0
C339 C 0.97651 0.1438 0.52165 0.0
H340 H 0.05552 0.1395 0.42478 0.0
C341 C 0.98386 0.13573 0.62017 0.0
H342 H -0.00207 0.15207 0.37669 0.0
C343 C 0.01726 0.12794 0.64804 0.0
C344 C 0.04345 0.1286 0.57769 0.0
H345 H 0.96372 0.13399 0.67414 0.0
H346 H 0.02245 0.12074 0.72354 0.0
C347 C 0.03596 0.13833 0.48065 0.0
C348 C 0.13579 0.97001 0.36075 0.0
C349 C 0.13724 0.9424 0.42618 0.0
H350 H 0.13716 0.0243 0.34579 0.0
C351 C 0.14384 0.94843 0.52628 0.0
H352 H 0.13085 0.96603 0.28315 0.0
C353 C 0.1469 0.98122 0.56154 0.0
C354 C 0.14404 0.00889 0.49759 0.0
H355 H 0.14546 0.92781 0.57871 0.0
H356 H 0.15083 0.98496 0.63981 0.0
C357 C 0.13948 0.0032 0.3963 0.0
C358 C 0.95759 0.86894 0.43412 0.0
C359 C 0.94975 0.867 0.53472 0.0
H360 H -0.00439 0.8656 0.32341 0.0
C361 C 0.97555 0.85933 0.6026 0.0
H362 H 0.93829 0.87486 0.37999 0.0
C363 C 0.00873 0.85354 0.5696 0.0
C364 C 0.0164 0.85596 0.46876 0.0
H365 H 0.97004 0.85759 0.68059 0.0
H366 H 0.02838 0.84772 0.62272 0.0
C367 C 0.99051 0.86369 0.40165 0.0
C368 C 0.3294 0.25517 0.04081 0.0
C369 C 0.33246 0.27643 0.12281 0.0
H370 H 0.32669 0.20409 0.98916 0.0
C371 C 0.33153 0.26233 0.21797 0.0
H372 H 0.32997 0.26545 0.96683 0.0
C373 C 0.32904 0.22737 0.23094 0.0
C374 C 0.32811 0.20595 0.14887 0.0
H375 H 0.3335 0.27829 0.28255 0.0
H376 H 0.32954 0.21707 0.3049 0.0
C377 C 0.32758 0.22014 0.05374 0.0
C378 C 0.22847 0.6723 0.93867 0.0
C379 C 0.21041 0.66882 0.8499 0.0
H380 H 0.27708 0.67263 0.00862 0.0
C381 C 0.22816 0.6688 0.76051 0.0
H382 H 0.21531 0.67278 0.0087 0.0
C383 C 0.26355 0.66857 0.76061 0.0
C384 C 0.28159 0.66859 0.85005 0.0
H385 H 0.21485 0.66627 0.69109 0.0
H386 H 0.27669 0.66614 0.69093 0.0
C387 C 0.26383 0.6723 0.93875 0.0
C388 C 0.64997 0.76591 0.01121 0.0
C389 C 0.64933 0.78255 0.10272 0.0
H390 H 0.65117 0.71837 0.93547 0.0
C391 C 0.65165 0.76357 0.18961 0.0
H392 H 0.64849 0.7801 0.94302 0.0
C393 C 0.65271 0.72832 0.18515 0.0
C394 C 0.65211 0.71163 0.09373 0.0
H395 H 0.65126 0.77584 0.26092 0.0
H396 H 0.65329 0.7141 0.25339 0.0
C397 C 0.65167 0.73069 0.00671 0.0
C398 C 0.73079 0.31807 0.7667 0.0
C399 C 0.71153 0.31945 0.85388 0.0
H400 H 0.78042 0.31899 0.70262 0.0
C401 C 0.72808 0.31691 0.94493 0.0
H402 H 0.71861 0.31962 0.69531 0.0
C403 C 0.76344 0.31665 0.94893 0.0
C404 C 0.78274 0.31868 0.86197 0.0
H405 H 0.71389 0.31771 0.01318 0.0
H406 H 0.77564 0.31711 0.02042 0.0
C407 C 0.76617 0.31756 0.7707 0.0
C408 C 0.82939 0.7284 0.53392 0.0
C409 C 0.83113 0.71141 0.62484 0.0
H410 H 0.82863 0.77618 0.45942 0.0
C411 C 0.8303 0.73009 0.71241 0.0
H412 H 0.82967 0.71444 0.46528 0.0
C413 C 0.83013 0.76538 0.70888 0.0
C414 C 0.83017 0.78239 0.6178 0.0
H415 H 0.83155 0.71753 0.78328 0.0
H416 H 0.83112 0.77937 0.77741 0.0
C417 C 0.8286 0.76366 0.53043 0.0
C418 C 0.76018 0.17626 0.48764 0.0
C419 C 0.77942 0.17682 0.40095 0.0
H420 H 0.71059 0.17184 0.5502 0.0
C421 C 0.7628 0.17866 0.30945 0.0
H422 H 0.7724 0.17485 0.55899 0.0
C423 C 0.72751 0.17726 0.30428 0.0
C424 C 0.70838 0.1735 0.39053 0.0
H425 H 0.77715 0.17942 0.24144 0.0
H426 H 0.71545 0.17679 0.23261 0.0
C427 C 0.72486 0.17437 0.48243 0.0
C428 C 0.17002 0.2563 0.55024 0.0
C429 C 0.16968 0.27351 0.64089 0.0
H430 H 0.16956 0.20831 0.47699 0.0
C431 C 0.17281 0.25505 0.72855 0.0
H432 H 0.16802 0.27006 0.48143 0.0
C433 C 0.17337 0.21974 0.72588 0.0
C434 C 0.1714 0.20248 0.63549 0.0
H435 H 0.17275 0.26774 0.79923 0.0
H436 H 0.17376 0.20592 0.79484 0.0
C437 C 0.17116 0.22101 0.54751 0.0
C438 C 0.22771 0.8073 0.44964 0.0
C439 C 0.21136 0.813 0.35947 0.0
H440 H 0.27508 0.8056 0.526 0.0
C441 C 0.23078 0.81533 0.27289 0.0
H442 H 0.21332 0.80517 0.51732 0.0
C443 C 0.2661 0.81534 0.27763 0.0
C444 C 0.28242 0.81332 0.36915 0.0
H445 H 0.21872 0.81927 0.20209 0.0
H446 H 0.28043 0.8196 0.21071 0.0
C447 C 0.26304 0.80759 0.4545 0.0
C448 C 0.24836 0.07298 0.81288 0.0
C449 C 0.21447 0.07743 0.84205 0.0
H450 H 0.30033 0.07149 0.85771 0.0
C451 C 0.20673 0.07993 0.94257 0.0
H452 H 0.25499 0.07071 0.73574 0.0
C453 C 0.23271 0.08051 0.01226 0.0
C454 C 0.26676 0.07842 0.98242 0.0
H455 H 0.18081 0.08325 0.96703 0.0
H456 H 0.22617 0.08408 0.08904 0.0
C457 C 0.27432 0.07338 0.8826 0.0
C458 C 0.08364 0.77128 0.06616 0.0
C459 C 0.08509 0.76669 0.16848 0.0
H460 H 0.08339 0.74751 0.92487 0.0
C461 C 0.08306 0.73378 0.20747 0.0
H462 H 0.08489 0.79638 0.03422 0.0
C463 C 0.08235 0.70579 0.14504 0.0
C464 C 0.08347 0.7103 0.04268 0.0
H465 H 0.08381 0.72949 0.28626 0.0
H466 H 0.0827 0.68067 0.17703 0.0
C467 C 0.08273 0.74328 0.00369 0.0
C468 C 0.74624 0.90272 0.95761 0.0
C469 C 0.71327 0.90203 0.91843 0.0
H470 H 0.79942 0.9023 0.92763 0.0
C471 C 0.70876 0.90329 0.81609 0.0
H472 H 0.75043 0.90207 0.03646 0.0
C473 C 0.73688 0.90336 0.75376 0.0
C474 C 0.76984 0.90231 0.79305 0.0
H475 H 0.6836 0.9029 0.78414 0.0
H476 H 0.73275 0.9031 0.67488 0.0
C477 C 0.7743 0.90293 0.89543 0.0
C478 C 0.91076 0.22205 0.11701 0.0
C479 C 0.90557 0.22842 0.21744 0.0
H480 H 0.9141 0.24301 0.97234 0.0
C481 C 0.9038 0.26204 0.25074 0.0
H482 H 0.91254 0.19639 0.08954 0.0
C483 C 0.90461 0.28878 0.18363 0.0
C484 C 0.90731 0.28224 0.08243 0.0
H485 H 0.90007 0.26766 0.32805 0.0
H486 H 0.90136 0.31436 0.21057 0.0
C487 C 0.9117 0.24876 0.05002 0.0
C488 C 0.2556 0.3985 0.46832 0.0
C489 C 0.22173 0.39607 0.43684 0.0
H490 H 0.30786 0.39991 0.42612 0.0
C491 C 0.21452 0.39629 0.33573 0.0
H492 H 0.26186 0.39864 0.54601 0.0
C493 C 0.24087 0.39691 0.26722 0.0
C494 C 0.27482 0.39752 0.29879 0.0
H495 H 0.18864 0.39457 0.30952 0.0
H496 H 0.23466 0.39574 0.18957 0.0
C497 C 0.28194 0.39933 0.39982 0.0
C498 C 0.4124 0.77565 0.67297 0.0
C499 C 0.41233 0.77317 0.56996 0.0
H500 H 0.41056 0.74907 0.80996 0.0
C501 C 0.41521 0.7411 0.52591 0.0
H502 H 0.41044 0.80004 0.70887 0.0
C503 C 0.41499 0.71186 0.58365 0.0
C504 C 0.41216 0.71427 0.68634 0.0
H505 H 0.41547 0.73843 0.44651 0.0
H506 H 0.41508 0.68743 0.54755 0.0
C507 C 0.41245 0.74642 0.73074 0.0
C508 C 0.75247 0.59156 0.2545 0.0
C509 C 0.71877 0.59105 0.28802 0.0
H510 H 0.80499 0.59289 0.29392 0.0
C511 C 0.71228 0.58868 0.38929 0.0
H512 H 0.75816 0.59312 0.17657 0.0
C513 C 0.73906 0.58875 0.4563 0.0
C514 C 0.77273 0.59089 0.42294 0.0
H515 H 0.68653 0.58814 0.41696 0.0
H516 H 0.73335 0.58813 0.53432 0.0
C517 C 0.77927 0.59132 0.32149 0.0
C518 C 0.58234 0.25459 0.49762 0.0
C519 C 0.58057 0.22217 0.54005 0.0
H520 H 0.58647 0.30786 0.52336 0.0
C521 C 0.5762 0.21904 0.6421 0.0
H522 H 0.58545 0.25773 0.41887 0.0
C523 C 0.57657 0.24772 0.70164 0.0
C524 C 0.58152 0.27992 0.66004 0.0
H525 H 0.5744 0.19437 0.67656 0.0
H526 H 0.57503 0.2444 0.78074 0.0
C527 C 0.58291 0.2833 0.55731 0.0
loop_
_geom_bond_atom_site_label_1
_geom_bond_atom_site_label_2
_geom_bond_distance
_geom_bond_site_symmetry_2
_ccdc_geom_bond_type
In0 O1 2.294 1_554 S
In0 O2 2.326 . S
In0 O6 2.266 . S
In0 O7 2.326 . S
In0 O8 2.266 . S
In0 O9 2.326 . S
In0 O11 2.294 . S
In0 O12 2.326 . S
O1 In0 2.294 1_556 S
O1 C10 1.240 1_556 S
O2 In0 2.326 . S
O2 C10 1.252 . S
C3 O6 1.252 . S
C3 O7 1.260 . S
C4 O11 1.240 . S
C4 O12 1.252 . S
C5 O8 1.252 . S
C5 O9 1.260 . S
O6 In0 2.266 . S
O6 C3 1.252 . S
O7 In0 2.326 . S
O7 C3 1.260 . S
O8 In0 2.266 . S
O8 C5 1.252 . S
O9 In0 2.326 . S
O9 C5 1.260 . S
C10 O1 1.240 1_554 S
C10 O2 1.252 . S
O11 In0 2.294 . S
O11 C4 1.240 . S
O12 In0 2.326 . S
O12 C4 1.252 . S
In13 O14 2.294 1_556 S
In13 O15 2.326 . S
In13 O19 2.266 . S
In13 O20 2.326 . S
In13 O21 2.266 . S
In13 O22 2.326 . S
In13 O24 2.294 . S
In13 O25 2.326 . S
O14 In13 2.294 1_554 S
O14 C23 1.240 1_554 S
O15 In13 2.326 . S
O15 C23 1.252 . S
C16 O19 1.252 . S
C16 O20 1.260 . S
C17 O24 1.240 . S
C17 O25 1.252 . S
C18 O21 1.252 . S
C18 O22 1.260 . S
O19 In13 2.266 . S
O19 C16 1.252 . S
O20 In13 2.326 . S
O20 C16 1.260 . S
O21 In13 2.266 . S
O21 C18 1.252 . S
O22 In13 2.326 . S
O22 C18 1.260 . S
C23 O14 1.240 1_556 S
C23 O15 1.252 . S
O24 In13 2.294 . S
O24 C17 1.240 . S
O25 In13 2.326 . S
O25 C17 1.252 . S
In26 O27 2.294 . S
In26 O28 2.326 . S
In26 O32 2.266 . S
In26 O33 2.326 . S
In26 O34 2.266 . S
In26 O35 2.326 . S
In26 O37 2.294 1_554 S
In26 O38 2.326 . S
O27 In26 2.294 . S
O27 C36 1.240 . S
O28 In26 2.326 . S
O28 C36 1.252 . S
C29 O32 1.252 . S
C29 O33 1.260 . S
C30 O37 1.240 1_554 S
C30 O38 1.252 . S
C31 O34 1.252 . S
C31 O35 1.260 . S
O32 In26 2.266 . S
O32 C29 1.252 . S
O33 In26 2.326 . S
O33 C29 1.260 . S
O34 In26 2.266 . S
O34 C31 1.252 . S
O35 In26 2.326 . S
O35 C31 1.260 . S
C36 O27 1.240 . S
C36 O28 1.252 . S
O37 In26 2.294 1_556 S
O37 C30 1.240 1_556 S
O38 In26 2.326 . S
O38 C30 1.252 . S
In39 O40 2.294 . S
In39 O41 2.326 . S
In39 O45 2.266 . S
In39 O46 2.326 . S
In39 O47 2.266 . S
In39 O48 2.326 . S
In39 O50 2.294 1_556 S
In39 O51 2.326 . S
O40 In39 2.294 . S
O40 C49 1.240 . S
O41 In39 2.326 . S
O41 C49 1.252 . S
C42 O45 1.252 . S
C42 O46 1.260 . S
C43 O50 1.240 1_556 S
C43 O51 1.252 . S
C44 O47 1.252 . S
C44 O48 1.260 . S
O45 In39 2.266 . S
O45 C42 1.252 . S
O46 In39 2.326 . S
O46 C42 1.260 . S
O47 In39 2.266 . S
O47 C44 1.252 . S
O48 In39 2.326 . S
O48 C44 1.260 . S
C49 O40 1.240 . S
C49 O41 1.252 . S
O50 In39 2.294 1_554 S
O50 C43 1.240 1_554 S
O51 In39 2.326 . S
O51 C43 1.252 . S
In52 O53 2.294 . S
In52 O54 2.326 . S
In52 O58 2.266 1_554 S
In52 O59 2.326 . S
In52 O60 2.266 . S
In52 O61 2.326 1_554 S
In52 O63 2.294 . S
In52 O64 2.326 . S
O53 In52 2.294 . S
O53 C62 1.240 . S
O54 In52 2.326 . S
O54 C62 1.252 . S
C55 O58 1.252 1_554 S
C55 O59 1.260 . S
C56 O63 1.240 . S
C56 O64 1.252 . S
C57 O60 1.252 . S
C57 O61 1.260 1_554 S
O58 In52 2.266 1_556 S
O58 C55 1.252 1_556 S
O59 In52 2.326 . S
O59 C55 1.260 . S
O60 In52 2.266 . S
O60 C57 1.252 . S
O61 In52 2.326 1_556 S
O61 C57 1.260 1_556 S
C62 O53 1.240 . S
C62 O54 1.252 . S
O63 In52 2.294 . S
O63 C56 1.240 . S
O64 In52 2.326 . S
O64 C56 1.252 . S
In65 O66 2.294 . S
In65 O67 2.326 . S
In65 O71 2.266 1_556 S
In65 O72 2.326 . S
In65 O73 2.266 . S
In65 O74 2.326 1_556 S
In65 O76 2.294 . S
In65 O77 2.326 . S
O66 In65 2.294 . S
O66 C75 1.240 . S
O67 In65 2.326 . S
O67 C75 1.252 . S
C68 O71 1.252 1_556 S
C68 O72 1.260 . S
C69 O76 1.240 . S
C69 O77 1.252 . S
C70 O73 1.252 . S
C70 O74 1.260 1_556 S
O71 In65 2.266 1_554 S
O71 C68 1.252 1_554 S
O72 In65 2.326 . S
O72 C68 1.260 . S
O73 In65 2.266 . S
O73 C70 1.252 . S
O74 In65 2.326 1_554 S
O74 C70 1.260 1_554 S
C75 O66 1.240 . S
C75 O67 1.252 . S
O76 In65 2.294 . S
O76 C69 1.240 . S
O77 In65 2.326 . S
O77 C69 1.252 . S
In78 O79 2.294 . S
In78 O80 2.326 . S
In78 O84 2.266 1_554 S
In78 O85 2.326 . S
In78 O86 2.266 . S
In78 O87 2.326 1_554 S
In78 O89 2.294 . S
In78 O90 2.326 . S
O79 In78 2.294 . S
O79 C88 1.240 . S
O80 In78 2.326 . S
O80 C88 1.252 . S
C81 O84 1.252 1_554 S
C81 O85 1.260 . S
C82 O89 1.240 . S
C82 O90 1.252 . S
C83 O86 1.252 . S
C83 O87 1.260 1_554 S
O84 In78 2.266 1_556 S
O84 C81 1.252 1_556 S
O85 In78 2.326 . S
O85 C81 1.260 . S
O86 In78 2.266 . S
O86 C83 1.252 . S
O87 In78 2.326 1_556 S
O87 C83 1.260 1_556 S
C88 O79 1.240 . S
C88 O80 1.252 . S
O89 In78 2.294 . S
O89 C82 1.240 . S
O90 In78 2.326 . S
O90 C82 1.252 . S
In91 O92 2.294 . S
In91 O93 2.326 . S
In91 O97 2.266 1_556 S
In91 O98 2.326 . S
In91 O99 2.266 . S
In91 O100 2.326 1_556 S
In91 O102 2.294 . S
In91 O103 2.326 . S
O92 In91 2.294 . S
O92 C101 1.240 . S
O93 In91 2.326 . S
O93 C101 1.252 . S
C94 O97 1.252 1_556 S
C94 O98 1.260 . S
C95 O102 1.240 . S
C95 O103 1.252 . S
C96 O99 1.252 . S
C96 O100 1.260 1_556 S
O97 In91 2.266 1_554 S
O97 C94 1.252 1_554 S
O98 In91 2.326 . S
O98 C94 1.260 . S
O99 In91 2.266 . S
O99 C96 1.252 . S
O100 In91 2.326 1_554 S
O100 C96 1.260 1_554 S
C101 O92 1.240 . S
C101 O93 1.252 . S
O102 In91 2.294 . S
O102 C95 1.240 . S
O103 In91 2.326 . S
O103 C95 1.252 . S
In104 O105 2.294 . S
In104 O106 2.326 . S
In104 O110 2.266 . S
In104 O111 2.326 . S
In104 O112 2.266 . S
In104 O113 2.326 . S
In104 O115 2.294 . S
In104 O116 2.326 . S
O105 In104 2.294 . S
O105 C114 1.240 . S
O106 In104 2.326 . S
O106 C114 1.252 . S
C107 O110 1.252 . S
C107 O111 1.260 . S
C108 O115 1.240 . S
C108 O116 1.252 . S
C109 O112 1.252 . S
C109 O113 1.260 . S
O110 In104 2.266 . S
O110 C107 1.252 . S
O111 In104 2.326 . S
O111 C107 1.260 . S
O112 In104 2.266 . S
O112 C109 1.252 . S
O113 In104 2.326 . S
O113 C109 1.260 . S
C114 O105 1.240 . S
C114 O106 1.252 . S
O115 In104 2.294 . S
O115 C108 1.240 . S
O116 In104 2.326 . S
O116 C108 1.252 . S
In117 O118 2.294 . S
In117 O119 2.326 . S
In117 O123 2.266 . S
In117 O124 2.326 . S
In117 O125 2.266 . S
In117 O126 2.326 . S
In117 O128 2.294 . S
In117 O129 2.326 . S
O118 In117 2.294 . S
O118 C127 1.240 . S
O119 In117 2.326 . S
O119 C127 1.252 . S
C120 O123 1.252 . S
C120 O124 1.260 . S
C121 O128 1.240 . S
C121 O129 1.252 . S
C122 O125 1.252 . S
C122 O126 1.260 . S
O123 In117 2.266 . S
O123 C120 1.252 . S
O124 In117 2.326 . S
O124 C120 1.260 . S
O125 In117 2.266 . S
O125 C122 1.252 . S
O126 In117 2.326 . S
O126 C122 1.260 . S
C127 O118 1.240 . S
C127 O119 1.252 . S
O128 In117 2.294 . S
O128 C121 1.240 . S
O129 In117 2.326 . S
O129 C121 1.252 . S
In130 O131 2.294 . S
In130 O132 2.326 . S
In130 O136 2.266 . S
In130 O137 2.326 . S
In130 O138 2.266 . S
In130 O139 2.326 . S
In130 O141 2.294 . S
In130 O142 2.326 . S
O131 In130 2.294 . S
O131 C140 1.240 . S
O132 In130 2.326 . S
O132 C140 1.252 . S
C133 O136 1.252 . S
C133 O137 1.260 . S
C134 O141 1.240 . S
C134 O142 1.252 . S
C135 O138 1.252 . S
C135 O139 1.260 . S
O136 In130 2.266 . S
O136 C133 1.252 . S
O137 In130 2.326 . S
O137 C133 1.260 . S
O138 In130 2.266 . S
O138 C135 1.252 . S
O139 In130 2.326 . S
O139 C135 1.260 . S
C140 O131 1.240 . S
C140 O132 1.252 . S
O141 In130 2.294 . S
O141 C134 1.240 . S
O142 In130 2.326 . S
O142 C134 1.252 . S
In143 O144 2.294 . S
In143 O145 2.326 . S
In143 O149 2.266 . S
In143 O150 2.326 . S
In143 O151 2.266 . S
In143 O152 2.326 . S
In143 O154 2.294 . S
In143 O155 2.326 . S
O144 In143 2.294 . S
O144 C153 1.240 . S
O145 In143 2.326 . S
O145 C153 1.252 . S
C146 O149 1.252 . S
C146 O150 1.260 . S
C147 O154 1.240 . S
C147 O155 1.252 . S
C148 O151 1.252 . S
C148 O152 1.260 . S
O149 In143 2.266 . S
O149 C146 1.252 . S
O150 In143 2.326 . S
O150 C146 1.260 . S
O151 In143 2.266 . S
O151 C148 1.252 . S
O152 In143 2.326 . S
O152 C148 1.260 . S
C153 O144 1.240 . S
C153 O145 1.252 . S
O154 In143 2.294 . S
O154 C147 1.240 . S
O155 In143 2.326 . S
O155 C147 1.252 . S
In156 O157 2.294 . S
In156 O158 2.326 . S
In156 O162 2.266 . S
In156 O163 2.326 . S
In156 O164 2.266 . S
In156 O165 2.326 . S
In156 O167 2.294 . S
In156 O168 2.326 . S
O157 In156 2.294 . S
O157 C166 1.240 . S
O158 In156 2.326 . S
O158 C166 1.252 . S
C159 O162 1.252 . S
C159 O163 1.260 . S
C160 O167 1.240 . S
C160 O168 1.252 . S
C161 O164 1.252 . S
C161 O165 1.260 . S
O162 In156 2.266 . S
O162 C159 1.252 . S
O163 In156 2.326 . S
O163 C159 1.260 . S
O164 In156 2.266 . S
O164 C161 1.252 . S
O165 In156 2.326 . S
O165 C161 1.260 . S
C166 O157 1.240 . S
C166 O158 1.252 . S
O167 In156 2.294 . S
O167 C160 1.240 . S
O168 In156 2.326 . S
O168 C160 1.252 . S
In169 O170 2.294 . S
In169 O171 2.326 . S
In169 O175 2.266 . S
In169 O176 2.326 . S
In169 O177 2.266 . S
In169 O178 2.326 . S
In169 O180 2.294 . S
In169 O181 2.326 . S
O170 In169 2.294 . S
O170 C179 1.240 . S
O171 In169 2.326 . S
O171 C179 1.252 . S
C172 O175 1.252 . S
C172 O176 1.260 . S
C173 O180 1.240 . S
C173 O181 1.252 . S
C174 O177 1.252 . S
C174 O178 1.260 . S
O175 In169 2.266 . S
O175 C172 1.252 . S
O176 In169 2.326 . S
O176 C172 1.260 . S
O177 In169 2.266 . S
O177 C174 1.252 . S
O178 In169 2.326 . S
O178 C174 1.260 . S
C179 O170 1.240 . S
C179 O171 1.252 . S
O180 In169 2.294 . S
O180 C173 1.240 . S
O181 In169 2.326 . S
O181 C173 1.252 . S
In182 O183 2.294 . S
In182 O184 2.326 . S
In182 O188 2.266 . S
In182 O189 2.326 . S
In182 O190 2.266 . S
In182 O191 2.326 . S
In182 O193 2.294 . S
In182 O194 2.326 . S
O183 In182 2.294 . S
O183 C192 1.240 . S
O184 In182 2.326 . S
O184 C192 1.252 . S
C185 O188 1.252 . S
C185 O189 1.260 . S
C186 O193 1.240 . S
C186 O194 1.252 . S
C187 O190 1.252 . S
C187 O191 1.260 . S
O188 In182 2.266 . S
O188 C185 1.252 . S
O189 In182 2.326 . S
O189 C185 1.260 . S
O190 In182 2.266 . S
O190 C187 1.252 . S
O191 In182 2.326 . S
O191 C187 1.260 . S
C192 O183 1.240 . S
C192 O184 1.252 . S
O193 In182 2.294 . S
O193 C186 1.240 . S
O194 In182 2.326 . S
O194 C186 1.252 . S
In195 O196 2.294 . S
In195 O197 2.326 . S
In195 O201 2.266 . S
In195 O202 2.326 . S
In195 O203 2.266 . S
In195 O204 2.326 . S
In195 O206 2.294 . S
In195 O207 2.326 . S
O196 In195 2.294 . S
O196 C205 1.240 . S
O197 In195 2.326 . S
O197 C205 1.252 . S
C198 O201 1.252 . S
C198 O202 1.260 . S
C199 O206 1.240 . S
C199 O207 1.252 . S
C200 O203 1.252 . S
C200 O204 1.260 . S
O201 In195 2.266 . S
O201 C198 1.252 . S
O202 In195 2.326 . S
O202 C198 1.260 . S
O203 In195 2.266 . S
O203 C200 1.252 . S
O204 In195 2.326 . S
O204 C200 1.260 . S
C205 O196 1.240 . S
C205 O197 1.252 . S
O206 In195 2.294 . S
O206 C199 1.240 . S
O207 In195 2.326 . S
O207 C199 1.252 . S
C208 C209 1.387 . S
C208 H212 0.950 . S
C208 C217 1.390 1_565 S
C209 C208 1.387 . S
C209 C211 1.387 . S
H210 C217 0.950 . S
C211 C209 1.387 . S
C211 C213 1.390 1_565 S
C211 H215 0.950 . S
H212 C208 0.950 . S
C213 C211 1.390 1_545 S
C213 C214 1.387 . S
C213 H216 0.950 . S
C214 C213 1.387 . S
C214 C217 1.387 . S
H215 C211 0.950 . S
H216 C213 0.950 . S
C217 C208 1.390 1_545 S
C217 H210 0.950 . S
C217 C214 1.387 . S
C218 C219 1.387 . S
C218 H222 0.950 . S
C218 C227 1.390 1_455 S
C219 C218 1.387 . S
C219 C221 1.387 . S
H220 C227 0.950 . S
C221 C219 1.387 . S
C221 C223 1.390 1_455 S
C221 H225 0.950 . S
H222 C218 0.950 . S
C223 C221 1.390 1_655 S
C223 C224 1.387 . S
C223 H226 0.950 . S
C224 C223 1.387 . S
C224 C227 1.387 . S
H225 C221 0.950 . S
H226 C223 0.950 . S
C227 C218 1.390 1_655 S
C227 H220 0.950 . S
C227 C224 1.387 . S
C228 C229 1.387 . S
C228 H232 0.950 . S
C228 C237 1.390 1_565 S
C229 C228 1.387 . S
C229 C231 1.387 . S
H230 C237 0.950 . S
C231 C229 1.387 . S
C231 C233 1.390 1_565 S
C231 H235 0.950 . S
H232 C228 0.950 . S
C233 C231 1.390 1_545 S
C233 C234 1.387 . S
C233 H236 0.950 . S
C234 C233 1.387 . S
C234 C237 1.387 . S
H235 C231 0.950 . S
H236 C233 0.950 . S
C237 C228 1.390 1_545 S
C237 H230 0.950 . S
C237 C234 1.387 . S
C238 C239 1.387 . S
C238 H242 0.950 . S
C238 C247 1.390 1_455 S
C239 C238 1.387 . S
C239 C241 1.387 . S
H240 C247 0.950 . S
C241 C239 1.387 . S
C241 C243 1.390 1_455 S
C241 H245 0.950 . S
H242 C238 0.950 . S
C243 C241 1.390 1_655 S
C243 C244 1.387 . S
C243 H246 0.950 . S
C244 C243 1.387 . S
C244 C247 1.387 . S
H245 C241 0.950 . S
H246 C243 0.950 . S
C247 C238 1.390 1_655 S
C247 H240 0.950 . S
C247 C244 1.387 . S
C248 C249 1.387 . S
C248 H252 0.950 . S
C248 C257 1.390 . S
C249 C248 1.387 . S
C249 C251 1.387 1_556 S
H250 C257 0.950 . S
C251 C249 1.387 1_554 S
C251 C253 1.390 . S
C251 H255 0.950 . S
H252 C248 0.950 . S
C253 C251 1.390 . S
C253 C254 1.387 1_554 S
C253 H256 0.950 . S
C254 C253 1.387 1_556 S
C254 C257 1.387 . S
H255 C251 0.950 . S
H256 C253 0.950 . S
C257 C248 1.390 . S
C257 H250 0.950 . S
C257 C254 1.387 . S
C258 C259 1.387 . S
C258 H262 0.950 . S
C258 C267 1.390 . S
C259 C258 1.387 . S
C259 C261 1.387 1_554 S
H260 C267 0.950 . S
C261 C259 1.387 1_556 S
C261 C263 1.390 1_556 S
C261 H265 0.950 . S
H262 C258 0.950 . S
C263 C261 1.390 1_554 S
C263 C264 1.387 . S
C263 H266 0.950 1_554 S
C264 C263 1.387 . S
C264 C267 1.387 . S
H265 C261 0.950 . S
H266 C263 0.950 1_556 S
C267 C258 1.390 . S
C267 H260 0.950 . S
C267 C264 1.387 . S
C268 C269 1.387 . S
C268 H272 0.950 . S
C268 C277 1.390 . S
C269 C268 1.387 . S
C269 C271 1.387 1_556 S
H270 C277 0.950 . S
C271 C269 1.387 1_554 S
C271 C273 1.390 . S
C271 H275 0.950 . S
H272 C268 0.950 . S
C273 C271 1.390 . S
C273 C274 1.387 1_554 S
C273 H276 0.950 . S
C274 C273 1.387 1_556 S
C274 C277 1.387 . S
H275 C271 0.950 . S
H276 C273 0.950 . S
C277 C268 1.390 . S
C277 H270 0.950 . S
C277 C274 1.387 . S
C278 C279 1.387 . S
C278 H282 0.950 . S
C278 C287 1.390 . S
C279 C278 1.387 . S
C279 C281 1.387 1_554 S
H280 C287 0.950 . S
C281 C279 1.387 1_556 S
C281 C283 1.390 . S
C281 H285 0.950 . S
H282 C278 0.950 . S
C283 C281 1.390 . S
C283 C284 1.387 1_556 S
C283 H286 0.950 . S
C284 C283 1.387 1_554 S
C284 C287 1.387 . S
H285 C281 0.950 . S
H286 C283 0.950 . S
C287 C278 1.390 . S
C287 H280 0.950 . S
C287 C284 1.387 . S
C288 C289 1.387 . S
C288 H292 0.950 . S
C288 C297 1.390 . S
C289 C288 1.387 . S
C289 C291 1.387 . S
H290 C297 0.950 . S
C291 C289 1.387 . S
C291 C293 1.390 . S
C291 H295 0.950 . S
H292 C288 0.950 . S
C293 C291 1.390 . S
C293 C294 1.387 . S
C293 H296 0.950 . S
C294 C293 1.387 . S
C294 C297 1.387 . S
H295 C291 0.950 . S
H296 C293 0.950 . S
C297 C288 1.390 . S
C297 H290 0.950 . S
C297 C294 1.387 . S
C298 C299 1.387 . S
C298 H302 0.950 . S
C298 C307 1.390 . S
C299 C298 1.387 . S
C299 C301 1.387 . S
H300 C307 0.950 . S
C301 C299 1.387 . S
C301 C303 1.390 . S
C301 H305 0.950 . S
H302 C298 0.950 . S
C303 C301 1.390 . S
C303 C304 1.387 . S
C303 H306 0.950 . S
C304 C303 1.387 . S
C304 C307 1.387 . S
H305 C301 0.950 . S
H306 C303 0.950 . S
C307 C298 1.390 . S
C307 H300 0.950 . S
C307 C304 1.387 . S
C308 C309 1.387 . S
C308 H312 0.950 . S
C308 C317 1.390 . S
C309 C308 1.387 . S
C309 C311 1.387 . S
H310 C317 0.950 . S
C311 C309 1.387 . S
C311 C313 1.390 . S
C311 H315 0.950 . S
H312 C308 0.950 . S
C313 C311 1.390 . S
C313 C314 1.387 . S
C313 H316 0.950 . S
C314 C313 1.387 . S
C314 C317 1.387 . S
H315 C311 0.950 . S
H316 C313 0.950 . S
C317 C308 1.390 . S
C317 H310 0.950 . S
C317 C314 1.387 . S
C318 C319 1.387 . S
C318 H322 0.950 . S
C318 C327 1.390 . S
C319 C318 1.387 . S
C319 C321 1.387 . S
H320 C327 0.950 . S
C321 C319 1.387 . S
C321 C323 1.390 . S
C321 H325 0.950 . S
H322 C318 0.950 . S
C323 C321 1.390 . S
C323 C324 1.387 . S
C323 H326 0.950 . S
C324 C323 1.387 . S
C324 C327 1.387 . S
H325 C321 0.950 . S
H326 C323 0.950 . S
C327 C318 1.390 . S
C327 H320 0.950 . S
C327 C324 1.387 . S
C328 C329 1.387 . S
C328 H332 0.950 . S
C328 C337 1.390 1_565 S
C329 C328 1.387 . S
C329 C331 1.387 . S
H330 C337 0.950 . S
C331 C329 1.387 . S
C331 C333 1.390 1_565 S
C331 H335 0.950 . S
H332 C328 0.950 . S
C333 C331 1.390 1_545 S
C333 C334 1.387 . S
C333 H336 0.950 . S
C334 C333 1.387 . S
C334 C337 1.387 . S
H335 C331 0.950 . S
H336 C333 0.950 . S
C337 C328 1.390 1_545 S
C337 H330 0.950 . S
C337 C334 1.387 . S
C338 C339 1.387 . S
C338 H342 0.950 . S
C338 C347 1.390 1_655 S
C339 C338 1.387 . S
C339 C341 1.387 . S
H340 C347 0.950 . S
C341 C339 1.387 . S
C341 C343 1.390 1_655 S
C341 H345 0.950 . S
H342 C338 0.950 . S
C343 C341 1.390 1_455 S
C343 C344 1.387 . S
C343 H346 0.950 . S
C344 C343 1.387 . S
C344 C347 1.387 . S
H345 C341 0.950 . S
H346 C343 0.950 . S
C347 C338 1.390 1_455 S
C347 H340 0.950 . S
C347 C344 1.387 . S
C348 C349 1.387 . S
C348 H352 0.950 . S
C348 C357 1.390 1_565 S
C349 C348 1.387 . S
C349 C351 1.387 . S
H350 C357 0.950 . S
C351 C349 1.387 . S
C351 C353 1.390 1_565 S
C351 H355 0.950 . S
H352 C348 0.950 . S
C353 C351 1.390 1_545 S
C353 C354 1.387 . S
C353 H356 0.950 . S
C354 C353 1.387 . S
C354 C357 1.387 . S
H355 C351 0.950 . S
H356 C353 0.950 . S
C357 C348 1.390 1_545 S
C357 H350 0.950 . S
C357 C354 1.387 . S
C358 C359 1.387 . S
C358 H362 0.950 . S
C358 C367 1.390 1_655 S
C359 C358 1.387 . S
C359 C361 1.387 . S
H360 C367 0.950 . S
C361 C359 1.387 . S
C361 C363 1.390 1_655 S
C361 H365 0.950 . S
H362 C358 0.950 . S
C363 C361 1.390 1_455 S
C363 C364 1.387 . S
C363 H366 0.950 . S
C364 C363 1.387 . S
C364 C367 1.387 . S
H365 C361 0.950 . S
H366 C363 0.950 . S
C367 C358 1.390 1_455 S
C367 H360 0.950 . S
C367 C364 1.387 . S
C368 C369 1.387 . S
C368 H372 0.950 . S
C368 C377 1.390 . S
C369 C368 1.387 . S
C369 C371 1.387 . S
H370 C377 0.950 . S
C371 C369 1.387 . S
C371 C373 1.390 . S
C371 H375 0.950 . S
H372 C368 0.950 . S
C373 C371 1.390 . S
C373 C374 1.387 . S
C373 H376 0.950 . S
C374 C373 1.387 . S
C374 C377 1.387 . S
H375 C371 0.950 . S
H376 C373 0.950 . S
C377 C368 1.390 . S
C377 H370 0.950 . S
C377 C374 1.387 . S
C378 C379 1.387 . S
C378 H382 0.950 . S
C378 C387 1.390 . S
C379 C378 1.387 . S
C379 C381 1.387 . S
H380 C387 0.950 . S
C381 C379 1.387 . S
C381 C383 1.390 . S
C381 H385 0.950 . S
H382 C378 0.950 . S
C383 C381 1.390 . S
C383 C384 1.387 . S
C383 H386 0.950 . S
C384 C383 1.387 . S
C384 C387 1.387 . S
H385 C381 0.950 . S
H386 C383 0.950 . S
C387 C378 1.390 . S
C387 H380 0.950 . S
C387 C384 1.387 . S
C388 C389 1.387 . S
C388 H392 0.950 . S
C388 C397 1.390 . S
C389 C388 1.387 . S
C389 C391 1.387 . S
H390 C397 0.950 . S
C391 C389 1.387 . S
C391 C393 1.390 . S
C391 H395 0.950 . S
H392 C388 0.950 . S
C393 C391 1.390 . S
C393 C394 1.387 . S
C393 H396 0.950 . S
C394 C393 1.387 . S
C394 C397 1.387 . S
H395 C391 0.950 . S
H396 C393 0.950 . S
C397 C388 1.390 . S
C397 H390 0.950 . S
C397 C394 1.387 . S
C398 C399 1.387 . S
C398 H402 0.950 . S
C398 C407 1.390 . S
C399 C398 1.387 . S
C399 C401 1.387 . S
H400 C407 0.950 . S
C401 C399 1.387 . S
C401 C403 1.390 . S
C401 H405 0.950 . S
H402 C398 0.950 . S
C403 C401 1.390 . S
C403 C404 1.387 . S
C403 H406 0.950 . S
C404 C403 1.387 . S
C404 C407 1.387 . S
H405 C401 0.950 . S
H406 C403 0.950 . S
C407 C398 1.390 . S
C407 H400 0.950 . S
C407 C404 1.387 . S
C408 C409 1.387 . S
C408 H412 0.950 . S
C408 C417 1.390 . S
C409 C408 1.387 . S
C409 C411 1.387 . S
H410 C417 0.950 . S
C411 C409 1.387 . S
C411 C413 1.390 . S
C411 H415 0.950 . S
H412 C408 0.950 . S
C413 C411 1.390 . S
C413 C414 1.387 . S
C413 H416 0.950 . S
C414 C413 1.387 . S
C414 C417 1.387 . S
H415 C411 0.950 . S
H416 C413 0.950 . S
C417 C408 1.390 . S
C417 H410 0.950 . S
C417 C414 1.387 . S
C418 C419 1.387 . S
C418 H422 0.950 . S
C418 C427 1.390 . S
C419 C418 1.387 . S
C419 C421 1.387 . S
H420 C427 0.950 . S
C421 C419 1.387 . S
C421 C423 1.390 . S
C421 H425 0.950 . S
H422 C418 0.950 . S
C423 C421 1.390 . S
C423 C424 1.387 . S
C423 H426 0.950 . S
C424 C423 1.387 . S
C424 C427 1.387 . S
H425 C421 0.950 . S
H426 C423 0.950 . S
C427 C418 1.390 . S
C427 H420 0.950 . S
C427 C424 1.387 . S
C428 C429 1.387 . S
C428 H432 0.950 . S
C428 C437 1.390 . S
C429 C428 1.387 . S
C429 C431 1.387 . S
H430 C437 0.950 . S
C431 C429 1.387 . S
C431 C433 1.390 . S
C431 H435 0.950 . S
H432 C428 0.950 . S
C433 C431 1.390 . S
C433 C434 1.387 . S
C433 H436 0.950 . S
C434 C433 1.387 . S
C434 C437 1.387 . S
H435 C431 0.950 . S
H436 C433 0.950 . S
C437 C428 1.390 . S
C437 H430 0.950 . S
C437 C434 1.387 . S
C438 C439 1.387 . S
C438 H442 0.950 . S
C438 C447 1.390 . S
C439 C438 1.387 . S
C439 C441 1.387 . S
H440 C447 0.950 . S
C441 C439 1.387 . S
C441 C443 1.390 . S
C441 H445 0.950 . S
H442 C438 0.950 . S
C443 C441 1.390 . S
C443 C444 1.387 . S
C443 H446 0.950 . S
C444 C443 1.387 . S
C444 C447 1.387 . S
H445 C441 0.950 . S
H446 C443 0.950 . S
C447 C438 1.390 . S
C447 H440 0.950 . S
C447 C444 1.387 . S
C448 C449 1.387 . S
C448 H452 0.950 . S
C448 C457 1.390 . S
C449 C448 1.387 . S
C449 C451 1.387 . S
H450 C457 0.950 . S
C451 C449 1.387 . S
C451 C453 1.390 . S
C451 H455 0.950 . S
H452 C448 0.950 . S
C453 C451 1.390 . S
C453 C454 1.387 . S
C453 H456 0.950 . S
C454 C453 1.387 . S
C454 C457 1.387 . S
H455 C451 0.950 . S
H456 C453 0.950 . S
C457 C448 1.390 . S
C457 H450 0.950 . S
C457 C454 1.387 . S
C458 C459 1.387 . S
C458 H462 0.950 . S
C458 C467 1.390 . S
C459 C458 1.387 . S
C459 C461 1.387 . S
H460 C467 0.950 . S
C461 C459 1.387 . S
C461 C463 1.390 . S
C461 H465 0.950 . S
H462 C458 0.950 . S
C463 C461 1.390 . S
C463 C464 1.387 . S
C463 H466 0.950 . S
C464 C463 1.387 . S
C464 C467 1.387 . S
H465 C461 0.950 . S
H466 C463 0.950 . S
C467 C458 1.390 . S
C467 H460 0.950 . S
C467 C464 1.387 . S
C468 C469 1.387 . S
C468 H472 0.950 . S
C468 C477 1.390 . S
C469 C468 1.387 . S
C469 C471 1.387 . S
H470 C477 0.950 . S
C471 C469 1.387 . S
C471 C473 1.390 . S
C471 H475 0.950 . S
H472 C468 0.950 . S
C473 C471 1.390 . S
C473 C474 1.387 . S
C473 H476 0.950 . S
C474 C473 1.387 . S
C474 C477 1.387 . S
H475 C471 0.950 . S
H476 C473 0.950 . S
C477 C468 1.390 . S
C477 H470 0.950 . S
C477 C474 1.387 . S
C478 C479 1.387 . S
C478 H482 0.950 . S
C478 C487 1.390 . S
C479 C478 1.387 . S
C479 C481 1.387 . S
H480 C487 0.950 . S
C481 C479 1.387 . S
C481 C483 1.390 . S
C481 H485 0.950 . S
H482 C478 0.950 . S
C483 C481 1.390 . S
C483 C484 1.387 . S
C483 H486 0.950 . S
C484 C483 1.387 . S
C484 C487 1.387 . S
H485 C481 0.950 . S
H486 C483 0.950 . S
C487 C478 1.390 . S
C487 H480 0.950 . S
C487 C484 1.387 . S
C488 C489 1.387 . S
C488 H492 0.950 . S
C488 C497 1.390 . S
C489 C488 1.387 . S
C489 C491 1.387 . S
H490 C497 0.950 . S
C491 C489 1.387 . S
C491 C493 1.390 . S
C491 H495 0.950 . S
H492 C488 0.950 . S
C493 C491 1.390 . S
C493 C494 1.387 . S
C493 H496 0.950 . S
C494 C493 1.387 . S
C494 C497 1.387 . S
H495 C491 0.950 . S
H496 C493 0.950 . S
C497 C488 1.390 . S
C497 H490 0.950 . S
C497 C494 1.387 . S
C498 C499 1.387 . S
C498 H502 0.950 . S
C498 C507 1.390 . S
C499 C498 1.387 . S
C499 C501 1.387 . S
H500 C507 0.950 . S
C501 C499 1.387 . S
C501 C503 1.390 . S
C501 H505 0.950 . S
H502 C498 0.950 . S
C503 C501 1.390 . S
C503 C504 1.387 . S
C503 H506 0.950 . S
C504 C503 1.387 . S
C504 C507 1.387 . S
H505 C501 0.950 . S
H506 C503 0.950 . S
C507 C498 1.390 . S
C507 H500 0.950 . S
C507 C504 1.387 . S
C508 C509 1.387 . S
C508 H512 0.950 . S
C508 C517 1.390 . S
C509 C508 1.387 . S
C509 C511 1.387 . S
H510 C517 0.950 . S
C511 C509 1.387 . S
C511 C513 1.390 . S
C511 H515 0.950 . S
H512 C508 0.950 . S
C513 C511 1.390 . S
C513 C514 1.387 . S
C513 H516 0.950 . S
C514 C513 1.387 . S
C514 C517 1.387 . S
H515 C511 0.950 . S
H516 C513 0.950 . S
C517 C508 1.390 . S
C517 H510 0.950 . S
C517 C514 1.387 . S
C518 C519 1.387 . S
C518 H522 0.950 . S
C518 C527 1.390 . S
C519 C518 1.387 . S
C519 C521 1.387 . S
H520 C527 0.950 . S
C521 C519 1.387 . S
C521 C523 1.390 . S
C521 H525 0.950 . S
H522 C518 0.950 . S
C523 C521 1.390 . S
C523 C524 1.387 . S
C523 H526 0.950 . S
C524 C523 1.387 . S
C524 C527 1.387 . S
H525 C521 0.950 . S
H526 C523 0.950 . S
C527 C518 1.390 . S
C527 H520 0.950 . S
C527 C524 1.387 . S
C209 C148 1.483 . S
C214 C5 1.449 . S
C219 C18 1.448 . S
C224 C107 1.483 . S
C229 C29 1.447 . S
C234 C122 1.481 . S
C239 C135 1.481 . S
C244 C42 1.448 . S
C249 C55 1.447 1_556 S
C254 C70 1.481 . S
C259 C68 1.447 1_554 S
C264 C83 1.482 . S
C269 C96 1.481 . S
C274 C81 1.446 1_556 S
C279 C57 1.483 . S
C284 C94 1.449 1_554 S
C289 C44 1.483 . S
C294 C109 1.449 . S
C299 C120 1.448 . S
C304 C3 1.483 . S
C309 C16 1.483 . S
C314 C133 1.449 . S
C319 C146 1.448 . S
C324 C31 1.481 . S
C329 C161 1.448 . S
C334 C172 1.483 . S
C339 C174 1.446 . S
C344 C185 1.481 . S
C349 C200 1.481 . S
C354 C187 1.447 . S
C359 C159 1.481 . S
C364 C198 1.447 . S
C369 C62 1.347 . S
C374 C4 1.347 . S
C379 C17 1.347 . S
C384 C75 1.347 . S
C389 C36 1.347 . S
C394 C88 1.347 . S
C399 C101 1.347 . S
C404 C49 1.347 . S
C409 C108 1.342 . S
C414 C160 1.342 . S
C419 C173 1.346 . S
C424 C127 1.346 . S
C429 C140 1.347 . S
C434 C186 1.346 . S
C439 C205 1.342 . S
C444 C153 1.342 . S
C449 C192 1.569 . S
C454 C10 1.569 1_556 S
C459 C199 1.569 . S
C464 C23 1.569 1_554 S
C469 C30 1.569 1_556 S
C474 C166 1.569 . S
C479 C179 1.567 . S
C484 C43 1.567 1_554 S
C489 C134 1.567 . S
C494 C56 1.567 . S
C499 C147 1.568 . S
C504 C69 1.568 . S
C509 C82 1.567 . S
C514 C114 1.567 . S
C519 C121 1.568 . S
C524 C95 1.568 . S
