# Generated by pormake.
# Topology una, (4)-cn, num edge types: 1
# Building blocks:
#     Node 0, Type 0, BuildingBlock: KUFVIS_clean_sbu_0, # of connection points: 4
#     Node 1, Type 0, BuildingBlock: KUFVIS_clean_sbu_0, # of connection points: 4
#     Node 2, Type 0, BuildingBlock: KUFVIS_clean_sbu_0, # of connection points: 4
#     Node 3, Type 0, BuildingBlock: KUFVIS_clean_sbu_0, # of connection points: 4
#     Node 4, Type 0, BuildingBlock: KUFVIS_clean_sbu_0, # of connection points: 4
#     Node 5, Type 0, BuildingBlock: KUFVIS_clean_sbu_0, # of connection points: 4
#     Node 6, Type 0, BuildingBlock: KUFVIS_clean_sbu_0, # of connection points: 4
#     Node 7, Type 0, BuildingBlock: KUFVIS_clean_sbu_0, # of connection points: 4
#     Node 8, Type 0, BuildingBlock: KUFVIS_clean_sbu_0, # of connection points: 4
#     Node 9, Type 0, BuildingBlock: KUFVIS_clean_sbu_0, # of connection points: 4
#     Node 10, Type 0, BuildingBlock: KUFVIS_clean_sbu_0, # of connection points: 4
#     Node 11, Type 0, BuildingBlock: KUFVIS_clean_sbu_0, # of connection points: 4
#     Edge 12, Type (0, 0), BuildingBlock: UVAHIK_clean_linker_0, # of connection points: 2
#     Edge 13, Type (0, 0), BuildingBlock: UVAHIK_clean_linker_0, # of connection points: 2
#     Edge 14, Type (0, 0), BuildingBlock: UVAHIK_clean_linker_0, # of connection points: 2
#     Edge 15, Type (0, 0), BuildingBlock: UVAHIK_clean_linker_0, # of connection points: 2
#     Edge 16, Type (0, 0), BuildingBlock: UVAHIK_clean_linker_0, # of connection points: 2
#     Edge 17, Type (0, 0), BuildingBlock: UVAHIK_clean_linker_0, # of connection points: 2
#     Edge 18, Type (0, 0), BuildingBlock: UVAHIK_clean_linker_0, # of connection points: 2
#     Edge 19, Type (0, 0), BuildingBlock: UVAHIK_clean_linker_0, # of connection points: 2
#     Edge 20, Type (0, 0), BuildingBlock: UVAHIK_clean_linker_0, # of connection points: 2
#     Edge 21, Type (0, 0), BuildingBlock: UVAHIK_clean_linker_0, # of connection points: 2
#     Edge 22, Type (0, 0), BuildingBlock: UVAHIK_clean_linker_0, # of connection points: 2
#     Edge 23, Type (0, 0), BuildingBlock: UVAHIK_clean_linker_0, # of connection points: 2
#     Edge 24, Type (0, 0), BuildingBlock: UVAHIK_clean_linker_0, # of connection points: 2
#     Edge 25, Type (0, 0), BuildingBlock: UVAHIK_clean_linker_0, # of connection points: 2
#     Edge 26, Type (0, 0), BuildingBlock: UVAHIK_clean_linker_0, # of connection points: 2
#     Edge 27, Type (0, 0), BuildingBlock: UVAHIK_clean_linker_0, # of connection points: 2
#     Edge 28, Type (0, 0), BuildingBlock: UVAHIK_clean_linker_0, # of connection points: 2
#     Edge 29, Type (0, 0), BuildingBlock: UVAHIK_clean_linker_0, # of connection points: 2
#     Edge 30, Type (0, 0), BuildingBlock: UVAHIK_clean_linker_0, # of connection points: 2
#     Edge 31, Type (0, 0), BuildingBlock: UVAHIK_clean_linker_0, # of connection points: 2
#     Edge 32, Type (0, 0), BuildingBlock: UVAHIK_clean_linker_0, # of connection points: 2
#     Edge 33, Type (0, 0), BuildingBlock: UVAHIK_clean_linker_0, # of connection points: 2
#     Edge 34, Type (0, 0), BuildingBlock: UVAHIK_clean_linker_0, # of connection points: 2
#     Edge 35, Type (0, 0), BuildingBlock: UVAHIK_clean_linker_0, # of connection points: 2
# Relax obj value: 0.032
# Max RMSD: 0.075
# Mean RMSD: 0.075
data_MOF--net-una--node1-KUFVIS_clean_sbu_0--edge1-UVAHIK_clean_linker_0
_symmetry_space_group_name_H-M    P1
_symmetry_Int_Tables_number       1
_symmetry_cell_setting            triclinic
loop_
_symmetry_equiv_pos_as_xyz
'x, y, z'
_cell_length_a     74.388164
_cell_length_b     74.381085
_cell_length_c     28.522813
_cell_angle_alpha  89.93793
_cell_angle_beta   90.021548
_cell_angle_gamma 119.99571
loop_
_atom_site_label
_atom_site_type_symbol
_atom_site_fract_x
_atom_site_fract_y
_atom_site_fract_z
_atom_type_partial_charge
Mn0 Mn 0.14126 0.44342 0.02977 0.0
Mn1 Mn 0.14398 0.4669 0.92663 0.0
C2 C 0.15079 0.43298 0.96268 0.0
C3 C 0.15842 0.4435 0.09874 0.0
C4 C 0.10342 0.43464 0.97114 0.0
O5 O 0.14043 0.46948 0.04906 0.0
O6 O 0.14627 0.48541 0.97894 0.0
C7 C 0.18765 0.50086 0.93259 0.0
N8 N 0.17242 0.4842 0.90941 0.0
C9 C 0.19584 0.48799 0.84704 0.0
C10 C 0.21176 0.50526 0.87011 0.0
C11 C 0.20766 0.51168 0.91314 0.0
C12 C 0.17624 0.47777 0.86824 0.0
H13 H 0.18454 0.50581 0.9657 0.0
C14 C 0.14371 0.48494 0.0234 0.0
O15 O 0.13825 0.43343 0.09647 0.0
O16 O 0.16832 0.45383 0.06187 0.0
N17 N 0.142 0.45083 0.87252 0.0
C18 C 0.12498 0.43375 0.85506 0.0
C19 C 0.12638 0.42546 0.81193 0.0
C20 C 0.14518 0.43492 0.787 0.0
C21 C 0.16245 0.45256 0.8055 0.0
C22 C 0.16005 0.46026 0.84838 0.0
H23 H 0.11041 0.42654 0.87376 0.0
O24 O 0.14457 0.42106 0.99927 0.0
O25 O 0.15191 0.45088 0.96709 0.0
O26 O 0.11105 0.42978 0.00591 0.0
O27 O 0.1143 0.44889 0.94147 0.0
C28 C 0.18195 0.4628 0.78312 0.0
C29 C 0.19868 0.4804 0.80406 0.0
H30 H 0.22721 0.51365 0.85522 0.0
H31 H 0.21989 0.52495 0.93124 0.0
H32 H 0.11298 0.41186 0.79783 0.0
H33 H 0.14612 0.42853 0.7536 0.0
H34 H 0.1843 0.45718 0.74997 0.0
H35 H 0.21365 0.48799 0.78679 0.0
Mn36 Mn 0.69994 0.13905 0.19806 0.0
Mn37 Mn 0.68022 0.14227 0.094 0.0
C38 C 0.7203 0.14812 0.13173 0.0
C39 C 0.71703 0.15633 0.26688 0.0
C40 C 0.67063 0.10139 0.13911 0.0
O41 O 0.67351 0.13924 0.21626 0.0
O42 O 0.66358 0.14464 0.14551 0.0
C43 C 0.69037 0.18608 0.10004 0.0
N44 N 0.69191 0.17083 0.0772 0.0
C45 C 0.71296 0.19457 0.01657 0.0
C46 C 0.71149 0.2105 0.03929 0.0
C47 C 0.70019 0.20624 0.08126 0.0
C48 C 0.70286 0.17479 0.03696 0.0
H49 H 0.68176 0.18287 0.13241 0.0
C50 C 0.66148 0.14248 0.19009 0.0
O51 O 0.70631 0.13615 0.26539 0.0
O52 O 0.71714 0.16611 0.2293 0.0
N53 N 0.69489 0.14033 0.04091 0.0
C54 C 0.69523 0.12337 0.02404 0.0
C55 C 0.70595 0.12502 0.98228 0.0
C56 C 0.71606 0.14402 0.95814 0.0
C57 C 0.71535 0.16122 0.97597 0.0
C58 C 0.70425 0.15858 0.01747 0.0
H59 H 0.6874 0.10869 0.04229 0.0
O60 O 0.72541 0.14146 0.16854 0.0
O61 O 0.70375 0.14969 0.13543 0.0
O62 O 0.68268 0.10884 0.17465 0.0
O63 O 0.66803 0.11248 0.10852 0.0
C64 C 0.72535 0.1809 0.95438 0.0
C65 C 0.72426 0.1976 0.97481 0.0
H66 H 0.71909 0.22608 0.02498 0.0
H67 H 0.69907 0.21847 0.09912 0.0
H68 H 0.70641 0.11167 0.96872 0.0
H69 H 0.72433 0.14522 0.92599 0.0
H70 H 0.73408 0.18343 0.92228 0.0
H71 H 0.73223 0.21272 0.95821 0.0
Mn72 Mn 0.56103 0.69889 0.3652 0.0
Mn73 Mn 0.53858 0.6797 0.26053 0.0
C74 C 0.57284 0.71941 0.29916 0.0
C75 C 0.56101 0.71633 0.43347 0.0
C76 C 0.56938 0.66959 0.3061 0.0
O77 O 0.53412 0.67266 0.38285 0.0
O78 O 0.5194 0.66273 0.31154 0.0
C79 C 0.5049 0.68981 0.26678 0.0
N80 N 0.52177 0.6915 0.24403 0.0
C81 C 0.5194 0.71305 0.18418 0.0
C82 C 0.50191 0.71144 0.20681 0.0
C83 C 0.49467 0.6998 0.24834 0.0
C84 C 0.52894 0.70275 0.2042 0.0
H85 H 0.49935 0.68096 0.29882 0.0
C86 C 0.51912 0.66056 0.35615 0.0
O87 O 0.56991 0.70506 0.43288 0.0
O88 O 0.55156 0.71653 0.39567 0.0
N89 N 0.55538 0.69469 0.20789 0.0
C90 C 0.57276 0.69516 0.19112 0.0
C91 C 0.58204 0.70623 0.14983 0.0
C92 C 0.57329 0.71656 0.12606 0.0
C93 C 0.55531 0.71572 0.14378 0.0
C94 C 0.54662 0.70427 0.1848 0.0
H95 H 0.5795 0.68717 0.20913 0.0
O96 O 0.58448 0.72422 0.33611 0.0
O97 O 0.5546 0.70299 0.30249 0.0
O98 O 0.57368 0.68127 0.34224 0.0
O99 O 0.55612 0.66746 0.27485 0.0
C100 C 0.54575 0.72594 0.12258 0.0
C101 C 0.52788 0.7247 0.14291 0.0
H102 H 0.49401 0.71917 0.19278 0.0
H103 H 0.48124 0.69856 0.26613 0.0
H104 H 0.59592 0.7068 0.13636 0.0
H105 H 0.58054 0.72512 0.0943 0.0
H106 H 0.55213 0.73495 0.09087 0.0
H107 H 0.52084 0.73284 0.12662 0.0
Mn108 Mn 0.86315 0.56079 0.53689 0.0
Mn109 Mn 0.85825 0.53686 0.4335 0.0
C110 C 0.85142 0.5704 0.47198 0.0
C111 C 0.84749 0.56038 0.60829 0.0
C112 C 0.89967 0.5698 0.47338 0.0
O113 O 0.86502 0.53517 0.5548 0.0
O114 O 0.85739 0.51863 0.48526 0.0
C115 C 0.81496 0.5025 0.44394 0.0
N116 N 0.8295 0.51919 0.41948 0.0
C117 C 0.80452 0.51494 0.36054 0.0
C118 C 0.7893 0.49763 0.38495 0.0
C119 C 0.79453 0.49142 0.4269 0.0
C120 C 0.82459 0.52541 0.37931 0.0
H121 H 0.81893 0.49772 0.47625 0.0
C122 C 0.86113 0.51952 0.52929 0.0
O123 O 0.86756 0.571 0.60356 0.0
O124 O 0.83685 0.54988 0.57235 0.0
N125 N 0.85873 0.55269 0.38009 0.0
C126 C 0.87513 0.56998 0.36137 0.0
C127 C 0.87253 0.57818 0.31922 0.0
C128 C 0.85318 0.56844 0.29657 0.0
C129 C 0.83656 0.5506 0.31635 0.0
C130 C 0.84014 0.543 0.35815 0.0
H131 H 0.8901 0.57743 0.37834 0.0
O132 O 0.85843 0.5826 0.50798 0.0
O133 O 0.85095 0.55278 0.47576 0.0
O134 O 0.89275 0.57483 0.50916 0.0
O135 O 0.8882 0.55522 0.44497 0.0
C136 C 0.81656 0.5401 0.29637 0.0
C137 C 0.80052 0.52237 0.31862 0.0
H138 H 0.77352 0.48905 0.37195 0.0
H139 H 0.78285 0.47813 0.44605 0.0
H140 H 0.88543 0.59194 0.30414 0.0
H141 H 0.85129 0.57478 0.26398 0.0
H142 H 0.8133 0.54564 0.26413 0.0
H143 H 0.78515 0.5146 0.30324 0.0
Mn144 Mn 0.30331 0.86132 0.69369 0.0
Mn145 Mn 0.31965 0.85224 0.59086 0.0
C146 C 0.28122 0.84997 0.63011 0.0
C147 C 0.28817 0.84749 0.76653 0.0
C148 C 0.33177 0.89558 0.62547 0.0
O149 O 0.32975 0.86113 0.71145 0.0
O150 O 0.33707 0.85141 0.64266 0.0
C151 C 0.30776 0.80839 0.60762 0.0
N152 N 0.30657 0.82296 0.58098 0.0
C153 C 0.28393 0.79713 0.5256 0.0
C154 C 0.28502 0.78185 0.55229 0.0
C155 C 0.29694 0.78751 0.59355 0.0
C156 C 0.29498 0.81766 0.5415 0.0
H157 H 0.31687 0.81269 0.6394 0.0
C158 C 0.34055 0.85586 0.68629 0.0
O159 O 0.29885 0.86749 0.76018 0.0
O160 O 0.28666 0.83591 0.73136 0.0
N161 N 0.30434 0.85251 0.5372 0.0
C162 C 0.30487 0.86912 0.51558 0.0
C163 C 0.29408 0.86621 0.47331 0.0
C164 C 0.28303 0.84631 0.45349 0.0
C165 C 0.28275 0.82945 0.47626 0.0
C166 C 0.29406 0.83337 0.51793 0.0
H167 H 0.31356 0.88451 0.53028 0.0
O168 O 0.27739 0.85844 0.66551 0.0
O169 O 0.29742 0.84778 0.63378 0.0
O170 O 0.3207 0.89028 0.66291 0.0
O171 O 0.333 0.88257 0.59823 0.0
C172 C 0.27172 0.80894 0.45925 0.0
C173 C 0.27219 0.79276 0.48409 0.0
H174 H 0.27669 0.76573 0.54156 0.0
H175 H 0.29778 0.77579 0.61444 0.0
H176 H 0.29439 0.87929 0.45589 0.0
H177 H 0.27493 0.84418 0.42062 0.0
H178 H 0.26268 0.80542 0.42732 0.0
H179 H 0.26346 0.77702 0.47094 0.0
Mn180 Mn 0.44009 0.30153 0.86049 0.0
Mn181 Mn 0.46296 0.32041 0.75599 0.0
C182 C 0.42853 0.28076 0.79483 0.0
C183 C 0.44077 0.28467 0.92961 0.0
C184 C 0.43188 0.33065 0.8 0.0
O185 O 0.46678 0.32798 0.87798 0.0
O186 O 0.48205 0.3374 0.80709 0.0
C187 C 0.49644 0.31006 0.76349 0.0
N188 N 0.47973 0.30849 0.74023 0.0
C189 C 0.48234 0.28703 0.68062 0.0
C190 C 0.49967 0.28853 0.70378 0.0
C191 C 0.50671 0.30005 0.74545 0.0
C192 C 0.47273 0.29732 0.70031 0.0
H193 H 0.50185 0.31884 0.79562 0.0
C194 C 0.48203 0.33982 0.85156 0.0
O195 O 0.43115 0.29526 0.92834 0.0
O196 O 0.45012 0.28448 0.8917 0.0
N197 N 0.44635 0.30548 0.70315 0.0
C198 C 0.42917 0.30523 0.68569 0.0
C199 C 0.42017 0.29439 0.64403 0.0
C200 C 0.429 0.28408 0.62059 0.0
C201 C 0.44677 0.28468 0.63902 0.0
C202 C 0.45519 0.29592 0.68038 0.0
H203 H 0.4224 0.31325 0.70335 0.0
O204 O 0.41686 0.27593 0.83172 0.0
O205 O 0.44671 0.29726 0.7981 0.0
O206 O 0.42727 0.31894 0.83633 0.0
O207 O 0.44543 0.33269 0.76958 0.0
C208 C 0.45639 0.27448 0.61815 0.0
C209 C 0.47408 0.27555 0.6391 0.0
H210 H 0.50761 0.2808 0.69002 0.0
H211 H 0.52002 0.3012 0.76364 0.0
H212 H 0.40647 0.29402 0.62998 0.0
H213 H 0.422 0.27576 0.58846 0.0
H214 H 0.45021 0.26563 0.58622 0.0
H215 H 0.48118 0.26742 0.62305 0.0
Mn216 Mn 0.56019 0.86006 0.88347 0.0
Mn217 Mn 0.53654 0.85533 0.98724 0.0
C218 C 0.57177 0.85118 0.94958 0.0
C219 C 0.56121 0.84359 0.81448 0.0
C220 C 0.56719 0.89691 0.94403 0.0
O221 O 0.53315 0.85887 0.86496 0.0
O222 O 0.51762 0.85308 0.93552 0.0
C223 C 0.50366 0.8113 0.97865 0.0
N224 N 0.52012 0.82652 0.00239 0.0
C225 C 0.51782 0.80232 0.06146 0.0
C226 C 0.50075 0.78641 0.03781 0.0
C227 C 0.49368 0.79092 0.99618 0.0
C228 C 0.52713 0.82233 0.04233 0.0
H229 H 0.49825 0.81469 0.94653 0.0
C230 C 0.51775 0.85535 0.89096 0.0
O231 O 0.5697 0.8637 0.81621 0.0
O232 O 0.55161 0.83338 0.85167 0.0
N233 N 0.553 0.85709 0.04051 0.0
C234 C 0.56996 0.87409 0.0584 0.0
C235 C 0.579 0.87222 0.1 0.0
C236 C 0.57044 0.85296 0.12292 0.0
C237 C 0.55289 0.83571 0.10405 0.0
C238 C 0.54441 0.83857 0.06278 0.0
H239 H 0.57656 0.88897 0.04106 0.0
O240 O 0.58371 0.85853 0.91317 0.0
O241 O 0.55337 0.84893 0.94565 0.0
O242 O 0.57204 0.89003 0.90785 0.0
O243 O 0.55368 0.88531 0.97439 0.0
C244 C 0.54357 0.81577 0.12434 0.0
C245 C 0.52611 0.79906 0.10293 0.0
H246 H 0.49304 0.77066 0.05114 0.0
H247 H 0.48058 0.7787 0.9776 0.0
H248 H 0.59254 0.8856 0.11436 0.0
H249 H 0.57749 0.85159 0.15495 0.0
H250 H 0.54981 0.81306 0.15617 0.0
H251 H 0.51924 0.78375 0.11854 0.0
Mn252 Mn 0.69935 0.55858 0.04748 0.0
Mn253 Mn 0.67988 0.53422 0.1504 0.0
C254 C 0.72025 0.56829 0.11301 0.0
C255 C 0.71515 0.55886 0.97641 0.0
C256 C 0.67106 0.56687 0.1101 0.0
O257 O 0.67218 0.53279 0.02882 0.0
O258 O 0.66293 0.51605 0.09818 0.0
C259 C 0.68943 0.50027 0.14028 0.0
N260 N 0.69122 0.5168 0.16476 0.0
C261 C 0.71189 0.51273 0.22419 0.0
C262 C 0.71016 0.49558 0.19976 0.0
C263 C 0.69893 0.48937 0.15756 0.0
C264 C 0.70214 0.52301 0.20518 0.0
H265 H 0.68084 0.49549 0.10778 0.0
C266 C 0.66033 0.51703 0.05404 0.0
O267 O 0.70528 0.56908 0.98109 0.0
O268 O 0.71536 0.5483 0.01224 0.0
N269 N 0.69478 0.54997 0.20423 0.0
C270 C 0.69527 0.56704 0.22303 0.0
C271 C 0.70579 0.5752 0.26545 0.0
C272 C 0.71554 0.56563 0.28831 0.0
C273 C 0.71473 0.548 0.26846 0.0
C274 C 0.70381 0.54043 0.22639 0.0
H275 H 0.68764 0.57436 0.20589 0.0
O276 O 0.7255 0.58058 0.0771 0.0
O277 O 0.70332 0.55051 0.10879 0.0
O278 O 0.68322 0.57208 0.07464 0.0
O279 O 0.668 0.55233 0.13862 0.0
C280 C 0.72439 0.53769 0.28864 0.0
C281 C 0.72309 0.52015 0.26636 0.0
H282 H 0.71749 0.48714 0.21295 0.0
H283 H 0.6976 0.4762 0.13841 0.0
H284 H 0.70633 0.58879 0.28059 0.0
H285 H 0.72355 0.57194 0.32111 0.0
H286 H 0.73302 0.54323 0.32108 0.0
H287 H 0.7308 0.51251 0.28192 0.0
Mn288 Mn 0.1395 0.70224 0.2071 0.0
Mn289 Mn 0.14357 0.68348 0.31184 0.0
C290 C 0.15018 0.72357 0.27201 0.0
C291 C 0.15569 0.71773 0.13613 0.0
C292 C 0.10243 0.67436 0.26908 0.0
O293 O 0.13832 0.67495 0.19032 0.0
O294 O 0.14512 0.66616 0.26102 0.0
C295 C 0.18711 0.69292 0.30406 0.0
N296 N 0.17222 0.69488 0.3274 0.0
C297 C 0.19648 0.71575 0.38732 0.0
C298 C 0.21207 0.71386 0.36407 0.0
C299 C 0.20737 0.70245 0.32219 0.0
C300 C 0.17661 0.70598 0.36747 0.0
H301 H 0.18355 0.68419 0.27182 0.0
C302 C 0.14194 0.66324 0.21684 0.0
O303 O 0.13557 0.70785 0.13993 0.0
O304 O 0.16611 0.71809 0.17276 0.0
N305 N 0.14237 0.69875 0.36451 0.0
C306 C 0.12566 0.69938 0.3821 0.0
C307 C 0.12768 0.71005 0.42411 0.0
C308 C 0.14679 0.71979 0.44781 0.0
C309 C 0.16374 0.71886 0.42917 0.0
C310 C 0.16073 0.70781 0.38744 0.0
H311 H 0.11087 0.69172 0.36435 0.0
O312 O 0.14341 0.72858 0.23524 0.0
O313 O 0.15104 0.70661 0.26901 0.0
O314 O 0.10963 0.68624 0.23319 0.0
O315 O 0.1137 0.67155 0.29875 0.0
C316 C 0.18352 0.7285 0.45026 0.0
C317 C 0.19992 0.72708 0.42916 0.0
H318 H 0.22771 0.72119 0.37793 0.0
H319 H 0.21933 0.701 0.30394 0.0
H320 H 0.11452 0.71068 0.43831 0.0
H321 H 0.14822 0.72789 0.48033 0.0
H322 H 0.18635 0.73719 0.4825 0.0
H323 H 0.21513 0.73479 0.44537 0.0
Mn324 Mn 0.44257 0.1409 0.38022 0.0
Mn325 Mn 0.46611 0.14736 0.48477 0.0
C326 C 0.4307 0.1506 0.44456 0.0
C327 C 0.44262 0.15712 0.30949 0.0
C328 C 0.43575 0.10496 0.44408 0.0
O329 O 0.46957 0.1417 0.36348 0.0
O330 O 0.48529 0.1493 0.43397 0.0
C331 C 0.49851 0.19146 0.47387 0.0
N332 N 0.48217 0.17636 0.49819 0.0
C333 C 0.48417 0.201 0.55555 0.0
C334 C 0.50111 0.21681 0.53129 0.0
C335 C 0.50827 0.21202 0.49021 0.0
C336 C 0.47505 0.18082 0.53754 0.0
H337 H 0.504 0.18785 0.44218 0.0
C338 C 0.48511 0.14607 0.3898 0.0
O339 O 0.4334 0.13696 0.31236 0.0
O340 O 0.45185 0.16737 0.34681 0.0
N341 N 0.44948 0.14594 0.53737 0.0
C342 C 0.43275 0.12897 0.55613 0.0
C343 C 0.42375 0.13107 0.59751 0.0
C344 C 0.43213 0.15053 0.61935 0.0
C345 C 0.44943 0.16776 0.59957 0.0
C346 C 0.45789 0.16466 0.55861 0.0
H347 H 0.42635 0.11393 0.53974 0.0
O348 O 0.41897 0.14291 0.40799 0.0
O349 O 0.44912 0.15282 0.44167 0.0
O350 O 0.43065 0.11114 0.40695 0.0
O351 O 0.44928 0.11728 0.47358 0.0
C352 C 0.45854 0.18788 0.61874 0.0
C353 C 0.47582 0.20452 0.59659 0.0
H354 H 0.50866 0.23268 0.54373 0.0
H355 H 0.52127 0.22415 0.47117 0.0
H356 H 0.41042 0.1177 0.6126 0.0
H357 H 0.42517 0.15205 0.65134 0.0
H358 H 0.45228 0.19077 0.65027 0.0
H359 H 0.48253 0.21996 0.61133 0.0
Mn360 Mn 0.30074 0.44051 0.54107 0.0
Mn361 Mn 0.31524 0.46646 0.64367 0.0
C362 C 0.27719 0.43082 0.60166 0.0
C363 C 0.28747 0.43899 0.46586 0.0
C364 C 0.32641 0.43373 0.61581 0.0
O365 O 0.328 0.46653 0.52468 0.0
O366 O 0.33458 0.48367 0.59316 0.0
C367 C 0.30617 0.49981 0.61924 0.0
N368 N 0.30339 0.48402 0.6481 0.0
C369 C 0.28056 0.48952 0.69822 0.0
C370 C 0.28329 0.50593 0.6692 0.0
C371 C 0.29609 0.51105 0.62945 0.0
C372 C 0.29092 0.47882 0.68611 0.0
H373 H 0.31598 0.50376 0.58863 0.0
C374 C 0.33885 0.48243 0.55022 0.0
O375 O 0.29751 0.42927 0.4754 0.0
O376 O 0.28557 0.44962 0.49925 0.0
N377 N 0.29813 0.45201 0.69634 0.0
C378 C 0.2971 0.43573 0.72061 0.0
C379 C 0.28529 0.42894 0.76192 0.0
C380 C 0.27484 0.43907 0.77808 0.0
C381 C 0.27614 0.4558 0.75261 0.0
C382 C 0.28841 0.46209 0.71209 0.0
H383 H 0.30534 0.42807 0.70875 0.0
O384 O 0.2739 0.41819 0.56727 0.0
O385 O 0.2938 0.44897 0.59878 0.0
O386 O 0.31673 0.42844 0.57646 0.0
O387 O 0.32724 0.44813 0.64184 0.0
C388 C 0.26577 0.4665 0.76584 0.0
C389 C 0.26786 0.48326 0.73847 0.0
H390 H 0.27555 0.51465 0.67698 0.0
H391 H 0.2982 0.52364 0.60678 0.0
H392 H 0.28436 0.41601 0.78144 0.0
H393 H 0.26597 0.43395 0.81027 0.0
H394 H 0.25601 0.46186 0.79677 0.0
H395 H 0.25964 0.49123 0.74871 0.0
Mn396 Mn 0.86179 0.30092 0.71528 0.0
Mn397 Mn 0.8577 0.31915 0.82049 0.0
C398 C 0.85194 0.27954 0.78003 0.0
C399 C 0.84506 0.28489 0.64515 0.0
C400 C 0.89894 0.32925 0.7766 0.0
O401 O 0.86202 0.32773 0.69889 0.0
O402 O 0.85589 0.33662 0.77012 0.0
C403 C 0.81401 0.30926 0.81319 0.0
N404 N 0.82901 0.30733 0.83615 0.0
C405 C 0.80473 0.28551 0.89512 0.0
C406 C 0.78904 0.28736 0.87228 0.0
C407 C 0.7937 0.29925 0.83107 0.0
C408 C 0.82467 0.29582 0.87563 0.0
H409 H 0.81752 0.31832 0.78142 0.0
C410 C 0.8586 0.33943 0.72577 0.0
O411 O 0.86523 0.29546 0.64761 0.0
O412 O 0.835 0.28436 0.68252 0.0
N413 N 0.85911 0.30366 0.8726 0.0
C414 C 0.87589 0.30301 0.88965 0.0
C415 C 0.87386 0.29173 0.93075 0.0
C416 C 0.85467 0.28139 0.95405 0.0
C417 C 0.83766 0.2824 0.93601 0.0
C418 C 0.84067 0.29406 0.89522 0.0
H419 H 0.89071 0.31104 0.87208 0.0
O420 O 0.8589 0.27492 0.74303 0.0
O421 O 0.85056 0.29624 0.77741 0.0
O422 O 0.89179 0.31767 0.74026 0.0
O423 O 0.88759 0.33144 0.80715 0.0
C424 C 0.8178 0.27218 0.95672 0.0
C425 C 0.80131 0.27363 0.93613 0.0
H426 H 0.77334 0.27963 0.8859 0.0
H427 H 0.78165 0.30067 0.81312 0.0
H428 H 0.88706 0.29103 0.94447 0.0
H429 H 0.85319 0.27272 0.98573 0.0
H430 H 0.81497 0.26301 0.98823 0.0
H431 H 0.78605 0.26548 0.95202 0.0
C432 C 0.19019 0.45895 0.14837 0.0
C433 C 0.17011 0.44243 0.13961 0.0
C434 C 0.20272 0.45724 0.18251 0.0
C435 C 0.20246 0.42452 0.28294 0.0
H436 H 0.26174 0.45442 0.25888 0.0
C437 C 0.26359 0.41833 0.40038 0.0
C438 C 0.27753 0.43765 0.42024 0.0
C439 C 0.2508 0.41714 0.36286 0.0
C440 C 0.24521 0.4459 0.26587 0.0
H441 H 0.1472 0.41123 0.16029 0.0
H442 H 0.16932 0.40781 0.2189 0.0
H443 H 0.23812 0.4556 0.20147 0.0
H444 H 0.28976 0.47081 0.41563 0.0
H445 H 0.26832 0.46882 0.34861 0.0
H446 H 0.20989 0.41449 0.34711 0.0
C447 C 0.1753 0.42239 0.20034 0.0
C448 C 0.23161 0.44676 0.23328 0.0
C449 C 0.16255 0.42431 0.16672 0.0
C450 C 0.2793 0.45576 0.4005 0.0
C451 C 0.267 0.45462 0.36233 0.0
C452 C 0.2161 0.42333 0.31512 0.0
C453 C 0.19576 0.43872 0.2081 0.0
C454 C 0.21004 0.43651 0.24177 0.0
C455 C 0.25222 0.43529 0.34398 0.0
C456 C 0.23762 0.43433 0.30726 0.0
H457 H 0.19637 0.47319 0.12824 0.0
H458 H 0.21801 0.47049 0.18836 0.0
H459 H 0.18607 0.41656 0.29122 0.0
H460 H 0.26169 0.40414 0.41563 0.0
H461 H 0.23952 0.40206 0.34923 0.0
C462 C 0.81174 0.26276 0.60317 0.0
C463 C 0.83354 0.27264 0.60344 0.0
C464 C 0.80024 0.24951 0.5667 0.0
C465 C 0.80317 0.23577 0.44412 0.0
H466 H 0.75185 0.18569 0.47631 0.0
C467 C 0.7403 0.18997 0.30661 0.0
C468 C 0.72976 0.16815 0.30781 0.0
C469 C 0.75366 0.20163 0.34279 0.0
C470 C 0.76623 0.19946 0.46669 0.0
H471 H 0.86039 0.27672 0.56479 0.0
H472 H 0.84018 0.25345 0.50043 0.0
H473 H 0.77444 0.20816 0.53838 0.0
H474 H 0.72476 0.14145 0.34859 0.0
H475 H 0.74822 0.16194 0.4124 0.0
H476 H 0.79497 0.22704 0.3724 0.0
C477 C 0.83204 0.25607 0.52871 0.0
C478 C 0.77909 0.21249 0.50226 0.0
C479 C 0.84363 0.2694 0.56549 0.0
C480 C 0.73258 0.15823 0.34674 0.0
C481 C 0.74602 0.16997 0.38323 0.0
C482 C 0.79029 0.22276 0.40852 0.0
C483 C 0.81017 0.2457 0.52934 0.0
C484 C 0.79752 0.23101 0.49142 0.0
C485 C 0.75692 0.19184 0.38133 0.0
C486 C 0.77146 0.20464 0.41934 0.0
H487 H 0.80342 0.26499 0.63164 0.0
H488 H 0.78349 0.24223 0.5678 0.0
H489 H 0.8172 0.24991 0.43449 0.0
H490 H 0.73842 0.19817 0.27733 0.0
H491 H 0.76138 0.2184 0.34063 0.0
C492 C 0.5669 0.72626 0.51915 0.0
C493 C 0.56261 0.72983 0.47326 0.0
C494 C 0.56787 0.73929 0.55591 0.0
C495 C 0.55295 0.77943 0.58418 0.0
H496 H 0.58953 0.79064 0.69041 0.0
C497 C 0.56717 0.84069 0.72834 0.0
C498 C 0.56326 0.83237 0.77387 0.0
C499 C 0.56836 0.82921 0.6906 0.0
C500 C 0.57929 0.78766 0.6608 0.0
H501 H 0.55688 0.75033 0.42952 0.0
H502 H 0.55951 0.77332 0.49226 0.0
H503 H 0.58908 0.76828 0.62721 0.0
H504 H 0.55824 0.80587 0.81581 0.0
H505 H 0.56085 0.78628 0.75049 0.0
H506 H 0.54357 0.79925 0.61763 0.0
C507 C 0.56121 0.76007 0.50092 0.0
C508 C 0.57886 0.77468 0.62475 0.0
C509 C 0.55984 0.7469 0.46467 0.0
C510 C 0.56111 0.81267 0.78108 0.0
C511 C 0.56276 0.80148 0.74377 0.0
C512 C 0.55369 0.7927 0.61976 0.0
C513 C 0.56494 0.75636 0.54727 0.0
C514 C 0.56558 0.77026 0.58597 0.0
C515 C 0.56621 0.80951 0.69811 0.0
C516 C 0.56674 0.79682 0.65859 0.0
H517 H 0.5691 0.71322 0.52676 0.0
H518 H 0.57055 0.73573 0.59113 0.0
H519 H 0.54211 0.77609 0.55569 0.0
H520 H 0.56889 0.85582 0.72182 0.0
H521 H 0.57105 0.83573 0.65562 0.0
C522 C 0.81815 0.54285 0.66425 0.0
C523 C 0.83656 0.56077 0.65114 0.0
C524 C 0.80563 0.54355 0.69979 0.0
C525 C 0.80325 0.57707 0.79512 0.0
H526 H 0.74408 0.53978 0.77967 0.0
C527 C 0.73774 0.57822 0.90776 0.0
C528 C 0.72672 0.55974 0.93356 0.0
C529 C 0.75112 0.57963 0.87143 0.0
C530 C 0.76056 0.55034 0.78422 0.0
H531 H 0.85664 0.59345 0.66547 0.0
H532 H 0.83434 0.59505 0.72644 0.0
H533 H 0.7681 0.54002 0.72147 0.0
H534 H 0.72035 0.52808 0.94065 0.0
H535 H 0.74287 0.53025 0.87581 0.0
H536 H 0.79523 0.58773 0.85747 0.0
C537 C 0.82978 0.5802 0.71034 0.0
C538 C 0.77444 0.55033 0.75124 0.0
C539 C 0.84262 0.57934 0.67539 0.0
C540 C 0.72862 0.54249 0.9212 0.0
C541 C 0.74149 0.54372 0.88422 0.0
C542 C 0.78927 0.57738 0.82763 0.0
C543 C 0.81081 0.56239 0.72229 0.0
C544 C 0.79606 0.56336 0.75663 0.0
C545 C 0.75318 0.5624 0.85965 0.0
C546 C 0.76784 0.56377 0.8228 0.0
H547 H 0.8132 0.52829 0.64625 0.0
H548 H 0.79165 0.52929 0.70894 0.0
H549 H 0.8197 0.58721 0.80098 0.0
H550 H 0.73673 0.59181 0.917 0.0
H551 H 0.75997 0.59418 0.8528 0.0
C552 C 0.26379 0.8433 0.83185 0.0
C553 C 0.27723 0.83764 0.81054 0.0
C554 C 0.25005 0.83079 0.86722 0.0
C555 C 0.22636 0.77639 0.91362 0.0
H556 H 0.20627 0.7972 0.0132 0.0
C557 C 0.18617 0.73126 0.08267 0.0
C558 C 0.1668 0.72918 0.09342 0.0
C559 C 0.19815 0.74401 0.04582 0.0
C560 C 0.21163 0.79121 0.98521 0.0
H561 H 0.28795 0.81545 0.81118 0.0
H562 H 0.26537 0.79462 0.87472 0.0
H563 H 0.23157 0.82151 0.95684 0.0
H564 H 0.14469 0.73878 0.07409 0.0
H565 H 0.16611 0.76178 0.01007 0.0
H566 H 0.20715 0.74624 0.9437 0.0
C567 C 0.26441 0.80796 0.86301 0.0
C568 C 0.22612 0.80511 0.95279 0.0
C569 C 0.27767 0.82011 0.82705 0.0
C570 C 0.15947 0.73992 0.06612 0.0
C571 C 0.17176 0.75318 0.0299 0.0
C572 C 0.21227 0.76264 0.94652 0.0
C573 C 0.24978 0.81259 0.88244 0.0
C574 C 0.2339 0.79793 0.91673 0.0
C575 C 0.19127 0.75541 0.01968 0.0
C576 C 0.20486 0.7699 0.98276 0.0
H577 H 0.26295 0.85659 0.81913 0.0
H578 H 0.23903 0.83492 0.88091 0.0
H579 H 0.23129 0.77001 0.88566 0.0
H580 H 0.19223 0.72322 0.10327 0.0
H581 H 0.21315 0.7455 0.03871 0.0
C582 C 0.45616 0.19012 0.26488 0.0
C583 C 0.44238 0.16859 0.26711 0.0
C584 C 0.45537 0.20192 0.22784 0.0
C585 C 0.4212 0.20341 0.13658 0.0
H586 H 0.47321 0.24697 0.08563 0.0
C587 C 0.42721 0.26799 0.00895 0.0
C588 C 0.44076 0.27243 0.97078 0.0
C589 C 0.42666 0.25498 0.04546 0.0
C590 C 0.45851 0.23484 0.09924 0.0
H591 H 0.41701 0.14252 0.23164 0.0
H592 H 0.41566 0.16334 0.16595 0.0
H593 H 0.47356 0.22376 0.14511 0.0
H594 H 0.46448 0.26687 0.94143 0.0
H595 H 0.46351 0.24453 0.00424 0.0
H596 H 0.40621 0.21453 0.08986 0.0
C597 C 0.42702 0.171 0.19345 0.0
C598 C 0.45872 0.22159 0.13364 0.0
C599 C 0.42791 0.15905 0.23072 0.0
C600 C 0.45388 0.26388 0.97029 0.0
C601 C 0.4534 0.25108 0.00654 0.0
C602 C 0.42099 0.21678 0.10203 0.0
C603 C 0.44075 0.19261 0.19173 0.0
C604 C 0.4401 0.20575 0.15296 0.0
C605 C 0.43979 0.24638 0.04458 0.0
C606 C 0.43967 0.23263 0.08287 0.0
H607 H 0.4675 0.19803 0.2923 0.0
H608 H 0.46599 0.21852 0.2281 0.0
H609 H 0.4066 0.1915 0.15107 0.0
H610 H 0.41682 0.27423 0.01019 0.0
H611 H 0.4161 0.25177 0.07449 0.0
C612 C 0.1455 0.51933 0.01628 0.0
C613 C 0.14424 0.50335 0.04508 0.0
C614 C 0.14562 0.53658 0.03561 0.0
C615 C 0.13168 0.55484 0.14255 0.0
H616 H 0.1661 0.60902 0.08609 0.0
C617 C 0.14325 0.63045 0.22611 0.0
C618 C 0.14232 0.64509 0.19638 0.0
C619 C 0.14349 0.61321 0.2077 0.0
C620 C 0.15624 0.59396 0.1019 0.0
H621 H 0.1423 0.49323 0.11717 0.0
H622 H 0.14288 0.52369 0.15115 0.0
H623 H 0.16729 0.57903 0.05558 0.0
H624 H 0.141 0.653 0.12372 0.0
H625 H 0.14151 0.62277 0.09148 0.0
H626 H 0.12085 0.56992 0.18922 0.0
C627 C 0.14344 0.5226 0.11338 0.0
C628 C 0.15691 0.57675 0.08447 0.0
C629 C 0.14322 0.50519 0.09394 0.0
C630 C 0.14171 0.64205 0.14763 0.0
C631 C 0.1421 0.6248 0.12916 0.0
C632 C 0.13112 0.57209 0.16016 0.0
C633 C 0.14462 0.5385 0.08437 0.0
C634 C 0.14455 0.55694 0.10438 0.0
C635 C 0.14292 0.61017 0.15908 0.0
C636 C 0.14334 0.59182 0.13992 0.0
H637 H 0.14616 0.51848 0.97846 0.0
H638 H 0.14612 0.54827 0.01211 0.0
H639 H 0.1217 0.5398 0.15825 0.0
H640 H 0.14374 0.63221 0.26386 0.0
H641 H 0.14439 0.60237 0.23163 0.0
C642 C 0.6289 0.14439 0.18307 0.0
C643 C 0.6439 0.14358 0.21171 0.0
C644 C 0.61207 0.14503 0.20278 0.0
C645 C 0.5943 0.1587 0.30986 0.0
H646 H 0.53947 0.12328 0.25772 0.0
C647 C 0.52003 0.14895 0.3978 0.0
C648 C 0.50382 0.14699 0.36886 0.0
C649 C 0.53734 0.14903 0.37863 0.0
C650 C 0.5547 0.13351 0.27228 0.0
H651 H 0.65297 0.14308 0.28381 0.0
H652 H 0.62349 0.1443 0.31826 0.0
H653 H 0.56923 0.12232 0.22501 0.0
H654 H 0.49343 0.14405 0.29672 0.0
H655 H 0.52386 0.14462 0.2632 0.0
H656 H 0.57985 0.17009 0.35679 0.0
C657 C 0.6249 0.14446 0.28044 0.0
C658 C 0.57174 0.13289 0.25363 0.0
C659 C 0.64172 0.14366 0.26069 0.0
C660 C 0.50554 0.14545 0.32012 0.0
C661 C 0.52295 0.14565 0.3009 0.0
C662 C 0.57726 0.15942 0.32835 0.0
C663 C 0.60983 0.14502 0.25164 0.0
C664 C 0.59173 0.14548 0.27218 0.0
C665 C 0.539 0.14729 0.32997 0.0
C666 C 0.55723 0.14682 0.30981 0.0
H667 H 0.63003 0.14439 0.14521 0.0
H668 H 0.60088 0.14573 0.17967 0.0
H669 H 0.60955 0.16878 0.32448 0.0
H670 H 0.51925 0.15008 0.43552 0.0
H671 H 0.54922 0.15001 0.40217 0.0
C672 C 0.36121 0.50213 0.48126 0.0
C673 C 0.35744 0.50053 0.5298 0.0
C674 C 0.37869 0.51947 0.46252 0.0
C675 C 0.41829 0.57393 0.49119 0.0
H676 H 0.44845 0.56735 0.38807 0.0
C677 C 0.49801 0.64012 0.42599 0.0
C678 C 0.50048 0.64267 0.3771 0.0
C679 C 0.48056 0.62289 0.44511 0.0
C680 C 0.44009 0.56945 0.41666 0.0
H681 H 0.36939 0.51582 0.59674 0.0
H682 H 0.39988 0.54559 0.5643 0.0
H683 H 0.41799 0.53696 0.41995 0.0
H684 H 0.48632 0.62901 0.31009 0.0
H685 H 0.45611 0.59914 0.34347 0.0
H686 H 0.44061 0.60641 0.48813 0.0
C687 C 0.38914 0.53377 0.54047 0.0
C688 C 0.42258 0.55204 0.43484 0.0
C689 C 0.37165 0.51657 0.55912 0.0
C690 C 0.48503 0.62762 0.3479 0.0
C691 C 0.46773 0.61037 0.36698 0.0
C692 C 0.43588 0.5913 0.47322 0.0
C693 C 0.39285 0.53552 0.49193 0.0
C694 C 0.41143 0.55405 0.4723 0.0
C695 C 0.46532 0.60776 0.41575 0.0
C696 C 0.44692 0.58926 0.43566 0.0
H697 H 0.35055 0.49013 0.45763 0.0
H698 H 0.38091 0.52042 0.42489 0.0
H699 H 0.4099 0.57614 0.5195 0.0
H700 H 0.50958 0.65139 0.44953 0.0
H701 H 0.47917 0.62121 0.48287 0.0
C702 C 0.86148 0.49927 0.59991 0.0
C703 C 0.86084 0.50123 0.55099 0.0
C704 C 0.86086 0.48171 0.61964 0.0
C705 C 0.84637 0.42733 0.59113 0.0
H706 H 0.88064 0.43284 0.69864 0.0
C707 C 0.85907 0.36076 0.65661 0.0
C708 C 0.8581 0.35755 0.70536 0.0
C709 C 0.85902 0.37816 0.63799 0.0
C710 C 0.87085 0.43104 0.66885 0.0
H711 H 0.85942 0.48631 0.48451 0.0
H712 H 0.85879 0.45619 0.5187 0.0
H713 H 0.88126 0.46356 0.66653 0.0
H714 H 0.85618 0.37019 0.77267 0.0
H715 H 0.85611 0.40035 0.74014 0.0
H716 H 0.8362 0.39484 0.59314 0.0
C717 C 0.85926 0.4679 0.542 0.0
C718 C 0.87115 0.44863 0.65053 0.0
C719 C 0.85976 0.48532 0.52236 0.0
C720 C 0.85698 0.3721 0.73494 0.0
C721 C 0.85707 0.38951 0.71637 0.0
C722 C 0.84618 0.40978 0.60927 0.0
C723 C 0.85967 0.46578 0.59086 0.0
C724 C 0.85896 0.44701 0.61134 0.0
C725 C 0.85815 0.39278 0.66773 0.0
C726 C 0.85843 0.41144 0.64828 0.0
H727 H 0.86223 0.51118 0.62301 0.0
H728 H 0.86099 0.48048 0.65745 0.0
H729 H 0.83648 0.42543 0.56147 0.0
H730 H 0.85994 0.34989 0.63278 0.0
H731 H 0.86001 0.38035 0.60034 0.0
C732 C 0.37245 0.8527 0.67962 0.0
C733 C 0.35828 0.85505 0.70798 0.0
C734 C 0.38942 0.85231 0.69941 0.0
C735 C 0.40855 0.84193 0.80886 0.0
H736 H 0.46271 0.87459 0.75125 0.0
C737 C 0.48327 0.85352 0.8975 0.0
C738 C 0.49909 0.85423 0.86913 0.0
C739 C 0.46593 0.85309 0.87749 0.0
C740 C 0.44766 0.86512 0.76739 0.0
H741 H 0.35081 0.85858 0.7797 0.0
H742 H 0.38049 0.85778 0.81429 0.0
H743 H 0.43277 0.87495 0.71759 0.0
H744 H 0.50878 0.85466 0.79721 0.0
H745 H 0.47827 0.85347 0.76225 0.0
H746 H 0.4233 0.83186 0.8583 0.0
C747 C 0.37835 0.85622 0.77665 0.0
C748 C 0.43052 0.8654 0.74818 0.0
C749 C 0.36142 0.85679 0.75679 0.0
C750 C 0.49697 0.85424 0.82014 0.0
C751 C 0.47952 0.85368 0.80009 0.0
C752 C 0.42566 0.84152 0.82788 0.0
C753 C 0.39259 0.85411 0.74809 0.0
C754 C 0.41079 0.85385 0.76877 0.0
C755 C 0.46382 0.85321 0.82855 0.0
C756 C 0.44547 0.85317 0.8075 0.0
H757 H 0.37058 0.8513 0.6419 0.0
H758 H 0.39998 0.85041 0.67656 0.0
H759 H 0.39348 0.83264 0.82509 0.0
H760 H 0.48437 0.85361 0.93537 0.0
H761 H 0.45438 0.8531 0.90056 0.0
C762 C 0.51644 0.37248 0.84381 0.0
C763 C 0.50067 0.35762 0.87273 0.0
C764 C 0.53381 0.38957 0.86317 0.0
C765 C 0.55231 0.42083 0.97174 0.0
H766 H 0.60652 0.44136 0.91505 0.0
C767 C 0.62763 0.48263 0.06011 0.0
C768 C 0.64238 0.49886 0.03192 0.0
C769 C 0.61049 0.46557 0.04006 0.0
C770 C 0.59145 0.43593 0.93094 0.0
H771 H 0.49107 0.34901 0.94498 0.0
H772 H 0.52162 0.37866 0.97883 0.0
H773 H 0.57648 0.41081 0.88236 0.0
H774 H 0.65067 0.50964 0.96022 0.0
H775 H 0.62064 0.47965 0.92514 0.0
H776 H 0.56739 0.44582 0.02069 0.0
C777 C 0.52032 0.37727 0.94103 0.0
C778 C 0.57421 0.41843 0.91224 0.0
C779 C 0.50284 0.36019 0.92163 0.0
C780 C 0.63962 0.49746 0.98299 0.0
C781 C 0.62248 0.48025 0.96287 0.0
C782 C 0.56956 0.43824 0.99059 0.0
C783 C 0.53598 0.39222 0.91201 0.0
C784 C 0.55441 0.41066 0.93238 0.0
C785 C 0.60768 0.46419 0.99128 0.0
C786 C 0.58932 0.44597 0.97043 0.0
H787 H 0.5153 0.37112 0.80599 0.0
H788 H 0.54535 0.40091 0.8397 0.0
H789 H 0.53726 0.41555 0.98762 0.0
H790 H 0.62919 0.48308 0.09791 0.0
H791 H 0.59952 0.45332 0.06283 0.0
C792 C 0.25301 0.40779 0.66329 0.0
C793 C 0.26077 0.42583 0.63598 0.0
C794 C 0.23734 0.40318 0.69608 0.0
C795 C 0.1964 0.41483 0.72951 0.0
H796 H 0.21086 0.40963 0.85753 0.0
C797 C 0.1815 0.44097 0.91462 0.0
C798 C 0.1603 0.42805 0.92365 0.0
C799 C 0.19107 0.43601 0.87896 0.0
C800 C 0.20649 0.41071 0.82184 0.0
H801 H 0.25718 0.45204 0.61724 0.0
H802 H 0.22975 0.44407 0.67455 0.0
H803 H 0.23146 0.40796 0.79264 0.0
H804 H 0.13254 0.39945 0.90501 0.0
H805 H 0.14923 0.39118 0.84045 0.0
H806 H 0.17121 0.41723 0.75897 0.0
C807 C 0.23589 0.43364 0.67136 0.0
C808 C 0.21827 0.40985 0.78481 0.0
C809 C 0.25175 0.43839 0.63918 0.0
C810 C 0.14885 0.40977 0.89768 0.0
C811 C 0.15833 0.40504 0.86116 0.0
C812 C 0.18421 0.41501 0.76649 0.0
C813 C 0.22882 0.41621 0.70072 0.0
C814 C 0.21389 0.41285 0.73851 0.0
C815 C 0.17951 0.41813 0.8518 0.0
C816 C 0.1897 0.41379 0.81288 0.0
H817 H 0.25952 0.39766 0.66024 0.0
H818 H 0.23204 0.38959 0.71813 0.0
H819 H 0.19254 0.41689 0.69402 0.0
H820 H 0.19064 0.45487 0.93519 0.0
H821 H 0.20741 0.44634 0.87198 0.0
C822 C 0.74334 0.14792 0.06861 0.0
C823 C 0.73563 0.15858 0.09468 0.0
C824 C 0.75845 0.1584 0.03424 0.0
C825 C 0.77648 0.18537 0.943 0.0
H826 H 0.82787 0.23543 0.97435 0.0
C827 C 0.81965 0.25548 0.82163 0.0
C828 C 0.84105 0.26369 0.81585 0.0
C829 C 0.80874 0.23973 0.85412 0.0
C830 C 0.8137 0.22137 0.96521 0.0
H831 H 0.73846 0.18847 0.1088 0.0
H832 H 0.76523 0.20693 0.04936 0.0
H833 H 0.80506 0.21329 0.03713 0.0
H834 H 0.86781 0.26142 0.8367 0.0
H835 H 0.84874 0.23424 0.89585 0.0
H836 H 0.78426 0.19438 0.87115 0.0
C837 C 0.75929 0.19048 0.05459 0.0
C838 C 0.80071 0.20877 0.00096 0.0
C839 C 0.7439 0.17994 0.08805 0.0
C840 C 0.85135 0.25549 0.84163 0.0
C841 C 0.8405 0.24 0.87504 0.0
C842 C 0.78917 0.1983 0.90727 0.0
C843 C 0.76653 0.17976 0.02721 0.0
C844 C 0.78179 0.19097 0.99003 0.0
C845 C 0.81912 0.23204 0.8814 0.0
C846 C 0.80761 0.21664 0.91823 0.0
H847 H 0.73736 0.13149 0.07418 0.0
H848 H 0.76388 0.14992 0.01332 0.0
H849 H 0.76195 0.17168 0.93395 0.0
H850 H 0.8114 0.2613 0.80104 0.0
H851 H 0.79229 0.23393 0.85885 0.0
C852 C 0.59619 0.74317 0.237 0.0
C853 C 0.57777 0.73512 0.26298 0.0
C854 C 0.60079 0.75857 0.20335 0.0
C855 C 0.59232 0.77718 0.11313 0.0
H856 H 0.591 0.82719 0.14522 0.0
C857 C 0.56415 0.81906 0.99116 0.0
C858 C 0.57685 0.84056 0.98586 0.0
C859 C 0.56918 0.8084 0.02393 0.0
C860 C 0.59166 0.81343 0.13591 0.0
H861 H 0.55058 0.73764 0.2778 0.0
H862 H 0.55877 0.76484 0.21961 0.0
H863 H 0.59076 0.80442 0.20765 0.0
H864 H 0.60521 0.86779 0.00792 0.0
H865 H 0.61362 0.84912 0.06756 0.0
H866 H 0.59147 0.7853 0.04135 0.0
C867 C 0.5694 0.759 0.22436 0.0
C868 C 0.5915 0.80046 0.17144 0.0
C869 C 0.5646 0.74335 0.25708 0.0
C870 C 0.59504 0.85124 0.01248 0.0
C871 C 0.59986 0.84062 0.04616 0.0
C872 C 0.5919 0.78986 0.07758 0.0
C873 C 0.5874 0.76658 0.19697 0.0
C874 C 0.59131 0.78199 0.16021 0.0
C875 C 0.58694 0.81912 0.05196 0.0
C876 C 0.59105 0.80779 0.0888 0.0
H877 H 0.60671 0.73723 0.24201 0.0
H878 H 0.61474 0.76426 0.18244 0.0
H879 H 0.59216 0.763 0.10381 0.0
H880 H 0.55033 0.81052 0.96994 0.0
H881 H 0.55891 0.79184 0.02822 0.0
C882 C 0.81884 0.56085 0.42998 0.0
C883 C 0.84018 0.57446 0.43533 0.0
C884 C 0.80768 0.56482 0.39635 0.0
C885 C 0.81226 0.58653 0.28297 0.0
H886 H 0.76042 0.58464 0.31214 0.0
C887 C 0.7429 0.59066 0.17754 0.0
C888 C 0.73535 0.57263 0.15033 0.0
C889 C 0.75766 0.59478 0.21245 0.0
C890 C 0.77492 0.58534 0.30364 0.0
H891 H 0.86656 0.60338 0.41253 0.0
H892 H 0.84707 0.60995 0.35157 0.0
H893 H 0.78247 0.58457 0.37589 0.0
H894 H 0.73819 0.54569 0.13474 0.0
H895 H 0.76439 0.55312 0.19518 0.0
H896 H 0.80393 0.58568 0.2107 0.0
C897 C 0.83906 0.59628 0.3735 0.0
C898 C 0.78748 0.5853 0.33993 0.0
C899 C 0.85015 0.59252 0.40798 0.0
C900 C 0.7435 0.5594 0.15635 0.0
C901 C 0.75857 0.56375 0.19041 0.0
C902 C 0.79938 0.58592 0.24668 0.0
C903 C 0.81775 0.58242 0.36751 0.0
C904 C 0.80603 0.58548 0.32978 0.0
C905 C 0.76558 0.58134 0.219 0.0
C906 C 0.78045 0.58491 0.25683 0.0
H907 H 0.81083 0.5471 0.45171 0.0
H908 H 0.79128 0.55385 0.392 0.0
H909 H 0.82653 0.58675 0.27444 0.0
H910 H 0.73702 0.60123 0.17249 0.0
H911 H 0.76293 0.60844 0.23421 0.0
C912 C 0.18221 0.74694 0.31534 0.0
C913 C 0.16089 0.73895 0.30879 0.0
C914 C 0.19287 0.76208 0.3492 0.0
C915 C 0.18724 0.77853 0.46182 0.0
H916 H 0.23885 0.82893 0.4341 0.0
C917 C 0.25891 0.85097 0.56636 0.0
C918 C 0.26543 0.83967 0.59388 0.0
C919 C 0.24358 0.84086 0.53228 0.0
C920 C 0.22443 0.81498 0.44227 0.0
H921 H 0.13403 0.74102 0.32973 0.0
H922 H 0.15265 0.7671 0.3912 0.0
H923 H 0.21702 0.80727 0.36977 0.0
H924 H 0.26017 0.80907 0.61112 0.0
H925 H 0.23311 0.79126 0.55194 0.0
H926 H 0.19549 0.78533 0.53428 0.0
C927 C 0.16103 0.76165 0.36994 0.0
C928 C 0.21196 0.80266 0.4056 0.0
C929 C 0.15044 0.74679 0.33518 0.0
C930 C 0.25565 0.81806 0.5892 0.0
C931 C 0.24006 0.80791 0.55591 0.0
C932 C 0.20005 0.79049 0.49849 0.0
C933 C 0.18232 0.76936 0.3771 0.0
C934 C 0.19355 0.78409 0.41519 0.0
C935 C 0.2341 0.81926 0.52678 0.0
C936 C 0.21901 0.80851 0.48889 0.0
H937 H 0.19058 0.74138 0.29439 0.0
H938 H 0.20926 0.76771 0.3545 0.0
H939 H 0.17303 0.76435 0.46991 0.0
H940 H 0.26604 0.86763 0.57043 0.0
H941 H 0.23916 0.84987 0.51018 0.0
C942 C 0.4365 0.25676 0.75231 0.0
C943 C 0.42353 0.2652 0.75835 0.0
C944 C 0.43161 0.24127 0.71917 0.0
C945 C 0.40915 0.20015 0.66514 0.0
H946 H 0.4104 0.21647 0.53543 0.0
C947 C 0.40701 0.15026 0.50661 0.0
C948 C 0.42522 0.16114 0.48012 0.0
C949 C 0.40186 0.16073 0.53987 0.0
C950 C 0.40964 0.21158 0.57153 0.0
H951 H 0.39484 0.26363 0.73724 0.0
H952 H 0.38667 0.2369 0.67695 0.0
H953 H 0.40956 0.23841 0.59838 0.0
H954 H 0.45138 0.19138 0.46383 0.0
H955 H 0.44224 0.20981 0.52146 0.0
H956 H 0.40937 0.17341 0.63837 0.0
C957 C 0.40053 0.24229 0.69807 0.0
C958 C 0.40914 0.22407 0.60736 0.0
C959 C 0.40521 0.25751 0.73212 0.0
C960 C 0.43755 0.1827 0.48498 0.0
C961 C 0.43219 0.19321 0.51736 0.0
C962 C 0.40904 0.18736 0.62931 0.0
C963 C 0.41372 0.23408 0.69152 0.0
C964 C 0.40976 0.21885 0.65434 0.0
C965 C 0.41445 0.18229 0.54542 0.0
C966 C 0.41015 0.19343 0.58235 0.0
H967 H 0.45044 0.26219 0.7732 0.0
H968 H 0.44209 0.23526 0.7143 0.0
H969 H 0.40956 0.19586 0.70127 0.0
H970 H 0.39712 0.13365 0.50237 0.0
H971 H 0.38812 0.15206 0.56126 0.0
C972 C 0.07046 0.43272 0.94689 0.0
C973 C 0.081 0.42242 0.96117 0.0
C974 C 0.05065 0.42168 0.92736 0.0
C975 C 0.00596 0.3684 0.9049 0.0
H976 H 0.99558 0.39722 0.80437 0.0
C977 C 0.93261 0.32956 0.78515 0.0
C978 C 0.92141 0.34015 0.78641 0.0
C979 C 0.95284 0.3389 0.80326 0.0
C980 C 0.9983 0.38897 0.83228 0.0
H981 H 0.07899 0.39249 0.96755 0.0
H982 H 0.04449 0.37308 0.9321 0.0
H983 H 0.02866 0.41438 0.8454 0.0
H984 H 0.92266 0.36892 0.80554 0.0
H985 H 0.95819 0.38551 0.83518 0.0
H986 H 0.9755 0.3428 0.89054 0.0
C987 C 0.05124 0.38965 0.93703 0.0
C988 C 0.01718 0.39887 0.85629 0.0
C989 C 0.07099 0.40072 0.95755 0.0
C990 C 0.93106 0.36051 0.80385 0.0
C991 C 0.95135 0.36998 0.82084 0.0
C992 C 0.98714 0.35837 0.88028 0.0
C993 C 0.04107 0.40009 0.92034 0.0
C994 C 0.02115 0.38892 0.89365 0.0
C995 C 0.96228 0.35911 0.82179 0.0
C996 C 0.98302 0.36871 0.84429 0.0
H997 H 0.07789 0.44947 0.94934 0.0
H998 H 0.0431 0.43023 0.91654 0.0
H999 H 0.00833 0.36025 0.93354 0.0
H1000 H 0.92535 0.31372 0.77258 0.0
H1001 H 0.961 0.33024 0.8035 0.0
C1002 C 0.56786 0.9288 0.97237 0.0
C1003 C 0.57866 0.9193 0.95473 0.0
C1004 C 0.57855 0.94862 0.99197 0.0
C1005 C 0.63135 0.9951 0.00876 0.0
H1006 H 0.60402 0.00383 0.11495 0.0
C1007 C 0.6709 0.06812 0.12896 0.0
C1008 C 0.65986 0.07888 0.12993 0.0
C1009 C 0.66163 0.04792 0.11075 0.0
C1010 C 0.61185 0.00157 0.08544 0.0
H1011 H 0.6091 0.92317 0.94258 0.0
H1012 H 0.62794 0.95764 0.97822 0.0
H1013 H 0.58702 0.97071 0.07401 0.0
H1014 H 0.6304 0.07688 0.11465 0.0
H1015 H 0.61391 0.04132 0.08499 0.0
H1016 H 0.65643 0.02602 0.02154 0.0
C1017 C 0.6112 0.95009 0.97584 0.0
C1018 C 0.60202 0.98267 0.06149 0.0
C1019 C 0.60044 0.93035 0.95523 0.0
C1020 C 0.63914 0.0688 0.1147 0.0
C1021 C 0.62974 0.04851 0.09766 0.0
C1022 C 0.64134 0.01392 0.03335 0.0
C1023 C 0.60034 0.95925 0.99572 0.0
C1024 C 0.61142 0.97927 0.02217 0.0
C1025 C 0.64104 0.03806 0.09435 0.0
C1026 C 0.63152 0.01742 0.07145 0.0
H1027 H 0.55104 0.92057 0.97234 0.0
H1028 H 0.5696 0.95536 0.00529 0.0
H1029 H 0.63906 0.99322 0.97855 0.0
H1030 H 0.68702 0.07574 0.13972 0.0
H1031 H 0.67062 0.04015 0.10866 0.0
C1032 C 0.64026 0.56824 0.13921 0.0
C1033 C 0.66059 0.57874 0.12147 0.0
C1034 C 0.63114 0.57927 0.15695 0.0
C1035 C 0.64347 0.62664 0.2174 0.0
H1036 H 0.58799 0.61364 0.18169 0.0
C1037 C 0.60279 0.6699 0.2938 0.0
C1038 C 0.58105 0.65878 0.29679 0.0
C1039 C 0.61347 0.66073 0.2737 0.0
C1040 C 0.60334 0.61724 0.19285 0.0
H1041 H 0.68733 0.60898 0.10801 0.0
H1042 H 0.67142 0.62844 0.14026 0.0
H1043 H 0.60461 0.59715 0.14079 0.0
H1044 H 0.55349 0.62913 0.28421 0.0
H1045 H 0.57202 0.61266 0.25221 0.0
H1046 H 0.64196 0.64608 0.27077 0.0
C1047 C 0.66252 0.61163 0.13969 0.0
C1048 C 0.61293 0.60793 0.16891 0.0
C1049 C 0.67151 0.60055 0.12084 0.0
C1050 C 0.57029 0.63799 0.2823 0.0
C1051 C 0.58093 0.62871 0.26321 0.0
C1052 C 0.63373 0.63574 0.24197 0.0
C1053 C 0.64232 0.60105 0.15836 0.0
C1054 C 0.63301 0.61239 0.18115 0.0
C1055 C 0.60259 0.64017 0.2568 0.0
C1056 C 0.6134 0.63096 0.23039 0.0
H1057 H 0.63158 0.55143 0.14038 0.0
H1058 H 0.6156 0.57073 0.17136 0.0
H1059 H 0.6589 0.63017 0.22783 0.0
H1060 H 0.61138 0.68609 0.30396 0.0
H1061 H 0.63011 0.67014 0.26922 0.0
C1062 C 0.06937 0.675 0.28069 0.0
C1063 C 0.08002 0.66385 0.27951 0.0
C1064 C 0.04927 0.66588 0.2995 0.0
C1065 C 0.00303 0.61604 0.32635 0.0
H1066 H 0.99472 0.64368 0.43241 0.0
C1067 C 0.93193 0.57164 0.44381 0.0
C1068 C 0.92188 0.58197 0.46102 0.0
C1069 C 0.95147 0.5827 0.42298 0.0
C1070 C 0.99661 0.63586 0.40243 0.0
H1071 H 0.07791 0.63436 0.29512 0.0
H1072 H 0.04257 0.61817 0.32592 0.0
H1073 H 0.0273 0.66114 0.38837 0.0
H1074 H 0.92454 0.61203 0.47123 0.0
H1075 H 0.95859 0.63151 0.43356 0.0
H1076 H 0.97245 0.59095 0.33925 0.0
C1077 C 0.04975 0.63397 0.31293 0.0
C1078 C 0.01528 0.64589 0.37723 0.0
C1079 C 0.06993 0.6432 0.29526 0.0
C1080 C 0.93214 0.60373 0.45887 0.0
C1081 C 0.95162 0.61485 0.4371 0.0
C1082 C 0.9843 0.60616 0.35096 0.0
C1083 C 0.0394 0.64535 0.31631 0.0
C1084 C 0.0188 0.6359 0.3395 0.0
C1085 C 0.96128 0.60439 0.41763 0.0
C1086 C 0.98096 0.61569 0.39008 0.0
H1087 H 0.07699 0.69106 0.26949 0.0
H1088 H 0.04157 0.67495 0.30163 0.0
H1089 H 0.00527 0.60808 0.2971 0.0
H1090 H 0.92435 0.55485 0.44517 0.0
H1091 H 0.95864 0.5741 0.41001 0.0
C1092 C 0.40519 0.06834 0.43969 0.0
C1093 C 0.42517 0.08253 0.45627 0.0
C1094 C 0.39464 0.04784 0.45667 0.0
C1095 C 0.40386 0.00905 0.51801 0.0
H1096 H 0.3459 0.98334 0.5536 0.0
C1097 C 0.35758 0.92358 0.5732 0.0
C1098 C 0.34317 0.91768 0.61016 0.0
C1099 C 0.36717 0.94364 0.55494 0.0
C1100 C 0.36214 0.99041 0.54424 0.0
H1101 H 0.44993 0.08602 0.50249 0.0
H1102 H 0.43175 0.0508 0.53171 0.0
H1103 H 0.36314 0.01794 0.51777 0.0
H1104 H 0.32783 0.92862 0.65724 0.0
H1105 H 0.34502 0.96409 0.6256 0.0
H1106 H 0.40319 0.98199 0.54533 0.0
C1107 C 0.42414 0.05526 0.50556 0.0
C1108 C 0.37193 0.01009 0.52305 0.0
C1109 C 0.43455 0.07558 0.48889 0.0
C1110 C 0.33892 0.93264 0.629 0.0
C1111 C 0.3486 0.95289 0.61052 0.0
C1112 C 0.39414 0.98951 0.53914 0.0
C1113 C 0.40398 0.04113 0.49014 0.0
C1114 C 0.39296 0.01969 0.50989 0.0
C1115 C 0.36279 0.95857 0.57309 0.0
C1116 C 0.37315 0.97987 0.55248 0.0
H1117 H 0.39747 0.07323 0.41485 0.0
H1118 H 0.37919 0.03727 0.44375 0.0
H1119 H 0.42001 0.01585 0.50797 0.0
H1120 H 0.36129 0.91258 0.55755 0.0
H1121 H 0.37774 0.94729 0.52571 0.0
C1122 C 0.33556 0.40513 0.61152 0.0
C1123 C 0.33678 0.42247 0.6344 0.0
C1124 C 0.34498 0.39452 0.63119 0.0
C1125 C 0.38624 0.40245 0.71544 0.0
H1126 H 0.35954 0.3424 0.71732 0.0
C1127 C 0.43047 0.36015 0.76256 0.0
C1128 C 0.42065 0.342 0.7899 0.0
C1129 C 0.41955 0.36966 0.74658 0.0
C1130 C 0.36708 0.35918 0.7175 0.0
H1131 H 0.3488 0.44196 0.69643 0.0
H1132 H 0.36476 0.4236 0.73007 0.0
H1133 H 0.34177 0.35918 0.68118 0.0
H1134 H 0.39165 0.31982 0.82274 0.0
H1135 H 0.37238 0.33666 0.79482 0.0
H1136 H 0.4114 0.40261 0.75197 0.0
C1137 C 0.35688 0.41831 0.69672 0.0
C1138 C 0.35703 0.36879 0.69621 0.0
C1139 C 0.34757 0.42882 0.67729 0.0
C1140 C 0.39969 0.3339 0.80214 0.0
C1141 C 0.38862 0.34339 0.78566 0.0
C1142 C 0.39624 0.3929 0.73652 0.0
C1143 C 0.35585 0.40111 0.67395 0.0
C1144 C 0.36651 0.39057 0.69499 0.0
C1145 C 0.39842 0.36128 0.75726 0.0
C1146 C 0.38688 0.37116 0.73764 0.0
H1147 H 0.3273 0.39972 0.57864 0.0
H1148 H 0.344 0.38137 0.61262 0.0
H1149 H 0.39412 0.41925 0.71476 0.0
H1150 H 0.4466 0.3668 0.75245 0.0
H1151 H 0.42756 0.38326 0.72444 0.0
loop_
_geom_bond_atom_site_label_1
_geom_bond_atom_site_label_2
_geom_bond_distance
_geom_bond_site_symmetry_2
_ccdc_geom_bond_type
Mn0 O5 2.095 . S
Mn0 O15 2.162 . S
Mn0 O16 2.297 . S
Mn0 O24 2.385 1_554 S
Mn0 O25 2.209 1_554 S
Mn0 O26 2.094 . S
Mn1 O6 2.121 1_556 S
Mn1 N8 2.257 . S
Mn1 N17 2.282 . S
Mn1 O25 2.215 . S
Mn1 O27 2.117 . S
C2 O24 1.234 . S
C2 O25 1.283 . S
C3 O15 1.281 . S
C3 O16 1.236 . S
C4 O26 1.240 1_556 S
C4 O27 1.264 . S
O5 Mn0 2.095 . S
O5 C14 1.250 . S
O6 Mn1 2.121 1_554 S
O6 C14 1.258 . S
C7 N8 1.326 . S
C7 C11 1.460 . S
C7 H13 0.929 . S
N8 Mn1 2.257 . S
N8 C7 1.326 . S
N8 C12 1.362 . S
C9 C10 1.258 . S
C9 C12 1.431 . S
C9 C29 1.449 . S
C10 C9 1.258 . S
C10 C11 1.477 . S
C10 H30 0.931 . S
C11 C7 1.460 . S
C11 C10 1.477 . S
C11 H31 0.930 . S
C12 N8 1.362 . S
C12 C9 1.431 . S
C12 C22 1.476 . S
H13 C7 0.929 . S
C14 O5 1.250 . S
C14 O6 1.258 . S
O15 Mn0 2.162 . S
O15 C3 1.281 . S
O16 Mn0 2.297 . S
O16 C3 1.236 . S
N17 Mn1 2.282 . S
N17 C18 1.328 . S
N17 C22 1.318 . S
C18 N17 1.328 . S
C18 C19 1.457 . S
C18 H23 0.929 . S
C19 C18 1.457 . S
C19 C20 1.291 . S
C19 H32 0.931 . S
C20 C19 1.291 . S
C20 C21 1.373 . S
C20 H33 0.929 . S
C21 C20 1.373 . S
C21 C22 1.396 . S
C21 C28 1.403 . S
C22 C12 1.476 . S
C22 N17 1.318 . S
C22 C21 1.396 . S
H23 C18 0.929 . S
O24 Mn0 2.385 1_556 S
O24 C2 1.234 . S
O25 Mn0 2.209 1_556 S
O25 Mn1 2.215 . S
O25 C2 1.283 . S
O26 Mn0 2.094 . S
O26 C4 1.240 1_554 S
O27 Mn1 2.117 . S
O27 C4 1.264 . S
C28 C21 1.403 . S
C28 C29 1.399 . S
C28 H34 0.929 . S
C29 C9 1.449 . S
C29 C28 1.399 . S
C29 H35 0.930 . S
H30 C10 0.931 . S
H31 C11 0.930 . S
H32 C19 0.931 . S
H33 C20 0.929 . S
H34 C28 0.929 . S
H35 C29 0.930 . S
Mn36 O41 2.095 . S
Mn36 O51 2.162 . S
Mn36 O52 2.297 . S
Mn36 O60 2.385 . S
Mn36 O61 2.209 . S
Mn36 O62 2.094 . S
Mn37 O42 2.121 . S
Mn37 N44 2.257 . S
Mn37 N53 2.282 . S
Mn37 O61 2.215 . S
Mn37 O63 2.117 . S
C38 O60 1.234 . S
C38 O61 1.283 . S
C39 O51 1.281 . S
C39 O52 1.236 . S
C40 O62 1.240 . S
C40 O63 1.264 . S
O41 Mn36 2.095 . S
O41 C50 1.250 . S
O42 Mn37 2.121 . S
O42 C50 1.258 . S
C43 N44 1.326 . S
C43 C47 1.460 . S
C43 H49 0.929 . S
N44 Mn37 2.257 . S
N44 C43 1.326 . S
N44 C48 1.362 . S
C45 C46 1.258 1_556 S
C45 C48 1.431 1_556 S
C45 C65 1.449 . S
C46 C45 1.258 1_554 S
C46 C47 1.477 . S
C46 H66 0.931 1_554 S
C47 C43 1.460 . S
C47 C46 1.477 . S
C47 H67 0.930 . S
C48 N44 1.362 . S
C48 C45 1.431 1_554 S
C48 C58 1.476 . S
H49 C43 0.929 . S
C50 O41 1.250 . S
C50 O42 1.258 . S
O51 Mn36 2.162 . S
O51 C39 1.281 . S
O52 Mn36 2.297 . S
O52 C39 1.236 . S
N53 Mn37 2.282 . S
N53 C54 1.328 . S
N53 C58 1.318 . S
C54 N53 1.328 . S
C54 C55 1.457 1_554 S
C54 H59 0.929 . S
C55 C54 1.457 1_556 S
C55 C56 1.291 . S
C55 H68 0.931 . S
C56 C55 1.291 . S
C56 C57 1.373 . S
C56 H69 0.929 . S
C57 C56 1.373 . S
C57 C58 1.396 1_556 S
C57 C64 1.403 . S
C58 C48 1.476 . S
C58 N53 1.318 . S
C58 C57 1.396 1_554 S
H59 C54 0.929 . S
O60 Mn36 2.385 . S
O60 C38 1.234 . S
O61 Mn36 2.209 . S
O61 Mn37 2.215 . S
O61 C38 1.283 . S
O62 Mn36 2.094 . S
O62 C40 1.240 . S
O63 Mn37 2.117 . S
O63 C40 1.264 . S
C64 C57 1.403 . S
C64 C65 1.399 . S
C64 H70 0.929 . S
C65 C45 1.449 . S
C65 C64 1.399 . S
C65 H71 0.930 . S
H66 C46 0.931 1_556 S
H67 C47 0.930 . S
H68 C55 0.931 . S
H69 C56 0.929 . S
H70 C64 0.929 . S
H71 C65 0.930 . S
Mn72 O77 2.095 . S
Mn72 O87 2.162 . S
Mn72 O88 2.297 . S
Mn72 O96 2.385 . S
Mn72 O97 2.209 . S
Mn72 O98 2.094 . S
Mn73 O78 2.121 . S
Mn73 N80 2.257 . S
Mn73 N89 2.282 . S
Mn73 O97 2.215 . S
Mn73 O99 2.117 . S
C74 O96 1.234 . S
C74 O97 1.283 . S
C75 O87 1.281 . S
C75 O88 1.236 . S
C76 O98 1.240 . S
C76 O99 1.264 . S
O77 Mn72 2.095 . S
O77 C86 1.250 . S
O78 Mn73 2.121 . S
O78 C86 1.258 . S
C79 N80 1.326 . S
C79 C83 1.460 . S
C79 H85 0.929 . S
N80 Mn73 2.257 . S
N80 C79 1.326 . S
N80 C84 1.362 . S
C81 C82 1.258 . S
C81 C84 1.431 . S
C81 C101 1.449 . S
C82 C81 1.258 . S
C82 C83 1.477 . S
C82 H102 0.931 . S
C83 C79 1.460 . S
C83 C82 1.477 . S
C83 H103 0.930 . S
C84 N80 1.362 . S
C84 C81 1.431 . S
C84 C94 1.476 . S
H85 C79 0.929 . S
C86 O77 1.250 . S
C86 O78 1.258 . S
O87 Mn72 2.162 . S
O87 C75 1.281 . S
O88 Mn72 2.297 . S
O88 C75 1.236 . S
N89 Mn73 2.282 . S
N89 C90 1.328 . S
N89 C94 1.318 . S
C90 N89 1.328 . S
C90 C91 1.457 . S
C90 H95 0.929 . S
C91 C90 1.457 . S
C91 C92 1.291 . S
C91 H104 0.931 . S
C92 C91 1.291 . S
C92 C93 1.373 . S
C92 H105 0.929 . S
C93 C92 1.373 . S
C93 C94 1.396 . S
C93 C100 1.403 . S
C94 C84 1.476 . S
C94 N89 1.318 . S
C94 C93 1.396 . S
H95 C90 0.929 . S
O96 Mn72 2.385 . S
O96 C74 1.234 . S
O97 Mn72 2.209 . S
O97 Mn73 2.215 . S
O97 C74 1.283 . S
O98 Mn72 2.094 . S
O98 C76 1.240 . S
O99 Mn73 2.117 . S
O99 C76 1.264 . S
C100 C93 1.403 . S
C100 C101 1.399 . S
C100 H106 0.929 . S
C101 C81 1.449 . S
C101 C100 1.399 . S
C101 H107 0.930 . S
H102 C82 0.931 . S
H103 C83 0.930 . S
H104 C91 0.931 . S
H105 C92 0.929 . S
H106 C100 0.929 . S
H107 C101 0.930 . S
Mn108 O113 2.095 . S
Mn108 O123 2.162 . S
Mn108 O124 2.297 . S
Mn108 O132 2.385 . S
Mn108 O133 2.209 . S
Mn108 O134 2.094 . S
Mn109 O114 2.121 . S
Mn109 N116 2.257 . S
Mn109 N125 2.282 . S
Mn109 O133 2.215 . S
Mn109 O135 2.117 . S
C110 O132 1.234 . S
C110 O133 1.283 . S
C111 O123 1.281 . S
C111 O124 1.236 . S
C112 O134 1.240 . S
C112 O135 1.264 . S
O113 Mn108 2.095 . S
O113 C122 1.250 . S
O114 Mn109 2.121 . S
O114 C122 1.258 . S
C115 N116 1.326 . S
C115 C119 1.460 . S
C115 H121 0.929 . S
N116 Mn109 2.257 . S
N116 C115 1.326 . S
N116 C120 1.362 . S
C117 C118 1.258 . S
C117 C120 1.431 . S
C117 C137 1.449 . S
C118 C117 1.258 . S
C118 C119 1.477 . S
C118 H138 0.931 . S
C119 C115 1.460 . S
C119 C118 1.477 . S
C119 H139 0.930 . S
C120 N116 1.362 . S
C120 C117 1.431 . S
C120 C130 1.476 . S
H121 C115 0.929 . S
C122 O113 1.250 . S
C122 O114 1.258 . S
O123 Mn108 2.162 . S
O123 C111 1.281 . S
O124 Mn108 2.297 . S
O124 C111 1.236 . S
N125 Mn109 2.282 . S
N125 C126 1.328 . S
N125 C130 1.318 . S
C126 N125 1.328 . S
C126 C127 1.457 . S
C126 H131 0.929 . S
C127 C126 1.457 . S
C127 C128 1.291 . S
C127 H140 0.931 . S
C128 C127 1.291 . S
C128 C129 1.373 . S
C128 H141 0.929 . S
C129 C128 1.373 . S
C129 C130 1.396 . S
C129 C136 1.403 . S
C130 C120 1.476 . S
C130 N125 1.318 . S
C130 C129 1.396 . S
H131 C126 0.929 . S
O132 Mn108 2.385 . S
O132 C110 1.234 . S
O133 Mn108 2.209 . S
O133 Mn109 2.215 . S
O133 C110 1.283 . S
O134 Mn108 2.094 . S
O134 C112 1.240 . S
O135 Mn109 2.117 . S
O135 C112 1.264 . S
C136 C129 1.403 . S
C136 C137 1.399 . S
C136 H142 0.929 . S
C137 C117 1.449 . S
C137 C136 1.399 . S
C137 H143 0.930 . S
H138 C118 0.931 . S
H139 C119 0.930 . S
H140 C127 0.931 . S
H141 C128 0.929 . S
H142 C136 0.929 . S
H143 C137 0.930 . S
Mn144 O149 2.095 . S
Mn144 O159 2.162 . S
Mn144 O160 2.297 . S
Mn144 O168 2.385 . S
Mn144 O169 2.209 . S
Mn144 O170 2.094 . S
Mn145 O150 2.121 . S
Mn145 N152 2.257 . S
Mn145 N161 2.282 . S
Mn145 O169 2.215 . S
Mn145 O171 2.117 . S
C146 O168 1.234 . S
C146 O169 1.283 . S
C147 O159 1.281 . S
C147 O160 1.236 . S
C148 O170 1.240 . S
C148 O171 1.264 . S
O149 Mn144 2.095 . S
O149 C158 1.250 . S
O150 Mn145 2.121 . S
O150 C158 1.258 . S
C151 N152 1.326 . S
C151 C155 1.460 . S
C151 H157 0.929 . S
N152 Mn145 2.257 . S
N152 C151 1.326 . S
N152 C156 1.362 . S
C153 C154 1.258 . S
C153 C156 1.431 . S
C153 C173 1.449 . S
C154 C153 1.258 . S
C154 C155 1.477 . S
C154 H174 0.931 . S
C155 C151 1.460 . S
C155 C154 1.477 . S
C155 H175 0.930 . S
C156 N152 1.362 . S
C156 C153 1.431 . S
C156 C166 1.476 . S
H157 C151 0.929 . S
C158 O149 1.250 . S
C158 O150 1.258 . S
O159 Mn144 2.162 . S
O159 C147 1.281 . S
O160 Mn144 2.297 . S
O160 C147 1.236 . S
N161 Mn145 2.282 . S
N161 C162 1.328 . S
N161 C166 1.318 . S
C162 N161 1.328 . S
C162 C163 1.457 . S
C162 H167 0.929 . S
C163 C162 1.457 . S
C163 C164 1.291 . S
C163 H176 0.931 . S
C164 C163 1.291 . S
C164 C165 1.373 . S
C164 H177 0.929 . S
C165 C164 1.373 . S
C165 C166 1.396 . S
C165 C172 1.403 . S
C166 C156 1.476 . S
C166 N161 1.318 . S
C166 C165 1.396 . S
H167 C162 0.929 . S
O168 Mn144 2.385 . S
O168 C146 1.234 . S
O169 Mn144 2.209 . S
O169 Mn145 2.215 . S
O169 C146 1.283 . S
O170 Mn144 2.094 . S
O170 C148 1.240 . S
O171 Mn145 2.117 . S
O171 C148 1.264 . S
C172 C165 1.403 . S
C172 C173 1.399 . S
C172 H178 0.929 . S
C173 C153 1.449 . S
C173 C172 1.399 . S
C173 H179 0.930 . S
H174 C154 0.931 . S
H175 C155 0.930 . S
H176 C163 0.931 . S
H177 C164 0.929 . S
H178 C172 0.929 . S
H179 C173 0.930 . S
Mn180 O185 2.095 . S
Mn180 O195 2.162 . S
Mn180 O196 2.297 . S
Mn180 O204 2.385 . S
Mn180 O205 2.209 . S
Mn180 O206 2.094 . S
Mn181 O186 2.121 . S
Mn181 N188 2.257 . S
Mn181 N197 2.282 . S
Mn181 O205 2.215 . S
Mn181 O207 2.117 . S
C182 O204 1.234 . S
C182 O205 1.283 . S
C183 O195 1.281 . S
C183 O196 1.236 . S
C184 O206 1.240 . S
C184 O207 1.264 . S
O185 Mn180 2.095 . S
O185 C194 1.250 . S
O186 Mn181 2.121 . S
O186 C194 1.258 . S
C187 N188 1.326 . S
C187 C191 1.460 . S
C187 H193 0.929 . S
N188 Mn181 2.257 . S
N188 C187 1.326 . S
N188 C192 1.362 . S
C189 C190 1.258 . S
C189 C192 1.431 . S
C189 C209 1.449 . S
C190 C189 1.258 . S
C190 C191 1.477 . S
C190 H210 0.931 . S
C191 C187 1.460 . S
C191 C190 1.477 . S
C191 H211 0.930 . S
C192 N188 1.362 . S
C192 C189 1.431 . S
C192 C202 1.476 . S
H193 C187 0.929 . S
C194 O185 1.250 . S
C194 O186 1.258 . S
O195 Mn180 2.162 . S
O195 C183 1.281 . S
O196 Mn180 2.297 . S
O196 C183 1.236 . S
N197 Mn181 2.282 . S
N197 C198 1.328 . S
N197 C202 1.318 . S
C198 N197 1.328 . S
C198 C199 1.457 . S
C198 H203 0.929 . S
C199 C198 1.457 . S
C199 C200 1.291 . S
C199 H212 0.931 . S
C200 C199 1.291 . S
C200 C201 1.373 . S
C200 H213 0.929 . S
C201 C200 1.373 . S
C201 C202 1.396 . S
C201 C208 1.403 . S
C202 C192 1.476 . S
C202 N197 1.318 . S
C202 C201 1.396 . S
H203 C198 0.929 . S
O204 Mn180 2.385 . S
O204 C182 1.234 . S
O205 Mn180 2.209 . S
O205 Mn181 2.215 . S
O205 C182 1.283 . S
O206 Mn180 2.094 . S
O206 C184 1.240 . S
O207 Mn181 2.117 . S
O207 C184 1.264 . S
C208 C201 1.403 . S
C208 C209 1.399 . S
C208 H214 0.929 . S
C209 C189 1.449 . S
C209 C208 1.399 . S
C209 H215 0.930 . S
H210 C190 0.931 . S
H211 C191 0.930 . S
H212 C199 0.931 . S
H213 C200 0.929 . S
H214 C208 0.929 . S
H215 C209 0.930 . S
Mn216 O221 2.095 . S
Mn216 O231 2.162 . S
Mn216 O232 2.297 . S
Mn216 O240 2.385 . S
Mn216 O241 2.209 . S
Mn216 O242 2.094 . S
Mn217 O222 2.121 . S
Mn217 N224 2.257 1_556 S
Mn217 N233 2.282 1_556 S
Mn217 O241 2.215 . S
Mn217 O243 2.117 . S
C218 O240 1.234 . S
C218 O241 1.283 . S
C219 O231 1.281 . S
C219 O232 1.236 . S
C220 O242 1.240 . S
C220 O243 1.264 . S
O221 Mn216 2.095 . S
O221 C230 1.250 . S
O222 Mn217 2.121 . S
O222 C230 1.258 . S
C223 N224 1.326 1_556 S
C223 C227 1.460 1_556 S
C223 H229 0.929 . S
N224 Mn217 2.257 1_554 S
N224 C223 1.326 1_554 S
N224 C228 1.362 . S
C225 C226 1.258 . S
C225 C228 1.431 . S
C225 C245 1.449 . S
C226 C225 1.258 . S
C226 C227 1.477 . S
C226 H246 0.931 . S
C227 C223 1.460 1_554 S
C227 C226 1.477 . S
C227 H247 0.930 . S
C228 N224 1.362 . S
C228 C225 1.431 . S
C228 C238 1.476 . S
H229 C223 0.929 . S
C230 O221 1.250 . S
C230 O222 1.258 . S
O231 Mn216 2.162 . S
O231 C219 1.281 . S
O232 Mn216 2.297 . S
O232 C219 1.236 . S
N233 Mn217 2.282 1_554 S
N233 C234 1.328 . S
N233 C238 1.318 . S
C234 N233 1.328 . S
C234 C235 1.457 . S
C234 H239 0.929 . S
C235 C234 1.457 . S
C235 C236 1.291 . S
C235 H248 0.931 . S
C236 C235 1.291 . S
C236 C237 1.373 . S
C236 H249 0.929 . S
C237 C236 1.373 . S
C237 C238 1.396 . S
C237 C244 1.403 . S
C238 C228 1.476 . S
C238 N233 1.318 . S
C238 C237 1.396 . S
H239 C234 0.929 . S
O240 Mn216 2.385 . S
O240 C218 1.234 . S
O241 Mn216 2.209 . S
O241 Mn217 2.215 . S
O241 C218 1.283 . S
O242 Mn216 2.094 . S
O242 C220 1.240 . S
O243 Mn217 2.117 . S
O243 C220 1.264 . S
C244 C237 1.403 . S
C244 C245 1.399 . S
C244 H250 0.929 . S
C245 C225 1.449 . S
C245 C244 1.399 . S
C245 H251 0.930 . S
H246 C226 0.931 . S
H247 C227 0.930 . S
H248 C235 0.931 . S
H249 C236 0.929 . S
H250 C244 0.929 . S
H251 C245 0.930 . S
Mn252 O257 2.095 . S
Mn252 O267 2.162 1_554 S
Mn252 O268 2.297 1_554 S
Mn252 O276 2.385 . S
Mn252 O277 2.209 . S
Mn252 O278 2.094 . S
Mn253 O258 2.121 . S
Mn253 N260 2.257 . S
Mn253 N269 2.282 . S
Mn253 O277 2.215 . S
Mn253 O279 2.117 . S
C254 O276 1.234 . S
C254 O277 1.283 . S
C255 O267 1.281 . S
C255 O268 1.236 . S
C256 O278 1.240 . S
C256 O279 1.264 . S
O257 Mn252 2.095 . S
O257 C266 1.250 . S
O258 Mn253 2.121 . S
O258 C266 1.258 . S
C259 N260 1.326 . S
C259 C263 1.460 . S
C259 H265 0.929 . S
N260 Mn253 2.257 . S
N260 C259 1.326 . S
N260 C264 1.362 . S
C261 C262 1.258 . S
C261 C264 1.431 . S
C261 C281 1.449 . S
C262 C261 1.258 . S
C262 C263 1.477 . S
C262 H282 0.931 . S
C263 C259 1.460 . S
C263 C262 1.477 . S
C263 H283 0.930 . S
C264 N260 1.362 . S
C264 C261 1.431 . S
C264 C274 1.476 . S
H265 C259 0.929 . S
C266 O257 1.250 . S
C266 O258 1.258 . S
O267 Mn252 2.162 1_556 S
O267 C255 1.281 . S
O268 Mn252 2.297 1_556 S
O268 C255 1.236 . S
N269 Mn253 2.282 . S
N269 C270 1.328 . S
N269 C274 1.318 . S
C270 N269 1.328 . S
C270 C271 1.457 . S
C270 H275 0.929 . S
C271 C270 1.457 . S
C271 C272 1.291 . S
C271 H284 0.931 . S
C272 C271 1.291 . S
C272 C273 1.373 . S
C272 H285 0.929 . S
C273 C272 1.373 . S
C273 C274 1.396 . S
C273 C280 1.403 . S
C274 C264 1.476 . S
C274 N269 1.318 . S
C274 C273 1.396 . S
H275 C270 0.929 . S
O276 Mn252 2.385 . S
O276 C254 1.234 . S
O277 Mn252 2.209 . S
O277 Mn253 2.215 . S
O277 C254 1.283 . S
O278 Mn252 2.094 . S
O278 C256 1.240 . S
O279 Mn253 2.117 . S
O279 C256 1.264 . S
C280 C273 1.403 . S
C280 C281 1.399 . S
C280 H286 0.929 . S
C281 C261 1.449 . S
C281 C280 1.399 . S
C281 H287 0.930 . S
H282 C262 0.931 . S
H283 C263 0.930 . S
H284 C271 0.931 . S
H285 C272 0.929 . S
H286 C280 0.929 . S
H287 C281 0.930 . S
Mn288 O293 2.095 . S
Mn288 O303 2.162 . S
Mn288 O304 2.297 . S
Mn288 O312 2.385 . S
Mn288 O313 2.209 . S
Mn288 O314 2.094 . S
Mn289 O294 2.121 . S
Mn289 N296 2.257 . S
Mn289 N305 2.282 . S
Mn289 O313 2.215 . S
Mn289 O315 2.117 . S
C290 O312 1.234 . S
C290 O313 1.283 . S
C291 O303 1.281 . S
C291 O304 1.236 . S
C292 O314 1.240 . S
C292 O315 1.264 . S
O293 Mn288 2.095 . S
O293 C302 1.250 . S
O294 Mn289 2.121 . S
O294 C302 1.258 . S
C295 N296 1.326 . S
C295 C299 1.460 . S
C295 H301 0.929 . S
N296 Mn289 2.257 . S
N296 C295 1.326 . S
N296 C300 1.362 . S
C297 C298 1.258 . S
C297 C300 1.431 . S
C297 C317 1.449 . S
C298 C297 1.258 . S
C298 C299 1.477 . S
C298 H318 0.931 . S
C299 C295 1.460 . S
C299 C298 1.477 . S
C299 H319 0.930 . S
C300 N296 1.362 . S
C300 C297 1.431 . S
C300 C310 1.476 . S
H301 C295 0.929 . S
C302 O293 1.250 . S
C302 O294 1.258 . S
O303 Mn288 2.162 . S
O303 C291 1.281 . S
O304 Mn288 2.297 . S
O304 C291 1.236 . S
N305 Mn289 2.282 . S
N305 C306 1.328 . S
N305 C310 1.318 . S
C306 N305 1.328 . S
C306 C307 1.457 . S
C306 H311 0.929 . S
C307 C306 1.457 . S
C307 C308 1.291 . S
C307 H320 0.931 . S
C308 C307 1.291 . S
C308 C309 1.373 . S
C308 H321 0.929 . S
C309 C308 1.373 . S
C309 C310 1.396 . S
C309 C316 1.403 . S
C310 C300 1.476 . S
C310 N305 1.318 . S
C310 C309 1.396 . S
H311 C306 0.929 . S
O312 Mn288 2.385 . S
O312 C290 1.234 . S
O313 Mn288 2.209 . S
O313 Mn289 2.215 . S
O313 C290 1.283 . S
O314 Mn288 2.094 . S
O314 C292 1.240 . S
O315 Mn289 2.117 . S
O315 C292 1.264 . S
C316 C309 1.403 . S
C316 C317 1.399 . S
C316 H322 0.929 . S
C317 C297 1.449 . S
C317 C316 1.399 . S
C317 H323 0.930 . S
H318 C298 0.931 . S
H319 C299 0.930 . S
H320 C307 0.931 . S
H321 C308 0.929 . S
H322 C316 0.929 . S
H323 C317 0.930 . S
Mn324 O329 2.095 . S
Mn324 O339 2.162 . S
Mn324 O340 2.297 . S
Mn324 O348 2.385 . S
Mn324 O349 2.209 . S
Mn324 O350 2.094 . S
Mn325 O330 2.121 . S
Mn325 N332 2.257 . S
Mn325 N341 2.282 . S
Mn325 O349 2.215 . S
Mn325 O351 2.117 . S
C326 O348 1.234 . S
C326 O349 1.283 . S
C327 O339 1.281 . S
C327 O340 1.236 . S
C328 O350 1.240 . S
C328 O351 1.264 . S
O329 Mn324 2.095 . S
O329 C338 1.250 . S
O330 Mn325 2.121 . S
O330 C338 1.258 . S
C331 N332 1.326 . S
C331 C335 1.460 . S
C331 H337 0.929 . S
N332 Mn325 2.257 . S
N332 C331 1.326 . S
N332 C336 1.362 . S
C333 C334 1.258 . S
C333 C336 1.431 . S
C333 C353 1.449 . S
C334 C333 1.258 . S
C334 C335 1.477 . S
C334 H354 0.931 . S
C335 C331 1.460 . S
C335 C334 1.477 . S
C335 H355 0.930 . S
C336 N332 1.362 . S
C336 C333 1.431 . S
C336 C346 1.476 . S
H337 C331 0.929 . S
C338 O329 1.250 . S
C338 O330 1.258 . S
O339 Mn324 2.162 . S
O339 C327 1.281 . S
O340 Mn324 2.297 . S
O340 C327 1.236 . S
N341 Mn325 2.282 . S
N341 C342 1.328 . S
N341 C346 1.318 . S
C342 N341 1.328 . S
C342 C343 1.457 . S
C342 H347 0.929 . S
C343 C342 1.457 . S
C343 C344 1.291 . S
C343 H356 0.931 . S
C344 C343 1.291 . S
C344 C345 1.373 . S
C344 H357 0.929 . S
C345 C344 1.373 . S
C345 C346 1.396 . S
C345 C352 1.403 . S
C346 C336 1.476 . S
C346 N341 1.318 . S
C346 C345 1.396 . S
H347 C342 0.929 . S
O348 Mn324 2.385 . S
O348 C326 1.234 . S
O349 Mn324 2.209 . S
O349 Mn325 2.215 . S
O349 C326 1.283 . S
O350 Mn324 2.094 . S
O350 C328 1.240 . S
O351 Mn325 2.117 . S
O351 C328 1.264 . S
C352 C345 1.403 . S
C352 C353 1.399 . S
C352 H358 0.929 . S
C353 C333 1.449 . S
C353 C352 1.399 . S
C353 H359 0.930 . S
H354 C334 0.931 . S
H355 C335 0.930 . S
H356 C343 0.931 . S
H357 C344 0.929 . S
H358 C352 0.929 . S
H359 C353 0.930 . S
Mn360 O365 2.095 . S
Mn360 O375 2.162 . S
Mn360 O376 2.297 . S
Mn360 O384 2.385 . S
Mn360 O385 2.209 . S
Mn360 O386 2.094 . S
Mn361 O366 2.121 . S
Mn361 N368 2.257 . S
Mn361 N377 2.282 . S
Mn361 O385 2.215 . S
Mn361 O387 2.117 . S
C362 O384 1.234 . S
C362 O385 1.283 . S
C363 O375 1.281 . S
C363 O376 1.236 . S
C364 O386 1.240 . S
C364 O387 1.264 . S
O365 Mn360 2.095 . S
O365 C374 1.250 . S
O366 Mn361 2.121 . S
O366 C374 1.258 . S
C367 N368 1.326 . S
C367 C371 1.460 . S
C367 H373 0.929 . S
N368 Mn361 2.257 . S
N368 C367 1.326 . S
N368 C372 1.362 . S
C369 C370 1.258 . S
C369 C372 1.431 . S
C369 C389 1.449 . S
C370 C369 1.258 . S
C370 C371 1.477 . S
C370 H390 0.931 . S
C371 C367 1.460 . S
C371 C370 1.477 . S
C371 H391 0.930 . S
C372 N368 1.362 . S
C372 C369 1.431 . S
C372 C382 1.476 . S
H373 C367 0.929 . S
C374 O365 1.250 . S
C374 O366 1.258 . S
O375 Mn360 2.162 . S
O375 C363 1.281 . S
O376 Mn360 2.297 . S
O376 C363 1.236 . S
N377 Mn361 2.282 . S
N377 C378 1.328 . S
N377 C382 1.318 . S
C378 N377 1.328 . S
C378 C379 1.457 . S
C378 H383 0.929 . S
C379 C378 1.457 . S
C379 C380 1.291 . S
C379 H392 0.931 . S
C380 C379 1.291 . S
C380 C381 1.373 . S
C380 H393 0.929 . S
C381 C380 1.373 . S
C381 C382 1.396 . S
C381 C388 1.403 . S
C382 C372 1.476 . S
C382 N377 1.318 . S
C382 C381 1.396 . S
H383 C378 0.929 . S
O384 Mn360 2.385 . S
O384 C362 1.234 . S
O385 Mn360 2.209 . S
O385 Mn361 2.215 . S
O385 C362 1.283 . S
O386 Mn360 2.094 . S
O386 C364 1.240 . S
O387 Mn361 2.117 . S
O387 C364 1.264 . S
C388 C381 1.403 . S
C388 C389 1.399 . S
C388 H394 0.929 . S
C389 C369 1.449 . S
C389 C388 1.399 . S
C389 H395 0.930 . S
H390 C370 0.931 . S
H391 C371 0.930 . S
H392 C379 0.931 . S
H393 C380 0.929 . S
H394 C388 0.929 . S
H395 C389 0.930 . S
Mn396 O401 2.095 . S
Mn396 O411 2.162 . S
Mn396 O412 2.297 . S
Mn396 O420 2.385 . S
Mn396 O421 2.209 . S
Mn396 O422 2.094 . S
Mn397 O402 2.121 . S
Mn397 N404 2.257 . S
Mn397 N413 2.282 . S
Mn397 O421 2.215 . S
Mn397 O423 2.117 . S
C398 O420 1.234 . S
C398 O421 1.283 . S
C399 O411 1.281 . S
C399 O412 1.236 . S
C400 O422 1.240 . S
C400 O423 1.264 . S
O401 Mn396 2.095 . S
O401 C410 1.250 . S
O402 Mn397 2.121 . S
O402 C410 1.258 . S
C403 N404 1.326 . S
C403 C407 1.460 . S
C403 H409 0.929 . S
N404 Mn397 2.257 . S
N404 C403 1.326 . S
N404 C408 1.362 . S
C405 C406 1.258 . S
C405 C408 1.431 . S
C405 C425 1.449 . S
C406 C405 1.258 . S
C406 C407 1.477 . S
C406 H426 0.931 . S
C407 C403 1.460 . S
C407 C406 1.477 . S
C407 H427 0.930 . S
C408 N404 1.362 . S
C408 C405 1.431 . S
C408 C418 1.476 . S
H409 C403 0.929 . S
C410 O401 1.250 . S
C410 O402 1.258 . S
O411 Mn396 2.162 . S
O411 C399 1.281 . S
O412 Mn396 2.297 . S
O412 C399 1.236 . S
N413 Mn397 2.282 . S
N413 C414 1.328 . S
N413 C418 1.318 . S
C414 N413 1.328 . S
C414 C415 1.457 . S
C414 H419 0.929 . S
C415 C414 1.457 . S
C415 C416 1.291 . S
C415 H428 0.931 . S
C416 C415 1.291 . S
C416 C417 1.373 . S
C416 H429 0.929 . S
C417 C416 1.373 . S
C417 C418 1.396 . S
C417 C424 1.403 . S
C418 C408 1.476 . S
C418 N413 1.318 . S
C418 C417 1.396 . S
H419 C414 0.929 . S
O420 Mn396 2.385 . S
O420 C398 1.234 . S
O421 Mn396 2.209 . S
O421 Mn397 2.215 . S
O421 C398 1.283 . S
O422 Mn396 2.094 . S
O422 C400 1.240 . S
O423 Mn397 2.117 . S
O423 C400 1.264 . S
C424 C417 1.403 . S
C424 C425 1.399 . S
C424 H430 0.913 1_556 S
C425 C405 1.449 . S
C425 C424 1.399 . S
C425 H431 0.930 . S
H426 C406 0.931 . S
H427 C407 0.930 . S
H428 C415 0.931 . S
H429 C416 0.929 . S
H430 C424 0.913 1_554 S
H431 C425 0.930 . S
C432 C433 1.349 . S
C432 C434 1.327 . S
C432 H457 0.950 . S
C433 C432 1.349 . S
C433 C449 1.349 . S
C434 C432 1.327 . S
C434 C453 1.429 . S
C434 H458 0.950 . S
C435 C452 1.574 . S
C435 C454 1.368 . S
C435 H459 0.949 . S
H436 C440 0.949 . S
C437 C438 1.349 . S
C437 C439 1.327 . S
C437 H460 0.950 . S
C438 C437 1.349 . S
C438 C450 1.349 . S
C439 C437 1.327 . S
C439 C455 1.429 . S
C439 H461 0.950 . S
C440 H436 0.949 . S
C440 C448 1.574 . S
C440 C456 1.368 . S
H441 C449 0.950 . S
H442 C447 0.950 . S
H443 C448 0.949 . S
H444 C450 0.950 . S
H445 C451 0.950 . S
H446 C452 0.949 . S
C447 H442 0.950 . S
C447 C449 1.327 . S
C447 C453 1.429 . S
C448 C440 1.574 . S
C448 H443 0.949 . S
C448 C454 1.368 . S
C449 C433 1.349 . S
C449 H441 0.950 . S
C449 C447 1.327 . S
C450 C438 1.349 . S
C450 H444 0.950 . S
C450 C451 1.327 . S
C451 H445 0.950 . S
C451 C450 1.327 . S
C451 C455 1.429 . S
C452 C435 1.574 . S
C452 H446 0.949 . S
C452 C456 1.368 . S
C453 C434 1.429 . S
C453 C447 1.429 . S
C453 C454 1.523 . S
C454 C435 1.368 . S
C454 C448 1.368 . S
C454 C453 1.523 . S
C455 C439 1.429 . S
C455 C451 1.429 . S
C455 C456 1.523 . S
C456 C440 1.368 . S
C456 C452 1.368 . S
C456 C455 1.523 . S
H457 C432 0.950 . S
H458 C434 0.950 . S
H459 C435 0.949 . S
H460 C437 0.950 . S
H461 C439 0.950 . S
C462 C463 1.349 . S
C462 C464 1.327 . S
C462 H487 0.950 . S
C463 C462 1.349 . S
C463 C479 1.349 . S
C464 C462 1.327 . S
C464 C483 1.429 . S
C464 H488 0.950 . S
C465 C482 1.574 . S
C465 C484 1.368 . S
C465 H489 0.949 . S
H466 C470 0.949 . S
C467 C468 1.349 . S
C467 C469 1.327 . S
C467 H490 0.950 . S
C468 C467 1.349 . S
C468 C480 1.349 . S
C469 C467 1.327 . S
C469 C485 1.429 . S
C469 H491 0.950 . S
C470 H466 0.949 . S
C470 C478 1.574 . S
C470 C486 1.368 . S
H471 C479 0.950 . S
H472 C477 0.950 . S
H473 C478 0.949 . S
H474 C480 0.950 . S
H475 C481 0.950 . S
H476 C482 0.949 . S
C477 H472 0.950 . S
C477 C479 1.327 . S
C477 C483 1.429 . S
C478 C470 1.574 . S
C478 H473 0.949 . S
C478 C484 1.368 . S
C479 C463 1.349 . S
C479 H471 0.950 . S
C479 C477 1.327 . S
C480 C468 1.349 . S
C480 H474 0.950 . S
C480 C481 1.327 . S
C481 H475 0.950 . S
C481 C480 1.327 . S
C481 C485 1.429 . S
C482 C465 1.574 . S
C482 H476 0.949 . S
C482 C486 1.368 . S
C483 C464 1.429 . S
C483 C477 1.429 . S
C483 C484 1.523 . S
C484 C465 1.368 . S
C484 C478 1.368 . S
C484 C483 1.523 . S
C485 C469 1.429 . S
C485 C481 1.429 . S
C485 C486 1.523 . S
C486 C470 1.368 . S
C486 C482 1.368 . S
C486 C485 1.523 . S
H487 C462 0.950 . S
H488 C464 0.950 . S
H489 C465 0.949 . S
H490 C467 0.950 . S
H491 C469 0.950 . S
C492 C493 1.349 . S
C492 C494 1.327 . S
C492 H517 0.950 . S
C493 C492 1.349 . S
C493 C509 1.349 . S
C494 C492 1.327 . S
C494 C513 1.429 . S
C494 H518 0.950 . S
C495 C512 1.574 . S
C495 C514 1.368 . S
C495 H519 0.949 . S
H496 C500 0.949 . S
C497 C498 1.349 . S
C497 C499 1.327 . S
C497 H520 0.950 . S
C498 C497 1.349 . S
C498 C510 1.349 . S
C499 C497 1.327 . S
C499 C515 1.429 . S
C499 H521 0.950 . S
C500 H496 0.949 . S
C500 C508 1.574 . S
C500 C516 1.368 . S
H501 C509 0.950 . S
H502 C507 0.950 . S
H503 C508 0.949 . S
H504 C510 0.950 . S
H505 C511 0.950 . S
H506 C512 0.949 . S
C507 H502 0.950 . S
C507 C509 1.327 . S
C507 C513 1.429 . S
C508 C500 1.574 . S
C508 H503 0.949 . S
C508 C514 1.368 . S
C509 C493 1.349 . S
C509 H501 0.950 . S
C509 C507 1.327 . S
C510 C498 1.349 . S
C510 H504 0.950 . S
C510 C511 1.327 . S
C511 H505 0.950 . S
C511 C510 1.327 . S
C511 C515 1.429 . S
C512 C495 1.574 . S
C512 H506 0.949 . S
C512 C516 1.368 . S
C513 C494 1.429 . S
C513 C507 1.429 . S
C513 C514 1.523 . S
C514 C495 1.368 . S
C514 C508 1.368 . S
C514 C513 1.523 . S
C515 C499 1.429 . S
C515 C511 1.429 . S
C515 C516 1.523 . S
C516 C500 1.368 . S
C516 C512 1.368 . S
C516 C515 1.523 . S
H517 C492 0.950 . S
H518 C494 0.950 . S
H519 C495 0.949 . S
H520 C497 0.950 . S
H521 C499 0.950 . S
C522 C523 1.349 . S
C522 C524 1.327 . S
C522 H547 0.950 . S
C523 C522 1.349 . S
C523 C539 1.349 . S
C524 C522 1.327 . S
C524 C543 1.429 . S
C524 H548 0.950 . S
C525 C542 1.574 . S
C525 C544 1.368 . S
C525 H549 0.949 . S
H526 C530 0.949 . S
C527 C528 1.349 . S
C527 C529 1.327 . S
C527 H550 0.950 . S
C528 C527 1.349 . S
C528 C540 1.349 . S
C529 C527 1.327 . S
C529 C545 1.429 . S
C529 H551 0.950 . S
C530 H526 0.949 . S
C530 C538 1.574 . S
C530 C546 1.368 . S
H531 C539 0.950 . S
H532 C537 0.950 . S
H533 C538 0.949 . S
H534 C540 0.950 . S
H535 C541 0.950 . S
H536 C542 0.949 . S
C537 H532 0.950 . S
C537 C539 1.327 . S
C537 C543 1.429 . S
C538 C530 1.574 . S
C538 H533 0.949 . S
C538 C544 1.368 . S
C539 C523 1.349 . S
C539 H531 0.950 . S
C539 C537 1.327 . S
C540 C528 1.349 . S
C540 H534 0.950 . S
C540 C541 1.327 . S
C541 H535 0.950 . S
C541 C540 1.327 . S
C541 C545 1.429 . S
C542 C525 1.574 . S
C542 H536 0.949 . S
C542 C546 1.368 . S
C543 C524 1.429 . S
C543 C537 1.429 . S
C543 C544 1.523 . S
C544 C525 1.368 . S
C544 C538 1.368 . S
C544 C543 1.523 . S
C545 C529 1.429 . S
C545 C541 1.429 . S
C545 C546 1.523 . S
C546 C530 1.368 . S
C546 C542 1.368 . S
C546 C545 1.523 . S
H547 C522 0.950 . S
H548 C524 0.950 . S
H549 C525 0.949 . S
H550 C527 0.950 . S
H551 C529 0.950 . S
C552 C553 1.349 . S
C552 C554 1.327 . S
C552 H577 0.950 . S
C553 C552 1.349 . S
C553 C569 1.349 . S
C554 C552 1.327 . S
C554 C573 1.429 . S
C554 H578 0.950 . S
C555 C572 1.574 . S
C555 C574 1.368 . S
C555 H579 0.949 . S
H556 C560 0.949 1_554 S
C557 C558 1.349 . S
C557 C559 1.327 . S
C557 H580 0.950 . S
C558 C557 1.349 . S
C558 C570 1.349 . S
C559 C557 1.327 . S
C559 C575 1.429 . S
C559 H581 0.950 . S
C560 H556 0.949 1_556 S
C560 C568 1.574 . S
C560 C576 1.368 . S
H561 C569 0.950 . S
H562 C567 0.950 . S
H563 C568 0.949 . S
H564 C570 0.950 . S
H565 C571 0.950 . S
H566 C572 0.949 . S
C567 H562 0.950 . S
C567 C569 1.327 . S
C567 C573 1.429 . S
C568 C560 1.574 . S
C568 H563 0.949 . S
C568 C574 1.368 . S
C569 C553 1.349 . S
C569 H561 0.950 . S
C569 C567 1.327 . S
C570 C558 1.349 . S
C570 H564 0.950 . S
C570 C571 1.327 . S
C571 H565 0.950 . S
C571 C570 1.327 . S
C571 C575 1.429 . S
C572 C555 1.574 . S
C572 H566 0.949 . S
C572 C576 1.368 . S
C573 C554 1.429 . S
C573 C567 1.429 . S
C573 C574 1.523 . S
C574 C555 1.368 . S
C574 C568 1.368 . S
C574 C573 1.523 . S
C575 C559 1.429 . S
C575 C571 1.429 . S
C575 C576 1.523 1_554 S
C576 C560 1.368 . S
C576 C572 1.368 . S
C576 C575 1.523 1_556 S
H577 C552 0.950 . S
H578 C554 0.950 . S
H579 C555 0.949 . S
H580 C557 0.950 . S
H581 C559 0.950 . S
C582 C583 1.349 . S
C582 C584 1.327 . S
C582 H607 0.950 . S
C583 C582 1.349 . S
C583 C599 1.349 . S
C584 C582 1.327 . S
C584 C603 1.429 . S
C584 H608 0.950 . S
C585 C602 1.574 . S
C585 C604 1.368 . S
C585 H609 0.949 . S
H586 C590 0.949 . S
C587 C588 1.349 . S
C587 C589 1.327 1_556 S
C587 H610 0.950 . S
C588 C587 1.349 . S
C588 C600 1.349 1_556 S
C589 C587 1.327 1_554 S
C589 C605 1.429 . S
C589 H611 0.950 . S
C590 H586 0.949 . S
C590 C598 1.574 . S
C590 C606 1.368 . S
H591 C599 0.950 . S
H592 C597 0.950 . S
H593 C598 0.949 . S
H594 C600 0.950 . S
H595 C601 0.950 . S
H596 C602 0.949 . S
C597 H592 0.950 . S
C597 C599 1.327 . S
C597 C603 1.429 . S
C598 C590 1.574 . S
C598 H593 0.949 . S
C598 C604 1.368 . S
C599 C583 1.349 . S
C599 H591 0.950 . S
C599 C597 1.327 . S
C600 C588 1.349 1_554 S
C600 H594 0.950 . S
C600 C601 1.327 . S
C601 H595 0.950 . S
C601 C600 1.327 . S
C601 C605 1.429 . S
C602 C585 1.574 . S
C602 H596 0.949 . S
C602 C606 1.368 . S
C603 C584 1.429 . S
C603 C597 1.429 . S
C603 C604 1.523 . S
C604 C585 1.368 . S
C604 C598 1.368 . S
C604 C603 1.523 . S
C605 C589 1.429 . S
C605 C601 1.429 . S
C605 C606 1.523 . S
C606 C590 1.368 . S
C606 C602 1.368 . S
C606 C605 1.523 . S
H607 C582 0.950 . S
H608 C584 0.950 . S
H609 C585 0.949 . S
H610 C587 0.950 . S
H611 C589 0.950 . S
C612 C613 1.349 . S
C612 C614 1.327 . S
C612 H637 0.950 . S
C613 C612 1.349 . S
C613 C629 1.349 . S
C614 C612 1.327 . S
C614 C633 1.429 . S
C614 H638 0.950 . S
C615 C632 1.574 . S
C615 C634 1.368 . S
C615 H639 0.949 . S
H616 C620 0.949 . S
C617 C618 1.349 . S
C617 C619 1.327 . S
C617 H640 0.950 . S
C618 C617 1.349 . S
C618 C630 1.349 . S
C619 C617 1.327 . S
C619 C635 1.429 . S
C619 H641 0.950 . S
C620 H616 0.949 . S
C620 C628 1.574 . S
C620 C636 1.368 . S
H621 C629 0.950 . S
H622 C627 0.950 . S
H623 C628 0.949 . S
H624 C630 0.950 . S
H625 C631 0.950 . S
H626 C632 0.949 . S
C627 H622 0.950 . S
C627 C629 1.327 . S
C627 C633 1.429 . S
C628 C620 1.574 . S
C628 H623 0.949 . S
C628 C634 1.368 . S
C629 C613 1.349 . S
C629 H621 0.950 . S
C629 C627 1.327 . S
C630 C618 1.349 . S
C630 H624 0.950 . S
C630 C631 1.327 . S
C631 H625 0.950 . S
C631 C630 1.327 . S
C631 C635 1.429 . S
C632 C615 1.574 . S
C632 H626 0.949 . S
C632 C636 1.368 . S
C633 C614 1.429 . S
C633 C627 1.429 . S
C633 C634 1.523 . S
C634 C615 1.368 . S
C634 C628 1.368 . S
C634 C633 1.523 . S
C635 C619 1.429 . S
C635 C631 1.429 . S
C635 C636 1.523 . S
C636 C620 1.368 . S
C636 C632 1.368 . S
C636 C635 1.523 . S
H637 C612 0.950 . S
H638 C614 0.950 . S
H639 C615 0.949 . S
H640 C617 0.950 . S
H641 C619 0.950 . S
C642 C643 1.349 . S
C642 C644 1.327 . S
C642 H667 0.950 . S
C643 C642 1.349 . S
C643 C659 1.349 . S
C644 C642 1.327 . S
C644 C663 1.429 . S
C644 H668 0.950 . S
C645 C662 1.574 . S
C645 C664 1.368 . S
C645 H669 0.949 . S
H646 C650 0.949 . S
C647 C648 1.349 . S
C647 C649 1.327 . S
C647 H670 0.950 . S
C648 C647 1.349 . S
C648 C660 1.349 . S
C649 C647 1.327 . S
C649 C665 1.429 . S
C649 H671 0.950 . S
C650 H646 0.949 . S
C650 C658 1.574 . S
C650 C666 1.368 . S
H651 C659 0.950 . S
H652 C657 0.950 . S
H653 C658 0.949 . S
H654 C660 0.950 . S
H655 C661 0.950 . S
H656 C662 0.949 . S
C657 H652 0.950 . S
C657 C659 1.327 . S
C657 C663 1.429 . S
C658 C650 1.574 . S
C658 H653 0.949 . S
C658 C664 1.368 . S
C659 C643 1.349 . S
C659 H651 0.950 . S
C659 C657 1.327 . S
C660 C648 1.349 . S
C660 H654 0.950 . S
C660 C661 1.327 . S
C661 H655 0.950 . S
C661 C660 1.327 . S
C661 C665 1.429 . S
C662 C645 1.574 . S
C662 H656 0.949 . S
C662 C666 1.368 . S
C663 C644 1.429 . S
C663 C657 1.429 . S
C663 C664 1.523 . S
C664 C645 1.368 . S
C664 C658 1.368 . S
C664 C663 1.523 . S
C665 C649 1.429 . S
C665 C661 1.429 . S
C665 C666 1.523 . S
C666 C650 1.368 . S
C666 C662 1.368 . S
C666 C665 1.523 . S
H667 C642 0.950 . S
H668 C644 0.950 . S
H669 C645 0.949 . S
H670 C647 0.950 . S
H671 C649 0.950 . S
C672 C673 1.349 . S
C672 C674 1.327 . S
C672 H697 0.950 . S
C673 C672 1.349 . S
C673 C689 1.349 . S
C674 C672 1.327 . S
C674 C693 1.429 . S
C674 H698 0.950 . S
C675 C692 1.574 . S
C675 C694 1.368 . S
C675 H699 0.949 . S
H676 C680 0.949 . S
C677 C678 1.349 . S
C677 C679 1.327 . S
C677 H700 0.950 . S
C678 C677 1.349 . S
C678 C690 1.349 . S
C679 C677 1.327 . S
C679 C695 1.429 . S
C679 H701 0.950 . S
C680 H676 0.949 . S
C680 C688 1.574 . S
C680 C696 1.368 . S
H681 C689 0.950 . S
H682 C687 0.950 . S
H683 C688 0.949 . S
H684 C690 0.950 . S
H685 C691 0.950 . S
H686 C692 0.949 . S
C687 H682 0.950 . S
C687 C689 1.327 . S
C687 C693 1.429 . S
C688 C680 1.574 . S
C688 H683 0.949 . S
C688 C694 1.368 . S
C689 C673 1.349 . S
C689 H681 0.950 . S
C689 C687 1.327 . S
C690 C678 1.349 . S
C690 H684 0.950 . S
C690 C691 1.327 . S
C691 H685 0.950 . S
C691 C690 1.327 . S
C691 C695 1.429 . S
C692 C675 1.574 . S
C692 H686 0.949 . S
C692 C696 1.368 . S
C693 C674 1.429 . S
C693 C687 1.429 . S
C693 C694 1.523 . S
C694 C675 1.368 . S
C694 C688 1.368 . S
C694 C693 1.523 . S
C695 C679 1.429 . S
C695 C691 1.429 . S
C695 C696 1.523 . S
C696 C680 1.368 . S
C696 C692 1.368 . S
C696 C695 1.523 . S
H697 C672 0.950 . S
H698 C674 0.950 . S
H699 C675 0.949 . S
H700 C677 0.950 . S
H701 C679 0.950 . S
C702 C703 1.349 . S
C702 C704 1.327 . S
C702 H727 0.950 . S
C703 C702 1.349 . S
C703 C719 1.349 . S
C704 C702 1.327 . S
C704 C723 1.429 . S
C704 H728 0.950 . S
C705 C722 1.574 . S
C705 C724 1.368 . S
C705 H729 0.949 . S
H706 C710 0.949 . S
C707 C708 1.349 . S
C707 C709 1.327 . S
C707 H730 0.950 . S
C708 C707 1.349 . S
C708 C720 1.349 . S
C709 C707 1.327 . S
C709 C725 1.429 . S
C709 H731 0.950 . S
C710 H706 0.949 . S
C710 C718 1.574 . S
C710 C726 1.368 . S
H711 C719 0.950 . S
H712 C717 0.950 . S
H713 C718 0.949 . S
H714 C720 0.950 . S
H715 C721 0.950 . S
H716 C722 0.949 . S
C717 H712 0.950 . S
C717 C719 1.327 . S
C717 C723 1.429 . S
C718 C710 1.574 . S
C718 H713 0.949 . S
C718 C724 1.368 . S
C719 C703 1.349 . S
C719 H711 0.950 . S
C719 C717 1.327 . S
C720 C708 1.349 . S
C720 H714 0.950 . S
C720 C721 1.327 . S
C721 H715 0.950 . S
C721 C720 1.327 . S
C721 C725 1.429 . S
C722 C705 1.574 . S
C722 H716 0.949 . S
C722 C726 1.368 . S
C723 C704 1.429 . S
C723 C717 1.429 . S
C723 C724 1.523 . S
C724 C705 1.368 . S
C724 C718 1.368 . S
C724 C723 1.523 . S
C725 C709 1.429 . S
C725 C721 1.429 . S
C725 C726 1.523 . S
C726 C710 1.368 . S
C726 C722 1.368 . S
C726 C725 1.523 . S
H727 C702 0.950 . S
H728 C704 0.950 . S
H729 C705 0.949 . S
H730 C707 0.950 . S
H731 C709 0.950 . S
C732 C733 1.349 . S
C732 C734 1.327 . S
C732 H757 0.950 . S
C733 C732 1.349 . S
C733 C749 1.349 . S
C734 C732 1.327 . S
C734 C753 1.429 . S
C734 H758 0.950 . S
C735 C752 1.574 . S
C735 C754 1.368 . S
C735 H759 0.949 . S
H736 C740 0.949 . S
C737 C738 1.349 . S
C737 C739 1.327 . S
C737 H760 0.950 . S
C738 C737 1.349 . S
C738 C750 1.349 . S
C739 C737 1.327 . S
C739 C755 1.429 . S
C739 H761 0.950 . S
C740 H736 0.949 . S
C740 C748 1.574 . S
C740 C756 1.368 . S
H741 C749 0.950 . S
H742 C747 0.950 . S
H743 C748 0.949 . S
H744 C750 0.950 . S
H745 C751 0.950 . S
H746 C752 0.949 . S
C747 H742 0.950 . S
C747 C749 1.327 . S
C747 C753 1.429 . S
C748 C740 1.574 . S
C748 H743 0.949 . S
C748 C754 1.368 . S
C749 C733 1.349 . S
C749 H741 0.950 . S
C749 C747 1.327 . S
C750 C738 1.349 . S
C750 H744 0.950 . S
C750 C751 1.327 . S
C751 H745 0.950 . S
C751 C750 1.327 . S
C751 C755 1.429 . S
C752 C735 1.574 . S
C752 H746 0.949 . S
C752 C756 1.368 . S
C753 C734 1.429 . S
C753 C747 1.429 . S
C753 C754 1.523 . S
C754 C735 1.368 . S
C754 C748 1.368 . S
C754 C753 1.523 . S
C755 C739 1.429 . S
C755 C751 1.429 . S
C755 C756 1.523 . S
C756 C740 1.368 . S
C756 C752 1.368 . S
C756 C755 1.523 . S
H757 C732 0.950 . S
H758 C734 0.950 . S
H759 C735 0.949 . S
H760 C737 0.950 . S
H761 C739 0.950 . S
C762 C763 1.349 . S
C762 C764 1.327 . S
C762 H787 0.950 . S
C763 C762 1.349 . S
C763 C779 1.349 . S
C764 C762 1.327 . S
C764 C783 1.429 . S
C764 H788 0.950 . S
C765 C782 1.574 . S
C765 C784 1.368 . S
C765 H789 0.949 . S
H766 C770 0.949 . S
C767 C768 1.349 . S
C767 C769 1.327 . S
C767 H790 0.950 . S
C768 C767 1.349 . S
C768 C780 1.349 1_554 S
C769 C767 1.327 . S
C769 C785 1.429 1_554 S
C769 H791 0.950 . S
C770 H766 0.949 . S
C770 C778 1.574 . S
C770 C786 1.368 . S
H771 C779 0.950 . S
H772 C777 0.950 . S
H773 C778 0.949 . S
H774 C780 0.950 . S
H775 C781 0.950 . S
H776 C782 0.949 1_554 S
C777 H772 0.950 . S
C777 C779 1.327 . S
C777 C783 1.429 . S
C778 C770 1.574 . S
C778 H773 0.949 . S
C778 C784 1.368 . S
C779 C763 1.349 . S
C779 H771 0.950 . S
C779 C777 1.327 . S
C780 C768 1.349 1_556 S
C780 H774 0.950 . S
C780 C781 1.327 . S
C781 H775 0.950 . S
C781 C780 1.327 . S
C781 C785 1.429 . S
C782 C765 1.574 . S
C782 H776 0.949 1_556 S
C782 C786 1.368 . S
C783 C764 1.429 . S
C783 C777 1.429 . S
C783 C784 1.523 . S
C784 C765 1.368 . S
C784 C778 1.368 . S
C784 C783 1.523 . S
C785 C769 1.429 1_556 S
C785 C781 1.429 . S
C785 C786 1.523 . S
C786 C770 1.368 . S
C786 C782 1.368 . S
C786 C785 1.523 . S
H787 C762 0.950 . S
H788 C764 0.950 . S
H789 C765 0.949 . S
H790 C767 0.950 . S
H791 C769 0.950 . S
C792 C793 1.349 . S
C792 C794 1.327 . S
C792 H817 0.950 . S
C793 C792 1.349 . S
C793 C809 1.349 . S
C794 C792 1.327 . S
C794 C813 1.429 . S
C794 H818 0.950 . S
C795 C812 1.574 . S
C795 C814 1.368 . S
C795 H819 0.949 . S
H796 C800 0.949 . S
C797 C798 1.349 . S
C797 C799 1.327 . S
C797 H820 0.950 . S
C798 C797 1.349 . S
C798 C810 1.349 . S
C799 C797 1.327 . S
C799 C815 1.429 . S
C799 H821 0.950 . S
C800 H796 0.949 . S
C800 C808 1.574 . S
C800 C816 1.368 . S
H801 C809 0.950 . S
H802 C807 0.950 . S
H803 C808 0.949 . S
H804 C810 0.950 . S
H805 C811 0.950 . S
H806 C812 0.949 . S
C807 H802 0.950 . S
C807 C809 1.327 . S
C807 C813 1.429 . S
C808 C800 1.574 . S
C808 H803 0.949 . S
C808 C814 1.368 . S
C809 C793 1.349 . S
C809 H801 0.950 . S
C809 C807 1.327 . S
C810 C798 1.349 . S
C810 H804 0.950 . S
C810 C811 1.327 . S
C811 H805 0.950 . S
C811 C810 1.327 . S
C811 C815 1.429 . S
C812 C795 1.574 . S
C812 H806 0.949 . S
C812 C816 1.368 . S
C813 C794 1.429 . S
C813 C807 1.429 . S
C813 C814 1.523 . S
C814 C795 1.368 . S
C814 C808 1.368 . S
C814 C813 1.523 . S
C815 C799 1.429 . S
C815 C811 1.429 . S
C815 C816 1.523 . S
C816 C800 1.368 . S
C816 C812 1.368 . S
C816 C815 1.523 . S
H817 C792 0.950 . S
H818 C794 0.950 . S
H819 C795 0.949 . S
H820 C797 0.950 . S
H821 C799 0.950 . S
C822 C823 1.349 . S
C822 C824 1.327 . S
C822 H847 0.950 . S
C823 C822 1.349 . S
C823 C839 1.349 . S
C824 C822 1.327 . S
C824 C843 1.429 . S
C824 H848 0.950 . S
C825 C842 1.574 . S
C825 C844 1.368 . S
C825 H849 0.949 . S
H826 C830 0.949 . S
C827 C828 1.349 . S
C827 C829 1.327 . S
C827 H850 0.950 . S
C828 C827 1.349 . S
C828 C840 1.349 . S
C829 C827 1.327 . S
C829 C845 1.429 . S
C829 H851 0.950 . S
C830 H826 0.949 . S
C830 C838 1.574 1_556 S
C830 C846 1.368 . S
H831 C839 0.950 . S
H832 C837 0.950 1_556 S
H833 C838 0.949 . S
H834 C840 0.950 . S
H835 C841 0.950 . S
H836 C842 0.949 . S
C837 H832 0.950 1_554 S
C837 C839 1.327 . S
C837 C843 1.429 . S
C838 C830 1.574 1_554 S
C838 H833 0.949 . S
C838 C844 1.368 1_554 S
C839 C823 1.349 . S
C839 H831 0.950 . S
C839 C837 1.327 . S
C840 C828 1.349 . S
C840 H834 0.950 . S
C840 C841 1.327 . S
C841 H835 0.950 . S
C841 C840 1.327 . S
C841 C845 1.429 . S
C842 C825 1.574 . S
C842 H836 0.949 . S
C842 C846 1.368 . S
C843 C824 1.429 . S
C843 C837 1.429 . S
C843 C844 1.523 1_554 S
C844 C825 1.368 . S
C844 C838 1.368 1_556 S
C844 C843 1.523 1_556 S
C845 C829 1.429 . S
C845 C841 1.429 . S
C845 C846 1.523 . S
C846 C830 1.368 . S
C846 C842 1.368 . S
C846 C845 1.523 . S
H847 C822 0.950 . S
H848 C824 0.950 . S
H849 C825 0.949 . S
H850 C827 0.950 . S
H851 C829 0.950 . S
C852 C853 1.349 . S
C852 C854 1.327 . S
C852 H877 0.950 . S
C853 C852 1.349 . S
C853 C869 1.349 . S
C854 C852 1.327 . S
C854 C873 1.429 . S
C854 H878 0.950 . S
C855 C872 1.574 . S
C855 C874 1.368 . S
C855 H879 0.949 . S
H856 C860 0.949 . S
C857 C858 1.349 . S
C857 C859 1.327 1_556 S
C857 H880 0.950 . S
C858 C857 1.349 . S
C858 C870 1.349 1_556 S
C859 C857 1.327 1_554 S
C859 C875 1.429 . S
C859 H881 0.950 . S
C860 H856 0.949 . S
C860 C868 1.574 . S
C860 C876 1.368 . S
H861 C869 0.950 . S
H862 C867 0.950 . S
H863 C868 0.949 . S
H864 C870 0.950 . S
H865 C871 0.950 . S
H866 C872 0.949 . S
C867 H862 0.950 . S
C867 C869 1.327 . S
C867 C873 1.429 . S
C868 C860 1.574 . S
C868 H863 0.949 . S
C868 C874 1.368 . S
C869 C853 1.349 . S
C869 H861 0.950 . S
C869 C867 1.327 . S
C870 C858 1.349 1_554 S
C870 H864 0.950 . S
C870 C871 1.327 . S
C871 H865 0.950 . S
C871 C870 1.327 . S
C871 C875 1.429 . S
C872 C855 1.574 . S
C872 H866 0.949 . S
C872 C876 1.368 . S
C873 C854 1.429 . S
C873 C867 1.429 . S
C873 C874 1.523 . S
C874 C855 1.368 . S
C874 C868 1.368 . S
C874 C873 1.523 . S
C875 C859 1.429 . S
C875 C871 1.429 . S
C875 C876 1.523 . S
C876 C860 1.368 . S
C876 C872 1.368 . S
C876 C875 1.523 . S
H877 C852 0.950 . S
H878 C854 0.950 . S
H879 C855 0.949 . S
H880 C857 0.950 . S
H881 C859 0.950 . S
C882 C883 1.349 . S
C882 C884 1.327 . S
C882 H907 0.950 . S
C883 C882 1.349 . S
C883 C899 1.349 . S
C884 C882 1.327 . S
C884 C903 1.429 . S
C884 H908 0.950 . S
C885 C902 1.574 . S
C885 C904 1.368 . S
C885 H909 0.949 . S
H886 C890 0.949 . S
C887 C888 1.349 . S
C887 C889 1.327 . S
C887 H910 0.950 . S
C888 C887 1.349 . S
C888 C900 1.349 . S
C889 C887 1.327 . S
C889 C905 1.429 . S
C889 H911 0.950 . S
C890 H886 0.949 . S
C890 C898 1.574 . S
C890 C906 1.368 . S
H891 C899 0.950 . S
H892 C897 0.950 . S
H893 C898 0.949 . S
H894 C900 0.950 . S
H895 C901 0.950 . S
H896 C902 0.949 . S
C897 H892 0.950 . S
C897 C899 1.327 . S
C897 C903 1.429 . S
C898 C890 1.574 . S
C898 H893 0.949 . S
C898 C904 1.368 . S
C899 C883 1.349 . S
C899 H891 0.950 . S
C899 C897 1.327 . S
C900 C888 1.349 . S
C900 H894 0.950 . S
C900 C901 1.327 . S
C901 H895 0.950 . S
C901 C900 1.327 . S
C901 C905 1.429 . S
C902 C885 1.574 . S
C902 H896 0.949 . S
C902 C906 1.368 . S
C903 C884 1.429 . S
C903 C897 1.429 . S
C903 C904 1.523 . S
C904 C885 1.368 . S
C904 C898 1.368 . S
C904 C903 1.523 . S
C905 C889 1.429 . S
C905 C901 1.429 . S
C905 C906 1.523 . S
C906 C890 1.368 . S
C906 C902 1.368 . S
C906 C905 1.523 . S
H907 C882 0.950 . S
H908 C884 0.950 . S
H909 C885 0.949 . S
H910 C887 0.950 . S
H911 C889 0.950 . S
C912 C913 1.349 . S
C912 C914 1.327 . S
C912 H937 0.950 . S
C913 C912 1.349 . S
C913 C929 1.349 . S
C914 C912 1.327 . S
C914 C933 1.429 . S
C914 H938 0.950 . S
C915 C932 1.574 . S
C915 C934 1.368 . S
C915 H939 0.949 . S
H916 C920 0.949 . S
C917 C918 1.349 . S
C917 C919 1.327 . S
C917 H940 0.950 . S
C918 C917 1.349 . S
C918 C930 1.349 . S
C919 C917 1.327 . S
C919 C935 1.429 . S
C919 H941 0.950 . S
C920 H916 0.949 . S
C920 C928 1.574 . S
C920 C936 1.368 . S
H921 C929 0.950 . S
H922 C927 0.950 . S
H923 C928 0.949 . S
H924 C930 0.950 . S
H925 C931 0.950 . S
H926 C932 0.949 . S
C927 H922 0.950 . S
C927 C929 1.327 . S
C927 C933 1.429 . S
C928 C920 1.574 . S
C928 H923 0.949 . S
C928 C934 1.368 . S
C929 C913 1.349 . S
C929 H921 0.950 . S
C929 C927 1.327 . S
C930 C918 1.349 . S
C930 H924 0.950 . S
C930 C931 1.327 . S
C931 H925 0.950 . S
C931 C930 1.327 . S
C931 C935 1.429 . S
C932 C915 1.574 . S
C932 H926 0.949 . S
C932 C936 1.368 . S
C933 C914 1.429 . S
C933 C927 1.429 . S
C933 C934 1.523 . S
C934 C915 1.368 . S
C934 C928 1.368 . S
C934 C933 1.523 . S
C935 C919 1.429 . S
C935 C931 1.429 . S
C935 C936 1.523 . S
C936 C920 1.368 . S
C936 C932 1.368 . S
C936 C935 1.523 . S
H937 C912 0.950 . S
H938 C914 0.950 . S
H939 C915 0.949 . S
H940 C917 0.950 . S
H941 C919 0.950 . S
C942 C943 1.349 . S
C942 C944 1.327 . S
C942 H967 0.950 . S
C943 C942 1.349 . S
C943 C959 1.349 . S
C944 C942 1.327 . S
C944 C963 1.429 . S
C944 H968 0.950 . S
C945 C962 1.574 . S
C945 C964 1.368 . S
C945 H969 0.949 . S
H946 C950 0.949 . S
C947 C948 1.349 . S
C947 C949 1.327 . S
C947 H970 0.950 . S
C948 C947 1.349 . S
C948 C960 1.349 . S
C949 C947 1.327 . S
C949 C965 1.429 . S
C949 H971 0.950 . S
C950 H946 0.949 . S
C950 C958 1.574 . S
C950 C966 1.368 . S
H951 C959 0.950 . S
H952 C957 0.950 . S
H953 C958 0.949 . S
H954 C960 0.950 . S
H955 C961 0.950 . S
H956 C962 0.949 . S
C957 H952 0.950 . S
C957 C959 1.327 . S
C957 C963 1.429 . S
C958 C950 1.574 . S
C958 H953 0.949 . S
C958 C964 1.368 . S
C959 C943 1.349 . S
C959 H951 0.950 . S
C959 C957 1.327 . S
C960 C948 1.349 . S
C960 H954 0.950 . S
C960 C961 1.327 . S
C961 H955 0.950 . S
C961 C960 1.327 . S
C961 C965 1.429 . S
C962 C945 1.574 . S
C962 H956 0.949 . S
C962 C966 1.368 . S
C963 C944 1.429 . S
C963 C957 1.429 . S
C963 C964 1.523 . S
C964 C945 1.368 . S
C964 C958 1.368 . S
C964 C963 1.523 . S
C965 C949 1.429 . S
C965 C961 1.429 . S
C965 C966 1.523 . S
C966 C950 1.368 . S
C966 C962 1.368 . S
C966 C965 1.523 . S
H967 C942 0.950 . S
H968 C944 0.950 . S
H969 C945 0.949 . S
H970 C947 0.950 . S
H971 C949 0.950 . S
C972 C973 1.349 . S
C972 C974 1.327 . S
C972 H997 0.950 . S
C973 C972 1.349 . S
C973 C989 1.349 . S
C974 C972 1.327 . S
C974 C993 1.429 . S
C974 H998 0.950 . S
C975 C992 1.574 1_455 S
C975 C994 1.368 . S
C975 H999 0.949 . S
H976 C980 0.949 . S
C977 C978 1.349 . S
C977 C979 1.327 . S
C977 H1000 0.950 . S
C978 C977 1.349 . S
C978 C990 1.349 . S
C979 C977 1.327 . S
C979 C995 1.429 . S
C979 H1001 0.950 . S
C980 H976 0.949 . S
C980 C988 1.574 1_655 S
C980 C996 1.368 . S
H981 C989 0.950 . S
H982 C987 0.950 . S
H983 C988 0.949 . S
H984 C990 0.950 . S
H985 C991 0.950 . S
H986 C992 0.949 . S
C987 H982 0.950 . S
C987 C989 1.327 . S
C987 C993 1.429 . S
C988 C980 1.574 1_455 S
C988 H983 0.949 . S
C988 C994 1.368 . S
C989 C973 1.349 . S
C989 H981 0.950 . S
C989 C987 1.327 . S
C990 C978 1.349 . S
C990 H984 0.950 . S
C990 C991 1.327 . S
C991 H985 0.950 . S
C991 C990 1.327 . S
C991 C995 1.429 . S
C992 C975 1.574 1_655 S
C992 H986 0.949 . S
C992 C996 1.368 . S
C993 C974 1.429 . S
C993 C987 1.429 . S
C993 C994 1.523 . S
C994 C975 1.368 . S
C994 C988 1.368 . S
C994 C993 1.523 . S
C995 C979 1.429 . S
C995 C991 1.429 . S
C995 C996 1.523 . S
C996 C980 1.368 . S
C996 C992 1.368 . S
C996 C995 1.523 . S
H997 C972 0.950 . S
H998 C974 0.950 . S
H999 C975 0.949 . S
H1000 C977 0.950 . S
H1001 C979 0.950 . S
C1002 C1003 1.349 . S
C1002 C1004 1.327 . S
C1002 H1027 0.950 . S
C1003 C1002 1.349 . S
C1003 C1019 1.349 . S
C1004 C1002 1.327 . S
C1004 C1023 1.429 . S
C1004 H1028 0.950 1_556 S
C1005 C1022 1.574 1_565 S
C1005 C1024 1.368 . S
C1005 H1029 0.949 1_554 S
H1006 C1010 0.949 . S
C1007 C1008 1.349 . S
C1007 C1009 1.327 . S
C1007 H1030 0.950 . S
C1008 C1007 1.349 . S
C1008 C1020 1.349 . S
C1009 C1007 1.327 . S
C1009 C1025 1.429 . S
C1009 H1031 0.950 . S
C1010 H1006 0.949 . S
C1010 C1018 1.574 1_545 S
C1010 C1026 1.368 . S
H1011 C1019 0.950 . S
H1012 C1017 0.950 . S
H1013 C1018 0.949 . S
H1014 C1020 0.950 . S
H1015 C1021 0.950 . S
H1016 C1022 0.949 . S
C1017 H1012 0.950 . S
C1017 C1019 1.327 . S
C1017 C1023 1.429 . S
C1018 C1010 1.574 1_565 S
C1018 H1013 0.949 . S
C1018 C1024 1.368 . S
C1019 C1003 1.349 . S
C1019 H1011 0.950 . S
C1019 C1017 1.327 . S
C1020 C1008 1.349 . S
C1020 H1014 0.950 . S
C1020 C1021 1.327 . S
C1021 H1015 0.950 . S
C1021 C1020 1.327 . S
C1021 C1025 1.429 . S
C1022 C1005 1.574 1_545 S
C1022 H1016 0.949 . S
C1022 C1026 1.368 . S
C1023 C1004 1.429 . S
C1023 C1017 1.429 . S
C1023 C1024 1.523 1_556 S
C1024 C1005 1.368 . S
C1024 C1018 1.368 . S
C1024 C1023 1.523 1_554 S
C1025 C1009 1.429 . S
C1025 C1021 1.429 . S
C1025 C1026 1.523 . S
C1026 C1010 1.368 . S
C1026 C1022 1.368 . S
C1026 C1025 1.523 . S
H1027 C1002 0.950 . S
H1028 C1004 0.950 1_554 S
H1029 C1005 0.949 1_556 S
H1030 C1007 0.950 . S
H1031 C1009 0.950 . S
C1032 C1033 1.349 . S
C1032 C1034 1.327 . S
C1032 H1057 0.950 . S
C1033 C1032 1.349 . S
C1033 C1049 1.349 . S
C1034 C1032 1.327 . S
C1034 C1053 1.429 . S
C1034 H1058 0.950 . S
C1035 C1052 1.574 . S
C1035 C1054 1.368 . S
C1035 H1059 0.949 . S
H1036 C1040 0.949 . S
C1037 C1038 1.349 . S
C1037 C1039 1.327 . S
C1037 H1060 0.950 . S
C1038 C1037 1.349 . S
C1038 C1050 1.349 . S
C1039 C1037 1.327 . S
C1039 C1055 1.429 . S
C1039 H1061 0.950 . S
C1040 H1036 0.949 . S
C1040 C1048 1.574 . S
C1040 C1056 1.368 . S
H1041 C1049 0.950 . S
H1042 C1047 0.950 . S
H1043 C1048 0.949 . S
H1044 C1050 0.950 . S
H1045 C1051 0.950 . S
H1046 C1052 0.949 . S
C1047 H1042 0.950 . S
C1047 C1049 1.327 . S
C1047 C1053 1.429 . S
C1048 C1040 1.574 . S
C1048 H1043 0.949 . S
C1048 C1054 1.368 . S
C1049 C1033 1.349 . S
C1049 H1041 0.950 . S
C1049 C1047 1.327 . S
C1050 C1038 1.349 . S
C1050 H1044 0.950 . S
C1050 C1051 1.327 . S
C1051 H1045 0.950 . S
C1051 C1050 1.327 . S
C1051 C1055 1.429 . S
C1052 C1035 1.574 . S
C1052 H1046 0.949 . S
C1052 C1056 1.368 . S
C1053 C1034 1.429 . S
C1053 C1047 1.429 . S
C1053 C1054 1.523 . S
C1054 C1035 1.368 . S
C1054 C1048 1.368 . S
C1054 C1053 1.523 . S
C1055 C1039 1.429 . S
C1055 C1051 1.429 . S
C1055 C1056 1.523 . S
C1056 C1040 1.368 . S
C1056 C1052 1.368 . S
C1056 C1055 1.523 . S
H1057 C1032 0.950 . S
H1058 C1034 0.950 . S
H1059 C1035 0.949 . S
H1060 C1037 0.950 . S
H1061 C1039 0.950 . S
C1062 C1063 1.349 . S
C1062 C1064 1.327 . S
C1062 H1087 0.950 . S
C1063 C1062 1.349 . S
C1063 C1079 1.349 . S
C1064 C1062 1.327 . S
C1064 C1083 1.429 . S
C1064 H1088 0.950 . S
C1065 C1082 1.574 1_455 S
C1065 C1084 1.368 . S
C1065 H1089 0.949 . S
H1066 C1070 0.949 . S
C1067 C1068 1.349 . S
C1067 C1069 1.327 . S
C1067 H1090 0.950 . S
C1068 C1067 1.349 . S
C1068 C1080 1.349 . S
C1069 C1067 1.327 . S
C1069 C1085 1.429 . S
C1069 H1091 0.950 . S
C1070 H1066 0.949 . S
C1070 C1078 1.574 1_655 S
C1070 C1086 1.368 . S
H1071 C1079 0.950 . S
H1072 C1077 0.950 . S
H1073 C1078 0.949 . S
H1074 C1080 0.950 . S
H1075 C1081 0.950 . S
H1076 C1082 0.949 . S
C1077 H1072 0.950 . S
C1077 C1079 1.327 . S
C1077 C1083 1.429 . S
C1078 C1070 1.574 1_455 S
C1078 H1073 0.949 . S
C1078 C1084 1.368 . S
C1079 C1063 1.349 . S
C1079 H1071 0.950 . S
C1079 C1077 1.327 . S
C1080 C1068 1.349 . S
C1080 H1074 0.950 . S
C1080 C1081 1.327 . S
C1081 H1075 0.950 . S
C1081 C1080 1.327 . S
C1081 C1085 1.429 . S
C1082 C1065 1.574 1_655 S
C1082 H1076 0.949 . S
C1082 C1086 1.368 . S
C1083 C1064 1.429 . S
C1083 C1077 1.429 . S
C1083 C1084 1.523 . S
C1084 C1065 1.368 . S
C1084 C1078 1.368 . S
C1084 C1083 1.523 . S
C1085 C1069 1.429 . S
C1085 C1081 1.429 . S
C1085 C1086 1.523 . S
C1086 C1070 1.368 . S
C1086 C1082 1.368 . S
C1086 C1085 1.523 . S
H1087 C1062 0.950 . S
H1088 C1064 0.950 . S
H1089 C1065 0.949 . S
H1090 C1067 0.950 . S
H1091 C1069 0.950 . S
C1092 C1093 1.349 . S
C1092 C1094 1.327 . S
C1092 H1117 0.950 . S
C1093 C1092 1.349 . S
C1093 C1109 1.349 . S
C1094 C1092 1.327 . S
C1094 C1113 1.429 . S
C1094 H1118 0.950 . S
C1095 C1112 1.574 1_545 S
C1095 C1114 1.368 . S
C1095 H1119 0.949 . S
H1096 C1100 0.949 . S
C1097 C1098 1.349 . S
C1097 C1099 1.327 . S
C1097 H1120 0.950 . S
C1098 C1097 1.349 . S
C1098 C1110 1.349 . S
C1099 C1097 1.327 . S
C1099 C1115 1.429 . S
C1099 H1121 0.950 . S
C1100 H1096 0.949 . S
C1100 C1108 1.574 1_565 S
C1100 C1116 1.368 . S
H1101 C1109 0.950 . S
H1102 C1107 0.950 . S
H1103 C1108 0.949 . S
H1104 C1110 0.950 . S
H1105 C1111 0.950 . S
H1106 C1112 0.949 . S
C1107 H1102 0.950 . S
C1107 C1109 1.327 . S
C1107 C1113 1.429 . S
C1108 C1100 1.574 1_545 S
C1108 H1103 0.949 . S
C1108 C1114 1.368 . S
C1109 C1093 1.349 . S
C1109 H1101 0.950 . S
C1109 C1107 1.327 . S
C1110 C1098 1.349 . S
C1110 H1104 0.950 . S
C1110 C1111 1.327 . S
C1111 H1105 0.950 . S
C1111 C1110 1.327 . S
C1111 C1115 1.429 . S
C1112 C1095 1.574 1_565 S
C1112 H1106 0.949 . S
C1112 C1116 1.368 . S
C1113 C1094 1.429 . S
C1113 C1107 1.429 . S
C1113 C1114 1.523 . S
C1114 C1095 1.368 . S
C1114 C1108 1.368 . S
C1114 C1113 1.523 . S
C1115 C1099 1.429 . S
C1115 C1111 1.429 . S
C1115 C1116 1.523 . S
C1116 C1100 1.368 . S
C1116 C1112 1.368 . S
C1116 C1115 1.523 . S
H1117 C1092 0.950 . S
H1118 C1094 0.950 . S
H1119 C1095 0.949 . S
H1120 C1097 0.950 . S
H1121 C1099 0.950 . S
C1122 C1123 1.349 . S
C1122 C1124 1.327 . S
C1122 H1147 0.950 . S
C1123 C1122 1.349 . S
C1123 C1139 1.349 . S
C1124 C1122 1.327 . S
C1124 C1143 1.429 . S
C1124 H1148 0.950 . S
C1125 C1142 1.574 . S
C1125 C1144 1.368 . S
C1125 H1149 0.949 . S
H1126 C1130 0.949 . S
C1127 C1128 1.349 . S
C1127 C1129 1.327 . S
C1127 H1150 0.950 . S
C1128 C1127 1.349 . S
C1128 C1140 1.349 . S
C1129 C1127 1.327 . S
C1129 C1145 1.429 . S
C1129 H1151 0.950 . S
C1130 H1126 0.949 . S
C1130 C1138 1.574 . S
C1130 C1146 1.368 . S
H1131 C1139 0.950 . S
H1132 C1137 0.950 . S
H1133 C1138 0.949 . S
H1134 C1140 0.950 . S
H1135 C1141 0.950 . S
H1136 C1142 0.949 . S
C1137 H1132 0.950 . S
C1137 C1139 1.327 . S
C1137 C1143 1.429 . S
C1138 C1130 1.574 . S
C1138 H1133 0.949 . S
C1138 C1144 1.368 . S
C1139 C1123 1.349 . S
C1139 H1131 0.950 . S
C1139 C1137 1.327 . S
C1140 C1128 1.349 . S
C1140 H1134 0.950 . S
C1140 C1141 1.327 . S
C1141 H1135 0.950 . S
C1141 C1140 1.327 . S
C1141 C1145 1.429 . S
C1142 C1125 1.574 . S
C1142 H1136 0.949 . S
C1142 C1146 1.368 . S
C1143 C1124 1.429 . S
C1143 C1137 1.429 . S
C1143 C1144 1.523 . S
C1144 C1125 1.368 . S
C1144 C1138 1.368 . S
C1144 C1143 1.523 . S
C1145 C1129 1.429 . S
C1145 C1141 1.429 . S
C1145 C1146 1.523 . S
C1146 C1130 1.368 . S
C1146 C1142 1.368 . S
C1146 C1145 1.523 . S
H1147 C1122 0.950 . S
H1148 C1124 0.950 . S
H1149 C1125 0.949 . S
H1150 C1127 0.950 . S
H1151 C1129 0.950 . S
C433 C3 1.256 . S
C438 C363 1.256 . S
C463 C399 1.256 . S
C468 C39 1.256 . S
C493 C75 1.256 . S
C498 C219 1.256 . S
C523 C111 1.256 . S
C528 C255 1.256 . S
C553 C147 1.256 . S
C558 C291 1.256 . S
C583 C327 1.256 . S
C588 C183 1.256 . S
C613 C14 1.576 . S
C618 C302 1.576 . S
C643 C50 1.576 . S
C648 C338 1.576 . S
C673 C374 1.576 . S
C678 C86 1.576 . S
C703 C122 1.576 . S
C708 C410 1.576 . S
C733 C158 1.576 . S
C738 C230 1.576 . S
C763 C194 1.576 . S
C768 C266 1.576 . S
C793 C362 1.379 . S
C798 C2 1.379 . S
C823 C38 1.378 . S
C828 C398 1.378 . S
C853 C74 1.379 . S
C858 C218 1.379 . S
C883 C110 1.378 . S
C888 C254 1.378 . S
C913 C290 1.378 . S
C918 C146 1.378 . S
C943 C182 1.379 . S
C948 C326 1.379 . S
C973 C4 1.314 . S
C978 C400 1.314 . S
C1003 C220 1.314 . S
C1008 C40 1.314 . S
C1033 C256 1.315 . S
C1038 C76 1.315 . S
C1063 C292 1.315 . S
C1068 C112 1.315 . S
C1093 C328 1.315 . S
C1098 C148 1.315 . S
C1123 C364 1.315 . S
C1128 C184 1.315 . S
