# Generated by pormake.
# Topology umd, (4)-cn, num edge types: 1
# Building blocks:
#     Node 0, Type 0, BuildingBlock: ESEHIV_clean_sbu_0, # of connection points: 4
#     Node 1, Type 0, BuildingBlock: ESEHIV_clean_sbu_0, # of connection points: 4
#     Node 2, Type 0, BuildingBlock: ESEHIV_clean_sbu_0, # of connection points: 4
#     Node 3, Type 0, BuildingBlock: ESEHIV_clean_sbu_0, # of connection points: 4
#     Node 4, Type 0, BuildingBlock: ESEHIV_clean_sbu_0, # of connection points: 4
#     Node 5, Type 0, BuildingBlock: ESEHIV_clean_sbu_0, # of connection points: 4
#     Node 6, Type 0, BuildingBlock: ESEHIV_clean_sbu_0, # of connection points: 4
#     Node 7, Type 0, BuildingBlock: ESEHIV_clean_sbu_0, # of connection points: 4
#     Node 8, Type 0, BuildingBlock: ESEHIV_clean_sbu_0, # of connection points: 4
#     Node 9, Type 0, BuildingBlock: ESEHIV_clean_sbu_0, # of connection points: 4
#     Node 10, Type 0, BuildingBlock: ESEHIV_clean_sbu_0, # of connection points: 4
#     Node 11, Type 0, BuildingBlock: ESEHIV_clean_sbu_0, # of connection points: 4
#     Node 12, Type 0, BuildingBlock: ESEHIV_clean_sbu_0, # of connection points: 4
#     Node 13, Type 0, BuildingBlock: ESEHIV_clean_sbu_0, # of connection points: 4
#     Node 14, Type 0, BuildingBlock: ESEHIV_clean_sbu_0, # of connection points: 4
#     Node 15, Type 0, BuildingBlock: ESEHIV_clean_sbu_0, # of connection points: 4
#     Edge 16, Type (0, 0), BuildingBlock: CIFDUS_clean_linker_0, # of connection points: 2
#     Edge 17, Type (0, 0), BuildingBlock: CIFDUS_clean_linker_0, # of connection points: 2
#     Edge 18, Type (0, 0), BuildingBlock: CIFDUS_clean_linker_0, # of connection points: 2
#     Edge 19, Type (0, 0), BuildingBlock: CIFDUS_clean_linker_0, # of connection points: 2
#     Edge 20, Type (0, 0), BuildingBlock: CIFDUS_clean_linker_0, # of connection points: 2
#     Edge 21, Type (0, 0), BuildingBlock: CIFDUS_clean_linker_0, # of connection points: 2
#     Edge 22, Type (0, 0), BuildingBlock: CIFDUS_clean_linker_0, # of connection points: 2
#     Edge 23, Type (0, 0), BuildingBlock: CIFDUS_clean_linker_0, # of connection points: 2
#     Edge 24, Type (0, 0), BuildingBlock: CIFDUS_clean_linker_0, # of connection points: 2
#     Edge 25, Type (0, 0), BuildingBlock: CIFDUS_clean_linker_0, # of connection points: 2
#     Edge 26, Type (0, 0), BuildingBlock: CIFDUS_clean_linker_0, # of connection points: 2
#     Edge 27, Type (0, 0), BuildingBlock: CIFDUS_clean_linker_0, # of connection points: 2
#     Edge 28, Type (0, 0), BuildingBlock: CIFDUS_clean_linker_0, # of connection points: 2
#     Edge 29, Type (0, 0), BuildingBlock: CIFDUS_clean_linker_0, # of connection points: 2
#     Edge 30, Type (0, 0), BuildingBlock: CIFDUS_clean_linker_0, # of connection points: 2
#     Edge 31, Type (0, 0), BuildingBlock: CIFDUS_clean_linker_0, # of connection points: 2
#     Edge 32, Type (0, 0), BuildingBlock: CIFDUS_clean_linker_0, # of connection points: 2
#     Edge 33, Type (0, 0), BuildingBlock: CIFDUS_clean_linker_0, # of connection points: 2
#     Edge 34, Type (0, 0), BuildingBlock: CIFDUS_clean_linker_0, # of connection points: 2
#     Edge 35, Type (0, 0), BuildingBlock: CIFDUS_clean_linker_0, # of connection points: 2
#     Edge 36, Type (0, 0), BuildingBlock: CIFDUS_clean_linker_0, # of connection points: 2
#     Edge 37, Type (0, 0), BuildingBlock: CIFDUS_clean_linker_0, # of connection points: 2
#     Edge 38, Type (0, 0), BuildingBlock: CIFDUS_clean_linker_0, # of connection points: 2
#     Edge 39, Type (0, 0), BuildingBlock: CIFDUS_clean_linker_0, # of connection points: 2
#     Edge 40, Type (0, 0), BuildingBlock: CIFDUS_clean_linker_0, # of connection points: 2
#     Edge 41, Type (0, 0), BuildingBlock: CIFDUS_clean_linker_0, # of connection points: 2
#     Edge 42, Type (0, 0), BuildingBlock: CIFDUS_clean_linker_0, # of connection points: 2
#     Edge 43, Type (0, 0), BuildingBlock: CIFDUS_clean_linker_0, # of connection points: 2
#     Edge 44, Type (0, 0), BuildingBlock: CIFDUS_clean_linker_0, # of connection points: 2
#     Edge 45, Type (0, 0), BuildingBlock: CIFDUS_clean_linker_0, # of connection points: 2
#     Edge 46, Type (0, 0), BuildingBlock: CIFDUS_clean_linker_0, # of connection points: 2
#     Edge 47, Type (0, 0), BuildingBlock: CIFDUS_clean_linker_0, # of connection points: 2
# Relax obj value: 0.041
# Max RMSD: 0.127
# Mean RMSD: 0.127
data_MOF--net-umd--node1-ESEHIV_clean_sbu_0--edge1-CIFDUS_clean_linker_0
_symmetry_space_group_name_H-M    P1
_symmetry_Int_Tables_number       1
_symmetry_cell_setting            triclinic
loop_
_symmetry_equiv_pos_as_xyz
'x, y, z'
_cell_length_a     42.542394
_cell_length_b     42.615192
_cell_length_c     48.278368
_cell_angle_alpha  89.975685
_cell_angle_beta   90.455607
_cell_angle_gamma 89.80011
loop_
_atom_site_label
_atom_site_type_symbol
_atom_site_fract_x
_atom_site_fract_y
_atom_site_fract_z
_atom_type_partial_charge
Cu0 Cu 0.19009 0.4477 0.16796 0.0
N1 N 0.14624 0.4488 0.16614 0.0
N2 N 0.09723 0.46814 0.16694 0.0
C3 C 0.12826 0.47467 0.16883 0.0
C4 C 0.09581 0.43678 0.16289 0.0
C5 C 0.12607 0.42494 0.16245 0.0
O6 O 0.2026 0.48133 0.19302 0.0
C7 C 0.19691 0.46978 0.1117 0.0
O8 O 0.17503 0.49066 0.11716 0.0
H9 H 0.13794 0.49788 0.1718 0.0
H10 H 0.13289 0.40065 0.15982 0.0
N11 N 0.20419 0.40863 0.18072 0.0
N12 N 0.2325 0.36438 0.18184 0.0
C13 C 0.22421 0.38989 0.16692 0.0
C14 C 0.19927 0.39428 0.20516 0.0
C15 C 0.217 0.36702 0.206 0.0
C16 C 0.22129 0.47827 0.2136 0.0
O17 O 0.23697 0.45193 0.2169 0.0
H18 H 0.23338 0.39541 0.14665 0.0
H19 H 0.18461 0.40348 0.22148 0.0
O20 O 0.20692 0.45179 0.13089 0.0
H21 H 0.07449 0.42318 0.16086 0.0
H22 H 0.21845 0.35051 0.22301 0.0
Cu23 Cu 0.59086 0.18454 0.64976 0.0
N24 N 0.58836 0.14097 0.65202 0.0
N25 N 0.56858 0.09244 0.65292 0.0
C26 C 0.56232 0.12333 0.64939 0.0
C27 C 0.59982 0.09075 0.65793 0.0
C28 C 0.61192 0.1207 0.65738 0.0
O29 O 0.57365 0.20175 0.68382 0.0
C30 C 0.57455 0.22514 0.60588 0.0
O31 O 0.59041 0.2455 0.62084 0.0
H32 H 0.5392 0.1331 0.64549 0.0
H33 H 0.63618 0.12727 0.66077 0.0
N34 N 0.63292 0.19589 0.64616 0.0
N35 N 0.67807 0.22221 0.64953 0.0
C36 C 0.64917 0.21784 0.66028 0.0
C37 C 0.65216 0.18601 0.62597 0.0
C38 C 0.68004 0.20218 0.62798 0.0
C39 C 0.54421 0.20252 0.68823 0.0
O40 O 0.52484 0.19419 0.66824 0.0
H41 H 0.63949 0.2313 0.67722 0.0
H42 H 0.64591 0.16888 0.61036 0.0
O43 O 0.56962 0.19797 0.61587 0.0
H44 H 0.61312 0.06941 0.66149 0.0
H45 H 0.70007 0.19964 0.61447 0.0
Cu46 Cu 0.84813 0.59126 0.16142 0.0
N47 N 0.89201 0.59033 0.16328 0.0
N48 N 0.94075 0.57036 0.16336 0.0
C49 C 0.90964 0.56403 0.16295 0.0
C50 C 0.94268 0.60198 0.164 0.0
C51 C 0.91258 0.61424 0.1638 0.0
O52 O 0.83304 0.56214 0.18953 0.0
C53 C 0.83829 0.59675 0.10377 0.0
O54 O 0.84605 0.62607 0.10854 0.0
H55 H 0.89972 0.54069 0.16236 0.0
H56 H 0.90621 0.63881 0.16346 0.0
N57 N 0.83214 0.63161 0.16876 0.0
N58 N 0.80079 0.67387 0.16863 0.0
C59 C 0.80619 0.64516 0.15774 0.0
C60 C 0.84346 0.6526 0.18713 0.0
C61 C 0.8241 0.67859 0.18719 0.0
C62 C 0.83867 0.56811 0.21497 0.0
O63 O 0.85375 0.59395 0.22136 0.0
H64 H 0.7914 0.63413 0.14224 0.0
H65 H 0.86436 0.64929 0.19968 0.0
O66 O 0.83674 0.57766 0.12404 0.0
H67 H 0.96426 0.61535 0.16377 0.0
H68 H 0.82726 0.69961 0.19948 0.0
Cu69 Cu 0.44301 0.84576 0.66288 0.0
N70 N 0.44562 0.88962 0.66205 0.0
N71 N 0.46564 0.9381 0.66192 0.0
C72 C 0.47182 0.9071 0.66456 0.0
C73 C 0.43431 0.94013 0.65762 0.0
C74 C 0.42207 0.91026 0.6577 0.0
O75 O 0.46821 0.83113 0.69409 0.0
C76 C 0.44024 0.84151 0.60623 0.0
O77 O 0.41732 0.86136 0.61134 0.0
H78 H 0.49503 0.89721 0.66758 0.0
H79 H 0.39772 0.90403 0.65438 0.0
N80 N 0.40158 0.83405 0.66989 0.0
N81 N 0.35695 0.80659 0.67155 0.0
C82 C 0.38634 0.80813 0.66118 0.0
C83 C 0.38134 0.84917 0.68651 0.0
C84 C 0.35377 0.83243 0.68746 0.0
C85 C 0.49807 0.83048 0.69537 0.0
O86 O 0.51437 0.83722 0.67317 0.0
H87 H 0.39673 0.79069 0.64774 0.0
H88 H 0.38657 0.87051 0.69772 0.0
O89 O 0.45551 0.8299 0.62663 0.0
H90 H 0.42109 0.96164 0.65474 0.0
H91 H 0.3334 0.83826 0.69975 0.0
Cu92 Cu 0.18964 0.58803 0.40875 0.0
N93 N 0.1463 0.58586 0.40239 0.0
N94 N 0.09826 0.56531 0.39711 0.0
C95 C 0.1291 0.55939 0.40176 0.0
C96 C 0.0961 0.59683 0.39471 0.0
C97 C 0.12577 0.60943 0.39793 0.0
O98 O 0.21006 0.56504 0.37915 0.0
C99 C 0.22115 0.57647 0.46007 0.0
O100 O 0.24389 0.59332 0.44946 0.0
H101 H 0.13906 0.53629 0.40514 0.0
H102 H 0.13194 0.63401 0.39709 0.0
N103 N 0.20313 0.62976 0.40969 0.0
N104 N 0.23261 0.67266 0.40442 0.0
C105 C 0.22669 0.6432 0.39543 0.0
C106 C 0.19384 0.65146 0.42815 0.0
C107 C 0.21197 0.67792 0.42499 0.0
C108 C 0.20435 0.57377 0.35437 0.0
O109 O 0.18658 0.59867 0.35031 0.0
H110 H 0.24019 0.63116 0.37975 0.0
H111 H 0.17586 0.6478 0.44352 0.0
O112 O 0.19724 0.56996 0.44515 0.0
H113 H 0.07471 0.6099 0.39061 0.0
H114 H 0.21039 0.69924 0.43709 0.0
Cu115 Cu 0.45076 0.19646 0.88588 0.0
N116 N 0.45688 0.15356 0.89158 0.0
N117 N 0.47733 0.10517 0.89155 0.0
C118 C 0.48007 0.13493 0.88213 0.0
C119 C 0.45129 0.10524 0.90738 0.0
C120 C 0.43882 0.13507 0.90738 0.0
O121 O 0.4729 0.20949 0.8526 0.0
C122 C 0.48251 0.20782 0.93687 0.0
O123 O 0.5012 0.18519 0.92851 0.0
H124 H 0.49894 0.14323 0.86921 0.0
H125 H 0.41809 0.14288 0.91827 0.0
N126 N 0.40799 0.20245 0.87897 0.0
N127 N 0.35945 0.2226 0.87785 0.0
C128 C 0.38965 0.22708 0.88579 0.0
C129 C 0.38887 0.18189 0.86618 0.0
C130 C 0.35894 0.19419 0.86551 0.0
C131 C 0.50253 0.20992 0.84926 0.0
O132 O 0.52114 0.20385 0.87045 0.0
H133 H 0.39818 0.24756 0.89672 0.0
H134 H 0.39626 0.15945 0.85798 0.0
O135 O 0.46138 0.21813 0.92031 0.0
H136 H 0.44172 0.08517 0.9181 0.0
H137 H 0.33845 0.18322 0.85632 0.0
Cu138 Cu 0.85173 0.43802 0.40232 0.0
N139 N 0.89552 0.44005 0.40006 0.0
N140 N 0.94366 0.46121 0.39911 0.0
C141 C 0.91232 0.46668 0.39805 0.0
C142 C 0.94651 0.42975 0.40179 0.0
C143 C 0.91682 0.41681 0.40247 0.0
O144 O 0.83546 0.46892 0.3758 0.0
C145 C 0.81427 0.45261 0.45046 0.0
O146 O 0.78981 0.45285 0.43368 0.0
H147 H 0.90157 0.48964 0.39621 0.0
H148 H 0.91117 0.39231 0.40537 0.0
N149 N 0.8373 0.39742 0.39393 0.0
N150 N 0.80696 0.35466 0.39233 0.0
C151 C 0.81162 0.38305 0.40407 0.0
C152 C 0.84952 0.37708 0.37553 0.0
C153 C 0.8307 0.35082 0.37431 0.0
C154 C 0.83153 0.46184 0.35033 0.0
O155 O 0.83541 0.4326 0.34256 0.0
H156 H 0.79625 0.39338 0.41931 0.0
H157 H 0.87034 0.38136 0.3634 0.0
O158 O 0.84156 0.44784 0.44065 0.0
H159 H 0.96841 0.41701 0.40418 0.0
H160 H 0.83427 0.3304 0.36136 0.0
Cu161 Cu 0.60331 0.85844 0.88835 0.0
N162 N 0.60003 0.90169 0.8841 0.0
N163 N 0.58088 0.95052 0.88497 0.0
C164 C 0.5765 0.92038 0.8927 0.0
C165 C 0.60825 0.95068 0.87101 0.0
C166 C 0.62 0.92051 0.87052 0.0
O167 O 0.58416 0.83935 0.85584 0.0
C168 C 0.58845 0.81961 0.93361 0.0
O169 O 0.60344 0.79841 0.91897 0.0
H170 H 0.55623 0.91184 0.90378 0.0
H171 H 0.64144 0.91273 0.86074 0.0
N172 N 0.64572 0.84784 0.89092 0.0
N173 N 0.69113 0.82183 0.88758 0.0
C174 C 0.66119 0.82432 0.87826 0.0
C175 C 0.66653 0.8607 0.90865 0.0
C176 C 0.69457 0.84469 0.90667 0.0
C177 C 0.55444 0.83822 0.85307 0.0
O178 O 0.53674 0.84742 0.87374 0.0
H179 H 0.65034 0.80852 0.86349 0.0
H180 H 0.6613 0.87984 0.9226 0.0
O181 O 0.58394 0.8467 0.92319 0.0
H182 H 0.61911 0.97113 0.86192 0.0
H183 H 0.71573 0.84923 0.91859 0.0
Cu184 Cu 0.85225 0.60172 0.88555 0.0
N185 N 0.89549 0.59579 0.88938 0.0
N186 N 0.94281 0.57281 0.89095 0.0
C187 C 0.91195 0.56926 0.88486 0.0
C188 C 0.94573 0.60285 0.89951 0.0
C189 C 0.91652 0.61691 0.89853 0.0
O190 O 0.83673 0.57625 0.85507 0.0
C191 C 0.84188 0.57697 0.94007 0.0
O192 O 0.8637 0.55623 0.93408 0.0
H193 H 0.90142 0.54777 0.87741 0.0
H194 H 0.91085 0.6407 0.90457 0.0
N195 N 0.84436 0.64301 0.87506 0.0
N196 N 0.82088 0.68984 0.87313 0.0
C197 C 0.82614 0.66383 0.88845 0.0
C198 C 0.85105 0.65633 0.85054 0.0
C199 C 0.83649 0.68527 0.84925 0.0
C200 C 0.8336 0.54663 0.8543 0.0
O201 O 0.83885 0.53004 0.87682 0.0
H202 H 0.81533 0.65918 0.90825 0.0
H203 H 0.86428 0.64509 0.83425 0.0
O204 O 0.8323 0.59589 0.92137 0.0
H205 H 0.96721 0.6137 0.9068 0.0
H206 H 0.83661 0.70129 0.83185 0.0
Cu207 Cu 0.44412 0.85075 0.38435 0.0
N208 N 0.44273 0.89314 0.37484 0.0
N209 N 0.46037 0.942 0.36871 0.0
C210 C 0.46817 0.91142 0.37153 0.0
C211 C 0.42869 0.94293 0.37022 0.0
C212 C 0.41787 0.91272 0.37401 0.0
O213 O 0.47935 0.83353 0.36336 0.0
C214 C 0.45672 0.82939 0.44154 0.0
O215 O 0.46397 0.80121 0.43256 0.0
H216 H 0.49204 0.90261 0.37278 0.0
H217 H 0.39374 0.90569 0.3771 0.0
N218 N 0.4058 0.8315 0.3754 0.0
N219 N 0.36388 0.80005 0.37711 0.0
C220 C 0.39077 0.80909 0.38985 0.0
C221 C 0.38756 0.83711 0.35301 0.0
C222 C 0.36183 0.81757 0.35389 0.0
C223 C 0.47533 0.81874 0.34064 0.0
O224 O 0.44695 0.80951 0.33371 0.0
H225 H 0.39953 0.79937 0.40914 0.0
H226 H 0.39281 0.85407 0.33704 0.0
O227 O 0.44947 0.85095 0.42436 0.0
H228 H 0.41441 0.96398 0.36927 0.0
H229 H 0.34281 0.81667 0.33887 0.0
Cu230 Cu 0.18726 0.44122 0.89328 0.0
N231 N 0.14353 0.44399 0.89431 0.0
N232 N 0.09559 0.46577 0.89334 0.0
C233 C 0.12609 0.46878 0.88615 0.0
C234 C 0.09391 0.43779 0.90641 0.0
C235 C 0.12351 0.42453 0.90711 0.0
O236 O 0.20149 0.46404 0.86101 0.0
C237 C 0.20454 0.44095 0.94955 0.0
O238 O 0.19983 0.41067 0.94679 0.0
H239 H 0.1359 0.48906 0.87595 0.0
H240 H 0.13027 0.40299 0.91744 0.0
N241 N 0.19999 0.39952 0.88884 0.0
N242 N 0.23051 0.35681 0.88566 0.0
C243 C 0.22922 0.3877 0.89203 0.0
C244 C 0.18223 0.37548 0.8799 0.0
C245 C 0.2009 0.34914 0.87801 0.0
C246 C 0.20386 0.49371 0.85949 0.0
O247 O 0.19829 0.51079 0.88157 0.0
H248 H 0.24906 0.40159 0.89886 0.0
H249 H 0.15758 0.37717 0.87447 0.0
O250 O 0.20212 0.4586 0.92833 0.0
H251 H 0.07319 0.4283 0.91616 0.0
H252 H 0.19334 0.32637 0.87067 0.0
Cu253 Cu 0.5862 0.18775 0.39228 0.0
N254 N 0.58367 0.14457 0.3863 0.0
N255 N 0.56277 0.09669 0.3815 0.0
C256 C 0.55707 0.12754 0.38588 0.0
C257 C 0.59433 0.09442 0.37906 0.0
C258 C 0.60713 0.12396 0.38202 0.0
O259 O 0.56955 0.20818 0.35919 0.0
C260 C 0.56893 0.21976 0.44158 0.0
O261 O 0.58725 0.24205 0.43218 0.0
H262 H 0.534 0.13777 0.38859 0.0
H263 H 0.63179 0.12997 0.38138 0.0
N264 N 0.628 0.19938 0.39862 0.0
N265 N 0.67262 0.22691 0.3994 0.0
C266 C 0.64495 0.22198 0.38615 0.0
C267 C 0.64563 0.18964 0.42025 0.0
C268 C 0.67312 0.2066 0.42082 0.0
C269 C 0.54019 0.21012 0.35424 0.0
O270 O 0.52038 0.20122 0.37343 0.0
H271 H 0.6365 0.23565 0.36869 0.0
H272 H 0.63834 0.17231 0.43523 0.0
O273 O 0.56326 0.19609 0.42626 0.0
H274 H 0.60743 0.07292 0.37594 0.0
H275 H 0.69179 0.2046 0.43609 0.0
Cu276 Cu 0.85497 0.4321 0.66893 0.0
N277 N 0.89801 0.43516 0.67596 0.0
N278 N 0.94528 0.4574 0.68074 0.0
C279 C 0.91458 0.46192 0.67461 0.0
C280 C 0.94815 0.42638 0.68598 0.0
C281 C 0.91891 0.41271 0.68303 0.0
O282 O 0.8346 0.45774 0.69679 0.0
C283 C 0.82406 0.44715 0.61607 0.0
O284 O 0.79672 0.44218 0.62772 0.0
H285 H 0.90433 0.4842 0.66868 0.0
H286 H 0.91334 0.38818 0.6858 0.0
N287 N 0.84149 0.39103 0.67475 0.0
N288 N 0.81285 0.34724 0.6727 0.0
C289 C 0.82104 0.37397 0.65957 0.0
C290 C 0.84647 0.37445 0.6981 0.0
C291 C 0.8289 0.34742 0.6969 0.0
C292 C 0.83494 0.48753 0.69781 0.0
O293 O 0.84576 0.50341 0.67662 0.0
H294 H 0.81103 0.38176 0.64007 0.0
H295 H 0.86083 0.38223 0.71535 0.0
O296 O 0.84915 0.44489 0.63048 0.0
H297 H 0.96969 0.41443 0.69182 0.0
H298 H 0.82745 0.32967 0.71287 0.0
Cu299 Cu 0.59087 0.85458 0.14949 0.0
N300 N 0.59008 0.89749 0.15714 0.0
N301 N 0.57117 0.94632 0.16149 0.0
C302 C 0.56513 0.91656 0.15337 0.0
C303 C 0.60127 0.94577 0.17068 0.0
C304 C 0.61285 0.91562 0.16797 0.0
O305 O 0.56774 0.83341 0.17864 0.0
C306 C 0.57702 0.82553 0.09786 0.0
O307 O 0.59225 0.80146 0.10853 0.0
H308 H 0.54304 0.90859 0.14469 0.0
H309 H 0.63605 0.9074 0.17382 0.0
N310 N 0.63226 0.83998 0.14743 0.0
N311 N 0.6746 0.80903 0.15059 0.0
C312 C 0.646 0.81584 0.16103 0.0
C313 C 0.65294 0.84875 0.12799 0.0
C314 C 0.67905 0.82965 0.12982 0.0
C315 C 0.57643 0.83727 0.20374 0.0
O316 O 0.60185 0.85378 0.20885 0.0
H317 H 0.63465 0.80247 0.17716 0.0
H318 H 0.64865 0.86689 0.11273 0.0
O319 O 0.57203 0.84952 0.11293 0.0
H320 H 0.6139 0.96551 0.17933 0.0
H321 H 0.69948 0.83043 0.11661 0.0
Cu322 Cu 0.18367 0.59921 0.66813 0.0
N323 N 0.14041 0.59215 0.66745 0.0
N324 N 0.09407 0.5677 0.66934 0.0
C325 C 0.12545 0.56521 0.67342 0.0
C326 C 0.08922 0.59737 0.66043 0.0
C327 C 0.11783 0.61231 0.65916 0.0
O328 O 0.20107 0.57741 0.69999 0.0
C329 C 0.22768 0.58497 0.62442 0.0
O330 O 0.25029 0.59287 0.64171 0.0
H331 H 0.13736 0.54417 0.68044 0.0
H332 H 0.12197 0.63601 0.65209 0.0
N333 N 0.1908 0.64208 0.67325 0.0
N334 N 0.21323 0.68948 0.67429 0.0
C335 C 0.21521 0.65968 0.66479 0.0
C336 C 0.17295 0.6613 0.68867 0.0
C337 C 0.18658 0.6905 0.68926 0.0
C338 C 0.20526 0.54792 0.70155 0.0
O339 O 0.20046 0.53055 0.67945 0.0
H340 H 0.23415 0.65079 0.65222 0.0
H341 H 0.15189 0.65427 0.6994 0.0
O342 O 0.19931 0.58537 0.63249 0.0
H343 H 0.06674 0.60728 0.65435 0.0
H344 H 0.17813 0.71057 0.70078 0.0
Cu345 Cu 0.45348 0.19904 0.15449 0.0
N346 N 0.45594 0.15553 0.15891 0.0
N347 N 0.47557 0.10681 0.16173 0.0
C348 C 0.48133 0.13709 0.1551 0.0
C349 C 0.4453 0.1064 0.17001 0.0
C350 C 0.43333 0.13643 0.16829 0.0
O351 O 0.47235 0.21706 0.18767 0.0
C352 C 0.46838 0.19435 0.09857 0.0
O353 O 0.44985 0.16993 0.10063 0.0
H354 H 0.50355 0.14586 0.14764 0.0
H355 H 0.40997 0.14396 0.17404 0.0
N356 N 0.41125 0.21129 0.1521 0.0
N357 N 0.36633 0.23798 0.1574 0.0
C358 C 0.39666 0.23486 0.16559 0.0
C359 C 0.38936 0.19903 0.13504 0.0
C360 C 0.36171 0.21546 0.13819 0.0
C361 C 0.50172 0.21513 0.1926 0.0
O362 O 0.52029 0.20407 0.17328 0.0
H363 H 0.40827 0.24992 0.18052 0.0
H364 H 0.39328 0.17959 0.1211 0.0
O365 O 0.47417 0.21091 0.11998 0.0
H366 H 0.43284 0.08609 0.17759 0.0
H367 H 0.33984 0.21109 0.12726 0.0
H368 H 0.03812 0.46083 0.1467 0.0
H369 H 0.09743 0.52531 0.19187 0.0
H370 H 0.05428 0.56285 0.19442 0.0
H371 H 0.99943 0.57751 0.18413 0.0
H372 H 0.93994 0.51273 0.13966 0.0
H373 H 0.98311 0.47504 0.13717 0.0
C374 C 0.04162 0.48291 0.15736 0.0
C375 C 0.07127 0.49008 0.16891 0.0
C376 C 1.01652 0.50441 0.15903 0.0
C377 C 0.07521 0.51916 0.18233 0.0
C378 C 0.0504 0.54067 0.18398 0.0
C379 C 0.99596 0.55524 0.17374 0.0
C380 C 0.96638 0.54806 0.16213 0.0
C381 C 0.02098 0.53361 0.17232 0.0
C382 C 0.96225 0.51881 0.1491 0.0
C383 C 0.98703 0.49727 0.14751 0.0
H384 H 0.46018 0.99434 0.6366 0.0
H385 H 0.52138 0.93944 0.68946 0.0
H386 H 0.55906 0.9825 0.69111 0.0
H387 H 0.57418 0.03606 0.67818 0.0
H388 H 0.51299 0.09077 0.6251 0.0
H389 H 0.47541 0.04774 0.6235 0.0
C390 C 0.48159 0.99186 0.64871 0.0
C391 C 0.48785 0.96362 0.6629 0.0
C392 C 0.5031 1.01677 0.64967 0.0
C393 C 0.51607 0.9607 0.67807 0.0
C394 C 0.53757 0.98541 0.67915 0.0
C395 C 0.55281 0.03852 0.66603 0.0
C396 C 0.54652 0.06677 0.65183 0.0
C397 C 0.53133 1.01355 0.66502 0.0
C398 C 0.51834 0.06957 0.63656 0.0
C399 C 0.49687 0.04486 0.63549 0.0
H400 H 0.03693 0.57509 0.40871 0.0
H401 H 0.10253 0.50428 0.38163 0.0
H402 H 0.06031 0.4657 0.37963 0.0
H403 H 1.00468 0.45198 0.38555 0.0
H404 H 0.93933 0.52282 0.41327 0.0
H405 H 0.98128 0.56147 0.41429 0.0
C406 C 0.04198 0.55133 0.40209 0.0
C407 C 0.07301 0.54271 0.39542 0.0
C408 C 1.01753 0.5292 0.40094 0.0
C409 C 0.07906 0.51157 0.38728 0.0
C410 C 0.05484 0.48948 0.38598 0.0
C411 C 0.99957 0.47578 0.392 0.0
C412 C 0.96864 0.48424 0.39926 0.0
C413 C 0.02399 0.49798 0.39288 0.0
C414 C 0.96262 0.51549 0.40715 0.0
C415 C 0.98673 0.53768 0.40795 0.0
H416 H 0.57348 1.00205 0.85311 0.0
H417 H 0.54186 0.95824 0.92842 0.0
H418 H 0.50673 1.0025 0.9371 0.0
H419 H 0.48556 0.05382 0.92364 0.0
H420 H 0.51643 0.09739 0.84789 0.0
H421 H 0.5519 0.0534 0.83943 0.0
C422 C 0.55913 1.00232 0.87155 0.0
C423 C 0.56034 0.97683 0.89009 0.0
C424 C 0.53897 0.02787 0.87641 0.0
C425 C 0.54114 0.97734 0.91365 0.0
C426 C 0.52116 1.00273 0.91871 0.0
C427 C 0.49972 0.05363 0.9051 0.0
C428 C 0.49818 0.07902 0.88646 0.0
C429 C 0.51985 0.02809 0.9002 0.0
C430 C 0.51731 0.07846 0.86282 0.0
C431 C 0.53751 0.05318 0.85786 0.0
H432 H 1.00519 0.58235 0.88574 0.0
H433 H 0.9356 0.5096 0.89414 0.0
H434 H 0.97686 0.46978 0.89419 0.0
H435 H 0.03288 0.45563 0.89342 0.0
H436 H 0.10242 0.52881 0.88726 0.0
H437 H 0.06105 0.56823 0.88465 0.0
C438 C 0.99899 0.55784 0.88778 0.0
C439 C 0.96721 0.54917 0.89003 0.0
C440 C 0.0229 0.535 0.88815 0.0
C441 C 0.95973 0.5171 0.89207 0.0
C442 C 0.98338 0.49424 0.89228 0.0
C443 C 0.03905 0.48018 0.89166 0.0
C444 C 0.0709 0.48901 0.89059 0.0
C445 C 1.01507 0.50294 0.89058 0.0
C446 C 0.07827 0.52104 0.88778 0.0
C447 C 0.05455 0.54375 0.88649 0.0
H448 H 0.56982 0.0396 0.35759 0.0
H449 H 0.50397 0.09659 0.40318 0.0
H450 H 0.46577 0.05425 0.40185 0.0
H451 H 0.45151 1.0002 0.38933 0.0
H452 H 0.51779 0.94255 0.34518 0.0
H453 H 0.55547 0.98572 0.3448 0.0
C454 C 0.54726 0.04278 0.36744 0.0
C455 C 0.54003 0.0715 0.38044 0.0
C456 C 0.52541 1.01807 0.36697 0.0
C457 C 0.51028 0.0751 0.39266 0.0
C458 C 0.48836 0.05074 0.39208 0.0
C459 C 0.47402 0.99722 0.37931 0.0
C460 C 0.48179 0.96815 0.36729 0.0
C461 C 0.4957 0.02208 0.37939 0.0
C462 C 0.51134 0.96455 0.35481 0.0
C463 C 0.53286 0.98927 0.35452 0.0
H464 H 1.00753 0.44859 0.67258 0.0
H465 H 0.93793 0.51962 0.69015 0.0
H466 H 0.97814 0.56008 0.68854 0.0
H467 H 0.03287 0.5756 0.68134 0.0
H468 H 0.10275 0.5049 0.66395 0.0
H469 H 0.06286 0.46401 0.66704 0.0
C470 C 1.0012 0.47284 0.67638 0.0
C471 C 0.96959 0.48096 0.68118 0.0
C472 C 0.02455 0.49611 0.67556 0.0
C473 C 0.96187 0.51266 0.68583 0.0
C474 C 0.98492 0.53586 0.68509 0.0
C475 C 0.03936 0.55127 0.67809 0.0
C476 C 0.07076 0.54343 0.67229 0.0
C477 C 1.01626 0.52791 0.6797 0.0
C478 C 0.07885 0.51166 0.66869 0.0
C479 C 0.05598 0.48824 0.67028 0.0
H480 H 0.46118 0.0451 0.15926 0.0
H481 H 0.5395 0.10914 0.163 0.0
H482 H 0.5761 0.06503 0.16265 0.0
H483 H 0.586 1.00815 0.16181 0.0
H484 H 0.50734 0.94438 0.16043 0.0
H485 H 0.47097 0.9885 0.15941 0.0
C486 C 0.4862 0.04954 0.16028 0.0
C487 C 0.49734 0.08063 0.16117 0.0
C488 C 0.50721 0.02402 0.16045 0.0
C489 C 0.53003 0.08565 0.16193 0.0
C490 C 0.55108 0.06035 0.16193 0.0
C491 C 0.56094 1.0038 0.16154 0.0
C492 C 0.54967 0.97273 0.16109 0.0
C493 C 0.53994 0.02941 0.16129 0.0
C494 C 0.51695 0.96783 0.16033 0.0
C495 C 0.496 0.99314 0.15993 0.0
H496 H 0.1926 0.58503 0.29991 0.0
H497 H 0.23901 0.51935 0.35483 0.0
H498 H 0.25123 0.48546 0.31546 0.0
H499 H 0.24484 0.47245 0.26606 0.0
H500 H 0.19635 0.53736 0.21178 0.0
H501 H 0.18918 0.5737 0.25028 0.0
C502 C 0.20567 0.56346 0.30331 0.0
C503 C 0.21464 0.55467 0.33037 0.0
C504 C 0.21218 0.54387 0.28067 0.0
C505 C 0.23167 0.52666 0.33427 0.0
C506 C 0.23863 0.50723 0.31176 0.0
C507 C 0.23315 0.49477 0.26252 0.0
C508 C 0.22104 0.50207 0.23603 0.0
C509 C 0.22846 0.5153 0.28493 0.0
C510 C 0.20582 0.53105 0.23193 0.0
C511 C 0.20161 0.55183 0.25397 0.0
H512 H 0.5776 0.20831 0.73664 0.0
H513 H 0.48309 0.21064 0.70346 0.0
H514 H 0.4621 0.21556 0.75014 0.0
H515 H 0.47017 0.21539 0.80049 0.0
H516 H 0.56445 0.21126 0.83404 0.0
H517 H 0.58581 0.21111 0.7872 0.0
C518 C 0.55243 0.21029 0.73957 0.0
C519 C 0.53199 0.20895 0.71646 0.0
C520 C 0.5404 0.2126 0.76661 0.0
C521 C 0.49942 0.21145 0.72077 0.0
C522 C 0.48735 0.21422 0.74752 0.0
C523 C 0.49542 0.21481 0.79764 0.0
C524 C 0.51561 0.21319 0.8209 0.0
C525 C 0.50756 0.21424 0.77062 0.0
C526 C 0.54828 0.21243 0.81663 0.0
C527 C 0.56055 0.21228 0.78979 0.0
H528 H 0.83891 0.57849 0.27046 0.0
H529 H 0.82136 0.50653 0.20944 0.0
H530 H 0.81473 0.46782 0.24634 0.0
H531 H 0.81844 0.45363 0.29561 0.0
H532 H 0.83639 0.52557 0.35659 0.0
H533 H 0.83789 0.56517 0.31998 0.0
C534 C 0.83338 0.55438 0.2652 0.0
C535 C 0.83101 0.54535 0.23717 0.0
C536 C 0.82973 0.53225 0.28651 0.0
C537 C 0.8234 0.51411 0.23079 0.0
C538 C 0.81971 0.49194 0.2519 0.0
C539 C 0.82231 0.47803 0.30098 0.0
C540 C 0.82761 0.48653 0.32885 0.0
C541 C 0.82348 0.50062 0.27979 0.0
C542 C 0.83228 0.51832 0.33537 0.0
C543 C 0.83331 0.54097 0.31441 0.0
H544 H 0.58351 0.83248 0.80302 0.0
H545 H 0.49246 0.82792 0.84164 0.0
H546 H 0.46734 0.82222 0.79633 0.0
H547 H 0.47067 0.82302 0.74572 0.0
H548 H 0.56133 0.82974 0.70668 0.0
H549 H 0.58707 0.82977 0.75213 0.0
C550 C 0.55821 0.82978 0.80157 0.0
C551 C 0.53991 0.83083 0.82577 0.0
C552 C 0.54378 0.82711 0.77532 0.0
C553 C 0.50714 0.8274 0.82342 0.0
C554 C 0.49271 0.82418 0.79748 0.0
C555 C 0.4961 0.82411 0.74706 0.0
C556 C 0.51397 0.82658 0.72271 0.0
C557 C 0.51072 0.82471 0.77327 0.0
C558 C 0.54692 0.82793 0.725 0.0
C559 C 0.56168 0.82803 0.75103 0.0
H560 H 0.82928 0.57411 0.80344 0.0
H561 H 0.82593 0.48386 0.844 0.0
H562 H 0.82267 0.45785 0.79896 0.0
H563 H 0.82539 0.46048 0.74821 0.0
H564 H 0.83131 0.55064 0.70779 0.0
H565 H 0.82858 0.57689 0.75269 0.0
C566 C 0.82747 0.54875 0.80253 0.0
C567 C 0.82807 0.53098 0.82718 0.0
C568 C 0.82619 0.5339 0.77654 0.0
C569 C 0.82566 0.49815 0.82544 0.0
C570 C 0.82385 0.48324 0.79966 0.0
C571 C 0.8256 0.4859 0.74912 0.0
C572 C 0.82871 0.50353 0.72456 0.0
C573 C 0.82476 0.50084 0.77508 0.0
C574 C 0.82904 0.53645 0.72628 0.0
C575 C 0.82758 0.5515 0.75199 0.0
H576 H 0.47137 0.79676 0.28781 0.0
H577 H 0.53589 0.84008 0.34559 0.0
H578 H 0.57401 0.84713 0.30854 0.0
H579 H 0.58678 0.84582 0.25898 0.0
H580 H 0.5212 0.80451 0.20096 0.0
H581 H 0.48584 0.79179 0.23893 0.0
C582 C 0.49395 0.8073 0.29248 0.0
C583 C 0.50058 0.81807 0.31952 0.0
C584 C 0.51547 0.81199 0.27093 0.0
C585 C 0.53006 0.83162 0.32504 0.0
C586 C 0.55184 0.83582 0.30379 0.0
C587 C 0.56491 0.83372 0.25461 0.0
C588 C 0.55658 0.82642 0.22703 0.0
C589 C 0.54444 0.82688 0.27652 0.0
C590 C 0.52819 0.81059 0.22189 0.0
C591 C 0.5079 0.80334 0.24362 0.0
H592 H 0.21189 0.46497 0.80961 0.0
H593 H 0.20722 0.55645 0.84783 0.0
H594 H 0.21012 0.58128 0.80234 0.0
H595 H 0.2097 0.57699 0.75166 0.0
H596 H 0.21267 0.48549 0.71336 0.0
H597 H 0.21505 0.46079 0.75899 0.0
C598 C 0.21183 0.49036 0.80808 0.0
C599 C 0.20908 0.50878 0.83218 0.0
C600 C 0.21307 0.50451 0.7818 0.0
C601 C 0.20918 0.54165 0.82969 0.0
C602 C 0.21077 0.5559 0.80364 0.0
C603 C 0.21125 0.55164 0.75322 0.0
C604 C 0.21076 0.53314 0.72902 0.0
C605 C 0.21208 0.53755 0.77954 0.0
C606 C 0.21288 0.50034 0.73156 0.0
C607 C 0.21414 0.48616 0.75769 0.0
H608 H 0.57448 0.21614 0.30696 0.0
H609 H 0.4795 0.22034 0.33756 0.0
H610 H 0.4594 0.22561 0.29027 0.0
H611 H 0.46834 0.22397 0.24005 0.0
H612 H 0.56316 0.21727 0.2094 0.0
H613 H 0.58366 0.21838 0.25678 0.0
C614 C 0.5494 0.21869 0.30336 0.0
C615 C 0.52855 0.21763 0.32587 0.0
C616 C 0.5379 0.22105 0.276 0.0
C617 C 0.49612 0.22089 0.32069 0.0
C618 C 0.48457 0.22385 0.2936 0.0
C619 C 0.49353 0.22325 0.24367 0.0
C620 C 0.51414 0.22034 0.22111 0.0
C621 C 0.50517 0.2232 0.27106 0.0
C622 C 0.5467 0.21935 0.22631 0.0
C623 C 0.55847 0.21991 0.25345 0.0
H624 H 0.22833 0.41242 0.99511 0.0
H625 H 0.18641 0.49923 0.96727 0.0
H626 H 0.18231 0.51721 1.0153 0.0
H627 H 0.18558 0.5056 0.0655 0.0
H628 H 0.22902 0.41896 0.09252 0.0
H629 H 0.23778 0.40381 0.04464 0.0
C630 C 0.21876 0.4355 0.99954 0.0
C631 C 0.20742 0.45433 0.97774 0.0
C632 C 0.21648 0.44562 0.02712 0.0
C633 C 0.19539 0.48431 0.98372 0.0
C634 C 0.19282 0.4945 1.0112 0.0
C635 C 0.19735 0.48362 0.0609 0.0
C636 C 0.2062 0.46332 0.08267 0.0
C637 C 0.2025 0.47497 0.03313 0.0
C638 C 0.22178 0.43506 0.0763 0.0
C639 C 0.22674 0.42625 0.04885 0.0
H640 H 0.57909 0.26505 0.48047 0.0
H641 H 0.5406 0.17217 0.47013 0.0
H642 H 0.53574 0.16687 0.52025 0.0
H643 H 0.54819 0.18612 0.56717 0.0
H644 H 0.58733 0.2788 0.57727 0.0
H645 H 0.58578 0.28665 0.52727 0.0
C646 C 0.56914 0.24383 0.4891 0.0
C647 C 0.56062 0.21892 0.47144 0.0
C648 C 0.56677 0.24073 0.51803 0.0
C649 C 0.54753 0.19171 0.48312 0.0
C650 C 0.54487 0.18857 0.51186 0.0
C651 C 0.55588 0.20826 0.5585 0.0
C652 C 0.56825 0.23165 0.57607 0.0
C653 C 0.5553 0.21255 0.52956 0.0
C654 C 0.57791 0.26024 0.56436 0.0
C655 C 0.57714 0.26476 0.53568 0.0
H656 H 0.81772 0.63041 0.05962 0.0
H657 H 0.85175 0.53865 0.08289 0.0
H658 H 0.85371 0.52328 0.03404 0.0
H659 H 0.85049 0.53789 0.98449 0.0
H660 H 0.81424 0.62918 0.9618 0.0
H661 H 0.80801 0.64254 1.01051 0.0
C662 C 0.82516 0.60691 0.05398 0.0
C663 C 0.8349 0.58581 0.07478 0.0
C664 C 0.82596 0.59818 1.02591 0.0
C665 C 0.8441 0.5553 0.06725 0.0
C666 C 0.84539 0.54658 0.03931 0.0
C667 C 0.84078 0.56051 0.9902 0.0
C668 C 0.83321 0.58259 0.96942 0.0
C669 C 0.83708 0.56808 1.01841 0.0
C670 C 0.82033 0.61169 0.97724 0.0
C671 C 0.8169 0.61947 1.00517 0.0
H672 H 0.42734 0.87752 0.56193 0.0
H673 H 0.47123 0.78992 0.58498 0.0
H674 H 0.48088 0.7782 0.53588 0.0
H675 H 0.47485 0.79256 0.486 0.0
H676 H 0.43215 0.88174 0.465 0.0
H677 H 0.42415 0.89301 0.51363 0.0
C678 C 0.43904 0.85581 0.55629 0.0
C679 C 0.44823 0.83446 0.57704 0.0
C680 C 0.44471 0.84949 0.5283 0.0
C681 C 0.46388 0.80673 0.56937 0.0
C682 C 0.4693 0.80001 0.5413 0.0
C683 C 0.46394 0.81449 0.49211 0.0
C684 C 0.45399 0.83612 0.47166 0.0
C685 C 0.45953 0.82114 0.5205 0.0
C686 C 0.44008 0.86455 0.48007 0.0
C687 C 0.43539 0.87108 0.50798 0.0
H688 H 0.26645 0.5898 0.49874 0.0
H689 H 0.17438 0.54853 0.48953 0.0
H690 H 0.16959 0.54503 0.53969 0.0
H691 H 0.18906 0.5585 0.58606 0.0
H692 H 0.28092 0.59986 0.59577 0.0
H693 H 0.28836 0.59813 0.5456 0.0
C694 C 0.24552 0.57961 0.50767 0.0
C695 C 0.22066 0.56983 0.49028 0.0
C696 C 0.24275 0.57788 0.53667 0.0
C697 C 0.19383 0.55646 0.5023 0.0
C698 C 0.19099 0.55453 0.53105 0.0
C699 C 0.21089 0.56682 0.57725 0.0
C700 C 0.23423 0.57966 0.59464 0.0
C701 C 0.21491 0.56595 0.54841 0.0
C702 C 0.26252 0.58993 0.58289 0.0
C703 C 0.26673 0.58909 0.55417 0.0
H704 H 0.52043 0.18583 0.97836 0.0
H705 H 0.44169 0.24778 0.96298 0.0
H706 H 0.43333 0.25294 1.01276 0.0
H707 H 0.44357 0.23364 0.06031 0.0
H708 H 0.52046 0.16979 0.07526 0.0
H709 H 0.53463 0.17178 1.02619 0.0
C710 C 0.5018 0.20097 0.98585 0.0
C711 C 0.48147 0.21604 0.96681 0.0
C712 C 0.49669 0.20332 1.01454 0.0
C713 C 0.4576 0.23571 0.97704 0.0
C714 C 0.4527 0.23858 1.00557 0.0
C715 C 0.46403 0.22106 0.05285 0.0
C716 C 0.48134 0.202 0.07123 0.0
C717 C 0.4714 0.22165 1.02446 0.0
C718 C 0.50726 0.18504 0.06143 0.0
C719 C 0.51514 0.18596 0.03337 0.0
H720 H 0.85981 0.45932 0.48985 0.0
H721 H 0.75933 0.45088 0.47978 0.0
H722 H 0.7531 0.45006 0.5301 0.0
H723 H 0.77662 0.44864 0.57713 0.0
H724 H 0.87729 0.45732 0.58638 0.0
H725 H 0.88283 0.46127 0.53641 0.0
C726 C 0.83649 0.4575 0.4986 0.0
C727 C 0.81012 0.45494 0.48095 0.0
C728 C 0.83307 0.45696 0.52754 0.0
C729 C 0.78008 0.45287 0.49279 0.0
C730 C 0.7765 0.4523 0.52162 0.0
C731 C 0.79973 0.45168 0.56825 0.0
C732 C 0.82648 0.45241 0.58567 0.0
C733 C 0.80288 0.45387 0.53923 0.0
C734 C 0.85624 0.45648 0.57365 0.0
C735 C 0.8595 0.45872 0.54497 0.0
H736 H 0.58785 0.78008 0.05935 0.0
H737 H 0.55268 0.87469 0.06798 0.0
H738 H 0.55019 0.88019 1.01769 0.0
H739 H 0.56316 0.86011 0.97136 0.0
H740 H 0.59919 0.76578 0.96294 0.0
H741 H 0.59584 0.75822 1.01289 0.0
C742 C 0.5792 0.80177 0.05028 0.0
C743 C 0.57081 0.82703 0.06754 0.0
C744 C 0.5782 0.80496 1.02128 0.0
C745 C 0.55946 0.85487 0.0553 0.0
C746 C 0.55813 0.85811 1.02648 0.0
C747 C 0.56985 0.83773 0.98037 0.0
C748 C 0.58176 0.8137 0.96333 0.0
C749 C 0.56824 0.83361 1.00926 0.0
C750 C 0.59014 0.7848 0.97546 0.0
C751 C 0.58831 0.78045 1.0041 0.0
H752 H 0.27611 0.33583 0.21402 0.0
H753 H 0.23825 0.33925 0.13105 0.0
H754 H 0.27637 0.29979 0.11609 0.0
H755 H 0.32105 0.26503 0.12639 0.0
H756 H 0.36085 0.26289 0.20871 0.0
H757 H 0.3217 0.30127 0.2242 0.0
C758 C 0.27611 0.32763 0.19277 0.0
C759 C 0.25434 0.34025 0.17366 0.0
C760 C 0.29859 0.30539 0.1842 0.0
C761 C 0.25488 0.32993 0.14604 0.0
C762 C 0.27663 0.30737 0.13752 0.0
C763 C 0.32098 0.27279 0.14777 0.0
C764 C 0.34368 0.26101 0.16642 0.0
C765 C 0.29868 0.29505 0.15637 0.0
C766 C 0.34374 0.27178 0.19393 0.0
C767 C 0.32126 0.29358 0.20281 0.0
H768 H 0.77283 0.31585 0.7054 0.0
H769 H 0.80015 0.32856 0.62038 0.0
H770 H 0.76057 0.2904 0.60547 0.0
H771 H 0.71822 0.25345 0.61679 0.0
H772 H 0.69 0.24185 0.70171 0.0
H773 H 0.72989 0.27963 0.71662 0.0
C774 C 0.7703 0.31002 0.68365 0.0
C775 C 0.78955 0.32477 0.66401 0.0
C776 C 0.74729 0.28838 0.67528 0.0
C777 C 0.78552 0.31757 0.63582 0.0
C778 C 0.76298 0.29571 0.62734 0.0
C779 C 0.721 0.25902 0.63857 0.0
C780 C 0.70135 0.24473 0.65817 0.0
C781 C 0.74377 0.28095 0.6469 0.0
C782 C 0.70473 0.25268 0.68626 0.0
C783 C 0.72761 0.27416 0.69478 0.0
H784 H 0.76744 0.71031 0.20311 0.0
H785 H 0.77956 0.68667 0.11714 0.0
H786 H 0.74091 0.72676 0.1037 0.0
H787 H 0.70513 0.76998 0.11648 0.0
H788 H 0.69038 0.79153 0.20251 0.0
H789 H 0.72844 0.7508 0.2161 0.0
C790 C 0.76145 0.71398 0.18148 0.0
C791 C 0.7764 0.69583 0.16108 0.0
C792 C 0.73885 0.73669 0.17402 0.0
C793 C 0.7682 0.70032 0.13313 0.0
C794 C 0.74626 0.7233 0.12548 0.0
C795 C 0.71032 0.76563 0.13817 0.0
C796 C 0.69539 0.78383 0.15853 0.0
C797 C 0.73169 0.74184 0.14573 0.0
C798 C 0.70168 0.77771 0.18659 0.0
C799 C 0.72346 0.75456 0.1943 0.0
H800 H 0.27583 0.68393 0.6655 0.0
H801 H 0.20135 0.75181 0.67595 0.0
H802 H 0.23944 0.79434 0.67486 0.0
H803 H 0.29403 0.81222 0.67303 0.0
H804 H 0.36881 0.74481 0.6627 0.0
H805 H 0.33045 0.70224 0.66084 0.0
C806 C 0.26785 0.70801 0.6671 0.0
C807 C 0.23571 0.71453 0.67114 0.0
C808 C 0.28996 0.73249 0.66645 0.0
C809 C 0.22594 0.74599 0.6734 0.0
C810 C 0.24771 0.77039 0.67264 0.0
C811 C 0.30195 0.78821 0.67042 0.0
C812 C 0.33427 0.78173 0.66827 0.0
C813 C 0.27981 0.76388 0.66964 0.0
C814 C 0.34408 0.75052 0.66425 0.0
C815 C 0.32215 0.72613 0.66337 0.0
H816 H 0.33064 0.75976 0.3456 0.0
H817 H 0.34696 0.78883 0.42994 0.0
H818 H 0.30745 0.75157 0.44607 0.0
H819 H 0.26738 0.71147 0.43599 0.0
H820 H 0.25251 0.68068 0.35196 0.0
H821 H 0.29233 0.71771 0.33577 0.0
C822 C 0.32543 0.75792 0.36748 0.0
C823 C 0.34151 0.77714 0.38655 0.0
C824 C 0.30296 0.73616 0.37659 0.0
C825 C 0.33501 0.77416 0.41491 0.0
C826 C 0.31232 0.75298 0.4241 0.0
C827 C 0.27282 0.71301 0.41414 0.0
C828 C 0.25686 0.69363 0.39512 0.0
C829 C 0.29601 0.73401 0.40511 0.0
C830 C 0.26457 0.69532 0.36693 0.0
C831 C 0.28722 0.71655 0.3577 0.0
H832 H 0.36034 0.28597 0.87889 0.0
H833 H 0.29891 0.20605 0.88516 0.0
H834 H 0.25348 0.24078 0.88903 0.0
H835 H 0.23104 0.29364 0.88965 0.0
H836 H 0.2919 0.37393 0.88192 0.0
H837 H 0.33768 0.33936 0.88036 0.0
C838 C 0.33705 0.27622 0.88142 0.0
C839 C 0.33303 0.24344 0.88156 0.0
C840 C 0.3109 0.29639 0.88344 0.0
C841 C 0.30262 0.23115 0.88455 0.0
C842 C 0.27663 0.25101 0.8869 0.0
C843 C 0.25423 0.30368 0.8874 0.0
C844 C 0.25779 0.33646 0.88575 0.0
C845 C 0.28045 0.28365 0.88606 0.0
C846 C 0.28828 0.34888 0.88349 0.0
C847 C 0.31455 0.32908 0.88241 0.0
H848 H 0.70356 0.26275 0.43621 0.0
H849 H 0.69371 0.24377 0.349 0.0
H850 H 0.73522 0.28183 0.33881 0.0
H851 H 0.77515 0.31984 0.3551 0.0
H852 H 0.78248 0.34094 0.44214 0.0
H853 H 0.74115 0.30282 0.4522 0.0
C854 C 0.71062 0.26697 0.41501 0.0
C855 C 0.69593 0.25032 0.39336 0.0
C856 C 0.73402 0.28923 0.40938 0.0
C857 C 0.70472 0.25639 0.36592 0.0
C858 C 0.72849 0.27802 0.36015 0.0
C859 C 0.76766 0.31595 0.37623 0.0
C860 C 0.78194 0.33291 0.39791 0.0
C861 C 0.74346 0.29444 0.38174 0.0
C862 C 0.77172 0.32819 0.42517 0.0
C863 C 0.7482 0.30635 0.43091 0.0
H864 H 0.78112 0.71939 0.83822 0.0
H865 H 0.8131 0.71668 0.92307 0.0
H866 H 0.77597 0.75846 0.93508 0.0
H867 H 0.73354 0.79476 0.92155 0.0
H868 H 0.69966 0.7958 0.83721 0.0
H869 H 0.73829 0.75555 0.82474 0.0
C870 C 0.78015 0.72827 0.85923 0.0
C871 C 0.7999 0.71524 0.87973 0.0
C872 C 0.7583 0.75178 0.86603 0.0
C873 C 0.79802 0.72639 0.90703 0.0
C874 C 0.77686 0.75025 0.91385 0.0
C875 C 0.73487 0.78637 0.9004 0.0
C876 C 0.71396 0.79831 0.88026 0.0
C877 C 0.75677 0.76298 0.89355 0.0
C878 C 0.71543 0.78679 0.85305 0.0
C879 C 0.73756 0.76391 0.84592 0.0
loop_
_geom_bond_atom_site_label_1
_geom_bond_atom_site_label_2
_geom_bond_distance
_geom_bond_site_symmetry_2
_ccdc_geom_bond_type
Cu0 N1 1.999 . S
Cu0 O6 1.974 . S
Cu0 N11 1.985 . S
Cu0 O20 1.959 . S
N1 Cu0 1.999 . S
N1 C3 1.263 . S
N1 C5 1.389 . S
N2 C3 1.358 . S
N2 C4 1.400 . S
C3 N1 1.263 . S
C3 N2 1.358 . S
C3 H9 0.930 . S
C4 N2 1.400 . S
C4 C5 1.351 . S
C4 H21 0.930 . S
C5 N1 1.389 . S
C5 C4 1.351 . S
C5 H10 0.930 . S
O6 Cu0 1.974 . S
O6 C16 1.282 . S
C7 O8 1.261 . S
C7 O20 1.251 . S
O8 C7 1.261 . S
H9 C3 0.930 . S
H10 C5 0.930 . S
N11 Cu0 1.985 . S
N11 C13 1.335 . S
N11 C14 1.390 . S
N12 C13 1.345 . S
N12 C15 1.336 . S
C13 N11 1.335 . S
C13 N12 1.345 . S
C13 H18 0.930 . S
C14 N11 1.390 . S
C14 C15 1.346 . S
C14 H19 0.930 . S
C15 N12 1.336 . S
C15 C14 1.346 . S
C15 H22 0.929 . S
C16 O6 1.282 . S
C16 O17 1.216 . S
O17 C16 1.216 . S
H18 C13 0.930 . S
H19 C14 0.930 . S
O20 Cu0 1.959 . S
O20 C7 1.251 . S
H21 C4 0.930 . S
H22 C15 0.929 . S
Cu23 N24 1.999 . S
Cu23 O29 1.974 . S
Cu23 N34 1.985 . S
Cu23 O43 1.959 . S
N24 Cu23 1.999 . S
N24 C26 1.263 . S
N24 C28 1.389 . S
N25 C26 1.358 . S
N25 C27 1.400 . S
C26 N24 1.263 . S
C26 N25 1.358 . S
C26 H32 0.930 . S
C27 N25 1.400 . S
C27 C28 1.351 . S
C27 H44 0.930 . S
C28 N24 1.389 . S
C28 C27 1.351 . S
C28 H33 0.930 . S
O29 Cu23 1.974 . S
O29 C39 1.282 . S
C30 O31 1.261 . S
C30 O43 1.251 . S
O31 C30 1.261 . S
H32 C26 0.930 . S
H33 C28 0.930 . S
N34 Cu23 1.985 . S
N34 C36 1.335 . S
N34 C37 1.390 . S
N35 C36 1.345 . S
N35 C38 1.336 . S
C36 N34 1.335 . S
C36 N35 1.345 . S
C36 H41 0.930 . S
C37 N34 1.390 . S
C37 C38 1.346 . S
C37 H42 0.930 . S
C38 N35 1.336 . S
C38 C37 1.346 . S
C38 H45 0.929 . S
C39 O29 1.282 . S
C39 O40 1.216 . S
O40 C39 1.216 . S
H41 C36 0.930 . S
H42 C37 0.930 . S
O43 Cu23 1.959 . S
O43 C30 1.251 . S
H44 C27 0.930 . S
H45 C38 0.929 . S
Cu46 N47 1.999 . S
Cu46 O52 1.974 . S
Cu46 N57 1.985 . S
Cu46 O66 1.959 . S
N47 Cu46 1.999 . S
N47 C49 1.263 . S
N47 C51 1.389 . S
N48 C49 1.358 . S
N48 C50 1.400 . S
C49 N47 1.263 . S
C49 N48 1.358 . S
C49 H55 0.930 . S
C50 N48 1.400 . S
C50 C51 1.351 . S
C50 H67 0.930 . S
C51 N47 1.389 . S
C51 C50 1.351 . S
C51 H56 0.930 . S
O52 Cu46 1.974 . S
O52 C62 1.282 . S
C53 O54 1.261 . S
C53 O66 1.251 . S
O54 C53 1.261 . S
H55 C49 0.930 . S
H56 C51 0.930 . S
N57 Cu46 1.985 . S
N57 C59 1.335 . S
N57 C60 1.390 . S
N58 C59 1.345 . S
N58 C61 1.336 . S
C59 N57 1.335 . S
C59 N58 1.345 . S
C59 H64 0.930 . S
C60 N57 1.390 . S
C60 C61 1.346 . S
C60 H65 0.930 . S
C61 N58 1.336 . S
C61 C60 1.346 . S
C61 H68 0.929 . S
C62 O52 1.282 . S
C62 O63 1.216 . S
O63 C62 1.216 . S
H64 C59 0.930 . S
H65 C60 0.930 . S
O66 Cu46 1.959 . S
O66 C53 1.251 . S
H67 C50 0.930 . S
H68 C61 0.929 . S
Cu69 N70 1.999 . S
Cu69 O75 1.974 . S
Cu69 N80 1.985 . S
Cu69 O89 1.959 . S
N70 Cu69 1.999 . S
N70 C72 1.263 . S
N70 C74 1.389 . S
N71 C72 1.358 . S
N71 C73 1.400 . S
C72 N70 1.263 . S
C72 N71 1.358 . S
C72 H78 0.930 . S
C73 N71 1.400 . S
C73 C74 1.351 . S
C73 H90 0.930 . S
C74 N70 1.389 . S
C74 C73 1.351 . S
C74 H79 0.930 . S
O75 Cu69 1.974 . S
O75 C85 1.282 . S
C76 O77 1.261 . S
C76 O89 1.251 . S
O77 C76 1.261 . S
H78 C72 0.930 . S
H79 C74 0.930 . S
N80 Cu69 1.985 . S
N80 C82 1.335 . S
N80 C83 1.390 . S
N81 C82 1.345 . S
N81 C84 1.336 . S
C82 N80 1.335 . S
C82 N81 1.345 . S
C82 H87 0.930 . S
C83 N80 1.390 . S
C83 C84 1.346 . S
C83 H88 0.930 . S
C84 N81 1.336 . S
C84 C83 1.346 . S
C84 H91 0.929 . S
C85 O75 1.282 . S
C85 O86 1.216 . S
O86 C85 1.216 . S
H87 C82 0.930 . S
H88 C83 0.930 . S
O89 Cu69 1.959 . S
O89 C76 1.251 . S
H90 C73 0.930 . S
H91 C84 0.929 . S
Cu92 N93 1.999 . S
Cu92 O98 1.974 . S
Cu92 N103 1.985 . S
Cu92 O112 1.959 . S
N93 Cu92 1.999 . S
N93 C95 1.263 . S
N93 C97 1.389 . S
N94 C95 1.358 . S
N94 C96 1.400 . S
C95 N93 1.263 . S
C95 N94 1.358 . S
C95 H101 0.930 . S
C96 N94 1.400 . S
C96 C97 1.351 . S
C96 H113 0.930 . S
C97 N93 1.389 . S
C97 C96 1.351 . S
C97 H102 0.930 . S
O98 Cu92 1.974 . S
O98 C108 1.282 . S
C99 O100 1.261 . S
C99 O112 1.251 . S
O100 C99 1.261 . S
H101 C95 0.930 . S
H102 C97 0.930 . S
N103 Cu92 1.985 . S
N103 C105 1.335 . S
N103 C106 1.390 . S
N104 C105 1.345 . S
N104 C107 1.336 . S
C105 N103 1.335 . S
C105 N104 1.345 . S
C105 H110 0.930 . S
C106 N103 1.390 . S
C106 C107 1.346 . S
C106 H111 0.930 . S
C107 N104 1.336 . S
C107 C106 1.346 . S
C107 H114 0.929 . S
C108 O98 1.282 . S
C108 O109 1.216 . S
O109 C108 1.216 . S
H110 C105 0.930 . S
H111 C106 0.930 . S
O112 Cu92 1.959 . S
O112 C99 1.251 . S
H113 C96 0.930 . S
H114 C107 0.929 . S
Cu115 N116 1.999 . S
Cu115 O121 1.974 . S
Cu115 N126 1.985 . S
Cu115 O135 1.959 . S
N116 Cu115 1.999 . S
N116 C118 1.263 . S
N116 C120 1.389 . S
N117 C118 1.358 . S
N117 C119 1.400 . S
C118 N116 1.263 . S
C118 N117 1.358 . S
C118 H124 0.930 . S
C119 N117 1.400 . S
C119 C120 1.351 . S
C119 H136 0.930 . S
C120 N116 1.389 . S
C120 C119 1.351 . S
C120 H125 0.930 . S
O121 Cu115 1.974 . S
O121 C131 1.282 . S
C122 O123 1.261 . S
C122 O135 1.251 . S
O123 C122 1.261 . S
H124 C118 0.930 . S
H125 C120 0.930 . S
N126 Cu115 1.985 . S
N126 C128 1.335 . S
N126 C129 1.390 . S
N127 C128 1.345 . S
N127 C130 1.336 . S
C128 N126 1.335 . S
C128 N127 1.345 . S
C128 H133 0.930 . S
C129 N126 1.390 . S
C129 C130 1.346 . S
C129 H134 0.930 . S
C130 N127 1.336 . S
C130 C129 1.346 . S
C130 H137 0.929 . S
C131 O121 1.282 . S
C131 O132 1.216 . S
O132 C131 1.216 . S
H133 C128 0.930 . S
H134 C129 0.930 . S
O135 Cu115 1.959 . S
O135 C122 1.251 . S
H136 C119 0.930 . S
H137 C130 0.929 . S
Cu138 N139 1.999 . S
Cu138 O144 1.974 . S
Cu138 N149 1.985 . S
Cu138 O158 1.959 . S
N139 Cu138 1.999 . S
N139 C141 1.263 . S
N139 C143 1.389 . S
N140 C141 1.358 . S
N140 C142 1.400 . S
C141 N139 1.263 . S
C141 N140 1.358 . S
C141 H147 0.930 . S
C142 N140 1.400 . S
C142 C143 1.351 . S
C142 H159 0.930 . S
C143 N139 1.389 . S
C143 C142 1.351 . S
C143 H148 0.930 . S
O144 Cu138 1.974 . S
O144 C154 1.282 . S
C145 O146 1.261 . S
C145 O158 1.251 . S
O146 C145 1.261 . S
H147 C141 0.930 . S
H148 C143 0.930 . S
N149 Cu138 1.985 . S
N149 C151 1.335 . S
N149 C152 1.390 . S
N150 C151 1.345 . S
N150 C153 1.336 . S
C151 N149 1.335 . S
C151 N150 1.345 . S
C151 H156 0.930 . S
C152 N149 1.390 . S
C152 C153 1.346 . S
C152 H157 0.930 . S
C153 N150 1.336 . S
C153 C152 1.346 . S
C153 H160 0.929 . S
C154 O144 1.282 . S
C154 O155 1.216 . S
O155 C154 1.216 . S
H156 C151 0.930 . S
H157 C152 0.930 . S
O158 Cu138 1.959 . S
O158 C145 1.251 . S
H159 C142 0.930 . S
H160 C153 0.929 . S
Cu161 N162 1.999 . S
Cu161 O167 1.974 . S
Cu161 N172 1.985 . S
Cu161 O181 1.959 . S
N162 Cu161 1.999 . S
N162 C164 1.263 . S
N162 C166 1.389 . S
N163 C164 1.358 . S
N163 C165 1.400 . S
C164 N162 1.263 . S
C164 N163 1.358 . S
C164 H170 0.930 . S
C165 N163 1.400 . S
C165 C166 1.351 . S
C165 H182 0.930 . S
C166 N162 1.389 . S
C166 C165 1.351 . S
C166 H171 0.930 . S
O167 Cu161 1.974 . S
O167 C177 1.282 . S
C168 O169 1.261 . S
C168 O181 1.251 . S
O169 C168 1.261 . S
H170 C164 0.930 . S
H171 C166 0.930 . S
N172 Cu161 1.985 . S
N172 C174 1.335 . S
N172 C175 1.390 . S
N173 C174 1.345 . S
N173 C176 1.336 . S
C174 N172 1.335 . S
C174 N173 1.345 . S
C174 H179 0.930 . S
C175 N172 1.390 . S
C175 C176 1.346 . S
C175 H180 0.930 . S
C176 N173 1.336 . S
C176 C175 1.346 . S
C176 H183 0.929 . S
C177 O167 1.282 . S
C177 O178 1.216 . S
O178 C177 1.216 . S
H179 C174 0.930 . S
H180 C175 0.930 . S
O181 Cu161 1.959 . S
O181 C168 1.251 . S
H182 C165 0.930 . S
H183 C176 0.929 . S
Cu184 N185 1.999 . S
Cu184 O190 1.974 . S
Cu184 N195 1.985 . S
Cu184 O204 1.959 . S
N185 Cu184 1.999 . S
N185 C187 1.263 . S
N185 C189 1.389 . S
N186 C187 1.358 . S
N186 C188 1.400 . S
C187 N185 1.263 . S
C187 N186 1.358 . S
C187 H193 0.930 . S
C188 N186 1.400 . S
C188 C189 1.351 . S
C188 H205 0.930 . S
C189 N185 1.389 . S
C189 C188 1.351 . S
C189 H194 0.930 . S
O190 Cu184 1.974 . S
O190 C200 1.282 . S
C191 O192 1.261 . S
C191 O204 1.251 . S
O192 C191 1.261 . S
H193 C187 0.930 . S
H194 C189 0.930 . S
N195 Cu184 1.985 . S
N195 C197 1.335 . S
N195 C198 1.390 . S
N196 C197 1.345 . S
N196 C199 1.336 . S
C197 N195 1.335 . S
C197 N196 1.345 . S
C197 H202 0.930 . S
C198 N195 1.390 . S
C198 C199 1.346 . S
C198 H203 0.930 . S
C199 N196 1.336 . S
C199 C198 1.346 . S
C199 H206 0.929 . S
C200 O190 1.282 . S
C200 O201 1.216 . S
O201 C200 1.216 . S
H202 C197 0.930 . S
H203 C198 0.930 . S
O204 Cu184 1.959 . S
O204 C191 1.251 . S
H205 C188 0.930 . S
H206 C199 0.929 . S
Cu207 N208 1.999 . S
Cu207 O213 1.974 . S
Cu207 N218 1.985 . S
Cu207 O227 1.959 . S
N208 Cu207 1.999 . S
N208 C210 1.263 . S
N208 C212 1.389 . S
N209 C210 1.358 . S
N209 C211 1.400 . S
C210 N208 1.263 . S
C210 N209 1.358 . S
C210 H216 0.930 . S
C211 N209 1.400 . S
C211 C212 1.351 . S
C211 H228 0.930 . S
C212 N208 1.389 . S
C212 C211 1.351 . S
C212 H217 0.930 . S
O213 Cu207 1.974 . S
O213 C223 1.282 . S
C214 O215 1.261 . S
C214 O227 1.251 . S
O215 C214 1.261 . S
H216 C210 0.930 . S
H217 C212 0.930 . S
N218 Cu207 1.985 . S
N218 C220 1.335 . S
N218 C221 1.390 . S
N219 C220 1.345 . S
N219 C222 1.336 . S
C220 N218 1.335 . S
C220 N219 1.345 . S
C220 H225 0.930 . S
C221 N218 1.390 . S
C221 C222 1.346 . S
C221 H226 0.930 . S
C222 N219 1.336 . S
C222 C221 1.346 . S
C222 H229 0.929 . S
C223 O213 1.282 . S
C223 O224 1.216 . S
O224 C223 1.216 . S
H225 C220 0.930 . S
H226 C221 0.930 . S
O227 Cu207 1.959 . S
O227 C214 1.251 . S
H228 C211 0.930 . S
H229 C222 0.929 . S
Cu230 N231 1.999 . S
Cu230 O236 1.974 . S
Cu230 N241 1.985 . S
Cu230 O250 1.959 . S
N231 Cu230 1.999 . S
N231 C233 1.263 . S
N231 C235 1.389 . S
N232 C233 1.358 . S
N232 C234 1.400 . S
C233 N231 1.263 . S
C233 N232 1.358 . S
C233 H239 0.930 . S
C234 N232 1.400 . S
C234 C235 1.351 . S
C234 H251 0.930 . S
C235 N231 1.389 . S
C235 C234 1.351 . S
C235 H240 0.930 . S
O236 Cu230 1.974 . S
O236 C246 1.282 . S
C237 O238 1.261 . S
C237 O250 1.251 . S
O238 C237 1.261 . S
H239 C233 0.930 . S
H240 C235 0.930 . S
N241 Cu230 1.985 . S
N241 C243 1.335 . S
N241 C244 1.390 . S
N242 C243 1.345 . S
N242 C245 1.336 . S
C243 N241 1.335 . S
C243 N242 1.345 . S
C243 H248 0.930 . S
C244 N241 1.390 . S
C244 C245 1.346 . S
C244 H249 0.930 . S
C245 N242 1.336 . S
C245 C244 1.346 . S
C245 H252 0.929 . S
C246 O236 1.282 . S
C246 O247 1.216 . S
O247 C246 1.216 . S
H248 C243 0.930 . S
H249 C244 0.930 . S
O250 Cu230 1.959 . S
O250 C237 1.251 . S
H251 C234 0.930 . S
H252 C245 0.929 . S
Cu253 N254 1.999 . S
Cu253 O259 1.974 . S
Cu253 N264 1.985 . S
Cu253 O273 1.959 . S
N254 Cu253 1.999 . S
N254 C256 1.263 . S
N254 C258 1.389 . S
N255 C256 1.358 . S
N255 C257 1.400 . S
C256 N254 1.263 . S
C256 N255 1.358 . S
C256 H262 0.930 . S
C257 N255 1.400 . S
C257 C258 1.351 . S
C257 H274 0.930 . S
C258 N254 1.389 . S
C258 C257 1.351 . S
C258 H263 0.930 . S
O259 Cu253 1.974 . S
O259 C269 1.282 . S
C260 O261 1.261 . S
C260 O273 1.251 . S
O261 C260 1.261 . S
H262 C256 0.930 . S
H263 C258 0.930 . S
N264 Cu253 1.985 . S
N264 C266 1.335 . S
N264 C267 1.390 . S
N265 C266 1.345 . S
N265 C268 1.336 . S
C266 N264 1.335 . S
C266 N265 1.345 . S
C266 H271 0.930 . S
C267 N264 1.390 . S
C267 C268 1.346 . S
C267 H272 0.930 . S
C268 N265 1.336 . S
C268 C267 1.346 . S
C268 H275 0.929 . S
C269 O259 1.282 . S
C269 O270 1.216 . S
O270 C269 1.216 . S
H271 C266 0.930 . S
H272 C267 0.930 . S
O273 Cu253 1.959 . S
O273 C260 1.251 . S
H274 C257 0.930 . S
H275 C268 0.929 . S
Cu276 N277 1.999 . S
Cu276 O282 1.974 . S
Cu276 N287 1.985 . S
Cu276 O296 1.959 . S
N277 Cu276 1.999 . S
N277 C279 1.263 . S
N277 C281 1.389 . S
N278 C279 1.358 . S
N278 C280 1.400 . S
C279 N277 1.263 . S
C279 N278 1.358 . S
C279 H285 0.930 . S
C280 N278 1.400 . S
C280 C281 1.351 . S
C280 H297 0.930 . S
C281 N277 1.389 . S
C281 C280 1.351 . S
C281 H286 0.930 . S
O282 Cu276 1.974 . S
O282 C292 1.282 . S
C283 O284 1.261 . S
C283 O296 1.251 . S
O284 C283 1.261 . S
H285 C279 0.930 . S
H286 C281 0.930 . S
N287 Cu276 1.985 . S
N287 C289 1.335 . S
N287 C290 1.390 . S
N288 C289 1.345 . S
N288 C291 1.336 . S
C289 N287 1.335 . S
C289 N288 1.345 . S
C289 H294 0.930 . S
C290 N287 1.390 . S
C290 C291 1.346 . S
C290 H295 0.930 . S
C291 N288 1.336 . S
C291 C290 1.346 . S
C291 H298 0.929 . S
C292 O282 1.282 . S
C292 O293 1.216 . S
O293 C292 1.216 . S
H294 C289 0.930 . S
H295 C290 0.930 . S
O296 Cu276 1.959 . S
O296 C283 1.251 . S
H297 C280 0.930 . S
H298 C291 0.929 . S
Cu299 N300 1.999 . S
Cu299 O305 1.974 . S
Cu299 N310 1.985 . S
Cu299 O319 1.959 . S
N300 Cu299 1.999 . S
N300 C302 1.263 . S
N300 C304 1.389 . S
N301 C302 1.358 . S
N301 C303 1.400 . S
C302 N300 1.263 . S
C302 N301 1.358 . S
C302 H308 0.930 . S
C303 N301 1.400 . S
C303 C304 1.351 . S
C303 H320 0.930 . S
C304 N300 1.389 . S
C304 C303 1.351 . S
C304 H309 0.930 . S
O305 Cu299 1.974 . S
O305 C315 1.282 . S
C306 O307 1.261 . S
C306 O319 1.251 . S
O307 C306 1.261 . S
H308 C302 0.930 . S
H309 C304 0.930 . S
N310 Cu299 1.985 . S
N310 C312 1.335 . S
N310 C313 1.390 . S
N311 C312 1.345 . S
N311 C314 1.336 . S
C312 N310 1.335 . S
C312 N311 1.345 . S
C312 H317 0.930 . S
C313 N310 1.390 . S
C313 C314 1.346 . S
C313 H318 0.930 . S
C314 N311 1.336 . S
C314 C313 1.346 . S
C314 H321 0.929 . S
C315 O305 1.282 . S
C315 O316 1.216 . S
O316 C315 1.216 . S
H317 C312 0.930 . S
H318 C313 0.930 . S
O319 Cu299 1.959 . S
O319 C306 1.251 . S
H320 C303 0.930 . S
H321 C314 0.929 . S
Cu322 N323 1.999 . S
Cu322 O328 1.974 . S
Cu322 N333 1.985 . S
Cu322 O342 1.959 . S
N323 Cu322 1.999 . S
N323 C325 1.263 . S
N323 C327 1.389 . S
N324 C325 1.358 . S
N324 C326 1.400 . S
C325 N323 1.263 . S
C325 N324 1.358 . S
C325 H331 0.930 . S
C326 N324 1.400 . S
C326 C327 1.351 . S
C326 H343 0.930 . S
C327 N323 1.389 . S
C327 C326 1.351 . S
C327 H332 0.930 . S
O328 Cu322 1.974 . S
O328 C338 1.282 . S
C329 O330 1.261 . S
C329 O342 1.251 . S
O330 C329 1.261 . S
H331 C325 0.930 . S
H332 C327 0.930 . S
N333 Cu322 1.985 . S
N333 C335 1.335 . S
N333 C336 1.390 . S
N334 C335 1.345 . S
N334 C337 1.336 . S
C335 N333 1.335 . S
C335 N334 1.345 . S
C335 H340 0.930 . S
C336 N333 1.390 . S
C336 C337 1.346 . S
C336 H341 0.930 . S
C337 N334 1.336 . S
C337 C336 1.346 . S
C337 H344 0.929 . S
C338 O328 1.282 . S
C338 O339 1.216 . S
O339 C338 1.216 . S
H340 C335 0.930 . S
H341 C336 0.930 . S
O342 Cu322 1.959 . S
O342 C329 1.251 . S
H343 C326 0.930 . S
H344 C337 0.929 . S
Cu345 N346 1.999 . S
Cu345 O351 1.974 . S
Cu345 N356 1.985 . S
Cu345 O365 1.959 . S
N346 Cu345 1.999 . S
N346 C348 1.263 . S
N346 C350 1.389 . S
N347 C348 1.358 . S
N347 C349 1.400 . S
C348 N346 1.263 . S
C348 N347 1.358 . S
C348 H354 0.930 . S
C349 N347 1.400 . S
C349 C350 1.351 . S
C349 H366 0.930 . S
C350 N346 1.389 . S
C350 C349 1.351 . S
C350 H355 0.930 . S
O351 Cu345 1.974 . S
O351 C361 1.282 . S
C352 O353 1.261 . S
C352 O365 1.251 . S
O353 C352 1.261 . S
H354 C348 0.930 . S
H355 C350 0.930 . S
N356 Cu345 1.985 . S
N356 C358 1.335 . S
N356 C359 1.390 . S
N357 C358 1.345 . S
N357 C360 1.336 . S
C358 N356 1.335 . S
C358 N357 1.345 . S
C358 H363 0.930 . S
C359 N356 1.390 . S
C359 C360 1.346 . S
C359 H364 0.930 . S
C360 N357 1.336 . S
C360 C359 1.346 . S
C360 H367 0.929 . S
C361 O351 1.282 . S
C361 O362 1.216 . S
O362 C361 1.216 . S
H363 C358 0.930 . S
H364 C359 0.930 . S
O365 Cu345 1.959 . S
O365 C352 1.251 . S
H366 C349 0.930 . S
H367 C360 0.929 . S
H368 C374 0.930 . S
H369 C377 0.930 . S
H370 C378 0.930 . S
H371 C379 0.930 . S
H372 C382 0.930 . S
H373 C383 0.930 . S
C374 H368 0.930 . S
C374 C375 1.355 . S
C374 C376 1.415 . S
C375 C374 1.355 . S
C375 C377 1.419 . S
C376 C374 1.415 . S
C376 C381 1.425 1_455 S
C376 C383 1.409 1_455 S
C377 H369 0.930 . S
C377 C375 1.419 . S
C377 C378 1.362 . S
C378 H370 0.930 . S
C378 C377 1.362 . S
C378 C381 1.409 1_455 S
C379 H371 0.930 . S
C379 C380 1.355 . S
C379 C381 1.415 . S
C380 C379 1.355 . S
C380 C382 1.419 . S
C381 C376 1.425 1_655 S
C381 C378 1.409 1_655 S
C381 C379 1.415 . S
C382 H372 0.930 . S
C382 C380 1.419 . S
C382 C383 1.362 . S
C383 H373 0.930 . S
C383 C376 1.409 1_655 S
C383 C382 1.362 . S
H384 C390 0.930 . S
H385 C393 0.930 . S
H386 C394 0.930 . S
H387 C395 0.930 . S
H388 C398 0.930 . S
H389 C399 0.930 . S
C390 H384 0.930 . S
C390 C391 1.355 . S
C390 C392 1.415 . S
C391 C390 1.355 . S
C391 C393 1.419 . S
C392 C390 1.415 . S
C392 C397 1.425 1_565 S
C392 C399 1.409 1_565 S
C393 H385 0.930 . S
C393 C391 1.419 . S
C393 C394 1.362 . S
C394 H386 0.930 . S
C394 C393 1.362 . S
C394 C397 1.409 1_565 S
C395 H387 0.930 . S
C395 C396 1.355 . S
C395 C397 1.415 . S
C396 C395 1.355 . S
C396 C398 1.419 . S
C397 C392 1.425 1_545 S
C397 C394 1.409 1_545 S
C397 C395 1.415 . S
C398 H388 0.930 . S
C398 C396 1.419 . S
C398 C399 1.362 . S
C399 H389 0.930 . S
C399 C392 1.409 1_545 S
C399 C398 1.362 . S
H400 C406 0.930 . S
H401 C409 0.930 . S
H402 C410 0.930 . S
H403 C411 0.930 . S
H404 C414 0.930 . S
H405 C415 0.930 . S
C406 H400 0.930 . S
C406 C407 1.355 . S
C406 C408 1.415 . S
C407 C406 1.355 . S
C407 C409 1.419 . S
C408 C406 1.415 . S
C408 C413 1.425 1_455 S
C408 C415 1.409 1_455 S
C409 H401 0.930 . S
C409 C407 1.419 . S
C409 C410 1.362 . S
C410 H402 0.930 . S
C410 C409 1.362 . S
C410 C413 1.409 1_455 S
C411 H403 0.930 . S
C411 C412 1.355 . S
C411 C413 1.415 . S
C412 C411 1.355 . S
C412 C414 1.419 . S
C413 C408 1.425 1_655 S
C413 C410 1.409 1_655 S
C413 C411 1.415 . S
C414 H404 0.930 . S
C414 C412 1.419 . S
C414 C415 1.362 . S
C415 H405 0.930 . S
C415 C408 1.409 1_655 S
C415 C414 1.362 . S
H416 C422 0.930 . S
H417 C425 0.930 . S
H418 C426 0.930 . S
H419 C427 0.930 . S
H420 C430 0.930 . S
H421 C431 0.930 . S
C422 H416 0.930 . S
C422 C423 1.355 . S
C422 C424 1.415 . S
C423 C422 1.355 . S
C423 C425 1.419 . S
C424 C422 1.415 . S
C424 C429 1.425 1_565 S
C424 C431 1.409 1_565 S
C425 H417 0.930 . S
C425 C423 1.419 . S
C425 C426 1.362 . S
C426 H418 0.930 . S
C426 C425 1.362 . S
C426 C429 1.409 1_565 S
C427 H419 0.930 . S
C427 C428 1.355 . S
C427 C429 1.415 . S
C428 C427 1.355 . S
C428 C430 1.419 . S
C429 C424 1.425 1_545 S
C429 C426 1.409 1_545 S
C429 C427 1.415 . S
C430 H420 0.930 . S
C430 C428 1.419 . S
C430 C431 1.362 . S
C431 H421 0.930 . S
C431 C424 1.409 1_545 S
C431 C430 1.362 . S
H432 C438 0.930 . S
H433 C441 0.930 . S
H434 C442 0.930 . S
H435 C443 0.930 . S
H436 C446 0.930 . S
H437 C447 0.930 . S
C438 H432 0.930 . S
C438 C439 1.355 . S
C438 C440 1.415 . S
C439 C438 1.355 . S
C439 C441 1.419 . S
C440 C438 1.415 . S
C440 C445 1.425 1_655 S
C440 C447 1.409 1_655 S
C441 H433 0.930 . S
C441 C439 1.419 . S
C441 C442 1.362 . S
C442 H434 0.930 . S
C442 C441 1.362 . S
C442 C445 1.409 1_655 S
C443 H435 0.930 . S
C443 C444 1.355 . S
C443 C445 1.415 . S
C444 C443 1.355 . S
C444 C446 1.419 . S
C445 C440 1.425 1_455 S
C445 C442 1.409 1_455 S
C445 C443 1.415 . S
C446 H436 0.930 . S
C446 C444 1.419 . S
C446 C447 1.362 . S
C447 H437 0.930 . S
C447 C440 1.409 1_455 S
C447 C446 1.362 . S
H448 C454 0.930 . S
H449 C457 0.930 . S
H450 C458 0.930 . S
H451 C459 0.930 . S
H452 C462 0.930 . S
H453 C463 0.930 . S
C454 H448 0.930 . S
C454 C455 1.355 . S
C454 C456 1.415 . S
C455 C454 1.355 . S
C455 C457 1.419 . S
C456 C454 1.415 . S
C456 C461 1.425 1_545 S
C456 C463 1.409 1_545 S
C457 H449 0.930 . S
C457 C455 1.419 . S
C457 C458 1.362 . S
C458 H450 0.930 . S
C458 C457 1.362 . S
C458 C461 1.409 1_545 S
C459 H451 0.930 . S
C459 C460 1.355 . S
C459 C461 1.415 . S
C460 C459 1.355 . S
C460 C462 1.419 . S
C461 C456 1.425 1_565 S
C461 C458 1.409 1_565 S
C461 C459 1.415 . S
C462 H452 0.930 . S
C462 C460 1.419 . S
C462 C463 1.362 . S
C463 H453 0.930 . S
C463 C456 1.409 1_565 S
C463 C462 1.362 . S
H464 C470 0.930 . S
H465 C473 0.930 . S
H466 C474 0.930 . S
H467 C475 0.930 . S
H468 C478 0.930 . S
H469 C479 0.930 . S
C470 H464 0.930 . S
C470 C471 1.355 . S
C470 C472 1.415 . S
C471 C470 1.355 . S
C471 C473 1.419 . S
C472 C470 1.415 . S
C472 C477 1.425 1_655 S
C472 C479 1.409 1_655 S
C473 H465 0.930 . S
C473 C471 1.419 . S
C473 C474 1.362 . S
C474 H466 0.930 . S
C474 C473 1.362 . S
C474 C477 1.409 1_655 S
C475 H467 0.930 . S
C475 C476 1.355 . S
C475 C477 1.415 . S
C476 C475 1.355 . S
C476 C478 1.419 . S
C477 C472 1.425 1_455 S
C477 C474 1.409 1_455 S
C477 C475 1.415 . S
C478 H468 0.930 . S
C478 C476 1.419 . S
C478 C479 1.362 . S
C479 H469 0.930 . S
C479 C472 1.409 1_455 S
C479 C478 1.362 . S
H480 C486 0.930 . S
H481 C489 0.930 . S
H482 C490 0.930 . S
H483 C491 0.930 . S
H484 C494 0.930 . S
H485 C495 0.930 . S
C486 H480 0.930 . S
C486 C487 1.355 . S
C486 C488 1.415 . S
C487 C486 1.355 . S
C487 C489 1.419 . S
C488 C486 1.415 . S
C488 C493 1.425 1_545 S
C488 C495 1.409 1_545 S
C489 H481 0.930 . S
C489 C487 1.419 . S
C489 C490 1.362 . S
C490 H482 0.930 . S
C490 C489 1.362 . S
C490 C493 1.409 1_545 S
C491 H483 0.930 . S
C491 C492 1.355 . S
C491 C493 1.415 . S
C492 C491 1.355 . S
C492 C494 1.419 . S
C493 C488 1.425 1_565 S
C493 C490 1.409 1_565 S
C493 C491 1.415 . S
C494 H484 0.930 . S
C494 C492 1.419 . S
C494 C495 1.362 . S
C495 H485 0.930 . S
C495 C488 1.409 1_565 S
C495 C494 1.362 . S
H496 C502 0.930 . S
H497 C505 0.930 . S
H498 C506 0.930 . S
H499 C507 0.930 . S
H500 C510 0.930 . S
H501 C511 0.930 . S
C502 H496 0.930 . S
C502 C503 1.355 . S
C502 C504 1.415 . S
C503 C502 1.355 . S
C503 C505 1.419 . S
C504 C502 1.415 . S
C504 C509 1.425 . S
C504 C511 1.409 . S
C505 H497 0.930 . S
C505 C503 1.419 . S
C505 C506 1.362 . S
C506 H498 0.930 . S
C506 C505 1.362 . S
C506 C509 1.409 . S
C507 H499 0.930 . S
C507 C508 1.355 . S
C507 C509 1.415 . S
C508 C507 1.355 . S
C508 C510 1.419 . S
C509 C504 1.425 . S
C509 C506 1.409 . S
C509 C507 1.415 . S
C510 H500 0.930 . S
C510 C508 1.419 . S
C510 C511 1.362 . S
C511 H501 0.930 . S
C511 C504 1.409 . S
C511 C510 1.362 . S
H512 C518 0.930 . S
H513 C521 0.930 . S
H514 C522 0.930 . S
H515 C523 0.930 . S
H516 C526 0.930 . S
H517 C527 0.930 . S
C518 H512 0.930 . S
C518 C519 1.355 . S
C518 C520 1.415 . S
C519 C518 1.355 . S
C519 C521 1.419 . S
C520 C518 1.415 . S
C520 C525 1.425 . S
C520 C527 1.409 . S
C521 H513 0.930 . S
C521 C519 1.419 . S
C521 C522 1.362 . S
C522 H514 0.930 . S
C522 C521 1.362 . S
C522 C525 1.409 . S
C523 H515 0.930 . S
C523 C524 1.355 . S
C523 C525 1.415 . S
C524 C523 1.355 . S
C524 C526 1.419 . S
C525 C520 1.425 . S
C525 C522 1.409 . S
C525 C523 1.415 . S
C526 H516 0.930 . S
C526 C524 1.419 . S
C526 C527 1.362 . S
C527 H517 0.930 . S
C527 C520 1.409 . S
C527 C526 1.362 . S
H528 C534 0.930 . S
H529 C537 0.930 . S
H530 C538 0.930 . S
H531 C539 0.930 . S
H532 C542 0.930 . S
H533 C543 0.930 . S
C534 H528 0.930 . S
C534 C535 1.355 . S
C534 C536 1.415 . S
C535 C534 1.355 . S
C535 C537 1.419 . S
C536 C534 1.415 . S
C536 C541 1.425 . S
C536 C543 1.409 . S
C537 H529 0.930 . S
C537 C535 1.419 . S
C537 C538 1.362 . S
C538 H530 0.930 . S
C538 C537 1.362 . S
C538 C541 1.409 . S
C539 H531 0.930 . S
C539 C540 1.355 . S
C539 C541 1.415 . S
C540 C539 1.355 . S
C540 C542 1.419 . S
C541 C536 1.425 . S
C541 C538 1.409 . S
C541 C539 1.415 . S
C542 H532 0.930 . S
C542 C540 1.419 . S
C542 C543 1.362 . S
C543 H533 0.930 . S
C543 C536 1.409 . S
C543 C542 1.362 . S
H544 C550 0.930 . S
H545 C553 0.930 . S
H546 C554 0.930 . S
H547 C555 0.930 . S
H548 C558 0.930 . S
H549 C559 0.930 . S
C550 H544 0.930 . S
C550 C551 1.355 . S
C550 C552 1.415 . S
C551 C550 1.355 . S
C551 C553 1.419 . S
C552 C550 1.415 . S
C552 C557 1.425 . S
C552 C559 1.409 . S
C553 H545 0.930 . S
C553 C551 1.419 . S
C553 C554 1.362 . S
C554 H546 0.930 . S
C554 C553 1.362 . S
C554 C557 1.409 . S
C555 H547 0.930 . S
C555 C556 1.355 . S
C555 C557 1.415 . S
C556 C555 1.355 . S
C556 C558 1.419 . S
C557 C552 1.425 . S
C557 C554 1.409 . S
C557 C555 1.415 . S
C558 H548 0.930 . S
C558 C556 1.419 . S
C558 C559 1.362 . S
C559 H549 0.930 . S
C559 C552 1.409 . S
C559 C558 1.362 . S
H560 C566 0.930 . S
H561 C569 0.930 . S
H562 C570 0.930 . S
H563 C571 0.930 . S
H564 C574 0.930 . S
H565 C575 0.930 . S
C566 H560 0.930 . S
C566 C567 1.355 . S
C566 C568 1.415 . S
C567 C566 1.355 . S
C567 C569 1.419 . S
C568 C566 1.415 . S
C568 C573 1.425 . S
C568 C575 1.409 . S
C569 H561 0.930 . S
C569 C567 1.419 . S
C569 C570 1.362 . S
C570 H562 0.930 . S
C570 C569 1.362 . S
C570 C573 1.409 . S
C571 H563 0.930 . S
C571 C572 1.355 . S
C571 C573 1.415 . S
C572 C571 1.355 . S
C572 C574 1.419 . S
C573 C568 1.425 . S
C573 C570 1.409 . S
C573 C571 1.415 . S
C574 H564 0.930 . S
C574 C572 1.419 . S
C574 C575 1.362 . S
C575 H565 0.930 . S
C575 C568 1.409 . S
C575 C574 1.362 . S
H576 C582 0.930 . S
H577 C585 0.930 . S
H578 C586 0.930 . S
H579 C587 0.930 . S
H580 C590 0.930 . S
H581 C591 0.930 . S
C582 H576 0.930 . S
C582 C583 1.355 . S
C582 C584 1.415 . S
C583 C582 1.355 . S
C583 C585 1.419 . S
C584 C582 1.415 . S
C584 C589 1.425 . S
C584 C591 1.409 . S
C585 H577 0.930 . S
C585 C583 1.419 . S
C585 C586 1.362 . S
C586 H578 0.930 . S
C586 C585 1.362 . S
C586 C589 1.409 . S
C587 H579 0.930 . S
C587 C588 1.355 . S
C587 C589 1.415 . S
C588 C587 1.355 . S
C588 C590 1.419 . S
C589 C584 1.425 . S
C589 C586 1.409 . S
C589 C587 1.415 . S
C590 H580 0.930 . S
C590 C588 1.419 . S
C590 C591 1.362 . S
C591 H581 0.930 . S
C591 C584 1.409 . S
C591 C590 1.362 . S
H592 C598 0.930 . S
H593 C601 0.930 . S
H594 C602 0.930 . S
H595 C603 0.930 . S
H596 C606 0.930 . S
H597 C607 0.930 . S
C598 H592 0.930 . S
C598 C599 1.355 . S
C598 C600 1.415 . S
C599 C598 1.355 . S
C599 C601 1.419 . S
C600 C598 1.415 . S
C600 C605 1.425 . S
C600 C607 1.409 . S
C601 H593 0.930 . S
C601 C599 1.419 . S
C601 C602 1.362 . S
C602 H594 0.930 . S
C602 C601 1.362 . S
C602 C605 1.409 . S
C603 H595 0.930 . S
C603 C604 1.355 . S
C603 C605 1.415 . S
C604 C603 1.355 . S
C604 C606 1.419 . S
C605 C600 1.425 . S
C605 C602 1.409 . S
C605 C603 1.415 . S
C606 H596 0.930 . S
C606 C604 1.419 . S
C606 C607 1.362 . S
C607 H597 0.930 . S
C607 C600 1.409 . S
C607 C606 1.362 . S
H608 C614 0.930 . S
H609 C617 0.930 . S
H610 C618 0.930 . S
H611 C619 0.930 . S
H612 C622 0.930 . S
H613 C623 0.930 . S
C614 H608 0.930 . S
C614 C615 1.355 . S
C614 C616 1.415 . S
C615 C614 1.355 . S
C615 C617 1.419 . S
C616 C614 1.415 . S
C616 C621 1.425 . S
C616 C623 1.409 . S
C617 H609 0.930 . S
C617 C615 1.419 . S
C617 C618 1.362 . S
C618 H610 0.930 . S
C618 C617 1.362 . S
C618 C621 1.409 . S
C619 H611 0.930 . S
C619 C620 1.355 . S
C619 C621 1.415 . S
C620 C619 1.355 . S
C620 C622 1.419 . S
C621 C616 1.425 . S
C621 C618 1.409 . S
C621 C619 1.415 . S
C622 H612 0.930 . S
C622 C620 1.419 . S
C622 C623 1.362 . S
C623 H613 0.930 . S
C623 C616 1.409 . S
C623 C622 1.362 . S
H624 C630 0.930 . S
H625 C633 0.930 . S
H626 C634 0.930 . S
H627 C635 0.930 . S
H628 C638 0.930 . S
H629 C639 0.930 . S
C630 H624 0.930 . S
C630 C631 1.355 . S
C630 C632 1.415 . S
C631 C630 1.355 . S
C631 C633 1.419 . S
C632 C630 1.415 . S
C632 C637 1.425 1_556 S
C632 C639 1.409 1_556 S
C633 H625 0.930 . S
C633 C631 1.419 . S
C633 C634 1.362 . S
C634 H626 0.930 . S
C634 C633 1.362 . S
C634 C637 1.409 1_556 S
C635 H627 0.930 . S
C635 C636 1.355 . S
C635 C637 1.415 . S
C636 C635 1.355 . S
C636 C638 1.419 . S
C637 C632 1.425 1_554 S
C637 C634 1.409 1_554 S
C637 C635 1.415 . S
C638 H628 0.930 . S
C638 C636 1.419 . S
C638 C639 1.362 . S
C639 H629 0.930 . S
C639 C632 1.409 1_554 S
C639 C638 1.362 . S
H640 C646 0.930 . S
H641 C649 0.930 . S
H642 C650 0.930 . S
H643 C651 0.930 . S
H644 C654 0.930 . S
H645 C655 0.930 . S
C646 H640 0.930 . S
C646 C647 1.355 . S
C646 C648 1.415 . S
C647 C646 1.355 . S
C647 C649 1.419 . S
C648 C646 1.415 . S
C648 C653 1.425 . S
C648 C655 1.409 . S
C649 H641 0.930 . S
C649 C647 1.419 . S
C649 C650 1.362 . S
C650 H642 0.930 . S
C650 C649 1.362 . S
C650 C653 1.409 . S
C651 H643 0.930 . S
C651 C652 1.355 . S
C651 C653 1.415 . S
C652 C651 1.355 . S
C652 C654 1.419 . S
C653 C648 1.425 . S
C653 C650 1.409 . S
C653 C651 1.415 . S
C654 H644 0.930 . S
C654 C652 1.419 . S
C654 C655 1.362 . S
C655 H645 0.930 . S
C655 C648 1.409 . S
C655 C654 1.362 . S
H656 C662 0.930 . S
H657 C665 0.930 . S
H658 C666 0.930 . S
H659 C667 0.930 . S
H660 C670 0.930 . S
H661 C671 0.930 . S
C662 H656 0.930 . S
C662 C663 1.355 . S
C662 C664 1.415 . S
C663 C662 1.355 . S
C663 C665 1.419 . S
C664 C662 1.415 . S
C664 C669 1.425 1_554 S
C664 C671 1.409 1_554 S
C665 H657 0.930 . S
C665 C663 1.419 . S
C665 C666 1.362 . S
C666 H658 0.930 . S
C666 C665 1.362 . S
C666 C669 1.409 1_554 S
C667 H659 0.930 . S
C667 C668 1.355 . S
C667 C669 1.415 . S
C668 C667 1.355 . S
C668 C670 1.419 . S
C669 C664 1.425 1_556 S
C669 C666 1.409 1_556 S
C669 C667 1.415 . S
C670 H660 0.930 . S
C670 C668 1.419 . S
C670 C671 1.362 . S
C671 H661 0.930 . S
C671 C664 1.409 1_556 S
C671 C670 1.362 . S
H672 C678 0.930 . S
H673 C681 0.930 . S
H674 C682 0.930 . S
H675 C683 0.930 . S
H676 C686 0.930 . S
H677 C687 0.930 . S
C678 H672 0.930 . S
C678 C679 1.355 . S
C678 C680 1.415 . S
C679 C678 1.355 . S
C679 C681 1.419 . S
C680 C678 1.415 . S
C680 C685 1.425 . S
C680 C687 1.409 . S
C681 H673 0.930 . S
C681 C679 1.419 . S
C681 C682 1.362 . S
C682 H674 0.930 . S
C682 C681 1.362 . S
C682 C685 1.409 . S
C683 H675 0.930 . S
C683 C684 1.355 . S
C683 C685 1.415 . S
C684 C683 1.355 . S
C684 C686 1.419 . S
C685 C680 1.425 . S
C685 C682 1.409 . S
C685 C683 1.415 . S
C686 H676 0.930 . S
C686 C684 1.419 . S
C686 C687 1.362 . S
C687 H677 0.930 . S
C687 C680 1.409 . S
C687 C686 1.362 . S
H688 C694 0.930 . S
H689 C697 0.930 . S
H690 C698 0.930 . S
H691 C699 0.930 . S
H692 C702 0.930 . S
H693 C703 0.930 . S
C694 H688 0.930 . S
C694 C695 1.355 . S
C694 C696 1.415 . S
C695 C694 1.355 . S
C695 C697 1.419 . S
C696 C694 1.415 . S
C696 C701 1.425 . S
C696 C703 1.409 . S
C697 H689 0.930 . S
C697 C695 1.419 . S
C697 C698 1.362 . S
C698 H690 0.930 . S
C698 C697 1.362 . S
C698 C701 1.409 . S
C699 H691 0.930 . S
C699 C700 1.355 . S
C699 C701 1.415 . S
C700 C699 1.355 . S
C700 C702 1.419 . S
C701 C696 1.425 . S
C701 C698 1.409 . S
C701 C699 1.415 . S
C702 H692 0.930 . S
C702 C700 1.419 . S
C702 C703 1.362 . S
C703 H693 0.930 . S
C703 C696 1.409 . S
C703 C702 1.362 . S
H704 C710 0.930 . S
H705 C713 0.930 . S
H706 C714 0.930 . S
H707 C715 0.930 . S
H708 C718 0.930 . S
H709 C719 0.930 . S
C710 H704 0.930 . S
C710 C711 1.355 . S
C710 C712 1.415 . S
C711 C710 1.355 . S
C711 C713 1.419 . S
C712 C710 1.415 . S
C712 C717 1.425 1_556 S
C712 C719 1.409 1_556 S
C713 H705 0.930 . S
C713 C711 1.419 . S
C713 C714 1.362 . S
C714 H706 0.930 . S
C714 C713 1.362 . S
C714 C717 1.409 1_556 S
C715 H707 0.930 . S
C715 C716 1.355 . S
C715 C717 1.415 . S
C716 C715 1.355 . S
C716 C718 1.419 . S
C717 C712 1.425 1_554 S
C717 C714 1.409 1_554 S
C717 C715 1.415 . S
C718 H708 0.930 . S
C718 C716 1.419 . S
C718 C719 1.362 . S
C719 H709 0.930 . S
C719 C712 1.409 1_554 S
C719 C718 1.362 . S
H720 C726 0.930 . S
H721 C729 0.930 . S
H722 C730 0.930 . S
H723 C731 0.930 . S
H724 C734 0.930 . S
H725 C735 0.930 . S
C726 H720 0.930 . S
C726 C727 1.355 . S
C726 C728 1.415 . S
C727 C726 1.355 . S
C727 C729 1.419 . S
C728 C726 1.415 . S
C728 C733 1.425 . S
C728 C735 1.409 . S
C729 H721 0.930 . S
C729 C727 1.419 . S
C729 C730 1.362 . S
C730 H722 0.930 . S
C730 C729 1.362 . S
C730 C733 1.409 . S
C731 H723 0.930 . S
C731 C732 1.355 . S
C731 C733 1.415 . S
C732 C731 1.355 . S
C732 C734 1.419 . S
C733 C728 1.425 . S
C733 C730 1.409 . S
C733 C731 1.415 . S
C734 H724 0.930 . S
C734 C732 1.419 . S
C734 C735 1.362 . S
C735 H725 0.930 . S
C735 C728 1.409 . S
C735 C734 1.362 . S
H736 C742 0.930 . S
H737 C745 0.930 . S
H738 C746 0.930 . S
H739 C747 0.930 . S
H740 C750 0.930 . S
H741 C751 0.930 . S
C742 H736 0.930 . S
C742 C743 1.355 . S
C742 C744 1.415 . S
C743 C742 1.355 . S
C743 C745 1.419 . S
C744 C742 1.415 . S
C744 C749 1.425 1_554 S
C744 C751 1.409 1_554 S
C745 H737 0.930 . S
C745 C743 1.419 . S
C745 C746 1.362 . S
C746 H738 0.930 . S
C746 C745 1.362 . S
C746 C749 1.409 1_554 S
C747 H739 0.930 . S
C747 C748 1.355 . S
C747 C749 1.415 . S
C748 C747 1.355 . S
C748 C750 1.419 . S
C749 C744 1.425 1_556 S
C749 C746 1.409 1_556 S
C749 C747 1.415 . S
C750 H740 0.930 . S
C750 C748 1.419 . S
C750 C751 1.362 . S
C751 H741 0.930 . S
C751 C744 1.409 1_556 S
C751 C750 1.362 . S
H752 C758 0.930 . S
H753 C761 0.930 . S
H754 C762 0.930 . S
H755 C763 0.930 . S
H756 C766 0.930 . S
H757 C767 0.930 . S
C758 H752 0.930 . S
C758 C759 1.355 . S
C758 C760 1.415 . S
C759 C758 1.355 . S
C759 C761 1.419 . S
C760 C758 1.415 . S
C760 C765 1.425 . S
C760 C767 1.409 . S
C761 H753 0.930 . S
C761 C759 1.419 . S
C761 C762 1.362 . S
C762 H754 0.930 . S
C762 C761 1.362 . S
C762 C765 1.409 . S
C763 H755 0.930 . S
C763 C764 1.355 . S
C763 C765 1.415 . S
C764 C763 1.355 . S
C764 C766 1.419 . S
C765 C760 1.425 . S
C765 C762 1.409 . S
C765 C763 1.415 . S
C766 H756 0.930 . S
C766 C764 1.419 . S
C766 C767 1.362 . S
C767 H757 0.930 . S
C767 C760 1.409 . S
C767 C766 1.362 . S
H768 C774 0.930 . S
H769 C777 0.930 . S
H770 C778 0.930 . S
H771 C779 0.930 . S
H772 C782 0.930 . S
H773 C783 0.930 . S
C774 H768 0.930 . S
C774 C775 1.355 . S
C774 C776 1.415 . S
C775 C774 1.355 . S
C775 C777 1.419 . S
C776 C774 1.415 . S
C776 C781 1.425 . S
C776 C783 1.409 . S
C777 H769 0.930 . S
C777 C775 1.419 . S
C777 C778 1.362 . S
C778 H770 0.930 . S
C778 C777 1.362 . S
C778 C781 1.409 . S
C779 H771 0.930 . S
C779 C780 1.355 . S
C779 C781 1.415 . S
C780 C779 1.355 . S
C780 C782 1.419 . S
C781 C776 1.425 . S
C781 C778 1.409 . S
C781 C779 1.415 . S
C782 H772 0.930 . S
C782 C780 1.419 . S
C782 C783 1.362 . S
C783 H773 0.930 . S
C783 C776 1.409 . S
C783 C782 1.362 . S
H784 C790 0.930 . S
H785 C793 0.930 . S
H786 C794 0.930 . S
H787 C795 0.930 . S
H788 C798 0.930 . S
H789 C799 0.930 . S
C790 H784 0.930 . S
C790 C791 1.355 . S
C790 C792 1.415 . S
C791 C790 1.355 . S
C791 C793 1.419 . S
C792 C790 1.415 . S
C792 C797 1.425 . S
C792 C799 1.409 . S
C793 H785 0.930 . S
C793 C791 1.419 . S
C793 C794 1.362 . S
C794 H786 0.930 . S
C794 C793 1.362 . S
C794 C797 1.409 . S
C795 H787 0.930 . S
C795 C796 1.355 . S
C795 C797 1.415 . S
C796 C795 1.355 . S
C796 C798 1.419 . S
C797 C792 1.425 . S
C797 C794 1.409 . S
C797 C795 1.415 . S
C798 H788 0.930 . S
C798 C796 1.419 . S
C798 C799 1.362 . S
C799 H789 0.930 . S
C799 C792 1.409 . S
C799 C798 1.362 . S
H800 C806 0.930 . S
H801 C809 0.930 . S
H802 C810 0.930 . S
H803 C811 0.930 . S
H804 C814 0.930 . S
H805 C815 0.930 . S
C806 H800 0.930 . S
C806 C807 1.355 . S
C806 C808 1.415 . S
C807 C806 1.355 . S
C807 C809 1.419 . S
C808 C806 1.415 . S
C808 C813 1.425 . S
C808 C815 1.409 . S
C809 H801 0.930 . S
C809 C807 1.419 . S
C809 C810 1.362 . S
C810 H802 0.930 . S
C810 C809 1.362 . S
C810 C813 1.409 . S
C811 H803 0.930 . S
C811 C812 1.355 . S
C811 C813 1.415 . S
C812 C811 1.355 . S
C812 C814 1.419 . S
C813 C808 1.425 . S
C813 C810 1.409 . S
C813 C811 1.415 . S
C814 H804 0.930 . S
C814 C812 1.419 . S
C814 C815 1.362 . S
C815 H805 0.930 . S
C815 C808 1.409 . S
C815 C814 1.362 . S
H816 C822 0.930 . S
H817 C825 0.930 . S
H818 C826 0.930 . S
H819 C827 0.930 . S
H820 C830 0.930 . S
H821 C831 0.930 . S
C822 H816 0.930 . S
C822 C823 1.355 . S
C822 C824 1.415 . S
C823 C822 1.355 . S
C823 C825 1.419 . S
C824 C822 1.415 . S
C824 C829 1.425 . S
C824 C831 1.409 . S
C825 H817 0.930 . S
C825 C823 1.419 . S
C825 C826 1.362 . S
C826 H818 0.930 . S
C826 C825 1.362 . S
C826 C829 1.409 . S
C827 H819 0.930 . S
C827 C828 1.355 . S
C827 C829 1.415 . S
C828 C827 1.355 . S
C828 C830 1.419 . S
C829 C824 1.425 . S
C829 C826 1.409 . S
C829 C827 1.415 . S
C830 H820 0.930 . S
C830 C828 1.419 . S
C830 C831 1.362 . S
C831 H821 0.930 . S
C831 C824 1.409 . S
C831 C830 1.362 . S
H832 C838 0.930 . S
H833 C841 0.930 . S
H834 C842 0.930 . S
H835 C843 0.930 . S
H836 C846 0.930 . S
H837 C847 0.930 . S
C838 H832 0.930 . S
C838 C839 1.355 . S
C838 C840 1.415 . S
C839 C838 1.355 . S
C839 C841 1.419 . S
C840 C838 1.415 . S
C840 C845 1.425 . S
C840 C847 1.409 . S
C841 H833 0.930 . S
C841 C839 1.419 . S
C841 C842 1.362 . S
C842 H834 0.930 . S
C842 C841 1.362 . S
C842 C845 1.409 . S
C843 H835 0.930 . S
C843 C844 1.355 . S
C843 C845 1.415 . S
C844 C843 1.355 . S
C844 C846 1.419 . S
C845 C840 1.425 . S
C845 C842 1.409 . S
C845 C843 1.415 . S
C846 H836 0.930 . S
C846 C844 1.419 . S
C846 C847 1.362 . S
C847 H837 0.930 . S
C847 C840 1.409 . S
C847 C846 1.362 . S
H848 C854 0.930 . S
H849 C857 0.930 . S
H850 C858 0.930 . S
H851 C859 0.930 . S
H852 C862 0.930 . S
H853 C863 0.930 . S
C854 H848 0.930 . S
C854 C855 1.355 . S
C854 C856 1.415 . S
C855 C854 1.355 . S
C855 C857 1.419 . S
C856 C854 1.415 . S
C856 C861 1.425 . S
C856 C863 1.409 . S
C857 H849 0.930 . S
C857 C855 1.419 . S
C857 C858 1.362 . S
C858 H850 0.930 . S
C858 C857 1.362 . S
C858 C861 1.409 . S
C859 H851 0.930 . S
C859 C860 1.355 . S
C859 C861 1.415 . S
C860 C859 1.355 . S
C860 C862 1.419 . S
C861 C856 1.425 . S
C861 C858 1.409 . S
C861 C859 1.415 . S
C862 H852 0.930 . S
C862 C860 1.419 . S
C862 C863 1.362 . S
C863 H853 0.930 . S
C863 C856 1.409 . S
C863 C862 1.362 . S
H864 C870 0.930 . S
H865 C873 0.930 . S
H866 C874 0.930 . S
H867 C875 0.930 . S
H868 C878 0.930 . S
H869 C879 0.930 . S
C870 H864 0.930 . S
C870 C871 1.355 . S
C870 C872 1.415 . S
C871 C870 1.355 . S
C871 C873 1.419 . S
C872 C870 1.415 . S
C872 C877 1.425 . S
C872 C879 1.409 . S
C873 H865 0.930 . S
C873 C871 1.419 . S
C873 C874 1.362 . S
C874 H866 0.930 . S
C874 C873 1.362 . S
C874 C877 1.409 . S
C875 H867 0.930 . S
C875 C876 1.355 . S
C875 C877 1.415 . S
C876 C875 1.355 . S
C876 C878 1.419 . S
C877 C872 1.425 . S
C877 C874 1.409 . S
C877 C875 1.415 . S
C878 H868 0.930 . S
C878 C876 1.419 . S
C878 C879 1.362 . S
C879 H869 0.930 . S
C879 C872 1.409 . S
C879 C878 1.362 . S
C375 N2 1.571 . S
C380 N48 1.558 . S
C391 N71 1.561 . S
C396 N25 1.570 . S
C407 N94 1.570 . S
C412 N140 1.551 . S
C423 N163 1.527 . S
C428 N117 1.560 . S
C439 N186 1.559 . S
C444 N232 1.571 . S
C455 N255 1.530 . S
C460 N209 1.562 . S
C471 N278 1.545 . S
C476 N324 1.506 . S
C487 N347 1.541 . S
C492 N301 1.568 . S
C503 C108 1.583 . S
C508 C16 1.611 . S
C519 C39 1.609 . S
C524 C131 1.581 . S
C535 C62 1.631 . S
C540 C154 1.631 . S
C551 C177 1.576 . S
C556 C85 1.589 . S
C567 C200 1.577 . S
C572 C292 1.587 . S
C583 C223 1.632 . S
C588 C315 1.606 . S
C599 C246 1.576 . S
C604 C338 1.591 . S
C615 C269 1.578 . S
C620 C361 1.583 . S
C631 C237 1.619 . S
C636 C7 1.651 . S
C647 C260 1.647 . S
C652 C30 1.623 . S
C663 C53 1.620 . S
C668 C191 1.650 . S
C679 C76 1.636 . S
C684 C214 1.634 . S
C695 C99 1.630 . S
C700 C329 1.640 . S
C711 C122 1.655 . S
C716 C352 1.615 . S
C727 C145 1.642 . S
C732 C283 1.628 . S
C743 C306 1.643 . S
C748 C168 1.627 . S
C759 N12 1.581 . S
C764 N357 1.526 . S
C775 N288 1.526 . S
C780 N35 1.581 . S
C791 N58 1.542 . S
C796 N311 1.565 . S
C807 N334 1.540 . S
C812 N81 1.566 . S
C823 N219 1.548 . S
C828 N104 1.558 . S
C839 N127 1.565 . S
C844 N242 1.542 . S
C855 N265 1.552 . S
C860 N150 1.555 . S
C871 N196 1.564 . S
C876 N173 1.543 . S
