# Generated by pormake.
# Topology fnu, (5)-cn, num edge types: 1
# Building blocks:
#     Node 0, Type 0, BuildingBlock: XOMCOT_clean_sbu_0, # of connection points: 5
#     Node 1, Type 0, BuildingBlock: XOMCOT_clean_sbu_0, # of connection points: 5
#     Node 2, Type 0, BuildingBlock: XOMCOT_clean_sbu_0, # of connection points: 5
#     Node 3, Type 0, BuildingBlock: XOMCOT_clean_sbu_0, # of connection points: 5
#     Node 4, Type 0, BuildingBlock: XOMCOT_clean_sbu_0, # of connection points: 5
#     Node 5, Type 0, BuildingBlock: XOMCOT_clean_sbu_0, # of connection points: 5
#     Edge 6, Type (0, 0), BuildingBlock: MIFKUJ_clean_linker_0, # of connection points: 2
#     Edge 7, Type (0, 0), BuildingBlock: MIFKUJ_clean_linker_0, # of connection points: 2
#     Edge 8, Type (0, 0), BuildingBlock: MIFKUJ_clean_linker_0, # of connection points: 2
#     Edge 9, Type (0, 0), BuildingBlock: MIFKUJ_clean_linker_0, # of connection points: 2
#     Edge 10, Type (0, 0), BuildingBlock: MIFKUJ_clean_linker_0, # of connection points: 2
#     Edge 11, Type (0, 0), BuildingBlock: MIFKUJ_clean_linker_0, # of connection points: 2
#     Edge 12, Type (0, 0), BuildingBlock: MIFKUJ_clean_linker_0, # of connection points: 2
#     Edge 13, Type (0, 0), BuildingBlock: MIFKUJ_clean_linker_0, # of connection points: 2
#     Edge 14, Type (0, 0), BuildingBlock: MIFKUJ_clean_linker_0, # of connection points: 2
#     Edge 15, Type (0, 0), BuildingBlock: MIFKUJ_clean_linker_0, # of connection points: 2
#     Edge 16, Type (0, 0), BuildingBlock: MIFKUJ_clean_linker_0, # of connection points: 2
#     Edge 17, Type (0, 0), BuildingBlock: MIFKUJ_clean_linker_0, # of connection points: 2
#     Edge 18, Type (0, 0), BuildingBlock: MIFKUJ_clean_linker_0, # of connection points: 2
#     Edge 19, Type (0, 0), BuildingBlock: MIFKUJ_clean_linker_0, # of connection points: 2
#     Edge 20, Type (0, 0), BuildingBlock: MIFKUJ_clean_linker_0, # of connection points: 2
# Relax obj value: 0.167
# Max RMSD: 0.129
# Mean RMSD: 0.129
data_MOF--net-fnu--node1-XOMCOT_clean_sbu_0--edge1-MIFKUJ_clean_linker_0
_symmetry_space_group_name_H-M    P1
_symmetry_Int_Tables_number       1
_symmetry_cell_setting            triclinic
loop_
_symmetry_equiv_pos_as_xyz
'x, y, z'
_cell_length_a     33.766424
_cell_length_b     36.227689
_cell_length_c     41.948234
_cell_angle_alpha  90.245006
_cell_angle_beta   98.458449
_cell_angle_gamma 122.24952
loop_
_atom_site_label
_atom_site_type_symbol
_atom_site_fract_x
_atom_site_fract_y
_atom_site_fract_z
_atom_type_partial_charge
Co0 Co 0.09362 0.09199 0.24872 0.0
C1 C 0.09252 0.08291 0.31924 0.0
C2 C 0.16327 0.12469 0.30938 0.0
C3 C 0.16571 0.12318 0.34234 0.0
N4 N 0.11745 0.09938 0.29483 0.0
N5 N 0.12123 0.09711 0.34874 0.0
H6 H 0.05414 0.06194 0.31547 0.0
H7 H 0.19305 0.14364 0.29707 0.0
C8 C 0.17167 0.10484 0.21275 0.0
O9 O 0.13872 0.07634 0.18915 0.0
N10 N 0.06918 0.08535 0.20302 0.0
C11 C 0.08346 0.11777 0.18326 0.0
C12 C 0.05456 0.10099 0.1534 0.0
C13 C 1.03141 0.04963 0.18511 0.0
N14 N 1.02201 0.05817 0.15476 0.0
C15 C 1.02526 1.00017 0.25146 0.0
C16 C 0.07499 0.96821 0.22867 0.0
C17 C 1.02598 0.93892 0.22812 0.0
C18 C 1.00199 0.95528 0.24165 0.0
C19 C 0.09703 1.01284 0.23914 0.0
N20 N 0.07109 0.02912 0.24735 0.0
H21 H 1.00481 1.01186 0.25983 0.0
H22 H 0.13462 0.03391 0.23963 0.0
H23 H 0.11298 0.15125 0.19008 0.0
H24 H 1.01054 1.01804 0.19379 0.0
O25 O 1.03647 0.08871 0.25697 0.0
O26 O 0.10299 0.1498 0.25131 0.0
O27 O 0.15978 0.11174 0.23886 0.0
C28 C 0.05862 0.13065 0.25441 0.0
H29 H 0.19809 0.14013 0.36014 0.0
H30 H 0.05808 0.11857 0.13213 0.0
H31 H 0.09603 0.95741 0.21977 0.0
H32 H 0.96489 0.93393 0.24364 0.0
Co33 Co 1.00957 1.0208 0.76589 0.0
C34 C 1.01921 1.02223 0.6961 0.0
C35 C 0.94743 0.99645 0.70281 0.0
C36 C 0.94829 0.99621 0.67014 0.0
N37 N 0.9917 1.01241 0.71912 0.0
N38 N 0.99335 1.01237 0.66578 0.0
H39 H 0.05717 0.03621 0.70143 0.0
H40 H 0.91663 0.98639 0.71388 0.0
C41 C 0.92946 0.93969 0.79016 0.0
O42 O 0.96145 0.93684 0.81004 0.0
N43 N 1.02669 0.02995 0.81277 0.0
C44 C 0.06648 0.03734 0.832 0.0
C45 C 0.05865 0.03243 0.86336 0.0
C46 C 0.99693 1.02433 0.83316 0.0
N47 N 1.01476 1.02382 0.86384 0.0
C48 C 0.08593 1.00723 0.76872 0.0
C49 C 1.03461 0.91715 0.76623 0.0
C50 C 0.08439 0.94006 0.77684 0.0
C51 C 0.10978 0.98588 0.77641 0.0
C52 C 1.01196 0.94031 0.75939 0.0
N53 N 1.03748 0.98511 0.76381 0.0
H54 H 0.10719 0.04248 0.76986 0.0
H55 H 0.97391 0.92199 0.75155 0.0
H56 H 0.09838 0.04378 0.82423 0.0
H57 H 0.96082 1.01587 0.82527 0.0
O58 O 0.06572 0.078 0.76334 0.0
O59 O 0.99602 0.06679 0.76803 0.0
O60 O 0.94282 0.9684 0.76954 0.0
C61 C 1.04074 0.09472 0.76692 0.0
H62 H 0.91812 0.98602 0.65106 0.0
H63 H 0.08184 0.0318 0.88383 0.0
H64 H 1.01291 0.88171 0.76375 0.0
H65 H 0.14791 1.00633 0.78378 0.0
Co66 Co 0.75489 0.37458 0.57808 0.0
C67 C 0.75385 0.37591 0.64942 0.0
C68 C 0.82081 0.42588 0.63744 0.0
C69 C 0.82443 0.42886 0.67053 0.0
N70 N 0.77684 0.39252 0.62414 0.0
N71 N 0.78247 0.3975 0.67818 0.0
H72 H 0.71738 0.34844 0.64688 0.0
H73 H 0.84844 0.44689 0.62397 0.0
C74 C 0.83854 0.37946 0.55305 0.0
O75 O 0.80916 0.34239 0.53465 0.0
N76 N 0.73347 0.35766 0.53193 0.0
C77 C 0.69659 0.3193 0.51607 0.0
C78 C 0.70149 0.31827 0.4842 0.0
C79 C 0.75812 0.38053 0.50899 0.0
N80 N 0.74037 0.35662 0.48005 0.0
C81 C 0.68656 0.28494 0.58611 0.0
C82 C 0.74302 0.25207 0.58231 0.0
C83 C 0.69326 0.22241 0.5766 0.0
C84 C 0.66544 0.23963 0.58065 0.0
C85 C 0.76268 0.29748 0.58769 0.0
N86 N 0.73394 0.31355 0.58589 0.0
H87 H 0.6634 0.29676 0.58686 0.0
H88 H 0.8008 0.31933 0.59211 0.0
H89 H 0.66914 0.29271 0.52665 0.0
H90 H 0.79156 0.41198 0.51414 0.0
O91 O 0.69619 0.37188 0.58026 0.0
O92 O 0.76201 0.4308 0.57086 0.0
O93 O 0.82282 0.39353 0.57298 0.0
C94 C 0.71746 0.41229 0.57327 0.0
H95 H 0.85544 0.45287 0.6877 0.0
H96 H 0.68009 0.29051 0.46598 0.0
H97 H 0.76666 0.24056 0.58179 0.0
H98 H 0.62706 0.21892 0.57723 0.0
Co99 Co 0.72901 0.40978 0.10566 0.0
C100 C 0.72697 0.39809 0.0346 0.0
C101 C 0.65747 0.37148 0.04632 0.0
C102 C 0.65302 0.36557 0.01332 0.0
N103 N 0.70371 0.39169 0.05978 0.0
N104 N 0.69666 0.38253 1.00569 0.0
H105 H 0.76523 0.4147 0.03737 0.0
H106 H 0.62869 0.36215 0.0594 0.0
C107 C 0.65305 0.34353 0.14187 0.0
O108 O 0.68676 0.34573 0.16354 0.0
N109 N 0.75382 0.42891 0.15133 0.0
C110 C 0.73611 0.44396 0.17089 0.0
C111 C 0.76325 0.45571 0.20133 0.0
C112 C 0.79223 0.43281 0.16999 0.0
N113 N 0.79845 0.44852 0.20071 0.0
C114 C 0.79857 0.38686 0.10652 0.0
C115 C 0.74282 0.30016 0.11784 0.0
C116 C 0.79239 0.31955 0.12188 0.0
C117 C 0.81982 0.36316 0.11462 0.0
C118 C 0.72299 0.32537 0.10981 0.0
N119 N 0.75145 0.36932 0.10712 0.0
H120 H 0.8214 0.42084 0.10266 0.0
H121 H 0.68491 0.30936 0.10644 0.0
H122 H 0.70484 0.44528 0.16365 0.0
H123 H 0.81536 0.42441 0.16175 0.0
O124 O 0.78567 0.46249 0.0964 0.0
O125 O 0.71979 0.45845 0.10249 0.0
O126 O 0.66371 0.3643 0.11657 0.0
C127 C 0.76395 0.48285 0.09875 0.0
H128 H 0.6198 0.34979 0.99634 0.0
H129 H 0.75616 0.46669 0.22257 0.0
H130 H 0.71942 0.26591 0.1212 0.0
H131 H 0.85806 0.38011 0.11688 0.0
Co132 Co 0.37781 0.70774 0.90463 0.0
C133 C 0.38582 0.70145 0.97586 0.0
C134 C 0.454 0.74188 0.96168 0.0
C135 C 0.46082 0.74105 0.99476 0.0
N136 N 0.40706 0.71681 0.94974 0.0
N137 N 0.41803 0.71571 1.00375 0.0
H138 H 0.34772 0.68035 0.97448 0.0
H139 H 0.48159 0.76036 0.94755 0.0
C140 C 0.45016 0.71803 0.86366 0.0
O141 O 0.41507 0.68935 0.84114 0.0
N142 N 0.34791 0.69938 0.85991 0.0
C143 C 0.305 0.66588 0.84472 0.0
C144 C 0.29485 0.67671 0.81459 0.0
C145 C 0.36253 0.73047 0.83913 0.0
N146 N 0.33114 0.71727 0.81119 0.0
C147 C 0.30947 0.61659 0.90861 0.0
C148 C 0.35983 0.58302 0.88963 0.0
C149 C 0.31121 0.5537 0.89052 0.0
C150 C 0.28674 0.57128 0.9015 0.0
C151 C 0.38116 0.62839 0.89675 0.0
N152 N 0.35499 0.64499 0.90377 0.0
H153 H 0.28874 0.62877 0.91565 0.0
H154 H 0.41847 0.64966 0.89606 0.0
H155 H 0.2815 0.63613 0.85478 0.0
H156 H 0.39516 0.76248 0.84469 0.0
O157 O 0.32318 0.70575 0.91668 0.0
O158 O 0.38803 0.76603 0.90769 0.0
O159 O 0.44142 0.72576 0.89089 0.0
C160 C 0.34493 0.7475 0.91353 0.0
H161 H 0.49471 0.75888 0.01107 0.0
H162 H 0.26327 0.65629 0.79658 0.0
H163 H 0.38128 0.5712 0.88307 0.0
H164 H 0.2494 0.55069 0.90301 0.0
Co165 Co 0.39016 0.69867 0.43651 0.0
C166 C 0.38453 0.69164 0.36474 0.0
C167 C 0.31616 0.66476 0.3785 0.0
C168 C 0.31032 0.66217 0.34529 0.0
N169 N 0.36258 0.68307 0.39081 0.0
N170 N 0.35324 0.6793 0.33648 0.0
H171 H 0.42263 0.70797 0.36645 0.0
H172 H 0.28831 0.65499 0.39257 0.0
C173 C 0.31373 0.63411 0.47385 0.0
O174 O 0.34651 0.63703 0.4968 0.0
N175 N 0.41802 0.71563 0.48179 0.0
C176 C 0.4607 0.72421 0.49676 0.0
C177 C 0.47249 0.74754 0.52634 0.0
C178 C 0.40487 0.73417 0.50219 0.0
N179 N 0.43761 0.75434 0.52928 0.0
C180 C 0.45603 0.67367 0.42833 0.0
C181 C 0.40803 0.59213 0.45082 0.0
C182 C 0.45598 0.61052 0.4481 0.0
C183 C 0.47883 0.65092 0.43479 0.0
C184 C 0.38619 0.61565 0.44332 0.0
N185 N 0.41146 0.65759 0.43492 0.0
H186 H 0.47577 0.70569 0.4199 0.0
H187 H 0.34934 0.59995 0.44514 0.0
H188 H 0.48341 0.71689 0.48636 0.0
H189 H 0.37255 0.73418 0.49663 0.0
O190 O 0.44664 0.75219 0.42746 0.0
O191 O 0.38172 0.74776 0.43657 0.0
O192 O 0.32511 0.65324 0.44797 0.0
C193 C 0.42557 0.77255 0.43236 0.0
H194 H 0.27681 0.64887 0.32892 0.0
H195 H 0.50518 0.7603 0.54354 0.0
H196 H 0.38767 0.56054 0.45994 0.0
H197 H 0.51477 0.66582 0.43022 0.0
H198 H 0.20956 0.08041 0.17035 0.0
H199 H 0.29081 0.1199 0.15993 0.0
H200 H 0.33044 0.22309 0.23342 0.0
H201 H 0.24908 0.1824 0.2449 0.0
H202 H 0.34097 0.19014 0.13648 0.0
H203 H 0.44911 0.28036 0.26308 0.0
H204 H 0.44504 0.26901 0.32077 0.0
H205 H 0.35951 0.1295 0.29639 0.0
H206 H 0.36357 0.14001 0.23864 0.0
H207 H 0.57766 0.35027 0.11571 0.0
H208 H 0.49736 0.31104 0.12876 0.0
H209 H 0.53398 0.23716 0.19325 0.0
H210 H 0.61471 0.27786 0.18152 0.0
H211 H 0.48536 0.25518 0.22134 0.0
H212 H 0.45923 0.19452 0.11315 0.0
H213 H 0.46306 0.19533 0.05487 0.0
H214 H 0.38373 0.25702 0.04146 0.0
H215 H 0.37994 0.25705 0.09976 0.0
C216 C 0.23562 0.11129 0.18464 0.0
C217 C 0.22258 0.12804 0.20861 0.0
C218 C 0.28229 0.13411 0.17848 0.0
C219 C 0.31752 0.17474 0.19581 0.0
C220 C 0.30463 0.19152 0.21998 0.0
C221 C 0.2579 0.16823 0.22654 0.0
C222 C 0.36698 0.19951 0.18783 0.0
C223 C 0.37244 0.20434 0.15516 0.0
C224 C 0.40863 0.2177 0.21183 0.0
C225 C 0.4062 0.21103 0.24651 0.0
C226 C 0.42954 0.24727 0.27005 0.0
C227 C 0.42722 0.24098 0.30276 0.0
C228 C 0.40188 0.19857 0.31222 0.0
C229 C 0.37895 0.16234 0.28901 0.0
C230 C 0.3812 0.16845 0.25629 0.0
C231 C 0.56845 0.3254 0.13246 0.0
C232 C 0.60277 0.31719 0.14742 0.0
C233 C 0.52227 0.30274 0.1399 0.0
C234 C 0.50871 0.27037 0.16183 0.0
C235 C 0.54301 0.26192 0.17642 0.0
C236 C 0.58933 0.28513 0.1695 0.0
C237 C 0.45933 0.24567 0.16998 0.0
C238 C 0.45389 0.24104 0.20267 0.0
C239 C 0.41761 0.22623 0.14593 0.0
C240 C 0.41973 0.22619 0.11087 0.0
C241 C 0.44288 0.20852 0.09781 0.0
C242 C 0.44501 0.20879 0.06477 0.0
C243 C 0.42377 0.22633 0.04449 0.0
C244 C 0.40024 0.24351 0.0572 0.0
C245 C 0.39806 0.24336 0.09024 0.0
H246 H 0.42545 0.22651 0.01892 0.0
H247 H 0.40011 0.19377 0.33755 0.0
H248 H 0.08833 0.20811 0.22811 0.0
H249 H 1.04123 0.23864 0.20852 0.0
H250 H 0.92155 0.13465 0.24576 0.0
H251 H 0.9682 0.10261 0.26394 0.0
H252 H 0.88925 0.14366 0.19031 0.0
H253 H 0.99187 0.24901 0.27985 0.0
H254 H 0.06752 0.30246 0.31546 0.0
H255 H 0.11465 0.38226 0.23699 0.0
H256 H 1.03952 0.32899 0.20077 0.0
H257 H 0.76452 0.25703 0.16566 0.0
H258 H 0.8066 0.22333 0.19005 0.0
H259 H 0.91709 0.29581 0.13392 0.0
H260 H 0.8744 0.32791 0.1081 0.0
H261 H 0.95072 0.30247 0.20228 0.0
H262 H 0.84508 0.19223 0.11319 0.0
H263 H 0.76688 0.13849 0.08036 0.0
H264 H 0.72219 0.06799 0.16338 0.0
H265 H 0.79995 0.12171 0.19684 0.0
C266 C 0.05232 0.19218 0.23281 0.0
C267 C 1.03231 0.1531 0.24798 0.0
C268 C 1.02524 0.20982 0.22158 0.0
C269 C 0.97765 0.18959 0.22594 0.0
C270 C 0.95804 0.15113 0.24196 0.0
C271 C 0.98492 0.13299 0.25268 0.0
C272 C 0.94792 0.20726 0.21225 0.0
C273 C 0.90257 0.17833 0.19357 0.0
C274 C 0.96493 0.25262 0.21582 0.0
C275 C 1.01019 0.28479 0.23752 0.0
C276 C 1.0185 0.2778 0.27012 0.0
C277 C 0.06127 0.30809 0.29042 0.0
C278 C 0.09591 0.34568 0.27847 0.0
C279 C 0.0878 0.35311 0.2462 0.0
C280 C 0.0451 0.3229 0.22578 0.0
C281 C 0.79717 0.26518 0.1578 0.0
C282 C 0.81586 0.29574 0.13485 0.0
C283 C 0.82145 0.24605 0.17208 0.0
C284 C 0.86528 0.25723 0.16405 0.0
C285 C 0.88362 0.28697 0.14081 0.0
C286 C 0.85909 0.30556 0.12616 0.0
C287 C 0.89274 0.23893 0.18034 0.0
C288 C 0.93754 0.2678 0.19943 0.0
C289 C 0.87487 0.19351 0.17768 0.0
C290 C 0.82812 0.16128 0.1576 0.0
C291 C 0.81841 0.16553 0.12453 0.0
C292 C 0.77421 0.13501 0.10578 0.0
C293 C 0.73953 0.09993 0.1198 0.0
C294 C 0.74905 0.09523 0.15257 0.0
C295 C 0.79319 0.12568 0.17143 0.0
H296 H 0.70534 0.07632 0.10524 0.0
H297 H 0.129 0.36909 0.29423 0.0
H298 H 0.86027 0.54093 0.10714 0.0
H299 H 0.90513 0.61927 0.12537 0.0
H300 H 0.77397 0.61399 0.12166 0.0
H301 H 0.72867 0.53527 0.10375 0.0
H302 H 0.84719 0.69112 0.09798 0.0
H303 H 0.82641 0.60911 0.19129 0.0
H304 H 0.83194 0.55527 0.22402 0.0
H305 H 0.98367 0.62973 0.23024 0.0
H306 H 0.97891 0.68373 0.19699 0.0
H307 H 0.93386 0.88891 0.19477 0.0
H308 H 0.8909 0.8139 0.16964 0.0
H309 H 1.01577 0.80875 0.19817 0.0
H310 H 0.05805 0.88285 0.22541 0.0
H311 H 0.94619 0.73619 0.20767 0.0
H312 H 0.9711 0.81629 0.11445 0.0
H313 H 0.96933 0.86674 0.07574 0.0
H314 H 0.81729 0.79706 0.06569 0.0
H315 H 0.81811 0.74613 0.10428 0.0
C316 C 0.84084 0.55651 0.10953 0.0
C317 C 0.79074 0.53166 0.10391 0.0
C318 C 0.86663 0.60136 0.12019 0.0
C319 C 0.84301 0.62256 0.12529 0.0
C320 C 0.79304 0.59842 0.11797 0.0
C321 C 0.76717 0.55338 0.10766 0.0
C322 C 0.87033 0.66913 0.13993 0.0
C323 C 0.86841 0.701 0.12213 0.0
C324 C 0.89929 0.68234 0.17102 0.0
C325 C 0.90225 0.65023 0.19138 0.0
C326 C 0.86092 0.61383 0.19941 0.0
C327 C 0.86393 0.58327 0.21809 0.0
C328 C 0.90814 0.58898 0.22915 0.0
C329 C 0.94944 0.62532 0.22161 0.0
C330 C 0.94661 0.65592 0.20286 0.0
C331 C 0.95221 0.87179 0.19627 0.0
C332 C 0.99972 0.89247 0.21256 0.0
C333 C 0.92767 0.82884 0.18117 0.0
C334 C 0.95001 0.80535 0.18124 0.0
C335 C 0.99742 0.82586 0.19747 0.0
C336 C 1.02187 0.86868 0.21291 0.0
C337 C 0.92347 0.75894 0.16573 0.0
C338 C 0.92528 0.72679 0.18345 0.0
C339 C 0.89511 0.74567 0.13427 0.0
C340 C 0.89473 0.77765 0.11247 0.0
C341 C 0.93735 0.81202 0.10425 0.0
C342 C 0.93648 0.84051 0.08218 0.0
C343 C 0.89321 0.83501 0.06824 0.0
C344 C 0.85075 0.80119 0.07646 0.0
C345 C 0.85139 0.77245 0.09836 0.0
H346 H 0.89254 0.85693 0.05105 0.0
H347 H 0.9105 0.56537 0.24364 0.0
H348 H 1.0108 0.1383 0.79976 0.0
H349 H 0.05593 0.21624 0.81924 0.0
H350 H 0.16923 0.2382 0.76998 0.0
H351 H 0.12513 0.1599 0.75194 0.0
H352 H 0.20806 0.27923 0.82505 0.0
H353 H 0.08883 0.27509 0.74554 0.0
H354 H 1.0079 0.24942 0.71703 0.0
H355 H 0.97489 0.28217 0.80371 0.0
H356 H 0.05547 0.30753 0.83288 0.0
H357 H 0.32799 0.51493 0.84181 0.0
H358 H 0.28245 0.43786 0.82016 0.0
H359 H 0.18854 0.40634 0.88897 0.0
H360 H 0.23503 0.48278 0.91197 0.0
H361 H 0.14063 0.37194 0.82328 0.0
H362 H 0.26391 0.37669 0.90142 0.0
H363 H 0.347 0.40519 0.9266 0.0
H364 H 0.3744 0.37432 0.83666 0.0
H365 H 0.2916 0.34619 0.8108 0.0
C366 C 0.0449 0.15993 0.79254 0.0
C367 C 0.06419 0.1429 0.7741 0.0
C368 C 0.07082 0.2047 0.80369 0.0
C369 C 0.11617 0.2338 0.79596 0.0
C370 C 0.13461 0.21683 0.77655 0.0
C371 C 0.10914 0.17198 0.76598 0.0
C372 C 0.14547 0.28121 0.8094 0.0
C373 C 0.19326 0.29949 0.82406 0.0
C374 C 0.12657 0.3081 0.8089 0.0
C375 C 0.07805 0.2928 0.79148 0.0
C376 C 0.0642 0.2765 0.7586 0.0
C377 C 1.0184 0.26206 0.74231 0.0
C378 C 0.98623 0.26405 0.75857 0.0
C379 C 0.99983 0.28059 0.79116 0.0
C380 C 0.04557 0.29504 0.80757 0.0
C381 C 0.29837 0.49168 0.85298 0.0
C382 C 0.28547 0.50578 0.87876 0.0
C383 C 0.27202 0.44749 0.84027 0.0
C384 C 0.23182 0.41623 0.85277 0.0
C385 C 0.2191 0.42988 0.87867 0.0
C386 C 0.24578 0.47389 0.89171 0.0
C387 C 0.20271 0.36942 0.83863 0.0
C388 C 0.15512 0.35142 0.82397 0.0
C389 C 0.22199 0.34305 0.83854 0.0
C390 C 0.2717 0.35976 0.8541 0.0
C391 C 0.28777 0.37633 0.88694 0.0
C392 C 0.33479 0.39235 0.90135 0.0
C393 C 0.366 0.39168 0.88322 0.0
C394 C 0.35021 0.37488 0.85066 0.0
C395 C 0.30323 0.35886 0.83612 0.0
H396 H 0.40239 0.40409 0.89442 0.0
H397 H 0.9508 0.25287 0.74592 0.0
H398 H 0.47716 0.73404 0.80462 0.0
H399 H 0.55706 0.77242 0.79179 0.0
H400 H 0.61621 0.79335 0.8935 0.0
H401 H 0.53569 0.75675 0.90654 0.0
H402 H 0.67166 0.86223 0.86841 0.0
H403 H 0.60488 0.71087 0.83534 0.0
H404 H 0.54552 0.63761 0.8068 0.0
H405 H 0.56384 0.69192 0.71534 0.0
H406 H 0.62288 0.76562 0.74336 0.0
H407 H 0.89617 0.90037 0.84407 0.0
H408 H 0.81551 0.86464 0.85568 0.0
H409 H 0.76677 0.88553 0.76078 0.0
H410 H 0.84831 0.92297 0.74927 0.0
H411 H 0.70715 0.79642 0.7817 0.0
H412 H 0.78271 0.9482 0.81802 0.0
H413 H 0.8447 1.01871 0.849 0.0
H414 H 0.81051 0.96111 0.93803 0.0
H415 H 0.75047 0.88947 0.90774 0.0
C416 C 0.50711 0.74661 0.82435 0.0
C417 C 0.49975 0.74169 0.85665 0.0
C418 C 0.55309 0.76848 0.81692 0.0
C419 C 0.59335 0.78499 0.84147 0.0
C420 C 0.58613 0.78083 0.8739 0.0
C421 C 0.53995 0.75972 0.88141 0.0
C422 C 0.64261 0.80664 0.83321 0.0
C423 C 0.6794 0.84735 0.84979 0.0
C424 C 0.65326 0.78812 0.8084 0.0
C425 C 0.61798 0.74381 0.79147 0.0
C426 C 0.59603 0.70722 0.80915 0.0
C427 C 0.56247 0.66562 0.79307 0.0
C428 C 0.55083 0.66013 0.75929 0.0
C429 C 0.57284 0.69623 0.74151 0.0
C430 C 0.60639 0.73791 0.75747 0.0
C431 C 0.86842 0.89727 0.82547 0.0
C432 C 0.87903 0.91465 0.79563 0.0
C433 C 0.82217 0.87685 0.83226 0.0
C434 C 0.78488 0.87244 0.80922 0.0
C435 C 0.79488 0.88852 0.77899 0.0
C436 C 0.84155 0.90995 0.77243 0.0
C437 C 0.73581 0.85159 0.81703 0.0
C438 C 0.69922 0.81111 0.80036 0.0
C439 C 0.72568 0.86996 0.84215 0.0
C440 C 0.7625 0.91305 0.86049 0.0
C441 C 0.78913 0.95018 0.84421 0.0
C442 C 0.82407 0.99041 0.86169 0.0
C443 C 0.83204 0.99426 0.89551 0.0
C444 C 0.80498 0.9579 0.91189 0.0
C445 C 0.7706 0.91741 0.89456 0.0
H446 H 0.8589 1.02548 0.90902 0.0
H447 H 0.52483 0.6279 0.74688 0.0
H448 H 0.04743 0.85848 0.8012 0.0
H449 H 0.08994 0.82595 0.82565 0.0
H450 H 0.22268 0.94027 0.81117 0.0
H451 H 0.1803 0.96922 0.78194 0.0
H452 H 0.23737 0.88505 0.80646 0.0
H453 H 0.17158 0.91106 0.8896 0.0
H454 H 0.11025 0.90787 0.91709 0.0
H455 H 1.03932 0.76783 0.91435 0.0
H456 H 0.09985 0.7701 0.88635 0.0
H457 H 0.38143 0.83592 0.91422 0.0
H458 H 0.33787 0.87118 0.89722 0.0
H459 H 0.20557 0.74507 0.88337 0.0
H460 H 0.24868 0.71012 0.90195 0.0
H461 H 0.19311 0.80809 0.90499 0.0
H462 H 0.27898 0.79797 0.8218 0.0
H463 H 0.35626 0.81876 0.80788 0.0
H464 H 0.40699 0.95488 0.82414 0.0
H465 H 0.33079 0.93531 0.83952 0.0
C466 C 0.08549 0.87643 0.80223 0.0
C467 C 0.10974 0.91764 0.78984 0.0
C468 C 0.11022 0.85804 0.81722 0.0
C469 C 0.16029 0.88107 0.82184 0.0
C470 C 0.18428 0.92139 0.80858 0.0
C471 C 0.15952 0.93873 0.79225 0.0
C472 C 0.18794 0.86347 0.83991 0.0
C473 C 0.22766 0.86894 0.82828 0.0
C474 C 0.17649 0.84232 0.86871 0.0
C475 C 0.13998 0.84071 0.88555 0.0
C476 C 0.14273 0.87955 0.89466 0.0
C477 C 0.10814 0.87792 0.91037 0.0
C478 C 0.07086 0.83767 0.91741 0.0
C479 C 0.06817 0.79898 0.90883 0.0
C480 C 0.10262 0.80041 0.89304 0.0
C481 C 0.34296 0.81587 0.90836 0.0
C482 C 0.31865 0.77014 0.90935 0.0
C483 C 0.31802 0.83602 0.89833 0.0
C484 C 0.26832 0.81073 0.88792 0.0
C485 C 0.24382 0.76544 0.89093 0.0
C486 C 0.26862 0.74543 0.90164 0.0
C487 C 0.2421 0.83033 0.87155 0.0
C488 C 0.2025 0.82471 0.8833 0.0
C489 C 0.25543 0.85393 0.84409 0.0
C490 C 0.29931 0.86515 0.83203 0.0
C491 C 0.30651 0.83234 0.82228 0.0
C492 C 0.35017 0.84388 0.81424 0.0
C493 C 0.38642 0.88791 0.81508 0.0
C494 C 0.37897 0.92072 0.82366 0.0
C495 C 0.33559 0.90947 0.83209 0.0
H496 H 0.42023 0.89656 0.80898 0.0
H497 H 0.04411 0.83648 0.92956 0.0
H498 H 0.90318 0.46823 0.56914 0.0
H499 H 0.98342 0.51334 0.55578 0.0
H500 H 0.96852 0.39778 0.51204 0.0
H501 H 0.88831 0.3528 0.52465 0.0
H502 H 0.05852 0.45621 0.55536 0.0
H503 H 0.95075 0.46297 0.46745 0.0
H504 H 0.89339 0.48273 0.44566 0.0
H505 H 0.9966 0.61797 0.47865 0.0
H506 H 0.05409 0.59903 0.50214 0.0
H507 H 0.26057 0.54678 0.48114 0.0
H508 H 0.17997 0.50443 0.49333 0.0
H509 H 0.17509 0.62121 0.49324 0.0
H510 H 0.25367 0.66197 0.47747 0.0
H511 H 0.09431 0.56437 0.47458 0.0
H512 H 0.19558 0.56817 0.56787 0.0
H513 H 0.2569 0.55963 0.60031 0.0
H514 H 0.17432 0.42169 0.56961 0.0
H515 H 0.11257 0.4294 0.53691 0.0
C516 C 0.91718 0.45234 0.55699 0.0
C517 C 0.88915 0.40672 0.54813 0.0
C518 C 0.963 0.47826 0.54916 0.0
C519 C 0.98212 0.45911 0.53267 0.0
C520 C 0.95472 0.41346 0.5247 0.0
C521 C 0.90874 0.38771 0.53199 0.0
C522 C 1.03041 0.48619 0.52345 0.0
C523 C 0.0663 0.47964 0.53748 0.0
C524 C 1.04151 0.51842 0.5013 0.0
C525 C 1.00663 0.52944 0.48696 0.0
C526 C 0.9611 0.49685 0.47051 0.0
C527 C 0.92854 0.5079 0.45779 0.0
C528 C 0.94131 0.55148 0.46062 0.0
C529 C 0.98669 0.58418 0.47644 0.0
C530 C 1.01922 0.57329 0.48961 0.0
C531 C 0.24174 0.56304 0.48316 0.0
C532 C 0.26322 0.60756 0.4782 0.0
C533 C 0.19581 0.53902 0.49081 0.0
C534 C 0.17111 0.55947 0.49564 0.0
C535 C 0.19255 0.604 0.48986 0.0
C536 C 0.23768 0.62751 0.48081 0.0
C537 C 0.12327 0.53467 0.5065 0.0
C538 C 0.08718 0.54137 0.4927 0.0
C539 C 0.11267 0.50428 0.53025 0.0
C540 C 0.14978 0.49948 0.54967 0.0
C541 C 0.19072 0.5361 0.56786 0.0
C542 C 0.22549 0.5314 0.58631 0.0
C543 C 0.21964 0.49022 0.58686 0.0
C544 C 0.17886 0.45359 0.56909 0.0
C545 C 0.14391 0.45808 0.55065 0.0
H546 H 0.24663 0.48668 0.60116 0.0
H547 H 0.91604 0.55988 0.45056 0.0
H548 H 0.7531 0.49797 0.56112 0.0
H549 H 0.70831 0.53136 0.54162 0.0
H550 H 0.57671 0.40894 0.54483 0.0
H551 H 0.62123 0.3755 0.56456 0.0
H552 H 0.57562 0.44475 0.48655 0.0
H553 H 0.61555 0.49302 0.60039 0.0
H554 H 0.66979 0.52867 0.65255 0.0
H555 H 0.74442 0.65062 0.61068 0.0
H556 H 0.69101 0.61553 0.55813 0.0
H557 H 0.42123 0.52196 0.45225 0.0
H558 H 0.46402 0.48887 0.47549 0.0
H559 H 0.59479 0.6162 0.49304 0.0
H560 H 0.55173 0.65005 0.47277 0.0
H561 H 0.59607 0.57678 0.54149 0.0
H562 H 0.56162 0.5316 0.42803 0.0
H563 H 0.51159 0.49809 0.37425 0.0
H564 H 0.43249 0.37386 0.41238 0.0
H565 H 0.4817 0.40676 0.4665 0.0
C566 C 0.71465 0.47831 0.55811 0.0
C567 C 0.69085 0.43407 0.56459 0.0
C568 C 0.68903 0.49746 0.54693 0.0
C569 C 0.63899 0.47275 0.54175 0.0
C570 C 0.61522 0.42873 0.54856 0.0
C571 C 0.64081 0.40972 0.56007 0.0
C572 C 0.61139 0.49232 0.5283 0.0
C573 C 0.57961 0.4733 0.49877 0.0
C574 C 0.61753 0.53037 0.54364 0.0
C575 C 0.64956 0.55153 0.57525 0.0
C576 C 0.64377 0.52735 0.60223 0.0
C577 C 0.67432 0.54747 0.63188 0.0
C578 C 0.7106 0.59185 0.6349 0.0
C579 C 0.71634 0.61623 0.6083 0.0
C580 C 0.68591 0.59625 0.57859 0.0
C581 C 0.45897 0.54326 0.46134 0.0
C582 C 0.48255 0.58907 0.4602 0.0
C583 C 0.48375 0.52399 0.47424 0.0
C584 C 0.53318 0.54968 0.48562 0.0
C585 C 0.55682 0.59529 0.48441 0.0
C586 C 0.53197 0.61467 0.47216 0.0
C587 C 0.5602 0.52945 0.4994 0.0
C588 C 0.59194 0.54829 0.52909 0.0
C589 C 0.55464 0.49164 0.48389 0.0
C590 C 0.52503 0.47176 0.45138 0.0
C591 C 0.53334 0.49721 0.42499 0.0
C592 C 0.50517 0.47831 0.39444 0.0
C593 C 0.4688 0.4339 0.38992 0.0
C594 C 0.46062 0.40826 0.41593 0.0
C595 C 0.48867 0.42701 0.44653 0.0
H596 H 0.44703 0.41934 0.36625 0.0
H597 H 0.73421 0.60738 0.65788 0.0
H598 H 0.52014 0.83269 0.43175 0.0
H599 H 0.56748 0.90953 0.45454 0.0
H600 H 0.44117 0.89848 0.47695 0.0
H601 H 0.39361 0.822 0.45367 0.0
H602 H 0.49531 0.9765 0.45777 0.0
H603 H 0.52103 0.89339 0.5366 0.0
H604 H 0.54159 0.84136 0.55807 0.0
H605 H 0.681 0.92074 0.53402 0.0
H606 H 0.66139 0.97351 0.51252 0.0
H607 H 0.60718 0.15027 0.58645 0.0
H608 H 0.56456 0.07606 0.55948 0.0
H609 H 0.68362 0.11019 0.51295 0.0
H610 H 0.72574 0.18558 0.53808 0.0
H611 H 0.63526 1.02216 0.54362 0.0
H612 H 0.60538 0.10818 0.46736 0.0
H613 H 0.58125 0.15976 0.4514 0.0
H614 H 0.44344 0.07174 0.47563 0.0
H615 H 0.46708 1.01995 0.49229 0.0
C616 C 0.50224 0.84685 0.44088 0.0
C617 C 0.45293 0.82103 0.44067 0.0
C618 C 0.52949 0.89078 0.45429 0.0
C619 C 0.50825 0.90992 0.46814 0.0
C620 C 0.45865 0.88475 0.46655 0.0
C621 C 0.43137 0.84089 0.45306 0.0
C622 C 0.53776 0.95549 0.4852 0.0
C623 C 0.52565 0.9862 0.47667 0.0
C624 C 0.57768 0.96878 0.50992 0.0
C625 C 0.58959 0.93712 0.52263 0.0
C626 C 0.55596 0.89959 0.53567 0.0
C627 C 0.56744 0.86999 0.54789 0.0
C628 C 0.6124 0.87752 0.54718 0.0
C629 C 0.64613 0.91488 0.53446 0.0
C630 C 0.63493 0.94474 0.52236 0.0
C631 C 0.62454 0.14254 0.57031 0.0
C632 C 0.67008 0.1749 0.5643 0.0
C633 C 0.60004 0.09969 0.55509 0.0
C634 C 0.62066 0.08756 0.53397 0.0
C635 C 0.66697 0.11877 0.52918 0.0
C636 C 0.69121 0.16197 0.54389 0.0
C637 C 0.5929 0.04288 0.51593 0.0
C638 C 0.60518 1.01238 0.52446 0.0
C639 C 0.55261 0.02954 0.49168 0.0
C640 C 0.53818 0.06042 0.4814 0.0
C641 C 0.57009 0.10002 0.46959 0.0
C642 C 0.55648 0.12926 0.46036 0.0
C643 C 0.51088 0.11909 0.46258 0.0
C644 C 0.47877 0.0796 0.47397 0.0
C645 C 0.49225 0.05028 0.48329 0.0
H646 H 0.5004 0.14176 0.45542 0.0
H647 H 0.62117 0.8545 0.55661 0.0
H648 H 0.0804 0.07463 0.65274 0.0
H649 H 0.10433 0.08821 0.59932 0.0
H650 H 0.96601 0.97875 0.55519 0.0
H651 H 0.94247 0.96456 0.60829 0.0
H652 H 1.03366 0.97956 0.52845 0.0
H653 H 0.99425 0.08481 0.55338 0.0
H654 H 1.00029 0.1448 0.58624 0.0
H655 H 0.14796 0.22824 0.57926 0.0
H656 H 0.14294 0.16851 0.5467 0.0
H657 H 1.03865 0.02888 0.36402 0.0
H658 H 1.01768 1.01373 0.41795 0.0
H659 H 0.15316 0.12841 0.46011 0.0
H660 H 0.17341 0.14482 0.40654 0.0
H661 H 0.08814 0.12494 0.48838 0.0
H662 H 0.12807 1.0207 0.46298 0.0
H663 H 0.12283 0.96086 0.43049 0.0
H664 H 0.97585 0.8758 0.43873 0.0
H665 H 0.98005 0.93534 0.47092 0.0
C666 C 0.05536 0.05313 0.63171 0.0
C667 C 1.00932 1.01877 0.63486 0.0
C668 C 0.0689 0.06114 0.6011 0.0
C669 C 1.03674 0.03491 0.573 0.0
C670 C 0.99146 0.99964 0.57633 0.0
C671 C 0.97789 0.99177 0.60679 0.0
C672 C 0.04945 0.04454 0.54 0.0
C673 C 0.04514 1.01124 0.51959 0.0
C674 C 0.06531 0.08607 0.52846 0.0
C675 C 0.06834 0.12205 0.54791 0.0
C676 C 1.02809 0.11585 0.55907 0.0
C677 C 1.03132 0.14981 0.5776 0.0
C678 C 0.07452 0.19026 0.58491 0.0
C679 C 0.11455 0.19687 0.57362 0.0
C680 C 0.11153 0.16298 0.55512 0.0
C681 C 0.06388 0.05113 0.38467 0.0
C682 C 0.10802 0.08793 0.38057 0.0
C683 C 0.05201 0.04214 0.41567 0.0
C684 C 0.08411 0.06949 0.44342 0.0
C685 C 0.12776 0.10657 0.4393 0.0
C686 C 0.13952 0.11568 0.40842 0.0
C687 C 0.07246 0.05997 0.47673 0.0
C688 C 0.07687 0.09328 0.49721 0.0
C689 C 0.05686 1.01848 0.48837 0.0
C690 C 0.05426 0.98262 0.46908 0.0
C691 C 0.09454 0.98933 0.45765 0.0
C692 C 0.09177 0.95546 0.43933 0.0
C693 C 0.049 0.91459 0.43247 0.0
C694 C 1.00894 0.90749 0.44401 0.0
C695 C 1.0115 0.94128 0.46232 0.0
H696 H 0.04693 0.88841 0.41828 0.0
H697 H 0.07694 0.21653 0.59926 0.0
H698 H 0.64122 0.37604 0.94904 0.0
H699 H 0.65671 0.37524 0.89443 0.0
H700 H 0.79248 0.39375 0.93237 0.0
H701 H 0.77678 0.3936 0.98771 0.0
H702 H 0.79744 0.44716 0.88344 0.0
H703 H 0.70207 0.29447 0.89851 0.0
H704 H 0.6329 0.22771 0.91304 0.0
H705 H 0.53958 0.23985 0.83875 0.0
H706 H 0.60816 0.30708 0.82407 0.0
H707 H 0.84255 0.4072 0.73243 0.0
H708 H 0.82812 0.40191 0.78804 0.0
H709 H 0.68438 0.36709 0.75379 0.0
H710 H 0.69863 0.37138 0.69768 0.0
H711 H 0.68457 0.32082 0.80173 0.0
H712 H 0.77691 0.47377 0.78765 0.0
H713 H 0.84436 0.542 0.77312 0.0
H714 H 0.94121 0.53148 0.84531 0.0
H715 H 0.87438 0.46282 0.85997 0.0
C716 C 0.67419 0.37933 0.94611 0.0
C717 C 0.70737 0.38418 0.97321 0.0
C718 C 0.68306 0.37903 0.91461 0.0
C719 C 0.72541 0.3837 0.90909 0.0
C720 C 0.75938 0.38985 0.93596 0.0
C721 C 0.7504 0.3899 0.96766 0.0
C722 C 0.7339 0.38246 0.87522 0.0
C723 C 0.77323 0.41922 0.86572 0.0
C724 C 0.70153 0.3466 0.85172 0.0
C725 C 0.66024 0.30604 0.86038 0.0
C726 C 0.66677 0.28311 0.88544 0.0
C727 C 0.62767 0.24514 0.89367 0.0
C728 C 0.58186 0.2296 0.87688 0.0
C729 C 0.57508 0.25195 0.85176 0.0
C730 C 0.61406 0.28996 0.84345 0.0
C731 C 0.80782 0.39833 0.73671 0.0
C732 C 0.7719 0.39022 0.71063 0.0
C733 C 0.79961 0.39546 0.76861 0.0
C734 C 0.75552 0.38525 0.77545 0.0
C735 C 0.71886 0.37535 0.74932 0.0
C736 C 0.72693 0.37769 0.71722 0.0
C737 C 0.74818 0.38562 0.80981 0.0
C738 C 0.70898 0.34873 0.81942 0.0
C739 C 0.78044 0.42157 0.83337 0.0
C740 C 0.82069 0.46293 0.82468 0.0
C741 C 0.81263 0.48584 0.80026 0.0
C742 C 0.85074 0.52461 0.79203 0.0
C743 C 0.89705 0.541 0.80822 0.0
C744 C 0.90533 0.51871 0.83275 0.0
C745 C 0.86735 0.47988 0.84105 0.0
H746 H 0.92651 0.57103 0.80181 0.0
H747 H 0.55164 0.2002 0.88329 0.0
H748 H 0.30118 0.68772 0.28465 0.0
H749 H 0.31339 0.6921 0.22873 0.0
H750 H 0.43914 0.68832 0.25676 0.0
H751 H 0.42686 0.68361 0.3133 0.0
H752 H 0.45292 0.74873 0.21367 0.0
H753 H 0.33498 0.59717 0.2192 0.0
H754 H 0.26009 0.53509 0.232 0.0
H755 H 0.18022 0.57385 0.16779 0.0
H756 H 0.25469 0.63654 0.15494 0.0
H757 H 0.4751 0.71067 0.05365 0.0
H758 H 0.46469 0.7031 0.11013 0.0
H759 H 0.33219 0.69632 0.08558 0.0
H760 H 0.34218 0.70308 0.02868 0.0
H761 H 0.32294 0.63989 0.12747 0.0
H762 H 0.43915 0.79215 0.12301 0.0
H763 H 0.51325 0.85562 0.11047 0.0
H764 H 0.59544 0.8174 0.17273 0.0
H765 H 0.52176 0.75334 0.18531 0.0
C766 C 0.33124 0.68736 0.27907 0.0
C767 C 0.3626 0.68455 0.30361 0.0
C768 C 0.33824 0.68998 0.24693 0.0
C769 C 0.37662 0.68963 0.23825 0.0
C770 C 0.40904 0.68835 0.26277 0.0
C771 C 0.40208 0.68578 0.29513 0.0
C772 C 0.38246 0.69051 0.20356 0.0
C773 C 0.4248 0.7245 0.19489 0.0
C774 C 0.34532 0.65964 0.17881 0.0
C775 C 0.30045 0.62176 0.18632 0.0
C776 C 0.30146 0.59263 0.20798 0.0
C777 C 0.25908 0.5573 0.21522 0.0
C778 C 0.21543 0.55058 0.20077 0.0
C779 C 0.21406 0.57912 0.17899 0.0
C780 C 0.25634 0.61452 0.17169 0.0
C781 C 0.44374 0.70761 0.06025 0.0
C782 C 0.4097 0.70793 0.03664 0.0
C783 C 0.43787 0.7034 0.09265 0.0
C784 C 0.3982 0.70017 0.10249 0.0
C785 C 0.36329 0.699 0.07877 0.0
C786 C 0.36892 0.70275 0.04618 0.0
C787 C 0.39337 0.69826 0.13746 0.0
C788 C 0.35118 0.66406 0.14621 0.0
C789 C 0.43055 0.72912 0.16227 0.0
C790 C 0.47491 0.76771 0.15484 0.0
C791 C 0.47301 0.7971 0.13384 0.0
C792 C 0.51494 0.83321 0.12676 0.0
C793 C 0.55902 0.84047 0.14073 0.0
C794 C 0.56127 0.8117 0.16189 0.0
C795 C 0.51944 0.77551 0.16902 0.0
H796 H 0.59144 0.86844 0.13521 0.0
H797 H 0.18266 0.52322 0.20641 0.0
H798 H 0.97579 0.07316 0.10363 0.0
H799 H 0.93249 1.02511 0.05361 0.0
H800 H 0.9479 0.92421 0.09612 0.0
H801 H 0.9918 0.97245 0.14604 0.0
H802 H 0.99036 0.94945 0.04592 0.0
H803 H 0.83413 0.89314 0.05808 0.0
H804 H 0.76567 0.89032 0.07486 0.0
H805 H 0.78007 0.98786 0.0114 0.0
H806 H 0.84919 0.99195 0.99471 0.0
H807 H 0.99056 0.94428 0.8806 0.0
H808 H 0.95004 0.90846 0.92567 0.0
H809 H 0.93659 1.0179 0.94603 0.0
H810 H 0.97492 0.05229 0.89974 0.0
H811 H 0.86428 0.94267 0.964 0.0
H812 H 1.04099 1.01849 0.97685 0.0
H813 H 0.11249 1.02498 0.96217 0.0
H814 H 0.05967 0.89158 0.98143 0.0
H815 H 0.98763 0.88429 0.99596 0.0
C816 C 0.96879 0.0403 0.10252 0.0
C817 C 0.98802 0.0269 0.12833 0.0
C818 C 0.94324 1.01244 0.07415 0.0
C819 C 0.93666 0.97079 0.07111 0.0
C820 C 0.95207 0.95589 0.09799 0.0
C821 C 0.97738 0.98367 0.12649 0.0
C822 C 0.92566 0.94926 0.0382 0.0
C823 C 0.96158 0.94609 0.02807 0.0
C824 C 0.88802 0.94439 0.01493 0.0
C825 C 0.84661 0.94251 0.02489 0.0
C826 C 0.8228 0.91411 0.04777 0.0
C827 C 0.78389 0.91231 0.05729 0.0
C828 C 0.76843 0.93879 0.04413 0.0
C829 C 0.79193 0.9672 0.02146 0.0
C830 C 0.83089 0.96915 0.01186 0.0
C831 C 0.97794 0.95997 0.8945 0.0
C832 C 0.98678 1.00137 0.88784 0.0
C833 C 0.95457 0.93947 0.91992 0.0
C834 C 0.94143 0.96104 0.93968 0.0
C835 C 0.94665 1.00076 0.93117 0.0
C836 C 0.96902 1.02071 0.90517 0.0
C837 C 0.93136 0.9476 0.97224 0.0
C838 C 0.89141 0.94371 0.98201 0.0
C839 C 0.96543 0.94614 0.99539 0.0
C840 C 1.00885 0.95069 0.98707 0.0
C841 C 0.04465 0.99055 0.97784 0.0
C842 C 0.0852 0.99436 0.96954 0.0
C843 C 0.09055 0.95867 0.97078 0.0
C844 C 0.0554 0.91914 0.9804 0.0
C845 C 1.01471 0.91514 0.98866 0.0
H846 H 0.122 0.96171 0.9644 0.0
H847 H 0.7383 0.93736 0.05154 0.0
H848 H 0.82987 0.49891 0.25761 0.0
H849 H 0.86411 0.48654 0.30804 0.0
H850 H 0.87384 0.38841 0.25747 0.0
H851 H 0.83844 0.40004 0.20679 0.0
H852 H 0.81524 0.35297 0.29721 0.0
H853 H 0.97218 0.46985 0.31165 0.0
H854 H 1.04255 0.54398 0.31109 0.0
H855 H 0.99755 0.59504 0.38037 0.0
H856 H 0.92637 0.52162 0.38085 0.0
H857 H 0.76807 0.306 0.4576 0.0
H858 H 0.81586 0.32143 0.41477 0.0
H859 H 0.81852 0.44095 0.40219 0.0
H860 H 0.77302 0.42644 0.44616 0.0
H861 H 0.90536 0.45174 0.39838 0.0
H862 H 0.73335 0.34331 0.35534 0.0
H863 H 0.65964 0.27069 0.35427 0.0
H864 H 0.73348 0.20782 0.33764 0.0
H865 H 0.80771 0.28018 0.33892 0.0
C866 C 0.84062 0.47569 0.25697 0.0
C867 C 0.83014 0.44971 0.22829 0.0
C868 C 0.86114 0.46914 0.28585 0.0
C869 C 0.87145 0.43633 0.28664 0.0
C870 C 0.86628 0.41397 0.25741 0.0
C871 C 0.8458 0.42062 0.2284 0.0
C872 C 0.87349 0.4177 0.31769 0.0
C873 C 0.83638 0.37425 0.31934 0.0
C874 C 0.90115 0.44508 0.34668 0.0
C875 C 0.94376 0.48985 0.34634 0.0
C876 C 0.97701 0.49688 0.32661 0.0
C877 C 1.01712 0.53886 0.32631 0.0
C878 C 1.02455 0.57419 0.3457 0.0
C879 C 0.99183 0.56763 0.3654 0.0
C880 C 0.95159 0.52576 0.36575 0.0
C881 C 0.77907 0.33548 0.4455 0.0
C882 C 0.76641 0.36477 0.45427 0.0
C883 C 0.80661 0.34446 0.42143 0.0
C884 C 0.82083 0.38238 0.40546 0.0
C885 C 0.80848 0.41181 0.41459 0.0
C886 C 0.78208 0.40339 0.43922 0.0
C887 C 0.84396 0.38981 0.37687 0.0
C888 C 0.88605 0.4304 0.37611 0.0
C889 C 0.82058 0.36028 0.34853 0.0
C890 C 0.77604 0.31697 0.34763 0.0
C891 C 0.73383 0.31395 0.35163 0.0
C892 C 0.69201 0.27289 0.35097 0.0
C893 C 0.69192 0.23467 0.34601 0.0
C894 C 0.73363 0.23745 0.34158 0.0
C895 C 0.77558 0.27845 0.34227 0.0
H896 H 0.65951 0.2029 0.3455 0.0
H897 H 0.05565 0.60665 0.34544 0.0
H898 H 0.47635 0.76423 0.59219 0.0
H899 H 0.45597 0.78903 0.63767 0.0
H900 H 0.37162 0.82194 0.57145 0.0
H901 H 0.39326 0.79868 0.52571 0.0
H902 H 0.43278 0.87258 0.65127 0.0
H903 H 0.28848 0.74313 0.58092 0.0
H904 H 0.25876 0.6803 0.54059 0.0
H905 H 0.33346 0.63447 0.60256 0.0
H906 H 0.36305 0.69691 0.64343 0.0
H907 H 0.26079 0.71245 0.7673 0.0
H908 H 0.2698 0.74697 0.7165 0.0
H909 H 0.4222 0.81073 0.74164 0.0
H910 H 0.41334 0.77573 0.79169 0.0
H911 H 0.30445 0.72496 0.6729 0.0
H912 H 0.47951 0.90032 0.70833 0.0
H913 H 0.50859 0.96629 0.74519 0.0
H914 H 0.36477 0.92519 0.75026 0.0
H915 H 0.33483 0.85875 0.71383 0.0
C916 C 0.45519 0.77848 0.58731 0.0
C917 C 0.43499 0.77807 0.55551 0.0
C918 C 0.4439 0.79299 0.61327 0.0
C919 C 0.41222 0.80704 0.60768 0.0
C920 C 0.39633 0.81138 0.57607 0.0
C921 C 0.40791 0.79718 0.55006 0.0
C922 C 0.38616 0.80442 0.63353 0.0
C923 C 0.40412 0.84071 0.65601 0.0
C924 C 0.3475 0.76315 0.63864 0.0
C925 C 0.32763 0.72433 0.61514 0.0
C926 C 0.29814 0.71937 0.58598 0.0
C927 C 0.28141 0.68389 0.56302 0.0
C928 C 0.29416 0.65331 0.56897 0.0
C929 C 0.32341 0.65803 0.59803 0.0
C930 C 0.33996 0.6933 0.62116 0.0
C931 C 0.29616 0.73418 0.76202 0.0
C932 C 0.33633 0.74089 0.78312 0.0
C933 C 0.30129 0.75444 0.73335 0.0
C934 C 0.34666 0.78186 0.72552 0.0
C935 C 0.38691 0.79061 0.74754 0.0
C936 C 0.3818 0.77016 0.776 0.0
C937 C 0.35219 0.79292 0.69199 0.0
C938 C 0.331 0.7577 0.66787 0.0
C939 C 0.38671 0.83552 0.68519 0.0
C940 C 0.40494 0.87451 0.70832 0.0
C941 C 0.45409 0.90533 0.71732 0.0
C942 C 0.47073 0.94275 0.73824 0.0
C943 C 0.43856 0.94994 0.75005 0.0
C944 C 0.38968 0.91956 0.74116 0.0
C945 C 0.37287 0.88182 0.72061 0.0
H946 H 0.45149 0.97901 0.76614 0.0
H947 H 0.28138 0.62596 0.55114 0.0
loop_
_geom_bond_atom_site_label_1
_geom_bond_atom_site_label_2
_geom_bond_distance
_geom_bond_site_symmetry_2
_ccdc_geom_bond_type
Co0 N4 2.148 . S
Co0 N10 2.128 . S
Co0 N20 2.194 1_445 S
Co0 O25 2.351 1_455 S
Co0 O26 2.155 . S
Co0 O27 2.096 . S
C1 N4 1.301 . S
C1 N5 1.328 . S
C1 H6 0.930 1_455 S
C2 C3 1.333 . S
C2 N4 1.317 . S
C2 H7 0.930 . S
C3 C2 1.333 . S
C3 N5 1.350 . S
C3 H29 0.931 . S
N4 Co0 2.148 . S
N4 C1 1.301 . S
N4 C2 1.317 . S
N5 C1 1.328 . S
N5 C3 1.350 . S
H6 C1 0.930 1_655 S
H7 C2 0.930 . S
C8 O9 1.224 . S
C8 O27 1.247 . S
O9 C8 1.224 . S
N10 Co0 2.128 . S
N10 C11 1.355 1_445 S
N10 C13 1.311 . S
C11 N10 1.355 1_665 S
C11 C12 1.363 . S
C11 H23 0.929 . S
C12 C11 1.363 . S
C12 N14 1.375 1_665 S
C12 H30 0.931 . S
C13 N10 1.311 . S
C13 N14 1.347 . S
C13 H24 0.929 . S
N14 C12 1.375 1_445 S
N14 C13 1.347 . S
C15 C18 1.365 . S
C15 N20 1.328 . S
C15 H21 0.929 . S
C16 C17 1.362 . S
C16 C19 1.378 1_655 S
C16 H31 0.929 1_655 S
C17 C16 1.362 . S
C17 C18 1.366 . S
C18 C15 1.365 . S
C18 C17 1.366 . S
C18 H32 0.930 . S
C19 C16 1.378 1_455 S
C19 N20 1.315 1_455 S
C19 H22 0.930 . S
N20 Co0 2.194 1_665 S
N20 C15 1.328 . S
N20 C19 1.315 1_655 S
H21 C15 0.929 . S
H22 C19 0.930 . S
H23 C11 0.929 . S
H24 C13 0.929 . S
O25 Co0 2.351 1_655 S
O25 C28 1.244 . S
O26 Co0 2.155 . S
O26 C28 1.240 1_455 S
O27 Co0 2.096 . S
O27 C8 1.247 . S
C28 O25 1.244 . S
C28 O26 1.240 1_655 S
H29 C3 0.931 . S
H30 C12 0.931 . S
H31 C16 0.929 1_455 S
H32 C18 0.930 . S
Co33 N37 2.148 1_455 S
Co33 N43 2.128 . S
Co33 N53 2.194 1_545 S
Co33 O58 2.351 . S
Co33 O59 2.155 . S
Co33 O60 2.096 1_445 S
C34 N37 1.301 1_455 S
C34 N38 1.328 1_455 S
C34 H39 0.930 . S
C35 C36 1.333 . S
C35 N37 1.317 1_565 S
C35 H40 0.930 . S
C36 C35 1.333 . S
C36 N38 1.350 1_565 S
C36 H62 0.931 . S
N37 Co33 2.148 1_655 S
N37 C34 1.301 1_655 S
N37 C35 1.317 1_545 S
N38 C34 1.328 1_655 S
N38 C36 1.350 1_545 S
H39 C34 0.930 . S
H40 C35 0.930 . S
C41 O42 1.224 . S
C41 O60 1.247 . S
O42 C41 1.224 . S
N43 Co33 2.128 . S
N43 C44 1.355 . S
N43 C46 1.311 1_455 S
C44 N43 1.355 . S
C44 C45 1.363 . S
C44 H56 0.929 . S
C45 C44 1.363 . S
C45 N47 1.375 . S
C45 H63 0.931 . S
C46 N43 1.311 1_655 S
C46 N47 1.347 1_655 S
C46 H57 0.929 . S
N47 C45 1.375 . S
N47 C46 1.347 1_455 S
C48 C51 1.365 1_545 S
C48 N53 1.328 1_545 S
C48 H54 0.929 . S
C49 C50 1.362 . S
C49 C52 1.378 . S
C49 H64 0.929 . S
C50 C49 1.362 . S
C50 C51 1.366 . S
C51 C48 1.365 1_565 S
C51 C50 1.366 . S
C51 H65 0.930 . S
C52 C49 1.378 . S
C52 N53 1.315 . S
C52 H55 0.930 1_455 S
N53 Co33 2.194 1_565 S
N53 C48 1.328 1_565 S
N53 C52 1.315 . S
H54 C48 0.929 . S
H55 C52 0.930 1_655 S
H56 C44 0.929 . S
H57 C46 0.929 . S
O58 Co33 2.351 . S
O58 C61 1.244 . S
O59 Co33 2.155 . S
O59 C61 1.240 . S
O60 Co33 2.096 1_665 S
O60 C41 1.247 . S
C61 O58 1.244 . S
C61 O59 1.240 . S
H62 C36 0.931 . S
H63 C45 0.931 . S
H64 C49 0.929 . S
H65 C51 0.930 . S
Co66 N70 2.148 . S
Co66 N76 2.128 . S
Co66 N86 2.194 . S
Co66 O91 2.351 . S
Co66 O92 2.155 . S
Co66 O93 2.096 . S
C67 N70 1.301 . S
C67 N71 1.328 . S
C67 H72 0.930 . S
C68 C69 1.333 . S
C68 N70 1.317 . S
C68 H73 0.930 . S
C69 C68 1.333 . S
C69 N71 1.350 . S
C69 H95 0.931 . S
N70 Co66 2.148 . S
N70 C67 1.301 . S
N70 C68 1.317 . S
N71 C67 1.328 . S
N71 C69 1.350 . S
H72 C67 0.930 . S
H73 C68 0.930 . S
C74 O75 1.224 . S
C74 O93 1.247 . S
O75 C74 1.224 . S
N76 Co66 2.128 . S
N76 C77 1.355 . S
N76 C79 1.311 . S
C77 N76 1.355 . S
C77 C78 1.363 . S
C77 H89 0.929 . S
C78 C77 1.363 . S
C78 N80 1.375 . S
C78 H96 0.931 . S
C79 N76 1.311 . S
C79 N80 1.347 . S
C79 H90 0.929 . S
N80 C78 1.375 . S
N80 C79 1.347 . S
C81 C84 1.365 . S
C81 N86 1.328 . S
C81 H87 0.929 . S
C82 C83 1.362 . S
C82 C85 1.378 . S
C82 H97 0.929 . S
C83 C82 1.362 . S
C83 C84 1.366 . S
C84 C81 1.365 . S
C84 C83 1.366 . S
C84 H98 0.930 . S
C85 C82 1.378 . S
C85 N86 1.315 . S
C85 H88 0.930 . S
N86 Co66 2.194 . S
N86 C81 1.328 . S
N86 C85 1.315 . S
H87 C81 0.929 . S
H88 C85 0.930 . S
H89 C77 0.929 . S
H90 C79 0.929 . S
O91 Co66 2.351 . S
O91 C94 1.244 . S
O92 Co66 2.155 . S
O92 C94 1.240 . S
O93 Co66 2.096 . S
O93 C74 1.247 . S
C94 O91 1.244 . S
C94 O92 1.240 . S
H95 C69 0.931 . S
H96 C78 0.931 . S
H97 C82 0.929 . S
H98 C84 0.930 . S
Co99 N103 2.148 . S
Co99 N109 2.128 . S
Co99 N119 2.194 . S
Co99 O124 2.351 . S
Co99 O125 2.155 . S
Co99 O126 2.096 . S
C100 N103 1.301 . S
C100 N104 1.328 . S
C100 H105 0.930 . S
C101 C102 1.333 . S
C101 N103 1.317 . S
C101 H106 0.930 . S
C102 C101 1.333 . S
C102 N104 1.350 . S
C102 H128 0.931 . S
N103 Co99 2.148 . S
N103 C100 1.301 . S
N103 C101 1.317 . S
N104 C100 1.328 . S
N104 C102 1.350 . S
H105 C100 0.930 . S
H106 C101 0.930 . S
C107 O108 1.224 . S
C107 O126 1.247 . S
O108 C107 1.224 . S
N109 Co99 2.128 . S
N109 C110 1.355 . S
N109 C112 1.311 . S
C110 N109 1.355 . S
C110 C111 1.363 . S
C110 H122 0.929 . S
C111 C110 1.363 . S
C111 N113 1.375 . S
C111 H129 0.931 . S
C112 N109 1.311 . S
C112 N113 1.347 . S
C112 H123 0.929 . S
N113 C111 1.375 . S
N113 C112 1.347 . S
C114 C117 1.365 . S
C114 N119 1.328 . S
C114 H120 0.929 . S
C115 C116 1.362 . S
C115 C118 1.378 . S
C115 H130 0.929 . S
C116 C115 1.362 . S
C116 C117 1.366 . S
C117 C114 1.365 . S
C117 C116 1.366 . S
C117 H131 0.930 . S
C118 C115 1.378 . S
C118 N119 1.315 . S
C118 H121 0.930 . S
N119 Co99 2.194 . S
N119 C114 1.328 . S
N119 C118 1.315 . S
H120 C114 0.929 . S
H121 C118 0.930 . S
H122 C110 0.929 . S
H123 C112 0.929 . S
O124 Co99 2.351 . S
O124 C127 1.244 . S
O125 Co99 2.155 . S
O125 C127 1.240 . S
O126 Co99 2.096 . S
O126 C107 1.247 . S
C127 O124 1.244 . S
C127 O125 1.240 . S
H128 C102 0.931 . S
H129 C111 0.931 . S
H130 C115 0.929 . S
H131 C117 0.930 . S
Co132 N136 2.148 . S
Co132 N142 2.128 . S
Co132 N152 2.194 . S
Co132 O157 2.351 . S
Co132 O158 2.155 . S
Co132 O159 2.096 . S
C133 N136 1.301 . S
C133 N137 1.328 . S
C133 H138 0.930 . S
C134 C135 1.333 . S
C134 N136 1.317 . S
C134 H139 0.930 . S
C135 C134 1.333 . S
C135 N137 1.350 . S
C135 H161 0.931 . S
N136 Co132 2.148 . S
N136 C133 1.301 . S
N136 C134 1.317 . S
N137 C133 1.328 . S
N137 C135 1.350 . S
H138 C133 0.930 . S
H139 C134 0.930 . S
C140 O141 1.224 . S
C140 O159 1.247 . S
O141 C140 1.224 . S
N142 Co132 2.128 . S
N142 C143 1.355 . S
N142 C145 1.311 . S
C143 N142 1.355 . S
C143 C144 1.363 . S
C143 H155 0.929 . S
C144 C143 1.363 . S
C144 N146 1.375 . S
C144 H162 0.931 . S
C145 N142 1.311 . S
C145 N146 1.347 . S
C145 H156 0.929 . S
N146 C144 1.375 . S
N146 C145 1.347 . S
C147 C150 1.365 . S
C147 N152 1.328 . S
C147 H153 0.929 . S
C148 C149 1.362 . S
C148 C151 1.378 . S
C148 H163 0.929 . S
C149 C148 1.362 . S
C149 C150 1.366 . S
C150 C147 1.365 . S
C150 C149 1.366 . S
C150 H164 0.930 . S
C151 C148 1.378 . S
C151 N152 1.315 . S
C151 H154 0.930 . S
N152 Co132 2.194 . S
N152 C147 1.328 . S
N152 C151 1.315 . S
H153 C147 0.929 . S
H154 C151 0.930 . S
H155 C143 0.929 . S
H156 C145 0.929 . S
O157 Co132 2.351 . S
O157 C160 1.244 . S
O158 Co132 2.155 . S
O158 C160 1.240 . S
O159 Co132 2.096 . S
O159 C140 1.247 . S
C160 O157 1.244 . S
C160 O158 1.240 . S
H161 C135 0.931 . S
H162 C144 0.931 . S
H163 C148 0.929 . S
H164 C150 0.930 . S
Co165 N169 2.148 . S
Co165 N175 2.128 . S
Co165 N185 2.194 . S
Co165 O190 2.351 . S
Co165 O191 2.155 . S
Co165 O192 2.096 . S
C166 N169 1.301 . S
C166 N170 1.328 . S
C166 H171 0.930 . S
C167 C168 1.333 . S
C167 N169 1.317 . S
C167 H172 0.930 . S
C168 C167 1.333 . S
C168 N170 1.350 . S
C168 H194 0.931 . S
N169 Co165 2.148 . S
N169 C166 1.301 . S
N169 C167 1.317 . S
N170 C166 1.328 . S
N170 C168 1.350 . S
H171 C166 0.930 . S
H172 C167 0.930 . S
C173 O174 1.224 . S
C173 O192 1.247 . S
O174 C173 1.224 . S
N175 Co165 2.128 . S
N175 C176 1.355 . S
N175 C178 1.311 . S
C176 N175 1.355 . S
C176 C177 1.363 . S
C176 H188 0.929 . S
C177 C176 1.363 . S
C177 N179 1.375 . S
C177 H195 0.931 . S
C178 N175 1.311 . S
C178 N179 1.347 . S
C178 H189 0.929 . S
N179 C177 1.375 . S
N179 C178 1.347 . S
C180 C183 1.365 . S
C180 N185 1.328 . S
C180 H186 0.929 . S
C181 C182 1.362 . S
C181 C184 1.378 . S
C181 H196 0.929 . S
C182 C181 1.362 . S
C182 C183 1.366 . S
C183 C180 1.365 . S
C183 C182 1.366 . S
C183 H197 0.930 . S
C184 C181 1.378 . S
C184 N185 1.315 . S
C184 H187 0.930 . S
N185 Co165 2.194 . S
N185 C180 1.328 . S
N185 C184 1.315 . S
H186 C180 0.929 . S
H187 C184 0.930 . S
H188 C176 0.929 . S
H189 C178 0.929 . S
O190 Co165 2.351 . S
O190 C193 1.244 . S
O191 Co165 2.155 . S
O191 C193 1.240 . S
O192 Co165 2.096 . S
O192 C173 1.247 . S
C193 O190 1.244 . S
C193 O191 1.240 . S
H194 C168 0.931 . S
H195 C177 0.931 . S
H196 C181 0.929 . S
H197 C183 0.930 . S
H198 C216 0.951 . S
H199 C218 0.951 . S
H200 C220 0.950 . S
H201 C221 0.950 . S
H202 C223 0.950 . S
H203 C226 0.950 . S
H204 C227 0.950 . S
H205 C229 0.950 . S
H206 C230 0.950 . S
H207 C231 0.951 . S
H208 C233 0.951 . S
H209 C235 0.950 . S
H210 C236 0.950 . S
H211 C238 0.950 . S
H212 C241 0.950 . S
H213 C242 0.950 . S
H214 C244 0.950 . S
H215 C245 0.950 . S
C216 H198 0.951 . S
C216 C217 1.366 . S
C216 C218 1.388 . S
C217 C216 1.366 . S
C217 C221 1.385 . S
C218 H199 0.951 . S
C218 C216 1.388 . S
C218 C219 1.366 . S
C219 C218 1.366 . S
C219 C220 1.414 . S
C219 C222 1.499 . S
C220 H200 0.950 . S
C220 C219 1.414 . S
C220 C221 1.374 . S
C221 H201 0.950 . S
C221 C217 1.385 . S
C221 C220 1.374 . S
C222 C219 1.499 . S
C222 C223 1.373 . S
C222 C224 1.389 . S
C223 H202 0.950 . S
C223 C222 1.373 . S
C223 C239 1.377 . S
C224 C222 1.389 . S
C224 C225 1.524 . S
C224 C238 1.377 . S
C225 C224 1.524 . S
C225 C226 1.397 . S
C225 C230 1.363 . S
C226 H203 0.950 . S
C226 C225 1.397 . S
C226 C227 1.334 . S
C227 H204 0.950 . S
C227 C226 1.334 . S
C227 C228 1.287 . S
C228 C227 1.287 . S
C228 C229 1.524 . S
C228 H247 0.913 . S
C229 H205 0.950 . S
C229 C228 1.524 . S
C229 C230 1.415 . S
C230 H206 0.950 . S
C230 C225 1.363 . S
C230 C229 1.415 . S
C231 H207 0.951 . S
C231 C232 1.366 . S
C231 C233 1.388 . S
C232 C231 1.366 . S
C232 C236 1.385 . S
C233 H208 0.951 . S
C233 C231 1.388 . S
C233 C234 1.366 . S
C234 C233 1.366 . S
C234 C235 1.414 . S
C234 C237 1.499 . S
C235 H209 0.950 . S
C235 C234 1.414 . S
C235 C236 1.374 . S
C236 H210 0.950 . S
C236 C232 1.385 . S
C236 C235 1.374 . S
C237 C234 1.499 . S
C237 C238 1.373 . S
C237 C239 1.389 . S
C238 H211 0.950 . S
C238 C224 1.377 . S
C238 C237 1.373 . S
C239 C223 1.377 . S
C239 C237 1.389 . S
C239 C240 1.524 . S
C240 C239 1.524 . S
C240 C241 1.397 . S
C240 C245 1.363 . S
C241 H212 0.950 . S
C241 C240 1.397 . S
C241 C242 1.334 . S
C242 H213 0.950 . S
C242 C241 1.334 . S
C242 C243 1.287 . S
C243 C242 1.287 . S
C243 C244 1.524 . S
C243 H246 0.999 . S
C244 H214 0.950 . S
C244 C243 1.524 . S
C244 C245 1.415 . S
C245 H215 0.950 . S
C245 C240 1.363 . S
C245 C244 1.415 . S
H246 C243 0.999 . S
H247 C228 0.913 . S
H248 C266 0.951 . S
H249 C268 0.951 . S
H250 C270 0.950 . S
H251 C271 0.950 . S
H252 C273 0.950 . S
H253 C276 0.950 . S
H254 C277 0.950 . S
H255 C279 0.950 . S
H256 C280 0.950 . S
H257 C281 0.951 . S
H258 C283 0.951 . S
H259 C285 0.950 . S
H260 C286 0.950 . S
H261 C288 0.950 . S
H262 C291 0.950 . S
H263 C292 0.950 . S
H264 C294 0.950 . S
H265 C295 0.950 . S
C266 H248 0.951 . S
C266 C267 1.366 . S
C266 C268 1.388 . S
C267 C266 1.366 . S
C267 C271 1.385 . S
C268 H249 0.951 . S
C268 C266 1.388 . S
C268 C269 1.366 . S
C269 C268 1.366 . S
C269 C270 1.414 . S
C269 C272 1.499 . S
C270 H250 0.950 . S
C270 C269 1.414 . S
C270 C271 1.374 . S
C271 H251 0.950 . S
C271 C267 1.385 . S
C271 C270 1.374 . S
C272 C269 1.499 . S
C272 C273 1.373 . S
C272 C274 1.389 . S
C273 H252 0.950 . S
C273 C272 1.373 . S
C273 C289 1.377 . S
C274 C272 1.389 . S
C274 C275 1.524 . S
C274 C288 1.377 . S
C275 C274 1.524 . S
C275 C276 1.397 . S
C275 C280 1.363 . S
C276 H253 0.950 . S
C276 C275 1.397 . S
C276 C277 1.334 . S
C277 H254 0.950 . S
C277 C276 1.334 . S
C277 C278 1.287 1_655 S
C278 C277 1.287 1_455 S
C278 C279 1.524 . S
C278 H297 0.913 . S
C279 H255 0.950 . S
C279 C278 1.524 . S
C279 C280 1.415 1_455 S
C280 H256 0.950 . S
C280 C275 1.363 . S
C280 C279 1.415 1_655 S
C281 H257 0.951 . S
C281 C282 1.366 . S
C281 C283 1.388 . S
C282 C281 1.366 . S
C282 C286 1.385 . S
C283 H258 0.951 . S
C283 C281 1.388 . S
C283 C284 1.366 . S
C284 C283 1.366 . S
C284 C285 1.414 . S
C284 C287 1.499 . S
C285 H259 0.950 . S
C285 C284 1.414 . S
C285 C286 1.374 . S
C286 H260 0.950 . S
C286 C282 1.385 . S
C286 C285 1.374 . S
C287 C284 1.499 . S
C287 C288 1.373 . S
C287 C289 1.389 . S
C288 H261 0.950 . S
C288 C274 1.377 . S
C288 C287 1.373 . S
C289 C273 1.377 . S
C289 C287 1.389 . S
C289 C290 1.524 . S
C290 C289 1.524 . S
C290 C291 1.397 . S
C290 C295 1.363 . S
C291 H262 0.950 . S
C291 C290 1.397 . S
C291 C292 1.334 . S
C292 H263 0.950 . S
C292 C291 1.334 . S
C292 C293 1.287 . S
C293 C292 1.287 . S
C293 C294 1.524 . S
C293 H296 0.999 . S
C294 H264 0.950 . S
C294 C293 1.524 . S
C294 C295 1.415 . S
C295 H265 0.950 . S
C295 C290 1.363 . S
C295 C294 1.415 . S
H296 C293 0.999 . S
H297 C278 0.913 . S
H298 C316 0.951 . S
H299 C318 0.951 . S
H300 C320 0.950 . S
H301 C321 0.950 . S
H302 C323 0.950 . S
H303 C326 0.950 . S
H304 C327 0.950 . S
H305 C329 0.950 . S
H306 C330 0.950 . S
H307 C331 0.951 . S
H308 C333 0.951 . S
H309 C335 0.950 . S
H310 C336 0.950 . S
H311 C338 0.950 . S
H312 C341 0.950 . S
H313 C342 0.950 . S
H314 C344 0.950 . S
H315 C345 0.950 . S
C316 H298 0.951 . S
C316 C317 1.366 . S
C316 C318 1.388 . S
C317 C316 1.366 . S
C317 C321 1.385 . S
C318 H299 0.951 . S
C318 C316 1.388 . S
C318 C319 1.366 . S
C319 C318 1.366 . S
C319 C320 1.414 . S
C319 C322 1.499 . S
C320 H300 0.950 . S
C320 C319 1.414 . S
C320 C321 1.374 . S
C321 H301 0.950 . S
C321 C317 1.385 . S
C321 C320 1.374 . S
C322 C319 1.499 . S
C322 C323 1.373 . S
C322 C324 1.389 . S
C323 H302 0.950 . S
C323 C322 1.373 . S
C323 C339 1.377 . S
C324 C322 1.389 . S
C324 C325 1.524 . S
C324 C338 1.377 . S
C325 C324 1.524 . S
C325 C326 1.397 . S
C325 C330 1.363 . S
C326 H303 0.950 . S
C326 C325 1.397 . S
C326 C327 1.334 . S
C327 H304 0.950 . S
C327 C326 1.334 . S
C327 C328 1.287 . S
C328 C327 1.287 . S
C328 C329 1.524 . S
C328 H347 0.913 . S
C329 H305 0.950 . S
C329 C328 1.524 . S
C329 C330 1.415 . S
C330 H306 0.950 . S
C330 C325 1.363 . S
C330 C329 1.415 . S
C331 H307 0.951 . S
C331 C332 1.366 . S
C331 C333 1.388 . S
C332 C331 1.366 . S
C332 C336 1.385 . S
C333 H308 0.951 . S
C333 C331 1.388 . S
C333 C334 1.366 . S
C334 C333 1.366 . S
C334 C335 1.414 . S
C334 C337 1.499 . S
C335 H309 0.950 . S
C335 C334 1.414 . S
C335 C336 1.374 . S
C336 H310 0.950 . S
C336 C332 1.385 . S
C336 C335 1.374 . S
C337 C334 1.499 . S
C337 C338 1.373 . S
C337 C339 1.389 . S
C338 H311 0.950 . S
C338 C324 1.377 . S
C338 C337 1.373 . S
C339 C323 1.377 . S
C339 C337 1.389 . S
C339 C340 1.524 . S
C340 C339 1.524 . S
C340 C341 1.397 . S
C340 C345 1.363 . S
C341 H312 0.950 . S
C341 C340 1.397 . S
C341 C342 1.334 . S
C342 H313 0.950 . S
C342 C341 1.334 . S
C342 C343 1.287 . S
C343 C342 1.287 . S
C343 C344 1.524 . S
C343 H346 0.999 . S
C344 H314 0.950 . S
C344 C343 1.524 . S
C344 C345 1.415 . S
C345 H315 0.950 . S
C345 C340 1.363 . S
C345 C344 1.415 . S
H346 C343 0.999 . S
H347 C328 0.913 . S
H348 C366 0.951 . S
H349 C368 0.951 . S
H350 C370 0.950 . S
H351 C371 0.950 . S
H352 C373 0.950 . S
H353 C376 0.950 . S
H354 C377 0.945 1_655 S
H355 C379 0.950 1_655 S
H356 C380 0.950 . S
H357 C381 0.951 . S
H358 C383 0.951 . S
H359 C385 0.950 . S
H360 C386 0.950 . S
H361 C388 0.950 . S
H362 C391 0.950 . S
H363 C392 0.950 . S
H364 C394 0.950 . S
H365 C395 0.950 . S
C366 H348 0.951 . S
C366 C367 1.366 . S
C366 C368 1.388 . S
C367 C366 1.366 . S
C367 C371 1.385 . S
C368 H349 0.951 . S
C368 C366 1.388 . S
C368 C369 1.366 . S
C369 C368 1.366 . S
C369 C370 1.414 . S
C369 C372 1.499 . S
C370 H350 0.950 . S
C370 C369 1.414 . S
C370 C371 1.374 . S
C371 H351 0.950 . S
C371 C367 1.385 . S
C371 C370 1.374 . S
C372 C369 1.499 . S
C372 C373 1.373 . S
C372 C374 1.389 . S
C373 H352 0.950 . S
C373 C372 1.373 . S
C373 C389 1.377 . S
C374 C372 1.389 . S
C374 C375 1.524 . S
C374 C388 1.377 . S
C375 C374 1.524 . S
C375 C376 1.397 . S
C375 C380 1.363 . S
C376 H353 0.950 . S
C376 C375 1.397 . S
C376 C377 1.355 . S
C377 H354 0.945 1_455 S
C377 C376 1.355 . S
C377 C378 1.272 1_455 S
C378 C377 1.272 1_655 S
C378 C379 1.524 1_655 S
C378 H397 0.913 . S
C379 H355 0.950 1_455 S
C379 C378 1.524 1_455 S
C379 C380 1.415 . S
C380 H356 0.950 . S
C380 C375 1.363 . S
C380 C379 1.415 . S
C381 H357 0.951 . S
C381 C382 1.366 . S
C381 C383 1.388 . S
C382 C381 1.366 . S
C382 C386 1.385 . S
C383 H358 0.951 . S
C383 C381 1.388 . S
C383 C384 1.366 . S
C384 C383 1.366 . S
C384 C385 1.414 . S
C384 C387 1.499 . S
C385 H359 0.950 . S
C385 C384 1.414 . S
C385 C386 1.374 . S
C386 H360 0.950 . S
C386 C382 1.385 . S
C386 C385 1.374 . S
C387 C384 1.499 . S
C387 C388 1.373 . S
C387 C389 1.389 . S
C388 H361 0.950 . S
C388 C374 1.377 . S
C388 C387 1.373 . S
C389 C373 1.377 . S
C389 C387 1.389 . S
C389 C390 1.524 . S
C390 C389 1.524 . S
C390 C391 1.397 . S
C390 C395 1.363 . S
C391 H362 0.950 . S
C391 C390 1.397 . S
C391 C392 1.334 . S
C392 H363 0.950 . S
C392 C391 1.334 . S
C392 C393 1.287 . S
C393 C392 1.287 . S
C393 C394 1.524 . S
C393 H396 0.999 . S
C394 H364 0.950 . S
C394 C393 1.524 . S
C394 C395 1.415 . S
C395 H365 0.950 . S
C395 C390 1.363 . S
C395 C394 1.415 . S
H396 C393 0.999 . S
H397 C378 0.913 . S
H398 C416 0.951 . S
H399 C418 0.951 . S
H400 C420 0.950 . S
H401 C421 0.950 . S
H402 C423 0.950 . S
H403 C426 0.950 . S
H404 C427 0.950 . S
H405 C429 0.950 . S
H406 C430 0.950 . S
H407 C431 0.951 . S
H408 C433 0.951 . S
H409 C435 0.950 . S
H410 C436 0.950 . S
H411 C438 0.950 . S
H412 C441 0.950 . S
H413 C442 0.950 . S
H414 C444 0.950 . S
H415 C445 0.950 . S
C416 H398 0.951 . S
C416 C417 1.366 . S
C416 C418 1.388 . S
C417 C416 1.366 . S
C417 C421 1.385 . S
C418 H399 0.951 . S
C418 C416 1.388 . S
C418 C419 1.366 . S
C419 C418 1.366 . S
C419 C420 1.414 . S
C419 C422 1.499 . S
C420 H400 0.950 . S
C420 C419 1.414 . S
C420 C421 1.374 . S
C421 H401 0.950 . S
C421 C417 1.385 . S
C421 C420 1.374 . S
C422 C419 1.499 . S
C422 C423 1.373 . S
C422 C424 1.389 . S
C423 H402 0.950 . S
C423 C422 1.373 . S
C423 C439 1.377 . S
C424 C422 1.389 . S
C424 C425 1.524 . S
C424 C438 1.377 . S
C425 C424 1.524 . S
C425 C426 1.397 . S
C425 C430 1.363 . S
C426 H403 0.950 . S
C426 C425 1.397 . S
C426 C427 1.334 . S
C427 H404 0.950 . S
C427 C426 1.334 . S
C427 C428 1.287 . S
C428 C427 1.287 . S
C428 C429 1.524 . S
C428 H447 0.913 . S
C429 H405 0.950 . S
C429 C428 1.524 . S
C429 C430 1.415 . S
C430 H406 0.950 . S
C430 C425 1.363 . S
C430 C429 1.415 . S
C431 H407 0.951 . S
C431 C432 1.366 . S
C431 C433 1.388 . S
C432 C431 1.366 . S
C432 C436 1.385 . S
C433 H408 0.951 . S
C433 C431 1.388 . S
C433 C434 1.366 . S
C434 C433 1.366 . S
C434 C435 1.414 . S
C434 C437 1.499 . S
C435 H409 0.950 . S
C435 C434 1.414 . S
C435 C436 1.374 . S
C436 H410 0.950 . S
C436 C432 1.385 . S
C436 C435 1.374 . S
C437 C434 1.499 . S
C437 C438 1.373 . S
C437 C439 1.389 . S
C438 H411 0.950 . S
C438 C424 1.377 . S
C438 C437 1.373 . S
C439 C423 1.377 . S
C439 C437 1.389 . S
C439 C440 1.524 . S
C440 C439 1.524 . S
C440 C441 1.397 . S
C440 C445 1.363 . S
C441 H412 0.950 . S
C441 C440 1.397 . S
C441 C442 1.334 . S
C442 H413 0.950 . S
C442 C441 1.334 . S
C442 C443 1.287 . S
C443 C442 1.287 . S
C443 C444 1.524 . S
C443 H446 0.999 . S
C444 H414 0.950 . S
C444 C443 1.524 . S
C444 C445 1.415 . S
C445 H415 0.950 . S
C445 C440 1.363 . S
C445 C444 1.415 . S
H446 C443 0.999 . S
H447 C428 0.913 . S
H448 C466 0.951 . S
H449 C468 0.951 . S
H450 C470 0.950 . S
H451 C471 0.950 . S
H452 C473 0.950 . S
H453 C476 0.950 . S
H454 C477 0.950 . S
H455 C479 0.950 . S
H456 C480 0.950 . S
H457 C481 0.951 . S
H458 C483 0.951 . S
H459 C485 0.950 . S
H460 C486 0.950 . S
H461 C488 0.950 . S
H462 C491 0.950 . S
H463 C492 0.950 . S
H464 C494 0.950 . S
H465 C495 0.950 . S
C466 H448 0.951 . S
C466 C467 1.366 . S
C466 C468 1.388 . S
C467 C466 1.366 . S
C467 C471 1.385 . S
C468 H449 0.951 . S
C468 C466 1.388 . S
C468 C469 1.366 . S
C469 C468 1.366 . S
C469 C470 1.414 . S
C469 C472 1.499 . S
C470 H450 0.950 . S
C470 C469 1.414 . S
C470 C471 1.374 . S
C471 H451 0.950 . S
C471 C467 1.385 . S
C471 C470 1.374 . S
C472 C469 1.499 . S
C472 C473 1.373 . S
C472 C474 1.389 . S
C473 H452 0.950 . S
C473 C472 1.373 . S
C473 C489 1.377 . S
C474 C472 1.389 . S
C474 C475 1.524 . S
C474 C488 1.377 . S
C475 C474 1.524 . S
C475 C476 1.397 . S
C475 C480 1.363 . S
C476 H453 0.950 . S
C476 C475 1.397 . S
C476 C477 1.334 . S
C477 H454 0.950 . S
C477 C476 1.334 . S
C477 C478 1.287 . S
C478 C477 1.287 . S
C478 C479 1.524 . S
C478 H497 0.913 . S
C479 H455 0.950 . S
C479 C478 1.524 . S
C479 C480 1.415 . S
C480 H456 0.950 . S
C480 C475 1.363 . S
C480 C479 1.415 . S
C481 H457 0.951 . S
C481 C482 1.366 . S
C481 C483 1.388 . S
C482 C481 1.366 . S
C482 C486 1.385 . S
C483 H458 0.951 . S
C483 C481 1.388 . S
C483 C484 1.366 . S
C484 C483 1.366 . S
C484 C485 1.414 . S
C484 C487 1.499 . S
C485 H459 0.950 . S
C485 C484 1.414 . S
C485 C486 1.374 . S
C486 H460 0.950 . S
C486 C482 1.385 . S
C486 C485 1.374 . S
C487 C484 1.499 . S
C487 C488 1.373 . S
C487 C489 1.389 . S
C488 H461 0.950 . S
C488 C474 1.377 . S
C488 C487 1.373 . S
C489 C473 1.377 . S
C489 C487 1.389 . S
C489 C490 1.524 . S
C490 C489 1.524 . S
C490 C491 1.397 . S
C490 C495 1.363 . S
C491 H462 0.950 . S
C491 C490 1.397 . S
C491 C492 1.334 . S
C492 H463 0.950 . S
C492 C491 1.334 . S
C492 C493 1.287 . S
C493 C492 1.287 . S
C493 C494 1.524 . S
C493 H496 0.999 . S
C494 H464 0.950 . S
C494 C493 1.524 . S
C494 C495 1.415 . S
C495 H465 0.950 . S
C495 C490 1.363 . S
C495 C494 1.415 . S
H496 C493 0.999 . S
H497 C478 0.913 . S
H498 C516 0.951 . S
H499 C518 0.951 . S
H500 C520 0.950 . S
H501 C521 0.950 . S
H502 C523 0.951 1_655 S
H503 C526 0.950 . S
H504 C527 0.950 . S
H505 C529 0.950 . S
H506 C530 0.950 . S
H507 C531 0.951 . S
H508 C533 0.951 . S
H509 C535 0.950 . S
H510 C536 0.950 . S
H511 C538 0.950 . S
H512 C541 0.950 . S
H513 C542 0.950 . S
H514 C544 0.950 . S
H515 C545 0.950 . S
C516 H498 0.951 . S
C516 C517 1.366 . S
C516 C518 1.388 . S
C517 C516 1.366 . S
C517 C521 1.385 . S
C518 H499 0.951 . S
C518 C516 1.388 . S
C518 C519 1.366 . S
C519 C518 1.366 . S
C519 C520 1.414 . S
C519 C522 1.499 . S
C520 H500 0.950 . S
C520 C519 1.414 . S
C520 C521 1.374 . S
C521 H501 0.950 . S
C521 C517 1.385 . S
C521 C520 1.374 . S
C522 C519 1.499 . S
C522 C523 1.373 1_655 S
C522 C524 1.389 . S
C523 H502 0.951 1_455 S
C523 C522 1.373 1_455 S
C523 C539 1.377 . S
C524 C522 1.389 . S
C524 C525 1.524 . S
C524 C538 1.377 1_655 S
C525 C524 1.524 . S
C525 C526 1.397 . S
C525 C530 1.363 . S
C526 H503 0.950 . S
C526 C525 1.397 . S
C526 C527 1.334 . S
C527 H504 0.950 . S
C527 C526 1.334 . S
C527 C528 1.287 . S
C528 C527 1.287 . S
C528 C529 1.524 . S
C528 H547 0.913 . S
C529 H505 0.950 . S
C529 C528 1.524 . S
C529 C530 1.415 . S
C530 H506 0.950 . S
C530 C525 1.363 . S
C530 C529 1.415 . S
C531 H507 0.951 . S
C531 C532 1.366 . S
C531 C533 1.388 . S
C532 C531 1.366 . S
C532 C536 1.385 . S
C533 H508 0.951 . S
C533 C531 1.388 . S
C533 C534 1.366 . S
C534 C533 1.366 . S
C534 C535 1.414 . S
C534 C537 1.499 . S
C535 H509 0.950 . S
C535 C534 1.414 . S
C535 C536 1.374 . S
C536 H510 0.950 . S
C536 C532 1.385 . S
C536 C535 1.374 . S
C537 C534 1.499 . S
C537 C538 1.373 . S
C537 C539 1.389 . S
C538 H511 0.950 . S
C538 C524 1.377 1_455 S
C538 C537 1.373 . S
C539 C523 1.377 . S
C539 C537 1.389 . S
C539 C540 1.524 . S
C540 C539 1.524 . S
C540 C541 1.397 . S
C540 C545 1.363 . S
C541 H512 0.950 . S
C541 C540 1.397 . S
C541 C542 1.334 . S
C542 H513 0.950 . S
C542 C541 1.334 . S
C542 C543 1.287 . S
C543 C542 1.287 . S
C543 C544 1.524 . S
C543 H546 0.999 . S
C544 H514 0.950 . S
C544 C543 1.524 . S
C544 C545 1.415 . S
C545 H515 0.950 . S
C545 C540 1.363 . S
C545 C544 1.415 . S
H546 C543 0.999 . S
H547 C528 0.913 . S
H548 C566 0.951 . S
H549 C568 0.951 . S
H550 C570 0.950 . S
H551 C571 0.950 . S
H552 C573 0.950 . S
H553 C576 0.950 . S
H554 C577 0.950 . S
H555 C579 0.950 . S
H556 C580 0.950 . S
H557 C581 0.951 . S
H558 C583 0.951 . S
H559 C585 0.950 . S
H560 C586 0.950 . S
H561 C588 0.950 . S
H562 C591 0.950 . S
H563 C592 0.950 . S
H564 C594 0.950 . S
H565 C595 0.950 . S
C566 H548 0.951 . S
C566 C567 1.366 . S
C566 C568 1.388 . S
C567 C566 1.366 . S
C567 C571 1.385 . S
C568 H549 0.951 . S
C568 C566 1.388 . S
C568 C569 1.366 . S
C569 C568 1.366 . S
C569 C570 1.414 . S
C569 C572 1.499 . S
C570 H550 0.950 . S
C570 C569 1.414 . S
C570 C571 1.374 . S
C571 H551 0.950 . S
C571 C567 1.385 . S
C571 C570 1.374 . S
C572 C569 1.499 . S
C572 C573 1.373 . S
C572 C574 1.389 . S
C573 H552 0.950 . S
C573 C572 1.373 . S
C573 C589 1.377 . S
C574 C572 1.389 . S
C574 C575 1.524 . S
C574 C588 1.377 . S
C575 C574 1.524 . S
C575 C576 1.397 . S
C575 C580 1.363 . S
C576 H553 0.950 . S
C576 C575 1.397 . S
C576 C577 1.334 . S
C577 H554 0.950 . S
C577 C576 1.334 . S
C577 C578 1.287 . S
C578 C577 1.287 . S
C578 C579 1.524 . S
C578 H597 0.913 . S
C579 H555 0.950 . S
C579 C578 1.524 . S
C579 C580 1.415 . S
C580 H556 0.950 . S
C580 C575 1.363 . S
C580 C579 1.415 . S
C581 H557 0.951 . S
C581 C582 1.366 . S
C581 C583 1.388 . S
C582 C581 1.366 . S
C582 C586 1.385 . S
C583 H558 0.951 . S
C583 C581 1.388 . S
C583 C584 1.366 . S
C584 C583 1.366 . S
C584 C585 1.414 . S
C584 C587 1.499 . S
C585 H559 0.950 . S
C585 C584 1.414 . S
C585 C586 1.374 . S
C586 H560 0.950 . S
C586 C582 1.385 . S
C586 C585 1.374 . S
C587 C584 1.499 . S
C587 C588 1.373 . S
C587 C589 1.389 . S
C588 H561 0.950 . S
C588 C574 1.377 . S
C588 C587 1.373 . S
C589 C573 1.377 . S
C589 C587 1.389 . S
C589 C590 1.524 . S
C590 C589 1.524 . S
C590 C591 1.397 . S
C590 C595 1.363 . S
C591 H562 0.950 . S
C591 C590 1.397 . S
C591 C592 1.334 . S
C592 H563 0.950 . S
C592 C591 1.334 . S
C592 C593 1.287 . S
C593 C592 1.287 . S
C593 C594 1.524 . S
C593 H596 0.999 . S
C594 H564 0.950 . S
C594 C593 1.524 . S
C594 C595 1.415 . S
C595 H565 0.950 . S
C595 C590 1.363 . S
C595 C594 1.415 . S
H596 C593 0.999 . S
H597 C578 0.913 . S
H598 C616 0.951 . S
H599 C618 0.951 . S
H600 C620 0.950 . S
H601 C621 0.950 . S
H602 C623 0.950 . S
H603 C626 0.950 . S
H604 C627 0.950 . S
H605 C629 0.950 . S
H606 C630 0.950 . S
H607 C631 0.951 . S
H608 C633 0.951 . S
H609 C635 0.950 . S
H610 C636 0.950 . S
H611 C638 0.950 . S
H612 C641 0.950 . S
H613 C642 0.950 . S
H614 C644 0.950 . S
H615 C645 0.950 1_565 S
C616 H598 0.951 . S
C616 C617 1.366 . S
C616 C618 1.388 . S
C617 C616 1.366 . S
C617 C621 1.385 . S
C618 H599 0.951 . S
C618 C616 1.388 . S
C618 C619 1.366 . S
C619 C618 1.366 . S
C619 C620 1.414 . S
C619 C622 1.499 . S
C620 H600 0.950 . S
C620 C619 1.414 . S
C620 C621 1.374 . S
C621 H601 0.950 . S
C621 C617 1.385 . S
C621 C620 1.374 . S
C622 C619 1.499 . S
C622 C623 1.373 . S
C622 C624 1.389 . S
C623 H602 0.950 . S
C623 C622 1.373 . S
C623 C639 1.377 1_565 S
C624 C622 1.389 . S
C624 C625 1.524 . S
C624 C638 1.377 1_565 S
C625 C624 1.524 . S
C625 C626 1.397 . S
C625 C630 1.363 . S
C626 H603 0.950 . S
C626 C625 1.397 . S
C626 C627 1.334 . S
C627 H604 0.950 . S
C627 C626 1.334 . S
C627 C628 1.287 . S
C628 C627 1.287 . S
C628 C629 1.524 . S
C628 H647 0.913 . S
C629 H605 0.950 . S
C629 C628 1.524 . S
C629 C630 1.415 . S
C630 H606 0.950 . S
C630 C625 1.363 . S
C630 C629 1.415 . S
C631 H607 0.951 . S
C631 C632 1.366 . S
C631 C633 1.388 . S
C632 C631 1.366 . S
C632 C636 1.385 . S
C633 H608 0.951 . S
C633 C631 1.388 . S
C633 C634 1.366 . S
C634 C633 1.366 . S
C634 C635 1.414 . S
C634 C637 1.499 . S
C635 H609 0.950 . S
C635 C634 1.414 . S
C635 C636 1.374 . S
C636 H610 0.950 . S
C636 C632 1.385 . S
C636 C635 1.374 . S
C637 C634 1.499 . S
C637 C638 1.373 . S
C637 C639 1.389 . S
C638 H611 0.950 . S
C638 C624 1.377 1_545 S
C638 C637 1.373 . S
C639 C623 1.377 1_545 S
C639 C637 1.389 . S
C639 C640 1.524 . S
C640 C639 1.524 . S
C640 C641 1.397 . S
C640 C645 1.363 . S
C641 H612 0.950 . S
C641 C640 1.397 . S
C641 C642 1.334 . S
C642 H613 0.950 . S
C642 C641 1.334 . S
C642 C643 1.287 . S
C643 C642 1.287 . S
C643 C644 1.524 . S
C643 H646 0.999 . S
C644 H614 0.950 . S
C644 C643 1.524 . S
C644 C645 1.415 . S
C645 H615 0.950 1_545 S
C645 C640 1.363 . S
C645 C644 1.415 . S
H646 C643 0.999 . S
H647 C628 0.913 . S
H648 C666 0.951 . S
H649 C668 0.951 . S
H650 C670 0.950 . S
H651 C671 0.950 . S
H652 C673 0.953 1_655 S
H653 C676 0.950 . S
H654 C677 0.950 . S
H655 C679 0.950 . S
H656 C680 0.950 . S
H657 C681 0.951 . S
H658 C683 0.951 . S
H659 C685 0.950 . S
H660 C686 0.950 . S
H661 C688 0.950 . S
H662 C691 0.950 . S
H663 C692 0.950 . S
H664 C694 0.950 . S
H665 C695 0.950 . S
C666 H648 0.951 . S
C666 C667 1.366 . S
C666 C668 1.388 . S
C667 C666 1.366 . S
C667 C671 1.385 1_445 S
C668 H649 0.951 . S
C668 C666 1.388 . S
C668 C669 1.366 . S
C669 C668 1.366 . S
C669 C670 1.414 1_445 S
C669 C672 1.499 . S
C670 H650 0.950 . S
C670 C669 1.414 1_665 S
C670 C671 1.374 . S
C671 H651 0.950 . S
C671 C667 1.385 1_665 S
C671 C670 1.374 . S
C672 C669 1.499 . S
C672 C673 1.373 1_545 S
C672 C674 1.389 . S
C673 H652 0.953 1_455 S
C673 C672 1.373 1_565 S
C673 C689 1.377 . S
C674 C672 1.389 . S
C674 C675 1.524 . S
C674 C688 1.377 . S
C675 C674 1.524 . S
C675 C676 1.397 1_455 S
C675 C680 1.363 . S
C676 H653 0.950 . S
C676 C675 1.397 1_655 S
C676 C677 1.334 . S
C677 H654 0.950 . S
C677 C676 1.334 . S
C677 C678 1.287 1_655 S
C678 C677 1.287 1_455 S
C678 C679 1.524 . S
C678 H697 0.913 . S
C679 H655 0.950 . S
C679 C678 1.524 . S
C679 C680 1.415 . S
C680 H656 0.950 . S
C680 C675 1.363 . S
C680 C679 1.415 . S
C681 H657 0.951 . S
C681 C682 1.366 1_665 S
C681 C683 1.388 . S
C682 C681 1.366 1_445 S
C682 C686 1.385 . S
C683 H658 0.951 . S
C683 C681 1.388 . S
C683 C684 1.366 1_665 S
C684 C683 1.366 1_445 S
C684 C685 1.414 . S
C684 C687 1.499 . S
C685 H659 0.950 . S
C685 C684 1.414 . S
C685 C686 1.374 . S
C686 H660 0.950 . S
C686 C682 1.385 . S
C686 C685 1.374 . S
C687 C684 1.499 . S
C687 C688 1.373 . S
C687 C689 1.389 1_545 S
C688 H661 0.950 . S
C688 C674 1.377 . S
C688 C687 1.373 . S
C689 C673 1.377 . S
C689 C687 1.389 1_565 S
C689 C690 1.524 . S
C690 C689 1.524 . S
C690 C691 1.397 . S
C690 C695 1.363 1_455 S
C691 H662 0.950 . S
C691 C690 1.397 . S
C691 C692 1.334 . S
C692 H663 0.950 . S
C692 C691 1.334 . S
C692 C693 1.287 . S
C693 C692 1.287 . S
C693 C694 1.524 1_455 S
C693 H696 0.999 . S
C694 H664 0.950 . S
C694 C693 1.524 1_655 S
C694 C695 1.415 . S
C695 H665 0.950 . S
C695 C690 1.363 1_655 S
C695 C694 1.415 . S
H696 C693 0.999 . S
H697 C678 0.913 . S
H698 C716 0.951 . S
H699 C718 0.951 . S
H700 C720 0.950 . S
H701 C721 0.950 . S
H702 C723 0.950 . S
H703 C726 0.950 . S
H704 C727 0.950 . S
H705 C729 0.950 . S
H706 C730 0.950 . S
H707 C731 0.951 . S
H708 C733 0.951 . S
H709 C735 0.950 . S
H710 C736 0.950 . S
H711 C738 0.950 . S
H712 C741 0.950 . S
H713 C742 0.950 . S
H714 C744 0.950 . S
H715 C745 0.950 . S
C716 H698 0.951 . S
C716 C717 1.366 . S
C716 C718 1.388 . S
C717 C716 1.366 . S
C717 C721 1.385 . S
C718 H699 0.951 . S
C718 C716 1.388 . S
C718 C719 1.366 . S
C719 C718 1.366 . S
C719 C720 1.414 . S
C719 C722 1.499 . S
C720 H700 0.950 . S
C720 C719 1.414 . S
C720 C721 1.374 . S
C721 H701 0.950 . S
C721 C717 1.385 . S
C721 C720 1.374 . S
C722 C719 1.499 . S
C722 C723 1.373 . S
C722 C724 1.389 . S
C723 H702 0.950 . S
C723 C722 1.373 . S
C723 C739 1.377 . S
C724 C722 1.389 . S
C724 C725 1.524 . S
C724 C738 1.377 . S
C725 C724 1.524 . S
C725 C726 1.397 . S
C725 C730 1.363 . S
C726 H703 0.950 . S
C726 C725 1.397 . S
C726 C727 1.334 . S
C727 H704 0.950 . S
C727 C726 1.334 . S
C727 C728 1.287 . S
C728 C727 1.287 . S
C728 C729 1.524 . S
C728 H747 0.913 . S
C729 H705 0.950 . S
C729 C728 1.524 . S
C729 C730 1.415 . S
C730 H706 0.950 . S
C730 C725 1.363 . S
C730 C729 1.415 . S
C731 H707 0.951 . S
C731 C732 1.366 . S
C731 C733 1.388 . S
C732 C731 1.366 . S
C732 C736 1.385 . S
C733 H708 0.951 . S
C733 C731 1.388 . S
C733 C734 1.366 . S
C734 C733 1.366 . S
C734 C735 1.414 . S
C734 C737 1.499 . S
C735 H709 0.950 . S
C735 C734 1.414 . S
C735 C736 1.374 . S
C736 H710 0.950 . S
C736 C732 1.385 . S
C736 C735 1.374 . S
C737 C734 1.499 . S
C737 C738 1.373 . S
C737 C739 1.389 . S
C738 H711 0.950 . S
C738 C724 1.377 . S
C738 C737 1.373 . S
C739 C723 1.377 . S
C739 C737 1.389 . S
C739 C740 1.524 . S
C740 C739 1.524 . S
C740 C741 1.397 . S
C740 C745 1.363 . S
C741 H712 0.950 . S
C741 C740 1.397 . S
C741 C742 1.334 . S
C742 H713 0.950 . S
C742 C741 1.334 . S
C742 C743 1.287 . S
C743 C742 1.287 . S
C743 C744 1.524 . S
C743 H746 0.999 . S
C744 H714 0.950 . S
C744 C743 1.524 . S
C744 C745 1.415 . S
C745 H715 0.950 . S
C745 C740 1.363 . S
C745 C744 1.415 . S
H746 C743 0.999 . S
H747 C728 0.913 . S
H748 C766 0.951 . S
H749 C768 0.951 . S
H750 C770 0.950 . S
H751 C771 0.950 . S
H752 C773 0.950 . S
H753 C776 0.950 . S
H754 C777 0.950 . S
H755 C779 0.950 . S
H756 C780 0.950 . S
H757 C781 0.951 . S
H758 C783 0.951 . S
H759 C785 0.950 . S
H760 C786 0.950 . S
H761 C788 0.950 . S
H762 C791 0.950 . S
H763 C792 0.950 . S
H764 C794 0.950 . S
H765 C795 0.950 . S
C766 H748 0.951 . S
C766 C767 1.366 . S
C766 C768 1.388 . S
C767 C766 1.366 . S
C767 C771 1.385 . S
C768 H749 0.951 . S
C768 C766 1.388 . S
C768 C769 1.366 . S
C769 C768 1.366 . S
C769 C770 1.414 . S
C769 C772 1.499 . S
C770 H750 0.950 . S
C770 C769 1.414 . S
C770 C771 1.374 . S
C771 H751 0.950 . S
C771 C767 1.385 . S
C771 C770 1.374 . S
C772 C769 1.499 . S
C772 C773 1.373 . S
C772 C774 1.389 . S
C773 H752 0.950 . S
C773 C772 1.373 . S
C773 C789 1.377 . S
C774 C772 1.389 . S
C774 C775 1.524 . S
C774 C788 1.377 . S
C775 C774 1.524 . S
C775 C776 1.397 . S
C775 C780 1.363 . S
C776 H753 0.950 . S
C776 C775 1.397 . S
C776 C777 1.334 . S
C777 H754 0.950 . S
C777 C776 1.334 . S
C777 C778 1.287 . S
C778 C777 1.287 . S
C778 C779 1.524 . S
C778 H797 0.913 . S
C779 H755 0.950 . S
C779 C778 1.524 . S
C779 C780 1.415 . S
C780 H756 0.950 . S
C780 C775 1.363 . S
C780 C779 1.415 . S
C781 H757 0.951 . S
C781 C782 1.366 . S
C781 C783 1.388 . S
C782 C781 1.366 . S
C782 C786 1.385 . S
C783 H758 0.951 . S
C783 C781 1.388 . S
C783 C784 1.366 . S
C784 C783 1.366 . S
C784 C785 1.414 . S
C784 C787 1.499 . S
C785 H759 0.950 . S
C785 C784 1.414 . S
C785 C786 1.374 . S
C786 H760 0.950 . S
C786 C782 1.385 . S
C786 C785 1.374 . S
C787 C784 1.499 . S
C787 C788 1.373 . S
C787 C789 1.389 . S
C788 H761 0.950 . S
C788 C774 1.377 . S
C788 C787 1.373 . S
C789 C773 1.377 . S
C789 C787 1.389 . S
C789 C790 1.524 . S
C790 C789 1.524 . S
C790 C791 1.397 . S
C790 C795 1.363 . S
C791 H762 0.950 . S
C791 C790 1.397 . S
C791 C792 1.334 . S
C792 H763 0.950 . S
C792 C791 1.334 . S
C792 C793 1.287 . S
C793 C792 1.287 . S
C793 C794 1.524 . S
C793 H796 0.999 . S
C794 H764 0.950 . S
C794 C793 1.524 . S
C794 C795 1.415 . S
C795 H765 0.950 . S
C795 C790 1.363 . S
C795 C794 1.415 . S
H796 C793 0.999 . S
H797 C778 0.913 . S
H798 C816 0.951 . S
H799 C818 0.951 . S
H800 C820 0.950 . S
H801 C821 0.950 . S
H802 C823 0.950 . S
H803 C826 0.950 . S
H804 C827 0.950 . S
H805 C829 0.950 . S
H806 C830 0.950 . S
H807 C831 0.957 1_655 S
H808 C833 0.951 . S
H809 C835 0.950 . S
H810 C836 0.950 . S
H811 C838 0.950 . S
H812 C841 0.950 . S
H813 C842 0.950 . S
H814 C844 0.950 . S
H815 C845 0.950 . S
C816 H798 0.951 . S
C816 C817 1.366 . S
C816 C818 1.388 . S
C817 C816 1.366 . S
C817 C821 1.385 1_545 S
C818 H799 0.951 . S
C818 C816 1.388 . S
C818 C819 1.366 . S
C819 C818 1.366 . S
C819 C820 1.414 1_545 S
C819 C822 1.499 . S
C820 H800 0.950 . S
C820 C819 1.414 1_565 S
C820 C821 1.374 . S
C821 H801 0.950 . S
C821 C817 1.385 1_565 S
C821 C820 1.374 . S
C822 C819 1.499 . S
C822 C823 1.373 . S
C822 C824 1.389 1_455 S
C823 H802 0.950 . S
C823 C822 1.373 . S
C823 C839 1.377 1_554 S
C824 C822 1.389 1_655 S
C824 C825 1.524 . S
C824 C838 1.377 1_554 S
C825 C824 1.524 . S
C825 C826 1.397 1_545 S
C825 C830 1.363 . S
C826 H803 0.950 . S
C826 C825 1.397 1_565 S
C826 C827 1.334 . S
C827 H804 0.950 . S
C827 C826 1.334 . S
C827 C828 1.287 1_565 S
C828 C827 1.287 1_545 S
C828 C829 1.524 . S
C828 H847 0.913 . S
C829 H805 0.950 . S
C829 C828 1.524 . S
C829 C830 1.415 . S
C830 H806 0.950 . S
C830 C825 1.363 . S
C830 C829 1.415 . S
C831 H807 0.957 1_455 S
C831 C832 1.358 1_465 S
C831 C833 1.387 . S
C832 C831 1.358 1_645 S
C832 C836 1.388 1_655 S
C833 H808 0.951 . S
C833 C831 1.387 . S
C833 C834 1.366 1_565 S
C834 C833 1.366 1_545 S
C834 C835 1.414 . S
C834 C837 1.499 . S
C835 H809 0.950 . S
C835 C834 1.414 . S
C835 C836 1.374 . S
C836 H810 0.950 . S
C836 C832 1.388 1_455 S
C836 C835 1.374 . S
C837 C834 1.499 . S
C837 C838 1.373 1_455 S
C837 C839 1.389 . S
C838 H811 0.950 . S
C838 C824 1.377 1_556 S
C838 C837 1.373 1_655 S
C839 C823 1.377 1_556 S
C839 C837 1.389 . S
C839 C840 1.524 . S
C840 C839 1.524 . S
C840 C841 1.397 . S
C840 C845 1.363 1_545 S
C841 H812 0.950 . S
C841 C840 1.397 . S
C841 C842 1.334 . S
C842 H813 0.950 . S
C842 C841 1.334 . S
C842 C843 1.287 . S
C843 C842 1.287 . S
C843 C844 1.524 1_545 S
C843 H846 0.999 . S
C844 H814 0.950 . S
C844 C843 1.524 1_565 S
C844 C845 1.415 . S
C845 H815 0.950 . S
C845 C840 1.363 1_565 S
C845 C844 1.415 . S
H846 C843 0.999 . S
H847 C828 0.913 . S
H848 C866 0.951 . S
H849 C868 0.951 . S
H850 C870 0.950 . S
H851 C871 0.950 . S
H852 C873 0.950 . S
H853 C876 0.950 . S
H854 C877 0.950 . S
H855 C879 0.950 . S
H856 C880 0.950 . S
H857 C881 0.951 . S
H858 C883 0.951 . S
H859 C885 0.950 . S
H860 C886 0.950 . S
H861 C888 0.950 . S
H862 C891 0.950 . S
H863 C892 0.950 . S
H864 C894 0.950 . S
H865 C895 0.950 . S
C866 H848 0.951 . S
C866 C867 1.366 . S
C866 C868 1.388 . S
C867 C866 1.366 . S
C867 C871 1.385 . S
C868 H849 0.951 . S
C868 C866 1.388 . S
C868 C869 1.366 . S
C869 C868 1.366 . S
C869 C870 1.414 . S
C869 C872 1.499 . S
C870 H850 0.950 . S
C870 C869 1.414 . S
C870 C871 1.374 . S
C871 H851 0.950 . S
C871 C867 1.385 . S
C871 C870 1.374 . S
C872 C869 1.499 . S
C872 C873 1.373 . S
C872 C874 1.389 . S
C873 H852 0.950 . S
C873 C872 1.373 . S
C873 C889 1.377 . S
C874 C872 1.389 . S
C874 C875 1.524 . S
C874 C888 1.377 . S
C875 C874 1.524 . S
C875 C876 1.397 . S
C875 C880 1.363 . S
C876 H853 0.950 . S
C876 C875 1.397 . S
C876 C877 1.334 . S
C877 H854 0.950 . S
C877 C876 1.334 . S
C877 C878 1.287 . S
C878 C877 1.287 . S
C878 C879 1.524 . S
C878 H897 0.913 . S
C879 H855 0.950 . S
C879 C878 1.524 . S
C879 C880 1.415 . S
C880 H856 0.950 . S
C880 C875 1.363 . S
C880 C879 1.415 . S
C881 H857 0.951 . S
C881 C882 1.366 . S
C881 C883 1.388 . S
C882 C881 1.366 . S
C882 C886 1.385 . S
C883 H858 0.951 . S
C883 C881 1.388 . S
C883 C884 1.366 . S
C884 C883 1.366 . S
C884 C885 1.414 . S
C884 C887 1.499 . S
C885 H859 0.950 . S
C885 C884 1.414 . S
C885 C886 1.374 . S
C886 H860 0.950 . S
C886 C882 1.385 . S
C886 C885 1.374 . S
C887 C884 1.499 . S
C887 C888 1.373 . S
C887 C889 1.389 . S
C888 H861 0.950 . S
C888 C874 1.377 . S
C888 C887 1.373 . S
C889 C873 1.377 . S
C889 C887 1.389 . S
C889 C890 1.524 . S
C890 C889 1.524 . S
C890 C891 1.397 . S
C890 C895 1.363 . S
C891 H862 0.950 . S
C891 C890 1.397 . S
C891 C892 1.334 . S
C892 H863 0.950 . S
C892 C891 1.334 . S
C892 C893 1.287 . S
C893 C892 1.287 . S
C893 C894 1.524 . S
C893 H896 0.999 . S
C894 H864 0.950 . S
C894 C893 1.524 . S
C894 C895 1.415 . S
C895 H865 0.950 . S
C895 C890 1.363 . S
C895 C894 1.415 . S
H896 C893 0.999 . S
H897 C878 0.913 . S
H898 C916 0.951 . S
H899 C918 0.951 . S
H900 C920 0.950 . S
H901 C921 0.950 . S
H902 C923 0.950 . S
H903 C926 0.950 . S
H904 C927 0.950 . S
H905 C929 0.950 . S
H906 C930 0.950 . S
H907 C931 0.951 . S
H908 C933 0.951 . S
H909 C935 0.950 . S
H910 C936 0.950 . S
H911 C938 0.950 . S
H912 C941 0.950 . S
H913 C942 0.950 . S
H914 C944 0.950 . S
H915 C945 0.950 . S
C916 H898 0.951 . S
C916 C917 1.366 . S
C916 C918 1.388 . S
C917 C916 1.366 . S
C917 C921 1.385 . S
C918 H899 0.951 . S
C918 C916 1.388 . S
C918 C919 1.366 . S
C919 C918 1.366 . S
C919 C920 1.414 . S
C919 C922 1.499 . S
C920 H900 0.950 . S
C920 C919 1.414 . S
C920 C921 1.374 . S
C921 H901 0.950 . S
C921 C917 1.385 . S
C921 C920 1.374 . S
C922 C919 1.499 . S
C922 C923 1.373 . S
C922 C924 1.389 . S
C923 H902 0.950 . S
C923 C922 1.373 . S
C923 C939 1.377 . S
C924 C922 1.389 . S
C924 C925 1.524 . S
C924 C938 1.377 . S
C925 C924 1.524 . S
C925 C926 1.397 . S
C925 C930 1.363 . S
C926 H903 0.950 . S
C926 C925 1.397 . S
C926 C927 1.334 . S
C927 H904 0.950 . S
C927 C926 1.334 . S
C927 C928 1.287 . S
C928 C927 1.287 . S
C928 C929 1.524 . S
C928 H947 0.913 . S
C929 H905 0.950 . S
C929 C928 1.524 . S
C929 C930 1.415 . S
C930 H906 0.950 . S
C930 C925 1.363 . S
C930 C929 1.415 . S
C931 H907 0.951 . S
C931 C932 1.366 . S
C931 C933 1.388 . S
C932 C931 1.366 . S
C932 C936 1.385 . S
C933 H908 0.951 . S
C933 C931 1.388 . S
C933 C934 1.366 . S
C934 C933 1.366 . S
C934 C935 1.414 . S
C934 C937 1.499 . S
C935 H909 0.950 . S
C935 C934 1.414 . S
C935 C936 1.374 . S
C936 H910 0.950 . S
C936 C932 1.385 . S
C936 C935 1.374 . S
C937 C934 1.499 . S
C937 C938 1.373 . S
C937 C939 1.389 . S
C938 H911 0.950 . S
C938 C924 1.377 . S
C938 C937 1.373 . S
C939 C923 1.377 . S
C939 C937 1.389 . S
C939 C940 1.524 . S
C940 C939 1.524 . S
C940 C941 1.397 . S
C940 C945 1.363 . S
C941 H912 0.950 . S
C941 C940 1.397 . S
C941 C942 1.334 . S
C942 H913 0.950 . S
C942 C941 1.334 . S
C942 C943 1.287 . S
C943 C942 1.287 . S
C943 C944 1.524 . S
C943 H946 0.999 . S
C944 H914 0.950 . S
C944 C943 1.524 . S
C944 C945 1.415 . S
C945 H915 0.950 . S
C945 C940 1.363 . S
C945 C944 1.415 . S
H946 C943 0.999 . S
H947 C928 0.913 . S
C217 C8 1.998 . S
C232 C107 1.998 . S
C267 C28 1.538 . S
C282 C116 1.568 . S
C317 C127 1.539 . S
C332 C17 1.568 . S
C367 C61 1.539 . S
C382 C149 1.568 . S
C417 C140 1.998 . S
C432 C41 1.998 . S
C467 C50 1.568 . S
C482 C160 1.539 . S
C517 C74 1.998 . S
C532 C173 1.998 . S
C567 C94 1.538 . S
C582 C182 1.568 . S
C617 C193 1.539 . S
C632 C83 1.568 . S
C667 N38 2.351 1_455 S
C682 N5 2.351 . S
C717 N104 2.351 1_556 S
C732 N71 2.350 . S
C767 N170 2.351 . S
C782 N137 2.351 1_554 S
C817 N14 0.953 . S
C832 N47 0.951 1_655 S
C867 N113 0.952 . S
C882 N80 0.952 . S
C917 N179 0.951 . S
C932 N146 0.951 . S
