# Generated by pormake.
# Topology unb, (4)-cn, num edge types: 1
# Building blocks:
#     Node 0, Type 0, BuildingBlock: ICAMEG_clean_sbu_1, # of connection points: 4
#     Node 1, Type 0, BuildingBlock: ICAMEG_clean_sbu_1, # of connection points: 4
#     Node 2, Type 0, BuildingBlock: ICAMEG_clean_sbu_1, # of connection points: 4
#     Node 3, Type 0, BuildingBlock: ICAMEG_clean_sbu_1, # of connection points: 4
#     Node 4, Type 0, BuildingBlock: ICAMEG_clean_sbu_1, # of connection points: 4
#     Node 5, Type 0, BuildingBlock: ICAMEG_clean_sbu_1, # of connection points: 4
#     Node 6, Type 0, BuildingBlock: ICAMEG_clean_sbu_1, # of connection points: 4
#     Node 7, Type 0, BuildingBlock: ICAMEG_clean_sbu_1, # of connection points: 4
#     Node 8, Type 0, BuildingBlock: ICAMEG_clean_sbu_1, # of connection points: 4
#     Node 9, Type 0, BuildingBlock: ICAMEG_clean_sbu_1, # of connection points: 4
#     Node 10, Type 0, BuildingBlock: ICAMEG_clean_sbu_1, # of connection points: 4
#     Node 11, Type 0, BuildingBlock: ICAMEG_clean_sbu_1, # of connection points: 4
#     Node 12, Type 0, BuildingBlock: ICAMEG_clean_sbu_1, # of connection points: 4
#     Node 13, Type 0, BuildingBlock: ICAMEG_clean_sbu_1, # of connection points: 4
#     Node 14, Type 0, BuildingBlock: ICAMEG_clean_sbu_1, # of connection points: 4
#     Node 15, Type 0, BuildingBlock: ICAMEG_clean_sbu_1, # of connection points: 4
#     Node 16, Type 0, BuildingBlock: ICAMEG_clean_sbu_1, # of connection points: 4
#     Node 17, Type 0, BuildingBlock: ICAMEG_clean_sbu_1, # of connection points: 4
#     Edge 18, Type (0, 0), BuildingBlock: KIFKEQ_clean_linker_1, # of connection points: 2
#     Edge 19, Type (0, 0), BuildingBlock: KIFKEQ_clean_linker_1, # of connection points: 2
#     Edge 20, Type (0, 0), BuildingBlock: KIFKEQ_clean_linker_1, # of connection points: 2
#     Edge 21, Type (0, 0), BuildingBlock: KIFKEQ_clean_linker_1, # of connection points: 2
#     Edge 22, Type (0, 0), BuildingBlock: KIFKEQ_clean_linker_1, # of connection points: 2
#     Edge 23, Type (0, 0), BuildingBlock: KIFKEQ_clean_linker_1, # of connection points: 2
#     Edge 24, Type (0, 0), BuildingBlock: KIFKEQ_clean_linker_1, # of connection points: 2
#     Edge 25, Type (0, 0), BuildingBlock: KIFKEQ_clean_linker_1, # of connection points: 2
#     Edge 26, Type (0, 0), BuildingBlock: KIFKEQ_clean_linker_1, # of connection points: 2
#     Edge 27, Type (0, 0), BuildingBlock: KIFKEQ_clean_linker_1, # of connection points: 2
#     Edge 28, Type (0, 0), BuildingBlock: KIFKEQ_clean_linker_1, # of connection points: 2
#     Edge 29, Type (0, 0), BuildingBlock: KIFKEQ_clean_linker_1, # of connection points: 2
#     Edge 30, Type (0, 0), BuildingBlock: KIFKEQ_clean_linker_1, # of connection points: 2
#     Edge 31, Type (0, 0), BuildingBlock: KIFKEQ_clean_linker_1, # of connection points: 2
#     Edge 32, Type (0, 0), BuildingBlock: KIFKEQ_clean_linker_1, # of connection points: 2
#     Edge 33, Type (0, 0), BuildingBlock: KIFKEQ_clean_linker_1, # of connection points: 2
#     Edge 34, Type (0, 0), BuildingBlock: KIFKEQ_clean_linker_1, # of connection points: 2
#     Edge 35, Type (0, 0), BuildingBlock: KIFKEQ_clean_linker_1, # of connection points: 2
#     Edge 36, Type (0, 0), BuildingBlock: KIFKEQ_clean_linker_1, # of connection points: 2
#     Edge 37, Type (0, 0), BuildingBlock: KIFKEQ_clean_linker_1, # of connection points: 2
#     Edge 38, Type (0, 0), BuildingBlock: KIFKEQ_clean_linker_1, # of connection points: 2
#     Edge 39, Type (0, 0), BuildingBlock: KIFKEQ_clean_linker_1, # of connection points: 2
#     Edge 40, Type (0, 0), BuildingBlock: KIFKEQ_clean_linker_1, # of connection points: 2
#     Edge 41, Type (0, 0), BuildingBlock: KIFKEQ_clean_linker_1, # of connection points: 2
#     Edge 42, Type (0, 0), BuildingBlock: KIFKEQ_clean_linker_1, # of connection points: 2
#     Edge 43, Type (0, 0), BuildingBlock: KIFKEQ_clean_linker_1, # of connection points: 2
#     Edge 44, Type (0, 0), BuildingBlock: KIFKEQ_clean_linker_1, # of connection points: 2
#     Edge 45, Type (0, 0), BuildingBlock: KIFKEQ_clean_linker_1, # of connection points: 2
#     Edge 46, Type (0, 0), BuildingBlock: KIFKEQ_clean_linker_1, # of connection points: 2
#     Edge 47, Type (0, 0), BuildingBlock: KIFKEQ_clean_linker_1, # of connection points: 2
#     Edge 48, Type (0, 0), BuildingBlock: KIFKEQ_clean_linker_1, # of connection points: 2
#     Edge 49, Type (0, 0), BuildingBlock: KIFKEQ_clean_linker_1, # of connection points: 2
#     Edge 50, Type (0, 0), BuildingBlock: KIFKEQ_clean_linker_1, # of connection points: 2
#     Edge 51, Type (0, 0), BuildingBlock: KIFKEQ_clean_linker_1, # of connection points: 2
#     Edge 52, Type (0, 0), BuildingBlock: KIFKEQ_clean_linker_1, # of connection points: 2
#     Edge 53, Type (0, 0), BuildingBlock: KIFKEQ_clean_linker_1, # of connection points: 2
# Relax obj value: 0.094
# Max RMSD: 0.094
# Mean RMSD: 0.094
data_MOF--net-unb--node1-ICAMEG_clean_sbu_1--edge1-KIFKEQ_clean_linker_1
_symmetry_space_group_name_H-M    P1
_symmetry_Int_Tables_number       1
_symmetry_cell_setting            triclinic
loop_
_symmetry_equiv_pos_as_xyz
'x, y, z'
_cell_length_a     64.37098
_cell_length_b     64.32383
_cell_length_c     29.910604
_cell_angle_alpha  90.036454
_cell_angle_beta   90.015454
_cell_angle_gamma 120.01547
loop_
_atom_site_label
_atom_site_type_symbol
_atom_site_fract_x
_atom_site_fract_y
_atom_site_fract_z
_atom_type_partial_charge
Co0 Co 0.18118 0.30926 0.0805 0.0
Co1 Co 0.13018 0.25595 0.05195 0.0
O2 O 0.14756 0.28417 0.09085 0.0
C3 C 0.17982 0.29854 0.17903 0.0
O4 O 0.16424 0.27576 0.17221 0.0
C5 C 0.09372 0.27139 0.03818 0.0
O6 O 0.11008 0.29102 0.01842 0.0
O7 O 0.13945 0.27648 0.99764 0.0
O8 O 0.1757 0.30746 0.01494 0.0
H9 H 0.12023 0.20476 0.91763 0.0
H10 H 0.15027 0.31742 0.14315 0.0
O11 O 0.18813 0.31302 0.14626 0.0
H12 H 0.17639 0.38156 0.03037 0.0
H13 H 0.2568 0.38767 0.11127 0.0
H14 H 0.21868 0.31559 0.01553 0.0
H15 H 0.19006 0.35202 0.02638 0.0
H16 H 0.2147 0.35635 0.12357 0.0
O17 O 0.09957 0.25733 0.05739 0.0
H18 H 0.14172 0.23981 0.96732 0.0
H19 H 0.08145 0.21228 0.05403 0.0
H20 H 0.26076 0.34659 0.00181 0.0
H21 H 0.1364 0.34677 0.14877 0.0
H22 H 0.28011 0.38294 0.0499 0.0
H23 H 0.14942 0.37911 0.09203 0.0
O24 O 0.19176 0.28477 0.07564 0.0
H25 H 0.09786 0.23125 0.20753 0.0
H26 H 0.13269 0.21241 0.07759 0.0
H27 H 0.12212 0.18708 0.14504 0.0
H28 H 0.1045 0.19641 0.21058 0.0
H29 H 0.10898 0.25628 0.13954 0.0
H30 H 0.05925 0.17705 0.00505 0.0
H31 H 0.07868 0.17307 0.93637 0.0
O32 O 0.15959 0.25335 0.04479 0.0
C33 C 0.15874 0.29562 0.98736 0.0
C34 C 0.1116 0.20625 0.94754 0.0
C35 C 0.07737 0.19071 0.99657 0.0
N36 N 0.11294 0.22801 0.01374 0.0
C37 C 0.1237 0.22602 0.97588 0.0
C38 C 0.09002 0.21073 0.02414 0.0
C39 C 0.08828 0.18849 0.95805 0.0
C40 C 0.15615 0.33152 0.11848 0.0
N41 N 0.17101 0.333 0.08449 0.0
C42 C 0.14818 0.34806 0.12177 0.0
C43 C 0.15547 0.36618 0.08991 0.0
C44 C 0.17058 0.36755 0.05528 0.0
C45 C 0.17819 0.35069 0.05306 0.0
C46 C 0.24858 0.3719 0.09011 0.0
C47 C 0.22694 0.33138 0.03653 0.0
C48 C 0.22477 0.35405 0.09703 0.0
N49 N 0.21422 0.33413 0.07031 0.0
C50 C 0.25079 0.34887 0.02863 0.0
C51 C 0.26164 0.36925 0.05565 0.0
C52 C 0.18166 0.26433 0.0561 0.0
C53 C 0.10547 0.22697 0.17915 0.0
C54 C 0.12519 0.21668 0.10608 0.0
C55 C 0.11915 0.20222 0.14412 0.0
C56 C 0.10924 0.20744 0.18086 0.0
N57 N 0.12142 0.23577 0.10465 0.0
C58 C 0.11171 0.24101 0.14052 0.0
Co59 Co 0.74975 0.87196 0.04933 0.0
Co60 Co 0.69869 0.8732 0.07882 0.0
O61 O 0.72183 0.86203 0.08838 0.0
C62 C 0.73324 0.81975 0.03522 0.0
O63 O 0.71409 0.81697 0.01428 0.0
C64 C 0.70782 0.87868 0.17794 0.0
O65 O 0.73052 0.8856 0.1713 0.0
O66 O 0.725 0.90761 0.07933 0.0
O67 O 0.75358 0.90464 0.04195 0.0
H68 H 0.6681 0.92331 0.00675 0.0
H69 H 0.74913 0.85045 0.13708 0.0
O70 O 0.74728 0.83947 0.0551 0.0
H71 H 0.82022 0.93165 0.14086 0.0
H72 H 0.82705 0.87687 0.00106 0.0
H73 H 0.7661 0.89924 0.96438 0.0
H74 H 0.7944 0.91732 0.07395 0.0
H75 H 0.79236 0.86513 0.05068 0.0
O76 O 0.69369 0.87386 0.14489 0.0
H77 H 0.69663 0.90887 0.01881 0.0
H78 H 0.65154 0.86101 0.1195 0.0
H79 H 0.80065 0.91155 0.91407 0.0
H80 H 0.77465 0.86394 0.20455 0.0
H81 H 0.83143 0.90033 0.93227 0.0
H82 H 0.81044 0.90484 0.20674 0.0
O83 O 0.7287 0.86096 0.9957 0.0
H84 H 0.65394 0.78803 0.13397 0.0
H85 H 0.65729 0.84406 0.01794 0.0
H86 H 0.62545 0.80156 0.01475 0.0
H87 H 0.62358 0.77323 0.07315 0.0
H88 H 0.68564 0.83064 0.13564 0.0
H89 H 0.62262 0.87509 0.10875 0.0
H90 H 0.63077 0.90641 0.05193 0.0
O91 O 0.70193 0.87235 0.01274 0.0
C92 C 0.74448 0.91693 0.05681 0.0
C93 C 0.66432 0.90964 0.03158 0.0
C94 C 0.63882 0.8826 0.08886 0.0
N95 N 0.67577 0.88407 0.06976 0.0
C96 C 0.6804 0.90135 0.03852 0.0
C97 C 0.65532 0.87475 0.0949 0.0
C98 C 0.6434 0.90016 0.05695 0.0
C99 C 0.76481 0.86819 0.13769 0.0
N100 N 0.7703 0.88306 0.10164 0.0
C101 C 0.77913 0.87576 0.17602 0.0
C102 C 0.79919 0.89873 0.17725 0.0
C103 C 0.80467 0.91379 0.14032 0.0
C104 C 0.78992 0.90561 0.10259 0.0
C105 C 0.81379 0.8819 0.99281 0.0
C106 C 0.77949 0.89442 0.9727 0.0
C107 C 0.79407 0.87527 0.02074 0.0
N108 N 0.77729 0.88164 0.01062 0.0
C109 C 0.79899 0.90139 0.94401 0.0
C110 C 0.81623 0.89507 0.95422 0.0
C111 C 0.71164 0.86465 0.98525 0.0
C112 C 0.65452 0.80022 0.10841 0.0
C113 C 0.65667 0.83184 0.04341 0.0
C114 C 0.63855 0.8078 0.04147 0.0
C115 C 0.63751 0.79192 0.07425 0.0
N116 N 0.67323 0.83988 0.07715 0.0
C117 C 0.67238 0.82439 0.10928 0.0
Co118 Co 0.13422 0.8792 0.04594 0.0
Co119 Co 0.13272 0.82736 0.08178 0.0
O120 O 0.14373 0.86193 0.08788 0.0
C121 C 0.1864 0.91501 0.03084 0.0
O122 O 0.18911 0.8987 0.00949 0.0
C123 C 0.13245 0.83618 0.18167 0.0
O124 O 0.13565 0.85769 0.17443 0.0
O125 O 0.09836 0.8192 0.07835 0.0
O126 O 0.1016 0.85034 0.039 0.0
H127 H 0.08432 0.7455 0.01273 0.0
H128 H 0.15552 0.90315 0.13216 0.0
O129 O 0.16677 0.90926 0.05108 0.0
H130 H 0.07397 0.89203 0.1308 0.0
H131 H 0.13011 0.95075 0.98901 0.0
H132 H 0.10762 0.86658 0.95996 0.0
H133 H 0.08859 0.87861 0.06707 0.0
H134 H 0.14133 0.92875 0.04217 0.0
O135 O 0.13007 0.82243 0.14892 0.0
H136 H 0.09869 0.78873 0.0212 0.0
H137 H 0.14333 0.79289 0.12952 0.0
H138 H 0.09585 0.88786 0.90614 0.0
H139 H 0.14177 0.9172 0.19634 0.0
H140 H 0.10712 0.93026 0.9205 0.0
H141 H 0.10067 0.91157 0.196 0.0
O142 O 0.14535 0.86783 0.99458 0.0
H143 H 0.21736 0.86965 0.14099 0.0
H144 H 0.16241 0.8129 0.02807 0.0
H145 H 0.20471 0.82298 0.02907 0.0
H146 H 0.2325 0.85144 0.08599 0.0
H147 H 0.17507 0.85934 0.13847 0.0
H148 H 0.12927 0.74966 0.12244 0.0
H149 H 0.09962 0.72568 0.0636 0.0
O150 O 0.13526 0.83039 0.01513 0.0
C151 C 0.08924 0.82909 0.05442 0.0
C152 C 0.09728 0.75577 0.03844 0.0
C153 C 0.12248 0.7581 0.10005 0.0
N154 N 0.12192 0.79338 0.07567 0.0
C155 C 0.10553 0.78028 0.04334 0.0
C156 C 0.13032 0.78257 0.10399 0.0
C157 C 0.10586 0.74466 0.06701 0.0
C158 C 0.13768 0.9008 0.13163 0.0
N159 N 0.12285 0.88996 0.09601 0.0
C160 C 0.12996 0.90872 0.16813 0.0
C161 C 0.10689 0.90552 0.16795 0.0
C162 C 0.09189 0.89452 0.13141 0.0
C163 C 0.10022 0.88682 0.09553 0.0
C164 C 0.12505 0.93226 0.98243 0.0
C165 C 0.11248 0.88498 0.96661 0.0
C166 C 0.13139 0.91971 0.01237 0.0
N167 N 0.12499 0.89633 0.00437 0.0
C168 C 0.10581 0.89696 0.93594 0.0
C169 C 0.11215 0.92076 0.944 0.0
C170 C 0.14246 0.84713 0.98618 0.0
C171 C 0.20538 0.85706 0.11626 0.0
C172 C 0.17434 0.82528 0.05304 0.0
C173 C 0.1983 0.83091 0.05341 0.0
C174 C 0.21388 0.84689 0.08534 0.0
N175 N 0.16603 0.8351 0.08383 0.0
C176 C 0.1813 0.851 0.11487 0.0
Co177 Co 0.26283 0.12856 0.95139 0.0
Co178 Co 0.31552 0.18027 0.92276 0.0
O179 O 0.29076 0.1465 0.91218 0.0
C180 C 0.27793 0.09178 0.96566 0.0
O181 O 0.29685 0.10757 0.988 0.0
C182 C 0.304 0.17887 0.82459 0.0
O183 O 0.28147 0.16268 0.83168 0.0
O184 O 0.29064 0.19028 0.92923 0.0
O185 O 0.25962 0.15757 0.95949 0.0
H186 H 0.35232 0.25944 0.00326 0.0
H187 H 0.26312 0.10783 0.86319 0.0
O188 O 0.26474 0.09823 0.94487 0.0
H189 H 0.19299 0.11945 0.86011 0.0
H190 H 0.18487 0.05655 0.99848 0.0
H191 H 0.24677 0.13934 0.03689 0.0
H192 H 0.2187 0.13024 0.9271 0.0
H193 H 0.2197 0.07943 0.94911 0.0
O194 O 0.31862 0.18754 0.85713 0.0
H195 H 0.32174 0.21721 0.98911 0.0
H196 H 0.36197 0.21465 0.87884 0.0
H197 H 0.2121 0.11718 0.08697 0.0
H198 H 0.23771 0.0965 0.79564 0.0
H199 H 0.18084 0.07546 0.06789 0.0
H200 H 0.2024 0.10238 0.7938 0.0
O201 O 0.28367 0.13805 0.00534 0.0
H202 H 0.35356 0.13686 0.85079 0.0
H203 H 0.35909 0.18983 0.9749 0.0
H204 H 0.38912 0.17691 0.96884 0.0
H205 H 0.38653 0.15029 0.90629 0.0
H206 H 0.32372 0.14997 0.85851 0.0
H207 H 0.39286 0.25691 0.89154 0.0
H208 H 0.38819 0.27957 0.95424 0.0
O209 O 0.3144 0.17447 0.98817 0.0
C210 C 0.27023 0.17971 0.94878 0.0
C211 C 0.35457 0.24975 0.97585 0.0
C212 C 0.3773 0.24834 0.9131 0.0
N213 N 0.34005 0.21344 0.9332 0.0
C214 C 0.33733 0.22582 0.96771 0.0
C215 C 0.35969 0.22443 0.90596 0.0
C216 C 0.37468 0.26104 0.94832 0.0
C217 C 0.24764 0.11022 0.86274 0.0
N218 N 0.24236 0.11963 0.89903 0.0
C219 C 0.23339 0.10387 0.82436 0.0
C220 C 0.2136 0.10721 0.82333 0.0
C221 C 0.20833 0.11682 0.8605 0.0
C222 C 0.22301 0.12298 0.89828 0.0
C223 C 0.19834 0.07474 0.00711 0.0
C224 C 0.23318 0.12125 0.02819 0.0
C225 C 0.21814 0.08777 0.97932 0.0
N226 N 0.23519 0.11078 0.98992 0.0
C227 C 0.21361 0.10877 0.05675 0.0
C228 C 0.19609 0.08536 0.04605 0.0
C229 C 0.30283 0.15737 0.01556 0.0
C230 C 0.3549 0.14848 0.87817 0.0
C231 C 0.35769 0.17808 0.94787 0.0
C232 C 0.37483 0.17091 0.94446 0.0
C233 C 0.37338 0.156 0.90934 0.0
N234 N 0.33963 0.17069 0.91713 0.0
C235 C 0.33808 0.15602 0.88266 0.0
Co236 Co 0.88116 0.13357 0.95076 0.0
Co237 Co 0.82941 0.13456 0.92223 0.0
O238 O 0.86323 0.14376 0.91188 0.0
C239 C 0.91755 0.1854 0.96705 0.0
O240 O 0.90153 0.18817 0.98929 0.0
C241 C 0.83081 0.1248 0.82372 0.0
O242 O 0.84704 0.11847 0.83046 0.0
O243 O 0.81951 0.09966 0.92814 0.0
O244 O 0.85229 0.10117 0.95764 0.0
H245 H 0.75018 0.09156 0.00198 0.0
H246 H 0.90205 0.15557 0.8633 0.0
O247 O 0.91137 0.16601 0.94548 0.0
H248 H 0.89123 0.07412 0.85705 0.0
H249 H 0.95326 0.12773 0.99754 0.0
H250 H 0.87015 0.10574 0.0351 0.0
H251 H 0.88006 0.08821 0.9247 0.0
H252 H 0.93043 0.14001 0.94871 0.0
O253 O 0.82222 0.13066 0.85651 0.0
H254 H 0.79244 0.10342 0.98803 0.0
H255 H 0.79503 0.14675 0.87865 0.0
H256 H 0.89226 0.0929 0.08462 0.0
H257 H 0.91375 0.14233 0.79512 0.0
H258 H 0.93413 0.10391 0.06597 0.0
H259 H 0.90827 0.1013 0.79168 0.0
O260 O 0.8713 0.14422 0.00524 0.0
H261 H 0.8726 0.21636 0.85158 0.0
H262 H 0.81967 0.16828 0.97502 0.0
H263 H 0.83242 0.21125 0.96966 0.0
H264 H 0.85902 0.2356 0.90744 0.0
H265 H 0.85965 0.17338 0.8586 0.0
H266 H 0.75274 0.13516 0.89116 0.0
H267 H 0.73004 0.10745 0.95332 0.0
O268 O 0.83509 0.13894 0.98766 0.0
C269 C 0.83015 0.08969 0.94701 0.0
C270 C 0.75988 0.10366 0.97481 0.0
C271 C 0.76131 0.1281 0.91257 0.0
N272 N 0.79622 0.12576 0.93255 0.0
C273 C 0.78383 0.11047 0.96677 0.0
C274 C 0.78523 0.13451 0.90552 0.0
C275 C 0.74859 0.11257 0.94747 0.0
C276 C 0.89983 0.13778 0.86216 0.0
N277 N 0.89044 0.1227 0.89793 0.0
C278 C 0.90639 0.13034 0.82342 0.0
C279 C 0.90328 0.10731 0.82149 0.0
C280 C 0.89369 0.09203 0.85814 0.0
C281 C 0.88731 0.10007 0.89629 0.0
C282 C 0.935 0.12278 0.00599 0.0
C283 C 0.88831 0.11049 0.02659 0.0
C284 C 0.922 0.12973 0.9785 0.0
N285 N 0.89891 0.12347 0.98887 0.0
C286 C 0.90076 0.10321 0.05483 0.0
C287 C 0.92426 0.10942 0.04437 0.0
C288 C 0.85198 0.14406 0.01537 0.0
C289 C 0.86099 0.20594 0.87881 0.0
C290 C 0.83141 0.17876 0.94814 0.0
C291 C 0.83849 0.20309 0.94513 0.0
C292 C 0.85339 0.21673 0.91019 0.0
N293 N 0.83889 0.16827 0.91719 0.0
C294 C 0.85354 0.18156 0.8829 0.0
Co295 Co 0.87197 0.6944 0.92204 0.0
Co296 Co 0.87232 0.74687 0.94976 0.0
O297 O 0.86209 0.71848 0.91159 0.0
C298 C 0.88064 0.7047 0.82329 0.0
O299 O 0.88767 0.72746 0.82983 0.0
C300 C 0.82042 0.7307 0.96658 0.0
O301 O 0.81808 0.71211 0.98898 0.0
O302 O 0.8623 0.72676 0.00477 0.0
O303 O 0.86872 0.6965 0.9876 0.0
H304 H 0.91371 0.79998 0.08192 0.0
H305 H 0.83193 0.68425 0.86032 0.0
O306 O 0.87478 0.69038 0.85626 0.0
H307 H 0.79682 0.62078 0.97487 0.0
H308 H 0.87216 0.61733 0.89243 0.0
H309 H 0.90458 0.68997 0.98643 0.0
H310 H 0.83967 0.65155 0.97754 0.0
H311 H 0.85976 0.64744 0.87992 0.0
O312 O 0.8397 0.74417 0.94501 0.0
H313 H 0.90082 0.76465 0.03326 0.0
H314 H 0.86522 0.78932 0.94712 0.0
H315 H 0.91729 0.6602 1.00035 0.0
H316 H 0.78904 0.65364 0.856 0.0
H317 H 0.90106 0.62356 0.95313 0.0
H318 H 0.77119 0.62163 0.91363 0.0
O319 O 0.90676 0.71987 0.92584 0.0
H320 H 0.86201 0.76902 0.79369 0.0
H321 H 0.9171 0.79132 0.92225 0.0
H322 H 0.93041 0.816 0.85387 0.0
H323 H 0.90275 0.80493 0.789 0.0
H324 H 0.84955 0.74468 0.86259 0.0
H325 H 0.87753 0.82478 0.9951 0.0
H326 H 0.90204 0.83034 0.06296 0.0
O327 O 0.90494 0.75086 0.95603 0.0
C328 C 0.86333 0.70809 0.01523 0.0
C329 C 0.90309 0.79779 0.05237 0.0
C330 C 0.88277 0.8117 0.00367 0.0
N331 N 0.88242 0.77498 0.9872 0.0
C332 C 0.89579 0.77785 0.02462 0.0
C333 C 0.8758 0.79154 0.97668 0.0
C334 C 0.89652 0.81481 0.04174 0.0
C335 C 0.82435 0.67031 0.88538 0.0
N336 N 0.83835 0.66971 0.91913 0.0
C337 C 0.80003 0.65305 0.88282 0.0
C338 C 0.79002 0.63512 0.91519 0.0
C339 C 0.80438 0.63464 0.94957 0.0
C340 C 0.82863 0.65219 0.95105 0.0
C341 C 0.87938 0.63323 0.91319 0.0
C342 C 0.89739 0.67405 0.96579 0.0
C343 C 0.87251 0.65041 0.90613 0.0
N344 N 0.88145 0.67049 0.93237 0.0
C345 C 0.90468 0.65727 0.97381 0.0
C346 C 0.89558 0.63673 0.94728 0.0
C347 C 0.9166 0.74049 0.94471 0.0
C348 C 0.87421 0.77406 0.82176 0.0
C349 C 0.90502 0.78629 0.89407 0.0
C350 C 0.91262 0.80039 0.8555 0.0
C351 C 0.89708 0.79418 0.81913 0.0
N352 N 0.88256 0.7666 0.89639 0.0
C353 C 0.86722 0.76041 0.8609 0.0
Co354 Co 0.84678 0.64385 0.41466 0.0
Co355 Co 0.80205 0.58933 0.37483 0.0
O356 O 0.81488 0.61486 0.42047 0.0
C357 C 0.84327 0.63115 0.5134 0.0
O358 O 0.82584 0.6091 0.50648 0.0
C359 C 0.76052 0.59798 0.37609 0.0
O360 O 0.77545 0.62092 0.36914 0.0
O361 O 0.80777 0.61296 0.327 0.0
O362 O 0.84255 0.64459 0.34875 0.0
H363 H 0.80198 0.55264 0.22638 0.0
H364 H 0.81013 0.64236 0.47685 0.0
O365 O 0.85285 0.64554 0.48079 0.0
H366 H 0.83057 0.71082 0.37685 0.0
H367 H 0.91398 0.72597 0.45801 0.0
H368 H 0.88721 0.65887 0.35133 0.0
H369 H 0.85059 0.68692 0.36868 0.0
H370 H 0.87392 0.69003 0.46516 0.0
O371 O 0.76859 0.58375 0.38317 0.0
H372 H 0.81783 0.5841 0.28441 0.0
H373 H 0.75858 0.54059 0.36847 0.0
H374 H 0.92731 0.69461 0.34268 0.0
H375 H 0.7899 0.66597 0.48665 0.0
H376 H 0.94095 0.72848 0.39629 0.0
H377 H 0.80002 0.70046 0.43634 0.0
O378 O 0.86218 0.62361 0.40642 0.0
H379 H 0.77081 0.54931 0.52325 0.0
H380 H 0.8143 0.55057 0.38664 0.0
H381 H 0.80776 0.52145 0.44625 0.0
H382 H 0.78579 0.52064 0.5151 0.0
H383 H 0.77806 0.57839 0.46303 0.0
H384 H 0.74195 0.50876 0.31117 0.0
H385 H 0.76375 0.51463 0.23956 0.0
O386 O 0.83467 0.5937 0.36391 0.0
C387 C 0.82609 0.63347 0.31989 0.0
C388 C 0.79235 0.54982 0.2575 0.0
C389 C 0.75865 0.52521 0.30506 0.0
N390 N 0.78927 0.56413 0.32996 0.0
C391 C 0.80129 0.56755 0.29056 0.0
C392 C 0.76813 0.54333 0.33735 0.0
C393 C 0.77089 0.52852 0.2649 0.0
C394 C 0.81484 0.65746 0.45509 0.0
N395 N 0.83167 0.66329 0.42235 0.0
C396 C 0.80323 0.67072 0.46069 0.0
C397 C 0.80889 0.69004 0.43241 0.0
C398 C 0.82601 0.69585 0.39901 0.0
C399 C 0.83723 0.68218 0.39441 0.0
C400 C 0.90825 0.71133 0.43445 0.0
C401 C 0.89297 0.67356 0.37472 0.0
C402 C 0.88562 0.69087 0.43844 0.0
N403 N 0.8782 0.67234 0.40867 0.0
C404 C 0.91572 0.69374 0.36968 0.0
C405 C 0.92336 0.71273 0.39979 0.0
C406 C 0.85578 0.60576 0.38008 0.0
C407 C 0.78037 0.54946 0.49339 0.0
C408 C 0.80492 0.55049 0.41668 0.0
C409 C 0.80117 0.53388 0.45022 0.0
C410 C 0.78882 0.53341 0.48882 0.0
N411 N 0.79659 0.56619 0.42143 0.0
C412 C 0.78444 0.56582 0.45913 0.0
Co413 Co 0.41656 0.20519 0.3837 0.0
Co414 Co 0.36319 0.20173 0.4155 0.0
O415 O 0.38937 0.19462 0.42515 0.0
C416 C 0.40345 0.15341 0.37623 0.0
O417 O 0.38242 0.14786 0.35953 0.0
C418 C 0.37547 0.21302 0.51346 0.0
O419 O 0.39797 0.21926 0.50633 0.0
O420 O 0.38662 0.23694 0.40708 0.0
O421 O 0.41739 0.23617 0.3737 0.0
H422 H 0.32164 0.23943 0.33552 0.0
H423 H 0.41998 0.18724 0.47285 0.0
O424 O 0.41724 0.17441 0.39187 0.0
H425 H 0.48654 0.271 0.46745 0.0
H426 H 0.49595 0.21626 0.33182 0.0
H427 H 0.42871 0.22947 0.29546 0.0
H428 H 0.45948 0.25311 0.4029 0.0
H429 H 0.46214 0.20355 0.38413 0.0
O430 O 0.36072 0.20663 0.48108 0.0
H431 H 0.35397 0.23018 0.34868 0.0
H432 H 0.3168 0.18784 0.4616 0.0
H433 H 0.46229 0.24272 0.24241 0.0
H434 H 0.44685 0.20431 0.53801 0.0
H435 H 0.49622 0.2361 0.26043 0.0
H436 H 0.48036 0.24652 0.5356 0.0
O437 O 0.39448 0.19117 0.33176 0.0
H438 H 0.33037 0.12156 0.49094 0.0
H439 H 0.31938 0.16537 0.36662 0.0
H440 H 0.29125 0.12202 0.37505 0.0
H441 H 0.2966 0.0998 0.43773 0.0
H442 H 0.35827 0.16487 0.48083 0.0
H443 H 0.2842 0.19684 0.4499 0.0
H444 H 0.28644 0.22273 0.38636 0.0
O445 O 0.36357 0.19631 0.35018 0.0
C446 C 0.40639 0.24714 0.38538 0.0
C447 C 0.32044 0.22811 0.3633 0.0
C448 C 0.29945 0.20424 0.42754 0.0
N449 N 0.3373 0.20848 0.40587 0.0
C450 C 0.33868 0.22278 0.37089 0.0
C451 C 0.31803 0.1993 0.43411 0.0
C452 C 0.30071 0.21875 0.39186 0.0
C453 C 0.43467 0.20555 0.47144 0.0
N454 N 0.43816 0.21915 0.43413 0.0
C455 C 0.44976 0.21515 0.50848 0.0
C456 C 0.46853 0.23884 0.50713 0.0
C457 C 0.47199 0.2526 0.46894 0.0
C458 C 0.45653 0.24241 0.43255 0.0
C459 C 0.48127 0.21925 0.32358 0.0
C460 C 0.44344 0.22661 0.30365 0.0
C461 C 0.46202 0.212 0.35301 0.0
N462 N 0.44345 0.21576 0.34292 0.0
C463 C 0.4624 0.23412 0.27343 0.0
C464 C 0.48142 0.23038 0.28355 0.0
C465 C 0.37489 0.19064 0.32244 0.0
C466 C 0.32784 0.13104 0.46351 0.0
C467 C 0.32199 0.15583 0.39364 0.0
C468 C 0.30592 0.13128 0.39843 0.0
C469 C 0.30891 0.11884 0.43362 0.0
N470 N 0.3405 0.1677 0.42311 0.0
C471 C 0.34355 0.1556 0.45767 0.0
Co472 Co 0.80102 0.20822 0.38121 0.0
Co473 Co 0.8046 0.15864 0.41487 0.0
O474 O 0.81137 0.19191 0.42394 0.0
C475 C 0.85232 0.24812 0.37459 0.0
O476 O 0.85849 0.2334 0.35648 0.0
C477 C 0.79404 0.16048 0.51311 0.0
O478 O 0.78878 0.17746 0.50613 0.0
O479 O 0.7694 0.14664 0.40582 0.0
O480 O 0.77052 0.17772 0.36982 0.0
H481 H 0.76762 0.07906 0.33578 0.0
H482 H 0.8172 0.22985 0.47087 0.0
O483 O 0.83131 0.24004 0.39079 0.0
H484 H 0.73305 0.2108 0.45947 0.0
H485 H 0.78948 0.2758 0.32623 0.0
H486 H 0.7783 0.19588 0.2915 0.0
H487 H 0.75239 0.20205 0.39683 0.0
H488 H 0.80182 0.25507 0.38018 0.0
O489 O 0.79952 0.15141 0.48055 0.0
H490 H 0.77653 0.12062 0.34824 0.0
H491 H 0.81869 0.12652 0.46198 0.0
H492 H 0.76547 0.21587 0.23678 0.0
H493 H 0.79866 0.23925 0.53414 0.0
H494 H 0.77106 0.25614 0.25398 0.0
H495 H 0.75625 0.22962 0.52869 0.0
O496 O 0.81611 0.2005 0.33075 0.0
H497 H 0.88449 0.20684 0.49097 0.0
H498 H 0.84124 0.15123 0.36714 0.0
H499 H 0.88457 0.16672 0.37629 0.0
H500 H 0.90651 0.19468 0.43873 0.0
H501 H 0.84121 0.19116 0.48015 0.0
H502 H 0.81002 0.08495 0.451 0.0
H503 H 0.7844 0.06095 0.38741 0.0
O504 O 0.81023 0.1642 0.34944 0.0
C505 C 0.75944 0.15586 0.38233 0.0
C506 C 0.77882 0.08934 0.3636 0.0
C507 C 0.80259 0.09263 0.4283 0.0
N508 N 0.79812 0.12602 0.4058 0.0
C509 C 0.78396 0.11291 0.37079 0.0
C510 C 0.80734 0.11614 0.43447 0.0
C511 C 0.78823 0.07918 0.39259 0.0
C512 C 0.79881 0.22583 0.46814 0.0
N513 N 0.78591 0.21543 0.43023 0.0
C514 C 0.78838 0.23109 0.50412 0.0
C515 C 0.76457 0.22564 0.50107 0.0
C516 C 0.75153 0.21505 0.46226 0.0
C517 C 0.76255 0.21003 0.42698 0.0
C518 C 0.78693 0.25825 0.31835 0.0
C519 C 0.7807 0.21335 0.29934 0.0
C520 C 0.79396 0.24644 0.34873 0.0
N521 N 0.79073 0.22424 0.3391 0.0
C522 C 0.77344 0.2246 0.26818 0.0
C523 C 0.77659 0.2472 0.27783 0.0
C524 C 0.81651 0.18134 0.32177 0.0
C525 C 0.87513 0.19464 0.46367 0.0
C526 C 0.85065 0.16354 0.39408 0.0
C527 C 0.87519 0.17218 0.39926 0.0
C528 C 0.88748 0.18784 0.43432 0.0
N529 N 0.83863 0.17024 0.42304 0.0
C530 C 0.85059 0.18563 0.45744 0.0
Co531 Co 0.92585 0.46532 0.29295 0.0
Co532 Co 0.98088 0.51058 0.25727 0.0
O533 O 0.95229 0.47859 0.24934 0.0
C534 C 0.9348 0.424 0.29281 0.0
O535 O 0.95757 0.43906 0.30098 0.0
C536 C 0.96935 0.50944 0.15874 0.0
O537 O 0.94633 0.49515 0.16577 0.0
O538 O 0.96024 0.52567 0.26285 0.0
O539 O 0.92988 0.49786 0.30397 0.0
H540 H 0.02934 0.59102 0.33141 0.0
H541 H 0.91713 0.44239 0.20392 0.0
O542 O 0.92058 0.43194 0.2845 0.0
H543 H 0.85943 0.47135 0.21607 0.0
H544 H 0.84414 0.4045 0.35064 0.0
H545 H 0.91872 0.48027 0.38281 0.0
H546 H 0.88715 0.47733 0.27808 0.0
H547 H 0.87713 0.4217 0.29576 0.0
O548 O 0.98407 0.51667 0.19123 0.0
H549 H 0.99404 0.55079 0.32051 0.0
H550 H 0.02819 0.53815 0.21082 0.0
H551 H 0.8861 0.46385 0.43845 0.0
H552 H 0.88949 0.43572 0.14128 0.0
H553 H 0.84847 0.42567 0.42252 0.0
H554 H 0.86044 0.45033 0.14711 0.0
O555 O 0.94852 0.47071 0.34247 0.0
H556 H 0.00568 0.45501 0.18863 0.0
H557 H 0.02252 0.51406 0.30834 0.0
H558 H 0.04678 0.49428 0.30323 0.0
H559 H 0.03847 0.46454 0.24292 0.0
H560 H 0.98166 0.47502 0.19536 0.0
H561 H 0.06373 0.57832 0.22027 0.0
H562 H 0.06451 0.60503 0.28105 0.0
O563 O 0.98002 0.50614 0.32335 0.0
C564 C 0.94202 0.51906 0.28822 0.0
C565 C 0.02922 0.57954 0.30483 0.0
C566 C 0.04851 0.57242 0.24241 0.0
N567 N 0.00903 0.5421 0.2651 0.0
C568 C 0.0093 0.55672 0.29852 0.0
C569 C 0.02828 0.54972 0.23711 0.0
C570 C 0.04894 0.58739 0.27654 0.0
C571 C 0.90438 0.44859 0.20681 0.0
N572 N 0.90372 0.46019 0.24458 0.0
C573 C 0.88884 0.44486 0.17119 0.0
C574 C 0.87257 0.45309 0.17446 0.0
C575 C 0.87202 0.46491 0.21312 0.0
C576 C 0.88783 0.46834 0.24804 0.0
C577 C 0.86043 0.42117 0.35793 0.0
C578 C 0.90234 0.46376 0.37548 0.0
C579 C 0.87919 0.43098 0.32702 0.0
N580 N 0.89977 0.45209 0.3359 0.0
C581 C 0.88396 0.4545 0.40718 0.0
C582 C 0.86286 0.43306 0.39824 0.0
C583 C 0.96865 0.4892 0.3512 0.0
C584 C 0.0095 0.46796 0.21502 0.0
C585 C 0.01866 0.50104 0.28224 0.0
C586 C 0.03253 0.48995 0.27938 0.0
C587 C 0.02787 0.47329 0.24552 0.0
N588 N 1.00068 0.49574 0.25219 0.0
C589 C 0.99601 0.47941 0.21892 0.0
Co590 Co 0.54521 0.46347 0.28677 0.0
Co591 Co 0.49487 0.46503 0.25387 0.0
O592 O 0.52877 0.47407 0.24503 0.0
C593 C 0.58453 0.51499 0.2961 0.0
O594 O 0.56964 0.52054 0.31546 0.0
C595 C 0.49849 0.4586 0.15475 0.0
O596 O 0.51446 0.45195 0.16157 0.0
O597 O 0.48483 0.43009 0.25559 0.0
O598 O 0.51494 0.43223 0.29666 0.0
H599 H 0.41363 0.41974 0.32609 0.0
H600 H 0.56678 0.48112 0.19767 0.0
O601 O 0.57671 0.49428 0.27855 0.0
H602 H 0.55026 0.39761 0.20505 0.0
H603 H 0.61355 0.45303 0.3411 0.0
H604 H 0.53266 0.43926 0.37505 0.0
H605 H 0.54065 0.41562 0.26881 0.0
H606 H 0.59263 0.46552 0.28788 0.0
O607 O 0.48922 0.46358 0.18765 0.0
H608 H 0.45607 0.43162 0.31477 0.0
H609 H 0.46194 0.47932 0.21096 0.0
H610 H 0.55282 0.42623 0.42899 0.0
H611 H 0.57702 0.46393 0.13329 0.0
H612 H 0.59359 0.43314 0.41219 0.0
H613 H 0.56867 0.42185 0.13671 0.0
O614 O 0.53675 0.47765 0.33776 0.0
H615 H 0.53967 0.54929 0.19418 0.0
H616 H 0.48482 0.49686 0.31175 0.0
H617 H 0.49791 0.54002 0.31212 0.0
H618 H 0.52547 0.56654 0.25293 0.0
H619 H 0.52632 0.50606 0.19532 0.0
H620 H 0.4195 0.46779 0.22094 0.0
H621 H 0.39505 0.43786 0.27897 0.0
O622 O 0.49882 0.46674 0.32009 0.0
C623 C 0.49377 0.42042 0.28056 0.0
C624 C 0.4241 0.43283 0.30074 0.0
C625 C 0.42739 0.45977 0.24169 0.0
N626 N 0.46153 0.45619 0.26231 0.0
C627 C 0.44816 0.43966 0.29421 0.0
C628 C 0.4514 0.46616 0.23609 0.0
C629 C 0.41368 0.44299 0.27427 0.0
C630 C 0.5633 0.46286 0.19951 0.0
N631 N 0.55313 0.4494 0.23692 0.0
C632 C 0.56904 0.4532 0.16291 0.0
C633 C 0.56431 0.42957 0.16482 0.0
C634 C 0.55395 0.41595 0.20313 0.0
C635 C 0.54844 0.42621 0.23906 0.0
C636 C 0.59579 0.44992 0.3488 0.0
C637 C 0.55035 0.44224 0.36738 0.0
C638 C 0.58388 0.45703 0.31885 0.0
N639 N 0.56141 0.45309 0.32826 0.0
C640 C 0.5617 0.43486 0.3981 0.0
C641 C 0.58457 0.43875 0.38867 0.0
C642 C 0.51628 0.47492 0.34753 0.0
C643 C 0.52759 0.5379 0.22006 0.0
C644 C 0.49687 0.50828 0.28594 0.0
C645 C 0.50419 0.53271 0.28629 0.0
C646 C 0.51964 0.54758 0.25306 0.0
N647 N 0.50466 0.49889 0.25332 0.0
C648 C 0.51991 0.51339 0.22078 0.0
Co649 Co 0.5398 0.028 0.25205 0.0
Co650 Co 0.54533 0.08266 0.28007 0.0
O651 O 0.53333 0.05447 0.24078 0.0
C652 C 0.55031 0.03819 0.15372 0.0
O653 O 0.5593 0.06129 0.16051 0.0
C654 C 0.49373 0.0696 0.28612 0.0
O655 O 0.48809 0.048 0.29974 0.0
O656 O 0.53148 0.06184 0.33354 0.0
O657 O 0.53627 0.03043 0.31759 0.0
H658 H 0.58592 0.13104 0.41753 0.0
H659 H 0.50174 0.02198 0.1887 0.0
O660 O 0.54274 0.02362 0.18643 0.0
H661 H 0.46037 0.95904 0.30253 0.0
H662 H 0.53169 0.94705 0.2232 0.0
H663 H 0.56922 0.01955 0.31792 0.0
H664 H 0.50406 0.98646 0.30658 0.0
H665 H 0.52358 0.98014 0.20982 0.0
O666 O 0.51498 0.08413 0.27262 0.0
H667 H 0.5709 0.09612 0.36705 0.0
H668 H 0.54529 0.12905 0.2765 0.0
H669 H 0.57764 0.98678 0.33272 0.0
H670 H 0.45805 0.99475 0.18303 0.0
H671 H 0.55883 0.9502 0.28516 0.0
H672 H 0.43705 0.96304 0.2403 0.0
O673 O 0.57529 0.0509 0.25707 0.0
H674 H 0.54318 0.10972 0.12359 0.0
H675 H 0.59351 0.12421 0.25724 0.0
H676 H 0.61104 0.14951 0.19047 0.0
H677 H 0.58578 0.14238 0.12305 0.0
H678 H 0.52648 0.08463 0.19099 0.0
H679 H 0.5598 0.1642 0.32621 0.0
H680 H 0.58037 0.16539 0.39724 0.0
O681 O 0.57593 0.08262 0.28956 0.0
C682 C 0.53102 0.04247 0.34444 0.0
C683 C 0.57701 0.13075 0.38664 0.0
C684 C 0.56233 0.14935 0.33542 0.0
N685 N 0.55727 0.11055 0.3188 0.0
C686 C 0.5685 0.11104 0.35788 0.0
C687 C 0.55407 0.12935 0.30747 0.0
C688 C 0.57388 0.15001 0.37526 0.0
C689 C 0.49278 0.00813 0.2136 0.0
N690 N 0.50549 0.00583 0.24792 0.0
C691 C 0.46801 0.9928 0.21028 0.0
C692 C 0.45624 0.97503 0.24244 0.0
C693 C 0.46931 0.9728 0.27738 0.0
C694 C 0.49405 0.98846 0.27963 0.0
C695 C 0.54001 0.9629 0.24414 0.0
C696 C 0.5609 0.00367 0.29714 0.0
C697 C 0.53556 0.98175 0.2366 0.0
N698 N 0.54591 1.00178 0.26306 0.0
C699 C 0.56577 0.98518 0.30565 0.0
C700 C 0.55522 0.96467 0.27893 0.0
C701 C 0.58624 0.07094 0.27788 0.0
C702 C 0.55435 0.11303 0.15279 0.0
C703 C 0.58246 0.12086 0.22794 0.0
C704 C 0.59246 0.13532 0.19028 0.0
C705 C 0.57827 0.13133 0.15249 0.0
N706 N 0.55899 0.10297 0.22798 0.0
C707 C 0.54497 0.09895 0.19108 0.0
Co708 Co 0.51311 0.97968 0.74448 0.0
Co709 Co 0.46904 0.9251 0.70343 0.0
O710 O 0.48154 0.95015 0.75008 0.0
C711 C 0.51027 0.96621 0.84276 0.0
O712 O 0.49253 0.94432 0.8357 0.0
C713 C 0.42713 0.93285 0.71045 0.0
O714 O 0.4417 0.95617 0.71104 0.0
O715 O 0.47386 0.94906 0.65701 0.0
O716 O 0.50841 0.98096 0.6788 0.0
H717 H 0.46965 0.89083 0.5527 0.0
H718 H 0.47659 0.97686 0.8087 0.0
O719 O 0.51968 0.98081 0.81037 0.0
H720 H 0.49476 0.04567 0.71126 0.0
H721 H 0.57931 0.06196 0.78968 0.0
H722 H 0.55325 0.9963 0.67995 0.0
H723 H 0.5154 0.02251 0.70048 0.0
H724 H 0.53973 0.02537 0.79661 0.0
O725 O 0.43536 0.91851 0.71197 0.0
H726 H 0.48496 0.92154 0.61212 0.0
H727 H 0.42627 0.87593 0.6956 0.0
H728 H 0.59287 0.03271 0.67152 0.0
H729 H 0.45577 0.99972 0.82111 0.0
H730 H 0.60615 0.06586 0.72666 0.0
H731 H 0.46475 0.03438 0.7721 0.0
O732 O 0.52924 0.96027 0.73426 0.0
H733 H 0.43894 0.88317 0.85063 0.0
H734 H 0.48255 0.88709 0.71248 0.0
H735 H 0.47694 0.85759 0.77067 0.0
H736 H 0.45492 0.85544 0.8403 0.0
H737 H 0.44527 0.91265 0.79174 0.0
H738 H 0.41021 0.84481 0.63694 0.0
H739 H 0.43199 0.85213 0.56492 0.0
O740 O 0.5019 0.93042 0.69155 0.0
C741 C 0.49183 0.96982 0.65014 0.0
C742 C 0.46005 0.88737 0.58402 0.0
C743 C 0.42668 0.86156 0.63127 0.0
N744 N 0.45671 0.90044 0.65751 0.0
C745 C 0.46869 0.90466 0.61786 0.0
C746 C 0.43587 0.87926 0.66437 0.0
C747 C 0.43891 0.86568 0.59088 0.0
C748 C 0.48084 0.99206 0.78755 0.0
N749 N 0.49738 0.99841 0.75411 0.0
C750 C 0.46888 0.00488 0.7946 0.0
C751 C 0.47389 0.02429 0.76705 0.0
C752 C 0.49071 0.03062 0.73289 0.0
C753 C 0.50229 0.01738 0.72683 0.0
C754 C 0.57373 0.04764 0.76544 0.0
C755 C 0.55885 0.01067 0.70401 0.0
C756 C 0.55137 0.02682 0.76928 0.0
N757 N 0.54414 0.00869 0.73867 0.0
C758 C 0.58133 0.03124 0.69909 0.0
C759 C 0.58877 0.04983 0.73006 0.0
C760 C 0.52305 0.94273 0.70727 0.0
C761 C 0.44854 0.88391 0.82041 0.0
C762 C 0.47315 0.88642 0.74285 0.0
C763 C 0.46992 0.8696 0.77559 0.0
C764 C 0.45754 0.86838 0.81463 0.0
N765 N 0.46427 0.9016 0.74881 0.0
C766 C 0.45209 0.9005 0.78692 0.0
Co767 Co 0.08414 0.53861 0.71781 0.0
Co768 Co 0.02978 0.53282 0.75009 0.0
O769 O 0.05678 0.52684 0.75925 0.0
C770 C 0.07078 0.48695 0.71237 0.0
O771 O 0.04849 0.48079 0.70323 0.0
C772 C 0.04176 0.54365 0.84828 0.0
O773 O 0.06428 0.54992 0.84137 0.0
O774 O 0.05218 0.56829 0.74208 0.0
O775 O 0.08393 0.56913 0.70947 0.0
H776 H 0.98575 0.56826 0.67126 0.0
H777 H 0.08801 0.51998 0.80586 0.0
O778 O 0.08586 0.50841 0.72374 0.0
H779 H 0.15299 0.60453 0.80365 0.0
H780 H 0.16427 0.55231 0.66441 0.0
H781 H 0.0959 0.56417 0.6309 0.0
H782 H 0.12622 0.58685 0.73865 0.0
H783 H 0.13029 0.53804 0.71679 0.0
O784 O 0.02711 0.53736 0.81576 0.0
H785 H 0.01912 0.5605 0.68386 0.0
H786 H 0.9831 0.51719 0.79653 0.0
H787 H 0.12962 0.57889 0.57779 0.0
H788 H 0.1146 0.53683 0.87147 0.0
H789 H 0.16412 0.57297 0.59438 0.0
H790 H 0.14731 0.57943 0.87065 0.0
O791 O 0.06228 0.52451 0.6656 0.0
H792 H 0.99952 0.4527 0.82439 0.0
H793 H 0.98672 0.49563 0.70067 0.0
H794 H 0.9598 0.452 0.70854 0.0
H795 H 0.96606 0.43023 0.7709 0.0
H796 H 0.0262 0.49629 0.81487 0.0
H797 H 0.94946 0.52468 0.78538 0.0
H798 H 0.9506 0.55031 0.72226 0.0
O799 O 0.03037 0.5278 0.68471 0.0
C800 C 0.07213 0.57929 0.72108 0.0
C801 C 0.98503 0.55704 0.69886 0.0
C802 C 0.96468 0.53262 0.76294 0.0
N803 N 1.00308 0.53839 0.74087 0.0
C804 C 1.00386 0.55255 0.70613 0.0
C805 C 0.98384 0.52852 0.76919 0.0
C806 C 0.96532 0.54698 0.7275 0.0
C807 C 0.10234 0.53848 0.80517 0.0
N808 N 0.10554 0.55243 0.76853 0.0
C809 C 0.11728 0.54794 0.84245 0.0
C810 C 0.1356 0.57185 0.842 0.0
C811 C 0.13878 0.58596 0.80445 0.0
C812 C 0.12348 0.57589 0.76781 0.0
C813 C 0.14937 0.55505 0.65685 0.0
C814 C 0.11091 0.56165 0.63852 0.0
C815 C 0.13005 0.54699 0.68637 0.0
N816 N 0.11117 0.55041 0.67708 0.0
C817 C 0.12993 0.56998 0.60826 0.0
C818 C 0.14927 0.56663 0.61757 0.0
C819 C 0.04225 0.52308 0.65658 0.0
C820 C 0.99658 0.46199 0.79711 0.0
C821 C 0.98971 0.48629 0.72762 0.0
C822 C 0.97432 0.46158 0.73205 0.0
C823 C 0.97783 0.44939 0.76706 0.0
N824 N 0.00804 0.49856 0.75726 0.0
C825 C 0.0116 0.4867 0.79163 0.0
Co826 Co 0.46041 0.53845 0.70864 0.0
Co827 Co 0.47025 0.49383 0.74514 0.0
O828 O 0.47457 0.52622 0.75227 0.0
C829 C 0.51003 0.58143 0.70681 0.0
O830 O 0.519 0.56747 0.69813 0.0
C831 C 0.46221 0.49572 0.84424 0.0
O832 O 0.45071 0.50749 0.83739 0.0
O833 O 0.43454 0.4794 0.74534 0.0
O834 O 0.43229 0.50545 0.69873 0.0
H835 H 0.43339 0.4112 0.67801 0.0
H836 H 0.47462 0.56176 0.79726 0.0
O837 O 0.48779 0.5723 0.71596 0.0
H838 H 0.38756 0.53096 0.78658 0.0
H839 H 0.43584 0.59642 0.64999 0.0
H840 H 0.43826 0.52236 0.61905 0.0
H841 H 0.40939 0.52545 0.72421 0.0
H842 H 0.45287 0.58062 0.70522 0.0
O843 O 0.4706 0.48963 0.81147 0.0
H844 H 0.43951 0.45196 0.68739 0.0
H845 H 0.49161 0.46692 0.78829 0.0
H846 H 0.42082 0.53736 0.56309 0.0
H847 H 0.45354 0.56794 0.86029 0.0
H848 H 0.41957 0.57468 0.57837 0.0
H849 H 0.40968 0.55241 0.85519 0.0
O850 O 0.47794 0.53312 0.65936 0.0
H851 H 0.55404 0.54917 0.79996 0.0
H852 H 0.50504 0.48863 0.68651 0.0
H853 H 0.54909 0.50757 0.68396 0.0
H854 H 0.57391 0.53804 0.74105 0.0
H855 H 0.50991 0.52993 0.80103 0.0
H856 H 0.48587 0.42623 0.78029 0.0
H857 H 0.45665 0.39808 0.72468 0.0
O858 O 0.47041 0.4964 0.67863 0.0
C859 C 0.42292 0.48503 0.71794 0.0
C860 C 0.44619 0.42331 0.70233 0.0
C861 C 0.47562 0.43173 0.75976 0.0
N862 N 0.46592 0.46186 0.73832 0.0
C863 C 0.44975 0.44644 0.70777 0.0
C864 C 0.47872 0.45473 0.76427 0.0
C865 C 0.45923 0.41595 0.72855 0.0
C866 C 0.45557 0.55516 0.7947 0.0
N867 N 0.44328 0.54335 0.75709 0.0
C868 C 0.44371 0.55862 0.83053 0.0
C869 C 0.4191 0.54987 0.82767 0.0
C870 C 0.40668 0.53781 0.7892 0.0
C871 C 0.41912 0.53467 0.75405 0.0
C872 C 0.43629 0.58014 0.64292 0.0
C873 C 0.43771 0.53855 0.62604 0.0
C874 C 0.446 0.57116 0.674 0.0
N875 N 0.44657 0.55058 0.66541 0.0
C876 C 0.42784 0.54699 0.59418 0.0
C877 C 0.42716 0.56793 0.60276 0.0
C878 C 0.47733 0.51346 0.65053 0.0
C879 C 0.54342 0.53587 0.77498 0.0
C880 C 0.5157 0.50192 0.71141 0.0
C881 C 0.54064 0.51255 0.70984 0.0
C882 C 0.55456 0.52963 0.74189 0.0
N883 N 0.50489 0.50808 0.74407 0.0
C884 C 0.51842 0.52486 0.77551 0.0
Co885 Co 0.59094 0.80098 0.62604 0.0
Co886 Co 0.64522 0.84515 0.58766 0.0
O887 O 0.61703 0.81268 0.5818 0.0
C888 C 0.59829 0.75849 0.62694 0.0
O889 O 0.62162 0.77274 0.62954 0.0
C890 C 0.63473 0.84215 0.48859 0.0
O891 O 0.61149 0.83019 0.4957 0.0
O892 O 0.62403 0.85968 0.58704 0.0
O893 O 0.59586 0.83409 0.63431 0.0
H894 H 0.69157 0.92847 0.65168 0.0
H895 H 0.58124 0.77642 0.53868 0.0
O896 O 0.58447 0.76711 0.62087 0.0
H897 H 0.52489 0.80717 0.54784 0.0
H898 H 0.50904 0.74355 0.68784 0.0
H899 H 0.58542 0.81842 0.71462 0.0
H900 H 0.55273 0.81364 0.60991 0.0
H901 H 0.54153 0.75847 0.63201 0.0
O902 O 0.64934 0.84868 0.52121 0.0
H903 H 0.6568 0.88767 0.64384 0.0
H904 H 0.69323 0.87147 0.54344 0.0
H905 H 0.55334 0.80423 0.77119 0.0
H906 H 0.5535 0.76929 0.47595 0.0
H907 H 0.51481 0.76653 0.75797 0.0
H908 H 0.52512 0.78479 0.4803 0.0
O909 O 0.61415 0.80688 0.67497 0.0
H910 H 0.67325 0.78922 0.53435 0.0
H911 H 0.68548 0.85078 0.646 0.0
H912 H 0.71055 0.83179 0.64902 0.0
H913 H 0.70455 0.80081 0.59283 0.0
H914 H 0.64839 0.8085 0.53283 0.0
H915 H 0.7283 0.91218 0.54991 0.0
H916 H 0.72765 0.94098 0.60448 0.0
O917 O 0.64326 0.84333 0.65423 0.0
C918 C 0.60691 0.85435 0.61455 0.0
C919 C 0.69207 0.91608 0.6278 0.0
C920 C 0.71267 0.90695 0.57065 0.0
N921 N 0.67294 0.87715 0.59324 0.0
C922 C 0.67244 0.89293 0.62323 0.0
C923 C 0.69271 0.88394 0.56702 0.0
C924 C 0.71231 0.92309 0.60129 0.0
C925 C 0.56878 0.78303 0.54089 0.0
N926 N 0.56855 0.79535 0.57789 0.0
C927 C 0.55319 0.77902 0.50525 0.0
C928 C 0.53729 0.78775 0.50768 0.0
C929 C 0.53717 0.80033 0.54555 0.0
C930 C 0.55304 0.80401 0.58052 0.0
C931 C 0.52572 0.76004 0.69393 0.0
C932 C 0.56866 0.80208 0.70848 0.0
C933 C 0.54419 0.76859 0.66245 0.0
N934 N 0.5653 0.78943 0.66985 0.0
C935 C 0.55058 0.7941 0.7407 0.0
C936 C 0.52897 0.77294 0.73328 0.0
C937 C 0.63329 0.82659 0.68298 0.0
C938 C 0.67608 0.80274 0.55893 0.0
C939 C 0.68269 0.83725 0.62151 0.0
C940 C 0.69699 0.8266 0.62333 0.0
C941 C 0.69362 0.80923 0.59179 0.0
N942 N 0.66555 0.83084 0.5891 0.0
C943 C 0.66212 0.81378 0.55814 0.0
Co944 Co 0.20989 0.79479 0.62706 0.0
Co945 Co 0.16118 0.79695 0.58593 0.0
O946 O 0.19508 0.80519 0.58138 0.0
C947 C 0.25049 0.84608 0.63269 0.0
O948 O 0.23605 0.85304 0.64915 0.0
C949 C 0.17058 0.79582 0.48638 0.0
O950 O 0.19192 0.79874 0.49428 0.0
O951 O 0.15048 0.76192 0.59108 0.0
O952 O 0.17888 0.76451 0.63764 0.0
H953 H 0.07841 0.75446 0.65254 0.0
H954 H 0.23398 0.80959 0.5391 0.0
O955 O 0.24213 0.82462 0.61848 0.0
H956 H 0.21299 0.72509 0.55706 0.0
H957 H 0.27473 0.78195 0.69266 0.0
H958 H 0.19522 0.77365 0.71764 0.0
H959 H 0.20327 0.74559 0.6161 0.0
H960 H 0.25585 0.79411 0.63443 0.0
O961 O 0.15674 0.79381 0.51868 0.0
H962 H 0.1209 0.76554 0.64607 0.0
H963 H 0.12966 0.81045 0.53514 0.0
H964 H 0.21331 0.76101 0.77659 0.0
H965 H 0.24434 0.78987 0.4794 0.0
H966 H 0.25337 0.76515 0.76433 0.0
H967 H 0.23375 0.74728 0.48813 0.0
O968 O 0.20121 0.81089 0.67401 0.0
H969 H 0.20989 0.88108 0.52551 0.0
H970 H 0.14919 0.82954 0.63627 0.0
H971 H 0.16249 0.87268 0.63362 0.0
H972 H 0.19297 0.89878 0.57777 0.0
H973 H 0.19635 0.838 0.52963 0.0
H974 H 0.0872 0.79966 0.5402 0.0
H975 H 0.06129 0.77155 0.59935 0.0
O976 O 0.16374 0.8001 0.65272 0.0
C977 C 0.15828 0.75259 0.61943 0.0
C978 C 0.08953 0.76677 0.62669 0.0
C979 C 0.09446 0.7921 0.5636 0.0
N980 N 0.12782 0.78872 0.59042 0.0
C981 C 0.11363 0.77316 0.62291 0.0
C982 C 0.11848 0.79808 0.56082 0.0
C983 C 0.07993 0.77635 0.59681 0.0
C984 C 0.22942 0.79109 0.54321 0.0
N985 N 0.21791 0.77874 0.58092 0.0
C986 C 0.23528 0.78 0.50927 0.0
C987 C 0.22931 0.7561 0.51416 0.0
C988 C 0.21763 0.74363 0.55279 0.0
C989 C 0.21203 0.7553 0.58601 0.0
C990 C 0.25728 0.78008 0.69844 0.0
C991 C 0.21264 0.77549 0.71197 0.0
C992 C 0.24655 0.78705 0.66565 0.0
N993 N 0.22448 0.78468 0.6726 0.0
C994 C 0.2228 0.7683 0.74551 0.0
C995 C 0.24528 0.77065 0.73862 0.0
C996 C 0.18065 0.80851 0.68151 0.0
C997 C 0.19643 0.86985 0.5497 0.0
C998 C 0.16239 0.8407 0.61169 0.0
C999 C 0.16987 0.86516 0.61041 0.0
C1000 C 0.18697 0.87979 0.57909 0.0
N1001 N 0.17149 0.83098 0.58233 0.0
C1002 C 0.18851 0.84532 0.55195 0.0
Co1003 Co 0.204 0.35862 0.58793 0.0
Co1004 Co 0.21297 0.41307 0.6264 0.0
O1005 O 0.20069 0.38733 0.5812 0.0
C1006 C 0.21421 0.3713 0.48946 0.0
O1007 O 0.21962 0.39359 0.49639 0.0
C1008 C 0.16264 0.40404 0.62469 0.0
O1009 O 0.15473 0.38125 0.6331 0.0
O1010 O 0.19514 0.38959 0.6745 0.0
O1011 O 0.19883 0.35814 0.65369 0.0
H1012 H 0.24874 0.4507 0.7748 0.0
H1013 H 0.16891 0.3593 0.52449 0.0
O1014 O 0.2086 0.35673 0.52198 0.0
H1015 H 0.12097 0.29133 0.62555 0.0
H1016 H 0.19016 0.27665 0.54649 0.0
H1017 H 0.22954 0.34428 0.65234 0.0
H1018 H 0.16484 0.31562 0.63425 0.0
H1019 H 0.18558 0.31228 0.53825 0.0
O1020 O 0.18489 0.41821 0.61707 0.0
H1021 H 0.23361 0.41893 0.71737 0.0
H1022 H 0.21774 0.46163 0.63127 0.0
H1023 H 0.23438 0.30887 0.66206 0.0
H1024 H 0.12512 0.33529 0.51416 0.0
H1025 H 0.21463 0.27474 0.60887 0.0
H1026 H 0.1008 0.30106 0.565 0.0
O1027 O 0.23956 0.3792 0.59662 0.0
H1028 H 0.22179 0.45224 0.47701 0.0
H1029 H 0.26384 0.45215 0.61479 0.0
H1030 H 0.28639 0.48109 0.55494 0.0
H1031 H 0.26533 0.48131 0.4855 0.0
H1032 H 0.20001 0.42334 0.53749 0.0
H1033 H 0.23247 0.49376 0.68795 0.0
H1034 H 0.24822 0.48845 0.76027 0.0
O1035 O 0.24139 0.40912 0.63827 0.0
C1036 C 0.19324 0.36925 0.68214 0.0
C1037 C 0.24201 0.45327 0.74336 0.0
C1038 C 0.23284 0.47742 0.69465 0.0
N1039 N 0.22499 0.43848 0.67083 0.0
C1040 C 0.23349 0.43537 0.71064 0.0
C1041 C 0.22448 0.45914 0.66271 0.0
C1042 C 0.24168 0.47443 0.73521 0.0
C1043 C 0.15853 0.34432 0.54652 0.0
N1044 N 0.16951 0.33885 0.57986 0.0
C1045 C 0.1337 0.33083 0.5406 0.0
C1046 C 0.12006 0.31165 0.56917 0.0
C1047 C 0.13136 0.3062 0.60316 0.0
C1048 C 0.15622 0.32009 0.60807 0.0
C1049 C 0.19887 0.29142 0.56987 0.0
C1050 C 0.22082 0.32947 0.62912 0.0
C1051 C 0.19643 0.31169 0.56527 0.0
N1052 N 0.20727 0.33037 0.5948 0.0
C1053 C 0.22366 0.30948 0.63477 0.0
C1054 C 0.21258 0.29035 0.60489 0.0
C1055 C 0.25071 0.39715 0.62288 0.0
C1056 C 0.23116 0.45234 0.50714 0.0
C1057 C 0.25459 0.45197 0.58451 0.0
C1058 C 0.26743 0.46849 0.55082 0.0
C1059 C 0.2556 0.46863 0.51189 0.0
N1060 N 0.23062 0.43606 0.57958 0.0
C1061 C 0.2189 0.4361 0.54155 0.0
H1062 H 0.20812 0.32769 0.46503 0.0
H1063 H 0.21473 0.39272 0.40948 0.0
H1064 H 0.20083 0.31001 0.39086 0.0
H1065 H 0.2071 0.37479 0.33489 0.0
H1066 H 0.16051 0.27626 0.25929 0.0
H1067 H 0.16997 0.29431 0.33386 0.0
H1068 H 0.22409 0.36153 0.27709 0.0
H1069 H 0.21448 0.34373 0.20299 0.0
C1070 C 0.20805 0.33828 0.43698 0.0
C1071 C 0.21192 0.36166 0.44339 0.0
C1072 C 0.2037 0.32801 0.39436 0.0
C1073 C 0.20313 0.34082 0.35681 0.0
C1074 C 0.2076 0.36445 0.36299 0.0
C1075 C 0.21196 0.37475 0.40578 0.0
C1076 C 0.17456 0.29482 0.2628 0.0
C1077 C 0.18662 0.30851 0.22501 0.0
C1078 C 0.18003 0.30519 0.30558 0.0
C1079 C 0.19772 0.32948 0.31154 0.0
C1080 C 0.21008 0.34295 0.27378 0.0
C1081 C 0.20463 0.33263 0.23119 0.0
H1082 H 0.61167 0.82408 0.4082 0.0
H1083 H 0.68081 0.87391 0.46472 0.0
H1084 H 0.62947 0.83301 0.33344 0.0
H1085 H 0.69832 0.8833 0.39063 0.0
H1086 H 0.72849 0.8766 0.25696 0.0
H1087 H 0.71037 0.86742 0.33123 0.0
H1088 H 0.64605 0.863 0.2769 0.0
H1089 H 0.66386 0.87141 0.20278 0.0
C1090 C 0.63058 0.83708 0.40469 0.0
C1091 C 0.64478 0.84812 0.44258 0.0
C1092 C 0.64082 0.84229 0.3618 0.0
C1093 C 0.66546 0.85882 0.35579 0.0
C1094 C 0.67946 0.87011 0.39377 0.0
C1095 C 0.66931 0.86479 0.43645 0.0
C1096 C 0.71055 0.87381 0.26096 0.0
C1097 C 0.69768 0.87474 0.22383 0.0
C1098 C 0.70012 0.86859 0.30362 0.0
C1099 C 0.67662 0.86436 0.31029 0.0
C1100 C 0.66395 0.86566 0.27313 0.0
C1101 C 0.67429 0.8707 0.23054 0.0
H1102 H 0.20064 0.82004 0.41695 0.0
H1103 H 0.12556 0.7796 0.45202 0.0
H1104 H 0.18999 0.82923 0.34391 0.0
H1105 H 0.11498 0.78821 0.37815 0.0
H1106 H 0.11573 0.79082 0.21483 0.0
H1107 H 0.12387 0.77957 0.28847 0.0
H1108 H 0.16561 0.85435 0.32451 0.0
H1109 H 0.15689 0.86568 0.25172 0.0
C1110 C 0.18185 0.81272 0.4088 0.0
C1111 C 0.16394 0.799 0.44029 0.0
C1112 C 0.1758 0.81814 0.36711 0.0
C1113 C 0.15168 0.80948 0.35554 0.0
C1114 C 0.1337 0.79505 0.38627 0.0
C1115 C 0.13977 0.79013 0.42846 0.0
C1116 C 0.12635 0.80484 0.23872 0.0
C1117 C 0.13554 0.82915 0.22749 0.0
C1118 C 0.131 0.79838 0.28078 0.0
C1119 C 0.14547 0.81611 0.31197 0.0
C1120 C 0.15449 0.84036 0.30095 0.0
C1121 C 0.14934 0.84681 0.2594 0.0
H1122 H 0.33141 0.20553 0.53792 0.0
H1123 H 0.39764 0.21523 0.5935 0.0
H1124 H 0.31402 0.19847 0.61224 0.0
H1125 H 0.38 0.20779 0.66828 0.0
H1126 H 0.34848 0.21469 0.79994 0.0
H1127 H 0.36597 0.22434 0.72562 0.0
H1128 H 0.2995 0.16814 0.66999 0.0
H1129 H 0.28177 0.15864 0.74472 0.0
C1130 C 0.34233 0.20619 0.56602 0.0
C1131 C 0.36596 0.21086 0.55957 0.0
C1132 C 0.33224 0.20197 0.60873 0.0
C1133 C 0.34546 0.20231 0.64635 0.0
C1134 C 0.36933 0.20758 0.64012 0.0
C1135 C 0.37947 0.21183 0.59723 0.0
C1136 C 0.33747 0.2044 0.77193 0.0
C1137 C 0.31367 0.18579 0.77847 0.0
C1138 C 0.34762 0.20987 0.72922 0.0
C1139 C 0.33428 0.19693 0.69172 0.0
C1140 C 0.31027 0.17866 0.69805 0.0
C1141 C 0.30007 0.17317 0.74092 0.0
H1142 H 0.79327 0.1814 0.59297 0.0
H1143 H 0.80086 0.12345 0.53783 0.0
H1144 H 0.80139 0.17164 0.66758 0.0
H1145 H 0.80866 0.1136 0.61205 0.0
H1146 H 0.85002 0.12189 0.74325 0.0
H1147 H 0.83986 0.12966 0.66866 0.0
H1148 H 0.78503 0.14151 0.72583 0.0
H1149 H 0.7953 0.13409 0.79993 0.0
C1150 C 0.79635 0.16641 0.59676 0.0
C1151 C 0.79652 0.15333 0.55924 0.0
C1152 C 0.801 0.16077 0.63957 0.0
C1153 C 0.8059 0.14192 0.64588 0.0
C1154 C 0.80545 0.12851 0.60844 0.0
C1155 C 0.8008 0.13411 0.5658 0.0
C1156 C 0.83567 0.12594 0.73983 0.0
C1157 C 0.8236 0.12745 0.77774 0.0
C1158 C 0.82979 0.13037 0.69704 0.0
C1159 C 0.8117 0.13641 0.69117 0.0
C1160 C 0.79933 0.13738 0.72905 0.0
C1161 C 0.80517 0.13295 0.77165 0.0
H1162 H 0.86939 0.6592 0.80003 0.0
H1163 H 0.88426 0.72689 0.74257 0.0
H1164 H 0.86142 0.64123 0.72613 0.0
H1165 H 0.8759 0.70866 0.66813 0.0
H1166 H 0.88118 0.67446 0.53813 0.0
H1167 H 0.89121 0.69235 0.6122 0.0
H1168 H 0.83148 0.62833 0.66756 0.0
H1169 H 0.82151 0.61021 0.59311 0.0
C1170 C 0.87099 0.67032 0.77163 0.0
C1171 C 0.87743 0.69456 0.77743 0.0
C1172 C 0.86624 0.6599 0.72914 0.0
C1173 C 0.8678 0.67338 0.69109 0.0
C1174 C 0.87472 0.69777 0.69667 0.0
C1175 C 0.87947 0.70824 0.73936 0.0
C1176 C 0.87017 0.66409 0.56603 0.0
C1177 C 0.85041 0.64087 0.55948 0.0
C1178 C 0.87588 0.67447 0.60858 0.0
C1179 C 0.86206 0.66194 0.6459 0.0
C1180 C 0.84265 0.63846 0.63962 0.0
C1181 C 0.8369 0.62805 0.59691 0.0
H1182 H 0.01456 0.54381 0.1348 0.0
H1183 H 0.94679 0.49044 0.07845 0.0
H1184 H 0.03222 0.55343 0.06069 0.0
H1185 H 0.96471 0.49982 0.00383 0.0
H1186 H 0.99808 0.53727 0.87248 0.0
H1187 H 0.98045 0.53013 0.94664 0.0
H1188 H 0.04537 0.53682 0.00282 0.0
H1189 H 0.06326 0.54445 0.9283 0.0
C1190 C 1.00337 0.53406 0.10657 0.0
C1191 C 0.97922 0.51622 0.11274 0.0
C1192 C 0.01362 0.53952 0.06396 0.0
C1193 C 1.00004 0.52729 0.02614 0.0
C1194 C 0.97569 0.50979 0.03212 0.0
C1195 C 0.96539 0.50434 0.07492 0.0
C1196 C 0.00871 0.53734 0.90061 0.0
C1197 C 0.03212 0.54137 0.8943 0.0
C1198 C 0.99847 0.53306 0.94322 0.0
C1199 C 0.01133 0.53265 0.98084 0.0
C1200 C 0.03498 0.53723 0.97471 0.0
C1201 C 0.04527 0.54159 0.93195 0.0
H1202 H 0.52155 0.46113 0.07588 0.0
H1203 H 0.46123 0.46489 0.12953 0.0
H1204 H 0.51258 0.47029 0.00159 0.0
H1205 H 0.45182 0.47328 0.05539 0.0
H1206 H 0.45635 0.51284 0.92498 0.0
H1207 H 0.46504 0.50356 0.9996 0.0
H1208 H 0.48512 0.4546 0.94149 0.0
H1209 H 0.4772 0.46437 0.86751 0.0
C1210 C 0.50619 0.46358 0.07175 0.0
C1211 C 0.49217 0.4623 0.10876 0.0
C1212 C 0.50097 0.4688 0.02908 0.0
C1213 C 0.48148 0.47266 0.02226 0.0
C1214 C 0.46724 0.47093 0.05928 0.0
C1215 C 0.47256 0.4659 0.10188 0.0
C1216 C 0.46256 0.50006 0.92825 0.0
C1217 C 0.46619 0.4895 0.89014 0.0
C1218 C 0.46747 0.49464 0.97107 0.0
C1219 C 0.47596 0.47838 0.9768 0.0
C1220 C 0.47915 0.46758 0.93858 0.0
C1221 C 0.47443 0.4731 0.89597 0.0
H1222 H 0.53692 0.99218 0.12997 0.0
H1223 H 0.55571 0.06116 0.07328 0.0
H1224 H 0.52854 0.97449 0.05577 0.0
H1225 H 0.54684 0.04324 0.99862 0.0
H1226 H 0.54938 0.00859 0.86768 0.0
H1227 H 0.56034 0.02599 0.94205 0.0
H1228 H 0.49926 0.963 0.99711 0.0
H1229 H 0.48847 0.94533 0.92243 0.0
C1230 C 0.53929 0.00364 0.10166 0.0
C1231 C 0.54695 0.02815 0.10775 0.0
C1232 C 0.5343 0.99339 0.05899 0.0
C1233 C 0.53679 0.00732 0.02107 0.0
C1234 C 0.54494 0.03198 0.02699 0.0
C1235 C 0.54999 0.04228 0.06983 0.0
C1236 C 0.5383 0.99833 0.89561 0.0
C1237 C 0.51793 0.97554 0.88892 0.0
C1238 C 0.54453 0.00844 0.93834 0.0
C1239 C 0.5306 0.99607 0.97569 0.0
C1240 C 0.51056 0.97299 0.96921 0.0
C1241 C 0.50433 0.96283 0.92634 0.0
H1242 H 0.19531 0.33814 0.95646 0.0
H1243 H 0.1288 0.27591 0.91488 0.0
H1244 H 0.19966 0.35577 0.8831 0.0
H1245 H 0.13388 0.2936 0.84025 0.0
H1246 H 0.1807 0.32353 0.70628 0.0
H1247 H 0.16864 0.30512 0.77949 0.0
H1248 H 0.17547 0.37066 0.83247 0.0
H1249 H 0.18691 0.38919 0.7584 0.0
C1250 C 0.18148 0.32823 0.93189 0.0
C1251 C 0.16154 0.30564 0.94185 0.0
C1252 C 0.18399 0.33846 0.88989 0.0
C1253 C 0.16694 0.32616 0.85651 0.0
C1254 C 0.14715 0.30345 0.86583 0.0
C1255 C 0.14433 0.29334 0.90836 0.0
C1256 C 0.17915 0.33397 0.73307 0.0
C1257 C 0.18469 0.35787 0.72631 0.0
C1258 C 0.17215 0.32331 0.77498 0.0
C1259 C 0.17104 0.33647 0.81125 0.0
C1260 C 0.17617 0.3602 0.8047 0.0
C1261 C 0.18272 0.37076 0.76243 0.0
H1262 H 0.66438 0.86992 0.71892 0.0
H1263 H 0.62786 0.79382 0.74752 0.0
H1264 H 0.68427 0.87832 0.79096 0.0
H1265 H 0.64816 0.80251 0.82048 0.0
H1266 H 0.71358 0.83393 0.92378 0.0
H1267 H 0.69394 0.82314 0.85023 0.0
H1268 H 0.66746 0.87218 0.87124 0.0
H1269 H 0.68671 0.88286 0.94405 0.0
C1270 C 0.66059 0.85494 0.74058 0.0
C1271 C 0.64445 0.83117 0.72762 0.0
C1272 C 0.672 0.85981 0.78184 0.0
C1273 C 0.66772 0.84106 0.81102 0.0
C1274 C 0.65181 0.81722 0.79821 0.0
C1275 C 0.64007 0.8123 0.75684 0.0
C1276 C 0.70372 0.84251 0.91242 0.0
C1277 C 0.70173 0.85928 0.93957 0.0
C1278 C 0.69232 0.83615 0.87071 0.0
C1279 C 0.67921 0.84682 0.85542 0.0
C1280 C 0.67756 0.86379 0.88229 0.0
C1281 C 0.68859 0.86988 0.92396 0.0
H1282 H 0.17042 0.8795 0.92201 0.0
H1283 H 0.12719 0.80336 0.94796 0.0
H1284 H 0.18054 0.87072 0.84806 0.0
H1285 H 0.13702 0.7948 0.87403 0.0
H1286 H 0.13684 0.79338 0.71896 0.0
H1287 H 0.128 0.80345 0.79238 0.0
H1288 H 0.20374 0.84836 0.81827 0.0
H1289 H 0.21281 0.83802 0.74468 0.0
C1290 C 0.16298 0.86094 0.9119 0.0
C1291 C 0.14799 0.84212 0.94083 0.0
C1292 C 0.16891 0.85596 0.86978 0.0
C1293 C 0.15954 0.83212 0.8556 0.0
C1294 C 0.14436 0.81334 0.88422 0.0
C1295 C 0.1388 0.81827 0.92654 0.0
C1296 C 0.15166 0.80542 0.74018 0.0
C1297 C 0.17555 0.81486 0.72605 0.0
C1298 C 0.14656 0.8111 0.78223 0.0
C1299 C 0.1652 0.82664 0.81077 0.0
C1300 C 0.18909 0.83642 0.79662 0.0
C1301 C 0.19424 0.83039 0.75473 0.0
H1302 H 0.33036 0.18055 0.29527 0.0
H1303 H 0.3953 0.18371 0.24727 0.0
H1304 H 0.3127 0.16877 0.22155 0.0
H1305 H 0.37755 0.17269 0.17233 0.0
H1306 H 0.3459 0.1934 0.04593 0.0
H1307 H 0.36361 0.19766 0.11932 0.0
H1308 H 0.30081 0.13265 0.16268 0.0
H1309 H 0.28308 0.1276 0.0881 0.0
C1310 C 0.34081 0.17843 0.26927 0.0
C1311 C 0.36425 0.18291 0.27744 0.0
C1312 C 0.33058 0.1716 0.22702 0.0
C1313 C 0.34371 0.16964 0.19167 0.0
C1314 C 0.36708 0.17397 0.19943 0.0
C1315 C 0.3772 0.18031 0.24216 0.0
C1316 C 0.3359 0.17968 0.0706 0.0
C1317 C 0.31308 0.16001 0.06086 0.0
C1318 C 0.34618 0.18214 0.1126 0.0
C1319 C 0.33367 0.16532 0.14616 0.0
C1320 C 0.31082 0.14572 0.13695 0.0
C1321 C 0.30068 0.14293 0.09445 0.0
H1322 H 0.81592 0.15103 0.04548 0.0
H1323 H 0.88107 0.15301 0.08876 0.0
H1324 H 0.81122 0.16385 0.1191 0.0
H1325 H 0.87554 0.16504 0.16368 0.0
H1326 H 0.82627 0.14651 0.29519 0.0
H1327 H 0.83867 0.14074 0.22189 0.0
H1328 H 0.83644 0.20259 0.17256 0.0
H1329 H 0.82481 0.2092 0.24696 0.0
C1330 C 0.8294 0.15437 0.07046 0.0
C1331 C 0.84906 0.15119 0.06092 0.0
C1332 C 0.82667 0.16182 0.11262 0.0
C1333 C 0.84318 0.16571 0.14657 0.0
C1334 C 0.86271 0.16231 0.13763 0.0
C1335 C 0.86579 0.15535 0.09494 0.0
C1336 C 0.8289 0.1593 0.26925 0.0
C1337 C 0.82469 0.17847 0.27719 0.0
C1338 C 0.83608 0.15596 0.22727 0.0
C1339 C 0.83867 0.17134 0.192 0.0
C1340 C 0.83466 0.19061 0.19959 0.0
C1341 C 0.82797 0.19432 0.24203 0.0
H1342 H 0.85245 0.72715 0.08802 0.0
H1343 H 0.85961 0.66654 0.04642 0.0
H1344 H 0.84061 0.70937 0.16284 0.0
H1345 H 0.84701 0.64879 0.11981 0.0
H1346 H 0.80011 0.61379 0.24326 0.0
H1347 H 0.80702 0.63277 0.16967 0.0
H1348 H 0.86507 0.69837 0.22383 0.0
H1349 H 0.85895 0.6795 0.29663 0.0
C1350 C 0.85136 0.71007 0.09458 0.0
C1351 C 0.85679 0.69822 0.06099 0.0
C1352 C 0.84451 0.69991 0.13721 0.0
C1353 C 0.84253 0.67758 0.14646 0.0
C1354 C 0.84792 0.66578 0.11305 0.0
C1355 C 0.85522 0.67609 0.07101 0.0
C1356 C 0.81418 0.63232 0.23961 0.0
C1357 C 0.82893 0.6451 0.27595 0.0
C1358 C 0.81807 0.64315 0.19761 0.0
C1359 C 0.83642 0.66703 0.19154 0.0
C1360 C 0.85058 0.68006 0.22801 0.0
C1361 C 0.84706 0.66914 0.26967 0.0
H1362 H 0.94924 0.46012 0.42455 0.0
H1363 H 0.01314 0.52383 0.37873 0.0
H1364 H 0.96763 0.46526 0.49839 0.0
H1365 H 0.03142 0.52833 0.45165 0.0
H1366 H 0.06302 0.51667 0.58134 0.0
H1367 H 0.04526 0.50531 0.50645 0.0
H1368 H 0.97998 0.50045 0.55572 0.0
H1369 H 0.99755 0.51236 0.62939 0.0
C1370 C 0.96724 0.47498 0.42992 0.0
C1371 C 0.9797 0.4915 0.3956 0.0
C1372 C 0.97774 0.47785 0.47205 0.0
C1373 C 1.00099 0.49703 0.48028 0.0
C1374 C 0.01366 0.51315 0.44581 0.0
C1375 C 1.00305 0.51057 0.40407 0.0
C1376 C 0.04484 0.51301 0.57622 0.0
C1377 C 0.03172 0.51534 0.61151 0.0
C1378 C 0.03471 0.50649 0.5335 0.0
C1379 C 0.0112 0.50177 0.52574 0.0
C1380 C 0.99796 0.50356 0.56111 0.0
C1381 C 0.00816 0.51049 0.60336 0.0
H1382 H 0.50545 0.5468 0.58736 0.0
H1383 H 0.46421 0.47041 0.61247 0.0
H1384 H 0.51685 0.53863 0.51367 0.0
H1385 H 0.47545 0.46253 0.53973 0.0
H1386 H 0.47315 0.45973 0.38706 0.0
H1387 H 0.4651 0.47099 0.45967 0.0
H1388 H 0.54107 0.51628 0.48283 0.0
H1389 H 0.54942 0.50487 0.40937 0.0
C1390 C 0.49877 0.52837 0.57713 0.0
C1391 C 0.48387 0.50926 0.60556 0.0
C1392 C 0.50547 0.52374 0.53535 0.0
C1393 C 0.49698 0.49998 0.52138 0.0
C1394 C 0.48212 0.48099 0.54979 0.0
C1395 C 0.47573 0.48557 0.59144 0.0
C1396 C 0.48823 0.47208 0.40745 0.0
C1397 C 0.51196 0.48132 0.39257 0.0
C1398 C 0.48357 0.47851 0.44901 0.0
C1399 C 0.50247 0.49449 0.47655 0.0
C1400 C 0.52624 0.50403 0.46183 0.0
C1401 C 0.53098 0.49733 0.42017 0.0
H1402 H 0.46556 0.9499 0.574 0.0
H1403 H 0.52414 0.01601 0.62668 0.0
H1404 H 0.47243 0.96841 0.5001 0.0
H1405 H 0.53045 0.03439 0.55329 0.0
H1406 H 0.52121 0.06302 0.41618 0.0
H1407 H 0.50849 0.04591 0.49122 0.0
H1408 H 0.5106 0.9827 0.44998 0.0
H1409 H 0.52386 0.99968 0.37627 0.0
C1410 C 0.47958 0.96844 0.57012 0.0
C1411 C 0.49433 0.98142 0.6063 0.0
C1412 C 0.48347 0.97899 0.52789 0.0
C1413 C 0.5019 1.0028 0.52132 0.0
C1414 C 0.51593 0.01611 0.55774 0.0
C1415 C 0.51233 0.00548 0.59973 0.0
C1416 C 0.5189 0.04546 0.42314 0.0
C1417 C 0.5234 0.03269 0.39001 0.0
C1418 C 0.51159 0.0357 0.46593 0.0
C1419 C 0.50825 0.01288 0.47587 0.0
C1420 C 0.51256 1.00011 0.44278 0.0
C1421 C 0.52027 0.00997 0.40054 0.0
H1422 H 0.23074 0.28201 0.06348 0.0
H1423 H 0.16515 0.22075 0.01629 0.0
H1424 H 0.25339 0.263 0.03666 0.0
H1425 H 0.1875 0.20262 0.98858 0.0
H1426 H 0.22677 0.16214 0.98934 0.0
H1427 H 0.20769 0.18353 0.01725 0.0
H1428 H 0.26663 0.25029 0.96873 0.0
H1429 H 0.28663 0.22862 0.94168 0.0
C1430 C 0.22112 0.26453 0.04771 0.0
C1431 C 0.196 0.25289 0.0427 0.0
C1432 C 0.23414 0.25376 0.03184 0.0
C1433 C 0.22231 0.23113 0.01068 0.0
C1434 C 0.19728 0.21976 0.00551 0.0
C1435 C 0.18438 0.23033 0.02141 0.0
C1436 C 0.23585 0.18137 0.98418 0.0
C1437 C 0.25829 0.19351 0.96265 0.0
C1438 C 0.22472 0.19371 1.0002 0.0
C1439 C 0.23539 0.21869 0.99492 0.0
C1440 C 0.25792 0.23106 0.97361 0.0
C1441 C 0.26926 0.2186 0.95763 0.0
H1442 H 0.84808 0.06297 0.98283 0.0
H1443 H 0.78101 0.05792 0.9439 0.0
H1444 H 0.82676 0.02257 0.01136 0.0
H1445 H 0.75939 0.01641 0.9717 0.0
H1446 H 0.72914 0.94997 0.06842 0.0
H1447 H 0.74855 0.99144 0.0406 0.0
H1448 H 0.80558 0.98283 0.98437 0.0
H1449 H 0.78702 0.9424 0.01291 0.0
C1450 C 0.82873 0.05317 0.97968 0.0
C1451 C 0.81639 0.06389 0.96051 0.0
C1452 C 0.81643 0.02976 0.99608 0.0
C1453 C 0.79129 0.01598 0.99363 0.0
C1454 C 0.77875 0.02653 0.97443 0.0
C1455 C 0.79117 0.05023 0.95799 0.0
C1456 C 0.746 0.9571 0.05065 0.0
C1457 C 0.75654 0.94275 0.04345 0.0
C1458 C 0.75697 0.98078 0.0342 0.0
C1459 C 0.77875 0.99063 0.01033 0.0
C1460 C 0.78912 0.97617 0.00326 0.0
C1461 C 0.77831 0.95277 0.01966 0.0
H1462 H 0.94847 0.72327 0.94247 0.0
H1463 H 0.94342 0.78573 0.97817 0.0
H1464 H 0.99004 0.74357 0.96993 0.0
H1465 H 0.98394 0.80529 0.00622 0.0
H1466 H 0.06409 0.8456 0.00763 0.0
H1467 H 0.02373 0.82341 0.97881 0.0
H1468 H 0.0148 0.75851 0.03937 0.0
H1469 H 0.05615 0.78088 0.0676 0.0
C1470 C 0.95619 0.74131 0.95571 0.0
C1471 C 0.94249 0.75285 0.95753 0.0
C1472 C 0.97992 0.75283 0.97196 0.0
C1473 C 0.99048 0.77616 0.99018 0.0
C1474 C 0.97672 0.78756 0.99174 0.0
C1475 C 0.95325 0.77619 0.97561 0.0
C1476 C 0.05367 0.82663 0.01527 0.0
C1477 C 0.06354 0.81518 0.04047 0.0
C1478 C 0.03032 0.81384 0.99869 0.0
C1479 C 0.0158 0.78913 0.00692 0.0
C1480 C 0.02552 0.77749 0.03208 0.0
C1481 C 0.04913 0.79038 0.04875 0.0
H1482 H 0.78976 0.72051 0.0369 0.0
H1483 H 0.8124 0.76074 0.91362 0.0
H1484 H 0.76583 0.73931 0.05497 0.0
H1485 H 0.78779 0.77893 0.93127 0.0
H1486 H 0.72172 0.78796 0.96627 0.0
H1487 H 0.74004 0.76356 0.94818 0.0
H1488 H 0.78179 0.78737 0.06944 0.0
H1489 H 0.76408 0.81243 0.08704 0.0
C1490 C 0.78916 0.73288 0.01309 0.0
C1491 C 0.80294 0.73906 0.97369 0.0
C1492 C 0.77558 0.74375 0.02366 0.0
C1493 C 0.77501 0.76056 0.99455 0.0
C1494 C 0.78783 0.76591 0.95416 0.0
C1495 C 0.80189 0.75549 0.94407 0.0
C1496 C 0.73447 0.78766 0.98955 0.0
C1497 C 0.74137 0.80207 0.02824 0.0
C1498 C 0.74506 0.77383 0.97895 0.0
C1499 C 0.76231 0.77363 0.00738 0.0
C1500 C 0.76841 0.78712 0.0471 0.0
C1501 C 0.75827 0.80143 0.05716 0.0
H1502 H 0.21818 0.93541 0.96208 0.0
H1503 H 0.19386 0.95309 0.08325 0.0
H1504 H 0.24292 0.97819 0.94479 0.0
H1505 H 0.21929 0.99594 0.06644 0.0
H1506 H 0.28762 0.07035 0.035 0.0
H1507 H 0.26794 0.02744 0.05219 0.0
H1508 H 0.22787 0.0113 0.92913 0.0
H1509 H 0.24694 0.05431 0.91238 0.0
C1510 C 0.21856 0.94841 0.9856 0.0
C1511 C 0.20411 0.94084 0.02419 0.0
C1512 C 0.23259 0.97287 0.97546 0.0
C1513 C 0.23297 0.99029 0.00425 0.0
C1514 C 0.2194 0.98283 0.04382 0.0
C1515 C 0.20488 0.95834 0.05343 0.0
C1516 C 0.27495 0.05767 0.01114 0.0
C1517 C 0.26892 0.06576 0.97217 0.0
C1518 C 0.26358 0.03313 0.02122 0.0
C1519 C 0.2464 0.01613 0.99202 0.0
C1520 C 0.24116 0.02407 0.95207 0.0
C1521 C 0.25208 0.04866 0.94249 0.0
H1522 H 0.95555 0.19265 0.91466 0.0
H1523 H 0.93826 0.21584 0.03767 0.0
H1524 H 0.99838 0.21667 0.93285 0.0
H1525 H 0.98097 0.23912 0.05629 0.0
H1526 H 0.05534 0.23954 0.08844 0.0
H1527 H 0.01263 0.22186 0.07023 0.0
H1528 H 0.03104 0.26508 0.95091 0.0
H1529 H 0.07367 0.28339 0.96967 0.0
C1530 C 0.96089 0.20314 0.94517 0.0
C1531 C 0.94348 0.20246 0.97452 0.0
C1532 C 0.98537 0.21684 0.95558 0.0
C1533 C 0.9929 0.22964 0.99604 0.0
C1534 C 0.9756 0.22938 0.02493 0.0
C1535 C 0.95117 0.21619 0.01403 0.0
C1536 C 0.05025 0.24565 0.05885 0.0
C1537 C 0.0679 0.263 0.03071 0.0
C1538 C 0.02585 0.23552 0.04843 0.0
C1539 C 0.01862 0.24208 0.0091 0.0
C1540 C 0.03617 0.25971 0.98138 0.0
C1541 C 0.06055 0.27029 0.99236 0.0
H1542 H 0.85801 0.58753 0.2996 0.0
H1543 H 0.89297 0.60713 0.42832 0.0
H1544 H 0.88334 0.57114 0.27739 0.0
H1545 H 0.91829 0.59022 0.40613 0.0
H1546 H 0.92296 0.52078 0.36799 0.0
H1547 H 0.90675 0.54627 0.39011 0.0
H1548 H 0.92723 0.58214 0.26241 0.0
H1549 H 0.94399 0.55664 0.24032 0.0
C1550 C 0.8713 0.58855 0.32306 0.0
C1551 C 0.87333 0.59845 0.36592 0.0
C1552 C 0.88597 0.57933 0.31011 0.0
C1553 C 0.90281 0.57935 0.33995 0.0
C1554 C 0.90542 0.58992 0.38243 0.0
C1555 C 0.89101 0.59965 0.3951 0.0
C1556 C 0.9243 0.53428 0.34472 0.0
C1557 C 0.93457 0.53653 0.30219 0.0
C1558 C 0.91519 0.54905 0.35764 0.0
C1559 C 0.91569 0.56623 0.32808 0.0
C1560 C 0.92656 0.56901 0.2859 0.0
C1561 C 0.9362 0.5545 0.27328 0.0
H1562 H 0.50893 0.39445 0.32816 0.0
H1563 H 0.4453 0.38819 0.26636 0.0
H1564 H 0.48611 0.35366 0.35446 0.0
H1565 H 0.42218 0.34637 0.29278 0.0
H1566 H 0.38855 0.27854 0.39253 0.0
H1567 H 0.40774 0.32039 0.36593 0.0
H1568 H 0.46773 0.3146 0.31712 0.0
H1569 H 0.4493 0.27386 0.34354 0.0
C1570 C 0.49005 0.38437 0.31974 0.0
C1571 C 0.47913 0.39475 0.29442 0.0
C1572 C 0.47691 0.3608 0.33497 0.0
C1573 C 0.45234 0.34661 0.32546 0.0
C1574 C 0.44109 0.35689 0.3008 0.0
C1575 C 0.45439 0.38074 0.28526 0.0
C1576 C 0.40591 0.28633 0.37641 0.0
C1577 C 0.41742 0.27275 0.37097 0.0
C1578 C 0.41677 0.31019 0.36077 0.0
C1579 C 0.43939 0.32091 0.33975 0.0
C1580 C 0.45054 0.30713 0.33383 0.0
C1581 C 0.43982 0.28357 0.34915 0.0
H1582 H 0.61446 0.11424 0.31754 0.0
H1583 H 0.61622 0.05142 0.27125 0.0
H1584 H 0.65521 0.13169 0.34333 0.0
H1585 H 0.65815 0.06966 0.29704 0.0
H1586 H 0.7268 0.10731 0.39648 0.0
H1587 H 0.68494 0.08454 0.36982 0.0
H1588 H 0.69373 0.14831 0.30478 0.0
H1589 H 0.73436 0.17078 0.33144 0.0
C1590 C 0.62354 0.1041 0.31237 0.0
C1591 C 0.61189 0.08141 0.29152 0.0
C1592 C 0.64711 0.11424 0.32732 0.0
C1593 C 0.66012 0.10224 0.32189 0.0
C1594 C 0.64858 0.07934 0.30179 0.0
C1595 C 0.62467 0.06903 0.2866 0.0
C1596 C 0.71968 0.11641 0.37665 0.0
C1597 C 0.73403 0.14107 0.36692 0.0
C1598 C 0.69581 0.10332 0.36103 0.0
C1599 C 0.6859 0.11468 0.33558 0.0
C1600 C 0.70054 0.13905 0.32498 0.0
C1601 C 0.72406 0.15199 0.34043 0.0
H1602 H 0.44792 0.04589 0.32099 0.0
H1603 H 0.50204 0.11502 0.27073 0.0
H1604 H 0.42372 0.06368 0.34492 0.0
H1605 H 0.47823 0.13259 0.29546 0.0
H1606 H 0.44769 0.16107 0.40058 0.0
H1607 H 0.46716 0.13889 0.37645 0.0
H1608 H 0.40197 0.0867 0.31104 0.0
H1609 H 0.38236 0.10929 0.33429 0.0
C1610 C 0.45453 0.06474 0.31446 0.0
C1611 C 0.47712 0.07903 0.29431 0.0
C1612 C 0.44068 0.0749 0.32827 0.0
C1613 C 0.44931 0.0996 0.32278 0.0
C1614 C 0.47132 0.11359 0.30087 0.0
C1615 C 0.48493 0.10343 0.28651 0.0
C1616 C 0.43731 0.14478 0.3814 0.0
C1617 C 0.4135 0.13725 0.36885 0.0
C1618 C 0.44855 0.13211 0.36746 0.0
C1619 C 0.43621 0.1113 0.34123 0.0
C1620 C 0.41193 0.10275 0.33111 0.0
C1621 C 0.40072 0.11568 0.34453 0.0
H1622 H 0.84402 0.28365 0.40386 0.0
H1623 H 0.89543 0.27262 0.33012 0.0
H1624 H 0.86524 0.32581 0.38262 0.0
H1625 H 0.91681 0.31508 0.30913 0.0
H1626 H 0.95841 0.39986 0.31674 0.0
H1627 H 0.9405 0.35769 0.33907 0.0
H1628 H 0.87006 0.34684 0.31009 0.0
H1629 H 0.88774 0.38862 0.28773 0.0
C1630 C 0.86001 0.29022 0.38355 0.0
C1631 C 0.86779 0.27454 0.36831 0.0
C1632 C 0.8721 0.31442 0.37113 0.0
C1633 C 0.89247 0.32373 0.34348 0.0
C1634 C 0.90116 0.30847 0.33039 0.0
C1635 C 0.88889 0.28411 0.34252 0.0
C1636 C 0.93913 0.3884 0.31456 0.0
C1637 C 0.92456 0.39779 0.30066 0.0
C1638 C 0.92887 0.36423 0.32741 0.0
C1639 C 0.90382 0.349 0.3271 0.0
C1640 C 0.88939 0.3582 0.31166 0.0
C1641 C 0.89959 0.38218 0.29845 0.0
H1642 H 0.62035 0.50796 0.26397 0.0
H1643 H 0.60864 0.5574 0.34311 0.0
H1644 H 0.66255 0.52936 0.28479 0.0
H1645 H 0.65118 0.579 0.36362 0.0
H1646 H 0.73603 0.62163 0.35491 0.0
H1647 H 0.69378 0.60371 0.33312 0.0
H1648 H 0.68363 0.53307 0.35717 0.0
H1649 H 0.72546 0.55074 0.37906 0.0
C1650 C 0.62678 0.52356 0.28538 0.0
C1651 C 0.6109 0.53071 0.30226 0.0
C1652 C 0.651 0.53576 0.29754 0.0
C1653 C 0.66015 0.55562 0.32655 0.0
C1654 C 0.64468 0.56374 0.34129 0.0
C1655 C 0.62029 0.55135 0.32944 0.0
C1656 C 0.7247 0.60229 0.35612 0.0
C1657 C 0.7343 0.58767 0.36849 0.0
C1658 C 0.7005 0.59204 0.34358 0.0
C1659 C 0.68545 0.56695 0.34266 0.0
C1660 C 0.69485 0.55244 0.35658 0.0
C1661 C 0.71887 0.56263 0.36949 0.0
H1662 H 0.60747 0.89043 0.5636 0.0
H1663 H 0.5911 0.85919 0.6956 0.0
H1664 H 0.59189 0.91701 0.58525 0.0
H1665 H 0.5759 0.88555 0.7171 0.0
H1666 H 0.56145 0.94543 0.75338 0.0
H1667 H 0.58675 0.92869 0.7301 0.0
H1668 H 0.54964 0.90784 0.60347 0.0
H1669 H 0.52452 0.92423 0.62663 0.0
C1670 C 0.60093 0.88951 0.59732 0.0
C1671 C 0.6002 0.87249 0.62764 0.0
C1672 C 0.59197 0.90465 0.60972 0.0
C1673 C 0.58266 0.90339 0.65296 0.0
C1674 C 0.58314 0.8872 0.68376 0.0
C1675 C 0.59163 0.87188 0.6712 0.0
C1676 C 0.55905 0.93765 0.72033 0.0
C1677 C 0.54079 0.93588 0.69211 0.0
C1678 C 0.57344 0.928 0.70703 0.0
C1679 C 0.57016 0.91688 0.66491 0.0
C1680 C 0.55282 0.91644 0.63588 0.0
C1681 C 0.53824 0.92565 0.64941 0.0
H1682 H 0.17103 0.72814 0.67682 0.0
H1683 H 0.11097 0.71932 0.59737 0.0
H1684 H 0.14783 0.68724 0.7023 0.0
H1685 H 0.08745 0.67737 0.62339 0.0
H1686 H 0.05208 0.60888 0.72603 0.0
H1687 H 0.07035 0.65091 0.70049 0.0
H1688 H 0.13332 0.6488 0.65817 0.0
H1689 H 0.11574 0.60786 0.68311 0.0
C1690 C 0.15284 0.71753 0.66452 0.0
C1691 C 0.14311 0.72715 0.63423 0.0
C1692 C 0.13949 0.69394 0.6794 0.0
C1693 C 0.11588 0.679 0.66465 0.0
C1694 C 0.10562 0.68855 0.63543 0.0
C1695 C 0.11916 0.71245 0.6202 0.0
C1696 C 0.06987 0.61751 0.71152 0.0
C1697 C 0.0825 0.60492 0.70748 0.0
C1698 C 0.08019 0.64144 0.69648 0.0
C1699 C 0.10334 0.65318 0.67761 0.0
C1700 C 0.11561 0.64042 0.67308 0.0
C1701 C 0.10542 0.61679 0.68765 0.0
H1702 H 0.38683 0.4494 0.76852 0.0
H1703 H 0.40293 0.48029 0.63624 0.0
H1704 H 0.3447 0.42337 0.74616 0.0
H1705 H 0.36136 0.45439 0.61399 0.0
H1706 H 0.28653 0.39409 0.5779 0.0
H1707 H 0.32852 0.41094 0.60162 0.0
H1708 H 0.31237 0.43373 0.72617 0.0
H1709 H 0.27092 0.41731 0.70254 0.0
C1710 C 0.38148 0.45033 0.73457 0.0
C1711 C 0.39811 0.46709 0.70435 0.0
C1712 C 0.3574 0.43552 0.72178 0.0
C1713 C 0.34969 0.43682 0.67824 0.0
C1714 C 0.36669 0.45273 0.64755 0.0
C1715 C 0.3905 0.46776 0.66052 0.0
C1716 C 0.29193 0.4024 0.61055 0.0
C1717 C 0.27546 0.40463 0.63805 0.0
C1718 C 0.31594 0.41208 0.62411 0.0
C1719 C 0.32377 0.42367 0.66583 0.0
C1720 C 0.30694 0.42474 0.6941 0.0
C1721 C 0.28319 0.41552 0.68027 0.0
H1722 H 0.11452 0.38069 0.64608 0.0
H1723 H 0.17477 0.45113 0.61885 0.0
H1724 H 0.08992 0.39878 0.66383 0.0
H1725 H 0.15085 0.46913 0.63838 0.0
H1726 H 0.0634 0.44358 0.74405 0.0
H1727 H 0.08389 0.42203 0.71914 0.0
H1728 H 0.12002 0.47548 0.61625 0.0
H1729 H 0.10056 0.49722 0.64277 0.0
C1730 C 0.12249 0.39999 0.64355 0.0
C1731 C 0.14667 0.41439 0.63091 0.0
C1732 C 0.10845 0.41041 0.65422 0.0
C1733 C 0.11827 0.4355 0.65269 0.0
C1734 C 0.14234 0.44974 0.6392 0.0
C1735 C 0.15623 0.43936 0.62819 0.0
C1736 C 0.07564 0.45047 0.71599 0.0
C1737 C 0.08069 0.47212 0.6956 0.0
C1738 C 0.08731 0.43812 0.70147 0.0
C1739 C 0.10399 0.44712 0.66595 0.0
C1740 C 0.10794 0.46826 0.64447 0.0
C1741 C 0.09665 0.48069 0.6594 0.0
H1742 H 0.55919 0.60977 0.69752 0.0
H1743 H 0.49377 0.61291 0.69718 0.0
H1744 H 0.58205 0.65275 0.68037 0.0
H1745 H 0.51586 0.6547 0.67728 0.0
H1746 H 0.55941 0.73378 0.67925 0.0
H1747 H 0.54045 0.69235 0.70269 0.0
H1748 H 0.5925 0.6831 0.62684 0.0
H1749 H 0.61261 0.72572 0.60596 0.0
C1750 C 0.54968 0.61959 0.69387 0.0
C1751 C 0.52461 0.60783 0.69927 0.0
C1752 C 0.56275 0.64423 0.68351 0.0
C1753 C 0.55101 0.65759 0.67761 0.0
C1754 C 0.5259 0.64556 0.68281 0.0
C1755 C 0.51303 0.62127 0.69401 0.0
C1756 C 0.56676 0.72289 0.66731 0.0
C1757 C 0.5872 0.73288 0.63996 0.0
C1758 C 0.55577 0.69893 0.68062 0.0
C1759 C 0.5644 0.68383 0.66593 0.0
C1760 C 0.58528 0.69401 0.63915 0.0
C1761 C 0.59673 0.71839 0.62676 0.0
H1762 H 0.27637 0.89291 0.66257 0.0
H1763 H 0.28483 0.83422 0.61478 0.0
H1764 H 0.31937 0.91611 0.67814 0.0
H1765 H 0.32678 0.85615 0.63351 0.0
H1766 H 0.40529 0.90321 0.64117 0.0
H1767 H 0.364 0.88563 0.61685 0.0
H1768 H 0.34996 0.92121 0.72586 0.0
H1769 H 0.39234 0.94045 0.74764 0.0
C1770 C 0.28737 0.88495 0.65525 0.0
C1771 C 0.27698 0.86159 0.63752 0.0
C1772 C 0.31206 0.89816 0.66477 0.0
C1773 C 0.32694 0.88819 0.65744 0.0
C1774 C 0.31641 0.86495 0.63888 0.0
C1775 C 0.29201 0.85208 0.6285 0.0
C1776 C 0.39334 0.90731 0.65981 0.0
C1777 C 0.40185 0.92288 0.69664 0.0
C1778 C 0.36948 0.89705 0.64612 0.0
C1779 C 0.35309 0.90136 0.66982 0.0
C1780 C 0.36187 0.91748 0.70633 0.0
C1781 C 0.38611 0.92839 0.71921 0.0
loop_
_geom_bond_atom_site_label_1
_geom_bond_atom_site_label_2
_geom_bond_distance
_geom_bond_site_symmetry_2
_ccdc_geom_bond_type
Co0 O2 2.143 . S
Co0 O8 2.074 1_554 S
Co0 O11 2.093 . S
Co0 O24 2.097 . S
Co0 N41 2.151 . S
Co0 N49 2.214 . S
Co1 O2 2.160 . S
Co1 O7 2.058 1_554 S
Co1 O17 2.057 . S
Co1 O32 2.037 . S
Co1 N36 2.145 1_554 S
Co1 N57 2.257 . S
O2 Co0 2.143 . S
O2 Co1 2.160 . S
C3 O4 1.278 . S
C3 O11 1.224 . S
O4 C3 1.278 . S
C5 O6 1.245 . S
C5 O17 1.232 . S
O6 C5 1.245 . S
O7 Co1 2.058 1_556 S
O7 C33 1.269 . S
O8 Co0 2.074 1_556 S
O8 C33 1.257 . S
H9 C34 0.930 . S
H10 C40 0.930 . S
O11 Co0 2.093 . S
O11 C3 1.224 . S
H12 C44 0.929 . S
H13 C46 0.930 . S
H14 C47 0.930 . S
H15 C45 0.929 . S
H16 C48 0.928 . S
O17 Co1 2.057 . S
O17 C5 1.232 . S
H18 C37 0.929 . S
H19 C38 0.929 . S
H20 C50 0.931 . S
H21 C42 0.929 . S
H22 C51 0.930 . S
H23 C43 0.931 . S
O24 Co0 2.097 . S
O24 C52 1.214 . S
H25 C53 0.929 . S
H26 C54 0.929 . S
H27 C55 0.930 . S
H28 C56 0.929 . S
H29 C58 0.930 . S
H30 C35 0.930 . S
H31 C39 0.930 . S
O32 Co1 2.037 . S
O32 C52 1.234 . S
C33 O7 1.269 . S
C33 O8 1.257 . S
C34 H9 0.930 . S
C34 C37 1.388 . S
C34 C39 1.418 . S
C35 H30 0.930 . S
C35 C38 1.404 . S
C35 C39 1.353 . S
N36 Co1 2.145 1_556 S
N36 C37 1.397 . S
N36 C38 1.334 . S
C37 H18 0.929 . S
C37 C34 1.388 . S
C37 N36 1.397 . S
C38 H19 0.929 . S
C38 C35 1.404 . S
C38 N36 1.334 . S
C39 H31 0.930 . S
C39 C34 1.418 . S
C39 C35 1.353 . S
C40 H10 0.930 . S
C40 N41 1.330 . S
C40 C42 1.446 . S
N41 Co0 2.151 . S
N41 C40 1.330 . S
N41 C45 1.418 . S
C42 H21 0.929 . S
C42 C40 1.446 . S
C42 C43 1.332 . S
C43 H23 0.931 . S
C43 C42 1.332 . S
C43 C44 1.267 . S
C44 H12 0.929 . S
C44 C43 1.267 . S
C44 C45 1.251 . S
C45 H15 0.929 . S
C45 N41 1.418 . S
C45 C44 1.251 . S
C46 H13 0.930 . S
C46 C48 1.406 . S
C46 C51 1.261 . S
C47 H14 0.930 . S
C47 N49 1.325 . S
C47 C50 1.357 . S
C48 H16 0.928 . S
C48 C46 1.406 . S
C48 N49 1.261 . S
N49 Co0 2.214 . S
N49 C47 1.325 . S
N49 C48 1.261 . S
C50 H20 0.931 . S
C50 C47 1.357 . S
C50 C51 1.312 . S
C51 H22 0.930 . S
C51 C46 1.261 . S
C51 C50 1.312 . S
C52 O24 1.214 . S
C52 O32 1.234 . S
C53 H25 0.929 . S
C53 C56 1.391 . S
C53 C58 1.391 . S
C54 H26 0.929 . S
C54 C55 1.390 . S
C54 N57 1.391 . S
C55 H27 0.930 . S
C55 C54 1.390 . S
C55 C56 1.392 . S
C56 H28 0.929 . S
C56 C53 1.391 . S
C56 C55 1.392 . S
N57 Co1 2.257 . S
N57 C54 1.391 . S
N57 C58 1.388 . S
C58 H29 0.930 . S
C58 C53 1.391 . S
C58 N57 1.388 . S
Co59 O61 2.143 . S
Co59 O67 2.074 . S
Co59 O70 2.093 . S
Co59 O83 2.097 1_554 S
Co59 N100 2.151 . S
Co59 N108 2.214 1_554 S
Co60 O61 2.160 . S
Co60 O66 2.058 . S
Co60 O76 2.057 . S
Co60 O91 2.037 1_554 S
Co60 N95 2.145 . S
Co60 N116 2.257 . S
O61 Co59 2.143 . S
O61 Co60 2.160 . S
C62 O63 1.278 . S
C62 O70 1.224 . S
O63 C62 1.278 . S
C64 O65 1.245 . S
C64 O76 1.232 . S
O65 C64 1.245 . S
O66 Co60 2.058 . S
O66 C92 1.269 . S
O67 Co59 2.074 . S
O67 C92 1.257 . S
H68 C93 0.930 . S
H69 C99 0.930 . S
O70 Co59 2.093 . S
O70 C62 1.224 . S
H71 C103 0.929 . S
H72 C105 0.930 . S
H73 C106 0.930 . S
H74 C104 0.929 . S
H75 C107 0.928 . S
O76 Co60 2.057 . S
O76 C64 1.232 . S
H77 C96 0.929 . S
H78 C97 0.929 . S
H79 C109 0.931 . S
H80 C101 0.929 . S
H81 C110 0.930 . S
H82 C102 0.931 . S
O83 Co59 2.097 1_556 S
O83 C111 1.214 . S
H84 C112 0.929 . S
H85 C113 0.929 . S
H86 C114 0.930 . S
H87 C115 0.929 . S
H88 C117 0.930 . S
H89 C94 0.930 . S
H90 C98 0.930 . S
O91 Co60 2.037 1_556 S
O91 C111 1.234 . S
C92 O66 1.269 . S
C92 O67 1.257 . S
C93 H68 0.930 . S
C93 C96 1.388 . S
C93 C98 1.418 . S
C94 H89 0.930 . S
C94 C97 1.404 . S
C94 C98 1.353 . S
N95 Co60 2.145 . S
N95 C96 1.397 . S
N95 C97 1.334 . S
C96 H77 0.929 . S
C96 C93 1.388 . S
C96 N95 1.397 . S
C97 H78 0.929 . S
C97 C94 1.404 . S
C97 N95 1.334 . S
C98 H90 0.930 . S
C98 C93 1.418 . S
C98 C94 1.353 . S
C99 H69 0.930 . S
C99 N100 1.330 . S
C99 C101 1.446 . S
N100 Co59 2.151 . S
N100 C99 1.330 . S
N100 C104 1.418 . S
C101 H80 0.929 . S
C101 C99 1.446 . S
C101 C102 1.332 . S
C102 H82 0.931 . S
C102 C101 1.332 . S
C102 C103 1.267 . S
C103 H71 0.929 . S
C103 C102 1.267 . S
C103 C104 1.251 . S
C104 H74 0.929 . S
C104 N100 1.418 . S
C104 C103 1.251 . S
C105 H72 0.930 . S
C105 C107 1.406 . S
C105 C110 1.261 . S
C106 H73 0.930 . S
C106 N108 1.325 . S
C106 C109 1.357 . S
C107 H75 0.928 . S
C107 C105 1.406 . S
C107 N108 1.261 . S
N108 Co59 2.214 1_556 S
N108 C106 1.325 . S
N108 C107 1.261 . S
C109 H79 0.931 . S
C109 C106 1.357 . S
C109 C110 1.312 . S
C110 H81 0.930 . S
C110 C105 1.261 . S
C110 C109 1.312 . S
C111 O83 1.214 . S
C111 O91 1.234 . S
C112 H84 0.929 . S
C112 C115 1.391 . S
C112 C117 1.391 . S
C113 H85 0.929 . S
C113 C114 1.390 . S
C113 N116 1.391 . S
C114 H86 0.930 . S
C114 C113 1.390 . S
C114 C115 1.392 . S
C115 H87 0.929 . S
C115 C112 1.391 . S
C115 C114 1.392 . S
N116 Co60 2.257 . S
N116 C113 1.391 . S
N116 C117 1.388 . S
C117 H88 0.930 . S
C117 C112 1.391 . S
C117 N116 1.388 . S
Co118 O120 2.143 . S
Co118 O126 2.074 . S
Co118 O129 2.093 . S
Co118 O142 2.097 1_554 S
Co118 N159 2.151 . S
Co118 N167 2.214 1_554 S
Co119 O120 2.160 . S
Co119 O125 2.058 . S
Co119 O135 2.057 . S
Co119 O150 2.037 1_554 S
Co119 N154 2.145 . S
Co119 N175 2.257 . S
O120 Co118 2.143 . S
O120 Co119 2.160 . S
C121 O122 1.278 . S
C121 O129 1.224 . S
O122 C121 1.278 . S
C123 O124 1.245 . S
C123 O135 1.232 . S
O124 C123 1.245 . S
O125 Co119 2.058 . S
O125 C151 1.269 . S
O126 Co118 2.074 . S
O126 C151 1.257 . S
H127 C152 0.930 . S
H128 C158 0.930 . S
O129 Co118 2.093 . S
O129 C121 1.224 . S
H130 C162 0.929 . S
H131 C164 0.930 . S
H132 C165 0.930 . S
H133 C163 0.929 . S
H134 C166 0.928 . S
O135 Co119 2.057 . S
O135 C123 1.232 . S
H136 C155 0.929 . S
H137 C156 0.929 . S
H138 C168 0.931 . S
H139 C160 0.929 . S
H140 C169 0.930 . S
H141 C161 0.931 . S
O142 Co118 2.097 1_556 S
O142 C170 1.214 . S
H143 C171 0.929 . S
H144 C172 0.929 . S
H145 C173 0.930 . S
H146 C174 0.929 . S
H147 C176 0.930 . S
H148 C153 0.930 . S
H149 C157 0.930 . S
O150 Co119 2.037 1_556 S
O150 C170 1.234 . S
C151 O125 1.269 . S
C151 O126 1.257 . S
C152 H127 0.930 . S
C152 C155 1.388 . S
C152 C157 1.418 . S
C153 H148 0.930 . S
C153 C156 1.404 . S
C153 C157 1.353 . S
N154 Co119 2.145 . S
N154 C155 1.397 . S
N154 C156 1.334 . S
C155 H136 0.929 . S
C155 C152 1.388 . S
C155 N154 1.397 . S
C156 H137 0.929 . S
C156 C153 1.404 . S
C156 N154 1.334 . S
C157 H149 0.930 . S
C157 C152 1.418 . S
C157 C153 1.353 . S
C158 H128 0.930 . S
C158 N159 1.330 . S
C158 C160 1.446 . S
N159 Co118 2.151 . S
N159 C158 1.330 . S
N159 C163 1.418 . S
C160 H139 0.929 . S
C160 C158 1.446 . S
C160 C161 1.332 . S
C161 H141 0.931 . S
C161 C160 1.332 . S
C161 C162 1.267 . S
C162 H130 0.929 . S
C162 C161 1.267 . S
C162 C163 1.251 . S
C163 H133 0.929 . S
C163 N159 1.418 . S
C163 C162 1.251 . S
C164 H131 0.930 . S
C164 C166 1.406 . S
C164 C169 1.261 . S
C165 H132 0.930 . S
C165 N167 1.325 . S
C165 C168 1.357 . S
C166 H134 0.928 . S
C166 C164 1.406 . S
C166 N167 1.261 . S
N167 Co118 2.214 1_556 S
N167 C165 1.325 . S
N167 C166 1.261 . S
C168 H138 0.931 . S
C168 C165 1.357 . S
C168 C169 1.312 . S
C169 H140 0.930 . S
C169 C164 1.261 . S
C169 C168 1.312 . S
C170 O142 1.214 . S
C170 O150 1.234 . S
C171 H143 0.929 . S
C171 C174 1.391 . S
C171 C176 1.391 . S
C172 H144 0.929 . S
C172 C173 1.390 . S
C172 N175 1.391 . S
C173 H145 0.930 . S
C173 C172 1.390 . S
C173 C174 1.392 . S
C174 H146 0.929 . S
C174 C171 1.391 . S
C174 C173 1.392 . S
N175 Co119 2.257 . S
N175 C172 1.391 . S
N175 C176 1.388 . S
C176 H147 0.930 . S
C176 C171 1.391 . S
C176 N175 1.388 . S
Co177 O179 2.143 . S
Co177 O185 2.074 . S
Co177 O188 2.093 . S
Co177 O201 2.097 1_556 S
Co177 N218 2.151 . S
Co177 N226 2.214 1_556 S
Co178 O179 2.160 . S
Co178 O184 2.058 . S
Co178 O194 2.057 . S
Co178 O209 2.037 1_556 S
Co178 N213 2.145 . S
Co178 N234 2.257 . S
O179 Co177 2.143 . S
O179 Co178 2.160 . S
C180 O181 1.278 . S
C180 O188 1.224 . S
O181 C180 1.278 . S
C182 O183 1.245 . S
C182 O194 1.232 . S
O183 C182 1.245 . S
O184 Co178 2.058 . S
O184 C210 1.269 . S
O185 Co177 2.074 . S
O185 C210 1.257 . S
H186 C211 0.930 . S
H187 C217 0.930 . S
O188 Co177 2.093 . S
O188 C180 1.224 . S
H189 C221 0.929 . S
H190 C223 0.930 . S
H191 C224 0.930 . S
H192 C222 0.929 . S
H193 C225 0.928 . S
O194 Co178 2.057 . S
O194 C182 1.232 . S
H195 C214 0.929 . S
H196 C215 0.929 . S
H197 C227 0.931 . S
H198 C219 0.929 . S
H199 C228 0.930 . S
H200 C220 0.931 . S
O201 Co177 2.097 1_554 S
O201 C229 1.214 . S
H202 C230 0.929 . S
H203 C231 0.929 . S
H204 C232 0.930 . S
H205 C233 0.929 . S
H206 C235 0.930 . S
H207 C212 0.930 . S
H208 C216 0.930 . S
O209 Co178 2.037 1_554 S
O209 C229 1.234 . S
C210 O184 1.269 . S
C210 O185 1.257 . S
C211 H186 0.930 . S
C211 C214 1.388 . S
C211 C216 1.418 . S
C212 H207 0.930 . S
C212 C215 1.404 . S
C212 C216 1.353 . S
N213 Co178 2.145 . S
N213 C214 1.397 . S
N213 C215 1.334 . S
C214 H195 0.929 . S
C214 C211 1.388 . S
C214 N213 1.397 . S
C215 H196 0.929 . S
C215 C212 1.404 . S
C215 N213 1.334 . S
C216 H208 0.930 . S
C216 C211 1.418 . S
C216 C212 1.353 . S
C217 H187 0.930 . S
C217 N218 1.330 . S
C217 C219 1.446 . S
N218 Co177 2.151 . S
N218 C217 1.330 . S
N218 C222 1.418 . S
C219 H198 0.929 . S
C219 C217 1.446 . S
C219 C220 1.332 . S
C220 H200 0.931 . S
C220 C219 1.332 . S
C220 C221 1.267 . S
C221 H189 0.929 . S
C221 C220 1.267 . S
C221 C222 1.251 . S
C222 H192 0.929 . S
C222 N218 1.418 . S
C222 C221 1.251 . S
C223 H190 0.930 . S
C223 C225 1.406 . S
C223 C228 1.261 . S
C224 H191 0.930 . S
C224 N226 1.325 . S
C224 C227 1.357 . S
C225 H193 0.928 . S
C225 C223 1.406 . S
C225 N226 1.261 . S
N226 Co177 2.214 1_554 S
N226 C224 1.325 . S
N226 C225 1.261 . S
C227 H197 0.931 . S
C227 C224 1.357 . S
C227 C228 1.312 . S
C228 H199 0.930 . S
C228 C223 1.261 . S
C228 C227 1.312 . S
C229 O201 1.214 . S
C229 O209 1.234 . S
C230 H202 0.929 . S
C230 C233 1.391 . S
C230 C235 1.391 . S
C231 H203 0.929 . S
C231 C232 1.390 . S
C231 N234 1.391 . S
C232 H204 0.930 . S
C232 C231 1.390 . S
C232 C233 1.392 . S
C233 H205 0.929 . S
C233 C230 1.391 . S
C233 C232 1.392 . S
N234 Co178 2.257 . S
N234 C231 1.391 . S
N234 C235 1.388 . S
C235 H206 0.930 . S
C235 C230 1.391 . S
C235 N234 1.388 . S
Co236 O238 2.143 . S
Co236 O244 2.074 . S
Co236 O247 2.093 . S
Co236 O260 2.097 1_556 S
Co236 N277 2.151 . S
Co236 N285 2.214 1_556 S
Co237 O238 2.160 . S
Co237 O243 2.058 . S
Co237 O253 2.057 . S
Co237 O268 2.037 1_556 S
Co237 N272 2.145 . S
Co237 N293 2.257 . S
O238 Co236 2.143 . S
O238 Co237 2.160 . S
C239 O240 1.278 . S
C239 O247 1.224 . S
O240 C239 1.278 . S
C241 O242 1.245 . S
C241 O253 1.232 . S
O242 C241 1.245 . S
O243 Co237 2.058 . S
O243 C269 1.269 . S
O244 Co236 2.074 . S
O244 C269 1.257 . S
H245 C270 0.930 . S
H246 C276 0.930 . S
O247 Co236 2.093 . S
O247 C239 1.224 . S
H248 C280 0.929 . S
H249 C282 0.930 . S
H250 C283 0.930 . S
H251 C281 0.929 . S
H252 C284 0.928 . S
O253 Co237 2.057 . S
O253 C241 1.232 . S
H254 C273 0.929 . S
H255 C274 0.929 . S
H256 C286 0.931 . S
H257 C278 0.929 . S
H258 C287 0.930 . S
H259 C279 0.931 . S
O260 Co236 2.097 1_554 S
O260 C288 1.214 . S
H261 C289 0.929 . S
H262 C290 0.929 . S
H263 C291 0.930 . S
H264 C292 0.929 . S
H265 C294 0.930 . S
H266 C271 0.930 . S
H267 C275 0.930 . S
O268 Co237 2.037 1_554 S
O268 C288 1.234 . S
C269 O243 1.269 . S
C269 O244 1.257 . S
C270 H245 0.930 . S
C270 C273 1.388 . S
C270 C275 1.418 . S
C271 H266 0.930 . S
C271 C274 1.404 . S
C271 C275 1.353 . S
N272 Co237 2.145 . S
N272 C273 1.397 . S
N272 C274 1.334 . S
C273 H254 0.929 . S
C273 C270 1.388 . S
C273 N272 1.397 . S
C274 H255 0.929 . S
C274 C271 1.404 . S
C274 N272 1.334 . S
C275 H267 0.930 . S
C275 C270 1.418 . S
C275 C271 1.353 . S
C276 H246 0.930 . S
C276 N277 1.330 . S
C276 C278 1.446 . S
N277 Co236 2.151 . S
N277 C276 1.330 . S
N277 C281 1.418 . S
C278 H257 0.929 . S
C278 C276 1.446 . S
C278 C279 1.332 . S
C279 H259 0.931 . S
C279 C278 1.332 . S
C279 C280 1.267 . S
C280 H248 0.929 . S
C280 C279 1.267 . S
C280 C281 1.251 . S
C281 H251 0.929 . S
C281 N277 1.418 . S
C281 C280 1.251 . S
C282 H249 0.930 . S
C282 C284 1.406 . S
C282 C287 1.261 . S
C283 H250 0.930 . S
C283 N285 1.325 . S
C283 C286 1.357 . S
C284 H252 0.928 . S
C284 C282 1.406 . S
C284 N285 1.261 . S
N285 Co236 2.214 1_554 S
N285 C283 1.325 . S
N285 C284 1.261 . S
C286 H256 0.931 . S
C286 C283 1.357 . S
C286 C287 1.312 . S
C287 H258 0.930 . S
C287 C282 1.261 . S
C287 C286 1.312 . S
C288 O260 1.214 . S
C288 O268 1.234 . S
C289 H261 0.929 . S
C289 C292 1.391 . S
C289 C294 1.391 . S
C290 H262 0.929 . S
C290 C291 1.390 . S
C290 N293 1.391 . S
C291 H263 0.930 . S
C291 C290 1.390 . S
C291 C292 1.392 . S
C292 H264 0.929 . S
C292 C289 1.391 . S
C292 C291 1.392 . S
N293 Co237 2.257 . S
N293 C290 1.391 . S
N293 C294 1.388 . S
C294 H265 0.930 . S
C294 C289 1.391 . S
C294 N293 1.388 . S
Co295 O297 2.143 . S
Co295 O303 2.074 1_556 S
Co295 O306 2.093 . S
Co295 O319 2.097 . S
Co295 N336 2.151 . S
Co295 N344 2.214 . S
Co296 O297 2.160 . S
Co296 O302 2.058 1_556 S
Co296 O312 2.057 . S
Co296 O327 2.037 . S
Co296 N331 2.145 1_556 S
Co296 N352 2.257 . S
O297 Co295 2.143 . S
O297 Co296 2.160 . S
C298 O299 1.278 . S
C298 O306 1.224 . S
O299 C298 1.278 . S
C300 O301 1.245 . S
C300 O312 1.232 . S
O301 C300 1.245 . S
O302 Co296 2.058 1_554 S
O302 C328 1.269 . S
O303 Co295 2.074 1_554 S
O303 C328 1.257 . S
H304 C329 0.930 . S
H305 C335 0.930 . S
O306 Co295 2.093 . S
O306 C298 1.224 . S
H307 C339 0.929 . S
H308 C341 0.930 . S
H309 C342 0.930 . S
H310 C340 0.929 . S
H311 C343 0.928 . S
O312 Co296 2.057 . S
O312 C300 1.232 . S
H313 C332 0.929 . S
H314 C333 0.929 . S
H315 C345 0.931 . S
H316 C337 0.929 . S
H317 C346 0.930 . S
H318 C338 0.931 . S
O319 Co295 2.097 . S
O319 C347 1.214 . S
H320 C348 0.929 . S
H321 C349 0.929 . S
H322 C350 0.930 . S
H323 C351 0.929 . S
H324 C353 0.930 . S
H325 C330 0.930 . S
H326 C334 0.930 . S
O327 Co296 2.037 . S
O327 C347 1.234 . S
C328 O302 1.269 . S
C328 O303 1.257 . S
C329 H304 0.930 . S
C329 C332 1.388 . S
C329 C334 1.418 . S
C330 H325 0.930 . S
C330 C333 1.404 . S
C330 C334 1.353 . S
N331 Co296 2.145 1_554 S
N331 C332 1.397 . S
N331 C333 1.334 . S
C332 H313 0.929 . S
C332 C329 1.388 . S
C332 N331 1.397 . S
C333 H314 0.929 . S
C333 C330 1.404 . S
C333 N331 1.334 . S
C334 H326 0.930 . S
C334 C329 1.418 . S
C334 C330 1.353 . S
C335 H305 0.930 . S
C335 N336 1.330 . S
C335 C337 1.446 . S
N336 Co295 2.151 . S
N336 C335 1.330 . S
N336 C340 1.418 . S
C337 H316 0.929 . S
C337 C335 1.446 . S
C337 C338 1.332 . S
C338 H318 0.931 . S
C338 C337 1.332 . S
C338 C339 1.267 . S
C339 H307 0.929 . S
C339 C338 1.267 . S
C339 C340 1.251 . S
C340 H310 0.929 . S
C340 N336 1.418 . S
C340 C339 1.251 . S
C341 H308 0.930 . S
C341 C343 1.406 . S
C341 C346 1.261 . S
C342 H309 0.930 . S
C342 N344 1.325 . S
C342 C345 1.357 . S
C343 H311 0.928 . S
C343 C341 1.406 . S
C343 N344 1.261 . S
N344 Co295 2.214 . S
N344 C342 1.325 . S
N344 C343 1.261 . S
C345 H315 0.931 . S
C345 C342 1.357 . S
C345 C346 1.312 . S
C346 H317 0.930 . S
C346 C341 1.261 . S
C346 C345 1.312 . S
C347 O319 1.214 . S
C347 O327 1.234 . S
C348 H320 0.929 . S
C348 C351 1.391 . S
C348 C353 1.391 . S
C349 H321 0.929 . S
C349 C350 1.390 . S
C349 N352 1.391 . S
C350 H322 0.930 . S
C350 C349 1.390 . S
C350 C351 1.392 . S
C351 H323 0.929 . S
C351 C348 1.391 . S
C351 C350 1.392 . S
N352 Co296 2.257 . S
N352 C349 1.391 . S
N352 C353 1.388 . S
C353 H324 0.930 . S
C353 C348 1.391 . S
C353 N352 1.388 . S
Co354 O356 2.143 . S
Co354 O362 2.074 . S
Co354 O365 2.093 . S
Co354 O378 2.097 . S
Co354 N395 2.151 . S
Co354 N403 2.214 . S
Co355 O356 2.160 . S
Co355 O361 2.058 . S
Co355 O371 2.057 . S
Co355 O386 2.037 . S
Co355 N390 2.145 . S
Co355 N411 2.257 . S
O356 Co354 2.143 . S
O356 Co355 2.160 . S
C357 O358 1.278 . S
C357 O365 1.224 . S
O358 C357 1.278 . S
C359 O360 1.245 . S
C359 O371 1.232 . S
O360 C359 1.245 . S
O361 Co355 2.058 . S
O361 C387 1.269 . S
O362 Co354 2.074 . S
O362 C387 1.257 . S
H363 C388 0.930 . S
H364 C394 0.930 . S
O365 Co354 2.093 . S
O365 C357 1.224 . S
H366 C398 0.929 . S
H367 C400 0.930 . S
H368 C401 0.930 . S
H369 C399 0.929 . S
H370 C402 0.928 . S
O371 Co355 2.057 . S
O371 C359 1.232 . S
H372 C391 0.929 . S
H373 C392 0.929 . S
H374 C404 0.931 . S
H375 C396 0.929 . S
H376 C405 0.930 . S
H377 C397 0.931 . S
O378 Co354 2.097 . S
O378 C406 1.214 . S
H379 C407 0.929 . S
H380 C408 0.929 . S
H381 C409 0.930 . S
H382 C410 0.929 . S
H383 C412 0.930 . S
H384 C389 0.930 . S
H385 C393 0.930 . S
O386 Co355 2.037 . S
O386 C406 1.234 . S
C387 O361 1.269 . S
C387 O362 1.257 . S
C388 H363 0.930 . S
C388 C391 1.388 . S
C388 C393 1.418 . S
C389 H384 0.930 . S
C389 C392 1.404 . S
C389 C393 1.353 . S
N390 Co355 2.145 . S
N390 C391 1.397 . S
N390 C392 1.334 . S
C391 H372 0.929 . S
C391 C388 1.388 . S
C391 N390 1.397 . S
C392 H373 0.929 . S
C392 C389 1.404 . S
C392 N390 1.334 . S
C393 H385 0.930 . S
C393 C388 1.418 . S
C393 C389 1.353 . S
C394 H364 0.930 . S
C394 N395 1.330 . S
C394 C396 1.446 . S
N395 Co354 2.151 . S
N395 C394 1.330 . S
N395 C399 1.418 . S
C396 H375 0.929 . S
C396 C394 1.446 . S
C396 C397 1.332 . S
C397 H377 0.931 . S
C397 C396 1.332 . S
C397 C398 1.267 . S
C398 H366 0.929 . S
C398 C397 1.267 . S
C398 C399 1.251 . S
C399 H369 0.929 . S
C399 N395 1.418 . S
C399 C398 1.251 . S
C400 H367 0.930 . S
C400 C402 1.406 . S
C400 C405 1.261 . S
C401 H368 0.930 . S
C401 N403 1.325 . S
C401 C404 1.357 . S
C402 H370 0.928 . S
C402 C400 1.406 . S
C402 N403 1.261 . S
N403 Co354 2.214 . S
N403 C401 1.325 . S
N403 C402 1.261 . S
C404 H374 0.931 . S
C404 C401 1.357 . S
C404 C405 1.312 . S
C405 H376 0.930 . S
C405 C400 1.261 . S
C405 C404 1.312 . S
C406 O378 1.214 . S
C406 O386 1.234 . S
C407 H379 0.929 . S
C407 C410 1.391 . S
C407 C412 1.391 . S
C408 H380 0.929 . S
C408 C409 1.390 . S
C408 N411 1.391 . S
C409 H381 0.930 . S
C409 C408 1.390 . S
C409 C410 1.392 . S
C410 H382 0.929 . S
C410 C407 1.391 . S
C410 C409 1.392 . S
N411 Co355 2.257 . S
N411 C408 1.391 . S
N411 C412 1.388 . S
C412 H383 0.930 . S
C412 C407 1.391 . S
C412 N411 1.388 . S
Co413 O415 2.143 . S
Co413 O421 2.074 . S
Co413 O424 2.093 . S
Co413 O437 2.097 . S
Co413 N454 2.151 . S
Co413 N462 2.214 . S
Co414 O415 2.160 . S
Co414 O420 2.058 . S
Co414 O430 2.057 . S
Co414 O445 2.037 . S
Co414 N449 2.145 . S
Co414 N470 2.257 . S
O415 Co413 2.143 . S
O415 Co414 2.160 . S
C416 O417 1.278 . S
C416 O424 1.224 . S
O417 C416 1.278 . S
C418 O419 1.245 . S
C418 O430 1.232 . S
O419 C418 1.245 . S
O420 Co414 2.058 . S
O420 C446 1.269 . S
O421 Co413 2.074 . S
O421 C446 1.257 . S
H422 C447 0.930 . S
H423 C453 0.930 . S
O424 Co413 2.093 . S
O424 C416 1.224 . S
H425 C457 0.929 . S
H426 C459 0.930 . S
H427 C460 0.930 . S
H428 C458 0.929 . S
H429 C461 0.928 . S
O430 Co414 2.057 . S
O430 C418 1.232 . S
H431 C450 0.929 . S
H432 C451 0.929 . S
H433 C463 0.931 . S
H434 C455 0.929 . S
H435 C464 0.930 . S
H436 C456 0.931 . S
O437 Co413 2.097 . S
O437 C465 1.214 . S
H438 C466 0.929 . S
H439 C467 0.929 . S
H440 C468 0.930 . S
H441 C469 0.929 . S
H442 C471 0.930 . S
H443 C448 0.930 . S
H444 C452 0.930 . S
O445 Co414 2.037 . S
O445 C465 1.234 . S
C446 O420 1.269 . S
C446 O421 1.257 . S
C447 H422 0.930 . S
C447 C450 1.388 . S
C447 C452 1.418 . S
C448 H443 0.930 . S
C448 C451 1.404 . S
C448 C452 1.353 . S
N449 Co414 2.145 . S
N449 C450 1.397 . S
N449 C451 1.334 . S
C450 H431 0.929 . S
C450 C447 1.388 . S
C450 N449 1.397 . S
C451 H432 0.929 . S
C451 C448 1.404 . S
C451 N449 1.334 . S
C452 H444 0.930 . S
C452 C447 1.418 . S
C452 C448 1.353 . S
C453 H423 0.930 . S
C453 N454 1.330 . S
C453 C455 1.446 . S
N454 Co413 2.151 . S
N454 C453 1.330 . S
N454 C458 1.418 . S
C455 H434 0.929 . S
C455 C453 1.446 . S
C455 C456 1.332 . S
C456 H436 0.931 . S
C456 C455 1.332 . S
C456 C457 1.267 . S
C457 H425 0.929 . S
C457 C456 1.267 . S
C457 C458 1.251 . S
C458 H428 0.929 . S
C458 N454 1.418 . S
C458 C457 1.251 . S
C459 H426 0.930 . S
C459 C461 1.406 . S
C459 C464 1.261 . S
C460 H427 0.930 . S
C460 N462 1.325 . S
C460 C463 1.357 . S
C461 H429 0.928 . S
C461 C459 1.406 . S
C461 N462 1.261 . S
N462 Co413 2.214 . S
N462 C460 1.325 . S
N462 C461 1.261 . S
C463 H433 0.931 . S
C463 C460 1.357 . S
C463 C464 1.312 . S
C464 H435 0.930 . S
C464 C459 1.261 . S
C464 C463 1.312 . S
C465 O437 1.214 . S
C465 O445 1.234 . S
C466 H438 0.929 . S
C466 C469 1.391 . S
C466 C471 1.391 . S
C467 H439 0.929 . S
C467 C468 1.390 . S
C467 N470 1.391 . S
C468 H440 0.930 . S
C468 C467 1.390 . S
C468 C469 1.392 . S
C469 H441 0.929 . S
C469 C466 1.391 . S
C469 C468 1.392 . S
N470 Co414 2.257 . S
N470 C467 1.391 . S
N470 C471 1.388 . S
C471 H442 0.930 . S
C471 C466 1.391 . S
C471 N470 1.388 . S
Co472 O474 2.143 . S
Co472 O480 2.074 . S
Co472 O483 2.093 . S
Co472 O496 2.097 . S
Co472 N513 2.151 . S
Co472 N521 2.214 . S
Co473 O474 2.160 . S
Co473 O479 2.058 . S
Co473 O489 2.057 . S
Co473 O504 2.037 . S
Co473 N508 2.145 . S
Co473 N529 2.257 . S
O474 Co472 2.143 . S
O474 Co473 2.160 . S
C475 O476 1.278 . S
C475 O483 1.224 . S
O476 C475 1.278 . S
C477 O478 1.245 . S
C477 O489 1.232 . S
O478 C477 1.245 . S
O479 Co473 2.058 . S
O479 C505 1.269 . S
O480 Co472 2.074 . S
O480 C505 1.257 . S
H481 C506 0.930 . S
H482 C512 0.930 . S
O483 Co472 2.093 . S
O483 C475 1.224 . S
H484 C516 0.929 . S
H485 C518 0.930 . S
H486 C519 0.930 . S
H487 C517 0.929 . S
H488 C520 0.928 . S
O489 Co473 2.057 . S
O489 C477 1.232 . S
H490 C509 0.929 . S
H491 C510 0.929 . S
H492 C522 0.931 . S
H493 C514 0.929 . S
H494 C523 0.930 . S
H495 C515 0.931 . S
O496 Co472 2.097 . S
O496 C524 1.214 . S
H497 C525 0.929 . S
H498 C526 0.929 . S
H499 C527 0.930 . S
H500 C528 0.929 . S
H501 C530 0.930 . S
H502 C507 0.930 . S
H503 C511 0.930 . S
O504 Co473 2.037 . S
O504 C524 1.234 . S
C505 O479 1.269 . S
C505 O480 1.257 . S
C506 H481 0.930 . S
C506 C509 1.388 . S
C506 C511 1.418 . S
C507 H502 0.930 . S
C507 C510 1.404 . S
C507 C511 1.353 . S
N508 Co473 2.145 . S
N508 C509 1.397 . S
N508 C510 1.334 . S
C509 H490 0.929 . S
C509 C506 1.388 . S
C509 N508 1.397 . S
C510 H491 0.929 . S
C510 C507 1.404 . S
C510 N508 1.334 . S
C511 H503 0.930 . S
C511 C506 1.418 . S
C511 C507 1.353 . S
C512 H482 0.930 . S
C512 N513 1.330 . S
C512 C514 1.446 . S
N513 Co472 2.151 . S
N513 C512 1.330 . S
N513 C517 1.418 . S
C514 H493 0.929 . S
C514 C512 1.446 . S
C514 C515 1.332 . S
C515 H495 0.931 . S
C515 C514 1.332 . S
C515 C516 1.267 . S
C516 H484 0.929 . S
C516 C515 1.267 . S
C516 C517 1.251 . S
C517 H487 0.929 . S
C517 N513 1.418 . S
C517 C516 1.251 . S
C518 H485 0.930 . S
C518 C520 1.406 . S
C518 C523 1.261 . S
C519 H486 0.930 . S
C519 N521 1.325 . S
C519 C522 1.357 . S
C520 H488 0.928 . S
C520 C518 1.406 . S
C520 N521 1.261 . S
N521 Co472 2.214 . S
N521 C519 1.325 . S
N521 C520 1.261 . S
C522 H492 0.931 . S
C522 C519 1.357 . S
C522 C523 1.312 . S
C523 H494 0.930 . S
C523 C518 1.261 . S
C523 C522 1.312 . S
C524 O496 1.214 . S
C524 O504 1.234 . S
C525 H497 0.929 . S
C525 C528 1.391 . S
C525 C530 1.391 . S
C526 H498 0.929 . S
C526 C527 1.390 . S
C526 N529 1.391 . S
C527 H499 0.930 . S
C527 C526 1.390 . S
C527 C528 1.392 . S
C528 H500 0.929 . S
C528 C525 1.391 . S
C528 C527 1.392 . S
N529 Co473 2.257 . S
N529 C526 1.391 . S
N529 C530 1.388 . S
C530 H501 0.930 . S
C530 C525 1.391 . S
C530 N529 1.388 . S
Co531 O533 2.143 . S
Co531 O539 2.074 . S
Co531 O542 2.093 . S
Co531 O555 2.097 . S
Co531 N572 2.151 . S
Co531 N580 2.214 . S
Co532 O533 2.160 . S
Co532 O538 2.058 . S
Co532 O548 2.057 . S
Co532 O563 2.037 . S
Co532 N567 2.145 1_655 S
Co532 N588 2.257 1_655 S
O533 Co531 2.143 . S
O533 Co532 2.160 . S
C534 O535 1.278 . S
C534 O542 1.224 . S
O535 C534 1.278 . S
C536 O537 1.245 . S
C536 O548 1.232 . S
O537 C536 1.245 . S
O538 Co532 2.058 . S
O538 C564 1.269 . S
O539 Co531 2.074 . S
O539 C564 1.257 . S
H540 C565 0.930 . S
H541 C571 0.930 . S
O542 Co531 2.093 . S
O542 C534 1.224 . S
H543 C575 0.929 . S
H544 C577 0.930 . S
H545 C578 0.930 . S
H546 C576 0.929 . S
H547 C579 0.928 . S
O548 Co532 2.057 . S
O548 C536 1.232 . S
H549 C568 0.929 . S
H550 C569 0.929 . S
H551 C581 0.931 . S
H552 C573 0.929 . S
H553 C582 0.930 . S
H554 C574 0.931 . S
O555 Co531 2.097 . S
O555 C583 1.214 . S
H556 C584 0.929 . S
H557 C585 0.929 . S
H558 C586 0.930 . S
H559 C587 0.929 . S
H560 C589 0.930 1_655 S
H561 C566 0.930 . S
H562 C570 0.930 . S
O563 Co532 2.037 . S
O563 C583 1.234 . S
C564 O538 1.269 . S
C564 O539 1.257 . S
C565 H540 0.930 . S
C565 C568 1.388 . S
C565 C570 1.418 . S
C566 H561 0.930 . S
C566 C569 1.404 . S
C566 C570 1.353 . S
N567 Co532 2.145 1_455 S
N567 C568 1.397 . S
N567 C569 1.334 . S
C568 H549 0.929 . S
C568 C565 1.388 . S
C568 N567 1.397 . S
C569 H550 0.929 . S
C569 C566 1.404 . S
C569 N567 1.334 . S
C570 H562 0.930 . S
C570 C565 1.418 . S
C570 C566 1.353 . S
C571 H541 0.930 . S
C571 N572 1.330 . S
C571 C573 1.446 . S
N572 Co531 2.151 . S
N572 C571 1.330 . S
N572 C576 1.418 . S
C573 H552 0.929 . S
C573 C571 1.446 . S
C573 C574 1.332 . S
C574 H554 0.931 . S
C574 C573 1.332 . S
C574 C575 1.267 . S
C575 H543 0.929 . S
C575 C574 1.267 . S
C575 C576 1.251 . S
C576 H546 0.929 . S
C576 N572 1.418 . S
C576 C575 1.251 . S
C577 H544 0.930 . S
C577 C579 1.406 . S
C577 C582 1.261 . S
C578 H545 0.930 . S
C578 N580 1.325 . S
C578 C581 1.357 . S
C579 H547 0.928 . S
C579 C577 1.406 . S
C579 N580 1.261 . S
N580 Co531 2.214 . S
N580 C578 1.325 . S
N580 C579 1.261 . S
C581 H551 0.931 . S
C581 C578 1.357 . S
C581 C582 1.312 . S
C582 H553 0.930 . S
C582 C577 1.261 . S
C582 C581 1.312 . S
C583 O555 1.214 . S
C583 O563 1.234 . S
C584 H556 0.929 . S
C584 C587 1.391 . S
C584 C589 1.391 . S
C585 H557 0.929 . S
C585 C586 1.390 . S
C585 N588 1.391 . S
C586 H558 0.930 . S
C586 C585 1.390 . S
C586 C587 1.392 . S
C587 H559 0.929 . S
C587 C584 1.391 . S
C587 C586 1.392 . S
N588 Co532 2.257 1_455 S
N588 C585 1.391 . S
N588 C589 1.388 . S
C589 H560 0.930 1_455 S
C589 C584 1.391 . S
C589 N588 1.388 . S
Co590 O592 2.143 . S
Co590 O598 2.074 . S
Co590 O601 2.093 . S
Co590 O614 2.097 . S
Co590 N631 2.151 . S
Co590 N639 2.214 . S
Co591 O592 2.160 . S
Co591 O597 2.058 . S
Co591 O607 2.057 . S
Co591 O622 2.037 . S
Co591 N626 2.145 . S
Co591 N647 2.257 . S
O592 Co590 2.143 . S
O592 Co591 2.160 . S
C593 O594 1.278 . S
C593 O601 1.224 . S
O594 C593 1.278 . S
C595 O596 1.245 . S
C595 O607 1.232 . S
O596 C595 1.245 . S
O597 Co591 2.058 . S
O597 C623 1.269 . S
O598 Co590 2.074 . S
O598 C623 1.257 . S
H599 C624 0.930 . S
H600 C630 0.930 . S
O601 Co590 2.093 . S
O601 C593 1.224 . S
H602 C634 0.929 . S
H603 C636 0.930 . S
H604 C637 0.930 . S
H605 C635 0.929 . S
H606 C638 0.928 . S
O607 Co591 2.057 . S
O607 C595 1.232 . S
H608 C627 0.929 . S
H609 C628 0.929 . S
H610 C640 0.931 . S
H611 C632 0.929 . S
H612 C641 0.930 . S
H613 C633 0.931 . S
O614 Co590 2.097 . S
O614 C642 1.214 . S
H615 C643 0.929 . S
H616 C644 0.929 . S
H617 C645 0.930 . S
H618 C646 0.929 . S
H619 C648 0.930 . S
H620 C625 0.930 . S
H621 C629 0.930 . S
O622 Co591 2.037 . S
O622 C642 1.234 . S
C623 O597 1.269 . S
C623 O598 1.257 . S
C624 H599 0.930 . S
C624 C627 1.388 . S
C624 C629 1.418 . S
C625 H620 0.930 . S
C625 C628 1.404 . S
C625 C629 1.353 . S
N626 Co591 2.145 . S
N626 C627 1.397 . S
N626 C628 1.334 . S
C627 H608 0.929 . S
C627 C624 1.388 . S
C627 N626 1.397 . S
C628 H609 0.929 . S
C628 C625 1.404 . S
C628 N626 1.334 . S
C629 H621 0.930 . S
C629 C624 1.418 . S
C629 C625 1.353 . S
C630 H600 0.930 . S
C630 N631 1.330 . S
C630 C632 1.446 . S
N631 Co590 2.151 . S
N631 C630 1.330 . S
N631 C635 1.418 . S
C632 H611 0.929 . S
C632 C630 1.446 . S
C632 C633 1.332 . S
C633 H613 0.931 . S
C633 C632 1.332 . S
C633 C634 1.267 . S
C634 H602 0.929 . S
C634 C633 1.267 . S
C634 C635 1.251 . S
C635 H605 0.929 . S
C635 N631 1.418 . S
C635 C634 1.251 . S
C636 H603 0.930 . S
C636 C638 1.406 . S
C636 C641 1.261 . S
C637 H604 0.930 . S
C637 N639 1.325 . S
C637 C640 1.357 . S
C638 H606 0.928 . S
C638 C636 1.406 . S
C638 N639 1.261 . S
N639 Co590 2.214 . S
N639 C637 1.325 . S
N639 C638 1.261 . S
C640 H610 0.931 . S
C640 C637 1.357 . S
C640 C641 1.312 . S
C641 H612 0.930 . S
C641 C636 1.261 . S
C641 C640 1.312 . S
C642 O614 1.214 . S
C642 O622 1.234 . S
C643 H615 0.929 . S
C643 C646 1.391 . S
C643 C648 1.391 . S
C644 H616 0.929 . S
C644 C645 1.390 . S
C644 N647 1.391 . S
C645 H617 0.930 . S
C645 C644 1.390 . S
C645 C646 1.392 . S
C646 H618 0.929 . S
C646 C643 1.391 . S
C646 C645 1.392 . S
N647 Co591 2.257 . S
N647 C644 1.391 . S
N647 C648 1.388 . S
C648 H619 0.930 . S
C648 C643 1.391 . S
C648 N647 1.388 . S
Co649 O651 2.143 . S
Co649 O657 2.074 . S
Co649 O660 2.093 . S
Co649 O673 2.097 . S
Co649 N690 2.151 1_545 S
Co649 N698 2.214 1_545 S
Co650 O651 2.160 . S
Co650 O656 2.058 . S
Co650 O666 2.057 . S
Co650 O681 2.037 . S
Co650 N685 2.145 . S
Co650 N706 2.257 . S
O651 Co649 2.143 . S
O651 Co650 2.160 . S
C652 O653 1.278 . S
C652 O660 1.224 . S
O653 C652 1.278 . S
C654 O655 1.245 . S
C654 O666 1.232 . S
O655 C654 1.245 . S
O656 Co650 2.058 . S
O656 C682 1.269 . S
O657 Co649 2.074 . S
O657 C682 1.257 . S
H658 C683 0.930 . S
H659 C689 0.930 . S
O660 Co649 2.093 . S
O660 C652 1.224 . S
H661 C693 0.929 . S
H662 C695 0.930 . S
H663 C696 0.930 . S
H664 C694 0.929 . S
H665 C697 0.928 . S
O666 Co650 2.057 . S
O666 C654 1.232 . S
H667 C686 0.929 . S
H668 C687 0.929 . S
H669 C699 0.931 . S
H670 C691 0.929 . S
H671 C700 0.930 . S
H672 C692 0.931 . S
O673 Co649 2.097 . S
O673 C701 1.214 . S
H674 C702 0.929 . S
H675 C703 0.929 . S
H676 C704 0.930 . S
H677 C705 0.929 . S
H678 C707 0.930 . S
H679 C684 0.930 . S
H680 C688 0.930 . S
O681 Co650 2.037 . S
O681 C701 1.234 . S
C682 O656 1.269 . S
C682 O657 1.257 . S
C683 H658 0.930 . S
C683 C686 1.388 . S
C683 C688 1.418 . S
C684 H679 0.930 . S
C684 C687 1.404 . S
C684 C688 1.353 . S
N685 Co650 2.145 . S
N685 C686 1.397 . S
N685 C687 1.334 . S
C686 H667 0.929 . S
C686 C683 1.388 . S
C686 N685 1.397 . S
C687 H668 0.929 . S
C687 C684 1.404 . S
C687 N685 1.334 . S
C688 H680 0.930 . S
C688 C683 1.418 . S
C688 C684 1.353 . S
C689 H659 0.930 . S
C689 N690 1.330 . S
C689 C691 1.446 . S
N690 Co649 2.151 1_565 S
N690 C689 1.330 . S
N690 C694 1.418 . S
C691 H670 0.929 . S
C691 C689 1.446 . S
C691 C692 1.332 . S
C692 H672 0.931 . S
C692 C691 1.332 . S
C692 C693 1.267 . S
C693 H661 0.929 . S
C693 C692 1.267 . S
C693 C694 1.251 . S
C694 H664 0.929 . S
C694 N690 1.418 . S
C694 C693 1.251 . S
C695 H662 0.930 . S
C695 C697 1.406 . S
C695 C700 1.261 . S
C696 H663 0.930 . S
C696 N698 1.325 . S
C696 C699 1.357 . S
C697 H665 0.928 . S
C697 C695 1.406 . S
C697 N698 1.261 . S
N698 Co649 2.214 1_565 S
N698 C696 1.325 . S
N698 C697 1.261 . S
C699 H669 0.931 . S
C699 C696 1.357 . S
C699 C700 1.312 . S
C700 H671 0.930 . S
C700 C695 1.261 . S
C700 C699 1.312 . S
C701 O673 1.214 . S
C701 O681 1.234 . S
C702 H674 0.929 . S
C702 C705 1.391 . S
C702 C707 1.391 . S
C703 H675 0.929 . S
C703 C704 1.390 . S
C703 N706 1.391 . S
C704 H676 0.930 . S
C704 C703 1.390 . S
C704 C705 1.392 . S
C705 H677 0.929 . S
C705 C702 1.391 . S
C705 C704 1.392 . S
N706 Co650 2.257 . S
N706 C703 1.391 . S
N706 C707 1.388 . S
C707 H678 0.930 . S
C707 C702 1.391 . S
C707 N706 1.388 . S
Co708 O710 2.143 . S
Co708 O716 2.074 . S
Co708 O719 2.093 . S
Co708 O732 2.097 . S
Co708 N749 2.151 1_565 S
Co708 N757 2.214 1_565 S
Co709 O710 2.160 . S
Co709 O715 2.058 . S
Co709 O725 2.057 . S
Co709 O740 2.037 . S
Co709 N744 2.145 . S
Co709 N765 2.257 . S
O710 Co708 2.143 . S
O710 Co709 2.160 . S
C711 O712 1.278 . S
C711 O719 1.224 . S
O712 C711 1.278 . S
C713 O714 1.245 . S
C713 O725 1.232 . S
O714 C713 1.245 . S
O715 Co709 2.058 . S
O715 C741 1.269 . S
O716 Co708 2.074 . S
O716 C741 1.257 . S
H717 C742 0.930 . S
H718 C748 0.930 . S
O719 Co708 2.093 . S
O719 C711 1.224 . S
H720 C752 0.929 . S
H721 C754 0.930 . S
H722 C755 0.906 1_565 S
H723 C753 0.929 . S
H724 C756 0.928 . S
O725 Co709 2.057 . S
O725 C713 1.232 . S
H726 C745 0.929 . S
H727 C746 0.929 . S
H728 C758 0.931 . S
H729 C750 0.929 . S
H730 C759 0.930 . S
H731 C751 0.931 . S
O732 Co708 2.097 . S
O732 C760 1.214 . S
H733 C761 0.929 . S
H734 C762 0.929 . S
H735 C763 0.930 . S
H736 C764 0.929 . S
H737 C766 0.930 . S
H738 C743 0.930 . S
H739 C747 0.930 . S
O740 Co709 2.037 . S
O740 C760 1.234 . S
C741 O715 1.269 . S
C741 O716 1.257 . S
C742 H717 0.930 . S
C742 C745 1.388 . S
C742 C747 1.418 . S
C743 H738 0.930 . S
C743 C746 1.404 . S
C743 C747 1.353 . S
N744 Co709 2.145 . S
N744 C745 1.397 . S
N744 C746 1.334 . S
C745 H726 0.929 . S
C745 C742 1.388 . S
C745 N744 1.397 . S
C746 H727 0.929 . S
C746 C743 1.404 . S
C746 N744 1.334 . S
C747 H739 0.930 . S
C747 C742 1.418 . S
C747 C743 1.353 . S
C748 H718 0.930 . S
C748 N749 1.330 . S
C748 C750 1.446 . S
N749 Co708 2.151 1_545 S
N749 C748 1.330 . S
N749 C753 1.418 . S
C750 H729 0.929 . S
C750 C748 1.446 . S
C750 C751 1.332 . S
C751 H731 0.931 . S
C751 C750 1.332 . S
C751 C752 1.267 . S
C752 H720 0.929 . S
C752 C751 1.267 . S
C752 C753 1.251 . S
C753 H723 0.929 . S
C753 N749 1.418 . S
C753 C752 1.251 . S
C754 H721 0.930 . S
C754 C756 1.406 . S
C754 C759 1.261 . S
C755 H722 0.906 1_545 S
C755 N757 1.325 . S
C755 C758 1.357 . S
C756 H724 0.928 . S
C756 C754 1.406 . S
C756 N757 1.261 . S
N757 Co708 2.214 1_545 S
N757 C755 1.325 . S
N757 C756 1.261 . S
C758 H728 0.931 . S
C758 C755 1.357 . S
C758 C759 1.312 . S
C759 H730 0.930 . S
C759 C754 1.261 . S
C759 C758 1.312 . S
C760 O732 1.214 . S
C760 O740 1.234 . S
C761 H733 0.929 . S
C761 C764 1.391 . S
C761 C766 1.391 . S
C762 H734 0.929 . S
C762 C763 1.390 . S
C762 N765 1.391 . S
C763 H735 0.930 . S
C763 C762 1.390 . S
C763 C764 1.392 . S
C764 H736 0.929 . S
C764 C761 1.391 . S
C764 C763 1.392 . S
N765 Co709 2.257 . S
N765 C762 1.391 . S
N765 C766 1.388 . S
C766 H737 0.930 . S
C766 C761 1.391 . S
C766 N765 1.388 . S
Co767 O769 2.143 . S
Co767 O775 2.074 . S
Co767 O778 2.093 . S
Co767 O791 2.097 . S
Co767 N808 2.151 . S
Co767 N816 2.214 . S
Co768 O769 2.160 . S
Co768 O774 2.058 . S
Co768 O784 2.057 . S
Co768 O799 2.037 . S
Co768 N803 2.145 1_455 S
Co768 N824 2.257 1_455 S
O769 Co767 2.143 . S
O769 Co768 2.160 . S
C770 O771 1.278 . S
C770 O778 1.224 . S
O771 C770 1.278 . S
C772 O773 1.245 . S
C772 O784 1.232 . S
O773 C772 1.245 . S
O774 Co768 2.058 . S
O774 C800 1.269 . S
O775 Co767 2.074 . S
O775 C800 1.257 . S
H776 C801 0.930 . S
H777 C807 0.930 . S
O778 Co767 2.093 . S
O778 C770 1.224 . S
H779 C811 0.929 . S
H780 C813 0.930 . S
H781 C814 0.930 . S
H782 C812 0.929 . S
H783 C815 0.928 . S
O784 Co768 2.057 . S
O784 C772 1.232 . S
H785 C804 0.929 . S
H786 C805 0.929 . S
H787 C817 0.931 . S
H788 C809 0.929 . S
H789 C818 0.930 . S
H790 C810 0.931 . S
O791 Co767 2.097 . S
O791 C819 1.214 . S
H792 C820 0.929 . S
H793 C821 0.929 . S
H794 C822 0.930 . S
H795 C823 0.929 . S
H796 C825 0.930 . S
H797 C802 0.930 . S
H798 C806 0.930 . S
O799 Co768 2.037 . S
O799 C819 1.234 . S
C800 O774 1.269 . S
C800 O775 1.257 . S
C801 H776 0.930 . S
C801 C804 1.388 . S
C801 C806 1.418 . S
C802 H797 0.930 . S
C802 C805 1.404 . S
C802 C806 1.353 . S
N803 Co768 2.145 1_655 S
N803 C804 1.397 . S
N803 C805 1.334 . S
C804 H785 0.929 . S
C804 C801 1.388 . S
C804 N803 1.397 . S
C805 H786 0.929 . S
C805 C802 1.404 . S
C805 N803 1.334 . S
C806 H798 0.930 . S
C806 C801 1.418 . S
C806 C802 1.353 . S
C807 H777 0.930 . S
C807 N808 1.330 . S
C807 C809 1.446 . S
N808 Co767 2.151 . S
N808 C807 1.330 . S
N808 C812 1.418 . S
C809 H788 0.929 . S
C809 C807 1.446 . S
C809 C810 1.332 . S
C810 H790 0.931 . S
C810 C809 1.332 . S
C810 C811 1.267 . S
C811 H779 0.929 . S
C811 C810 1.267 . S
C811 C812 1.251 . S
C812 H782 0.929 . S
C812 N808 1.418 . S
C812 C811 1.251 . S
C813 H780 0.930 . S
C813 C815 1.406 . S
C813 C818 1.261 . S
C814 H781 0.930 . S
C814 N816 1.325 . S
C814 C817 1.357 . S
C815 H783 0.928 . S
C815 C813 1.406 . S
C815 N816 1.261 . S
N816 Co767 2.214 . S
N816 C814 1.325 . S
N816 C815 1.261 . S
C817 H787 0.931 . S
C817 C814 1.357 . S
C817 C818 1.312 . S
C818 H789 0.930 . S
C818 C813 1.261 . S
C818 C817 1.312 . S
C819 O791 1.214 . S
C819 O799 1.234 . S
C820 H792 0.929 . S
C820 C823 1.391 . S
C820 C825 1.391 . S
C821 H793 0.929 . S
C821 C822 1.390 . S
C821 N824 1.391 . S
C822 H794 0.930 . S
C822 C821 1.390 . S
C822 C823 1.392 . S
C823 H795 0.929 . S
C823 C820 1.391 . S
C823 C822 1.392 . S
N824 Co768 2.257 1_655 S
N824 C821 1.391 . S
N824 C825 1.388 . S
C825 H796 0.930 . S
C825 C820 1.391 . S
C825 N824 1.388 . S
Co826 O828 2.143 . S
Co826 O834 2.074 . S
Co826 O837 2.093 . S
Co826 O850 2.097 . S
Co826 N867 2.151 . S
Co826 N875 2.214 . S
Co827 O828 2.160 . S
Co827 O833 2.058 . S
Co827 O843 2.057 . S
Co827 O858 2.037 . S
Co827 N862 2.145 . S
Co827 N883 2.257 . S
O828 Co826 2.143 . S
O828 Co827 2.160 . S
C829 O830 1.278 . S
C829 O837 1.224 . S
O830 C829 1.278 . S
C831 O832 1.245 . S
C831 O843 1.232 . S
O832 C831 1.245 . S
O833 Co827 2.058 . S
O833 C859 1.269 . S
O834 Co826 2.074 . S
O834 C859 1.257 . S
H835 C860 0.930 . S
H836 C866 0.930 . S
O837 Co826 2.093 . S
O837 C829 1.224 . S
H838 C870 0.929 . S
H839 C872 0.930 . S
H840 C873 0.930 . S
H841 C871 0.929 . S
H842 C874 0.928 . S
O843 Co827 2.057 . S
O843 C831 1.232 . S
H844 C863 0.929 . S
H845 C864 0.929 . S
H846 C876 0.931 . S
H847 C868 0.929 . S
H848 C877 0.930 . S
H849 C869 0.931 . S
O850 Co826 2.097 . S
O850 C878 1.214 . S
H851 C879 0.929 . S
H852 C880 0.929 . S
H853 C881 0.930 . S
H854 C882 0.929 . S
H855 C884 0.930 . S
H856 C861 0.930 . S
H857 C865 0.930 . S
O858 Co827 2.037 . S
O858 C878 1.234 . S
C859 O833 1.269 . S
C859 O834 1.257 . S
C860 H835 0.930 . S
C860 C863 1.388 . S
C860 C865 1.418 . S
C861 H856 0.930 . S
C861 C864 1.404 . S
C861 C865 1.353 . S
N862 Co827 2.145 . S
N862 C863 1.397 . S
N862 C864 1.334 . S
C863 H844 0.929 . S
C863 C860 1.388 . S
C863 N862 1.397 . S
C864 H845 0.929 . S
C864 C861 1.404 . S
C864 N862 1.334 . S
C865 H857 0.930 . S
C865 C860 1.418 . S
C865 C861 1.353 . S
C866 H836 0.930 . S
C866 N867 1.330 . S
C866 C868 1.446 . S
N867 Co826 2.151 . S
N867 C866 1.330 . S
N867 C871 1.418 . S
C868 H847 0.929 . S
C868 C866 1.446 . S
C868 C869 1.332 . S
C869 H849 0.931 . S
C869 C868 1.332 . S
C869 C870 1.267 . S
C870 H838 0.929 . S
C870 C869 1.267 . S
C870 C871 1.251 . S
C871 H841 0.929 . S
C871 N867 1.418 . S
C871 C870 1.251 . S
C872 H839 0.930 . S
C872 C874 1.406 . S
C872 C877 1.261 . S
C873 H840 0.930 . S
C873 N875 1.325 . S
C873 C876 1.357 . S
C874 H842 0.928 . S
C874 C872 1.406 . S
C874 N875 1.261 . S
N875 Co826 2.214 . S
N875 C873 1.325 . S
N875 C874 1.261 . S
C876 H846 0.931 . S
C876 C873 1.357 . S
C876 C877 1.312 . S
C877 H848 0.930 . S
C877 C872 1.261 . S
C877 C876 1.312 . S
C878 O850 1.214 . S
C878 O858 1.234 . S
C879 H851 0.929 . S
C879 C882 1.391 . S
C879 C884 1.391 . S
C880 H852 0.929 . S
C880 C881 1.390 . S
C880 N883 1.391 . S
C881 H853 0.930 . S
C881 C880 1.390 . S
C881 C882 1.392 . S
C882 H854 0.929 . S
C882 C879 1.391 . S
C882 C881 1.392 . S
N883 Co827 2.257 . S
N883 C880 1.391 . S
N883 C884 1.388 . S
C884 H855 0.930 . S
C884 C879 1.391 . S
C884 N883 1.388 . S
Co885 O887 2.143 . S
Co885 O893 2.074 . S
Co885 O896 2.093 . S
Co885 O909 2.097 . S
Co885 N926 2.151 . S
Co885 N934 2.214 . S
Co886 O887 2.160 . S
Co886 O892 2.058 . S
Co886 O902 2.057 . S
Co886 O917 2.037 . S
Co886 N921 2.145 . S
Co886 N942 2.257 . S
O887 Co885 2.143 . S
O887 Co886 2.160 . S
C888 O889 1.278 . S
C888 O896 1.224 . S
O889 C888 1.278 . S
C890 O891 1.245 . S
C890 O902 1.232 . S
O891 C890 1.245 . S
O892 Co886 2.058 . S
O892 C918 1.269 . S
O893 Co885 2.074 . S
O893 C918 1.257 . S
H894 C919 0.930 . S
H895 C925 0.930 . S
O896 Co885 2.093 . S
O896 C888 1.224 . S
H897 C929 0.929 . S
H898 C931 0.930 . S
H899 C932 0.930 . S
H900 C930 0.929 . S
H901 C933 0.928 . S
O902 Co886 2.057 . S
O902 C890 1.232 . S
H903 C922 0.929 . S
H904 C923 0.929 . S
H905 C935 0.931 . S
H906 C927 0.929 . S
H907 C936 0.930 . S
H908 C928 0.931 . S
O909 Co885 2.097 . S
O909 C937 1.214 . S
H910 C938 0.929 . S
H911 C939 0.929 . S
H912 C940 0.930 . S
H913 C941 0.929 . S
H914 C943 0.930 . S
H915 C920 0.930 . S
H916 C924 0.930 . S
O917 Co886 2.037 . S
O917 C937 1.234 . S
C918 O892 1.269 . S
C918 O893 1.257 . S
C919 H894 0.930 . S
C919 C922 1.388 . S
C919 C924 1.418 . S
C920 H915 0.930 . S
C920 C923 1.404 . S
C920 C924 1.353 . S
N921 Co886 2.145 . S
N921 C922 1.397 . S
N921 C923 1.334 . S
C922 H903 0.929 . S
C922 C919 1.388 . S
C922 N921 1.397 . S
C923 H904 0.929 . S
C923 C920 1.404 . S
C923 N921 1.334 . S
C924 H916 0.930 . S
C924 C919 1.418 . S
C924 C920 1.353 . S
C925 H895 0.930 . S
C925 N926 1.330 . S
C925 C927 1.446 . S
N926 Co885 2.151 . S
N926 C925 1.330 . S
N926 C930 1.418 . S
C927 H906 0.929 . S
C927 C925 1.446 . S
C927 C928 1.332 . S
C928 H908 0.931 . S
C928 C927 1.332 . S
C928 C929 1.267 . S
C929 H897 0.929 . S
C929 C928 1.267 . S
C929 C930 1.251 . S
C930 H900 0.929 . S
C930 N926 1.418 . S
C930 C929 1.251 . S
C931 H898 0.930 . S
C931 C933 1.406 . S
C931 C936 1.261 . S
C932 H899 0.930 . S
C932 N934 1.325 . S
C932 C935 1.357 . S
C933 H901 0.928 . S
C933 C931 1.406 . S
C933 N934 1.261 . S
N934 Co885 2.214 . S
N934 C932 1.325 . S
N934 C933 1.261 . S
C935 H905 0.931 . S
C935 C932 1.357 . S
C935 C936 1.312 . S
C936 H907 0.930 . S
C936 C931 1.261 . S
C936 C935 1.312 . S
C937 O909 1.214 . S
C937 O917 1.234 . S
C938 H910 0.929 . S
C938 C941 1.391 . S
C938 C943 1.391 . S
C939 H911 0.929 . S
C939 C940 1.390 . S
C939 N942 1.391 . S
C940 H912 0.930 . S
C940 C939 1.390 . S
C940 C941 1.392 . S
C941 H913 0.929 . S
C941 C938 1.391 . S
C941 C940 1.392 . S
N942 Co886 2.257 . S
N942 C939 1.391 . S
N942 C943 1.388 . S
C943 H914 0.930 . S
C943 C938 1.391 . S
C943 N942 1.388 . S
Co944 O946 2.143 . S
Co944 O952 2.074 . S
Co944 O955 2.093 . S
Co944 O968 2.097 . S
Co944 N985 2.151 . S
Co944 N993 2.214 . S
Co945 O946 2.160 . S
Co945 O951 2.058 . S
Co945 O961 2.057 . S
Co945 O976 2.037 . S
Co945 N980 2.145 . S
Co945 N1001 2.257 . S
O946 Co944 2.143 . S
O946 Co945 2.160 . S
C947 O948 1.278 . S
C947 O955 1.224 . S
O948 C947 1.278 . S
C949 O950 1.245 . S
C949 O961 1.232 . S
O950 C949 1.245 . S
O951 Co945 2.058 . S
O951 C977 1.269 . S
O952 Co944 2.074 . S
O952 C977 1.257 . S
H953 C978 0.930 . S
H954 C984 0.930 . S
O955 Co944 2.093 . S
O955 C947 1.224 . S
H956 C988 0.929 . S
H957 C990 0.930 . S
H958 C991 0.930 . S
H959 C989 0.929 . S
H960 C992 0.928 . S
O961 Co945 2.057 . S
O961 C949 1.232 . S
H962 C981 0.929 . S
H963 C982 0.929 . S
H964 C994 0.931 . S
H965 C986 0.929 . S
H966 C995 0.930 . S
H967 C987 0.931 . S
O968 Co944 2.097 . S
O968 C996 1.214 . S
H969 C997 0.929 . S
H970 C998 0.929 . S
H971 C999 0.930 . S
H972 C1000 0.929 . S
H973 C1002 0.930 . S
H974 C979 0.930 . S
H975 C983 0.930 . S
O976 Co945 2.037 . S
O976 C996 1.234 . S
C977 O951 1.269 . S
C977 O952 1.257 . S
C978 H953 0.930 . S
C978 C981 1.388 . S
C978 C983 1.418 . S
C979 H974 0.930 . S
C979 C982 1.404 . S
C979 C983 1.353 . S
N980 Co945 2.145 . S
N980 C981 1.397 . S
N980 C982 1.334 . S
C981 H962 0.929 . S
C981 C978 1.388 . S
C981 N980 1.397 . S
C982 H963 0.929 . S
C982 C979 1.404 . S
C982 N980 1.334 . S
C983 H975 0.930 . S
C983 C978 1.418 . S
C983 C979 1.353 . S
C984 H954 0.930 . S
C984 N985 1.330 . S
C984 C986 1.446 . S
N985 Co944 2.151 . S
N985 C984 1.330 . S
N985 C989 1.418 . S
C986 H965 0.929 . S
C986 C984 1.446 . S
C986 C987 1.332 . S
C987 H967 0.931 . S
C987 C986 1.332 . S
C987 C988 1.267 . S
C988 H956 0.929 . S
C988 C987 1.267 . S
C988 C989 1.251 . S
C989 H959 0.929 . S
C989 N985 1.418 . S
C989 C988 1.251 . S
C990 H957 0.930 . S
C990 C992 1.406 . S
C990 C995 1.261 . S
C991 H958 0.930 . S
C991 N993 1.325 . S
C991 C994 1.357 . S
C992 H960 0.928 . S
C992 C990 1.406 . S
C992 N993 1.261 . S
N993 Co944 2.214 . S
N993 C991 1.325 . S
N993 C992 1.261 . S
C994 H964 0.931 . S
C994 C991 1.357 . S
C994 C995 1.312 . S
C995 H966 0.930 . S
C995 C990 1.261 . S
C995 C994 1.312 . S
C996 O968 1.214 . S
C996 O976 1.234 . S
C997 H969 0.929 . S
C997 C1000 1.391 . S
C997 C1002 1.391 . S
C998 H970 0.929 . S
C998 C999 1.390 . S
C998 N1001 1.391 . S
C999 H971 0.930 . S
C999 C998 1.390 . S
C999 C1000 1.392 . S
C1000 H972 0.929 . S
C1000 C997 1.391 . S
C1000 C999 1.392 . S
N1001 Co945 2.257 . S
N1001 C998 1.391 . S
N1001 C1002 1.388 . S
C1002 H973 0.930 . S
C1002 C997 1.391 . S
C1002 N1001 1.388 . S
Co1003 O1005 2.143 . S
Co1003 O1011 2.074 . S
Co1003 O1014 2.093 . S
Co1003 O1027 2.097 . S
Co1003 N1044 2.151 . S
Co1003 N1052 2.214 . S
Co1004 O1005 2.160 . S
Co1004 O1010 2.058 . S
Co1004 O1020 2.057 . S
Co1004 O1035 2.037 . S
Co1004 N1039 2.145 . S
Co1004 N1060 2.257 . S
O1005 Co1003 2.143 . S
O1005 Co1004 2.160 . S
C1006 O1007 1.278 . S
C1006 O1014 1.224 . S
O1007 C1006 1.278 . S
C1008 O1009 1.245 . S
C1008 O1020 1.232 . S
O1009 C1008 1.245 . S
O1010 Co1004 2.058 . S
O1010 C1036 1.269 . S
O1011 Co1003 2.074 . S
O1011 C1036 1.257 . S
H1012 C1037 0.930 . S
H1013 C1043 0.930 . S
O1014 Co1003 2.093 . S
O1014 C1006 1.224 . S
H1015 C1047 0.929 . S
H1016 C1049 0.930 . S
H1017 C1050 0.930 . S
H1018 C1048 0.929 . S
H1019 C1051 0.928 . S
O1020 Co1004 2.057 . S
O1020 C1008 1.232 . S
H1021 C1040 0.929 . S
H1022 C1041 0.929 . S
H1023 C1053 0.931 . S
H1024 C1045 0.929 . S
H1025 C1054 0.930 . S
H1026 C1046 0.931 . S
O1027 Co1003 2.097 . S
O1027 C1055 1.214 . S
H1028 C1056 0.929 . S
H1029 C1057 0.929 . S
H1030 C1058 0.930 . S
H1031 C1059 0.929 . S
H1032 C1061 0.930 . S
H1033 C1038 0.930 . S
H1034 C1042 0.930 . S
O1035 Co1004 2.037 . S
O1035 C1055 1.234 . S
C1036 O1010 1.269 . S
C1036 O1011 1.257 . S
C1037 H1012 0.930 . S
C1037 C1040 1.388 . S
C1037 C1042 1.418 . S
C1038 H1033 0.930 . S
C1038 C1041 1.404 . S
C1038 C1042 1.353 . S
N1039 Co1004 2.145 . S
N1039 C1040 1.397 . S
N1039 C1041 1.334 . S
C1040 H1021 0.929 . S
C1040 C1037 1.388 . S
C1040 N1039 1.397 . S
C1041 H1022 0.929 . S
C1041 C1038 1.404 . S
C1041 N1039 1.334 . S
C1042 H1034 0.930 . S
C1042 C1037 1.418 . S
C1042 C1038 1.353 . S
C1043 H1013 0.930 . S
C1043 N1044 1.330 . S
C1043 C1045 1.446 . S
N1044 Co1003 2.151 . S
N1044 C1043 1.330 . S
N1044 C1048 1.418 . S
C1045 H1024 0.929 . S
C1045 C1043 1.446 . S
C1045 C1046 1.332 . S
C1046 H1026 0.931 . S
C1046 C1045 1.332 . S
C1046 C1047 1.267 . S
C1047 H1015 0.929 . S
C1047 C1046 1.267 . S
C1047 C1048 1.251 . S
C1048 H1018 0.929 . S
C1048 N1044 1.418 . S
C1048 C1047 1.251 . S
C1049 H1016 0.930 . S
C1049 C1051 1.406 . S
C1049 C1054 1.261 . S
C1050 H1017 0.930 . S
C1050 N1052 1.325 . S
C1050 C1053 1.357 . S
C1051 H1019 0.928 . S
C1051 C1049 1.406 . S
C1051 N1052 1.261 . S
N1052 Co1003 2.214 . S
N1052 C1050 1.325 . S
N1052 C1051 1.261 . S
C1053 H1023 0.931 . S
C1053 C1050 1.357 . S
C1053 C1054 1.312 . S
C1054 H1025 0.930 . S
C1054 C1049 1.261 . S
C1054 C1053 1.312 . S
C1055 O1027 1.214 . S
C1055 O1035 1.234 . S
C1056 H1028 0.929 . S
C1056 C1059 1.391 . S
C1056 C1061 1.391 . S
C1057 H1029 0.929 . S
C1057 C1058 1.390 . S
C1057 N1060 1.391 . S
C1058 H1030 0.930 . S
C1058 C1057 1.390 . S
C1058 C1059 1.392 . S
C1059 H1031 0.929 . S
C1059 C1056 1.391 . S
C1059 C1058 1.392 . S
N1060 Co1004 2.257 . S
N1060 C1057 1.391 . S
N1060 C1061 1.388 . S
C1061 H1032 0.930 . S
C1061 C1056 1.391 . S
C1061 N1060 1.388 . S
H1062 C1070 0.950 . S
H1063 C1075 0.950 . S
H1064 C1072 0.950 . S
H1065 C1074 0.950 . S
H1066 C1076 0.950 . S
H1067 C1078 0.950 . S
H1068 C1080 0.950 . S
H1069 C1081 0.950 . S
C1070 H1062 0.950 . S
C1070 C1071 1.386 . S
C1070 C1072 1.391 . S
C1071 C1070 1.386 . S
C1071 C1075 1.393 . S
C1072 H1064 0.950 . S
C1072 C1070 1.391 . S
C1072 C1073 1.400 . S
C1073 C1072 1.400 . S
C1073 C1074 1.398 . S
C1073 C1079 1.491 . S
C1074 H1065 0.950 . S
C1074 C1073 1.398 . S
C1074 C1075 1.391 . S
C1075 H1063 0.950 . S
C1075 C1071 1.393 . S
C1075 C1074 1.391 . S
C1076 H1066 0.950 . S
C1076 C1077 1.386 . S
C1076 C1078 1.391 . S
C1077 C1076 1.386 . S
C1077 C1081 1.393 . S
C1078 H1067 0.950 . S
C1078 C1076 1.391 . S
C1078 C1079 1.400 . S
C1079 C1073 1.491 . S
C1079 C1078 1.400 . S
C1079 C1080 1.398 . S
C1080 H1068 0.950 . S
C1080 C1079 1.398 . S
C1080 C1081 1.391 . S
C1081 H1069 0.950 . S
C1081 C1077 1.393 . S
C1081 C1080 1.391 . S
H1082 C1090 0.950 . S
H1083 C1095 0.950 . S
H1084 C1092 0.950 . S
H1085 C1094 0.950 . S
H1086 C1096 0.950 . S
H1087 C1098 0.950 . S
H1088 C1100 0.950 . S
H1089 C1101 0.950 . S
C1090 H1082 0.950 . S
C1090 C1091 1.386 . S
C1090 C1092 1.391 . S
C1091 C1090 1.386 . S
C1091 C1095 1.393 . S
C1092 H1084 0.950 . S
C1092 C1090 1.391 . S
C1092 C1093 1.400 . S
C1093 C1092 1.400 . S
C1093 C1094 1.398 . S
C1093 C1099 1.491 . S
C1094 H1085 0.950 . S
C1094 C1093 1.398 . S
C1094 C1095 1.391 . S
C1095 H1083 0.950 . S
C1095 C1091 1.393 . S
C1095 C1094 1.391 . S
C1096 H1086 0.950 . S
C1096 C1097 1.386 . S
C1096 C1098 1.391 . S
C1097 C1096 1.386 . S
C1097 C1101 1.393 . S
C1098 H1087 0.950 . S
C1098 C1096 1.391 . S
C1098 C1099 1.400 . S
C1099 C1093 1.491 . S
C1099 C1098 1.400 . S
C1099 C1100 1.398 . S
C1100 H1088 0.950 . S
C1100 C1099 1.398 . S
C1100 C1101 1.391 . S
C1101 H1089 0.950 . S
C1101 C1097 1.393 . S
C1101 C1100 1.391 . S
H1102 C1110 0.950 . S
H1103 C1115 0.950 . S
H1104 C1112 0.950 . S
H1105 C1114 0.950 . S
H1106 C1116 0.950 . S
H1107 C1118 0.950 . S
H1108 C1120 0.950 . S
H1109 C1121 0.950 . S
C1110 H1102 0.950 . S
C1110 C1111 1.386 . S
C1110 C1112 1.391 . S
C1111 C1110 1.386 . S
C1111 C1115 1.393 . S
C1112 H1104 0.950 . S
C1112 C1110 1.391 . S
C1112 C1113 1.400 . S
C1113 C1112 1.400 . S
C1113 C1114 1.398 . S
C1113 C1119 1.491 . S
C1114 H1105 0.950 . S
C1114 C1113 1.398 . S
C1114 C1115 1.391 . S
C1115 H1103 0.950 . S
C1115 C1111 1.393 . S
C1115 C1114 1.391 . S
C1116 H1106 0.950 . S
C1116 C1117 1.386 . S
C1116 C1118 1.391 . S
C1117 C1116 1.386 . S
C1117 C1121 1.393 . S
C1118 H1107 0.950 . S
C1118 C1116 1.391 . S
C1118 C1119 1.400 . S
C1119 C1113 1.491 . S
C1119 C1118 1.400 . S
C1119 C1120 1.398 . S
C1120 H1108 0.950 . S
C1120 C1119 1.398 . S
C1120 C1121 1.391 . S
C1121 H1109 0.950 . S
C1121 C1117 1.393 . S
C1121 C1120 1.391 . S
H1122 C1130 0.950 . S
H1123 C1135 0.950 . S
H1124 C1132 0.950 . S
H1125 C1134 0.950 . S
H1126 C1136 0.950 . S
H1127 C1138 0.950 . S
H1128 C1140 0.950 . S
H1129 C1141 0.950 . S
C1130 H1122 0.950 . S
C1130 C1131 1.386 . S
C1130 C1132 1.391 . S
C1131 C1130 1.386 . S
C1131 C1135 1.393 . S
C1132 H1124 0.950 . S
C1132 C1130 1.391 . S
C1132 C1133 1.400 . S
C1133 C1132 1.400 . S
C1133 C1134 1.398 . S
C1133 C1139 1.491 . S
C1134 H1125 0.950 . S
C1134 C1133 1.398 . S
C1134 C1135 1.391 . S
C1135 H1123 0.950 . S
C1135 C1131 1.393 . S
C1135 C1134 1.391 . S
C1136 H1126 0.950 . S
C1136 C1137 1.386 . S
C1136 C1138 1.391 . S
C1137 C1136 1.386 . S
C1137 C1141 1.393 . S
C1138 H1127 0.950 . S
C1138 C1136 1.391 . S
C1138 C1139 1.400 . S
C1139 C1133 1.491 . S
C1139 C1138 1.400 . S
C1139 C1140 1.398 . S
C1140 H1128 0.950 . S
C1140 C1139 1.398 . S
C1140 C1141 1.391 . S
C1141 H1129 0.950 . S
C1141 C1137 1.393 . S
C1141 C1140 1.391 . S
H1142 C1150 0.950 . S
H1143 C1155 0.950 . S
H1144 C1152 0.950 . S
H1145 C1154 0.950 . S
H1146 C1156 0.950 . S
H1147 C1158 0.950 . S
H1148 C1160 0.950 . S
H1149 C1161 0.950 . S
C1150 H1142 0.950 . S
C1150 C1151 1.386 . S
C1150 C1152 1.391 . S
C1151 C1150 1.386 . S
C1151 C1155 1.393 . S
C1152 H1144 0.950 . S
C1152 C1150 1.391 . S
C1152 C1153 1.400 . S
C1153 C1152 1.400 . S
C1153 C1154 1.398 . S
C1153 C1159 1.491 . S
C1154 H1145 0.950 . S
C1154 C1153 1.398 . S
C1154 C1155 1.391 . S
C1155 H1143 0.950 . S
C1155 C1151 1.393 . S
C1155 C1154 1.391 . S
C1156 H1146 0.950 . S
C1156 C1157 1.386 . S
C1156 C1158 1.391 . S
C1157 C1156 1.386 . S
C1157 C1161 1.393 . S
C1158 H1147 0.950 . S
C1158 C1156 1.391 . S
C1158 C1159 1.400 . S
C1159 C1153 1.491 . S
C1159 C1158 1.400 . S
C1159 C1160 1.398 . S
C1160 H1148 0.950 . S
C1160 C1159 1.398 . S
C1160 C1161 1.391 . S
C1161 H1149 0.950 . S
C1161 C1157 1.393 . S
C1161 C1160 1.391 . S
H1162 C1170 0.950 . S
H1163 C1175 0.950 . S
H1164 C1172 0.950 . S
H1165 C1174 0.950 . S
H1166 C1176 0.950 . S
H1167 C1178 0.950 . S
H1168 C1180 0.950 . S
H1169 C1181 0.950 . S
C1170 H1162 0.950 . S
C1170 C1171 1.386 . S
C1170 C1172 1.391 . S
C1171 C1170 1.386 . S
C1171 C1175 1.393 . S
C1172 H1164 0.950 . S
C1172 C1170 1.391 . S
C1172 C1173 1.400 . S
C1173 C1172 1.400 . S
C1173 C1174 1.398 . S
C1173 C1179 1.491 . S
C1174 H1165 0.950 . S
C1174 C1173 1.398 . S
C1174 C1175 1.391 . S
C1175 H1163 0.950 . S
C1175 C1171 1.393 . S
C1175 C1174 1.391 . S
C1176 H1166 0.950 . S
C1176 C1177 1.386 . S
C1176 C1178 1.391 . S
C1177 C1176 1.386 . S
C1177 C1181 1.393 . S
C1178 H1167 0.950 . S
C1178 C1176 1.391 . S
C1178 C1179 1.400 . S
C1179 C1173 1.491 . S
C1179 C1178 1.400 . S
C1179 C1180 1.398 . S
C1180 H1168 0.950 . S
C1180 C1179 1.398 . S
C1180 C1181 1.391 . S
C1181 H1169 0.950 . S
C1181 C1177 1.393 . S
C1181 C1180 1.391 . S
H1182 C1190 0.912 1_455 S
H1183 C1195 0.950 . S
H1184 C1192 0.950 . S
H1185 C1194 0.950 . S
H1186 C1196 0.950 . S
H1187 C1198 0.950 . S
H1188 C1200 0.950 . S
H1189 C1201 0.950 . S
C1190 H1182 0.912 1_655 S
C1190 C1191 1.435 . S
C1190 C1192 1.381 1_655 S
C1191 C1190 1.435 . S
C1191 C1195 1.393 . S
C1192 H1184 0.950 . S
C1192 C1190 1.381 1_455 S
C1192 C1193 1.400 1_455 S
C1193 C1192 1.400 1_655 S
C1193 C1194 1.398 . S
C1193 C1199 1.491 1_654 S
C1194 H1185 0.950 . S
C1194 C1193 1.398 . S
C1194 C1195 1.391 . S
C1195 H1183 0.950 . S
C1195 C1191 1.393 . S
C1195 C1194 1.391 . S
C1196 H1186 0.950 . S
C1196 C1197 1.386 1_655 S
C1196 C1198 1.391 . S
C1197 C1196 1.386 1_455 S
C1197 C1201 1.393 . S
C1198 H1187 0.950 . S
C1198 C1196 1.391 . S
C1198 C1199 1.400 1_655 S
C1199 C1193 1.491 1_456 S
C1199 C1198 1.400 1_455 S
C1199 C1200 1.398 . S
C1200 H1188 0.950 . S
C1200 C1199 1.398 . S
C1200 C1201 1.391 . S
C1201 H1189 0.950 . S
C1201 C1197 1.393 . S
C1201 C1200 1.391 . S
H1202 C1210 0.950 . S
H1203 C1215 0.950 . S
H1204 C1212 0.950 . S
H1205 C1214 0.950 . S
H1206 C1216 0.950 . S
H1207 C1218 0.950 . S
H1208 C1220 0.950 . S
H1209 C1221 0.950 . S
C1210 H1202 0.950 . S
C1210 C1211 1.386 . S
C1210 C1212 1.391 . S
C1211 C1210 1.386 . S
C1211 C1215 1.393 . S
C1212 H1204 0.950 . S
C1212 C1210 1.391 . S
C1212 C1213 1.400 . S
C1213 C1212 1.400 . S
C1213 C1214 1.398 . S
C1213 C1219 1.491 1_554 S
C1214 H1205 0.950 . S
C1214 C1213 1.398 . S
C1214 C1215 1.391 . S
C1215 H1203 0.950 . S
C1215 C1211 1.393 . S
C1215 C1214 1.391 . S
C1216 H1206 0.950 . S
C1216 C1217 1.386 . S
C1216 C1218 1.391 . S
C1217 C1216 1.386 . S
C1217 C1221 1.393 . S
C1218 H1207 0.950 . S
C1218 C1216 1.391 . S
C1218 C1219 1.400 . S
C1219 C1213 1.491 1_556 S
C1219 C1218 1.400 . S
C1219 C1220 1.398 . S
C1220 H1208 0.950 . S
C1220 C1219 1.398 . S
C1220 C1221 1.391 . S
C1221 H1209 0.950 . S
C1221 C1217 1.393 . S
C1221 C1220 1.391 . S
H1222 C1230 0.950 . S
H1223 C1235 0.950 . S
H1224 C1232 0.950 . S
H1225 C1234 0.950 . S
H1226 C1236 0.950 . S
H1227 C1238 0.950 . S
H1228 C1240 0.950 . S
H1229 C1241 0.950 . S
C1230 H1222 0.950 . S
C1230 C1231 1.386 1_565 S
C1230 C1232 1.391 . S
C1231 C1230 1.386 1_545 S
C1231 C1235 1.393 . S
C1232 H1224 0.950 . S
C1232 C1230 1.391 . S
C1232 C1233 1.400 1_565 S
C1233 C1232 1.400 1_545 S
C1233 C1234 1.398 . S
C1233 C1239 1.491 1_544 S
C1234 H1225 0.950 . S
C1234 C1233 1.398 . S
C1234 C1235 1.391 . S
C1235 H1223 0.950 . S
C1235 C1231 1.393 . S
C1235 C1234 1.391 . S
C1236 H1226 0.950 . S
C1236 C1237 1.386 1_545 S
C1236 C1238 1.391 . S
C1237 C1236 1.386 1_565 S
C1237 C1241 1.393 . S
C1238 H1227 0.950 . S
C1238 C1236 1.391 . S
C1238 C1239 1.400 1_545 S
C1239 C1233 1.491 1_566 S
C1239 C1238 1.400 1_565 S
C1239 C1240 1.398 . S
C1240 H1228 0.950 . S
C1240 C1239 1.398 . S
C1240 C1241 1.391 . S
C1241 H1229 0.950 . S
C1241 C1237 1.393 . S
C1241 C1240 1.391 . S
H1242 C1250 0.950 . S
H1243 C1255 0.950 . S
H1244 C1252 0.950 . S
H1245 C1254 0.950 . S
H1246 C1256 0.950 . S
H1247 C1258 0.950 . S
H1248 C1260 0.950 . S
H1249 C1261 0.950 . S
C1250 H1242 0.950 . S
C1250 C1251 1.386 . S
C1250 C1252 1.391 . S
C1251 C1250 1.386 . S
C1251 C1255 1.393 . S
C1252 H1244 0.950 . S
C1252 C1250 1.391 . S
C1252 C1253 1.400 . S
C1253 C1252 1.400 . S
C1253 C1254 1.398 . S
C1253 C1259 1.491 . S
C1254 H1245 0.950 . S
C1254 C1253 1.398 . S
C1254 C1255 1.391 . S
C1255 H1243 0.950 . S
C1255 C1251 1.393 . S
C1255 C1254 1.391 . S
C1256 H1246 0.950 . S
C1256 C1257 1.386 . S
C1256 C1258 1.391 . S
C1257 C1256 1.386 . S
C1257 C1261 1.393 . S
C1258 H1247 0.950 . S
C1258 C1256 1.391 . S
C1258 C1259 1.400 . S
C1259 C1253 1.491 . S
C1259 C1258 1.400 . S
C1259 C1260 1.398 . S
C1260 H1248 0.950 . S
C1260 C1259 1.398 . S
C1260 C1261 1.391 . S
C1261 H1249 0.950 . S
C1261 C1257 1.393 . S
C1261 C1260 1.391 . S
H1262 C1270 0.950 . S
H1263 C1275 0.950 . S
H1264 C1272 0.950 . S
H1265 C1274 0.950 . S
H1266 C1276 0.950 . S
H1267 C1278 0.950 . S
H1268 C1280 0.950 . S
H1269 C1281 0.950 . S
C1270 H1262 0.950 . S
C1270 C1271 1.386 . S
C1270 C1272 1.391 . S
C1271 C1270 1.386 . S
C1271 C1275 1.393 . S
C1272 H1264 0.950 . S
C1272 C1270 1.391 . S
C1272 C1273 1.400 . S
C1273 C1272 1.400 . S
C1273 C1274 1.398 . S
C1273 C1279 1.491 . S
C1274 H1265 0.950 . S
C1274 C1273 1.398 . S
C1274 C1275 1.391 . S
C1275 H1263 0.950 . S
C1275 C1271 1.393 . S
C1275 C1274 1.391 . S
C1276 H1266 0.950 . S
C1276 C1277 1.386 . S
C1276 C1278 1.391 . S
C1277 C1276 1.386 . S
C1277 C1281 1.393 . S
C1278 H1267 0.950 . S
C1278 C1276 1.391 . S
C1278 C1279 1.400 . S
C1279 C1273 1.491 . S
C1279 C1278 1.400 . S
C1279 C1280 1.398 . S
C1280 H1268 0.950 . S
C1280 C1279 1.398 . S
C1280 C1281 1.391 . S
C1281 H1269 0.950 . S
C1281 C1277 1.393 . S
C1281 C1280 1.391 . S
H1282 C1290 0.950 . S
H1283 C1295 0.950 . S
H1284 C1292 0.950 . S
H1285 C1294 0.950 . S
H1286 C1296 0.950 . S
H1287 C1298 0.950 . S
H1288 C1300 0.950 . S
H1289 C1301 0.950 . S
C1290 H1282 0.950 . S
C1290 C1291 1.386 . S
C1290 C1292 1.391 . S
C1291 C1290 1.386 . S
C1291 C1295 1.393 . S
C1292 H1284 0.950 . S
C1292 C1290 1.391 . S
C1292 C1293 1.400 . S
C1293 C1292 1.400 . S
C1293 C1294 1.398 . S
C1293 C1299 1.491 . S
C1294 H1285 0.950 . S
C1294 C1293 1.398 . S
C1294 C1295 1.391 . S
C1295 H1283 0.950 . S
C1295 C1291 1.393 . S
C1295 C1294 1.391 . S
C1296 H1286 0.950 . S
C1296 C1297 1.386 . S
C1296 C1298 1.391 . S
C1297 C1296 1.386 . S
C1297 C1301 1.393 . S
C1298 H1287 0.950 . S
C1298 C1296 1.391 . S
C1298 C1299 1.400 . S
C1299 C1293 1.491 . S
C1299 C1298 1.400 . S
C1299 C1300 1.398 . S
C1300 H1288 0.950 . S
C1300 C1299 1.398 . S
C1300 C1301 1.391 . S
C1301 H1289 0.950 . S
C1301 C1297 1.393 . S
C1301 C1300 1.391 . S
H1302 C1310 0.950 . S
H1303 C1315 0.950 . S
H1304 C1312 0.950 . S
H1305 C1314 0.950 . S
H1306 C1316 0.950 . S
H1307 C1318 0.950 . S
H1308 C1320 0.950 . S
H1309 C1321 0.950 . S
C1310 H1302 0.950 . S
C1310 C1311 1.386 . S
C1310 C1312 1.391 . S
C1311 C1310 1.386 . S
C1311 C1315 1.393 . S
C1312 H1304 0.950 . S
C1312 C1310 1.391 . S
C1312 C1313 1.400 . S
C1313 C1312 1.400 . S
C1313 C1314 1.398 . S
C1313 C1319 1.491 . S
C1314 H1305 0.950 . S
C1314 C1313 1.398 . S
C1314 C1315 1.391 . S
C1315 H1303 0.950 . S
C1315 C1311 1.393 . S
C1315 C1314 1.391 . S
C1316 H1306 0.950 . S
C1316 C1317 1.386 . S
C1316 C1318 1.391 . S
C1317 C1316 1.386 . S
C1317 C1321 1.393 . S
C1318 H1307 0.950 . S
C1318 C1316 1.391 . S
C1318 C1319 1.400 . S
C1319 C1313 1.491 . S
C1319 C1318 1.400 . S
C1319 C1320 1.398 . S
C1320 H1308 0.950 . S
C1320 C1319 1.398 . S
C1320 C1321 1.391 . S
C1321 H1309 0.950 . S
C1321 C1317 1.393 . S
C1321 C1320 1.391 . S
H1322 C1330 0.950 . S
H1323 C1335 0.950 . S
H1324 C1332 0.950 . S
H1325 C1334 0.950 . S
H1326 C1336 0.950 . S
H1327 C1338 0.950 . S
H1328 C1340 0.950 . S
H1329 C1341 0.950 . S
C1330 H1322 0.950 . S
C1330 C1331 1.386 . S
C1330 C1332 1.391 . S
C1331 C1330 1.386 . S
C1331 C1335 1.393 . S
C1332 H1324 0.950 . S
C1332 C1330 1.391 . S
C1332 C1333 1.400 . S
C1333 C1332 1.400 . S
C1333 C1334 1.398 . S
C1333 C1339 1.491 . S
C1334 H1325 0.950 . S
C1334 C1333 1.398 . S
C1334 C1335 1.391 . S
C1335 H1323 0.950 . S
C1335 C1331 1.393 . S
C1335 C1334 1.391 . S
C1336 H1326 0.950 . S
C1336 C1337 1.386 . S
C1336 C1338 1.391 . S
C1337 C1336 1.386 . S
C1337 C1341 1.393 . S
C1338 H1327 0.950 . S
C1338 C1336 1.391 . S
C1338 C1339 1.400 . S
C1339 C1333 1.491 . S
C1339 C1338 1.400 . S
C1339 C1340 1.398 . S
C1340 H1328 0.950 . S
C1340 C1339 1.398 . S
C1340 C1341 1.391 . S
C1341 H1329 0.950 . S
C1341 C1337 1.393 . S
C1341 C1340 1.391 . S
H1342 C1350 0.950 . S
H1343 C1355 0.950 . S
H1344 C1352 0.950 . S
H1345 C1354 0.950 . S
H1346 C1356 0.950 . S
H1347 C1358 0.950 . S
H1348 C1360 0.950 . S
H1349 C1361 0.950 . S
C1350 H1342 0.950 . S
C1350 C1351 1.386 . S
C1350 C1352 1.391 . S
C1351 C1350 1.386 . S
C1351 C1355 1.393 . S
C1352 H1344 0.950 . S
C1352 C1350 1.391 . S
C1352 C1353 1.400 . S
C1353 C1352 1.400 . S
C1353 C1354 1.398 . S
C1353 C1359 1.491 . S
C1354 H1345 0.950 . S
C1354 C1353 1.398 . S
C1354 C1355 1.391 . S
C1355 H1343 0.950 . S
C1355 C1351 1.393 . S
C1355 C1354 1.391 . S
C1356 H1346 0.950 . S
C1356 C1357 1.386 . S
C1356 C1358 1.391 . S
C1357 C1356 1.386 . S
C1357 C1361 1.393 . S
C1358 H1347 0.950 . S
C1358 C1356 1.391 . S
C1358 C1359 1.400 . S
C1359 C1353 1.491 . S
C1359 C1358 1.400 . S
C1359 C1360 1.398 . S
C1360 H1348 0.950 . S
C1360 C1359 1.398 . S
C1360 C1361 1.391 . S
C1361 H1349 0.950 . S
C1361 C1357 1.393 . S
C1361 C1360 1.391 . S
H1362 C1370 0.950 . S
H1363 C1375 0.950 . S
H1364 C1372 0.950 . S
H1365 C1374 0.950 1_455 S
H1366 C1376 0.950 . S
H1367 C1378 0.950 . S
H1368 C1380 0.946 . S
H1369 C1381 0.950 . S
C1370 H1362 0.950 . S
C1370 C1371 1.386 . S
C1370 C1372 1.391 . S
C1371 C1370 1.386 . S
C1371 C1375 1.393 . S
C1372 H1364 0.950 . S
C1372 C1370 1.391 . S
C1372 C1373 1.400 . S
C1373 C1372 1.400 . S
C1373 C1374 1.398 . S
C1373 C1379 1.491 1_655 S
C1374 H1365 0.950 1_655 S
C1374 C1373 1.398 . S
C1374 C1375 1.391 . S
C1375 H1363 0.950 . S
C1375 C1371 1.393 . S
C1375 C1374 1.391 . S
C1376 H1366 0.950 . S
C1376 C1377 1.386 . S
C1376 C1378 1.391 . S
C1377 C1376 1.386 . S
C1377 C1381 1.393 . S
C1378 H1367 0.950 . S
C1378 C1376 1.391 . S
C1378 C1379 1.400 . S
C1379 C1373 1.491 1_455 S
C1379 C1378 1.400 . S
C1379 C1380 1.408 1_455 S
C1380 H1368 0.946 . S
C1380 C1379 1.408 1_655 S
C1380 C1381 1.386 1_655 S
C1381 H1369 0.950 . S
C1381 C1377 1.393 . S
C1381 C1380 1.386 1_455 S
H1382 C1390 0.950 . S
H1383 C1395 0.950 . S
H1384 C1392 0.950 . S
H1385 C1394 0.950 . S
H1386 C1396 0.950 . S
H1387 C1398 0.950 . S
H1388 C1400 0.950 . S
H1389 C1401 0.950 . S
C1390 H1382 0.950 . S
C1390 C1391 1.386 . S
C1390 C1392 1.391 . S
C1391 C1390 1.386 . S
C1391 C1395 1.393 . S
C1392 H1384 0.950 . S
C1392 C1390 1.391 . S
C1392 C1393 1.400 . S
C1393 C1392 1.400 . S
C1393 C1394 1.398 . S
C1393 C1399 1.491 . S
C1394 H1385 0.950 . S
C1394 C1393 1.398 . S
C1394 C1395 1.391 . S
C1395 H1383 0.950 . S
C1395 C1391 1.393 . S
C1395 C1394 1.391 . S
C1396 H1386 0.950 . S
C1396 C1397 1.386 . S
C1396 C1398 1.391 . S
C1397 C1396 1.386 . S
C1397 C1401 1.393 . S
C1398 H1387 0.950 . S
C1398 C1396 1.391 . S
C1398 C1399 1.400 . S
C1399 C1393 1.491 . S
C1399 C1398 1.400 . S
C1399 C1400 1.398 . S
C1400 H1388 0.950 . S
C1400 C1399 1.398 . S
C1400 C1401 1.391 . S
C1401 H1389 0.950 . S
C1401 C1397 1.393 . S
C1401 C1400 1.391 . S
H1402 C1410 0.950 . S
H1403 C1415 0.950 . S
H1404 C1412 0.950 . S
H1405 C1414 0.950 . S
H1406 C1416 0.950 . S
H1407 C1418 0.950 . S
H1408 C1420 0.950 . S
H1409 C1421 0.950 . S
C1410 H1402 0.950 . S
C1410 C1411 1.386 . S
C1410 C1412 1.391 . S
C1411 C1410 1.386 . S
C1411 C1415 1.393 1_565 S
C1412 H1404 0.950 . S
C1412 C1410 1.391 . S
C1412 C1413 1.400 . S
C1413 C1412 1.400 . S
C1413 C1414 1.398 1_565 S
C1413 C1419 1.491 1_565 S
C1414 H1405 0.950 . S
C1414 C1413 1.398 1_545 S
C1414 C1415 1.391 . S
C1415 H1403 0.950 . S
C1415 C1411 1.393 1_545 S
C1415 C1414 1.391 . S
C1416 H1406 0.950 . S
C1416 C1417 1.386 . S
C1416 C1418 1.391 . S
C1417 C1416 1.386 . S
C1417 C1421 1.393 1_545 S
C1418 H1407 0.950 . S
C1418 C1416 1.391 . S
C1418 C1419 1.400 . S
C1419 C1413 1.491 1_545 S
C1419 C1418 1.400 . S
C1419 C1420 1.398 1_545 S
C1420 H1408 0.950 . S
C1420 C1419 1.398 1_565 S
C1420 C1421 1.391 . S
C1421 H1409 0.950 . S
C1421 C1417 1.393 1_565 S
C1421 C1420 1.391 . S
H1422 C1430 0.950 . S
H1423 C1435 0.955 . S
H1424 C1432 0.950 . S
H1425 C1434 0.950 . S
H1426 C1436 0.950 . S
H1427 C1438 0.950 . S
H1428 C1440 0.950 . S
H1429 C1441 0.952 . S
C1430 H1422 0.950 . S
C1430 C1431 1.386 . S
C1430 C1432 1.391 . S
C1431 C1430 1.386 . S
C1431 C1435 1.393 . S
C1432 H1424 0.950 . S
C1432 C1430 1.391 . S
C1432 C1433 1.400 . S
C1433 C1432 1.400 . S
C1433 C1434 1.398 1_554 S
C1433 C1439 1.491 1_554 S
C1434 H1425 0.950 . S
C1434 C1433 1.398 1_556 S
C1434 C1435 1.391 1_556 S
C1435 H1423 0.955 . S
C1435 C1431 1.393 . S
C1435 C1434 1.391 1_554 S
C1436 H1426 0.950 . S
C1436 C1437 1.386 . S
C1436 C1438 1.391 . S
C1437 C1436 1.386 . S
C1437 C1441 1.393 . S
C1438 H1427 0.950 . S
C1438 C1436 1.391 . S
C1438 C1439 1.400 . S
C1439 C1433 1.491 1_556 S
C1439 C1438 1.400 . S
C1439 C1440 1.398 1_556 S
C1440 H1428 0.950 . S
C1440 C1439 1.398 1_554 S
C1440 C1441 1.391 1_554 S
C1441 H1429 0.952 . S
C1441 C1437 1.393 . S
C1441 C1440 1.391 1_556 S
H1442 C1450 0.950 . S
H1443 C1455 0.950 . S
H1444 C1452 0.950 . S
H1445 C1454 0.950 1_554 S
H1446 C1456 0.950 . S
H1447 C1458 0.950 . S
H1448 C1460 0.950 1_556 S
H1449 C1461 0.950 . S
C1450 H1442 0.950 . S
C1450 C1451 1.386 . S
C1450 C1452 1.391 . S
C1451 C1450 1.386 . S
C1451 C1455 1.393 . S
C1452 H1444 0.950 . S
C1452 C1450 1.391 . S
C1452 C1453 1.400 . S
C1453 C1452 1.400 . S
C1453 C1454 1.398 . S
C1453 C1459 1.491 1_546 S
C1454 H1445 0.950 1_556 S
C1454 C1453 1.398 . S
C1454 C1455 1.391 . S
C1455 H1443 0.950 . S
C1455 C1451 1.393 . S
C1455 C1454 1.391 . S
C1456 H1446 0.950 . S
C1456 C1457 1.386 . S
C1456 C1458 1.391 . S
C1457 C1456 1.386 . S
C1457 C1461 1.393 . S
C1458 H1447 0.950 . S
C1458 C1456 1.391 . S
C1458 C1459 1.400 . S
C1459 C1453 1.491 1_564 S
C1459 C1458 1.400 . S
C1459 C1460 1.398 . S
C1460 H1448 0.950 1_554 S
C1460 C1459 1.398 . S
C1460 C1461 1.391 . S
C1461 H1449 0.950 . S
C1461 C1457 1.393 . S
C1461 C1460 1.391 . S
H1462 C1470 0.950 1_554 S
H1463 C1475 0.950 . S
H1464 C1472 0.950 . S
H1465 C1474 0.950 . S
H1466 C1476 0.950 1_556 S
H1467 C1478 0.950 . S
H1468 C1480 0.950 . S
H1469 C1481 0.950 . S
C1470 H1462 0.950 1_556 S
C1470 C1471 1.386 . S
C1470 C1472 1.391 1_556 S
C1471 C1470 1.386 . S
C1471 C1475 1.393 . S
C1472 H1464 0.950 . S
C1472 C1470 1.391 1_554 S
C1472 C1473 1.400 1_554 S
C1473 C1472 1.400 1_556 S
C1473 C1474 1.398 . S
C1473 C1479 1.491 1_656 S
C1474 H1465 0.950 . S
C1474 C1473 1.398 . S
C1474 C1475 1.391 . S
C1475 H1463 0.950 . S
C1475 C1471 1.393 . S
C1475 C1474 1.391 . S
C1476 H1466 0.950 1_554 S
C1476 C1477 1.386 . S
C1476 C1478 1.391 1_554 S
C1477 C1476 1.386 . S
C1477 C1481 1.393 . S
C1478 H1467 0.950 . S
C1478 C1476 1.391 1_556 S
C1478 C1479 1.400 1_556 S
C1479 C1473 1.491 1_454 S
C1479 C1478 1.400 1_554 S
C1479 C1480 1.398 . S
C1480 H1468 0.950 . S
C1480 C1479 1.398 . S
C1480 C1481 1.391 . S
C1481 H1469 0.950 . S
C1481 C1477 1.393 . S
C1481 C1480 1.391 . S
H1482 C1490 0.950 1_554 S
H1483 C1495 0.950 . S
H1484 C1492 0.950 . S
H1485 C1494 0.950 . S
H1486 C1496 0.950 1_556 S
H1487 C1498 0.950 . S
H1488 C1500 0.950 . S
H1489 C1501 0.950 . S
C1490 H1482 0.950 1_556 S
C1490 C1491 1.386 . S
C1490 C1492 1.391 1_556 S
C1491 C1490 1.386 . S
C1491 C1495 1.393 . S
C1492 H1484 0.950 . S
C1492 C1490 1.391 1_554 S
C1492 C1493 1.400 1_554 S
C1493 C1492 1.400 1_556 S
C1493 C1494 1.398 . S
C1493 C1499 1.491 1_556 S
C1494 H1485 0.950 . S
C1494 C1493 1.398 . S
C1494 C1495 1.391 . S
C1495 H1483 0.950 . S
C1495 C1491 1.393 . S
C1495 C1494 1.391 . S
C1496 H1486 0.950 1_554 S
C1496 C1497 1.386 . S
C1496 C1498 1.391 1_554 S
C1497 C1496 1.386 . S
C1497 C1501 1.393 . S
C1498 H1487 0.950 . S
C1498 C1496 1.391 1_556 S
C1498 C1499 1.400 1_556 S
C1499 C1493 1.491 1_554 S
C1499 C1498 1.400 1_554 S
C1499 C1500 1.398 . S
C1500 H1488 0.950 . S
C1500 C1499 1.398 . S
C1500 C1501 1.391 . S
C1501 H1489 0.950 . S
C1501 C1497 1.393 . S
C1501 C1500 1.391 . S
H1502 C1510 0.950 1_556 S
H1503 C1515 0.950 . S
H1504 C1512 0.950 . S
H1505 C1514 0.950 . S
H1506 C1516 0.950 1_554 S
H1507 C1518 0.950 . S
H1508 C1520 0.950 . S
H1509 C1521 0.950 . S
C1510 H1502 0.950 1_554 S
C1510 C1511 1.386 . S
C1510 C1512 1.391 1_554 S
C1511 C1510 1.386 . S
C1511 C1515 1.393 . S
C1512 H1504 0.950 . S
C1512 C1510 1.391 1_556 S
C1512 C1513 1.400 1_556 S
C1513 C1512 1.400 1_554 S
C1513 C1514 1.398 . S
C1513 C1519 1.491 1_564 S
C1514 H1505 0.950 . S
C1514 C1513 1.398 . S
C1514 C1515 1.391 . S
C1515 H1503 0.950 . S
C1515 C1511 1.393 . S
C1515 C1514 1.391 . S
C1516 H1506 0.950 1_556 S
C1516 C1517 1.386 . S
C1516 C1518 1.391 1_556 S
C1517 C1516 1.386 . S
C1517 C1521 1.393 . S
C1518 H1507 0.950 . S
C1518 C1516 1.391 1_554 S
C1518 C1519 1.400 1_554 S
C1519 C1513 1.491 1_546 S
C1519 C1518 1.400 1_556 S
C1519 C1520 1.398 . S
C1520 H1508 0.950 . S
C1520 C1519 1.398 . S
C1520 C1521 1.391 . S
C1521 H1509 0.950 . S
C1521 C1517 1.393 . S
C1521 C1520 1.391 . S
H1522 C1530 0.950 . S
H1523 C1535 0.956 . S
H1524 C1532 0.950 . S
H1525 C1534 0.950 . S
H1526 C1536 0.950 . S
H1527 C1538 0.950 . S
H1528 C1540 0.950 . S
H1529 C1541 0.952 . S
C1530 H1522 0.950 . S
C1530 C1531 1.386 . S
C1530 C1532 1.391 . S
C1531 C1530 1.386 . S
C1531 C1535 1.383 1_556 S
C1532 H1524 0.950 . S
C1532 C1530 1.391 . S
C1532 C1533 1.400 . S
C1533 C1532 1.400 . S
C1533 C1534 1.398 1_556 S
C1533 C1539 1.491 1_656 S
C1534 H1525 0.950 . S
C1534 C1533 1.398 1_554 S
C1534 C1535 1.394 . S
C1535 H1523 0.956 . S
C1535 C1531 1.383 1_554 S
C1535 C1534 1.394 . S
C1536 H1526 0.950 . S
C1536 C1537 1.386 . S
C1536 C1538 1.391 . S
C1537 C1536 1.386 . S
C1537 C1541 1.389 1_554 S
C1538 H1527 0.950 . S
C1538 C1536 1.391 . S
C1538 C1539 1.400 . S
C1539 C1533 1.491 1_454 S
C1539 C1538 1.400 . S
C1539 C1540 1.398 1_554 S
C1540 H1528 0.950 . S
C1540 C1539 1.398 1_556 S
C1540 C1541 1.392 . S
C1541 H1529 0.952 . S
C1541 C1537 1.389 1_556 S
C1541 C1540 1.392 . S
H1542 C1550 0.950 . S
H1543 C1555 0.950 . S
H1544 C1552 0.950 . S
H1545 C1554 0.950 . S
H1546 C1556 0.950 . S
H1547 C1558 0.950 . S
H1548 C1560 0.950 . S
H1549 C1561 0.950 . S
C1550 H1542 0.950 . S
C1550 C1551 1.386 . S
C1550 C1552 1.391 . S
C1551 C1550 1.386 . S
C1551 C1555 1.393 . S
C1552 H1544 0.950 . S
C1552 C1550 1.391 . S
C1552 C1553 1.400 . S
C1553 C1552 1.400 . S
C1553 C1554 1.398 . S
C1553 C1559 1.491 . S
C1554 H1545 0.950 . S
C1554 C1553 1.398 . S
C1554 C1555 1.391 . S
C1555 H1543 0.950 . S
C1555 C1551 1.393 . S
C1555 C1554 1.391 . S
C1556 H1546 0.950 . S
C1556 C1557 1.386 . S
C1556 C1558 1.391 . S
C1557 C1556 1.386 . S
C1557 C1561 1.393 . S
C1558 H1547 0.950 . S
C1558 C1556 1.391 . S
C1558 C1559 1.400 . S
C1559 C1553 1.491 . S
C1559 C1558 1.400 . S
C1559 C1560 1.398 . S
C1560 H1548 0.950 . S
C1560 C1559 1.398 . S
C1560 C1561 1.391 . S
C1561 H1549 0.950 . S
C1561 C1557 1.393 . S
C1561 C1560 1.391 . S
H1562 C1570 0.950 . S
H1563 C1575 0.950 . S
H1564 C1572 0.950 . S
H1565 C1574 0.950 . S
H1566 C1576 0.950 . S
H1567 C1578 0.950 . S
H1568 C1580 0.950 . S
H1569 C1581 0.950 . S
C1570 H1562 0.950 . S
C1570 C1571 1.386 . S
C1570 C1572 1.391 . S
C1571 C1570 1.386 . S
C1571 C1575 1.393 . S
C1572 H1564 0.950 . S
C1572 C1570 1.391 . S
C1572 C1573 1.400 . S
C1573 C1572 1.400 . S
C1573 C1574 1.398 . S
C1573 C1579 1.491 . S
C1574 H1565 0.950 . S
C1574 C1573 1.398 . S
C1574 C1575 1.391 . S
C1575 H1563 0.950 . S
C1575 C1571 1.393 . S
C1575 C1574 1.391 . S
C1576 H1566 0.950 . S
C1576 C1577 1.386 . S
C1576 C1578 1.391 . S
C1577 C1576 1.386 . S
C1577 C1581 1.393 . S
C1578 H1567 0.950 . S
C1578 C1576 1.391 . S
C1578 C1579 1.400 . S
C1579 C1573 1.491 . S
C1579 C1578 1.400 . S
C1579 C1580 1.398 . S
C1580 H1568 0.950 . S
C1580 C1579 1.398 . S
C1580 C1581 1.391 . S
C1581 H1569 0.950 . S
C1581 C1577 1.393 . S
C1581 C1580 1.391 . S
H1582 C1590 0.950 . S
H1583 C1595 0.950 . S
H1584 C1592 0.950 . S
H1585 C1594 0.950 . S
H1586 C1596 0.950 . S
H1587 C1598 0.950 . S
H1588 C1600 0.950 . S
H1589 C1601 0.950 . S
C1590 H1582 0.950 . S
C1590 C1591 1.386 . S
C1590 C1592 1.391 . S
C1591 C1590 1.386 . S
C1591 C1595 1.393 . S
C1592 H1584 0.950 . S
C1592 C1590 1.391 . S
C1592 C1593 1.400 . S
C1593 C1592 1.400 . S
C1593 C1594 1.398 . S
C1593 C1599 1.491 . S
C1594 H1585 0.950 . S
C1594 C1593 1.398 . S
C1594 C1595 1.391 . S
C1595 H1583 0.950 . S
C1595 C1591 1.393 . S
C1595 C1594 1.391 . S
C1596 H1586 0.950 . S
C1596 C1597 1.386 . S
C1596 C1598 1.391 . S
C1597 C1596 1.386 . S
C1597 C1601 1.393 . S
C1598 H1587 0.950 . S
C1598 C1596 1.391 . S
C1598 C1599 1.400 . S
C1599 C1593 1.491 . S
C1599 C1598 1.400 . S
C1599 C1600 1.398 . S
C1600 H1588 0.950 . S
C1600 C1599 1.398 . S
C1600 C1601 1.391 . S
C1601 H1589 0.950 . S
C1601 C1597 1.393 . S
C1601 C1600 1.391 . S
H1602 C1610 0.950 . S
H1603 C1615 0.950 . S
H1604 C1612 0.950 . S
H1605 C1614 0.950 . S
H1606 C1616 0.950 . S
H1607 C1618 0.950 . S
H1608 C1620 0.950 . S
H1609 C1621 0.950 . S
C1610 H1602 0.950 . S
C1610 C1611 1.386 . S
C1610 C1612 1.391 . S
C1611 C1610 1.386 . S
C1611 C1615 1.393 . S
C1612 H1604 0.950 . S
C1612 C1610 1.391 . S
C1612 C1613 1.400 . S
C1613 C1612 1.400 . S
C1613 C1614 1.398 . S
C1613 C1619 1.491 . S
C1614 H1605 0.950 . S
C1614 C1613 1.398 . S
C1614 C1615 1.391 . S
C1615 H1603 0.950 . S
C1615 C1611 1.393 . S
C1615 C1614 1.391 . S
C1616 H1606 0.950 . S
C1616 C1617 1.386 . S
C1616 C1618 1.391 . S
C1617 C1616 1.386 . S
C1617 C1621 1.393 . S
C1618 H1607 0.950 . S
C1618 C1616 1.391 . S
C1618 C1619 1.400 . S
C1619 C1613 1.491 . S
C1619 C1618 1.400 . S
C1619 C1620 1.398 . S
C1620 H1608 0.950 . S
C1620 C1619 1.398 . S
C1620 C1621 1.391 . S
C1621 H1609 0.950 . S
C1621 C1617 1.393 . S
C1621 C1620 1.391 . S
H1622 C1630 0.950 . S
H1623 C1635 0.950 . S
H1624 C1632 0.950 . S
H1625 C1634 0.950 . S
H1626 C1636 0.950 . S
H1627 C1638 0.950 . S
H1628 C1640 0.950 . S
H1629 C1641 0.950 . S
C1630 H1622 0.950 . S
C1630 C1631 1.386 . S
C1630 C1632 1.391 . S
C1631 C1630 1.386 . S
C1631 C1635 1.393 . S
C1632 H1624 0.950 . S
C1632 C1630 1.391 . S
C1632 C1633 1.400 . S
C1633 C1632 1.400 . S
C1633 C1634 1.398 . S
C1633 C1639 1.491 . S
C1634 H1625 0.950 . S
C1634 C1633 1.398 . S
C1634 C1635 1.391 . S
C1635 H1623 0.950 . S
C1635 C1631 1.393 . S
C1635 C1634 1.391 . S
C1636 H1626 0.950 . S
C1636 C1637 1.386 . S
C1636 C1638 1.391 . S
C1637 C1636 1.386 . S
C1637 C1641 1.393 . S
C1638 H1627 0.950 . S
C1638 C1636 1.391 . S
C1638 C1639 1.400 . S
C1639 C1633 1.491 . S
C1639 C1638 1.400 . S
C1639 C1640 1.398 . S
C1640 H1628 0.950 . S
C1640 C1639 1.398 . S
C1640 C1641 1.391 . S
C1641 H1629 0.950 . S
C1641 C1637 1.393 . S
C1641 C1640 1.391 . S
H1642 C1650 0.950 . S
H1643 C1655 0.950 . S
H1644 C1652 0.950 . S
H1645 C1654 0.950 . S
H1646 C1656 0.950 . S
H1647 C1658 0.950 . S
H1648 C1660 0.950 . S
H1649 C1661 0.950 . S
C1650 H1642 0.950 . S
C1650 C1651 1.386 . S
C1650 C1652 1.391 . S
C1651 C1650 1.386 . S
C1651 C1655 1.393 . S
C1652 H1644 0.950 . S
C1652 C1650 1.391 . S
C1652 C1653 1.400 . S
C1653 C1652 1.400 . S
C1653 C1654 1.398 . S
C1653 C1659 1.491 . S
C1654 H1645 0.950 . S
C1654 C1653 1.398 . S
C1654 C1655 1.391 . S
C1655 H1643 0.950 . S
C1655 C1651 1.393 . S
C1655 C1654 1.391 . S
C1656 H1646 0.950 . S
C1656 C1657 1.386 . S
C1656 C1658 1.391 . S
C1657 C1656 1.386 . S
C1657 C1661 1.393 . S
C1658 H1647 0.950 . S
C1658 C1656 1.391 . S
C1658 C1659 1.400 . S
C1659 C1653 1.491 . S
C1659 C1658 1.400 . S
C1659 C1660 1.398 . S
C1660 H1648 0.950 . S
C1660 C1659 1.398 . S
C1660 C1661 1.391 . S
C1661 H1649 0.950 . S
C1661 C1657 1.393 . S
C1661 C1660 1.391 . S
H1662 C1670 0.950 . S
H1663 C1675 0.950 . S
H1664 C1672 0.950 . S
H1665 C1674 0.950 . S
H1666 C1676 0.950 . S
H1667 C1678 0.950 . S
H1668 C1680 0.950 . S
H1669 C1681 0.950 . S
C1670 H1662 0.950 . S
C1670 C1671 1.386 . S
C1670 C1672 1.391 . S
C1671 C1670 1.386 . S
C1671 C1675 1.393 . S
C1672 H1664 0.950 . S
C1672 C1670 1.391 . S
C1672 C1673 1.400 . S
C1673 C1672 1.400 . S
C1673 C1674 1.398 . S
C1673 C1679 1.491 . S
C1674 H1665 0.950 . S
C1674 C1673 1.398 . S
C1674 C1675 1.391 . S
C1675 H1663 0.950 . S
C1675 C1671 1.393 . S
C1675 C1674 1.391 . S
C1676 H1666 0.950 . S
C1676 C1677 1.386 . S
C1676 C1678 1.391 . S
C1677 C1676 1.386 . S
C1677 C1681 1.393 . S
C1678 H1667 0.950 . S
C1678 C1676 1.391 . S
C1678 C1679 1.400 . S
C1679 C1673 1.491 . S
C1679 C1678 1.400 . S
C1679 C1680 1.398 . S
C1680 H1668 0.950 . S
C1680 C1679 1.398 . S
C1680 C1681 1.391 . S
C1681 H1669 0.950 . S
C1681 C1677 1.393 . S
C1681 C1680 1.391 . S
H1682 C1690 0.950 . S
H1683 C1695 0.950 . S
H1684 C1692 0.950 . S
H1685 C1694 0.950 . S
H1686 C1696 0.950 . S
H1687 C1698 0.950 . S
H1688 C1700 0.950 . S
H1689 C1701 0.950 . S
C1690 H1682 0.950 . S
C1690 C1691 1.386 . S
C1690 C1692 1.391 . S
C1691 C1690 1.386 . S
C1691 C1695 1.393 . S
C1692 H1684 0.950 . S
C1692 C1690 1.391 . S
C1692 C1693 1.400 . S
C1693 C1692 1.400 . S
C1693 C1694 1.398 . S
C1693 C1699 1.491 . S
C1694 H1685 0.950 . S
C1694 C1693 1.398 . S
C1694 C1695 1.391 . S
C1695 H1683 0.950 . S
C1695 C1691 1.393 . S
C1695 C1694 1.391 . S
C1696 H1686 0.950 . S
C1696 C1697 1.386 . S
C1696 C1698 1.391 . S
C1697 C1696 1.386 . S
C1697 C1701 1.393 . S
C1698 H1687 0.950 . S
C1698 C1696 1.391 . S
C1698 C1699 1.400 . S
C1699 C1693 1.491 . S
C1699 C1698 1.400 . S
C1699 C1700 1.398 . S
C1700 H1688 0.950 . S
C1700 C1699 1.398 . S
C1700 C1701 1.391 . S
C1701 H1689 0.950 . S
C1701 C1697 1.393 . S
C1701 C1700 1.391 . S
H1702 C1710 0.950 . S
H1703 C1715 0.950 . S
H1704 C1712 0.950 . S
H1705 C1714 0.950 . S
H1706 C1716 0.950 . S
H1707 C1718 0.950 . S
H1708 C1720 0.950 . S
H1709 C1721 0.950 . S
C1710 H1702 0.950 . S
C1710 C1711 1.386 . S
C1710 C1712 1.391 . S
C1711 C1710 1.386 . S
C1711 C1715 1.393 . S
C1712 H1704 0.950 . S
C1712 C1710 1.391 . S
C1712 C1713 1.400 . S
C1713 C1712 1.400 . S
C1713 C1714 1.398 . S
C1713 C1719 1.491 . S
C1714 H1705 0.950 . S
C1714 C1713 1.398 . S
C1714 C1715 1.391 . S
C1715 H1703 0.950 . S
C1715 C1711 1.393 . S
C1715 C1714 1.391 . S
C1716 H1706 0.950 . S
C1716 C1717 1.386 . S
C1716 C1718 1.391 . S
C1717 C1716 1.386 . S
C1717 C1721 1.393 . S
C1718 H1707 0.950 . S
C1718 C1716 1.391 . S
C1718 C1719 1.400 . S
C1719 C1713 1.491 . S
C1719 C1718 1.400 . S
C1719 C1720 1.398 . S
C1720 H1708 0.950 . S
C1720 C1719 1.398 . S
C1720 C1721 1.391 . S
C1721 H1709 0.950 . S
C1721 C1717 1.393 . S
C1721 C1720 1.391 . S
H1722 C1730 0.950 . S
H1723 C1735 0.950 . S
H1724 C1732 0.950 . S
H1725 C1734 0.950 . S
H1726 C1736 0.950 . S
H1727 C1738 0.950 . S
H1728 C1740 0.950 . S
H1729 C1741 0.950 . S
C1730 H1722 0.950 . S
C1730 C1731 1.386 . S
C1730 C1732 1.391 . S
C1731 C1730 1.386 . S
C1731 C1735 1.393 . S
C1732 H1724 0.950 . S
C1732 C1730 1.391 . S
C1732 C1733 1.400 . S
C1733 C1732 1.400 . S
C1733 C1734 1.398 . S
C1733 C1739 1.491 . S
C1734 H1725 0.950 . S
C1734 C1733 1.398 . S
C1734 C1735 1.391 . S
C1735 H1723 0.950 . S
C1735 C1731 1.393 . S
C1735 C1734 1.391 . S
C1736 H1726 0.950 . S
C1736 C1737 1.386 . S
C1736 C1738 1.391 . S
C1737 C1736 1.386 . S
C1737 C1741 1.393 . S
C1738 H1727 0.950 . S
C1738 C1736 1.391 . S
C1738 C1739 1.400 . S
C1739 C1733 1.491 . S
C1739 C1738 1.400 . S
C1739 C1740 1.398 . S
C1740 H1728 0.950 . S
C1740 C1739 1.398 . S
C1740 C1741 1.391 . S
C1741 H1729 0.950 . S
C1741 C1737 1.393 . S
C1741 C1740 1.391 . S
H1742 C1750 0.950 . S
H1743 C1755 0.950 . S
H1744 C1752 0.950 . S
H1745 C1754 0.950 . S
H1746 C1756 0.950 . S
H1747 C1758 0.950 . S
H1748 C1760 0.950 . S
H1749 C1761 0.950 . S
C1750 H1742 0.950 . S
C1750 C1751 1.386 . S
C1750 C1752 1.391 . S
C1751 C1750 1.386 . S
C1751 C1755 1.393 . S
C1752 H1744 0.950 . S
C1752 C1750 1.391 . S
C1752 C1753 1.400 . S
C1753 C1752 1.400 . S
C1753 C1754 1.398 . S
C1753 C1759 1.491 . S
C1754 H1745 0.950 . S
C1754 C1753 1.398 . S
C1754 C1755 1.391 . S
C1755 H1743 0.950 . S
C1755 C1751 1.393 . S
C1755 C1754 1.391 . S
C1756 H1746 0.950 . S
C1756 C1757 1.386 . S
C1756 C1758 1.391 . S
C1757 C1756 1.386 . S
C1757 C1761 1.393 . S
C1758 H1747 0.950 . S
C1758 C1756 1.391 . S
C1758 C1759 1.400 . S
C1759 C1753 1.491 . S
C1759 C1758 1.400 . S
C1759 C1760 1.398 . S
C1760 H1748 0.950 . S
C1760 C1759 1.398 . S
C1760 C1761 1.391 . S
C1761 H1749 0.950 . S
C1761 C1757 1.393 . S
C1761 C1760 1.391 . S
H1762 C1770 0.950 . S
H1763 C1775 0.950 . S
H1764 C1772 0.950 . S
H1765 C1774 0.950 . S
H1766 C1776 0.950 . S
H1767 C1778 0.950 . S
H1768 C1780 0.950 . S
H1769 C1781 0.950 . S
C1770 H1762 0.950 . S
C1770 C1771 1.386 . S
C1770 C1772 1.391 . S
C1771 C1770 1.386 . S
C1771 C1775 1.393 . S
C1772 H1764 0.950 . S
C1772 C1770 1.391 . S
C1772 C1773 1.400 . S
C1773 C1772 1.400 . S
C1773 C1774 1.398 . S
C1773 C1779 1.491 . S
C1774 H1765 0.950 . S
C1774 C1773 1.398 . S
C1774 C1775 1.391 . S
C1775 H1763 0.950 . S
C1775 C1771 1.393 . S
C1775 C1774 1.391 . S
C1776 H1766 0.950 . S
C1776 C1777 1.386 . S
C1776 C1778 1.391 . S
C1777 C1776 1.386 . S
C1777 C1781 1.393 . S
C1778 H1767 0.950 . S
C1778 C1776 1.391 . S
C1778 C1779 1.400 . S
C1779 C1773 1.491 . S
C1779 C1778 1.400 . S
C1779 C1780 1.398 . S
C1780 H1768 0.950 . S
C1780 C1779 1.398 . S
C1780 C1781 1.391 . S
C1781 H1769 0.950 . S
C1781 C1777 1.393 . S
C1781 C1780 1.391 . S
C1071 C1006 1.739 . S
C1077 C3 1.742 . S
C1091 C890 1.735 . S
C1097 C64 1.736 . S
C1111 C949 1.732 . S
C1117 C123 1.732 . S
C1131 C418 1.734 . S
C1137 C182 1.733 . S
C1151 C477 1.733 . S
C1157 C241 1.734 . S
C1171 C298 1.743 . S
C1177 C357 1.737 . S
C1191 C536 1.733 . S
C1197 C772 1.733 . S
C1211 C595 1.733 . S
C1217 C831 1.734 . S
C1231 C652 1.743 . S
C1237 C711 1.736 . S
C1251 C33 0.582 . S
C1257 C1036 0.582 . S
C1271 C937 0.577 . S
C1277 C111 0.567 . S
C1291 C170 0.594 . S
C1297 C996 0.577 . S
C1311 C465 0.596 . S
C1317 C229 0.591 . S
C1331 C288 0.596 . S
C1337 C524 0.589 . S
C1351 C328 0.607 . S
C1357 C387 0.611 . S
C1371 C583 0.593 . S
C1377 C819 0.594 . S
C1391 C878 0.586 . S
C1397 C642 0.597 . S
C1411 C741 0.608 . S
C1417 C682 0.611 . S
C1431 C52 1.847 . S
C1437 C210 1.854 . S
C1451 C269 1.845 . S
C1457 C92 1.846 . S
C1471 C347 1.851 . S
C1477 C151 1.852 . S
C1491 C300 1.828 . S
C1497 C62 1.806 . S
C1511 C121 1.804 . S
C1517 C180 1.807 . S
C1531 C239 1.818 . S
C1537 C5 1.834 . S
C1551 C406 1.852 . S
C1557 C564 1.846 . S
C1571 C623 1.847 . S
C1577 C446 1.844 . S
C1591 C701 1.848 . S
C1597 C505 1.847 . S
C1611 C654 1.828 . S
C1617 C416 1.803 . S
C1631 C475 1.819 . S
C1637 C534 1.817 . S
C1651 C593 1.814 . S
C1657 C359 1.831 . S
C1671 C918 1.846 . S
C1677 C760 1.853 . S
C1691 C977 1.847 . S
C1697 C800 1.844 . S
C1711 C859 1.847 . S
C1717 C1055 1.853 . S
C1731 C1008 1.833 . S
C1737 C770 1.806 . S
C1751 C829 1.805 . S
C1757 C888 1.809 . S
C1771 C947 1.804 . S
C1777 C713 1.831 . S
