# Generated by pormake.
# Topology ukn, (4)-cn, num edge types: 1
# Building blocks:
#     Node 0, Type 0, BuildingBlock: KUFVIS_clean_sbu_0, # of connection points: 4
#     Node 1, Type 0, BuildingBlock: KUFVIS_clean_sbu_0, # of connection points: 4
#     Node 2, Type 0, BuildingBlock: KUFVIS_clean_sbu_0, # of connection points: 4
#     Node 3, Type 0, BuildingBlock: KUFVIS_clean_sbu_0, # of connection points: 4
#     Node 4, Type 0, BuildingBlock: KUFVIS_clean_sbu_0, # of connection points: 4
#     Node 5, Type 0, BuildingBlock: KUFVIS_clean_sbu_0, # of connection points: 4
#     Node 6, Type 0, BuildingBlock: KUFVIS_clean_sbu_0, # of connection points: 4
#     Node 7, Type 0, BuildingBlock: KUFVIS_clean_sbu_0, # of connection points: 4
#     Node 8, Type 0, BuildingBlock: KUFVIS_clean_sbu_0, # of connection points: 4
#     Node 9, Type 0, BuildingBlock: KUFVIS_clean_sbu_0, # of connection points: 4
#     Node 10, Type 0, BuildingBlock: KUFVIS_clean_sbu_0, # of connection points: 4
#     Node 11, Type 0, BuildingBlock: KUFVIS_clean_sbu_0, # of connection points: 4
#     Node 12, Type 0, BuildingBlock: KUFVIS_clean_sbu_0, # of connection points: 4
#     Node 13, Type 0, BuildingBlock: KUFVIS_clean_sbu_0, # of connection points: 4
#     Node 14, Type 0, BuildingBlock: KUFVIS_clean_sbu_0, # of connection points: 4
#     Node 15, Type 0, BuildingBlock: KUFVIS_clean_sbu_0, # of connection points: 4
#     Node 16, Type 0, BuildingBlock: KUFVIS_clean_sbu_0, # of connection points: 4
#     Node 17, Type 0, BuildingBlock: KUFVIS_clean_sbu_0, # of connection points: 4
#     Node 18, Type 0, BuildingBlock: KUFVIS_clean_sbu_0, # of connection points: 4
#     Node 19, Type 0, BuildingBlock: KUFVIS_clean_sbu_0, # of connection points: 4
#     Node 20, Type 0, BuildingBlock: KUFVIS_clean_sbu_0, # of connection points: 4
#     Node 21, Type 0, BuildingBlock: KUFVIS_clean_sbu_0, # of connection points: 4
#     Node 22, Type 0, BuildingBlock: KUFVIS_clean_sbu_0, # of connection points: 4
#     Node 23, Type 0, BuildingBlock: KUFVIS_clean_sbu_0, # of connection points: 4
#     Node 24, Type 0, BuildingBlock: KUFVIS_clean_sbu_0, # of connection points: 4
#     Node 25, Type 0, BuildingBlock: KUFVIS_clean_sbu_0, # of connection points: 4
#     Node 26, Type 0, BuildingBlock: KUFVIS_clean_sbu_0, # of connection points: 4
#     Node 27, Type 0, BuildingBlock: KUFVIS_clean_sbu_0, # of connection points: 4
#     Node 28, Type 0, BuildingBlock: KUFVIS_clean_sbu_0, # of connection points: 4
#     Node 29, Type 0, BuildingBlock: KUFVIS_clean_sbu_0, # of connection points: 4
#     Node 30, Type 0, BuildingBlock: KUFVIS_clean_sbu_0, # of connection points: 4
#     Node 31, Type 0, BuildingBlock: KUFVIS_clean_sbu_0, # of connection points: 4
#     Node 32, Type 0, BuildingBlock: KUFVIS_clean_sbu_0, # of connection points: 4
#     Node 33, Type 0, BuildingBlock: KUFVIS_clean_sbu_0, # of connection points: 4
#     Node 34, Type 0, BuildingBlock: KUFVIS_clean_sbu_0, # of connection points: 4
#     Node 35, Type 0, BuildingBlock: KUFVIS_clean_sbu_0, # of connection points: 4
#     Edge 36, Type (0, 0), BuildingBlock: UVAHIK_clean_linker_0, # of connection points: 2
#     Edge 37, Type (0, 0), BuildingBlock: UVAHIK_clean_linker_0, # of connection points: 2
#     Edge 38, Type (0, 0), BuildingBlock: UVAHIK_clean_linker_0, # of connection points: 2
#     Edge 39, Type (0, 0), BuildingBlock: UVAHIK_clean_linker_0, # of connection points: 2
#     Edge 40, Type (0, 0), BuildingBlock: UVAHIK_clean_linker_0, # of connection points: 2
#     Edge 41, Type (0, 0), BuildingBlock: UVAHIK_clean_linker_0, # of connection points: 2
#     Edge 42, Type (0, 0), BuildingBlock: UVAHIK_clean_linker_0, # of connection points: 2
#     Edge 43, Type (0, 0), BuildingBlock: UVAHIK_clean_linker_0, # of connection points: 2
#     Edge 44, Type (0, 0), BuildingBlock: UVAHIK_clean_linker_0, # of connection points: 2
#     Edge 45, Type (0, 0), BuildingBlock: UVAHIK_clean_linker_0, # of connection points: 2
#     Edge 46, Type (0, 0), BuildingBlock: UVAHIK_clean_linker_0, # of connection points: 2
#     Edge 47, Type (0, 0), BuildingBlock: UVAHIK_clean_linker_0, # of connection points: 2
#     Edge 48, Type (0, 0), BuildingBlock: UVAHIK_clean_linker_0, # of connection points: 2
#     Edge 49, Type (0, 0), BuildingBlock: UVAHIK_clean_linker_0, # of connection points: 2
#     Edge 50, Type (0, 0), BuildingBlock: UVAHIK_clean_linker_0, # of connection points: 2
#     Edge 51, Type (0, 0), BuildingBlock: UVAHIK_clean_linker_0, # of connection points: 2
#     Edge 52, Type (0, 0), BuildingBlock: UVAHIK_clean_linker_0, # of connection points: 2
#     Edge 53, Type (0, 0), BuildingBlock: UVAHIK_clean_linker_0, # of connection points: 2
#     Edge 54, Type (0, 0), BuildingBlock: UVAHIK_clean_linker_0, # of connection points: 2
#     Edge 55, Type (0, 0), BuildingBlock: UVAHIK_clean_linker_0, # of connection points: 2
#     Edge 56, Type (0, 0), BuildingBlock: UVAHIK_clean_linker_0, # of connection points: 2
#     Edge 57, Type (0, 0), BuildingBlock: UVAHIK_clean_linker_0, # of connection points: 2
#     Edge 58, Type (0, 0), BuildingBlock: UVAHIK_clean_linker_0, # of connection points: 2
#     Edge 59, Type (0, 0), BuildingBlock: UVAHIK_clean_linker_0, # of connection points: 2
#     Edge 60, Type (0, 0), BuildingBlock: UVAHIK_clean_linker_0, # of connection points: 2
#     Edge 61, Type (0, 0), BuildingBlock: UVAHIK_clean_linker_0, # of connection points: 2
#     Edge 62, Type (0, 0), BuildingBlock: UVAHIK_clean_linker_0, # of connection points: 2
#     Edge 63, Type (0, 0), BuildingBlock: UVAHIK_clean_linker_0, # of connection points: 2
#     Edge 64, Type (0, 0), BuildingBlock: UVAHIK_clean_linker_0, # of connection points: 2
#     Edge 65, Type (0, 0), BuildingBlock: UVAHIK_clean_linker_0, # of connection points: 2
#     Edge 66, Type (0, 0), BuildingBlock: UVAHIK_clean_linker_0, # of connection points: 2
#     Edge 67, Type (0, 0), BuildingBlock: UVAHIK_clean_linker_0, # of connection points: 2
#     Edge 68, Type (0, 0), BuildingBlock: UVAHIK_clean_linker_0, # of connection points: 2
#     Edge 69, Type (0, 0), BuildingBlock: UVAHIK_clean_linker_0, # of connection points: 2
#     Edge 70, Type (0, 0), BuildingBlock: UVAHIK_clean_linker_0, # of connection points: 2
#     Edge 71, Type (0, 0), BuildingBlock: UVAHIK_clean_linker_0, # of connection points: 2
#     Edge 72, Type (0, 0), BuildingBlock: UVAHIK_clean_linker_0, # of connection points: 2
#     Edge 73, Type (0, 0), BuildingBlock: UVAHIK_clean_linker_0, # of connection points: 2
#     Edge 74, Type (0, 0), BuildingBlock: UVAHIK_clean_linker_0, # of connection points: 2
#     Edge 75, Type (0, 0), BuildingBlock: UVAHIK_clean_linker_0, # of connection points: 2
#     Edge 76, Type (0, 0), BuildingBlock: UVAHIK_clean_linker_0, # of connection points: 2
#     Edge 77, Type (0, 0), BuildingBlock: UVAHIK_clean_linker_0, # of connection points: 2
#     Edge 78, Type (0, 0), BuildingBlock: UVAHIK_clean_linker_0, # of connection points: 2
#     Edge 79, Type (0, 0), BuildingBlock: UVAHIK_clean_linker_0, # of connection points: 2
#     Edge 80, Type (0, 0), BuildingBlock: UVAHIK_clean_linker_0, # of connection points: 2
#     Edge 81, Type (0, 0), BuildingBlock: UVAHIK_clean_linker_0, # of connection points: 2
#     Edge 82, Type (0, 0), BuildingBlock: UVAHIK_clean_linker_0, # of connection points: 2
#     Edge 83, Type (0, 0), BuildingBlock: UVAHIK_clean_linker_0, # of connection points: 2
#     Edge 84, Type (0, 0), BuildingBlock: UVAHIK_clean_linker_0, # of connection points: 2
#     Edge 85, Type (0, 0), BuildingBlock: UVAHIK_clean_linker_0, # of connection points: 2
#     Edge 86, Type (0, 0), BuildingBlock: UVAHIK_clean_linker_0, # of connection points: 2
#     Edge 87, Type (0, 0), BuildingBlock: UVAHIK_clean_linker_0, # of connection points: 2
#     Edge 88, Type (0, 0), BuildingBlock: UVAHIK_clean_linker_0, # of connection points: 2
#     Edge 89, Type (0, 0), BuildingBlock: UVAHIK_clean_linker_0, # of connection points: 2
#     Edge 90, Type (0, 0), BuildingBlock: UVAHIK_clean_linker_0, # of connection points: 2
#     Edge 91, Type (0, 0), BuildingBlock: UVAHIK_clean_linker_0, # of connection points: 2
#     Edge 92, Type (0, 0), BuildingBlock: UVAHIK_clean_linker_0, # of connection points: 2
#     Edge 93, Type (0, 0), BuildingBlock: UVAHIK_clean_linker_0, # of connection points: 2
#     Edge 94, Type (0, 0), BuildingBlock: UVAHIK_clean_linker_0, # of connection points: 2
#     Edge 95, Type (0, 0), BuildingBlock: UVAHIK_clean_linker_0, # of connection points: 2
#     Edge 96, Type (0, 0), BuildingBlock: UVAHIK_clean_linker_0, # of connection points: 2
#     Edge 97, Type (0, 0), BuildingBlock: UVAHIK_clean_linker_0, # of connection points: 2
#     Edge 98, Type (0, 0), BuildingBlock: UVAHIK_clean_linker_0, # of connection points: 2
#     Edge 99, Type (0, 0), BuildingBlock: UVAHIK_clean_linker_0, # of connection points: 2
#     Edge 100, Type (0, 0), BuildingBlock: UVAHIK_clean_linker_0, # of connection points: 2
#     Edge 101, Type (0, 0), BuildingBlock: UVAHIK_clean_linker_0, # of connection points: 2
#     Edge 102, Type (0, 0), BuildingBlock: UVAHIK_clean_linker_0, # of connection points: 2
#     Edge 103, Type (0, 0), BuildingBlock: UVAHIK_clean_linker_0, # of connection points: 2
#     Edge 104, Type (0, 0), BuildingBlock: UVAHIK_clean_linker_0, # of connection points: 2
#     Edge 105, Type (0, 0), BuildingBlock: UVAHIK_clean_linker_0, # of connection points: 2
#     Edge 106, Type (0, 0), BuildingBlock: UVAHIK_clean_linker_0, # of connection points: 2
#     Edge 107, Type (0, 0), BuildingBlock: UVAHIK_clean_linker_0, # of connection points: 2
# Relax obj value: 0.088
# Max RMSD: 0.107
# Mean RMSD: 0.107
data_MOF--net-ukn--node1-KUFVIS_clean_sbu_0--edge1-UVAHIK_clean_linker_0
_symmetry_space_group_name_H-M    P1
_symmetry_Int_Tables_number       1
_symmetry_cell_setting            triclinic
loop_
_symmetry_equiv_pos_as_xyz
'x, y, z'
_cell_length_a     138.42355
_cell_length_b     138.47382
_cell_length_c     33.284593
_cell_angle_alpha  89.996735
_cell_angle_beta   90.004003
_cell_angle_gamma 120.04132
loop_
_atom_site_label
_atom_site_type_symbol
_atom_site_fract_x
_atom_site_fract_y
_atom_site_fract_z
_atom_type_partial_charge
Mn0 Mn 0.07607 0.29369 0.06636 0.0
Mn1 Mn 0.09909 0.31923 0.07026 0.0
C2 C 0.08524 0.30268 0.00795 0.0
C3 C 0.05664 0.28288 0.06074 0.0
C4 C 0.09887 0.29783 0.09319 0.0
O5 O 0.07548 0.29914 0.12315 0.0
O6 O 0.08981 0.31686 0.11836 0.0
C7 C 0.08866 0.33332 0.06312 0.0
N8 N 0.09609 0.33034 0.04963 0.0
C9 C 0.10265 0.34439 -0.00201 0.0
C10 C 0.09516 0.3477 0.01166 0.0
C11 C 0.0881 0.3421 0.04424 0.0
C12 C 0.10284 0.3356 0.01805 0.0
H13 H 0.08316 0.32899 0.08797 0.0
C14 C 0.0814 0.30907 0.13684 0.0
O15 O 0.06247 0.27868 0.0752 0.0
O16 O 0.06203 0.29337 0.05157 0.0
N17 N 0.1087 0.32258 0.0247 0.0
C18 C 0.11483 0.31782 0.01334 0.0
C19 C 0.12198 0.32211 0.98004 0.0
C20 C 0.12284 0.3313 0.95901 0.0
C21 C 0.11651 0.33611 0.97142 0.0
C22 C 0.10955 0.3315 0.00489 0.0
H23 H 0.11425 0.31079 0.02949 0.0
O24 O 0.07867 0.29195 0.00802 0.0
O25 O 0.08619 0.3077 0.04172 0.0
O26 O 0.08882 0.29094 0.08301 0.0
O27 O 0.10317 0.30842 0.09128 0.0
C28 C 0.11667 0.34517 0.95144 0.0
C29 C 0.10973 0.34928 0.96463 0.0
H30 H 0.09467 0.35442 -0.00296 0.0
H31 H 0.08223 0.34454 0.05472 0.0
H32 H 0.12682 0.31834 0.97061 0.0
H33 H 0.12831 0.33454 0.9332 0.0
H34 H 0.12197 0.3489 0.92544 0.0
H35 H 0.10976 0.35609 0.94851 0.0
Mn36 Mn 0.70605 0.78148 0.06906 0.0
Mn37 Mn 0.68124 0.78033 0.08068 0.0
C38 C 0.69688 0.78342 0.01413 0.0
C39 C 0.71629 0.77252 0.0571 0.0
C40 C 0.70347 0.80046 0.10372 0.0
O41 O 0.70088 0.77439 0.12479 0.0
O42 O 0.68362 0.7723 0.12502 0.0
C43 C 0.66605 0.75608 0.06912 0.0
N44 N 0.66935 0.76682 0.05898 0.0
C45 C 0.65429 0.76085 0.01162 0.0
C46 C 0.65062 0.74973 0.02201 0.0
C47 C 0.65658 0.74734 0.05068 0.0
C48 C 0.66379 0.76921 0.03092 0.0
H49 H 0.67065 0.75422 0.09098 0.0
C50 C 0.69119 0.77069 0.14027 0.0
O51 O 0.72078 0.78218 0.07469 0.0
O52 O 0.70579 0.76789 0.04822 0.0
N53 N 0.6778 0.78769 0.03914 0.0
C54 C 0.68299 0.79877 0.03006 0.0
C55 C 0.67845 0.80252 0.00029 0.0
C56 C 0.66855 0.79487 0.98062 0.0
C57 C 0.66332 0.78353 0.99076 0.0
C58 C 0.66826 0.78028 0.02049 0.0
H59 H 0.69053 0.8047 0.04533 0.0
O60 O 0.70753 0.78707 0.01247 0.0
O61 O 0.69197 0.77871 0.04748 0.0
O62 O 0.70975 0.79685 0.0908 0.0
O63 O 0.69283 0.79469 0.10319 0.0
C64 C 0.65347 0.77531 0.97217 0.0
C65 C 0.649 0.76397 0.98238 0.0
H66 H 0.64333 0.74296 0.00781 0.0
H67 H 0.65388 0.73877 0.05855 0.0
H68 H 0.68254 0.81128 0.99263 0.0
H69 H 0.66509 0.79779 0.95764 0.0
H70 H 0.6494 0.7776 0.94933 0.0
H71 H 0.64158 0.7577 0.96714 0.0
Mn72 Mn 0.21968 0.92696 0.06715 0.0
Mn73 Mn 0.22186 0.90383 0.06091 0.0
C74 C 0.21849 0.91871 0.00543 0.0
C75 C 0.22867 0.94646 0.06627 0.0
C76 C 0.2013 0.90397 0.09271 0.0
O77 O 0.22646 0.92649 0.12155 0.0
O78 O 0.22992 0.91246 0.109 0.0
C79 C 0.24613 0.91408 0.0461 0.0
N80 N 0.23541 0.9069 0.03485 0.0
C81 C 0.24154 0.90081 0.97748 0.0
C82 C 0.25264 0.90801 0.98882 0.0
C83 C 0.25495 0.91472 0.02315 0.0
C84 C 0.2331 0.90052 0.00156 0.0
H85 H 0.24793 0.91932 0.07221 0.0
C86 C 0.23082 0.92051 0.13069 0.0
O87 O 0.21879 0.94055 0.08194 0.0
O88 O 0.2334 0.94106 0.05298 0.0
N89 N 0.2145 0.89488 0.01476 0.0
C90 C 0.20339 0.88911 0.00606 0.0
C91 C 0.19971 0.88241 0.97146 0.0
C92 C 0.20745 0.88164 0.94638 0.0
C93 C 0.21884 0.88761 0.95605 0.0
C94 C 0.22202 0.89414 0.99093 0.0
H95 H 0.19739 0.8896 0.02532 0.0
O96 O 0.21456 0.92541 0.00969 0.0
O97 O 0.22293 0.91715 0.03713 0.0
O98 O 0.2043 0.91409 0.08428 0.0
O99 O 0.20752 0.89968 0.08736 0.0
C100 C 0.22717 0.8875 0.93207 0.0
C101 C 0.23851 0.89413 0.94266 0.0
H102 H 0.25947 0.90857 0.97108 0.0
H103 H 0.2635 0.92039 0.03184 0.0
H104 H 0.19091 0.87785 0.96416 0.0
H105 H 0.20458 0.87652 0.91961 0.0
H106 H 0.22495 0.88249 0.90501 0.0
H107 H 0.24485 0.89417 0.92347 0.0
Mn108 Mn 0.2956 0.07911 0.92098 0.0
Mn109 Mn 0.32053 0.10302 0.9181 0.0
C110 C 0.30478 0.08778 0.97966 0.0
C111 C 0.28524 0.05962 0.92458 0.0
C112 C 0.29852 0.10203 0.90129 0.0
O113 O 0.30084 0.07926 0.86323 0.0
O114 O 0.31768 0.09503 0.86645 0.0
C115 C 0.33534 0.09337 0.91314 0.0
N116 N 0.33219 0.10007 0.9321 0.0
C117 C 0.34674 0.10556 0.98138 0.0
C118 C 0.35018 0.09876 0.96225 0.0
C119 C 0.34444 0.09262 0.92805 0.0
C120 C 0.33764 0.10599 0.96508 0.0
H121 H 0.33093 0.08863 0.88686 0.0
C122 C 0.3102 0.08644 0.84781 0.0
O123 O 0.28075 0.06537 0.91196 0.0
O124 O 0.2958 0.06515 0.93282 0.0
N125 N 0.32431 0.11153 0.96671 0.0
C126 C 0.31954 0.11718 0.9829 0.0
C127 C 0.32408 0.1235 0.01797 0.0
C128 C 0.33353 0.12402 0.03581 0.0
C129 C 0.33836 0.11822 0.0184 0.0
C130 C 0.3335 0.11211 0.98331 0.0
H131 H 0.31229 0.11683 0.96925 0.0
O132 O 0.29409 0.08101 0.97998 0.0
O133 O 0.30969 0.08935 0.94519 0.0
O134 O 0.29212 0.0916 0.90765 0.0
O135 O 0.30914 0.10696 0.904 0.0
C136 C 0.34766 0.11808 0.03488 0.0
C137 C 0.35184 0.11174 0.01643 0.0
H138 H 0.35716 0.09812 0.97376 0.0
H139 H 0.34701 0.08731 0.91323 0.0
H140 H 0.3203 0.12795 0.03125 0.0
H141 H 0.33696 0.12884 0.06302 0.0
H142 H 0.35156 0.12268 0.06211 0.0
H143 H 0.35889 0.11155 0.02976 0.0
Mn144 Mn 0.92372 0.2169 0.9233 0.0
Mn145 Mn 0.90078 0.21937 0.93156 0.0
C146 C 0.91591 0.21604 0.98574 0.0
C147 C 0.94321 0.22568 0.92272 0.0
C148 C 0.90047 0.19861 0.89962 0.0
O149 O 0.92302 0.22362 0.86902 0.0
O150 O 0.90911 0.22718 0.88268 0.0
C151 C 0.91137 0.24371 0.94528 0.0
N152 N 0.90419 0.23306 0.95727 0.0
C153 C 0.89865 0.23952 0.01519 0.0
C154 C 0.90586 0.25056 0.00312 0.0
C155 C 0.91229 0.25266 0.96814 0.0
C156 C 0.89809 0.23095 0.99119 0.0
H157 H 0.9164 0.24536 0.91864 0.0
C158 C 0.91703 0.228 0.86038 0.0
O159 O 0.93713 0.21578 0.90747 0.0
O160 O 0.93799 0.23056 0.93642 0.0
N161 N 0.89215 0.21226 0.97856 0.0
C162 C 0.88634 0.2012 0.98786 0.0
C163 C 0.87991 0.19771 0.02311 0.0
C164 C 0.87942 0.2056 0.04821 0.0
C165 C 0.88542 0.21694 0.03793 0.0
C166 C 0.89169 0.21993 0.00245 0.0
H167 H 0.88662 0.19508 0.96857 0.0
O168 O 0.92246 0.21195 0.98094 0.0
O169 O 0.9142 0.22039 0.9541 0.0
O170 O 0.91063 0.20154 0.90708 0.0
O171 O 0.8963 0.2049 0.90555 0.0
C172 C 0.88556 0.22541 0.06184 0.0
C173 C 0.89223 0.2367 0.05061 0.0
H174 H 0.90663 0.25749 0.02078 0.0
H175 H 0.91796 0.26116 0.95887 0.0
H176 H 0.87532 0.18894 0.03088 0.0
H177 H 0.87449 0.20288 0.07546 0.0
H178 H 0.88073 0.22335 0.0893 0.0
H179 H 0.89247 0.24314 0.06975 0.0
Mn180 Mn 0.78341 0.70585 0.92359 0.0
Mn181 Mn 0.78207 0.68085 0.92682 0.0
C182 C 0.78484 0.69844 0.98418 0.0
C183 C 0.77407 0.716 0.9276 0.0
C184 C 0.80245 0.70211 0.8976 0.0
O185 O 0.7765 0.69891 0.86911 0.0
O186 O 0.77453 0.68184 0.87788 0.0
C187 C 0.75768 0.66614 0.93676 0.0
N188 N 0.76827 0.66988 0.95018 0.0
C189 C 0.76156 0.65728 0.00645 0.0
C190 C 0.75059 0.65324 0.99308 0.0
C191 C 0.74864 0.65771 0.95816 0.0
C192 C 0.77023 0.66568 0.98385 0.0
H193 H 0.75615 0.66957 0.91 0.0
C194 C 0.77298 0.68884 0.85779 0.0
O195 O 0.78383 0.72024 0.91067 0.0
O196 O 0.76962 0.70579 0.93991 0.0
N197 N 0.78893 0.67885 0.97361 0.0
C198 C 0.79994 0.68419 0.98394 0.0
C199 C 0.80326 0.68099 0.01899 0.0
C200 C 0.79526 0.6723 0.04288 0.0
C201 C 0.78399 0.66688 0.03152 0.0
C202 C 0.78118 0.67041 0.99622 0.0
H203 H 0.80613 0.69086 0.96565 0.0
O204 O 0.78867 0.70908 0.98093 0.0
O205 O 0.78047 0.69263 0.952 0.0
O206 O 0.79888 0.70885 0.90495 0.0
O207 O 0.79664 0.69158 0.90327 0.0
C208 C 0.77542 0.65826 0.05421 0.0
C209 C 0.76421 0.65349 0.04177 0.0
H210 H 0.74359 0.64678 0.0096 0.0
H211 H 0.7402 0.65467 0.94778 0.0
H212 H 0.81196 0.68523 0.0276 0.0
H213 H 0.79784 0.6699 0.07003 0.0
H214 H 0.77735 0.65534 0.08161 0.0
H215 H 0.75768 0.64701 0.05987 0.0
Mn216 Mn 0.92544 0.70678 0.91881 0.0
Mn217 Mn 0.90231 0.68129 0.91827 0.0
C218 C 0.91681 0.6982 0.97848 0.0
C219 C 0.94494 0.71754 0.92207 0.0
C220 C 0.9024 0.70258 0.89472 0.0
O221 O 0.92549 0.70091 0.86219 0.0
O222 O 0.91108 0.6833 0.86907 0.0
C223 C 0.91276 0.66719 0.92449 0.0
N224 N 0.90549 0.67028 0.93879 0.0
C225 C 0.8994 0.65656 0.99146 0.0
C226 C 0.90673 0.65314 0.97701 0.0
C227 C 0.91348 0.65852 0.9435 0.0
C228 C 0.89905 0.66524 0.97127 0.0
H229 H 0.918 0.67135 0.89891 0.0
C230 C 0.91937 0.6909 0.84948 0.0
O231 O 0.93902 0.72169 0.90809 0.0
O232 O 0.93958 0.70711 0.93215 0.0
N233 N 0.89318 0.67826 0.96503 0.0
C234 C 0.88718 0.68311 0.97697 0.0
C235 C 0.88034 0.67902 0.01112 0.0
C236 C 0.87965 0.66994 0.0324 0.0
C237 C 0.88585 0.66504 0.0194 0.0
C238 C 0.8925 0.66945 0.98512 0.0
H239 H 0.88761 0.69005 0.96061 0.0
O240 O 0.9234 0.70891 0.97736 0.0
O241 O 0.91551 0.69296 0.94497 0.0
O242 O 0.91258 0.70949 0.90339 0.0
O243 O 0.89807 0.69201 0.89751 0.0
C244 C 0.88583 0.65607 0.03952 0.0
C245 C 0.89264 0.65187 0.02567 0.0
H246 H 0.90735 0.64648 0.99169 0.0
H247 H 0.91923 0.65599 0.93239 0.0
H248 H 0.87559 0.68286 0.02101 0.0
H249 H 0.87441 0.66685 0.05884 0.0
H250 H 0.88075 0.65248 0.06609 0.0
H251 H 0.89273 0.64513 0.04189 0.0
Mn252 Mn 0.29497 0.22022 0.92695 0.0
Mn253 Mn 0.3201 0.22181 0.92367 0.0
C254 C 0.30393 0.22022 0.98567 0.0
C255 C 0.28456 0.22925 0.93079 0.0
C256 C 0.29826 0.20087 0.90263 0.0
O257 O 0.30045 0.22575 0.86965 0.0
O258 O 0.31796 0.22857 0.87472 0.0
C259 C 0.33488 0.24631 0.92847 0.0
N260 N 0.33159 0.23593 0.94303 0.0
C261 C 0.34576 0.24342 0.99424 0.0
C262 C 0.34939 0.25418 0.97945 0.0
C263 C 0.34389 0.25563 0.94655 0.0
C264 C 0.33675 0.23444 0.97495 0.0
H265 H 0.33061 0.24747 0.9034 0.0
C266 C 0.31033 0.22939 0.85591 0.0
O267 O 0.28015 0.21909 0.91745 0.0
O268 O 0.29506 0.23425 0.93994 0.0
N269 N 0.32323 0.21567 0.9701 0.0
C270 C 0.31815 0.20485 0.98259 0.0
C271 C 0.32232 0.20203 0.01634 0.0
C272 C 0.33171 0.21033 0.03667 0.0
C273 C 0.33684 0.2214 0.02311 0.0
C274 C 0.33233 0.2237 0.98925 0.0
H275 H 0.31097 0.19842 0.96698 0.0
O276 O 0.29324 0.21636 0.98574 0.0
O277 O 0.30893 0.2239 0.95158 0.0
O278 O 0.29168 0.20445 0.91224 0.0
O279 O 0.30889 0.20687 0.90398 0.0
C280 C 0.34612 0.23026 0.04231 0.0
C281 C 0.35055 0.24127 0.02798 0.0
H282 H 0.3563 0.26139 0.99344 0.0
H283 H 0.34657 0.26392 0.9352 0.0
H284 H 0.31831 0.19348 0.02666 0.0
H285 H 0.33486 0.20814 0.06282 0.0
H286 H 0.34978 0.22873 0.06856 0.0
H287 H 0.35754 0.24804 0.04351 0.0
Mn288 Mn 0.78148 0.07494 0.92539 0.0
Mn289 Mn 0.77889 0.0978 0.91696 0.0
C290 C 0.78275 0.08527 0.98191 0.0
C291 C 0.77287 0.05562 0.93481 0.0
C292 C 0.79966 0.09706 0.89194 0.0
O293 O 0.77463 0.07334 0.86931 0.0
O294 O 0.7709 0.08745 0.87233 0.0
C295 C 0.7546 0.08784 0.93045 0.0
N296 N 0.7653 0.0955 0.94034 0.0
C297 C 0.75909 0.10384 0.98988 0.0
C298 C 0.748 0.09614 0.97987 0.0
C299 C 0.74574 0.08806 0.95021 0.0
C300 C 0.76756 0.10319 0.96926 0.0
H301 H 0.75285 0.08161 0.90775 0.0
C302 C 0.77014 0.07879 0.85539 0.0
O303 O 0.78271 0.06119 0.91857 0.0
O304 O 0.76795 0.06119 0.94389 0.0
N305 N 0.78619 0.10847 0.95896 0.0
C306 C 0.79729 0.11467 0.96738 0.0
C307 C 0.80093 0.12274 -0.00208 0.0
C308 C 0.79314 0.12446 0.01907 0.0
C309 C 0.78177 0.11804 0.00964 0.0
C310 C 0.77863 0.11008 0.97908 0.0
H311 H 0.80334 0.11347 0.95099 0.0
O312 O 0.78673 0.07856 0.98252 0.0
O313 O 0.77802 0.08557 0.9487 0.0
O314 O 0.79678 0.08734 0.90527 0.0
O315 O 0.79328 0.10126 0.89268 0.0
C316 C 0.77341 0.11915 0.02967 0.0
C317 C 0.76207 0.11201 0.01995 0.0
H318 H 0.74114 0.09627 0.99507 0.0
H319 H 0.73721 0.08202 0.94257 0.0
H320 H 0.80972 0.12765 0.00503 0.0
H321 H 0.79598 0.13068 0.04264 0.0
H322 H 0.7756 0.1253 0.0532 0.0
H323 H 0.75571 0.11277 0.03623 0.0
Mn324 Mn 0.70768 0.92282 0.07727 0.0
Mn325 Mn 0.6827 0.89896 0.07518 0.0
C326 C 0.69937 0.91469 0.01681 0.0
C327 C 0.71802 0.94234 0.07641 0.0
C328 C 0.7044 0.89973 0.09633 0.0
O329 O 0.70157 0.92217 0.13393 0.0
O330 O 0.68471 0.90654 0.12734 0.0
C331 C 0.66788 0.90863 0.07694 0.0
N332 N 0.67131 0.90207 0.0587 0.0
C333 C 0.6576 0.89701 0.00641 0.0
C334 C 0.65387 0.90367 0.02475 0.0
C335 C 0.65905 0.90953 0.06011 0.0
C336 C 0.66641 0.89642 0.02461 0.0
H337 H 0.67185 0.91315 0.10409 0.0
C338 C 0.69196 0.91495 0.14743 0.0
O339 O 0.72236 0.93649 0.0894 0.0
O340 O 0.70761 0.93687 0.0659 0.0
N341 N 0.67972 0.89085 0.02584 0.0
C342 C 0.68475 0.88534 0.01067 0.0
C343 C 0.68079 0.87931 0.97469 0.0
C344 C 0.67165 0.87895 0.95489 0.0
C345 C 0.66656 0.88463 0.97125 0.0
C346 C 0.67083 0.89044 0.0073 0.0
H347 H 0.69176 0.88557 0.02584 0.0
O348 O 0.71005 0.92145 0.01854 0.0
O349 O 0.69398 0.91283 0.05035 0.0
O350 O 0.71094 0.91018 0.09094 0.0
O351 O 0.69383 0.89488 0.09175 0.0
C352 C 0.65753 0.88491 0.95284 0.0
C353 C 0.65308 0.89112 0.97035 0.0
H354 H 0.6471 0.90443 0.01176 0.0
H355 H 0.65626 0.91473 0.07433 0.0
H356 H 0.68478 0.87497 0.96222 0.0
H357 H 0.66867 0.87436 0.927 0.0
H358 H 0.65408 0.88053 0.92486 0.0
H359 H 0.64627 0.89142 0.95555 0.0
Mn360 Mn 0.07785 0.78428 0.07152 0.0
Mn361 Mn 0.10069 0.78168 0.08206 0.0
C362 C 0.08789 0.78459 0.01544 0.0
C363 C 0.05847 0.77559 0.0633 0.0
C364 C 0.10014 0.80285 0.10218 0.0
O365 O 0.07652 0.7784 0.12898 0.0
O366 O 0.09054 0.77447 0.12808 0.0
C367 C 0.09071 0.75722 0.07443 0.0
N368 N 0.09823 0.76771 0.06192 0.0
C369 C 0.10613 0.76064 0.01389 0.0
C370 C 0.09852 0.74975 0.02641 0.0
C371 C 0.09075 0.74803 0.05669 0.0
C372 C 0.10569 0.76946 0.03262 0.0
H373 H 0.08476 0.75588 0.09776 0.0
C374 C 0.08202 0.77416 0.14442 0.0
O375 O 0.06416 0.78568 0.07735 0.0
O376 O 0.06396 0.77051 0.05556 0.0
N377 N 0.11113 0.78824 0.03892 0.0
C378 C 0.1173 0.79918 0.02812 0.0
C379 C 0.12512 0.80227 -0.0031 0.0
C380 C 0.12662 0.79412 0.97747 0.0
C381 C 0.12025 0.78293 0.98931 0.0
C382 C 0.11254 0.78034 0.02048 0.0
H383 H 0.11624 0.8055 0.04313 0.0
O384 O 0.0812 0.78859 0.01357 0.0
O385 O 0.08833 0.78037 0.0497 0.0
O386 O 0.09039 0.79984 0.08879 0.0
O387 O 0.1043 0.79645 0.10306 0.0
C388 C 0.12112 0.77423 0.97105 0.0
C389 C 0.11403 0.76308 0.98314 0.0
H390 H 0.09851 0.74264 0.01277 0.0
H391 H 0.08481 0.73965 0.06639 0.0
H392 H 0.13 0.81092 0.98791 0.0
H393 H 0.13265 0.79653 0.95334 0.0
H394 H 0.12709 0.77599 0.94713 0.0
H395 H 0.11462 0.75644 0.96824 0.0
Mn396 Mn 0.21834 0.29584 0.0704 0.0
Mn397 Mn 0.2193 0.32057 0.06199 0.0
C398 C 0.21721 0.30261 0.00795 0.0
C399 C 0.2279 0.2859 0.07069 0.0
C400 C 0.19907 0.29944 0.09302 0.0
O401 O 0.2248 0.30339 0.12472 0.0
O402 O 0.22707 0.32042 0.11153 0.0
C403 C 0.24361 0.33542 0.05021 0.0
N404 N 0.23294 0.33142 0.03731 0.0
C405 C 0.23924 0.34346 0.97944 0.0
C406 C 0.25029 0.34783 0.99246 0.0
C407 C 0.25248 0.34375 0.02788 0.0
C408 C 0.23074 0.33518 0.00298 0.0
H409 H 0.24534 0.33222 0.07716 0.0
C410 C 0.22848 0.31365 0.13368 0.0
O411 O 0.21795 0.28165 0.08602 0.0
O412 O 0.2324 0.29602 0.05734 0.0
N413 N 0.2122 0.32172 0.01431 0.0
C414 C 0.20119 0.31596 0.00413 0.0
C415 C 0.19765 0.31862 0.96837 0.0
C416 C 0.20544 0.32722 0.94364 0.0
C417 C 0.21672 0.33306 0.95482 0.0
C418 C 0.21975 0.33005 0.99081 0.0
H419 H 0.19515 0.30938 0.0231 0.0
O420 O 0.21355 0.29204 0.01268 0.0
O421 O 0.22124 0.30869 0.03973 0.0
O422 O 0.2027 0.29272 0.08648 0.0
O423 O 0.20485 0.30994 0.0868 0.0
C424 C 0.22509 0.34163 0.93133 0.0
C425 C 0.23635 0.34678 0.94351 0.0
H426 H 0.25716 0.35421 0.9752 0.0
H427 H 0.26099 0.34698 0.03788 0.0
H428 H 0.18893 0.31405 0.9599 0.0
H429 H 0.20269 0.32921 0.91598 0.0
H430 H 0.22299 0.34418 0.90347 0.0
H431 H 0.24274 0.35317 0.9247 0.0
Mn432 Mn 0.74252 0.6262 0.40643 0.0
Mn433 Mn 0.76673 0.65087 0.40506 0.0
C434 C 0.75098 0.63442 0.34622 0.0
C435 C 0.72298 0.61629 0.40458 0.0
C436 C 0.76534 0.62889 0.42636 0.0
O437 O 0.74319 0.63228 0.4632 0.0
O438 O 0.759 0.64896 0.4567 0.0
C439 C 0.75754 0.66611 0.40598 0.0
N440 N 0.76403 0.6625 0.38826 0.0
C441 C 0.76977 0.67645 0.33653 0.0
C442 C 0.76319 0.68035 0.35433 0.0
C443 C 0.75702 0.67513 0.38913 0.0
C444 C 0.76996 0.66742 0.35467 0.0
H445 H 0.7528 0.66212 0.43275 0.0
C446 C 0.75052 0.64183 0.47678 0.0
O447 O 0.72856 0.6117 0.41793 0.0
O448 O 0.72872 0.6267 0.39445 0.0
N449 N 0.77505 0.65376 0.35626 0.0
C450 C 0.78051 0.6486 0.34167 0.0
C451 C 0.78686 0.65263 0.30638 0.0
C452 C 0.78762 0.66196 0.28671 0.0
C453 C 0.78201 0.66718 0.30248 0.0
C454 C 0.77585 0.66284 0.33785 0.0
H455 H 0.78 0.64147 0.3568 0.0
O456 O 0.74397 0.6238 0.34777 0.0
O457 O 0.75285 0.63982 0.37973 0.0
O458 O 0.75487 0.62253 0.42056 0.0
O459 O 0.77039 0.63947 0.42195 0.0
C460 C 0.78213 0.67642 0.28416 0.0
C461 C 0.77598 0.68102 0.30109 0.0
H462 H 0.76273 0.68729 0.34136 0.0
H463 H 0.75189 0.67807 0.40295 0.0
H464 H 0.79116 0.64854 0.29437 0.0
H465 H 0.79249 0.665 0.2594 0.0
H466 H 0.78678 0.67994 0.2567 0.0
H467 H 0.776 0.68801 0.28636 0.0
Mn468 Mn 0.37562 0.11601 0.4033 0.0
Mn469 Mn 0.35033 0.11399 0.39769 0.0
C470 C 0.36861 0.11757 0.34204 0.0
C471 C 0.38622 0.10712 0.40013 0.0
C472 C 0.37111 0.13454 0.42911 0.0
O473 O 0.3684 0.10884 0.45716 0.0
O474 O 0.35119 0.10638 0.44668 0.0
C475 C 0.33624 0.0896 0.38595 0.0
N476 N 0.33979 0.1002 0.37317 0.0
C477 C 0.32752 0.0935 0.31597 0.0
C478 C 0.32367 0.08252 0.3287 0.0
C479 C 0.32809 0.08056 0.36376 0.0
C480 C 0.33565 0.10218 0.33935 0.0
H481 H 0.33964 0.08806 0.41282 0.0
C482 C 0.35821 0.10505 0.46755 0.0
O483 O 0.39011 0.11677 0.41759 0.0
O484 O 0.37608 0.1025 0.38689 0.0
N485 N 0.34842 0.12092 0.35094 0.0
C486 C 0.35354 0.13196 0.34138 0.0
C487 C 0.35037 0.13532 0.30635 0.0
C488 C 0.34191 0.12731 0.28171 0.0
C489 C 0.33671 0.116 0.2923 0.0
C490 C 0.34019 0.11316 0.32764 0.0
H491 H 0.36002 0.13816 0.36027 0.0
O492 O 0.37925 0.12158 0.34643 0.0
O493 O 0.36253 0.11289 0.37346 0.0
O494 O 0.3781 0.13125 0.42234 0.0
O495 O 0.36064 0.12854 0.42239 0.0
C496 C 0.32834 0.10742 0.26884 0.0
C497 C 0.32377 0.09618 0.28058 0.0
H498 H 0.31742 0.07552 0.31157 0.0
H499 H 0.32522 0.07211 0.37363 0.0
H500 H 0.35444 0.14406 0.29834 0.0
H501 H 0.33954 0.12992 0.25459 0.0
H502 H 0.32547 0.10937 0.24136 0.0
H503 H 0.31749 0.08965 0.26189 0.0
Mn504 Mn 0.88695 0.25996 0.40577 0.0
Mn505 Mn 0.88806 0.23614 0.40588 0.0
C506 C 0.88665 0.25129 0.34592 0.0
C507 C 0.89625 0.27945 0.40347 0.0
C508 C 0.86738 0.23728 0.42896 0.0
O509 O 0.89262 0.25959 0.46247 0.0
O510 O 0.89496 0.24466 0.4554 0.0
C511 C 0.9125 0.24553 0.40056 0.0
N512 N 0.90207 0.23869 0.38578 0.0
C513 C 0.90932 0.23216 0.3332 0.0
C514 C 0.92013 0.23904 0.34813 0.0
C515 C 0.92173 0.2458 0.38183 0.0
C516 C 0.90045 0.23224 0.35313 0.0
H517 H 0.91377 0.25076 0.42634 0.0
C518 C 0.89606 0.25309 0.47515 0.0
O519 O 0.88611 0.27373 0.4171 0.0
O520 O 0.90108 0.27389 0.39311 0.0
N521 N 0.88175 0.22722 0.35877 0.0
C522 C 0.87091 0.2217 0.34641 0.0
C523 C 0.86795 0.21492 0.31203 0.0
C524 C 0.87614 0.21382 0.29095 0.0
C525 C 0.88723 0.21953 0.30438 0.0
C526 C 0.88967 0.22615 0.33887 0.0
H527 H 0.86457 0.22246 0.36262 0.0
O528 O 0.88293 0.25822 0.3471 0.0
O529 O 0.89035 0.24968 0.37949 0.0
O530 O 0.87113 0.24754 0.42047 0.0
O531 O 0.87321 0.2325 0.4263 0.0
C532 C 0.89598 0.21908 0.28449 0.0
C533 C 0.90702 0.22542 0.29879 0.0
H534 H 0.92727 0.23931 0.33366 0.0
H535 H 0.93005 0.2512 0.39333 0.0
H536 H 0.85938 0.21056 0.30181 0.0
H537 H 0.87383 0.20863 0.26433 0.0
H538 H 0.89434 0.21403 0.25776 0.0
H539 H 0.91371 0.22518 0.28276 0.0
Mn540 Mn 0.96406 0.41195 0.25093 0.0
Mn541 Mn 0.98942 0.43489 0.23964 0.0
C542 C 0.97388 0.4221 0.30666 0.0
C543 C 0.95345 0.39262 0.25987 0.0
C544 C 0.96757 0.43417 0.22035 0.0
O545 O 0.96851 0.41054 0.19342 0.0
O546 O 0.98638 0.42477 0.19347 0.0
C547 C 0.00401 0.42502 0.24623 0.0
N548 N 1.00102 0.43248 0.25914 0.0
C549 C 0.01606 0.44032 0.30703 0.0
C550 C 0.01934 0.43275 0.2941 0.0
C551 C 0.01325 0.42504 0.26368 0.0
C552 C 0.00677 0.4399 0.28854 0.0
H553 H 0.99936 0.4191 0.22281 0.0
C554 C 0.97818 0.41616 0.17752 0.0
O555 O 0.94898 0.39823 0.2457 0.0
O556 O 0.96406 0.39816 0.26713 0.0
N557 N 0.9934 0.44532 0.28288 0.0
C558 C 0.98862 0.45145 0.29404 0.0
C559 C 0.99338 0.45922 0.32541 0.0
C560 C 0.00307 0.4607 0.34463 0.0
C561 C 0.00788 0.45435 0.33241 0.0
C562 C 0.00274 0.44672 0.30107 0.0
H563 H 0.98122 0.45041 0.27924 0.0
O564 O 0.9632 0.41539 0.30881 0.0
O565 O 0.97849 0.42252 0.27229 0.0
O566 O 0.96091 0.42438 0.23361 0.0
O567 O 0.97816 0.43844 0.21933 0.0
C568 C 0.01747 0.4552 0.35048 0.0
C569 C 0.02152 0.44814 0.33797 0.0
H570 H 0.02645 0.43273 0.30753 0.0
H571 H 0.0157 0.41914 0.25366 0.0
H572 H 0.98961 0.46407 0.3347 0.0
H573 H 0.0067 0.46668 0.36889 0.0
H574 H 0.02167 0.4611 0.37455 0.0
H575 H 0.02876 0.44871 0.35271 0.0
Mn576 Mn 0.59022 0.54995 0.2519 0.0
Mn577 Mn 0.56581 0.54985 0.24316 0.0
C578 C 0.58012 0.54915 0.3084 0.0
C579 C 0.60964 0.55958 0.25978 0.0
C580 C 0.5681 0.52959 0.22629 0.0
O581 O 0.59103 0.55574 0.19462 0.0
O582 O 0.57476 0.55587 0.19381 0.0
C583 C 0.57458 0.57422 0.24093 0.0
N584 N 0.5678 0.56407 0.25788 0.0
C585 C 0.56023 0.57193 0.30409 0.0
C586 C 0.5671 0.58247 0.28702 0.0
C587 C 0.57433 0.58362 0.25541 0.0
C588 C 0.56086 0.56287 0.28846 0.0
H589 H 0.58011 0.57512 0.21652 0.0
C590 C 0.58389 0.55767 0.17754 0.0
O591 O 0.60437 0.5495 0.24553 0.0
O592 O 0.6037 0.5642 0.26763 0.0
N593 N 0.5563 0.54426 0.2892 0.0
C594 C 0.5508 0.53367 0.30404 0.0
C595 C 0.54354 0.53118 0.33682 0.0
C596 C 0.5419 0.53957 0.35357 0.0
C597 C 0.54757 0.55037 0.33748 0.0
C598 C 0.55473 0.55236 0.30493 0.0
H599 H 0.55198 0.52718 0.29107 0.0
O600 O 0.58725 0.54568 0.3099 0.0
O601 O 0.57909 0.55295 0.27402 0.0
O602 O 0.57845 0.53396 0.235 0.0
O603 O 0.56277 0.53488 0.22797 0.0
C604 C 0.54651 0.55928 0.35277 0.0
C605 C 0.55289 0.57007 0.3363 0.0
H606 H 0.56694 0.58974 0.29812 0.0
H607 H 0.57968 0.59173 0.24218 0.0
H608 H 0.5392 0.52282 0.34907 0.0
H609 H 0.53632 0.53763 0.37892 0.0
H610 H 0.54093 0.55796 0.37763 0.0
H611 H 0.55217 0.57689 0.34887 0.0
Mn612 Mn 0.45334 0.04077 0.26057 0.0
Mn613 Mn 0.45127 0.01559 0.2481 0.0
C614 C 0.45452 0.03115 0.31543 0.0
C615 C 0.4447 0.05134 0.27237 0.0
C616 C 0.47201 0.03756 0.22674 0.0
O617 O 0.44659 0.03606 0.20432 0.0
O618 O 0.44373 0.01847 0.2029 0.0
C619 C 0.42686 1.00077 0.25688 0.0
N620 N 0.43744 0.00389 0.2687 0.0
C621 C 0.43072 0.989 0.3171 0.0
C622 C 0.41974 0.98558 0.30524 0.0
C623 C 0.41781 0.99152 0.27511 0.0
C624 C 0.4394 0.99827 0.29779 0.0
H625 H 0.42535 0.00531 0.23377 0.0
C626 C 0.44274 0.02646 0.18803 0.0
O627 O 0.45448 0.05573 0.25559 0.0
O628 O 0.43981 0.04077 0.28045 0.0
N629 N 0.45811 0.01176 0.29042 0.0
C630 C 0.46911 0.01669 0.30064 0.0
C631 C 0.47241 0.0121 0.33169 0.0
C632 C 0.4644 0.00244 0.35161 0.0
C633 C 0.45315 0.99748 0.34039 0.0
C634 C 0.45035 0.00243 0.30927 0.0
H635 H 0.47531 0.02409 0.28537 0.0
O636 O 0.45852 0.04185 0.31742 0.0
O637 O 0.44992 0.02644 0.28161 0.0
O638 O 0.46868 0.04407 0.23983 0.0
O639 O 0.46592 0.02694 0.22672 0.0
C640 C 0.44458 0.98792 0.35932 0.0
C641 C 0.43337 0.98371 0.34782 0.0
H642 H 0.41274 0.97847 0.31934 0.0
H643 H 0.40936 0.98897 0.26595 0.0
H644 H 0.48111 0.01599 0.34022 0.0
H645 H 0.46698 0.99895 0.37565 0.0
H646 H 0.44651 0.98386 0.38327 0.0
H647 H 0.42683 0.9765 0.36319 0.0
Mn648 Mn 0.5942 0.04138 0.25484 0.0
Mn649 Mn 0.57061 0.01624 0.25261 0.0
C650 C 0.58513 0.03277 0.31388 0.0
C651 C 0.6137 0.05163 0.25907 0.0
C652 C 0.57157 0.03796 0.2292 0.0
O653 O 0.59431 0.03557 0.19819 0.0
O654 O 0.57956 0.01812 0.20401 0.0
C655 C 0.58027 0.00146 0.25939 0.0
N656 N 0.57321 0.00487 0.2733 0.0
C657 C 0.56648 0.99101 0.32561 0.0
C658 C 0.5736 0.98727 0.31157 0.0
C659 C 0.58056 0.99255 0.27842 0.0
C660 C 0.56655 0.9999 0.30538 0.0
H661 H 0.58567 0.00554 0.23407 0.0
C662 C 0.58806 0.02564 0.185 0.0
O663 O 0.60808 0.05609 0.24493 0.0
O664 O 0.60805 0.04119 0.26888 0.0
N665 N 0.5613 0.01338 0.29875 0.0
C666 C 0.55556 0.01853 0.31037 0.0
C667 C 0.54857 0.01458 0.34419 0.0
C668 C 0.54748 0.00533 0.36548 0.0
C669 C 0.55341 1.00011 0.35281 0.0
C670 C 0.56022 0.0044 0.31883 0.0
H671 H 0.55632 0.02562 0.29403 0.0
O672 O 0.592 0.04345 0.31326 0.0
O673 O 0.58385 0.02758 0.28026 0.0
O674 O 0.58174 0.04462 0.23877 0.0
O675 O 0.56694 0.02735 0.23154 0.0
C676 C 0.55298 0.99097 0.373 0.0
C677 C 0.55954 0.98644 0.35949 0.0
H678 H 0.57389 0.98044 0.32629 0.0
H679 H 0.58614 0.98978 0.26762 0.0
H680 H 0.54404 0.01866 0.35383 0.0
H681 H 0.54213 0.00235 0.3917 0.0
H682 H 0.54779 0.98748 0.39938 0.0
H683 H 0.55932 0.97955 0.37576 0.0
Mn684 Mn 0.96322 0.55361 0.25982 0.0
Mn685 Mn 0.98873 0.55607 0.26136 0.0
C686 C 0.97118 0.55287 0.32007 0.0
C687 C 0.95247 0.5623 0.2632 0.0
C688 C 0.96771 0.53517 0.23361 0.0
O689 O 0.96965 0.56017 0.20433 0.0
O690 O 0.98723 0.56345 0.21293 0.0
C691 C 0.00283 0.58051 0.2716 0.0
N692 N 0.99949 0.56997 0.28459 0.0
C693 C 0.01245 0.57694 0.33979 0.0
C694 C 0.0161 0.58786 0.32681 0.0
C695 C 0.01123 0.58966 0.29265 0.0
C696 C 0.00407 0.56815 0.31755 0.0
H697 H 0.99909 0.58192 0.24545 0.0
C698 C 0.97979 0.5643 0.19281 0.0
O699 O 0.94843 0.55238 0.24787 0.0
O700 O 0.9628 0.56726 0.27456 0.0
N701 N 0.9912 0.54936 0.30757 0.0
C702 C 0.98619 0.53836 0.31774 0.0
C703 C 0.98978 0.53517 0.35216 0.0
C704 C 0.99852 0.5433 0.37556 0.0
C705 C 0.00359 0.55455 0.36436 0.0
C706 C 0.99969 0.55723 0.32969 0.0
H707 H 0.9795 0.53207 0.29981 0.0
O708 O 0.96048 0.54876 0.31762 0.0
O709 O 0.97677 0.55723 0.28745 0.0
O710 O 0.96066 0.53822 0.24263 0.0
O711 O 0.97825 0.54141 0.23769 0.0
C712 C 0.01222 0.56324 0.38664 0.0
C713 C 0.01663 0.57442 0.37444 0.0
H714 H 0.02253 0.59494 0.34308 0.0
H715 H 0.01395 0.59807 0.28261 0.0
H716 H 0.98581 0.52647 0.36065 0.0
H717 H 1.00121 0.54081 0.40222 0.0
H718 H 0.01541 0.56142 0.41359 0.0
H719 H 0.02311 0.58104 0.39226 0.0
Mn720 Mn 0.45066 0.40921 0.26269 0.0
Mn721 Mn 0.44972 0.43296 0.25129 0.0
C722 C 0.45195 0.41985 0.31825 0.0
C723 C 0.44134 0.38989 0.2726 0.0
C724 C 0.47001 0.43086 0.23068 0.0
O725 O 0.44449 0.40788 0.20566 0.0
O726 O 0.44196 0.42281 0.20572 0.0
C727 C 0.42545 0.42427 0.25979 0.0
N728 N 0.43611 0.4314 0.27174 0.0
C729 C 0.42991 0.44012 0.31978 0.0
C730 C 0.41886 0.43293 0.30776 0.0
C731 C 0.41662 0.42494 0.27776 0.0
C732 C 0.43836 0.43906 0.30081 0.0
H733 H 0.42371 0.41813 0.23676 0.0
C734 C 0.44085 0.41388 0.18993 0.0
O735 O 0.45131 0.39515 0.25732 0.0
O736 O 0.43665 0.39577 0.28031 0.0
N737 N 0.45685 0.44345 0.29393 0.0
C738 C 0.46785 0.44915 0.30427 0.0
C739 C 0.47143 0.45711 0.33518 0.0
C740 C 0.46369 0.45922 0.35479 0.0
C741 C 0.45243 0.45332 0.34342 0.0
C742 C 0.44935 0.44546 0.3125 0.0
H743 H 0.47385 0.44762 0.28915 0.0
O744 O 0.45544 0.41274 0.32017 0.0
O745 O 0.44768 0.42039 0.28422 0.0
O746 O 0.46635 0.42099 0.24397 0.0
O747 O 0.4642 0.43569 0.23002 0.0
C748 C 0.44412 0.45481 0.36193 0.0
C749 C 0.43286 0.44817 0.35029 0.0
H750 H 0.41202 0.4334 0.3216 0.0
H751 H 0.40811 0.41931 0.26847 0.0
H752 H 0.48013 0.46162 0.34382 0.0
H753 H 0.46648 0.46534 0.3787 0.0
H754 H 0.44628 0.4609 0.38568 0.0
H755 H 0.42652 0.44923 0.36538 0.0
Mn756 Mn 0.37447 0.25692 0.40914 0.0
Mn757 Mn 0.34956 0.23347 0.39734 0.0
C758 C 0.36821 0.2495 0.34575 0.0
C759 C 0.38466 0.27642 0.41153 0.0
C760 C 0.37021 0.2337 0.43022 0.0
O761 O 0.3665 0.25557 0.46268 0.0
O762 O 0.34947 0.24109 0.44735 0.0
C763 C 0.3352 0.24343 0.38504 0.0
N764 N 0.33911 0.2367 0.37203 0.0
C765 C 0.32746 0.2315 0.31318 0.0
C766 C 0.3232 0.23826 0.32623 0.0
C767 C 0.32714 0.2443 0.3622 0.0
C768 C 0.33549 0.23097 0.33719 0.0
H769 H 0.33826 0.24815 0.41252 0.0
C770 C 0.35614 0.24904 0.47049 0.0
O771 O 0.38863 0.27048 0.42682 0.0
O772 O 0.37468 0.27104 0.39678 0.0
N773 N 0.3486 0.22546 0.34918 0.0
C774 C 0.35419 0.22004 0.33925 0.0
C775 C 0.35163 0.214 0.30314 0.0
C776 C 0.34326 0.2135 0.27785 0.0
C777 C 0.33758 0.21911 0.2888 0.0
C778 C 0.3405 0.225 0.32512 0.0
H779 H 0.36057 0.22032 0.35868 0.0
O780 O 0.37876 0.25626 0.35183 0.0
O781 O 0.36182 0.24733 0.37674 0.0
O782 O 0.37714 0.24407 0.42493 0.0
O783 O 0.35978 0.22919 0.42271 0.0
C784 C 0.32924 0.21921 0.26482 0.0
C785 C 0.32424 0.22546 0.27686 0.0
H786 H 0.31702 0.23899 0.30861 0.0
H787 H 0.32397 0.24962 0.37228 0.0
H788 H 0.35607 0.20971 0.29486 0.0
H789 H 0.34134 0.20887 0.24995 0.0
H790 H 0.32675 0.21467 0.23672 0.0
H791 H 0.31803 0.22569 0.2577 0.0
Mn792 Mn 0.74671 0.11809 0.40875 0.0
Mn793 Mn 0.771 0.11793 0.41686 0.0
C794 C 0.75669 0.11884 0.35199 0.0
C795 C 0.72728 0.10862 0.40134 0.0
C796 C 0.76897 0.13833 0.43398 0.0
O797 O 0.74592 0.11228 0.46595 0.0
O798 O 0.76211 0.112 0.46639 0.0
C799 C 0.76199 0.09352 0.41912 0.0
N800 N 0.76883 0.10365 0.40212 0.0
C801 C 0.77627 0.09565 0.35596 0.0
C802 C 0.76933 0.08513 0.37308 0.0
C803 C 0.76213 0.08406 0.40467 0.0
C804 C 0.77574 0.10476 0.37153 0.0
H805 H 0.75648 0.09268 0.44354 0.0
C806 C 0.75303 0.11027 0.48284 0.0
O807 O 0.73265 0.1187 0.41556 0.0
O808 O 0.73313 0.10392 0.39318 0.0
N809 N 0.78046 0.12343 0.3707 0.0
C810 C 0.78606 0.13401 0.35582 0.0
C811 C 0.7933 0.13642 0.32305 0.0
C812 C 0.79485 0.12797 0.30636 0.0
C813 C 0.7891 0.11718 0.32251 0.0
C814 C 0.78195 0.11526 0.35502 0.0
H815 H 0.78496 0.14055 0.36876 0.0
O816 O 0.74962 0.12238 0.35077 0.0
O817 O 0.75772 0.11497 0.38625 0.0
O818 O 0.75861 0.13405 0.42559 0.0
O819 O 0.77422 0.13295 0.43205 0.0
C820 C 0.79008 0.10821 0.30732 0.0
C821 C 0.7836 0.09743 0.32381 0.0
H822 H 0.76942 0.07782 0.36203 0.0
H823 H 0.75672 0.07597 0.41794 0.0
H824 H 0.79771 0.14477 0.31076 0.0
H825 H 0.80043 0.12986 0.28104 0.0
H826 H 0.79566 0.10947 0.28254 0.0
H827 H 0.78426 0.09056 0.31131 0.0
Mn828 Mn 0.88409 0.62662 0.4006 0.0
Mn829 Mn 0.88468 0.65117 0.39183 0.0
C830 C 0.88298 0.63332 0.33799 0.0
C831 C 0.89376 0.61681 0.40179 0.0
C832 C 0.86455 0.62986 0.42225 0.0
O833 O 0.89033 0.6342 0.4551 0.0
O834 O 0.89239 0.65113 0.44166 0.0
C835 C 0.90897 0.66627 0.38069 0.0
N836 N 0.8983 0.66217 0.36754 0.0
C837 C 0.90459 0.67435 0.31006 0.0
C838 C 0.91562 0.67883 0.32335 0.0
C839 C 0.91782 0.67472 0.3587 0.0
C840 C 0.8961 0.66594 0.33325 0.0
H841 H 0.9107 0.66305 0.40758 0.0
C842 C 0.89385 0.64444 0.46402 0.0
O843 O 0.88377 0.61252 0.41672 0.0
O844 O 0.89826 0.62691 0.38826 0.0
N845 N 0.87761 0.65225 0.34392 0.0
C846 C 0.86662 0.64639 0.33344 0.0
C847 C 0.86309 0.64907 0.29771 0.0
C848 C 0.87085 0.65779 0.27334 0.0
C849 C 0.8821 0.66374 0.28484 0.0
C850 C 0.88514 0.6607 0.32075 0.0
H851 H 0.8606 0.63972 0.35216 0.0
O852 O 0.87947 0.62278 0.34277 0.0
O853 O 0.8869 0.63944 0.36977 0.0
O854 O 0.86835 0.62328 0.41594 0.0
O855 O 0.87021 0.64039 0.41623 0.0
C856 C 0.89045 0.67244 0.26173 0.0
C857 C 0.9017 0.6777 0.2742 0.0
H858 H 0.92248 0.68531 0.30636 0.0
H859 H 0.92633 0.67804 0.3689 0.0
H860 H 0.85439 0.64442 0.289 0.0
H861 H 0.8681 0.6598 0.24571 0.0
H862 H 0.88835 0.67503 0.23395 0.0
H863 H 0.90807 0.6842 0.25567 0.0
Mn864 Mn 0.40984 0.96309 0.74194 0.0
Mn865 Mn 0.43266 0.98857 0.75181 0.0
C866 C 0.42026 0.97235 0.68583 0.0
C867 C 0.39052 0.95238 0.73272 0.0
C868 C 0.43186 0.96695 0.77572 0.0
O869 O 0.40827 0.96807 0.79846 0.0
O870 O 0.42215 0.98607 0.79618 0.0
C871 C 0.42283 0.00301 0.73858 0.0
N872 N 0.43047 0.99995 0.72868 0.0
C873 C 0.43897 0.01464 0.67966 0.0
C874 C 0.43126 0.01802 0.68958 0.0
C875 C 0.42312 0.01213 0.71902 0.0
C876 C 0.43825 0.00546 0.70008 0.0
H877 H 0.41658 0.99851 0.7612 0.0
C878 C 0.4136 0.97796 0.81282 0.0
O879 O 0.39612 0.94808 0.74839 0.0
O880 O 0.39607 0.9629 0.72393 0.0
N881 N 0.44348 0.99208 0.71027 0.0
C882 C 0.44971 0.98721 0.70198 0.0
C883 C 0.45789 0.99175 0.67182 0.0
C884 C 0.45969 1.00132 0.65093 0.0
C885 C 0.45324 0.00624 0.66024 0.0
C886 C 0.44517 1.00132 0.69041 0.0
H887 H 0.44846 0.97992 0.71816 0.0
O888 O 0.41348 0.96167 0.68474 0.0
O889 O 0.42052 0.97729 0.71923 0.0
O890 O 0.42222 0.96016 0.76152 0.0
O891 O 0.436 0.97753 0.77592 0.0
C892 C 0.45442 0.01575 0.64043 0.0
C893 C 0.44723 0.01991 0.64991 0.0
H894 H 0.43145 0.02505 0.67454 0.0
H895 H 0.41709 0.01464 0.72666 0.0
H896 H 0.46283 0.98789 0.6648 0.0
H897 H 0.466 0.00478 0.62765 0.0
H898 H 0.46067 0.01981 0.61726 0.0
H899 H 0.44805 0.02707 0.63379 0.0
Mn900 Mn 0.04365 0.44905 0.7313 0.0
Mn901 Mn 0.01848 0.44703 0.74212 0.0
C902 C 0.03412 0.4498 0.67535 0.0
C903 C 0.05401 0.44008 0.72274 0.0
C904 C 0.04049 0.4678 0.76307 0.0
O905 O 0.03896 0.44312 0.78869 0.0
O906 O 0.02106 0.43934 0.7874 0.0
C907 C 0.00351 0.42269 0.73237 0.0
N908 N 0.00676 0.43333 0.72093 0.0
C909 C 0.99186 0.4269 0.67263 0.0
C910 C 0.98829 0.41587 0.68414 0.0
C911 C 0.99418 0.41376 0.71399 0.0
C912 C 1.00122 0.43545 0.69197 0.0
H913 H 0.00801 0.42105 0.75529 0.0
C914 C 0.02917 0.43887 0.80384 0.0
O915 O 0.05857 0.45014 0.73717 0.0
O916 O 0.04343 0.43516 0.71492 0.0
N917 N 0.01494 0.45407 0.69966 0.0
C918 C 0.02 0.46509 0.68978 0.0
C919 C 0.01549 0.46856 0.65899 0.0
C920 C 0.00575 0.4607 0.63906 0.0
C921 C 1.00065 0.44942 0.64997 0.0
C922 C 0.00555 0.44644 0.68075 0.0
H923 H 0.02743 0.47119 0.70517 0.0
O924 O 0.04477 0.45354 0.67349 0.0
O925 O 0.02937 0.44554 0.70946 0.0
O926 O 0.04704 0.46465 0.74892 0.0
O927 O 0.02989 0.46157 0.76426 0.0
C928 C 0.99097 0.44099 0.63115 0.0
C929 C 0.98662 0.42973 0.64229 0.0
H930 H 0.98111 0.40896 0.66999 0.0
H931 H 0.99152 0.40527 0.72286 0.0
H932 H 0.01949 0.47728 0.65072 0.0
H933 H 0.00231 0.4634 0.61527 0.0
H934 H 0.98694 0.44306 0.6075 0.0
H935 H 0.97932 0.4233 0.62695 0.0
Mn936 Mn 0.55576 0.59351 0.73501 0.0
Mn937 Mn 0.55777 0.57029 0.74251 0.0
C938 C 0.55438 0.58328 0.67803 0.0
C939 C 0.56469 0.61288 0.72698 0.0
C940 C 0.53728 0.57149 0.76787 0.0
O941 O 0.56248 0.59475 0.79114 0.0
O942 O 0.56593 0.58047 0.78737 0.0
C943 C 0.582 0.57974 0.72901 0.0
N944 N 0.57124 0.57232 0.71895 0.0
C945 C 0.57714 0.56377 0.6691 0.0
C946 C 0.58829 0.57124 0.67925 0.0
C947 C 0.59072 0.5793 0.70915 0.0
C948 C 0.5688 0.56464 0.6898 0.0
H949 H 0.58389 0.58595 0.75194 0.0
C950 C 0.56684 0.58914 0.8047 0.0
O951 O 0.55479 0.60735 0.74275 0.0
O952 O 0.56948 0.60722 0.7173 0.0
N953 N 0.55029 0.55979 0.70021 0.0
C954 C 0.53917 0.55385 0.69171 0.0
C955 C 0.53537 0.54584 0.66092 0.0
C956 C 0.543 0.54392 0.6396 0.0
C957 C 0.55439 0.55007 0.64911 0.0
C958 C 0.5577 0.55799 0.67989 0.0
H959 H 0.53325 0.5552 0.70823 0.0
O960 O 0.55061 0.59017 0.67769 0.0
O961 O 0.55897 0.58275 0.71124 0.0
O962 O 0.54033 0.58125 0.75457 0.0
O963 O 0.54349 0.5671 0.76705 0.0
C964 C 0.5626 0.54875 0.62896 0.0
C965 C 0.57397 0.55563 0.63883 0.0
H966 H 0.59504 0.57093 0.66398 0.0
H967 H 0.59931 0.58516 0.71692 0.0
H968 H 0.52657 0.54113 0.65375 0.0
H969 H 0.54004 0.53774 0.61586 0.0
H970 H 0.56028 0.54263 0.60524 0.0
H971 H 0.58023 0.5547 0.62247 0.0
Mn972 Mn 0.63016 0.7466 0.58595 0.0
Mn973 Mn 0.65458 0.77086 0.58359 0.0
C974 C 0.63778 0.75657 0.64468 0.0
C975 C 0.62061 0.72715 0.59215 0.0
C976 C 0.63263 0.76821 0.55364 0.0
O977 O 0.63689 0.74628 0.53113 0.0
O978 O 0.65412 0.76128 0.53894 0.0
C979 C 0.6705 0.76304 0.60141 0.0
N980 N 0.66628 0.76982 0.60993 0.0
C981 C 0.67995 0.7792 0.66175 0.0
C982 C 0.68461 0.77249 0.65295 0.0
C983 C 0.67979 0.76429 0.62291 0.0
C984 C 0.67066 0.77752 0.63947 0.0
H985 H 0.66675 0.75668 0.57861 0.0
C986 C 0.64707 0.75247 0.52014 0.0
O987 O 0.61596 0.73228 0.57538 0.0
O988 O 0.63087 0.73326 0.60373 0.0
N989 N 0.65603 0.78078 0.62624 0.0
C990 C 0.64983 0.78571 0.63385 0.0
C991 C 0.65295 0.79347 0.66529 0.0
C992 C 0.66251 0.7962 0.68817 0.0
C993 C 0.66879 0.79106 0.67965 0.0
C994 C 0.6652 0.7833 0.64825 0.0
H995 H 0.64254 0.78375 0.61613 0.0
O996 O 0.62723 0.74921 0.64304 0.0
O997 O 0.64343 0.75774 0.61231 0.0
O998 O 0.62622 0.75826 0.56593 0.0
O999 O 0.64325 0.77317 0.55623 0.0
C1000 C 0.67842 0.79324 0.7013 0.0
C1001 C 0.68402 0.78734 0.69228 0.0
H1002 H 0.69177 0.77343 0.6695 0.0
H1003 H 0.68323 0.75896 0.61634 0.0
H1004 H 0.64804 0.79739 0.67172 0.0
H1005 H 0.66491 0.80221 0.71235 0.0
H1006 H 0.68147 0.79928 0.72552 0.0
H1007 H 0.69127 0.78891 0.70973 0.0
Mn1008 Mn 0.25796 0.88585 0.58372 0.0
Mn1009 Mn 0.2345 0.88759 0.58346 0.0
C1010 C 0.2492 0.88545 0.64346 0.0
C1011 C 0.27746 0.895 0.58708 0.0
C1012 C 0.23522 0.86682 0.55854 0.0
O1013 O 0.2579 0.8919 0.52741 0.0
O1014 O 0.2433 0.89477 0.5347 0.0
C1015 C 0.24421 0.91203 0.59108 0.0
N1016 N 0.23724 0.90153 0.60502 0.0
C1017 C 0.23087 0.90858 0.65877 0.0
C1018 C 0.23791 0.91946 0.64477 0.0
C1019 C 0.24464 0.92119 0.61088 0.0
C1020 C 0.23078 0.89977 0.63775 0.0
H1021 H 0.24942 0.91339 0.56514 0.0
C1022 C 0.25169 0.89572 0.51504 0.0
O1023 O 0.27175 0.88493 0.57281 0.0
O1024 O 0.27189 0.89983 0.59742 0.0
N1025 N 0.2254 0.88104 0.63001 0.0
C1026 C 0.21974 0.87013 0.64144 0.0
C1027 C 0.21299 0.86703 0.67593 0.0
C1028 C 0.21207 0.87517 0.69811 0.0
C1029 C 0.21793 0.88633 0.68565 0.0
C1030 C 0.2245 0.88892 0.65099 0.0
H1031 H 0.22038 0.86383 0.62445 0.0
O1032 O 0.25597 0.88154 0.64215 0.0
O1033 O 0.2478 0.88936 0.61005 0.0
O1034 O 0.24537 0.87017 0.5679 0.0
O1035 O 0.23069 0.87287 0.56144 0.0
C1036 C 0.21767 0.89503 0.70669 0.0
C1037 C 0.22416 0.90615 0.69333 0.0
H1038 H 0.23831 0.92655 0.66009 0.0
H1039 H 0.25015 0.92957 0.60007 0.0
H1040 H 0.20852 0.8584 0.68541 0.0
H1041 H 0.20692 0.87276 0.72485 0.0
H1042 H 0.21266 0.89329 0.73358 0.0
H1043 H 0.22407 0.91279 0.71022 0.0
Mn1044 Mn 0.1196 0.37288 0.58356 0.0
Mn1045 Mn 0.11865 0.34821 0.59453 0.0
C1046 C 0.12088 0.36657 0.6467 0.0
C1047 C 0.11005 0.38283 0.58198 0.0
C1048 C 0.13885 0.36912 0.56207 0.0
O1049 O 0.11303 0.36497 0.52989 0.0
O1050 O 0.11087 0.34806 0.54459 0.0
C1051 C 0.09434 0.33343 0.60654 0.0
N1052 N 0.10501 0.33752 0.61964 0.0
C1053 C 0.0987 0.32584 0.67843 0.0
C1054 C 0.08765 0.3214 0.66528 0.0
C1055 C 0.08547 0.32525 0.62928 0.0
C1056 C 0.1072 0.33397 0.65447 0.0
H1057 H 0.09262 0.33643 0.57907 0.0
C1058 C 0.1094 0.35466 0.52176 0.0
O1059 O 0.11997 0.38697 0.56649 0.0
O1060 O 0.10557 0.37281 0.59628 0.0
N1061 N 0.12576 0.34733 0.64264 0.0
C1062 C 0.13677 0.35311 0.65271 0.0
C1063 C 0.14031 0.35064 0.68887 0.0
C1064 C 0.13251 0.34221 0.71412 0.0
C1065 C 0.12123 0.33634 0.70304 0.0
C1066 C 0.11819 0.33915 0.66663 0.0
H1067 H 0.14282 0.35956 0.63334 0.0
O1068 O 0.12454 0.3771 0.64093 0.0
O1069 O 0.11675 0.36024 0.61553 0.0
O1070 O 0.13522 0.37588 0.56757 0.0
O1071 O 0.1331 0.35867 0.56934 0.0
C1072 C 0.11285 0.32793 0.72701 0.0
C1073 C 0.10158 0.32273 0.71483 0.0
H1074 H 0.08078 0.31513 0.68284 0.0
H1075 H 0.07696 0.32194 0.61914 0.0
H1076 H 0.14903 0.35523 0.69726 0.0
H1077 H 0.13527 0.34037 0.74209 0.0
H1078 H 0.11495 0.32553 0.75521 0.0
H1079 H 0.09519 0.31646 0.73396 0.0
Mn1080 Mn 0.26234 0.37544 0.58786 0.0
Mn1081 Mn 0.23933 0.34985 0.5874 0.0
C1082 C 0.25363 0.36697 0.64753 0.0
C1083 C 0.28182 0.38629 0.59096 0.0
C1084 C 0.23932 0.37102 0.56267 0.0
O1085 O 0.26249 0.3695 0.53153 0.0
O1086 O 0.24824 0.35181 0.53863 0.0
C1087 C 0.24984 0.33584 0.59508 0.0
N1088 N 0.24251 0.33894 0.60877 0.0
C1089 C 0.23627 0.32526 0.66166 0.0
C1090 C 0.24366 0.32186 0.64788 0.0
C1091 C 0.25051 0.32721 0.61456 0.0
C1092 C 0.23596 0.33392 0.64103 0.0
H1093 H 0.25514 0.33996 0.56958 0.0
C1094 C 0.2565 0.35945 0.51901 0.0
O1095 O 0.27584 0.39036 0.57675 0.0
O1096 O 0.27652 0.37591 0.60161 0.0
N1097 N 0.23004 0.34687 0.63369 0.0
C1098 C 0.22395 0.35168 0.64488 0.0
C1099 C 0.21697 0.3476 0.67869 0.0
C1100 C 0.21624 0.33856 0.70038 0.0
C1101 C 0.22253 0.33369 0.68814 0.0
C1102 C 0.22933 0.3381 0.65417 0.0
H1103 H 0.22441 0.35858 0.62818 0.0
O1104 O 0.26021 0.37769 0.64617 0.0
O1105 O 0.25243 0.36165 0.61427 0.0
O1106 O 0.24944 0.37802 0.57179 0.0
O1107 O 0.23507 0.36046 0.56568 0.0
C1108 C 0.22247 0.32477 0.70871 0.0
C1109 C 0.22937 0.32059 0.69558 0.0
H1110 H 0.24425 0.31523 0.66291 0.0
H1111 H 0.25631 0.32468 0.60394 0.0
H1112 H 0.21215 0.35141 0.68798 0.0
H1113 H 0.21088 0.33547 0.72654 0.0
H1114 H 0.2173 0.32119 0.73508 0.0
H1115 H 0.22942 0.31388 0.71213 0.0
Mn1116 Mn 0.62732 0.88665 0.59431 0.0
Mn1117 Mn 0.65276 0.88894 0.59553 0.0
C1118 C 0.63528 0.88582 0.65446 0.0
C1119 C 0.6167 0.89548 0.59809 0.0
C1120 C 0.63165 0.86814 0.56765 0.0
O1121 O 0.63374 0.8932 0.53877 0.0
O1122 O 0.6513 0.8964 0.54724 0.0
C1123 C 0.66698 0.91336 0.60605 0.0
N1124 N 0.66359 0.9028 0.61886 0.0
C1125 C 0.6766 0.90964 0.67394 0.0
C1126 C 0.68029 0.92059 0.66114 0.0
C1127 C 0.67543 0.92245 0.62714 0.0
C1128 C 0.66816 0.90091 0.65167 0.0
H1129 H 0.66323 0.91483 0.58003 0.0
C1130 C 0.64387 0.89728 0.52717 0.0
O1131 O 0.61257 0.88556 0.58266 0.0
O1132 O 0.62704 0.90036 0.60928 0.0
N1133 N 0.6552 0.88214 0.64155 0.0
C1134 C 0.65013 0.87113 0.65159 0.0
C1135 C 0.6537 0.86787 0.68587 0.0
C1136 C 0.66249 0.87594 0.70926 0.0
C1137 C 0.66762 0.88721 0.6982 0.0
C1138 C 0.66373 0.88996 0.66366 0.0
H1139 H 0.6434 0.86489 0.63366 0.0
O1140 O 0.62459 0.88177 0.65211 0.0
O1141 O 0.64086 0.89016 0.62182 0.0
O1142 O 0.62464 0.87122 0.57689 0.0
O1143 O 0.64221 0.87433 0.57171 0.0
C1144 C 0.6763 0.89585 0.72049 0.0
C1145 C 0.68077 0.90705 0.70845 0.0
H1146 H 0.68677 0.92763 0.67743 0.0
H1147 H 0.67819 0.93088 0.61724 0.0
H1148 H 0.64969 0.85916 0.69426 0.0
H1149 H 0.66517 0.8734 0.73581 0.0
H1150 H 0.67948 0.89398 0.74734 0.0
H1151 H 0.68729 0.91363 0.72628 0.0
Mn1152 Mn 0.11641 0.7432 0.59061 0.0
Mn1153 Mn 0.11364 0.76591 0.57968 0.0
C1154 C 0.11692 0.7534 0.64648 0.0
C1155 C 0.10788 0.72389 0.59975 0.0
C1156 C 0.13476 0.76535 0.55848 0.0
O1157 O 0.11033 0.7417 0.53333 0.0
O1158 O 0.10615 0.75554 0.53445 0.0
C1159 C 0.08922 0.75591 0.58945 0.0
N1160 N 0.0998 0.76353 0.60087 0.0
C1161 C 0.09301 0.77167 0.64907 0.0
C1162 C 0.08204 0.76397 0.6376 0.0
C1163 C 0.08014 0.75602 0.60781 0.0
C1164 C 0.10172 0.77114 0.62976 0.0
H1165 H 0.08774 0.7498 0.56656 0.0
C1166 C 0.10588 0.74704 0.51813 0.0
O1167 O 0.11789 0.72958 0.585 0.0
O1168 O 0.10274 0.72933 0.60743 0.0
N1169 N 0.12047 0.77656 0.62207 0.0
C1170 C 0.13147 0.78277 0.63197 0.0
C1171 C 0.13475 0.79075 0.66271 0.0
C1172 C 0.12672 0.79236 0.68259 0.0
C1173 C 0.11545 0.78592 0.67168 0.0
C1174 C 0.11267 0.77806 0.64095 0.0
H1175 H 0.1377 0.78165 0.61661 0.0
O1176 O 0.12095 0.74674 0.64831 0.0
O1177 O 0.11254 0.75371 0.61241 0.0
O1178 O 0.13186 0.7557 0.57253 0.0
O1179 O 0.1283 0.76946 0.55753 0.0
C1180 C 0.10686 0.78689 0.69046 0.0
C1181 C 0.09564 0.77972 0.67935 0.0
H1182 H 0.07501 0.76401 0.65174 0.0
H1183 H 0.0717 0.75001 0.59896 0.0
H1184 H 0.14346 0.79568 0.67099 0.0
H1185 H 0.12928 0.7985 0.70635 0.0
H1186 H 0.10877 0.79297 0.71405 0.0
H1187 H 0.08909 0.78038 0.69467 0.0
Mn1188 Mn 0.0434 0.59121 0.74306 0.0
Mn1189 Mn 0.01857 0.56718 0.74093 0.0
C1190 C 0.03519 0.583 0.68258 0.0
C1191 C 0.05352 0.61072 0.7423 0.0
C1192 C 0.04039 0.56829 0.76258 0.0
O1193 O 0.03723 0.59045 0.7997 0.0
O1194 O 0.02038 0.57482 0.79279 0.0
C1195 C 0.00346 0.57653 0.74153 0.0
N1196 N 0.00707 0.57005 0.72375 0.0
C1197 C 0.99339 0.56467 0.67116 0.0
C1198 C 0.98949 0.57124 0.68902 0.0
C1199 C 0.99456 0.57722 0.72429 0.0
C1200 C 0.00227 0.56429 0.68975 0.0
H1201 H 0.00735 0.58113 0.76863 0.0
C1202 C 0.02758 0.58324 0.81298 0.0
O1203 O 0.05797 0.60498 0.75533 0.0
O1204 O 0.04313 0.60515 0.73169 0.0
N1205 N 0.0158 0.55902 0.69183 0.0
C1206 C 0.02101 0.55362 0.67713 0.0
C1207 C 0.01717 0.5475 0.64128 0.0
C1208 C 0.00798 0.54693 0.62112 0.0
C1209 C 0.00271 0.55249 0.63699 0.0
C1210 C 0.00687 0.55841 0.67292 0.0
H1211 H 0.02805 0.55401 0.69257 0.0
O1212 O 0.04585 0.5899 0.68436 0.0
O1213 O 0.02977 0.58108 0.71607 0.0
O1214 O 0.04687 0.57872 0.75669 0.0
O1215 O 0.02981 0.56334 0.75828 0.0
C1216 C 0.99362 0.55256 0.61821 0.0
C1217 C 0.98898 0.55866 0.63522 0.0
H1218 H 0.98266 0.57183 0.67572 0.0
H1219 H 0.99163 0.58235 0.73814 0.0
H1220 H 0.02129 0.54325 0.62919 0.0
H1221 H 0.00509 0.54227 0.59334 0.0
H1222 H 0.99024 0.54809 0.59032 0.0
H1223 H 0.98212 0.55881 0.62013 0.0
Mn1224 Mn 0.41443 0.45192 0.74319 0.0
Mn1225 Mn 0.4374 0.44959 0.75425 0.0
C1226 C 0.42473 0.45258 0.6874 0.0
C1227 C 0.39508 0.44314 0.73373 0.0
C1228 C 0.43649 0.47052 0.77535 0.0
O1229 O 0.41292 0.44574 0.8003 0.0
O1230 O 0.42707 0.442 0.79957 0.0
C1231 C 0.42778 0.42522 0.74481 0.0
N1232 N 0.43523 0.43582 0.73312 0.0
C1233 C 0.44336 0.42919 0.68424 0.0
C1234 C 0.43583 0.4182 0.69596 0.0
C1235 C 0.42798 0.41621 0.72626 0.0
C1236 C 0.44277 0.43783 0.70383 0.0
H1237 H 0.42175 0.42366 0.76805 0.0
C1238 C 0.41842 0.44148 0.81564 0.0
O1239 O 0.40064 0.45315 0.7486 0.0
O1240 O 0.40068 0.43816 0.72607 0.0
N1241 N 0.44797 0.45651 0.71166 0.0
C1242 C 0.45401 0.46752 0.70159 0.0
C1243 C 0.46187 0.47088 0.67037 0.0
C1244 C 0.46351 0.46292 0.65013 0.0
C1245 C 0.45725 0.45165 0.66119 0.0
C1246 C 0.44953 0.4488 0.69246 0.0
H1247 H 0.45284 0.47369 0.71714 0.0
O1248 O 0.41799 0.45652 0.68551 0.0
O1249 O 0.42509 0.44826 0.72153 0.0
O1250 O 0.42677 0.46744 0.76147 0.0
O1251 O 0.44075 0.46419 0.77628 0.0
C1252 C 0.45825 0.44313 0.64199 0.0
C1253 C 0.45128 0.4319 0.65339 0.0
H1254 H 0.43593 0.41123 0.68164 0.0
H1255 H 0.4221 0.40775 0.73532 0.0
H1256 H 0.46665 0.47958 0.66197 0.0
H1257 H 0.46955 0.46553 0.62597 0.0
H1258 H 0.46421 0.4451 0.61788 0.0
H1259 H 0.45196 0.4254 0.6378 0.0
Mn1260 Mn 0.55098 0.96233 0.73824 0.0
Mn1261 Mn 0.55311 0.98757 0.72969 0.0
C1262 C 0.54968 0.96902 0.67588 0.0
C1263 C 0.55992 0.95178 0.73819 0.0
C1264 C 0.5327 0.96709 0.7635 0.0
O1265 O 0.558 0.96998 0.7919 0.0
O1266 O 0.56131 0.98736 0.77793 0.0
C1267 C 0.57734 0.00164 0.71402 0.0
N1268 N 0.56658 0.9979 0.70276 0.0
C1269 C 0.57252 0.00958 0.64397 0.0
C1270 C 0.58366 0.01367 0.65523 0.0
C1271 C 0.58608 0.00963 0.6903 0.0
C1272 C 0.56416 0.00163 0.66883 0.0
H1273 H 0.57923 0.99849 0.74076 0.0
C1274 C 0.56234 0.98038 0.80017 0.0
O1275 O 0.5501 0.94793 0.75424 0.0
O1276 O 0.56464 0.96183 0.72407 0.0
N1277 N 0.54561 0.98876 0.68321 0.0
C1278 C 0.53448 0.98329 0.67482 0.0
C1279 C 0.53069 0.98593 0.63965 0.0
C1280 C 0.53835 0.99422 0.61366 0.0
C1281 C 0.54976 0.99978 0.62301 0.0
C1282 C 0.55305 0.99679 0.65847 0.0
H1283 H 0.52854 0.97694 0.69475 0.0
O1284 O 0.5457 0.95841 0.68103 0.0
O1285 O 0.55416 0.97519 0.70717 0.0
O1286 O 0.53568 0.95992 0.75569 0.0
O1287 O 0.53886 0.97755 0.75702 0.0
C1288 C 0.55801 0.00802 0.59817 0.0
C1289 C 0.56939 0.01288 0.60853 0.0
H1290 H 0.59043 0.01979 0.6369 0.0
H1291 H 0.59466 0.01266 0.69898 0.0
H1292 H 0.52187 0.98159 0.63259 0.0
H1293 H 0.5354 0.9962 0.58646 0.0
H1294 H 0.55571 0.01054 0.57066 0.0
H1295 H 0.57566 0.01902 0.58872 0.0
C1296 C 0.10485 0.28338 0.09143 0.0
C1297 C 0.10639 0.29363 0.10555 0.0
C1298 C 0.11304 0.28041 0.09813 0.0
C1299 C 0.13878 0.28809 0.1575 0.0
H1300 H 0.14892 0.2803 0.0607 0.0
C1301 C 0.18446 0.30192 0.12733 0.0
C1302 C 0.18736 0.29501 0.1059 0.0
C1303 C 0.1733 0.29861 0.13447 0.0
C1304 C 0.14607 0.28221 0.08829 0.0
H1305 H 0.11738 0.30845 0.1399 0.0
H1306 H 0.1315 0.30331 0.1516 0.0
H1307 H 0.13114 0.27999 0.06044 0.0
H1308 H 0.18083 0.27897 0.0765 0.0
H1309 H 0.16118 0.2732 0.08859 0.0
H1310 H 0.154 0.29089 0.18466 0.0
C1311 C 0.12402 0.29751 0.13544 0.0
C1312 C 0.13586 0.28203 0.08816 0.0
C1313 C 0.11594 0.30051 0.12843 0.0
C1314 C 0.17885 0.28445 0.09331 0.0
C1315 C 0.16761 0.28118 0.09997 0.0
C1316 C 0.14898 0.2883 0.15759 0.0
C1317 C 0.12283 0.28757 0.11955 0.0
C1318 C 0.13232 0.2854 0.1223 0.0
C1319 C 0.16472 0.28833 0.11998 0.0
C1320 C 0.15294 0.28578 0.12253 0.0
H1321 H 0.09759 0.27792 0.07356 0.0
H1322 H 0.11184 0.27266 0.08571 0.0
H1323 H 0.13618 0.29051 0.18455 0.0
H1324 H 0.19083 0.3101 0.1375 0.0
H1325 H 0.17138 0.30438 0.14954 0.0
C1326 C 0.70237 0.8156 0.14048 0.0
C1327 C 0.70849 0.8123 0.11606 0.0
C1328 C 0.70592 0.82687 0.14616 0.0
C1329 C 0.72091 0.85322 0.09231 0.0
H1330 H 0.71464 0.86468 0.18914 0.0
C1331 C 0.71921 0.89425 0.09255 0.0
C1332 C 0.70902 0.89253 0.10797 0.0
C1333 C 0.72253 0.88632 0.09926 0.0
C1334 C 0.71653 0.86165 0.16194 0.0
H1335 H 0.72348 0.81829 0.08014 0.0
H1336 H 0.72969 0.8381 0.09 0.0
H1337 H 0.71456 0.84702 0.19136 0.0
H1338 H 0.69467 0.88159 0.14444 0.0
H1339 H 0.70048 0.86796 0.15653 0.0
H1340 H 0.72233 0.8676 0.06248 0.0
C1341 C 0.72212 0.8319 0.10466 0.0
C1342 C 0.71647 0.85153 0.1632 0.0
C1343 C 0.71861 0.82057 0.09931 0.0
C1344 C 0.70255 0.88312 0.13201 0.0
C1345 C 0.70593 0.87534 0.13922 0.0
C1346 C 0.72099 0.86337 0.09107 0.0
C1347 C 0.71565 0.83517 0.12732 0.0
C1348 C 0.71819 0.84696 0.12804 0.0
C1349 C 0.71582 0.87668 0.12219 0.0
C1350 C 0.71833 0.86745 0.12551 0.0
H1351 H 0.69455 0.80944 0.15386 0.0
H1352 H 0.70065 0.82905 0.16342 0.0
H1353 H 0.7222 0.84992 0.06462 0.0
H1354 H 0.72432 0.90141 0.07373 0.0
H1355 H 0.7302 0.88758 0.08582 0.0
C1356 C 0.11582 0.81695 0.14359 0.0
C1357 C 0.10769 0.81459 0.11408 0.0
C1358 C 0.12468 0.82779 0.14885 0.0
C1359 C 0.1366 0.85767 0.12185 0.0
H1360 H 0.1643 0.85708 0.12409 0.0
C1361 C 0.1806 0.89599 0.08743 0.0
C1362 C 0.1898 0.8963 0.10654 0.0
C1363 C 0.16979 0.88703 0.09414 0.0
C1364 C 0.15668 0.85748 0.12434 0.0
H1365 H 0.10199 0.82184 0.06884 0.0
H1366 H 0.11766 0.8409 0.07765 0.0
H1367 H 0.14673 0.83975 0.12596 0.0
H1368 H 0.19488 0.88812 0.15021 0.0
H1369 H 0.17609 0.87287 0.16343 0.0
H1370 H 0.14674 0.87554 0.11958 0.0
C1371 C 0.1171 0.83435 0.09702 0.0
C1372 C 0.14656 0.84748 0.12533 0.0
C1373 C 0.10812 0.82345 0.09201 0.0
C1374 C 0.18793 0.88803 0.13482 0.0
C1375 C 0.17717 0.87923 0.14205 0.0
C1376 C 0.14682 0.86776 0.12103 0.0
C1377 C 0.12573 0.83653 0.12433 0.0
C1378 C 0.13638 0.84741 0.12429 0.0
C1379 C 0.16801 0.87831 0.12042 0.0
C1380 C 0.157 0.86778 0.12245 0.0
H1381 H 0.11564 0.8103 0.16133 0.0
H1382 H 0.13102 0.82923 0.17089 0.0
H1383 H 0.12889 0.85789 0.12093 0.0
H1384 H 0.18185 0.90222 0.06518 0.0
H1385 H 0.16295 0.8866 0.07689 0.0
C1386 C 0.29985 0.11858 0.86688 0.0
C1387 C 0.29367 0.10911 0.891 0.0
C1388 C 0.29629 0.12627 0.86105 0.0
C1389 C 0.28136 0.13783 0.91303 0.0
H1390 H 0.2873 0.1547 0.81414 0.0
C1391 C 0.28343 0.18065 0.90803 0.0
C1392 C 0.29358 0.18899 0.89168 0.0
C1393 C 0.28001 0.16934 0.90245 0.0
C1394 C 0.28551 0.15003 0.8419 0.0
H1395 H 0.27868 0.10003 0.92674 0.0
H1396 H 0.27247 0.1137 0.917 0.0
H1397 H 0.2872 0.13703 0.81398 0.0
H1398 H 0.30772 0.19203 0.8547 0.0
H1399 H 0.30173 0.17245 0.84459 0.0
H1400 H 0.28024 0.15113 0.94134 0.0
C1401 C 0.28006 0.11508 0.90247 0.0
C1402 C 0.28545 0.13991 0.84182 0.0
C1403 C 0.28357 0.10724 0.90785 0.0
C1404 C 0.29988 0.1858 0.8678 0.0
C1405 C 0.2964 0.17456 0.86176 0.0
C1406 C 0.2814 0.14796 0.9131 0.0
C1407 C 0.28651 0.12478 0.87953 0.0
C1408 C 0.28387 0.13395 0.87772 0.0
C1409 C 0.28657 0.16619 0.8798 0.0
C1410 C 0.28396 0.1544 0.87787 0.0
H1411 H 0.30765 0.12022 0.85336 0.0
H1412 H 0.30155 0.13371 0.84368 0.0
H1413 H 0.28019 0.13347 0.94123 0.0
H1414 H 0.27843 0.18286 0.92677 0.0
H1415 H 0.27238 0.16307 0.91661 0.0
C1416 C 0.81342 0.11283 0.84995 0.0
C1417 C 0.81129 0.10461 0.87881 0.0
C1418 C 0.8242 0.12177 0.84427 0.0
C1419 C 0.85427 0.13387 0.86897 0.0
H1420 H 0.85331 0.16137 0.87071 0.0
C1421 C 0.89253 0.17789 0.90397 0.0
C1422 C 0.89265 0.18712 0.88597 0.0
C1423 C 0.88357 0.16707 0.89725 0.0
C1424 C 0.8538 0.15382 0.86935 0.0
H1425 H 0.81891 0.09884 0.92233 0.0
H1426 H 0.83785 0.11462 0.91276 0.0
H1427 H 0.83607 0.1437 0.86856 0.0
H1428 H 0.8841 0.19227 0.84422 0.0
H1429 H 0.86883 0.1735 0.83099 0.0
H1430 H 0.87213 0.14417 0.87038 0.0
C1431 C 0.83117 0.11408 0.89422 0.0
C1432 C 0.84387 0.14363 0.86818 0.0
C1433 C 0.82033 0.10502 0.89964 0.0
C1434 C 0.88415 0.1853 0.8588 0.0
C1435 C 0.87535 0.17454 0.85155 0.0
C1436 C 0.8643 0.14415 0.86995 0.0
C1437 C 0.83311 0.1228 0.86773 0.0
C1438 C 0.84393 0.13352 0.86779 0.0
C1439 C 0.87465 0.16532 0.87207 0.0
C1440 C 0.86418 0.15426 0.86997 0.0
H1441 H 0.80663 0.11268 0.8332 0.0
H1442 H 0.82546 0.12819 0.82288 0.0
H1443 H 0.85459 0.12622 0.86878 0.0
H1444 H 0.89895 0.17909 0.92533 0.0
H1445 H 0.88332 0.16019 0.91363 0.0
C1446 C 0.82278 0.71688 0.89799 0.0
C1447 C 0.81414 0.7065 0.88445 0.0
C1448 C 0.83398 0.71995 0.8914 0.0
C1449 C 0.85231 0.71252 0.83286 0.0
H1450 H 0.87017 0.72047 0.9299 0.0
C1451 C 0.88512 0.69984 0.86094 0.0
C1452 C 0.89481 0.70677 0.88309 0.0
C1453 C 0.87702 0.70286 0.85453 0.0
C1454 C 0.86543 0.71851 0.90224 0.0
H1455 H 0.81043 0.69157 0.85122 0.0
H1456 H 0.82979 0.69694 0.83938 0.0
H1457 H 0.85253 0.72046 0.92995 0.0
H1458 H 0.9038 0.72254 0.91458 0.0
H1459 H 0.88951 0.72781 0.90358 0.0
H1460 H 0.86494 0.71007 0.80569 0.0
C1461 C 0.82802 0.70273 0.8551 0.0
C1462 C 0.85531 0.71851 0.90227 0.0
C1463 C 0.8169 0.69961 0.86212 0.0
C1464 C 0.89645 0.71705 0.89723 0.0
C1465 C 0.88823 0.72003 0.8912 0.0
C1466 C 0.86241 0.71253 0.83283 0.0
C1467 C 0.83671 0.71279 0.87057 0.0
C1468 C 0.84843 0.71509 0.86803 0.0
C1469 C 0.87833 0.71285 0.87037 0.0
C1470 C 0.86889 0.7151 0.86796 0.0
H1471 H 0.82091 0.72233 0.91554 0.0
H1472 H 0.8405 0.72779 0.90351 0.0
H1473 H 0.8473 0.71005 0.80577 0.0
H1474 H 0.88361 0.69188 0.84952 0.0
H1475 H 0.86945 0.69706 0.83882 0.0
C1476 C 0.84442 0.61468 0.42121 0.0
C1477 C 0.85278 0.62521 0.43471 0.0
C1478 C 0.83312 0.61118 0.42778 0.0
C1479 C 0.81405 0.61715 0.4873 0.0
H1480 H 0.79662 0.61028 0.38946 0.0
C1481 C 0.78182 0.63042 0.46188 0.0
C1482 C 0.77236 0.62407 0.43791 0.0
C1483 C 0.7896 0.627 0.46821 0.0
C1484 C 0.80121 0.61188 0.41733 0.0
H1485 H 0.85593 0.64001 0.46766 0.0
H1486 H 0.83635 0.63384 0.47975 0.0
H1487 H 0.81444 0.61066 0.38876 0.0
H1488 H 0.76335 0.60888 0.40318 0.0
H1489 H 0.77714 0.60288 0.41397 0.0
H1490 H 0.8011 0.61887 0.51548 0.0
C1491 C 0.83845 0.62829 0.46398 0.0
C1492 C 0.81144 0.61212 0.4169 0.0
C1493 C 0.84967 0.63186 0.45683 0.0
C1494 C 0.77055 0.6139 0.42196 0.0
C1495 C 0.77847 0.61052 0.4279 0.0
C1496 C 0.80381 0.61686 0.48779 0.0
C1497 C 0.83003 0.61805 0.44868 0.0
C1498 C 0.81819 0.61524 0.45146 0.0
C1499 C 0.7882 0.61717 0.45047 0.0
C1500 C 0.79752 0.61473 0.45236 0.0
H1501 H 0.84657 0.60942 0.40382 0.0
H1502 H 0.82681 0.60323 0.41571 0.0
H1503 H 0.81898 0.6194 0.51456 0.0
H1504 H 0.78342 0.63828 0.47471 0.0
H1505 H 0.79705 0.63242 0.48525 0.0
C1506 C 0.38566 0.15494 0.43157 0.0
C1507 C 0.37513 0.14612 0.4429 0.0
C1508 C 0.38851 0.16604 0.43883 0.0
C1509 C 0.37973 0.18362 0.49561 0.0
H1510 H 0.3894 0.20241 0.4008 0.0
C1511 C 0.36695 0.21615 0.4632 0.0
C1512 C 0.37429 0.22614 0.44334 0.0
C1513 C 0.36999 0.20811 0.47065 0.0
C1514 C 0.38695 0.19741 0.42789 0.0
H1515 H 0.35963 0.14198 0.47297 0.0
H1516 H 0.36457 0.16116 0.48583 0.0
H1517 H 0.38962 0.18489 0.40079 0.0
H1518 H 0.39075 0.23571 0.41702 0.0
H1519 H 0.39606 0.22151 0.42971 0.0
H1520 H 0.37654 0.19585 0.52196 0.0
C1521 C 0.37068 0.15961 0.47138 0.0
C1522 C 0.38708 0.18735 0.4279 0.0
C1523 C 0.3678 0.14859 0.46374 0.0
C1524 C 0.38495 0.22812 0.4326 0.0
C1525 C 0.38795 0.21997 0.43959 0.0
C1526 C 0.37959 0.19364 0.49558 0.0
C1527 C 0.38093 0.1685 0.45811 0.0
C1528 C 0.38306 0.18014 0.4612 0.0
C1529 C 0.38041 0.20979 0.45808 0.0
C1530 C 0.38279 0.20044 0.46117 0.0
H1531 H 0.39146 0.15329 0.41525 0.0
H1532 H 0.3965 0.17271 0.42845 0.0
H1533 H 0.37679 0.17836 0.52204 0.0
H1534 H 0.35868 0.21438 0.47195 0.0
H1535 H 0.36392 0.20033 0.48448 0.0
C1536 C 0.84719 0.23198 0.42395 0.0
C1537 C 0.85552 0.23017 0.44031 0.0
C1538 C 0.83587 0.22413 0.42989 0.0
C1539 C 0.81653 0.19968 0.49174 0.0
H1540 H 0.79993 0.18782 0.39283 0.0
C1541 C 0.78489 0.15373 0.47045 0.0
C1542 C 0.77566 0.15026 0.44491 0.0
C1543 C 0.79251 0.16503 0.47594 0.0
C1544 C 0.80429 0.19117 0.42092 0.0
H1545 H 0.85856 0.21913 0.47762 0.0
H1546 H 0.83895 0.20565 0.48852 0.0
H1547 H 0.81763 0.2054 0.3917 0.0
H1548 H 0.76685 0.15591 0.40652 0.0
H1549 H 0.78032 0.17585 0.41587 0.0
H1550 H 0.80347 0.18521 0.52068 0.0
C1551 C 0.84108 0.21305 0.47101 0.0
C1552 C 0.81445 0.20125 0.42025 0.0
C1553 C 0.85233 0.22074 0.46454 0.0
C1554 C 0.77387 0.15837 0.42656 0.0
C1555 C 0.78161 0.16976 0.43167 0.0
C1556 C 0.80637 0.18964 0.49245 0.0
C1557 C 0.83272 0.21449 0.45297 0.0
C1558 C 0.8209 0.20535 0.45535 0.0
C1559 C 0.79116 0.17319 0.45574 0.0
C1560 C 0.80038 0.18501 0.45674 0.0
H1561 H 0.8494 0.23913 0.40491 0.0
H1562 H 0.82959 0.22547 0.41569 0.0
H1563 H 0.82123 0.20273 0.51939 0.0
H1564 H 0.78648 0.14767 0.48509 0.0
H1565 H 0.79981 0.16732 0.49424 0.0
C1566 C 0.95504 0.51449 0.24001 0.0
C1567 C 0.96376 0.52364 0.22002 0.0
C1568 C 0.9531 0.50366 0.23302 0.0
C1569 C 0.96924 0.49052 0.19993 0.0
H1570 H 0.94104 0.46273 0.20527 0.0
C1571 C 0.96884 0.44973 0.17911 0.0
C1572 C 0.96325 0.44163 0.20889 0.0
C1573 C 0.96678 0.45854 0.17428 0.0
C1574 C 0.94897 0.47044 0.2038 0.0
H1575 H 0.97658 0.52862 0.17461 0.0
H1576 H 0.97289 0.50982 0.161 0.0
H1577 H 0.94127 0.48058 0.20763 0.0
H1578 H 0.95055 0.43594 0.2551 0.0
H1579 H 0.94706 0.45154 0.24711 0.0
H1580 H 0.977 0.48058 0.19682 0.0
C1581 C 0.96782 0.51094 0.18322 0.0
C1582 C 0.94911 0.48065 0.2052 0.0
C1583 C 0.96987 0.52171 0.1907 0.0
C1584 C 0.95492 0.44203 0.2317 0.0
C1585 C 0.95294 0.45098 0.22715 0.0
C1586 C 0.9691 0.4804 0.19839 0.0
C1587 C 0.95977 0.50183 0.20561 0.0
C1588 C 0.95927 0.49083 0.20308 0.0
C1589 C 0.95922 0.45958 0.19955 0.0
C1590 C 0.95899 0.47022 0.2001 0.0
H1591 H 0.95027 0.51578 0.26303 0.0
H1592 H 0.94685 0.49685 0.25085 0.0
H1593 H 0.97726 0.49814 0.1996 0.0
H1594 H 0.97523 0.44956 0.16083 0.0
H1595 H 0.97155 0.46487 0.152 0.0
C1596 C 0.56329 0.5096 0.23419 0.0
C1597 C 0.56153 0.51766 0.21529 0.0
C1598 C 0.55561 0.49819 0.22901 0.0
C1599 C 0.5312 0.47813 0.1673 0.0
H1600 H 0.51946 0.46263 0.26816 0.0
C1601 C 0.48513 0.44671 0.19235 0.0
C1602 C 0.48187 0.43765 0.2186 0.0
C1603 C 0.4964 0.45436 0.18597 0.0
C1604 C 0.52277 0.46669 0.23958 0.0
H1605 H 0.55086 0.52016 0.17404 0.0
H1606 H 0.53765 0.50047 0.1647 0.0
H1607 H 0.53709 0.48024 0.26745 0.0
H1608 H 0.4879 0.42921 0.25734 0.0
H1609 H 0.50771 0.44272 0.24644 0.0
H1610 H 0.51656 0.46489 0.13979 0.0
C1611 C 0.54487 0.50282 0.18353 0.0
C1612 C 0.5329 0.4768 0.23917 0.0
C1613 C 0.55242 0.51413 0.18911 0.0
C1614 C 0.49016 0.43608 0.23675 0.0
C1615 C 0.50149 0.44385 0.23077 0.0
C1616 C 0.52108 0.46805 0.16773 0.0
C1617 C 0.54617 0.4947 0.2043 0.0
C1618 C 0.53699 0.48287 0.20327 0.0
C1619 C 0.50472 0.45322 0.206 0.0
C1620 C 0.51652 0.46245 0.20411 0.0
H1621 H 0.57021 0.51209 0.25473 0.0
H1622 H 0.55686 0.49213 0.24527 0.0
H1623 H 0.53423 0.4825 0.13903 0.0
H1624 H 0.47895 0.44814 0.17784 0.0
H1625 H 0.49857 0.46153 0.16708 0.0
C1626 C 0.56586 0.05259 0.23276 0.0
C1627 C 0.5643 0.04248 0.21706 0.0
C1628 C 0.5578 0.05575 0.22643 0.0
C1629 C 0.53268 0.04929 0.16536 0.0
H1630 H 0.52168 0.05546 0.26351 0.0
C1631 C 0.48683 0.03589 0.18994 0.0
C1632 C 0.48382 0.04224 0.21438 0.0
C1633 C 0.49802 0.03917 0.18373 0.0
C1634 C 0.52477 0.05402 0.23558 0.0
H1635 H 0.55348 0.02815 0.18031 0.0
H1636 H 0.53959 0.03367 0.169 0.0
H1637 H 0.53932 0.05552 0.2642 0.0
H1638 H 0.49026 0.05735 0.24985 0.0
H1639 H 0.50993 0.0631 0.23905 0.0
H1640 H 0.51787 0.04727 0.13717 0.0
C1641 C 0.54697 0.03918 0.18622 0.0
C1642 C 0.5349 0.05405 0.23599 0.0
C1643 C 0.55491 0.03597 0.19295 0.0
C1644 C 0.49231 0.0523 0.23071 0.0
C1645 C 0.50357 0.05554 0.22481 0.0
C1646 C 0.52256 0.04926 0.16495 0.0
C1647 C 0.54815 0.04895 0.20372 0.0
C1648 C 0.53875 0.05126 0.20124 0.0
C1649 C 0.50654 0.04886 0.20202 0.0
C1650 C 0.51827 0.05119 0.20041 0.0
H1651 H 0.57299 0.05774 0.25165 0.0
H1652 H 0.55897 0.06335 0.24013 0.0
H1653 H 0.53552 0.0473 0.13791 0.0
H1654 H 0.4805 0.02811 0.17682 0.0
H1655 H 0.49997 0.03374 0.16639 0.0
C1656 C 0.44753 0.9688 0.81791 0.0
C1657 C 0.43935 0.96281 0.78877 0.0
C1658 C 0.45637 0.96684 0.82376 0.0
C1659 C 0.46824 0.94871 0.79839 0.0
H1660 H 0.49592 0.97706 0.79763 0.0
C1661 C 0.51198 0.95432 0.76036 0.0
C1662 C 0.52131 0.96335 0.77831 0.0
C1663 C 0.50121 0.95246 0.76812 0.0
C1664 C 0.48831 0.96904 0.79874 0.0
H1665 H 0.43354 0.94949 0.74495 0.0
H1666 H 0.44918 0.94615 0.75473 0.0
H1667 H 0.47834 0.97678 0.80038 0.0
H1668 H 0.52673 0.97687 0.82102 0.0
H1669 H 0.50804 0.97335 0.83609 0.0
H1670 H 0.4784 0.94101 0.79597 0.0
C1671 C 0.44867 0.95228 0.77339 0.0
C1672 C 0.47818 0.96888 0.80027 0.0
C1673 C 0.4397 0.95418 0.76782 0.0
C1674 C 0.51966 0.96991 0.80651 0.0
C1675 C 0.50895 0.96795 0.8148 0.0
C1676 C 0.47847 0.94886 0.79703 0.0
C1677 C 0.45735 0.95895 0.80017 0.0
C1678 C 0.46801 0.95875 0.80021 0.0
C1679 C 0.49963 0.95955 0.79431 0.0
C1680 C 0.48864 0.95905 0.79728 0.0
H1681 H 0.44741 0.97543 0.83479 0.0
H1682 H 0.46277 0.97192 0.84538 0.0
H1683 H 0.46054 0.94077 0.79824 0.0
H1684 H 0.51306 0.9492 0.73822 0.0
H1685 H 0.49425 0.94594 0.75172 0.0
C1686 C 0.03999 0.55362 0.80612 0.0
C1687 C 0.04502 0.56118 0.7744 0.0
C1688 C 0.04229 0.54502 0.81227 0.0
C1689 C 0.05985 0.53286 0.78169 0.0
H1690 H 0.03199 0.50518 0.79714 0.0
C1691 C 0.0531 0.4883 0.7519 0.0
C1692 C 0.04499 0.47954 0.77528 0.0
C1693 C 0.05526 0.49925 0.7576 0.0
C1694 C 0.03991 0.51282 0.79366 0.0
H1695 H 0.05687 0.56613 0.72551 0.0
H1696 H 0.06074 0.55081 0.73557 0.0
H1697 H 0.03202 0.52263 0.79673 0.0
H1698 H 0.03361 0.47544 0.82534 0.0
H1699 H 0.03769 0.49449 0.83647 0.0
H1700 H 0.06764 0.5228 0.77761 0.0
C1701 C 0.05518 0.55168 0.75624 0.0
C1702 C 0.03992 0.52287 0.7934 0.0
C1703 C 0.05299 0.56045 0.75047 0.0
C1704 C 0.03982 0.48203 0.80665 0.0
C1705 C 0.0421 0.49294 0.81275 0.0
C1706 C 0.05984 0.52271 0.78199 0.0
C1707 C 0.04948 0.5436 0.7862 0.0
C1708 C 0.04987 0.53304 0.78759 0.0
C1709 C 0.04942 0.50159 0.78704 0.0
C1710 C 0.04984 0.51256 0.78815 0.0
H1711 H 0.03385 0.55406 0.82505 0.0
H1712 H 0.03798 0.53913 0.83631 0.0
H1713 H 0.06765 0.54055 0.77709 0.0
H1714 H 0.05713 0.48658 0.72727 0.0
H1715 H 0.06094 0.5057 0.73722 0.0
C1716 C 0.45184 0.4847 0.81775 0.0
C1717 C 0.4439 0.48226 0.78742 0.0
C1718 C 0.46059 0.49559 0.8234 0.0
C1719 C 0.47245 0.52542 0.79402 0.0
H1720 H 0.50031 0.52535 0.80414 0.0
C1721 C 0.51664 0.56348 0.75973 0.0
C1722 C 0.52567 0.56419 0.78153 0.0
C1723 C 0.50577 0.55461 0.76647 0.0
C1724 C 0.49263 0.5256 0.80214 0.0
H1725 H 0.43846 0.4894 0.74088 0.0
H1726 H 0.45395 0.50849 0.75014 0.0
H1727 H 0.48287 0.50788 0.8054 0.0
H1728 H 0.53033 0.55688 0.82986 0.0
H1729 H 0.51145 0.54176 0.84281 0.0
H1730 H 0.48244 0.54328 0.78971 0.0
C1731 C 0.45331 0.502 0.77001 0.0
C1732 C 0.48257 0.51553 0.80286 0.0
C1733 C 0.44442 0.49107 0.76472 0.0
C1734 C 0.52353 0.55647 0.8124 0.0
C1735 C 0.51272 0.54775 0.81952 0.0
C1736 C 0.4826 0.53559 0.79332 0.0
C1737 C 0.46176 0.50429 0.79833 0.0
C1738 C 0.47233 0.51526 0.79895 0.0
C1739 C 0.50377 0.54638 0.79536 0.0
C1740 C 0.49282 0.53579 0.79751 0.0
H1741 H 0.45158 0.47809 0.83594 0.0
H1742 H 0.46676 0.49709 0.84627 0.0
H1743 H 0.46471 0.52552 0.79093 0.0
H1744 H 0.51808 0.56926 0.73547 0.0
H1745 H 0.49909 0.55381 0.74726 0.0
C1746 C 0.63366 0.85482 0.52342 0.0
C1747 C 0.62766 0.85664 0.5535 0.0
C1748 C 0.63162 0.84408 0.51525 0.0
C1749 C 0.61314 0.81371 0.53664 0.0
H1750 H 0.6411 0.81386 0.52611 0.0
C1751 C 0.61936 0.77538 0.56246 0.0
C1752 C 0.62786 0.77512 0.54024 0.0
C1753 C 0.61719 0.78418 0.55734 0.0
C1754 C 0.63317 0.81361 0.52818 0.0
H1755 H 0.61438 0.84863 0.59721 0.0
H1756 H 0.61098 0.82976 0.5838 0.0
H1757 H 0.64124 0.83134 0.52973 0.0
H1758 H 0.63993 0.78312 0.49257 0.0
H1759 H 0.63585 0.79814 0.48242 0.0
H1760 H 0.60517 0.7958 0.53639 0.0
C1761 C 0.61713 0.83662 0.5659 0.0
C1762 C 0.63325 0.82369 0.53026 0.0
C1763 C 0.61906 0.84742 0.57361 0.0
C1764 C 0.63338 0.78316 0.51024 0.0
C1765 C 0.63111 0.79182 0.50475 0.0
C1766 C 0.61307 0.80353 0.53466 0.0
C1767 C 0.6237 0.83489 0.53767 0.0
C1768 C 0.62325 0.82393 0.53433 0.0
C1769 C 0.62343 0.79278 0.5297 0.0
C1770 C 0.62311 0.80339 0.53021 0.0
H1771 H 0.64028 0.86179 0.50724 0.0
H1772 H 0.63661 0.84304 0.49244 0.0
H1773 H 0.60529 0.81358 0.53976 0.0
H1774 H 0.61508 0.76934 0.58612 0.0
H1775 H 0.61122 0.78466 0.57708 0.0
C1776 C 0.15538 0.77351 0.5682 0.0
C1777 C 0.14644 0.77286 0.54595 0.0
C1778 C 0.16625 0.78246 0.56235 0.0
C1779 C 0.17929 0.81162 0.52958 0.0
H1780 H 0.20735 0.81194 0.53939 0.0
C1781 C 0.21978 0.85281 0.5163 0.0
C1782 C 0.22782 0.85514 0.54609 0.0
C1783 C 0.2111 0.84193 0.51007 0.0
C1784 C 0.19957 0.81197 0.53674 0.0
H1785 H 0.14196 0.78034 0.49763 0.0
H1786 H 0.16086 0.79564 0.48643 0.0
H1787 H 0.18971 0.79407 0.53934 0.0
H1788 H 0.23351 0.84786 0.5912 0.0
H1789 H 0.21808 0.82875 0.58111 0.0
H1790 H 0.18889 0.82936 0.52813 0.0
C1791 C 0.1595 0.78952 0.50932 0.0
C1792 C 0.18948 0.80175 0.53669 0.0
C1793 C 0.14868 0.78072 0.5155 0.0
C1794 C 0.22745 0.84625 0.56778 0.0
C1795 C 0.21861 0.83532 0.562 0.0
C1796 C 0.18928 0.82175 0.52969 0.0
C1797 C 0.16833 0.79083 0.53396 0.0
C1798 C 0.17922 0.80147 0.53289 0.0
C1799 C 0.21008 0.83312 0.53416 0.0
C1800 C 0.19957 0.8221 0.53303 0.0
H1801 H 0.15386 0.76761 0.59209 0.0
H1802 H 0.17285 0.78322 0.58187 0.0
H1803 H 0.17155 0.81179 0.52791 0.0
H1804 H 0.21993 0.85951 0.49894 0.0
H1805 H 0.20487 0.84051 0.48756 0.0
C1806 C 0.23324 0.38541 0.56343 0.0
C1807 C 0.2317 0.37509 0.55016 0.0
C1808 C 0.22498 0.38827 0.55657 0.0
C1809 C 0.19904 0.38011 0.49778 0.0
H1810 H 0.18912 0.3885 0.59374 0.0
C1811 C 0.15341 0.3664 0.52853 0.0
C1812 C 0.15054 0.37347 0.54912 0.0
C1813 C 0.16456 0.36967 0.52136 0.0
C1814 C 0.1919 0.38641 0.56637 0.0
H1815 H 0.22063 0.36002 0.51717 0.0
H1816 H 0.20639 0.36498 0.50517 0.0
H1817 H 0.20693 0.38886 0.59415 0.0
H1818 H 0.15712 0.3897 0.57704 0.0
H1819 H 0.17676 0.39539 0.56492 0.0
H1820 H 0.18373 0.37708 0.47073 0.0
C1821 C 0.21392 0.37091 0.52079 0.0
C1822 C 0.20213 0.38662 0.56659 0.0
C1823 C 0.22207 0.36801 0.52797 0.0
C1824 C 0.15908 0.38411 0.56087 0.0
C1825 C 0.17031 0.38733 0.5542 0.0
C1826 C 0.18882 0.37987 0.49761 0.0
C1827 C 0.21512 0.38094 0.5358 0.0
C1828 C 0.2056 0.38305 0.5328 0.0
C1829 C 0.17316 0.38005 0.535 0.0
C1830 C 0.18494 0.3826 0.53239 0.0
H1831 H 0.24055 0.39101 0.58076 0.0
H1832 H 0.22618 0.39609 0.56832 0.0
H1833 H 0.20157 0.37752 0.47099 0.0
H1834 H 0.14702 0.35816 0.51903 0.0
H1835 H 0.16645 0.3638 0.50693 0.0
C1836 C 0.03851 0.28122 0.04061 0.0
C1837 C 0.04462 0.27598 0.05084 0.0
C1838 C 0.02767 0.27504 0.02552 0.0
C1839 C 0.00342 0.24644 0.01357 0.0
H1840 H 0.99607 0.26058 0.92762 0.0
C1841 C 0.96067 0.22447 0.93018 0.0
C1842 C 0.95544 0.23093 0.92824 0.0
C1843 C 0.97191 0.22935 0.94169 0.0
C1844 C 0.99799 0.25652 0.95162 0.0
H1845 H 0.04398 0.26005 0.05465 0.0
H1846 H 0.02501 0.24921 0.02778 0.0
H1847 H 0.01471 0.27008 0.95665 0.0
H1848 H 0.95799 0.24762 0.93507 0.0
H1849 H 0.97753 0.25612 0.95422 0.0
H1850 H 0.98659 0.23285 0.00829 0.0
C1851 C 0.02858 0.25811 0.0318 0.0
C1852 C 0.00866 0.26199 0.96849 0.0
C1853 C 0.03945 0.26432 0.04724 0.0
C1854 C 0.96178 0.24242 0.93621 0.0
C1855 C 0.973 0.2473 0.94709 0.0
C1856 C 0.99273 0.24091 0.99645 0.0
C1857 C 0.02266 0.26345 0.01981 0.0
C1858 C 0.01146 0.25715 0.00031 0.0
C1859 C 0.97815 0.2408 0.95077 0.0
C1860 C 0.98983 0.246 0.96582 0.0
H1861 H 0.0422 0.29018 0.04334 0.0
H1862 H 0.02327 0.27942 0.01778 0.0
H1863 H 0.00526 0.24247 0.03808 0.0
H1864 H 0.95596 0.21558 0.92452 0.0
H1865 H 0.97568 0.22415 0.94398 0.0
C1866 C 0.75984 0.71849 0.96469 0.0
C1867 C 0.76864 0.72265 0.93676 0.0
C1868 C 0.75517 0.72492 0.97672 0.0
C1869 C 0.74953 0.74666 0.94711 0.0
H1870 H 0.74695 0.75022 0.06163 0.0
C1871 C 0.71873 0.75881 0.01579 0.0
C1872 C 0.72298 0.76737 0.04466 0.0
C1873 C 0.72521 0.75436 0.00176 0.0
C1874 C 0.74769 0.74937 0.02959 0.0
H1875 H 0.77925 0.73673 0.89873 0.0
H1876 H 0.77074 0.74791 0.91895 0.0
H1877 H 0.7567 0.74064 0.03781 0.0
H1878 H 0.73731 0.77787 0.0819 0.0
H1879 H 0.74853 0.7698 0.05823 0.0
H1880 H 0.74014 0.75501 0.93895 0.0
C1881 C 0.76762 0.73969 0.93179 0.0
C1882 C 0.75322 0.74386 0.01598 0.0
C1883 C 0.77247 0.7333 0.92023 0.0
C1884 C 0.7338 0.77126 0.05972 0.0
C1885 C 0.74022 0.76666 0.04619 0.0
C1886 C 0.74382 0.75199 0.96075 0.0
C1887 C 0.75905 0.7356 0.96068 0.0
C1888 C 0.75408 0.74234 0.97464 0.0
C1889 C 0.73602 0.75824 0.01675 0.0
C1890 C 0.74274 0.7533 0.00216 0.0
H1891 H 0.7567 0.71034 0.97818 0.0
H1892 H 0.74849 0.72152 -0.00133 0.0
H1893 H 0.75004 0.74555 0.91511 0.0
H1894 H 0.71045 0.75566 0.00339 0.0
H1895 H 0.72172 0.74779 0.97943 0.0
C1896 C 0.22768 0.96401 0.05816 0.0
C1897 C 0.23402 0.95865 0.05983 0.0
C1898 C 0.23261 0.97519 0.04591 0.0
C1899 C 0.2599 1.00099 0.03306 0.0
H1900 H 0.24527 0.00813 0.9483 0.0
C1901 C 0.28395 0.04155 0.94338 0.0
C1902 C 0.27854 0.04757 0.9341 0.0
C1903 C 0.27794 0.03069 0.9584 0.0
C1904 C 0.24942 0.00634 0.97232 0.0
H1905 H 0.25057 0.96093 0.05174 0.0
H1906 H 0.25918 0.98037 0.03125 0.0
H1907 H 0.23579 0.98958 0.97888 0.0
H1908 H 0.26249 0.04672 0.93187 0.0
H1909 H 0.25197 0.02775 0.95861 0.0
H1910 H 0.2735 0.01766 0.02681 0.0
C1911 C 0.25041 0.97598 0.03917 0.0
C1912 C 0.24397 0.9957 0.98989 0.0
C1913 C 0.24546 0.96482 0.05082 0.0
C1914 C 0.26689 0.04228 0.93851 0.0
C1915 C 0.26086 0.0314 0.95388 0.0
C1916 C 0.26531 0.01161 0.01573 0.0
C1917 C 0.24401 0.98125 0.03578 0.0
C1918 C 0.24924 0.99286 0.01999 0.0
C1919 C 0.26637 0.02557 0.96497 0.0
C1920 C 0.26025 0.01437 0.98458 0.0
H1921 H 0.21882 0.95945 0.06464 0.0
H1922 H 0.22749 0.97906 0.0439 0.0
H1923 H 0.26412 0.99912 0.05662 0.0
H1924 H 0.29291 0.04535 0.94005 0.0
H1925 H 0.28244 0.02637 0.96547 0.0
C1926 C 0.96323 0.71921 0.93989 0.0
C1927 C 0.95705 0.72445 0.93053 0.0
C1928 C 0.97419 0.72541 0.95382 0.0
C1929 C 0.99853 0.75407 0.96453 0.0
H1930 H 0.00625 0.74008 0.04995 0.0
C1931 C 0.04105 0.77655 0.04995 0.0
C1932 C 0.04641 0.77024 0.0536 0.0
C1933 C 0.02994 0.77153 0.03665 0.0
C1934 C 0.00425 0.74409 0.02601 0.0
H1935 H 0.95771 0.74039 0.92694 0.0
H1936 H 0.97689 0.75126 0.95185 0.0
H1937 H 0.98757 0.73043 0.02144 0.0
H1938 H 0.04424 0.75368 0.04725 0.0
H1939 H 0.02495 0.74495 0.02477 0.0
H1940 H 0.01531 0.76778 0.96952 0.0
C1941 C 0.97327 0.74235 0.94802 0.0
C1942 C 0.99354 0.73854 0.00945 0.0
C1943 C 0.96228 0.73612 0.93371 0.0
C1944 C 0.04036 0.75878 0.04485 0.0
C1945 C 0.02927 0.75376 0.03207 0.0
C1946 C 0.00927 0.75968 0.98134 0.0
C1947 C 0.97926 0.73702 0.95925 0.0
C1948 C 0.99058 0.74334 0.97796 0.0
C1949 C 0.02396 0.76007 0.02734 0.0
C1950 C 0.0123 0.75466 0.01182 0.0
H1951 H 0.95949 0.71024 0.93743 0.0
H1952 H 0.97862 0.72104 0.96099 0.0
H1953 H 0.99657 0.75801 0.94025 0.0
H1954 H 0.04552 0.78541 0.05625 0.0
H1955 H 0.02605 0.7766 0.03359 0.0
C1956 C 0.28322 0.24612 0.94752 0.0
C1957 C 0.27784 0.23464 0.9392 0.0
C1958 C 0.27713 0.2511 0.96028 0.0
C1959 C 0.25139 0.24492 0.01273 0.0
H1960 H 0.25826 0.27396 0.97276 0.0
C1961 C 0.22728 0.26758 0.0615 0.0
C1962 C 0.23346 0.27928 0.06376 0.0
C1963 C 0.23228 0.26156 0.04746 0.0
C1964 C 0.25633 0.26592 0.98474 0.0
H1965 H 0.2618 0.2194 0.93697 0.0
H1966 H 0.2511 0.22814 0.95957 0.0
H1967 H 0.26742 0.26456 0.94331 0.0
H1968 H 0.24987 0.29378 0.05588 0.0
H1969 H 0.25866 0.28335 0.03296 0.0
H1970 H 0.24045 0.24638 0.05476 0.0
C1971 C 0.26006 0.23326 0.95621 0.0
C1972 C 0.26155 0.2605 0.96762 0.0
C1973 C 0.26617 0.22828 0.94292 0.0
C1974 C 0.24486 0.28478 0.05412 0.0
C1975 C 0.24987 0.27879 0.04053 0.0
C1976 C 0.24621 0.25038 0.03011 0.0
C1977 C 0.2655 0.24471 0.96545 0.0
C1978 C 0.25925 0.25 0.98169 0.0
C1979 C 0.24358 0.26714 0.03568 0.0
C1980 C 0.24873 0.26103 0.0167 0.0
H1981 H 0.29221 0.25124 0.94506 0.0
H1982 H 0.28159 0.25992 0.96746 0.0
H1983 H 0.24953 0.23687 0.02448 0.0
H1984 H 0.21845 0.26312 0.06847 0.0
H1985 H 0.22717 0.25261 0.04408 0.0
C1986 C 0.75654 0.03775 0.9581 0.0
C1987 C 0.76776 0.04368 0.94599 0.0
C1988 C 0.7519 0.02694 0.97332 0.0
C1989 C 0.75607 0.00248 0.98207 0.0
H1990 H 0.73519 0.99502 0.07028 0.0
C1991 C 0.73641 0.95993 0.06608 0.0
C1992 C 0.72473 0.95454 0.06972 0.0
C1993 C 0.7425 0.97113 0.05399 0.0
C1994 C 0.74098 0.99696 0.04561 0.0
H1995 H 0.78285 0.04277 0.93928 0.0
H1996 H 0.77479 0.02387 0.96652 0.0
H1997 H 0.74414 0.01369 0.04159 0.0
H1998 H 0.71035 0.95678 0.06516 0.0
H1999 H 0.72095 0.97628 0.04495 0.0
H2000 H 0.75287 0.98566 0.98648 0.0
C2001 C 0.76952 0.02755 0.96378 0.0
C2002 C 0.74608 0.00766 0.02894 0.0
C2003 C 0.77415 0.03839 0.94817 0.0
C2004 C 0.71934 0.96069 0.06272 0.0
C2005 C 0.72542 0.97189 0.05122 0.0
C2006 C 0.75102 0.99177 -0.00098 0.0
C2007 C 0.75838 0.02176 0.97732 0.0
C2008 C 0.75352 0.01051 0.99641 0.0
C2009 C 0.73705 0.97719 0.04596 0.0
C2010 C 0.74327 0.98884 0.03053 0.0
H2011 H 0.75135 0.04155 0.9565 0.0
H2012 H 0.74321 0.02266 0.98231 0.0
H2013 H 0.76169 0.00433 0.95693 0.0
H2014 H 0.74079 0.95538 0.07101 0.0
H2015 H 0.75146 0.97502 0.05051 0.0
C2016 C 0.62733 0.5766 0.28093 0.0
C2017 C 0.62167 0.56526 0.27019 0.0
C2018 C 0.63835 0.58177 0.29465 0.0
C2019 C 0.65846 0.5758 0.34447 0.0
H2020 H 0.68018 0.60556 0.30886 0.0
C2021 C 0.70525 0.59816 0.39239 0.0
C2022 C 0.71082 0.60982 0.39653 0.0
C2023 C 0.69422 0.59233 0.37825 0.0
C2024 C 0.67419 0.59732 0.3197 0.0
H2025 H 0.62323 0.5505 0.26487 0.0
H2026 H 0.64252 0.55955 0.28911 0.0
H2027 H 0.66156 0.59623 0.27978 0.0
H2028 H 0.709 0.62443 0.39153 0.0
H2029 H 0.68975 0.61431 0.3685 0.0
H2030 H 0.67103 0.57696 0.38499 0.0
C2031 C 0.63839 0.56441 0.28694 0.0
C2032 C 0.66352 0.59195 0.30278 0.0
C2033 C 0.62738 0.55926 0.27272 0.0
C2034 C 0.70497 0.61545 0.38834 0.0
C2035 C 0.69395 0.60964 0.37467 0.0
C2036 C 0.66914 0.58122 0.36171 0.0
C2037 C 0.64396 0.57571 0.29839 0.0
C2038 C 0.65549 0.58116 0.31511 0.0
C2039 C 0.68851 0.59804 0.36827 0.0
C2040 C 0.67713 0.5921 0.34979 0.0
H2041 H 0.62317 0.58145 0.27944 0.0
H2042 H 0.64237 0.59046 0.30352 0.0
H2043 H 0.65242 0.56753 0.35493 0.0
H2044 H 0.70957 0.59359 0.39818 0.0
H2045 H 0.69036 0.58342 0.37355 0.0
C2046 C 0.43095 0.05379 0.3132 0.0
C2047 C 0.43966 0.05811 0.28488 0.0
C2048 C 0.42649 0.06025 0.32716 0.0
C2049 C 0.42153 0.08268 0.29948 0.0
H2050 H 0.417 0.08449 0.41375 0.0
C2051 C 0.38945 0.09339 0.36285 0.0
C2052 C 0.39321 0.10205 0.39128 0.0
C2053 C 0.39622 0.0891 0.35102 0.0
C2054 C 0.41831 0.08414 0.38183 0.0
H2055 H 0.45042 0.07256 0.24863 0.0
H2056 H 0.4423 0.08377 0.27216 0.0
H2057 H 0.42691 0.075 0.39031 0.0
H2058 H 0.40696 0.11279 0.4304 0.0
H2059 H 0.41874 0.10491 0.41055 0.0
H2060 H 0.41251 0.09139 0.2909 0.0
C2061 C 0.43907 0.07541 0.28383 0.0
C2062 C 0.42391 0.07867 0.3684 0.0
C2063 C 0.4437 0.069 0.27038 0.0
C2064 C 0.40383 0.10611 0.40851 0.0
C2065 C 0.41056 0.10163 0.39715 0.0
C2066 C 0.41575 0.08796 0.31286 0.0
C2067 C 0.43049 0.07112 0.31267 0.0
C2068 C 0.42545 0.07777 0.32706 0.0
C2069 C 0.40687 0.09321 0.36776 0.0
C2070 C 0.41396 0.08861 0.35412 0.0
H2071 H 0.42768 0.04545 0.32518 0.0
H2072 H 0.41979 0.05668 0.349 0.0
H2073 H 0.42254 0.08206 0.26748 0.0
H2074 H 0.38134 0.09008 0.34881 0.0
H2075 H 0.39312 0.08252 0.3287 0.0
C2076 C 0.91322 0.29767 0.38718 0.0
C2077 C 0.90176 0.29162 0.39605 0.0
C2078 C 0.91828 0.30883 0.37528 0.0
C2079 C 0.91214 0.32876 0.32572 0.0
H2080 H 0.94156 0.35061 0.36399 0.0
C2081 C 0.9351 0.37538 0.27522 0.0
C2082 C 0.94675 0.38066 0.27093 0.0
C2083 C 0.92907 0.36452 0.29082 0.0
C2084 C 0.9334 0.34459 0.35253 0.0
H2085 H 0.88666 0.29263 0.40022 0.0
H2086 H 0.89554 0.3122 0.37909 0.0
H2087 H 0.93211 0.33197 0.39296 0.0
H2088 H 0.96113 0.37849 0.27762 0.0
H2089 H 0.95067 0.35957 0.30343 0.0
H2090 H 0.91355 0.34132 0.28458 0.0
C2091 C 0.90058 0.30825 0.38137 0.0
C2092 C 0.92796 0.33391 0.36936 0.0
C2093 C 0.89553 0.29709 0.39381 0.0
C2094 C 0.95217 0.37471 0.28087 0.0
C2095 C 0.94617 0.36387 0.2961 0.0
C2096 C 0.91763 0.33945 0.30863 0.0
C2097 C 0.91199 0.3142 0.37151 0.0
C2098 C 0.91733 0.32582 0.35584 0.0
C2099 C 0.93457 0.35871 0.30224 0.0
C2100 C 0.92841 0.34746 0.32141 0.0
H2101 H 0.91825 0.2937 0.38851 0.0
H2102 H 0.92707 0.31314 0.36759 0.0
H2103 H 0.904 0.32268 0.31438 0.0
H2104 H 0.93069 0.37978 0.26802 0.0
H2105 H 0.92017 0.36085 0.29525 0.0
C2106 C 0.70959 0.10907 0.3891 0.0
C2107 C 0.71522 0.103 0.39143 0.0
C2108 C 0.69852 0.10395 0.37545 0.0
C2109 C 0.67322 0.07647 0.36126 0.0
H2110 H 0.66551 0.09123 0.27875 0.0
C2111 C 0.63175 0.05267 0.27625 0.0
C2112 C 0.62582 0.05821 0.26774 0.0
C2113 C 0.64275 0.05856 0.29002 0.0
C2114 C 0.66746 0.08704 0.30214 0.0
H2115 H 0.71356 0.08673 0.38239 0.0
H2116 H 0.69427 0.07779 0.35932 0.0
H2117 H 0.68422 0.10072 0.30807 0.0
H2118 H 0.62693 0.07437 0.2657 0.0
H2119 H 0.64613 0.0847 0.29051 0.0
H2120 H 0.65653 0.06287 0.35597 0.0
C2121 C 0.69838 0.0865 0.36791 0.0
C2122 C 0.67819 0.09249 0.31894 0.0
C2123 C 0.70946 0.09164 0.38105 0.0
C2124 C 0.6313 0.06987 0.27177 0.0
C2125 C 0.64232 0.07579 0.28601 0.0
C2126 C 0.66249 0.07107 0.34476 0.0
C2127 C 0.69283 0.09263 0.3644 0.0
C2128 C 0.68123 0.0872 0.34834 0.0
C2129 C 0.6481 0.07017 0.29621 0.0
C2130 C 0.65949 0.0762 0.31453 0.0
H2131 H 0.71382 0.11786 0.39668 0.0
H2132 H 0.69443 0.10887 0.37342 0.0
H2133 H 0.67524 0.07224 0.38432 0.0
H2134 H 0.6278 0.04369 0.27313 0.0
H2135 H 0.64701 0.05397 0.29636 0.0
C2136 C 0.91086 0.61573 0.38702 0.0
C2137 C 0.8994 0.61023 0.39593 0.0
C2138 C 0.91602 0.60969 0.37561 0.0
C2139 C 0.91012 0.58373 0.32638 0.0
H2140 H 0.93966 0.59167 0.36434 0.0
C2141 C 0.93386 0.56084 0.27552 0.0
C2142 C 0.94552 0.5674 0.27188 0.0
C2143 C 0.92762 0.56549 0.29059 0.0
C2144 C 0.93147 0.58943 0.35297 0.0
H2145 H 0.88441 0.59405 0.4009 0.0
H2146 H 0.89346 0.58345 0.38057 0.0
H2147 H 0.92999 0.60055 0.39385 0.0
H2148 H 0.95966 0.5841 0.27859 0.0
H2149 H 0.94882 0.59225 0.30331 0.0
H2150 H 0.91174 0.5728 0.28473 0.0
C2151 C 0.89842 0.59246 0.38248 0.0
C2152 C 0.9259 0.59448 0.37013 0.0
C2153 C 0.89328 0.59851 0.39449 0.0
C2154 C 0.95071 0.5788 0.2814 0.0
C2155 C 0.94449 0.58345 0.29603 0.0
C2156 C 0.91575 0.57871 0.30894 0.0
C2157 C 0.90982 0.59801 0.37237 0.0
C2158 C 0.91523 0.59182 0.35669 0.0
C2159 C 0.93291 0.5768 0.30205 0.0
C2160 C 0.92658 0.58165 0.32157 0.0
H2161 H 0.9158 0.62475 0.38775 0.0
H2162 H 0.92479 0.61423 0.36773 0.0
H2163 H 0.90195 0.58157 0.31512 0.0
H2164 H 0.92964 0.55201 0.26867 0.0
H2165 H 0.91872 0.56011 0.29486 0.0
C2166 C 0.44205 0.37244 0.28735 0.0
C2167 C 0.43589 0.37797 0.28442 0.0
C2168 C 0.43716 0.36163 0.30325 0.0
C2169 C 0.41317 0.34194 0.36709 0.0
H2170 H 0.42014 0.31987 0.32674 0.0
C2171 C 0.3861 0.29485 0.39882 0.0
C2172 C 0.39143 0.28868 0.40677 0.0
C2173 C 0.39228 0.30611 0.38824 0.0
C2174 C 0.41824 0.326 0.33872 0.0
H2175 H 0.41964 0.3763 0.29412 0.0
H2176 H 0.41102 0.35739 0.32035 0.0
H2177 H 0.42918 0.33851 0.29707 0.0
H2178 H 0.40747 0.28957 0.41091 0.0
H2179 H 0.41834 0.30932 0.39189 0.0
H2180 H 0.40196 0.32931 0.40784 0.0
C2181 C 0.41973 0.36148 0.31172 0.0
C2182 C 0.42341 0.3367 0.3217 0.0
C2183 C 0.42464 0.37231 0.29623 0.0
C2184 C 0.40314 0.29413 0.40526 0.0
C2185 C 0.40935 0.30539 0.394 0.0
C2186 C 0.40793 0.33124 0.38379 0.0
C2187 C 0.42597 0.35606 0.31629 0.0
C2188 C 0.42084 0.34478 0.33529 0.0
C2189 C 0.40396 0.31145 0.38478 0.0
C2190 C 0.4103 0.32311 0.36952 0.0
H2191 H 0.45076 0.37662 0.27875 0.0
H2192 H 0.44227 0.35778 0.30651 0.0
H2193 H 0.41118 0.348 0.37919 0.0
H2194 H 0.37708 0.29088 0.39965 0.0
H2195 H 0.38787 0.3105 0.38105 0.0
C2196 C 0.29498 0.8942 0.59974 0.0
C2197 C 0.28958 0.90046 0.59558 0.0
C2198 C 0.30595 0.89922 0.61438 0.0
C2199 C 0.32581 0.92379 0.67484 0.0
H2200 H 0.34792 0.91642 0.63829 0.0
C2201 C 0.37249 0.9509 0.71193 0.0
C2202 C 0.37852 0.94559 0.72241 0.0
C2203 C 0.36146 0.94471 0.69861 0.0
C2204 C 0.34178 0.91845 0.64915 0.0
H2205 H 0.29169 0.91701 0.60095 0.0
H2206 H 0.31081 0.92579 0.62495 0.0
H2207 H 0.3293 0.90711 0.6081 0.0
H2208 H 0.37764 0.92956 0.72756 0.0
H2209 H 0.35829 0.9187 0.7039 0.0
H2210 H 0.33832 0.93528 0.71524 0.0
C2211 C 0.30652 0.91694 0.61838 0.0
C2212 C 0.33111 0.91313 0.63183 0.0
C2213 C 0.29557 0.91193 0.60419 0.0
C2214 C 0.37319 0.93389 0.71992 0.0
C2215 C 0.36216 0.92769 0.70605 0.0
C2216 C 0.33646 0.92915 0.69188 0.0
C2217 C 0.31176 0.91061 0.62489 0.0
C2218 C 0.32303 0.91586 0.64405 0.0
C2219 C 0.3562 0.93305 0.69502 0.0
C2220 C 0.34462 0.92666 0.67892 0.0
H2221 H 0.29055 0.88533 0.59359 0.0
H2222 H 0.3097 0.89407 0.61906 0.0
H2223 H 0.31973 0.92589 0.68593 0.0
H2224 H 0.37635 0.9599 0.71341 0.0
H2225 H 0.35715 0.94912 0.68999 0.0
C2226 C 0.05508 0.42323 0.70322 0.0
C2227 C 0.06059 0.43466 0.71246 0.0
C2228 C 0.06104 0.41818 0.6897 0.0
C2229 C 0.08675 0.42413 0.63752 0.0
H2230 H 0.07953 0.39496 0.67734 0.0
C2231 C 0.11071 0.4012 0.59011 0.0
C2232 C 0.10451 0.38949 0.58807 0.0
C2233 C 0.10571 0.40726 0.60361 0.0
C2234 C 0.08155 0.40303 0.66537 0.0
H2235 H 0.07675 0.44976 0.71524 0.0
H2236 H 0.08722 0.44091 0.69125 0.0
H2237 H 0.07045 0.40447 0.70649 0.0
H2238 H 0.08805 0.37504 0.59564 0.0
H2239 H 0.07926 0.38556 0.61751 0.0
H2240 H 0.09771 0.42258 0.59582 0.0
C2241 C 0.07825 0.43588 0.69452 0.0
C2242 C 0.07638 0.40851 0.68232 0.0
C2243 C 0.07227 0.44091 0.70858 0.0
C2244 C 0.09308 0.38405 0.59726 0.0
C2245 C 0.08807 0.39009 0.61026 0.0
C2246 C 0.09189 0.41859 0.62028 0.0
C2247 C 0.07268 0.42446 0.68467 0.0
C2248 C 0.07882 0.41906 0.66835 0.0
C2249 C 0.09439 0.40173 0.615 0.0
C2250 C 0.08924 0.4079 0.63365 0.0
H2251 H 0.04609 0.41818 0.70578 0.0
H2252 H 0.05649 0.4094 0.68203 0.0
H2253 H 0.08873 0.43222 0.62587 0.0
H2254 H 0.11956 0.40561 0.58349 0.0
H2255 H 0.11085 0.41622 0.60692 0.0
C2256 C 0.58154 0.63098 0.70846 0.0
C2257 C 0.5701 0.62495 0.71767 0.0
C2258 C 0.58657 0.64211 0.69623 0.0
C2259 C 0.58066 0.66213 0.64658 0.0
H2260 H 0.60931 0.68417 0.6901 0.0
C2261 C 0.60263 0.7091 0.60204 0.0
C2262 C 0.61435 0.71504 0.60111 0.0
C2263 C 0.59684 0.69803 0.61567 0.0
C2264 C 0.6014 0.67811 0.67705 0.0
H2265 H 0.55498 0.62592 0.72161 0.0
H2266 H 0.56379 0.64542 0.69962 0.0
H2267 H 0.59997 0.66526 0.71662 0.0
H2268 H 0.62917 0.71385 0.61161 0.0
H2269 H 0.61915 0.69452 0.63367 0.0
H2270 H 0.5822 0.67488 0.6062 0.0
C2271 C 0.56884 0.64149 0.70206 0.0
C2272 C 0.59601 0.66727 0.69254 0.0
C2273 C 0.56382 0.63037 0.71495 0.0
C2274 C 0.62014 0.70953 0.61233 0.0
C2275 C 0.61437 0.69846 0.62541 0.0
C2276 C 0.58612 0.67297 0.6307 0.0
C2277 C 0.58026 0.64746 0.69235 0.0
C2278 C 0.58562 0.65914 0.67733 0.0
C2279 C 0.60265 0.69262 0.62828 0.0
C2280 C 0.59662 0.68109 0.64549 0.0
H2281 H 0.5866 0.62704 0.71019 0.0
H2282 H 0.59537 0.64645 0.68868 0.0
H2283 H 0.57271 0.656 0.63397 0.0
H2284 H 0.59794 0.71314 0.59382 0.0
H2285 H 0.58783 0.69387 0.61766 0.0
C2286 C 0.37777 0.44419 0.71921 0.0
C2287 C 0.38314 0.43788 0.72245 0.0
C2288 C 0.36691 0.43938 0.70356 0.0
C2289 C 0.34715 0.4155 0.63987 0.0
H2290 H 0.32492 0.42218 0.68065 0.0
C2291 C 0.30029 0.38807 0.60622 0.0
C2292 C 0.29398 0.39324 0.59829 0.0
C2293 C 0.31146 0.39436 0.61788 0.0
C2294 C 0.33109 0.42035 0.66856 0.0
H2295 H 0.38112 0.42145 0.71376 0.0
H2296 H 0.36221 0.41303 0.68781 0.0
H2297 H 0.34361 0.43136 0.71019 0.0
H2298 H 0.2945 0.40913 0.59566 0.0
H2299 H 0.3141 0.42018 0.61647 0.0
H2300 H 0.33458 0.4043 0.59898 0.0
C2301 C 0.36644 0.42177 0.69604 0.0
C2302 C 0.34181 0.42561 0.68552 0.0
C2303 C 0.37726 0.42658 0.71134 0.0
C2304 C 0.29917 0.40492 0.60131 0.0
C2305 C 0.31035 0.41123 0.61356 0.0
C2306 C 0.33645 0.41021 0.62318 0.0
C2307 C 0.36119 0.42816 0.691 0.0
C2308 C 0.34993 0.4231 0.67183 0.0
C2309 C 0.31658 0.40599 0.62238 0.0
C2310 C 0.32824 0.41244 0.63769 0.0
H2311 H 0.3821 0.45294 0.72732 0.0
H2312 H 0.36317 0.44457 0.70001 0.0
H2313 H 0.35326 0.41358 0.62771 0.0
H2314 H 0.29653 0.37908 0.60426 0.0
H2315 H 0.31598 0.39005 0.62479 0.0
C2316 C 0.59817 0.89423 0.61065 0.0
C2317 C 0.60984 0.90068 0.60709 0.0
C2318 C 0.59202 0.89896 0.62599 0.0
C2319 C 0.59617 0.92284 0.68936 0.0
H2320 H 0.56689 0.91572 0.65104 0.0
C2321 C 0.57664 0.95006 0.72341 0.0
C2322 C 0.56519 0.94486 0.73218 0.0
C2323 C 0.58151 0.94376 0.71199 0.0
C2324 C 0.57499 0.91766 0.66245 0.0
H2325 H 0.62411 0.91729 0.61424 0.0
H2326 H 0.61344 0.92557 0.63949 0.0
H2327 H 0.5764 0.90666 0.62048 0.0
H2328 H 0.54989 0.92894 0.73679 0.0
H2329 H 0.55844 0.91786 0.71638 0.0
H2330 H 0.5949 0.93402 0.73056 0.0
C2331 C 0.60902 0.91679 0.6319 0.0
C2332 C 0.58045 0.91248 0.6449 0.0
C2333 C 0.61514 0.91206 0.61698 0.0
C2334 C 0.55876 0.93316 0.73051 0.0
C2335 C 0.56362 0.92684 0.71846 0.0
C2336 C 0.59076 0.92804 0.70664 0.0
C2337 C 0.59743 0.91024 0.63783 0.0
C2338 C 0.59121 0.91517 0.65764 0.0
C2339 C 0.57503 0.9321 0.70857 0.0
C2340 C 0.58019 0.92565 0.69299 0.0
H2341 H 0.59386 0.88542 0.60351 0.0
H2342 H 0.58311 0.89366 0.63015 0.0
H2343 H 0.6043 0.92489 0.70084 0.0
H2344 H 0.58181 0.95907 0.72432 0.0
H2345 H 0.59029 0.94809 0.70427 0.0
C2346 C 0.05461 0.62894 0.72797 0.0
C2347 C 0.06011 0.62293 0.73562 0.0
C2348 C 0.0606 0.64014 0.71641 0.0
C2349 C 0.08633 0.66022 0.6653 0.0
H2350 H 0.0788 0.68188 0.70568 0.0
C2351 C 0.10929 0.7068 0.61436 0.0
C2352 C 0.1028 0.71196 0.61101 0.0
C2353 C 0.10467 0.69597 0.63007 0.0
C2354 C 0.08092 0.67592 0.69365 0.0
H2355 H 0.07628 0.62403 0.73809 0.0
H2356 H 0.0868 0.64367 0.71755 0.0
H2357 H 0.06993 0.66325 0.73467 0.0
H2358 H 0.08623 0.70962 0.61955 0.0
H2359 H 0.07812 0.69074 0.64558 0.0
H2360 H 0.09713 0.67281 0.62355 0.0
C2361 C 0.07782 0.63966 0.72052 0.0
C2362 C 0.07587 0.66524 0.71049 0.0
C2363 C 0.07181 0.62846 0.73263 0.0
C2364 C 0.09149 0.70592 0.62205 0.0
C2365 C 0.08686 0.69511 0.6374 0.0
C2366 C 0.09134 0.6709 0.64821 0.0
C2367 C 0.07225 0.64558 0.71178 0.0
C2368 C 0.0784 0.65722 0.6962 0.0
C2369 C 0.09343 0.69007 0.64255 0.0
C2370 C 0.08857 0.67884 0.66176 0.0
H2371 H 0.0456 0.62491 0.72991 0.0
H2372 H 0.05605 0.64441 0.70959 0.0
H2373 H 0.08837 0.65418 0.65335 0.0
H2374 H 0.11805 0.71126 0.60631 0.0
H2375 H 0.11 0.69239 0.63372 0.0
C2376 C 0.12564 0.36472 0.71782 0.0
C2377 C 0.11777 0.36184 0.68704 0.0
C2378 C 0.12234 0.35934 0.75509 0.0
C2379 C 0.09687 0.34095 0.81538 0.0
H2380 H 0.11581 0.33104 0.8643 0.0
C2381 C 0.08502 0.31671 0.96338 0.0
C2382 C 0.08839 0.30887 0.97014 0.0
C2383 C 0.08852 0.32335 0.92919 0.0
C2384 C 0.11036 0.33361 0.85063 0.0
H2385 H 0.10029 0.35211 0.67135 0.0
H2386 H 0.09456 0.34251 0.7351 0.0
H2387 H 0.12254 0.3434 0.80625 0.0
H2388 H 0.09702 0.30084 0.94534 0.0
H2389 H 0.10304 0.31236 0.88431 0.0
H2390 H 0.08444 0.33071 0.85786 0.0
C2391 C 0.10323 0.34885 0.73141 0.0
C2392 C 0.11432 0.3409 0.81789 0.0
C2393 C 0.10652 0.35422 0.69457 0.0
C2394 C 0.09458 0.30708 0.94085 0.0
C2395 C 0.09808 0.31372 0.90628 0.0
C2396 C 0.09286 0.33356 0.84755 0.0
C2397 C 0.11111 0.35117 0.76194 0.0
C2398 C 0.10754 0.34452 0.79953 0.0
C2399 C 0.09527 0.32211 0.90054 0.0
C2400 C 0.09953 0.32976 0.86553 0.0
H2401 H 0.13434 0.37079 0.71257 0.0
H2402 H 0.12858 0.36145 0.77824 0.0
H2403 H 0.09149 0.34374 0.80256 0.0
H2404 H 0.07997 0.31797 0.98529 0.0
H2405 H 0.08627 0.32977 0.9262 0.0
C2406 C 0.69358 0.79123 0.9515 0.0
C2407 C 0.69055 0.78219 0.97744 0.0
C2408 C 0.68742 0.78981 0.91651 0.0
C2409 C 0.66031 0.77153 0.86865 0.0
H2410 H 0.67681 0.78059 0.7689 0.0
C2411 C 0.63971 0.76578 0.71119 0.0
C2412 C 0.64335 0.76066 0.68347 0.0
C2413 C 0.64524 0.76958 0.748 0.0
C2414 C 0.67209 0.77825 0.79648 0.0
H2415 H 0.67945 0.76449 0.98628 0.0
H2416 H 0.66857 0.76201 0.92549 0.0
H2417 H 0.68691 0.78553 0.83226 0.0
H2418 H 0.65479 0.75455 0.67319 0.0
H2419 H 0.6646 0.76137 0.7368 0.0
H2420 H 0.64548 0.76411 0.83259 0.0
C2421 C 0.67542 0.77024 0.93266 0.0
C2422 C 0.67787 0.78107 0.83276 0.0
C2423 C 0.68163 0.77165 0.96732 0.0
C2424 C 0.65217 0.7589 0.69356 0.0
C2425 C 0.65774 0.76277 0.72991 0.0
C2426 C 0.65451 0.76899 0.8323 0.0
C2427 C 0.67824 0.7793 0.90702 0.0
C2428 C 0.67204 0.77754 0.86914 0.0
C2429 C 0.6544 0.76822 0.75732 0.0
C2430 C 0.66038 0.77214 0.79587 0.0
H2431 H 0.70058 0.79937 0.9586 0.0
H2432 H 0.68979 0.79689 0.89693 0.0
H2433 H 0.65563 0.76856 0.89625 0.0
H2434 H 0.63275 0.76699 0.7041 0.0
H2435 H 0.64248 0.77369 0.76891 0.0
C2436 C 0.21294 0.9106 0.93646 0.0
C2437 C 0.22118 0.91635 0.96551 0.0
C2438 C 0.21583 0.90783 0.89966 0.0
C2439 C 0.24061 0.91407 0.8365 0.0
H2440 H 0.22106 0.88451 0.79369 0.0
C2441 C 0.25005 0.90005 0.68764 0.0
C2442 C 0.24662 0.88878 0.6818 0.0
C2443 C 0.24713 0.90351 0.7224 0.0
C2444 C 0.22669 0.89272 0.80568 0.0
H2445 H 0.23886 0.92474 0.97833 0.0
H2446 H 0.24391 0.91967 0.91548 0.0
H2447 H 0.21518 0.89091 0.85192 0.0
H2448 H 0.23843 0.87236 0.70863 0.0
H2449 H 0.23343 0.87843 0.77073 0.0
H2450 H 0.2524 0.91569 0.7922 0.0
C2451 C 0.23525 0.91726 0.92016 0.0
C2452 C 0.22321 0.8965 0.83851 0.0
C2453 C 0.23236 0.92003 0.95653 0.0
C2454 C 0.24092 0.88107 0.71245 0.0
C2455 C 0.23801 0.88454 0.74766 0.0
C2456 C 0.24416 0.91024 0.80431 0.0
C2457 C 0.22701 0.91093 0.89152 0.0
C2458 C 0.23017 0.9072 0.8545 0.0
C2459 C 0.2409 0.89579 0.75261 0.0
C2460 C 0.23725 0.89954 0.78834 0.0
H2461 H 0.20428 0.90792 0.94277 0.0
H2462 H 0.20932 0.90315 0.87792 0.0
H2463 H 0.24612 0.92244 0.84741 0.0
H2464 H 0.25473 0.90617 0.66462 0.0
H2465 H 0.24939 0.91219 0.72468 0.0
C2466 C 0.30895 0.09568 0.04912 0.0
C2467 C 0.31114 0.0905 0.01712 0.0
C2468 C 0.31557 0.09865 0.08372 0.0
C2469 C 0.33585 0.09309 0.13732 0.0
H2470 H 0.34457 0.12145 0.18839 0.0
C2471 C 0.35615 0.10395 0.2921 0.0
C2472 C 0.36366 0.11507 0.30188 0.0
C2473 C 0.35073 0.10125 0.25522 0.0
C2474 C 0.34238 0.1136 0.17404 0.0
H2475 H 0.32101 0.08329 -0.00301 0.0
H2476 H 0.33276 0.08868 0.05635 0.0
H2477 H 0.3325 0.1158 0.12949 0.0
H2478 H 0.37237 0.13206 0.28011 0.0
H2479 H 0.36292 0.12737 0.21454 0.0
H2480 H 0.34601 0.09103 0.18065 0.0
C2481 C 0.32605 0.09056 0.0553 0.0
C2482 C 0.33527 0.11025 0.14076 0.0
C2483 C 0.31944 0.0876 0.02103 0.0
C2484 C 0.36637 0.12345 0.27321 0.0
C2485 C 0.36093 0.12075 0.23598 0.0
C2486 C 0.34305 0.09649 0.17011 0.0
C2487 C 0.32434 0.09629 0.08682 0.0
C2488 C 0.33184 0.0999 0.12229 0.0
C2489 C 0.35288 0.10963 0.22695 0.0
C2490 C 0.34625 0.10668 0.18935 0.0
H2491 H 0.30237 0.09773 0.04686 0.0
H2492 H 0.31387 0.10282 0.10787 0.0
H2493 H 0.33331 0.08501 0.12415 0.0
H2494 H 0.35419 0.09733 0.31359 0.0
H2495 H 0.3445 0.09263 0.24971 0.0
C2496 C 0.90094 0.25143 0.3017 0.0
C2497 C 0.88978 0.24844 0.30765 0.0
C2498 C 0.90412 0.24812 0.26715 0.0
C2499 C 0.89239 0.22709 0.18609 0.0
H2500 H 0.92206 0.24525 0.14191 0.0
C2501 C 0.90845 0.21125 0.05584 0.0
C2502 C 0.91409 0.21918 0.02574 0.0
C2503 C 0.90618 0.2146 0.09268 0.0
C2504 C 0.91371 0.24008 0.1536 0.0
H2505 H 0.87332 0.24072 0.28114 0.0
H2506 H 0.87889 0.23502 0.21952 0.0
H2507 H 0.91604 0.25242 0.19671 0.0
H2508 H 0.92279 0.23675 0.01097 0.0
H2509 H 0.91861 0.24258 0.07394 0.0
H2510 H 0.8899 0.21499 0.14126 0.0
C2511 C 0.88513 0.23954 0.24232 0.0
C2512 C 0.91029 0.24415 0.18547 0.0
C2513 C 0.88194 0.24286 0.27725 0.0
C2514 C 0.91816 0.23048 0.03364 0.0
C2515 C 0.9159 0.23383 0.07005 0.0
C2516 C 0.89577 0.22307 0.1537 0.0
C2517 C 0.89622 0.24193 0.23736 0.0
C2518 C 0.89959 0.23772 0.20217 0.0
C2519 C 0.90968 0.22592 0.09979 0.0
C2520 C 0.90644 0.22958 0.13678 0.0
H2521 H 0.90716 0.25601 0.32453 0.0
H2522 H 0.9127 0.25002 0.26478 0.0
H2523 H 0.88417 0.22181 0.19871 0.0
H2524 H 0.90545 0.20249 0.05035 0.0
H2525 H 0.90155 0.20833 0.11525 0.0
C2526 C 0.75882 0.63762 0.27672 0.0
C2527 C 0.75371 0.64028 0.3077 0.0
C2528 C 0.76196 0.64392 0.2413 0.0
C2529 C 0.77433 0.66332 0.1835 0.0
H2530 H 0.75609 0.67478 0.13984 0.0
C2531 C 0.78974 0.69546 0.0537 0.0
C2532 C 0.78179 0.6931 0.02362 0.0
C2533 C 0.78649 0.68963 0.09016 0.0
C2534 C 0.76127 0.67161 0.15144 0.0
H2535 H 0.74676 0.65059 0.32521 0.0
H2536 H 0.75243 0.66173 0.26441 0.0
H2537 H 0.74921 0.66196 0.19597 0.0
H2538 H 0.76424 0.68379 0.00852 0.0
H2539 H 0.75858 0.67348 0.07104 0.0
H2540 H 0.78618 0.67262 0.13745 0.0
C2541 C 0.75412 0.65492 0.26683 0.0
C2542 C 0.75737 0.66434 0.18399 0.0
C2543 C 0.75099 0.64865 0.30193 0.0
C2544 C 0.77053 0.6855 0.03114 0.0
C2545 C 0.76728 0.67972 0.06723 0.0
C2546 C 0.7782 0.67053 0.15052 0.0
C2547 C 0.75984 0.6528 0.23639 0.0
C2548 C 0.76385 0.66011 0.20049 0.0
C2549 C 0.77522 0.68156 0.09696 0.0
C2550 C 0.77166 0.67468 0.13396 0.0
H2551 H 0.76072 0.63098 0.28048 0.0
H2552 H 0.76613 0.64191 0.21803 0.0
H2553 H 0.77961 0.66036 0.19588 0.0
H2554 H 0.79846 0.70148 0.04851 0.0
H2555 H 0.79277 0.69136 0.11278 0.0
C2556 C 0.90815 0.69411 0.04679 0.0
C2557 C 0.9141 0.69224 0.01676 0.0
C2558 C 0.90501 0.68761 0.08175 0.0
C2559 C 0.91079 0.66802 0.13962 0.0
H2560 H 0.88108 0.65757 0.18188 0.0
C2561 C 0.87826 0.63562 0.26732 0.0
C2562 C 0.88611 0.63837 0.29811 0.0
C2563 C 0.88154 0.64134 0.23065 0.0
C2564 C 0.88932 0.66026 0.16999 0.0
H2565 H 0.92248 0.68316 0.00057 0.0
H2566 H 0.91683 0.67166 0.06042 0.0
H2567 H 0.88758 0.67021 0.12459 0.0
H2568 H 0.90354 0.64824 0.31431 0.0
H2569 H 0.90923 0.65838 0.25155 0.0
H2570 H 0.91242 0.65778 0.18367 0.0
C2571 C 0.91449 0.67801 0.05771 0.0
C2572 C 0.89314 0.6677 0.1377 0.0
C2573 C 0.91762 0.68449 0.02311 0.0
C2574 C 0.89733 0.64621 0.29109 0.0
C2575 C 0.90059 0.6519 0.25483 0.0
C2576 C 0.90693 0.66051 0.17144 0.0
C2577 C 0.90795 0.67931 0.08711 0.0
C2578 C 0.90395 0.67172 0.1223 0.0
C2579 C 0.89273 0.64972 0.22439 0.0
C2580 C 0.89623 0.65667 0.18753 0.0
H2581 H 0.90559 0.70026 0.04259 0.0
H2582 H 0.90019 0.689 0.10426 0.0
H2583 H 0.9192 0.67101 0.12888 0.0
H2584 H 0.86959 0.6294 0.27215 0.0
H2585 H 0.87532 0.63931 0.20752 0.0
C2586 C 0.31832 0.23468 0.02876 0.0
C2587 C 0.31022 0.22347 0.02326 0.0
C2588 C 0.32506 0.23799 0.06269 0.0
C2589 C 0.33517 0.22669 0.14255 0.0
H2590 H 0.34588 0.25607 0.18818 0.0
C2591 C 0.36641 0.24277 0.27484 0.0
C2592 C 0.36359 0.2479 0.30525 0.0
C2593 C 0.36109 0.24067 0.23744 0.0
C2594 C 0.34294 0.24781 0.176 0.0
H2595 H 0.30191 0.20704 0.04998 0.0
H2596 H 0.31363 0.21283 0.11052 0.0
H2597 H 0.33274 0.24992 0.13311 0.0
H2598 H 0.35404 0.25589 0.32013 0.0
H2599 H 0.34456 0.25201 0.2561 0.0
H2600 H 0.34495 0.22438 0.18719 0.0
C2601 C 0.31508 0.21901 0.0878 0.0
C2602 C 0.33548 0.24432 0.14401 0.0
C2603 C 0.30832 0.21569 0.05351 0.0
C2604 C 0.35611 0.25166 0.29719 0.0
C2605 C 0.35081 0.24958 0.26021 0.0
C2606 C 0.34256 0.23014 0.17502 0.0
C2607 C 0.3237 0.23017 0.09229 0.0
C2608 C 0.33145 0.2337 0.127 0.0
C2609 C 0.35303 0.24385 0.2301 0.0
C2610 C 0.34638 0.24067 0.19254 0.0
H2611 H 0.31968 0.24085 0.00606 0.0
H2612 H 0.33165 0.24661 0.06477 0.0
H2613 H 0.33241 0.21854 0.12961 0.0
H2614 H 0.37237 0.24002 0.28049 0.0
H2615 H 0.36313 0.23641 0.21462 0.0
C2616 C 0.77062 0.08769 0.03053 0.0
C2617 C 0.78132 0.08996 0.01939 0.0
C2618 C 0.76903 0.09195 0.06623 0.0
C2619 C 0.78054 0.10114 0.16613 0.0
H2620 H 0.76213 0.11499 0.16701 0.0
C2621 C 0.75947 0.10613 0.30743 0.0
C2622 C 0.7609 0.11675 0.31455 0.0
C2623 C 0.76318 0.10388 0.27164 0.0
C2624 C 0.76739 0.11125 0.1671 0.0
H2625 H 0.79862 0.09769 0.03743 0.0
H2626 H 0.79586 0.10518 0.10062 0.0
H2627 H 0.76611 0.10888 0.10357 0.0
H2628 H 0.76649 0.1331 0.28931 0.0
H2629 H 0.77282 0.12909 0.22569 0.0
H2630 H 0.78109 0.10277 0.23009 0.0
C2631 C 0.78875 0.1003 0.08127 0.0
C2632 C 0.76966 0.10775 0.13083 0.0
C2633 C 0.79035 0.09607 0.0453 0.0
C2634 C 0.76556 0.12494 0.28459 0.0
C2635 C 0.76916 0.12265 0.24844 0.0
C2636 C 0.77802 0.10438 0.20252 0.0
C2637 C 0.77808 0.09835 0.09184 0.0
C2638 C 0.77624 0.10265 0.12999 0.0
C2639 C 0.76805 0.11211 0.24187 0.0
C2640 C 0.77141 0.10944 0.20329 0.0
H2641 H 0.76348 0.08261 0.01158 0.0
H2642 H 0.76068 0.09011 0.07407 0.0
H2643 H 0.7855 0.09707 0.1664 0.0
H2644 H 0.75544 0.09955 0.32953 0.0
H2645 H 0.76201 0.09562 0.26687 0.0
C2646 C 0.64851 0.89968 0.70225 0.0
C2647 C 0.64082 0.88852 0.69361 0.0
C2648 C 0.65442 0.90254 0.73815 0.0
C2649 C 0.66301 0.90766 0.82229 0.0
H2650 H 0.67324 0.88809 0.86293 0.0
C2651 C 0.68544 0.91554 0.97331 0.0
C2652 C 0.69354 0.91242 0.97828 0.0
C2653 C 0.67928 0.91298 0.93801 0.0
C2654 C 0.67058 0.89372 0.8516 0.0
H2655 H 0.63233 0.87165 0.71656 0.0
H2656 H 0.64263 0.87663 0.78039 0.0
H2657 H 0.66114 0.88253 0.80413 0.0
H2658 H 0.70248 0.90522 0.94951 0.0
H2659 H 0.69175 0.9008 0.88673 0.0
H2660 H 0.67284 0.91908 0.86828 0.0
C2661 C 0.6444 0.88314 0.75875 0.0
C2662 C 0.66346 0.89043 0.81839 0.0
C2663 C 0.63846 0.88029 0.72253 0.0
C2664 C 0.69604 0.90744 0.94638 0.0
C2665 C 0.68985 0.90486 0.91076 0.0
C2666 C 0.67023 0.911 0.85503 0.0
C2667 C 0.65261 0.89429 0.76658 0.0
C2668 C 0.65961 0.89739 0.8033 0.0
C2669 C 0.68125 0.90742 0.90654 0.0
C2670 C 0.67407 0.90406 0.87024 0.0
H2671 H 0.65019 0.90619 0.68061 0.0
H2672 H 0.66074 0.91118 0.74276 0.0
H2673 H 0.6601 0.91317 0.81188 0.0
H2674 H 0.68364 0.9197 -0.0027 0.0
H2675 H 0.67267 0.91499 0.93615 0.0
C2676 C 0.10449 0.75601 0.69318 0.0
C2677 C 0.11523 0.75813 0.68337 0.0
C2678 C 0.10265 0.76014 0.72875 0.0
C2679 C 0.11256 0.76746 0.83045 0.0
H2680 H 0.09611 0.78337 0.83099 0.0
C2681 C 0.0903 0.77192 0.96941 0.0
C2682 C 0.09244 0.7827 0.97848 0.0
C2683 C 0.09425 0.76987 0.93379 0.0
C2684 C 0.10081 0.77904 0.83121 0.0
H2685 H 0.13231 0.76546 0.70372 0.0
H2686 H 0.12906 0.77261 0.76688 0.0
H2687 H 0.10068 0.7779 0.76716 0.0
H2688 H 0.09961 0.79964 0.9568 0.0
H2689 H 0.10641 0.79602 0.89351 0.0
H2690 H 0.11193 0.76783 0.89456 0.0
C2691 C 0.12216 0.76802 0.7464 0.0
C2692 C 0.10341 0.77591 0.79475 0.0
C2693 C 0.12402 0.76397 0.71048 0.0
C2694 C 0.09811 0.79132 0.95061 0.0
C2695 C 0.10197 0.78925 0.91462 0.0
C2696 C 0.10968 0.77031 0.86693 0.0
C2697 C 0.11146 0.76619 0.75566 0.0
C2698 C 0.10931 0.7701 0.79406 0.0
C2699 C 0.10011 0.77851 0.90609 0.0
C2700 C 0.10379 0.77612 0.86761 0.0
H2701 H 0.09751 0.75109 0.67338 0.0
H2702 H 0.09428 0.75842 0.73563 0.0
H2703 H 0.11697 0.76283 0.83069 0.0
H2704 H 0.0855 0.76506 0.98983 0.0
H2705 H 0.09252 0.76147 0.92748 0.0
C2706 C 0.21281 0.30512 0.93704 0.0
C2707 C 0.22053 0.30767 0.96815 0.0
C2708 C 0.21633 0.31082 0.90039 0.0
C2709 C 0.24214 0.32946 0.84216 0.0
H2710 H 0.22352 0.33973 0.79301 0.0
C2711 C 0.24465 0.36316 0.7152 0.0
C2712 C 0.25069 0.36112 0.68602 0.0
C2713 C 0.24126 0.35675 0.75036 0.0
C2714 C 0.22889 0.33707 0.80677 0.0
H2715 H 0.23794 0.31715 0.98502 0.0
H2716 H 0.24403 0.32729 0.92239 0.0
H2717 H 0.21653 0.32721 0.85054 0.0
H2718 H 0.25901 0.35186 0.67164 0.0
H2719 H 0.2529 0.34049 0.73177 0.0
H2720 H 0.25472 0.33973 0.80016 0.0
C2721 C 0.23533 0.32097 0.92534 0.0
C2722 C 0.22478 0.32969 0.83922 0.0
C2723 C 0.23183 0.31529 0.96154 0.0
C2724 C 0.25407 0.35331 0.69349 0.0
C2725 C 0.25069 0.34691 0.72827 0.0
C2726 C 0.24629 0.33693 0.81026 0.0
C2727 C 0.22762 0.31898 0.89451 0.0
C2728 C 0.23142 0.32589 0.85755 0.0
C2729 C 0.24403 0.34837 0.75678 0.0
C2730 C 0.23973 0.34083 0.79209 0.0
H2731 H 0.20408 0.29907 0.94156 0.0
H2732 H 0.21022 0.30895 0.87696 0.0
H2733 H 0.24742 0.32655 0.85498 0.0
H2734 H 0.24221 0.36937 0.71014 0.0
H2735 H 0.23637 0.35827 0.77217 0.0
C2736 C 0.03091 0.45717 0.61154 0.0
C2737 C 0.02775 0.44831 0.63847 0.0
C2738 C 0.02503 0.4555 0.57566 0.0
C2739 C 0.99822 0.43716 0.52713 0.0
H2740 H 0.01485 0.44594 0.42737 0.0
C2741 C 0.97749 0.43229 0.37161 0.0
C2742 C 0.98041 0.42665 0.34348 0.0
C2743 C 0.98345 0.43609 0.40755 0.0
C2744 C 0.01012 0.44362 0.45501 0.0
H2745 H 0.0167 0.43064 0.64823 0.0
H2746 H 0.00622 0.42775 0.58599 0.0
H2747 H 0.02488 0.45067 0.49126 0.0
H2748 H 0.9911 0.41973 0.33162 0.0
H2749 H 1.00176 0.42665 0.3939 0.0
H2750 H 0.98345 0.43006 0.49086 0.0
C2751 C 0.013 0.43603 0.59298 0.0
C2752 C 0.01584 0.44633 0.49151 0.0
C2753 C 0.01895 0.43769 0.62854 0.0
C2754 C 0.98906 0.4245 0.35223 0.0
C2755 C 0.9951 0.4284 0.38782 0.0
C2756 C 0.99249 0.43472 0.49067 0.0
C2757 C 0.01599 0.44492 0.56624 0.0
C2758 C 0.00994 0.44297 0.52786 0.0
C2759 C 0.99234 0.43422 0.41578 0.0
C2760 C 0.9984 0.43778 0.4543 0.0
H2761 H 0.03786 0.46538 0.61842 0.0
H2762 H 0.02751 0.46247 0.55535 0.0
H2763 H 0.99348 0.43435 0.55467 0.0
H2764 H 0.97065 0.43378 0.36566 0.0
H2765 H 0.98114 0.44049 0.42888 0.0
C2766 C 0.57733 0.56194 0.35242 0.0
C2767 C 0.57589 0.55131 0.34568 0.0
C2768 C 0.57362 0.56428 0.38805 0.0
C2769 C 0.56941 0.55707 0.49279 0.0
H2770 H 0.55158 0.57154 0.49306 0.0
C2771 C 0.56642 0.58074 0.62938 0.0
C2772 C 0.55577 0.57864 0.64037 0.0
C2773 C 0.56797 0.57647 0.59361 0.0
C2774 C 0.55646 0.56739 0.49346 0.0
H2775 H 0.57029 0.535 0.37141 0.0
H2776 H 0.56395 0.53916 0.43474 0.0
H2777 H 0.55587 0.56568 0.42951 0.0
H2778 H 0.53852 0.5712 0.62198 0.0
H2779 H 0.54121 0.56369 0.55869 0.0
H2780 H 0.57073 0.55952 0.55625 0.0
C2781 C 0.56762 0.54555 0.41182 0.0
C2782 C 0.55892 0.56406 0.45713 0.0
C2783 C 0.57122 0.54318 0.37583 0.0
C2784 C 0.54676 0.5727 0.61422 0.0
C2785 C 0.54831 0.56846 0.57818 0.0
C2786 C 0.5672 0.56066 0.52895 0.0
C2787 C 0.56874 0.55611 0.41804 0.0
C2788 C 0.56543 0.55889 0.45652 0.0
C2789 C 0.55893 0.57023 0.56778 0.0
C2790 C 0.56072 0.56587 0.52967 0.0
H2791 H 0.58137 0.56847 0.33016 0.0
H2792 H 0.57481 0.57255 0.39254 0.0
H2793 H 0.5746 0.55326 0.49301 0.0
H2794 H 0.57355 0.58568 0.64854 0.0
H2795 H 0.57629 0.57819 0.58592 0.0
C2796 C 0.43139 0.97528 0.62358 0.0
C2797 C 0.42537 0.97849 0.64872 0.0
C2798 C 0.43591 0.98098 0.58759 0.0
C2799 C 0.44445 0.0075 0.53632 0.0
H2800 H 0.43835 0.9905 0.43786 0.0
C2801 C 0.46124 0.0277 0.38046 0.0
C2802 C 0.45266 0.02469 0.35237 0.0
C2803 C 0.45912 0.02181 0.41659 0.0
C2804 C 0.44029 0.99533 0.46521 0.0
H2805 H 0.41847 0.98939 0.65507 0.0
H2806 H 0.42654 0.99954 0.59257 0.0
H2807 H 0.4325 0.98072 0.5022 0.0
H2808 H 0.43502 0.01392 0.34079 0.0
H2809 H 0.43137 0.00336 0.4032 0.0
H2810 H 0.45216 0.02211 0.49926 0.0
C2811 C 0.42807 0.99287 0.60109 0.0
C2812 C 0.43695 0.98975 0.50196 0.0
C2813 C 0.4235 0.98712 0.63679 0.0
C2814 C 0.44187 0.01602 0.3613 0.0
C2815 C 0.43978 0.01003 0.39697 0.0
C2816 C 0.44806 0.01308 0.4997 0.0
C2817 C 0.43434 0.98988 0.5762 0.0
C2818 C 0.43883 0.99579 0.53778 0.0
C2819 C 0.44837 0.0129 0.42494 0.0
C2820 C 0.44582 0.00703 0.46382 0.0
H2821 H 0.4327 0.96846 0.63201 0.0
H2822 H 0.44067 0.97849 0.56877 0.0
H2823 H 0.44588 0.01234 0.56336 0.0
H2824 H 0.46956 0.03456 0.37441 0.0
H2825 H 0.46583 0.02422 0.43804 0.0
C2826 C 0.56398 0.98113 0.62743 0.0
C2827 C 0.5527 0.97386 0.63567 0.0
C2828 C 0.56724 0.98659 0.59076 0.0
C2829 C 0.55631 0.99543 0.50606 0.0
H2830 H 0.58573 0.00455 0.46369 0.0
C2831 C 0.5851 0.01862 0.35849 0.0
C2832 C 0.58204 0.02671 0.35196 0.0
C2833 C 0.58163 0.01209 0.39294 0.0
C2834 C 0.57743 0.002 0.47467 0.0
H2835 H 0.53596 0.96563 0.61146 0.0
H2836 H 0.54165 0.97511 0.54603 0.0
H2837 H 0.57858 0.99154 0.51897 0.0
H2838 H 0.57402 0.03527 0.3774 0.0
H2839 H 0.56807 0.02395 0.43891 0.0
H2840 H 0.55499 0.00552 0.46016 0.0
C2841 C 0.54797 0.97689 0.56855 0.0
C2842 C 0.57338 0.99463 0.50687 0.0
C2843 C 0.5447 0.97142 0.60568 0.0
C2844 C 0.57621 0.02885 0.38172 0.0
C2845 C 0.57275 0.02232 0.41657 0.0
C2846 C 0.5603 0.00269 0.47323 0.0
C2847 C 0.55928 0.98472 0.56104 0.0
C2848 C 0.56287 0.99143 0.52358 0.0
C2849 C 0.57522 0.01369 0.42211 0.0
C2850 C 0.57097 0.00615 0.45741 0.0
H2851 H 0.5703 0.98289 0.65001 0.0
H2852 H 0.57598 0.99266 0.58661 0.0
H2853 H 0.54822 0.99323 0.51836 0.0
H2854 H 0.58988 0.01708 0.3362 0.0
H2855 H 0.58361 0.00548 0.39572 0.0
C2856 C 0.9843 0.56687 0.36767 0.0
C2857 C 0.97669 0.55568 0.35924 0.0
C2858 C 0.9902 0.56983 0.4036 0.0
C2859 C 0.9994 0.55805 0.48438 0.0
H2860 H 0.00845 0.58672 0.53349 0.0
C2861 C 0.03197 0.57564 0.61234 0.0
C2862 C 0.02938 0.58061 0.64401 0.0
C2863 C 0.02578 0.57292 0.5767 0.0
C2864 C 0.00594 0.57864 0.52047 0.0
H2865 H 0.96834 0.53884 0.38252 0.0
H2866 H 0.97862 0.544 0.44641 0.0
H2867 H 0.99571 0.58057 0.4771 0.0
H2868 H 0.0193 0.58773 0.66262 0.0
H2869 H 0.00833 0.58278 0.60144 0.0
H2870 H 0.00929 0.55594 0.52915 0.0
C2871 C 0.98033 0.55047 0.42461 0.0
C2872 C 0.99872 0.57516 0.48773 0.0
C2873 C 0.9744 0.54751 0.38835 0.0
C2874 C 0.02118 0.58358 0.6388 0.0
C2875 C 0.01501 0.58089 0.60348 0.0
C2876 C 0.00654 0.56147 0.51759 0.0
C2877 C 0.98845 0.56166 0.43224 0.0
C2878 C 0.99544 0.56488 0.46901 0.0
C2879 C 0.01708 0.57533 0.57225 0.0
C2880 C 0.0099 0.57183 0.53595 0.0
H2881 H 0.98594 0.57333 0.34586 0.0
H2882 H 0.99646 0.5785 0.40807 0.0
H2883 H 0.99718 0.55015 0.47033 0.0
H2884 H 0.03848 0.57353 0.61567 0.0
H2885 H 0.02774 0.56887 0.55285 0.0
C2886 C 0.4401 0.42336 0.36484 0.0
C2887 C 0.45061 0.42484 0.35514 0.0
C2888 C 0.43857 0.42775 0.40038 0.0
C2889 C 0.44878 0.43484 0.50213 0.0
H2890 H 0.43314 0.45155 0.50288 0.0
C2891 C 0.42705 0.43986 0.6413 0.0
C2892 C 0.42928 0.45067 0.65042 0.0
C2893 C 0.43095 0.43777 0.60566 0.0
C2894 C 0.43763 0.44701 0.50305 0.0
H2895 H 0.46758 0.43129 0.37561 0.0
H2896 H 0.46488 0.4389 0.43863 0.0
H2897 H 0.4374 0.44583 0.43899 0.0
H2898 H 0.43657 0.46763 0.62879 0.0
H2899 H 0.44332 0.46394 0.56548 0.0
H2900 H 0.44828 0.4353 0.56626 0.0
C2901 C 0.45792 0.43461 0.41816 0.0
C2902 C 0.44005 0.44372 0.46655 0.0
C2903 C 0.45947 0.4303 0.38229 0.0
C2904 C 0.43501 0.45929 0.62257 0.0
C2905 C 0.43883 0.45717 0.58656 0.0
C2906 C 0.44611 0.43787 0.53865 0.0
C2907 C 0.44747 0.43342 0.42735 0.0
C2908 C 0.44561 0.43758 0.46577 0.0
C2909 C 0.43688 0.4464 0.57797 0.0
C2910 C 0.44048 0.44395 0.53943 0.0
H2911 H 0.43305 0.41875 0.34499 0.0
H2912 H 0.43037 0.4265 0.40718 0.0
H2913 H 0.45294 0.42997 0.50236 0.0
H2914 H 0.42221 0.43301 0.66169 0.0
H2915 H 0.42913 0.42935 0.59932 0.0
C2916 C 0.07417 0.30417 0.20765 0.0
C2917 C 0.07891 0.31205 0.17662 0.0
C2918 C 0.07387 0.30767 0.24693 0.0
C2919 C 0.07884 0.33241 0.30842 0.0
H2920 H 0.09186 0.32081 0.38365 0.0
C2921 C 0.10384 0.35613 0.45073 0.0
C2922 C 0.1029 0.34967 0.48462 0.0
C2923 C 0.09839 0.35093 0.41483 0.0
C2924 C 0.08804 0.32403 0.36335 0.0
H2925 H 0.08606 0.32958 0.16161 0.0
H2926 H 0.08559 0.33561 0.22932 0.0
H2927 H 0.08576 0.31209 0.31833 0.0
H2928 H 0.09483 0.33275 0.50822 0.0
H2929 H 0.08528 0.32387 0.4466 0.0
H2930 H 0.08158 0.34466 0.35327 0.0
C2931 C 0.0821 0.32677 0.22384 0.0
C2932 C 0.08447 0.31897 0.32588 0.0
C2933 C 0.08247 0.3233 0.18493 0.0
C2934 C 0.09593 0.33801 0.48254 0.0
C2935 C 0.09045 0.33288 0.4471 0.0
C2936 C 0.08244 0.3375 0.346 0.0
C2937 C 0.07819 0.31907 0.25559 0.0
C2938 C 0.08005 0.32324 0.29761 0.0
C2939 C 0.09187 0.33921 0.41247 0.0
C2940 C 0.08725 0.33347 0.37361 0.0
H2941 H 0.07133 0.29545 0.20209 0.0
H2942 H 0.07067 0.30152 0.27077 0.0
H2943 H 0.07536 0.33583 0.28742 0.0
H2944 H 0.10911 0.36512 0.45145 0.0
H2945 H 0.09968 0.35604 0.38853 0.0
C2946 C 0.6448 0.74465 0.45011 0.0
C2947 C 0.65139 0.74956 0.48432 0.0
C2948 C 0.64974 0.74379 0.41446 0.0
C2949 C 0.67705 0.75874 0.36539 0.0
H2950 H 0.66366 0.73555 0.2847 0.0
C2951 C 0.69616 0.76645 0.20826 0.0
C2952 C 0.6882 0.76433 0.17829 0.0
C2953 C 0.6927 0.7619 0.24677 0.0
C2954 C 0.66753 0.74208 0.30705 0.0
H2955 H 0.66807 0.75643 0.50908 0.0
H2956 H 0.67648 0.75461 0.44806 0.0
H2957 H 0.65487 0.73262 0.35081 0.0
H2958 H 0.67054 0.75494 0.16392 0.0
H2959 H 0.66459 0.74719 0.2302 0.0
H2960 H 0.68934 0.76846 0.3215 0.0
C2961 C 0.66763 0.75177 0.44804 0.0
C2962 C 0.66247 0.7404 0.34478 0.0
C2963 C 0.66277 0.75276 0.48315 0.0
C2964 C 0.67688 0.75685 0.18647 0.0
C2965 C 0.67346 0.75228 0.22456 0.0
C2966 C 0.68205 0.76044 0.32776 0.0
C2967 C 0.6613 0.74772 0.41283 0.0
C2968 C 0.66706 0.74882 0.37405 0.0
C2969 C 0.68125 0.75509 0.25566 0.0
C2970 C 0.6772 0.75226 0.29773 0.0
H2971 H 0.63602 0.74211 0.4502 0.0
H2972 H 0.64465 0.74065 0.38768 0.0
H2973 H 0.68072 0.76548 0.38704 0.0
H2974 H 0.70494 0.77215 0.20273 0.0
H2975 H 0.69893 0.7641 0.27003 0.0
C2976 C 0.23439 0.92627 0.20338 0.0
C2977 C 0.23721 0.92259 0.16837 0.0
C2978 C 0.23927 0.92621 0.24024 0.0
C2979 C 0.25115 0.91062 0.28791 0.0
H2980 H 0.25769 0.93121 0.37624 0.0
C2981 C 0.26042 0.9004 0.44601 0.0
C2982 C 0.25402 0.90165 0.47611 0.0
C2983 C 0.26143 0.90522 0.40804 0.0
C2984 C 0.25592 0.92539 0.35179 0.0
H2985 H 0.24811 0.91699 0.14381 0.0
H2986 H 0.25674 0.91717 0.20733 0.0
H2987 H 0.25346 0.93575 0.30992 0.0
H2988 H 0.24432 0.9096 0.49071 0.0
H2989 H 0.24594 0.91773 0.42528 0.0
H2990 H 0.25307 0.90003 0.32983 0.0
C2991 C 0.25053 0.91975 0.20681 0.0
C2992 C 0.25348 0.92799 0.31389 0.0
C2993 C 0.2456 0.9197 0.17034 0.0
C2994 C 0.24921 0.90832 0.46817 0.0
C2995 C 0.25026 0.91314 0.43062 0.0
C2996 C 0.25353 0.90801 0.32574 0.0
C2997 C 0.24711 0.92256 0.24243 0.0
C2998 C 0.25084 0.92052 0.28175 0.0
C2999 C 0.25615 0.91145 0.39976 0.0
C3000 C 0.25566 0.91522 0.35838 0.0
H3001 H 0.22794 0.92853 0.20271 0.0
H3002 H 0.23644 0.9284 0.26726 0.0
H3003 H 0.24899 0.9046 0.26394 0.0
H3004 H 0.26428 0.89537 0.45126 0.0
H3005 H 0.26613 0.90386 0.38491 0.0
C3006 C 0.34246 0.09255 0.51245 0.0
C3007 C 0.35404 0.09899 0.50608 0.0
C3008 C 0.3382 0.08809 0.55011 0.0
C3009 C 0.34594 0.09481 0.65525 0.0
H3010 H 0.3164 0.06924 0.67199 0.0
C3011 C 0.31891 0.0947 0.78264 0.0
C3012 C 0.31305 0.0851 0.80635 0.0
C3013 C 0.32389 0.09431 0.74685 0.0
C3014 C 0.32472 0.07631 0.66801 0.0
H3015 H 0.37025 0.10503 0.53364 0.0
H3016 H 0.36276 0.09713 0.59993 0.0
H3017 H 0.32604 0.07136 0.60822 0.0
H3018 H 0.30725 0.06743 0.81045 0.0
H3019 H 0.31603 0.06672 0.74701 0.0
H3020 H 0.34461 0.09983 0.71469 0.0
C3021 C 0.35699 0.09571 0.57566 0.0
C3022 C 0.33022 0.07758 0.6314 0.0
C3023 C 0.36129 0.10019 0.53768 0.0
C3024 C 0.31166 0.07491 0.7924 0.0
C3025 C 0.31674 0.07453 0.75636 0.0
C3026 C 0.34048 0.09351 0.69177 0.0
C3027 C 0.34538 0.08991 0.5826 0.0
C3028 C 0.3407 0.08711 0.62399 0.0
C3029 C 0.32324 0.08435 0.73402 0.0
C3030 C 0.32962 0.08452 0.6979 0.0
H3031 H 0.3366 0.09129 0.48866 0.0
H3032 H 0.32923 0.0838 0.55419 0.0
H3033 H 0.35395 0.10227 0.65075 0.0
H3034 H 0.32002 0.10264 0.7926 0.0
H3035 H 0.3285 0.10194 0.72968 0.0
C3036 C 0.92316 0.23206 0.78801 0.0
C3037 C 0.91902 0.23445 0.82284 0.0
C3038 C 0.92331 0.23719 0.75145 0.0
C3039 C 0.90798 0.24927 0.70282 0.0
H3040 H 0.92994 0.25742 0.61822 0.0
C3041 C 0.89997 0.26101 0.54542 0.0
C3042 C 0.90166 0.25507 0.51464 0.0
C3043 C 0.9043 0.26148 0.58396 0.0
C3044 C 0.92374 0.2552 0.64163 0.0
H3045 H 0.91276 0.24481 0.8474 0.0
H3046 H 0.91331 0.25384 0.78452 0.0
H3047 H 0.93356 0.25222 0.68439 0.0
H3048 H 0.90991 0.2457 0.49944 0.0
H3049 H 0.91724 0.24644 0.56579 0.0
H3050 H 0.89795 0.25175 0.65995 0.0
C3051 C 0.91609 0.24778 0.78488 0.0
C3052 C 0.92581 0.25219 0.67942 0.0
C3053 C 0.91582 0.24262 0.82102 0.0
C3054 C 0.90832 0.25025 0.5225 0.0
C3055 C 0.91267 0.25078 0.56061 0.0
C3056 C 0.9059 0.25223 0.6651 0.0
C3057 C 0.91944 0.24484 0.74939 0.0
C3058 C 0.91786 0.249 0.7102 0.0
C3059 C 0.91048 0.25614 0.59211 0.0
C3060 C 0.91363 0.25497 0.63376 0.0
H3061 H 0.92568 0.22581 0.78854 0.0
H3062 H 0.92592 0.23473 0.72452 0.0
H3063 H 0.90159 0.24669 0.72568 0.0
H3064 H 0.89493 0.26485 0.54024 0.0
H3065 H 0.90257 0.26578 0.6076 0.0
C3066 C 0.76657 0.69198 0.79043 0.0
C3067 C 0.76671 0.68471 0.81961 0.0
C3068 C 0.76144 0.68783 0.75313 0.0
C3069 C 0.74352 0.66113 0.69676 0.0
H3070 H 0.76304 0.67742 0.60813 0.0
C3071 C 0.73928 0.64295 0.53434 0.0
C3072 C 0.74957 0.64529 0.5178 0.0
C3073 C 0.73899 0.64806 0.57045 0.0
C3074 C 0.75746 0.67278 0.63254 0.0
H3075 H 0.76081 0.66728 0.83341 0.0
H3076 H 0.75227 0.66022 0.76901 0.0
H3077 H 0.76631 0.68622 0.67357 0.0
H3078 H 0.76748 0.65408 0.52715 0.0
H3079 H 0.76695 0.66265 0.58988 0.0
H3080 H 0.73524 0.64735 0.65603 0.0
C3081 C 0.75595 0.66908 0.77458 0.0
C3082 C 0.75923 0.6779 0.67001 0.0
C3083 C 0.76105 0.67319 0.81154 0.0
C3084 C 0.75944 0.65226 0.53889 0.0
C3085 C 0.75914 0.65727 0.57464 0.0
C3086 C 0.74181 0.65596 0.65924 0.0
C3087 C 0.7563 0.67634 0.74446 0.0
C3088 C 0.75262 0.67196 0.70308 0.0
C3089 C 0.74898 0.65553 0.59026 0.0
C3090 C 0.74911 0.66157 0.62731 0.0
H3091 H 0.77075 0.70089 0.79584 0.0
H3092 H 0.76175 0.69365 0.73071 0.0
H3093 H 0.73809 0.6564 0.7214 0.0
H3094 H 0.73157 0.63764 0.51849 0.0
H3095 H 0.73102 0.64648 0.58206 0.0
C3096 C 0.89858 0.64274 0.536 0.0
C3097 C 0.90015 0.64926 0.50164 0.0
C3098 C 0.90366 0.64788 0.57246 0.0
C3099 C 0.91402 0.67496 0.62264 0.0
H3100 H 0.92497 0.6627 0.70357 0.0
C3101 C 0.92675 0.69524 0.77859 0.0
C3102 C 0.92159 0.68753 0.8099 0.0
C3103 C 0.92714 0.69148 0.7398 0.0
C3104 C 0.92197 0.66625 0.68117 0.0
H3105 H 0.909 0.66614 0.47782 0.0
H3106 H 0.91796 0.67489 0.54036 0.0
H3107 H 0.91946 0.65378 0.6376 0.0
H3108 H 0.91363 0.66998 0.82584 0.0
H3109 H 0.91423 0.66354 0.75901 0.0
H3110 H 0.91609 0.68715 0.66631 0.0
C3111 C 0.91256 0.66592 0.5398 0.0
C3112 C 0.91877 0.6611 0.64351 0.0
C3113 C 0.90743 0.66085 0.50382 0.0
C3114 C 0.91755 0.67615 0.80233 0.0
C3115 C 0.91801 0.67243 0.76394 0.0
C3116 C 0.91718 0.68007 0.66018 0.0
C3117 C 0.91045 0.65957 0.57487 0.0
C3118 C 0.9146 0.66531 0.61405 0.0
C3119 C 0.92247 0.67999 0.73191 0.0
C3120 C 0.92098 0.67566 0.6902 0.0
H3121 H 0.89303 0.63379 0.5352 0.0
H3122 H 0.90185 0.64275 0.59908 0.0
H3123 H 0.91068 0.67833 0.60088 0.0
H3124 H 0.92997 0.70406 0.78356 0.0
H3125 H 0.93076 0.69752 0.71574 0.0
C3126 C 0.32484 0.24212 0.80769 0.0
C3127 C 0.31349 0.23483 0.81608 0.0
C3128 C 0.32835 0.24617 0.76904 0.0
C3129 C 0.32024 0.23738 0.66597 0.0
H3130 H 0.34653 0.26586 0.64193 0.0
C3131 C 0.33959 0.24618 0.50954 0.0
C3132 C 0.3512 0.25051 0.50778 0.0
C3133 C 0.33445 0.24635 0.5452 0.0
C3134 C 0.3392 0.25788 0.64823 0.0
H3135 H 0.29682 0.22664 0.79093 0.0
H3136 H 0.303 0.23373 0.72258 0.0
H3137 H 0.33774 0.26272 0.70802 0.0
H3138 H 0.36659 0.25898 0.54175 0.0
H3139 H 0.35751 0.25904 0.60498 0.0
H3140 H 0.32187 0.23237 0.60694 0.0
C3141 C 0.30917 0.23622 0.74623 0.0
C3142 C 0.33413 0.25608 0.68596 0.0
C3143 C 0.30562 0.23221 0.78531 0.0
C3144 C 0.35764 0.25556 0.54222 0.0
C3145 C 0.35243 0.25563 0.57831 0.0
C3146 C 0.32528 0.23918 0.62833 0.0
C3147 C 0.32062 0.243 0.73755 0.0
C3148 C 0.32475 0.24571 0.69557 0.0
C3149 C 0.34074 0.25075 0.58033 0.0
C3150 C 0.33495 0.24936 0.61928 0.0
H3151 H 0.33114 0.24441 0.83074 0.0
H3152 H 0.33723 0.25125 0.76348 0.0
H3153 H 0.31317 0.22923 0.67256 0.0
H3154 H 0.33436 0.2424 0.48344 0.0
H3155 H 0.32547 0.24277 0.54547 0.0
C3156 C 0.7556 0.0782 0.81016 0.0
C3157 C 0.76402 0.07553 0.81685 0.0
C3158 C 0.75142 0.07769 0.77173 0.0
C3159 C 0.7621 0.08211 0.66981 0.0
H3160 H 0.73379 0.08035 0.64644 0.0
C3161 C 0.75972 0.11002 0.55115 0.0
C3162 C 0.75095 0.10541 0.52332 0.0
C3163 C 0.75936 0.10412 0.58549 0.0
C3164 C 0.74168 0.08074 0.65223 0.0
H3165 H 0.77387 0.06916 0.78925 0.0
H3166 H 0.76648 0.06819 0.72147 0.0
H3167 H 0.73587 0.0718 0.70768 0.0
H3168 H 0.73467 0.0913 0.51012 0.0
H3169 H 0.73397 0.08085 0.5709 0.0
H3170 H 0.76797 0.09115 0.61482 0.0
C3171 C 0.76324 0.07085 0.7461 0.0
C3172 C 0.7429 0.07589 0.68739 0.0
C3173 C 0.76742 0.07131 0.78489 0.0
C3174 C 0.74144 0.09508 0.53162 0.0
C3175 C 0.7411 0.08908 0.56611 0.0
C3176 C 0.76087 0.08688 0.63473 0.0
C3177 C 0.75556 0.07453 0.73884 0.0
C3178 C 0.75328 0.07695 0.69744 0.0
C3179 C 0.75028 0.09338 0.59251 0.0
C3180 C 0.75081 0.0867 0.62645 0.0
H3181 H 0.7527 0.08135 0.83428 0.0
H3182 H 0.7456 0.08068 0.76753 0.0
H3183 H 0.77024 0.08317 0.67645 0.0
H3184 H 0.76715 0.11797 0.54527 0.0
H3185 H 0.7664 0.10782 0.60588 0.0
C3186 C 0.68232 0.90641 0.21115 0.0
C3187 C 0.68852 0.91609 0.18818 0.0
C3188 C 0.67705 0.90672 0.2463 0.0
C3189 C 0.67589 0.92505 0.32398 0.0
H3190 H 0.64719 0.89861 0.34358 0.0
C3191 C 0.65904 0.91012 0.48103 0.0
C3192 C 0.64755 0.90313 0.48809 0.0
C3193 C 0.66299 0.9143 0.44284 0.0
C3194 C 0.65504 0.9062 0.3384 0.0
H3195 H 0.69448 0.9338 0.18452 0.0
H3196 H 0.68512 0.93438 0.2465 0.0
H3197 H 0.65647 0.90083 0.2797 0.0
H3198 H 0.63113 0.89585 0.46115 0.0
H3199 H 0.63807 0.90332 0.39388 0.0
H3200 H 0.67441 0.93043 0.38277 0.0
C3201 C 0.68442 0.92655 0.23731 0.0
C3202 C 0.66049 0.90737 0.30193 0.0
C3203 C 0.68983 0.92626 0.20205 0.0
C3204 C 0.64003 0.90113 0.45658 0.0
C3205 C 0.64402 0.90536 0.41804 0.0
C3206 C 0.67038 0.92393 0.3604 0.0
C3207 C 0.67769 0.91669 0.25914 0.0
C3208 C 0.67121 0.91654 0.29502 0.0
C3209 C 0.65559 0.91168 0.41046 0.0
C3210 C 0.66011 0.91424 0.36878 0.0
H3211 H 0.68126 0.89849 0.2012 0.0
H3212 H 0.67229 0.89905 0.26308 0.0
H3213 H 0.68409 0.93227 0.31951 0.0
H3214 H 0.66509 0.91198 0.50471 0.0
H3215 H 0.67194 0.919 0.43839 0.0
C3216 C 0.10708 0.74543 0.44422 0.0
C3217 C 0.10057 0.74395 0.47842 0.0
C3218 C 0.10315 0.74614 0.40622 0.0
C3219 C 0.07871 0.7421 0.34751 0.0
H3220 H 0.09983 0.77042 0.29903 0.0
C3221 C 0.07576 0.75757 0.18773 0.0
C3222 C 0.07898 0.76888 0.18411 0.0
C3223 C 0.07624 0.75316 0.22496 0.0
C3224 C 0.09382 0.76252 0.31237 0.0
H3225 H 0.0846 0.74109 0.49992 0.0
H3226 H 0.07758 0.74199 0.43354 0.0
H3227 H 0.10523 0.76394 0.35843 0.0
H3228 H 0.08471 0.78438 0.2162 0.0
H3229 H 0.08561 0.7767 0.2816 0.0
H3230 H 0.06733 0.74072 0.30095 0.0
C3231 C 0.08571 0.74267 0.43587 0.0
C3232 C 0.09697 0.75873 0.34595 0.0
C3233 C 0.08971 0.74215 0.47383 0.0
C3234 C 0.08198 0.77558 0.21857 0.0
C3235 C 0.08262 0.77122 0.25575 0.0
C3236 C 0.07561 0.74582 0.31335 0.0
C3237 C 0.0926 0.74522 0.40199 0.0
C3238 C 0.08944 0.74852 0.36402 0.0
C3239 C 0.08017 0.76008 0.25891 0.0
C3240 C 0.08311 0.75614 0.2958 0.0
H3241 H 0.11555 0.74702 0.44721 0.0
H3242 H 0.10859 0.74804 0.38046 0.0
H3243 H 0.07274 0.73422 0.36104 0.0
H3244 H 0.0736 0.75232 0.1613 0.0
H3245 H 0.07437 0.74458 0.22652 0.0
C3246 C 0.24222 0.33 0.17338 0.0
C3247 C 0.23494 0.31841 0.17103 0.0
C3248 C 0.24761 0.33498 0.20911 0.0
C3249 C 0.25466 0.32994 0.31118 0.0
H3250 H 0.25214 0.35591 0.33717 0.0
C3251 C 0.25479 0.3448 0.47158 0.0
C3252 C 0.25871 0.35616 0.47934 0.0
C3253 C 0.25502 0.34113 0.43289 0.0
C3254 C 0.2532 0.34886 0.33012 0.0
H3255 H 0.22809 0.30287 0.204 0.0
H3256 H 0.23735 0.31168 0.26749 0.0
H3257 H 0.24616 0.3472 0.2718 0.0
H3258 H 0.26676 0.37269 0.45308 0.0
H3259 H 0.26721 0.36624 0.38485 0.0
H3260 H 0.2614 0.33145 0.3703 0.0
C3261 C 0.23895 0.31686 0.24117 0.0
C3262 C 0.24971 0.34381 0.29262 0.0
C3263 C 0.23361 0.31182 0.20495 0.0
C3264 C 0.26363 0.36389 0.44796 0.0
C3265 C 0.26382 0.36018 0.40893 0.0
C3266 C 0.25819 0.33502 0.34882 0.0
C3267 C 0.24577 0.32855 0.24379 0.0
C3268 C 0.25023 0.33419 0.2829 0.0
C3269 C 0.25917 0.3487 0.40082 0.0
C3270 C 0.25728 0.34441 0.35898 0.0
H3271 H 0.24362 0.33535 0.14771 0.0
H3272 H 0.25301 0.34396 0.20982 0.0
H3273 H 0.25531 0.32263 0.30435 0.0
H3274 H 0.25106 0.33862 0.49518 0.0
H3275 H 0.25128 0.33224 0.42782 0.0
C3276 C 0.03216 0.43996 0.8777 0.0
C3277 C 0.02684 0.43356 0.84357 0.0
C3278 C 0.02756 0.43613 0.91584 0.0
C3279 C 0.00658 0.41203 0.97468 0.0
H3280 H 1.00072 0.43394 0.02426 0.0
C3281 C 0.98809 0.40938 0.13435 0.0
C3282 C 0.98036 0.41308 0.13783 0.0
C3283 C 0.99303 0.40979 0.09729 0.0
C3284 C 0.00224 0.42771 0.01063 0.0
H3285 H 0.0132 0.41786 0.8223 0.0
H3286 H 0.00536 0.41102 0.88886 0.0
H3287 H 0.01254 0.43899 0.9648 0.0
H3288 H 0.97131 0.41963 0.10572 0.0
H3289 H 0.97996 0.42038 0.04064 0.0
H3290 H 0.99623 0.40077 0.02096 0.0
C3291 C 0.013 0.41898 0.88639 0.0
C3292 C 0.00915 0.43066 0.97701 0.0
C3293 C 0.01748 0.42288 0.84831 0.0
C3294 C 0.97708 0.41652 0.10341 0.0
C3295 C 0.98213 0.41708 0.06643 0.0
C3296 C 0.99979 0.40913 0.00888 0.0
C3297 C 0.01768 0.42579 0.92027 0.0
C3298 C 0.01134 0.42284 0.95848 0.0
C3299 C 0.99047 0.41413 0.06343 0.0
C3300 C 0.99743 0.41692 0.02679 0.0
H3301 H 0.03928 0.44829 0.87461 0.0
H3302 H 0.03136 0.44151 0.94159 0.0
H3303 H 0.0081 0.40584 0.96082 0.0
H3304 H 0.99086 0.40689 0.1608 0.0
H3305 H 0.99947 0.40753 0.09585 0.0
C3306 C 0.59561 0.57275 0.12848 0.0
C3307 C 0.58598 0.56253 0.13704 0.0
C3308 C 0.59602 0.57876 0.0939 0.0
C3309 C 0.57643 0.58136 0.02572 0.0
H3310 H 0.6012 0.59562 0.9514 0.0
C3311 C 0.56989 0.59676 0.87509 0.0
C3312 C 0.57299 0.59226 0.84319 0.0
C3313 C 0.57414 0.59723 0.91377 0.0
C3314 C 0.59424 0.59176 0.97209 0.0
H3315 H 0.56966 0.55015 0.11539 0.0
H3316 H 0.57053 0.56033 0.05471 0.0
H3317 H 0.60324 0.58714 0.01294 0.0
H3318 H 0.58386 0.58588 0.82572 0.0
H3319 H 0.59107 0.58657 0.89227 0.0
H3320 H 0.56714 0.58522 0.98414 0.0
C3321 C 0.5776 0.56394 0.07497 0.0
C3322 C 0.59544 0.58696 0.0074 0.0
C3323 C 0.57717 0.55803 0.10935 0.0
C3324 C 0.58118 0.58926 0.8498 0.0
C3325 C 0.58544 0.58977 0.8881 0.0
C3326 C 0.57521 0.58609 0.9905 0.0
C3327 C 0.58681 0.57458 0.0677 0.0
C3328 C 0.58637 0.58128 0.03367 0.0
C3329 C 0.5816 0.59327 0.92096 0.0
C3330 C 0.58394 0.59094 0.96239 0.0
H3331 H 0.60242 0.57644 0.14982 0.0
H3332 H 0.60325 0.58691 0.08889 0.0
H3333 H 0.56938 0.57731 0.046 0.0
H3334 H 0.56363 0.59918 0.8708 0.0
H3335 H 0.57114 0.60014 0.93837 0.0
C3336 C 0.42531 0.01611 0.14874 0.0
C3337 C 0.43671 0.02408 0.14979 0.0
C3338 C 0.42002 0.01156 0.1122 0.0
C3339 C 0.42375 0.01413 0.00097 0.0
H3340 H 0.40527 0.98188 0.00417 0.0
C3341 C 0.4087 0.98967 0.85457 0.0
C3342 C 0.41034 0.98048 0.85169 0.0
C3343 C 0.40884 0.99431 0.89192 0.0
C3344 C 0.41039 0.99088 0.00271 0.0
H3345 H 0.4515 0.0339 0.11406 0.0
H3346 H 0.44235 0.02592 0.04997 0.0
H3347 H 0.41195 0.99231 0.0666 0.0
H3348 H 0.41276 0.9685 0.88523 0.0
H3349 H 0.41326 0.97671 0.95074 0.0
H3350 H 0.42282 0.01266 0.9371 0.0
C3351 C 0.43737 0.02331 0.0771 0.0
C3352 C 0.41412 0.9969 0.03858 0.0
C3353 C 0.44263 0.02792 0.11372 0.0
C3354 C 0.4113 0.97548 0.88688 0.0
C3355 C 0.41161 0.98023 0.92437 0.0
C3356 C 0.42008 0.00811 0.96513 0.0
C3357 C 0.42609 0.01479 0.07605 0.0
C3358 C 0.42103 0.00858 0.03814 0.0
C3359 C 0.41087 0.99 0.92713 0.0
C3360 C 0.41353 0.99638 0.96548 0.0
H3361 H 0.42061 0.01302 0.17636 0.0
H3362 H 0.41128 0.00521 0.11246 0.0
H3363 H 0.42893 0.02312 -0.00052 0.0
H3364 H 0.40793 0.99365 0.82772 0.0
H3365 H 0.40793 0.00163 0.89297 0.0
C3366 C 0.57693 0.99644 0.83886 0.0
C3367 C 0.569 0.98499 0.83723 0.0
C3368 C 0.58231 1.0014 0.87466 0.0
C3369 C 0.58781 0.99617 0.9789 0.0
H3370 H 0.58658 0.02304 0.00113 0.0
C3371 C 0.58594 0.01089 0.13727 0.0
C3372 C 0.59036 0.0223 0.14554 0.0
C3373 C 0.58659 0.00729 0.0989 0.0
C3374 C 0.58728 0.01573 0.99518 0.0
H3375 H 0.561 0.96962 0.87144 0.0
H3376 H 0.57029 0.97839 0.93485 0.0
H3377 H 0.58129 0.01447 0.93526 0.0
H3378 H 0.59962 0.03895 0.12053 0.0
H3379 H 0.60075 0.03262 0.05275 0.0
H3380 H 0.59348 0.99729 0.03951 0.0
C3381 C 0.5724 0.98348 0.90803 0.0
C3382 C 0.5842 0.01077 0.95738 0.0
C3383 C 0.56705 0.97846 0.87182 0.0
C3384 C 0.59608 0.03011 0.115 0.0
C3385 C 0.59668 0.02647 0.07623 0.0
C3386 C 0.59095 1.00118 0.01678 0.0
C3387 C 0.57983 0.99508 0.90998 0.0
C3388 C 0.58419 1.0008 0.94905 0.0
C3389 C 0.59166 0.01499 0.06758 0.0
C3390 C 0.59043 0.01085 0.02566 0.0
H3391 H 0.57879 0.0017 0.81262 0.0
H3392 H 0.58818 0.01028 0.87492 0.0
H3393 H 0.58806 0.9886 0.97318 0.0
H3394 H 0.58158 0.00463 0.16018 0.0
H3395 H 0.58251 0.99839 0.09336 0.0
C3396 C 0.02552 0.5945 0.86798 0.0
C3397 C 0.02409 0.58432 0.8537 0.0
C3398 C 0.02011 0.59477 0.90329 0.0
C3399 C 0.99601 0.57562 0.96722 0.0
H3400 H 0.01035 0.59806 0.04989 0.0
C3401 C 0.97592 0.56861 0.12289 0.0
C3402 C 0.98348 0.57025 0.1539 0.0
C3403 C 0.97987 0.57306 0.08455 0.0
C3404 C 0.0062 0.59174 0.027 0.0
H3405 H 0.0166 0.56665 0.86605 0.0
H3406 H 0.00761 0.56716 0.92791 0.0
H3407 H 0.01991 0.60015 0.98614 0.0
H3408 H 1.00106 0.5787 0.16989 0.0
H3409 H 0.00782 0.58609 0.1039 0.0
H3410 H 0.98271 0.56676 0.00877 0.0
C3411 C 0.01247 0.57487 0.91143 0.0
C3412 C 0.01165 0.593 0.99031 0.0
C3413 C 0.01775 0.57459 0.87628 0.0
C3414 C 0.99498 0.57709 0.1466 0.0
C3415 C 0.99889 0.5815 0.10862 0.0
C3416 C 0.99063 0.5743 0.00394 0.0
C3417 C 0.01325 0.58487 0.9247 0.0
C3418 C 0.00681 0.5847 0.96072 0.0
C3419 C 0.99143 0.57926 0.07669 0.0
C3420 C 0.99586 0.58209 0.03496 0.0
H3421 H 0.03029 0.60209 0.85077 0.0
H3422 H 0.02092 0.60262 0.91288 0.0
H3423 H 0.99189 0.56924 0.9445 0.0
H3424 H 0.96702 0.56346 0.12766 0.0
H3425 H 0.97388 0.57131 0.06076 0.0
C3426 C 0.44128 0.41252 0.1156 0.0
C3427 C 0.43513 0.41077 0.15095 0.0
C3428 C 0.43671 0.41286 0.07845 0.0
C3429 C 0.41614 0.41994 0.03919 0.0
H3430 H 0.42405 0.41246 0.93693 0.0
C3431 C 0.41687 0.44158 0.89003 0.0
C3432 C 0.41495 0.43558 0.85421 0.0
C3433 C 0.41664 0.43658 0.92687 0.0
C3434 C 0.42157 0.41444 0.96518 0.0
H3435 H 0.41922 0.40722 0.17551 0.0
H3436 H 0.41106 0.40739 0.11073 0.0
H3437 H 0.42861 0.40628 -0.00114 0.0
H3438 H 0.41051 0.41955 0.82843 0.0
H3439 H 0.40969 0.41066 0.89262 0.0
H3440 H 0.40914 0.42813 0.0055 0.0
C3441 C 0.41948 0.40879 0.11146 0.0
C3442 C 0.42432 0.41101 0.00075 0.0
C3443 C 0.42409 0.40855 0.1485 0.0
C3444 C 0.412 0.42432 0.85581 0.0
C3445 C 0.41166 0.41928 0.89252 0.0
C3446 C 0.41335 0.42334 0.00361 0.0
C3447 C 0.4259 0.41144 0.07619 0.0
C3448 C 0.42184 0.41389 0.03823 0.0
C3449 C 0.41446 0.42549 0.92834 0.0
C3450 C 0.41622 0.42082 0.96615 0.0
H3451 H 0.4499 0.41448 0.11699 0.0
H3452 H 0.44194 0.41502 0.05201 0.0
H3453 H 0.41421 0.42246 0.06747 0.0
H3454 H 0.41938 0.45035 0.88931 0.0
H3455 H 0.41893 0.44165 0.95376 0.0
loop_
_geom_bond_atom_site_label_1
_geom_bond_atom_site_label_2
_geom_bond_distance
_geom_bond_site_symmetry_2
_ccdc_geom_bond_type
Mn0 O5 2.095 . S
Mn0 O15 2.162 . S
Mn0 O16 2.297 . S
Mn0 O24 2.385 1_554 S
Mn0 O25 2.209 . S
Mn0 O26 2.094 . S
Mn1 O6 2.121 . S
Mn1 N8 2.257 . S
Mn1 N17 2.282 . S
Mn1 O25 2.215 . S
Mn1 O27 2.117 . S
C2 O24 1.234 1_554 S
C2 O25 1.283 . S
C3 O15 1.281 . S
C3 O16 1.236 . S
C4 O26 1.240 . S
C4 O27 1.264 . S
O5 Mn0 2.095 . S
O5 C14 1.250 . S
O6 Mn1 2.121 . S
O6 C14 1.258 . S
C7 N8 1.326 . S
C7 C11 1.460 . S
C7 H13 0.929 . S
N8 Mn1 2.257 . S
N8 C7 1.326 . S
N8 C12 1.362 . S
C9 C10 1.258 . S
C9 C12 1.431 . S
C9 C29 1.449 1_554 S
C10 C9 1.258 . S
C10 C11 1.477 . S
C10 H30 0.931 . S
C11 C7 1.460 . S
C11 C10 1.477 . S
C11 H31 0.930 . S
C12 N8 1.362 . S
C12 C9 1.431 . S
C12 C22 1.468 1_554 S
H13 C7 0.929 . S
C14 O5 1.250 . S
C14 O6 1.258 . S
O15 Mn0 2.162 . S
O15 C3 1.281 . S
O16 Mn0 2.297 . S
O16 C3 1.236 . S
N17 Mn1 2.282 . S
N17 C18 1.328 1_554 S
N17 C22 1.313 1_554 S
C18 N17 1.328 1_556 S
C18 C19 1.457 . S
C18 H23 0.929 . S
C19 C18 1.457 . S
C19 C20 1.291 . S
C19 H32 0.931 . S
C20 C19 1.291 . S
C20 C21 1.373 . S
C20 H33 0.929 . S
C21 C20 1.373 . S
C21 C22 1.408 . S
C21 C28 1.403 . S
C22 C12 1.468 1_556 S
C22 N17 1.313 1_556 S
C22 C21 1.408 . S
H23 C18 0.929 . S
O24 Mn0 2.385 1_556 S
O24 C2 1.234 1_556 S
O25 Mn0 2.209 . S
O25 Mn1 2.215 . S
O25 C2 1.283 . S
O26 Mn0 2.094 . S
O26 C4 1.240 . S
O27 Mn1 2.117 . S
O27 C4 1.264 . S
C28 C21 1.403 . S
C28 C29 1.399 . S
C28 H34 0.929 . S
C29 C9 1.449 1_556 S
C29 C28 1.399 . S
C29 H35 0.930 . S
H30 C10 0.931 . S
H31 C11 0.930 . S
H32 C19 0.931 . S
H33 C20 0.929 . S
H34 C28 0.929 . S
H35 C29 0.930 . S
Mn36 O41 2.095 . S
Mn36 O51 2.162 . S
Mn36 O52 2.297 . S
Mn36 O60 2.385 1_554 S
Mn36 O61 2.209 . S
Mn36 O62 2.094 . S
Mn37 O42 2.121 . S
Mn37 N44 2.257 . S
Mn37 N53 2.282 . S
Mn37 O61 2.215 . S
Mn37 O63 2.117 . S
C38 O60 1.234 1_554 S
C38 O61 1.283 . S
C39 O51 1.281 . S
C39 O52 1.236 . S
C40 O62 1.240 . S
C40 O63 1.264 . S
O41 Mn36 2.095 . S
O41 C50 1.250 . S
O42 Mn37 2.121 . S
O42 C50 1.258 . S
C43 N44 1.326 . S
C43 C47 1.460 . S
C43 H49 0.929 . S
N44 Mn37 2.257 . S
N44 C43 1.326 . S
N44 C48 1.362 . S
C45 C46 1.258 . S
C45 C48 1.431 . S
C45 C65 1.449 1_554 S
C46 C45 1.258 . S
C46 C47 1.477 . S
C46 H66 0.931 . S
C47 C43 1.460 . S
C47 C46 1.477 . S
C47 H67 0.930 . S
C48 N44 1.362 . S
C48 C45 1.431 . S
C48 C58 1.467 1_554 S
H49 C43 0.929 . S
C50 O41 1.250 . S
C50 O42 1.258 . S
O51 Mn36 2.162 . S
O51 C39 1.281 . S
O52 Mn36 2.297 . S
O52 C39 1.236 . S
N53 Mn37 2.282 . S
N53 C54 1.328 1_554 S
N53 C58 1.312 1_554 S
C54 N53 1.328 1_556 S
C54 C55 1.457 . S
C54 H59 0.929 . S
C55 C54 1.457 . S
C55 C56 1.291 . S
C55 H68 0.931 . S
C56 C55 1.291 . S
C56 C57 1.373 . S
C56 H69 0.929 . S
C57 C56 1.373 . S
C57 C58 1.410 . S
C57 C64 1.403 . S
C58 C48 1.467 1_556 S
C58 N53 1.312 1_556 S
C58 C57 1.410 . S
H59 C54 0.929 . S
O60 Mn36 2.385 1_556 S
O60 C38 1.234 1_556 S
O61 Mn36 2.209 . S
O61 Mn37 2.215 . S
O61 C38 1.283 . S
O62 Mn36 2.094 . S
O62 C40 1.240 . S
O63 Mn37 2.117 . S
O63 C40 1.264 . S
C64 C57 1.403 . S
C64 C65 1.399 . S
C64 H70 0.929 . S
C65 C45 1.449 1_556 S
C65 C64 1.399 . S
C65 H71 0.930 . S
H66 C46 0.931 . S
H67 C47 0.930 . S
H68 C55 0.931 . S
H69 C56 0.929 . S
H70 C64 0.929 . S
H71 C65 0.930 . S
Mn72 O77 2.095 . S
Mn72 O87 2.162 . S
Mn72 O88 2.297 . S
Mn72 O96 2.385 1_554 S
Mn72 O97 2.209 . S
Mn72 O98 2.094 . S
Mn73 O78 2.121 . S
Mn73 N80 2.257 . S
Mn73 N89 2.282 . S
Mn73 O97 2.215 . S
Mn73 O99 2.117 . S
C74 O96 1.234 1_554 S
C74 O97 1.283 . S
C75 O87 1.281 . S
C75 O88 1.236 . S
C76 O98 1.240 . S
C76 O99 1.264 . S
O77 Mn72 2.095 . S
O77 C86 1.250 . S
O78 Mn73 2.121 . S
O78 C86 1.258 . S
C79 N80 1.326 . S
C79 C83 1.460 . S
C79 H85 0.929 . S
N80 Mn73 2.257 . S
N80 C79 1.326 . S
N80 C84 1.362 . S
C81 C82 1.258 . S
C81 C84 1.431 . S
C81 C101 1.449 1_554 S
C82 C81 1.258 . S
C82 C83 1.477 . S
C82 H102 0.931 . S
C83 C79 1.460 . S
C83 C82 1.477 . S
C83 H103 0.930 . S
C84 N80 1.362 . S
C84 C81 1.431 . S
C84 C94 1.467 1_554 S
H85 C79 0.929 . S
C86 O77 1.250 . S
C86 O78 1.258 . S
O87 Mn72 2.162 . S
O87 C75 1.281 . S
O88 Mn72 2.297 . S
O88 C75 1.236 . S
N89 Mn73 2.282 . S
N89 C90 1.328 1_554 S
N89 C94 1.313 1_554 S
C90 N89 1.328 1_556 S
C90 C91 1.457 . S
C90 H95 0.929 . S
C91 C90 1.457 . S
C91 C92 1.291 . S
C91 H104 0.931 . S
C92 C91 1.291 . S
C92 C93 1.373 . S
C92 H105 0.929 . S
C93 C92 1.373 . S
C93 C94 1.408 . S
C93 C100 1.403 . S
C94 C84 1.467 1_556 S
C94 N89 1.313 1_556 S
C94 C93 1.408 . S
H95 C90 0.929 . S
O96 Mn72 2.385 1_556 S
O96 C74 1.234 1_556 S
O97 Mn72 2.209 . S
O97 Mn73 2.215 . S
O97 C74 1.283 . S
O98 Mn72 2.094 . S
O98 C76 1.240 . S
O99 Mn73 2.117 . S
O99 C76 1.264 . S
C100 C93 1.403 . S
C100 C101 1.399 . S
C100 H106 0.929 . S
C101 C81 1.449 1_556 S
C101 C100 1.399 . S
C101 H107 0.930 . S
H102 C82 0.931 . S
H103 C83 0.930 . S
H104 C91 0.931 . S
H105 C92 0.929 . S
H106 C100 0.929 . S
H107 C101 0.930 . S
Mn108 O113 2.095 . S
Mn108 O123 2.162 . S
Mn108 O124 2.297 . S
Mn108 O132 2.385 1_556 S
Mn108 O133 2.209 . S
Mn108 O134 2.094 . S
Mn109 O114 2.121 . S
Mn109 N116 2.257 . S
Mn109 N125 2.282 . S
Mn109 O133 2.215 . S
Mn109 O135 2.117 . S
C110 O132 1.234 1_556 S
C110 O133 1.283 . S
C111 O123 1.281 . S
C111 O124 1.236 . S
C112 O134 1.240 . S
C112 O135 1.264 . S
O113 Mn108 2.095 . S
O113 C122 1.250 . S
O114 Mn109 2.121 . S
O114 C122 1.258 . S
C115 N116 1.326 . S
C115 C119 1.460 . S
C115 H121 0.929 . S
N116 Mn109 2.257 . S
N116 C115 1.326 . S
N116 C120 1.362 . S
C117 C118 1.258 . S
C117 C120 1.431 . S
C117 C137 1.449 1_556 S
C118 C117 1.258 . S
C118 C119 1.477 . S
C118 H138 0.931 . S
C119 C115 1.460 . S
C119 C118 1.477 . S
C119 H139 0.930 . S
C120 N116 1.362 . S
C120 C117 1.431 . S
C120 C130 1.468 1_556 S
H121 C115 0.929 . S
C122 O113 1.250 . S
C122 O114 1.258 . S
O123 Mn108 2.162 . S
O123 C111 1.281 . S
O124 Mn108 2.297 . S
O124 C111 1.236 . S
N125 Mn109 2.282 . S
N125 C126 1.328 1_556 S
N125 C130 1.313 1_556 S
C126 N125 1.328 1_554 S
C126 C127 1.457 . S
C126 H131 0.929 . S
C127 C126 1.457 . S
C127 C128 1.291 . S
C127 H140 0.931 . S
C128 C127 1.291 . S
C128 C129 1.373 . S
C128 H141 0.929 . S
C129 C128 1.373 . S
C129 C130 1.408 . S
C129 C136 1.403 . S
C130 C120 1.468 1_554 S
C130 N125 1.313 1_554 S
C130 C129 1.408 . S
H131 C126 0.929 . S
O132 Mn108 2.385 1_554 S
O132 C110 1.234 1_554 S
O133 Mn108 2.209 . S
O133 Mn109 2.215 . S
O133 C110 1.283 . S
O134 Mn108 2.094 . S
O134 C112 1.240 . S
O135 Mn109 2.117 . S
O135 C112 1.264 . S
C136 C129 1.403 . S
C136 C137 1.399 . S
C136 H142 0.929 . S
C137 C117 1.449 1_554 S
C137 C136 1.399 . S
C137 H143 0.930 . S
H138 C118 0.931 . S
H139 C119 0.930 . S
H140 C127 0.931 . S
H141 C128 0.929 . S
H142 C136 0.929 . S
H143 C137 0.930 . S
Mn144 O149 2.095 . S
Mn144 O159 2.162 . S
Mn144 O160 2.297 . S
Mn144 O168 2.385 1_556 S
Mn144 O169 2.209 . S
Mn144 O170 2.094 . S
Mn145 O150 2.121 . S
Mn145 N152 2.257 . S
Mn145 N161 2.282 . S
Mn145 O169 2.215 . S
Mn145 O171 2.117 . S
C146 O168 1.234 1_556 S
C146 O169 1.283 . S
C147 O159 1.281 . S
C147 O160 1.236 . S
C148 O170 1.240 . S
C148 O171 1.264 . S
O149 Mn144 2.095 . S
O149 C158 1.250 . S
O150 Mn145 2.121 . S
O150 C158 1.258 . S
C151 N152 1.326 . S
C151 C155 1.460 . S
C151 H157 0.929 . S
N152 Mn145 2.257 . S
N152 C151 1.326 . S
N152 C156 1.362 . S
C153 C154 1.258 . S
C153 C156 1.431 . S
C153 C173 1.449 1_556 S
C154 C153 1.258 . S
C154 C155 1.477 . S
C154 H174 0.931 . S
C155 C151 1.460 . S
C155 C154 1.477 . S
C155 H175 0.930 . S
C156 N152 1.362 . S
C156 C153 1.431 . S
C156 C166 1.467 1_556 S
H157 C151 0.929 . S
C158 O149 1.250 . S
C158 O150 1.258 . S
O159 Mn144 2.162 . S
O159 C147 1.281 . S
O160 Mn144 2.297 . S
O160 C147 1.236 . S
N161 Mn145 2.282 . S
N161 C162 1.328 1_556 S
N161 C166 1.313 1_556 S
C162 N161 1.328 1_554 S
C162 C163 1.457 . S
C162 H167 0.929 . S
C163 C162 1.457 . S
C163 C164 1.291 . S
C163 H176 0.931 . S
C164 C163 1.291 . S
C164 C165 1.373 . S
C164 H177 0.929 . S
C165 C164 1.373 . S
C165 C166 1.408 . S
C165 C172 1.403 . S
C166 C156 1.467 1_554 S
C166 N161 1.313 1_554 S
C166 C165 1.408 . S
H167 C162 0.929 . S
O168 Mn144 2.385 1_554 S
O168 C146 1.234 1_554 S
O169 Mn144 2.209 . S
O169 Mn145 2.215 . S
O169 C146 1.283 . S
O170 Mn144 2.094 . S
O170 C148 1.240 . S
O171 Mn145 2.117 . S
O171 C148 1.264 . S
C172 C165 1.403 . S
C172 C173 1.399 . S
C172 H178 0.929 . S
C173 C153 1.449 1_554 S
C173 C172 1.399 . S
C173 H179 0.930 . S
H174 C154 0.931 . S
H175 C155 0.930 . S
H176 C163 0.931 . S
H177 C164 0.929 . S
H178 C172 0.929 . S
H179 C173 0.930 . S
Mn180 O185 2.095 . S
Mn180 O195 2.162 . S
Mn180 O196 2.297 . S
Mn180 O204 2.385 1_556 S
Mn180 O205 2.209 . S
Mn180 O206 2.094 . S
Mn181 O186 2.121 . S
Mn181 N188 2.257 . S
Mn181 N197 2.282 . S
Mn181 O205 2.215 . S
Mn181 O207 2.117 . S
C182 O204 1.234 1_556 S
C182 O205 1.283 . S
C183 O195 1.281 . S
C183 O196 1.236 . S
C184 O206 1.240 . S
C184 O207 1.264 . S
O185 Mn180 2.095 . S
O185 C194 1.250 . S
O186 Mn181 2.121 . S
O186 C194 1.258 . S
C187 N188 1.326 . S
C187 C191 1.460 . S
C187 H193 0.929 . S
N188 Mn181 2.257 . S
N188 C187 1.326 . S
N188 C192 1.362 . S
C189 C190 1.258 . S
C189 C192 1.431 . S
C189 C209 1.449 1_556 S
C190 C189 1.258 . S
C190 C191 1.477 . S
C190 H210 0.931 . S
C191 C187 1.460 . S
C191 C190 1.477 . S
C191 H211 0.930 . S
C192 N188 1.362 . S
C192 C189 1.431 . S
C192 C202 1.467 1_556 S
H193 C187 0.929 . S
C194 O185 1.250 . S
C194 O186 1.258 . S
O195 Mn180 2.162 . S
O195 C183 1.281 . S
O196 Mn180 2.297 . S
O196 C183 1.236 . S
N197 Mn181 2.282 . S
N197 C198 1.328 1_556 S
N197 C202 1.312 1_556 S
C198 N197 1.328 1_554 S
C198 C199 1.457 . S
C198 H203 0.929 . S
C199 C198 1.457 . S
C199 C200 1.291 . S
C199 H212 0.931 . S
C200 C199 1.291 . S
C200 C201 1.373 . S
C200 H213 0.929 . S
C201 C200 1.373 . S
C201 C202 1.410 . S
C201 C208 1.403 . S
C202 C192 1.467 1_554 S
C202 N197 1.312 1_554 S
C202 C201 1.410 . S
H203 C198 0.929 . S
O204 Mn180 2.385 1_554 S
O204 C182 1.234 1_554 S
O205 Mn180 2.209 . S
O205 Mn181 2.215 . S
O205 C182 1.283 . S
O206 Mn180 2.094 . S
O206 C184 1.240 . S
O207 Mn181 2.117 . S
O207 C184 1.264 . S
C208 C201 1.403 . S
C208 C209 1.399 . S
C208 H214 0.929 . S
C209 C189 1.449 1_554 S
C209 C208 1.399 . S
C209 H215 0.930 . S
H210 C190 0.931 . S
H211 C191 0.930 . S
H212 C199 0.931 . S
H213 C200 0.929 . S
H214 C208 0.929 . S
H215 C209 0.930 . S
Mn216 O221 2.095 . S
Mn216 O231 2.162 . S
Mn216 O232 2.297 . S
Mn216 O240 2.385 1_556 S
Mn216 O241 2.209 . S
Mn216 O242 2.094 . S
Mn217 O222 2.121 . S
Mn217 N224 2.257 . S
Mn217 N233 2.282 . S
Mn217 O241 2.215 . S
Mn217 O243 2.117 . S
C218 O240 1.234 1_556 S
C218 O241 1.283 . S
C219 O231 1.281 . S
C219 O232 1.236 . S
C220 O242 1.240 . S
C220 O243 1.264 . S
O221 Mn216 2.095 . S
O221 C230 1.250 . S
O222 Mn217 2.121 . S
O222 C230 1.258 . S
C223 N224 1.326 . S
C223 C227 1.460 . S
C223 H229 0.929 . S
N224 Mn217 2.257 . S
N224 C223 1.326 . S
N224 C228 1.362 . S
C225 C226 1.258 . S
C225 C228 1.431 . S
C225 C245 1.449 1_556 S
C226 C225 1.258 . S
C226 C227 1.477 . S
C226 H246 0.931 . S
C227 C223 1.460 . S
C227 C226 1.477 . S
C227 H247 0.930 . S
C228 N224 1.362 . S
C228 C225 1.431 . S
C228 C238 1.468 1_556 S
H229 C223 0.929 . S
C230 O221 1.250 . S
C230 O222 1.258 . S
O231 Mn216 2.162 . S
O231 C219 1.281 . S
O232 Mn216 2.297 . S
O232 C219 1.236 . S
N233 Mn217 2.282 . S
N233 C234 1.328 1_556 S
N233 C238 1.313 1_556 S
C234 N233 1.328 1_554 S
C234 C235 1.457 . S
C234 H239 0.929 . S
C235 C234 1.457 . S
C235 C236 1.291 . S
C235 H248 0.931 . S
C236 C235 1.291 . S
C236 C237 1.373 . S
C236 H249 0.929 . S
C237 C236 1.373 . S
C237 C238 1.408 . S
C237 C244 1.403 . S
C238 C228 1.468 1_554 S
C238 N233 1.313 1_554 S
C238 C237 1.408 . S
H239 C234 0.929 . S
O240 Mn216 2.385 1_554 S
O240 C218 1.234 1_554 S
O241 Mn216 2.209 . S
O241 Mn217 2.215 . S
O241 C218 1.283 . S
O242 Mn216 2.094 . S
O242 C220 1.240 . S
O243 Mn217 2.117 . S
O243 C220 1.264 . S
C244 C237 1.403 . S
C244 C245 1.399 . S
C244 H250 0.929 . S
C245 C225 1.449 1_554 S
C245 C244 1.399 . S
C245 H251 0.930 . S
H246 C226 0.931 . S
H247 C227 0.930 . S
H248 C235 0.931 . S
H249 C236 0.929 . S
H250 C244 0.929 . S
H251 C245 0.930 . S
Mn252 O257 2.095 . S
Mn252 O267 2.162 . S
Mn252 O268 2.297 . S
Mn252 O276 2.385 1_556 S
Mn252 O277 2.209 . S
Mn252 O278 2.094 . S
Mn253 O258 2.121 . S
Mn253 N260 2.257 . S
Mn253 N269 2.282 . S
Mn253 O277 2.215 . S
Mn253 O279 2.117 . S
C254 O276 1.234 1_556 S
C254 O277 1.283 . S
C255 O267 1.281 . S
C255 O268 1.236 . S
C256 O278 1.240 . S
C256 O279 1.264 . S
O257 Mn252 2.095 . S
O257 C266 1.250 . S
O258 Mn253 2.121 . S
O258 C266 1.258 . S
C259 N260 1.326 . S
C259 C263 1.460 . S
C259 H265 0.929 . S
N260 Mn253 2.257 . S
N260 C259 1.326 . S
N260 C264 1.362 . S
C261 C262 1.258 . S
C261 C264 1.431 . S
C261 C281 1.449 1_556 S
C262 C261 1.258 . S
C262 C263 1.477 . S
C262 H282 0.931 . S
C263 C259 1.460 . S
C263 C262 1.477 . S
C263 H283 0.930 . S
C264 N260 1.362 . S
C264 C261 1.431 . S
C264 C274 1.467 1_556 S
H265 C259 0.929 . S
C266 O257 1.250 . S
C266 O258 1.258 . S
O267 Mn252 2.162 . S
O267 C255 1.281 . S
O268 Mn252 2.297 . S
O268 C255 1.236 . S
N269 Mn253 2.282 . S
N269 C270 1.328 1_556 S
N269 C274 1.312 1_556 S
C270 N269 1.328 1_554 S
C270 C271 1.457 . S
C270 H275 0.929 . S
C271 C270 1.457 . S
C271 C272 1.291 . S
C271 H284 0.931 . S
C272 C271 1.291 . S
C272 C273 1.373 . S
C272 H285 0.929 . S
C273 C272 1.373 . S
C273 C274 1.410 . S
C273 C280 1.403 . S
C274 C264 1.467 1_554 S
C274 N269 1.312 1_554 S
C274 C273 1.410 . S
H275 C270 0.929 . S
O276 Mn252 2.385 1_554 S
O276 C254 1.234 1_554 S
O277 Mn252 2.209 . S
O277 Mn253 2.215 . S
O277 C254 1.283 . S
O278 Mn252 2.094 . S
O278 C256 1.240 . S
O279 Mn253 2.117 . S
O279 C256 1.264 . S
C280 C273 1.403 . S
C280 C281 1.399 . S
C280 H286 0.929 . S
C281 C261 1.449 1_554 S
C281 C280 1.399 . S
C281 H287 0.930 . S
H282 C262 0.931 . S
H283 C263 0.930 . S
H284 C271 0.931 . S
H285 C272 0.929 . S
H286 C280 0.929 . S
H287 C281 0.930 . S
Mn288 O293 2.095 . S
Mn288 O303 2.162 . S
Mn288 O304 2.297 . S
Mn288 O312 2.385 1_556 S
Mn288 O313 2.209 . S
Mn288 O314 2.094 . S
Mn289 O294 2.121 . S
Mn289 N296 2.257 . S
Mn289 N305 2.282 . S
Mn289 O313 2.215 . S
Mn289 O315 2.117 . S
C290 O312 1.234 1_556 S
C290 O313 1.283 . S
C291 O303 1.281 . S
C291 O304 1.236 . S
C292 O314 1.240 . S
C292 O315 1.264 . S
O293 Mn288 2.095 . S
O293 C302 1.250 . S
O294 Mn289 2.121 . S
O294 C302 1.258 . S
C295 N296 1.326 . S
C295 C299 1.460 . S
C295 H301 0.929 . S
N296 Mn289 2.257 . S
N296 C295 1.326 . S
N296 C300 1.362 . S
C297 C298 1.258 . S
C297 C300 1.431 . S
C297 C317 1.449 1_556 S
C298 C297 1.258 . S
C298 C299 1.477 . S
C298 H318 0.931 . S
C299 C295 1.460 . S
C299 C298 1.477 . S
C299 H319 0.930 . S
C300 N296 1.362 . S
C300 C297 1.431 . S
C300 C310 1.467 1_556 S
H301 C295 0.929 . S
C302 O293 1.250 . S
C302 O294 1.258 . S
O303 Mn288 2.162 . S
O303 C291 1.281 . S
O304 Mn288 2.297 . S
O304 C291 1.236 . S
N305 Mn289 2.282 . S
N305 C306 1.328 1_556 S
N305 C310 1.313 1_556 S
C306 N305 1.328 1_554 S
C306 C307 1.457 . S
C306 H311 0.929 . S
C307 C306 1.457 . S
C307 C308 1.291 . S
C307 H320 0.931 . S
C308 C307 1.291 . S
C308 C309 1.373 . S
C308 H321 0.929 . S
C309 C308 1.373 . S
C309 C310 1.408 . S
C309 C316 1.403 . S
C310 C300 1.467 1_554 S
C310 N305 1.313 1_554 S
C310 C309 1.408 . S
H311 C306 0.929 . S
O312 Mn288 2.385 1_554 S
O312 C290 1.234 1_554 S
O313 Mn288 2.209 . S
O313 Mn289 2.215 . S
O313 C290 1.283 . S
O314 Mn288 2.094 . S
O314 C292 1.240 . S
O315 Mn289 2.117 . S
O315 C292 1.264 . S
C316 C309 1.403 . S
C316 C317 1.399 . S
C316 H322 0.929 . S
C317 C297 1.449 1_554 S
C317 C316 1.399 . S
C317 H323 0.930 . S
H318 C298 0.931 . S
H319 C299 0.930 . S
H320 C307 0.931 . S
H321 C308 0.929 . S
H322 C316 0.929 . S
H323 C317 0.930 . S
Mn324 O329 2.095 . S
Mn324 O339 2.162 . S
Mn324 O340 2.297 . S
Mn324 O348 2.385 1_554 S
Mn324 O349 2.209 . S
Mn324 O350 2.094 . S
Mn325 O330 2.121 . S
Mn325 N332 2.257 . S
Mn325 N341 2.282 . S
Mn325 O349 2.215 . S
Mn325 O351 2.117 . S
C326 O348 1.234 1_554 S
C326 O349 1.283 . S
C327 O339 1.281 . S
C327 O340 1.236 . S
C328 O350 1.240 . S
C328 O351 1.264 . S
O329 Mn324 2.095 . S
O329 C338 1.250 . S
O330 Mn325 2.121 . S
O330 C338 1.258 . S
C331 N332 1.326 . S
C331 C335 1.460 . S
C331 H337 0.929 . S
N332 Mn325 2.257 . S
N332 C331 1.326 . S
N332 C336 1.362 . S
C333 C334 1.258 . S
C333 C336 1.431 . S
C333 C353 1.449 1_554 S
C334 C333 1.258 . S
C334 C335 1.477 . S
C334 H354 0.931 . S
C335 C331 1.460 . S
C335 C334 1.477 . S
C335 H355 0.930 . S
C336 N332 1.362 . S
C336 C333 1.431 . S
C336 C346 1.468 1_554 S
H337 C331 0.929 . S
C338 O329 1.250 . S
C338 O330 1.258 . S
O339 Mn324 2.162 . S
O339 C327 1.281 . S
O340 Mn324 2.297 . S
O340 C327 1.236 . S
N341 Mn325 2.282 . S
N341 C342 1.328 1_554 S
N341 C346 1.313 1_554 S
C342 N341 1.328 1_556 S
C342 C343 1.457 . S
C342 H347 0.929 . S
C343 C342 1.457 . S
C343 C344 1.291 . S
C343 H356 0.931 . S
C344 C343 1.291 . S
C344 C345 1.373 . S
C344 H357 0.929 . S
C345 C344 1.373 . S
C345 C346 1.408 . S
C345 C352 1.403 . S
C346 C336 1.468 1_556 S
C346 N341 1.313 1_556 S
C346 C345 1.408 . S
H347 C342 0.929 . S
O348 Mn324 2.385 1_556 S
O348 C326 1.234 1_556 S
O349 Mn324 2.209 . S
O349 Mn325 2.215 . S
O349 C326 1.283 . S
O350 Mn324 2.094 . S
O350 C328 1.240 . S
O351 Mn325 2.117 . S
O351 C328 1.264 . S
C352 C345 1.403 . S
C352 C353 1.399 . S
C352 H358 0.929 . S
C353 C333 1.449 1_556 S
C353 C352 1.399 . S
C353 H359 0.930 . S
H354 C334 0.931 . S
H355 C335 0.930 . S
H356 C343 0.931 . S
H357 C344 0.929 . S
H358 C352 0.929 . S
H359 C353 0.930 . S
Mn360 O365 2.095 . S
Mn360 O375 2.162 . S
Mn360 O376 2.297 . S
Mn360 O384 2.385 1_554 S
Mn360 O385 2.209 . S
Mn360 O386 2.094 . S
Mn361 O366 2.121 . S
Mn361 N368 2.257 . S
Mn361 N377 2.282 . S
Mn361 O385 2.215 . S
Mn361 O387 2.117 . S
C362 O384 1.234 1_554 S
C362 O385 1.283 . S
C363 O375 1.281 . S
C363 O376 1.236 . S
C364 O386 1.240 . S
C364 O387 1.264 . S
O365 Mn360 2.095 . S
O365 C374 1.250 . S
O366 Mn361 2.121 . S
O366 C374 1.258 . S
C367 N368 1.326 . S
C367 C371 1.460 . S
C367 H373 0.929 . S
N368 Mn361 2.257 . S
N368 C367 1.326 . S
N368 C372 1.362 . S
C369 C370 1.258 . S
C369 C372 1.431 . S
C369 C389 1.449 1_554 S
C370 C369 1.258 . S
C370 C371 1.477 . S
C370 H390 0.931 . S
C371 C367 1.460 . S
C371 C370 1.477 . S
C371 H391 0.930 . S
C372 N368 1.362 . S
C372 C369 1.431 . S
C372 C382 1.467 1_554 S
H373 C367 0.929 . S
C374 O365 1.250 . S
C374 O366 1.258 . S
O375 Mn360 2.162 . S
O375 C363 1.281 . S
O376 Mn360 2.297 . S
O376 C363 1.236 . S
N377 Mn361 2.282 . S
N377 C378 1.328 1_554 S
N377 C382 1.313 1_554 S
C378 N377 1.328 1_556 S
C378 C379 1.457 . S
C378 H383 0.929 . S
C379 C378 1.457 . S
C379 C380 1.291 . S
C379 H392 0.931 . S
C380 C379 1.291 . S
C380 C381 1.373 . S
C380 H393 0.929 . S
C381 C380 1.373 . S
C381 C382 1.408 . S
C381 C388 1.403 . S
C382 C372 1.467 1_556 S
C382 N377 1.313 1_556 S
C382 C381 1.408 . S
H383 C378 0.929 . S
O384 Mn360 2.385 1_556 S
O384 C362 1.234 1_556 S
O385 Mn360 2.209 . S
O385 Mn361 2.215 . S
O385 C362 1.283 . S
O386 Mn360 2.094 . S
O386 C364 1.240 . S
O387 Mn361 2.117 . S
O387 C364 1.264 . S
C388 C381 1.403 . S
C388 C389 1.399 . S
C388 H394 0.929 . S
C389 C369 1.449 1_556 S
C389 C388 1.399 . S
C389 H395 0.930 . S
H390 C370 0.931 . S
H391 C371 0.930 . S
H392 C379 0.931 . S
H393 C380 0.929 . S
H394 C388 0.929 . S
H395 C389 0.930 . S
Mn396 O401 2.095 . S
Mn396 O411 2.162 . S
Mn396 O412 2.297 . S
Mn396 O420 2.385 1_554 S
Mn396 O421 2.209 . S
Mn396 O422 2.094 . S
Mn397 O402 2.121 . S
Mn397 N404 2.257 . S
Mn397 N413 2.282 . S
Mn397 O421 2.215 . S
Mn397 O423 2.117 . S
C398 O420 1.234 1_554 S
C398 O421 1.283 . S
C399 O411 1.281 . S
C399 O412 1.236 . S
C400 O422 1.240 . S
C400 O423 1.264 . S
O401 Mn396 2.095 . S
O401 C410 1.250 . S
O402 Mn397 2.121 . S
O402 C410 1.258 . S
C403 N404 1.326 . S
C403 C407 1.460 . S
C403 H409 0.929 . S
N404 Mn397 2.257 . S
N404 C403 1.326 . S
N404 C408 1.362 . S
C405 C406 1.258 . S
C405 C408 1.431 . S
C405 C425 1.449 1_554 S
C406 C405 1.258 . S
C406 C407 1.477 . S
C406 H426 0.931 . S
C407 C403 1.460 . S
C407 C406 1.477 . S
C407 H427 0.930 . S
C408 N404 1.362 . S
C408 C405 1.431 . S
C408 C418 1.467 1_554 S
H409 C403 0.929 . S
C410 O401 1.250 . S
C410 O402 1.258 . S
O411 Mn396 2.162 . S
O411 C399 1.281 . S
O412 Mn396 2.297 . S
O412 C399 1.236 . S
N413 Mn397 2.282 . S
N413 C414 1.328 1_554 S
N413 C418 1.312 1_554 S
C414 N413 1.328 1_556 S
C414 C415 1.457 . S
C414 H419 0.929 . S
C415 C414 1.457 . S
C415 C416 1.291 . S
C415 H428 0.931 . S
C416 C415 1.291 . S
C416 C417 1.373 . S
C416 H429 0.929 . S
C417 C416 1.373 . S
C417 C418 1.410 . S
C417 C424 1.403 . S
C418 C408 1.467 1_556 S
C418 N413 1.312 1_556 S
C418 C417 1.410 . S
H419 C414 0.929 . S
O420 Mn396 2.385 1_556 S
O420 C398 1.234 1_556 S
O421 Mn396 2.209 . S
O421 Mn397 2.215 . S
O421 C398 1.283 . S
O422 Mn396 2.094 . S
O422 C400 1.240 . S
O423 Mn397 2.117 . S
O423 C400 1.264 . S
C424 C417 1.403 . S
C424 C425 1.399 . S
C424 H430 0.929 . S
C425 C405 1.449 1_556 S
C425 C424 1.399 . S
C425 H431 0.930 . S
H426 C406 0.931 . S
H427 C407 0.930 . S
H428 C415 0.931 . S
H429 C416 0.929 . S
H430 C424 0.929 . S
H431 C425 0.930 . S
Mn432 O437 2.095 . S
Mn432 O447 2.162 . S
Mn432 O448 2.297 . S
Mn432 O456 2.385 . S
Mn432 O457 2.209 . S
Mn432 O458 2.094 . S
Mn433 O438 2.121 . S
Mn433 N440 2.257 . S
Mn433 N449 2.282 . S
Mn433 O457 2.215 . S
Mn433 O459 2.117 . S
C434 O456 1.234 . S
C434 O457 1.283 . S
C435 O447 1.281 . S
C435 O448 1.236 . S
C436 O458 1.240 . S
C436 O459 1.264 . S
O437 Mn432 2.095 . S
O437 C446 1.250 . S
O438 Mn433 2.121 . S
O438 C446 1.258 . S
C439 N440 1.326 . S
C439 C443 1.460 . S
C439 H445 0.929 . S
N440 Mn433 2.257 . S
N440 C439 1.326 . S
N440 C444 1.362 . S
C441 C442 1.258 . S
C441 C444 1.431 . S
C441 C461 1.449 . S
C442 C441 1.258 . S
C442 C443 1.477 . S
C442 H462 0.931 . S
C443 C439 1.460 . S
C443 C442 1.477 . S
C443 H463 0.930 . S
C444 N440 1.362 . S
C444 C441 1.431 . S
C444 C454 1.476 . S
H445 C439 0.929 . S
C446 O437 1.250 . S
C446 O438 1.258 . S
O447 Mn432 2.162 . S
O447 C435 1.281 . S
O448 Mn432 2.297 . S
O448 C435 1.236 . S
N449 Mn433 2.282 . S
N449 C450 1.328 . S
N449 C454 1.318 . S
C450 N449 1.328 . S
C450 C451 1.457 . S
C450 H455 0.929 . S
C451 C450 1.457 . S
C451 C452 1.291 . S
C451 H464 0.931 . S
C452 C451 1.291 . S
C452 C453 1.373 . S
C452 H465 0.929 . S
C453 C452 1.373 . S
C453 C454 1.396 . S
C453 C460 1.403 . S
C454 C444 1.476 . S
C454 N449 1.318 . S
C454 C453 1.396 . S
H455 C450 0.929 . S
O456 Mn432 2.385 . S
O456 C434 1.234 . S
O457 Mn432 2.209 . S
O457 Mn433 2.215 . S
O457 C434 1.283 . S
O458 Mn432 2.094 . S
O458 C436 1.240 . S
O459 Mn433 2.117 . S
O459 C436 1.264 . S
C460 C453 1.403 . S
C460 C461 1.399 . S
C460 H466 0.929 . S
C461 C441 1.449 . S
C461 C460 1.399 . S
C461 H467 0.930 . S
H462 C442 0.931 . S
H463 C443 0.930 . S
H464 C451 0.931 . S
H465 C452 0.929 . S
H466 C460 0.929 . S
H467 C461 0.930 . S
Mn468 O473 2.095 . S
Mn468 O483 2.162 . S
Mn468 O484 2.297 . S
Mn468 O492 2.385 . S
Mn468 O493 2.209 . S
Mn468 O494 2.094 . S
Mn469 O474 2.121 . S
Mn469 N476 2.257 . S
Mn469 N485 2.282 . S
Mn469 O493 2.215 . S
Mn469 O495 2.117 . S
C470 O492 1.234 . S
C470 O493 1.283 . S
C471 O483 1.281 . S
C471 O484 1.236 . S
C472 O494 1.240 . S
C472 O495 1.264 . S
O473 Mn468 2.095 . S
O473 C482 1.250 . S
O474 Mn469 2.121 . S
O474 C482 1.258 . S
C475 N476 1.326 . S
C475 C479 1.460 . S
C475 H481 0.929 . S
N476 Mn469 2.257 . S
N476 C475 1.326 . S
N476 C480 1.362 . S
C477 C478 1.258 . S
C477 C480 1.431 . S
C477 C497 1.449 . S
C478 C477 1.258 . S
C478 C479 1.477 . S
C478 H498 0.931 . S
C479 C475 1.460 . S
C479 C478 1.477 . S
C479 H499 0.930 . S
C480 N476 1.362 . S
C480 C477 1.431 . S
C480 C490 1.476 . S
H481 C475 0.929 . S
C482 O473 1.250 . S
C482 O474 1.258 . S
O483 Mn468 2.162 . S
O483 C471 1.281 . S
O484 Mn468 2.297 . S
O484 C471 1.236 . S
N485 Mn469 2.282 . S
N485 C486 1.328 . S
N485 C490 1.318 . S
C486 N485 1.328 . S
C486 C487 1.457 . S
C486 H491 0.929 . S
C487 C486 1.457 . S
C487 C488 1.291 . S
C487 H500 0.931 . S
C488 C487 1.291 . S
C488 C489 1.373 . S
C488 H501 0.929 . S
C489 C488 1.373 . S
C489 C490 1.396 . S
C489 C496 1.403 . S
C490 C480 1.476 . S
C490 N485 1.318 . S
C490 C489 1.396 . S
H491 C486 0.929 . S
O492 Mn468 2.385 . S
O492 C470 1.234 . S
O493 Mn468 2.209 . S
O493 Mn469 2.215 . S
O493 C470 1.283 . S
O494 Mn468 2.094 . S
O494 C472 1.240 . S
O495 Mn469 2.117 . S
O495 C472 1.264 . S
C496 C489 1.403 . S
C496 C497 1.399 . S
C496 H502 0.929 . S
C497 C477 1.449 . S
C497 C496 1.399 . S
C497 H503 0.930 . S
H498 C478 0.931 . S
H499 C479 0.930 . S
H500 C487 0.931 . S
H501 C488 0.929 . S
H502 C496 0.929 . S
H503 C497 0.930 . S
Mn504 O509 2.095 . S
Mn504 O519 2.162 . S
Mn504 O520 2.297 . S
Mn504 O528 2.385 . S
Mn504 O529 2.209 . S
Mn504 O530 2.094 . S
Mn505 O510 2.121 . S
Mn505 N512 2.257 . S
Mn505 N521 2.282 . S
Mn505 O529 2.215 . S
Mn505 O531 2.117 . S
C506 O528 1.234 . S
C506 O529 1.283 . S
C507 O519 1.281 . S
C507 O520 1.236 . S
C508 O530 1.240 . S
C508 O531 1.264 . S
O509 Mn504 2.095 . S
O509 C518 1.250 . S
O510 Mn505 2.121 . S
O510 C518 1.258 . S
C511 N512 1.326 . S
C511 C515 1.460 . S
C511 H517 0.929 . S
N512 Mn505 2.257 . S
N512 C511 1.326 . S
N512 C516 1.362 . S
C513 C514 1.258 . S
C513 C516 1.431 . S
C513 C533 1.449 . S
C514 C513 1.258 . S
C514 C515 1.477 . S
C514 H534 0.931 . S
C515 C511 1.460 . S
C515 C514 1.477 . S
C515 H535 0.930 . S
C516 N512 1.362 . S
C516 C513 1.431 . S
C516 C526 1.476 . S
H517 C511 0.929 . S
C518 O509 1.250 . S
C518 O510 1.258 . S
O519 Mn504 2.162 . S
O519 C507 1.281 . S
O520 Mn504 2.297 . S
O520 C507 1.236 . S
N521 Mn505 2.282 . S
N521 C522 1.328 . S
N521 C526 1.318 . S
C522 N521 1.328 . S
C522 C523 1.457 . S
C522 H527 0.929 . S
C523 C522 1.457 . S
C523 C524 1.291 . S
C523 H536 0.931 . S
C524 C523 1.291 . S
C524 C525 1.373 . S
C524 H537 0.929 . S
C525 C524 1.373 . S
C525 C526 1.396 . S
C525 C532 1.403 . S
C526 C516 1.476 . S
C526 N521 1.318 . S
C526 C525 1.396 . S
H527 C522 0.929 . S
O528 Mn504 2.385 . S
O528 C506 1.234 . S
O529 Mn504 2.209 . S
O529 Mn505 2.215 . S
O529 C506 1.283 . S
O530 Mn504 2.094 . S
O530 C508 1.240 . S
O531 Mn505 2.117 . S
O531 C508 1.264 . S
C532 C525 1.403 . S
C532 C533 1.399 . S
C532 H538 0.929 . S
C533 C513 1.449 . S
C533 C532 1.399 . S
C533 H539 0.930 . S
H534 C514 0.931 . S
H535 C515 0.930 . S
H536 C523 0.931 . S
H537 C524 0.929 . S
H538 C532 0.929 . S
H539 C533 0.930 . S
Mn540 O545 2.095 . S
Mn540 O555 2.162 . S
Mn540 O556 2.297 . S
Mn540 O564 2.385 . S
Mn540 O565 2.209 . S
Mn540 O566 2.094 . S
Mn541 O546 2.121 . S
Mn541 N548 2.215 1_655 S
Mn541 N557 2.282 . S
Mn541 O565 2.215 . S
Mn541 O567 2.117 . S
C542 O564 1.234 . S
C542 O565 1.283 . S
C543 O555 1.281 . S
C543 O556 1.236 . S
C544 O566 1.240 . S
C544 O567 1.264 . S
O545 Mn540 2.095 . S
O545 C554 1.250 . S
O546 Mn541 2.121 . S
O546 C554 1.258 . S
C547 N548 1.360 . S
C547 C551 1.460 . S
C547 H553 0.929 . S
N548 Mn541 2.215 1_455 S
N548 C547 1.360 . S
N548 C552 1.370 . S
C549 C550 1.258 . S
C549 C552 1.431 . S
C549 C569 1.449 . S
C550 C549 1.258 . S
C550 C551 1.477 . S
C550 H570 0.931 . S
C551 C547 1.460 . S
C551 C550 1.477 . S
C551 H571 0.930 . S
C552 N548 1.370 . S
C552 C549 1.431 . S
C552 C562 1.476 1_455 S
H553 C547 0.929 . S
C554 O545 1.250 . S
C554 O546 1.258 . S
O555 Mn540 2.162 . S
O555 C543 1.281 . S
O556 Mn540 2.297 . S
O556 C543 1.236 . S
N557 Mn541 2.282 . S
N557 C558 1.328 . S
N557 C562 1.318 . S
C558 N557 1.328 . S
C558 C559 1.457 . S
C558 H563 0.929 . S
C559 C558 1.457 . S
C559 C560 1.291 . S
C559 H572 0.931 . S
C560 C559 1.291 . S
C560 C561 1.373 1_655 S
C560 H573 0.929 . S
C561 C560 1.373 1_455 S
C561 C562 1.396 1_455 S
C561 C568 1.403 . S
C562 C552 1.476 1_655 S
C562 N557 1.318 . S
C562 C561 1.396 1_655 S
H563 C558 0.929 . S
O564 Mn540 2.385 . S
O564 C542 1.234 . S
O565 Mn540 2.209 . S
O565 Mn541 2.215 . S
O565 C542 1.283 . S
O566 Mn540 2.094 . S
O566 C544 1.240 . S
O567 Mn541 2.117 . S
O567 C544 1.264 . S
C568 C561 1.403 . S
C568 C569 1.399 . S
C568 H574 0.929 . S
C569 C549 1.449 . S
C569 C568 1.399 . S
C569 H575 0.930 . S
H570 C550 0.931 . S
H571 C551 0.930 . S
H572 C559 0.931 . S
H573 C560 0.929 . S
H574 C568 0.929 . S
H575 C569 0.930 . S
Mn576 O581 2.095 . S
Mn576 O591 2.162 . S
Mn576 O592 2.297 . S
Mn576 O600 2.385 . S
Mn576 O601 2.209 . S
Mn576 O602 2.094 . S
Mn577 O582 2.121 . S
Mn577 N584 2.257 . S
Mn577 N593 2.282 . S
Mn577 O601 2.215 . S
Mn577 O603 2.117 . S
C578 O600 1.234 . S
C578 O601 1.283 . S
C579 O591 1.281 . S
C579 O592 1.236 . S
C580 O602 1.240 . S
C580 O603 1.264 . S
O581 Mn576 2.095 . S
O581 C590 1.250 . S
O582 Mn577 2.121 . S
O582 C590 1.258 . S
C583 N584 1.326 . S
C583 C587 1.460 . S
C583 H589 0.929 . S
N584 Mn577 2.257 . S
N584 C583 1.326 . S
N584 C588 1.362 . S
C585 C586 1.258 . S
C585 C588 1.431 . S
C585 C605 1.449 . S
C586 C585 1.258 . S
C586 C587 1.477 . S
C586 H606 0.931 . S
C587 C583 1.460 . S
C587 C586 1.477 . S
C587 H607 0.930 . S
C588 N584 1.362 . S
C588 C585 1.431 . S
C588 C598 1.476 . S
H589 C583 0.929 . S
C590 O581 1.250 . S
C590 O582 1.258 . S
O591 Mn576 2.162 . S
O591 C579 1.281 . S
O592 Mn576 2.297 . S
O592 C579 1.236 . S
N593 Mn577 2.282 . S
N593 C594 1.328 . S
N593 C598 1.318 . S
C594 N593 1.328 . S
C594 C595 1.457 . S
C594 H599 0.929 . S
C595 C594 1.457 . S
C595 C596 1.291 . S
C595 H608 0.931 . S
C596 C595 1.291 . S
C596 C597 1.373 . S
C596 H609 0.929 . S
C597 C596 1.373 . S
C597 C598 1.396 . S
C597 C604 1.403 . S
C598 C588 1.476 . S
C598 N593 1.318 . S
C598 C597 1.396 . S
H599 C594 0.929 . S
O600 Mn576 2.385 . S
O600 C578 1.234 . S
O601 Mn576 2.209 . S
O601 Mn577 2.215 . S
O601 C578 1.283 . S
O602 Mn576 2.094 . S
O602 C580 1.240 . S
O603 Mn577 2.117 . S
O603 C580 1.264 . S
C604 C597 1.403 . S
C604 C605 1.399 . S
C604 H610 0.929 . S
C605 C585 1.449 . S
C605 C604 1.399 . S
C605 H611 0.930 . S
H606 C586 0.931 . S
H607 C587 0.930 . S
H608 C595 0.931 . S
H609 C596 0.929 . S
H610 C604 0.929 . S
H611 C605 0.930 . S
Mn612 O617 2.095 . S
Mn612 O627 2.162 . S
Mn612 O628 2.297 . S
Mn612 O636 2.385 . S
Mn612 O637 2.209 . S
Mn612 O638 2.094 . S
Mn613 O618 2.121 . S
Mn613 N620 2.231 1_545 S
Mn613 N629 2.282 . S
Mn613 O637 2.215 . S
Mn613 O639 2.117 . S
C614 O636 1.234 . S
C614 O637 1.283 . S
C615 O627 1.281 . S
C615 O628 1.236 . S
C616 O638 1.240 . S
C616 O639 1.264 . S
O617 Mn612 2.095 . S
O617 C626 1.250 . S
O618 Mn613 2.121 . S
O618 C626 1.258 . S
C619 N620 1.332 . S
C619 C623 1.460 . S
C619 H625 0.929 . S
N620 Mn613 2.231 1_565 S
N620 C619 1.332 . S
N620 C624 1.386 . S
C621 C622 1.258 . S
C621 C624 1.431 . S
C621 C641 1.449 . S
C622 C621 1.258 . S
C622 C623 1.477 . S
C622 H642 0.931 . S
C623 C619 1.460 . S
C623 C622 1.477 . S
C623 H643 0.930 . S
C624 N620 1.386 . S
C624 C621 1.431 . S
C624 C634 1.476 1_565 S
H625 C619 0.929 . S
C626 O617 1.250 . S
C626 O618 1.258 . S
O627 Mn612 2.162 . S
O627 C615 1.281 . S
O628 Mn612 2.297 . S
O628 C615 1.236 . S
N629 Mn613 2.282 . S
N629 C630 1.328 . S
N629 C634 1.318 . S
C630 N629 1.328 . S
C630 C631 1.457 . S
C630 H635 0.929 . S
C631 C630 1.457 . S
C631 C632 1.291 . S
C631 H644 0.931 . S
C632 C631 1.291 . S
C632 C633 1.373 1_545 S
C632 H645 0.929 . S
C633 C632 1.373 1_565 S
C633 C634 1.396 1_565 S
C633 C640 1.403 . S
C634 C624 1.476 1_545 S
C634 N629 1.318 . S
C634 C633 1.396 1_545 S
H635 C630 0.929 . S
O636 Mn612 2.385 . S
O636 C614 1.234 . S
O637 Mn612 2.209 . S
O637 Mn613 2.215 . S
O637 C614 1.283 . S
O638 Mn612 2.094 . S
O638 C616 1.240 . S
O639 Mn613 2.117 . S
O639 C616 1.264 . S
C640 C633 1.403 . S
C640 C641 1.399 . S
C640 H646 0.929 . S
C641 C621 1.449 . S
C641 C640 1.399 . S
C641 H647 0.930 . S
H642 C622 0.931 . S
H643 C623 0.930 . S
H644 C631 0.931 . S
H645 C632 0.929 . S
H646 C640 0.929 . S
H647 C641 0.930 . S
Mn648 O653 2.095 . S
Mn648 O663 2.162 . S
Mn648 O664 2.297 . S
Mn648 O672 2.385 . S
Mn648 O673 2.209 . S
Mn648 O674 2.094 . S
Mn649 O654 2.121 . S
Mn649 N656 2.215 1_545 S
Mn649 N665 2.282 . S
Mn649 O673 2.215 . S
Mn649 O675 2.117 . S
C650 O672 1.234 . S
C650 O673 1.283 . S
C651 O663 1.281 . S
C651 O664 1.236 . S
C652 O674 1.240 . S
C652 O675 1.264 . S
O653 Mn648 2.095 . S
O653 C662 1.250 . S
O654 Mn649 2.121 . S
O654 C662 1.258 . S
C655 N656 1.359 . S
C655 C659 1.460 . S
C655 H661 0.929 . S
N656 Mn649 2.215 1_565 S
N656 C655 1.359 . S
N656 C660 1.370 . S
C657 C658 1.258 . S
C657 C660 1.431 . S
C657 C677 1.449 . S
C658 C657 1.258 . S
C658 C659 1.477 . S
C658 H678 0.931 . S
C659 C655 1.460 . S
C659 C658 1.477 . S
C659 H679 0.930 . S
C660 N656 1.370 . S
C660 C657 1.431 . S
C660 C670 1.476 1_565 S
H661 C655 0.929 . S
C662 O653 1.250 . S
C662 O654 1.258 . S
O663 Mn648 2.162 . S
O663 C651 1.281 . S
O664 Mn648 2.297 . S
O664 C651 1.236 . S
N665 Mn649 2.282 . S
N665 C666 1.328 . S
N665 C670 1.318 . S
C666 N665 1.328 . S
C666 C667 1.457 . S
C666 H671 0.929 . S
C667 C666 1.457 . S
C667 C668 1.291 . S
C667 H680 0.931 . S
C668 C667 1.291 . S
C668 C669 1.373 1_545 S
C668 H681 0.929 . S
C669 C668 1.373 1_565 S
C669 C670 1.396 1_565 S
C669 C676 1.403 . S
C670 C660 1.476 1_545 S
C670 N665 1.318 . S
C670 C669 1.396 1_545 S
H671 C666 0.929 . S
O672 Mn648 2.385 . S
O672 C650 1.234 . S
O673 Mn648 2.209 . S
O673 Mn649 2.215 . S
O673 C650 1.283 . S
O674 Mn648 2.094 . S
O674 C652 1.240 . S
O675 Mn649 2.117 . S
O675 C652 1.264 . S
C676 C669 1.403 . S
C676 C677 1.399 . S
C676 H682 0.929 . S
C677 C657 1.449 . S
C677 C676 1.399 . S
C677 H683 0.930 . S
H678 C658 0.931 . S
H679 C659 0.930 . S
H680 C667 0.931 . S
H681 C668 0.929 . S
H682 C676 0.929 . S
H683 C677 0.930 . S
Mn684 O689 2.095 . S
Mn684 O699 2.162 . S
Mn684 O700 2.297 . S
Mn684 O708 2.385 . S
Mn684 O709 2.209 . S
Mn684 O710 2.094 . S
Mn685 O690 2.121 . S
Mn685 N692 2.232 1_655 S
Mn685 N701 2.282 . S
Mn685 O709 2.215 . S
Mn685 O711 2.117 . S
C686 O708 1.234 . S
C686 O709 1.283 . S
C687 O699 1.281 . S
C687 O700 1.236 . S
C688 O710 1.240 . S
C688 O711 1.264 . S
O689 Mn684 2.095 . S
O689 C698 1.250 . S
O690 Mn685 2.121 . S
O690 C698 1.258 . S
C691 N692 1.332 . S
C691 C695 1.460 . S
C691 H697 0.929 . S
N692 Mn685 2.232 1_455 S
N692 C691 1.332 . S
N692 C696 1.386 . S
C693 C694 1.258 . S
C693 C696 1.431 . S
C693 C713 1.449 . S
C694 C693 1.258 . S
C694 C695 1.477 . S
C694 H714 0.931 . S
C695 C691 1.460 . S
C695 C694 1.477 . S
C695 H715 0.930 . S
C696 N692 1.386 . S
C696 C693 1.431 . S
C696 C706 1.476 1_455 S
H697 C691 0.929 . S
C698 O689 1.250 . S
C698 O690 1.258 . S
O699 Mn684 2.162 . S
O699 C687 1.281 . S
O700 Mn684 2.297 . S
O700 C687 1.236 . S
N701 Mn685 2.282 . S
N701 C702 1.328 . S
N701 C706 1.318 . S
C702 N701 1.328 . S
C702 C703 1.457 . S
C702 H707 0.929 . S
C703 C702 1.457 . S
C703 C704 1.291 . S
C703 H716 0.931 . S
C704 C703 1.291 . S
C704 C705 1.373 1_655 S
C704 H717 0.929 . S
C705 C704 1.373 1_455 S
C705 C706 1.396 1_455 S
C705 C712 1.403 . S
C706 C696 1.476 1_655 S
C706 N701 1.318 . S
C706 C705 1.396 1_655 S
H707 C702 0.929 . S
O708 Mn684 2.385 . S
O708 C686 1.234 . S
O709 Mn684 2.209 . S
O709 Mn685 2.215 . S
O709 C686 1.283 . S
O710 Mn684 2.094 . S
O710 C688 1.240 . S
O711 Mn685 2.117 . S
O711 C688 1.264 . S
C712 C705 1.403 . S
C712 C713 1.399 . S
C712 H718 0.929 . S
C713 C693 1.449 . S
C713 C712 1.399 . S
C713 H719 0.930 . S
H714 C694 0.931 . S
H715 C695 0.930 . S
H716 C703 0.931 . S
H717 C704 0.929 . S
H718 C712 0.929 . S
H719 C713 0.930 . S
Mn720 O725 2.095 . S
Mn720 O735 2.162 . S
Mn720 O736 2.297 . S
Mn720 O744 2.385 . S
Mn720 O745 2.209 . S
Mn720 O746 2.094 . S
Mn721 O726 2.121 . S
Mn721 N728 2.257 . S
Mn721 N737 2.282 . S
Mn721 O745 2.215 . S
Mn721 O747 2.117 . S
C722 O744 1.234 . S
C722 O745 1.283 . S
C723 O735 1.281 . S
C723 O736 1.236 . S
C724 O746 1.240 . S
C724 O747 1.264 . S
O725 Mn720 2.095 . S
O725 C734 1.250 . S
O726 Mn721 2.121 . S
O726 C734 1.258 . S
C727 N728 1.326 . S
C727 C731 1.460 . S
C727 H733 0.929 . S
N728 Mn721 2.257 . S
N728 C727 1.326 . S
N728 C732 1.362 . S
C729 C730 1.258 . S
C729 C732 1.431 . S
C729 C749 1.449 . S
C730 C729 1.258 . S
C730 C731 1.477 . S
C730 H750 0.931 . S
C731 C727 1.460 . S
C731 C730 1.477 . S
C731 H751 0.930 . S
C732 N728 1.362 . S
C732 C729 1.431 . S
C732 C742 1.476 . S
H733 C727 0.929 . S
C734 O725 1.250 . S
C734 O726 1.258 . S
O735 Mn720 2.162 . S
O735 C723 1.281 . S
O736 Mn720 2.297 . S
O736 C723 1.236 . S
N737 Mn721 2.282 . S
N737 C738 1.328 . S
N737 C742 1.318 . S
C738 N737 1.328 . S
C738 C739 1.457 . S
C738 H743 0.929 . S
C739 C738 1.457 . S
C739 C740 1.291 . S
C739 H752 0.931 . S
C740 C739 1.291 . S
C740 C741 1.373 . S
C740 H753 0.929 . S
C741 C740 1.373 . S
C741 C742 1.396 . S
C741 C748 1.403 . S
C742 C732 1.476 . S
C742 N737 1.318 . S
C742 C741 1.396 . S
H743 C738 0.929 . S
O744 Mn720 2.385 . S
O744 C722 1.234 . S
O745 Mn720 2.209 . S
O745 Mn721 2.215 . S
O745 C722 1.283 . S
O746 Mn720 2.094 . S
O746 C724 1.240 . S
O747 Mn721 2.117 . S
O747 C724 1.264 . S
C748 C741 1.403 . S
C748 C749 1.399 . S
C748 H754 0.929 . S
C749 C729 1.449 . S
C749 C748 1.399 . S
C749 H755 0.930 . S
H750 C730 0.931 . S
H751 C731 0.930 . S
H752 C739 0.931 . S
H753 C740 0.929 . S
H754 C748 0.929 . S
H755 C749 0.930 . S
Mn756 O761 2.095 . S
Mn756 O771 2.162 . S
Mn756 O772 2.297 . S
Mn756 O780 2.385 . S
Mn756 O781 2.209 . S
Mn756 O782 2.094 . S
Mn757 O762 2.121 . S
Mn757 N764 2.257 . S
Mn757 N773 2.282 . S
Mn757 O781 2.215 . S
Mn757 O783 2.117 . S
C758 O780 1.234 . S
C758 O781 1.283 . S
C759 O771 1.281 . S
C759 O772 1.236 . S
C760 O782 1.240 . S
C760 O783 1.264 . S
O761 Mn756 2.095 . S
O761 C770 1.250 . S
O762 Mn757 2.121 . S
O762 C770 1.258 . S
C763 N764 1.326 . S
C763 C767 1.460 . S
C763 H769 0.929 . S
N764 Mn757 2.257 . S
N764 C763 1.326 . S
N764 C768 1.362 . S
C765 C766 1.258 . S
C765 C768 1.431 . S
C765 C785 1.449 . S
C766 C765 1.258 . S
C766 C767 1.477 . S
C766 H786 0.931 . S
C767 C763 1.460 . S
C767 C766 1.477 . S
C767 H787 0.930 . S
C768 N764 1.362 . S
C768 C765 1.431 . S
C768 C778 1.476 . S
H769 C763 0.929 . S
C770 O761 1.250 . S
C770 O762 1.258 . S
O771 Mn756 2.162 . S
O771 C759 1.281 . S
O772 Mn756 2.297 . S
O772 C759 1.236 . S
N773 Mn757 2.282 . S
N773 C774 1.328 . S
N773 C778 1.318 . S
C774 N773 1.328 . S
C774 C775 1.457 . S
C774 H779 0.929 . S
C775 C774 1.457 . S
C775 C776 1.291 . S
C775 H788 0.931 . S
C776 C775 1.291 . S
C776 C777 1.373 . S
C776 H789 0.929 . S
C777 C776 1.373 . S
C777 C778 1.396 . S
C777 C784 1.403 . S
C778 C768 1.476 . S
C778 N773 1.318 . S
C778 C777 1.396 . S
H779 C774 0.929 . S
O780 Mn756 2.385 . S
O780 C758 1.234 . S
O781 Mn756 2.209 . S
O781 Mn757 2.215 . S
O781 C758 1.283 . S
O782 Mn756 2.094 . S
O782 C760 1.240 . S
O783 Mn757 2.117 . S
O783 C760 1.264 . S
C784 C777 1.403 . S
C784 C785 1.399 . S
C784 H790 0.929 . S
C785 C765 1.449 . S
C785 C784 1.399 . S
C785 H791 0.930 . S
H786 C766 0.931 . S
H787 C767 0.930 . S
H788 C775 0.931 . S
H789 C776 0.929 . S
H790 C784 0.929 . S
H791 C785 0.930 . S
Mn792 O797 2.095 . S
Mn792 O807 2.162 . S
Mn792 O808 2.297 . S
Mn792 O816 2.385 . S
Mn792 O817 2.209 . S
Mn792 O818 2.094 . S
Mn793 O798 2.121 . S
Mn793 N800 2.257 . S
Mn793 N809 2.282 . S
Mn793 O817 2.215 . S
Mn793 O819 2.117 . S
C794 O816 1.234 . S
C794 O817 1.283 . S
C795 O807 1.281 . S
C795 O808 1.236 . S
C796 O818 1.240 . S
C796 O819 1.264 . S
O797 Mn792 2.095 . S
O797 C806 1.250 . S
O798 Mn793 2.121 . S
O798 C806 1.258 . S
C799 N800 1.326 . S
C799 C803 1.460 . S
C799 H805 0.929 . S
N800 Mn793 2.257 . S
N800 C799 1.326 . S
N800 C804 1.362 . S
C801 C802 1.258 . S
C801 C804 1.431 . S
C801 C821 1.449 . S
C802 C801 1.258 . S
C802 C803 1.477 . S
C802 H822 0.931 . S
C803 C799 1.460 . S
C803 C802 1.477 . S
C803 H823 0.930 . S
C804 N800 1.362 . S
C804 C801 1.431 . S
C804 C814 1.476 . S
H805 C799 0.929 . S
C806 O797 1.250 . S
C806 O798 1.258 . S
O807 Mn792 2.162 . S
O807 C795 1.281 . S
O808 Mn792 2.297 . S
O808 C795 1.236 . S
N809 Mn793 2.282 . S
N809 C810 1.328 . S
N809 C814 1.318 . S
C810 N809 1.328 . S
C810 C811 1.457 . S
C810 H815 0.929 . S
C811 C810 1.457 . S
C811 C812 1.291 . S
C811 H824 0.931 . S
C812 C811 1.291 . S
C812 C813 1.373 . S
C812 H825 0.929 . S
C813 C812 1.373 . S
C813 C814 1.396 . S
C813 C820 1.403 . S
C814 C804 1.476 . S
C814 N809 1.318 . S
C814 C813 1.396 . S
H815 C810 0.929 . S
O816 Mn792 2.385 . S
O816 C794 1.234 . S
O817 Mn792 2.209 . S
O817 Mn793 2.215 . S
O817 C794 1.283 . S
O818 Mn792 2.094 . S
O818 C796 1.240 . S
O819 Mn793 2.117 . S
O819 C796 1.264 . S
C820 C813 1.403 . S
C820 C821 1.399 . S
C820 H826 0.929 . S
C821 C801 1.449 . S
C821 C820 1.399 . S
C821 H827 0.930 . S
H822 C802 0.931 . S
H823 C803 0.930 . S
H824 C811 0.931 . S
H825 C812 0.929 . S
H826 C820 0.929 . S
H827 C821 0.930 . S
Mn828 O833 2.095 . S
Mn828 O843 2.162 . S
Mn828 O844 2.297 . S
Mn828 O852 2.385 . S
Mn828 O853 2.209 . S
Mn828 O854 2.094 . S
Mn829 O834 2.121 . S
Mn829 N836 2.257 . S
Mn829 N845 2.282 . S
Mn829 O853 2.215 . S
Mn829 O855 2.117 . S
C830 O852 1.234 . S
C830 O853 1.283 . S
C831 O843 1.281 . S
C831 O844 1.236 . S
C832 O854 1.240 . S
C832 O855 1.264 . S
O833 Mn828 2.095 . S
O833 C842 1.250 . S
O834 Mn829 2.121 . S
O834 C842 1.258 . S
C835 N836 1.326 . S
C835 C839 1.460 . S
C835 H841 0.929 . S
N836 Mn829 2.257 . S
N836 C835 1.326 . S
N836 C840 1.362 . S
C837 C838 1.258 . S
C837 C840 1.431 . S
C837 C857 1.449 . S
C838 C837 1.258 . S
C838 C839 1.477 . S
C838 H858 0.931 . S
C839 C835 1.460 . S
C839 C838 1.477 . S
C839 H859 0.930 . S
C840 N836 1.362 . S
C840 C837 1.431 . S
C840 C850 1.476 . S
H841 C835 0.929 . S
C842 O833 1.250 . S
C842 O834 1.258 . S
O843 Mn828 2.162 . S
O843 C831 1.281 . S
O844 Mn828 2.297 . S
O844 C831 1.236 . S
N845 Mn829 2.282 . S
N845 C846 1.328 . S
N845 C850 1.318 . S
C846 N845 1.328 . S
C846 C847 1.457 . S
C846 H851 0.929 . S
C847 C846 1.457 . S
C847 C848 1.291 . S
C847 H860 0.931 . S
C848 C847 1.291 . S
C848 C849 1.373 . S
C848 H861 0.929 . S
C849 C848 1.373 . S
C849 C850 1.396 . S
C849 C856 1.403 . S
C850 C840 1.476 . S
C850 N845 1.318 . S
C850 C849 1.396 . S
H851 C846 0.929 . S
O852 Mn828 2.385 . S
O852 C830 1.234 . S
O853 Mn828 2.209 . S
O853 Mn829 2.215 . S
O853 C830 1.283 . S
O854 Mn828 2.094 . S
O854 C832 1.240 . S
O855 Mn829 2.117 . S
O855 C832 1.264 . S
C856 C849 1.403 . S
C856 C857 1.399 . S
C856 H862 0.929 . S
C857 C837 1.449 . S
C857 C856 1.399 . S
C857 H863 0.930 . S
H858 C838 0.931 . S
H859 C839 0.930 . S
H860 C847 0.931 . S
H861 C848 0.929 . S
H862 C856 0.929 . S
H863 C857 0.930 . S
Mn864 O869 2.095 . S
Mn864 O879 2.162 . S
Mn864 O880 2.297 . S
Mn864 O888 2.385 . S
Mn864 O889 2.209 . S
Mn864 O890 2.094 . S
Mn865 O870 2.121 . S
Mn865 N872 2.215 1_565 S
Mn865 N881 2.282 . S
Mn865 O889 2.215 . S
Mn865 O891 2.117 . S
C866 O888 1.234 . S
C866 O889 1.283 . S
C867 O879 1.281 . S
C867 O880 1.236 . S
C868 O890 1.240 . S
C868 O891 1.264 . S
O869 Mn864 2.095 . S
O869 C878 1.250 . S
O870 Mn865 2.121 . S
O870 C878 1.258 . S
C871 N872 1.359 . S
C871 C875 1.460 . S
C871 H877 0.929 . S
N872 Mn865 2.215 1_545 S
N872 C871 1.359 . S
N872 C876 1.370 . S
C873 C874 1.258 . S
C873 C876 1.431 . S
C873 C893 1.449 . S
C874 C873 1.258 . S
C874 C875 1.477 . S
C874 H894 0.931 . S
C875 C871 1.460 . S
C875 C874 1.477 . S
C875 H895 0.930 . S
C876 N872 1.370 . S
C876 C873 1.431 . S
C876 C886 1.476 1_545 S
H877 C871 0.929 . S
C878 O869 1.250 . S
C878 O870 1.258 . S
O879 Mn864 2.162 . S
O879 C867 1.281 . S
O880 Mn864 2.297 . S
O880 C867 1.236 . S
N881 Mn865 2.282 . S
N881 C882 1.328 . S
N881 C886 1.318 . S
C882 N881 1.328 . S
C882 C883 1.457 . S
C882 H887 0.929 . S
C883 C882 1.457 . S
C883 C884 1.291 . S
C883 H896 0.931 . S
C884 C883 1.291 . S
C884 C885 1.373 1_565 S
C884 H897 0.929 . S
C885 C884 1.373 1_545 S
C885 C886 1.396 1_545 S
C885 C892 1.403 . S
C886 C876 1.476 1_565 S
C886 N881 1.318 . S
C886 C885 1.396 1_565 S
H887 C882 0.929 . S
O888 Mn864 2.385 . S
O888 C866 1.234 . S
O889 Mn864 2.209 . S
O889 Mn865 2.215 . S
O889 C866 1.283 . S
O890 Mn864 2.094 . S
O890 C868 1.240 . S
O891 Mn865 2.117 . S
O891 C868 1.264 . S
C892 C885 1.403 . S
C892 C893 1.399 . S
C892 H898 0.929 . S
C893 C873 1.449 . S
C893 C892 1.399 . S
C893 H899 0.930 . S
H894 C874 0.931 . S
H895 C875 0.930 . S
H896 C883 0.931 . S
H897 C884 0.929 . S
H898 C892 0.929 . S
H899 C893 0.930 . S
Mn900 O905 2.095 . S
Mn900 O915 2.162 . S
Mn900 O916 2.297 . S
Mn900 O924 2.385 . S
Mn900 O925 2.209 . S
Mn900 O926 2.094 . S
Mn901 O906 2.121 . S
Mn901 N908 2.231 1_455 S
Mn901 N917 2.282 . S
Mn901 O925 2.215 . S
Mn901 O927 2.117 . S
C902 O924 1.234 . S
C902 O925 1.283 . S
C903 O915 1.281 . S
C903 O916 1.236 . S
C904 O926 1.240 . S
C904 O927 1.264 . S
O905 Mn900 2.095 . S
O905 C914 1.250 . S
O906 Mn901 2.121 . S
O906 C914 1.258 . S
C907 N908 1.333 . S
C907 C911 1.460 . S
C907 H913 0.929 . S
N908 Mn901 2.231 1_655 S
N908 C907 1.333 . S
N908 C912 1.386 . S
C909 C910 1.258 . S
C909 C912 1.431 . S
C909 C929 1.449 . S
C910 C909 1.258 . S
C910 C911 1.477 . S
C910 H930 0.931 . S
C911 C907 1.460 . S
C911 C910 1.477 . S
C911 H931 0.930 . S
C912 N908 1.386 . S
C912 C909 1.431 . S
C912 C922 1.476 1_655 S
H913 C907 0.929 . S
C914 O905 1.250 . S
C914 O906 1.258 . S
O915 Mn900 2.162 . S
O915 C903 1.281 . S
O916 Mn900 2.297 . S
O916 C903 1.236 . S
N917 Mn901 2.282 . S
N917 C918 1.328 . S
N917 C922 1.318 . S
C918 N917 1.328 . S
C918 C919 1.457 . S
C918 H923 0.929 . S
C919 C918 1.457 . S
C919 C920 1.291 . S
C919 H932 0.931 . S
C920 C919 1.291 . S
C920 C921 1.373 1_455 S
C920 H933 0.929 . S
C921 C920 1.373 1_655 S
C921 C922 1.396 1_655 S
C921 C928 1.403 . S
C922 C912 1.476 1_455 S
C922 N917 1.318 . S
C922 C921 1.396 1_455 S
H923 C918 0.929 . S
O924 Mn900 2.385 . S
O924 C902 1.234 . S
O925 Mn900 2.209 . S
O925 Mn901 2.215 . S
O925 C902 1.283 . S
O926 Mn900 2.094 . S
O926 C904 1.240 . S
O927 Mn901 2.117 . S
O927 C904 1.264 . S
C928 C921 1.403 . S
C928 C929 1.399 . S
C928 H934 0.929 . S
C929 C909 1.449 . S
C929 C928 1.399 . S
C929 H935 0.930 . S
H930 C910 0.931 . S
H931 C911 0.930 . S
H932 C919 0.931 . S
H933 C920 0.929 . S
H934 C928 0.929 . S
H935 C929 0.930 . S
Mn936 O941 2.095 . S
Mn936 O951 2.162 . S
Mn936 O952 2.297 . S
Mn936 O960 2.385 . S
Mn936 O961 2.209 . S
Mn936 O962 2.094 . S
Mn937 O942 2.121 . S
Mn937 N944 2.257 . S
Mn937 N953 2.282 . S
Mn937 O961 2.215 . S
Mn937 O963 2.117 . S
C938 O960 1.234 . S
C938 O961 1.283 . S
C939 O951 1.281 . S
C939 O952 1.236 . S
C940 O962 1.240 . S
C940 O963 1.264 . S
O941 Mn936 2.095 . S
O941 C950 1.250 . S
O942 Mn937 2.121 . S
O942 C950 1.258 . S
C943 N944 1.326 . S
C943 C947 1.460 . S
C943 H949 0.929 . S
N944 Mn937 2.257 . S
N944 C943 1.326 . S
N944 C948 1.362 . S
C945 C946 1.258 . S
C945 C948 1.431 . S
C945 C965 1.449 . S
C946 C945 1.258 . S
C946 C947 1.477 . S
C946 H966 0.931 . S
C947 C943 1.460 . S
C947 C946 1.477 . S
C947 H967 0.930 . S
C948 N944 1.362 . S
C948 C945 1.431 . S
C948 C958 1.476 . S
H949 C943 0.929 . S
C950 O941 1.250 . S
C950 O942 1.258 . S
O951 Mn936 2.162 . S
O951 C939 1.281 . S
O952 Mn936 2.297 . S
O952 C939 1.236 . S
N953 Mn937 2.282 . S
N953 C954 1.328 . S
N953 C958 1.318 . S
C954 N953 1.328 . S
C954 C955 1.457 . S
C954 H959 0.929 . S
C955 C954 1.457 . S
C955 C956 1.291 . S
C955 H968 0.931 . S
C956 C955 1.291 . S
C956 C957 1.373 . S
C956 H969 0.929 . S
C957 C956 1.373 . S
C957 C958 1.396 . S
C957 C964 1.403 . S
C958 C948 1.476 . S
C958 N953 1.318 . S
C958 C957 1.396 . S
H959 C954 0.929 . S
O960 Mn936 2.385 . S
O960 C938 1.234 . S
O961 Mn936 2.209 . S
O961 Mn937 2.215 . S
O961 C938 1.283 . S
O962 Mn936 2.094 . S
O962 C940 1.240 . S
O963 Mn937 2.117 . S
O963 C940 1.264 . S
C964 C957 1.403 . S
C964 C965 1.399 . S
C964 H970 0.929 . S
C965 C945 1.449 . S
C965 C964 1.399 . S
C965 H971 0.930 . S
H966 C946 0.931 . S
H967 C947 0.930 . S
H968 C955 0.931 . S
H969 C956 0.929 . S
H970 C964 0.929 . S
H971 C965 0.930 . S
Mn972 O977 2.095 . S
Mn972 O987 2.162 . S
Mn972 O988 2.297 . S
Mn972 O996 2.385 . S
Mn972 O997 2.209 . S
Mn972 O998 2.094 . S
Mn973 O978 2.121 . S
Mn973 N980 2.257 . S
Mn973 N989 2.282 . S
Mn973 O997 2.215 . S
Mn973 O999 2.117 . S
C974 O996 1.234 . S
C974 O997 1.283 . S
C975 O987 1.281 . S
C975 O988 1.236 . S
C976 O998 1.240 . S
C976 O999 1.264 . S
O977 Mn972 2.095 . S
O977 C986 1.250 . S
O978 Mn973 2.121 . S
O978 C986 1.258 . S
C979 N980 1.326 . S
C979 C983 1.460 . S
C979 H985 0.929 . S
N980 Mn973 2.257 . S
N980 C979 1.326 . S
N980 C984 1.362 . S
C981 C982 1.258 . S
C981 C984 1.431 . S
C981 C1001 1.449 . S
C982 C981 1.258 . S
C982 C983 1.477 . S
C982 H1002 0.931 . S
C983 C979 1.460 . S
C983 C982 1.477 . S
C983 H1003 0.930 . S
C984 N980 1.362 . S
C984 C981 1.431 . S
C984 C994 1.476 . S
H985 C979 0.929 . S
C986 O977 1.250 . S
C986 O978 1.258 . S
O987 Mn972 2.162 . S
O987 C975 1.281 . S
O988 Mn972 2.297 . S
O988 C975 1.236 . S
N989 Mn973 2.282 . S
N989 C990 1.328 . S
N989 C994 1.318 . S
C990 N989 1.328 . S
C990 C991 1.457 . S
C990 H995 0.929 . S
C991 C990 1.457 . S
C991 C992 1.291 . S
C991 H1004 0.931 . S
C992 C991 1.291 . S
C992 C993 1.373 . S
C992 H1005 0.929 . S
C993 C992 1.373 . S
C993 C994 1.396 . S
C993 C1000 1.403 . S
C994 C984 1.476 . S
C994 N989 1.318 . S
C994 C993 1.396 . S
H995 C990 0.929 . S
O996 Mn972 2.385 . S
O996 C974 1.234 . S
O997 Mn972 2.209 . S
O997 Mn973 2.215 . S
O997 C974 1.283 . S
O998 Mn972 2.094 . S
O998 C976 1.240 . S
O999 Mn973 2.117 . S
O999 C976 1.264 . S
C1000 C993 1.403 . S
C1000 C1001 1.399 . S
C1000 H1006 0.929 . S
C1001 C981 1.449 . S
C1001 C1000 1.399 . S
C1001 H1007 0.930 . S
H1002 C982 0.931 . S
H1003 C983 0.930 . S
H1004 C991 0.931 . S
H1005 C992 0.929 . S
H1006 C1000 0.929 . S
H1007 C1001 0.930 . S
Mn1008 O1013 2.095 . S
Mn1008 O1023 2.162 . S
Mn1008 O1024 2.297 . S
Mn1008 O1032 2.385 . S
Mn1008 O1033 2.209 . S
Mn1008 O1034 2.094 . S
Mn1009 O1014 2.121 . S
Mn1009 N1016 2.257 . S
Mn1009 N1025 2.282 . S
Mn1009 O1033 2.215 . S
Mn1009 O1035 2.117 . S
C1010 O1032 1.234 . S
C1010 O1033 1.283 . S
C1011 O1023 1.281 . S
C1011 O1024 1.236 . S
C1012 O1034 1.240 . S
C1012 O1035 1.264 . S
O1013 Mn1008 2.095 . S
O1013 C1022 1.250 . S
O1014 Mn1009 2.121 . S
O1014 C1022 1.258 . S
C1015 N1016 1.326 . S
C1015 C1019 1.460 . S
C1015 H1021 0.929 . S
N1016 Mn1009 2.257 . S
N1016 C1015 1.326 . S
N1016 C1020 1.362 . S
C1017 C1018 1.258 . S
C1017 C1020 1.431 . S
C1017 C1037 1.449 . S
C1018 C1017 1.258 . S
C1018 C1019 1.477 . S
C1018 H1038 0.931 . S
C1019 C1015 1.460 . S
C1019 C1018 1.477 . S
C1019 H1039 0.930 . S
C1020 N1016 1.362 . S
C1020 C1017 1.431 . S
C1020 C1030 1.476 . S
H1021 C1015 0.929 . S
C1022 O1013 1.250 . S
C1022 O1014 1.258 . S
O1023 Mn1008 2.162 . S
O1023 C1011 1.281 . S
O1024 Mn1008 2.297 . S
O1024 C1011 1.236 . S
N1025 Mn1009 2.282 . S
N1025 C1026 1.328 . S
N1025 C1030 1.318 . S
C1026 N1025 1.328 . S
C1026 C1027 1.457 . S
C1026 H1031 0.929 . S
C1027 C1026 1.457 . S
C1027 C1028 1.291 . S
C1027 H1040 0.931 . S
C1028 C1027 1.291 . S
C1028 C1029 1.373 . S
C1028 H1041 0.929 . S
C1029 C1028 1.373 . S
C1029 C1030 1.396 . S
C1029 C1036 1.403 . S
C1030 C1020 1.476 . S
C1030 N1025 1.318 . S
C1030 C1029 1.396 . S
H1031 C1026 0.929 . S
O1032 Mn1008 2.385 . S
O1032 C1010 1.234 . S
O1033 Mn1008 2.209 . S
O1033 Mn1009 2.215 . S
O1033 C1010 1.283 . S
O1034 Mn1008 2.094 . S
O1034 C1012 1.240 . S
O1035 Mn1009 2.117 . S
O1035 C1012 1.264 . S
C1036 C1029 1.403 . S
C1036 C1037 1.399 . S
C1036 H1042 0.929 . S
C1037 C1017 1.449 . S
C1037 C1036 1.399 . S
C1037 H1043 0.930 . S
H1038 C1018 0.931 . S
H1039 C1019 0.930 . S
H1040 C1027 0.931 . S
H1041 C1028 0.929 . S
H1042 C1036 0.929 . S
H1043 C1037 0.930 . S
Mn1044 O1049 2.095 . S
Mn1044 O1059 2.162 . S
Mn1044 O1060 2.297 . S
Mn1044 O1068 2.385 . S
Mn1044 O1069 2.209 . S
Mn1044 O1070 2.094 . S
Mn1045 O1050 2.121 . S
Mn1045 N1052 2.257 . S
Mn1045 N1061 2.282 . S
Mn1045 O1069 2.215 . S
Mn1045 O1071 2.117 . S
C1046 O1068 1.234 . S
C1046 O1069 1.283 . S
C1047 O1059 1.281 . S
C1047 O1060 1.236 . S
C1048 O1070 1.240 . S
C1048 O1071 1.264 . S
O1049 Mn1044 2.095 . S
O1049 C1058 1.250 . S
O1050 Mn1045 2.121 . S
O1050 C1058 1.258 . S
C1051 N1052 1.326 . S
C1051 C1055 1.460 . S
C1051 H1057 0.929 . S
N1052 Mn1045 2.257 . S
N1052 C1051 1.326 . S
N1052 C1056 1.362 . S
C1053 C1054 1.258 . S
C1053 C1056 1.431 . S
C1053 C1073 1.449 . S
C1054 C1053 1.258 . S
C1054 C1055 1.477 . S
C1054 H1074 0.931 . S
C1055 C1051 1.460 . S
C1055 C1054 1.477 . S
C1055 H1075 0.930 . S
C1056 N1052 1.362 . S
C1056 C1053 1.431 . S
C1056 C1066 1.476 . S
H1057 C1051 0.929 . S
C1058 O1049 1.250 . S
C1058 O1050 1.258 . S
O1059 Mn1044 2.162 . S
O1059 C1047 1.281 . S
O1060 Mn1044 2.297 . S
O1060 C1047 1.236 . S
N1061 Mn1045 2.282 . S
N1061 C1062 1.328 . S
N1061 C1066 1.318 . S
C1062 N1061 1.328 . S
C1062 C1063 1.457 . S
C1062 H1067 0.929 . S
C1063 C1062 1.457 . S
C1063 C1064 1.291 . S
C1063 H1076 0.931 . S
C1064 C1063 1.291 . S
C1064 C1065 1.373 . S
C1064 H1077 0.929 . S
C1065 C1064 1.373 . S
C1065 C1066 1.396 . S
C1065 C1072 1.403 . S
C1066 C1056 1.476 . S
C1066 N1061 1.318 . S
C1066 C1065 1.396 . S
H1067 C1062 0.929 . S
O1068 Mn1044 2.385 . S
O1068 C1046 1.234 . S
O1069 Mn1044 2.209 . S
O1069 Mn1045 2.215 . S
O1069 C1046 1.283 . S
O1070 Mn1044 2.094 . S
O1070 C1048 1.240 . S
O1071 Mn1045 2.117 . S
O1071 C1048 1.264 . S
C1072 C1065 1.403 . S
C1072 C1073 1.399 . S
C1072 H1078 0.929 . S
C1073 C1053 1.449 . S
C1073 C1072 1.399 . S
C1073 H1079 0.930 . S
H1074 C1054 0.931 . S
H1075 C1055 0.930 . S
H1076 C1063 0.931 . S
H1077 C1064 0.929 . S
H1078 C1072 0.929 . S
H1079 C1073 0.930 . S
Mn1080 O1085 2.095 . S
Mn1080 O1095 2.162 . S
Mn1080 O1096 2.297 . S
Mn1080 O1104 2.385 . S
Mn1080 O1105 2.209 . S
Mn1080 O1106 2.094 . S
Mn1081 O1086 2.121 . S
Mn1081 N1088 2.257 . S
Mn1081 N1097 2.282 . S
Mn1081 O1105 2.215 . S
Mn1081 O1107 2.117 . S
C1082 O1104 1.234 . S
C1082 O1105 1.283 . S
C1083 O1095 1.281 . S
C1083 O1096 1.236 . S
C1084 O1106 1.240 . S
C1084 O1107 1.264 . S
O1085 Mn1080 2.095 . S
O1085 C1094 1.250 . S
O1086 Mn1081 2.121 . S
O1086 C1094 1.258 . S
C1087 N1088 1.326 . S
C1087 C1091 1.460 . S
C1087 H1093 0.929 . S
N1088 Mn1081 2.257 . S
N1088 C1087 1.326 . S
N1088 C1092 1.362 . S
C1089 C1090 1.258 . S
C1089 C1092 1.431 . S
C1089 C1109 1.449 . S
C1090 C1089 1.258 . S
C1090 C1091 1.477 . S
C1090 H1110 0.931 . S
C1091 C1087 1.460 . S
C1091 C1090 1.477 . S
C1091 H1111 0.930 . S
C1092 N1088 1.362 . S
C1092 C1089 1.431 . S
C1092 C1102 1.476 . S
H1093 C1087 0.929 . S
C1094 O1085 1.250 . S
C1094 O1086 1.258 . S
O1095 Mn1080 2.162 . S
O1095 C1083 1.281 . S
O1096 Mn1080 2.297 . S
O1096 C1083 1.236 . S
N1097 Mn1081 2.282 . S
N1097 C1098 1.328 . S
N1097 C1102 1.318 . S
C1098 N1097 1.328 . S
C1098 C1099 1.457 . S
C1098 H1103 0.929 . S
C1099 C1098 1.457 . S
C1099 C1100 1.291 . S
C1099 H1112 0.931 . S
C1100 C1099 1.291 . S
C1100 C1101 1.373 . S
C1100 H1113 0.929 . S
C1101 C1100 1.373 . S
C1101 C1102 1.396 . S
C1101 C1108 1.403 . S
C1102 C1092 1.476 . S
C1102 N1097 1.318 . S
C1102 C1101 1.396 . S
H1103 C1098 0.929 . S
O1104 Mn1080 2.385 . S
O1104 C1082 1.234 . S
O1105 Mn1080 2.209 . S
O1105 Mn1081 2.215 . S
O1105 C1082 1.283 . S
O1106 Mn1080 2.094 . S
O1106 C1084 1.240 . S
O1107 Mn1081 2.117 . S
O1107 C1084 1.264 . S
C1108 C1101 1.403 . S
C1108 C1109 1.399 . S
C1108 H1114 0.929 . S
C1109 C1089 1.449 . S
C1109 C1108 1.399 . S
C1109 H1115 0.930 . S
H1110 C1090 0.931 . S
H1111 C1091 0.930 . S
H1112 C1099 0.931 . S
H1113 C1100 0.929 . S
H1114 C1108 0.929 . S
H1115 C1109 0.930 . S
Mn1116 O1121 2.095 . S
Mn1116 O1131 2.162 . S
Mn1116 O1132 2.297 . S
Mn1116 O1140 2.385 . S
Mn1116 O1141 2.209 . S
Mn1116 O1142 2.094 . S
Mn1117 O1122 2.121 . S
Mn1117 N1124 2.257 . S
Mn1117 N1133 2.282 . S
Mn1117 O1141 2.215 . S
Mn1117 O1143 2.117 . S
C1118 O1140 1.234 . S
C1118 O1141 1.283 . S
C1119 O1131 1.281 . S
C1119 O1132 1.236 . S
C1120 O1142 1.240 . S
C1120 O1143 1.264 . S
O1121 Mn1116 2.095 . S
O1121 C1130 1.250 . S
O1122 Mn1117 2.121 . S
O1122 C1130 1.258 . S
C1123 N1124 1.326 . S
C1123 C1127 1.460 . S
C1123 H1129 0.929 . S
N1124 Mn1117 2.257 . S
N1124 C1123 1.326 . S
N1124 C1128 1.362 . S
C1125 C1126 1.258 . S
C1125 C1128 1.431 . S
C1125 C1145 1.449 . S
C1126 C1125 1.258 . S
C1126 C1127 1.477 . S
C1126 H1146 0.931 . S
C1127 C1123 1.460 . S
C1127 C1126 1.477 . S
C1127 H1147 0.930 . S
C1128 N1124 1.362 . S
C1128 C1125 1.431 . S
C1128 C1138 1.476 . S
H1129 C1123 0.929 . S
C1130 O1121 1.250 . S
C1130 O1122 1.258 . S
O1131 Mn1116 2.162 . S
O1131 C1119 1.281 . S
O1132 Mn1116 2.297 . S
O1132 C1119 1.236 . S
N1133 Mn1117 2.282 . S
N1133 C1134 1.328 . S
N1133 C1138 1.318 . S
C1134 N1133 1.328 . S
C1134 C1135 1.457 . S
C1134 H1139 0.929 . S
C1135 C1134 1.457 . S
C1135 C1136 1.291 . S
C1135 H1148 0.931 . S
C1136 C1135 1.291 . S
C1136 C1137 1.373 . S
C1136 H1149 0.929 . S
C1137 C1136 1.373 . S
C1137 C1138 1.396 . S
C1137 C1144 1.403 . S
C1138 C1128 1.476 . S
C1138 N1133 1.318 . S
C1138 C1137 1.396 . S
H1139 C1134 0.929 . S
O1140 Mn1116 2.385 . S
O1140 C1118 1.234 . S
O1141 Mn1116 2.209 . S
O1141 Mn1117 2.215 . S
O1141 C1118 1.283 . S
O1142 Mn1116 2.094 . S
O1142 C1120 1.240 . S
O1143 Mn1117 2.117 . S
O1143 C1120 1.264 . S
C1144 C1137 1.403 . S
C1144 C1145 1.399 . S
C1144 H1150 0.929 . S
C1145 C1125 1.449 . S
C1145 C1144 1.399 . S
C1145 H1151 0.930 . S
H1146 C1126 0.931 . S
H1147 C1127 0.930 . S
H1148 C1135 0.931 . S
H1149 C1136 0.929 . S
H1150 C1144 0.929 . S
H1151 C1145 0.930 . S
Mn1152 O1157 2.095 . S
Mn1152 O1167 2.162 . S
Mn1152 O1168 2.297 . S
Mn1152 O1176 2.385 . S
Mn1152 O1177 2.209 . S
Mn1152 O1178 2.094 . S
Mn1153 O1158 2.121 . S
Mn1153 N1160 2.257 . S
Mn1153 N1169 2.282 . S
Mn1153 O1177 2.215 . S
Mn1153 O1179 2.117 . S
C1154 O1176 1.234 . S
C1154 O1177 1.283 . S
C1155 O1167 1.281 . S
C1155 O1168 1.236 . S
C1156 O1178 1.240 . S
C1156 O1179 1.264 . S
O1157 Mn1152 2.095 . S
O1157 C1166 1.250 . S
O1158 Mn1153 2.121 . S
O1158 C1166 1.258 . S
C1159 N1160 1.326 . S
C1159 C1163 1.460 . S
C1159 H1165 0.929 . S
N1160 Mn1153 2.257 . S
N1160 C1159 1.326 . S
N1160 C1164 1.362 . S
C1161 C1162 1.258 . S
C1161 C1164 1.431 . S
C1161 C1181 1.449 . S
C1162 C1161 1.258 . S
C1162 C1163 1.477 . S
C1162 H1182 0.931 . S
C1163 C1159 1.460 . S
C1163 C1162 1.477 . S
C1163 H1183 0.930 . S
C1164 N1160 1.362 . S
C1164 C1161 1.431 . S
C1164 C1174 1.476 . S
H1165 C1159 0.929 . S
C1166 O1157 1.250 . S
C1166 O1158 1.258 . S
O1167 Mn1152 2.162 . S
O1167 C1155 1.281 . S
O1168 Mn1152 2.297 . S
O1168 C1155 1.236 . S
N1169 Mn1153 2.282 . S
N1169 C1170 1.328 . S
N1169 C1174 1.318 . S
C1170 N1169 1.328 . S
C1170 C1171 1.457 . S
C1170 H1175 0.929 . S
C1171 C1170 1.457 . S
C1171 C1172 1.291 . S
C1171 H1184 0.931 . S
C1172 C1171 1.291 . S
C1172 C1173 1.373 . S
C1172 H1185 0.929 . S
C1173 C1172 1.373 . S
C1173 C1174 1.396 . S
C1173 C1180 1.403 . S
C1174 C1164 1.476 . S
C1174 N1169 1.318 . S
C1174 C1173 1.396 . S
H1175 C1170 0.929 . S
O1176 Mn1152 2.385 . S
O1176 C1154 1.234 . S
O1177 Mn1152 2.209 . S
O1177 Mn1153 2.215 . S
O1177 C1154 1.283 . S
O1178 Mn1152 2.094 . S
O1178 C1156 1.240 . S
O1179 Mn1153 2.117 . S
O1179 C1156 1.264 . S
C1180 C1173 1.403 . S
C1180 C1181 1.399 . S
C1180 H1186 0.929 . S
C1181 C1161 1.449 . S
C1181 C1180 1.399 . S
C1181 H1187 0.930 . S
H1182 C1162 0.931 . S
H1183 C1163 0.930 . S
H1184 C1171 0.931 . S
H1185 C1172 0.929 . S
H1186 C1180 0.929 . S
H1187 C1181 0.930 . S
Mn1188 O1193 2.095 . S
Mn1188 O1203 2.162 . S
Mn1188 O1204 2.297 . S
Mn1188 O1212 2.385 . S
Mn1188 O1213 2.209 . S
Mn1188 O1214 2.094 . S
Mn1189 O1194 2.121 . S
Mn1189 N1196 2.214 1_455 S
Mn1189 N1205 2.282 . S
Mn1189 O1213 2.215 . S
Mn1189 O1215 2.117 . S
C1190 O1212 1.234 . S
C1190 O1213 1.283 . S
C1191 O1203 1.281 . S
C1191 O1204 1.236 . S
C1192 O1214 1.240 . S
C1192 O1215 1.264 . S
O1193 Mn1188 2.095 . S
O1193 C1202 1.250 . S
O1194 Mn1189 2.121 . S
O1194 C1202 1.258 . S
C1195 N1196 1.360 . S
C1195 C1199 1.460 . S
C1195 H1201 0.929 . S
N1196 Mn1189 2.214 1_655 S
N1196 C1195 1.360 . S
N1196 C1200 1.371 . S
C1197 C1198 1.258 . S
C1197 C1200 1.431 . S
C1197 C1217 1.449 . S
C1198 C1197 1.258 . S
C1198 C1199 1.477 . S
C1198 H1218 0.931 . S
C1199 C1195 1.460 . S
C1199 C1198 1.477 . S
C1199 H1219 0.930 . S
C1200 N1196 1.371 . S
C1200 C1197 1.431 . S
C1200 C1210 1.476 1_655 S
H1201 C1195 0.929 . S
C1202 O1193 1.250 . S
C1202 O1194 1.258 . S
O1203 Mn1188 2.162 . S
O1203 C1191 1.281 . S
O1204 Mn1188 2.297 . S
O1204 C1191 1.236 . S
N1205 Mn1189 2.282 . S
N1205 C1206 1.328 . S
N1205 C1210 1.318 . S
C1206 N1205 1.328 . S
C1206 C1207 1.457 . S
C1206 H1211 0.929 . S
C1207 C1206 1.457 . S
C1207 C1208 1.291 . S
C1207 H1220 0.931 . S
C1208 C1207 1.291 . S
C1208 C1209 1.373 1_455 S
C1208 H1221 0.929 . S
C1209 C1208 1.373 1_655 S
C1209 C1210 1.396 1_655 S
C1209 C1216 1.403 . S
C1210 C1200 1.476 1_455 S
C1210 N1205 1.318 . S
C1210 C1209 1.396 1_455 S
H1211 C1206 0.929 . S
O1212 Mn1188 2.385 . S
O1212 C1190 1.234 . S
O1213 Mn1188 2.209 . S
O1213 Mn1189 2.215 . S
O1213 C1190 1.283 . S
O1214 Mn1188 2.094 . S
O1214 C1192 1.240 . S
O1215 Mn1189 2.117 . S
O1215 C1192 1.264 . S
C1216 C1209 1.403 . S
C1216 C1217 1.399 . S
C1216 H1222 0.929 . S
C1217 C1197 1.449 . S
C1217 C1216 1.399 . S
C1217 H1223 0.930 . S
H1218 C1198 0.931 . S
H1219 C1199 0.930 . S
H1220 C1207 0.931 . S
H1221 C1208 0.929 . S
H1222 C1216 0.929 . S
H1223 C1217 0.930 . S
Mn1224 O1229 2.095 . S
Mn1224 O1239 2.162 . S
Mn1224 O1240 2.297 . S
Mn1224 O1248 2.385 . S
Mn1224 O1249 2.209 . S
Mn1224 O1250 2.094 . S
Mn1225 O1230 2.121 . S
Mn1225 N1232 2.257 . S
Mn1225 N1241 2.282 . S
Mn1225 O1249 2.215 . S
Mn1225 O1251 2.117 . S
C1226 O1248 1.234 . S
C1226 O1249 1.283 . S
C1227 O1239 1.281 . S
C1227 O1240 1.236 . S
C1228 O1250 1.240 . S
C1228 O1251 1.264 . S
O1229 Mn1224 2.095 . S
O1229 C1238 1.250 . S
O1230 Mn1225 2.121 . S
O1230 C1238 1.258 . S
C1231 N1232 1.326 . S
C1231 C1235 1.460 . S
C1231 H1237 0.929 . S
N1232 Mn1225 2.257 . S
N1232 C1231 1.326 . S
N1232 C1236 1.362 . S
C1233 C1234 1.258 . S
C1233 C1236 1.431 . S
C1233 C1253 1.449 . S
C1234 C1233 1.258 . S
C1234 C1235 1.477 . S
C1234 H1254 0.931 . S
C1235 C1231 1.460 . S
C1235 C1234 1.477 . S
C1235 H1255 0.930 . S
C1236 N1232 1.362 . S
C1236 C1233 1.431 . S
C1236 C1246 1.476 . S
H1237 C1231 0.929 . S
C1238 O1229 1.250 . S
C1238 O1230 1.258 . S
O1239 Mn1224 2.162 . S
O1239 C1227 1.281 . S
O1240 Mn1224 2.297 . S
O1240 C1227 1.236 . S
N1241 Mn1225 2.282 . S
N1241 C1242 1.328 . S
N1241 C1246 1.318 . S
C1242 N1241 1.328 . S
C1242 C1243 1.457 . S
C1242 H1247 0.929 . S
C1243 C1242 1.457 . S
C1243 C1244 1.291 . S
C1243 H1256 0.931 . S
C1244 C1243 1.291 . S
C1244 C1245 1.373 . S
C1244 H1257 0.929 . S
C1245 C1244 1.373 . S
C1245 C1246 1.396 . S
C1245 C1252 1.403 . S
C1246 C1236 1.476 . S
C1246 N1241 1.318 . S
C1246 C1245 1.396 . S
H1247 C1242 0.929 . S
O1248 Mn1224 2.385 . S
O1248 C1226 1.234 . S
O1249 Mn1224 2.209 . S
O1249 Mn1225 2.215 . S
O1249 C1226 1.283 . S
O1250 Mn1224 2.094 . S
O1250 C1228 1.240 . S
O1251 Mn1225 2.117 . S
O1251 C1228 1.264 . S
C1252 C1245 1.403 . S
C1252 C1253 1.399 . S
C1252 H1258 0.929 . S
C1253 C1233 1.449 . S
C1253 C1252 1.399 . S
C1253 H1259 0.930 . S
H1254 C1234 0.931 . S
H1255 C1235 0.930 . S
H1256 C1243 0.931 . S
H1257 C1244 0.929 . S
H1258 C1252 0.929 . S
H1259 C1253 0.930 . S
Mn1260 O1265 2.095 . S
Mn1260 O1275 2.162 . S
Mn1260 O1276 2.297 . S
Mn1260 O1284 2.385 . S
Mn1260 O1285 2.209 . S
Mn1260 O1286 2.094 . S
Mn1261 O1266 2.121 . S
Mn1261 N1268 2.231 1_565 S
Mn1261 N1277 2.282 . S
Mn1261 O1285 2.215 . S
Mn1261 O1287 2.117 . S
C1262 O1284 1.234 . S
C1262 O1285 1.283 . S
C1263 O1275 1.281 . S
C1263 O1276 1.236 . S
C1264 O1286 1.240 . S
C1264 O1287 1.264 . S
O1265 Mn1260 2.095 . S
O1265 C1274 1.250 . S
O1266 Mn1261 2.121 . S
O1266 C1274 1.258 . S
C1267 N1268 1.332 . S
C1267 C1271 1.460 . S
C1267 H1273 0.929 . S
N1268 Mn1261 2.231 1_545 S
N1268 C1267 1.332 . S
N1268 C1272 1.386 . S
C1269 C1270 1.258 . S
C1269 C1272 1.431 . S
C1269 C1289 1.449 . S
C1270 C1269 1.258 . S
C1270 C1271 1.477 . S
C1270 H1290 0.931 . S
C1271 C1267 1.460 . S
C1271 C1270 1.477 . S
C1271 H1291 0.930 . S
C1272 N1268 1.386 . S
C1272 C1269 1.431 . S
C1272 C1282 1.476 1_545 S
H1273 C1267 0.929 . S
C1274 O1265 1.250 . S
C1274 O1266 1.258 . S
O1275 Mn1260 2.162 . S
O1275 C1263 1.281 . S
O1276 Mn1260 2.297 . S
O1276 C1263 1.236 . S
N1277 Mn1261 2.282 . S
N1277 C1278 1.328 . S
N1277 C1282 1.318 . S
C1278 N1277 1.328 . S
C1278 C1279 1.457 . S
C1278 H1283 0.929 . S
C1279 C1278 1.457 . S
C1279 C1280 1.291 . S
C1279 H1292 0.931 . S
C1280 C1279 1.291 . S
C1280 C1281 1.373 1_565 S
C1280 H1293 0.929 . S
C1281 C1280 1.373 1_545 S
C1281 C1282 1.396 1_545 S
C1281 C1288 1.403 . S
C1282 C1272 1.476 1_565 S
C1282 N1277 1.318 . S
C1282 C1281 1.396 1_565 S
H1283 C1278 0.929 . S
O1284 Mn1260 2.385 . S
O1284 C1262 1.234 . S
O1285 Mn1260 2.209 . S
O1285 Mn1261 2.215 . S
O1285 C1262 1.283 . S
O1286 Mn1260 2.094 . S
O1286 C1264 1.240 . S
O1287 Mn1261 2.117 . S
O1287 C1264 1.264 . S
C1288 C1281 1.403 . S
C1288 C1289 1.399 . S
C1288 H1294 0.929 . S
C1289 C1269 1.449 . S
C1289 C1288 1.399 . S
C1289 H1295 0.930 . S
H1290 C1270 0.931 . S
H1291 C1271 0.930 . S
H1292 C1279 0.931 . S
H1293 C1280 0.929 . S
H1294 C1288 0.929 . S
H1295 C1289 0.930 . S
C1296 C1297 1.349 . S
C1296 C1298 1.327 . S
C1296 H1321 0.950 . S
C1297 C1296 1.349 . S
C1297 C1313 1.349 . S
C1298 C1296 1.327 . S
C1298 C1317 1.429 . S
C1298 H1322 0.950 . S
C1299 C1316 1.574 . S
C1299 C1318 1.368 . S
C1299 H1323 0.949 . S
H1300 C1304 0.949 . S
C1301 C1302 1.349 . S
C1301 C1303 1.327 . S
C1301 H1324 0.950 . S
C1302 C1301 1.349 . S
C1302 C1314 1.349 . S
C1303 C1301 1.327 . S
C1303 C1319 1.429 . S
C1303 H1325 0.950 . S
C1304 H1300 0.949 . S
C1304 C1312 1.574 . S
C1304 C1320 1.368 . S
H1305 C1313 0.950 . S
H1306 C1311 0.950 . S
H1307 C1312 0.949 . S
H1308 C1314 0.950 . S
H1309 C1315 0.950 . S
H1310 C1316 0.949 . S
C1311 H1306 0.950 . S
C1311 C1313 1.327 . S
C1311 C1317 1.429 . S
C1312 C1304 1.574 . S
C1312 H1307 0.949 . S
C1312 C1318 1.368 . S
C1313 C1297 1.349 . S
C1313 H1305 0.950 . S
C1313 C1311 1.327 . S
C1314 C1302 1.349 . S
C1314 H1308 0.950 . S
C1314 C1315 1.327 . S
C1315 H1309 0.950 . S
C1315 C1314 1.327 . S
C1315 C1319 1.429 . S
C1316 C1299 1.574 . S
C1316 H1310 0.949 . S
C1316 C1320 1.368 . S
C1317 C1298 1.429 . S
C1317 C1311 1.429 . S
C1317 C1318 1.523 . S
C1318 C1299 1.368 . S
C1318 C1312 1.368 . S
C1318 C1317 1.523 . S
C1319 C1303 1.429 . S
C1319 C1315 1.429 . S
C1319 C1320 1.523 . S
C1320 C1304 1.368 . S
C1320 C1316 1.368 . S
C1320 C1319 1.523 . S
H1321 C1296 0.950 . S
H1322 C1298 0.950 . S
H1323 C1299 0.949 . S
H1324 C1301 0.950 . S
H1325 C1303 0.950 . S
C1326 C1327 1.349 . S
C1326 C1328 1.327 . S
C1326 H1351 0.950 . S
C1327 C1326 1.349 . S
C1327 C1343 1.349 . S
C1328 C1326 1.327 . S
C1328 C1347 1.429 . S
C1328 H1352 0.950 . S
C1329 C1346 1.574 . S
C1329 C1348 1.368 . S
C1329 H1353 0.949 . S
H1330 C1334 0.949 . S
C1331 C1332 1.349 . S
C1331 C1333 1.327 . S
C1331 H1354 0.950 . S
C1332 C1331 1.349 . S
C1332 C1344 1.349 . S
C1333 C1331 1.327 . S
C1333 C1349 1.429 . S
C1333 H1355 0.950 . S
C1334 H1330 0.949 . S
C1334 C1342 1.574 . S
C1334 C1350 1.368 . S
H1335 C1343 0.950 . S
H1336 C1341 0.950 . S
H1337 C1342 0.949 . S
H1338 C1344 0.950 . S
H1339 C1345 0.950 . S
H1340 C1346 0.949 . S
C1341 H1336 0.950 . S
C1341 C1343 1.327 . S
C1341 C1347 1.429 . S
C1342 C1334 1.574 . S
C1342 H1337 0.949 . S
C1342 C1348 1.368 . S
C1343 C1327 1.349 . S
C1343 H1335 0.950 . S
C1343 C1341 1.327 . S
C1344 C1332 1.349 . S
C1344 H1338 0.950 . S
C1344 C1345 1.327 . S
C1345 H1339 0.950 . S
C1345 C1344 1.327 . S
C1345 C1349 1.429 . S
C1346 C1329 1.574 . S
C1346 H1340 0.949 . S
C1346 C1350 1.368 . S
C1347 C1328 1.429 . S
C1347 C1341 1.429 . S
C1347 C1348 1.523 . S
C1348 C1329 1.368 . S
C1348 C1342 1.368 . S
C1348 C1347 1.523 . S
C1349 C1333 1.429 . S
C1349 C1345 1.429 . S
C1349 C1350 1.523 . S
C1350 C1334 1.368 . S
C1350 C1346 1.368 . S
C1350 C1349 1.523 . S
H1351 C1326 0.950 . S
H1352 C1328 0.950 . S
H1353 C1329 0.949 . S
H1354 C1331 0.950 . S
H1355 C1333 0.950 . S
C1356 C1357 1.349 . S
C1356 C1358 1.327 . S
C1356 H1381 0.950 . S
C1357 C1356 1.349 . S
C1357 C1373 1.349 . S
C1358 C1356 1.327 . S
C1358 C1377 1.429 . S
C1358 H1382 0.950 . S
C1359 C1376 1.574 . S
C1359 C1378 1.368 . S
C1359 H1383 0.949 . S
H1360 C1364 0.949 . S
C1361 C1362 1.349 . S
C1361 C1363 1.327 . S
C1361 H1384 0.950 . S
C1362 C1361 1.349 . S
C1362 C1374 1.349 . S
C1363 C1361 1.327 . S
C1363 C1379 1.429 . S
C1363 H1385 0.950 . S
C1364 H1360 0.949 . S
C1364 C1372 1.574 . S
C1364 C1380 1.368 . S
H1365 C1373 0.950 . S
H1366 C1371 0.950 . S
H1367 C1372 0.949 . S
H1368 C1374 0.950 . S
H1369 C1375 0.950 . S
H1370 C1376 0.949 . S
C1371 H1366 0.950 . S
C1371 C1373 1.327 . S
C1371 C1377 1.429 . S
C1372 C1364 1.574 . S
C1372 H1367 0.949 . S
C1372 C1378 1.368 . S
C1373 C1357 1.349 . S
C1373 H1365 0.950 . S
C1373 C1371 1.327 . S
C1374 C1362 1.349 . S
C1374 H1368 0.950 . S
C1374 C1375 1.327 . S
C1375 H1369 0.950 . S
C1375 C1374 1.327 . S
C1375 C1379 1.429 . S
C1376 C1359 1.574 . S
C1376 H1370 0.949 . S
C1376 C1380 1.368 . S
C1377 C1358 1.429 . S
C1377 C1371 1.429 . S
C1377 C1378 1.523 . S
C1378 C1359 1.368 . S
C1378 C1372 1.368 . S
C1378 C1377 1.523 . S
C1379 C1363 1.429 . S
C1379 C1375 1.429 . S
C1379 C1380 1.523 . S
C1380 C1364 1.368 . S
C1380 C1376 1.368 . S
C1380 C1379 1.523 . S
H1381 C1356 0.950 . S
H1382 C1358 0.950 . S
H1383 C1359 0.949 . S
H1384 C1361 0.950 . S
H1385 C1363 0.950 . S
C1386 C1387 1.349 . S
C1386 C1388 1.327 . S
C1386 H1411 0.950 . S
C1387 C1386 1.349 . S
C1387 C1403 1.349 . S
C1388 C1386 1.327 . S
C1388 C1407 1.429 . S
C1388 H1412 0.950 . S
C1389 C1406 1.574 . S
C1389 C1408 1.368 . S
C1389 H1413 0.949 . S
H1390 C1394 0.949 . S
C1391 C1392 1.349 . S
C1391 C1393 1.327 . S
C1391 H1414 0.950 . S
C1392 C1391 1.349 . S
C1392 C1404 1.349 . S
C1393 C1391 1.327 . S
C1393 C1409 1.429 . S
C1393 H1415 0.950 . S
C1394 H1390 0.949 . S
C1394 C1402 1.574 . S
C1394 C1410 1.368 . S
H1395 C1403 0.950 . S
H1396 C1401 0.950 . S
H1397 C1402 0.949 . S
H1398 C1404 0.950 . S
H1399 C1405 0.950 . S
H1400 C1406 0.949 . S
C1401 H1396 0.950 . S
C1401 C1403 1.327 . S
C1401 C1407 1.429 . S
C1402 C1394 1.574 . S
C1402 H1397 0.949 . S
C1402 C1408 1.368 . S
C1403 C1387 1.349 . S
C1403 H1395 0.950 . S
C1403 C1401 1.327 . S
C1404 C1392 1.349 . S
C1404 H1398 0.950 . S
C1404 C1405 1.327 . S
C1405 H1399 0.950 . S
C1405 C1404 1.327 . S
C1405 C1409 1.429 . S
C1406 C1389 1.574 . S
C1406 H1400 0.949 . S
C1406 C1410 1.368 . S
C1407 C1388 1.429 . S
C1407 C1401 1.429 . S
C1407 C1408 1.523 . S
C1408 C1389 1.368 . S
C1408 C1402 1.368 . S
C1408 C1407 1.523 . S
C1409 C1393 1.429 . S
C1409 C1405 1.429 . S
C1409 C1410 1.523 . S
C1410 C1394 1.368 . S
C1410 C1406 1.368 . S
C1410 C1409 1.523 . S
H1411 C1386 0.950 . S
H1412 C1388 0.950 . S
H1413 C1389 0.949 . S
H1414 C1391 0.950 . S
H1415 C1393 0.950 . S
C1416 C1417 1.349 . S
C1416 C1418 1.327 . S
C1416 H1441 0.950 . S
C1417 C1416 1.349 . S
C1417 C1433 1.349 . S
C1418 C1416 1.327 . S
C1418 C1437 1.429 . S
C1418 H1442 0.950 . S
C1419 C1436 1.574 . S
C1419 C1438 1.368 . S
C1419 H1443 0.949 . S
H1420 C1424 0.949 . S
C1421 C1422 1.349 . S
C1421 C1423 1.327 . S
C1421 H1444 0.950 . S
C1422 C1421 1.349 . S
C1422 C1434 1.349 . S
C1423 C1421 1.327 . S
C1423 C1439 1.429 . S
C1423 H1445 0.950 . S
C1424 H1420 0.949 . S
C1424 C1432 1.574 . S
C1424 C1440 1.368 . S
H1425 C1433 0.950 . S
H1426 C1431 0.950 . S
H1427 C1432 0.949 . S
H1428 C1434 0.950 . S
H1429 C1435 0.950 . S
H1430 C1436 0.949 . S
C1431 H1426 0.950 . S
C1431 C1433 1.327 . S
C1431 C1437 1.429 . S
C1432 C1424 1.574 . S
C1432 H1427 0.949 . S
C1432 C1438 1.368 . S
C1433 C1417 1.349 . S
C1433 H1425 0.950 . S
C1433 C1431 1.327 . S
C1434 C1422 1.349 . S
C1434 H1428 0.950 . S
C1434 C1435 1.327 . S
C1435 H1429 0.950 . S
C1435 C1434 1.327 . S
C1435 C1439 1.429 . S
C1436 C1419 1.574 . S
C1436 H1430 0.949 . S
C1436 C1440 1.368 . S
C1437 C1418 1.429 . S
C1437 C1431 1.429 . S
C1437 C1438 1.523 . S
C1438 C1419 1.368 . S
C1438 C1432 1.368 . S
C1438 C1437 1.523 . S
C1439 C1423 1.429 . S
C1439 C1435 1.429 . S
C1439 C1440 1.523 . S
C1440 C1424 1.368 . S
C1440 C1436 1.368 . S
C1440 C1439 1.523 . S
H1441 C1416 0.950 . S
H1442 C1418 0.950 . S
H1443 C1419 0.949 . S
H1444 C1421 0.950 . S
H1445 C1423 0.950 . S
C1446 C1447 1.349 . S
C1446 C1448 1.327 . S
C1446 H1471 0.950 . S
C1447 C1446 1.349 . S
C1447 C1463 1.349 . S
C1448 C1446 1.327 . S
C1448 C1467 1.429 . S
C1448 H1472 0.950 . S
C1449 C1466 1.574 . S
C1449 C1468 1.368 . S
C1449 H1473 0.949 . S
H1450 C1454 0.949 . S
C1451 C1452 1.349 . S
C1451 C1453 1.327 . S
C1451 H1474 0.950 . S
C1452 C1451 1.349 . S
C1452 C1464 1.349 . S
C1453 C1451 1.327 . S
C1453 C1469 1.429 . S
C1453 H1475 0.950 . S
C1454 H1450 0.949 . S
C1454 C1462 1.574 . S
C1454 C1470 1.368 . S
H1455 C1463 0.950 . S
H1456 C1461 0.950 . S
H1457 C1462 0.949 . S
H1458 C1464 0.950 . S
H1459 C1465 0.950 . S
H1460 C1466 0.949 . S
C1461 H1456 0.950 . S
C1461 C1463 1.327 . S
C1461 C1467 1.429 . S
C1462 C1454 1.574 . S
C1462 H1457 0.949 . S
C1462 C1468 1.368 . S
C1463 C1447 1.349 . S
C1463 H1455 0.950 . S
C1463 C1461 1.327 . S
C1464 C1452 1.349 . S
C1464 H1458 0.950 . S
C1464 C1465 1.327 . S
C1465 H1459 0.950 . S
C1465 C1464 1.327 . S
C1465 C1469 1.429 . S
C1466 C1449 1.574 . S
C1466 H1460 0.949 . S
C1466 C1470 1.368 . S
C1467 C1448 1.429 . S
C1467 C1461 1.429 . S
C1467 C1468 1.523 . S
C1468 C1449 1.368 . S
C1468 C1462 1.368 . S
C1468 C1467 1.523 . S
C1469 C1453 1.429 . S
C1469 C1465 1.429 . S
C1469 C1470 1.523 . S
C1470 C1454 1.368 . S
C1470 C1466 1.368 . S
C1470 C1469 1.523 . S
H1471 C1446 0.950 . S
H1472 C1448 0.950 . S
H1473 C1449 0.949 . S
H1474 C1451 0.950 . S
H1475 C1453 0.950 . S
C1476 C1477 1.349 . S
C1476 C1478 1.327 . S
C1476 H1501 0.950 . S
C1477 C1476 1.349 . S
C1477 C1493 1.349 . S
C1478 C1476 1.327 . S
C1478 C1497 1.429 . S
C1478 H1502 0.950 . S
C1479 C1496 1.574 . S
C1479 C1498 1.368 . S
C1479 H1503 0.949 . S
H1480 C1484 0.949 . S
C1481 C1482 1.349 . S
C1481 C1483 1.327 . S
C1481 H1504 0.950 . S
C1482 C1481 1.349 . S
C1482 C1494 1.349 . S
C1483 C1481 1.327 . S
C1483 C1499 1.429 . S
C1483 H1505 0.950 . S
C1484 H1480 0.949 . S
C1484 C1492 1.574 . S
C1484 C1500 1.368 . S
H1485 C1493 0.950 . S
H1486 C1491 0.950 . S
H1487 C1492 0.949 . S
H1488 C1494 0.950 . S
H1489 C1495 0.950 . S
H1490 C1496 0.949 . S
C1491 H1486 0.950 . S
C1491 C1493 1.327 . S
C1491 C1497 1.429 . S
C1492 C1484 1.574 . S
C1492 H1487 0.949 . S
C1492 C1498 1.368 . S
C1493 C1477 1.349 . S
C1493 H1485 0.950 . S
C1493 C1491 1.327 . S
C1494 C1482 1.349 . S
C1494 H1488 0.950 . S
C1494 C1495 1.327 . S
C1495 H1489 0.950 . S
C1495 C1494 1.327 . S
C1495 C1499 1.429 . S
C1496 C1479 1.574 . S
C1496 H1490 0.949 . S
C1496 C1500 1.368 . S
C1497 C1478 1.429 . S
C1497 C1491 1.429 . S
C1497 C1498 1.523 . S
C1498 C1479 1.368 . S
C1498 C1492 1.368 . S
C1498 C1497 1.523 . S
C1499 C1483 1.429 . S
C1499 C1495 1.429 . S
C1499 C1500 1.523 . S
C1500 C1484 1.368 . S
C1500 C1496 1.368 . S
C1500 C1499 1.523 . S
H1501 C1476 0.950 . S
H1502 C1478 0.950 . S
H1503 C1479 0.949 . S
H1504 C1481 0.950 . S
H1505 C1483 0.950 . S
C1506 C1507 1.349 . S
C1506 C1508 1.327 . S
C1506 H1531 0.950 . S
C1507 C1506 1.349 . S
C1507 C1523 1.349 . S
C1508 C1506 1.327 . S
C1508 C1527 1.429 . S
C1508 H1532 0.950 . S
C1509 C1526 1.574 . S
C1509 C1528 1.368 . S
C1509 H1533 0.949 . S
H1510 C1514 0.949 . S
C1511 C1512 1.349 . S
C1511 C1513 1.327 . S
C1511 H1534 0.950 . S
C1512 C1511 1.349 . S
C1512 C1524 1.349 . S
C1513 C1511 1.327 . S
C1513 C1529 1.429 . S
C1513 H1535 0.950 . S
C1514 H1510 0.949 . S
C1514 C1522 1.574 . S
C1514 C1530 1.368 . S
H1515 C1523 0.950 . S
H1516 C1521 0.950 . S
H1517 C1522 0.949 . S
H1518 C1524 0.950 . S
H1519 C1525 0.950 . S
H1520 C1526 0.949 . S
C1521 H1516 0.950 . S
C1521 C1523 1.327 . S
C1521 C1527 1.429 . S
C1522 C1514 1.574 . S
C1522 H1517 0.949 . S
C1522 C1528 1.368 . S
C1523 C1507 1.349 . S
C1523 H1515 0.950 . S
C1523 C1521 1.327 . S
C1524 C1512 1.349 . S
C1524 H1518 0.950 . S
C1524 C1525 1.327 . S
C1525 H1519 0.950 . S
C1525 C1524 1.327 . S
C1525 C1529 1.429 . S
C1526 C1509 1.574 . S
C1526 H1520 0.949 . S
C1526 C1530 1.368 . S
C1527 C1508 1.429 . S
C1527 C1521 1.429 . S
C1527 C1528 1.523 . S
C1528 C1509 1.368 . S
C1528 C1522 1.368 . S
C1528 C1527 1.523 . S
C1529 C1513 1.429 . S
C1529 C1525 1.429 . S
C1529 C1530 1.523 . S
C1530 C1514 1.368 . S
C1530 C1526 1.368 . S
C1530 C1529 1.523 . S
H1531 C1506 0.950 . S
H1532 C1508 0.950 . S
H1533 C1509 0.949 . S
H1534 C1511 0.950 . S
H1535 C1513 0.950 . S
C1536 C1537 1.349 . S
C1536 C1538 1.327 . S
C1536 H1561 0.950 . S
C1537 C1536 1.349 . S
C1537 C1553 1.349 . S
C1538 C1536 1.327 . S
C1538 C1557 1.429 . S
C1538 H1562 0.950 . S
C1539 C1556 1.574 . S
C1539 C1558 1.368 . S
C1539 H1563 0.949 . S
H1540 C1544 0.949 . S
C1541 C1542 1.349 . S
C1541 C1543 1.327 . S
C1541 H1564 0.950 . S
C1542 C1541 1.349 . S
C1542 C1554 1.349 . S
C1543 C1541 1.327 . S
C1543 C1559 1.429 . S
C1543 H1565 0.950 . S
C1544 H1540 0.949 . S
C1544 C1552 1.574 . S
C1544 C1560 1.368 . S
H1545 C1553 0.950 . S
H1546 C1551 0.950 . S
H1547 C1552 0.949 . S
H1548 C1554 0.950 . S
H1549 C1555 0.950 . S
H1550 C1556 0.949 . S
C1551 H1546 0.950 . S
C1551 C1553 1.327 . S
C1551 C1557 1.429 . S
C1552 C1544 1.574 . S
C1552 H1547 0.949 . S
C1552 C1558 1.368 . S
C1553 C1537 1.349 . S
C1553 H1545 0.950 . S
C1553 C1551 1.327 . S
C1554 C1542 1.349 . S
C1554 H1548 0.950 . S
C1554 C1555 1.327 . S
C1555 H1549 0.950 . S
C1555 C1554 1.327 . S
C1555 C1559 1.429 . S
C1556 C1539 1.574 . S
C1556 H1550 0.949 . S
C1556 C1560 1.368 . S
C1557 C1538 1.429 . S
C1557 C1551 1.429 . S
C1557 C1558 1.523 . S
C1558 C1539 1.368 . S
C1558 C1552 1.368 . S
C1558 C1557 1.523 . S
C1559 C1543 1.429 . S
C1559 C1555 1.429 . S
C1559 C1560 1.523 . S
C1560 C1544 1.368 . S
C1560 C1556 1.368 . S
C1560 C1559 1.523 . S
H1561 C1536 0.950 . S
H1562 C1538 0.950 . S
H1563 C1539 0.949 . S
H1564 C1541 0.950 . S
H1565 C1543 0.950 . S
C1566 C1567 1.349 . S
C1566 C1568 1.327 . S
C1566 H1591 0.950 . S
C1567 C1566 1.349 . S
C1567 C1583 1.349 . S
C1568 C1566 1.327 . S
C1568 C1587 1.429 . S
C1568 H1592 0.950 . S
C1569 C1586 1.574 . S
C1569 C1588 1.368 . S
C1569 H1593 0.949 . S
H1570 C1574 0.949 . S
C1571 C1572 1.349 . S
C1571 C1573 1.327 . S
C1571 H1594 0.950 . S
C1572 C1571 1.349 . S
C1572 C1584 1.349 . S
C1573 C1571 1.327 . S
C1573 C1589 1.429 . S
C1573 H1595 0.950 . S
C1574 H1570 0.949 . S
C1574 C1582 1.574 . S
C1574 C1590 1.368 . S
H1575 C1583 0.950 . S
H1576 C1581 0.950 . S
H1577 C1582 0.949 . S
H1578 C1584 0.950 . S
H1579 C1585 0.950 . S
H1580 C1586 0.949 . S
C1581 H1576 0.950 . S
C1581 C1583 1.327 . S
C1581 C1587 1.429 . S
C1582 C1574 1.574 . S
C1582 H1577 0.949 . S
C1582 C1588 1.368 . S
C1583 C1567 1.349 . S
C1583 H1575 0.950 . S
C1583 C1581 1.327 . S
C1584 C1572 1.349 . S
C1584 H1578 0.950 . S
C1584 C1585 1.327 . S
C1585 H1579 0.950 . S
C1585 C1584 1.327 . S
C1585 C1589 1.429 . S
C1586 C1569 1.574 . S
C1586 H1580 0.949 . S
C1586 C1590 1.368 . S
C1587 C1568 1.429 . S
C1587 C1581 1.429 . S
C1587 C1588 1.523 . S
C1588 C1569 1.368 . S
C1588 C1582 1.368 . S
C1588 C1587 1.523 . S
C1589 C1573 1.429 . S
C1589 C1585 1.429 . S
C1589 C1590 1.523 . S
C1590 C1574 1.368 . S
C1590 C1586 1.368 . S
C1590 C1589 1.523 . S
H1591 C1566 0.950 . S
H1592 C1568 0.950 . S
H1593 C1569 0.949 . S
H1594 C1571 0.950 . S
H1595 C1573 0.950 . S
C1596 C1597 1.349 . S
C1596 C1598 1.327 . S
C1596 H1621 0.950 . S
C1597 C1596 1.349 . S
C1597 C1613 1.349 . S
C1598 C1596 1.327 . S
C1598 C1617 1.429 . S
C1598 H1622 0.950 . S
C1599 C1616 1.574 . S
C1599 C1618 1.368 . S
C1599 H1623 0.949 . S
H1600 C1604 0.949 . S
C1601 C1602 1.349 . S
C1601 C1603 1.327 . S
C1601 H1624 0.950 . S
C1602 C1601 1.349 . S
C1602 C1614 1.349 . S
C1603 C1601 1.327 . S
C1603 C1619 1.429 . S
C1603 H1625 0.950 . S
C1604 H1600 0.949 . S
C1604 C1612 1.574 . S
C1604 C1620 1.368 . S
H1605 C1613 0.950 . S
H1606 C1611 0.950 . S
H1607 C1612 0.949 . S
H1608 C1614 0.950 . S
H1609 C1615 0.950 . S
H1610 C1616 0.949 . S
C1611 H1606 0.950 . S
C1611 C1613 1.327 . S
C1611 C1617 1.429 . S
C1612 C1604 1.574 . S
C1612 H1607 0.949 . S
C1612 C1618 1.368 . S
C1613 C1597 1.349 . S
C1613 H1605 0.950 . S
C1613 C1611 1.327 . S
C1614 C1602 1.349 . S
C1614 H1608 0.950 . S
C1614 C1615 1.327 . S
C1615 H1609 0.950 . S
C1615 C1614 1.327 . S
C1615 C1619 1.429 . S
C1616 C1599 1.574 . S
C1616 H1610 0.949 . S
C1616 C1620 1.368 . S
C1617 C1598 1.429 . S
C1617 C1611 1.429 . S
C1617 C1618 1.523 . S
C1618 C1599 1.368 . S
C1618 C1612 1.368 . S
C1618 C1617 1.523 . S
C1619 C1603 1.429 . S
C1619 C1615 1.429 . S
C1619 C1620 1.523 . S
C1620 C1604 1.368 . S
C1620 C1616 1.368 . S
C1620 C1619 1.523 . S
H1621 C1596 0.950 . S
H1622 C1598 0.950 . S
H1623 C1599 0.949 . S
H1624 C1601 0.950 . S
H1625 C1603 0.950 . S
C1626 C1627 1.349 . S
C1626 C1628 1.327 . S
C1626 H1651 0.950 . S
C1627 C1626 1.349 . S
C1627 C1643 1.349 . S
C1628 C1626 1.327 . S
C1628 C1647 1.429 . S
C1628 H1652 0.950 . S
C1629 C1646 1.574 . S
C1629 C1648 1.368 . S
C1629 H1653 0.949 . S
H1630 C1634 0.949 . S
C1631 C1632 1.349 . S
C1631 C1633 1.327 . S
C1631 H1654 0.950 . S
C1632 C1631 1.349 . S
C1632 C1644 1.349 . S
C1633 C1631 1.327 . S
C1633 C1649 1.429 . S
C1633 H1655 0.950 . S
C1634 H1630 0.949 . S
C1634 C1642 1.574 . S
C1634 C1650 1.368 . S
H1635 C1643 0.950 . S
H1636 C1641 0.950 . S
H1637 C1642 0.949 . S
H1638 C1644 0.950 . S
H1639 C1645 0.950 . S
H1640 C1646 0.949 . S
C1641 H1636 0.950 . S
C1641 C1643 1.327 . S
C1641 C1647 1.429 . S
C1642 C1634 1.574 . S
C1642 H1637 0.949 . S
C1642 C1648 1.368 . S
C1643 C1627 1.349 . S
C1643 H1635 0.950 . S
C1643 C1641 1.327 . S
C1644 C1632 1.349 . S
C1644 H1638 0.950 . S
C1644 C1645 1.327 . S
C1645 H1639 0.950 . S
C1645 C1644 1.327 . S
C1645 C1649 1.429 . S
C1646 C1629 1.574 . S
C1646 H1640 0.949 . S
C1646 C1650 1.368 . S
C1647 C1628 1.429 . S
C1647 C1641 1.429 . S
C1647 C1648 1.523 . S
C1648 C1629 1.368 . S
C1648 C1642 1.368 . S
C1648 C1647 1.523 . S
C1649 C1633 1.429 . S
C1649 C1645 1.429 . S
C1649 C1650 1.523 . S
C1650 C1634 1.368 . S
C1650 C1646 1.368 . S
C1650 C1649 1.523 . S
H1651 C1626 0.950 . S
H1652 C1628 0.950 . S
H1653 C1629 0.949 . S
H1654 C1631 0.950 . S
H1655 C1633 0.950 . S
C1656 C1657 1.349 . S
C1656 C1658 1.327 . S
C1656 H1681 0.950 . S
C1657 C1656 1.349 . S
C1657 C1673 1.349 . S
C1658 C1656 1.327 . S
C1658 C1677 1.429 . S
C1658 H1682 0.950 . S
C1659 C1676 1.574 . S
C1659 C1678 1.368 . S
C1659 H1683 0.949 . S
H1660 C1664 0.949 . S
C1661 C1662 1.349 . S
C1661 C1663 1.327 . S
C1661 H1684 0.950 . S
C1662 C1661 1.349 . S
C1662 C1674 1.349 . S
C1663 C1661 1.327 . S
C1663 C1679 1.429 . S
C1663 H1685 0.950 . S
C1664 H1660 0.949 . S
C1664 C1672 1.574 . S
C1664 C1680 1.368 . S
H1665 C1673 0.950 . S
H1666 C1671 0.950 . S
H1667 C1672 0.949 . S
H1668 C1674 0.950 . S
H1669 C1675 0.950 . S
H1670 C1676 0.949 . S
C1671 H1666 0.950 . S
C1671 C1673 1.327 . S
C1671 C1677 1.429 . S
C1672 C1664 1.574 . S
C1672 H1667 0.949 . S
C1672 C1678 1.368 . S
C1673 C1657 1.349 . S
C1673 H1665 0.950 . S
C1673 C1671 1.327 . S
C1674 C1662 1.349 . S
C1674 H1668 0.950 . S
C1674 C1675 1.327 . S
C1675 H1669 0.950 . S
C1675 C1674 1.327 . S
C1675 C1679 1.429 . S
C1676 C1659 1.574 . S
C1676 H1670 0.949 . S
C1676 C1680 1.368 . S
C1677 C1658 1.429 . S
C1677 C1671 1.429 . S
C1677 C1678 1.523 . S
C1678 C1659 1.368 . S
C1678 C1672 1.368 . S
C1678 C1677 1.523 . S
C1679 C1663 1.429 . S
C1679 C1675 1.429 . S
C1679 C1680 1.523 . S
C1680 C1664 1.368 . S
C1680 C1676 1.368 . S
C1680 C1679 1.523 . S
H1681 C1656 0.950 . S
H1682 C1658 0.950 . S
H1683 C1659 0.949 . S
H1684 C1661 0.950 . S
H1685 C1663 0.950 . S
C1686 C1687 1.349 . S
C1686 C1688 1.327 . S
C1686 H1711 0.950 . S
C1687 C1686 1.349 . S
C1687 C1703 1.349 . S
C1688 C1686 1.327 . S
C1688 C1707 1.429 . S
C1688 H1712 0.950 . S
C1689 C1706 1.574 . S
C1689 C1708 1.368 . S
C1689 H1713 0.949 . S
H1690 C1694 0.949 . S
C1691 C1692 1.349 . S
C1691 C1693 1.327 . S
C1691 H1714 0.950 . S
C1692 C1691 1.349 . S
C1692 C1704 1.349 . S
C1693 C1691 1.327 . S
C1693 C1709 1.429 . S
C1693 H1715 0.950 . S
C1694 H1690 0.949 . S
C1694 C1702 1.574 . S
C1694 C1710 1.368 . S
H1695 C1703 0.950 . S
H1696 C1701 0.950 . S
H1697 C1702 0.949 . S
H1698 C1704 0.950 . S
H1699 C1705 0.950 . S
H1700 C1706 0.949 . S
C1701 H1696 0.950 . S
C1701 C1703 1.327 . S
C1701 C1707 1.429 . S
C1702 C1694 1.574 . S
C1702 H1697 0.949 . S
C1702 C1708 1.368 . S
C1703 C1687 1.349 . S
C1703 H1695 0.950 . S
C1703 C1701 1.327 . S
C1704 C1692 1.349 . S
C1704 H1698 0.950 . S
C1704 C1705 1.327 . S
C1705 H1699 0.950 . S
C1705 C1704 1.327 . S
C1705 C1709 1.429 . S
C1706 C1689 1.574 . S
C1706 H1700 0.949 . S
C1706 C1710 1.368 . S
C1707 C1688 1.429 . S
C1707 C1701 1.429 . S
C1707 C1708 1.523 . S
C1708 C1689 1.368 . S
C1708 C1702 1.368 . S
C1708 C1707 1.523 . S
C1709 C1693 1.429 . S
C1709 C1705 1.429 . S
C1709 C1710 1.523 . S
C1710 C1694 1.368 . S
C1710 C1706 1.368 . S
C1710 C1709 1.523 . S
H1711 C1686 0.950 . S
H1712 C1688 0.950 . S
H1713 C1689 0.949 . S
H1714 C1691 0.950 . S
H1715 C1693 0.950 . S
C1716 C1717 1.349 . S
C1716 C1718 1.327 . S
C1716 H1741 0.950 . S
C1717 C1716 1.349 . S
C1717 C1733 1.349 . S
C1718 C1716 1.327 . S
C1718 C1737 1.429 . S
C1718 H1742 0.950 . S
C1719 C1736 1.574 . S
C1719 C1738 1.368 . S
C1719 H1743 0.949 . S
H1720 C1724 0.949 . S
C1721 C1722 1.349 . S
C1721 C1723 1.327 . S
C1721 H1744 0.950 . S
C1722 C1721 1.349 . S
C1722 C1734 1.349 . S
C1723 C1721 1.327 . S
C1723 C1739 1.429 . S
C1723 H1745 0.950 . S
C1724 H1720 0.949 . S
C1724 C1732 1.574 . S
C1724 C1740 1.368 . S
H1725 C1733 0.950 . S
H1726 C1731 0.950 . S
H1727 C1732 0.949 . S
H1728 C1734 0.950 . S
H1729 C1735 0.950 . S
H1730 C1736 0.949 . S
C1731 H1726 0.950 . S
C1731 C1733 1.327 . S
C1731 C1737 1.429 . S
C1732 C1724 1.574 . S
C1732 H1727 0.949 . S
C1732 C1738 1.368 . S
C1733 C1717 1.349 . S
C1733 H1725 0.950 . S
C1733 C1731 1.327 . S
C1734 C1722 1.349 . S
C1734 H1728 0.950 . S
C1734 C1735 1.327 . S
C1735 H1729 0.950 . S
C1735 C1734 1.327 . S
C1735 C1739 1.429 . S
C1736 C1719 1.574 . S
C1736 H1730 0.949 . S
C1736 C1740 1.368 . S
C1737 C1718 1.429 . S
C1737 C1731 1.429 . S
C1737 C1738 1.523 . S
C1738 C1719 1.368 . S
C1738 C1732 1.368 . S
C1738 C1737 1.523 . S
C1739 C1723 1.429 . S
C1739 C1735 1.429 . S
C1739 C1740 1.523 . S
C1740 C1724 1.368 . S
C1740 C1736 1.368 . S
C1740 C1739 1.523 . S
H1741 C1716 0.950 . S
H1742 C1718 0.950 . S
H1743 C1719 0.949 . S
H1744 C1721 0.950 . S
H1745 C1723 0.950 . S
C1746 C1747 1.349 . S
C1746 C1748 1.327 . S
C1746 H1771 0.950 . S
C1747 C1746 1.349 . S
C1747 C1763 1.349 . S
C1748 C1746 1.327 . S
C1748 C1767 1.429 . S
C1748 H1772 0.950 . S
C1749 C1766 1.574 . S
C1749 C1768 1.368 . S
C1749 H1773 0.949 . S
H1750 C1754 0.949 . S
C1751 C1752 1.349 . S
C1751 C1753 1.327 . S
C1751 H1774 0.950 . S
C1752 C1751 1.349 . S
C1752 C1764 1.349 . S
C1753 C1751 1.327 . S
C1753 C1769 1.429 . S
C1753 H1775 0.950 . S
C1754 H1750 0.949 . S
C1754 C1762 1.574 . S
C1754 C1770 1.368 . S
H1755 C1763 0.950 . S
H1756 C1761 0.950 . S
H1757 C1762 0.949 . S
H1758 C1764 0.950 . S
H1759 C1765 0.950 . S
H1760 C1766 0.949 . S
C1761 H1756 0.950 . S
C1761 C1763 1.327 . S
C1761 C1767 1.429 . S
C1762 C1754 1.574 . S
C1762 H1757 0.949 . S
C1762 C1768 1.368 . S
C1763 C1747 1.349 . S
C1763 H1755 0.950 . S
C1763 C1761 1.327 . S
C1764 C1752 1.349 . S
C1764 H1758 0.950 . S
C1764 C1765 1.327 . S
C1765 H1759 0.950 . S
C1765 C1764 1.327 . S
C1765 C1769 1.429 . S
C1766 C1749 1.574 . S
C1766 H1760 0.949 . S
C1766 C1770 1.368 . S
C1767 C1748 1.429 . S
C1767 C1761 1.429 . S
C1767 C1768 1.523 . S
C1768 C1749 1.368 . S
C1768 C1762 1.368 . S
C1768 C1767 1.523 . S
C1769 C1753 1.429 . S
C1769 C1765 1.429 . S
C1769 C1770 1.523 . S
C1770 C1754 1.368 . S
C1770 C1766 1.368 . S
C1770 C1769 1.523 . S
H1771 C1746 0.950 . S
H1772 C1748 0.950 . S
H1773 C1749 0.949 . S
H1774 C1751 0.950 . S
H1775 C1753 0.950 . S
C1776 C1777 1.349 . S
C1776 C1778 1.327 . S
C1776 H1801 0.950 . S
C1777 C1776 1.349 . S
C1777 C1793 1.349 . S
C1778 C1776 1.327 . S
C1778 C1797 1.429 . S
C1778 H1802 0.950 . S
C1779 C1796 1.574 . S
C1779 C1798 1.368 . S
C1779 H1803 0.949 . S
H1780 C1784 0.949 . S
C1781 C1782 1.349 . S
C1781 C1783 1.327 . S
C1781 H1804 0.950 . S
C1782 C1781 1.349 . S
C1782 C1794 1.349 . S
C1783 C1781 1.327 . S
C1783 C1799 1.429 . S
C1783 H1805 0.950 . S
C1784 H1780 0.949 . S
C1784 C1792 1.574 . S
C1784 C1800 1.368 . S
H1785 C1793 0.950 . S
H1786 C1791 0.950 . S
H1787 C1792 0.949 . S
H1788 C1794 0.950 . S
H1789 C1795 0.950 . S
H1790 C1796 0.949 . S
C1791 H1786 0.950 . S
C1791 C1793 1.327 . S
C1791 C1797 1.429 . S
C1792 C1784 1.574 . S
C1792 H1787 0.949 . S
C1792 C1798 1.368 . S
C1793 C1777 1.349 . S
C1793 H1785 0.950 . S
C1793 C1791 1.327 . S
C1794 C1782 1.349 . S
C1794 H1788 0.950 . S
C1794 C1795 1.327 . S
C1795 H1789 0.950 . S
C1795 C1794 1.327 . S
C1795 C1799 1.429 . S
C1796 C1779 1.574 . S
C1796 H1790 0.949 . S
C1796 C1800 1.368 . S
C1797 C1778 1.429 . S
C1797 C1791 1.429 . S
C1797 C1798 1.523 . S
C1798 C1779 1.368 . S
C1798 C1792 1.368 . S
C1798 C1797 1.523 . S
C1799 C1783 1.429 . S
C1799 C1795 1.429 . S
C1799 C1800 1.523 . S
C1800 C1784 1.368 . S
C1800 C1796 1.368 . S
C1800 C1799 1.523 . S
H1801 C1776 0.950 . S
H1802 C1778 0.950 . S
H1803 C1779 0.949 . S
H1804 C1781 0.950 . S
H1805 C1783 0.950 . S
C1806 C1807 1.349 . S
C1806 C1808 1.327 . S
C1806 H1831 0.950 . S
C1807 C1806 1.349 . S
C1807 C1823 1.349 . S
C1808 C1806 1.327 . S
C1808 C1827 1.429 . S
C1808 H1832 0.950 . S
C1809 C1826 1.574 . S
C1809 C1828 1.368 . S
C1809 H1833 0.949 . S
H1810 C1814 0.949 . S
C1811 C1812 1.349 . S
C1811 C1813 1.327 . S
C1811 H1834 0.950 . S
C1812 C1811 1.349 . S
C1812 C1824 1.349 . S
C1813 C1811 1.327 . S
C1813 C1829 1.429 . S
C1813 H1835 0.950 . S
C1814 H1810 0.949 . S
C1814 C1822 1.574 . S
C1814 C1830 1.368 . S
H1815 C1823 0.950 . S
H1816 C1821 0.950 . S
H1817 C1822 0.949 . S
H1818 C1824 0.950 . S
H1819 C1825 0.950 . S
H1820 C1826 0.949 . S
C1821 H1816 0.950 . S
C1821 C1823 1.327 . S
C1821 C1827 1.429 . S
C1822 C1814 1.574 . S
C1822 H1817 0.949 . S
C1822 C1828 1.368 . S
C1823 C1807 1.349 . S
C1823 H1815 0.950 . S
C1823 C1821 1.327 . S
C1824 C1812 1.349 . S
C1824 H1818 0.950 . S
C1824 C1825 1.327 . S
C1825 H1819 0.950 . S
C1825 C1824 1.327 . S
C1825 C1829 1.429 . S
C1826 C1809 1.574 . S
C1826 H1820 0.949 . S
C1826 C1830 1.368 . S
C1827 C1808 1.429 . S
C1827 C1821 1.429 . S
C1827 C1828 1.523 . S
C1828 C1809 1.368 . S
C1828 C1822 1.368 . S
C1828 C1827 1.523 . S
C1829 C1813 1.429 . S
C1829 C1825 1.429 . S
C1829 C1830 1.523 . S
C1830 C1814 1.368 . S
C1830 C1826 1.368 . S
C1830 C1829 1.523 . S
H1831 C1806 0.950 . S
H1832 C1808 0.950 . S
H1833 C1809 0.949 . S
H1834 C1811 0.950 . S
H1835 C1813 0.950 . S
C1836 C1837 1.349 . S
C1836 C1838 1.327 . S
C1836 H1861 0.935 1_554 S
C1837 C1836 1.349 . S
C1837 C1853 1.349 . S
C1838 C1836 1.327 . S
C1838 C1857 1.429 . S
C1838 H1862 0.950 1_554 S
C1839 C1856 1.574 1_455 S
C1839 C1858 1.368 . S
C1839 H1863 0.949 . S
H1840 C1844 0.949 . S
C1841 C1842 1.349 . S
C1841 C1843 1.327 . S
C1841 H1864 0.935 1_556 S
C1842 C1841 1.349 . S
C1842 C1854 1.349 . S
C1843 C1841 1.327 . S
C1843 C1859 1.429 . S
C1843 H1865 0.950 1_556 S
C1844 H1840 0.949 . S
C1844 C1852 1.574 1_655 S
C1844 C1860 1.368 . S
H1845 C1853 0.950 . S
H1846 C1851 0.950 . S
H1847 C1852 0.949 . S
H1848 C1854 0.950 . S
H1849 C1855 0.950 . S
H1850 C1856 0.949 . S
C1851 H1846 0.950 . S
C1851 C1853 1.327 . S
C1851 C1857 1.429 . S
C1852 C1844 1.574 1_455 S
C1852 H1847 0.949 . S
C1852 C1858 1.368 1_556 S
C1853 C1837 1.349 . S
C1853 H1845 0.950 . S
C1853 C1851 1.327 . S
C1854 C1842 1.349 . S
C1854 H1848 0.950 . S
C1854 C1855 1.327 . S
C1855 H1849 0.950 . S
C1855 C1854 1.327 . S
C1855 C1859 1.429 . S
C1856 C1839 1.574 1_655 S
C1856 H1850 0.949 . S
C1856 C1860 1.368 1_554 S
C1857 C1838 1.429 . S
C1857 C1851 1.429 . S
C1857 C1858 1.523 . S
C1858 C1839 1.368 . S
C1858 C1852 1.368 1_554 S
C1858 C1857 1.523 . S
C1859 C1843 1.429 . S
C1859 C1855 1.429 . S
C1859 C1860 1.523 . S
C1860 C1844 1.368 . S
C1860 C1856 1.368 1_556 S
C1860 C1859 1.523 . S
H1861 C1836 0.935 1_556 S
H1862 C1838 0.950 1_556 S
H1863 C1839 0.949 . S
H1864 C1841 0.935 1_554 S
H1865 C1843 0.950 1_554 S
C1866 C1867 1.349 . S
C1866 C1868 1.323 1_556 S
C1866 H1891 0.950 1_556 S
C1867 C1866 1.349 . S
C1867 C1883 1.349 . S
C1868 C1866 1.323 1_554 S
C1868 C1887 1.421 1_554 S
C1868 H1892 0.961 . S
C1869 C1886 1.574 . S
C1869 C1888 1.368 . S
C1869 H1893 0.949 . S
H1870 C1874 0.949 . S
C1871 C1872 1.349 . S
C1871 C1873 1.323 1_554 S
C1871 H1894 0.950 1_554 S
C1872 C1871 1.349 . S
C1872 C1884 1.349 . S
C1873 C1871 1.323 1_556 S
C1873 C1889 1.421 1_556 S
C1873 H1895 0.961 . S
C1874 H1870 0.949 . S
C1874 C1882 1.574 . S
C1874 C1890 1.368 . S
H1875 C1883 0.950 . S
H1876 C1881 0.950 . S
H1877 C1882 0.949 . S
H1878 C1884 0.950 . S
H1879 C1885 0.950 . S
H1880 C1886 0.949 . S
C1881 H1876 0.950 . S
C1881 C1883 1.327 . S
C1881 C1887 1.429 . S
C1882 C1874 1.574 . S
C1882 H1877 0.949 . S
C1882 C1888 1.368 1_554 S
C1883 C1867 1.349 . S
C1883 H1875 0.950 . S
C1883 C1881 1.327 . S
C1884 C1872 1.349 . S
C1884 H1878 0.950 . S
C1884 C1885 1.327 . S
C1885 H1879 0.950 . S
C1885 C1884 1.327 . S
C1885 C1889 1.429 . S
C1886 C1869 1.574 . S
C1886 H1880 0.949 . S
C1886 C1890 1.368 1_556 S
C1887 C1868 1.421 1_556 S
C1887 C1881 1.429 . S
C1887 C1888 1.523 . S
C1888 C1869 1.368 . S
C1888 C1882 1.368 1_556 S
C1888 C1887 1.523 . S
C1889 C1873 1.421 1_554 S
C1889 C1885 1.429 . S
C1889 C1890 1.523 . S
C1890 C1874 1.368 . S
C1890 C1886 1.368 1_554 S
C1890 C1889 1.523 . S
H1891 C1866 0.950 1_554 S
H1892 C1868 0.961 . S
H1893 C1869 0.949 . S
H1894 C1871 0.950 1_556 S
H1895 C1873 0.961 . S
C1896 C1897 1.349 . S
C1896 C1898 1.327 . S
C1896 H1921 0.959 . S
C1897 C1896 1.349 . S
C1897 C1913 1.349 . S
C1898 C1896 1.327 . S
C1898 C1917 1.429 . S
C1898 H1922 0.950 1_554 S
C1899 C1916 1.574 1_565 S
C1899 C1918 1.368 . S
C1899 H1923 0.949 . S
H1900 C1904 0.949 . S
C1901 C1902 1.349 . S
C1901 C1903 1.327 . S
C1901 H1924 0.959 . S
C1902 C1901 1.349 . S
C1902 C1914 1.349 . S
C1903 C1901 1.327 . S
C1903 C1919 1.429 . S
C1903 H1925 0.950 1_556 S
C1904 H1900 0.949 . S
C1904 C1912 1.574 1_545 S
C1904 C1920 1.368 . S
H1905 C1913 0.950 . S
H1906 C1911 0.950 . S
H1907 C1912 0.949 . S
H1908 C1914 0.950 . S
H1909 C1915 0.950 . S
H1910 C1916 0.949 . S
C1911 H1906 0.950 . S
C1911 C1913 1.327 . S
C1911 C1917 1.429 . S
C1912 C1904 1.574 1_565 S
C1912 H1907 0.949 . S
C1912 C1918 1.368 1_556 S
C1913 C1897 1.349 . S
C1913 H1905 0.950 . S
C1913 C1911 1.327 . S
C1914 C1902 1.349 . S
C1914 H1908 0.950 . S
C1914 C1915 1.327 . S
C1915 H1909 0.950 . S
C1915 C1914 1.327 . S
C1915 C1919 1.429 . S
C1916 C1899 1.574 1_545 S
C1916 H1910 0.949 . S
C1916 C1920 1.368 1_554 S
C1917 C1898 1.429 . S
C1917 C1911 1.429 . S
C1917 C1918 1.523 . S
C1918 C1899 1.368 . S
C1918 C1912 1.368 1_554 S
C1918 C1917 1.523 . S
C1919 C1903 1.429 . S
C1919 C1915 1.429 . S
C1919 C1920 1.523 . S
C1920 C1904 1.368 . S
C1920 C1916 1.368 1_556 S
C1920 C1919 1.523 . S
H1921 C1896 0.959 . S
H1922 C1898 0.950 1_556 S
H1923 C1899 0.949 . S
H1924 C1901 0.959 . S
H1925 C1903 0.950 1_554 S
C1926 C1927 1.349 . S
C1926 C1928 1.327 . S
C1926 H1951 0.965 . S
C1927 C1926 1.349 . S
C1927 C1943 1.349 . S
C1928 C1926 1.327 . S
C1928 C1947 1.429 . S
C1928 H1952 0.950 1_556 S
C1929 C1946 1.574 1_655 S
C1929 C1948 1.368 . S
C1929 H1953 0.949 . S
H1930 C1934 0.949 . S
C1931 C1932 1.349 . S
C1931 C1933 1.327 . S
C1931 H1954 0.964 . S
C1932 C1931 1.349 . S
C1932 C1944 1.349 . S
C1933 C1931 1.327 . S
C1933 C1949 1.429 . S
C1933 H1955 0.950 1_554 S
C1934 H1930 0.949 . S
C1934 C1942 1.574 1_455 S
C1934 C1950 1.368 . S
H1935 C1943 0.950 . S
H1936 C1941 0.950 . S
H1937 C1942 0.949 . S
H1938 C1944 0.950 . S
H1939 C1945 0.950 . S
H1940 C1946 0.949 . S
C1941 H1936 0.950 . S
C1941 C1943 1.327 . S
C1941 C1947 1.429 . S
C1942 C1934 1.574 1_655 S
C1942 H1937 0.949 . S
C1942 C1948 1.368 1_554 S
C1943 C1927 1.349 . S
C1943 H1935 0.950 . S
C1943 C1941 1.327 . S
C1944 C1932 1.349 . S
C1944 H1938 0.950 . S
C1944 C1945 1.327 . S
C1945 H1939 0.950 . S
C1945 C1944 1.327 . S
C1945 C1949 1.429 . S
C1946 C1929 1.574 1_455 S
C1946 H1940 0.949 . S
C1946 C1950 1.368 1_556 S
C1947 C1928 1.429 . S
C1947 C1941 1.429 . S
C1947 C1948 1.523 . S
C1948 C1929 1.368 . S
C1948 C1942 1.368 1_556 S
C1948 C1947 1.523 . S
C1949 C1933 1.429 . S
C1949 C1945 1.429 . S
C1949 C1950 1.523 . S
C1950 C1934 1.368 . S
C1950 C1946 1.368 1_554 S
C1950 C1949 1.523 . S
H1951 C1926 0.965 . S
H1952 C1928 0.950 1_554 S
H1953 C1929 0.949 . S
H1954 C1931 0.964 . S
H1955 C1933 0.950 1_556 S
C1956 C1957 1.349 . S
C1956 C1958 1.327 . S
C1956 H1981 0.950 . S
C1957 C1956 1.349 . S
C1957 C1973 1.349 . S
C1958 C1956 1.327 . S
C1958 C1977 1.429 . S
C1958 H1982 0.950 . S
C1959 C1976 1.574 . S
C1959 C1978 1.368 1_554 S
C1959 H1983 0.949 . S
H1960 C1964 0.949 . S
C1961 C1962 1.349 . S
C1961 C1963 1.327 . S
C1961 H1984 0.950 . S
C1962 C1961 1.349 . S
C1962 C1974 1.349 . S
C1963 C1961 1.327 . S
C1963 C1979 1.429 . S
C1963 H1985 0.950 . S
C1964 H1960 0.949 . S
C1964 C1972 1.574 . S
C1964 C1980 1.368 1_556 S
H1965 C1973 0.950 . S
H1966 C1971 0.950 1_554 S
H1967 C1972 0.949 . S
H1968 C1974 0.950 . S
H1969 C1975 0.950 1_556 S
H1970 C1976 0.949 . S
C1971 H1966 0.950 1_556 S
C1971 C1973 1.327 . S
C1971 C1977 1.429 . S
C1972 C1964 1.574 . S
C1972 H1967 0.949 . S
C1972 C1978 1.368 . S
C1973 C1957 1.349 . S
C1973 H1965 0.950 . S
C1973 C1971 1.327 . S
C1974 C1962 1.349 . S
C1974 H1968 0.950 . S
C1974 C1975 1.327 . S
C1975 H1969 0.950 1_554 S
C1975 C1974 1.327 . S
C1975 C1979 1.429 . S
C1976 C1959 1.574 . S
C1976 H1970 0.949 . S
C1976 C1980 1.368 . S
C1977 C1958 1.429 . S
C1977 C1971 1.429 . S
C1977 C1978 1.523 . S
C1978 C1959 1.368 1_556 S
C1978 C1972 1.368 . S
C1978 C1977 1.523 . S
C1979 C1963 1.429 . S
C1979 C1975 1.429 . S
C1979 C1980 1.523 . S
C1980 C1964 1.368 1_554 S
C1980 C1976 1.368 . S
C1980 C1979 1.523 . S
H1981 C1956 0.950 . S
H1982 C1958 0.950 . S
H1983 C1959 0.949 . S
H1984 C1961 0.950 . S
H1985 C1963 0.950 . S
C1986 C1987 1.349 . S
C1986 C1988 1.327 . S
C1986 H2011 0.950 . S
C1987 C1986 1.349 . S
C1987 C2003 1.349 . S
C1988 C1986 1.327 . S
C1988 C2007 1.429 . S
C1988 H2012 0.950 1_556 S
C1989 C2006 1.574 1_545 S
C1989 C2008 1.368 . S
C1989 H2013 0.949 . S
H1990 C1994 0.949 . S
C1991 C1992 1.349 . S
C1991 C1993 1.327 . S
C1991 H2014 0.950 . S
C1992 C1991 1.349 . S
C1992 C2004 1.349 . S
C1993 C1991 1.327 . S
C1993 C2009 1.429 . S
C1993 H2015 0.950 1_554 S
C1994 H1990 0.949 . S
C1994 C2002 1.574 1_565 S
C1994 C2010 1.368 . S
H1995 C2003 0.950 . S
H1996 C2001 0.950 . S
H1997 C2002 0.949 . S
H1998 C2004 0.950 . S
H1999 C2005 0.950 . S
H2000 C2006 0.949 . S
C2001 H1996 0.950 . S
C2001 C2003 1.327 . S
C2001 C2007 1.429 . S
C2002 C1994 1.574 1_545 S
C2002 H1997 0.949 . S
C2002 C2008 1.368 1_554 S
C2003 C1987 1.349 . S
C2003 H1995 0.950 . S
C2003 C2001 1.327 . S
C2004 C1992 1.349 . S
C2004 H1998 0.950 . S
C2004 C2005 1.327 . S
C2005 H1999 0.950 . S
C2005 C2004 1.327 . S
C2005 C2009 1.429 . S
C2006 C1989 1.574 1_565 S
C2006 H2000 0.949 . S
C2006 C2010 1.368 1_556 S
C2007 C1988 1.429 . S
C2007 C2001 1.429 . S
C2007 C2008 1.523 . S
C2008 C1989 1.368 . S
C2008 C2002 1.368 1_556 S
C2008 C2007 1.523 . S
C2009 C1993 1.429 . S
C2009 C2005 1.429 . S
C2009 C2010 1.523 . S
C2010 C1994 1.368 . S
C2010 C2006 1.368 1_554 S
C2010 C2009 1.523 . S
H2011 C1986 0.950 . S
H2012 C1988 0.950 1_554 S
H2013 C1989 0.949 . S
H2014 C1991 0.950 . S
H2015 C1993 0.950 1_556 S
C2016 C2017 1.349 . S
C2016 C2018 1.327 . S
C2016 H2041 0.950 . S
C2017 C2016 1.349 . S
C2017 C2033 1.349 . S
C2018 C2016 1.327 . S
C2018 C2037 1.429 . S
C2018 H2042 0.950 . S
C2019 C2036 1.574 . S
C2019 C2038 1.368 . S
C2019 H2043 0.949 . S
H2020 C2024 0.949 . S
C2021 C2022 1.349 . S
C2021 C2023 1.327 . S
C2021 H2044 0.950 . S
C2022 C2021 1.349 . S
C2022 C2034 1.349 . S
C2023 C2021 1.327 . S
C2023 C2039 1.429 . S
C2023 H2045 0.950 . S
C2024 H2020 0.949 . S
C2024 C2032 1.574 . S
C2024 C2040 1.368 . S
H2025 C2033 0.950 . S
H2026 C2031 0.950 . S
H2027 C2032 0.949 . S
H2028 C2034 0.950 . S
H2029 C2035 0.950 . S
H2030 C2036 0.949 . S
C2031 H2026 0.950 . S
C2031 C2033 1.327 . S
C2031 C2037 1.429 . S
C2032 C2024 1.574 . S
C2032 H2027 0.949 . S
C2032 C2038 1.368 . S
C2033 C2017 1.349 . S
C2033 H2025 0.950 . S
C2033 C2031 1.327 . S
C2034 C2022 1.349 . S
C2034 H2028 0.950 . S
C2034 C2035 1.327 . S
C2035 H2029 0.950 . S
C2035 C2034 1.327 . S
C2035 C2039 1.429 . S
C2036 C2019 1.574 . S
C2036 H2030 0.949 . S
C2036 C2040 1.368 . S
C2037 C2018 1.429 . S
C2037 C2031 1.429 . S
C2037 C2038 1.523 . S
C2038 C2019 1.368 . S
C2038 C2032 1.368 . S
C2038 C2037 1.523 . S
C2039 C2023 1.429 . S
C2039 C2035 1.429 . S
C2039 C2040 1.523 . S
C2040 C2024 1.368 . S
C2040 C2036 1.368 . S
C2040 C2039 1.523 . S
H2041 C2016 0.950 . S
H2042 C2018 0.950 . S
H2043 C2019 0.949 . S
H2044 C2021 0.950 . S
H2045 C2023 0.950 . S
C2046 C2047 1.349 . S
C2046 C2048 1.327 . S
C2046 H2071 0.950 . S
C2047 C2046 1.349 . S
C2047 C2063 1.349 . S
C2048 C2046 1.327 . S
C2048 C2067 1.429 . S
C2048 H2072 0.950 . S
C2049 C2066 1.574 . S
C2049 C2068 1.368 . S
C2049 H2073 0.949 . S
H2050 C2054 0.949 . S
C2051 C2052 1.349 . S
C2051 C2053 1.327 . S
C2051 H2074 0.950 . S
C2052 C2051 1.349 . S
C2052 C2064 1.349 . S
C2053 C2051 1.327 . S
C2053 C2069 1.429 . S
C2053 H2075 0.950 . S
C2054 H2050 0.949 . S
C2054 C2062 1.574 . S
C2054 C2070 1.368 . S
H2055 C2063 0.950 . S
H2056 C2061 0.950 . S
H2057 C2062 0.949 . S
H2058 C2064 0.950 . S
H2059 C2065 0.950 . S
H2060 C2066 0.949 . S
C2061 H2056 0.950 . S
C2061 C2063 1.327 . S
C2061 C2067 1.429 . S
C2062 C2054 1.574 . S
C2062 H2057 0.949 . S
C2062 C2068 1.368 . S
C2063 C2047 1.349 . S
C2063 H2055 0.950 . S
C2063 C2061 1.327 . S
C2064 C2052 1.349 . S
C2064 H2058 0.950 . S
C2064 C2065 1.327 . S
C2065 H2059 0.950 . S
C2065 C2064 1.327 . S
C2065 C2069 1.429 . S
C2066 C2049 1.574 . S
C2066 H2060 0.949 . S
C2066 C2070 1.368 . S
C2067 C2048 1.429 . S
C2067 C2061 1.429 . S
C2067 C2068 1.523 . S
C2068 C2049 1.368 . S
C2068 C2062 1.368 . S
C2068 C2067 1.523 . S
C2069 C2053 1.429 . S
C2069 C2065 1.429 . S
C2069 C2070 1.523 . S
C2070 C2054 1.368 . S
C2070 C2066 1.368 . S
C2070 C2069 1.523 . S
H2071 C2046 0.950 . S
H2072 C2048 0.950 . S
H2073 C2049 0.949 . S
H2074 C2051 0.950 . S
H2075 C2053 0.950 . S
C2076 C2077 1.349 . S
C2076 C2078 1.327 . S
C2076 H2101 0.950 . S
C2077 C2076 1.349 . S
C2077 C2093 1.349 . S
C2078 C2076 1.327 . S
C2078 C2097 1.429 . S
C2078 H2102 0.950 . S
C2079 C2096 1.574 . S
C2079 C2098 1.368 . S
C2079 H2103 0.949 . S
H2080 C2084 0.949 . S
C2081 C2082 1.349 . S
C2081 C2083 1.327 . S
C2081 H2104 0.950 . S
C2082 C2081 1.349 . S
C2082 C2094 1.349 . S
C2083 C2081 1.327 . S
C2083 C2099 1.429 . S
C2083 H2105 0.950 . S
C2084 H2080 0.949 . S
C2084 C2092 1.574 . S
C2084 C2100 1.368 . S
H2085 C2093 0.950 . S
H2086 C2091 0.950 . S
H2087 C2092 0.949 . S
H2088 C2094 0.950 . S
H2089 C2095 0.950 . S
H2090 C2096 0.949 . S
C2091 H2086 0.950 . S
C2091 C2093 1.327 . S
C2091 C2097 1.429 . S
C2092 C2084 1.574 . S
C2092 H2087 0.949 . S
C2092 C2098 1.368 . S
C2093 C2077 1.349 . S
C2093 H2085 0.950 . S
C2093 C2091 1.327 . S
C2094 C2082 1.349 . S
C2094 H2088 0.950 . S
C2094 C2095 1.327 . S
C2095 H2089 0.950 . S
C2095 C2094 1.327 . S
C2095 C2099 1.429 . S
C2096 C2079 1.574 . S
C2096 H2090 0.949 . S
C2096 C2100 1.368 . S
C2097 C2078 1.429 . S
C2097 C2091 1.429 . S
C2097 C2098 1.523 . S
C2098 C2079 1.368 . S
C2098 C2092 1.368 . S
C2098 C2097 1.523 . S
C2099 C2083 1.429 . S
C2099 C2095 1.429 . S
C2099 C2100 1.523 . S
C2100 C2084 1.368 . S
C2100 C2096 1.368 . S
C2100 C2099 1.523 . S
H2101 C2076 0.950 . S
H2102 C2078 0.950 . S
H2103 C2079 0.949 . S
H2104 C2081 0.950 . S
H2105 C2083 0.950 . S
C2106 C2107 1.349 . S
C2106 C2108 1.327 . S
C2106 H2131 0.950 . S
C2107 C2106 1.349 . S
C2107 C2123 1.349 . S
C2108 C2106 1.327 . S
C2108 C2127 1.429 . S
C2108 H2132 0.950 . S
C2109 C2126 1.574 . S
C2109 C2128 1.368 . S
C2109 H2133 0.949 . S
H2110 C2114 0.949 . S
C2111 C2112 1.349 . S
C2111 C2113 1.327 . S
C2111 H2134 0.950 . S
C2112 C2111 1.349 . S
C2112 C2124 1.349 . S
C2113 C2111 1.327 . S
C2113 C2129 1.429 . S
C2113 H2135 0.950 . S
C2114 H2110 0.949 . S
C2114 C2122 1.574 . S
C2114 C2130 1.368 . S
H2115 C2123 0.950 . S
H2116 C2121 0.950 . S
H2117 C2122 0.949 . S
H2118 C2124 0.950 . S
H2119 C2125 0.950 . S
H2120 C2126 0.949 . S
C2121 H2116 0.950 . S
C2121 C2123 1.327 . S
C2121 C2127 1.429 . S
C2122 C2114 1.574 . S
C2122 H2117 0.949 . S
C2122 C2128 1.368 . S
C2123 C2107 1.349 . S
C2123 H2115 0.950 . S
C2123 C2121 1.327 . S
C2124 C2112 1.349 . S
C2124 H2118 0.950 . S
C2124 C2125 1.327 . S
C2125 H2119 0.950 . S
C2125 C2124 1.327 . S
C2125 C2129 1.429 . S
C2126 C2109 1.574 . S
C2126 H2120 0.949 . S
C2126 C2130 1.368 . S
C2127 C2108 1.429 . S
C2127 C2121 1.429 . S
C2127 C2128 1.523 . S
C2128 C2109 1.368 . S
C2128 C2122 1.368 . S
C2128 C2127 1.523 . S
C2129 C2113 1.429 . S
C2129 C2125 1.429 . S
C2129 C2130 1.523 . S
C2130 C2114 1.368 . S
C2130 C2126 1.368 . S
C2130 C2129 1.523 . S
H2131 C2106 0.950 . S
H2132 C2108 0.950 . S
H2133 C2109 0.949 . S
H2134 C2111 0.950 . S
H2135 C2113 0.950 . S
C2136 C2137 1.349 . S
C2136 C2138 1.327 . S
C2136 H2161 0.950 . S
C2137 C2136 1.349 . S
C2137 C2153 1.349 . S
C2138 C2136 1.327 . S
C2138 C2157 1.429 . S
C2138 H2162 0.950 . S
C2139 C2156 1.574 . S
C2139 C2158 1.368 . S
C2139 H2163 0.949 . S
H2140 C2144 0.949 . S
C2141 C2142 1.349 . S
C2141 C2143 1.327 . S
C2141 H2164 0.950 . S
C2142 C2141 1.349 . S
C2142 C2154 1.349 . S
C2143 C2141 1.327 . S
C2143 C2159 1.429 . S
C2143 H2165 0.950 . S
C2144 H2140 0.949 . S
C2144 C2152 1.574 . S
C2144 C2160 1.368 . S
H2145 C2153 0.950 . S
H2146 C2151 0.950 . S
H2147 C2152 0.949 . S
H2148 C2154 0.950 . S
H2149 C2155 0.950 . S
H2150 C2156 0.949 . S
C2151 H2146 0.950 . S
C2151 C2153 1.327 . S
C2151 C2157 1.429 . S
C2152 C2144 1.574 . S
C2152 H2147 0.949 . S
C2152 C2158 1.368 . S
C2153 C2137 1.349 . S
C2153 H2145 0.950 . S
C2153 C2151 1.327 . S
C2154 C2142 1.349 . S
C2154 H2148 0.950 . S
C2154 C2155 1.327 . S
C2155 H2149 0.950 . S
C2155 C2154 1.327 . S
C2155 C2159 1.429 . S
C2156 C2139 1.574 . S
C2156 H2150 0.949 . S
C2156 C2160 1.368 . S
C2157 C2138 1.429 . S
C2157 C2151 1.429 . S
C2157 C2158 1.523 . S
C2158 C2139 1.368 . S
C2158 C2152 1.368 . S
C2158 C2157 1.523 . S
C2159 C2143 1.429 . S
C2159 C2155 1.429 . S
C2159 C2160 1.523 . S
C2160 C2144 1.368 . S
C2160 C2156 1.368 . S
C2160 C2159 1.523 . S
H2161 C2136 0.950 . S
H2162 C2138 0.950 . S
H2163 C2139 0.949 . S
H2164 C2141 0.950 . S
H2165 C2143 0.950 . S
C2166 C2167 1.349 . S
C2166 C2168 1.327 . S
C2166 H2191 0.950 . S
C2167 C2166 1.349 . S
C2167 C2183 1.349 . S
C2168 C2166 1.327 . S
C2168 C2187 1.429 . S
C2168 H2192 0.950 . S
C2169 C2186 1.574 . S
C2169 C2188 1.368 . S
C2169 H2193 0.949 . S
H2170 C2174 0.949 . S
C2171 C2172 1.349 . S
C2171 C2173 1.327 . S
C2171 H2194 0.950 . S
C2172 C2171 1.349 . S
C2172 C2184 1.349 . S
C2173 C2171 1.327 . S
C2173 C2189 1.429 . S
C2173 H2195 0.950 . S
C2174 H2170 0.949 . S
C2174 C2182 1.574 . S
C2174 C2190 1.368 . S
H2175 C2183 0.950 . S
H2176 C2181 0.950 . S
H2177 C2182 0.949 . S
H2178 C2184 0.950 . S
H2179 C2185 0.950 . S
H2180 C2186 0.949 . S
C2181 H2176 0.950 . S
C2181 C2183 1.327 . S
C2181 C2187 1.429 . S
C2182 C2174 1.574 . S
C2182 H2177 0.949 . S
C2182 C2188 1.368 . S
C2183 C2167 1.349 . S
C2183 H2175 0.950 . S
C2183 C2181 1.327 . S
C2184 C2172 1.349 . S
C2184 H2178 0.950 . S
C2184 C2185 1.327 . S
C2185 H2179 0.950 . S
C2185 C2184 1.327 . S
C2185 C2189 1.429 . S
C2186 C2169 1.574 . S
C2186 H2180 0.949 . S
C2186 C2190 1.368 . S
C2187 C2168 1.429 . S
C2187 C2181 1.429 . S
C2187 C2188 1.523 . S
C2188 C2169 1.368 . S
C2188 C2182 1.368 . S
C2188 C2187 1.523 . S
C2189 C2173 1.429 . S
C2189 C2185 1.429 . S
C2189 C2190 1.523 . S
C2190 C2174 1.368 . S
C2190 C2186 1.368 . S
C2190 C2189 1.523 . S
H2191 C2166 0.950 . S
H2192 C2168 0.950 . S
H2193 C2169 0.949 . S
H2194 C2171 0.950 . S
H2195 C2173 0.950 . S
C2196 C2197 1.349 . S
C2196 C2198 1.327 . S
C2196 H2221 0.950 . S
C2197 C2196 1.349 . S
C2197 C2213 1.349 . S
C2198 C2196 1.327 . S
C2198 C2217 1.429 . S
C2198 H2222 0.950 . S
C2199 C2216 1.574 . S
C2199 C2218 1.368 . S
C2199 H2223 0.949 . S
H2200 C2204 0.949 . S
C2201 C2202 1.349 . S
C2201 C2203 1.327 . S
C2201 H2224 0.950 . S
C2202 C2201 1.349 . S
C2202 C2214 1.349 . S
C2203 C2201 1.327 . S
C2203 C2219 1.429 . S
C2203 H2225 0.950 . S
C2204 H2200 0.949 . S
C2204 C2212 1.574 . S
C2204 C2220 1.368 . S
H2205 C2213 0.950 . S
H2206 C2211 0.950 . S
H2207 C2212 0.949 . S
H2208 C2214 0.950 . S
H2209 C2215 0.950 . S
H2210 C2216 0.949 . S
C2211 H2206 0.950 . S
C2211 C2213 1.327 . S
C2211 C2217 1.429 . S
C2212 C2204 1.574 . S
C2212 H2207 0.949 . S
C2212 C2218 1.368 . S
C2213 C2197 1.349 . S
C2213 H2205 0.950 . S
C2213 C2211 1.327 . S
C2214 C2202 1.349 . S
C2214 H2208 0.950 . S
C2214 C2215 1.327 . S
C2215 H2209 0.950 . S
C2215 C2214 1.327 . S
C2215 C2219 1.429 . S
C2216 C2199 1.574 . S
C2216 H2210 0.949 . S
C2216 C2220 1.368 . S
C2217 C2198 1.429 . S
C2217 C2211 1.429 . S
C2217 C2218 1.523 . S
C2218 C2199 1.368 . S
C2218 C2212 1.368 . S
C2218 C2217 1.523 . S
C2219 C2203 1.429 . S
C2219 C2215 1.429 . S
C2219 C2220 1.523 . S
C2220 C2204 1.368 . S
C2220 C2216 1.368 . S
C2220 C2219 1.523 . S
H2221 C2196 0.950 . S
H2222 C2198 0.950 . S
H2223 C2199 0.949 . S
H2224 C2201 0.950 . S
H2225 C2203 0.950 . S
C2226 C2227 1.349 . S
C2226 C2228 1.327 . S
C2226 H2251 0.950 . S
C2227 C2226 1.349 . S
C2227 C2243 1.349 . S
C2228 C2226 1.327 . S
C2228 C2247 1.429 . S
C2228 H2252 0.950 . S
C2229 C2246 1.574 . S
C2229 C2248 1.368 . S
C2229 H2253 0.949 . S
H2230 C2234 0.949 . S
C2231 C2232 1.349 . S
C2231 C2233 1.327 . S
C2231 H2254 0.950 . S
C2232 C2231 1.349 . S
C2232 C2244 1.349 . S
C2233 C2231 1.327 . S
C2233 C2249 1.429 . S
C2233 H2255 0.950 . S
C2234 H2230 0.949 . S
C2234 C2242 1.574 . S
C2234 C2250 1.368 . S
H2235 C2243 0.950 . S
H2236 C2241 0.950 . S
H2237 C2242 0.949 . S
H2238 C2244 0.950 . S
H2239 C2245 0.950 . S
H2240 C2246 0.949 . S
C2241 H2236 0.950 . S
C2241 C2243 1.327 . S
C2241 C2247 1.429 . S
C2242 C2234 1.574 . S
C2242 H2237 0.949 . S
C2242 C2248 1.368 . S
C2243 C2227 1.349 . S
C2243 H2235 0.950 . S
C2243 C2241 1.327 . S
C2244 C2232 1.349 . S
C2244 H2238 0.950 . S
C2244 C2245 1.327 . S
C2245 H2239 0.950 . S
C2245 C2244 1.327 . S
C2245 C2249 1.429 . S
C2246 C2229 1.574 . S
C2246 H2240 0.949 . S
C2246 C2250 1.368 . S
C2247 C2228 1.429 . S
C2247 C2241 1.429 . S
C2247 C2248 1.523 . S
C2248 C2229 1.368 . S
C2248 C2242 1.368 . S
C2248 C2247 1.523 . S
C2249 C2233 1.429 . S
C2249 C2245 1.429 . S
C2249 C2250 1.523 . S
C2250 C2234 1.368 . S
C2250 C2246 1.368 . S
C2250 C2249 1.523 . S
H2251 C2226 0.950 . S
H2252 C2228 0.950 . S
H2253 C2229 0.949 . S
H2254 C2231 0.950 . S
H2255 C2233 0.950 . S
C2256 C2257 1.349 . S
C2256 C2258 1.327 . S
C2256 H2281 0.950 . S
C2257 C2256 1.349 . S
C2257 C2273 1.349 . S
C2258 C2256 1.327 . S
C2258 C2277 1.429 . S
C2258 H2282 0.950 . S
C2259 C2276 1.574 . S
C2259 C2278 1.368 . S
C2259 H2283 0.949 . S
H2260 C2264 0.949 . S
C2261 C2262 1.349 . S
C2261 C2263 1.327 . S
C2261 H2284 0.950 . S
C2262 C2261 1.349 . S
C2262 C2274 1.349 . S
C2263 C2261 1.327 . S
C2263 C2279 1.429 . S
C2263 H2285 0.950 . S
C2264 H2260 0.949 . S
C2264 C2272 1.574 . S
C2264 C2280 1.368 . S
H2265 C2273 0.950 . S
H2266 C2271 0.950 . S
H2267 C2272 0.949 . S
H2268 C2274 0.950 . S
H2269 C2275 0.950 . S
H2270 C2276 0.949 . S
C2271 H2266 0.950 . S
C2271 C2273 1.327 . S
C2271 C2277 1.429 . S
C2272 C2264 1.574 . S
C2272 H2267 0.949 . S
C2272 C2278 1.368 . S
C2273 C2257 1.349 . S
C2273 H2265 0.950 . S
C2273 C2271 1.327 . S
C2274 C2262 1.349 . S
C2274 H2268 0.950 . S
C2274 C2275 1.327 . S
C2275 H2269 0.950 . S
C2275 C2274 1.327 . S
C2275 C2279 1.429 . S
C2276 C2259 1.574 . S
C2276 H2270 0.949 . S
C2276 C2280 1.368 . S
C2277 C2258 1.429 . S
C2277 C2271 1.429 . S
C2277 C2278 1.523 . S
C2278 C2259 1.368 . S
C2278 C2272 1.368 . S
C2278 C2277 1.523 . S
C2279 C2263 1.429 . S
C2279 C2275 1.429 . S
C2279 C2280 1.523 . S
C2280 C2264 1.368 . S
C2280 C2276 1.368 . S
C2280 C2279 1.523 . S
H2281 C2256 0.950 . S
H2282 C2258 0.950 . S
H2283 C2259 0.949 . S
H2284 C2261 0.950 . S
H2285 C2263 0.950 . S
C2286 C2287 1.349 . S
C2286 C2288 1.327 . S
C2286 H2311 0.950 . S
C2287 C2286 1.349 . S
C2287 C2303 1.349 . S
C2288 C2286 1.327 . S
C2288 C2307 1.429 . S
C2288 H2312 0.950 . S
C2289 C2306 1.574 . S
C2289 C2308 1.368 . S
C2289 H2313 0.949 . S
H2290 C2294 0.949 . S
C2291 C2292 1.349 . S
C2291 C2293 1.327 . S
C2291 H2314 0.950 . S
C2292 C2291 1.349 . S
C2292 C2304 1.349 . S
C2293 C2291 1.327 . S
C2293 C2309 1.429 . S
C2293 H2315 0.950 . S
C2294 H2290 0.949 . S
C2294 C2302 1.574 . S
C2294 C2310 1.368 . S
H2295 C2303 0.950 . S
H2296 C2301 0.950 . S
H2297 C2302 0.949 . S
H2298 C2304 0.950 . S
H2299 C2305 0.950 . S
H2300 C2306 0.949 . S
C2301 H2296 0.950 . S
C2301 C2303 1.327 . S
C2301 C2307 1.429 . S
C2302 C2294 1.574 . S
C2302 H2297 0.949 . S
C2302 C2308 1.368 . S
C2303 C2287 1.349 . S
C2303 H2295 0.950 . S
C2303 C2301 1.327 . S
C2304 C2292 1.349 . S
C2304 H2298 0.950 . S
C2304 C2305 1.327 . S
C2305 H2299 0.950 . S
C2305 C2304 1.327 . S
C2305 C2309 1.429 . S
C2306 C2289 1.574 . S
C2306 H2300 0.949 . S
C2306 C2310 1.368 . S
C2307 C2288 1.429 . S
C2307 C2301 1.429 . S
C2307 C2308 1.523 . S
C2308 C2289 1.368 . S
C2308 C2302 1.368 . S
C2308 C2307 1.523 . S
C2309 C2293 1.429 . S
C2309 C2305 1.429 . S
C2309 C2310 1.523 . S
C2310 C2294 1.368 . S
C2310 C2306 1.368 . S
C2310 C2309 1.523 . S
H2311 C2286 0.950 . S
H2312 C2288 0.950 . S
H2313 C2289 0.949 . S
H2314 C2291 0.950 . S
H2315 C2293 0.950 . S
C2316 C2317 1.349 . S
C2316 C2318 1.327 . S
C2316 H2341 0.950 . S
C2317 C2316 1.349 . S
C2317 C2333 1.349 . S
C2318 C2316 1.327 . S
C2318 C2337 1.429 . S
C2318 H2342 0.950 . S
C2319 C2336 1.574 . S
C2319 C2338 1.368 . S
C2319 H2343 0.949 . S
H2320 C2324 0.949 . S
C2321 C2322 1.349 . S
C2321 C2323 1.327 . S
C2321 H2344 0.950 . S
C2322 C2321 1.349 . S
C2322 C2334 1.349 . S
C2323 C2321 1.327 . S
C2323 C2339 1.429 . S
C2323 H2345 0.950 . S
C2324 H2320 0.949 . S
C2324 C2332 1.574 . S
C2324 C2340 1.368 . S
H2325 C2333 0.950 . S
H2326 C2331 0.950 . S
H2327 C2332 0.949 . S
H2328 C2334 0.950 . S
H2329 C2335 0.950 . S
H2330 C2336 0.949 . S
C2331 H2326 0.950 . S
C2331 C2333 1.327 . S
C2331 C2337 1.429 . S
C2332 C2324 1.574 . S
C2332 H2327 0.949 . S
C2332 C2338 1.368 . S
C2333 C2317 1.349 . S
C2333 H2325 0.950 . S
C2333 C2331 1.327 . S
C2334 C2322 1.349 . S
C2334 H2328 0.950 . S
C2334 C2335 1.327 . S
C2335 H2329 0.950 . S
C2335 C2334 1.327 . S
C2335 C2339 1.429 . S
C2336 C2319 1.574 . S
C2336 H2330 0.949 . S
C2336 C2340 1.368 . S
C2337 C2318 1.429 . S
C2337 C2331 1.429 . S
C2337 C2338 1.523 . S
C2338 C2319 1.368 . S
C2338 C2332 1.368 . S
C2338 C2337 1.523 . S
C2339 C2323 1.429 . S
C2339 C2335 1.429 . S
C2339 C2340 1.523 . S
C2340 C2324 1.368 . S
C2340 C2336 1.368 . S
C2340 C2339 1.523 . S
H2341 C2316 0.950 . S
H2342 C2318 0.950 . S
H2343 C2319 0.949 . S
H2344 C2321 0.950 . S
H2345 C2323 0.950 . S
C2346 C2347 1.349 . S
C2346 C2348 1.327 . S
C2346 H2371 0.950 . S
C2347 C2346 1.349 . S
C2347 C2363 1.349 . S
C2348 C2346 1.327 . S
C2348 C2367 1.429 . S
C2348 H2372 0.950 . S
C2349 C2366 1.574 . S
C2349 C2368 1.368 . S
C2349 H2373 0.949 . S
H2350 C2354 0.949 . S
C2351 C2352 1.349 . S
C2351 C2353 1.327 . S
C2351 H2374 0.950 . S
C2352 C2351 1.349 . S
C2352 C2364 1.349 . S
C2353 C2351 1.327 . S
C2353 C2369 1.429 . S
C2353 H2375 0.950 . S
C2354 H2350 0.949 . S
C2354 C2362 1.574 . S
C2354 C2370 1.368 . S
H2355 C2363 0.950 . S
H2356 C2361 0.950 . S
H2357 C2362 0.949 . S
H2358 C2364 0.950 . S
H2359 C2365 0.950 . S
H2360 C2366 0.949 . S
C2361 H2356 0.950 . S
C2361 C2363 1.327 . S
C2361 C2367 1.429 . S
C2362 C2354 1.574 . S
C2362 H2357 0.949 . S
C2362 C2368 1.368 . S
C2363 C2347 1.349 . S
C2363 H2355 0.950 . S
C2363 C2361 1.327 . S
C2364 C2352 1.349 . S
C2364 H2358 0.950 . S
C2364 C2365 1.327 . S
C2365 H2359 0.950 . S
C2365 C2364 1.327 . S
C2365 C2369 1.429 . S
C2366 C2349 1.574 . S
C2366 H2360 0.949 . S
C2366 C2370 1.368 . S
C2367 C2348 1.429 . S
C2367 C2361 1.429 . S
C2367 C2368 1.523 . S
C2368 C2349 1.368 . S
C2368 C2362 1.368 . S
C2368 C2367 1.523 . S
C2369 C2353 1.429 . S
C2369 C2365 1.429 . S
C2369 C2370 1.523 . S
C2370 C2354 1.368 . S
C2370 C2366 1.368 . S
C2370 C2369 1.523 . S
H2371 C2346 0.950 . S
H2372 C2348 0.950 . S
H2373 C2349 0.949 . S
H2374 C2351 0.950 . S
H2375 C2353 0.950 . S
C2376 C2377 1.349 . S
C2376 C2378 1.327 . S
C2376 H2401 0.950 . S
C2377 C2376 1.349 . S
C2377 C2393 1.349 . S
C2378 C2376 1.327 . S
C2378 C2397 1.429 . S
C2378 H2402 0.950 . S
C2379 C2396 1.574 . S
C2379 C2398 1.368 . S
C2379 H2403 0.949 . S
H2380 C2384 0.949 . S
C2381 C2382 1.349 . S
C2381 C2383 1.327 . S
C2381 H2404 0.950 . S
C2382 C2381 1.349 . S
C2382 C2394 1.349 . S
C2383 C2381 1.327 . S
C2383 C2399 1.429 . S
C2383 H2405 0.950 . S
C2384 H2380 0.949 . S
C2384 C2392 1.574 . S
C2384 C2400 1.368 . S
H2385 C2393 0.950 . S
H2386 C2391 0.950 . S
H2387 C2392 0.949 . S
H2388 C2394 0.950 . S
H2389 C2395 0.950 . S
H2390 C2396 0.949 . S
C2391 H2386 0.950 . S
C2391 C2393 1.327 . S
C2391 C2397 1.429 . S
C2392 C2384 1.574 . S
C2392 H2387 0.949 . S
C2392 C2398 1.368 . S
C2393 C2377 1.349 . S
C2393 H2385 0.950 . S
C2393 C2391 1.327 . S
C2394 C2382 1.349 . S
C2394 H2388 0.950 . S
C2394 C2395 1.327 . S
C2395 H2389 0.950 . S
C2395 C2394 1.327 . S
C2395 C2399 1.429 . S
C2396 C2379 1.574 . S
C2396 H2390 0.949 . S
C2396 C2400 1.368 . S
C2397 C2378 1.429 . S
C2397 C2391 1.429 . S
C2397 C2398 1.523 . S
C2398 C2379 1.368 . S
C2398 C2392 1.368 . S
C2398 C2397 1.523 . S
C2399 C2383 1.429 . S
C2399 C2395 1.429 . S
C2399 C2400 1.523 . S
C2400 C2384 1.368 . S
C2400 C2396 1.368 . S
C2400 C2399 1.523 . S
H2401 C2376 0.950 . S
H2402 C2378 0.950 . S
H2403 C2379 0.949 . S
H2404 C2381 0.950 . S
H2405 C2383 0.950 . S
C2406 C2407 1.349 . S
C2406 C2408 1.327 . S
C2406 H2431 0.950 . S
C2407 C2406 1.349 . S
C2407 C2423 1.349 . S
C2408 C2406 1.327 . S
C2408 C2427 1.429 . S
C2408 H2432 0.950 . S
C2409 C2426 1.574 . S
C2409 C2428 1.368 . S
C2409 H2433 0.949 . S
H2410 C2414 0.949 . S
C2411 C2412 1.349 . S
C2411 C2413 1.327 . S
C2411 H2434 0.950 . S
C2412 C2411 1.349 . S
C2412 C2424 1.349 . S
C2413 C2411 1.327 . S
C2413 C2429 1.429 . S
C2413 H2435 0.950 . S
C2414 H2410 0.949 . S
C2414 C2422 1.574 . S
C2414 C2430 1.368 . S
H2415 C2423 0.950 1_554 S
H2416 C2421 0.950 . S
H2417 C2422 0.949 . S
H2418 C2424 0.950 . S
H2419 C2425 0.950 . S
H2420 C2426 0.949 . S
C2421 H2416 0.950 . S
C2421 C2423 1.327 . S
C2421 C2427 1.429 . S
C2422 C2414 1.574 . S
C2422 H2417 0.949 . S
C2422 C2428 1.368 . S
C2423 C2407 1.349 . S
C2423 H2415 0.950 1_556 S
C2423 C2421 1.327 . S
C2424 C2412 1.349 . S
C2424 H2418 0.950 . S
C2424 C2425 1.327 . S
C2425 H2419 0.950 . S
C2425 C2424 1.327 . S
C2425 C2429 1.429 . S
C2426 C2409 1.574 . S
C2426 H2420 0.949 . S
C2426 C2430 1.368 . S
C2427 C2408 1.429 . S
C2427 C2421 1.429 . S
C2427 C2428 1.523 . S
C2428 C2409 1.368 . S
C2428 C2422 1.368 . S
C2428 C2427 1.523 . S
C2429 C2413 1.429 . S
C2429 C2425 1.429 . S
C2429 C2430 1.523 . S
C2430 C2414 1.368 . S
C2430 C2426 1.368 . S
C2430 C2429 1.523 . S
H2431 C2406 0.950 . S
H2432 C2408 0.950 . S
H2433 C2409 0.949 . S
H2434 C2411 0.950 . S
H2435 C2413 0.950 . S
C2436 C2437 1.349 . S
C2436 C2438 1.327 . S
C2436 H2461 0.950 . S
C2437 C2436 1.349 . S
C2437 C2453 1.349 . S
C2438 C2436 1.327 . S
C2438 C2457 1.429 . S
C2438 H2462 0.950 . S
C2439 C2456 1.574 . S
C2439 C2458 1.368 . S
C2439 H2463 0.949 . S
H2440 C2444 0.949 . S
C2441 C2442 1.349 . S
C2441 C2443 1.327 . S
C2441 H2464 0.950 . S
C2442 C2441 1.349 . S
C2442 C2454 1.349 . S
C2443 C2441 1.327 . S
C2443 C2459 1.429 . S
C2443 H2465 0.950 . S
C2444 H2440 0.949 . S
C2444 C2452 1.574 . S
C2444 C2460 1.368 . S
H2445 C2453 0.950 . S
H2446 C2451 0.950 . S
H2447 C2452 0.949 . S
H2448 C2454 0.950 . S
H2449 C2455 0.950 . S
H2450 C2456 0.949 . S
C2451 H2446 0.950 . S
C2451 C2453 1.327 . S
C2451 C2457 1.429 . S
C2452 C2444 1.574 . S
C2452 H2447 0.949 . S
C2452 C2458 1.368 . S
C2453 C2437 1.349 . S
C2453 H2445 0.950 . S
C2453 C2451 1.327 . S
C2454 C2442 1.349 . S
C2454 H2448 0.950 . S
C2454 C2455 1.327 . S
C2455 H2449 0.950 . S
C2455 C2454 1.327 . S
C2455 C2459 1.429 . S
C2456 C2439 1.574 . S
C2456 H2450 0.949 . S
C2456 C2460 1.368 . S
C2457 C2438 1.429 . S
C2457 C2451 1.429 . S
C2457 C2458 1.523 . S
C2458 C2439 1.368 . S
C2458 C2452 1.368 . S
C2458 C2457 1.523 . S
C2459 C2443 1.429 . S
C2459 C2455 1.429 . S
C2459 C2460 1.523 . S
C2460 C2444 1.368 . S
C2460 C2456 1.368 . S
C2460 C2459 1.523 . S
H2461 C2436 0.950 . S
H2462 C2438 0.950 . S
H2463 C2439 0.949 . S
H2464 C2441 0.950 . S
H2465 C2443 0.950 . S
C2466 C2467 1.349 . S
C2466 C2468 1.327 . S
C2466 H2491 0.950 . S
C2467 C2466 1.349 . S
C2467 C2483 1.349 . S
C2468 C2466 1.327 . S
C2468 C2487 1.429 . S
C2468 H2492 0.950 . S
C2469 C2486 1.574 . S
C2469 C2488 1.368 . S
C2469 H2493 0.949 . S
H2470 C2474 0.949 . S
C2471 C2472 1.349 . S
C2471 C2473 1.327 . S
C2471 H2494 0.950 . S
C2472 C2471 1.349 . S
C2472 C2484 1.349 . S
C2473 C2471 1.327 . S
C2473 C2489 1.429 . S
C2473 H2495 0.950 . S
C2474 H2470 0.949 . S
C2474 C2482 1.574 . S
C2474 C2490 1.368 . S
H2475 C2483 0.950 . S
H2476 C2481 0.950 . S
H2477 C2482 0.949 . S
H2478 C2484 0.950 . S
H2479 C2485 0.950 . S
H2480 C2486 0.949 . S
C2481 H2476 0.950 . S
C2481 C2483 1.327 . S
C2481 C2487 1.429 . S
C2482 C2474 1.574 . S
C2482 H2477 0.949 . S
C2482 C2488 1.368 . S
C2483 C2467 1.349 . S
C2483 H2475 0.950 . S
C2483 C2481 1.327 . S
C2484 C2472 1.349 . S
C2484 H2478 0.950 . S
C2484 C2485 1.327 . S
C2485 H2479 0.950 . S
C2485 C2484 1.327 . S
C2485 C2489 1.429 . S
C2486 C2469 1.574 . S
C2486 H2480 0.949 . S
C2486 C2490 1.368 . S
C2487 C2468 1.429 . S
C2487 C2481 1.429 . S
C2487 C2488 1.523 . S
C2488 C2469 1.368 . S
C2488 C2482 1.368 . S
C2488 C2487 1.523 . S
C2489 C2473 1.429 . S
C2489 C2485 1.429 . S
C2489 C2490 1.523 . S
C2490 C2474 1.368 . S
C2490 C2486 1.368 . S
C2490 C2489 1.523 . S
H2491 C2466 0.950 . S
H2492 C2468 0.950 . S
H2493 C2469 0.949 . S
H2494 C2471 0.950 . S
H2495 C2473 0.950 . S
C2496 C2497 1.349 . S
C2496 C2498 1.327 . S
C2496 H2521 0.950 . S
C2497 C2496 1.349 . S
C2497 C2513 1.349 . S
C2498 C2496 1.327 . S
C2498 C2517 1.429 . S
C2498 H2522 0.950 . S
C2499 C2516 1.574 . S
C2499 C2518 1.368 . S
C2499 H2523 0.949 . S
H2500 C2504 0.949 . S
C2501 C2502 1.349 . S
C2501 C2503 1.327 . S
C2501 H2524 0.950 . S
C2502 C2501 1.349 . S
C2502 C2514 1.349 . S
C2503 C2501 1.327 . S
C2503 C2519 1.429 . S
C2503 H2525 0.950 . S
C2504 H2500 0.949 . S
C2504 C2512 1.574 . S
C2504 C2520 1.368 . S
H2505 C2513 0.950 . S
H2506 C2511 0.950 . S
H2507 C2512 0.949 . S
H2508 C2514 0.950 . S
H2509 C2515 0.950 . S
H2510 C2516 0.949 . S
C2511 H2506 0.950 . S
C2511 C2513 1.327 . S
C2511 C2517 1.429 . S
C2512 C2504 1.574 . S
C2512 H2507 0.949 . S
C2512 C2518 1.368 . S
C2513 C2497 1.349 . S
C2513 H2505 0.950 . S
C2513 C2511 1.327 . S
C2514 C2502 1.349 . S
C2514 H2508 0.950 . S
C2514 C2515 1.327 . S
C2515 H2509 0.950 . S
C2515 C2514 1.327 . S
C2515 C2519 1.429 . S
C2516 C2499 1.574 . S
C2516 H2510 0.949 . S
C2516 C2520 1.368 . S
C2517 C2498 1.429 . S
C2517 C2511 1.429 . S
C2517 C2518 1.523 . S
C2518 C2499 1.368 . S
C2518 C2512 1.368 . S
C2518 C2517 1.523 . S
C2519 C2503 1.429 . S
C2519 C2515 1.429 . S
C2519 C2520 1.523 . S
C2520 C2504 1.368 . S
C2520 C2516 1.368 . S
C2520 C2519 1.523 . S
H2521 C2496 0.950 . S
H2522 C2498 0.950 . S
H2523 C2499 0.949 . S
H2524 C2501 0.950 . S
H2525 C2503 0.950 . S
C2526 C2527 1.349 . S
C2526 C2528 1.327 . S
C2526 H2551 0.950 . S
C2527 C2526 1.349 . S
C2527 C2543 1.349 . S
C2528 C2526 1.327 . S
C2528 C2547 1.429 . S
C2528 H2552 0.950 . S
C2529 C2546 1.574 . S
C2529 C2548 1.368 . S
C2529 H2553 0.949 . S
H2530 C2534 0.949 . S
C2531 C2532 1.349 . S
C2531 C2533 1.327 . S
C2531 H2554 0.950 . S
C2532 C2531 1.349 . S
C2532 C2544 1.349 . S
C2533 C2531 1.327 . S
C2533 C2549 1.429 . S
C2533 H2555 0.950 . S
C2534 H2530 0.949 . S
C2534 C2542 1.574 . S
C2534 C2550 1.368 . S
H2535 C2543 0.950 . S
H2536 C2541 0.950 . S
H2537 C2542 0.949 . S
H2538 C2544 0.950 . S
H2539 C2545 0.950 . S
H2540 C2546 0.949 . S
C2541 H2536 0.950 . S
C2541 C2543 1.327 . S
C2541 C2547 1.429 . S
C2542 C2534 1.574 . S
C2542 H2537 0.949 . S
C2542 C2548 1.368 . S
C2543 C2527 1.349 . S
C2543 H2535 0.950 . S
C2543 C2541 1.327 . S
C2544 C2532 1.349 . S
C2544 H2538 0.950 . S
C2544 C2545 1.327 . S
C2545 H2539 0.950 . S
C2545 C2544 1.327 . S
C2545 C2549 1.429 . S
C2546 C2529 1.574 . S
C2546 H2540 0.949 . S
C2546 C2550 1.368 . S
C2547 C2528 1.429 . S
C2547 C2541 1.429 . S
C2547 C2548 1.523 . S
C2548 C2529 1.368 . S
C2548 C2542 1.368 . S
C2548 C2547 1.523 . S
C2549 C2533 1.429 . S
C2549 C2545 1.429 . S
C2549 C2550 1.523 . S
C2550 C2534 1.368 . S
C2550 C2546 1.368 . S
C2550 C2549 1.523 . S
H2551 C2526 0.950 . S
H2552 C2528 0.950 . S
H2553 C2529 0.949 . S
H2554 C2531 0.950 . S
H2555 C2533 0.950 . S
C2556 C2557 1.349 . S
C2556 C2558 1.327 . S
C2556 H2581 0.950 . S
C2557 C2556 1.349 . S
C2557 C2573 1.349 . S
C2558 C2556 1.327 . S
C2558 C2577 1.429 . S
C2558 H2582 0.950 . S
C2559 C2576 1.574 . S
C2559 C2578 1.368 . S
C2559 H2583 0.949 . S
H2560 C2564 0.949 . S
C2561 C2562 1.349 . S
C2561 C2563 1.327 . S
C2561 H2584 0.950 . S
C2562 C2561 1.349 . S
C2562 C2574 1.349 . S
C2563 C2561 1.327 . S
C2563 C2579 1.429 . S
C2563 H2585 0.950 . S
C2564 H2560 0.949 . S
C2564 C2572 1.574 . S
C2564 C2580 1.368 . S
H2565 C2573 0.962 . S
H2566 C2571 0.950 . S
H2567 C2572 0.949 . S
H2568 C2574 0.950 . S
H2569 C2575 0.950 . S
H2570 C2576 0.949 . S
C2571 H2566 0.950 . S
C2571 C2573 1.327 . S
C2571 C2577 1.429 . S
C2572 C2564 1.574 . S
C2572 H2567 0.949 . S
C2572 C2578 1.368 . S
C2573 C2557 1.349 . S
C2573 H2565 0.962 . S
C2573 C2571 1.327 . S
C2574 C2562 1.349 . S
C2574 H2568 0.950 . S
C2574 C2575 1.327 . S
C2575 H2569 0.950 . S
C2575 C2574 1.327 . S
C2575 C2579 1.429 . S
C2576 C2559 1.574 . S
C2576 H2570 0.949 . S
C2576 C2580 1.368 . S
C2577 C2558 1.429 . S
C2577 C2571 1.429 . S
C2577 C2578 1.523 . S
C2578 C2559 1.368 . S
C2578 C2572 1.368 . S
C2578 C2577 1.523 . S
C2579 C2563 1.429 . S
C2579 C2575 1.429 . S
C2579 C2580 1.523 . S
C2580 C2564 1.368 . S
C2580 C2576 1.368 . S
C2580 C2579 1.523 . S
H2581 C2556 0.950 . S
H2582 C2558 0.950 . S
H2583 C2559 0.949 . S
H2584 C2561 0.950 . S
H2585 C2563 0.950 . S
C2586 C2587 1.349 . S
C2586 C2588 1.327 . S
C2586 H2611 0.950 . S
C2587 C2586 1.349 . S
C2587 C2603 1.349 . S
C2588 C2586 1.327 . S
C2588 C2607 1.429 . S
C2588 H2612 0.950 . S
C2589 C2606 1.574 . S
C2589 C2608 1.368 . S
C2589 H2613 0.949 . S
H2590 C2594 0.949 . S
C2591 C2592 1.349 . S
C2591 C2593 1.327 . S
C2591 H2614 0.950 . S
C2592 C2591 1.349 . S
C2592 C2604 1.349 . S
C2593 C2591 1.327 . S
C2593 C2609 1.429 . S
C2593 H2615 0.950 . S
C2594 H2590 0.949 . S
C2594 C2602 1.574 . S
C2594 C2610 1.368 . S
H2595 C2603 0.950 . S
H2596 C2601 0.950 . S
H2597 C2602 0.949 . S
H2598 C2604 0.950 . S
H2599 C2605 0.950 . S
H2600 C2606 0.949 . S
C2601 H2596 0.950 . S
C2601 C2603 1.327 . S
C2601 C2607 1.429 . S
C2602 C2594 1.574 . S
C2602 H2597 0.949 . S
C2602 C2608 1.368 . S
C2603 C2587 1.349 . S
C2603 H2595 0.950 . S
C2603 C2601 1.327 . S
C2604 C2592 1.349 . S
C2604 H2598 0.950 . S
C2604 C2605 1.327 . S
C2605 H2599 0.950 . S
C2605 C2604 1.327 . S
C2605 C2609 1.429 . S
C2606 C2589 1.574 . S
C2606 H2600 0.949 . S
C2606 C2610 1.368 . S
C2607 C2588 1.429 . S
C2607 C2601 1.429 . S
C2607 C2608 1.523 . S
C2608 C2589 1.368 . S
C2608 C2602 1.368 . S
C2608 C2607 1.523 . S
C2609 C2593 1.429 . S
C2609 C2605 1.429 . S
C2609 C2610 1.523 . S
C2610 C2594 1.368 . S
C2610 C2606 1.368 . S
C2610 C2609 1.523 . S
H2611 C2586 0.950 . S
H2612 C2588 0.950 . S
H2613 C2589 0.949 . S
H2614 C2591 0.950 . S
H2615 C2593 0.950 . S
C2616 C2617 1.349 . S
C2616 C2618 1.327 . S
C2616 H2641 0.950 1_554 S
C2617 C2616 1.349 . S
C2617 C2633 1.349 . S
C2618 C2616 1.327 . S
C2618 C2637 1.429 . S
C2618 H2642 0.950 . S
C2619 C2636 1.574 . S
C2619 C2638 1.368 . S
C2619 H2643 0.949 . S
H2620 C2624 0.949 . S
C2621 C2622 1.349 . S
C2621 C2623 1.327 . S
C2621 H2644 0.950 . S
C2622 C2621 1.349 . S
C2622 C2634 1.349 . S
C2623 C2621 1.327 . S
C2623 C2639 1.429 . S
C2623 H2645 0.950 . S
C2624 H2620 0.949 . S
C2624 C2632 1.574 . S
C2624 C2640 1.368 . S
H2625 C2633 0.950 . S
H2626 C2631 0.950 . S
H2627 C2632 0.949 . S
H2628 C2634 0.950 . S
H2629 C2635 0.950 . S
H2630 C2636 0.949 . S
C2631 H2626 0.950 . S
C2631 C2633 1.327 . S
C2631 C2637 1.429 . S
C2632 C2624 1.574 . S
C2632 H2627 0.949 . S
C2632 C2638 1.368 . S
C2633 C2617 1.349 . S
C2633 H2625 0.950 . S
C2633 C2631 1.327 . S
C2634 C2622 1.349 . S
C2634 H2628 0.950 . S
C2634 C2635 1.327 . S
C2635 H2629 0.950 . S
C2635 C2634 1.327 . S
C2635 C2639 1.429 . S
C2636 C2619 1.574 . S
C2636 H2630 0.949 . S
C2636 C2640 1.368 . S
C2637 C2618 1.429 . S
C2637 C2631 1.429 . S
C2637 C2638 1.523 . S
C2638 C2619 1.368 . S
C2638 C2632 1.368 . S
C2638 C2637 1.523 . S
C2639 C2623 1.429 . S
C2639 C2635 1.429 . S
C2639 C2640 1.523 . S
C2640 C2624 1.368 . S
C2640 C2636 1.368 . S
C2640 C2639 1.523 . S
H2641 C2616 0.950 1_556 S
H2642 C2618 0.950 . S
H2643 C2619 0.949 . S
H2644 C2621 0.950 . S
H2645 C2623 0.950 . S
C2646 C2647 1.349 . S
C2646 C2648 1.327 . S
C2646 H2671 0.950 . S
C2647 C2646 1.349 . S
C2647 C2663 1.349 . S
C2648 C2646 1.327 . S
C2648 C2667 1.429 . S
C2648 H2672 0.950 . S
C2649 C2666 1.574 . S
C2649 C2668 1.368 . S
C2649 H2673 0.949 . S
H2650 C2654 0.949 . S
C2651 C2652 1.349 . S
C2651 C2653 1.327 . S
C2651 H2674 0.939 1_556 S
C2652 C2651 1.349 . S
C2652 C2664 1.349 . S
C2653 C2651 1.327 . S
C2653 C2669 1.429 . S
C2653 H2675 0.950 . S
C2654 H2650 0.949 . S
C2654 C2662 1.574 . S
C2654 C2670 1.368 . S
H2655 C2663 0.950 . S
H2656 C2661 0.950 . S
H2657 C2662 0.949 . S
H2658 C2664 0.950 . S
H2659 C2665 0.950 . S
H2660 C2666 0.949 . S
C2661 H2656 0.950 . S
C2661 C2663 1.327 . S
C2661 C2667 1.429 . S
C2662 C2654 1.574 . S
C2662 H2657 0.949 . S
C2662 C2668 1.368 . S
C2663 C2647 1.349 . S
C2663 H2655 0.950 . S
C2663 C2661 1.327 . S
C2664 C2652 1.349 . S
C2664 H2658 0.950 . S
C2664 C2665 1.327 . S
C2665 H2659 0.950 . S
C2665 C2664 1.327 . S
C2665 C2669 1.429 . S
C2666 C2649 1.574 . S
C2666 H2660 0.949 . S
C2666 C2670 1.368 . S
C2667 C2648 1.429 . S
C2667 C2661 1.429 . S
C2667 C2668 1.523 . S
C2668 C2649 1.368 . S
C2668 C2662 1.368 . S
C2668 C2667 1.523 . S
C2669 C2653 1.429 . S
C2669 C2665 1.429 . S
C2669 C2670 1.523 . S
C2670 C2654 1.368 . S
C2670 C2666 1.368 . S
C2670 C2669 1.523 . S
H2671 C2646 0.950 . S
H2672 C2648 0.950 . S
H2673 C2649 0.949 . S
H2674 C2651 0.939 1_554 S
H2675 C2653 0.950 . S
C2676 C2677 1.349 . S
C2676 C2678 1.327 . S
C2676 H2701 0.950 . S
C2677 C2676 1.349 . S
C2677 C2693 1.349 . S
C2678 C2676 1.327 . S
C2678 C2697 1.429 . S
C2678 H2702 0.950 . S
C2679 C2696 1.574 . S
C2679 C2698 1.368 . S
C2679 H2703 0.949 . S
H2680 C2684 0.949 . S
C2681 C2682 1.349 . S
C2681 C2683 1.327 . S
C2681 H2704 0.950 1_556 S
C2682 C2681 1.349 . S
C2682 C2694 1.349 . S
C2683 C2681 1.327 . S
C2683 C2699 1.429 . S
C2683 H2705 0.950 . S
C2684 H2680 0.949 . S
C2684 C2692 1.574 . S
C2684 C2700 1.368 . S
H2685 C2693 0.950 . S
H2686 C2691 0.950 . S
H2687 C2692 0.949 . S
H2688 C2694 0.950 . S
H2689 C2695 0.950 . S
H2690 C2696 0.949 . S
C2691 H2686 0.950 . S
C2691 C2693 1.327 . S
C2691 C2697 1.429 . S
C2692 C2684 1.574 . S
C2692 H2687 0.949 . S
C2692 C2698 1.368 . S
C2693 C2677 1.349 . S
C2693 H2685 0.950 . S
C2693 C2691 1.327 . S
C2694 C2682 1.349 . S
C2694 H2688 0.950 . S
C2694 C2695 1.327 . S
C2695 H2689 0.950 . S
C2695 C2694 1.327 . S
C2695 C2699 1.429 . S
C2696 C2679 1.574 . S
C2696 H2690 0.949 . S
C2696 C2700 1.368 . S
C2697 C2678 1.429 . S
C2697 C2691 1.429 . S
C2697 C2698 1.523 . S
C2698 C2679 1.368 . S
C2698 C2692 1.368 . S
C2698 C2697 1.523 . S
C2699 C2683 1.429 . S
C2699 C2695 1.429 . S
C2699 C2700 1.523 . S
C2700 C2684 1.368 . S
C2700 C2696 1.368 . S
C2700 C2699 1.523 . S
H2701 C2676 0.950 . S
H2702 C2678 0.950 . S
H2703 C2679 0.949 . S
H2704 C2681 0.950 1_554 S
H2705 C2683 0.950 . S
C2706 C2707 1.349 . S
C2706 C2708 1.327 . S
C2706 H2731 0.950 . S
C2707 C2706 1.349 . S
C2707 C2723 1.349 . S
C2708 C2706 1.327 . S
C2708 C2727 1.429 . S
C2708 H2732 0.950 . S
C2709 C2726 1.574 . S
C2709 C2728 1.368 . S
C2709 H2733 0.949 . S
H2710 C2714 0.949 . S
C2711 C2712 1.349 . S
C2711 C2713 1.327 . S
C2711 H2734 0.950 . S
C2712 C2711 1.349 . S
C2712 C2724 1.349 . S
C2713 C2711 1.327 . S
C2713 C2729 1.429 . S
C2713 H2735 0.950 . S
C2714 H2710 0.949 . S
C2714 C2722 1.574 . S
C2714 C2730 1.368 . S
H2715 C2723 0.950 . S
H2716 C2721 0.950 . S
H2717 C2722 0.949 . S
H2718 C2724 0.950 . S
H2719 C2725 0.950 . S
H2720 C2726 0.949 . S
C2721 H2716 0.950 . S
C2721 C2723 1.327 . S
C2721 C2727 1.429 . S
C2722 C2714 1.574 . S
C2722 H2717 0.949 . S
C2722 C2728 1.368 . S
C2723 C2707 1.349 . S
C2723 H2715 0.950 . S
C2723 C2721 1.327 . S
C2724 C2712 1.349 . S
C2724 H2718 0.950 . S
C2724 C2725 1.327 . S
C2725 H2719 0.950 . S
C2725 C2724 1.327 . S
C2725 C2729 1.429 . S
C2726 C2709 1.574 . S
C2726 H2720 0.949 . S
C2726 C2730 1.368 . S
C2727 C2708 1.429 . S
C2727 C2721 1.429 . S
C2727 C2728 1.523 . S
C2728 C2709 1.368 . S
C2728 C2722 1.368 . S
C2728 C2727 1.523 . S
C2729 C2713 1.429 . S
C2729 C2725 1.429 . S
C2729 C2730 1.523 . S
C2730 C2714 1.368 . S
C2730 C2726 1.368 . S
C2730 C2729 1.523 . S
H2731 C2706 0.950 . S
H2732 C2708 0.950 . S
H2733 C2709 0.949 . S
H2734 C2711 0.950 . S
H2735 C2713 0.950 . S
C2736 C2737 1.349 . S
C2736 C2738 1.327 . S
C2736 H2761 0.950 . S
C2737 C2736 1.349 . S
C2737 C2753 1.349 . S
C2738 C2736 1.327 . S
C2738 C2757 1.429 . S
C2738 H2762 0.950 . S
C2739 C2756 1.574 . S
C2739 C2758 1.368 1_655 S
C2739 H2763 0.949 . S
H2740 C2744 0.949 . S
C2741 C2742 1.349 . S
C2741 C2743 1.327 . S
C2741 H2764 0.950 . S
C2742 C2741 1.349 . S
C2742 C2754 1.349 . S
C2743 C2741 1.327 . S
C2743 C2759 1.429 . S
C2743 H2765 0.950 . S
C2744 H2740 0.949 . S
C2744 C2752 1.574 . S
C2744 C2760 1.368 1_455 S
H2745 C2753 0.950 . S
H2746 C2751 0.950 1_655 S
H2747 C2752 0.949 . S
H2748 C2754 0.950 . S
H2749 C2755 0.950 1_455 S
H2750 C2756 0.949 . S
C2751 H2746 0.950 1_455 S
C2751 C2753 1.327 . S
C2751 C2757 1.429 . S
C2752 C2744 1.574 . S
C2752 H2747 0.949 . S
C2752 C2758 1.368 . S
C2753 C2737 1.349 . S
C2753 H2745 0.950 . S
C2753 C2751 1.327 . S
C2754 C2742 1.349 . S
C2754 H2748 0.950 . S
C2754 C2755 1.327 . S
C2755 H2749 0.950 1_655 S
C2755 C2754 1.327 . S
C2755 C2759 1.429 . S
C2756 C2739 1.574 . S
C2756 H2750 0.949 . S
C2756 C2760 1.368 . S
C2757 C2738 1.429 . S
C2757 C2751 1.429 . S
C2757 C2758 1.523 . S
C2758 C2739 1.368 1_455 S
C2758 C2752 1.368 . S
C2758 C2757 1.523 . S
C2759 C2743 1.429 . S
C2759 C2755 1.429 . S
C2759 C2760 1.523 . S
C2760 C2744 1.368 1_655 S
C2760 C2756 1.368 . S
C2760 C2759 1.523 . S
H2761 C2736 0.950 . S
H2762 C2738 0.950 . S
H2763 C2739 0.949 . S
H2764 C2741 0.950 . S
H2765 C2743 0.950 . S
C2766 C2767 1.349 . S
C2766 C2768 1.327 . S
C2766 H2791 0.950 . S
C2767 C2766 1.349 . S
C2767 C2783 1.349 . S
C2768 C2766 1.327 . S
C2768 C2787 1.429 . S
C2768 H2792 0.950 . S
C2769 C2786 1.574 . S
C2769 C2788 1.368 . S
C2769 H2793 0.949 . S
H2770 C2774 0.949 . S
C2771 C2772 1.349 . S
C2771 C2773 1.327 . S
C2771 H2794 0.950 . S
C2772 C2771 1.349 . S
C2772 C2784 1.349 . S
C2773 C2771 1.327 . S
C2773 C2789 1.429 . S
C2773 H2795 0.950 . S
C2774 H2770 0.949 . S
C2774 C2782 1.574 . S
C2774 C2790 1.368 . S
H2775 C2783 0.950 . S
H2776 C2781 0.950 . S
H2777 C2782 0.949 . S
H2778 C2784 0.950 . S
H2779 C2785 0.950 . S
H2780 C2786 0.949 . S
C2781 H2776 0.950 . S
C2781 C2783 1.327 . S
C2781 C2787 1.429 . S
C2782 C2774 1.574 . S
C2782 H2777 0.949 . S
C2782 C2788 1.368 . S
C2783 C2767 1.349 . S
C2783 H2775 0.950 . S
C2783 C2781 1.327 . S
C2784 C2772 1.349 . S
C2784 H2778 0.950 . S
C2784 C2785 1.327 . S
C2785 H2779 0.950 . S
C2785 C2784 1.327 . S
C2785 C2789 1.429 . S
C2786 C2769 1.574 . S
C2786 H2780 0.949 . S
C2786 C2790 1.368 . S
C2787 C2768 1.429 . S
C2787 C2781 1.429 . S
C2787 C2788 1.523 . S
C2788 C2769 1.368 . S
C2788 C2782 1.368 . S
C2788 C2787 1.523 . S
C2789 C2773 1.429 . S
C2789 C2785 1.429 . S
C2789 C2790 1.523 . S
C2790 C2774 1.368 . S
C2790 C2786 1.368 . S
C2790 C2789 1.523 . S
H2791 C2766 0.950 . S
H2792 C2768 0.950 . S
H2793 C2769 0.949 . S
H2794 C2771 0.950 . S
H2795 C2773 0.950 . S
C2796 C2797 1.349 . S
C2796 C2798 1.327 . S
C2796 H2821 0.950 . S
C2797 C2796 1.349 . S
C2797 C2813 1.349 . S
C2798 C2796 1.327 . S
C2798 C2817 1.429 . S
C2798 H2822 0.950 . S
C2799 C2816 1.574 . S
C2799 C2818 1.368 1_545 S
C2799 H2823 0.949 . S
H2800 C2804 0.949 . S
C2801 C2802 1.349 . S
C2801 C2803 1.327 . S
C2801 H2824 0.950 . S
C2802 C2801 1.349 . S
C2802 C2814 1.349 . S
C2803 C2801 1.327 . S
C2803 C2819 1.429 . S
C2803 H2825 0.950 . S
C2804 H2800 0.949 . S
C2804 C2812 1.574 . S
C2804 C2820 1.368 1_565 S
H2805 C2813 0.950 . S
H2806 C2811 0.904 1_545 S
H2807 C2812 0.949 . S
H2808 C2814 0.950 . S
H2809 C2815 0.906 1_565 S
H2810 C2816 0.949 . S
C2811 H2806 0.904 1_565 S
C2811 C2813 1.327 . S
C2811 C2817 1.429 . S
C2812 C2804 1.574 . S
C2812 H2807 0.949 . S
C2812 C2818 1.368 . S
C2813 C2797 1.349 . S
C2813 H2805 0.950 . S
C2813 C2811 1.327 . S
C2814 C2802 1.349 . S
C2814 H2808 0.950 . S
C2814 C2815 1.327 . S
C2815 H2809 0.906 1_545 S
C2815 C2814 1.327 . S
C2815 C2819 1.429 . S
C2816 C2799 1.574 . S
C2816 H2810 0.949 . S
C2816 C2820 1.368 . S
C2817 C2798 1.429 . S
C2817 C2811 1.429 . S
C2817 C2818 1.523 . S
C2818 C2799 1.368 1_565 S
C2818 C2812 1.368 . S
C2818 C2817 1.523 . S
C2819 C2803 1.429 . S
C2819 C2815 1.429 . S
C2819 C2820 1.523 . S
C2820 C2804 1.368 1_545 S
C2820 C2816 1.368 . S
C2820 C2819 1.523 . S
H2821 C2796 0.950 . S
H2822 C2798 0.950 . S
H2823 C2799 0.949 . S
H2824 C2801 0.950 . S
H2825 C2803 0.950 . S
C2826 C2827 1.349 . S
C2826 C2828 1.327 . S
C2826 H2851 0.950 . S
C2827 C2826 1.349 . S
C2827 C2843 1.349 . S
C2828 C2826 1.327 . S
C2828 C2847 1.429 . S
C2828 H2852 0.950 . S
C2829 C2846 1.574 . S
C2829 C2848 1.368 . S
C2829 H2853 0.949 . S
H2830 C2834 0.949 . S
C2831 C2832 1.349 . S
C2831 C2833 1.327 . S
C2831 H2854 0.950 . S
C2832 C2831 1.349 . S
C2832 C2844 1.349 . S
C2833 C2831 1.327 . S
C2833 C2849 1.429 . S
C2833 H2855 0.950 . S
C2834 H2830 0.949 . S
C2834 C2842 1.574 . S
C2834 C2850 1.368 . S
H2835 C2843 0.950 . S
H2836 C2841 0.950 . S
H2837 C2842 0.949 . S
H2838 C2844 0.950 . S
H2839 C2845 0.950 . S
H2840 C2846 0.949 . S
C2841 H2836 0.950 . S
C2841 C2843 1.327 . S
C2841 C2847 1.429 . S
C2842 C2834 1.574 . S
C2842 H2837 0.949 . S
C2842 C2848 1.368 1_545 S
C2843 C2827 1.349 . S
C2843 H2835 0.950 . S
C2843 C2841 1.327 . S
C2844 C2832 1.349 . S
C2844 H2838 0.950 . S
C2844 C2845 1.327 . S
C2845 H2839 0.950 . S
C2845 C2844 1.327 . S
C2845 C2849 1.429 . S
C2846 C2829 1.574 . S
C2846 H2840 0.949 . S
C2846 C2850 1.368 1_565 S
C2847 C2828 1.429 . S
C2847 C2841 1.429 . S
C2847 C2848 1.523 . S
C2848 C2829 1.368 . S
C2848 C2842 1.368 1_565 S
C2848 C2847 1.523 . S
C2849 C2833 1.429 . S
C2849 C2845 1.429 . S
C2849 C2850 1.523 . S
C2850 C2834 1.368 . S
C2850 C2846 1.368 1_545 S
C2850 C2849 1.523 . S
H2851 C2826 0.950 . S
H2852 C2828 0.950 . S
H2853 C2829 0.949 . S
H2854 C2831 0.950 . S
H2855 C2833 0.950 . S
C2856 C2857 1.349 . S
C2856 C2858 1.327 . S
C2856 H2881 0.950 . S
C2857 C2856 1.349 . S
C2857 C2873 1.349 . S
C2858 C2856 1.327 . S
C2858 C2877 1.429 . S
C2858 H2882 0.950 . S
C2859 C2876 1.574 1_655 S
C2859 C2878 1.368 . S
C2859 H2883 0.949 . S
H2860 C2864 0.949 . S
C2861 C2862 1.349 . S
C2861 C2863 1.327 . S
C2861 H2884 0.950 . S
C2862 C2861 1.349 . S
C2862 C2874 1.349 . S
C2863 C2861 1.327 . S
C2863 C2879 1.429 . S
C2863 H2885 0.950 . S
C2864 H2860 0.949 . S
C2864 C2872 1.574 1_455 S
C2864 C2880 1.368 . S
H2865 C2873 0.950 . S
H2866 C2871 0.950 . S
H2867 C2872 0.949 . S
H2868 C2874 0.950 . S
H2869 C2875 0.950 . S
H2870 C2876 0.949 . S
C2871 H2866 0.950 . S
C2871 C2873 1.327 . S
C2871 C2877 1.429 . S
C2872 C2864 1.574 1_655 S
C2872 H2867 0.949 . S
C2872 C2878 1.368 . S
C2873 C2857 1.349 . S
C2873 H2865 0.950 . S
C2873 C2871 1.327 . S
C2874 C2862 1.349 . S
C2874 H2868 0.950 . S
C2874 C2875 1.327 . S
C2875 H2869 0.950 . S
C2875 C2874 1.327 . S
C2875 C2879 1.429 . S
C2876 C2859 1.574 1_455 S
C2876 H2870 0.949 . S
C2876 C2880 1.368 . S
C2877 C2858 1.429 . S
C2877 C2871 1.429 . S
C2877 C2878 1.523 . S
C2878 C2859 1.368 . S
C2878 C2872 1.368 . S
C2878 C2877 1.523 . S
C2879 C2863 1.429 . S
C2879 C2875 1.429 . S
C2879 C2880 1.523 . S
C2880 C2864 1.368 . S
C2880 C2876 1.368 . S
C2880 C2879 1.523 . S
H2881 C2856 0.950 . S
H2882 C2858 0.950 . S
H2883 C2859 0.949 . S
H2884 C2861 0.950 . S
H2885 C2863 0.950 . S
C2886 C2887 1.349 . S
C2886 C2888 1.327 . S
C2886 H2911 0.950 . S
C2887 C2886 1.349 . S
C2887 C2903 1.349 . S
C2888 C2886 1.327 . S
C2888 C2907 1.429 . S
C2888 H2912 0.950 . S
C2889 C2906 1.574 . S
C2889 C2908 1.368 . S
C2889 H2913 0.949 . S
H2890 C2894 0.949 . S
C2891 C2892 1.349 . S
C2891 C2893 1.327 . S
C2891 H2914 0.950 . S
C2892 C2891 1.349 . S
C2892 C2904 1.349 . S
C2893 C2891 1.327 . S
C2893 C2909 1.429 . S
C2893 H2915 0.950 . S
C2894 H2890 0.949 . S
C2894 C2902 1.574 . S
C2894 C2910 1.368 . S
H2895 C2903 0.950 . S
H2896 C2901 0.950 . S
H2897 C2902 0.949 . S
H2898 C2904 0.950 . S
H2899 C2905 0.950 . S
H2900 C2906 0.949 . S
C2901 H2896 0.950 . S
C2901 C2903 1.327 . S
C2901 C2907 1.429 . S
C2902 C2894 1.574 . S
C2902 H2897 0.949 . S
C2902 C2908 1.368 . S
C2903 C2887 1.349 . S
C2903 H2895 0.950 . S
C2903 C2901 1.327 . S
C2904 C2892 1.349 . S
C2904 H2898 0.950 . S
C2904 C2905 1.327 . S
C2905 H2899 0.950 . S
C2905 C2904 1.327 . S
C2905 C2909 1.429 . S
C2906 C2889 1.574 . S
C2906 H2900 0.949 . S
C2906 C2910 1.368 . S
C2907 C2888 1.429 . S
C2907 C2901 1.429 . S
C2907 C2908 1.523 . S
C2908 C2889 1.368 . S
C2908 C2902 1.368 . S
C2908 C2907 1.523 . S
C2909 C2893 1.429 . S
C2909 C2905 1.429 . S
C2909 C2910 1.523 . S
C2910 C2894 1.368 . S
C2910 C2906 1.368 . S
C2910 C2909 1.523 . S
H2911 C2886 0.950 . S
H2912 C2888 0.950 . S
H2913 C2889 0.949 . S
H2914 C2891 0.950 . S
H2915 C2893 0.950 . S
C2916 C2917 1.349 . S
C2916 C2918 1.327 . S
C2916 H2941 0.950 . S
C2917 C2916 1.349 . S
C2917 C2933 1.349 . S
C2918 C2916 1.327 . S
C2918 C2937 1.429 . S
C2918 H2942 0.950 . S
C2919 C2936 1.574 . S
C2919 C2938 1.368 . S
C2919 H2943 0.949 . S
H2920 C2924 0.949 . S
C2921 C2922 1.349 . S
C2921 C2923 1.327 . S
C2921 H2944 0.950 . S
C2922 C2921 1.349 . S
C2922 C2934 1.349 . S
C2923 C2921 1.327 . S
C2923 C2939 1.429 . S
C2923 H2945 0.950 . S
C2924 H2920 0.949 . S
C2924 C2932 1.574 . S
C2924 C2940 1.368 . S
H2925 C2933 0.950 . S
H2926 C2931 0.950 . S
H2927 C2932 0.949 . S
H2928 C2934 0.950 . S
H2929 C2935 0.950 . S
H2930 C2936 0.949 . S
C2931 H2926 0.950 . S
C2931 C2933 1.327 . S
C2931 C2937 1.429 . S
C2932 C2924 1.574 . S
C2932 H2927 0.949 . S
C2932 C2938 1.368 . S
C2933 C2917 1.349 . S
C2933 H2925 0.950 . S
C2933 C2931 1.327 . S
C2934 C2922 1.349 . S
C2934 H2928 0.950 . S
C2934 C2935 1.327 . S
C2935 H2929 0.950 . S
C2935 C2934 1.327 . S
C2935 C2939 1.429 . S
C2936 C2919 1.574 . S
C2936 H2930 0.949 . S
C2936 C2940 1.368 . S
C2937 C2918 1.429 . S
C2937 C2931 1.429 . S
C2937 C2938 1.523 . S
C2938 C2919 1.368 . S
C2938 C2932 1.368 . S
C2938 C2937 1.523 . S
C2939 C2923 1.429 . S
C2939 C2935 1.429 . S
C2939 C2940 1.523 . S
C2940 C2924 1.368 . S
C2940 C2936 1.368 . S
C2940 C2939 1.523 . S
H2941 C2916 0.950 . S
H2942 C2918 0.950 . S
H2943 C2919 0.949 . S
H2944 C2921 0.950 . S
H2945 C2923 0.950 . S
C2946 C2947 1.349 . S
C2946 C2948 1.327 . S
C2946 H2971 0.950 . S
C2947 C2946 1.349 . S
C2947 C2963 1.349 . S
C2948 C2946 1.327 . S
C2948 C2967 1.429 . S
C2948 H2972 0.950 . S
C2949 C2966 1.574 . S
C2949 C2968 1.368 . S
C2949 H2973 0.949 . S
H2950 C2954 0.949 . S
C2951 C2952 1.349 . S
C2951 C2953 1.327 . S
C2951 H2974 0.950 . S
C2952 C2951 1.349 . S
C2952 C2964 1.349 . S
C2953 C2951 1.327 . S
C2953 C2969 1.429 . S
C2953 H2975 0.950 . S
C2954 H2950 0.949 . S
C2954 C2962 1.574 . S
C2954 C2970 1.368 . S
H2955 C2963 0.950 . S
H2956 C2961 0.950 . S
H2957 C2962 0.949 . S
H2958 C2964 0.950 . S
H2959 C2965 0.950 . S
H2960 C2966 0.949 . S
C2961 H2956 0.950 . S
C2961 C2963 1.327 . S
C2961 C2967 1.429 . S
C2962 C2954 1.574 . S
C2962 H2957 0.949 . S
C2962 C2968 1.368 . S
C2963 C2947 1.349 . S
C2963 H2955 0.950 . S
C2963 C2961 1.327 . S
C2964 C2952 1.349 . S
C2964 H2958 0.950 . S
C2964 C2965 1.327 . S
C2965 H2959 0.950 . S
C2965 C2964 1.327 . S
C2965 C2969 1.429 . S
C2966 C2949 1.574 . S
C2966 H2960 0.949 . S
C2966 C2970 1.368 . S
C2967 C2948 1.429 . S
C2967 C2961 1.429 . S
C2967 C2968 1.523 . S
C2968 C2949 1.368 . S
C2968 C2962 1.368 . S
C2968 C2967 1.523 . S
C2969 C2953 1.429 . S
C2969 C2965 1.429 . S
C2969 C2970 1.523 . S
C2970 C2954 1.368 . S
C2970 C2966 1.368 . S
C2970 C2969 1.523 . S
H2971 C2946 0.950 . S
H2972 C2948 0.950 . S
H2973 C2949 0.949 . S
H2974 C2951 0.950 . S
H2975 C2953 0.950 . S
C2976 C2977 1.349 . S
C2976 C2978 1.327 . S
C2976 H3001 0.950 . S
C2977 C2976 1.349 . S
C2977 C2993 1.349 . S
C2978 C2976 1.327 . S
C2978 C2997 1.429 . S
C2978 H3002 0.950 . S
C2979 C2996 1.574 . S
C2979 C2998 1.368 . S
C2979 H3003 0.949 . S
H2980 C2984 0.949 . S
C2981 C2982 1.349 . S
C2981 C2983 1.327 . S
C2981 H3004 0.950 . S
C2982 C2981 1.349 . S
C2982 C2994 1.349 . S
C2983 C2981 1.327 . S
C2983 C2999 1.429 . S
C2983 H3005 0.950 . S
C2984 H2980 0.949 . S
C2984 C2992 1.574 . S
C2984 C3000 1.368 . S
H2985 C2993 0.950 . S
H2986 C2991 0.950 . S
H2987 C2992 0.949 . S
H2988 C2994 0.950 . S
H2989 C2995 0.950 . S
H2990 C2996 0.949 . S
C2991 H2986 0.950 . S
C2991 C2993 1.327 . S
C2991 C2997 1.429 . S
C2992 C2984 1.574 . S
C2992 H2987 0.949 . S
C2992 C2998 1.368 . S
C2993 C2977 1.349 . S
C2993 H2985 0.950 . S
C2993 C2991 1.327 . S
C2994 C2982 1.349 . S
C2994 H2988 0.950 . S
C2994 C2995 1.327 . S
C2995 H2989 0.950 . S
C2995 C2994 1.327 . S
C2995 C2999 1.429 . S
C2996 C2979 1.574 . S
C2996 H2990 0.949 . S
C2996 C3000 1.368 . S
C2997 C2978 1.429 . S
C2997 C2991 1.429 . S
C2997 C2998 1.523 . S
C2998 C2979 1.368 . S
C2998 C2992 1.368 . S
C2998 C2997 1.523 . S
C2999 C2983 1.429 . S
C2999 C2995 1.429 . S
C2999 C3000 1.523 . S
C3000 C2984 1.368 . S
C3000 C2996 1.368 . S
C3000 C2999 1.523 . S
H3001 C2976 0.950 . S
H3002 C2978 0.950 . S
H3003 C2979 0.949 . S
H3004 C2981 0.950 . S
H3005 C2983 0.950 . S
C3006 C3007 1.349 . S
C3006 C3008 1.327 . S
C3006 H3031 0.950 . S
C3007 C3006 1.349 . S
C3007 C3023 1.349 . S
C3008 C3006 1.327 . S
C3008 C3027 1.429 . S
C3008 H3032 0.950 . S
C3009 C3026 1.574 . S
C3009 C3028 1.368 . S
C3009 H3033 0.949 . S
H3010 C3014 0.949 . S
C3011 C3012 1.349 . S
C3011 C3013 1.327 . S
C3011 H3034 0.950 . S
C3012 C3011 1.349 . S
C3012 C3024 1.349 . S
C3013 C3011 1.327 . S
C3013 C3029 1.429 . S
C3013 H3035 0.950 . S
C3014 H3010 0.949 . S
C3014 C3022 1.574 . S
C3014 C3030 1.368 . S
H3015 C3023 0.950 . S
H3016 C3021 0.950 . S
H3017 C3022 0.949 . S
H3018 C3024 0.950 . S
H3019 C3025 0.950 . S
H3020 C3026 0.949 . S
C3021 H3016 0.950 . S
C3021 C3023 1.327 . S
C3021 C3027 1.429 . S
C3022 C3014 1.574 . S
C3022 H3017 0.949 . S
C3022 C3028 1.368 . S
C3023 C3007 1.349 . S
C3023 H3015 0.950 . S
C3023 C3021 1.327 . S
C3024 C3012 1.349 . S
C3024 H3018 0.950 . S
C3024 C3025 1.327 . S
C3025 H3019 0.950 . S
C3025 C3024 1.327 . S
C3025 C3029 1.429 . S
C3026 C3009 1.574 . S
C3026 H3020 0.949 . S
C3026 C3030 1.368 . S
C3027 C3008 1.429 . S
C3027 C3021 1.429 . S
C3027 C3028 1.523 . S
C3028 C3009 1.368 . S
C3028 C3022 1.368 . S
C3028 C3027 1.523 . S
C3029 C3013 1.429 . S
C3029 C3025 1.429 . S
C3029 C3030 1.523 . S
C3030 C3014 1.368 . S
C3030 C3026 1.368 . S
C3030 C3029 1.523 . S
H3031 C3006 0.950 . S
H3032 C3008 0.950 . S
H3033 C3009 0.949 . S
H3034 C3011 0.950 . S
H3035 C3013 0.950 . S
C3036 C3037 1.349 . S
C3036 C3038 1.327 . S
C3036 H3061 0.950 . S
C3037 C3036 1.349 . S
C3037 C3053 1.349 . S
C3038 C3036 1.327 . S
C3038 C3057 1.429 . S
C3038 H3062 0.950 . S
C3039 C3056 1.574 . S
C3039 C3058 1.368 . S
C3039 H3063 0.949 . S
H3040 C3044 0.949 . S
C3041 C3042 1.349 . S
C3041 C3043 1.327 . S
C3041 H3064 0.950 . S
C3042 C3041 1.349 . S
C3042 C3054 1.349 . S
C3043 C3041 1.327 . S
C3043 C3059 1.429 . S
C3043 H3065 0.950 . S
C3044 H3040 0.949 . S
C3044 C3052 1.574 . S
C3044 C3060 1.368 . S
H3045 C3053 0.950 . S
H3046 C3051 0.950 . S
H3047 C3052 0.949 . S
H3048 C3054 0.950 . S
H3049 C3055 0.950 . S
H3050 C3056 0.949 . S
C3051 H3046 0.950 . S
C3051 C3053 1.327 . S
C3051 C3057 1.429 . S
C3052 C3044 1.574 . S
C3052 H3047 0.949 . S
C3052 C3058 1.368 . S
C3053 C3037 1.349 . S
C3053 H3045 0.950 . S
C3053 C3051 1.327 . S
C3054 C3042 1.349 . S
C3054 H3048 0.950 . S
C3054 C3055 1.327 . S
C3055 H3049 0.950 . S
C3055 C3054 1.327 . S
C3055 C3059 1.429 . S
C3056 C3039 1.574 . S
C3056 H3050 0.949 . S
C3056 C3060 1.368 . S
C3057 C3038 1.429 . S
C3057 C3051 1.429 . S
C3057 C3058 1.523 . S
C3058 C3039 1.368 . S
C3058 C3052 1.368 . S
C3058 C3057 1.523 . S
C3059 C3043 1.429 . S
C3059 C3055 1.429 . S
C3059 C3060 1.523 . S
C3060 C3044 1.368 . S
C3060 C3056 1.368 . S
C3060 C3059 1.523 . S
H3061 C3036 0.950 . S
H3062 C3038 0.950 . S
H3063 C3039 0.949 . S
H3064 C3041 0.950 . S
H3065 C3043 0.950 . S
C3066 C3067 1.349 . S
C3066 C3068 1.327 . S
C3066 H3091 0.950 . S
C3067 C3066 1.349 . S
C3067 C3083 1.349 . S
C3068 C3066 1.327 . S
C3068 C3087 1.429 . S
C3068 H3092 0.950 . S
C3069 C3086 1.574 . S
C3069 C3088 1.368 . S
C3069 H3093 0.949 . S
H3070 C3074 0.949 . S
C3071 C3072 1.349 . S
C3071 C3073 1.327 . S
C3071 H3094 0.950 . S
C3072 C3071 1.349 . S
C3072 C3084 1.349 . S
C3073 C3071 1.327 . S
C3073 C3089 1.429 . S
C3073 H3095 0.950 . S
C3074 H3070 0.949 . S
C3074 C3082 1.574 . S
C3074 C3090 1.368 . S
H3075 C3083 0.950 . S
H3076 C3081 0.950 . S
H3077 C3082 0.949 . S
H3078 C3084 0.950 . S
H3079 C3085 0.950 . S
H3080 C3086 0.949 . S
C3081 H3076 0.950 . S
C3081 C3083 1.327 . S
C3081 C3087 1.429 . S
C3082 C3074 1.574 . S
C3082 H3077 0.949 . S
C3082 C3088 1.368 . S
C3083 C3067 1.349 . S
C3083 H3075 0.950 . S
C3083 C3081 1.327 . S
C3084 C3072 1.349 . S
C3084 H3078 0.950 . S
C3084 C3085 1.327 . S
C3085 H3079 0.950 . S
C3085 C3084 1.327 . S
C3085 C3089 1.429 . S
C3086 C3069 1.574 . S
C3086 H3080 0.949 . S
C3086 C3090 1.368 . S
C3087 C3068 1.429 . S
C3087 C3081 1.429 . S
C3087 C3088 1.523 . S
C3088 C3069 1.368 . S
C3088 C3082 1.368 . S
C3088 C3087 1.523 . S
C3089 C3073 1.429 . S
C3089 C3085 1.429 . S
C3089 C3090 1.523 . S
C3090 C3074 1.368 . S
C3090 C3086 1.368 . S
C3090 C3089 1.523 . S
H3091 C3066 0.950 . S
H3092 C3068 0.950 . S
H3093 C3069 0.949 . S
H3094 C3071 0.950 . S
H3095 C3073 0.950 . S
C3096 C3097 1.349 . S
C3096 C3098 1.327 . S
C3096 H3121 0.950 . S
C3097 C3096 1.349 . S
C3097 C3113 1.349 . S
C3098 C3096 1.327 . S
C3098 C3117 1.429 . S
C3098 H3122 0.950 . S
C3099 C3116 1.574 . S
C3099 C3118 1.368 . S
C3099 H3123 0.949 . S
H3100 C3104 0.949 . S
C3101 C3102 1.349 . S
C3101 C3103 1.327 . S
C3101 H3124 0.950 . S
C3102 C3101 1.349 . S
C3102 C3114 1.349 . S
C3103 C3101 1.327 . S
C3103 C3119 1.429 . S
C3103 H3125 0.950 . S
C3104 H3100 0.949 . S
C3104 C3112 1.574 . S
C3104 C3120 1.368 . S
H3105 C3113 0.950 . S
H3106 C3111 0.950 . S
H3107 C3112 0.949 . S
H3108 C3114 0.950 . S
H3109 C3115 0.950 . S
H3110 C3116 0.949 . S
C3111 H3106 0.950 . S
C3111 C3113 1.327 . S
C3111 C3117 1.429 . S
C3112 C3104 1.574 . S
C3112 H3107 0.949 . S
C3112 C3118 1.368 . S
C3113 C3097 1.349 . S
C3113 H3105 0.950 . S
C3113 C3111 1.327 . S
C3114 C3102 1.349 . S
C3114 H3108 0.950 . S
C3114 C3115 1.327 . S
C3115 H3109 0.950 . S
C3115 C3114 1.327 . S
C3115 C3119 1.429 . S
C3116 C3099 1.574 . S
C3116 H3110 0.949 . S
C3116 C3120 1.368 . S
C3117 C3098 1.429 . S
C3117 C3111 1.429 . S
C3117 C3118 1.523 . S
C3118 C3099 1.368 . S
C3118 C3112 1.368 . S
C3118 C3117 1.523 . S
C3119 C3103 1.429 . S
C3119 C3115 1.429 . S
C3119 C3120 1.523 . S
C3120 C3104 1.368 . S
C3120 C3116 1.368 . S
C3120 C3119 1.523 . S
H3121 C3096 0.950 . S
H3122 C3098 0.950 . S
H3123 C3099 0.949 . S
H3124 C3101 0.950 . S
H3125 C3103 0.950 . S
C3126 C3127 1.349 . S
C3126 C3128 1.327 . S
C3126 H3151 0.950 . S
C3127 C3126 1.349 . S
C3127 C3143 1.349 . S
C3128 C3126 1.327 . S
C3128 C3147 1.429 . S
C3128 H3152 0.950 . S
C3129 C3146 1.574 . S
C3129 C3148 1.368 . S
C3129 H3153 0.949 . S
H3130 C3134 0.949 . S
C3131 C3132 1.349 . S
C3131 C3133 1.327 . S
C3131 H3154 0.950 . S
C3132 C3131 1.349 . S
C3132 C3144 1.349 . S
C3133 C3131 1.327 . S
C3133 C3149 1.429 . S
C3133 H3155 0.950 . S
C3134 H3130 0.949 . S
C3134 C3142 1.574 . S
C3134 C3150 1.368 . S
H3135 C3143 0.950 . S
H3136 C3141 0.950 . S
H3137 C3142 0.949 . S
H3138 C3144 0.950 . S
H3139 C3145 0.950 . S
H3140 C3146 0.949 . S
C3141 H3136 0.950 . S
C3141 C3143 1.327 . S
C3141 C3147 1.429 . S
C3142 C3134 1.574 . S
C3142 H3137 0.949 . S
C3142 C3148 1.368 . S
C3143 C3127 1.349 . S
C3143 H3135 0.950 . S
C3143 C3141 1.327 . S
C3144 C3132 1.349 . S
C3144 H3138 0.950 . S
C3144 C3145 1.327 . S
C3145 H3139 0.950 . S
C3145 C3144 1.327 . S
C3145 C3149 1.429 . S
C3146 C3129 1.574 . S
C3146 H3140 0.949 . S
C3146 C3150 1.368 . S
C3147 C3128 1.429 . S
C3147 C3141 1.429 . S
C3147 C3148 1.523 . S
C3148 C3129 1.368 . S
C3148 C3142 1.368 . S
C3148 C3147 1.523 . S
C3149 C3133 1.429 . S
C3149 C3145 1.429 . S
C3149 C3150 1.523 . S
C3150 C3134 1.368 . S
C3150 C3146 1.368 . S
C3150 C3149 1.523 . S
H3151 C3126 0.950 . S
H3152 C3128 0.950 . S
H3153 C3129 0.949 . S
H3154 C3131 0.950 . S
H3155 C3133 0.950 . S
C3156 C3157 1.349 . S
C3156 C3158 1.327 . S
C3156 H3181 0.950 . S
C3157 C3156 1.349 . S
C3157 C3173 1.349 . S
C3158 C3156 1.327 . S
C3158 C3177 1.429 . S
C3158 H3182 0.950 . S
C3159 C3176 1.574 . S
C3159 C3178 1.368 . S
C3159 H3183 0.949 . S
H3160 C3164 0.949 . S
C3161 C3162 1.349 . S
C3161 C3163 1.327 . S
C3161 H3184 0.950 . S
C3162 C3161 1.349 . S
C3162 C3174 1.349 . S
C3163 C3161 1.327 . S
C3163 C3179 1.429 . S
C3163 H3185 0.950 . S
C3164 H3160 0.949 . S
C3164 C3172 1.574 . S
C3164 C3180 1.368 . S
H3165 C3173 0.950 . S
H3166 C3171 0.950 . S
H3167 C3172 0.949 . S
H3168 C3174 0.950 . S
H3169 C3175 0.950 . S
H3170 C3176 0.949 . S
C3171 H3166 0.950 . S
C3171 C3173 1.327 . S
C3171 C3177 1.429 . S
C3172 C3164 1.574 . S
C3172 H3167 0.949 . S
C3172 C3178 1.368 . S
C3173 C3157 1.349 . S
C3173 H3165 0.950 . S
C3173 C3171 1.327 . S
C3174 C3162 1.349 . S
C3174 H3168 0.950 . S
C3174 C3175 1.327 . S
C3175 H3169 0.950 . S
C3175 C3174 1.327 . S
C3175 C3179 1.429 . S
C3176 C3159 1.574 . S
C3176 H3170 0.949 . S
C3176 C3180 1.368 . S
C3177 C3158 1.429 . S
C3177 C3171 1.429 . S
C3177 C3178 1.523 . S
C3178 C3159 1.368 . S
C3178 C3172 1.368 . S
C3178 C3177 1.523 . S
C3179 C3163 1.429 . S
C3179 C3175 1.429 . S
C3179 C3180 1.523 . S
C3180 C3164 1.368 . S
C3180 C3176 1.368 . S
C3180 C3179 1.523 . S
H3181 C3156 0.950 . S
H3182 C3158 0.950 . S
H3183 C3159 0.949 . S
H3184 C3161 0.950 . S
H3185 C3163 0.950 . S
C3186 C3187 1.349 . S
C3186 C3188 1.327 . S
C3186 H3211 0.950 . S
C3187 C3186 1.349 . S
C3187 C3203 1.349 . S
C3188 C3186 1.327 . S
C3188 C3207 1.429 . S
C3188 H3212 0.950 . S
C3189 C3206 1.574 . S
C3189 C3208 1.368 . S
C3189 H3213 0.949 . S
H3190 C3194 0.949 . S
C3191 C3192 1.349 . S
C3191 C3193 1.327 . S
C3191 H3214 0.950 . S
C3192 C3191 1.349 . S
C3192 C3204 1.349 . S
C3193 C3191 1.327 . S
C3193 C3209 1.429 . S
C3193 H3215 0.950 . S
C3194 H3190 0.949 . S
C3194 C3202 1.574 . S
C3194 C3210 1.368 . S
H3195 C3203 0.950 . S
H3196 C3201 0.950 . S
H3197 C3202 0.949 . S
H3198 C3204 0.950 . S
H3199 C3205 0.950 . S
H3200 C3206 0.949 . S
C3201 H3196 0.950 . S
C3201 C3203 1.327 . S
C3201 C3207 1.429 . S
C3202 C3194 1.574 . S
C3202 H3197 0.949 . S
C3202 C3208 1.368 . S
C3203 C3187 1.349 . S
C3203 H3195 0.950 . S
C3203 C3201 1.327 . S
C3204 C3192 1.349 . S
C3204 H3198 0.950 . S
C3204 C3205 1.327 . S
C3205 H3199 0.950 . S
C3205 C3204 1.327 . S
C3205 C3209 1.429 . S
C3206 C3189 1.574 . S
C3206 H3200 0.949 . S
C3206 C3210 1.368 . S
C3207 C3188 1.429 . S
C3207 C3201 1.429 . S
C3207 C3208 1.523 . S
C3208 C3189 1.368 . S
C3208 C3202 1.368 . S
C3208 C3207 1.523 . S
C3209 C3193 1.429 . S
C3209 C3205 1.429 . S
C3209 C3210 1.523 . S
C3210 C3194 1.368 . S
C3210 C3206 1.368 . S
C3210 C3209 1.523 . S
H3211 C3186 0.950 . S
H3212 C3188 0.950 . S
H3213 C3189 0.949 . S
H3214 C3191 0.950 . S
H3215 C3193 0.950 . S
C3216 C3217 1.349 . S
C3216 C3218 1.327 . S
C3216 H3241 0.950 . S
C3217 C3216 1.349 . S
C3217 C3233 1.349 . S
C3218 C3216 1.327 . S
C3218 C3237 1.429 . S
C3218 H3242 0.950 . S
C3219 C3236 1.574 . S
C3219 C3238 1.368 . S
C3219 H3243 0.949 . S
H3220 C3224 0.949 . S
C3221 C3222 1.349 . S
C3221 C3223 1.327 . S
C3221 H3244 0.950 . S
C3222 C3221 1.349 . S
C3222 C3234 1.349 . S
C3223 C3221 1.327 . S
C3223 C3239 1.429 . S
C3223 H3245 0.950 . S
C3224 H3220 0.949 . S
C3224 C3232 1.574 . S
C3224 C3240 1.368 . S
H3225 C3233 0.950 . S
H3226 C3231 0.950 . S
H3227 C3232 0.949 . S
H3228 C3234 0.950 . S
H3229 C3235 0.950 . S
H3230 C3236 0.949 . S
C3231 H3226 0.950 . S
C3231 C3233 1.327 . S
C3231 C3237 1.429 . S
C3232 C3224 1.574 . S
C3232 H3227 0.949 . S
C3232 C3238 1.368 . S
C3233 C3217 1.349 . S
C3233 H3225 0.950 . S
C3233 C3231 1.327 . S
C3234 C3222 1.349 . S
C3234 H3228 0.950 . S
C3234 C3235 1.327 . S
C3235 H3229 0.950 . S
C3235 C3234 1.327 . S
C3235 C3239 1.429 . S
C3236 C3219 1.574 . S
C3236 H3230 0.949 . S
C3236 C3240 1.368 . S
C3237 C3218 1.429 . S
C3237 C3231 1.429 . S
C3237 C3238 1.523 . S
C3238 C3219 1.368 . S
C3238 C3232 1.368 . S
C3238 C3237 1.523 . S
C3239 C3223 1.429 . S
C3239 C3235 1.429 . S
C3239 C3240 1.523 . S
C3240 C3224 1.368 . S
C3240 C3236 1.368 . S
C3240 C3239 1.523 . S
H3241 C3216 0.950 . S
H3242 C3218 0.950 . S
H3243 C3219 0.949 . S
H3244 C3221 0.950 . S
H3245 C3223 0.950 . S
C3246 C3247 1.349 . S
C3246 C3248 1.327 . S
C3246 H3271 0.950 . S
C3247 C3246 1.349 . S
C3247 C3263 1.349 . S
C3248 C3246 1.327 . S
C3248 C3267 1.429 . S
C3248 H3272 0.950 . S
C3249 C3266 1.574 . S
C3249 C3268 1.368 . S
C3249 H3273 0.949 . S
H3250 C3254 0.949 . S
C3251 C3252 1.349 . S
C3251 C3253 1.327 . S
C3251 H3274 0.950 . S
C3252 C3251 1.349 . S
C3252 C3264 1.349 . S
C3253 C3251 1.327 . S
C3253 C3269 1.429 . S
C3253 H3275 0.950 . S
C3254 H3250 0.949 . S
C3254 C3262 1.574 . S
C3254 C3270 1.368 . S
H3255 C3263 0.950 . S
H3256 C3261 0.950 . S
H3257 C3262 0.949 . S
H3258 C3264 0.950 . S
H3259 C3265 0.950 . S
H3260 C3266 0.949 . S
C3261 H3256 0.950 . S
C3261 C3263 1.327 . S
C3261 C3267 1.429 . S
C3262 C3254 1.574 . S
C3262 H3257 0.949 . S
C3262 C3268 1.368 . S
C3263 C3247 1.349 . S
C3263 H3255 0.950 . S
C3263 C3261 1.327 . S
C3264 C3252 1.349 . S
C3264 H3258 0.950 . S
C3264 C3265 1.327 . S
C3265 H3259 0.950 . S
C3265 C3264 1.327 . S
C3265 C3269 1.429 . S
C3266 C3249 1.574 . S
C3266 H3260 0.949 . S
C3266 C3270 1.368 . S
C3267 C3248 1.429 . S
C3267 C3261 1.429 . S
C3267 C3268 1.523 . S
C3268 C3249 1.368 . S
C3268 C3262 1.368 . S
C3268 C3267 1.523 . S
C3269 C3253 1.429 . S
C3269 C3265 1.429 . S
C3269 C3270 1.523 . S
C3270 C3254 1.368 . S
C3270 C3266 1.368 . S
C3270 C3269 1.523 . S
H3271 C3246 0.950 . S
H3272 C3248 0.950 . S
H3273 C3249 0.949 . S
H3274 C3251 0.950 . S
H3275 C3253 0.950 . S
C3276 C3277 1.349 . S
C3276 C3278 1.327 . S
C3276 H3301 0.950 . S
C3277 C3276 1.349 . S
C3277 C3293 1.349 . S
C3278 C3276 1.327 . S
C3278 C3297 1.429 . S
C3278 H3302 0.950 . S
C3279 C3296 1.574 1_456 S
C3279 C3298 1.368 . S
C3279 H3303 0.949 . S
H3280 C3284 0.949 . S
C3281 C3282 1.349 . S
C3281 C3283 1.327 . S
C3281 H3304 0.950 . S
C3282 C3281 1.349 . S
C3282 C3294 1.349 . S
C3283 C3281 1.327 . S
C3283 C3299 1.429 . S
C3283 H3305 0.950 . S
C3284 H3280 0.949 . S
C3284 C3292 1.574 1_654 S
C3284 C3300 1.368 . S
H3285 C3293 0.950 . S
H3286 C3291 0.950 . S
H3287 C3292 0.949 . S
H3288 C3294 0.950 . S
H3289 C3295 0.950 . S
H3290 C3296 0.949 . S
C3291 H3286 0.950 . S
C3291 C3293 1.327 . S
C3291 C3297 1.429 . S
C3292 C3284 1.574 1_456 S
C3292 H3287 0.949 . S
C3292 C3298 1.368 . S
C3293 C3277 1.349 . S
C3293 H3285 0.950 . S
C3293 C3291 1.327 . S
C3294 C3282 1.349 . S
C3294 H3288 0.950 . S
C3294 C3295 1.327 . S
C3295 H3289 0.950 . S
C3295 C3294 1.327 . S
C3295 C3299 1.429 . S
C3296 C3279 1.574 1_654 S
C3296 H3290 0.949 . S
C3296 C3300 1.368 . S
C3297 C3278 1.429 . S
C3297 C3291 1.429 . S
C3297 C3298 1.523 . S
C3298 C3279 1.368 . S
C3298 C3292 1.368 . S
C3298 C3297 1.523 . S
C3299 C3283 1.429 . S
C3299 C3295 1.429 . S
C3299 C3300 1.523 . S
C3300 C3284 1.368 . S
C3300 C3296 1.368 . S
C3300 C3299 1.523 . S
H3301 C3276 0.950 . S
H3302 C3278 0.950 . S
H3303 C3279 0.949 . S
H3304 C3281 0.950 . S
H3305 C3283 0.950 . S
C3306 C3307 1.349 . S
C3306 C3308 1.327 . S
C3306 H3331 0.950 . S
C3307 C3306 1.349 . S
C3307 C3323 1.349 . S
C3308 C3306 1.327 . S
C3308 C3327 1.429 . S
C3308 H3332 0.950 . S
C3309 C3326 1.574 1_554 S
C3309 C3328 1.368 . S
C3309 H3333 0.949 . S
H3310 C3314 0.949 . S
C3311 C3312 1.349 . S
C3311 C3313 1.327 . S
C3311 H3334 0.950 . S
C3312 C3311 1.349 . S
C3312 C3324 1.349 . S
C3313 C3311 1.327 . S
C3313 C3329 1.429 . S
C3313 H3335 0.950 . S
C3314 H3310 0.949 . S
C3314 C3322 1.574 1_556 S
C3314 C3330 1.368 . S
H3315 C3323 0.950 . S
H3316 C3321 0.950 . S
H3317 C3322 0.949 . S
H3318 C3324 0.950 . S
H3319 C3325 0.950 . S
H3320 C3326 0.949 . S
C3321 H3316 0.950 . S
C3321 C3323 1.327 . S
C3321 C3327 1.429 . S
C3322 C3314 1.574 1_554 S
C3322 H3317 0.949 . S
C3322 C3328 1.368 . S
C3323 C3307 1.349 . S
C3323 H3315 0.950 . S
C3323 C3321 1.327 . S
C3324 C3312 1.349 . S
C3324 H3318 0.950 . S
C3324 C3325 1.327 . S
C3325 H3319 0.950 . S
C3325 C3324 1.327 . S
C3325 C3329 1.429 . S
C3326 C3309 1.574 1_556 S
C3326 H3320 0.949 . S
C3326 C3330 1.368 . S
C3327 C3308 1.429 . S
C3327 C3321 1.429 . S
C3327 C3328 1.523 . S
C3328 C3309 1.368 . S
C3328 C3322 1.368 . S
C3328 C3327 1.523 . S
C3329 C3313 1.429 . S
C3329 C3325 1.429 . S
C3329 C3330 1.523 . S
C3330 C3314 1.368 . S
C3330 C3326 1.368 . S
C3330 C3329 1.523 . S
H3331 C3306 0.950 . S
H3332 C3308 0.950 . S
H3333 C3309 0.949 . S
H3334 C3311 0.950 . S
H3335 C3313 0.950 . S
C3336 C3337 1.349 . S
C3336 C3338 1.327 . S
C3336 H3361 0.950 . S
C3337 C3336 1.349 . S
C3337 C3353 1.349 . S
C3338 C3336 1.327 . S
C3338 C3357 1.429 . S
C3338 H3362 0.950 1_545 S
C3339 C3356 1.574 1_554 S
C3339 C3358 1.368 . S
C3339 H3363 0.949 . S
H3340 C3344 0.949 . S
C3341 C3342 1.349 . S
C3341 C3343 1.327 . S
C3341 H3364 0.950 . S
C3342 C3341 1.349 . S
C3342 C3354 1.349 . S
C3343 C3341 1.327 . S
C3343 C3359 1.429 . S
C3343 H3365 0.950 1_565 S
C3344 H3340 0.949 . S
C3344 C3352 1.574 1_556 S
C3344 C3360 1.368 . S
H3345 C3353 0.950 . S
H3346 C3351 0.950 . S
H3347 C3352 0.949 . S
H3348 C3354 0.950 . S
H3349 C3355 0.950 . S
H3350 C3356 0.949 . S
C3351 H3346 0.950 . S
C3351 C3353 1.327 . S
C3351 C3357 1.429 . S
C3352 C3344 1.574 1_554 S
C3352 H3347 0.949 . S
C3352 C3358 1.368 1_565 S
C3353 C3337 1.349 . S
C3353 H3345 0.950 . S
C3353 C3351 1.327 . S
C3354 C3342 1.349 . S
C3354 H3348 0.950 . S
C3354 C3355 1.327 . S
C3355 H3349 0.950 . S
C3355 C3354 1.327 . S
C3355 C3359 1.429 . S
C3356 C3339 1.574 1_556 S
C3356 H3350 0.949 . S
C3356 C3360 1.368 1_545 S
C3357 C3338 1.429 . S
C3357 C3351 1.429 . S
C3357 C3358 1.523 . S
C3358 C3339 1.368 . S
C3358 C3352 1.368 1_545 S
C3358 C3357 1.523 . S
C3359 C3343 1.429 . S
C3359 C3355 1.429 . S
C3359 C3360 1.523 . S
C3360 C3344 1.368 . S
C3360 C3356 1.368 1_565 S
C3360 C3359 1.523 . S
H3361 C3336 0.950 . S
H3362 C3338 0.950 1_565 S
H3363 C3339 0.949 . S
H3364 C3341 0.950 . S
H3365 C3343 0.950 1_545 S
C3366 C3367 1.349 . S
C3366 C3368 1.327 . S
C3366 H3391 0.950 . S
C3367 C3366 1.349 . S
C3367 C3383 1.349 . S
C3368 C3366 1.327 . S
C3368 C3387 1.429 . S
C3368 H3392 0.950 . S
C3369 C3386 1.574 1_556 S
C3369 C3388 1.368 . S
C3369 H3393 0.949 . S
H3370 C3374 0.949 . S
C3371 C3372 1.349 . S
C3371 C3373 1.327 . S
C3371 H3394 0.950 . S
C3372 C3371 1.349 . S
C3372 C3384 1.349 . S
C3373 C3371 1.327 . S
C3373 C3389 1.429 . S
C3373 H3395 0.950 . S
C3374 H3370 0.949 . S
C3374 C3382 1.574 1_554 S
C3374 C3390 1.368 . S
H3375 C3383 0.950 . S
H3376 C3381 0.950 . S
H3377 C3382 0.949 . S
H3378 C3384 0.950 . S
H3379 C3385 0.950 . S
H3380 C3386 0.949 . S
C3381 H3376 0.950 . S
C3381 C3383 1.327 . S
C3381 C3387 1.429 . S
C3382 C3374 1.574 1_556 S
C3382 H3377 0.949 . S
C3382 C3388 1.368 1_545 S
C3383 C3367 1.349 . S
C3383 H3375 0.950 . S
C3383 C3381 1.327 . S
C3384 C3372 1.349 . S
C3384 H3378 0.950 . S
C3384 C3385 1.327 . S
C3385 H3379 0.950 . S
C3385 C3384 1.327 . S
C3385 C3389 1.429 . S
C3386 C3369 1.574 1_554 S
C3386 H3380 0.949 . S
C3386 C3390 1.368 1_565 S
C3387 C3368 1.429 . S
C3387 C3381 1.429 . S
C3387 C3388 1.523 . S
C3388 C3369 1.368 . S
C3388 C3382 1.368 1_565 S
C3388 C3387 1.523 . S
C3389 C3373 1.429 . S
C3389 C3385 1.429 . S
C3389 C3390 1.523 . S
C3390 C3374 1.368 . S
C3390 C3386 1.368 1_545 S
C3390 C3389 1.523 . S
H3391 C3366 0.950 . S
H3392 C3368 0.950 . S
H3393 C3369 0.949 . S
H3394 C3371 0.950 . S
H3395 C3373 0.950 . S
C3396 C3397 1.349 . S
C3396 C3398 1.327 . S
C3396 H3421 0.950 . S
C3397 C3396 1.349 . S
C3397 C3413 1.349 . S
C3398 C3396 1.327 . S
C3398 C3417 1.429 . S
C3398 H3422 0.950 . S
C3399 C3416 1.574 1_556 S
C3399 C3418 1.368 1_655 S
C3399 H3423 0.949 . S
H3400 C3404 0.949 . S
C3401 C3402 1.349 . S
C3401 C3403 1.327 . S
C3401 H3424 0.950 . S
C3402 C3401 1.349 . S
C3402 C3414 1.349 . S
C3403 C3401 1.327 . S
C3403 C3419 1.429 . S
C3403 H3425 0.950 . S
C3404 H3400 0.949 . S
C3404 C3412 1.574 1_554 S
C3404 C3420 1.368 1_455 S
H3405 C3413 0.950 . S
H3406 C3411 0.950 . S
H3407 C3412 0.949 . S
H3408 C3414 0.950 . S
H3409 C3415 0.950 . S
H3410 C3416 0.949 . S
C3411 H3406 0.950 . S
C3411 C3413 1.327 . S
C3411 C3417 1.429 . S
C3412 C3404 1.574 1_556 S
C3412 H3407 0.949 . S
C3412 C3418 1.368 . S
C3413 C3397 1.349 . S
C3413 H3405 0.950 . S
C3413 C3411 1.327 . S
C3414 C3402 1.349 . S
C3414 H3408 0.950 . S
C3414 C3415 1.327 . S
C3415 H3409 0.950 . S
C3415 C3414 1.327 . S
C3415 C3419 1.429 . S
C3416 C3399 1.574 1_554 S
C3416 H3410 0.949 . S
C3416 C3420 1.368 . S
C3417 C3398 1.429 . S
C3417 C3411 1.429 . S
C3417 C3418 1.523 . S
C3418 C3399 1.368 1_455 S
C3418 C3412 1.368 . S
C3418 C3417 1.523 . S
C3419 C3403 1.429 . S
C3419 C3415 1.429 . S
C3419 C3420 1.523 . S
C3420 C3404 1.368 1_655 S
C3420 C3416 1.368 . S
C3420 C3419 1.523 . S
H3421 C3396 0.950 . S
H3422 C3398 0.950 . S
H3423 C3399 0.949 . S
H3424 C3401 0.950 . S
H3425 C3403 0.950 . S
C3426 C3427 1.349 . S
C3426 C3428 1.327 . S
C3426 H3451 0.950 . S
C3427 C3426 1.349 . S
C3427 C3443 1.349 . S
C3428 C3426 1.327 . S
C3428 C3447 1.429 . S
C3428 H3452 0.950 . S
C3429 C3446 1.574 1_554 S
C3429 C3448 1.368 . S
C3429 H3453 0.949 . S
H3430 C3434 0.949 . S
C3431 C3432 1.349 . S
C3431 C3433 1.327 . S
C3431 H3454 0.950 . S
C3432 C3431 1.349 . S
C3432 C3444 1.349 . S
C3433 C3431 1.327 . S
C3433 C3449 1.429 . S
C3433 H3455 0.950 . S
C3434 H3430 0.949 . S
C3434 C3442 1.574 1_556 S
C3434 C3450 1.368 . S
H3435 C3443 0.950 . S
H3436 C3441 0.950 . S
H3437 C3442 0.949 . S
H3438 C3444 0.950 . S
H3439 C3445 0.950 . S
H3440 C3446 0.949 . S
C3441 H3436 0.950 . S
C3441 C3443 1.327 . S
C3441 C3447 1.429 . S
C3442 C3434 1.574 1_554 S
C3442 H3437 0.949 . S
C3442 C3448 1.368 . S
C3443 C3427 1.349 . S
C3443 H3435 0.950 . S
C3443 C3441 1.327 . S
C3444 C3432 1.349 . S
C3444 H3438 0.950 . S
C3444 C3445 1.327 . S
C3445 H3439 0.950 . S
C3445 C3444 1.327 . S
C3445 C3449 1.429 . S
C3446 C3429 1.574 1_556 S
C3446 H3440 0.949 . S
C3446 C3450 1.368 . S
C3447 C3428 1.429 . S
C3447 C3441 1.429 . S
C3447 C3448 1.523 . S
C3448 C3429 1.368 . S
C3448 C3442 1.368 . S
C3448 C3447 1.523 . S
C3449 C3433 1.429 . S
C3449 C3445 1.429 . S
C3449 C3450 1.523 . S
C3450 C3434 1.368 . S
C3450 C3446 1.368 . S
C3450 C3449 1.523 . S
H3451 C3426 0.950 . S
H3452 C3428 0.950 . S
H3453 C3429 0.949 . S
H3454 C3431 0.950 . S
H3455 C3433 0.950 . S
C1297 C4 1.252 . S
C1302 C400 1.252 . S
C1327 C40 1.252 . S
C1332 C328 1.252 . S
C1357 C364 1.252 . S
C1362 C76 1.252 . S
C1387 C112 1.252 . S
C1392 C256 1.252 . S
C1417 C292 1.252 . S
C1422 C148 1.252 . S
C1447 C184 1.252 . S
C1452 C220 1.252 . S
C1477 C832 1.252 . S
C1482 C436 1.252 . S
C1507 C472 1.252 . S
C1512 C760 1.252 . S
C1537 C508 1.252 . S
C1542 C796 1.252 . S
C1567 C688 1.252 . S
C1572 C544 1.252 . S
C1597 C580 1.252 . S
C1602 C724 1.252 . S
C1627 C652 1.252 . S
C1632 C616 1.252 . S
C1657 C868 1.252 . S
C1662 C1264 1.252 . S
C1687 C1192 1.252 . S
C1692 C904 1.252 . S
C1717 C1228 1.252 . S
C1722 C940 1.252 . S
C1747 C1120 1.252 . S
C1752 C976 1.252 . S
C1777 C1156 1.252 . S
C1782 C1012 1.252 . S
C1807 C1084 1.252 . S
C1812 C1048 1.252 . S
C1837 C3 1.208 . S
C1842 C147 1.208 . S
C1867 C183 1.209 . S
C1872 C39 1.209 . S
C1897 C75 1.208 . S
C1902 C111 1.208 . S
C1927 C219 1.208 . S
C1932 C363 1.208 . S
C1957 C255 1.208 . S
C1962 C399 1.208 . S
C1987 C291 1.208 . S
C1992 C327 1.208 . S
C2017 C579 1.208 . S
C2022 C435 1.208 . S
C2047 C615 1.209 . S
C2052 C471 1.209 . S
C2077 C507 1.208 . S
C2082 C543 1.208 . S
C2107 C795 1.208 . S
C2112 C651 1.208 . S
C2137 C831 1.209 . S
C2142 C687 1.209 . S
C2167 C723 1.208 . S
C2172 C759 1.208 . S
C2197 C1011 1.208 . S
C2202 C867 1.208 . S
C2227 C903 1.209 . S
C2232 C1047 1.209 . S
C2257 C939 1.208 . S
C2262 C975 1.208 . S
C2287 C1227 1.208 . S
C2292 C1083 1.208 . S
C2317 C1119 1.209 . S
C2322 C1263 1.209 . S
C2347 C1191 1.208 . S
C2352 C1155 1.208 . S
C2377 C1046 0.995 . S
C2382 C2 0.995 1_556 S
C2407 C38 0.995 1_556 S
C2412 C974 0.995 . S
C2437 C74 0.995 1_556 S
C2442 C1010 0.995 . S
C2467 C110 0.995 1_554 S
C2472 C470 0.995 . S
C2497 C506 0.995 . S
C2502 C146 0.995 1_554 S
C2527 C434 0.995 . S
C2532 C182 0.995 1_554 S
C2557 C218 0.995 1_554 S
C2562 C830 0.995 . S
C2587 C254 0.995 1_554 S
C2592 C758 0.995 . S
C2617 C290 0.995 1_554 S
C2622 C794 0.995 . S
C2647 C1118 0.995 . S
C2652 C326 0.995 1_556 S
C2677 C1154 0.995 . S
C2682 C362 0.995 1_556 S
C2707 C398 0.995 1_556 S
C2712 C1082 0.995 . S
C2737 C902 0.995 . S
C2742 C542 0.995 . S
C2767 C578 0.995 . S
C2772 C938 0.995 . S
C2797 C866 0.995 . S
C2802 C614 0.995 . S
C2827 C1262 0.995 . S
C2832 C650 0.995 . S
C2857 C686 0.995 . S
C2862 C1190 0.995 . S
C2887 C722 0.995 . S
C2892 C1226 0.995 . S
C2917 C14 1.610 . S
C2922 C1058 1.610 . S
C2947 C986 1.610 . S
C2952 C50 1.610 . S
C2977 C86 1.610 . S
C2982 C1022 1.610 . S
C3007 C482 1.610 . S
C3012 C122 1.610 . S
C3037 C158 1.610 . S
C3042 C518 1.610 . S
C3067 C194 1.610 . S
C3072 C446 1.610 . S
C3097 C842 1.610 . S
C3102 C230 1.610 . S
C3127 C266 1.610 . S
C3132 C770 1.610 . S
C3157 C302 1.610 . S
C3162 C806 1.610 . S
C3187 C338 1.610 . S
C3192 C1130 1.610 . S
C3217 C1166 1.610 . S
C3222 C374 1.610 . S
C3247 C410 1.610 . S
C3252 C1094 1.610 . S
C3277 C914 1.610 . S
C3282 C554 1.610 . S
C3307 C590 1.610 . S
C3312 C950 1.610 . S
C3337 C626 1.610 . S
C3342 C878 1.610 . S
C3367 C1274 1.610 . S
C3372 C662 1.610 . S
C3397 C1202 1.610 . S
C3402 C698 1.610 . S
C3427 C734 1.610 . S
C3432 C1238 1.610 . S
