# Generated by pormake.
# Topology smm, (6)-cn, num edge types: 1
# Building blocks:
#     Node 0, Type 0, BuildingBlock: JUFBIX_clean_sbu_0, # of connection points: 6
#     Node 1, Type 0, BuildingBlock: JUFBIX_clean_sbu_0, # of connection points: 6
#     Node 2, Type 0, BuildingBlock: JUFBIX_clean_sbu_0, # of connection points: 6
#     Node 3, Type 0, BuildingBlock: JUFBIX_clean_sbu_0, # of connection points: 6
#     Node 4, Type 0, BuildingBlock: JUFBIX_clean_sbu_0, # of connection points: 6
#     Node 5, Type 0, BuildingBlock: JUFBIX_clean_sbu_0, # of connection points: 6
#     Node 6, Type 0, BuildingBlock: JUFBIX_clean_sbu_0, # of connection points: 6
#     Node 7, Type 0, BuildingBlock: JUFBIX_clean_sbu_0, # of connection points: 6
#     Node 8, Type 0, BuildingBlock: JUFBIX_clean_sbu_0, # of connection points: 6
#     Edge 9, Type (0, 0), BuildingBlock: AJUNOK_clean_linker_0, # of connection points: 2
#     Edge 10, Type (0, 0), BuildingBlock: AJUNOK_clean_linker_0, # of connection points: 2
#     Edge 11, Type (0, 0), BuildingBlock: AJUNOK_clean_linker_0, # of connection points: 2
#     Edge 12, Type (0, 0), BuildingBlock: AJUNOK_clean_linker_0, # of connection points: 2
#     Edge 13, Type (0, 0), BuildingBlock: AJUNOK_clean_linker_0, # of connection points: 2
#     Edge 14, Type (0, 0), BuildingBlock: AJUNOK_clean_linker_0, # of connection points: 2
#     Edge 15, Type (0, 0), BuildingBlock: AJUNOK_clean_linker_0, # of connection points: 2
#     Edge 16, Type (0, 0), BuildingBlock: AJUNOK_clean_linker_0, # of connection points: 2
#     Edge 17, Type (0, 0), BuildingBlock: AJUNOK_clean_linker_0, # of connection points: 2
#     Edge 18, Type (0, 0), BuildingBlock: AJUNOK_clean_linker_0, # of connection points: 2
#     Edge 19, Type (0, 0), BuildingBlock: AJUNOK_clean_linker_0, # of connection points: 2
#     Edge 20, Type (0, 0), BuildingBlock: AJUNOK_clean_linker_0, # of connection points: 2
#     Edge 21, Type (0, 0), BuildingBlock: AJUNOK_clean_linker_0, # of connection points: 2
#     Edge 22, Type (0, 0), BuildingBlock: AJUNOK_clean_linker_0, # of connection points: 2
#     Edge 23, Type (0, 0), BuildingBlock: AJUNOK_clean_linker_0, # of connection points: 2
#     Edge 24, Type (0, 0), BuildingBlock: AJUNOK_clean_linker_0, # of connection points: 2
#     Edge 25, Type (0, 0), BuildingBlock: AJUNOK_clean_linker_0, # of connection points: 2
#     Edge 26, Type (0, 0), BuildingBlock: AJUNOK_clean_linker_0, # of connection points: 2
#     Edge 27, Type (0, 0), BuildingBlock: AJUNOK_clean_linker_0, # of connection points: 2
#     Edge 28, Type (0, 0), BuildingBlock: AJUNOK_clean_linker_0, # of connection points: 2
#     Edge 29, Type (0, 0), BuildingBlock: AJUNOK_clean_linker_0, # of connection points: 2
#     Edge 30, Type (0, 0), BuildingBlock: AJUNOK_clean_linker_0, # of connection points: 2
#     Edge 31, Type (0, 0), BuildingBlock: AJUNOK_clean_linker_0, # of connection points: 2
#     Edge 32, Type (0, 0), BuildingBlock: AJUNOK_clean_linker_0, # of connection points: 2
#     Edge 33, Type (0, 0), BuildingBlock: AJUNOK_clean_linker_0, # of connection points: 2
#     Edge 34, Type (0, 0), BuildingBlock: AJUNOK_clean_linker_0, # of connection points: 2
#     Edge 35, Type (0, 0), BuildingBlock: AJUNOK_clean_linker_0, # of connection points: 2
# Relax obj value: 0.248
# Max RMSD: 0.200
# Mean RMSD: 0.200
data_MOF--net-smm--node1-JUFBIX_clean_sbu_0--edge1-AJUNOK_clean_linker_0
_symmetry_space_group_name_H-M    P1
_symmetry_Int_Tables_number       1
_symmetry_cell_setting            triclinic
loop_
_symmetry_equiv_pos_as_xyz
'x, y, z'
_cell_length_a     44.391174
_cell_length_b     44.540294
_cell_length_c     10.873477
_cell_angle_alpha  90.032675
_cell_angle_beta   90.158159
_cell_angle_gamma 119.76824
loop_
_atom_site_label
_atom_site_type_symbol
_atom_site_fract_x
_atom_site_fract_y
_atom_site_fract_z
_atom_type_partial_charge
Co0 Co 1.00789 0.16942 0.00224 0.0
C1 C 0.03414 0.19578 0.23514 0.0
Co2 Co 0.0533 0.22236 0.00271 0.0
C3 C 0.96775 0.09387 0.98103 0.0
C4 C 0.93928 0.11514 0.06723 0.0
N5 N 0.96988 0.12434 0.01212 0.0
N6 N 0.9373 0.0663 0.01553 0.0
C7 C 0.91923 0.07969 0.06864 0.0
H8 H 0.98832 0.09185 0.93595 0.0
H9 H 0.93239 0.13291 0.10915 0.0
C10 C 0.0265 0.19503 0.76976 0.0
N11 N 0.09045 0.26705 -0.00696 0.0
C12 C 0.09295 0.29161 0.91431 0.0
C13 C 0.1204 0.28218 0.0573 0.0
N14 N 0.12313 0.32162 0.92686 0.0
C15 C 0.14059 0.31573 0.01661 0.0
C16 C 0.07209 0.17195 -0.01547 0.0
O17 O 1.00411 0.16897 0.82949 0.0
O18 O 0.0496 0.221 0.82838 0.0
O19 O 0.08388 0.20437 -0.00844 0.0
O20 O 0.03938 0.15169 -0.01193 0.0
O21 O 0.05625 0.22274 0.17807 0.0
H22 H 0.12714 0.26962 0.12868 0.0
H23 H 0.07313 0.28716 0.84715 0.0
O24 O 1.01186 0.17 0.17388 0.0
O25 O 0.97756 0.18871 0.01807 0.0
O26 O 0.02297 0.24052 0.01569 0.0
C27 C 0.9904 0.22135 0.02603 0.0
H28 H 0.894 0.06484 0.11103 0.0
H29 H 0.16595 0.33447 0.05148 0.0
Co30 Co 0.89457 0.85963 0.05277 0.0
C31 C 0.86706 0.85969 0.28526 0.0
Co32 Co 0.84044 0.84966 0.05221 0.0
C33 C 0.9681 0.88906 -0.00344 0.0
C34 C 0.95167 0.85529 0.15203 0.0
N35 N 0.93984 0.86801 0.06378 0.0
N36 N 0.99746 0.89057 0.04101 0.0
C37 C 0.98678 0.86911 0.13885 0.0
H38 H 0.96667 0.90289 0.91741 0.0
H39 H 0.93592 0.8379 0.22418 0.0
C40 C 0.86716 0.84915 0.8198 0.0
N41 N 0.79449 0.84039 0.04018 0.0
C42 C 0.76757 0.81469 0.97728 0.0
C43 C 0.78195 0.86035 0.08336 0.0
N44 N 0.73868 0.81776 0.97983 0.0
C45 C 0.748 0.84677 0.04593 0.0
C46 C 0.88997 0.9194 0.02804 0.0
O47 O 0.89483 0.85594 0.87768 0.0
O48 O 0.84074 0.84432 0.8804 0.0
O49 O 0.85744 0.89816 0.02964 0.0
O50 O 0.91088 0.90779 0.03773 0.0
O51 O 0.84047 0.85496 0.22485 0.0
H52 H 0.79692 0.88397 0.13528 0.0
H53 H 0.76935 0.79436 0.92904 0.0
O54 O 0.89346 0.86327 0.22719 0.0
O55 O 0.8782 0.81152 0.07043 0.0
O56 O 0.82472 0.80197 0.07865 0.0
C57 C 0.84615 0.79094 0.08808 0.0
H58 H 1.00328 0.86471 0.20086 0.0
H59 H 0.73202 0.85843 0.06222 0.0
Co60 Co 0.20215 0.04908 -0.01562 0.0
C61 C 0.20465 0.02359 0.21706 0.0
Co62 Co 0.2143 1.00646 -0.01579 0.0
C63 C 0.16805 0.09102 0.94894 0.0
C64 C 0.20955 0.11178 0.07998 0.0
N65 N 0.19312 0.08578 -0.00151 0.0
N66 N 0.16806 0.11914 -0.00211 0.0
C67 C 0.19437 0.13204 0.08001 0.0
H68 H 0.15001 0.07412 0.88003 0.0
H69 H 0.23025 0.11491 0.14056 0.0
C70 C 0.21154 0.03243 0.75184 0.0
N71 N 0.22364 0.97024 0.97255 0.0
C72 C 0.24557 0.96776 0.89256 0.0
C73 C 0.20934 0.94036 0.03609 0.0
N74 N 0.24567 0.9376 0.90352 0.0
C75 C 0.22277 0.92024 -0.00626 0.0
C76 C 0.14358 0.98471 0.96649 0.0
O77 O 0.20617 0.05387 0.8118 0.0
O78 O 0.21589 1.01014 0.81013 0.0
O79 O 0.16574 0.97458 0.975 0.0
O80 O 0.15398 0.01697 0.96669 0.0
O81 O 0.21253 1.0035 0.1598 0.0
H82 H 0.19014 0.93352 0.10762 0.0
H83 H 0.26045 0.98745 0.82517 0.0
O84 O 0.1981 0.04388 0.15585 0.0
O85 O 0.2507 0.08053 0.00499 0.0
O86 O 0.26264 0.03835 -0.00393 0.0
C87 C 0.27274 0.07022 0.01084 0.0
H88 H 0.20125 0.15369 0.14113 0.0
H89 H 0.21636 0.89488 0.02736 0.0
Co90 Co 0.66372 0.49618 0.29508 0.0
C91 C 0.6902 0.52672 0.52857 0.0
Co92 Co 0.70636 0.55045 0.29722 0.0
C93 C 0.62961 0.42125 0.2688 0.0
C94 C 0.60256 0.43833 0.38706 0.0
N95 N 0.63093 0.45004 0.31517 0.0
N96 N 0.60124 0.39231 0.30789 0.0
C97 C 0.58428 0.40294 0.38257 0.0
H98 H 0.64897 0.42147 0.20793 0.0
H99 H 0.59591 0.45445 0.44178 0.0
C100 C 0.67926 0.51885 0.0635 0.0
N101 N 0.73603 0.59793 0.26571 0.0
C102 C 0.7683 0.62426 0.29393 0.0
C103 C 0.72367 0.61229 0.18416 0.0
N104 N 0.77552 0.65346 0.23127 0.0
C105 C 0.7475 0.64573 0.16311 0.0
C106 C 0.73246 0.50679 0.28466 0.0
O107 O 0.65807 0.49194 0.12187 0.0
O108 O 0.70063 0.54512 0.12397 0.0
O109 O 0.74247 0.5391 0.28594 0.0
O110 O 0.70004 0.48493 0.28563 0.0
O111 O 0.71164 0.55449 0.4727 0.0
H112 H 0.69851 0.59913 0.1399 0.0
H113 H 0.78592 0.62212 0.35757 0.0
O114 O 0.66942 0.50043 0.46594 0.0
O115 O 0.62775 0.50805 0.30858 0.0
O116 O 0.67012 0.56105 0.31389 0.0
C117 C 0.63801 0.53995 0.32227 0.0
H118 H 0.56083 0.38621 0.43297 0.0
H119 H 0.7445 0.66344 0.10282 0.0
Co120 Co 0.56096 0.18786 0.30768 0.0
C121 C 0.53467 0.18765 0.53952 0.0
Co122 Co 0.50705 0.17817 0.30566 0.0
C123 C 0.63537 0.22155 0.26661 0.0
C124 C 0.61735 0.17935 0.39296 0.0
N125 N 0.60616 0.19558 0.31653 0.0
N126 N 0.66447 0.22273 0.31132 0.0
C127 C 0.65296 0.19586 0.38987 0.0
H128 H 0.63508 0.23969 0.2013 0.0
H129 H 0.6008 0.15816 0.4529 0.0
C130 C 0.534 0.17886 0.07405 0.0
N131 N 0.46218 0.17119 0.29872 0.0
C132 C 0.43459 0.14725 0.23401 0.0
C133 C 0.45111 0.19143 0.35075 0.0
N134 N 0.4067 0.15175 0.24368 0.0
C135 C 0.41727 0.17979 0.31643 0.0
C136 C 0.557 0.24756 0.28464 0.0
O137 O 0.56069 0.184 0.13474 0.0
O138 O 0.50728 0.17462 0.13167 0.0
O139 O 0.52478 0.2261 0.29017 0.0
O140 O 0.57835 0.23647 0.29206 0.0
O141 O 0.5074 0.18184 0.48102 0.0
H142 H 0.467 0.21391 0.40701 0.0
H143 H 0.43514 0.12713 0.17983 0.0
O144 O 0.56091 0.19181 0.47958 0.0
O145 O 0.54271 0.13896 0.32572 0.0
O146 O 0.4897 0.13046 0.32251 0.0
C147 C 0.51015 0.11845 0.33496 0.0
H148 H 0.66919 0.18975 0.44707 0.0
H149 H 0.40221 0.19202 0.33971 0.0
Co150 Co 0.869 0.39168 0.32014 0.0
C151 C 0.87071 0.36679 0.55209 0.0
Co152 Co 0.88118 0.34892 0.31889 0.0
C153 C 0.83148 0.43023 0.29096 0.0
C154 C 0.88119 0.46051 0.3754 0.0
N155 N 0.86013 0.42893 0.32634 0.0
N156 N 0.83398 0.46116 0.3163 0.0
C157 C 0.86536 0.48031 0.36854 0.0
H158 H 0.80907 0.40892 0.24804 0.0
H159 H 0.9062 0.46862 0.41702 0.0
C160 C 0.87961 0.37473 0.08699 0.0
N161 N 0.89001 0.31218 0.31187 0.0
C162 C 0.91142 0.30831 0.23328 0.0
C163 C 0.87511 0.28282 0.37842 0.0
N164 N 0.91058 0.27775 0.24812 0.0
C165 C 0.88764 0.26163 0.33943 0.0
C166 C 0.81027 0.32705 0.29694 0.0
O167 O 0.87363 0.39566 0.14742 0.0
O168 O 0.88418 0.35251 0.14486 0.0
O169 O 0.83269 0.31725 0.30453 0.0
O170 O 0.82053 0.35929 0.30099 0.0
O171 O 0.87797 0.34626 0.49445 0.0
H172 H 0.85602 0.277 0.44961 0.0
H173 H 0.92654 0.32723 0.16401 0.0
O174 O 0.86451 0.38747 0.4914 0.0
O175 O 0.91776 0.42282 0.34277 0.0
O176 O 0.92959 0.38055 0.33576 0.0
C177 C 0.93969 0.41241 0.35193 0.0
H178 H 0.87556 0.50634 0.40364 0.0
H179 H 0.88057 0.2364 0.37606 0.0
Co180 Co 0.34602 0.83458 0.64405 0.0
C181 C 0.37069 0.85959 0.87646 0.0
Co182 Co 0.39072 0.88752 0.64364 0.0
C183 C 0.30455 0.75993 0.67912 0.0
C184 C 0.27716 0.78176 0.58757 0.0
N185 N 0.30782 0.79033 0.64134 0.0
N186 N 0.27295 0.73291 0.65165 0.0
C187 C 0.25576 0.74662 0.59366 0.0
H188 H 0.32511 0.75756 0.7237 0.0
H189 H 0.27117 0.79979 0.54227 0.0
C190 C 0.36559 0.8616 0.41092 0.0
N191 N 0.42819 0.93199 0.63916 0.0
C192 C 0.43093 0.95693 0.5621 0.0
C193 C 0.45822 0.94657 0.70303 0.0
N194 N 0.4613 0.98665 0.57517 0.0
C195 C 0.47872 0.98023 0.66353 0.0
C196 C 0.40954 0.83678 0.62872 0.0
O197 O 0.34351 0.83574 0.47139 0.0
O198 O 0.38859 0.88766 0.46896 0.0
O199 O 0.4209 0.86914 0.63407 0.0
O200 O 0.37688 0.81625 0.63005 0.0
O201 O 0.39238 0.88665 0.81877 0.0
H202 H 0.46488 0.9335 0.77271 0.0
H203 H 0.41122 0.9529 0.49508 0.0
O204 O 0.3486 0.83341 0.81595 0.0
O205 O 0.31586 0.85376 0.66169 0.0
O206 O 0.36052 0.90598 0.6559 0.0
C207 C 0.32809 0.88629 0.66852 0.0
H208 H 0.23013 0.73213 0.55333 0.0
H209 H 0.5043 0.9986 0.69775 0.0
Co210 Co 0.22445 0.52513 0.68522 0.0
C211 C 0.19676 0.52273 0.91711 0.0
Co212 Co 0.17056 0.51611 0.68383 0.0
C213 C 0.30001 0.55796 0.65371 0.0
C214 C 0.27826 0.51081 0.75607 0.0
N215 N 0.26942 0.53156 0.69416 0.0
N216 N 0.32734 0.55414 0.68708 0.0
C217 C 0.3136 0.52451 0.75181 0.0
H218 H 0.30232 0.57993 0.60312 0.0
H219 H 0.26034 0.48784 0.80597 0.0
C220 C 0.19769 0.51817 0.45185 0.0
N221 N 0.12561 0.50944 0.67454 0.0
C222 C 0.09866 0.48632 0.60491 0.0
C223 C 0.11405 0.52916 0.72709 0.0
N224 N 0.07074 0.49094 0.61108 0.0
C225 C 0.08073 0.51825 0.68741 0.0
C226 C 0.22182 0.58581 0.67653 0.0
O227 O 0.22481 0.52326 0.50992 0.0
O228 O 0.17151 0.51414 0.51201 0.0
O229 O 0.18934 0.56474 0.67585 0.0
O230 O 0.24265 0.57396 0.67849 0.0
O231 O 0.17021 0.51814 0.8568 0.0
H232 H 0.12925 0.55082 0.78748 0.0
H233 H 0.09981 0.46676 0.54927 0.0
O234 O 0.22341 0.52689 0.85927 0.0
O235 O 0.20513 0.47588 0.69454 0.0
O236 O 0.15237 0.46794 0.69443 0.0
C237 C 0.17255 0.45548 0.70236 0.0
H238 H 0.3282 0.51434 0.79839 0.0
H239 H 0.06588 0.53074 0.70953 0.0
Co240 Co 0.53546 0.71346 0.70465 0.0
C241 C 0.53614 0.68754 0.9369 0.0
Co242 Co 0.54575 0.66973 0.70402 0.0
C243 C 0.50303 0.75531 0.6591 0.0
C244 C 0.54635 0.7797 0.78229 0.0
N245 N 0.52812 0.75103 0.71313 0.0
N246 N 0.50517 0.78561 0.69124 0.0
C247 C 0.53234 0.80094 0.76904 0.0
H248 H 0.48332 0.73646 0.59846 0.0
H249 H 0.56787 0.78447 0.84155 0.0
C250 C 0.54508 0.69658 0.4717 0.0
N251 N 0.55247 0.63171 0.69222 0.0
C252 C 0.56992 0.62592 0.60221 0.0
C253 C 0.53766 0.6023 0.75856 0.0
N254 N 0.56614 0.59393 0.60777 0.0
C255 C 0.54619 0.57913 0.70742 0.0
C256 C 0.47528 0.65037 0.68144 0.0
O257 O 0.53998 0.71807 0.53192 0.0
O258 O 0.54877 0.67396 0.53002 0.0
O259 O 0.49678 0.63941 0.68898 0.0
O260 O 0.48674 0.68277 0.68595 0.0
O261 O 0.5425 0.66633 0.87953 0.0
H262 H 0.52096 0.59764 0.83695 0.0
H263 H 0.58422 0.64447 0.53099 0.0
O264 O 0.53098 0.70883 0.87584 0.0
O265 O 0.58441 0.74352 0.72711 0.0
O266 O 0.59484 0.70027 0.72177 0.0
C267 C 0.60575 0.73238 0.73718 0.0
H268 H 0.54063 0.82513 0.81687 0.0
H269 H 0.53843 0.55354 0.74201 0.0
C270 C 0.16982 0.3751 0.83321 0.0
C271 C 0.13442 0.35339 0.85948 0.0
C272 C 0.18171 0.40714 0.77506 0.0
C273 C 0.15868 0.41892 0.74125 0.0
H274 H 0.18859 0.36745 0.85935 0.0
H275 H 0.20936 0.42331 0.76086 0.0
S276 S 0.06302 0.37108 0.78429 0.0
N277 N 0.07627 0.34554 0.84379 0.0
N278 N 0.09832 0.40518 0.73255 0.0
C279 C 0.12297 0.39675 0.76233 0.0
C280 C 0.11092 0.36419 0.82195 0.0
C281 C 0.70305 0.77805 0.80987 0.0
C282 C 0.70539 0.79587 0.9203 0.0
C283 C 0.67095 0.75762 0.7494 0.0
C284 C 0.6401 0.75481 0.79593 0.0
H285 H 0.72622 0.78015 0.76911 0.0
H286 H 0.67031 0.7443 0.66524 0.0
S287 S 0.63072 0.79135 0.0906 0.0
N288 N 0.67271 0.80536 0.08013 0.0
N289 N 0.61329 0.76849 0.96466 0.0
C290 C 0.64191 0.77162 0.90746 0.0
C291 C 0.67426 0.79177 0.96998 0.0
C292 C 0.25159 0.8906 0.80566 0.0
C293 C 0.26563 0.92593 0.83361 0.0
C294 C 0.27127 0.87827 0.74543 0.0
C295 C 0.30594 0.90074 0.71097 0.0
H296 H 0.22525 0.87221 0.83209 0.0
H297 H 0.2595 0.85068 0.72988 0.0
S298 S 0.35465 0.996 0.7591 0.0
N299 N 0.31614 0.98341 0.81952 0.0
N300 N 0.35292 0.96058 0.70469 0.0
C301 C 0.31987 0.93641 0.73414 0.0
C302 C 0.29981 0.94891 0.79581 0.0
C303 C 0.37005 0.11578 0.06976 0.0
C304 C 0.37316 0.13177 0.18487 0.0
C305 C 0.3376 0.09636 0.01147 0.0
C306 C 0.30731 0.09301 0.0649 0.0
H307 H 0.39285 0.11836 0.0241 0.0
H308 H 0.33618 0.08396 0.9242 0.0
S309 S 0.30019 0.12554 0.37115 0.0
N310 N 0.34205 0.13951 0.35487 0.0
N311 N 0.28175 0.10451 0.24297 0.0
C312 C 0.3099 0.10838 0.18013 0.0
C313 C 0.34264 0.12744 0.24061 0.0
C314 C 0.91507 0.22893 0.15835 0.0
C315 C 0.92983 0.26465 0.18126 0.0
C316 C 0.93411 0.21529 0.10159 0.0
C317 C 0.96884 0.23679 0.06567 0.0
H318 H 0.88864 0.21127 0.18607 0.0
H319 H 0.92181 0.18753 0.08988 0.0
S320 S 1.01939 0.33247 0.10147 0.0
N321 N 0.98114 0.32133 0.16125 0.0
N322 N 1.01669 0.29613 0.05274 0.0
C323 C 0.9835 0.27278 0.08395 0.0
C324 C 0.9641 0.28659 0.14211 0.0
C325 C 0.81349 0.74655 0.24635 0.0
C326 C 0.83466 0.75654 0.14137 0.0
C327 C 0.79906 0.71295 0.29308 0.0
C328 C 0.80438 0.68787 0.23427 0.0
H329 H 0.80677 0.76439 0.28942 0.0
H330 H 0.78002 0.70521 0.36583 0.0
S331 S 0.86201 0.7026 0.96851 0.0
N332 N 0.86467 0.74054 -0.00845 0.0
N333 N 0.83559 0.67651 0.07543 0.0
C334 C 0.82832 0.69863 0.13727 0.0
C335 C 0.84374 0.73315 0.09106 0.0
C336 C 0.03581 0.45473 0.43363 0.0
C337 C 0.03795 0.47194 0.54535 0.0
C338 C 1.00425 0.4362 0.36879 0.0
C339 C 0.97376 0.43487 0.41147 0.0
H340 H 0.05864 0.45544 0.39577 0.0
H341 H 1.00368 0.42277 0.28494 0.0
S342 S 0.96351 0.47103 0.70551 0.0
N343 N 1.00506 0.48271 0.70117 0.0
N344 N 0.94676 0.4497 0.57634 0.0
C345 C 0.9753 0.45152 0.52305 0.0
C346 C 1.00708 0.4696 0.59061 0.0
C347 C 0.61319 0.60163 0.46802 0.0
C348 C 0.58126 0.57963 0.52474 0.0
C349 C 0.62977 0.58855 0.39401 0.0
C350 C 0.61537 0.55272 0.3738 0.0
H351 H 0.62638 0.62922 0.48502 0.0
H352 H 0.65504 0.60675 0.35751 0.0
S353 S 0.52944 0.4843 0.48443 0.0
N354 N 0.53356 0.52046 0.54216 0.0
N355 N 0.56524 0.49572 0.40553 0.0
C356 C 0.58235 0.53051 0.42316 0.0
C357 C 0.56527 0.54394 0.49848 0.0
C358 C 0.51958 0.07087 0.41496 0.0
C359 C 0.49649 0.08253 0.38055 0.0
C360 C 0.50789 0.03944 0.47737 0.0
C361 C 0.47268 0.01836 0.50765 0.0
H362 H 0.54711 0.08662 0.39716 0.0
H363 H 0.52661 0.03166 0.50288 0.0
S364 S 0.40138 0.03659 0.43766 0.0
N365 N 0.43631 0.06963 0.37873 0.0
N366 N 0.41481 1.01139 0.49876 0.0
C367 C 0.44919 0.02928 0.4715 0.0
C368 C 0.46096 0.06109 0.40719 0.0
C369 C 0.15492 0.167 0.00822 0.0
C370 C 0.1442 0.13221 0.97914 0.0
C371 C 0.13167 0.17967 0.00732 0.0
C372 C 0.09654 0.15828 0.97625 0.0
H373 H 0.18155 0.18471 0.0339 0.0
H374 H 0.14129 0.20635 0.03401 0.0
S375 S 0.05592 0.06729 0.87168 0.0
N376 N 0.09618 0.07759 0.90592 0.0
N377 N 0.05302 0.10207 0.9002 0.0
C378 C 0.08579 0.12418 0.93941 0.0
C379 C 0.10945 0.11103 0.94126 0.0
C380 C 0.88062 0.96973 -0.01222 0.0
C381 C 0.90333 0.95732 0.01826 0.0
C382 C 0.89217 1.00533 -0.01616 0.0
C383 C 0.9269 0.03003 0.00979 0.0
H384 H 0.85355 0.95183 0.96787 0.0
H385 H 0.8737 0.01368 0.96125 0.0
S386 S 0.99654 1.0114 0.1011 0.0
N387 N 0.9623 0.97293 0.07749 0.0
N388 N 0.98363 0.03963 0.07156 0.0
C389 C 0.94999 0.01811 0.03961 0.0
C390 C 0.93829 0.98184 0.04353 0.0
C391 C 0.0588 0.90421 0.0429 0.0
C392 C 0.03336 0.91241 0.00406 0.0
C393 C 0.09427 0.92708 0.02565 0.0
C394 C 0.10599 0.95916 0.96795 0.0
H395 H 0.05148 0.88016 0.08977 0.0
H396 H 0.11265 0.92005 0.06223 0.0
S397 S 0.05089 0.98993 0.8216 0.0
N398 N 0.02305 0.95322 0.88755 0.0
N399 N 0.08976 0.99563 0.85304 0.0
C400 C 0.08112 0.96664 0.91939 0.0
C401 C 0.04483 0.94338 0.93739 0.0
C402 C 0.79264 0.51588 0.25227 0.0
C403 C 0.75794 0.49423 0.28811 0.0
C404 C 0.81714 0.50462 0.25913 0.0
C405 C 0.8079 0.47129 0.30171 0.0
H406 H 0.801 0.54176 0.21903 0.0
H407 H 0.84361 0.52215 0.23138 0.0
S408 S 0.72169 0.40602 0.41974 0.0
N409 N 0.71635 0.4385 0.37537 0.0
N410 N 0.76245 0.41778 0.38846 0.0
C411 C 0.77349 0.44953 0.3388 0.0
C412 C 0.74854 0.46089 0.33199 0.0
C413 C 0.61518 0.34521 0.30015 0.0
C414 C 0.59138 0.35697 0.28325 0.0
C415 C 0.60421 0.30972 0.29614 0.0
C416 C 0.56911 0.28502 0.2746 0.0
H417 H 0.64198 0.3634 0.3226 0.0
H418 H 0.62307 0.30159 0.31466 0.0
S419 S 0.49815 0.30391 0.20502 0.0
N420 N 0.53252 0.34216 0.23078 0.0
N421 N 0.51162 0.27564 0.2217 0.0
C422 C 0.54566 0.29694 0.24964 0.0
C423 C 0.55687 0.33289 0.25441 0.0
C424 C 0.72675 0.2403 0.30868 0.0
C425 C 0.70046 0.24895 0.29381 0.0
C426 C 0.76197 0.26557 0.30638 0.0
C427 C 0.77266 0.30079 0.28901 0.0
H428 H 0.72007 0.2137 0.32404 0.0
H429 H 0.78093 0.25735 0.32121 0.0
S430 S 0.71446 0.33708 0.2335 0.0
N431 N 0.68783 0.29538 0.25431 0.0
N432 N 0.75396 0.34267 0.2467 0.0
C433 C 0.74674 0.30973 0.26858 0.0
C434 C 0.71073 0.28392 0.27145 0.0
C435 C 0.4455 0.77534 0.66305 0.0
C436 C 0.48158 0.79786 0.66026 0.0
C437 C 0.42223 0.78787 0.64832 0.0
C438 C 0.43426 0.82337 0.62962 0.0
H439 H 0.43525 0.74813 0.68212 0.0
H440 H 0.39469 0.76975 0.65585 0.0
S441 S 0.52655 0.89197 0.59712 0.0
N442 N 0.52823 0.85641 0.62494 0.0
N443 N 0.48494 0.88018 0.59678 0.0
C444 C 0.47037 0.84575 0.61984 0.0
C445 C 0.4939 0.83296 0.63538 0.0
C446 C 0.27017 0.64708 0.6503 0.0
C447 C 0.23505 0.62369 0.67665 0.0
C448 C 0.28279 0.68291 0.64619 0.0
C449 C 0.26077 0.6966 0.66836 0.0
H450 H 0.2879 0.63765 0.63014 0.0
H451 H 0.30966 0.69993 0.62163 0.0
S452 S 0.16805 0.64722 0.75687 0.0
N453 N 0.17931 0.61744 0.73541 0.0
N454 N 0.20326 0.68454 0.72879 0.0
C455 C 0.22609 0.67371 0.69966 0.0
C456 C 0.21318 0.63735 0.70351 0.0
C457 C 0.41316 0.63724 0.68656 0.0
C458 C 0.43728 0.62562 0.67166 0.0
C459 C 0.37718 0.61398 0.68643 0.0
C460 C 0.36393 0.57821 0.67158 0.0
H461 H 0.42209 0.66442 0.70186 0.0
H462 H 0.35969 0.62391 0.7029 0.0
S463 S 0.4154 0.53481 0.61251 0.0
N464 N 0.44477 0.57599 0.6302 0.0
N465 N 0.37744 0.53268 0.62921 0.0
C466 C 0.3876 0.56645 0.65074 0.0
C467 C 0.42415 0.59002 0.65092 0.0
C468 C 0.05121 0.22451 0.56926 0.0
C469 C 0.02731 0.19464 0.63352 0.0
C470 C 0.05372 0.22455 0.44081 0.0
C471 C 0.03248 0.19471 0.37138 0.0
H472 H 0.06823 0.24818 0.6184 0.0
H473 H 0.07227 0.24827 0.39576 0.0
S474 S 0.96614 0.10935 0.49526 0.0
N475 N 0.98231 0.13422 0.61777 0.0
N476 N 0.987 0.13413 0.37709 0.0
C477 C 1.00857 0.16454 0.43459 0.0
C478 C 1.00597 0.16456 0.5653 0.0
C479 C 0.89705 0.86255 0.61524 0.0
C480 C 0.86622 0.85005 0.68326 0.0
C481 C 0.89715 0.86623 0.48709 0.0
C482 C 0.86646 0.85769 0.4216 0.0
H483 H 0.92145 0.87004 0.6613 0.0
H484 H 0.92158 0.87588 0.4391 0.0
S485 S 0.77841 0.82234 0.55527 0.0
N486 N 0.80382 0.82801 0.67437 0.0
N487 N 0.80417 0.83512 0.43443 0.0
C488 C 0.83539 0.84487 0.48827 0.0
C489 C 0.83522 0.84095 0.61864 0.0
C490 C 0.21912 1.0093 0.55146 0.0
C491 C 0.21054 0.03155 0.61553 0.0
C492 C 0.21664 1.00642 0.42301 0.0
C493 C 0.20538 0.02559 0.35335 0.0
H494 H 0.2278 0.99383 0.60079 0.0
H495 H 0.22383 0.98918 0.37816 0.0
S496 S 0.17936 0.08736 0.47662 0.0
N497 N 0.19015 0.073 0.59932 0.0
N498 N 0.18528 0.06758 0.3587 0.0
C499 C 0.19665 0.04795 0.41637 0.0
C500 C 0.19933 0.05097 0.54707 0.0
C501 C 0.71012 0.55203 0.73965 0.0
C502 C 0.68728 0.52426 0.66487 0.0
C503 C 0.70702 0.55003 0.86813 0.0
C504 C 0.6809 0.52019 0.92723 0.0
H505 H 0.73057 0.5755 0.69894 0.0
H506 H 0.72548 0.57216 0.92143 0.0
S507 S 0.61371 0.44046 0.77386 0.0
N508 N 0.637 0.46588 0.66041 0.0
N509 N 0.63144 0.46258 0.90084 0.0
C510 C 0.65773 0.49234 0.85376 0.0
C511 C 0.66086 0.49426 0.72306 0.0
C512 C 0.50455 0.17536 0.74318 0.0
C513 C 0.53536 0.18692 0.67586 0.0
C514 C 0.50426 0.17226 0.87155 0.0
C515 C 0.53475 0.18053 0.93779 0.0
H516 H 0.48032 0.16822 0.69647 0.0
H517 H 0.47985 0.16329 0.91906 0.0
S518 S 0.62266 0.21329 0.8056 0.0
N519 N 0.59749 0.20762 0.68579 0.0
N520 N 0.59685 0.20165 0.92619 0.0
C521 C 0.56581 0.19235 0.87167 0.0
C522 C 0.56615 0.19563 0.7411 0.0
C523 C 0.87901 0.34617 0.75711 0.0
C524 C 0.8722 0.3689 0.68838 0.0
C525 C 0.88208 0.34874 0.88552 0.0
C526 C 0.87856 0.37421 0.95057 0.0
H527 H 0.88203 0.32619 0.71157 0.0
H528 H 0.88695 0.33034 0.93407 0.0
S529 S 0.86189 0.44102 0.81383 0.0
N530 N 0.8628 0.41837 0.6953 0.0
N531 N 0.86874 0.42321 0.93583 0.0
C532 C 0.87217 0.3974 0.88289 0.0
C533 C 0.8689 0.39471 0.75222 0.0
C534 C 0.38915 0.89018 0.20831 0.0
C535 C 0.36588 0.86057 0.27481 0.0
C536 C 0.39094 0.8895 0.0798 0.0
C537 C 0.36958 0.85916 0.01267 0.0
H538 H 0.40619 0.91417 0.25569 0.0
H539 H 0.40905 0.91307 0.0329 0.0
S540 S 0.30479 0.7742 0.14322 0.0
N541 N 0.32134 0.7998 0.26379 0.0
N542 N 0.32478 0.79845 0.02297 0.0
C543 C 0.34634 0.82925 0.07816 0.0
C544 C 0.34444 0.82999 0.20891 0.0
C545 C 0.22664 0.52894 0.11874 0.0
C546 C 0.19634 0.52175 0.05322 0.0
C547 C 0.22678 0.52728 0.24739 0.0
C548 C 0.19663 0.51831 0.31562 0.0
H549 H 0.25056 0.53599 0.0705 0.0
H550 H 0.25083 0.53337 0.2935 0.0
S551 S 0.1101 0.496 0.18788 0.0
N552 N 0.13518 0.50465 0.0663 0.0
N553 N 0.13529 0.50138 0.30733 0.0
C554 C 0.16603 0.51075 0.25107 0.0
C555 C 0.16593 0.51253 0.12019 0.0
C556 C 0.54749 0.67016 0.27117 0.0
C557 C 0.54398 0.69578 0.3353 0.0
C558 C 0.54439 0.66728 0.14279 0.0
C559 C 0.53755 0.68983 0.0732 0.0
H560 H 0.55242 0.65189 0.32038 0.0
H561 H 0.54747 0.64725 0.09798 0.0
S562 S 0.52687 0.76201 0.19622 0.0
N563 N 0.5339 0.74456 0.31888 0.0
N564 N 0.52787 0.73917 0.07848 0.0
C565 C 0.53415 0.71573 0.13619 0.0
C566 C 0.53748 0.71874 0.26681 0.0
loop_
_geom_bond_atom_site_label_1
_geom_bond_atom_site_label_2
_geom_bond_distance
_geom_bond_site_symmetry_2
_ccdc_geom_bond_type
Co0 N5 2.057 . S
Co0 O17 2.021 1_554 S
Co0 O20 2.062 1_654 S
Co0 O24 2.111 1_655 S
Co0 O25 2.020 . S
C1 O21 1.259 . S
C1 O24 1.265 . S
Co2 N11 2.057 1_554 S
Co2 O18 2.117 1_554 S
Co2 O19 2.020 1_554 S
Co2 O21 2.021 . S
Co2 O26 2.069 . S
C3 N5 1.316 1_556 S
C3 N6 1.347 1_556 S
C3 H8 0.931 . S
C4 N5 1.375 . S
C4 C7 1.350 . S
C4 H9 0.930 . S
N5 Co0 2.057 . S
N5 C3 1.316 1_554 S
N5 C4 1.375 . S
N6 C3 1.347 1_554 S
N6 C7 1.373 . S
C7 C4 1.350 . S
C7 N6 1.373 . S
C7 H28 0.931 . S
H8 C3 0.931 . S
H9 C4 0.930 . S
C10 O17 1.259 1_455 S
C10 O18 1.258 . S
N11 Co2 2.057 1_556 S
N11 C12 1.316 1_556 S
N11 C13 1.375 . S
C12 N11 1.316 1_554 S
C12 N14 1.347 1_554 S
C12 H23 0.931 . S
C13 N11 1.375 . S
C13 C15 1.350 . S
C13 H22 0.930 . S
N14 C12 1.347 1_556 S
N14 C15 1.373 . S
C15 C13 1.350 . S
C15 N14 1.373 . S
C15 H29 0.931 . S
C16 O19 1.256 . S
C16 O20 1.255 . S
O17 Co0 2.021 1_556 S
O17 C10 1.259 1_655 S
O18 Co2 2.117 1_556 S
O18 C10 1.258 . S
O19 Co2 2.020 1_556 S
O19 C16 1.256 . S
O20 Co0 2.062 1_456 S
O20 C16 1.255 . S
O21 C1 1.259 . S
O21 Co2 2.021 . S
H22 C13 0.930 . S
H23 C12 0.931 . S
O24 Co0 2.111 1_455 S
O24 C1 1.265 . S
O25 Co0 2.020 . S
O25 C27 1.256 . S
O26 Co2 2.069 . S
O26 C27 1.249 1_455 S
C27 O25 1.256 . S
C27 O26 1.249 1_655 S
H28 C7 0.931 . S
H29 C15 0.931 . S
Co30 N35 2.057 . S
Co30 O47 2.021 1_554 S
Co30 O50 2.062 1_554 S
Co30 O54 2.117 . S
Co30 O55 2.020 . S
C31 O51 1.259 . S
C31 O54 1.258 . S
Co32 N41 2.057 1_554 S
Co32 O48 2.117 1_554 S
Co32 O49 2.020 1_554 S
Co32 O51 2.021 . S
Co32 O56 2.062 . S
C33 N35 1.316 1_556 S
C33 N36 1.347 1_556 S
C33 H38 0.931 . S
C34 N35 1.375 . S
C34 C37 1.350 . S
C34 H39 0.930 . S
N35 Co30 2.057 . S
N35 C33 1.316 1_554 S
N35 C34 1.375 . S
N36 C33 1.347 1_554 S
N36 C37 1.373 . S
C37 C34 1.350 . S
C37 N36 1.373 . S
C37 H58 0.931 . S
H38 C33 0.931 . S
H39 C34 0.930 . S
C40 O47 1.259 . S
C40 O48 1.258 . S
N41 Co32 2.057 1_556 S
N41 C42 1.316 1_556 S
N41 C43 1.375 . S
C42 N41 1.316 1_554 S
C42 N44 1.347 1_554 S
C42 H53 0.931 . S
C43 N41 1.375 . S
C43 C45 1.350 . S
C43 H52 0.930 . S
N44 C42 1.347 1_556 S
N44 C45 1.373 . S
C45 C43 1.350 . S
C45 N44 1.373 . S
C45 H59 0.931 . S
C46 O49 1.256 . S
C46 O50 1.255 . S
O47 Co30 2.021 1_556 S
O47 C40 1.259 . S
O48 Co32 2.117 1_556 S
O48 C40 1.258 . S
O49 Co32 2.020 1_556 S
O49 C46 1.256 . S
O50 Co30 2.062 1_556 S
O50 C46 1.255 . S
O51 C31 1.259 . S
O51 Co32 2.021 . S
H52 C43 0.930 . S
H53 C42 0.931 . S
O54 Co30 2.117 . S
O54 C31 1.258 . S
O55 Co30 2.020 . S
O55 C57 1.256 . S
O56 Co32 2.062 . S
O56 C57 1.255 . S
C57 O55 1.256 . S
C57 O56 1.255 . S
H58 C37 0.931 . S
H59 C45 0.931 . S
Co60 N65 2.057 . S
Co60 O77 2.021 1_554 S
Co60 O80 2.062 1_554 S
Co60 O84 2.117 . S
Co60 O85 2.020 . S
C61 O81 1.259 1_545 S
C61 O84 1.258 . S
Co62 N71 2.057 1_554 S
Co62 O78 2.117 1_564 S
Co62 O79 2.020 1_554 S
Co62 O81 2.021 . S
Co62 O86 2.062 1_565 S
C63 N65 1.316 1_556 S
C63 N66 1.347 1_556 S
C63 H68 0.931 . S
C64 N65 1.375 . S
C64 C67 1.350 . S
C64 H69 0.930 . S
N65 Co60 2.057 . S
N65 C63 1.316 1_554 S
N65 C64 1.375 . S
N66 C63 1.347 1_554 S
N66 C67 1.373 . S
C67 C64 1.350 . S
C67 N66 1.373 . S
C67 H88 0.931 . S
H68 C63 0.931 . S
H69 C64 0.930 . S
C70 O77 1.259 . S
C70 O78 1.258 . S
N71 Co62 2.057 1_556 S
N71 C72 1.316 1_556 S
N71 C73 1.375 . S
C72 N71 1.316 1_554 S
C72 N74 1.347 1_554 S
C72 H83 0.931 . S
C73 N71 1.375 . S
C73 C75 1.350 . S
C73 H82 0.930 . S
N74 C72 1.347 1_556 S
N74 C75 1.373 . S
C75 C73 1.350 . S
C75 N74 1.373 . S
C75 H89 0.931 . S
C76 O79 1.256 . S
C76 O80 1.255 1_565 S
O77 Co60 2.021 1_556 S
O77 C70 1.259 . S
O78 Co62 2.117 1_546 S
O78 C70 1.258 . S
O79 Co62 2.020 1_556 S
O79 C76 1.256 . S
O80 Co60 2.062 1_556 S
O80 C76 1.255 1_545 S
O81 C61 1.259 1_565 S
O81 Co62 2.021 . S
H82 C73 0.930 . S
H83 C72 0.931 . S
O84 Co60 2.117 . S
O84 C61 1.258 . S
O85 Co60 2.020 . S
O85 C87 1.256 . S
O86 Co62 2.062 1_545 S
O86 C87 1.255 . S
C87 O85 1.256 . S
C87 O86 1.255 . S
H88 C67 0.931 . S
H89 C75 0.931 . S
Co90 N95 2.057 . S
Co90 O107 2.021 . S
Co90 O110 2.062 . S
Co90 O114 2.117 . S
Co90 O115 2.020 . S
C91 O111 1.259 . S
C91 O114 1.258 . S
Co92 N101 2.057 . S
Co92 O108 2.117 . S
Co92 O109 2.020 . S
Co92 O111 2.021 . S
Co92 O116 2.062 . S
C93 N95 1.316 . S
C93 N96 1.347 . S
C93 H98 0.931 . S
C94 N95 1.375 . S
C94 C97 1.350 . S
C94 H99 0.930 . S
N95 Co90 2.057 . S
N95 C93 1.316 . S
N95 C94 1.375 . S
N96 C93 1.347 . S
N96 C97 1.373 . S
C97 C94 1.350 . S
C97 N96 1.373 . S
C97 H118 0.931 . S
H98 C93 0.931 . S
H99 C94 0.930 . S
C100 O107 1.259 . S
C100 O108 1.258 . S
N101 Co92 2.057 . S
N101 C102 1.316 . S
N101 C103 1.375 . S
C102 N101 1.316 . S
C102 N104 1.347 . S
C102 H113 0.931 . S
C103 N101 1.375 . S
C103 C105 1.350 . S
C103 H112 0.930 . S
N104 C102 1.347 . S
N104 C105 1.373 . S
C105 C103 1.350 . S
C105 N104 1.373 . S
C105 H119 0.931 . S
C106 O109 1.256 . S
C106 O110 1.255 . S
O107 Co90 2.021 . S
O107 C100 1.259 . S
O108 Co92 2.117 . S
O108 C100 1.258 . S
O109 Co92 2.020 . S
O109 C106 1.256 . S
O110 Co90 2.062 . S
O110 C106 1.255 . S
O111 C91 1.259 . S
O111 Co92 2.021 . S
H112 C103 0.930 . S
H113 C102 0.931 . S
O114 Co90 2.117 . S
O114 C91 1.258 . S
O115 Co90 2.020 . S
O115 C117 1.256 . S
O116 Co92 2.062 . S
O116 C117 1.255 . S
C117 O115 1.256 . S
C117 O116 1.255 . S
H118 C97 0.931 . S
H119 C105 0.931 . S
Co120 N125 2.057 . S
Co120 O137 2.021 . S
Co120 O140 2.062 . S
Co120 O144 2.117 . S
Co120 O145 2.020 . S
C121 O141 1.259 . S
C121 O144 1.258 . S
Co122 N131 2.057 . S
Co122 O138 2.117 . S
Co122 O139 2.020 . S
Co122 O141 2.021 . S
Co122 O146 2.062 . S
C123 N125 1.316 . S
C123 N126 1.347 . S
C123 H128 0.931 . S
C124 N125 1.375 . S
C124 C127 1.350 . S
C124 H129 0.930 . S
N125 Co120 2.057 . S
N125 C123 1.316 . S
N125 C124 1.375 . S
N126 C123 1.347 . S
N126 C127 1.373 . S
C127 C124 1.350 . S
C127 N126 1.373 . S
C127 H148 0.931 . S
H128 C123 0.931 . S
H129 C124 0.930 . S
C130 O137 1.259 . S
C130 O138 1.258 . S
N131 Co122 2.057 . S
N131 C132 1.316 . S
N131 C133 1.375 . S
C132 N131 1.316 . S
C132 N134 1.347 . S
C132 H143 0.931 . S
C133 N131 1.375 . S
C133 C135 1.350 . S
C133 H142 0.930 . S
N134 C132 1.347 . S
N134 C135 1.373 . S
C135 C133 1.350 . S
C135 N134 1.373 . S
C135 H149 0.931 . S
C136 O139 1.256 . S
C136 O140 1.255 . S
O137 Co120 2.021 . S
O137 C130 1.259 . S
O138 Co122 2.117 . S
O138 C130 1.258 . S
O139 Co122 2.020 . S
O139 C136 1.256 . S
O140 Co120 2.062 . S
O140 C136 1.255 . S
O141 C121 1.259 . S
O141 Co122 2.021 . S
H142 C133 0.930 . S
H143 C132 0.931 . S
O144 Co120 2.117 . S
O144 C121 1.258 . S
O145 Co120 2.020 . S
O145 C147 1.256 . S
O146 Co122 2.062 . S
O146 C147 1.255 . S
C147 O145 1.256 . S
C147 O146 1.255 . S
H148 C127 0.931 . S
H149 C135 0.931 . S
Co150 N155 2.057 . S
Co150 O167 2.021 . S
Co150 O170 2.062 . S
Co150 O174 2.117 . S
Co150 O175 2.020 . S
C151 O171 1.259 . S
C151 O174 1.258 . S
Co152 N161 2.057 . S
Co152 O168 2.117 . S
Co152 O169 2.020 . S
Co152 O171 2.021 . S
Co152 O176 2.062 . S
C153 N155 1.316 . S
C153 N156 1.347 . S
C153 H158 0.931 . S
C154 N155 1.375 . S
C154 C157 1.350 . S
C154 H159 0.930 . S
N155 Co150 2.057 . S
N155 C153 1.316 . S
N155 C154 1.375 . S
N156 C153 1.347 . S
N156 C157 1.373 . S
C157 C154 1.350 . S
C157 N156 1.373 . S
C157 H178 0.931 . S
H158 C153 0.931 . S
H159 C154 0.930 . S
C160 O167 1.259 . S
C160 O168 1.258 . S
N161 Co152 2.057 . S
N161 C162 1.316 . S
N161 C163 1.375 . S
C162 N161 1.316 . S
C162 N164 1.347 . S
C162 H173 0.931 . S
C163 N161 1.375 . S
C163 C165 1.350 . S
C163 H172 0.930 . S
N164 C162 1.347 . S
N164 C165 1.373 . S
C165 C163 1.350 . S
C165 N164 1.373 . S
C165 H179 0.931 . S
C166 O169 1.256 . S
C166 O170 1.255 . S
O167 Co150 2.021 . S
O167 C160 1.259 . S
O168 Co152 2.117 . S
O168 C160 1.258 . S
O169 Co152 2.020 . S
O169 C166 1.256 . S
O170 Co150 2.062 . S
O170 C166 1.255 . S
O171 C151 1.259 . S
O171 Co152 2.021 . S
H172 C163 0.930 . S
H173 C162 0.931 . S
O174 Co150 2.117 . S
O174 C151 1.258 . S
O175 Co150 2.020 . S
O175 C177 1.256 . S
O176 Co152 2.062 . S
O176 C177 1.255 . S
C177 O175 1.256 . S
C177 O176 1.255 . S
H178 C157 0.931 . S
H179 C165 0.931 . S
Co180 N185 2.057 . S
Co180 O197 2.021 . S
Co180 O200 2.062 . S
Co180 O204 2.117 . S
Co180 O205 2.020 . S
C181 O201 1.259 . S
C181 O204 1.258 . S
Co182 N191 2.057 . S
Co182 O198 2.117 . S
Co182 O199 2.020 . S
Co182 O201 2.021 . S
Co182 O206 2.062 . S
C183 N185 1.316 . S
C183 N186 1.347 . S
C183 H188 0.931 . S
C184 N185 1.375 . S
C184 C187 1.350 . S
C184 H189 0.930 . S
N185 Co180 2.057 . S
N185 C183 1.316 . S
N185 C184 1.375 . S
N186 C183 1.347 . S
N186 C187 1.373 . S
C187 C184 1.350 . S
C187 N186 1.373 . S
C187 H208 0.931 . S
H188 C183 0.931 . S
H189 C184 0.930 . S
C190 O197 1.259 . S
C190 O198 1.258 . S
N191 Co182 2.057 . S
N191 C192 1.316 . S
N191 C193 1.375 . S
C192 N191 1.316 . S
C192 N194 1.347 . S
C192 H203 0.931 . S
C193 N191 1.375 . S
C193 C195 1.350 . S
C193 H202 0.930 . S
N194 C192 1.347 . S
N194 C195 1.373 . S
C195 C193 1.350 . S
C195 N194 1.373 . S
C195 H209 0.931 . S
C196 O199 1.256 . S
C196 O200 1.255 . S
O197 Co180 2.021 . S
O197 C190 1.259 . S
O198 Co182 2.117 . S
O198 C190 1.258 . S
O199 Co182 2.020 . S
O199 C196 1.256 . S
O200 Co180 2.062 . S
O200 C196 1.255 . S
O201 C181 1.259 . S
O201 Co182 2.021 . S
H202 C193 0.930 . S
H203 C192 0.931 . S
O204 Co180 2.117 . S
O204 C181 1.258 . S
O205 Co180 2.020 . S
O205 C207 1.256 . S
O206 Co182 2.062 . S
O206 C207 1.255 . S
C207 O205 1.256 . S
C207 O206 1.255 . S
H208 C187 0.931 . S
H209 C195 0.931 . S
Co210 N215 2.057 . S
Co210 O227 2.021 . S
Co210 O230 2.062 . S
Co210 O234 2.117 . S
Co210 O235 2.020 . S
C211 O231 1.259 . S
C211 O234 1.258 . S
Co212 N221 2.057 . S
Co212 O228 2.117 . S
Co212 O229 2.020 . S
Co212 O231 2.021 . S
Co212 O236 2.062 . S
C213 N215 1.316 . S
C213 N216 1.347 . S
C213 H218 0.931 . S
C214 N215 1.375 . S
C214 C217 1.350 . S
C214 H219 0.930 . S
N215 Co210 2.057 . S
N215 C213 1.316 . S
N215 C214 1.375 . S
N216 C213 1.347 . S
N216 C217 1.373 . S
C217 C214 1.350 . S
C217 N216 1.373 . S
C217 H238 0.931 . S
H218 C213 0.931 . S
H219 C214 0.930 . S
C220 O227 1.259 . S
C220 O228 1.258 . S
N221 Co212 2.057 . S
N221 C222 1.316 . S
N221 C223 1.375 . S
C222 N221 1.316 . S
C222 N224 1.347 . S
C222 H233 0.931 . S
C223 N221 1.375 . S
C223 C225 1.350 . S
C223 H232 0.930 . S
N224 C222 1.347 . S
N224 C225 1.373 . S
C225 C223 1.350 . S
C225 N224 1.373 . S
C225 H239 0.931 . S
C226 O229 1.256 . S
C226 O230 1.255 . S
O227 Co210 2.021 . S
O227 C220 1.259 . S
O228 Co212 2.117 . S
O228 C220 1.258 . S
O229 Co212 2.020 . S
O229 C226 1.256 . S
O230 Co210 2.062 . S
O230 C226 1.255 . S
O231 C211 1.259 . S
O231 Co212 2.021 . S
H232 C223 0.930 . S
H233 C222 0.931 . S
O234 Co210 2.117 . S
O234 C211 1.258 . S
O235 Co210 2.020 . S
O235 C237 1.256 . S
O236 Co212 2.062 . S
O236 C237 1.255 . S
C237 O235 1.256 . S
C237 O236 1.255 . S
H238 C217 0.931 . S
H239 C225 0.931 . S
Co240 N245 2.057 . S
Co240 O257 2.021 . S
Co240 O260 2.062 . S
Co240 O264 2.117 . S
Co240 O265 2.020 . S
C241 O261 1.259 . S
C241 O264 1.258 . S
Co242 N251 2.057 . S
Co242 O258 2.117 . S
Co242 O259 2.020 . S
Co242 O261 2.021 . S
Co242 O266 2.062 . S
C243 N245 1.316 . S
C243 N246 1.347 . S
C243 H248 0.931 . S
C244 N245 1.375 . S
C244 C247 1.350 . S
C244 H249 0.930 . S
N245 Co240 2.057 . S
N245 C243 1.316 . S
N245 C244 1.375 . S
N246 C243 1.347 . S
N246 C247 1.373 . S
C247 C244 1.350 . S
C247 N246 1.373 . S
C247 H268 0.931 . S
H248 C243 0.931 . S
H249 C244 0.930 . S
C250 O257 1.259 . S
C250 O258 1.258 . S
N251 Co242 2.057 . S
N251 C252 1.316 . S
N251 C253 1.375 . S
C252 N251 1.316 . S
C252 N254 1.347 . S
C252 H263 0.931 . S
C253 N251 1.375 . S
C253 C255 1.350 . S
C253 H262 0.930 . S
N254 C252 1.347 . S
N254 C255 1.373 . S
C255 C253 1.350 . S
C255 N254 1.373 . S
C255 H269 0.931 . S
C256 O259 1.256 . S
C256 O260 1.255 . S
O257 Co240 2.021 . S
O257 C250 1.259 . S
O258 Co242 2.117 . S
O258 C250 1.258 . S
O259 Co242 2.020 . S
O259 C256 1.256 . S
O260 Co240 2.062 . S
O260 C256 1.255 . S
O261 C241 1.259 . S
O261 Co242 2.021 . S
H262 C253 0.930 . S
H263 C252 0.931 . S
O264 Co240 2.117 . S
O264 C241 1.258 . S
O265 Co240 2.020 . S
O265 C267 1.256 . S
O266 Co242 2.062 . S
O266 C267 1.255 . S
C267 O265 1.256 . S
C267 O266 1.255 . S
H268 C247 0.931 . S
H269 C255 0.931 . S
C270 C271 1.369 . S
C270 C272 1.419 . S
C270 H274 0.930 . S
C271 C270 1.369 . S
C271 C280 1.429 . S
C272 C270 1.419 . S
C272 C273 1.363 . S
C272 H275 0.929 . S
C273 C272 1.363 . S
C273 C279 1.428 . S
H274 C270 0.930 . S
H275 C272 0.929 . S
S276 N277 1.613 . S
S276 N278 1.610 . S
N277 S276 1.613 . S
N277 C280 1.350 . S
N278 S276 1.610 . S
N278 C279 1.351 . S
C279 C273 1.428 . S
C279 N278 1.351 . S
C279 C280 1.434 . S
C280 C271 1.429 . S
C280 N277 1.350 . S
C280 C279 1.434 . S
C281 C282 1.369 . S
C281 C283 1.419 . S
C281 H285 0.930 1_556 S
C282 C281 1.369 . S
C282 C291 1.429 . S
C283 C281 1.419 . S
C283 C284 1.363 . S
C283 H286 0.929 . S
C284 C283 1.363 . S
C284 C290 1.428 . S
H285 C281 0.930 1_554 S
H286 C283 0.929 . S
S287 N288 1.613 . S
S287 N289 1.610 . S
N288 S287 1.613 . S
N288 C291 1.350 . S
N289 S287 1.610 . S
N289 C290 1.351 . S
C290 C284 1.428 . S
C290 N289 1.351 . S
C290 C291 1.434 . S
C291 C282 1.429 . S
C291 N288 1.350 . S
C291 C290 1.434 . S
C292 C293 1.369 . S
C292 C294 1.419 . S
C292 H296 0.930 . S
C293 C292 1.369 . S
C293 C302 1.429 . S
C294 C292 1.419 . S
C294 C295 1.363 . S
C294 H297 0.929 . S
C295 C294 1.363 . S
C295 C301 1.428 . S
H296 C292 0.930 . S
H297 C294 0.929 . S
S298 N299 1.613 . S
S298 N300 1.610 1_554 S
N299 S298 1.613 . S
N299 C302 1.350 1_554 S
N300 S298 1.610 1_556 S
N300 C301 1.351 . S
C301 C295 1.428 . S
C301 N300 1.351 . S
C301 C302 1.434 . S
C302 C293 1.429 . S
C302 N299 1.350 1_556 S
C302 C301 1.434 . S
C303 C304 1.369 . S
C303 C305 1.419 . S
C303 H307 0.930 . S
C304 C303 1.369 . S
C304 C313 1.429 . S
C305 C303 1.419 . S
C305 C306 1.363 . S
C305 H308 0.929 . S
C306 C305 1.363 . S
C306 C312 1.428 . S
H307 C303 0.930 . S
H308 C305 0.929 . S
S309 N310 1.613 . S
S309 N311 1.610 . S
N310 S309 1.613 . S
N310 C313 1.350 . S
N311 S309 1.610 . S
N311 C312 1.351 . S
C312 C306 1.428 . S
C312 N311 1.351 . S
C312 C313 1.434 . S
C313 C304 1.429 . S
C313 N310 1.350 . S
C313 C312 1.434 . S
C314 C315 1.369 . S
C314 C316 1.419 . S
C314 H318 0.930 . S
C315 C314 1.369 . S
C315 C324 1.429 . S
C316 C314 1.419 . S
C316 C317 1.363 . S
C316 H319 0.929 1_554 S
C317 C316 1.363 . S
C317 C323 1.428 . S
H318 C314 0.930 . S
H319 C316 0.929 1_556 S
S320 N321 1.613 . S
S320 N322 1.610 . S
N321 S320 1.613 . S
N321 C324 1.350 . S
N322 S320 1.610 . S
N322 C323 1.351 . S
C323 C317 1.428 . S
C323 N322 1.351 . S
C323 C324 1.434 . S
C324 C315 1.429 . S
C324 N321 1.350 . S
C324 C323 1.434 . S
C325 C326 1.369 . S
C325 C327 1.419 . S
C325 H329 0.930 . S
C326 C325 1.369 . S
C326 C335 1.429 . S
C327 C325 1.419 . S
C327 C328 1.363 . S
C327 H330 0.929 . S
C328 C327 1.363 . S
C328 C334 1.428 . S
H329 C325 0.930 . S
H330 C327 0.929 . S
S331 N332 1.613 . S
S331 N333 1.610 1_556 S
N332 S331 1.613 . S
N332 C335 1.350 1_556 S
N333 S331 1.610 1_554 S
N333 C334 1.351 . S
C334 C328 1.428 . S
C334 N333 1.351 . S
C334 C335 1.434 . S
C335 C326 1.429 . S
C335 N332 1.350 1_554 S
C335 C334 1.434 . S
C336 C337 1.369 1_655 S
C336 C338 1.419 . S
C336 H340 0.930 . S
C337 C336 1.369 1_455 S
C337 C346 1.429 . S
C338 C336 1.419 . S
C338 C339 1.363 . S
C338 H341 0.929 . S
C339 C338 1.363 . S
C339 C345 1.428 . S
H340 C336 0.930 . S
H341 C338 0.929 . S
S342 N343 1.613 . S
S342 N344 1.610 1_455 S
N343 S342 1.613 . S
N343 C346 1.350 . S
N344 S342 1.610 1_655 S
N344 C345 1.351 . S
C345 C339 1.428 . S
C345 N344 1.351 . S
C345 C346 1.434 1_655 S
C346 C337 1.429 . S
C346 N343 1.350 . S
C346 C345 1.434 1_455 S
C347 C348 1.369 . S
C347 C349 1.419 . S
C347 H351 0.930 . S
C348 C347 1.369 . S
C348 C357 1.429 . S
C349 C347 1.419 . S
C349 C350 1.363 . S
C349 H352 0.929 . S
C350 C349 1.363 . S
C350 C356 1.428 . S
H351 C347 0.930 . S
H352 C349 0.929 . S
S353 N354 1.613 . S
S353 N355 1.610 . S
N354 S353 1.613 . S
N354 C357 1.350 . S
N355 S353 1.610 . S
N355 C356 1.351 . S
C356 C350 1.428 . S
C356 N355 1.351 . S
C356 C357 1.434 . S
C357 C348 1.429 . S
C357 N354 1.350 . S
C357 C356 1.434 . S
C358 C359 1.369 . S
C358 C360 1.419 . S
C358 H362 0.930 . S
C359 C358 1.369 . S
C359 C368 1.429 . S
C360 C358 1.419 . S
C360 C361 1.363 . S
C360 H363 0.929 . S
C361 C360 1.363 . S
C361 C367 1.428 . S
H362 C358 0.930 . S
H363 C360 0.929 . S
S364 N365 1.613 . S
S364 N366 1.610 . S
N365 S364 1.613 . S
N365 C368 1.350 . S
N366 S364 1.610 . S
N366 C367 1.351 . S
C367 C361 1.428 . S
C367 N366 1.351 . S
C367 C368 1.434 . S
C368 C359 1.429 . S
C368 N365 1.350 . S
C368 C367 1.434 . S
C369 C370 1.369 . S
C369 C371 1.419 . S
C369 H373 0.930 . S
C370 C369 1.369 . S
C370 C379 1.429 1_554 S
C371 C369 1.419 . S
C371 C372 1.363 1_554 S
C371 H374 0.929 . S
C372 C371 1.363 1_556 S
C372 C378 1.428 . S
H373 C369 0.930 . S
H374 C371 0.929 . S
S375 N376 1.613 . S
S375 N377 1.610 . S
N376 S375 1.613 . S
N376 C379 1.350 . S
N377 S375 1.610 . S
N377 C378 1.351 . S
C378 C372 1.428 . S
C378 N377 1.351 . S
C378 C379 1.434 . S
C379 C370 1.429 1_556 S
C379 N376 1.350 . S
C379 C378 1.434 . S
C380 C381 1.369 . S
C380 C382 1.419 . S
C380 H384 0.930 . S
C381 C380 1.369 . S
C381 C390 1.429 1_556 S
C382 C380 1.419 . S
C382 C383 1.363 1_566 S
C382 H385 0.929 1_565 S
C383 C382 1.363 1_544 S
C383 C389 1.428 1_545 S
H384 C380 0.930 . S
H385 C382 0.929 1_545 S
S386 N387 1.613 . S
S386 N388 1.610 1_565 S
N387 S386 1.613 . S
N387 C390 1.350 . S
N388 S386 1.610 1_545 S
N388 C389 1.351 1_545 S
C389 C383 1.428 1_565 S
C389 N388 1.351 1_565 S
C389 C390 1.434 . S
C390 C381 1.429 1_554 S
C390 N387 1.350 . S
C390 C389 1.434 . S
C391 C392 1.369 . S
C391 C393 1.419 . S
C391 H395 0.930 . S
C392 C391 1.369 . S
C392 C401 1.429 1_554 S
C393 C391 1.419 . S
C393 C394 1.363 1_554 S
C393 H396 0.929 . S
C394 C393 1.363 1_556 S
C394 C400 1.428 . S
H395 C391 0.930 . S
H396 C393 0.929 . S
S397 N398 1.613 . S
S397 N399 1.610 . S
N398 S397 1.613 . S
N398 C401 1.350 . S
N399 S397 1.610 . S
N399 C400 1.351 . S
C400 C394 1.428 . S
C400 N399 1.351 . S
C400 C401 1.434 . S
C401 C392 1.429 1_556 S
C401 N398 1.350 . S
C401 C400 1.434 . S
C402 C403 1.369 . S
C402 C404 1.419 . S
C402 H406 0.930 . S
C403 C402 1.369 . S
C403 C412 1.429 . S
C404 C402 1.419 . S
C404 C405 1.363 . S
C404 H407 0.929 . S
C405 C404 1.363 . S
C405 C411 1.428 . S
H406 C402 0.930 . S
H407 C404 0.929 . S
S408 N409 1.613 . S
S408 N410 1.610 . S
N409 S408 1.613 . S
N409 C412 1.350 . S
N410 S408 1.610 . S
N410 C411 1.351 . S
C411 C405 1.428 . S
C411 N410 1.351 . S
C411 C412 1.434 . S
C412 C403 1.429 . S
C412 N409 1.350 . S
C412 C411 1.434 . S
C413 C414 1.369 . S
C413 C415 1.419 . S
C413 H417 0.930 . S
C414 C413 1.369 . S
C414 C423 1.429 . S
C415 C413 1.419 . S
C415 C416 1.363 . S
C415 H418 0.929 . S
C416 C415 1.363 . S
C416 C422 1.428 . S
H417 C413 0.930 . S
H418 C415 0.929 . S
S419 N420 1.613 . S
S419 N421 1.610 . S
N420 S419 1.613 . S
N420 C423 1.350 . S
N421 S419 1.610 . S
N421 C422 1.351 . S
C422 C416 1.428 . S
C422 N421 1.351 . S
C422 C423 1.434 . S
C423 C414 1.429 . S
C423 N420 1.350 . S
C423 C422 1.434 . S
C424 C425 1.369 . S
C424 C426 1.419 . S
C424 H428 0.930 . S
C425 C424 1.369 . S
C425 C434 1.429 . S
C426 C424 1.419 . S
C426 C427 1.363 . S
C426 H429 0.929 . S
C427 C426 1.363 . S
C427 C433 1.428 . S
H428 C424 0.930 . S
H429 C426 0.929 . S
S430 N431 1.613 . S
S430 N432 1.610 . S
N431 S430 1.613 . S
N431 C434 1.350 . S
N432 S430 1.610 . S
N432 C433 1.351 . S
C433 C427 1.428 . S
C433 N432 1.351 . S
C433 C434 1.434 . S
C434 C425 1.429 . S
C434 N431 1.350 . S
C434 C433 1.434 . S
C435 C436 1.369 . S
C435 C437 1.419 . S
C435 H439 0.930 . S
C436 C435 1.369 . S
C436 C445 1.429 . S
C437 C435 1.419 . S
C437 C438 1.363 . S
C437 H440 0.929 . S
C438 C437 1.363 . S
C438 C444 1.428 . S
H439 C435 0.930 . S
H440 C437 0.929 . S
S441 N442 1.613 . S
S441 N443 1.610 . S
N442 S441 1.613 . S
N442 C445 1.350 . S
N443 S441 1.610 . S
N443 C444 1.351 . S
C444 C438 1.428 . S
C444 N443 1.351 . S
C444 C445 1.434 . S
C445 C436 1.429 . S
C445 N442 1.350 . S
C445 C444 1.434 . S
C446 C447 1.369 . S
C446 C448 1.419 . S
C446 H450 0.930 . S
C447 C446 1.369 . S
C447 C456 1.429 . S
C448 C446 1.419 . S
C448 C449 1.363 . S
C448 H451 0.929 . S
C449 C448 1.363 . S
C449 C455 1.428 . S
H450 C446 0.930 . S
H451 C448 0.929 . S
S452 N453 1.613 1_554 S
S452 N454 1.610 1_554 S
N453 S452 1.613 1_556 S
N453 C456 1.350 . S
N454 S452 1.610 1_556 S
N454 C455 1.351 . S
C455 C449 1.428 . S
C455 N454 1.351 . S
C455 C456 1.434 . S
C456 C447 1.429 . S
C456 N453 1.350 . S
C456 C455 1.434 . S
C457 C458 1.369 . S
C457 C459 1.419 . S
C457 H461 0.930 . S
C458 C457 1.369 . S
C458 C467 1.429 . S
C459 C457 1.419 . S
C459 C460 1.363 . S
C459 H462 0.929 . S
C460 C459 1.363 . S
C460 C466 1.428 . S
H461 C457 0.930 . S
H462 C459 0.929 . S
S463 N464 1.613 . S
S463 N465 1.610 . S
N464 S463 1.613 . S
N464 C467 1.350 . S
N465 S463 1.610 . S
N465 C466 1.351 . S
C466 C460 1.428 . S
C466 N465 1.351 . S
C466 C467 1.434 . S
C467 C458 1.429 . S
C467 N464 1.350 . S
C467 C466 1.434 . S
C468 C469 1.369 . S
C468 C470 1.419 . S
C468 H472 0.930 . S
C469 C468 1.369 . S
C469 C478 1.429 1_455 S
C470 C468 1.419 . S
C470 C471 1.363 . S
C470 H473 0.929 . S
C471 C470 1.363 . S
C471 C477 1.428 1_455 S
H472 C468 0.930 . S
H473 C470 0.929 . S
S474 N475 1.613 . S
S474 N476 1.610 . S
N475 S474 1.613 . S
N475 C478 1.350 . S
N476 S474 1.610 . S
N476 C477 1.351 . S
C477 C471 1.428 1_655 S
C477 N476 1.351 . S
C477 C478 1.434 . S
C478 C469 1.429 1_655 S
C478 N475 1.350 . S
C478 C477 1.434 . S
C479 C480 1.369 . S
C479 C481 1.419 . S
C479 H483 0.930 . S
C480 C479 1.369 . S
C480 C489 1.429 . S
C481 C479 1.419 . S
C481 C482 1.363 . S
C481 H484 0.929 . S
C482 C481 1.363 . S
C482 C488 1.428 . S
H483 C479 0.930 . S
H484 C481 0.929 . S
S485 N486 1.613 . S
S485 N487 1.610 . S
N486 S485 1.613 . S
N486 C489 1.350 . S
N487 S485 1.610 . S
N487 C488 1.351 . S
C488 C482 1.428 . S
C488 N487 1.351 . S
C488 C489 1.434 . S
C489 C480 1.429 . S
C489 N486 1.350 . S
C489 C488 1.434 . S
C490 C491 1.369 . S
C490 C492 1.419 . S
C490 H494 0.930 . S
C491 C490 1.369 . S
C491 C500 1.429 1_545 S
C492 C490 1.419 . S
C492 C493 1.363 . S
C492 H495 0.929 . S
C493 C492 1.363 . S
C493 C499 1.428 1_545 S
H494 C490 0.930 . S
H495 C492 0.929 . S
S496 N497 1.613 . S
S496 N498 1.610 . S
N497 S496 1.613 . S
N497 C500 1.350 . S
N498 S496 1.610 . S
N498 C499 1.351 . S
C499 C493 1.428 1_565 S
C499 N498 1.351 . S
C499 C500 1.434 . S
C500 C491 1.429 1_565 S
C500 N497 1.350 . S
C500 C499 1.434 . S
C501 C502 1.369 . S
C501 C503 1.419 . S
C501 H505 0.930 . S
C502 C501 1.369 . S
C502 C511 1.429 . S
C503 C501 1.419 . S
C503 C504 1.363 . S
C503 H506 0.929 . S
C504 C503 1.363 . S
C504 C510 1.428 . S
H505 C501 0.930 . S
H506 C503 0.929 . S
S507 N508 1.613 . S
S507 N509 1.610 . S
N508 S507 1.613 . S
N508 C511 1.350 . S
N509 S507 1.610 . S
N509 C510 1.351 . S
C510 C504 1.428 . S
C510 N509 1.351 . S
C510 C511 1.434 . S
C511 C502 1.429 . S
C511 N508 1.350 . S
C511 C510 1.434 . S
C512 C513 1.369 . S
C512 C514 1.419 . S
C512 H516 0.930 . S
C513 C512 1.369 . S
C513 C522 1.429 . S
C514 C512 1.419 . S
C514 C515 1.363 . S
C514 H517 0.929 . S
C515 C514 1.363 . S
C515 C521 1.428 . S
H516 C512 0.930 . S
H517 C514 0.929 . S
S518 N519 1.613 . S
S518 N520 1.610 . S
N519 S518 1.613 . S
N519 C522 1.350 . S
N520 S518 1.610 . S
N520 C521 1.351 . S
C521 C515 1.428 . S
C521 N520 1.351 . S
C521 C522 1.434 . S
C522 C513 1.429 . S
C522 N519 1.350 . S
C522 C521 1.434 . S
C523 C524 1.369 . S
C523 C525 1.419 . S
C523 H527 0.930 . S
C524 C523 1.369 . S
C524 C533 1.429 . S
C525 C523 1.419 . S
C525 C526 1.363 . S
C525 H528 0.929 . S
C526 C525 1.363 . S
C526 C532 1.428 . S
H527 C523 0.930 . S
H528 C525 0.929 . S
S529 N530 1.613 . S
S529 N531 1.610 . S
N530 S529 1.613 . S
N530 C533 1.350 . S
N531 S529 1.610 . S
N531 C532 1.351 . S
C532 C526 1.428 . S
C532 N531 1.351 . S
C532 C533 1.434 . S
C533 C524 1.429 . S
C533 N530 1.350 . S
C533 C532 1.434 . S
C534 C535 1.369 . S
C534 C536 1.419 . S
C534 H538 0.930 . S
C535 C534 1.369 . S
C535 C544 1.429 . S
C536 C534 1.419 . S
C536 C537 1.363 . S
C536 H539 0.929 . S
C537 C536 1.363 . S
C537 C543 1.428 . S
H538 C534 0.930 . S
H539 C536 0.929 . S
S540 N541 1.613 . S
S540 N542 1.610 . S
N541 S540 1.613 . S
N541 C544 1.350 . S
N542 S540 1.610 . S
N542 C543 1.351 . S
C543 C537 1.428 . S
C543 N542 1.351 . S
C543 C544 1.434 . S
C544 C535 1.429 . S
C544 N541 1.350 . S
C544 C543 1.434 . S
C545 C546 1.369 . S
C545 C547 1.419 . S
C545 H549 0.930 . S
C546 C545 1.369 . S
C546 C555 1.429 . S
C547 C545 1.419 . S
C547 C548 1.363 . S
C547 H550 0.929 . S
C548 C547 1.363 . S
C548 C554 1.428 . S
H549 C545 0.930 . S
H550 C547 0.929 . S
S551 N552 1.613 . S
S551 N553 1.610 . S
N552 S551 1.613 . S
N552 C555 1.350 . S
N553 S551 1.610 . S
N553 C554 1.351 . S
C554 C548 1.428 . S
C554 N553 1.351 . S
C554 C555 1.434 . S
C555 C546 1.429 . S
C555 N552 1.350 . S
C555 C554 1.434 . S
C556 C557 1.369 . S
C556 C558 1.419 . S
C556 H560 0.930 . S
C557 C556 1.369 . S
C557 C566 1.429 . S
C558 C556 1.419 . S
C558 C559 1.363 . S
C558 H561 0.929 . S
C559 C558 1.363 . S
C559 C565 1.428 . S
H560 C556 0.930 . S
H561 C558 0.929 . S
S562 N563 1.613 . S
S562 N564 1.610 . S
N563 S562 1.613 . S
N563 C566 1.350 . S
N564 S562 1.610 . S
N564 C565 1.351 . S
C565 C559 1.428 . S
C565 N564 1.351 . S
C565 C566 1.434 . S
C566 C557 1.429 . S
C566 N563 1.350 . S
C566 C565 1.434 . S
C271 N14 1.420 . S
C273 C237 1.561 . S
C282 N44 1.425 . S
C284 C267 1.560 . S
C293 N74 1.433 . S
C295 C207 1.555 . S
C304 N134 1.434 . S
C306 C87 1.555 . S
C315 N164 1.434 . S
C317 C27 1.555 . S
C326 C57 1.563 . S
C328 N104 1.421 . S
C337 N224 1.421 . S
C339 C177 1.561 . S
C348 N254 1.435 . S
C350 C117 1.555 . S
C359 C147 1.553 . S
C361 N194 1.432 1_545 S
C370 N66 1.293 . S
C372 C16 1.294 . S
C381 C46 1.291 . S
C383 N6 1.290 . S
C392 N36 1.293 1_455 S
C394 C76 1.294 . S
C403 C106 1.291 . S
C405 N156 1.290 . S
C414 N96 1.290 . S
C416 C136 1.291 . S
C425 N126 1.291 . S
C427 C166 1.293 . S
C436 N246 1.292 . S
C438 C196 1.293 . S
C447 C226 1.291 . S
C449 N186 1.290 . S
C458 C256 1.295 . S
C460 N216 1.294 . S
C469 C10 1.238 . S
C471 C1 1.235 . S
C480 C40 1.235 . S
C482 C31 1.237 . S
C491 C70 1.235 . S
C493 C61 1.237 . S
C502 C91 1.235 . S
C504 C100 1.237 1_556 S
C513 C121 1.236 . S
C515 C130 1.237 1_556 S
C524 C151 1.236 . S
C526 C160 1.236 1_556 S
C535 C190 1.236 . S
C537 C181 1.236 1_554 S
C546 C211 1.237 1_554 S
C548 C220 1.236 . S
C557 C250 1.235 . S
C559 C241 1.237 1_554 S
