# Generated by pormake.
# Topology wls, (5)-cn, num edge types: 1
# Building blocks:
#     Node 0, Type 0, BuildingBlock: XOMCOT_clean_sbu_0, # of connection points: 5
#     Node 1, Type 0, BuildingBlock: XOMCOT_clean_sbu_0, # of connection points: 5
#     Node 2, Type 0, BuildingBlock: XOMCOT_clean_sbu_0, # of connection points: 5
#     Node 3, Type 0, BuildingBlock: XOMCOT_clean_sbu_0, # of connection points: 5
#     Node 4, Type 0, BuildingBlock: XOMCOT_clean_sbu_0, # of connection points: 5
#     Node 5, Type 0, BuildingBlock: XOMCOT_clean_sbu_0, # of connection points: 5
#     Node 6, Type 0, BuildingBlock: XOMCOT_clean_sbu_0, # of connection points: 5
#     Node 7, Type 0, BuildingBlock: XOMCOT_clean_sbu_0, # of connection points: 5
#     Node 8, Type 0, BuildingBlock: XOMCOT_clean_sbu_0, # of connection points: 5
#     Node 9, Type 0, BuildingBlock: XOMCOT_clean_sbu_0, # of connection points: 5
#     Node 10, Type 0, BuildingBlock: XOMCOT_clean_sbu_0, # of connection points: 5
#     Node 11, Type 0, BuildingBlock: XOMCOT_clean_sbu_0, # of connection points: 5
#     Node 12, Type 0, BuildingBlock: XOMCOT_clean_sbu_0, # of connection points: 5
#     Node 13, Type 0, BuildingBlock: XOMCOT_clean_sbu_0, # of connection points: 5
#     Node 14, Type 0, BuildingBlock: XOMCOT_clean_sbu_0, # of connection points: 5
#     Node 15, Type 0, BuildingBlock: XOMCOT_clean_sbu_0, # of connection points: 5
#     Node 16, Type 0, BuildingBlock: XOMCOT_clean_sbu_0, # of connection points: 5
#     Node 17, Type 0, BuildingBlock: XOMCOT_clean_sbu_0, # of connection points: 5
#     Node 18, Type 0, BuildingBlock: XOMCOT_clean_sbu_0, # of connection points: 5
#     Node 19, Type 0, BuildingBlock: XOMCOT_clean_sbu_0, # of connection points: 5
#     Node 20, Type 0, BuildingBlock: XOMCOT_clean_sbu_0, # of connection points: 5
#     Node 21, Type 0, BuildingBlock: XOMCOT_clean_sbu_0, # of connection points: 5
#     Node 22, Type 0, BuildingBlock: XOMCOT_clean_sbu_0, # of connection points: 5
#     Node 23, Type 0, BuildingBlock: XOMCOT_clean_sbu_0, # of connection points: 5
#     Node 24, Type 0, BuildingBlock: XOMCOT_clean_sbu_0, # of connection points: 5
#     Node 25, Type 0, BuildingBlock: XOMCOT_clean_sbu_0, # of connection points: 5
#     Node 26, Type 0, BuildingBlock: XOMCOT_clean_sbu_0, # of connection points: 5
#     Node 27, Type 0, BuildingBlock: XOMCOT_clean_sbu_0, # of connection points: 5
#     Node 28, Type 0, BuildingBlock: XOMCOT_clean_sbu_0, # of connection points: 5
#     Node 29, Type 0, BuildingBlock: XOMCOT_clean_sbu_0, # of connection points: 5
#     Node 30, Type 0, BuildingBlock: XOMCOT_clean_sbu_0, # of connection points: 5
#     Node 31, Type 0, BuildingBlock: XOMCOT_clean_sbu_0, # of connection points: 5
#     Node 32, Type 0, BuildingBlock: XOMCOT_clean_sbu_0, # of connection points: 5
#     Node 33, Type 0, BuildingBlock: XOMCOT_clean_sbu_0, # of connection points: 5
#     Node 34, Type 0, BuildingBlock: XOMCOT_clean_sbu_0, # of connection points: 5
#     Node 35, Type 0, BuildingBlock: XOMCOT_clean_sbu_0, # of connection points: 5
#     Edge 36, Type (0, 0), BuildingBlock: KIFKEQ_clean_linker_1, # of connection points: 2
#     Edge 37, Type (0, 0), BuildingBlock: KIFKEQ_clean_linker_1, # of connection points: 2
#     Edge 38, Type (0, 0), BuildingBlock: KIFKEQ_clean_linker_1, # of connection points: 2
#     Edge 39, Type (0, 0), BuildingBlock: KIFKEQ_clean_linker_1, # of connection points: 2
#     Edge 40, Type (0, 0), BuildingBlock: KIFKEQ_clean_linker_1, # of connection points: 2
#     Edge 41, Type (0, 0), BuildingBlock: KIFKEQ_clean_linker_1, # of connection points: 2
#     Edge 42, Type (0, 0), BuildingBlock: KIFKEQ_clean_linker_1, # of connection points: 2
#     Edge 43, Type (0, 0), BuildingBlock: KIFKEQ_clean_linker_1, # of connection points: 2
#     Edge 44, Type (0, 0), BuildingBlock: KIFKEQ_clean_linker_1, # of connection points: 2
#     Edge 45, Type (0, 0), BuildingBlock: KIFKEQ_clean_linker_1, # of connection points: 2
#     Edge 46, Type (0, 0), BuildingBlock: KIFKEQ_clean_linker_1, # of connection points: 2
#     Edge 47, Type (0, 0), BuildingBlock: KIFKEQ_clean_linker_1, # of connection points: 2
#     Edge 48, Type (0, 0), BuildingBlock: KIFKEQ_clean_linker_1, # of connection points: 2
#     Edge 49, Type (0, 0), BuildingBlock: KIFKEQ_clean_linker_1, # of connection points: 2
#     Edge 50, Type (0, 0), BuildingBlock: KIFKEQ_clean_linker_1, # of connection points: 2
#     Edge 51, Type (0, 0), BuildingBlock: KIFKEQ_clean_linker_1, # of connection points: 2
#     Edge 52, Type (0, 0), BuildingBlock: KIFKEQ_clean_linker_1, # of connection points: 2
#     Edge 53, Type (0, 0), BuildingBlock: KIFKEQ_clean_linker_1, # of connection points: 2
#     Edge 54, Type (0, 0), BuildingBlock: KIFKEQ_clean_linker_1, # of connection points: 2
#     Edge 55, Type (0, 0), BuildingBlock: KIFKEQ_clean_linker_1, # of connection points: 2
#     Edge 56, Type (0, 0), BuildingBlock: KIFKEQ_clean_linker_1, # of connection points: 2
#     Edge 57, Type (0, 0), BuildingBlock: KIFKEQ_clean_linker_1, # of connection points: 2
#     Edge 58, Type (0, 0), BuildingBlock: KIFKEQ_clean_linker_1, # of connection points: 2
#     Edge 59, Type (0, 0), BuildingBlock: KIFKEQ_clean_linker_1, # of connection points: 2
#     Edge 60, Type (0, 0), BuildingBlock: KIFKEQ_clean_linker_1, # of connection points: 2
#     Edge 61, Type (0, 0), BuildingBlock: KIFKEQ_clean_linker_1, # of connection points: 2
#     Edge 62, Type (0, 0), BuildingBlock: KIFKEQ_clean_linker_1, # of connection points: 2
#     Edge 63, Type (0, 0), BuildingBlock: KIFKEQ_clean_linker_1, # of connection points: 2
#     Edge 64, Type (0, 0), BuildingBlock: KIFKEQ_clean_linker_1, # of connection points: 2
#     Edge 65, Type (0, 0), BuildingBlock: KIFKEQ_clean_linker_1, # of connection points: 2
#     Edge 66, Type (0, 0), BuildingBlock: KIFKEQ_clean_linker_1, # of connection points: 2
#     Edge 67, Type (0, 0), BuildingBlock: KIFKEQ_clean_linker_1, # of connection points: 2
#     Edge 68, Type (0, 0), BuildingBlock: KIFKEQ_clean_linker_1, # of connection points: 2
#     Edge 69, Type (0, 0), BuildingBlock: KIFKEQ_clean_linker_1, # of connection points: 2
#     Edge 70, Type (0, 0), BuildingBlock: KIFKEQ_clean_linker_1, # of connection points: 2
#     Edge 71, Type (0, 0), BuildingBlock: KIFKEQ_clean_linker_1, # of connection points: 2
#     Edge 72, Type (0, 0), BuildingBlock: KIFKEQ_clean_linker_1, # of connection points: 2
#     Edge 73, Type (0, 0), BuildingBlock: KIFKEQ_clean_linker_1, # of connection points: 2
#     Edge 74, Type (0, 0), BuildingBlock: KIFKEQ_clean_linker_1, # of connection points: 2
#     Edge 75, Type (0, 0), BuildingBlock: KIFKEQ_clean_linker_1, # of connection points: 2
#     Edge 76, Type (0, 0), BuildingBlock: KIFKEQ_clean_linker_1, # of connection points: 2
#     Edge 77, Type (0, 0), BuildingBlock: KIFKEQ_clean_linker_1, # of connection points: 2
#     Edge 78, Type (0, 0), BuildingBlock: KIFKEQ_clean_linker_1, # of connection points: 2
#     Edge 79, Type (0, 0), BuildingBlock: KIFKEQ_clean_linker_1, # of connection points: 2
#     Edge 80, Type (0, 0), BuildingBlock: KIFKEQ_clean_linker_1, # of connection points: 2
#     Edge 81, Type (0, 0), BuildingBlock: KIFKEQ_clean_linker_1, # of connection points: 2
#     Edge 82, Type (0, 0), BuildingBlock: KIFKEQ_clean_linker_1, # of connection points: 2
#     Edge 83, Type (0, 0), BuildingBlock: KIFKEQ_clean_linker_1, # of connection points: 2
#     Edge 84, Type (0, 0), BuildingBlock: KIFKEQ_clean_linker_1, # of connection points: 2
#     Edge 85, Type (0, 0), BuildingBlock: KIFKEQ_clean_linker_1, # of connection points: 2
#     Edge 86, Type (0, 0), BuildingBlock: KIFKEQ_clean_linker_1, # of connection points: 2
#     Edge 87, Type (0, 0), BuildingBlock: KIFKEQ_clean_linker_1, # of connection points: 2
#     Edge 88, Type (0, 0), BuildingBlock: KIFKEQ_clean_linker_1, # of connection points: 2
#     Edge 89, Type (0, 0), BuildingBlock: KIFKEQ_clean_linker_1, # of connection points: 2
#     Edge 90, Type (0, 0), BuildingBlock: KIFKEQ_clean_linker_1, # of connection points: 2
#     Edge 91, Type (0, 0), BuildingBlock: KIFKEQ_clean_linker_1, # of connection points: 2
#     Edge 92, Type (0, 0), BuildingBlock: KIFKEQ_clean_linker_1, # of connection points: 2
#     Edge 93, Type (0, 0), BuildingBlock: KIFKEQ_clean_linker_1, # of connection points: 2
#     Edge 94, Type (0, 0), BuildingBlock: KIFKEQ_clean_linker_1, # of connection points: 2
#     Edge 95, Type (0, 0), BuildingBlock: KIFKEQ_clean_linker_1, # of connection points: 2
#     Edge 96, Type (0, 0), BuildingBlock: KIFKEQ_clean_linker_1, # of connection points: 2
#     Edge 97, Type (0, 0), BuildingBlock: KIFKEQ_clean_linker_1, # of connection points: 2
#     Edge 98, Type (0, 0), BuildingBlock: KIFKEQ_clean_linker_1, # of connection points: 2
#     Edge 99, Type (0, 0), BuildingBlock: KIFKEQ_clean_linker_1, # of connection points: 2
#     Edge 100, Type (0, 0), BuildingBlock: KIFKEQ_clean_linker_1, # of connection points: 2
#     Edge 101, Type (0, 0), BuildingBlock: KIFKEQ_clean_linker_1, # of connection points: 2
#     Edge 102, Type (0, 0), BuildingBlock: KIFKEQ_clean_linker_1, # of connection points: 2
#     Edge 103, Type (0, 0), BuildingBlock: KIFKEQ_clean_linker_1, # of connection points: 2
#     Edge 104, Type (0, 0), BuildingBlock: KIFKEQ_clean_linker_1, # of connection points: 2
#     Edge 105, Type (0, 0), BuildingBlock: KIFKEQ_clean_linker_1, # of connection points: 2
#     Edge 106, Type (0, 0), BuildingBlock: KIFKEQ_clean_linker_1, # of connection points: 2
#     Edge 107, Type (0, 0), BuildingBlock: KIFKEQ_clean_linker_1, # of connection points: 2
#     Edge 108, Type (0, 0), BuildingBlock: KIFKEQ_clean_linker_1, # of connection points: 2
#     Edge 109, Type (0, 0), BuildingBlock: KIFKEQ_clean_linker_1, # of connection points: 2
#     Edge 110, Type (0, 0), BuildingBlock: KIFKEQ_clean_linker_1, # of connection points: 2
#     Edge 111, Type (0, 0), BuildingBlock: KIFKEQ_clean_linker_1, # of connection points: 2
#     Edge 112, Type (0, 0), BuildingBlock: KIFKEQ_clean_linker_1, # of connection points: 2
#     Edge 113, Type (0, 0), BuildingBlock: KIFKEQ_clean_linker_1, # of connection points: 2
#     Edge 114, Type (0, 0), BuildingBlock: KIFKEQ_clean_linker_1, # of connection points: 2
#     Edge 115, Type (0, 0), BuildingBlock: KIFKEQ_clean_linker_1, # of connection points: 2
#     Edge 116, Type (0, 0), BuildingBlock: KIFKEQ_clean_linker_1, # of connection points: 2
#     Edge 117, Type (0, 0), BuildingBlock: KIFKEQ_clean_linker_1, # of connection points: 2
#     Edge 118, Type (0, 0), BuildingBlock: KIFKEQ_clean_linker_1, # of connection points: 2
#     Edge 119, Type (0, 0), BuildingBlock: KIFKEQ_clean_linker_1, # of connection points: 2
#     Edge 120, Type (0, 0), BuildingBlock: KIFKEQ_clean_linker_1, # of connection points: 2
#     Edge 121, Type (0, 0), BuildingBlock: KIFKEQ_clean_linker_1, # of connection points: 2
#     Edge 122, Type (0, 0), BuildingBlock: KIFKEQ_clean_linker_1, # of connection points: 2
#     Edge 123, Type (0, 0), BuildingBlock: KIFKEQ_clean_linker_1, # of connection points: 2
#     Edge 124, Type (0, 0), BuildingBlock: KIFKEQ_clean_linker_1, # of connection points: 2
#     Edge 125, Type (0, 0), BuildingBlock: KIFKEQ_clean_linker_1, # of connection points: 2
# Relax obj value: 0.242
# Max RMSD: 0.184
# Mean RMSD: 0.184
data_MOF--net-wls--node1-XOMCOT_clean_sbu_0--edge1-KIFKEQ_clean_linker_1
_symmetry_space_group_name_H-M    P1
_symmetry_Int_Tables_number       1
_symmetry_cell_setting            triclinic
loop_
_symmetry_equiv_pos_as_xyz
'x, y, z'
_cell_length_a     78.258324
_cell_length_b     78.128289
_cell_length_c     37.561514
_cell_angle_alpha  89.868043
_cell_angle_beta   90.037384
_cell_angle_gamma 120.03731
loop_
_atom_site_label
_atom_site_type_symbol
_atom_site_fract_x
_atom_site_fract_y
_atom_site_fract_z
_atom_type_partial_charge
Co0 Co 0.26639 0.21913 0.07235 0.0
C1 C 0.25159 0.17567 0.06624 0.0
C2 C 0.27258 0.18933 0.10844 0.0
C3 C 0.26745 0.16972 0.10646 0.0
N4 N 0.2624 0.19305 0.08369 0.0
N5 N 0.25426 0.16107 0.07986 0.0
H6 H 0.24228 0.17376 0.04366 0.0
H7 H 0.28339 0.20029 0.1262 0.0
C8 C 0.25455 0.21373 0.15153 0.0
O9 O 0.24217 0.19519 0.14345 0.0
N10 N 0.27015 0.24451 0.05945 0.0
C11 C 0.26443 0.24855 0.0282 0.0
C12 C 0.26698 0.26718 0.02971 0.0
C13 C 0.27611 0.26066 0.07967 0.0
N14 N 0.27427 0.27473 0.06207 0.0
C15 C 0.22857 0.20081 0.03614 0.0
C16 C 0.21182 0.21652 0.08048 0.0
C17 C 0.20296 0.20927 0.0474 0.0
C18 C 0.21112 0.20055 0.02563 0.0
C19 C 0.2294 0.21716 0.08928 0.0
N20 N 0.23791 0.20951 0.06736 0.0
H21 H 0.23561 0.19592 1.01725 0.0
H22 H 0.23702 0.2261 0.11188 0.0
H23 H 0.25819 0.23838 1.00616 0.0
H24 H 0.28162 0.26206 0.10656 0.0
O25 O 0.27324 0.21641 1.02295 0.0
O26 O 0.29494 0.22926 0.06598 0.0
O27 O 0.2658 0.22538 0.12657 0.0
C28 C 0.29175 0.22515 0.03216 0.0
H29 H 0.27358 0.16259 0.12255 0.0
H30 H 0.26335 0.27443 1.0089 0.0
H31 H 0.20608 0.22316 0.09866 0.0
H32 H 0.20502 0.19492 0.99956 0.0
Co33 Co 0.80677 0.05149 0.07048 0.0
C34 C 0.85036 0.07986 0.06097 0.0
C35 C 0.83783 0.08578 0.10686 0.0
C36 C 0.85711 0.10064 0.10355 0.0
N37 N 0.83353 0.07257 0.08051 0.0
N38 N 0.86503 0.09703 0.07466 0.0
H39 H 0.8516 0.07358 0.03621 0.0
H40 H 0.82735 0.08506 0.1264 0.0
C41 C 0.81299 0.04302 0.14795 0.0
O42 O 0.83063 0.04715 0.13716 0.0
N43 N 0.78052 0.03125 0.06007 0.0
C44 C 0.77407 0.02019 0.03033 0.0
C45 C 0.75414 1.00734 0.03379 0.0
C46 C 0.76475 0.02523 0.08109 0.0
N47 N 0.7485 1.01057 0.0658 0.0
C48 C 0.8237 0.03065 0.03374 0.0
C49 C 0.80537 0.99724 0.07607 0.0
C50 C 0.81361 0.99589 0.04386 0.0
C51 C 0.82348 0.01321 1.02307 0.0
C52 C 0.80525 0.01447 0.08494 0.0
N53 N 0.81444 0.03117 0.06428 0.0
H54 H 0.82972 0.04305 1.01565 0.0
H55 H 0.7958 0.0133 0.10669 0.0
H56 H 0.78324 0.02136 1.00786 0.0
H57 H 0.76509 0.03168 0.10674 0.0
O58 O 0.80905 0.06089 1.02093 0.0
O59 O 0.79818 0.07127 0.06477 0.0
O60 O 0.80154 0.04485 0.1252 0.0
C61 C 0.80146 0.07165 0.03063 0.0
H62 H 0.86461 0.11344 0.12064 0.0
H63 H 0.74459 0.99639 1.01461 0.0
H64 H 0.79781 0.98461 0.09362 0.0
H65 H 0.82984 0.01301 0.99761 0.0
Co66 Co 0.97167 0.75903 0.07533 0.0
C67 C 0.9426 0.7734 0.06738 0.0
C68 C 0.93893 0.7576 0.11613 0.0
C69 C 0.92481 0.76318 0.11467 0.0
N70 N 0.95054 0.76449 0.08704 0.0
N71 N 0.92707 0.77309 0.08401 0.0
H72 H 0.94763 0.77956 0.0412 0.0
H73 H 0.94037 0.74875 0.1368 0.0
C74 C 0.98151 0.77374 0.15248 0.0
O75 O 0.97774 0.78763 0.14234 0.0
N76 N 0.99205 0.75344 0.06271 0.0
C77 C 1.00181 0.75803 0.03145 0.0
C78 C 0.01649 0.75334 0.03357 0.0
C79 C 1.00074 0.74601 0.08341 0.0
N80 N 0.01581 0.74588 0.06629 0.0
C81 C 0.99093 0.79753 0.04012 0.0
C82 C 0.02549 0.81259 0.079 0.0
C83 C 0.02523 0.82333 0.04934 0.0
C84 C 1.00747 0.81566 0.03005 0.0
C85 C 1.00887 0.7946 0.08783 0.0
N86 N 0.99159 0.78717 0.06899 0.0
H87 H 0.97822 0.79117 1.02292 0.0
H88 H 1.0108 0.78589 0.10799 0.0
H89 H 0.99879 0.76481 1.00901 0.0
H90 H 0.99657 0.74149 0.11075 0.0
O91 O 0.96166 0.75199 0.02627 0.0
O92 O 0.95203 0.7306 0.07011 0.0
O93 O 0.9792 0.76042 0.12946 0.0
C94 C 0.95126 0.73358 0.03608 0.0
H95 H 0.91329 0.75959 0.13412 0.0
H96 H 0.02686 0.75533 1.01272 0.0
H97 H 0.03896 0.81722 0.09388 0.0
H98 H 1.00656 0.82318 1.00649 0.0
Co99 Co 0.22595 0.2634 0.47453 0.0
C100 C 0.18246 0.24861 0.48276 0.0
C101 C 0.19444 0.26486 0.43437 0.0
C102 C 0.1747 0.25908 0.43597 0.0
N103 N 0.19929 0.25787 0.46319 0.0
N104 N 0.16713 0.24889 0.46641 0.0
H105 H 0.1814 0.24218 0.50869 0.0
H106 H 0.20468 0.2739 0.41381 0.0
C107 C 0.22039 0.24817 0.39754 0.0
O108 O 0.20271 0.23447 0.40791 0.0
N109 N 0.252 0.26899 0.48668 0.0
C110 C 0.25751 0.26497 0.51815 0.0
C111 C 0.27663 0.26893 0.51526 0.0
C112 C 0.26766 0.27533 0.46509 0.0
N113 N 0.2829 0.27533 0.48184 0.0
C114 C 0.20778 0.22589 0.51258 0.0
C115 C 0.22545 0.20935 0.47247 0.0
C116 C 0.21582 0.19975 0.50386 0.0
C117 C 0.2067 0.20815 0.5239 0.0
C118 C 0.22668 0.22719 0.46273 0.0
N119 N 0.21766 0.23531 0.48214 0.0
H120 H 0.2021 0.23282 0.52999 0.0
H121 H 0.23664 0.23523 0.44133 0.0
H122 H 0.24808 0.25899 0.54125 0.0
H123 H 0.26763 0.27908 0.43739 0.0
O124 O 0.22328 0.27109 0.5233 0.0
O125 O 0.23499 0.29193 0.47868 0.0
O126 O 0.23163 0.26145 0.42041 0.0
C127 C 0.23132 0.28938 0.51277 0.0
H128 H 0.16669 0.26277 0.41683 0.0
H129 H 0.28517 0.26711 0.53605 0.0
H130 H 0.23345 0.20398 0.45691 0.0
H131 H 0.19944 0.20148 0.54883 0.0
Co132 Co 0.76472 0.96807 0.47618 0.0
C133 C 0.78242 0.94234 0.49286 0.0
C134 C 0.77143 0.93873 0.43949 0.0
C135 C 0.77889 0.92626 0.44442 0.0
N136 N 0.77422 0.94942 0.46933 0.0
N137 N 0.78574 0.9285 0.47791 0.0
H138 H 0.78542 0.94671 0.52045 0.0
H139 H 0.76398 0.9395 0.41584 0.0
C140 C 0.78192 0.97953 0.40055 0.0
O141 O 0.79729 0.97917 0.41375 0.0
N142 N 0.75481 0.98564 0.48316 0.0
C143 C 0.75769 0.99744 0.5113 0.0
C144 C 0.74682 1.00666 0.50605 0.0
C145 C 0.74228 0.98753 0.46151 0.0
N146 N 0.73725 1.00036 0.47472 0.0
C147 C 0.80257 0.99169 0.51218 0.0
C148 C 0.81413 0.02547 0.47212 0.0
C149 C 0.82558 0.02689 0.50192 0.0
C150 C 0.81967 1.00946 0.52176 0.0
C151 C 0.79701 1.00774 0.46419 0.0
N152 N 0.79144 0.99084 0.48344 0.0
H153 H 0.79763 0.97904 0.52942 0.0
H154 H 0.78761 1.0081 0.44355 0.0
H155 H 0.76697 0.99915 0.53391 0.0
H156 H 0.7367 0.9794 0.43693 0.0
O157 O 0.75758 0.95946 0.52591 0.0
O158 O 0.73725 0.94573 0.48123 0.0
O159 O 0.76673 0.97417 0.42107 0.0
C160 C 0.73974 0.94683 0.51574 0.0
H161 H 0.77869 0.91583 0.42528 0.0
H162 H 0.74626 0.01737 0.52352 0.0
H163 H 0.81787 0.03816 0.45539 0.0
H164 H 0.82754 1.00968 0.54561 0.0
Co165 Co 0.05975 0.80352 0.47601 0.0
C166 C 0.08923 0.84712 0.48185 0.0
C167 C 0.09335 0.83363 0.43553 0.0
C168 C 0.10809 0.8531 0.43651 0.0
N169 N 0.08122 0.82984 0.46349 0.0
N170 N 0.10568 0.86171 0.46576 0.0
H171 H 0.08382 0.84879 0.50724 0.0
H172 H 0.09183 0.8228 0.41601 0.0
C173 C 0.05035 0.80837 0.39842 0.0
O174 O 0.05496 0.82638 0.40776 0.0
N175 N 0.03905 0.77778 0.48928 0.0
C176 C 0.02924 0.77279 0.52051 0.0
C177 C 1.0144 0.75342 0.51861 0.0
C178 C 0.03026 0.76159 0.46888 0.0
N179 N 1.01508 0.74649 0.48609 0.0
C180 C 0.04098 0.82292 0.51179 0.0
C181 C 1.00655 0.80422 0.47238 0.0
C182 C 1.00672 0.81459 0.5028 0.0
C183 C 0.02441 0.8243 0.52238 0.0
C184 C 0.02312 0.80292 0.46319 0.0
N185 N 0.04032 0.81232 0.48234 0.0
H186 H 0.05367 0.82898 0.52907 0.0
H187 H 0.02108 0.7925 0.44263 0.0
H188 H 0.03238 0.78269 0.54275 0.0
H189 H 0.03447 0.7611 0.44166 0.0
O190 O 0.07019 0.80666 0.5249 0.0
O191 O 0.07881 0.79408 0.48111 0.0
O192 O 0.05196 0.79716 0.42208 0.0
C193 C 0.08011 0.79819 0.51499 0.0
H194 H 0.1198 0.86022 0.41709 0.0
H195 H 1.00394 0.74513 0.53946 0.0
H196 H 0.99312 0.79569 0.45721 0.0
H197 H 0.02522 0.83223 0.54651 0.0
Co198 Co 0.763 0.79978 0.97027 0.0
C199 C 0.77807 0.84334 0.97809 0.0
C200 C 0.76263 0.83162 0.92902 0.0
C201 C 0.76872 0.85148 0.93035 0.0
N202 N 0.7689 0.82653 0.95849 0.0
N203 N 0.77841 0.85887 0.96122 0.0
H204 H 0.78402 0.84423 1.00438 0.0
H205 H 0.75385 0.82149 0.90817 0.0
C206 C 0.77842 0.80466 0.89327 0.0
O207 O 0.79293 0.82198 0.90338 0.0
N208 N 0.75714 0.77362 0.98282 0.0
C209 C 0.76068 0.76806 1.0147 0.0
C210 C 0.75719 0.74907 1.01199 0.0
C211 C 0.75156 0.7581 0.96118 0.0
N212 N 0.7516 0.74293 0.97827 0.0
C213 C 0.8003 0.81777 1.00845 0.0
C214 C 0.81665 0.79959 0.96929 0.0
C215 C 0.82616 0.80935 1.00058 0.0
C216 C 0.81787 0.81871 1.02014 0.0
C217 C 0.79895 0.79851 0.95919 0.0
N218 N 0.79095 0.8078 0.9781 0.0
H219 H 0.79342 0.82364 0.02556 0.0
H220 H 0.79092 0.7885 0.93788 0.0
H221 H 0.76616 0.77743 0.03793 0.0
H222 H 0.74846 0.75823 0.93317 0.0
O223 O 0.75531 0.80263 1.01894 0.0
O224 O 0.73458 0.79101 0.97428 0.0
O225 O 0.76483 0.79401 0.91621 0.0
C226 C 0.73707 0.79465 1.00836 0.0
H227 H 0.76558 0.85969 0.9107 0.0
H228 H 0.75886 0.74056 0.03309 0.0
H229 H 0.82196 0.79141 0.95411 0.0
H230 H 0.82447 0.82605 0.045 0.0
Co231 Co 0.22163 0.96755 0.97823 0.0
C232 C 0.17837 0.93895 0.98587 0.0
C233 C 0.18952 0.93845 0.93389 0.0
C234 C 0.16984 0.92434 0.93519 0.0
N235 N 0.19492 0.94766 0.96555 0.0
N236 N 0.16275 0.92449 0.9679 0.0
H237 H 0.17795 0.94269 1.01347 0.0
H238 H 0.1993 0.94144 0.91151 0.0
C239 C 0.2392 0.99379 0.91085 0.0
O240 O 0.24866 1.00887 0.93247 0.0
N241 N 0.24824 0.98668 0.99103 0.0
C242 C 0.25545 0.99655 1.02194 0.0
C243 C 0.27571 1.00541 1.02138 0.0
C244 C 0.26404 0.989 0.97297 0.0
N245 N 0.28088 1.00064 0.99042 0.0
C246 C 0.21255 0.99196 1.02236 0.0
C247 C 0.20841 0.01379 0.96874 0.0
C248 C 0.21114 0.02103 1.00378 0.0
C249 C 0.21211 1.00916 0.03091 0.0
C250 C 0.20877 0.99631 0.96146 0.0
N251 N 0.2129 0.98678 0.98778 0.0
H252 H 0.21391 0.98352 0.04379 0.0
H253 H 0.20646 0.991 0.93443 0.0
H254 H 0.24687 0.99656 0.04432 0.0
H255 H 0.26317 0.98176 0.94795 0.0
O256 O 0.21831 0.95597 0.02613 0.0
O257 O 0.2298 0.94723 0.98092 0.0
O258 O 0.22764 0.97638 0.92434 0.0
C259 C 0.22605 0.94564 1.01504 0.0
H260 H 0.16144 0.91465 0.91354 0.0
H261 H 0.28582 0.01446 0.04208 0.0
H262 H 0.20644 0.02176 0.94699 0.0
H263 H 0.21371 0.01364 0.05852 0.0
Co264 Co 0.05791 0.25993 0.9821 0.0
C265 C 0.08724 0.24659 0.98702 0.0
C266 C 0.08763 0.25882 0.93557 0.0
C267 C 0.1013 0.25259 0.93577 0.0
N268 N 0.07877 0.25497 0.96763 0.0
N269 N 0.10108 0.24491 0.96812 0.0
H270 H 0.08319 0.24164 1.01424 0.0
H271 H 0.08447 0.26576 0.91357 0.0
C272 C 0.03102 0.25031 0.91522 0.0
O273 O 0.0157 0.243 0.93667 0.0
N274 N 0.03747 0.26505 0.99765 0.0
C275 C 0.02815 0.26072 0.0295 0.0
C276 C 0.01563 0.26828 0.03028 0.0
C277 C 0.03135 0.27607 0.98045 0.0
N278 N 0.01759 0.27762 0.99921 0.0
C279 C 0.03656 0.22521 0.02572 0.0
C280 C 1.01306 0.20019 0.97253 0.0
C281 C 1.00663 0.19533 1.00802 0.0
C282 C 0.01965 0.20739 0.03476 0.0
C283 C 0.03046 0.21803 0.96482 0.0
N284 N 0.04044 0.23143 0.99117 0.0
H285 H 0.04564 0.2347 0.04692 0.0
H286 H 0.03508 0.22138 0.93746 0.0
H287 H 0.03049 0.25312 0.05125 0.0
H288 H 0.03666 0.28266 0.95451 0.0
O289 O 0.07004 0.26851 0.02948 0.0
O290 O 0.07657 0.28879 0.98461 0.0
O291 O 0.04854 0.2572 0.92869 0.0
C292 C 0.07909 0.28672 1.01838 0.0
H293 H 0.11097 0.25403 0.91397 0.0
H294 H 1.00561 0.26671 0.05154 0.0
H295 H 1.00427 0.19101 0.95066 0.0
H296 H 0.01635 0.20369 0.06264 0.0
Co297 Co 0.80994 0.76176 0.56632 0.0
C298 C 0.85288 0.77504 0.56196 0.0
C299 C 0.83977 0.76001 0.61101 0.0
C300 C 0.85938 0.76519 0.6109 0.0
N301 N 0.83568 0.76618 0.58042 0.0
N302 N 0.8677 0.77459 0.58001 0.0
H303 H 0.85434 0.78123 0.53559 0.0
H304 H 0.82918 0.75208 0.63187 0.0
C305 C 0.79294 0.77117 0.6333 0.0
O306 O 0.78511 0.77864 0.61175 0.0
N307 N 0.78432 0.75692 0.5514 0.0
C308 C 0.77915 0.76153 0.52001 0.0
C309 C 0.75903 0.75321 0.51895 0.0
C310 C 0.76718 0.74493 0.56796 0.0
N311 N 0.7516 0.74288 0.54922 0.0
C312 C 0.82249 0.79708 0.52461 0.0
C313 C 0.8273 0.82199 0.58035 0.0
C314 C 0.82474 0.82755 0.54592 0.0
C315 C 0.82357 0.81522 0.51764 0.0
C316 C 0.82592 0.80353 0.586 0.0
N317 N 0.82118 0.7904 0.55864 0.0
H318 H 0.8212 0.78776 0.50243 0.0
H319 H 0.82775 0.79958 0.61268 0.0
H320 H 0.7889 0.76938 0.49824 0.0
H321 H 0.76622 0.73801 0.59343 0.0
O322 O 0.81333 0.75361 0.5184 0.0
O323 O 0.79953 0.73293 0.56274 0.0
O324 O 0.80342 0.7641 0.61991 0.0
C325 C 0.80406 0.73529 0.52896 0.0
H326 H 0.86689 0.76227 0.63219 0.0
H327 H 0.75052 0.75419 0.49714 0.0
H328 H 0.82976 0.83149 0.60298 0.0
H329 H 0.82226 0.81878 0.49031 0.0
Co330 Co 0.26786 0.05479 0.57396 0.0
C331 C 0.25289 0.08344 0.56651 0.0
C332 C 0.26792 0.08654 0.61587 0.0
C333 C 0.26197 0.10039 0.61479 0.0
N334 N 0.26178 0.07547 0.5861 0.0
N335 N 0.25252 0.0985 0.58376 0.0
H336 H 0.24717 0.07875 0.53999 0.0
H337 H 0.27656 0.08497 0.63675 0.0
C338 C 0.25288 0.0437 0.65118 0.0
O339 O 0.23818 0.04623 0.64123 0.0
N340 N 0.27403 0.03483 0.56108 0.0
C341 C 0.26966 0.02513 0.5298 0.0
C342 C 0.27476 1.01072 0.53186 0.0
C343 C 0.28176 0.02641 0.5817 0.0
N344 N 0.28227 0.01154 0.56455 0.0
C345 C 0.22961 0.03507 0.53832 0.0
C346 C 0.21505 1.00016 0.57634 0.0
C347 C 0.20445 1.00037 0.54651 0.0
C348 C 0.21186 0.01827 0.5276 0.0
C349 C 0.23275 0.01699 0.58564 0.0
N350 N 0.23991 0.03444 0.56727 0.0
H351 H 0.23579 0.04799 0.52151 0.0
H352 H 0.24149 0.01515 0.6058 0.0
H353 H 0.26273 0.02799 0.50742 0.0
H354 H 0.28619 0.03057 0.60904 0.0
O355 O 0.27492 0.06524 0.52498 0.0
O356 O 0.29616 0.07479 0.56884 0.0
O357 O 0.26657 0.04713 0.62811 0.0
C358 C 0.29327 0.07576 0.53484 0.0
H359 H 0.26499 0.11151 0.63481 0.0
H360 H 0.27298 1.00041 0.51103 0.0
H361 H 0.21056 0.98658 0.59094 0.0
H362 H 0.20443 0.01911 0.5039 0.0
Co363 Co 0.97477 0.22163 0.57708 0.0
C364 C 0.94661 0.17814 0.56737 0.0
C365 C 0.94248 0.18916 0.61693 0.0
C366 C 0.92866 0.16938 0.61458 0.0
N367 N 0.95415 0.19464 0.58786 0.0
N368 N 0.93119 0.16243 0.58341 0.0
H369 H 0.95185 0.17767 0.54101 0.0
H370 H 0.94356 0.19902 0.63808 0.0
C371 C 0.98434 0.21653 0.65465 0.0
O372 O 0.98199 0.19939 0.64449 0.0
N373 N 0.9948 0.24805 0.5654 0.0
C374 C 1.00422 0.25388 0.53386 0.0
C375 C 0.0195 0.27294 0.5371 0.0
C376 C 1.00433 0.2635 0.58738 0.0
N377 N 0.01958 0.27886 0.57081 0.0
C378 C 0.99579 0.20485 0.54022 0.0
C379 C 0.02946 0.22396 0.58142 0.0
C380 C 0.03067 0.21536 0.54955 0.0
C381 C 1.01322 0.20515 0.52931 0.0
C382 C 1.01221 0.22396 0.59052 0.0
N383 N 0.99536 0.21436 0.57048 0.0
H384 H 0.98324 0.19847 0.52255 0.0
H385 H 1.01338 0.23351 0.61209 0.0
H386 H 1.00075 0.24464 0.51053 0.0
H387 H 1.0008 0.26318 0.61528 0.0
O388 O 0.96487 0.21888 0.52789 0.0
O389 O 0.95473 0.2298 0.57211 0.0
O390 O 0.98148 0.22717 0.6315 0.0
C391 C 0.95413 0.22641 0.53801 0.0
H392 H 0.91706 0.16094 0.63366 0.0
H393 H 0.02985 0.28164 0.51638 0.0
H394 H 0.04215 0.23178 0.59863 0.0
H395 H 1.01328 0.19849 0.5041 0.0
Co396 Co 0.93213 0.55467 0.40618 0.0
C397 C 0.91712 0.51105 0.40098 0.0
C398 C 0.93551 0.52428 0.44666 0.0
C399 C 0.92968 0.50447 0.44623 0.0
N400 N 0.92728 0.52839 0.4188 0.0
N401 N 0.91815 0.49613 0.41749 0.0
H402 H 0.90944 0.50935 0.37621 0.0
H403 H 0.94536 0.53506 0.46575 0.0
C404 C 0.9181 0.54975 0.48368 0.0
O405 O 0.90473 0.53177 0.47413 0.0
N406 N 0.93684 0.58026 0.3924 0.0
C407 C 0.93163 0.58449 0.36079 0.0
C408 C 0.9349 0.60342 0.36187 0.0
C409 C 0.9432 0.59654 0.41236 0.0
N410 N 0.94208 0.61089 0.39431 0.0
C411 C 0.89421 0.53628 0.36938 0.0
C412 C 0.87833 0.554 0.41092 0.0
C413 C 0.86896 0.54559 0.37867 0.0
C414 C 0.87679 0.53599 0.35829 0.0
C415 C 0.89591 0.55474 0.42005 0.0
N416 N 0.90385 0.54585 0.39986 0.0
H417 H 0.9009 0.53052 0.35152 0.0
H418 H 0.90398 0.56456 0.44147 0.0
H419 H 0.92523 0.57426 0.33887 0.0
H420 H 0.94844 0.59782 0.43942 0.0
O421 O 0.93942 0.55142 0.35733 0.0
O422 O 0.96064 0.56417 0.40106 0.0
O423 O 0.93093 0.56108 0.46017 0.0
C424 C 0.95782 0.55997 0.36722 0.0
H425 H 0.9342 0.49693 0.46492 0.0
H426 H 0.93181 0.61092 0.34074 0.0
H427 H 0.87296 0.56135 0.42819 0.0
H428 H 0.87037 0.52948 0.33283 0.0
Co429 Co 0.47265 0.38514 0.40281 0.0
C430 C 0.51575 0.4158 0.39873 0.0
C431 C 0.50084 0.42047 0.44221 0.0
C432 C 0.52013 0.43567 0.44162 0.0
N433 N 0.49808 0.40778 0.41572 0.0
N434 N 0.52962 0.43289 0.41414 0.0
H435 H 0.51824 0.40976 0.3748 0.0
H436 H 0.48947 0.41892 0.46047 0.0
C437 C 0.47784 0.37707 0.48114 0.0
O438 O 0.49637 0.3835 0.47272 0.0
N439 N 0.44789 0.36309 0.38872 0.0
C440 C 0.44437 0.35367 0.35723 0.0
C441 C 0.42581 0.3374 0.35804 0.0
C442 C 0.43157 0.35254 0.40834 0.0
N443 N 0.41786 0.3367 0.39021 0.0
C444 C 0.49319 0.36835 0.36544 0.0
C445 C 0.478 0.33439 0.4064 0.0
C446 C 0.48686 0.33471 0.37396 0.0
C447 C 0.4949 0.35216 0.35363 0.0
C448 C 0.476 0.35047 0.41656 0.0
N449 N 0.48354 0.3674 0.39643 0.0
H450 H 0.49788 0.38081 0.34774 0.0
H451 H 0.46625 0.34795 0.43854 0.0
H452 H 0.45478 0.35806 0.33547 0.0
H453 H 0.42974 0.35642 0.43513 0.0
O454 O 0.47547 0.3958 0.35406 0.0
O455 O 0.46128 0.40263 0.39762 0.0
O456 O 0.46615 0.37697 0.4566 0.0
C457 C 0.46586 0.4046 0.3639 0.0
H458 H 0.52652 0.4479 0.46011 0.0
H459 H 0.41884 0.32675 0.33686 0.0
H460 H 0.47089 0.32102 0.42233 0.0
H461 H 0.50158 0.35294 0.32799 0.0
Co462 Co 0.64064 0.096 0.39832 0.0
C463 C 0.61181 0.11014 0.39209 0.0
C464 C 0.6126 0.10007 0.44498 0.0
C465 C 0.59921 0.10665 0.44426 0.0
N466 N 0.62058 0.10235 0.41234 0.0
N467 N 0.59867 0.11296 0.41103 0.0
H468 H 0.6151 0.11381 0.3642 0.0
H469 H 0.61608 0.09391 0.46778 0.0
C470 C 0.66647 0.10234 0.46534 0.0
O471 O 0.68145 0.10743 0.44372 0.0
N472 N 0.66013 0.08941 0.38329 0.0
C473 C 0.67071 0.09455 0.35278 0.0
C474 C 0.67941 0.08317 0.34908 0.0
C475 C 0.66196 0.0745 0.39688 0.0
N476 N 0.6738 0.07056 0.37678 0.0
C477 C 0.6643 0.13151 0.35692 0.0
C478 C 0.68703 0.1547 0.41262 0.0
C479 C 0.69405 0.16059 0.37778 0.0
C480 C 0.6817 0.14938 0.34967 0.0
C481 C 0.66937 0.13688 0.41853 0.0
N482 N 0.65953 0.1244 0.39091 0.0
H483 H 0.65553 0.12264 0.33482 0.0
H484 H 0.66422 0.13295 0.44552 0.0
H485 H 0.67114 0.10471 0.33297 0.0
H486 H 0.65449 0.06657 0.42084 0.0
O487 O 0.62898 0.08833 0.35021 0.0
O488 O 0.62071 0.06753 0.39467 0.0
O489 O 0.64935 0.09757 0.45193 0.0
C490 C 0.61893 0.07003 0.3608 0.0
H491 H 0.59019 0.10632 0.46638 0.0
H492 H 0.68845 0.08357 0.32693 0.0
H493 H 0.69542 0.16349 0.43521 0.0
H494 H 0.68607 0.15361 0.32226 0.0
Co495 Co 0.88954 0.59445 0.8111 0.0
C496 C 0.84575 0.57942 0.81647 0.0
C497 C 0.85973 0.59875 0.77205 0.0
C498 C 0.84024 0.59377 0.77276 0.0
N499 N 0.86325 0.58955 0.79899 0.0
N500 N 0.83133 0.5817 0.80083 0.0
H501 H 0.84378 0.57132 0.84089 0.0
H502 H 0.87076 0.60878 0.75343 0.0
C503 C 0.88459 0.58101 0.73338 0.0
O504 O 0.86668 0.56753 0.74307 0.0
N505 N 0.91527 0.59948 0.82397 0.0
C506 C 0.92002 0.59406 0.85486 0.0
C507 C 0.93945 0.59895 0.85333 0.0
C508 C 0.93167 0.60754 0.80404 0.0
N509 N 0.94663 0.6073 0.82134 0.0
C510 C 0.8712 0.55592 0.84628 0.0
C511 C 0.8897 0.54103 0.80431 0.0
C512 C 0.88094 0.53102 0.836 0.0
C513 C 0.87096 0.53837 0.85658 0.0
C514 C 0.89035 0.55869 0.79595 0.0
N515 N 0.88108 0.56615 0.81638 0.0
H516 H 0.86505 0.5622 0.86423 0.0
H517 H 0.90029 0.56721 0.7749 0.0
H518 H 0.90993 0.58669 0.87665 0.0
H519 H 0.93265 0.61348 0.77759 0.0
O520 O 0.88642 0.60108 0.86044 0.0
O521 O 0.89859 0.62286 0.81725 0.0
O522 O 0.89587 0.5938 0.75689 0.0
C523 C 0.89461 0.6196 0.85114 0.0
H524 H 0.83329 0.59889 0.75398 0.0
H525 H 0.94755 0.59622 0.87379 0.0
H526 H 0.89734 0.53605 0.78687 0.0
H527 H 0.86415 0.53145 0.88163 0.0
Co528 Co 0.43073 0.3028 0.80737 0.0
C529 C 0.44713 0.27577 0.81964 0.0
C530 C 0.42951 0.26862 0.77233 0.0
C531 C 0.43549 0.25488 0.77661 0.0
N532 N 0.43713 0.28202 0.79883 0.0
N533 N 0.44654 0.2594 0.80627 0.0
H534 H 0.45406 0.28244 0.84461 0.0
H535 H 0.41979 0.26854 0.75177 0.0
C536 C 0.44488 0.31021 0.72943 0.0
O537 O 0.45871 0.30648 0.73999 0.0
N538 N 0.42434 0.32299 0.81705 0.0
C539 C 0.42817 0.33312 0.8478 0.0
C540 C 0.42371 0.34787 0.8435 0.0
C541 C 0.41761 0.33158 0.79445 0.0
N542 N 0.41719 0.34692 0.80993 0.0
C543 C 0.46796 0.32464 0.84505 0.0
C544 C 0.48345 0.35727 0.80077 0.0
C545 C 0.49264 0.35921 0.83373 0.0
C546 C 0.48496 0.34227 0.85556 0.0
C547 C 0.46627 0.33981 0.79198 0.0
N548 N 0.45856 0.3235 0.81366 0.0
H549 H 0.4614 0.31259 0.86387 0.0
H550 H 0.45832 0.34052 0.76923 0.0
H551 H 0.43435 0.33036 0.87139 0.0
H552 H 0.41381 0.3272 0.76699 0.0
O553 O 0.42367 0.29384 0.85698 0.0
O554 O 0.40252 0.28259 0.81289 0.0
O555 O 0.43198 0.3088 0.75257 0.0
C556 C 0.40542 0.28267 0.84712 0.0
H557 H 0.4315 0.24215 0.75991 0.0
H558 H 0.42521 0.3585 0.86349 0.0
H559 H 0.48873 0.36957 0.78238 0.0
H560 H 0.49113 0.34291 0.88164 0.0
Co561 Co 0.72545 0.13366 0.80278 0.0
C562 C 0.75356 0.17727 0.8108 0.0
C563 C 0.75794 0.16562 0.76222 0.0
C564 C 0.77164 0.18549 0.76382 0.0
N565 N 0.7462 0.16048 0.79117 0.0
N566 N 0.76894 0.19284 0.79438 0.0
H567 H 0.7482 0.17809 0.83684 0.0
H568 H 0.75692 0.15551 0.74162 0.0
C569 C 0.71575 0.13821 0.72494 0.0
O570 O 0.71851 0.15556 0.73469 0.0
N571 N 0.70528 0.10746 0.81541 0.0
C572 C 0.69616 0.10204 0.84727 0.0
C573 C 0.6807 0.08303 0.84481 0.0
C574 C 0.69536 0.09183 0.79398 0.0
N575 N 0.68017 0.07673 0.81123 0.0
C576 C 0.70486 0.1514 0.83821 0.0
C577 C 0.67101 0.13181 0.79754 0.0
C578 C 0.67017 0.14136 0.82839 0.0
C579 C 0.68766 0.15178 0.84837 0.0
C580 C 0.68811 0.13139 0.78895 0.0
N581 N 0.70504 0.14124 0.8087 0.0
H582 H 0.71738 0.15785 0.85589 0.0
H583 H 0.68675 0.12139 0.76808 0.0
H584 H 0.69997 0.11153 0.87032 0.0
H585 H 0.69858 0.09185 0.766 0.0
O586 O 0.73549 0.13686 0.85204 0.0
O587 O 0.74532 0.12527 0.80849 0.0
O588 O 0.71851 0.12761 0.74839 0.0
C589 C 0.74603 0.129 0.84247 0.0
H590 H 0.78325 0.19373 0.74464 0.0
H591 H 0.67055 0.07464 0.86598 0.0
H592 H 0.65813 0.12363 0.78088 0.0
H593 H 0.68776 0.15908 0.87289 0.0
Co594 Co 0.43113 0.13704 0.30698 0.0
C595 C 0.44663 0.18073 0.31201 0.0
C596 C 0.42855 0.16773 0.26591 0.0
C597 C 0.43465 0.18761 0.26627 0.0
N598 N 0.43642 0.16343 0.29408 0.0
N599 N 0.44599 0.1958 0.29529 0.0
H600 H 0.4541 0.18232 0.33698 0.0
H601 H 0.41876 0.15705 0.24664 0.0
C602 C 0.4444 0.14088 0.22873 0.0
O603 O 0.4585 0.1587 0.23748 0.0
N604 N 0.42601 0.11137 0.32111 0.0
C605 C 0.43141 0.10721 0.3526 0.0
C606 C 0.42727 0.08798 0.35211 0.0
C607 C 0.41869 0.09477 0.3018 0.0
N608 N 0.41937 0.08027 0.32016 0.0
C609 C 0.46957 0.15537 0.34208 0.0
C610 C 0.48412 0.13619 0.30108 0.0
C611 C 0.49418 0.14527 0.33246 0.0
C612 C 0.48704 0.15558 0.35253 0.0
C613 C 0.46662 0.13575 0.2924 0.0
N614 N 0.45934 0.14534 0.31235 0.0
H615 H 0.46335 0.16162 0.3599 0.0
H616 H 0.45804 0.12565 0.27164 0.0
H617 H 0.43844 0.11764 0.37404 0.0
H618 H 0.41308 0.09336 0.27499 0.0
O619 O 0.42445 0.14073 0.35609 0.0
O620 O 0.40278 0.12807 0.31306 0.0
O621 O 0.43163 0.13018 0.25292 0.0
C622 C 0.40596 0.13235 0.34684 0.0
H623 H 0.43051 0.19532 0.24726 0.0
H624 H 0.43027 0.08042 0.37326 0.0
H625 H 0.48893 0.12817 0.28425 0.0
H626 H 0.49402 0.16257 0.37739 0.0
Co627 Co 0.89238 0.3043 0.31365 0.0
C628 C 0.84874 0.2759 0.31977 0.0
C629 C 0.86277 0.26812 0.27888 0.0
C630 C 0.84345 0.25316 0.28192 0.0
N631 N 0.86617 0.28246 0.30245 0.0
N632 N 0.83461 0.25801 0.3076 0.0
H633 H 0.84666 0.28332 0.34214 0.0
H634 H 0.87387 0.26817 0.26169 0.0
C635 C 0.88637 0.31152 0.23552 0.0
O636 O 0.86813 0.30582 0.24504 0.0
N637 N 0.91802 0.32554 0.32612 0.0
C638 C 0.92303 0.3344 0.35825 0.0
C639 C 0.94209 0.3498 0.35666 0.0
C640 C 0.9339 0.3357 0.30523 0.0
N641 N 0.94874 0.35059 0.32332 0.0
C642 C 0.87472 0.3242 0.35098 0.0
C643 C 0.89053 0.35689 0.30679 0.0
C644 C 0.88322 0.35846 0.33987 0.0
C645 C 0.87454 0.34146 0.36163 0.0
C646 C 0.89121 0.33994 0.298 0.0
N647 N 0.88332 0.32359 0.31962 0.0
H648 H 0.86964 0.3121 0.36965 0.0
H649 H 0.90023 0.34132 0.27547 0.0
H650 H 0.91336 0.33021 0.38112 0.0
H651 H 0.93467 0.33229 0.27758 0.0
O652 O 0.88962 0.29421 0.36284 0.0
O653 O 0.90222 0.28556 0.31917 0.0
O654 O 0.89822 0.31128 0.25934 0.0
C655 C 0.89816 0.28434 0.35306 0.0
H656 H 0.83655 0.23948 0.26703 0.0
H657 H 0.95033 0.35983 0.37804 0.0
H658 H 0.89709 0.36924 0.28843 0.0
H659 H 0.86887 0.34182 0.38772 0.0
Co660 Co 0.72305 0.59544 0.3065 0.0
C661 C 0.75099 0.57964 0.3138 0.0
C662 C 0.75566 0.5965 0.26606 0.0
C663 C 0.76928 0.59027 0.26713 0.0
N664 N 0.74377 0.58942 0.29477 0.0
N665 N 0.7664 0.57969 0.29717 0.0
H666 H 0.74554 0.57302 0.33956 0.0
H667 H 0.75473 0.60591 0.24592 0.0
C668 C 0.71333 0.58067 0.22942 0.0
O669 O 0.7167 0.56656 0.23985 0.0
N670 N 0.70302 0.60159 0.31891 0.0
C671 C 0.69339 0.59749 0.35027 0.0
C672 C 0.67875 0.60224 0.34766 0.0
C673 C 0.69431 0.60878 0.2977 0.0
N674 N 0.67934 0.60923 0.31455 0.0
C675 C 0.70309 0.55761 0.34359 0.0
C676 C 0.66872 0.54227 0.30408 0.0
C677 C 0.66859 0.53218 0.33499 0.0
C678 C 0.68623 0.53997 0.35463 0.0
C679 C 0.68561 0.5599 0.29444 0.0
N680 N 0.70279 0.56746 0.31362 0.0
H681 H 0.71577 0.56412 0.3609 0.0
H682 H 0.68394 0.56828 0.27332 0.0
H683 H 0.69642 0.59096 0.37307 0.0
H684 H 0.69832 0.61284 0.27015 0.0
O685 O 0.73341 0.60266 0.35538 0.0
O686 O 0.743 0.62379 0.31115 0.0
O687 O 0.71557 0.59398 0.25239 0.0
C688 C 0.74399 0.62098 0.34518 0.0
H689 H 0.78096 0.59393 0.24798 0.0
H690 H 0.66843 0.60054 0.36841 0.0
H691 H 0.65534 0.53747 0.2888 0.0
H692 H 0.68681 0.53294 0.37912 0.0
Co693 Co 0.47548 0.09452 0.90357 0.0
C694 C 0.51857 0.10949 0.89274 0.0
C695 C 0.5098 0.10236 0.94738 0.0
C696 C 0.52971 0.10909 0.94487 0.0
N697 N 0.50277 0.1027 0.91481 0.0
N698 N 0.53531 0.11357 0.91055 0.0
H699 H 0.51785 0.11142 0.86435 0.0
H700 H 0.50107 0.09727 0.97143 0.0
C701 C 0.45851 0.10349 0.97092 0.0
O702 O 0.44888 0.10888 0.94919 0.0
N703 N 0.44838 0.08577 0.89222 0.0
C704 C 0.4403 0.08715 0.86126 0.0
C705 C 0.42015 0.07519 0.86329 0.0
C706 C 0.43316 0.07243 0.9118 0.0
N707 N 0.41588 0.06614 0.89519 0.0
C708 C 0.48191 0.12729 0.85911 0.0
C709 C 0.48888 0.15415 0.91255 0.0
C710 C 0.4847 0.15832 0.87818 0.0
C711 C 0.48215 0.14491 0.85102 0.0
C712 C 0.48844 0.13622 0.91942 0.0
N713 N 0.48307 0.1222 0.89345 0.0
H714 H 0.47985 0.1173 0.83765 0.0
H715 H 0.49178 0.13345 0.94597 0.0
H716 H 0.44823 0.09519 0.83789 0.0
H717 H 0.43475 0.06692 0.93732 0.0
O718 O 0.47841 0.08621 0.85558 0.0
O719 O 0.46831 0.06628 0.90153 0.0
O720 O 0.46997 0.09755 0.95754 0.0
C721 C 0.47137 0.06825 0.86718 0.0
H722 H 0.53923 0.11002 0.96659 0.0
H723 H 0.40949 0.07317 0.84295 0.0
H724 H 0.49213 0.16447 0.93417 0.0
H725 H 0.4794 0.1474 0.8238 0.0
Co726 Co 0.93245 0.38578 0.90743 0.0
C727 C 0.91582 0.41302 0.89913 0.0
C728 C 0.93245 0.41803 0.94719 0.0
C729 C 0.92582 0.43134 0.94578 0.0
N730 N 0.92579 0.40614 0.91849 0.0
N731 N 0.91538 0.42825 0.91556 0.0
H732 H 0.90936 0.40739 0.87335 0.0
H733 H 0.94184 0.41732 0.96758 0.0
C734 C 0.91717 0.37558 0.98424 0.0
O735 O 0.9029 0.37856 0.97337 0.0
N736 N 0.93918 0.36612 0.89571 0.0
C737 C 0.93584 0.3567 0.86422 0.0
C738 C 0.94199 0.34309 0.86669 0.0
C739 C 0.94714 0.35819 0.91697 0.0
N740 N 0.94891 0.34406 0.89988 0.0
C741 C 0.89487 0.36457 0.86984 0.0
C742 C 0.88041 0.33066 0.91066 0.0
C743 C 0.87066 0.32954 0.87874 0.0
C744 C 0.87783 0.34709 0.85867 0.0
C745 C 0.89758 0.34796 0.91999 0.0
N746 N 0.90472 0.36495 0.90022 0.0
H747 H 0.90105 0.3772 0.85225 0.0
H748 H 0.90599 0.34673 0.94146 0.0
H749 H 0.9291 0.35934 0.84128 0.0
H750 H 0.95164 0.36267 0.94421 0.0
O751 O 0.93975 0.39601 0.85839 0.0
O752 O 0.96066 0.40612 0.90284 0.0
O753 O 0.93094 0.37851 0.96177 0.0
C754 C 0.95799 0.40679 0.86867 0.0
H755 H 0.9291 0.44295 0.96486 0.0
H756 H 0.94112 0.33303 0.84607 0.0
H757 H 0.87558 0.31786 0.92769 0.0
H758 H 0.87118 0.34708 0.8334 0.0
Co759 Co 0.64094 0.5544 0.90146 0.0
C760 C 0.61077 0.51134 0.89709 0.0
C761 C 0.60625 0.52536 0.94223 0.0
C762 C 0.59158 0.50576 0.94184 0.0
N763 N 0.61861 0.52879 0.91469 0.0
N764 N 0.5944 0.49696 0.91339 0.0
H765 H 0.61656 0.50916 0.87255 0.0
H766 H 0.60764 0.53643 0.96107 0.0
C767 C 0.64911 0.54953 0.97971 0.0
O768 O 0.64346 0.53117 0.97102 0.0
N769 N 0.66276 0.57925 0.88682 0.0
C770 C 0.67194 0.58248 0.8551 0.0
C771 C 0.68872 0.60065 0.85573 0.0
C772 C 0.67397 0.59541 0.90641 0.0
N773 N 0.69001 0.6087 0.88802 0.0
C774 C 0.65831 0.53363 0.86598 0.0
C775 C 0.69218 0.55004 0.907 0.0
C776 C 0.69191 0.54015 0.87586 0.0
C777 C 0.67448 0.53154 0.8555 0.0
C778 C 0.67605 0.55216 0.91599 0.0
N779 N 0.65912 0.54393 0.89598 0.0
H780 H 0.64596 0.52857 0.84801 0.0
H781 H 0.67847 0.56246 0.93696 0.0
H782 H 0.66721 0.57197 0.83349 0.0
H783 H 0.67057 0.59731 0.93351 0.0
O784 O 0.63034 0.55113 0.8526 0.0
O785 O 0.62311 0.56529 0.89563 0.0
O786 O 0.64884 0.56113 0.95527 0.0
C787 C 0.62127 0.56055 0.86202 0.0
H788 H 0.57936 0.4987 0.96033 0.0
H789 H 0.69939 0.60718 0.83442 0.0
H790 H 0.70549 0.55775 0.9228 0.0
H791 H 0.67365 0.52407 0.83078 0.0
Co792 Co 0.59907 0.88602 0.73841 0.0
C793 C 0.58504 0.84274 0.73253 0.0
C794 C 0.60067 0.85509 0.78119 0.0
C795 C 0.59508 0.83532 0.7802 0.0
N796 N 0.59394 0.8597 0.75174 0.0
N797 N 0.58528 0.82754 0.74955 0.0
H798 H 0.57894 0.84154 0.70629 0.0
H799 H 0.60944 0.86548 0.80171 0.0
C800 C 0.58518 0.88261 0.81632 0.0
O801 O 0.57085 0.86491 0.80753 0.0
N802 N 0.60387 0.91152 0.72353 0.0
C803 C 0.59838 0.91507 0.69159 0.0
C804 C 0.60064 0.93359 0.69188 0.0
C805 C 0.60944 0.92789 0.74291 0.0
N806 N 0.6075 0.9416 0.72415 0.0
C807 C 0.56077 0.86655 0.70306 0.0
C808 C 0.54528 0.88572 0.7417 0.0
C809 C 0.53508 0.87526 0.71136 0.0
C810 C 0.54293 0.86531 0.69217 0.0
C811 C 0.56312 0.88695 0.75109 0.0
N812 N 0.5708 0.8773 0.73234 0.0
H813 H 0.56731 0.86034 0.68595 0.0
H814 H 0.57158 0.89752 0.77139 0.0
H815 H 0.59215 0.9045 0.67014 0.0
H816 H 0.61443 0.92956 0.7702 0.0
O817 O 0.60612 0.88233 0.68958 0.0
O818 O 0.62754 0.89514 0.73293 0.0
O819 O 0.5982 0.89305 0.79228 0.0
C820 C 0.62456 0.89077 0.69917 0.0
H821 H 0.59866 0.82747 0.79989 0.0
H822 H 0.59684 0.94032 0.67038 0.0
H823 H 0.54044 0.8944 0.75654 0.0
H824 H 0.53581 0.85735 0.66806 0.0
Co825 Co 0.14115 0.71951 0.7379 0.0
C826 C 0.18491 0.74756 0.73089 0.0
C827 C 0.1731 0.75074 0.78028 0.0
C828 C 0.19299 0.76432 0.7794 0.0
N829 N 0.16803 0.73978 0.75035 0.0
N830 N 0.20046 0.76236 0.74834 0.0
H831 H 0.18583 0.74296 0.70425 0.0
H832 H 0.16294 0.74928 0.80113 0.0
C833 C 0.14503 0.70771 0.81414 0.0
O834 O 0.16222 0.71039 0.8036 0.0
N835 N 0.11491 0.70001 0.7248 0.0
C836 C 0.1094 0.69017 0.69367 0.0
C837 C 0.08958 0.67669 0.69529 0.0
C838 C 0.0986 0.69265 0.74483 0.0
N839 N 0.0829 0.67829 0.72749 0.0
C840 C 0.15921 0.6996 0.70136 0.0
C841 C 0.13856 0.6645 0.73875 0.0
C842 C 0.14942 0.66481 0.70898 0.0
C843 C 0.16002 0.68277 0.69031 0.0
C844 C 0.1378 0.68134 0.74832 0.0
N845 N 0.14831 0.69891 0.73037 0.0
H846 H 0.16606 0.71261 0.68479 0.0
H847 H 0.12717 0.67947 0.76838 0.0
H848 H 0.11921 0.69241 0.67164 0.0
H849 H 0.09836 0.69729 0.77185 0.0
O850 O 0.14466 0.73034 0.68927 0.0
O851 O 0.13328 0.73985 0.7337 0.0
O852 O 0.13468 0.7114 0.79176 0.0
C853 C 0.13706 0.74097 0.69966 0.0
H854 H 0.20117 0.77534 0.79949 0.0
H855 H 0.0808 0.66652 0.67446 0.0
H856 H 0.12939 0.65086 0.7531 0.0
H857 H 0.16828 0.68365 0.66659 0.0
Co858 Co 0.30738 0.42964 0.73589 0.0
C859 C 0.27748 0.44317 0.73269 0.0
C860 C 0.27242 0.42309 0.77568 0.0
C861 C 0.25755 0.42763 0.77561 0.0
N862 N 0.28516 0.43304 0.74918 0.0
N863 N 0.26058 0.44021 0.74845 0.0
H864 H 0.28357 0.45183 0.70884 0.0
H865 H 0.27372 0.41295 0.79362 0.0
C866 C 0.31561 0.44255 0.81407 0.0
O867 O 0.3099 0.45522 0.80543 0.0
N868 N 0.32893 0.42625 0.72147 0.0
C869 C 0.33848 0.43224 0.69006 0.0
C870 C 0.35366 0.42826 0.68985 0.0
C871 C 0.3383 0.41873 0.74004 0.0
N872 N 0.35352 0.41985 0.72129 0.0
C873 C 0.32498 0.46779 0.7001 0.0
C874 C 0.3591 0.48493 0.74047 0.0
C875 C 0.35889 0.49452 0.70915 0.0
C876 C 0.34132 0.48589 0.68917 0.0
C877 C 0.34279 0.46683 0.74993 0.0
N878 N 0.32576 0.45826 0.73015 0.0
H879 H 0.31247 0.46061 0.68244 0.0
H880 H 0.34509 0.45888 0.77103 0.0
H881 H 0.33481 0.43928 0.66896 0.0
H882 H 0.33397 0.41243 0.76643 0.0
O883 O 0.29678 0.42232 0.68704 0.0
O884 O 0.28937 0.40091 0.73033 0.0
O885 O 0.31531 0.43072 0.78965 0.0
C886 C 0.28765 0.4038 0.69664 0.0
H887 H 0.24537 0.4219 0.79422 0.0
H888 H 0.36413 0.43152 0.66849 0.0
H889 H 0.37247 0.4904 0.75606 0.0
H890 H 0.3405 0.49254 0.66438 0.0
Co891 Co 0.55484 0.927 0.14369 0.0
C892 C 0.51227 0.91402 0.14995 0.0
C893 C 0.52315 0.92423 0.09715 0.0
C894 C 0.50329 0.91812 0.09807 0.0
N895 N 0.52876 0.92157 0.12963 0.0
N896 N 0.49642 0.91172 0.13127 0.0
H897 H 0.51185 0.91012 0.17773 0.0
H898 H 0.5328 0.9303 0.07435 0.0
C899 C 0.57341 0.91926 0.07628 0.0
O900 O 0.58305 0.91369 0.09758 0.0
N901 N 0.58051 0.93251 0.15914 0.0
C902 C 0.58524 0.92698 0.18999 0.0
C903 C 0.60537 0.93606 0.19257 0.0
C904 C 0.5978 0.94568 0.14441 0.0
N905 N 0.61318 0.94771 0.16377 0.0
C906 C 0.54089 0.89201 0.18709 0.0
C907 C 0.54266 0.868 0.13522 0.0
C908 C 0.54297 0.86293 0.17109 0.0
C909 C 0.54049 0.87449 0.19696 0.0
C910 C 0.54269 0.88555 0.12662 0.0
N911 N 0.54433 0.89851 0.15264 0.0
H912 H 0.54028 0.90122 0.20784 0.0
H913 H 0.54225 0.88887 0.09895 0.0
H914 H 0.57506 0.9178 0.21032 0.0
H915 H 0.599 0.95326 0.11958 0.0
O916 O 0.5514 0.93557 0.19131 0.0
O917 O 0.56455 0.95581 0.14631 0.0
O918 O 0.56149 0.92451 0.09004 0.0
C919 C 0.56022 0.95377 0.18017 0.0
H920 H 0.49467 0.91878 0.07611 0.0
H921 H 0.61361 0.9345 0.21425 0.0
H922 H 0.54351 0.85921 0.11384 0.0
H923 H 0.53925 0.87065 0.22491 0.0
Co924 Co 0.09782 0.63564 0.14302 0.0
C925 C 0.11154 0.60594 0.14789 0.0
C926 C 0.09143 0.60036 0.10481 0.0
C927 C 0.09602 0.58553 0.10563 0.0
N928 N 0.10136 0.61338 0.13088 0.0
N929 N 0.1086 0.58884 0.13287 0.0
H930 H 0.12025 0.6124 0.17152 0.0
H931 H 0.08129 0.60146 0.08665 0.0
C932 C 0.11115 0.64337 0.06497 0.0
O933 O 0.1236 0.63753 0.07438 0.0
N934 N 0.09434 0.65731 0.15638 0.0
C935 C 0.10009 0.66695 0.18769 0.0
C936 C 0.0969 0.68265 0.18677 0.0
C937 C 0.08774 0.66716 0.13673 0.0
N938 N 0.0892 0.68276 0.15473 0.0
C939 C 0.1356 0.65437 0.17995 0.0
C940 C 0.15263 0.68759 0.13707 0.0
C941 C 0.16136 0.68877 0.17015 0.0
C942 C 0.15303 0.67148 0.19117 0.0
C943 C 0.13498 0.67084 0.12783 0.0
N944 N 0.12636 0.65425 0.14887 0.0
H945 H 0.1285 0.64206 0.19817 0.0
H946 H 0.12737 0.67265 0.10568 0.0
H947 H 0.10655 0.66307 0.20947 0.0
H948 H 0.0819 0.66293 0.11007 0.0
O949 O 0.09037 0.62538 0.19211 0.0
O950 O 0.06912 0.61754 0.1486 0.0
O951 O 0.09907 0.6431 0.08884 0.0
C952 C 0.07192 0.61607 0.18242 0.0
H953 H 0.09032 0.57317 0.08744 0.0
H954 H 0.10023 0.6933 0.20781 0.0
H955 H 0.15848 0.70017 0.11923 0.0
H956 H 0.15901 0.67154 0.21718 0.0
Co957 Co 0.3887 0.46813 0.14121 0.0
C958 C 0.41802 0.51184 0.14603 0.0
C959 C 0.42344 0.49748 0.1025 0.0
C960 C 0.43809 0.51699 0.10297 0.0
N961 N 0.41063 0.4942 0.12908 0.0
N962 N 0.43486 0.52613 0.13046 0.0
H963 H 0.41177 0.51406 0.16995 0.0
H964 H 0.42233 0.4863 0.0842 0.0
C965 C 0.38051 0.47401 0.06346 0.0
O966 O 0.38581 0.49217 0.07303 0.0
N967 N 0.36747 0.44258 0.154 0.0
C968 C 0.35767 0.43758 0.18521 0.0
C969 C 0.34286 0.41819 0.18333 0.0
C970 C 0.35868 0.42641 0.13357 0.0
N971 N 0.34355 0.41126 0.15082 0.0
C972 C 0.37049 0.4872 0.17905 0.0
C973 C 0.33654 0.47095 0.13822 0.0
C974 C 0.33658 0.4799 0.1704 0.0
C975 C 0.354 0.4884 0.19072 0.0
C976 C 0.35296 0.46951 0.12816 0.0
N977 N 0.36991 0.47768 0.14813 0.0
H978 H 0.383 0.49236 0.19665 0.0
H979 H 0.35087 0.45986 0.1062 0.0
H980 H 0.36094 0.4474 0.20763 0.0
H981 H 0.36304 0.42591 0.10646 0.0
O982 O 0.39902 0.47072 0.19007 0.0
O983 O 0.40718 0.45791 0.14602 0.0
O984 O 0.38107 0.46225 0.08718 0.0
C985 C 0.40858 0.46193 0.17995 0.0
H986 H 0.45025 0.5238 0.08436 0.0
H987 H 0.33257 0.40984 0.20435 0.0
H988 H 0.32323 0.46348 0.12232 0.0
H989 H 0.35459 0.49517 0.21616 0.0
Co990 Co 0.09807 0.4683 0.64469 0.0
C991 C 0.11119 0.51158 0.6472 0.0
C992 C 0.09113 0.49645 0.60441 0.0
C993 C 0.0956 0.51588 0.60432 0.0
N994 N 0.10114 0.49375 0.63088 0.0
N995 N 0.10818 0.52551 0.63136 0.0
H996 H 0.11985 0.51415 0.67098 0.0
H997 H 0.08102 0.48496 0.58661 0.0
C998 C 0.11094 0.47297 0.56636 0.0
O999 O 0.12334 0.49146 0.57476 0.0
N1000 N 0.09514 0.44357 0.65986 0.0
C1001 C 0.10102 0.44045 0.69177 0.0
C1002 C 0.09915 0.42206 0.6918 0.0
C1003 C 0.08979 0.42715 0.6408 0.0
N1004 N 0.09218 0.41379 0.65974 0.0
C1005 C 0.13597 0.48901 0.6808 0.0
C1006 C 0.15359 0.47257 0.64034 0.0
C1007 C 0.16286 0.48208 0.67197 0.0
C1008 C 0.15399 0.49075 0.69201 0.0
C1009 C 0.13554 0.47075 0.63065 0.0
N1010 N 0.12671 0.47891 0.65048 0.0
H1011 H 0.12861 0.49414 0.69846 0.0
H1012 H 0.12785 0.46064 0.60932 0.0
H1013 H 0.10691 0.45109 0.71316 0.0
H1014 H 0.08435 0.42507 0.61377 0.0
O1015 O 0.09061 0.47173 0.69336 0.0
O1016 O 0.0693 0.45727 0.65031 0.0
O1017 O 0.0993 0.46135 0.591 0.0
C1018 C 0.07214 0.46217 0.68385 0.0
H1019 H 0.0898 0.52226 0.58568 0.0
H1020 H 0.10302 0.41548 0.71344 0.0
H1021 H 0.15926 0.46488 0.62467 0.0
H1022 H 0.1604 0.49801 0.71701 0.0
Co1023 Co 0.5569 0.63558 0.63644 0.0
C1024 C 0.51308 0.60711 0.64402 0.0
C1025 C 0.52638 0.60094 0.59966 0.0
C1026 C 0.50683 0.58657 0.60131 0.0
N1027 N 0.53036 0.61407 0.62598 0.0
N1028 N 0.49834 0.59024 0.62934 0.0
H1029 H 0.51147 0.61369 0.66809 0.0
H1030 H 0.53712 0.60162 0.58077 0.0
C1031 C 0.5507 0.64318 0.55834 0.0
O1032 O 0.53275 0.63845 0.5682 0.0
N1033 N 0.58292 0.65633 0.64735 0.0
C1034 C 0.58878 0.66718 0.67739 0.0
C1035 C 0.60861 0.68056 0.67464 0.0
C1036 C 0.59899 0.66303 0.62682 0.0
N1037 N 0.61485 0.67789 0.6428 0.0
C1038 C 0.53971 0.65582 0.67396 0.0
C1039 C 0.55685 0.6891 0.63122 0.0
C1040 C 0.54938 0.6905 0.66428 0.0
C1041 C 0.54001 0.67321 0.68523 0.0
C1042 C 0.55693 0.67191 0.62171 0.0
N1043 N 0.54849 0.65533 0.64276 0.0
H1044 H 0.53414 0.64346 0.69214 0.0
H1045 H 0.5659 0.67314 0.59915 0.0
H1046 H 0.57928 0.6655 0.69963 0.0
H1047 H 0.59915 0.65692 0.60108 0.0
O1048 O 0.55469 0.62603 0.68587 0.0
O1049 O 0.5662 0.61637 0.64191 0.0
O1050 O 0.56233 0.64236 0.58196 0.0
C1051 C 0.5628 0.61576 0.67602 0.0
H1052 H 0.49954 0.57427 0.58311 0.0
H1053 H 0.61768 0.69146 0.69429 0.0
H1054 H 0.56392 0.70169 0.61345 0.0
H1055 H 0.53418 0.67342 0.71125 0.0
Co1056 Co 0.39152 0.92859 0.64286 0.0
C1057 C 0.42079 0.91436 0.64718 0.0
C1058 C 0.42651 0.9346 0.60412 0.0
C1059 C 0.44123 0.92988 0.60488 0.0
N1060 N 0.41344 0.92465 0.63018 0.0
N1061 N 0.43783 0.91722 0.63213 0.0
H1062 H 0.41432 0.90569 0.67091 0.0
H1063 H 0.42556 0.9449 0.58609 0.0
C1064 C 0.38386 0.9164 0.56396 0.0
O1065 O 0.38968 0.90375 0.5721 0.0
N1066 N 0.37021 0.93249 0.65671 0.0
C1067 C 0.36051 0.92675 0.68802 0.0
C1068 C 0.34507 0.93032 0.68717 0.0
C1069 C 0.36065 0.93944 0.63716 0.0
N1070 N 0.34517 0.9382 0.65517 0.0
C1071 C 0.37222 0.89037 0.67868 0.0
C1072 C 0.33916 0.87414 0.63569 0.0
C1073 C 0.33783 0.8649 0.66832 0.0
C1074 C 0.35503 0.87283 0.68939 0.0
C1075 C 0.35605 0.89182 0.62686 0.0
N1076 N 0.37254 0.90004 0.648 0.0
H1077 H 0.38447 0.89715 0.69698 0.0
H1078 H 0.35446 0.89974 0.60495 0.0
H1079 H 0.36416 0.92001 0.70967 0.0
H1080 H 0.36497 0.94534 0.61052 0.0
O1081 O 0.40179 0.93546 0.69205 0.0
O1082 O 0.41004 0.9572 0.64915 0.0
O1083 O 0.38407 0.92799 0.58881 0.0
C1084 C 0.41145 0.95403 0.68283 0.0
H1085 H 0.4536 0.93561 0.58671 0.0
H1086 H 0.3344 0.92707 0.70818 0.0
H1087 H 0.32662 0.86862 0.61789 0.0
H1088 H 0.35485 0.86645 0.71508 0.0
Co1089 Co 0.13977 0.42726 0.23955 0.0
C1090 C 0.18334 0.44214 0.23381 0.0
C1091 C 0.17039 0.42464 0.28064 0.0
C1092 C 0.19014 0.43035 0.27993 0.0
N1093 N 0.16614 0.43243 0.25226 0.0
N1094 N 0.19831 0.44133 0.25045 0.0
H1095 H 0.18493 0.44933 0.20849 0.0
H1096 H 0.15975 0.41512 0.30029 0.0
C1097 C 0.14439 0.44143 0.31705 0.0
O1098 O 0.16223 0.45508 0.3074 0.0
N1099 N 0.11406 0.4221 0.22564 0.0
C1100 C 0.10924 0.42555 0.19295 0.0
C1101 C 0.0901 0.42162 0.19362 0.0
C1102 C 0.09797 0.41636 0.24592 0.0
N1103 N 0.08321 0.41604 0.22693 0.0
C1104 C 0.15857 0.46514 0.20265 0.0
C1105 C 0.14036 0.48128 0.2423 0.0
C1106 C 0.15032 0.49116 0.21129 0.0
C1107 C 0.15978 0.48298 0.19157 0.0
C1108 C 0.13916 0.46344 0.25192 0.0
N1109 N 0.14837 0.45547 0.23267 0.0
H1110 H 0.16441 0.45834 0.18528 0.0
H1111 H 0.129 0.45525 0.27299 0.0
H1112 H 0.11914 0.43106 0.17039 0.0
H1113 H 0.09704 0.4126 0.27386 0.0
O1114 O 0.14327 0.41995 0.19092 0.0
O1115 O 0.13059 0.39874 0.23485 0.0
O1116 O 0.13322 0.4286 0.29346 0.0
C1117 C 0.13487 0.40156 0.201 0.0
H1118 H 0.19777 0.42616 0.29902 0.0
H1119 H 0.08201 0.42322 0.17169 0.0
H1120 H 0.13205 0.48637 0.25761 0.0
H1121 H 0.16735 0.48984 0.16698 0.0
Co1122 Co 0.59663 0.71753 0.23155 0.0
C1123 C 0.58359 0.74775 0.22634 0.0
C1124 C 0.60385 0.75329 0.26914 0.0
C1125 C 0.60002 0.76865 0.26745 0.0
N1126 N 0.59342 0.74001 0.24368 0.0
N1127 N 0.58734 0.76528 0.24044 0.0
H1128 H 0.57473 0.74138 0.20285 0.0
H1129 H 0.61401 0.75212 0.28715 0.0
C1130 C 0.58374 0.70997 0.31 0.0
O1131 O 0.57142 0.7161 0.30139 0.0
N1132 N 0.59985 0.69568 0.21833 0.0
C1133 C 0.59387 0.68572 0.18735 0.0
C1134 C 0.59717 0.67006 0.1887 0.0
C1135 C 0.60667 0.68609 0.23815 0.0
N1136 N 0.60511 0.67032 0.22068 0.0
C1137 C 0.55873 0.6999 0.19551 0.0
C1138 C 0.54115 0.66612 0.2371 0.0
C1139 C 0.53178 0.66615 0.20542 0.0
C1140 C 0.54063 0.68356 0.18482 0.0
C1141 C 0.55926 0.68243 0.24634 0.0
N1142 N 0.56805 0.69927 0.22593 0.0
H1143 H 0.56607 0.71224 0.17745 0.0
H1144 H 0.56701 0.68022 0.26784 0.0
H1145 H 0.5872 0.68936 0.16559 0.0
H1146 H 0.61274 0.69063 0.26459 0.0
O1147 O 0.60406 0.72772 0.18243 0.0
O1148 O 0.62535 0.73538 0.22584 0.0
O1149 O 0.5954 0.70996 0.28556 0.0
C1150 C 0.62252 0.73694 0.19206 0.0
H1151 H 0.60636 0.78149 0.28459 0.0
H1152 H 0.59373 0.65918 0.16802 0.0
H1153 H 0.53549 0.65286 0.2532 0.0
H1154 H 0.53414 0.68423 0.15976 0.0
Co1155 Co 0.30466 0.88571 0.24117 0.0
C1156 C 0.27734 0.84179 0.2349 0.0
C1157 C 0.27158 0.85421 0.28105 0.0
C1158 C 0.25816 0.83425 0.28027 0.0
N1159 N 0.28398 0.85894 0.25315 0.0
N1160 N 0.26173 0.82642 0.25123 0.0
H1161 H 0.28342 0.84054 0.20992 0.0
H1162 H 0.27206 0.86466 0.30042 0.0
C1163 C 0.31391 0.88095 0.31899 0.0
O1164 O 0.31002 0.8632 0.30934 0.0
N1165 N 0.32467 0.91185 0.22836 0.0
C1166 C 0.33447 0.91723 0.19714 0.0
C1167 C 0.34879 0.93678 0.19916 0.0
C1168 C 0.33297 0.92799 0.24893 0.0
N1169 N 0.34781 0.94343 0.23176 0.0
C1170 C 0.32537 0.86858 0.20468 0.0
C1171 C 0.35907 0.88762 0.24581 0.0
C1172 C 0.36015 0.87894 0.21397 0.0
C1173 C 0.34271 0.86872 0.19381 0.0
C1174 C 0.34187 0.88767 0.255 0.0
N1175 N 0.32503 0.87814 0.23494 0.0
H1176 H 0.31289 0.86238 0.18687 0.0
H1177 H 0.34317 0.89734 0.27643 0.0
H1178 H 0.33168 0.90749 0.17476 0.0
H1179 H 0.32866 0.92824 0.27618 0.0
O1180 O 0.29448 0.88235 0.19205 0.0
O1181 O 0.2847 0.89401 0.23556 0.0
O1182 O 0.31198 0.892 0.29539 0.0
C1183 C 0.28388 0.89014 0.20161 0.0
H1184 H 0.24617 0.82625 0.2989 0.0
H1185 H 0.35909 0.94539 0.17832 0.0
H1186 H 0.37189 0.89555 0.26271 0.0
H1187 H 0.34277 0.86205 0.16861 0.0
H1188 H 0.19804 0.03273 0.06197 0.0
H1189 H 0.23147 0.05534 0.96478 0.0
H1190 H 0.20666 0.06617 0.07905 0.0
H1191 H 0.24001 0.08882 0.98185 0.0
H1192 H 0.24149 0.14645 1.01309 0.0
H1193 H 0.22875 0.1124 0.99294 0.0
H1194 H 0.23568 0.0956 0.09924 0.0
H1195 H 0.24784 0.1293 0.11938 0.0
C1196 C 0.20719 0.04479 0.04412 0.0
C1197 C 0.21417 0.04118 1.01206 0.0
C1198 C 0.21217 0.06405 0.05398 0.0
C1199 C 0.22427 0.08037 0.03211 0.0
C1200 C 0.23054 0.07669 0.99931 0.0
C1201 C 0.22558 0.0574 0.98945 0.0
C1202 C 0.24005 0.13544 0.03225 0.0
C1203 C 0.24581 0.14076 0.06791 0.0
C1204 C 0.23291 0.11591 1.02061 0.0
C1205 C 0.23114 0.10111 0.04438 0.0
C1206 C 0.23657 0.10642 0.08014 0.0
C1207 C 0.24379 0.1259 0.09167 0.0
H1208 H 0.8902 0.08701 0.04328 0.0
H1209 H 0.8842 0.13685 0.07401 0.0
H1210 H 0.9247 0.10966 0.02601 0.0
H1211 H 0.91802 0.15935 0.05609 0.0
H1212 H 0.98337 0.19429 0.06349 0.0
H1213 H 0.94981 0.1697 0.07752 0.0
H1214 H 0.94807 0.13538 0.98622 0.0
H1215 H 0.98255 0.15963 0.97325 0.0
C1216 C 0.89617 0.1028 0.04582 0.0
C1217 C 0.88458 0.11012 0.06059 0.0
C1218 C 0.91593 0.11581 0.03593 0.0
C1219 C 0.92445 0.13644 0.04034 0.0
C1220 C 0.91237 0.14362 0.05339 0.0
C1221 C 0.89285 0.1307 0.06354 0.0
C1222 C 0.9762 0.18134 0.04669 0.0
C1223 C 0.98607 0.17913 1.01722 0.0
C1224 C 0.95661 0.16729 0.05442 0.0
C1225 C 0.94589 0.15059 0.0327 0.0
C1226 C 0.95577 0.14801 1.00364 0.0
C1227 C 0.97557 0.16209 0.99598 0.0
H1228 H 0.83133 0.79841 0.06723 0.0
H1229 H 0.85912 0.81543 0.96416 0.0
H1230 H 0.85647 0.79087 0.08694 0.0
H1231 H 0.88496 0.80886 0.98413 0.0
H1232 H 0.91524 0.77372 1.0162 0.0
H1233 H 0.89206 0.78412 0.99655 0.0
H1234 H 0.88825 0.8011 0.10448 0.0
H1235 H 0.9106 0.78976 0.12392 0.0
C1236 C 0.84316 0.80107 0.04907 0.0
C1237 C 0.84321 0.80758 1.01415 0.0
C1238 C 0.8577 0.79675 0.06036 0.0
C1239 C 0.87296 0.79909 0.03723 0.0
C1240 C 0.87334 0.80635 1.00265 0.0
C1241 C 0.8586 0.81035 0.99122 0.0
C1242 C 0.90953 0.77983 0.03556 0.0
C1243 C 0.91466 0.78077 0.07165 0.0
C1244 C 0.89624 0.78591 0.02434 0.0
C1245 C 0.88795 0.79344 0.04882 0.0
C1246 C 0.89373 0.79495 0.08477 0.0
C1247 C 0.9067 0.78856 0.096 0.0
H1248 H 0.06743 0.24796 0.56044 0.0
H1249 H 0.03925 0.191 0.50837 0.0
H1250 H 0.09945 0.25339 0.54247 0.0
H1251 H 0.07176 0.1972 0.48859 0.0
H1252 H 0.13366 0.23257 0.42708 0.0
H1253 H 0.10018 0.22256 0.44737 0.0
H1254 H 0.12173 0.2385 0.55486 0.0
H1255 H 0.1552 0.2483 0.53454 0.0
C1256 C 0.06791 0.23634 0.54568 0.0
C1257 C 0.05041 0.21871 0.53682 0.0
C1258 C 0.08646 0.23962 0.53511 0.0
C1259 C 0.08826 0.22565 0.5145 0.0
C1260 C 0.07088 0.20825 0.50458 0.0
C1261 C 0.05221 0.20476 0.5158 0.0
C1262 C 0.1312 0.23375 0.4551 0.0
C1263 C 0.14713 0.24132 0.47917 0.0
C1264 C 0.11199 0.22789 0.46675 0.0
C1265 C 0.10826 0.22979 0.50271 0.0
C1266 C 0.12412 0.23693 0.52694 0.0
C1267 C 0.14327 0.24243 0.51538 0.0
H1268 H 0.80857 0.8437 0.59081 0.0
H1269 H 0.83469 0.85174 0.48636 0.0
H1270 H 0.80179 0.87026 0.57882 0.0
H1271 H 0.82619 0.87681 0.47313 0.0
H1272 H 0.81933 0.92969 0.4588 0.0
H1273 H 0.83137 0.90791 0.47892 0.0
H1274 H 0.78116 0.87855 0.54972 0.0
H1275 H 0.7702 0.90153 0.53089 0.0
C1276 C 0.81305 0.85115 0.56532 0.0
C1277 C 0.82216 0.8452 0.53961 0.0
C1278 C 0.80876 0.86626 0.55812 0.0
C1279 C 0.81314 0.87583 0.52473 0.0
C1280 C 0.8227 0.87021 0.49939 0.0
C1281 C 0.8273 0.85537 0.50681 0.0
C1282 C 0.81124 0.91884 0.4793 0.0
C1283 C 0.79402 0.91739 0.49362 0.0
C1284 C 0.81791 0.90607 0.49055 0.0
C1285 C 0.80718 0.89098 0.51573 0.0
C1286 C 0.79013 0.89 0.53074 0.0
C1287 C 0.78374 0.90314 0.51998 0.0
H1288 H 0.14377 0.88665 0.44544 0.0
H1289 H 0.09763 0.88324 0.51338 0.0
H1290 H 0.16535 0.9205 0.46366 0.0
H1291 H 0.11961 0.91742 0.53207 0.0
H1292 H 0.17465 0.97079 0.58601 0.0
H1293 H 0.14983 0.93777 0.56638 0.0
H1294 H 0.17029 0.95361 0.45811 0.0
H1295 H 0.19544 0.98646 0.4779 0.0
C1296 C 0.13802 0.89308 0.46396 0.0
C1297 C 0.11867 0.88194 0.47756 0.0
C1298 C 0.15053 0.91269 0.47445 0.0
C1299 C 0.14427 0.92192 0.49912 0.0
C1300 C 0.12503 0.91081 0.51315 0.0
C1301 C 0.11239 0.89113 0.50245 0.0
C1302 C 0.17376 0.96731 0.55794 0.0
C1303 C 0.18722 0.98136 0.53362 0.0
C1304 C 0.15939 0.94835 0.54663 0.0
C1305 C 0.15811 0.94282 0.51067 0.0
C1306 C 0.171 0.95717 0.48612 0.0
C1307 C 0.18529 0.97617 0.4974 0.0
H1308 H 0.79527 0.89244 0.92176 0.0
H1309 H 0.77894 0.87085 0.02924 0.0
H1310 H 0.80571 0.92606 0.94193 0.0
H1311 H 0.78927 0.90446 0.04945 0.0
H1312 H 0.78093 0.95932 0.0554 0.0
H1313 H 0.77507 0.92712 0.03739 0.0
H1314 H 0.831 0.95431 0.98265 0.0
H1315 H 0.83759 0.98701 1.00233 0.0
C1316 C 0.79404 0.89491 0.94975 0.0
C1317 C 0.78616 0.87892 0.97386 0.0
C1318 C 0.80016 0.9142 0.96134 0.0
C1319 C 0.79825 0.91796 0.99727 0.0
C1320 C 0.79083 0.90205 1.02154 0.0
C1321 C 0.78503 0.8828 1.01004 0.0
C1322 C 0.79239 0.95867 0.04041 0.0
C1323 C 0.81006 0.97607 0.03125 0.0
C1324 C 0.78888 0.94003 0.02985 0.0
C1325 C 0.80265 0.93805 1.00899 0.0
C1326 C 0.8201 0.95533 0.99882 0.0
C1327 C 0.82382 0.9741 1.00999 0.0
H1328 H 0.13753 0.88748 0.94396 0.0
H1329 H 0.14257 0.93074 1.02084 0.0
H1330 H 0.10395 0.86523 0.963 0.0
H1331 H 0.10854 0.90829 0.04004 0.0
H1332 H 0.05484 0.85243 0.08986 0.0
H1333 H 0.08769 0.87766 0.07063 0.0
H1334 H 0.07131 0.85999 0.96133 0.0
H1335 H 0.0388 0.83415 0.98073 0.0
C1336 C 0.13141 0.89242 0.96467 0.0
C1337 C 0.14286 0.91111 0.98052 0.0
C1338 C 0.11199 0.87958 0.9756 0.0
C1339 C 0.10323 0.88494 1.00279 0.0
C1340 C 0.11473 0.90354 1.01912 0.0
C1341 C 0.1343 0.91645 1.00816 0.0
C1342 C 0.05819 0.85395 0.06167 0.0
C1343 C 0.04409 0.84098 0.03696 0.0
C1344 C 0.07706 0.86861 0.05058 0.0
C1345 C 0.08242 0.8708 1.0144 0.0
C1346 C 0.06796 0.85853 0.98952 0.0
C1347 C 0.04911 0.84385 1.00061 0.0
H1348 H 0.11658 0.22711 0.92799 0.0
H1349 H 0.1144 0.24567 0.03518 0.0
H1350 H 0.14004 0.21687 0.94695 0.0
H1351 H 0.13769 0.23525 0.05422 0.0
H1352 H 0.1995 0.24194 0.05975 0.0
H1353 H 0.17345 0.24827 0.0419 0.0
H1354 H 0.14422 0.19257 0.98626 0.0
H1355 H 0.17025 0.18572 1.00533 0.0
C1356 C 0.12103 0.22892 0.95564 0.0
C1357 C 0.11371 0.23739 0.97999 0.0
C1358 C 0.13434 0.22286 0.96657 0.0
C1359 C 0.14086 0.22533 1.00206 0.0
C1360 C 0.13312 0.23331 0.0266 0.0
C1361 C 0.11965 0.23915 1.01576 0.0
C1362 C 0.18735 0.23069 0.04445 0.0
C1363 C 0.18687 0.21301 0.03486 0.0
C1364 C 0.1724 0.23444 0.03404 0.0
C1365 C 0.15655 0.22083 1.0131 0.0
C1366 C 0.15622 0.20336 1.00248 0.0
C1367 C 0.17117 0.19946 1.01334 0.0
H1368 H 0.99234 0.80935 0.57125 0.0
H1369 H 0.97774 0.81566 0.46299 0.0
H1370 H 0.95949 0.80176 0.5904 0.0
H1371 H 0.94466 0.80729 0.48185 0.0
H1372 H 0.88923 0.80359 0.53137 0.0
H1373 H 0.9236 0.81605 0.51397 0.0
H1374 H 0.92666 0.77445 0.58585 0.0
H1375 H 0.89264 0.76216 0.60313 0.0
C1376 C 0.98228 0.80947 0.55157 0.0
C1377 C 0.98778 0.81303 0.51548 0.0
C1378 C 0.96325 0.80479 0.56248 0.0
C1379 C 0.94913 0.80355 0.53766 0.0
C1380 C 0.95501 0.80813 0.50186 0.0
C1381 C 0.97401 0.81279 0.49096 0.0
C1382 C 0.89721 0.79705 0.54334 0.0
C1383 C 0.88801 0.78191 0.56893 0.0
C1384 C 0.91699 0.80422 0.53339 0.0
C1385 C 0.92815 0.79645 0.5487 0.0
C1386 C 0.91885 0.78123 0.57406 0.0
C1387 C 0.89917 0.7741 0.58397 0.0
H1388 H 0.22643 0.19388 0.57032 0.0
H1389 H 0.20984 0.16706 0.46653 0.0
H1390 H 0.23396 0.16854 0.58912 0.0
H1391 H 0.2165 0.14109 0.48555 0.0
H1392 H 0.25224 0.11115 0.51635 0.0
H1393 H 0.2416 0.1343 0.49754 0.0
H1394 H 0.22355 0.13636 0.6055 0.0
H1395 H 0.23504 0.11398 0.62412 0.0
C1396 C 0.22386 0.18223 0.5518 0.0
C1397 C 0.21748 0.18252 0.51694 0.0
C1398 C 0.22819 0.16758 0.56256 0.0
C1399 C 0.22601 0.15258 0.53893 0.0
C1400 C 0.21887 0.15252 0.50443 0.0
C1401 C 0.21482 0.16733 0.49355 0.0
C1402 C 0.24583 0.11644 0.5359 0.0
C1403 C 0.24465 0.11082 0.57178 0.0
C1404 C 0.23962 0.12973 0.52515 0.0
C1405 C 0.23174 0.13754 0.54992 0.0
C1406 C 0.22996 0.13126 0.58562 0.0
C1407 C 0.23645 0.11826 0.59637 0.0
H1408 H 0.91829 0.15178 0.51554 0.0
H1409 H 0.91533 0.12827 0.62071 0.0
H1410 H 0.89399 0.1186 0.49451 0.0
H1411 H 0.89129 0.09511 0.59974 0.0
H1412 H 0.86017 0.03531 0.5372 0.0
H1413 H 0.88722 0.06764 0.55568 0.0
H1414 H 0.85709 0.09585 0.50972 0.0
H1415 H 0.8297 0.06388 0.49309 0.0
C1416 C 0.91273 0.13947 0.53396 0.0
C1417 C 0.91867 0.14265 0.5698 0.0
C1418 C 0.89872 0.12049 0.52203 0.0
C1419 C 0.89064 0.10419 0.54549 0.0
C1420 C 0.89728 0.10728 0.58094 0.0
C1421 C 0.91095 0.12628 0.593 0.0
C1422 C 0.85913 0.04832 0.53126 0.0
C1423 C 0.84259 0.04666 0.51307 0.0
C1424 C 0.87476 0.0669 0.5417 0.0
C1425 C 0.87444 0.08437 0.53373 0.0
C1426 C 0.85803 0.08276 0.51557 0.0
C1427 C 0.8423 0.06426 0.50579 0.0
H1428 H 0.91469 0.39527 0.32451 0.0
H1429 H 0.86018 0.3672 0.38447 0.0
H1430 H 0.92017 0.42744 0.34167 0.0
H1431 H 0.86651 0.39996 0.40335 0.0
H1432 H 0.90404 0.46358 0.45939 0.0
H1433 H 0.89347 0.42966 0.4408 0.0
H1434 H 0.90389 0.44871 0.33113 0.0
H1435 H 0.91428 0.4826 0.34976 0.0
C1436 C 0.90359 0.39581 0.34085 0.0
C1437 C 0.88661 0.37829 0.35214 0.0
C1438 C 0.90691 0.41444 0.35093 0.0
C1439 C 0.89367 0.41634 0.37344 0.0
C1440 C 0.87697 0.39898 0.38582 0.0
C1441 C 0.8734 0.38019 0.37511 0.0
C1442 C 0.90388 0.46047 0.43128 0.0
C1443 C 0.91011 0.47583 0.40606 0.0
C1444 C 0.89768 0.44101 0.42063 0.0
C1445 C 0.8979 0.43647 0.38451 0.0
C1446 C 0.90364 0.45174 0.3592 0.0
C1447 C 0.90948 0.47113 0.36981 0.0
H1448 H 0.65393 0.52431 0.40329 0.0
H1449 H 0.63958 0.50158 0.2962 0.0
H1450 H 0.62106 0.49917 0.42305 0.0
H1451 H 0.60654 0.47675 0.31576 0.0
H1452 H 0.55231 0.4247 0.36954 0.0
H1453 H 0.58648 0.44696 0.35155 0.0
H1454 H 0.58771 0.49332 0.41566 0.0
H1455 H 0.5538 0.47144 0.43322 0.0
C1456 C 0.64392 0.51375 0.38404 0.0
C1457 C 0.64951 0.5151 0.34807 0.0
C1458 C 0.62491 0.49945 0.39528 0.0
C1459 C 0.61093 0.48598 0.37097 0.0
C1460 C 0.61684 0.48675 0.33534 0.0
C1461 C 0.6358 0.50112 0.32405 0.0
C1462 C 0.55976 0.43965 0.3797 0.0
C1463 C 0.54999 0.44602 0.40313 0.0
C1464 C 0.57946 0.45246 0.36938 0.0
C1465 C 0.59004 0.47198 0.38234 0.0
C1466 C 0.58029 0.47831 0.40568 0.0
C1467 C 0.56064 0.46561 0.41579 0.0
H1468 H 0.4968 0.11171 0.32593 0.0
H1469 H 0.52857 0.17086 0.36893 0.0
H1470 H 0.52351 0.10622 0.34295 0.0
H1471 H 0.5553 0.16491 0.38734 0.0
H1472 H 0.58529 0.13344 0.44891 0.0
H1473 H 0.56121 0.14288 0.42996 0.0
H1474 H 0.55871 0.11825 0.32608 0.0
H1475 H 0.58271 0.10873 0.34514 0.0
C1476 C 0.50961 0.12375 0.33855 0.0
C1477 C 0.51058 0.142 0.34509 0.0
C1478 C 0.52496 0.12049 0.34849 0.0
C1479 C 0.54175 0.1352 0.36599 0.0
C1480 C 0.54259 0.15326 0.37376 0.0
C1481 C 0.52722 0.15666 0.36332 0.0
C1482 C 0.57967 0.13012 0.42197 0.0
C1483 C 0.58584 0.12015 0.39864 0.0
C1484 C 0.56599 0.1357 0.41102 0.0
C1485 C 0.5579 0.13123 0.37658 0.0
C1486 C 0.5645 0.12177 0.35293 0.0
C1487 C 0.57838 0.11643 0.36373 0.0
H1488 H 0.70723 0.5477 0.80814 0.0
H1489 H 0.7196 0.53629 0.91481 0.0
H1490 H 0.74023 0.5555 0.78952 0.0
H1491 H 0.75283 0.54464 0.89643 0.0
H1492 H 0.80875 0.54968 0.84344 0.0
H1493 H 0.77412 0.53658 0.86032 0.0
H1494 H 0.77301 0.58319 0.80035 0.0
H1495 H 0.8072 0.5963 0.78404 0.0
C1496 C 0.71681 0.54643 0.82749 0.0
C1497 C 0.71068 0.54144 0.86306 0.0
C1498 C 0.7359 0.5512 0.81692 0.0
C1499 C 0.74943 0.55105 0.84157 0.0
C1500 C 0.7429 0.54491 0.87664 0.0
C1501 C 0.72383 0.54023 0.88725 0.0
C1502 C 0.80115 0.55719 0.83401 0.0
C1503 C 0.81095 0.57399 0.81193 0.0
C1504 C 0.78124 0.54964 0.84363 0.0
C1505 C 0.77056 0.55861 0.83128 0.0
C1506 C 0.78046 0.5755 0.80961 0.0
C1507 C 0.80026 0.58307 0.80022 0.0
H1508 H 0.49393 0.18109 0.81706 0.0
H1509 H 0.46924 0.17546 0.92216 0.0
H1510 H 0.48577 0.20639 0.80246 0.0
H1511 H 0.46234 0.20185 0.90837 0.0
H1512 H 0.42969 0.23122 0.8566 0.0
H1513 H 0.44053 0.20825 0.87622 0.0
H1514 H 0.49213 0.2386 0.80894 0.0
H1515 H 0.4805 0.26082 0.78856 0.0
C1516 C 0.48691 0.1853 0.83729 0.0
C1517 C 0.48208 0.17583 0.87076 0.0
C1518 C 0.48246 0.20017 0.82903 0.0
C1519 C 0.47323 0.20632 0.85406 0.0
C1520 C 0.4691 0.19739 0.88801 0.0
C1521 C 0.47339 0.18238 0.89618 0.0
C1522 C 0.44349 0.23304 0.84662 0.0
C1523 C 0.4544 0.24782 0.82143 0.0
C1524 C 0.44981 0.21994 0.85785 0.0
C1525 C 0.46728 0.22133 0.8442 0.0
C1526 C 0.47845 0.23667 0.8197 0.0
C1527 C 0.47198 0.24961 0.80827 0.0
H1528 H 0.86695 0.29291 0.88896 0.0
H1529 H 0.83768 0.32081 0.83756 0.0
H1530 H 0.84058 0.26079 0.87063 0.0
H1531 H 0.81159 0.28821 0.81741 0.0
H1532 H 0.78573 0.2265 0.75525 0.0
H1533 H 0.8089 0.26007 0.77577 0.0
H1534 H 0.80344 0.23816 0.88313 0.0
H1535 H 0.78012 0.20461 0.86258 0.0
C1536 C 0.85478 0.29233 0.87427 0.0
C1537 C 0.85443 0.30977 0.86572 0.0
C1538 C 0.83964 0.27374 0.8635 0.0
C1539 C 0.82381 0.27185 0.84298 0.0
C1540 C 0.82358 0.28917 0.83334 0.0
C1541 C 0.83862 0.30789 0.84477 0.0
C1542 C 0.78935 0.2289 0.78329 0.0
C1543 C 0.78114 0.21285 0.80726 0.0
C1544 C 0.8025 0.24816 0.79507 0.0
C1545 C 0.80809 0.25181 0.83106 0.0
C1546 C 0.79952 0.23583 0.85519 0.0
C1547 C 0.78606 0.21663 0.8435 0.0
H1548 H 0.46105 0.22809 0.25277 0.0
H1549 H 0.45039 0.20992 0.36272 0.0
H1550 H 0.47388 0.26235 0.27035 0.0
H1551 H 0.46233 0.24408 0.38066 0.0
H1552 H 0.49541 0.30886 0.40823 0.0
H1553 H 0.48798 0.27606 0.3888 0.0
H1554 H 0.46488 0.28459 0.28988 0.0
H1555 H 0.47325 0.31765 0.30889 0.0
C1556 C 0.46137 0.23145 0.28079 0.0
C1557 C 0.45463 0.21624 0.30631 0.0
C1558 C 0.46863 0.25116 0.29097 0.0
C1559 C 0.46908 0.2563 0.32706 0.0
C1560 C 0.46262 0.24101 0.35266 0.0
C1561 C 0.45566 0.22131 0.34243 0.0
C1562 C 0.48909 0.30381 0.38205 0.0
C1563 C 0.48507 0.31596 0.36002 0.0
C1564 C 0.48457 0.28484 0.37098 0.0
C1565 C 0.47554 0.27727 0.33776 0.0
C1566 C 0.47208 0.28977 0.31537 0.0
C1567 C 0.4769 0.30885 0.32624 0.0
H1568 H 0.80751 0.26861 0.32528 0.0
H1569 H 0.81683 0.2188 0.32008 0.0
H1570 H 0.77308 0.24641 0.34419 0.0
H1571 H 0.78287 0.19681 0.33961 0.0
H1572 H 0.7279 0.16755 0.41118 0.0
H1573 H 0.76195 0.19228 0.3967 0.0
H1574 H 0.74122 0.2158 0.31406 0.0
H1575 H 0.70697 0.19077 0.32823 0.0
C1576 C 0.80225 0.25299 0.3286 0.0
C1577 C 0.81483 0.24543 0.32113 0.0
C1578 C 0.78256 0.24027 0.33917 0.0
C1579 C 0.77524 0.21983 0.34342 0.0
C1580 C 0.78804 0.21246 0.33679 0.0
C1581 C 0.80747 0.22503 0.32546 0.0
C1582 C 0.73053 0.17817 0.3903 0.0
C1583 C 0.71463 0.17714 0.37093 0.0
C1584 C 0.75008 0.19227 0.38184 0.0
C1585 C 0.75432 0.206 0.3542 0.0
C1586 C 0.73844 0.2055 0.33564 0.0
C1587 C 0.71884 0.1911 0.34364 0.0
H1588 H 0.86479 0.57812 0.38914 0.0
H1589 H 0.83617 0.52113 0.33718 0.0
H1590 H 0.83806 0.58338 0.37137 0.0
H1591 H 0.80965 0.52716 0.31758 0.0
H1592 H 0.78321 0.56336 0.25698 0.0
H1593 H 0.80649 0.55292 0.2766 0.0
H1594 H 0.80082 0.56788 0.38475 0.0
H1595 H 0.77739 0.57813 0.36512 0.0
C1596 C 0.85267 0.56646 0.37443 0.0
C1597 C 0.85258 0.54884 0.36565 0.0
C1598 C 0.83734 0.56963 0.364 0.0
C1599 C 0.82154 0.55558 0.34357 0.0
C1600 C 0.8216 0.53824 0.33352 0.0
C1601 C 0.83686 0.53483 0.34463 0.0
C1602 C 0.78679 0.56421 0.285 0.0
C1603 C 0.77853 0.57168 0.30948 0.0
C1604 C 0.80001 0.55809 0.29626 0.0
C1605 C 0.80559 0.55964 0.33219 0.0
C1606 C 0.79689 0.56659 0.35683 0.0
C1607 C 0.78338 0.57235 0.34567 0.0
H1608 H 0.57023 0.13593 0.94432 0.0
H1609 H 0.54508 0.10602 0.84526 0.0
H1610 H 0.60303 0.14399 0.92388 0.0
H1611 H 0.57801 0.11435 0.82446 0.0
H1612 H 0.63357 0.10817 0.82303 0.0
H1613 H 0.60172 0.1036 0.8402 0.0
H1614 H 0.62995 0.16324 0.88062 0.0
H1615 H 0.6622 0.16811 0.86244 0.0
C1616 C 0.57172 0.13118 0.91803 0.0
C1617 C 0.55492 0.12013 0.8966 0.0
C1618 C 0.5906 0.13598 0.90616 0.0
C1619 C 0.59325 0.12972 0.8726 0.0
C1620 C 0.57653 0.11922 0.85066 0.0
C1621 C 0.55764 0.11458 0.86242 0.0
C1622 C 0.63314 0.12056 0.83487 0.0
C1623 C 0.65067 0.13871 0.84057 0.0
C1624 C 0.61473 0.11787 0.84483 0.0
C1625 C 0.61311 0.1331 0.86137 0.0
C1626 C 0.6306 0.15115 0.86795 0.0
C1627 C 0.64914 0.15393 0.85761 0.0
H1628 H 0.8979 0.44403 0.95532 0.0
H1629 H 0.91437 0.4397 0.84764 0.0
H1630 H 0.88731 0.46721 0.93577 0.0
H1631 H 0.90395 0.46307 0.82804 0.0
H1632 H 0.91353 0.52701 0.82533 0.0
H1633 H 0.91874 0.50008 0.84215 0.0
H1634 H 0.86216 0.47077 0.89463 0.0
H1635 H 0.85619 0.49751 0.87596 0.0
C1636 C 0.89907 0.44789 0.92739 0.0
C1637 C 0.90708 0.4401 0.90306 0.0
C1638 C 0.89287 0.46107 0.91616 0.0
C1639 C 0.89486 0.46709 0.88039 0.0
C1640 C 0.90231 0.45882 0.85584 0.0
C1641 C 0.90817 0.44534 0.86697 0.0
C1642 C 0.90178 0.51466 0.83951 0.0
C1643 C 0.8841 0.51442 0.84826 0.0
C1644 C 0.90492 0.4992 0.8494 0.0
C1645 C 0.89077 0.4831 0.86924 0.0
C1646 C 0.87333 0.48295 0.87915 0.0
C1647 C 0.86996 0.49835 0.86859 0.0
H1648 H 0.585 0.48361 0.84558 0.0
H1649 H 0.5747 0.46452 0.95518 0.0
H1650 H 0.56149 0.44984 0.82647 0.0
H1651 H 0.55137 0.43066 0.93607 0.0
H1652 H 0.52439 0.36851 0.87871 0.0
H1653 H 0.55008 0.40136 0.8984 0.0
H1654 H 0.52353 0.42819 0.83577 0.0
H1655 H 0.49743 0.39582 0.8178 0.0
C1656 C 0.57794 0.47215 0.86554 0.0
C1657 C 0.58166 0.47677 0.9019 0.0
C1658 C 0.5644 0.45283 0.85464 0.0
C1659 C 0.55454 0.43756 0.87977 0.0
C1660 C 0.55879 0.44204 0.91606 0.0
C1661 C 0.57204 0.46144 0.927 0.0
C1662 C 0.52387 0.38135 0.86932 0.0
C1663 C 0.5088 0.3792 0.84595 0.0
C1664 C 0.53869 0.4002 0.88052 0.0
C1665 C 0.539 0.4174 0.8682 0.0
C1666 C 0.52398 0.41529 0.84511 0.0
C1667 C 0.50903 0.39656 0.83453 0.0
H1668 H 0.58167 0.72712 0.65096 0.0
H1669 H 0.5265 0.69941 0.70893 0.0
H1670 H 0.58802 0.75932 0.67017 0.0
H1671 H 0.53361 0.7321 0.72971 0.0
H1672 H 0.57001 0.79409 0.7894 0.0
H1673 H 0.55965 0.76051 0.76898 0.0
H1674 H 0.57367 0.78191 0.66091 0.0
H1675 H 0.58395 0.81543 0.68134 0.0
C1676 C 0.57062 0.72776 0.66731 0.0
C1677 C 0.55322 0.71035 0.67748 0.0
C1678 C 0.57443 0.7464 0.67858 0.0
C1679 C 0.56125 0.74838 0.70113 0.0
C1680 C 0.54408 0.73108 0.71227 0.0
C1681 C 0.54005 0.71231 0.70043 0.0
C1682 C 0.57079 0.79159 0.76126 0.0
C1683 C 0.57792 0.80751 0.73704 0.0
C1684 C 0.56468 0.77232 0.74953 0.0
C1685 C 0.56588 0.76849 0.71332 0.0
C1686 C 0.57266 0.78435 0.68902 0.0
C1687 C 0.57844 0.80356 0.70067 0.0
H1688 H 0.30142 0.86098 0.65646 0.0
H1689 H 0.32891 0.83201 0.7103 0.0
H1690 H 0.26919 0.83447 0.67393 0.0
H1691 H 0.29613 0.80562 0.72935 0.0
H1692 H 0.2337 0.77841 0.78839 0.0
H1693 H 0.26744 0.80177 0.7691 0.0
H1694 H 0.24673 0.79796 0.66133 0.0
H1695 H 0.213 0.77454 0.68067 0.0
C1696 C 0.3007 0.84881 0.67153 0.0
C1697 C 0.31805 0.84857 0.68098 0.0
C1698 C 0.28205 0.83358 0.68176 0.0
C1699 C 0.27997 0.81772 0.70255 0.0
C1700 C 0.29721 0.81761 0.71316 0.0
C1701 C 0.31602 0.8328 0.70235 0.0
C1702 C 0.23639 0.78245 0.76052 0.0
C1703 C 0.2206 0.77469 0.73611 0.0
C1704 C 0.25575 0.79572 0.74943 0.0
C1705 C 0.25981 0.80184 0.71371 0.0
C1706 C 0.2441 0.79366 0.68911 0.0
C1707 C 0.22478 0.78014 0.70011 0.0
H1708 H 0.26977 0.47248 0.70671 0.0
H1709 H 0.2219 0.42559 0.76612 0.0
H1710 H 0.2481 0.48533 0.68993 0.0
H1711 H 0.20056 0.43847 0.74971 0.0
H1712 H 0.16963 0.47366 0.73987 0.0
H1713 H 0.19454 0.46557 0.75937 0.0
H1714 H 0.2193 0.47737 0.65345 0.0
H1715 H 0.19475 0.48599 0.63427 0.0
C1716 C 0.25468 0.46483 0.71616 0.0
C1717 C 0.24781 0.44796 0.73805 0.0
C1718 C 0.24222 0.47225 0.70656 0.0
C1719 C 0.22254 0.4631 0.7187 0.0
C1720 C 0.21571 0.44626 0.74048 0.0
C1721 C 0.22807 0.43881 0.74991 0.0
C1722 C 0.18069 0.47504 0.72095 0.0
C1723 C 0.18005 0.48043 0.68541 0.0
C1724 C 0.19485 0.47011 0.732 0.0
C1725 C 0.20886 0.47049 0.70791 0.0
C1726 C 0.20887 0.47692 0.67287 0.0
C1727 C 0.19466 0.48176 0.66178 0.0
H1728 H 0.46237 0.89222 0.09349 0.0
H1729 H 0.48515 0.91552 0.19778 0.0
H1730 H 0.42904 0.88281 0.11342 0.0
H1731 H 0.45181 0.90601 0.2178 0.0
H1732 H 0.39636 0.91239 0.22161 0.0
H1733 H 0.4285 0.9182 0.20329 0.0
H1734 H 0.40147 0.86021 0.15593 0.0
H1735 H 0.36889 0.85391 0.17558 0.0
C1736 C 0.46026 0.89526 0.12073 0.0
C1737 C 0.47651 0.90478 0.14395 0.0
C1738 C 0.4411 0.88969 0.13224 0.0
C1739 C 0.43772 0.89374 0.16716 0.0
C1740 C 0.4539 0.90283 0.19062 0.0
C1741 C 0.47301 0.90815 0.17924 0.0
C1742 C 0.3971 0.90056 0.20806 0.0
C1743 C 0.37982 0.88241 0.20097 0.0
C1744 C 0.41567 0.904 0.19736 0.0
C1745 C 0.41767 0.8896 0.17858 0.0
C1746 C 0.40045 0.87163 0.17042 0.0
C1747 C 0.38175 0.86805 0.1816 0.0
H1748 H 0.14028 0.59806 0.17613 0.0
H1749 H 0.09445 0.55017 0.1153 0.0
H1750 H 0.15305 0.57641 0.19383 0.0
H1751 H 0.10732 0.52895 0.13246 0.0
H1752 H 0.14314 0.49877 0.14309 0.0
H1753 H 0.13514 0.52375 0.12347 0.0
H1754 H 0.14427 0.54692 0.23033 0.0
H1755 H 0.15274 0.52223 0.24975 0.0
C1756 C 0.13285 0.583 0.16652 0.0
C1757 C 0.11632 0.57612 0.14392 0.0
C1758 C 0.14024 0.57056 0.17665 0.0
C1759 C 0.13139 0.55092 0.16428 0.0
C1760 C 0.11487 0.54407 0.14187 0.0
C1761 C 0.10743 0.55639 0.13199 0.0
C1762 C 0.14394 0.50948 0.16225 0.0
C1763 C 0.14853 0.50835 0.19809 0.0
C1764 C 0.13907 0.52368 0.15109 0.0
C1765 C 0.13876 0.53726 0.17537 0.0
C1766 C 0.14438 0.5368 0.2108 0.0
C1767 C 0.14913 0.52252 0.222 0.0
H1768 H 0.42519 0.54881 0.17199 0.0
H1769 H 0.47359 0.55045 0.11378 0.0
H1770 H 0.44658 0.58348 0.18865 0.0
H1771 H 0.49459 0.58476 0.12996 0.0
H1772 H 0.52475 0.65073 0.13783 0.0
H1773 H 0.49989 0.61759 0.11899 0.0
H1774 H 0.47551 0.6048 0.22521 0.0
H1775 H 0.50004 0.63816 0.24377 0.0
C1776 C 0.44033 0.55643 0.16278 0.0
C1777 C 0.44744 0.54662 0.14116 0.0
C1778 C 0.45261 0.57638 0.17229 0.0
C1779 C 0.47232 0.58712 0.16031 0.0
C1780 C 0.47941 0.57724 0.13898 0.0
C1781 C 0.46724 0.55738 0.12967 0.0
C1782 C 0.51379 0.64108 0.15697 0.0
C1783 C 0.51455 0.6472 0.19241 0.0
C1784 C 0.49965 0.62191 0.14629 0.0
C1785 C 0.4858 0.60829 0.17068 0.0
C1786 C 0.48586 0.61479 0.2056 0.0
C1787 C 0.50004 0.63394 0.21632 0.0
H1788 H 0.14369 0.65073 0.64045 0.0
H1789 H 0.1503 0.63553 0.7481 0.0
H1790 H 0.13571 0.61776 0.62068 0.0
H1791 H 0.14194 0.60245 0.72853 0.0
H1792 H 0.13921 0.54799 0.67584 0.0
H1793 H 0.15175 0.58234 0.69321 0.0
H1794 H 0.10752 0.58446 0.62776 0.0
H1795 H 0.09482 0.55034 0.61082 0.0
C1796 C 0.14383 0.64051 0.65981 0.0
C1797 C 0.1476 0.64584 0.69592 0.0
C1798 C 0.13899 0.62147 0.64856 0.0
C1799 C 0.13792 0.60726 0.67304 0.0
C1800 C 0.14267 0.61294 0.70884 0.0
C1801 C 0.14736 0.63192 0.72012 0.0
C1802 C 0.13203 0.55566 0.66523 0.0
C1803 C 0.11591 0.54605 0.64171 0.0
C1804 C 0.1393 0.57547 0.67519 0.0
C1805 C 0.13077 0.58633 0.66173 0.0
C1806 C 0.11477 0.57678 0.63814 0.0
C1807 C 0.10743 0.55702 0.62841 0.0
H1808 H 0.38743 0.52602 0.74712 0.0
H1809 H 0.37368 0.50173 0.64102 0.0
H1810 H 0.42069 0.55039 0.72767 0.0
H1811 H 0.40672 0.5264 0.62136 0.0
H1812 H 0.47343 0.55142 0.61393 0.0
H1813 H 0.43934 0.53088 0.63145 0.0
H1814 H 0.4421 0.57951 0.69052 0.0
H1815 H 0.47663 0.6005 0.67238 0.0
C1816 C 0.39137 0.52608 0.71947 0.0
C1817 C 0.3778 0.51173 0.69576 0.0
C1818 C 0.41046 0.54018 0.70825 0.0
C1819 C 0.4166 0.54027 0.67301 0.0
C1820 C 0.40268 0.5266 0.64886 0.0
C1821 C 0.38357 0.51257 0.66003 0.0
C1822 C 0.46689 0.55803 0.63016 0.0
C1823 C 0.47802 0.5779 0.64121 0.0
C1824 C 0.44714 0.54612 0.64026 0.0
C1825 C 0.43772 0.55351 0.66203 0.0
C1826 C 0.44884 0.57326 0.67376 0.0
C1827 C 0.4687 0.58531 0.66341 0.0
H1828 H 0.42867 0.88582 0.67641 0.0
H1829 H 0.47631 0.93094 0.61374 0.0
H1830 H 0.4502 0.873 0.6944 0.0
H1831 H 0.4974 0.918 0.63119 0.0
H1832 H 0.52716 0.88175 0.64295 0.0
H1833 H 0.50229 0.88984 0.62315 0.0
H1834 H 0.47985 0.88207 0.73048 0.0
H1835 H 0.50445 0.87355 0.75009 0.0
C1836 C 0.44365 0.89308 0.66644 0.0
C1837 C 0.45048 0.90944 0.64326 0.0
C1838 C 0.45603 0.88566 0.67674 0.0
C1839 C 0.47555 0.89429 0.66397 0.0
C1840 C 0.48236 0.91062 0.64095 0.0
C1841 C 0.47011 0.9181 0.6309 0.0
C1842 C 0.51662 0.88127 0.66218 0.0
C1843 C 0.51792 0.87703 0.69818 0.0
C1844 C 0.50249 0.88618 0.65092 0.0
C1845 C 0.48914 0.88689 0.67526 0.0
C1846 C 0.48978 0.88164 0.71089 0.0
C1847 C 0.504 0.87685 0.7222 0.0
H1848 H 0.3104 0.48753 0.13503 0.0
H1849 H 0.31961 0.46704 0.23595 0.0
H1850 H 0.27778 0.48049 0.1545 0.0
H1851 H 0.28671 0.45902 0.25505 0.0
H1852 H 0.23081 0.45647 0.29212 0.0
H1853 H 0.2648 0.46847 0.27389 0.0
H1854 H 0.24577 0.45552 0.16424 0.0
H1855 H 0.21191 0.44446 0.18279 0.0
C1856 C 0.30546 0.48161 0.16153 0.0
C1857 C 0.31771 0.47799 0.184 0.0
C1858 C 0.28659 0.47732 0.17265 0.0
C1859 C 0.27918 0.46892 0.20641 0.0
C1860 C 0.29174 0.46577 0.22914 0.0
C1861 C 0.31074 0.47037 0.2182 0.0
C1862 C 0.23395 0.45629 0.2641 0.0
C1863 C 0.21861 0.44944 0.23895 0.0
C1864 C 0.2535 0.46308 0.25354 0.0
C1865 C 0.25836 0.46289 0.21744 0.0
C1866 C 0.24294 0.45629 0.19221 0.0
C1867 C 0.2234 0.44983 0.2028 0.0
H1868 H 0.5634 0.86179 0.22968 0.0
H1869 H 0.53328 0.82774 0.13635 0.0
H1870 H 0.57261 0.83751 0.24568 0.0
H1871 H 0.54367 0.80388 0.15141 0.0
H1872 H 0.5525 0.75555 0.20762 0.0
H1873 H 0.54046 0.77801 0.19074 0.0
H1874 H 0.59502 0.82755 0.22817 0.0
H1875 H 0.60668 0.80523 0.24541 0.0
C1876 C 0.55849 0.84904 0.21261 0.0
C1877 C 0.54743 0.84693 0.18164 0.0
C1878 C 0.56417 0.83518 0.22153 0.0
C1879 C 0.55923 0.81873 0.19965 0.0
C1880 C 0.54776 0.81627 0.16908 0.0
C1881 C 0.54196 0.83015 0.1602 0.0
C1882 C 0.56192 0.77126 0.21202 0.0
C1883 C 0.58047 0.77848 0.22839 0.0
C1884 C 0.55504 0.78419 0.2023 0.0
C1885 C 0.56657 0.80471 0.20852 0.0
C1886 C 0.58536 0.81187 0.22387 0.0
C1887 C 0.59213 0.799 0.23374 0.0
H1888 H 0.25235 0.81329 0.18324 0.0
H1889 H 0.24423 0.79351 0.29238 0.0
H1890 H 0.22954 0.77936 0.16393 0.0
H1891 H 0.22155 0.75953 0.2731 0.0
H1892 H 0.19329 0.69751 0.21447 0.0
H1893 H 0.21936 0.7303 0.23425 0.0
H1894 H 0.19205 0.75756 0.17504 0.0
H1895 H 0.16576 0.72537 0.15704 0.0
C1896 C 0.24599 0.80165 0.20303 0.0
C1897 C 0.25001 0.80614 0.23935 0.0
C1898 C 0.23284 0.78223 0.19203 0.0
C1899 C 0.22367 0.76673 0.21701 0.0
C1900 C 0.22843 0.77107 0.25318 0.0
C1901 C 0.24129 0.79055 0.26423 0.0
C1902 C 0.19276 0.71046 0.20585 0.0
C1903 C 0.1775 0.70854 0.18325 0.0
C1904 C 0.20776 0.72927 0.21707 0.0
C1905 C 0.208 0.74658 0.20557 0.0
C1906 C 0.19265 0.74461 0.18357 0.0
C1907 C 0.17757 0.72598 0.173 0.0
H1908 H 0.27101 0.25244 0.17901 0.0
H1909 H 0.2334 0.19133 0.2085 0.0
H1910 H 0.26453 0.26258 0.23744 0.0
H1911 H 0.22706 0.20128 0.2657 0.0
H1912 H 0.19849 0.22189 0.34549 0.0
H1913 H 0.20836 0.21562 0.28821 0.0
H1914 H 0.26793 0.26281 0.3061 0.0
H1915 H 0.25787 0.26923 0.36469 0.0
C1916 C 0.26157 0.24113 0.19786 0.0
C1917 C 0.25272 0.22095 0.18828 0.0
C1918 C 0.25782 0.24696 0.23159 0.0
C1919 C 0.24493 0.23285 0.25675 0.0
C1920 C 0.23668 0.21278 0.2473 0.0
C1921 C 0.24048 0.20701 0.21409 0.0
C1922 C 0.21376 0.23112 0.33762 0.0
C1923 C 0.22727 0.24608 0.36061 0.0
C1924 C 0.21951 0.22738 0.30436 0.0
C1925 C 0.23912 0.2384 0.29198 0.0
C1926 C 0.25268 0.2539 0.31428 0.0
C1927 C 0.24689 0.25761 0.3481 0.0
H1928 H 0.83091 0.02841 0.19064 0.0
H1929 H 0.77937 0.03489 0.18927 0.0
H1930 H 0.82179 0.01288 0.24817 0.0
H1931 H 0.77047 0.01988 0.24926 0.0
H1932 H 0.75343 0.97839 0.35217 0.0
H1933 H 0.75919 0.99311 0.29195 0.0
H1934 H 0.8219 0.01795 0.30688 0.0
H1935 H 0.81612 1.00275 0.36466 0.0
C1936 C 0.81766 0.02686 0.20281 0.0
C1937 C 0.80619 0.03344 0.18466 0.0
C1938 C 0.81241 0.01793 0.23667 0.0
C1939 C 0.79552 0.01532 0.25508 0.0
C1940 C 0.78364 0.0215 0.23671 0.0
C1941 C 0.78883 0.0303 0.2021 0.0
C1942 C 0.76842 0.98688 0.34237 0.0
C1943 C 0.7842 0.98882 0.36371 0.0
C1944 C 0.7718 0.99551 0.30762 0.0
C1945 C 0.79111 1.00658 0.29304 0.0
C1946 C 0.80671 1.00902 0.31538 0.0
C1947 C 0.80335 1.00028 0.34936 0.0
H1948 H 0.98362 0.79807 0.20642 0.0
H1949 H 0.99992 0.75408 0.18354 0.0
H1950 H 0.99981 0.80439 0.26367 0.0
H1951 H 0.01657 0.76061 0.24203 0.0
H1952 H 0.03088 0.76998 0.36874 0.0
H1953 H 1.01414 0.75971 0.31037 0.0
H1954 H 0.03259 0.82052 0.28636 0.0
H1955 H 0.04889 0.83056 0.34351 0.0
C1956 C 0.99063 0.7896 0.21348 0.0
C1957 C 0.99035 0.77557 0.18947 0.0
C1958 C 1.00016 0.79338 0.24672 0.0
C1959 C 1.01004 0.78338 0.25803 0.0
C1960 C 1.00923 0.76873 0.23472 0.0
C1961 C 0.99963 0.76495 0.20096 0.0
C1962 C 0.03152 0.78117 0.35084 0.0
C1963 C 0.04131 0.8012 0.36162 0.0
C1964 C 0.02186 0.77526 0.31714 0.0
C1965 C 0.02152 0.78915 0.2932 0.0
C1966 C 0.03188 0.80914 0.30382 0.0
C1967 C 0.04147 0.81498 0.337 0.0
H1968 H 0.76152 0.77037 0.66667 0.0
H1969 H 0.81782 0.77564 0.6905 0.0
H1970 H 0.75744 0.77625 0.72905 0.0
H1971 H 0.81386 0.78187 0.75342 0.0
H1972 H 0.81082 0.81846 0.84982 0.0
H1973 H 0.81384 0.80822 0.7901 0.0
H1974 H 0.75214 0.76386 0.79148 0.0
H1975 H 0.74915 0.77403 0.85216 0.0
C1976 C 0.77302 0.77256 0.6853 0.0
C1977 C 0.79002 0.77242 0.67301 0.0
C1978 C 0.7706 0.77589 0.72142 0.0
C1979 C 0.78527 0.77968 0.74696 0.0
C1980 C 0.8022 0.77919 0.73486 0.0
C1981 C 0.80444 0.77543 0.69864 0.0
C1982 C 0.79779 0.80644 0.8377 0.0
C1983 C 0.77965 0.79726 0.8564 0.0
C1984 C 0.79962 0.80041 0.80318 0.0
C1985 C 0.78331 0.78511 0.78525 0.0
C1986 C 0.76511 0.77579 0.80393 0.0
C1987 C 0.76336 0.78159 0.83899 0.0
H1988 H 0.22087 0.02581 0.69575 0.0
H1989 H 0.28198 0.04125 0.6913 0.0
H1990 H 0.21791 0.01219 0.75519 0.0
H1991 H 0.27903 0.02763 0.7517 0.0
H1992 H 0.27119 0.02341 0.8765 0.0
H1993 H 0.275 0.03392 0.81441 0.0
H1994 H 0.21666 0.98557 0.79167 0.0
H1995 H 0.21292 0.97491 0.85436 0.0
C1996 C 0.23381 0.02635 0.70732 0.0
C1997 C 0.25177 0.03493 0.68805 0.0
C1998 C 0.232 0.01827 0.74174 0.0
C1999 C 0.24814 0.01858 0.75905 0.0
C2000 C 0.26617 0.0271 0.73982 0.0
C2001 C 0.26791 0.03493 0.70488 0.0
C2002 C 0.25917 0.01476 0.8583 0.0
C2003 C 0.24171 0.99817 0.87106 0.0
C2004 C 0.26144 0.02083 0.82229 0.0
C2005 C 0.24619 1.01082 0.79724 0.0
C2006 C 0.22879 0.99394 0.80979 0.0
C2007 C 0.22666 0.98762 0.8459 0.0
H2008 H 0.98493 0.24684 0.69558 0.0
H2009 H 1.00302 0.20302 0.69861 0.0
H2010 H 0.99772 0.25705 0.75648 0.0
H2011 H 0.01593 0.21333 0.75852 0.0
H2012 H 0.05189 0.24629 0.85841 0.0
H2013 H 0.04198 0.23998 0.79537 0.0
H2014 H 0.99042 0.24443 0.81886 0.0
H2015 H 1.00011 0.25036 0.88134 0.0
C2016 C 0.99168 0.23942 0.70895 0.0
C2017 C 0.99265 0.22391 0.69168 0.0
C2018 C 0.99903 0.24526 0.74412 0.0
C2019 C 1.00805 0.23613 0.76302 0.0
C2020 C 1.00939 0.22098 0.74525 0.0
C2021 C 1.00174 0.21492 0.71062 0.0
C2022 C 0.03861 0.24621 0.85006 0.0
C2023 C 0.02691 0.24891 0.87547 0.0
C2024 C 0.03276 0.24241 0.81377 0.0
C2025 C 1.01524 0.24159 0.80139 0.0
C2026 C 1.00404 0.24506 0.82671 0.0
C2027 C 1.00964 0.24842 0.8629 0.0
H2028 H 0.94547 0.57975 0.52935 0.0
H2029 H 0.88365 0.53678 0.51944 0.0
H2030 H 0.93916 0.58857 0.58912 0.0
H2031 H 0.87719 0.54604 0.57681 0.0
H2032 H 0.8691 0.54771 0.69308 0.0
H2033 H 0.87873 0.5419 0.63561 0.0
H2034 H 0.92624 0.6025 0.63121 0.0
H2035 H 0.91692 0.60804 0.69113 0.0
C2036 C 0.93053 0.57229 0.53961 0.0
C2037 C 0.9152 0.55717 0.51934 0.0
C2038 C 0.92683 0.57739 0.57408 0.0
C2039 C 0.90762 0.56775 0.58927 0.0
C2040 C 0.89235 0.5534 0.56779 0.0
C2041 C 0.89607 0.54813 0.53412 0.0
C2042 C 0.8816 0.56 0.68014 0.0
C2043 C 0.8919 0.57851 0.69723 0.0
C2044 C 0.88712 0.55667 0.64639 0.0
C2045 C 0.90305 0.57178 0.62711 0.0
C2046 C 0.91383 0.59032 0.64451 0.0
C2047 C 0.90842 0.59359 0.67906 0.0
H2048 H 0.50045 0.37722 0.53674 0.0
H2049 H 0.43942 0.35575 0.51028 0.0
H2050 H 0.49083 0.36122 0.59432 0.0
H2051 H 0.4296 0.33939 0.56913 0.0
H2052 H 0.42424 0.32708 0.69666 0.0
H2053 H 0.43032 0.34298 0.63744 0.0
H2054 H 0.4759 0.32847 0.61828 0.0
H2055 H 0.46998 0.31292 0.67627 0.0
C2056 C 0.48485 0.3691 0.54305 0.0
C2057 C 0.47083 0.3679 0.51797 0.0
C2058 C 0.47927 0.3597 0.57649 0.0
C2059 C 0.45931 0.34854 0.58696 0.0
C2060 C 0.44514 0.34778 0.56249 0.0
C2061 C 0.45079 0.3572 0.52851 0.0
C2062 C 0.43542 0.32711 0.67965 0.0
C2063 C 0.44662 0.31863 0.69203 0.0
C2064 C 0.43893 0.33627 0.64546 0.0
C2065 C 0.45391 0.33747 0.62261 0.0
C2066 C 0.46457 0.32845 0.63484 0.0
C2067 C 0.46102 0.3193 0.6685 0.0
H2068 H 0.71249 0.10608 0.68562 0.0
H2069 H 0.69901 0.15317 0.67948 0.0
H2070 H 0.69903 0.09552 0.62519 0.0
H2071 H 0.68553 0.14261 0.62006 0.0
H2072 H 0.64802 0.11054 0.52139 0.0
H2073 H 0.65855 0.11741 0.58404 0.0
H2074 H 0.70588 0.10579 0.5622 0.0
H2075 H 0.69552 0.09916 0.50009 0.0
C2076 C 0.70665 0.11418 0.67166 0.0
C2077 C 0.70714 0.13067 0.68801 0.0
C2078 C 0.69891 0.10814 0.63672 0.0
C2079 C 0.69097 0.11808 0.61704 0.0
C2080 C 0.69116 0.13428 0.63388 0.0
C2081 C 0.69916 0.14049 0.66828 0.0
C2082 C 0.66048 0.10914 0.53003 0.0
C2083 C 0.67078 0.1042 0.50512 0.0
C2084 C 0.66671 0.11329 0.56612 0.0
C2085 C 0.68327 0.1123 0.5789 0.0
C2086 C 0.69303 0.10663 0.55412 0.0
C2087 C 0.68705 0.10287 0.51811 0.0
H2088 H 0.41605 0.10776 0.19066 0.0
H2089 H 0.47596 0.15604 0.18306 0.0
H2090 H 0.41916 0.09674 0.13075 0.0
H2091 H 0.4791 0.14502 0.1242 0.0
H2092 H 0.48532 0.11244 0.02703 0.0
H2093 H 0.48154 0.11963 0.08946 0.0
H2094 H 0.42216 0.10658 0.06726 0.0
H2095 H 0.42604 0.0997 1.00537 0.0
C2096 C 0.4299 0.11602 0.17651 0.0
C2097 C 0.44564 0.13299 0.19226 0.0
C2098 C 0.43172 0.10972 0.14187 0.0
C2099 C 0.44948 0.11986 0.12197 0.0
C2100 C 0.46525 0.13653 0.13824 0.0
C2101 C 0.46333 0.14299 0.1723 0.0
C2102 C 0.47136 0.11079 0.03558 0.0
C2103 C 0.45603 0.1054 1.01064 0.0
C2104 C 0.46919 0.11511 0.07151 0.0
C2105 C 0.45148 0.11383 0.0841 0.0
C2106 C 0.43597 0.10766 0.05932 0.0
C2107 C 0.43826 0.10376 0.02345 0.0
H2108 H 0.88301 0.35345 1.02075 0.0
H2109 H 0.9453 0.37467 0.03048 0.0
H2110 H 0.87719 0.33808 0.07844 0.0
H2111 H 0.93962 0.35992 0.0906 0.0
H2112 H 0.91933 0.31877 0.19343 0.0
H2113 H 0.928 0.33364 0.13338 0.0
H2114 H 0.87821 0.34313 0.13711 0.0
H2115 H 0.86924 0.32762 0.19472 0.0
C2116 C 0.89567 0.35516 0.03546 0.0
C2117 C 0.91473 0.36577 1.02046 0.0
C2118 C 0.89232 0.34635 0.06936 0.0
C2119 C 0.90789 0.34799 0.09089 0.0
C2120 C 0.92705 0.35817 0.07556 0.0
C2121 C 0.93039 0.36679 0.04087 0.0
C2122 C 0.9102 0.32393 0.18119 0.0
C2123 C 0.89325 0.32144 0.19924 0.0
C2124 C 0.91523 0.33263 0.14654 0.0
C2125 C 0.90365 0.33939 0.12887 0.0
C2126 C 0.88727 0.33754 0.14803 0.0
C2127 C 0.88212 0.32865 0.18189 0.0
H2128 H 0.64734 0.52658 0.036 0.0
H2129 H 0.67058 0.58797 1.00888 0.0
H2130 H 0.66263 0.53586 0.09405 0.0
H2131 H 0.68626 0.59744 0.06827 0.0
H2132 H 0.69743 0.60221 0.19639 0.0
H2133 H 0.68205 0.59667 0.13683 0.0
H2134 H 0.69522 0.55006 0.11818 0.0
H2135 H 0.71021 0.55542 0.17642 0.0
C2136 C 0.6557 0.54218 0.04228 0.0
C2137 C 0.65764 0.55641 1.01687 0.0
C2138 C 0.66469 0.54756 0.076 0.0
C2139 C 0.67616 0.56751 0.08641 0.0
C2140 C 0.6776 0.58191 0.06165 0.0
C2141 C 0.66857 0.57646 0.02739 0.0
C2142 C 0.69719 0.5909 0.17943 0.0
C2143 C 0.70511 0.57922 0.19201 0.0
C2144 C 0.68834 0.58771 0.14506 0.0
C2145 C 0.68692 0.57261 0.12225 0.0
C2146 C 0.69541 0.5615 0.1347 0.0
C2147 C 0.70423 0.56471 0.16852 0.0
H2148 H 0.54658 0.91146 1.02055 0.0
H2149 H 0.60523 0.92194 0.04091 0.0
H2150 H 0.54983 0.90449 0.95774 0.0
H2151 H 0.60856 0.91525 0.97866 0.0
H2152 H 0.61437 0.91478 0.8552 0.0
H2153 H 0.61186 0.92556 0.91567 0.0
H2154 H 0.55104 0.87909 0.92131 0.0
H2155 H 0.55359 0.86832 0.86184 0.0
C2156 C 0.5603 0.91264 1.01167 0.0
C2157 C 0.57561 0.91736 0.03639 0.0
C2158 C 0.56215 0.90844 0.97549 0.0
C2159 C 0.57951 0.90917 0.96238 0.0
C2160 C 0.59501 0.91462 0.98697 0.0
C2161 C 0.59302 0.91842 1.02307 0.0
C2162 C 0.60045 0.90689 0.86925 0.0
C2163 C 0.58428 0.89049 0.85303 0.0
C2164 C 0.59898 0.91304 0.90423 0.0
C2165 C 0.58116 0.90332 0.92411 0.0
C2166 C 0.56497 0.88725 0.90737 0.0
C2167 C 0.56654 0.88093 0.87293 0.0
H2168 H 0.14366 0.65763 1.02263 0.0
H2169 H 0.08619 0.65243 0.02423 0.0
H2170 H 0.15022 0.67309 0.965 0.0
H2171 H 0.09241 0.66734 0.96417 0.0
H2172 H 0.11754 0.70883 0.86163 0.0
H2173 H 0.10823 0.69393 0.92163 0.0
H2174 H 0.14489 0.66772 0.90635 0.0
H2175 H 0.15471 0.68318 0.84867 0.0
C2176 C 0.13213 0.65946 1.01047 0.0
C2177 C 0.11418 0.65327 0.02864 0.0
C2178 C 0.13588 0.66833 0.97661 0.0
C2179 C 0.12175 0.67121 0.95827 0.0
C2180 C 0.10383 0.66548 0.97671 0.0
C2181 C 0.10015 0.65677 1.01135 0.0
C2182 C 0.12361 0.6999 0.87126 0.0
C2183 C 0.13727 0.69767 0.85003 0.0
C2184 C 0.1182 0.69123 0.90588 0.0
C2185 C 0.12609 0.67981 0.92031 0.0
C2186 C 0.13895 0.67695 0.89792 0.0
C2187 C 0.14454 0.6858 0.86408 0.0
H2188 H 0.3621 0.4362 0.03152 0.0
H2189 H 0.37913 0.4969 1.0097 0.0
H2190 H 0.34653 0.42681 0.97206 0.0
H2191 H 0.36391 0.4877 0.95156 0.0
H2192 H 0.31584 0.46526 0.86942 0.0
H2193 H 0.33114 0.47088 0.92743 0.0
H2194 H 0.35102 0.42975 0.90342 0.0
H2195 H 0.33537 0.42398 0.84407 0.0
C2196 C 0.36273 0.4476 1.01419 0.0
C2197 C 0.37193 0.4674 0.02621 0.0
C2198 C 0.35378 0.4422 0.97987 0.0
C2199 C 0.35353 0.45637 0.95654 0.0
C2200 C 0.36322 0.47612 0.96847 0.0
C2201 C 0.37216 0.48147 1.00225 0.0
C2202 C 0.32338 0.45724 0.87607 0.0
C2203 C 0.32427 0.44419 0.85116 0.0
C2204 C 0.33237 0.46061 0.90977 0.0
C2205 C 0.34278 0.4511 0.92069 0.0
C2206 C 0.3432 0.43744 0.89641 0.0
C2207 C 0.33419 0.43411 0.86216 0.0
H2208 H 0.16652 0.46608 0.37078 0.0
H2209 H 0.10658 0.42069 0.34907 0.0
H2210 H 0.15679 0.47153 0.42883 0.0
H2211 H 0.09666 0.42629 0.40851 0.0
H2212 H 0.0936 0.43452 0.53688 0.0
H2213 H 0.09978 0.42497 0.47756 0.0
H2214 H 0.13883 0.48644 0.45252 0.0
H2215 H 0.1328 0.4958 0.51045 0.0
C2216 C 0.15114 0.45711 0.37824 0.0
C2217 C 0.13744 0.44295 0.3543 0.0
C2218 C 0.14549 0.46037 0.41198 0.0
C2219 C 0.12578 0.44966 0.42395 0.0
C2220 C 0.112 0.43493 0.40068 0.0
C2221 C 0.11771 0.4317 0.36637 0.0
C2222 C 0.10335 0.446 0.51857 0.0
C2223 C 0.11274 0.46604 0.52928 0.0
C2224 C 0.10692 0.44051 0.48433 0.0
C2225 C 0.12014 0.45483 0.45977 0.0
C2226 C 0.12893 0.47477 0.47039 0.0
C2227 C 0.12532 0.4802 0.50407 0.0
H2228 H 0.60183 0.68972 0.3398 0.0
H2229 H 0.5607 0.7094 0.36518 0.0
H2230 H 0.59561 0.67354 0.39879 0.0
H2231 H 0.55462 0.69354 0.42289 0.0
H2232 H 0.52809 0.64492 0.50452 0.0
H2233 H 0.53759 0.66058 0.44662 0.0
H2234 H 0.5982 0.67748 0.46739 0.0
H2235 H 0.58852 0.66151 0.52657 0.0
C2236 C 0.59163 0.69081 0.35783 0.0
C2237 C 0.58176 0.70096 0.34695 0.0
C2238 C 0.58805 0.6815 0.39188 0.0
C2239 C 0.5743 0.6818 0.41609 0.0
C2240 C 0.56496 0.69241 0.40528 0.0
C2241 C 0.5686 0.70172 0.37177 0.0
C2242 C 0.54351 0.65186 0.49714 0.0
C2243 C 0.55743 0.65183 0.5211 0.0
C2244 C 0.54904 0.66106 0.46353 0.0
C2245 C 0.56881 0.67076 0.45175 0.0
C2246 C 0.58281 0.67023 0.47506 0.0
C2247 C 0.57724 0.66103 0.50922 0.0
H2248 H 0.3621 0.93341 0.53615 0.0
H2249 H 0.3841 0.89454 0.50752 0.0
H2250 H 0.34511 0.92675 0.47796 0.0
H2251 H 0.36742 0.88799 0.45068 0.0
H2252 H 0.31739 0.85923 0.37262 0.0
H2253 H 0.33385 0.86951 0.42959 0.0
H2254 H 0.34813 0.92948 0.40847 0.0
H2255 H 0.33136 0.91901 0.35012 0.0
C2256 C 0.36357 0.92366 0.51755 0.0
C2257 C 0.37459 0.9145 0.52733 0.0
C2258 C 0.35377 0.9198 0.48397 0.0
C2259 C 0.35445 0.90649 0.45917 0.0
C2260 C 0.36597 0.89795 0.4688 0.0
C2261 C 0.37576 0.90186 0.50182 0.0
C2262 C 0.32391 0.87468 0.3797 0.0
C2263 C 0.32292 0.88817 0.35584 0.0
C2264 C 0.33358 0.88066 0.4128 0.0
C2265 C 0.34281 0.9005 0.42418 0.0
C2266 C 0.34129 0.91406 0.40107 0.0
C2267 C 0.33161 0.90803 0.36739 0.0
H2268 H 0.28977 0.22714 0.95906 0.0
H2269 H 0.33155 0.23882 0.04322 0.0
H2270 H 0.31637 0.24013 0.91548 0.0
H2271 H 0.35821 0.25082 0.9997 0.0
H2272 H 0.40677 0.28814 0.91961 0.0
H2273 H 0.38011 0.27424 0.96286 0.0
H2274 H 0.33924 0.23954 0.87969 0.0
H2275 H 0.366 0.25452 0.83619 0.0
C2276 C 0.30465 0.23217 0.96832 0.0
C2277 C 0.30827 0.23179 1.00503 0.0
C2278 C 0.32014 0.23963 0.94301 0.0
C2279 C 0.34003 0.24684 0.95312 0.0
C2280 C 0.34348 0.24601 0.99001 0.0
C2281 C 0.328 0.23884 1.01535 0.0
C2282 C 0.39211 0.27745 0.91047 0.0
C2283 C 0.3888 0.27253 0.87403 0.0
C2284 C 0.37658 0.26924 0.93564 0.0
C2285 C 0.35694 0.25543 0.92574 0.0
C2286 C 0.35377 0.25028 0.88915 0.0
C2287 C 0.36931 0.25877 0.86386 0.0
H2288 H 0.76191 0.10459 0.83294 0.0
H2289 H 0.75267 0.13783 0.91427 0.0
H2290 H 0.77528 0.09162 0.87724 0.0
H2291 H 0.76691 0.12575 0.95859 0.0
H2292 H 0.77761 0.08818 0.04036 0.0
H2293 H 0.76513 0.10209 0.99609 0.0
H2294 H 0.79862 0.09288 0.9146 0.0
H2295 H 0.81019 0.07813 0.95881 0.0
C2296 C 0.76306 0.10948 0.86023 0.0
C2297 C 0.75616 0.12246 0.86952 0.0
C2298 C 0.7709 0.10202 0.88607 0.0
C2299 C 0.77245 0.10734 0.92252 0.0
C2300 C 0.76584 0.12068 0.93148 0.0
C2301 C 0.75778 0.12793 0.90569 0.0
C2302 C 0.78244 0.08924 1.01303 0.0
C2303 C 0.79508 0.08195 1.00365 0.0
C2304 C 0.77528 0.0974 0.98722 0.0
C2305 C 0.78057 0.09888 0.95075 0.0
C2306 C 0.79357 0.09188 0.94172 0.0
C2307 C 0.80052 0.0835 0.96746 0.0
H2308 H 0.95554 0.73519 0.96315 0.0
H2309 H 0.92442 0.69373 0.04747 0.0
H2310 H 0.94186 0.70852 0.91994 0.0
H2311 H 0.90963 0.66692 1.00416 0.0
H2312 H 0.89727 0.61777 0.92418 0.0
H2313 H 0.91004 0.64439 0.96762 0.0
H2314 H 0.91893 0.68599 0.88365 0.0
H2315 H 0.90719 0.65932 0.84021 0.0
C2316 C 0.94542 0.72037 0.97252 0.0
C2317 C 0.94116 0.7169 1.00921 0.0
C2318 C 0.93734 0.70481 0.94738 0.0
C2319 C 0.92429 0.68494 0.95753 0.0
C2320 C 0.91978 0.68161 0.99439 0.0
C2321 C 0.92816 0.69719 1.01962 0.0
C2322 C 0.90185 0.63259 0.91494 0.0
C2323 C 0.90103 0.63613 0.87828 0.0
C2324 C 0.90919 0.64811 0.94019 0.0
C2325 C 0.91585 0.66797 0.93016 0.0
C2326 C 0.91457 0.67133 0.89334 0.0
C2327 C 0.90753 0.65582 0.86802 0.0
H2328 H 0.27293 0.36374 0.70701 0.0
H2329 H 0.28003 0.40539 0.625 0.0
H2330 H 0.25929 0.33704 0.66353 0.0
H2331 H 0.2656 0.37865 0.58149 0.0
H2332 H 0.2552 0.32972 0.50131 0.0
H2333 H 0.26795 0.35661 0.54456 0.0
H2334 H 0.23478 0.31468 0.62764 0.0
H2335 H 0.22285 0.28788 0.58449 0.0
C2336 C 0.2713 0.36723 0.67974 0.0
C2337 C 0.27764 0.38697 0.67 0.0
C2338 C 0.26329 0.35172 0.65443 0.0
C2339 C 0.26106 0.35515 0.61809 0.0
C2340 C 0.26719 0.37497 0.60861 0.0
C2341 C 0.27537 0.3905 0.6339 0.0
C2342 C 0.25049 0.32622 0.52877 0.0
C2343 C 0.23783 0.30638 0.53895 0.0
C2344 C 0.25781 0.34182 0.55394 0.0
C2345 C 0.25271 0.33834 0.59052 0.0
C2346 C 0.23967 0.31843 0.60036 0.0
C2347 C 0.23253 0.30285 0.57525 0.0
H2348 H 0.70039 0.91788 0.50476 0.0
H2349 H 0.74037 0.95299 0.588 0.0
H2350 H 0.67333 0.90326 0.54783 0.0
H2351 H 0.71346 0.93939 0.63069 0.0
H2352 H 0.66449 0.90509 0.71121 0.0
H2353 H 0.69141 0.91662 0.66828 0.0
H2354 H 0.64989 0.90371 0.58252 0.0
H2355 H 0.62304 0.89128 0.62562 0.0
C2356 C 0.70349 0.9225 0.53229 0.0
C2357 C 0.72289 0.93661 0.54248 0.0
C2358 C 0.68776 0.91422 0.55734 0.0
C2359 C 0.69059 0.91987 0.59375 0.0
C2360 C 0.71014 0.93398 0.60367 0.0
C2361 C 0.72584 0.94202 0.57877 0.0
C2362 C 0.66104 0.9045 0.68315 0.0
C2363 C 0.6413 0.89701 0.67236 0.0
C2364 C 0.6767 0.91142 0.6581 0.0
C2365 C 0.67346 0.91152 0.62091 0.0
C2366 C 0.65355 0.90383 0.61031 0.0
C2367 C 0.63789 0.89667 0.63536 0.0
H2368 H 0.14583 0.74817 0.62799 0.0
H2369 H 0.11319 0.75734 0.71066 0.0
H2370 H 0.13386 0.76293 0.58451 0.0
H2371 H 0.10038 0.7713 0.66713 0.0
H2372 H 0.08759 0.80734 0.58652 0.0
H2373 H 0.10234 0.7954 0.63012 0.0
H2374 H 0.10957 0.76081 0.54821 0.0
H2375 H 0.09564 0.77357 0.50459 0.0
C2376 C 0.1361 0.75339 0.63705 0.0
C2377 C 0.13073 0.75157 0.67331 0.0
C2378 C 0.12893 0.76174 0.61176 0.0
C2379 C 0.11578 0.76848 0.62136 0.0
C2380 C 0.11062 0.7668 0.65791 0.0
C2381 C 0.11798 0.75863 0.68326 0.0
C2382 C 0.09253 0.79735 0.57766 0.0
C2383 C 0.09042 0.79166 0.54156 0.0
C2384 C 0.10089 0.79021 0.60302 0.0
C2385 C 0.10735 0.7768 0.59362 0.0
C2386 C 0.10531 0.77127 0.55726 0.0
C2387 C 0.09714 0.7786 0.53186 0.0
H2388 H 0.62099 0.74463 0.12046 0.0
H2389 H 0.66254 0.75187 0.20246 0.0
H2390 H 0.64776 0.75942 0.07701 0.0
H2391 H 0.68928 0.76587 0.15902 0.0
H2392 H 0.73838 0.80295 0.0801 0.0
H2393 H 0.71153 0.79064 0.12326 0.0
H2394 H 0.66995 0.75745 0.04004 0.0
H2395 H 0.69688 0.77058 0.99681 0.0
C2396 C 0.63587 0.74939 0.12936 0.0
C2397 C 0.63936 0.74705 0.16544 0.0
C2398 C 0.65141 0.75778 0.1041 0.0
C2399 C 0.67122 0.76407 0.11361 0.0
C2400 C 0.67461 0.76176 0.14992 0.0
C2401 C 0.65908 0.75353 0.1752 0.0
C2402 C 0.72348 0.7932 0.07084 0.0
C2403 C 0.72005 0.78801 0.03451 0.0
C2404 C 0.70788 0.78583 0.09594 0.0
C2405 C 0.68805 0.77267 0.08606 0.0
C2406 C 0.68467 0.76768 0.04945 0.0
C2407 C 0.70029 0.77523 0.02429 0.0
H2408 H 0.21614 0.93691 0.0858 0.0
H2409 H 0.25152 0.93093 1.00446 0.0
H2410 H 0.22838 0.92258 0.12948 0.0
H2411 H 0.26459 0.91731 0.04839 0.0
H2412 H 0.27796 0.88172 0.12962 0.0
H2413 H 0.26319 0.89324 0.08525 0.0
H2414 H 0.25259 0.92562 0.16699 0.0
H2415 H 0.26661 0.91331 0.21131 0.0
C2416 C 0.22654 0.93247 0.07706 0.0
C2417 C 0.23258 0.93505 0.04109 0.0
C2418 C 0.23387 0.92437 0.10251 0.0
C2419 C 0.24788 0.91866 0.09346 0.0
C2420 C 0.25371 0.92105 0.05717 0.0
C2421 C 0.24618 0.92899 0.03159 0.0
C2422 C 0.27227 0.89111 0.13828 0.0
C2423 C 0.27347 0.89631 0.17455 0.0
C2424 C 0.26389 0.89801 0.11247 0.0
C2425 C 0.25646 0.91066 0.12158 0.0
C2426 C 0.2576 0.91571 0.15811 0.0
C2427 C 0.26582 0.90865 0.18394 0.0
H2428 H 0.11155 0.3612 0.21213 0.0
H2429 H 0.14318 0.40343 0.12904 0.0
H2430 H 0.09912 0.33443 0.16874 0.0
H2431 H 0.13146 0.37669 0.08562 0.0
H2432 H 0.09293 0.3267 1.0069 0.0
H2433 H 0.10662 0.35374 0.04996 0.0
H2434 H 0.1027 0.31307 0.13195 0.0
H2435 H 0.08835 0.2861 0.08908 0.0
C2436 C 0.11617 0.36481 0.18465 0.0
C2437 C 0.12856 0.38472 0.17456 0.0
C2438 C 0.10904 0.34929 0.1594 0.0
C2439 C 0.11405 0.35289 0.12281 0.0
C2440 C 0.12673 0.37288 0.11298 0.0
C2441 C 0.13374 0.3884 0.13821 0.0
C2442 C 0.09515 0.32353 0.03404 0.0
C2443 C 0.08948 0.30398 0.04405 0.0
C2444 C 0.10315 0.3392 0.05909 0.0
C2445 C 0.10595 0.33607 0.09532 0.0
C2446 C 0.10059 0.31648 0.10494 0.0
C2447 C 0.09247 0.30083 0.07998 0.0
H2448 H 0.77771 0.69537 0.53979 0.0
H2449 H 0.81377 0.73621 0.458 0.0
H2450 H 0.76415 0.66854 0.49642 0.0
H2451 H 0.80095 0.70939 0.41474 0.0
H2452 H 0.76164 0.66143 0.3341 0.0
H2453 H 0.77623 0.68815 0.37761 0.0
H2454 H 0.76555 0.64557 0.46062 0.0
H2455 H 0.75027 0.61894 0.41712 0.0
C2456 C 0.78306 0.69863 0.51265 0.0
C2457 C 0.79703 0.71819 0.50287 0.0
C2458 C 0.77526 0.68307 0.4874 0.0
C2459 C 0.78116 0.68629 0.45117 0.0
C2460 C 0.79546 0.7059 0.44174 0.0
C2461 C 0.8031 0.72146 0.46692 0.0
C2462 C 0.76253 0.65774 0.36159 0.0
C2463 C 0.75471 0.63778 0.37163 0.0
C2464 C 0.77107 0.67324 0.38692 0.0
C2465 C 0.77233 0.66953 0.42353 0.0
C2466 C 0.76475 0.64948 0.43328 0.0
C2467 C 0.75607 0.63401 0.40799 0.0
H2468 H 0.29116 0.08265 0.46313 0.0
H2469 H 0.33362 0.09205 0.54473 0.0
H2470 H 0.31751 0.09724 0.419 0.0
H2471 H 0.36004 0.10586 0.50054 0.0
H2472 H 0.4083 0.14146 0.4186 0.0
H2473 H 0.38202 0.12962 0.46296 0.0
H2474 H 0.33939 0.09532 0.38188 0.0
H2475 H 0.36567 0.10797 0.33756 0.0
C2476 C 0.30617 0.08787 0.47182 0.0
C2477 C 0.31 0.08617 0.508 0.0
C2478 C 0.3215 0.09614 0.44613 0.0
C2479 C 0.34146 0.1029 0.4552 0.0
C2480 C 0.34523 0.10132 0.49167 0.0
C2481 C 0.32989 0.09324 0.51742 0.0
C2482 C 0.39328 0.13156 0.41008 0.0
C2483 C 0.38937 0.12594 0.37398 0.0
C2484 C 0.378 0.12447 0.43589 0.0
C2485 C 0.35802 0.11117 0.42699 0.0
C2486 C 0.3542 0.1057 0.39063 0.0
C2487 C 0.36947 0.11297 0.36479 0.0
H2488 H 0.88865 0.27654 0.42443 0.0
H2489 H 0.92295 0.26904 0.34284 0.0
H2490 H 0.90033 0.26155 0.46804 0.0
H2491 H 0.93548 0.25491 0.38649 0.0
H2492 H 0.94767 0.21819 0.4661 0.0
H2493 H 0.93322 0.23042 0.4225 0.0
H2494 H 0.92409 0.2633 0.50533 0.0
H2495 H 0.9377 0.2502 0.54893 0.0
C2496 C 0.89872 0.27169 0.41566 0.0
C2497 C 0.90463 0.27401 0.37967 0.0
C2498 C 0.9057 0.26318 0.44102 0.0
C2499 C 0.91918 0.25682 0.43172 0.0
C2500 C 0.92495 0.25909 0.39545 0.0
C2501 C 0.91777 0.26738 0.37005 0.0
C2502 C 0.94236 0.22785 0.47515 0.0
C2503 C 0.94384 0.23296 0.51148 0.0
C2504 C 0.93418 0.23517 0.44981 0.0
C2505 C 0.92733 0.24822 0.45946 0.0
C2506 C 0.92869 0.25314 0.49606 0.0
C2507 C 0.93667 0.24561 0.52145 0.0
H2508 H 0.03187 0.60106 0.17194 0.0
H2509 H 0.07345 0.60877 0.2542 0.0
H2510 H 1.00515 0.58744 0.21551 0.0
H2511 H 0.04674 0.59438 0.29776 0.0
H2512 H 0.99802 0.58419 0.37787 0.0
H2513 H 0.02475 0.59688 0.33435 0.0
H2514 H 0.98283 0.56306 0.25201 0.0
H2515 H 0.95613 0.55116 0.29551 0.0
C2516 C 0.03534 0.59957 0.19928 0.0
C2517 C 0.05507 0.60609 0.20908 0.0
C2518 C 0.01983 0.59158 0.22464 0.0
C2519 C 0.02325 0.58955 0.26107 0.0
C2520 C 0.04306 0.59583 0.27059 0.0
C2521 C 0.05857 0.60399 0.24526 0.0
C2522 C 0.99448 0.57932 0.35052 0.0
C2523 C 0.97466 0.56647 0.34068 0.0
C2524 C 1.00999 0.5866 0.32519 0.0
C2525 C 1.00648 0.58127 0.28875 0.0
C2526 C 0.98659 0.56809 0.2792 0.0
C2527 C 0.97107 0.56097 0.30449 0.0
H2528 H 0.42439 0.43755 0.16886 0.0
H2529 H 0.41545 0.47023 0.25178 0.0
H2530 H 0.43823 0.42452 0.21225 0.0
H2531 H 0.42998 0.45794 0.29513 0.0
H2532 H 0.4404 0.41913 0.37445 0.0
H2533 H 0.42743 0.43299 0.33101 0.0
H2534 H 0.46285 0.42714 0.24906 0.0
H2535 H 0.4751 0.41256 0.29245 0.0
C2536 C 0.42564 0.44225 0.1963 0.0
C2537 C 0.41873 0.45511 0.20636 0.0
C2538 C 0.43375 0.43477 0.22154 0.0
C2539 C 0.43546 0.4399 0.25808 0.0
C2540 C 0.42879 0.45307 0.26784 0.0
C2541 C 0.42054 0.46041 0.24264 0.0
C2542 C 0.44555 0.4209 0.34721 0.0
C2543 C 0.45896 0.41465 0.33742 0.0
C2544 C 0.43811 0.42903 0.32194 0.0
C2545 C 0.44383 0.43144 0.28565 0.0
C2546 C 0.45753 0.4254 0.27614 0.0
C2547 C 0.46483 0.41713 0.30137 0.0
H2548 H 0.60262 0.02978 0.37275 0.0
H2549 H 0.61167 0.07113 0.28888 0.0
H2550 H 0.58838 1.00266 0.33002 0.0
H2551 H 0.59677 0.04405 0.24612 0.0
H2552 H 0.58545 0.99388 0.16797 0.0
H2553 H 0.59864 0.02116 0.21051 0.0
H2554 H 0.56363 0.98049 0.29384 0.0
H2555 H 0.55116 0.95329 0.25142 0.0
C2556 C 0.60127 0.03313 0.34525 0.0
C2557 C 0.60832 0.05291 0.33478 0.0
C2558 C 0.59294 0.01738 0.32036 0.0
C2559 C 0.59114 0.02062 0.28371 0.0
C2560 C 0.59798 0.04049 0.27351 0.0
C2561 C 0.60643 0.05622 0.29838 0.0
C2562 C 0.5804 0.99075 0.1953 0.0
C2563 C 0.56703 0.97112 0.20575 0.0
C2564 C 0.588 1.00658 0.22007 0.0
C2565 C 0.58251 1.00357 0.25653 0.0
C2566 C 0.56881 0.98387 0.26664 0.0
C2567 C 0.56135 0.96807 0.24193 0.0
H2568 H 0.4466 0.02798 0.87923 0.0
H2569 H 0.48002 0.06914 0.79588 0.0
H2570 H 0.43292 1.00099 0.83597 0.0
H2571 H 0.46718 0.0423 0.75284 0.0
H2572 H 0.42772 0.99437 0.67314 0.0
H2573 H 0.44224 0.02083 0.71697 0.0
H2574 H 0.43375 0.97821 0.79851 0.0
H2575 H 0.41847 0.95172 0.7546 0.0
C2576 C 0.4514 0.03128 0.85178 0.0
C2577 C 0.46463 0.05098 0.84153 0.0
C2578 C 0.4435 0.01564 0.82659 0.0
C2579 C 0.44857 0.01895 0.78995 0.0
C2580 C 0.46225 0.03869 0.78013 0.0
C2581 C 0.46994 0.05429 0.80521 0.0
C2582 C 0.42905 0.99059 0.70037 0.0
C2583 C 0.42185 0.97065 0.70982 0.0
C2584 C 0.43758 1.00597 0.7259 0.0
C2585 C 0.43952 1.00221 0.76221 0.0
C2586 C 0.43248 0.98217 0.77143 0.0
C2587 C 0.42378 0.96678 0.7459 0.0
H2588 H 0.95636 0.41254 0.79635 0.0
H2589 H 0.99829 0.42378 0.88001 0.0
H2590 H 0.98306 0.42671 0.75283 0.0
H2591 H 0.02507 0.43721 0.83651 0.0
H2592 H 0.0737 0.47243 0.75483 0.0
H2593 H 0.04703 0.46083 0.79838 0.0
H2594 H 1.00545 0.42419 0.71774 0.0
H2595 H 0.03211 0.43656 0.67414 0.0
C2596 C 0.97132 0.4181 0.80563 0.0
C2597 C 0.97491 0.41703 0.84218 0.0
C2598 C 0.98685 0.42611 0.78032 0.0
C2599 C 1.00677 0.43326 0.79022 0.0
C2600 C 1.01029 0.43234 0.82703 0.0
C2601 C 0.99475 0.42449 0.85237 0.0
C2602 C 0.05883 0.46203 0.74623 0.0
C2603 C 0.05531 0.45566 0.71048 0.0
C2604 C 0.04334 0.4551 0.77157 0.0
C2605 C 0.02354 0.44126 0.76251 0.0
C2606 C 0.02011 0.43501 0.7265 0.0
C2607 C 0.03559 0.4421 0.70112 0.0
H2608 H 0.55521 0.61 0.74829 0.0
H2609 H 0.58667 0.59936 0.66531 0.0
H2610 H 0.56772 0.5959 0.7921 0.0
H2611 H 0.59997 0.58601 0.70912 0.0
H2612 H 0.613 0.55053 0.79089 0.0
H2613 H 0.59809 0.56221 0.7471 0.0
H2614 H 0.59252 0.59847 0.82772 0.0
H2615 H 0.60665 0.58601 0.87157 0.0
C2616 C 0.56481 0.60462 0.73923 0.0
C2617 C 0.56968 0.60582 0.70279 0.0
C2618 C 0.57228 0.59663 0.76471 0.0
C2619 C 0.58522 0.58964 0.75508 0.0
C2620 C 0.58992 0.59074 0.71838 0.0
C2621 C 0.58227 0.59857 0.69287 0.0
C2622 C 0.60842 0.56086 0.79943 0.0
C2623 C 0.61105 0.5671 0.83525 0.0
C2624 C 0.59995 0.56784 0.77395 0.0
C2625 C 0.59388 0.5816 0.78294 0.0
C2626 C 0.59647 0.58771 0.81901 0.0
C2627 C 0.60476 0.58057 0.84453 0.0
H2628 H 0.30636 0.3849 0.17248 0.0
H2629 H 0.35229 0.39326 0.0985 0.0
H2630 H 0.28556 0.35131 0.15008 0.0
H2631 H 0.33141 0.3602 0.07579 0.0
H2632 H 0.27512 0.28612 0.13036 0.0
H2633 H 0.28901 0.32006 0.15144 0.0
H2634 H 0.29903 0.34095 0.04269 0.0
H2635 H 0.28588 0.30729 1.02164 0.0
C2636 C 0.31201 0.37964 0.1515 0.0
C2637 C 0.33097 0.39175 0.13723 0.0
C2638 C 0.30007 0.36052 0.1386 0.0
C2639 C 0.30688 0.35342 0.11104 0.0
C2640 C 0.32568 0.36557 0.09654 0.0
C2641 C 0.33764 0.38452 0.10958 0.0
C2642 C 0.2802 0.29797 0.11102 0.0
C2643 C 0.27982 0.29415 0.07442 0.0
C2644 C 0.28784 0.31729 0.12304 0.0
C2645 C 0.2952 0.33297 0.09857 0.0
C2646 C 0.29358 0.32902 0.06198 0.0
C2647 C 0.28596 0.30976 0.04998 0.0
H2648 H 0.64136 0.93909 0.18226 0.0
H2649 H 0.63091 0.98018 0.12189 0.0
H2650 H 0.67491 0.95473 0.15931 0.0
H2651 H 0.66442 0.99555 0.09841 0.0
H2652 H 0.73932 1.00222 0.13494 0.0
H2653 H 0.70653 0.98797 0.16139 0.0
H2654 H 0.68133 0.98264 0.05676 0.0
H2655 H 0.71427 0.99729 0.03038 0.0
C2656 C 0.64633 0.95168 0.16465 0.0
C2657 C 0.63351 0.95834 0.1536 0.0
C2658 C 0.66546 0.96053 0.15142 0.0
C2659 C 0.67197 0.97609 0.12688 0.0
C2660 C 0.65947 0.98328 0.11685 0.0
C2661 C 0.64038 0.97451 0.13024 0.0
C2662 C 0.72674 0.99803 0.11771 0.0
C2663 C 0.72916 1.00089 0.08076 0.0
C2664 C 0.70807 0.98982 0.13276 0.0
C2665 C 0.69162 0.98445 0.11101 0.0
C2666 C 0.69395 0.98696 0.07398 0.0
C2667 C 0.71265 0.99507 0.05891 0.0
H2668 H 0.07578 0.70168 0.1961 0.0
H2669 H 0.08807 0.69387 0.08703 0.0
H2670 H 0.06117 0.7211 0.17587 0.0
H2671 H 0.07283 0.71282 0.06673 0.0
H2672 H 1.00758 0.71939 0.11907 0.0
H2673 H 0.02914 0.70811 0.14247 0.0
H2674 H 0.07489 0.7464 0.06887 0.0
H2675 H 0.05339 0.75813 0.04575 0.0
C2676 C 0.0757 0.70443 0.16787 0.0
C2677 C 0.08275 0.69603 0.14304 0.0
C2678 C 0.06724 0.71542 0.15634 0.0
C2679 C 0.06574 0.71819 0.11984 0.0
C2680 C 0.07391 0.71089 0.09506 0.0
C2681 C 0.08235 0.69985 0.10661 0.0
C2682 C 0.02234 0.72572 0.1083 0.0
C2683 C 0.02876 0.7396 0.0805 0.0
C2684 C 0.03469 0.71929 0.12175 0.0
C2685 C 0.05365 0.72654 0.10753 0.0
C2686 C 0.06025 0.74058 0.08006 0.0
C2687 C 0.04791 0.74714 0.06673 0.0
H2688 H 0.30061 0.29993 0.42634 0.0
H2689 H 0.30776 0.26251 0.50282 0.0
H2690 H 0.33284 0.30975 0.40173 0.0
H2691 H 0.34042 0.27277 0.47839 0.0
H2692 H 0.38558 0.3164 0.34902 0.0
H2693 H 0.35169 0.29643 0.36957 0.0
H2694 H 0.37202 0.30585 0.47857 0.0
H2695 H 0.40603 0.32527 0.45798 0.0
C2696 C 0.3089 0.29353 0.43752 0.0
C2697 C 0.30168 0.28053 0.46665 0.0
C2698 C 0.32734 0.29911 0.42333 0.0
C2699 C 0.33896 0.29187 0.43808 0.0
C2700 C 0.33167 0.27856 0.46672 0.0
C2701 C 0.31311 0.27286 0.48082 0.0
C2702 C 0.38288 0.31374 0.37729 0.0
C2703 C 0.39836 0.32271 0.40199 0.0
C2704 C 0.3635 0.30242 0.38901 0.0
C2705 C 0.35934 0.2999 0.42557 0.0
C2706 C 0.3749 0.30757 0.4502 0.0
C2707 C 0.39429 0.31891 0.43846 0.0
H2708 H 0.71366 0.01156 0.50692 0.0
H2709 H 0.73321 1.0033 0.40411 0.0
H2710 H 0.69471 0.02467 0.47778 0.0
H2711 H 0.71389 0.01591 0.375 0.0
H2712 H 0.65344 0.03665 0.41454 0.0
H2713 H 0.66601 0.01542 0.43517 0.0
H2714 H 0.71986 0.05081 0.376 0.0
H2715 H 0.70757 0.07223 0.35602 0.0
C2716 C 0.71371 0.01237 0.47814 0.0
C2717 C 0.72496 1.00662 0.45774 0.0
C2718 C 0.70268 0.01956 0.46148 0.0
C2719 C 0.70289 0.02117 0.42424 0.0
C2720 C 0.71357 0.01477 0.40378 0.0
C2721 C 0.72451 1.0075 0.42042 0.0
C2722 C 0.66791 0.03982 0.40582 0.0
C2723 C 0.67973 0.05632 0.38429 0.0
C2724 C 0.675 0.02761 0.41741 0.0
C2725 C 0.69388 0.03165 0.4073 0.0
C2726 C 0.70514 0.04731 0.38382 0.0
C2727 C 0.69811 0.05957 0.37242 0.0
H2728 H 0.94207 0.62219 0.46227 0.0
H2729 H 0.95556 0.64375 0.35399 0.0
H2730 H 0.95696 0.65613 0.48371 0.0
H2731 H 0.96977 0.67753 0.37535 0.0
H2732 H 0.97733 0.72122 0.50625 0.0
H2733 H 0.95556 0.68818 0.4824 0.0
H2734 H 1.0016 0.69553 0.4099 0.0
H2735 H 0.02339 0.72808 0.43401 0.0
C2736 C 0.94797 0.63416 0.44309 0.0
C2737 C 0.94809 0.63043 0.40657 0.0
C2738 C 0.95619 0.6535 0.4553 0.0
C2739 C 0.96464 0.66929 0.43109 0.0
C2740 C 0.96349 0.6655 0.39445 0.0
C2741 C 0.95528 0.6462 0.38227 0.0
C2742 C 0.9828 0.71571 0.48537 0.0
C2743 C 1.00207 0.72723 0.47199 0.0
C2744 C 0.97031 0.69693 0.47161 0.0
C2745 C 0.9769 0.68956 0.44413 0.0
C2746 C 0.99604 0.70113 0.43054 0.0
C2747 C 1.00853 0.71976 0.44441 0.0
H2748 H 0.72872 0.72535 0.92095 0.0
H2749 H 0.76448 0.71835 1.00113 0.0
H2750 H 0.7199 0.69334 0.89668 0.0
H2751 H 0.75515 0.68581 0.97703 0.0
H2752 H 0.71249 0.64052 0.84663 0.0
H2753 H 0.73362 0.67424 0.86685 0.0
H2754 H 0.72193 0.65427 0.97612 0.0
H2755 H 0.70143 0.62034 0.95594 0.0
C2756 C 0.73502 0.71717 0.933 0.0
C2757 C 0.74719 0.72435 0.96311 0.0
C2758 C 0.73003 0.69884 0.91898 0.0
C2759 C 0.73701 0.68726 0.93489 0.0
C2760 C 0.74959 0.69455 0.96442 0.0
C2761 C 0.75474 0.71303 0.97835 0.0
C2762 C 0.71491 0.64318 0.87492 0.0
C2763 C 0.70488 0.62788 0.89976 0.0
C2764 C 0.72694 0.66249 0.88644 0.0
C2765 C 0.72905 0.66678 0.92294 0.0
C2766 C 0.72051 0.6513 0.94779 0.0
C2767 C 0.70851 0.63195 0.93625 0.0
H2768 H 0.38453 0.0372 0.86101 0.0
H2769 H 0.40471 0.06636 0.96234 0.0
H2770 H 0.35136 0.01683 0.88553 0.0
H2771 H 0.37163 0.04694 0.98657 0.0
H2772 H 0.31188 1.00424 0.0278 0.0
H2773 H 0.34522 0.01597 1.00488 0.0
H2774 H 0.32632 0.02388 0.90079 0.0
H2775 H 0.29315 0.01139 0.92353 0.0
C2776 C 0.38175 0.03915 0.88852 0.0
C2777 C 0.39686 0.05331 0.90985 0.0
C2778 C 0.36289 0.02759 0.90257 0.0
C2779 C 0.35886 0.03042 0.93789 0.0
C2780 C 0.37428 0.04413 0.95949 0.0
C2781 C 0.39317 0.05537 0.94562 0.0
C2782 C 0.31503 1.00841 1.00004 0.0
C2783 C 0.30024 1.00708 0.97731 0.0
C2784 C 0.33398 0.01506 0.98689 0.0
C2785 C 0.33838 0.02083 0.95102 0.0
C2786 C 0.32334 0.01911 0.92831 0.0
C2787 C 0.30442 0.01216 0.94132 0.0
H2788 H 1.00779 0.30133 0.03449 0.0
H2789 H 1.00048 0.27074 0.93535 0.0
H2790 H 0.98911 0.31619 1.01052 0.0
H2791 H 0.98098 0.28454 0.91173 0.0
H2792 H 0.97248 0.3337 0.86614 0.0
H2793 H 0.98777 0.31596 0.89157 0.0
H2794 H 0.95754 0.31017 0.99123 0.0
H2795 H 0.94298 0.32874 0.9658 0.0
C2796 C 1.00186 0.29764 1.00777 0.0
C2797 C 1.00569 0.28532 0.98634 0.0
C2798 C 0.9911 0.30594 0.99411 0.0
C2799 C 0.98375 0.30165 0.9591 0.0
C2800 C 0.98688 0.28853 0.93843 0.0
C2801 C 0.99796 0.28061 0.95185 0.0
C2802 C 0.96904 0.32842 0.89332 0.0
C2803 C 0.95675 0.33254 0.91421 0.0
C2804 C 0.97766 0.31821 0.90788 0.0
C2805 C 0.97381 0.31165 0.94341 0.0
C2806 C 0.96104 0.31534 0.96399 0.0
C2807 C 0.95268 0.32586 0.94953 0.0
H2808 H 0.72338 0.75124 0.52961 0.0
H2809 H 0.73415 0.71175 0.5943 0.0
H2810 H 0.68966 0.73565 0.55201 0.0
H2811 H 0.70054 0.69645 0.61712 0.0
H2812 H 0.6252 0.68649 0.57398 0.0
H2813 H 0.65859 0.70207 0.54966 0.0
H2814 H 0.68206 0.70839 0.65604 0.0
H2815 H 0.64861 0.69242 0.68027 0.0
C2816 C 0.71847 0.73907 0.54819 0.0
C2817 C 0.7314 0.73276 0.56036 0.0
C2818 C 0.69925 0.73025 0.56109 0.0
C2819 C 0.69273 0.71506 0.58644 0.0
C2820 C 0.70545 0.70842 0.59803 0.0
C2821 C 0.72463 0.71717 0.585 0.0
C2822 C 0.63752 0.69118 0.59206 0.0
C2823 C 0.63446 0.6882 0.62889 0.0
C2824 C 0.65655 0.7002 0.57823 0.0
C2825 C 0.67272 0.70623 0.60107 0.0
C2826 C 0.66971 0.70361 0.63796 0.0
C2827 C 0.65068 0.6947 0.6518 0.0
H2828 H 0.33401 0.93896 0.58746 0.0
H2829 H 0.32674 0.95233 0.69608 0.0
H2830 H 0.31537 0.95438 0.56658 0.0
H2831 H 0.30761 0.96718 0.67529 0.0
H2832 H 0.27026 0.97387 0.54475 0.0
H2833 H 0.28207 0.95254 0.56854 0.0
H2834 H 0.32043 0.99892 0.64084 0.0
H2835 H 0.30902 0.0203 0.6168 0.0
C2836 C 0.32821 0.94498 0.60683 0.0
C2837 C 0.33209 0.94482 0.64328 0.0
C2838 C 0.31735 0.95353 0.59495 0.0
C2839 C 0.31028 0.96205 0.61942 0.0
C2840 C 0.31313 0.96084 0.65599 0.0
C2841 C 0.32394 0.95225 0.66785 0.0
C2842 C 0.28129 0.97953 0.56557 0.0
C2843 C 0.28879 0.99878 0.57885 0.0
C2844 C 0.28789 0.96729 0.57929 0.0
C2845 C 0.30197 0.9741 0.60663 0.0
C2846 C 0.30923 0.99321 0.62025 0.0
C2847 C 0.30274 1.00545 0.60644 0.0
H2848 H 0.05734 0.30341 0.54989 0.0
H2849 H 1.01329 0.29633 0.62713 0.0
H2850 H 0.08004 0.33603 0.57422 0.0
H2851 H 0.03598 0.32853 0.65163 0.0
H2852 H 0.09209 0.40152 0.59247 0.0
H2853 H 0.07826 0.36738 0.57318 0.0
H2854 H 0.06825 0.34804 0.68289 0.0
H2855 H 0.08133 0.38203 0.70215 0.0
C2856 C 0.05253 0.30876 0.57208 0.0
C2857 C 0.03346 0.29742 0.58638 0.0
C2858 C 0.06557 0.32729 0.58614 0.0
C2859 C 0.05974 0.33463 0.61484 0.0
C2860 C 0.04097 0.323 0.62995 0.0
C2861 C 0.02794 0.30458 0.61581 0.0
C2862 C 0.08708 0.38999 0.61243 0.0
C2863 C 0.08728 0.39434 0.64872 0.0
C2864 C 0.07949 0.37052 0.60144 0.0
C2865 C 0.07202 0.35518 0.62663 0.0
C2866 C 0.07375 0.35968 0.66303 0.0
C2867 C 0.08131 0.37913 0.674 0.0
H2868 H 0.05586 0.6409 0.70886 0.0
H2869 H 0.06563 0.68943 0.77725 0.0
H2870 H 0.02253 0.62119 0.73284 0.0
H2871 H 0.03259 0.66965 0.80148 0.0
H2872 H 0.95773 0.60804 0.75316 0.0
H2873 H 0.9915 0.62382 0.7307 0.0
H2874 H 1.01361 0.6387 0.83829 0.0
H2875 H 0.97986 0.62341 0.86063 0.0
C2876 C 0.05087 0.64737 0.72884 0.0
C2877 C 0.06331 0.66668 0.74124 0.0
C2878 C 0.0319 0.63607 0.74264 0.0
C2879 C 0.02521 0.64392 0.76912 0.0
C2880 C 0.03763 0.66317 0.78156 0.0
C2881 C 0.0565 0.67448 0.76768 0.0
C2882 C 0.96983 0.61467 0.77192 0.0
C2883 C 0.9663 0.61481 0.80852 0.0
C2884 C 0.98907 0.62344 0.75916 0.0
C2885 C 1.005 0.63252 0.78286 0.0
C2886 C 1.00147 0.63192 0.81956 0.0
C2887 C 0.98224 0.62308 0.83232 0.0
H2888 H 0.39145 0.33809 0.75576 0.0
H2889 H 0.4297 0.38494 0.82752 0.0
H2890 H 0.3797 0.35912 0.73118 0.0
H2891 H 0.41768 0.40592 0.80315 0.0
H2892 H 0.37096 0.40538 0.67856 0.0
H2893 H 0.39052 0.39058 0.69735 0.0
H2894 H 0.38429 0.40308 0.80708 0.0
H2895 H 0.36522 0.41839 0.78818 0.0
C2896 C 0.3976 0.35298 0.76584 0.0
C2897 C 0.4113 0.35979 0.79383 0.0
C2898 C 0.39091 0.36503 0.75172 0.0
C2899 C 0.3978 0.38407 0.76541 0.0
C2900 C 0.41203 0.39119 0.79249 0.0
C2901 C 0.41877 0.37915 0.80654 0.0
C2902 C 0.37415 0.40535 0.70658 0.0
C2903 C 0.36642 0.41278 0.73202 0.0
C2904 C 0.3852 0.39679 0.7173 0.0
C2905 C 0.38874 0.39564 0.75358 0.0
C2906 C 0.38185 0.40394 0.77889 0.0
C2907 C 0.37074 0.41243 0.76817 0.0
H2908 H 0.68527 0.05901 0.75392 0.0
H2909 H 0.64291 0.05203 0.83483 0.0
H2910 H 0.66224 0.0267 0.73061 0.0
H2911 H 0.6199 0.0192 0.81172 0.0
H2912 H 0.61673 0.97325 0.68225 0.0
H2913 H 0.62925 1.00703 0.70174 0.0
H2914 H 0.62216 0.98792 0.81143 0.0
H2915 H 0.60868 0.95385 0.79204 0.0
C2916 C 0.67092 0.05077 0.76634 0.0
C2917 C 0.66601 0.05804 0.79641 0.0
C2918 C 0.65767 0.03227 0.75288 0.0
C2919 C 0.6393 0.0206 0.76933 0.0
C2920 C 0.63405 0.02799 0.79875 0.0
C2921 C 0.64729 0.04665 0.8121 0.0
C2922 C 0.61723 0.97608 0.71051 0.0
C2923 C 0.61221 0.96095 0.73564 0.0
C2924 C 0.62447 0.99544 0.7216 0.0
C2925 C 0.62693 1.0 0.75797 0.0
C2926 C 0.62036 0.98472 0.78318 0.0
C2927 C 0.61301 0.9653 0.77208 0.0
H2928 H 0.41863 0.06819 0.2526 0.0
H2929 H 0.40499 0.04772 0.36146 0.0
H2930 H 0.40358 0.03405 0.23226 0.0
H2931 H 0.39057 0.01369 0.34122 0.0
H2932 H 0.38537 0.96947 0.21213 0.0
H2933 H 0.40609 1.00287 0.23529 0.0
H2934 H 0.35913 0.9943 0.30658 0.0
H2935 H 0.33838 0.96127 0.28319 0.0
C2936 C 0.4126 0.05641 0.27213 0.0
C2937 C 0.41262 0.0605 0.3085 0.0
C2938 C 0.40428 0.03695 0.26057 0.0
C2939 C 0.39585 0.02139 0.28527 0.0
C2940 C 0.39685 0.02553 0.32175 0.0
C2941 C 0.40519 0.04496 0.33329 0.0
C2942 C 0.37947 0.97479 0.23261 0.0
C2943 C 0.36025 0.96282 0.24581 0.0
C2944 C 0.39135 0.99378 0.24595 0.0
C2945 C 0.38418 1.00094 0.27281 0.0
C2946 C 0.36511 0.98889 0.28636 0.0
C2947 C 0.35323 0.97001 0.27293 0.0
H2948 H 0.04913 0.3945 0.19199 0.0
H2949 H 0.07421 0.42567 0.29004 0.0
H2950 H 0.01608 0.38232 0.21553 0.0
H2951 H 0.04113 0.41436 0.31343 0.0
H2952 H 0.9828 0.36369 0.35859 0.0
H2953 H 0.01585 0.38364 0.33448 0.0
H2954 H 0.99102 0.38856 0.23453 0.0
H2955 H 0.95787 0.3677 0.25864 0.0
C2956 C 0.04745 0.39909 0.21831 0.0
C2957 C 0.06398 0.41068 0.23954 0.0
C2958 C 0.02857 0.39229 0.23175 0.0
C2959 C 0.02597 0.39728 0.26648 0.0
C2960 C 0.04265 0.4099 0.28688 0.0
C2961 C 0.06152 0.41638 0.27362 0.0
C2962 C 0.98452 0.36934 0.33169 0.0
C2963 C 0.96801 0.36407 0.31018 0.0
C2964 C 1.00341 0.38088 0.31789 0.0
C2965 C 1.00607 0.38762 0.28248 0.0
C2966 C 0.98944 0.38325 0.26166 0.0
C2967 C 0.97053 0.37138 0.27533 0.0
H2968 H 0.6188 0.65124 0.1804 0.0
H2969 H 0.60601 0.65968 0.28874 0.0
H2970 H 0.63372 0.63227 0.2019 0.0
H2971 H 0.62148 0.6412 0.3103 0.0
H2972 H 0.68738 0.63495 0.26046 0.0
H2973 H 0.6656 0.64558 0.23557 0.0
H2974 H 0.61996 0.60806 0.31004 0.0
H2975 H 0.64171 0.59703 0.3347 0.0
C2976 C 0.61885 0.64872 0.20873 0.0
C2977 C 0.61159 0.65717 0.23299 0.0
C2978 C 0.62747 0.63799 0.22099 0.0
C2979 C 0.62889 0.63554 0.25767 0.0
C2980 C 0.62048 0.64287 0.28186 0.0
C2981 C 0.6119 0.65364 0.26958 0.0
C2982 C 0.6726 0.62866 0.27113 0.0
C2983 C 0.66629 0.6152 0.29961 0.0
C2984 C 0.66012 0.63471 0.25681 0.0
C2985 C 0.64111 0.62749 0.27081 0.0
C2986 C 0.63462 0.61386 0.29897 0.0
C2987 C 0.64711 0.60769 0.3132 0.0
loop_
_geom_bond_atom_site_label_1
_geom_bond_atom_site_label_2
_geom_bond_distance
_geom_bond_site_symmetry_2
_ccdc_geom_bond_type
Co0 N4 2.148 . S
Co0 N10 2.128 . S
Co0 N20 2.194 . S
Co0 O25 2.351 1_554 S
Co0 O26 2.155 . S
Co0 O27 2.096 . S
C1 N4 1.301 . S
C1 N5 1.328 . S
C1 H6 0.930 1_554 S
C2 C3 1.333 . S
C2 N4 1.317 . S
C2 H7 0.930 . S
C3 C2 1.333 . S
C3 N5 1.350 . S
C3 H29 0.931 . S
N4 Co0 2.148 . S
N4 C1 1.301 . S
N4 C2 1.317 . S
N5 C1 1.328 . S
N5 C3 1.350 . S
H6 C1 0.930 1_556 S
H7 C2 0.930 . S
C8 O9 1.224 . S
C8 O27 1.247 . S
O9 C8 1.224 . S
N10 Co0 2.128 . S
N10 C11 1.355 . S
N10 C13 1.311 . S
C11 N10 1.355 . S
C11 C12 1.363 . S
C11 H23 0.929 . S
C12 C11 1.363 . S
C12 N14 1.375 . S
C12 H30 0.931 . S
C13 N10 1.311 . S
C13 N14 1.347 . S
C13 H24 0.929 . S
N14 C12 1.375 . S
N14 C13 1.347 . S
C15 C18 1.365 . S
C15 N20 1.328 1_556 S
C15 H21 0.929 . S
C16 C17 1.362 . S
C16 C19 1.378 . S
C16 H31 0.929 . S
C17 C16 1.362 . S
C17 C18 1.366 1_554 S
C18 C15 1.365 . S
C18 C17 1.366 1_556 S
C18 H32 0.930 . S
C19 C16 1.378 . S
C19 N20 1.315 . S
C19 H22 0.930 . S
N20 Co0 2.194 . S
N20 C15 1.328 1_554 S
N20 C19 1.315 . S
H21 C15 0.929 . S
H22 C19 0.930 . S
H23 C11 0.929 . S
H24 C13 0.929 . S
O25 Co0 2.351 1_556 S
O25 C28 1.244 1_556 S
O26 Co0 2.155 . S
O26 C28 1.240 . S
O27 Co0 2.096 . S
O27 C8 1.247 . S
C28 O25 1.244 1_554 S
C28 O26 1.240 . S
H29 C3 0.931 . S
H30 C12 0.931 . S
H31 C16 0.929 . S
H32 C18 0.930 . S
Co33 N37 2.148 . S
Co33 N43 2.128 1_545 S
Co33 N53 2.194 1_545 S
Co33 O58 2.351 1_554 S
Co33 O59 2.155 . S
Co33 O60 2.096 . S
C34 N37 1.301 . S
C34 N38 1.328 . S
C34 H39 0.930 1_554 S
C35 C36 1.333 . S
C35 N37 1.317 . S
C35 H40 0.930 . S
C36 C35 1.333 . S
C36 N38 1.350 . S
C36 H62 0.931 . S
N37 Co33 2.148 . S
N37 C34 1.301 . S
N37 C35 1.317 . S
N38 C34 1.328 . S
N38 C36 1.350 . S
H39 C34 0.930 1_556 S
H40 C35 0.930 . S
C41 O42 1.224 . S
C41 O60 1.247 . S
O42 C41 1.224 . S
N43 Co33 2.128 1_565 S
N43 C44 1.355 . S
N43 C46 1.311 . S
C44 N43 1.355 . S
C44 C45 1.363 . S
C44 H56 0.929 . S
C45 C44 1.363 . S
C45 N47 1.375 . S
C45 H63 0.931 . S
C46 N43 1.311 . S
C46 N47 1.347 . S
C46 H57 0.929 . S
N47 C45 1.375 . S
N47 C46 1.347 . S
C48 C51 1.365 . S
C48 N53 1.328 1_556 S
C48 H54 0.929 1_565 S
C49 C50 1.362 . S
C49 C52 1.378 . S
C49 H64 0.929 . S
C50 C49 1.362 . S
C50 C51 1.366 1_554 S
C51 C48 1.365 . S
C51 C50 1.366 1_556 S
C51 H65 0.930 . S
C52 C49 1.378 . S
C52 N53 1.315 . S
C52 H55 0.930 . S
N53 Co33 2.194 1_565 S
N53 C48 1.328 1_554 S
N53 C52 1.315 . S
H54 C48 0.929 1_545 S
H55 C52 0.930 . S
H56 C44 0.929 . S
H57 C46 0.929 . S
O58 Co33 2.351 1_556 S
O58 C61 1.244 1_556 S
O59 Co33 2.155 . S
O59 C61 1.240 . S
O60 Co33 2.096 . S
O60 C41 1.247 . S
C61 O58 1.244 1_554 S
C61 O59 1.240 . S
H62 C36 0.931 . S
H63 C45 0.931 . S
H64 C49 0.929 . S
H65 C51 0.930 . S
Co66 N70 2.148 . S
Co66 N76 2.128 1_655 S
Co66 N86 2.194 1_655 S
Co66 O91 2.351 1_554 S
Co66 O92 2.155 . S
Co66 O93 2.096 . S
C67 N70 1.301 . S
C67 N71 1.328 . S
C67 H72 0.930 1_554 S
C68 C69 1.333 . S
C68 N70 1.317 . S
C68 H73 0.930 . S
C69 C68 1.333 . S
C69 N71 1.350 . S
C69 H95 0.931 . S
N70 Co66 2.148 . S
N70 C67 1.301 . S
N70 C68 1.317 . S
N71 C67 1.328 . S
N71 C69 1.350 . S
H72 C67 0.930 1_556 S
H73 C68 0.930 . S
C74 O75 1.224 . S
C74 O93 1.247 . S
O75 C74 1.224 . S
N76 Co66 2.128 1_455 S
N76 C77 1.355 . S
N76 C79 1.311 . S
C77 N76 1.355 . S
C77 C78 1.363 . S
C77 H89 0.929 . S
C78 C77 1.363 . S
C78 N80 1.375 . S
C78 H96 0.931 . S
C79 N76 1.311 . S
C79 N80 1.347 . S
C79 H90 0.929 . S
N80 C78 1.375 . S
N80 C79 1.347 . S
C81 C84 1.365 . S
C81 N86 1.328 1_556 S
C81 H87 0.929 1_455 S
C82 C83 1.362 . S
C82 C85 1.378 . S
C82 H97 0.929 . S
C83 C82 1.362 . S
C83 C84 1.366 1_554 S
C84 C81 1.365 . S
C84 C83 1.366 1_556 S
C84 H98 0.930 . S
C85 C82 1.378 . S
C85 N86 1.315 . S
C85 H88 0.930 . S
N86 Co66 2.194 1_455 S
N86 C81 1.328 1_554 S
N86 C85 1.315 . S
H87 C81 0.929 1_655 S
H88 C85 0.930 . S
H89 C77 0.929 . S
H90 C79 0.929 . S
O91 Co66 2.351 1_556 S
O91 C94 1.244 1_556 S
O92 Co66 2.155 . S
O92 C94 1.240 . S
O93 Co66 2.096 . S
O93 C74 1.247 . S
C94 O91 1.244 1_554 S
C94 O92 1.240 . S
H95 C69 0.931 . S
H96 C78 0.931 . S
H97 C82 0.929 . S
H98 C84 0.930 . S
Co99 N103 2.148 . S
Co99 N109 2.128 . S
Co99 N119 2.194 . S
Co99 O124 2.351 . S
Co99 O125 2.155 . S
Co99 O126 2.096 . S
C100 N103 1.301 . S
C100 N104 1.328 . S
C100 H105 0.930 . S
C101 C102 1.333 . S
C101 N103 1.317 . S
C101 H106 0.930 . S
C102 C101 1.333 . S
C102 N104 1.350 . S
C102 H128 0.931 . S
N103 Co99 2.148 . S
N103 C100 1.301 . S
N103 C101 1.317 . S
N104 C100 1.328 . S
N104 C102 1.350 . S
H105 C100 0.930 . S
H106 C101 0.930 . S
C107 O108 1.224 . S
C107 O126 1.247 . S
O108 C107 1.224 . S
N109 Co99 2.128 . S
N109 C110 1.355 . S
N109 C112 1.311 . S
C110 N109 1.355 . S
C110 C111 1.363 . S
C110 H122 0.929 . S
C111 C110 1.363 . S
C111 N113 1.375 . S
C111 H129 0.931 . S
C112 N109 1.311 . S
C112 N113 1.347 . S
C112 H123 0.929 . S
N113 C111 1.375 . S
N113 C112 1.347 . S
C114 C117 1.365 . S
C114 N119 1.328 . S
C114 H120 0.929 . S
C115 C116 1.362 . S
C115 C118 1.378 . S
C115 H130 0.929 . S
C116 C115 1.362 . S
C116 C117 1.366 . S
C117 C114 1.365 . S
C117 C116 1.366 . S
C117 H131 0.930 . S
C118 C115 1.378 . S
C118 N119 1.315 . S
C118 H121 0.930 . S
N119 Co99 2.194 . S
N119 C114 1.328 . S
N119 C118 1.315 . S
H120 C114 0.929 . S
H121 C118 0.930 . S
H122 C110 0.929 . S
H123 C112 0.929 . S
O124 Co99 2.351 . S
O124 C127 1.244 . S
O125 Co99 2.155 . S
O125 C127 1.240 . S
O126 Co99 2.096 . S
O126 C107 1.247 . S
C127 O124 1.244 . S
C127 O125 1.240 . S
H128 C102 0.931 . S
H129 C111 0.931 . S
H130 C115 0.929 . S
H131 C117 0.930 . S
Co132 N136 2.148 . S
Co132 N142 2.128 1_565 S
Co132 N152 2.194 1_565 S
Co132 O157 2.351 . S
Co132 O158 2.155 . S
Co132 O159 2.096 . S
C133 N136 1.301 . S
C133 N137 1.328 . S
C133 H138 0.930 . S
C134 C135 1.333 . S
C134 N136 1.317 . S
C134 H139 0.930 . S
C135 C134 1.333 . S
C135 N137 1.350 . S
C135 H161 0.931 . S
N136 Co132 2.148 . S
N136 C133 1.301 . S
N136 C134 1.317 . S
N137 C133 1.328 . S
N137 C135 1.350 . S
H138 C133 0.930 . S
H139 C134 0.930 . S
C140 O141 1.224 . S
C140 O159 1.247 . S
O141 C140 1.224 . S
N142 Co132 2.128 1_545 S
N142 C143 1.355 . S
N142 C145 1.311 . S
C143 N142 1.355 . S
C143 C144 1.363 . S
C143 H155 0.929 . S
C144 C143 1.363 . S
C144 N146 1.375 . S
C144 H162 0.931 . S
C145 N142 1.311 . S
C145 N146 1.347 . S
C145 H156 0.929 . S
N146 C144 1.375 . S
N146 C145 1.347 . S
C147 C150 1.365 . S
C147 N152 1.328 . S
C147 H153 0.929 1_545 S
C148 C149 1.362 . S
C148 C151 1.378 . S
C148 H163 0.929 . S
C149 C148 1.362 . S
C149 C150 1.366 . S
C150 C147 1.365 . S
C150 C149 1.366 . S
C150 H164 0.930 . S
C151 C148 1.378 . S
C151 N152 1.315 . S
C151 H154 0.930 . S
N152 Co132 2.194 1_545 S
N152 C147 1.328 . S
N152 C151 1.315 . S
H153 C147 0.929 1_565 S
H154 C151 0.930 . S
H155 C143 0.929 . S
H156 C145 0.929 . S
O157 Co132 2.351 . S
O157 C160 1.244 . S
O158 Co132 2.155 . S
O158 C160 1.240 . S
O159 Co132 2.096 . S
O159 C140 1.247 . S
C160 O157 1.244 . S
C160 O158 1.240 . S
H161 C135 0.931 . S
H162 C144 0.931 . S
H163 C148 0.929 . S
H164 C150 0.930 . S
Co165 N169 2.148 . S
Co165 N175 2.128 1_455 S
Co165 N185 2.194 1_455 S
Co165 O190 2.351 . S
Co165 O191 2.155 . S
Co165 O192 2.096 . S
C166 N169 1.301 . S
C166 N170 1.328 . S
C166 H171 0.930 . S
C167 C168 1.333 . S
C167 N169 1.317 . S
C167 H172 0.930 . S
C168 C167 1.333 . S
C168 N170 1.350 . S
C168 H194 0.931 . S
N169 Co165 2.148 . S
N169 C166 1.301 . S
N169 C167 1.317 . S
N170 C166 1.328 . S
N170 C168 1.350 . S
H171 C166 0.930 . S
H172 C167 0.930 . S
C173 O174 1.224 . S
C173 O192 1.247 . S
O174 C173 1.224 . S
N175 Co165 2.128 1_655 S
N175 C176 1.355 . S
N175 C178 1.311 . S
C176 N175 1.355 . S
C176 C177 1.363 . S
C176 H188 0.929 . S
C177 C176 1.363 . S
C177 N179 1.375 . S
C177 H195 0.931 . S
C178 N175 1.311 . S
C178 N179 1.347 . S
C178 H189 0.929 . S
N179 C177 1.375 . S
N179 C178 1.347 . S
C180 C183 1.365 . S
C180 N185 1.328 . S
C180 H186 0.929 1_655 S
C181 C182 1.362 . S
C181 C184 1.378 . S
C181 H196 0.929 . S
C182 C181 1.362 . S
C182 C183 1.366 . S
C183 C180 1.365 . S
C183 C182 1.366 . S
C183 H197 0.930 . S
C184 C181 1.378 . S
C184 N185 1.315 . S
C184 H187 0.930 . S
N185 Co165 2.194 1_655 S
N185 C180 1.328 . S
N185 C184 1.315 . S
H186 C180 0.929 1_455 S
H187 C184 0.930 . S
H188 C176 0.929 . S
H189 C178 0.929 . S
O190 Co165 2.351 . S
O190 C193 1.244 . S
O191 Co165 2.155 . S
O191 C193 1.240 . S
O192 Co165 2.096 . S
O192 C173 1.247 . S
C193 O190 1.244 . S
C193 O191 1.240 . S
H194 C168 0.931 . S
H195 C177 0.931 . S
H196 C181 0.929 . S
H197 C183 0.930 . S
Co198 N202 2.148 . S
Co198 N208 2.128 . S
Co198 N218 2.194 . S
Co198 O223 2.351 1_556 S
Co198 O224 2.155 . S
Co198 O225 2.096 . S
C199 N202 1.301 . S
C199 N203 1.328 . S
C199 H204 0.930 1_556 S
C200 C201 1.333 . S
C200 N202 1.317 . S
C200 H205 0.930 . S
C201 C200 1.333 . S
C201 N203 1.350 . S
C201 H227 0.931 . S
N202 Co198 2.148 . S
N202 C199 1.301 . S
N202 C200 1.317 . S
N203 C199 1.328 . S
N203 C201 1.350 . S
H204 C199 0.930 1_554 S
H205 C200 0.930 . S
C206 O207 1.224 . S
C206 O225 1.247 . S
O207 C206 1.224 . S
N208 Co198 2.128 . S
N208 C209 1.355 . S
N208 C211 1.311 . S
C209 N208 1.355 . S
C209 C210 1.363 . S
C209 H221 0.929 . S
C210 C209 1.363 . S
C210 N212 1.375 . S
C210 H228 0.931 . S
C211 N208 1.311 . S
C211 N212 1.347 . S
C211 H222 0.929 . S
N212 C210 1.375 . S
N212 C211 1.347 . S
C213 C216 1.365 . S
C213 N218 1.328 1_554 S
C213 H219 0.929 . S
C214 C215 1.362 . S
C214 C217 1.378 . S
C214 H229 0.929 . S
C215 C214 1.362 . S
C215 C216 1.366 1_556 S
C216 C213 1.365 . S
C216 C215 1.366 1_554 S
C216 H230 0.930 . S
C217 C214 1.378 . S
C217 N218 1.315 . S
C217 H220 0.930 . S
N218 Co198 2.194 . S
N218 C213 1.328 1_556 S
N218 C217 1.315 . S
H219 C213 0.929 . S
H220 C217 0.930 . S
H221 C209 0.929 . S
H222 C211 0.929 . S
O223 Co198 2.351 1_554 S
O223 C226 1.244 1_554 S
O224 Co198 2.155 . S
O224 C226 1.240 . S
O225 Co198 2.096 . S
O225 C206 1.247 . S
C226 O223 1.244 1_556 S
C226 O224 1.240 . S
H227 C201 0.931 . S
H228 C210 0.931 . S
H229 C214 0.929 . S
H230 C216 0.930 . S
Co231 N235 2.148 . S
Co231 N241 2.128 1_565 S
Co231 N251 2.194 1_565 S
Co231 O256 2.351 1_556 S
Co231 O257 2.155 . S
Co231 O258 2.096 . S
C232 N235 1.301 . S
C232 N236 1.328 . S
C232 H237 0.930 1_556 S
C233 C234 1.333 . S
C233 N235 1.317 . S
C233 H238 0.930 . S
C234 C233 1.333 . S
C234 N236 1.350 . S
C234 H260 0.931 . S
N235 Co231 2.148 . S
N235 C232 1.301 . S
N235 C233 1.317 . S
N236 C232 1.328 . S
N236 C234 1.350 . S
H237 C232 0.930 1_554 S
H238 C233 0.930 . S
C239 O240 1.224 . S
C239 O258 1.247 . S
O240 C239 1.224 . S
N241 Co231 2.128 1_545 S
N241 C242 1.355 . S
N241 C244 1.311 . S
C242 N241 1.355 . S
C242 C243 1.363 . S
C242 H254 0.929 . S
C243 C242 1.363 . S
C243 N245 1.375 . S
C243 H261 0.931 . S
C244 N241 1.311 . S
C244 N245 1.347 . S
C244 H255 0.929 . S
N245 C243 1.375 . S
N245 C244 1.347 . S
C246 C249 1.365 . S
C246 N251 1.328 1_554 S
C246 H252 0.929 1_545 S
C247 C248 1.362 . S
C247 C250 1.378 . S
C247 H262 0.929 . S
C248 C247 1.362 . S
C248 C249 1.366 1_556 S
C249 C246 1.365 . S
C249 C248 1.366 1_554 S
C249 H263 0.930 . S
C250 C247 1.378 . S
C250 N251 1.315 . S
C250 H253 0.930 . S
N251 Co231 2.194 1_545 S
N251 C246 1.328 1_556 S
N251 C250 1.315 . S
H252 C246 0.929 1_565 S
H253 C250 0.930 . S
H254 C242 0.929 . S
H255 C244 0.929 . S
O256 Co231 2.351 1_554 S
O256 C259 1.244 1_554 S
O257 Co231 2.155 . S
O257 C259 1.240 . S
O258 Co231 2.096 . S
O258 C239 1.247 . S
C259 O256 1.244 1_556 S
C259 O257 1.240 . S
H260 C234 0.931 . S
H261 C243 0.931 . S
H262 C247 0.929 . S
H263 C249 0.930 . S
Co264 N268 2.148 . S
Co264 N274 2.128 1_455 S
Co264 N284 2.194 1_455 S
Co264 O289 2.351 1_556 S
Co264 O290 2.155 . S
Co264 O291 2.096 . S
C265 N268 1.301 . S
C265 N269 1.328 . S
C265 H270 0.930 1_556 S
C266 C267 1.333 . S
C266 N268 1.317 . S
C266 H271 0.930 . S
C267 C266 1.333 . S
C267 N269 1.350 . S
C267 H293 0.931 . S
N268 Co264 2.148 . S
N268 C265 1.301 . S
N268 C266 1.317 . S
N269 C265 1.328 . S
N269 C267 1.350 . S
H270 C265 0.930 1_554 S
H271 C266 0.930 . S
C272 O273 1.224 . S
C272 O291 1.247 . S
O273 C272 1.224 . S
N274 Co264 2.128 1_655 S
N274 C275 1.355 . S
N274 C277 1.311 . S
C275 N274 1.355 . S
C275 C276 1.363 . S
C275 H287 0.929 . S
C276 C275 1.363 . S
C276 N278 1.375 . S
C276 H294 0.931 . S
C277 N274 1.311 . S
C277 N278 1.347 . S
C277 H288 0.929 . S
N278 C276 1.375 . S
N278 C277 1.347 . S
C279 C282 1.365 . S
C279 N284 1.328 1_554 S
C279 H285 0.929 1_655 S
C280 C281 1.362 . S
C280 C283 1.378 . S
C280 H295 0.929 . S
C281 C280 1.362 . S
C281 C282 1.366 1_556 S
C282 C279 1.365 . S
C282 C281 1.366 1_554 S
C282 H296 0.930 . S
C283 C280 1.378 . S
C283 N284 1.315 . S
C283 H286 0.930 . S
N284 Co264 2.194 1_655 S
N284 C279 1.328 1_556 S
N284 C283 1.315 . S
H285 C279 0.929 1_455 S
H286 C283 0.930 . S
H287 C275 0.929 . S
H288 C277 0.929 . S
O289 Co264 2.351 1_554 S
O289 C292 1.244 1_554 S
O290 Co264 2.155 . S
O290 C292 1.240 . S
O291 Co264 2.096 . S
O291 C272 1.247 . S
C292 O289 1.244 1_556 S
C292 O290 1.240 . S
H293 C267 0.931 . S
H294 C276 0.931 . S
H295 C280 0.929 . S
H296 C282 0.930 . S
Co297 N301 2.148 . S
Co297 N307 2.128 . S
Co297 N317 2.194 . S
Co297 O322 2.351 . S
Co297 O323 2.155 . S
Co297 O324 2.096 . S
C298 N301 1.301 . S
C298 N302 1.328 . S
C298 H303 0.930 . S
C299 C300 1.333 . S
C299 N301 1.317 . S
C299 H304 0.930 . S
C300 C299 1.333 . S
C300 N302 1.350 . S
C300 H326 0.931 . S
N301 Co297 2.148 . S
N301 C298 1.301 . S
N301 C299 1.317 . S
N302 C298 1.328 . S
N302 C300 1.350 . S
H303 C298 0.930 . S
H304 C299 0.930 . S
C305 O306 1.224 . S
C305 O324 1.247 . S
O306 C305 1.224 . S
N307 Co297 2.128 . S
N307 C308 1.355 . S
N307 C310 1.311 . S
C308 N307 1.355 . S
C308 C309 1.363 . S
C308 H320 0.929 . S
C309 C308 1.363 . S
C309 N311 1.375 . S
C309 H327 0.931 . S
C310 N307 1.311 . S
C310 N311 1.347 . S
C310 H321 0.929 . S
N311 C309 1.375 . S
N311 C310 1.347 . S
C312 C315 1.365 . S
C312 N317 1.328 . S
C312 H318 0.929 . S
C313 C314 1.362 . S
C313 C316 1.378 . S
C313 H328 0.929 . S
C314 C313 1.362 . S
C314 C315 1.366 . S
C315 C312 1.365 . S
C315 C314 1.366 . S
C315 H329 0.930 . S
C316 C313 1.378 . S
C316 N317 1.315 . S
C316 H319 0.930 . S
N317 Co297 2.194 . S
N317 C312 1.328 . S
N317 C316 1.315 . S
H318 C312 0.929 . S
H319 C316 0.930 . S
H320 C308 0.929 . S
H321 C310 0.929 . S
O322 Co297 2.351 . S
O322 C325 1.244 . S
O323 Co297 2.155 . S
O323 C325 1.240 . S
O324 Co297 2.096 . S
O324 C305 1.247 . S
C325 O322 1.244 . S
C325 O323 1.240 . S
H326 C300 0.931 . S
H327 C309 0.931 . S
H328 C313 0.929 . S
H329 C315 0.930 . S
Co330 N334 2.148 . S
Co330 N340 2.128 1_545 S
Co330 N350 2.194 1_545 S
Co330 O355 2.351 . S
Co330 O356 2.155 . S
Co330 O357 2.096 . S
C331 N334 1.301 . S
C331 N335 1.328 . S
C331 H336 0.930 . S
C332 C333 1.333 . S
C332 N334 1.317 . S
C332 H337 0.930 . S
C333 C332 1.333 . S
C333 N335 1.350 . S
C333 H359 0.931 . S
N334 Co330 2.148 . S
N334 C331 1.301 . S
N334 C332 1.317 . S
N335 C331 1.328 . S
N335 C333 1.350 . S
H336 C331 0.930 . S
H337 C332 0.930 . S
C338 O339 1.224 . S
C338 O357 1.247 . S
O339 C338 1.224 . S
N340 Co330 2.128 1_565 S
N340 C341 1.355 . S
N340 C343 1.311 . S
C341 N340 1.355 . S
C341 C342 1.363 . S
C341 H353 0.929 . S
C342 C341 1.363 . S
C342 N344 1.375 . S
C342 H360 0.931 . S
C343 N340 1.311 . S
C343 N344 1.347 . S
C343 H354 0.929 . S
N344 C342 1.375 . S
N344 C343 1.347 . S
C345 C348 1.365 . S
C345 N350 1.328 . S
C345 H351 0.929 1_565 S
C346 C347 1.362 . S
C346 C349 1.378 . S
C346 H361 0.929 . S
C347 C346 1.362 . S
C347 C348 1.366 . S
C348 C345 1.365 . S
C348 C347 1.366 . S
C348 H362 0.930 . S
C349 C346 1.378 . S
C349 N350 1.315 . S
C349 H352 0.930 . S
N350 Co330 2.194 1_565 S
N350 C345 1.328 . S
N350 C349 1.315 . S
H351 C345 0.929 1_545 S
H352 C349 0.930 . S
H353 C341 0.929 . S
H354 C343 0.929 . S
O355 Co330 2.351 . S
O355 C358 1.244 . S
O356 Co330 2.155 . S
O356 C358 1.240 . S
O357 Co330 2.096 . S
O357 C338 1.247 . S
C358 O355 1.244 . S
C358 O356 1.240 . S
H359 C333 0.931 . S
H360 C342 0.931 . S
H361 C346 0.929 . S
H362 C348 0.930 . S
Co363 N367 2.148 . S
Co363 N373 2.128 1_655 S
Co363 N383 2.194 1_655 S
Co363 O388 2.351 . S
Co363 O389 2.155 . S
Co363 O390 2.096 . S
C364 N367 1.301 . S
C364 N368 1.328 . S
C364 H369 0.930 . S
C365 C366 1.333 . S
C365 N367 1.317 . S
C365 H370 0.930 . S
C366 C365 1.333 . S
C366 N368 1.350 . S
C366 H392 0.931 . S
N367 Co363 2.148 . S
N367 C364 1.301 . S
N367 C365 1.317 . S
N368 C364 1.328 . S
N368 C366 1.350 . S
H369 C364 0.930 . S
H370 C365 0.930 . S
C371 O372 1.224 . S
C371 O390 1.247 . S
O372 C371 1.224 . S
N373 Co363 2.128 1_455 S
N373 C374 1.355 . S
N373 C376 1.311 . S
C374 N373 1.355 . S
C374 C375 1.363 . S
C374 H386 0.929 . S
C375 C374 1.363 . S
C375 N377 1.375 . S
C375 H393 0.931 . S
C376 N373 1.311 . S
C376 N377 1.347 . S
C376 H387 0.929 . S
N377 C375 1.375 . S
N377 C376 1.347 . S
C378 C381 1.365 . S
C378 N383 1.328 . S
C378 H384 0.929 1_455 S
C379 C380 1.362 . S
C379 C382 1.378 . S
C379 H394 0.929 . S
C380 C379 1.362 . S
C380 C381 1.366 . S
C381 C378 1.365 . S
C381 C380 1.366 . S
C381 H395 0.930 . S
C382 C379 1.378 . S
C382 N383 1.315 . S
C382 H385 0.930 . S
N383 Co363 2.194 1_455 S
N383 C378 1.328 . S
N383 C382 1.315 . S
H384 C378 0.929 1_655 S
H385 C382 0.930 . S
H386 C374 0.929 . S
H387 C376 0.929 . S
O388 Co363 2.351 . S
O388 C391 1.244 . S
O389 Co363 2.155 . S
O389 C391 1.240 . S
O390 Co363 2.096 . S
O390 C371 1.247 . S
C391 O388 1.244 . S
C391 O389 1.240 . S
H392 C366 0.931 . S
H393 C375 0.931 . S
H394 C379 0.929 . S
H395 C381 0.930 . S
Co396 N400 2.148 . S
Co396 N406 2.128 . S
Co396 N416 2.194 . S
Co396 O421 2.351 . S
Co396 O422 2.155 . S
Co396 O423 2.096 . S
C397 N400 1.301 . S
C397 N401 1.328 . S
C397 H402 0.930 . S
C398 C399 1.333 . S
C398 N400 1.317 . S
C398 H403 0.930 . S
C399 C398 1.333 . S
C399 N401 1.350 . S
C399 H425 0.931 . S
N400 Co396 2.148 . S
N400 C397 1.301 . S
N400 C398 1.317 . S
N401 C397 1.328 . S
N401 C399 1.350 . S
H402 C397 0.930 . S
H403 C398 0.930 . S
C404 O405 1.224 . S
C404 O423 1.247 . S
O405 C404 1.224 . S
N406 Co396 2.128 . S
N406 C407 1.355 . S
N406 C409 1.311 . S
C407 N406 1.355 . S
C407 C408 1.363 . S
C407 H419 0.929 . S
C408 C407 1.363 . S
C408 N410 1.375 . S
C408 H426 0.931 . S
C409 N406 1.311 . S
C409 N410 1.347 . S
C409 H420 0.929 . S
N410 C408 1.375 . S
N410 C409 1.347 . S
C411 C414 1.365 . S
C411 N416 1.328 . S
C411 H417 0.929 . S
C412 C413 1.362 . S
C412 C415 1.378 . S
C412 H427 0.929 . S
C413 C412 1.362 . S
C413 C414 1.366 . S
C414 C411 1.365 . S
C414 C413 1.366 . S
C414 H428 0.930 . S
C415 C412 1.378 . S
C415 N416 1.315 . S
C415 H418 0.930 . S
N416 Co396 2.194 . S
N416 C411 1.328 . S
N416 C415 1.315 . S
H417 C411 0.929 . S
H418 C415 0.930 . S
H419 C407 0.929 . S
H420 C409 0.929 . S
O421 Co396 2.351 . S
O421 C424 1.244 . S
O422 Co396 2.155 . S
O422 C424 1.240 . S
O423 Co396 2.096 . S
O423 C404 1.247 . S
C424 O421 1.244 . S
C424 O422 1.240 . S
H425 C399 0.931 . S
H426 C408 0.931 . S
H427 C412 0.929 . S
H428 C414 0.930 . S
Co429 N433 2.148 . S
Co429 N439 2.128 . S
Co429 N449 2.194 . S
Co429 O454 2.351 . S
Co429 O455 2.155 . S
Co429 O456 2.096 . S
C430 N433 1.301 . S
C430 N434 1.328 . S
C430 H435 0.930 . S
C431 C432 1.333 . S
C431 N433 1.317 . S
C431 H436 0.930 . S
C432 C431 1.333 . S
C432 N434 1.350 . S
C432 H458 0.931 . S
N433 Co429 2.148 . S
N433 C430 1.301 . S
N433 C431 1.317 . S
N434 C430 1.328 . S
N434 C432 1.350 . S
H435 C430 0.930 . S
H436 C431 0.930 . S
C437 O438 1.224 . S
C437 O456 1.247 . S
O438 C437 1.224 . S
N439 Co429 2.128 . S
N439 C440 1.355 . S
N439 C442 1.311 . S
C440 N439 1.355 . S
C440 C441 1.363 . S
C440 H452 0.929 . S
C441 C440 1.363 . S
C441 N443 1.375 . S
C441 H459 0.931 . S
C442 N439 1.311 . S
C442 N443 1.347 . S
C442 H453 0.929 . S
N443 C441 1.375 . S
N443 C442 1.347 . S
C444 C447 1.365 . S
C444 N449 1.328 . S
C444 H450 0.929 . S
C445 C446 1.362 . S
C445 C448 1.378 . S
C445 H460 0.929 . S
C446 C445 1.362 . S
C446 C447 1.366 . S
C447 C444 1.365 . S
C447 C446 1.366 . S
C447 H461 0.930 . S
C448 C445 1.378 . S
C448 N449 1.315 . S
C448 H451 0.930 . S
N449 Co429 2.194 . S
N449 C444 1.328 . S
N449 C448 1.315 . S
H450 C444 0.929 . S
H451 C448 0.930 . S
H452 C440 0.929 . S
H453 C442 0.929 . S
O454 Co429 2.351 . S
O454 C457 1.244 . S
O455 Co429 2.155 . S
O455 C457 1.240 . S
O456 Co429 2.096 . S
O456 C437 1.247 . S
C457 O454 1.244 . S
C457 O455 1.240 . S
H458 C432 0.931 . S
H459 C441 0.931 . S
H460 C445 0.929 . S
H461 C447 0.930 . S
Co462 N466 2.148 . S
Co462 N472 2.128 . S
Co462 N482 2.194 . S
Co462 O487 2.351 . S
Co462 O488 2.155 . S
Co462 O489 2.096 . S
C463 N466 1.301 . S
C463 N467 1.328 . S
C463 H468 0.930 . S
C464 C465 1.333 . S
C464 N466 1.317 . S
C464 H469 0.930 . S
C465 C464 1.333 . S
C465 N467 1.350 . S
C465 H491 0.931 . S
N466 Co462 2.148 . S
N466 C463 1.301 . S
N466 C464 1.317 . S
N467 C463 1.328 . S
N467 C465 1.350 . S
H468 C463 0.930 . S
H469 C464 0.930 . S
C470 O471 1.224 . S
C470 O489 1.247 . S
O471 C470 1.224 . S
N472 Co462 2.128 . S
N472 C473 1.355 . S
N472 C475 1.311 . S
C473 N472 1.355 . S
C473 C474 1.363 . S
C473 H485 0.929 . S
C474 C473 1.363 . S
C474 N476 1.375 . S
C474 H492 0.931 . S
C475 N472 1.311 . S
C475 N476 1.347 . S
C475 H486 0.929 . S
N476 C474 1.375 . S
N476 C475 1.347 . S
C477 C480 1.365 . S
C477 N482 1.328 . S
C477 H483 0.929 . S
C478 C479 1.362 . S
C478 C481 1.378 . S
C478 H493 0.929 . S
C479 C478 1.362 . S
C479 C480 1.366 . S
C480 C477 1.365 . S
C480 C479 1.366 . S
C480 H494 0.930 . S
C481 C478 1.378 . S
C481 N482 1.315 . S
C481 H484 0.930 . S
N482 Co462 2.194 . S
N482 C477 1.328 . S
N482 C481 1.315 . S
H483 C477 0.929 . S
H484 C481 0.930 . S
H485 C473 0.929 . S
H486 C475 0.929 . S
O487 Co462 2.351 . S
O487 C490 1.244 . S
O488 Co462 2.155 . S
O488 C490 1.240 . S
O489 Co462 2.096 . S
O489 C470 1.247 . S
C490 O487 1.244 . S
C490 O488 1.240 . S
H491 C465 0.931 . S
H492 C474 0.931 . S
H493 C478 0.929 . S
H494 C480 0.930 . S
Co495 N499 2.148 . S
Co495 N505 2.128 . S
Co495 N515 2.194 . S
Co495 O520 2.351 . S
Co495 O521 2.155 . S
Co495 O522 2.096 . S
C496 N499 1.301 . S
C496 N500 1.328 . S
C496 H501 0.930 . S
C497 C498 1.333 . S
C497 N499 1.317 . S
C497 H502 0.930 . S
C498 C497 1.333 . S
C498 N500 1.350 . S
C498 H524 0.931 . S
N499 Co495 2.148 . S
N499 C496 1.301 . S
N499 C497 1.317 . S
N500 C496 1.328 . S
N500 C498 1.350 . S
H501 C496 0.930 . S
H502 C497 0.930 . S
C503 O504 1.224 . S
C503 O522 1.247 . S
O504 C503 1.224 . S
N505 Co495 2.128 . S
N505 C506 1.355 . S
N505 C508 1.311 . S
C506 N505 1.355 . S
C506 C507 1.363 . S
C506 H518 0.929 . S
C507 C506 1.363 . S
C507 N509 1.375 . S
C507 H525 0.931 . S
C508 N505 1.311 . S
C508 N509 1.347 . S
C508 H519 0.929 . S
N509 C507 1.375 . S
N509 C508 1.347 . S
C510 C513 1.365 . S
C510 N515 1.328 . S
C510 H516 0.929 . S
C511 C512 1.362 . S
C511 C514 1.378 . S
C511 H526 0.929 . S
C512 C511 1.362 . S
C512 C513 1.366 . S
C513 C510 1.365 . S
C513 C512 1.366 . S
C513 H527 0.930 . S
C514 C511 1.378 . S
C514 N515 1.315 . S
C514 H517 0.930 . S
N515 Co495 2.194 . S
N515 C510 1.328 . S
N515 C514 1.315 . S
H516 C510 0.929 . S
H517 C514 0.930 . S
H518 C506 0.929 . S
H519 C508 0.929 . S
O520 Co495 2.351 . S
O520 C523 1.244 . S
O521 Co495 2.155 . S
O521 C523 1.240 . S
O522 Co495 2.096 . S
O522 C503 1.247 . S
C523 O520 1.244 . S
C523 O521 1.240 . S
H524 C498 0.931 . S
H525 C507 0.931 . S
H526 C511 0.929 . S
H527 C513 0.930 . S
Co528 N532 2.148 . S
Co528 N538 2.128 . S
Co528 N548 2.194 . S
Co528 O553 2.351 . S
Co528 O554 2.155 . S
Co528 O555 2.096 . S
C529 N532 1.301 . S
C529 N533 1.328 . S
C529 H534 0.930 . S
C530 C531 1.333 . S
C530 N532 1.317 . S
C530 H535 0.930 . S
C531 C530 1.333 . S
C531 N533 1.350 . S
C531 H557 0.931 . S
N532 Co528 2.148 . S
N532 C529 1.301 . S
N532 C530 1.317 . S
N533 C529 1.328 . S
N533 C531 1.350 . S
H534 C529 0.930 . S
H535 C530 0.930 . S
C536 O537 1.224 . S
C536 O555 1.247 . S
O537 C536 1.224 . S
N538 Co528 2.128 . S
N538 C539 1.355 . S
N538 C541 1.311 . S
C539 N538 1.355 . S
C539 C540 1.363 . S
C539 H551 0.929 . S
C540 C539 1.363 . S
C540 N542 1.375 . S
C540 H558 0.931 . S
C541 N538 1.311 . S
C541 N542 1.347 . S
C541 H552 0.929 . S
N542 C540 1.375 . S
N542 C541 1.347 . S
C543 C546 1.365 . S
C543 N548 1.328 . S
C543 H549 0.929 . S
C544 C545 1.362 . S
C544 C547 1.378 . S
C544 H559 0.929 . S
C545 C544 1.362 . S
C545 C546 1.366 . S
C546 C543 1.365 . S
C546 C545 1.366 . S
C546 H560 0.930 . S
C547 C544 1.378 . S
C547 N548 1.315 . S
C547 H550 0.930 . S
N548 Co528 2.194 . S
N548 C543 1.328 . S
N548 C547 1.315 . S
H549 C543 0.929 . S
H550 C547 0.930 . S
H551 C539 0.929 . S
H552 C541 0.929 . S
O553 Co528 2.351 . S
O553 C556 1.244 . S
O554 Co528 2.155 . S
O554 C556 1.240 . S
O555 Co528 2.096 . S
O555 C536 1.247 . S
C556 O553 1.244 . S
C556 O554 1.240 . S
H557 C531 0.931 . S
H558 C540 0.931 . S
H559 C544 0.929 . S
H560 C546 0.930 . S
Co561 N565 2.148 . S
Co561 N571 2.128 . S
Co561 N581 2.194 . S
Co561 O586 2.351 . S
Co561 O587 2.155 . S
Co561 O588 2.096 . S
C562 N565 1.301 . S
C562 N566 1.328 . S
C562 H567 0.930 . S
C563 C564 1.333 . S
C563 N565 1.317 . S
C563 H568 0.930 . S
C564 C563 1.333 . S
C564 N566 1.350 . S
C564 H590 0.931 . S
N565 Co561 2.148 . S
N565 C562 1.301 . S
N565 C563 1.317 . S
N566 C562 1.328 . S
N566 C564 1.350 . S
H567 C562 0.930 . S
H568 C563 0.930 . S
C569 O570 1.224 . S
C569 O588 1.247 . S
O570 C569 1.224 . S
N571 Co561 2.128 . S
N571 C572 1.355 . S
N571 C574 1.311 . S
C572 N571 1.355 . S
C572 C573 1.363 . S
C572 H584 0.929 . S
C573 C572 1.363 . S
C573 N575 1.375 . S
C573 H591 0.931 . S
C574 N571 1.311 . S
C574 N575 1.347 . S
C574 H585 0.929 . S
N575 C573 1.375 . S
N575 C574 1.347 . S
C576 C579 1.365 . S
C576 N581 1.328 . S
C576 H582 0.929 . S
C577 C578 1.362 . S
C577 C580 1.378 . S
C577 H592 0.929 . S
C578 C577 1.362 . S
C578 C579 1.366 . S
C579 C576 1.365 . S
C579 C578 1.366 . S
C579 H593 0.930 . S
C580 C577 1.378 . S
C580 N581 1.315 . S
C580 H583 0.930 . S
N581 Co561 2.194 . S
N581 C576 1.328 . S
N581 C580 1.315 . S
H582 C576 0.929 . S
H583 C580 0.930 . S
H584 C572 0.929 . S
H585 C574 0.929 . S
O586 Co561 2.351 . S
O586 C589 1.244 . S
O587 Co561 2.155 . S
O587 C589 1.240 . S
O588 Co561 2.096 . S
O588 C569 1.247 . S
C589 O586 1.244 . S
C589 O587 1.240 . S
H590 C564 0.931 . S
H591 C573 0.931 . S
H592 C577 0.929 . S
H593 C579 0.930 . S
Co594 N598 2.148 . S
Co594 N604 2.128 . S
Co594 N614 2.194 . S
Co594 O619 2.351 . S
Co594 O620 2.155 . S
Co594 O621 2.096 . S
C595 N598 1.301 . S
C595 N599 1.328 . S
C595 H600 0.930 . S
C596 C597 1.333 . S
C596 N598 1.317 . S
C596 H601 0.930 . S
C597 C596 1.333 . S
C597 N599 1.350 . S
C597 H623 0.931 . S
N598 Co594 2.148 . S
N598 C595 1.301 . S
N598 C596 1.317 . S
N599 C595 1.328 . S
N599 C597 1.350 . S
H600 C595 0.930 . S
H601 C596 0.930 . S
C602 O603 1.224 . S
C602 O621 1.247 . S
O603 C602 1.224 . S
N604 Co594 2.128 . S
N604 C605 1.355 . S
N604 C607 1.311 . S
C605 N604 1.355 . S
C605 C606 1.363 . S
C605 H617 0.929 . S
C606 C605 1.363 . S
C606 N608 1.375 . S
C606 H624 0.931 . S
C607 N604 1.311 . S
C607 N608 1.347 . S
C607 H618 0.929 . S
N608 C606 1.375 . S
N608 C607 1.347 . S
C609 C612 1.365 . S
C609 N614 1.328 . S
C609 H615 0.929 . S
C610 C611 1.362 . S
C610 C613 1.378 . S
C610 H625 0.929 . S
C611 C610 1.362 . S
C611 C612 1.366 . S
C612 C609 1.365 . S
C612 C611 1.366 . S
C612 H626 0.930 . S
C613 C610 1.378 . S
C613 N614 1.315 . S
C613 H616 0.930 . S
N614 Co594 2.194 . S
N614 C609 1.328 . S
N614 C613 1.315 . S
H615 C609 0.929 . S
H616 C613 0.930 . S
H617 C605 0.929 . S
H618 C607 0.929 . S
O619 Co594 2.351 . S
O619 C622 1.244 . S
O620 Co594 2.155 . S
O620 C622 1.240 . S
O621 Co594 2.096 . S
O621 C602 1.247 . S
C622 O619 1.244 . S
C622 O620 1.240 . S
H623 C597 0.931 . S
H624 C606 0.931 . S
H625 C610 0.929 . S
H626 C612 0.930 . S
Co627 N631 2.148 . S
Co627 N637 2.128 . S
Co627 N647 2.194 . S
Co627 O652 2.351 . S
Co627 O653 2.155 . S
Co627 O654 2.096 . S
C628 N631 1.301 . S
C628 N632 1.328 . S
C628 H633 0.930 . S
C629 C630 1.333 . S
C629 N631 1.317 . S
C629 H634 0.930 . S
C630 C629 1.333 . S
C630 N632 1.350 . S
C630 H656 0.931 . S
N631 Co627 2.148 . S
N631 C628 1.301 . S
N631 C629 1.317 . S
N632 C628 1.328 . S
N632 C630 1.350 . S
H633 C628 0.930 . S
H634 C629 0.930 . S
C635 O636 1.224 . S
C635 O654 1.247 . S
O636 C635 1.224 . S
N637 Co627 2.128 . S
N637 C638 1.355 . S
N637 C640 1.311 . S
C638 N637 1.355 . S
C638 C639 1.363 . S
C638 H650 0.929 . S
C639 C638 1.363 . S
C639 N641 1.375 . S
C639 H657 0.931 . S
C640 N637 1.311 . S
C640 N641 1.347 . S
C640 H651 0.929 . S
N641 C639 1.375 . S
N641 C640 1.347 . S
C642 C645 1.365 . S
C642 N647 1.328 . S
C642 H648 0.929 . S
C643 C644 1.362 . S
C643 C646 1.378 . S
C643 H658 0.929 . S
C644 C643 1.362 . S
C644 C645 1.366 . S
C645 C642 1.365 . S
C645 C644 1.366 . S
C645 H659 0.930 . S
C646 C643 1.378 . S
C646 N647 1.315 . S
C646 H649 0.930 . S
N647 Co627 2.194 . S
N647 C642 1.328 . S
N647 C646 1.315 . S
H648 C642 0.929 . S
H649 C646 0.930 . S
H650 C638 0.929 . S
H651 C640 0.929 . S
O652 Co627 2.351 . S
O652 C655 1.244 . S
O653 Co627 2.155 . S
O653 C655 1.240 . S
O654 Co627 2.096 . S
O654 C635 1.247 . S
C655 O652 1.244 . S
C655 O653 1.240 . S
H656 C630 0.931 . S
H657 C639 0.931 . S
H658 C643 0.929 . S
H659 C645 0.930 . S
Co660 N664 2.148 . S
Co660 N670 2.128 . S
Co660 N680 2.194 . S
Co660 O685 2.351 . S
Co660 O686 2.155 . S
Co660 O687 2.096 . S
C661 N664 1.301 . S
C661 N665 1.328 . S
C661 H666 0.930 . S
C662 C663 1.333 . S
C662 N664 1.317 . S
C662 H667 0.930 . S
C663 C662 1.333 . S
C663 N665 1.350 . S
C663 H689 0.931 . S
N664 Co660 2.148 . S
N664 C661 1.301 . S
N664 C662 1.317 . S
N665 C661 1.328 . S
N665 C663 1.350 . S
H666 C661 0.930 . S
H667 C662 0.930 . S
C668 O669 1.224 . S
C668 O687 1.247 . S
O669 C668 1.224 . S
N670 Co660 2.128 . S
N670 C671 1.355 . S
N670 C673 1.311 . S
C671 N670 1.355 . S
C671 C672 1.363 . S
C671 H683 0.929 . S
C672 C671 1.363 . S
C672 N674 1.375 . S
C672 H690 0.931 . S
C673 N670 1.311 . S
C673 N674 1.347 . S
C673 H684 0.929 . S
N674 C672 1.375 . S
N674 C673 1.347 . S
C675 C678 1.365 . S
C675 N680 1.328 . S
C675 H681 0.929 . S
C676 C677 1.362 . S
C676 C679 1.378 . S
C676 H691 0.929 . S
C677 C676 1.362 . S
C677 C678 1.366 . S
C678 C675 1.365 . S
C678 C677 1.366 . S
C678 H692 0.930 . S
C679 C676 1.378 . S
C679 N680 1.315 . S
C679 H682 0.930 . S
N680 Co660 2.194 . S
N680 C675 1.328 . S
N680 C679 1.315 . S
H681 C675 0.929 . S
H682 C679 0.930 . S
H683 C671 0.929 . S
H684 C673 0.929 . S
O685 Co660 2.351 . S
O685 C688 1.244 . S
O686 Co660 2.155 . S
O686 C688 1.240 . S
O687 Co660 2.096 . S
O687 C668 1.247 . S
C688 O685 1.244 . S
C688 O686 1.240 . S
H689 C663 0.931 . S
H690 C672 0.931 . S
H691 C676 0.929 . S
H692 C678 0.930 . S
Co693 N697 2.148 . S
Co693 N703 2.128 . S
Co693 N713 2.194 . S
Co693 O718 2.351 . S
Co693 O719 2.155 . S
Co693 O720 2.096 . S
C694 N697 1.301 . S
C694 N698 1.328 . S
C694 H699 0.930 . S
C695 C696 1.333 . S
C695 N697 1.317 . S
C695 H700 0.930 . S
C696 C695 1.333 . S
C696 N698 1.350 . S
C696 H722 0.931 . S
N697 Co693 2.148 . S
N697 C694 1.301 . S
N697 C695 1.317 . S
N698 C694 1.328 . S
N698 C696 1.350 . S
H699 C694 0.930 . S
H700 C695 0.930 . S
C701 O702 1.224 . S
C701 O720 1.247 . S
O702 C701 1.224 . S
N703 Co693 2.128 . S
N703 C704 1.355 . S
N703 C706 1.311 . S
C704 N703 1.355 . S
C704 C705 1.363 . S
C704 H716 0.929 . S
C705 C704 1.363 . S
C705 N707 1.375 . S
C705 H723 0.931 . S
C706 N703 1.311 . S
C706 N707 1.347 . S
C706 H717 0.929 . S
N707 C705 1.375 . S
N707 C706 1.347 . S
C708 C711 1.365 . S
C708 N713 1.328 . S
C708 H714 0.929 . S
C709 C710 1.362 . S
C709 C712 1.378 . S
C709 H724 0.929 . S
C710 C709 1.362 . S
C710 C711 1.366 . S
C711 C708 1.365 . S
C711 C710 1.366 . S
C711 H725 0.930 . S
C712 C709 1.378 . S
C712 N713 1.315 . S
C712 H715 0.930 . S
N713 Co693 2.194 . S
N713 C708 1.328 . S
N713 C712 1.315 . S
H714 C708 0.929 . S
H715 C712 0.930 . S
H716 C704 0.929 . S
H717 C706 0.929 . S
O718 Co693 2.351 . S
O718 C721 1.244 . S
O719 Co693 2.155 . S
O719 C721 1.240 . S
O720 Co693 2.096 . S
O720 C701 1.247 . S
C721 O718 1.244 . S
C721 O719 1.240 . S
H722 C696 0.931 . S
H723 C705 0.931 . S
H724 C709 0.929 . S
H725 C711 0.930 . S
Co726 N730 2.148 . S
Co726 N736 2.128 . S
Co726 N746 2.194 . S
Co726 O751 2.351 . S
Co726 O752 2.155 . S
Co726 O753 2.096 . S
C727 N730 1.301 . S
C727 N731 1.328 . S
C727 H732 0.930 . S
C728 C729 1.333 . S
C728 N730 1.317 . S
C728 H733 0.930 . S
C729 C728 1.333 . S
C729 N731 1.350 . S
C729 H755 0.931 . S
N730 Co726 2.148 . S
N730 C727 1.301 . S
N730 C728 1.317 . S
N731 C727 1.328 . S
N731 C729 1.350 . S
H732 C727 0.930 . S
H733 C728 0.930 . S
C734 O735 1.224 . S
C734 O753 1.247 . S
O735 C734 1.224 . S
N736 Co726 2.128 . S
N736 C737 1.355 . S
N736 C739 1.311 . S
C737 N736 1.355 . S
C737 C738 1.363 . S
C737 H749 0.929 . S
C738 C737 1.363 . S
C738 N740 1.375 . S
C738 H756 0.931 . S
C739 N736 1.311 . S
C739 N740 1.347 . S
C739 H750 0.929 . S
N740 C738 1.375 . S
N740 C739 1.347 . S
C741 C744 1.365 . S
C741 N746 1.328 . S
C741 H747 0.929 . S
C742 C743 1.362 . S
C742 C745 1.378 . S
C742 H757 0.929 . S
C743 C742 1.362 . S
C743 C744 1.366 . S
C744 C741 1.365 . S
C744 C743 1.366 . S
C744 H758 0.930 . S
C745 C742 1.378 . S
C745 N746 1.315 . S
C745 H748 0.930 . S
N746 Co726 2.194 . S
N746 C741 1.328 . S
N746 C745 1.315 . S
H747 C741 0.929 . S
H748 C745 0.930 . S
H749 C737 0.929 . S
H750 C739 0.929 . S
O751 Co726 2.351 . S
O751 C754 1.244 . S
O752 Co726 2.155 . S
O752 C754 1.240 . S
O753 Co726 2.096 . S
O753 C734 1.247 . S
C754 O751 1.244 . S
C754 O752 1.240 . S
H755 C729 0.931 . S
H756 C738 0.931 . S
H757 C742 0.929 . S
H758 C744 0.930 . S
Co759 N763 2.148 . S
Co759 N769 2.128 . S
Co759 N779 2.194 . S
Co759 O784 2.351 . S
Co759 O785 2.155 . S
Co759 O786 2.096 . S
C760 N763 1.301 . S
C760 N764 1.328 . S
C760 H765 0.930 . S
C761 C762 1.333 . S
C761 N763 1.317 . S
C761 H766 0.930 . S
C762 C761 1.333 . S
C762 N764 1.350 . S
C762 H788 0.931 . S
N763 Co759 2.148 . S
N763 C760 1.301 . S
N763 C761 1.317 . S
N764 C760 1.328 . S
N764 C762 1.350 . S
H765 C760 0.930 . S
H766 C761 0.930 . S
C767 O768 1.224 . S
C767 O786 1.247 . S
O768 C767 1.224 . S
N769 Co759 2.128 . S
N769 C770 1.355 . S
N769 C772 1.311 . S
C770 N769 1.355 . S
C770 C771 1.363 . S
C770 H782 0.929 . S
C771 C770 1.363 . S
C771 N773 1.375 . S
C771 H789 0.931 . S
C772 N769 1.311 . S
C772 N773 1.347 . S
C772 H783 0.929 . S
N773 C771 1.375 . S
N773 C772 1.347 . S
C774 C777 1.365 . S
C774 N779 1.328 . S
C774 H780 0.929 . S
C775 C776 1.362 . S
C775 C778 1.378 . S
C775 H790 0.929 . S
C776 C775 1.362 . S
C776 C777 1.366 . S
C777 C774 1.365 . S
C777 C776 1.366 . S
C777 H791 0.930 . S
C778 C775 1.378 . S
C778 N779 1.315 . S
C778 H781 0.930 . S
N779 Co759 2.194 . S
N779 C774 1.328 . S
N779 C778 1.315 . S
H780 C774 0.929 . S
H781 C778 0.930 . S
H782 C770 0.929 . S
H783 C772 0.929 . S
O784 Co759 2.351 . S
O784 C787 1.244 . S
O785 Co759 2.155 . S
O785 C787 1.240 . S
O786 Co759 2.096 . S
O786 C767 1.247 . S
C787 O784 1.244 . S
C787 O785 1.240 . S
H788 C762 0.931 . S
H789 C771 0.931 . S
H790 C775 0.929 . S
H791 C777 0.930 . S
Co792 N796 2.148 . S
Co792 N802 2.128 . S
Co792 N812 2.194 . S
Co792 O817 2.351 . S
Co792 O818 2.155 . S
Co792 O819 2.096 . S
C793 N796 1.301 . S
C793 N797 1.328 . S
C793 H798 0.930 . S
C794 C795 1.333 . S
C794 N796 1.317 . S
C794 H799 0.930 . S
C795 C794 1.333 . S
C795 N797 1.350 . S
C795 H821 0.931 . S
N796 Co792 2.148 . S
N796 C793 1.301 . S
N796 C794 1.317 . S
N797 C793 1.328 . S
N797 C795 1.350 . S
H798 C793 0.930 . S
H799 C794 0.930 . S
C800 O801 1.224 . S
C800 O819 1.247 . S
O801 C800 1.224 . S
N802 Co792 2.128 . S
N802 C803 1.355 . S
N802 C805 1.311 . S
C803 N802 1.355 . S
C803 C804 1.363 . S
C803 H815 0.929 . S
C804 C803 1.363 . S
C804 N806 1.375 . S
C804 H822 0.931 . S
C805 N802 1.311 . S
C805 N806 1.347 . S
C805 H816 0.929 . S
N806 C804 1.375 . S
N806 C805 1.347 . S
C807 C810 1.365 . S
C807 N812 1.328 . S
C807 H813 0.929 . S
C808 C809 1.362 . S
C808 C811 1.378 . S
C808 H823 0.929 . S
C809 C808 1.362 . S
C809 C810 1.366 . S
C810 C807 1.365 . S
C810 C809 1.366 . S
C810 H824 0.930 . S
C811 C808 1.378 . S
C811 N812 1.315 . S
C811 H814 0.930 . S
N812 Co792 2.194 . S
N812 C807 1.328 . S
N812 C811 1.315 . S
H813 C807 0.929 . S
H814 C811 0.930 . S
H815 C803 0.929 . S
H816 C805 0.929 . S
O817 Co792 2.351 . S
O817 C820 1.244 . S
O818 Co792 2.155 . S
O818 C820 1.240 . S
O819 Co792 2.096 . S
O819 C800 1.247 . S
C820 O817 1.244 . S
C820 O818 1.240 . S
H821 C795 0.931 . S
H822 C804 0.931 . S
H823 C808 0.929 . S
H824 C810 0.930 . S
Co825 N829 2.148 . S
Co825 N835 2.128 . S
Co825 N845 2.194 . S
Co825 O850 2.351 . S
Co825 O851 2.155 . S
Co825 O852 2.096 . S
C826 N829 1.301 . S
C826 N830 1.328 . S
C826 H831 0.930 . S
C827 C828 1.333 . S
C827 N829 1.317 . S
C827 H832 0.930 . S
C828 C827 1.333 . S
C828 N830 1.350 . S
C828 H854 0.931 . S
N829 Co825 2.148 . S
N829 C826 1.301 . S
N829 C827 1.317 . S
N830 C826 1.328 . S
N830 C828 1.350 . S
H831 C826 0.930 . S
H832 C827 0.930 . S
C833 O834 1.224 . S
C833 O852 1.247 . S
O834 C833 1.224 . S
N835 Co825 2.128 . S
N835 C836 1.355 . S
N835 C838 1.311 . S
C836 N835 1.355 . S
C836 C837 1.363 . S
C836 H848 0.929 . S
C837 C836 1.363 . S
C837 N839 1.375 . S
C837 H855 0.931 . S
C838 N835 1.311 . S
C838 N839 1.347 . S
C838 H849 0.929 . S
N839 C837 1.375 . S
N839 C838 1.347 . S
C840 C843 1.365 . S
C840 N845 1.328 . S
C840 H846 0.929 . S
C841 C842 1.362 . S
C841 C844 1.378 . S
C841 H856 0.929 . S
C842 C841 1.362 . S
C842 C843 1.366 . S
C843 C840 1.365 . S
C843 C842 1.366 . S
C843 H857 0.930 . S
C844 C841 1.378 . S
C844 N845 1.315 . S
C844 H847 0.930 . S
N845 Co825 2.194 . S
N845 C840 1.328 . S
N845 C844 1.315 . S
H846 C840 0.929 . S
H847 C844 0.930 . S
H848 C836 0.929 . S
H849 C838 0.929 . S
O850 Co825 2.351 . S
O850 C853 1.244 . S
O851 Co825 2.155 . S
O851 C853 1.240 . S
O852 Co825 2.096 . S
O852 C833 1.247 . S
C853 O850 1.244 . S
C853 O851 1.240 . S
H854 C828 0.931 . S
H855 C837 0.931 . S
H856 C841 0.929 . S
H857 C843 0.930 . S
Co858 N862 2.148 . S
Co858 N868 2.128 . S
Co858 N878 2.194 . S
Co858 O883 2.351 . S
Co858 O884 2.155 . S
Co858 O885 2.096 . S
C859 N862 1.301 . S
C859 N863 1.328 . S
C859 H864 0.930 . S
C860 C861 1.333 . S
C860 N862 1.317 . S
C860 H865 0.930 . S
C861 C860 1.333 . S
C861 N863 1.350 . S
C861 H887 0.931 . S
N862 Co858 2.148 . S
N862 C859 1.301 . S
N862 C860 1.317 . S
N863 C859 1.328 . S
N863 C861 1.350 . S
H864 C859 0.930 . S
H865 C860 0.930 . S
C866 O867 1.224 . S
C866 O885 1.247 . S
O867 C866 1.224 . S
N868 Co858 2.128 . S
N868 C869 1.355 . S
N868 C871 1.311 . S
C869 N868 1.355 . S
C869 C870 1.363 . S
C869 H881 0.929 . S
C870 C869 1.363 . S
C870 N872 1.375 . S
C870 H888 0.931 . S
C871 N868 1.311 . S
C871 N872 1.347 . S
C871 H882 0.929 . S
N872 C870 1.375 . S
N872 C871 1.347 . S
C873 C876 1.365 . S
C873 N878 1.328 . S
C873 H879 0.929 . S
C874 C875 1.362 . S
C874 C877 1.378 . S
C874 H889 0.929 . S
C875 C874 1.362 . S
C875 C876 1.366 . S
C876 C873 1.365 . S
C876 C875 1.366 . S
C876 H890 0.930 . S
C877 C874 1.378 . S
C877 N878 1.315 . S
C877 H880 0.930 . S
N878 Co858 2.194 . S
N878 C873 1.328 . S
N878 C877 1.315 . S
H879 C873 0.929 . S
H880 C877 0.930 . S
H881 C869 0.929 . S
H882 C871 0.929 . S
O883 Co858 2.351 . S
O883 C886 1.244 . S
O884 Co858 2.155 . S
O884 C886 1.240 . S
O885 Co858 2.096 . S
O885 C866 1.247 . S
C886 O883 1.244 . S
C886 O884 1.240 . S
H887 C861 0.931 . S
H888 C870 0.931 . S
H889 C874 0.929 . S
H890 C876 0.930 . S
Co891 N895 2.148 . S
Co891 N901 2.128 . S
Co891 N911 2.194 . S
Co891 O916 2.351 . S
Co891 O917 2.155 . S
Co891 O918 2.096 . S
C892 N895 1.301 . S
C892 N896 1.328 . S
C892 H897 0.930 . S
C893 C894 1.333 . S
C893 N895 1.317 . S
C893 H898 0.930 . S
C894 C893 1.333 . S
C894 N896 1.350 . S
C894 H920 0.931 . S
N895 Co891 2.148 . S
N895 C892 1.301 . S
N895 C893 1.317 . S
N896 C892 1.328 . S
N896 C894 1.350 . S
H897 C892 0.930 . S
H898 C893 0.930 . S
C899 O900 1.224 . S
C899 O918 1.247 . S
O900 C899 1.224 . S
N901 Co891 2.128 . S
N901 C902 1.355 . S
N901 C904 1.311 . S
C902 N901 1.355 . S
C902 C903 1.363 . S
C902 H914 0.929 . S
C903 C902 1.363 . S
C903 N905 1.375 . S
C903 H921 0.931 . S
C904 N901 1.311 . S
C904 N905 1.347 . S
C904 H915 0.929 . S
N905 C903 1.375 . S
N905 C904 1.347 . S
C906 C909 1.365 . S
C906 N911 1.328 . S
C906 H912 0.929 . S
C907 C908 1.362 . S
C907 C910 1.378 . S
C907 H922 0.929 . S
C908 C907 1.362 . S
C908 C909 1.366 . S
C909 C906 1.365 . S
C909 C908 1.366 . S
C909 H923 0.930 . S
C910 C907 1.378 . S
C910 N911 1.315 . S
C910 H913 0.930 . S
N911 Co891 2.194 . S
N911 C906 1.328 . S
N911 C910 1.315 . S
H912 C906 0.929 . S
H913 C910 0.930 . S
H914 C902 0.929 . S
H915 C904 0.929 . S
O916 Co891 2.351 . S
O916 C919 1.244 . S
O917 Co891 2.155 . S
O917 C919 1.240 . S
O918 Co891 2.096 . S
O918 C899 1.247 . S
C919 O916 1.244 . S
C919 O917 1.240 . S
H920 C894 0.931 . S
H921 C903 0.931 . S
H922 C907 0.929 . S
H923 C909 0.930 . S
Co924 N928 2.148 . S
Co924 N934 2.128 . S
Co924 N944 2.194 . S
Co924 O949 2.351 . S
Co924 O950 2.155 . S
Co924 O951 2.096 . S
C925 N928 1.301 . S
C925 N929 1.328 . S
C925 H930 0.930 . S
C926 C927 1.333 . S
C926 N928 1.317 . S
C926 H931 0.930 . S
C927 C926 1.333 . S
C927 N929 1.350 . S
C927 H953 0.931 . S
N928 Co924 2.148 . S
N928 C925 1.301 . S
N928 C926 1.317 . S
N929 C925 1.328 . S
N929 C927 1.350 . S
H930 C925 0.930 . S
H931 C926 0.930 . S
C932 O933 1.224 . S
C932 O951 1.247 . S
O933 C932 1.224 . S
N934 Co924 2.128 . S
N934 C935 1.355 . S
N934 C937 1.311 . S
C935 N934 1.355 . S
C935 C936 1.363 . S
C935 H947 0.929 . S
C936 C935 1.363 . S
C936 N938 1.375 . S
C936 H954 0.931 . S
C937 N934 1.311 . S
C937 N938 1.347 . S
C937 H948 0.929 . S
N938 C936 1.375 . S
N938 C937 1.347 . S
C939 C942 1.365 . S
C939 N944 1.328 . S
C939 H945 0.929 . S
C940 C941 1.362 . S
C940 C943 1.378 . S
C940 H955 0.929 . S
C941 C940 1.362 . S
C941 C942 1.366 . S
C942 C939 1.365 . S
C942 C941 1.366 . S
C942 H956 0.930 . S
C943 C940 1.378 . S
C943 N944 1.315 . S
C943 H946 0.930 . S
N944 Co924 2.194 . S
N944 C939 1.328 . S
N944 C943 1.315 . S
H945 C939 0.929 . S
H946 C943 0.930 . S
H947 C935 0.929 . S
H948 C937 0.929 . S
O949 Co924 2.351 . S
O949 C952 1.244 . S
O950 Co924 2.155 . S
O950 C952 1.240 . S
O951 Co924 2.096 . S
O951 C932 1.247 . S
C952 O949 1.244 . S
C952 O950 1.240 . S
H953 C927 0.931 . S
H954 C936 0.931 . S
H955 C940 0.929 . S
H956 C942 0.930 . S
Co957 N961 2.148 . S
Co957 N967 2.128 . S
Co957 N977 2.194 . S
Co957 O982 2.351 . S
Co957 O983 2.155 . S
Co957 O984 2.096 . S
C958 N961 1.301 . S
C958 N962 1.328 . S
C958 H963 0.930 . S
C959 C960 1.333 . S
C959 N961 1.317 . S
C959 H964 0.930 . S
C960 C959 1.333 . S
C960 N962 1.350 . S
C960 H986 0.931 . S
N961 Co957 2.148 . S
N961 C958 1.301 . S
N961 C959 1.317 . S
N962 C958 1.328 . S
N962 C960 1.350 . S
H963 C958 0.930 . S
H964 C959 0.930 . S
C965 O966 1.224 . S
C965 O984 1.247 . S
O966 C965 1.224 . S
N967 Co957 2.128 . S
N967 C968 1.355 . S
N967 C970 1.311 . S
C968 N967 1.355 . S
C968 C969 1.363 . S
C968 H980 0.929 . S
C969 C968 1.363 . S
C969 N971 1.375 . S
C969 H987 0.931 . S
C970 N967 1.311 . S
C970 N971 1.347 . S
C970 H981 0.929 . S
N971 C969 1.375 . S
N971 C970 1.347 . S
C972 C975 1.365 . S
C972 N977 1.328 . S
C972 H978 0.929 . S
C973 C974 1.362 . S
C973 C976 1.378 . S
C973 H988 0.929 . S
C974 C973 1.362 . S
C974 C975 1.366 . S
C975 C972 1.365 . S
C975 C974 1.366 . S
C975 H989 0.930 . S
C976 C973 1.378 . S
C976 N977 1.315 . S
C976 H979 0.930 . S
N977 Co957 2.194 . S
N977 C972 1.328 . S
N977 C976 1.315 . S
H978 C972 0.929 . S
H979 C976 0.930 . S
H980 C968 0.929 . S
H981 C970 0.929 . S
O982 Co957 2.351 . S
O982 C985 1.244 . S
O983 Co957 2.155 . S
O983 C985 1.240 . S
O984 Co957 2.096 . S
O984 C965 1.247 . S
C985 O982 1.244 . S
C985 O983 1.240 . S
H986 C960 0.931 . S
H987 C969 0.931 . S
H988 C973 0.929 . S
H989 C975 0.930 . S
Co990 N994 2.148 . S
Co990 N1000 2.128 . S
Co990 N1010 2.194 . S
Co990 O1015 2.351 . S
Co990 O1016 2.155 . S
Co990 O1017 2.096 . S
C991 N994 1.301 . S
C991 N995 1.328 . S
C991 H996 0.930 . S
C992 C993 1.333 . S
C992 N994 1.317 . S
C992 H997 0.930 . S
C993 C992 1.333 . S
C993 N995 1.350 . S
C993 H1019 0.931 . S
N994 Co990 2.148 . S
N994 C991 1.301 . S
N994 C992 1.317 . S
N995 C991 1.328 . S
N995 C993 1.350 . S
H996 C991 0.930 . S
H997 C992 0.930 . S
C998 O999 1.224 . S
C998 O1017 1.247 . S
O999 C998 1.224 . S
N1000 Co990 2.128 . S
N1000 C1001 1.355 . S
N1000 C1003 1.311 . S
C1001 N1000 1.355 . S
C1001 C1002 1.363 . S
C1001 H1013 0.929 . S
C1002 C1001 1.363 . S
C1002 N1004 1.375 . S
C1002 H1020 0.931 . S
C1003 N1000 1.311 . S
C1003 N1004 1.347 . S
C1003 H1014 0.929 . S
N1004 C1002 1.375 . S
N1004 C1003 1.347 . S
C1005 C1008 1.365 . S
C1005 N1010 1.328 . S
C1005 H1011 0.929 . S
C1006 C1007 1.362 . S
C1006 C1009 1.378 . S
C1006 H1021 0.929 . S
C1007 C1006 1.362 . S
C1007 C1008 1.366 . S
C1008 C1005 1.365 . S
C1008 C1007 1.366 . S
C1008 H1022 0.930 . S
C1009 C1006 1.378 . S
C1009 N1010 1.315 . S
C1009 H1012 0.930 . S
N1010 Co990 2.194 . S
N1010 C1005 1.328 . S
N1010 C1009 1.315 . S
H1011 C1005 0.929 . S
H1012 C1009 0.930 . S
H1013 C1001 0.929 . S
H1014 C1003 0.929 . S
O1015 Co990 2.351 . S
O1015 C1018 1.244 . S
O1016 Co990 2.155 . S
O1016 C1018 1.240 . S
O1017 Co990 2.096 . S
O1017 C998 1.247 . S
C1018 O1015 1.244 . S
C1018 O1016 1.240 . S
H1019 C993 0.931 . S
H1020 C1002 0.931 . S
H1021 C1006 0.929 . S
H1022 C1008 0.930 . S
Co1023 N1027 2.148 . S
Co1023 N1033 2.128 . S
Co1023 N1043 2.194 . S
Co1023 O1048 2.351 . S
Co1023 O1049 2.155 . S
Co1023 O1050 2.096 . S
C1024 N1027 1.301 . S
C1024 N1028 1.328 . S
C1024 H1029 0.930 . S
C1025 C1026 1.333 . S
C1025 N1027 1.317 . S
C1025 H1030 0.930 . S
C1026 C1025 1.333 . S
C1026 N1028 1.350 . S
C1026 H1052 0.931 . S
N1027 Co1023 2.148 . S
N1027 C1024 1.301 . S
N1027 C1025 1.317 . S
N1028 C1024 1.328 . S
N1028 C1026 1.350 . S
H1029 C1024 0.930 . S
H1030 C1025 0.930 . S
C1031 O1032 1.224 . S
C1031 O1050 1.247 . S
O1032 C1031 1.224 . S
N1033 Co1023 2.128 . S
N1033 C1034 1.355 . S
N1033 C1036 1.311 . S
C1034 N1033 1.355 . S
C1034 C1035 1.363 . S
C1034 H1046 0.929 . S
C1035 C1034 1.363 . S
C1035 N1037 1.375 . S
C1035 H1053 0.931 . S
C1036 N1033 1.311 . S
C1036 N1037 1.347 . S
C1036 H1047 0.929 . S
N1037 C1035 1.375 . S
N1037 C1036 1.347 . S
C1038 C1041 1.365 . S
C1038 N1043 1.328 . S
C1038 H1044 0.929 . S
C1039 C1040 1.362 . S
C1039 C1042 1.378 . S
C1039 H1054 0.929 . S
C1040 C1039 1.362 . S
C1040 C1041 1.366 . S
C1041 C1038 1.365 . S
C1041 C1040 1.366 . S
C1041 H1055 0.930 . S
C1042 C1039 1.378 . S
C1042 N1043 1.315 . S
C1042 H1045 0.930 . S
N1043 Co1023 2.194 . S
N1043 C1038 1.328 . S
N1043 C1042 1.315 . S
H1044 C1038 0.929 . S
H1045 C1042 0.930 . S
H1046 C1034 0.929 . S
H1047 C1036 0.929 . S
O1048 Co1023 2.351 . S
O1048 C1051 1.244 . S
O1049 Co1023 2.155 . S
O1049 C1051 1.240 . S
O1050 Co1023 2.096 . S
O1050 C1031 1.247 . S
C1051 O1048 1.244 . S
C1051 O1049 1.240 . S
H1052 C1026 0.931 . S
H1053 C1035 0.931 . S
H1054 C1039 0.929 . S
H1055 C1041 0.930 . S
Co1056 N1060 2.148 . S
Co1056 N1066 2.128 . S
Co1056 N1076 2.194 . S
Co1056 O1081 2.351 . S
Co1056 O1082 2.155 . S
Co1056 O1083 2.096 . S
C1057 N1060 1.301 . S
C1057 N1061 1.328 . S
C1057 H1062 0.930 . S
C1058 C1059 1.333 . S
C1058 N1060 1.317 . S
C1058 H1063 0.930 . S
C1059 C1058 1.333 . S
C1059 N1061 1.350 . S
C1059 H1085 0.931 . S
N1060 Co1056 2.148 . S
N1060 C1057 1.301 . S
N1060 C1058 1.317 . S
N1061 C1057 1.328 . S
N1061 C1059 1.350 . S
H1062 C1057 0.930 . S
H1063 C1058 0.930 . S
C1064 O1065 1.224 . S
C1064 O1083 1.247 . S
O1065 C1064 1.224 . S
N1066 Co1056 2.128 . S
N1066 C1067 1.355 . S
N1066 C1069 1.311 . S
C1067 N1066 1.355 . S
C1067 C1068 1.363 . S
C1067 H1079 0.929 . S
C1068 C1067 1.363 . S
C1068 N1070 1.375 . S
C1068 H1086 0.931 . S
C1069 N1066 1.311 . S
C1069 N1070 1.347 . S
C1069 H1080 0.929 . S
N1070 C1068 1.375 . S
N1070 C1069 1.347 . S
C1071 C1074 1.365 . S
C1071 N1076 1.328 . S
C1071 H1077 0.929 . S
C1072 C1073 1.362 . S
C1072 C1075 1.378 . S
C1072 H1087 0.929 . S
C1073 C1072 1.362 . S
C1073 C1074 1.366 . S
C1074 C1071 1.365 . S
C1074 C1073 1.366 . S
C1074 H1088 0.930 . S
C1075 C1072 1.378 . S
C1075 N1076 1.315 . S
C1075 H1078 0.930 . S
N1076 Co1056 2.194 . S
N1076 C1071 1.328 . S
N1076 C1075 1.315 . S
H1077 C1071 0.929 . S
H1078 C1075 0.930 . S
H1079 C1067 0.929 . S
H1080 C1069 0.929 . S
O1081 Co1056 2.351 . S
O1081 C1084 1.244 . S
O1082 Co1056 2.155 . S
O1082 C1084 1.240 . S
O1083 Co1056 2.096 . S
O1083 C1064 1.247 . S
C1084 O1081 1.244 . S
C1084 O1082 1.240 . S
H1085 C1059 0.931 . S
H1086 C1068 0.931 . S
H1087 C1072 0.929 . S
H1088 C1074 0.930 . S
Co1089 N1093 2.148 . S
Co1089 N1099 2.128 . S
Co1089 N1109 2.194 . S
Co1089 O1114 2.351 . S
Co1089 O1115 2.155 . S
Co1089 O1116 2.096 . S
C1090 N1093 1.301 . S
C1090 N1094 1.328 . S
C1090 H1095 0.930 . S
C1091 C1092 1.333 . S
C1091 N1093 1.317 . S
C1091 H1096 0.930 . S
C1092 C1091 1.333 . S
C1092 N1094 1.350 . S
C1092 H1118 0.931 . S
N1093 Co1089 2.148 . S
N1093 C1090 1.301 . S
N1093 C1091 1.317 . S
N1094 C1090 1.328 . S
N1094 C1092 1.350 . S
H1095 C1090 0.930 . S
H1096 C1091 0.930 . S
C1097 O1098 1.224 . S
C1097 O1116 1.247 . S
O1098 C1097 1.224 . S
N1099 Co1089 2.128 . S
N1099 C1100 1.355 . S
N1099 C1102 1.311 . S
C1100 N1099 1.355 . S
C1100 C1101 1.363 . S
C1100 H1112 0.929 . S
C1101 C1100 1.363 . S
C1101 N1103 1.375 . S
C1101 H1119 0.931 . S
C1102 N1099 1.311 . S
C1102 N1103 1.347 . S
C1102 H1113 0.929 . S
N1103 C1101 1.375 . S
N1103 C1102 1.347 . S
C1104 C1107 1.365 . S
C1104 N1109 1.328 . S
C1104 H1110 0.929 . S
C1105 C1106 1.362 . S
C1105 C1108 1.378 . S
C1105 H1120 0.929 . S
C1106 C1105 1.362 . S
C1106 C1107 1.366 . S
C1107 C1104 1.365 . S
C1107 C1106 1.366 . S
C1107 H1121 0.930 . S
C1108 C1105 1.378 . S
C1108 N1109 1.315 . S
C1108 H1111 0.930 . S
N1109 Co1089 2.194 . S
N1109 C1104 1.328 . S
N1109 C1108 1.315 . S
H1110 C1104 0.929 . S
H1111 C1108 0.930 . S
H1112 C1100 0.929 . S
H1113 C1102 0.929 . S
O1114 Co1089 2.351 . S
O1114 C1117 1.244 . S
O1115 Co1089 2.155 . S
O1115 C1117 1.240 . S
O1116 Co1089 2.096 . S
O1116 C1097 1.247 . S
C1117 O1114 1.244 . S
C1117 O1115 1.240 . S
H1118 C1092 0.931 . S
H1119 C1101 0.931 . S
H1120 C1105 0.929 . S
H1121 C1107 0.930 . S
Co1122 N1126 2.148 . S
Co1122 N1132 2.128 . S
Co1122 N1142 2.194 . S
Co1122 O1147 2.351 . S
Co1122 O1148 2.155 . S
Co1122 O1149 2.096 . S
C1123 N1126 1.301 . S
C1123 N1127 1.328 . S
C1123 H1128 0.930 . S
C1124 C1125 1.333 . S
C1124 N1126 1.317 . S
C1124 H1129 0.930 . S
C1125 C1124 1.333 . S
C1125 N1127 1.350 . S
C1125 H1151 0.931 . S
N1126 Co1122 2.148 . S
N1126 C1123 1.301 . S
N1126 C1124 1.317 . S
N1127 C1123 1.328 . S
N1127 C1125 1.350 . S
H1128 C1123 0.930 . S
H1129 C1124 0.930 . S
C1130 O1131 1.224 . S
C1130 O1149 1.247 . S
O1131 C1130 1.224 . S
N1132 Co1122 2.128 . S
N1132 C1133 1.355 . S
N1132 C1135 1.311 . S
C1133 N1132 1.355 . S
C1133 C1134 1.363 . S
C1133 H1145 0.929 . S
C1134 C1133 1.363 . S
C1134 N1136 1.375 . S
C1134 H1152 0.931 . S
C1135 N1132 1.311 . S
C1135 N1136 1.347 . S
C1135 H1146 0.929 . S
N1136 C1134 1.375 . S
N1136 C1135 1.347 . S
C1137 C1140 1.365 . S
C1137 N1142 1.328 . S
C1137 H1143 0.929 . S
C1138 C1139 1.362 . S
C1138 C1141 1.378 . S
C1138 H1153 0.929 . S
C1139 C1138 1.362 . S
C1139 C1140 1.366 . S
C1140 C1137 1.365 . S
C1140 C1139 1.366 . S
C1140 H1154 0.930 . S
C1141 C1138 1.378 . S
C1141 N1142 1.315 . S
C1141 H1144 0.930 . S
N1142 Co1122 2.194 . S
N1142 C1137 1.328 . S
N1142 C1141 1.315 . S
H1143 C1137 0.929 . S
H1144 C1141 0.930 . S
H1145 C1133 0.929 . S
H1146 C1135 0.929 . S
O1147 Co1122 2.351 . S
O1147 C1150 1.244 . S
O1148 Co1122 2.155 . S
O1148 C1150 1.240 . S
O1149 Co1122 2.096 . S
O1149 C1130 1.247 . S
C1150 O1147 1.244 . S
C1150 O1148 1.240 . S
H1151 C1125 0.931 . S
H1152 C1134 0.931 . S
H1153 C1138 0.929 . S
H1154 C1140 0.930 . S
Co1155 N1159 2.148 . S
Co1155 N1165 2.128 . S
Co1155 N1175 2.194 . S
Co1155 O1180 2.351 . S
Co1155 O1181 2.155 . S
Co1155 O1182 2.096 . S
C1156 N1159 1.301 . S
C1156 N1160 1.328 . S
C1156 H1161 0.930 . S
C1157 C1158 1.333 . S
C1157 N1159 1.317 . S
C1157 H1162 0.930 . S
C1158 C1157 1.333 . S
C1158 N1160 1.350 . S
C1158 H1184 0.931 . S
N1159 Co1155 2.148 . S
N1159 C1156 1.301 . S
N1159 C1157 1.317 . S
N1160 C1156 1.328 . S
N1160 C1158 1.350 . S
H1161 C1156 0.930 . S
H1162 C1157 0.930 . S
C1163 O1164 1.224 . S
C1163 O1182 1.247 . S
O1164 C1163 1.224 . S
N1165 Co1155 2.128 . S
N1165 C1166 1.355 . S
N1165 C1168 1.311 . S
C1166 N1165 1.355 . S
C1166 C1167 1.363 . S
C1166 H1178 0.929 . S
C1167 C1166 1.363 . S
C1167 N1169 1.375 . S
C1167 H1185 0.931 . S
C1168 N1165 1.311 . S
C1168 N1169 1.347 . S
C1168 H1179 0.929 . S
N1169 C1167 1.375 . S
N1169 C1168 1.347 . S
C1170 C1173 1.365 . S
C1170 N1175 1.328 . S
C1170 H1176 0.929 . S
C1171 C1172 1.362 . S
C1171 C1174 1.378 . S
C1171 H1186 0.929 . S
C1172 C1171 1.362 . S
C1172 C1173 1.366 . S
C1173 C1170 1.365 . S
C1173 C1172 1.366 . S
C1173 H1187 0.930 . S
C1174 C1171 1.378 . S
C1174 N1175 1.315 . S
C1174 H1177 0.930 . S
N1175 Co1155 2.194 . S
N1175 C1170 1.328 . S
N1175 C1174 1.315 . S
H1176 C1170 0.929 . S
H1177 C1174 0.930 . S
H1178 C1166 0.929 . S
H1179 C1168 0.929 . S
O1180 Co1155 2.351 . S
O1180 C1183 1.244 . S
O1181 Co1155 2.155 . S
O1181 C1183 1.240 . S
O1182 Co1155 2.096 . S
O1182 C1163 1.247 . S
C1183 O1180 1.244 . S
C1183 O1181 1.240 . S
H1184 C1158 0.931 . S
H1185 C1167 0.931 . S
H1186 C1171 0.929 . S
H1187 C1173 0.930 . S
H1188 C1196 0.950 . S
H1189 C1201 0.947 1_556 S
H1190 C1198 0.950 . S
H1191 C1200 0.949 1_556 S
H1192 C1202 0.950 . S
H1193 C1204 0.944 1_556 S
H1194 C1206 0.950 . S
H1195 C1207 0.950 . S
C1196 H1188 0.950 . S
C1196 C1197 1.386 . S
C1196 C1198 1.391 . S
C1197 C1196 1.386 . S
C1197 C1201 1.394 . S
C1198 H1190 0.950 . S
C1198 C1196 1.391 . S
C1198 C1199 1.400 . S
C1199 C1198 1.400 . S
C1199 C1200 1.398 . S
C1199 C1205 1.491 . S
C1200 H1191 0.949 1_554 S
C1200 C1199 1.398 . S
C1200 C1201 1.391 . S
C1201 H1189 0.947 1_554 S
C1201 C1197 1.394 . S
C1201 C1200 1.391 . S
C1202 H1192 0.950 . S
C1202 C1203 1.386 . S
C1202 C1204 1.391 . S
C1203 C1202 1.386 . S
C1203 C1207 1.393 . S
C1204 H1193 0.944 1_554 S
C1204 C1202 1.391 . S
C1204 C1205 1.400 . S
C1205 C1199 1.491 . S
C1205 C1204 1.400 . S
C1205 C1206 1.398 . S
C1206 H1194 0.950 . S
C1206 C1205 1.398 . S
C1206 C1207 1.391 . S
C1207 H1195 0.950 . S
C1207 C1203 1.393 . S
C1207 C1206 1.391 . S
H1208 C1216 0.950 . S
H1209 C1221 0.950 . S
H1210 C1218 0.950 . S
H1211 C1220 0.950 . S
H1212 C1222 0.950 . S
H1213 C1224 0.950 . S
H1214 C1226 0.950 . S
H1215 C1227 0.950 . S
C1216 H1208 0.950 . S
C1216 C1217 1.386 . S
C1216 C1218 1.391 . S
C1217 C1216 1.386 . S
C1217 C1221 1.393 . S
C1218 H1210 0.950 . S
C1218 C1216 1.391 . S
C1218 C1219 1.400 . S
C1219 C1218 1.400 . S
C1219 C1220 1.398 . S
C1219 C1225 1.491 . S
C1220 H1211 0.950 . S
C1220 C1219 1.398 . S
C1220 C1221 1.391 . S
C1221 H1209 0.950 . S
C1221 C1217 1.393 . S
C1221 C1220 1.391 . S
C1222 H1212 0.950 . S
C1222 C1223 1.386 . S
C1222 C1224 1.391 . S
C1223 C1222 1.386 . S
C1223 C1227 1.393 . S
C1224 H1213 0.950 . S
C1224 C1222 1.391 . S
C1224 C1225 1.400 . S
C1225 C1219 1.491 . S
C1225 C1224 1.400 . S
C1225 C1226 1.398 . S
C1226 H1214 0.950 . S
C1226 C1225 1.398 . S
C1226 C1227 1.391 . S
C1227 H1215 0.950 . S
C1227 C1223 1.393 . S
C1227 C1226 1.391 . S
H1228 C1236 0.950 . S
H1229 C1241 0.950 . S
H1230 C1238 0.950 . S
H1231 C1240 0.950 . S
H1232 C1242 0.950 . S
H1233 C1244 0.950 . S
H1234 C1246 0.950 . S
H1235 C1247 0.950 . S
C1236 H1228 0.950 . S
C1236 C1237 1.386 . S
C1236 C1238 1.391 . S
C1237 C1236 1.386 . S
C1237 C1241 1.393 1_554 S
C1238 H1230 0.950 . S
C1238 C1236 1.391 . S
C1238 C1239 1.400 . S
C1239 C1238 1.400 . S
C1239 C1240 1.398 1_554 S
C1239 C1245 1.491 . S
C1240 H1231 0.950 . S
C1240 C1239 1.398 1_556 S
C1240 C1241 1.391 . S
C1241 H1229 0.950 . S
C1241 C1237 1.393 1_556 S
C1241 C1240 1.391 . S
C1242 H1232 0.950 . S
C1242 C1243 1.386 1_556 S
C1242 C1244 1.391 . S
C1243 C1242 1.386 1_554 S
C1243 C1247 1.393 . S
C1244 H1233 0.950 . S
C1244 C1242 1.391 . S
C1244 C1245 1.400 1_556 S
C1245 C1239 1.491 . S
C1245 C1244 1.400 1_554 S
C1245 C1246 1.398 . S
C1246 H1234 0.950 . S
C1246 C1245 1.398 . S
C1246 C1247 1.391 . S
C1247 H1235 0.950 . S
C1247 C1243 1.393 . S
C1247 C1246 1.391 . S
H1248 C1256 0.950 . S
H1249 C1261 0.950 . S
H1250 C1258 0.950 . S
H1251 C1260 0.950 . S
H1252 C1262 0.950 . S
H1253 C1264 0.950 . S
H1254 C1266 0.950 . S
H1255 C1267 0.950 . S
C1256 H1248 0.950 . S
C1256 C1257 1.386 . S
C1256 C1258 1.391 . S
C1257 C1256 1.386 . S
C1257 C1261 1.393 . S
C1258 H1250 0.950 . S
C1258 C1256 1.391 . S
C1258 C1259 1.400 . S
C1259 C1258 1.400 . S
C1259 C1260 1.398 . S
C1259 C1265 1.491 . S
C1260 H1251 0.950 . S
C1260 C1259 1.398 . S
C1260 C1261 1.391 . S
C1261 H1249 0.950 . S
C1261 C1257 1.393 . S
C1261 C1260 1.391 . S
C1262 H1252 0.950 . S
C1262 C1263 1.386 . S
C1262 C1264 1.391 . S
C1263 C1262 1.386 . S
C1263 C1267 1.393 . S
C1264 H1253 0.950 . S
C1264 C1262 1.391 . S
C1264 C1265 1.400 . S
C1265 C1259 1.491 . S
C1265 C1264 1.400 . S
C1265 C1266 1.398 . S
C1266 H1254 0.950 . S
C1266 C1265 1.398 . S
C1266 C1267 1.391 . S
C1267 H1255 0.950 . S
C1267 C1263 1.393 . S
C1267 C1266 1.391 . S
H1268 C1276 0.950 . S
H1269 C1281 0.950 . S
H1270 C1278 0.950 . S
H1271 C1280 0.950 . S
H1272 C1282 0.950 . S
H1273 C1284 0.950 . S
H1274 C1286 0.950 . S
H1275 C1287 0.950 . S
C1276 H1268 0.950 . S
C1276 C1277 1.386 . S
C1276 C1278 1.391 . S
C1277 C1276 1.386 . S
C1277 C1281 1.393 . S
C1278 H1270 0.950 . S
C1278 C1276 1.391 . S
C1278 C1279 1.400 . S
C1279 C1278 1.400 . S
C1279 C1280 1.398 . S
C1279 C1285 1.491 . S
C1280 H1271 0.950 . S
C1280 C1279 1.398 . S
C1280 C1281 1.391 . S
C1281 H1269 0.950 . S
C1281 C1277 1.393 . S
C1281 C1280 1.391 . S
C1282 H1272 0.950 . S
C1282 C1283 1.386 . S
C1282 C1284 1.391 . S
C1283 C1282 1.386 . S
C1283 C1287 1.393 . S
C1284 H1273 0.950 . S
C1284 C1282 1.391 . S
C1284 C1285 1.400 . S
C1285 C1279 1.491 . S
C1285 C1284 1.400 . S
C1285 C1286 1.398 . S
C1286 H1274 0.950 . S
C1286 C1285 1.398 . S
C1286 C1287 1.391 . S
C1287 H1275 0.950 . S
C1287 C1283 1.393 . S
C1287 C1286 1.391 . S
H1288 C1296 0.950 . S
H1289 C1301 0.950 . S
H1290 C1298 0.950 . S
H1291 C1300 0.950 . S
H1292 C1302 0.950 . S
H1293 C1304 0.950 . S
H1294 C1306 0.950 . S
H1295 C1307 0.950 . S
C1296 H1288 0.950 . S
C1296 C1297 1.386 . S
C1296 C1298 1.391 . S
C1297 C1296 1.386 . S
C1297 C1301 1.393 . S
C1298 H1290 0.950 . S
C1298 C1296 1.391 . S
C1298 C1299 1.400 . S
C1299 C1298 1.400 . S
C1299 C1300 1.398 . S
C1299 C1305 1.491 . S
C1300 H1291 0.950 . S
C1300 C1299 1.398 . S
C1300 C1301 1.391 . S
C1301 H1289 0.950 . S
C1301 C1297 1.393 . S
C1301 C1300 1.391 . S
C1302 H1292 0.950 . S
C1302 C1303 1.386 . S
C1302 C1304 1.391 . S
C1303 C1302 1.386 . S
C1303 C1307 1.393 . S
C1304 H1293 0.950 . S
C1304 C1302 1.391 . S
C1304 C1305 1.400 . S
C1305 C1299 1.491 . S
C1305 C1304 1.400 . S
C1305 C1306 1.398 . S
C1306 H1294 0.950 . S
C1306 C1305 1.398 . S
C1306 C1307 1.391 . S
C1307 H1295 0.950 . S
C1307 C1303 1.393 . S
C1307 C1306 1.391 . S
H1308 C1316 0.950 . S
H1309 C1321 0.950 . S
H1310 C1318 0.950 . S
H1311 C1320 0.950 . S
H1312 C1322 0.946 1_554 S
H1313 C1324 0.950 . S
H1314 C1326 0.950 . S
H1315 C1327 0.950 . S
C1316 H1308 0.950 . S
C1316 C1317 1.386 . S
C1316 C1318 1.391 . S
C1317 C1316 1.386 . S
C1317 C1321 1.393 . S
C1318 H1310 0.950 . S
C1318 C1316 1.391 . S
C1318 C1319 1.400 . S
C1319 C1318 1.400 . S
C1319 C1320 1.398 . S
C1319 C1325 1.491 . S
C1320 H1311 0.950 . S
C1320 C1319 1.398 . S
C1320 C1321 1.391 . S
C1321 H1309 0.950 . S
C1321 C1317 1.393 . S
C1321 C1320 1.391 . S
C1322 H1312 0.946 1_556 S
C1322 C1323 1.388 . S
C1322 C1324 1.393 . S
C1323 C1322 1.388 . S
C1323 C1327 1.393 . S
C1324 H1313 0.950 . S
C1324 C1322 1.393 . S
C1324 C1325 1.400 . S
C1325 C1319 1.491 . S
C1325 C1324 1.400 . S
C1325 C1326 1.398 . S
C1326 H1314 0.950 . S
C1326 C1325 1.398 . S
C1326 C1327 1.391 . S
C1327 H1315 0.950 . S
C1327 C1323 1.393 . S
C1327 C1326 1.391 . S
H1328 C1336 0.950 . S
H1329 C1341 0.950 . S
H1330 C1338 0.950 . S
H1331 C1340 0.950 . S
H1332 C1342 0.950 . S
H1333 C1344 0.950 . S
H1334 C1346 0.950 . S
H1335 C1347 0.950 . S
C1336 H1328 0.950 . S
C1336 C1337 1.386 . S
C1336 C1338 1.391 . S
C1337 C1336 1.386 . S
C1337 C1341 1.393 1_556 S
C1338 H1330 0.950 . S
C1338 C1336 1.391 . S
C1338 C1339 1.400 . S
C1339 C1338 1.400 . S
C1339 C1340 1.398 1_556 S
C1339 C1345 1.491 . S
C1340 H1331 0.950 . S
C1340 C1339 1.398 1_554 S
C1340 C1341 1.391 . S
C1341 H1329 0.950 . S
C1341 C1337 1.393 1_554 S
C1341 C1340 1.391 . S
C1342 H1332 0.950 . S
C1342 C1343 1.386 1_554 S
C1342 C1344 1.391 . S
C1343 C1342 1.386 1_556 S
C1343 C1347 1.393 . S
C1344 H1333 0.950 . S
C1344 C1342 1.391 . S
C1344 C1345 1.400 1_554 S
C1345 C1339 1.491 . S
C1345 C1344 1.400 1_556 S
C1345 C1346 1.398 . S
C1346 H1334 0.950 . S
C1346 C1345 1.398 . S
C1346 C1347 1.391 . S
C1347 H1335 0.950 . S
C1347 C1343 1.393 . S
C1347 C1346 1.391 . S
H1348 C1356 0.950 . S
H1349 C1361 0.950 . S
H1350 C1358 0.950 . S
H1351 C1360 0.953 . S
H1352 C1362 0.950 . S
H1353 C1364 0.950 . S
H1354 C1366 0.950 . S
H1355 C1367 0.950 . S
C1356 H1348 0.950 . S
C1356 C1357 1.386 . S
C1356 C1358 1.391 . S
C1357 C1356 1.386 . S
C1357 C1361 1.393 . S
C1358 H1350 0.950 . S
C1358 C1356 1.391 . S
C1358 C1359 1.400 . S
C1359 C1358 1.400 . S
C1359 C1360 1.398 . S
C1359 C1365 1.491 . S
C1360 H1351 0.953 . S
C1360 C1359 1.398 . S
C1360 C1361 1.391 . S
C1361 H1349 0.950 . S
C1361 C1357 1.393 . S
C1361 C1360 1.391 . S
C1362 H1352 0.950 . S
C1362 C1363 1.386 1_554 S
C1362 C1364 1.391 . S
C1363 C1362 1.386 1_556 S
C1363 C1367 1.393 . S
C1364 H1353 0.950 . S
C1364 C1362 1.391 . S
C1364 C1365 1.400 1_554 S
C1365 C1359 1.491 . S
C1365 C1364 1.400 1_556 S
C1365 C1366 1.398 . S
C1366 H1354 0.950 . S
C1366 C1365 1.398 . S
C1366 C1367 1.391 . S
C1367 H1355 0.950 . S
C1367 C1363 1.393 . S
C1367 C1366 1.391 . S
H1368 C1376 0.950 . S
H1369 C1381 0.950 . S
H1370 C1378 0.950 . S
H1371 C1380 0.950 . S
H1372 C1382 0.950 . S
H1373 C1384 0.950 . S
H1374 C1386 0.950 . S
H1375 C1387 0.950 . S
C1376 H1368 0.950 . S
C1376 C1377 1.386 . S
C1376 C1378 1.391 . S
C1377 C1376 1.386 . S
C1377 C1381 1.393 . S
C1378 H1370 0.950 . S
C1378 C1376 1.391 . S
C1378 C1379 1.400 . S
C1379 C1378 1.400 . S
C1379 C1380 1.398 . S
C1379 C1385 1.491 . S
C1380 H1371 0.950 . S
C1380 C1379 1.398 . S
C1380 C1381 1.391 . S
C1381 H1369 0.950 . S
C1381 C1377 1.393 . S
C1381 C1380 1.391 . S
C1382 H1372 0.950 . S
C1382 C1383 1.386 . S
C1382 C1384 1.391 . S
C1383 C1382 1.386 . S
C1383 C1387 1.393 . S
C1384 H1373 0.950 . S
C1384 C1382 1.391 . S
C1384 C1385 1.400 . S
C1385 C1379 1.491 . S
C1385 C1384 1.400 . S
C1385 C1386 1.398 . S
C1386 H1374 0.950 . S
C1386 C1385 1.398 . S
C1386 C1387 1.391 . S
C1387 H1375 0.950 . S
C1387 C1383 1.393 . S
C1387 C1386 1.391 . S
H1388 C1396 0.950 . S
H1389 C1401 0.950 . S
H1390 C1398 0.950 . S
H1391 C1400 0.950 . S
H1392 C1402 0.950 . S
H1393 C1404 0.950 . S
H1394 C1406 0.950 . S
H1395 C1407 0.950 . S
C1396 H1388 0.950 . S
C1396 C1397 1.386 . S
C1396 C1398 1.391 . S
C1397 C1396 1.386 . S
C1397 C1401 1.393 . S
C1398 H1390 0.950 . S
C1398 C1396 1.391 . S
C1398 C1399 1.400 . S
C1399 C1398 1.400 . S
C1399 C1400 1.398 . S
C1399 C1405 1.491 . S
C1400 H1391 0.950 . S
C1400 C1399 1.398 . S
C1400 C1401 1.391 . S
C1401 H1389 0.950 . S
C1401 C1397 1.393 . S
C1401 C1400 1.391 . S
C1402 H1392 0.950 . S
C1402 C1403 1.386 . S
C1402 C1404 1.391 . S
C1403 C1402 1.386 . S
C1403 C1407 1.393 . S
C1404 H1393 0.950 . S
C1404 C1402 1.391 . S
C1404 C1405 1.400 . S
C1405 C1399 1.491 . S
C1405 C1404 1.400 . S
C1405 C1406 1.398 . S
C1406 H1394 0.950 . S
C1406 C1405 1.398 . S
C1406 C1407 1.391 . S
C1407 H1395 0.950 . S
C1407 C1403 1.393 . S
C1407 C1406 1.391 . S
H1408 C1416 0.950 . S
H1409 C1421 0.950 . S
H1410 C1418 0.950 . S
H1411 C1420 0.950 . S
H1412 C1422 0.950 . S
H1413 C1424 0.950 . S
H1414 C1426 0.950 . S
H1415 C1427 0.950 . S
C1416 H1408 0.950 . S
C1416 C1417 1.386 . S
C1416 C1418 1.391 . S
C1417 C1416 1.386 . S
C1417 C1421 1.393 . S
C1418 H1410 0.950 . S
C1418 C1416 1.391 . S
C1418 C1419 1.400 . S
C1419 C1418 1.400 . S
C1419 C1420 1.398 . S
C1419 C1425 1.491 . S
C1420 H1411 0.950 . S
C1420 C1419 1.398 . S
C1420 C1421 1.391 . S
C1421 H1409 0.950 . S
C1421 C1417 1.393 . S
C1421 C1420 1.391 . S
C1422 H1412 0.950 . S
C1422 C1423 1.386 . S
C1422 C1424 1.391 . S
C1423 C1422 1.386 . S
C1423 C1427 1.393 . S
C1424 H1413 0.950 . S
C1424 C1422 1.391 . S
C1424 C1425 1.400 . S
C1425 C1419 1.491 . S
C1425 C1424 1.400 . S
C1425 C1426 1.398 . S
C1426 H1414 0.950 . S
C1426 C1425 1.398 . S
C1426 C1427 1.391 . S
C1427 H1415 0.950 . S
C1427 C1423 1.393 . S
C1427 C1426 1.391 . S
H1428 C1436 0.950 . S
H1429 C1441 0.950 . S
H1430 C1438 0.950 . S
H1431 C1440 0.950 . S
H1432 C1442 0.950 . S
H1433 C1444 0.950 . S
H1434 C1446 0.950 . S
H1435 C1447 0.950 . S
C1436 H1428 0.950 . S
C1436 C1437 1.386 . S
C1436 C1438 1.391 . S
C1437 C1436 1.386 . S
C1437 C1441 1.393 . S
C1438 H1430 0.950 . S
C1438 C1436 1.391 . S
C1438 C1439 1.400 . S
C1439 C1438 1.400 . S
C1439 C1440 1.398 . S
C1439 C1445 1.491 . S
C1440 H1431 0.950 . S
C1440 C1439 1.398 . S
C1440 C1441 1.391 . S
C1441 H1429 0.950 . S
C1441 C1437 1.393 . S
C1441 C1440 1.391 . S
C1442 H1432 0.950 . S
C1442 C1443 1.386 . S
C1442 C1444 1.391 . S
C1443 C1442 1.386 . S
C1443 C1447 1.393 . S
C1444 H1433 0.950 . S
C1444 C1442 1.391 . S
C1444 C1445 1.400 . S
C1445 C1439 1.491 . S
C1445 C1444 1.400 . S
C1445 C1446 1.398 . S
C1446 H1434 0.950 . S
C1446 C1445 1.398 . S
C1446 C1447 1.391 . S
C1447 H1435 0.950 . S
C1447 C1443 1.393 . S
C1447 C1446 1.391 . S
H1448 C1456 0.950 . S
H1449 C1461 0.950 . S
H1450 C1458 0.950 . S
H1451 C1460 0.950 . S
H1452 C1462 0.950 . S
H1453 C1464 0.950 . S
H1454 C1466 0.950 . S
H1455 C1467 0.950 . S
C1456 H1448 0.950 . S
C1456 C1457 1.386 . S
C1456 C1458 1.391 . S
C1457 C1456 1.386 . S
C1457 C1461 1.393 . S
C1458 H1450 0.950 . S
C1458 C1456 1.391 . S
C1458 C1459 1.400 . S
C1459 C1458 1.400 . S
C1459 C1460 1.398 . S
C1459 C1465 1.491 . S
C1460 H1451 0.950 . S
C1460 C1459 1.398 . S
C1460 C1461 1.391 . S
C1461 H1449 0.950 . S
C1461 C1457 1.393 . S
C1461 C1460 1.391 . S
C1462 H1452 0.950 . S
C1462 C1463 1.386 . S
C1462 C1464 1.391 . S
C1463 C1462 1.386 . S
C1463 C1467 1.393 . S
C1464 H1453 0.950 . S
C1464 C1462 1.391 . S
C1464 C1465 1.400 . S
C1465 C1459 1.491 . S
C1465 C1464 1.400 . S
C1465 C1466 1.398 . S
C1466 H1454 0.950 . S
C1466 C1465 1.398 . S
C1466 C1467 1.391 . S
C1467 H1455 0.950 . S
C1467 C1463 1.393 . S
C1467 C1466 1.391 . S
H1468 C1476 0.950 . S
H1469 C1481 0.950 . S
H1470 C1478 0.950 . S
H1471 C1480 0.950 . S
H1472 C1482 0.950 . S
H1473 C1484 0.950 . S
H1474 C1486 0.950 . S
H1475 C1487 0.950 . S
C1476 H1468 0.950 . S
C1476 C1477 1.386 . S
C1476 C1478 1.391 . S
C1477 C1476 1.386 . S
C1477 C1481 1.393 . S
C1478 H1470 0.950 . S
C1478 C1476 1.391 . S
C1478 C1479 1.400 . S
C1479 C1478 1.400 . S
C1479 C1480 1.398 . S
C1479 C1485 1.491 . S
C1480 H1471 0.950 . S
C1480 C1479 1.398 . S
C1480 C1481 1.391 . S
C1481 H1469 0.950 . S
C1481 C1477 1.393 . S
C1481 C1480 1.391 . S
C1482 H1472 0.950 . S
C1482 C1483 1.386 . S
C1482 C1484 1.391 . S
C1483 C1482 1.386 . S
C1483 C1487 1.393 . S
C1484 H1473 0.950 . S
C1484 C1482 1.391 . S
C1484 C1485 1.400 . S
C1485 C1479 1.491 . S
C1485 C1484 1.400 . S
C1485 C1486 1.398 . S
C1486 H1474 0.950 . S
C1486 C1485 1.398 . S
C1486 C1487 1.391 . S
C1487 H1475 0.950 . S
C1487 C1483 1.393 . S
C1487 C1486 1.391 . S
H1488 C1496 0.950 . S
H1489 C1501 0.950 . S
H1490 C1498 0.950 . S
H1491 C1500 0.950 . S
H1492 C1502 0.950 . S
H1493 C1504 0.950 . S
H1494 C1506 0.950 . S
H1495 C1507 0.950 . S
C1496 H1488 0.950 . S
C1496 C1497 1.386 . S
C1496 C1498 1.391 . S
C1497 C1496 1.386 . S
C1497 C1501 1.393 . S
C1498 H1490 0.950 . S
C1498 C1496 1.391 . S
C1498 C1499 1.400 . S
C1499 C1498 1.400 . S
C1499 C1500 1.398 . S
C1499 C1505 1.491 . S
C1500 H1491 0.950 . S
C1500 C1499 1.398 . S
C1500 C1501 1.391 . S
C1501 H1489 0.950 . S
C1501 C1497 1.393 . S
C1501 C1500 1.391 . S
C1502 H1492 0.950 . S
C1502 C1503 1.386 . S
C1502 C1504 1.391 . S
C1503 C1502 1.386 . S
C1503 C1507 1.393 . S
C1504 H1493 0.950 . S
C1504 C1502 1.391 . S
C1504 C1505 1.400 . S
C1505 C1499 1.491 . S
C1505 C1504 1.400 . S
C1505 C1506 1.398 . S
C1506 H1494 0.950 . S
C1506 C1505 1.398 . S
C1506 C1507 1.391 . S
C1507 H1495 0.950 . S
C1507 C1503 1.393 . S
C1507 C1506 1.391 . S
H1508 C1516 0.950 . S
H1509 C1521 0.950 . S
H1510 C1518 0.950 . S
H1511 C1520 0.950 . S
H1512 C1522 0.950 . S
H1513 C1524 0.950 . S
H1514 C1526 0.950 . S
H1515 C1527 0.950 . S
C1516 H1508 0.950 . S
C1516 C1517 1.386 . S
C1516 C1518 1.391 . S
C1517 C1516 1.386 . S
C1517 C1521 1.393 . S
C1518 H1510 0.950 . S
C1518 C1516 1.391 . S
C1518 C1519 1.400 . S
C1519 C1518 1.400 . S
C1519 C1520 1.398 . S
C1519 C1525 1.491 . S
C1520 H1511 0.950 . S
C1520 C1519 1.398 . S
C1520 C1521 1.391 . S
C1521 H1509 0.950 . S
C1521 C1517 1.393 . S
C1521 C1520 1.391 . S
C1522 H1512 0.950 . S
C1522 C1523 1.386 . S
C1522 C1524 1.391 . S
C1523 C1522 1.386 . S
C1523 C1527 1.393 . S
C1524 H1513 0.950 . S
C1524 C1522 1.391 . S
C1524 C1525 1.400 . S
C1525 C1519 1.491 . S
C1525 C1524 1.400 . S
C1525 C1526 1.398 . S
C1526 H1514 0.950 . S
C1526 C1525 1.398 . S
C1526 C1527 1.391 . S
C1527 H1515 0.950 . S
C1527 C1523 1.393 . S
C1527 C1526 1.391 . S
H1528 C1536 0.950 . S
H1529 C1541 0.950 . S
H1530 C1538 0.950 . S
H1531 C1540 0.950 . S
H1532 C1542 0.950 . S
H1533 C1544 0.950 . S
H1534 C1546 0.950 . S
H1535 C1547 0.950 . S
C1536 H1528 0.950 . S
C1536 C1537 1.386 . S
C1536 C1538 1.391 . S
C1537 C1536 1.386 . S
C1537 C1541 1.393 . S
C1538 H1530 0.950 . S
C1538 C1536 1.391 . S
C1538 C1539 1.400 . S
C1539 C1538 1.400 . S
C1539 C1540 1.398 . S
C1539 C1545 1.491 . S
C1540 H1531 0.950 . S
C1540 C1539 1.398 . S
C1540 C1541 1.391 . S
C1541 H1529 0.950 . S
C1541 C1537 1.393 . S
C1541 C1540 1.391 . S
C1542 H1532 0.950 . S
C1542 C1543 1.386 . S
C1542 C1544 1.391 . S
C1543 C1542 1.386 . S
C1543 C1547 1.393 . S
C1544 H1533 0.950 . S
C1544 C1542 1.391 . S
C1544 C1545 1.400 . S
C1545 C1539 1.491 . S
C1545 C1544 1.400 . S
C1545 C1546 1.398 . S
C1546 H1534 0.950 . S
C1546 C1545 1.398 . S
C1546 C1547 1.391 . S
C1547 H1535 0.950 . S
C1547 C1543 1.393 . S
C1547 C1546 1.391 . S
H1548 C1556 0.950 . S
H1549 C1561 0.950 . S
H1550 C1558 0.950 . S
H1551 C1560 0.950 . S
H1552 C1562 0.950 . S
H1553 C1564 0.950 . S
H1554 C1566 0.950 . S
H1555 C1567 0.950 . S
C1556 H1548 0.950 . S
C1556 C1557 1.386 . S
C1556 C1558 1.391 . S
C1557 C1556 1.386 . S
C1557 C1561 1.393 . S
C1558 H1550 0.950 . S
C1558 C1556 1.391 . S
C1558 C1559 1.400 . S
C1559 C1558 1.400 . S
C1559 C1560 1.398 . S
C1559 C1565 1.491 . S
C1560 H1551 0.950 . S
C1560 C1559 1.398 . S
C1560 C1561 1.391 . S
C1561 H1549 0.950 . S
C1561 C1557 1.393 . S
C1561 C1560 1.391 . S
C1562 H1552 0.950 . S
C1562 C1563 1.386 . S
C1562 C1564 1.391 . S
C1563 C1562 1.386 . S
C1563 C1567 1.393 . S
C1564 H1553 0.950 . S
C1564 C1562 1.391 . S
C1564 C1565 1.400 . S
C1565 C1559 1.491 . S
C1565 C1564 1.400 . S
C1565 C1566 1.398 . S
C1566 H1554 0.950 . S
C1566 C1565 1.398 . S
C1566 C1567 1.391 . S
C1567 H1555 0.950 . S
C1567 C1563 1.393 . S
C1567 C1566 1.391 . S
H1568 C1576 0.950 . S
H1569 C1581 0.950 . S
H1570 C1578 0.950 . S
H1571 C1580 0.950 . S
H1572 C1582 0.950 . S
H1573 C1584 0.950 . S
H1574 C1586 0.950 . S
H1575 C1587 0.950 . S
C1576 H1568 0.950 . S
C1576 C1577 1.386 . S
C1576 C1578 1.391 . S
C1577 C1576 1.386 . S
C1577 C1581 1.393 . S
C1578 H1570 0.950 . S
C1578 C1576 1.391 . S
C1578 C1579 1.400 . S
C1579 C1578 1.400 . S
C1579 C1580 1.398 . S
C1579 C1585 1.491 . S
C1580 H1571 0.950 . S
C1580 C1579 1.398 . S
C1580 C1581 1.391 . S
C1581 H1569 0.950 . S
C1581 C1577 1.393 . S
C1581 C1580 1.391 . S
C1582 H1572 0.950 . S
C1582 C1583 1.386 . S
C1582 C1584 1.391 . S
C1583 C1582 1.386 . S
C1583 C1587 1.393 . S
C1584 H1573 0.950 . S
C1584 C1582 1.391 . S
C1584 C1585 1.400 . S
C1585 C1579 1.491 . S
C1585 C1584 1.400 . S
C1585 C1586 1.398 . S
C1586 H1574 0.950 . S
C1586 C1585 1.398 . S
C1586 C1587 1.391 . S
C1587 H1575 0.950 . S
C1587 C1583 1.393 . S
C1587 C1586 1.391 . S
H1588 C1596 0.950 . S
H1589 C1601 0.950 . S
H1590 C1598 0.950 . S
H1591 C1600 0.950 . S
H1592 C1602 0.950 . S
H1593 C1604 0.950 . S
H1594 C1606 0.950 . S
H1595 C1607 0.950 . S
C1596 H1588 0.950 . S
C1596 C1597 1.386 . S
C1596 C1598 1.391 . S
C1597 C1596 1.386 . S
C1597 C1601 1.393 . S
C1598 H1590 0.950 . S
C1598 C1596 1.391 . S
C1598 C1599 1.400 . S
C1599 C1598 1.400 . S
C1599 C1600 1.398 . S
C1599 C1605 1.491 . S
C1600 H1591 0.950 . S
C1600 C1599 1.398 . S
C1600 C1601 1.391 . S
C1601 H1589 0.950 . S
C1601 C1597 1.393 . S
C1601 C1600 1.391 . S
C1602 H1592 0.950 . S
C1602 C1603 1.386 . S
C1602 C1604 1.391 . S
C1603 C1602 1.386 . S
C1603 C1607 1.393 . S
C1604 H1593 0.950 . S
C1604 C1602 1.391 . S
C1604 C1605 1.400 . S
C1605 C1599 1.491 . S
C1605 C1604 1.400 . S
C1605 C1606 1.398 . S
C1606 H1594 0.950 . S
C1606 C1605 1.398 . S
C1606 C1607 1.391 . S
C1607 H1595 0.950 . S
C1607 C1603 1.393 . S
C1607 C1606 1.391 . S
H1608 C1616 0.950 . S
H1609 C1621 0.950 . S
H1610 C1618 0.950 . S
H1611 C1620 0.950 . S
H1612 C1622 0.950 . S
H1613 C1624 0.950 . S
H1614 C1626 0.950 . S
H1615 C1627 0.950 . S
C1616 H1608 0.950 . S
C1616 C1617 1.386 . S
C1616 C1618 1.391 . S
C1617 C1616 1.386 . S
C1617 C1621 1.393 . S
C1618 H1610 0.950 . S
C1618 C1616 1.391 . S
C1618 C1619 1.400 . S
C1619 C1618 1.400 . S
C1619 C1620 1.398 . S
C1619 C1625 1.491 . S
C1620 H1611 0.950 . S
C1620 C1619 1.398 . S
C1620 C1621 1.391 . S
C1621 H1609 0.950 . S
C1621 C1617 1.393 . S
C1621 C1620 1.391 . S
C1622 H1612 0.950 . S
C1622 C1623 1.386 . S
C1622 C1624 1.391 . S
C1623 C1622 1.386 . S
C1623 C1627 1.393 . S
C1624 H1613 0.950 . S
C1624 C1622 1.391 . S
C1624 C1625 1.400 . S
C1625 C1619 1.491 . S
C1625 C1624 1.400 . S
C1625 C1626 1.398 . S
C1626 H1614 0.950 . S
C1626 C1625 1.398 . S
C1626 C1627 1.391 . S
C1627 H1615 0.950 . S
C1627 C1623 1.393 . S
C1627 C1626 1.391 . S
H1628 C1636 0.950 . S
H1629 C1641 0.950 . S
H1630 C1638 0.950 . S
H1631 C1640 0.950 . S
H1632 C1642 0.950 . S
H1633 C1644 0.950 . S
H1634 C1646 0.950 . S
H1635 C1647 0.950 . S
C1636 H1628 0.950 . S
C1636 C1637 1.386 . S
C1636 C1638 1.391 . S
C1637 C1636 1.386 . S
C1637 C1641 1.393 . S
C1638 H1630 0.950 . S
C1638 C1636 1.391 . S
C1638 C1639 1.400 . S
C1639 C1638 1.400 . S
C1639 C1640 1.398 . S
C1639 C1645 1.491 . S
C1640 H1631 0.950 . S
C1640 C1639 1.398 . S
C1640 C1641 1.391 . S
C1641 H1629 0.950 . S
C1641 C1637 1.393 . S
C1641 C1640 1.391 . S
C1642 H1632 0.950 . S
C1642 C1643 1.386 . S
C1642 C1644 1.391 . S
C1643 C1642 1.386 . S
C1643 C1647 1.393 . S
C1644 H1633 0.950 . S
C1644 C1642 1.391 . S
C1644 C1645 1.400 . S
C1645 C1639 1.491 . S
C1645 C1644 1.400 . S
C1645 C1646 1.398 . S
C1646 H1634 0.950 . S
C1646 C1645 1.398 . S
C1646 C1647 1.391 . S
C1647 H1635 0.950 . S
C1647 C1643 1.393 . S
C1647 C1646 1.391 . S
H1648 C1656 0.950 . S
H1649 C1661 0.950 . S
H1650 C1658 0.950 . S
H1651 C1660 0.950 . S
H1652 C1662 0.950 . S
H1653 C1664 0.950 . S
H1654 C1666 0.950 . S
H1655 C1667 0.950 . S
C1656 H1648 0.950 . S
C1656 C1657 1.386 . S
C1656 C1658 1.391 . S
C1657 C1656 1.386 . S
C1657 C1661 1.393 . S
C1658 H1650 0.950 . S
C1658 C1656 1.391 . S
C1658 C1659 1.400 . S
C1659 C1658 1.400 . S
C1659 C1660 1.398 . S
C1659 C1665 1.491 . S
C1660 H1651 0.950 . S
C1660 C1659 1.398 . S
C1660 C1661 1.391 . S
C1661 H1649 0.950 . S
C1661 C1657 1.393 . S
C1661 C1660 1.391 . S
C1662 H1652 0.950 . S
C1662 C1663 1.386 . S
C1662 C1664 1.391 . S
C1663 C1662 1.386 . S
C1663 C1667 1.393 . S
C1664 H1653 0.950 . S
C1664 C1662 1.391 . S
C1664 C1665 1.400 . S
C1665 C1659 1.491 . S
C1665 C1664 1.400 . S
C1665 C1666 1.398 . S
C1666 H1654 0.950 . S
C1666 C1665 1.398 . S
C1666 C1667 1.391 . S
C1667 H1655 0.950 . S
C1667 C1663 1.393 . S
C1667 C1666 1.391 . S
H1668 C1676 0.950 . S
H1669 C1681 0.950 . S
H1670 C1678 0.950 . S
H1671 C1680 0.950 . S
H1672 C1682 0.950 . S
H1673 C1684 0.950 . S
H1674 C1686 0.950 . S
H1675 C1687 0.950 . S
C1676 H1668 0.950 . S
C1676 C1677 1.386 . S
C1676 C1678 1.391 . S
C1677 C1676 1.386 . S
C1677 C1681 1.393 . S
C1678 H1670 0.950 . S
C1678 C1676 1.391 . S
C1678 C1679 1.400 . S
C1679 C1678 1.400 . S
C1679 C1680 1.398 . S
C1679 C1685 1.491 . S
C1680 H1671 0.950 . S
C1680 C1679 1.398 . S
C1680 C1681 1.391 . S
C1681 H1669 0.950 . S
C1681 C1677 1.393 . S
C1681 C1680 1.391 . S
C1682 H1672 0.950 . S
C1682 C1683 1.386 . S
C1682 C1684 1.391 . S
C1683 C1682 1.386 . S
C1683 C1687 1.393 . S
C1684 H1673 0.950 . S
C1684 C1682 1.391 . S
C1684 C1685 1.400 . S
C1685 C1679 1.491 . S
C1685 C1684 1.400 . S
C1685 C1686 1.398 . S
C1686 H1674 0.950 . S
C1686 C1685 1.398 . S
C1686 C1687 1.391 . S
C1687 H1675 0.950 . S
C1687 C1683 1.393 . S
C1687 C1686 1.391 . S
H1688 C1696 0.950 . S
H1689 C1701 0.950 . S
H1690 C1698 0.950 . S
H1691 C1700 0.950 . S
H1692 C1702 0.950 . S
H1693 C1704 0.950 . S
H1694 C1706 0.950 . S
H1695 C1707 0.950 . S
C1696 H1688 0.950 . S
C1696 C1697 1.386 . S
C1696 C1698 1.391 . S
C1697 C1696 1.386 . S
C1697 C1701 1.393 . S
C1698 H1690 0.950 . S
C1698 C1696 1.391 . S
C1698 C1699 1.400 . S
C1699 C1698 1.400 . S
C1699 C1700 1.398 . S
C1699 C1705 1.491 . S
C1700 H1691 0.950 . S
C1700 C1699 1.398 . S
C1700 C1701 1.391 . S
C1701 H1689 0.950 . S
C1701 C1697 1.393 . S
C1701 C1700 1.391 . S
C1702 H1692 0.950 . S
C1702 C1703 1.386 . S
C1702 C1704 1.391 . S
C1703 C1702 1.386 . S
C1703 C1707 1.393 . S
C1704 H1693 0.950 . S
C1704 C1702 1.391 . S
C1704 C1705 1.400 . S
C1705 C1699 1.491 . S
C1705 C1704 1.400 . S
C1705 C1706 1.398 . S
C1706 H1694 0.950 . S
C1706 C1705 1.398 . S
C1706 C1707 1.391 . S
C1707 H1695 0.950 . S
C1707 C1703 1.393 . S
C1707 C1706 1.391 . S
H1708 C1716 0.950 . S
H1709 C1721 0.950 . S
H1710 C1718 0.950 . S
H1711 C1720 0.950 . S
H1712 C1722 0.950 . S
H1713 C1724 0.950 . S
H1714 C1726 0.950 . S
H1715 C1727 0.950 . S
C1716 H1708 0.950 . S
C1716 C1717 1.386 . S
C1716 C1718 1.391 . S
C1717 C1716 1.386 . S
C1717 C1721 1.393 . S
C1718 H1710 0.950 . S
C1718 C1716 1.391 . S
C1718 C1719 1.400 . S
C1719 C1718 1.400 . S
C1719 C1720 1.398 . S
C1719 C1725 1.491 . S
C1720 H1711 0.950 . S
C1720 C1719 1.398 . S
C1720 C1721 1.391 . S
C1721 H1709 0.950 . S
C1721 C1717 1.393 . S
C1721 C1720 1.391 . S
C1722 H1712 0.950 . S
C1722 C1723 1.386 . S
C1722 C1724 1.391 . S
C1723 C1722 1.386 . S
C1723 C1727 1.393 . S
C1724 H1713 0.950 . S
C1724 C1722 1.391 . S
C1724 C1725 1.400 . S
C1725 C1719 1.491 . S
C1725 C1724 1.400 . S
C1725 C1726 1.398 . S
C1726 H1714 0.950 . S
C1726 C1725 1.398 . S
C1726 C1727 1.391 . S
C1727 H1715 0.950 . S
C1727 C1723 1.393 . S
C1727 C1726 1.391 . S
H1728 C1736 0.950 . S
H1729 C1741 0.950 . S
H1730 C1738 0.950 . S
H1731 C1740 0.950 . S
H1732 C1742 0.950 . S
H1733 C1744 0.950 . S
H1734 C1746 0.950 . S
H1735 C1747 0.950 . S
C1736 H1728 0.950 . S
C1736 C1737 1.386 . S
C1736 C1738 1.391 . S
C1737 C1736 1.386 . S
C1737 C1741 1.393 . S
C1738 H1730 0.950 . S
C1738 C1736 1.391 . S
C1738 C1739 1.400 . S
C1739 C1738 1.400 . S
C1739 C1740 1.398 . S
C1739 C1745 1.491 . S
C1740 H1731 0.950 . S
C1740 C1739 1.398 . S
C1740 C1741 1.391 . S
C1741 H1729 0.950 . S
C1741 C1737 1.393 . S
C1741 C1740 1.391 . S
C1742 H1732 0.950 . S
C1742 C1743 1.386 . S
C1742 C1744 1.391 . S
C1743 C1742 1.386 . S
C1743 C1747 1.393 . S
C1744 H1733 0.950 . S
C1744 C1742 1.391 . S
C1744 C1745 1.400 . S
C1745 C1739 1.491 . S
C1745 C1744 1.400 . S
C1745 C1746 1.398 . S
C1746 H1734 0.950 . S
C1746 C1745 1.398 . S
C1746 C1747 1.391 . S
C1747 H1735 0.950 . S
C1747 C1743 1.393 . S
C1747 C1746 1.391 . S
H1748 C1756 0.950 . S
H1749 C1761 0.950 . S
H1750 C1758 0.950 . S
H1751 C1760 0.950 . S
H1752 C1762 0.950 . S
H1753 C1764 0.950 . S
H1754 C1766 0.950 . S
H1755 C1767 0.950 . S
C1756 H1748 0.950 . S
C1756 C1757 1.386 . S
C1756 C1758 1.391 . S
C1757 C1756 1.386 . S
C1757 C1761 1.393 . S
C1758 H1750 0.950 . S
C1758 C1756 1.391 . S
C1758 C1759 1.400 . S
C1759 C1758 1.400 . S
C1759 C1760 1.398 . S
C1759 C1765 1.491 . S
C1760 H1751 0.950 . S
C1760 C1759 1.398 . S
C1760 C1761 1.391 . S
C1761 H1749 0.950 . S
C1761 C1757 1.393 . S
C1761 C1760 1.391 . S
C1762 H1752 0.950 . S
C1762 C1763 1.386 . S
C1762 C1764 1.391 . S
C1763 C1762 1.386 . S
C1763 C1767 1.393 . S
C1764 H1753 0.950 . S
C1764 C1762 1.391 . S
C1764 C1765 1.400 . S
C1765 C1759 1.491 . S
C1765 C1764 1.400 . S
C1765 C1766 1.398 . S
C1766 H1754 0.950 . S
C1766 C1765 1.398 . S
C1766 C1767 1.391 . S
C1767 H1755 0.950 . S
C1767 C1763 1.393 . S
C1767 C1766 1.391 . S
H1768 C1776 0.950 . S
H1769 C1781 0.950 . S
H1770 C1778 0.950 . S
H1771 C1780 0.950 . S
H1772 C1782 0.950 . S
H1773 C1784 0.950 . S
H1774 C1786 0.950 . S
H1775 C1787 0.950 . S
C1776 H1768 0.950 . S
C1776 C1777 1.386 . S
C1776 C1778 1.391 . S
C1777 C1776 1.386 . S
C1777 C1781 1.393 . S
C1778 H1770 0.950 . S
C1778 C1776 1.391 . S
C1778 C1779 1.400 . S
C1779 C1778 1.400 . S
C1779 C1780 1.398 . S
C1779 C1785 1.491 . S
C1780 H1771 0.950 . S
C1780 C1779 1.398 . S
C1780 C1781 1.391 . S
C1781 H1769 0.950 . S
C1781 C1777 1.393 . S
C1781 C1780 1.391 . S
C1782 H1772 0.950 . S
C1782 C1783 1.386 . S
C1782 C1784 1.391 . S
C1783 C1782 1.386 . S
C1783 C1787 1.393 . S
C1784 H1773 0.950 . S
C1784 C1782 1.391 . S
C1784 C1785 1.400 . S
C1785 C1779 1.491 . S
C1785 C1784 1.400 . S
C1785 C1786 1.398 . S
C1786 H1774 0.950 . S
C1786 C1785 1.398 . S
C1786 C1787 1.391 . S
C1787 H1775 0.950 . S
C1787 C1783 1.393 . S
C1787 C1786 1.391 . S
H1788 C1796 0.950 . S
H1789 C1801 0.950 . S
H1790 C1798 0.950 . S
H1791 C1800 0.950 . S
H1792 C1802 0.950 . S
H1793 C1804 0.950 . S
H1794 C1806 0.950 . S
H1795 C1807 0.950 . S
C1796 H1788 0.950 . S
C1796 C1797 1.386 . S
C1796 C1798 1.391 . S
C1797 C1796 1.386 . S
C1797 C1801 1.393 . S
C1798 H1790 0.950 . S
C1798 C1796 1.391 . S
C1798 C1799 1.400 . S
C1799 C1798 1.400 . S
C1799 C1800 1.398 . S
C1799 C1805 1.491 . S
C1800 H1791 0.950 . S
C1800 C1799 1.398 . S
C1800 C1801 1.391 . S
C1801 H1789 0.950 . S
C1801 C1797 1.393 . S
C1801 C1800 1.391 . S
C1802 H1792 0.950 . S
C1802 C1803 1.386 . S
C1802 C1804 1.391 . S
C1803 C1802 1.386 . S
C1803 C1807 1.393 . S
C1804 H1793 0.950 . S
C1804 C1802 1.391 . S
C1804 C1805 1.400 . S
C1805 C1799 1.491 . S
C1805 C1804 1.400 . S
C1805 C1806 1.398 . S
C1806 H1794 0.950 . S
C1806 C1805 1.398 . S
C1806 C1807 1.391 . S
C1807 H1795 0.950 . S
C1807 C1803 1.393 . S
C1807 C1806 1.391 . S
H1808 C1816 0.950 . S
H1809 C1821 0.950 . S
H1810 C1818 0.950 . S
H1811 C1820 0.950 . S
H1812 C1822 0.950 . S
H1813 C1824 0.950 . S
H1814 C1826 0.950 . S
H1815 C1827 0.950 . S
C1816 H1808 0.950 . S
C1816 C1817 1.386 . S
C1816 C1818 1.391 . S
C1817 C1816 1.386 . S
C1817 C1821 1.393 . S
C1818 H1810 0.950 . S
C1818 C1816 1.391 . S
C1818 C1819 1.400 . S
C1819 C1818 1.400 . S
C1819 C1820 1.398 . S
C1819 C1825 1.491 . S
C1820 H1811 0.950 . S
C1820 C1819 1.398 . S
C1820 C1821 1.391 . S
C1821 H1809 0.950 . S
C1821 C1817 1.393 . S
C1821 C1820 1.391 . S
C1822 H1812 0.950 . S
C1822 C1823 1.386 . S
C1822 C1824 1.391 . S
C1823 C1822 1.386 . S
C1823 C1827 1.393 . S
C1824 H1813 0.950 . S
C1824 C1822 1.391 . S
C1824 C1825 1.400 . S
C1825 C1819 1.491 . S
C1825 C1824 1.400 . S
C1825 C1826 1.398 . S
C1826 H1814 0.950 . S
C1826 C1825 1.398 . S
C1826 C1827 1.391 . S
C1827 H1815 0.950 . S
C1827 C1823 1.393 . S
C1827 C1826 1.391 . S
H1828 C1836 0.950 . S
H1829 C1841 0.950 . S
H1830 C1838 0.950 . S
H1831 C1840 0.950 . S
H1832 C1842 0.950 . S
H1833 C1844 0.950 . S
H1834 C1846 0.950 . S
H1835 C1847 0.950 . S
C1836 H1828 0.950 . S
C1836 C1837 1.386 . S
C1836 C1838 1.391 . S
C1837 C1836 1.386 . S
C1837 C1841 1.393 . S
C1838 H1830 0.950 . S
C1838 C1836 1.391 . S
C1838 C1839 1.400 . S
C1839 C1838 1.400 . S
C1839 C1840 1.398 . S
C1839 C1845 1.491 . S
C1840 H1831 0.950 . S
C1840 C1839 1.398 . S
C1840 C1841 1.391 . S
C1841 H1829 0.950 . S
C1841 C1837 1.393 . S
C1841 C1840 1.391 . S
C1842 H1832 0.950 . S
C1842 C1843 1.386 . S
C1842 C1844 1.391 . S
C1843 C1842 1.386 . S
C1843 C1847 1.393 . S
C1844 H1833 0.950 . S
C1844 C1842 1.391 . S
C1844 C1845 1.400 . S
C1845 C1839 1.491 . S
C1845 C1844 1.400 . S
C1845 C1846 1.398 . S
C1846 H1834 0.950 . S
C1846 C1845 1.398 . S
C1846 C1847 1.391 . S
C1847 H1835 0.950 . S
C1847 C1843 1.393 . S
C1847 C1846 1.391 . S
H1848 C1856 0.950 . S
H1849 C1861 0.950 . S
H1850 C1858 0.950 . S
H1851 C1860 0.950 . S
H1852 C1862 0.950 . S
H1853 C1864 0.950 . S
H1854 C1866 0.950 . S
H1855 C1867 0.950 . S
C1856 H1848 0.950 . S
C1856 C1857 1.386 . S
C1856 C1858 1.391 . S
C1857 C1856 1.386 . S
C1857 C1861 1.393 . S
C1858 H1850 0.950 . S
C1858 C1856 1.391 . S
C1858 C1859 1.400 . S
C1859 C1858 1.400 . S
C1859 C1860 1.398 . S
C1859 C1865 1.491 . S
C1860 H1851 0.950 . S
C1860 C1859 1.398 . S
C1860 C1861 1.391 . S
C1861 H1849 0.950 . S
C1861 C1857 1.393 . S
C1861 C1860 1.391 . S
C1862 H1852 0.950 . S
C1862 C1863 1.386 . S
C1862 C1864 1.391 . S
C1863 C1862 1.386 . S
C1863 C1867 1.393 . S
C1864 H1853 0.950 . S
C1864 C1862 1.391 . S
C1864 C1865 1.400 . S
C1865 C1859 1.491 . S
C1865 C1864 1.400 . S
C1865 C1866 1.398 . S
C1866 H1854 0.950 . S
C1866 C1865 1.398 . S
C1866 C1867 1.391 . S
C1867 H1855 0.950 . S
C1867 C1863 1.393 . S
C1867 C1866 1.391 . S
H1868 C1876 0.950 . S
H1869 C1881 0.950 . S
H1870 C1878 0.950 . S
H1871 C1880 0.950 . S
H1872 C1882 0.950 . S
H1873 C1884 0.950 . S
H1874 C1886 0.950 . S
H1875 C1887 0.950 . S
C1876 H1868 0.950 . S
C1876 C1877 1.386 . S
C1876 C1878 1.391 . S
C1877 C1876 1.386 . S
C1877 C1881 1.393 . S
C1878 H1870 0.950 . S
C1878 C1876 1.391 . S
C1878 C1879 1.400 . S
C1879 C1878 1.400 . S
C1879 C1880 1.398 . S
C1879 C1885 1.491 . S
C1880 H1871 0.950 . S
C1880 C1879 1.398 . S
C1880 C1881 1.391 . S
C1881 H1869 0.950 . S
C1881 C1877 1.393 . S
C1881 C1880 1.391 . S
C1882 H1872 0.950 . S
C1882 C1883 1.386 . S
C1882 C1884 1.391 . S
C1883 C1882 1.386 . S
C1883 C1887 1.393 . S
C1884 H1873 0.950 . S
C1884 C1882 1.391 . S
C1884 C1885 1.400 . S
C1885 C1879 1.491 . S
C1885 C1884 1.400 . S
C1885 C1886 1.398 . S
C1886 H1874 0.950 . S
C1886 C1885 1.398 . S
C1886 C1887 1.391 . S
C1887 H1875 0.950 . S
C1887 C1883 1.393 . S
C1887 C1886 1.391 . S
H1888 C1896 0.950 . S
H1889 C1901 0.950 . S
H1890 C1898 0.950 . S
H1891 C1900 0.950 . S
H1892 C1902 0.950 . S
H1893 C1904 0.950 . S
H1894 C1906 0.950 . S
H1895 C1907 0.950 . S
C1896 H1888 0.950 . S
C1896 C1897 1.386 . S
C1896 C1898 1.391 . S
C1897 C1896 1.386 . S
C1897 C1901 1.393 . S
C1898 H1890 0.950 . S
C1898 C1896 1.391 . S
C1898 C1899 1.400 . S
C1899 C1898 1.400 . S
C1899 C1900 1.398 . S
C1899 C1905 1.491 . S
C1900 H1891 0.950 . S
C1900 C1899 1.398 . S
C1900 C1901 1.391 . S
C1901 H1889 0.950 . S
C1901 C1897 1.393 . S
C1901 C1900 1.391 . S
C1902 H1892 0.950 . S
C1902 C1903 1.386 . S
C1902 C1904 1.391 . S
C1903 C1902 1.386 . S
C1903 C1907 1.393 . S
C1904 H1893 0.950 . S
C1904 C1902 1.391 . S
C1904 C1905 1.400 . S
C1905 C1899 1.491 . S
C1905 C1904 1.400 . S
C1905 C1906 1.398 . S
C1906 H1894 0.950 . S
C1906 C1905 1.398 . S
C1906 C1907 1.391 . S
C1907 H1895 0.950 . S
C1907 C1903 1.393 . S
C1907 C1906 1.391 . S
H1908 C1916 0.950 . S
H1909 C1921 0.950 . S
H1910 C1918 0.950 . S
H1911 C1920 0.950 . S
H1912 C1922 0.950 . S
H1913 C1924 0.950 . S
H1914 C1926 0.950 . S
H1915 C1927 0.950 . S
C1916 H1908 0.950 . S
C1916 C1917 1.386 . S
C1916 C1918 1.391 . S
C1917 C1916 1.386 . S
C1917 C1921 1.393 . S
C1918 H1910 0.950 . S
C1918 C1916 1.391 . S
C1918 C1919 1.400 . S
C1919 C1918 1.400 . S
C1919 C1920 1.398 . S
C1919 C1925 1.491 . S
C1920 H1911 0.950 . S
C1920 C1919 1.398 . S
C1920 C1921 1.391 . S
C1921 H1909 0.950 . S
C1921 C1917 1.393 . S
C1921 C1920 1.391 . S
C1922 H1912 0.950 . S
C1922 C1923 1.386 . S
C1922 C1924 1.391 . S
C1923 C1922 1.386 . S
C1923 C1927 1.393 . S
C1924 H1913 0.950 . S
C1924 C1922 1.391 . S
C1924 C1925 1.400 . S
C1925 C1919 1.491 . S
C1925 C1924 1.400 . S
C1925 C1926 1.398 . S
C1926 H1914 0.950 . S
C1926 C1925 1.398 . S
C1926 C1927 1.391 . S
C1927 H1915 0.950 . S
C1927 C1923 1.393 . S
C1927 C1926 1.391 . S
H1928 C1936 0.950 . S
H1929 C1941 0.950 . S
H1930 C1938 0.950 . S
H1931 C1940 0.950 . S
H1932 C1942 0.950 . S
H1933 C1944 0.950 . S
H1934 C1946 0.950 . S
H1935 C1947 0.950 . S
C1936 H1928 0.950 . S
C1936 C1937 1.386 1_565 S
C1936 C1938 1.391 . S
C1937 C1936 1.386 1_545 S
C1937 C1941 1.393 . S
C1938 H1930 0.950 . S
C1938 C1936 1.391 . S
C1938 C1939 1.400 1_565 S
C1939 C1938 1.400 1_545 S
C1939 C1940 1.398 . S
C1939 C1945 1.491 1_545 S
C1940 H1931 0.950 . S
C1940 C1939 1.398 . S
C1940 C1941 1.391 . S
C1941 H1929 0.950 . S
C1941 C1937 1.393 . S
C1941 C1940 1.391 . S
C1942 H1932 0.950 . S
C1942 C1943 1.386 1_545 S
C1942 C1944 1.391 . S
C1943 C1942 1.386 1_565 S
C1943 C1947 1.393 . S
C1944 H1933 0.950 . S
C1944 C1942 1.391 . S
C1944 C1945 1.400 1_545 S
C1945 C1939 1.491 1_565 S
C1945 C1944 1.400 1_565 S
C1945 C1946 1.398 . S
C1946 H1934 0.950 . S
C1946 C1945 1.398 . S
C1946 C1947 1.391 . S
C1947 H1935 0.950 . S
C1947 C1943 1.393 . S
C1947 C1946 1.391 . S
H1948 C1956 0.954 . S
H1949 C1961 0.950 . S
H1950 C1958 0.950 . S
H1951 C1960 0.950 . S
H1952 C1962 0.954 . S
H1953 C1964 0.950 . S
H1954 C1966 0.950 . S
H1955 C1967 0.950 . S
C1956 H1948 0.954 . S
C1956 C1957 1.374 1_455 S
C1956 C1958 1.401 . S
C1957 C1956 1.374 1_655 S
C1957 C1961 1.393 . S
C1958 H1950 0.950 . S
C1958 C1956 1.401 . S
C1958 C1959 1.400 1_455 S
C1959 C1958 1.400 1_655 S
C1959 C1960 1.398 . S
C1959 C1965 1.491 1_655 S
C1960 H1951 0.950 . S
C1960 C1959 1.398 . S
C1960 C1961 1.391 . S
C1961 H1949 0.950 . S
C1961 C1957 1.393 . S
C1961 C1960 1.391 . S
C1962 H1952 0.954 . S
C1962 C1963 1.374 1_655 S
C1962 C1964 1.401 . S
C1963 C1962 1.374 1_455 S
C1963 C1967 1.393 . S
C1964 H1953 0.950 . S
C1964 C1962 1.401 . S
C1964 C1965 1.400 1_655 S
C1965 C1959 1.491 1_455 S
C1965 C1964 1.400 1_455 S
C1965 C1966 1.398 . S
C1966 H1954 0.950 . S
C1966 C1965 1.398 . S
C1966 C1967 1.391 . S
C1967 H1955 0.950 . S
C1967 C1963 1.393 . S
C1967 C1966 1.391 . S
H1968 C1976 0.950 . S
H1969 C1981 0.950 . S
H1970 C1978 0.950 . S
H1971 C1980 0.950 . S
H1972 C1982 0.950 . S
H1973 C1984 0.950 . S
H1974 C1986 0.950 . S
H1975 C1987 0.950 . S
C1976 H1968 0.950 . S
C1976 C1977 1.386 . S
C1976 C1978 1.391 . S
C1977 C1976 1.386 . S
C1977 C1981 1.393 . S
C1978 H1970 0.950 . S
C1978 C1976 1.391 . S
C1978 C1979 1.400 . S
C1979 C1978 1.400 . S
C1979 C1980 1.398 . S
C1979 C1985 1.491 . S
C1980 H1971 0.950 . S
C1980 C1979 1.398 . S
C1980 C1981 1.391 . S
C1981 H1969 0.950 . S
C1981 C1977 1.393 . S
C1981 C1980 1.391 . S
C1982 H1972 0.950 . S
C1982 C1983 1.386 . S
C1982 C1984 1.391 . S
C1983 C1982 1.386 . S
C1983 C1987 1.393 . S
C1984 H1973 0.950 . S
C1984 C1982 1.391 . S
C1984 C1985 1.400 . S
C1985 C1979 1.491 . S
C1985 C1984 1.400 . S
C1985 C1986 1.398 . S
C1986 H1974 0.950 . S
C1986 C1985 1.398 . S
C1986 C1987 1.391 . S
C1987 H1975 0.950 . S
C1987 C1983 1.393 . S
C1987 C1986 1.391 . S
H1988 C1996 0.950 . S
H1989 C2001 0.947 . S
H1990 C1998 0.950 . S
H1991 C2000 0.950 . S
H1992 C2002 0.950 . S
H1993 C2004 0.950 . S
H1994 C2006 0.950 . S
H1995 C2007 0.948 . S
C1996 H1988 0.950 . S
C1996 C1997 1.386 . S
C1996 C1998 1.391 . S
C1997 C1996 1.386 . S
C1997 C2001 1.393 . S
C1998 H1990 0.950 . S
C1998 C1996 1.391 . S
C1998 C1999 1.400 . S
C1999 C1998 1.400 . S
C1999 C2000 1.398 1_545 S
C1999 C2005 1.491 1_545 S
C2000 H1991 0.950 . S
C2000 C1999 1.398 1_565 S
C2000 C2001 1.391 1_565 S
C2001 H1989 0.947 . S
C2001 C1997 1.393 . S
C2001 C2000 1.391 1_545 S
C2002 H1992 0.950 . S
C2002 C2003 1.386 . S
C2002 C2004 1.391 . S
C2003 C2002 1.386 . S
C2003 C2007 1.393 . S
C2004 H1993 0.950 . S
C2004 C2002 1.391 . S
C2004 C2005 1.400 . S
C2005 C1999 1.491 1_565 S
C2005 C2004 1.400 . S
C2005 C2006 1.398 1_565 S
C2006 H1994 0.950 . S
C2006 C2005 1.398 1_545 S
C2006 C2007 1.391 1_545 S
C2007 H1995 0.948 . S
C2007 C2003 1.393 . S
C2007 C2006 1.391 1_565 S
H2008 C2016 0.950 . S
H2009 C2021 0.950 . S
H2010 C2018 0.950 1_455 S
H2011 C2020 0.950 . S
H2012 C2022 0.950 . S
H2013 C2024 0.950 1_655 S
H2014 C2026 0.950 . S
H2015 C2027 0.950 . S
C2016 H2008 0.950 . S
C2016 C2017 1.386 . S
C2016 C2018 1.391 . S
C2017 C2016 1.386 . S
C2017 C2021 1.393 . S
C2018 H2010 0.950 1_655 S
C2018 C2016 1.391 . S
C2018 C2019 1.400 . S
C2019 C2018 1.400 . S
C2019 C2020 1.398 . S
C2019 C2025 1.491 1_655 S
C2020 H2011 0.950 . S
C2020 C2019 1.398 . S
C2020 C2021 1.391 . S
C2021 H2009 0.950 . S
C2021 C2017 1.393 . S
C2021 C2020 1.391 . S
C2022 H2012 0.950 . S
C2022 C2023 1.386 . S
C2022 C2024 1.391 . S
C2023 C2022 1.386 . S
C2023 C2027 1.393 . S
C2024 H2013 0.950 1_455 S
C2024 C2022 1.391 . S
C2024 C2025 1.400 . S
C2025 C2019 1.491 1_455 S
C2025 C2024 1.400 . S
C2025 C2026 1.398 . S
C2026 H2014 0.950 . S
C2026 C2025 1.398 . S
C2026 C2027 1.391 . S
C2027 H2015 0.950 . S
C2027 C2023 1.393 . S
C2027 C2026 1.391 . S
H2028 C2036 0.950 . S
H2029 C2041 0.950 . S
H2030 C2038 0.950 . S
H2031 C2040 0.950 . S
H2032 C2042 0.950 . S
H2033 C2044 0.950 . S
H2034 C2046 0.950 . S
H2035 C2047 0.950 . S
C2036 H2028 0.950 . S
C2036 C2037 1.386 . S
C2036 C2038 1.391 . S
C2037 C2036 1.386 . S
C2037 C2041 1.393 . S
C2038 H2030 0.950 . S
C2038 C2036 1.391 . S
C2038 C2039 1.400 . S
C2039 C2038 1.400 . S
C2039 C2040 1.398 . S
C2039 C2045 1.491 . S
C2040 H2031 0.950 . S
C2040 C2039 1.398 . S
C2040 C2041 1.391 . S
C2041 H2029 0.950 . S
C2041 C2037 1.393 . S
C2041 C2040 1.391 . S
C2042 H2032 0.950 . S
C2042 C2043 1.386 . S
C2042 C2044 1.391 . S
C2043 C2042 1.386 . S
C2043 C2047 1.393 . S
C2044 H2033 0.950 . S
C2044 C2042 1.391 . S
C2044 C2045 1.400 . S
C2045 C2039 1.491 . S
C2045 C2044 1.400 . S
C2045 C2046 1.398 . S
C2046 H2034 0.950 . S
C2046 C2045 1.398 . S
C2046 C2047 1.391 . S
C2047 H2035 0.950 . S
C2047 C2043 1.393 . S
C2047 C2046 1.391 . S
H2048 C2056 0.950 . S
H2049 C2061 0.950 . S
H2050 C2058 0.950 . S
H2051 C2060 0.950 . S
H2052 C2062 0.950 . S
H2053 C2064 0.950 . S
H2054 C2066 0.950 . S
H2055 C2067 0.950 . S
C2056 H2048 0.950 . S
C2056 C2057 1.386 . S
C2056 C2058 1.391 . S
C2057 C2056 1.386 . S
C2057 C2061 1.393 . S
C2058 H2050 0.950 . S
C2058 C2056 1.391 . S
C2058 C2059 1.400 . S
C2059 C2058 1.400 . S
C2059 C2060 1.398 . S
C2059 C2065 1.491 . S
C2060 H2051 0.950 . S
C2060 C2059 1.398 . S
C2060 C2061 1.391 . S
C2061 H2049 0.950 . S
C2061 C2057 1.393 . S
C2061 C2060 1.391 . S
C2062 H2052 0.950 . S
C2062 C2063 1.386 . S
C2062 C2064 1.391 . S
C2063 C2062 1.386 . S
C2063 C2067 1.393 . S
C2064 H2053 0.950 . S
C2064 C2062 1.391 . S
C2064 C2065 1.400 . S
C2065 C2059 1.491 . S
C2065 C2064 1.400 . S
C2065 C2066 1.398 . S
C2066 H2054 0.950 . S
C2066 C2065 1.398 . S
C2066 C2067 1.391 . S
C2067 H2055 0.950 . S
C2067 C2063 1.393 . S
C2067 C2066 1.391 . S
H2068 C2076 0.950 . S
H2069 C2081 0.950 . S
H2070 C2078 0.950 . S
H2071 C2080 0.950 . S
H2072 C2082 0.950 . S
H2073 C2084 0.950 . S
H2074 C2086 0.950 . S
H2075 C2087 0.950 . S
C2076 H2068 0.950 . S
C2076 C2077 1.386 . S
C2076 C2078 1.391 . S
C2077 C2076 1.386 . S
C2077 C2081 1.393 . S
C2078 H2070 0.950 . S
C2078 C2076 1.391 . S
C2078 C2079 1.400 . S
C2079 C2078 1.400 . S
C2079 C2080 1.398 . S
C2079 C2085 1.491 . S
C2080 H2071 0.950 . S
C2080 C2079 1.398 . S
C2080 C2081 1.391 . S
C2081 H2069 0.950 . S
C2081 C2077 1.393 . S
C2081 C2080 1.391 . S
C2082 H2072 0.950 . S
C2082 C2083 1.386 . S
C2082 C2084 1.391 . S
C2083 C2082 1.386 . S
C2083 C2087 1.393 . S
C2084 H2073 0.950 . S
C2084 C2082 1.391 . S
C2084 C2085 1.400 . S
C2085 C2079 1.491 . S
C2085 C2084 1.400 . S
C2085 C2086 1.398 . S
C2086 H2074 0.950 . S
C2086 C2085 1.398 . S
C2086 C2087 1.391 . S
C2087 H2075 0.950 . S
C2087 C2083 1.393 . S
C2087 C2086 1.391 . S
H2088 C2096 0.950 . S
H2089 C2101 0.950 . S
H2090 C2098 0.950 . S
H2091 C2100 0.950 . S
H2092 C2102 0.950 1_556 S
H2093 C2104 0.950 . S
H2094 C2106 0.950 . S
H2095 C2107 0.950 . S
C2096 H2088 0.950 . S
C2096 C2097 1.386 . S
C2096 C2098 1.391 . S
C2097 C2096 1.386 . S
C2097 C2101 1.393 . S
C2098 H2090 0.950 . S
C2098 C2096 1.391 . S
C2098 C2099 1.400 . S
C2099 C2098 1.400 . S
C2099 C2100 1.398 . S
C2099 C2105 1.491 . S
C2100 H2091 0.950 . S
C2100 C2099 1.398 . S
C2100 C2101 1.391 . S
C2101 H2089 0.950 . S
C2101 C2097 1.393 . S
C2101 C2100 1.391 . S
C2102 H2092 0.950 1_554 S
C2102 C2103 1.386 1_554 S
C2102 C2104 1.391 . S
C2103 C2102 1.386 1_556 S
C2103 C2107 1.393 1_556 S
C2104 H2093 0.950 . S
C2104 C2102 1.391 . S
C2104 C2105 1.400 . S
C2105 C2099 1.491 . S
C2105 C2104 1.400 . S
C2105 C2106 1.398 . S
C2106 H2094 0.950 . S
C2106 C2105 1.398 . S
C2106 C2107 1.391 . S
C2107 H2095 0.950 . S
C2107 C2103 1.393 1_554 S
C2107 C2106 1.391 . S
H2108 C2116 0.950 1_556 S
H2109 C2121 0.950 . S
H2110 C2118 0.950 . S
H2111 C2120 0.950 . S
H2112 C2122 0.950 . S
H2113 C2124 0.950 . S
H2114 C2126 0.950 . S
H2115 C2127 0.950 . S
C2116 H2108 0.950 1_554 S
C2116 C2117 1.386 1_554 S
C2116 C2118 1.391 . S
C2117 C2116 1.386 1_556 S
C2117 C2121 1.393 1_556 S
C2118 H2110 0.950 . S
C2118 C2116 1.391 . S
C2118 C2119 1.400 . S
C2119 C2118 1.400 . S
C2119 C2120 1.398 . S
C2119 C2125 1.491 . S
C2120 H2111 0.950 . S
C2120 C2119 1.398 . S
C2120 C2121 1.391 . S
C2121 H2109 0.950 . S
C2121 C2117 1.393 1_554 S
C2121 C2120 1.391 . S
C2122 H2112 0.950 . S
C2122 C2123 1.386 . S
C2122 C2124 1.391 . S
C2123 C2122 1.386 . S
C2123 C2127 1.393 . S
C2124 H2113 0.950 . S
C2124 C2122 1.391 . S
C2124 C2125 1.400 . S
C2125 C2119 1.491 . S
C2125 C2124 1.400 . S
C2125 C2126 1.398 . S
C2126 H2114 0.950 . S
C2126 C2125 1.398 . S
C2126 C2127 1.391 . S
C2127 H2115 0.950 . S
C2127 C2123 1.393 . S
C2127 C2126 1.391 . S
H2128 C2136 0.950 . S
H2129 C2141 0.950 1_556 S
H2130 C2138 0.950 . S
H2131 C2140 0.950 . S
H2132 C2142 0.950 . S
H2133 C2144 0.950 . S
H2134 C2146 0.950 . S
H2135 C2147 0.950 . S
C2136 H2128 0.950 . S
C2136 C2137 1.386 1_554 S
C2136 C2138 1.391 . S
C2137 C2136 1.386 1_556 S
C2137 C2141 1.393 1_556 S
C2138 H2130 0.950 . S
C2138 C2136 1.391 . S
C2138 C2139 1.400 . S
C2139 C2138 1.400 . S
C2139 C2140 1.398 . S
C2139 C2145 1.491 . S
C2140 H2131 0.950 . S
C2140 C2139 1.398 . S
C2140 C2141 1.391 . S
C2141 H2129 0.950 1_554 S
C2141 C2137 1.393 1_554 S
C2141 C2140 1.391 . S
C2142 H2132 0.950 . S
C2142 C2143 1.386 . S
C2142 C2144 1.391 . S
C2143 C2142 1.386 . S
C2143 C2147 1.393 . S
C2144 H2133 0.950 . S
C2144 C2142 1.391 . S
C2144 C2145 1.400 . S
C2145 C2139 1.491 . S
C2145 C2144 1.400 . S
C2145 C2146 1.398 . S
C2146 H2134 0.950 . S
C2146 C2145 1.398 . S
C2146 C2147 1.391 . S
C2147 H2135 0.950 . S
C2147 C2143 1.393 . S
C2147 C2146 1.391 . S
H2148 C2156 0.956 . S
H2149 C2161 0.950 . S
H2150 C2158 0.950 . S
H2151 C2160 0.950 . S
H2152 C2162 0.950 . S
H2153 C2164 0.950 . S
H2154 C2166 0.950 . S
H2155 C2167 0.950 . S
C2156 H2148 0.956 . S
C2156 C2157 1.386 1_556 S
C2156 C2158 1.391 . S
C2157 C2156 1.386 1_554 S
C2157 C2161 1.393 1_554 S
C2158 H2150 0.950 . S
C2158 C2156 1.391 . S
C2158 C2159 1.400 . S
C2159 C2158 1.400 . S
C2159 C2160 1.398 . S
C2159 C2165 1.491 . S
C2160 H2151 0.950 . S
C2160 C2159 1.398 . S
C2160 C2161 1.391 . S
C2161 H2149 0.950 . S
C2161 C2157 1.393 1_556 S
C2161 C2160 1.391 . S
C2162 H2152 0.950 . S
C2162 C2163 1.386 . S
C2162 C2164 1.391 . S
C2163 C2162 1.386 . S
C2163 C2167 1.393 . S
C2164 H2153 0.950 . S
C2164 C2162 1.391 . S
C2164 C2165 1.400 . S
C2165 C2159 1.491 . S
C2165 C2164 1.400 . S
C2165 C2166 1.398 . S
C2166 H2154 0.950 . S
C2166 C2165 1.398 . S
C2166 C2167 1.391 . S
C2167 H2155 0.950 . S
C2167 C2163 1.393 . S
C2167 C2166 1.391 . S
H2168 C2176 0.950 1_554 S
H2169 C2181 0.950 . S
H2170 C2178 0.950 . S
H2171 C2180 0.950 . S
H2172 C2182 0.950 . S
H2173 C2184 0.950 . S
H2174 C2186 0.950 . S
H2175 C2187 0.950 . S
C2176 H2168 0.950 1_556 S
C2176 C2177 1.386 1_556 S
C2176 C2178 1.391 . S
C2177 C2176 1.386 1_554 S
C2177 C2181 1.393 1_554 S
C2178 H2170 0.950 . S
C2178 C2176 1.391 . S
C2178 C2179 1.400 . S
C2179 C2178 1.400 . S
C2179 C2180 1.398 . S
C2179 C2185 1.491 . S
C2180 H2171 0.950 . S
C2180 C2179 1.398 . S
C2180 C2181 1.391 . S
C2181 H2169 0.950 . S
C2181 C2177 1.393 1_556 S
C2181 C2180 1.391 . S
C2182 H2172 0.950 . S
C2182 C2183 1.386 . S
C2182 C2184 1.391 . S
C2183 C2182 1.386 . S
C2183 C2187 1.393 . S
C2184 H2173 0.950 . S
C2184 C2182 1.391 . S
C2184 C2185 1.400 . S
C2185 C2179 1.491 . S
C2185 C2184 1.400 . S
C2185 C2186 1.398 . S
C2186 H2174 0.950 . S
C2186 C2185 1.398 . S
C2186 C2187 1.391 . S
C2187 H2175 0.950 . S
C2187 C2183 1.393 . S
C2187 C2186 1.391 . S
H2188 C2196 0.950 1_554 S
H2189 C2201 0.950 . S
H2190 C2198 0.950 . S
H2191 C2200 0.950 . S
H2192 C2202 0.950 . S
H2193 C2204 0.950 . S
H2194 C2206 0.950 . S
H2195 C2207 0.950 . S
C2196 H2188 0.950 1_556 S
C2196 C2197 1.386 1_556 S
C2196 C2198 1.391 . S
C2197 C2196 1.386 1_554 S
C2197 C2201 1.393 1_554 S
C2198 H2190 0.950 . S
C2198 C2196 1.391 . S
C2198 C2199 1.400 . S
C2199 C2198 1.400 . S
C2199 C2200 1.398 . S
C2199 C2205 1.491 . S
C2200 H2191 0.950 . S
C2200 C2199 1.398 . S
C2200 C2201 1.391 . S
C2201 H2189 0.950 . S
C2201 C2197 1.393 1_556 S
C2201 C2200 1.391 . S
C2202 H2192 0.950 . S
C2202 C2203 1.386 . S
C2202 C2204 1.391 . S
C2203 C2202 1.386 . S
C2203 C2207 1.393 . S
C2204 H2193 0.950 . S
C2204 C2202 1.391 . S
C2204 C2205 1.400 . S
C2205 C2199 1.491 . S
C2205 C2204 1.400 . S
C2205 C2206 1.398 . S
C2206 H2194 0.950 . S
C2206 C2205 1.398 . S
C2206 C2207 1.391 . S
C2207 H2195 0.950 . S
C2207 C2203 1.393 . S
C2207 C2206 1.391 . S
H2208 C2216 0.950 . S
H2209 C2221 0.950 . S
H2210 C2218 0.950 . S
H2211 C2220 0.950 . S
H2212 C2222 0.950 . S
H2213 C2224 0.950 . S
H2214 C2226 0.950 . S
H2215 C2227 0.950 . S
C2216 H2208 0.950 . S
C2216 C2217 1.386 . S
C2216 C2218 1.391 . S
C2217 C2216 1.386 . S
C2217 C2221 1.393 . S
C2218 H2210 0.950 . S
C2218 C2216 1.391 . S
C2218 C2219 1.400 . S
C2219 C2218 1.400 . S
C2219 C2220 1.398 . S
C2219 C2225 1.491 . S
C2220 H2211 0.950 . S
C2220 C2219 1.398 . S
C2220 C2221 1.391 . S
C2221 H2209 0.950 . S
C2221 C2217 1.393 . S
C2221 C2220 1.391 . S
C2222 H2212 0.950 . S
C2222 C2223 1.386 . S
C2222 C2224 1.391 . S
C2223 C2222 1.386 . S
C2223 C2227 1.393 . S
C2224 H2213 0.950 . S
C2224 C2222 1.391 . S
C2224 C2225 1.400 . S
C2225 C2219 1.491 . S
C2225 C2224 1.400 . S
C2225 C2226 1.398 . S
C2226 H2214 0.950 . S
C2226 C2225 1.398 . S
C2226 C2227 1.391 . S
C2227 H2215 0.950 . S
C2227 C2223 1.393 . S
C2227 C2226 1.391 . S
H2228 C2236 0.950 . S
H2229 C2241 0.950 . S
H2230 C2238 0.950 . S
H2231 C2240 0.950 . S
H2232 C2242 0.950 . S
H2233 C2244 0.950 . S
H2234 C2246 0.950 . S
H2235 C2247 0.950 . S
C2236 H2228 0.950 . S
C2236 C2237 1.386 . S
C2236 C2238 1.391 . S
C2237 C2236 1.386 . S
C2237 C2241 1.393 . S
C2238 H2230 0.950 . S
C2238 C2236 1.391 . S
C2238 C2239 1.400 . S
C2239 C2238 1.400 . S
C2239 C2240 1.398 . S
C2239 C2245 1.491 . S
C2240 H2231 0.950 . S
C2240 C2239 1.398 . S
C2240 C2241 1.391 . S
C2241 H2229 0.950 . S
C2241 C2237 1.393 . S
C2241 C2240 1.391 . S
C2242 H2232 0.950 . S
C2242 C2243 1.386 . S
C2242 C2244 1.391 . S
C2243 C2242 1.386 . S
C2243 C2247 1.393 . S
C2244 H2233 0.950 . S
C2244 C2242 1.391 . S
C2244 C2245 1.400 . S
C2245 C2239 1.491 . S
C2245 C2244 1.400 . S
C2245 C2246 1.398 . S
C2246 H2234 0.950 . S
C2246 C2245 1.398 . S
C2246 C2247 1.391 . S
C2247 H2235 0.950 . S
C2247 C2243 1.393 . S
C2247 C2246 1.391 . S
H2248 C2256 0.950 . S
H2249 C2261 0.950 . S
H2250 C2258 0.950 . S
H2251 C2260 0.950 . S
H2252 C2262 0.950 . S
H2253 C2264 0.950 . S
H2254 C2266 0.950 . S
H2255 C2267 0.950 . S
C2256 H2248 0.950 . S
C2256 C2257 1.386 . S
C2256 C2258 1.391 . S
C2257 C2256 1.386 . S
C2257 C2261 1.393 . S
C2258 H2250 0.950 . S
C2258 C2256 1.391 . S
C2258 C2259 1.400 . S
C2259 C2258 1.400 . S
C2259 C2260 1.398 . S
C2259 C2265 1.491 . S
C2260 H2251 0.950 . S
C2260 C2259 1.398 . S
C2260 C2261 1.391 . S
C2261 H2249 0.950 . S
C2261 C2257 1.393 . S
C2261 C2260 1.391 . S
C2262 H2252 0.950 . S
C2262 C2263 1.386 . S
C2262 C2264 1.391 . S
C2263 C2262 1.386 . S
C2263 C2267 1.393 . S
C2264 H2253 0.950 . S
C2264 C2262 1.391 . S
C2264 C2265 1.400 . S
C2265 C2259 1.491 . S
C2265 C2264 1.400 . S
C2265 C2266 1.398 . S
C2266 H2254 0.950 . S
C2266 C2265 1.398 . S
C2266 C2267 1.391 . S
C2267 H2255 0.950 . S
C2267 C2263 1.393 . S
C2267 C2266 1.391 . S
H2268 C2276 0.950 . S
H2269 C2281 0.950 1_554 S
H2270 C2278 0.950 . S
H2271 C2280 0.950 . S
H2272 C2282 0.950 . S
H2273 C2284 0.950 . S
H2274 C2286 0.950 . S
H2275 C2287 0.950 . S
C2276 H2268 0.950 . S
C2276 C2277 1.386 . S
C2276 C2278 1.391 . S
C2277 C2276 1.386 . S
C2277 C2281 1.393 . S
C2278 H2270 0.950 . S
C2278 C2276 1.391 . S
C2278 C2279 1.400 . S
C2279 C2278 1.400 . S
C2279 C2280 1.398 . S
C2279 C2285 1.491 . S
C2280 H2271 0.950 . S
C2280 C2279 1.398 . S
C2280 C2281 1.391 . S
C2281 H2269 0.950 1_556 S
C2281 C2277 1.393 . S
C2281 C2280 1.391 . S
C2282 H2272 0.950 . S
C2282 C2283 1.386 . S
C2282 C2284 1.391 . S
C2283 C2282 1.386 . S
C2283 C2287 1.393 . S
C2284 H2273 0.950 . S
C2284 C2282 1.391 . S
C2284 C2285 1.400 . S
C2285 C2279 1.491 . S
C2285 C2284 1.400 . S
C2285 C2286 1.398 . S
C2286 H2274 0.950 . S
C2286 C2285 1.398 . S
C2286 C2287 1.391 . S
C2287 H2275 0.950 . S
C2287 C2283 1.393 . S
C2287 C2286 1.391 . S
H2288 C2296 0.950 . S
H2289 C2301 0.950 . S
H2290 C2298 0.950 . S
H2291 C2300 0.950 . S
H2292 C2302 0.950 . S
H2293 C2304 0.950 . S
H2294 C2306 0.950 . S
H2295 C2307 0.950 . S
C2296 H2288 0.950 . S
C2296 C2297 1.386 . S
C2296 C2298 1.391 . S
C2297 C2296 1.386 . S
C2297 C2301 1.393 . S
C2298 H2290 0.950 . S
C2298 C2296 1.391 . S
C2298 C2299 1.400 . S
C2299 C2298 1.400 . S
C2299 C2300 1.398 . S
C2299 C2305 1.491 . S
C2300 H2291 0.950 . S
C2300 C2299 1.398 . S
C2300 C2301 1.391 . S
C2301 H2289 0.950 . S
C2301 C2297 1.393 . S
C2301 C2300 1.391 . S
C2302 H2292 0.950 . S
C2302 C2303 1.386 . S
C2302 C2304 1.391 . S
C2303 C2302 1.386 . S
C2303 C2307 1.393 . S
C2304 H2293 0.950 . S
C2304 C2302 1.391 . S
C2304 C2305 1.400 . S
C2305 C2299 1.491 . S
C2305 C2304 1.400 . S
C2305 C2306 1.398 . S
C2306 H2294 0.950 . S
C2306 C2305 1.398 . S
C2306 C2307 1.391 . S
C2307 H2295 0.950 . S
C2307 C2303 1.393 . S
C2307 C2306 1.391 . S
H2308 C2316 0.950 . S
H2309 C2321 0.950 . S
H2310 C2318 0.950 . S
H2311 C2320 0.950 . S
H2312 C2322 0.950 . S
H2313 C2324 0.950 . S
H2314 C2326 0.950 . S
H2315 C2327 0.950 . S
C2316 H2308 0.950 . S
C2316 C2317 1.386 . S
C2316 C2318 1.391 . S
C2317 C2316 1.386 . S
C2317 C2321 1.393 . S
C2318 H2310 0.950 . S
C2318 C2316 1.391 . S
C2318 C2319 1.400 . S
C2319 C2318 1.400 . S
C2319 C2320 1.398 . S
C2319 C2325 1.491 . S
C2320 H2311 0.950 . S
C2320 C2319 1.398 . S
C2320 C2321 1.391 . S
C2321 H2309 0.950 . S
C2321 C2317 1.393 . S
C2321 C2320 1.391 . S
C2322 H2312 0.950 . S
C2322 C2323 1.386 . S
C2322 C2324 1.391 . S
C2323 C2322 1.386 . S
C2323 C2327 1.393 . S
C2324 H2313 0.950 . S
C2324 C2322 1.391 . S
C2324 C2325 1.400 . S
C2325 C2319 1.491 . S
C2325 C2324 1.400 . S
C2325 C2326 1.398 . S
C2326 H2314 0.950 . S
C2326 C2325 1.398 . S
C2326 C2327 1.391 . S
C2327 H2315 0.950 . S
C2327 C2323 1.393 . S
C2327 C2326 1.391 . S
H2328 C2336 0.950 . S
H2329 C2341 0.950 . S
H2330 C2338 0.950 . S
H2331 C2340 0.950 . S
H2332 C2342 0.950 . S
H2333 C2344 0.950 . S
H2334 C2346 0.950 . S
H2335 C2347 0.950 . S
C2336 H2328 0.950 . S
C2336 C2337 1.386 . S
C2336 C2338 1.391 . S
C2337 C2336 1.386 . S
C2337 C2341 1.393 . S
C2338 H2330 0.950 . S
C2338 C2336 1.391 . S
C2338 C2339 1.400 . S
C2339 C2338 1.400 . S
C2339 C2340 1.398 . S
C2339 C2345 1.491 . S
C2340 H2331 0.950 . S
C2340 C2339 1.398 . S
C2340 C2341 1.391 . S
C2341 H2329 0.950 . S
C2341 C2337 1.393 . S
C2341 C2340 1.391 . S
C2342 H2332 0.950 . S
C2342 C2343 1.386 . S
C2342 C2344 1.391 . S
C2343 C2342 1.386 . S
C2343 C2347 1.393 . S
C2344 H2333 0.950 . S
C2344 C2342 1.391 . S
C2344 C2345 1.400 . S
C2345 C2339 1.491 . S
C2345 C2344 1.400 . S
C2345 C2346 1.398 . S
C2346 H2334 0.950 . S
C2346 C2345 1.398 . S
C2346 C2347 1.391 . S
C2347 H2335 0.950 . S
C2347 C2343 1.393 . S
C2347 C2346 1.391 . S
H2348 C2356 0.950 . S
H2349 C2361 0.950 . S
H2350 C2358 0.950 . S
H2351 C2360 0.950 . S
H2352 C2362 0.950 . S
H2353 C2364 0.950 . S
H2354 C2366 0.950 . S
H2355 C2367 0.950 . S
C2356 H2348 0.950 . S
C2356 C2357 1.386 . S
C2356 C2358 1.391 . S
C2357 C2356 1.386 . S
C2357 C2361 1.393 . S
C2358 H2350 0.950 . S
C2358 C2356 1.391 . S
C2358 C2359 1.400 . S
C2359 C2358 1.400 . S
C2359 C2360 1.398 . S
C2359 C2365 1.491 . S
C2360 H2351 0.950 . S
C2360 C2359 1.398 . S
C2360 C2361 1.391 . S
C2361 H2349 0.950 . S
C2361 C2357 1.393 . S
C2361 C2360 1.391 . S
C2362 H2352 0.950 . S
C2362 C2363 1.386 . S
C2362 C2364 1.391 . S
C2363 C2362 1.386 . S
C2363 C2367 1.393 . S
C2364 H2353 0.950 . S
C2364 C2362 1.391 . S
C2364 C2365 1.400 . S
C2365 C2359 1.491 . S
C2365 C2364 1.400 . S
C2365 C2366 1.398 . S
C2366 H2354 0.950 . S
C2366 C2365 1.398 . S
C2366 C2367 1.391 . S
C2367 H2355 0.950 . S
C2367 C2363 1.393 . S
C2367 C2366 1.391 . S
H2368 C2376 0.950 . S
H2369 C2381 0.950 . S
H2370 C2378 0.950 . S
H2371 C2380 0.950 . S
H2372 C2382 0.950 . S
H2373 C2384 0.950 . S
H2374 C2386 0.950 . S
H2375 C2387 0.950 . S
C2376 H2368 0.950 . S
C2376 C2377 1.386 . S
C2376 C2378 1.391 . S
C2377 C2376 1.386 . S
C2377 C2381 1.393 . S
C2378 H2370 0.950 . S
C2378 C2376 1.391 . S
C2378 C2379 1.400 . S
C2379 C2378 1.400 . S
C2379 C2380 1.398 . S
C2379 C2385 1.491 . S
C2380 H2371 0.950 . S
C2380 C2379 1.398 . S
C2380 C2381 1.391 . S
C2381 H2369 0.950 . S
C2381 C2377 1.393 . S
C2381 C2380 1.391 . S
C2382 H2372 0.950 . S
C2382 C2383 1.386 . S
C2382 C2384 1.391 . S
C2383 C2382 1.386 . S
C2383 C2387 1.393 . S
C2384 H2373 0.950 . S
C2384 C2382 1.391 . S
C2384 C2385 1.400 . S
C2385 C2379 1.491 . S
C2385 C2384 1.400 . S
C2385 C2386 1.398 . S
C2386 H2374 0.950 . S
C2386 C2385 1.398 . S
C2386 C2387 1.391 . S
C2387 H2375 0.950 . S
C2387 C2383 1.393 . S
C2387 C2386 1.391 . S
H2388 C2396 0.950 . S
H2389 C2401 0.950 . S
H2390 C2398 0.950 . S
H2391 C2400 0.950 . S
H2392 C2402 0.950 . S
H2393 C2404 0.950 . S
H2394 C2406 0.950 . S
H2395 C2407 0.950 . S
C2396 H2388 0.950 . S
C2396 C2397 1.386 . S
C2396 C2398 1.391 . S
C2397 C2396 1.386 . S
C2397 C2401 1.393 . S
C2398 H2390 0.950 . S
C2398 C2396 1.391 . S
C2398 C2399 1.400 . S
C2399 C2398 1.400 . S
C2399 C2400 1.398 . S
C2399 C2405 1.491 . S
C2400 H2391 0.950 . S
C2400 C2399 1.398 . S
C2400 C2401 1.391 . S
C2401 H2389 0.950 . S
C2401 C2397 1.393 . S
C2401 C2400 1.391 . S
C2402 H2392 0.950 . S
C2402 C2403 1.386 . S
C2402 C2404 1.391 . S
C2403 C2402 1.386 . S
C2403 C2407 1.393 . S
C2404 H2393 0.950 . S
C2404 C2402 1.391 . S
C2404 C2405 1.400 . S
C2405 C2399 1.491 . S
C2405 C2404 1.400 . S
C2405 C2406 1.398 . S
C2406 H2394 0.950 . S
C2406 C2405 1.398 . S
C2406 C2407 1.391 . S
C2407 H2395 0.950 . S
C2407 C2403 1.393 . S
C2407 C2406 1.391 . S
H2408 C2416 0.950 . S
H2409 C2421 0.950 . S
H2410 C2418 0.950 . S
H2411 C2420 0.950 . S
H2412 C2422 0.950 . S
H2413 C2424 0.950 . S
H2414 C2426 0.950 . S
H2415 C2427 0.950 . S
C2416 H2408 0.950 . S
C2416 C2417 1.386 . S
C2416 C2418 1.391 . S
C2417 C2416 1.386 . S
C2417 C2421 1.393 . S
C2418 H2410 0.950 . S
C2418 C2416 1.391 . S
C2418 C2419 1.400 . S
C2419 C2418 1.400 . S
C2419 C2420 1.398 . S
C2419 C2425 1.491 . S
C2420 H2411 0.950 . S
C2420 C2419 1.398 . S
C2420 C2421 1.391 . S
C2421 H2409 0.950 . S
C2421 C2417 1.393 . S
C2421 C2420 1.391 . S
C2422 H2412 0.950 . S
C2422 C2423 1.386 . S
C2422 C2424 1.391 . S
C2423 C2422 1.386 . S
C2423 C2427 1.393 . S
C2424 H2413 0.950 . S
C2424 C2422 1.391 . S
C2424 C2425 1.400 . S
C2425 C2419 1.491 . S
C2425 C2424 1.400 . S
C2425 C2426 1.398 . S
C2426 H2414 0.950 . S
C2426 C2425 1.398 . S
C2426 C2427 1.391 . S
C2427 H2415 0.950 . S
C2427 C2423 1.393 . S
C2427 C2426 1.391 . S
H2428 C2436 0.950 . S
H2429 C2441 0.950 . S
H2430 C2438 0.950 . S
H2431 C2440 0.950 . S
H2432 C2442 0.950 . S
H2433 C2444 0.950 . S
H2434 C2446 0.950 . S
H2435 C2447 0.950 . S
C2436 H2428 0.950 . S
C2436 C2437 1.386 . S
C2436 C2438 1.391 . S
C2437 C2436 1.386 . S
C2437 C2441 1.393 . S
C2438 H2430 0.950 . S
C2438 C2436 1.391 . S
C2438 C2439 1.400 . S
C2439 C2438 1.400 . S
C2439 C2440 1.398 . S
C2439 C2445 1.491 . S
C2440 H2431 0.950 . S
C2440 C2439 1.398 . S
C2440 C2441 1.391 . S
C2441 H2429 0.950 . S
C2441 C2437 1.393 . S
C2441 C2440 1.391 . S
C2442 H2432 0.950 . S
C2442 C2443 1.386 . S
C2442 C2444 1.391 . S
C2443 C2442 1.386 . S
C2443 C2447 1.393 . S
C2444 H2433 0.950 . S
C2444 C2442 1.391 . S
C2444 C2445 1.400 . S
C2445 C2439 1.491 . S
C2445 C2444 1.400 . S
C2445 C2446 1.398 . S
C2446 H2434 0.950 . S
C2446 C2445 1.398 . S
C2446 C2447 1.391 . S
C2447 H2435 0.950 . S
C2447 C2443 1.393 . S
C2447 C2446 1.391 . S
H2448 C2456 0.950 . S
H2449 C2461 0.950 . S
H2450 C2458 0.950 . S
H2451 C2460 0.950 . S
H2452 C2462 0.950 . S
H2453 C2464 0.950 . S
H2454 C2466 0.950 . S
H2455 C2467 0.950 . S
C2456 H2448 0.950 . S
C2456 C2457 1.386 . S
C2456 C2458 1.391 . S
C2457 C2456 1.386 . S
C2457 C2461 1.393 . S
C2458 H2450 0.950 . S
C2458 C2456 1.391 . S
C2458 C2459 1.400 . S
C2459 C2458 1.400 . S
C2459 C2460 1.398 . S
C2459 C2465 1.491 . S
C2460 H2451 0.950 . S
C2460 C2459 1.398 . S
C2460 C2461 1.391 . S
C2461 H2449 0.950 . S
C2461 C2457 1.393 . S
C2461 C2460 1.391 . S
C2462 H2452 0.950 . S
C2462 C2463 1.386 . S
C2462 C2464 1.391 . S
C2463 C2462 1.386 . S
C2463 C2467 1.393 . S
C2464 H2453 0.950 . S
C2464 C2462 1.391 . S
C2464 C2465 1.400 . S
C2465 C2459 1.491 . S
C2465 C2464 1.400 . S
C2465 C2466 1.398 . S
C2466 H2454 0.950 . S
C2466 C2465 1.398 . S
C2466 C2467 1.391 . S
C2467 H2455 0.950 . S
C2467 C2463 1.393 . S
C2467 C2466 1.391 . S
H2468 C2476 0.950 . S
H2469 C2481 0.950 . S
H2470 C2478 0.950 . S
H2471 C2480 0.950 . S
H2472 C2482 0.950 . S
H2473 C2484 0.950 . S
H2474 C2486 0.950 . S
H2475 C2487 0.950 . S
C2476 H2468 0.950 . S
C2476 C2477 1.386 . S
C2476 C2478 1.391 . S
C2477 C2476 1.386 . S
C2477 C2481 1.393 . S
C2478 H2470 0.950 . S
C2478 C2476 1.391 . S
C2478 C2479 1.400 . S
C2479 C2478 1.400 . S
C2479 C2480 1.398 . S
C2479 C2485 1.491 . S
C2480 H2471 0.950 . S
C2480 C2479 1.398 . S
C2480 C2481 1.391 . S
C2481 H2469 0.950 . S
C2481 C2477 1.393 . S
C2481 C2480 1.391 . S
C2482 H2472 0.950 . S
C2482 C2483 1.386 . S
C2482 C2484 1.391 . S
C2483 C2482 1.386 . S
C2483 C2487 1.393 . S
C2484 H2473 0.950 . S
C2484 C2482 1.391 . S
C2484 C2485 1.400 . S
C2485 C2479 1.491 . S
C2485 C2484 1.400 . S
C2485 C2486 1.398 . S
C2486 H2474 0.950 . S
C2486 C2485 1.398 . S
C2486 C2487 1.391 . S
C2487 H2475 0.950 . S
C2487 C2483 1.393 . S
C2487 C2486 1.391 . S
H2488 C2496 0.950 . S
H2489 C2501 0.950 . S
H2490 C2498 0.950 . S
H2491 C2500 0.950 . S
H2492 C2502 0.950 . S
H2493 C2504 0.950 . S
H2494 C2506 0.950 . S
H2495 C2507 0.950 . S
C2496 H2488 0.950 . S
C2496 C2497 1.386 . S
C2496 C2498 1.391 . S
C2497 C2496 1.386 . S
C2497 C2501 1.393 . S
C2498 H2490 0.950 . S
C2498 C2496 1.391 . S
C2498 C2499 1.400 . S
C2499 C2498 1.400 . S
C2499 C2500 1.398 . S
C2499 C2505 1.491 . S
C2500 H2491 0.950 . S
C2500 C2499 1.398 . S
C2500 C2501 1.391 . S
C2501 H2489 0.950 . S
C2501 C2497 1.393 . S
C2501 C2500 1.391 . S
C2502 H2492 0.950 . S
C2502 C2503 1.386 . S
C2502 C2504 1.391 . S
C2503 C2502 1.386 . S
C2503 C2507 1.393 . S
C2504 H2493 0.950 . S
C2504 C2502 1.391 . S
C2504 C2505 1.400 . S
C2505 C2499 1.491 . S
C2505 C2504 1.400 . S
C2505 C2506 1.398 . S
C2506 H2494 0.950 . S
C2506 C2505 1.398 . S
C2506 C2507 1.391 . S
C2507 H2495 0.950 . S
C2507 C2503 1.393 . S
C2507 C2506 1.391 . S
H2508 C2516 0.950 . S
H2509 C2521 0.950 . S
H2510 C2518 0.950 . S
H2511 C2520 0.950 . S
H2512 C2522 0.950 . S
H2513 C2524 0.950 . S
H2514 C2526 0.950 . S
H2515 C2527 0.950 . S
C2516 H2508 0.950 . S
C2516 C2517 1.386 . S
C2516 C2518 1.391 . S
C2517 C2516 1.386 . S
C2517 C2521 1.393 . S
C2518 H2510 0.950 . S
C2518 C2516 1.391 . S
C2518 C2519 1.400 . S
C2519 C2518 1.400 . S
C2519 C2520 1.398 . S
C2519 C2525 1.491 1_455 S
C2520 H2511 0.950 . S
C2520 C2519 1.398 . S
C2520 C2521 1.391 . S
C2521 H2509 0.950 . S
C2521 C2517 1.393 . S
C2521 C2520 1.391 . S
C2522 H2512 0.950 . S
C2522 C2523 1.386 . S
C2522 C2524 1.391 . S
C2523 C2522 1.386 . S
C2523 C2527 1.393 . S
C2524 H2513 0.950 . S
C2524 C2522 1.391 . S
C2524 C2525 1.400 . S
C2525 C2519 1.491 1_655 S
C2525 C2524 1.400 . S
C2525 C2526 1.398 . S
C2526 H2514 0.950 . S
C2526 C2525 1.398 . S
C2526 C2527 1.391 . S
C2527 H2515 0.950 . S
C2527 C2523 1.393 . S
C2527 C2526 1.391 . S
H2528 C2536 0.950 . S
H2529 C2541 0.950 . S
H2530 C2538 0.950 . S
H2531 C2540 0.950 . S
H2532 C2542 0.950 . S
H2533 C2544 0.950 . S
H2534 C2546 0.950 . S
H2535 C2547 0.950 . S
C2536 H2528 0.950 . S
C2536 C2537 1.386 . S
C2536 C2538 1.391 . S
C2537 C2536 1.386 . S
C2537 C2541 1.393 . S
C2538 H2530 0.950 . S
C2538 C2536 1.391 . S
C2538 C2539 1.400 . S
C2539 C2538 1.400 . S
C2539 C2540 1.398 . S
C2539 C2545 1.491 . S
C2540 H2531 0.950 . S
C2540 C2539 1.398 . S
C2540 C2541 1.391 . S
C2541 H2529 0.950 . S
C2541 C2537 1.393 . S
C2541 C2540 1.391 . S
C2542 H2532 0.950 . S
C2542 C2543 1.386 . S
C2542 C2544 1.391 . S
C2543 C2542 1.386 . S
C2543 C2547 1.393 . S
C2544 H2533 0.950 . S
C2544 C2542 1.391 . S
C2544 C2545 1.400 . S
C2545 C2539 1.491 . S
C2545 C2544 1.400 . S
C2545 C2546 1.398 . S
C2546 H2534 0.950 . S
C2546 C2545 1.398 . S
C2546 C2547 1.391 . S
C2547 H2535 0.950 . S
C2547 C2543 1.393 . S
C2547 C2546 1.391 . S
H2548 C2556 0.950 . S
H2549 C2561 0.950 . S
H2550 C2558 0.950 1_565 S
H2551 C2560 0.950 . S
H2552 C2562 0.950 . S
H2553 C2564 0.950 1_545 S
H2554 C2566 0.950 . S
H2555 C2567 0.950 . S
C2556 H2548 0.950 . S
C2556 C2557 1.386 . S
C2556 C2558 1.391 . S
C2557 C2556 1.386 . S
C2557 C2561 1.393 . S
C2558 H2550 0.950 1_545 S
C2558 C2556 1.391 . S
C2558 C2559 1.400 . S
C2559 C2558 1.400 . S
C2559 C2560 1.398 . S
C2559 C2565 1.491 1_545 S
C2560 H2551 0.950 . S
C2560 C2559 1.398 . S
C2560 C2561 1.391 . S
C2561 H2549 0.950 . S
C2561 C2557 1.393 . S
C2561 C2560 1.391 . S
C2562 H2552 0.950 . S
C2562 C2563 1.386 . S
C2562 C2564 1.391 . S
C2563 C2562 1.386 . S
C2563 C2567 1.393 . S
C2564 H2553 0.950 1_565 S
C2564 C2562 1.391 . S
C2564 C2565 1.400 . S
C2565 C2559 1.491 1_565 S
C2565 C2564 1.400 . S
C2565 C2566 1.398 . S
C2566 H2554 0.950 . S
C2566 C2565 1.398 . S
C2566 C2567 1.391 . S
C2567 H2555 0.950 . S
C2567 C2563 1.393 . S
C2567 C2566 1.391 . S
H2568 C2576 0.950 . S
H2569 C2581 0.950 . S
H2570 C2578 0.950 1_565 S
H2571 C2580 0.950 . S
H2572 C2582 0.950 . S
H2573 C2584 0.950 1_545 S
H2574 C2586 0.950 . S
H2575 C2587 0.950 . S
C2576 H2568 0.950 . S
C2576 C2577 1.386 . S
C2576 C2578 1.391 . S
C2577 C2576 1.386 . S
C2577 C2581 1.393 . S
C2578 H2570 0.950 1_545 S
C2578 C2576 1.391 . S
C2578 C2579 1.400 . S
C2579 C2578 1.400 . S
C2579 C2580 1.398 . S
C2579 C2585 1.491 1_545 S
C2580 H2571 0.950 . S
C2580 C2579 1.398 . S
C2580 C2581 1.391 . S
C2581 H2569 0.950 . S
C2581 C2577 1.393 . S
C2581 C2580 1.391 . S
C2582 H2572 0.950 . S
C2582 C2583 1.386 . S
C2582 C2584 1.391 . S
C2583 C2582 1.386 . S
C2583 C2587 1.393 . S
C2584 H2573 0.950 1_565 S
C2584 C2582 1.391 . S
C2584 C2585 1.400 . S
C2585 C2579 1.491 1_565 S
C2585 C2584 1.400 . S
C2585 C2586 1.398 . S
C2586 H2574 0.950 . S
C2586 C2585 1.398 . S
C2586 C2587 1.391 . S
C2587 H2575 0.950 . S
C2587 C2583 1.393 . S
C2587 C2586 1.391 . S
H2588 C2596 0.950 . S
H2589 C2601 0.950 . S
H2590 C2598 0.950 . S
H2591 C2600 0.950 1_455 S
H2592 C2602 0.950 . S
H2593 C2604 0.950 . S
H2594 C2606 0.950 1_655 S
H2595 C2607 0.950 . S
C2596 H2588 0.950 . S
C2596 C2597 1.386 . S
C2596 C2598 1.391 . S
C2597 C2596 1.386 . S
C2597 C2601 1.393 . S
C2598 H2590 0.950 . S
C2598 C2596 1.391 . S
C2598 C2599 1.400 . S
C2599 C2598 1.400 . S
C2599 C2600 1.398 . S
C2599 C2605 1.491 1_655 S
C2600 H2591 0.950 1_655 S
C2600 C2599 1.398 . S
C2600 C2601 1.391 . S
C2601 H2589 0.950 . S
C2601 C2597 1.393 . S
C2601 C2600 1.391 . S
C2602 H2592 0.950 . S
C2602 C2603 1.386 . S
C2602 C2604 1.391 . S
C2603 C2602 1.386 . S
C2603 C2607 1.393 . S
C2604 H2593 0.950 . S
C2604 C2602 1.391 . S
C2604 C2605 1.400 . S
C2605 C2599 1.491 1_455 S
C2605 C2604 1.400 . S
C2605 C2606 1.398 . S
C2606 H2594 0.950 1_455 S
C2606 C2605 1.398 . S
C2606 C2607 1.391 . S
C2607 H2595 0.950 . S
C2607 C2603 1.393 . S
C2607 C2606 1.391 . S
H2608 C2616 0.950 . S
H2609 C2621 0.950 . S
H2610 C2618 0.950 . S
H2611 C2620 0.950 . S
H2612 C2622 0.950 . S
H2613 C2624 0.950 . S
H2614 C2626 0.950 . S
H2615 C2627 0.950 . S
C2616 H2608 0.950 . S
C2616 C2617 1.386 . S
C2616 C2618 1.391 . S
C2617 C2616 1.386 . S
C2617 C2621 1.393 . S
C2618 H2610 0.950 . S
C2618 C2616 1.391 . S
C2618 C2619 1.400 . S
C2619 C2618 1.400 . S
C2619 C2620 1.398 . S
C2619 C2625 1.491 . S
C2620 H2611 0.950 . S
C2620 C2619 1.398 . S
C2620 C2621 1.391 . S
C2621 H2609 0.950 . S
C2621 C2617 1.393 . S
C2621 C2620 1.391 . S
C2622 H2612 0.950 . S
C2622 C2623 1.386 . S
C2622 C2624 1.391 . S
C2623 C2622 1.386 . S
C2623 C2627 1.393 . S
C2624 H2613 0.950 . S
C2624 C2622 1.391 . S
C2624 C2625 1.400 . S
C2625 C2619 1.491 . S
C2625 C2624 1.400 . S
C2625 C2626 1.398 . S
C2626 H2614 0.950 . S
C2626 C2625 1.398 . S
C2626 C2627 1.391 . S
C2627 H2615 0.950 . S
C2627 C2623 1.393 . S
C2627 C2626 1.391 . S
H2628 C2636 0.950 . S
H2629 C2641 0.950 . S
H2630 C2638 0.950 . S
H2631 C2640 0.950 . S
H2632 C2642 0.950 . S
H2633 C2644 0.950 . S
H2634 C2646 0.950 . S
H2635 C2647 0.950 . S
C2636 H2628 0.950 . S
C2636 C2637 1.386 . S
C2636 C2638 1.391 . S
C2637 C2636 1.386 . S
C2637 C2641 1.393 . S
C2638 H2630 0.950 . S
C2638 C2636 1.391 . S
C2638 C2639 1.400 . S
C2639 C2638 1.400 . S
C2639 C2640 1.398 . S
C2639 C2645 1.491 . S
C2640 H2631 0.950 . S
C2640 C2639 1.398 . S
C2640 C2641 1.391 . S
C2641 H2629 0.950 . S
C2641 C2637 1.393 . S
C2641 C2640 1.391 . S
C2642 H2632 0.950 . S
C2642 C2643 1.386 . S
C2642 C2644 1.391 . S
C2643 C2642 1.386 . S
C2643 C2647 1.393 . S
C2644 H2633 0.950 . S
C2644 C2642 1.391 . S
C2644 C2645 1.400 . S
C2645 C2639 1.491 . S
C2645 C2644 1.400 . S
C2645 C2646 1.398 . S
C2646 H2634 0.950 . S
C2646 C2645 1.398 . S
C2646 C2647 1.391 . S
C2647 H2635 0.950 . S
C2647 C2643 1.393 . S
C2647 C2646 1.391 . S
H2648 C2656 0.950 . S
H2649 C2661 0.950 . S
H2650 C2658 0.950 . S
H2651 C2660 0.950 . S
H2652 C2662 0.950 . S
H2653 C2664 0.950 . S
H2654 C2666 0.950 . S
H2655 C2667 0.950 . S
C2656 H2648 0.950 . S
C2656 C2657 1.386 . S
C2656 C2658 1.391 . S
C2657 C2656 1.386 . S
C2657 C2661 1.393 . S
C2658 H2650 0.950 . S
C2658 C2656 1.391 . S
C2658 C2659 1.400 . S
C2659 C2658 1.400 . S
C2659 C2660 1.398 . S
C2659 C2665 1.491 . S
C2660 H2651 0.950 . S
C2660 C2659 1.398 . S
C2660 C2661 1.391 . S
C2661 H2649 0.950 . S
C2661 C2657 1.393 . S
C2661 C2660 1.391 . S
C2662 H2652 0.950 . S
C2662 C2663 1.386 . S
C2662 C2664 1.391 . S
C2663 C2662 1.386 . S
C2663 C2667 1.393 . S
C2664 H2653 0.950 . S
C2664 C2662 1.391 . S
C2664 C2665 1.400 . S
C2665 C2659 1.491 . S
C2665 C2664 1.400 . S
C2665 C2666 1.398 . S
C2666 H2654 0.950 . S
C2666 C2665 1.398 . S
C2666 C2667 1.391 . S
C2667 H2655 0.950 . S
C2667 C2663 1.393 . S
C2667 C2666 1.391 . S
H2668 C2676 0.950 . S
H2669 C2681 0.950 . S
H2670 C2678 0.950 . S
H2671 C2680 0.950 . S
H2672 C2682 0.950 . S
H2673 C2684 0.950 . S
H2674 C2686 0.950 . S
H2675 C2687 0.950 . S
C2676 H2668 0.950 . S
C2676 C2677 1.386 . S
C2676 C2678 1.391 . S
C2677 C2676 1.386 . S
C2677 C2681 1.393 . S
C2678 H2670 0.950 . S
C2678 C2676 1.391 . S
C2678 C2679 1.400 . S
C2679 C2678 1.400 . S
C2679 C2680 1.398 . S
C2679 C2685 1.491 . S
C2680 H2671 0.950 . S
C2680 C2679 1.398 . S
C2680 C2681 1.391 . S
C2681 H2669 0.950 . S
C2681 C2677 1.393 . S
C2681 C2680 1.391 . S
C2682 H2672 0.950 . S
C2682 C2683 1.386 . S
C2682 C2684 1.391 . S
C2683 C2682 1.386 . S
C2683 C2687 1.393 . S
C2684 H2673 0.950 . S
C2684 C2682 1.391 . S
C2684 C2685 1.400 . S
C2685 C2679 1.491 . S
C2685 C2684 1.400 . S
C2685 C2686 1.398 . S
C2686 H2674 0.950 . S
C2686 C2685 1.398 . S
C2686 C2687 1.391 . S
C2687 H2675 0.950 . S
C2687 C2683 1.393 . S
C2687 C2686 1.391 . S
H2688 C2696 0.950 . S
H2689 C2701 0.950 . S
H2690 C2698 0.950 . S
H2691 C2700 0.950 . S
H2692 C2702 0.950 . S
H2693 C2704 0.950 . S
H2694 C2706 0.950 . S
H2695 C2707 0.950 . S
C2696 H2688 0.950 . S
C2696 C2697 1.386 . S
C2696 C2698 1.391 . S
C2697 C2696 1.386 . S
C2697 C2701 1.393 . S
C2698 H2690 0.950 . S
C2698 C2696 1.391 . S
C2698 C2699 1.400 . S
C2699 C2698 1.400 . S
C2699 C2700 1.398 . S
C2699 C2705 1.491 . S
C2700 H2691 0.950 . S
C2700 C2699 1.398 . S
C2700 C2701 1.391 . S
C2701 H2689 0.950 . S
C2701 C2697 1.393 . S
C2701 C2700 1.391 . S
C2702 H2692 0.950 . S
C2702 C2703 1.386 . S
C2702 C2704 1.391 . S
C2703 C2702 1.386 . S
C2703 C2707 1.393 . S
C2704 H2693 0.950 . S
C2704 C2702 1.391 . S
C2704 C2705 1.400 . S
C2705 C2699 1.491 . S
C2705 C2704 1.400 . S
C2705 C2706 1.398 . S
C2706 H2694 0.950 . S
C2706 C2705 1.398 . S
C2706 C2707 1.391 . S
C2707 H2695 0.950 . S
C2707 C2703 1.393 . S
C2707 C2706 1.391 . S
H2708 C2716 0.950 . S
H2709 C2721 0.950 . S
H2710 C2718 0.950 . S
H2711 C2720 0.950 . S
H2712 C2722 0.950 . S
H2713 C2724 0.950 . S
H2714 C2726 0.950 . S
H2715 C2727 0.950 . S
C2716 H2708 0.950 . S
C2716 C2717 1.386 . S
C2716 C2718 1.391 . S
C2717 C2716 1.386 . S
C2717 C2721 1.393 . S
C2718 H2710 0.950 . S
C2718 C2716 1.391 . S
C2718 C2719 1.400 . S
C2719 C2718 1.400 . S
C2719 C2720 1.398 . S
C2719 C2725 1.491 . S
C2720 H2711 0.950 . S
C2720 C2719 1.398 . S
C2720 C2721 1.391 . S
C2721 H2709 0.950 . S
C2721 C2717 1.393 . S
C2721 C2720 1.391 . S
C2722 H2712 0.950 . S
C2722 C2723 1.386 . S
C2722 C2724 1.391 . S
C2723 C2722 1.386 . S
C2723 C2727 1.393 . S
C2724 H2713 0.950 . S
C2724 C2722 1.391 . S
C2724 C2725 1.400 . S
C2725 C2719 1.491 . S
C2725 C2724 1.400 . S
C2725 C2726 1.398 . S
C2726 H2714 0.950 . S
C2726 C2725 1.398 . S
C2726 C2727 1.391 . S
C2727 H2715 0.950 . S
C2727 C2723 1.393 . S
C2727 C2726 1.391 . S
H2728 C2736 0.950 . S
H2729 C2741 0.950 . S
H2730 C2738 0.950 . S
H2731 C2740 0.950 . S
H2732 C2742 0.950 . S
H2733 C2744 0.950 . S
H2734 C2746 0.950 . S
H2735 C2747 0.950 . S
C2736 H2728 0.950 . S
C2736 C2737 1.386 . S
C2736 C2738 1.391 . S
C2737 C2736 1.386 . S
C2737 C2741 1.393 . S
C2738 H2730 0.950 . S
C2738 C2736 1.391 . S
C2738 C2739 1.400 . S
C2739 C2738 1.400 . S
C2739 C2740 1.398 . S
C2739 C2745 1.491 . S
C2740 H2731 0.950 . S
C2740 C2739 1.398 . S
C2740 C2741 1.391 . S
C2741 H2729 0.950 . S
C2741 C2737 1.393 . S
C2741 C2740 1.391 . S
C2742 H2732 0.950 . S
C2742 C2743 1.386 . S
C2742 C2744 1.391 . S
C2743 C2742 1.386 . S
C2743 C2747 1.393 . S
C2744 H2733 0.950 . S
C2744 C2742 1.391 . S
C2744 C2745 1.400 . S
C2745 C2739 1.491 . S
C2745 C2744 1.400 . S
C2745 C2746 1.398 . S
C2746 H2734 0.950 . S
C2746 C2745 1.398 . S
C2746 C2747 1.391 . S
C2747 H2735 0.950 . S
C2747 C2743 1.393 . S
C2747 C2746 1.391 . S
H2748 C2756 0.950 . S
H2749 C2761 0.950 . S
H2750 C2758 0.950 . S
H2751 C2760 0.950 . S
H2752 C2762 0.950 . S
H2753 C2764 0.950 . S
H2754 C2766 0.950 . S
H2755 C2767 0.950 . S
C2756 H2748 0.950 . S
C2756 C2757 1.386 . S
C2756 C2758 1.391 . S
C2757 C2756 1.386 . S
C2757 C2761 1.393 . S
C2758 H2750 0.950 . S
C2758 C2756 1.391 . S
C2758 C2759 1.400 . S
C2759 C2758 1.400 . S
C2759 C2760 1.398 . S
C2759 C2765 1.491 . S
C2760 H2751 0.950 . S
C2760 C2759 1.398 . S
C2760 C2761 1.391 . S
C2761 H2749 0.950 . S
C2761 C2757 1.393 . S
C2761 C2760 1.391 . S
C2762 H2752 0.950 . S
C2762 C2763 1.386 . S
C2762 C2764 1.391 . S
C2763 C2762 1.386 . S
C2763 C2767 1.393 . S
C2764 H2753 0.950 . S
C2764 C2762 1.391 . S
C2764 C2765 1.400 . S
C2765 C2759 1.491 . S
C2765 C2764 1.400 . S
C2765 C2766 1.398 . S
C2766 H2754 0.950 . S
C2766 C2765 1.398 . S
C2766 C2767 1.391 . S
C2767 H2755 0.950 . S
C2767 C2763 1.393 . S
C2767 C2766 1.391 . S
H2768 C2776 0.950 . S
H2769 C2781 0.950 . S
H2770 C2778 0.950 . S
H2771 C2780 0.950 . S
H2772 C2782 0.950 . S
H2773 C2784 0.950 . S
H2774 C2786 0.950 . S
H2775 C2787 0.950 . S
C2776 H2768 0.950 . S
C2776 C2777 1.386 . S
C2776 C2778 1.391 . S
C2777 C2776 1.386 . S
C2777 C2781 1.393 . S
C2778 H2770 0.950 . S
C2778 C2776 1.391 . S
C2778 C2779 1.400 . S
C2779 C2778 1.400 . S
C2779 C2780 1.398 . S
C2779 C2785 1.491 . S
C2780 H2771 0.950 . S
C2780 C2779 1.398 . S
C2780 C2781 1.391 . S
C2781 H2769 0.950 . S
C2781 C2777 1.393 . S
C2781 C2780 1.391 . S
C2782 H2772 0.950 . S
C2782 C2783 1.386 . S
C2782 C2784 1.391 . S
C2783 C2782 1.386 . S
C2783 C2787 1.393 . S
C2784 H2773 0.950 . S
C2784 C2782 1.391 . S
C2784 C2785 1.400 . S
C2785 C2779 1.491 . S
C2785 C2784 1.400 . S
C2785 C2786 1.398 . S
C2786 H2774 0.950 . S
C2786 C2785 1.398 . S
C2786 C2787 1.391 . S
C2787 H2775 0.950 . S
C2787 C2783 1.393 . S
C2787 C2786 1.391 . S
H2788 C2796 0.950 . S
H2789 C2801 0.950 . S
H2790 C2798 0.950 . S
H2791 C2800 0.950 . S
H2792 C2802 0.950 . S
H2793 C2804 0.950 . S
H2794 C2806 0.950 . S
H2795 C2807 0.950 . S
C2796 H2788 0.950 . S
C2796 C2797 1.386 . S
C2796 C2798 1.391 . S
C2797 C2796 1.386 . S
C2797 C2801 1.393 . S
C2798 H2790 0.950 . S
C2798 C2796 1.391 . S
C2798 C2799 1.400 . S
C2799 C2798 1.400 . S
C2799 C2800 1.398 . S
C2799 C2805 1.491 . S
C2800 H2791 0.950 . S
C2800 C2799 1.398 . S
C2800 C2801 1.391 . S
C2801 H2789 0.950 . S
C2801 C2797 1.393 . S
C2801 C2800 1.391 . S
C2802 H2792 0.950 . S
C2802 C2803 1.386 . S
C2802 C2804 1.391 . S
C2803 C2802 1.386 . S
C2803 C2807 1.393 . S
C2804 H2793 0.950 . S
C2804 C2802 1.391 . S
C2804 C2805 1.400 . S
C2805 C2799 1.491 . S
C2805 C2804 1.400 . S
C2805 C2806 1.398 . S
C2806 H2794 0.950 . S
C2806 C2805 1.398 . S
C2806 C2807 1.391 . S
C2807 H2795 0.950 . S
C2807 C2803 1.393 . S
C2807 C2806 1.391 . S
H2808 C2816 0.950 . S
H2809 C2821 0.950 . S
H2810 C2818 0.950 . S
H2811 C2820 0.950 . S
H2812 C2822 0.950 . S
H2813 C2824 0.950 . S
H2814 C2826 0.950 . S
H2815 C2827 0.950 . S
C2816 H2808 0.950 . S
C2816 C2817 1.386 . S
C2816 C2818 1.391 . S
C2817 C2816 1.386 . S
C2817 C2821 1.393 . S
C2818 H2810 0.950 . S
C2818 C2816 1.391 . S
C2818 C2819 1.400 . S
C2819 C2818 1.400 . S
C2819 C2820 1.398 . S
C2819 C2825 1.491 . S
C2820 H2811 0.950 . S
C2820 C2819 1.398 . S
C2820 C2821 1.391 . S
C2821 H2809 0.950 . S
C2821 C2817 1.393 . S
C2821 C2820 1.391 . S
C2822 H2812 0.950 . S
C2822 C2823 1.386 . S
C2822 C2824 1.391 . S
C2823 C2822 1.386 . S
C2823 C2827 1.393 . S
C2824 H2813 0.950 . S
C2824 C2822 1.391 . S
C2824 C2825 1.400 . S
C2825 C2819 1.491 . S
C2825 C2824 1.400 . S
C2825 C2826 1.398 . S
C2826 H2814 0.950 . S
C2826 C2825 1.398 . S
C2826 C2827 1.391 . S
C2827 H2815 0.950 . S
C2827 C2823 1.393 . S
C2827 C2826 1.391 . S
H2828 C2836 0.950 . S
H2829 C2841 0.950 . S
H2830 C2838 0.950 . S
H2831 C2840 0.950 . S
H2832 C2842 0.950 . S
H2833 C2844 0.950 . S
H2834 C2846 0.950 . S
H2835 C2847 0.950 . S
C2836 H2828 0.950 . S
C2836 C2837 1.386 . S
C2836 C2838 1.391 . S
C2837 C2836 1.386 . S
C2837 C2841 1.393 . S
C2838 H2830 0.950 . S
C2838 C2836 1.391 . S
C2838 C2839 1.400 . S
C2839 C2838 1.400 . S
C2839 C2840 1.398 . S
C2839 C2845 1.491 . S
C2840 H2831 0.950 . S
C2840 C2839 1.398 . S
C2840 C2841 1.391 . S
C2841 H2829 0.950 . S
C2841 C2837 1.393 . S
C2841 C2840 1.391 . S
C2842 H2832 0.950 . S
C2842 C2843 1.386 . S
C2842 C2844 1.391 . S
C2843 C2842 1.386 . S
C2843 C2847 1.393 . S
C2844 H2833 0.950 . S
C2844 C2842 1.391 . S
C2844 C2845 1.400 . S
C2845 C2839 1.491 . S
C2845 C2844 1.400 . S
C2845 C2846 1.398 . S
C2846 H2834 0.950 . S
C2846 C2845 1.398 . S
C2846 C2847 1.391 . S
C2847 H2835 0.950 . S
C2847 C2843 1.393 . S
C2847 C2846 1.391 . S
H2848 C2856 0.950 . S
H2849 C2861 0.950 . S
H2850 C2858 0.950 . S
H2851 C2860 0.950 . S
H2852 C2862 0.950 . S
H2853 C2864 0.950 . S
H2854 C2866 0.950 . S
H2855 C2867 0.950 . S
C2856 H2848 0.950 . S
C2856 C2857 1.386 . S
C2856 C2858 1.391 . S
C2857 C2856 1.386 . S
C2857 C2861 1.393 . S
C2858 H2850 0.950 . S
C2858 C2856 1.391 . S
C2858 C2859 1.400 . S
C2859 C2858 1.400 . S
C2859 C2860 1.398 . S
C2859 C2865 1.491 . S
C2860 H2851 0.950 . S
C2860 C2859 1.398 . S
C2860 C2861 1.391 . S
C2861 H2849 0.950 . S
C2861 C2857 1.393 . S
C2861 C2860 1.391 . S
C2862 H2852 0.950 . S
C2862 C2863 1.386 . S
C2862 C2864 1.391 . S
C2863 C2862 1.386 . S
C2863 C2867 1.393 . S
C2864 H2853 0.950 . S
C2864 C2862 1.391 . S
C2864 C2865 1.400 . S
C2865 C2859 1.491 . S
C2865 C2864 1.400 . S
C2865 C2866 1.398 . S
C2866 H2854 0.950 . S
C2866 C2865 1.398 . S
C2866 C2867 1.391 . S
C2867 H2855 0.950 . S
C2867 C2863 1.393 . S
C2867 C2866 1.391 . S
H2868 C2876 0.950 . S
H2869 C2881 0.950 . S
H2870 C2878 0.950 . S
H2871 C2880 0.950 . S
H2872 C2882 0.950 . S
H2873 C2884 0.950 . S
H2874 C2886 0.950 . S
H2875 C2887 0.950 . S
C2876 H2868 0.950 . S
C2876 C2877 1.386 . S
C2876 C2878 1.391 . S
C2877 C2876 1.386 . S
C2877 C2881 1.393 . S
C2878 H2870 0.950 . S
C2878 C2876 1.391 . S
C2878 C2879 1.400 . S
C2879 C2878 1.400 . S
C2879 C2880 1.398 . S
C2879 C2885 1.491 1_455 S
C2880 H2871 0.950 . S
C2880 C2879 1.398 . S
C2880 C2881 1.391 . S
C2881 H2869 0.950 . S
C2881 C2877 1.393 . S
C2881 C2880 1.391 . S
C2882 H2872 0.950 . S
C2882 C2883 1.386 . S
C2882 C2884 1.391 . S
C2883 C2882 1.386 . S
C2883 C2887 1.393 . S
C2884 H2873 0.950 . S
C2884 C2882 1.391 . S
C2884 C2885 1.400 . S
C2885 C2879 1.491 1_655 S
C2885 C2884 1.400 . S
C2885 C2886 1.398 . S
C2886 H2874 0.950 . S
C2886 C2885 1.398 . S
C2886 C2887 1.391 . S
C2887 H2875 0.950 . S
C2887 C2883 1.393 . S
C2887 C2886 1.391 . S
H2888 C2896 0.950 . S
H2889 C2901 0.950 . S
H2890 C2898 0.950 . S
H2891 C2900 0.950 . S
H2892 C2902 0.950 . S
H2893 C2904 0.950 . S
H2894 C2906 0.950 . S
H2895 C2907 0.950 . S
C2896 H2888 0.950 . S
C2896 C2897 1.386 . S
C2896 C2898 1.391 . S
C2897 C2896 1.386 . S
C2897 C2901 1.393 . S
C2898 H2890 0.950 . S
C2898 C2896 1.391 . S
C2898 C2899 1.400 . S
C2899 C2898 1.400 . S
C2899 C2900 1.398 . S
C2899 C2905 1.491 . S
C2900 H2891 0.950 . S
C2900 C2899 1.398 . S
C2900 C2901 1.391 . S
C2901 H2889 0.950 . S
C2901 C2897 1.393 . S
C2901 C2900 1.391 . S
C2902 H2892 0.950 . S
C2902 C2903 1.386 . S
C2902 C2904 1.391 . S
C2903 C2902 1.386 . S
C2903 C2907 1.393 . S
C2904 H2893 0.950 . S
C2904 C2902 1.391 . S
C2904 C2905 1.400 . S
C2905 C2899 1.491 . S
C2905 C2904 1.400 . S
C2905 C2906 1.398 . S
C2906 H2894 0.950 . S
C2906 C2905 1.398 . S
C2906 C2907 1.391 . S
C2907 H2895 0.950 . S
C2907 C2903 1.393 . S
C2907 C2906 1.391 . S
H2908 C2916 0.950 . S
H2909 C2921 0.950 . S
H2910 C2918 0.950 . S
H2911 C2920 0.950 . S
H2912 C2922 0.950 . S
H2913 C2924 0.950 . S
H2914 C2926 0.950 . S
H2915 C2927 0.950 . S
C2916 H2908 0.950 . S
C2916 C2917 1.386 . S
C2916 C2918 1.391 . S
C2917 C2916 1.386 . S
C2917 C2921 1.393 . S
C2918 H2910 0.950 . S
C2918 C2916 1.391 . S
C2918 C2919 1.400 . S
C2919 C2918 1.400 . S
C2919 C2920 1.398 . S
C2919 C2925 1.491 1_545 S
C2920 H2911 0.950 . S
C2920 C2919 1.398 . S
C2920 C2921 1.391 . S
C2921 H2909 0.950 . S
C2921 C2917 1.393 . S
C2921 C2920 1.391 . S
C2922 H2912 0.950 . S
C2922 C2923 1.386 . S
C2922 C2924 1.391 . S
C2923 C2922 1.386 . S
C2923 C2927 1.393 . S
C2924 H2913 0.950 . S
C2924 C2922 1.391 . S
C2924 C2925 1.400 . S
C2925 C2919 1.491 1_565 S
C2925 C2924 1.400 . S
C2925 C2926 1.398 . S
C2926 H2914 0.950 . S
C2926 C2925 1.398 . S
C2926 C2927 1.391 . S
C2927 H2915 0.950 . S
C2927 C2923 1.393 . S
C2927 C2926 1.391 . S
H2928 C2936 0.950 . S
H2929 C2941 0.950 . S
H2930 C2938 0.950 . S
H2931 C2940 0.950 . S
H2932 C2942 0.950 . S
H2933 C2944 0.950 . S
H2934 C2946 0.950 . S
H2935 C2947 0.950 . S
C2936 H2928 0.950 . S
C2936 C2937 1.386 . S
C2936 C2938 1.391 . S
C2937 C2936 1.386 . S
C2937 C2941 1.393 . S
C2938 H2930 0.950 . S
C2938 C2936 1.391 . S
C2938 C2939 1.400 . S
C2939 C2938 1.400 . S
C2939 C2940 1.398 . S
C2939 C2945 1.491 1_545 S
C2940 H2931 0.950 . S
C2940 C2939 1.398 . S
C2940 C2941 1.391 . S
C2941 H2929 0.950 . S
C2941 C2937 1.393 . S
C2941 C2940 1.391 . S
C2942 H2932 0.950 . S
C2942 C2943 1.386 . S
C2942 C2944 1.391 . S
C2943 C2942 1.386 . S
C2943 C2947 1.393 . S
C2944 H2933 0.950 . S
C2944 C2942 1.391 . S
C2944 C2945 1.400 . S
C2945 C2939 1.491 1_565 S
C2945 C2944 1.400 . S
C2945 C2946 1.398 . S
C2946 H2934 0.950 . S
C2946 C2945 1.398 . S
C2946 C2947 1.391 . S
C2947 H2935 0.950 . S
C2947 C2943 1.393 . S
C2947 C2946 1.391 . S
H2948 C2956 0.950 . S
H2949 C2961 0.950 . S
H2950 C2958 0.950 . S
H2951 C2960 0.950 . S
H2952 C2962 0.950 . S
H2953 C2964 0.950 . S
H2954 C2966 0.950 . S
H2955 C2967 0.950 . S
C2956 H2948 0.950 . S
C2956 C2957 1.386 . S
C2956 C2958 1.391 . S
C2957 C2956 1.386 . S
C2957 C2961 1.393 . S
C2958 H2950 0.950 . S
C2958 C2956 1.391 . S
C2958 C2959 1.400 . S
C2959 C2958 1.400 . S
C2959 C2960 1.398 . S
C2959 C2965 1.491 1_455 S
C2960 H2951 0.950 . S
C2960 C2959 1.398 . S
C2960 C2961 1.391 . S
C2961 H2949 0.950 . S
C2961 C2957 1.393 . S
C2961 C2960 1.391 . S
C2962 H2952 0.950 . S
C2962 C2963 1.386 . S
C2962 C2964 1.391 . S
C2963 C2962 1.386 . S
C2963 C2967 1.393 . S
C2964 H2953 0.950 . S
C2964 C2962 1.391 . S
C2964 C2965 1.400 . S
C2965 C2959 1.491 1_655 S
C2965 C2964 1.400 . S
C2965 C2966 1.398 . S
C2966 H2954 0.950 . S
C2966 C2965 1.398 . S
C2966 C2967 1.391 . S
C2967 H2955 0.950 . S
C2967 C2963 1.393 . S
C2967 C2966 1.391 . S
H2968 C2976 0.950 . S
H2969 C2981 0.950 . S
H2970 C2978 0.950 . S
H2971 C2980 0.950 . S
H2972 C2982 0.950 . S
H2973 C2984 0.950 . S
H2974 C2986 0.950 . S
H2975 C2987 0.950 . S
C2976 H2968 0.950 . S
C2976 C2977 1.386 . S
C2976 C2978 1.391 . S
C2977 C2976 1.386 . S
C2977 C2981 1.393 . S
C2978 H2970 0.950 . S
C2978 C2976 1.391 . S
C2978 C2979 1.400 . S
C2979 C2978 1.400 . S
C2979 C2980 1.398 . S
C2979 C2985 1.491 . S
C2980 H2971 0.950 . S
C2980 C2979 1.398 . S
C2980 C2981 1.391 . S
C2981 H2969 0.950 . S
C2981 C2977 1.393 . S
C2981 C2980 1.391 . S
C2982 H2972 0.950 . S
C2982 C2983 1.386 . S
C2982 C2984 1.391 . S
C2983 C2982 1.386 . S
C2983 C2987 1.393 . S
C2984 H2973 0.950 . S
C2984 C2982 1.391 . S
C2984 C2985 1.400 . S
C2985 C2979 1.491 . S
C2985 C2984 1.400 . S
C2985 C2986 1.398 . S
C2986 H2974 0.950 . S
C2986 C2985 1.398 . S
C2986 C2987 1.391 . S
C2987 H2975 0.950 . S
C2987 C2983 1.393 . S
C2987 C2986 1.391 . S
C1197 C248 1.367 1_554 S
C1203 N5 1.327 . S
C1217 N38 1.326 . S
C1223 C281 1.369 1_554 S
C1237 C215 1.358 1_554 S
C1243 N71 1.317 . S
C1257 C380 1.360 . S
C1263 N104 1.298 . S
C1277 C314 1.363 . S
C1283 N137 1.305 . S
C1297 N170 1.304 . S
C1303 C347 1.354 . S
C1317 N203 1.294 . S
C1323 C50 1.354 1_556 S
C1337 N236 1.311 . S
C1343 C83 1.366 1_556 S
C1357 N269 1.294 . S
C1363 C17 1.355 1_556 S
C1377 C182 1.369 . S
C1383 N302 1.321 . S
C1397 C116 1.362 . S
C1403 N335 1.302 . S
C1417 N368 1.327 . S
C1423 C149 1.368 . S
C1437 C644 1.356 . S
C1443 N401 1.295 . S
C1457 C677 1.353 . S
C1463 N434 1.299 . S
C1477 C611 1.356 . S
C1483 N467 1.295 . S
C1497 C776 1.353 . S
C1503 N500 1.296 . S
C1517 C710 1.364 . S
C1523 N533 1.325 . S
C1537 C743 1.359 . S
C1543 N566 1.298 . S
C1557 N599 1.306 . S
C1563 C446 1.364 . S
C1577 N632 1.297 . S
C1583 C479 1.359 . S
C1597 C413 1.368 . S
C1603 N665 1.327 . S
C1617 N698 1.295 . S
C1623 C578 1.356 . S
C1637 N731 1.295 . S
C1643 C512 1.356 . S
C1657 N764 1.325 . S
C1663 C545 1.364 . S
C1677 C1040 1.355 . S
C1683 N797 1.294 . S
C1697 C1073 1.358 . S
C1703 N830 1.296 . S
C1717 N863 1.311 . S
C1723 C1007 1.366 . S
C1737 N896 1.325 . S
C1743 C1172 1.369 . S
C1757 N929 1.316 . S
C1763 C1106 1.368 . S
C1777 N962 1.307 . S
C1783 C1139 1.365 . S
C1797 C842 1.369 . S
C1803 N995 1.324 . S
C1817 C875 1.355 . S
C1823 N1028 1.308 . S
C1837 N1061 1.296 . S
C1843 C809 1.353 . S
C1857 C974 1.359 . S
C1863 N1094 1.317 . S
C1877 C908 1.368 . S
C1883 N1127 1.315 . S
C1897 N1160 1.326 . S
C1903 C941 1.369 . S
C1917 C8 1.699 . S
C1923 C107 1.698 . S
C1937 C41 1.710 . S
C1943 C140 1.712 . S
C1957 C74 1.713 . S
C1963 C173 1.714 . S
C1977 C305 1.714 . S
C1983 C206 1.715 . S
C1997 C338 1.697 . S
C2003 C239 1.698 . S
C2017 C371 1.716 . S
C2023 C272 1.715 . S
C2037 C404 1.704 . S
C2043 C503 1.706 . S
C2057 C437 1.712 . S
C2063 C536 1.714 . S
C2077 C569 1.697 . S
C2083 C470 1.698 . S
C2097 C602 1.715 . S
C2103 C701 1.715 . S
C2117 C734 1.704 . S
C2123 C635 1.702 . S
C2137 C767 1.698 . S
C2143 C668 1.699 . S
C2157 C899 1.716 . S
C2163 C800 1.716 . S
C2177 C932 1.708 . S
C2183 C833 1.710 . S
C2197 C965 1.700 . S
C2203 C866 1.702 . S
C2217 C1097 1.701 . S
C2223 C998 1.699 . S
C2237 C1130 1.714 . S
C2243 C1031 1.713 . S
C2257 C1064 1.714 . S
C2263 C1163 1.713 . S
C2277 C28 2.378 1_556 S
C2283 C556 2.387 . S
C2297 C589 2.385 . S
C2303 C61 2.384 1_556 S
C2317 C94 2.381 1_556 S
C2323 C523 2.387 . S
C2337 C886 2.382 . S
C2343 C127 2.379 . S
C2357 C160 2.387 . S
C2363 C820 2.378 . S
C2377 C853 2.382 . S
C2383 C193 2.387 . S
C2397 C1150 2.381 . S
C2403 C226 2.380 1_554 S
C2417 C259 2.382 1_554 S
C2423 C1183 2.378 . S
C2437 C1117 2.383 . S
C2443 C292 2.386 1_554 S
C2457 C325 2.378 . S
C2463 C688 2.382 . S
C2477 C358 2.385 . S
C2483 C622 2.378 . S
C2497 C655 2.380 . S
C2503 C391 2.379 . S
C2517 C952 2.384 . S
C2523 C424 2.385 . S
C2537 C985 2.385 . S
C2543 C457 2.384 . S
C2557 C490 2.385 . S
C2563 C919 2.378 . S
C2577 C721 2.378 . S
C2583 C1084 2.386 . S
C2597 C754 2.384 . S
C2603 C1018 2.378 . S
C2617 C1051 2.386 . S
C2623 C787 2.382 . S
C2637 N971 0.585 . S
C2643 N14 0.599 . S
C2657 N905 0.612 . S
C2663 N47 0.608 . S
C2677 N938 0.611 . S
C2683 N80 0.612 . S
C2697 N113 0.545 . S
C2703 N443 0.534 . S
C2717 N146 0.612 . S
C2723 N476 0.609 . S
C2737 N410 0.539 . S
C2743 N179 0.552 . S
C2757 N212 0.605 . S
C2763 N773 0.594 . S
C2777 N707 0.550 . S
C2783 N245 0.565 . S
C2797 N278 0.561 . S
C2803 N740 0.577 . S
C2817 N311 0.529 . S
C2823 N1037 0.530 . S
C2837 N1070 0.608 . S
C2843 N344 0.599 . S
C2857 N377 0.533 . S
C2863 N1004 0.529 . S
C2877 N839 0.581 . S
C2883 N509 0.595 . S
C2897 N542 0.546 . S
C2903 N872 0.535 . S
C2917 N575 0.534 . S
C2923 N806 0.529 . S
C2937 N608 0.600 . S
C2943 N1169 0.587 . S
C2957 N1103 0.587 . S
C2963 N641 0.600 . S
C2977 N1136 0.532 . S
C2983 N674 0.541 . S
