# Generated by pormake.
# Topology ato, (4)-cn, num edge types: 1
# Building blocks:
#     Node 0, Type 0, BuildingBlock: KUFVIS_clean_sbu_0, # of connection points: 4
#     Node 1, Type 0, BuildingBlock: KUFVIS_clean_sbu_0, # of connection points: 4
#     Node 2, Type 0, BuildingBlock: KUFVIS_clean_sbu_0, # of connection points: 4
#     Node 3, Type 0, BuildingBlock: KUFVIS_clean_sbu_0, # of connection points: 4
#     Node 4, Type 0, BuildingBlock: KUFVIS_clean_sbu_0, # of connection points: 4
#     Node 5, Type 0, BuildingBlock: KUFVIS_clean_sbu_0, # of connection points: 4
#     Node 6, Type 0, BuildingBlock: KUFVIS_clean_sbu_0, # of connection points: 4
#     Node 7, Type 0, BuildingBlock: KUFVIS_clean_sbu_0, # of connection points: 4
#     Node 8, Type 0, BuildingBlock: KUFVIS_clean_sbu_0, # of connection points: 4
#     Node 9, Type 0, BuildingBlock: KUFVIS_clean_sbu_0, # of connection points: 4
#     Node 10, Type 0, BuildingBlock: KUFVIS_clean_sbu_0, # of connection points: 4
#     Node 11, Type 0, BuildingBlock: KUFVIS_clean_sbu_0, # of connection points: 4
#     Node 12, Type 0, BuildingBlock: KUFVIS_clean_sbu_0, # of connection points: 4
#     Node 13, Type 0, BuildingBlock: KUFVIS_clean_sbu_0, # of connection points: 4
#     Node 14, Type 0, BuildingBlock: KUFVIS_clean_sbu_0, # of connection points: 4
#     Node 15, Type 0, BuildingBlock: KUFVIS_clean_sbu_0, # of connection points: 4
#     Node 16, Type 0, BuildingBlock: KUFVIS_clean_sbu_0, # of connection points: 4
#     Node 17, Type 0, BuildingBlock: KUFVIS_clean_sbu_0, # of connection points: 4
#     Node 18, Type 0, BuildingBlock: KUFVIS_clean_sbu_0, # of connection points: 4
#     Node 19, Type 0, BuildingBlock: KUFVIS_clean_sbu_0, # of connection points: 4
#     Node 20, Type 0, BuildingBlock: KUFVIS_clean_sbu_0, # of connection points: 4
#     Node 21, Type 0, BuildingBlock: KUFVIS_clean_sbu_0, # of connection points: 4
#     Node 22, Type 0, BuildingBlock: KUFVIS_clean_sbu_0, # of connection points: 4
#     Node 23, Type 0, BuildingBlock: KUFVIS_clean_sbu_0, # of connection points: 4
#     Node 24, Type 0, BuildingBlock: KUFVIS_clean_sbu_0, # of connection points: 4
#     Node 25, Type 0, BuildingBlock: KUFVIS_clean_sbu_0, # of connection points: 4
#     Node 26, Type 0, BuildingBlock: KUFVIS_clean_sbu_0, # of connection points: 4
#     Node 27, Type 0, BuildingBlock: KUFVIS_clean_sbu_0, # of connection points: 4
#     Node 28, Type 0, BuildingBlock: KUFVIS_clean_sbu_0, # of connection points: 4
#     Node 29, Type 0, BuildingBlock: KUFVIS_clean_sbu_0, # of connection points: 4
#     Node 30, Type 0, BuildingBlock: KUFVIS_clean_sbu_0, # of connection points: 4
#     Node 31, Type 0, BuildingBlock: KUFVIS_clean_sbu_0, # of connection points: 4
#     Node 32, Type 0, BuildingBlock: KUFVIS_clean_sbu_0, # of connection points: 4
#     Node 33, Type 0, BuildingBlock: KUFVIS_clean_sbu_0, # of connection points: 4
#     Node 34, Type 0, BuildingBlock: KUFVIS_clean_sbu_0, # of connection points: 4
#     Node 35, Type 0, BuildingBlock: KUFVIS_clean_sbu_0, # of connection points: 4
#     Edge 36, Type (0, 0), BuildingBlock: OJICUG_clean_linker_0, # of connection points: 2
#     Edge 37, Type (0, 0), BuildingBlock: OJICUG_clean_linker_0, # of connection points: 2
#     Edge 38, Type (0, 0), BuildingBlock: OJICUG_clean_linker_0, # of connection points: 2
#     Edge 39, Type (0, 0), BuildingBlock: OJICUG_clean_linker_0, # of connection points: 2
#     Edge 40, Type (0, 0), BuildingBlock: OJICUG_clean_linker_0, # of connection points: 2
#     Edge 41, Type (0, 0), BuildingBlock: OJICUG_clean_linker_0, # of connection points: 2
#     Edge 42, Type (0, 0), BuildingBlock: OJICUG_clean_linker_0, # of connection points: 2
#     Edge 43, Type (0, 0), BuildingBlock: OJICUG_clean_linker_0, # of connection points: 2
#     Edge 44, Type (0, 0), BuildingBlock: OJICUG_clean_linker_0, # of connection points: 2
#     Edge 45, Type (0, 0), BuildingBlock: OJICUG_clean_linker_0, # of connection points: 2
#     Edge 46, Type (0, 0), BuildingBlock: OJICUG_clean_linker_0, # of connection points: 2
#     Edge 47, Type (0, 0), BuildingBlock: OJICUG_clean_linker_0, # of connection points: 2
#     Edge 48, Type (0, 0), BuildingBlock: OJICUG_clean_linker_0, # of connection points: 2
#     Edge 49, Type (0, 0), BuildingBlock: OJICUG_clean_linker_0, # of connection points: 2
#     Edge 50, Type (0, 0), BuildingBlock: OJICUG_clean_linker_0, # of connection points: 2
#     Edge 51, Type (0, 0), BuildingBlock: OJICUG_clean_linker_0, # of connection points: 2
#     Edge 52, Type (0, 0), BuildingBlock: OJICUG_clean_linker_0, # of connection points: 2
#     Edge 53, Type (0, 0), BuildingBlock: OJICUG_clean_linker_0, # of connection points: 2
#     Edge 54, Type (0, 0), BuildingBlock: OJICUG_clean_linker_0, # of connection points: 2
#     Edge 55, Type (0, 0), BuildingBlock: OJICUG_clean_linker_0, # of connection points: 2
#     Edge 56, Type (0, 0), BuildingBlock: OJICUG_clean_linker_0, # of connection points: 2
#     Edge 57, Type (0, 0), BuildingBlock: OJICUG_clean_linker_0, # of connection points: 2
#     Edge 58, Type (0, 0), BuildingBlock: OJICUG_clean_linker_0, # of connection points: 2
#     Edge 59, Type (0, 0), BuildingBlock: OJICUG_clean_linker_0, # of connection points: 2
#     Edge 60, Type (0, 0), BuildingBlock: OJICUG_clean_linker_0, # of connection points: 2
#     Edge 61, Type (0, 0), BuildingBlock: OJICUG_clean_linker_0, # of connection points: 2
#     Edge 62, Type (0, 0), BuildingBlock: OJICUG_clean_linker_0, # of connection points: 2
#     Edge 63, Type (0, 0), BuildingBlock: OJICUG_clean_linker_0, # of connection points: 2
#     Edge 64, Type (0, 0), BuildingBlock: OJICUG_clean_linker_0, # of connection points: 2
#     Edge 65, Type (0, 0), BuildingBlock: OJICUG_clean_linker_0, # of connection points: 2
#     Edge 66, Type (0, 0), BuildingBlock: OJICUG_clean_linker_0, # of connection points: 2
#     Edge 67, Type (0, 0), BuildingBlock: OJICUG_clean_linker_0, # of connection points: 2
#     Edge 68, Type (0, 0), BuildingBlock: OJICUG_clean_linker_0, # of connection points: 2
#     Edge 69, Type (0, 0), BuildingBlock: OJICUG_clean_linker_0, # of connection points: 2
#     Edge 70, Type (0, 0), BuildingBlock: OJICUG_clean_linker_0, # of connection points: 2
#     Edge 71, Type (0, 0), BuildingBlock: OJICUG_clean_linker_0, # of connection points: 2
#     Edge 72, Type (0, 0), BuildingBlock: OJICUG_clean_linker_0, # of connection points: 2
#     Edge 73, Type (0, 0), BuildingBlock: OJICUG_clean_linker_0, # of connection points: 2
#     Edge 74, Type (0, 0), BuildingBlock: OJICUG_clean_linker_0, # of connection points: 2
#     Edge 75, Type (0, 0), BuildingBlock: OJICUG_clean_linker_0, # of connection points: 2
#     Edge 76, Type (0, 0), BuildingBlock: OJICUG_clean_linker_0, # of connection points: 2
#     Edge 77, Type (0, 0), BuildingBlock: OJICUG_clean_linker_0, # of connection points: 2
#     Edge 78, Type (0, 0), BuildingBlock: OJICUG_clean_linker_0, # of connection points: 2
#     Edge 79, Type (0, 0), BuildingBlock: OJICUG_clean_linker_0, # of connection points: 2
#     Edge 80, Type (0, 0), BuildingBlock: OJICUG_clean_linker_0, # of connection points: 2
#     Edge 81, Type (0, 0), BuildingBlock: OJICUG_clean_linker_0, # of connection points: 2
#     Edge 82, Type (0, 0), BuildingBlock: OJICUG_clean_linker_0, # of connection points: 2
#     Edge 83, Type (0, 0), BuildingBlock: OJICUG_clean_linker_0, # of connection points: 2
#     Edge 84, Type (0, 0), BuildingBlock: OJICUG_clean_linker_0, # of connection points: 2
#     Edge 85, Type (0, 0), BuildingBlock: OJICUG_clean_linker_0, # of connection points: 2
#     Edge 86, Type (0, 0), BuildingBlock: OJICUG_clean_linker_0, # of connection points: 2
#     Edge 87, Type (0, 0), BuildingBlock: OJICUG_clean_linker_0, # of connection points: 2
#     Edge 88, Type (0, 0), BuildingBlock: OJICUG_clean_linker_0, # of connection points: 2
#     Edge 89, Type (0, 0), BuildingBlock: OJICUG_clean_linker_0, # of connection points: 2
#     Edge 90, Type (0, 0), BuildingBlock: OJICUG_clean_linker_0, # of connection points: 2
#     Edge 91, Type (0, 0), BuildingBlock: OJICUG_clean_linker_0, # of connection points: 2
#     Edge 92, Type (0, 0), BuildingBlock: OJICUG_clean_linker_0, # of connection points: 2
#     Edge 93, Type (0, 0), BuildingBlock: OJICUG_clean_linker_0, # of connection points: 2
#     Edge 94, Type (0, 0), BuildingBlock: OJICUG_clean_linker_0, # of connection points: 2
#     Edge 95, Type (0, 0), BuildingBlock: OJICUG_clean_linker_0, # of connection points: 2
#     Edge 96, Type (0, 0), BuildingBlock: OJICUG_clean_linker_0, # of connection points: 2
#     Edge 97, Type (0, 0), BuildingBlock: OJICUG_clean_linker_0, # of connection points: 2
#     Edge 98, Type (0, 0), BuildingBlock: OJICUG_clean_linker_0, # of connection points: 2
#     Edge 99, Type (0, 0), BuildingBlock: OJICUG_clean_linker_0, # of connection points: 2
#     Edge 100, Type (0, 0), BuildingBlock: OJICUG_clean_linker_0, # of connection points: 2
#     Edge 101, Type (0, 0), BuildingBlock: OJICUG_clean_linker_0, # of connection points: 2
#     Edge 102, Type (0, 0), BuildingBlock: OJICUG_clean_linker_0, # of connection points: 2
#     Edge 103, Type (0, 0), BuildingBlock: OJICUG_clean_linker_0, # of connection points: 2
#     Edge 104, Type (0, 0), BuildingBlock: OJICUG_clean_linker_0, # of connection points: 2
#     Edge 105, Type (0, 0), BuildingBlock: OJICUG_clean_linker_0, # of connection points: 2
#     Edge 106, Type (0, 0), BuildingBlock: OJICUG_clean_linker_0, # of connection points: 2
#     Edge 107, Type (0, 0), BuildingBlock: OJICUG_clean_linker_0, # of connection points: 2
# Relax obj value: 0.081
# Max RMSD: 0.070
# Mean RMSD: 0.070
data_MOF--net-ato--node1-KUFVIS_clean_sbu_0--edge1-OJICUG_clean_linker_0
_symmetry_space_group_name_H-M    P1
_symmetry_Int_Tables_number       1
_symmetry_cell_setting            triclinic
loop_
_symmetry_equiv_pos_as_xyz
'x, y, z'
_cell_length_a     75.251799
_cell_length_b     75.291076
_cell_length_c     17.041526
_cell_angle_alpha  90.155958
_cell_angle_beta   90.023665
_cell_angle_gamma 119.92667
loop_
_atom_site_label
_atom_site_type_symbol
_atom_site_fract_x
_atom_site_fract_y
_atom_site_fract_z
_atom_type_partial_charge
Mn0 Mn 0.2642 0.06593 0.26056 0.0
Mn1 Mn 0.28642 0.03757 0.27023 0.0
C2 C 0.29837 0.0799 0.2103 0.0
C3 C 0.25672 0.09066 0.31095 0.0
C4 C 0.25161 0.02826 0.15647 0.0
O5 O 0.24736 0.04371 0.34715 0.0
O6 O 0.2667 0.0286 0.35853 0.0
C7 C 0.30831 0.0456 0.42224 0.0
N8 N 0.30905 0.04596 0.34255 0.0
C9 C 0.34262 0.0435 0.35386 0.0
C10 C 0.34097 0.04552 0.4344 0.0
C11 C 0.32432 0.04638 0.46751 0.0
C12 C 0.32476 0.04639 0.30424 0.0
H13 H 0.29534 0.04493 0.45223 0.0
C14 C 0.25165 0.03083 0.38013 0.0
O15 O 0.24498 0.07701 0.25999 0.0
O16 O 0.27207 0.08908 0.33709 0.0
N17 N 0.30497 0.04542 0.18446 0.0
C18 C 0.30122 0.04629 0.10655 0.0
C19 C 0.31545 0.04949 0.04665 0.0
C20 C 0.33478 0.05171 0.05952 0.0
C21 C 0.34074 0.05038 0.14196 0.0
C22 C 0.32305 0.04928 0.21032 0.0
H23 H 0.2873 0.0458 0.08871 0.0
O24 O 0.28614 0.08622 0.18606 0.0
O25 O 0.29008 0.06539 0.26375 0.0
O26 O 0.25076 0.04455 0.16844 0.0
O27 O 0.26341 0.02447 0.19698 0.0
C28 C 0.36876 0.04536 0.21603 0.0
C29 C 0.36365 0.04297 0.3155 0.0
H30 H 0.35331 0.04791 0.47196 0.0
H31 H 0.32366 0.04744 0.5307 0.0
H32 H 0.31129 0.05058 0.98681 0.0
H33 H 0.34039 0.05083 0.11009 0.0
H34 H 0.38222 0.04475 0.19553 0.0
H35 H 0.37492 0.04284 0.35441 0.0
Mn36 Mn 0.94426 0.19591 0.28725 0.0
Mn37 Mn 0.97694 0.24562 0.28913 0.0
C38 C 0.93286 0.21763 0.23347 0.0
C39 C 0.91737 0.16471 0.33489 0.0
C40 C 0.98335 0.21631 0.18708 0.0
O41 O 0.96513 0.20024 0.37814 0.0
O42 O 0.98376 0.23493 0.38388 0.0
C43 C 0.97503 0.26771 0.43137 0.0
N44 N 0.97239 0.26434 0.3527 0.0
C45 C 0.98089 0.30275 0.33949 0.0
C46 C 0.9813 0.30327 0.42112 0.0
C47 C 0.97787 0.28608 0.46539 0.0
C48 C 0.97325 0.27879 0.30514 0.0
H49 H 0.97459 0.25603 0.46939 0.0
C50 C 0.97895 0.21715 0.41028 0.0
O51 O 0.93129 0.16552 0.28805 0.0
O52 O 0.92001 0.18216 0.36011 0.0
N53 N 0.96956 0.25486 0.19748 0.0
C54 C 0.9678 0.24801 0.12177 0.0
C55 C 0.96124 0.2555 0.05898 0.0
C56 C 0.95745 0.27179 0.06522 0.0
C57 C 0.96217 0.28297 0.14165 0.0
C58 C 0.96545 0.26939 0.21747 0.0
H59 H 0.97018 0.23546 0.10805 0.0
O60 O 0.92567 0.19891 0.20934 0.0
O61 O 0.94741 0.22351 0.28759 0.0
O62 O 0.96552 0.20099 0.19753 0.0
O63 O 0.98882 0.23276 0.22377 0.0
C64 C 0.97434 0.3206 0.19114 0.0
C65 C 0.98188 0.32298 0.28858 0.0
H66 H 0.98201 0.31623 0.4512 0.0
H67 H 0.97764 0.28711 0.52865 0.0
H68 H 0.95864 0.24798 1.00253 0.0
H69 H 0.96046 0.28071 0.111 0.0
H70 H 0.97583 0.33417 0.16166 0.0
H71 H 0.98647 0.33726 0.31895 0.0
Mn72 Mn 0.81482 0.75157 0.23082 0.0
Mn73 Mn 0.76555 0.73712 0.21122 0.0
C74 C 0.79171 0.71756 0.18489 0.0
C75 C 0.84439 0.75491 0.29383 0.0
C76 C 0.79733 0.76891 0.10471 0.0
O77 O 0.81087 0.77021 0.31214 0.0
O78 O 0.77735 0.75957 0.29164 0.0
C79 C 0.74665 0.72225 0.36675 0.0
N80 N 0.74758 0.71857 0.28923 0.0
C81 C 0.70972 0.68888 0.29996 0.0
C82 C 0.71053 0.69468 0.37818 0.0
C83 C 0.72905 0.70992 0.41136 0.0
C84 C 0.73215 0.70267 0.25313 0.0
H85 H 0.75965 0.73473 0.39581 0.0
C86 C 0.79436 0.77069 0.32814 0.0
O87 O 0.8453 0.76738 0.23986 0.0
O88 O 0.82612 0.74085 0.31465 0.0
N89 N 0.75418 0.71555 0.13446 0.0
C90 C 0.75929 0.71588 0.05732 0.0
C91 C 0.74952 0.6985 1.00729 0.0
C92 C 0.73278 0.67941 0.02853 0.0
C93 C 0.72394 0.67753 0.10828 0.0
C94 C 0.73922 0.69891 0.16726 0.0
H95 H 0.77187 0.72966 0.03309 0.0
O96 O 0.81072 0.72755 0.16224 0.0
O97 O 0.7864 0.72857 0.22892 0.0
O98 O 0.81256 0.7682 0.13452 0.0
O99 O 0.77938 0.75721 0.12861 0.0
C100 C 0.68851 0.65522 0.18084 0.0
C101 C 0.68894 0.66702 0.26867 0.0
H102 H 0.69742 0.68604 0.4159 0.0
H103 H 0.73001 0.71241 0.47387 0.0
H104 H 0.75545 0.69989 0.94844 0.0
H105 H 0.72523 0.67622 0.07821 0.0
H106 H 0.67453 0.64151 0.16223 0.0
H107 H 0.67561 0.6625 0.30195 0.0
Mn108 Mn 0.06788 0.26103 0.78357 0.0
Mn109 Mn 0.03396 0.27665 0.80968 0.0
C110 C 0.07967 0.29547 0.82383 0.0
C111 C 0.0933 0.25619 0.72117 0.0
C112 C 0.03546 0.24609 0.91784 0.0
O113 O 0.04429 0.24217 0.70657 0.0
O114 O 0.02185 0.25311 0.73369 0.0
C115 C 0.02406 0.28839 0.65803 0.0
N116 N 0.03238 0.29406 0.73101 0.0
C117 C 0.02283 0.323 0.72537 0.0
C118 C 0.0143 0.31521 0.65208 0.0
C119 C 0.01588 0.29903 0.61822 0.0
C120 C 0.0336 0.31039 0.76701 0.0
H121 H 0.02327 0.27523 0.62932 0.0
C122 C 0.02717 0.24182 0.69477 0.0
O123 O 0.0817 0.2444 0.77639 0.0
O124 O 0.08941 0.27031 0.69768 0.0
N125 N 0.04598 0.29932 0.88182 0.0
C126 C 0.05264 0.30003 0.95704 0.0
C127 C 0.06141 0.31806 1.00388 0.0
C128 C 0.06287 0.33674 0.98203 0.0
C129 C 0.05376 0.33742 0.90542 0.0
C130 C 0.04681 0.31551 0.84819 0.0
H131 H 0.0522 0.28663 0.98177 0.0
O132 O 0.08867 0.2855 0.84735 0.0
O133 O 0.06276 0.28431 0.78338 0.0
O134 O 0.05019 0.24557 0.88307 0.0
O135 O 0.02933 0.25798 0.89563 0.0
C136 C 0.03751 0.35788 0.83989 0.0
C137 C 0.02395 0.34489 0.75717 0.0
H138 H 0.00749 0.32244 0.61845 0.0
H139 H 0.0103 0.29421 0.55929 0.0
H140 H 0.06752 0.31748 0.06068 0.0
H141 H 0.05708 0.33916 0.93429 0.0
H142 H 0.03706 0.3714 0.85906 0.0
H143 H 0.01378 0.34885 0.72915 0.0
Mn144 Mn 0.75727 0.81867 0.72675 0.0
Mn145 Mn 0.74435 0.77052 0.74007 0.0
C146 C 0.72375 0.79593 0.77655 0.0
C147 C 0.76017 0.84823 0.6673 0.0
C148 C 0.77813 0.80244 0.83888 0.0
O149 O 0.77528 0.81445 0.64126 0.0
O150 O 0.76174 0.78004 0.64519 0.0
C151 C 0.72246 0.74446 0.60362 0.0
N152 N 0.72251 0.74928 0.68041 0.0
C153 C 0.6959 0.71042 0.70499 0.0
C154 C 0.69802 0.70764 0.6253 0.0
C155 C 0.70957 0.72444 0.57577 0.0
C156 C 0.71025 0.7353 0.73182 0.0
H157 H 0.73245 0.75609 0.56256 0.0
C158 C 0.77354 0.79754 0.61426 0.0
O159 O 0.77314 0.84907 0.7191 0.0
O160 O 0.74611 0.83003 0.6454 0.0
N161 N 0.72765 0.76248 0.83188 0.0
C162 C 0.73127 0.77146 0.90448 0.0
C163 C 0.71658 0.76441 0.96534 0.0
C164 C 0.69714 0.74689 0.96053 0.0
C165 C 0.69225 0.73404 0.88837 0.0
C166 C 0.70991 0.74648 0.81332 0.0
H167 H 0.74532 0.78532 0.91611 0.0
O168 O 0.73411 0.815 0.7983 0.0
O169 O 0.73403 0.79037 0.72857 0.0
O170 O 0.77375 0.81643 0.82438 0.0
O171 O 0.76869 0.78566 0.80387 0.0
C172 C 0.66945 0.6951 0.84929 0.0
C173 C 0.67658 0.69105 0.75775 0.0
H174 H 0.68963 0.69276 0.59886 0.0
H175 H 0.70861 0.72186 0.51333 0.0
H176 H 0.72036 0.77337 0.01878 0.0
H177 H 0.6922 0.73687 0.9176 0.0
H178 H 0.65725 0.68187 0.87983 0.0
H179 H 0.66702 0.67669 0.73029 0.0
Mn180 Mn 0.20446 0.94076 0.76268 0.0
Mn181 Mn 0.25536 0.96987 0.75359 0.0
C182 C 0.22538 0.92781 0.81517 0.0
C183 C 0.17218 0.91509 0.71509 0.0
C184 C 0.2295 0.97848 0.86856 0.0
O185 O 0.20903 0.96219 0.67415 0.0
O186 O 0.24361 0.97933 0.66993 0.0
C187 C 0.26656 0.96142 0.5963 0.0
N188 N 0.26848 0.96142 0.67563 0.0
C189 C 0.30257 0.96038 0.65213 0.0
C190 C 0.2976 0.95878 0.57249 0.0
C191 C 0.28024 0.95938 0.54579 0.0
C192 C 0.28378 0.95986 0.70876 0.0
H193 H 0.25421 0.96281 0.57053 0.0
C194 C 0.22621 0.9762 0.64519 0.0
O195 O 0.17406 0.92912 0.76405 0.0
O196 O 0.18916 0.91677 0.68904 0.0
N197 N 0.26761 0.96222 0.83477 0.0
C198 C 0.26482 0.96217 0.91391 0.0
C199 C 0.27721 0.95955 0.96986 0.0
C200 C 0.29378 0.95675 0.95151 0.0
C201 C 0.29878 0.95649 0.86704 0.0
C202 C 0.28134 0.95824 0.80429 0.0
H203 H 0.25173 0.96272 0.93594 0.0
O204 O 0.20683 0.92131 0.83953 0.0
O205 O 0.23128 0.94199 0.76067 0.0
O206 O 0.2122 0.9629 0.85158 0.0
O207 O 0.24568 0.982 0.83263 0.0
C208 C 0.32849 0.95745 0.78116 0.0
C209 C 0.32365 0.95892 0.68309 0.0
H210 H 0.30621 0.95565 0.52994 0.0
H211 H 0.27733 0.95839 0.48326 0.0
H212 H 0.27348 0.95937 0.03126 0.0
H213 H 0.29878 0.95649 0.89878 0.0
H214 H 0.34229 0.95684 0.79645 0.0
H215 H 0.33355 0.95759 0.64056 0.0
Mn216 Mn 0.74933 0.94429 0.75491 0.0
Mn217 Mn 0.736 0.9792 0.79184 0.0
C218 C 0.71544 0.93262 0.7974 0.0
C219 C 0.75495 0.92067 0.68348 0.0
C220 C 0.76775 0.97596 0.88653 0.0
O221 O 0.76869 0.96917 0.68491 0.0
O222 O 0.75551 0.99028 0.7025 0.0
C223 C 0.7195 0.99459 0.66956 0.0
N224 N 0.71605 0.98347 0.73641 0.0
C225 C 0.69105 0.99692 0.77797 0.0
C226 C 0.69615 0.00754 0.70756 0.0
C227 C 0.70935 0.00571 0.65402 0.0
C228 C 0.70302 0.98316 0.79059 0.0
H229 H 0.73071 0.99554 0.62765 0.0
C230 C 0.76754 0.98527 0.66751 0.0
O231 O 0.76615 0.93101 0.74224 0.0
O232 O 0.74068 0.92465 0.66219 0.0
N233 N 0.71708 0.96691 0.87683 0.0
C234 C 0.7189 0.95778 0.94324 0.0
C235 C 0.70302 0.94794 0.99909 0.0
C236 C 0.68432 0.94778 0.99685 0.0
C237 C 0.68159 0.95995 0.93423 0.0
C238 C 0.70017 0.96734 0.86066 0.0
H239 H 0.73226 0.95639 0.95165 0.0
O240 O 0.72507 0.92274 0.81369 0.0
O241 O 0.72637 0.95004 0.75928 0.0
O242 O 0.7638 0.95858 0.86066 0.0
O243 O 0.75859 0.98458 0.85972 0.0
C244 C 0.66225 0.9807 0.91526 0.0
C245 C 0.67204 0.99642 0.83436 0.0
H246 H 0.68911 0.01653 0.69191 0.0
H247 H 0.71216 0.01357 0.59879 0.0
H248 H 0.70527 0.93966 0.04621 0.0
H249 H 0.6808 0.95561 0.96035 0.0
H250 H 0.65045 0.98157 0.94951 0.0
H251 H 0.66731 0.00729 0.82173 0.0
Mn252 Mn 0.06616 0.80801 0.75291 0.0
Mn253 Mn 0.03183 0.75773 0.74242 0.0
C254 C 0.07486 0.78426 0.80648 0.0
C255 C 0.09418 0.83948 0.71068 0.0
C256 C 0.02683 0.78654 0.85336 0.0
O257 O 0.04698 0.80607 0.66064 0.0
O258 O 0.02536 0.77181 0.6581 0.0
C259 C 0.03975 0.74567 0.5853 0.0
N260 N 0.03789 0.74273 0.66417 0.0
C261 C 0.0359 0.70722 0.63875 0.0
C262 C 0.03839 0.71261 0.55951 0.0
C263 C 0.04095 0.73154 0.53449 0.0
C264 C 0.03737 0.72633 0.69647 0.0
H265 H 0.04076 0.75931 0.5603 0.0
C266 C 0.03164 0.78986 0.63144 0.0
O267 O 0.08013 0.83853 0.75709 0.0
O268 O 0.09142 0.82205 0.68441 0.0
N269 N 0.03717 0.74345 0.82338 0.0
C270 C 0.0365 0.7454 0.90294 0.0
C271 C 0.04044 0.73353 0.95714 0.0
C272 C 0.04456 0.71785 0.93681 0.0
C273 C 0.04382 0.71252 0.8521 0.0
C274 C 0.04055 0.72936 0.79136 0.0
H275 H 0.03357 0.75695 0.92707 0.0
O276 O 0.08296 0.80292 0.83256 0.0
O277 O 0.06122 0.77971 0.75028 0.0
O278 O 0.04379 0.80244 0.83663 0.0
O279 O 0.0213 0.76941 0.82082 0.0
C280 C 0.0415 0.68233 0.76448 0.0
C281 C 0.03764 0.68626 0.6676 0.0
H282 H 0.03998 0.70284 0.51677 0.0
H283 H 0.04387 0.73544 0.47298 0.0
H284 H 0.04049 0.73687 0.01895 0.0
H285 H 0.04427 0.71265 0.88383 0.0
H286 H 0.0424 0.66864 0.77868 0.0
H287 H 0.03779 0.676 0.62358 0.0
Mn288 Mn 0.19865 0.25931 0.77848 0.0
Mn289 Mn 0.24774 0.27297 0.80558 0.0
C290 C 0.22231 0.29351 0.81569 0.0
C291 C 0.16856 0.25497 0.71637 0.0
C292 C 0.21488 0.24411 0.91454 0.0
O293 O 0.2025 0.23932 0.7046 0.0
O294 O 0.23597 0.24979 0.72869 0.0
C295 C 0.27119 0.28446 0.65771 0.0
N296 N 0.26814 0.28997 0.73028 0.0
C297 C 0.30766 0.31613 0.73474 0.0
C298 C 0.3086 0.30877 0.66075 0.0
C299 C 0.29064 0.2942 0.62211 0.0
C300 C 0.28358 0.30503 0.77036 0.0
H301 H 0.25858 0.27221 0.62604 0.0
C302 C 0.21905 0.23861 0.69157 0.0
O303 O 0.16823 0.24346 0.77288 0.0
O304 O 0.18663 0.26846 0.69093 0.0
N305 N 0.25854 0.29535 0.87889 0.0
C306 C 0.25174 0.29636 0.95226 0.0
C307 C 0.2613 0.31419 1.00007 0.0
C308 C 0.27965 0.33216 0.98163 0.0
C309 C 0.29034 0.33214 0.90822 0.0
C310 C 0.27507 0.3109 0.84847 0.0
H311 H 0.23783 0.28353 0.97417 0.0
O312 O 0.20332 0.28447 0.8388 0.0
O313 O 0.22749 0.28171 0.77665 0.0
O314 O 0.20004 0.24461 0.88119 0.0
O315 O 0.2328 0.25449 0.88962 0.0
C316 C 0.32801 0.35012 0.85317 0.0
C317 C 0.3289 0.33698 0.77128 0.0
H318 H 0.32305 0.31537 0.62997 0.0
H319 H 0.2917 0.29003 0.56251 0.0
H320 H 0.25392 0.31404 0.05473 0.0
H321 H 0.28848 0.33402 0.9364 0.0
H322 H 0.34232 0.36277 0.87553 0.0
H323 H 0.34317 0.3408 0.74459 0.0
Mn324 Mn 0.94493 0.74929 0.25273 0.0
Mn325 Mn 0.98009 0.73591 0.22203 0.0
C326 C 0.93369 0.71532 0.21115 0.0
C327 C 0.91974 0.75439 0.31522 0.0
C328 C 0.97754 0.76742 0.12384 0.0
O329 O 0.96918 0.76854 0.32736 0.0
O330 O 0.99083 0.75594 0.31036 0.0
C331 C 0.9943 0.71982 0.34995 0.0
N332 N 0.98396 0.71628 0.28095 0.0
C333 C 0.99831 0.69172 0.24447 0.0
C334 C 0.00812 0.6969 0.31684 0.0
C335 C 1.00529 0.70975 0.36909 0.0
C336 C 0.98425 0.7032 0.22826 0.0
H337 H 0.99458 0.73091 0.39107 0.0
C338 C 0.9855 0.76776 0.34529 0.0
O339 O 0.93134 0.766 0.25997 0.0
O340 O 0.92368 0.74037 0.34 0.0
N341 N 0.96825 0.71655 0.13777 0.0
C342 C 0.95956 0.71806 0.06946 0.0
C343 C 0.95005 0.7019 0.01425 0.0
C344 C 0.95002 0.6833 0.01895 0.0
C345 C 0.96204 0.68103 0.08362 0.0
C346 C 0.96873 0.6998 0.15619 0.0
H347 H 0.95828 0.73142 0.05884 0.0
O348 O 0.92409 0.72496 0.19096 0.0
O349 O 0.95078 0.72637 0.25141 0.0
O350 O 0.96032 0.76403 0.14927 0.0
O351 O 0.98578 0.75799 0.1514 0.0
C352 C 0.98335 0.66244 0.1077 0.0
C353 C 0.99858 0.67276 0.19009 0.0
H354 H 0.01705 0.69002 0.33525 0.0
H355 H 0.01211 0.71228 0.42636 0.0
H356 H 0.94196 0.70384 0.9655 0.0
H357 H 0.9578 0.68007 0.05692 0.0
H358 H 0.98482 0.6508 0.07455 0.0
H359 H 0.00951 0.66829 0.20569 0.0
Mn360 Mn 0.25905 0.1981 0.28134 0.0
Mn361 Mn 0.27679 0.24842 0.29902 0.0
C362 C 0.29181 0.22123 0.22848 0.0
C363 C 0.25451 0.16616 0.32169 0.0
C364 C 0.24239 0.22139 0.18613 0.0
O365 O 0.24193 0.20022 0.37402 0.0
O366 O 0.25678 0.23464 0.38493 0.0
C367 C 0.29775 0.26031 0.45492 0.0
N368 N 0.29867 0.26251 0.37553 0.0
C369 C 0.33248 0.29791 0.39785 0.0
C370 C 0.32965 0.29347 0.47762 0.0
C371 C 0.31328 0.2748 0.50455 0.0
C372 C 0.31465 0.27842 0.34176 0.0
H373 H 0.28488 0.24721 0.48155 0.0
C374 C 0.24399 0.21648 0.40781 0.0
O375 O 0.24175 0.16769 0.2751 0.0
O376 O 0.26943 0.18326 0.34906 0.0
N377 N 0.29582 0.26222 0.21612 0.0
C378 C 0.29221 0.26087 0.13701 0.0
C379 C 0.30742 0.27266 0.08093 0.0
C380 C 0.32749 0.28793 0.09904 0.0
C381 C 0.33306 0.2928 0.18344 0.0
C382 C 0.31389 0.27548 0.2463 0.0
H383 H 0.27735 0.24988 0.1143 0.0
O384 O 0.28081 0.20272 0.20149 0.0
O385 O 0.28309 0.22584 0.28596 0.0
O386 O 0.24319 0.20511 0.19797 0.0
O387 O 0.25394 0.23783 0.22313 0.0
C388 C 0.36112 0.3234 0.26848 0.0
C389 C 0.3545 0.31925 0.36655 0.0
H390 H 0.34072 0.30406 0.51946 0.0
H391 H 0.31204 0.27182 0.56699 0.0
H392 H 0.30337 0.26967 0.01947 0.0
H393 H 0.33296 0.29285 0.15172 0.0
H394 H 0.3752 0.3374 0.25266 0.0
H395 H 0.36504 0.32979 0.40956 0.0
Mn396 Mn 0.8078 0.06403 0.25934 0.0
Mn397 Mn 0.75741 0.03008 0.26603 0.0
C398 C 0.7846 0.07321 0.20396 0.0
C399 C 0.839 0.0909 0.30856 0.0
C400 C 0.78651 0.02499 0.15712 0.0
O401 O 0.80532 0.04454 0.34992 0.0
O402 O 0.771 0.02345 0.35179 0.0
C403 C 0.74493 0.03805 0.42204 0.0
N404 N 0.7423 0.03635 0.34292 0.0
C405 C 0.70696 0.03488 0.36557 0.0
C406 C 0.71219 0.03751 0.44511 0.0
C407 C 0.73078 0.03949 0.47176 0.0
C408 C 0.72613 0.03608 0.30932 0.0
H409 H 0.75835 0.03879 0.44816 0.0
C410 C 0.789 0.02951 0.3789 0.0
O411 O 0.83821 0.07739 0.2594 0.0
O412 O 0.8215 0.0886 0.33152 0.0
N413 N 0.74353 0.03558 0.18378 0.0
C414 C 0.74566 0.03477 0.10441 0.0
C415 C 0.73404 0.03878 0.04915 0.0
C416 C 0.71844 0.04313 0.0681 0.0
C417 C 0.7129 0.04257 0.15242 0.0
C418 C 0.72946 0.03918 0.21458 0.0
H419 H 0.75716 0.03163 0.08129 0.0
O420 O 0.80346 0.0814 0.18028 0.0
O421 O 0.77962 0.05938 0.25943 0.0
O422 O 0.80237 0.04199 0.17422 0.0
O423 O 0.76931 0.01942 0.18895 0.0
C424 C 0.68259 0.04063 0.23771 0.0
C425 C 0.68619 0.03679 0.33508 0.0
H426 H 0.70249 0.03951 0.48689 0.0
H427 H 0.7345 0.04236 0.53348 0.0
H428 H 0.73753 0.03872 0.98761 0.0
H429 H 0.71312 0.04297 0.12068 0.0
H430 H 0.669 0.04163 0.22238 0.0
H431 H 0.67584 0.03694 0.3785 0.0
Mn432 Mn 0.9347 0.39938 0.58354 0.0
Mn433 Mn 0.95613 0.36969 0.58649 0.0
C434 C 0.968 0.41176 0.52565 0.0
C435 C 0.92884 0.42538 0.63532 0.0
C436 C 0.92067 0.36125 0.47672 0.0
O437 O 0.91848 0.37827 0.67332 0.0
O438 O 0.93507 0.36028 0.67119 0.0
C439 C 0.97642 0.37871 0.7428 0.0
N440 N 0.97795 0.37812 0.66346 0.0
C441 C 0.01345 0.37997 0.68598 0.0
C442 C 0.01045 0.38215 0.76533 0.0
C443 C 0.99249 0.38141 0.79271 0.0
C444 C 0.99479 0.37974 0.62979 0.0
H445 H 0.96273 0.37736 0.76895 0.0
C446 C 0.92127 0.36375 0.6992 0.0
O447 O 0.91622 0.41144 0.5871 0.0
O448 O 0.94442 0.42364 0.6573 0.0
N449 N 0.97588 0.37708 0.50467 0.0
C450 C 0.97292 0.37695 0.42568 0.0
C451 C 0.98778 0.37942 0.36927 0.0
C452 C 1.00724 0.38234 0.38697 0.0
C453 C 0.01279 0.38285 0.47125 0.0
C454 C 0.99364 0.38095 0.53448 0.0
H455 H 0.95929 0.37654 0.4043 0.0
O456 O 0.95591 0.41848 0.50398 0.0
O457 O 0.96007 0.39766 0.58049 0.0
O458 O 0.91903 0.37676 0.49676 0.0
O459 O 0.93402 0.35787 0.50795 0.0
C460 C 0.04218 0.38287 0.55647 0.0
C461 C 0.03604 0.3815 0.65476 0.0
H462 H 0.02251 0.38568 0.80653 0.0
H463 H 0.99088 0.38285 0.85517 0.0
H464 H 0.98405 0.37945 0.30797 0.0
H465 H 0.01271 0.38279 0.43949 0.0
H466 H 0.05667 0.38369 0.54077 0.0
H467 H 0.04728 0.38287 0.69747 0.0
Mn468 Mn 0.60964 0.5237 0.60992 0.0
Mn469 Mn 0.64363 0.57241 0.60054 0.0
C470 C 0.59829 0.54593 0.55926 0.0
C471 C 0.58286 0.49336 0.66377 0.0
C472 C 0.64731 0.54151 0.50097 0.0
O473 O 0.6316 0.52827 0.69767 0.0
O474 O 0.65164 0.56283 0.69528 0.0
C475 C 0.64621 0.59725 0.73831 0.0
N476 N 0.64152 0.59268 0.66136 0.0
C477 C 0.65386 0.63168 0.63828 0.0
C478 C 0.65848 0.63408 0.71836 0.0
C479 C 0.65322 0.61714 0.76714 0.0
C480 C 0.64302 0.6068 0.61084 0.0
H481 H 0.64475 0.58554 0.77864 0.0
C482 C 0.64639 0.54533 0.72558 0.0
O483 O 0.59587 0.4933 0.6144 0.0
O484 O 0.58641 0.51123 0.68787 0.0
N485 N 0.63492 0.58047 0.50897 0.0
C486 C 0.63061 0.57193 0.43547 0.0
C487 C 0.62322 0.57896 0.3737 0.0
C488 C 0.62113 0.59636 0.3781 0.0
C489 C 0.62852 0.60901 0.451 0.0
C490 C 0.63238 0.59605 0.52773 0.0
H491 H 0.63133 0.55835 0.42377 0.0
O492 O 0.59026 0.52701 0.53625 0.0
O493 O 0.61379 0.55165 0.60895 0.0
O494 O 0.62922 0.52696 0.51471 0.0
O495 O 0.65391 0.55825 0.53595 0.0
C496 C 0.64517 0.64801 0.49032 0.0
C497 C 0.6552 0.65158 0.58413 0.0
H498 H 0.66512 0.64876 0.74598 0.0
H499 H 0.65501 0.61956 0.8297 0.0
H500 H 0.61857 0.57019 0.31971 0.0
H501 H 0.62594 0.60627 0.42132 0.0
H502 H 0.64703 0.66146 0.45876 0.0
H503 H 0.66063 0.66624 0.61059 0.0
Mn504 Mn 0.47888 0.08435 0.55373 0.0
Mn505 Mn 0.42941 0.07022 0.53902 0.0
C506 C 0.45526 0.05083 0.50742 0.0
C507 C 0.50906 0.08739 0.60951 0.0
C508 C 0.46058 0.10134 0.43003 0.0
O509 O 0.47561 0.10252 0.63842 0.0
O510 O 0.44262 0.09362 0.61495 0.0
C511 C 0.41233 0.05833 0.6982 0.0
N512 N 0.4126 0.05273 0.62246 0.0
C513 C 0.37555 0.02231 0.64607 0.0
C514 C 0.37707 0.03013 0.72122 0.0
C515 C 0.39531 0.04726 0.74694 0.0
C516 C 0.39691 0.03583 0.5922 0.0
H517 H 0.42519 0.07183 0.72261 0.0
C518 C 0.4595 0.10383 0.65312 0.0
O519 O 0.50937 0.1001 0.55796 0.0
O520 O 0.49103 0.0733 0.63283 0.0
N521 N 0.4164 0.04773 0.46643 0.0
C522 C 0.41971 0.04739 0.38771 0.0
C523 C 0.40865 0.02967 0.34014 0.0
C524 C 0.39222 0.01091 0.36582 0.0
C525 C 0.38528 0.00969 0.44834 0.0
C526 C 0.40199 0.03145 0.50336 0.0
H527 H 0.43176 0.06088 0.35979 0.0
O528 O 0.47407 0.06067 0.48238 0.0
O529 O 0.45037 0.0617 0.55387 0.0
O530 O 0.47595 0.10129 0.46142 0.0
O531 O 0.44254 0.08916 0.45221 0.0
C532 C 0.35182 0.98783 0.5325 0.0
C533 C 0.3542 1.00008 0.62107 0.0
H534 H 0.36438 0.02243 0.76139 0.0
H535 H 0.3965 0.05268 0.80629 0.0
H536 H 0.41319 0.03058 0.2794 0.0
H537 H 0.38586 0.00817 0.41794 0.0
H538 H 0.33774 0.97395 0.51912 0.0
H539 H 0.34147 0.9953 0.65879 0.0
Mn540 Mn 0.73456 0.59125 0.10873 0.0
Mn541 Mn 0.70038 0.60654 0.12625 0.0
C542 C 0.74593 0.62556 0.15201 0.0
C543 C 0.76085 0.58715 0.05117 0.0
C544 C 0.6999 0.57482 0.23458 0.0
O545 O 0.71189 0.57266 0.02692 0.0
O546 O 0.68936 0.58382 0.04682 0.0
C547 C 0.69519 0.62076 0.97124 0.0
N548 N 0.70092 0.62498 0.04771 0.0
C549 C 0.69195 0.6542 0.03929 0.0
C550 C 0.68602 0.64797 0.96204 0.0
C551 C 0.68903 0.63264 0.92799 0.0
C552 C 0.70162 0.641 0.08391 0.0
H553 H 0.69531 0.60808 0.94204 0.0
C554 C 0.695 0.57245 0.01062 0.0
O555 O 0.74864 0.57486 0.10405 0.0
O556 O 0.75701 0.60125 0.02689 0.0
N557 N 0.71116 0.62836 0.20195 0.0
C558 C 0.71615 0.62809 0.27891 0.0
C559 C 0.72418 0.64559 0.32838 0.0
C560 C 0.72644 0.66463 0.30713 0.0
C561 C 0.71894 0.66631 0.22814 0.0
C562 C 0.71307 0.64507 0.16866 0.0
H563 H 0.71489 0.61429 0.30325 0.0
O564 O 0.75456 0.61536 0.17679 0.0
O565 O 0.72962 0.61459 0.10795 0.0
O566 O 0.71562 0.57516 0.20488 0.0
O567 O 0.69385 0.58663 0.20998 0.0
C568 C 0.7042 0.68772 0.15899 0.0
C569 C 0.69241 0.67569 0.07201 0.0
H570 H 0.68073 0.65618 0.92563 0.0
H571 H 0.68642 0.62961 0.866 0.0
H572 H 0.72904 0.64429 0.3868 0.0
H573 H 0.72168 0.66767 0.25803 0.0
H574 H 0.70338 0.7011 0.17856 0.0
H575 H 0.68269 0.6796 0.04112 0.0
Mn576 Mn 0.41883 0.14708 0.05264 0.0
Mn577 Mn 0.40767 0.09967 0.07589 0.0
C578 C 0.38615 0.12469 0.10628 0.0
C579 C 0.42142 0.17645 0.99148 0.0
C580 C 0.44201 0.13382 0.16303 0.0
O581 O 0.43652 0.14207 0.96871 0.0
O582 O 0.42282 0.1075 0.97484 0.0
C583 C 0.38469 0.06677 0.95879 0.0
N584 N 0.38554 0.07487 0.03105 0.0
C585 C 0.36059 0.03695 0.07847 0.0
C586 C 0.36062 0.03118 1.00146 0.0
C587 C 0.37179 0.04566 0.94335 0.0
C588 C 0.37502 0.06271 0.09086 0.0
H589 H 0.39392 0.0766 0.91159 0.0
C590 C 0.43456 0.12498 0.9426 0.0
O591 O 0.43467 0.17741 0.04199 0.0
O592 O 0.40729 0.15814 0.97072 0.0
N593 N 0.39299 0.09382 0.17347 0.0
C594 C 0.39708 0.10543 0.24013 0.0
C595 C 0.38336 0.10018 0.30394 0.0
C596 C 0.36419 0.08234 0.30829 0.0
C597 C 0.35862 0.06701 0.2442 0.0
C598 C 0.37542 0.0767 0.16443 0.0
H599 H 0.41048 0.12014 0.24379 0.0
O600 O 0.39637 0.14403 0.12443 0.0
O601 O 0.39593 0.1184 0.05877 0.0
O602 O 0.43575 0.14643 0.15085 0.0
O603 O 0.4337 0.11716 0.12718 0.0
C604 C 0.33594 0.02694 0.22669 0.0
C605 C 0.3422 0.01953 0.14016 0.0
H606 H 0.34991 0.01573 0.98456 0.0
H607 H 0.37005 0.04016 0.884 0.0
H608 H 0.38758 0.11106 0.35169 0.0
H609 H 0.35886 0.07083 0.27119 0.0
H610 H 0.32445 0.01487 0.26399 0.0
H611 H 0.33364 1.00357 0.12293 0.0
Mn612 Mn 0.86651 0.27363 0.08289 0.0
Mn613 Mn 0.91552 0.30547 0.08923 0.0
C614 C 0.88757 0.26032 0.12877 0.0
C615 C 0.83536 0.24901 0.02371 0.0
C616 C 0.88656 0.31023 0.19331 0.0
O617 O 0.87233 0.29744 1.00115 0.0
O618 O 0.9069 0.31308 0.99194 0.0
C619 C 0.93951 0.30486 0.95478 0.0
N620 N 0.93581 0.30241 0.03304 0.0
C621 C 0.97435 0.31212 0.0533 0.0
C622 C 0.97469 0.31139 0.97107 0.0
C623 C 0.9582 0.30845 0.92377 0.0
C624 C 0.95029 0.30481 0.08419 0.0
H625 H 0.92778 0.30354 0.91473 0.0
C626 C 0.88959 0.31035 0.96815 0.0
O627 O 0.83608 0.26135 0.07833 0.0
O628 O 0.85291 0.2519 0.9989 0.0
N629 N 0.92323 0.29725 0.18459 0.0
C630 C 0.91355 0.29104 0.25561 0.0
C631 C 0.92166 0.28577 0.32062 0.0
C632 C 0.94012 0.28554 0.32029 0.0
C633 C 0.95259 0.29209 0.24726 0.0
C634 C 0.93996 0.29636 0.16985 0.0
H635 H 0.89852 0.28895 0.26358 0.0
O636 O 0.86857 0.2525 0.15011 0.0
O637 O 0.89385 0.27609 0.08074 0.0
O638 O 0.87178 0.29198 0.18518 0.0
O639 O 0.90063 0.31688 0.14368 0.0
C640 C 0.99036 0.30373 0.20294 0.0
C641 C 0.99382 0.31198 0.10728 0.0
H642 H 0.98643 0.30994 0.94207 0.0
H643 H 0.95981 0.30843 0.86063 0.0
H644 H 0.91265 0.28086 0.37381 0.0
H645 H 0.94986 0.28973 0.27679 0.0
H646 H 1.00337 0.30408 0.23314 0.0
H647 H 0.00774 0.31424 0.08047 0.0
Mn648 Mn 0.41323 0.27407 0.09036 0.0
Mn649 Mn 0.40118 0.30962 0.13274 0.0
C650 C 0.37995 0.26293 0.13954 0.0
C651 C 0.41743 0.24971 0.01653 0.0
C652 C 0.43366 0.30613 0.22032 0.0
O653 O 0.4319 0.29874 0.01711 0.0
O654 O 0.41933 0.32019 0.03912 0.0
C655 C 0.38382 0.32568 0.01805 0.0
N656 N 0.38072 0.31423 0.08365 0.0
C657 C 0.35565 0.32722 0.1313 0.0
C658 C 0.36115 0.33876 0.06265 0.0
C659 C 0.37427 0.3375 1.00715 0.0
C660 C 0.3683 0.31395 0.1407 0.0
H661 H 0.3947 0.32678 0.9743 0.0
C662 C 0.43071 0.31489 1.00077 0.0
O663 O 0.4295 0.26024 0.07314 0.0
O664 O 0.40318 0.25399 0.99851 0.0
N665 N 0.3836 0.29783 0.22182 0.0
C666 C 0.3861 0.28847 0.28614 0.0
C667 C 0.37113 0.27903 0.34553 0.0
C668 C 0.35252 0.27901 0.34835 0.0
C669 C 0.34884 0.29087 0.28717 0.0
C670 C 0.36662 0.29846 0.21044 0.0
H671 H 0.39918 0.28649 0.28986 0.0
O672 O 0.38957 0.2529 0.15296 0.0
O673 O 0.39057 0.28022 0.10022 0.0
O674 O 0.42897 0.28849 0.19466 0.0
O675 O 0.42473 0.31506 0.19463 0.0
C676 C 0.32832 0.31052 0.27295 0.0
C677 C 0.33657 0.3259 0.1914 0.0
H678 H 0.35522 0.34871 0.04969 0.0
H679 H 0.37768 0.34655 0.95427 0.0
H680 H 0.37398 0.27078 0.39113 0.0
H681 H 0.34843 0.28661 0.31303 0.0
H682 H 0.31642 0.31081 0.30873 0.0
H683 H 0.32863 0.33398 0.17982 0.0
Mn684 Mn 0.73313 0.14403 0.08247 0.0
Mn685 Mn 0.69765 0.09571 0.1144 0.0
C686 C 0.74409 0.12134 0.12634 0.0
C687 C 0.75846 0.17396 0.01863 0.0
C688 C 0.70029 0.13032 0.20988 0.0
O689 O 0.70896 0.1389 1.00742 0.0
O690 O 0.68731 0.10468 0.02391 0.0
C691 C 0.68294 0.06429 0.99013 0.0
N692 N 0.6935 0.07158 0.05851 0.0
C693 C 0.67912 0.03292 0.09858 0.0
C694 C 0.66904 0.02783 0.02682 0.0
C695 C 0.67165 0.04311 0.97327 0.0
C696 C 0.69313 0.05855 0.11284 0.0
H697 H 0.68255 0.07479 0.94798 0.0
C698 C 0.69275 0.12179 0.98886 0.0
O699 O 0.74694 0.17431 0.07373 0.0
O700 O 0.75435 0.15584 0.99491 0.0
N701 N 0.70919 0.08856 0.20075 0.0
C702 C 0.71795 0.09923 0.26828 0.0
C703 C 0.72726 0.09283 0.32521 0.0
C704 C 0.72715 0.07417 0.32298 0.0
C705 C 0.71522 0.05951 0.25904 0.0
C706 C 0.70855 0.07111 0.18468 0.0
H707 H 0.71949 0.11404 0.27684 0.0
O708 O 0.75382 0.14067 0.14518 0.0
O709 O 0.72708 0.11519 0.08546 0.0
O710 O 0.71776 0.14383 0.18561 0.0
O711 O 0.69187 0.11265 0.18215 0.0
C712 C 0.69411 0.01954 0.23776 0.0
C713 C 0.67893 0.01405 0.15497 0.0
H714 H 0.65983 0.01194 0.01029 0.0
H715 H 0.66431 0.03836 0.91689 0.0
H716 H 0.73535 0.10317 0.37327 0.0
H717 H 0.71943 0.06296 0.28565 0.0
H718 H 0.69278 0.00668 0.27195 0.0
H719 H 0.66839 0.99846 0.13978 0.0
Mn720 Mn 0.86972 0.59329 0.08897 0.0
Mn721 Mn 0.92004 0.60953 0.08261 0.0
C722 C 0.89302 0.62595 0.14272 0.0
C723 C 0.83823 0.58915 0.04332 0.0
C724 C 0.89113 0.57587 0.19265 0.0
O725 O 0.87214 0.576 0.99801 0.0
O726 O 0.90641 0.58866 0.99847 0.0
C727 C 0.93191 0.6291 0.92538 0.0
N728 N 0.93497 0.63034 1.00423 0.0
C729 C 0.97025 0.66396 0.97913 0.0
C730 C 0.96443 0.66121 0.90014 0.0
C731 C 0.94569 0.64458 0.87482 0.0
C732 C 0.95125 0.64639 0.03665 0.0
H733 H 0.91834 0.61634 0.90036 0.0
C734 C 0.88847 0.57679 0.9706 0.0
O735 O 0.83931 0.57637 0.09092 0.0
O736 O 0.85562 0.60408 0.01835 0.0
N737 N 0.93396 0.62945 0.16332 0.0
C738 C 0.93174 0.62714 0.24286 0.0
C739 C 0.94334 0.64319 0.29685 0.0
C740 C 0.95898 0.66292 0.27636 0.0
C741 C 0.96454 0.66721 0.19181 0.0
C742 C 0.94802 0.64683 0.13121 0.0
H743 H 0.9202 0.61273 0.26702 0.0
O744 O 0.87429 0.61528 0.16774 0.0
O745 O 0.89788 0.61679 0.08773 0.0
O746 O 0.87521 0.57677 0.17413 0.0
O747 O 0.90839 0.58756 0.16156 0.0
C748 C 0.99471 0.69497 0.10463 0.0
C749 C 0.99102 0.68683 0.00796 0.0
H750 H 0.97349 0.67302 0.85803 0.0
H751 H 0.94161 0.64363 0.81344 0.0
H752 H 0.93983 0.64014 0.35858 0.0
H753 H 0.96432 0.66766 0.22352 0.0
H754 H 0.00826 0.70968 0.11891 0.0
H755 H 1.00124 0.69706 0.96381 0.0
Mn756 Mn 0.61224 0.08168 0.58192 0.0
Mn757 Mn 0.64662 0.06573 0.5884 0.0
C758 C 0.6032 0.04912 0.52836 0.0
C759 C 0.58459 0.08559 0.62555 0.0
C760 C 0.65115 0.09935 0.47888 0.0
O761 O 0.63161 0.09878 0.67376 0.0
O762 O 0.65364 0.08659 0.67236 0.0
C763 C 0.63937 0.04637 0.74581 0.0
N764 N 0.64111 0.04507 0.66697 0.0
C765 C 0.64305 0.01157 0.69232 0.0
C766 C 0.63988 0.0143 0.77118 0.0
C767 C 0.63777 0.03095 0.79645 0.0
C768 C 0.64152 0.02908 0.63466 0.0
H769 H 0.63843 0.05907 0.77072 0.0
C770 C 0.64726 0.09816 0.70088 0.0
O771 O 0.59864 0.0985 0.57901 0.0
O772 O 0.58705 0.07069 0.65105 0.0
N773 N 0.64069 0.04576 0.50791 0.0
C774 C 0.64052 0.04791 0.42836 0.0
C775 C 0.63596 0.03176 0.37469 0.0
C776 C 0.63189 0.01204 0.39552 0.0
C777 C 0.63339 0.00789 0.48008 0.0
C778 C 0.63755 0.02845 0.54027 0.0
H779 H 0.64325 0.06227 0.40401 0.0
O780 O 0.59518 0.05977 0.50256 0.0
O781 O 0.61712 0.05828 0.58363 0.0
O782 O 0.63437 0.09845 0.49777 0.0
O783 O 0.65672 0.08758 0.50929 0.0
C784 C 0.63596 0.98023 0.56748 0.0
C785 C 0.64078 0.9886 0.66386 0.0
H786 H 0.63671 1.00231 0.81298 0.0
H787 H 0.63447 0.03184 0.85764 0.0
H788 H 0.63531 0.03469 0.31295 0.0
H789 H 0.63261 0.00738 0.4484 0.0
H790 H 0.63471 0.96546 0.55344 0.0
H791 H 0.64089 0.97845 0.70818 0.0
Mn792 Mn 0.92799 0.52983 0.58867 0.0
Mn793 Mn 0.94089 0.57843 0.56034 0.0
C794 C 0.9616 0.55284 0.54558 0.0
C795 C 0.92404 0.49952 0.64799 0.0
C796 C 0.90914 0.54439 0.46208 0.0
O797 O 0.90907 0.53465 0.66601 0.0
O798 O 0.92118 0.56882 0.64945 0.0
C799 C 0.95709 0.60877 0.68855 0.0
N800 N 0.96061 0.60205 0.61924 0.0
C801 C 0.98473 0.64104 0.5833 0.0
C802 C 0.9796 0.64553 0.65603 0.0
C803 C 0.96692 0.62979 0.70801 0.0
C804 C 0.97343 0.61553 0.56648 0.0
H805 H 0.94614 0.59791 0.72956 0.0
C806 C 0.90972 0.55168 0.68455 0.0
O807 O 0.91182 0.4994 0.59484 0.0
O808 O 0.93779 0.51755 0.67339 0.0
N809 N 0.95994 0.58623 0.47523 0.0
C810 C 0.95823 0.5761 0.40641 0.0
C811 C 0.97413 0.58292 0.35028 0.0
C812 C 0.9926 0.60159 0.35457 0.0
C813 C 0.99499 0.61579 0.41989 0.0
C814 C 0.97664 0.60357 0.4933 0.0
H815 H 0.94496 0.56139 0.39612 0.0
O816 O 0.95202 0.53366 0.52456 0.0
O817 O 0.95068 0.55871 0.58746 0.0
O818 O 0.91256 0.53052 0.48678 0.0
O819 O 0.91864 0.56202 0.49008 0.0
C820 C 0.01334 0.65561 0.44484 0.0
C821 C 1.00334 0.66039 0.52847 0.0
H822 H 0.98625 0.66129 0.67471 0.0
H823 H 0.96425 0.63402 0.76528 0.0
H824 H 0.97209 0.57295 0.30114 0.0
H825 H 0.99587 0.61254 0.39291 0.0
H826 H 0.02478 0.66875 0.41164 0.0
H827 H 0.00812 0.67583 0.54523 0.0
Mn828 Mn 0.47261 0.39444 0.59046 0.0
Mn829 Mn 0.42191 0.36179 0.59219 0.0
C830 C 0.45062 0.40437 0.52846 0.0
C831 C 0.50377 0.42082 0.64197 0.0
C832 C 0.45107 0.35528 0.48851 0.0
O833 O 0.46878 0.3749 0.6832 0.0
O834 O 0.43442 0.35448 0.6804 0.0
C835 C 0.4094 0.37065 0.74634 0.0
N836 N 0.40748 0.36962 0.66677 0.0
C837 C 0.37373 0.37139 0.68602 0.0
C838 C 0.3785 0.37368 0.7657 0.0
C839 C 0.39573 0.37326 0.79474 0.0
C840 C 0.39233 0.37097 0.63143 0.0
H841 H 0.42182 0.36976 0.77415 0.0
C842 C 0.45204 0.36005 0.71042 0.0
O843 O 0.50291 0.40694 0.59468 0.0
O844 O 0.48633 0.41919 0.66183 0.0
N845 N 0.40878 0.36762 0.50769 0.0
C846 C 0.41063 0.36564 0.42881 0.0
C847 C 0.39931 0.36951 0.37158 0.0
C848 C 0.38396 0.37441 0.38791 0.0
C849 C 0.37876 0.37522 0.47168 0.0
C850 C 0.39532 0.37243 0.53621 0.0
H851 H 0.42168 0.36166 0.40745 0.0
O852 O 0.46967 0.41206 0.50799 0.0
O853 O 0.44483 0.39069 0.58496 0.0
O854 O 0.4671 0.37195 0.50749 0.0
O855 O 0.43361 0.35022 0.51734 0.0
C856 C 0.34931 0.37572 0.55477 0.0
C857 C 0.35323 0.37355 0.65324 0.0
H858 H 0.36947 0.37693 0.80565 0.0
H859 H 0.39862 0.37497 0.8573 0.0
H860 H 0.40276 0.36871 0.31052 0.0
H861 H 0.37886 0.37514 0.44003 0.0
H862 H 0.33592 0.37693 0.53812 0.0
H863 H 0.3431 0.37465 0.69538 0.0
Mn864 Mn 0.59915 0.73434 0.9126 0.0
Mn865 Mn 0.6203 0.70504 0.90919 0.0
C866 C 0.63382 0.74877 0.86374 0.0
C867 C 0.59227 0.75941 0.96541 0.0
C868 C 0.5853 0.69749 0.79995 0.0
O869 O 0.58246 0.71157 0.99869 0.0
O870 O 0.60015 0.69458 0.9962 0.0
C871 C 0.64104 0.70828 0.06018 0.0
N872 N 0.64231 0.71097 0.98117 0.0
C873 C 0.67494 0.70671 0.98454 0.0
C874 C 0.67284 0.70647 0.06603 0.0
C875 C 0.6564 0.70703 0.10248 0.0
C876 C 0.65783 0.71175 0.94029 0.0
H877 H 0.62815 0.70724 0.09198 0.0
C878 C 0.586 0.69742 0.0246 0.0
O879 O 0.58027 0.74583 0.91493 0.0
O880 O 0.60747 0.75745 0.99073 0.0
N881 N 0.63915 0.7147 0.82427 0.0
C882 C 0.63587 0.71776 0.74786 0.0
C883 C 0.65067 0.72309 0.68811 0.0
C884 C 0.67014 0.72547 0.69943 0.0
C885 C 0.67547 0.72159 0.77953 0.0
C886 C 0.6571 0.71807 0.84936 0.0
H887 H 0.62183 0.71732 0.73186 0.0
O888 O 0.62157 0.75511 0.83974 0.0
O889 O 0.62496 0.73338 0.91357 0.0
O890 O 0.58449 0.71353 0.81811 0.0
O891 O 0.59779 0.69365 0.83447 0.0
C892 C 0.70238 0.71341 0.84522 0.0
C893 C 0.69623 0.70735 0.94254 0.0
H894 H 0.6846 0.70705 0.10271 0.0
H895 H 0.65537 0.7062 0.16586 0.0
H896 H 0.6469 0.72589 0.6299 0.0
H897 H 0.67539 0.72304 0.74827 0.0
H898 H 0.71595 0.71336 0.8225 0.0
H899 H 0.7075 0.70633 0.97832 0.0
Mn900 Mn 0.27767 0.8578 0.94875 0.0
Mn901 Mn 0.31347 0.90455 0.9259 0.0
C902 C 0.2669 0.88055 0.90334 0.0
C903 C 0.25132 0.82825 0.00982 0.0
C904 C 0.31383 0.87168 0.83386 0.0
O905 O 0.30038 0.86209 0.03072 0.0
O906 O 0.32133 0.89655 0.02457 0.0
C907 C 0.33129 0.93931 0.03481 0.0
N908 N 0.31938 0.9305 0.97018 0.0
C909 C 0.33336 0.96805 0.91733 0.0
C910 C 0.3453 0.97468 0.98503 0.0
C911 C 0.34387 0.96072 0.04258 0.0
C912 C 0.31958 0.94214 0.91083 0.0
H913 H 0.33223 0.92983 0.08019 0.0
C914 C 0.31542 0.87913 0.05707 0.0
O915 O 0.2631 0.82741 0.95657 0.0
O916 O 0.25569 0.84647 0.03263 0.0
N917 N 0.30353 0.91055 0.83128 0.0
C918 C 0.29457 0.89875 0.76603 0.0
C919 C 0.28474 0.90386 0.70666 0.0
C920 C 0.28389 0.922 0.70446 0.0
C921 C 0.29572 0.93771 0.76523 0.0
C922 C 0.30357 0.92789 0.84265 0.0
H923 H 0.29295 0.8839 0.7611 0.0
O924 O 0.25792 0.86147 0.88137 0.0
O925 O 0.28332 0.88653 0.94843 0.0
O926 O 0.29496 0.8591 0.84721 0.0
O927 O 0.32246 0.88793 0.87183 0.0
C928 C 0.31634 0.97798 0.77529 0.0
C929 C 0.33229 0.98548 0.85588 0.0
H930 H 0.35583 0.99071 0.99464 0.0
H931 H 0.35336 0.96667 0.09451 0.0
H932 H 0.2767 0.89269 0.66087 0.0
H933 H 0.29146 0.93383 0.7395 0.0
H934 H 0.31658 0.99008 0.73921 0.0
H935 H 0.34186 1.00164 0.86682 0.0
Mn936 Mn 0.14952 0.42045 0.88745 0.0
Mn937 Mn 0.10047 0.40784 0.87273 0.0
C938 C 0.12529 0.38712 0.84215 0.0
C939 C 0.17954 0.42283 0.94142 0.0
C940 C 0.13204 0.4383 0.76431 0.0
O941 O 0.14695 0.4388 0.97261 0.0
O942 O 0.11442 0.43136 0.9479 0.0
C943 C 0.08141 0.39775 0.02923 0.0
N944 N 0.08282 0.39107 0.9562 0.0
C945 C 0.04569 0.36082 0.97843 0.0
C946 C 0.04619 0.36951 0.05089 0.0
C947 C 0.0637 0.38739 0.07551 0.0
C948 C 0.06727 0.37404 0.9258 0.0
H949 H 0.09369 0.4118 0.05281 0.0
C950 C 0.13127 0.44084 0.9869 0.0
O951 O 0.17996 0.43569 0.89041 0.0
O952 O 0.1615 0.40892 0.96531 0.0
N953 N 0.08714 0.38529 0.80077 0.0
C954 C 0.09069 0.3846 0.72242 0.0
C955 C 0.07976 0.36671 0.67571 0.0
C956 C 0.06336 0.34802 0.70201 0.0
C957 C 0.05621 0.34714 0.78403 0.0
C958 C 0.07267 0.3692 0.83816 0.0
H959 H 0.10286 0.39794 0.69417 0.0
O960 O 0.14399 0.3967 0.81579 0.0
O961 O 0.1207 0.39824 0.88877 0.0
O962 O 0.1472 0.43798 0.79611 0.0
O963 O 0.11396 0.42623 0.7856 0.0
C964 C 0.02243 0.32566 0.86728 0.0
C965 C 0.02463 0.33848 0.95431 0.0
H966 H 0.03305 0.36227 0.08951 0.0
H967 H 0.06343 0.39389 0.13168 0.0
H968 H 0.08446 0.36737 0.6153 0.0
H969 H 0.05689 0.34549 0.75388 0.0
H970 H 0.00805 0.31168 0.85386 0.0
H971 H 0.01214 0.33468 0.99139 0.0
Mn972 Mn 0.39953 0.92557 0.44161 0.0
Mn973 Mn 0.36378 0.93909 0.46561 0.0
C974 C 0.40979 0.95937 0.48426 0.0
C975 C 0.4259 0.92222 0.37922 0.0
C976 C 0.36545 0.90769 0.56955 0.0
O977 O 0.37698 0.90671 0.3628 0.0
O978 O 0.35328 0.91636 0.38577 0.0
C979 C 0.3511 0.95079 0.32014 0.0
N980 N 0.36118 0.95684 0.39028 0.0
C981 C 0.35163 0.98595 0.39051 0.0
C982 C 0.34168 0.97792 0.31962 0.0
C983 C 0.34185 0.9611 0.2849 0.0
C984 C 0.36263 0.97307 0.42855 0.0
H985 H 0.3493 0.93728 0.29083 0.0
C986 C 0.3597 0.90572 0.34833 0.0
O987 O 0.41444 0.90997 0.43367 0.0
O988 O 0.42156 0.93615 0.35731 0.0
N989 N 0.37485 0.9611 0.54098 0.0
C990 C 0.38144 0.96125 0.61589 0.0
C991 C 0.39038 0.97897 0.66438 0.0
C992 C 0.39225 0.99796 0.64454 0.0
C993 C 0.38325 0.99931 0.56867 0.0
C994 C 0.37603 0.97767 0.50903 0.0
H995 H 0.38083 0.94762 0.63894 0.0
O996 O 0.41911 0.94976 0.5083 0.0
O997 O 0.3932 0.94812 0.44182 0.0
O998 O 0.38126 0.90865 0.53793 0.0
O999 O 0.35903 0.91942 0.54811 0.0
C1000 C 0.36687 0.02022 0.5082 0.0
C1001 C 0.35298 0.00774 0.42532 0.0
H1002 H 0.33425 0.98508 0.28937 0.0
H1003 H 0.33402 0.95541 0.22937 0.0
H1004 H 0.39639 0.97793 0.72078 0.0
H1005 H 0.38654 1.00078 0.59744 0.0
H1006 H 0.36632 0.03344 0.5303 0.0
H1007 H 0.34262 0.01186 0.39978 0.0
Mn1008 Mn 0.08956 0.48217 0.38493 0.0
Mn1009 Mn 0.07938 0.43546 0.41032 0.0
C1010 C 0.05637 0.45914 0.43212 0.0
C1011 C 0.09243 0.51195 0.32747 0.0
C1012 C 0.11272 0.46958 0.49913 0.0
O1013 O 0.10809 0.47804 0.30298 0.0
O1014 O 0.09575 0.44374 0.312 0.0
C1015 C 0.06304 0.40015 0.30364 0.0
N1016 N 0.05957 0.40919 0.36667 0.0
C1017 C 0.03611 0.37173 0.42077 0.0
C1018 C 0.0408 0.36476 0.35273 0.0
C1019 C 0.05376 0.37863 0.2958 0.0
C1020 C 0.04788 0.39764 0.42583 0.0
H1021 H 0.07398 0.40955 0.25955 0.0
C1022 C 0.10697 0.46119 0.27874 0.0
O1023 O 0.10531 0.51245 0.37852 0.0
O1024 O 0.07859 0.49386 0.3032 0.0
N1025 N 0.06327 0.42936 0.50428 0.0
C1026 C 0.06635 0.44117 0.5697 0.0
C1027 C 0.05151 0.43618 0.62926 0.0
C1028 C 0.03256 0.41803 0.63197 0.0
C1029 C 0.02861 0.40217 0.57172 0.0
C1030 C 0.04598 0.41195 0.49337 0.0
H1031 H 0.07978 0.45589 0.57472 0.0
O1032 O 0.06632 0.47828 0.45349 0.0
O1033 O 0.06682 0.4532 0.38678 0.0
O1034 O 0.10617 0.48182 0.4846 0.0
O1035 O 0.10455 0.4526 0.46598 0.0
C1036 C 0.00966 0.36185 0.56399 0.0
C1037 C 0.01822 0.35438 0.48347 0.0
H1038 H 0.03405 0.34846 0.34238 0.0
H1039 H 0.05722 0.37245 0.24442 0.0
H1040 H 0.05473 0.44739 0.67499 0.0
H1041 H 0.0283 0.40612 0.59735 0.0
H1042 H 0.99882 0.3498 0.60296 0.0
H1043 H 0.01331 0.33847 0.47499 0.0
Mn1044 Mn 0.53597 0.60683 0.40985 0.0
Mn1045 Mn 0.58589 0.63748 0.41326 0.0
C1046 C 0.55659 0.59325 0.46098 0.0
C1047 C 0.50523 0.58181 0.34937 0.0
C1048 C 0.55738 0.64415 0.51905 0.0
O1049 O 0.54172 0.62986 0.32571 0.0
O1050 O 0.57631 0.64616 0.31979 0.0
C1051 C 0.60558 0.63372 0.26946 0.0
N1052 N 0.60346 0.63191 0.34865 0.0
C1053 C 0.64046 0.63653 0.35482 0.0
C1054 C 0.63928 0.63583 0.27303 0.0
C1055 C 0.62265 0.63478 0.23179 0.0
C1056 C 0.618 0.63207 0.39419 0.0
H1057 H 0.59387 0.63404 0.23386 0.0
C1058 C 0.55899 0.64331 0.29498 0.0
O1059 O 0.50549 0.59435 0.40223 0.0
O1060 O 0.52295 0.58457 0.32783 0.0
N1061 N 0.5948 0.6292 0.50431 0.0
C1062 C 0.58759 0.62619 0.5796 0.0
C1063 C 0.59636 0.62092 0.64244 0.0
C1064 C 0.61332 0.61811 0.63579 0.0
C1065 C 0.6234 0.62168 0.55764 0.0
C1066 C 0.60977 0.62588 0.48397 0.0
H1067 H 0.57395 0.62675 0.59283 0.0
O1068 O 0.53766 0.58609 0.48191 0.0
O1069 O 0.56305 0.60865 0.41095 0.0
O1070 O 0.54128 0.62686 0.50677 0.0
O1071 O 0.57323 0.64913 0.47909 0.0
C1072 C 0.65888 0.6289 0.49922 0.0
C1073 C 0.6602 0.63523 0.40162 0.0
H1074 H 0.6505 0.63428 0.24046 0.0
H1075 H 0.62299 0.63475 0.16828 0.0
H1076 H 0.58916 0.61835 0.69941 0.0
H1077 H 0.62151 0.62027 0.58846 0.0
H1078 H 0.67201 0.62854 0.52501 0.0
H1079 H 0.67286 0.63614 0.36854 0.0
Mn1080 Mn 0.0825 0.61108 0.41567 0.0
Mn1081 Mn 0.06644 0.64538 0.41385 0.0
C1082 C 0.05029 0.60183 0.47217 0.0
C1083 C 0.08631 0.58435 0.3611 0.0
C1084 C 0.10055 0.64966 0.52137 0.0
O1085 O 0.09952 0.63096 0.32648 0.0
O1086 O 0.08672 0.65243 0.32797 0.0
C1087 C 0.04597 0.63786 0.25808 0.0
N1088 N 0.04517 0.63962 0.33719 0.0
C1089 C 0.01126 0.64108 0.31551 0.0
C1090 C 0.01363 0.63817 0.23601 0.0
C1091 C 0.03022 0.63622 0.20886 0.0
C1092 C 0.02929 0.63983 0.37123 0.0
H1093 H 0.0586 0.63706 0.23172 0.0
C1094 C 0.09849 0.64631 0.29947 0.0
O1095 O 0.09919 0.59729 0.41142 0.0
O1096 O 0.07118 0.58703 0.34073 0.0
N1097 N 0.04701 0.63953 0.49623 0.0
C1098 C 0.04984 0.63983 0.57555 0.0
C1099 C 0.03411 0.63547 0.63082 0.0
C1100 C 0.01416 0.63113 0.61196 0.0
C1101 C 0.00928 0.63215 0.52786 0.0
C1102 C 0.02941 0.63618 0.46561 0.0
H1103 H 0.06444 0.64283 0.59855 0.0
O1104 O 0.06087 0.59338 0.49411 0.0
O1105 O 0.05919 0.616 0.41787 0.0
O1106 O 0.09941 0.63272 0.50237 0.0
O1107 O 0.08887 0.6554 0.49101 0.0
C1108 C 0.98083 0.63423 0.44342 0.0
C1109 C 0.98844 0.63875 0.34631 0.0
H1110 H 1.00165 0.63565 0.19478 0.0
H1111 H 0.03084 0.63311 0.14725 0.0
H1112 H 0.03759 0.6352 0.69225 0.0
H1113 H 0.00904 0.63154 0.55955 0.0
H1114 H 0.96614 0.63296 0.45895 0.0
H1115 H 0.97795 0.63867 0.30303 0.0
Mn1116 Mn 0.40216 0.47665 0.38698 0.0
Mn1117 Mn 0.36544 0.42914 0.41562 0.0
C1118 C 0.41204 0.45338 0.43386 0.0
C1119 C 0.42846 0.50684 0.32798 0.0
C1120 C 0.36756 0.46418 0.50499 0.0
O1121 O 0.37914 0.4723 0.30749 0.0
O1122 O 0.35682 0.43806 0.31966 0.0
C1123 C 0.34648 0.39475 0.3056 0.0
N1124 N 0.35937 0.40331 0.36802 0.0
C1125 C 0.3448 0.36534 0.41856 0.0
C1126 C 0.33264 0.35903 0.35191 0.0
C1127 C 0.3336 0.37333 0.29714 0.0
C1128 C 0.35952 0.3912 0.42539 0.0
H1129 H 0.34491 0.40451 0.26329 0.0
C1130 C 0.36313 0.45545 0.28531 0.0
O1131 O 0.41626 0.50692 0.38052 0.0
O1132 O 0.42461 0.48884 0.30373 0.0
N1133 N 0.3759 0.42239 0.50684 0.0
C1134 C 0.38454 0.43382 0.57312 0.0
C1135 C 0.39404 0.42827 0.63231 0.0
C1136 C 0.39417 0.40973 0.63431 0.0
C1137 C 0.38212 0.39423 0.57307 0.0
C1138 C 0.37545 0.40482 0.49464 0.0
H1139 H 0.38592 0.44862 0.57898 0.0
O1140 O 0.42173 0.47265 0.45375 0.0
O1141 O 0.39549 0.44751 0.38989 0.0
O1142 O 0.38595 0.47673 0.48698 0.0
O1143 O 0.35883 0.44668 0.4759 0.0
C1144 C 0.36002 0.35401 0.56229 0.0
C1145 C 0.34449 0.34732 0.48041 0.0
H1146 H 0.32218 0.34294 0.34198 0.0
H1147 H 0.32325 0.36753 0.24764 0.0
H1148 H 0.40212 0.43922 0.67871 0.0
H1149 H 0.38634 0.39802 0.59905 0.0
H1150 H 0.3583 0.34164 0.60066 0.0
H1151 H 0.33355 0.33143 0.46988 0.0
Mn1152 Mn 0.53135 0.92576 0.42353 0.0
Mn1153 Mn 0.57999 0.93911 0.45395 0.0
C1154 C 0.55421 0.95967 0.46486 0.0
C1155 C 0.50121 0.92123 0.36105 0.0
C1156 C 0.54607 0.90786 0.55336 0.0
O1157 O 0.53622 0.90647 0.34864 0.0
O1158 O 0.57036 0.9187 0.36676 0.0
C1159 C 0.60967 0.95471 0.324 0.0
N1160 N 0.60321 0.9585 0.3933 0.0
C1161 C 0.64227 0.98309 0.42729 0.0
C1162 C 0.64653 0.97766 0.3547 0.0
C1163 C 0.6306 0.9647 0.30349 0.0
C1164 C 0.61681 0.97177 0.44489 0.0
H1165 H 0.59867 0.94351 0.2837 0.0
C1166 C 0.55325 0.90701 0.33145 0.0
O1167 O 0.501 0.90941 0.41597 0.0
O1168 O 0.51926 0.93504 0.33644 0.0
N1169 N 0.58786 0.95882 0.53702 0.0
C1170 C 0.57795 0.95753 0.60585 0.0
C1171 C 0.58483 0.97388 0.66031 0.0
C1172 C 0.6034 0.9924 0.65435 0.0
C1173 C 0.61743 0.99438 0.58913 0.0
C1174 C 0.60503 0.97546 0.51743 0.0
H1175 H 0.56337 0.94421 0.61748 0.0
O1176 O 0.53502 0.95014 0.48554 0.0
O1177 O 0.56013 0.94853 0.42467 0.0
O1178 O 0.53204 0.91083 0.52672 0.0
O1179 O 0.56377 0.91745 0.52625 0.0
C1180 C 0.65721 0.01272 0.5631 0.0
C1181 C 0.66175 1.00214 0.48053 0.0
H1182 H 0.66222 0.9844 0.33527 0.0
H1183 H 0.63459 0.962 0.24594 0.0
H1184 H 0.57502 0.97214 0.7095 0.0
H1185 H 0.61425 0.99545 0.61595 0.0
H1186 H 0.67046 0.02437 0.59561 0.0
H1187 H 0.67709 0.00669 0.46355 0.0
Mn1188 Mn 0.28182 0.41728 0.88863 0.0
Mn1189 Mn 0.31733 0.40302 0.87632 0.0
C1190 C 0.27231 0.3843 0.83951 0.0
C1191 C 0.25462 0.42067 0.94097 0.0
C1192 C 0.31767 0.43441 0.76885 0.0
O1193 O 0.30229 0.43466 0.9758 0.0
O1194 O 0.32694 0.42652 0.95203 0.0
C1195 C 0.32367 0.39189 0.03448 0.0
N1196 N 0.31683 0.38559 0.96017 0.0
C1197 C 0.32089 0.35347 0.98868 0.0
C1198 C 0.3283 0.36249 0.06145 0.0
C1199 C 0.32963 0.38097 0.08331 0.0
C1200 C 0.31511 0.36823 0.93138 0.0
H1201 H 0.32571 0.40613 0.057 0.0
C1202 C 0.31974 0.43619 0.99087 0.0
O1203 O 0.26761 0.43348 0.89126 0.0
O1204 O 0.25783 0.40606 0.96413 0.0
N1205 N 0.30849 0.38055 0.80415 0.0
C1206 C 0.30501 0.38016 0.72526 0.0
C1207 C 0.29823 0.36237 0.67817 0.0
C1208 C 0.29507 0.34338 0.70505 0.0
C1209 C 0.30022 0.34196 0.78841 0.0
C1210 C 0.30649 0.36425 0.8416 0.0
H1211 H 0.30672 0.3937 0.6967 0.0
O1212 O 0.26376 0.39451 0.81395 0.0
O1213 O 0.28763 0.39448 0.88865 0.0
O1214 O 0.3025 0.43472 0.80029 0.0
O1215 O 0.32305 0.42174 0.78941 0.0
C1216 C 0.30831 0.31797 0.87704 0.0
C1217 C 0.31775 0.3297 0.96686 0.0
H1218 H 0.33372 0.35582 0.10223 0.0
H1219 H 0.33619 0.38759 0.13947 0.0
H1220 H 0.29497 0.36333 0.617 0.0
H1221 H 0.29814 0.34045 0.75774 0.0
H1222 H 0.30719 0.30311 0.86625 0.0
H1223 H 0.32133 0.3216 0.01057 0.0
Mn1224 Mn 0.59405 0.86686 0.92464 0.0
Mn1225 Mn 0.61005 0.91714 0.93612 0.0
C1226 C 0.6265 0.89062 0.87121 0.0
C1227 C 0.59056 0.83538 0.96756 0.0
C1228 C 0.57634 0.88859 0.82422 0.0
O1229 O 0.57673 0.86874 0.01669 0.0
O1230 O 0.58945 0.903 0.02002 0.0
C1231 C 0.62994 0.92865 0.09359 0.0
N1232 N 0.63106 0.93183 0.01485 0.0
C1233 C 0.66453 0.96723 0.0416 0.0
C1234 C 0.66163 0.96159 0.12057 0.0
C1235 C 0.64526 0.94259 0.14487 0.0
C1236 C 0.64698 0.94828 0.98317 0.0
H1237 H 0.61728 0.91498 0.1181 0.0
C1238 C 0.5776 0.88493 0.04621 0.0
O1239 O 0.57754 0.83632 0.92063 0.0
O1240 O 0.60524 0.85282 0.99358 0.0
N1241 N 0.62973 0.93158 0.85562 0.0
C1242 C 0.62711 0.9299 0.77602 0.0
C1243 C 0.64291 0.94196 0.72216 0.0
C1244 C 0.66265 0.95761 0.74296 0.0
C1245 C 0.6672 0.96268 0.82786 0.0
C1246 C 0.64716 0.94557 0.88807 0.0
H1247 H 0.61266 0.91845 0.75153 0.0
O1248 O 0.61599 0.87195 0.8452 0.0
O1249 O 0.61739 0.89513 0.92744 0.0
O1250 O 0.57735 0.87261 0.84068 0.0
O1251 O 0.58791 0.90565 0.85732 0.0
C1252 C 0.69493 0.99265 0.91662 0.0
C1253 C 0.68715 0.98835 0.01346 0.0
H1254 H 0.67296 0.97122 0.16363 0.0
H1255 H 0.64421 0.93856 0.20628 0.0
H1256 H 0.63965 0.93882 0.66023 0.0
H1257 H 0.66753 0.96266 0.79612 0.0
H1258 H 0.70946 0.00643 0.90287 0.0
H1259 H 0.6975 0.99848 0.05787 0.0
Mn1260 Mn 0.14473 0.73128 0.92186 0.0
Mn1261 Mn 0.09638 0.69623 0.88637 0.0
C1262 C 0.12235 0.74271 0.87867 0.0
C1263 C 0.17397 0.75537 0.99248 0.0
C1264 C 0.13113 0.6991 0.79115 0.0
O1265 O 0.13935 0.70672 0.99354 0.0
O1266 O 0.10515 0.68536 0.97548 0.0
C1267 C 0.06513 0.68134 0.01068 0.0
N1268 N 0.07247 0.69221 0.94317 0.0
C1269 C 0.03387 0.67851 0.90354 0.0
C1270 C 0.02868 0.66812 0.97446 0.0
C1271 C 0.04394 0.67022 0.02741 0.0
C1272 C 0.05951 0.69234 0.88959 0.0
H1273 H 0.07557 0.68057 0.05222 0.0
C1274 C 0.12219 0.69057 0.01086 0.0
O1275 O 0.17489 0.74483 0.93453 0.0
O1276 O 0.15569 0.75132 0.01347 0.0
N1277 N 0.08941 0.70829 0.80156 0.0
C1278 C 0.10004 0.71711 0.73427 0.0
C1279 C 0.09377 0.72679 0.6785 0.0
C1280 C 0.07525 0.72696 0.68156 0.0
C1281 C 0.06061 0.71498 0.74512 0.0
C1282 C 0.07214 0.70793 0.81856 0.0
H1283 H 0.1147 0.71833 0.72495 0.0
O1284 O 0.14179 0.75254 0.8616 0.0
O1285 O 0.116 0.72543 0.91757 0.0
O1286 O 0.14476 0.7164 0.81716 0.0
O1287 O 0.11336 0.69076 0.81768 0.0
C1288 C 0.02063 0.69412 0.76602 0.0
C1289 C 0.01509 0.6787 0.84775 0.0
H1290 H 0.01275 0.65909 0.99088 0.0
H1291 H 0.03917 0.66257 0.0831 0.0
H1292 H 0.10408 0.73489 0.63064 0.0
H1293 H 0.06406 0.71924 0.71871 0.0
H1294 H 0.00778 0.69298 0.73201 0.0
H1295 H 0.99957 0.66793 0.86181 0.0
C1296 C 0.2397 0.01166 0.59003 0.0
C1297 C 0.22723 0.99026 0.58022 0.0
H1298 H 0.25644 0.0413 0.53537 0.0
C1299 C 0.22014 0.98292 0.50385 0.0
H1300 H 0.2459 0.01789 0.64744 0.0
C1301 C 0.22645 0.99647 0.43902 0.0
C1302 C 0.23964 0.0178 0.44869 0.0
H1303 H 0.21113 0.96658 0.49327 0.0
H1304 H 0.2221 0.99009 0.38048 0.0
C1305 C 0.2457 0.02518 0.52561 0.0
C1306 C 0.02179 0.22778 0.55519 0.0
C1307 C 0.01354 0.23007 0.62632 0.0
H1308 H 0.01728 0.22176 0.43075 0.0
C1309 C 0.99263 0.22452 0.62647 0.0
H1310 H 0.03786 0.23226 0.55185 0.0
C1311 C 0.98076 0.21814 0.55731 0.0
C1312 C 0.98936 0.21716 0.48534 0.0
H1313 H 0.98568 0.22624 0.67947 0.0
H1314 H 0.9652 0.21542 0.55906 0.0
C1315 C 0.00994 0.22169 0.48553 0.0
C1316 C 0.77997 0.79067 0.3973 0.0
C1317 C 0.79347 0.78272 0.39769 0.0
H1318 H 0.76389 0.80249 0.46456 0.0
C1319 C 0.80298 0.78314 0.46951 0.0
H1320 H 0.77211 0.79038 0.34367 0.0
C1321 C 0.79791 0.78978 0.53943 0.0
C1322 C 0.78376 0.7969 0.53938 0.0
H1323 H 0.81307 0.77677 0.47296 0.0
H1324 H 0.80418 0.7882 0.59451 0.0
C1325 C 0.77535 0.7978 0.46675 0.0
C1326 C 0.7787 0.988 0.52654 0.0
C1327 C 0.7786 0.99768 0.5972 0.0
H1328 H 0.78207 0.9906 0.40094 0.0
C1329 C 0.78557 0.01886 0.5957 0.0
H1330 H 0.77304 0.97165 0.52523 0.0
C1331 C 0.79133 0.02981 0.52487 0.0
C1332 C 0.78985 0.01978 0.45349 0.0
H1333 H 0.78545 0.02675 0.64881 0.0
H1334 H 0.79528 0.04576 0.52511 0.0
C1335 C 0.78391 0.99886 0.45527 0.0
C1336 C 0.03098 0.79288 0.48532 0.0
C1337 C 0.02131 0.79079 0.55798 0.0
H1338 H 0.02724 0.7873 0.36104 0.0
C1339 C 1.00015 0.78403 0.558 0.0
H1340 H 0.04708 0.79739 0.48335 0.0
C1341 C 0.98877 0.77863 0.48751 0.0
C1342 C 0.99816 0.77916 0.41544 0.0
H1343 H 0.99213 0.78167 0.61316 0.0
H1344 H 0.97233 0.77232 0.49038 0.0
C1345 C 0.01953 0.78695 0.41518 0.0
C1346 C 0.2175 0.22124 0.48025 0.0
C1347 C 0.23254 0.21529 0.48105 0.0
H1348 H 0.20071 0.23242 0.54649 0.0
C1349 C 0.24045 0.21392 0.55406 0.0
H1350 H 0.21158 0.22308 0.42479 0.0
C1351 C 0.23457 0.2197 0.62371 0.0
C1352 C 0.2204 0.22681 0.62268 0.0
H1353 H 0.25251 0.21005 0.55665 0.0
H1354 H 0.24217 0.21988 0.67796 0.0
C1355 C 0.21127 0.22662 0.55024 0.0
C1356 C 0.90205 0.3284 0.7583 0.0
C1357 C 0.90816 0.34941 0.7637 0.0
H1358 H 0.89049 0.29951 0.8172 0.0
C1359 C 0.9043 0.35638 0.83508 0.0
H1360 H 0.90488 0.32239 0.70485 0.0
C1361 C 0.89601 0.34304 0.90041 0.0
C1362 C 0.89079 0.32223 0.89558 0.0
H1363 H 0.90911 0.37246 0.84239 0.0
H1364 H 0.89501 0.34937 0.95632 0.0
C1365 C 0.8935 0.31511 0.82272 0.0
C1366 C 0.67865 0.55286 0.79976 0.0
C1367 C 0.65744 0.54611 0.80039 0.0
H1368 H 0.70697 0.56559 0.86525 0.0
C1369 C 0.64848 0.5457 0.87331 0.0
H1370 H 0.68627 0.5541 0.74447 0.0
C1371 C 0.66046 0.55284 0.94233 0.0
C1372 C 0.68183 0.56036 0.9414 0.0
H1373 H 0.63243 0.54134 0.87605 0.0
H1374 H 0.6531 0.55344 0.99609 0.0
C1375 C 0.69058 0.55954 0.86929 0.0
C1376 C 0.46426 0.11057 0.79895 0.0
C1377 C 0.45833 0.11459 0.72575 0.0
H1378 H 0.46117 0.11045 0.92463 0.0
C1379 C 0.44686 0.12478 0.7257 0.0
H1380 H 0.47255 0.10225 0.80167 0.0
C1381 C 0.44078 0.12999 0.79646 0.0
C1382 C 0.44544 0.12458 0.8694 0.0
H1383 H 0.44162 0.12774 0.67066 0.0
H1384 H 0.43109 0.13683 0.79389 0.0
C1385 C 0.45761 0.11516 0.86961 0.0
C1386 C 0.45387 0.35962 0.85729 0.0
C1387 C 0.452 0.34971 0.7852 0.0
H1388 H 0.44865 0.35644 0.98174 0.0
C1389 C 0.44558 0.32865 0.78624 0.0
H1390 H 0.45821 0.37568 0.85839 0.0
C1391 C 0.44053 0.31764 0.85737 0.0
C1392 C 0.44107 0.32728 0.92901 0.0
H1393 H 0.44346 0.32046 0.73153 0.0
H1394 H 0.43468 0.30126 0.85544 0.0
C1395 C 0.44828 0.34853 0.92802 0.0
C1396 C 0.69016 0.12893 0.84591 0.0
C1397 C 0.68043 0.12055 0.91785 0.0
H1398 H 0.68719 0.12833 0.7201 0.0
C1399 C 0.65897 0.10752 0.91752 0.0
H1400 H 0.70667 0.13862 0.84363 0.0
C1401 C 0.64772 0.10215 0.84693 0.0
C1402 C 0.65768 0.10925 0.77451 0.0
H1403 H 0.65102 0.10054 0.97161 0.0
H1404 H 0.63149 0.09103 0.8485 0.0
C1405 C 0.67897 0.12305 0.77503 0.0
C1406 C 0.90085 0.54552 0.8285 0.0
C1407 C 0.89865 0.55295 0.75559 0.0
H1408 H 0.89937 0.54733 0.95428 0.0
C1409 C 0.88966 0.56551 0.75477 0.0
H1410 H 0.90816 0.53626 0.83171 0.0
C1411 C 0.88407 0.57137 0.82493 0.0
C1412 C 0.88777 0.56526 0.89808 0.0
H1413 H 0.88807 0.57182 0.69989 0.0
H1414 H 0.87849 0.58213 0.82218 0.0
C1415 C 0.89581 0.55188 0.89887 0.0
C1416 C 0.56132 0.64869 0.14869 0.0
C1417 C 0.55996 0.65569 0.22379 0.0
H1418 H 0.57003 0.6561 0.02801 0.0
C1419 C 0.56477 0.67636 0.2305 0.0
H1420 H 0.55847 0.63319 0.14124 0.0
C1421 C 0.57134 0.6897 0.16462 0.0
C1422 C 0.57374 0.68287 0.09028 0.0
H1423 H 0.56464 0.68257 0.28775 0.0
H1424 H 0.57602 0.7057 0.17327 0.0
C1425 C 0.56809 0.66198 0.08352 0.0
C1426 C 0.3261 0.8861 0.27496 0.0
C1427 C 0.34746 0.89391 0.278 0.0
H1428 H 0.29905 0.87435 0.20286 0.0
C1429 C 0.35737 0.89339 0.2086 0.0
H1430 H 0.31796 0.88643 0.32686 0.0
C1431 C 0.34655 0.88684 0.13712 0.0
C1432 C 0.32539 0.87991 0.13363 0.0
H1433 H 0.37382 0.89961 0.20812 0.0
H1434 H 0.35495 0.88831 0.08367 0.0
C1435 C 0.31519 0.879 0.20392 0.0
C1436 C 0.11371 0.46727 0.13338 0.0
C1437 C 0.11784 0.46096 0.20541 0.0
H1438 H 0.11472 0.46587 1.00735 0.0
C1439 C 0.12939 0.4509 0.20418 0.0
H1440 H 0.1045 0.47464 0.13197 0.0
C1441 C 0.13591 0.44652 0.13285 0.0
C1442 C 0.13042 0.4514 0.06044 0.0
H1443 H 0.13255 0.44552 0.25845 0.0
H1444 H 0.14369 0.43769 0.13431 0.0
C1445 C 0.11962 0.46226 0.06185 0.0
C1446 C 0.12346 0.67757 0.22469 0.0
C1447 C 0.10927 0.65642 0.22571 0.0
H1448 H 0.13949 0.70485 0.15509 0.0
C1449 C 0.10188 0.64616 0.1538 0.0
H1450 H 0.12901 0.68594 0.27936 0.0
C1451 C 0.10737 0.65707 0.08284 0.0
C1452 C 0.1208 0.67842 0.08192 0.0
H1453 H 0.09051 0.63 0.15289 0.0
H1454 H 0.10019 0.64898 0.02897 0.0
C1455 C 0.12947 0.68839 0.15345 0.0
C1456 C 0.36291 0.46203 0.14045 0.0
C1457 C 0.35215 0.45513 0.21162 0.0
H1458 H 0.36112 0.46137 0.01429 0.0
C1459 C 0.33058 0.44479 0.20902 0.0
H1460 H 0.37951 0.46967 0.14018 0.0
C1461 C 0.32003 0.44074 0.13704 0.0
C1462 C 0.33076 0.44624 0.06542 0.0
H1463 H 0.32183 0.43901 0.2626 0.0
H1464 H 0.30344 0.43174 0.1372 0.0
C1465 C 0.35236 0.4573 0.06823 0.0
C1466 C 0.54579 0.89615 0.18918 0.0
C1467 C 0.55453 0.89556 0.26151 0.0
H1468 H 0.5463 0.89318 0.06357 0.0
C1469 C 0.56807 0.88769 0.26219 0.0
H1470 H 0.5357 0.90252 0.18598 0.0
C1471 C 0.57367 0.88178 0.19223 0.0
C1472 C 0.56623 0.88394 0.11935 0.0
H1473 H 0.57532 0.88728 0.31654 0.0
H1474 H 0.58523 0.87722 0.19458 0.0
C1475 C 0.55185 0.89075 0.1189 0.0
C1476 C 0.25168 0.99788 0.98061 0.0
C1477 C 0.23299 0.9912 0.94167 0.0
H1478 H 0.26979 0.01048 0.08051 0.0
C1479 C 0.21946 0.99728 0.97393 0.0
H1480 H 0.26342 0.99516 0.95739 0.0
C1481 C 0.22513 0.01 0.04255 0.0
C1482 C 0.24365 0.01541 0.08277 0.0
H1483 H 0.20498 0.99279 0.94523 0.0
H1484 H 0.21492 0.01505 0.06492 0.0
C1485 C 0.25601 0.00805 0.05145 0.0
C1486 C 0.01878 0.23093 0.12861 0.0
C1487 C 0.99734 0.21785 0.12052 0.0
H1488 H 0.04785 0.24958 0.07148 0.0
C1489 C 0.98971 0.21099 0.04435 0.0
H1490 H 0.02528 0.23686 0.18598 0.0
C1491 C 1.00281 0.21848 0.97836 0.0
C1492 C 0.024 0.23268 0.98629 0.0
H1493 H 0.97336 0.20145 0.03496 0.0
H1494 H 0.99603 0.21439 0.92034 0.0
C1495 C 0.03188 0.23819 0.06276 0.0
C1496 C 0.78495 0.80435 0.98553 0.0
C1497 C 0.79031 0.80194 0.90878 0.0
H1498 H 0.78302 0.79583 0.107 0.0
C1499 C 0.80196 0.79191 0.90071 0.0
H1500 H 0.77556 0.81136 0.99481 0.0
C1501 C 0.80644 0.78306 0.96554 0.0
C1502 C 0.79924 0.78372 0.04094 0.0
H1503 H 0.80601 0.78925 0.8426 0.0
H1504 H 0.81383 0.77407 0.95524 0.0
C1505 C 0.78911 0.7952 0.05012 0.0
C1506 C 0.77055 0.97721 0.03265 0.0
C1507 C 0.77948 0.98569 0.95985 0.0
H1508 H 0.76545 0.98305 0.15159 0.0
C1509 C 0.79409 0.00682 0.95774 0.0
H1510 H 0.75909 0.96113 0.03672 0.0
C1511 C 0.79799 0.01945 0.0241 0.0
C1512 C 0.78703 0.01133 0.09397 0.0
H1513 H 0.8009 0.014 0.90229 0.0
H1514 H 0.80806 0.03583 0.01828 0.0
C1515 C 0.77401 0.9899 0.09842 0.0
C1516 C 0.99174 0.77383 0.91194 0.0
C1517 C 0.01318 0.78689 0.91684 0.0
H1518 H 0.96298 0.75869 0.97316 0.0
C1519 C 0.02131 0.79762 0.9874 0.0
H1520 H 0.98489 0.76539 0.85834 0.0
C1521 C 0.00868 0.79354 0.0537 0.0
C1522 C 0.98751 0.77902 0.05083 0.0
H1523 H 0.0377 0.80767 0.99366 0.0
H1524 H 0.01585 0.80023 0.10947 0.0
C1525 C 0.97904 0.77019 0.97767 0.0
C1526 C 0.22308 0.23752 0.12646 0.0
C1527 C 0.22925 0.22263 0.12216 0.0
H1528 H 0.21231 0.25518 0.06451 0.0
C1529 C 0.22543 0.2115 0.05172 0.0
H1530 H 0.22572 0.24642 0.17962 0.0
C1531 C 0.21767 0.21661 0.9854 0.0
C1532 C 0.21303 0.23262 0.98809 0.0
H1533 H 0.23013 0.20012 0.04562 0.0
H1534 H 0.21707 0.2093 0.92986 0.0
C1535 C 0.21501 0.24236 0.06062 0.0
C1536 C 0.889 0.34048 0.38428 0.0
C1537 C 0.90981 0.34809 0.40591 0.0
H1538 H 0.86434 0.32128 0.3029 0.0
C1539 C 0.92123 0.34217 0.35897 0.0
H1540 H 0.87943 0.34434 0.41948 0.0
C1541 C 0.91343 0.33111 0.29059 0.0
C1542 C 0.89266 0.32234 0.26947 0.0
H1543 H 0.93666 0.34613 0.37373 0.0
H1544 H 0.92422 0.32934 0.25431 0.0
C1545 C 0.8803 0.32714 0.31775 0.0
C1546 C 0.69516 0.56175 0.37499 0.0
C1547 C 0.68719 0.56038 0.29925 0.0
H1548 H 0.68865 0.55618 0.49823 0.0
C1549 C 0.66565 0.54847 0.29002 0.0
H1550 H 0.7115 0.57111 0.38513 0.0
C1551 C 0.65244 0.53942 0.35485 0.0
C1552 C 0.66029 0.54244 0.43169 0.0
H1553 H 0.65887 0.54733 0.23281 0.0
H1554 H 0.63603 0.53196 0.34548 0.0
C1555 C 0.68193 0.55305 0.44005 0.0
C1556 C 0.46618 0.12421 0.22649 0.0
C1557 C 0.45435 0.13404 0.23322 0.0
H1558 H 0.4778 0.10644 0.28292 0.0
C1559 C 0.44894 0.13685 0.30935 0.0
H1560 H 0.47045 0.12148 0.1689 0.0
C1561 C 0.45271 0.12766 0.37459 0.0
C1562 C 0.46268 0.11605 0.36634 0.0
H1563 H 0.43973 0.14408 0.31763 0.0
H1564 H 0.44648 0.12839 0.43102 0.0
C1565 C 0.47035 0.11541 0.29199 0.0
C1566 C 0.43653 0.30729 0.36658 0.0
C1567 C 0.44554 0.31572 0.2937 0.0
H1568 H 0.43055 0.31324 0.48435 0.0
C1569 C 0.45995 0.33692 0.29168 0.0
H1570 H 0.42544 0.29112 0.37114 0.0
C1571 C 0.46327 0.34962 0.35737 0.0
C1572 C 0.45195 0.34153 0.42655 0.0
H1573 H 0.46692 0.34409 0.23641 0.0
H1574 H 0.47317 0.36602 0.35129 0.0
C1575 C 0.43929 0.32007 0.4315 0.0
C1576 C 0.69883 0.13181 0.35591 0.0
C1577 C 0.69029 0.13204 0.28283 0.0
H1578 H 0.69306 0.12084 0.47463 0.0
C1579 C 0.66904 0.1251 0.28001 0.0
H1580 H 0.71499 0.13672 0.3605 0.0
C1581 C 0.65641 0.1162 0.34596 0.0
C1582 C 0.66466 0.11361 0.41608 0.0
H1583 H 0.66183 0.12457 0.22432 0.0
H1584 H 0.63999 0.1096 0.33964 0.0
C1585 C 0.68615 0.12239 0.42123 0.0
C1586 C 0.90652 0.54344 0.3159 0.0
C1587 C 0.8976 0.543 0.38886 0.0
H1588 H 0.91182 0.55458 0.19739 0.0
C1589 C 0.88333 0.55 0.39168 0.0
H1590 H 0.91781 0.53857 0.31137 0.0
C1591 C 0.87964 0.559 0.32579 0.0
C1592 C 0.89052 0.56168 0.25571 0.0
H1593 H 0.87658 0.55043 0.4473 0.0
H1594 H 0.86977 0.56556 0.33211 0.0
C1595 C 0.90329 0.55295 0.25067 0.0
C1596 C 0.54839 0.66248 0.63245 0.0
C1597 C 0.56177 0.65735 0.59232 0.0
H1598 H 0.5451 0.68003 0.72806 0.0
C1599 C 0.58201 0.66643 0.62074 0.0
H1600 H 0.53272 0.65616 0.61254 0.0
C1601 C 0.58853 0.67881 0.68637 0.0
C1602 C 0.57601 0.68473 0.7263 0.0
H1603 H 0.59343 0.66385 0.59286 0.0
H1604 H 0.60385 0.68345 0.70607 0.0
C1605 C 0.55558 0.67638 0.69822 0.0
C1606 C 0.34747 0.88144 0.76867 0.0
C1607 C 0.32581 0.87211 0.76196 0.0
H1608 H 0.37707 0.89976 0.71421 0.0
C1609 C 0.31784 0.87092 0.68626 0.0
H1610 H 0.35434 0.88301 0.82601 0.0
C1611 C 0.33103 0.88103 0.62238 0.0
C1612 C 0.35263 0.89214 0.63114 0.0
H1613 H 0.30147 0.86417 0.67778 0.0
H1614 H 0.32421 0.88138 0.5668 0.0
C1615 C 0.36066 0.89125 0.70443 0.0
C1616 C 0.12357 0.46414 0.70992 0.0
C1617 C 0.13431 0.45328 0.70181 0.0
H1618 H 0.10941 0.47936 0.65255 0.0
C1619 C 0.14257 0.45332 0.62804 0.0
H1620 H 0.11687 0.46432 0.76598 0.0
C1621 C 0.13816 0.46193 0.56262 0.0
C1622 C 0.12542 0.47077 0.56906 0.0
H1623 H 0.15061 0.4449 0.61914 0.0
H1624 H 0.14286 0.45964 0.50515 0.0
C1625 C 0.11941 0.473 0.64475 0.0
C1626 C 0.12618 0.66786 0.72113 0.0
C1627 C 0.133 0.68908 0.71831 0.0
H1628 H 0.11087 0.63873 0.66133 0.0
C1629 C 0.13276 0.69748 0.64506 0.0
H1630 H 0.1256 0.66074 0.77695 0.0
C1631 C 0.12356 0.68471 0.57942 0.0
C1632 C 0.11489 0.66323 0.58442 0.0
H1633 H 0.13747 0.71358 0.64047 0.0
H1634 H 0.12201 0.69154 0.52585 0.0
C1635 C 0.11743 0.65513 0.65493 0.0
C1636 C 0.32233 0.4499 0.63404 0.0
C1637 C 0.33058 0.44928 0.70704 0.0
H1638 H 0.32822 0.4563 0.5112 0.0
C1639 C 0.35214 0.45944 0.71485 0.0
H1640 H 0.30587 0.44204 0.62572 0.0
C1641 C 0.36505 0.46808 0.64959 0.0
C1642 C 0.35667 0.46627 0.57444 0.0
H1643 H 0.35897 0.45915 0.77048 0.0
H1644 H 0.38132 0.47377 0.65659 0.0
C1645 C 0.33524 0.45827 0.56847 0.0
C1646 C 0.55959 0.87755 0.69016 0.0
C1647 C 0.56241 0.88841 0.76059 0.0
H1648 H 0.5513 0.87482 0.56823 0.0
C1649 C 0.55425 0.90168 0.7653 0.0
H1650 H 0.56576 0.86734 0.68396 0.0
C1651 C 0.54518 0.90536 0.69962 0.0
C1652 C 0.54451 0.89631 0.62661 0.0
H1653 H 0.55602 0.91025 0.81872 0.0
H1654 H 0.54079 0.91701 0.70401 0.0
C1655 C 0.55099 0.88165 0.6239 0.0
C1656 C 0.35779 0.11374 0.20996 0.0
C1657 C 0.36363 0.11217 0.1323 0.0
H1658 H 0.33381 0.1031 0.29751 0.0
C1659 C 0.34734 0.10157 0.07881 0.0
H1660 H 0.36938 0.12374 0.25147 0.0
C1661 C 0.32647 0.09239 0.10329 0.0
C1662 C 0.3209 0.09086 0.18358 0.0
H1663 H 0.35066 0.10129 0.01717 0.0
H1664 H 0.31457 0.08586 0.05902 0.0
C1665 C 0.33714 0.10224 0.23627 0.0
C1666 C 0.90886 0.24256 0.1012 0.0
C1667 C 0.89996 0.2501 0.15504 0.0
H1668 H 0.92346 0.22438 0.08279 0.0
C1669 C 0.90051 0.24498 0.23473 0.0
H1670 H 0.90754 0.24445 0.0389 0.0
C1671 C 0.91245 0.23621 0.26075 0.0
C1672 C 0.92214 0.2295 0.20712 0.0
H1673 H 0.89195 0.24819 0.27793 0.0
H1674 H 0.91317 0.2337 0.32292 0.0
C1675 C 0.91846 0.23133 0.12671 0.0
C1676 C 0.7634 0.66226 0.09453 0.0
C1677 C 0.75712 0.64916 0.16047 0.0
H1678 H 0.78094 0.69319 0.04995 0.0
C1679 C 0.76382 0.65911 0.23411 0.0
H1680 H 0.75996 0.65563 0.0362 0.0
C1681 C 0.77359 0.68088 0.24227 0.0
C1682 C 0.77927 0.69397 0.17642 0.0
H1683 H 0.76106 0.64997 0.28635 0.0
H1684 H 0.77748 0.68751 0.30054 0.0
C1685 C 0.7752 0.68404 0.10247 0.0
C1686 C 0.09911 0.32963 0.89998 0.0
C1687 C 0.09089 0.31898 0.82868 0.0
H1688 H 0.11405 0.35868 0.9617 0.0
C1689 C 0.09544 0.33124 0.76087 0.0
H1690 H 0.09751 0.32105 0.95291 0.0
C1691 C 0.1072 0.35302 0.76494 0.0
C1692 C 0.11287 0.36364 0.83741 0.0
H1693 H 0.09066 0.32395 0.70391 0.0
H1694 H 0.11168 0.36162 0.71082 0.0
C1695 C 0.10887 0.35138 0.90493 0.0
C1696 C 0.69375 0.78221 0.87638 0.0
C1697 C 0.70067 0.78311 0.79821 0.0
H1698 H 0.66858 0.7691 0.95947 0.0
C1699 C 0.68492 0.77436 0.74117 0.0
H1700 H 0.70484 0.79064 0.92191 0.0
C1701 C 0.66368 0.76459 0.76219 0.0
C1702 C 0.65693 0.76057 0.84136 0.0
H1703 H 0.68899 0.77591 0.67965 0.0
H1704 H 0.6524 0.75958 0.71563 0.0
C1705 C 0.67264 0.77014 0.89806 0.0
C1706 C 0.24299 0.91597 0.91634 0.0
C1707 C 0.23667 0.91635 0.83825 0.0
H1708 H 0.25969 0.90713 0.99604 0.0
C1709 C 0.23862 0.9031 0.78497 0.0
H1710 H 0.23959 0.92379 0.96214 0.0
C1711 C 0.24735 0.89097 0.80799 0.0
C1712 C 0.25693 0.8934 0.88192 0.0
H1713 H 0.23259 0.90142 0.72603 0.0
H1714 H 0.24713 0.88 0.76629 0.0
C1715 C 0.25417 0.90594 0.93649 0.0
C1716 C 0.68474 0.91208 0.88724 0.0
C1717 C 0.69264 0.92276 0.81608 0.0
H1718 H 0.65863 0.89598 0.96374 0.0
C1719 C 0.67816 0.9217 0.76102 0.0
H1720 H 0.69503 0.91114 0.92927 0.0
C1721 C 0.65682 0.9108 0.77783 0.0
C1722 C 0.64933 0.90282 0.85325 0.0
H1723 H 0.68321 0.92835 0.70341 0.0
H1724 H 0.64612 0.90846 0.73123 0.0
C1725 C 0.66374 0.90326 0.90709 0.0
C1726 C 0.08543 0.76436 0.89953 0.0
C1727 C 0.08563 0.77217 0.82402 0.0
H1728 H 0.09467 0.74708 0.97375 0.0
C1729 C 0.09944 0.77169 0.76957 0.0
H1730 H 0.07718 0.76674 0.94644 0.0
C1731 C 0.11178 0.76299 0.78897 0.0
C1732 C 0.10932 0.75251 0.8604 0.0
H1733 H 0.10137 0.77883 0.71275 0.0
H1734 H 0.12287 0.76386 0.74642 0.0
C1735 C 0.09604 0.7536 0.91601 0.0
C1736 C 0.23729 0.32731 0.89255 0.0
C1737 C 0.23567 0.31676 0.82184 0.0
H1738 H 0.25168 0.3561 0.95562 0.0
C1739 C 0.24537 0.32896 0.75553 0.0
H1740 H 0.22897 0.31877 0.94386 0.0
C1741 C 0.25648 0.35069 0.76063 0.0
C1742 C 0.26046 0.361 0.83343 0.0
H1743 H 0.24356 0.32173 0.69879 0.0
H1744 H 0.26204 0.35946 0.7072 0.0
C1745 C 0.25027 0.34884 0.89923 0.0
C1746 C 0.92296 0.6783 0.25073 0.0
C1747 C 0.92396 0.69239 0.19411 0.0
H1748 H 0.91011 0.64649 0.28265 0.0
C1749 C 0.91359 0.68399 0.12252 0.0
H1750 H 0.9294 0.68371 0.30855 0.0
C1751 C 0.90514 0.66291 0.10409 0.0
C1752 C 0.9048 0.6489 0.15953 0.0
H1753 H 0.91264 0.69395 0.07902 0.0
H1754 H 0.89811 0.65743 0.0471 0.0
C1755 C 0.91244 0.65688 0.23507 0.0
C1756 C 0.3503 0.24295 0.2348 0.0
C1757 C 0.35738 0.25328 0.16245 0.0
H1758 H 0.3251 0.22719 0.31566 0.0
C1759 C 0.34224 0.25187 0.10999 0.0
H1760 H 0.36106 0.24214 0.2748 0.0
C1761 C 0.32111 0.241 0.13037 0.0
C1762 C 0.31447 0.23338 0.20696 0.0
H1763 H 0.3466 0.25821 0.05159 0.0
H1764 H 0.30988 0.23847 0.08569 0.0
C1765 C 0.32953 0.23419 0.25827 0.0
C1766 C 0.75457 0.09458 0.09109 0.0
C1767 C 0.75362 0.10814 0.14586 0.0
H1768 H 0.76739 0.07533 0.06268 0.0
C1769 C 0.76392 0.11064 0.21795 0.0
H1770 H 0.74816 0.09314 0.03296 0.0
C1771 C 0.77235 0.09815 0.23864 0.0
C1772 C 0.77269 0.08407 0.18502 0.0
H1773 H 0.76487 0.12189 0.26002 0.0
H1774 H 0.77938 0.10015 0.29585 0.0
C1775 C 0.76504 0.08377 0.10897 0.0
C1776 C 0.02672 0.4489 0.52877 0.0
C1777 C 0.03365 0.44618 0.4548 0.0
H1778 H 1.00184 0.43874 0.61195 0.0
C1779 C 0.01819 0.43328 0.40142 0.0
H1780 H 0.03757 0.46008 0.56962 0.0
C1781 C 0.99705 0.4232 0.42275 0.0
C1782 C 0.99063 0.42319 0.501 0.0
H1783 H 0.0223 0.43185 0.34183 0.0
H1784 H 0.98568 0.41512 0.37769 0.0
C1785 C 1.00598 0.4368 0.553 0.0
C1786 C 0.58216 0.55896 0.45592 0.0
C1787 C 0.58815 0.55866 0.5347 0.0
H1788 H 0.57038 0.57166 0.3697 0.0
C1789 C 0.58183 0.5685 0.58954 0.0
H1790 H 0.58471 0.55007 0.412 0.0
C1791 C 0.57087 0.57859 0.56586 0.0
C1792 C 0.56813 0.5819 0.48585 0.0
H1793 H 0.58442 0.56752 0.65148 0.0
H1794 H 0.56469 0.58409 0.61095 0.0
C1795 C 0.57358 0.57125 0.43141 0.0
C1796 C 0.43719 0.01706 0.42819 0.0
C1797 C 0.4429 0.0274 0.50122 0.0
H1798 H 0.42062 0.98821 0.36575 0.0
C1799 C 0.43876 0.01492 0.56809 0.0
H1800 H 0.44168 0.02586 0.37454 0.0
C1801 C 0.42889 0.99319 0.56201 0.0
C1802 C 0.42069 0.98282 0.49024 0.0
H1803 H 0.44391 0.02201 0.6252 0.0
H1804 H 0.42727 0.98442 0.6144 0.0
C1805 C 0.42534 0.9953 0.42305 0.0
C1806 C 0.57845 0.0124 0.56919 0.0
C1807 C 0.59194 0.02615 0.51279 0.0
H1808 H 0.55497 0.9815 0.59616 0.0
C1809 C 0.59138 0.0179 0.43764 0.0
H1810 H 0.57712 0.01812 0.62598 0.0
C1811 C 0.58037 0.99645 0.42316 0.0
C1812 C 0.56744 0.98261 0.48068 0.0
H1813 H 0.59933 0.02809 0.38948 0.0
H1814 H 0.58121 0.99079 0.36558 0.0
C1815 C 0.56572 0.99128 0.55198 0.0
C1816 C 0.99241 0.56406 0.45519 0.0
C1817 C 0.98435 0.56616 0.52729 0.0
H1818 H 0.01858 0.57511 0.37833 0.0
C1819 C 0.99861 0.57958 0.58303 0.0
H1820 H 0.98229 0.55299 0.41226 0.0
C1821 C 0.01991 0.59066 0.56605 0.0
C1822 C 0.02749 0.59076 0.49012 0.0
H1823 H 0.99344 0.58072 0.64113 0.0
H1824 H 0.03052 0.59895 0.61296 0.0
C1825 C 0.01332 0.5768 0.43555 0.0
C1826 C 0.4217 0.42553 0.40596 0.0
C1827 C 0.42108 0.43994 0.45726 0.0
H1828 H 0.43386 0.40537 0.38401 0.0
C1829 C 0.43136 0.4431 0.5299 0.0
H1830 H 0.41536 0.42352 0.34744 0.0
C1831 C 0.43936 0.43053 0.55467 0.0
C1832 C 0.4393 0.41557 0.50477 0.0
H1833 H 0.4326 0.45496 0.56939 0.0
H1834 H 0.44635 0.43308 0.61223 0.0
C1835 C 0.43176 0.41454 0.42786 0.0
C1836 C 0.2375 0.10979 0.29861 0.0
C1837 C 0.2544 0.1088 0.3285 0.0
H1838 H 0.22414 0.12848 0.27427 0.0
C1839 C 0.27017 0.1263 0.36586 0.0
H1840 H 0.22503 0.09663 0.26975 0.0
C1841 C 0.2697 0.14473 0.3683 0.0
C1842 C 0.25341 0.14603 0.33356 0.0
H1843 H 0.28345 0.1261 0.38938 0.0
H1844 H 0.28259 0.1582 0.39368 0.0
C1845 C 0.23701 0.12813 0.30118 0.0
C1846 C 0.8773 0.10888 0.31139 0.0
C1847 C 0.85912 0.10883 0.33086 0.0
H1848 H 0.90989 0.12634 0.29942 0.0
C1849 C 0.86063 0.12672 0.36357 0.0
H1850 H 0.87677 0.09533 0.28686 0.0
C1851 C 0.87984 0.14468 0.37098 0.0
C1852 C 0.89785 0.14504 0.34594 0.0
H1853 H 0.84693 0.12719 0.37923 0.0
H1854 H 0.88041 0.15857 0.39169 0.0
C1855 C 0.89637 0.1267 0.3189 0.0
C1856 C 0.88227 0.73765 0.3526 0.0
C1857 C 0.90102 0.75542 0.33563 0.0
H1858 H 0.84933 0.72351 0.3534 0.0
C1859 C 0.90083 0.77364 0.31954 0.0
H1860 H 0.88185 0.72331 0.36425 0.0
C1861 C 0.88235 0.7737 0.31241 0.0
C1862 C 0.86349 0.75558 0.3218 0.0
H1863 H 0.91497 0.78762 0.30646 0.0
H1864 H 0.88285 0.78775 0.29464 0.0
C1865 C 0.86362 0.73775 0.34593 0.0
C1866 C 0.11199 0.2367 0.71064 0.0
C1867 C 0.11165 0.25491 0.6965 0.0
H1868 H 0.13017 0.22238 0.72553 0.0
C1869 C 0.13 0.27238 0.67308 0.0
H1870 H 0.09816 0.22292 0.72822 0.0
C1871 C 0.14861 0.27206 0.67151 0.0
C1872 C 0.1491 0.25427 0.69326 0.0
H1873 H 0.1303 0.28669 0.6623 0.0
H1874 H 0.16275 0.28616 0.65978 0.0
C1875 C 0.13041 0.23638 0.70898 0.0
C1876 C 0.77733 0.88628 0.65913 0.0
C1877 C 0.75974 0.86716 0.64605 0.0
H1878 H 0.78961 0.91836 0.67844 0.0
C1879 C 0.7412 0.86659 0.62773 0.0
H1880 H 0.79187 0.88729 0.67275 0.0
C1881 C 0.73988 0.8846 0.63109 0.0
C1882 C 0.75709 0.90336 0.65264 0.0
H1883 H 0.72735 0.85207 0.61776 0.0
H1884 H 0.72505 0.88349 0.62404 0.0
C1885 C 0.77602 0.90413 0.66225 0.0
C1886 C 0.14997 0.87875 0.66559 0.0
C1887 C 0.15173 0.89666 0.69952 0.0
H1888 H 0.13039 0.84658 0.64181 0.0
C1889 C 0.13385 0.89597 0.7278 0.0
H1890 H 0.16342 0.87868 0.64348 0.0
C1891 C 0.115 0.87766 0.72674 0.0
C1892 C 0.11341 0.85941 0.69752 0.0
H1893 H 0.13454 0.90942 0.75404 0.0
H1894 H 0.1018 0.87764 0.75215 0.0
C1895 C 0.13101 0.86032 0.66465 0.0
C1896 C 0.94319 0.4619 0.68504 0.0
C1897 C 0.9266 0.44352 0.6559 0.0
H1898 H 0.95545 0.49418 0.70677 0.0
C1899 C 0.90831 0.44335 0.63743 0.0
H1900 H 0.95754 0.46263 0.69977 0.0
C1901 C 0.90707 0.46128 0.64219 0.0
C1902 C 0.9241 0.48006 0.66519 0.0
H1903 H 0.89515 0.42951 0.61551 0.0
H1904 H 0.89302 0.46064 0.62324 0.0
C1905 C 0.94197 0.48001 0.68951 0.0
C1906 C 0.54194 0.43773 0.64952 0.0
C1907 C 0.52398 0.43849 0.66506 0.0
H1908 H 0.5746 0.45432 0.63914 0.0
C1909 C 0.52591 0.45692 0.69371 0.0
H1910 H 0.54108 0.42374 0.62831 0.0
C1911 C 0.54535 0.47463 0.70025 0.0
C1912 C 0.56315 0.47416 0.67828 0.0
H1913 H 0.51238 0.45801 0.70631 0.0
H1914 H 0.54628 0.48895 0.71715 0.0
C1915 C 0.56123 0.4553 0.65606 0.0
C1916 C 0.56562 0.10489 0.61792 0.0
C1917 C 0.56572 0.08691 0.63934 0.0
H1918 H 0.54783 0.11918 0.59332 0.0
C1919 C 0.54709 0.0698 0.66275 0.0
H1920 H 0.57966 0.11843 0.60019 0.0
C1921 C 0.5286 0.07026 0.65891 0.0
C1922 C 0.52845 0.08783 0.63149 0.0
H1923 H 0.5466 0.05569 0.67928 0.0
H1924 H 0.51434 0.05648 0.67255 0.0
C1925 C 0.5473 0.10533 0.61399 0.0
C1926 C 0.79753 0.60408 1.00307 0.0
C1927 C 0.77977 0.58656 0.0302 0.0
H1928 H 0.83018 0.61873 0.98531 0.0
C1929 C 0.78113 0.56916 0.04974 0.0
H1930 H 0.79704 0.6178 0.98805 0.0
C1931 C 0.79996 0.56969 0.04827 0.0
C1932 C 0.81805 0.58766 0.02728 0.0
H1933 H 0.76777 0.55536 0.07038 0.0
H1934 H 0.80047 0.55626 0.06763 0.0
C1935 C 0.81653 0.60463 1.00164 0.0
C1936 C 0.40221 0.19514 0.95892 0.0
C1937 C 0.42087 0.19546 0.97183 0.0
H1938 H 0.38637 0.21238 0.96186 0.0
C1939 C 0.43872 0.21452 0.98278 0.0
H1940 H 0.38813 0.18068 0.95108 0.0
C1941 C 0.43771 0.23251 0.9889 0.0
C1942 C 0.41882 0.23203 0.9842 0.0
H1943 H 0.45336 0.21538 0.99255 0.0
H1944 H 0.4516 0.24666 1.00321 0.0
C1945 C 0.40119 0.21332 0.96506 0.0
C1946 C 0.77824 0.21217 0.0163 0.0
C1947 C 0.77721 0.1935 0.99663 0.0
H1948 H 0.79728 0.24425 0.03929 0.0
C1949 C 0.79531 0.19401 0.97199 0.0
H1950 H 0.76463 0.21244 0.03517 0.0
C1951 C 0.81425 0.21252 0.97401 0.0
C1952 C 0.81539 0.23079 1.0011 0.0
H1953 H 0.79512 0.17992 0.95717 0.0
H1954 H 0.82812 0.21218 0.96021 0.0
C1955 C 0.79703 0.23049 0.01883 0.0
C1956 C 0.60677 0.79588 0.01439 0.0
C1957 C 0.59039 0.77791 0.98196 0.0
H1958 H 0.61973 0.82821 0.0359 0.0
C1959 C 0.57315 0.77867 0.9546 0.0
H1960 H 0.62035 0.7959 0.03563 0.0
C1961 C 0.57281 0.7971 0.95467 0.0
C1962 C 0.58971 0.8154 0.98204 0.0
H1963 H 0.56021 0.76518 0.92948 0.0
H1964 H 0.55959 0.79716 0.92981 0.0
C1965 C 0.60644 0.81443 0.01441 0.0
C1966 C 0.2116 0.77228 0.01413 0.0
C1967 C 0.19334 0.77288 0.02308 0.0
H1968 H 0.24428 0.78931 1.00498 0.0
C1969 C 0.19468 0.79157 0.04459 0.0
H1970 H 0.21113 0.75811 0.99803 0.0
C1971 C 0.21393 0.80967 0.04868 0.0
C1972 C 0.23203 0.80927 0.03123 0.0
H1973 H 0.18089 0.79257 0.05118 0.0
H1974 H 0.21445 0.82415 0.05848 0.0
C1975 C 0.23066 0.7902 0.0181 0.0
C1976 C 0.19897 0.40497 0.98314 0.0
C1977 C 0.19885 0.42297 0.96173 0.0
H1978 H 0.21694 0.39002 0.99412 0.0
C1979 C 0.21768 0.44075 0.94685 0.0
H1980 H 0.1847 0.39098 0.9945 0.0
C1981 C 0.23596 0.4402 0.94664 0.0
C1982 C 0.236 0.42186 0.96124 0.0
H1983 H 0.2182 0.45491 0.93084 0.0
H1984 H 0.24997 0.45398 0.93055 0.0
C1985 C 0.21744 0.40442 0.98288 0.0
C1986 C 0.44468 0.90298 0.36178 0.0
C1987 C 0.44427 0.92129 0.35195 0.0
H1988 H 0.4629 0.88853 0.36928 0.0
C1989 C 0.46247 0.93896 0.32883 0.0
H1990 H 0.43095 0.88904 0.37891 0.0
C1991 C 0.48106 0.93868 0.32332 0.0
C1992 C 0.48167 0.92069 0.34055 0.0
H1993 H 0.46271 0.95335 0.32123 0.0
H1994 H 0.49514 0.95288 0.31218 0.0
C1995 C 0.46305 0.90267 0.35596 0.0
C1996 C 0.07145 0.54828 0.30737 0.0
C1997 C 0.08842 0.5667 0.33368 0.0
H1998 H 0.05937 0.51616 0.28325 0.0
C1999 C 0.10736 0.56749 0.3424 0.0
H2000 H 0.05664 0.54719 0.30002 0.0
C2001 C 0.10898 0.54995 0.33171 0.0
C2002 C 0.09167 0.53103 0.31266 0.0
H2003 H 0.12081 0.58148 0.3615 0.0
H2004 H 0.12358 0.55094 0.34377 0.0
C2005 C 0.07304 0.53053 0.29716 0.0
C2006 C 0.48481 0.54562 0.29628 0.0
C2007 C 0.48556 0.56366 0.3239 0.0
H2008 H 0.46597 0.51319 0.27467 0.0
C2009 C 0.46698 0.56328 0.33759 0.0
H2010 H 0.49887 0.54538 0.28532 0.0
C2011 C 0.44826 0.54503 0.33034 0.0
C2012 C 0.44751 0.52651 0.31011 0.0
H2013 H 0.46694 0.57689 0.35817 0.0
H2014 H 0.43438 0.54517 0.34605 0.0
C2015 C 0.46594 0.52716 0.2897 0.0
loop_
_geom_bond_atom_site_label_1
_geom_bond_atom_site_label_2
_geom_bond_distance
_geom_bond_site_symmetry_2
_ccdc_geom_bond_type
Mn0 O5 2.095 . S
Mn0 O15 2.162 . S
Mn0 O16 2.297 . S
Mn0 O24 2.385 . S
Mn0 O25 2.209 . S
Mn0 O26 2.094 . S
Mn1 O6 2.121 . S
Mn1 N8 2.257 . S
Mn1 N17 2.282 . S
Mn1 O25 2.215 . S
Mn1 O27 2.117 . S
C2 O24 1.234 . S
C2 O25 1.283 . S
C3 O15 1.281 . S
C3 O16 1.236 . S
C4 O26 1.240 . S
C4 O27 1.264 . S
O5 Mn0 2.095 . S
O5 C14 1.250 . S
O6 Mn1 2.121 . S
O6 C14 1.258 . S
C7 N8 1.326 . S
C7 C11 1.460 . S
C7 H13 0.929 . S
N8 Mn1 2.257 . S
N8 C7 1.326 . S
N8 C12 1.362 . S
C9 C10 1.258 . S
C9 C12 1.431 . S
C9 C29 1.449 . S
C10 C9 1.258 . S
C10 C11 1.477 . S
C10 H30 0.931 . S
C11 C7 1.460 . S
C11 C10 1.477 . S
C11 H31 0.930 . S
C12 N8 1.362 . S
C12 C9 1.431 . S
C12 C22 1.476 . S
H13 C7 0.929 . S
C14 O5 1.250 . S
C14 O6 1.258 . S
O15 Mn0 2.162 . S
O15 C3 1.281 . S
O16 Mn0 2.297 . S
O16 C3 1.236 . S
N17 Mn1 2.282 . S
N17 C18 1.328 . S
N17 C22 1.318 . S
C18 N17 1.328 . S
C18 C19 1.457 . S
C18 H23 0.929 . S
C19 C18 1.457 . S
C19 C20 1.291 . S
C19 H32 0.931 1_554 S
C20 C19 1.291 . S
C20 C21 1.373 . S
C20 H33 0.929 . S
C21 C20 1.373 . S
C21 C22 1.396 . S
C21 C28 1.403 . S
C22 C12 1.476 . S
C22 N17 1.318 . S
C22 C21 1.396 . S
H23 C18 0.929 . S
O24 Mn0 2.385 . S
O24 C2 1.234 . S
O25 Mn0 2.209 . S
O25 Mn1 2.215 . S
O25 C2 1.283 . S
O26 Mn0 2.094 . S
O26 C4 1.240 . S
O27 Mn1 2.117 . S
O27 C4 1.264 . S
C28 C21 1.403 . S
C28 C29 1.399 . S
C28 H34 0.929 . S
C29 C9 1.449 . S
C29 C28 1.399 . S
C29 H35 0.930 . S
H30 C10 0.931 . S
H31 C11 0.930 . S
H32 C19 0.931 1_556 S
H33 C20 0.929 . S
H34 C28 0.929 . S
H35 C29 0.930 . S
Mn36 O41 2.095 . S
Mn36 O51 2.162 . S
Mn36 O52 2.297 . S
Mn36 O60 2.385 . S
Mn36 O61 2.209 . S
Mn36 O62 2.094 . S
Mn37 O42 2.121 . S
Mn37 N44 2.257 . S
Mn37 N53 2.282 . S
Mn37 O61 2.215 . S
Mn37 O63 2.117 . S
C38 O60 1.234 . S
C38 O61 1.283 . S
C39 O51 1.281 . S
C39 O52 1.236 . S
C40 O62 1.240 . S
C40 O63 1.264 . S
O41 Mn36 2.095 . S
O41 C50 1.250 . S
O42 Mn37 2.121 . S
O42 C50 1.258 . S
C43 N44 1.326 . S
C43 C47 1.460 . S
C43 H49 0.929 . S
N44 Mn37 2.257 . S
N44 C43 1.326 . S
N44 C48 1.362 . S
C45 C46 1.258 . S
C45 C48 1.431 . S
C45 C65 1.449 . S
C46 C45 1.258 . S
C46 C47 1.477 . S
C46 H66 0.931 . S
C47 C43 1.460 . S
C47 C46 1.477 . S
C47 H67 0.930 . S
C48 N44 1.362 . S
C48 C45 1.431 . S
C48 C58 1.476 . S
H49 C43 0.929 . S
C50 O41 1.250 . S
C50 O42 1.258 . S
O51 Mn36 2.162 . S
O51 C39 1.281 . S
O52 Mn36 2.297 . S
O52 C39 1.236 . S
N53 Mn37 2.282 . S
N53 C54 1.328 . S
N53 C58 1.318 . S
C54 N53 1.328 . S
C54 C55 1.457 . S
C54 H59 0.929 . S
C55 C54 1.457 . S
C55 C56 1.291 . S
C55 H68 0.931 1_554 S
C56 C55 1.291 . S
C56 C57 1.373 . S
C56 H69 0.929 . S
C57 C56 1.373 . S
C57 C58 1.396 . S
C57 C64 1.403 . S
C58 C48 1.476 . S
C58 N53 1.318 . S
C58 C57 1.396 . S
H59 C54 0.929 . S
O60 Mn36 2.385 . S
O60 C38 1.234 . S
O61 Mn36 2.209 . S
O61 Mn37 2.215 . S
O61 C38 1.283 . S
O62 Mn36 2.094 . S
O62 C40 1.240 . S
O63 Mn37 2.117 . S
O63 C40 1.264 . S
C64 C57 1.403 . S
C64 C65 1.399 . S
C64 H70 0.929 . S
C65 C45 1.449 . S
C65 C64 1.399 . S
C65 H71 0.930 . S
H66 C46 0.931 . S
H67 C47 0.930 . S
H68 C55 0.931 1_556 S
H69 C56 0.929 . S
H70 C64 0.929 . S
H71 C65 0.930 . S
Mn72 O77 2.095 . S
Mn72 O87 2.162 . S
Mn72 O88 2.297 . S
Mn72 O96 2.385 . S
Mn72 O97 2.209 . S
Mn72 O98 2.094 . S
Mn73 O78 2.121 . S
Mn73 N80 2.257 . S
Mn73 N89 2.282 . S
Mn73 O97 2.215 . S
Mn73 O99 2.117 . S
C74 O96 1.234 . S
C74 O97 1.283 . S
C75 O87 1.281 . S
C75 O88 1.236 . S
C76 O98 1.240 . S
C76 O99 1.264 . S
O77 Mn72 2.095 . S
O77 C86 1.250 . S
O78 Mn73 2.121 . S
O78 C86 1.258 . S
C79 N80 1.326 . S
C79 C83 1.460 . S
C79 H85 0.929 . S
N80 Mn73 2.257 . S
N80 C79 1.326 . S
N80 C84 1.362 . S
C81 C82 1.258 . S
C81 C84 1.431 . S
C81 C101 1.449 . S
C82 C81 1.258 . S
C82 C83 1.477 . S
C82 H102 0.931 . S
C83 C79 1.460 . S
C83 C82 1.477 . S
C83 H103 0.930 . S
C84 N80 1.362 . S
C84 C81 1.431 . S
C84 C94 1.476 . S
H85 C79 0.929 . S
C86 O77 1.250 . S
C86 O78 1.258 . S
O87 Mn72 2.162 . S
O87 C75 1.281 . S
O88 Mn72 2.297 . S
O88 C75 1.236 . S
N89 Mn73 2.282 . S
N89 C90 1.328 . S
N89 C94 1.318 . S
C90 N89 1.328 . S
C90 C91 1.457 . S
C90 H95 0.929 . S
C91 C90 1.457 . S
C91 C92 1.291 . S
C91 H104 0.931 1_554 S
C92 C91 1.291 . S
C92 C93 1.373 . S
C92 H105 0.929 . S
C93 C92 1.373 . S
C93 C94 1.396 . S
C93 C100 1.403 . S
C94 C84 1.476 . S
C94 N89 1.318 . S
C94 C93 1.396 . S
H95 C90 0.929 . S
O96 Mn72 2.385 . S
O96 C74 1.234 . S
O97 Mn72 2.209 . S
O97 Mn73 2.215 . S
O97 C74 1.283 . S
O98 Mn72 2.094 . S
O98 C76 1.240 . S
O99 Mn73 2.117 . S
O99 C76 1.264 . S
C100 C93 1.403 . S
C100 C101 1.399 . S
C100 H106 0.929 . S
C101 C81 1.449 . S
C101 C100 1.399 . S
C101 H107 0.930 . S
H102 C82 0.931 . S
H103 C83 0.930 . S
H104 C91 0.931 1_556 S
H105 C92 0.929 . S
H106 C100 0.929 . S
H107 C101 0.930 . S
Mn108 O113 2.095 . S
Mn108 O123 2.162 . S
Mn108 O124 2.297 . S
Mn108 O132 2.385 . S
Mn108 O133 2.209 . S
Mn108 O134 2.094 . S
Mn109 O114 2.121 . S
Mn109 N116 2.257 . S
Mn109 N125 2.282 . S
Mn109 O133 2.215 . S
Mn109 O135 2.117 . S
C110 O132 1.234 . S
C110 O133 1.283 . S
C111 O123 1.281 . S
C111 O124 1.236 . S
C112 O134 1.240 . S
C112 O135 1.264 . S
O113 Mn108 2.095 . S
O113 C122 1.250 . S
O114 Mn109 2.121 . S
O114 C122 1.258 . S
C115 N116 1.326 . S
C115 C119 1.460 . S
C115 H121 0.929 . S
N116 Mn109 2.257 . S
N116 C115 1.326 . S
N116 C120 1.362 . S
C117 C118 1.258 . S
C117 C120 1.431 . S
C117 C137 1.449 . S
C118 C117 1.258 . S
C118 C119 1.477 . S
C118 H138 0.931 . S
C119 C115 1.460 . S
C119 C118 1.477 . S
C119 H139 0.930 . S
C120 N116 1.362 . S
C120 C117 1.431 . S
C120 C130 1.476 . S
H121 C115 0.929 . S
C122 O113 1.250 . S
C122 O114 1.258 . S
O123 Mn108 2.162 . S
O123 C111 1.281 . S
O124 Mn108 2.297 . S
O124 C111 1.236 . S
N125 Mn109 2.282 . S
N125 C126 1.328 . S
N125 C130 1.318 . S
C126 N125 1.328 . S
C126 C127 1.457 . S
C126 H131 0.929 . S
C127 C126 1.457 . S
C127 C128 1.291 . S
C127 H140 0.931 1_556 S
C128 C127 1.291 . S
C128 C129 1.373 . S
C128 H141 0.929 . S
C129 C128 1.373 . S
C129 C130 1.396 . S
C129 C136 1.403 . S
C130 C120 1.476 . S
C130 N125 1.318 . S
C130 C129 1.396 . S
H131 C126 0.929 . S
O132 Mn108 2.385 . S
O132 C110 1.234 . S
O133 Mn108 2.209 . S
O133 Mn109 2.215 . S
O133 C110 1.283 . S
O134 Mn108 2.094 . S
O134 C112 1.240 . S
O135 Mn109 2.117 . S
O135 C112 1.264 . S
C136 C129 1.403 . S
C136 C137 1.399 . S
C136 H142 0.929 . S
C137 C117 1.449 . S
C137 C136 1.399 . S
C137 H143 0.930 . S
H138 C118 0.931 . S
H139 C119 0.930 . S
H140 C127 0.931 1_554 S
H141 C128 0.929 . S
H142 C136 0.929 . S
H143 C137 0.930 . S
Mn144 O149 2.095 . S
Mn144 O159 2.162 . S
Mn144 O160 2.297 . S
Mn144 O168 2.385 . S
Mn144 O169 2.209 . S
Mn144 O170 2.094 . S
Mn145 O150 2.121 . S
Mn145 N152 2.257 . S
Mn145 N161 2.282 . S
Mn145 O169 2.215 . S
Mn145 O171 2.117 . S
C146 O168 1.234 . S
C146 O169 1.283 . S
C147 O159 1.281 . S
C147 O160 1.236 . S
C148 O170 1.240 . S
C148 O171 1.264 . S
O149 Mn144 2.095 . S
O149 C158 1.250 . S
O150 Mn145 2.121 . S
O150 C158 1.258 . S
C151 N152 1.326 . S
C151 C155 1.460 . S
C151 H157 0.929 . S
N152 Mn145 2.257 . S
N152 C151 1.326 . S
N152 C156 1.362 . S
C153 C154 1.258 . S
C153 C156 1.431 . S
C153 C173 1.449 . S
C154 C153 1.258 . S
C154 C155 1.477 . S
C154 H174 0.931 . S
C155 C151 1.460 . S
C155 C154 1.477 . S
C155 H175 0.930 . S
C156 N152 1.362 . S
C156 C153 1.431 . S
C156 C166 1.476 . S
H157 C151 0.929 . S
C158 O149 1.250 . S
C158 O150 1.258 . S
O159 Mn144 2.162 . S
O159 C147 1.281 . S
O160 Mn144 2.297 . S
O160 C147 1.236 . S
N161 Mn145 2.282 . S
N161 C162 1.328 . S
N161 C166 1.318 . S
C162 N161 1.328 . S
C162 C163 1.457 . S
C162 H167 0.929 . S
C163 C162 1.457 . S
C163 C164 1.291 . S
C163 H176 0.931 1_556 S
C164 C163 1.291 . S
C164 C165 1.373 . S
C164 H177 0.929 . S
C165 C164 1.373 . S
C165 C166 1.396 . S
C165 C172 1.403 . S
C166 C156 1.476 . S
C166 N161 1.318 . S
C166 C165 1.396 . S
H167 C162 0.929 . S
O168 Mn144 2.385 . S
O168 C146 1.234 . S
O169 Mn144 2.209 . S
O169 Mn145 2.215 . S
O169 C146 1.283 . S
O170 Mn144 2.094 . S
O170 C148 1.240 . S
O171 Mn145 2.117 . S
O171 C148 1.264 . S
C172 C165 1.403 . S
C172 C173 1.399 . S
C172 H178 0.929 . S
C173 C153 1.449 . S
C173 C172 1.399 . S
C173 H179 0.930 . S
H174 C154 0.931 . S
H175 C155 0.930 . S
H176 C163 0.931 1_554 S
H177 C164 0.929 . S
H178 C172 0.929 . S
H179 C173 0.930 . S
Mn180 O185 2.095 . S
Mn180 O195 2.162 . S
Mn180 O196 2.297 . S
Mn180 O204 2.385 . S
Mn180 O205 2.209 . S
Mn180 O206 2.094 . S
Mn181 O186 2.121 . S
Mn181 N188 2.257 . S
Mn181 N197 2.282 . S
Mn181 O205 2.215 . S
Mn181 O207 2.117 . S
C182 O204 1.234 . S
C182 O205 1.283 . S
C183 O195 1.281 . S
C183 O196 1.236 . S
C184 O206 1.240 . S
C184 O207 1.264 . S
O185 Mn180 2.095 . S
O185 C194 1.250 . S
O186 Mn181 2.121 . S
O186 C194 1.258 . S
C187 N188 1.326 . S
C187 C191 1.460 . S
C187 H193 0.929 . S
N188 Mn181 2.257 . S
N188 C187 1.326 . S
N188 C192 1.362 . S
C189 C190 1.258 . S
C189 C192 1.431 . S
C189 C209 1.449 . S
C190 C189 1.258 . S
C190 C191 1.477 . S
C190 H210 0.931 . S
C191 C187 1.460 . S
C191 C190 1.477 . S
C191 H211 0.930 . S
C192 N188 1.362 . S
C192 C189 1.431 . S
C192 C202 1.476 . S
H193 C187 0.929 . S
C194 O185 1.250 . S
C194 O186 1.258 . S
O195 Mn180 2.162 . S
O195 C183 1.281 . S
O196 Mn180 2.297 . S
O196 C183 1.236 . S
N197 Mn181 2.282 . S
N197 C198 1.328 . S
N197 C202 1.318 . S
C198 N197 1.328 . S
C198 C199 1.457 . S
C198 H203 0.929 . S
C199 C198 1.457 . S
C199 C200 1.291 . S
C199 H212 0.931 1_556 S
C200 C199 1.291 . S
C200 C201 1.373 . S
C200 H213 0.929 . S
C201 C200 1.373 . S
C201 C202 1.396 . S
C201 C208 1.403 . S
C202 C192 1.476 . S
C202 N197 1.318 . S
C202 C201 1.396 . S
H203 C198 0.929 . S
O204 Mn180 2.385 . S
O204 C182 1.234 . S
O205 Mn180 2.209 . S
O205 Mn181 2.215 . S
O205 C182 1.283 . S
O206 Mn180 2.094 . S
O206 C184 1.240 . S
O207 Mn181 2.117 . S
O207 C184 1.264 . S
C208 C201 1.403 . S
C208 C209 1.399 . S
C208 H214 0.929 . S
C209 C189 1.449 . S
C209 C208 1.399 . S
C209 H215 0.930 . S
H210 C190 0.931 . S
H211 C191 0.930 . S
H212 C199 0.931 1_554 S
H213 C200 0.929 . S
H214 C208 0.929 . S
H215 C209 0.930 . S
Mn216 O221 2.095 . S
Mn216 O231 2.162 . S
Mn216 O232 2.297 . S
Mn216 O240 2.385 . S
Mn216 O241 2.209 . S
Mn216 O242 2.094 . S
Mn217 O222 2.121 . S
Mn217 N224 2.257 . S
Mn217 N233 2.282 . S
Mn217 O241 2.215 . S
Mn217 O243 2.117 . S
C218 O240 1.234 . S
C218 O241 1.283 . S
C219 O231 1.281 . S
C219 O232 1.236 . S
C220 O242 1.240 . S
C220 O243 1.264 . S
O221 Mn216 2.095 . S
O221 C230 1.250 . S
O222 Mn217 2.121 . S
O222 C230 1.258 . S
C223 N224 1.326 . S
C223 C227 1.460 . S
C223 H229 0.929 . S
N224 Mn217 2.257 . S
N224 C223 1.326 . S
N224 C228 1.362 . S
C225 C226 1.258 . S
C225 C228 1.431 . S
C225 C245 1.449 . S
C226 C225 1.258 . S
C226 C227 1.477 . S
C226 H246 0.931 . S
C227 C223 1.460 . S
C227 C226 1.477 . S
C227 H247 0.930 . S
C228 N224 1.362 . S
C228 C225 1.431 . S
C228 C238 1.476 . S
H229 C223 0.929 . S
C230 O221 1.250 . S
C230 O222 1.258 . S
O231 Mn216 2.162 . S
O231 C219 1.281 . S
O232 Mn216 2.297 . S
O232 C219 1.236 . S
N233 Mn217 2.282 . S
N233 C234 1.328 . S
N233 C238 1.318 . S
C234 N233 1.328 . S
C234 C235 1.457 . S
C234 H239 0.929 . S
C235 C234 1.457 . S
C235 C236 1.291 . S
C235 H248 0.931 1_556 S
C236 C235 1.291 . S
C236 C237 1.373 . S
C236 H249 0.929 . S
C237 C236 1.373 . S
C237 C238 1.396 . S
C237 C244 1.403 . S
C238 C228 1.476 . S
C238 N233 1.318 . S
C238 C237 1.396 . S
H239 C234 0.929 . S
O240 Mn216 2.385 . S
O240 C218 1.234 . S
O241 Mn216 2.209 . S
O241 Mn217 2.215 . S
O241 C218 1.283 . S
O242 Mn216 2.094 . S
O242 C220 1.240 . S
O243 Mn217 2.117 . S
O243 C220 1.264 . S
C244 C237 1.403 . S
C244 C245 1.399 . S
C244 H250 0.929 . S
C245 C225 1.449 . S
C245 C244 1.399 . S
C245 H251 0.930 . S
H246 C226 0.931 . S
H247 C227 0.930 . S
H248 C235 0.931 1_554 S
H249 C236 0.929 . S
H250 C244 0.929 . S
H251 C245 0.930 . S
Mn252 O257 2.095 . S
Mn252 O267 2.162 . S
Mn252 O268 2.297 . S
Mn252 O276 2.385 . S
Mn252 O277 2.209 . S
Mn252 O278 2.094 . S
Mn253 O258 2.121 . S
Mn253 N260 2.257 . S
Mn253 N269 2.282 . S
Mn253 O277 2.215 . S
Mn253 O279 2.117 . S
C254 O276 1.234 . S
C254 O277 1.283 . S
C255 O267 1.281 . S
C255 O268 1.236 . S
C256 O278 1.240 . S
C256 O279 1.264 . S
O257 Mn252 2.095 . S
O257 C266 1.250 . S
O258 Mn253 2.121 . S
O258 C266 1.258 . S
C259 N260 1.326 . S
C259 C263 1.460 . S
C259 H265 0.929 . S
N260 Mn253 2.257 . S
N260 C259 1.326 . S
N260 C264 1.362 . S
C261 C262 1.258 . S
C261 C264 1.431 . S
C261 C281 1.449 . S
C262 C261 1.258 . S
C262 C263 1.477 . S
C262 H282 0.931 . S
C263 C259 1.460 . S
C263 C262 1.477 . S
C263 H283 0.930 . S
C264 N260 1.362 . S
C264 C261 1.431 . S
C264 C274 1.476 . S
H265 C259 0.929 . S
C266 O257 1.250 . S
C266 O258 1.258 . S
O267 Mn252 2.162 . S
O267 C255 1.281 . S
O268 Mn252 2.297 . S
O268 C255 1.236 . S
N269 Mn253 2.282 . S
N269 C270 1.328 . S
N269 C274 1.318 . S
C270 N269 1.328 . S
C270 C271 1.457 . S
C270 H275 0.929 . S
C271 C270 1.457 . S
C271 C272 1.291 . S
C271 H284 0.931 1_556 S
C272 C271 1.291 . S
C272 C273 1.373 . S
C272 H285 0.929 . S
C273 C272 1.373 . S
C273 C274 1.396 . S
C273 C280 1.403 . S
C274 C264 1.476 . S
C274 N269 1.318 . S
C274 C273 1.396 . S
H275 C270 0.929 . S
O276 Mn252 2.385 . S
O276 C254 1.234 . S
O277 Mn252 2.209 . S
O277 Mn253 2.215 . S
O277 C254 1.283 . S
O278 Mn252 2.094 . S
O278 C256 1.240 . S
O279 Mn253 2.117 . S
O279 C256 1.264 . S
C280 C273 1.403 . S
C280 C281 1.399 . S
C280 H286 0.929 . S
C281 C261 1.449 . S
C281 C280 1.399 . S
C281 H287 0.930 . S
H282 C262 0.931 . S
H283 C263 0.930 . S
H284 C271 0.931 1_554 S
H285 C272 0.929 . S
H286 C280 0.929 . S
H287 C281 0.930 . S
Mn288 O293 2.095 . S
Mn288 O303 2.162 . S
Mn288 O304 2.297 . S
Mn288 O312 2.385 . S
Mn288 O313 2.209 . S
Mn288 O314 2.094 . S
Mn289 O294 2.121 . S
Mn289 N296 2.257 . S
Mn289 N305 2.282 . S
Mn289 O313 2.215 . S
Mn289 O315 2.117 . S
C290 O312 1.234 . S
C290 O313 1.283 . S
C291 O303 1.281 . S
C291 O304 1.236 . S
C292 O314 1.240 . S
C292 O315 1.264 . S
O293 Mn288 2.095 . S
O293 C302 1.250 . S
O294 Mn289 2.121 . S
O294 C302 1.258 . S
C295 N296 1.326 . S
C295 C299 1.460 . S
C295 H301 0.929 . S
N296 Mn289 2.257 . S
N296 C295 1.326 . S
N296 C300 1.362 . S
C297 C298 1.258 . S
C297 C300 1.431 . S
C297 C317 1.449 . S
C298 C297 1.258 . S
C298 C299 1.477 . S
C298 H318 0.931 . S
C299 C295 1.460 . S
C299 C298 1.477 . S
C299 H319 0.930 . S
C300 N296 1.362 . S
C300 C297 1.431 . S
C300 C310 1.476 . S
H301 C295 0.929 . S
C302 O293 1.250 . S
C302 O294 1.258 . S
O303 Mn288 2.162 . S
O303 C291 1.281 . S
O304 Mn288 2.297 . S
O304 C291 1.236 . S
N305 Mn289 2.282 . S
N305 C306 1.328 . S
N305 C310 1.318 . S
C306 N305 1.328 . S
C306 C307 1.457 . S
C306 H311 0.929 . S
C307 C306 1.457 . S
C307 C308 1.291 . S
C307 H320 0.931 1_556 S
C308 C307 1.291 . S
C308 C309 1.373 . S
C308 H321 0.929 . S
C309 C308 1.373 . S
C309 C310 1.396 . S
C309 C316 1.403 . S
C310 C300 1.476 . S
C310 N305 1.318 . S
C310 C309 1.396 . S
H311 C306 0.929 . S
O312 Mn288 2.385 . S
O312 C290 1.234 . S
O313 Mn288 2.209 . S
O313 Mn289 2.215 . S
O313 C290 1.283 . S
O314 Mn288 2.094 . S
O314 C292 1.240 . S
O315 Mn289 2.117 . S
O315 C292 1.264 . S
C316 C309 1.403 . S
C316 C317 1.399 . S
C316 H322 0.929 . S
C317 C297 1.449 . S
C317 C316 1.399 . S
C317 H323 0.930 . S
H318 C298 0.931 . S
H319 C299 0.930 . S
H320 C307 0.931 1_554 S
H321 C308 0.929 . S
H322 C316 0.929 . S
H323 C317 0.930 . S
Mn324 O329 2.095 . S
Mn324 O339 2.162 . S
Mn324 O340 2.297 . S
Mn324 O348 2.385 . S
Mn324 O349 2.209 . S
Mn324 O350 2.094 . S
Mn325 O330 2.121 . S
Mn325 N332 2.257 . S
Mn325 N341 2.282 . S
Mn325 O349 2.215 . S
Mn325 O351 2.117 . S
C326 O348 1.234 . S
C326 O349 1.283 . S
C327 O339 1.281 . S
C327 O340 1.236 . S
C328 O350 1.240 . S
C328 O351 1.264 . S
O329 Mn324 2.095 . S
O329 C338 1.250 . S
O330 Mn325 2.121 . S
O330 C338 1.258 . S
C331 N332 1.326 . S
C331 C335 1.460 . S
C331 H337 0.929 . S
N332 Mn325 2.257 . S
N332 C331 1.326 . S
N332 C336 1.362 . S
C333 C334 1.258 . S
C333 C336 1.431 . S
C333 C353 1.449 . S
C334 C333 1.258 . S
C334 C335 1.477 . S
C334 H354 0.931 . S
C335 C331 1.460 . S
C335 C334 1.477 . S
C335 H355 0.930 . S
C336 N332 1.362 . S
C336 C333 1.431 . S
C336 C346 1.476 . S
H337 C331 0.929 . S
C338 O329 1.250 . S
C338 O330 1.258 . S
O339 Mn324 2.162 . S
O339 C327 1.281 . S
O340 Mn324 2.297 . S
O340 C327 1.236 . S
N341 Mn325 2.282 . S
N341 C342 1.328 . S
N341 C346 1.318 . S
C342 N341 1.328 . S
C342 C343 1.457 . S
C342 H347 0.929 . S
C343 C342 1.457 . S
C343 C344 1.291 . S
C343 H356 0.931 1_554 S
C344 C343 1.291 . S
C344 C345 1.373 . S
C344 H357 0.929 . S
C345 C344 1.373 . S
C345 C346 1.396 . S
C345 C352 1.403 . S
C346 C336 1.476 . S
C346 N341 1.318 . S
C346 C345 1.396 . S
H347 C342 0.929 . S
O348 Mn324 2.385 . S
O348 C326 1.234 . S
O349 Mn324 2.209 . S
O349 Mn325 2.215 . S
O349 C326 1.283 . S
O350 Mn324 2.094 . S
O350 C328 1.240 . S
O351 Mn325 2.117 . S
O351 C328 1.264 . S
C352 C345 1.403 . S
C352 C353 1.399 . S
C352 H358 0.929 . S
C353 C333 1.449 . S
C353 C352 1.399 . S
C353 H359 0.930 . S
H354 C334 0.931 . S
H355 C335 0.930 . S
H356 C343 0.931 1_556 S
H357 C344 0.929 . S
H358 C352 0.929 . S
H359 C353 0.930 . S
Mn360 O365 2.095 . S
Mn360 O375 2.162 . S
Mn360 O376 2.297 . S
Mn360 O384 2.385 . S
Mn360 O385 2.209 . S
Mn360 O386 2.094 . S
Mn361 O366 2.121 . S
Mn361 N368 2.257 . S
Mn361 N377 2.282 . S
Mn361 O385 2.215 . S
Mn361 O387 2.117 . S
C362 O384 1.234 . S
C362 O385 1.283 . S
C363 O375 1.281 . S
C363 O376 1.236 . S
C364 O386 1.240 . S
C364 O387 1.264 . S
O365 Mn360 2.095 . S
O365 C374 1.250 . S
O366 Mn361 2.121 . S
O366 C374 1.258 . S
C367 N368 1.326 . S
C367 C371 1.460 . S
C367 H373 0.929 . S
N368 Mn361 2.257 . S
N368 C367 1.326 . S
N368 C372 1.362 . S
C369 C370 1.258 . S
C369 C372 1.431 . S
C369 C389 1.449 . S
C370 C369 1.258 . S
C370 C371 1.477 . S
C370 H390 0.931 . S
C371 C367 1.460 . S
C371 C370 1.477 . S
C371 H391 0.930 . S
C372 N368 1.362 . S
C372 C369 1.431 . S
C372 C382 1.476 . S
H373 C367 0.929 . S
C374 O365 1.250 . S
C374 O366 1.258 . S
O375 Mn360 2.162 . S
O375 C363 1.281 . S
O376 Mn360 2.297 . S
O376 C363 1.236 . S
N377 Mn361 2.282 . S
N377 C378 1.328 . S
N377 C382 1.318 . S
C378 N377 1.328 . S
C378 C379 1.457 . S
C378 H383 0.929 . S
C379 C378 1.457 . S
C379 C380 1.291 . S
C379 H392 0.931 1_554 S
C380 C379 1.291 . S
C380 C381 1.373 . S
C380 H393 0.929 . S
C381 C380 1.373 . S
C381 C382 1.396 . S
C381 C388 1.403 . S
C382 C372 1.476 . S
C382 N377 1.318 . S
C382 C381 1.396 . S
H383 C378 0.929 . S
O384 Mn360 2.385 . S
O384 C362 1.234 . S
O385 Mn360 2.209 . S
O385 Mn361 2.215 . S
O385 C362 1.283 . S
O386 Mn360 2.094 . S
O386 C364 1.240 . S
O387 Mn361 2.117 . S
O387 C364 1.264 . S
C388 C381 1.403 . S
C388 C389 1.399 . S
C388 H394 0.929 . S
C389 C369 1.449 . S
C389 C388 1.399 . S
C389 H395 0.930 . S
H390 C370 0.931 . S
H391 C371 0.930 . S
H392 C379 0.931 1_556 S
H393 C380 0.929 . S
H394 C388 0.929 . S
H395 C389 0.930 . S
Mn396 O401 2.095 . S
Mn396 O411 2.162 . S
Mn396 O412 2.297 . S
Mn396 O420 2.385 . S
Mn396 O421 2.209 . S
Mn396 O422 2.094 . S
Mn397 O402 2.121 . S
Mn397 N404 2.257 . S
Mn397 N413 2.282 . S
Mn397 O421 2.215 . S
Mn397 O423 2.117 . S
C398 O420 1.234 . S
C398 O421 1.283 . S
C399 O411 1.281 . S
C399 O412 1.236 . S
C400 O422 1.240 . S
C400 O423 1.264 . S
O401 Mn396 2.095 . S
O401 C410 1.250 . S
O402 Mn397 2.121 . S
O402 C410 1.258 . S
C403 N404 1.326 . S
C403 C407 1.460 . S
C403 H409 0.929 . S
N404 Mn397 2.257 . S
N404 C403 1.326 . S
N404 C408 1.362 . S
C405 C406 1.258 . S
C405 C408 1.431 . S
C405 C425 1.449 . S
C406 C405 1.258 . S
C406 C407 1.477 . S
C406 H426 0.931 . S
C407 C403 1.460 . S
C407 C406 1.477 . S
C407 H427 0.930 . S
C408 N404 1.362 . S
C408 C405 1.431 . S
C408 C418 1.476 . S
H409 C403 0.929 . S
C410 O401 1.250 . S
C410 O402 1.258 . S
O411 Mn396 2.162 . S
O411 C399 1.281 . S
O412 Mn396 2.297 . S
O412 C399 1.236 . S
N413 Mn397 2.282 . S
N413 C414 1.328 . S
N413 C418 1.318 . S
C414 N413 1.328 . S
C414 C415 1.457 . S
C414 H419 0.929 . S
C415 C414 1.457 . S
C415 C416 1.291 . S
C415 H428 0.931 1_554 S
C416 C415 1.291 . S
C416 C417 1.373 . S
C416 H429 0.929 . S
C417 C416 1.373 . S
C417 C418 1.396 . S
C417 C424 1.403 . S
C418 C408 1.476 . S
C418 N413 1.318 . S
C418 C417 1.396 . S
H419 C414 0.929 . S
O420 Mn396 2.385 . S
O420 C398 1.234 . S
O421 Mn396 2.209 . S
O421 Mn397 2.215 . S
O421 C398 1.283 . S
O422 Mn396 2.094 . S
O422 C400 1.240 . S
O423 Mn397 2.117 . S
O423 C400 1.264 . S
C424 C417 1.403 . S
C424 C425 1.399 . S
C424 H430 0.929 . S
C425 C405 1.449 . S
C425 C424 1.399 . S
C425 H431 0.930 . S
H426 C406 0.931 . S
H427 C407 0.930 . S
H428 C415 0.931 1_556 S
H429 C416 0.929 . S
H430 C424 0.929 . S
H431 C425 0.930 . S
Mn432 O437 2.095 . S
Mn432 O447 2.162 . S
Mn432 O448 2.297 . S
Mn432 O456 2.385 . S
Mn432 O457 2.209 . S
Mn432 O458 2.094 . S
Mn433 O438 2.121 . S
Mn433 N440 2.257 . S
Mn433 N449 2.282 . S
Mn433 O457 2.215 . S
Mn433 O459 2.117 . S
C434 O456 1.234 . S
C434 O457 1.283 . S
C435 O447 1.281 . S
C435 O448 1.236 . S
C436 O458 1.240 . S
C436 O459 1.264 . S
O437 Mn432 2.095 . S
O437 C446 1.250 . S
O438 Mn433 2.121 . S
O438 C446 1.258 . S
C439 N440 1.326 . S
C439 C443 1.460 . S
C439 H445 0.929 . S
N440 Mn433 2.257 . S
N440 C439 1.326 . S
N440 C444 1.362 . S
C441 C442 1.258 . S
C441 C444 1.429 1_455 S
C441 C461 1.451 . S
C442 C441 1.258 . S
C442 C443 1.477 1_455 S
C442 H462 0.931 . S
C443 C439 1.460 . S
C443 C442 1.477 1_655 S
C443 H463 0.930 . S
C444 N440 1.362 . S
C444 C441 1.429 1_655 S
C444 C454 1.476 . S
H445 C439 0.929 . S
C446 O437 1.250 . S
C446 O438 1.258 . S
O447 Mn432 2.162 . S
O447 C435 1.281 . S
O448 Mn432 2.297 . S
O448 C435 1.236 . S
N449 Mn433 2.282 . S
N449 C450 1.328 . S
N449 C454 1.318 . S
C450 N449 1.328 . S
C450 C451 1.457 . S
C450 H455 0.929 . S
C451 C450 1.457 . S
C451 C452 1.291 . S
C451 H464 0.931 . S
C452 C451 1.291 . S
C452 C453 1.373 . S
C452 H465 0.929 1_655 S
C453 C452 1.373 . S
C453 C454 1.396 . S
C453 C460 1.403 1_655 S
C454 C444 1.476 . S
C454 N449 1.318 . S
C454 C453 1.396 . S
H455 C450 0.929 . S
O456 Mn432 2.385 . S
O456 C434 1.234 . S
O457 Mn432 2.209 . S
O457 Mn433 2.215 . S
O457 C434 1.283 . S
O458 Mn432 2.094 . S
O458 C436 1.240 . S
O459 Mn433 2.117 . S
O459 C436 1.264 . S
C460 C453 1.403 1_455 S
C460 C461 1.399 . S
C460 H466 0.929 . S
C461 C441 1.451 . S
C461 C460 1.399 . S
C461 H467 0.930 . S
H462 C442 0.931 . S
H463 C443 0.930 . S
H464 C451 0.931 . S
H465 C452 0.929 1_455 S
H466 C460 0.929 . S
H467 C461 0.930 . S
Mn468 O473 2.095 . S
Mn468 O483 2.162 . S
Mn468 O484 2.297 . S
Mn468 O492 2.385 . S
Mn468 O493 2.209 . S
Mn468 O494 2.094 . S
Mn469 O474 2.121 . S
Mn469 N476 2.257 . S
Mn469 N485 2.282 . S
Mn469 O493 2.215 . S
Mn469 O495 2.117 . S
C470 O492 1.234 . S
C470 O493 1.283 . S
C471 O483 1.281 . S
C471 O484 1.236 . S
C472 O494 1.240 . S
C472 O495 1.264 . S
O473 Mn468 2.095 . S
O473 C482 1.250 . S
O474 Mn469 2.121 . S
O474 C482 1.258 . S
C475 N476 1.326 . S
C475 C479 1.460 . S
C475 H481 0.929 . S
N476 Mn469 2.257 . S
N476 C475 1.326 . S
N476 C480 1.362 . S
C477 C478 1.258 . S
C477 C480 1.431 . S
C477 C497 1.449 . S
C478 C477 1.258 . S
C478 C479 1.477 . S
C478 H498 0.931 . S
C479 C475 1.460 . S
C479 C478 1.477 . S
C479 H499 0.930 . S
C480 N476 1.362 . S
C480 C477 1.431 . S
C480 C490 1.476 . S
H481 C475 0.929 . S
C482 O473 1.250 . S
C482 O474 1.258 . S
O483 Mn468 2.162 . S
O483 C471 1.281 . S
O484 Mn468 2.297 . S
O484 C471 1.236 . S
N485 Mn469 2.282 . S
N485 C486 1.328 . S
N485 C490 1.318 . S
C486 N485 1.328 . S
C486 C487 1.457 . S
C486 H491 0.929 . S
C487 C486 1.457 . S
C487 C488 1.291 . S
C487 H500 0.931 . S
C488 C487 1.291 . S
C488 C489 1.373 . S
C488 H501 0.929 . S
C489 C488 1.373 . S
C489 C490 1.396 . S
C489 C496 1.403 . S
C490 C480 1.476 . S
C490 N485 1.318 . S
C490 C489 1.396 . S
H491 C486 0.929 . S
O492 Mn468 2.385 . S
O492 C470 1.234 . S
O493 Mn468 2.209 . S
O493 Mn469 2.215 . S
O493 C470 1.283 . S
O494 Mn468 2.094 . S
O494 C472 1.240 . S
O495 Mn469 2.117 . S
O495 C472 1.264 . S
C496 C489 1.403 . S
C496 C497 1.399 . S
C496 H502 0.929 . S
C497 C477 1.449 . S
C497 C496 1.399 . S
C497 H503 0.930 . S
H498 C478 0.931 . S
H499 C479 0.930 . S
H500 C487 0.931 . S
H501 C488 0.929 . S
H502 C496 0.929 . S
H503 C497 0.930 . S
Mn504 O509 2.095 . S
Mn504 O519 2.162 . S
Mn504 O520 2.297 . S
Mn504 O528 2.385 . S
Mn504 O529 2.209 . S
Mn504 O530 2.094 . S
Mn505 O510 2.121 . S
Mn505 N512 2.257 . S
Mn505 N521 2.282 . S
Mn505 O529 2.215 . S
Mn505 O531 2.117 . S
C506 O528 1.234 . S
C506 O529 1.283 . S
C507 O519 1.281 . S
C507 O520 1.236 . S
C508 O530 1.240 . S
C508 O531 1.264 . S
O509 Mn504 2.095 . S
O509 C518 1.250 . S
O510 Mn505 2.121 . S
O510 C518 1.258 . S
C511 N512 1.326 . S
C511 C515 1.460 . S
C511 H517 0.929 . S
N512 Mn505 2.257 . S
N512 C511 1.326 . S
N512 C516 1.362 . S
C513 C514 1.258 . S
C513 C516 1.430 1_565 S
C513 C533 1.450 . S
C514 C513 1.258 . S
C514 C515 1.477 1_565 S
C514 H534 0.931 . S
C515 C511 1.460 . S
C515 C514 1.477 1_545 S
C515 H535 0.930 . S
C516 N512 1.362 . S
C516 C513 1.430 1_545 S
C516 C526 1.476 . S
H517 C511 0.929 . S
C518 O509 1.250 . S
C518 O510 1.258 . S
O519 Mn504 2.162 . S
O519 C507 1.281 . S
O520 Mn504 2.297 . S
O520 C507 1.236 . S
N521 Mn505 2.282 . S
N521 C522 1.328 . S
N521 C526 1.318 . S
C522 N521 1.328 . S
C522 C523 1.457 . S
C522 H527 0.929 . S
C523 C522 1.457 . S
C523 C524 1.291 . S
C523 H536 0.931 . S
C524 C523 1.291 . S
C524 C525 1.373 . S
C524 H537 0.929 1_545 S
C525 C524 1.373 . S
C525 C526 1.396 . S
C525 C532 1.403 1_545 S
C526 C516 1.476 . S
C526 N521 1.318 . S
C526 C525 1.396 . S
H527 C522 0.929 . S
O528 Mn504 2.385 . S
O528 C506 1.234 . S
O529 Mn504 2.209 . S
O529 Mn505 2.215 . S
O529 C506 1.283 . S
O530 Mn504 2.094 . S
O530 C508 1.240 . S
O531 Mn505 2.117 . S
O531 C508 1.264 . S
C532 C525 1.403 1_565 S
C532 C533 1.399 . S
C532 H538 0.929 . S
C533 C513 1.450 . S
C533 C532 1.399 . S
C533 H539 0.930 . S
H534 C514 0.931 . S
H535 C515 0.930 . S
H536 C523 0.931 . S
H537 C524 0.929 1_565 S
H538 C532 0.929 . S
H539 C533 0.930 . S
Mn540 O545 2.095 . S
Mn540 O555 2.162 . S
Mn540 O556 2.297 . S
Mn540 O564 2.385 . S
Mn540 O565 2.209 . S
Mn540 O566 2.094 . S
Mn541 O546 2.121 1_554 S
Mn541 N548 2.264 . S
Mn541 N557 2.282 . S
Mn541 O565 2.215 . S
Mn541 O567 2.117 . S
C542 O564 1.234 . S
C542 O565 1.283 . S
C543 O555 1.281 . S
C543 O556 1.236 . S
C544 O566 1.240 . S
C544 O567 1.264 . S
O545 Mn540 2.095 . S
O545 C554 1.250 1_554 S
O546 Mn541 2.121 1_556 S
O546 C554 1.258 . S
C547 N548 1.313 1_556 S
C547 C551 1.460 . S
C547 H553 0.929 . S
N548 Mn541 2.264 . S
N548 C547 1.313 1_554 S
N548 C552 1.370 . S
C549 C550 1.258 1_554 S
C549 C552 1.431 . S
C549 C569 1.449 . S
C550 C549 1.258 1_556 S
C550 C551 1.477 . S
C550 H570 0.931 . S
C551 C547 1.460 . S
C551 C550 1.477 . S
C551 H571 0.930 . S
C552 N548 1.370 . S
C552 C549 1.431 . S
C552 C562 1.476 . S
H553 C547 0.929 . S
C554 O545 1.250 1_556 S
C554 O546 1.258 . S
O555 Mn540 2.162 . S
O555 C543 1.281 . S
O556 Mn540 2.297 . S
O556 C543 1.236 . S
N557 Mn541 2.282 . S
N557 C558 1.328 . S
N557 C562 1.318 . S
C558 N557 1.328 . S
C558 C559 1.457 . S
C558 H563 0.929 . S
C559 C558 1.457 . S
C559 C560 1.291 . S
C559 H572 0.931 . S
C560 C559 1.291 . S
C560 C561 1.373 . S
C560 H573 0.929 . S
C561 C560 1.373 . S
C561 C562 1.396 . S
C561 C568 1.403 . S
C562 C552 1.476 . S
C562 N557 1.318 . S
C562 C561 1.396 . S
H563 C558 0.929 . S
O564 Mn540 2.385 . S
O564 C542 1.234 . S
O565 Mn540 2.209 . S
O565 Mn541 2.215 . S
O565 C542 1.283 . S
O566 Mn540 2.094 . S
O566 C544 1.240 . S
O567 Mn541 2.117 . S
O567 C544 1.264 . S
C568 C561 1.403 . S
C568 C569 1.399 . S
C568 H574 0.929 . S
C569 C549 1.449 . S
C569 C568 1.399 . S
C569 H575 0.930 . S
H570 C550 0.931 . S
H571 C551 0.930 . S
H572 C559 0.931 . S
H573 C560 0.929 . S
H574 C568 0.929 . S
H575 C569 0.930 . S
Mn576 O581 2.095 . S
Mn576 O591 2.162 . S
Mn576 O592 2.297 . S
Mn576 O600 2.385 . S
Mn576 O601 2.209 . S
Mn576 O602 2.094 . S
Mn577 O582 2.121 1_554 S
Mn577 N584 2.264 . S
Mn577 N593 2.282 . S
Mn577 O601 2.215 . S
Mn577 O603 2.117 . S
C578 O600 1.234 . S
C578 O601 1.283 . S
C579 O591 1.281 . S
C579 O592 1.236 . S
C580 O602 1.240 . S
C580 O603 1.264 . S
O581 Mn576 2.095 . S
O581 C590 1.250 1_554 S
O582 Mn577 2.121 1_556 S
O582 C590 1.258 . S
C583 N584 1.313 1_556 S
C583 C587 1.460 . S
C583 H589 0.929 . S
N584 Mn577 2.264 . S
N584 C583 1.313 1_554 S
N584 C588 1.370 . S
C585 C586 1.258 1_554 S
C585 C588 1.431 . S
C585 C605 1.449 . S
C586 C585 1.258 1_556 S
C586 C587 1.477 . S
C586 H606 0.931 . S
C587 C583 1.460 . S
C587 C586 1.477 . S
C587 H607 0.930 . S
C588 N584 1.370 . S
C588 C585 1.431 . S
C588 C598 1.476 . S
H589 C583 0.929 . S
C590 O581 1.250 1_556 S
C590 O582 1.258 . S
O591 Mn576 2.162 . S
O591 C579 1.281 . S
O592 Mn576 2.297 . S
O592 C579 1.236 . S
N593 Mn577 2.282 . S
N593 C594 1.328 . S
N593 C598 1.318 . S
C594 N593 1.328 . S
C594 C595 1.457 . S
C594 H599 0.929 . S
C595 C594 1.457 . S
C595 C596 1.291 . S
C595 H608 0.931 . S
C596 C595 1.291 . S
C596 C597 1.373 . S
C596 H609 0.929 . S
C597 C596 1.373 . S
C597 C598 1.396 . S
C597 C604 1.403 . S
C598 C588 1.476 . S
C598 N593 1.318 . S
C598 C597 1.396 . S
H599 C594 0.929 . S
O600 Mn576 2.385 . S
O600 C578 1.234 . S
O601 Mn576 2.209 . S
O601 Mn577 2.215 . S
O601 C578 1.283 . S
O602 Mn576 2.094 . S
O602 C580 1.240 . S
O603 Mn577 2.117 . S
O603 C580 1.264 . S
C604 C597 1.403 . S
C604 C605 1.399 . S
C604 H610 0.929 . S
C605 C585 1.449 . S
C605 C604 1.399 . S
C605 H611 0.930 . S
H606 C586 0.931 . S
H607 C587 0.930 . S
H608 C595 0.931 . S
H609 C596 0.929 . S
H610 C604 0.929 . S
H611 C605 0.930 . S
Mn612 O617 2.095 . S
Mn612 O627 2.162 . S
Mn612 O628 2.297 . S
Mn612 O636 2.385 . S
Mn612 O637 2.209 . S
Mn612 O638 2.094 . S
Mn613 O618 2.121 1_554 S
Mn613 N620 2.264 . S
Mn613 N629 2.282 . S
Mn613 O637 2.215 . S
Mn613 O639 2.117 . S
C614 O636 1.234 . S
C614 O637 1.283 . S
C615 O627 1.281 . S
C615 O628 1.236 . S
C616 O638 1.240 . S
C616 O639 1.264 . S
O617 Mn612 2.095 . S
O617 C626 1.250 1_554 S
O618 Mn613 2.121 1_556 S
O618 C626 1.258 . S
C619 N620 1.312 1_556 S
C619 C623 1.460 . S
C619 H625 0.929 . S
N620 Mn613 2.264 . S
N620 C619 1.312 1_554 S
N620 C624 1.370 . S
C621 C622 1.258 1_554 S
C621 C624 1.431 . S
C621 C641 1.449 . S
C622 C621 1.258 1_556 S
C622 C623 1.477 . S
C622 H642 0.931 . S
C623 C619 1.460 . S
C623 C622 1.477 . S
C623 H643 0.930 . S
C624 N620 1.370 . S
C624 C621 1.431 . S
C624 C634 1.476 . S
H625 C619 0.929 . S
C626 O617 1.250 1_556 S
C626 O618 1.258 . S
O627 Mn612 2.162 . S
O627 C615 1.281 . S
O628 Mn612 2.297 . S
O628 C615 1.236 . S
N629 Mn613 2.282 . S
N629 C630 1.328 . S
N629 C634 1.318 . S
C630 N629 1.328 . S
C630 C631 1.457 . S
C630 H635 0.929 . S
C631 C630 1.457 . S
C631 C632 1.291 . S
C631 H644 0.931 . S
C632 C631 1.291 . S
C632 C633 1.373 . S
C632 H645 0.929 . S
C633 C632 1.373 . S
C633 C634 1.396 . S
C633 C640 1.403 . S
C634 C624 1.476 . S
C634 N629 1.318 . S
C634 C633 1.396 . S
H635 C630 0.929 . S
O636 Mn612 2.385 . S
O636 C614 1.234 . S
O637 Mn612 2.209 . S
O637 Mn613 2.215 . S
O637 C614 1.283 . S
O638 Mn612 2.094 . S
O638 C616 1.240 . S
O639 Mn613 2.117 . S
O639 C616 1.264 . S
C640 C633 1.403 . S
C640 C641 1.399 . S
C640 H646 0.929 . S
C641 C621 1.449 . S
C641 C640 1.399 . S
C641 H647 0.930 . S
H642 C622 0.931 . S
H643 C623 0.930 . S
H644 C631 0.931 . S
H645 C632 0.929 . S
H646 C640 0.929 . S
H647 C641 0.930 . S
Mn648 O653 2.095 . S
Mn648 O663 2.162 . S
Mn648 O664 2.297 . S
Mn648 O672 2.385 . S
Mn648 O673 2.209 . S
Mn648 O674 2.094 . S
Mn649 O654 2.121 1_554 S
Mn649 N656 2.264 . S
Mn649 N665 2.282 . S
Mn649 O673 2.215 . S
Mn649 O675 2.117 . S
C650 O672 1.234 . S
C650 O673 1.283 . S
C651 O663 1.281 . S
C651 O664 1.236 . S
C652 O674 1.240 . S
C652 O675 1.264 . S
O653 Mn648 2.095 . S
O653 C662 1.250 1_554 S
O654 Mn649 2.121 1_556 S
O654 C662 1.258 . S
C655 N656 1.313 1_556 S
C655 C659 1.460 . S
C655 H661 0.929 . S
N656 Mn649 2.264 . S
N656 C655 1.313 1_554 S
N656 C660 1.370 . S
C657 C658 1.258 1_554 S
C657 C660 1.431 . S
C657 C677 1.449 . S
C658 C657 1.258 1_556 S
C658 C659 1.477 . S
C658 H678 0.931 . S
C659 C655 1.460 . S
C659 C658 1.477 . S
C659 H679 0.930 . S
C660 N656 1.370 . S
C660 C657 1.431 . S
C660 C670 1.476 . S
H661 C655 0.929 . S
C662 O653 1.250 1_556 S
C662 O654 1.258 . S
O663 Mn648 2.162 . S
O663 C651 1.281 . S
O664 Mn648 2.297 . S
O664 C651 1.236 . S
N665 Mn649 2.282 . S
N665 C666 1.328 . S
N665 C670 1.318 . S
C666 N665 1.328 . S
C666 C667 1.457 . S
C666 H671 0.929 . S
C667 C666 1.457 . S
C667 C668 1.291 . S
C667 H680 0.931 . S
C668 C667 1.291 . S
C668 C669 1.373 . S
C668 H681 0.929 . S
C669 C668 1.373 . S
C669 C670 1.396 . S
C669 C676 1.403 . S
C670 C660 1.476 . S
C670 N665 1.318 . S
C670 C669 1.396 . S
H671 C666 0.929 . S
O672 Mn648 2.385 . S
O672 C650 1.234 . S
O673 Mn648 2.209 . S
O673 Mn649 2.215 . S
O673 C650 1.283 . S
O674 Mn648 2.094 . S
O674 C652 1.240 . S
O675 Mn649 2.117 . S
O675 C652 1.264 . S
C676 C669 1.403 . S
C676 C677 1.399 . S
C676 H682 0.929 . S
C677 C657 1.449 . S
C677 C676 1.399 . S
C677 H683 0.930 . S
H678 C658 0.931 . S
H679 C659 0.930 . S
H680 C667 0.931 . S
H681 C668 0.929 . S
H682 C676 0.929 . S
H683 C677 0.930 . S
Mn684 O689 2.095 . S
Mn684 O699 2.162 . S
Mn684 O700 2.297 . S
Mn684 O708 2.385 . S
Mn684 O709 2.209 . S
Mn684 O710 2.094 . S
Mn685 O690 2.121 1_554 S
Mn685 N692 2.264 . S
Mn685 N701 2.282 . S
Mn685 O709 2.215 . S
Mn685 O711 2.117 . S
C686 O708 1.234 . S
C686 O709 1.283 . S
C687 O699 1.281 . S
C687 O700 1.236 . S
C688 O710 1.240 . S
C688 O711 1.264 . S
O689 Mn684 2.095 . S
O689 C698 1.250 1_554 S
O690 Mn685 2.121 1_556 S
O690 C698 1.258 . S
C691 N692 1.312 1_556 S
C691 C695 1.460 . S
C691 H697 0.929 . S
N692 Mn685 2.264 . S
N692 C691 1.312 1_554 S
N692 C696 1.370 . S
C693 C694 1.258 1_554 S
C693 C696 1.431 . S
C693 C713 1.449 . S
C694 C693 1.258 1_556 S
C694 C695 1.477 . S
C694 H714 0.931 . S
C695 C691 1.460 . S
C695 C694 1.477 . S
C695 H715 0.930 . S
C696 N692 1.370 . S
C696 C693 1.431 . S
C696 C706 1.476 . S
H697 C691 0.929 . S
C698 O689 1.250 1_556 S
C698 O690 1.258 . S
O699 Mn684 2.162 . S
O699 C687 1.281 . S
O700 Mn684 2.297 . S
O700 C687 1.236 . S
N701 Mn685 2.282 . S
N701 C702 1.328 . S
N701 C706 1.318 . S
C702 N701 1.328 . S
C702 C703 1.457 . S
C702 H707 0.929 . S
C703 C702 1.457 . S
C703 C704 1.291 . S
C703 H716 0.931 . S
C704 C703 1.291 . S
C704 C705 1.373 . S
C704 H717 0.929 . S
C705 C704 1.373 . S
C705 C706 1.396 . S
C705 C712 1.403 . S
C706 C696 1.476 . S
C706 N701 1.318 . S
C706 C705 1.396 . S
H707 C702 0.929 . S
O708 Mn684 2.385 . S
O708 C686 1.234 . S
O709 Mn684 2.209 . S
O709 Mn685 2.215 . S
O709 C686 1.283 . S
O710 Mn684 2.094 . S
O710 C688 1.240 . S
O711 Mn685 2.117 . S
O711 C688 1.264 . S
C712 C705 1.403 . S
C712 C713 1.399 . S
C712 H718 0.929 . S
C713 C693 1.449 . S
C713 C712 1.399 . S
C713 H719 0.930 . S
H714 C694 0.931 . S
H715 C695 0.930 . S
H716 C703 0.931 . S
H717 C704 0.929 . S
H718 C712 0.929 . S
H719 C713 0.930 . S
Mn720 O725 2.095 . S
Mn720 O735 2.162 . S
Mn720 O736 2.297 . S
Mn720 O744 2.385 . S
Mn720 O745 2.209 . S
Mn720 O746 2.094 . S
Mn721 O726 2.121 1_554 S
Mn721 N728 2.264 . S
Mn721 N737 2.282 . S
Mn721 O745 2.215 . S
Mn721 O747 2.117 . S
C722 O744 1.234 . S
C722 O745 1.283 . S
C723 O735 1.281 . S
C723 O736 1.236 . S
C724 O746 1.240 . S
C724 O747 1.264 . S
O725 Mn720 2.095 . S
O725 C734 1.250 1_554 S
O726 Mn721 2.121 1_556 S
O726 C734 1.258 . S
C727 N728 1.313 1_556 S
C727 C731 1.460 . S
C727 H733 0.929 . S
N728 Mn721 2.264 . S
N728 C727 1.313 1_554 S
N728 C732 1.370 . S
C729 C730 1.258 1_554 S
C729 C732 1.431 . S
C729 C749 1.449 . S
C730 C729 1.258 1_556 S
C730 C731 1.477 . S
C730 H750 0.931 . S
C731 C727 1.460 . S
C731 C730 1.477 . S
C731 H751 0.930 . S
C732 N728 1.370 . S
C732 C729 1.431 . S
C732 C742 1.476 . S
H733 C727 0.929 . S
C734 O725 1.250 1_556 S
C734 O726 1.258 . S
O735 Mn720 2.162 . S
O735 C723 1.281 . S
O736 Mn720 2.297 . S
O736 C723 1.236 . S
N737 Mn721 2.282 . S
N737 C738 1.328 . S
N737 C742 1.318 . S
C738 N737 1.328 . S
C738 C739 1.457 . S
C738 H743 0.929 . S
C739 C738 1.457 . S
C739 C740 1.291 . S
C739 H752 0.931 . S
C740 C739 1.291 . S
C740 C741 1.373 . S
C740 H753 0.929 . S
C741 C740 1.373 . S
C741 C742 1.396 . S
C741 C748 1.403 . S
C742 C732 1.476 . S
C742 N737 1.318 . S
C742 C741 1.396 . S
H743 C738 0.929 . S
O744 Mn720 2.385 . S
O744 C722 1.234 . S
O745 Mn720 2.209 . S
O745 Mn721 2.215 . S
O745 C722 1.283 . S
O746 Mn720 2.094 . S
O746 C724 1.240 . S
O747 Mn721 2.117 . S
O747 C724 1.264 . S
C748 C741 1.403 . S
C748 C749 1.399 . S
C748 H754 0.929 . S
C749 C729 1.449 . S
C749 C748 1.399 . S
C749 H755 0.930 . S
H750 C730 0.931 . S
H751 C731 0.930 . S
H752 C739 0.931 . S
H753 C740 0.929 . S
H754 C748 0.929 . S
H755 C749 0.930 . S
Mn756 O761 2.095 . S
Mn756 O771 2.162 . S
Mn756 O772 2.297 . S
Mn756 O780 2.385 . S
Mn756 O781 2.209 . S
Mn756 O782 2.094 . S
Mn757 O762 2.121 . S
Mn757 N764 2.257 . S
Mn757 N773 2.282 . S
Mn757 O781 2.215 . S
Mn757 O783 2.117 . S
C758 O780 1.234 . S
C758 O781 1.283 . S
C759 O771 1.281 . S
C759 O772 1.236 . S
C760 O782 1.240 . S
C760 O783 1.264 . S
O761 Mn756 2.095 . S
O761 C770 1.250 . S
O762 Mn757 2.121 . S
O762 C770 1.258 . S
C763 N764 1.326 . S
C763 C767 1.460 . S
C763 H769 0.929 . S
N764 Mn757 2.257 . S
N764 C763 1.326 . S
N764 C768 1.362 . S
C765 C766 1.258 . S
C765 C768 1.429 1_565 S
C765 C785 1.451 . S
C766 C765 1.258 . S
C766 C767 1.477 1_565 S
C766 H786 0.931 . S
C767 C763 1.460 . S
C767 C766 1.477 1_545 S
C767 H787 0.930 . S
C768 N764 1.362 . S
C768 C765 1.429 1_545 S
C768 C778 1.476 . S
H769 C763 0.929 . S
C770 O761 1.250 . S
C770 O762 1.258 . S
O771 Mn756 2.162 . S
O771 C759 1.281 . S
O772 Mn756 2.297 . S
O772 C759 1.236 . S
N773 Mn757 2.282 . S
N773 C774 1.328 . S
N773 C778 1.318 . S
C774 N773 1.328 . S
C774 C775 1.457 . S
C774 H779 0.929 . S
C775 C774 1.457 . S
C775 C776 1.291 . S
C775 H788 0.931 . S
C776 C775 1.291 . S
C776 C777 1.373 . S
C776 H789 0.929 1_545 S
C777 C776 1.373 . S
C777 C778 1.396 . S
C777 C784 1.403 1_545 S
C778 C768 1.476 . S
C778 N773 1.318 . S
C778 C777 1.396 . S
H779 C774 0.929 . S
O780 Mn756 2.385 . S
O780 C758 1.234 . S
O781 Mn756 2.209 . S
O781 Mn757 2.215 . S
O781 C758 1.283 . S
O782 Mn756 2.094 . S
O782 C760 1.240 . S
O783 Mn757 2.117 . S
O783 C760 1.264 . S
C784 C777 1.403 1_565 S
C784 C785 1.399 . S
C784 H790 0.929 . S
C785 C765 1.451 . S
C785 C784 1.399 . S
C785 H791 0.930 . S
H786 C766 0.931 . S
H787 C767 0.930 . S
H788 C775 0.931 . S
H789 C776 0.929 1_565 S
H790 C784 0.929 . S
H791 C785 0.930 . S
Mn792 O797 2.095 . S
Mn792 O807 2.162 . S
Mn792 O808 2.297 . S
Mn792 O816 2.385 . S
Mn792 O817 2.209 . S
Mn792 O818 2.094 . S
Mn793 O798 2.121 . S
Mn793 N800 2.257 . S
Mn793 N809 2.282 . S
Mn793 O817 2.215 . S
Mn793 O819 2.117 . S
C794 O816 1.234 . S
C794 O817 1.283 . S
C795 O807 1.281 . S
C795 O808 1.236 . S
C796 O818 1.240 . S
C796 O819 1.264 . S
O797 Mn792 2.095 . S
O797 C806 1.250 . S
O798 Mn793 2.121 . S
O798 C806 1.258 . S
C799 N800 1.326 . S
C799 C803 1.460 . S
C799 H805 0.929 . S
N800 Mn793 2.257 . S
N800 C799 1.326 . S
N800 C804 1.362 . S
C801 C802 1.258 . S
C801 C804 1.429 1_455 S
C801 C821 1.450 . S
C802 C801 1.258 . S
C802 C803 1.477 1_455 S
C802 H822 0.931 . S
C803 C799 1.460 . S
C803 C802 1.477 1_655 S
C803 H823 0.930 . S
C804 N800 1.362 . S
C804 C801 1.429 1_655 S
C804 C814 1.476 . S
H805 C799 0.929 . S
C806 O797 1.250 . S
C806 O798 1.258 . S
O807 Mn792 2.162 . S
O807 C795 1.281 . S
O808 Mn792 2.297 . S
O808 C795 1.236 . S
N809 Mn793 2.282 . S
N809 C810 1.328 . S
N809 C814 1.318 . S
C810 N809 1.328 . S
C810 C811 1.457 . S
C810 H815 0.929 . S
C811 C810 1.457 . S
C811 C812 1.291 . S
C811 H824 0.931 . S
C812 C811 1.291 . S
C812 C813 1.373 . S
C812 H825 0.929 1_655 S
C813 C812 1.373 . S
C813 C814 1.396 . S
C813 C820 1.403 1_655 S
C814 C804 1.476 . S
C814 N809 1.318 . S
C814 C813 1.396 . S
H815 C810 0.929 . S
O816 Mn792 2.385 . S
O816 C794 1.234 . S
O817 Mn792 2.209 . S
O817 Mn793 2.215 . S
O817 C794 1.283 . S
O818 Mn792 2.094 . S
O818 C796 1.240 . S
O819 Mn793 2.117 . S
O819 C796 1.264 . S
C820 C813 1.403 1_455 S
C820 C821 1.399 . S
C820 H826 0.929 . S
C821 C801 1.450 . S
C821 C820 1.399 . S
C821 H827 0.930 . S
H822 C802 0.931 . S
H823 C803 0.930 . S
H824 C811 0.931 . S
H825 C812 0.929 1_455 S
H826 C820 0.929 . S
H827 C821 0.930 . S
Mn828 O833 2.095 . S
Mn828 O843 2.162 . S
Mn828 O844 2.297 . S
Mn828 O852 2.385 . S
Mn828 O853 2.209 . S
Mn828 O854 2.094 . S
Mn829 O834 2.121 . S
Mn829 N836 2.257 . S
Mn829 N845 2.282 . S
Mn829 O853 2.215 . S
Mn829 O855 2.117 . S
C830 O852 1.234 . S
C830 O853 1.283 . S
C831 O843 1.281 . S
C831 O844 1.236 . S
C832 O854 1.240 . S
C832 O855 1.264 . S
O833 Mn828 2.095 . S
O833 C842 1.250 . S
O834 Mn829 2.121 . S
O834 C842 1.258 . S
C835 N836 1.326 . S
C835 C839 1.460 . S
C835 H841 0.929 . S
N836 Mn829 2.257 . S
N836 C835 1.326 . S
N836 C840 1.362 . S
C837 C838 1.258 . S
C837 C840 1.431 . S
C837 C857 1.449 . S
C838 C837 1.258 . S
C838 C839 1.477 . S
C838 H858 0.931 . S
C839 C835 1.460 . S
C839 C838 1.477 . S
C839 H859 0.930 . S
C840 N836 1.362 . S
C840 C837 1.431 . S
C840 C850 1.476 . S
H841 C835 0.929 . S
C842 O833 1.250 . S
C842 O834 1.258 . S
O843 Mn828 2.162 . S
O843 C831 1.281 . S
O844 Mn828 2.297 . S
O844 C831 1.236 . S
N845 Mn829 2.282 . S
N845 C846 1.328 . S
N845 C850 1.318 . S
C846 N845 1.328 . S
C846 C847 1.457 . S
C846 H851 0.929 . S
C847 C846 1.457 . S
C847 C848 1.291 . S
C847 H860 0.931 . S
C848 C847 1.291 . S
C848 C849 1.373 . S
C848 H861 0.929 . S
C849 C848 1.373 . S
C849 C850 1.396 . S
C849 C856 1.403 . S
C850 C840 1.476 . S
C850 N845 1.318 . S
C850 C849 1.396 . S
H851 C846 0.929 . S
O852 Mn828 2.385 . S
O852 C830 1.234 . S
O853 Mn828 2.209 . S
O853 Mn829 2.215 . S
O853 C830 1.283 . S
O854 Mn828 2.094 . S
O854 C832 1.240 . S
O855 Mn829 2.117 . S
O855 C832 1.264 . S
C856 C849 1.403 . S
C856 C857 1.399 . S
C856 H862 0.929 . S
C857 C837 1.449 . S
C857 C856 1.399 . S
C857 H863 0.930 . S
H858 C838 0.931 . S
H859 C839 0.930 . S
H860 C847 0.931 . S
H861 C848 0.929 . S
H862 C856 0.929 . S
H863 C857 0.930 . S
Mn864 O869 2.095 . S
Mn864 O879 2.162 . S
Mn864 O880 2.297 . S
Mn864 O888 2.385 . S
Mn864 O889 2.209 . S
Mn864 O890 2.094 . S
Mn865 O870 2.121 1_556 S
Mn865 N872 2.264 . S
Mn865 N881 2.282 . S
Mn865 O889 2.215 . S
Mn865 O891 2.117 . S
C866 O888 1.234 . S
C866 O889 1.283 . S
C867 O879 1.281 . S
C867 O880 1.236 . S
C868 O890 1.240 . S
C868 O891 1.264 . S
O869 Mn864 2.095 . S
O869 C878 1.250 1_556 S
O870 Mn865 2.121 1_554 S
O870 C878 1.258 . S
C871 N872 1.313 1_554 S
C871 C875 1.460 . S
C871 H877 0.929 . S
N872 Mn865 2.264 . S
N872 C871 1.313 1_556 S
N872 C876 1.370 . S
C873 C874 1.258 1_556 S
C873 C876 1.431 . S
C873 C893 1.449 . S
C874 C873 1.258 1_554 S
C874 C875 1.477 . S
C874 H894 0.931 . S
C875 C871 1.460 . S
C875 C874 1.477 . S
C875 H895 0.930 . S
C876 N872 1.370 . S
C876 C873 1.431 . S
C876 C886 1.476 . S
H877 C871 0.929 . S
C878 O869 1.250 1_554 S
C878 O870 1.258 . S
O879 Mn864 2.162 . S
O879 C867 1.281 . S
O880 Mn864 2.297 . S
O880 C867 1.236 . S
N881 Mn865 2.282 . S
N881 C882 1.328 . S
N881 C886 1.318 . S
C882 N881 1.328 . S
C882 C883 1.457 . S
C882 H887 0.929 . S
C883 C882 1.457 . S
C883 C884 1.291 . S
C883 H896 0.931 . S
C884 C883 1.291 . S
C884 C885 1.373 . S
C884 H897 0.929 . S
C885 C884 1.373 . S
C885 C886 1.396 . S
C885 C892 1.403 . S
C886 C876 1.476 . S
C886 N881 1.318 . S
C886 C885 1.396 . S
H887 C882 0.929 . S
O888 Mn864 2.385 . S
O888 C866 1.234 . S
O889 Mn864 2.209 . S
O889 Mn865 2.215 . S
O889 C866 1.283 . S
O890 Mn864 2.094 . S
O890 C868 1.240 . S
O891 Mn865 2.117 . S
O891 C868 1.264 . S
C892 C885 1.403 . S
C892 C893 1.399 . S
C892 H898 0.929 . S
C893 C873 1.449 . S
C893 C892 1.399 . S
C893 H899 0.930 . S
H894 C874 0.931 . S
H895 C875 0.930 . S
H896 C883 0.931 . S
H897 C884 0.929 . S
H898 C892 0.929 . S
H899 C893 0.930 . S
Mn900 O905 2.095 . S
Mn900 O915 2.162 . S
Mn900 O916 2.297 . S
Mn900 O924 2.385 . S
Mn900 O925 2.209 . S
Mn900 O926 2.094 . S
Mn901 O906 2.121 1_556 S
Mn901 N908 2.264 . S
Mn901 N917 2.282 . S
Mn901 O925 2.215 . S
Mn901 O927 2.117 . S
C902 O924 1.234 . S
C902 O925 1.283 . S
C903 O915 1.281 . S
C903 O916 1.236 . S
C904 O926 1.240 . S
C904 O927 1.264 . S
O905 Mn900 2.095 . S
O905 C914 1.250 1_556 S
O906 Mn901 2.121 1_554 S
O906 C914 1.258 . S
C907 N908 1.312 1_554 S
C907 C911 1.460 . S
C907 H913 0.929 . S
N908 Mn901 2.264 . S
N908 C907 1.312 1_556 S
N908 C912 1.370 . S
C909 C910 1.258 1_556 S
C909 C912 1.431 . S
C909 C929 1.449 . S
C910 C909 1.258 1_554 S
C910 C911 1.477 . S
C910 H930 0.931 . S
C911 C907 1.460 . S
C911 C910 1.477 . S
C911 H931 0.930 . S
C912 N908 1.370 . S
C912 C909 1.431 . S
C912 C922 1.476 . S
H913 C907 0.929 . S
C914 O905 1.250 1_554 S
C914 O906 1.258 . S
O915 Mn900 2.162 . S
O915 C903 1.281 . S
O916 Mn900 2.297 . S
O916 C903 1.236 . S
N917 Mn901 2.282 . S
N917 C918 1.328 . S
N917 C922 1.318 . S
C918 N917 1.328 . S
C918 C919 1.457 . S
C918 H923 0.929 . S
C919 C918 1.457 . S
C919 C920 1.291 . S
C919 H932 0.931 . S
C920 C919 1.291 . S
C920 C921 1.373 . S
C920 H933 0.929 . S
C921 C920 1.373 . S
C921 C922 1.396 . S
C921 C928 1.403 . S
C922 C912 1.476 . S
C922 N917 1.318 . S
C922 C921 1.396 . S
H923 C918 0.929 . S
O924 Mn900 2.385 . S
O924 C902 1.234 . S
O925 Mn900 2.209 . S
O925 Mn901 2.215 . S
O925 C902 1.283 . S
O926 Mn900 2.094 . S
O926 C904 1.240 . S
O927 Mn901 2.117 . S
O927 C904 1.264 . S
C928 C921 1.403 . S
C928 C929 1.399 . S
C928 H934 0.929 . S
C929 C909 1.449 . S
C929 C928 1.399 . S
C929 H935 0.930 . S
H930 C910 0.931 . S
H931 C911 0.930 . S
H932 C919 0.931 . S
H933 C920 0.929 . S
H934 C928 0.929 . S
H935 C929 0.930 . S
Mn936 O941 2.095 . S
Mn936 O951 2.162 . S
Mn936 O952 2.297 . S
Mn936 O960 2.385 . S
Mn936 O961 2.209 . S
Mn936 O962 2.094 . S
Mn937 O942 2.121 1_556 S
Mn937 N944 2.264 . S
Mn937 N953 2.282 . S
Mn937 O961 2.215 . S
Mn937 O963 2.117 . S
C938 O960 1.234 . S
C938 O961 1.283 . S
C939 O951 1.281 . S
C939 O952 1.236 . S
C940 O962 1.240 . S
C940 O963 1.264 . S
O941 Mn936 2.095 . S
O941 C950 1.250 1_556 S
O942 Mn937 2.121 1_554 S
O942 C950 1.258 . S
C943 N944 1.313 1_554 S
C943 C947 1.460 . S
C943 H949 0.929 . S
N944 Mn937 2.264 . S
N944 C943 1.313 1_556 S
N944 C948 1.370 . S
C945 C946 1.258 1_556 S
C945 C948 1.431 . S
C945 C965 1.449 . S
C946 C945 1.258 1_554 S
C946 C947 1.477 . S
C946 H966 0.931 . S
C947 C943 1.460 . S
C947 C946 1.477 . S
C947 H967 0.930 . S
C948 N944 1.370 . S
C948 C945 1.431 . S
C948 C958 1.476 . S
H949 C943 0.929 . S
C950 O941 1.250 1_554 S
C950 O942 1.258 . S
O951 Mn936 2.162 . S
O951 C939 1.281 . S
O952 Mn936 2.297 . S
O952 C939 1.236 . S
N953 Mn937 2.282 . S
N953 C954 1.328 . S
N953 C958 1.318 . S
C954 N953 1.328 . S
C954 C955 1.457 . S
C954 H959 0.929 . S
C955 C954 1.457 . S
C955 C956 1.291 . S
C955 H968 0.931 . S
C956 C955 1.291 . S
C956 C957 1.373 . S
C956 H969 0.929 . S
C957 C956 1.373 . S
C957 C958 1.396 . S
C957 C964 1.403 . S
C958 C948 1.476 . S
C958 N953 1.318 . S
C958 C957 1.396 . S
H959 C954 0.929 . S
O960 Mn936 2.385 . S
O960 C938 1.234 . S
O961 Mn936 2.209 . S
O961 Mn937 2.215 . S
O961 C938 1.283 . S
O962 Mn936 2.094 . S
O962 C940 1.240 . S
O963 Mn937 2.117 . S
O963 C940 1.264 . S
C964 C957 1.403 . S
C964 C965 1.399 . S
C964 H970 0.929 . S
C965 C945 1.449 . S
C965 C964 1.399 . S
C965 H971 0.930 . S
H966 C946 0.931 . S
H967 C947 0.930 . S
H968 C955 0.931 . S
H969 C956 0.929 . S
H970 C964 0.929 . S
H971 C965 0.930 . S
Mn972 O977 2.095 . S
Mn972 O987 2.162 . S
Mn972 O988 2.297 . S
Mn972 O996 2.385 . S
Mn972 O997 2.209 . S
Mn972 O998 2.094 . S
Mn973 O978 2.121 . S
Mn973 N980 2.257 . S
Mn973 N989 2.282 . S
Mn973 O997 2.215 . S
Mn973 O999 2.117 . S
C974 O996 1.234 . S
C974 O997 1.283 . S
C975 O987 1.281 . S
C975 O988 1.236 . S
C976 O998 1.240 . S
C976 O999 1.264 . S
O977 Mn972 2.095 . S
O977 C986 1.250 . S
O978 Mn973 2.121 . S
O978 C986 1.258 . S
C979 N980 1.326 . S
C979 C983 1.460 . S
C979 H985 0.929 . S
N980 Mn973 2.257 . S
N980 C979 1.326 . S
N980 C984 1.362 . S
C981 C982 1.258 . S
C981 C984 1.429 1_545 S
C981 C1001 1.451 . S
C982 C981 1.258 . S
C982 C983 1.477 1_545 S
C982 H1002 0.931 . S
C983 C979 1.460 . S
C983 C982 1.477 1_565 S
C983 H1003 0.930 . S
C984 N980 1.362 . S
C984 C981 1.429 1_565 S
C984 C994 1.476 . S
H985 C979 0.929 . S
C986 O977 1.250 . S
C986 O978 1.258 . S
O987 Mn972 2.162 . S
O987 C975 1.281 . S
O988 Mn972 2.297 . S
O988 C975 1.236 . S
N989 Mn973 2.282 . S
N989 C990 1.328 . S
N989 C994 1.318 . S
C990 N989 1.328 . S
C990 C991 1.457 . S
C990 H995 0.929 . S
C991 C990 1.457 . S
C991 C992 1.291 . S
C991 H1004 0.931 . S
C992 C991 1.291 . S
C992 C993 1.373 . S
C992 H1005 0.929 1_565 S
C993 C992 1.373 . S
C993 C994 1.396 . S
C993 C1000 1.403 1_565 S
C994 C984 1.476 . S
C994 N989 1.318 . S
C994 C993 1.396 . S
H995 C990 0.929 . S
O996 Mn972 2.385 . S
O996 C974 1.234 . S
O997 Mn972 2.209 . S
O997 Mn973 2.215 . S
O997 C974 1.283 . S
O998 Mn972 2.094 . S
O998 C976 1.240 . S
O999 Mn973 2.117 . S
O999 C976 1.264 . S
C1000 C993 1.403 1_545 S
C1000 C1001 1.399 . S
C1000 H1006 0.929 . S
C1001 C981 1.451 . S
C1001 C1000 1.399 . S
C1001 H1007 0.930 . S
H1002 C982 0.931 . S
H1003 C983 0.930 . S
H1004 C991 0.931 . S
H1005 C992 0.929 1_545 S
H1006 C1000 0.929 . S
H1007 C1001 0.930 . S
Mn1008 O1013 2.095 . S
Mn1008 O1023 2.162 . S
Mn1008 O1024 2.297 . S
Mn1008 O1032 2.385 . S
Mn1008 O1033 2.209 . S
Mn1008 O1034 2.094 . S
Mn1009 O1014 2.121 . S
Mn1009 N1016 2.257 . S
Mn1009 N1025 2.282 . S
Mn1009 O1033 2.215 . S
Mn1009 O1035 2.117 . S
C1010 O1032 1.234 . S
C1010 O1033 1.283 . S
C1011 O1023 1.281 . S
C1011 O1024 1.236 . S
C1012 O1034 1.240 . S
C1012 O1035 1.264 . S
O1013 Mn1008 2.095 . S
O1013 C1022 1.250 . S
O1014 Mn1009 2.121 . S
O1014 C1022 1.258 . S
C1015 N1016 1.326 . S
C1015 C1019 1.460 . S
C1015 H1021 0.929 . S
N1016 Mn1009 2.257 . S
N1016 C1015 1.326 . S
N1016 C1020 1.362 . S
C1017 C1018 1.258 . S
C1017 C1020 1.429 1_655 S
C1017 C1037 1.450 . S
C1018 C1017 1.258 . S
C1018 C1019 1.477 1_655 S
C1018 H1038 0.931 . S
C1019 C1015 1.460 . S
C1019 C1018 1.477 1_455 S
C1019 H1039 0.930 . S
C1020 N1016 1.362 . S
C1020 C1017 1.429 1_455 S
C1020 C1030 1.476 . S
H1021 C1015 0.929 . S
C1022 O1013 1.250 . S
C1022 O1014 1.258 . S
O1023 Mn1008 2.162 . S
O1023 C1011 1.281 . S
O1024 Mn1008 2.297 . S
O1024 C1011 1.236 . S
N1025 Mn1009 2.282 . S
N1025 C1026 1.328 . S
N1025 C1030 1.318 . S
C1026 N1025 1.328 . S
C1026 C1027 1.457 . S
C1026 H1031 0.929 . S
C1027 C1026 1.457 . S
C1027 C1028 1.291 . S
C1027 H1040 0.931 . S
C1028 C1027 1.291 . S
C1028 C1029 1.373 . S
C1028 H1041 0.929 1_455 S
C1029 C1028 1.373 . S
C1029 C1030 1.396 . S
C1029 C1036 1.403 1_455 S
C1030 C1020 1.476 . S
C1030 N1025 1.318 . S
C1030 C1029 1.396 . S
H1031 C1026 0.929 . S
O1032 Mn1008 2.385 . S
O1032 C1010 1.234 . S
O1033 Mn1008 2.209 . S
O1033 Mn1009 2.215 . S
O1033 C1010 1.283 . S
O1034 Mn1008 2.094 . S
O1034 C1012 1.240 . S
O1035 Mn1009 2.117 . S
O1035 C1012 1.264 . S
C1036 C1029 1.403 1_655 S
C1036 C1037 1.399 . S
C1036 H1042 0.929 . S
C1037 C1017 1.450 . S
C1037 C1036 1.399 . S
C1037 H1043 0.930 . S
H1038 C1018 0.931 . S
H1039 C1019 0.930 . S
H1040 C1027 0.931 . S
H1041 C1028 0.929 1_655 S
H1042 C1036 0.929 . S
H1043 C1037 0.930 . S
Mn1044 O1049 2.095 . S
Mn1044 O1059 2.162 . S
Mn1044 O1060 2.297 . S
Mn1044 O1068 2.385 . S
Mn1044 O1069 2.209 . S
Mn1044 O1070 2.094 . S
Mn1045 O1050 2.121 . S
Mn1045 N1052 2.257 . S
Mn1045 N1061 2.282 . S
Mn1045 O1069 2.215 . S
Mn1045 O1071 2.117 . S
C1046 O1068 1.234 . S
C1046 O1069 1.283 . S
C1047 O1059 1.281 . S
C1047 O1060 1.236 . S
C1048 O1070 1.240 . S
C1048 O1071 1.264 . S
O1049 Mn1044 2.095 . S
O1049 C1058 1.250 . S
O1050 Mn1045 2.121 . S
O1050 C1058 1.258 . S
C1051 N1052 1.326 . S
C1051 C1055 1.460 . S
C1051 H1057 0.929 . S
N1052 Mn1045 2.257 . S
N1052 C1051 1.326 . S
N1052 C1056 1.362 . S
C1053 C1054 1.258 . S
C1053 C1056 1.431 . S
C1053 C1073 1.449 . S
C1054 C1053 1.258 . S
C1054 C1055 1.477 . S
C1054 H1074 0.931 . S
C1055 C1051 1.460 . S
C1055 C1054 1.477 . S
C1055 H1075 0.930 . S
C1056 N1052 1.362 . S
C1056 C1053 1.431 . S
C1056 C1066 1.476 . S
H1057 C1051 0.929 . S
C1058 O1049 1.250 . S
C1058 O1050 1.258 . S
O1059 Mn1044 2.162 . S
O1059 C1047 1.281 . S
O1060 Mn1044 2.297 . S
O1060 C1047 1.236 . S
N1061 Mn1045 2.282 . S
N1061 C1062 1.328 . S
N1061 C1066 1.318 . S
C1062 N1061 1.328 . S
C1062 C1063 1.457 . S
C1062 H1067 0.929 . S
C1063 C1062 1.457 . S
C1063 C1064 1.291 . S
C1063 H1076 0.931 . S
C1064 C1063 1.291 . S
C1064 C1065 1.373 . S
C1064 H1077 0.929 . S
C1065 C1064 1.373 . S
C1065 C1066 1.396 . S
C1065 C1072 1.403 . S
C1066 C1056 1.476 . S
C1066 N1061 1.318 . S
C1066 C1065 1.396 . S
H1067 C1062 0.929 . S
O1068 Mn1044 2.385 . S
O1068 C1046 1.234 . S
O1069 Mn1044 2.209 . S
O1069 Mn1045 2.215 . S
O1069 C1046 1.283 . S
O1070 Mn1044 2.094 . S
O1070 C1048 1.240 . S
O1071 Mn1045 2.117 . S
O1071 C1048 1.264 . S
C1072 C1065 1.403 . S
C1072 C1073 1.399 . S
C1072 H1078 0.929 . S
C1073 C1053 1.449 . S
C1073 C1072 1.399 . S
C1073 H1079 0.930 . S
H1074 C1054 0.931 . S
H1075 C1055 0.930 . S
H1076 C1063 0.931 . S
H1077 C1064 0.929 . S
H1078 C1072 0.929 . S
H1079 C1073 0.930 . S
Mn1080 O1085 2.095 . S
Mn1080 O1095 2.162 . S
Mn1080 O1096 2.297 . S
Mn1080 O1104 2.385 . S
Mn1080 O1105 2.209 . S
Mn1080 O1106 2.094 . S
Mn1081 O1086 2.121 . S
Mn1081 N1088 2.257 . S
Mn1081 N1097 2.282 . S
Mn1081 O1105 2.215 . S
Mn1081 O1107 2.117 . S
C1082 O1104 1.234 . S
C1082 O1105 1.283 . S
C1083 O1095 1.281 . S
C1083 O1096 1.236 . S
C1084 O1106 1.240 . S
C1084 O1107 1.264 . S
O1085 Mn1080 2.095 . S
O1085 C1094 1.250 . S
O1086 Mn1081 2.121 . S
O1086 C1094 1.258 . S
C1087 N1088 1.326 . S
C1087 C1091 1.460 . S
C1087 H1093 0.929 . S
N1088 Mn1081 2.257 . S
N1088 C1087 1.326 . S
N1088 C1092 1.362 . S
C1089 C1090 1.258 . S
C1089 C1092 1.429 1_655 S
C1089 C1109 1.451 . S
C1090 C1089 1.258 . S
C1090 C1091 1.477 1_655 S
C1090 H1110 0.931 . S
C1091 C1087 1.460 . S
C1091 C1090 1.477 1_455 S
C1091 H1111 0.930 . S
C1092 N1088 1.362 . S
C1092 C1089 1.429 1_455 S
C1092 C1102 1.476 . S
H1093 C1087 0.929 . S
C1094 O1085 1.250 . S
C1094 O1086 1.258 . S
O1095 Mn1080 2.162 . S
O1095 C1083 1.281 . S
O1096 Mn1080 2.297 . S
O1096 C1083 1.236 . S
N1097 Mn1081 2.282 . S
N1097 C1098 1.328 . S
N1097 C1102 1.318 . S
C1098 N1097 1.328 . S
C1098 C1099 1.457 . S
C1098 H1103 0.929 . S
C1099 C1098 1.457 . S
C1099 C1100 1.291 . S
C1099 H1112 0.931 . S
C1100 C1099 1.291 . S
C1100 C1101 1.373 . S
C1100 H1113 0.929 1_455 S
C1101 C1100 1.373 . S
C1101 C1102 1.396 . S
C1101 C1108 1.403 1_455 S
C1102 C1092 1.476 . S
C1102 N1097 1.318 . S
C1102 C1101 1.396 . S
H1103 C1098 0.929 . S
O1104 Mn1080 2.385 . S
O1104 C1082 1.234 . S
O1105 Mn1080 2.209 . S
O1105 Mn1081 2.215 . S
O1105 C1082 1.283 . S
O1106 Mn1080 2.094 . S
O1106 C1084 1.240 . S
O1107 Mn1081 2.117 . S
O1107 C1084 1.264 . S
C1108 C1101 1.403 1_655 S
C1108 C1109 1.399 . S
C1108 H1114 0.929 . S
C1109 C1089 1.451 . S
C1109 C1108 1.399 . S
C1109 H1115 0.930 . S
H1110 C1090 0.931 . S
H1111 C1091 0.930 . S
H1112 C1099 0.931 . S
H1113 C1100 0.929 1_655 S
H1114 C1108 0.929 . S
H1115 C1109 0.930 . S
Mn1116 O1121 2.095 . S
Mn1116 O1131 2.162 . S
Mn1116 O1132 2.297 . S
Mn1116 O1140 2.385 . S
Mn1116 O1141 2.209 . S
Mn1116 O1142 2.094 . S
Mn1117 O1122 2.121 . S
Mn1117 N1124 2.257 . S
Mn1117 N1133 2.282 . S
Mn1117 O1141 2.215 . S
Mn1117 O1143 2.117 . S
C1118 O1140 1.234 . S
C1118 O1141 1.283 . S
C1119 O1131 1.281 . S
C1119 O1132 1.236 . S
C1120 O1142 1.240 . S
C1120 O1143 1.264 . S
O1121 Mn1116 2.095 . S
O1121 C1130 1.250 . S
O1122 Mn1117 2.121 . S
O1122 C1130 1.258 . S
C1123 N1124 1.326 . S
C1123 C1127 1.460 . S
C1123 H1129 0.929 . S
N1124 Mn1117 2.257 . S
N1124 C1123 1.326 . S
N1124 C1128 1.362 . S
C1125 C1126 1.258 . S
C1125 C1128 1.431 . S
C1125 C1145 1.449 . S
C1126 C1125 1.258 . S
C1126 C1127 1.477 . S
C1126 H1146 0.931 . S
C1127 C1123 1.460 . S
C1127 C1126 1.477 . S
C1127 H1147 0.930 . S
C1128 N1124 1.362 . S
C1128 C1125 1.431 . S
C1128 C1138 1.476 . S
H1129 C1123 0.929 . S
C1130 O1121 1.250 . S
C1130 O1122 1.258 . S
O1131 Mn1116 2.162 . S
O1131 C1119 1.281 . S
O1132 Mn1116 2.297 . S
O1132 C1119 1.236 . S
N1133 Mn1117 2.282 . S
N1133 C1134 1.328 . S
N1133 C1138 1.318 . S
C1134 N1133 1.328 . S
C1134 C1135 1.457 . S
C1134 H1139 0.929 . S
C1135 C1134 1.457 . S
C1135 C1136 1.291 . S
C1135 H1148 0.931 . S
C1136 C1135 1.291 . S
C1136 C1137 1.373 . S
C1136 H1149 0.929 . S
C1137 C1136 1.373 . S
C1137 C1138 1.396 . S
C1137 C1144 1.403 . S
C1138 C1128 1.476 . S
C1138 N1133 1.318 . S
C1138 C1137 1.396 . S
H1139 C1134 0.929 . S
O1140 Mn1116 2.385 . S
O1140 C1118 1.234 . S
O1141 Mn1116 2.209 . S
O1141 Mn1117 2.215 . S
O1141 C1118 1.283 . S
O1142 Mn1116 2.094 . S
O1142 C1120 1.240 . S
O1143 Mn1117 2.117 . S
O1143 C1120 1.264 . S
C1144 C1137 1.403 . S
C1144 C1145 1.399 . S
C1144 H1150 0.929 . S
C1145 C1125 1.449 . S
C1145 C1144 1.399 . S
C1145 H1151 0.930 . S
H1146 C1126 0.931 . S
H1147 C1127 0.930 . S
H1148 C1135 0.931 . S
H1149 C1136 0.929 . S
H1150 C1144 0.929 . S
H1151 C1145 0.930 . S
Mn1152 O1157 2.095 . S
Mn1152 O1167 2.162 . S
Mn1152 O1168 2.297 . S
Mn1152 O1176 2.385 . S
Mn1152 O1177 2.209 . S
Mn1152 O1178 2.094 . S
Mn1153 O1158 2.121 . S
Mn1153 N1160 2.257 . S
Mn1153 N1169 2.282 . S
Mn1153 O1177 2.215 . S
Mn1153 O1179 2.117 . S
C1154 O1176 1.234 . S
C1154 O1177 1.283 . S
C1155 O1167 1.281 . S
C1155 O1168 1.236 . S
C1156 O1178 1.240 . S
C1156 O1179 1.264 . S
O1157 Mn1152 2.095 . S
O1157 C1166 1.250 . S
O1158 Mn1153 2.121 . S
O1158 C1166 1.258 . S
C1159 N1160 1.326 . S
C1159 C1163 1.460 . S
C1159 H1165 0.929 . S
N1160 Mn1153 2.257 . S
N1160 C1159 1.326 . S
N1160 C1164 1.362 . S
C1161 C1162 1.258 . S
C1161 C1164 1.430 1_545 S
C1161 C1181 1.450 . S
C1162 C1161 1.258 . S
C1162 C1163 1.477 1_545 S
C1162 H1182 0.931 . S
C1163 C1159 1.460 . S
C1163 C1162 1.477 1_565 S
C1163 H1183 0.930 . S
C1164 N1160 1.362 . S
C1164 C1161 1.430 1_565 S
C1164 C1174 1.476 . S
H1165 C1159 0.929 . S
C1166 O1157 1.250 . S
C1166 O1158 1.258 . S
O1167 Mn1152 2.162 . S
O1167 C1155 1.281 . S
O1168 Mn1152 2.297 . S
O1168 C1155 1.236 . S
N1169 Mn1153 2.282 . S
N1169 C1170 1.328 . S
N1169 C1174 1.318 . S
C1170 N1169 1.328 . S
C1170 C1171 1.457 . S
C1170 H1175 0.929 . S
C1171 C1170 1.457 . S
C1171 C1172 1.291 . S
C1171 H1184 0.931 . S
C1172 C1171 1.291 . S
C1172 C1173 1.373 . S
C1172 H1185 0.929 1_565 S
C1173 C1172 1.373 . S
C1173 C1174 1.396 . S
C1173 C1180 1.403 1_565 S
C1174 C1164 1.476 . S
C1174 N1169 1.318 . S
C1174 C1173 1.396 . S
H1175 C1170 0.929 . S
O1176 Mn1152 2.385 . S
O1176 C1154 1.234 . S
O1177 Mn1152 2.209 . S
O1177 Mn1153 2.215 . S
O1177 C1154 1.283 . S
O1178 Mn1152 2.094 . S
O1178 C1156 1.240 . S
O1179 Mn1153 2.117 . S
O1179 C1156 1.264 . S
C1180 C1173 1.403 1_545 S
C1180 C1181 1.399 . S
C1180 H1186 0.929 . S
C1181 C1161 1.450 . S
C1181 C1180 1.399 . S
C1181 H1187 0.930 . S
H1182 C1162 0.931 . S
H1183 C1163 0.930 . S
H1184 C1171 0.931 . S
H1185 C1172 0.929 1_545 S
H1186 C1180 0.929 . S
H1187 C1181 0.930 . S
Mn1188 O1193 2.095 . S
Mn1188 O1203 2.162 . S
Mn1188 O1204 2.297 . S
Mn1188 O1212 2.385 . S
Mn1188 O1213 2.209 . S
Mn1188 O1214 2.094 . S
Mn1189 O1194 2.121 1_556 S
Mn1189 N1196 2.264 . S
Mn1189 N1205 2.282 . S
Mn1189 O1213 2.215 . S
Mn1189 O1215 2.117 . S
C1190 O1212 1.234 . S
C1190 O1213 1.283 . S
C1191 O1203 1.281 . S
C1191 O1204 1.236 . S
C1192 O1214 1.240 . S
C1192 O1215 1.264 . S
O1193 Mn1188 2.095 . S
O1193 C1202 1.250 1_556 S
O1194 Mn1189 2.121 1_554 S
O1194 C1202 1.258 . S
C1195 N1196 1.313 1_554 S
C1195 C1199 1.460 . S
C1195 H1201 0.929 . S
N1196 Mn1189 2.264 . S
N1196 C1195 1.313 1_556 S
N1196 C1200 1.370 . S
C1197 C1198 1.258 1_556 S
C1197 C1200 1.431 . S
C1197 C1217 1.449 . S
C1198 C1197 1.258 1_554 S
C1198 C1199 1.477 . S
C1198 H1218 0.931 . S
C1199 C1195 1.460 . S
C1199 C1198 1.477 . S
C1199 H1219 0.930 . S
C1200 N1196 1.370 . S
C1200 C1197 1.431 . S
C1200 C1210 1.476 . S
H1201 C1195 0.929 . S
C1202 O1193 1.250 1_554 S
C1202 O1194 1.258 . S
O1203 Mn1188 2.162 . S
O1203 C1191 1.281 . S
O1204 Mn1188 2.297 . S
O1204 C1191 1.236 . S
N1205 Mn1189 2.282 . S
N1205 C1206 1.328 . S
N1205 C1210 1.318 . S
C1206 N1205 1.328 . S
C1206 C1207 1.457 . S
C1206 H1211 0.929 . S
C1207 C1206 1.457 . S
C1207 C1208 1.291 . S
C1207 H1220 0.931 . S
C1208 C1207 1.291 . S
C1208 C1209 1.373 . S
C1208 H1221 0.929 . S
C1209 C1208 1.373 . S
C1209 C1210 1.396 . S
C1209 C1216 1.403 . S
C1210 C1200 1.476 . S
C1210 N1205 1.318 . S
C1210 C1209 1.396 . S
H1211 C1206 0.929 . S
O1212 Mn1188 2.385 . S
O1212 C1190 1.234 . S
O1213 Mn1188 2.209 . S
O1213 Mn1189 2.215 . S
O1213 C1190 1.283 . S
O1214 Mn1188 2.094 . S
O1214 C1192 1.240 . S
O1215 Mn1189 2.117 . S
O1215 C1192 1.264 . S
C1216 C1209 1.403 . S
C1216 C1217 1.399 . S
C1216 H1222 0.929 . S
C1217 C1197 1.449 . S
C1217 C1216 1.399 . S
C1217 H1223 0.930 . S
H1218 C1198 0.931 . S
H1219 C1199 0.930 . S
H1220 C1207 0.931 . S
H1221 C1208 0.929 . S
H1222 C1216 0.929 . S
H1223 C1217 0.930 . S
Mn1224 O1229 2.095 . S
Mn1224 O1239 2.162 . S
Mn1224 O1240 2.297 . S
Mn1224 O1248 2.385 . S
Mn1224 O1249 2.209 . S
Mn1224 O1250 2.094 . S
Mn1225 O1230 2.121 1_556 S
Mn1225 N1232 2.264 . S
Mn1225 N1241 2.282 . S
Mn1225 O1249 2.215 . S
Mn1225 O1251 2.117 . S
C1226 O1248 1.234 . S
C1226 O1249 1.283 . S
C1227 O1239 1.281 . S
C1227 O1240 1.236 . S
C1228 O1250 1.240 . S
C1228 O1251 1.264 . S
O1229 Mn1224 2.095 . S
O1229 C1238 1.250 1_556 S
O1230 Mn1225 2.121 1_554 S
O1230 C1238 1.258 . S
C1231 N1232 1.313 1_554 S
C1231 C1235 1.460 . S
C1231 H1237 0.929 . S
N1232 Mn1225 2.264 . S
N1232 C1231 1.313 1_556 S
N1232 C1236 1.370 . S
C1233 C1234 1.258 1_556 S
C1233 C1236 1.431 . S
C1233 C1253 1.449 . S
C1234 C1233 1.258 1_554 S
C1234 C1235 1.477 . S
C1234 H1254 0.931 . S
C1235 C1231 1.460 . S
C1235 C1234 1.477 . S
C1235 H1255 0.930 . S
C1236 N1232 1.370 . S
C1236 C1233 1.431 . S
C1236 C1246 1.476 . S
H1237 C1231 0.929 . S
C1238 O1229 1.250 1_554 S
C1238 O1230 1.258 . S
O1239 Mn1224 2.162 . S
O1239 C1227 1.281 . S
O1240 Mn1224 2.297 . S
O1240 C1227 1.236 . S
N1241 Mn1225 2.282 . S
N1241 C1242 1.328 . S
N1241 C1246 1.318 . S
C1242 N1241 1.328 . S
C1242 C1243 1.457 . S
C1242 H1247 0.929 . S
C1243 C1242 1.457 . S
C1243 C1244 1.291 . S
C1243 H1256 0.931 . S
C1244 C1243 1.291 . S
C1244 C1245 1.373 . S
C1244 H1257 0.929 . S
C1245 C1244 1.373 . S
C1245 C1246 1.396 . S
C1245 C1252 1.403 . S
C1246 C1236 1.476 . S
C1246 N1241 1.318 . S
C1246 C1245 1.396 . S
H1247 C1242 0.929 . S
O1248 Mn1224 2.385 . S
O1248 C1226 1.234 . S
O1249 Mn1224 2.209 . S
O1249 Mn1225 2.215 . S
O1249 C1226 1.283 . S
O1250 Mn1224 2.094 . S
O1250 C1228 1.240 . S
O1251 Mn1225 2.117 . S
O1251 C1228 1.264 . S
C1252 C1245 1.403 . S
C1252 C1253 1.399 . S
C1252 H1258 0.929 . S
C1253 C1233 1.449 . S
C1253 C1252 1.399 . S
C1253 H1259 0.930 . S
H1254 C1234 0.931 . S
H1255 C1235 0.930 . S
H1256 C1243 0.931 . S
H1257 C1244 0.929 . S
H1258 C1252 0.929 . S
H1259 C1253 0.930 . S
Mn1260 O1265 2.095 . S
Mn1260 O1275 2.162 . S
Mn1260 O1276 2.297 . S
Mn1260 O1284 2.385 . S
Mn1260 O1285 2.209 . S
Mn1260 O1286 2.094 . S
Mn1261 O1266 2.121 1_556 S
Mn1261 N1268 2.264 . S
Mn1261 N1277 2.282 . S
Mn1261 O1285 2.215 . S
Mn1261 O1287 2.117 . S
C1262 O1284 1.234 . S
C1262 O1285 1.283 . S
C1263 O1275 1.281 . S
C1263 O1276 1.236 . S
C1264 O1286 1.240 . S
C1264 O1287 1.264 . S
O1265 Mn1260 2.095 . S
O1265 C1274 1.250 1_556 S
O1266 Mn1261 2.121 1_554 S
O1266 C1274 1.258 . S
C1267 N1268 1.312 1_554 S
C1267 C1271 1.460 . S
C1267 H1273 0.929 . S
N1268 Mn1261 2.264 . S
N1268 C1267 1.312 1_556 S
N1268 C1272 1.370 . S
C1269 C1270 1.258 1_556 S
C1269 C1272 1.431 . S
C1269 C1289 1.449 . S
C1270 C1269 1.258 1_554 S
C1270 C1271 1.477 . S
C1270 H1290 0.931 . S
C1271 C1267 1.460 . S
C1271 C1270 1.477 . S
C1271 H1291 0.930 . S
C1272 N1268 1.370 . S
C1272 C1269 1.431 . S
C1272 C1282 1.476 . S
H1273 C1267 0.929 . S
C1274 O1265 1.250 1_554 S
C1274 O1266 1.258 . S
O1275 Mn1260 2.162 . S
O1275 C1263 1.281 . S
O1276 Mn1260 2.297 . S
O1276 C1263 1.236 . S
N1277 Mn1261 2.282 . S
N1277 C1278 1.328 . S
N1277 C1282 1.318 . S
C1278 N1277 1.328 . S
C1278 C1279 1.457 . S
C1278 H1283 0.929 . S
C1279 C1278 1.457 . S
C1279 C1280 1.291 . S
C1279 H1292 0.931 . S
C1280 C1279 1.291 . S
C1280 C1281 1.373 . S
C1280 H1293 0.929 . S
C1281 C1280 1.373 . S
C1281 C1282 1.396 . S
C1281 C1288 1.403 . S
C1282 C1272 1.476 . S
C1282 N1277 1.318 . S
C1282 C1281 1.396 . S
H1283 C1278 0.929 . S
O1284 Mn1260 2.385 . S
O1284 C1262 1.234 . S
O1285 Mn1260 2.209 . S
O1285 Mn1261 2.215 . S
O1285 C1262 1.283 . S
O1286 Mn1260 2.094 . S
O1286 C1264 1.240 . S
O1287 Mn1261 2.117 . S
O1287 C1264 1.264 . S
C1288 C1281 1.403 . S
C1288 C1289 1.399 . S
C1288 H1294 0.929 . S
C1289 C1269 1.449 . S
C1289 C1288 1.399 . S
C1289 H1295 0.930 . S
H1290 C1270 0.931 . S
H1291 C1271 0.930 . S
H1292 C1279 0.931 . S
H1293 C1280 0.929 . S
H1294 C1288 0.929 . S
H1295 C1289 0.930 . S
C1296 C1297 1.387 . S
C1296 H1300 0.950 . S
C1296 C1305 1.390 1_565 S
C1297 C1296 1.387 . S
C1297 C1299 1.387 . S
H1298 C1305 0.950 . S
C1299 C1297 1.387 . S
C1299 C1301 1.390 1_565 S
C1299 H1303 0.950 . S
H1300 C1296 0.950 . S
C1301 C1299 1.390 1_545 S
C1301 C1302 1.387 . S
C1301 H1304 0.950 . S
C1302 C1301 1.387 . S
C1302 C1305 1.387 . S
H1303 C1299 0.950 . S
H1304 C1301 0.950 . S
C1305 C1296 1.390 1_545 S
C1305 H1298 0.950 . S
C1305 C1302 1.387 . S
C1306 C1307 1.387 . S
C1306 H1310 0.950 . S
C1306 C1315 1.390 . S
C1307 C1306 1.387 . S
C1307 C1309 1.387 1_455 S
H1308 C1315 0.950 . S
C1309 C1307 1.387 1_655 S
C1309 C1311 1.390 . S
C1309 H1313 0.950 . S
H1310 C1306 0.950 . S
C1311 C1309 1.390 . S
C1311 C1312 1.387 . S
C1311 H1314 0.950 . S
C1312 C1311 1.387 . S
C1312 C1315 1.387 1_655 S
H1313 C1309 0.950 . S
H1314 C1311 0.950 . S
C1315 C1306 1.390 . S
C1315 H1308 0.950 . S
C1315 C1312 1.387 1_455 S
C1316 C1317 1.387 . S
C1316 H1320 0.950 . S
C1316 C1325 1.390 . S
C1317 C1316 1.387 . S
C1317 C1319 1.387 . S
H1318 C1325 0.950 . S
C1319 C1317 1.387 . S
C1319 C1321 1.390 . S
C1319 H1323 0.950 . S
H1320 C1316 0.950 . S
C1321 C1319 1.390 . S
C1321 C1322 1.387 . S
C1321 H1324 0.950 . S
C1322 C1321 1.387 . S
C1322 C1325 1.387 . S
H1323 C1319 0.950 . S
H1324 C1321 0.950 . S
C1325 C1316 1.390 . S
C1325 H1318 0.950 . S
C1325 C1322 1.387 . S
C1326 C1327 1.387 . S
C1326 H1330 0.950 . S
C1326 C1335 1.390 1_565 S
C1327 C1326 1.387 . S
C1327 C1329 1.387 . S
H1328 C1335 0.950 . S
C1329 C1327 1.387 . S
C1329 C1331 1.390 1_565 S
C1329 H1333 0.950 . S
H1330 C1326 0.950 . S
C1331 C1329 1.390 1_545 S
C1331 C1332 1.387 . S
C1331 H1334 0.950 . S
C1332 C1331 1.387 . S
C1332 C1335 1.387 . S
H1333 C1329 0.950 . S
H1334 C1331 0.950 . S
C1335 C1326 1.390 1_545 S
C1335 H1328 0.950 . S
C1335 C1332 1.387 . S
C1336 C1337 1.387 . S
C1336 H1340 0.950 . S
C1336 C1345 1.390 1_455 S
C1337 C1336 1.387 . S
C1337 C1339 1.387 . S
H1338 C1345 0.950 . S
C1339 C1337 1.387 . S
C1339 C1341 1.390 1_455 S
C1339 H1343 0.950 . S
H1340 C1336 0.950 . S
C1341 C1339 1.390 1_655 S
C1341 C1342 1.387 . S
C1341 H1344 0.950 . S
C1342 C1341 1.387 . S
C1342 C1345 1.387 . S
H1343 C1339 0.950 . S
H1344 C1341 0.950 . S
C1345 C1336 1.390 1_655 S
C1345 H1338 0.950 . S
C1345 C1342 1.387 . S
C1346 C1347 1.387 . S
C1346 H1350 0.950 . S
C1346 C1355 1.390 . S
C1347 C1346 1.387 . S
C1347 C1349 1.387 . S
H1348 C1355 0.950 . S
C1349 C1347 1.387 . S
C1349 C1351 1.390 . S
C1349 H1353 0.950 . S
H1350 C1346 0.950 . S
C1351 C1349 1.390 . S
C1351 C1352 1.387 . S
C1351 H1354 0.950 . S
C1352 C1351 1.387 . S
C1352 C1355 1.387 . S
H1353 C1349 0.950 . S
H1354 C1351 0.950 . S
C1355 C1346 1.390 . S
C1355 H1348 0.950 . S
C1355 C1352 1.387 . S
C1356 C1357 1.387 . S
C1356 H1360 0.950 . S
C1356 C1365 1.390 . S
C1357 C1356 1.387 . S
C1357 C1359 1.387 . S
H1358 C1365 0.950 . S
C1359 C1357 1.387 . S
C1359 C1361 1.390 . S
C1359 H1363 0.950 . S
H1360 C1356 0.950 . S
C1361 C1359 1.390 . S
C1361 C1362 1.387 . S
C1361 H1364 0.950 . S
C1362 C1361 1.387 . S
C1362 C1365 1.387 . S
H1363 C1359 0.950 . S
H1364 C1361 0.950 . S
C1365 C1356 1.390 . S
C1365 H1358 0.950 . S
C1365 C1362 1.387 . S
C1366 C1367 1.387 . S
C1366 H1370 0.950 . S
C1366 C1375 1.390 . S
C1367 C1366 1.387 . S
C1367 C1369 1.387 . S
H1368 C1375 0.950 . S
C1369 C1367 1.387 . S
C1369 C1371 1.390 . S
C1369 H1373 0.950 . S
H1370 C1366 0.950 . S
C1371 C1369 1.390 . S
C1371 C1372 1.387 . S
C1371 H1374 0.950 . S
C1372 C1371 1.387 . S
C1372 C1375 1.387 . S
H1373 C1369 0.950 . S
H1374 C1371 0.950 . S
C1375 C1366 1.390 . S
C1375 H1368 0.950 . S
C1375 C1372 1.387 . S
C1376 C1377 1.387 . S
C1376 H1380 0.950 . S
C1376 C1385 1.390 . S
C1377 C1376 1.387 . S
C1377 C1379 1.387 . S
H1378 C1385 0.950 . S
C1379 C1377 1.387 . S
C1379 C1381 1.390 . S
C1379 H1383 0.950 . S
H1380 C1376 0.950 . S
C1381 C1379 1.390 . S
C1381 C1382 1.387 . S
C1381 H1384 0.950 . S
C1382 C1381 1.387 . S
C1382 C1385 1.387 . S
H1383 C1379 0.950 . S
H1384 C1381 0.950 . S
C1385 C1376 1.390 . S
C1385 H1378 0.950 . S
C1385 C1382 1.387 . S
C1386 C1387 1.387 . S
C1386 H1390 0.950 . S
C1386 C1395 1.390 . S
C1387 C1386 1.387 . S
C1387 C1389 1.387 . S
H1388 C1395 0.950 . S
C1389 C1387 1.387 . S
C1389 C1391 1.390 . S
C1389 H1393 0.950 . S
H1390 C1386 0.950 . S
C1391 C1389 1.390 . S
C1391 C1392 1.387 . S
C1391 H1394 0.950 . S
C1392 C1391 1.387 . S
C1392 C1395 1.387 . S
H1393 C1389 0.950 . S
H1394 C1391 0.950 . S
C1395 C1386 1.390 . S
C1395 H1388 0.950 . S
C1395 C1392 1.387 . S
C1396 C1397 1.387 . S
C1396 H1400 0.950 . S
C1396 C1405 1.390 . S
C1397 C1396 1.387 . S
C1397 C1399 1.387 . S
H1398 C1405 0.950 . S
C1399 C1397 1.387 . S
C1399 C1401 1.390 . S
C1399 H1403 0.950 . S
H1400 C1396 0.950 . S
C1401 C1399 1.390 . S
C1401 C1402 1.387 . S
C1401 H1404 0.950 . S
C1402 C1401 1.387 . S
C1402 C1405 1.387 . S
H1403 C1399 0.950 . S
H1404 C1401 0.950 . S
C1405 C1396 1.390 . S
C1405 H1398 0.950 . S
C1405 C1402 1.387 . S
C1406 C1407 1.387 . S
C1406 H1410 0.950 . S
C1406 C1415 1.390 . S
C1407 C1406 1.387 . S
C1407 C1409 1.387 . S
H1408 C1415 0.950 . S
C1409 C1407 1.387 . S
C1409 C1411 1.390 . S
C1409 H1413 0.950 . S
H1410 C1406 0.950 . S
C1411 C1409 1.390 . S
C1411 C1412 1.387 . S
C1411 H1414 0.950 . S
C1412 C1411 1.387 . S
C1412 C1415 1.387 . S
H1413 C1409 0.950 . S
H1414 C1411 0.950 . S
C1415 C1406 1.390 . S
C1415 H1408 0.950 . S
C1415 C1412 1.387 . S
C1416 C1417 1.387 . S
C1416 H1420 0.950 . S
C1416 C1425 1.390 . S
C1417 C1416 1.387 . S
C1417 C1419 1.387 . S
H1418 C1425 0.950 . S
C1419 C1417 1.387 . S
C1419 C1421 1.390 . S
C1419 H1423 0.950 . S
H1420 C1416 0.950 . S
C1421 C1419 1.390 . S
C1421 C1422 1.387 . S
C1421 H1424 0.950 . S
C1422 C1421 1.387 . S
C1422 C1425 1.387 . S
H1423 C1419 0.950 . S
H1424 C1421 0.950 . S
C1425 C1416 1.390 . S
C1425 H1418 0.950 . S
C1425 C1422 1.387 . S
C1426 C1427 1.387 . S
C1426 H1430 0.950 . S
C1426 C1435 1.390 . S
C1427 C1426 1.387 . S
C1427 C1429 1.387 . S
H1428 C1435 0.950 . S
C1429 C1427 1.387 . S
C1429 C1431 1.390 . S
C1429 H1433 0.950 . S
H1430 C1426 0.950 . S
C1431 C1429 1.390 . S
C1431 C1432 1.387 . S
C1431 H1434 0.950 . S
C1432 C1431 1.387 . S
C1432 C1435 1.387 . S
H1433 C1429 0.950 . S
H1434 C1431 0.950 . S
C1435 C1426 1.390 . S
C1435 H1428 0.950 . S
C1435 C1432 1.387 . S
C1436 C1437 1.387 . S
C1436 H1440 0.950 . S
C1436 C1445 1.390 . S
C1437 C1436 1.387 . S
C1437 C1439 1.387 . S
H1438 C1445 0.950 . S
C1439 C1437 1.387 . S
C1439 C1441 1.390 . S
C1439 H1443 0.950 . S
H1440 C1436 0.950 . S
C1441 C1439 1.390 . S
C1441 C1442 1.387 . S
C1441 H1444 0.950 . S
C1442 C1441 1.387 . S
C1442 C1445 1.387 . S
H1443 C1439 0.950 . S
H1444 C1441 0.950 . S
C1445 C1436 1.390 . S
C1445 H1438 0.950 . S
C1445 C1442 1.387 . S
C1446 C1447 1.387 . S
C1446 H1450 0.950 . S
C1446 C1455 1.390 . S
C1447 C1446 1.387 . S
C1447 C1449 1.387 . S
H1448 C1455 0.950 . S
C1449 C1447 1.387 . S
C1449 C1451 1.390 . S
C1449 H1453 0.950 . S
H1450 C1446 0.950 . S
C1451 C1449 1.390 . S
C1451 C1452 1.387 . S
C1451 H1454 0.950 . S
C1452 C1451 1.387 . S
C1452 C1455 1.387 . S
H1453 C1449 0.950 . S
H1454 C1451 0.950 . S
C1455 C1446 1.390 . S
C1455 H1448 0.950 . S
C1455 C1452 1.387 . S
C1456 C1457 1.387 . S
C1456 H1460 0.950 . S
C1456 C1465 1.390 . S
C1457 C1456 1.387 . S
C1457 C1459 1.387 . S
H1458 C1465 0.950 . S
C1459 C1457 1.387 . S
C1459 C1461 1.390 . S
C1459 H1463 0.950 . S
H1460 C1456 0.950 . S
C1461 C1459 1.390 . S
C1461 C1462 1.387 . S
C1461 H1464 0.950 . S
C1462 C1461 1.387 . S
C1462 C1465 1.387 . S
H1463 C1459 0.950 . S
H1464 C1461 0.950 . S
C1465 C1456 1.390 . S
C1465 H1458 0.950 . S
C1465 C1462 1.387 . S
C1466 C1467 1.387 . S
C1466 H1470 0.950 . S
C1466 C1475 1.390 . S
C1467 C1466 1.387 . S
C1467 C1469 1.387 . S
H1468 C1475 0.950 . S
C1469 C1467 1.387 . S
C1469 C1471 1.390 . S
C1469 H1473 0.950 . S
H1470 C1466 0.950 . S
C1471 C1469 1.390 . S
C1471 C1472 1.387 . S
C1471 H1474 0.950 . S
C1472 C1471 1.387 . S
C1472 C1475 1.387 . S
H1473 C1469 0.950 . S
H1474 C1471 0.950 . S
C1475 C1466 1.390 . S
C1475 H1468 0.950 . S
C1475 C1472 1.387 . S
C1476 C1477 1.387 . S
C1476 H1480 0.950 . S
C1476 C1485 1.390 1_566 S
C1477 C1476 1.387 . S
C1477 C1479 1.387 . S
H1478 C1485 0.950 . S
C1479 C1477 1.387 . S
C1479 C1481 1.390 1_566 S
C1479 H1483 0.950 . S
H1480 C1476 0.950 . S
C1481 C1479 1.390 1_544 S
C1481 C1482 1.387 . S
C1481 H1484 0.950 . S
C1482 C1481 1.387 . S
C1482 C1485 1.387 . S
H1483 C1479 0.950 . S
H1484 C1481 0.950 . S
C1485 C1476 1.390 1_544 S
C1485 H1478 0.950 . S
C1485 C1482 1.387 . S
C1486 C1487 1.387 . S
C1486 H1490 0.950 . S
C1486 C1495 1.390 1_654 S
C1487 C1486 1.387 . S
C1487 C1489 1.387 . S
H1488 C1495 0.950 . S
C1489 C1487 1.387 . S
C1489 C1491 1.390 1_654 S
C1489 H1493 0.950 . S
H1490 C1486 0.950 . S
C1491 C1489 1.390 1_456 S
C1491 C1492 1.387 . S
C1491 H1494 0.950 . S
C1492 C1491 1.387 . S
C1492 C1495 1.387 . S
H1493 C1489 0.950 . S
H1494 C1491 0.950 . S
C1495 C1486 1.390 1_456 S
C1495 H1488 0.950 . S
C1495 C1492 1.387 . S
C1496 C1497 1.387 . S
C1496 H1500 0.950 . S
C1496 C1505 1.390 1_556 S
C1497 C1496 1.387 . S
C1497 C1499 1.387 . S
H1498 C1505 0.950 . S
C1499 C1497 1.387 . S
C1499 C1501 1.390 1_556 S
C1499 H1503 0.950 . S
H1500 C1496 0.950 . S
C1501 C1499 1.390 1_554 S
C1501 C1502 1.387 . S
C1501 H1504 0.950 . S
C1502 C1501 1.387 . S
C1502 C1505 1.387 . S
H1503 C1499 0.950 . S
H1504 C1501 0.950 . S
C1505 C1496 1.390 1_554 S
C1505 H1498 0.950 . S
C1505 C1502 1.387 . S
C1506 C1507 1.387 . S
C1506 H1510 0.950 . S
C1506 C1515 1.390 1_566 S
C1507 C1506 1.387 . S
C1507 C1509 1.387 . S
H1508 C1515 0.950 . S
C1509 C1507 1.387 . S
C1509 C1511 1.390 1_566 S
C1509 H1513 0.950 . S
H1510 C1506 0.950 . S
C1511 C1509 1.390 1_544 S
C1511 C1512 1.387 . S
C1511 H1514 0.950 . S
C1512 C1511 1.387 . S
C1512 C1515 1.387 . S
H1513 C1509 0.950 . S
H1514 C1511 0.950 . S
C1515 C1506 1.390 1_544 S
C1515 H1508 0.950 . S
C1515 C1512 1.387 . S
C1516 C1517 1.387 1_655 S
C1516 H1520 0.950 . S
C1516 C1525 1.390 1_556 S
C1517 C1516 1.387 1_455 S
C1517 C1519 1.387 . S
H1518 C1525 0.950 . S
C1519 C1517 1.387 . S
C1519 C1521 1.390 1_556 S
C1519 H1523 0.950 . S
H1520 C1516 0.950 . S
C1521 C1519 1.390 1_554 S
C1521 C1522 1.387 1_455 S
C1521 H1524 0.950 . S
C1522 C1521 1.387 1_655 S
C1522 C1525 1.387 . S
H1523 C1519 0.950 . S
H1524 C1521 0.950 . S
C1525 C1516 1.390 1_554 S
C1525 H1518 0.950 . S
C1525 C1522 1.387 . S
C1526 C1527 1.387 . S
C1526 H1530 0.950 . S
C1526 C1535 1.390 1_554 S
C1527 C1526 1.387 . S
C1527 C1529 1.387 . S
H1528 C1535 0.950 . S
C1529 C1527 1.387 . S
C1529 C1531 1.390 1_554 S
C1529 H1533 0.950 . S
H1530 C1526 0.950 . S
C1531 C1529 1.390 1_556 S
C1531 C1532 1.387 . S
C1531 H1534 0.950 . S
C1532 C1531 1.387 . S
C1532 C1535 1.387 . S
H1533 C1529 0.950 . S
H1534 C1531 0.950 . S
C1535 C1526 1.390 1_556 S
C1535 H1528 0.950 . S
C1535 C1532 1.387 . S
C1536 C1537 1.387 . S
C1536 H1540 0.950 . S
C1536 C1545 1.390 . S
C1537 C1536 1.387 . S
C1537 C1539 1.387 . S
H1538 C1545 0.950 . S
C1539 C1537 1.387 . S
C1539 C1541 1.390 . S
C1539 H1543 0.950 . S
H1540 C1536 0.950 . S
C1541 C1539 1.390 . S
C1541 C1542 1.387 . S
C1541 H1544 0.950 . S
C1542 C1541 1.387 . S
C1542 C1545 1.387 . S
H1543 C1539 0.950 . S
H1544 C1541 0.950 . S
C1545 C1536 1.390 . S
C1545 H1538 0.950 . S
C1545 C1542 1.387 . S
C1546 C1547 1.387 . S
C1546 H1550 0.950 . S
C1546 C1555 1.390 . S
C1547 C1546 1.387 . S
C1547 C1549 1.387 . S
H1548 C1555 0.950 . S
C1549 C1547 1.387 . S
C1549 C1551 1.390 . S
C1549 H1553 0.950 . S
H1550 C1546 0.950 . S
C1551 C1549 1.390 . S
C1551 C1552 1.387 . S
C1551 H1554 0.950 . S
C1552 C1551 1.387 . S
C1552 C1555 1.387 . S
H1553 C1549 0.950 . S
H1554 C1551 0.950 . S
C1555 C1546 1.390 . S
C1555 H1548 0.950 . S
C1555 C1552 1.387 . S
C1556 C1557 1.387 . S
C1556 H1560 0.950 . S
C1556 C1565 1.390 . S
C1557 C1556 1.387 . S
C1557 C1559 1.387 . S
H1558 C1565 0.950 . S
C1559 C1557 1.387 . S
C1559 C1561 1.390 . S
C1559 H1563 0.950 . S
H1560 C1556 0.950 . S
C1561 C1559 1.390 . S
C1561 C1562 1.387 . S
C1561 H1564 0.950 . S
C1562 C1561 1.387 . S
C1562 C1565 1.387 . S
H1563 C1559 0.950 . S
H1564 C1561 0.950 . S
C1565 C1556 1.390 . S
C1565 H1558 0.950 . S
C1565 C1562 1.387 . S
C1566 C1567 1.387 . S
C1566 H1570 0.950 . S
C1566 C1575 1.390 . S
C1567 C1566 1.387 . S
C1567 C1569 1.387 . S
H1568 C1575 0.950 . S
C1569 C1567 1.387 . S
C1569 C1571 1.390 . S
C1569 H1573 0.950 . S
H1570 C1566 0.950 . S
C1571 C1569 1.390 . S
C1571 C1572 1.387 . S
C1571 H1574 0.950 . S
C1572 C1571 1.387 . S
C1572 C1575 1.387 . S
H1573 C1569 0.950 . S
H1574 C1571 0.950 . S
C1575 C1566 1.390 . S
C1575 H1568 0.950 . S
C1575 C1572 1.387 . S
C1576 C1577 1.387 . S
C1576 H1580 0.950 . S
C1576 C1585 1.390 . S
C1577 C1576 1.387 . S
C1577 C1579 1.387 . S
H1578 C1585 0.950 . S
C1579 C1577 1.387 . S
C1579 C1581 1.390 . S
C1579 H1583 0.950 . S
H1580 C1576 0.950 . S
C1581 C1579 1.390 . S
C1581 C1582 1.387 . S
C1581 H1584 0.950 . S
C1582 C1581 1.387 . S
C1582 C1585 1.387 . S
H1583 C1579 0.950 . S
H1584 C1581 0.950 . S
C1585 C1576 1.390 . S
C1585 H1578 0.950 . S
C1585 C1582 1.387 . S
C1586 C1587 1.387 . S
C1586 H1590 0.950 . S
C1586 C1595 1.390 . S
C1587 C1586 1.387 . S
C1587 C1589 1.387 . S
H1588 C1595 0.950 . S
C1589 C1587 1.387 . S
C1589 C1591 1.390 . S
C1589 H1593 0.950 . S
H1590 C1586 0.950 . S
C1591 C1589 1.390 . S
C1591 C1592 1.387 . S
C1591 H1594 0.950 . S
C1592 C1591 1.387 . S
C1592 C1595 1.387 . S
H1593 C1589 0.950 . S
H1594 C1591 0.950 . S
C1595 C1586 1.390 . S
C1595 H1588 0.950 . S
C1595 C1592 1.387 . S
C1596 C1597 1.387 . S
C1596 H1600 0.950 . S
C1596 C1605 1.390 . S
C1597 C1596 1.387 . S
C1597 C1599 1.387 . S
H1598 C1605 0.950 . S
C1599 C1597 1.387 . S
C1599 C1601 1.390 . S
C1599 H1603 0.950 . S
H1600 C1596 0.950 . S
C1601 C1599 1.390 . S
C1601 C1602 1.387 . S
C1601 H1604 0.950 . S
C1602 C1601 1.387 . S
C1602 C1605 1.387 . S
H1603 C1599 0.950 . S
H1604 C1601 0.950 . S
C1605 C1596 1.390 . S
C1605 H1598 0.950 . S
C1605 C1602 1.387 . S
C1606 C1607 1.387 . S
C1606 H1610 0.950 . S
C1606 C1615 1.390 . S
C1607 C1606 1.387 . S
C1607 C1609 1.387 . S
H1608 C1615 0.950 . S
C1609 C1607 1.387 . S
C1609 C1611 1.390 . S
C1609 H1613 0.950 . S
H1610 C1606 0.950 . S
C1611 C1609 1.390 . S
C1611 C1612 1.387 . S
C1611 H1614 0.950 . S
C1612 C1611 1.387 . S
C1612 C1615 1.387 . S
H1613 C1609 0.950 . S
H1614 C1611 0.950 . S
C1615 C1606 1.390 . S
C1615 H1608 0.950 . S
C1615 C1612 1.387 . S
C1616 C1617 1.387 . S
C1616 H1620 0.950 . S
C1616 C1625 1.390 . S
C1617 C1616 1.387 . S
C1617 C1619 1.387 . S
H1618 C1625 0.950 . S
C1619 C1617 1.387 . S
C1619 C1621 1.390 . S
C1619 H1623 0.950 . S
H1620 C1616 0.950 . S
C1621 C1619 1.390 . S
C1621 C1622 1.387 . S
C1621 H1624 0.950 . S
C1622 C1621 1.387 . S
C1622 C1625 1.387 . S
H1623 C1619 0.950 . S
H1624 C1621 0.950 . S
C1625 C1616 1.390 . S
C1625 H1618 0.950 . S
C1625 C1622 1.387 . S
C1626 C1627 1.387 . S
C1626 H1630 0.950 . S
C1626 C1635 1.390 . S
C1627 C1626 1.387 . S
C1627 C1629 1.387 . S
H1628 C1635 0.950 . S
C1629 C1627 1.387 . S
C1629 C1631 1.390 . S
C1629 H1633 0.950 . S
H1630 C1626 0.950 . S
C1631 C1629 1.390 . S
C1631 C1632 1.387 . S
C1631 H1634 0.950 . S
C1632 C1631 1.387 . S
C1632 C1635 1.387 . S
H1633 C1629 0.950 . S
H1634 C1631 0.950 . S
C1635 C1626 1.390 . S
C1635 H1628 0.950 . S
C1635 C1632 1.387 . S
C1636 C1637 1.387 . S
C1636 H1640 0.950 . S
C1636 C1645 1.390 . S
C1637 C1636 1.387 . S
C1637 C1639 1.387 . S
H1638 C1645 0.950 . S
C1639 C1637 1.387 . S
C1639 C1641 1.390 . S
C1639 H1643 0.950 . S
H1640 C1636 0.950 . S
C1641 C1639 1.390 . S
C1641 C1642 1.387 . S
C1641 H1644 0.950 . S
C1642 C1641 1.387 . S
C1642 C1645 1.387 . S
H1643 C1639 0.950 . S
H1644 C1641 0.950 . S
C1645 C1636 1.390 . S
C1645 H1638 0.950 . S
C1645 C1642 1.387 . S
C1646 C1647 1.387 . S
C1646 H1650 0.950 . S
C1646 C1655 1.390 . S
C1647 C1646 1.387 . S
C1647 C1649 1.387 . S
H1648 C1655 0.950 . S
C1649 C1647 1.387 . S
C1649 C1651 1.390 . S
C1649 H1653 0.950 . S
H1650 C1646 0.950 . S
C1651 C1649 1.390 . S
C1651 C1652 1.387 . S
C1651 H1654 0.950 . S
C1652 C1651 1.387 . S
C1652 C1655 1.387 . S
H1653 C1649 0.950 . S
H1654 C1651 0.950 . S
C1655 C1646 1.390 . S
C1655 H1648 0.950 . S
C1655 C1652 1.387 . S
C1656 C1657 1.387 . S
C1656 H1660 0.950 . S
C1656 C1665 1.390 . S
C1657 C1656 1.387 . S
C1657 C1659 1.387 . S
H1658 C1665 0.950 . S
C1659 C1657 1.387 . S
C1659 C1661 1.390 . S
C1659 H1663 0.950 . S
H1660 C1656 0.950 . S
C1661 C1659 1.390 . S
C1661 C1662 1.387 . S
C1661 H1664 0.950 . S
C1662 C1661 1.387 . S
C1662 C1665 1.387 . S
H1663 C1659 0.950 . S
H1664 C1661 0.950 . S
C1665 C1656 1.390 . S
C1665 H1658 0.950 . S
C1665 C1662 1.387 . S
C1666 C1667 1.387 . S
C1666 H1670 0.950 . S
C1666 C1675 1.390 . S
C1667 C1666 1.387 . S
C1667 C1669 1.387 . S
H1668 C1675 0.950 . S
C1669 C1667 1.387 . S
C1669 C1671 1.390 . S
C1669 H1673 0.950 . S
H1670 C1666 0.950 . S
C1671 C1669 1.390 . S
C1671 C1672 1.387 . S
C1671 H1674 0.950 . S
C1672 C1671 1.387 . S
C1672 C1675 1.387 . S
H1673 C1669 0.950 . S
H1674 C1671 0.950 . S
C1675 C1666 1.390 . S
C1675 H1668 0.950 . S
C1675 C1672 1.387 . S
C1676 C1677 1.387 . S
C1676 H1680 0.950 . S
C1676 C1685 1.390 . S
C1677 C1676 1.387 . S
C1677 C1679 1.387 . S
H1678 C1685 0.950 . S
C1679 C1677 1.387 . S
C1679 C1681 1.390 . S
C1679 H1683 0.950 . S
H1680 C1676 0.950 . S
C1681 C1679 1.390 . S
C1681 C1682 1.387 . S
C1681 H1684 0.950 . S
C1682 C1681 1.387 . S
C1682 C1685 1.387 . S
H1683 C1679 0.950 . S
H1684 C1681 0.950 . S
C1685 C1676 1.390 . S
C1685 H1678 0.950 . S
C1685 C1682 1.387 . S
C1686 C1687 1.387 . S
C1686 H1690 0.950 . S
C1686 C1695 1.390 . S
C1687 C1686 1.387 . S
C1687 C1689 1.387 . S
H1688 C1695 0.950 . S
C1689 C1687 1.387 . S
C1689 C1691 1.390 . S
C1689 H1693 0.950 . S
H1690 C1686 0.950 . S
C1691 C1689 1.390 . S
C1691 C1692 1.387 . S
C1691 H1694 0.950 . S
C1692 C1691 1.387 . S
C1692 C1695 1.387 . S
H1693 C1689 0.950 . S
H1694 C1691 0.950 . S
C1695 C1686 1.390 . S
C1695 H1688 0.950 . S
C1695 C1692 1.387 . S
C1696 C1697 1.387 . S
C1696 H1700 0.950 . S
C1696 C1705 1.390 . S
C1697 C1696 1.387 . S
C1697 C1699 1.387 . S
H1698 C1705 0.950 . S
C1699 C1697 1.387 . S
C1699 C1701 1.390 . S
C1699 H1703 0.950 . S
H1700 C1696 0.950 . S
C1701 C1699 1.390 . S
C1701 C1702 1.387 . S
C1701 H1704 0.950 . S
C1702 C1701 1.387 . S
C1702 C1705 1.387 . S
H1703 C1699 0.950 . S
H1704 C1701 0.950 . S
C1705 C1696 1.390 . S
C1705 H1698 0.950 . S
C1705 C1702 1.387 . S
C1706 C1707 1.387 . S
C1706 H1710 0.950 . S
C1706 C1715 1.390 . S
C1707 C1706 1.387 . S
C1707 C1709 1.387 . S
H1708 C1715 0.950 . S
C1709 C1707 1.387 . S
C1709 C1711 1.390 . S
C1709 H1713 0.950 . S
H1710 C1706 0.950 . S
C1711 C1709 1.390 . S
C1711 C1712 1.387 . S
C1711 H1714 0.950 . S
C1712 C1711 1.387 . S
C1712 C1715 1.387 . S
H1713 C1709 0.950 . S
H1714 C1711 0.950 . S
C1715 C1706 1.390 . S
C1715 H1708 0.950 . S
C1715 C1712 1.387 . S
C1716 C1717 1.387 . S
C1716 H1720 0.950 . S
C1716 C1725 1.390 . S
C1717 C1716 1.387 . S
C1717 C1719 1.387 . S
H1718 C1725 0.950 . S
C1719 C1717 1.387 . S
C1719 C1721 1.390 . S
C1719 H1723 0.950 . S
H1720 C1716 0.950 . S
C1721 C1719 1.390 . S
C1721 C1722 1.387 . S
C1721 H1724 0.950 . S
C1722 C1721 1.387 . S
C1722 C1725 1.387 . S
H1723 C1719 0.950 . S
H1724 C1721 0.950 . S
C1725 C1716 1.390 . S
C1725 H1718 0.950 . S
C1725 C1722 1.387 . S
C1726 C1727 1.387 . S
C1726 H1730 0.950 . S
C1726 C1735 1.390 . S
C1727 C1726 1.387 . S
C1727 C1729 1.387 . S
H1728 C1735 0.950 . S
C1729 C1727 1.387 . S
C1729 C1731 1.390 . S
C1729 H1733 0.950 . S
H1730 C1726 0.950 . S
C1731 C1729 1.390 . S
C1731 C1732 1.387 . S
C1731 H1734 0.950 . S
C1732 C1731 1.387 . S
C1732 C1735 1.387 . S
H1733 C1729 0.950 . S
H1734 C1731 0.950 . S
C1735 C1726 1.390 . S
C1735 H1728 0.950 . S
C1735 C1732 1.387 . S
C1736 C1737 1.387 . S
C1736 H1740 0.950 . S
C1736 C1745 1.390 . S
C1737 C1736 1.387 . S
C1737 C1739 1.387 . S
H1738 C1745 0.950 . S
C1739 C1737 1.387 . S
C1739 C1741 1.390 . S
C1739 H1743 0.950 . S
H1740 C1736 0.950 . S
C1741 C1739 1.390 . S
C1741 C1742 1.387 . S
C1741 H1744 0.950 . S
C1742 C1741 1.387 . S
C1742 C1745 1.387 . S
H1743 C1739 0.950 . S
H1744 C1741 0.950 . S
C1745 C1736 1.390 . S
C1745 H1738 0.950 . S
C1745 C1742 1.387 . S
C1746 C1747 1.387 . S
C1746 H1750 0.950 . S
C1746 C1755 1.390 . S
C1747 C1746 1.387 . S
C1747 C1749 1.387 . S
H1748 C1755 0.950 . S
C1749 C1747 1.387 . S
C1749 C1751 1.390 . S
C1749 H1753 0.950 . S
H1750 C1746 0.950 . S
C1751 C1749 1.390 . S
C1751 C1752 1.387 . S
C1751 H1754 0.950 . S
C1752 C1751 1.387 . S
C1752 C1755 1.387 . S
H1753 C1749 0.950 . S
H1754 C1751 0.950 . S
C1755 C1746 1.390 . S
C1755 H1748 0.950 . S
C1755 C1752 1.387 . S
C1756 C1757 1.387 . S
C1756 H1760 0.950 . S
C1756 C1765 1.390 . S
C1757 C1756 1.387 . S
C1757 C1759 1.387 . S
H1758 C1765 0.950 . S
C1759 C1757 1.387 . S
C1759 C1761 1.390 . S
C1759 H1763 0.950 . S
H1760 C1756 0.950 . S
C1761 C1759 1.390 . S
C1761 C1762 1.387 . S
C1761 H1764 0.950 . S
C1762 C1761 1.387 . S
C1762 C1765 1.387 . S
H1763 C1759 0.950 . S
H1764 C1761 0.950 . S
C1765 C1756 1.390 . S
C1765 H1758 0.950 . S
C1765 C1762 1.387 . S
C1766 C1767 1.387 . S
C1766 H1770 0.950 . S
C1766 C1775 1.390 . S
C1767 C1766 1.387 . S
C1767 C1769 1.387 . S
H1768 C1775 0.950 . S
C1769 C1767 1.387 . S
C1769 C1771 1.390 . S
C1769 H1773 0.950 . S
H1770 C1766 0.950 . S
C1771 C1769 1.390 . S
C1771 C1772 1.387 . S
C1771 H1774 0.950 . S
C1772 C1771 1.387 . S
C1772 C1775 1.387 . S
H1773 C1769 0.950 . S
H1774 C1771 0.950 . S
C1775 C1766 1.390 . S
C1775 H1768 0.950 . S
C1775 C1772 1.387 . S
C1776 C1777 1.387 . S
C1776 H1780 0.950 . S
C1776 C1785 1.390 1_455 S
C1777 C1776 1.387 . S
C1777 C1779 1.387 . S
H1778 C1785 0.950 . S
C1779 C1777 1.387 . S
C1779 C1781 1.390 1_455 S
C1779 H1783 0.950 . S
H1780 C1776 0.950 . S
C1781 C1779 1.390 1_655 S
C1781 C1782 1.387 . S
C1781 H1784 0.950 . S
C1782 C1781 1.387 . S
C1782 C1785 1.387 . S
H1783 C1779 0.950 . S
H1784 C1781 0.950 . S
C1785 C1776 1.390 1_655 S
C1785 H1778 0.950 . S
C1785 C1782 1.387 . S
C1786 C1787 1.387 . S
C1786 H1790 0.950 . S
C1786 C1795 1.390 . S
C1787 C1786 1.387 . S
C1787 C1789 1.387 . S
H1788 C1795 0.950 . S
C1789 C1787 1.387 . S
C1789 C1791 1.390 . S
C1789 H1793 0.950 . S
H1790 C1786 0.950 . S
C1791 C1789 1.390 . S
C1791 C1792 1.387 . S
C1791 H1794 0.950 . S
C1792 C1791 1.387 . S
C1792 C1795 1.387 . S
H1793 C1789 0.950 . S
H1794 C1791 0.950 . S
C1795 C1786 1.390 . S
C1795 H1788 0.950 . S
C1795 C1792 1.387 . S
C1796 C1797 1.387 . S
C1796 H1800 0.950 . S
C1796 C1805 1.390 1_545 S
C1797 C1796 1.387 . S
C1797 C1799 1.387 . S
H1798 C1805 0.950 . S
C1799 C1797 1.387 . S
C1799 C1801 1.390 1_545 S
C1799 H1803 0.950 . S
H1800 C1796 0.950 . S
C1801 C1799 1.390 1_565 S
C1801 C1802 1.387 . S
C1801 H1804 0.950 . S
C1802 C1801 1.387 . S
C1802 C1805 1.387 . S
H1803 C1799 0.950 . S
H1804 C1801 0.950 . S
C1805 C1796 1.390 1_565 S
C1805 H1798 0.950 . S
C1805 C1802 1.387 . S
C1806 C1807 1.387 . S
C1806 H1810 0.950 . S
C1806 C1815 1.390 1_545 S
C1807 C1806 1.387 . S
C1807 C1809 1.387 . S
H1808 C1815 0.950 . S
C1809 C1807 1.387 . S
C1809 C1811 1.390 1_545 S
C1809 H1813 0.950 . S
H1810 C1806 0.950 . S
C1811 C1809 1.390 1_565 S
C1811 C1812 1.387 . S
C1811 H1814 0.950 . S
C1812 C1811 1.387 . S
C1812 C1815 1.387 . S
H1813 C1809 0.950 . S
H1814 C1811 0.950 . S
C1815 C1806 1.390 1_565 S
C1815 H1808 0.950 . S
C1815 C1812 1.387 . S
C1816 C1817 1.387 . S
C1816 H1820 0.950 . S
C1816 C1825 1.390 1_655 S
C1817 C1816 1.387 . S
C1817 C1819 1.387 . S
H1818 C1825 0.950 . S
C1819 C1817 1.387 . S
C1819 C1821 1.390 1_655 S
C1819 H1823 0.950 . S
H1820 C1816 0.950 . S
C1821 C1819 1.390 1_455 S
C1821 C1822 1.387 . S
C1821 H1824 0.950 . S
C1822 C1821 1.387 . S
C1822 C1825 1.387 . S
H1823 C1819 0.950 . S
H1824 C1821 0.950 . S
C1825 C1816 1.390 1_455 S
C1825 H1818 0.950 . S
C1825 C1822 1.387 . S
C1826 C1827 1.387 . S
C1826 H1830 0.950 . S
C1826 C1835 1.390 . S
C1827 C1826 1.387 . S
C1827 C1829 1.387 . S
H1828 C1835 0.950 . S
C1829 C1827 1.387 . S
C1829 C1831 1.390 . S
C1829 H1833 0.950 . S
H1830 C1826 0.950 . S
C1831 C1829 1.390 . S
C1831 C1832 1.387 . S
C1831 H1834 0.950 . S
C1832 C1831 1.387 . S
C1832 C1835 1.387 . S
H1833 C1829 0.950 . S
H1834 C1831 0.950 . S
C1835 C1826 1.390 . S
C1835 H1828 0.950 . S
C1835 C1832 1.387 . S
C1836 C1837 1.387 . S
C1836 H1840 0.950 . S
C1836 C1845 1.390 . S
C1837 C1836 1.387 . S
C1837 C1839 1.387 . S
H1838 C1845 0.950 . S
C1839 C1837 1.387 . S
C1839 C1841 1.390 . S
C1839 H1843 0.950 . S
H1840 C1836 0.950 . S
C1841 C1839 1.390 . S
C1841 C1842 1.387 . S
C1841 H1844 0.950 . S
C1842 C1841 1.387 . S
C1842 C1845 1.387 . S
H1843 C1839 0.950 . S
H1844 C1841 0.950 . S
C1845 C1836 1.390 . S
C1845 H1838 0.950 . S
C1845 C1842 1.387 . S
C1846 C1847 1.387 . S
C1846 H1850 0.950 . S
C1846 C1855 1.390 . S
C1847 C1846 1.387 . S
C1847 C1849 1.387 . S
H1848 C1855 0.950 . S
C1849 C1847 1.387 . S
C1849 C1851 1.390 . S
C1849 H1853 0.950 . S
H1850 C1846 0.950 . S
C1851 C1849 1.390 . S
C1851 C1852 1.387 . S
C1851 H1854 0.950 . S
C1852 C1851 1.387 . S
C1852 C1855 1.387 . S
H1853 C1849 0.950 . S
H1854 C1851 0.950 . S
C1855 C1846 1.390 . S
C1855 H1848 0.950 . S
C1855 C1852 1.387 . S
C1856 C1857 1.387 . S
C1856 H1860 0.950 . S
C1856 C1865 1.390 . S
C1857 C1856 1.387 . S
C1857 C1859 1.387 . S
H1858 C1865 0.950 . S
C1859 C1857 1.387 . S
C1859 C1861 1.390 . S
C1859 H1863 0.950 . S
H1860 C1856 0.950 . S
C1861 C1859 1.390 . S
C1861 C1862 1.387 . S
C1861 H1864 0.950 . S
C1862 C1861 1.387 . S
C1862 C1865 1.387 . S
H1863 C1859 0.950 . S
H1864 C1861 0.950 . S
C1865 C1856 1.390 . S
C1865 H1858 0.950 . S
C1865 C1862 1.387 . S
C1866 C1867 1.387 . S
C1866 H1870 0.950 . S
C1866 C1875 1.390 . S
C1867 C1866 1.387 . S
C1867 C1869 1.387 . S
H1868 C1875 0.950 . S
C1869 C1867 1.387 . S
C1869 C1871 1.390 . S
C1869 H1873 0.950 . S
H1870 C1866 0.950 . S
C1871 C1869 1.390 . S
C1871 C1872 1.387 . S
C1871 H1874 0.950 . S
C1872 C1871 1.387 . S
C1872 C1875 1.387 . S
H1873 C1869 0.950 . S
H1874 C1871 0.950 . S
C1875 C1866 1.390 . S
C1875 H1868 0.950 . S
C1875 C1872 1.387 . S
C1876 C1877 1.387 . S
C1876 H1880 0.950 . S
C1876 C1885 1.390 . S
C1877 C1876 1.387 . S
C1877 C1879 1.387 . S
H1878 C1885 0.950 . S
C1879 C1877 1.387 . S
C1879 C1881 1.390 . S
C1879 H1883 0.950 . S
H1880 C1876 0.950 . S
C1881 C1879 1.390 . S
C1881 C1882 1.387 . S
C1881 H1884 0.950 . S
C1882 C1881 1.387 . S
C1882 C1885 1.387 . S
H1883 C1879 0.950 . S
H1884 C1881 0.950 . S
C1885 C1876 1.390 . S
C1885 H1878 0.950 . S
C1885 C1882 1.387 . S
C1886 C1887 1.387 . S
C1886 H1890 0.950 . S
C1886 C1895 1.390 . S
C1887 C1886 1.387 . S
C1887 C1889 1.387 . S
H1888 C1895 0.950 . S
C1889 C1887 1.387 . S
C1889 C1891 1.390 . S
C1889 H1893 0.950 . S
H1890 C1886 0.950 . S
C1891 C1889 1.390 . S
C1891 C1892 1.387 . S
C1891 H1894 0.950 . S
C1892 C1891 1.387 . S
C1892 C1895 1.387 . S
H1893 C1889 0.950 . S
H1894 C1891 0.950 . S
C1895 C1886 1.390 . S
C1895 H1888 0.950 . S
C1895 C1892 1.387 . S
C1896 C1897 1.387 . S
C1896 H1900 0.950 . S
C1896 C1905 1.390 . S
C1897 C1896 1.387 . S
C1897 C1899 1.387 . S
H1898 C1905 0.950 . S
C1899 C1897 1.387 . S
C1899 C1901 1.390 . S
C1899 H1903 0.950 . S
H1900 C1896 0.950 . S
C1901 C1899 1.390 . S
C1901 C1902 1.387 . S
C1901 H1904 0.950 . S
C1902 C1901 1.387 . S
C1902 C1905 1.387 . S
H1903 C1899 0.950 . S
H1904 C1901 0.950 . S
C1905 C1896 1.390 . S
C1905 H1898 0.950 . S
C1905 C1902 1.387 . S
C1906 C1907 1.387 . S
C1906 H1910 0.950 . S
C1906 C1915 1.390 . S
C1907 C1906 1.387 . S
C1907 C1909 1.387 . S
H1908 C1915 0.950 . S
C1909 C1907 1.387 . S
C1909 C1911 1.390 . S
C1909 H1913 0.950 . S
H1910 C1906 0.950 . S
C1911 C1909 1.390 . S
C1911 C1912 1.387 . S
C1911 H1914 0.950 . S
C1912 C1911 1.387 . S
C1912 C1915 1.387 . S
H1913 C1909 0.950 . S
H1914 C1911 0.950 . S
C1915 C1906 1.390 . S
C1915 H1908 0.950 . S
C1915 C1912 1.387 . S
C1916 C1917 1.387 . S
C1916 H1920 0.950 . S
C1916 C1925 1.390 . S
C1917 C1916 1.387 . S
C1917 C1919 1.387 . S
H1918 C1925 0.950 . S
C1919 C1917 1.387 . S
C1919 C1921 1.390 . S
C1919 H1923 0.950 . S
H1920 C1916 0.950 . S
C1921 C1919 1.390 . S
C1921 C1922 1.387 . S
C1921 H1924 0.950 . S
C1922 C1921 1.387 . S
C1922 C1925 1.387 . S
H1923 C1919 0.950 . S
H1924 C1921 0.950 . S
C1925 C1916 1.390 . S
C1925 H1918 0.950 . S
C1925 C1922 1.387 . S
C1926 C1927 1.387 . S
C1926 H1930 0.950 . S
C1926 C1935 1.390 . S
C1927 C1926 1.387 . S
C1927 C1929 1.387 . S
H1928 C1935 0.950 . S
C1929 C1927 1.387 . S
C1929 C1931 1.390 . S
C1929 H1933 0.950 . S
H1930 C1926 0.950 . S
C1931 C1929 1.390 . S
C1931 C1932 1.387 . S
C1931 H1934 0.950 . S
C1932 C1931 1.387 . S
C1932 C1935 1.387 . S
H1933 C1929 0.950 . S
H1934 C1931 0.950 . S
C1935 C1926 1.390 . S
C1935 H1928 0.950 . S
C1935 C1932 1.387 . S
C1936 C1937 1.387 1_556 S
C1936 H1940 0.950 . S
C1936 C1945 1.390 . S
C1937 C1936 1.387 1_554 S
C1937 C1939 1.387 . S
H1938 C1945 0.950 . S
C1939 C1937 1.387 . S
C1939 C1941 1.390 . S
C1939 H1943 0.950 . S
H1940 C1936 0.950 . S
C1941 C1939 1.390 . S
C1941 C1942 1.387 . S
C1941 H1944 0.950 . S
C1942 C1941 1.387 . S
C1942 C1945 1.387 1_554 S
H1943 C1939 0.950 . S
H1944 C1941 0.950 . S
C1945 C1936 1.390 . S
C1945 H1938 0.950 . S
C1945 C1942 1.387 1_556 S
C1946 C1947 1.387 . S
C1946 H1950 0.950 . S
C1946 C1955 1.390 . S
C1947 C1946 1.387 . S
C1947 C1949 1.387 1_554 S
H1948 C1955 0.950 . S
C1949 C1947 1.387 1_556 S
C1949 C1951 1.390 . S
C1949 H1953 0.950 . S
H1950 C1946 0.950 . S
C1951 C1949 1.390 . S
C1951 C1952 1.387 1_556 S
C1951 H1954 0.950 . S
C1952 C1951 1.387 1_554 S
C1952 C1955 1.387 . S
H1953 C1949 0.950 . S
H1954 C1951 0.950 . S
C1955 C1946 1.390 . S
C1955 H1948 0.950 . S
C1955 C1952 1.387 . S
C1956 C1957 1.387 1_554 S
C1956 H1960 0.950 . S
C1956 C1965 1.390 . S
C1957 C1956 1.387 1_556 S
C1957 C1959 1.387 . S
H1958 C1965 0.950 . S
C1959 C1957 1.387 . S
C1959 C1961 1.390 . S
C1959 H1963 0.950 . S
H1960 C1956 0.950 . S
C1961 C1959 1.390 . S
C1961 C1962 1.387 . S
C1961 H1964 0.950 . S
C1962 C1961 1.387 . S
C1962 C1965 1.387 1_556 S
H1963 C1959 0.950 . S
H1964 C1961 0.950 . S
C1965 C1956 1.390 . S
C1965 H1958 0.950 . S
C1965 C1962 1.387 1_554 S
C1966 C1967 1.387 . S
C1966 H1970 0.950 . S
C1966 C1975 1.390 . S
C1967 C1966 1.387 . S
C1967 C1969 1.387 1_556 S
H1968 C1975 0.950 . S
C1969 C1967 1.387 1_554 S
C1969 C1971 1.390 . S
C1969 H1973 0.950 . S
H1970 C1966 0.950 . S
C1971 C1969 1.390 . S
C1971 C1972 1.387 1_554 S
C1971 H1974 0.950 . S
C1972 C1971 1.387 1_556 S
C1972 C1975 1.387 . S
H1973 C1969 0.950 . S
H1974 C1971 0.950 . S
C1975 C1966 1.390 . S
C1975 H1968 0.950 . S
C1975 C1972 1.387 . S
C1976 C1977 1.387 . S
C1976 H1980 0.950 . S
C1976 C1985 1.390 . S
C1977 C1976 1.387 . S
C1977 C1979 1.387 . S
H1978 C1985 0.950 . S
C1979 C1977 1.387 . S
C1979 C1981 1.390 . S
C1979 H1983 0.950 . S
H1980 C1976 0.950 . S
C1981 C1979 1.390 . S
C1981 C1982 1.387 . S
C1981 H1984 0.950 . S
C1982 C1981 1.387 . S
C1982 C1985 1.387 . S
H1983 C1979 0.950 . S
H1984 C1981 0.950 . S
C1985 C1976 1.390 . S
C1985 H1978 0.950 . S
C1985 C1982 1.387 . S
C1986 C1987 1.387 . S
C1986 H1990 0.950 . S
C1986 C1995 1.390 . S
C1987 C1986 1.387 . S
C1987 C1989 1.387 . S
H1988 C1995 0.950 . S
C1989 C1987 1.387 . S
C1989 C1991 1.390 . S
C1989 H1993 0.950 . S
H1990 C1986 0.950 . S
C1991 C1989 1.390 . S
C1991 C1992 1.387 . S
C1991 H1994 0.950 . S
C1992 C1991 1.387 . S
C1992 C1995 1.387 . S
H1993 C1989 0.950 . S
H1994 C1991 0.950 . S
C1995 C1986 1.390 . S
C1995 H1988 0.950 . S
C1995 C1992 1.387 . S
C1996 C1997 1.387 . S
C1996 H2000 0.950 . S
C1996 C2005 1.390 . S
C1997 C1996 1.387 . S
C1997 C1999 1.387 . S
H1998 C2005 0.950 . S
C1999 C1997 1.387 . S
C1999 C2001 1.390 . S
C1999 H2003 0.950 . S
H2000 C1996 0.950 . S
C2001 C1999 1.390 . S
C2001 C2002 1.387 . S
C2001 H2004 0.950 . S
C2002 C2001 1.387 . S
C2002 C2005 1.387 . S
H2003 C1999 0.950 . S
H2004 C2001 0.950 . S
C2005 C1996 1.390 . S
C2005 H1998 0.950 . S
C2005 C2002 1.387 . S
C2006 C2007 1.387 . S
C2006 H2010 0.950 . S
C2006 C2015 1.390 . S
C2007 C2006 1.387 . S
C2007 C2009 1.387 . S
H2008 C2015 0.950 . S
C2009 C2007 1.387 . S
C2009 C2011 1.390 . S
C2009 H2013 0.950 . S
H2010 C2006 0.950 . S
C2011 C2009 1.390 . S
C2011 C2012 1.387 . S
C2011 H2014 0.950 . S
C2012 C2011 1.387 . S
C2012 C2015 1.387 . S
H2013 C2009 0.950 . S
H2014 C2011 0.950 . S
C2015 C2006 1.390 . S
C2015 H2008 0.950 . S
C2015 C2012 1.387 . S
C1297 C194 1.492 . S
C1302 C14 1.491 . S
C1307 C122 1.493 . S
C1312 C50 1.495 . S
C1317 C86 1.495 . S
C1322 C158 1.492 . S
C1327 C230 1.491 . S
C1332 C410 1.491 . S
C1337 C266 1.494 . S
C1342 C338 1.494 . S
C1347 C374 1.492 . S
C1352 C302 1.494 . S
C1357 C446 1.491 . S
C1362 C626 1.491 . S
C1367 C482 1.494 . S
C1372 C554 1.492 . S
C1377 C518 1.491 . S
C1382 C590 1.492 . S
C1387 C842 1.494 . S
C1392 C662 1.494 . S
C1397 C698 1.493 . S
C1402 C770 1.491 . S
C1407 C806 1.492 . S
C1412 C734 1.491 . S
C1417 C1058 1.491 . S
C1422 C878 1.491 . S
C1427 C986 1.495 . S
C1432 C914 1.493 . S
C1437 C1022 1.493 . S
C1442 C950 1.495 . S
C1447 C1094 1.491 . S
C1452 C1274 1.491 . S
C1457 C1130 1.495 . S
C1462 C1202 1.494 . S
C1467 C1166 1.495 . S
C1472 C1238 1.493 . S
C1477 C184 1.339 . S
C1482 C4 1.339 . S
C1487 C40 1.339 . S
C1492 C112 1.339 . S
C1497 C148 1.341 . S
C1502 C76 1.340 . S
C1507 C220 1.340 . S
C1512 C400 1.340 . S
C1517 C256 1.341 . S
C1522 C328 1.340 . S
C1527 C364 1.341 . S
C1532 C292 1.340 . S
C1537 C436 1.340 . S
C1542 C616 1.340 . S
C1547 C544 1.340 . S
C1552 C472 1.339 . S
C1557 C580 1.339 . S
C1562 C508 1.341 . S
C1567 C652 1.340 . S
C1572 C832 1.340 . S
C1577 C688 1.339 . S
C1582 C760 1.339 . S
C1587 C796 1.339 . S
C1592 C724 1.340 . S
C1597 C1048 1.340 . S
C1602 C868 1.340 . S
C1607 C904 1.339 . S
C1612 C976 1.340 . S
C1617 C940 1.340 . S
C1622 C1012 1.341 . S
C1627 C1264 1.339 . S
C1632 C1084 1.339 . S
C1637 C1192 1.340 . S
C1642 C1120 1.341 . S
C1647 C1228 1.339 . S
C1652 C1156 1.340 . S
C1657 C578 1.557 . S
C1662 C2 1.556 . S
C1667 C614 1.556 . S
C1672 C38 1.557 . S
C1677 C542 1.558 . S
C1682 C74 1.558 . S
C1687 C110 1.556 . S
C1692 C938 1.556 . S
C1697 C146 1.557 . S
C1702 C866 1.556 . S
C1707 C182 1.558 . S
C1712 C902 1.557 . S
C1717 C218 1.556 . S
C1722 C1226 1.557 . S
C1727 C254 1.557 . S
C1732 C1262 1.557 . S
C1737 C290 1.556 . S
C1742 C1190 1.556 . S
C1747 C326 1.556 . S
C1752 C722 1.556 . S
C1757 C650 1.557 . S
C1762 C362 1.557 . S
C1767 C686 1.557 . S
C1772 C398 1.556 . S
C1777 C1010 1.557 . S
C1782 C434 1.556 . S
C1787 C470 1.556 . S
C1792 C1046 1.556 . S
C1797 C506 1.558 . S
C1802 C974 1.558 . S
C1807 C758 1.558 . S
C1812 C1154 1.558 . S
C1817 C794 1.557 . S
C1822 C1082 1.558 . S
C1827 C1118 1.557 . S
C1832 C830 1.556 . S
C1837 C3 1.451 . S
C1842 C363 1.452 . S
C1847 C399 1.451 . S
C1852 C39 1.451 . S
C1857 C327 1.451 . S
C1862 C75 1.452 . S
C1867 C111 1.451 . S
C1872 C291 1.452 . S
C1877 C147 1.451 . S
C1882 C219 1.452 . S
C1887 C183 1.451 . S
C1892 C255 1.451 . S
C1897 C435 1.452 . S
C1902 C795 1.451 . S
C1907 C831 1.452 . S
C1912 C471 1.451 . S
C1917 C759 1.452 . S
C1922 C507 1.451 . S
C1927 C543 1.452 . S
C1932 C723 1.451 . S
C1937 C579 1.452 . S
C1942 C651 1.451 . S
C1947 C687 1.451 . S
C1952 C615 1.451 . S
C1957 C867 1.452 . S
C1962 C1227 1.451 . S
C1967 C1263 1.451 . S
C1972 C903 1.451 . S
C1977 C939 1.452 . S
C1982 C1191 1.451 . S
C1987 C975 1.451 . S
C1992 C1155 1.452 . S
C1997 C1083 1.451 . S
C2002 C1011 1.452 . S
C2007 C1047 1.452 . S
C2012 C1119 1.451 . S
