# Generated by pormake.
# Topology vme, (6)-cn, num edge types: 1
# Building blocks:
#     Node 0, Type 0, BuildingBlock: VOLQOD_clean_sbu_1, # of connection points: 6
#     Node 1, Type 0, BuildingBlock: VOLQOD_clean_sbu_1, # of connection points: 6
#     Node 2, Type 0, BuildingBlock: VOLQOD_clean_sbu_1, # of connection points: 6
#     Node 3, Type 0, BuildingBlock: VOLQOD_clean_sbu_1, # of connection points: 6
#     Edge 4, Type (0, 0), BuildingBlock: XUDNAN_clean_linker_2, # of connection points: 2
#     Edge 5, Type (0, 0), BuildingBlock: XUDNAN_clean_linker_2, # of connection points: 2
#     Edge 6, Type (0, 0), BuildingBlock: XUDNAN_clean_linker_2, # of connection points: 2
#     Edge 7, Type (0, 0), BuildingBlock: XUDNAN_clean_linker_2, # of connection points: 2
#     Edge 8, Type (0, 0), BuildingBlock: XUDNAN_clean_linker_2, # of connection points: 2
#     Edge 9, Type (0, 0), BuildingBlock: XUDNAN_clean_linker_2, # of connection points: 2
#     Edge 10, Type (0, 0), BuildingBlock: XUDNAN_clean_linker_2, # of connection points: 2
#     Edge 11, Type (0, 0), BuildingBlock: XUDNAN_clean_linker_2, # of connection points: 2
#     Edge 12, Type (0, 0), BuildingBlock: XUDNAN_clean_linker_2, # of connection points: 2
#     Edge 13, Type (0, 0), BuildingBlock: XUDNAN_clean_linker_2, # of connection points: 2
#     Edge 14, Type (0, 0), BuildingBlock: XUDNAN_clean_linker_2, # of connection points: 2
#     Edge 15, Type (0, 0), BuildingBlock: XUDNAN_clean_linker_2, # of connection points: 2
# Relax obj value: 0.301
# Max RMSD: 0.246
# Mean RMSD: 0.246
data_MOF--net-vme--node1-VOLQOD_clean_sbu_1--edge1-XUDNAN_clean_linker_2
_symmetry_space_group_name_H-M    P1
_symmetry_Int_Tables_number       1
_symmetry_cell_setting            triclinic
loop_
_symmetry_equiv_pos_as_xyz
'x, y, z'
_cell_length_a     26.969819
_cell_length_b     27.132981
_cell_length_c     29.179081
_cell_angle_alpha  89.939986
_cell_angle_beta   114.869
_cell_angle_gamma 89.987887
loop_
_atom_site_label
_atom_site_type_symbol
_atom_site_fract_x
_atom_site_fract_y
_atom_site_fract_z
_atom_type_partial_charge
O0 O 0.0784 0.38626 0.37711 0.0
Zn1 Zn 0.11345 0.36545 0.33196 0.0
O2 O 0.1927 0.36905 0.36909 0.0
Zn3 Zn 0.22721 0.30539 0.37313 0.0
Zn4 Zn 0.21038 0.39524 0.43555 0.0
Zn5 Zn 0.22177 0.41429 0.33648 0.0
O6 O 0.26451 0.30203 0.3241 0.0
O7 O 0.24925 0.37809 0.29274 0.0
O8 O 0.08779 0.29453 0.31161 0.0
O9 O 0.16745 0.25571 0.34962 0.0
O10 O 0.2738 0.2857 0.44713 0.0
O11 O 0.24497 0.34254 0.48557 0.0
O12 O 0.26871 0.44638 0.45525 0.0
O13 O 0.08562 0.41825 0.27706 0.0
O14 O 0.28572 0.45133 0.38748 0.0
O15 O 0.16238 0.46022 0.29407 0.0
C16 C 0.09435 0.4096 0.41864 0.0
C17 C 0.26671 0.33447 0.29309 0.0
C18 C 0.27146 0.30347 0.48677 0.0
C19 C 0.11562 0.2548 0.32589 0.0
C20 C 0.2977 0.46195 0.4334 0.0
C21 C 0.11057 0.45616 0.27126 0.0
O22 O 0.14463 0.41946 0.44451 0.0
O23 O 0.92922 0.90005 0.14538 0.0
Zn24 Zn 0.89085 0.8715 0.18465 0.0
O25 O 0.81328 0.87149 0.14454 0.0
Zn26 Zn 0.78362 0.80516 0.14097 0.0
Zn27 Zn 0.79792 0.89806 0.07894 0.0
Zn28 Zn 0.78234 0.91714 0.17523 0.0
O29 O 0.7443 0.80215 0.18848 0.0
O30 O 0.75512 0.87903 0.21833 0.0
O31 O 0.91997 0.80293 0.20126 0.0
O32 O 0.84626 0.75546 0.16687 0.0
O33 O 0.73919 0.78612 0.06586 0.0
O34 O 0.76952 0.84419 0.02997 0.0
O35 O 0.73613 0.94606 0.05582 0.0
O36 O 0.91239 0.91634 0.24463 0.0
O37 O 0.71747 0.95181 0.12259 0.0
O38 O 0.84035 0.9662 0.21665 0.0
C39 C 0.91428 0.9217 0.10303 0.0
C40 C 0.73955 0.83466 0.21831 0.0
C41 C 0.74364 0.80434 0.02716 0.0
C42 C 0.89796 0.76052 0.18992 0.0
C43 C 0.70583 0.96125 0.07646 0.0
C44 C 0.89039 0.95773 0.24552 0.0
O45 O 0.86396 0.92633 0.07334 0.0
O46 O 0.89769 0.59885 0.60109 0.0
Zn47 Zn 0.88309 0.62903 0.65807 0.0
O48 O 0.80387 0.63079 0.63733 0.0
Zn49 Zn 0.77415 0.6962 0.63431 0.0
Zn50 Zn 0.76747 0.60154 0.57212 0.0
Zn51 Zn 0.78489 0.59123 0.68138 0.0
O52 O 0.73794 0.70286 0.68417 0.0
O53 O 0.76743 0.63313 0.72763 0.0
O54 O 0.91505 0.70015 0.67465 0.0
O55 O 0.83785 0.74141 0.65768 0.0
O56 O 0.72914 0.71857 0.56037 0.0
O57 O 0.74337 0.65402 0.52083 0.0
O58 O 0.69969 0.56494 0.56402 0.0
O59 O 0.91854 0.57763 0.71461 0.0
O60 O 0.71493 0.55509 0.64406 0.0
O61 O 0.84533 0.54506 0.71983 0.0
C62 C 0.86931 0.56786 0.56726 0.0
C63 C 0.74364 0.67468 0.72136 0.0
C64 C 0.72662 0.69788 0.52001 0.0
C65 C 0.88932 0.74076 0.67123 0.0
C66 C 0.68473 0.54937 0.59733 0.0
C67 C 0.89644 0.54474 0.73147 0.0
O68 O 0.81907 0.56032 0.55666 0.0
O69 O 0.10947 0.0961 0.91193 0.0
Zn70 Zn 0.12187 0.12654 0.85457 0.0
O71 O 0.19902 0.13111 0.87239 0.0
Zn72 Zn 0.22223 0.19909 0.8731 0.0
Zn73 Zn 0.23801 0.10246 0.93796 0.0
Zn74 Zn 0.21643 0.09255 0.82587 0.0
O75 O 0.25966 0.20568 0.82511 0.0
O76 O 0.22867 0.13837 0.77758 0.0
O77 O 0.08661 0.19417 0.83833 0.0
O78 O 0.15563 0.24344 0.84594 0.0
O79 O 0.26598 0.22311 0.94646 0.0
O80 O 0.26318 0.15576 0.98853 0.0
O81 O 0.30476 0.06648 0.94293 0.0
O82 O 0.08645 0.07812 0.79733 0.0
O83 O 0.28912 0.05926 0.86236 0.0
O84 O 0.15694 0.042 0.79005 0.0
C85 C 0.13912 0.06722 0.94737 0.0
C86 C 0.25246 0.18023 0.78583 0.0
C87 C 0.27434 0.20116 0.98793 0.0
C88 C 0.10527 0.23683 0.83572 0.0
C89 C 0.31967 0.05267 0.909 0.0
C90 C 0.10608 0.04401 0.77974 0.0
O91 O 0.1895 0.06072 0.95789 0.0
H92 H 0.87239 0.05712 0.22836 0.0
H93 H 0.99156 0.9506 0.32341 0.0
H94 H 0.06007 0.01663 0.35669 0.0
H95 H 0.95983 0.12206 0.19254 0.0
H96 H 0.93268 0.1826 0.19338 0.0
H97 H 0.88948 0.1293 0.1823 0.0
H98 H 0.86707 0.15288 0.25749 0.0
H99 H 0.90925 0.20699 0.26818 0.0
H100 H 0.92205 0.1636 0.31874 0.0
H101 H 0.11856 0.08966 0.37013 0.0
H102 H 0.16266 0.16895 0.37187 0.0
H103 H 0.00644 0.23088 0.26935 0.0
C104 C 0.91226 0.04803 0.2576 0.0
C105 C 0.92655 0.99869 0.27355 0.0
C106 C 0.97964 0.9881 0.31082 0.0
C107 C 0.01888 0.02535 0.32987 0.0
C108 C 0.00431 0.07306 0.31152 0.0
C109 C 0.95211 0.08487 0.27697 0.0
C110 C 0.94854 0.1386 0.26113 0.0
C111 C 0.93164 0.14338 0.20395 0.0
C112 C 0.90941 0.16721 0.27737 0.0
C113 C 0.00731 0.15462 0.29112 0.0
C114 C 0.03851 0.11605 0.31986 0.0
C115 C 0.09444 0.12042 0.34853 0.0
C116 C 0.11916 0.16571 0.34881 0.0
C117 C 0.08808 0.20648 0.32076 0.0
C118 C 0.03128 0.20063 0.29138 0.0
H119 H 0.00481 0.4821 0.25223 0.0
H120 H 0.14716 0.53029 0.23084 0.0
H121 H 0.1047 0.61157 0.20299 0.0
H122 H 0.90148 0.55512 0.14366 0.0
H123 H 0.86154 0.56856 0.1785 0.0
H124 H 0.89924 0.51159 0.18947 0.0
H125 H 0.94768 0.53246 0.28472 0.0
H126 H 0.91111 0.5899 0.27402 0.0
H127 H 0.98475 0.58959 0.30423 0.0
H128 H 0.05591 0.69024 0.19197 0.0
H129 H 0.99606 0.76075 0.18552 0.0
H130 H 0.88138 0.6633 0.20939 0.0
C131 C 0.02602 0.50913 0.23974 0.0
C132 C 0.07927 0.49976 0.24352 0.0
C133 C 0.10636 0.53657 0.22819 0.0
C134 C 0.08261 0.58292 0.21237 0.0
C135 C 0.03144 0.59184 0.21155 0.0
C136 C 0.00272 0.55584 0.22367 0.0
C137 C 0.94979 0.57653 0.22249 0.0
C138 C 0.90006 0.55146 0.18105 0.0
C139 C 0.94829 0.57183 0.27446 0.0
C140 C 0.95436 0.63005 0.20947 0.0
C141 C 0.00197 0.63781 0.20352 0.0
C142 C 0.01792 0.68454 0.19543 0.0
C143 C 0.9839 0.72444 0.1924 0.0
C144 C 0.93406 0.71748 0.19688 0.0
C145 C 0.91899 0.66954 0.20532 0.0
H146 H 0.12827 0.94464 0.78146 0.0
H147 H -0.00059 0.05309 0.7146 0.0
H148 H 0.93307 0.9865 0.67474 0.0
H149 H 0.07535 0.85299 0.67605 0.0
H150 H 0.0941 0.80106 0.71858 0.0
H151 H 0.13357 0.85709 0.73634 0.0
H152 H 0.11844 0.8611 0.81817 0.0
H153 H 0.07852 0.80544 0.80051 0.0
H154 H 0.04975 0.86062 0.81383 0.0
H155 H 0.87967 0.91069 0.64901 0.0
H156 H 0.83964 0.82842 0.63698 0.0
H157 H 0.0007 0.76471 0.72153 0.0
C158 C 0.0864 0.95423 0.75708 0.0
C159 C 0.06899 0.00409 0.75035 0.0
C160 C 0.01358 0.01525 0.71978 0.0
C161 C 0.97567 0.97767 0.69698 0.0
C162 C 0.99365 0.92896 0.70538 0.0
C163 C 0.0476 0.91687 0.7345 0.0
C164 C 0.05457 0.86116 0.74065 0.0
C165 C 0.0916 0.84194 0.71645 0.0
C166 C 0.07662 0.84622 0.79662 0.0
C167 C 0.99587 0.84408 0.71133 0.0
C168 C 0.9619 0.88413 0.69108 0.0
C169 C 0.90583 0.87898 0.66429 0.0
C170 C 0.88349 0.83178 0.65802 0.0
C171 C 0.91682 0.78963 0.67852 0.0
C172 C 0.97411 0.79595 0.70515 0.0
H173 H 0.99523 0.50909 0.73738 0.0
H174 H 0.86805 0.48118 0.78851 0.0
H175 H 0.90925 0.40074 0.82211 0.0
H176 H 0.00219 0.38995 0.69617 0.0
H177 H 0.07532 0.38786 0.71743 0.0
H178 H 0.04008 0.44608 0.7018 0.0
H179 H 0.10151 0.47984 0.7907 0.0
H180 H 0.13772 0.42199 0.80637 0.0
H181 H 0.10703 0.4461 0.84591 0.0
H182 H 0.95577 0.31959 0.84 0.0
H183 H 0.01373 0.24599 0.85256 0.0
H184 H 0.11452 0.32599 0.79443 0.0
C185 C 0.9771 0.48672 0.75706 0.0
C186 C 0.92831 0.50161 0.76024 0.0
C187 C 0.90529 0.4707 0.78544 0.0
C188 C 0.92833 0.42479 0.80462 0.0
C189 C 0.97486 0.41028 0.79893 0.0
C190 C -0.00016 0.44057 0.77679 0.0
C191 C 0.04865 0.4149 0.77418 0.0
C192 C 0.04107 0.40938 0.71913 0.0
C193 C 0.10189 0.44234 0.80621 0.0
C194 C 0.04625 0.36524 0.79727 0.0
C195 C 0.00308 0.36342 0.81093 0.0
C196 C 0.99031 0.32075 0.83029 0.0
C197 C 0.02318 0.27898 0.83686 0.0
C198 C 0.06875 0.28027 0.8247 0.0
C199 C 0.08026 0.32406 0.80454 0.0
H200 H 0.97835 0.562 0.58663 0.0
H201 H 0.81712 0.50997 0.48442 0.0
H202 H 0.85798 0.46222 0.4375 0.0
H203 H 0.03146 0.57556 0.4936 0.0
H204 H 0.09906 0.55425 0.53445 0.0
H205 H 0.05742 0.58397 0.56098 0.0
H206 H 0.06834 0.50808 0.61852 0.0
H207 H 0.10988 0.47802 0.59204 0.0
H208 H 0.04963 0.44788 0.59047 0.0
H209 H 0.91468 0.42169 0.40051 0.0
H210 H 0.9848 0.3906 0.37479 0.0
H211 H 0.11006 0.46777 0.50092 0.0
C212 C 0.95166 0.54062 0.55436 0.0
C213 C 0.89453 0.53977 0.53925 0.0
C214 C 0.86103 0.51113 0.4969 0.0
C215 C 0.88378 0.48383 0.46993 0.0
C216 C 0.94011 0.48534 0.48587 0.0
C217 C 0.97372 0.51286 0.52703 0.0
C218 C 0.033 0.50815 0.53577 0.0
C219 C 0.0566 0.55848 0.53089 0.0
C220 C 0.06722 0.48409 0.58725 0.0
C221 C 0.02717 0.47421 0.4926 0.0
C222 C 0.97321 0.46143 0.46451 0.0
C223 C 0.95716 0.43123 0.42224 0.0
C224 C 0.99737 0.4138 0.40795 0.0
C225 C 0.05301 0.42669 0.43584 0.0
C226 C 0.06797 0.45705 0.47895 0.0
H227 H 0.89956 0.97694 0.01927 0.0
H228 H 0.02483 0.90909 0.15278 0.0
H229 H 0.09566 0.93866 0.12708 0.0
H230 H 0.96113 0.94984 0.93479 0.0
H231 H 0.94168 0.00763 0.90143 0.0
H232 H 0.90044 0.98142 0.93035 0.0
H233 H 0.90992 0.06195 0.98113 0.0
H234 H 0.95108 0.08846 0.95227 0.0
H235 H 0.97708 0.08548 0.02011 0.0
H236 H 0.15269 0.97374 0.08648 0.0
H237 H 0.19284 0.01516 0.03482 0.0
H238 H 0.03072 0.06131 0.92853 0.0
C239 C 0.94186 0.96834 0.04316 0.0
C240 C 0.95658 0.94064 0.08799 0.0
C241 C 0.01248 0.93032 0.11828 0.0
C242 C 0.05308 0.94686 0.104 0.0
C243 C 0.03714 0.97381 0.0595 0.0
C244 C 0.98298 0.98475 0.02964 0.0
C245 C 0.97699 0.01467 0.98382 0.0
C246 C 0.94306 0.9867 0.9347 0.0
C247 C 0.95232 0.06566 0.9844 0.0
C248 C 0.03626 0.01863 0.99258 0.0
C249 C 0.07022 0.99466 0.03635 0.0
C250 C 0.12659 0.99278 0.05215 0.0
C251 C 0.14895 0.0163 0.02247 0.0
C252 C 0.11493 0.04153 0.97767 0.0
C253 C 0.05785 0.04252 0.96266 0.0
H254 H 0.28133 0.1658 0.07809 0.0
H255 H 0.30226 0.2996 0.00638 0.0
H256 H 0.31645 0.34643 0.08373 0.0
H257 H 0.2013 0.2171 0.13019 0.0
H258 H 0.22809 0.1812 0.18752 0.0
H259 H 0.23012 0.15695 0.13105 0.0
H260 H 0.33485 0.14473 0.17827 0.0
H261 H 0.33317 0.16876 0.23519 0.0
H262 H 0.37761 0.19619 0.21029 0.0
H263 H 0.31647 0.37982 0.16413 0.0
H264 H 0.29934 0.39815 0.2388 0.0
H265 H 0.2753 0.24241 0.25679 0.0
C266 C 0.29049 0.20473 0.07888 0.0
C267 C 0.29117 0.22892 0.03605 0.0
C268 C 0.30206 0.28012 0.03871 0.0
C269 C 0.31025 0.30696 0.08257 0.0
C270 C 0.30756 0.28203 0.12341 0.0
C271 C 0.29811 0.23196 0.12192 0.0
C272 C 0.2909 0.21463 0.1682 0.0
C273 C 0.23425 0.19112 0.15333 0.0
C274 C 0.33689 0.17897 0.19986 0.0
C275 C 0.29581 0.26311 0.19537 0.0
C276 C 0.30645 0.30138 0.16936 0.0
C277 C 0.30891 0.35006 0.18508 0.0
C278 C 0.29892 0.36006 0.22756 0.0
C279 C 0.28608 0.32167 0.25387 0.0
C280 C 0.28596 0.27243 0.23815 0.0
H281 H 0.73263 0.74215 0.25452 0.0
H282 H 0.70287 0.89695 0.27073 0.0
H283 H 0.68353 0.87732 0.34398 0.0
H284 H 0.62902 0.69238 0.29777 0.0
H285 H 0.6731 0.64184 0.33056 0.0
H286 H 0.67562 0.66689 0.27432 0.0
H287 H 0.77969 0.68179 0.32372 0.0
H288 H 0.77744 0.65705 0.37996 0.0
H289 H 0.80417 0.71807 0.38072 0.0
H290 H 0.68151 0.84292 0.42342 0.0
H291 H 0.69504 0.79558 0.50045 0.0
H292 H 0.72312 0.66342 0.43087 0.0
C293 C 0.72025 0.77166 0.27241 0.0
C294 C 0.71917 0.82103 0.25666 0.0
C295 C 0.70406 0.85876 0.28201 0.0
C296 C 0.69275 0.84801 0.32365 0.0
C297 C 0.69613 0.79923 0.33943 0.0
C298 C 0.70887 0.76155 0.31422 0.0
C299 C 0.71478 0.71297 0.34159 0.0
C300 C 0.67047 0.67636 0.30912 0.0
C301 C 0.77243 0.69124 0.35744 0.0
C302 C 0.7056 0.72963 0.38699 0.0
C303 C 0.69424 0.77936 0.38492 0.0
C304 C 0.68919 0.80366 0.42497 0.0
C305 C 0.69693 0.77653 0.46863 0.0
C306 C 0.70977 0.72569 0.47185 0.0
C307 C 0.71265 0.70207 0.42972 0.0
H308 H 0.73447 0.84195 0.93752 0.0
H309 H 0.70612 0.70848 0.00514 0.0
H310 H 0.68627 0.66381 0.9253 0.0
H311 H 0.63416 0.81738 0.80359 0.0
H312 H 0.68003 0.84335 0.77954 0.0
H313 H 0.67951 0.86682 0.83713 0.0
H314 H 0.78352 0.85027 0.88386 0.0
H315 H 0.78437 0.82644 0.82682 0.0
H316 H 0.80923 0.78905 0.88315 0.0
H317 H 0.6858 0.63129 0.84494 0.0
H318 H 0.70549 0.61253 0.77176 0.0
H319 H 0.73661 0.76723 0.75719 0.0
C320 C 0.72257 0.8036 0.93533 0.0
C321 C 0.72181 0.77866 0.97773 0.0
C322 C 0.70648 0.72845 0.97312 0.0
C323 C 0.69511 0.70287 0.92787 0.0
C324 C 0.6987 0.72826 0.88762 0.0
C325 C 0.7116 0.7777 0.89087 0.0
C326 C 0.71983 0.79526 0.84518 0.0
C327 C 0.67574 0.83293 0.81454 0.0
C328 C 0.77766 0.81646 0.86071 0.0
C329 C 0.7124 0.74733 0.81665 0.0
C330 C 0.69902 0.70939 0.84126 0.0
C331 C 0.69518 0.66085 0.82493 0.0
C332 C 0.70674 0.65058 0.78344 0.0
C333 C 0.72239 0.68856 0.75875 0.0
C334 C 0.72357 0.73775 0.77464 0.0
H335 H 0.22273 0.14876 0.68868 0.0
H336 H 0.32595 0.25487 0.79859 0.0
H337 H 0.35695 0.28689 0.7357 0.0
H338 H 0.31273 0.12692 0.62303 0.0
H339 H 0.25553 0.12367 0.56198 0.0
H340 H 0.24777 0.10403 0.61767 0.0
H341 H 0.16679 0.16468 0.59676 0.0
H342 H 0.1738 0.18368 0.5408 0.0
H343 H 0.17629 0.22895 0.58689 0.0
H344 H 0.36829 0.31361 0.6589 0.0
H345 H 0.35117 0.33898 0.57224 0.0
H346 H 0.24118 0.21572 0.51176 0.0
C347 C 0.25273 0.17809 0.69994 0.0
C348 C 0.27226 0.19906 0.74877 0.0
C349 C 0.31046 0.23816 0.76149 0.0
C350 C 0.32871 0.25625 0.72615 0.0
C351 C 0.30848 0.23481 0.67829 0.0
C352 C 0.27099 0.1968 0.66503 0.0
C353 C 0.25061 0.18407 0.60951 0.0
C354 C 0.2677 0.13155 0.60266 0.0
C355 C 0.18821 0.19079 0.58189 0.0
C356 C 0.28087 0.22217 0.59301 0.0
C357 C 0.31508 0.25028 0.63358 0.0
C358 C 0.34282 0.29111 0.6271 0.0
C359 C 0.33327 0.30503 0.57782 0.0
C360 C 0.29646 0.27818 0.53575 0.0
C361 C 0.27155 0.23526 0.54352 0.0
H362 H 0.37838 0.48899 0.40417 0.0
H363 H 0.33904 0.48395 0.53407 0.0
H364 H 0.43446 0.50406 0.58985 0.0
H365 H 0.50548 0.43233 0.46091 0.0
H366 H 0.53896 0.47016 0.43159 0.0
H367 H 0.4663 0.46036 0.40025 0.0
H368 H 0.44907 0.5546 0.39481 0.0
H369 H 0.52179 0.56477 0.42491 0.0
H370 H 0.47839 0.59131 0.45142 0.0
H371 H 0.5352 0.51494 0.63244 0.0
H372 H 0.63322 0.5304 0.65853 0.0
H373 H 0.60743 0.53048 0.5011 0.0
C374 C 0.38939 0.49345 0.44415 0.0
C375 C 0.35112 0.4847 0.46466 0.0
C376 C 0.36748 0.49048 0.51733 0.0
C377 C 0.42171 0.50162 0.54946 0.0
C378 C 0.45891 0.50746 0.52829 0.0
C379 C 0.44335 0.5048 0.4768 0.0
C380 C 0.49185 0.51174 0.46403 0.0
C381 C 0.50117 0.46591 0.43764 0.0
C382 C 0.48486 0.55839 0.4319 0.0
C383 C 0.53715 0.51782 0.51651 0.0
C384 C 0.51723 0.51485 0.55296 0.0
C385 C 0.55128 0.518 0.60425 0.0
C386 C 0.60704 0.52632 0.61867 0.0
C387 C 0.62811 0.53181 0.58187 0.0
C388 C 0.59267 0.52649 0.53016 0.0
H389 H 0.39591 0.03172 0.00479 0.0
H390 H 0.37201 0.03523 0.84795 0.0
H391 H 0.46992 0.01755 0.87469 0.0
H392 H 0.5255 0.09027 0.05671 0.0
H393 H 0.55301 0.05252 0.11275 0.0
H394 H 0.48056 0.06388 0.08162 0.0
H395 H 0.46144 0.96991 0.07306 0.0
H396 H 0.53373 0.95829 0.10515 0.0
H397 H 0.49472 0.93187 0.04374 0.0
H398 H 0.57077 0.00333 0.91849 0.0
H399 H 0.66571 0.98218 0.97543 0.0
H400 H 0.62354 0.98743 0.10364 0.0
C401 C 0.41101 0.02816 0.97593 0.0
C402 C 0.37621 0.03494 0.92425 0.0
C403 C 0.39775 0.02999 0.88776 0.0
C404 C 0.45341 0.02035 0.90258 0.0
C405 C 0.48683 0.01552 0.95392 0.0
C406 C 0.46634 0.01841 0.98998 0.0
C407 C 0.51087 0.01102 0.04264 0.0
C408 C 0.51788 0.05718 0.07534 0.0
C409 C 0.49951 0.96503 0.0676 0.0
C410 C 0.55964 0.00351 0.03051 0.0
C411 C 0.54496 0.00676 0.97918 0.0
C412 C 0.58279 0.00052 0.95876 0.0
C413 C 0.63672 0.98879 0.99152 0.0
C414 C 0.65218 0.98305 0.04409 0.0
C415 C 0.61325 0.99184 0.06377 0.0
loop_
_geom_bond_atom_site_label_1
_geom_bond_atom_site_label_2
_geom_bond_distance
_geom_bond_site_symmetry_2
_ccdc_geom_bond_type
O0 Zn1 1.953 . S
O0 C16 1.225 . S
Zn1 O0 1.953 . S
Zn1 O2 1.949 . S
Zn1 O8 1.919 . S
Zn1 O13 1.924 . S
O2 Zn1 1.949 . S
O2 Zn3 1.923 . S
O2 Zn4 1.950 . S
O2 Zn5 1.945 . S
Zn3 O2 1.923 . S
Zn3 O6 1.933 . S
Zn3 O9 1.941 . S
Zn3 O10 1.965 . S
Zn4 O2 1.950 . S
Zn4 O11 1.938 . S
Zn4 O12 1.906 . S
Zn4 O22 1.953 . S
Zn5 O2 1.945 . S
Zn5 O7 1.932 . S
Zn5 O14 1.977 . S
Zn5 O15 1.910 . S
O6 Zn3 1.933 . S
O6 C17 1.226 . S
O7 Zn5 1.932 . S
O7 C17 1.307 . S
O8 Zn1 1.919 . S
O8 C19 1.253 . S
O9 Zn3 1.941 . S
O9 C19 1.283 . S
O10 Zn3 1.965 . S
O10 C18 1.303 . S
O11 Zn4 1.938 . S
O11 C18 1.247 . S
O12 Zn4 1.906 . S
O12 C20 1.304 . S
O13 Zn1 1.924 . S
O13 C21 1.311 . S
O14 Zn5 1.977 . S
O14 C20 1.272 . S
O15 Zn5 1.910 . S
O15 C21 1.231 . S
C16 O0 1.225 . S
C16 O22 1.298 . S
C17 O6 1.226 . S
C17 O7 1.307 . S
C18 O10 1.303 . S
C18 O11 1.247 . S
C19 O8 1.253 . S
C19 O9 1.283 . S
C20 O12 1.304 . S
C20 O14 1.272 . S
C21 O13 1.311 . S
C21 O15 1.231 . S
O22 Zn4 1.953 . S
O22 C16 1.298 . S
O23 Zn24 1.953 . S
O23 C39 1.225 . S
Zn24 O23 1.953 . S
Zn24 O25 1.949 . S
Zn24 O31 1.919 . S
Zn24 O36 1.924 . S
O25 Zn24 1.949 . S
O25 Zn26 1.923 . S
O25 Zn27 1.950 . S
O25 Zn28 1.945 . S
Zn26 O25 1.923 . S
Zn26 O29 1.933 . S
Zn26 O32 1.941 . S
Zn26 O33 1.965 . S
Zn27 O25 1.950 . S
Zn27 O34 1.938 1_554 S
Zn27 O35 1.906 . S
Zn27 O45 1.953 . S
Zn28 O25 1.945 . S
Zn28 O30 1.932 . S
Zn28 O37 1.977 . S
Zn28 O38 1.910 . S
O29 Zn26 1.933 . S
O29 C40 1.226 . S
O30 Zn28 1.932 . S
O30 C40 1.307 . S
O31 Zn24 1.919 . S
O31 C42 1.253 . S
O32 Zn26 1.941 . S
O32 C42 1.283 . S
O33 Zn26 1.965 . S
O33 C41 1.303 . S
O34 Zn27 1.938 1_556 S
O34 C41 1.247 1_556 S
O35 Zn27 1.906 . S
O35 C43 1.304 . S
O36 Zn24 1.924 . S
O36 C44 1.311 . S
O37 Zn28 1.977 . S
O37 C43 1.272 . S
O38 Zn28 1.910 . S
O38 C44 1.231 . S
C39 O23 1.225 . S
C39 O45 1.298 . S
C40 O29 1.226 . S
C40 O30 1.307 . S
C41 O33 1.303 . S
C41 O34 1.247 1_554 S
C42 O31 1.253 . S
C42 O32 1.283 . S
C43 O35 1.304 . S
C43 O37 1.272 . S
C44 O36 1.311 . S
C44 O38 1.231 . S
O45 Zn27 1.953 . S
O45 C39 1.298 . S
O46 Zn47 1.953 . S
O46 C62 1.225 . S
Zn47 O46 1.953 . S
Zn47 O48 1.949 . S
Zn47 O54 1.919 . S
Zn47 O59 1.924 . S
O48 Zn47 1.949 . S
O48 Zn49 1.923 . S
O48 Zn50 1.950 . S
O48 Zn51 1.945 . S
Zn49 O48 1.923 . S
Zn49 O52 1.933 . S
Zn49 O55 1.941 . S
Zn49 O56 1.965 . S
Zn50 O48 1.950 . S
Zn50 O57 1.938 . S
Zn50 O58 1.906 . S
Zn50 O68 1.953 . S
Zn51 O48 1.945 . S
Zn51 O53 1.932 . S
Zn51 O60 1.977 . S
Zn51 O61 1.910 . S
O52 Zn49 1.933 . S
O52 C63 1.226 . S
O53 Zn51 1.932 . S
O53 C63 1.307 . S
O54 Zn47 1.919 . S
O54 C65 1.253 . S
O55 Zn49 1.941 . S
O55 C65 1.283 . S
O56 Zn49 1.965 . S
O56 C64 1.303 . S
O57 Zn50 1.938 . S
O57 C64 1.247 . S
O58 Zn50 1.906 . S
O58 C66 1.304 . S
O59 Zn47 1.924 . S
O59 C67 1.311 . S
O60 Zn51 1.977 . S
O60 C66 1.272 . S
O61 Zn51 1.910 . S
O61 C67 1.231 . S
C62 O46 1.225 . S
C62 O68 1.298 . S
C63 O52 1.226 . S
C63 O53 1.307 . S
C64 O56 1.303 . S
C64 O57 1.247 . S
C65 O54 1.253 . S
C65 O55 1.283 . S
C66 O58 1.304 . S
C66 O60 1.272 . S
C67 O59 1.311 . S
C67 O61 1.231 . S
O68 Zn50 1.953 . S
O68 C62 1.298 . S
O69 Zn70 1.953 . S
O69 C85 1.225 . S
Zn70 O69 1.953 . S
Zn70 O71 1.949 . S
Zn70 O77 1.919 . S
Zn70 O82 1.924 . S
O71 Zn70 1.949 . S
O71 Zn72 1.923 . S
O71 Zn73 1.950 . S
O71 Zn74 1.945 . S
Zn72 O71 1.923 . S
Zn72 O75 1.933 . S
Zn72 O78 1.941 . S
Zn72 O79 1.965 . S
Zn73 O71 1.950 . S
Zn73 O80 1.938 1_556 S
Zn73 O81 1.906 . S
Zn73 O91 1.953 . S
Zn74 O71 1.945 . S
Zn74 O76 1.932 . S
Zn74 O83 1.977 . S
Zn74 O84 1.910 . S
O75 Zn72 1.933 . S
O75 C86 1.226 . S
O76 Zn74 1.932 . S
O76 C86 1.307 . S
O77 Zn70 1.919 . S
O77 C88 1.253 . S
O78 Zn72 1.941 . S
O78 C88 1.283 . S
O79 Zn72 1.965 . S
O79 C87 1.303 . S
O80 Zn73 1.938 1_554 S
O80 C87 1.247 1_554 S
O81 Zn73 1.906 . S
O81 C89 1.304 . S
O82 Zn70 1.924 . S
O82 C90 1.311 . S
O83 Zn74 1.977 . S
O83 C89 1.272 . S
O84 Zn74 1.910 . S
O84 C90 1.231 . S
C85 O69 1.225 . S
C85 O91 1.298 . S
C86 O75 1.226 . S
C86 O76 1.307 . S
C87 O79 1.303 . S
C87 O80 1.247 1_556 S
C88 O77 1.253 . S
C88 O78 1.283 . S
C89 O81 1.304 . S
C89 O83 1.272 . S
C90 O82 1.311 . S
C90 O84 1.231 . S
O91 Zn73 1.953 . S
O91 C85 1.298 . S
H92 C104 0.930 . S
H93 C106 0.930 . S
H94 C107 0.930 . S
H95 C111 0.959 . S
H96 C111 0.959 . S
H97 C111 0.961 . S
H98 C112 0.960 1_655 S
H99 C112 0.961 . S
H100 C112 0.959 . S
H101 C115 0.929 . S
H102 C116 0.931 . S
H103 C118 0.930 . S
C104 H92 0.930 . S
C104 C105 1.399 . S
C104 C109 1.399 . S
C105 C104 1.399 . S
C105 C106 1.376 . S
C106 H93 0.930 . S
C106 C105 1.376 . S
C106 C107 1.388 . S
C107 H94 0.930 . S
C107 C106 1.388 . S
C107 C108 1.390 . S
C108 C107 1.390 . S
C108 C109 1.394 . S
C108 C114 1.465 1_655 S
C109 C104 1.399 . S
C109 C108 1.394 . S
C109 C110 1.516 . S
C110 C109 1.516 . S
C110 C111 1.502 . S
C110 C112 1.561 1_655 S
C110 C113 1.526 . S
C111 H95 0.959 . S
C111 H96 0.959 . S
C111 H97 0.961 . S
C111 C110 1.502 . S
C112 H98 0.960 1_455 S
C112 H99 0.961 . S
C112 H100 0.959 . S
C112 C110 1.561 1_455 S
C113 C110 1.526 . S
C113 C114 1.396 1_655 S
C113 C118 1.390 1_655 S
C114 C108 1.465 1_455 S
C114 C113 1.396 1_455 S
C114 C115 1.399 . S
C115 H101 0.929 . S
C115 C114 1.399 . S
C115 C116 1.385 . S
C116 H102 0.931 . S
C116 C115 1.385 . S
C116 C117 1.389 . S
C117 C116 1.389 . S
C117 C118 1.387 . S
C118 H103 0.930 . S
C118 C113 1.390 1_455 S
C118 C117 1.387 . S
H119 C131 0.930 . S
H120 C133 0.930 . S
H121 C134 0.930 . S
H122 C138 0.959 . S
H123 C138 0.959 . S
H124 C138 0.961 . S
H125 C139 0.960 . S
H126 C139 0.961 . S
H127 C139 0.959 . S
H128 C142 0.929 . S
H129 C143 0.931 . S
H130 C145 0.930 . S
C131 H119 0.930 . S
C131 C132 1.399 . S
C131 C136 1.399 . S
C132 C131 1.399 . S
C132 C133 1.376 . S
C133 H120 0.930 . S
C133 C132 1.376 . S
C133 C134 1.388 . S
C134 H121 0.930 . S
C134 C133 1.388 . S
C134 C135 1.390 . S
C135 C134 1.390 . S
C135 C136 1.394 . S
C135 C141 1.465 . S
C136 C131 1.399 . S
C136 C135 1.394 . S
C136 C137 1.512 1_455 S
C137 C136 1.512 1_655 S
C137 C138 1.507 . S
C137 C139 1.561 1_655 S
C137 C140 1.525 . S
C138 H122 0.959 . S
C138 H123 0.959 . S
C138 H124 0.961 . S
C138 C137 1.507 . S
C139 H125 0.960 . S
C139 H126 0.961 . S
C139 H127 0.959 . S
C139 C137 1.561 1_455 S
C140 C137 1.525 . S
C140 C141 1.396 1_655 S
C140 C145 1.390 . S
C141 C135 1.465 . S
C141 C140 1.396 1_455 S
C141 C142 1.399 . S
C142 H128 0.929 . S
C142 C141 1.399 . S
C142 C143 1.385 1_455 S
C143 H129 0.931 . S
C143 C142 1.385 1_655 S
C143 C144 1.389 . S
C144 C143 1.389 . S
C144 C145 1.387 . S
C145 H130 0.930 . S
C145 C140 1.390 . S
C145 C144 1.387 . S
H146 C158 0.930 . S
H147 C160 0.930 . S
H148 C161 0.930 . S
H149 C165 0.957 1_655 S
H150 C165 0.959 1_655 S
H151 C165 0.962 . S
H152 C166 0.960 . S
H153 C166 0.961 . S
H154 C166 0.959 . S
H155 C169 0.929 . S
H156 C170 0.931 . S
H157 C172 0.930 . S
C158 H146 0.930 . S
C158 C159 1.399 . S
C158 C163 1.399 . S
C159 C158 1.399 . S
C159 C160 1.376 . S
C160 H147 0.930 . S
C160 C159 1.376 . S
C160 C161 1.388 . S
C161 H148 0.930 . S
C161 C160 1.388 . S
C161 C162 1.390 . S
C162 C161 1.390 . S
C162 C163 1.394 . S
C162 C168 1.465 . S
C163 C158 1.399 . S
C163 C162 1.394 . S
C163 C164 1.516 . S
C164 C163 1.516 . S
C164 C165 1.502 . S
C164 C166 1.561 . S
C164 C167 1.526 . S
C165 H149 0.957 1_455 S
C165 H150 0.959 1_455 S
C165 H151 0.962 . S
C165 C164 1.502 . S
C166 H152 0.960 . S
C166 H153 0.961 . S
C166 H154 0.959 . S
C166 C164 1.561 . S
C167 C164 1.526 . S
C167 C168 1.396 . S
C167 C172 1.390 1_455 S
C168 C162 1.465 . S
C168 C167 1.396 . S
C168 C169 1.399 1_455 S
C169 H155 0.929 . S
C169 C168 1.399 1_655 S
C169 C170 1.385 . S
C170 H156 0.931 . S
C170 C169 1.385 . S
C170 C171 1.389 . S
C171 C170 1.389 . S
C171 C172 1.387 . S
C172 H157 0.930 . S
C172 C167 1.390 1_655 S
C172 C171 1.387 . S
H173 C185 0.930 . S
H174 C187 0.930 . S
H175 C188 0.930 . S
H176 C192 0.959 . S
H177 C192 0.959 . S
H178 C192 0.961 . S
H179 C193 0.960 . S
H180 C193 0.961 . S
H181 C193 0.959 . S
H182 C196 0.929 . S
H183 C197 0.931 . S
H184 C199 0.930 . S
C185 H173 0.930 . S
C185 C186 1.399 . S
C185 C190 1.399 . S
C186 C185 1.399 . S
C186 C187 1.376 . S
C187 H174 0.930 . S
C187 C186 1.376 . S
C187 C188 1.388 . S
C188 H175 0.930 . S
C188 C187 1.388 . S
C188 C189 1.390 . S
C189 C188 1.390 . S
C189 C190 1.394 . S
C189 C195 1.467 . S
C190 C185 1.399 . S
C190 C189 1.394 . S
C190 C191 1.516 . S
C191 C190 1.516 . S
C191 C192 1.502 . S
C191 C193 1.561 1_655 S
C191 C194 1.525 1_655 S
C192 H176 0.959 . S
C192 H177 0.959 . S
C192 H178 0.961 . S
C192 C191 1.502 . S
C193 H179 0.960 . S
C193 H180 0.961 . S
C193 H181 0.959 . S
C193 C191 1.561 1_455 S
C194 C191 1.525 1_455 S
C194 C195 1.386 1_455 S
C194 C199 1.398 . S
C195 C189 1.467 . S
C195 C194 1.386 1_655 S
C195 C196 1.399 1_655 S
C196 H182 0.929 . S
C196 C195 1.399 1_455 S
C196 C197 1.385 . S
C197 H183 0.931 . S
C197 C196 1.385 . S
C197 C198 1.389 . S
C198 C197 1.389 . S
C198 C199 1.387 . S
C199 H184 0.930 . S
C199 C194 1.398 . S
C199 C198 1.387 . S
H200 C212 0.930 . S
H201 C214 0.930 . S
H202 C215 0.930 . S
H203 C219 0.959 . S
H204 C219 0.959 . S
H205 C219 0.961 . S
H206 C220 0.960 . S
H207 C220 0.961 . S
H208 C220 0.959 . S
H209 C223 0.929 1_655 S
H210 C224 0.931 . S
H211 C226 0.930 . S
C212 H200 0.930 . S
C212 C213 1.399 . S
C212 C217 1.399 . S
C213 C212 1.399 . S
C213 C214 1.376 . S
C214 H201 0.930 . S
C214 C213 1.376 . S
C214 C215 1.388 . S
C215 H202 0.930 . S
C215 C214 1.388 . S
C215 C216 1.390 . S
C216 C215 1.390 . S
C216 C217 1.394 . S
C216 C222 1.465 1_655 S
C217 C212 1.399 . S
C217 C216 1.394 . S
C217 C218 1.516 1_655 S
C218 C217 1.516 1_455 S
C218 C219 1.502 . S
C218 C220 1.561 . S
C218 C221 1.526 . S
C219 H203 0.959 . S
C219 H204 0.959 . S
C219 H205 0.961 . S
C219 C218 1.502 . S
C220 H206 0.960 . S
C220 H207 0.961 . S
C220 H208 0.959 . S
C220 C218 1.561 . S
C221 C218 1.526 . S
C221 C222 1.396 . S
C221 C226 1.390 . S
C222 C216 1.465 1_455 S
C222 C221 1.396 . S
C222 C223 1.399 . S
C223 H209 0.929 1_455 S
C223 C222 1.399 . S
C223 C224 1.385 . S
C224 H210 0.931 . S
C224 C223 1.385 . S
C224 C225 1.389 . S
C225 C224 1.389 . S
C225 C226 1.387 . S
C226 H211 0.930 . S
C226 C221 1.390 . S
C226 C225 1.387 . S
H227 C239 0.917 1_545 S
H228 C241 0.930 . S
H229 C242 0.922 1_556 S
H230 C246 0.959 . S
H231 C246 0.959 . S
H232 C246 0.961 1_554 S
H233 C247 0.960 1_655 S
H234 C247 0.961 . S
H235 C247 0.959 . S
H236 C250 0.929 . S
H237 C251 0.931 . S
H238 C253 0.930 . S
C239 H227 0.917 1_565 S
C239 C240 1.414 . S
C239 C244 1.397 1_565 S
C240 C239 1.414 . S
C240 C241 1.376 . S
C241 H228 0.930 . S
C241 C240 1.376 . S
C241 C242 1.399 . S
C242 H229 0.922 1_554 S
C242 C241 1.399 . S
C242 C243 1.388 . S
C243 C242 1.388 . S
C243 C244 1.394 1_565 S
C243 C249 1.465 1_654 S
C244 C239 1.397 1_545 S
C244 C243 1.394 1_545 S
C244 C245 1.516 . S
C245 C244 1.516 . S
C245 C246 1.502 1_554 S
C245 C247 1.561 1_655 S
C245 C248 1.526 1_655 S
C246 H230 0.959 . S
C246 H231 0.959 . S
C246 H232 0.961 1_556 S
C246 C245 1.502 1_556 S
C247 H233 0.960 1_455 S
C247 H234 0.961 . S
C247 H235 0.959 . S
C247 C245 1.561 1_455 S
C248 C245 1.526 1_455 S
C248 C249 1.396 1_544 S
C248 C253 1.390 1_554 S
C249 C243 1.465 1_456 S
C249 C248 1.396 1_566 S
C249 C250 1.399 . S
C250 H236 0.929 . S
C250 C249 1.399 . S
C250 C251 1.385 . S
C251 H237 0.931 . S
C251 C250 1.385 . S
C251 C252 1.389 1_565 S
C252 C251 1.389 1_545 S
C252 C253 1.387 . S
C253 H238 0.930 . S
C253 C248 1.390 1_556 S
C253 C252 1.387 . S
H254 C266 0.930 . S
H255 C268 0.930 . S
H256 C269 0.930 . S
H257 C273 0.959 . S
H258 C273 0.959 . S
H259 C273 0.961 . S
H260 C274 0.960 . S
H261 C274 0.961 . S
H262 C274 0.959 . S
H263 C277 0.929 . S
H264 C278 0.931 . S
H265 C280 0.930 . S
C266 H254 0.930 . S
C266 C267 1.399 . S
C266 C271 1.399 . S
C267 C266 1.399 . S
C267 C268 1.376 . S
C268 H255 0.930 . S
C268 C267 1.376 . S
C268 C269 1.388 . S
C269 H256 0.930 . S
C269 C268 1.388 . S
C269 C270 1.390 . S
C270 C269 1.390 . S
C270 C271 1.394 . S
C270 C276 1.465 . S
C271 C266 1.399 . S
C271 C270 1.394 . S
C271 C272 1.516 . S
C272 C271 1.516 . S
C272 C273 1.502 . S
C272 C274 1.561 . S
C272 C275 1.526 . S
C273 H257 0.959 . S
C273 H258 0.959 . S
C273 H259 0.961 . S
C273 C272 1.502 . S
C274 H260 0.960 . S
C274 H261 0.961 . S
C274 H262 0.959 . S
C274 C272 1.561 . S
C275 C272 1.526 . S
C275 C276 1.396 . S
C275 C280 1.390 . S
C276 C270 1.465 . S
C276 C275 1.396 . S
C276 C277 1.399 . S
C277 H263 0.929 . S
C277 C276 1.399 . S
C277 C278 1.385 . S
C278 H264 0.931 . S
C278 C277 1.385 . S
C278 C279 1.389 . S
C279 C278 1.389 . S
C279 C280 1.387 . S
C280 H265 0.930 . S
C280 C275 1.390 . S
C280 C279 1.387 . S
H281 C293 0.930 . S
H282 C295 0.930 . S
H283 C296 0.930 . S
H284 C300 0.959 . S
H285 C300 0.959 . S
H286 C300 0.961 . S
H287 C301 0.960 . S
H288 C301 0.961 . S
H289 C301 0.959 . S
H290 C304 0.929 . S
H291 C305 0.931 . S
H292 C307 0.930 . S
C293 H281 0.930 . S
C293 C294 1.399 . S
C293 C298 1.399 . S
C294 C293 1.399 . S
C294 C295 1.376 . S
C295 H282 0.930 . S
C295 C294 1.376 . S
C295 C296 1.388 . S
C296 H283 0.930 . S
C296 C295 1.388 . S
C296 C297 1.390 . S
C297 C296 1.390 . S
C297 C298 1.394 . S
C297 C303 1.465 . S
C298 C293 1.399 . S
C298 C297 1.394 . S
C298 C299 1.516 . S
C299 C298 1.516 . S
C299 C300 1.502 . S
C299 C301 1.561 . S
C299 C302 1.526 . S
C300 H284 0.959 . S
C300 H285 0.959 . S
C300 H286 0.961 . S
C300 C299 1.502 . S
C301 H287 0.960 . S
C301 H288 0.961 . S
C301 H289 0.959 . S
C301 C299 1.561 . S
C302 C299 1.526 . S
C302 C303 1.396 . S
C302 C307 1.390 . S
C303 C297 1.465 . S
C303 C302 1.396 . S
C303 C304 1.399 . S
C304 H290 0.929 . S
C304 C303 1.399 . S
C304 C305 1.385 . S
C305 H291 0.931 . S
C305 C304 1.385 . S
C305 C306 1.389 . S
C306 C305 1.389 . S
C306 C307 1.387 . S
C307 H292 0.930 . S
C307 C302 1.390 . S
C307 C306 1.387 . S
H308 C320 0.930 . S
H309 C322 0.930 . S
H310 C323 0.930 . S
H311 C327 0.959 . S
H312 C327 0.959 . S
H313 C327 0.961 . S
H314 C328 0.960 . S
H315 C328 0.961 . S
H316 C328 0.959 . S
H317 C331 0.929 . S
H318 C332 0.931 . S
H319 C334 0.930 . S
C320 H308 0.930 . S
C320 C321 1.399 . S
C320 C325 1.399 . S
C321 C320 1.399 . S
C321 C322 1.376 . S
C322 H309 0.930 . S
C322 C321 1.376 . S
C322 C323 1.388 . S
C323 H310 0.930 . S
C323 C322 1.388 . S
C323 C324 1.390 . S
C324 C323 1.390 . S
C324 C325 1.394 . S
C324 C330 1.465 . S
C325 C320 1.399 . S
C325 C324 1.394 . S
C325 C326 1.516 . S
C326 C325 1.516 . S
C326 C327 1.502 . S
C326 C328 1.561 . S
C326 C329 1.526 . S
C327 H311 0.959 . S
C327 H312 0.959 . S
C327 H313 0.961 . S
C327 C326 1.502 . S
C328 H314 0.960 . S
C328 H315 0.961 . S
C328 H316 0.959 . S
C328 C326 1.561 . S
C329 C326 1.526 . S
C329 C330 1.396 . S
C329 C334 1.390 . S
C330 C324 1.465 . S
C330 C329 1.396 . S
C330 C331 1.399 . S
C331 H317 0.929 . S
C331 C330 1.399 . S
C331 C332 1.385 . S
C332 H318 0.931 . S
C332 C331 1.385 . S
C332 C333 1.389 . S
C333 C332 1.389 . S
C333 C334 1.387 . S
C334 H319 0.930 . S
C334 C329 1.390 . S
C334 C333 1.387 . S
H335 C347 0.930 . S
H336 C349 0.930 . S
H337 C350 0.930 . S
H338 C354 0.959 . S
H339 C354 0.959 . S
H340 C354 0.961 . S
H341 C355 0.960 . S
H342 C355 0.961 . S
H343 C355 0.959 . S
H344 C358 0.929 . S
H345 C359 0.931 . S
H346 C361 0.930 . S
C347 H335 0.930 . S
C347 C348 1.399 . S
C347 C352 1.399 . S
C348 C347 1.399 . S
C348 C349 1.376 . S
C349 H336 0.930 . S
C349 C348 1.376 . S
C349 C350 1.388 . S
C350 H337 0.930 . S
C350 C349 1.388 . S
C350 C351 1.390 . S
C351 C350 1.390 . S
C351 C352 1.394 . S
C351 C357 1.465 . S
C352 C347 1.399 . S
C352 C351 1.394 . S
C352 C353 1.516 . S
C353 C352 1.516 . S
C353 C354 1.502 . S
C353 C355 1.561 . S
C353 C356 1.526 . S
C354 H338 0.959 . S
C354 H339 0.959 . S
C354 H340 0.961 . S
C354 C353 1.502 . S
C355 H341 0.960 . S
C355 H342 0.961 . S
C355 H343 0.959 . S
C355 C353 1.561 . S
C356 C353 1.526 . S
C356 C357 1.396 . S
C356 C361 1.390 . S
C357 C351 1.465 . S
C357 C356 1.396 . S
C357 C358 1.399 . S
C358 H344 0.929 . S
C358 C357 1.399 . S
C358 C359 1.385 . S
C359 H345 0.931 . S
C359 C358 1.385 . S
C359 C360 1.389 . S
C360 C359 1.389 . S
C360 C361 1.387 . S
C361 H346 0.930 . S
C361 C356 1.390 . S
C361 C360 1.387 . S
H362 C374 0.930 . S
H363 C376 0.930 . S
H364 C377 0.930 . S
H365 C381 0.959 . S
H366 C381 0.959 . S
H367 C381 0.961 . S
H368 C382 0.960 . S
H369 C382 0.961 . S
H370 C382 0.959 . S
H371 C385 0.929 . S
H372 C386 0.931 . S
H373 C388 0.930 . S
C374 H362 0.930 . S
C374 C375 1.399 . S
C374 C379 1.399 . S
C375 C374 1.399 . S
C375 C376 1.376 . S
C376 H363 0.930 . S
C376 C375 1.376 . S
C376 C377 1.388 . S
C377 H364 0.930 . S
C377 C376 1.388 . S
C377 C378 1.390 . S
C378 C377 1.390 . S
C378 C379 1.394 . S
C378 C384 1.465 . S
C379 C374 1.399 . S
C379 C378 1.394 . S
C379 C380 1.516 . S
C380 C379 1.516 . S
C380 C381 1.502 . S
C380 C382 1.561 . S
C380 C383 1.526 . S
C381 H365 0.959 . S
C381 H366 0.959 . S
C381 H367 0.961 . S
C381 C380 1.502 . S
C382 H368 0.960 . S
C382 H369 0.961 . S
C382 H370 0.959 . S
C382 C380 1.561 . S
C383 C380 1.526 . S
C383 C384 1.396 . S
C383 C388 1.390 . S
C384 C378 1.465 . S
C384 C383 1.396 . S
C384 C385 1.399 . S
C385 H371 0.929 . S
C385 C384 1.399 . S
C385 C386 1.385 . S
C386 H372 0.931 . S
C386 C385 1.385 . S
C386 C387 1.389 . S
C387 C386 1.389 . S
C387 C388 1.387 . S
C388 H373 0.930 . S
C388 C383 1.390 . S
C388 C387 1.387 . S
H389 C401 0.930 . S
H390 C403 0.930 . S
H391 C404 0.930 . S
H392 C408 0.959 . S
H393 C408 0.959 1_554 S
H394 C408 0.961 . S
H395 C409 0.960 . S
H396 C409 0.961 . S
H397 C409 0.959 . S
H398 C412 0.929 . S
H399 C413 0.931 . S
H400 C415 0.930 . S
C401 H389 0.930 . S
C401 C402 1.399 . S
C401 C406 1.399 . S
C402 C401 1.399 . S
C402 C403 1.376 1_545 S
C403 H390 0.930 . S
C403 C402 1.376 1_565 S
C403 C404 1.388 . S
C404 H391 0.930 . S
C404 C403 1.388 . S
C404 C405 1.390 . S
C405 C404 1.390 . S
C405 C406 1.394 1_565 S
C405 C411 1.465 1_556 S
C406 C401 1.399 . S
C406 C405 1.394 1_545 S
C406 C407 1.516 1_556 S
C407 C406 1.516 1_554 S
C407 C408 1.502 1_554 S
C407 C409 1.561 . S
C407 C410 1.526 . S
C408 H392 0.959 . S
C408 H393 0.959 1_556 S
C408 H394 0.961 . S
C408 C407 1.502 1_556 S
C409 H395 0.960 . S
C409 H396 0.961 . S
C409 H397 0.959 . S
C409 C407 1.561 . S
C410 C407 1.526 . S
C410 C411 1.396 1_545 S
C410 C415 1.390 . S
C411 C405 1.465 1_554 S
C411 C410 1.396 1_565 S
C411 C412 1.399 . S
C412 H398 0.929 . S
C412 C411 1.399 . S
C412 C413 1.385 . S
C413 H399 0.931 . S
C413 C412 1.385 . S
C413 C414 1.389 . S
C414 C413 1.389 . S
C414 C415 1.387 1_565 S
C415 H400 0.930 . S
C415 C410 1.390 . S
C415 C414 1.387 1_545 S
C105 C44 1.653 1_545 S
C117 C19 1.632 . S
C132 C21 1.666 . S
C144 C42 1.600 . S
C159 C90 1.656 1_565 S
C171 C65 1.642 . S
C186 C67 1.661 . S
C198 C88 1.583 . S
C213 C62 0.889 . S
C225 C16 0.832 . S
C240 C39 0.833 . S
C252 C85 0.887 . S
C267 C87 1.596 1_554 S
C279 C17 1.565 . S
C294 C40 1.542 . S
C306 C64 1.605 . S
C321 C41 1.601 1_556 S
C333 C63 1.542 . S
C348 C86 1.551 . S
C360 C18 1.568 . S
C375 C20 1.313 . S
C387 C66 1.322 . S
C402 C89 1.313 . S
C414 C43 1.323 . S
