# Generated by pormake.
# Topology uoq, (4)-cn, num edge types: 1
# Building blocks:
#     Node 0, Type 0, BuildingBlock: CEKHIL_clean_sbu_0, # of connection points: 4
#     Node 1, Type 0, BuildingBlock: CEKHIL_clean_sbu_0, # of connection points: 4
#     Node 2, Type 0, BuildingBlock: CEKHIL_clean_sbu_0, # of connection points: 4
#     Node 3, Type 0, BuildingBlock: CEKHIL_clean_sbu_0, # of connection points: 4
#     Node 4, Type 0, BuildingBlock: CEKHIL_clean_sbu_0, # of connection points: 4
#     Node 5, Type 0, BuildingBlock: CEKHIL_clean_sbu_0, # of connection points: 4
#     Node 6, Type 0, BuildingBlock: CEKHIL_clean_sbu_0, # of connection points: 4
#     Node 7, Type 0, BuildingBlock: CEKHIL_clean_sbu_0, # of connection points: 4
#     Node 8, Type 0, BuildingBlock: CEKHIL_clean_sbu_0, # of connection points: 4
#     Node 9, Type 0, BuildingBlock: CEKHIL_clean_sbu_0, # of connection points: 4
#     Node 10, Type 0, BuildingBlock: CEKHIL_clean_sbu_0, # of connection points: 4
#     Node 11, Type 0, BuildingBlock: CEKHIL_clean_sbu_0, # of connection points: 4
#     Edge 12, Type (0, 0), BuildingBlock: MIFKUJ_clean_linker_0, # of connection points: 2
#     Edge 13, Type (0, 0), BuildingBlock: MIFKUJ_clean_linker_0, # of connection points: 2
#     Edge 14, Type (0, 0), BuildingBlock: MIFKUJ_clean_linker_0, # of connection points: 2
#     Edge 15, Type (0, 0), BuildingBlock: MIFKUJ_clean_linker_0, # of connection points: 2
#     Edge 16, Type (0, 0), BuildingBlock: MIFKUJ_clean_linker_0, # of connection points: 2
#     Edge 17, Type (0, 0), BuildingBlock: MIFKUJ_clean_linker_0, # of connection points: 2
#     Edge 18, Type (0, 0), BuildingBlock: MIFKUJ_clean_linker_0, # of connection points: 2
#     Edge 19, Type (0, 0), BuildingBlock: MIFKUJ_clean_linker_0, # of connection points: 2
#     Edge 20, Type (0, 0), BuildingBlock: MIFKUJ_clean_linker_0, # of connection points: 2
#     Edge 21, Type (0, 0), BuildingBlock: MIFKUJ_clean_linker_0, # of connection points: 2
#     Edge 22, Type (0, 0), BuildingBlock: MIFKUJ_clean_linker_0, # of connection points: 2
#     Edge 23, Type (0, 0), BuildingBlock: MIFKUJ_clean_linker_0, # of connection points: 2
#     Edge 24, Type (0, 0), BuildingBlock: MIFKUJ_clean_linker_0, # of connection points: 2
#     Edge 25, Type (0, 0), BuildingBlock: MIFKUJ_clean_linker_0, # of connection points: 2
#     Edge 26, Type (0, 0), BuildingBlock: MIFKUJ_clean_linker_0, # of connection points: 2
#     Edge 27, Type (0, 0), BuildingBlock: MIFKUJ_clean_linker_0, # of connection points: 2
#     Edge 28, Type (0, 0), BuildingBlock: MIFKUJ_clean_linker_0, # of connection points: 2
#     Edge 29, Type (0, 0), BuildingBlock: MIFKUJ_clean_linker_0, # of connection points: 2
#     Edge 30, Type (0, 0), BuildingBlock: MIFKUJ_clean_linker_0, # of connection points: 2
#     Edge 31, Type (0, 0), BuildingBlock: MIFKUJ_clean_linker_0, # of connection points: 2
#     Edge 32, Type (0, 0), BuildingBlock: MIFKUJ_clean_linker_0, # of connection points: 2
#     Edge 33, Type (0, 0), BuildingBlock: MIFKUJ_clean_linker_0, # of connection points: 2
#     Edge 34, Type (0, 0), BuildingBlock: MIFKUJ_clean_linker_0, # of connection points: 2
#     Edge 35, Type (0, 0), BuildingBlock: MIFKUJ_clean_linker_0, # of connection points: 2
# Relax obj value: 0.174
# Max RMSD: 0.159
# Mean RMSD: 0.159
data_MOF--net-uoq--node1-CEKHIL_clean_sbu_0--edge1-MIFKUJ_clean_linker_0
_symmetry_space_group_name_H-M    P1
_symmetry_Int_Tables_number       1
_symmetry_cell_setting            triclinic
loop_
_symmetry_equiv_pos_as_xyz
'x, y, z'
_cell_length_a     76.262976
_cell_length_b     76.290579
_cell_length_c     28.633235
_cell_angle_alpha  90.020048
_cell_angle_beta   90.019568
_cell_angle_gamma 119.96505
loop_
_atom_site_label
_atom_site_type_symbol
_atom_site_fract_x
_atom_site_fract_y
_atom_site_fract_z
_atom_type_partial_charge
Co0 Co 0.31283 0.44076 0.23596 0.0
O1 O 0.28831 0.42427 0.20033 0.0
O2 O 0.30708 0.45747 0.19452 0.0
C3 C 0.32696 0.421 0.22531 0.0
O4 O 0.33915 0.46298 0.26492 0.0
Co5 Co 0.32444 0.42446 0.3239 0.0
O6 O 0.35126 0.44923 0.31618 0.0
C7 C 0.29294 0.43637 0.33053 0.0
C8 C 0.29122 0.44087 0.18073 0.0
C9 C 0.35315 0.46414 0.29218 0.0
O10 O 0.2966 0.44357 0.28859 0.0
O11 O 0.30118 0.42684 0.34839 0.0
O12 O 0.3289 0.43395 0.19332 0.0
O13 O 0.31553 0.41941 0.2599 0.0
Co14 Co 0.86946 0.30653 0.58245 0.0
O15 O 0.86269 0.28272 0.54497 0.0
O16 O 0.84953 0.30249 0.53516 0.0
C17 C 0.90362 0.31985 0.58353 0.0
O18 O 0.87285 0.33255 0.61166 0.0
Co19 Co 0.89141 0.31483 0.67904 0.0
O20 O 0.89469 0.34217 0.67194 0.0
C21 C 0.84859 0.28289 0.66937 0.0
C22 C 0.85019 0.2865 0.52219 0.0
C23 C 0.8839 0.34547 0.64318 0.0
O24 O 0.8473 0.28938 0.62863 0.0
O25 O 0.86521 0.28967 0.69197 0.0
O26 O 0.89501 0.32276 0.54737 0.0
O27 O 0.89135 0.30778 0.61442 0.0
Co28 Co 0.56113 0.86556 0.91815 0.0
O29 O 0.5771 0.85646 0.88364 0.0
O30 O 0.54474 0.84562 0.87116 0.0
C31 C 0.58403 0.89931 0.91697 0.0
O32 O 0.53961 0.87158 0.94387 0.0
Co33 Co 0.57543 0.88931 0.01285 0.0
O34 O 0.55168 0.89297 1.00499 0.0
C35 C 0.55734 0.84467 0.01124 0.0
C36 C 0.56084 0.84482 0.85984 0.0
C37 C 0.53781 0.8827 0.97536 0.0
O38 O 0.55358 0.84354 0.96698 0.0
O39 O 0.567 0.86134 0.03367 0.0
O40 O 0.57256 0.89073 0.88075 0.0
O41 O 0.58256 0.8871 0.94956 0.0
Co42 Co 0.69486 0.56451 0.24002 0.0
O43 O 0.72015 0.57996 0.20606 0.0
O44 O 0.69888 0.54731 0.19631 0.0
C45 C 0.68348 0.58678 0.23208 0.0
O46 O 0.66742 0.54329 0.26642 0.0
Co47 Co 0.68393 0.58074 0.3293 0.0
O48 O 0.65645 0.55719 0.31995 0.0
C49 C 0.71187 0.56416 0.33579 0.0
C50 C 0.7157 0.5633 0.1843 0.0
C51 C 0.65368 0.5424 0.29415 0.0
O52 O 0.70934 0.55877 0.29236 0.0
O53 O 0.70438 0.57424 0.35444 0.0
O54 O 0.68075 0.57417 0.19852 0.0
O55 O 0.69416 0.58661 0.26653 0.0
Co56 Co 0.13797 0.69621 0.58177 0.0
O57 O 0.14523 0.72077 0.54676 0.0
O58 O 0.15526 0.69895 0.52943 0.0
C59 C 0.10441 0.68529 0.59156 0.0
O60 O 0.13366 0.66929 0.607 0.0
Co61 Co 0.12055 0.68843 0.68329 0.0
O62 O 0.11398 0.6602 0.67108 0.0
C63 C 0.16416 0.71608 0.66695 0.0
C64 C 0.15585 0.71588 0.51981 0.0
C65 C 0.1231 0.65638 0.63887 0.0
O66 O 0.16254 0.71144 0.6233 0.0
O67 O 0.1492 0.70978 0.69506 0.0
O68 O 0.11086 0.68198 0.55225 0.0
O69 O 0.1184 0.6965 0.62067 0.0
Co70 Co 0.44415 0.13955 0.91649 0.0
O71 O 0.42663 0.14428 0.87535 0.0
O72 O 0.45982 0.15862 0.86796 0.0
C73 C 0.42522 0.10529 0.92226 0.0
O74 O 0.46734 0.13832 0.94915 0.0
Co75 Co 0.43059 0.12142 0.01628 0.0
O76 O 0.45756 0.12348 0.01952 0.0
C77 C 0.43862 0.1623 0.99628 0.0
C78 C 0.44296 0.15692 0.85294 0.0
C79 C 0.47075 0.13159 0.98737 0.0
O80 O 0.44784 0.16264 0.95828 0.0
O81 O 0.42832 0.14627 0.02046 0.0
O82 O 0.4364 0.11347 0.88544 0.0
O83 O 0.42413 0.11784 0.95046 0.0
Co84 Co 0.56098 0.69184 0.43615 0.0
O85 O 0.577 0.71707 0.46995 0.0
O86 O 0.54428 0.69657 0.48 0.0
C87 C 0.58303 0.68015 0.44326 0.0
O88 O 0.53924 0.6644 0.41066 0.0
Co89 Co 0.5761 0.68028 0.34599 0.0
O90 O 0.55276 0.6529 0.35752 0.0
C91 C 0.55933 0.70801 0.34011 0.0
C92 C 0.56054 0.7132 0.49189 0.0
C93 C 0.53815 0.65037 0.38361 0.0
O94 O 0.55513 0.70633 0.38419 0.0
O95 O 0.56858 0.69991 0.32027 0.0
O96 O 0.57067 0.67767 0.47726 0.0
O97 O 0.58268 0.69068 0.40868 0.0
Co98 Co 0.86366 0.55602 0.75636 0.0
O99 O 0.85496 0.57314 0.78747 0.0
O100 O 0.8452 0.54165 0.80722 0.0
C101 C 0.89727 0.57929 0.75175 0.0
O102 O 0.8691 0.53345 0.73564 0.0
Co103 Co 0.88525 0.56512 0.65934 0.0
O104 O 0.8923 0.54443 0.67826 0.0
C105 C 0.84063 0.54785 0.66497 0.0
C106 C 0.84425 0.55792 0.81506 0.0
C107 C 0.88149 0.53134 0.70878 0.0
O108 O 0.84052 0.54646 0.70995 0.0
O109 O 0.85674 0.55559 0.64015 0.0
O110 O 0.88973 0.56939 0.79045 0.0
O111 O 0.88425 0.57594 0.7195 0.0
Co112 Co 0.30986 0.86596 0.09697 0.0
O113 O 0.28608 0.85951 0.13405 0.0
O114 O 0.30671 0.84764 0.14757 0.0
C115 C 0.32238 0.89983 0.09044 0.0
O116 O 0.33606 0.86948 0.06842 0.0
Co117 Co 0.31594 0.88455 0.99678 0.0
O118 O 0.34243 0.88562 0.99923 0.0
C119 C 0.28466 0.84241 0.01443 0.0
C120 C 0.29043 0.84802 0.15925 0.0
C121 C 0.34725 0.87755 0.03208 0.0
O122 O 0.29281 0.84235 0.05385 0.0
O123 O 0.29002 0.85843 0.99042 0.0
O124 O 0.32579 0.89252 0.12829 0.0
O125 O 0.31014 0.88652 0.06142 0.0
Co126 Co 0.448 0.31314 0.43484 0.0
O127 O 0.431 0.28834 0.46881 0.0
O128 O 0.46326 0.30931 0.48421 0.0
C129 C 0.42574 0.32459 0.4325 0.0
O130 O 0.47029 0.34024 0.40937 0.0
Co131 Co 0.43588 0.32246 0.33756 0.0
O132 O 0.45738 0.35054 0.35193 0.0
C133 C 0.45201 0.29436 0.34499 0.0
C134 C 0.44675 0.29255 0.49417 0.0
C135 C 0.47137 0.35385 0.38094 0.0
O136 O 0.45564 0.29789 0.38896 0.0
O137 O 0.44329 0.30163 0.31984 0.0
O138 O 0.43683 0.32767 0.46952 0.0
O139 O 0.42727 0.31353 0.40071 0.0
Co140 Co 0.14445 0.44695 0.75188 0.0
O141 O 0.15221 0.42916 0.78319 0.0
O142 O 0.16105 0.4601 0.80616 0.0
C143 C 0.11111 0.42404 0.74016 0.0
O144 O 0.13948 0.46987 0.73181 0.0
Co145 Co 0.12726 0.44051 0.65054 0.0
O146 O 0.11896 0.46027 0.66921 0.0
C147 C 0.17122 0.45755 0.66571 0.0
C148 C 0.16203 0.44378 0.81293 0.0
C149 C 0.12806 0.47244 0.70269 0.0
O150 O 0.16933 0.4578 0.71045 0.0
O151 O 0.15637 0.4505 0.63709 0.0
O152 O 0.11728 0.4327 0.78074 0.0
O153 O 0.12528 0.42804 0.71046 0.0
Co154 Co 0.69452 0.13819 0.09951 0.0
O155 O 0.71837 0.14343 0.13528 0.0
O156 O 0.69744 0.15438 0.15421 0.0
C157 C 0.68167 0.10459 0.08486 0.0
O158 O 0.66843 0.13584 0.0738 0.0
Co159 Co 0.68885 0.12444 0.99504 0.0
O160 O 0.66252 0.12353 1.00042 0.0
C161 C 0.71833 0.16629 0.01979 0.0
C162 C 0.71388 0.15395 0.16363 0.0
C163 C 0.65756 0.12989 0.03642 0.0
O164 O 0.71143 0.16374 0.06177 0.0
O165 O 0.71282 0.15204 0.98998 0.0
O166 O 0.6787 0.1105 0.1253 0.0
O167 O 0.69402 0.11897 0.05787 0.0
H168 H 0.31558 0.3815 0.23106 0.0
H169 H 0.33546 0.36747 0.26422 0.0
H170 H 0.38777 0.42739 0.27071 0.0
H171 H 0.36812 0.44118 0.23389 0.0
H172 H 0.40032 0.40124 0.26069 0.0
H173 H 0.35478 0.40642 0.36532 0.0
H174 H 0.32216 0.40198 0.39274 0.0
H175 H 0.29609 0.33744 0.38813 0.0
H176 H 0.3285 0.34148 0.36016 0.0
H177 H 0.43996 0.36517 0.44474 0.0
H178 H 0.42583 0.38492 0.40934 0.0
H179 H 0.3752 0.32983 0.35703 0.0
H180 H 0.38947 0.31028 0.39106 0.0
H181 H 0.3649 0.3582 0.3978 0.0
H182 H 0.412 0.35537 0.28584 0.0
H183 H 0.44578 0.36177 0.26195 0.0
H184 H 0.47076 0.42522 0.28882 0.0
H185 H 0.43711 0.41915 0.31315 0.0
C186 C 0.33157 0.39151 0.23754 0.0
C187 C 0.34037 0.41236 0.22979 0.0
C188 C 0.34287 0.38356 0.25728 0.0
C189 C 0.36293 0.39645 0.27186 0.0
C190 C 0.37228 0.41712 0.26036 0.0
C191 C 0.36108 0.42499 0.23908 0.0
C192 C 0.37324 0.38853 0.30263 0.0
C193 C 0.39267 0.3921 0.29103 0.0
C194 C 0.3635 0.37677 0.34283 0.0
C195 C 0.34405 0.37426 0.36036 0.0
C196 C 0.34207 0.39128 0.36997 0.0
C197 C 0.32361 0.38883 0.38559 0.0
C198 C 0.30705 0.36944 0.39205 0.0
C199 C 0.30893 0.35245 0.38307 0.0
C200 C 0.32735 0.3548 0.36741 0.0
C201 C 0.42552 0.35731 0.42687 0.0
C202 C 0.41559 0.3362 0.42117 0.0
C203 C 0.4176 0.36859 0.40622 0.0
C204 C 0.39951 0.35883 0.38034 0.0
C205 C 0.38913 0.33766 0.37686 0.0
C206 C 0.39723 0.3265 0.39652 0.0
C207 C 0.39156 0.37037 0.3549 0.0
C208 C 0.37259 0.36755 0.36773 0.0
C209 C 0.40194 0.38315 0.31667 0.0
C210 C 0.42209 0.38678 0.30169 0.0
C211 C 0.42472 0.37066 0.28691 0.0
C212 C 0.44382 0.37424 0.27317 0.0
C213 C 0.4604 0.39389 0.27383 0.0
C214 C 0.45789 0.41001 0.28822 0.0
C215 C 0.43881 0.40652 0.30193 0.0
H216 H 0.47518 0.39662 0.26333 0.0
H217 H 0.29277 0.36758 0.4041 0.0
H218 H 0.92219 0.31784 0.66239 0.0
H219 H 0.95744 0.33829 0.68481 0.0
H220 H 0.97098 0.36917 0.55244 0.0
H221 H 0.93494 0.34907 0.52994 0.0
H222 H 0.99609 0.34818 0.59552 0.0
H223 H 0.97519 0.39805 0.61999 0.0
H224 H 0.95211 0.40924 0.65037 0.0
H225 H 0.96086 0.39437 0.78984 0.0
H226 H 0.98379 0.38285 0.76019 0.0
H227 H 0.09705 0.41398 0.65129 0.0
H228 H 0.06279 0.39925 0.62303 0.0
H229 H 0.04115 0.3939 0.76448 0.0
H230 H 0.07631 0.4108 0.79306 0.0
H231 H 0.01956 0.403 0.71358 0.0
H232 H 0.03802 0.35213 0.69538 0.0
H233 H 0.05896 0.33745 0.67087 0.0
H234 H 0.05233 0.34934 0.52729 0.0
H235 H 0.03155 0.36432 0.55098 0.0
C236 C 0.93247 0.32908 0.63788 0.0
C237 C 0.9256 0.33192 0.59438 0.0
C238 C 0.95269 0.34076 0.65094 0.0
C239 C 0.96674 0.35535 0.62059 0.0
C240 C 0.96025 0.35803 0.57651 0.0
C241 C 0.93972 0.34653 0.56364 0.0
C242 C 0.98823 0.36709 0.6354 0.0
C243 C 1.00146 0.36053 0.62042 0.0
C244 C 0.99474 0.38237 0.66986 0.0
C245 C 0.98107 0.38943 0.6878 0.0
C246 C 0.97205 0.397 0.65708 0.0
C247 C 0.95905 0.40346 0.67419 0.0
C248 C 0.95501 0.4025 0.722 0.0
C249 C 0.964 0.39511 0.75282 0.0
C250 C 0.97703 0.38865 0.73588 0.0
C251 C 0.08518 0.40996 0.67673 0.0
C252 C 0.0896 0.41374 0.72464 0.0
C253 C 0.06537 0.40117 0.66034 0.0
C254 C 0.0491 0.3948 0.69145 0.0
C255 C 0.05336 0.39853 0.73955 0.0
C256 C 0.07345 0.40807 0.75598 0.0
C257 C 0.02785 0.38437 0.6732 0.0
C258 C 0.01448 0.39091 0.68809 0.0
C259 C 0.021 0.36864 0.63938 0.0
C260 C 0.03338 0.3595 0.62501 0.0
C261 C 0.04113 0.35172 0.6586 0.0
C262 C 0.05295 0.34333 0.64485 0.0
C263 C 0.05701 0.3425 0.59757 0.0
C264 C 0.04919 0.35001 0.56391 0.0
C265 C 0.03737 0.35842 0.57747 0.0
H266 H 0.06618 0.33601 0.587 0.0
H267 H 0.94492 0.40749 0.73517 0.0
H268 H 0.60707 0.91843 0.99246 0.0
H269 H 0.62118 0.95356 0.01558 0.0
H270 H 0.5999 0.96611 0.88745 0.0
H271 H 0.58478 0.93024 0.86433 0.0
H272 H 0.6456 0.9946 0.9255 0.0
H273 H 0.57456 0.96601 0.96071 0.0
H274 H 0.54202 0.93963 0.99312 0.0
H275 H 0.5687 0.94946 0.12958 0.0
H276 H 0.60152 0.9756 0.09778 0.0
H277 H 0.67239 0.09238 0.99444 0.0
H278 H 0.6538 0.05845 0.96354 0.0
H279 H 0.64568 0.03419 0.10298 0.0
H280 H 0.6634 0.06884 0.13482 0.0
H281 H 0.61312 0.01126 0.055 0.0
H282 H 0.68353 0.03726 0.02341 0.0
H283 H 0.71754 0.06185 0.99434 0.0
H284 H 0.69399 0.05534 0.85525 0.0
H285 H 0.65977 0.03089 0.8836 0.0
C286 C 0.60529 0.92853 0.9689 0.0
C287 C 0.59455 0.9214 0.92664 0.0
C288 C 0.61343 0.94867 0.98232 0.0
C289 C 0.61138 0.96235 0.95356 0.0
C290 C 0.60151 0.95568 0.91025 0.0
C291 C 0.59296 0.93525 0.89701 0.0
C292 C 0.61954 0.98347 0.97001 0.0
C293 C 0.63831 0.99844 0.95299 0.0
C294 C 0.6104 0.98811 0.00736 0.0
C295 C 0.59057 0.97266 0.02676 0.0
C296 C 0.57355 0.96242 0.99754 0.0
C297 C 0.55504 0.94753 0.01581 0.0
C298 C 0.55331 0.94286 0.06336 0.0
C299 C 0.57007 0.95309 0.09274 0.0
C300 C 0.58863 0.96796 0.07461 0.0
C301 C 0.66663 0.08 0.01891 0.0
C302 C 0.66965 0.08347 0.06726 0.0
C303 C 0.65603 0.06041 1.00095 0.0
C304 C 0.64882 0.04357 0.03056 0.0
C305 C 0.65123 0.04689 0.07918 0.0
C306 C 0.66142 0.06669 0.0974 0.0
C307 C 0.63928 0.02273 0.0102 0.0
C308 C 0.62035 0.00767 0.02694 0.0
C309 C 0.64844 0.01787 0.97295 0.0
C310 C 0.66906 0.03238 0.95571 0.0
C311 C 0.68559 0.04115 0.98667 0.0
C312 C 0.7049 0.05506 0.97032 0.0
C313 C 0.70792 0.0602 0.923 0.0
C314 C 0.69163 0.05137 0.8919 0.0
C315 C 0.67228 0.03747 0.90808 0.0
H316 H 0.72288 0.07098 0.91042 0.0
H317 H 0.53896 0.93137 0.07748 0.0
H318 H 0.69651 0.62538 0.25662 0.0
H319 H 0.67643 0.63845 0.29315 0.0
H320 H 0.62196 0.58164 0.26689 0.0
H321 H 0.64216 0.56885 0.22821 0.0
H322 H 0.61389 0.61226 0.26327 0.0
H323 H 0.64543 0.59009 0.37226 0.0
H324 H 0.67316 0.58699 0.4081 0.0
H325 H 0.70549 0.65076 0.43679 0.0
H326 H 0.67801 0.65428 0.40079 0.0
H327 H 0.56542 0.63893 0.44403 0.0
H328 H 0.57981 0.61936 0.40921 0.0
H329 H 0.63676 0.67441 0.38983 0.0
H330 H 0.62222 0.69394 0.42285 0.0
H331 H 0.63948 0.63914 0.42201 0.0
H332 H 0.60769 0.65994 0.30178 0.0
H333 H 0.57856 0.66108 0.26773 0.0
H334 H 0.54423 0.59615 0.26579 0.0
H335 H 0.57318 0.59465 0.30001 0.0
C336 C 0.68017 0.61601 0.25684 0.0
C337 C 0.67087 0.59623 0.23915 0.0
C338 C 0.6687 0.62336 0.27839 0.0
C339 C 0.64772 0.61083 0.28419 0.0
C340 C 0.63814 0.59157 0.26317 0.0
C341 C 0.64965 0.58433 0.24064 0.0
C342 C 0.63638 0.61743 0.31536 0.0
C343 C 0.6193 0.61779 0.29824 0.0
C344 C 0.64321 0.62451 0.36135 0.0
C345 C 0.65971 0.62247 0.38355 0.0
C346 C 0.6585 0.60348 0.38601 0.0
C347 C 0.67416 0.60164 0.40637 0.0
C348 C 0.6911 0.61868 0.42456 0.0
C349 C 0.69236 0.63758 0.42264 0.0
C350 C 0.67672 0.6395 0.40237 0.0
C351 C 0.58122 0.64669 0.43396 0.0
C352 C 0.59287 0.66789 0.43686 0.0
C353 C 0.58935 0.63556 0.41357 0.0
C354 C 0.60934 0.64546 0.39668 0.0
C355 C 0.62135 0.66645 0.40273 0.0
C356 C 0.6131 0.67758 0.42194 0.0
C357 C 0.61747 0.6345 0.36935 0.0
C358 C 0.63394 0.6333 0.38729 0.0
C359 C 0.6098 0.62628 0.32465 0.0
C360 C 0.5925 0.62718 0.30381 0.0
C361 C 0.59389 0.64591 0.29431 0.0
C362 C 0.57745 0.64663 0.27483 0.0
C363 C 0.55955 0.6287 0.26463 0.0
C364 C 0.55811 0.61002 0.27367 0.0
C365 C 0.57454 0.60923 0.29302 0.0
H366 H 0.5468 0.62929 0.2498 0.0
H367 H 0.70324 0.61723 0.44024 0.0
H368 H 0.91428 0.59699 0.66919 0.0
H369 H 0.94962 0.61344 0.64623 0.0
H370 H 0.96609 0.60448 0.78441 0.0
H371 H 0.9301 0.58702 0.80776 0.0
H372 H 0.98821 0.64853 0.72859 0.0
H373 H 0.97356 0.57854 0.72813 0.0
H374 H 0.95233 0.54239 0.70847 0.0
H375 H 0.95529 0.55739 0.56306 0.0
H376 H 0.9766 0.59367 0.58195 0.0
H377 H 0.09006 0.68495 0.67853 0.0
H378 H 0.05581 0.66593 0.70719 0.0
H379 H 0.03471 0.64249 0.56874 0.0
H380 H 0.06988 0.66049 0.5402 0.0
H381 H 0.0143 0.61392 0.62699 0.0
H382 H 0.02926 0.68258 0.62277 0.0
H383 H 0.04877 0.71931 0.63773 0.0
H384 H 0.04277 0.70842 0.78555 0.0
H385 H 0.02344 0.67161 0.77148 0.0
C386 C 0.92527 0.59832 0.69496 0.0
C387 C 0.91924 0.59048 0.74038 0.0
C388 C 0.94553 0.60779 0.68159 0.0
C389 C 0.96042 0.61002 0.7134 0.0
C390 C 0.95473 0.60277 0.75926 0.0
C391 C 0.93422 0.59287 0.77259 0.0
C392 C 0.98184 0.62028 0.69784 0.0
C393 C 0.99417 0.64093 0.7073 0.0
C394 C 0.98911 0.61054 0.66805 0.0
C395 C 0.97651 0.58879 0.65649 0.0
C396 C 0.96957 0.57413 0.69201 0.0
C397 C 0.95757 0.55362 0.68099 0.0
C398 C 0.95236 0.5476 0.63457 0.0
C399 C 0.9593 0.56208 0.59902 0.0
C400 C 0.9714 0.58261 0.60984 0.0
C401 C 0.0783 0.67566 0.65389 0.0
C402 C 0.08287 0.67425 0.60688 0.0
C403 C 0.0585 0.66493 0.67042 0.0
C404 C 0.04239 0.65312 0.64012 0.0
C405 C 0.0468 0.65158 0.59296 0.0
C406 C 0.06689 0.66197 0.57653 0.0
C407 C 0.02115 0.64237 0.65837 0.0
C408 C 0.00864 0.62164 0.6488 0.0
C409 C 0.01356 0.65218 0.68748 0.0
C410 C 0.02504 0.67433 0.69605 0.0
C411 C 0.0322 0.68801 0.65846 0.0
C412 C 0.04322 0.70885 0.66679 0.0
C413 C 0.04705 0.71619 0.71256 0.0
C414 C 0.03981 0.70271 0.75011 0.0
C415 C 0.0288 0.68186 0.74199 0.0
H416 H 0.05559 0.73232 0.71893 0.0
H417 H 0.94299 0.53171 0.62615 0.0
H418 H 0.35301 0.93256 0.13768 0.0
H419 H 0.37267 0.9677 0.10918 0.0
H420 H 0.33783 0.95045 0.98185 0.0
H421 H 0.31802 0.91597 0.01006 0.0
H422 H 0.38036 0.97414 0.96715 0.0
H423 H 0.32665 0.97371 0.0599 0.0
H424 H 0.30727 0.96851 0.13253 0.0
H425 H 0.36141 0.01186 0.20329 0.0
H426 H 0.38116 0.01711 0.13118 0.0
H427 H 0.40654 0.07089 0.86769 0.0
H428 H 0.39028 0.0356 0.89494 0.0
H429 H 0.41114 0.05672 0.03507 0.0
H430 H 0.42532 0.09113 0.009 0.0
H431 H 0.37622 0.03018 0.04392 0.0
H432 H 0.43078 0.03222 0.95514 0.0
H433 H 0.45187 0.03742 0.8855 0.0
H434 H 0.40002 0.99194 0.81154 0.0
H435 H 0.37858 0.98663 0.88059 0.0
C436 C 0.3495 0.93635 0.10381 0.0
C437 C 0.334 0.92141 0.07616 0.0
C438 C 0.36078 0.95636 0.08747 0.0
C439 C 0.3568 0.96161 0.04314 0.0
C440 C 0.34132 0.94671 0.01583 0.0
C441 C 0.32995 0.92696 0.03226 0.0
C442 C 0.36821 0.98265 0.02506 0.0
C443 C 0.3795 0.98647 0.98378 0.0
C444 C 0.36731 0.99872 0.04715 0.0
C445 C 0.35541 0.99563 0.09034 0.0
C446 C 0.33444 0.982 0.09106 0.0
C447 C 0.32339 0.97907 0.1321 0.0
C448 C 0.33311 0.9898 0.17254 0.0
C449 C 0.35391 0.00353 0.17198 0.0
C450 C 0.36503 0.0065 0.13103 0.0
C451 C 0.4077 0.06786 0.90418 0.0
C452 C 0.41725 0.08389 0.93613 0.0
C453 C 0.39852 0.04768 0.9198 0.0
C454 C 0.39949 0.04327 0.96732 0.0
C455 C 0.40983 0.05945 0.99844 0.0
C456 C 0.41819 0.07935 0.98326 0.0
C457 C 0.389 0.02212 0.98603 0.0
C458 C 0.37756 0.01812 0.02732 0.0
C459 C 0.39019 0.00602 0.96441 0.0
C460 C 0.40305 0.00918 0.92287 0.0
C461 C 0.42386 0.02343 0.92391 0.0
C462 C 0.43587 0.02638 0.88457 0.0
C463 C 0.42728 0.01506 0.84408 0.0
C464 C 0.40665 1.00072 0.8429 0.0
C465 C 0.39457 0.99772 0.88214 0.0
H466 H 0.43661 0.01737 0.81365 0.0
H467 H 0.32453 0.98752 0.20428 0.0
H468 H 0.1709 0.41358 0.83015 0.0
H469 H 0.1917 0.41184 0.89346 0.0
H470 H 0.20173 0.46895 0.947 0.0
H471 H 0.18102 0.47078 0.88401 0.0
H472 H 0.23148 0.4368 0.91608 0.0
H473 H 0.20511 0.46854 0.06669 0.0
H474 H 0.17473 0.46984 0.09085 0.0
H475 H 0.13702 0.41516 0.01466 0.0
H476 H 0.16713 0.41338 0.99057 0.0
H477 H 0.2987 0.46988 0.11482 0.0
H478 H 0.27591 0.46892 0.05294 0.0
H479 H 0.22919 0.4109 0.10262 0.0
H480 H 0.25208 0.41146 0.16364 0.0
H481 H 0.21644 0.44102 0.08297 0.0
H482 H 0.25 0.40842 0.01309 0.0
H483 H 0.27956 0.40555 0.98945 0.0
H484 H 0.30101 0.4588 0.90468 0.0
H485 H 0.27172 0.46215 0.92843 0.0
C486 C 0.17746 0.42572 0.85553 0.0
C487 C 0.1742 0.44228 0.85197 0.0
C488 C 0.18943 0.42476 0.89164 0.0
C489 C 0.19823 0.44019 0.92539 0.0
C490 C 0.19496 0.45672 0.92187 0.0
C491 C 0.18313 0.45776 0.88565 0.0
C492 C 0.21097 0.43915 0.96394 0.0
C493 C 0.22815 0.43774 0.95251 0.0
C494 C 0.20666 0.44019 0.01173 0.0
C495 C 0.18841 0.44095 0.02647 0.0
C496 C 0.19032 0.45675 0.05524 0.0
C497 C 0.17315 0.45758 0.0689 0.0
C498 C 0.15396 0.44263 0.05418 0.0
C499 C 0.1519 0.42678 0.02589 0.0
C500 C 0.16902 0.42587 0.01217 0.0
C501 C 0.28356 0.45693 0.11264 0.0
C502 C 0.27723 0.44073 0.14416 0.0
C503 C 0.27056 0.45639 0.07719 0.0
C504 C 0.25082 0.43983 0.07306 0.0
C505 C 0.24432 0.42384 0.10511 0.0
C506 C 0.25746 0.42416 0.13989 0.0
C507 C 0.23707 0.43907 0.03493 0.0
C508 C 0.21975 0.44016 0.04648 0.0
C509 C 0.24118 0.43763 0.9873 0.0
C510 C 0.2588 0.43567 0.97297 0.0
C511 C 0.26113 0.41964 0.9898 0.0
C512 C 0.27781 0.41789 0.97629 0.0
C513 C 0.29219 0.43202 0.94569 0.0
C514 C 0.28988 0.44789 0.92845 0.0
C515 C 0.27324 0.44971 0.9419 0.0
H516 H 0.30509 0.43064 0.93525 0.0
H517 H 0.14069 0.44331 0.06476 0.0
H518 H 0.81749 0.28611 0.48139 0.0
H519 H 0.7947 0.2628 0.42177 0.0
H520 H 0.82975 0.23267 0.41766 0.0
H521 H 0.85247 0.2558 0.47781 0.0
H522 H 0.81932 0.24031 0.32782 0.0
H523 H 0.78667 0.21052 0.47324 0.0
H524 H 0.77257 0.21019 0.55091 0.0
H525 H 0.7301 0.22466 0.48883 0.0
H526 H 0.74417 0.22539 0.41079 0.0
H527 H 0.74889 0.15547 0.19366 0.0
H528 H 0.77206 0.17689 0.25513 0.0
H529 H 0.73332 0.20189 0.28254 0.0
H530 H 0.70989 0.18013 0.22214 0.0
H531 H 0.74621 0.19633 0.36179 0.0
H532 H 0.77872 0.22751 0.21778 0.0
H533 H 0.79289 0.2293 0.13938 0.0
H534 H 0.83554 0.21405 0.19707 0.0
H535 H 0.82142 0.21189 0.27578 0.0
C536 C 0.82042 0.27458 0.46772 0.0
C537 C 0.83682 0.27283 0.48452 0.0
C538 C 0.80731 0.2612 0.43369 0.0
C539 C 0.81039 0.24585 0.41531 0.0
C540 C 0.82702 0.24436 0.43125 0.0
C541 C 0.83998 0.25757 0.46576 0.0
C542 C 0.79609 0.23125 0.37997 0.0
C543 C 0.80339 0.23047 0.33544 0.0
C544 C 0.77518 0.21874 0.38938 0.0
C545 C 0.76661 0.21821 0.43622 0.0
C546 C 0.77444 0.2138 0.47618 0.0
C547 C 0.76643 0.21351 0.52027 0.0
C548 C 0.75048 0.21746 0.52482 0.0
C549 C 0.74247 0.22164 0.48526 0.0
C550 C 0.75045 0.22198 0.44108 0.0
C551 C 0.74523 0.16543 0.213 0.0
C552 C 0.7275 0.16606 0.20278 0.0
C553 C 0.7586 0.17782 0.24802 0.0
C554 C 0.75473 0.19138 0.27326 0.0
C555 C 0.73678 0.19166 0.26375 0.0
C556 C 0.72336 0.17918 0.22902 0.0
C557 C 0.76936 0.20539 0.30923 0.0
C558 C 0.76214 0.20609 0.354 0.0
C559 C 0.79032 0.218 0.29984 0.0
C560 C 0.79887 0.21932 0.25259 0.0
C561 C 0.79102 0.22438 0.2137 0.0
C562 C 0.79905 0.22549 0.16921 0.0
C563 C 0.81507 0.22174 0.16323 0.0
C564 C 0.82311 0.21692 0.20175 0.0
C565 C 0.81511 0.21576 0.24631 0.0
H566 H 0.82127 0.22261 0.12876 0.0
H567 H 0.7443 0.21722 0.55898 0.0
H568 H 0.59332 0.84522 0.81752 0.0
H569 H 0.59303 0.82322 0.7547 0.0
H570 H 0.52781 0.79164 0.75342 0.0
H571 H 0.528 0.81378 0.81584 0.0
H572 H 0.54379 0.76539 0.75153 0.0
H573 H 0.55246 0.82406 0.66895 0.0
H574 H 0.56875 0.86048 0.65113 0.0
H575 H 0.62458 0.8619 0.62081 0.0
H576 H 0.60869 0.82551 0.63911 0.0
H577 H 0.52805 0.70975 0.54123 0.0
H578 H 0.528 0.73204 0.60267 0.0
H579 H 0.59269 0.76988 0.58902 0.0
H580 H 0.59274 0.74788 0.52681 0.0
H581 H 0.57699 0.79314 0.59908 0.0
H582 H 0.56988 0.7357 0.68195 0.0
H583 H 0.55508 0.69961 0.70187 0.0
H584 H 0.49845 0.69607 0.73442 0.0
H585 H 0.51283 0.73211 0.71407 0.0
C586 C 0.5789 0.83361 0.80388 0.0
C587 C 0.56068 0.83134 0.82177 0.0
C588 C 0.57876 0.82106 0.7678 0.0
C589 C 0.5604 0.80577 0.74897 0.0
C590 C 0.54218 0.80329 0.76723 0.0
C591 C 0.54231 0.81603 0.80287 0.0
C592 C 0.56021 0.79239 0.71038 0.0
C593 C 0.5508 0.77143 0.71795 0.0
C594 C 0.56987 0.80024 0.66693 0.0
C595 C 0.57944 0.82211 0.65588 0.0
C596 C 0.56826 0.83217 0.65889 0.0
C597 C 0.57741 0.8528 0.64862 0.0
C598 C 0.5977 0.86351 0.63497 0.0
C599 C 0.60887 0.85359 0.63145 0.0
C600 C 0.5998 0.83296 0.64174 0.0
C601 C 0.54228 0.72282 0.55124 0.0
C602 C 0.56041 0.72692 0.52904 0.0
C603 C 0.54226 0.73555 0.5867 0.0
C604 C 0.56039 0.75261 0.60136 0.0
C605 C 0.57847 0.75687 0.57869 0.0
C606 C 0.57848 0.7442 0.54308 0.0
C607 C 0.56052 0.76602 0.64005 0.0
C608 C 0.56995 0.78702 0.63257 0.0
C609 C 0.5511 0.75823 0.68384 0.0
C610 C 0.54237 0.73655 0.69599 0.0
C611 C 0.55422 0.72719 0.69298 0.0
C612 C 0.54592 0.70675 0.70442 0.0
C613 C 0.52582 0.69554 0.71927 0.0
C614 C 0.514 0.70477 0.72283 0.0
C615 C 0.52222 0.7252 0.71138 0.0
H616 H 0.51943 0.67972 0.72813 0.0
H617 H 0.60475 0.87948 0.62702 0.0
H618 H 0.70449 0.54508 0.09899 0.0
H619 H 0.7263 0.54517 0.0363 0.0
H620 H 0.77866 0.57894 0.12443 0.0
H621 H 0.75688 0.58053 0.18513 0.0
H622 H 0.79071 0.59205 0.04736 0.0
H623 H 0.75283 0.52284 0.09559 0.0
H624 H 0.72235 0.49019 0.11354 0.0
H625 H 0.70186 0.4857 0.97202 0.0
H626 H 0.73211 0.51842 0.95336 0.0
H627 H 0.8259 0.53098 0.88644 0.0
H628 H 0.8052 0.53242 0.94978 0.0
H629 H 0.81211 0.58794 0.89319 0.0
H630 H 0.83358 0.58696 0.83083 0.0
H631 H 0.77133 0.52971 0.95631 0.0
H632 H 0.80783 0.61707 0.97615 0.0
H633 H 0.8414 0.64774 0.96881 0.0
H634 H 0.87019 0.61243 0.9923 0.0
H635 H 0.83682 0.58162 1.0004 0.0
C636 C 0.72067 0.5525 0.10483 0.0
C637 C 0.72897 0.56268 0.14705 0.0
C638 C 0.73322 0.55239 0.06906 0.0
C639 C 0.75434 0.56154 0.07541 0.0
C640 C 0.76255 0.57172 0.11794 0.0
C641 C 0.75006 0.57255 0.15295 0.0
C642 C 0.76786 0.56075 0.0379 0.0
C643 C 0.78637 0.57833 0.02768 0.0
C644 C 0.76277 0.54288 0.01218 0.0
C645 C 0.74464 0.52316 0.02322 0.0
C646 C 0.74177 0.51493 0.06838 0.0
C647 C 0.72454 0.49641 0.07866 0.0
C648 C 0.71015 0.48591 0.04397 0.0
C649 C 0.713 0.49387 0.99887 0.0
C650 C 0.73019 0.51238 0.9884 0.0
C651 C 0.82311 0.54358 0.88757 0.0
C652 C 0.83153 0.55891 0.85354 0.0
C653 C 0.81115 0.54435 0.92387 0.0
C654 C 0.80709 0.5604 0.92708 0.0
C655 C 0.81528 0.5756 0.89259 0.0
C656 C 0.8275 0.57498 0.85661 0.0
C657 C 0.79408 0.56096 0.96597 0.0
C658 C 0.77564 0.54338 0.9762 0.0
C659 C 0.79968 0.57854 0.99315 0.0
C660 C 0.81981 0.59701 0.9883 0.0
C661 C 0.82132 0.61587 0.97984 0.0
C662 C 0.84032 0.63327 0.97555 0.0
C663 C 0.85791 0.63202 0.97991 0.0
C664 C 0.85655 0.61337 0.98873 0.0
C665 C 0.8376 0.59593 0.9931 0.0
H666 H 0.8726 0.64551 0.97657 0.0
H667 H 0.69682 0.47158 0.05201 0.0
H668 H 0.18759 0.71546 0.4766 0.0
H669 H 0.21021 0.73865 0.41666 0.0
H670 H 0.17631 0.76997 0.41603 0.0
H671 H 0.1539 0.74712 0.4771 0.0
H672 H 0.18625 0.75955 0.3228 0.0
H673 H 0.21736 0.79282 0.46732 0.0
H674 H 0.23115 0.795 0.54638 0.0
H675 H 0.27522 0.78122 0.49119 0.0
H676 H 0.26149 0.77864 0.41184 0.0
H677 H 0.25478 0.8449 0.18879 0.0
H678 H 0.23198 0.82305 0.25001 0.0
H679 H 0.27242 0.80017 0.27828 0.0
H680 H 0.29544 0.82221 0.21738 0.0
H681 H 0.25873 0.80642 0.35836 0.0
H682 H 0.22843 0.77231 0.21586 0.0
H683 H 0.21475 0.76833 0.13607 0.0
H684 H 0.16944 0.7815 0.18571 0.0
H685 H 0.18303 0.78582 0.26575 0.0
C686 C 0.18486 0.72722 0.46361 0.0
C687 C 0.1689 0.72941 0.48169 0.0
C688 C 0.19786 0.74051 0.42941 0.0
C689 C 0.19502 0.7561 0.41186 0.0
C690 C 0.17881 0.75806 0.429 0.0
C691 C 0.16603 0.74501 0.46398 0.0
C692 C 0.20917 0.77046 0.37614 0.0
C693 C 0.20203 0.77003 0.33072 0.0
C694 C 0.22991 0.78372 0.38604 0.0
C695 C 0.23824 0.78531 0.43369 0.0
C696 C 0.22986 0.79005 0.47209 0.0
C697 C 0.23769 0.7914 0.51695 0.0
C698 C 0.25401 0.78819 0.52382 0.0
C699 C 0.26256 0.78367 0.48582 0.0
C700 C 0.25477 0.78227 0.44089 0.0
C701 C 0.25889 0.83529 0.20813 0.0
C702 C 0.27696 0.83531 0.19795 0.0
C703 C 0.24575 0.82268 0.24306 0.0
C704 C 0.25024 0.80966 0.2686 0.0
C705 C 0.26851 0.80999 0.25918 0.0
C706 C 0.28167 0.8226 0.2242 0.0
C707 C 0.23585 0.79562 0.30473 0.0
C708 C 0.24295 0.79603 0.3503 0.0
C709 C 0.21511 0.78216 0.29479 0.0
C710 C 0.20689 0.77961 0.24672 0.0
C711 C 0.21566 0.77453 0.2097 0.0
C712 C 0.2079 0.77218 0.16444 0.0
C713 C 0.19127 0.77472 0.15581 0.0
C714 C 0.18234 0.77957 0.19244 0.0
C715 C 0.19005 0.78196 0.23777 0.0
H716 H 0.18528 0.77288 0.12075 0.0
H717 H 0.26005 0.78924 0.55856 0.0
H718 H 0.47478 0.19157 0.8184 0.0
H719 H 0.4743 0.21395 0.75776 0.0
H720 H 0.41029 0.17392 0.73843 0.0
H721 H 0.41054 0.15163 0.80016 0.0
H722 H 0.43491 0.18842 0.65194 0.0
H723 H 0.42114 0.21291 0.79349 0.0
H724 H 0.42706 0.2247 0.87518 0.0
H725 H 0.48519 0.27456 0.83763 0.0
H726 H 0.47975 0.26285 0.75578 0.0
H727 H 0.41532 0.25495 0.51599 0.0
H728 H 0.41421 0.23162 0.57606 0.0
H729 H 0.4752 0.27497 0.61727 0.0
H730 H 0.47639 0.29845 0.55718 0.0
H731 H 0.4513 0.25819 0.69316 0.0
H732 H 0.46579 0.23408 0.55268 0.0
H733 H 0.4609 0.22229 0.47103 0.0
H734 H 0.40269 0.17193 0.50597 0.0
H735 H 0.4071 0.1836 0.58777 0.0
C736 C 0.4606 0.18743 0.80112 0.0
C737 C 0.44269 0.16979 0.81416 0.0
C738 C 0.46035 0.20029 0.76652 0.0
C739 C 0.44226 0.19566 0.7436 0.0
C740 C 0.42443 0.17779 0.75562 0.0
C741 C 0.42458 0.16509 0.79096 0.0
C742 C 0.44203 0.20978 0.70785 0.0
C743 C 0.43817 0.20357 0.66101 0.0
C744 C 0.44682 0.22973 0.71946 0.0
C745 C 0.45014 0.23686 0.7686 0.0
C746 C 0.43527 0.22627 0.80273 0.0
C747 C 0.43852 0.23296 0.84904 0.0
C748 C 0.45652 0.25033 0.86162 0.0
C749 C 0.47127 0.26108 0.82785 0.0
C750 C 0.46811 0.25443 0.78148 0.0
C751 C 0.42851 0.25957 0.53786 0.0
C752 C 0.44598 0.2786 0.5316 0.0
C753 C 0.42787 0.24615 0.57214 0.0
C754 C 0.44469 0.25138 0.60106 0.0
C755 C 0.46203 0.27052 0.59544 0.0
C756 C 0.46271 0.28393 0.56094 0.0
C757 C 0.44417 0.23689 0.63698 0.0
C758 C 0.44795 0.24303 0.68395 0.0
C759 C 0.43941 0.2169 0.62541 0.0
C760 C 0.43668 0.20984 0.57625 0.0
C761 C 0.45186 0.22059 0.54288 0.0
C762 C 0.44919 0.21391 0.49658 0.0
C763 C 0.43147 0.19641 0.48329 0.0
C764 C 0.4164 0.18551 0.5163 0.0
C765 C 0.41897 0.19215 0.56265 0.0
H766 H 0.42944 0.19125 0.44743 0.0
H767 H 0.459 0.2555 0.8975 0.0
H768 H 0.19742 0.44372 0.68062 0.0
H769 H 0.22327 0.44689 0.625 0.0
H770 H 0.21478 0.49007 0.54512 0.0
H771 H 0.18858 0.48638 0.59987 0.0
H772 H 0.20822 0.45957 0.49253 0.0
H773 H 0.261 0.50279 0.59666 0.0
H774 H 0.27934 0.51386 0.67149 0.0
H775 H 0.28649 0.4615 0.67325 0.0
H776 H 0.26794 0.44994 0.59873 0.0
H777 H 0.27947 0.46364 0.31938 0.0
H778 H 0.26215 0.47307 0.37809 0.0
H779 H 0.26035 0.42803 0.472 0.0
H780 H 0.27734 0.41847 0.41421 0.0
H781 H 0.27519 0.46492 0.51469 0.0
H782 H 0.21858 0.41977 0.41754 0.0
H783 H 0.19954 0.40787 0.34372 0.0
H784 H 0.19939 0.46386 0.33021 0.0
H785 H 0.2187 0.4762 0.4037 0.0
C786 C 0.20183 0.45458 0.65243 0.0
C787 C 0.19119 0.46488 0.64443 0.0
C788 C 0.21652 0.45635 0.62048 0.0
C789 C 0.22089 0.46864 0.58061 0.0
C790 C 0.21159 0.48042 0.57538 0.0
C791 C 0.19678 0.47846 0.60688 0.0
C792 C 0.23255 0.46683 0.54119 0.0
C793 C 0.22311 0.46126 0.4972 0.0
C794 C 0.25172 0.46851 0.5474 0.0
C795 C 0.26295 0.47543 0.5922 0.0
C796 C 0.26635 0.49355 0.61316 0.0
C797 C 0.27681 0.49993 0.6555 0.0
C798 C 0.28404 0.48837 0.67715 0.0
C799 C 0.28087 0.47043 0.65644 0.0
C800 C 0.27041 0.46398 0.61411 0.0
C801 C 0.27507 0.45554 0.35222 0.0
C802 C 0.27995 0.44041 0.36212 0.0
C803 C 0.26529 0.46101 0.38581 0.0
C804 C 0.26022 0.4514 0.4296 0.0
C805 C 0.2644 0.43584 0.43874 0.0
C806 C 0.27404 0.43034 0.4054 0.0
C807 C 0.25071 0.45746 0.46659 0.0
C808 C 0.26051 0.46372 0.51003 0.0
C809 C 0.23185 0.45638 0.45999 0.0
C810 C 0.22032 0.44901 0.41575 0.0
C811 C 0.21467 0.42962 0.39858 0.0
C812 C 0.20379 0.42278 0.35686 0.0
C813 C 0.19832 0.43513 0.3322 0.0
C814 C 0.20368 0.45433 0.34929 0.0
C815 C 0.21459 0.46125 0.39097 0.0
H816 H 0.18989 0.4298 0.29992 0.0
H817 H 0.29214 0.49334 0.70994 0.0
H818 H 0.81047 0.27841 0.6675 0.0
H819 H 0.7833 0.25918 0.72436 0.0
H820 H 0.8192 0.2358 0.78576 0.0
H821 H 0.84573 0.25428 0.72895 0.0
H822 H 0.78132 0.20802 0.78788 0.0
H823 H 0.82011 0.28046 0.82509 0.0
H824 H 0.83205 0.31642 0.80829 0.0
H825 H 0.77057 0.30369 0.79958 0.0
H826 H 0.75828 0.26761 0.81582 0.0
H827 H 0.75907 0.18484 0.0161 0.0
H828 H 0.77921 0.20876 0.9547 0.0
H829 H 0.72801 0.21515 0.91624 0.0
H830 H 0.70798 0.19147 0.97827 0.0
H831 H 0.7672 0.25047 0.89573 0.0
H832 H 0.729 0.17834 0.86849 0.0
H833 H 0.71795 0.14281 0.88786 0.0
H834 H 0.77934 0.15533 0.87843 0.0
H835 H 0.79079 0.19102 0.85963 0.0
C836 C 0.81216 0.2686 0.6922 0.0
C837 C 0.83025 0.26798 0.69429 0.0
C838 C 0.79678 0.25783 0.72497 0.0
C839 C 0.79944 0.24644 0.76004 0.0
C840 C 0.8168 0.24456 0.75933 0.0
C841 C 0.83201 0.25518 0.72684 0.0
C842 C 0.78534 0.23768 0.80009 0.0
C843 C 0.77823 0.21733 0.81132 0.0
C844 C 0.78089 0.24967 0.83033 0.0
C845 C 0.78829 0.27135 0.82113 0.0
C846 C 0.80915 0.28534 0.81935 0.0
C847 C 0.81598 0.30573 0.80995 0.0
C848 C 0.80208 0.31233 0.80273 0.0
C849 C 0.78132 0.29856 0.80507 0.0
C850 C 0.77441 0.27814 0.81438 0.0
C851 C 0.75259 0.19239 0.99656 0.0
C852 C 0.73213 0.18656 1.00194 0.0
C853 C 0.76399 0.20586 0.96116 0.0
C854 C 0.75489 0.21329 0.93036 0.0
C855 C 0.73526 0.20954 0.93963 0.0
C856 C 0.72389 0.19615 0.97527 0.0
C857 C 0.76418 0.22121 0.88418 0.0
C858 C 0.77009 0.24118 0.87181 0.0
C859 C 0.76768 0.20894 0.85282 0.0
C860 C 0.76076 0.18737 0.86296 0.0
C861 C 0.74015 0.17353 0.87076 0.0
C862 C 0.73381 0.15337 0.88163 0.0
C863 C 0.74794 0.14683 0.88447 0.0
C864 C 0.76842 0.16042 0.87625 0.0
C865 C 0.77483 0.18061 0.86542 0.0
H866 H 0.743 0.13122 0.89295 0.0
H867 H 0.80739 0.32812 0.79543 0.0
H868 H 0.55421 0.8079 0.98901 0.0
H869 H 0.54785 0.78071 0.04497 0.0
H870 H 0.53744 0.81343 0.15409 0.0
H871 H 0.5435 0.84015 0.09917 0.0
H872 H 0.56918 0.80521 0.17198 0.0
H873 H 0.49957 0.77212 0.12171 0.0
H874 H 0.47193 0.75696 0.06395 0.0
H875 H 0.48938 0.71326 0.02697 0.0
H876 H 0.51734 0.72836 0.08407 0.0
H877 H 0.55213 0.73915 0.36193 0.0
H878 H 0.54522 0.75956 0.30627 0.0
H879 H 0.54527 0.72235 0.19278 0.0
H880 H 0.55175 0.70198 0.24748 0.0
H881 H 0.51711 0.73243 0.17775 0.0
H882 H 0.58761 0.76606 0.21951 0.0
H883 H 0.61684 0.78114 0.27309 0.0
H884 H 0.59968 0.82382 0.32089 0.0
H885 H 0.57016 0.80878 0.26798 0.0
C886 C 0.55001 0.80892 0.02462 0.0
C887 C 0.54971 0.82624 0.04003 0.0
C888 C 0.54643 0.79348 0.0565 0.0
C889 C 0.54243 0.79528 0.10372 0.0
C890 C 0.5407 0.81188 0.11798 0.0
C891 C 0.54421 0.82713 0.0865 0.0
C892 C 0.54227 0.78134 0.13978 0.0
C893 C 0.55762 0.78934 0.17365 0.0
C894 C 0.52748 0.76061 0.14112 0.0
C895 C 0.5107 0.75152 0.10679 0.0
C896 C 0.49765 0.75941 0.10092 0.0
C897 C 0.48189 0.7508 0.06838 0.0
C898 C 0.47894 0.7342 0.0417 0.0
C899 C 0.49171 0.72614 0.04761 0.0
C900 C 0.50751 0.73471 0.08008 0.0
C901 C 0.55033 0.73519 0.32522 0.0
C902 C 0.55289 0.71924 0.30901 0.0
C903 C 0.54644 0.74685 0.29346 0.0
C904 C 0.54501 0.74261 0.24527 0.0
C905 C 0.54634 0.72594 0.22967 0.0
C906 C 0.55027 0.71443 0.26109 0.0
C907 C 0.54394 0.75637 0.21028 0.0
C908 C 0.52851 0.74835 0.1764 0.0
C909 C 0.55885 0.77709 0.20838 0.0
C910 C 0.57654 0.78613 0.24027 0.0
C911 C 0.58997 0.77854 0.24175 0.0
C912 C 0.6066 0.7871 0.27194 0.0
C913 C 0.61007 0.80338 0.3005 0.0
C914 C 0.59694 0.81117 0.29883 0.0
C915 C 0.58026 0.80264 0.26875 0.0
H916 H 0.62297 0.80999 0.32383 0.0
H917 H 0.46672 0.72755 0.01654 0.0
H918 H 0.70991 0.56325 0.43022 0.0
H919 H 0.72894 0.55529 0.48523 0.0
H920 H 0.75803 0.54253 0.37175 0.0
H921 H 0.73862 0.55054 0.31507 0.0
H922 H 0.74562 0.51445 0.45097 0.0
H923 H 0.7841 0.5857 0.42038 0.0
H924 H 0.78921 0.62004 0.41038 0.0
H925 H 0.77036 0.6195 0.55191 0.0
H926 H 0.76484 0.58501 0.56255 0.0
H927 H 0.8312 0.5293 0.58112 0.0
H928 H 0.80493 0.52608 0.52782 0.0
H929 H 0.78109 0.54819 0.63499 0.0
H930 H 0.80787 0.55176 0.68872 0.0
H931 H 0.79022 0.57047 0.5577 0.0
H932 H 0.75303 0.4997 0.58976 0.0
H933 H 0.74774 0.4653 0.59989 0.0
H934 H 0.76416 0.46467 0.45674 0.0
H935 H 0.76984 0.49919 0.44588 0.0
C936 C 0.72033 0.5588 0.41643 0.0
C937 C 0.72303 0.55795 0.36796 0.0
C938 C 0.73114 0.55415 0.4482 0.0
C939 C 0.74509 0.54865 0.4326 0.0
C940 C 0.74734 0.54686 0.38436 0.0
C941 C 0.73634 0.55149 0.3521 0.0
C942 C 0.75786 0.54594 0.46754 0.0
C943 C 0.75567 0.52673 0.47387 0.0
C944 C 0.77041 0.56186 0.49826 0.0
C945 C 0.7739 0.5827 0.49213 0.0
C946 C 0.78089 0.59284 0.44926 0.0
C947 C 0.78389 0.61234 0.4435 0.0
C948 C 0.78007 0.62193 0.48045 0.0
C949 C 0.7733 0.61205 0.5233 0.0
C950 C 0.77025 0.59253 0.52924 0.0
C951 C 0.81999 0.53292 0.59382 0.0
C952 C 0.82163 0.54095 0.63887 0.0
C953 C 0.80489 0.53095 0.56334 0.0
C954 C 0.79101 0.53688 0.57731 0.0
C955 C 0.79167 0.54351 0.62353 0.0
C956 C 0.80683 0.54541 0.65431 0.0
C957 C 0.77797 0.53888 0.54169 0.0
C958 C 0.78016 0.55808 0.53506 0.0
C959 C 0.7655 0.52294 0.51079 0.0
C960 C 0.76201 0.50212 0.51712 0.0
C961 C 0.75567 0.4923 0.56052 0.0
C962 C 0.75257 0.47276 0.56638 0.0
C963 C 0.75565 0.46282 0.52901 0.0
C964 C 0.76179 0.47239 0.48566 0.0
C965 C 0.76492 0.49193 0.47962 0.0
H966 H 0.75324 0.44769 0.53362 0.0
H967 H 0.78239 0.63703 0.47592 0.0
H968 H 0.18315 0.75633 0.68124 0.0
H969 H 0.20947 0.77471 0.73954 0.0
H970 H 0.21485 0.72166 0.76246 0.0
H971 H 0.18823 0.70321 0.70418 0.0
H972 H 0.20705 0.73438 0.84197 0.0
H973 H 0.25551 0.76542 0.72184 0.0
H974 H 0.26921 0.78249 0.64658 0.0
H975 H 0.26478 0.83367 0.69288 0.0
H976 H 0.25076 0.8168 0.76818 0.0
H977 H 0.28513 0.80671 0.01083 0.0
H978 H 0.26776 0.78019 0.95124 0.0
H979 H 0.23533 0.80979 0.90448 0.0
H980 H 0.25222 0.83588 0.96375 0.0
H981 H 0.26364 0.80528 0.83689 0.0
H982 H 0.20827 0.77013 0.94827 0.0
H983 H 0.19405 0.75294 0.02318 0.0
H984 H 0.21237 0.70935 0.99204 0.0
H985 H 0.22703 0.72654 0.91723 0.0
C986 C 0.19071 0.74899 0.69708 0.0
C987 C 0.18412 0.72861 0.68781 0.0
C988 C 0.20567 0.75942 0.73055 0.0
C989 C 0.2142 0.74957 0.7553 0.0
C990 C 0.20854 0.72955 0.74367 0.0
C991 C 0.19356 0.71913 0.71007 0.0
C992 C 0.2267 0.75936 0.79727 0.0
C993 C 0.21982 0.74968 0.8407 0.0
C994 C 0.24325 0.77936 0.79573 0.0
C995 C 0.25201 0.78978 0.75071 0.0
C996 C 0.25736 0.78028 0.71592 0.0
C997 C 0.26519 0.78992 0.67323 0.0
C998 C 0.26785 0.80914 0.66493 0.0
C999 C 0.26273 0.81879 0.69937 0.0
C1000 C 0.25488 0.8092 0.74213 0.0
C1001 C 0.27362 0.80698 0.98916 0.0
C1002 C 0.27008 0.82336 0.99149 0.0
C1003 C 0.26391 0.792 0.95492 0.0
C1004 C 0.25062 0.79338 0.92314 0.0
C1005 C 0.24572 0.80867 0.92845 0.0
C1006 C 0.25527 0.82346 0.96249 0.0
C1007 C 0.2434 0.78055 0.88104 0.0
C1008 C 0.25132 0.78973 0.83776 0.0
C1009 C 0.22789 0.76014 0.88271 0.0
C1010 C 0.21903 0.74981 0.92754 0.0
C1011 C 0.20949 0.75704 0.95766 0.0
C1012 C 0.2013 0.74726 1.00003 0.0
C1013 C 0.20238 0.73011 0.01245 0.0
C1014 C 0.21159 0.72267 0.98244 0.0
C1015 C 0.21985 0.73243 0.94006 0.0
H1016 H 0.19602 0.72256 0.04526 0.0
H1017 H 0.27388 0.81657 0.63183 0.0
H1018 H 0.47238 0.20011 0.99253 0.0
H1019 H 0.48002 0.22822 0.04613 0.0
H1020 H 0.41971 0.19439 0.10323 0.0
H1021 H 0.41195 0.16685 0.04942 0.0
H1022 H 0.43106 0.23254 0.10437 0.0
H1023 H 0.46108 0.19156 0.14866 0.0
H1024 H 0.48347 0.17731 0.13576 0.0
H1025 H 0.53486 0.23724 0.12621 0.0
H1026 H 0.51269 0.25184 0.13848 0.0
H1027 H 0.43038 0.25376 0.33651 0.0
H1028 H 0.43405 0.23439 0.27277 0.0
H1029 H 0.48982 0.28704 0.23102 0.0
H1030 H 0.48607 0.30646 0.29471 0.0
H1031 H 0.48617 0.24552 0.21588 0.0
H1032 H 0.45406 0.28548 0.18245 0.0
H1033 H 0.43 0.29721 0.20071 0.0
H1034 H 0.38056 0.23609 0.19357 0.0
H1035 H 0.4044 0.22396 0.17614 0.0
C1036 C 0.46057 0.19909 0.01533 0.0
C1037 C 0.44167 0.18124 0.01739 0.0
C1038 C 0.46501 0.21502 0.04628 0.0
C1039 C 0.45061 0.21316 0.07956 0.0
C1040 C 0.43113 0.19615 0.0782 0.0
C1041 C 0.42671 0.18037 0.04744 0.0
C1042 C 0.45593 0.22753 0.11906 0.0
C1043 C 0.44319 0.23544 0.1285 0.0
C1044 C 0.47188 0.23152 0.15053 0.0
C1045 C 0.48523 0.22277 0.14392 0.0
C1046 C 0.47715 0.20168 0.14357 0.0
C1047 C 0.48979 0.19355 0.13638 0.0
C1048 C 0.51057 0.20636 0.13001 0.0
C1049 C 0.51875 0.22734 0.13103 0.0
C1050 C 0.50617 0.23555 0.13811 0.0
C1051 C 0.44393 0.26083 0.31524 0.0
C1052 C 0.45808 0.28142 0.32054 0.0
C1053 C 0.44597 0.24984 0.27874 0.0
C1054 C 0.4621 0.25941 0.24708 0.0
C1055 C 0.47736 0.27941 0.25531 0.0
C1056 C 0.47525 0.29044 0.2917 0.0
C1057 C 0.46088 0.24982 0.20144 0.0
C1058 C 0.47438 0.24295 0.19102 0.0
C1059 C 0.44543 0.24647 0.16929 0.0
C1060 C 0.43102 0.25381 0.17833 0.0
C1061 C 0.43807 0.27454 0.18506 0.0
C1062 C 0.42448 0.28126 0.19525 0.0
C1063 C 0.40377 0.2674 0.19837 0.0
C1064 C 0.3966 0.2468 0.19116 0.0
C1065 C 0.41015 0.24 0.18109 0.0
H1066 H 0.39326 0.27263 0.2063 0.0
H1067 H 0.52033 0.20004 0.12439 0.0
H1068 H 0.39183 0.47145 0.28993 0.0
H1069 H 0.42283 0.50346 0.30517 0.0
H1070 H 0.38739 0.53257 0.32798 0.0
H1071 H 0.35654 0.50086 0.3086 0.0
H1072 H 0.41912 0.55814 0.28969 0.0
H1073 H 0.40853 0.51507 0.4207 0.0
H1074 H 0.40248 0.48404 0.46139 0.0
H1075 H 0.45854 0.4917 0.40828 0.0
H1076 H 0.46481 0.52265 0.36681 0.0
H1077 H 0.50008 0.64219 0.40895 0.0
H1078 H 0.46801 0.61073 0.396 0.0
H1079 H 0.50046 0.5832 0.33683 0.0
H1080 H 0.53248 0.61443 0.34989 0.0
H1081 H 0.4697 0.55769 0.39796 0.0
H1082 H 0.47874 0.60174 0.26641 0.0
H1083 H 0.48395 0.63348 0.23111 0.0
H1084 H 0.42907 0.6246 0.29449 0.0
H1085 H 0.42369 0.59293 0.3307 0.0
C1086 C 0.39076 0.4848 0.29761 0.0
C1087 C 0.37188 0.48377 0.29819 0.0
C1088 C 0.40845 0.50305 0.30694 0.0
C1089 C 0.40755 0.52044 0.31943 0.0
C1090 C 0.38862 0.51946 0.31877 0.0
C1091 C 0.37098 0.50135 0.30772 0.0
C1092 C 0.42625 0.5395 0.33344 0.0
C1093 C 0.42996 0.55797 0.31399 0.0
C1094 C 0.44066 0.53954 0.36495 0.0
C1095 C 0.43706 0.52109 0.39036 0.0
C1096 C 0.41952 0.51008 0.41754 0.0
C1097 C 0.41605 0.49251 0.44074 0.0
C1098 C 0.43009 0.48588 0.43734 0.0
C1099 C 0.44767 0.49685 0.41085 0.0
C1100 C 0.4512 0.51442 0.38754 0.0
C1101 C 0.5004 0.62936 0.39368 0.0
C1102 C 0.51884 0.63089 0.38003 0.0
C1103 C 0.48206 0.61144 0.38605 0.0
C1104 C 0.48184 0.59471 0.36491 0.0
C1105 C 0.50026 0.59594 0.35299 0.0
C1106 C 0.51856 0.61386 0.36026 0.0
C1107 C 0.46245 0.57603 0.35397 0.0
C1108 C 0.45868 0.55771 0.37401 0.0
C1109 C 0.4478 0.5762 0.32394 0.0
C1110 C 0.45091 0.59508 0.3016 0.0
C1111 C 0.46785 0.60663 0.27306 0.0
C1112 C 0.47083 0.6246 0.25286 0.0
C1113 C 0.45688 0.63108 0.26065 0.0
C1114 C 0.43988 0.61958 0.28854 0.0
C1115 C 0.43685 0.60161 0.30887 0.0
H1116 H 0.45921 0.645 0.245 0.0
H1117 H 0.42737 0.47226 0.45529 0.0
H1118 H 0.84906 0.49325 0.71204 0.0
H1119 H 0.849 0.46145 0.70126 0.0
H1120 H 0.91439 0.49428 0.69708 0.0
H1121 H 0.91418 0.52616 0.70402 0.0
H1122 H 0.90362 0.46881 0.63501 0.0
H1123 H 0.88258 0.46198 0.79446 0.0
H1124 H 0.86206 0.46154 0.86147 0.0
H1125 H 0.80886 0.41278 0.79875 0.0
H1126 H 0.82903 0.41308 0.73108 0.0
H1127 H 0.91323 0.38105 0.68004 0.0
H1128 H 0.91232 0.41241 0.69132 0.0
H1129 H 0.85268 0.38448 0.63037 0.0
H1130 H 0.85371 0.35315 0.61773 0.0
H1131 H 0.86006 0.40635 0.72512 0.0
H1132 H 0.88424 0.41466 0.56514 0.0
H1133 H 0.9073 0.4151 0.5042 0.0
H1134 H 0.95821 0.46184 0.57825 0.0
H1135 H 0.93545 0.46148 0.63997 0.0
C1136 C 0.8634 0.49357 0.70954 0.0
C1137 C 0.88166 0.51208 0.70923 0.0
C1138 C 0.86339 0.47536 0.70359 0.0
C1139 C 0.88171 0.47521 0.69916 0.0
C1140 C 0.90001 0.49381 0.70025 0.0
C1141 C 0.89995 0.51204 0.70458 0.0
C1142 C 0.88183 0.4559 0.69099 0.0
C1143 C 0.89427 0.45532 0.65541 0.0
C1144 C 0.86945 0.43797 0.71676 0.0
C1145 C 0.85729 0.43769 0.7575 0.0
C1146 C 0.86648 0.45125 0.79482 0.0
C1147 C 0.85492 0.45101 0.83294 0.0
C1148 C 0.83416 0.43718 0.83431 0.0
C1149 C 0.82494 0.4235 0.79762 0.0
C1150 C 0.83643 0.42369 0.7594 0.0
C1151 C 0.89998 0.38163 0.66874 0.0
C1152 C 0.88357 0.36465 0.64789 0.0
C1153 C 0.89948 0.39953 0.67525 0.0
C1154 C 0.88241 0.40069 0.6618 0.0
C1155 C 0.86597 0.38381 0.64104 0.0
C1156 C 0.86664 0.366 0.63359 0.0
C1157 C 0.88181 0.41959 0.66971 0.0
C1158 C 0.86933 0.42 0.70511 0.0
C1159 C 0.89452 0.43748 0.64476 0.0
C1160 C 0.90816 0.43791 0.60735 0.0
C1161 C 0.90037 0.42492 0.5686 0.0
C1162 C 0.91338 0.42518 0.53388 0.0
C1163 C 0.93421 0.43845 0.53741 0.0
C1164 C 0.94207 0.45155 0.57558 0.0
C1165 C 0.92912 0.45134 0.61041 0.0
H1166 H 0.94426 0.43862 0.51051 0.0
H1167 H 0.82523 0.43702 0.86385 0.0
H1168 H 0.50759 0.87132 0.90998 0.0
H1169 H 0.47509 0.87033 0.91955 0.0
H1170 H 0.49139 0.89226 0.06065 0.0
H1171 H 0.52385 0.89359 0.05133 0.0
H1172 H 0.45109 0.85693 0.04866 0.0
H1173 H 0.49457 0.92409 0.98724 0.0
H1174 H 0.5184 0.94831 0.92975 0.0
H1175 H 0.47375 0.92049 0.82167 0.0
H1176 H 0.44975 0.89586 0.87843 0.0
H1177 H 0.37234 0.87799 0.10136 0.0
H1178 H 0.40473 0.87894 0.09201 0.0
H1179 H 0.39725 0.87629 0.94222 0.0
H1180 H 0.36558 0.87652 0.95146 0.0
H1181 H 0.43357 0.90154 0.95836 0.0
H1182 H 0.39008 0.83426 0.01497 0.0
H1183 H 0.36589 0.80799 0.06854 0.0
H1184 H 0.40916 0.83296 0.18014 0.0
H1185 H 0.43352 0.85955 0.12737 0.0
C1186 C 0.50427 0.87601 0.94295 0.0
C1187 C 0.51837 0.88262 0.97978 0.0
C1188 C 0.48573 0.87543 0.94836 0.0
C1189 C 0.48086 0.88118 0.99087 0.0
C1190 C 0.49483 0.8877 0.02766 0.0
C1191 C 0.51345 0.88858 0.02207 0.0
C1192 C 0.46122 0.88051 0.99711 0.0
C1193 C 0.44726 0.86679 0.02932 0.0
C1194 C 0.45611 0.89302 0.97096 0.0
C1195 C 0.47043 0.90801 0.93699 0.0
C1196 C 0.48988 0.92303 0.95114 0.0
C1197 C 0.50342 0.93685 0.9187 0.0
C1198 C 0.49761 0.93591 0.87206 0.0
C1199 C 0.47824 0.92118 0.8578 0.0
C1200 C 0.46466 0.9073 0.8901 0.0
C1201 C 0.37761 0.87753 0.0665 0.0
C1202 C 0.36642 0.87719 0.02717 0.0
C1203 C 0.39609 0.87796 0.06112 0.0
C1204 C 0.40343 0.87737 0.01634 0.0
C1205 C 0.39208 0.87683 0.97714 0.0
C1206 C 0.37391 0.87691 0.98247 0.0
C1207 C 0.42308 0.87778 0.00996 0.0
C1208 C 0.43717 0.89153 0.97772 0.0
C1209 C 0.42814 0.865 0.03555 0.0
C1210 C 0.41354 0.84901 0.06733 0.0
C1211 C 0.39438 0.83423 0.05102 0.0
C1212 C 0.38065 0.81927 0.08123 0.0
C1213 C 0.38596 0.81884 0.12775 0.0
C1214 C 0.40505 0.83334 0.14412 0.0
C1215 C 0.41883 0.84834 0.11407 0.0
H1216 H 0.37531 0.80725 0.15107 0.0
H1217 H 0.50811 0.94662 0.84698 0.0
H1218 H 0.61756 0.53682 0.32651 0.0
H1219 H 0.5866 0.50483 0.34146 0.0
H1220 H 0.61529 0.47212 0.2902 0.0
H1221 H 0.64609 0.50416 0.27347 0.0
H1222 H 0.57815 0.4534 0.26296 0.0
H1223 H 0.60995 0.47854 0.41004 0.0
H1224 H 0.62602 0.50326 0.47381 0.0
H1225 H 0.57119 0.50515 0.49397 0.0
H1226 H 0.55488 0.48064 0.42983 0.0
H1227 H 0.51023 0.36154 0.38864 0.0
H1228 H 0.54136 0.39394 0.37482 0.0
H1229 H 0.50596 0.42312 0.35462 0.0
H1230 H 0.47478 0.39069 0.36727 0.0
H1231 H 0.54667 0.44253 0.41984 0.0
H1232 H 0.51672 0.4176 0.26486 0.0
H1233 H 0.50193 0.39063 0.2054 0.0
H1234 H 0.55592 0.38622 0.20625 0.0
H1235 H 0.57087 0.41294 0.26642 0.0
C1236 C 0.61723 0.52282 0.31808 0.0
C1237 C 0.63435 0.52304 0.29914 0.0
C1238 C 0.59954 0.50451 0.32693 0.0
C1239 C 0.59871 0.48598 0.31813 0.0
C1240 C 0.61554 0.48617 0.29757 0.0
C1241 C 0.63316 0.50452 0.28798 0.0
C1242 C 0.58042 0.46648 0.33111 0.0
C1243 C 0.57146 0.45106 0.29745 0.0
C1244 C 0.57154 0.4632 0.37614 0.0
C1245 C 0.58126 0.4779 0.41482 0.0
C1246 C 0.60137 0.48434 0.42784 0.0
C1247 C 0.61051 0.4983 0.46409 0.0
C1248 C 0.59965 0.50581 0.48785 0.0
C1249 C 0.5796 0.49933 0.47548 0.0
C1250 C 0.57039 0.4854 0.43921 0.0
C1251 C 0.50915 0.37494 0.38195 0.0
C1252 C 0.49016 0.37367 0.37872 0.0
C1253 C 0.52688 0.39337 0.37391 0.0
C1254 C 0.52587 0.41082 0.36356 0.0
C1255 C 0.50699 0.40978 0.36254 0.0
C1256 C 0.48925 0.39129 0.36953 0.0
C1257 C 0.54446 0.42993 0.3515 0.0
C1258 C 0.55347 0.4451 0.38543 0.0
C1259 C 0.55362 0.43284 0.30717 0.0
C1260 C 0.5448 0.41707 0.27048 0.0
C1261 C 0.52535 0.41073 0.2527 0.0
C1262 C 0.51695 0.39552 0.21881 0.0
C1263 C 0.52795 0.38667 0.20215 0.0
C1264 C 0.5474 0.39307 0.21924 0.0
C1265 C 0.55584 0.40824 0.25322 0.0
H1266 H 0.52143 0.3749 0.17592 0.0
H1267 H 0.60675 0.51661 0.51591 0.0
H1268 H 0.09162 0.61928 0.66138 0.0
H1269 H 0.09253 0.588 0.67322 0.0
H1270 H 0.15615 0.61935 0.63855 0.0
H1271 H 0.15479 0.6502 0.62331 0.0
H1272 H 0.14201 0.58467 0.60697 0.0
H1273 H 0.13623 0.6081 0.75677 0.0
H1274 H 0.12221 0.62021 0.81822 0.0
H1275 H 0.06601 0.56394 0.81322 0.0
H1276 H 0.07961 0.55158 0.75127 0.0
H1277 H 0.15769 0.51017 0.72908 0.0
H1278 H 0.15712 0.54196 0.72119 0.0
H1279 H 0.09533 0.50873 0.67327 0.0
H1280 H 0.09598 0.47701 0.67954 0.0
H1281 H 0.1105 0.5448 0.75054 0.0
H1282 H 0.11977 0.5245 0.59217 0.0
H1283 H 0.13804 0.51424 0.53761 0.0
H1284 H 0.19383 0.56834 0.56989 0.0
H1285 H 0.17589 0.57873 0.62523 0.0
C1286 C 0.10569 0.61934 0.65567 0.0
C1287 C 0.12314 0.63709 0.6415 0.0
C1288 C 0.1063 0.60153 0.66298 0.0
C1289 C 0.12457 0.60136 0.6583 0.0
C1290 C 0.14186 0.619 0.64266 0.0
C1291 C 0.14109 0.63664 0.63388 0.0
C1292 C 0.1257 0.58289 0.67011 0.0
C1293 C 0.13529 0.57619 0.63871 0.0
C1294 C 0.11712 0.57167 0.71167 0.0
C1295 C 0.10889 0.57899 0.74907 0.0
C1296 C 0.12084 0.59836 0.76856 0.0
C1297 C 0.11297 0.60526 0.80351 0.0
C1298 C 0.09322 0.59287 0.81953 0.0
C1299 C 0.0813 0.57353 0.80073 0.0
C1300 C 0.08909 0.56656 0.76573 0.0
C1301 C 0.14388 0.50964 0.71767 0.0
C1302 C 0.12688 0.49117 0.70481 0.0
C1303 C 0.14361 0.52777 0.71304 0.0
C1304 C 0.12621 0.52759 0.69653 0.0
C1305 C 0.10888 0.5091 0.68609 0.0
C1306 C 0.10929 0.49104 0.6896 0.0
C1307 C 0.12642 0.54674 0.68713 0.0
C1308 C 0.11719 0.5535 0.71903 0.0
C1309 C 0.13588 0.55837 0.64696 0.0
C1310 C 0.14654 0.55226 0.61317 0.0
C1311 C 0.13596 0.53409 0.58795 0.0
C1312 C 0.14625 0.52828 0.55683 0.0
C1313 C 0.1671 0.54059 0.5504 0.0
C1314 C 0.17769 0.55879 0.57496 0.0
C1315 C 0.16747 0.56466 0.60618 0.0
H1316 H 0.17504 0.53606 0.5263 0.0
H1317 H 0.08715 0.59824 0.84658 0.0
H1318 H 0.63266 0.12745 0.10826 0.0
H1319 H 0.60127 0.12895 0.10257 0.0
H1320 H 0.60937 0.13739 0.95366 0.0
H1321 H 0.64033 0.13537 0.95877 0.0
H1322 H 0.59906 0.16514 1.00582 0.0
H1323 H 0.57805 0.09451 0.98055 0.0
H1324 H 0.57575 0.06207 1.0014 0.0
H1325 H 0.54562 0.06044 0.12936 0.0
H1326 H 0.54804 0.09307 0.10956 0.0
H1327 H 0.50262 0.14542 0.92586 0.0
H1328 H 0.53494 0.14654 0.93745 0.0
H1329 H 0.51654 0.1223 0.07628 0.0
H1330 H 0.48416 0.1208 0.06486 0.0
H1331 H 0.53268 0.10332 0.03298 0.0
H1332 H 0.55134 0.17217 0.05873 0.0
H1333 H 0.55397 0.20506 0.04157 0.0
H1334 H 0.58882 0.21114 0.91865 0.0
H1335 H 0.58613 0.17811 0.9347 0.0
C1336 C 0.62774 0.12966 0.07437 0.0
C1337 C 0.63885 0.13115 0.03393 0.0
C1338 C 0.60986 0.13051 0.07118 0.0
C1339 C 0.60309 0.1333 0.02769 0.0
C1340 C 0.61441 0.13528 0.9875 0.0
C1341 C 0.63199 0.13398 0.9905 0.0
C1342 C 0.58386 0.13352 0.02363 0.0
C1343 C 0.5845 0.15162 0.01132 0.0
C1344 C 0.565 0.11598 0.032 0.0
C1345 C 0.56346 0.09635 0.04386 0.0
C1346 C 0.57113 0.08734 0.01336 0.0
C1347 C 0.56976 0.0689 0.02493 0.0
C1348 C 0.56061 0.05923 0.06675 0.0
C1349 C 0.55274 0.06797 0.09702 0.0
C1350 C 0.5541 0.08643 0.08564 0.0
C1351 C 0.50546 0.1404 0.95899 0.0
C1352 C 0.49072 0.13301 0.99441 0.0
C1353 C 0.524 0.14113 0.96558 0.0
C1354 C 0.52825 0.13466 0.0079 0.0
C1355 C 0.5136 0.12735 0.04331 0.0
C1356 C 0.49508 0.12656 0.03674 0.0
C1357 C 0.54772 0.13498 0.01485 0.0
C1358 C 0.54718 0.11694 0.02769 0.0
C1359 C 0.56668 0.15267 0.00749 0.0
C1360 C 0.56835 0.17255 0.99767 0.0
C1361 C 0.55942 0.18043 0.02782 0.0
C1362 C 0.56095 0.19912 0.01833 0.0
C1363 C 0.57151 0.21016 0.97897 0.0
C1364 C 0.58061 0.20255 0.94909 0.0
C1365 C 0.5791 0.18386 0.95838 0.0
H1366 H 0.57269 0.22463 0.97169 0.0
H1367 H 0.55955 0.04495 0.07564 0.0
loop_
_geom_bond_atom_site_label_1
_geom_bond_atom_site_label_2
_geom_bond_distance
_geom_bond_site_symmetry_2
_ccdc_geom_bond_type
Co0 O1 2.216 . S
Co0 O2 2.091 . S
Co0 O4 2.004 . S
Co0 O10 2.021 . S
Co0 O12 2.137 . S
Co0 O13 2.244 . S
O1 Co0 2.216 . S
O1 C8 1.247 . S
O2 Co0 2.091 . S
O2 C8 1.261 . S
C3 O12 1.247 . S
C3 O13 1.272 . S
O4 Co0 2.004 . S
O4 C9 1.259 . S
Co5 O6 2.061 . S
Co5 O11 2.052 . S
Co5 O13 2.135 . S
O6 Co5 2.061 . S
O6 C9 1.235 . S
C7 O10 1.238 . S
C7 O11 1.241 . S
C8 O1 1.247 . S
C8 O2 1.261 . S
C9 O4 1.259 . S
C9 O6 1.235 . S
O10 Co0 2.021 . S
O10 C7 1.238 . S
O11 Co5 2.052 . S
O11 C7 1.241 . S
O12 Co0 2.137 . S
O12 C3 1.247 . S
O13 Co0 2.244 . S
O13 C3 1.272 . S
O13 Co5 2.135 . S
Co14 O15 2.216 . S
Co14 O16 2.091 . S
Co14 O18 2.004 . S
Co14 O24 2.021 . S
Co14 O26 2.137 . S
Co14 O27 2.244 . S
O15 Co14 2.216 . S
O15 C22 1.247 . S
O16 Co14 2.091 . S
O16 C22 1.261 . S
C17 O26 1.247 . S
C17 O27 1.272 . S
O18 Co14 2.004 . S
O18 C23 1.259 . S
Co19 O20 2.061 . S
Co19 O25 2.052 . S
Co19 O27 2.135 . S
O20 Co19 2.061 . S
O20 C23 1.235 . S
C21 O24 1.238 . S
C21 O25 1.241 . S
C22 O15 1.247 . S
C22 O16 1.261 . S
C23 O18 1.259 . S
C23 O20 1.235 . S
O24 Co14 2.021 . S
O24 C21 1.238 . S
O25 Co19 2.052 . S
O25 C21 1.241 . S
O26 Co14 2.137 . S
O26 C17 1.247 . S
O27 Co14 2.244 . S
O27 C17 1.272 . S
O27 Co19 2.135 . S
Co28 O29 2.216 . S
Co28 O30 2.091 . S
Co28 O32 2.004 . S
Co28 O38 2.021 . S
Co28 O40 2.137 . S
Co28 O41 2.244 . S
O29 Co28 2.216 . S
O29 C36 1.247 . S
O30 Co28 2.091 . S
O30 C36 1.261 . S
C31 O40 1.247 . S
C31 O41 1.272 . S
O32 Co28 2.004 . S
O32 C37 1.259 . S
Co33 O34 2.061 . S
Co33 O39 2.052 . S
Co33 O41 2.135 1_554 S
O34 Co33 2.061 . S
O34 C37 1.235 1_554 S
C35 O38 1.238 1_554 S
C35 O39 1.241 . S
C36 O29 1.247 . S
C36 O30 1.261 . S
C37 O32 1.259 . S
C37 O34 1.235 1_556 S
O38 Co28 2.021 . S
O38 C35 1.238 1_556 S
O39 Co33 2.052 . S
O39 C35 1.241 . S
O40 Co28 2.137 . S
O40 C31 1.247 . S
O41 Co28 2.244 . S
O41 C31 1.272 . S
O41 Co33 2.135 1_556 S
Co42 O43 2.216 . S
Co42 O44 2.091 . S
Co42 O46 2.004 . S
Co42 O52 2.021 . S
Co42 O54 2.137 . S
Co42 O55 2.244 . S
O43 Co42 2.216 . S
O43 C50 1.247 . S
O44 Co42 2.091 . S
O44 C50 1.261 . S
C45 O54 1.247 . S
C45 O55 1.272 . S
O46 Co42 2.004 . S
O46 C51 1.259 . S
Co47 O48 2.061 . S
Co47 O53 2.052 . S
Co47 O55 2.135 . S
O48 Co47 2.061 . S
O48 C51 1.235 . S
C49 O52 1.238 . S
C49 O53 1.241 . S
C50 O43 1.247 . S
C50 O44 1.261 . S
C51 O46 1.259 . S
C51 O48 1.235 . S
O52 Co42 2.021 . S
O52 C49 1.238 . S
O53 Co47 2.052 . S
O53 C49 1.241 . S
O54 Co42 2.137 . S
O54 C45 1.247 . S
O55 Co42 2.244 . S
O55 C45 1.272 . S
O55 Co47 2.135 . S
Co56 O57 2.216 . S
Co56 O58 2.091 . S
Co56 O60 2.004 . S
Co56 O66 2.021 . S
Co56 O68 2.137 . S
Co56 O69 2.244 . S
O57 Co56 2.216 . S
O57 C64 1.247 . S
O58 Co56 2.091 . S
O58 C64 1.261 . S
C59 O68 1.247 . S
C59 O69 1.272 . S
O60 Co56 2.004 . S
O60 C65 1.259 . S
Co61 O62 2.061 . S
Co61 O67 2.052 . S
Co61 O69 2.135 . S
O62 Co61 2.061 . S
O62 C65 1.235 . S
C63 O66 1.238 . S
C63 O67 1.241 . S
C64 O57 1.247 . S
C64 O58 1.261 . S
C65 O60 1.259 . S
C65 O62 1.235 . S
O66 Co56 2.021 . S
O66 C63 1.238 . S
O67 Co61 2.052 . S
O67 C63 1.241 . S
O68 Co56 2.137 . S
O68 C59 1.247 . S
O69 Co56 2.244 . S
O69 C59 1.272 . S
O69 Co61 2.135 . S
Co70 O71 2.216 . S
Co70 O72 2.091 . S
Co70 O74 2.004 . S
Co70 O80 2.021 . S
Co70 O82 2.137 . S
Co70 O83 2.244 . S
O71 Co70 2.216 . S
O71 C78 1.247 . S
O72 Co70 2.091 . S
O72 C78 1.261 . S
C73 O82 1.247 . S
C73 O83 1.272 . S
O74 Co70 2.004 . S
O74 C79 1.259 . S
Co75 O76 2.061 . S
Co75 O81 2.052 . S
Co75 O83 2.135 1_554 S
O76 Co75 2.061 . S
O76 C79 1.235 1_554 S
C77 O80 1.238 1_554 S
C77 O81 1.241 . S
C78 O71 1.247 . S
C78 O72 1.261 . S
C79 O74 1.259 . S
C79 O76 1.235 1_556 S
O80 Co70 2.021 . S
O80 C77 1.238 1_556 S
O81 Co75 2.052 . S
O81 C77 1.241 . S
O82 Co70 2.137 . S
O82 C73 1.247 . S
O83 Co70 2.244 . S
O83 C73 1.272 . S
O83 Co75 2.135 1_556 S
Co84 O85 2.216 . S
Co84 O86 2.091 . S
Co84 O88 2.004 . S
Co84 O94 2.021 . S
Co84 O96 2.137 . S
Co84 O97 2.244 . S
O85 Co84 2.216 . S
O85 C92 1.247 . S
O86 Co84 2.091 . S
O86 C92 1.261 . S
C87 O96 1.247 . S
C87 O97 1.272 . S
O88 Co84 2.004 . S
O88 C93 1.259 . S
Co89 O90 2.061 . S
Co89 O95 2.052 . S
Co89 O97 2.135 . S
O90 Co89 2.061 . S
O90 C93 1.235 . S
C91 O94 1.238 . S
C91 O95 1.241 . S
C92 O85 1.247 . S
C92 O86 1.261 . S
C93 O88 1.259 . S
C93 O90 1.235 . S
O94 Co84 2.021 . S
O94 C91 1.238 . S
O95 Co89 2.052 . S
O95 C91 1.241 . S
O96 Co84 2.137 . S
O96 C87 1.247 . S
O97 Co84 2.244 . S
O97 C87 1.272 . S
O97 Co89 2.135 . S
Co98 O99 2.216 . S
Co98 O100 2.091 . S
Co98 O102 2.004 . S
Co98 O108 2.021 . S
Co98 O110 2.137 . S
Co98 O111 2.244 . S
O99 Co98 2.216 . S
O99 C106 1.247 . S
O100 Co98 2.091 . S
O100 C106 1.261 . S
C101 O110 1.247 . S
C101 O111 1.272 . S
O102 Co98 2.004 . S
O102 C107 1.259 . S
Co103 O104 2.061 . S
Co103 O109 2.052 . S
Co103 O111 2.135 . S
O104 Co103 2.061 . S
O104 C107 1.235 . S
C105 O108 1.238 . S
C105 O109 1.241 . S
C106 O99 1.247 . S
C106 O100 1.261 . S
C107 O102 1.259 . S
C107 O104 1.235 . S
O108 Co98 2.021 . S
O108 C105 1.238 . S
O109 Co103 2.052 . S
O109 C105 1.241 . S
O110 Co98 2.137 . S
O110 C101 1.247 . S
O111 Co98 2.244 . S
O111 C101 1.272 . S
O111 Co103 2.135 . S
Co112 O113 2.216 . S
Co112 O114 2.091 . S
Co112 O116 2.004 . S
Co112 O122 2.021 . S
Co112 O124 2.137 . S
Co112 O125 2.244 . S
O113 Co112 2.216 . S
O113 C120 1.247 . S
O114 Co112 2.091 . S
O114 C120 1.261 . S
C115 O124 1.247 . S
C115 O125 1.272 . S
O116 Co112 2.004 . S
O116 C121 1.259 . S
Co117 O118 2.061 . S
Co117 O123 2.052 . S
Co117 O125 2.135 1_556 S
O118 Co117 2.061 . S
O118 C121 1.235 1_556 S
C119 O122 1.238 1_556 S
C119 O123 1.241 . S
C120 O113 1.247 . S
C120 O114 1.261 . S
C121 O116 1.259 . S
C121 O118 1.235 1_554 S
O122 Co112 2.021 . S
O122 C119 1.238 1_554 S
O123 Co117 2.052 . S
O123 C119 1.241 . S
O124 Co112 2.137 . S
O124 C115 1.247 . S
O125 Co112 2.244 . S
O125 C115 1.272 . S
O125 Co117 2.135 1_554 S
Co126 O127 2.216 . S
Co126 O128 2.091 . S
Co126 O130 2.004 . S
Co126 O136 2.021 . S
Co126 O138 2.137 . S
Co126 O139 2.244 . S
O127 Co126 2.216 . S
O127 C134 1.247 . S
O128 Co126 2.091 . S
O128 C134 1.261 . S
C129 O138 1.247 . S
C129 O139 1.272 . S
O130 Co126 2.004 . S
O130 C135 1.259 . S
Co131 O132 2.061 . S
Co131 O137 2.052 . S
Co131 O139 2.135 . S
O132 Co131 2.061 . S
O132 C135 1.235 . S
C133 O136 1.238 . S
C133 O137 1.241 . S
C134 O127 1.247 . S
C134 O128 1.261 . S
C135 O130 1.259 . S
C135 O132 1.235 . S
O136 Co126 2.021 . S
O136 C133 1.238 . S
O137 Co131 2.052 . S
O137 C133 1.241 . S
O138 Co126 2.137 . S
O138 C129 1.247 . S
O139 Co126 2.244 . S
O139 C129 1.272 . S
O139 Co131 2.135 . S
Co140 O141 2.216 . S
Co140 O142 2.091 . S
Co140 O144 2.004 . S
Co140 O150 2.021 . S
Co140 O152 2.137 . S
Co140 O153 2.244 . S
O141 Co140 2.216 . S
O141 C148 1.247 . S
O142 Co140 2.091 . S
O142 C148 1.261 . S
C143 O152 1.247 . S
C143 O153 1.272 . S
O144 Co140 2.004 . S
O144 C149 1.259 . S
Co145 O146 2.061 . S
Co145 O151 2.052 . S
Co145 O153 2.135 . S
O146 Co145 2.061 . S
O146 C149 1.235 . S
C147 O150 1.238 . S
C147 O151 1.241 . S
C148 O141 1.247 . S
C148 O142 1.261 . S
C149 O144 1.259 . S
C149 O146 1.235 . S
O150 Co140 2.021 . S
O150 C147 1.238 . S
O151 Co145 2.052 . S
O151 C147 1.241 . S
O152 Co140 2.137 . S
O152 C143 1.247 . S
O153 Co140 2.244 . S
O153 C143 1.272 . S
O153 Co145 2.135 . S
Co154 O155 2.216 . S
Co154 O156 2.091 . S
Co154 O158 2.004 . S
Co154 O164 2.021 . S
Co154 O166 2.137 . S
Co154 O167 2.244 . S
O155 Co154 2.216 . S
O155 C162 1.247 . S
O156 Co154 2.091 . S
O156 C162 1.261 . S
C157 O166 1.247 . S
C157 O167 1.272 . S
O158 Co154 2.004 . S
O158 C163 1.259 . S
Co159 O160 2.061 . S
Co159 O165 2.052 . S
Co159 O167 2.135 1_556 S
O160 Co159 2.061 . S
O160 C163 1.235 1_556 S
C161 O164 1.238 1_556 S
C161 O165 1.241 . S
C162 O155 1.247 . S
C162 O156 1.261 . S
C163 O158 1.259 . S
C163 O160 1.235 1_554 S
O164 Co154 2.021 . S
O164 C161 1.238 1_554 S
O165 Co159 2.052 . S
O165 C161 1.241 . S
O166 Co154 2.137 . S
O166 C157 1.247 . S
O167 Co154 2.244 . S
O167 C157 1.272 . S
O167 Co159 2.135 1_554 S
H168 C186 0.951 . S
H169 C188 0.951 . S
H170 C190 0.950 . S
H171 C191 0.950 . S
H172 C193 0.950 . S
H173 C196 0.950 . S
H174 C197 0.950 . S
H175 C199 0.950 . S
H176 C200 0.950 . S
H177 C201 0.951 . S
H178 C203 0.951 . S
H179 C205 0.950 . S
H180 C206 0.950 . S
H181 C208 0.950 . S
H182 C211 0.950 . S
H183 C212 0.950 . S
H184 C214 0.950 . S
H185 C215 0.950 . S
C186 H168 0.951 . S
C186 C187 1.366 . S
C186 C188 1.388 . S
C187 C186 1.366 . S
C187 C191 1.385 . S
C188 H169 0.951 . S
C188 C186 1.388 . S
C188 C189 1.366 . S
C189 C188 1.366 . S
C189 C190 1.414 . S
C189 C192 1.499 . S
C190 H170 0.950 . S
C190 C189 1.414 . S
C190 C191 1.374 . S
C191 H171 0.950 . S
C191 C187 1.385 . S
C191 C190 1.374 . S
C192 C189 1.499 . S
C192 C193 1.373 . S
C192 C194 1.389 . S
C193 H172 0.950 . S
C193 C192 1.373 . S
C193 C209 1.377 . S
C194 C192 1.389 . S
C194 C195 1.524 . S
C194 C208 1.377 . S
C195 C194 1.524 . S
C195 C196 1.397 . S
C195 C200 1.363 . S
C196 H173 0.950 . S
C196 C195 1.397 . S
C196 C197 1.334 . S
C197 H174 0.950 . S
C197 C196 1.334 . S
C197 C198 1.287 . S
C198 C197 1.287 . S
C198 C199 1.524 . S
C198 H217 0.913 . S
C199 H175 0.950 . S
C199 C198 1.524 . S
C199 C200 1.415 . S
C200 H176 0.950 . S
C200 C195 1.363 . S
C200 C199 1.415 . S
C201 H177 0.951 . S
C201 C202 1.366 . S
C201 C203 1.388 . S
C202 C201 1.366 . S
C202 C206 1.385 . S
C203 H178 0.951 . S
C203 C201 1.388 . S
C203 C204 1.366 . S
C204 C203 1.366 . S
C204 C205 1.414 . S
C204 C207 1.499 . S
C205 H179 0.950 . S
C205 C204 1.414 . S
C205 C206 1.374 . S
C206 H180 0.950 . S
C206 C202 1.385 . S
C206 C205 1.374 . S
C207 C204 1.499 . S
C207 C208 1.373 . S
C207 C209 1.389 . S
C208 H181 0.950 . S
C208 C194 1.377 . S
C208 C207 1.373 . S
C209 C193 1.377 . S
C209 C207 1.389 . S
C209 C210 1.524 . S
C210 C209 1.524 . S
C210 C211 1.397 . S
C210 C215 1.363 . S
C211 H182 0.950 . S
C211 C210 1.397 . S
C211 C212 1.334 . S
C212 H183 0.950 . S
C212 C211 1.334 . S
C212 C213 1.287 . S
C213 C212 1.287 . S
C213 C214 1.524 . S
C213 H216 0.999 . S
C214 H184 0.950 . S
C214 C213 1.524 . S
C214 C215 1.415 . S
C215 H185 0.950 . S
C215 C210 1.363 . S
C215 C214 1.415 . S
H216 C213 0.999 . S
H217 C198 0.913 . S
H218 C236 0.951 . S
H219 C238 0.951 . S
H220 C240 0.950 . S
H221 C241 0.950 . S
H222 C243 0.950 . S
H223 C246 0.950 . S
H224 C247 0.950 . S
H225 C249 0.950 . S
H226 C250 0.950 . S
H227 C251 0.951 . S
H228 C253 0.951 . S
H229 C255 0.950 . S
H230 C256 0.950 . S
H231 C258 0.950 . S
H232 C261 0.950 . S
H233 C262 0.950 . S
H234 C264 0.950 . S
H235 C265 0.950 . S
C236 H218 0.951 . S
C236 C237 1.366 . S
C236 C238 1.388 . S
C237 C236 1.366 . S
C237 C241 1.385 . S
C238 H219 0.951 . S
C238 C236 1.388 . S
C238 C239 1.366 . S
C239 C238 1.366 . S
C239 C240 1.414 . S
C239 C242 1.499 . S
C240 H220 0.950 . S
C240 C239 1.414 . S
C240 C241 1.374 . S
C241 H221 0.950 . S
C241 C237 1.385 . S
C241 C240 1.374 . S
C242 C239 1.499 . S
C242 C243 1.373 . S
C242 C244 1.389 . S
C243 H222 0.950 . S
C243 C242 1.373 . S
C243 C259 1.377 1_655 S
C244 C242 1.389 . S
C244 C245 1.524 . S
C244 C258 1.377 1_655 S
C245 C244 1.524 . S
C245 C246 1.397 . S
C245 C250 1.363 . S
C246 H223 0.950 . S
C246 C245 1.397 . S
C246 C247 1.334 . S
C247 H224 0.950 . S
C247 C246 1.334 . S
C247 C248 1.287 . S
C248 C247 1.287 . S
C248 C249 1.524 . S
C248 H267 0.913 . S
C249 H225 0.950 . S
C249 C248 1.524 . S
C249 C250 1.415 . S
C250 H226 0.950 . S
C250 C245 1.363 . S
C250 C249 1.415 . S
C251 H227 0.951 . S
C251 C252 1.366 . S
C251 C253 1.388 . S
C252 C251 1.366 . S
C252 C256 1.385 . S
C253 H228 0.951 . S
C253 C251 1.388 . S
C253 C254 1.366 . S
C254 C253 1.366 . S
C254 C255 1.414 . S
C254 C257 1.499 . S
C255 H229 0.950 . S
C255 C254 1.414 . S
C255 C256 1.374 . S
C256 H230 0.950 . S
C256 C252 1.385 . S
C256 C255 1.374 . S
C257 C254 1.499 . S
C257 C258 1.373 . S
C257 C259 1.389 . S
C258 H231 0.950 . S
C258 C244 1.377 1_455 S
C258 C257 1.373 . S
C259 C243 1.377 1_455 S
C259 C257 1.389 . S
C259 C260 1.524 . S
C260 C259 1.524 . S
C260 C261 1.397 . S
C260 C265 1.363 . S
C261 H232 0.950 . S
C261 C260 1.397 . S
C261 C262 1.334 . S
C262 H233 0.950 . S
C262 C261 1.334 . S
C262 C263 1.287 . S
C263 C262 1.287 . S
C263 C264 1.524 . S
C263 H266 0.999 . S
C264 H234 0.950 . S
C264 C263 1.524 . S
C264 C265 1.415 . S
C265 H235 0.950 . S
C265 C260 1.363 . S
C265 C264 1.415 . S
H266 C263 0.999 . S
H267 C248 0.913 . S
H268 C286 0.951 1_554 S
H269 C288 0.951 . S
H270 C290 0.950 . S
H271 C291 0.950 . S
H272 C293 0.950 . S
H273 C296 0.950 1_556 S
H274 C297 0.950 . S
H275 C299 0.950 . S
H276 C300 0.950 . S
H277 C301 0.951 1_556 S
H278 C303 0.951 . S
H279 C305 0.950 . S
H280 C306 0.950 . S
H281 C308 0.950 . S
H282 C311 0.950 1_554 S
H283 C312 0.950 . S
H284 C314 0.950 . S
H285 C315 0.950 . S
C286 H268 0.951 1_556 S
C286 C287 1.366 . S
C286 C288 1.388 1_556 S
C287 C286 1.366 . S
C287 C291 1.385 . S
C288 H269 0.951 . S
C288 C286 1.388 1_554 S
C288 C289 1.366 1_554 S
C289 C288 1.366 1_556 S
C289 C290 1.414 . S
C289 C292 1.499 . S
C290 H270 0.950 . S
C290 C289 1.414 . S
C290 C291 1.374 . S
C291 H271 0.950 . S
C291 C287 1.385 . S
C291 C290 1.374 . S
C292 C289 1.499 . S
C292 C293 1.373 . S
C292 C294 1.389 1_556 S
C293 H272 0.950 . S
C293 C292 1.373 . S
C293 C309 1.377 1_565 S
C294 C292 1.389 1_554 S
C294 C295 1.524 . S
C294 C308 1.377 1_565 S
C295 C294 1.524 . S
C295 C296 1.397 . S
C295 C300 1.363 . S
C296 H273 0.950 1_554 S
C296 C295 1.397 . S
C296 C297 1.334 . S
C297 H274 0.950 . S
C297 C296 1.334 . S
C297 C298 1.287 . S
C298 C297 1.287 . S
C298 C299 1.524 . S
C298 H317 0.913 . S
C299 H275 0.950 . S
C299 C298 1.524 . S
C299 C300 1.415 . S
C300 H276 0.950 . S
C300 C295 1.363 . S
C300 C299 1.415 . S
C301 H277 0.951 1_554 S
C301 C302 1.366 . S
C301 C303 1.388 1_554 S
C302 C301 1.366 . S
C302 C306 1.385 . S
C303 H278 0.951 . S
C303 C301 1.388 1_556 S
C303 C304 1.366 1_556 S
C304 C303 1.366 1_554 S
C304 C305 1.414 . S
C304 C307 1.499 . S
C305 H279 0.950 . S
C305 C304 1.414 . S
C305 C306 1.374 . S
C306 H280 0.950 . S
C306 C302 1.385 . S
C306 C305 1.374 . S
C307 C304 1.499 . S
C307 C308 1.373 . S
C307 C309 1.389 1_554 S
C308 H281 0.950 . S
C308 C294 1.377 1_545 S
C308 C307 1.373 . S
C309 C293 1.377 1_545 S
C309 C307 1.389 1_556 S
C309 C310 1.524 . S
C310 C309 1.524 . S
C310 C311 1.397 . S
C310 C315 1.363 . S
C311 H282 0.950 1_556 S
C311 C310 1.397 . S
C311 C312 1.334 . S
C312 H283 0.950 . S
C312 C311 1.334 . S
C312 C313 1.287 . S
C313 C312 1.287 . S
C313 C314 1.524 . S
C313 H316 0.999 . S
C314 H284 0.950 . S
C314 C313 1.524 . S
C314 C315 1.415 . S
C315 H285 0.950 . S
C315 C310 1.363 . S
C315 C314 1.415 . S
H316 C313 0.999 . S
H317 C298 0.913 . S
H318 C336 0.951 . S
H319 C338 0.951 . S
H320 C340 0.950 . S
H321 C341 0.950 . S
H322 C343 0.950 . S
H323 C346 0.950 . S
H324 C347 0.950 . S
H325 C349 0.950 . S
H326 C350 0.950 . S
H327 C351 0.951 . S
H328 C353 0.951 . S
H329 C355 0.950 . S
H330 C356 0.950 . S
H331 C358 0.950 . S
H332 C361 0.950 . S
H333 C362 0.950 . S
H334 C364 0.950 . S
H335 C365 0.950 . S
C336 H318 0.951 . S
C336 C337 1.366 . S
C336 C338 1.388 . S
C337 C336 1.366 . S
C337 C341 1.385 . S
C338 H319 0.951 . S
C338 C336 1.388 . S
C338 C339 1.366 . S
C339 C338 1.366 . S
C339 C340 1.414 . S
C339 C342 1.499 . S
C340 H320 0.950 . S
C340 C339 1.414 . S
C340 C341 1.374 . S
C341 H321 0.950 . S
C341 C337 1.385 . S
C341 C340 1.374 . S
C342 C339 1.499 . S
C342 C343 1.373 . S
C342 C344 1.389 . S
C343 H322 0.950 . S
C343 C342 1.373 . S
C343 C359 1.377 . S
C344 C342 1.389 . S
C344 C345 1.524 . S
C344 C358 1.377 . S
C345 C344 1.524 . S
C345 C346 1.397 . S
C345 C350 1.363 . S
C346 H323 0.950 . S
C346 C345 1.397 . S
C346 C347 1.334 . S
C347 H324 0.950 . S
C347 C346 1.334 . S
C347 C348 1.287 . S
C348 C347 1.287 . S
C348 C349 1.524 . S
C348 H367 0.913 . S
C349 H325 0.950 . S
C349 C348 1.524 . S
C349 C350 1.415 . S
C350 H326 0.950 . S
C350 C345 1.363 . S
C350 C349 1.415 . S
C351 H327 0.951 . S
C351 C352 1.366 . S
C351 C353 1.388 . S
C352 C351 1.366 . S
C352 C356 1.385 . S
C353 H328 0.951 . S
C353 C351 1.388 . S
C353 C354 1.366 . S
C354 C353 1.366 . S
C354 C355 1.414 . S
C354 C357 1.499 . S
C355 H329 0.950 . S
C355 C354 1.414 . S
C355 C356 1.374 . S
C356 H330 0.950 . S
C356 C352 1.385 . S
C356 C355 1.374 . S
C357 C354 1.499 . S
C357 C358 1.373 . S
C357 C359 1.389 . S
C358 H331 0.950 . S
C358 C344 1.377 . S
C358 C357 1.373 . S
C359 C343 1.377 . S
C359 C357 1.389 . S
C359 C360 1.524 . S
C360 C359 1.524 . S
C360 C361 1.397 . S
C360 C365 1.363 . S
C361 H332 0.950 . S
C361 C360 1.397 . S
C361 C362 1.334 . S
C362 H333 0.950 . S
C362 C361 1.334 . S
C362 C363 1.287 . S
C363 C362 1.287 . S
C363 C364 1.524 . S
C363 H366 0.999 . S
C364 H334 0.950 . S
C364 C363 1.524 . S
C364 C365 1.415 . S
C365 H335 0.950 . S
C365 C360 1.363 . S
C365 C364 1.415 . S
H366 C363 0.999 . S
H367 C348 0.913 . S
H368 C386 0.951 . S
H369 C388 0.951 . S
H370 C390 0.950 . S
H371 C391 0.950 . S
H372 C393 0.950 . S
H373 C396 0.950 . S
H374 C397 0.950 . S
H375 C399 0.950 . S
H376 C400 0.950 . S
H377 C401 0.951 . S
H378 C403 0.951 . S
H379 C405 0.950 . S
H380 C406 0.950 . S
H381 C408 0.950 . S
H382 C411 0.950 . S
H383 C412 0.950 . S
H384 C414 0.950 . S
H385 C415 0.950 . S
C386 H368 0.951 . S
C386 C387 1.366 . S
C386 C388 1.388 . S
C387 C386 1.366 . S
C387 C391 1.385 . S
C388 H369 0.951 . S
C388 C386 1.388 . S
C388 C389 1.366 . S
C389 C388 1.366 . S
C389 C390 1.414 . S
C389 C392 1.499 . S
C390 H370 0.950 . S
C390 C389 1.414 . S
C390 C391 1.374 . S
C391 H371 0.950 . S
C391 C387 1.385 . S
C391 C390 1.374 . S
C392 C389 1.499 . S
C392 C393 1.373 . S
C392 C394 1.389 . S
C393 H372 0.950 . S
C393 C392 1.373 . S
C393 C409 1.377 1_655 S
C394 C392 1.389 . S
C394 C395 1.524 . S
C394 C408 1.377 1_655 S
C395 C394 1.524 . S
C395 C396 1.397 . S
C395 C400 1.363 . S
C396 H373 0.950 . S
C396 C395 1.397 . S
C396 C397 1.334 . S
C397 H374 0.950 . S
C397 C396 1.334 . S
C397 C398 1.287 . S
C398 C397 1.287 . S
C398 C399 1.524 . S
C398 H417 0.913 . S
C399 H375 0.950 . S
C399 C398 1.524 . S
C399 C400 1.415 . S
C400 H376 0.950 . S
C400 C395 1.363 . S
C400 C399 1.415 . S
C401 H377 0.951 . S
C401 C402 1.366 . S
C401 C403 1.388 . S
C402 C401 1.366 . S
C402 C406 1.385 . S
C403 H378 0.951 . S
C403 C401 1.388 . S
C403 C404 1.366 . S
C404 C403 1.366 . S
C404 C405 1.414 . S
C404 C407 1.499 . S
C405 H379 0.950 . S
C405 C404 1.414 . S
C405 C406 1.374 . S
C406 H380 0.950 . S
C406 C402 1.385 . S
C406 C405 1.374 . S
C407 C404 1.499 . S
C407 C408 1.373 . S
C407 C409 1.389 . S
C408 H381 0.950 . S
C408 C394 1.377 1_455 S
C408 C407 1.373 . S
C409 C393 1.377 1_455 S
C409 C407 1.389 . S
C409 C410 1.524 . S
C410 C409 1.524 . S
C410 C411 1.397 . S
C410 C415 1.363 . S
C411 H382 0.950 . S
C411 C410 1.397 . S
C411 C412 1.334 . S
C412 H383 0.950 . S
C412 C411 1.334 . S
C412 C413 1.287 . S
C413 C412 1.287 . S
C413 C414 1.524 . S
C413 H416 0.999 . S
C414 H384 0.950 . S
C414 C413 1.524 . S
C414 C415 1.415 . S
C415 H385 0.950 . S
C415 C410 1.363 . S
C415 C414 1.415 . S
H416 C413 0.999 . S
H417 C398 0.913 . S
H418 C436 0.951 . S
H419 C438 0.951 . S
H420 C440 0.950 . S
H421 C441 0.950 1_556 S
H422 C443 0.950 . S
H423 C446 0.950 . S
H424 C447 0.950 . S
H425 C449 0.950 1_545 S
H426 C450 0.950 . S
H427 C451 0.951 . S
H428 C453 0.951 . S
H429 C455 0.967 . S
H430 C456 0.950 1_554 S
H431 C458 0.950 . S
H432 C461 0.950 . S
H433 C462 0.950 . S
H434 C464 0.950 1_565 S
H435 C465 0.950 . S
C436 H418 0.951 . S
C436 C437 1.366 . S
C436 C438 1.388 . S
C437 C436 1.366 . S
C437 C441 1.385 . S
C438 H419 0.951 . S
C438 C436 1.388 . S
C438 C439 1.366 . S
C439 C438 1.366 . S
C439 C440 1.414 1_554 S
C439 C442 1.499 . S
C440 H420 0.950 . S
C440 C439 1.414 1_556 S
C440 C441 1.374 1_556 S
C441 H421 0.950 1_554 S
C441 C437 1.385 . S
C441 C440 1.374 1_554 S
C442 C439 1.499 . S
C442 C443 1.373 1_554 S
C442 C444 1.389 . S
C443 H422 0.950 . S
C443 C442 1.373 1_556 S
C443 C459 1.377 1_565 S
C444 C442 1.389 . S
C444 C445 1.524 . S
C444 C458 1.377 1_565 S
C445 C444 1.524 . S
C445 C446 1.397 . S
C445 C450 1.363 1_565 S
C446 H423 0.950 . S
C446 C445 1.397 . S
C446 C447 1.334 . S
C447 H424 0.950 . S
C447 C446 1.334 . S
C447 C448 1.287 . S
C448 C447 1.287 . S
C448 C449 1.524 . S
C448 H467 0.913 . S
C449 H425 0.950 1_565 S
C449 C448 1.524 . S
C449 C450 1.415 1_565 S
C450 H426 0.950 . S
C450 C445 1.363 1_545 S
C450 C449 1.415 1_545 S
C451 H427 0.951 . S
C451 C452 1.366 . S
C451 C453 1.388 . S
C452 C451 1.366 . S
C452 C456 1.385 . S
C453 H428 0.951 . S
C453 C451 1.388 . S
C453 C454 1.366 . S
C454 C453 1.366 . S
C454 C455 1.402 1_556 S
C454 C457 1.499 . S
C455 H429 0.967 . S
C455 C454 1.402 1_554 S
C455 C456 1.369 1_554 S
C456 H430 0.950 1_556 S
C456 C452 1.385 . S
C456 C455 1.369 1_556 S
C457 C454 1.499 . S
C457 C458 1.373 1_556 S
C457 C459 1.389 . S
C458 H431 0.950 . S
C458 C444 1.377 1_545 S
C458 C457 1.373 1_554 S
C459 C443 1.377 1_545 S
C459 C457 1.389 . S
C459 C460 1.524 . S
C460 C459 1.524 . S
C460 C461 1.397 . S
C460 C465 1.363 1_545 S
C461 H432 0.950 . S
C461 C460 1.397 . S
C461 C462 1.334 . S
C462 H433 0.950 . S
C462 C461 1.334 . S
C462 C463 1.287 . S
C463 C462 1.287 . S
C463 C464 1.524 . S
C463 H466 0.999 . S
C464 H434 0.950 1_545 S
C464 C463 1.524 . S
C464 C465 1.415 1_545 S
C465 H435 0.950 . S
C465 C460 1.363 1_565 S
C465 C464 1.415 1_565 S
H466 C463 0.999 . S
H467 C448 0.913 . S
H468 C486 0.951 . S
H469 C488 0.951 . S
H470 C490 0.950 . S
H471 C491 0.950 . S
H472 C493 0.950 . S
H473 C496 0.950 . S
H474 C497 0.950 1_556 S
H475 C499 0.950 . S
H476 C500 0.950 . S
H477 C501 0.951 . S
H478 C503 0.951 . S
H479 C505 0.950 . S
H480 C506 0.950 . S
H481 C508 0.950 . S
H482 C511 0.950 . S
H483 C512 0.950 1_554 S
H484 C514 0.950 . S
H485 C515 0.950 . S
C486 H468 0.951 . S
C486 C487 1.366 . S
C486 C488 1.388 . S
C487 C486 1.366 . S
C487 C491 1.385 . S
C488 H469 0.951 . S
C488 C486 1.388 . S
C488 C489 1.366 . S
C489 C488 1.366 . S
C489 C490 1.414 . S
C489 C492 1.499 . S
C490 H470 0.950 . S
C490 C489 1.414 . S
C490 C491 1.374 . S
C491 H471 0.950 . S
C491 C487 1.385 . S
C491 C490 1.374 . S
C492 C489 1.499 . S
C492 C493 1.373 . S
C492 C494 1.389 1_556 S
C493 H472 0.950 . S
C493 C492 1.373 . S
C493 C509 1.377 . S
C494 C492 1.389 1_554 S
C494 C495 1.524 . S
C494 C508 1.377 . S
C495 C494 1.524 . S
C495 C496 1.397 1_554 S
C495 C500 1.363 . S
C496 H473 0.950 . S
C496 C495 1.397 1_556 S
C496 C497 1.334 1_556 S
C497 H474 0.950 1_554 S
C497 C496 1.334 1_554 S
C497 C498 1.287 . S
C498 C497 1.287 . S
C498 C499 1.524 . S
C498 H517 0.913 . S
C499 H475 0.950 . S
C499 C498 1.524 . S
C499 C500 1.415 . S
C500 H476 0.950 . S
C500 C495 1.363 . S
C500 C499 1.415 . S
C501 H477 0.951 . S
C501 C502 1.366 . S
C501 C503 1.388 . S
C502 C501 1.366 . S
C502 C506 1.385 . S
C503 H478 0.951 . S
C503 C501 1.388 . S
C503 C504 1.366 . S
C504 C503 1.366 . S
C504 C505 1.414 . S
C504 C507 1.499 . S
C505 H479 0.950 . S
C505 C504 1.414 . S
C505 C506 1.374 . S
C506 H480 0.950 . S
C506 C502 1.385 . S
C506 C505 1.374 . S
C507 C504 1.499 . S
C507 C508 1.373 . S
C507 C509 1.389 1_554 S
C508 H481 0.950 . S
C508 C494 1.377 . S
C508 C507 1.373 . S
C509 C493 1.377 . S
C509 C507 1.389 1_556 S
C509 C510 1.524 . S
C510 C509 1.524 . S
C510 C511 1.397 1_556 S
C510 C515 1.363 . S
C511 H482 0.950 . S
C511 C510 1.397 1_554 S
C511 C512 1.334 1_554 S
C512 H483 0.950 1_556 S
C512 C511 1.334 1_556 S
C512 C513 1.287 . S
C513 C512 1.287 . S
C513 C514 1.524 . S
C513 H516 0.999 . S
C514 H484 0.950 . S
C514 C513 1.524 . S
C514 C515 1.415 . S
C515 H485 0.950 . S
C515 C510 1.363 . S
C515 C514 1.415 . S
H516 C513 0.999 . S
H517 C498 0.913 . S
H518 C536 0.951 . S
H519 C538 0.951 . S
H520 C540 0.950 . S
H521 C541 0.950 . S
H522 C543 0.950 . S
H523 C546 0.950 . S
H524 C547 0.950 . S
H525 C549 0.950 . S
H526 C550 0.950 . S
H527 C551 0.951 . S
H528 C553 0.951 . S
H529 C555 0.950 . S
H530 C556 0.950 . S
H531 C558 0.950 . S
H532 C561 0.950 . S
H533 C562 0.950 . S
H534 C564 0.950 . S
H535 C565 0.950 . S
C536 H518 0.951 . S
C536 C537 1.366 . S
C536 C538 1.388 . S
C537 C536 1.366 . S
C537 C541 1.385 . S
C538 H519 0.951 . S
C538 C536 1.388 . S
C538 C539 1.366 . S
C539 C538 1.366 . S
C539 C540 1.414 . S
C539 C542 1.499 . S
C540 H520 0.950 . S
C540 C539 1.414 . S
C540 C541 1.374 . S
C541 H521 0.950 . S
C541 C537 1.385 . S
C541 C540 1.374 . S
C542 C539 1.499 . S
C542 C543 1.373 . S
C542 C544 1.389 . S
C543 H522 0.950 . S
C543 C542 1.373 . S
C543 C559 1.377 . S
C544 C542 1.389 . S
C544 C545 1.524 . S
C544 C558 1.377 . S
C545 C544 1.524 . S
C545 C546 1.397 . S
C545 C550 1.363 . S
C546 H523 0.950 . S
C546 C545 1.397 . S
C546 C547 1.334 . S
C547 H524 0.950 . S
C547 C546 1.334 . S
C547 C548 1.287 . S
C548 C547 1.287 . S
C548 C549 1.524 . S
C548 H567 0.913 . S
C549 H525 0.950 . S
C549 C548 1.524 . S
C549 C550 1.415 . S
C550 H526 0.950 . S
C550 C545 1.363 . S
C550 C549 1.415 . S
C551 H527 0.951 . S
C551 C552 1.366 . S
C551 C553 1.388 . S
C552 C551 1.366 . S
C552 C556 1.385 . S
C553 H528 0.951 . S
C553 C551 1.388 . S
C553 C554 1.366 . S
C554 C553 1.366 . S
C554 C555 1.414 . S
C554 C557 1.499 . S
C555 H529 0.950 . S
C555 C554 1.414 . S
C555 C556 1.374 . S
C556 H530 0.950 . S
C556 C552 1.385 . S
C556 C555 1.374 . S
C557 C554 1.499 . S
C557 C558 1.373 . S
C557 C559 1.389 . S
C558 H531 0.950 . S
C558 C544 1.377 . S
C558 C557 1.373 . S
C559 C543 1.377 . S
C559 C557 1.389 . S
C559 C560 1.524 . S
C560 C559 1.524 . S
C560 C561 1.397 . S
C560 C565 1.363 . S
C561 H532 0.950 . S
C561 C560 1.397 . S
C561 C562 1.334 . S
C562 H533 0.950 . S
C562 C561 1.334 . S
C562 C563 1.287 . S
C563 C562 1.287 . S
C563 C564 1.524 . S
C563 H566 0.999 . S
C564 H534 0.950 . S
C564 C563 1.524 . S
C564 C565 1.415 . S
C565 H535 0.950 . S
C565 C560 1.363 . S
C565 C564 1.415 . S
H566 C563 0.999 . S
H567 C548 0.913 . S
H568 C586 0.951 . S
H569 C588 0.951 . S
H570 C590 0.950 . S
H571 C591 0.950 . S
H572 C593 0.950 . S
H573 C596 0.950 . S
H574 C597 0.950 . S
H575 C599 0.950 . S
H576 C600 0.950 . S
H577 C601 0.951 . S
H578 C603 0.951 . S
H579 C605 0.950 . S
H580 C606 0.950 . S
H581 C608 0.950 . S
H582 C611 0.950 . S
H583 C612 0.950 . S
H584 C614 0.950 . S
H585 C615 0.950 . S
C586 H568 0.951 . S
C586 C587 1.366 . S
C586 C588 1.388 . S
C587 C586 1.366 . S
C587 C591 1.385 . S
C588 H569 0.951 . S
C588 C586 1.388 . S
C588 C589 1.366 . S
C589 C588 1.366 . S
C589 C590 1.414 . S
C589 C592 1.499 . S
C590 H570 0.950 . S
C590 C589 1.414 . S
C590 C591 1.374 . S
C591 H571 0.950 . S
C591 C587 1.385 . S
C591 C590 1.374 . S
C592 C589 1.499 . S
C592 C593 1.373 . S
C592 C594 1.389 . S
C593 H572 0.950 . S
C593 C592 1.373 . S
C593 C609 1.377 . S
C594 C592 1.389 . S
C594 C595 1.524 . S
C594 C608 1.377 . S
C595 C594 1.524 . S
C595 C596 1.397 . S
C595 C600 1.363 . S
C596 H573 0.950 . S
C596 C595 1.397 . S
C596 C597 1.334 . S
C597 H574 0.950 . S
C597 C596 1.334 . S
C597 C598 1.287 . S
C598 C597 1.287 . S
C598 C599 1.524 . S
C598 H617 0.913 . S
C599 H575 0.950 . S
C599 C598 1.524 . S
C599 C600 1.415 . S
C600 H576 0.950 . S
C600 C595 1.363 . S
C600 C599 1.415 . S
C601 H577 0.951 . S
C601 C602 1.366 . S
C601 C603 1.388 . S
C602 C601 1.366 . S
C602 C606 1.385 . S
C603 H578 0.951 . S
C603 C601 1.388 . S
C603 C604 1.366 . S
C604 C603 1.366 . S
C604 C605 1.414 . S
C604 C607 1.499 . S
C605 H579 0.950 . S
C605 C604 1.414 . S
C605 C606 1.374 . S
C606 H580 0.950 . S
C606 C602 1.385 . S
C606 C605 1.374 . S
C607 C604 1.499 . S
C607 C608 1.373 . S
C607 C609 1.389 . S
C608 H581 0.950 . S
C608 C594 1.377 . S
C608 C607 1.373 . S
C609 C593 1.377 . S
C609 C607 1.389 . S
C609 C610 1.524 . S
C610 C609 1.524 . S
C610 C611 1.397 . S
C610 C615 1.363 . S
C611 H582 0.950 . S
C611 C610 1.397 . S
C611 C612 1.334 . S
C612 H583 0.950 . S
C612 C611 1.334 . S
C612 C613 1.287 . S
C613 C612 1.287 . S
C613 C614 1.524 . S
C613 H616 0.999 . S
C614 H584 0.950 . S
C614 C613 1.524 . S
C614 C615 1.415 . S
C615 H585 0.950 . S
C615 C610 1.363 . S
C615 C614 1.415 . S
H616 C613 0.999 . S
H617 C598 0.913 . S
H618 C636 0.951 . S
H619 C638 0.951 . S
H620 C640 0.950 . S
H621 C641 0.950 . S
H622 C643 0.950 . S
H623 C646 0.950 . S
H624 C647 0.950 . S
H625 C649 0.950 . S
H626 C650 0.950 . S
H627 C651 0.951 . S
H628 C653 0.951 . S
H629 C655 0.950 . S
H630 C656 0.950 . S
H631 C658 0.950 . S
H632 C661 0.950 . S
H633 C662 0.950 . S
H634 C664 0.950 . S
H635 C665 0.950 . S
C636 H618 0.951 . S
C636 C637 1.366 . S
C636 C638 1.388 . S
C637 C636 1.366 . S
C637 C641 1.385 . S
C638 H619 0.951 . S
C638 C636 1.388 . S
C638 C639 1.366 . S
C639 C638 1.366 . S
C639 C640 1.414 . S
C639 C642 1.499 . S
C640 H620 0.950 . S
C640 C639 1.414 . S
C640 C641 1.374 . S
C641 H621 0.950 . S
C641 C637 1.385 . S
C641 C640 1.374 . S
C642 C639 1.499 . S
C642 C643 1.373 . S
C642 C644 1.383 1_554 S
C643 H622 0.950 . S
C643 C642 1.373 . S
C643 C659 1.369 1_554 S
C644 C642 1.383 1_556 S
C644 C645 1.525 . S
C644 C658 1.383 . S
C645 C644 1.525 . S
C645 C646 1.397 1_556 S
C645 C650 1.363 . S
C646 H623 0.950 . S
C646 C645 1.397 1_554 S
C646 C647 1.334 . S
C647 H624 0.950 . S
C647 C646 1.334 . S
C647 C648 1.295 . S
C648 C647 1.295 . S
C648 C649 1.515 1_554 S
C648 H667 0.914 . S
C649 H625 0.950 . S
C649 C648 1.515 1_556 S
C649 C650 1.415 . S
C650 H626 0.950 . S
C650 C645 1.363 . S
C650 C649 1.415 . S
C651 H627 0.951 . S
C651 C652 1.366 . S
C651 C653 1.388 . S
C652 C651 1.366 . S
C652 C656 1.385 . S
C653 H628 0.951 . S
C653 C651 1.388 . S
C653 C654 1.366 . S
C654 C653 1.366 . S
C654 C655 1.414 . S
C654 C657 1.499 . S
C655 H629 0.950 . S
C655 C654 1.414 . S
C655 C656 1.374 . S
C656 H630 0.950 . S
C656 C652 1.385 . S
C656 C655 1.374 . S
C657 C654 1.499 . S
C657 C658 1.373 . S
C657 C659 1.397 . S
C658 H631 0.950 . S
C658 C644 1.383 . S
C658 C657 1.373 . S
C659 C643 1.369 1_556 S
C659 C657 1.397 . S
C659 C660 1.524 1_556 S
C660 C659 1.524 1_554 S
C660 C661 1.397 1_554 S
C660 C665 1.363 . S
C661 H632 0.950 . S
C661 C660 1.397 1_556 S
C661 C662 1.334 . S
C662 H633 0.950 . S
C662 C661 1.334 . S
C662 C663 1.287 . S
C663 C662 1.287 . S
C663 C664 1.524 1_556 S
C663 H666 0.999 . S
C664 H634 0.950 . S
C664 C663 1.524 1_554 S
C664 C665 1.415 . S
C665 H635 0.950 . S
C665 C660 1.363 . S
C665 C664 1.415 . S
H666 C663 0.999 . S
H667 C648 0.914 . S
H668 C686 0.951 . S
H669 C688 0.951 . S
H670 C690 0.950 . S
H671 C691 0.950 . S
H672 C693 0.950 . S
H673 C696 0.950 . S
H674 C697 0.950 . S
H675 C699 0.950 . S
H676 C700 0.950 . S
H677 C701 0.951 . S
H678 C703 0.951 . S
H679 C705 0.950 . S
H680 C706 0.950 . S
H681 C708 0.950 . S
H682 C711 0.950 . S
H683 C712 0.950 . S
H684 C714 0.950 . S
H685 C715 0.950 . S
C686 H668 0.951 . S
C686 C687 1.366 . S
C686 C688 1.388 . S
C687 C686 1.366 . S
C687 C691 1.385 . S
C688 H669 0.951 . S
C688 C686 1.388 . S
C688 C689 1.366 . S
C689 C688 1.366 . S
C689 C690 1.414 . S
C689 C692 1.499 . S
C690 H670 0.950 . S
C690 C689 1.414 . S
C690 C691 1.374 . S
C691 H671 0.950 . S
C691 C687 1.385 . S
C691 C690 1.374 . S
C692 C689 1.499 . S
C692 C693 1.373 . S
C692 C694 1.389 . S
C693 H672 0.950 . S
C693 C692 1.373 . S
C693 C709 1.377 . S
C694 C692 1.389 . S
C694 C695 1.524 . S
C694 C708 1.377 . S
C695 C694 1.524 . S
C695 C696 1.397 . S
C695 C700 1.363 . S
C696 H673 0.950 . S
C696 C695 1.397 . S
C696 C697 1.334 . S
C697 H674 0.950 . S
C697 C696 1.334 . S
C697 C698 1.287 . S
C698 C697 1.287 . S
C698 C699 1.524 . S
C698 H717 0.913 . S
C699 H675 0.950 . S
C699 C698 1.524 . S
C699 C700 1.415 . S
C700 H676 0.950 . S
C700 C695 1.363 . S
C700 C699 1.415 . S
C701 H677 0.951 . S
C701 C702 1.366 . S
C701 C703 1.388 . S
C702 C701 1.366 . S
C702 C706 1.385 . S
C703 H678 0.951 . S
C703 C701 1.388 . S
C703 C704 1.366 . S
C704 C703 1.366 . S
C704 C705 1.414 . S
C704 C707 1.499 . S
C705 H679 0.950 . S
C705 C704 1.414 . S
C705 C706 1.374 . S
C706 H680 0.950 . S
C706 C702 1.385 . S
C706 C705 1.374 . S
C707 C704 1.499 . S
C707 C708 1.373 . S
C707 C709 1.389 . S
C708 H681 0.950 . S
C708 C694 1.377 . S
C708 C707 1.373 . S
C709 C693 1.377 . S
C709 C707 1.389 . S
C709 C710 1.524 . S
C710 C709 1.524 . S
C710 C711 1.397 . S
C710 C715 1.363 . S
C711 H682 0.950 . S
C711 C710 1.397 . S
C711 C712 1.334 . S
C712 H683 0.950 . S
C712 C711 1.334 . S
C712 C713 1.287 . S
C713 C712 1.287 . S
C713 C714 1.524 . S
C713 H716 0.999 . S
C714 H684 0.950 . S
C714 C713 1.524 . S
C714 C715 1.415 . S
C715 H685 0.950 . S
C715 C710 1.363 . S
C715 C714 1.415 . S
H716 C713 0.999 . S
H717 C698 0.913 . S
H718 C736 0.951 . S
H719 C738 0.951 . S
H720 C740 0.950 . S
H721 C741 0.950 . S
H722 C743 0.950 . S
H723 C746 0.950 . S
H724 C747 0.950 . S
H725 C749 0.950 . S
H726 C750 0.950 . S
H727 C751 0.951 . S
H728 C753 0.951 . S
H729 C755 0.950 . S
H730 C756 0.950 . S
H731 C758 0.950 . S
H732 C761 0.950 . S
H733 C762 0.950 . S
H734 C764 0.950 . S
H735 C765 0.950 . S
C736 H718 0.951 . S
C736 C737 1.366 . S
C736 C738 1.388 . S
C737 C736 1.366 . S
C737 C741 1.385 . S
C738 H719 0.951 . S
C738 C736 1.388 . S
C738 C739 1.366 . S
C739 C738 1.366 . S
C739 C740 1.414 . S
C739 C742 1.499 . S
C740 H720 0.950 . S
C740 C739 1.414 . S
C740 C741 1.374 . S
C741 H721 0.950 . S
C741 C737 1.385 . S
C741 C740 1.374 . S
C742 C739 1.499 . S
C742 C743 1.373 . S
C742 C744 1.389 . S
C743 H722 0.950 . S
C743 C742 1.373 . S
C743 C759 1.377 . S
C744 C742 1.389 . S
C744 C745 1.524 . S
C744 C758 1.377 . S
C745 C744 1.524 . S
C745 C746 1.397 . S
C745 C750 1.363 . S
C746 H723 0.950 . S
C746 C745 1.397 . S
C746 C747 1.334 . S
C747 H724 0.950 . S
C747 C746 1.334 . S
C747 C748 1.287 . S
C748 C747 1.287 . S
C748 C749 1.524 . S
C748 H767 0.913 . S
C749 H725 0.950 . S
C749 C748 1.524 . S
C749 C750 1.415 . S
C750 H726 0.950 . S
C750 C745 1.363 . S
C750 C749 1.415 . S
C751 H727 0.951 . S
C751 C752 1.366 . S
C751 C753 1.388 . S
C752 C751 1.366 . S
C752 C756 1.385 . S
C753 H728 0.951 . S
C753 C751 1.388 . S
C753 C754 1.366 . S
C754 C753 1.366 . S
C754 C755 1.414 . S
C754 C757 1.499 . S
C755 H729 0.950 . S
C755 C754 1.414 . S
C755 C756 1.374 . S
C756 H730 0.950 . S
C756 C752 1.385 . S
C756 C755 1.374 . S
C757 C754 1.499 . S
C757 C758 1.373 . S
C757 C759 1.389 . S
C758 H731 0.950 . S
C758 C744 1.377 . S
C758 C757 1.373 . S
C759 C743 1.377 . S
C759 C757 1.389 . S
C759 C760 1.524 . S
C760 C759 1.524 . S
C760 C761 1.397 . S
C760 C765 1.363 . S
C761 H732 0.950 . S
C761 C760 1.397 . S
C761 C762 1.334 . S
C762 H733 0.950 . S
C762 C761 1.334 . S
C762 C763 1.287 . S
C763 C762 1.287 . S
C763 C764 1.524 . S
C763 H766 0.999 . S
C764 H734 0.950 . S
C764 C763 1.524 . S
C764 C765 1.415 . S
C765 H735 0.950 . S
C765 C760 1.363 . S
C765 C764 1.415 . S
H766 C763 0.999 . S
H767 C748 0.913 . S
H768 C786 0.951 . S
H769 C788 0.951 . S
H770 C790 0.950 . S
H771 C791 0.950 . S
H772 C793 0.950 . S
H773 C796 0.950 . S
H774 C797 0.950 . S
H775 C799 0.950 . S
H776 C800 0.950 . S
H777 C801 0.951 . S
H778 C803 0.951 . S
H779 C805 0.950 . S
H780 C806 0.950 . S
H781 C808 0.950 . S
H782 C811 0.950 . S
H783 C812 0.950 . S
H784 C814 0.950 . S
H785 C815 0.950 . S
C786 H768 0.951 . S
C786 C787 1.366 . S
C786 C788 1.388 . S
C787 C786 1.366 . S
C787 C791 1.385 . S
C788 H769 0.951 . S
C788 C786 1.388 . S
C788 C789 1.366 . S
C789 C788 1.366 . S
C789 C790 1.414 . S
C789 C792 1.499 . S
C790 H770 0.950 . S
C790 C789 1.414 . S
C790 C791 1.374 . S
C791 H771 0.950 . S
C791 C787 1.385 . S
C791 C790 1.374 . S
C792 C789 1.499 . S
C792 C793 1.373 . S
C792 C794 1.389 . S
C793 H772 0.950 . S
C793 C792 1.373 . S
C793 C809 1.377 . S
C794 C792 1.389 . S
C794 C795 1.524 . S
C794 C808 1.377 . S
C795 C794 1.524 . S
C795 C796 1.397 . S
C795 C800 1.363 . S
C796 H773 0.950 . S
C796 C795 1.397 . S
C796 C797 1.334 . S
C797 H774 0.950 . S
C797 C796 1.334 . S
C797 C798 1.287 . S
C798 C797 1.287 . S
C798 C799 1.524 . S
C798 H817 0.913 . S
C799 H775 0.950 . S
C799 C798 1.524 . S
C799 C800 1.415 . S
C800 H776 0.950 . S
C800 C795 1.363 . S
C800 C799 1.415 . S
C801 H777 0.951 . S
C801 C802 1.366 . S
C801 C803 1.388 . S
C802 C801 1.366 . S
C802 C806 1.385 . S
C803 H778 0.951 . S
C803 C801 1.388 . S
C803 C804 1.366 . S
C804 C803 1.366 . S
C804 C805 1.414 . S
C804 C807 1.499 . S
C805 H779 0.950 . S
C805 C804 1.414 . S
C805 C806 1.374 . S
C806 H780 0.950 . S
C806 C802 1.385 . S
C806 C805 1.374 . S
C807 C804 1.499 . S
C807 C808 1.373 . S
C807 C809 1.389 . S
C808 H781 0.950 . S
C808 C794 1.377 . S
C808 C807 1.373 . S
C809 C793 1.377 . S
C809 C807 1.389 . S
C809 C810 1.524 . S
C810 C809 1.524 . S
C810 C811 1.397 . S
C810 C815 1.363 . S
C811 H782 0.950 . S
C811 C810 1.397 . S
C811 C812 1.334 . S
C812 H783 0.950 . S
C812 C811 1.334 . S
C812 C813 1.287 . S
C813 C812 1.287 . S
C813 C814 1.524 . S
C813 H816 0.999 . S
C814 H784 0.950 . S
C814 C813 1.524 . S
C814 C815 1.415 . S
C815 H785 0.950 . S
C815 C810 1.363 . S
C815 C814 1.415 . S
H816 C813 0.999 . S
H817 C798 0.913 . S
H818 C836 0.951 . S
H819 C838 0.951 . S
H820 C840 0.950 . S
H821 C841 0.950 . S
H822 C843 0.950 . S
H823 C846 0.950 . S
H824 C847 0.950 . S
H825 C849 0.950 . S
H826 C850 0.950 . S
H827 C851 0.951 1_554 S
H828 C853 0.951 . S
H829 C855 0.950 . S
H830 C856 0.950 . S
H831 C858 0.950 . S
H832 C861 0.950 . S
H833 C862 0.950 . S
H834 C864 0.950 . S
H835 C865 0.950 . S
C836 H818 0.951 . S
C836 C837 1.366 . S
C836 C838 1.388 . S
C837 C836 1.366 . S
C837 C841 1.385 . S
C838 H819 0.951 . S
C838 C836 1.388 . S
C838 C839 1.366 . S
C839 C838 1.366 . S
C839 C840 1.414 . S
C839 C842 1.499 . S
C840 H820 0.950 . S
C840 C839 1.414 . S
C840 C841 1.374 . S
C841 H821 0.950 . S
C841 C837 1.385 . S
C841 C840 1.374 . S
C842 C839 1.499 . S
C842 C843 1.373 . S
C842 C844 1.389 . S
C843 H822 0.950 . S
C843 C842 1.373 . S
C843 C859 1.377 . S
C844 C842 1.389 . S
C844 C845 1.524 . S
C844 C858 1.377 . S
C845 C844 1.524 . S
C845 C846 1.397 . S
C845 C850 1.363 . S
C846 H823 0.950 . S
C846 C845 1.397 . S
C846 C847 1.334 . S
C847 H824 0.950 . S
C847 C846 1.334 . S
C847 C848 1.287 . S
C848 C847 1.287 . S
C848 C849 1.524 . S
C848 H867 0.913 . S
C849 H825 0.950 . S
C849 C848 1.524 . S
C849 C850 1.415 . S
C850 H826 0.950 . S
C850 C845 1.363 . S
C850 C849 1.415 . S
C851 H827 0.951 1_556 S
C851 C852 1.366 . S
C851 C853 1.388 . S
C852 C851 1.366 . S
C852 C856 1.385 . S
C853 H828 0.951 . S
C853 C851 1.388 . S
C853 C854 1.366 . S
C854 C853 1.366 . S
C854 C855 1.414 . S
C854 C857 1.499 . S
C855 H829 0.950 . S
C855 C854 1.414 . S
C855 C856 1.374 . S
C856 H830 0.950 . S
C856 C852 1.385 . S
C856 C855 1.374 . S
C857 C854 1.499 . S
C857 C858 1.373 . S
C857 C859 1.389 . S
C858 H831 0.950 . S
C858 C844 1.377 . S
C858 C857 1.373 . S
C859 C843 1.377 . S
C859 C857 1.389 . S
C859 C860 1.524 . S
C860 C859 1.524 . S
C860 C861 1.397 . S
C860 C865 1.363 . S
C861 H832 0.950 . S
C861 C860 1.397 . S
C861 C862 1.334 . S
C862 H833 0.950 . S
C862 C861 1.334 . S
C862 C863 1.287 . S
C863 C862 1.287 . S
C863 C864 1.524 . S
C863 H866 0.999 . S
C864 H834 0.950 . S
C864 C863 1.524 . S
C864 C865 1.415 . S
C865 H835 0.950 . S
C865 C860 1.363 . S
C865 C864 1.415 . S
H866 C863 0.999 . S
H867 C848 0.913 . S
H868 C886 0.951 1_556 S
H869 C888 0.951 . S
H870 C890 0.950 . S
H871 C891 0.950 . S
H872 C893 0.950 . S
H873 C896 0.950 . S
H874 C897 0.950 . S
H875 C899 0.950 . S
H876 C900 0.950 . S
H877 C901 0.951 . S
H878 C903 0.951 . S
H879 C905 0.950 . S
H880 C906 0.950 . S
H881 C908 0.950 . S
H882 C911 0.950 . S
H883 C912 0.950 . S
H884 C914 0.950 . S
H885 C915 0.950 . S
C886 H868 0.951 1_554 S
C886 C887 1.366 . S
C886 C888 1.388 . S
C887 C886 1.366 . S
C887 C891 1.385 . S
C888 H869 0.951 . S
C888 C886 1.388 . S
C888 C889 1.366 . S
C889 C888 1.366 . S
C889 C890 1.414 . S
C889 C892 1.499 . S
C890 H870 0.950 . S
C890 C889 1.414 . S
C890 C891 1.374 . S
C891 H871 0.950 . S
C891 C887 1.385 . S
C891 C890 1.374 . S
C892 C889 1.499 . S
C892 C893 1.373 . S
C892 C894 1.389 . S
C893 H872 0.950 . S
C893 C892 1.373 . S
C893 C909 1.377 . S
C894 C892 1.389 . S
C894 C895 1.524 . S
C894 C908 1.377 . S
C895 C894 1.524 . S
C895 C896 1.397 . S
C895 C900 1.363 . S
C896 H873 0.950 . S
C896 C895 1.397 . S
C896 C897 1.334 . S
C897 H874 0.950 . S
C897 C896 1.334 . S
C897 C898 1.287 . S
C898 C897 1.287 . S
C898 C899 1.524 . S
C898 H917 0.913 . S
C899 H875 0.950 . S
C899 C898 1.524 . S
C899 C900 1.415 . S
C900 H876 0.950 . S
C900 C895 1.363 . S
C900 C899 1.415 . S
C901 H877 0.951 . S
C901 C902 1.366 . S
C901 C903 1.388 . S
C902 C901 1.366 . S
C902 C906 1.385 . S
C903 H878 0.951 . S
C903 C901 1.388 . S
C903 C904 1.366 . S
C904 C903 1.366 . S
C904 C905 1.414 . S
C904 C907 1.499 . S
C905 H879 0.950 . S
C905 C904 1.414 . S
C905 C906 1.374 . S
C906 H880 0.950 . S
C906 C902 1.385 . S
C906 C905 1.374 . S
C907 C904 1.499 . S
C907 C908 1.373 . S
C907 C909 1.389 . S
C908 H881 0.950 . S
C908 C894 1.377 . S
C908 C907 1.373 . S
C909 C893 1.377 . S
C909 C907 1.389 . S
C909 C910 1.524 . S
C910 C909 1.524 . S
C910 C911 1.397 . S
C910 C915 1.363 . S
C911 H882 0.950 . S
C911 C910 1.397 . S
C911 C912 1.334 . S
C912 H883 0.950 . S
C912 C911 1.334 . S
C912 C913 1.287 . S
C913 C912 1.287 . S
C913 C914 1.524 . S
C913 H916 0.999 . S
C914 H884 0.950 . S
C914 C913 1.524 . S
C914 C915 1.415 . S
C915 H885 0.950 . S
C915 C910 1.363 . S
C915 C914 1.415 . S
H916 C913 0.999 . S
H917 C898 0.913 . S
H918 C936 0.951 . S
H919 C938 0.951 . S
H920 C940 0.950 . S
H921 C941 0.950 . S
H922 C943 0.950 . S
H923 C946 0.950 . S
H924 C947 0.950 . S
H925 C949 0.950 . S
H926 C950 0.950 . S
H927 C951 0.951 . S
H928 C953 0.951 . S
H929 C955 0.950 . S
H930 C956 0.950 . S
H931 C958 0.950 . S
H932 C961 0.950 . S
H933 C962 0.950 . S
H934 C964 0.950 . S
H935 C965 0.950 . S
C936 H918 0.951 . S
C936 C937 1.366 . S
C936 C938 1.388 . S
C937 C936 1.366 . S
C937 C941 1.385 . S
C938 H919 0.951 . S
C938 C936 1.388 . S
C938 C939 1.366 . S
C939 C938 1.366 . S
C939 C940 1.414 . S
C939 C942 1.499 . S
C940 H920 0.950 . S
C940 C939 1.414 . S
C940 C941 1.374 . S
C941 H921 0.950 . S
C941 C937 1.385 . S
C941 C940 1.374 . S
C942 C939 1.499 . S
C942 C943 1.373 . S
C942 C944 1.389 . S
C943 H922 0.950 . S
C943 C942 1.373 . S
C943 C959 1.377 . S
C944 C942 1.389 . S
C944 C945 1.524 . S
C944 C958 1.377 . S
C945 C944 1.524 . S
C945 C946 1.397 . S
C945 C950 1.363 . S
C946 H923 0.950 . S
C946 C945 1.397 . S
C946 C947 1.334 . S
C947 H924 0.950 . S
C947 C946 1.334 . S
C947 C948 1.287 . S
C948 C947 1.287 . S
C948 C949 1.524 . S
C948 H967 0.913 . S
C949 H925 0.950 . S
C949 C948 1.524 . S
C949 C950 1.415 . S
C950 H926 0.950 . S
C950 C945 1.363 . S
C950 C949 1.415 . S
C951 H927 0.951 . S
C951 C952 1.366 . S
C951 C953 1.388 . S
C952 C951 1.366 . S
C952 C956 1.385 . S
C953 H928 0.951 . S
C953 C951 1.388 . S
C953 C954 1.366 . S
C954 C953 1.366 . S
C954 C955 1.414 . S
C954 C957 1.499 . S
C955 H929 0.950 . S
C955 C954 1.414 . S
C955 C956 1.374 . S
C956 H930 0.950 . S
C956 C952 1.385 . S
C956 C955 1.374 . S
C957 C954 1.499 . S
C957 C958 1.373 . S
C957 C959 1.389 . S
C958 H931 0.950 . S
C958 C944 1.377 . S
C958 C957 1.373 . S
C959 C943 1.377 . S
C959 C957 1.389 . S
C959 C960 1.524 . S
C960 C959 1.524 . S
C960 C961 1.397 . S
C960 C965 1.363 . S
C961 H932 0.950 . S
C961 C960 1.397 . S
C961 C962 1.334 . S
C962 H933 0.950 . S
C962 C961 1.334 . S
C962 C963 1.287 . S
C963 C962 1.287 . S
C963 C964 1.524 . S
C963 H966 0.999 . S
C964 H934 0.950 . S
C964 C963 1.524 . S
C964 C965 1.415 . S
C965 H935 0.950 . S
C965 C960 1.363 . S
C965 C964 1.415 . S
H966 C963 0.999 . S
H967 C948 0.913 . S
H968 C986 0.951 . S
H969 C988 0.951 . S
H970 C990 0.950 . S
H971 C991 0.950 . S
H972 C993 0.950 . S
H973 C996 0.950 . S
H974 C997 0.950 . S
H975 C999 0.950 . S
H976 C1000 0.950 . S
H977 C1001 0.951 1_554 S
H978 C1003 0.951 . S
H979 C1005 0.950 . S
H980 C1006 0.950 . S
H981 C1008 0.950 . S
H982 C1011 0.950 . S
H983 C1012 0.950 1_554 S
H984 C1014 0.950 . S
H985 C1015 0.950 . S
C986 H968 0.951 . S
C986 C987 1.366 . S
C986 C988 1.388 . S
C987 C986 1.366 . S
C987 C991 1.385 . S
C988 H969 0.951 . S
C988 C986 1.388 . S
C988 C989 1.366 . S
C989 C988 1.366 . S
C989 C990 1.414 . S
C989 C992 1.499 . S
C990 H970 0.950 . S
C990 C989 1.414 . S
C990 C991 1.374 . S
C991 H971 0.950 . S
C991 C987 1.385 . S
C991 C990 1.374 . S
C992 C989 1.499 . S
C992 C993 1.373 . S
C992 C994 1.389 . S
C993 H972 0.950 . S
C993 C992 1.373 . S
C993 C1009 1.377 . S
C994 C992 1.389 . S
C994 C995 1.524 . S
C994 C1008 1.377 . S
C995 C994 1.524 . S
C995 C996 1.397 . S
C995 C1000 1.363 . S
C996 H973 0.950 . S
C996 C995 1.397 . S
C996 C997 1.334 . S
C997 H974 0.950 . S
C997 C996 1.334 . S
C997 C998 1.287 . S
C998 C997 1.287 . S
C998 C999 1.524 . S
C998 H1017 0.913 . S
C999 H975 0.950 . S
C999 C998 1.524 . S
C999 C1000 1.415 . S
C1000 H976 0.950 . S
C1000 C995 1.363 . S
C1000 C999 1.415 . S
C1001 H977 0.951 1_556 S
C1001 C1002 1.366 . S
C1001 C1003 1.388 . S
C1002 C1001 1.366 . S
C1002 C1006 1.385 . S
C1003 H978 0.951 . S
C1003 C1001 1.388 . S
C1003 C1004 1.366 . S
C1004 C1003 1.366 . S
C1004 C1005 1.414 . S
C1004 C1007 1.499 . S
C1005 H979 0.950 . S
C1005 C1004 1.414 . S
C1005 C1006 1.374 . S
C1006 H980 0.950 . S
C1006 C1002 1.385 . S
C1006 C1005 1.374 . S
C1007 C1004 1.499 . S
C1007 C1008 1.373 . S
C1007 C1009 1.389 . S
C1008 H981 0.950 . S
C1008 C994 1.377 . S
C1008 C1007 1.373 . S
C1009 C993 1.377 . S
C1009 C1007 1.389 . S
C1009 C1010 1.524 . S
C1010 C1009 1.524 . S
C1010 C1011 1.397 . S
C1010 C1015 1.363 . S
C1011 H982 0.950 . S
C1011 C1010 1.397 . S
C1011 C1012 1.334 . S
C1012 H983 0.950 1_556 S
C1012 C1011 1.334 . S
C1012 C1013 1.287 1_556 S
C1013 C1012 1.287 1_554 S
C1013 C1014 1.524 1_554 S
C1013 H1016 0.999 . S
C1014 H984 0.950 . S
C1014 C1013 1.524 1_556 S
C1014 C1015 1.415 . S
C1015 H985 0.950 . S
C1015 C1010 1.363 . S
C1015 C1014 1.415 . S
H1016 C1013 0.999 . S
H1017 C998 0.913 . S
H1018 C1036 0.951 . S
H1019 C1038 0.951 . S
H1020 C1040 0.950 . S
H1021 C1041 0.950 . S
H1022 C1043 0.950 . S
H1023 C1046 0.950 . S
H1024 C1047 0.950 . S
H1025 C1049 0.950 . S
H1026 C1050 0.950 . S
H1027 C1051 0.951 . S
H1028 C1053 0.951 . S
H1029 C1055 0.950 . S
H1030 C1056 0.950 . S
H1031 C1058 0.950 . S
H1032 C1061 0.950 . S
H1033 C1062 0.950 . S
H1034 C1064 0.950 . S
H1035 C1065 0.950 . S
C1036 H1018 0.951 . S
C1036 C1037 1.366 . S
C1036 C1038 1.388 . S
C1037 C1036 1.366 . S
C1037 C1041 1.385 . S
C1038 H1019 0.951 . S
C1038 C1036 1.388 . S
C1038 C1039 1.366 . S
C1039 C1038 1.366 . S
C1039 C1040 1.414 . S
C1039 C1042 1.499 . S
C1040 H1020 0.950 . S
C1040 C1039 1.414 . S
C1040 C1041 1.374 . S
C1041 H1021 0.950 . S
C1041 C1037 1.385 . S
C1041 C1040 1.374 . S
C1042 C1039 1.499 . S
C1042 C1043 1.373 . S
C1042 C1044 1.389 . S
C1043 H1022 0.950 . S
C1043 C1042 1.373 . S
C1043 C1059 1.377 . S
C1044 C1042 1.389 . S
C1044 C1045 1.524 . S
C1044 C1058 1.377 . S
C1045 C1044 1.524 . S
C1045 C1046 1.397 . S
C1045 C1050 1.363 . S
C1046 H1023 0.950 . S
C1046 C1045 1.397 . S
C1046 C1047 1.334 . S
C1047 H1024 0.950 . S
C1047 C1046 1.334 . S
C1047 C1048 1.287 . S
C1048 C1047 1.287 . S
C1048 C1049 1.524 . S
C1048 H1067 0.913 . S
C1049 H1025 0.950 . S
C1049 C1048 1.524 . S
C1049 C1050 1.415 . S
C1050 H1026 0.950 . S
C1050 C1045 1.363 . S
C1050 C1049 1.415 . S
C1051 H1027 0.951 . S
C1051 C1052 1.366 . S
C1051 C1053 1.388 . S
C1052 C1051 1.366 . S
C1052 C1056 1.385 . S
C1053 H1028 0.951 . S
C1053 C1051 1.388 . S
C1053 C1054 1.366 . S
C1054 C1053 1.366 . S
C1054 C1055 1.414 . S
C1054 C1057 1.499 . S
C1055 H1029 0.950 . S
C1055 C1054 1.414 . S
C1055 C1056 1.374 . S
C1056 H1030 0.950 . S
C1056 C1052 1.385 . S
C1056 C1055 1.374 . S
C1057 C1054 1.499 . S
C1057 C1058 1.373 . S
C1057 C1059 1.389 . S
C1058 H1031 0.950 . S
C1058 C1044 1.377 . S
C1058 C1057 1.373 . S
C1059 C1043 1.377 . S
C1059 C1057 1.389 . S
C1059 C1060 1.524 . S
C1060 C1059 1.524 . S
C1060 C1061 1.397 . S
C1060 C1065 1.363 . S
C1061 H1032 0.950 . S
C1061 C1060 1.397 . S
C1061 C1062 1.334 . S
C1062 H1033 0.950 . S
C1062 C1061 1.334 . S
C1062 C1063 1.287 . S
C1063 C1062 1.287 . S
C1063 C1064 1.524 . S
C1063 H1066 0.999 . S
C1064 H1034 0.950 . S
C1064 C1063 1.524 . S
C1064 C1065 1.415 . S
C1065 H1035 0.950 . S
C1065 C1060 1.363 . S
C1065 C1064 1.415 . S
H1066 C1063 0.999 . S
H1067 C1048 0.913 . S
H1068 C1086 0.951 . S
H1069 C1088 0.951 . S
H1070 C1090 0.950 . S
H1071 C1091 0.950 . S
H1072 C1093 0.950 . S
H1073 C1096 0.950 . S
H1074 C1097 0.950 . S
H1075 C1099 0.950 . S
H1076 C1100 0.950 . S
H1077 C1101 0.951 . S
H1078 C1103 0.951 . S
H1079 C1105 0.950 . S
H1080 C1106 0.950 . S
H1081 C1108 0.950 . S
H1082 C1111 0.950 . S
H1083 C1112 0.950 . S
H1084 C1114 0.950 . S
H1085 C1115 0.950 . S
C1086 H1068 0.951 . S
C1086 C1087 1.366 . S
C1086 C1088 1.388 . S
C1087 C1086 1.366 . S
C1087 C1091 1.385 . S
C1088 H1069 0.951 . S
C1088 C1086 1.388 . S
C1088 C1089 1.366 . S
C1089 C1088 1.366 . S
C1089 C1090 1.414 . S
C1089 C1092 1.499 . S
C1090 H1070 0.950 . S
C1090 C1089 1.414 . S
C1090 C1091 1.374 . S
C1091 H1071 0.950 . S
C1091 C1087 1.385 . S
C1091 C1090 1.374 . S
C1092 C1089 1.499 . S
C1092 C1093 1.373 . S
C1092 C1094 1.389 . S
C1093 H1072 0.950 . S
C1093 C1092 1.373 . S
C1093 C1109 1.377 . S
C1094 C1092 1.389 . S
C1094 C1095 1.524 . S
C1094 C1108 1.377 . S
C1095 C1094 1.524 . S
C1095 C1096 1.397 . S
C1095 C1100 1.363 . S
C1096 H1073 0.950 . S
C1096 C1095 1.397 . S
C1096 C1097 1.334 . S
C1097 H1074 0.950 . S
C1097 C1096 1.334 . S
C1097 C1098 1.287 . S
C1098 C1097 1.287 . S
C1098 C1099 1.524 . S
C1098 H1117 0.913 . S
C1099 H1075 0.950 . S
C1099 C1098 1.524 . S
C1099 C1100 1.415 . S
C1100 H1076 0.950 . S
C1100 C1095 1.363 . S
C1100 C1099 1.415 . S
C1101 H1077 0.951 . S
C1101 C1102 1.366 . S
C1101 C1103 1.388 . S
C1102 C1101 1.366 . S
C1102 C1106 1.385 . S
C1103 H1078 0.951 . S
C1103 C1101 1.388 . S
C1103 C1104 1.366 . S
C1104 C1103 1.366 . S
C1104 C1105 1.414 . S
C1104 C1107 1.499 . S
C1105 H1079 0.950 . S
C1105 C1104 1.414 . S
C1105 C1106 1.374 . S
C1106 H1080 0.950 . S
C1106 C1102 1.385 . S
C1106 C1105 1.374 . S
C1107 C1104 1.499 . S
C1107 C1108 1.373 . S
C1107 C1109 1.389 . S
C1108 H1081 0.950 . S
C1108 C1094 1.377 . S
C1108 C1107 1.373 . S
C1109 C1093 1.377 . S
C1109 C1107 1.389 . S
C1109 C1110 1.524 . S
C1110 C1109 1.524 . S
C1110 C1111 1.397 . S
C1110 C1115 1.363 . S
C1111 H1082 0.950 . S
C1111 C1110 1.397 . S
C1111 C1112 1.334 . S
C1112 H1083 0.950 . S
C1112 C1111 1.334 . S
C1112 C1113 1.287 . S
C1113 C1112 1.287 . S
C1113 C1114 1.524 . S
C1113 H1116 0.999 . S
C1114 H1084 0.950 . S
C1114 C1113 1.524 . S
C1114 C1115 1.415 . S
C1115 H1085 0.950 . S
C1115 C1110 1.363 . S
C1115 C1114 1.415 . S
H1116 C1113 0.999 . S
H1117 C1098 0.913 . S
H1118 C1136 0.951 . S
H1119 C1138 0.951 . S
H1120 C1140 0.950 . S
H1121 C1141 0.950 . S
H1122 C1143 0.950 . S
H1123 C1146 0.950 . S
H1124 C1147 0.950 . S
H1125 C1149 0.950 . S
H1126 C1150 0.950 . S
H1127 C1151 0.951 . S
H1128 C1153 0.951 . S
H1129 C1155 0.950 . S
H1130 C1156 0.950 . S
H1131 C1158 0.950 . S
H1132 C1161 0.950 . S
H1133 C1162 0.950 . S
H1134 C1164 0.950 . S
H1135 C1165 0.950 . S
C1136 H1118 0.951 . S
C1136 C1137 1.366 . S
C1136 C1138 1.388 . S
C1137 C1136 1.366 . S
C1137 C1141 1.385 . S
C1138 H1119 0.951 . S
C1138 C1136 1.388 . S
C1138 C1139 1.366 . S
C1139 C1138 1.366 . S
C1139 C1140 1.414 . S
C1139 C1142 1.499 . S
C1140 H1120 0.950 . S
C1140 C1139 1.414 . S
C1140 C1141 1.374 . S
C1141 H1121 0.950 . S
C1141 C1137 1.385 . S
C1141 C1140 1.374 . S
C1142 C1139 1.499 . S
C1142 C1143 1.373 . S
C1142 C1144 1.389 . S
C1143 H1122 0.950 . S
C1143 C1142 1.373 . S
C1143 C1159 1.377 . S
C1144 C1142 1.389 . S
C1144 C1145 1.524 . S
C1144 C1158 1.377 . S
C1145 C1144 1.524 . S
C1145 C1146 1.397 . S
C1145 C1150 1.363 . S
C1146 H1123 0.950 . S
C1146 C1145 1.397 . S
C1146 C1147 1.334 . S
C1147 H1124 0.950 . S
C1147 C1146 1.334 . S
C1147 C1148 1.287 . S
C1148 C1147 1.287 . S
C1148 C1149 1.524 . S
C1148 H1167 0.913 . S
C1149 H1125 0.950 . S
C1149 C1148 1.524 . S
C1149 C1150 1.415 . S
C1150 H1126 0.950 . S
C1150 C1145 1.363 . S
C1150 C1149 1.415 . S
C1151 H1127 0.951 . S
C1151 C1152 1.366 . S
C1151 C1153 1.388 . S
C1152 C1151 1.366 . S
C1152 C1156 1.385 . S
C1153 H1128 0.951 . S
C1153 C1151 1.388 . S
C1153 C1154 1.366 . S
C1154 C1153 1.366 . S
C1154 C1155 1.414 . S
C1154 C1157 1.499 . S
C1155 H1129 0.950 . S
C1155 C1154 1.414 . S
C1155 C1156 1.374 . S
C1156 H1130 0.950 . S
C1156 C1152 1.385 . S
C1156 C1155 1.374 . S
C1157 C1154 1.499 . S
C1157 C1158 1.373 . S
C1157 C1159 1.389 . S
C1158 H1131 0.950 . S
C1158 C1144 1.377 . S
C1158 C1157 1.373 . S
C1159 C1143 1.377 . S
C1159 C1157 1.389 . S
C1159 C1160 1.524 . S
C1160 C1159 1.524 . S
C1160 C1161 1.397 . S
C1160 C1165 1.363 . S
C1161 H1132 0.950 . S
C1161 C1160 1.397 . S
C1161 C1162 1.334 . S
C1162 H1133 0.950 . S
C1162 C1161 1.334 . S
C1162 C1163 1.287 . S
C1163 C1162 1.287 . S
C1163 C1164 1.524 . S
C1163 H1166 0.999 . S
C1164 H1134 0.950 . S
C1164 C1163 1.524 . S
C1164 C1165 1.415 . S
C1165 H1135 0.950 . S
C1165 C1160 1.363 . S
C1165 C1164 1.415 . S
H1166 C1163 0.999 . S
H1167 C1148 0.913 . S
H1168 C1186 0.951 . S
H1169 C1188 0.951 . S
H1170 C1190 0.950 . S
H1171 C1191 0.950 . S
H1172 C1193 0.950 . S
H1173 C1196 0.950 . S
H1174 C1197 0.950 . S
H1175 C1199 0.950 . S
H1176 C1200 0.950 . S
H1177 C1201 0.951 . S
H1178 C1203 0.951 . S
H1179 C1205 0.950 . S
H1180 C1206 0.950 . S
H1181 C1208 0.950 . S
H1182 C1211 0.950 . S
H1183 C1212 0.950 . S
H1184 C1214 0.950 . S
H1185 C1215 0.950 . S
C1186 H1168 0.951 . S
C1186 C1187 1.366 . S
C1186 C1188 1.388 . S
C1187 C1186 1.366 . S
C1187 C1191 1.385 1_556 S
C1188 H1169 0.951 . S
C1188 C1186 1.388 . S
C1188 C1189 1.366 . S
C1189 C1188 1.366 . S
C1189 C1190 1.414 1_556 S
C1189 C1192 1.499 . S
C1190 H1170 0.950 . S
C1190 C1189 1.414 1_554 S
C1190 C1191 1.374 . S
C1191 H1171 0.950 . S
C1191 C1187 1.385 1_554 S
C1191 C1190 1.374 . S
C1192 C1189 1.499 . S
C1192 C1193 1.373 1_556 S
C1192 C1194 1.389 . S
C1193 H1172 0.950 . S
C1193 C1192 1.373 1_554 S
C1193 C1209 1.377 . S
C1194 C1192 1.389 . S
C1194 C1195 1.524 . S
C1194 C1208 1.377 . S
C1195 C1194 1.524 . S
C1195 C1196 1.397 . S
C1195 C1200 1.363 . S
C1196 H1173 0.950 . S
C1196 C1195 1.397 . S
C1196 C1197 1.334 . S
C1197 H1174 0.950 . S
C1197 C1196 1.334 . S
C1197 C1198 1.287 . S
C1198 C1197 1.287 . S
C1198 C1199 1.524 . S
C1198 H1217 0.913 . S
C1199 H1175 0.950 . S
C1199 C1198 1.524 . S
C1199 C1200 1.415 . S
C1200 H1176 0.950 . S
C1200 C1195 1.363 . S
C1200 C1199 1.415 . S
C1201 H1177 0.951 . S
C1201 C1202 1.366 . S
C1201 C1203 1.388 . S
C1202 C1201 1.366 . S
C1202 C1206 1.385 1_554 S
C1203 H1178 0.951 . S
C1203 C1201 1.388 . S
C1203 C1204 1.366 . S
C1204 C1203 1.366 . S
C1204 C1205 1.414 1_554 S
C1204 C1207 1.499 . S
C1205 H1179 0.950 . S
C1205 C1204 1.414 1_556 S
C1205 C1206 1.374 . S
C1206 H1180 0.950 . S
C1206 C1202 1.385 1_556 S
C1206 C1205 1.374 . S
C1207 C1204 1.499 . S
C1207 C1208 1.373 1_554 S
C1207 C1209 1.389 . S
C1208 H1181 0.950 . S
C1208 C1194 1.377 . S
C1208 C1207 1.373 1_556 S
C1209 C1193 1.377 . S
C1209 C1207 1.389 . S
C1209 C1210 1.524 . S
C1210 C1209 1.524 . S
C1210 C1211 1.397 . S
C1210 C1215 1.363 . S
C1211 H1182 0.950 . S
C1211 C1210 1.397 . S
C1211 C1212 1.334 . S
C1212 H1183 0.950 . S
C1212 C1211 1.334 . S
C1212 C1213 1.287 . S
C1213 C1212 1.287 . S
C1213 C1214 1.524 . S
C1213 H1216 0.999 . S
C1214 H1184 0.950 . S
C1214 C1213 1.524 . S
C1214 C1215 1.415 . S
C1215 H1185 0.950 . S
C1215 C1210 1.363 . S
C1215 C1214 1.415 . S
H1216 C1213 0.999 . S
H1217 C1198 0.913 . S
H1218 C1236 0.951 . S
H1219 C1238 0.951 . S
H1220 C1240 0.950 . S
H1221 C1241 0.950 . S
H1222 C1243 0.950 . S
H1223 C1246 0.950 . S
H1224 C1247 0.950 . S
H1225 C1249 0.950 . S
H1226 C1250 0.950 . S
H1227 C1251 0.951 . S
H1228 C1253 0.951 . S
H1229 C1255 0.950 . S
H1230 C1256 0.950 . S
H1231 C1258 0.950 . S
H1232 C1261 0.950 . S
H1233 C1262 0.950 . S
H1234 C1264 0.950 . S
H1235 C1265 0.950 . S
C1236 H1218 0.951 . S
C1236 C1237 1.366 . S
C1236 C1238 1.388 . S
C1237 C1236 1.366 . S
C1237 C1241 1.385 . S
C1238 H1219 0.951 . S
C1238 C1236 1.388 . S
C1238 C1239 1.366 . S
C1239 C1238 1.366 . S
C1239 C1240 1.414 . S
C1239 C1242 1.499 . S
C1240 H1220 0.950 . S
C1240 C1239 1.414 . S
C1240 C1241 1.374 . S
C1241 H1221 0.950 . S
C1241 C1237 1.385 . S
C1241 C1240 1.374 . S
C1242 C1239 1.499 . S
C1242 C1243 1.373 . S
C1242 C1244 1.389 . S
C1243 H1222 0.950 . S
C1243 C1242 1.373 . S
C1243 C1259 1.377 . S
C1244 C1242 1.389 . S
C1244 C1245 1.524 . S
C1244 C1258 1.377 . S
C1245 C1244 1.524 . S
C1245 C1246 1.397 . S
C1245 C1250 1.363 . S
C1246 H1223 0.950 . S
C1246 C1245 1.397 . S
C1246 C1247 1.334 . S
C1247 H1224 0.950 . S
C1247 C1246 1.334 . S
C1247 C1248 1.287 . S
C1248 C1247 1.287 . S
C1248 C1249 1.524 . S
C1248 H1267 0.913 . S
C1249 H1225 0.950 . S
C1249 C1248 1.524 . S
C1249 C1250 1.415 . S
C1250 H1226 0.950 . S
C1250 C1245 1.363 . S
C1250 C1249 1.415 . S
C1251 H1227 0.951 . S
C1251 C1252 1.366 . S
C1251 C1253 1.388 . S
C1252 C1251 1.366 . S
C1252 C1256 1.385 . S
C1253 H1228 0.951 . S
C1253 C1251 1.388 . S
C1253 C1254 1.366 . S
C1254 C1253 1.366 . S
C1254 C1255 1.414 . S
C1254 C1257 1.499 . S
C1255 H1229 0.950 . S
C1255 C1254 1.414 . S
C1255 C1256 1.374 . S
C1256 H1230 0.950 . S
C1256 C1252 1.385 . S
C1256 C1255 1.374 . S
C1257 C1254 1.499 . S
C1257 C1258 1.373 . S
C1257 C1259 1.389 . S
C1258 H1231 0.950 . S
C1258 C1244 1.377 . S
C1258 C1257 1.373 . S
C1259 C1243 1.377 . S
C1259 C1257 1.389 . S
C1259 C1260 1.524 . S
C1260 C1259 1.524 . S
C1260 C1261 1.397 . S
C1260 C1265 1.363 . S
C1261 H1232 0.950 . S
C1261 C1260 1.397 . S
C1261 C1262 1.334 . S
C1262 H1233 0.950 . S
C1262 C1261 1.334 . S
C1262 C1263 1.287 . S
C1263 C1262 1.287 . S
C1263 C1264 1.524 . S
C1263 H1266 0.999 . S
C1264 H1234 0.950 . S
C1264 C1263 1.524 . S
C1264 C1265 1.415 . S
C1265 H1235 0.950 . S
C1265 C1260 1.363 . S
C1265 C1264 1.415 . S
H1266 C1263 0.999 . S
H1267 C1248 0.913 . S
H1268 C1286 0.951 . S
H1269 C1288 0.951 . S
H1270 C1290 0.950 . S
H1271 C1291 0.950 . S
H1272 C1293 0.950 . S
H1273 C1296 0.950 . S
H1274 C1297 0.950 . S
H1275 C1299 0.950 . S
H1276 C1300 0.950 . S
H1277 C1301 0.951 . S
H1278 C1303 0.951 . S
H1279 C1305 0.950 . S
H1280 C1306 0.950 . S
H1281 C1308 0.950 . S
H1282 C1311 0.950 . S
H1283 C1312 0.950 . S
H1284 C1314 0.950 . S
H1285 C1315 0.950 . S
C1286 H1268 0.951 . S
C1286 C1287 1.366 . S
C1286 C1288 1.388 . S
C1287 C1286 1.366 . S
C1287 C1291 1.385 . S
C1288 H1269 0.951 . S
C1288 C1286 1.388 . S
C1288 C1289 1.366 . S
C1289 C1288 1.366 . S
C1289 C1290 1.414 . S
C1289 C1292 1.499 . S
C1290 H1270 0.950 . S
C1290 C1289 1.414 . S
C1290 C1291 1.374 . S
C1291 H1271 0.950 . S
C1291 C1287 1.385 . S
C1291 C1290 1.374 . S
C1292 C1289 1.499 . S
C1292 C1293 1.373 . S
C1292 C1294 1.389 . S
C1293 H1272 0.950 . S
C1293 C1292 1.373 . S
C1293 C1309 1.377 . S
C1294 C1292 1.389 . S
C1294 C1295 1.524 . S
C1294 C1308 1.377 . S
C1295 C1294 1.524 . S
C1295 C1296 1.397 . S
C1295 C1300 1.363 . S
C1296 H1273 0.950 . S
C1296 C1295 1.397 . S
C1296 C1297 1.334 . S
C1297 H1274 0.950 . S
C1297 C1296 1.334 . S
C1297 C1298 1.287 . S
C1298 C1297 1.287 . S
C1298 C1299 1.524 . S
C1298 H1317 0.913 . S
C1299 H1275 0.950 . S
C1299 C1298 1.524 . S
C1299 C1300 1.415 . S
C1300 H1276 0.950 . S
C1300 C1295 1.363 . S
C1300 C1299 1.415 . S
C1301 H1277 0.951 . S
C1301 C1302 1.366 . S
C1301 C1303 1.388 . S
C1302 C1301 1.366 . S
C1302 C1306 1.385 . S
C1303 H1278 0.951 . S
C1303 C1301 1.388 . S
C1303 C1304 1.366 . S
C1304 C1303 1.366 . S
C1304 C1305 1.414 . S
C1304 C1307 1.499 . S
C1305 H1279 0.950 . S
C1305 C1304 1.414 . S
C1305 C1306 1.374 . S
C1306 H1280 0.950 . S
C1306 C1302 1.385 . S
C1306 C1305 1.374 . S
C1307 C1304 1.499 . S
C1307 C1308 1.373 . S
C1307 C1309 1.389 . S
C1308 H1281 0.950 . S
C1308 C1294 1.377 . S
C1308 C1307 1.373 . S
C1309 C1293 1.377 . S
C1309 C1307 1.389 . S
C1309 C1310 1.524 . S
C1310 C1309 1.524 . S
C1310 C1311 1.397 . S
C1310 C1315 1.363 . S
C1311 H1282 0.950 . S
C1311 C1310 1.397 . S
C1311 C1312 1.334 . S
C1312 H1283 0.950 . S
C1312 C1311 1.334 . S
C1312 C1313 1.287 . S
C1313 C1312 1.287 . S
C1313 C1314 1.524 . S
C1313 H1316 0.999 . S
C1314 H1284 0.950 . S
C1314 C1313 1.524 . S
C1314 C1315 1.415 . S
C1315 H1285 0.950 . S
C1315 C1310 1.363 . S
C1315 C1314 1.415 . S
H1316 C1313 0.999 . S
H1317 C1298 0.913 . S
H1318 C1336 0.951 . S
H1319 C1338 0.951 . S
H1320 C1340 0.950 . S
H1321 C1341 0.950 . S
H1322 C1343 0.950 . S
H1323 C1346 0.950 . S
H1324 C1347 0.950 . S
H1325 C1349 0.950 . S
H1326 C1350 0.950 . S
H1327 C1351 0.951 . S
H1328 C1353 0.951 . S
H1329 C1355 0.950 . S
H1330 C1356 0.950 . S
H1331 C1358 0.950 . S
H1332 C1361 0.950 . S
H1333 C1362 0.950 . S
H1334 C1364 0.950 . S
H1335 C1365 0.950 . S
C1336 H1318 0.951 . S
C1336 C1337 1.366 . S
C1336 C1338 1.388 . S
C1337 C1336 1.366 . S
C1337 C1341 1.385 1_554 S
C1338 H1319 0.951 . S
C1338 C1336 1.388 . S
C1338 C1339 1.366 . S
C1339 C1338 1.366 . S
C1339 C1340 1.414 1_554 S
C1339 C1342 1.499 . S
C1340 H1320 0.950 . S
C1340 C1339 1.414 1_556 S
C1340 C1341 1.374 . S
C1341 H1321 0.950 . S
C1341 C1337 1.385 1_556 S
C1341 C1340 1.374 . S
C1342 C1339 1.499 . S
C1342 C1343 1.373 1_554 S
C1342 C1344 1.389 . S
C1343 H1322 0.950 . S
C1343 C1342 1.373 1_556 S
C1343 C1359 1.377 . S
C1344 C1342 1.389 . S
C1344 C1345 1.524 . S
C1344 C1358 1.377 . S
C1345 C1344 1.524 . S
C1345 C1346 1.397 1_554 S
C1345 C1350 1.363 . S
C1346 H1323 0.950 . S
C1346 C1345 1.397 1_556 S
C1346 C1347 1.334 . S
C1347 H1324 0.950 . S
C1347 C1346 1.334 . S
C1347 C1348 1.287 . S
C1348 C1347 1.287 . S
C1348 C1349 1.524 1_556 S
C1348 H1367 0.913 . S
C1349 H1325 0.950 . S
C1349 C1348 1.524 1_554 S
C1349 C1350 1.415 . S
C1350 H1326 0.950 . S
C1350 C1345 1.363 . S
C1350 C1349 1.415 . S
C1351 H1327 0.951 . S
C1351 C1352 1.366 . S
C1351 C1353 1.388 . S
C1352 C1351 1.366 . S
C1352 C1356 1.385 1_556 S
C1353 H1328 0.951 . S
C1353 C1351 1.388 . S
C1353 C1354 1.366 . S
C1354 C1353 1.366 . S
C1354 C1355 1.414 1_556 S
C1354 C1357 1.499 . S
C1355 H1329 0.950 . S
C1355 C1354 1.414 1_554 S
C1355 C1356 1.374 . S
C1356 H1330 0.950 . S
C1356 C1352 1.385 1_554 S
C1356 C1355 1.374 . S
C1357 C1354 1.499 . S
C1357 C1358 1.373 1_556 S
C1357 C1359 1.389 . S
C1358 H1331 0.950 . S
C1358 C1344 1.377 . S
C1358 C1357 1.373 1_554 S
C1359 C1343 1.377 . S
C1359 C1357 1.389 . S
C1359 C1360 1.524 . S
C1360 C1359 1.524 . S
C1360 C1361 1.397 1_556 S
C1360 C1365 1.363 . S
C1361 H1332 0.950 . S
C1361 C1360 1.397 1_554 S
C1361 C1362 1.334 . S
C1362 H1333 0.950 . S
C1362 C1361 1.334 . S
C1362 C1363 1.287 . S
C1363 C1362 1.287 . S
C1363 C1364 1.524 1_554 S
C1363 H1366 0.999 . S
C1364 H1334 0.950 . S
C1364 C1363 1.524 1_556 S
C1364 C1365 1.415 . S
C1365 H1335 0.950 . S
C1365 C1360 1.363 . S
C1365 C1364 1.415 . S
H1366 C1363 0.999 . S
H1367 C1348 0.913 . S
C187 C3 1.285 . S
C202 C129 1.286 . S
C237 C17 1.286 . S
C252 C143 1.285 . S
C287 C31 1.286 . S
C302 C157 1.285 . S
C337 C45 1.286 . S
C352 C87 1.286 . S
C387 C101 1.286 . S
C402 C59 1.285 . S
C437 C115 1.285 . S
C452 C73 1.285 . S
C487 C148 1.857 . S
C502 C8 1.857 . S
C537 C22 1.857 . S
C552 C162 1.857 . S
C587 C36 1.857 . S
C602 C92 1.857 . S
C637 C50 1.857 . S
C652 C106 1.857 . S
C687 C64 1.857 . S
C702 C120 1.857 . S
C737 C78 1.857 . S
C752 C134 1.857 . S
C787 C147 0.748 . S
C802 C7 0.748 . S
C837 C21 0.749 . S
C852 C161 0.749 . S
C887 C35 0.749 . S
C902 C91 0.749 . S
C937 C49 0.749 . S
C952 C105 0.749 . S
C987 C63 0.748 . S
C1002 C119 0.748 . S
C1037 C77 0.750 . S
C1052 C133 0.750 . S
C1087 C9 1.685 . S
C1102 C93 1.685 . S
C1137 C107 1.684 . S
C1152 C23 1.684 . S
C1187 C37 1.684 . S
C1202 C121 1.684 . S
C1237 C51 1.685 . S
C1252 C135 1.685 . S
C1287 C65 1.684 . S
C1302 C149 1.684 . S
C1337 C163 1.684 . S
C1352 C79 1.684 . S
