# Generated by pormake.
# Topology uow, (4)-cn, num edge types: 1
# Building blocks:
#     Node 0, Type 0, BuildingBlock: ICAMEG_clean_sbu_1, # of connection points: 4
#     Node 1, Type 0, BuildingBlock: ICAMEG_clean_sbu_1, # of connection points: 4
#     Node 2, Type 0, BuildingBlock: ICAMEG_clean_sbu_1, # of connection points: 4
#     Node 3, Type 0, BuildingBlock: ICAMEG_clean_sbu_1, # of connection points: 4
#     Node 4, Type 0, BuildingBlock: ICAMEG_clean_sbu_1, # of connection points: 4
#     Node 5, Type 0, BuildingBlock: ICAMEG_clean_sbu_1, # of connection points: 4
#     Node 6, Type 0, BuildingBlock: ICAMEG_clean_sbu_1, # of connection points: 4
#     Node 7, Type 0, BuildingBlock: ICAMEG_clean_sbu_1, # of connection points: 4
#     Node 8, Type 0, BuildingBlock: ICAMEG_clean_sbu_1, # of connection points: 4
#     Node 9, Type 0, BuildingBlock: ICAMEG_clean_sbu_1, # of connection points: 4
#     Node 10, Type 0, BuildingBlock: ICAMEG_clean_sbu_1, # of connection points: 4
#     Node 11, Type 0, BuildingBlock: ICAMEG_clean_sbu_1, # of connection points: 4
#     Node 12, Type 0, BuildingBlock: ICAMEG_clean_sbu_1, # of connection points: 4
#     Node 13, Type 0, BuildingBlock: ICAMEG_clean_sbu_1, # of connection points: 4
#     Node 14, Type 0, BuildingBlock: ICAMEG_clean_sbu_1, # of connection points: 4
#     Node 15, Type 0, BuildingBlock: ICAMEG_clean_sbu_1, # of connection points: 4
#     Node 16, Type 0, BuildingBlock: ICAMEG_clean_sbu_1, # of connection points: 4
#     Node 17, Type 0, BuildingBlock: ICAMEG_clean_sbu_1, # of connection points: 4
#     Node 18, Type 0, BuildingBlock: ICAMEG_clean_sbu_1, # of connection points: 4
#     Node 19, Type 0, BuildingBlock: ICAMEG_clean_sbu_1, # of connection points: 4
#     Node 20, Type 0, BuildingBlock: ICAMEG_clean_sbu_1, # of connection points: 4
#     Node 21, Type 0, BuildingBlock: ICAMEG_clean_sbu_1, # of connection points: 4
#     Node 22, Type 0, BuildingBlock: ICAMEG_clean_sbu_1, # of connection points: 4
#     Node 23, Type 0, BuildingBlock: ICAMEG_clean_sbu_1, # of connection points: 4
#     Node 24, Type 0, BuildingBlock: ICAMEG_clean_sbu_1, # of connection points: 4
#     Node 25, Type 0, BuildingBlock: ICAMEG_clean_sbu_1, # of connection points: 4
#     Node 26, Type 0, BuildingBlock: ICAMEG_clean_sbu_1, # of connection points: 4
#     Node 27, Type 0, BuildingBlock: ICAMEG_clean_sbu_1, # of connection points: 4
#     Node 28, Type 0, BuildingBlock: ICAMEG_clean_sbu_1, # of connection points: 4
#     Node 29, Type 0, BuildingBlock: ICAMEG_clean_sbu_1, # of connection points: 4
#     Node 30, Type 0, BuildingBlock: ICAMEG_clean_sbu_1, # of connection points: 4
#     Node 31, Type 0, BuildingBlock: ICAMEG_clean_sbu_1, # of connection points: 4
#     Edge 32, Type (0, 0), BuildingBlock: KIFKEQ_clean_linker_1, # of connection points: 2
#     Edge 33, Type (0, 0), BuildingBlock: KIFKEQ_clean_linker_1, # of connection points: 2
#     Edge 34, Type (0, 0), BuildingBlock: KIFKEQ_clean_linker_1, # of connection points: 2
#     Edge 35, Type (0, 0), BuildingBlock: KIFKEQ_clean_linker_1, # of connection points: 2
#     Edge 36, Type (0, 0), BuildingBlock: KIFKEQ_clean_linker_1, # of connection points: 2
#     Edge 37, Type (0, 0), BuildingBlock: KIFKEQ_clean_linker_1, # of connection points: 2
#     Edge 38, Type (0, 0), BuildingBlock: KIFKEQ_clean_linker_1, # of connection points: 2
#     Edge 39, Type (0, 0), BuildingBlock: KIFKEQ_clean_linker_1, # of connection points: 2
#     Edge 40, Type (0, 0), BuildingBlock: KIFKEQ_clean_linker_1, # of connection points: 2
#     Edge 41, Type (0, 0), BuildingBlock: KIFKEQ_clean_linker_1, # of connection points: 2
#     Edge 42, Type (0, 0), BuildingBlock: KIFKEQ_clean_linker_1, # of connection points: 2
#     Edge 43, Type (0, 0), BuildingBlock: KIFKEQ_clean_linker_1, # of connection points: 2
#     Edge 44, Type (0, 0), BuildingBlock: KIFKEQ_clean_linker_1, # of connection points: 2
#     Edge 45, Type (0, 0), BuildingBlock: KIFKEQ_clean_linker_1, # of connection points: 2
#     Edge 46, Type (0, 0), BuildingBlock: KIFKEQ_clean_linker_1, # of connection points: 2
#     Edge 47, Type (0, 0), BuildingBlock: KIFKEQ_clean_linker_1, # of connection points: 2
#     Edge 48, Type (0, 0), BuildingBlock: KIFKEQ_clean_linker_1, # of connection points: 2
#     Edge 49, Type (0, 0), BuildingBlock: KIFKEQ_clean_linker_1, # of connection points: 2
#     Edge 50, Type (0, 0), BuildingBlock: KIFKEQ_clean_linker_1, # of connection points: 2
#     Edge 51, Type (0, 0), BuildingBlock: KIFKEQ_clean_linker_1, # of connection points: 2
#     Edge 52, Type (0, 0), BuildingBlock: KIFKEQ_clean_linker_1, # of connection points: 2
#     Edge 53, Type (0, 0), BuildingBlock: KIFKEQ_clean_linker_1, # of connection points: 2
#     Edge 54, Type (0, 0), BuildingBlock: KIFKEQ_clean_linker_1, # of connection points: 2
#     Edge 55, Type (0, 0), BuildingBlock: KIFKEQ_clean_linker_1, # of connection points: 2
#     Edge 56, Type (0, 0), BuildingBlock: KIFKEQ_clean_linker_1, # of connection points: 2
#     Edge 57, Type (0, 0), BuildingBlock: KIFKEQ_clean_linker_1, # of connection points: 2
#     Edge 58, Type (0, 0), BuildingBlock: KIFKEQ_clean_linker_1, # of connection points: 2
#     Edge 59, Type (0, 0), BuildingBlock: KIFKEQ_clean_linker_1, # of connection points: 2
#     Edge 60, Type (0, 0), BuildingBlock: KIFKEQ_clean_linker_1, # of connection points: 2
#     Edge 61, Type (0, 0), BuildingBlock: KIFKEQ_clean_linker_1, # of connection points: 2
#     Edge 62, Type (0, 0), BuildingBlock: KIFKEQ_clean_linker_1, # of connection points: 2
#     Edge 63, Type (0, 0), BuildingBlock: KIFKEQ_clean_linker_1, # of connection points: 2
#     Edge 64, Type (0, 0), BuildingBlock: KIFKEQ_clean_linker_1, # of connection points: 2
#     Edge 65, Type (0, 0), BuildingBlock: KIFKEQ_clean_linker_1, # of connection points: 2
#     Edge 66, Type (0, 0), BuildingBlock: KIFKEQ_clean_linker_1, # of connection points: 2
#     Edge 67, Type (0, 0), BuildingBlock: KIFKEQ_clean_linker_1, # of connection points: 2
#     Edge 68, Type (0, 0), BuildingBlock: KIFKEQ_clean_linker_1, # of connection points: 2
#     Edge 69, Type (0, 0), BuildingBlock: KIFKEQ_clean_linker_1, # of connection points: 2
#     Edge 70, Type (0, 0), BuildingBlock: KIFKEQ_clean_linker_1, # of connection points: 2
#     Edge 71, Type (0, 0), BuildingBlock: KIFKEQ_clean_linker_1, # of connection points: 2
#     Edge 72, Type (0, 0), BuildingBlock: KIFKEQ_clean_linker_1, # of connection points: 2
#     Edge 73, Type (0, 0), BuildingBlock: KIFKEQ_clean_linker_1, # of connection points: 2
#     Edge 74, Type (0, 0), BuildingBlock: KIFKEQ_clean_linker_1, # of connection points: 2
#     Edge 75, Type (0, 0), BuildingBlock: KIFKEQ_clean_linker_1, # of connection points: 2
#     Edge 76, Type (0, 0), BuildingBlock: KIFKEQ_clean_linker_1, # of connection points: 2
#     Edge 77, Type (0, 0), BuildingBlock: KIFKEQ_clean_linker_1, # of connection points: 2
#     Edge 78, Type (0, 0), BuildingBlock: KIFKEQ_clean_linker_1, # of connection points: 2
#     Edge 79, Type (0, 0), BuildingBlock: KIFKEQ_clean_linker_1, # of connection points: 2
#     Edge 80, Type (0, 0), BuildingBlock: KIFKEQ_clean_linker_1, # of connection points: 2
#     Edge 81, Type (0, 0), BuildingBlock: KIFKEQ_clean_linker_1, # of connection points: 2
#     Edge 82, Type (0, 0), BuildingBlock: KIFKEQ_clean_linker_1, # of connection points: 2
#     Edge 83, Type (0, 0), BuildingBlock: KIFKEQ_clean_linker_1, # of connection points: 2
#     Edge 84, Type (0, 0), BuildingBlock: KIFKEQ_clean_linker_1, # of connection points: 2
#     Edge 85, Type (0, 0), BuildingBlock: KIFKEQ_clean_linker_1, # of connection points: 2
#     Edge 86, Type (0, 0), BuildingBlock: KIFKEQ_clean_linker_1, # of connection points: 2
#     Edge 87, Type (0, 0), BuildingBlock: KIFKEQ_clean_linker_1, # of connection points: 2
#     Edge 88, Type (0, 0), BuildingBlock: KIFKEQ_clean_linker_1, # of connection points: 2
#     Edge 89, Type (0, 0), BuildingBlock: KIFKEQ_clean_linker_1, # of connection points: 2
#     Edge 90, Type (0, 0), BuildingBlock: KIFKEQ_clean_linker_1, # of connection points: 2
#     Edge 91, Type (0, 0), BuildingBlock: KIFKEQ_clean_linker_1, # of connection points: 2
#     Edge 92, Type (0, 0), BuildingBlock: KIFKEQ_clean_linker_1, # of connection points: 2
#     Edge 93, Type (0, 0), BuildingBlock: KIFKEQ_clean_linker_1, # of connection points: 2
#     Edge 94, Type (0, 0), BuildingBlock: KIFKEQ_clean_linker_1, # of connection points: 2
#     Edge 95, Type (0, 0), BuildingBlock: KIFKEQ_clean_linker_1, # of connection points: 2
# Relax obj value: 0.073
# Max RMSD: 0.092
# Mean RMSD: 0.092
data_MOF--net-uow--node1-ICAMEG_clean_sbu_1--edge1-KIFKEQ_clean_linker_1
_symmetry_space_group_name_H-M    P1
_symmetry_Int_Tables_number       1
_symmetry_cell_setting            triclinic
loop_
_symmetry_equiv_pos_as_xyz
'x, y, z'
_cell_length_a     65.928155
_cell_length_b     65.912569
_cell_length_c     46.87515
_cell_angle_alpha  89.984228
_cell_angle_beta   90.001063
_cell_angle_gamma 90.028979
loop_
_atom_site_label
_atom_site_type_symbol
_atom_site_fract_x
_atom_site_fract_y
_atom_site_fract_z
_atom_type_partial_charge
Co0 Co 0.03804 0.36352 0.27141 0.0
Co1 Co 0.05513 0.40037 0.31627 0.0
O2 O 0.04817 0.39092 0.27806 0.0
C3 C 0.07012 0.36777 0.2271 0.0
O4 O 0.08278 0.37387 0.24696 0.0
C5 C 0.03014 0.43413 0.29231 0.0
O6 O 0.01599 0.42088 0.28583 0.0
O7 O 0.02729 0.39341 0.33016 0.0
O8 O 0.02364 0.36309 0.30905 0.0
H9 H 0.05791 0.39616 0.42322 0.0
H10 H 0.03105 0.39535 0.22785 0.0
O11 O 0.05193 0.36315 0.23351 0.0
H12 H 0.96291 0.37165 0.25568 0.0
H13 H 0.009 0.30722 0.21134 0.0
H14 H 0.03468 0.32617 0.30646 0.0
H15 H 0.99348 0.35653 0.27727 0.0
H16 H 0.02096 0.34204 0.22079 0.0
O17 O 0.04609 0.42841 0.30539 0.0
H18 H 0.04978 0.38408 0.37476 0.0
H19 H 0.07449 0.43794 0.33909 0.0
H20 H 0.02273 0.29124 0.29801 0.0
H21 H 1.00088 0.41075 0.20551 0.0
H22 H 0.00976 0.28156 0.25015 0.0
H23 H 0.9665 0.39894 0.21947 0.0
O24 O 0.06256 0.35192 0.28995 0.0
H25 H 0.10558 0.42984 0.24735 0.0
H26 H 0.09705 0.39243 0.33768 0.0
H27 H 0.13149 0.3999 0.32008 0.0
H28 H 0.13593 0.41878 0.27463 0.0
H29 H 0.07141 0.42186 0.26557 0.0
H30 H 0.08274 0.45068 0.38718 0.0
H31 H 0.07451 0.42969 0.42966 0.0
O32 O 0.06503 0.37261 0.32775 0.0
C33 C 0.01865 0.37614 0.32787 0.0
C34 C 0.06161 0.40543 0.40488 0.0
C35 C 0.07552 0.43603 0.38465 0.0
N36 N 0.06176 0.41023 0.35412 0.0
C37 C 0.05708 0.39865 0.37738 0.0
C38 C 0.07076 0.42877 0.35747 0.0
C39 C 0.07091 0.42425 0.40847 0.0
C40 C 0.01614 0.38999 0.23383 0.0
N41 N 0.01404 0.375 0.25374 0.0
C42 C 0.99912 0.39883 0.22119 0.0
C43 C 0.97983 0.39221 0.22907 0.0
C44 C 0.9778 0.37692 0.2494 0.0
C45 C 0.99517 0.36845 0.26161 0.0
C46 C 0.01457 0.31126 0.2323 0.0
C47 C 0.02894 0.32213 0.28564 0.0
C48 C 0.0214 0.33095 0.23776 0.0
N49 N 0.02836 0.33619 0.26423 0.0
C50 C 0.02225 0.3023 0.28095 0.0
C51 C 0.015 0.29688 0.25408 0.0
C52 C 0.06942 0.35614 0.3147 0.0
C53 C 0.10385 0.42165 0.26722 0.0
C54 C 0.09884 0.40058 0.31783 0.0
C55 C 0.11839 0.40481 0.30801 0.0
C56 C 0.12087 0.41542 0.28252 0.0
N57 N 0.08222 0.40678 0.30273 0.0
C58 C 0.08453 0.41716 0.27771 0.0
Co59 Co 0.89452 0.78377 0.51727 0.0
Co60 Co 0.86033 0.80849 0.56096 0.0
O61 O 0.86914 0.79824 0.52381 0.0
C62 C 0.89572 0.81736 0.47491 0.0
O63 O 0.88952 0.8298 0.49496 0.0
C64 C 0.82582 0.78341 0.54023 0.0
O65 O 0.83881 0.76876 0.53513 0.0
O66 O 0.86592 0.78177 0.57976 0.0
O67 O 0.89125 0.7684 0.55359 0.0
H68 H 0.86558 0.82024 0.66661 0.0
H69 H 0.86277 0.7841 0.47249 0.0
O70 O 0.8984 0.79863 0.48042 0.0
H71 H 0.87326 0.71195 0.49608 0.0
H72 H 0.94621 0.74721 0.45719 0.0
H73 H 0.92958 0.77238 0.55345 0.0
H74 H 0.89338 0.73854 0.51994 0.0
H75 H 0.91383 0.76481 0.46624 0.0
O76 O 0.83184 0.79986 0.55177 0.0
H77 H 0.87691 0.80755 0.61975 0.0
H78 H 0.82381 0.83118 0.5807 0.0
H79 H 0.96206 0.75472 0.5454 0.0
H80 H 0.84243 0.75798 0.44793 0.0
H81 H 0.97056 0.74202 0.49697 0.0
H82 H 0.84757 0.72161 0.45977 0.0
O83 O 0.91018 0.80519 0.53772 0.0
H84 H 0.83283 0.85431 0.48442 0.0
H85 H 0.87048 0.85142 0.57521 0.0
H86 H 0.8647 0.88451 0.55207 0.0
H87 H 0.84571 0.8861 0.50636 0.0
H88 H 0.83916 0.82152 0.50813 0.0
H89 H 0.81182 0.84399 0.62717 0.0
H90 H 0.83281 0.83861 0.67052 0.0
O91 O 0.88853 0.81766 0.57038 0.0
C92 C 0.87948 0.76834 0.57513 0.0
C93 C 0.85632 0.82272 0.64786 0.0
C94 C 0.82613 0.83602 0.62573 0.0
N95 N 0.85109 0.8187 0.59751 0.0
C96 C 0.86268 0.8156 0.62127 0.0
C97 C 0.83297 0.82868 0.59949 0.0
C98 C 0.83792 0.83301 0.65005 0.0
C99 C 0.86523 0.76829 0.47754 0.0
N100 N 0.87929 0.76285 0.49754 0.0
C101 C 0.85361 0.75358 0.46365 0.0
C102 C 0.85649 0.73318 0.47034 0.0
C103 C 0.87088 0.72774 0.49072 0.0
C104 C 0.8822 0.74287 0.50421 0.0
C105 C 0.94267 0.75265 0.47839 0.0
C106 C 0.93312 0.76678 0.53235 0.0
C107 C 0.92438 0.76268 0.48363 0.0
N108 N 0.91978 0.76952 0.51038 0.0
C109 C 0.95155 0.75684 0.52791 0.0
C110 C 0.95632 0.74974 0.50073 0.0
C111 C 0.90618 0.81633 0.55928 0.0
C112 C 0.84109 0.85382 0.50437 0.0
C113 C 0.86231 0.85197 0.55526 0.0
C114 C 0.85902 0.87076 0.5423 0.0
C115 C 0.84834 0.87164 0.51666 0.0
N116 N 0.85514 0.83454 0.54308 0.0
C117 C 0.84465 0.8353 0.51796 0.0
Co118 Co 0.47582 0.64472 0.76413 0.0
Co119 Co 0.45682 0.61025 0.81281 0.0
O120 O 0.46375 0.61853 0.7738 0.0
C121 C 0.44051 0.64232 0.72413 0.0
O122 O 0.42901 0.63545 0.74487 0.0
C123 C 0.48229 0.57688 0.78969 0.0
O124 O 0.49456 0.59084 0.77965 0.0
O125 O 0.48427 0.61821 0.82748 0.0
O126 O 0.49309 0.64407 0.79896 0.0
H127 H 0.45227 0.61847 0.91917 0.0
H128 H 0.47563 0.61175 0.72123 0.0
O129 O 0.45913 0.64633 0.72861 0.0
H130 H 0.54779 0.62838 0.73608 0.0
H131 H 0.50569 0.69688 0.69768 0.0
H132 H 0.48585 0.68185 0.79689 0.0
H133 H 0.52109 0.64705 0.76188 0.0
H134 H 0.49111 0.66361 0.71031 0.0
O135 O 0.46688 0.582 0.80446 0.0
H136 H 0.46075 0.62893 0.87006 0.0
H137 H 0.43818 0.57306 0.83793 0.0
H138 H 0.50054 0.71526 0.78524 0.0
H139 H 0.50181 0.59287 0.69466 0.0
H140 H 0.51056 0.72296 0.73531 0.0
H141 H 0.5382 0.60108 0.70212 0.0
O142 O 0.45425 0.65928 0.7857 0.0
H143 H 0.4081 0.57713 0.74471 0.0
H144 H 0.41445 0.61786 0.83246 0.0
H145 H 0.38045 0.60902 0.81444 0.0
H146 H 0.37711 0.58847 0.77027 0.0
H147 H 0.44181 0.5865 0.76333 0.0
H148 H 0.4296 0.56193 0.88671 0.0
H149 H 0.43658 0.58474 0.92772 0.0
O150 O 0.44625 0.63815 0.82171 0.0
C151 C 0.49584 0.63306 0.82095 0.0
C152 C 0.4491 0.60842 0.90146 0.0
C153 C 0.43641 0.57667 0.88325 0.0
N154 N 0.44986 0.60168 0.85116 0.0
C155 C 0.45382 0.61428 0.87361 0.0
C156 C 0.44135 0.58303 0.85569 0.0
C157 C 0.44032 0.58948 0.90625 0.0
C158 C 0.49142 0.61555 0.72438 0.0
N159 N 0.49682 0.63048 0.74314 0.0
C160 C 0.50618 0.60475 0.70936 0.0
C161 C 0.52659 0.60934 0.7136 0.0
C162 C 0.53198 0.62463 0.73268 0.0
C163 C 0.51681 0.63509 0.74736 0.0
C164 C 0.5014 0.69371 0.71951 0.0
C165 C 0.49026 0.68505 0.77514 0.0
C166 C 0.49307 0.67491 0.72678 0.0
N167 N 0.48768 0.67076 0.75433 0.0
C168 C 0.49853 0.70401 0.76866 0.0
C169 C 0.50413 0.70833 0.74064 0.0
C170 C 0.44512 0.65533 0.80909 0.0
C171 C 0.40935 0.58605 0.76401 0.0
C172 C 0.41313 0.60901 0.81316 0.0
C173 C 0.39383 0.60399 0.8031 0.0
C174 C 0.39197 0.59244 0.77834 0.0
N175 N 0.43011 0.60268 0.79901 0.0
C176 C 0.42841 0.59134 0.77472 0.0
Co177 Co 0.61353 0.22483 0.01336 0.0
Co178 Co 0.65033 0.20858 0.06011 0.0
O179 O 0.64054 0.21397 0.02132 0.0
C180 C 0.61547 0.18926 0.97378 0.0
O181 O 0.62272 0.17792 0.99444 0.0
C182 C 0.68302 0.23299 0.03293 0.0
O183 O 0.66884 0.24494 0.02274 0.0
O184 O 0.64305 0.23661 0.07279 0.0
O185 O 0.61456 0.24242 0.04799 0.0
H186 H 0.64635 0.20888 0.16714 0.0
H187 H 0.64492 0.22591 0.96821 0.0
O188 O 0.6115 0.2079 0.97814 0.0
H189 H 0.62558 0.29733 0.98357 0.0
H190 H 0.5579 0.25198 0.95032 0.0
H191 H 0.5771 0.23315 0.0485 0.0
H192 H 0.60908 0.26995 0.01086 0.0
H193 H 0.59219 0.23903 0.9608 0.0
O194 O 0.67825 0.21808 0.0489 0.0
H195 H 0.63404 0.21531 0.11829 0.0
H196 H 0.68827 0.19061 0.08389 0.0
H197 H 0.54271 0.24621 0.03902 0.0
H198 H 0.66164 0.25278 0.94011 0.0
H199 H 0.53291 0.25572 0.98962 0.0
H200 H 0.65205 0.28881 0.94782 0.0
O201 O 0.60077 0.20269 0.03609 0.0
H202 H 0.68064 0.15675 0.99406 0.0
H203 H 0.643 0.16718 0.08377 0.0
H204 H 0.65098 0.13239 0.06807 0.0
H205 H 0.66997 0.127 0.02294 0.0
H206 H 0.67218 0.19129 0.01042 0.0
H207 H 0.70123 0.18404 0.13238 0.0
H208 H 0.68018 0.19313 0.17443 0.0
O209 O 0.62284 0.19861 0.07214 0.0
C210 C 0.62699 0.24685 0.06788 0.0
C211 C 0.65564 0.2048 0.149 0.0
C212 C 0.68646 0.19089 0.12949 0.0
N213 N 0.66036 0.20322 0.09827 0.0
C214 C 0.64873 0.20836 0.12128 0.0
C215 C 0.67905 0.19468 0.10208 0.0
C216 C 0.67463 0.19598 0.15307 0.0
C217 C 0.64052 0.24153 0.97148 0.0
N218 N 0.62606 0.24635 0.99123 0.0
C219 C 0.6501 0.25669 0.95559 0.0
C220 C 0.64475 0.2769 0.95997 0.0
C221 C 0.62992 0.2817 0.98005 0.0
C222 C 0.6207 0.26614 0.99558 0.0
C223 C 0.56199 0.2479 0.97194 0.0
C224 C 0.57299 0.23734 0.02697 0.0
C225 C 0.58137 0.2405 0.97798 0.0
N226 N 0.58667 0.2354 0.00525 0.0
C227 C 0.55347 0.24469 0.02172 0.0
C228 C 0.54798 0.25001 0.994 0.0
C229 C 0.6056 0.19549 0.06044 0.0
C230 C 0.67241 0.15891 0.01381 0.0
C231 C 0.65121 0.16497 0.06406 0.0
C232 C 0.65573 0.14523 0.05532 0.0
C233 C 0.6664 0.14222 0.03 0.0
N234 N 0.65721 0.18126 0.0481 0.0
C235 C 0.66765 0.17843 0.02324 0.0
Co236 Co 0.03865 0.64762 0.24117 0.0
Co237 Co 0.05507 0.61209 0.19306 0.0
O238 O 0.04964 0.62099 0.23198 0.0
C239 C 0.07469 0.64596 0.27954 0.0
O240 O 0.08635 0.64302 0.25721 0.0
C241 C 0.03068 0.57832 0.21781 0.0
O242 O 0.01696 0.59174 0.2253 0.0
O243 O 0.02685 0.61914 0.181 0.0
O244 O 0.02103 0.64742 0.2064 0.0
H245 H 0.05407 0.61765 0.08617 0.0
H246 H 0.03753 0.61449 0.28393 0.0
O247 O 0.05563 0.64823 0.27656 0.0
H248 H 0.9662 0.63472 0.27021 0.0
H249 H 0.01208 0.70137 0.30773 0.0
H250 H 0.02959 0.68489 0.20811 0.0
H251 H 0.99362 0.65216 0.24416 0.0
H252 H 0.02522 0.66749 0.29516 0.0
O253 O 0.04634 0.58391 0.20391 0.0
H254 H 0.04772 0.62913 0.13544 0.0
H255 H 0.07355 0.57484 0.16801 0.0
H256 H 0.01635 0.7189 0.21971 0.0
H257 H 0.01061 0.59676 0.31064 0.0
H258 H 0.00749 0.72732 0.26983 0.0
H259 H 0.97463 0.6068 0.30378 0.0
O260 O 0.06063 0.66119 0.21885 0.0
H261 H 0.10794 0.58217 0.25785 0.0
H262 H 0.09613 0.62044 0.16898 0.0
H263 H 0.13118 0.61299 0.18405 0.0
H264 H 0.13726 0.59368 0.22876 0.0
H265 H 0.07314 0.59009 0.24211 0.0
H266 H 0.08005 0.56269 0.11908 0.0
H267 H 0.07035 0.5842 0.07775 0.0
O268 O 0.06438 0.63993 0.18178 0.0
C269 C 0.01658 0.63513 0.18629 0.0
C270 C 0.05842 0.60816 0.104 0.0
C271 C 0.07297 0.57731 0.12248 0.0
N272 N 0.06037 0.60273 0.15456 0.0
C273 C 0.0549 0.61461 0.13195 0.0
C274 C 0.0692 0.58424 0.15013 0.0
C275 C 0.06753 0.58938 0.0993 0.0
C276 C 0.02193 0.61907 0.281 0.0
N277 N 0.01716 0.63436 0.26249 0.0
C278 C 0.00674 0.60892 0.29611 0.0
C279 C 0.98656 0.61454 0.29222 0.0
C280 C 0.98181 0.63019 0.27336 0.0
C281 C 0.9974 0.63997 0.25858 0.0
C282 C 0.01585 0.69787 0.2858 0.0
C283 C 0.02565 0.6884 0.22995 0.0
C284 C 0.02334 0.67873 0.27856 0.0
N285 N 0.02802 0.67417 0.25089 0.0
C286 C 0.01821 0.7077 0.23639 0.0
C287 C 0.01327 0.71242 0.26453 0.0
C288 C 0.06756 0.65694 0.1941 0.0
C289 C 0.10548 0.59054 0.23828 0.0
C290 C 0.09865 0.61208 0.1885 0.0
C291 C 0.11853 0.60787 0.19689 0.0
C292 C 0.12193 0.59703 0.22197 0.0
N293 N 0.08259 0.60561 0.20457 0.0
C294 C 0.08581 0.59501 0.22921 0.0
Co295 Co 0.61497 0.78497 0.48713 0.0
Co296 Co 0.64838 0.80798 0.44051 0.0
O297 O 0.64017 0.79909 0.47851 0.0
C298 C 0.61301 0.82063 0.52579 0.0
O299 O 0.61575 0.8324 0.50351 0.0
C300 C 0.68282 0.78308 0.46169 0.0
O301 O 0.66966 0.76881 0.468 0.0
O302 O 0.64204 0.78077 0.42366 0.0
O303 O 0.61755 0.76805 0.45204 0.0
H304 H 0.64127 0.81661 0.33447 0.0
H305 H 0.64772 0.78719 0.53041 0.0
O306 O 0.61215 0.80144 0.52284 0.0
H307 H 0.63641 0.71417 0.51391 0.0
H308 H 0.56443 0.75144 0.55247 0.0
H309 H 0.57926 0.77185 0.45342 0.0
H310 H 0.61586 0.73973 0.48859 0.0
H311 H 0.59658 0.76865 0.54058 0.0
O312 O 0.67691 0.79925 0.44929 0.0
H313 H 0.63063 0.80558 0.38248 0.0
H314 H 0.68489 0.8294 0.41804 0.0
H315 H 0.54698 0.75456 0.46433 0.0
H316 H 0.6685 0.76214 0.55637 0.0
H317 H 0.5394 0.74424 0.51417 0.0
H318 H 0.66295 0.72534 0.5481 0.0
O319 O 0.59887 0.80544 0.46529 0.0
H320 H 0.67739 0.85578 0.51345 0.0
H321 H 0.63878 0.85056 0.42367 0.0
H322 H 0.64532 0.88427 0.44454 0.0
H323 H 0.66479 0.88704 0.48973 0.0
H324 H 0.67035 0.82237 0.49198 0.0
H325 H 0.69621 0.84055 0.37039 0.0
H326 H 0.67429 0.83424 0.32821 0.0
O327 O 0.62015 0.81722 0.4316 0.0
C328 C 0.62874 0.76738 0.42987 0.0
C329 C 0.65094 0.81948 0.35269 0.0
C330 C 0.68179 0.83289 0.37285 0.0
N331 N 0.65709 0.81689 0.40303 0.0
C332 C 0.64498 0.8133 0.37993 0.0
C333 C 0.67533 0.82648 0.39976 0.0
C334 C 0.66948 0.82935 0.34919 0.0
C335 C 0.64508 0.7712 0.5269 0.0
N336 N 0.63056 0.76493 0.50806 0.0
C337 C 0.65695 0.75709 0.54158 0.0
C338 C 0.65385 0.73644 0.53689 0.0
C339 C 0.63897 0.73016 0.5177 0.0
C340 C 0.62742 0.74471 0.50337 0.0
C341 C 0.56757 0.75584 0.53067 0.0
C342 C 0.57612 0.76729 0.47513 0.0
C343 C 0.58573 0.76562 0.52381 0.0
N344 N 0.58984 0.77111 0.4963 0.0
C345 C 0.55779 0.75756 0.48119 0.0
C346 C 0.55354 0.75179 0.50917 0.0
C347 C 0.60263 0.81609 0.44312 0.0
C348 C 0.66892 0.85478 0.49372 0.0
C349 C 0.64718 0.85163 0.44339 0.0
C350 C 0.65089 0.87076 0.45507 0.0
C351 C 0.66183 0.87231 0.48042 0.0
N352 N 0.65422 0.8345 0.45653 0.0
C353 C 0.66494 0.8359 0.4814 0.0
Co354 Co 0.47395 0.35984 0.74063 0.0
Co355 Co 0.45809 0.39844 0.69734 0.0
O356 O 0.46441 0.3877 0.73529 0.0
C357 C 0.44132 0.3633 0.78435 0.0
O358 O 0.42927 0.37094 0.76482 0.0
C359 C 0.48276 0.43079 0.72548 0.0
O360 O 0.49459 0.41659 0.73584 0.0
O361 O 0.48586 0.39116 0.68362 0.0
O362 O 0.48894 0.36034 0.70344 0.0
H363 H 0.4562 0.39674 0.59022 0.0
H364 H 0.48077 0.38947 0.78724 0.0
O365 O 0.45944 0.35836 0.77804 0.0
H366 H 0.54896 0.36622 0.75907 0.0
H367 H 0.50122 0.30116 0.7978 0.0
H368 H 0.47707 0.3236 0.70337 0.0
H369 H 0.51852 0.35265 0.7352 0.0
H370 H 0.49004 0.33646 0.79026 0.0
O371 O 0.468 0.4261 0.70922 0.0
H372 H 0.46353 0.38336 0.63827 0.0
H373 H 0.43997 0.43703 0.67587 0.0
H374 H 0.48824 0.28821 0.70991 0.0
H375 H 0.5108 0.4032 0.81197 0.0
H376 H 0.50043 0.27678 0.75741 0.0
H377 H 0.54521 0.39164 0.79782 0.0
O378 O 0.44954 0.34926 0.72076 0.0
H379 H 0.40801 0.42762 0.76692 0.0
H380 H 0.41613 0.39229 0.67492 0.0
H381 H 0.38179 0.40031 0.6924 0.0
H382 H 0.37756 0.41815 0.73869 0.0
H383 H 0.44208 0.41912 0.74877 0.0
H384 H 0.43254 0.45107 0.62822 0.0
H385 H 0.44059 0.43083 0.58498 0.0
O386 O 0.44744 0.37124 0.68438 0.0
C387 C 0.49429 0.37377 0.68534 0.0
C388 C 0.45257 0.40568 0.6089 0.0
C389 C 0.43932 0.43618 0.63023 0.0
N390 N 0.45207 0.40934 0.65985 0.0
C391 C 0.45665 0.39817 0.63617 0.0
C392 C 0.44361 0.42818 0.65715 0.0
C393 C 0.44383 0.42482 0.60598 0.0
C394 C 0.49567 0.38419 0.78119 0.0
N395 N 0.49787 0.37026 0.75982 0.0
C396 C 0.51263 0.39209 0.79517 0.0
C397 C 0.53193 0.38563 0.78718 0.0
C398 C 0.53405 0.37139 0.76541 0.0
C399 C 0.51675 0.36383 0.75189 0.0
C400 C 0.49598 0.30597 0.77699 0.0
C401 C 0.48247 0.31879 0.72406 0.0
C402 C 0.4896 0.32593 0.7726 0.0
N403 N 0.48306 0.33214 0.74634 0.0
C404 C 0.48873 0.29871 0.72765 0.0
C405 C 0.49554 0.2923 0.75432 0.0
C406 C 0.4428 0.3544 0.69632 0.0
C407 C 0.40966 0.4199 0.74668 0.0
C408 C 0.41442 0.39998 0.69513 0.0
C409 C 0.39494 0.40453 0.70488 0.0
C410 C 0.39258 0.41455 0.73085 0.0
N411 N 0.43111 0.40531 0.71075 0.0
C412 C 0.42891 0.41512 0.73624 0.0
Co413 Co 0.89923 0.22376 0.98493 0.0
Co414 Co 0.86128 0.20921 0.93994 0.0
O415 O 0.87135 0.21474 0.9785 0.0
C416 C 0.89444 0.19097 0.02835 0.0
O417 O 0.88672 0.17911 0.00862 0.0
C418 C 0.8288 0.23374 0.96768 0.0
O419 O 0.84301 0.24552 0.97818 0.0
O420 O 0.86895 0.23717 0.92761 0.0
O421 O 0.89967 0.23906 0.9479 0.0
H422 H 0.86452 0.2097 0.83285 0.0
H423 H 0.86889 0.23083 0.0305 0.0
O424 O 0.89983 0.209 0.02221 0.0
H425 H 0.89412 0.29877 0.00431 0.0
H426 H 0.95745 0.24964 0.04429 0.0
H427 H 0.93616 0.22632 0.94894 0.0
H428 H 0.90748 0.26824 0.98046 0.0
H429 H 0.92208 0.23918 0.03548 0.0
O430 O 0.83352 0.21899 0.95141 0.0
H431 H 0.87723 0.21594 0.88155 0.0
H432 H 0.82301 0.19162 0.91661 0.0
H433 H 0.97163 0.2368 0.95675 0.0
H434 H 0.85533 0.26095 0.05519 0.0
H435 H 0.98249 0.24856 0.00472 0.0
H436 H 0.8679 0.29523 0.04204 0.0
O437 O 0.90954 0.19923 0.96512 0.0
H438 H 0.83065 0.15779 0.00637 0.0
H439 H 0.86779 0.16771 0.91612 0.0
H440 H 0.85934 0.13303 0.93191 0.0
H441 H 0.84059 0.1279 0.9773 0.0
H442 H 0.83958 0.1922 0.98993 0.0
H443 H 0.80965 0.18527 0.86828 0.0
H444 H 0.8305 0.19426 0.82598 0.0
O445 O 0.88867 0.19879 0.92736 0.0
C446 C 0.88656 0.24507 0.92974 0.0
C447 C 0.85532 0.20566 0.85111 0.0
C448 C 0.82451 0.19198 0.87099 0.0
N449 N 0.85094 0.20401 0.90189 0.0
C450 C 0.86246 0.20911 0.87874 0.0
C451 C 0.83214 0.19565 0.89831 0.0
C452 C 0.83622 0.19702 0.84727 0.0
C453 C 0.8746 0.24568 0.02489 0.0
N454 N 0.88898 0.24775 0.00409 0.0
C455 C 0.86679 0.26268 0.03884 0.0
C456 C 0.87382 0.28192 0.03141 0.0
C457 C 0.88851 0.28391 0.01022 0.0
C458 C 0.89596 0.26657 0.9967 0.0
C459 C 0.9529 0.24458 0.02328 0.0
C460 C 0.94072 0.23154 0.96983 0.0
C461 C 0.9329 0.2386 0.01817 0.0
N462 N 0.92701 0.23229 0.99166 0.0
C463 C 0.96085 0.2374 0.97414 0.0
C464 C 0.96694 0.24398 1.00107 0.0
C465 C 0.90499 0.19337 0.94002 0.0
C466 C 0.83876 0.15983 0.9865 0.0
C467 C 0.85969 0.16561 0.93595 0.0
C468 C 0.8549 0.14593 0.94474 0.0
C469 C 0.84437 0.14307 0.97021 0.0
N470 N 0.85409 0.18198 0.95202 0.0
C471 C 0.84378 0.17928 0.97703 0.0
Co472 Co 0.97069 0.64871 0.74114 0.0
Co473 Co 0.95505 0.61337 0.69196 0.0
O474 O 0.95993 0.62209 0.73122 0.0
C475 C 0.93398 0.64751 0.77843 0.0
O476 O 0.9225 0.64544 0.75573 0.0
C477 C 0.97933 0.58045 0.7183 0.0
O478 O 0.99136 0.59465 0.72827 0.0
O479 O 0.98318 0.62104 0.68044 0.0
O480 O 0.98878 0.6489 0.70681 0.0
H481 H 0.95681 0.61987 0.58519 0.0
H482 H 0.97129 0.61579 0.78427 0.0
O483 O 0.95316 0.649 0.77604 0.0
H484 H 0.04279 0.6359 0.77188 0.0
H485 H 0.9962 0.70207 0.80916 0.0
H486 H 0.98003 0.68627 0.70888 0.0
H487 H 0.01571 0.65314 0.74493 0.0
H488 H 0.98327 0.66826 0.79577 0.0
O489 O 0.96441 0.58522 0.70234 0.0
H490 H 0.96253 0.63106 0.63475 0.0
H491 H 0.93751 0.57598 0.66599 0.0
H492 H 0.99308 0.72021 0.72129 0.0
H493 H 0.99785 0.59835 0.812 0.0
H494 H 1.00127 0.72829 0.77175 0.0
H495 H 0.03392 0.60831 0.80577 0.0
O496 O 0.94898 0.66223 0.71845 0.0
H497 H 0.90223 0.58183 0.75533 0.0
H498 H 0.91405 0.62122 0.66743 0.0
H499 H 0.87902 0.61296 0.68179 0.0
H500 H 0.87294 0.59309 0.72601 0.0
H501 H 0.93701 0.59054 0.74029 0.0
H502 H 0.93165 0.56412 0.61676 0.0
H503 H 0.94126 0.58617 0.57595 0.0
O504 O 0.9453 0.64121 0.68101 0.0
C505 C 0.99333 0.63701 0.68629 0.0
C506 C 0.9525 0.61015 0.60279 0.0
C507 C 0.93841 0.57885 0.62051 0.0
N508 N 0.95023 0.60425 0.65322 0.0
C509 C 0.95565 0.61643 0.6309 0.0
C510 C 0.9418 0.58562 0.64834 0.0
C511 C 0.94379 0.59123 0.59763 0.0
C512 C 0.98692 0.62037 0.78168 0.0
N513 N 0.99193 0.63548 0.76297 0.0
C514 C 1.00191 0.61037 0.79734 0.0
C515 C 0.02215 0.61595 0.7938 0.0
C516 C 0.02714 0.6314 0.77475 0.0
C517 C 0.01174 0.64105 0.75943 0.0
C518 C 0.99273 0.69872 0.78709 0.0
C519 C 0.98367 0.68963 0.73086 0.0
C520 C 0.98536 0.67962 0.77939 0.0
N521 N 0.98105 0.67525 0.75153 0.0
C522 C 0.991 0.7089 0.73777 0.0
C523 C 0.99557 0.71342 0.76609 0.0
C524 C 0.94212 0.65812 0.69363 0.0
C525 C 0.90469 0.59044 0.73597 0.0
C526 C 0.91153 0.61259 0.68672 0.0
C527 C 0.89166 0.60794 0.69472 0.0
C528 C 0.88826 0.59678 0.71953 0.0
N529 N 0.92757 0.60625 0.7029 0.0
C530 C 0.92435 0.59535 0.72729 0.0
Co531 Co 0.11398 0.22185 0.48997 0.0
Co532 Co 0.14983 0.20503 0.44275 0.0
O533 O 0.14081 0.21097 0.48155 0.0
C534 C 0.1167 0.18736 0.53136 0.0
O535 O 0.12174 0.17495 0.51062 0.0
C536 C 0.18361 0.22967 0.46707 0.0
O537 O 0.17025 0.24355 0.47416 0.0
O538 O 0.14281 0.23313 0.42993 0.0
O539 O 0.11406 0.23849 0.45435 0.0
H540 H 0.14452 0.20471 0.33583 0.0
H541 H 0.14692 0.22459 0.53278 0.0
O542 O 0.1132 0.20598 0.52623 0.0
H543 H 0.12563 0.29522 0.51545 0.0
H544 H 0.05945 0.24971 0.55424 0.0
H545 H 0.07674 0.22918 0.45605 0.0
H546 H 0.10867 0.2669 0.49075 0.0
H547 H 0.0936 0.23679 0.54285 0.0
O548 O 0.17798 0.21388 0.4535 0.0
H549 H 0.13292 0.21165 0.38488 0.0
H550 H 0.18714 0.18626 0.41831 0.0
H551 H 0.04246 0.24219 0.46645 0.0
H552 H 0.16416 0.25243 0.55821 0.0
H553 H 0.03363 0.25255 0.51585 0.0
H554 H 0.15358 0.28806 0.54952 0.0
O555 O 0.10094 0.19899 0.46889 0.0
H556 H 0.17981 0.153 0.50883 0.0
H557 H 0.14157 0.16365 0.41967 0.0
H558 H 0.14911 0.1288 0.43557 0.0
H559 H 0.16842 0.1233 0.48042 0.0
H560 H 0.17178 0.18759 0.49229 0.0
H561 H 0.1994 0.17917 0.3696 0.0
H562 H 0.17799 0.18835 0.32795 0.0
O563 O 0.122 0.19553 0.43156 0.0
C564 C 0.1265 0.24307 0.43452 0.0
C565 C 0.15397 0.20059 0.3538 0.0
C566 C 0.18478 0.18628 0.37276 0.0
N567 N 0.15928 0.19925 0.40443 0.0
C568 C 0.14746 0.20444 0.38163 0.0
C569 C 0.17778 0.19038 0.40029 0.0
C570 C 0.17276 0.19143 0.3494 0.0
C571 C 0.14212 0.24004 0.52904 0.0
N572 N 0.12681 0.2441 0.51023 0.0
C573 C 0.15199 0.25575 0.54344 0.0
C574 C 0.14607 0.27574 0.53852 0.0
C575 C 0.1304 0.27977 0.51938 0.0
C576 C 0.12091 0.26367 0.50534 0.0
C577 C 0.06313 0.24527 0.53262 0.0
C578 C 0.07305 0.23377 0.47757 0.0
C579 C 0.08243 0.23789 0.52605 0.0
N580 N 0.08721 0.23236 0.49877 0.0
C581 C 0.0536 0.24108 0.48334 0.0
C582 C 0.04865 0.24687 0.51107 0.0
C583 C 0.10516 0.19201 0.44418 0.0
C584 C 0.17144 0.1552 0.48921 0.0
C585 C 0.14991 0.16139 0.43927 0.0
C586 C 0.15418 0.14162 0.44812 0.0
C587 C 0.16502 0.13854 0.47328 0.0
N588 N 0.1563 0.17766 0.45497 0.0
C589 C 0.16691 0.17476 0.47968 0.0
Co590 Co 0.5378 0.3617 0.23692 0.0
Co591 Co 0.55227 0.40031 0.19276 0.0
O592 O 0.54662 0.38972 0.23101 0.0
C593 C 0.57071 0.36592 0.28017 0.0
O594 O 0.58264 0.37353 0.26044 0.0
C595 C 0.52744 0.43235 0.22128 0.0
O596 O 0.51598 0.41799 0.23204 0.0
O597 O 0.52451 0.39227 0.17969 0.0
O598 O 0.52254 0.36153 0.19999 0.0
H599 H 0.55298 0.39795 0.08563 0.0
H600 H 0.53063 0.39144 0.28326 0.0
O601 O 0.55259 0.36083 0.2741 0.0
H602 H 0.4628 0.36632 0.25644 0.0
H603 H 0.51222 0.30282 0.29528 0.0
H604 H 0.53551 0.32505 0.20032 0.0
H605 H 0.49337 0.35337 0.23226 0.0
H606 H 0.52249 0.33833 0.28706 0.0
O607 O 0.54198 0.42784 0.20454 0.0
H608 H 0.54646 0.38473 0.13399 0.0
H609 H 0.56939 0.43912 0.17039 0.0
H610 H 0.52522 0.28945 0.20753 0.0
H611 H 0.50047 0.40457 0.30831 0.0
H612 H 0.51347 0.27812 0.2553 0.0
H613 H 0.46624 0.39206 0.29484 0.0
O614 O 0.56231 0.35163 0.2168 0.0
H615 H 0.60257 0.43092 0.26085 0.0
H616 H 0.59408 0.39487 0.16945 0.0
H617 H 0.62845 0.4037 0.18605 0.0
H618 H 0.63287 0.42189 0.23203 0.0
H619 H 0.56848 0.42163 0.24359 0.0
H620 H 0.576 0.45299 0.12241 0.0
H621 H 0.56786 0.43232 0.07961 0.0
O622 O 0.5633 0.37327 0.17993 0.0
C623 C 0.51666 0.37461 0.1817 0.0
C624 C 0.55664 0.40708 0.10411 0.0
C625 C 0.56953 0.43799 0.12476 0.0
N626 N 0.55764 0.41108 0.15499 0.0
C627 C 0.55302 0.39966 0.13155 0.0
C628 C 0.5657 0.43007 0.15187 0.0
C629 C 0.56497 0.42638 0.10075 0.0
C630 C 0.51581 0.38575 0.27751 0.0
N631 N 0.51378 0.37165 0.25634 0.0
C632 C 0.49878 0.39332 0.29167 0.0
C633 C 0.47958 0.38632 0.28406 0.0
C634 C 0.47763 0.3719 0.26249 0.0
C635 C 0.495 0.3647 0.24877 0.0
C636 C 0.51726 0.30758 0.27435 0.0
C637 C 0.53028 0.32029 0.22112 0.0
C638 C 0.52314 0.32766 0.26958 0.0
N639 N 0.52943 0.33382 0.24317 0.0
C640 C 0.52453 0.30008 0.2251 0.0
C641 C 0.51796 0.29373 0.25191 0.0
C642 C 0.56855 0.35669 0.19206 0.0
C643 C 0.60084 0.42305 0.24074 0.0
C644 C 0.59586 0.40273 0.18953 0.0
C645 C 0.61537 0.40773 0.19878 0.0
C646 C 0.61783 0.41795 0.22457 0.0
N647 N 0.57926 0.40783 0.20547 0.0
C648 C 0.58156 0.41782 0.2308 0.0
Co649 Co 0.39795 0.78616 0.98519 0.0
Co650 Co 0.36095 0.80362 0.94002 0.0
O651 O 0.37069 0.79668 0.97826 0.0
C652 C 0.39466 0.8194 0.02794 0.0
O653 O 0.38786 0.83142 0.00774 0.0
C654 C 0.32809 0.77857 0.96591 0.0
O655 O 0.34216 0.76626 0.97549 0.0
O656 O 0.3683 0.776 0.92555 0.0
O657 O 0.39785 0.77099 0.94825 0.0
H658 H 0.36512 0.80742 0.83314 0.0
H659 H 0.36689 0.78098 0.03036 0.0
O660 O 0.39904 0.80101 0.02237 0.0
H661 H 0.38796 0.71163 0.00439 0.0
H662 H 0.45387 0.75722 0.04603 0.0
H663 H 0.43499 0.78104 0.94993 0.0
H664 H 0.4034 0.7413 0.98079 0.0
H665 H 0.4193 0.76973 0.03635 0.0
O666 O 0.33298 0.79376 0.95054 0.0
H667 H 0.37735 0.79913 0.88148 0.0
H668 H 0.32299 0.82235 0.91749 0.0
H669 H 0.46967 0.76851 0.9586 0.0
H670 H 0.35126 0.75175 0.05478 0.0
H671 H 0.47932 0.75649 0.00696 0.0
H672 H 0.36173 0.71676 0.04174 0.0
O673 O 0.41003 0.80988 0.96541 0.0
H674 H 0.33078 0.85284 0.01 0.0
H675 H 0.36791 0.84588 0.91923 0.0
H676 H 0.35991 0.88001 0.93752 0.0
H677 H 0.34116 0.88366 0.9832 0.0
H678 H 0.33929 0.819 0.99107 0.0
H679 H 0.31009 0.83072 0.86952 0.0
H680 H 0.33126 0.82333 0.82693 0.0
O681 O 0.38858 0.81417 0.92867 0.0
C682 C 0.38518 0.76677 0.92858 0.0
C683 C 0.35578 0.81076 0.85153 0.0
C684 C 0.32488 0.82381 0.87195 0.0
N685 N 0.35096 0.81036 0.90228 0.0
C686 C 0.36265 0.80615 0.87896 0.0
C687 C 0.33224 0.81899 0.89905 0.0
C688 C 0.33677 0.81967 0.84807 0.0
C689 C 0.3717 0.76582 0.02481 0.0
N690 N 0.38607 0.76286 0.00422 0.0
C691 C 0.36272 0.74931 0.03861 0.0
C692 C 0.36857 0.72969 0.03123 0.0
C693 C 0.38326 0.7268 0.01025 0.0
C694 C 0.39189 0.74366 0.99688 0.0
C695 C 0.44984 0.76238 0.02486 0.0
C696 C 0.43901 0.77571 0.97097 0.0
C697 C 0.4303 0.76953 0.01926 0.0
N698 N 0.42508 0.77599 0.99254 0.0
C699 C 0.4587 0.76869 0.97578 0.0
C700 C 0.46411 0.76197 0.00293 0.0
C701 C 0.40554 0.81744 0.94116 0.0
C702 C 0.3389 0.85145 0.99003 0.0
C703 C 0.35984 0.84733 0.93918 0.0
C704 C 0.35529 0.8667 0.94939 0.0
C705 C 0.34476 0.86874 0.97501 0.0
N706 N 0.35403 0.83045 0.95402 0.0
C707 C 0.3437 0.83232 0.97915 0.0
Co708 Co 0.97472 0.36758 0.763 0.0
Co709 Co 0.95583 0.4021 0.81152 0.0
O710 O 0.96261 0.39371 0.77257 0.0
C711 C 0.93919 0.36944 0.72343 0.0
O712 O 0.92746 0.375 0.74468 0.0
C713 C 0.98082 0.4355 0.78753 0.0
O714 O 0.99322 0.42156 0.77781 0.0
O715 O 0.98343 0.39446 0.82592 0.0
O716 O 0.99203 0.36831 0.79779 0.0
H717 H 0.95198 0.39444 0.91803 0.0
H718 H 0.97446 0.40051 0.71995 0.0
O719 O 0.95797 0.36607 0.72757 0.0
H720 H 0.04662 0.38384 0.7345 0.0
H721 H 1.00418 0.31533 0.69643 0.0
H722 H 0.98508 0.33056 0.79585 0.0
H723 H 0.01996 0.36527 0.76056 0.0
H724 H 0.9896 0.34859 0.70908 0.0
O725 O 0.96556 0.43039 0.80263 0.0
H726 H 0.96024 0.38377 0.86895 0.0
H727 H 0.93707 0.43927 0.83643 0.0
H728 H 0.99977 0.29718 0.78418 0.0
H729 H 1.00059 0.41927 0.69309 0.0
H730 H 0.00941 0.28938 0.73415 0.0
H731 H 0.03699 0.41104 0.70041 0.0
O732 O 0.95325 0.35299 0.78478 0.0
H733 H 0.90635 0.43412 0.74349 0.0
H734 H 0.91368 0.39427 0.8319 0.0
H735 H 0.87947 0.4026 0.81418 0.0
H736 H 0.87565 0.42271 0.76969 0.0
H737 H 0.94027 0.42528 0.76182 0.0
H738 H 0.9287 0.45061 0.88518 0.0
H739 H 0.93609 0.42808 0.92638 0.0
O740 O 0.94561 0.37415 0.82088 0.0
C741 C 0.9949 0.3795 0.81958 0.0
C742 C 0.94863 0.40436 0.90025 0.0
C743 C 0.9356 0.4359 0.88181 0.0
N744 N 0.94904 0.41083 0.84985 0.0
C745 C 0.95323 0.39838 0.87241 0.0
C746 C 0.94042 0.42942 0.85427 0.0
C747 C 0.93974 0.42325 0.90492 0.0
C748 C 0.99025 0.39669 0.72304 0.0
N749 N 0.99567 0.38182 0.74188 0.0
C750 C 1.00498 0.40743 0.70785 0.0
C751 C 0.0254 0.40283 0.71201 0.0
C752 C 0.03082 0.3876 0.73117 0.0
C753 C 0.01566 0.3772 0.74601 0.0
C754 C 1.00005 0.31856 0.71831 0.0
C755 C 0.98934 0.32733 0.77405 0.0
C756 C 0.99173 0.33734 0.72558 0.0
N757 N 0.98656 0.34155 0.7532 0.0
C758 C 0.99761 0.30838 0.76756 0.0
C759 C 1.00299 0.30401 0.73948 0.0
C760 C 0.94442 0.35694 0.80839 0.0
C761 C 0.90782 0.42539 0.76294 0.0
C762 C 0.91215 0.40293 0.81246 0.0
C763 C 0.89273 0.40766 0.80257 0.0
C764 C 0.8906 0.41896 0.77762 0.0
N765 N 0.92897 0.40931 0.79797 0.0
C766 C 0.92699 0.4204 0.77348 0.0
Co767 Co 0.39652 0.22583 0.51397 0.0
Co768 Co 0.36255 0.20567 0.56217 0.0
O769 O 0.37068 0.21305 0.52338 0.0
C770 C 0.39474 0.19069 0.47386 0.0
O771 O 0.38817 0.17912 0.49471 0.0
C772 C 0.32811 0.23044 0.54024 0.0
O773 O 0.34126 0.24448 0.53292 0.0
O774 O 0.36943 0.23338 0.57697 0.0
O775 O 0.39541 0.24283 0.54904 0.0
H776 H 0.37024 0.20127 0.66862 0.0
H777 H 0.36319 0.22517 0.47163 0.0
O778 O 0.39848 0.20938 0.47824 0.0
H779 H 0.37841 0.29759 0.48705 0.0
H780 H 0.44793 0.25725 0.44783 0.0
H781 H 0.43335 0.23669 0.54689 0.0
H782 H 0.39794 0.27114 0.51209 0.0
H783 H 0.41503 0.24177 0.46031 0.0
O784 O 0.33409 0.21455 0.55326 0.0
H785 H 0.3807 0.21021 0.61967 0.0
H786 H 0.32594 0.1856 0.58675 0.0
H787 H 0.46637 0.25228 0.53539 0.0
H788 H 0.34338 0.25112 0.44592 0.0
H789 H 0.47384 0.26266 0.48554 0.0
H790 H 0.3509 0.28763 0.45365 0.0
O791 O 0.41163 0.20447 0.53529 0.0
H792 H 0.33154 0.15589 0.4936 0.0
H793 H 0.37149 0.16354 0.58184 0.0
H794 H 0.36395 0.12927 0.56366 0.0
H795 H 0.34378 0.12527 0.51925 0.0
H796 H 0.33965 0.18988 0.51234 0.0
H797 H 0.31482 0.17653 0.63536 0.0
H798 H 0.33708 0.18431 0.6767 0.0
O799 O 0.39074 0.19612 0.57139 0.0
C800 C 0.38408 0.2453 0.57078 0.0
C801 C 0.36043 0.19775 0.65077 0.0
C802 C 0.32931 0.1839 0.63211 0.0
N803 N 0.354 0.19832 0.60038 0.0
C804 C 0.3663 0.20273 0.62301 0.0
C805 C 0.33566 0.18912 0.60465 0.0
C806 C 0.34182 0.18825 0.65529 0.0
C807 C 0.36667 0.24103 0.47492 0.0
N808 N 0.38172 0.24663 0.49335 0.0
C809 C 0.35535 0.25565 0.46038 0.0
C810 C 0.35956 0.27613 0.46476 0.0
C811 C 0.37497 0.28173 0.48352 0.0
C812 C 0.38594 0.26669 0.49774 0.0
C813 C 0.44485 0.25281 0.46963 0.0
C814 C 0.43644 0.24126 0.52517 0.0
C815 C 0.42627 0.24397 0.47681 0.0
N816 N 0.42225 0.23839 0.50432 0.0
C817 C 0.45519 0.25004 0.51878 0.0
C818 C 0.45938 0.25585 0.4908 0.0
C819 C 0.40791 0.19533 0.55876 0.0
C820 C 0.34031 0.15743 0.51299 0.0
C821 C 0.36285 0.16194 0.56241 0.0
C822 C 0.35855 0.14249 0.55227 0.0
C823 C 0.34721 0.14026 0.52737 0.0
N824 N 0.35604 0.17871 0.54819 0.0
C825 C 0.34489 0.17664 0.52378 0.0
Co826 Co 0.5379 0.64656 0.26645 0.0
Co827 Co 0.55343 0.61074 0.31477 0.0
O828 O 0.54821 0.61959 0.27558 0.0
C829 C 0.57289 0.64302 0.22595 0.0
O830 O 0.58491 0.63773 0.24702 0.0
C831 C 0.52891 0.57772 0.28885 0.0
O832 O 0.5168 0.59185 0.27893 0.0
O833 O 0.52537 0.61839 0.32671 0.0
O834 O 0.5208 0.64703 0.30171 0.0
H835 H 0.55238 0.6169 0.4216 0.0
H836 H 0.53516 0.61391 0.2232 0.0
O837 O 0.55427 0.64688 0.23059 0.0
H838 H 0.46466 0.636 0.23941 0.0
H839 H 0.51168 0.70116 0.20088 0.0
H840 H 0.53084 0.68415 0.29972 0.0
H841 H 0.49293 0.65235 0.26501 0.0
H842 H 0.52395 0.66688 0.21296 0.0
O843 O 0.54397 0.58259 0.30449 0.0
H844 H 0.54628 0.62822 0.37219 0.0
H845 H 0.57123 0.57333 0.34031 0.0
H846 H 0.51848 0.71856 0.28861 0.0
H847 H 0.50738 0.59732 0.1968 0.0
H848 H 0.5088 0.72726 0.23888 0.0
H849 H 0.47181 0.6083 0.20494 0.0
O850 O 0.56073 0.65926 0.28785 0.0
H851 H 0.60568 0.57917 0.25059 0.0
H852 H 0.59465 0.61858 0.33864 0.0
H853 H 0.62954 0.61032 0.3237 0.0
H854 H 0.63523 0.59044 0.27941 0.0
H855 H 0.57104 0.58791 0.26619 0.0
H856 H 0.57746 0.56134 0.3894 0.0
H857 H 0.56808 0.58323 0.43045 0.0
O858 O 0.56329 0.63858 0.32581 0.0
C859 C 0.51584 0.63487 0.32172 0.0
C860 C 0.5566 0.60725 0.40389 0.0
C861 C 0.57064 0.57606 0.38582 0.0
N862 N 0.55853 0.60152 0.3534 0.0
C863 C 0.55323 0.61361 0.37587 0.0
C864 C 0.56704 0.5829 0.35808 0.0
C865 C 0.56539 0.58835 0.40884 0.0
C866 C 0.51974 0.61891 0.22666 0.0
N867 N 0.51568 0.63406 0.24571 0.0
C868 C 0.50406 0.6094 0.21173 0.0
C869 C 0.48411 0.61554 0.21635 0.0
C870 C 0.48009 0.63105 0.23572 0.0
C871 C 0.49615 0.64019 0.25029 0.0
C872 C 0.51583 0.69755 0.22263 0.0
C873 C 0.52656 0.68778 0.27805 0.0
C874 C 0.52283 0.67817 0.22959 0.0
N875 N 0.52799 0.67347 0.25706 0.0
C876 C 0.51962 0.70731 0.27188 0.0
C877 C 0.5142 0.71218 0.24397 0.0
C878 C 0.56719 0.65524 0.31289 0.0
C879 C 0.60339 0.58778 0.26998 0.0
C880 C 0.59699 0.60997 0.31931 0.0
C881 C 0.61679 0.6053 0.31098 0.0
C882 C 0.61997 0.59414 0.28614 0.0
N883 N 0.58081 0.60363 0.30339 0.0
C884 C 0.58381 0.59271 0.27898 0.0
Co885 Co 0.11375 0.78841 0.01385 0.0
Co886 Co 0.15055 0.80492 0.06044 0.0
O887 O 0.14093 0.79881 0.02182 0.0
C888 C 0.11683 0.82312 0.97297 0.0
O889 O 0.12352 0.83485 0.99357 0.0
C890 C 0.18294 0.77945 0.03436 0.0
O891 O 0.16861 0.76762 0.02431 0.0
O892 O 0.14239 0.77739 0.07444 0.0
O893 O 0.11402 0.77162 0.0493 0.0
H894 H 0.14565 0.80752 0.16734 0.0
H895 H 0.14544 0.78558 0.96924 0.0
O896 O 0.11257 0.80461 0.97787 0.0
H897 H 0.12419 0.71503 0.98749 0.0
H898 H 0.05804 0.76134 0.95086 0.0
H899 H 0.07682 0.78155 0.04864 0.0
H900 H 0.10822 0.74339 0.01335 0.0
H901 H 0.09251 0.77379 0.96144 0.0
O902 O 0.17835 0.79453 0.05011 0.0
H903 H 0.13357 0.80018 0.11862 0.0
H904 H 0.18878 0.82247 0.08397 0.0
H905 H 0.04224 0.76901 0.03905 0.0
H906 H 0.16162 0.75771 0.94254 0.0
H907 H 0.03265 0.75881 0.98985 0.0
H908 H 0.15107 0.72211 0.95171 0.0
O909 O 0.10129 0.8113 0.03536 0.0
H910 H 0.18248 0.85431 0.99214 0.0
H911 H 0.1443 0.84706 0.08203 0.0
H912 H 0.15327 0.88122 0.0647 0.0
H913 H 0.17254 0.88501 0.01947 0.0
H914 H 0.17304 0.82043 0.01011 0.0
H915 H 0.20153 0.82991 0.13233 0.0
H916 H 0.17986 0.8225 0.17442 0.0
O917 O 0.12322 0.81589 0.07147 0.0
C918 C 0.12609 0.76744 0.06973 0.0
C919 C 0.15521 0.81087 0.14916 0.0
C920 C 0.18658 0.82341 0.12952 0.0
N921 N 0.16041 0.81099 0.09848 0.0
C922 C 0.14843 0.80679 0.12153 0.0
C923 C 0.17931 0.81911 0.10219 0.0
C924 C 0.17442 0.81925 0.15312 0.0
C925 C 0.14062 0.77015 0.97314 0.0
N926 N 0.12593 0.76612 0.99292 0.0
C927 C 0.1499 0.75442 0.95805 0.0
C928 C 0.14401 0.73445 0.96324 0.0
C929 C 0.12895 0.73047 0.98335 0.0
C930 C 0.12004 0.74658 0.99807 0.0
C931 C 0.06204 0.76572 0.97239 0.0
C932 C 0.0728 0.77704 0.0272 0.0
C933 C 0.08152 0.77284 0.97849 0.0
N934 N 0.08671 0.7783 0.00566 0.0
C935 C 0.05318 0.77 0.02189 0.0
C936 C 0.04781 0.76429 0.99428 0.0
C937 C 0.10613 0.81906 0.05937 0.0
C938 C 0.17414 0.85285 0.01192 0.0
C939 C 0.15263 0.84857 0.06228 0.0
C940 C 0.15771 0.86796 0.05261 0.0
C941 C 0.16853 0.87007 0.02725 0.0
N942 N 0.15823 0.83174 0.04717 0.0
C943 C 0.16882 0.8337 0.02226 0.0
Co944 Co 0.53853 0.86154 0.76306 0.0
Co945 Co 0.55296 0.89933 0.80867 0.0
O946 O 0.54806 0.88914 0.77012 0.0
C947 C 0.5735 0.86358 0.72284 0.0
O948 O 0.58557 0.86742 0.74446 0.0
C949 C 0.52894 0.93176 0.77999 0.0
O950 O 0.5172 0.91753 0.7695 0.0
O951 O 0.52477 0.89183 0.82026 0.0
O952 O 0.52203 0.86145 0.79901 0.0
H953 H 0.551 0.89632 0.91573 0.0
H954 H 0.5339 0.89224 0.71721 0.0
O955 O 0.55457 0.86095 0.72678 0.0
H956 H 0.4645 0.86883 0.73864 0.0
H957 H 0.51352 0.80429 0.70121 0.0
H958 H 0.53346 0.82457 0.7985 0.0
H959 H 0.4938 0.85456 0.76443 0.0
H960 H 0.52467 0.83931 0.71116 0.0
O961 O 0.54349 0.9271 0.79665 0.0
H962 H 0.54541 0.88352 0.86692 0.0
H963 H 0.57026 0.93765 0.8323 0.0
H964 H 0.52227 0.78945 0.78955 0.0
H965 H 0.50505 0.90669 0.69062 0.0
H966 H 0.51219 0.7791 0.7406 0.0
H967 H 0.47003 0.89505 0.70137 0.0
O968 O 0.5619 0.85031 0.78478 0.0
H969 H 0.60556 0.92893 0.74319 0.0
H970 H 0.59403 0.89294 0.83399 0.0
H971 H 0.62898 0.90102 0.81911 0.0
H972 H 0.63492 0.91919 0.77343 0.0
H973 H 0.57086 0.92042 0.75878 0.0
H974 H 0.57596 0.95111 0.88074 0.0
H975 H 0.56638 0.93035 0.92287 0.0
O976 O 0.56308 0.87198 0.82165 0.0
C977 C 0.51629 0.87454 0.81737 0.0
C978 C 0.55529 0.90548 0.89754 0.0
C979 C 0.56927 0.93625 0.8779 0.0
N980 N 0.55762 0.90976 0.8468 0.0
C981 C 0.5522 0.8983 0.86985 0.0
C982 C 0.56596 0.92857 0.85052 0.0
C983 C 0.5639 0.92459 0.90153 0.0
C984 C 0.51873 0.88691 0.72178 0.0
N985 N 0.51555 0.87254 0.74232 0.0
C986 C 0.50244 0.89523 0.70675 0.0
C987 C 0.4828 0.88873 0.71284 0.0
C988 C 0.47968 0.87403 0.73377 0.0
C989 C 0.49633 0.86607 0.74839 0.0
C990 C 0.51782 0.80863 0.72264 0.0
C991 C 0.52895 0.82024 0.77719 0.0
C992 C 0.52417 0.82843 0.7284 0.0
N993 N 0.5295 0.83404 0.75545 0.0
C994 C 0.52269 0.8003 0.77223 0.0
C995 C 0.51707 0.7945 0.74475 0.0
C996 C 0.56788 0.85518 0.80974 0.0
C997 C 0.60317 0.92107 0.76318 0.0
C998 C 0.59648 0.90081 0.81406 0.0
C999 C 0.61631 0.90538 0.80577 0.0
C1000 C 0.61963 0.91558 0.78014 0.0
N1001 N 0.5804 0.90632 0.79735 0.0
C1002 C 0.58354 0.91627 0.77217 0.0
Co1003 Co 0.39322 0.28289 0.01962 0.0
Co1004 Co 0.35853 0.30636 0.06418 0.0
O1005 O 0.36762 0.29695 0.02661 0.0
C1006 C 0.39463 0.31748 0.97868 0.0
O1007 O 0.38793 0.32954 0.99889 0.0
C1008 C 0.32491 0.2809 0.0417 0.0
O1009 O 0.3387 0.2678 0.03346 0.0
O1010 O 0.36499 0.27961 0.08233 0.0
O1011 O 0.38986 0.26656 0.05504 0.0
H1012 H 0.36398 0.31704 0.17004 0.0
H1013 H 0.36211 0.28413 0.97402 0.0
O1014 O 0.39732 0.29868 0.98363 0.0
H1015 H 0.37283 0.2115 0.99421 0.0
H1016 H 0.44567 0.24822 0.9586 0.0
H1017 H 0.42816 0.27103 0.05571 0.0
H1018 H 0.39233 0.2376 0.02007 0.0
H1019 H 0.41306 0.26529 0.968 0.0
O1020 O 0.33016 0.29681 0.05529 0.0
H1021 H 0.37545 0.30526 0.12278 0.0
H1022 H 0.32141 0.32763 0.08482 0.0
H1023 H 0.46087 0.25388 0.04731 0.0
H1024 H 0.34244 0.25852 0.94741 0.0
H1025 H 0.46981 0.24236 0.99845 0.0
H1026 H 0.3477 0.2219 0.95754 0.0
O1027 O 0.40852 0.30392 0.04132 0.0
H1028 H 0.3294 0.35221 0.98891 0.0
H1029 H 0.36745 0.3494 0.07938 0.0
H1030 H 0.3606 0.38257 0.05703 0.0
H1031 H 0.34141 0.38411 0.01148 0.0
H1032 H 0.33675 0.31935 0.01185 0.0
H1033 H 0.30927 0.33951 0.1317 0.0
H1034 H 0.33066 0.33431 0.17471 0.0
O1035 O 0.38652 0.31634 0.07356 0.0
C1036 C 0.3784 0.26619 0.07689 0.0
C1037 C 0.35454 0.31944 0.15145 0.0
C1038 C 0.32382 0.33202 0.12994 0.0
N1039 N 0.34916 0.31583 0.10106 0.0
C1040 C 0.36097 0.31283 0.12463 0.0
C1041 C 0.33075 0.32521 0.10346 0.0
C1042 C 0.33584 0.32911 0.15406 0.0
C1043 C 0.36463 0.26822 0.97832 0.0
N1044 N 0.37838 0.26237 0.99852 0.0
C1045 C 0.35339 0.25379 0.96328 0.0
C1046 C 0.35632 0.23325 0.96901 0.0
C1047 C 0.37041 0.2274 0.9896 0.0
C1048 C 0.38136 0.24225 0.00425 0.0
C1049 C 0.44194 0.25315 0.97999 0.0
C1050 C 0.4319 0.26595 0.03442 0.0
C1051 C 0.42352 0.26287 0.98543 0.0
N1052 N 0.41867 0.26906 0.01241 0.0
C1053 C 0.45046 0.25629 0.02978 0.0
C1054 C 0.45547 0.24985 0.00236 0.0
C1055 C 0.40427 0.31508 0.06277 0.0
C1056 C 0.33772 0.35173 0.0088 0.0
C1057 C 0.35916 0.34994 0.05952 0.0
C1058 C 0.35527 0.36877 0.047 0.0
C1059 C 0.3445 0.36963 0.02145 0.0
N1060 N 0.35244 0.33245 0.047 0.0
C1061 C 0.34186 0.33318 0.02196 0.0
Co1062 Co 0.97325 0.14783 0.26492 0.0
Co1063 Co 0.95566 0.1117 0.31147 0.0
O1064 O 0.96205 0.121 0.27288 0.0
C1065 C 0.9387 0.14569 0.2237 0.0
O1066 O 0.92666 0.13954 0.24428 0.0
C1067 C 0.9804 0.07787 0.28722 0.0
O1068 O 0.99433 0.09118 0.2801 0.0
O1069 O 0.98359 0.11866 0.32518 0.0
O1070 O 0.98984 0.14716 0.30054 0.0
H1071 H 0.9539 0.11638 0.41842 0.0
H1072 H 0.97547 0.11536 0.22139 0.0
O1073 O 0.95732 0.14933 0.22871 0.0
H1074 H 0.04643 0.1353 0.2393 0.0
H1075 H 1.00214 0.20258 0.20184 0.0
H1076 H 0.98099 0.18465 0.29956 0.0
H1077 H 0.01837 0.15244 0.26432 0.0
H1078 H 0.98872 0.16849 0.21253 0.0
O1079 O 0.9646 0.08357 0.30069 0.0
H1080 H 0.9615 0.12827 0.3697 0.0
H1081 H 0.93653 0.07423 0.335 0.0
H1082 H 0.9945 0.21886 0.28987 0.0
H1083 H 1.00305 0.09794 0.19563 0.0
H1084 H 1.00518 0.22802 0.24071 0.0
H1085 H 0.03884 0.10785 0.20461 0.0
O1086 O 0.95059 0.16099 0.28619 0.0
H1087 H 0.90453 0.082 0.24376 0.0
H1088 H 0.91398 0.11982 0.33353 0.0
H1089 H 0.87936 0.11235 0.31663 0.0
H1090 H 0.87446 0.09327 0.27147 0.0
H1091 H 0.93888 0.08997 0.26128 0.0
H1092 H 0.92879 0.06168 0.38338 0.0
H1093 H 0.93742 0.08285 0.4255 0.0
O1094 O 0.94603 0.13944 0.32275 0.0
C1095 C 0.99387 0.13479 0.32068 0.0
C1096 C 0.95001 0.10703 0.40024 0.0
C1097 C 0.93595 0.07632 0.38057 0.0
N1098 N 0.94936 0.10201 0.34953 0.0
C1099 C 0.95424 0.11371 0.37259 0.0
C1100 C 0.94042 0.08348 0.35323 0.0
C1101 C 0.94079 0.08821 0.40419 0.0
C1102 C 0.991 0.11986 0.22526 0.0
N1103 N 0.9953 0.13489 0.2444 0.0
C1104 C 0.00655 0.1099 0.21067 0.0
C1105 C 0.02663 0.11544 0.21575 0.0
C1106 C 0.0309 0.13082 0.23523 0.0
C1107 C 0.01496 0.14042 0.24946 0.0
C1108 C 0.99756 0.19877 0.22336 0.0
C1109 C 0.9857 0.18848 0.27814 0.0
C1110 C 0.98989 0.1795 0.22952 0.0
N1111 N 0.98416 0.17454 0.25667 0.0
C1112 C 0.9933 0.20789 0.27277 0.0
C1113 C 0.99927 0.21303 0.24517 0.0
C1114 C 0.94307 0.15651 0.3105 0.0
C1115 C 0.90646 0.09028 0.26351 0.0
C1116 C 0.91198 0.11158 0.3138 0.0
C1117 C 0.89234 0.10735 0.30437 0.0
C1118 C 0.8896 0.09663 0.27904 0.0
N1119 N 0.92845 0.10527 0.29847 0.0
C1120 C 0.92588 0.09477 0.2736 0.0
Co1121 Co 0.11385 0.72223 0.51413 0.0
Co1122 Co 0.14972 0.70681 0.56271 0.0
O1123 O 0.14057 0.71147 0.5236 0.0
C1124 C 0.11471 0.6853 0.47711 0.0
O1125 O 0.11704 0.67382 0.49977 0.0
C1126 C 0.18235 0.73121 0.53598 0.0
O1127 O 0.16808 0.7431 0.52591 0.0
O1128 O 0.1422 0.735 0.57405 0.0
O1129 O 0.11417 0.74064 0.54805 0.0
H1130 H 0.14422 0.7091 0.66957 0.0
H1131 H 0.14639 0.72235 0.47042 0.0
O1132 O 0.11309 0.70446 0.47952 0.0
H1133 H 0.1265 0.79401 0.48165 0.0
H1134 H 0.05974 0.74721 0.44691 0.0
H1135 H 0.07673 0.73195 0.5471 0.0
H1136 H 0.10945 0.76721 0.50945 0.0
H1137 H 0.09369 0.7344 0.45974 0.0
O1138 O 0.1777 0.7162 0.55184 0.0
H1139 H 0.13257 0.71455 0.62016 0.0
H1140 H 0.18736 0.68946 0.58819 0.0
H1141 H 0.04265 0.74487 0.53523 0.0
H1142 H 0.16365 0.74862 0.4419 0.0
H1143 H 0.03398 0.75259 0.48482 0.0
H1144 H 0.15379 0.78477 0.44752 0.0
O1145 O 0.10044 0.70078 0.53759 0.0
H1146 H 0.18071 0.65378 0.49925 0.0
H1147 H 0.14221 0.66589 0.58781 0.0
H1148 H 0.15037 0.63081 0.5736 0.0
H1149 H 0.1698 0.62458 0.52906 0.0
H1150 H 0.17209 0.68861 0.51415 0.0
H1151 H 0.19968 0.68387 0.63726 0.0
H1152 H 0.17801 0.69365 0.67836 0.0
O1153 O 0.12209 0.69709 0.57426 0.0
C1154 C 0.12633 0.74528 0.56821 0.0
C1155 C 0.15378 0.70472 0.65184 0.0
C1156 C 0.18492 0.69058 0.63371 0.0
N1157 N 0.15921 0.7022 0.60133 0.0
C1158 C 0.14724 0.70772 0.62382 0.0
C1159 C 0.17788 0.69383 0.60597 0.0
C1160 C 0.17275 0.69607 0.65676 0.0
C1161 C 0.14185 0.73802 0.47278 0.0
N1162 N 0.12691 0.74323 0.49161 0.0
C1163 C 0.15175 0.75284 0.45665 0.0
C1164 C 0.14624 0.77312 0.45986 0.0
C1165 C 0.13095 0.77831 0.47904 0.0
C1166 C 0.12141 0.76308 0.49483 0.0
C1167 C 0.06335 0.74393 0.46896 0.0
C1168 C 0.07311 0.73539 0.52513 0.0
C1169 C 0.08254 0.73664 0.47635 0.0
N1170 N 0.08724 0.73258 0.50417 0.0
C1171 C 0.05377 0.74265 0.51853 0.0
C1172 C 0.04891 0.74696 0.49024 0.0
C1173 C 0.10492 0.69403 0.56236 0.0
C1174 C 0.1723 0.6563 0.51875 0.0
C1175 C 0.15063 0.6633 0.56837 0.0
C1176 C 0.15524 0.64341 0.56046 0.0
C1177 C 0.16615 0.63992 0.53547 0.0
N1178 N 0.15678 0.67929 0.55191 0.0
C1179 C 0.16743 0.67599 0.52735 0.0
Co1180 Co 0.53754 0.14658 0.73633 0.0
Co1181 Co 0.55567 0.11054 0.69024 0.0
O1182 O 0.54809 0.11945 0.72861 0.0
C1183 C 0.56999 0.1422 0.78008 0.0
O1184 O 0.58237 0.13596 0.75996 0.0
C1185 C 0.5299 0.07739 0.71367 0.0
O1186 O 0.5174 0.0914 0.72293 0.0
O1187 O 0.52836 0.11829 0.67516 0.0
O1188 O 0.52304 0.14738 0.69885 0.0
H1189 H 0.56128 0.11695 0.58373 0.0
H1190 H 0.53141 0.1145 0.77984 0.0
O1191 O 0.55171 0.14674 0.77407 0.0
H1192 H 0.46266 0.13654 0.75236 0.0
H1193 H 0.50773 0.20129 0.7985 0.0
H1194 H 0.53323 0.18441 0.70253 0.0
H1195 H 0.49281 0.15238 0.73058 0.0
H1196 H 0.5203 0.16688 0.7878 0.0
O1197 O 0.54553 0.08241 0.69928 0.0
H1198 H 0.55226 0.12821 0.63228 0.0
H1199 H 0.57462 0.07298 0.66678 0.0
H1200 H 0.52066 0.21894 0.71222 0.0
H1201 H 0.50167 0.09844 0.80244 0.0
H1202 H 0.50779 0.22758 0.76052 0.0
H1203 H 0.46699 0.10941 0.78863 0.0
O1204 O 0.56166 0.15897 0.71798 0.0
H1205 H 0.60359 0.07863 0.76051 0.0
H1206 H 0.59828 0.11782 0.67121 0.0
H1207 H 0.63206 0.10927 0.69028 0.0
H1208 H 0.63487 0.08949 0.73522 0.0
H1209 H 0.57011 0.0877 0.74084 0.0
H1210 H 0.58373 0.06105 0.61858 0.0
H1211 H 0.57713 0.08314 0.57665 0.0
O1212 O 0.5665 0.13836 0.68044 0.0
C1213 C 0.51911 0.13512 0.67856 0.0
C1214 C 0.56428 0.10721 0.60184 0.0
C1215 C 0.57685 0.07582 0.62139 0.0
N1216 N 0.56303 0.10132 0.65234 0.0
C1217 C 0.55925 0.11352 0.62938 0.0
C1218 C 0.57161 0.08264 0.64862 0.0
C1219 C 0.57316 0.08823 0.59788 0.0
C1220 C 0.51637 0.11952 0.77397 0.0
N1221 N 0.51386 0.13439 0.75397 0.0
C1222 C 0.49959 0.1103 0.78673 0.0
C1223 C 0.48013 0.11643 0.77893 0.0
C1224 C 0.47769 0.13163 0.75855 0.0
C1225 C 0.49483 0.14049 0.74621 0.0
C1226 C 0.51326 0.1977 0.77735 0.0
C1227 C 0.52753 0.18799 0.72353 0.0
C1228 C 0.52044 0.17825 0.77118 0.0
N1229 N 0.52736 0.17359 0.74449 0.0
C1230 C 0.52049 0.2076 0.72892 0.0
C1231 C 0.51329 0.21245 0.75603 0.0
C1232 C 0.56963 0.15501 0.69382 0.0
C1233 C 0.60256 0.08721 0.74087 0.0
C1234 C 0.59937 0.10929 0.69084 0.0
C1235 C 0.61854 0.10444 0.70149 0.0
C1236 C 0.62011 0.09333 0.7267 0.0
N1237 N 0.58222 0.10321 0.70484 0.0
C1238 C 0.58364 0.09232 0.72957 0.0
Co1239 Co 0.11013 0.28755 0.99106 0.0
Co1240 Co 0.14752 0.30424 0.9453 0.0
O1241 O 0.13725 0.29844 0.98375 0.0
C1242 C 0.11219 0.32289 0.03098 0.0
O1243 O 0.1204 0.33407 0.01086 0.0
C1244 C 0.17984 0.27963 0.97321 0.0
O1245 O 0.16555 0.26788 0.98355 0.0
O1246 O 0.14002 0.27645 0.93164 0.0
O1247 O 0.11163 0.27001 0.95643 0.0
H1248 H 0.14449 0.30562 0.83822 0.0
H1249 H 0.14101 0.28653 0.03691 0.0
O1250 O 0.10763 0.30444 0.02622 0.0
H1251 H 0.12176 0.21509 0.02139 0.0
H1252 H 0.05372 0.26026 0.05266 0.0
H1253 H 0.07417 0.27914 0.955 0.0
H1254 H 0.10558 0.24243 0.99366 0.0
H1255 H 0.08812 0.27331 0.04308 0.0
O1256 O 0.17525 0.29433 0.95676 0.0
H1257 H 0.13165 0.29862 0.88665 0.0
H1258 H 0.18592 0.32207 0.92272 0.0
H1259 H 0.03968 0.26597 0.96359 0.0
H1260 H 0.15736 0.25972 0.06549 0.0
H1261 H 0.02925 0.25644 0.01271 0.0
H1262 H 0.14783 0.22368 0.05769 0.0
O1263 O 0.09759 0.3097 0.96812 0.0
H1264 H 0.17784 0.35478 0.01335 0.0
H1265 H 0.14098 0.34605 0.92263 0.0
H1266 H 0.14926 0.38051 0.93943 0.0
H1267 H 0.16786 0.38504 0.98507 0.0
H1268 H 0.16907 0.32059 0.99591 0.0
H1269 H 0.19941 0.32918 0.87466 0.0
H1270 H 0.17861 0.32101 0.832 0.0
O1271 O 0.12028 0.3147 0.93307 0.0
C1272 C 0.12405 0.26598 0.93638 0.0
C1273 C 0.15368 0.30929 0.85664 0.0
C1274 C 0.18452 0.32249 0.8771 0.0
N1275 N 0.15797 0.31002 0.90748 0.0
C1276 C 0.14647 0.30541 0.88412 0.0
C1277 C 0.17682 0.31838 0.90425 0.0
C1278 C 0.17283 0.31791 0.85317 0.0
C1279 C 0.13664 0.2709 0.03358 0.0
N1280 N 0.12241 0.26605 0.0135 0.0
C1281 C 0.14601 0.25578 0.04975 0.0
C1282 C 0.14069 0.23556 0.04533 0.0
C1283 C 0.12609 0.23073 0.02493 0.0
C1284 C 0.11706 0.24626 0.00913 0.0
C1285 C 0.05809 0.26435 0.03116 0.0
C1286 C 0.06979 0.27493 0.97642 0.0
C1287 C 0.07753 0.27181 0.02562 0.0
N1288 N 0.08319 0.27691 0.99849 0.0
C1289 C 0.05022 0.26753 0.98116 0.0
C1290 C 0.04437 0.2622 0.00873 0.0
C1291 C 0.10284 0.31749 0.9443 0.0
C1292 C 0.16978 0.353 0.99338 0.0
C1293 C 0.14901 0.34788 0.94257 0.0
C1294 C 0.1537 0.36744 0.95193 0.0
C1295 C 0.16416 0.36997 0.97753 0.0
N1296 N 0.15462 0.3313 0.95821 0.0
C1297 C 0.16485 0.33366 0.98334 0.0
Co1298 Co 0.97719 0.8636 0.24008 0.0
Co1299 Co 0.95652 0.89826 0.19326 0.0
O1300 O 0.96412 0.88949 0.2317 0.0
C1301 C 0.94217 0.86353 0.28059 0.0
O1302 O 0.93013 0.86969 0.26002 0.0
C1303 C 0.98109 0.93275 0.21588 0.0
O1304 O 0.99531 0.91972 0.22282 0.0
O1305 O 0.98421 0.89187 0.17789 0.0
O1306 O 0.99401 0.86557 0.20498 0.0
H1307 H 0.95157 0.89236 0.08663 0.0
H1308 H 0.97628 0.89625 0.28342 0.0
O1309 O 0.96097 0.86078 0.27588 0.0
H1310 H 0.0488 0.88191 0.26758 0.0
H1311 H 0.0094 0.81128 0.30403 0.0
H1312 H 0.98829 0.82753 0.20572 0.0
H1313 H 0.02251 0.86251 0.242 0.0
H1314 H 0.99358 0.84425 0.2929 0.0
O1315 O 0.96518 0.92668 0.20299 0.0
H1316 H 0.96088 0.88115 0.1351 0.0
H1317 H 0.93602 0.93512 0.17013 0.0
H1318 H 1.00422 0.79446 0.21585 0.0
H1319 H 1.00206 0.91591 0.30971 0.0
H1320 H 0.01487 0.78614 0.26532 0.0
H1321 H 0.03862 0.90883 0.30177 0.0
O1322 O 0.95592 0.84862 0.2183 0.0
H1323 H 0.90689 0.92731 0.26366 0.0
H1324 H 0.91436 0.88943 0.17361 0.0
H1325 H 0.88014 0.89625 0.19249 0.0
H1326 H 0.87624 0.91537 0.23781 0.0
H1327 H 0.94083 0.91994 0.24418 0.0
H1328 H 0.92658 0.94698 0.12201 0.0
H1329 H 0.93429 0.9255 0.07986 0.0
O1330 O 0.94717 0.87018 0.18317 0.0
C1331 C 0.99628 0.87723 0.18354 0.0
C1332 C 0.94808 0.90183 0.10484 0.0
C1333 C 0.93409 0.9325 0.12469 0.0
N1334 N 0.9489 0.90741 0.15542 0.0
C1335 C 0.95327 0.89554 0.13234 0.0
C1336 C 0.93952 0.92573 0.15188 0.0
C1337 C 0.93841 0.92044 0.10105 0.0
C1338 C 0.99216 0.89298 0.28 0.0
N1339 N 0.99788 0.87827 0.26112 0.0
C1340 C 0.00669 0.9042 0.29489 0.0
C1341 C 0.0272 0.90025 0.29039 0.0
C1342 C 0.03292 0.88516 0.27118 0.0
C1343 C 0.01797 0.87428 0.25664 0.0
C1344 C 1.00483 0.81473 0.28239 0.0
C1345 C 0.99298 0.82407 0.22727 0.0
C1346 C 0.9958 0.83335 0.27597 0.0
N1347 N 0.99006 0.83784 0.24867 0.0
C1348 C 1.00195 0.8053 0.23289 0.0
C1349 C 0.0079 0.80063 0.26066 0.0
C1350 C 0.94665 0.85274 0.19507 0.0
C1351 C 0.90839 0.91899 0.24387 0.0
C1352 C 0.9128 0.89762 0.19344 0.0
C1353 C 0.89338 0.90152 0.20397 0.0
C1354 C 0.8912 0.91226 0.22938 0.0
N1355 N 0.92959 0.90426 0.20776 0.0
C1356 C 0.92757 0.91482 0.23268 0.0
Co1357 Co 0.3966 0.72354 0.49054 0.0
Co1358 Co 0.36019 0.7073 0.44337 0.0
O1359 O 0.36962 0.71282 0.48222 0.0
C1360 C 0.39373 0.68834 0.53075 0.0
O1361 O 0.38751 0.67663 0.50985 0.0
C1362 C 0.32756 0.73199 0.46969 0.0
O1363 O 0.34177 0.74404 0.47958 0.0
O1364 O 0.36763 0.73526 0.43072 0.0
O1365 O 0.39617 0.74088 0.45553 0.0
H1366 H 0.36503 0.70737 0.3364 0.0
H1367 H 0.36466 0.7254 0.53493 0.0
O1368 O 0.39785 0.70693 0.52615 0.0
H1369 H 0.38516 0.79643 0.51876 0.0
H1370 H 0.45182 0.75036 0.55459 0.0
H1371 H 0.4335 0.73141 0.45614 0.0
H1372 H 0.4016 0.76861 0.49231 0.0
H1373 H 0.41753 0.73764 0.54348 0.0
O1374 O 0.33227 0.71688 0.4541 0.0
H1375 H 0.37697 0.71387 0.38542 0.0
H1376 H 0.3224 0.68934 0.41908 0.0
H1377 H 0.46791 0.74422 0.46626 0.0
H1378 H 0.34801 0.75271 0.56217 0.0
H1379 H 0.47726 0.75379 0.5158 0.0
H1380 H 0.35818 0.78854 0.55406 0.0
O1381 O 0.4094 0.70109 0.46846 0.0
H1382 H 0.32924 0.65568 0.50924 0.0
H1383 H 0.36758 0.66583 0.42003 0.0
H1384 H 0.35938 0.63109 0.43579 0.0
H1385 H 0.34003 0.62585 0.48067 0.0
H1386 H 0.33793 0.69016 0.49282 0.0
H1387 H 0.30979 0.68271 0.37041 0.0
H1388 H 0.33121 0.69168 0.32866 0.0
O1389 O 0.38774 0.69729 0.43186 0.0
C1390 C 0.38377 0.74538 0.43561 0.0
C1391 C 0.35558 0.70334 0.35442 0.0
C1392 C 0.32457 0.68953 0.37351 0.0
N1393 N 0.35046 0.70186 0.40507 0.0
C1394 C 0.36229 0.70694 0.38222 0.0
C1395 C 0.33177 0.69336 0.40101 0.0
C1396 C 0.3366 0.69456 0.35009 0.0
C1397 C 0.36931 0.74093 0.53148 0.0
N1398 N 0.38407 0.7454 0.51198 0.0
C1399 C 0.35977 0.75634 0.54689 0.0
C1400 C 0.36546 0.77644 0.54228 0.0
C1401 C 0.38057 0.78088 0.52245 0.0
C1402 C 0.38975 0.76507 0.50741 0.0
C1403 C 0.44792 0.74626 0.53291 0.0
C1404 C 0.43741 0.73565 0.47772 0.0
C1405 C 0.42854 0.739 0.5265 0.0
N1406 N 0.42348 0.73389 0.49915 0.0
C1407 C 0.45694 0.74285 0.48334 0.0
C1408 C 0.46218 0.74819 0.51114 0.0
C1409 C 0.4048 0.69399 0.44396 0.0
C1410 C 0.33762 0.65777 0.4896 0.0
C1411 C 0.35921 0.66368 0.43963 0.0
C1412 C 0.35457 0.64397 0.44841 0.0
C1413 C 0.34371 0.64104 0.47358 0.0
N1414 N 0.35315 0.68002 0.45542 0.0
C1415 C 0.34252 0.67727 0.48014 0.0
Co1416 Co 0.47324 0.1473 0.23879 0.0
Co1417 Co 0.45743 0.11158 0.19047 0.0
O1418 O 0.46287 0.12033 0.22968 0.0
C1419 C 0.43847 0.14374 0.27963 0.0
O1420 O 0.42641 0.13823 0.25872 0.0
C1421 C 0.4818 0.07832 0.21621 0.0
O1422 O 0.49394 0.09231 0.22646 0.0
O1423 O 0.48545 0.11926 0.17828 0.0
O1424 O 0.49015 0.14783 0.20336 0.0
H1425 H 0.45789 0.11813 0.08368 0.0
H1426 H 0.47616 0.11461 0.28197 0.0
O1427 O 0.45707 0.14761 0.27481 0.0
H1428 H 0.54662 0.13667 0.26506 0.0
H1429 H 0.49995 0.2018 0.30414 0.0
H1430 H 0.48006 0.18495 0.20554 0.0
H1431 H 0.51824 0.15306 0.23978 0.0
H1432 H 0.48762 0.16752 0.29213 0.0
O1433 O 0.46687 0.08337 0.20047 0.0
H1434 H 0.46428 0.12926 0.1331 0.0
H1435 H 0.43945 0.07425 0.16488 0.0
H1436 H 0.49249 0.21936 0.21657 0.0
H1437 H 0.50405 0.09799 0.30808 0.0
H1438 H 0.50253 0.22798 0.26618 0.0
H1439 H 0.53959 0.10894 0.29958 0.0
O1440 O 0.45029 0.16001 0.21771 0.0
H1441 H 0.40548 0.07982 0.25504 0.0
H1442 H 0.41609 0.11945 0.16704 0.0
H1443 H 0.38127 0.11113 0.1823 0.0
H1444 H 0.37579 0.09114 0.22656 0.0
H1445 H 0.44004 0.08863 0.23915 0.0
H1446 H 0.43293 0.06245 0.11579 0.0
H1447 H 0.44211 0.08449 0.07478 0.0
O1448 O 0.44748 0.13943 0.17971 0.0
C1449 C 0.49503 0.13573 0.18327 0.0
C1450 C 0.45377 0.10841 0.10137 0.0
C1451 C 0.43979 0.07715 0.11939 0.0
N1452 N 0.45211 0.10249 0.15184 0.0
C1453 C 0.4573 0.11466 0.1294 0.0
C1454 C 0.44356 0.08389 0.14714 0.0
C1455 C 0.44493 0.08953 0.09639 0.0
C1456 C 0.49157 0.1196 0.27836 0.0
N1457 N 0.49556 0.13476 0.25927 0.0
C1458 C 0.5073 0.11007 0.29312 0.0
C1459 C 0.52725 0.11619 0.2883 0.0
C1460 C 0.5312 0.13172 0.2689 0.0
C1461 C 0.51507 0.14088 0.2545 0.0
C1462 C 0.49564 0.19822 0.28244 0.0
C1463 C 0.4845 0.18854 0.22715 0.0
C1464 C 0.4886 0.17885 0.27552 0.0
N1465 N 0.48323 0.17419 0.24812 0.0
C1466 C 0.49149 0.20807 0.23328 0.0
C1467 C 0.4971 0.2129 0.26113 0.0
C1468 C 0.44359 0.15601 0.19279 0.0
C1469 C 0.40767 0.08848 0.23567 0.0
C1470 C 0.41384 0.11079 0.18637 0.0
C1471 C 0.39408 0.10609 0.19487 0.0
C1472 C 0.39102 0.09486 0.2197 0.0
N1473 N 0.4301 0.10443 0.2021 0.0
C1474 C 0.42721 0.09345 0.2265 0.0
Co1475 Co 0.61318 0.72381 0.99054 0.0
Co1476 Co 0.65003 0.70759 0.94382 0.0
O1477 O 0.64034 0.71329 0.98257 0.0
C1478 C 0.61662 0.68891 0.03115 0.0
O1479 O 0.62482 0.67776 0.01102 0.0
C1480 C 0.68265 0.73248 0.97056 0.0
O1481 O 0.66845 0.74427 0.981 0.0
O1482 O 0.64225 0.73538 0.93056 0.0
O1483 O 0.61379 0.74105 0.95551 0.0
H1484 H 0.64545 0.70657 0.83684 0.0
H1485 H 0.64467 0.72586 0.0355 0.0
O1486 O 0.61153 0.70719 0.02615 0.0
H1487 H 0.6242 0.79679 0.01865 0.0
H1488 H 0.55738 0.75072 0.05347 0.0
H1489 H 0.57648 0.73123 0.95553 0.0
H1490 H 0.60807 0.76888 0.99202 0.0
H1491 H 0.59182 0.73817 0.04299 0.0
O1492 O 0.6779 0.7176 0.95452 0.0
H1493 H 0.63331 0.71337 0.88568 0.0
H1494 H 0.68813 0.68995 0.92004 0.0
H1495 H 0.54194 0.74388 0.96501 0.0
H1496 H 0.66102 0.75328 0.06295 0.0
H1497 H 0.53218 0.75371 0.01429 0.0
H1498 H 0.65086 0.78906 0.05449 0.0
O1499 O 0.60064 0.70124 0.96842 0.0
H1500 H 0.68165 0.65702 0.01063 0.0
H1501 H 0.64326 0.66581 0.92119 0.0
H1502 H 0.65195 0.63134 0.93756 0.0
H1503 H 0.67132 0.62678 0.98255 0.0
H1504 H 0.67246 0.69122 0.99364 0.0
H1505 H 0.70093 0.68304 0.87156 0.0
H1506 H 0.6795 0.6913 0.82955 0.0
O1507 O 0.62263 0.69704 0.93231 0.0
C1508 C 0.62605 0.74543 0.93539 0.0
C1509 C 0.65491 0.70285 0.85498 0.0
C1510 C 0.68606 0.68968 0.87446 0.0
N1511 N 0.65994 0.70195 0.90568 0.0
C1512 C 0.6481 0.70663 0.88268 0.0
C1513 C 0.67875 0.69367 0.90186 0.0
C1514 C 0.67403 0.6943 0.8509 0.0
C1515 C 0.64002 0.74137 0.03191 0.0
N1516 N 0.62545 0.74575 0.01211 0.0
C1517 C 0.64939 0.75684 0.04743 0.0
C1518 C 0.64372 0.77692 0.04263 0.0
C1519 C 0.62879 0.78127 0.02249 0.0
C1520 C 0.61978 0.7654 0.00734 0.0
C1521 C 0.56145 0.7465 0.0319 0.0
C1522 C 0.57239 0.73558 0.97701 0.0
C1523 C 0.58091 0.73932 0.02586 0.0
N1524 N 0.58619 0.73405 0.99865 0.0
C1525 C 0.55279 0.74269 0.98225 0.0
C1526 C 0.54732 0.74818 0.00991 0.0
C1527 C 0.60548 0.6938 0.94422 0.0
C1528 C 0.67326 0.65882 0.99095 0.0
C1529 C 0.65162 0.66396 0.94086 0.0
C1530 C 0.65654 0.6444 0.94998 0.0
C1531 C 0.66743 0.64185 0.97521 0.0
N1532 N 0.65742 0.68053 0.95639 0.0
C1533 C 0.66808 0.67815 0.98115 0.0
Co1534 Co 0.039 0.86304 0.73487 0.0
Co1535 Co 0.05371 0.90112 0.68994 0.0
O1536 O 0.04792 0.89094 0.72833 0.0
C1537 C 0.07183 0.86805 0.77809 0.0
O1538 O 0.08366 0.87564 0.75823 0.0
C1539 C 0.02811 0.93295 0.71698 0.0
O1540 O 0.01644 0.91845 0.7269 0.0
O1541 O 0.02608 0.89291 0.67676 0.0
O1542 O 0.02373 0.8625 0.69793 0.0
H1543 H 0.05493 0.89779 0.58287 0.0
H1544 H 0.03196 0.89346 0.78037 0.0
O1545 O 0.05381 0.86258 0.77207 0.0
H1546 H 0.96402 0.86823 0.75427 0.0
H1547 H 0.0132 0.80498 0.79463 0.0
H1548 H 0.03653 0.82597 0.69914 0.0
H1549 H 0.99454 0.8548 0.73048 0.0
H1550 H 0.02363 0.84034 0.78557 0.0
O1551 O 0.04322 0.92864 0.70116 0.0
H1552 H 0.04822 0.88498 0.6314 0.0
H1553 H 0.07078 0.93977 0.66704 0.0
H1554 H 0.02609 0.79051 0.70719 0.0
H1555 H 1.00185 0.9071 0.80499 0.0
H1556 H 0.0143 0.7798 0.75523 0.0
H1557 H 0.96757 0.89453 0.79189 0.0
O1558 O 0.06346 0.85263 0.71495 0.0
H1559 H 0.1036 0.93274 0.75772 0.0
H1560 H 0.09563 0.89543 0.66723 0.0
H1561 H 0.12991 0.90453 0.68395 0.0
H1562 H 0.13406 0.92336 0.72947 0.0
H1563 H 0.0696 0.92316 0.74036 0.0
H1564 H 0.07757 0.95324 0.61888 0.0
H1565 H 0.06971 0.93215 0.57637 0.0
O1566 O 0.06479 0.87399 0.67775 0.0
C1567 C 0.0181 0.87535 0.67919 0.0
C1568 C 0.05847 0.9071 0.60122 0.0
C1569 C 0.07116 0.93823 0.62143 0.0
N1570 N 0.05923 0.91156 0.65203 0.0
C1571 C 0.05475 0.89991 0.62876 0.0
C1572 C 0.06723 0.93055 0.64865 0.0
C1573 C 0.06675 0.92639 0.59759 0.0
C1574 C 0.01711 0.88774 0.77478 0.0
N1575 N 0.01503 0.87333 0.75405 0.0
C1576 C 1.00011 0.8956 0.7887 0.0
C1577 C 0.98088 0.88857 0.78129 0.0
C1578 C 0.97888 0.87383 0.76016 0.0
C1579 C 0.99622 0.86635 0.74667 0.0
C1580 C 0.01825 0.80947 0.77358 0.0
C1581 C 0.0313 0.82148 0.72005 0.0
C1582 C 0.02422 0.82946 0.76834 0.0
N1583 N 0.03051 0.83527 0.74178 0.0
C1584 C 0.02546 0.80135 0.72451 0.0
C1585 C 0.01887 0.79535 0.75147 0.0
C1586 C 0.06976 0.85742 0.69012 0.0
C1587 C 0.10199 0.92459 0.73781 0.0
C1588 C 0.0973 0.90356 0.68712 0.0
C1589 C 0.11676 0.90872 0.69643 0.0
C1590 C 0.11907 0.9193 0.72197 0.0
N1591 N 0.08061 0.90885 0.70274 0.0
C1592 C 0.08277 0.9192 0.72781 0.0
Co1593 Co 0.89533 0.28636 0.491 0.0
Co1594 Co 0.86092 0.30557 0.44251 0.0
O1595 O 0.8692 0.29852 0.48144 0.0
C1596 C 0.89291 0.32159 0.53094 0.0
O1597 O 0.88623 0.33307 0.51005 0.0
C1598 C 0.82767 0.28009 0.46581 0.0
O1599 O 0.84172 0.26771 0.47529 0.0
O1600 O 0.86873 0.27815 0.42771 0.0
O1601 O 0.89466 0.26924 0.45603 0.0
H1602 H 0.86891 0.31032 0.33613 0.0
H1603 H 0.86239 0.28638 0.53398 0.0
O1604 O 0.89691 0.30296 0.52659 0.0
H1605 H 0.87895 0.21428 0.51852 0.0
H1606 H 0.94744 0.25634 0.55731 0.0
H1607 H 0.93243 0.27638 0.45817 0.0
H1608 H 0.89758 0.24109 0.49286 0.0
H1609 H 0.9142 0.27097 0.54475 0.0
O1610 O 0.83266 0.29557 0.45105 0.0
H1611 H 0.87946 0.30174 0.38515 0.0
H1612 H 0.82374 0.32433 0.41764 0.0
H1613 H 0.96581 0.26165 0.46975 0.0
H1614 H 0.84356 0.26008 0.56044 0.0
H1615 H 0.9735 0.25153 0.51964 0.0
H1616 H 0.85173 0.22372 0.55267 0.0
O1617 O 0.9099 0.30799 0.46958 0.0
H1618 H 0.82809 0.35431 0.51083 0.0
H1619 H 0.86874 0.34794 0.42301 0.0
H1620 H 0.86008 0.38196 0.44114 0.0
H1621 H 0.83957 0.3853 0.48534 0.0
H1622 H 0.83729 0.32059 0.49211 0.0
H1623 H 0.81251 0.33302 0.36895 0.0
H1624 H 0.8352 0.32608 0.32779 0.0
O1625 O 0.88886 0.31606 0.43353 0.0
C1626 C 0.8836 0.26658 0.43406 0.0
C1627 C 0.85891 0.31348 0.35389 0.0
C1628 C 0.82724 0.32619 0.37231 0.0
N1629 N 0.85228 0.31264 0.40423 0.0
C1630 C 0.86482 0.3087 0.3817 0.0
C1631 C 0.83366 0.32118 0.39982 0.0
C1632 C 0.83998 0.3223 0.34923 0.0
C1633 C 0.86618 0.2706 0.5307 0.0
N1634 N 0.88107 0.26528 0.51185 0.0
C1635 C 0.85541 0.25577 0.54566 0.0
C1636 C 0.85997 0.23537 0.54125 0.0
C1637 C 0.87522 0.23007 0.52206 0.0
C1638 C 0.88566 0.24531 0.50746 0.0
C1639 C 0.94427 0.26068 0.53549 0.0
C1640 C 0.93562 0.27192 0.47991 0.0
C1641 C 0.92549 0.26903 0.52827 0.0
N1642 N 0.92134 0.27446 0.50073 0.0
C1643 C 0.95457 0.26362 0.48635 0.0
C1644 C 0.95888 0.25797 0.51435 0.0
C1645 C 0.90602 0.31713 0.44619 0.0
C1646 C 0.83699 0.35306 0.49151 0.0
C1647 C 0.85991 0.34927 0.44232 0.0
C1648 C 0.85499 0.36857 0.45244 0.0
C1649 C 0.84346 0.37044 0.47723 0.0
N1650 N 0.85349 0.33229 0.45643 0.0
C1651 C 0.84218 0.334 0.48074 0.0
Co1652 Co 0.47068 0.86203 0.26712 0.0
Co1653 Co 0.4555 0.90062 0.3108 0.0
O1654 O 0.46162 0.88999 0.27272 0.0
C1655 C 0.43818 0.86589 0.22319 0.0
O1656 O 0.42605 0.87352 0.24265 0.0
C1657 C 0.48064 0.93269 0.28288 0.0
O1658 O 0.49233 0.91833 0.27265 0.0
O1659 O 0.48313 0.89279 0.32451 0.0
O1660 O 0.48552 0.86203 0.30439 0.0
H1661 H 0.4537 0.89852 0.41792 0.0
H1662 H 0.47814 0.89175 0.22082 0.0
O1663 O 0.45628 0.86095 0.22962 0.0
H1664 H 0.54585 0.86725 0.24922 0.0
H1665 H 0.49734 0.80327 0.20958 0.0
H1666 H 0.47283 0.82545 0.30391 0.0
H1667 H 0.51511 0.85407 0.27278 0.0
H1668 H 0.4867 0.8387 0.21741 0.0
O1669 O 0.46579 0.92819 0.2991 0.0
H1670 H 0.46078 0.88522 0.36978 0.0
H1671 H 0.43793 0.93936 0.33259 0.0
H1672 H 0.48346 0.78993 0.29709 0.0
H1673 H 0.50847 0.9051 0.19639 0.0
H1674 H 0.49583 0.77862 0.24963 0.0
H1675 H 0.54264 0.8929 0.21066 0.0
O1676 O 0.44604 0.8518 0.2868 0.0
H1677 H 0.40576 0.93082 0.24157 0.0
H1678 H 0.41349 0.89486 0.33319 0.0
H1679 H 0.37924 0.90343 0.31585 0.0
H1680 H 0.37521 0.92158 0.26975 0.0
H1681 H 0.43973 0.92179 0.25958 0.0
H1682 H 0.43075 0.95331 0.38035 0.0
H1683 H 0.43857 0.93281 0.42343 0.0
O1684 O 0.44454 0.87351 0.32354 0.0
C1685 C 0.49104 0.87515 0.32283 0.0
C1686 C 0.45017 0.90758 0.39931 0.0
C1687 C 0.43732 0.93834 0.37822 0.0
N1688 N 0.44966 0.91144 0.34839 0.0
C1689 C 0.45411 0.90011 0.37199 0.0
C1690 C 0.44147 0.93038 0.35124 0.0
C1691 C 0.4417 0.92683 0.40239 0.0
C1692 C 0.49294 0.88619 0.22691 0.0
N1693 N 0.49483 0.87213 0.24817 0.0
C1694 C 0.51007 0.89389 0.21311 0.0
C1695 C 0.52923 0.88706 0.22117 0.0
C1696 C 0.53105 0.87269 0.24283 0.0
C1697 C 0.51358 0.86535 0.25618 0.0
C1698 C 0.49202 0.80802 0.23037 0.0
C1699 C 0.47832 0.8207 0.28326 0.0
C1700 C 0.48594 0.82806 0.23493 0.0
N1701 N 0.47932 0.8342 0.26117 0.0
C1702 C 0.48426 0.80054 0.27949 0.0
C1703 C 0.49118 0.7942 0.25285 0.0
C1704 C 0.43962 0.85681 0.31147 0.0
C1705 C 0.40732 0.92297 0.26173 0.0
C1706 C 0.41187 0.90271 0.31307 0.0
C1707 C 0.39244 0.90756 0.30339 0.0
C1708 C 0.39019 0.91775 0.27753 0.0
N1709 N 0.42861 0.90792 0.29748 0.0
C1710 C 0.42652 0.91789 0.27209 0.0
Co1711 Co 0.89793 0.72083 0.0169 0.0
Co1712 Co 0.86068 0.70676 0.06361 0.0
O1713 O 0.87029 0.71183 0.02483 0.0
C1714 C 0.89401 0.68625 0.97637 0.0
O1715 O 0.88995 0.67427 0.99802 0.0
C1716 C 0.82834 0.73177 0.03648 0.0
O1717 O 0.84267 0.7434 0.02597 0.0
O1718 O 0.86903 0.73465 0.07553 0.0
O1719 O 0.89901 0.73701 0.0531 0.0
H1720 H 0.86549 0.70757 0.17058 0.0
H1721 H 0.86653 0.72645 0.97224 0.0
O1722 O 0.89752 0.70503 0.98039 0.0
H1723 H 0.89171 0.7952 0.99387 0.0
H1724 H 0.95448 0.74525 0.95332 0.0
H1725 H 0.93565 0.72482 0.051 0.0
H1726 H 0.90583 0.7654 0.0187 0.0
H1727 H 0.91945 0.73467 0.9644 0.0
O1728 O 0.83293 0.71693 0.05268 0.0
H1729 H 0.8776 0.71338 0.12147 0.0
H1730 H 0.82241 0.69002 0.08817 0.0
H1731 H 0.9708 0.73542 0.04091 0.0
H1732 H 0.8522 0.7558 0.94661 0.0
H1733 H 0.98041 0.74575 0.99177 0.0
H1734 H 0.86474 0.7905 0.95747 0.0
O1735 O 0.90907 0.69708 0.03789 0.0
H1736 H 0.82884 0.65544 0.99818 0.0
H1737 H 0.86667 0.66531 0.08787 0.0
H1738 H 0.85763 0.63068 0.07259 0.0
H1739 H 0.83854 0.62558 0.02747 0.0
H1740 H 0.83833 0.68982 0.01415 0.0
H1741 H 0.80963 0.68411 0.13692 0.0
H1742 H 0.83127 0.69283 0.17854 0.0
O1743 O 0.88801 0.69599 0.07545 0.0
C1744 C 0.88649 0.74273 0.07225 0.0
C1745 C 0.85594 0.70366 0.15262 0.0
C1746 C 0.82458 0.69052 0.13373 0.0
N1747 N 0.85079 0.70193 0.10198 0.0
C1748 C 0.86273 0.70687 0.12476 0.0
C1749 C 0.83188 0.69395 0.10617 0.0
C1750 C 0.83673 0.6954 0.15707 0.0
C1751 C 0.87224 0.74147 0.97684 0.0
N1752 N 0.88703 0.74419 0.9969 0.0
C1753 C 0.86399 0.75805 0.96236 0.0
C1754 C 0.871 0.77751 0.96851 0.0
C1755 C 0.88612 0.78016 0.98896 0.0
C1756 C 0.894 0.76323 0.00304 0.0
C1757 C 0.95046 0.74084 0.97484 0.0
C1758 C 0.93966 0.72944 0.02961 0.0
C1759 C 0.93066 0.73482 0.98124 0.0
N1760 N 0.92545 0.72936 0.0084 0.0
C1761 C 0.95961 0.73536 0.024 0.0
C1762 C 0.965 0.74113 0.99642 0.0
C1763 C 0.90456 0.69108 0.06299 0.0
C1764 C 0.8371 0.65748 0.01793 0.0
C1765 C 0.8584 0.66323 0.06819 0.0
C1766 C 0.85329 0.64357 0.05967 0.0
C1767 C 0.84257 0.64072 0.03436 0.0
N1768 N 0.85291 0.67959 0.05201 0.0
C1769 C 0.84245 0.67691 0.02714 0.0
Co1770 Co 0.03595 0.14657 0.76729 0.0
Co1771 Co 0.05544 0.10959 0.81188 0.0
O1772 O 0.04805 0.1199 0.77402 0.0
C1773 C 0.07111 0.14543 0.72717 0.0
O1774 O 0.08216 0.13674 0.747 0.0
C1775 C 0.02965 0.07745 0.7862 0.0
O1776 O 0.01743 0.09185 0.77735 0.0
O1777 O 0.02823 0.11668 0.82774 0.0
O1778 O 0.01854 0.14379 0.80192 0.0
H1779 H 0.06132 0.11223 0.91869 0.0
H1780 H 0.036 0.11603 0.7209 0.0
O1781 O 0.05272 0.15014 0.7321 0.0
H1782 H 0.96393 0.1319 0.73794 0.0
H1783 H 0.00638 0.20231 0.70665 0.0
H1784 H 0.02584 0.18171 0.80403 0.0
H1785 H 0.99075 0.14907 0.76556 0.0
H1786 H 0.02092 0.16843 0.71564 0.0
O1787 O 0.04526 0.08187 0.80099 0.0
H1788 H 0.0522 0.12519 0.87103 0.0
H1789 H 0.07442 0.07126 0.83262 0.0
H1790 H 0.0112 0.21568 0.79603 0.0
H1791 H 0.00969 0.09867 0.69255 0.0
H1792 H 1.00138 0.22618 0.74704 0.0
H1793 H 0.97335 0.10652 0.70108 0.0
O1794 O 0.05759 0.16004 0.79028 0.0
H1795 H 0.10352 0.0797 0.74008 0.0
H1796 H 0.09798 0.11687 0.83104 0.0
H1797 H 0.13181 0.10901 0.81154 0.0
H1798 H 0.13474 0.09026 0.76577 0.0
H1799 H 0.06998 0.08806 0.76019 0.0
H1800 H 0.08365 0.05762 0.87988 0.0
H1801 H 0.07717 0.0782 0.92333 0.0
O1802 O 0.06595 0.1369 0.82347 0.0
C1803 C 0.01624 0.13141 0.82254 0.0
C1804 C 0.06426 0.10313 0.89992 0.0
C1805 C 0.07676 0.07248 0.87814 0.0
N1806 N 0.06285 0.09904 0.84907 0.0
C1807 C 0.05916 0.11041 0.87287 0.0
C1808 C 0.07145 0.08025 0.85144 0.0
C1809 C 0.07313 0.08403 0.9025 0.0
C1810 C 0.02023 0.11967 0.72453 0.0
N1811 N 0.01492 0.13355 0.74485 0.0
C1812 C 0.0054 0.10973 0.70849 0.0
C1813 C 0.98501 0.11412 0.71333 0.0
C1814 C 0.97971 0.12834 0.73403 0.0
C1815 C 0.99496 0.13796 0.74968 0.0
C1816 C 0.01058 0.19791 0.7281 0.0
C1817 C 0.02149 0.18613 0.78268 0.0
C1818 C 0.01886 0.17876 0.73331 0.0
N1819 N 0.02411 0.17306 0.76036 0.0
C1820 C 0.01326 0.2054 0.77827 0.0
C1821 C 0.00777 0.21129 0.75077 0.0
C1822 C 0.06693 0.15476 0.81296 0.0
C1823 C 0.10244 0.08782 0.76009 0.0
C1824 C 0.09912 0.10877 0.81105 0.0
C1825 C 0.11832 0.10432 0.80016 0.0
C1826 C 0.11995 0.09378 0.77449 0.0
N1827 N 0.08201 0.10285 0.79683 0.0
C1828 C 0.08349 0.09251 0.77165 0.0
Co1829 Co 0.61324 0.28633 0.51734 0.0
Co1830 Co 0.65014 0.30461 0.56202 0.0
O1831 O 0.64029 0.29748 0.52392 0.0
C1832 C 0.61573 0.3197 0.47473 0.0
O1833 O 0.62254 0.33173 0.4949 0.0
C1834 C 0.68302 0.27994 0.5359 0.0
O1835 O 0.66897 0.26734 0.52699 0.0
O1836 O 0.64346 0.27686 0.57656 0.0
O1837 O 0.61392 0.27107 0.55419 0.0
H1838 H 0.64667 0.3083 0.66895 0.0
H1839 H 0.64413 0.28197 0.47179 0.0
O1840 O 0.61158 0.30124 0.48026 0.0
H1841 H 0.62476 0.21209 0.49773 0.0
H1842 H 0.55752 0.25629 0.45715 0.0
H1843 H 0.57659 0.28027 0.5531 0.0
H1844 H 0.60878 0.24134 0.52159 0.0
H1845 H 0.59189 0.26954 0.46641 0.0
O1846 O 0.67817 0.29524 0.55107 0.0
H1847 H 0.63423 0.29981 0.62077 0.0
H1848 H 0.68793 0.32401 0.584 0.0
H1849 H 0.54212 0.267 0.54486 0.0
H1850 H 0.66029 0.25315 0.44712 0.0
H1851 H 0.53238 0.2549 0.49658 0.0
H1852 H 0.65068 0.21791 0.46015 0.0
O1853 O 0.60079 0.30973 0.53732 0.0
H1854 H 0.67906 0.35443 0.49176 0.0
H1855 H 0.64248 0.34671 0.58287 0.0
H1856 H 0.64978 0.38101 0.56452 0.0
H1857 H 0.66824 0.38503 0.51867 0.0
H1858 H 0.67125 0.32042 0.51075 0.0
H1859 H 0.70103 0.33259 0.6318 0.0
H1860 H 0.6803 0.32481 0.67468 0.0
O1861 O 0.62239 0.31463 0.57374 0.0
C1862 C 0.62686 0.26712 0.57362 0.0
C1863 C 0.65582 0.31182 0.65043 0.0
C1864 C 0.68634 0.32543 0.62957 0.0
N1865 N 0.66028 0.31153 0.59961 0.0
C1866 C 0.64883 0.30709 0.62309 0.0
C1867 C 0.67887 0.32048 0.60257 0.0
C1868 C 0.6747 0.32106 0.65363 0.0
C1869 C 0.63969 0.26668 0.47733 0.0
N1870 N 0.6255 0.26335 0.49806 0.0
C1871 C 0.64897 0.25042 0.46339 0.0
C1872 C 0.6436 0.23065 0.47076 0.0
C1873 C 0.62908 0.22738 0.49187 0.0
C1874 C 0.62014 0.244 0.50539 0.0
C1875 C 0.56159 0.26149 0.47829 0.0
C1876 C 0.57252 0.27491 0.53209 0.0
C1877 C 0.58102 0.26905 0.48365 0.0
N1878 N 0.58629 0.27556 0.51032 0.0
C1879 C 0.55296 0.26747 0.52752 0.0
C1880 C 0.54749 0.2607 0.50043 0.0
C1881 C 0.60528 0.31748 0.56144 0.0
C1882 C 0.67105 0.35288 0.5118 0.0
C1883 C 0.65043 0.34833 0.56284 0.0
C1884 C 0.65458 0.36779 0.5526 0.0
C1885 C 0.66495 0.37004 0.52688 0.0
N1886 N 0.65648 0.33157 0.54794 0.0
C1887 C 0.66666 0.33365 0.52272 0.0
H1888 H 0.04694 0.35703 0.18156 0.0
H1889 H 0.10862 0.37206 0.20483 0.0
H1890 H 0.05805 0.34867 0.13365 0.0
H1891 H 0.11973 0.36354 0.15625 0.0
H1892 H 0.12377 0.35971 0.05405 0.0
H1893 H 0.11443 0.37332 0.10119 0.0
H1894 H 0.08024 0.31886 0.11862 0.0
H1895 H 0.08938 0.30538 0.0724 0.0
C1896 C 0.06288 0.35872 0.17644 0.0
C1897 C 0.07695 0.36489 0.19724 0.0
C1898 C 0.06921 0.35392 0.14892 0.0
C1899 C 0.08977 0.35522 0.14137 0.0
C1900 C 0.10378 0.36245 0.16156 0.0
C1901 C 0.09743 0.36721 0.18935 0.0
C1902 C 0.11428 0.35071 0.06803 0.0
C1903 C 0.10725 0.33151 0.05936 0.0
C1904 C 0.10904 0.35844 0.09498 0.0
C1905 C 0.09645 0.34721 0.11336 0.0
C1906 C 0.08971 0.32798 0.10473 0.0
C1907 C 0.09507 0.32022 0.0782 0.0
H1908 H 0.96261 0.84596 0.32446 0.0
H1909 H 0.90365 0.86984 0.30204 0.0
H1910 H 0.94979 0.83594 0.3708 0.0
H1911 H 0.89078 0.85972 0.34922 0.0
H1912 H 0.88818 0.85515 0.45211 0.0
H1913 H 0.89788 0.86754 0.40457 0.0
H1914 H 0.92359 0.80899 0.38495 0.0
H1915 H 0.91399 0.79661 0.43184 0.0
C1916 C 0.9469 0.84919 0.3294 0.0
C1917 C 0.93412 0.85857 0.30932 0.0
C1918 C 0.93956 0.84336 0.35601 0.0
C1919 C 0.91926 0.84687 0.36347 0.0
C1920 C 0.90652 0.85686 0.34394 0.0
C1921 C 0.91385 0.86255 0.31695 0.0
C1922 C 0.89581 0.84493 0.43755 0.0
C1923 C 0.90048 0.82495 0.44589 0.0
C1924 C 0.90122 0.85199 0.41034 0.0
C1925 C 0.91161 0.83926 0.39124 0.0
C1926 C 0.91579 0.8192 0.39938 0.0
C1927 C 0.91023 0.81211 0.42627 0.0
H1928 H 0.45916 0.66222 0.68069 0.0
H1929 H 0.40274 0.63251 0.7025 0.0
H1930 H 0.44538 0.67157 0.63464 0.0
H1931 H 0.38894 0.64193 0.65546 0.0
H1932 H 0.39007 0.64883 0.54994 0.0
H1933 H 0.3993 0.63581 0.59744 0.0
H1934 H 0.41441 0.69653 0.62437 0.0
H1935 H 0.40517 0.70954 0.57779 0.0
C1936 C 0.44384 0.6575 0.67564 0.0
C1937 C 0.432 0.64674 0.6955 0.0
C1938 C 0.43596 0.66292 0.64919 0.0
C1939 C 0.41609 0.65758 0.64164 0.0
C1940 C 0.40434 0.64618 0.66086 0.0
C1941 C 0.4122 0.64091 0.68774 0.0
C1942 C 0.39511 0.65939 0.56615 0.0
C1943 C 0.3972 0.68018 0.55985 0.0
C1944 C 0.40028 0.65195 0.5933 0.0
C1945 C 0.40773 0.66519 0.61434 0.0
C1946 C 0.40891 0.68599 0.60839 0.0
C1947 C 0.40364 0.69341 0.58159 0.0
H1948 H 0.6083 0.13582 0.80202 0.0
H1949 H 0.54821 0.15632 0.8252 0.0
H1950 H 0.62053 0.14506 0.84983 0.0
H1951 H 0.56046 0.16549 0.87227 0.0
H1952 H 0.59605 0.20809 0.93007 0.0
H1953 H 0.58611 0.19417 0.88439 0.0
H1954 H 0.61378 0.13695 0.90629 0.0
H1955 H 0.62381 0.15092 0.95295 0.0
C1956 C 0.59767 0.14205 0.81731 0.0
C1957 C 0.57734 0.14561 0.8096 0.0
C1958 C 0.60467 0.14722 0.84466 0.0
C1959 C 0.59146 0.15617 0.86454 0.0
C1960 C 0.57101 0.15884 0.85721 0.0
C1961 C 0.56401 0.15357 0.83017 0.0
C1962 C 0.60015 0.19254 0.92537 0.0
C1963 C 0.6106 0.18057 0.9454 0.0
C1964 C 0.59436 0.18457 0.89913 0.0
C1965 C 0.59899 0.16445 0.89197 0.0
C1966 C 0.61003 0.15253 0.9114 0.0
C1967 C 0.61568 0.16049 0.93806 0.0
H1968 H 0.11362 0.6561 0.29454 0.0
H1969 H 0.05538 0.63979 0.33005 0.0
H1970 H 0.12651 0.66262 0.34277 0.0
H1971 H 0.06833 0.64602 0.37798 0.0
H1972 H 0.10213 0.64694 0.46275 0.0
H1973 H 0.09512 0.63404 0.41463 0.0
H1974 H 0.11617 0.69053 0.37862 0.0
H1975 H 0.12287 0.70349 0.4264 0.0
C1976 C 0.10371 0.65355 0.31263 0.0
C1977 C 0.08345 0.64763 0.30851 0.0
C1978 C 0.11107 0.65733 0.34018 0.0
C1979 C 0.09841 0.65482 0.36409 0.0
C1980 C 0.07848 0.64789 0.36 0.0
C1981 C 0.07104 0.64449 0.33252 0.0
C1982 C 0.10556 0.65643 0.44451 0.0
C1983 C 0.11287 0.67627 0.44833 0.0
C1984 C 0.1015 0.64909 0.41703 0.0
C1985 C 0.1051 0.6613 0.39292 0.0
C1986 C 0.11342 0.68071 0.39676 0.0
C1987 C 0.11711 0.68817 0.42414 0.0
H1988 H 0.61924 0.80206 0.5769 0.0
H1989 H 0.60043 0.85898 0.53966 0.0
H1990 H 0.61224 0.81542 0.62446 0.0
H1991 H 0.59305 0.87221 0.58746 0.0
H1992 H 0.5534 0.86833 0.67263 0.0
H1993 H 0.56559 0.86056 0.62468 0.0
H1994 H 0.62411 0.84446 0.65916 0.0
H1995 H 0.61203 0.85262 0.70732 0.0
C1996 C 0.61375 0.81749 0.5789 0.0
C1997 C 0.61026 0.82944 0.55455 0.0
C1998 C 0.6099 0.82516 0.60614 0.0
C1999 C 0.60212 0.84483 0.60959 0.0
C2000 C 0.59902 0.85698 0.58532 0.0
C2001 C 0.60328 0.84943 0.55804 0.0
C2002 C 0.56897 0.86342 0.66995 0.0
C2003 C 0.58175 0.86098 0.69373 0.0
C2004 C 0.57597 0.8591 0.6425 0.0
C2005 C 0.59576 0.85189 0.63827 0.0
C2006 C 0.60875 0.84996 0.66191 0.0
C2007 C 0.60187 0.85469 0.68939 0.0
H2008 H 0.38772 0.35569 0.95671 0.0
H2009 H 0.4137 0.29734 0.93577 0.0
H2010 H 0.39814 0.36862 0.90974 0.0
H2011 H 0.42396 0.31021 0.88952 0.0
H2012 H 0.46233 0.34599 0.82799 0.0
H2013 H 0.45002 0.33658 0.87491 0.0
H2014 H 0.39126 0.36165 0.85488 0.0
H2015 H 0.4036 0.3712 0.80727 0.0
C2016 C 0.39556 0.34563 0.94216 0.0
C2017 C 0.4 0.32553 0.95012 0.0
C2018 C 0.40141 0.353 0.91527 0.0
C2019 C 0.41202 0.34046 0.89615 0.0
C2020 C 0.41606 0.32031 0.90398 0.0
C2021 C 0.41008 0.31292 0.93052 0.0
C2022 C 0.44679 0.34965 0.83344 0.0
C2023 C 0.43387 0.35914 0.81364 0.0
C2024 C 0.43974 0.34419 0.86038 0.0
C2025 C 0.41963 0.34817 0.8684 0.0
C2026 C 0.40686 0.35843 0.8492 0.0
C2027 C 0.4139 0.3638 0.82195 0.0
H2028 H 0.88453 0.15374 0.05157 0.0
H2029 H 0.91306 0.21107 0.07172 0.0
H2030 H 0.89355 0.14105 0.09928 0.0
H2031 H 0.922 0.19838 0.1186 0.0
H2032 H 0.95991 0.15997 0.17819 0.0
H2033 H 0.94723 0.16951 0.13158 0.0
H2034 H 0.88706 0.15023 0.15553 0.0
H2035 H 0.89975 0.14064 0.20303 0.0
C2036 C 0.89255 0.16366 0.06613 0.0
C2037 C 0.89827 0.18334 0.05765 0.0
C2038 C 0.89761 0.15642 0.09342 0.0
C2039 C 0.90864 0.16869 0.11242 0.0
C2040 C 0.91371 0.18852 0.10422 0.0
C2041 C 0.90853 0.19578 0.0773 0.0
C2042 C 0.94397 0.15761 0.17372 0.0
C2043 C 0.93079 0.14977 0.19461 0.0
C2044 C 0.93673 0.16313 0.14693 0.0
C2045 C 0.91615 0.16082 0.1401 0.0
C2046 C 0.90301 0.15215 0.16034 0.0
C2047 C 0.91026 0.14676 0.1875 0.0
H2048 H 0.89601 0.66112 0.79253 0.0
H2049 H 0.95168 0.63851 0.82923 0.0
H2050 H 0.88302 0.66818 0.84058 0.0
H2051 H 0.93857 0.6452 0.87699 0.0
H2052 H 0.90241 0.6472 0.96022 0.0
H2053 H 0.90922 0.6349 0.91176 0.0
H2054 H 0.89628 0.69448 0.87821 0.0
H2055 H 0.88985 0.70686 0.92644 0.0
C2056 C 0.90527 0.65728 0.81083 0.0
C2057 C 0.9249 0.6494 0.80715 0.0
C2058 C 0.89788 0.66138 0.83827 0.0
C2059 C 0.90981 0.65722 0.86245 0.0
C2060 C 0.92899 0.64838 0.85875 0.0
C2061 C 0.93653 0.64468 0.8314 0.0
C2062 C 0.90073 0.65756 0.94244 0.0
C2063 C 0.89576 0.67802 0.94712 0.0
C2064 C 0.90467 0.65054 0.91477 0.0
C2065 C 0.90326 0.66375 0.89129 0.0
C2066 C 0.8973 0.68393 0.89588 0.0
C2067 C 0.89376 0.69104 0.92351 0.0
H2068 H 0.1168 0.14792 0.55143 0.0
H2069 H 0.11006 0.21026 0.57858 0.0
H2070 H 0.10796 0.13656 0.59986 0.0
H2071 H 0.10127 0.19892 0.6262 0.0
H2072 H 0.05536 0.17098 0.68758 0.0
H2073 H 0.06892 0.17966 0.64107 0.0
H2074 H 0.11986 0.1398 0.65515 0.0
H2075 H 0.10624 0.13099 0.70248 0.0
C2076 C 0.11372 0.15917 0.5677 0.0
C2077 C 0.11377 0.17998 0.56096 0.0
C2078 C 0.10875 0.15267 0.59538 0.0
C2079 C 0.10368 0.16689 0.61657 0.0
C2080 C 0.1048 0.18763 0.61014 0.0
C2081 C 0.10982 0.1941 0.58277 0.0
C2082 C 0.06944 0.16397 0.68092 0.0
C2083 C 0.07977 0.15035 0.69885 0.0
C2084 C 0.07724 0.16903 0.65426 0.0
C2085 C 0.09549 0.1605 0.64462 0.0
C2086 C 0.10573 0.14655 0.66214 0.0
C2087 C 0.09801 0.14164 0.68921 0.0
H2088 H 0.6234 0.35782 0.45295 0.0
H2089 H 0.59851 0.29923 0.43055 0.0
H2090 H 0.61387 0.37078 0.40563 0.0
H2091 H 0.58908 0.31217 0.38397 0.0
H2092 H 0.54987 0.34876 0.32404 0.0
H2093 H 0.56246 0.33902 0.37064 0.0
H2094 H 0.62127 0.36374 0.35002 0.0
H2095 H 0.60868 0.37357 0.30261 0.0
C2096 C 0.61606 0.3477 0.43797 0.0
C2097 C 0.61152 0.32756 0.44569 0.0
C2098 C 0.61071 0.35509 0.4109 0.0
C2099 C 0.60055 0.34252 0.39135 0.0
C2100 C 0.59664 0.32227 0.3988 0.0
C2101 C 0.60211 0.31486 0.42553 0.0
C2102 C 0.56548 0.35228 0.32927 0.0
C2103 C 0.57834 0.36174 0.30935 0.0
C2104 C 0.57268 0.34663 0.35603 0.0
C2105 C 0.59289 0.3504 0.36377 0.0
C2106 C 0.60562 0.36066 0.3445 0.0
C2107 C 0.59843 0.3662 0.3174 0.0
H2108 H 0.45925 0.84811 0.18004 0.0
H2109 H 0.40054 0.87374 0.19986 0.0
H2110 H 0.44705 0.83823 0.13329 0.0
H2111 H 0.38833 0.86376 0.15233 0.0
H2112 H 0.38692 0.85752 0.04964 0.0
H2113 H 0.39614 0.87044 0.0971 0.0
H2114 H 0.42051 0.81175 0.11916 0.0
H2115 H 0.4114 0.79886 0.07243 0.0
C2116 C 0.44374 0.85177 0.17443 0.0
C2117 C 0.4308 0.86153 0.19393 0.0
C2118 C 0.43676 0.84603 0.14758 0.0
C2119 C 0.41669 0.85001 0.13934 0.0
C2120 C 0.40389 0.86052 0.15821 0.0
C2121 C 0.41086 0.86615 0.1854 0.0
C2122 C 0.3941 0.84737 0.06474 0.0
C2123 C 0.39862 0.82722 0.05708 0.0
C2124 C 0.39928 0.85474 0.09188 0.0
C2125 C 0.40924 0.84214 0.1116 0.0
C2126 C 0.41312 0.82188 0.10421 0.0
C2127 C 0.40783 0.8145 0.07739 0.0
H2128 H 0.8995 0.37259 0.70491 0.0
H2129 H 0.9601 0.35795 0.67618 0.0
H2130 H 0.88619 0.36302 0.65769 0.0
H2131 H 0.94678 0.34835 0.62991 0.0
H2132 H 0.91185 0.30281 0.5751 0.0
H2133 H 0.9211 0.31682 0.62109 0.0
H2134 H 0.89284 0.37365 0.5988 0.0
H2135 H 0.88355 0.35965 0.55185 0.0
C2136 C 0.90997 0.36757 0.68857 0.0
C2137 C 0.93083 0.36574 0.69452 0.0
C2138 C 0.90236 0.36221 0.6616 0.0
C2139 C 0.9155 0.35482 0.64042 0.0
C2140 C 0.93635 0.35384 0.64602 0.0
C2141 C 0.94393 0.35932 0.67263 0.0
C2142 C 0.90741 0.31826 0.57983 0.0
C2143 C 0.89711 0.33018 0.55957 0.0
C2144 C 0.91274 0.32626 0.60624 0.0
C2145 C 0.90777 0.3463 0.61333 0.0
C2146 C 0.89678 0.35811 0.59374 0.0
C2147 C 0.89159 0.35014 0.56691 0.0
H2148 H 0.399 0.14113 0.29929 0.0
H2149 H 0.46038 0.1538 0.32664 0.0
H2150 H 0.38662 0.15046 0.34708 0.0
H2151 H 0.44798 0.16319 0.3735 0.0
H2152 H 0.41527 0.20892 0.43065 0.0
H2153 H 0.42409 0.19505 0.38438 0.0
H2154 H 0.39282 0.13944 0.40487 0.0
H2155 H 0.38395 0.15329 0.45206 0.0
C2156 C 0.40984 0.14564 0.31546 0.0
C2157 C 0.43064 0.14704 0.30894 0.0
C2158 C 0.40276 0.15088 0.34276 0.0
C2159 C 0.41638 0.15772 0.36373 0.0
C2160 C 0.43717 0.15818 0.35757 0.0
C2161 C 0.44423 0.15282 0.33063 0.0
C2162 C 0.41009 0.19377 0.42545 0.0
C2163 C 0.39901 0.18216 0.44523 0.0
C2164 C 0.41521 0.18584 0.3989 0.0
C2165 C 0.40922 0.16617 0.3912 0.0
C2166 C 0.39755 0.15467 0.41039 0.0
C2167 C 0.39261 0.16256 0.43736 0.0
H2168 H 0.55088 0.65098 0.17827 0.0
H2169 H 0.61255 0.64163 0.20682 0.0
H2170 H 0.56315 0.65989 0.13116 0.0
H2171 H 0.62484 0.65053 0.15883 0.0
H2172 H 0.62942 0.65259 0.05455 0.0
H2173 H 0.62048 0.63882 0.1018 0.0
H2174 H 0.58492 0.69235 0.11907 0.0
H2175 H 0.59374 0.70608 0.07278 0.0
C2176 C 0.56708 0.65063 0.17449 0.0
C2177 C 0.58076 0.64594 0.19657 0.0
C2178 C 0.57408 0.6557 0.1474 0.0
C2179 C 0.59492 0.6561 0.1415 0.0
C2180 C 0.60867 0.65029 0.16292 0.0
C2181 C 0.60164 0.64529 0.19034 0.0
C2182 C 0.61977 0.6614 0.06854 0.0
C2183 C 0.6122 0.68038 0.05977 0.0
C2184 C 0.61477 0.65358 0.09555 0.0
C2185 C 0.6019 0.66449 0.11387 0.0
C2186 C 0.5947 0.68354 0.10524 0.0
C2187 C 0.59984 0.69141 0.07866 0.0
H2188 H 0.0513 0.85086 0.82222 0.0
H2189 H 0.10947 0.87706 0.80065 0.0
H2190 H 0.06401 0.84192 0.86909 0.0
H2191 H 0.12217 0.86806 0.84837 0.0
H2192 H 0.12274 0.86205 0.95259 0.0
H2193 H 0.11326 0.87515 0.90523 0.0
H2194 H 0.09252 0.81552 0.881 0.0
H2195 H 0.10196 0.80243 0.9274 0.0
C2196 C 0.06678 0.85488 0.82748 0.0
C2197 C 0.07945 0.86444 0.80743 0.0
C2198 C 0.07404 0.84973 0.85441 0.0
C2199 C 0.0941 0.85413 0.86218 0.0
C2200 C 0.10662 0.86454 0.84282 0.0
C2201 C 0.09937 0.86958 0.81554 0.0
C2202 C 0.11633 0.85174 0.93701 0.0
C2203 C 0.11287 0.83125 0.94398 0.0
C2204 C 0.111 0.85923 0.90996 0.0
C2205 C 0.10195 0.84636 0.8897 0.0
C2206 C 0.09921 0.82581 0.89638 0.0
C2207 C 0.10466 0.81833 0.92306 0.0
H2208 H 0.08171 0.31848 0.29593 0.0
H2209 H 0.08476 0.35863 0.36878 0.0
H2210 H 0.09854 0.29191 0.32376 0.0
H2211 H 0.10139 0.33213 0.39625 0.0
H2212 H 0.09669 0.2709 0.44371 0.0
H2213 H 0.08626 0.29875 0.41358 0.0
H2214 H 0.13216 0.28275 0.35196 0.0
H2215 H 0.14318 0.25462 0.3828 0.0
C2216 C 0.0862 0.32177 0.31767 0.0
C2217 C 0.08162 0.34066 0.33016 0.0
C2218 C 0.09594 0.30658 0.33352 0.0
C2219 C 0.10113 0.30992 0.36221 0.0
C2220 C 0.09737 0.32906 0.37426 0.0
C2221 C 0.08783 0.34426 0.35844 0.0
C2222 C 0.10491 0.27334 0.42404 0.0
C2223 C 0.12102 0.26055 0.41597 0.0
C2224 C 0.09887 0.28941 0.40672 0.0
C2225 C 0.10849 0.29305 0.38054 0.0
C2226 C 0.12451 0.28028 0.37211 0.0
C2227 C 0.13086 0.26427 0.38982 0.0
H2228 H 0.94706 0.81164 0.55081 0.0
H2229 H 0.90361 0.84654 0.59942 0.0
H2230 H 0.97468 0.8279 0.57688 0.0
H2231 H 0.93135 0.86292 0.62511 0.0
H2232 H 0.99033 0.89855 0.64969 0.0
H2233 H 0.96347 0.88627 0.61755 0.0
H2234 H 0.98413 0.82479 0.63003 0.0
H2235 H 0.01046 0.83682 0.66211 0.0
C2236 C 0.94336 0.82298 0.5667 0.0
C2237 C 0.92304 0.82765 0.57308 0.0
C2238 C 0.95921 0.83226 0.58166 0.0
C2239 C 0.95514 0.84665 0.60303 0.0
C2240 C 0.93492 0.85202 0.60857 0.0
C2241 C 0.91904 0.84252 0.59392 0.0
C2242 C 0.98915 0.88246 0.64537 0.0
C2243 C 1.00241 0.86866 0.6586 0.0
C2244 C 0.97378 0.87544 0.6271 0.0
C2245 C 0.9718 0.85458 0.62123 0.0
C2246 C 0.98541 0.84094 0.63391 0.0
C2247 C 1.0004 0.84786 0.6525 0.0
H2248 H 0.4228 0.76147 0.90718 0.0
H2249 H 0.36209 0.73714 0.9027 0.0
H2250 H 0.43483 0.73494 0.87529 0.0
H2251 H 0.37437 0.71001 0.87086 0.0
H2252 H 0.41795 0.65218 0.85334 0.0
H2253 H 0.40089 0.67967 0.87877 0.0
H2254 H 0.42897 0.72337 0.82279 0.0
H2255 H 0.44578 0.696 0.79692 0.0
C2256 C 0.412 0.75044 0.89927 0.0
C2257 C 0.39152 0.7513 0.90752 0.0
C2258 C 0.41888 0.73533 0.88084 0.0
C2259 C 0.40554 0.72043 0.87058 0.0
C2260 C 0.38496 0.72133 0.87853 0.0
C2261 C 0.37793 0.73684 0.89657 0.0
C2262 C 0.42026 0.6676 0.84611 0.0
C2263 C 0.43335 0.67182 0.82309 0.0
C2264 C 0.41037 0.68333 0.86061 0.0
C2265 C 0.41362 0.70364 0.85276 0.0
C2266 C 0.42624 0.70784 0.82932 0.0
C2267 C 0.43585 0.69213 0.81451 0.0
H2268 H 0.60883 0.18081 0.11485 0.0
H2269 H 0.56747 0.18338 0.04331 0.0
H2270 H 0.58294 0.16399 0.14324 0.0
H2271 H 0.54153 0.16633 0.07205 0.0
H2272 H 0.50629 0.1202 0.13082 0.0
H2273 H 0.53362 0.13245 0.09957 0.0
H2274 H 0.54958 0.17762 0.16229 0.0
H2275 H 0.52246 0.16592 0.19295 0.0
C2276 C 0.59431 0.17764 0.10501 0.0
C2277 C 0.59024 0.18369 0.07678 0.0
C2278 C 0.57945 0.168 0.12137 0.0
C2279 C 0.56018 0.16394 0.10992 0.0
C2280 C 0.5563 0.16915 0.08136 0.0
C2281 C 0.57114 0.17903 0.06499 0.0
C2282 C 0.51576 0.13262 0.13801 0.0
C2283 C 0.51222 0.1419 0.16461 0.0
C2284 C 0.53131 0.13969 0.12005 0.0
C2285 C 0.54382 0.15589 0.12861 0.0
C2286 C 0.54041 0.16491 0.15528 0.0
C2287 C 0.52478 0.15814 0.17289 0.0
H2288 H 0.08315 0.65384 0.14027 0.0
H2289 H 0.07833 0.69561 0.21111 0.0
H2290 H 0.09965 0.67993 0.11202 0.0
H2291 H 0.09508 0.72185 0.18238 0.0
H2292 H 0.14132 0.75753 0.12299 0.0
H2293 H 0.12927 0.73053 0.15508 0.0
H2294 H 0.08501 0.7126 0.09215 0.0
H2295 H 0.09651 0.7393 0.06069 0.0
C2296 C 0.08574 0.66852 0.15001 0.0
C2297 C 0.07914 0.67261 0.17799 0.0
C2298 C 0.09522 0.68349 0.13371 0.0
C2299 C 0.09854 0.70297 0.14491 0.0
C2300 C 0.09281 0.70692 0.17326 0.0
C2301 C 0.08312 0.69192 0.18962 0.0
C2302 C 0.12915 0.74769 0.11596 0.0
C2303 C 0.12009 0.75052 0.08903 0.0
C2304 C 0.12218 0.73235 0.1344 0.0
C2305 C 0.10631 0.71936 0.12601 0.0
C2306 C 0.09746 0.72213 0.09907 0.0
C2307 C 0.10413 0.73753 0.08098 0.0
H2308 H 0.51947 0.89833 0.35116 0.0
H2309 H 0.49727 0.837 0.34233 0.0
H2310 H 0.54613 0.88606 0.38367 0.0
H2311 H 0.52341 0.82497 0.37469 0.0
H2312 H 0.56176 0.81195 0.45261 0.0
H2313 H 0.53403 0.82837 0.42687 0.0
H2314 H 0.57731 0.86214 0.37671 0.0
H2315 H 0.60507 0.84566 0.40206 0.0
C2316 C 0.52014 0.88234 0.35639 0.0
C2317 C 0.5064 0.86862 0.344 0.0
C2318 C 0.53539 0.87531 0.37486 0.0
C2319 C 0.53678 0.85456 0.38176 0.0
C2320 C 0.52261 0.84105 0.37004 0.0
C2321 C 0.50773 0.84795 0.35127 0.0
C2322 C 0.56541 0.82305 0.43635 0.0
C2323 C 0.58571 0.82735 0.42935 0.0
C2324 C 0.54951 0.83242 0.42158 0.0
C2325 C 0.55352 0.84653 0.39978 0.0
C2326 C 0.57375 0.8515 0.39359 0.0
C2327 C 0.58966 0.84191 0.40805 0.0
H2328 H 0.3707 0.25285 0.62571 0.0
H2329 H 0.40955 0.27686 0.5595 0.0
H2330 H 0.38186 0.28021 0.65768 0.0
H2331 H 0.42042 0.30374 0.59097 0.0
H2332 H 0.42544 0.35955 0.64374 0.0
H2333 H 0.40794 0.33438 0.61486 0.0
H2334 H 0.41446 0.29032 0.68238 0.0
H2335 H 0.43184 0.3156 0.71164 0.0
C2336 C 0.38134 0.26405 0.61781 0.0
C2337 C 0.38909 0.26263 0.58989 0.0
C2338 C 0.38782 0.27963 0.63616 0.0
C2339 C 0.40194 0.29424 0.62681 0.0
C2340 C 0.40927 0.29301 0.59875 0.0
C2341 C 0.40302 0.27744 0.58066 0.0
C2342 C 0.42298 0.3446 0.65268 0.0
C2343 C 0.4303 0.33961 0.67999 0.0
C2344 C 0.41297 0.33013 0.63603 0.0
C2345 C 0.40997 0.31027 0.64619 0.0
C2346 C 0.41639 0.30551 0.674 0.0
C2347 C 0.42647 0.32 0.6907 0.0
H2348 H 0.97623 0.13108 0.80942 0.0
H2349 H 0.01791 0.14143 0.87866 0.0
H2350 H 0.94817 0.14275 0.83903 0.0
H2351 H 0.99027 0.15445 0.90798 0.0
H2352 H 0.93544 0.16939 0.96119 0.0
H2353 H 0.961 0.15066 0.9344 0.0
H2354 H 0.93481 0.17253 0.85553 0.0
H2355 H 0.90871 0.19003 0.88229 0.0
C2356 C 0.97928 0.13574 0.83116 0.0
C2357 C 0.9991 0.13528 0.84191 0.0
C2358 C 0.96327 0.14269 0.8481 0.0
C2359 C 0.96682 0.14999 0.87594 0.0
C2360 C 0.98671 0.14876 0.88691 0.0
C2361 C 1.00264 0.14133 0.87013 0.0
C2362 C 0.93507 0.16996 0.9381 0.0
C2363 C 0.92001 0.18118 0.92389 0.0
C2364 C 0.94984 0.15933 0.92267 0.0
C2365 C 0.95019 0.15998 0.89261 0.0
C2366 C 0.93493 0.17112 0.87853 0.0
C2367 C 0.91995 0.18137 0.89393 0.0
H2368 H 0.92298 0.69171 0.71558 0.0
H2369 H 0.93461 0.66024 0.63648 0.0
H2370 H 0.90399 0.71759 0.68964 0.0
H2371 H 0.91677 0.68644 0.61044 0.0
H2372 H 0.87412 0.72799 0.56759 0.0
H2373 H 0.8862 0.70074 0.59839 0.0
H2374 H 0.90726 0.74534 0.65935 0.0
H2375 H 0.89386 0.77234 0.62907 0.0
C2376 C 0.92157 0.69037 0.69264 0.0
C2377 C 0.93031 0.67386 0.67815 0.0
C2378 C 0.91075 0.70529 0.67768 0.0
C2379 C 0.90866 0.70425 0.64778 0.0
C2380 C 0.91746 0.68766 0.63344 0.0
C2381 C 0.92794 0.67262 0.64842 0.0
C2382 C 0.88079 0.73181 0.58801 0.0
C2383 C 0.88288 0.75215 0.59621 0.0
C2384 C 0.88805 0.71625 0.60553 0.0
C2385 C 0.89819 0.72069 0.63128 0.0
C2386 C 0.8994 0.74115 0.63996 0.0
C2387 C 0.89171 0.7567 0.62265 0.0
H2388 H 1.00362 0.1191 0.37376 0.0
H2389 H 0.0227 0.16366 0.31158 0.0
H2390 H 0.03098 0.13046 0.40575 0.0
H2391 H 0.04975 0.17444 0.34288 0.0
H2392 H 0.10834 0.17569 0.39078 0.0
H2393 H 0.08216 0.15914 0.36275 0.0
H2394 H 0.0402 0.16464 0.43295 0.0
H2395 H 0.06653 0.18141 0.46143 0.0
C2396 C 0.01373 0.13105 0.36672 0.0
C2397 C 0.01102 0.14026 0.33987 0.0
C2398 C 0.02928 0.13762 0.38509 0.0
C2399 C 0.04259 0.15322 0.37668 0.0
C2400 C 0.03996 0.16218 0.3498 0.0
C2401 C 0.02437 0.15592 0.33179 0.0
C2402 C 0.09365 0.17327 0.40054 0.0
C2403 C 0.08955 0.18016 0.42837 0.0
C2404 C 0.07862 0.16375 0.38438 0.0
C2405 C 0.0591 0.16072 0.39558 0.0
C2406 C 0.05517 0.16667 0.42384 0.0
C2407 C 0.07022 0.17638 0.44006 0.0
H2408 H 0.59794 0.27545 0.05826 0.0
H2409 H 0.64331 0.2577 0.12001 0.0
H2410 H 0.5872 0.3028 0.08909 0.0
H2411 H 0.63212 0.28537 0.15141 0.0
H2412 H 0.58225 0.31907 0.20877 0.0
H2413 H 0.59947 0.2937 0.17944 0.0
H2414 H 0.60028 0.3356 0.10869 0.0
H2415 H 0.58311 0.36092 0.1377 0.0
C2416 C 0.60588 0.27751 0.07825 0.0
C2417 C 0.62168 0.26437 0.08643 0.0
C2418 C 0.59969 0.2933 0.09596 0.0
C2419 C 0.60888 0.29635 0.12261 0.0
C2420 C 0.62475 0.28335 0.13096 0.0
C2421 C 0.63122 0.26761 0.11292 0.0
C2422 C 0.58635 0.323 0.18708 0.0
C2423 C 0.58104 0.34201 0.17555 0.0
C2424 C 0.59633 0.30848 0.17035 0.0
C2425 C 0.60108 0.3126 0.1417 0.0
C2426 C 0.59659 0.33189 0.1306 0.0
C2427 C 0.58676 0.34643 0.14731 0.0
H2428 H 0.44607 0.81988 0.95348 0.0
H2429 H 0.40109 0.84143 0.89355 0.0
H2430 H 0.4727 0.83577 0.92507 0.0
H2431 H 0.42792 0.85787 0.86571 0.0
H2432 H 0.48704 0.89833 0.84271 0.0
H2433 H 0.45954 0.88691 0.87459 0.0
H2434 H 0.482 0.82557 0.86935 0.0
H2435 H 0.50884 0.83668 0.83719 0.0
C2436 C 0.44176 0.82829 0.93458 0.0
C2437 C 0.42137 0.8292 0.92574 0.0
C2438 C 0.45706 0.83739 0.91835 0.0
C2439 C 0.45231 0.84803 0.89329 0.0
C2440 C 0.43191 0.84987 0.8851 0.0
C2441 C 0.4166 0.84038 0.90101 0.0
C2442 C 0.48605 0.88244 0.84847 0.0
C2443 C 0.5 0.86838 0.83734 0.0
C2444 C 0.47035 0.87593 0.86656 0.0
C2445 C 0.46878 0.85539 0.87441 0.0
C2446 C 0.48296 0.84149 0.86372 0.0
C2447 C 0.49824 0.84786 0.84519 0.0
H2448 H 0.86326 0.27426 0.90345 0.0
H2449 H 0.92458 0.25171 0.90988 0.0
H2450 H 0.87517 0.30144 0.87149 0.0
H2451 H 0.93623 0.27832 0.87779 0.0
H2452 H 0.94592 0.31615 0.79734 0.0
H2453 H 0.92995 0.28876 0.82431 0.0
H2454 H 0.90113 0.33261 0.87922 0.0
H2455 H 0.91739 0.36012 0.85276 0.0
C2456 C 0.87918 0.27499 0.89782 0.0
C2457 C 0.893 0.26095 0.9093 0.0
C2458 C 0.88599 0.29053 0.87967 0.0
C2459 C 0.9066 0.29189 0.87212 0.0
C2460 C 0.92024 0.27753 0.88305 0.0
C2461 C 0.91357 0.26238 0.9016 0.0
C2462 C 0.93601 0.32003 0.81493 0.0
C2463 C 0.93306 0.3404 0.82292 0.0
C2464 C 0.92689 0.30432 0.83038 0.0
C2465 C 0.91432 0.30859 0.85383 0.0
C2466 C 0.91062 0.32892 0.86109 0.0
C2467 C 0.92003 0.34465 0.84597 0.0
H2468 H 0.51338 0.17326 0.65901 0.0
H2469 H 0.49038 0.11223 0.65057 0.0
H2470 H 0.48712 0.1856 0.62685 0.0
H2471 H 0.46352 0.1248 0.61854 0.0
H2472 H 0.40506 0.16757 0.60224 0.0
H2473 H 0.43266 0.15068 0.62757 0.0
H2474 H 0.47623 0.18066 0.57338 0.0
H2475 H 0.44869 0.19727 0.54747 0.0
C2476 C 0.50271 0.16246 0.65017 0.0
C2477 C 0.50385 0.14179 0.65739 0.0
C2478 C 0.48776 0.16952 0.6316 0.0
C2479 C 0.47331 0.15617 0.62019 0.0
C2480 C 0.4745 0.13541 0.6271 0.0
C2481 C 0.48986 0.12821 0.64526 0.0
C2482 C 0.42047 0.17034 0.59534 0.0
C2483 C 0.42459 0.18386 0.57278 0.0
C2484 C 0.43627 0.16055 0.6098 0.0
C2485 C 0.45655 0.16435 0.60241 0.0
C2486 C 0.46071 0.17748 0.57951 0.0
C2487 C 0.44491 0.18698 0.56468 0.0
H2488 H 0.61724 0.76971 0.37425 0.0
H2489 H 0.63081 0.72714 0.4413 0.0
H2490 H 0.60409 0.7422 0.34474 0.0
H2491 H 0.6191 0.69929 0.4114 0.0
H2492 H 0.57199 0.65887 0.3704 0.0
H2493 H 0.58925 0.68536 0.39658 0.0
H2494 H 0.60727 0.71342 0.31705 0.0
H2495 H 0.58871 0.68735 0.29087 0.0
C2496 C 0.61804 0.75431 0.38221 0.0
C2497 C 0.625 0.75047 0.40997 0.0
C2498 C 0.61051 0.73845 0.36531 0.0
C2499 C 0.61012 0.71834 0.37566 0.0
C2500 C 0.61842 0.71453 0.40287 0.0
C2501 C 0.62544 0.73044 0.41996 0.0
C2502 C 0.57971 0.67062 0.35845 0.0
C2503 C 0.57891 0.67097 0.32851 0.0
C2504 C 0.58986 0.68584 0.37353 0.0
C2505 C 0.59995 0.70169 0.35914 0.0
C2506 C 0.59948 0.70176 0.32906 0.0
C2507 C 0.58893 0.68671 0.31396 0.0
H2508 H 0.111 0.83895 0.11012 0.0
H2509 H 0.06665 0.82753 0.04406 0.0
H2510 H 0.08544 0.85653 0.13805 0.0
H2511 H 0.04093 0.84509 0.07248 0.0
H2512 H 1.0027 0.8899 0.12791 0.0
H2513 H 0.02997 0.87887 0.09559 0.0
H2514 H 0.05555 0.84253 0.16321 0.0
H2515 H 0.02877 0.85313 0.1949 0.0
C2516 C 0.09586 0.84033 0.10135 0.0
C2517 C 0.0909 0.83155 0.07489 0.0
C2518 C 0.08118 0.85042 0.11745 0.0
C2519 C 0.06111 0.85205 0.10761 0.0
C2520 C 0.0563 0.84421 0.08055 0.0
C2521 C 0.07103 0.83402 0.06437 0.0
C2522 C 0.01434 0.8798 0.13592 0.0
C2523 C 0.01355 0.87258 0.16417 0.0
C2524 C 0.02985 0.87339 0.11737 0.0
C2525 C 0.045 0.85994 0.12692 0.0
C2526 C 0.04437 0.85317 0.15527 0.0
C2527 C 0.02887 0.85928 0.17352 0.0
H2528 H 0.59642 0.77355 0.94447 0.0
H2529 H 0.64216 0.75621 0.88304 0.0
H2530 H 0.58532 0.8006 0.91332 0.0
H2531 H 0.63061 0.78356 0.85134 0.0
H2532 H 0.58127 0.81735 0.79332 0.0
H2533 H 0.59806 0.7918 0.82293 0.0
H2534 H 0.59822 0.83349 0.8939 0.0
H2535 H 0.58151 0.85897 0.86464 0.0
C2536 C 0.60435 0.77562 0.92447 0.0
C2537 C 0.62039 0.7627 0.91651 0.0
C2538 C 0.59794 0.79124 0.90657 0.0
C2539 C 0.60715 0.79433 0.87994 0.0
C2540 C 0.62321 0.78151 0.87177 0.0
C2541 C 0.62989 0.76594 0.88999 0.0
C2542 C 0.5851 0.82118 0.81514 0.0
C2543 C 0.5798 0.84021 0.82661 0.0
C2544 C 0.59483 0.80655 0.83203 0.0
C2545 C 0.59933 0.81058 0.8608 0.0
C2546 C 0.59473 0.82984 0.8719 0.0
C2547 C 0.58517 0.84447 0.85504 0.0
H2548 H 0.48797 0.39778 0.15379 0.0
H2549 H 0.50962 0.33632 0.16331 0.0
H2550 H 0.46078 0.38546 0.12215 0.0
H2551 H 0.48298 0.32425 0.13183 0.0
H2552 H 0.44515 0.31126 0.05366 0.0
H2553 H 0.47269 0.32779 0.07949 0.0
H2554 H 0.42918 0.36145 0.12931 0.0
H2555 H 0.40148 0.34481 0.10373 0.0
C2556 C 0.48705 0.38175 0.14892 0.0
C2557 C 0.50085 0.36802 0.16119 0.0
C2558 C 0.47149 0.37469 0.13097 0.0
C2559 C 0.46983 0.3539 0.12446 0.0
C2560 C 0.48397 0.34037 0.13619 0.0
C2561 C 0.49916 0.3473 0.15443 0.0
C2562 C 0.44137 0.32234 0.06987 0.0
C2563 C 0.42102 0.32655 0.07669 0.0
C2564 C 0.45718 0.33179 0.08469 0.0
C2565 C 0.45308 0.34587 0.10645 0.0
C2566 C 0.4328 0.35078 0.11248 0.0
C2567 C 0.41694 0.34113 0.09791 0.0
H2568 H 0.90939 0.23538 0.44568 0.0
H2569 H 0.8713 0.25931 0.37856 0.0
H2570 H 0.92097 0.20877 0.41424 0.0
H2571 H 0.88328 0.23227 0.34661 0.0
H2572 H 0.93446 0.19592 0.29467 0.0
H2573 H 0.91724 0.22191 0.32311 0.0
H2574 H 0.90723 0.17815 0.39014 0.0
H2575 H 0.92438 0.15234 0.36221 0.0
C2576 C 0.90321 0.23486 0.42431 0.0
C2577 C 0.8892 0.2495 0.41485 0.0
C2578 C 0.90989 0.21948 0.40623 0.0
C2579 C 0.90297 0.21831 0.37797 0.0
C2580 C 0.8889 0.23283 0.3683 0.0
C2581 C 0.88195 0.2482 0.38665 0.0
C2582 C 0.92838 0.19178 0.31534 0.0
C2583 C 0.93106 0.17203 0.32621 0.0
C2584 C 0.91841 0.20666 0.33153 0.0
C2585 C 0.91103 0.20212 0.35896 0.0
C2586 C 0.91299 0.1822 0.36925 0.0
C2587 C 0.92283 0.16737 0.35313 0.0
H2588 H 0.10801 0.67951 0.61684 0.0
H2589 H 0.06624 0.68318 0.54588 0.0
H2590 H 0.08184 0.66364 0.64573 0.0
H2591 H 0.03997 0.66714 0.57515 0.0
H2592 H 1.00364 0.62217 0.63323 0.0
H2593 H 0.03104 0.63401 0.60196 0.0
H2594 H 0.04939 0.67717 0.6662 0.0
H2595 H 0.02219 0.6657 0.69709 0.0
C2596 C 0.09331 0.67681 0.60724 0.0
C2597 C 0.08925 0.68284 0.57899 0.0
C2598 C 0.07828 0.66774 0.62391 0.0
C2599 C 0.05881 0.66427 0.6128 0.0
C2600 C 0.05488 0.66952 0.58424 0.0
C2601 C 0.06992 0.6788 0.56754 0.0
C2602 C 0.01365 0.63405 0.64077 0.0
C2603 C 0.01073 0.64286 0.66783 0.0
C2604 C 0.02924 0.64091 0.62277 0.0
C2605 C 0.04241 0.65647 0.63167 0.0
C2606 C 0.03967 0.66498 0.65885 0.0
C2607 C 0.024 0.65838 0.67659 0.0
H2608 H 0.59001 0.26143 0.59721 0.0
H2609 H 0.65078 0.23711 0.59677 0.0
H2610 H 0.5791 0.23434 0.62915 0.0
H2611 H 0.63959 0.20937 0.62845 0.0
H2612 H 0.5939 0.15173 0.64632 0.0
H2613 H 0.61072 0.1792 0.62026 0.0
H2614 H 0.58895 0.22235 0.6822 0.0
H2615 H 0.57258 0.19506 0.70874 0.0
C2616 C 0.60105 0.25028 0.60406 0.0
C2617 C 0.62123 0.25132 0.59453 0.0
C2618 C 0.59482 0.23485 0.62244 0.0
C2619 C 0.60851 0.21981 0.63125 0.0
C2620 C 0.62877 0.22082 0.62191 0.0
C2621 C 0.63518 0.23668 0.60398 0.0
C2622 C 0.593 0.167 0.65472 0.0
C2623 C 0.58173 0.17114 0.67958 0.0
C2624 C 0.60273 0.18269 0.63985 0.0
C2625 C 0.60108 0.20285 0.64924 0.0
C2626 C 0.59042 0.20692 0.67452 0.0
C2627 C 0.58104 0.19125 0.68968 0.0
H2628 H 1.00207 0.39139 0.87526 0.0
H2629 H 0.02622 0.35397 0.80758 0.0
H2630 H 0.02882 0.37889 0.90727 0.0
H2631 H 0.05256 0.34185 0.83909 0.0
H2632 H 0.10814 0.33623 0.89274 0.0
H2633 H 0.0831 0.3542 0.86434 0.0
H2634 H 0.03826 0.3448 0.93012 0.0
H2635 H 0.06344 0.32681 0.95897 0.0
C2636 C 0.0132 0.38081 0.86705 0.0
C2637 C 0.012 0.37384 0.8387 0.0
C2638 C 0.0284 0.37354 0.88543 0.0
C2639 C 0.04287 0.35945 0.87566 0.0
C2640 C 0.04189 0.35292 0.84721 0.0
C2641 C 0.02666 0.35991 0.82908 0.0
C2642 C 0.09303 0.33809 0.90142 0.0
C2643 C 0.08782 0.32982 0.92813 0.0
C2644 C 0.07865 0.3484 0.88505 0.0
C2645 C 0.05865 0.3508 0.89487 0.0
C2646 C 0.05359 0.34333 0.92205 0.0
C2647 C 0.068 0.33289 0.93848 0.0
H2648 H 0.86383 0.77095 0.10164 0.0
H2649 H 0.92519 0.74986 0.08902 0.0
H2650 H 0.87656 0.79746 0.13406 0.0
H2651 H 0.93766 0.77578 0.12159 0.0
H2652 H 0.94959 0.81167 0.20367 0.0
H2653 H 0.9333 0.78463 0.17627 0.0
H2654 H 0.90169 0.82928 0.12582 0.0
H2655 H 0.91827 0.85638 0.15256 0.0
C2656 C 0.87995 0.77187 0.10594 0.0
C2657 C 0.89352 0.75845 0.09259 0.0
C2658 C 0.88722 0.78701 0.1244 0.0
C2659 C 0.90808 0.78856 0.13039 0.0
C2660 C 0.9215 0.77483 0.11755 0.0
C2661 C 0.91434 0.76009 0.0987 0.0
C2662 C 0.93901 0.81577 0.18697 0.0
C2663 C 0.93533 0.83626 0.18032 0.0
C2664 C 0.92971 0.80027 0.17127 0.0
C2665 C 0.91621 0.80489 0.14898 0.0
C2666 C 0.91187 0.8253 0.14307 0.0
C2667 C 0.92147 0.84081 0.15836 0.0
H2668 H 0.44293 0.68211 0.46142 0.0
H2669 H 0.40177 0.67912 0.38968 0.0
H2670 H 0.46906 0.66523 0.43283 0.0
H2671 H 0.42782 0.66249 0.36146 0.0
H2672 H 0.48839 0.66502 0.31202 0.0
H2673 H 0.46119 0.67657 0.34266 0.0
H2674 H 0.47713 0.63129 0.40525 0.0
H2675 H 0.50453 0.6192 0.37403 0.0
C2676 C 0.43934 0.67769 0.43974 0.0
C2677 C 0.42025 0.6822 0.42783 0.0
C2678 C 0.45429 0.66792 0.42345 0.0
C2679 C 0.4505 0.66267 0.39488 0.0
C2680 C 0.43123 0.66654 0.38335 0.0
C2681 C 0.41628 0.67608 0.39961 0.0
C2682 C 0.48605 0.6572 0.33205 0.0
C2683 C 0.49861 0.64096 0.34032 0.0
C2684 C 0.47038 0.66388 0.34965 0.0
C2685 C 0.46695 0.65477 0.37626 0.0
C2686 C 0.47947 0.63859 0.3848 0.0
C2687 C 0.49505 0.63161 0.36687 0.0
H2688 H 0.42281 0.18833 0.21554 0.0
H2689 H 0.43678 0.15902 0.13557 0.0
H2690 H 0.40316 0.21398 0.19011 0.0
H2691 H 0.41833 0.18505 0.11007 0.0
H2692 H 0.37494 0.22582 0.06744 0.0
H2693 H 0.38757 0.19844 0.0975 0.0
H2694 H 0.40548 0.24246 0.16121 0.0
H2695 H 0.39148 0.26954 0.13163 0.0
C2696 C 0.42177 0.18742 0.19252 0.0
C2697 C 0.43135 0.17157 0.17763 0.0
C2698 C 0.41057 0.20222 0.17785 0.0
C2699 C 0.40895 0.20174 0.14786 0.0
C2700 C 0.41862 0.18581 0.13313 0.0
C2701 C 0.42945 0.17087 0.1478 0.0
C2702 C 0.38106 0.22946 0.08827 0.0
C2703 C 0.3821 0.24968 0.09741 0.0
C2704 C 0.38862 0.21383 0.10539 0.0
C2705 C 0.39807 0.2181 0.13171 0.0
C2706 C 0.3982 0.23838 0.14134 0.0
C2707 C 0.39015 0.25398 0.12443 0.0
H2708 H 0.50342 0.62087 0.87643 0.0
H2709 H 0.527 0.65882 0.80889 0.0
H2710 H 0.53057 0.63301 0.90808 0.0
H2711 H 0.55372 0.67059 0.84003 0.0
H2712 H 0.61001 0.67545 0.89225 0.0
H2713 H 0.58449 0.65786 0.8642 0.0
H2714 H 0.54065 0.66669 0.93143 0.0
H2715 H 0.56631 0.68429 0.95991 0.0
C2716 C 0.51449 0.63151 0.86818 0.0
C2717 C 0.51303 0.6387 0.83996 0.0
C2718 C 0.52993 0.63856 0.88635 0.0
C2719 C 0.54438 0.65267 0.8765 0.0
C2720 C 0.54308 0.65948 0.84819 0.0
C2721 C 0.52763 0.6527 0.83029 0.0
C2722 C 0.59502 0.67353 0.90132 0.0
C2723 C 0.59024 0.68154 0.92833 0.0
C2724 C 0.58035 0.66345 0.88514 0.0
C2725 C 0.56048 0.66102 0.89547 0.0
C2726 C 0.55586 0.6682 0.92296 0.0
C2727 C 0.57056 0.6784 0.93919 0.0
H2728 H 0.08288 0.81976 0.70739 0.0
H2729 H 0.08394 0.86085 0.63545 0.0
H2730 H 0.0993 0.79376 0.67831 0.0
H2731 H 0.10031 0.83488 0.60665 0.0
H2732 H 0.09767 0.77414 0.55734 0.0
H2733 H 0.08709 0.80205 0.58749 0.0
H2734 H 0.1315 0.78476 0.65064 0.0
H2735 H 0.14241 0.7566 0.62012 0.0
C2736 C 0.08686 0.82338 0.68556 0.0
C2737 C 0.08186 0.84238 0.67374 0.0
C2738 C 0.09636 0.80849 0.66895 0.0
C2739 C 0.10094 0.81222 0.64013 0.0
C2740 C 0.09673 0.83147 0.62869 0.0
C2741 C 0.08738 0.84638 0.64529 0.0
C2742 C 0.10547 0.77634 0.57742 0.0
C2743 C 0.12102 0.7631 0.58615 0.0
C2744 C 0.0994 0.79245 0.59471 0.0
C2745 C 0.10851 0.79568 0.62139 0.0
C2746 C 0.12416 0.78259 0.63019 0.0
C2747 C 0.13047 0.76655 0.61264 0.0
H2748 H 0.94655 0.31659 0.45904 0.0
H2749 H 0.90325 0.34395 0.40141 0.0
H2750 H 0.97415 0.33317 0.43337 0.0
H2751 H 0.93101 0.36076 0.37612 0.0
H2752 H 0.98875 0.39937 0.35268 0.0
H2753 H 0.96126 0.38733 0.38409 0.0
H2754 H 0.98625 0.32686 0.38129 0.0
H2755 H 0.01315 0.33864 0.3498 0.0
C2756 C 0.94284 0.32636 0.44121 0.0
C2757 C 0.92261 0.32879 0.43224 0.0
C2758 C 0.95869 0.33584 0.4265 0.0
C2759 C 0.95471 0.34824 0.40277 0.0
C2760 C 0.93448 0.35143 0.39451 0.0
C2761 C 0.91861 0.34169 0.40893 0.0
C2762 C 0.9884 0.38358 0.35909 0.0
C2763 C 1.003 0.36992 0.34874 0.0
C2764 C 0.97267 0.37669 0.37688 0.0
C2765 C 0.97169 0.35617 0.38515 0.0
C2766 C 0.98671 0.34276 0.37547 0.0
C2767 C 1.00204 0.3495 0.3573 0.0
H2768 H 0.42589 0.86034 0.36635 0.0
H2769 H 0.42609 0.8192 0.29449 0.0
H2770 H 0.40968 0.83443 0.39551 0.0
H2771 H 0.40977 0.79328 0.32393 0.0
H2772 H 0.36686 0.7566 0.38408 0.0
H2773 H 0.37755 0.78455 0.35286 0.0
H2774 H 0.42355 0.80137 0.41394 0.0
H2775 H 0.41331 0.77367 0.44464 0.0
C2776 C 0.42228 0.84589 0.3566 0.0
C2777 C 0.42754 0.84184 0.32807 0.0
C2778 C 0.41301 0.83102 0.3734 0.0
C2779 C 0.40861 0.81177 0.36208 0.0
C2780 C 0.41288 0.80801 0.33319 0.0
C2781 C 0.42232 0.82286 0.31638 0.0
C2782 C 0.37912 0.76639 0.39094 0.0
C2783 C 0.38908 0.7629 0.41705 0.0
C2784 C 0.38529 0.78232 0.373 0.0
C2785 C 0.40128 0.79524 0.38107 0.0
C2786 C 0.41096 0.79191 0.40732 0.0
C2787 C 0.40506 0.77592 0.42494 0.0
H2788 H 0.00568 0.61895 0.13416 0.0
H2789 H 0.98781 0.664 0.19628 0.0
H2790 H 0.97774 0.62985 0.10311 0.0
H2791 H 0.96016 0.67453 0.16569 0.0
H2792 H 0.90138 0.67713 0.1178 0.0
H2793 H 0.92745 0.661 0.14666 0.0
H2794 H 0.96853 0.66205 0.07499 0.0
H2795 H 0.94239 0.67826 0.0458 0.0
C2796 C 0.99571 0.63095 0.14138 0.0
C2797 C 0.99898 0.64046 0.16788 0.0
C2798 C 0.9798 0.63726 0.12353 0.0
C2799 C 0.96667 0.65296 0.13204 0.0
C2800 C 0.96978 0.66218 0.15868 0.0
C2801 C 0.98574 0.65612 0.17624 0.0
C2802 C 0.91586 0.67378 0.10796 0.0
C2803 C 0.91979 0.67924 0.07946 0.0
C2804 C 0.93083 0.66455 0.1246 0.0
C2805 C 0.9501 0.66041 0.11319 0.0
C2806 C 0.95378 0.66495 0.08434 0.0
C2807 C 0.93882 0.67433 0.06767 0.0
H2808 H 0.09658 0.23597 0.94666 0.0
H2809 H 0.13894 0.25693 0.88271 0.0
H2810 H 0.08596 0.20873 0.91547 0.0
H2811 H 0.12768 0.22949 0.85084 0.0
H2812 H 0.07558 0.19411 0.79715 0.0
H2813 H 0.09251 0.22024 0.82571 0.0
H2814 H 0.10186 0.17682 0.8933 0.0
H2815 H 0.08523 0.15072 0.86503 0.0
C2816 C 0.10389 0.23467 0.92609 0.0
C2817 C 0.11885 0.24861 0.91745 0.0
C2818 C 0.09773 0.21897 0.90816 0.0
C2819 C 0.10606 0.2169 0.88079 0.0
C2820 C 0.12102 0.23076 0.87189 0.0
C2821 C 0.12754 0.24636 0.89018 0.0
C2822 C 0.08148 0.19005 0.81794 0.0
C2823 C 0.0788 0.1703 0.82884 0.0
C2824 C 0.09129 0.205 0.83419 0.0
C2825 C 0.0984 0.20057 0.86176 0.0
C2826 C 0.09639 0.18069 0.87219 0.0
C2827 C 0.08684 0.16573 0.85592 0.0
H2828 H 0.56481 0.31964 0.54877 0.0
H2829 H 0.60933 0.34139 0.60924 0.0
H2830 H 0.53796 0.3355 0.5767 0.0
H2831 H 0.58227 0.3577 0.63673 0.0
H2832 H 0.52432 0.39754 0.6618 0.0
H2833 H 0.55179 0.3863 0.62977 0.0
H2834 H 0.52698 0.32572 0.63003 0.0
H2835 H 0.50014 0.33665 0.66226 0.0
C2836 C 0.56897 0.32806 0.56773 0.0
C2837 C 0.5893 0.32907 0.57681 0.0
C2838 C 0.55354 0.33714 0.58369 0.0
C2839 C 0.55807 0.34781 0.60882 0.0
C2840 C 0.57842 0.3497 0.61729 0.0
C2841 C 0.59387 0.34027 0.60159 0.0
C2842 C 0.52474 0.38189 0.65479 0.0
C2843 C 0.51016 0.36795 0.66457 0.0
C2844 C 0.54045 0.37546 0.63666 0.0
C2845 C 0.54142 0.35517 0.62743 0.0
C2846 C 0.52652 0.34146 0.63667 0.0
C2847 C 0.51122 0.34772 0.65522 0.0
H2848 H 0.05908 0.46358 0.29624 0.0
H2849 H 0.99806 0.45322 0.26582 0.0
H2850 H 0.05794 0.49805 0.27789 0.0
H2851 H 0.99699 0.48804 0.24736 0.0
H2852 H 0.99911 0.55983 0.24621 0.0
H2853 H 0.99777 0.52497 0.26437 0.0
H2854 H 0.05727 0.5136 0.22945 0.0
H2855 H 0.05867 0.54816 0.21138 0.0
C2856 C 0.04534 0.46867 0.28579 0.0
C2857 C 0.02866 0.45554 0.28249 0.0
C2858 C 0.04476 0.48844 0.27509 0.0
C2859 C 0.02745 0.49574 0.26094 0.0
C2860 C 0.01052 0.48286 0.25825 0.0
C2861 C 0.01117 0.46291 0.26876 0.0
C2862 C 0.01183 0.54983 0.24222 0.0
C2863 C 0.02902 0.55687 0.22738 0.0
C2864 C 0.01102 0.52985 0.25255 0.0
C2865 C 0.02749 0.51658 0.24856 0.0
C2866 C 0.04446 0.52352 0.23325 0.0
C2867 C 0.04519 0.54335 0.22273 0.0
H2868 H 0.80703 0.75111 0.51399 0.0
H2869 H 0.7963 0.81238 0.54316 0.0
H2870 H 0.7726 0.74992 0.4944 0.0
H2871 H 0.76213 0.81109 0.52375 0.0
H2872 H 0.71282 0.81141 0.45624 0.0
H2873 H 0.74707 0.81031 0.47545 0.0
H2874 H 0.73573 0.75045 0.50932 0.0
H2875 H 0.70124 0.75147 0.48994 0.0
C2876 C 0.79731 0.76424 0.51648 0.0
C2877 C 0.80449 0.78185 0.53013 0.0
C2878 C 0.77757 0.76352 0.50529 0.0
C2879 C 0.76469 0.78048 0.50727 0.0
C2880 C 0.77177 0.79789 0.52144 0.0
C2881 C 0.79136 0.79856 0.53277 0.0
C2882 C 0.7176 0.79791 0.46757 0.0
C2883 C 0.7042 0.78153 0.47155 0.0
C2884 C 0.73723 0.79735 0.47877 0.0
C2885 C 0.74408 0.78038 0.49416 0.0
C2886 C 0.73094 0.76372 0.49746 0.0
C2887 C 0.71117 0.76433 0.48639 0.0
H2888 H 0.49984 0.44519 0.77472 0.0
H2889 H 0.47111 0.46485 0.69668 0.0
H2890 H 0.50141 0.48054 0.79105 0.0
H2891 H 0.47327 0.50015 0.7127 0.0
H2892 H 0.50172 0.56186 0.7427 0.0
H2893 H 0.50355 0.52644 0.72695 0.0
H2894 H 0.47105 0.5077 0.80234 0.0
H2895 H 0.46864 0.54315 0.81775 0.0
C2896 C 0.49417 0.45707 0.76087 0.0
C2897 C 0.48537 0.45224 0.7344 0.0
C2898 C 0.49498 0.47725 0.7703 0.0
C2899 C 0.48749 0.49304 0.75311 0.0
C2900 C 0.47926 0.48828 0.72628 0.0
C2901 C 0.47799 0.46808 0.71717 0.0
C2902 C 0.49515 0.55017 0.75607 0.0
C2903 C 0.48505 0.5553 0.7815 0.0
C2904 C 0.49612 0.52993 0.74697 0.0
C2905 C 0.48747 0.51436 0.76346 0.0
C2906 C 0.47796 0.5194 0.78933 0.0
C2907 C 0.47654 0.53968 0.79809 0.0
H2908 H 0.79481 0.22169 0.93904 0.0
H2909 H 0.81433 0.25128 0.01652 0.0
H2910 H 0.75951 0.2238 0.95504 0.0
H2911 H 0.779 0.25284 0.03281 0.0
H2912 H 0.71703 0.22042 0.0611 0.0
H2913 H 0.75233 0.22295 0.0452 0.0
H2914 H 0.73279 0.25334 0.96847 0.0
H2915 H 0.69747 0.25135 0.98467 0.0
C2916 C 0.79154 0.22876 0.9594 0.0
C2917 C 0.80735 0.23637 0.97649 0.0
C2918 C 0.77135 0.23002 0.96849 0.0
C2919 C 0.76655 0.23847 0.99516 0.0
C2920 C 0.78231 0.24623 0.01218 0.0
C2921 C 0.80248 0.24542 0.00278 0.0
C2922 C 0.72029 0.22786 0.041 0.0
C2923 C 0.70447 0.23573 0.02417 0.0
C2924 C 0.74048 0.22936 0.03197 0.0
C2925 C 0.74527 0.23833 0.00562 0.0
C2926 C 0.7295 0.24633 0.98886 0.0
C2927 C 0.70932 0.24527 0.9982 0.0
H2928 H 0.96702 0.46952 0.81462 0.0
H2929 H 0.99929 0.44986 0.73938 0.0
H2930 H 0.96863 0.50469 0.7977 0.0
H2931 H 1.00029 0.48496 0.72214 0.0
H2932 H 0.96661 0.54602 0.69111 0.0
H2933 H 0.96904 0.51092 0.70814 0.0
H2934 H 0.99918 0.53164 0.78442 0.0
H2935 H 0.99737 0.56668 0.76709 0.0
C2936 C 0.97456 0.47273 0.79458 0.0
C2937 C 0.98311 0.45693 0.7784 0.0
C2938 C 0.97551 0.49283 0.78496 0.0
C2939 C 0.98455 0.49749 0.75861 0.0
C2940 C 0.99321 0.48175 0.7425 0.0
C2941 C 0.99272 0.4617 0.75246 0.0
C2942 C 0.97397 0.54305 0.71135 0.0
C2943 C 0.98187 0.55911 0.7277 0.0
C2944 C 0.97539 0.52299 0.72103 0.0
C2945 C 0.98428 0.51862 0.74758 0.0
C2946 C 0.99224 0.53463 0.7639 0.0
C2947 C 0.99128 0.55464 0.7539 0.0
H2948 H 0.30891 0.26216 0.51317 0.0
H2949 H 0.29845 0.20183 0.54619 0.0
H2950 H 0.27397 0.26312 0.49532 0.0
H2951 H 0.26382 0.20285 0.52841 0.0
H2952 H 0.21347 0.20123 0.46199 0.0
H2953 H 0.248 0.20265 0.48012 0.0
H2954 H 0.23717 0.26295 0.5126 0.0
H2955 H 0.20232 0.26159 0.4944 0.0
C2956 C 0.29916 0.2492 0.51685 0.0
C2957 C 0.30655 0.23191 0.5311 0.0
C2958 C 0.27913 0.24978 0.50668 0.0
C2959 C 0.26618 0.233 0.51023 0.0
C2960 C 0.27348 0.21592 0.52495 0.0
C2961 C 0.29335 0.21541 0.53533 0.0
C2962 C 0.21839 0.21489 0.47283 0.0
C2963 C 0.20504 0.23129 0.47675 0.0
C2964 C 0.2382 0.21563 0.4834 0.0
C2965 C 0.24529 0.23284 0.49802 0.0
C2966 C 0.23217 0.2495 0.50133 0.0
C2967 C 0.2122 0.24869 0.49097 0.0
H2968 H 0.54232 0.54355 0.31605 0.0
H2969 H 0.50978 0.56344 0.24115 0.0
H2970 H 0.53969 0.50832 0.29973 0.0
H2971 H 0.50768 0.52825 0.22454 0.0
H2972 H 0.53878 0.46665 0.19275 0.0
H2973 H 0.537 0.50179 0.20949 0.0
H2974 H 0.50965 0.48154 0.28809 0.0
H2975 H 0.51087 0.44636 0.27107 0.0
C2976 C 0.53451 0.54039 0.2962 0.0
C2977 C 0.52621 0.55628 0.27993 0.0
C2978 C 0.53296 0.52023 0.28694 0.0
C2979 C 0.52349 0.51558 0.26088 0.0
C2980 C 0.51508 0.53143 0.24468 0.0
C2981 C 0.5162 0.55154 0.25427 0.0
C2982 C 0.53214 0.46971 0.21345 0.0
C2983 C 0.5249 0.45373 0.23055 0.0
C2984 C 0.53108 0.48982 0.22297 0.0
C2985 C 0.52321 0.49436 0.25009 0.0
C2986 C 0.51583 0.47843 0.26713 0.0
C2987 C 0.51642 0.45834 0.25731 0.0
H2988 H 0.21733 0.7916 0.06208 0.0
H2989 H 0.19683 0.76141 0.98558 0.0
H2990 H 0.25246 0.78916 0.04533 0.0
H2991 H 0.23195 0.75956 0.96852 0.0
H2992 H 0.29392 0.79188 0.93871 0.0
H2993 H 0.25877 0.78984 0.95546 0.0
H2994 H 0.27874 0.75864 0.0313 0.0
H2995 H 0.31388 0.76009 0.01422 0.0
C2996 C 0.22034 0.78433 0.04179 0.0
C2997 C 0.20431 0.77663 0.02521 0.0
C2998 C 0.24044 0.78289 0.03226 0.0
C2999 C 0.24489 0.77419 0.00563 0.0
C3000 C 0.22891 0.76636 0.98911 0.0
C3001 C 0.20885 0.76733 0.99896 0.0
C3002 C 0.29079 0.78435 0.95878 0.0
C3003 C 0.30667 0.77607 0.97508 0.0
C3004 C 0.27068 0.78314 0.96831 0.0
C3005 C 0.26606 0.77409 0.99467 0.0
C3006 C 0.2819 0.76571 0.01092 0.0
C3007 C 0.30197 0.76646 1.00106 0.0
H3008 H 0.54044 0.966 0.80856 0.0
H3009 H 0.51228 0.94588 0.73034 0.0
H3010 H 0.5384 1.00121 0.79207 0.0
H3011 H 0.51084 0.98112 0.71356 0.0
H3012 H 0.54389 0.04349 0.68649 0.0
H3013 H 0.54139 0.00816 0.70246 0.0
H3014 H 0.50813 0.02742 0.77689 0.0
H3015 H 0.51004 0.06273 0.76056 0.0
C3016 C 0.53372 0.96911 0.78793 0.0
C3017 C 0.52646 0.95317 0.77079 0.0
C3018 C 0.5325 0.98925 0.77855 0.0
C3019 C 0.52447 0.99385 0.75155 0.0
C3020 C 0.51712 0.97796 0.73445 0.0
C3021 C 0.51786 0.95783 0.74412 0.0
C3022 C 0.5358 0.04016 0.70606 0.0
C3023 C 0.5271 0.05589 0.72221 0.0
C3024 C 0.53434 0.01995 0.71513 0.0
C3025 C 0.52459 0.0151 0.7409 0.0
C3026 C 0.51574 0.03078 0.75696 0.0
C3027 C 0.51676 0.05094 0.74753 0.0
H3028 H 0.31039 0.26007 0.9956 0.0
H3029 H 0.29098 0.29626 0.06736 0.0
H3030 H 0.27523 0.25817 0.97875 0.0
H3031 H 0.25576 0.29375 0.05091 0.0
H3032 H 0.19359 0.26337 0.0233 0.0
H3033 H 0.22869 0.26221 0.04067 0.0
H3034 H 0.24934 0.28909 0.96197 0.0
H3035 H 0.21425 0.2909 0.9449 0.0
C3036 C 0.29859 0.26733 0.00802 0.0
C3037 C 0.30345 0.27829 0.03285 0.0
C3038 C 0.27851 0.26631 0.99829 0.0
C3039 C 0.26282 0.27578 0.01358 0.0
C3040 C 0.26757 0.28622 0.03885 0.0
C3041 C 0.28771 0.28768 0.04819 0.0
C3042 C 0.20564 0.26884 0.0096 0.0
C3043 C 0.20117 0.27719 0.9827 0.0
C3044 C 0.22568 0.26827 0.01961 0.0
C3045 C 0.24168 0.27554 0.00262 0.0
C3046 C 0.23729 0.28329 0.9754 0.0
C3047 C 0.21722 0.28435 0.96569 0.0
H3048 H 0.01222 0.05896 0.25992 0.0
H3049 H 0.95199 0.048 0.29289 0.0
H3050 H 0.01353 0.02395 0.24228 0.0
H3051 H 0.95336 0.01332 0.27536 0.0
H3052 H 0.95226 0.96221 0.21033 0.0
H3053 H 0.9533 0.99697 0.22764 0.0
H3054 H 0.01387 0.98731 0.25984 0.0
H3055 H 0.0129 0.95225 0.24242 0.0
C3056 C 0.99934 0.04909 0.26359 0.0
C3057 C 0.98199 0.05636 0.2778 0.0
C3058 C 1.00013 0.02903 0.25356 0.0
C3059 C 0.98349 0.01589 0.2572 0.0
C3060 C 0.96632 0.02311 0.27181 0.0
C3061 C 0.96561 0.04301 0.28204 0.0
C3062 C 0.9659 0.96744 0.22092 0.0
C3063 C 0.98249 0.95434 0.225 0.0
C3064 C 0.96642 0.98738 0.23103 0.0
C3065 C 0.9836 0.99489 0.24534 0.0
C3066 C 1.00045 0.98201 0.24878 0.0
C3067 C 0.99986 0.96191 0.23887 0.0
H3068 H 0.29353 0.71947 0.44165 0.0
H3069 H 0.31334 0.75028 0.51805 0.0
H3070 H 0.25831 0.72173 0.45792 0.0
H3071 H 0.27808 0.75199 0.53463 0.0
H3072 H 0.2165 0.7189 0.56398 0.0
H3073 H 0.25171 0.72159 0.54775 0.0
H3074 H 0.23166 0.75177 0.47111 0.0
H3075 H 0.19643 0.74962 0.48763 0.0
C3076 C 0.29034 0.72685 0.46181 0.0
C3077 C 0.30618 0.73475 0.47855 0.0
C3078 C 0.2702 0.72819 0.47105 0.0
C3079 C 0.26553 0.73702 0.49751 0.0
C3080 C 0.28132 0.74509 0.51415 0.0
C3081 C 0.30144 0.7442 0.5046 0.0
C3082 C 0.21963 0.72633 0.54383 0.0
C3083 C 0.20372 0.73409 0.5271 0.0
C3084 C 0.23976 0.72793 0.53463 0.0
C3085 C 0.24435 0.73688 0.50821 0.0
C3086 C 0.22849 0.74479 0.49156 0.0
C3087 C 0.20838 0.74363 0.50108 0.0
H3088 H 0.50015 0.06365 0.2643 0.0
H3089 H 0.46847 0.0444 0.18834 0.0
H3090 H 0.50155 0.02837 0.28074 0.0
H3091 H 0.47043 0.00908 0.20449 0.0
H3092 H 0.49824 0.94671 0.23378 0.0
H3093 H 0.50014 0.98193 0.21701 0.0
H3094 H 0.47141 1.00219 0.29459 0.0
H3095 H 0.46894 0.96701 0.31106 0.0
C3096 C 0.49379 0.05187 0.2509 0.0
C3097 C 0.48421 0.05681 0.225 0.0
C3098 C 0.49451 0.03171 0.2604 0.0
C3099 C 0.48613 0.01602 0.24386 0.0
C3100 C 0.47712 0.02087 0.21755 0.0
C3101 C 0.47596 0.04107 0.20838 0.0
C3102 C 0.49251 0.9587 0.24737 0.0
C3103 C 0.48346 0.95408 0.27376 0.0
C3104 C 0.49351 0.97882 0.23769 0.0
C3105 C 0.48595 0.99476 0.25452 0.0
C3106 C 0.47747 0.99021 0.28127 0.0
C3107 C 0.47601 0.97008 0.29064 0.0
H3108 H 0.8141 0.74973 0.98779 0.0
H3109 H 0.79415 0.71982 0.06483 0.0
H3110 H 0.77884 0.75172 0.97137 0.0
H3111 H 0.75891 0.72234 0.04869 0.0
H3112 H 0.69711 0.75042 0.01912 0.0
H3113 H 0.7324 0.75205 0.03553 0.0
H3114 H 0.75196 0.72229 0.95835 0.0
H3115 H 0.71669 0.72012 0.94223 0.0
C3116 C 0.80218 0.74389 1.00142 0.0
C3117 C 0.80691 0.73463 0.02762 0.0
C3118 C 0.78203 0.74494 0.99194 0.0
C3119 C 0.76616 0.73721 0.00878 0.0
C3120 C 0.77083 0.72855 0.03537 0.0
C3121 C 0.791 0.72705 0.04455 0.0
C3122 C 0.70896 0.74442 0.00552 0.0
C3123 C 0.70412 0.73516 0.97936 0.0
C3124 C 0.72912 0.74526 0.01499 0.0
C3125 C 0.74489 0.73732 0.99819 0.0
C3126 C 0.74012 0.72866 0.97164 0.0
C3127 C 0.71993 0.72737 0.96248 0.0
H3128 H 0.00989 0.06392 0.73857 0.0
H3129 H 0.04255 0.04295 0.81279 0.0
H3130 H 0.00733 0.02887 0.72134 0.0
H3131 H 0.03943 0.00792 0.79592 0.0
H3132 H 0.01037 0.94652 0.76614 0.0
H3133 H 0.00866 0.98159 0.78351 0.0
H3134 H 0.03731 1.00245 0.70615 0.0
H3135 H 0.0396 0.96742 0.68909 0.0
C3136 C 0.0162 0.05181 0.75143 0.0
C3137 C 0.02642 0.05617 0.77704 0.0
C3138 C 0.0148 0.0318 0.7415 0.0
C3139 C 0.02314 0.01574 0.75736 0.0
C3140 C 0.03275 0.02002 0.78341 0.0
C3141 C 0.03459 0.04006 0.79299 0.0
C3142 C 0.01607 0.95862 0.7527 0.0
C3143 C 0.02511 0.95423 0.72625 0.0
C3144 C 0.01518 0.97864 0.76271 0.0
C3145 C 0.02283 0.99468 0.74613 0.0
C3146 C 0.03119 0.99037 0.71925 0.0
C3147 C 0.03254 0.97033 0.70955 0.0
H3148 H 0.7174 0.29344 0.56234 0.0
H3149 H 0.69672 0.26149 0.48736 0.0
H3150 H 0.75241 0.29134 0.54497 0.0
H3151 H 0.73171 0.26003 0.46962 0.0
H3152 H 0.79347 0.2938 0.439 0.0
H3153 H 0.75834 0.29167 0.45598 0.0
H3154 H 0.77851 0.25955 0.53094 0.0
H3155 H 0.81356 0.26103 0.51361 0.0
C3156 C 0.72035 0.28589 0.54224 0.0
C3157 C 0.70432 0.27755 0.52628 0.0
C3158 C 0.74036 0.28466 0.53236 0.0
C3159 C 0.7447 0.27554 0.50597 0.0
C3160 C 0.72873 0.26715 0.49002 0.0
C3161 C 0.70876 0.2679 0.50025 0.0
C3162 C 0.79037 0.28603 0.4589 0.0
C3163 C 0.80627 0.2775 0.4749 0.0
C3164 C 0.77029 0.28479 0.46856 0.0
C3165 C 0.76578 0.27547 0.49476 0.0
C3166 C 0.78162 0.26682 0.51068 0.0
C3167 C 0.80163 0.26759 0.50068 0.0
loop_
_geom_bond_atom_site_label_1
_geom_bond_atom_site_label_2
_geom_bond_distance
_geom_bond_site_symmetry_2
_ccdc_geom_bond_type
Co0 O2 2.143 . S
Co0 O8 2.074 . S
Co0 O11 2.093 . S
Co0 O24 2.097 . S
Co0 N41 2.151 . S
Co0 N49 2.214 . S
Co1 O2 2.160 . S
Co1 O7 2.058 . S
Co1 O17 2.057 . S
Co1 O32 2.037 . S
Co1 N36 2.145 . S
Co1 N57 2.257 . S
O2 Co0 2.143 . S
O2 Co1 2.160 . S
C3 O4 1.278 . S
C3 O11 1.224 . S
O4 C3 1.278 . S
C5 O6 1.245 . S
C5 O17 1.232 . S
O6 C5 1.245 . S
O7 Co1 2.058 . S
O7 C33 1.269 . S
O8 Co0 2.074 . S
O8 C33 1.257 . S
H9 C34 0.930 . S
H10 C40 0.930 . S
O11 Co0 2.093 . S
O11 C3 1.224 . S
H12 C44 0.929 . S
H13 C46 0.930 . S
H14 C47 0.930 . S
H15 C45 0.929 . S
H16 C48 0.928 . S
O17 Co1 2.057 . S
O17 C5 1.232 . S
H18 C37 0.929 . S
H19 C38 0.929 . S
H20 C50 0.931 . S
H21 C42 0.929 . S
H22 C51 0.930 . S
H23 C43 0.931 . S
O24 Co0 2.097 . S
O24 C52 1.214 . S
H25 C53 0.929 . S
H26 C54 0.929 . S
H27 C55 0.930 . S
H28 C56 0.929 . S
H29 C58 0.930 . S
H30 C35 0.930 . S
H31 C39 0.930 . S
O32 Co1 2.037 . S
O32 C52 1.234 . S
C33 O7 1.269 . S
C33 O8 1.257 . S
C34 H9 0.930 . S
C34 C37 1.388 . S
C34 C39 1.418 . S
C35 H30 0.930 . S
C35 C38 1.404 . S
C35 C39 1.353 . S
N36 Co1 2.145 . S
N36 C37 1.397 . S
N36 C38 1.334 . S
C37 H18 0.929 . S
C37 C34 1.388 . S
C37 N36 1.397 . S
C38 H19 0.929 . S
C38 C35 1.404 . S
C38 N36 1.334 . S
C39 H31 0.930 . S
C39 C34 1.418 . S
C39 C35 1.353 . S
C40 H10 0.930 . S
C40 N41 1.330 . S
C40 C42 1.446 . S
N41 Co0 2.151 . S
N41 C40 1.330 . S
N41 C45 1.418 1_455 S
C42 H21 0.929 . S
C42 C40 1.446 . S
C42 C43 1.332 1_455 S
C43 H23 0.931 . S
C43 C42 1.332 1_655 S
C43 C44 1.267 . S
C44 H12 0.929 . S
C44 C43 1.267 . S
C44 C45 1.251 . S
C45 H15 0.929 . S
C45 N41 1.418 1_655 S
C45 C44 1.251 . S
C46 H13 0.930 . S
C46 C48 1.406 . S
C46 C51 1.261 . S
C47 H14 0.930 . S
C47 N49 1.325 . S
C47 C50 1.357 . S
C48 H16 0.928 . S
C48 C46 1.406 . S
C48 N49 1.261 . S
N49 Co0 2.214 . S
N49 C47 1.325 . S
N49 C48 1.261 . S
C50 H20 0.931 . S
C50 C47 1.357 . S
C50 C51 1.312 . S
C51 H22 0.930 . S
C51 C46 1.261 . S
C51 C50 1.312 . S
C52 O24 1.214 . S
C52 O32 1.234 . S
C53 H25 0.929 . S
C53 C56 1.391 . S
C53 C58 1.391 . S
C54 H26 0.929 . S
C54 C55 1.390 . S
C54 N57 1.391 . S
C55 H27 0.930 . S
C55 C54 1.390 . S
C55 C56 1.392 . S
C56 H28 0.929 . S
C56 C53 1.391 . S
C56 C55 1.392 . S
N57 Co1 2.257 . S
N57 C54 1.391 . S
N57 C58 1.388 . S
C58 H29 0.930 . S
C58 C53 1.391 . S
C58 N57 1.388 . S
Co59 O61 2.143 . S
Co59 O67 2.074 . S
Co59 O70 2.093 . S
Co59 O83 2.097 . S
Co59 N100 2.151 . S
Co59 N108 2.214 . S
Co60 O61 2.160 . S
Co60 O66 2.058 . S
Co60 O76 2.057 . S
Co60 O91 2.037 . S
Co60 N95 2.145 . S
Co60 N116 2.257 . S
O61 Co59 2.143 . S
O61 Co60 2.160 . S
C62 O63 1.278 . S
C62 O70 1.224 . S
O63 C62 1.278 . S
C64 O65 1.245 . S
C64 O76 1.232 . S
O65 C64 1.245 . S
O66 Co60 2.058 . S
O66 C92 1.269 . S
O67 Co59 2.074 . S
O67 C92 1.257 . S
H68 C93 0.930 . S
H69 C99 0.930 . S
O70 Co59 2.093 . S
O70 C62 1.224 . S
H71 C103 0.929 . S
H72 C105 0.930 . S
H73 C106 0.930 . S
H74 C104 0.929 . S
H75 C107 0.928 . S
O76 Co60 2.057 . S
O76 C64 1.232 . S
H77 C96 0.929 . S
H78 C97 0.929 . S
H79 C109 0.931 . S
H80 C101 0.929 . S
H81 C110 0.930 . S
H82 C102 0.931 . S
O83 Co59 2.097 . S
O83 C111 1.214 . S
H84 C112 0.929 . S
H85 C113 0.929 . S
H86 C114 0.930 . S
H87 C115 0.929 . S
H88 C117 0.930 . S
H89 C94 0.930 . S
H90 C98 0.930 . S
O91 Co60 2.037 . S
O91 C111 1.234 . S
C92 O66 1.269 . S
C92 O67 1.257 . S
C93 H68 0.930 . S
C93 C96 1.388 . S
C93 C98 1.418 . S
C94 H89 0.930 . S
C94 C97 1.404 . S
C94 C98 1.353 . S
N95 Co60 2.145 . S
N95 C96 1.397 . S
N95 C97 1.334 . S
C96 H77 0.929 . S
C96 C93 1.388 . S
C96 N95 1.397 . S
C97 H78 0.929 . S
C97 C94 1.404 . S
C97 N95 1.334 . S
C98 H90 0.930 . S
C98 C93 1.418 . S
C98 C94 1.353 . S
C99 H69 0.930 . S
C99 N100 1.330 . S
C99 C101 1.446 . S
N100 Co59 2.151 . S
N100 C99 1.330 . S
N100 C104 1.418 . S
C101 H80 0.929 . S
C101 C99 1.446 . S
C101 C102 1.332 . S
C102 H82 0.931 . S
C102 C101 1.332 . S
C102 C103 1.267 . S
C103 H71 0.929 . S
C103 C102 1.267 . S
C103 C104 1.251 . S
C104 H74 0.929 . S
C104 N100 1.418 . S
C104 C103 1.251 . S
C105 H72 0.930 . S
C105 C107 1.406 . S
C105 C110 1.261 . S
C106 H73 0.930 . S
C106 N108 1.325 . S
C106 C109 1.357 . S
C107 H75 0.928 . S
C107 C105 1.406 . S
C107 N108 1.261 . S
N108 Co59 2.214 . S
N108 C106 1.325 . S
N108 C107 1.261 . S
C109 H79 0.931 . S
C109 C106 1.357 . S
C109 C110 1.312 . S
C110 H81 0.930 . S
C110 C105 1.261 . S
C110 C109 1.312 . S
C111 O83 1.214 . S
C111 O91 1.234 . S
C112 H84 0.929 . S
C112 C115 1.391 . S
C112 C117 1.391 . S
C113 H85 0.929 . S
C113 C114 1.390 . S
C113 N116 1.391 . S
C114 H86 0.930 . S
C114 C113 1.390 . S
C114 C115 1.392 . S
C115 H87 0.929 . S
C115 C112 1.391 . S
C115 C114 1.392 . S
N116 Co60 2.257 . S
N116 C113 1.391 . S
N116 C117 1.388 . S
C117 H88 0.930 . S
C117 C112 1.391 . S
C117 N116 1.388 . S
Co118 O120 2.143 . S
Co118 O126 2.074 . S
Co118 O129 2.093 . S
Co118 O142 2.097 . S
Co118 N159 2.151 . S
Co118 N167 2.214 . S
Co119 O120 2.160 . S
Co119 O125 2.058 . S
Co119 O135 2.057 . S
Co119 O150 2.037 . S
Co119 N154 2.145 . S
Co119 N175 2.257 . S
O120 Co118 2.143 . S
O120 Co119 2.160 . S
C121 O122 1.278 . S
C121 O129 1.224 . S
O122 C121 1.278 . S
C123 O124 1.245 . S
C123 O135 1.232 . S
O124 C123 1.245 . S
O125 Co119 2.058 . S
O125 C151 1.269 . S
O126 Co118 2.074 . S
O126 C151 1.257 . S
H127 C152 0.930 . S
H128 C158 0.930 . S
O129 Co118 2.093 . S
O129 C121 1.224 . S
H130 C162 0.929 . S
H131 C164 0.930 . S
H132 C165 0.930 . S
H133 C163 0.929 . S
H134 C166 0.928 . S
O135 Co119 2.057 . S
O135 C123 1.232 . S
H136 C155 0.929 . S
H137 C156 0.929 . S
H138 C168 0.931 . S
H139 C160 0.929 . S
H140 C169 0.930 . S
H141 C161 0.931 . S
O142 Co118 2.097 . S
O142 C170 1.214 . S
H143 C171 0.929 . S
H144 C172 0.929 . S
H145 C173 0.930 . S
H146 C174 0.929 . S
H147 C176 0.930 . S
H148 C153 0.930 . S
H149 C157 0.930 . S
O150 Co119 2.037 . S
O150 C170 1.234 . S
C151 O125 1.269 . S
C151 O126 1.257 . S
C152 H127 0.930 . S
C152 C155 1.388 . S
C152 C157 1.418 . S
C153 H148 0.930 . S
C153 C156 1.404 . S
C153 C157 1.353 . S
N154 Co119 2.145 . S
N154 C155 1.397 . S
N154 C156 1.334 . S
C155 H136 0.929 . S
C155 C152 1.388 . S
C155 N154 1.397 . S
C156 H137 0.929 . S
C156 C153 1.404 . S
C156 N154 1.334 . S
C157 H149 0.930 . S
C157 C152 1.418 . S
C157 C153 1.353 . S
C158 H128 0.930 . S
C158 N159 1.330 . S
C158 C160 1.446 . S
N159 Co118 2.151 . S
N159 C158 1.330 . S
N159 C163 1.418 . S
C160 H139 0.929 . S
C160 C158 1.446 . S
C160 C161 1.332 . S
C161 H141 0.931 . S
C161 C160 1.332 . S
C161 C162 1.267 . S
C162 H130 0.929 . S
C162 C161 1.267 . S
C162 C163 1.251 . S
C163 H133 0.929 . S
C163 N159 1.418 . S
C163 C162 1.251 . S
C164 H131 0.930 . S
C164 C166 1.406 . S
C164 C169 1.261 . S
C165 H132 0.930 . S
C165 N167 1.325 . S
C165 C168 1.357 . S
C166 H134 0.928 . S
C166 C164 1.406 . S
C166 N167 1.261 . S
N167 Co118 2.214 . S
N167 C165 1.325 . S
N167 C166 1.261 . S
C168 H138 0.931 . S
C168 C165 1.357 . S
C168 C169 1.312 . S
C169 H140 0.930 . S
C169 C164 1.261 . S
C169 C168 1.312 . S
C170 O142 1.214 . S
C170 O150 1.234 . S
C171 H143 0.929 . S
C171 C174 1.391 . S
C171 C176 1.391 . S
C172 H144 0.929 . S
C172 C173 1.390 . S
C172 N175 1.391 . S
C173 H145 0.930 . S
C173 C172 1.390 . S
C173 C174 1.392 . S
C174 H146 0.929 . S
C174 C171 1.391 . S
C174 C173 1.392 . S
N175 Co119 2.257 . S
N175 C172 1.391 . S
N175 C176 1.388 . S
C176 H147 0.930 . S
C176 C171 1.391 . S
C176 N175 1.388 . S
Co177 O179 2.143 . S
Co177 O185 2.074 . S
Co177 O188 2.093 1_554 S
Co177 O201 2.097 . S
Co177 N218 2.151 1_554 S
Co177 N226 2.214 . S
Co178 O179 2.160 . S
Co178 O184 2.058 . S
Co178 O194 2.057 . S
Co178 O209 2.037 . S
Co178 N213 2.145 . S
Co178 N234 2.257 . S
O179 Co177 2.143 . S
O179 Co178 2.160 . S
C180 O181 1.278 . S
C180 O188 1.224 . S
O181 C180 1.278 . S
C182 O183 1.245 . S
C182 O194 1.232 . S
O183 C182 1.245 . S
O184 Co178 2.058 . S
O184 C210 1.269 . S
O185 Co177 2.074 . S
O185 C210 1.257 . S
H186 C211 0.930 . S
H187 C217 0.930 . S
O188 Co177 2.093 1_556 S
O188 C180 1.224 . S
H189 C221 0.929 . S
H190 C223 0.930 . S
H191 C224 0.930 . S
H192 C222 0.929 1_554 S
H193 C225 0.928 . S
O194 Co178 2.057 . S
O194 C182 1.232 . S
H195 C214 0.929 . S
H196 C215 0.929 . S
H197 C227 0.931 . S
H198 C219 0.929 . S
H199 C228 0.930 . S
H200 C220 0.931 . S
O201 Co177 2.097 . S
O201 C229 1.214 . S
H202 C230 0.929 . S
H203 C231 0.929 . S
H204 C232 0.930 . S
H205 C233 0.929 . S
H206 C235 0.930 . S
H207 C212 0.930 . S
H208 C216 0.930 . S
O209 Co178 2.037 . S
O209 C229 1.234 . S
C210 O184 1.269 . S
C210 O185 1.257 . S
C211 H186 0.930 . S
C211 C214 1.388 . S
C211 C216 1.418 . S
C212 H207 0.930 . S
C212 C215 1.404 . S
C212 C216 1.353 . S
N213 Co178 2.145 . S
N213 C214 1.397 . S
N213 C215 1.334 . S
C214 H195 0.929 . S
C214 C211 1.388 . S
C214 N213 1.397 . S
C215 H196 0.929 . S
C215 C212 1.404 . S
C215 N213 1.334 . S
C216 H208 0.930 . S
C216 C211 1.418 . S
C216 C212 1.353 . S
C217 H187 0.930 . S
C217 N218 1.330 . S
C217 C219 1.446 . S
N218 Co177 2.151 1_556 S
N218 C217 1.330 . S
N218 C222 1.418 . S
C219 H198 0.929 . S
C219 C217 1.446 . S
C219 C220 1.332 . S
C220 H200 0.931 . S
C220 C219 1.332 . S
C220 C221 1.267 . S
C221 H189 0.929 . S
C221 C220 1.267 . S
C221 C222 1.251 . S
C222 H192 0.929 1_556 S
C222 N218 1.418 . S
C222 C221 1.251 . S
C223 H190 0.930 . S
C223 C225 1.406 . S
C223 C228 1.261 1_556 S
C224 H191 0.930 . S
C224 N226 1.325 . S
C224 C227 1.357 . S
C225 H193 0.928 . S
C225 C223 1.406 . S
C225 N226 1.261 1_556 S
N226 Co177 2.214 . S
N226 C224 1.325 . S
N226 C225 1.261 1_554 S
C227 H197 0.931 . S
C227 C224 1.357 . S
C227 C228 1.312 . S
C228 H199 0.930 . S
C228 C223 1.261 1_554 S
C228 C227 1.312 . S
C229 O201 1.214 . S
C229 O209 1.234 . S
C230 H202 0.929 . S
C230 C233 1.391 . S
C230 C235 1.391 . S
C231 H203 0.929 . S
C231 C232 1.390 . S
C231 N234 1.391 . S
C232 H204 0.930 . S
C232 C231 1.390 . S
C232 C233 1.392 . S
C233 H205 0.929 . S
C233 C230 1.391 . S
C233 C232 1.392 . S
N234 Co178 2.257 . S
N234 C231 1.391 . S
N234 C235 1.388 . S
C235 H206 0.930 . S
C235 C230 1.391 . S
C235 N234 1.388 . S
Co236 O238 2.143 . S
Co236 O244 2.074 . S
Co236 O247 2.093 . S
Co236 O260 2.097 . S
Co236 N277 2.151 . S
Co236 N285 2.214 . S
Co237 O238 2.160 . S
Co237 O243 2.058 . S
Co237 O253 2.057 . S
Co237 O268 2.037 . S
Co237 N272 2.145 . S
Co237 N293 2.257 . S
O238 Co236 2.143 . S
O238 Co237 2.160 . S
C239 O240 1.278 . S
C239 O247 1.224 . S
O240 C239 1.278 . S
C241 O242 1.245 . S
C241 O253 1.232 . S
O242 C241 1.245 . S
O243 Co237 2.058 . S
O243 C269 1.269 . S
O244 Co236 2.074 . S
O244 C269 1.257 . S
H245 C270 0.930 . S
H246 C276 0.930 . S
O247 Co236 2.093 . S
O247 C239 1.224 . S
H248 C280 0.929 . S
H249 C282 0.930 . S
H250 C283 0.930 . S
H251 C281 0.929 . S
H252 C284 0.928 . S
O253 Co237 2.057 . S
O253 C241 1.232 . S
H254 C273 0.929 . S
H255 C274 0.929 . S
H256 C286 0.931 . S
H257 C278 0.929 . S
H258 C287 0.930 . S
H259 C279 0.931 . S
O260 Co236 2.097 . S
O260 C288 1.214 . S
H261 C289 0.929 . S
H262 C290 0.929 . S
H263 C291 0.930 . S
H264 C292 0.929 . S
H265 C294 0.930 . S
H266 C271 0.930 . S
H267 C275 0.930 . S
O268 Co237 2.037 . S
O268 C288 1.234 . S
C269 O243 1.269 . S
C269 O244 1.257 . S
C270 H245 0.930 . S
C270 C273 1.388 . S
C270 C275 1.418 . S
C271 H266 0.930 . S
C271 C274 1.404 . S
C271 C275 1.353 . S
N272 Co237 2.145 . S
N272 C273 1.397 . S
N272 C274 1.334 . S
C273 H254 0.929 . S
C273 C270 1.388 . S
C273 N272 1.397 . S
C274 H255 0.929 . S
C274 C271 1.404 . S
C274 N272 1.334 . S
C275 H267 0.930 . S
C275 C270 1.418 . S
C275 C271 1.353 . S
C276 H246 0.930 . S
C276 N277 1.330 . S
C276 C278 1.446 . S
N277 Co236 2.151 . S
N277 C276 1.330 . S
N277 C281 1.418 1_455 S
C278 H257 0.929 . S
C278 C276 1.446 . S
C278 C279 1.332 1_455 S
C279 H259 0.931 . S
C279 C278 1.332 1_655 S
C279 C280 1.267 . S
C280 H248 0.929 . S
C280 C279 1.267 . S
C280 C281 1.251 . S
C281 H251 0.929 . S
C281 N277 1.418 1_655 S
C281 C280 1.251 . S
C282 H249 0.930 . S
C282 C284 1.406 . S
C282 C287 1.261 . S
C283 H250 0.930 . S
C283 N285 1.325 . S
C283 C286 1.357 . S
C284 H252 0.928 . S
C284 C282 1.406 . S
C284 N285 1.261 . S
N285 Co236 2.214 . S
N285 C283 1.325 . S
N285 C284 1.261 . S
C286 H256 0.931 . S
C286 C283 1.357 . S
C286 C287 1.312 . S
C287 H258 0.930 . S
C287 C282 1.261 . S
C287 C286 1.312 . S
C288 O260 1.214 . S
C288 O268 1.234 . S
C289 H261 0.929 . S
C289 C292 1.391 . S
C289 C294 1.391 . S
C290 H262 0.929 . S
C290 C291 1.390 . S
C290 N293 1.391 . S
C291 H263 0.930 . S
C291 C290 1.390 . S
C291 C292 1.392 . S
C292 H264 0.929 . S
C292 C289 1.391 . S
C292 C291 1.392 . S
N293 Co237 2.257 . S
N293 C290 1.391 . S
N293 C294 1.388 . S
C294 H265 0.930 . S
C294 C289 1.391 . S
C294 N293 1.388 . S
Co295 O297 2.143 . S
Co295 O303 2.074 . S
Co295 O306 2.093 . S
Co295 O319 2.097 . S
Co295 N336 2.151 . S
Co295 N344 2.214 . S
Co296 O297 2.160 . S
Co296 O302 2.058 . S
Co296 O312 2.057 . S
Co296 O327 2.037 . S
Co296 N331 2.145 . S
Co296 N352 2.257 . S
O297 Co295 2.143 . S
O297 Co296 2.160 . S
C298 O299 1.278 . S
C298 O306 1.224 . S
O299 C298 1.278 . S
C300 O301 1.245 . S
C300 O312 1.232 . S
O301 C300 1.245 . S
O302 Co296 2.058 . S
O302 C328 1.269 . S
O303 Co295 2.074 . S
O303 C328 1.257 . S
H304 C329 0.930 . S
H305 C335 0.930 . S
O306 Co295 2.093 . S
O306 C298 1.224 . S
H307 C339 0.929 . S
H308 C341 0.930 . S
H309 C342 0.930 . S
H310 C340 0.929 . S
H311 C343 0.928 . S
O312 Co296 2.057 . S
O312 C300 1.232 . S
H313 C332 0.929 . S
H314 C333 0.929 . S
H315 C345 0.931 . S
H316 C337 0.929 . S
H317 C346 0.930 . S
H318 C338 0.931 . S
O319 Co295 2.097 . S
O319 C347 1.214 . S
H320 C348 0.929 . S
H321 C349 0.929 . S
H322 C350 0.930 . S
H323 C351 0.929 . S
H324 C353 0.930 . S
H325 C330 0.930 . S
H326 C334 0.930 . S
O327 Co296 2.037 . S
O327 C347 1.234 . S
C328 O302 1.269 . S
C328 O303 1.257 . S
C329 H304 0.930 . S
C329 C332 1.388 . S
C329 C334 1.418 . S
C330 H325 0.930 . S
C330 C333 1.404 . S
C330 C334 1.353 . S
N331 Co296 2.145 . S
N331 C332 1.397 . S
N331 C333 1.334 . S
C332 H313 0.929 . S
C332 C329 1.388 . S
C332 N331 1.397 . S
C333 H314 0.929 . S
C333 C330 1.404 . S
C333 N331 1.334 . S
C334 H326 0.930 . S
C334 C329 1.418 . S
C334 C330 1.353 . S
C335 H305 0.930 . S
C335 N336 1.330 . S
C335 C337 1.446 . S
N336 Co295 2.151 . S
N336 C335 1.330 . S
N336 C340 1.418 . S
C337 H316 0.929 . S
C337 C335 1.446 . S
C337 C338 1.332 . S
C338 H318 0.931 . S
C338 C337 1.332 . S
C338 C339 1.267 . S
C339 H307 0.929 . S
C339 C338 1.267 . S
C339 C340 1.251 . S
C340 H310 0.929 . S
C340 N336 1.418 . S
C340 C339 1.251 . S
C341 H308 0.930 . S
C341 C343 1.406 . S
C341 C346 1.261 . S
C342 H309 0.930 . S
C342 N344 1.325 . S
C342 C345 1.357 . S
C343 H311 0.928 . S
C343 C341 1.406 . S
C343 N344 1.261 . S
N344 Co295 2.214 . S
N344 C342 1.325 . S
N344 C343 1.261 . S
C345 H315 0.931 . S
C345 C342 1.357 . S
C345 C346 1.312 . S
C346 H317 0.930 . S
C346 C341 1.261 . S
C346 C345 1.312 . S
C347 O319 1.214 . S
C347 O327 1.234 . S
C348 H320 0.929 . S
C348 C351 1.391 . S
C348 C353 1.391 . S
C349 H321 0.929 . S
C349 C350 1.390 . S
C349 N352 1.391 . S
C350 H322 0.930 . S
C350 C349 1.390 . S
C350 C351 1.392 . S
C351 H323 0.929 . S
C351 C348 1.391 . S
C351 C350 1.392 . S
N352 Co296 2.257 . S
N352 C349 1.391 . S
N352 C353 1.388 . S
C353 H324 0.930 . S
C353 C348 1.391 . S
C353 N352 1.388 . S
Co354 O356 2.143 . S
Co354 O362 2.074 . S
Co354 O365 2.093 . S
Co354 O378 2.097 . S
Co354 N395 2.151 . S
Co354 N403 2.214 . S
Co355 O356 2.160 . S
Co355 O361 2.058 . S
Co355 O371 2.057 . S
Co355 O386 2.037 . S
Co355 N390 2.145 . S
Co355 N411 2.257 . S
O356 Co354 2.143 . S
O356 Co355 2.160 . S
C357 O358 1.278 . S
C357 O365 1.224 . S
O358 C357 1.278 . S
C359 O360 1.245 . S
C359 O371 1.232 . S
O360 C359 1.245 . S
O361 Co355 2.058 . S
O361 C387 1.269 . S
O362 Co354 2.074 . S
O362 C387 1.257 . S
H363 C388 0.930 . S
H364 C394 0.930 . S
O365 Co354 2.093 . S
O365 C357 1.224 . S
H366 C398 0.929 . S
H367 C400 0.930 . S
H368 C401 0.930 . S
H369 C399 0.929 . S
H370 C402 0.928 . S
O371 Co355 2.057 . S
O371 C359 1.232 . S
H372 C391 0.929 . S
H373 C392 0.929 . S
H374 C404 0.931 . S
H375 C396 0.929 . S
H376 C405 0.930 . S
H377 C397 0.931 . S
O378 Co354 2.097 . S
O378 C406 1.214 . S
H379 C407 0.929 . S
H380 C408 0.929 . S
H381 C409 0.930 . S
H382 C410 0.929 . S
H383 C412 0.930 . S
H384 C389 0.930 . S
H385 C393 0.930 . S
O386 Co355 2.037 . S
O386 C406 1.234 . S
C387 O361 1.269 . S
C387 O362 1.257 . S
C388 H363 0.930 . S
C388 C391 1.388 . S
C388 C393 1.418 . S
C389 H384 0.930 . S
C389 C392 1.404 . S
C389 C393 1.353 . S
N390 Co355 2.145 . S
N390 C391 1.397 . S
N390 C392 1.334 . S
C391 H372 0.929 . S
C391 C388 1.388 . S
C391 N390 1.397 . S
C392 H373 0.929 . S
C392 C389 1.404 . S
C392 N390 1.334 . S
C393 H385 0.930 . S
C393 C388 1.418 . S
C393 C389 1.353 . S
C394 H364 0.930 . S
C394 N395 1.330 . S
C394 C396 1.446 . S
N395 Co354 2.151 . S
N395 C394 1.330 . S
N395 C399 1.418 . S
C396 H375 0.929 . S
C396 C394 1.446 . S
C396 C397 1.332 . S
C397 H377 0.931 . S
C397 C396 1.332 . S
C397 C398 1.267 . S
C398 H366 0.929 . S
C398 C397 1.267 . S
C398 C399 1.251 . S
C399 H369 0.929 . S
C399 N395 1.418 . S
C399 C398 1.251 . S
C400 H367 0.930 . S
C400 C402 1.406 . S
C400 C405 1.261 . S
C401 H368 0.930 . S
C401 N403 1.325 . S
C401 C404 1.357 . S
C402 H370 0.928 . S
C402 C400 1.406 . S
C402 N403 1.261 . S
N403 Co354 2.214 . S
N403 C401 1.325 . S
N403 C402 1.261 . S
C404 H374 0.931 . S
C404 C401 1.357 . S
C404 C405 1.312 . S
C405 H376 0.930 . S
C405 C400 1.261 . S
C405 C404 1.312 . S
C406 O378 1.214 . S
C406 O386 1.234 . S
C407 H379 0.929 . S
C407 C410 1.391 . S
C407 C412 1.391 . S
C408 H380 0.929 . S
C408 C409 1.390 . S
C408 N411 1.391 . S
C409 H381 0.930 . S
C409 C408 1.390 . S
C409 C410 1.392 . S
C410 H382 0.929 . S
C410 C407 1.391 . S
C410 C409 1.392 . S
N411 Co355 2.257 . S
N411 C408 1.391 . S
N411 C412 1.388 . S
C412 H383 0.930 . S
C412 C407 1.391 . S
C412 N411 1.388 . S
Co413 O415 2.143 . S
Co413 O421 2.074 . S
Co413 O424 2.093 1_556 S
Co413 O437 2.097 . S
Co413 N454 2.151 1_556 S
Co413 N462 2.214 . S
Co414 O415 2.160 . S
Co414 O420 2.058 . S
Co414 O430 2.057 . S
Co414 O445 2.037 . S
Co414 N449 2.145 . S
Co414 N470 2.257 . S
O415 Co413 2.143 . S
O415 Co414 2.160 . S
C416 O417 1.278 . S
C416 O424 1.224 . S
O417 C416 1.278 . S
C418 O419 1.245 . S
C418 O430 1.232 . S
O419 C418 1.245 . S
O420 Co414 2.058 . S
O420 C446 1.269 . S
O421 Co413 2.074 . S
O421 C446 1.257 . S
H422 C447 0.930 . S
H423 C453 0.930 . S
O424 Co413 2.093 1_554 S
O424 C416 1.224 . S
H425 C457 0.929 . S
H426 C459 0.930 . S
H427 C460 0.930 . S
H428 C458 0.929 1_556 S
H429 C461 0.928 . S
O430 Co414 2.057 . S
O430 C418 1.232 . S
H431 C450 0.929 . S
H432 C451 0.929 . S
H433 C463 0.931 . S
H434 C455 0.929 . S
H435 C464 0.930 . S
H436 C456 0.931 . S
O437 Co413 2.097 . S
O437 C465 1.214 . S
H438 C466 0.929 . S
H439 C467 0.929 . S
H440 C468 0.930 . S
H441 C469 0.929 . S
H442 C471 0.930 . S
H443 C448 0.930 . S
H444 C452 0.930 . S
O445 Co414 2.037 . S
O445 C465 1.234 . S
C446 O420 1.269 . S
C446 O421 1.257 . S
C447 H422 0.930 . S
C447 C450 1.388 . S
C447 C452 1.418 . S
C448 H443 0.930 . S
C448 C451 1.404 . S
C448 C452 1.353 . S
N449 Co414 2.145 . S
N449 C450 1.397 . S
N449 C451 1.334 . S
C450 H431 0.929 . S
C450 C447 1.388 . S
C450 N449 1.397 . S
C451 H432 0.929 . S
C451 C448 1.404 . S
C451 N449 1.334 . S
C452 H444 0.930 . S
C452 C447 1.418 . S
C452 C448 1.353 . S
C453 H423 0.930 . S
C453 N454 1.330 . S
C453 C455 1.446 . S
N454 Co413 2.151 1_554 S
N454 C453 1.330 . S
N454 C458 1.418 . S
C455 H434 0.929 . S
C455 C453 1.446 . S
C455 C456 1.332 . S
C456 H436 0.931 . S
C456 C455 1.332 . S
C456 C457 1.267 . S
C457 H425 0.929 . S
C457 C456 1.267 . S
C457 C458 1.251 . S
C458 H428 0.929 1_554 S
C458 N454 1.418 . S
C458 C457 1.251 . S
C459 H426 0.930 . S
C459 C461 1.406 . S
C459 C464 1.261 1_554 S
C460 H427 0.930 . S
C460 N462 1.325 . S
C460 C463 1.357 . S
C461 H429 0.928 . S
C461 C459 1.406 . S
C461 N462 1.261 1_554 S
N462 Co413 2.214 . S
N462 C460 1.325 . S
N462 C461 1.261 1_556 S
C463 H433 0.931 . S
C463 C460 1.357 . S
C463 C464 1.312 . S
C464 H435 0.930 . S
C464 C459 1.261 1_556 S
C464 C463 1.312 . S
C465 O437 1.214 . S
C465 O445 1.234 . S
C466 H438 0.929 . S
C466 C469 1.391 . S
C466 C471 1.391 . S
C467 H439 0.929 . S
C467 C468 1.390 . S
C467 N470 1.391 . S
C468 H440 0.930 . S
C468 C467 1.390 . S
C468 C469 1.392 . S
C469 H441 0.929 . S
C469 C466 1.391 . S
C469 C468 1.392 . S
N470 Co414 2.257 . S
N470 C467 1.391 . S
N470 C471 1.388 . S
C471 H442 0.930 . S
C471 C466 1.391 . S
C471 N470 1.388 . S
Co472 O474 2.143 . S
Co472 O480 2.074 . S
Co472 O483 2.093 . S
Co472 O496 2.097 . S
Co472 N513 2.151 . S
Co472 N521 2.214 . S
Co473 O474 2.160 . S
Co473 O479 2.058 . S
Co473 O489 2.057 . S
Co473 O504 2.037 . S
Co473 N508 2.145 . S
Co473 N529 2.257 . S
O474 Co472 2.143 . S
O474 Co473 2.160 . S
C475 O476 1.278 . S
C475 O483 1.224 . S
O476 C475 1.278 . S
C477 O478 1.245 . S
C477 O489 1.232 . S
O478 C477 1.245 . S
O479 Co473 2.058 . S
O479 C505 1.269 . S
O480 Co472 2.074 . S
O480 C505 1.257 . S
H481 C506 0.930 . S
H482 C512 0.930 . S
O483 Co472 2.093 . S
O483 C475 1.224 . S
H484 C516 0.929 . S
H485 C518 0.930 . S
H486 C519 0.930 . S
H487 C517 0.929 . S
H488 C520 0.928 . S
O489 Co473 2.057 . S
O489 C477 1.232 . S
H490 C509 0.929 . S
H491 C510 0.929 . S
H492 C522 0.931 . S
H493 C514 0.929 . S
H494 C523 0.930 . S
H495 C515 0.931 . S
O496 Co472 2.097 . S
O496 C524 1.214 . S
H497 C525 0.929 . S
H498 C526 0.929 . S
H499 C527 0.930 . S
H500 C528 0.929 . S
H501 C530 0.930 . S
H502 C507 0.930 . S
H503 C511 0.930 . S
O504 Co473 2.037 . S
O504 C524 1.234 . S
C505 O479 1.269 . S
C505 O480 1.257 . S
C506 H481 0.930 . S
C506 C509 1.388 . S
C506 C511 1.418 . S
C507 H502 0.930 . S
C507 C510 1.404 . S
C507 C511 1.353 . S
N508 Co473 2.145 . S
N508 C509 1.397 . S
N508 C510 1.334 . S
C509 H490 0.929 . S
C509 C506 1.388 . S
C509 N508 1.397 . S
C510 H491 0.929 . S
C510 C507 1.404 . S
C510 N508 1.334 . S
C511 H503 0.930 . S
C511 C506 1.418 . S
C511 C507 1.353 . S
C512 H482 0.930 . S
C512 N513 1.330 . S
C512 C514 1.446 . S
N513 Co472 2.151 . S
N513 C512 1.330 . S
N513 C517 1.418 1_655 S
C514 H493 0.929 . S
C514 C512 1.446 . S
C514 C515 1.332 1_655 S
C515 H495 0.931 . S
C515 C514 1.332 1_455 S
C515 C516 1.267 . S
C516 H484 0.929 . S
C516 C515 1.267 . S
C516 C517 1.251 . S
C517 H487 0.929 . S
C517 N513 1.418 1_455 S
C517 C516 1.251 . S
C518 H485 0.930 . S
C518 C520 1.406 . S
C518 C523 1.261 . S
C519 H486 0.930 . S
C519 N521 1.325 . S
C519 C522 1.357 . S
C520 H488 0.928 . S
C520 C518 1.406 . S
C520 N521 1.261 . S
N521 Co472 2.214 . S
N521 C519 1.325 . S
N521 C520 1.261 . S
C522 H492 0.931 . S
C522 C519 1.357 . S
C522 C523 1.312 . S
C523 H494 0.930 . S
C523 C518 1.261 . S
C523 C522 1.312 . S
C524 O496 1.214 . S
C524 O504 1.234 . S
C525 H497 0.929 . S
C525 C528 1.391 . S
C525 C530 1.391 . S
C526 H498 0.929 . S
C526 C527 1.390 . S
C526 N529 1.391 . S
C527 H499 0.930 . S
C527 C526 1.390 . S
C527 C528 1.392 . S
C528 H500 0.929 . S
C528 C525 1.391 . S
C528 C527 1.392 . S
N529 Co473 2.257 . S
N529 C526 1.391 . S
N529 C530 1.388 . S
C530 H501 0.930 . S
C530 C525 1.391 . S
C530 N529 1.388 . S
Co531 O533 2.143 . S
Co531 O539 2.074 . S
Co531 O542 2.093 . S
Co531 O555 2.097 . S
Co531 N572 2.151 . S
Co531 N580 2.214 . S
Co532 O533 2.160 . S
Co532 O538 2.058 . S
Co532 O548 2.057 . S
Co532 O563 2.037 . S
Co532 N567 2.145 . S
Co532 N588 2.257 . S
O533 Co531 2.143 . S
O533 Co532 2.160 . S
C534 O535 1.278 . S
C534 O542 1.224 . S
O535 C534 1.278 . S
C536 O537 1.245 . S
C536 O548 1.232 . S
O537 C536 1.245 . S
O538 Co532 2.058 . S
O538 C564 1.269 . S
O539 Co531 2.074 . S
O539 C564 1.257 . S
H540 C565 0.930 . S
H541 C571 0.930 . S
O542 Co531 2.093 . S
O542 C534 1.224 . S
H543 C575 0.929 . S
H544 C577 0.930 . S
H545 C578 0.930 . S
H546 C576 0.929 . S
H547 C579 0.928 . S
O548 Co532 2.057 . S
O548 C536 1.232 . S
H549 C568 0.929 . S
H550 C569 0.929 . S
H551 C581 0.931 . S
H552 C573 0.929 . S
H553 C582 0.930 . S
H554 C574 0.931 . S
O555 Co531 2.097 . S
O555 C583 1.214 . S
H556 C584 0.929 . S
H557 C585 0.929 . S
H558 C586 0.930 . S
H559 C587 0.929 . S
H560 C589 0.930 . S
H561 C566 0.930 . S
H562 C570 0.930 . S
O563 Co532 2.037 . S
O563 C583 1.234 . S
C564 O538 1.269 . S
C564 O539 1.257 . S
C565 H540 0.930 . S
C565 C568 1.388 . S
C565 C570 1.418 . S
C566 H561 0.930 . S
C566 C569 1.404 . S
C566 C570 1.353 . S
N567 Co532 2.145 . S
N567 C568 1.397 . S
N567 C569 1.334 . S
C568 H549 0.929 . S
C568 C565 1.388 . S
C568 N567 1.397 . S
C569 H550 0.929 . S
C569 C566 1.404 . S
C569 N567 1.334 . S
C570 H562 0.930 . S
C570 C565 1.418 . S
C570 C566 1.353 . S
C571 H541 0.930 . S
C571 N572 1.330 . S
C571 C573 1.446 . S
N572 Co531 2.151 . S
N572 C571 1.330 . S
N572 C576 1.418 . S
C573 H552 0.929 . S
C573 C571 1.446 . S
C573 C574 1.332 . S
C574 H554 0.931 . S
C574 C573 1.332 . S
C574 C575 1.267 . S
C575 H543 0.929 . S
C575 C574 1.267 . S
C575 C576 1.251 . S
C576 H546 0.929 . S
C576 N572 1.418 . S
C576 C575 1.251 . S
C577 H544 0.930 . S
C577 C579 1.406 . S
C577 C582 1.261 . S
C578 H545 0.930 . S
C578 N580 1.325 . S
C578 C581 1.357 . S
C579 H547 0.928 . S
C579 C577 1.406 . S
C579 N580 1.261 . S
N580 Co531 2.214 . S
N580 C578 1.325 . S
N580 C579 1.261 . S
C581 H551 0.931 . S
C581 C578 1.357 . S
C581 C582 1.312 . S
C582 H553 0.930 . S
C582 C577 1.261 . S
C582 C581 1.312 . S
C583 O555 1.214 . S
C583 O563 1.234 . S
C584 H556 0.929 . S
C584 C587 1.391 . S
C584 C589 1.391 . S
C585 H557 0.929 . S
C585 C586 1.390 . S
C585 N588 1.391 . S
C586 H558 0.930 . S
C586 C585 1.390 . S
C586 C587 1.392 . S
C587 H559 0.929 . S
C587 C584 1.391 . S
C587 C586 1.392 . S
N588 Co532 2.257 . S
N588 C585 1.391 . S
N588 C589 1.388 . S
C589 H560 0.930 . S
C589 C584 1.391 . S
C589 N588 1.388 . S
Co590 O592 2.143 . S
Co590 O598 2.074 . S
Co590 O601 2.093 . S
Co590 O614 2.097 . S
Co590 N631 2.151 . S
Co590 N639 2.214 . S
Co591 O592 2.160 . S
Co591 O597 2.058 . S
Co591 O607 2.057 . S
Co591 O622 2.037 . S
Co591 N626 2.145 . S
Co591 N647 2.257 . S
O592 Co590 2.143 . S
O592 Co591 2.160 . S
C593 O594 1.278 . S
C593 O601 1.224 . S
O594 C593 1.278 . S
C595 O596 1.245 . S
C595 O607 1.232 . S
O596 C595 1.245 . S
O597 Co591 2.058 . S
O597 C623 1.269 . S
O598 Co590 2.074 . S
O598 C623 1.257 . S
H599 C624 0.930 . S
H600 C630 0.930 . S
O601 Co590 2.093 . S
O601 C593 1.224 . S
H602 C634 0.929 . S
H603 C636 0.930 . S
H604 C637 0.930 . S
H605 C635 0.929 . S
H606 C638 0.928 . S
O607 Co591 2.057 . S
O607 C595 1.232 . S
H608 C627 0.929 . S
H609 C628 0.929 . S
H610 C640 0.931 . S
H611 C632 0.929 . S
H612 C641 0.930 . S
H613 C633 0.931 . S
O614 Co590 2.097 . S
O614 C642 1.214 . S
H615 C643 0.929 . S
H616 C644 0.929 . S
H617 C645 0.930 . S
H618 C646 0.929 . S
H619 C648 0.930 . S
H620 C625 0.930 . S
H621 C629 0.930 . S
O622 Co591 2.037 . S
O622 C642 1.234 . S
C623 O597 1.269 . S
C623 O598 1.257 . S
C624 H599 0.930 . S
C624 C627 1.388 . S
C624 C629 1.418 . S
C625 H620 0.930 . S
C625 C628 1.404 . S
C625 C629 1.353 . S
N626 Co591 2.145 . S
N626 C627 1.397 . S
N626 C628 1.334 . S
C627 H608 0.929 . S
C627 C624 1.388 . S
C627 N626 1.397 . S
C628 H609 0.929 . S
C628 C625 1.404 . S
C628 N626 1.334 . S
C629 H621 0.930 . S
C629 C624 1.418 . S
C629 C625 1.353 . S
C630 H600 0.930 . S
C630 N631 1.330 . S
C630 C632 1.446 . S
N631 Co590 2.151 . S
N631 C630 1.330 . S
N631 C635 1.418 . S
C632 H611 0.929 . S
C632 C630 1.446 . S
C632 C633 1.332 . S
C633 H613 0.931 . S
C633 C632 1.332 . S
C633 C634 1.267 . S
C634 H602 0.929 . S
C634 C633 1.267 . S
C634 C635 1.251 . S
C635 H605 0.929 . S
C635 N631 1.418 . S
C635 C634 1.251 . S
C636 H603 0.930 . S
C636 C638 1.406 . S
C636 C641 1.261 . S
C637 H604 0.930 . S
C637 N639 1.325 . S
C637 C640 1.357 . S
C638 H606 0.928 . S
C638 C636 1.406 . S
C638 N639 1.261 . S
N639 Co590 2.214 . S
N639 C637 1.325 . S
N639 C638 1.261 . S
C640 H610 0.931 . S
C640 C637 1.357 . S
C640 C641 1.312 . S
C641 H612 0.930 . S
C641 C636 1.261 . S
C641 C640 1.312 . S
C642 O614 1.214 . S
C642 O622 1.234 . S
C643 H615 0.929 . S
C643 C646 1.391 . S
C643 C648 1.391 . S
C644 H616 0.929 . S
C644 C645 1.390 . S
C644 N647 1.391 . S
C645 H617 0.930 . S
C645 C644 1.390 . S
C645 C646 1.392 . S
C646 H618 0.929 . S
C646 C643 1.391 . S
C646 C645 1.392 . S
N647 Co591 2.257 . S
N647 C644 1.391 . S
N647 C648 1.388 . S
C648 H619 0.930 . S
C648 C643 1.391 . S
C648 N647 1.388 . S
Co649 O651 2.143 . S
Co649 O657 2.074 . S
Co649 O660 2.093 1_556 S
Co649 O673 2.097 . S
Co649 N690 2.151 1_556 S
Co649 N698 2.214 . S
Co650 O651 2.160 . S
Co650 O656 2.058 . S
Co650 O666 2.057 . S
Co650 O681 2.037 . S
Co650 N685 2.145 . S
Co650 N706 2.257 . S
O651 Co649 2.143 . S
O651 Co650 2.160 . S
C652 O653 1.278 . S
C652 O660 1.224 . S
O653 C652 1.278 . S
C654 O655 1.245 . S
C654 O666 1.232 . S
O655 C654 1.245 . S
O656 Co650 2.058 . S
O656 C682 1.269 . S
O657 Co649 2.074 . S
O657 C682 1.257 . S
H658 C683 0.930 . S
H659 C689 0.930 . S
O660 Co649 2.093 1_554 S
O660 C652 1.224 . S
H661 C693 0.929 . S
H662 C695 0.930 . S
H663 C696 0.930 . S
H664 C694 0.929 1_556 S
H665 C697 0.928 . S
O666 Co650 2.057 . S
O666 C654 1.232 . S
H667 C686 0.929 . S
H668 C687 0.929 . S
H669 C699 0.931 . S
H670 C691 0.929 . S
H671 C700 0.930 . S
H672 C692 0.931 . S
O673 Co649 2.097 . S
O673 C701 1.214 . S
H674 C702 0.929 . S
H675 C703 0.929 . S
H676 C704 0.930 . S
H677 C705 0.929 . S
H678 C707 0.930 . S
H679 C684 0.930 . S
H680 C688 0.930 . S
O681 Co650 2.037 . S
O681 C701 1.234 . S
C682 O656 1.269 . S
C682 O657 1.257 . S
C683 H658 0.930 . S
C683 C686 1.388 . S
C683 C688 1.418 . S
C684 H679 0.930 . S
C684 C687 1.404 . S
C684 C688 1.353 . S
N685 Co650 2.145 . S
N685 C686 1.397 . S
N685 C687 1.334 . S
C686 H667 0.929 . S
C686 C683 1.388 . S
C686 N685 1.397 . S
C687 H668 0.929 . S
C687 C684 1.404 . S
C687 N685 1.334 . S
C688 H680 0.930 . S
C688 C683 1.418 . S
C688 C684 1.353 . S
C689 H659 0.930 . S
C689 N690 1.330 . S
C689 C691 1.446 . S
N690 Co649 2.151 1_554 S
N690 C689 1.330 . S
N690 C694 1.418 . S
C691 H670 0.929 . S
C691 C689 1.446 . S
C691 C692 1.332 . S
C692 H672 0.931 . S
C692 C691 1.332 . S
C692 C693 1.267 . S
C693 H661 0.929 . S
C693 C692 1.267 . S
C693 C694 1.251 . S
C694 H664 0.929 1_554 S
C694 N690 1.418 . S
C694 C693 1.251 . S
C695 H662 0.930 . S
C695 C697 1.406 . S
C695 C700 1.261 1_554 S
C696 H663 0.930 . S
C696 N698 1.325 . S
C696 C699 1.357 . S
C697 H665 0.928 . S
C697 C695 1.406 . S
C697 N698 1.261 1_554 S
N698 Co649 2.214 . S
N698 C696 1.325 . S
N698 C697 1.261 1_556 S
C699 H669 0.931 . S
C699 C696 1.357 . S
C699 C700 1.312 . S
C700 H671 0.930 . S
C700 C695 1.261 1_556 S
C700 C699 1.312 . S
C701 O673 1.214 . S
C701 O681 1.234 . S
C702 H674 0.929 . S
C702 C705 1.391 . S
C702 C707 1.391 . S
C703 H675 0.929 . S
C703 C704 1.390 . S
C703 N706 1.391 . S
C704 H676 0.930 . S
C704 C703 1.390 . S
C704 C705 1.392 . S
C705 H677 0.929 . S
C705 C702 1.391 . S
C705 C704 1.392 . S
N706 Co650 2.257 . S
N706 C703 1.391 . S
N706 C707 1.388 . S
C707 H678 0.930 . S
C707 C702 1.391 . S
C707 N706 1.388 . S
Co708 O710 2.143 . S
Co708 O716 2.074 . S
Co708 O719 2.093 . S
Co708 O732 2.097 . S
Co708 N749 2.151 . S
Co708 N757 2.214 . S
Co709 O710 2.160 . S
Co709 O715 2.058 . S
Co709 O725 2.057 . S
Co709 O740 2.037 . S
Co709 N744 2.145 . S
Co709 N765 2.257 . S
O710 Co708 2.143 . S
O710 Co709 2.160 . S
C711 O712 1.278 . S
C711 O719 1.224 . S
O712 C711 1.278 . S
C713 O714 1.245 . S
C713 O725 1.232 . S
O714 C713 1.245 . S
O715 Co709 2.058 . S
O715 C741 1.269 . S
O716 Co708 2.074 . S
O716 C741 1.257 . S
H717 C742 0.930 . S
H718 C748 0.930 . S
O719 Co708 2.093 . S
O719 C711 1.224 . S
H720 C752 0.929 . S
H721 C754 0.930 . S
H722 C755 0.930 . S
H723 C753 0.929 . S
H724 C756 0.928 . S
O725 Co709 2.057 . S
O725 C713 1.232 . S
H726 C745 0.929 . S
H727 C746 0.929 . S
H728 C758 0.931 . S
H729 C750 0.929 . S
H730 C759 0.930 . S
H731 C751 0.931 . S
O732 Co708 2.097 . S
O732 C760 1.214 . S
H733 C761 0.929 . S
H734 C762 0.929 . S
H735 C763 0.930 . S
H736 C764 0.929 . S
H737 C766 0.930 . S
H738 C743 0.930 . S
H739 C747 0.930 . S
O740 Co709 2.037 . S
O740 C760 1.234 . S
C741 O715 1.269 . S
C741 O716 1.257 . S
C742 H717 0.930 . S
C742 C745 1.388 . S
C742 C747 1.418 . S
C743 H738 0.930 . S
C743 C746 1.404 . S
C743 C747 1.353 . S
N744 Co709 2.145 . S
N744 C745 1.397 . S
N744 C746 1.334 . S
C745 H726 0.929 . S
C745 C742 1.388 . S
C745 N744 1.397 . S
C746 H727 0.929 . S
C746 C743 1.404 . S
C746 N744 1.334 . S
C747 H739 0.930 . S
C747 C742 1.418 . S
C747 C743 1.353 . S
C748 H718 0.930 . S
C748 N749 1.330 . S
C748 C750 1.446 . S
N749 Co708 2.151 . S
N749 C748 1.330 . S
N749 C753 1.418 1_655 S
C750 H729 0.929 . S
C750 C748 1.446 . S
C750 C751 1.332 1_655 S
C751 H731 0.931 . S
C751 C750 1.332 1_455 S
C751 C752 1.267 . S
C752 H720 0.929 . S
C752 C751 1.267 . S
C752 C753 1.251 . S
C753 H723 0.929 . S
C753 N749 1.418 1_455 S
C753 C752 1.251 . S
C754 H721 0.930 . S
C754 C756 1.406 . S
C754 C759 1.261 . S
C755 H722 0.930 . S
C755 N757 1.325 . S
C755 C758 1.357 . S
C756 H724 0.928 . S
C756 C754 1.406 . S
C756 N757 1.261 . S
N757 Co708 2.214 . S
N757 C755 1.325 . S
N757 C756 1.261 . S
C758 H728 0.931 . S
C758 C755 1.357 . S
C758 C759 1.312 . S
C759 H730 0.930 . S
C759 C754 1.261 . S
C759 C758 1.312 . S
C760 O732 1.214 . S
C760 O740 1.234 . S
C761 H733 0.929 . S
C761 C764 1.391 . S
C761 C766 1.391 . S
C762 H734 0.929 . S
C762 C763 1.390 . S
C762 N765 1.391 . S
C763 H735 0.930 . S
C763 C762 1.390 . S
C763 C764 1.392 . S
C764 H736 0.929 . S
C764 C761 1.391 . S
C764 C763 1.392 . S
N765 Co709 2.257 . S
N765 C762 1.391 . S
N765 C766 1.388 . S
C766 H737 0.930 . S
C766 C761 1.391 . S
C766 N765 1.388 . S
Co767 O769 2.143 . S
Co767 O775 2.074 . S
Co767 O778 2.093 . S
Co767 O791 2.097 . S
Co767 N808 2.151 . S
Co767 N816 2.214 . S
Co768 O769 2.160 . S
Co768 O774 2.058 . S
Co768 O784 2.057 . S
Co768 O799 2.037 . S
Co768 N803 2.145 . S
Co768 N824 2.257 . S
O769 Co767 2.143 . S
O769 Co768 2.160 . S
C770 O771 1.278 . S
C770 O778 1.224 . S
O771 C770 1.278 . S
C772 O773 1.245 . S
C772 O784 1.232 . S
O773 C772 1.245 . S
O774 Co768 2.058 . S
O774 C800 1.269 . S
O775 Co767 2.074 . S
O775 C800 1.257 . S
H776 C801 0.930 . S
H777 C807 0.930 . S
O778 Co767 2.093 . S
O778 C770 1.224 . S
H779 C811 0.929 . S
H780 C813 0.930 . S
H781 C814 0.930 . S
H782 C812 0.929 . S
H783 C815 0.928 . S
O784 Co768 2.057 . S
O784 C772 1.232 . S
H785 C804 0.929 . S
H786 C805 0.929 . S
H787 C817 0.931 . S
H788 C809 0.929 . S
H789 C818 0.930 . S
H790 C810 0.931 . S
O791 Co767 2.097 . S
O791 C819 1.214 . S
H792 C820 0.929 . S
H793 C821 0.929 . S
H794 C822 0.930 . S
H795 C823 0.929 . S
H796 C825 0.930 . S
H797 C802 0.930 . S
H798 C806 0.930 . S
O799 Co768 2.037 . S
O799 C819 1.234 . S
C800 O774 1.269 . S
C800 O775 1.257 . S
C801 H776 0.930 . S
C801 C804 1.388 . S
C801 C806 1.418 . S
C802 H797 0.930 . S
C802 C805 1.404 . S
C802 C806 1.353 . S
N803 Co768 2.145 . S
N803 C804 1.397 . S
N803 C805 1.334 . S
C804 H785 0.929 . S
C804 C801 1.388 . S
C804 N803 1.397 . S
C805 H786 0.929 . S
C805 C802 1.404 . S
C805 N803 1.334 . S
C806 H798 0.930 . S
C806 C801 1.418 . S
C806 C802 1.353 . S
C807 H777 0.930 . S
C807 N808 1.330 . S
C807 C809 1.446 . S
N808 Co767 2.151 . S
N808 C807 1.330 . S
N808 C812 1.418 . S
C809 H788 0.929 . S
C809 C807 1.446 . S
C809 C810 1.332 . S
C810 H790 0.931 . S
C810 C809 1.332 . S
C810 C811 1.267 . S
C811 H779 0.929 . S
C811 C810 1.267 . S
C811 C812 1.251 . S
C812 H782 0.929 . S
C812 N808 1.418 . S
C812 C811 1.251 . S
C813 H780 0.930 . S
C813 C815 1.406 . S
C813 C818 1.261 . S
C814 H781 0.930 . S
C814 N816 1.325 . S
C814 C817 1.357 . S
C815 H783 0.928 . S
C815 C813 1.406 . S
C815 N816 1.261 . S
N816 Co767 2.214 . S
N816 C814 1.325 . S
N816 C815 1.261 . S
C817 H787 0.931 . S
C817 C814 1.357 . S
C817 C818 1.312 . S
C818 H789 0.930 . S
C818 C813 1.261 . S
C818 C817 1.312 . S
C819 O791 1.214 . S
C819 O799 1.234 . S
C820 H792 0.929 . S
C820 C823 1.391 . S
C820 C825 1.391 . S
C821 H793 0.929 . S
C821 C822 1.390 . S
C821 N824 1.391 . S
C822 H794 0.930 . S
C822 C821 1.390 . S
C822 C823 1.392 . S
C823 H795 0.929 . S
C823 C820 1.391 . S
C823 C822 1.392 . S
N824 Co768 2.257 . S
N824 C821 1.391 . S
N824 C825 1.388 . S
C825 H796 0.930 . S
C825 C820 1.391 . S
C825 N824 1.388 . S
Co826 O828 2.143 . S
Co826 O834 2.074 . S
Co826 O837 2.093 . S
Co826 O850 2.097 . S
Co826 N867 2.151 . S
Co826 N875 2.214 . S
Co827 O828 2.160 . S
Co827 O833 2.058 . S
Co827 O843 2.057 . S
Co827 O858 2.037 . S
Co827 N862 2.145 . S
Co827 N883 2.257 . S
O828 Co826 2.143 . S
O828 Co827 2.160 . S
C829 O830 1.278 . S
C829 O837 1.224 . S
O830 C829 1.278 . S
C831 O832 1.245 . S
C831 O843 1.232 . S
O832 C831 1.245 . S
O833 Co827 2.058 . S
O833 C859 1.269 . S
O834 Co826 2.074 . S
O834 C859 1.257 . S
H835 C860 0.930 . S
H836 C866 0.930 . S
O837 Co826 2.093 . S
O837 C829 1.224 . S
H838 C870 0.929 . S
H839 C872 0.930 . S
H840 C873 0.930 . S
H841 C871 0.929 . S
H842 C874 0.928 . S
O843 Co827 2.057 . S
O843 C831 1.232 . S
H844 C863 0.929 . S
H845 C864 0.929 . S
H846 C876 0.931 . S
H847 C868 0.929 . S
H848 C877 0.930 . S
H849 C869 0.931 . S
O850 Co826 2.097 . S
O850 C878 1.214 . S
H851 C879 0.929 . S
H852 C880 0.929 . S
H853 C881 0.930 . S
H854 C882 0.929 . S
H855 C884 0.930 . S
H856 C861 0.930 . S
H857 C865 0.930 . S
O858 Co827 2.037 . S
O858 C878 1.234 . S
C859 O833 1.269 . S
C859 O834 1.257 . S
C860 H835 0.930 . S
C860 C863 1.388 . S
C860 C865 1.418 . S
C861 H856 0.930 . S
C861 C864 1.404 . S
C861 C865 1.353 . S
N862 Co827 2.145 . S
N862 C863 1.397 . S
N862 C864 1.334 . S
C863 H844 0.929 . S
C863 C860 1.388 . S
C863 N862 1.397 . S
C864 H845 0.929 . S
C864 C861 1.404 . S
C864 N862 1.334 . S
C865 H857 0.930 . S
C865 C860 1.418 . S
C865 C861 1.353 . S
C866 H836 0.930 . S
C866 N867 1.330 . S
C866 C868 1.446 . S
N867 Co826 2.151 . S
N867 C866 1.330 . S
N867 C871 1.418 . S
C868 H847 0.929 . S
C868 C866 1.446 . S
C868 C869 1.332 . S
C869 H849 0.931 . S
C869 C868 1.332 . S
C869 C870 1.267 . S
C870 H838 0.929 . S
C870 C869 1.267 . S
C870 C871 1.251 . S
C871 H841 0.929 . S
C871 N867 1.418 . S
C871 C870 1.251 . S
C872 H839 0.930 . S
C872 C874 1.406 . S
C872 C877 1.261 . S
C873 H840 0.930 . S
C873 N875 1.325 . S
C873 C876 1.357 . S
C874 H842 0.928 . S
C874 C872 1.406 . S
C874 N875 1.261 . S
N875 Co826 2.214 . S
N875 C873 1.325 . S
N875 C874 1.261 . S
C876 H846 0.931 . S
C876 C873 1.357 . S
C876 C877 1.312 . S
C877 H848 0.930 . S
C877 C872 1.261 . S
C877 C876 1.312 . S
C878 O850 1.214 . S
C878 O858 1.234 . S
C879 H851 0.929 . S
C879 C882 1.391 . S
C879 C884 1.391 . S
C880 H852 0.929 . S
C880 C881 1.390 . S
C880 N883 1.391 . S
C881 H853 0.930 . S
C881 C880 1.390 . S
C881 C882 1.392 . S
C882 H854 0.929 . S
C882 C879 1.391 . S
C882 C881 1.392 . S
N883 Co827 2.257 . S
N883 C880 1.391 . S
N883 C884 1.388 . S
C884 H855 0.930 . S
C884 C879 1.391 . S
C884 N883 1.388 . S
Co885 O887 2.143 . S
Co885 O893 2.074 . S
Co885 O896 2.093 1_554 S
Co885 O909 2.097 . S
Co885 N926 2.151 1_554 S
Co885 N934 2.214 . S
Co886 O887 2.160 . S
Co886 O892 2.058 . S
Co886 O902 2.057 . S
Co886 O917 2.037 . S
Co886 N921 2.145 . S
Co886 N942 2.257 . S
O887 Co885 2.143 . S
O887 Co886 2.160 . S
C888 O889 1.278 . S
C888 O896 1.224 . S
O889 C888 1.278 . S
C890 O891 1.245 . S
C890 O902 1.232 . S
O891 C890 1.245 . S
O892 Co886 2.058 . S
O892 C918 1.269 . S
O893 Co885 2.074 . S
O893 C918 1.257 . S
H894 C919 0.930 . S
H895 C925 0.930 . S
O896 Co885 2.093 1_556 S
O896 C888 1.224 . S
H897 C929 0.929 . S
H898 C931 0.930 . S
H899 C932 0.930 . S
H900 C930 0.929 1_554 S
H901 C933 0.928 . S
O902 Co886 2.057 . S
O902 C890 1.232 . S
H903 C922 0.929 . S
H904 C923 0.929 . S
H905 C935 0.931 . S
H906 C927 0.929 . S
H907 C936 0.930 . S
H908 C928 0.931 . S
O909 Co885 2.097 . S
O909 C937 1.214 . S
H910 C938 0.929 . S
H911 C939 0.929 . S
H912 C940 0.930 . S
H913 C941 0.929 . S
H914 C943 0.930 . S
H915 C920 0.930 . S
H916 C924 0.930 . S
O917 Co886 2.037 . S
O917 C937 1.234 . S
C918 O892 1.269 . S
C918 O893 1.257 . S
C919 H894 0.930 . S
C919 C922 1.388 . S
C919 C924 1.418 . S
C920 H915 0.930 . S
C920 C923 1.404 . S
C920 C924 1.353 . S
N921 Co886 2.145 . S
N921 C922 1.397 . S
N921 C923 1.334 . S
C922 H903 0.929 . S
C922 C919 1.388 . S
C922 N921 1.397 . S
C923 H904 0.929 . S
C923 C920 1.404 . S
C923 N921 1.334 . S
C924 H916 0.930 . S
C924 C919 1.418 . S
C924 C920 1.353 . S
C925 H895 0.930 . S
C925 N926 1.330 . S
C925 C927 1.446 . S
N926 Co885 2.151 1_556 S
N926 C925 1.330 . S
N926 C930 1.418 . S
C927 H906 0.929 . S
C927 C925 1.446 . S
C927 C928 1.332 . S
C928 H908 0.931 . S
C928 C927 1.332 . S
C928 C929 1.267 . S
C929 H897 0.929 . S
C929 C928 1.267 . S
C929 C930 1.251 . S
C930 H900 0.929 1_556 S
C930 N926 1.418 . S
C930 C929 1.251 . S
C931 H898 0.930 . S
C931 C933 1.406 . S
C931 C936 1.261 1_556 S
C932 H899 0.930 . S
C932 N934 1.325 . S
C932 C935 1.357 . S
C933 H901 0.928 . S
C933 C931 1.406 . S
C933 N934 1.261 1_556 S
N934 Co885 2.214 . S
N934 C932 1.325 . S
N934 C933 1.261 1_554 S
C935 H905 0.931 . S
C935 C932 1.357 . S
C935 C936 1.312 . S
C936 H907 0.930 . S
C936 C931 1.261 1_554 S
C936 C935 1.312 . S
C937 O909 1.214 . S
C937 O917 1.234 . S
C938 H910 0.929 . S
C938 C941 1.391 . S
C938 C943 1.391 . S
C939 H911 0.929 . S
C939 C940 1.390 . S
C939 N942 1.391 . S
C940 H912 0.930 . S
C940 C939 1.390 . S
C940 C941 1.392 . S
C941 H913 0.929 . S
C941 C938 1.391 . S
C941 C940 1.392 . S
N942 Co886 2.257 . S
N942 C939 1.391 . S
N942 C943 1.388 . S
C943 H914 0.930 . S
C943 C938 1.391 . S
C943 N942 1.388 . S
Co944 O946 2.143 . S
Co944 O952 2.074 . S
Co944 O955 2.093 . S
Co944 O968 2.097 . S
Co944 N985 2.151 . S
Co944 N993 2.214 . S
Co945 O946 2.160 . S
Co945 O951 2.058 . S
Co945 O961 2.057 . S
Co945 O976 2.037 . S
Co945 N980 2.145 . S
Co945 N1001 2.257 . S
O946 Co944 2.143 . S
O946 Co945 2.160 . S
C947 O948 1.278 . S
C947 O955 1.224 . S
O948 C947 1.278 . S
C949 O950 1.245 . S
C949 O961 1.232 . S
O950 C949 1.245 . S
O951 Co945 2.058 . S
O951 C977 1.269 . S
O952 Co944 2.074 . S
O952 C977 1.257 . S
H953 C978 0.930 . S
H954 C984 0.930 . S
O955 Co944 2.093 . S
O955 C947 1.224 . S
H956 C988 0.929 . S
H957 C990 0.930 . S
H958 C991 0.930 . S
H959 C989 0.929 . S
H960 C992 0.928 . S
O961 Co945 2.057 . S
O961 C949 1.232 . S
H962 C981 0.929 . S
H963 C982 0.929 . S
H964 C994 0.931 . S
H965 C986 0.929 . S
H966 C995 0.930 . S
H967 C987 0.931 . S
O968 Co944 2.097 . S
O968 C996 1.214 . S
H969 C997 0.929 . S
H970 C998 0.929 . S
H971 C999 0.930 . S
H972 C1000 0.929 . S
H973 C1002 0.930 . S
H974 C979 0.930 . S
H975 C983 0.930 . S
O976 Co945 2.037 . S
O976 C996 1.234 . S
C977 O951 1.269 . S
C977 O952 1.257 . S
C978 H953 0.930 . S
C978 C981 1.388 . S
C978 C983 1.418 . S
C979 H974 0.930 . S
C979 C982 1.404 . S
C979 C983 1.353 . S
N980 Co945 2.145 . S
N980 C981 1.397 . S
N980 C982 1.334 . S
C981 H962 0.929 . S
C981 C978 1.388 . S
C981 N980 1.397 . S
C982 H963 0.929 . S
C982 C979 1.404 . S
C982 N980 1.334 . S
C983 H975 0.930 . S
C983 C978 1.418 . S
C983 C979 1.353 . S
C984 H954 0.930 . S
C984 N985 1.330 . S
C984 C986 1.446 . S
N985 Co944 2.151 . S
N985 C984 1.330 . S
N985 C989 1.418 . S
C986 H965 0.929 . S
C986 C984 1.446 . S
C986 C987 1.332 . S
C987 H967 0.931 . S
C987 C986 1.332 . S
C987 C988 1.267 . S
C988 H956 0.929 . S
C988 C987 1.267 . S
C988 C989 1.251 . S
C989 H959 0.929 . S
C989 N985 1.418 . S
C989 C988 1.251 . S
C990 H957 0.930 . S
C990 C992 1.406 . S
C990 C995 1.261 . S
C991 H958 0.930 . S
C991 N993 1.325 . S
C991 C994 1.357 . S
C992 H960 0.928 . S
C992 C990 1.406 . S
C992 N993 1.261 . S
N993 Co944 2.214 . S
N993 C991 1.325 . S
N993 C992 1.261 . S
C994 H964 0.931 . S
C994 C991 1.357 . S
C994 C995 1.312 . S
C995 H966 0.930 . S
C995 C990 1.261 . S
C995 C994 1.312 . S
C996 O968 1.214 . S
C996 O976 1.234 . S
C997 H969 0.929 . S
C997 C1000 1.391 . S
C997 C1002 1.391 . S
C998 H970 0.929 . S
C998 C999 1.390 . S
C998 N1001 1.391 . S
C999 H971 0.930 . S
C999 C998 1.390 . S
C999 C1000 1.392 . S
C1000 H972 0.929 . S
C1000 C997 1.391 . S
C1000 C999 1.392 . S
N1001 Co945 2.257 . S
N1001 C998 1.391 . S
N1001 C1002 1.388 . S
C1002 H973 0.930 . S
C1002 C997 1.391 . S
C1002 N1001 1.388 . S
Co1003 O1005 2.143 . S
Co1003 O1011 2.074 . S
Co1003 O1014 2.093 1_554 S
Co1003 O1027 2.097 . S
Co1003 N1044 2.151 1_554 S
Co1003 N1052 2.214 . S
Co1004 O1005 2.160 . S
Co1004 O1010 2.058 . S
Co1004 O1020 2.057 . S
Co1004 O1035 2.037 . S
Co1004 N1039 2.145 . S
Co1004 N1060 2.257 . S
O1005 Co1003 2.143 . S
O1005 Co1004 2.160 . S
C1006 O1007 1.278 . S
C1006 O1014 1.224 . S
O1007 C1006 1.278 . S
C1008 O1009 1.245 . S
C1008 O1020 1.232 . S
O1009 C1008 1.245 . S
O1010 Co1004 2.058 . S
O1010 C1036 1.269 . S
O1011 Co1003 2.074 . S
O1011 C1036 1.257 . S
H1012 C1037 0.930 . S
H1013 C1043 0.930 . S
O1014 Co1003 2.093 1_556 S
O1014 C1006 1.224 . S
H1015 C1047 0.929 . S
H1016 C1049 0.930 . S
H1017 C1050 0.930 . S
H1018 C1048 0.929 1_554 S
H1019 C1051 0.928 . S
O1020 Co1004 2.057 . S
O1020 C1008 1.232 . S
H1021 C1040 0.929 . S
H1022 C1041 0.929 . S
H1023 C1053 0.931 . S
H1024 C1045 0.929 . S
H1025 C1054 0.930 . S
H1026 C1046 0.931 . S
O1027 Co1003 2.097 . S
O1027 C1055 1.214 . S
H1028 C1056 0.929 . S
H1029 C1057 0.929 . S
H1030 C1058 0.930 . S
H1031 C1059 0.929 . S
H1032 C1061 0.930 . S
H1033 C1038 0.930 . S
H1034 C1042 0.930 . S
O1035 Co1004 2.037 . S
O1035 C1055 1.234 . S
C1036 O1010 1.269 . S
C1036 O1011 1.257 . S
C1037 H1012 0.930 . S
C1037 C1040 1.388 . S
C1037 C1042 1.418 . S
C1038 H1033 0.930 . S
C1038 C1041 1.404 . S
C1038 C1042 1.353 . S
N1039 Co1004 2.145 . S
N1039 C1040 1.397 . S
N1039 C1041 1.334 . S
C1040 H1021 0.929 . S
C1040 C1037 1.388 . S
C1040 N1039 1.397 . S
C1041 H1022 0.929 . S
C1041 C1038 1.404 . S
C1041 N1039 1.334 . S
C1042 H1034 0.930 . S
C1042 C1037 1.418 . S
C1042 C1038 1.353 . S
C1043 H1013 0.930 . S
C1043 N1044 1.330 . S
C1043 C1045 1.446 . S
N1044 Co1003 2.151 1_556 S
N1044 C1043 1.330 . S
N1044 C1048 1.418 . S
C1045 H1024 0.929 . S
C1045 C1043 1.446 . S
C1045 C1046 1.332 . S
C1046 H1026 0.931 . S
C1046 C1045 1.332 . S
C1046 C1047 1.267 . S
C1047 H1015 0.929 . S
C1047 C1046 1.267 . S
C1047 C1048 1.251 . S
C1048 H1018 0.929 1_556 S
C1048 N1044 1.418 . S
C1048 C1047 1.251 . S
C1049 H1016 0.930 . S
C1049 C1051 1.406 . S
C1049 C1054 1.261 1_556 S
C1050 H1017 0.930 . S
C1050 N1052 1.325 . S
C1050 C1053 1.357 . S
C1051 H1019 0.928 . S
C1051 C1049 1.406 . S
C1051 N1052 1.261 1_556 S
N1052 Co1003 2.214 . S
N1052 C1050 1.325 . S
N1052 C1051 1.261 1_554 S
C1053 H1023 0.931 . S
C1053 C1050 1.357 . S
C1053 C1054 1.312 . S
C1054 H1025 0.930 . S
C1054 C1049 1.261 1_554 S
C1054 C1053 1.312 . S
C1055 O1027 1.214 . S
C1055 O1035 1.234 . S
C1056 H1028 0.929 . S
C1056 C1059 1.391 . S
C1056 C1061 1.391 . S
C1057 H1029 0.929 . S
C1057 C1058 1.390 . S
C1057 N1060 1.391 . S
C1058 H1030 0.930 . S
C1058 C1057 1.390 . S
C1058 C1059 1.392 . S
C1059 H1031 0.929 . S
C1059 C1056 1.391 . S
C1059 C1058 1.392 . S
N1060 Co1004 2.257 . S
N1060 C1057 1.391 . S
N1060 C1061 1.388 . S
C1061 H1032 0.930 . S
C1061 C1056 1.391 . S
C1061 N1060 1.388 . S
Co1062 O1064 2.143 . S
Co1062 O1070 2.074 . S
Co1062 O1073 2.093 . S
Co1062 O1086 2.097 . S
Co1062 N1103 2.151 . S
Co1062 N1111 2.214 . S
Co1063 O1064 2.160 . S
Co1063 O1069 2.058 . S
Co1063 O1079 2.057 . S
Co1063 O1094 2.037 . S
Co1063 N1098 2.145 . S
Co1063 N1119 2.257 . S
O1064 Co1062 2.143 . S
O1064 Co1063 2.160 . S
C1065 O1066 1.278 . S
C1065 O1073 1.224 . S
O1066 C1065 1.278 . S
C1067 O1068 1.245 . S
C1067 O1079 1.232 . S
O1068 C1067 1.245 . S
O1069 Co1063 2.058 . S
O1069 C1095 1.269 . S
O1070 Co1062 2.074 . S
O1070 C1095 1.257 . S
H1071 C1096 0.930 . S
H1072 C1102 0.930 . S
O1073 Co1062 2.093 . S
O1073 C1065 1.224 . S
H1074 C1106 0.929 . S
H1075 C1108 0.930 . S
H1076 C1109 0.930 . S
H1077 C1107 0.929 . S
H1078 C1110 0.928 . S
O1079 Co1063 2.057 . S
O1079 C1067 1.232 . S
H1080 C1099 0.929 . S
H1081 C1100 0.929 . S
H1082 C1112 0.931 . S
H1083 C1104 0.929 . S
H1084 C1113 0.930 . S
H1085 C1105 0.931 . S
O1086 Co1062 2.097 . S
O1086 C1114 1.214 . S
H1087 C1115 0.929 . S
H1088 C1116 0.929 . S
H1089 C1117 0.930 . S
H1090 C1118 0.929 . S
H1091 C1120 0.930 . S
H1092 C1097 0.930 . S
H1093 C1101 0.930 . S
O1094 Co1063 2.037 . S
O1094 C1114 1.234 . S
C1095 O1069 1.269 . S
C1095 O1070 1.257 . S
C1096 H1071 0.930 . S
C1096 C1099 1.388 . S
C1096 C1101 1.418 . S
C1097 H1092 0.930 . S
C1097 C1100 1.404 . S
C1097 C1101 1.353 . S
N1098 Co1063 2.145 . S
N1098 C1099 1.397 . S
N1098 C1100 1.334 . S
C1099 H1080 0.929 . S
C1099 C1096 1.388 . S
C1099 N1098 1.397 . S
C1100 H1081 0.929 . S
C1100 C1097 1.404 . S
C1100 N1098 1.334 . S
C1101 H1093 0.930 . S
C1101 C1096 1.418 . S
C1101 C1097 1.353 . S
C1102 H1072 0.930 . S
C1102 N1103 1.330 . S
C1102 C1104 1.446 . S
N1103 Co1062 2.151 . S
N1103 C1102 1.330 . S
N1103 C1107 1.418 1_655 S
C1104 H1083 0.929 . S
C1104 C1102 1.446 . S
C1104 C1105 1.332 1_655 S
C1105 H1085 0.931 . S
C1105 C1104 1.332 1_455 S
C1105 C1106 1.267 . S
C1106 H1074 0.929 . S
C1106 C1105 1.267 . S
C1106 C1107 1.251 . S
C1107 H1077 0.929 . S
C1107 N1103 1.418 1_455 S
C1107 C1106 1.251 . S
C1108 H1075 0.930 . S
C1108 C1110 1.406 . S
C1108 C1113 1.261 . S
C1109 H1076 0.930 . S
C1109 N1111 1.325 . S
C1109 C1112 1.357 . S
C1110 H1078 0.928 . S
C1110 C1108 1.406 . S
C1110 N1111 1.261 . S
N1111 Co1062 2.214 . S
N1111 C1109 1.325 . S
N1111 C1110 1.261 . S
C1112 H1082 0.931 . S
C1112 C1109 1.357 . S
C1112 C1113 1.312 . S
C1113 H1084 0.930 . S
C1113 C1108 1.261 . S
C1113 C1112 1.312 . S
C1114 O1086 1.214 . S
C1114 O1094 1.234 . S
C1115 H1087 0.929 . S
C1115 C1118 1.391 . S
C1115 C1120 1.391 . S
C1116 H1088 0.929 . S
C1116 C1117 1.390 . S
C1116 N1119 1.391 . S
C1117 H1089 0.930 . S
C1117 C1116 1.390 . S
C1117 C1118 1.392 . S
C1118 H1090 0.929 . S
C1118 C1115 1.391 . S
C1118 C1117 1.392 . S
N1119 Co1063 2.257 . S
N1119 C1116 1.391 . S
N1119 C1120 1.388 . S
C1120 H1091 0.930 . S
C1120 C1115 1.391 . S
C1120 N1119 1.388 . S
Co1121 O1123 2.143 . S
Co1121 O1129 2.074 . S
Co1121 O1132 2.093 . S
Co1121 O1145 2.097 . S
Co1121 N1162 2.151 . S
Co1121 N1170 2.214 . S
Co1122 O1123 2.160 . S
Co1122 O1128 2.058 . S
Co1122 O1138 2.057 . S
Co1122 O1153 2.037 . S
Co1122 N1157 2.145 . S
Co1122 N1178 2.257 . S
O1123 Co1121 2.143 . S
O1123 Co1122 2.160 . S
C1124 O1125 1.278 . S
C1124 O1132 1.224 . S
O1125 C1124 1.278 . S
C1126 O1127 1.245 . S
C1126 O1138 1.232 . S
O1127 C1126 1.245 . S
O1128 Co1122 2.058 . S
O1128 C1154 1.269 . S
O1129 Co1121 2.074 . S
O1129 C1154 1.257 . S
H1130 C1155 0.930 . S
H1131 C1161 0.930 . S
O1132 Co1121 2.093 . S
O1132 C1124 1.224 . S
H1133 C1165 0.929 . S
H1134 C1167 0.930 . S
H1135 C1168 0.930 . S
H1136 C1166 0.929 . S
H1137 C1169 0.928 . S
O1138 Co1122 2.057 . S
O1138 C1126 1.232 . S
H1139 C1158 0.929 . S
H1140 C1159 0.929 . S
H1141 C1171 0.931 . S
H1142 C1163 0.929 . S
H1143 C1172 0.930 . S
H1144 C1164 0.931 . S
O1145 Co1121 2.097 . S
O1145 C1173 1.214 . S
H1146 C1174 0.929 . S
H1147 C1175 0.929 . S
H1148 C1176 0.930 . S
H1149 C1177 0.929 . S
H1150 C1179 0.930 . S
H1151 C1156 0.930 . S
H1152 C1160 0.930 . S
O1153 Co1122 2.037 . S
O1153 C1173 1.234 . S
C1154 O1128 1.269 . S
C1154 O1129 1.257 . S
C1155 H1130 0.930 . S
C1155 C1158 1.388 . S
C1155 C1160 1.418 . S
C1156 H1151 0.930 . S
C1156 C1159 1.404 . S
C1156 C1160 1.353 . S
N1157 Co1122 2.145 . S
N1157 C1158 1.397 . S
N1157 C1159 1.334 . S
C1158 H1139 0.929 . S
C1158 C1155 1.388 . S
C1158 N1157 1.397 . S
C1159 H1140 0.929 . S
C1159 C1156 1.404 . S
C1159 N1157 1.334 . S
C1160 H1152 0.930 . S
C1160 C1155 1.418 . S
C1160 C1156 1.353 . S
C1161 H1131 0.930 . S
C1161 N1162 1.330 . S
C1161 C1163 1.446 . S
N1162 Co1121 2.151 . S
N1162 C1161 1.330 . S
N1162 C1166 1.418 . S
C1163 H1142 0.929 . S
C1163 C1161 1.446 . S
C1163 C1164 1.332 . S
C1164 H1144 0.931 . S
C1164 C1163 1.332 . S
C1164 C1165 1.267 . S
C1165 H1133 0.929 . S
C1165 C1164 1.267 . S
C1165 C1166 1.251 . S
C1166 H1136 0.929 . S
C1166 N1162 1.418 . S
C1166 C1165 1.251 . S
C1167 H1134 0.930 . S
C1167 C1169 1.406 . S
C1167 C1172 1.261 . S
C1168 H1135 0.930 . S
C1168 N1170 1.325 . S
C1168 C1171 1.357 . S
C1169 H1137 0.928 . S
C1169 C1167 1.406 . S
C1169 N1170 1.261 . S
N1170 Co1121 2.214 . S
N1170 C1168 1.325 . S
N1170 C1169 1.261 . S
C1171 H1141 0.931 . S
C1171 C1168 1.357 . S
C1171 C1172 1.312 . S
C1172 H1143 0.930 . S
C1172 C1167 1.261 . S
C1172 C1171 1.312 . S
C1173 O1145 1.214 . S
C1173 O1153 1.234 . S
C1174 H1146 0.929 . S
C1174 C1177 1.391 . S
C1174 C1179 1.391 . S
C1175 H1147 0.929 . S
C1175 C1176 1.390 . S
C1175 N1178 1.391 . S
C1176 H1148 0.930 . S
C1176 C1175 1.390 . S
C1176 C1177 1.392 . S
C1177 H1149 0.929 . S
C1177 C1174 1.391 . S
C1177 C1176 1.392 . S
N1178 Co1122 2.257 . S
N1178 C1175 1.391 . S
N1178 C1179 1.388 . S
C1179 H1150 0.930 . S
C1179 C1174 1.391 . S
C1179 N1178 1.388 . S
Co1180 O1182 2.143 . S
Co1180 O1188 2.074 . S
Co1180 O1191 2.093 . S
Co1180 O1204 2.097 . S
Co1180 N1221 2.151 . S
Co1180 N1229 2.214 . S
Co1181 O1182 2.160 . S
Co1181 O1187 2.058 . S
Co1181 O1197 2.057 . S
Co1181 O1212 2.037 . S
Co1181 N1216 2.145 . S
Co1181 N1237 2.257 . S
O1182 Co1180 2.143 . S
O1182 Co1181 2.160 . S
C1183 O1184 1.278 . S
C1183 O1191 1.224 . S
O1184 C1183 1.278 . S
C1185 O1186 1.245 . S
C1185 O1197 1.232 . S
O1186 C1185 1.245 . S
O1187 Co1181 2.058 . S
O1187 C1213 1.269 . S
O1188 Co1180 2.074 . S
O1188 C1213 1.257 . S
H1189 C1214 0.930 . S
H1190 C1220 0.930 . S
O1191 Co1180 2.093 . S
O1191 C1183 1.224 . S
H1192 C1224 0.929 . S
H1193 C1226 0.930 . S
H1194 C1227 0.930 . S
H1195 C1225 0.929 . S
H1196 C1228 0.928 . S
O1197 Co1181 2.057 . S
O1197 C1185 1.232 . S
H1198 C1217 0.929 . S
H1199 C1218 0.929 . S
H1200 C1230 0.931 . S
H1201 C1222 0.929 . S
H1202 C1231 0.930 . S
H1203 C1223 0.931 . S
O1204 Co1180 2.097 . S
O1204 C1232 1.214 . S
H1205 C1233 0.929 . S
H1206 C1234 0.929 . S
H1207 C1235 0.930 . S
H1208 C1236 0.929 . S
H1209 C1238 0.930 . S
H1210 C1215 0.930 . S
H1211 C1219 0.930 . S
O1212 Co1181 2.037 . S
O1212 C1232 1.234 . S
C1213 O1187 1.269 . S
C1213 O1188 1.257 . S
C1214 H1189 0.930 . S
C1214 C1217 1.388 . S
C1214 C1219 1.418 . S
C1215 H1210 0.930 . S
C1215 C1218 1.404 . S
C1215 C1219 1.353 . S
N1216 Co1181 2.145 . S
N1216 C1217 1.397 . S
N1216 C1218 1.334 . S
C1217 H1198 0.929 . S
C1217 C1214 1.388 . S
C1217 N1216 1.397 . S
C1218 H1199 0.929 . S
C1218 C1215 1.404 . S
C1218 N1216 1.334 . S
C1219 H1211 0.930 . S
C1219 C1214 1.418 . S
C1219 C1215 1.353 . S
C1220 H1190 0.930 . S
C1220 N1221 1.330 . S
C1220 C1222 1.446 . S
N1221 Co1180 2.151 . S
N1221 C1220 1.330 . S
N1221 C1225 1.418 . S
C1222 H1201 0.929 . S
C1222 C1220 1.446 . S
C1222 C1223 1.332 . S
C1223 H1203 0.931 . S
C1223 C1222 1.332 . S
C1223 C1224 1.267 . S
C1224 H1192 0.929 . S
C1224 C1223 1.267 . S
C1224 C1225 1.251 . S
C1225 H1195 0.929 . S
C1225 N1221 1.418 . S
C1225 C1224 1.251 . S
C1226 H1193 0.930 . S
C1226 C1228 1.406 . S
C1226 C1231 1.261 . S
C1227 H1194 0.930 . S
C1227 N1229 1.325 . S
C1227 C1230 1.357 . S
C1228 H1196 0.928 . S
C1228 C1226 1.406 . S
C1228 N1229 1.261 . S
N1229 Co1180 2.214 . S
N1229 C1227 1.325 . S
N1229 C1228 1.261 . S
C1230 H1200 0.931 . S
C1230 C1227 1.357 . S
C1230 C1231 1.312 . S
C1231 H1202 0.930 . S
C1231 C1226 1.261 . S
C1231 C1230 1.312 . S
C1232 O1204 1.214 . S
C1232 O1212 1.234 . S
C1233 H1205 0.929 . S
C1233 C1236 1.391 . S
C1233 C1238 1.391 . S
C1234 H1206 0.929 . S
C1234 C1235 1.390 . S
C1234 N1237 1.391 . S
C1235 H1207 0.930 . S
C1235 C1234 1.390 . S
C1235 C1236 1.392 . S
C1236 H1208 0.929 . S
C1236 C1233 1.391 . S
C1236 C1235 1.392 . S
N1237 Co1181 2.257 . S
N1237 C1234 1.391 . S
N1237 C1238 1.388 . S
C1238 H1209 0.930 . S
C1238 C1233 1.391 . S
C1238 N1237 1.388 . S
Co1239 O1241 2.143 . S
Co1239 O1247 2.074 . S
Co1239 O1250 2.093 1_556 S
Co1239 O1263 2.097 . S
Co1239 N1280 2.151 1_556 S
Co1239 N1288 2.214 . S
Co1240 O1241 2.160 . S
Co1240 O1246 2.058 . S
Co1240 O1256 2.057 . S
Co1240 O1271 2.037 . S
Co1240 N1275 2.145 . S
Co1240 N1296 2.257 . S
O1241 Co1239 2.143 . S
O1241 Co1240 2.160 . S
C1242 O1243 1.278 . S
C1242 O1250 1.224 . S
O1243 C1242 1.278 . S
C1244 O1245 1.245 . S
C1244 O1256 1.232 . S
O1245 C1244 1.245 . S
O1246 Co1240 2.058 . S
O1246 C1272 1.269 . S
O1247 Co1239 2.074 . S
O1247 C1272 1.257 . S
H1248 C1273 0.930 . S
H1249 C1279 0.930 . S
O1250 Co1239 2.093 1_554 S
O1250 C1242 1.224 . S
H1251 C1283 0.929 . S
H1252 C1285 0.930 . S
H1253 C1286 0.930 . S
H1254 C1284 0.929 1_556 S
H1255 C1287 0.928 . S
O1256 Co1240 2.057 . S
O1256 C1244 1.232 . S
H1257 C1276 0.929 . S
H1258 C1277 0.929 . S
H1259 C1289 0.931 . S
H1260 C1281 0.929 . S
H1261 C1290 0.930 . S
H1262 C1282 0.931 . S
O1263 Co1239 2.097 . S
O1263 C1291 1.214 . S
H1264 C1292 0.929 . S
H1265 C1293 0.929 . S
H1266 C1294 0.930 . S
H1267 C1295 0.929 . S
H1268 C1297 0.930 . S
H1269 C1274 0.930 . S
H1270 C1278 0.930 . S
O1271 Co1240 2.037 . S
O1271 C1291 1.234 . S
C1272 O1246 1.269 . S
C1272 O1247 1.257 . S
C1273 H1248 0.930 . S
C1273 C1276 1.388 . S
C1273 C1278 1.418 . S
C1274 H1269 0.930 . S
C1274 C1277 1.404 . S
C1274 C1278 1.353 . S
N1275 Co1240 2.145 . S
N1275 C1276 1.397 . S
N1275 C1277 1.334 . S
C1276 H1257 0.929 . S
C1276 C1273 1.388 . S
C1276 N1275 1.397 . S
C1277 H1258 0.929 . S
C1277 C1274 1.404 . S
C1277 N1275 1.334 . S
C1278 H1270 0.930 . S
C1278 C1273 1.418 . S
C1278 C1274 1.353 . S
C1279 H1249 0.930 . S
C1279 N1280 1.330 . S
C1279 C1281 1.446 . S
N1280 Co1239 2.151 1_554 S
N1280 C1279 1.330 . S
N1280 C1284 1.418 . S
C1281 H1260 0.929 . S
C1281 C1279 1.446 . S
C1281 C1282 1.332 . S
C1282 H1262 0.931 . S
C1282 C1281 1.332 . S
C1282 C1283 1.267 . S
C1283 H1251 0.929 . S
C1283 C1282 1.267 . S
C1283 C1284 1.251 . S
C1284 H1254 0.929 1_554 S
C1284 N1280 1.418 . S
C1284 C1283 1.251 . S
C1285 H1252 0.930 . S
C1285 C1287 1.406 . S
C1285 C1290 1.261 1_554 S
C1286 H1253 0.930 . S
C1286 N1288 1.325 . S
C1286 C1289 1.357 . S
C1287 H1255 0.928 . S
C1287 C1285 1.406 . S
C1287 N1288 1.261 1_554 S
N1288 Co1239 2.214 . S
N1288 C1286 1.325 . S
N1288 C1287 1.261 1_556 S
C1289 H1259 0.931 . S
C1289 C1286 1.357 . S
C1289 C1290 1.312 . S
C1290 H1261 0.930 . S
C1290 C1285 1.261 1_556 S
C1290 C1289 1.312 . S
C1291 O1263 1.214 . S
C1291 O1271 1.234 . S
C1292 H1264 0.929 . S
C1292 C1295 1.391 . S
C1292 C1297 1.391 . S
C1293 H1265 0.929 . S
C1293 C1294 1.390 . S
C1293 N1296 1.391 . S
C1294 H1266 0.930 . S
C1294 C1293 1.390 . S
C1294 C1295 1.392 . S
C1295 H1267 0.929 . S
C1295 C1292 1.391 . S
C1295 C1294 1.392 . S
N1296 Co1240 2.257 . S
N1296 C1293 1.391 . S
N1296 C1297 1.388 . S
C1297 H1268 0.930 . S
C1297 C1292 1.391 . S
C1297 N1296 1.388 . S
Co1298 O1300 2.143 . S
Co1298 O1306 2.074 . S
Co1298 O1309 2.093 . S
Co1298 O1322 2.097 . S
Co1298 N1339 2.151 . S
Co1298 N1347 2.214 . S
Co1299 O1300 2.160 . S
Co1299 O1305 2.058 . S
Co1299 O1315 2.057 . S
Co1299 O1330 2.037 . S
Co1299 N1334 2.145 . S
Co1299 N1355 2.257 . S
O1300 Co1298 2.143 . S
O1300 Co1299 2.160 . S
C1301 O1302 1.278 . S
C1301 O1309 1.224 . S
O1302 C1301 1.278 . S
C1303 O1304 1.245 . S
C1303 O1315 1.232 . S
O1304 C1303 1.245 . S
O1305 Co1299 2.058 . S
O1305 C1331 1.269 . S
O1306 Co1298 2.074 . S
O1306 C1331 1.257 . S
H1307 C1332 0.930 . S
H1308 C1338 0.930 . S
O1309 Co1298 2.093 . S
O1309 C1301 1.224 . S
H1310 C1342 0.929 . S
H1311 C1344 0.930 . S
H1312 C1345 0.930 . S
H1313 C1343 0.929 . S
H1314 C1346 0.928 . S
O1315 Co1299 2.057 . S
O1315 C1303 1.232 . S
H1316 C1335 0.929 . S
H1317 C1336 0.929 . S
H1318 C1348 0.931 . S
H1319 C1340 0.929 . S
H1320 C1349 0.930 . S
H1321 C1341 0.931 . S
O1322 Co1298 2.097 . S
O1322 C1350 1.214 . S
H1323 C1351 0.929 . S
H1324 C1352 0.929 . S
H1325 C1353 0.930 . S
H1326 C1354 0.929 . S
H1327 C1356 0.930 . S
H1328 C1333 0.930 . S
H1329 C1337 0.930 . S
O1330 Co1299 2.037 . S
O1330 C1350 1.234 . S
C1331 O1305 1.269 . S
C1331 O1306 1.257 . S
C1332 H1307 0.930 . S
C1332 C1335 1.388 . S
C1332 C1337 1.418 . S
C1333 H1328 0.930 . S
C1333 C1336 1.404 . S
C1333 C1337 1.353 . S
N1334 Co1299 2.145 . S
N1334 C1335 1.397 . S
N1334 C1336 1.334 . S
C1335 H1316 0.929 . S
C1335 C1332 1.388 . S
C1335 N1334 1.397 . S
C1336 H1317 0.929 . S
C1336 C1333 1.404 . S
C1336 N1334 1.334 . S
C1337 H1329 0.930 . S
C1337 C1332 1.418 . S
C1337 C1333 1.353 . S
C1338 H1308 0.930 . S
C1338 N1339 1.330 . S
C1338 C1340 1.446 . S
N1339 Co1298 2.151 . S
N1339 C1338 1.330 . S
N1339 C1343 1.418 1_655 S
C1340 H1319 0.929 . S
C1340 C1338 1.446 . S
C1340 C1341 1.332 1_655 S
C1341 H1321 0.931 . S
C1341 C1340 1.332 1_455 S
C1341 C1342 1.267 . S
C1342 H1310 0.929 . S
C1342 C1341 1.267 . S
C1342 C1343 1.251 . S
C1343 H1313 0.929 . S
C1343 N1339 1.418 1_455 S
C1343 C1342 1.251 . S
C1344 H1311 0.930 . S
C1344 C1346 1.406 . S
C1344 C1349 1.261 . S
C1345 H1312 0.930 . S
C1345 N1347 1.325 . S
C1345 C1348 1.357 . S
C1346 H1314 0.928 . S
C1346 C1344 1.406 . S
C1346 N1347 1.261 . S
N1347 Co1298 2.214 . S
N1347 C1345 1.325 . S
N1347 C1346 1.261 . S
C1348 H1318 0.931 . S
C1348 C1345 1.357 . S
C1348 C1349 1.312 . S
C1349 H1320 0.930 . S
C1349 C1344 1.261 . S
C1349 C1348 1.312 . S
C1350 O1322 1.214 . S
C1350 O1330 1.234 . S
C1351 H1323 0.929 . S
C1351 C1354 1.391 . S
C1351 C1356 1.391 . S
C1352 H1324 0.929 . S
C1352 C1353 1.390 . S
C1352 N1355 1.391 . S
C1353 H1325 0.930 . S
C1353 C1352 1.390 . S
C1353 C1354 1.392 . S
C1354 H1326 0.929 . S
C1354 C1351 1.391 . S
C1354 C1353 1.392 . S
N1355 Co1299 2.257 . S
N1355 C1352 1.391 . S
N1355 C1356 1.388 . S
C1356 H1327 0.930 . S
C1356 C1351 1.391 . S
C1356 N1355 1.388 . S
Co1357 O1359 2.143 . S
Co1357 O1365 2.074 . S
Co1357 O1368 2.093 . S
Co1357 O1381 2.097 . S
Co1357 N1398 2.151 . S
Co1357 N1406 2.214 . S
Co1358 O1359 2.160 . S
Co1358 O1364 2.058 . S
Co1358 O1374 2.057 . S
Co1358 O1389 2.037 . S
Co1358 N1393 2.145 . S
Co1358 N1414 2.257 . S
O1359 Co1357 2.143 . S
O1359 Co1358 2.160 . S
C1360 O1361 1.278 . S
C1360 O1368 1.224 . S
O1361 C1360 1.278 . S
C1362 O1363 1.245 . S
C1362 O1374 1.232 . S
O1363 C1362 1.245 . S
O1364 Co1358 2.058 . S
O1364 C1390 1.269 . S
O1365 Co1357 2.074 . S
O1365 C1390 1.257 . S
H1366 C1391 0.930 . S
H1367 C1397 0.930 . S
O1368 Co1357 2.093 . S
O1368 C1360 1.224 . S
H1369 C1401 0.929 . S
H1370 C1403 0.930 . S
H1371 C1404 0.930 . S
H1372 C1402 0.929 . S
H1373 C1405 0.928 . S
O1374 Co1358 2.057 . S
O1374 C1362 1.232 . S
H1375 C1394 0.929 . S
H1376 C1395 0.929 . S
H1377 C1407 0.931 . S
H1378 C1399 0.929 . S
H1379 C1408 0.930 . S
H1380 C1400 0.931 . S
O1381 Co1357 2.097 . S
O1381 C1409 1.214 . S
H1382 C1410 0.929 . S
H1383 C1411 0.929 . S
H1384 C1412 0.930 . S
H1385 C1413 0.929 . S
H1386 C1415 0.930 . S
H1387 C1392 0.930 . S
H1388 C1396 0.930 . S
O1389 Co1358 2.037 . S
O1389 C1409 1.234 . S
C1390 O1364 1.269 . S
C1390 O1365 1.257 . S
C1391 H1366 0.930 . S
C1391 C1394 1.388 . S
C1391 C1396 1.418 . S
C1392 H1387 0.930 . S
C1392 C1395 1.404 . S
C1392 C1396 1.353 . S
N1393 Co1358 2.145 . S
N1393 C1394 1.397 . S
N1393 C1395 1.334 . S
C1394 H1375 0.929 . S
C1394 C1391 1.388 . S
C1394 N1393 1.397 . S
C1395 H1376 0.929 . S
C1395 C1392 1.404 . S
C1395 N1393 1.334 . S
C1396 H1388 0.930 . S
C1396 C1391 1.418 . S
C1396 C1392 1.353 . S
C1397 H1367 0.930 . S
C1397 N1398 1.330 . S
C1397 C1399 1.446 . S
N1398 Co1357 2.151 . S
N1398 C1397 1.330 . S
N1398 C1402 1.418 . S
C1399 H1378 0.929 . S
C1399 C1397 1.446 . S
C1399 C1400 1.332 . S
C1400 H1380 0.931 . S
C1400 C1399 1.332 . S
C1400 C1401 1.267 . S
C1401 H1369 0.929 . S
C1401 C1400 1.267 . S
C1401 C1402 1.251 . S
C1402 H1372 0.929 . S
C1402 N1398 1.418 . S
C1402 C1401 1.251 . S
C1403 H1370 0.930 . S
C1403 C1405 1.406 . S
C1403 C1408 1.261 . S
C1404 H1371 0.930 . S
C1404 N1406 1.325 . S
C1404 C1407 1.357 . S
C1405 H1373 0.928 . S
C1405 C1403 1.406 . S
C1405 N1406 1.261 . S
N1406 Co1357 2.214 . S
N1406 C1404 1.325 . S
N1406 C1405 1.261 . S
C1407 H1377 0.931 . S
C1407 C1404 1.357 . S
C1407 C1408 1.312 . S
C1408 H1379 0.930 . S
C1408 C1403 1.261 . S
C1408 C1407 1.312 . S
C1409 O1381 1.214 . S
C1409 O1389 1.234 . S
C1410 H1382 0.929 . S
C1410 C1413 1.391 . S
C1410 C1415 1.391 . S
C1411 H1383 0.929 . S
C1411 C1412 1.390 . S
C1411 N1414 1.391 . S
C1412 H1384 0.930 . S
C1412 C1411 1.390 . S
C1412 C1413 1.392 . S
C1413 H1385 0.929 . S
C1413 C1410 1.391 . S
C1413 C1412 1.392 . S
N1414 Co1358 2.257 . S
N1414 C1411 1.391 . S
N1414 C1415 1.388 . S
C1415 H1386 0.930 . S
C1415 C1410 1.391 . S
C1415 N1414 1.388 . S
Co1416 O1418 2.143 . S
Co1416 O1424 2.074 . S
Co1416 O1427 2.093 . S
Co1416 O1440 2.097 . S
Co1416 N1457 2.151 . S
Co1416 N1465 2.214 . S
Co1417 O1418 2.160 . S
Co1417 O1423 2.058 . S
Co1417 O1433 2.057 . S
Co1417 O1448 2.037 . S
Co1417 N1452 2.145 . S
Co1417 N1473 2.257 . S
O1418 Co1416 2.143 . S
O1418 Co1417 2.160 . S
C1419 O1420 1.278 . S
C1419 O1427 1.224 . S
O1420 C1419 1.278 . S
C1421 O1422 1.245 . S
C1421 O1433 1.232 . S
O1422 C1421 1.245 . S
O1423 Co1417 2.058 . S
O1423 C1449 1.269 . S
O1424 Co1416 2.074 . S
O1424 C1449 1.257 . S
H1425 C1450 0.930 . S
H1426 C1456 0.930 . S
O1427 Co1416 2.093 . S
O1427 C1419 1.224 . S
H1428 C1460 0.929 . S
H1429 C1462 0.930 . S
H1430 C1463 0.930 . S
H1431 C1461 0.929 . S
H1432 C1464 0.928 . S
O1433 Co1417 2.057 . S
O1433 C1421 1.232 . S
H1434 C1453 0.929 . S
H1435 C1454 0.929 . S
H1436 C1466 0.931 . S
H1437 C1458 0.929 . S
H1438 C1467 0.930 . S
H1439 C1459 0.931 . S
O1440 Co1416 2.097 . S
O1440 C1468 1.214 . S
H1441 C1469 0.929 . S
H1442 C1470 0.929 . S
H1443 C1471 0.930 . S
H1444 C1472 0.929 . S
H1445 C1474 0.930 . S
H1446 C1451 0.930 . S
H1447 C1455 0.930 . S
O1448 Co1417 2.037 . S
O1448 C1468 1.234 . S
C1449 O1423 1.269 . S
C1449 O1424 1.257 . S
C1450 H1425 0.930 . S
C1450 C1453 1.388 . S
C1450 C1455 1.418 . S
C1451 H1446 0.930 . S
C1451 C1454 1.404 . S
C1451 C1455 1.353 . S
N1452 Co1417 2.145 . S
N1452 C1453 1.397 . S
N1452 C1454 1.334 . S
C1453 H1434 0.929 . S
C1453 C1450 1.388 . S
C1453 N1452 1.397 . S
C1454 H1435 0.929 . S
C1454 C1451 1.404 . S
C1454 N1452 1.334 . S
C1455 H1447 0.930 . S
C1455 C1450 1.418 . S
C1455 C1451 1.353 . S
C1456 H1426 0.930 . S
C1456 N1457 1.330 . S
C1456 C1458 1.446 . S
N1457 Co1416 2.151 . S
N1457 C1456 1.330 . S
N1457 C1461 1.418 . S
C1458 H1437 0.929 . S
C1458 C1456 1.446 . S
C1458 C1459 1.332 . S
C1459 H1439 0.931 . S
C1459 C1458 1.332 . S
C1459 C1460 1.267 . S
C1460 H1428 0.929 . S
C1460 C1459 1.267 . S
C1460 C1461 1.251 . S
C1461 H1431 0.929 . S
C1461 N1457 1.418 . S
C1461 C1460 1.251 . S
C1462 H1429 0.930 . S
C1462 C1464 1.406 . S
C1462 C1467 1.261 . S
C1463 H1430 0.930 . S
C1463 N1465 1.325 . S
C1463 C1466 1.357 . S
C1464 H1432 0.928 . S
C1464 C1462 1.406 . S
C1464 N1465 1.261 . S
N1465 Co1416 2.214 . S
N1465 C1463 1.325 . S
N1465 C1464 1.261 . S
C1466 H1436 0.931 . S
C1466 C1463 1.357 . S
C1466 C1467 1.312 . S
C1467 H1438 0.930 . S
C1467 C1462 1.261 . S
C1467 C1466 1.312 . S
C1468 O1440 1.214 . S
C1468 O1448 1.234 . S
C1469 H1441 0.929 . S
C1469 C1472 1.391 . S
C1469 C1474 1.391 . S
C1470 H1442 0.929 . S
C1470 C1471 1.390 . S
C1470 N1473 1.391 . S
C1471 H1443 0.930 . S
C1471 C1470 1.390 . S
C1471 C1472 1.392 . S
C1472 H1444 0.929 . S
C1472 C1469 1.391 . S
C1472 C1471 1.392 . S
N1473 Co1417 2.257 . S
N1473 C1470 1.391 . S
N1473 C1474 1.388 . S
C1474 H1445 0.930 . S
C1474 C1469 1.391 . S
C1474 N1473 1.388 . S
Co1475 O1477 2.143 . S
Co1475 O1483 2.074 . S
Co1475 O1486 2.093 1_556 S
Co1475 O1499 2.097 . S
Co1475 N1516 2.151 1_556 S
Co1475 N1524 2.214 . S
Co1476 O1477 2.160 . S
Co1476 O1482 2.058 . S
Co1476 O1492 2.057 . S
Co1476 O1507 2.037 . S
Co1476 N1511 2.145 . S
Co1476 N1532 2.257 . S
O1477 Co1475 2.143 . S
O1477 Co1476 2.160 . S
C1478 O1479 1.278 . S
C1478 O1486 1.224 . S
O1479 C1478 1.278 . S
C1480 O1481 1.245 . S
C1480 O1492 1.232 . S
O1481 C1480 1.245 . S
O1482 Co1476 2.058 . S
O1482 C1508 1.269 . S
O1483 Co1475 2.074 . S
O1483 C1508 1.257 . S
H1484 C1509 0.930 . S
H1485 C1515 0.930 . S
O1486 Co1475 2.093 1_554 S
O1486 C1478 1.224 . S
H1487 C1519 0.929 . S
H1488 C1521 0.930 . S
H1489 C1522 0.930 . S
H1490 C1520 0.929 1_556 S
H1491 C1523 0.928 . S
O1492 Co1476 2.057 . S
O1492 C1480 1.232 . S
H1493 C1512 0.929 . S
H1494 C1513 0.929 . S
H1495 C1525 0.931 . S
H1496 C1517 0.929 . S
H1497 C1526 0.930 . S
H1498 C1518 0.931 . S
O1499 Co1475 2.097 . S
O1499 C1527 1.214 . S
H1500 C1528 0.929 . S
H1501 C1529 0.929 . S
H1502 C1530 0.930 . S
H1503 C1531 0.929 . S
H1504 C1533 0.930 . S
H1505 C1510 0.930 . S
H1506 C1514 0.930 . S
O1507 Co1476 2.037 . S
O1507 C1527 1.234 . S
C1508 O1482 1.269 . S
C1508 O1483 1.257 . S
C1509 H1484 0.930 . S
C1509 C1512 1.388 . S
C1509 C1514 1.418 . S
C1510 H1505 0.930 . S
C1510 C1513 1.404 . S
C1510 C1514 1.353 . S
N1511 Co1476 2.145 . S
N1511 C1512 1.397 . S
N1511 C1513 1.334 . S
C1512 H1493 0.929 . S
C1512 C1509 1.388 . S
C1512 N1511 1.397 . S
C1513 H1494 0.929 . S
C1513 C1510 1.404 . S
C1513 N1511 1.334 . S
C1514 H1506 0.930 . S
C1514 C1509 1.418 . S
C1514 C1510 1.353 . S
C1515 H1485 0.930 . S
C1515 N1516 1.330 . S
C1515 C1517 1.446 . S
N1516 Co1475 2.151 1_554 S
N1516 C1515 1.330 . S
N1516 C1520 1.418 . S
C1517 H1496 0.929 . S
C1517 C1515 1.446 . S
C1517 C1518 1.332 . S
C1518 H1498 0.931 . S
C1518 C1517 1.332 . S
C1518 C1519 1.267 . S
C1519 H1487 0.929 . S
C1519 C1518 1.267 . S
C1519 C1520 1.251 . S
C1520 H1490 0.929 1_554 S
C1520 N1516 1.418 . S
C1520 C1519 1.251 . S
C1521 H1488 0.930 . S
C1521 C1523 1.406 . S
C1521 C1526 1.261 1_554 S
C1522 H1489 0.930 . S
C1522 N1524 1.325 . S
C1522 C1525 1.357 . S
C1523 H1491 0.928 . S
C1523 C1521 1.406 . S
C1523 N1524 1.261 1_554 S
N1524 Co1475 2.214 . S
N1524 C1522 1.325 . S
N1524 C1523 1.261 1_556 S
C1525 H1495 0.931 . S
C1525 C1522 1.357 . S
C1525 C1526 1.312 . S
C1526 H1497 0.930 . S
C1526 C1521 1.261 1_556 S
C1526 C1525 1.312 . S
C1527 O1499 1.214 . S
C1527 O1507 1.234 . S
C1528 H1500 0.929 . S
C1528 C1531 1.391 . S
C1528 C1533 1.391 . S
C1529 H1501 0.929 . S
C1529 C1530 1.390 . S
C1529 N1532 1.391 . S
C1530 H1502 0.930 . S
C1530 C1529 1.390 . S
C1530 C1531 1.392 . S
C1531 H1503 0.929 . S
C1531 C1528 1.391 . S
C1531 C1530 1.392 . S
N1532 Co1476 2.257 . S
N1532 C1529 1.391 . S
N1532 C1533 1.388 . S
C1533 H1504 0.930 . S
C1533 C1528 1.391 . S
C1533 N1532 1.388 . S
Co1534 O1536 2.143 . S
Co1534 O1542 2.074 . S
Co1534 O1545 2.093 . S
Co1534 O1558 2.097 . S
Co1534 N1575 2.151 . S
Co1534 N1583 2.214 . S
Co1535 O1536 2.160 . S
Co1535 O1541 2.058 . S
Co1535 O1551 2.057 . S
Co1535 O1566 2.037 . S
Co1535 N1570 2.145 . S
Co1535 N1591 2.257 . S
O1536 Co1534 2.143 . S
O1536 Co1535 2.160 . S
C1537 O1538 1.278 . S
C1537 O1545 1.224 . S
O1538 C1537 1.278 . S
C1539 O1540 1.245 . S
C1539 O1551 1.232 . S
O1540 C1539 1.245 . S
O1541 Co1535 2.058 . S
O1541 C1567 1.269 . S
O1542 Co1534 2.074 . S
O1542 C1567 1.257 . S
H1543 C1568 0.930 . S
H1544 C1574 0.930 . S
O1545 Co1534 2.093 . S
O1545 C1537 1.224 . S
H1546 C1578 0.929 . S
H1547 C1580 0.930 . S
H1548 C1581 0.930 . S
H1549 C1579 0.929 . S
H1550 C1582 0.928 . S
O1551 Co1535 2.057 . S
O1551 C1539 1.232 . S
H1552 C1571 0.929 . S
H1553 C1572 0.929 . S
H1554 C1584 0.931 . S
H1555 C1576 0.929 . S
H1556 C1585 0.930 . S
H1557 C1577 0.931 . S
O1558 Co1534 2.097 . S
O1558 C1586 1.214 . S
H1559 C1587 0.929 . S
H1560 C1588 0.929 . S
H1561 C1589 0.930 . S
H1562 C1590 0.929 . S
H1563 C1592 0.930 . S
H1564 C1569 0.930 . S
H1565 C1573 0.930 . S
O1566 Co1535 2.037 . S
O1566 C1586 1.234 . S
C1567 O1541 1.269 . S
C1567 O1542 1.257 . S
C1568 H1543 0.930 . S
C1568 C1571 1.388 . S
C1568 C1573 1.418 . S
C1569 H1564 0.930 . S
C1569 C1572 1.404 . S
C1569 C1573 1.353 . S
N1570 Co1535 2.145 . S
N1570 C1571 1.397 . S
N1570 C1572 1.334 . S
C1571 H1552 0.929 . S
C1571 C1568 1.388 . S
C1571 N1570 1.397 . S
C1572 H1553 0.929 . S
C1572 C1569 1.404 . S
C1572 N1570 1.334 . S
C1573 H1565 0.930 . S
C1573 C1568 1.418 . S
C1573 C1569 1.353 . S
C1574 H1544 0.930 . S
C1574 N1575 1.330 . S
C1574 C1576 1.446 . S
N1575 Co1534 2.151 . S
N1575 C1574 1.330 . S
N1575 C1579 1.418 1_455 S
C1576 H1555 0.929 . S
C1576 C1574 1.446 . S
C1576 C1577 1.332 1_455 S
C1577 H1557 0.931 . S
C1577 C1576 1.332 1_655 S
C1577 C1578 1.267 . S
C1578 H1546 0.929 . S
C1578 C1577 1.267 . S
C1578 C1579 1.251 . S
C1579 H1549 0.929 . S
C1579 N1575 1.418 1_655 S
C1579 C1578 1.251 . S
C1580 H1547 0.930 . S
C1580 C1582 1.406 . S
C1580 C1585 1.261 . S
C1581 H1548 0.930 . S
C1581 N1583 1.325 . S
C1581 C1584 1.357 . S
C1582 H1550 0.928 . S
C1582 C1580 1.406 . S
C1582 N1583 1.261 . S
N1583 Co1534 2.214 . S
N1583 C1581 1.325 . S
N1583 C1582 1.261 . S
C1584 H1554 0.931 . S
C1584 C1581 1.357 . S
C1584 C1585 1.312 . S
C1585 H1556 0.930 . S
C1585 C1580 1.261 . S
C1585 C1584 1.312 . S
C1586 O1558 1.214 . S
C1586 O1566 1.234 . S
C1587 H1559 0.929 . S
C1587 C1590 1.391 . S
C1587 C1592 1.391 . S
C1588 H1560 0.929 . S
C1588 C1589 1.390 . S
C1588 N1591 1.391 . S
C1589 H1561 0.930 . S
C1589 C1588 1.390 . S
C1589 C1590 1.392 . S
C1590 H1562 0.929 . S
C1590 C1587 1.391 . S
C1590 C1589 1.392 . S
N1591 Co1535 2.257 . S
N1591 C1588 1.391 . S
N1591 C1592 1.388 . S
C1592 H1563 0.930 . S
C1592 C1587 1.391 . S
C1592 N1591 1.388 . S
Co1593 O1595 2.143 . S
Co1593 O1601 2.074 . S
Co1593 O1604 2.093 . S
Co1593 O1617 2.097 . S
Co1593 N1634 2.151 . S
Co1593 N1642 2.214 . S
Co1594 O1595 2.160 . S
Co1594 O1600 2.058 . S
Co1594 O1610 2.057 . S
Co1594 O1625 2.037 . S
Co1594 N1629 2.145 . S
Co1594 N1650 2.257 . S
O1595 Co1593 2.143 . S
O1595 Co1594 2.160 . S
C1596 O1597 1.278 . S
C1596 O1604 1.224 . S
O1597 C1596 1.278 . S
C1598 O1599 1.245 . S
C1598 O1610 1.232 . S
O1599 C1598 1.245 . S
O1600 Co1594 2.058 . S
O1600 C1626 1.269 . S
O1601 Co1593 2.074 . S
O1601 C1626 1.257 . S
H1602 C1627 0.930 . S
H1603 C1633 0.930 . S
O1604 Co1593 2.093 . S
O1604 C1596 1.224 . S
H1605 C1637 0.929 . S
H1606 C1639 0.930 . S
H1607 C1640 0.930 . S
H1608 C1638 0.929 . S
H1609 C1641 0.928 . S
O1610 Co1594 2.057 . S
O1610 C1598 1.232 . S
H1611 C1630 0.929 . S
H1612 C1631 0.929 . S
H1613 C1643 0.931 . S
H1614 C1635 0.929 . S
H1615 C1644 0.930 . S
H1616 C1636 0.931 . S
O1617 Co1593 2.097 . S
O1617 C1645 1.214 . S
H1618 C1646 0.929 . S
H1619 C1647 0.929 . S
H1620 C1648 0.930 . S
H1621 C1649 0.929 . S
H1622 C1651 0.930 . S
H1623 C1628 0.930 . S
H1624 C1632 0.930 . S
O1625 Co1594 2.037 . S
O1625 C1645 1.234 . S
C1626 O1600 1.269 . S
C1626 O1601 1.257 . S
C1627 H1602 0.930 . S
C1627 C1630 1.388 . S
C1627 C1632 1.418 . S
C1628 H1623 0.930 . S
C1628 C1631 1.404 . S
C1628 C1632 1.353 . S
N1629 Co1594 2.145 . S
N1629 C1630 1.397 . S
N1629 C1631 1.334 . S
C1630 H1611 0.929 . S
C1630 C1627 1.388 . S
C1630 N1629 1.397 . S
C1631 H1612 0.929 . S
C1631 C1628 1.404 . S
C1631 N1629 1.334 . S
C1632 H1624 0.930 . S
C1632 C1627 1.418 . S
C1632 C1628 1.353 . S
C1633 H1603 0.930 . S
C1633 N1634 1.330 . S
C1633 C1635 1.446 . S
N1634 Co1593 2.151 . S
N1634 C1633 1.330 . S
N1634 C1638 1.418 . S
C1635 H1614 0.929 . S
C1635 C1633 1.446 . S
C1635 C1636 1.332 . S
C1636 H1616 0.931 . S
C1636 C1635 1.332 . S
C1636 C1637 1.267 . S
C1637 H1605 0.929 . S
C1637 C1636 1.267 . S
C1637 C1638 1.251 . S
C1638 H1608 0.929 . S
C1638 N1634 1.418 . S
C1638 C1637 1.251 . S
C1639 H1606 0.930 . S
C1639 C1641 1.406 . S
C1639 C1644 1.261 . S
C1640 H1607 0.930 . S
C1640 N1642 1.325 . S
C1640 C1643 1.357 . S
C1641 H1609 0.928 . S
C1641 C1639 1.406 . S
C1641 N1642 1.261 . S
N1642 Co1593 2.214 . S
N1642 C1640 1.325 . S
N1642 C1641 1.261 . S
C1643 H1613 0.931 . S
C1643 C1640 1.357 . S
C1643 C1644 1.312 . S
C1644 H1615 0.930 . S
C1644 C1639 1.261 . S
C1644 C1643 1.312 . S
C1645 O1617 1.214 . S
C1645 O1625 1.234 . S
C1646 H1618 0.929 . S
C1646 C1649 1.391 . S
C1646 C1651 1.391 . S
C1647 H1619 0.929 . S
C1647 C1648 1.390 . S
C1647 N1650 1.391 . S
C1648 H1620 0.930 . S
C1648 C1647 1.390 . S
C1648 C1649 1.392 . S
C1649 H1621 0.929 . S
C1649 C1646 1.391 . S
C1649 C1648 1.392 . S
N1650 Co1594 2.257 . S
N1650 C1647 1.391 . S
N1650 C1651 1.388 . S
C1651 H1622 0.930 . S
C1651 C1646 1.391 . S
C1651 N1650 1.388 . S
Co1652 O1654 2.143 . S
Co1652 O1660 2.074 . S
Co1652 O1663 2.093 . S
Co1652 O1676 2.097 . S
Co1652 N1693 2.151 . S
Co1652 N1701 2.214 . S
Co1653 O1654 2.160 . S
Co1653 O1659 2.058 . S
Co1653 O1669 2.057 . S
Co1653 O1684 2.037 . S
Co1653 N1688 2.145 . S
Co1653 N1709 2.257 . S
O1654 Co1652 2.143 . S
O1654 Co1653 2.160 . S
C1655 O1656 1.278 . S
C1655 O1663 1.224 . S
O1656 C1655 1.278 . S
C1657 O1658 1.245 . S
C1657 O1669 1.232 . S
O1658 C1657 1.245 . S
O1659 Co1653 2.058 . S
O1659 C1685 1.269 . S
O1660 Co1652 2.074 . S
O1660 C1685 1.257 . S
H1661 C1686 0.930 . S
H1662 C1692 0.930 . S
O1663 Co1652 2.093 . S
O1663 C1655 1.224 . S
H1664 C1696 0.929 . S
H1665 C1698 0.930 . S
H1666 C1699 0.930 . S
H1667 C1697 0.929 . S
H1668 C1700 0.928 . S
O1669 Co1653 2.057 . S
O1669 C1657 1.232 . S
H1670 C1689 0.929 . S
H1671 C1690 0.929 . S
H1672 C1702 0.931 . S
H1673 C1694 0.929 . S
H1674 C1703 0.930 . S
H1675 C1695 0.931 . S
O1676 Co1652 2.097 . S
O1676 C1704 1.214 . S
H1677 C1705 0.929 . S
H1678 C1706 0.929 . S
H1679 C1707 0.930 . S
H1680 C1708 0.929 . S
H1681 C1710 0.930 . S
H1682 C1687 0.930 . S
H1683 C1691 0.930 . S
O1684 Co1653 2.037 . S
O1684 C1704 1.234 . S
C1685 O1659 1.269 . S
C1685 O1660 1.257 . S
C1686 H1661 0.930 . S
C1686 C1689 1.388 . S
C1686 C1691 1.418 . S
C1687 H1682 0.930 . S
C1687 C1690 1.404 . S
C1687 C1691 1.353 . S
N1688 Co1653 2.145 . S
N1688 C1689 1.397 . S
N1688 C1690 1.334 . S
C1689 H1670 0.929 . S
C1689 C1686 1.388 . S
C1689 N1688 1.397 . S
C1690 H1671 0.929 . S
C1690 C1687 1.404 . S
C1690 N1688 1.334 . S
C1691 H1683 0.930 . S
C1691 C1686 1.418 . S
C1691 C1687 1.353 . S
C1692 H1662 0.930 . S
C1692 N1693 1.330 . S
C1692 C1694 1.446 . S
N1693 Co1652 2.151 . S
N1693 C1692 1.330 . S
N1693 C1697 1.418 . S
C1694 H1673 0.929 . S
C1694 C1692 1.446 . S
C1694 C1695 1.332 . S
C1695 H1675 0.931 . S
C1695 C1694 1.332 . S
C1695 C1696 1.267 . S
C1696 H1664 0.929 . S
C1696 C1695 1.267 . S
C1696 C1697 1.251 . S
C1697 H1667 0.929 . S
C1697 N1693 1.418 . S
C1697 C1696 1.251 . S
C1698 H1665 0.930 . S
C1698 C1700 1.406 . S
C1698 C1703 1.261 . S
C1699 H1666 0.930 . S
C1699 N1701 1.325 . S
C1699 C1702 1.357 . S
C1700 H1668 0.928 . S
C1700 C1698 1.406 . S
C1700 N1701 1.261 . S
N1701 Co1652 2.214 . S
N1701 C1699 1.325 . S
N1701 C1700 1.261 . S
C1702 H1672 0.931 . S
C1702 C1699 1.357 . S
C1702 C1703 1.312 . S
C1703 H1674 0.930 . S
C1703 C1698 1.261 . S
C1703 C1702 1.312 . S
C1704 O1676 1.214 . S
C1704 O1684 1.234 . S
C1705 H1677 0.929 . S
C1705 C1708 1.391 . S
C1705 C1710 1.391 . S
C1706 H1678 0.929 . S
C1706 C1707 1.390 . S
C1706 N1709 1.391 . S
C1707 H1679 0.930 . S
C1707 C1706 1.390 . S
C1707 C1708 1.392 . S
C1708 H1680 0.929 . S
C1708 C1705 1.391 . S
C1708 C1707 1.392 . S
N1709 Co1653 2.257 . S
N1709 C1706 1.391 . S
N1709 C1710 1.388 . S
C1710 H1681 0.930 . S
C1710 C1705 1.391 . S
C1710 N1709 1.388 . S
Co1711 O1713 2.143 . S
Co1711 O1719 2.074 . S
Co1711 O1722 2.093 1_554 S
Co1711 O1735 2.097 . S
Co1711 N1752 2.151 1_554 S
Co1711 N1760 2.214 . S
Co1712 O1713 2.160 . S
Co1712 O1718 2.058 . S
Co1712 O1728 2.057 . S
Co1712 O1743 2.037 . S
Co1712 N1747 2.145 . S
Co1712 N1768 2.257 . S
O1713 Co1711 2.143 . S
O1713 Co1712 2.160 . S
C1714 O1715 1.278 . S
C1714 O1722 1.224 . S
O1715 C1714 1.278 . S
C1716 O1717 1.245 . S
C1716 O1728 1.232 . S
O1717 C1716 1.245 . S
O1718 Co1712 2.058 . S
O1718 C1744 1.269 . S
O1719 Co1711 2.074 . S
O1719 C1744 1.257 . S
H1720 C1745 0.930 . S
H1721 C1751 0.930 . S
O1722 Co1711 2.093 1_556 S
O1722 C1714 1.224 . S
H1723 C1755 0.929 . S
H1724 C1757 0.930 . S
H1725 C1758 0.930 . S
H1726 C1756 0.929 1_554 S
H1727 C1759 0.928 . S
O1728 Co1712 2.057 . S
O1728 C1716 1.232 . S
H1729 C1748 0.929 . S
H1730 C1749 0.929 . S
H1731 C1761 0.931 . S
H1732 C1753 0.929 . S
H1733 C1762 0.930 . S
H1734 C1754 0.931 . S
O1735 Co1711 2.097 . S
O1735 C1763 1.214 . S
H1736 C1764 0.929 . S
H1737 C1765 0.929 . S
H1738 C1766 0.930 . S
H1739 C1767 0.929 . S
H1740 C1769 0.930 . S
H1741 C1746 0.930 . S
H1742 C1750 0.930 . S
O1743 Co1712 2.037 . S
O1743 C1763 1.234 . S
C1744 O1718 1.269 . S
C1744 O1719 1.257 . S
C1745 H1720 0.930 . S
C1745 C1748 1.388 . S
C1745 C1750 1.418 . S
C1746 H1741 0.930 . S
C1746 C1749 1.404 . S
C1746 C1750 1.353 . S
N1747 Co1712 2.145 . S
N1747 C1748 1.397 . S
N1747 C1749 1.334 . S
C1748 H1729 0.929 . S
C1748 C1745 1.388 . S
C1748 N1747 1.397 . S
C1749 H1730 0.929 . S
C1749 C1746 1.404 . S
C1749 N1747 1.334 . S
C1750 H1742 0.930 . S
C1750 C1745 1.418 . S
C1750 C1746 1.353 . S
C1751 H1721 0.930 . S
C1751 N1752 1.330 . S
C1751 C1753 1.446 . S
N1752 Co1711 2.151 1_556 S
N1752 C1751 1.330 . S
N1752 C1756 1.418 . S
C1753 H1732 0.929 . S
C1753 C1751 1.446 . S
C1753 C1754 1.332 . S
C1754 H1734 0.931 . S
C1754 C1753 1.332 . S
C1754 C1755 1.267 . S
C1755 H1723 0.929 . S
C1755 C1754 1.267 . S
C1755 C1756 1.251 . S
C1756 H1726 0.929 1_556 S
C1756 N1752 1.418 . S
C1756 C1755 1.251 . S
C1757 H1724 0.930 . S
C1757 C1759 1.406 . S
C1757 C1762 1.261 1_556 S
C1758 H1725 0.930 . S
C1758 N1760 1.325 . S
C1758 C1761 1.357 . S
C1759 H1727 0.928 . S
C1759 C1757 1.406 . S
C1759 N1760 1.261 1_556 S
N1760 Co1711 2.214 . S
N1760 C1758 1.325 . S
N1760 C1759 1.261 1_554 S
C1761 H1731 0.931 . S
C1761 C1758 1.357 . S
C1761 C1762 1.312 . S
C1762 H1733 0.930 . S
C1762 C1757 1.261 1_554 S
C1762 C1761 1.312 . S
C1763 O1735 1.214 . S
C1763 O1743 1.234 . S
C1764 H1736 0.929 . S
C1764 C1767 1.391 . S
C1764 C1769 1.391 . S
C1765 H1737 0.929 . S
C1765 C1766 1.390 . S
C1765 N1768 1.391 . S
C1766 H1738 0.930 . S
C1766 C1765 1.390 . S
C1766 C1767 1.392 . S
C1767 H1739 0.929 . S
C1767 C1764 1.391 . S
C1767 C1766 1.392 . S
N1768 Co1712 2.257 . S
N1768 C1765 1.391 . S
N1768 C1769 1.388 . S
C1769 H1740 0.930 . S
C1769 C1764 1.391 . S
C1769 N1768 1.388 . S
Co1770 O1772 2.143 . S
Co1770 O1778 2.074 . S
Co1770 O1781 2.093 . S
Co1770 O1794 2.097 . S
Co1770 N1811 2.151 . S
Co1770 N1819 2.214 . S
Co1771 O1772 2.160 . S
Co1771 O1777 2.058 . S
Co1771 O1787 2.057 . S
Co1771 O1802 2.037 . S
Co1771 N1806 2.145 . S
Co1771 N1827 2.257 . S
O1772 Co1770 2.143 . S
O1772 Co1771 2.160 . S
C1773 O1774 1.278 . S
C1773 O1781 1.224 . S
O1774 C1773 1.278 . S
C1775 O1776 1.245 . S
C1775 O1787 1.232 . S
O1776 C1775 1.245 . S
O1777 Co1771 2.058 . S
O1777 C1803 1.269 . S
O1778 Co1770 2.074 . S
O1778 C1803 1.257 . S
H1779 C1804 0.930 . S
H1780 C1810 0.930 . S
O1781 Co1770 2.093 . S
O1781 C1773 1.224 . S
H1782 C1814 0.929 . S
H1783 C1816 0.930 . S
H1784 C1817 0.930 . S
H1785 C1815 0.929 . S
H1786 C1818 0.928 . S
O1787 Co1771 2.057 . S
O1787 C1775 1.232 . S
H1788 C1807 0.929 . S
H1789 C1808 0.929 . S
H1790 C1820 0.931 . S
H1791 C1812 0.929 . S
H1792 C1821 0.930 . S
H1793 C1813 0.931 . S
O1794 Co1770 2.097 . S
O1794 C1822 1.214 . S
H1795 C1823 0.929 . S
H1796 C1824 0.929 . S
H1797 C1825 0.930 . S
H1798 C1826 0.929 . S
H1799 C1828 0.930 . S
H1800 C1805 0.930 . S
H1801 C1809 0.930 . S
O1802 Co1771 2.037 . S
O1802 C1822 1.234 . S
C1803 O1777 1.269 . S
C1803 O1778 1.257 . S
C1804 H1779 0.930 . S
C1804 C1807 1.388 . S
C1804 C1809 1.418 . S
C1805 H1800 0.930 . S
C1805 C1808 1.404 . S
C1805 C1809 1.353 . S
N1806 Co1771 2.145 . S
N1806 C1807 1.397 . S
N1806 C1808 1.334 . S
C1807 H1788 0.929 . S
C1807 C1804 1.388 . S
C1807 N1806 1.397 . S
C1808 H1789 0.929 . S
C1808 C1805 1.404 . S
C1808 N1806 1.334 . S
C1809 H1801 0.930 . S
C1809 C1804 1.418 . S
C1809 C1805 1.353 . S
C1810 H1780 0.930 . S
C1810 N1811 1.330 . S
C1810 C1812 1.446 . S
N1811 Co1770 2.151 . S
N1811 C1810 1.330 . S
N1811 C1815 1.418 1_455 S
C1812 H1791 0.929 . S
C1812 C1810 1.446 . S
C1812 C1813 1.332 1_455 S
C1813 H1793 0.931 . S
C1813 C1812 1.332 1_655 S
C1813 C1814 1.267 . S
C1814 H1782 0.929 . S
C1814 C1813 1.267 . S
C1814 C1815 1.251 . S
C1815 H1785 0.929 . S
C1815 N1811 1.418 1_655 S
C1815 C1814 1.251 . S
C1816 H1783 0.930 . S
C1816 C1818 1.406 . S
C1816 C1821 1.261 . S
C1817 H1784 0.930 . S
C1817 N1819 1.325 . S
C1817 C1820 1.357 . S
C1818 H1786 0.928 . S
C1818 C1816 1.406 . S
C1818 N1819 1.261 . S
N1819 Co1770 2.214 . S
N1819 C1817 1.325 . S
N1819 C1818 1.261 . S
C1820 H1790 0.931 . S
C1820 C1817 1.357 . S
C1820 C1821 1.312 . S
C1821 H1792 0.930 . S
C1821 C1816 1.261 . S
C1821 C1820 1.312 . S
C1822 O1794 1.214 . S
C1822 O1802 1.234 . S
C1823 H1795 0.929 . S
C1823 C1826 1.391 . S
C1823 C1828 1.391 . S
C1824 H1796 0.929 . S
C1824 C1825 1.390 . S
C1824 N1827 1.391 . S
C1825 H1797 0.930 . S
C1825 C1824 1.390 . S
C1825 C1826 1.392 . S
C1826 H1798 0.929 . S
C1826 C1823 1.391 . S
C1826 C1825 1.392 . S
N1827 Co1771 2.257 . S
N1827 C1824 1.391 . S
N1827 C1828 1.388 . S
C1828 H1799 0.930 . S
C1828 C1823 1.391 . S
C1828 N1827 1.388 . S
Co1829 O1831 2.143 . S
Co1829 O1837 2.074 . S
Co1829 O1840 2.093 . S
Co1829 O1853 2.097 . S
Co1829 N1870 2.151 . S
Co1829 N1878 2.214 . S
Co1830 O1831 2.160 . S
Co1830 O1836 2.058 . S
Co1830 O1846 2.057 . S
Co1830 O1861 2.037 . S
Co1830 N1865 2.145 . S
Co1830 N1886 2.257 . S
O1831 Co1829 2.143 . S
O1831 Co1830 2.160 . S
C1832 O1833 1.278 . S
C1832 O1840 1.224 . S
O1833 C1832 1.278 . S
C1834 O1835 1.245 . S
C1834 O1846 1.232 . S
O1835 C1834 1.245 . S
O1836 Co1830 2.058 . S
O1836 C1862 1.269 . S
O1837 Co1829 2.074 . S
O1837 C1862 1.257 . S
H1838 C1863 0.930 . S
H1839 C1869 0.930 . S
O1840 Co1829 2.093 . S
O1840 C1832 1.224 . S
H1841 C1873 0.929 . S
H1842 C1875 0.930 . S
H1843 C1876 0.930 . S
H1844 C1874 0.929 . S
H1845 C1877 0.928 . S
O1846 Co1830 2.057 . S
O1846 C1834 1.232 . S
H1847 C1866 0.929 . S
H1848 C1867 0.929 . S
H1849 C1879 0.931 . S
H1850 C1871 0.929 . S
H1851 C1880 0.930 . S
H1852 C1872 0.931 . S
O1853 Co1829 2.097 . S
O1853 C1881 1.214 . S
H1854 C1882 0.929 . S
H1855 C1883 0.929 . S
H1856 C1884 0.930 . S
H1857 C1885 0.929 . S
H1858 C1887 0.930 . S
H1859 C1864 0.930 . S
H1860 C1868 0.930 . S
O1861 Co1830 2.037 . S
O1861 C1881 1.234 . S
C1862 O1836 1.269 . S
C1862 O1837 1.257 . S
C1863 H1838 0.930 . S
C1863 C1866 1.388 . S
C1863 C1868 1.418 . S
C1864 H1859 0.930 . S
C1864 C1867 1.404 . S
C1864 C1868 1.353 . S
N1865 Co1830 2.145 . S
N1865 C1866 1.397 . S
N1865 C1867 1.334 . S
C1866 H1847 0.929 . S
C1866 C1863 1.388 . S
C1866 N1865 1.397 . S
C1867 H1848 0.929 . S
C1867 C1864 1.404 . S
C1867 N1865 1.334 . S
C1868 H1860 0.930 . S
C1868 C1863 1.418 . S
C1868 C1864 1.353 . S
C1869 H1839 0.930 . S
C1869 N1870 1.330 . S
C1869 C1871 1.446 . S
N1870 Co1829 2.151 . S
N1870 C1869 1.330 . S
N1870 C1874 1.418 . S
C1871 H1850 0.929 . S
C1871 C1869 1.446 . S
C1871 C1872 1.332 . S
C1872 H1852 0.931 . S
C1872 C1871 1.332 . S
C1872 C1873 1.267 . S
C1873 H1841 0.929 . S
C1873 C1872 1.267 . S
C1873 C1874 1.251 . S
C1874 H1844 0.929 . S
C1874 N1870 1.418 . S
C1874 C1873 1.251 . S
C1875 H1842 0.930 . S
C1875 C1877 1.406 . S
C1875 C1880 1.261 . S
C1876 H1843 0.930 . S
C1876 N1878 1.325 . S
C1876 C1879 1.357 . S
C1877 H1845 0.928 . S
C1877 C1875 1.406 . S
C1877 N1878 1.261 . S
N1878 Co1829 2.214 . S
N1878 C1876 1.325 . S
N1878 C1877 1.261 . S
C1879 H1849 0.931 . S
C1879 C1876 1.357 . S
C1879 C1880 1.312 . S
C1880 H1851 0.930 . S
C1880 C1875 1.261 . S
C1880 C1879 1.312 . S
C1881 O1853 1.214 . S
C1881 O1861 1.234 . S
C1882 H1854 0.929 . S
C1882 C1885 1.391 . S
C1882 C1887 1.391 . S
C1883 H1855 0.929 . S
C1883 C1884 1.390 . S
C1883 N1886 1.391 . S
C1884 H1856 0.930 . S
C1884 C1883 1.390 . S
C1884 C1885 1.392 . S
C1885 H1857 0.929 . S
C1885 C1882 1.391 . S
C1885 C1884 1.392 . S
N1886 Co1830 2.257 . S
N1886 C1883 1.391 . S
N1886 C1887 1.388 . S
C1887 H1858 0.930 . S
C1887 C1882 1.391 . S
C1887 N1886 1.388 . S
H1888 C1896 0.950 . S
H1889 C1901 0.950 . S
H1890 C1898 0.950 . S
H1891 C1900 0.950 . S
H1892 C1902 0.950 . S
H1893 C1904 0.950 . S
H1894 C1906 0.950 . S
H1895 C1907 0.950 . S
C1896 H1888 0.950 . S
C1896 C1897 1.386 . S
C1896 C1898 1.391 . S
C1897 C1896 1.386 . S
C1897 C1901 1.393 . S
C1898 H1890 0.950 . S
C1898 C1896 1.391 . S
C1898 C1899 1.400 . S
C1899 C1898 1.400 . S
C1899 C1900 1.398 . S
C1899 C1905 1.491 . S
C1900 H1891 0.950 . S
C1900 C1899 1.398 . S
C1900 C1901 1.391 . S
C1901 H1889 0.950 . S
C1901 C1897 1.393 . S
C1901 C1900 1.391 . S
C1902 H1892 0.950 . S
C1902 C1903 1.386 . S
C1902 C1904 1.391 . S
C1903 C1902 1.386 . S
C1903 C1907 1.393 . S
C1904 H1893 0.950 . S
C1904 C1902 1.391 . S
C1904 C1905 1.400 . S
C1905 C1899 1.491 . S
C1905 C1904 1.400 . S
C1905 C1906 1.398 . S
C1906 H1894 0.950 . S
C1906 C1905 1.398 . S
C1906 C1907 1.391 . S
C1907 H1895 0.950 . S
C1907 C1903 1.393 . S
C1907 C1906 1.391 . S
H1908 C1916 0.950 . S
H1909 C1921 0.950 . S
H1910 C1918 0.950 . S
H1911 C1920 0.950 . S
H1912 C1922 0.950 . S
H1913 C1924 0.950 . S
H1914 C1926 0.950 . S
H1915 C1927 0.950 . S
C1916 H1908 0.950 . S
C1916 C1917 1.386 . S
C1916 C1918 1.391 . S
C1917 C1916 1.386 . S
C1917 C1921 1.393 . S
C1918 H1910 0.950 . S
C1918 C1916 1.391 . S
C1918 C1919 1.400 . S
C1919 C1918 1.400 . S
C1919 C1920 1.398 . S
C1919 C1925 1.491 . S
C1920 H1911 0.950 . S
C1920 C1919 1.398 . S
C1920 C1921 1.391 . S
C1921 H1909 0.950 . S
C1921 C1917 1.393 . S
C1921 C1920 1.391 . S
C1922 H1912 0.950 . S
C1922 C1923 1.386 . S
C1922 C1924 1.391 . S
C1923 C1922 1.386 . S
C1923 C1927 1.393 . S
C1924 H1913 0.950 . S
C1924 C1922 1.391 . S
C1924 C1925 1.400 . S
C1925 C1919 1.491 . S
C1925 C1924 1.400 . S
C1925 C1926 1.398 . S
C1926 H1914 0.950 . S
C1926 C1925 1.398 . S
C1926 C1927 1.391 . S
C1927 H1915 0.950 . S
C1927 C1923 1.393 . S
C1927 C1926 1.391 . S
H1928 C1936 0.950 . S
H1929 C1941 0.950 . S
H1930 C1938 0.950 . S
H1931 C1940 0.950 . S
H1932 C1942 0.950 . S
H1933 C1944 0.950 . S
H1934 C1946 0.950 . S
H1935 C1947 0.950 . S
C1936 H1928 0.950 . S
C1936 C1937 1.386 . S
C1936 C1938 1.391 . S
C1937 C1936 1.386 . S
C1937 C1941 1.393 . S
C1938 H1930 0.950 . S
C1938 C1936 1.391 . S
C1938 C1939 1.400 . S
C1939 C1938 1.400 . S
C1939 C1940 1.398 . S
C1939 C1945 1.491 . S
C1940 H1931 0.950 . S
C1940 C1939 1.398 . S
C1940 C1941 1.391 . S
C1941 H1929 0.950 . S
C1941 C1937 1.393 . S
C1941 C1940 1.391 . S
C1942 H1932 0.950 . S
C1942 C1943 1.386 . S
C1942 C1944 1.391 . S
C1943 C1942 1.386 . S
C1943 C1947 1.393 . S
C1944 H1933 0.950 . S
C1944 C1942 1.391 . S
C1944 C1945 1.400 . S
C1945 C1939 1.491 . S
C1945 C1944 1.400 . S
C1945 C1946 1.398 . S
C1946 H1934 0.950 . S
C1946 C1945 1.398 . S
C1946 C1947 1.391 . S
C1947 H1935 0.950 . S
C1947 C1943 1.393 . S
C1947 C1946 1.391 . S
H1948 C1956 0.950 . S
H1949 C1961 0.950 . S
H1950 C1958 0.950 . S
H1951 C1960 0.950 . S
H1952 C1962 0.950 . S
H1953 C1964 0.950 . S
H1954 C1966 0.950 . S
H1955 C1967 0.950 . S
C1956 H1948 0.950 . S
C1956 C1957 1.386 . S
C1956 C1958 1.391 . S
C1957 C1956 1.386 . S
C1957 C1961 1.393 . S
C1958 H1950 0.950 . S
C1958 C1956 1.391 . S
C1958 C1959 1.400 . S
C1959 C1958 1.400 . S
C1959 C1960 1.398 . S
C1959 C1965 1.491 . S
C1960 H1951 0.950 . S
C1960 C1959 1.398 . S
C1960 C1961 1.391 . S
C1961 H1949 0.950 . S
C1961 C1957 1.393 . S
C1961 C1960 1.391 . S
C1962 H1952 0.950 . S
C1962 C1963 1.386 . S
C1962 C1964 1.391 . S
C1963 C1962 1.386 . S
C1963 C1967 1.393 . S
C1964 H1953 0.950 . S
C1964 C1962 1.391 . S
C1964 C1965 1.400 . S
C1965 C1959 1.491 . S
C1965 C1964 1.400 . S
C1965 C1966 1.398 . S
C1966 H1954 0.950 . S
C1966 C1965 1.398 . S
C1966 C1967 1.391 . S
C1967 H1955 0.950 . S
C1967 C1963 1.393 . S
C1967 C1966 1.391 . S
H1968 C1976 0.950 . S
H1969 C1981 0.950 . S
H1970 C1978 0.950 . S
H1971 C1980 0.950 . S
H1972 C1982 0.950 . S
H1973 C1984 0.950 . S
H1974 C1986 0.950 . S
H1975 C1987 0.950 . S
C1976 H1968 0.950 . S
C1976 C1977 1.386 . S
C1976 C1978 1.391 . S
C1977 C1976 1.386 . S
C1977 C1981 1.393 . S
C1978 H1970 0.950 . S
C1978 C1976 1.391 . S
C1978 C1979 1.400 . S
C1979 C1978 1.400 . S
C1979 C1980 1.398 . S
C1979 C1985 1.491 . S
C1980 H1971 0.950 . S
C1980 C1979 1.398 . S
C1980 C1981 1.391 . S
C1981 H1969 0.950 . S
C1981 C1977 1.393 . S
C1981 C1980 1.391 . S
C1982 H1972 0.950 . S
C1982 C1983 1.386 . S
C1982 C1984 1.391 . S
C1983 C1982 1.386 . S
C1983 C1987 1.393 . S
C1984 H1973 0.950 . S
C1984 C1982 1.391 . S
C1984 C1985 1.400 . S
C1985 C1979 1.491 . S
C1985 C1984 1.400 . S
C1985 C1986 1.398 . S
C1986 H1974 0.950 . S
C1986 C1985 1.398 . S
C1986 C1987 1.391 . S
C1987 H1975 0.950 . S
C1987 C1983 1.393 . S
C1987 C1986 1.391 . S
H1988 C1996 0.950 . S
H1989 C2001 0.950 . S
H1990 C1998 0.950 . S
H1991 C2000 0.950 . S
H1992 C2002 0.950 . S
H1993 C2004 0.950 . S
H1994 C2006 0.950 . S
H1995 C2007 0.950 . S
C1996 H1988 0.950 . S
C1996 C1997 1.386 . S
C1996 C1998 1.391 . S
C1997 C1996 1.386 . S
C1997 C2001 1.393 . S
C1998 H1990 0.950 . S
C1998 C1996 1.391 . S
C1998 C1999 1.400 . S
C1999 C1998 1.400 . S
C1999 C2000 1.398 . S
C1999 C2005 1.491 . S
C2000 H1991 0.950 . S
C2000 C1999 1.398 . S
C2000 C2001 1.391 . S
C2001 H1989 0.950 . S
C2001 C1997 1.393 . S
C2001 C2000 1.391 . S
C2002 H1992 0.950 . S
C2002 C2003 1.386 . S
C2002 C2004 1.391 . S
C2003 C2002 1.386 . S
C2003 C2007 1.393 . S
C2004 H1993 0.950 . S
C2004 C2002 1.391 . S
C2004 C2005 1.400 . S
C2005 C1999 1.491 . S
C2005 C2004 1.400 . S
C2005 C2006 1.398 . S
C2006 H1994 0.950 . S
C2006 C2005 1.398 . S
C2006 C2007 1.391 . S
C2007 H1995 0.950 . S
C2007 C2003 1.393 . S
C2007 C2006 1.391 . S
H2008 C2016 0.950 . S
H2009 C2021 0.950 . S
H2010 C2018 0.950 . S
H2011 C2020 0.950 . S
H2012 C2022 0.950 . S
H2013 C2024 0.950 . S
H2014 C2026 0.950 . S
H2015 C2027 0.950 . S
C2016 H2008 0.950 . S
C2016 C2017 1.386 . S
C2016 C2018 1.391 . S
C2017 C2016 1.386 . S
C2017 C2021 1.393 . S
C2018 H2010 0.950 . S
C2018 C2016 1.391 . S
C2018 C2019 1.400 . S
C2019 C2018 1.400 . S
C2019 C2020 1.398 . S
C2019 C2025 1.491 . S
C2020 H2011 0.950 . S
C2020 C2019 1.398 . S
C2020 C2021 1.391 . S
C2021 H2009 0.950 . S
C2021 C2017 1.393 . S
C2021 C2020 1.391 . S
C2022 H2012 0.950 . S
C2022 C2023 1.386 . S
C2022 C2024 1.391 . S
C2023 C2022 1.386 . S
C2023 C2027 1.393 . S
C2024 H2013 0.950 . S
C2024 C2022 1.391 . S
C2024 C2025 1.400 . S
C2025 C2019 1.491 . S
C2025 C2024 1.400 . S
C2025 C2026 1.398 . S
C2026 H2014 0.950 . S
C2026 C2025 1.398 . S
C2026 C2027 1.391 . S
C2027 H2015 0.950 . S
C2027 C2023 1.393 . S
C2027 C2026 1.391 . S
H2028 C2036 0.950 . S
H2029 C2041 0.950 . S
H2030 C2038 0.950 . S
H2031 C2040 0.950 . S
H2032 C2042 0.950 . S
H2033 C2044 0.950 . S
H2034 C2046 0.950 . S
H2035 C2047 0.950 . S
C2036 H2028 0.950 . S
C2036 C2037 1.386 . S
C2036 C2038 1.391 . S
C2037 C2036 1.386 . S
C2037 C2041 1.393 . S
C2038 H2030 0.950 . S
C2038 C2036 1.391 . S
C2038 C2039 1.400 . S
C2039 C2038 1.400 . S
C2039 C2040 1.398 . S
C2039 C2045 1.491 . S
C2040 H2031 0.950 . S
C2040 C2039 1.398 . S
C2040 C2041 1.391 . S
C2041 H2029 0.950 . S
C2041 C2037 1.393 . S
C2041 C2040 1.391 . S
C2042 H2032 0.950 . S
C2042 C2043 1.386 . S
C2042 C2044 1.391 . S
C2043 C2042 1.386 . S
C2043 C2047 1.393 . S
C2044 H2033 0.950 . S
C2044 C2042 1.391 . S
C2044 C2045 1.400 . S
C2045 C2039 1.491 . S
C2045 C2044 1.400 . S
C2045 C2046 1.398 . S
C2046 H2034 0.950 . S
C2046 C2045 1.398 . S
C2046 C2047 1.391 . S
C2047 H2035 0.950 . S
C2047 C2043 1.393 . S
C2047 C2046 1.391 . S
H2048 C2056 0.950 . S
H2049 C2061 0.950 . S
H2050 C2058 0.950 . S
H2051 C2060 0.950 . S
H2052 C2062 0.950 . S
H2053 C2064 0.950 . S
H2054 C2066 0.950 . S
H2055 C2067 0.950 . S
C2056 H2048 0.950 . S
C2056 C2057 1.386 . S
C2056 C2058 1.391 . S
C2057 C2056 1.386 . S
C2057 C2061 1.393 . S
C2058 H2050 0.950 . S
C2058 C2056 1.391 . S
C2058 C2059 1.400 . S
C2059 C2058 1.400 . S
C2059 C2060 1.398 . S
C2059 C2065 1.491 . S
C2060 H2051 0.950 . S
C2060 C2059 1.398 . S
C2060 C2061 1.391 . S
C2061 H2049 0.950 . S
C2061 C2057 1.393 . S
C2061 C2060 1.391 . S
C2062 H2052 0.950 . S
C2062 C2063 1.386 . S
C2062 C2064 1.391 . S
C2063 C2062 1.386 . S
C2063 C2067 1.393 . S
C2064 H2053 0.950 . S
C2064 C2062 1.391 . S
C2064 C2065 1.400 . S
C2065 C2059 1.491 . S
C2065 C2064 1.400 . S
C2065 C2066 1.398 . S
C2066 H2054 0.950 . S
C2066 C2065 1.398 . S
C2066 C2067 1.391 . S
C2067 H2055 0.950 . S
C2067 C2063 1.393 . S
C2067 C2066 1.391 . S
H2068 C2076 0.950 . S
H2069 C2081 0.950 . S
H2070 C2078 0.950 . S
H2071 C2080 0.950 . S
H2072 C2082 0.950 . S
H2073 C2084 0.950 . S
H2074 C2086 0.950 . S
H2075 C2087 0.950 . S
C2076 H2068 0.950 . S
C2076 C2077 1.386 . S
C2076 C2078 1.391 . S
C2077 C2076 1.386 . S
C2077 C2081 1.393 . S
C2078 H2070 0.950 . S
C2078 C2076 1.391 . S
C2078 C2079 1.400 . S
C2079 C2078 1.400 . S
C2079 C2080 1.398 . S
C2079 C2085 1.491 . S
C2080 H2071 0.950 . S
C2080 C2079 1.398 . S
C2080 C2081 1.391 . S
C2081 H2069 0.950 . S
C2081 C2077 1.393 . S
C2081 C2080 1.391 . S
C2082 H2072 0.950 . S
C2082 C2083 1.386 . S
C2082 C2084 1.391 . S
C2083 C2082 1.386 . S
C2083 C2087 1.393 . S
C2084 H2073 0.950 . S
C2084 C2082 1.391 . S
C2084 C2085 1.400 . S
C2085 C2079 1.491 . S
C2085 C2084 1.400 . S
C2085 C2086 1.398 . S
C2086 H2074 0.950 . S
C2086 C2085 1.398 . S
C2086 C2087 1.391 . S
C2087 H2075 0.950 . S
C2087 C2083 1.393 . S
C2087 C2086 1.391 . S
H2088 C2096 0.950 . S
H2089 C2101 0.950 . S
H2090 C2098 0.950 . S
H2091 C2100 0.950 . S
H2092 C2102 0.950 . S
H2093 C2104 0.950 . S
H2094 C2106 0.950 . S
H2095 C2107 0.950 . S
C2096 H2088 0.950 . S
C2096 C2097 1.386 . S
C2096 C2098 1.391 . S
C2097 C2096 1.386 . S
C2097 C2101 1.393 . S
C2098 H2090 0.950 . S
C2098 C2096 1.391 . S
C2098 C2099 1.400 . S
C2099 C2098 1.400 . S
C2099 C2100 1.398 . S
C2099 C2105 1.491 . S
C2100 H2091 0.950 . S
C2100 C2099 1.398 . S
C2100 C2101 1.391 . S
C2101 H2089 0.950 . S
C2101 C2097 1.393 . S
C2101 C2100 1.391 . S
C2102 H2092 0.950 . S
C2102 C2103 1.386 . S
C2102 C2104 1.391 . S
C2103 C2102 1.386 . S
C2103 C2107 1.393 . S
C2104 H2093 0.950 . S
C2104 C2102 1.391 . S
C2104 C2105 1.400 . S
C2105 C2099 1.491 . S
C2105 C2104 1.400 . S
C2105 C2106 1.398 . S
C2106 H2094 0.950 . S
C2106 C2105 1.398 . S
C2106 C2107 1.391 . S
C2107 H2095 0.950 . S
C2107 C2103 1.393 . S
C2107 C2106 1.391 . S
H2108 C2116 0.950 . S
H2109 C2121 0.950 . S
H2110 C2118 0.950 . S
H2111 C2120 0.950 . S
H2112 C2122 0.950 . S
H2113 C2124 0.950 . S
H2114 C2126 0.950 . S
H2115 C2127 0.950 . S
C2116 H2108 0.950 . S
C2116 C2117 1.386 . S
C2116 C2118 1.391 . S
C2117 C2116 1.386 . S
C2117 C2121 1.393 . S
C2118 H2110 0.950 . S
C2118 C2116 1.391 . S
C2118 C2119 1.400 . S
C2119 C2118 1.400 . S
C2119 C2120 1.398 . S
C2119 C2125 1.491 . S
C2120 H2111 0.950 . S
C2120 C2119 1.398 . S
C2120 C2121 1.391 . S
C2121 H2109 0.950 . S
C2121 C2117 1.393 . S
C2121 C2120 1.391 . S
C2122 H2112 0.950 . S
C2122 C2123 1.386 . S
C2122 C2124 1.391 . S
C2123 C2122 1.386 . S
C2123 C2127 1.393 . S
C2124 H2113 0.950 . S
C2124 C2122 1.391 . S
C2124 C2125 1.400 . S
C2125 C2119 1.491 . S
C2125 C2124 1.400 . S
C2125 C2126 1.398 . S
C2126 H2114 0.950 . S
C2126 C2125 1.398 . S
C2126 C2127 1.391 . S
C2127 H2115 0.950 . S
C2127 C2123 1.393 . S
C2127 C2126 1.391 . S
H2128 C2136 0.950 . S
H2129 C2141 0.950 . S
H2130 C2138 0.950 . S
H2131 C2140 0.950 . S
H2132 C2142 0.950 . S
H2133 C2144 0.950 . S
H2134 C2146 0.950 . S
H2135 C2147 0.950 . S
C2136 H2128 0.950 . S
C2136 C2137 1.386 . S
C2136 C2138 1.391 . S
C2137 C2136 1.386 . S
C2137 C2141 1.393 . S
C2138 H2130 0.950 . S
C2138 C2136 1.391 . S
C2138 C2139 1.400 . S
C2139 C2138 1.400 . S
C2139 C2140 1.398 . S
C2139 C2145 1.491 . S
C2140 H2131 0.950 . S
C2140 C2139 1.398 . S
C2140 C2141 1.391 . S
C2141 H2129 0.950 . S
C2141 C2137 1.393 . S
C2141 C2140 1.391 . S
C2142 H2132 0.950 . S
C2142 C2143 1.386 . S
C2142 C2144 1.391 . S
C2143 C2142 1.386 . S
C2143 C2147 1.393 . S
C2144 H2133 0.950 . S
C2144 C2142 1.391 . S
C2144 C2145 1.400 . S
C2145 C2139 1.491 . S
C2145 C2144 1.400 . S
C2145 C2146 1.398 . S
C2146 H2134 0.950 . S
C2146 C2145 1.398 . S
C2146 C2147 1.391 . S
C2147 H2135 0.950 . S
C2147 C2143 1.393 . S
C2147 C2146 1.391 . S
H2148 C2156 0.950 . S
H2149 C2161 0.950 . S
H2150 C2158 0.950 . S
H2151 C2160 0.950 . S
H2152 C2162 0.950 . S
H2153 C2164 0.950 . S
H2154 C2166 0.950 . S
H2155 C2167 0.950 . S
C2156 H2148 0.950 . S
C2156 C2157 1.386 . S
C2156 C2158 1.391 . S
C2157 C2156 1.386 . S
C2157 C2161 1.393 . S
C2158 H2150 0.950 . S
C2158 C2156 1.391 . S
C2158 C2159 1.400 . S
C2159 C2158 1.400 . S
C2159 C2160 1.398 . S
C2159 C2165 1.491 . S
C2160 H2151 0.950 . S
C2160 C2159 1.398 . S
C2160 C2161 1.391 . S
C2161 H2149 0.950 . S
C2161 C2157 1.393 . S
C2161 C2160 1.391 . S
C2162 H2152 0.950 . S
C2162 C2163 1.386 . S
C2162 C2164 1.391 . S
C2163 C2162 1.386 . S
C2163 C2167 1.393 . S
C2164 H2153 0.950 . S
C2164 C2162 1.391 . S
C2164 C2165 1.400 . S
C2165 C2159 1.491 . S
C2165 C2164 1.400 . S
C2165 C2166 1.398 . S
C2166 H2154 0.950 . S
C2166 C2165 1.398 . S
C2166 C2167 1.391 . S
C2167 H2155 0.950 . S
C2167 C2163 1.393 . S
C2167 C2166 1.391 . S
H2168 C2176 0.950 . S
H2169 C2181 0.950 . S
H2170 C2178 0.950 . S
H2171 C2180 0.950 . S
H2172 C2182 0.950 . S
H2173 C2184 0.950 . S
H2174 C2186 0.950 . S
H2175 C2187 0.950 . S
C2176 H2168 0.950 . S
C2176 C2177 1.386 . S
C2176 C2178 1.391 . S
C2177 C2176 1.386 . S
C2177 C2181 1.393 . S
C2178 H2170 0.950 . S
C2178 C2176 1.391 . S
C2178 C2179 1.400 . S
C2179 C2178 1.400 . S
C2179 C2180 1.398 . S
C2179 C2185 1.491 . S
C2180 H2171 0.950 . S
C2180 C2179 1.398 . S
C2180 C2181 1.391 . S
C2181 H2169 0.950 . S
C2181 C2177 1.393 . S
C2181 C2180 1.391 . S
C2182 H2172 0.950 . S
C2182 C2183 1.386 . S
C2182 C2184 1.391 . S
C2183 C2182 1.386 . S
C2183 C2187 1.393 . S
C2184 H2173 0.950 . S
C2184 C2182 1.391 . S
C2184 C2185 1.400 . S
C2185 C2179 1.491 . S
C2185 C2184 1.400 . S
C2185 C2186 1.398 . S
C2186 H2174 0.950 . S
C2186 C2185 1.398 . S
C2186 C2187 1.391 . S
C2187 H2175 0.950 . S
C2187 C2183 1.393 . S
C2187 C2186 1.391 . S
H2188 C2196 0.950 . S
H2189 C2201 0.950 . S
H2190 C2198 0.950 . S
H2191 C2200 0.950 . S
H2192 C2202 0.950 . S
H2193 C2204 0.950 . S
H2194 C2206 0.950 . S
H2195 C2207 0.950 . S
C2196 H2188 0.950 . S
C2196 C2197 1.386 . S
C2196 C2198 1.391 . S
C2197 C2196 1.386 . S
C2197 C2201 1.393 . S
C2198 H2190 0.950 . S
C2198 C2196 1.391 . S
C2198 C2199 1.400 . S
C2199 C2198 1.400 . S
C2199 C2200 1.398 . S
C2199 C2205 1.491 . S
C2200 H2191 0.950 . S
C2200 C2199 1.398 . S
C2200 C2201 1.391 . S
C2201 H2189 0.950 . S
C2201 C2197 1.393 . S
C2201 C2200 1.391 . S
C2202 H2192 0.950 . S
C2202 C2203 1.386 . S
C2202 C2204 1.391 . S
C2203 C2202 1.386 . S
C2203 C2207 1.393 . S
C2204 H2193 0.950 . S
C2204 C2202 1.391 . S
C2204 C2205 1.400 . S
C2205 C2199 1.491 . S
C2205 C2204 1.400 . S
C2205 C2206 1.398 . S
C2206 H2194 0.950 . S
C2206 C2205 1.398 . S
C2206 C2207 1.391 . S
C2207 H2195 0.950 . S
C2207 C2203 1.393 . S
C2207 C2206 1.391 . S
H2208 C2216 0.950 . S
H2209 C2221 0.950 . S
H2210 C2218 0.950 . S
H2211 C2220 0.950 . S
H2212 C2222 0.950 . S
H2213 C2224 0.950 . S
H2214 C2226 0.950 . S
H2215 C2227 0.950 . S
C2216 H2208 0.950 . S
C2216 C2217 1.386 . S
C2216 C2218 1.391 . S
C2217 C2216 1.386 . S
C2217 C2221 1.393 . S
C2218 H2210 0.950 . S
C2218 C2216 1.391 . S
C2218 C2219 1.400 . S
C2219 C2218 1.400 . S
C2219 C2220 1.398 . S
C2219 C2225 1.491 . S
C2220 H2211 0.950 . S
C2220 C2219 1.398 . S
C2220 C2221 1.391 . S
C2221 H2209 0.950 . S
C2221 C2217 1.393 . S
C2221 C2220 1.391 . S
C2222 H2212 0.950 . S
C2222 C2223 1.386 . S
C2222 C2224 1.391 . S
C2223 C2222 1.386 . S
C2223 C2227 1.393 . S
C2224 H2213 0.950 . S
C2224 C2222 1.391 . S
C2224 C2225 1.400 . S
C2225 C2219 1.491 . S
C2225 C2224 1.400 . S
C2225 C2226 1.398 . S
C2226 H2214 0.950 . S
C2226 C2225 1.398 . S
C2226 C2227 1.391 . S
C2227 H2215 0.950 . S
C2227 C2223 1.393 . S
C2227 C2226 1.391 . S
H2228 C2236 0.950 . S
H2229 C2241 0.950 . S
H2230 C2238 0.950 . S
H2231 C2240 0.950 . S
H2232 C2242 0.950 . S
H2233 C2244 0.950 . S
H2234 C2246 0.950 . S
H2235 C2247 0.989 . S
C2236 H2228 0.950 . S
C2236 C2237 1.386 . S
C2236 C2238 1.391 . S
C2237 C2236 1.386 . S
C2237 C2241 1.393 . S
C2238 H2230 0.950 . S
C2238 C2236 1.391 . S
C2238 C2239 1.400 . S
C2239 C2238 1.400 . S
C2239 C2240 1.398 . S
C2239 C2245 1.491 . S
C2240 H2231 0.950 . S
C2240 C2239 1.398 . S
C2240 C2241 1.391 . S
C2241 H2229 0.950 . S
C2241 C2237 1.393 . S
C2241 C2240 1.391 . S
C2242 H2232 0.950 . S
C2242 C2243 1.386 1_655 S
C2242 C2244 1.391 . S
C2243 C2242 1.386 1_455 S
C2243 C2247 1.399 . S
C2244 H2233 0.950 . S
C2244 C2242 1.391 . S
C2244 C2245 1.400 . S
C2245 C2239 1.491 . S
C2245 C2244 1.400 . S
C2245 C2246 1.398 . S
C2246 H2234 0.950 . S
C2246 C2245 1.398 . S
C2246 C2247 1.348 1_655 S
C2247 H2235 0.989 . S
C2247 C2243 1.399 . S
C2247 C2246 1.348 1_455 S
H2248 C2256 0.950 . S
H2249 C2261 0.950 . S
H2250 C2258 0.950 . S
H2251 C2260 0.950 . S
H2252 C2262 0.950 . S
H2253 C2264 0.950 . S
H2254 C2266 0.950 . S
H2255 C2267 0.950 . S
C2256 H2248 0.950 . S
C2256 C2257 1.386 . S
C2256 C2258 1.391 . S
C2257 C2256 1.386 . S
C2257 C2261 1.393 . S
C2258 H2250 0.950 . S
C2258 C2256 1.391 . S
C2258 C2259 1.400 . S
C2259 C2258 1.400 . S
C2259 C2260 1.398 . S
C2259 C2265 1.491 . S
C2260 H2251 0.950 . S
C2260 C2259 1.398 . S
C2260 C2261 1.391 . S
C2261 H2249 0.950 . S
C2261 C2257 1.393 . S
C2261 C2260 1.391 . S
C2262 H2252 0.950 . S
C2262 C2263 1.386 . S
C2262 C2264 1.391 . S
C2263 C2262 1.386 . S
C2263 C2267 1.393 . S
C2264 H2253 0.950 . S
C2264 C2262 1.391 . S
C2264 C2265 1.400 . S
C2265 C2259 1.491 . S
C2265 C2264 1.400 . S
C2265 C2266 1.398 . S
C2266 H2254 0.950 . S
C2266 C2265 1.398 . S
C2266 C2267 1.391 . S
C2267 H2255 0.950 . S
C2267 C2263 1.393 . S
C2267 C2266 1.391 . S
H2268 C2276 0.950 . S
H2269 C2281 0.950 . S
H2270 C2278 0.950 . S
H2271 C2280 0.950 . S
H2272 C2282 0.950 . S
H2273 C2284 0.950 . S
H2274 C2286 0.950 . S
H2275 C2287 0.950 . S
C2276 H2268 0.950 . S
C2276 C2277 1.386 . S
C2276 C2278 1.391 . S
C2277 C2276 1.386 . S
C2277 C2281 1.393 . S
C2278 H2270 0.950 . S
C2278 C2276 1.391 . S
C2278 C2279 1.400 . S
C2279 C2278 1.400 . S
C2279 C2280 1.398 . S
C2279 C2285 1.491 . S
C2280 H2271 0.950 . S
C2280 C2279 1.398 . S
C2280 C2281 1.391 . S
C2281 H2269 0.950 . S
C2281 C2277 1.393 . S
C2281 C2280 1.391 . S
C2282 H2272 0.950 . S
C2282 C2283 1.386 . S
C2282 C2284 1.391 . S
C2283 C2282 1.386 . S
C2283 C2287 1.393 . S
C2284 H2273 0.950 . S
C2284 C2282 1.391 . S
C2284 C2285 1.400 . S
C2285 C2279 1.491 . S
C2285 C2284 1.400 . S
C2285 C2286 1.398 . S
C2286 H2274 0.950 . S
C2286 C2285 1.398 . S
C2286 C2287 1.391 . S
C2287 H2275 0.950 . S
C2287 C2283 1.393 . S
C2287 C2286 1.391 . S
H2288 C2296 0.950 . S
H2289 C2301 0.950 . S
H2290 C2298 0.950 . S
H2291 C2300 0.950 . S
H2292 C2302 0.950 . S
H2293 C2304 0.950 . S
H2294 C2306 0.950 . S
H2295 C2307 0.950 . S
C2296 H2288 0.950 . S
C2296 C2297 1.386 . S
C2296 C2298 1.391 . S
C2297 C2296 1.386 . S
C2297 C2301 1.393 . S
C2298 H2290 0.950 . S
C2298 C2296 1.391 . S
C2298 C2299 1.400 . S
C2299 C2298 1.400 . S
C2299 C2300 1.398 . S
C2299 C2305 1.491 . S
C2300 H2291 0.950 . S
C2300 C2299 1.398 . S
C2300 C2301 1.391 . S
C2301 H2289 0.950 . S
C2301 C2297 1.393 . S
C2301 C2300 1.391 . S
C2302 H2292 0.950 . S
C2302 C2303 1.386 . S
C2302 C2304 1.391 . S
C2303 C2302 1.386 . S
C2303 C2307 1.393 . S
C2304 H2293 0.950 . S
C2304 C2302 1.391 . S
C2304 C2305 1.400 . S
C2305 C2299 1.491 . S
C2305 C2304 1.400 . S
C2305 C2306 1.398 . S
C2306 H2294 0.950 . S
C2306 C2305 1.398 . S
C2306 C2307 1.391 . S
C2307 H2295 0.950 . S
C2307 C2303 1.393 . S
C2307 C2306 1.391 . S
H2308 C2316 0.950 . S
H2309 C2321 0.950 . S
H2310 C2318 0.950 . S
H2311 C2320 0.950 . S
H2312 C2322 0.950 . S
H2313 C2324 0.950 . S
H2314 C2326 0.950 . S
H2315 C2327 0.950 . S
C2316 H2308 0.950 . S
C2316 C2317 1.386 . S
C2316 C2318 1.391 . S
C2317 C2316 1.386 . S
C2317 C2321 1.393 . S
C2318 H2310 0.950 . S
C2318 C2316 1.391 . S
C2318 C2319 1.400 . S
C2319 C2318 1.400 . S
C2319 C2320 1.398 . S
C2319 C2325 1.491 . S
C2320 H2311 0.950 . S
C2320 C2319 1.398 . S
C2320 C2321 1.391 . S
C2321 H2309 0.950 . S
C2321 C2317 1.393 . S
C2321 C2320 1.391 . S
C2322 H2312 0.950 . S
C2322 C2323 1.386 . S
C2322 C2324 1.391 . S
C2323 C2322 1.386 . S
C2323 C2327 1.393 . S
C2324 H2313 0.950 . S
C2324 C2322 1.391 . S
C2324 C2325 1.400 . S
C2325 C2319 1.491 . S
C2325 C2324 1.400 . S
C2325 C2326 1.398 . S
C2326 H2314 0.950 . S
C2326 C2325 1.398 . S
C2326 C2327 1.391 . S
C2327 H2315 0.950 . S
C2327 C2323 1.393 . S
C2327 C2326 1.391 . S
H2328 C2336 0.950 . S
H2329 C2341 0.950 . S
H2330 C2338 0.950 . S
H2331 C2340 0.950 . S
H2332 C2342 0.950 . S
H2333 C2344 0.950 . S
H2334 C2346 0.950 . S
H2335 C2347 0.950 . S
C2336 H2328 0.950 . S
C2336 C2337 1.386 . S
C2336 C2338 1.391 . S
C2337 C2336 1.386 . S
C2337 C2341 1.393 . S
C2338 H2330 0.950 . S
C2338 C2336 1.391 . S
C2338 C2339 1.400 . S
C2339 C2338 1.400 . S
C2339 C2340 1.398 . S
C2339 C2345 1.491 . S
C2340 H2331 0.950 . S
C2340 C2339 1.398 . S
C2340 C2341 1.391 . S
C2341 H2329 0.950 . S
C2341 C2337 1.393 . S
C2341 C2340 1.391 . S
C2342 H2332 0.950 . S
C2342 C2343 1.386 . S
C2342 C2344 1.391 . S
C2343 C2342 1.386 . S
C2343 C2347 1.393 . S
C2344 H2333 0.950 . S
C2344 C2342 1.391 . S
C2344 C2345 1.400 . S
C2345 C2339 1.491 . S
C2345 C2344 1.400 . S
C2345 C2346 1.398 . S
C2346 H2334 0.950 . S
C2346 C2345 1.398 . S
C2346 C2347 1.391 . S
C2347 H2335 0.950 . S
C2347 C2343 1.393 . S
C2347 C2346 1.391 . S
H2348 C2356 0.950 1_455 S
H2349 C2361 0.950 . S
H2350 C2358 0.950 . S
H2351 C2360 0.950 . S
H2352 C2362 0.950 . S
H2353 C2364 0.950 . S
H2354 C2366 0.950 . S
H2355 C2367 0.950 . S
C2356 H2348 0.950 1_655 S
C2356 C2357 1.386 1_655 S
C2356 C2358 1.391 . S
C2357 C2356 1.386 1_455 S
C2357 C2361 1.393 1_455 S
C2358 H2350 0.950 . S
C2358 C2356 1.391 . S
C2358 C2359 1.400 . S
C2359 C2358 1.400 . S
C2359 C2360 1.398 . S
C2359 C2365 1.491 . S
C2360 H2351 0.950 . S
C2360 C2359 1.398 . S
C2360 C2361 1.391 . S
C2361 H2349 0.950 . S
C2361 C2357 1.393 1_655 S
C2361 C2360 1.391 . S
C2362 H2352 0.950 . S
C2362 C2363 1.386 . S
C2362 C2364 1.391 . S
C2363 C2362 1.386 . S
C2363 C2367 1.393 . S
C2364 H2353 0.950 . S
C2364 C2362 1.391 . S
C2364 C2365 1.400 . S
C2365 C2359 1.491 . S
C2365 C2364 1.400 . S
C2365 C2366 1.398 . S
C2366 H2354 0.950 . S
C2366 C2365 1.398 . S
C2366 C2367 1.391 . S
C2367 H2355 0.950 . S
C2367 C2363 1.393 . S
C2367 C2366 1.391 . S
H2368 C2376 0.950 . S
H2369 C2381 0.950 . S
H2370 C2378 0.950 . S
H2371 C2380 0.950 . S
H2372 C2382 0.950 . S
H2373 C2384 0.950 . S
H2374 C2386 0.950 . S
H2375 C2387 0.950 . S
C2376 H2368 0.950 . S
C2376 C2377 1.386 . S
C2376 C2378 1.391 . S
C2377 C2376 1.386 . S
C2377 C2381 1.393 . S
C2378 H2370 0.950 . S
C2378 C2376 1.391 . S
C2378 C2379 1.400 . S
C2379 C2378 1.400 . S
C2379 C2380 1.398 . S
C2379 C2385 1.491 . S
C2380 H2371 0.950 . S
C2380 C2379 1.398 . S
C2380 C2381 1.391 . S
C2381 H2369 0.950 . S
C2381 C2377 1.393 . S
C2381 C2380 1.391 . S
C2382 H2372 0.950 . S
C2382 C2383 1.386 . S
C2382 C2384 1.391 . S
C2383 C2382 1.386 . S
C2383 C2387 1.393 . S
C2384 H2373 0.950 . S
C2384 C2382 1.391 . S
C2384 C2385 1.400 . S
C2385 C2379 1.491 . S
C2385 C2384 1.400 . S
C2385 C2386 1.398 . S
C2386 H2374 0.950 . S
C2386 C2385 1.398 . S
C2386 C2387 1.391 . S
C2387 H2375 0.950 . S
C2387 C2383 1.393 . S
C2387 C2386 1.391 . S
H2388 C2396 0.926 1_655 S
H2389 C2401 0.950 . S
H2390 C2398 0.950 . S
H2391 C2400 0.950 . S
H2392 C2402 0.950 . S
H2393 C2404 0.950 . S
H2394 C2406 0.950 . S
H2395 C2407 0.950 . S
C2396 H2388 0.926 1_455 S
C2396 C2397 1.386 1_455 S
C2396 C2398 1.391 . S
C2397 C2396 1.386 1_655 S
C2397 C2401 1.393 1_655 S
C2398 H2390 0.950 . S
C2398 C2396 1.391 . S
C2398 C2399 1.400 . S
C2399 C2398 1.400 . S
C2399 C2400 1.398 . S
C2399 C2405 1.491 . S
C2400 H2391 0.950 . S
C2400 C2399 1.398 . S
C2400 C2401 1.391 . S
C2401 H2389 0.950 . S
C2401 C2397 1.393 1_455 S
C2401 C2400 1.391 . S
C2402 H2392 0.950 . S
C2402 C2403 1.386 . S
C2402 C2404 1.391 . S
C2403 C2402 1.386 . S
C2403 C2407 1.393 . S
C2404 H2393 0.950 . S
C2404 C2402 1.391 . S
C2404 C2405 1.400 . S
C2405 C2399 1.491 . S
C2405 C2404 1.400 . S
C2405 C2406 1.398 . S
C2406 H2394 0.950 . S
C2406 C2405 1.398 . S
C2406 C2407 1.391 . S
C2407 H2395 0.950 . S
C2407 C2403 1.393 . S
C2407 C2406 1.391 . S
H2408 C2416 0.950 . S
H2409 C2421 0.950 . S
H2410 C2418 0.950 . S
H2411 C2420 0.950 . S
H2412 C2422 0.950 . S
H2413 C2424 0.950 . S
H2414 C2426 0.950 . S
H2415 C2427 0.950 . S
C2416 H2408 0.950 . S
C2416 C2417 1.386 . S
C2416 C2418 1.391 . S
C2417 C2416 1.386 . S
C2417 C2421 1.393 . S
C2418 H2410 0.950 . S
C2418 C2416 1.391 . S
C2418 C2419 1.400 . S
C2419 C2418 1.400 . S
C2419 C2420 1.398 . S
C2419 C2425 1.491 . S
C2420 H2411 0.950 . S
C2420 C2419 1.398 . S
C2420 C2421 1.391 . S
C2421 H2409 0.950 . S
C2421 C2417 1.393 . S
C2421 C2420 1.391 . S
C2422 H2412 0.950 . S
C2422 C2423 1.386 . S
C2422 C2424 1.391 . S
C2423 C2422 1.386 . S
C2423 C2427 1.393 . S
C2424 H2413 0.950 . S
C2424 C2422 1.391 . S
C2424 C2425 1.400 . S
C2425 C2419 1.491 . S
C2425 C2424 1.400 . S
C2425 C2426 1.398 . S
C2426 H2414 0.950 . S
C2426 C2425 1.398 . S
C2426 C2427 1.391 . S
C2427 H2415 0.950 . S
C2427 C2423 1.393 . S
C2427 C2426 1.391 . S
H2428 C2436 0.950 . S
H2429 C2441 0.950 . S
H2430 C2438 0.950 . S
H2431 C2440 0.950 . S
H2432 C2442 0.950 . S
H2433 C2444 0.950 . S
H2434 C2446 0.950 . S
H2435 C2447 0.950 . S
C2436 H2428 0.950 . S
C2436 C2437 1.386 . S
C2436 C2438 1.391 . S
C2437 C2436 1.386 . S
C2437 C2441 1.393 . S
C2438 H2430 0.950 . S
C2438 C2436 1.391 . S
C2438 C2439 1.400 . S
C2439 C2438 1.400 . S
C2439 C2440 1.398 . S
C2439 C2445 1.491 . S
C2440 H2431 0.950 . S
C2440 C2439 1.398 . S
C2440 C2441 1.391 . S
C2441 H2429 0.950 . S
C2441 C2437 1.393 . S
C2441 C2440 1.391 . S
C2442 H2432 0.950 . S
C2442 C2443 1.386 . S
C2442 C2444 1.391 . S
C2443 C2442 1.386 . S
C2443 C2447 1.393 . S
C2444 H2433 0.950 . S
C2444 C2442 1.391 . S
C2444 C2445 1.400 . S
C2445 C2439 1.491 . S
C2445 C2444 1.400 . S
C2445 C2446 1.398 . S
C2446 H2434 0.950 . S
C2446 C2445 1.398 . S
C2446 C2447 1.391 . S
C2447 H2435 0.950 . S
C2447 C2443 1.393 . S
C2447 C2446 1.391 . S
H2448 C2456 0.950 . S
H2449 C2461 0.950 . S
H2450 C2458 0.950 . S
H2451 C2460 0.950 . S
H2452 C2462 0.950 . S
H2453 C2464 0.950 . S
H2454 C2466 0.950 . S
H2455 C2467 0.950 . S
C2456 H2448 0.950 . S
C2456 C2457 1.386 . S
C2456 C2458 1.391 . S
C2457 C2456 1.386 . S
C2457 C2461 1.393 . S
C2458 H2450 0.950 . S
C2458 C2456 1.391 . S
C2458 C2459 1.400 . S
C2459 C2458 1.400 . S
C2459 C2460 1.398 . S
C2459 C2465 1.491 . S
C2460 H2451 0.950 . S
C2460 C2459 1.398 . S
C2460 C2461 1.391 . S
C2461 H2449 0.950 . S
C2461 C2457 1.393 . S
C2461 C2460 1.391 . S
C2462 H2452 0.950 . S
C2462 C2463 1.386 . S
C2462 C2464 1.391 . S
C2463 C2462 1.386 . S
C2463 C2467 1.393 . S
C2464 H2453 0.950 . S
C2464 C2462 1.391 . S
C2464 C2465 1.400 . S
C2465 C2459 1.491 . S
C2465 C2464 1.400 . S
C2465 C2466 1.398 . S
C2466 H2454 0.950 . S
C2466 C2465 1.398 . S
C2466 C2467 1.391 . S
C2467 H2455 0.950 . S
C2467 C2463 1.393 . S
C2467 C2466 1.391 . S
H2468 C2476 0.950 . S
H2469 C2481 0.950 . S
H2470 C2478 0.950 . S
H2471 C2480 0.950 . S
H2472 C2482 0.950 . S
H2473 C2484 0.950 . S
H2474 C2486 0.950 . S
H2475 C2487 0.950 . S
C2476 H2468 0.950 . S
C2476 C2477 1.386 . S
C2476 C2478 1.391 . S
C2477 C2476 1.386 . S
C2477 C2481 1.393 . S
C2478 H2470 0.950 . S
C2478 C2476 1.391 . S
C2478 C2479 1.400 . S
C2479 C2478 1.400 . S
C2479 C2480 1.398 . S
C2479 C2485 1.491 . S
C2480 H2471 0.950 . S
C2480 C2479 1.398 . S
C2480 C2481 1.391 . S
C2481 H2469 0.950 . S
C2481 C2477 1.393 . S
C2481 C2480 1.391 . S
C2482 H2472 0.950 . S
C2482 C2483 1.386 . S
C2482 C2484 1.391 . S
C2483 C2482 1.386 . S
C2483 C2487 1.393 . S
C2484 H2473 0.950 . S
C2484 C2482 1.391 . S
C2484 C2485 1.400 . S
C2485 C2479 1.491 . S
C2485 C2484 1.400 . S
C2485 C2486 1.398 . S
C2486 H2474 0.950 . S
C2486 C2485 1.398 . S
C2486 C2487 1.391 . S
C2487 H2475 0.950 . S
C2487 C2483 1.393 . S
C2487 C2486 1.391 . S
H2488 C2496 0.950 . S
H2489 C2501 0.950 . S
H2490 C2498 0.950 . S
H2491 C2500 0.950 . S
H2492 C2502 0.950 . S
H2493 C2504 0.950 . S
H2494 C2506 0.950 . S
H2495 C2507 0.950 . S
C2496 H2488 0.950 . S
C2496 C2497 1.386 . S
C2496 C2498 1.391 . S
C2497 C2496 1.386 . S
C2497 C2501 1.393 . S
C2498 H2490 0.950 . S
C2498 C2496 1.391 . S
C2498 C2499 1.400 . S
C2499 C2498 1.400 . S
C2499 C2500 1.398 . S
C2499 C2505 1.491 . S
C2500 H2491 0.950 . S
C2500 C2499 1.398 . S
C2500 C2501 1.391 . S
C2501 H2489 0.950 . S
C2501 C2497 1.393 . S
C2501 C2500 1.391 . S
C2502 H2492 0.950 . S
C2502 C2503 1.386 . S
C2502 C2504 1.391 . S
C2503 C2502 1.386 . S
C2503 C2507 1.393 . S
C2504 H2493 0.950 . S
C2504 C2502 1.391 . S
C2504 C2505 1.400 . S
C2505 C2499 1.491 . S
C2505 C2504 1.400 . S
C2505 C2506 1.398 . S
C2506 H2494 0.950 . S
C2506 C2505 1.398 . S
C2506 C2507 1.391 . S
C2507 H2495 0.950 . S
C2507 C2503 1.393 . S
C2507 C2506 1.391 . S
H2508 C2516 0.950 . S
H2509 C2521 0.950 . S
H2510 C2518 0.950 . S
H2511 C2520 0.950 . S
H2512 C2522 0.950 . S
H2513 C2524 0.950 . S
H2514 C2526 0.950 . S
H2515 C2527 0.950 . S
C2516 H2508 0.950 . S
C2516 C2517 1.386 . S
C2516 C2518 1.391 . S
C2517 C2516 1.386 . S
C2517 C2521 1.393 . S
C2518 H2510 0.950 . S
C2518 C2516 1.391 . S
C2518 C2519 1.400 . S
C2519 C2518 1.400 . S
C2519 C2520 1.398 . S
C2519 C2525 1.491 . S
C2520 H2511 0.950 . S
C2520 C2519 1.398 . S
C2520 C2521 1.391 . S
C2521 H2509 0.950 . S
C2521 C2517 1.393 . S
C2521 C2520 1.391 . S
C2522 H2512 0.950 . S
C2522 C2523 1.386 1_455 S
C2522 C2524 1.391 . S
C2523 C2522 1.386 1_655 S
C2523 C2527 1.393 . S
C2524 H2513 0.950 . S
C2524 C2522 1.391 . S
C2524 C2525 1.400 . S
C2525 C2519 1.491 . S
C2525 C2524 1.400 . S
C2525 C2526 1.398 . S
C2526 H2514 0.950 . S
C2526 C2525 1.398 . S
C2526 C2527 1.391 1_455 S
C2527 H2515 0.950 . S
C2527 C2523 1.393 . S
C2527 C2526 1.391 1_655 S
H2528 C2536 0.950 . S
H2529 C2541 0.950 . S
H2530 C2538 0.950 . S
H2531 C2540 0.950 . S
H2532 C2542 0.950 . S
H2533 C2544 0.950 . S
H2534 C2546 0.950 . S
H2535 C2547 0.950 . S
C2536 H2528 0.950 . S
C2536 C2537 1.386 . S
C2536 C2538 1.391 . S
C2537 C2536 1.386 . S
C2537 C2541 1.393 . S
C2538 H2530 0.950 . S
C2538 C2536 1.391 . S
C2538 C2539 1.400 . S
C2539 C2538 1.400 . S
C2539 C2540 1.398 . S
C2539 C2545 1.491 . S
C2540 H2531 0.950 . S
C2540 C2539 1.398 . S
C2540 C2541 1.391 . S
C2541 H2529 0.950 . S
C2541 C2537 1.393 . S
C2541 C2540 1.391 . S
C2542 H2532 0.950 . S
C2542 C2543 1.386 . S
C2542 C2544 1.391 . S
C2543 C2542 1.386 . S
C2543 C2547 1.393 . S
C2544 H2533 0.950 . S
C2544 C2542 1.391 . S
C2544 C2545 1.400 . S
C2545 C2539 1.491 . S
C2545 C2544 1.400 . S
C2545 C2546 1.398 . S
C2546 H2534 0.950 . S
C2546 C2545 1.398 . S
C2546 C2547 1.391 . S
C2547 H2535 0.950 . S
C2547 C2543 1.393 . S
C2547 C2546 1.391 . S
H2548 C2556 0.950 . S
H2549 C2561 0.950 . S
H2550 C2558 0.950 . S
H2551 C2560 0.950 . S
H2552 C2562 0.950 . S
H2553 C2564 0.950 . S
H2554 C2566 0.950 . S
H2555 C2567 0.950 . S
C2556 H2548 0.950 . S
C2556 C2557 1.386 . S
C2556 C2558 1.391 . S
C2557 C2556 1.386 . S
C2557 C2561 1.393 . S
C2558 H2550 0.950 . S
C2558 C2556 1.391 . S
C2558 C2559 1.400 . S
C2559 C2558 1.400 . S
C2559 C2560 1.398 . S
C2559 C2565 1.491 . S
C2560 H2551 0.950 . S
C2560 C2559 1.398 . S
C2560 C2561 1.391 . S
C2561 H2549 0.950 . S
C2561 C2557 1.393 . S
C2561 C2560 1.391 . S
C2562 H2552 0.950 . S
C2562 C2563 1.386 . S
C2562 C2564 1.391 . S
C2563 C2562 1.386 . S
C2563 C2567 1.393 . S
C2564 H2553 0.950 . S
C2564 C2562 1.391 . S
C2564 C2565 1.400 . S
C2565 C2559 1.491 . S
C2565 C2564 1.400 . S
C2565 C2566 1.398 . S
C2566 H2554 0.950 . S
C2566 C2565 1.398 . S
C2566 C2567 1.391 . S
C2567 H2555 0.950 . S
C2567 C2563 1.393 . S
C2567 C2566 1.391 . S
H2568 C2576 0.950 . S
H2569 C2581 0.950 . S
H2570 C2578 0.950 . S
H2571 C2580 0.950 . S
H2572 C2582 0.950 . S
H2573 C2584 0.950 . S
H2574 C2586 0.950 . S
H2575 C2587 0.950 . S
C2576 H2568 0.950 . S
C2576 C2577 1.386 . S
C2576 C2578 1.391 . S
C2577 C2576 1.386 . S
C2577 C2581 1.393 . S
C2578 H2570 0.950 . S
C2578 C2576 1.391 . S
C2578 C2579 1.400 . S
C2579 C2578 1.400 . S
C2579 C2580 1.398 . S
C2579 C2585 1.491 . S
C2580 H2571 0.950 . S
C2580 C2579 1.398 . S
C2580 C2581 1.391 . S
C2581 H2569 0.950 . S
C2581 C2577 1.393 . S
C2581 C2580 1.391 . S
C2582 H2572 0.950 . S
C2582 C2583 1.386 . S
C2582 C2584 1.391 . S
C2583 C2582 1.386 . S
C2583 C2587 1.393 . S
C2584 H2573 0.950 . S
C2584 C2582 1.391 . S
C2584 C2585 1.400 . S
C2585 C2579 1.491 . S
C2585 C2584 1.400 . S
C2585 C2586 1.398 . S
C2586 H2574 0.950 . S
C2586 C2585 1.398 . S
C2586 C2587 1.391 . S
C2587 H2575 0.950 . S
C2587 C2583 1.393 . S
C2587 C2586 1.391 . S
H2588 C2596 0.950 . S
H2589 C2601 0.950 . S
H2590 C2598 0.950 . S
H2591 C2600 0.950 . S
H2592 C2602 0.950 . S
H2593 C2604 0.950 . S
H2594 C2606 0.950 . S
H2595 C2607 0.950 . S
C2596 H2588 0.950 . S
C2596 C2597 1.386 . S
C2596 C2598 1.391 . S
C2597 C2596 1.386 . S
C2597 C2601 1.393 . S
C2598 H2590 0.950 . S
C2598 C2596 1.391 . S
C2598 C2599 1.400 . S
C2599 C2598 1.400 . S
C2599 C2600 1.398 . S
C2599 C2605 1.491 . S
C2600 H2591 0.950 . S
C2600 C2599 1.398 . S
C2600 C2601 1.391 . S
C2601 H2589 0.950 . S
C2601 C2597 1.393 . S
C2601 C2600 1.391 . S
C2602 H2592 0.950 . S
C2602 C2603 1.386 . S
C2602 C2604 1.391 1_655 S
C2603 C2602 1.386 . S
C2603 C2607 1.393 1_655 S
C2604 H2593 0.950 . S
C2604 C2602 1.391 1_455 S
C2604 C2605 1.400 . S
C2605 C2599 1.491 . S
C2605 C2604 1.400 . S
C2605 C2606 1.398 . S
C2606 H2594 0.950 . S
C2606 C2605 1.398 . S
C2606 C2607 1.391 . S
C2607 H2595 0.950 . S
C2607 C2603 1.393 1_455 S
C2607 C2606 1.391 . S
H2608 C2616 0.950 . S
H2609 C2621 0.950 . S
H2610 C2618 0.950 . S
H2611 C2620 0.950 . S
H2612 C2622 0.950 . S
H2613 C2624 0.950 . S
H2614 C2626 0.950 . S
H2615 C2627 0.950 . S
C2616 H2608 0.950 . S
C2616 C2617 1.386 . S
C2616 C2618 1.391 . S
C2617 C2616 1.386 . S
C2617 C2621 1.393 . S
C2618 H2610 0.950 . S
C2618 C2616 1.391 . S
C2618 C2619 1.400 . S
C2619 C2618 1.400 . S
C2619 C2620 1.398 . S
C2619 C2625 1.491 . S
C2620 H2611 0.950 . S
C2620 C2619 1.398 . S
C2620 C2621 1.391 . S
C2621 H2609 0.950 . S
C2621 C2617 1.393 . S
C2621 C2620 1.391 . S
C2622 H2612 0.950 . S
C2622 C2623 1.386 . S
C2622 C2624 1.391 . S
C2623 C2622 1.386 . S
C2623 C2627 1.393 . S
C2624 H2613 0.950 . S
C2624 C2622 1.391 . S
C2624 C2625 1.400 . S
C2625 C2619 1.491 . S
C2625 C2624 1.400 . S
C2625 C2626 1.398 . S
C2626 H2614 0.950 . S
C2626 C2625 1.398 . S
C2626 C2627 1.391 . S
C2627 H2615 0.950 . S
C2627 C2623 1.393 . S
C2627 C2626 1.391 . S
H2628 C2636 0.948 . S
H2629 C2641 0.950 . S
H2630 C2638 0.950 . S
H2631 C2640 0.950 . S
H2632 C2642 0.950 . S
H2633 C2644 0.950 . S
H2634 C2646 0.950 . S
H2635 C2647 0.950 . S
C2636 H2628 0.948 . S
C2636 C2637 1.385 . S
C2636 C2638 1.393 1_655 S
C2637 C2636 1.385 . S
C2637 C2641 1.393 1_655 S
C2638 H2630 0.950 . S
C2638 C2636 1.393 1_455 S
C2638 C2639 1.400 . S
C2639 C2638 1.400 . S
C2639 C2640 1.398 . S
C2639 C2645 1.491 . S
C2640 H2631 0.950 . S
C2640 C2639 1.398 . S
C2640 C2641 1.391 . S
C2641 H2629 0.950 . S
C2641 C2637 1.393 1_455 S
C2641 C2640 1.391 . S
C2642 H2632 0.950 . S
C2642 C2643 1.386 . S
C2642 C2644 1.391 . S
C2643 C2642 1.386 . S
C2643 C2647 1.393 . S
C2644 H2633 0.950 . S
C2644 C2642 1.391 . S
C2644 C2645 1.400 . S
C2645 C2639 1.491 . S
C2645 C2644 1.400 . S
C2645 C2646 1.398 . S
C2646 H2634 0.950 . S
C2646 C2645 1.398 . S
C2646 C2647 1.391 . S
C2647 H2635 0.950 . S
C2647 C2643 1.393 . S
C2647 C2646 1.391 . S
H2648 C2656 0.950 . S
H2649 C2661 0.950 . S
H2650 C2658 0.950 . S
H2651 C2660 0.950 . S
H2652 C2662 0.950 . S
H2653 C2664 0.950 . S
H2654 C2666 0.950 . S
H2655 C2667 0.950 . S
C2656 H2648 0.950 . S
C2656 C2657 1.386 . S
C2656 C2658 1.391 . S
C2657 C2656 1.386 . S
C2657 C2661 1.393 . S
C2658 H2650 0.950 . S
C2658 C2656 1.391 . S
C2658 C2659 1.400 . S
C2659 C2658 1.400 . S
C2659 C2660 1.398 . S
C2659 C2665 1.491 . S
C2660 H2651 0.950 . S
C2660 C2659 1.398 . S
C2660 C2661 1.391 . S
C2661 H2649 0.950 . S
C2661 C2657 1.393 . S
C2661 C2660 1.391 . S
C2662 H2652 0.950 . S
C2662 C2663 1.386 . S
C2662 C2664 1.391 . S
C2663 C2662 1.386 . S
C2663 C2667 1.393 . S
C2664 H2653 0.950 . S
C2664 C2662 1.391 . S
C2664 C2665 1.400 . S
C2665 C2659 1.491 . S
C2665 C2664 1.400 . S
C2665 C2666 1.398 . S
C2666 H2654 0.950 . S
C2666 C2665 1.398 . S
C2666 C2667 1.391 . S
C2667 H2655 0.950 . S
C2667 C2663 1.393 . S
C2667 C2666 1.391 . S
H2668 C2676 0.950 . S
H2669 C2681 0.950 . S
H2670 C2678 0.950 . S
H2671 C2680 0.950 . S
H2672 C2682 0.950 . S
H2673 C2684 0.950 . S
H2674 C2686 0.950 . S
H2675 C2687 0.950 . S
C2676 H2668 0.950 . S
C2676 C2677 1.386 . S
C2676 C2678 1.391 . S
C2677 C2676 1.386 . S
C2677 C2681 1.393 . S
C2678 H2670 0.950 . S
C2678 C2676 1.391 . S
C2678 C2679 1.400 . S
C2679 C2678 1.400 . S
C2679 C2680 1.398 . S
C2679 C2685 1.491 . S
C2680 H2671 0.950 . S
C2680 C2679 1.398 . S
C2680 C2681 1.391 . S
C2681 H2669 0.950 . S
C2681 C2677 1.393 . S
C2681 C2680 1.391 . S
C2682 H2672 0.950 . S
C2682 C2683 1.386 . S
C2682 C2684 1.391 . S
C2683 C2682 1.386 . S
C2683 C2687 1.393 . S
C2684 H2673 0.950 . S
C2684 C2682 1.391 . S
C2684 C2685 1.400 . S
C2685 C2679 1.491 . S
C2685 C2684 1.400 . S
C2685 C2686 1.398 . S
C2686 H2674 0.950 . S
C2686 C2685 1.398 . S
C2686 C2687 1.391 . S
C2687 H2675 0.950 . S
C2687 C2683 1.393 . S
C2687 C2686 1.391 . S
H2688 C2696 0.950 . S
H2689 C2701 0.950 . S
H2690 C2698 0.950 . S
H2691 C2700 0.950 . S
H2692 C2702 0.950 . S
H2693 C2704 0.950 . S
H2694 C2706 0.950 . S
H2695 C2707 0.950 . S
C2696 H2688 0.950 . S
C2696 C2697 1.386 . S
C2696 C2698 1.391 . S
C2697 C2696 1.386 . S
C2697 C2701 1.393 . S
C2698 H2690 0.950 . S
C2698 C2696 1.391 . S
C2698 C2699 1.400 . S
C2699 C2698 1.400 . S
C2699 C2700 1.398 . S
C2699 C2705 1.491 . S
C2700 H2691 0.950 . S
C2700 C2699 1.398 . S
C2700 C2701 1.391 . S
C2701 H2689 0.950 . S
C2701 C2697 1.393 . S
C2701 C2700 1.391 . S
C2702 H2692 0.950 . S
C2702 C2703 1.386 . S
C2702 C2704 1.391 . S
C2703 C2702 1.386 . S
C2703 C2707 1.393 . S
C2704 H2693 0.950 . S
C2704 C2702 1.391 . S
C2704 C2705 1.400 . S
C2705 C2699 1.491 . S
C2705 C2704 1.400 . S
C2705 C2706 1.398 . S
C2706 H2694 0.950 . S
C2706 C2705 1.398 . S
C2706 C2707 1.391 . S
C2707 H2695 0.950 . S
C2707 C2703 1.393 . S
C2707 C2706 1.391 . S
H2708 C2716 0.950 . S
H2709 C2721 0.950 . S
H2710 C2718 0.950 . S
H2711 C2720 0.950 . S
H2712 C2722 0.950 . S
H2713 C2724 0.950 . S
H2714 C2726 0.950 . S
H2715 C2727 0.950 . S
C2716 H2708 0.950 . S
C2716 C2717 1.386 . S
C2716 C2718 1.391 . S
C2717 C2716 1.386 . S
C2717 C2721 1.393 . S
C2718 H2710 0.950 . S
C2718 C2716 1.391 . S
C2718 C2719 1.400 . S
C2719 C2718 1.400 . S
C2719 C2720 1.398 . S
C2719 C2725 1.491 . S
C2720 H2711 0.950 . S
C2720 C2719 1.398 . S
C2720 C2721 1.391 . S
C2721 H2709 0.950 . S
C2721 C2717 1.393 . S
C2721 C2720 1.391 . S
C2722 H2712 0.950 . S
C2722 C2723 1.386 . S
C2722 C2724 1.391 . S
C2723 C2722 1.386 . S
C2723 C2727 1.393 . S
C2724 H2713 0.950 . S
C2724 C2722 1.391 . S
C2724 C2725 1.400 . S
C2725 C2719 1.491 . S
C2725 C2724 1.400 . S
C2725 C2726 1.398 . S
C2726 H2714 0.950 . S
C2726 C2725 1.398 . S
C2726 C2727 1.391 . S
C2727 H2715 0.950 . S
C2727 C2723 1.393 . S
C2727 C2726 1.391 . S
H2728 C2736 0.950 . S
H2729 C2741 0.950 . S
H2730 C2738 0.950 . S
H2731 C2740 0.950 . S
H2732 C2742 0.950 . S
H2733 C2744 0.950 . S
H2734 C2746 0.950 . S
H2735 C2747 0.950 . S
C2736 H2728 0.950 . S
C2736 C2737 1.386 . S
C2736 C2738 1.391 . S
C2737 C2736 1.386 . S
C2737 C2741 1.393 . S
C2738 H2730 0.950 . S
C2738 C2736 1.391 . S
C2738 C2739 1.400 . S
C2739 C2738 1.400 . S
C2739 C2740 1.398 . S
C2739 C2745 1.491 . S
C2740 H2731 0.950 . S
C2740 C2739 1.398 . S
C2740 C2741 1.391 . S
C2741 H2729 0.950 . S
C2741 C2737 1.393 . S
C2741 C2740 1.391 . S
C2742 H2732 0.950 . S
C2742 C2743 1.386 . S
C2742 C2744 1.391 . S
C2743 C2742 1.386 . S
C2743 C2747 1.393 . S
C2744 H2733 0.950 . S
C2744 C2742 1.391 . S
C2744 C2745 1.400 . S
C2745 C2739 1.491 . S
C2745 C2744 1.400 . S
C2745 C2746 1.398 . S
C2746 H2734 0.950 . S
C2746 C2745 1.398 . S
C2746 C2747 1.391 . S
C2747 H2735 0.950 . S
C2747 C2743 1.393 . S
C2747 C2746 1.391 . S
H2748 C2756 0.950 . S
H2749 C2761 0.950 . S
H2750 C2758 0.950 . S
H2751 C2760 0.950 . S
H2752 C2762 0.950 . S
H2753 C2764 0.950 . S
H2754 C2766 0.950 . S
H2755 C2767 0.950 . S
C2756 H2748 0.950 . S
C2756 C2757 1.386 . S
C2756 C2758 1.391 . S
C2757 C2756 1.386 . S
C2757 C2761 1.393 . S
C2758 H2750 0.950 . S
C2758 C2756 1.391 . S
C2758 C2759 1.400 . S
C2759 C2758 1.400 . S
C2759 C2760 1.398 . S
C2759 C2765 1.491 . S
C2760 H2751 0.950 . S
C2760 C2759 1.398 . S
C2760 C2761 1.391 . S
C2761 H2749 0.950 . S
C2761 C2757 1.393 . S
C2761 C2760 1.391 . S
C2762 H2752 0.950 . S
C2762 C2763 1.386 1_655 S
C2762 C2764 1.391 . S
C2763 C2762 1.386 1_455 S
C2763 C2767 1.393 . S
C2764 H2753 0.950 . S
C2764 C2762 1.391 . S
C2764 C2765 1.400 . S
C2765 C2759 1.491 . S
C2765 C2764 1.400 . S
C2765 C2766 1.398 . S
C2766 H2754 0.950 . S
C2766 C2765 1.398 . S
C2766 C2767 1.391 1_655 S
C2767 H2755 0.950 . S
C2767 C2763 1.393 . S
C2767 C2766 1.391 1_455 S
H2768 C2776 0.950 . S
H2769 C2781 0.950 . S
H2770 C2778 0.950 . S
H2771 C2780 0.950 . S
H2772 C2782 0.950 . S
H2773 C2784 0.950 . S
H2774 C2786 0.950 . S
H2775 C2787 0.950 . S
C2776 H2768 0.950 . S
C2776 C2777 1.386 . S
C2776 C2778 1.391 . S
C2777 C2776 1.386 . S
C2777 C2781 1.393 . S
C2778 H2770 0.950 . S
C2778 C2776 1.391 . S
C2778 C2779 1.400 . S
C2779 C2778 1.400 . S
C2779 C2780 1.398 . S
C2779 C2785 1.491 . S
C2780 H2771 0.950 . S
C2780 C2779 1.398 . S
C2780 C2781 1.391 . S
C2781 H2769 0.950 . S
C2781 C2777 1.393 . S
C2781 C2780 1.391 . S
C2782 H2772 0.950 . S
C2782 C2783 1.386 . S
C2782 C2784 1.391 . S
C2783 C2782 1.386 . S
C2783 C2787 1.393 . S
C2784 H2773 0.950 . S
C2784 C2782 1.391 . S
C2784 C2785 1.400 . S
C2785 C2779 1.491 . S
C2785 C2784 1.400 . S
C2785 C2786 1.398 . S
C2786 H2774 0.950 . S
C2786 C2785 1.398 . S
C2786 C2787 1.391 . S
C2787 H2775 0.950 . S
C2787 C2783 1.393 . S
C2787 C2786 1.391 . S
H2788 C2796 0.950 . S
H2789 C2801 0.958 . S
H2790 C2798 0.950 . S
H2791 C2800 0.950 . S
H2792 C2802 0.950 . S
H2793 C2804 0.950 . S
H2794 C2806 0.950 . S
H2795 C2807 0.950 . S
C2796 H2788 0.950 . S
C2796 C2797 1.386 1_655 S
C2796 C2798 1.391 . S
C2797 C2796 1.386 1_455 S
C2797 C2801 1.393 1_455 S
C2798 H2790 0.950 . S
C2798 C2796 1.391 . S
C2798 C2799 1.400 . S
C2799 C2798 1.400 . S
C2799 C2800 1.398 . S
C2799 C2805 1.491 . S
C2800 H2791 0.950 . S
C2800 C2799 1.398 . S
C2800 C2801 1.391 . S
C2801 H2789 0.958 . S
C2801 C2797 1.393 1_655 S
C2801 C2800 1.391 . S
C2802 H2792 0.950 . S
C2802 C2803 1.386 . S
C2802 C2804 1.391 . S
C2803 C2802 1.386 . S
C2803 C2807 1.393 . S
C2804 H2793 0.950 . S
C2804 C2802 1.391 . S
C2804 C2805 1.400 . S
C2805 C2799 1.491 . S
C2805 C2804 1.400 . S
C2805 C2806 1.398 . S
C2806 H2794 0.950 . S
C2806 C2805 1.398 . S
C2806 C2807 1.391 . S
C2807 H2795 0.950 . S
C2807 C2803 1.393 . S
C2807 C2806 1.391 . S
H2808 C2816 0.950 . S
H2809 C2821 0.950 . S
H2810 C2818 0.950 . S
H2811 C2820 0.950 . S
H2812 C2822 0.950 . S
H2813 C2824 0.950 . S
H2814 C2826 0.950 . S
H2815 C2827 0.950 . S
C2816 H2808 0.950 . S
C2816 C2817 1.386 . S
C2816 C2818 1.391 . S
C2817 C2816 1.386 . S
C2817 C2821 1.393 . S
C2818 H2810 0.950 . S
C2818 C2816 1.391 . S
C2818 C2819 1.400 . S
C2819 C2818 1.400 . S
C2819 C2820 1.398 . S
C2819 C2825 1.491 . S
C2820 H2811 0.950 . S
C2820 C2819 1.398 . S
C2820 C2821 1.391 . S
C2821 H2809 0.950 . S
C2821 C2817 1.393 . S
C2821 C2820 1.391 . S
C2822 H2812 0.950 . S
C2822 C2823 1.386 . S
C2822 C2824 1.391 . S
C2823 C2822 1.386 . S
C2823 C2827 1.393 . S
C2824 H2813 0.950 . S
C2824 C2822 1.391 . S
C2824 C2825 1.400 . S
C2825 C2819 1.491 . S
C2825 C2824 1.400 . S
C2825 C2826 1.398 . S
C2826 H2814 0.950 . S
C2826 C2825 1.398 . S
C2826 C2827 1.391 . S
C2827 H2815 0.950 . S
C2827 C2823 1.393 . S
C2827 C2826 1.391 . S
H2828 C2836 0.950 . S
H2829 C2841 0.950 . S
H2830 C2838 0.950 . S
H2831 C2840 0.950 . S
H2832 C2842 0.950 . S
H2833 C2844 0.950 . S
H2834 C2846 0.950 . S
H2835 C2847 0.950 . S
C2836 H2828 0.950 . S
C2836 C2837 1.386 . S
C2836 C2838 1.391 . S
C2837 C2836 1.386 . S
C2837 C2841 1.393 . S
C2838 H2830 0.950 . S
C2838 C2836 1.391 . S
C2838 C2839 1.400 . S
C2839 C2838 1.400 . S
C2839 C2840 1.398 . S
C2839 C2845 1.491 . S
C2840 H2831 0.950 . S
C2840 C2839 1.398 . S
C2840 C2841 1.391 . S
C2841 H2829 0.950 . S
C2841 C2837 1.393 . S
C2841 C2840 1.391 . S
C2842 H2832 0.950 . S
C2842 C2843 1.386 . S
C2842 C2844 1.391 . S
C2843 C2842 1.386 . S
C2843 C2847 1.393 . S
C2844 H2833 0.950 . S
C2844 C2842 1.391 . S
C2844 C2845 1.400 . S
C2845 C2839 1.491 . S
C2845 C2844 1.400 . S
C2845 C2846 1.398 . S
C2846 H2834 0.950 . S
C2846 C2845 1.398 . S
C2846 C2847 1.391 . S
C2847 H2835 0.950 . S
C2847 C2843 1.393 . S
C2847 C2846 1.391 . S
H2848 C2856 0.950 . S
H2849 C2861 0.950 . S
H2850 C2858 0.950 . S
H2851 C2860 0.950 . S
H2852 C2862 0.950 . S
H2853 C2864 0.950 . S
H2854 C2866 0.950 . S
H2855 C2867 0.950 . S
C2856 H2848 0.950 . S
C2856 C2857 1.386 . S
C2856 C2858 1.391 . S
C2857 C2856 1.386 . S
C2857 C2861 1.393 . S
C2858 H2850 0.950 . S
C2858 C2856 1.391 . S
C2858 C2859 1.400 . S
C2859 C2858 1.400 . S
C2859 C2860 1.398 . S
C2859 C2865 1.491 . S
C2860 H2851 0.950 . S
C2860 C2859 1.398 . S
C2860 C2861 1.391 . S
C2861 H2849 0.950 . S
C2861 C2857 1.393 . S
C2861 C2860 1.391 . S
C2862 H2852 0.950 . S
C2862 C2863 1.386 . S
C2862 C2864 1.391 . S
C2863 C2862 1.386 . S
C2863 C2867 1.393 . S
C2864 H2853 0.950 . S
C2864 C2862 1.391 . S
C2864 C2865 1.400 . S
C2865 C2859 1.491 . S
C2865 C2864 1.400 . S
C2865 C2866 1.398 . S
C2866 H2854 0.950 . S
C2866 C2865 1.398 . S
C2866 C2867 1.391 . S
C2867 H2855 0.950 . S
C2867 C2863 1.393 . S
C2867 C2866 1.391 . S
H2868 C2876 0.950 . S
H2869 C2881 0.950 . S
H2870 C2878 0.950 . S
H2871 C2880 0.950 . S
H2872 C2882 0.950 . S
H2873 C2884 0.950 . S
H2874 C2886 0.950 . S
H2875 C2887 0.950 . S
C2876 H2868 0.950 . S
C2876 C2877 1.386 . S
C2876 C2878 1.391 . S
C2877 C2876 1.386 . S
C2877 C2881 1.393 . S
C2878 H2870 0.950 . S
C2878 C2876 1.391 . S
C2878 C2879 1.400 . S
C2879 C2878 1.400 . S
C2879 C2880 1.398 . S
C2879 C2885 1.491 . S
C2880 H2871 0.950 . S
C2880 C2879 1.398 . S
C2880 C2881 1.391 . S
C2881 H2869 0.950 . S
C2881 C2877 1.393 . S
C2881 C2880 1.391 . S
C2882 H2872 0.950 . S
C2882 C2883 1.386 . S
C2882 C2884 1.391 . S
C2883 C2882 1.386 . S
C2883 C2887 1.393 . S
C2884 H2873 0.950 . S
C2884 C2882 1.391 . S
C2884 C2885 1.400 . S
C2885 C2879 1.491 . S
C2885 C2884 1.400 . S
C2885 C2886 1.398 . S
C2886 H2874 0.950 . S
C2886 C2885 1.398 . S
C2886 C2887 1.391 . S
C2887 H2875 0.950 . S
C2887 C2883 1.393 . S
C2887 C2886 1.391 . S
H2888 C2896 0.950 . S
H2889 C2901 0.950 . S
H2890 C2898 0.950 . S
H2891 C2900 0.950 . S
H2892 C2902 0.950 . S
H2893 C2904 0.950 . S
H2894 C2906 0.950 . S
H2895 C2907 0.950 . S
C2896 H2888 0.950 . S
C2896 C2897 1.386 . S
C2896 C2898 1.391 . S
C2897 C2896 1.386 . S
C2897 C2901 1.393 . S
C2898 H2890 0.950 . S
C2898 C2896 1.391 . S
C2898 C2899 1.400 . S
C2899 C2898 1.400 . S
C2899 C2900 1.398 . S
C2899 C2905 1.491 . S
C2900 H2891 0.950 . S
C2900 C2899 1.398 . S
C2900 C2901 1.391 . S
C2901 H2889 0.950 . S
C2901 C2897 1.393 . S
C2901 C2900 1.391 . S
C2902 H2892 0.950 . S
C2902 C2903 1.386 . S
C2902 C2904 1.391 . S
C2903 C2902 1.386 . S
C2903 C2907 1.393 . S
C2904 H2893 0.950 . S
C2904 C2902 1.391 . S
C2904 C2905 1.400 . S
C2905 C2899 1.491 . S
C2905 C2904 1.400 . S
C2905 C2906 1.398 . S
C2906 H2894 0.950 . S
C2906 C2905 1.398 . S
C2906 C2907 1.391 . S
C2907 H2895 0.950 . S
C2907 C2903 1.393 . S
C2907 C2906 1.391 . S
H2908 C2916 0.950 . S
H2909 C2921 0.950 . S
H2910 C2918 0.950 . S
H2911 C2920 0.950 . S
H2912 C2922 0.950 . S
H2913 C2924 0.950 . S
H2914 C2926 0.950 . S
H2915 C2927 0.950 . S
C2916 H2908 0.950 . S
C2916 C2917 1.386 . S
C2916 C2918 1.391 . S
C2917 C2916 1.386 . S
C2917 C2921 1.393 1_556 S
C2918 H2910 0.950 . S
C2918 C2916 1.391 . S
C2918 C2919 1.400 . S
C2919 C2918 1.400 . S
C2919 C2920 1.398 1_556 S
C2919 C2925 1.491 1_556 S
C2920 H2911 0.950 . S
C2920 C2919 1.398 1_554 S
C2920 C2921 1.391 . S
C2921 H2909 0.950 . S
C2921 C2917 1.393 1_554 S
C2921 C2920 1.391 . S
C2922 H2912 0.950 . S
C2922 C2923 1.386 . S
C2922 C2924 1.391 . S
C2923 C2922 1.386 . S
C2923 C2927 1.393 1_554 S
C2924 H2913 0.950 . S
C2924 C2922 1.391 . S
C2924 C2925 1.400 . S
C2925 C2919 1.491 1_554 S
C2925 C2924 1.400 . S
C2925 C2926 1.398 1_554 S
C2926 H2914 0.950 . S
C2926 C2925 1.398 1_556 S
C2926 C2927 1.391 . S
C2927 H2915 0.950 . S
C2927 C2923 1.393 1_556 S
C2927 C2926 1.391 . S
H2928 C2936 0.950 . S
H2929 C2941 0.950 . S
H2930 C2938 0.950 . S
H2931 C2940 0.950 . S
H2932 C2942 0.950 . S
H2933 C2944 0.950 . S
H2934 C2946 0.950 . S
H2935 C2947 0.950 . S
C2936 H2928 0.950 . S
C2936 C2937 1.386 . S
C2936 C2938 1.391 . S
C2937 C2936 1.386 . S
C2937 C2941 1.393 . S
C2938 H2930 0.950 . S
C2938 C2936 1.391 . S
C2938 C2939 1.400 . S
C2939 C2938 1.400 . S
C2939 C2940 1.398 . S
C2939 C2945 1.491 . S
C2940 H2931 0.950 . S
C2940 C2939 1.398 . S
C2940 C2941 1.391 . S
C2941 H2929 0.950 . S
C2941 C2937 1.393 . S
C2941 C2940 1.391 . S
C2942 H2932 0.950 . S
C2942 C2943 1.386 . S
C2942 C2944 1.391 . S
C2943 C2942 1.386 . S
C2943 C2947 1.393 . S
C2944 H2933 0.950 . S
C2944 C2942 1.391 . S
C2944 C2945 1.400 . S
C2945 C2939 1.491 . S
C2945 C2944 1.400 . S
C2945 C2946 1.398 . S
C2946 H2934 0.950 . S
C2946 C2945 1.398 . S
C2946 C2947 1.391 . S
C2947 H2935 0.950 . S
C2947 C2943 1.393 . S
C2947 C2946 1.391 . S
H2948 C2956 0.950 . S
H2949 C2961 0.950 . S
H2950 C2958 0.950 . S
H2951 C2960 0.950 . S
H2952 C2962 0.950 . S
H2953 C2964 0.950 . S
H2954 C2966 0.950 . S
H2955 C2967 0.950 . S
C2956 H2948 0.950 . S
C2956 C2957 1.386 . S
C2956 C2958 1.391 . S
C2957 C2956 1.386 . S
C2957 C2961 1.393 . S
C2958 H2950 0.950 . S
C2958 C2956 1.391 . S
C2958 C2959 1.400 . S
C2959 C2958 1.400 . S
C2959 C2960 1.398 . S
C2959 C2965 1.491 . S
C2960 H2951 0.950 . S
C2960 C2959 1.398 . S
C2960 C2961 1.391 . S
C2961 H2949 0.950 . S
C2961 C2957 1.393 . S
C2961 C2960 1.391 . S
C2962 H2952 0.950 . S
C2962 C2963 1.386 . S
C2962 C2964 1.391 . S
C2963 C2962 1.386 . S
C2963 C2967 1.393 . S
C2964 H2953 0.950 . S
C2964 C2962 1.391 . S
C2964 C2965 1.400 . S
C2965 C2959 1.491 . S
C2965 C2964 1.400 . S
C2965 C2966 1.398 . S
C2966 H2954 0.950 . S
C2966 C2965 1.398 . S
C2966 C2967 1.391 . S
C2967 H2955 0.950 . S
C2967 C2963 1.393 . S
C2967 C2966 1.391 . S
H2968 C2976 0.950 . S
H2969 C2981 0.950 . S
H2970 C2978 0.950 . S
H2971 C2980 0.950 . S
H2972 C2982 0.950 . S
H2973 C2984 0.950 . S
H2974 C2986 0.950 . S
H2975 C2987 0.950 . S
C2976 H2968 0.950 . S
C2976 C2977 1.386 . S
C2976 C2978 1.391 . S
C2977 C2976 1.386 . S
C2977 C2981 1.393 . S
C2978 H2970 0.950 . S
C2978 C2976 1.391 . S
C2978 C2979 1.400 . S
C2979 C2978 1.400 . S
C2979 C2980 1.398 . S
C2979 C2985 1.491 . S
C2980 H2971 0.950 . S
C2980 C2979 1.398 . S
C2980 C2981 1.391 . S
C2981 H2969 0.950 . S
C2981 C2977 1.393 . S
C2981 C2980 1.391 . S
C2982 H2972 0.950 . S
C2982 C2983 1.386 . S
C2982 C2984 1.391 . S
C2983 C2982 1.386 . S
C2983 C2987 1.393 . S
C2984 H2973 0.950 . S
C2984 C2982 1.391 . S
C2984 C2985 1.400 . S
C2985 C2979 1.491 . S
C2985 C2984 1.400 . S
C2985 C2986 1.398 . S
C2986 H2974 0.950 . S
C2986 C2985 1.398 . S
C2986 C2987 1.391 . S
C2987 H2975 0.950 . S
C2987 C2983 1.393 . S
C2987 C2986 1.391 . S
H2988 C2996 0.950 . S
H2989 C3001 0.950 . S
H2990 C2998 0.950 . S
H2991 C3000 0.950 . S
H2992 C3002 0.950 . S
H2993 C3004 0.950 . S
H2994 C3006 0.950 . S
H2995 C3007 0.950 . S
C2996 H2988 0.950 . S
C2996 C2997 1.386 . S
C2996 C2998 1.391 . S
C2997 C2996 1.386 . S
C2997 C3001 1.393 . S
C2998 H2990 0.950 . S
C2998 C2996 1.391 . S
C2998 C2999 1.400 . S
C2999 C2998 1.400 . S
C2999 C3000 1.398 1_554 S
C2999 C3005 1.491 1_554 S
C3000 H2991 0.950 . S
C3000 C2999 1.398 1_556 S
C3000 C3001 1.391 1_556 S
C3001 H2989 0.950 . S
C3001 C2997 1.393 . S
C3001 C3000 1.391 1_554 S
C3002 H2992 0.950 . S
C3002 C3003 1.386 . S
C3002 C3004 1.391 . S
C3003 C3002 1.386 . S
C3003 C3007 1.393 . S
C3004 H2993 0.950 . S
C3004 C3002 1.391 . S
C3004 C3005 1.400 . S
C3005 C2999 1.491 1_556 S
C3005 C3004 1.400 . S
C3005 C3006 1.398 1_556 S
C3006 H2994 0.950 . S
C3006 C3005 1.398 1_554 S
C3006 C3007 1.391 1_554 S
C3007 H2995 0.950 . S
C3007 C3003 1.393 . S
C3007 C3006 1.391 1_556 S
H3008 C3016 0.950 . S
H3009 C3021 0.950 . S
H3010 C3018 0.950 . S
H3011 C3020 0.950 . S
H3012 C3022 0.950 . S
H3013 C3024 0.950 . S
H3014 C3026 0.950 . S
H3015 C3027 0.950 . S
C3016 H3008 0.950 . S
C3016 C3017 1.386 . S
C3016 C3018 1.391 . S
C3017 C3016 1.386 . S
C3017 C3021 1.393 . S
C3018 H3010 0.950 . S
C3018 C3016 1.391 . S
C3018 C3019 1.400 . S
C3019 C3018 1.400 . S
C3019 C3020 1.398 . S
C3019 C3025 1.491 1_565 S
C3020 H3011 0.950 . S
C3020 C3019 1.398 . S
C3020 C3021 1.391 . S
C3021 H3009 0.950 . S
C3021 C3017 1.393 . S
C3021 C3020 1.391 . S
C3022 H3012 0.950 . S
C3022 C3023 1.386 . S
C3022 C3024 1.391 . S
C3023 C3022 1.386 . S
C3023 C3027 1.393 . S
C3024 H3013 0.950 . S
C3024 C3022 1.391 . S
C3024 C3025 1.400 . S
C3025 C3019 1.491 1_545 S
C3025 C3024 1.400 . S
C3025 C3026 1.398 . S
C3026 H3014 0.950 . S
C3026 C3025 1.398 . S
C3026 C3027 1.391 . S
C3027 H3015 0.950 . S
C3027 C3023 1.393 . S
C3027 C3026 1.391 . S
H3028 C3036 0.950 . S
H3029 C3041 0.950 . S
H3030 C3038 0.950 . S
H3031 C3040 0.950 . S
H3032 C3042 0.950 . S
H3033 C3044 0.950 . S
H3034 C3046 0.950 . S
H3035 C3047 0.950 . S
C3036 H3028 0.950 . S
C3036 C3037 1.386 1_556 S
C3036 C3038 1.391 . S
C3037 C3036 1.386 1_554 S
C3037 C3041 1.393 . S
C3038 H3030 0.950 . S
C3038 C3036 1.391 . S
C3038 C3039 1.400 1_556 S
C3039 C3038 1.400 1_554 S
C3039 C3040 1.398 . S
C3039 C3045 1.491 1_554 S
C3040 H3031 0.950 . S
C3040 C3039 1.398 . S
C3040 C3041 1.391 . S
C3041 H3029 0.950 . S
C3041 C3037 1.393 . S
C3041 C3040 1.391 . S
C3042 H3032 0.950 . S
C3042 C3043 1.386 1_554 S
C3042 C3044 1.391 . S
C3043 C3042 1.386 1_556 S
C3043 C3047 1.393 . S
C3044 H3033 0.950 . S
C3044 C3042 1.391 . S
C3044 C3045 1.400 1_554 S
C3045 C3039 1.491 1_556 S
C3045 C3044 1.400 1_556 S
C3045 C3046 1.398 . S
C3046 H3034 0.950 . S
C3046 C3045 1.398 . S
C3046 C3047 1.391 . S
C3047 H3035 0.950 . S
C3047 C3043 1.393 . S
C3047 C3046 1.391 . S
H3048 C3056 0.950 . S
H3049 C3061 0.950 . S
H3050 C3058 0.950 . S
H3051 C3060 0.950 . S
H3052 C3062 0.950 . S
H3053 C3064 0.950 . S
H3054 C3066 0.950 . S
H3055 C3067 0.950 . S
C3056 H3048 0.950 . S
C3056 C3057 1.386 . S
C3056 C3058 1.391 . S
C3057 C3056 1.386 . S
C3057 C3061 1.393 . S
C3058 H3050 0.950 . S
C3058 C3056 1.391 . S
C3058 C3059 1.400 . S
C3059 C3058 1.400 . S
C3059 C3060 1.398 . S
C3059 C3065 1.491 1_545 S
C3060 H3051 0.950 . S
C3060 C3059 1.398 . S
C3060 C3061 1.391 . S
C3061 H3049 0.950 . S
C3061 C3057 1.393 . S
C3061 C3060 1.391 . S
C3062 H3052 0.950 . S
C3062 C3063 1.386 . S
C3062 C3064 1.391 . S
C3063 C3062 1.386 . S
C3063 C3067 1.393 . S
C3064 H3053 0.950 . S
C3064 C3062 1.391 . S
C3064 C3065 1.400 . S
C3065 C3059 1.491 1_565 S
C3065 C3064 1.400 . S
C3065 C3066 1.398 . S
C3066 H3054 0.950 . S
C3066 C3065 1.398 . S
C3066 C3067 1.391 . S
C3067 H3055 0.950 . S
C3067 C3063 1.393 . S
C3067 C3066 1.391 . S
H3068 C3076 0.950 . S
H3069 C3081 0.950 . S
H3070 C3078 0.950 . S
H3071 C3080 0.950 . S
H3072 C3082 0.950 . S
H3073 C3084 0.950 . S
H3074 C3086 0.950 . S
H3075 C3087 0.950 . S
C3076 H3068 0.950 . S
C3076 C3077 1.386 . S
C3076 C3078 1.391 . S
C3077 C3076 1.386 . S
C3077 C3081 1.393 . S
C3078 H3070 0.950 . S
C3078 C3076 1.391 . S
C3078 C3079 1.400 . S
C3079 C3078 1.400 . S
C3079 C3080 1.398 . S
C3079 C3085 1.491 . S
C3080 H3071 0.950 . S
C3080 C3079 1.398 . S
C3080 C3081 1.391 . S
C3081 H3069 0.950 . S
C3081 C3077 1.393 . S
C3081 C3080 1.391 . S
C3082 H3072 0.950 . S
C3082 C3083 1.386 . S
C3082 C3084 1.391 . S
C3083 C3082 1.386 . S
C3083 C3087 1.393 . S
C3084 H3073 0.950 . S
C3084 C3082 1.391 . S
C3084 C3085 1.400 . S
C3085 C3079 1.491 . S
C3085 C3084 1.400 . S
C3085 C3086 1.398 . S
C3086 H3074 0.950 . S
C3086 C3085 1.398 . S
C3086 C3087 1.391 . S
C3087 H3075 0.950 . S
C3087 C3083 1.393 . S
C3087 C3086 1.391 . S
H3088 C3096 0.950 . S
H3089 C3101 0.950 . S
H3090 C3098 0.950 . S
H3091 C3100 0.950 . S
H3092 C3102 0.950 . S
H3093 C3104 0.950 . S
H3094 C3106 0.950 . S
H3095 C3107 0.950 . S
C3096 H3088 0.950 . S
C3096 C3097 1.386 . S
C3096 C3098 1.391 . S
C3097 C3096 1.386 . S
C3097 C3101 1.393 . S
C3098 H3090 0.950 . S
C3098 C3096 1.391 . S
C3098 C3099 1.400 . S
C3099 C3098 1.400 . S
C3099 C3100 1.398 . S
C3099 C3105 1.491 1_545 S
C3100 H3091 0.950 . S
C3100 C3099 1.398 . S
C3100 C3101 1.391 . S
C3101 H3089 0.950 . S
C3101 C3097 1.393 . S
C3101 C3100 1.391 . S
C3102 H3092 0.950 . S
C3102 C3103 1.386 . S
C3102 C3104 1.391 . S
C3103 C3102 1.386 . S
C3103 C3107 1.393 . S
C3104 H3093 0.950 . S
C3104 C3102 1.391 . S
C3104 C3105 1.400 . S
C3105 C3099 1.491 1_565 S
C3105 C3104 1.400 . S
C3105 C3106 1.398 . S
C3106 H3094 0.950 . S
C3106 C3105 1.398 . S
C3106 C3107 1.391 . S
C3107 H3095 0.950 . S
C3107 C3103 1.393 . S
C3107 C3106 1.391 . S
H3108 C3116 0.950 1_556 S
H3109 C3121 0.950 . S
H3110 C3118 0.950 . S
H3111 C3120 0.950 . S
H3112 C3122 0.950 1_554 S
H3113 C3124 0.950 . S
H3114 C3126 0.950 . S
H3115 C3127 0.950 . S
C3116 H3108 0.950 1_554 S
C3116 C3117 1.386 . S
C3116 C3118 1.391 1_554 S
C3117 C3116 1.386 . S
C3117 C3121 1.393 . S
C3118 H3110 0.950 . S
C3118 C3116 1.391 1_556 S
C3118 C3119 1.400 1_556 S
C3119 C3118 1.400 1_554 S
C3119 C3120 1.398 . S
C3119 C3125 1.491 1_554 S
C3120 H3111 0.950 . S
C3120 C3119 1.398 . S
C3120 C3121 1.391 . S
C3121 H3109 0.950 . S
C3121 C3117 1.393 . S
C3121 C3120 1.391 . S
C3122 H3112 0.950 1_556 S
C3122 C3123 1.386 . S
C3122 C3124 1.391 1_556 S
C3123 C3122 1.386 . S
C3123 C3127 1.393 . S
C3124 H3113 0.950 . S
C3124 C3122 1.391 1_554 S
C3124 C3125 1.400 1_554 S
C3125 C3119 1.491 1_556 S
C3125 C3124 1.400 1_556 S
C3125 C3126 1.398 . S
C3126 H3114 0.950 . S
C3126 C3125 1.398 . S
C3126 C3127 1.391 . S
C3127 H3115 0.950 . S
C3127 C3123 1.393 . S
C3127 C3126 1.391 . S
H3128 C3136 0.950 . S
H3129 C3141 0.950 . S
H3130 C3138 0.950 . S
H3131 C3140 0.950 . S
H3132 C3142 0.950 . S
H3133 C3144 0.950 . S
H3134 C3146 0.950 . S
H3135 C3147 0.950 . S
C3136 H3128 0.950 . S
C3136 C3137 1.386 . S
C3136 C3138 1.391 . S
C3137 C3136 1.386 . S
C3137 C3141 1.393 . S
C3138 H3130 0.950 . S
C3138 C3136 1.391 . S
C3138 C3139 1.400 . S
C3139 C3138 1.400 . S
C3139 C3140 1.398 . S
C3139 C3145 1.491 1_545 S
C3140 H3131 0.950 . S
C3140 C3139 1.398 . S
C3140 C3141 1.391 . S
C3141 H3129 0.950 . S
C3141 C3137 1.393 . S
C3141 C3140 1.391 . S
C3142 H3132 0.950 . S
C3142 C3143 1.386 . S
C3142 C3144 1.391 . S
C3143 C3142 1.386 . S
C3143 C3147 1.393 . S
C3144 H3133 0.950 . S
C3144 C3142 1.391 . S
C3144 C3145 1.400 . S
C3145 C3139 1.491 1_565 S
C3145 C3144 1.400 . S
C3145 C3146 1.398 . S
C3146 H3134 0.950 . S
C3146 C3145 1.398 . S
C3146 C3147 1.391 . S
C3147 H3135 0.950 . S
C3147 C3143 1.393 . S
C3147 C3146 1.391 . S
H3148 C3156 0.950 . S
H3149 C3161 0.950 . S
H3150 C3158 0.950 . S
H3151 C3160 0.950 . S
H3152 C3162 0.950 . S
H3153 C3164 0.950 . S
H3154 C3166 0.950 . S
H3155 C3167 0.950 . S
C3156 H3148 0.950 . S
C3156 C3157 1.386 . S
C3156 C3158 1.391 . S
C3157 C3156 1.386 . S
C3157 C3161 1.393 . S
C3158 H3150 0.950 . S
C3158 C3156 1.391 . S
C3158 C3159 1.400 . S
C3159 C3158 1.400 . S
C3159 C3160 1.398 . S
C3159 C3165 1.491 . S
C3160 H3151 0.950 . S
C3160 C3159 1.398 . S
C3160 C3161 1.391 . S
C3161 H3149 0.950 . S
C3161 C3157 1.393 . S
C3161 C3160 1.391 . S
C3162 H3152 0.950 . S
C3162 C3163 1.386 . S
C3162 C3164 1.391 . S
C3163 C3162 1.386 . S
C3163 C3167 1.393 . S
C3164 H3153 0.950 . S
C3164 C3162 1.391 . S
C3164 C3165 1.400 . S
C3165 C3159 1.491 . S
C3165 C3164 1.400 . S
C3165 C3166 1.398 . S
C3166 H3154 0.950 . S
C3166 C3165 1.398 . S
C3166 C3167 1.391 . S
C3167 H3155 0.950 . S
C3167 C3163 1.393 . S
C3167 C3166 1.391 . S
C1897 C3 1.293 . S
C1903 C1242 1.285 . S
C1917 C1301 1.294 . S
C1923 C62 1.286 . S
C1937 C121 1.287 . S
C1943 C1360 1.294 . S
C1957 C1183 1.288 . S
C1963 C180 1.283 . S
C1977 C239 1.285 . S
C1983 C1124 1.293 . S
C1997 C298 1.289 . S
C2003 C947 1.283 . S
C2017 C1006 1.283 . S
C2023 C357 1.287 . S
C2037 C416 1.286 . S
C2043 C1065 1.283 . S
C2057 C475 1.290 . S
C2063 C1714 1.283 . S
C2077 C534 1.294 . S
C2083 C1773 1.290 . S
C2097 C1832 1.289 . S
C2103 C593 1.294 . S
C2117 C1655 1.287 . S
C2123 C652 1.283 . S
C2137 C711 1.294 . S
C2143 C1596 1.290 . S
C2157 C1419 1.294 . S
C2163 C770 1.291 . S
C2177 C829 1.284 . S
C2183 C1478 1.285 . S
C2197 C1537 1.285 . S
C2203 C888 1.284 . S
C2217 C52 1.515 . S
C2223 C564 1.500 . S
C2237 C111 1.516 . S
C2243 C1567 1.501 . S
C2257 C682 1.508 . S
C2263 C170 1.511 . S
C2277 C229 1.511 . S
C2283 C1449 1.508 . S
C2297 C288 1.512 . S
C2303 C918 1.504 . S
C2317 C1685 1.511 . S
C2323 C347 1.512 . S
C2337 C800 1.503 . S
C2343 C406 1.516 . S
C2357 C1803 1.509 . S
C2363 C465 1.511 . S
C2377 C524 1.512 . S
C2383 C92 1.511 . S
C2397 C1095 1.509 . S
C2403 C583 1.511 . S
C2417 C210 1.507 . S
C2423 C642 1.515 . S
C2437 C701 1.515 . S
C2443 C977 1.508 . S
C2457 C446 1.500 . S
C2463 C760 1.514 . S
C2477 C1213 1.510 . S
C2483 C819 1.514 . S
C2497 C328 1.511 . S
C2503 C878 1.511 . S
C2517 C937 1.516 . S
C2523 C1331 1.506 . S
C2537 C1508 1.506 . S
C2543 C996 1.511 . S
C2557 C623 1.508 . S
C2563 C1055 1.515 . S
C2577 C1626 1.508 . S
C2583 C1114 1.511 . S
C2597 C1173 1.513 . S
C2603 C505 1.511 . S
C2617 C1862 1.502 . S
C2623 C1232 1.513 . S
C2637 C741 1.500 . S
C2643 C1291 1.516 . S
C2657 C1744 1.509 . S
C2663 C1350 1.514 . S
C2677 C1409 1.516 . S
C2683 C859 1.503 . S
C2697 C1468 1.512 . S
C2703 C1036 1.511 . S
C2717 C151 1.511 . S
C2723 C1527 1.512 . S
C2737 C1586 1.513 . S
C2743 C1154 1.511 . S
C2757 C1645 1.512 . S
C2763 C33 1.511 . S
C2777 C1704 1.515 . S
C2783 C1390 1.500 . S
C2797 C269 1.508 . S
C2803 C1763 1.511 . S
C2817 C1272 1.507 . S
C2823 C1822 1.515 . S
C2837 C1881 1.514 . S
C2843 C387 1.509 . S
C2857 C5 1.370 . S
C2863 C241 1.371 . S
C2877 C64 1.382 . S
C2883 C300 1.382 . S
C2897 C359 1.378 . S
C2903 C123 1.380 . S
C2917 C418 1.375 . S
C2923 C182 1.372 . S
C2937 C713 1.371 . S
C2943 C477 1.372 . S
C2957 C772 1.371 . S
C2963 C536 1.371 . S
C2977 C831 1.371 . S
C2983 C595 1.373 . S
C2997 C890 1.380 . S
C3003 C654 1.381 . S
C3017 C949 1.379 . S
C3023 C1185 1.377 . S
C3037 C1008 1.376 . S
C3043 C1244 1.378 . S
C3057 C1067 1.382 . S
C3063 C1303 1.382 . S
C3077 C1362 1.374 . S
C3083 C1126 1.372 . S
C3097 C1421 1.377 . S
C3103 C1657 1.374 . S
C3117 C1716 1.382 . S
C3123 C1480 1.380 . S
C3137 C1775 1.382 . S
C3143 C1539 1.381 . S
C3157 C1834 1.374 . S
C3163 C1598 1.376 . S
