# Generated by pormake.
# Topology pcb, (4)-cn, num edge types: 1
# Building blocks:
#     Node 0, Type 0, BuildingBlock: GALJAG_clean_sbu_0, # of connection points: 4
#     Node 1, Type 0, BuildingBlock: GALJAG_clean_sbu_0, # of connection points: 4
#     Node 2, Type 0, BuildingBlock: GALJAG_clean_sbu_0, # of connection points: 4
#     Node 3, Type 0, BuildingBlock: GALJAG_clean_sbu_0, # of connection points: 4
#     Node 4, Type 0, BuildingBlock: GALJAG_clean_sbu_0, # of connection points: 4
#     Node 5, Type 0, BuildingBlock: GALJAG_clean_sbu_0, # of connection points: 4
#     Node 6, Type 0, BuildingBlock: GALJAG_clean_sbu_0, # of connection points: 4
#     Node 7, Type 0, BuildingBlock: GALJAG_clean_sbu_0, # of connection points: 4
#     Node 8, Type 0, BuildingBlock: GALJAG_clean_sbu_0, # of connection points: 4
#     Node 9, Type 0, BuildingBlock: GALJAG_clean_sbu_0, # of connection points: 4
#     Node 10, Type 0, BuildingBlock: GALJAG_clean_sbu_0, # of connection points: 4
#     Node 11, Type 0, BuildingBlock: GALJAG_clean_sbu_0, # of connection points: 4
#     Node 12, Type 0, BuildingBlock: GALJAG_clean_sbu_0, # of connection points: 4
#     Node 13, Type 0, BuildingBlock: GALJAG_clean_sbu_0, # of connection points: 4
#     Node 14, Type 0, BuildingBlock: GALJAG_clean_sbu_0, # of connection points: 4
#     Node 15, Type 0, BuildingBlock: GALJAG_clean_sbu_0, # of connection points: 4
#     Edge 16, Type (0, 0), BuildingBlock: XIVTED_clean_linker_0, # of connection points: 2
#     Edge 17, Type (0, 0), BuildingBlock: XIVTED_clean_linker_0, # of connection points: 2
#     Edge 18, Type (0, 0), BuildingBlock: XIVTED_clean_linker_0, # of connection points: 2
#     Edge 19, Type (0, 0), BuildingBlock: XIVTED_clean_linker_0, # of connection points: 2
#     Edge 20, Type (0, 0), BuildingBlock: XIVTED_clean_linker_0, # of connection points: 2
#     Edge 21, Type (0, 0), BuildingBlock: XIVTED_clean_linker_0, # of connection points: 2
#     Edge 22, Type (0, 0), BuildingBlock: XIVTED_clean_linker_0, # of connection points: 2
#     Edge 23, Type (0, 0), BuildingBlock: XIVTED_clean_linker_0, # of connection points: 2
#     Edge 24, Type (0, 0), BuildingBlock: XIVTED_clean_linker_0, # of connection points: 2
#     Edge 25, Type (0, 0), BuildingBlock: XIVTED_clean_linker_0, # of connection points: 2
#     Edge 26, Type (0, 0), BuildingBlock: XIVTED_clean_linker_0, # of connection points: 2
#     Edge 27, Type (0, 0), BuildingBlock: XIVTED_clean_linker_0, # of connection points: 2
#     Edge 28, Type (0, 0), BuildingBlock: XIVTED_clean_linker_0, # of connection points: 2
#     Edge 29, Type (0, 0), BuildingBlock: XIVTED_clean_linker_0, # of connection points: 2
#     Edge 30, Type (0, 0), BuildingBlock: XIVTED_clean_linker_0, # of connection points: 2
#     Edge 31, Type (0, 0), BuildingBlock: XIVTED_clean_linker_0, # of connection points: 2
#     Edge 32, Type (0, 0), BuildingBlock: XIVTED_clean_linker_0, # of connection points: 2
#     Edge 33, Type (0, 0), BuildingBlock: XIVTED_clean_linker_0, # of connection points: 2
#     Edge 34, Type (0, 0), BuildingBlock: XIVTED_clean_linker_0, # of connection points: 2
#     Edge 35, Type (0, 0), BuildingBlock: XIVTED_clean_linker_0, # of connection points: 2
#     Edge 36, Type (0, 0), BuildingBlock: XIVTED_clean_linker_0, # of connection points: 2
#     Edge 37, Type (0, 0), BuildingBlock: XIVTED_clean_linker_0, # of connection points: 2
#     Edge 38, Type (0, 0), BuildingBlock: XIVTED_clean_linker_0, # of connection points: 2
#     Edge 39, Type (0, 0), BuildingBlock: XIVTED_clean_linker_0, # of connection points: 2
#     Edge 40, Type (0, 0), BuildingBlock: XIVTED_clean_linker_0, # of connection points: 2
#     Edge 41, Type (0, 0), BuildingBlock: XIVTED_clean_linker_0, # of connection points: 2
#     Edge 42, Type (0, 0), BuildingBlock: XIVTED_clean_linker_0, # of connection points: 2
#     Edge 43, Type (0, 0), BuildingBlock: XIVTED_clean_linker_0, # of connection points: 2
#     Edge 44, Type (0, 0), BuildingBlock: XIVTED_clean_linker_0, # of connection points: 2
#     Edge 45, Type (0, 0), BuildingBlock: XIVTED_clean_linker_0, # of connection points: 2
#     Edge 46, Type (0, 0), BuildingBlock: XIVTED_clean_linker_0, # of connection points: 2
#     Edge 47, Type (0, 0), BuildingBlock: XIVTED_clean_linker_0, # of connection points: 2
# Relax obj value: 0.356
# Max RMSD: 0.193
# Mean RMSD: 0.171
data_MOF--net-pcb--node1-GALJAG_clean_sbu_0--edge1-XIVTED_clean_linker_0
_symmetry_space_group_name_H-M    P1
_symmetry_Int_Tables_number       1
_symmetry_cell_setting            triclinic
loop_
_symmetry_equiv_pos_as_xyz
'x, y, z'
_cell_length_a     38.072436
_cell_length_b     48.238662
_cell_length_c     48.41344
_cell_angle_alpha  98.967459
_cell_angle_beta   95.898776
_cell_angle_gamma 95.948812
loop_
_atom_site_label
_atom_site_type_symbol
_atom_site_fract_x
_atom_site_fract_y
_atom_site_fract_z
_atom_type_partial_charge
In0 In 0.2502 0.14466 0.11695 0.0
O1 O 0.27902 0.1767 0.15384 0.0
O2 O 0.24425 0.19137 0.12362 0.0
C3 C 0.28083 0.10026 0.13074 0.0
C4 C 0.18228 0.13048 0.12635 0.0
C5 C 0.2693 0.15348 0.06695 0.0
O6 O 0.28669 0.12438 0.146 0.0
O7 O 0.26026 0.09876 0.10823 0.0
O8 O 0.23853 0.15574 0.07375 0.0
O9 O 0.29101 0.14646 0.08538 0.0
C10 C 0.26414 0.19713 0.14669 0.0
O11 O 0.19211 0.12586 0.10212 0.0
O12 O 0.20676 0.14129 0.14562 0.0
In13 In 0.85733 0.13925 0.15878 0.0
O14 O 0.85804 0.16953 0.20037 0.0
O15 O 0.81004 0.14334 0.18278 0.0
C16 C 0.92634 0.13381 0.15441 0.0
C17 C 0.83384 0.08407 0.15166 0.0
C18 C 0.83853 0.17354 0.12245 0.0
O19 O 0.90235 0.12846 0.13371 0.0
O20 O 0.9157 0.14227 0.17784 0.0
O21 O 0.82135 0.14975 0.12246 0.0
O22 O 0.86536 0.1801 0.14078 0.0
C23 C 0.82557 0.16238 0.20223 0.0
O24 O 0.82967 0.09854 0.13223 0.0
O25 O 0.85012 0.09744 0.17472 0.0
In26 In 0.79013 0.81964 0.11315 0.0
O27 O 0.76727 0.80805 0.152 0.0
O28 O 0.78704 0.77582 0.12481 0.0
C29 C 0.78292 0.87478 0.11906 0.0
C30 C 0.8618 0.82568 0.12068 0.0
C31 C 0.74521 0.80111 0.06579 0.0
O32 O 0.77528 0.86012 0.13759 0.0
O33 O 0.79349 0.86146 0.09753 0.0
O34 O 0.77754 0.79699 0.0679 0.0
O35 O 0.7353 0.81393 0.08787 0.0
C36 C 0.77335 0.78264 0.14712 0.0
O37 O 0.84415 0.81255 0.09806 0.0
O38 O 0.84332 0.83523 0.13925 0.0
In39 In 0.19955 0.86581 0.15669 0.0
O40 O 0.14515 0.88051 0.16278 0.0
O41 O 0.14674 0.83877 0.14144 0.0
C42 C 0.24332 0.91424 0.17225 0.0
C43 C 0.21731 0.83506 0.19642 0.0
C44 C 0.20844 0.85836 0.10204 0.0
O45 O 0.21114 0.91204 0.17684 0.0
O46 O 0.25372 0.89171 0.16077 0.0
O47 O 0.21549 0.84011 0.11727 0.0
O48 O 0.19722 0.88008 0.11448 0.0
C49 C 0.12789 0.85743 0.15028 0.0
O50 O 0.22216 0.82782 0.17104 0.0
O51 O 0.20432 0.858 0.20174 0.0
In52 In 0.11769 0.82257 0.84341 0.0
O53 O 0.12596 0.79711 0.80124 0.0
O54 O 0.14197 0.78121 0.83834 0.0
C55 C 0.04784 0.82036 0.84955 0.0
C56 C 0.15114 0.82794 0.89576 0.0
C57 C 0.13819 0.86789 0.82011 0.0
O58 O 0.0591 0.80527 0.82944 0.0
O59 O 0.07171 0.83588 0.86662 0.0
O60 O 0.16016 0.85496 0.83286 0.0
O61 O 0.10604 0.858 0.81921 0.0
C62 C 0.1404 0.77832 0.81196 0.0
O63 O 0.15283 0.84787 0.88164 0.0
O64 O 0.13242 0.8054 0.88347 0.0
In65 In 0.19932 0.11978 0.81426 0.0
O66 O 0.15093 0.11196 0.83732 0.0
O67 O 0.15188 0.14499 0.81297 0.0
C68 C 0.19543 0.06408 0.79446 0.0
C69 C 0.22422 0.14809 0.7752 0.0
C70 C 0.23881 0.13636 0.86462 0.0
O71 O 0.1691 0.07779 0.79247 0.0
O72 O 0.22427 0.07871 0.80557 0.0
O73 O 0.21928 0.15212 0.85337 0.0
O74 O 0.23876 0.11213 0.8503 0.0
C75 C 0.13531 0.13144 0.82888 0.0
O76 O 0.24024 0.15018 0.79962 0.0
O77 O 0.19632 0.13077 0.76999 0.0
In78 In 0.82588 0.17698 0.88509 0.0
O79 O 0.88234 0.19238 0.87757 0.0
O80 O 0.87115 0.14957 0.88253 0.0
C81 C 0.8197 0.20678 0.9358 0.0
C82 C 0.80415 0.2028 0.84232 0.0
C83 C 0.78669 0.12695 0.88429 0.0
O84 O 0.84936 0.20405 0.92691 0.0
O85 O 0.79308 0.19529 0.91866 0.0
O86 O 0.78181 0.14145 0.86498 0.0
O87 O 0.811 0.13778 0.90381 0.0
C88 C 0.89376 0.16885 0.87811 0.0
O89 O 0.81395 0.17846 0.83852 0.0
O90 O 0.80445 0.21385 0.86776 0.0
In91 In 0.72601 0.86624 0.84736 0.0
O92 O 0.69309 0.83169 0.81506 0.0
O93 O 0.72317 0.8645 0.8 0.0
C94 C 0.69415 0.83511 0.88139 0.0
C95 C 0.79596 0.85991 0.85066 0.0
C96 C 0.71948 0.92151 0.8617 0.0
O97 O 0.6841 0.8584 0.87705 0.0
O98 O 0.71908 0.82748 0.86791 0.0
O99 O 0.74194 0.90912 0.87452 0.0
O100 O 0.69951 0.90591 0.84158 0.0
C101 C 0.70441 0.84075 0.79411 0.0
O102 O 0.77763 0.86225 0.82822 0.0
O103 O 0.77948 0.86189 0.87204 0.0
In104 In 0.72922 0.64048 0.62756 0.0
O105 O 0.76827 0.66735 0.66268 0.0
O106 O 0.74624 0.68733 0.6301 0.0
C107 C 0.74397 0.59078 0.64143 0.0
C108 C 0.66891 0.65277 0.64865 0.0
C109 C 0.72605 0.62937 0.57119 0.0
O110 O 0.76819 0.60825 0.63571 0.0
O111 O 0.7133 0.5984 0.63969 0.0
O112 O 0.69964 0.6245 0.58419 0.0
O113 O 0.7546 0.6397 0.5867 0.0
C114 C 0.76443 0.69026 0.65383 0.0
O115 O 0.67513 0.65701 0.62442 0.0
O116 O 0.69268 0.64184 0.66183 0.0
In117 In 0.35573 0.65165 0.67297 0.0
O118 O 0.33745 0.67023 0.71505 0.0
O119 O 0.30327 0.66873 0.67728 0.0
C120 C 0.42525 0.66649 0.69212 0.0
C121 C 0.34525 0.59485 0.66548 0.0
C122 C 0.34523 0.66795 0.62242 0.0
O123 O 0.40562 0.68372 0.68365 0.0
O124 O 0.40934 0.64231 0.69242 0.0
O125 O 0.32628 0.64748 0.62895 0.0
O126 O 0.36994 0.67986 0.64118 0.0
C127 C 0.30802 0.67527 0.70364 0.0
O128 O 0.36031 0.60825 0.64867 0.0
O129 O 0.33544 0.61012 0.68621 0.0
In130 In 0.30773 0.32641 0.62082 0.0
O131 O 0.35676 0.31774 0.59888 0.0
O132 O 0.36114 0.32045 0.64334 0.0
C133 C 0.25945 0.3145 0.57482 0.0
C134 C 0.28235 0.29116 0.65369 0.0
C135 C 0.31466 0.3832 0.63187 0.0
O136 O 0.28721 0.3024 0.57712 0.0
O137 O 0.25586 0.33254 0.59589 0.0
O138 O 0.29633 0.36826 0.64571 0.0
O139 O 0.32913 0.36946 0.61276 0.0
C140 C 0.37631 0.3169 0.62134 0.0
O141 O 0.29352 0.3168 0.66319 0.0
O142 O 0.28334 0.28367 0.62769 0.0
In143 In 0.71246 0.33233 0.64446 0.0
O144 O 0.73922 0.29654 0.66025 0.0
O145 O 0.73301 0.33219 0.69016 0.0
C146 C 0.72708 0.31054 0.59299 0.0
C147 C 0.64073 0.32462 0.63884 0.0
C148 C 0.73234 0.38852 0.65576 0.0
O149 O 0.74396 0.33305 0.60711 0.0
O150 O 0.70393 0.29843 0.6054 0.0
O151 O 0.70313 0.37711 0.66125 0.0
O152 O 0.75203 0.37152 0.64471 0.0
C153 C 0.74348 0.3082 0.6857 0.0
O154 O 0.65951 0.31615 0.65812 0.0
O155 O 0.6581 0.33711 0.62262 0.0
In156 In 0.63492 0.31595 0.34245 0.0
O157 O 0.66944 0.33075 0.38403 0.0
O158 O 0.64312 0.28861 0.37641 0.0
C159 C 0.6483 0.36517 0.32398 0.0
C160 C 0.67106 0.28074 0.31087 0.0
C161 C 0.56458 0.31517 0.34596 0.0
O162 O 0.66136 0.36095 0.34777 0.0
O163 O 0.62779 0.34462 0.30949 0.0
O164 O 0.57642 0.30285 0.32448 0.0
O165 O 0.58811 0.3272 0.3656 0.0
C166 C 0.66415 0.30755 0.39278 0.0
O167 O 0.63976 0.27312 0.31557 0.0
O168 O 0.68293 0.30593 0.32115 0.0
In169 In 0.67552 0.61675 0.30668 0.0
O170 O 0.71271 0.655 0.30126 0.0
O171 O 0.69491 0.62376 0.26516 0.0
C172 C 0.69124 0.61718 0.36218 0.0
C173 C 0.61344 0.63884 0.3029 0.0
C174 C 0.6791 0.56149 0.29034 0.0
O175 O 0.71411 0.62599 0.3474 0.0
O176 O 0.66086 0.60842 0.34895 0.0
O177 O 0.65105 0.57269 0.28559 0.0
O178 O 0.70575 0.57843 0.30236 0.0
C179 C 0.71272 0.64731 0.27517 0.0
O180 O 0.61734 0.6152 0.289 0.0
O181 O 0.64094 0.65141 0.31833 0.0
In182 In 0.31607 0.68464 0.37133 0.0
O183 O 0.37313 0.70284 0.36841 0.0
O184 O 0.35015 0.66675 0.33869 0.0
C185 C 0.3163 0.70316 0.42656 0.0
C186 C 0.27935 0.71475 0.33889 0.0
C187 C 0.29548 0.63033 0.37401 0.0
O188 O 0.34414 0.70466 0.41452 0.0
O189 O 0.28802 0.69366 0.4104 0.0
O190 O 0.27453 0.64569 0.36358 0.0
O191 O 0.3265 0.64237 0.38276 0.0
C192 C 0.37701 0.68464 0.34757 0.0
O193 O 0.27884 0.68836 0.33278 0.0
O194 O 0.29747 0.72593 0.36193 0.0
In195 In 0.24366 0.36551 0.34957 0.0
O196 O 0.2913 0.35333 0.32755 0.0
O197 O 0.29774 0.35954 0.37217 0.0
C198 C 0.24559 0.42196 0.36128 0.0
C199 C 0.2139 0.34146 0.2976 0.0
C200 C 0.21009 0.34149 0.3878 0.0
O201 O 0.26997 0.40886 0.37058 0.0
O202 O 0.21971 0.40652 0.34609 0.0
O203 O 0.23195 0.32963 0.37358 0.0
O204 O 0.20435 0.36546 0.38229 0.0
C205 C 0.31146 0.35306 0.34977 0.0
O206 O 0.20723 0.33148 0.31935 0.0
O207 O 0.23325 0.36496 0.30243 0.0
H208 H 0.23003 0.35592 0.24739 0.0
H209 H 0.28164 0.20587 0.20335 0.0
H210 H 0.19082 0.28528 0.28522 0.0
H211 H 0.24053 0.24637 0.13547 0.0
H212 H 0.26316 0.24306 0.23706 0.0
H213 H 0.24331 0.32244 0.20717 0.0
C214 C 0.22314 0.33347 0.24682 0.0
C215 C 0.20987 0.32328 0.26984 0.0
C216 C 0.25868 0.24391 0.21476 0.0
C217 C 0.22623 0.28551 0.22496 0.0
C218 C 0.26968 0.22302 0.19558 0.0
C219 C 0.26231 0.22302 0.16665 0.0
C220 C 0.24091 0.26515 0.20493 0.0
C221 C 0.24646 0.24566 0.15768 0.0
C222 C 0.23101 0.31451 0.22406 0.0
C223 C 0.20142 0.29403 0.26808 0.0
N224 N 0.23609 0.26596 0.17685 0.0
N225 N 0.21071 0.2761 0.24639 0.0
H226 H 0.65359 0.22498 0.28655 0.0
H227 H 0.84769 0.21136 0.23948 0.0
H228 H 0.73992 0.29306 0.30253 0.0
H229 H 0.75789 0.14714 0.21227 0.0
H230 H 0.81049 0.239 0.26861 0.0
H231 H 0.69303 0.19382 0.2638 0.0
C232 C 0.68076 0.23335 0.28518 0.0
C233 C 0.69347 0.26162 0.2962 0.0
C234 C 0.79903 0.21873 0.25646 0.0
C235 C 0.73868 0.22625 0.2707 0.0
C236 C 0.82033 0.20289 0.24002 0.0
C237 C 0.80569 0.17713 0.2233 0.0
C238 C 0.76295 0.20863 0.25612 0.0
C239 C 0.77009 0.16708 0.22469 0.0
C240 C 0.70328 0.21559 0.27234 0.0
C241 C 0.72896 0.27142 0.29413 0.0
N242 N 0.74982 0.18297 0.24064 0.0
N243 N 0.7503 0.25377 0.28162 0.0
H244 H 0.75608 0.79445 0.20062 0.0
H245 H 0.72187 0.6339 0.21973 0.0
H246 H 0.77555 0.72569 0.13779 0.0
H247 H 0.73812 0.70317 0.2897 0.0
H248 H 0.73981 0.66687 0.18871 0.0
H249 H 0.74625 0.76102 0.23299 0.0
C250 C 0.75816 0.77229 0.19364 0.0
C251 C 0.76645 0.76271 0.16653 0.0
C252 C 0.73987 0.67477 0.21092 0.0
C253 C 0.7554 0.72451 0.2033 0.0
C254 C 0.72969 0.65599 0.2286 0.0
C255 C 0.72838 0.66593 0.25722 0.0
C256 C 0.7482 0.70367 0.22193 0.0
C257 C 0.73877 0.69469 0.26771 0.0
C258 C 0.75284 0.75329 0.21215 0.0
C259 C 0.76912 0.73387 0.15855 0.0
N260 N 0.74783 0.71267 0.24997 0.0
N261 N 0.76337 0.7157 0.17682 0.0
H262 H 0.25051 0.69627 0.28447 0.0
H263 H 0.21836 0.84978 0.25319 0.0
H264 H 0.27349 0.77131 0.34796 0.0
H265 H 0.2322 0.78048 0.18876 0.0
H266 H 0.22884 0.81982 0.28886 0.0
H267 H 0.23251 0.72543 0.24978 0.0
C268 C 0.25127 0.71884 0.29119 0.0
C269 C 0.26373 0.7315 0.31901 0.0
C270 C 0.22959 0.81123 0.26691 0.0
C271 C 0.24346 0.76484 0.27952 0.0
C272 C 0.22366 0.82826 0.24659 0.0
C273 C 0.22466 0.81756 0.21808 0.0
C274 C 0.23608 0.78324 0.25856 0.0
C275 C 0.23149 0.78956 0.21058 0.0
C276 C 0.24125 0.73545 0.27136 0.0
C277 C 0.26422 0.7608 0.32663 0.0
N278 N 0.23686 0.77329 0.23073 0.0
N279 N 0.25436 0.77657 0.30692 0.0
H280 H 0.24711 0.69272 0.68203 0.0
H281 H 0.18304 0.74197 0.83192 0.0
H282 H 0.30667 0.68536 0.76084 0.0
H283 H 0.14056 0.76759 0.75496 0.0
H284 H 0.22163 0.71338 0.80528 0.0
H285 H 0.20179 0.71326 0.70786 0.0
C286 C 0.2506 0.69539 0.70482 0.0
C287 C 0.28076 0.68755 0.7194 0.0
C288 C 0.20358 0.72503 0.79421 0.0
C289 C 0.22887 0.71084 0.74903 0.0
C290 C 0.18139 0.74117 0.80933 0.0
C291 C 0.15886 0.75732 0.79559 0.0
C292 C 0.20302 0.72499 0.76519 0.0
C293 C 0.15774 0.75556 0.76636 0.0
C294 C 0.2247 0.70709 0.71953 0.0
C295 C 0.28389 0.69136 0.74887 0.0
N296 N 0.17976 0.73984 0.75213 0.0
N297 N 0.25821 0.70282 0.76279 0.0
H298 H 0.19747 0.14545 0.72015 0.0
H299 H 0.29273 0.29818 0.71109 0.0
H300 H 0.27407 0.1943 0.78638 0.0
H301 H 0.24841 0.23771 0.63721 0.0
H302 H 0.27948 0.26228 0.74035 0.0
H303 H 0.21071 0.18065 0.69008 0.0
C304 C 0.21734 0.16342 0.72822 0.0
C305 C 0.23476 0.16704 0.75571 0.0
C306 C 0.27262 0.25693 0.71773 0.0
C307 C 0.24939 0.20744 0.72184 0.0
C308 C 0.27989 0.27743 0.70109 0.0
C309 C 0.27169 0.27078 0.67177 0.0
C310 C 0.2567 0.22979 0.7049 0.0
C311 C 0.25524 0.24359 0.65979 0.0
C312 C 0.22479 0.18348 0.71113 0.0
C313 C 0.26015 0.1907 0.76524 0.0
N314 N 0.24822 0.22403 0.67643 0.0
N315 N 0.26649 0.21018 0.7484 0.0
H316 H 0.80222 0.1835 0.78607 0.0
H317 H 0.75289 0.32898 0.7419 0.0
H318 H 0.78615 0.25636 0.84538 0.0
H319 H 0.76282 0.25487 0.68188 0.0
H320 H 0.76857 0.30345 0.7802 0.0
H321 H 0.7901 0.20974 0.74757 0.0
C322 C 0.79597 0.20499 0.79095 0.0
C323 C 0.79509 0.21782 0.81888 0.0
C324 C 0.7675 0.29278 0.75866 0.0
C325 C 0.78153 0.24797 0.77509 0.0
C326 C 0.7587 0.30739 0.73681 0.0
C327 C 0.75645 0.29393 0.70875 0.0
C328 C 0.77404 0.26451 0.75239 0.0
C329 C 0.76423 0.26597 0.70328 0.0
C330 C 0.78917 0.21997 0.769 0.0
C331 C 0.78699 0.24569 0.8241 0.0
N332 N 0.77253 0.2521 0.72495 0.0
N333 N 0.78056 0.25987 0.80238 0.0
H334 H 0.72956 0.85338 0.74583 0.0
H335 H 0.78091 0.69919 0.71079 0.0
H336 H 0.68759 0.7837 0.7838 0.0
H337 H 0.75497 0.74265 0.64126 0.0
H338 H 0.76456 0.73863 0.74295 0.0
H339 H 0.7511 0.81938 0.70997 0.0
C340 C 0.72399 0.83096 0.74616 0.0
C341 C 0.70693 0.82133 0.7679 0.0
C342 C 0.76319 0.7397 0.72068 0.0
C343 C 0.73293 0.78299 0.72821 0.0
C344 C 0.77305 0.71746 0.70236 0.0
C345 C 0.7686 0.71743 0.67326 0.0
C346 C 0.74949 0.76221 0.70985 0.0
C347 C 0.75834 0.74175 0.66357 0.0
C348 C 0.73666 0.81173 0.72598 0.0
C349 C 0.70063 0.7921 0.76749 0.0
N350 N 0.74858 0.76316 0.68185 0.0
N351 N 0.71435 0.774 0.74835 0.0
H352 H 0.24025 0.18658 0.89955 0.0
H353 H 0.31554 0.1267 0.03548 0.0
H354 H 0.2781 0.10491 0.89559 0.0
H355 H 0.24192 0.18883 0.03471 0.0
H356 H 0.32014 0.12764 0.98527 0.0
H357 H 0.26008 0.19669 0.95003 0.0
C358 C 0.25333 0.17097 0.90922 0.0
C359 C 0.25682 0.14461 0.89358 0.0
C360 C 0.30362 0.14147 -0.00365 0.0
C361 C 0.27937 0.15601 0.95121 0.0
C362 C 0.30111 0.14102 0.02489 0.0
C363 C 0.27791 0.1574 0.03887 0.0
C364 C 0.28324 0.15878 0.98217 0.0
C365 C 0.25967 0.17558 0.02442 0.0
C366 C 0.26461 0.17676 0.93801 0.0
C367 C 0.27441 0.12532 0.90706 0.0
N368 N 0.26252 0.17564 -0.00323 0.0
N369 N 0.28456 0.13121 0.9353 0.0
H370 H 0.76012 0.20446 0.96271 0.0
H371 H 0.88027 0.21796 0.10909 0.0
H372 H 0.87289 0.23233 0.97684 0.0
H373 H 0.77761 0.16811 0.08622 0.0
H374 H 0.87042 0.23944 0.06677 0.0
H375 H 0.75934 0.20838 0.01357 0.0
C376 C 0.78452 0.21223 0.97655 0.0
C377 C 0.81685 0.21728 0.96562 0.0
C378 C 0.84973 0.22429 0.0714 0.0
C379 C 0.81615 0.2215 0.02356 0.0
C380 C 0.85532 0.21204 0.09551 0.0
C381 C 0.83006 0.19074 0.10066 0.0
C382 C 0.81866 0.21518 0.05253 0.0
C383 C 0.79807 0.18402 0.08261 0.0
C384 C 0.78406 0.21435 0.00555 0.0
C385 C 0.84756 0.22761 0.98446 0.0
N386 N 0.79349 0.1959 0.05908 0.0
N387 N 0.84663 0.22881 0.01256 0.0
H388 H 0.7064 0.78241 0.89003 0.0
H389 H 0.68387 0.82317 0.05162 0.0
H390 H 0.6575 0.85466 0.92483 0.0
H391 H 0.75568 0.76687 0.01775 0.0
H392 H 0.65566 0.82276 0.00372 0.0
H393 H 0.7045 0.76453 0.93436 0.0
C394 C 0.69436 0.79413 0.90678 0.0
C395 C 0.68298 0.82043 0.90412 0.0
C396 C 0.67699 0.80994 0.00687 0.0
C397 C 0.68133 0.80036 0.95495 0.0
C398 C 0.69303 0.81008 0.03417 0.0
C399 C 0.72263 0.79551 0.03847 0.0
C400 C 0.69061 0.79499 0.98391 0.0
C401 C 0.73334 0.77882 0.01523 0.0
C402 C 0.69338 0.78395 0.93209 0.0
C403 C 0.66709 0.83451 0.92623 0.0
N404 N 0.71767 0.77934 0.98888 0.0
N405 N 0.66751 0.82463 0.95107 0.0
H406 H 0.21056 0.89836 0.06837 0.0
H407 H 0.15614 0.78711 0.92871 0.0
H408 H 0.21008 0.80862 0.06652 0.0
H409 H 0.18472 0.87614 0.92913 0.0
H410 H 0.17912 0.79397 0.97865 0.0
H411 H 0.20493 0.89052 0.01704 0.0
C412 C 0.2097 0.87701 0.05709 0.0
C413 C 0.21035 0.85404 0.07155 0.0
C414 C 0.18081 0.81193 0.96773 0.0
C415 C 0.20339 0.84483 0.01288 0.0
C416 C 0.16757 0.80805 0.93928 0.0
C417 C 0.16813 0.83119 0.92496 0.0
C418 C 0.19422 0.8392 0.98195 0.0
C419 C 0.18351 0.85779 0.9395 0.0
C420 C 0.20657 0.87254 0.0278 0.0
C421 C 0.2095 0.82685 0.05604 0.0
N422 N 0.19553 0.86115 0.96733 0.0
N423 N 0.20545 0.82291 0.02743 0.0
H424 H 0.15571 0.14058 0.17671 0.0
H425 H 0.95325 0.11448 0.1061 0.0
H426 H 0.12345 0.11158 0.08794 0.0
H427 H 0.98466 0.14536 0.19468 0.0
H428 H 0.01522 0.11007 0.09984 0.0
H429 H 0.09318 0.13878 0.18449 0.0
C430 C 0.13543 0.13353 0.15888 0.0
C431 C 0.14474 0.12634 0.13159 0.0
C432 C 0.00864 0.11772 0.12068 0.0
C433 C 0.07314 0.12448 0.14033 0.0
C434 C 0.97323 0.12028 0.12429 0.0
C435 C 0.96383 0.13046 0.15095 0.0
C436 C 0.03501 0.12544 0.14389 0.0
C437 C 0.9908 0.13753 0.17375 0.0
C438 C 0.09974 0.13259 0.16334 0.0
C439 C 0.11743 0.11736 0.1093 0.0
N440 N 0.02524 0.135 0.16968 0.0
N441 N 0.08285 0.11686 0.11414 0.0
H442 H 0.78645 0.90884 0.07938 0.0
H443 H 0.8321 0.04974 0.19148 0.0
H444 H 0.77969 0.91068 0.16807 0.0
H445 H 0.80671 0.04945 0.10246 0.0
H446 H 0.81339 -0.00123 0.18362 0.0
H447 H 0.79368 0.96044 0.08738 0.0
C448 C 0.78609 0.92016 0.1005 0.0
C449 C 0.78271 0.9056 0.12315 0.0
C450 C 0.81161 0.00992 0.16586 0.0
C451 C 0.79146 0.96451 0.13252 0.0
C452 C 0.82244 0.03894 0.17031 0.0
C453 C 0.82116 0.05369 0.14754 0.0
C454 C 0.7999 -0.0044 0.1384 0.0
C455 C 0.80824 0.0388 0.12057 0.0
C456 C 0.79017 0.94959 0.10505 0.0
C457 C 0.78226 0.92119 0.15006 0.0
N458 N 0.79841 0.01048 0.1167 0.0
N459 N 0.7871 0.9499 0.15409 0.0
H460 H 0.90394 0.86074 0.16355 0.0
H461 H 0.08612 0.81332 0.11641 0.0
H462 H 0.90864 0.80123 0.08798 0.0
H463 H 0.08072 0.89038 0.17374 0.0
H464 H 0.02113 0.8054 0.10883 0.0
H465 H 0.96887 0.8687 0.17077 0.0
C466 C 0.91868 0.84929 0.1485 0.0
C467 C 0.90097 0.83028 0.12513 0.0
C468 C 0.03417 0.82407 0.12302 0.0
C469 C 0.97518 0.83923 0.13334 0.0
C470 C 0.07122 0.82855 0.12745 0.0
C471 C 0.08873 0.85254 0.14575 0.0
C472 C 0.01452 0.84354 0.13727 0.0
C473 C 0.06819 0.87164 0.15943 0.0
C474 C 0.9557 0.85394 0.15258 0.0
C475 C 0.92132 0.8161 0.10624 0.0
N476 N 0.03211 0.86666 0.15501 0.0
N477 N 0.95744 0.82076 0.11083 0.0
H478 H 0.29108 0.05097 0.09843 0.0
H479 H 0.23597 0.9633 0.20653 0.0
H480 H 0.29552 0.09174 0.18479 0.0
H481 H 0.29776 0.92821 0.1428 0.0
H482 H 0.26056 0.01084 0.20121 0.0
H483 H 0.29703 0.00593 0.11466 0.0
C484 C 0.29417 0.0505 0.12084 0.0
C485 C 0.29242 0.07487 0.14033 0.0
C486 C 0.26956 0.99271 0.18901 0.0
C487 C 0.29826 0.0236 0.15892 0.0
C488 C 0.25547 0.96564 0.192 0.0
C489 C 0.26456 0.94196 0.17481 0.0
C490 C 0.29186 -0.00405 0.16808 0.0
C491 C 0.28997 0.94602 0.15634 0.0
C492 C 0.29772 0.02488 0.13011 0.0
C493 C 0.29664 0.07329 0.16914 0.0
N494 N 0.30199 0.97259 0.15282 0.0
N495 N 0.29834 0.04784 0.17759 0.0
H496 H 0.83094 0.84427 0.80565 0.0
H497 H 0.01778 0.84416 0.89478 0.0
H498 H 0.84455 0.85985 0.89657 0.0
H499 H 0.99167 0.80117 0.80887 0.0
H500 H 0.95551 0.85219 0.89603 0.0
H501 H 0.8913 0.83143 0.80624 0.0
C502 C 0.84675 0.84513 0.82576 0.0
C503 C 0.83288 0.85327 0.85113 0.0
C504 C 0.96334 0.84073 0.87702 0.0
C505 C 0.90189 0.83851 0.85192 0.0
C506 C -0.00119 0.83614 0.87629 0.0
C507 C 0.0098 0.82209 0.85163 0.0
C508 C 0.93889 0.83162 0.85278 0.0
C509 C 0.98424 0.81208 0.82829 0.0
C510 C 0.88108 0.83758 0.82607 0.0
C511 C 0.85436 0.85377 0.87657 0.0
N512 N 0.94999 0.81735 0.82931 0.0
N513 N 0.88798 0.84664 0.87634 0.0
H514 H 0.09594 0.89725 0.78948 0.0
H515 H 0.24523 0.02884 0.80509 0.0
H516 H 0.20475 0.8969 0.82456 0.0
H517 H 0.13591 0.02856 0.77094 0.0
H518 H 0.23388 0.97784 0.80424 0.0
H519 H 0.11276 0.9425 0.77495 0.0
C520 C 0.12347 0.90661 0.79388 0.0
C521 C 0.14891 0.89358 0.8086 0.0
C522 C 0.21253 0.98886 0.79649 0.0
C523 C 0.16835 0.94544 0.79221 0.0
C524 C 0.21905 0.01793 0.79685 0.0
C525 C 0.1913 0.03295 0.7885 0.0
C526 C 0.178 0.97485 0.78783 0.0
C527 C 0.15794 0.01782 0.77792 0.0
C528 C 0.13309 0.93242 0.78555 0.0
C529 C 0.18425 0.90643 0.81349 0.0
N530 N 0.15209 0.98966 0.77826 0.0
N531 N 0.19287 0.93187 0.80563 0.0
H532 H 0.09981 0.17575 0.81816 0.0
H533 H 0.92603 0.12165 0.88319 0.0
H534 H 0.09151 0.10174 0.85808 0.0
H535 H 0.94419 0.20469 0.86085 0.0
H536 H 0.98562 0.11298 0.87226 0.0
H537 H 0.0416 0.18573 0.83156 0.0
C538 C 0.08572 0.16161 0.82975 0.0
C539 C 0.1004 0.13786 0.837 0.0
C540 C 0.97665 0.13316 0.86989 0.0
C541 C 0.03389 0.14908 0.85231 0.0
C542 C 0.94265 0.1381 0.87609 0.0
C543 C 0.93023 0.16391 0.87288 0.0
C544 C -0.00178 0.15408 0.86014 0.0
C545 C 0.95281 0.18451 0.86364 0.0
C546 C 0.05258 0.16737 0.83747 0.0
C547 C 0.08111 0.12028 0.85209 0.0
N548 N 0.98567 0.17909 0.85742 0.0
N549 N 0.04875 0.12618 0.85914 0.0
H550 H 0.74913 0.95639 0.90974 0.0
H551 H 0.73909 0.09554 0.84164 0.0
H552 H 0.69018 0.95664 0.82879 0.0
H553 H 0.79111 0.09374 0.92475 0.0
H554 H 0.71397 0.04611 0.83862 0.0
H555 H 0.75738 0.00785 0.91798 0.0
C556 C 0.73752 0.96736 0.89383 0.0
C557 C 0.71934 0.95233 0.86841 0.0
C558 C 0.73048 0.05667 0.85765 0.0
C559 C 0.72919 0.01131 0.87743 0.0
C560 C 0.74481 0.08485 0.85938 0.0
C561 C 0.7676 0.09856 0.88332 0.0
C562 C 0.73918 0.04221 0.87999 0.0
C563 C 0.77403 0.08386 0.90575 0.0
C564 C 0.74224 -0.00323 0.89852 0.0
C565 C 0.70452 0.96753 0.84863 0.0
N566 N 0.7602 0.05642 0.90341 0.0
N567 N 0.71028 -0.00372 0.85335 0.0
H568 H 0.75354 0.63659 0.39678 0.0
H569 H 0.66852 0.6044 0.53459 0.0
H570 H 0.64621 0.59769 0.39677 0.0
H571 H 0.77629 0.64359 0.53735 0.0
H572 H 0.66169 0.59937 0.48348 0.0
H573 H 0.76418 0.63731 0.44776 0.0
C574 C 0.7323 0.62813 0.40749 0.0
C575 C 0.6989 0.6172 0.39263 0.0
C576 C 0.68694 0.60896 0.49517 0.0
C577 C 0.71082 0.61791 0.45064 0.0
C578 C 0.69085 0.61182 0.52439 0.0
C579 C 0.72295 0.62456 0.54019 0.0
C580 C 0.71528 0.61906 0.48157 0.0
C581 C 0.75106 0.63368 0.52588 0.0
C582 C 0.73838 0.62853 0.43653 0.0
C583 C 0.67231 0.60644 0.40744 0.0
N584 N 0.74651 0.63092 0.4973 0.0
N585 N 0.67883 0.60714 0.4356 0.0
H586 H 0.28724 0.65228 0.58304 0.0
H587 H 0.37345 0.72409 0.46582 0.0
H588 H 0.38796 0.70549 0.60001 0.0
H589 H 0.26276 0.69005 0.4574 0.0
H590 H 0.37859 0.72031 0.5158 0.0
H591 H 0.27721 0.6674 0.53735 0.0
C592 C 0.30721 0.6672 0.57713 0.0
C593 C 0.33861 0.67747 0.59513 0.0
C594 C 0.35301 0.71416 0.50314 0.0
C595 C 0.32736 0.69488 0.54296 0.0
C596 C 0.35004 0.71639 0.47464 0.0
C597 C 0.31774 0.70705 0.45744 0.0
C598 C 0.32359 0.70213 0.51431 0.0
C599 C 0.28822 0.69732 0.4699 0.0
C600 C 0.30137 0.67598 0.55114 0.0
C601 C 0.36347 0.69697 0.58662 0.0
N602 N 0.29201 0.69465 0.49751 0.0
N603 N 0.35749 0.70484 0.56096 0.0
H604 H 0.17616 0.36822 0.42961 0.0
H605 H 0.25517 0.27184 0.53012 0.0
H606 H 0.2163 0.2895 0.40163 0.0
H607 H 0.20979 0.34787 0.55905 0.0
H608 H 0.22558 0.27101 0.48284 0.0
H609 H 0.17204 0.35443 0.47577 0.0
C610 C 0.18314 0.34768 0.43294 0.0
C611 C 0.19764 0.33032 0.41216 0.0
C612 C 0.22144 0.28761 0.49959 0.0
C613 C 0.19356 0.31465 0.46485 0.0
C614 C 0.2384 0.28808 0.52657 0.0
C615 C 0.23562 0.31036 0.54823 0.0
C616 C 0.20229 0.30996 0.49414 0.0
C617 C 0.21307 0.33057 0.54273 0.0
C618 C 0.18089 0.33983 0.45932 0.0
C619 C 0.20585 0.30382 0.41739 0.0
N620 N 0.19792 0.3303 0.51602 0.0
N621 N 0.20445 0.29705 0.44343 0.0
H622 H 0.71789 0.34173 0.4269 0.0
H623 H 0.69001 0.26517 0.55716 0.0
H624 H 0.64932 0.26341 0.42076 0.0
H625 H 0.76793 0.33748 0.55977 0.0
H626 H 0.6821 0.25917 0.5058 0.0
H627 H 0.74288 0.33639 0.47389 0.0
C628 C 0.70824 0.3233 0.43544 0.0
C629 C 0.68109 0.30322 0.42021 0.0
C630 C 0.70148 0.27599 0.51756 0.0
C631 C 0.70946 0.29698 0.47402 0.0
C632 C 0.7061 0.27936 0.54688 0.0
C633 C 0.7291 0.30222 0.56268 0.0
C634 C 0.71973 0.29582 0.5041 0.0
C635 C 0.74952 0.31982 0.54836 0.0
C636 C 0.72266 0.32016 0.46221 0.0
C637 C 0.66995 0.27954 0.43201 0.0
N638 N 0.74383 0.31659 0.51985 0.0
N639 N 0.68384 0.27726 0.45845 0.0
H640 H 0.64375 0.63601 0.69494 0.0
H641 H 0.46626 0.70951 0.67594 0.0
H642 H 0.62015 0.68545 0.62987 0.0
H643 H 0.47303 0.63537 0.71495 0.0
H644 H 0.52965 0.71119 0.67066 0.0
H645 H 0.58759 0.64539 0.71297 0.0
C646 C 0.62687 0.64903 0.6846 0.0
C647 C 0.63623 0.65964 0.66064 0.0
C648 C 0.51735 0.69491 0.68086 0.0
C649 C 0.57251 0.67074 0.68137 0.0
C650 C 0.4813 0.69406 0.68412 0.0
C651 C 0.46436 0.67201 0.69554 0.0
C652 C 0.53651 0.67373 0.68936 0.0
C653 C 0.48506 0.65252 0.70574 0.0
C654 C 0.59493 0.65438 0.69492 0.0
C655 C 0.6136 0.67655 0.64816 0.0
N656 N 0.52005 0.65364 0.70213 0.0
N657 N 0.58266 0.6815 0.65862 0.0
H658 H 0.31158 0.5608 0.69747 0.0
H659 H 0.35121 0.41845 0.6033 0.0
H660 H 0.36698 0.55817 0.62385 0.0
H661 H 0.28796 0.41876 0.67237 0.0
H662 H 0.35838 0.46989 0.61174 0.0
H663 H 0.30361 0.50899 0.6898 0.0
C664 C 0.32204 0.54931 0.67971 0.0
C665 C 0.33996 0.56372 0.66125 0.0
C666 C 0.34288 0.45879 0.62508 0.0
C667 C 0.33104 0.50468 0.65241 0.0
C668 C 0.3388 0.42939 0.62028 0.0
C669 C 0.31893 0.41435 0.63717 0.0
C670 C 0.32705 0.47338 0.64699 0.0
C671 C 0.30347 0.4296 0.65887 0.0
C672 C 0.31747 0.51978 0.67534 0.0
C673 C 0.35298 0.54788 0.63858 0.0
N674 N 0.30788 0.45836 0.6632 0.0
N675 N 0.3483 0.51923 0.63483 0.0
H676 H 0.59721 0.30478 0.67479 0.0
H677 H 0.41775 0.318 0.57856 0.0
H678 H 0.59524 0.33499 0.59536 0.0
H679 H 0.42175 0.30943 0.6662 0.0
H680 H 0.4822 0.3171 0.58173 0.0
H681 H 0.53209 0.29953 0.66942 0.0
C682 C 0.58304 0.3102 0.65618 0.0
C683 C 0.60154 0.32051 0.63557 0.0
C684 C 0.46891 0.31527 0.60021 0.0
C685 C 0.52728 0.31442 0.62923 0.0
C686 C 0.43216 0.31566 0.59838 0.0
C687 C 0.41452 0.31395 0.6222 0.0
C688 C 0.48803 0.31296 0.62599 0.0
C689 C 0.43441 0.31097 0.64738 0.0
C690 C 0.54594 0.30724 0.65315 0.0
C691 C 0.58195 0.32715 0.61184 0.0
N692 N 0.47015 0.31063 0.64864 0.0
N693 N 0.54585 0.32401 0.60931 0.0
H694 H 0.79863 0.55894 0.63048 0.0
H695 H 0.69897 0.42785 0.68589 0.0
H696 H 0.70226 0.56 0.67016 0.0
H697 H 0.78551 0.41947 0.6354 0.0
H698 H 0.70829 0.47885 0.68814 0.0
H699 H 0.80217 0.51029 0.63935 0.0
C700 C 0.77861 0.54908 0.64141 0.0
C701 C 0.74986 0.56321 0.64928 0.0
C702 C 0.72552 0.46597 0.67672 0.0
C703 C 0.75374 0.50817 0.65953 0.0
C704 C 0.72019 0.43683 0.67547 0.0
C705 C 0.74117 0.41946 0.6601 0.0
C706 C 0.75175 0.4779 0.66222 0.0
C707 C 0.7686 0.43221 0.6473 0.0
C708 C 0.78055 0.5214 0.64638 0.0
C709 C 0.72458 0.54967 0.66338 0.0
N710 N 0.77283 0.46073 0.6483 0.0
N711 N 0.72702 0.52291 0.66789 0.0
H712 H 0.34342 0.33348 0.30392 0.0
H713 H 0.53323 0.33562 0.39182 0.0
H714 H 0.36249 0.35519 0.39452 0.0
H715 H 0.50918 0.29987 0.30362 0.0
H716 H 0.47086 0.34287 0.3933 0.0
H717 H 0.40413 0.32141 0.3033 0.0
C718 C 0.36042 0.3357 0.3237 0.0
C719 C 0.348 0.34548 0.34932 0.0
C720 C 0.47912 0.33324 0.37366 0.0
C721 C 0.41753 0.33171 0.34876 0.0
C722 C 0.51472 0.32909 0.3728 0.0
C723 C 0.52638 0.31722 0.34752 0.0
C724 C 0.455 0.32573 0.349 0.0
C725 C 0.50128 0.30909 0.32354 0.0
C726 C 0.39503 0.3287 0.32334 0.0
C727 C 0.37107 0.3478 0.37431 0.0
N728 N 0.4668 0.31372 0.32481 0.0
N729 N 0.4048 0.34111 0.3734 0.0
H730 H 0.70249 0.40655 0.34533 0.0
H731 H 0.62581 0.52063 0.26417 0.0
H732 H 0.61335 0.38485 0.28008 0.0
H733 H 0.73197 0.53222 0.30848 0.0
H734 H 0.62169 0.47024 0.26703 0.0
H735 H 0.71454 0.45231 0.33058 0.0
C736 C 0.68554 0.41143 0.32779 0.0
C737 C 0.65667 0.39211 0.31406 0.0
C738 C 0.64614 0.48371 0.27563 0.0
C739 C 0.67018 0.44444 0.29712 0.0
C740 C 0.64852 0.51244 0.27397 0.0
C741 C 0.67909 0.53061 0.28647 0.0
C742 C 0.67432 0.47331 0.29025 0.0
C743 C 0.70779 0.51896 0.2988 0.0
C744 C 0.69257 0.43746 0.31924 0.0
C745 C 0.63577 0.3993 0.29128 0.0
N746 N 0.70447 0.4911 0.30083 0.0
N747 N 0.64263 0.42513 0.28373 0.0
H748 H 0.54979 0.61476 0.27323 0.0
H749 H 0.4398 0.71893 0.3646 0.0
H750 H 0.59813 0.68746 0.33377 0.0
H751 H 0.39171 0.64607 0.30416 0.0
H752 H 0.49758 0.71182 0.34862 0.0
H753 H 0.49136 0.62994 0.27916 0.0
C754 C 0.54811 0.63411 0.28749 0.0
C755 C 0.57871 0.64969 0.30331 0.0
C756 C 0.47433 0.69757 0.33863 0.0
C757 C 0.51207 0.66706 0.31041 0.0
C758 C 0.44136 0.70164 0.34774 0.0
C759 C 0.4111 0.68283 0.33592 0.0
C760 C 0.47698 0.67444 0.31768 0.0
C761 C 0.4145 0.6609 0.31402 0.0
C762 C 0.51477 0.64277 0.29091 0.0
C763 C 0.57512 0.67469 0.32137 0.0
N764 N 0.44693 0.65712 0.30581 0.0
N765 N 0.54233 0.68243 0.32468 0.0
H766 H 0.20018 0.45605 0.33986 0.0
H767 H 0.33375 0.59594 0.40102 0.0
H768 H 0.29772 0.45845 0.39464 0.0
H769 H 0.23381 0.59678 0.35041 0.0
H770 H 0.31836 0.54578 0.40131 0.0
H771 H 0.20915 0.50782 0.3459 0.0
C772 C 0.22326 0.4675 0.35336 0.0
C773 C 0.24844 0.45303 0.36657 0.0
C774 C 0.29962 0.55688 0.39024 0.0
C775 C 0.25892 0.51192 0.37345 0.0
C776 C 0.30845 0.58553 0.39003 0.0
C777 C 0.28513 0.6004 0.37546 0.0
C778 C 0.26733 0.54287 0.37556 0.0
C779 C 0.25258 0.58597 0.36178 0.0
C780 C 0.22839 0.49699 0.35678 0.0
C781 C 0.27782 0.46877 0.38388 0.0
N782 N 0.24473 0.55785 0.36196 0.0
N783 N 0.28236 0.49734 0.38666 0.0
loop_
_geom_bond_atom_site_label_1
_geom_bond_atom_site_label_2
_geom_bond_distance
_geom_bond_site_symmetry_2
_ccdc_geom_bond_type
In0 O1 2.294 . S
In0 O2 2.326 . S
In0 O6 2.266 . S
In0 O7 2.326 . S
In0 O8 2.266 . S
In0 O9 2.326 . S
In0 O11 2.294 . S
In0 O12 2.326 . S
O1 In0 2.294 . S
O1 C10 1.240 . S
O2 In0 2.326 . S
O2 C10 1.252 . S
C3 O6 1.252 . S
C3 O7 1.260 . S
C4 O11 1.240 . S
C4 O12 1.252 . S
C5 O8 1.252 . S
C5 O9 1.260 . S
O6 In0 2.266 . S
O6 C3 1.252 . S
O7 In0 2.326 . S
O7 C3 1.260 . S
O8 In0 2.266 . S
O8 C5 1.252 . S
O9 In0 2.326 . S
O9 C5 1.260 . S
C10 O1 1.240 . S
C10 O2 1.252 . S
O11 In0 2.294 . S
O11 C4 1.240 . S
O12 In0 2.326 . S
O12 C4 1.252 . S
In13 O14 2.294 . S
In13 O15 2.326 . S
In13 O19 2.266 . S
In13 O20 2.326 . S
In13 O21 2.266 . S
In13 O22 2.326 . S
In13 O24 2.294 . S
In13 O25 2.326 . S
O14 In13 2.294 . S
O14 C23 1.240 . S
O15 In13 2.326 . S
O15 C23 1.252 . S
C16 O19 1.252 . S
C16 O20 1.260 . S
C17 O24 1.240 . S
C17 O25 1.252 . S
C18 O21 1.252 . S
C18 O22 1.260 . S
O19 In13 2.266 . S
O19 C16 1.252 . S
O20 In13 2.326 . S
O20 C16 1.260 . S
O21 In13 2.266 . S
O21 C18 1.252 . S
O22 In13 2.326 . S
O22 C18 1.260 . S
C23 O14 1.240 . S
C23 O15 1.252 . S
O24 In13 2.294 . S
O24 C17 1.240 . S
O25 In13 2.326 . S
O25 C17 1.252 . S
In26 O27 2.294 . S
In26 O28 2.326 . S
In26 O32 2.266 . S
In26 O33 2.326 . S
In26 O34 2.266 . S
In26 O35 2.326 . S
In26 O37 2.294 . S
In26 O38 2.326 . S
O27 In26 2.294 . S
O27 C36 1.240 . S
O28 In26 2.326 . S
O28 C36 1.252 . S
C29 O32 1.252 . S
C29 O33 1.260 . S
C30 O37 1.240 . S
C30 O38 1.252 . S
C31 O34 1.252 . S
C31 O35 1.260 . S
O32 In26 2.266 . S
O32 C29 1.252 . S
O33 In26 2.326 . S
O33 C29 1.260 . S
O34 In26 2.266 . S
O34 C31 1.252 . S
O35 In26 2.326 . S
O35 C31 1.260 . S
C36 O27 1.240 . S
C36 O28 1.252 . S
O37 In26 2.294 . S
O37 C30 1.240 . S
O38 In26 2.326 . S
O38 C30 1.252 . S
In39 O40 2.294 . S
In39 O41 2.326 . S
In39 O45 2.266 . S
In39 O46 2.326 . S
In39 O47 2.266 . S
In39 O48 2.326 . S
In39 O50 2.294 . S
In39 O51 2.326 . S
O40 In39 2.294 . S
O40 C49 1.240 . S
O41 In39 2.326 . S
O41 C49 1.252 . S
C42 O45 1.252 . S
C42 O46 1.260 . S
C43 O50 1.240 . S
C43 O51 1.252 . S
C44 O47 1.252 . S
C44 O48 1.260 . S
O45 In39 2.266 . S
O45 C42 1.252 . S
O46 In39 2.326 . S
O46 C42 1.260 . S
O47 In39 2.266 . S
O47 C44 1.252 . S
O48 In39 2.326 . S
O48 C44 1.260 . S
C49 O40 1.240 . S
C49 O41 1.252 . S
O50 In39 2.294 . S
O50 C43 1.240 . S
O51 In39 2.326 . S
O51 C43 1.252 . S
In52 O53 2.294 . S
In52 O54 2.326 . S
In52 O58 2.266 . S
In52 O59 2.326 . S
In52 O60 2.266 . S
In52 O61 2.326 . S
In52 O63 2.294 . S
In52 O64 2.326 . S
O53 In52 2.294 . S
O53 C62 1.240 . S
O54 In52 2.326 . S
O54 C62 1.252 . S
C55 O58 1.252 . S
C55 O59 1.260 . S
C56 O63 1.240 . S
C56 O64 1.252 . S
C57 O60 1.252 . S
C57 O61 1.260 . S
O58 In52 2.266 . S
O58 C55 1.252 . S
O59 In52 2.326 . S
O59 C55 1.260 . S
O60 In52 2.266 . S
O60 C57 1.252 . S
O61 In52 2.326 . S
O61 C57 1.260 . S
C62 O53 1.240 . S
C62 O54 1.252 . S
O63 In52 2.294 . S
O63 C56 1.240 . S
O64 In52 2.326 . S
O64 C56 1.252 . S
In65 O66 2.294 . S
In65 O67 2.326 . S
In65 O71 2.266 . S
In65 O72 2.326 . S
In65 O73 2.266 . S
In65 O74 2.326 . S
In65 O76 2.294 . S
In65 O77 2.326 . S
O66 In65 2.294 . S
O66 C75 1.240 . S
O67 In65 2.326 . S
O67 C75 1.252 . S
C68 O71 1.252 . S
C68 O72 1.260 . S
C69 O76 1.240 . S
C69 O77 1.252 . S
C70 O73 1.252 . S
C70 O74 1.260 . S
O71 In65 2.266 . S
O71 C68 1.252 . S
O72 In65 2.326 . S
O72 C68 1.260 . S
O73 In65 2.266 . S
O73 C70 1.252 . S
O74 In65 2.326 . S
O74 C70 1.260 . S
C75 O66 1.240 . S
C75 O67 1.252 . S
O76 In65 2.294 . S
O76 C69 1.240 . S
O77 In65 2.326 . S
O77 C69 1.252 . S
In78 O79 2.294 . S
In78 O80 2.326 . S
In78 O84 2.266 . S
In78 O85 2.326 . S
In78 O86 2.266 . S
In78 O87 2.326 . S
In78 O89 2.294 . S
In78 O90 2.326 . S
O79 In78 2.294 . S
O79 C88 1.240 . S
O80 In78 2.326 . S
O80 C88 1.252 . S
C81 O84 1.252 . S
C81 O85 1.260 . S
C82 O89 1.240 . S
C82 O90 1.252 . S
C83 O86 1.252 . S
C83 O87 1.260 . S
O84 In78 2.266 . S
O84 C81 1.252 . S
O85 In78 2.326 . S
O85 C81 1.260 . S
O86 In78 2.266 . S
O86 C83 1.252 . S
O87 In78 2.326 . S
O87 C83 1.260 . S
C88 O79 1.240 . S
C88 O80 1.252 . S
O89 In78 2.294 . S
O89 C82 1.240 . S
O90 In78 2.326 . S
O90 C82 1.252 . S
In91 O92 2.294 . S
In91 O93 2.326 . S
In91 O97 2.266 . S
In91 O98 2.326 . S
In91 O99 2.266 . S
In91 O100 2.326 . S
In91 O102 2.294 . S
In91 O103 2.326 . S
O92 In91 2.294 . S
O92 C101 1.240 . S
O93 In91 2.326 . S
O93 C101 1.252 . S
C94 O97 1.252 . S
C94 O98 1.260 . S
C95 O102 1.240 . S
C95 O103 1.252 . S
C96 O99 1.252 . S
C96 O100 1.260 . S
O97 In91 2.266 . S
O97 C94 1.252 . S
O98 In91 2.326 . S
O98 C94 1.260 . S
O99 In91 2.266 . S
O99 C96 1.252 . S
O100 In91 2.326 . S
O100 C96 1.260 . S
C101 O92 1.240 . S
C101 O93 1.252 . S
O102 In91 2.294 . S
O102 C95 1.240 . S
O103 In91 2.326 . S
O103 C95 1.252 . S
In104 O105 2.294 . S
In104 O106 2.326 . S
In104 O110 2.266 . S
In104 O111 2.326 . S
In104 O112 2.266 . S
In104 O113 2.326 . S
In104 O115 2.294 . S
In104 O116 2.326 . S
O105 In104 2.294 . S
O105 C114 1.240 . S
O106 In104 2.326 . S
O106 C114 1.252 . S
C107 O110 1.252 . S
C107 O111 1.260 . S
C108 O115 1.240 . S
C108 O116 1.252 . S
C109 O112 1.252 . S
C109 O113 1.260 . S
O110 In104 2.266 . S
O110 C107 1.252 . S
O111 In104 2.326 . S
O111 C107 1.260 . S
O112 In104 2.266 . S
O112 C109 1.252 . S
O113 In104 2.326 . S
O113 C109 1.260 . S
C114 O105 1.240 . S
C114 O106 1.252 . S
O115 In104 2.294 . S
O115 C108 1.240 . S
O116 In104 2.326 . S
O116 C108 1.252 . S
In117 O118 2.294 . S
In117 O119 2.326 . S
In117 O123 2.266 . S
In117 O124 2.326 . S
In117 O125 2.266 . S
In117 O126 2.326 . S
In117 O128 2.294 . S
In117 O129 2.326 . S
O118 In117 2.294 . S
O118 C127 1.240 . S
O119 In117 2.326 . S
O119 C127 1.252 . S
C120 O123 1.252 . S
C120 O124 1.260 . S
C121 O128 1.240 . S
C121 O129 1.252 . S
C122 O125 1.252 . S
C122 O126 1.260 . S
O123 In117 2.266 . S
O123 C120 1.252 . S
O124 In117 2.326 . S
O124 C120 1.260 . S
O125 In117 2.266 . S
O125 C122 1.252 . S
O126 In117 2.326 . S
O126 C122 1.260 . S
C127 O118 1.240 . S
C127 O119 1.252 . S
O128 In117 2.294 . S
O128 C121 1.240 . S
O129 In117 2.326 . S
O129 C121 1.252 . S
In130 O131 2.294 . S
In130 O132 2.326 . S
In130 O136 2.266 . S
In130 O137 2.326 . S
In130 O138 2.266 . S
In130 O139 2.326 . S
In130 O141 2.294 . S
In130 O142 2.326 . S
O131 In130 2.294 . S
O131 C140 1.240 . S
O132 In130 2.326 . S
O132 C140 1.252 . S
C133 O136 1.252 . S
C133 O137 1.260 . S
C134 O141 1.240 . S
C134 O142 1.252 . S
C135 O138 1.252 . S
C135 O139 1.260 . S
O136 In130 2.266 . S
O136 C133 1.252 . S
O137 In130 2.326 . S
O137 C133 1.260 . S
O138 In130 2.266 . S
O138 C135 1.252 . S
O139 In130 2.326 . S
O139 C135 1.260 . S
C140 O131 1.240 . S
C140 O132 1.252 . S
O141 In130 2.294 . S
O141 C134 1.240 . S
O142 In130 2.326 . S
O142 C134 1.252 . S
In143 O144 2.294 . S
In143 O145 2.326 . S
In143 O149 2.266 . S
In143 O150 2.326 . S
In143 O151 2.266 . S
In143 O152 2.326 . S
In143 O154 2.294 . S
In143 O155 2.326 . S
O144 In143 2.294 . S
O144 C153 1.240 . S
O145 In143 2.326 . S
O145 C153 1.252 . S
C146 O149 1.252 . S
C146 O150 1.260 . S
C147 O154 1.240 . S
C147 O155 1.252 . S
C148 O151 1.252 . S
C148 O152 1.260 . S
O149 In143 2.266 . S
O149 C146 1.252 . S
O150 In143 2.326 . S
O150 C146 1.260 . S
O151 In143 2.266 . S
O151 C148 1.252 . S
O152 In143 2.326 . S
O152 C148 1.260 . S
C153 O144 1.240 . S
C153 O145 1.252 . S
O154 In143 2.294 . S
O154 C147 1.240 . S
O155 In143 2.326 . S
O155 C147 1.252 . S
In156 O157 2.294 . S
In156 O158 2.326 . S
In156 O162 2.266 . S
In156 O163 2.326 . S
In156 O164 2.266 . S
In156 O165 2.326 . S
In156 O167 2.294 . S
In156 O168 2.326 . S
O157 In156 2.294 . S
O157 C166 1.240 . S
O158 In156 2.326 . S
O158 C166 1.252 . S
C159 O162 1.252 . S
C159 O163 1.260 . S
C160 O167 1.240 . S
C160 O168 1.252 . S
C161 O164 1.252 . S
C161 O165 1.260 . S
O162 In156 2.266 . S
O162 C159 1.252 . S
O163 In156 2.326 . S
O163 C159 1.260 . S
O164 In156 2.266 . S
O164 C161 1.252 . S
O165 In156 2.326 . S
O165 C161 1.260 . S
C166 O157 1.240 . S
C166 O158 1.252 . S
O167 In156 2.294 . S
O167 C160 1.240 . S
O168 In156 2.326 . S
O168 C160 1.252 . S
In169 O170 2.294 . S
In169 O171 2.326 . S
In169 O175 2.266 . S
In169 O176 2.326 . S
In169 O177 2.266 . S
In169 O178 2.326 . S
In169 O180 2.294 . S
In169 O181 2.326 . S
O170 In169 2.294 . S
O170 C179 1.240 . S
O171 In169 2.326 . S
O171 C179 1.252 . S
C172 O175 1.252 . S
C172 O176 1.260 . S
C173 O180 1.240 . S
C173 O181 1.252 . S
C174 O177 1.252 . S
C174 O178 1.260 . S
O175 In169 2.266 . S
O175 C172 1.252 . S
O176 In169 2.326 . S
O176 C172 1.260 . S
O177 In169 2.266 . S
O177 C174 1.252 . S
O178 In169 2.326 . S
O178 C174 1.260 . S
C179 O170 1.240 . S
C179 O171 1.252 . S
O180 In169 2.294 . S
O180 C173 1.240 . S
O181 In169 2.326 . S
O181 C173 1.252 . S
In182 O183 2.294 . S
In182 O184 2.326 . S
In182 O188 2.266 . S
In182 O189 2.326 . S
In182 O190 2.266 . S
In182 O191 2.326 . S
In182 O193 2.294 . S
In182 O194 2.326 . S
O183 In182 2.294 . S
O183 C192 1.240 . S
O184 In182 2.326 . S
O184 C192 1.252 . S
C185 O188 1.252 . S
C185 O189 1.260 . S
C186 O193 1.240 . S
C186 O194 1.252 . S
C187 O190 1.252 . S
C187 O191 1.260 . S
O188 In182 2.266 . S
O188 C185 1.252 . S
O189 In182 2.326 . S
O189 C185 1.260 . S
O190 In182 2.266 . S
O190 C187 1.252 . S
O191 In182 2.326 . S
O191 C187 1.260 . S
C192 O183 1.240 . S
C192 O184 1.252 . S
O193 In182 2.294 . S
O193 C186 1.240 . S
O194 In182 2.326 . S
O194 C186 1.252 . S
In195 O196 2.294 . S
In195 O197 2.326 . S
In195 O201 2.266 . S
In195 O202 2.326 . S
In195 O203 2.266 . S
In195 O204 2.326 . S
In195 O206 2.294 . S
In195 O207 2.326 . S
O196 In195 2.294 . S
O196 C205 1.240 . S
O197 In195 2.326 . S
O197 C205 1.252 . S
C198 O201 1.252 . S
C198 O202 1.260 . S
C199 O206 1.240 . S
C199 O207 1.252 . S
C200 O203 1.252 . S
C200 O204 1.260 . S
O201 In195 2.266 . S
O201 C198 1.252 . S
O202 In195 2.326 . S
O202 C198 1.260 . S
O203 In195 2.266 . S
O203 C200 1.252 . S
O204 In195 2.326 . S
O204 C200 1.260 . S
C205 O196 1.240 . S
C205 O197 1.252 . S
O206 In195 2.294 . S
O206 C199 1.240 . S
O207 In195 2.326 . S
O207 C199 1.252 . S
H208 C214 0.930 . S
H209 C218 0.930 . S
H210 C223 0.929 . S
H211 C221 0.929 . S
H212 C216 0.929 . S
H213 C222 0.929 . S
C214 H208 0.930 . S
C214 C215 1.367 . S
C214 C222 1.378 . S
C215 C214 1.367 . S
C215 C223 1.433 . S
C216 H212 0.929 . S
C216 C218 1.378 . S
C216 C220 1.350 . S
C217 C220 1.463 . S
C217 C222 1.350 . S
C217 N225 1.427 . S
C218 H209 0.930 . S
C218 C216 1.378 . S
C218 C219 1.367 . S
C219 C218 1.367 . S
C219 C221 1.433 . S
C220 C216 1.350 . S
C220 C217 1.463 . S
C220 N224 1.427 . S
C221 H211 0.929 . S
C221 C219 1.433 . S
C221 N224 1.384 . S
C222 H213 0.929 . S
C222 C214 1.378 . S
C222 C217 1.350 . S
C223 H210 0.929 . S
C223 C215 1.433 . S
C223 N225 1.384 . S
N224 C220 1.427 . S
N224 C221 1.384 . S
N225 C217 1.427 . S
N225 C223 1.384 . S
H226 C232 0.930 . S
H227 C236 0.930 . S
H228 C241 0.929 . S
H229 C239 0.929 . S
H230 C234 0.929 . S
H231 C240 0.929 . S
C232 H226 0.930 . S
C232 C233 1.367 . S
C232 C240 1.378 . S
C233 C232 1.367 . S
C233 C241 1.433 . S
C234 H230 0.929 . S
C234 C236 1.378 . S
C234 C238 1.350 . S
C235 C238 1.463 . S
C235 C240 1.350 . S
C235 N243 1.427 . S
C236 H227 0.930 . S
C236 C234 1.378 . S
C236 C237 1.367 . S
C237 C236 1.367 . S
C237 C239 1.433 . S
C238 C234 1.350 . S
C238 C235 1.463 . S
C238 N242 1.427 . S
C239 H229 0.929 . S
C239 C237 1.433 . S
C239 N242 1.384 . S
C240 H231 0.929 . S
C240 C232 1.378 . S
C240 C235 1.350 . S
C241 H228 0.929 . S
C241 C233 1.433 . S
C241 N243 1.384 . S
N242 C238 1.427 . S
N242 C239 1.384 . S
N243 C235 1.427 . S
N243 C241 1.384 . S
H244 C250 0.930 . S
H245 C254 0.930 . S
H246 C259 0.929 . S
H247 C257 0.929 . S
H248 C252 0.929 . S
H249 C258 0.929 . S
C250 H244 0.930 . S
C250 C251 1.367 . S
C250 C258 1.378 . S
C251 C250 1.367 . S
C251 C259 1.433 . S
C252 H248 0.929 . S
C252 C254 1.378 . S
C252 C256 1.350 . S
C253 C256 1.463 . S
C253 C258 1.350 . S
C253 N261 1.427 . S
C254 H245 0.930 . S
C254 C252 1.378 . S
C254 C255 1.367 . S
C255 C254 1.367 . S
C255 C257 1.433 . S
C256 C252 1.350 . S
C256 C253 1.463 . S
C256 N260 1.427 . S
C257 H247 0.929 . S
C257 C255 1.433 . S
C257 N260 1.384 . S
C258 H249 0.929 . S
C258 C250 1.378 . S
C258 C253 1.350 . S
C259 H246 0.929 . S
C259 C251 1.433 . S
C259 N261 1.384 . S
N260 C256 1.427 . S
N260 C257 1.384 . S
N261 C253 1.427 . S
N261 C259 1.384 . S
H262 C268 0.930 . S
H263 C272 0.930 . S
H264 C277 0.929 . S
H265 C275 0.929 . S
H266 C270 0.929 . S
H267 C276 0.929 . S
C268 H262 0.930 . S
C268 C269 1.367 . S
C268 C276 1.378 . S
C269 C268 1.367 . S
C269 C277 1.433 . S
C270 H266 0.929 . S
C270 C272 1.378 . S
C270 C274 1.350 . S
C271 C274 1.463 . S
C271 C276 1.350 . S
C271 N279 1.427 . S
C272 H263 0.930 . S
C272 C270 1.378 . S
C272 C273 1.367 . S
C273 C272 1.367 . S
C273 C275 1.433 . S
C274 C270 1.350 . S
C274 C271 1.463 . S
C274 N278 1.427 . S
C275 H265 0.929 . S
C275 C273 1.433 . S
C275 N278 1.384 . S
C276 H267 0.929 . S
C276 C268 1.378 . S
C276 C271 1.350 . S
C277 H264 0.929 . S
C277 C269 1.433 . S
C277 N279 1.384 . S
N278 C274 1.427 . S
N278 C275 1.384 . S
N279 C271 1.427 . S
N279 C277 1.384 . S
H280 C286 0.930 . S
H281 C290 0.930 . S
H282 C295 0.929 . S
H283 C293 0.929 . S
H284 C288 0.929 . S
H285 C294 0.929 . S
C286 H280 0.930 . S
C286 C287 1.367 . S
C286 C294 1.378 . S
C287 C286 1.367 . S
C287 C295 1.433 . S
C288 H284 0.929 . S
C288 C290 1.378 . S
C288 C292 1.350 . S
C289 C292 1.463 . S
C289 C294 1.350 . S
C289 N297 1.427 . S
C290 H281 0.930 . S
C290 C288 1.378 . S
C290 C291 1.367 . S
C291 C290 1.367 . S
C291 C293 1.433 . S
C292 C288 1.350 . S
C292 C289 1.463 . S
C292 N296 1.427 . S
C293 H283 0.929 . S
C293 C291 1.433 . S
C293 N296 1.384 . S
C294 H285 0.929 . S
C294 C286 1.378 . S
C294 C289 1.350 . S
C295 H282 0.929 . S
C295 C287 1.433 . S
C295 N297 1.384 . S
N296 C292 1.427 . S
N296 C293 1.384 . S
N297 C289 1.427 . S
N297 C295 1.384 . S
H298 C304 0.930 . S
H299 C308 0.930 . S
H300 C313 0.929 . S
H301 C311 0.929 . S
H302 C306 0.929 . S
H303 C312 0.929 . S
C304 H298 0.930 . S
C304 C305 1.367 . S
C304 C312 1.378 . S
C305 C304 1.367 . S
C305 C313 1.433 . S
C306 H302 0.929 . S
C306 C308 1.378 . S
C306 C310 1.350 . S
C307 C310 1.463 . S
C307 C312 1.350 . S
C307 N315 1.427 . S
C308 H299 0.930 . S
C308 C306 1.378 . S
C308 C309 1.367 . S
C309 C308 1.367 . S
C309 C311 1.433 . S
C310 C306 1.350 . S
C310 C307 1.463 . S
C310 N314 1.427 . S
C311 H301 0.929 . S
C311 C309 1.433 . S
C311 N314 1.384 . S
C312 H303 0.929 . S
C312 C304 1.378 . S
C312 C307 1.350 . S
C313 H300 0.929 . S
C313 C305 1.433 . S
C313 N315 1.384 . S
N314 C310 1.427 . S
N314 C311 1.384 . S
N315 C307 1.427 . S
N315 C313 1.384 . S
H316 C322 0.930 . S
H317 C326 0.930 . S
H318 C331 0.929 . S
H319 C329 0.929 . S
H320 C324 0.929 . S
H321 C330 0.929 . S
C322 H316 0.930 . S
C322 C323 1.367 . S
C322 C330 1.378 . S
C323 C322 1.367 . S
C323 C331 1.433 . S
C324 H320 0.929 . S
C324 C326 1.378 . S
C324 C328 1.350 . S
C325 C328 1.463 . S
C325 C330 1.350 . S
C325 N333 1.427 . S
C326 H317 0.930 . S
C326 C324 1.378 . S
C326 C327 1.367 . S
C327 C326 1.367 . S
C327 C329 1.433 . S
C328 C324 1.350 . S
C328 C325 1.463 . S
C328 N332 1.427 . S
C329 H319 0.929 . S
C329 C327 1.433 . S
C329 N332 1.384 . S
C330 H321 0.929 . S
C330 C322 1.378 . S
C330 C325 1.350 . S
C331 H318 0.929 . S
C331 C323 1.433 . S
C331 N333 1.384 . S
N332 C328 1.427 . S
N332 C329 1.384 . S
N333 C325 1.427 . S
N333 C331 1.384 . S
H334 C340 0.930 . S
H335 C344 0.930 . S
H336 C349 0.929 . S
H337 C347 0.929 . S
H338 C342 0.929 . S
H339 C348 0.929 . S
C340 H334 0.930 . S
C340 C341 1.367 . S
C340 C348 1.378 . S
C341 C340 1.367 . S
C341 C349 1.433 . S
C342 H338 0.929 . S
C342 C344 1.378 . S
C342 C346 1.350 . S
C343 C346 1.463 . S
C343 C348 1.350 . S
C343 N351 1.427 . S
C344 H335 0.930 . S
C344 C342 1.378 . S
C344 C345 1.367 . S
C345 C344 1.367 . S
C345 C347 1.433 . S
C346 C342 1.350 . S
C346 C343 1.463 . S
C346 N350 1.427 . S
C347 H337 0.929 . S
C347 C345 1.433 . S
C347 N350 1.384 . S
C348 H339 0.929 . S
C348 C340 1.378 . S
C348 C343 1.350 . S
C349 H336 0.929 . S
C349 C341 1.433 . S
C349 N351 1.384 . S
N350 C346 1.427 . S
N350 C347 1.384 . S
N351 C343 1.427 . S
N351 C349 1.384 . S
H352 C358 0.930 . S
H353 C362 0.930 . S
H354 C367 0.929 . S
H355 C365 0.929 . S
H356 C360 0.929 . S
H357 C366 0.929 . S
C358 H352 0.930 . S
C358 C359 1.367 . S
C358 C366 1.378 . S
C359 C358 1.367 . S
C359 C367 1.433 . S
C360 H356 0.929 . S
C360 C362 1.378 1_556 S
C360 C364 1.350 . S
C361 C364 1.463 . S
C361 C366 1.350 . S
C361 N369 1.427 . S
C362 H353 0.930 . S
C362 C360 1.378 1_554 S
C362 C363 1.367 . S
C363 C362 1.367 . S
C363 C365 1.433 . S
C364 C360 1.350 . S
C364 C361 1.463 . S
C364 N368 1.427 1_556 S
C365 H355 0.929 . S
C365 C363 1.433 . S
C365 N368 1.384 . S
C366 H357 0.929 . S
C366 C358 1.378 . S
C366 C361 1.350 . S
C367 H354 0.929 . S
C367 C359 1.433 . S
C367 N369 1.384 . S
N368 C364 1.427 1_554 S
N368 C365 1.384 . S
N369 C361 1.427 . S
N369 C367 1.384 . S
H370 C376 0.930 . S
H371 C380 0.930 . S
H372 C385 0.929 . S
H373 C383 0.929 . S
H374 C378 0.929 . S
H375 C384 0.929 . S
C376 H370 0.930 . S
C376 C377 1.367 . S
C376 C384 1.378 . S
C377 C376 1.367 . S
C377 C385 1.433 . S
C378 H374 0.929 . S
C378 C380 1.378 . S
C378 C382 1.350 . S
C379 C382 1.463 . S
C379 C384 1.350 1_554 S
C379 N387 1.427 . S
C380 H371 0.930 . S
C380 C378 1.378 . S
C380 C381 1.367 . S
C381 C380 1.367 . S
C381 C383 1.433 . S
C382 C378 1.350 . S
C382 C379 1.463 . S
C382 N386 1.427 . S
C383 H373 0.929 . S
C383 C381 1.433 . S
C383 N386 1.384 . S
C384 H375 0.929 . S
C384 C376 1.378 . S
C384 C379 1.350 1_556 S
C385 H372 0.929 . S
C385 C377 1.433 . S
C385 N387 1.384 1_556 S
N386 C382 1.427 . S
N386 C383 1.384 . S
N387 C379 1.427 . S
N387 C385 1.384 1_554 S
H388 C394 0.930 . S
H389 C398 0.930 . S
H390 C403 0.929 . S
H391 C401 0.929 . S
H392 C396 0.929 . S
H393 C402 0.929 . S
C394 H388 0.930 . S
C394 C395 1.367 . S
C394 C402 1.378 . S
C395 C394 1.367 . S
C395 C403 1.433 . S
C396 H392 0.929 . S
C396 C398 1.378 . S
C396 C400 1.350 . S
C397 C400 1.463 . S
C397 C402 1.350 1_554 S
C397 N405 1.427 1_554 S
C398 H389 0.930 . S
C398 C396 1.378 . S
C398 C399 1.367 . S
C399 C398 1.367 . S
C399 C401 1.433 . S
C400 C396 1.350 . S
C400 C397 1.463 . S
C400 N404 1.427 . S
C401 H391 0.929 . S
C401 C399 1.433 . S
C401 N404 1.384 . S
C402 H393 0.929 . S
C402 C394 1.378 . S
C402 C397 1.350 1_556 S
C403 H390 0.929 . S
C403 C395 1.433 . S
C403 N405 1.384 . S
N404 C400 1.427 . S
N404 C401 1.384 . S
N405 C397 1.427 1_556 S
N405 C403 1.384 . S
H406 C412 0.930 . S
H407 C416 0.930 . S
H408 C421 0.929 . S
H409 C419 0.929 . S
H410 C414 0.929 . S
H411 C420 0.929 . S
C412 H406 0.930 . S
C412 C413 1.367 . S
C412 C420 1.378 . S
C413 C412 1.367 . S
C413 C421 1.433 . S
C414 H410 0.929 . S
C414 C416 1.378 . S
C414 C418 1.350 . S
C415 C418 1.463 . S
C415 C420 1.350 1_556 S
C415 N423 1.427 1_556 S
C416 H407 0.930 . S
C416 C414 1.378 . S
C416 C417 1.367 . S
C417 C416 1.367 . S
C417 C419 1.433 . S
C418 C414 1.350 . S
C418 C415 1.463 . S
C418 N422 1.427 . S
C419 H409 0.929 . S
C419 C417 1.433 . S
C419 N422 1.384 . S
C420 H411 0.929 . S
C420 C412 1.378 . S
C420 C415 1.350 1_554 S
C421 H408 0.929 . S
C421 C413 1.433 . S
C421 N423 1.384 . S
N422 C418 1.427 . S
N422 C419 1.384 . S
N423 C415 1.427 1_554 S
N423 C421 1.384 . S
H424 C430 0.930 . S
H425 C434 0.930 . S
H426 C439 0.929 . S
H427 C437 0.929 . S
H428 C432 0.929 . S
H429 C438 0.929 . S
C430 H424 0.930 . S
C430 C431 1.367 . S
C430 C438 1.378 . S
C431 C430 1.367 . S
C431 C439 1.433 . S
C432 H428 0.929 . S
C432 C434 1.378 1_455 S
C432 C436 1.350 . S
C433 C436 1.463 . S
C433 C438 1.350 . S
C433 N441 1.427 . S
C434 H425 0.930 . S
C434 C432 1.378 1_655 S
C434 C435 1.367 . S
C435 C434 1.367 . S
C435 C437 1.433 . S
C436 C432 1.350 . S
C436 C433 1.463 . S
C436 N440 1.427 . S
C437 H427 0.929 . S
C437 C435 1.433 . S
C437 N440 1.384 1_655 S
C438 H429 0.929 . S
C438 C430 1.378 . S
C438 C433 1.350 . S
C439 H426 0.929 . S
C439 C431 1.433 . S
C439 N441 1.384 . S
N440 C436 1.427 . S
N440 C437 1.384 1_455 S
N441 C433 1.427 . S
N441 C439 1.384 . S
H442 C448 0.930 . S
H443 C452 0.930 . S
H444 C457 0.929 . S
H445 C455 0.929 . S
H446 C450 0.929 . S
H447 C456 0.929 . S
C448 H442 0.930 . S
C448 C449 1.367 . S
C448 C456 1.378 . S
C449 C448 1.367 . S
C449 C457 1.433 . S
C450 H446 0.929 . S
C450 C452 1.378 . S
C450 C454 1.350 . S
C451 C454 1.463 . S
C451 C456 1.350 1_545 S
C451 N459 1.427 1_545 S
C452 H443 0.930 . S
C452 C450 1.378 . S
C452 C453 1.367 . S
C453 C452 1.367 . S
C453 C455 1.433 . S
C454 C450 1.350 . S
C454 C451 1.463 . S
C454 N458 1.427 . S
C455 H445 0.929 . S
C455 C453 1.433 . S
C455 N458 1.384 . S
C456 H447 0.929 . S
C456 C448 1.378 . S
C456 C451 1.350 1_565 S
C457 H444 0.929 . S
C457 C449 1.433 . S
C457 N459 1.384 . S
N458 C454 1.427 . S
N458 C455 1.384 . S
N459 C451 1.427 1_565 S
N459 C457 1.384 . S
H460 C466 0.930 . S
H461 C470 0.930 . S
H462 C475 0.929 . S
H463 C473 0.929 . S
H464 C468 0.940 . S
H465 C474 0.940 . S
C466 H460 0.930 . S
C466 C467 1.367 . S
C466 C474 1.378 . S
C467 C466 1.367 . S
C467 C475 1.433 . S
C468 H464 0.940 . S
C468 C470 1.378 . S
C468 C472 1.350 . S
C469 C472 1.463 1_655 S
C469 C474 1.350 . S
C469 N477 1.427 . S
C470 H461 0.930 . S
C470 C468 1.378 . S
C470 C471 1.367 . S
C471 C470 1.367 . S
C471 C473 1.433 . S
C472 C468 1.350 . S
C472 C469 1.463 1_455 S
C472 N476 1.427 . S
C473 H463 0.929 . S
C473 C471 1.433 . S
C473 N476 1.384 . S
C474 H465 0.940 . S
C474 C466 1.378 . S
C474 C469 1.350 . S
C475 H462 0.929 . S
C475 C467 1.433 . S
C475 N477 1.384 . S
N476 C472 1.427 . S
N476 C473 1.384 . S
N477 C469 1.427 . S
N477 C475 1.384 . S
H478 C484 0.930 . S
H479 C488 0.930 . S
H480 C493 0.929 . S
H481 C491 0.929 . S
H482 C486 0.929 . S
H483 C492 0.914 1_565 S
C484 H478 0.930 . S
C484 C485 1.367 . S
C484 C492 1.402 . S
C485 C484 1.367 . S
C485 C493 1.433 . S
C486 H482 0.929 . S
C486 C488 1.378 . S
C486 C490 1.350 . S
C487 C490 1.463 . S
C487 C492 1.341 1_565 S
C487 N495 1.427 1_565 S
C488 H479 0.930 . S
C488 C486 1.378 . S
C488 C489 1.367 . S
C489 C488 1.367 . S
C489 C491 1.433 . S
C490 C486 1.350 . S
C490 C487 1.463 . S
C490 N494 1.427 . S
C491 H481 0.929 . S
C491 C489 1.433 . S
C491 N494 1.384 . S
C492 H483 0.914 1_545 S
C492 C484 1.402 . S
C492 C487 1.341 1_545 S
C493 H480 0.929 . S
C493 C485 1.433 . S
C493 N495 1.384 . S
N494 C490 1.427 . S
N494 C491 1.384 . S
N495 C487 1.427 1_545 S
N495 C493 1.384 . S
H496 C502 0.930 . S
H497 C506 0.930 . S
H498 C511 0.929 . S
H499 C509 0.926 1_455 S
H500 C504 0.929 . S
H501 C510 0.929 . S
C502 H496 0.930 . S
C502 C503 1.367 . S
C502 C510 1.378 . S
C503 C502 1.367 . S
C503 C511 1.433 . S
C504 H500 0.929 . S
C504 C506 1.378 1_655 S
C504 C508 1.350 . S
C505 C508 1.463 . S
C505 C510 1.350 . S
C505 N513 1.427 . S
C506 H497 0.930 . S
C506 C504 1.378 1_455 S
C506 C507 1.367 . S
C507 C506 1.367 . S
C507 C509 1.428 1_455 S
C508 C504 1.350 . S
C508 C505 1.463 . S
C508 N512 1.427 . S
C509 H499 0.926 1_655 S
C509 C507 1.428 1_655 S
C509 N512 1.392 . S
C510 H501 0.929 . S
C510 C502 1.378 . S
C510 C505 1.350 . S
C511 H498 0.929 . S
C511 C503 1.433 . S
C511 N513 1.384 . S
N512 C508 1.427 . S
N512 C509 1.392 . S
N513 C505 1.427 . S
N513 C511 1.384 . S
H514 C520 0.930 . S
H515 C524 0.930 . S
H516 C529 0.929 . S
H517 C527 0.929 . S
H518 C522 0.929 1_565 S
H519 C528 0.929 . S
C520 H514 0.930 . S
C520 C521 1.367 . S
C520 C528 1.378 . S
C521 C520 1.367 . S
C521 C529 1.433 . S
C522 H518 0.929 1_545 S
C522 C524 1.378 . S
C522 C526 1.350 1_545 S
C523 C526 1.463 . S
C523 C528 1.350 . S
C523 N531 1.427 . S
C524 H515 0.930 . S
C524 C522 1.378 . S
C524 C525 1.367 . S
C525 C524 1.367 . S
C525 C527 1.433 . S
C526 C522 1.350 1_565 S
C526 C523 1.463 . S
C526 N530 1.427 . S
C527 H517 0.929 . S
C527 C525 1.433 . S
C527 N530 1.384 1_545 S
C528 H519 0.929 . S
C528 C520 1.378 . S
C528 C523 1.350 . S
C529 H516 0.929 . S
C529 C521 1.433 . S
C529 N531 1.384 . S
N530 C526 1.427 . S
N530 C527 1.384 1_565 S
N531 C523 1.427 . S
N531 C529 1.384 . S
H532 C538 0.930 . S
H533 C542 0.930 . S
H534 C547 0.929 . S
H535 C545 0.929 . S
H536 C540 0.929 . S
H537 C546 0.929 . S
C538 H532 0.930 . S
C538 C539 1.367 . S
C538 C546 1.378 . S
C539 C538 1.367 . S
C539 C547 1.433 . S
C540 H536 0.929 . S
C540 C542 1.378 . S
C540 C544 1.350 . S
C541 C544 1.463 1_455 S
C541 C546 1.350 . S
C541 N549 1.427 . S
C542 H533 0.930 . S
C542 C540 1.378 . S
C542 C543 1.367 . S
C543 C542 1.367 . S
C543 C545 1.433 . S
C544 C540 1.350 . S
C544 C541 1.463 1_655 S
C544 N548 1.427 . S
C545 H535 0.929 . S
C545 C543 1.433 . S
C545 N548 1.384 . S
C546 H537 0.929 . S
C546 C538 1.378 . S
C546 C541 1.350 . S
C547 H534 0.929 . S
C547 C539 1.433 . S
C547 N549 1.384 . S
N548 C544 1.427 . S
N548 C545 1.384 . S
N549 C541 1.427 . S
N549 C547 1.384 . S
H550 C556 0.930 . S
H551 C560 0.930 . S
H552 C565 0.929 . S
H553 C563 0.929 . S
H554 C558 0.929 . S
H555 C564 0.929 . S
C556 H550 0.930 . S
C556 C557 1.367 . S
C556 C564 1.378 1_565 S
C557 C556 1.367 . S
C557 C565 1.433 . S
C558 H554 0.929 . S
C558 C560 1.378 . S
C558 C562 1.350 . S
C559 C562 1.463 . S
C559 C564 1.350 . S
C559 N567 1.427 1_545 S
C560 H551 0.930 . S
C560 C558 1.378 . S
C560 C561 1.367 . S
C561 C560 1.367 . S
C561 C563 1.433 . S
C562 C558 1.350 . S
C562 C559 1.463 . S
C562 N566 1.427 . S
C563 H553 0.929 . S
C563 C561 1.433 . S
C563 N566 1.384 . S
C564 H555 0.929 . S
C564 C556 1.378 1_545 S
C564 C559 1.350 . S
C565 H552 0.929 . S
C565 C557 1.433 . S
C565 N567 1.384 . S
N566 C562 1.427 . S
N566 C563 1.384 . S
N567 C559 1.427 1_565 S
N567 C565 1.384 . S
H568 C574 0.930 . S
H569 C578 0.930 . S
H570 C583 0.929 . S
H571 C581 0.929 . S
H572 C576 0.929 . S
H573 C582 0.929 . S
C574 H568 0.930 . S
C574 C575 1.367 . S
C574 C582 1.378 . S
C575 C574 1.367 . S
C575 C583 1.433 . S
C576 H572 0.929 . S
C576 C578 1.378 . S
C576 C580 1.350 . S
C577 C580 1.463 . S
C577 C582 1.350 . S
C577 N585 1.427 . S
C578 H569 0.930 . S
C578 C576 1.378 . S
C578 C579 1.367 . S
C579 C578 1.367 . S
C579 C581 1.433 . S
C580 C576 1.350 . S
C580 C577 1.463 . S
C580 N584 1.427 . S
C581 H571 0.929 . S
C581 C579 1.433 . S
C581 N584 1.384 . S
C582 H573 0.929 . S
C582 C574 1.378 . S
C582 C577 1.350 . S
C583 H570 0.929 . S
C583 C575 1.433 . S
C583 N585 1.384 . S
N584 C580 1.427 . S
N584 C581 1.384 . S
N585 C577 1.427 . S
N585 C583 1.384 . S
H586 C592 0.930 . S
H587 C596 0.930 . S
H588 C601 0.929 . S
H589 C599 0.929 . S
H590 C594 0.929 . S
H591 C600 0.929 . S
C592 H586 0.930 . S
C592 C593 1.367 . S
C592 C600 1.378 . S
C593 C592 1.367 . S
C593 C601 1.433 . S
C594 H590 0.929 . S
C594 C596 1.378 . S
C594 C598 1.350 . S
C595 C598 1.463 . S
C595 C600 1.350 . S
C595 N603 1.427 . S
C596 H587 0.930 . S
C596 C594 1.378 . S
C596 C597 1.367 . S
C597 C596 1.367 . S
C597 C599 1.433 . S
C598 C594 1.350 . S
C598 C595 1.463 . S
C598 N602 1.427 . S
C599 H589 0.929 . S
C599 C597 1.433 . S
C599 N602 1.384 . S
C600 H591 0.929 . S
C600 C592 1.378 . S
C600 C595 1.350 . S
C601 H588 0.929 . S
C601 C593 1.433 . S
C601 N603 1.384 . S
N602 C598 1.427 . S
N602 C599 1.384 . S
N603 C595 1.427 . S
N603 C601 1.384 . S
H604 C610 0.930 . S
H605 C614 0.930 . S
H606 C619 0.929 . S
H607 C617 0.929 . S
H608 C612 0.929 . S
H609 C618 0.929 . S
C610 H604 0.930 . S
C610 C611 1.367 . S
C610 C618 1.378 . S
C611 C610 1.367 . S
C611 C619 1.433 . S
C612 H608 0.929 . S
C612 C614 1.378 . S
C612 C616 1.350 . S
C613 C616 1.463 . S
C613 C618 1.350 . S
C613 N621 1.427 . S
C614 H605 0.930 . S
C614 C612 1.378 . S
C614 C615 1.367 . S
C615 C614 1.367 . S
C615 C617 1.433 . S
C616 C612 1.350 . S
C616 C613 1.463 . S
C616 N620 1.427 . S
C617 H607 0.929 . S
C617 C615 1.433 . S
C617 N620 1.384 . S
C618 H609 0.929 . S
C618 C610 1.378 . S
C618 C613 1.350 . S
C619 H606 0.929 . S
C619 C611 1.433 . S
C619 N621 1.384 . S
N620 C616 1.427 . S
N620 C617 1.384 . S
N621 C613 1.427 . S
N621 C619 1.384 . S
H622 C628 0.930 . S
H623 C632 0.930 . S
H624 C637 0.929 . S
H625 C635 0.929 . S
H626 C630 0.929 . S
H627 C636 0.929 . S
C628 H622 0.930 . S
C628 C629 1.367 . S
C628 C636 1.378 . S
C629 C628 1.367 . S
C629 C637 1.433 . S
C630 H626 0.929 . S
C630 C632 1.378 . S
C630 C634 1.350 . S
C631 C634 1.463 . S
C631 C636 1.350 . S
C631 N639 1.427 . S
C632 H623 0.930 . S
C632 C630 1.378 . S
C632 C633 1.367 . S
C633 C632 1.367 . S
C633 C635 1.433 . S
C634 C630 1.350 . S
C634 C631 1.463 . S
C634 N638 1.427 . S
C635 H625 0.929 . S
C635 C633 1.433 . S
C635 N638 1.384 . S
C636 H627 0.929 . S
C636 C628 1.378 . S
C636 C631 1.350 . S
C637 H624 0.929 . S
C637 C629 1.433 . S
C637 N639 1.384 . S
N638 C634 1.427 . S
N638 C635 1.384 . S
N639 C631 1.427 . S
N639 C637 1.384 . S
H640 C646 0.930 . S
H641 C650 0.930 . S
H642 C655 0.929 . S
H643 C653 0.929 . S
H644 C648 0.929 . S
H645 C654 0.929 . S
C646 H640 0.930 . S
C646 C647 1.367 . S
C646 C654 1.378 . S
C647 C646 1.367 . S
C647 C655 1.433 . S
C648 H644 0.929 . S
C648 C650 1.378 . S
C648 C652 1.350 . S
C649 C652 1.463 . S
C649 C654 1.350 . S
C649 N657 1.427 . S
C650 H641 0.930 . S
C650 C648 1.378 . S
C650 C651 1.367 . S
C651 C650 1.367 . S
C651 C653 1.433 . S
C652 C648 1.350 . S
C652 C649 1.463 . S
C652 N656 1.427 . S
C653 H643 0.929 . S
C653 C651 1.433 . S
C653 N656 1.384 . S
C654 H645 0.929 . S
C654 C646 1.378 . S
C654 C649 1.350 . S
C655 H642 0.929 . S
C655 C647 1.433 . S
C655 N657 1.384 . S
N656 C652 1.427 . S
N656 C653 1.384 . S
N657 C649 1.427 . S
N657 C655 1.384 . S
H658 C664 0.930 . S
H659 C668 0.930 . S
H660 C673 0.929 . S
H661 C671 0.929 . S
H662 C666 0.929 . S
H663 C672 0.929 . S
C664 H658 0.930 . S
C664 C665 1.367 . S
C664 C672 1.378 . S
C665 C664 1.367 . S
C665 C673 1.433 . S
C666 H662 0.929 . S
C666 C668 1.378 . S
C666 C670 1.350 . S
C667 C670 1.463 . S
C667 C672 1.350 . S
C667 N675 1.427 . S
C668 H659 0.930 . S
C668 C666 1.378 . S
C668 C669 1.367 . S
C669 C668 1.367 . S
C669 C671 1.433 . S
C670 C666 1.350 . S
C670 C667 1.463 . S
C670 N674 1.427 . S
C671 H661 0.929 . S
C671 C669 1.433 . S
C671 N674 1.384 . S
C672 H663 0.929 . S
C672 C664 1.378 . S
C672 C667 1.350 . S
C673 H660 0.929 . S
C673 C665 1.433 . S
C673 N675 1.384 . S
N674 C670 1.427 . S
N674 C671 1.384 . S
N675 C667 1.427 . S
N675 C673 1.384 . S
H676 C682 0.930 . S
H677 C686 0.930 . S
H678 C691 0.929 . S
H679 C689 0.929 . S
H680 C684 0.929 . S
H681 C690 0.929 . S
C682 H676 0.930 . S
C682 C683 1.367 . S
C682 C690 1.378 . S
C683 C682 1.367 . S
C683 C691 1.433 . S
C684 H680 0.929 . S
C684 C686 1.378 . S
C684 C688 1.350 . S
C685 C688 1.463 . S
C685 C690 1.350 . S
C685 N693 1.427 . S
C686 H677 0.930 . S
C686 C684 1.378 . S
C686 C687 1.367 . S
C687 C686 1.367 . S
C687 C689 1.433 . S
C688 C684 1.350 . S
C688 C685 1.463 . S
C688 N692 1.427 . S
C689 H679 0.929 . S
C689 C687 1.433 . S
C689 N692 1.384 . S
C690 H681 0.929 . S
C690 C682 1.378 . S
C690 C685 1.350 . S
C691 H678 0.929 . S
C691 C683 1.433 . S
C691 N693 1.384 . S
N692 C688 1.427 . S
N692 C689 1.384 . S
N693 C685 1.427 . S
N693 C691 1.384 . S
H694 C700 0.930 . S
H695 C704 0.930 . S
H696 C709 0.929 . S
H697 C707 0.929 . S
H698 C702 0.929 . S
H699 C708 0.929 . S
C700 H694 0.930 . S
C700 C701 1.367 . S
C700 C708 1.378 . S
C701 C700 1.367 . S
C701 C709 1.433 . S
C702 H698 0.929 . S
C702 C704 1.378 . S
C702 C706 1.350 . S
C703 C706 1.463 . S
C703 C708 1.350 . S
C703 N711 1.427 . S
C704 H695 0.930 . S
C704 C702 1.378 . S
C704 C705 1.367 . S
C705 C704 1.367 . S
C705 C707 1.433 . S
C706 C702 1.350 . S
C706 C703 1.463 . S
C706 N710 1.427 . S
C707 H697 0.929 . S
C707 C705 1.433 . S
C707 N710 1.384 . S
C708 H699 0.929 . S
C708 C700 1.378 . S
C708 C703 1.350 . S
C709 H696 0.929 . S
C709 C701 1.433 . S
C709 N711 1.384 . S
N710 C706 1.427 . S
N710 C707 1.384 . S
N711 C703 1.427 . S
N711 C709 1.384 . S
H712 C718 0.930 . S
H713 C722 0.930 . S
H714 C727 0.929 . S
H715 C725 0.929 . S
H716 C720 0.929 . S
H717 C726 0.929 . S
C718 H712 0.930 . S
C718 C719 1.367 . S
C718 C726 1.378 . S
C719 C718 1.367 . S
C719 C727 1.433 . S
C720 H716 0.929 . S
C720 C722 1.378 . S
C720 C724 1.350 . S
C721 C724 1.463 . S
C721 C726 1.350 . S
C721 N729 1.427 . S
C722 H713 0.930 . S
C722 C720 1.378 . S
C722 C723 1.367 . S
C723 C722 1.367 . S
C723 C725 1.433 . S
C724 C720 1.350 . S
C724 C721 1.463 . S
C724 N728 1.427 . S
C725 H715 0.929 . S
C725 C723 1.433 . S
C725 N728 1.384 . S
C726 H717 0.929 . S
C726 C718 1.378 . S
C726 C721 1.350 . S
C727 H714 0.929 . S
C727 C719 1.433 . S
C727 N729 1.384 . S
N728 C724 1.427 . S
N728 C725 1.384 . S
N729 C721 1.427 . S
N729 C727 1.384 . S
H730 C736 0.930 . S
H731 C740 0.930 . S
H732 C745 0.929 . S
H733 C743 0.929 . S
H734 C738 0.929 . S
H735 C744 0.929 . S
C736 H730 0.930 . S
C736 C737 1.367 . S
C736 C744 1.378 . S
C737 C736 1.367 . S
C737 C745 1.433 . S
C738 H734 0.929 . S
C738 C740 1.378 . S
C738 C742 1.350 . S
C739 C742 1.463 . S
C739 C744 1.350 . S
C739 N747 1.427 . S
C740 H731 0.930 . S
C740 C738 1.378 . S
C740 C741 1.367 . S
C741 C740 1.367 . S
C741 C743 1.433 . S
C742 C738 1.350 . S
C742 C739 1.463 . S
C742 N746 1.427 . S
C743 H733 0.929 . S
C743 C741 1.433 . S
C743 N746 1.384 . S
C744 H735 0.929 . S
C744 C736 1.378 . S
C744 C739 1.350 . S
C745 H732 0.929 . S
C745 C737 1.433 . S
C745 N747 1.384 . S
N746 C742 1.427 . S
N746 C743 1.384 . S
N747 C739 1.427 . S
N747 C745 1.384 . S
H748 C754 0.930 . S
H749 C758 0.930 . S
H750 C763 0.929 . S
H751 C761 0.929 . S
H752 C756 0.929 . S
H753 C762 0.929 . S
C754 H748 0.930 . S
C754 C755 1.367 . S
C754 C762 1.378 . S
C755 C754 1.367 . S
C755 C763 1.433 . S
C756 H752 0.929 . S
C756 C758 1.378 . S
C756 C760 1.350 . S
C757 C760 1.463 . S
C757 C762 1.350 . S
C757 N765 1.427 . S
C758 H749 0.930 . S
C758 C756 1.378 . S
C758 C759 1.367 . S
C759 C758 1.367 . S
C759 C761 1.433 . S
C760 C756 1.350 . S
C760 C757 1.463 . S
C760 N764 1.427 . S
C761 H751 0.929 . S
C761 C759 1.433 . S
C761 N764 1.384 . S
C762 H753 0.929 . S
C762 C754 1.378 . S
C762 C757 1.350 . S
C763 H750 0.929 . S
C763 C755 1.433 . S
C763 N765 1.384 . S
N764 C760 1.427 . S
N764 C761 1.384 . S
N765 C757 1.427 . S
N765 C763 1.384 . S
H766 C772 0.930 . S
H767 C776 0.930 . S
H768 C781 0.929 . S
H769 C779 0.929 . S
H770 C774 0.929 . S
H771 C780 0.929 . S
C772 H766 0.930 . S
C772 C773 1.367 . S
C772 C780 1.378 . S
C773 C772 1.367 . S
C773 C781 1.433 . S
C774 H770 0.929 . S
C774 C776 1.378 . S
C774 C778 1.350 . S
C775 C778 1.463 . S
C775 C780 1.350 . S
C775 N783 1.427 . S
C776 H767 0.930 . S
C776 C774 1.378 . S
C776 C777 1.367 . S
C777 C776 1.367 . S
C777 C779 1.433 . S
C778 C774 1.350 . S
C778 C775 1.463 . S
C778 N782 1.427 . S
C779 H769 0.929 . S
C779 C777 1.433 . S
C779 N782 1.384 . S
C780 H771 0.929 . S
C780 C772 1.378 . S
C780 C775 1.350 . S
C781 H768 0.929 . S
C781 C773 1.433 . S
C781 N783 1.384 . S
N782 C778 1.427 . S
N782 C779 1.384 . S
N783 C775 1.427 . S
N783 C781 1.384 . S
C215 C199 1.441 . S
C219 C10 1.437 . S
C233 C160 0.921 . S
C237 C23 0.919 . S
C251 C36 1.151 . S
C255 C179 1.128 . S
C269 C186 1.112 . S
C273 C43 1.147 . S
C287 C127 0.918 . S
C291 C62 0.920 . S
C305 C69 1.113 . S
C309 C134 1.144 . S
C323 C82 1.109 . S
C327 C153 1.145 . S
C341 C101 1.457 . S
C345 C114 1.455 . S
C359 C70 1.758 . S
C363 C5 1.682 . S
C377 C81 1.471 . S
C381 C18 1.545 . S
C395 C94 1.727 . S
C399 C31 1.695 . S
C413 C44 1.365 . S
C417 C56 1.350 . S
C431 C4 1.448 . S
C435 C16 1.446 . S
C449 C29 1.364 . S
C453 C17 1.351 . S
C467 C30 1.827 . S
C471 C49 1.830 . S
C485 C3 1.734 . S
C489 C42 1.690 . S
C503 C95 1.445 . S
C507 C55 1.441 . S
C521 C57 1.547 . S
C525 C68 1.478 . S
C539 C75 1.556 . S
C543 C88 1.551 . S
C557 C96 1.677 . S
C561 C83 1.759 . S
C575 C172 1.760 . S
C579 C109 1.673 . S
C593 C122 1.542 . S
C597 C185 1.474 . S
C611 C200 1.733 . S
C615 C133 1.692 . S
C629 C166 1.344 . S
C633 C146 1.365 . S
C647 C108 1.448 . S
C651 C120 1.446 . S
C665 C121 1.352 . S
C669 C135 1.363 . S
C683 C147 1.822 . S
C687 C140 1.820 . S
C701 C107 1.734 . S
C705 C148 1.689 . S
C719 C205 1.444 . S
C723 C161 1.441 . S
C737 C159 1.541 . S
C741 C174 1.485 . S
C755 C173 1.556 . S
C759 C192 1.550 . S
C773 C198 1.685 . S
C777 C187 1.759 . S
