# Generated by pormake.
# Topology smg, (6)-cn, num edge types: 1
# Building blocks:
#     Node 0, Type 0, BuildingBlock: IZENUY_clean_sbu_0, # of connection points: 6
#     Node 1, Type 0, BuildingBlock: IZENUY_clean_sbu_0, # of connection points: 6
#     Node 2, Type 0, BuildingBlock: IZENUY_clean_sbu_0, # of connection points: 6
#     Node 3, Type 0, BuildingBlock: IZENUY_clean_sbu_0, # of connection points: 6
#     Node 4, Type 0, BuildingBlock: IZENUY_clean_sbu_0, # of connection points: 6
#     Node 5, Type 0, BuildingBlock: IZENUY_clean_sbu_0, # of connection points: 6
#     Node 6, Type 0, BuildingBlock: IZENUY_clean_sbu_0, # of connection points: 6
#     Node 7, Type 0, BuildingBlock: IZENUY_clean_sbu_0, # of connection points: 6
#     Node 8, Type 0, BuildingBlock: IZENUY_clean_sbu_0, # of connection points: 6
#     Node 9, Type 0, BuildingBlock: IZENUY_clean_sbu_0, # of connection points: 6
#     Node 10, Type 0, BuildingBlock: IZENUY_clean_sbu_0, # of connection points: 6
#     Node 11, Type 0, BuildingBlock: IZENUY_clean_sbu_0, # of connection points: 6
#     Node 12, Type 0, BuildingBlock: IZENUY_clean_sbu_0, # of connection points: 6
#     Node 13, Type 0, BuildingBlock: IZENUY_clean_sbu_0, # of connection points: 6
#     Node 14, Type 0, BuildingBlock: IZENUY_clean_sbu_0, # of connection points: 6
#     Node 15, Type 0, BuildingBlock: IZENUY_clean_sbu_0, # of connection points: 6
#     Node 16, Type 0, BuildingBlock: IZENUY_clean_sbu_0, # of connection points: 6
#     Node 17, Type 0, BuildingBlock: IZENUY_clean_sbu_0, # of connection points: 6
#     Edge 18, Type (0, 0), None
#     Edge 19, Type (0, 0), None
#     Edge 20, Type (0, 0), None
#     Edge 21, Type (0, 0), None
#     Edge 22, Type (0, 0), None
#     Edge 23, Type (0, 0), None
#     Edge 24, Type (0, 0), None
#     Edge 25, Type (0, 0), None
#     Edge 26, Type (0, 0), None
#     Edge 27, Type (0, 0), None
#     Edge 28, Type (0, 0), None
#     Edge 29, Type (0, 0), None
#     Edge 30, Type (0, 0), None
#     Edge 31, Type (0, 0), None
#     Edge 32, Type (0, 0), None
#     Edge 33, Type (0, 0), None
#     Edge 34, Type (0, 0), None
#     Edge 35, Type (0, 0), None
#     Edge 36, Type (0, 0), None
#     Edge 37, Type (0, 0), None
#     Edge 38, Type (0, 0), None
#     Edge 39, Type (0, 0), None
#     Edge 40, Type (0, 0), None
#     Edge 41, Type (0, 0), None
#     Edge 42, Type (0, 0), None
#     Edge 43, Type (0, 0), None
#     Edge 44, Type (0, 0), None
#     Edge 45, Type (0, 0), None
#     Edge 46, Type (0, 0), None
#     Edge 47, Type (0, 0), None
#     Edge 48, Type (0, 0), None
#     Edge 49, Type (0, 0), None
#     Edge 50, Type (0, 0), None
#     Edge 51, Type (0, 0), None
#     Edge 52, Type (0, 0), None
#     Edge 53, Type (0, 0), None
#     Edge 54, Type (0, 0), None
#     Edge 55, Type (0, 0), None
#     Edge 56, Type (0, 0), None
#     Edge 57, Type (0, 0), None
#     Edge 58, Type (0, 0), None
#     Edge 59, Type (0, 0), None
#     Edge 60, Type (0, 0), None
#     Edge 61, Type (0, 0), None
#     Edge 62, Type (0, 0), None
#     Edge 63, Type (0, 0), None
#     Edge 64, Type (0, 0), None
#     Edge 65, Type (0, 0), None
#     Edge 66, Type (0, 0), None
#     Edge 67, Type (0, 0), None
#     Edge 68, Type (0, 0), None
#     Edge 69, Type (0, 0), None
#     Edge 70, Type (0, 0), None
#     Edge 71, Type (0, 0), None
# Relax obj value: 0.248
# Max RMSD: 0.243
# Mean RMSD: 0.241
data_MOF--net-smg--node1-IZENUY_clean_sbu_0--edge1-none
_symmetry_space_group_name_H-M    P1
_symmetry_Int_Tables_number       1
_symmetry_cell_setting            triclinic
loop_
_symmetry_equiv_pos_as_xyz
'x, y, z'
_cell_length_a     20.852154
_cell_length_b     20.854698
_cell_length_c     19.415603
_cell_angle_alpha  89.992231
_cell_angle_beta   90.005211
_cell_angle_gamma 119.99597
loop_
_atom_site_label
_atom_site_type_symbol
_atom_site_fract_x
_atom_site_fract_y
_atom_site_fract_z
_atom_type_partial_charge
Fe0 Fe 0.15015 0.66864 0.29955 0.0
Fe1 Fe 0.06948 0.75352 0.27216 0.0
O2 O 0.06948 0.66787 0.27215 0.0
Fe3 Fe 0.9888 0.588 0.24475 0.0
O4 O 0.98699 0.52699 0.31242 0.0
O5 O 0.09917 0.58971 0.35817 0.0
O6 O 0.15646 0.72711 0.37228 0.0
C7 C 0.1019 0.7279 0.4013 0.0
C8 C 0.10582 0.57154 0.18599 0.0
O9 O 0.06014 0.74491 0.36676 0.0
C10 C 1.03707 0.69552 0.14301 0.0
O11 O 0.20816 0.74687 0.24026 0.0
O12 O 0.16789 0.81443 0.28219 0.0
O13 O 1.03977 0.56004 0.18613 0.0
O14 O 0.15195 0.60946 0.23187 0.0
C15 C 0.92641 0.66637 0.30055 0.0
O16 O 0.07883 0.75427 0.17755 0.0
O17 O 0.9825 0.64019 0.17204 0.0
C18 C 0.21254 0.8094 0.24375 0.0
O19 O 0.97108 0.71606 0.26213 0.0
O20 O 0.93081 0.60823 0.30405 0.0
C21 C 1.03312 0.53517 0.3583 0.0
Fe22 Fe 0.4577 0.52571 0.29956 0.0
Fe23 Fe 0.53836 0.44503 0.24475 0.0
O24 O 0.45848 0.44583 0.27216 0.0
Fe25 Fe 0.37282 0.36019 0.27217 0.0
O26 O 0.3119 0.39768 0.28217 0.0
O27 O 0.37948 0.5055 0.24024 0.0
O28 O 0.5169 0.5867 0.23189 0.0
C29 C 0.55481 0.5785 0.18599 0.0
C30 C 0.39841 0.4182 0.4013 0.0
O31 O 0.5663 0.52394 0.18612 0.0
C32 C 0.45999 0.30429 0.30059 0.0
O33 O 0.53661 0.55363 0.35818 0.0
O34 O 0.59937 0.50423 0.31242 0.0
O35 O 0.38142 0.35945 0.36678 0.0
O36 O 0.3992 0.47354 0.37227 0.0
C37 C 0.43083 0.38576 0.14302 0.0
O38 O 0.51815 0.36681 0.30407 0.0
O39 O 0.4103 0.29926 0.26216 0.0
C40 C 0.59117 0.54214 0.35831 0.0
O41 O 0.48618 0.38654 0.17205 0.0
O42 O 0.37207 0.36878 0.17756 0.0
C43 C 0.31694 0.44737 0.24374 0.0
Fe44 Fe 0.68131 0.13749 0.24475 0.0
Fe45 Fe 0.60069 0.97616 0.29958 0.0
O46 O 0.68055 0.05684 0.27216 0.0
Fe47 Fe 0.76623 0.05687 0.27216 0.0
O48 O 0.82712 0.15527 0.26215 0.0
O49 O 0.75951 0.19549 0.30406 0.0
O50 O 0.62209 0.13926 0.31241 0.0
C51 C 0.58421 0.09316 0.35833 0.0
C52 C 0.74063 0.0893 0.14302 0.0
O53 O 0.57274 1.02712 0.35822 0.0
C54 C 0.67909 0.91382 0.24374 0.0
O55 O 0.6024 0.0865 0.18612 0.0
O56 O 0.53966 0.97435 0.23193 0.0
O57 O 0.75763 0.04754 0.17755 0.0
O58 O 0.73982 0.14384 0.17205 0.0
C59 C 0.70821 1.02443 0.4013 0.0
O60 O 0.62091 0.91818 0.24027 0.0
O61 O 0.72878 0.95847 0.28217 0.0
C62 C 0.54785 1.02045 0.18602 0.0
O63 O 0.6529 0.96985 0.37228 0.0
O64 O 0.76697 0.0662 0.36678 0.0
C65 C 0.82207 0.19991 0.30057 0.0
Fe66 Fe 0.15019 0.52567 0.79956 0.0
Fe67 Fe 0.98884 0.44503 0.74476 0.0
O68 O 0.06951 0.4458 0.77216 0.0
Fe69 Fe 0.06951 0.36015 0.77216 0.0
O70 O 0.16791 0.39761 0.78219 0.0
O71 O 0.20818 0.50543 0.74027 0.0
O72 O 0.152 0.58667 0.73189 0.0
C73 C 0.10588 0.5785 0.68601 0.0
C74 C 0.10193 0.41815 0.9013 0.0
O75 O 1.03982 0.52396 0.68614 0.0
C76 C 0.92645 0.30427 0.80057 0.0
O77 O 0.09923 0.55363 0.85818 0.0
O78 O 0.98704 0.50421 0.81244 0.0
O79 O 0.06016 0.3594 0.86678 0.0
O80 O 0.1565 0.47348 0.87228 0.0
C81 C 1.03709 0.38576 0.64302 0.0
O82 O 0.93083 0.3668 0.80405 0.0
O83 O 0.9711 0.29924 0.76213 0.0
C84 C 1.03317 0.54213 0.85832 0.0
O85 O 0.98253 0.38656 0.67204 0.0
O86 O 0.07885 0.36876 0.67756 0.0
C87 C 0.21258 0.44729 0.74377 0.0
Fe88 Fe 0.76619 0.75349 0.77216 0.0
Fe89 Fe 0.68131 0.58797 0.74476 0.0
O90 O 0.68053 0.66785 0.77216 0.0
Fe91 Fe 0.60065 0.66865 0.79956 0.0
O92 O 0.65283 0.72714 0.87227 0.0
O93 O 0.76693 0.7449 0.86677 0.0
O94 O 0.82711 0.71599 0.76215 0.0
C95 C 0.82207 0.66631 0.80057 0.0
C96 C 0.67903 0.80939 0.74373 0.0
O97 O 0.75953 0.60818 0.80408 0.0
C98 C 0.54784 0.57154 0.68601 0.0
O99 O 0.75759 0.75423 0.67754 0.0
O100 O 0.73981 0.64014 0.67205 0.0
O101 O 0.62086 0.74687 0.74025 0.0
O102 O 0.72871 0.81442 0.78216 0.0
C103 C 0.5842 0.53518 0.85833 0.0
O104 O 0.60239 0.56004 0.68614 0.0
O105 O 0.53964 0.60945 0.7319 0.0
C106 C 0.7406 0.69548 0.64302 0.0
O107 O 0.62211 0.52697 0.81243 0.0
O108 O 0.57271 0.58974 0.8582 0.0
C109 C 0.70818 0.72792 0.9013 0.0
Fe110 Fe 0.53833 0.13752 0.74474 0.0
Fe111 Fe 0.37279 0.05681 0.77216 0.0
O112 O 0.45846 0.05684 0.77216 0.0
Fe113 Fe 0.4577 0.97619 0.79956 0.0
O114 O 0.51692 0.97442 0.7319 0.0
O115 O 0.56627 0.08656 0.6861 0.0
O116 O 0.48612 0.14383 0.67205 0.0
C117 C 0.4308 0.08926 0.64302 0.0
C118 C 0.59116 0.09323 0.8583 0.0
O119 O 0.37204 0.04749 0.67754 0.0
C120 C 0.39838 1.02437 0.9013 0.0
O121 O 0.5181 0.1955 0.80405 0.0
O122 O 0.41024 0.15521 0.76216 0.0
O123 O 0.53661 1.02718 0.85819 0.0
O124 O 0.59935 0.13933 0.81239 0.0
C125 C 0.31694 0.91377 0.74375 0.0
O126 O 0.38138 0.06614 0.86677 0.0
O127 O 0.39919 0.96984 0.87227 0.0
C128 C 0.45993 0.19986 0.80058 0.0
O129 O 0.31189 0.95841 0.78217 0.0
O130 O 0.3795 0.91819 0.74025 0.0
C131 C 0.5548 1.02052 0.68599 0.0
Fe132 Fe 0.81684 1.00198 0.6329 0.0
Fe133 Fe 0.73618 0.08687 0.6055 0.0
O134 O 0.73617 1.00121 0.6055 0.0
Fe135 Fe 0.65549 0.92135 0.57809 0.0
O136 O 0.65368 0.86034 0.64577 0.0
O137 O 0.76586 0.92306 0.69151 0.0
O138 O 0.82315 0.06046 0.70562 0.0
C139 C 0.76859 0.06125 0.73464 0.0
C140 C 0.77251 0.90488 0.51934 0.0
O141 O 0.72684 0.07827 0.7001 0.0
C142 C 0.70375 1.02887 0.47636 0.0
O143 O 0.87484 0.08021 0.5736 0.0
O144 O 0.83459 0.14777 0.61552 0.0
O145 O 0.70645 0.89339 0.51947 0.0
O146 O 0.81864 0.9428 0.56522 0.0
C147 C 0.59313 0.99973 0.6339 0.0
O148 O 0.74552 0.08762 0.51088 0.0
O149 O 0.64918 0.97354 0.50538 0.0
C150 C 0.87923 0.14274 0.57709 0.0
O151 O 0.63777 0.04942 0.59547 0.0
O152 O 0.59749 0.94157 0.63739 0.0
C153 C 0.6998 0.86852 0.69165 0.0
Fe154 Fe 0.20503 0.77836 0.57809 0.0
Fe155 Fe 0.12436 0.85903 0.63289 0.0
O156 O 0.12514 0.77915 0.60549 0.0
Fe157 Fe 1.03949 0.69351 0.60551 0.0
O158 O 0.07696 0.63258 0.59551 0.0
O159 O 0.18482 0.70015 0.6374 0.0
O160 O 0.26604 0.83756 0.64575 0.0
C161 C 0.25783 0.87546 0.69165 0.0
C162 C 0.09749 0.71906 0.47636 0.0
O163 O 0.20327 0.88696 0.69152 0.0
C164 C 0.98361 0.78068 0.57706 0.0
O165 O 0.23295 0.85727 0.51945 0.0
O166 O 0.18356 0.92003 0.56523 0.0
O167 O 1.03873 0.70209 0.51089 0.0
O168 O 0.15284 0.71986 0.50539 0.0
C169 C 0.06509 0.75153 0.73464 0.0
O170 O 1.04614 0.83883 0.57358 0.0
O171 O 0.97857 0.73101 0.61551 0.0
C172 C 0.22146 0.91183 0.51933 0.0
O173 O 0.06586 0.80686 0.7056 0.0
O174 O 1.04809 0.69277 0.70012 0.0
C175 C 0.12666 0.63763 0.63393 0.0
Fe176 Fe 0.26734 0.30949 0.63292 0.0
Fe177 Fe 0.43288 0.39018 0.6055 0.0
O178 O 0.34721 0.39016 0.6055 0.0
Fe179 Fe 0.34797 0.47081 0.57809 0.0
O180 O 0.28875 0.47258 0.64575 0.0
O181 O 0.2394 0.36044 0.69156 0.0
O182 O 0.31954 0.30316 0.70561 0.0
C183 C 0.37486 0.35773 0.73463 0.0
C184 C 0.21451 0.35378 0.51935 0.0
O185 O 0.43362 0.3995 0.70011 0.0
C186 C 0.4073 0.42264 0.47636 0.0
O187 O 0.28756 0.2515 0.5736 0.0
O188 O 0.39542 0.29178 0.61549 0.0
O189 O 0.26906 0.41983 0.51946 0.0
O190 O 0.20631 0.30768 0.56527 0.0
C191 C 0.48871 0.53321 0.63392 0.0
O192 O 0.42429 0.38086 0.51089 0.0
O193 O 0.40649 0.47717 0.50539 0.0
C194 C 0.34573 0.24714 0.57707 0.0
O195 O 0.49379 0.48858 0.5955 0.0
O196 O 0.42617 0.52882 0.6374 0.0
C197 C 0.25088 0.42649 0.69167 0.0
Fe198 Fe 0.81688 0.85901 0.13291 0.0
Fe199 Fe 0.73619 0.69349 0.10551 0.0
O200 O 0.7362 0.77914 0.1055 0.0
Fe201 Fe 0.65553 0.77837 0.0781 0.0
O202 O 0.65373 0.83756 0.14578 0.0
O203 O 0.76592 0.88697 0.19153 0.0
O204 O 0.82318 0.80682 0.20562 0.0
C205 C 0.7686 0.7515 0.23464 0.0
C206 C 0.77257 0.91184 1.01935 0.0
O207 O 0.72684 0.69274 0.20012 0.0
C208 C 0.70375 0.71908 0.97636 0.0
O209 O 0.87487 0.83878 0.07361 0.0
O210 O 0.83459 0.73095 0.11553 0.0
O211 O 0.70651 0.8573 1.01949 0.0
O212 O 0.81869 0.92002 0.06523 0.0
C213 C 0.59314 0.63762 0.1339 0.0
O214 O 0.74553 0.70209 1.0109 0.0
O215 O 0.64921 0.7199 1.00538 0.0
C216 C 0.87924 0.78062 0.07709 0.0
O217 O 0.63778 0.63257 0.09548 0.0
O218 O 0.59752 0.70015 0.13739 0.0
C219 C 0.69986 0.87547 0.19167 0.0
Fe220 Fe 0.34798 0.9213 0.0781 0.0
Fe221 Fe 0.26731 1.00198 0.1329 0.0
O222 O 0.34719 1.00119 0.1055 0.0
Fe223 Fe 0.43285 0.08683 0.10549 0.0
O224 O 0.49377 0.04935 0.09549 0.0
O225 O 0.42619 0.9415 0.13741 0.0
O226 O 0.28877 0.86031 0.14576 0.0
C227 C 0.25087 0.86852 0.19167 0.0
C228 C 0.40727 1.02882 0.97635 0.0
O229 O 0.23937 0.92307 0.19154 0.0
C230 C 0.34567 0.14272 0.07705 0.0
O231 O 0.26907 0.89338 1.01947 0.0
O232 O 0.2063 0.94278 0.06524 0.0
O233 O 0.42425 0.08757 1.01088 0.0
O234 O 0.40648 0.97347 1.00539 0.0
C235 C 0.37484 0.06126 0.23463 0.0
O236 O 0.28752 0.08019 0.07358 0.0
O237 O 0.39536 0.14775 0.11549 0.0
C238 C 0.2145 0.90488 1.01934 0.0
O239 O 0.31949 0.06048 0.2056 0.0
O240 O 0.4336 0.07825 0.2001 0.0
C241 C 0.48872 0.99965 0.13393 0.0
Fe242 Fe 1.03945 0.39015 0.1055 0.0
Fe243 Fe 0.20499 0.47085 0.07807 0.0
O244 O 0.12512 0.39018 0.10549 0.0
Fe245 Fe 0.12436 0.30952 0.13291 0.0
O246 O 0.06585 0.30318 0.20561 0.0
O247 O 1.04804 0.39948 0.20011 0.0
O248 O 0.0769 0.48855 0.0955 0.0
C249 C 0.1266 0.5332 0.13391 0.0
C250 C 0.98361 0.24713 0.07707 0.0
O251 O 0.18478 0.52884 0.13738 0.0
C252 C 0.22145 0.35384 1.01932 0.0
O253 O 1.0387 0.38083 1.01088 0.0
O254 O 0.15278 0.47717 1.00538 0.0
O255 O 1.04615 0.25152 0.0736 0.0
O256 O 0.97855 0.29175 0.11551 0.0
C257 C 0.25782 0.42656 0.19164 0.0
O258 O 0.23292 0.41988 1.01943 0.0
O259 O 0.18358 0.30775 0.06525 0.0
C260 C 0.09745 0.42261 0.97635 0.0
O261 O 0.26602 0.47265 0.14572 0.0
O262 O 0.20327 0.36051 0.19154 0.0
C263 C 0.06506 0.35773 0.23464 0.0
Fe264 Fe 0.48348 0.33531 0.96622 0.0
Fe265 Fe 0.40281 0.42019 0.93882 0.0
O266 O 0.40281 0.33454 0.93882 0.0
Fe267 Fe 0.32213 0.25466 0.91142 0.0
O268 O 0.32032 0.19366 0.97909 0.0
O269 O 0.43251 0.25639 0.02484 0.0
O270 O 0.4898 0.39379 0.03894 0.0
C271 C 0.43524 0.39458 0.06796 0.0
C272 C 0.43916 0.23821 0.85266 0.0
O273 O 0.39348 0.41159 0.03343 0.0
C274 C 0.37039 0.36219 0.80968 0.0
O275 O 0.5415 0.41353 0.90693 0.0
O276 O 0.50122 0.4811 0.94884 0.0
O277 O 0.3731 0.22671 0.85279 0.0
O278 O 0.48528 0.27612 0.89855 0.0
C279 C 0.25976 0.33304 0.96723 0.0
O280 O 0.41215 0.42094 0.84421 0.0
O281 O 0.31582 0.30685 0.83871 0.0
C282 C 0.54585 0.47605 0.9104 0.0
O283 O 0.30441 0.38273 0.9288 0.0
O284 O 0.26413 0.27489 0.97072 0.0
C285 C 0.36645 0.20184 0.02498 0.0
Fe286 Fe 0.79103 0.19237 0.96623 0.0
Fe287 Fe 0.8717 0.1117 0.91142 0.0
O288 O 0.79181 0.11248 0.93883 0.0
Fe289 Fe 0.70616 1.02684 0.93883 0.0
O290 O 0.64523 0.06433 0.94883 0.0
O291 O 0.71282 0.17217 0.90691 0.0
O292 O 0.85024 0.25337 0.89856 0.0
C293 C 0.88813 0.24515 0.85265 0.0
C294 C 0.73173 0.08486 0.06797 0.0
O295 O 0.89962 0.1906 0.85278 0.0
C296 C 0.79333 0.97098 0.96728 0.0
O297 O 0.86993 0.22028 0.02486 0.0
O298 O 0.93271 0.1709 0.97908 0.0
O299 O 0.71475 1.0261 0.03345 0.0
O300 O 0.73252 0.1402 0.03893 0.0
C301 C 0.76417 0.05241 0.8097 0.0
O302 O 0.85151 1.03349 0.97074 0.0
O303 O 0.74364 0.96592 0.92884 0.0
C304 C 0.92449 0.20879 0.02498 0.0
O305 O 0.81952 0.05319 0.83873 0.0
O306 O 0.70541 1.03542 0.84422 0.0
C307 C 0.65029 0.11402 0.91039 0.0
Fe308 Fe 0.09956 0.72353 0.93883 0.0
Fe309 Fe 1.01464 0.80415 0.91141 0.0
O310 O 1.01389 0.7235 0.93883 0.0
Fe311 Fe 0.93402 0.64282 0.96625 0.0
O312 O 0.98622 0.6365 0.03894 0.0
O313 O 0.1003 0.73284 0.03344 0.0
O314 O 0.16046 0.82193 0.92883 0.0
C315 C 0.15539 0.86655 0.96725 0.0
C316 C 1.01241 0.5805 0.91039 0.0
O317 O 0.09284 0.86216 0.97073 0.0
C318 C 0.88119 0.68711 0.85268 0.0
O319 O 0.09098 0.71421 0.84422 0.0
O320 O 0.07316 0.81051 0.83871 0.0
O321 O 0.95423 0.58483 0.90694 0.0
O322 O 0.06211 0.62513 0.94882 0.0
C323 C 0.91756 0.75983 0.025 0.0
O324 O 0.93574 0.75316 0.85278 0.0
O325 O 0.87298 0.64102 0.8986 0.0
C326 C 0.07398 0.75597 0.80969 0.0
O327 O 0.95542 0.80592 0.97907 0.0
O328 O 0.90609 0.69379 0.02489 0.0
C329 C 1.04154 0.69107 0.06796 0.0
Fe330 Fe 0.40284 1.02681 0.43883 0.0
Fe331 Fe 0.48353 0.19234 0.46623 0.0
O332 O 0.40285 0.11247 0.43883 0.0
Fe333 Fe 0.32217 0.11169 0.41142 0.0
O334 O 0.31586 0.05322 0.33871 0.0
O335 O 0.41218 1.03541 0.34422 0.0
O336 O 0.50125 0.06427 0.44885 0.0
C337 C 0.54589 0.11396 0.41042 0.0
C338 C 0.25981 0.97096 0.46725 0.0
O339 O 0.54152 0.17212 0.40693 0.0
C340 C 0.3665 0.20879 0.52499 0.0
O341 O 0.3935 1.02606 0.53344 0.0
O342 O 0.48984 0.14015 0.53894 0.0
O343 O 0.26416 1.03347 0.47072 0.0
O344 O 0.30444 0.9659 0.42881 0.0
C345 C 0.43921 0.24516 0.35267 0.0
O346 O 0.43256 0.22029 0.52485 0.0
O347 O 0.32038 0.17088 0.4791 0.0
C348 C 0.43527 0.08481 0.56797 0.0
O349 O 0.48533 0.25335 0.39856 0.0
O350 O 0.37315 0.19062 0.3528 0.0
C351 C 0.37042 0.05242 0.30969 0.0
Fe352 Fe 0.93398 0.33532 0.46623 0.0
Fe353 Fe 0.09952 0.42017 0.43882 0.0
O354 O 1.01387 0.33453 0.43883 0.0
Fe355 Fe 1.01465 0.25464 0.41142 0.0
O356 O 0.95544 0.19364 0.47908 0.0
O357 O 0.90606 0.25641 0.52487 0.0
O358 O 0.98616 0.39382 0.53893 0.0
C359 C 1.04151 0.3946 0.56796 0.0
C360 C 0.88118 0.23822 0.35267 0.0
O361 O 0.10027 0.41159 0.53343 0.0
C362 C 0.07395 0.36216 0.30969 0.0
O363 O 0.95417 0.41353 0.40692 0.0
O364 O 0.06204 0.48109 0.44881 0.0
O365 O 0.93574 0.22673 0.35279 0.0
O366 O 0.87297 0.27611 0.39857 0.0
C367 C 0.15539 0.33299 0.46726 0.0
O368 O 0.09093 0.42091 0.34421 0.0
O369 O 0.07316 0.30682 0.33872 0.0
C370 C 1.01235 0.47604 0.41037 0.0
O371 O 0.16045 0.38268 0.42883 0.0
O372 O 0.09286 0.27484 0.47074 0.0
C373 C 0.91755 0.20186 0.525 0.0
Fe374 Fe 0.70612 0.72349 0.43883 0.0
Fe375 Fe 0.79103 0.64286 0.46623 0.0
O376 O 0.79179 0.72352 0.43883 0.0
Fe377 Fe 0.87166 0.80419 0.4114 0.0
O378 O 0.81946 0.81052 0.33872 0.0
O379 O 0.70537 0.71418 0.34421 0.0
O380 O 0.64521 0.62509 0.44882 0.0
C381 C 0.65029 0.58047 0.4104 0.0
C382 C 0.79327 0.86651 0.46727 0.0
O383 O 0.71283 0.58485 0.40692 0.0
C384 C 0.92449 0.7599 0.52497 0.0
O385 O 0.7147 0.7328 0.53344 0.0
O386 O 0.73251 0.6365 0.53894 0.0
O387 O 0.85145 0.86218 0.47072 0.0
O388 O 0.74357 0.82189 0.42884 0.0
C389 C 0.88812 0.68718 0.35265 0.0
O390 O 0.86994 0.69385 0.52487 0.0
O391 O 0.93269 0.80599 0.47905 0.0
C392 C 0.7317 0.69104 0.56797 0.0
O393 O 0.85026 0.64109 0.39858 0.0
O394 O 0.89959 0.75323 0.35276 0.0
C395 C 0.76414 0.75594 0.30969 0.0
loop_
_geom_bond_atom_site_label_1
_geom_bond_atom_site_label_2
_geom_bond_distance
_geom_bond_site_symmetry_2
_ccdc_geom_bond_type
Fe0 O2 1.918 . S
Fe0 O5 1.997 . S
Fe0 O6 2.002 . S
Fe0 O11 1.976 . S
Fe0 O14 1.996 . S
Fe1 O2 1.918 . S
Fe1 O9 1.997 . S
Fe1 O12 1.996 . S
Fe1 O16 1.976 1_455 S
Fe1 O19 2.002 1_455 S
O2 Fe0 1.918 . S
O2 Fe1 1.918 . S
O2 Fe3 1.918 1_455 S
Fe3 O2 1.918 1_655 S
Fe3 O4 2.002 . S
Fe3 O13 1.976 . S
Fe3 O17 1.996 . S
Fe3 O20 1.997 . S
O4 Fe3 2.002 . S
O4 C21 1.295 . S
O5 Fe0 1.997 . S
O5 C21 1.235 1_455 S
O6 Fe0 2.002 . S
O6 C7 1.295 . S
C7 O6 1.295 . S
C7 O9 1.235 . S
C8 O13 1.287 1_455 S
C8 O14 1.255 . S
O9 Fe1 1.997 . S
O9 C7 1.235 . S
C10 O16 1.287 . S
C10 O17 1.255 . S
O11 Fe0 1.976 . S
O11 C18 1.287 . S
O12 Fe1 1.996 . S
O12 C18 1.255 . S
O13 Fe3 1.976 . S
O13 C8 1.287 1_655 S
O14 Fe0 1.996 . S
O14 C8 1.255 . S
C15 O19 1.295 . S
C15 O20 1.235 . S
O16 Fe1 1.976 1_655 S
O16 C10 1.287 . S
O17 Fe3 1.996 . S
O17 C10 1.255 . S
C18 O11 1.287 . S
C18 O12 1.255 . S
O19 Fe1 2.002 1_655 S
O19 C15 1.295 . S
O20 Fe3 1.997 . S
O20 C15 1.235 . S
C21 O4 1.295 . S
C21 O5 1.235 1_655 S
Fe22 O24 1.918 . S
Fe22 O27 1.997 . S
Fe22 O28 2.002 . S
Fe22 O33 1.976 . S
Fe22 O36 1.996 . S
Fe23 O24 1.918 . S
Fe23 O31 1.997 . S
Fe23 O34 1.996 . S
Fe23 O38 1.976 . S
Fe23 O41 2.002 . S
O24 Fe22 1.918 . S
O24 Fe23 1.918 . S
O24 Fe25 1.918 . S
Fe25 O24 1.918 . S
Fe25 O26 2.002 . S
Fe25 O35 1.976 . S
Fe25 O39 1.996 . S
Fe25 O42 1.997 . S
O26 Fe25 2.002 . S
O26 C43 1.295 . S
O27 Fe22 1.997 . S
O27 C43 1.235 . S
O28 Fe22 2.002 . S
O28 C29 1.295 . S
C29 O28 1.295 . S
C29 O31 1.235 . S
C30 O35 1.287 . S
C30 O36 1.255 . S
O31 Fe23 1.997 . S
O31 C29 1.235 . S
C32 O38 1.287 . S
C32 O39 1.255 . S
O33 Fe22 1.976 . S
O33 C40 1.287 . S
O34 Fe23 1.996 . S
O34 C40 1.255 . S
O35 Fe25 1.976 . S
O35 C30 1.287 . S
O36 Fe22 1.996 . S
O36 C30 1.255 . S
C37 O41 1.295 . S
C37 O42 1.235 . S
O38 Fe23 1.976 . S
O38 C32 1.287 . S
O39 Fe25 1.996 . S
O39 C32 1.255 . S
C40 O33 1.287 . S
C40 O34 1.255 . S
O41 Fe23 2.002 . S
O41 C37 1.295 . S
O42 Fe25 1.997 . S
O42 C37 1.235 . S
C43 O26 1.295 . S
C43 O27 1.235 . S
Fe44 O46 1.918 . S
Fe44 O49 1.997 . S
Fe44 O50 2.002 . S
Fe44 O55 1.976 . S
Fe44 O58 1.996 . S
Fe45 O46 1.918 1_565 S
Fe45 O53 1.997 . S
Fe45 O56 1.996 . S
Fe45 O60 1.976 . S
Fe45 O63 2.002 . S
O46 Fe44 1.918 . S
O46 Fe45 1.918 1_545 S
O46 Fe47 1.918 . S
Fe47 O46 1.918 . S
Fe47 O48 2.002 . S
Fe47 O57 1.976 . S
Fe47 O61 1.996 1_545 S
Fe47 O64 1.997 1_545 S
O48 Fe47 2.002 . S
O48 C65 1.295 . S
O49 Fe44 1.997 . S
O49 C65 1.235 . S
O50 Fe44 2.002 . S
O50 C51 1.295 . S
C51 O50 1.295 . S
C51 O53 1.235 1_545 S
C52 O57 1.287 . S
C52 O58 1.255 . S
O53 Fe45 1.997 . S
O53 C51 1.235 1_565 S
C54 O60 1.287 . S
C54 O61 1.255 . S
O55 Fe44 1.976 . S
O55 C62 1.287 1_545 S
O56 Fe45 1.996 . S
O56 C62 1.255 . S
O57 Fe47 1.976 . S
O57 C52 1.287 . S
O58 Fe44 1.996 . S
O58 C52 1.255 . S
C59 O63 1.295 . S
C59 O64 1.235 . S
O60 Fe45 1.976 . S
O60 C54 1.287 . S
O61 Fe47 1.996 1_565 S
O61 C54 1.255 . S
C62 O55 1.287 1_565 S
C62 O56 1.255 . S
O63 Fe45 2.002 . S
O63 C59 1.295 . S
O64 Fe47 1.997 1_565 S
O64 C59 1.235 . S
C65 O48 1.295 . S
C65 O49 1.235 . S
Fe66 O68 1.918 . S
Fe66 O71 1.997 . S
Fe66 O72 2.002 . S
Fe66 O77 1.976 . S
Fe66 O80 1.996 . S
Fe67 O68 1.918 1_655 S
Fe67 O75 1.997 . S
Fe67 O78 1.996 . S
Fe67 O82 1.976 . S
Fe67 O85 2.002 . S
O68 Fe66 1.918 . S
O68 Fe67 1.918 1_455 S
O68 Fe69 1.918 . S
Fe69 O68 1.918 . S
Fe69 O70 2.002 . S
Fe69 O79 1.976 . S
Fe69 O83 1.996 1_455 S
Fe69 O86 1.997 1_455 S
O70 Fe69 2.002 . S
O70 C87 1.295 . S
O71 Fe66 1.997 . S
O71 C87 1.235 . S
O72 Fe66 2.002 . S
O72 C73 1.295 . S
C73 O72 1.295 . S
C73 O75 1.235 1_455 S
C74 O79 1.287 . S
C74 O80 1.255 . S
O75 Fe67 1.997 . S
O75 C73 1.235 1_655 S
C76 O82 1.287 . S
C76 O83 1.255 . S
O77 Fe66 1.976 . S
O77 C84 1.287 1_455 S
O78 Fe67 1.996 . S
O78 C84 1.255 . S
O79 Fe69 1.976 . S
O79 C74 1.287 . S
O80 Fe66 1.996 . S
O80 C74 1.255 . S
C81 O85 1.295 . S
C81 O86 1.235 . S
O82 Fe67 1.976 . S
O82 C76 1.287 . S
O83 Fe69 1.996 1_655 S
O83 C76 1.255 . S
C84 O77 1.287 1_655 S
C84 O78 1.255 . S
O85 Fe67 2.002 . S
O85 C81 1.295 . S
O86 Fe69 1.997 1_655 S
O86 C81 1.235 . S
C87 O70 1.295 . S
C87 O71 1.235 . S
Fe88 O90 1.918 . S
Fe88 O93 1.997 . S
Fe88 O94 2.002 . S
Fe88 O99 1.976 . S
Fe88 O102 1.996 . S
Fe89 O90 1.918 . S
Fe89 O97 1.997 . S
Fe89 O100 1.996 . S
Fe89 O104 1.976 . S
Fe89 O107 2.002 . S
O90 Fe88 1.918 . S
O90 Fe89 1.918 . S
O90 Fe91 1.918 . S
Fe91 O90 1.918 . S
Fe91 O92 2.002 . S
Fe91 O101 1.976 . S
Fe91 O105 1.996 . S
Fe91 O108 1.997 . S
O92 Fe91 2.002 . S
O92 C109 1.295 . S
O93 Fe88 1.997 . S
O93 C109 1.235 . S
O94 Fe88 2.002 . S
O94 C95 1.295 . S
C95 O94 1.295 . S
C95 O97 1.235 . S
C96 O101 1.287 . S
C96 O102 1.255 . S
O97 Fe89 1.997 . S
O97 C95 1.235 . S
C98 O104 1.287 . S
C98 O105 1.255 . S
O99 Fe88 1.976 . S
O99 C106 1.287 . S
O100 Fe89 1.996 . S
O100 C106 1.255 . S
O101 Fe91 1.976 . S
O101 C96 1.287 . S
O102 Fe88 1.996 . S
O102 C96 1.255 . S
C103 O107 1.295 . S
C103 O108 1.235 . S
O104 Fe89 1.976 . S
O104 C98 1.287 . S
O105 Fe91 1.996 . S
O105 C98 1.255 . S
C106 O99 1.287 . S
C106 O100 1.255 . S
O107 Fe89 2.002 . S
O107 C103 1.295 . S
O108 Fe91 1.997 . S
O108 C103 1.235 . S
C109 O92 1.295 . S
C109 O93 1.235 . S
Fe110 O112 1.918 . S
Fe110 O115 1.997 . S
Fe110 O116 2.002 . S
Fe110 O121 1.976 . S
Fe110 O124 1.996 . S
Fe111 O112 1.918 . S
Fe111 O119 1.997 . S
Fe111 O122 1.996 . S
Fe111 O126 1.976 1_545 S
Fe111 O129 2.002 1_545 S
O112 Fe110 1.918 . S
O112 Fe111 1.918 . S
O112 Fe113 1.918 1_545 S
Fe113 O112 1.918 1_565 S
Fe113 O114 2.002 . S
Fe113 O123 1.976 . S
Fe113 O127 1.996 . S
Fe113 O130 1.997 . S
O114 Fe113 2.002 . S
O114 C131 1.295 . S
O115 Fe110 1.997 . S
O115 C131 1.235 1_545 S
O116 Fe110 2.002 . S
O116 C117 1.295 . S
C117 O116 1.295 . S
C117 O119 1.235 . S
C118 O123 1.287 1_545 S
C118 O124 1.255 . S
O119 Fe111 1.997 . S
O119 C117 1.235 . S
C120 O126 1.287 . S
C120 O127 1.255 . S
O121 Fe110 1.976 . S
O121 C128 1.287 . S
O122 Fe111 1.996 . S
O122 C128 1.255 . S
O123 Fe113 1.976 . S
O123 C118 1.287 1_565 S
O124 Fe110 1.996 . S
O124 C118 1.255 . S
C125 O129 1.295 . S
C125 O130 1.235 . S
O126 Fe111 1.976 1_565 S
O126 C120 1.287 . S
O127 Fe113 1.996 . S
O127 C120 1.255 . S
C128 O121 1.287 . S
C128 O122 1.255 . S
O129 Fe111 2.002 1_565 S
O129 C125 1.295 . S
O130 Fe113 1.997 . S
O130 C125 1.235 . S
C131 O114 1.295 . S
C131 O115 1.235 1_565 S
Fe132 O134 1.918 . S
Fe132 O137 1.997 . S
Fe132 O138 2.002 . S
Fe132 O143 1.976 1_565 S
Fe132 O146 1.996 . S
Fe133 O134 1.918 1_545 S
Fe133 O141 1.997 . S
Fe133 O144 1.996 . S
Fe133 O148 1.976 . S
Fe133 O151 2.002 1_545 S
O134 Fe132 1.918 . S
O134 Fe133 1.918 1_565 S
O134 Fe135 1.918 . S
Fe135 O134 1.918 . S
Fe135 O136 2.002 . S
Fe135 O145 1.976 . S
Fe135 O149 1.996 . S
Fe135 O152 1.997 . S
O136 Fe135 2.002 . S
O136 C153 1.295 . S
O137 Fe132 1.997 . S
O137 C153 1.235 . S
O138 Fe132 2.002 . S
O138 C139 1.295 1_565 S
C139 O138 1.295 1_545 S
C139 O141 1.235 . S
C140 O145 1.287 . S
C140 O146 1.255 . S
O141 Fe133 1.997 . S
O141 C139 1.235 . S
C142 O148 1.287 1_565 S
C142 O149 1.255 . S
O143 Fe132 1.976 1_545 S
O143 C150 1.287 . S
O144 Fe133 1.996 . S
O144 C150 1.255 . S
O145 Fe135 1.976 . S
O145 C140 1.287 . S
O146 Fe132 1.996 . S
O146 C140 1.255 . S
C147 O151 1.295 . S
C147 O152 1.235 . S
O148 Fe133 1.976 . S
O148 C142 1.287 1_545 S
O149 Fe135 1.996 . S
O149 C142 1.255 . S
C150 O143 1.287 . S
C150 O144 1.255 . S
O151 Fe133 2.002 1_565 S
O151 C147 1.295 . S
O152 Fe135 1.997 . S
O152 C147 1.235 . S
C153 O136 1.295 . S
C153 O137 1.235 . S
Fe154 O156 1.918 . S
Fe154 O159 1.997 . S
Fe154 O160 2.002 . S
Fe154 O165 1.976 . S
Fe154 O168 1.996 . S
Fe155 O156 1.918 . S
Fe155 O163 1.997 . S
Fe155 O166 1.996 . S
Fe155 O170 1.976 . S
Fe155 O173 2.002 . S
O156 Fe154 1.918 . S
O156 Fe155 1.918 . S
O156 Fe157 1.918 . S
Fe157 O156 1.918 . S
Fe157 O158 2.002 . S
Fe157 O167 1.976 . S
Fe157 O171 1.996 1_455 S
Fe157 O174 1.997 1_455 S
O158 Fe157 2.002 . S
O158 C175 1.295 . S
O159 Fe154 1.997 . S
O159 C175 1.235 . S
O160 Fe154 2.002 . S
O160 C161 1.295 . S
C161 O160 1.295 . S
C161 O163 1.235 . S
C162 O167 1.287 . S
C162 O168 1.255 . S
O163 Fe155 1.997 . S
O163 C161 1.235 . S
C164 O170 1.287 1_655 S
C164 O171 1.255 . S
O165 Fe154 1.976 . S
O165 C172 1.287 . S
O166 Fe155 1.996 . S
O166 C172 1.255 . S
O167 Fe157 1.976 . S
O167 C162 1.287 . S
O168 Fe154 1.996 . S
O168 C162 1.255 . S
C169 O173 1.297 . S
C169 O174 1.237 1_455 S
O170 Fe155 1.976 . S
O170 C164 1.287 1_455 S
O171 Fe157 1.996 1_655 S
O171 C164 1.255 . S
C172 O165 1.287 . S
C172 O166 1.255 . S
O173 Fe155 2.002 . S
O173 C169 1.297 . S
O174 Fe157 1.997 1_655 S
O174 C169 1.237 1_655 S
C175 O158 1.295 . S
C175 O159 1.235 . S
Fe176 O178 1.918 . S
Fe176 O181 1.997 . S
Fe176 O182 2.002 . S
Fe176 O187 1.976 . S
Fe176 O190 1.996 . S
Fe177 O178 1.918 . S
Fe177 O185 1.997 . S
Fe177 O188 1.996 . S
Fe177 O192 1.976 . S
Fe177 O195 2.002 . S
O178 Fe176 1.918 . S
O178 Fe177 1.918 . S
O178 Fe179 1.918 . S
Fe179 O178 1.918 . S
Fe179 O180 2.002 . S
Fe179 O189 1.976 . S
Fe179 O193 1.996 . S
Fe179 O196 1.997 . S
O180 Fe179 2.002 . S
O180 C197 1.295 . S
O181 Fe176 1.997 . S
O181 C197 1.235 . S
O182 Fe176 2.002 . S
O182 C183 1.295 . S
C183 O182 1.295 . S
C183 O185 1.235 . S
C184 O189 1.287 . S
C184 O190 1.255 . S
O185 Fe177 1.997 . S
O185 C183 1.235 . S
C186 O192 1.287 . S
C186 O193 1.255 . S
O187 Fe176 1.976 . S
O187 C194 1.287 . S
O188 Fe177 1.996 . S
O188 C194 1.255 . S
O189 Fe179 1.976 . S
O189 C184 1.287 . S
O190 Fe176 1.996 . S
O190 C184 1.255 . S
C191 O195 1.295 . S
C191 O196 1.235 . S
O192 Fe177 1.976 . S
O192 C186 1.287 . S
O193 Fe179 1.996 . S
O193 C186 1.255 . S
C194 O187 1.287 . S
C194 O188 1.255 . S
O195 Fe177 2.002 . S
O195 C191 1.295 . S
O196 Fe179 1.997 . S
O196 C191 1.235 . S
C197 O180 1.295 . S
C197 O181 1.235 . S
Fe198 O200 1.918 . S
Fe198 O203 1.997 . S
Fe198 O204 2.002 . S
Fe198 O209 1.976 . S
Fe198 O212 1.996 . S
Fe199 O200 1.918 . S
Fe199 O207 1.997 . S
Fe199 O210 1.996 . S
Fe199 O214 1.976 1_554 S
Fe199 O217 2.002 . S
O200 Fe198 1.918 . S
O200 Fe199 1.918 . S
O200 Fe201 1.918 . S
Fe201 O200 1.918 . S
Fe201 O202 2.002 . S
Fe201 O211 1.976 1_554 S
Fe201 O215 1.996 1_554 S
Fe201 O218 1.997 . S
O202 Fe201 2.002 . S
O202 C219 1.295 . S
O203 Fe198 1.997 . S
O203 C219 1.235 . S
O204 Fe198 2.002 . S
O204 C205 1.295 . S
C205 O204 1.295 . S
C205 O207 1.235 . S
C206 O211 1.287 . S
C206 O212 1.252 1_556 S
O207 Fe199 1.997 . S
O207 C205 1.235 . S
C208 O214 1.287 . S
C208 O215 1.255 . S
O209 Fe198 1.976 . S
O209 C216 1.287 . S
O210 Fe199 1.996 . S
O210 C216 1.255 . S
O211 Fe201 1.976 1_556 S
O211 C206 1.287 . S
O212 Fe198 1.996 . S
O212 C206 1.252 1_554 S
C213 O217 1.295 . S
C213 O218 1.235 . S
O214 Fe199 1.976 1_556 S
O214 C208 1.287 . S
O215 Fe201 1.996 1_556 S
O215 C208 1.255 . S
C216 O209 1.287 . S
C216 O210 1.255 . S
O217 Fe199 2.002 . S
O217 C213 1.295 . S
O218 Fe201 1.997 . S
O218 C213 1.235 . S
C219 O202 1.295 . S
C219 O203 1.235 . S
Fe220 O222 1.918 . S
Fe220 O225 1.997 . S
Fe220 O226 2.002 . S
Fe220 O231 1.976 1_554 S
Fe220 O234 1.996 1_554 S
Fe221 O222 1.918 . S
Fe221 O229 1.997 . S
Fe221 O232 1.996 . S
Fe221 O236 1.976 1_565 S
Fe221 O239 2.002 . S
O222 Fe220 1.918 . S
O222 Fe221 1.918 . S
O222 Fe223 1.918 1_565 S
Fe223 O222 1.918 1_545 S
Fe223 O224 2.002 1_545 S
Fe223 O233 1.976 1_554 S
Fe223 O237 1.996 . S
Fe223 O240 1.997 . S
O224 Fe223 2.002 1_565 S
O224 C241 1.295 . S
O225 Fe220 1.997 . S
O225 C241 1.235 . S
O226 Fe220 2.002 . S
O226 C227 1.295 . S
C227 O226 1.295 . S
C227 O229 1.235 . S
C228 O233 1.287 1_565 S
C228 O234 1.255 . S
O229 Fe221 1.997 . S
O229 C227 1.235 . S
C230 O236 1.287 . S
C230 O237 1.255 . S
O231 Fe220 1.976 1_556 S
O231 C238 1.287 . S
O232 Fe221 1.996 . S
O232 C238 1.252 1_554 S
O233 Fe223 1.976 1_556 S
O233 C228 1.287 1_545 S
O234 Fe220 1.996 1_556 S
O234 C228 1.255 . S
C235 O239 1.295 1_545 S
C235 O240 1.235 . S
O236 Fe221 1.976 1_545 S
O236 C230 1.287 . S
O237 Fe223 1.996 . S
O237 C230 1.255 . S
C238 O231 1.287 . S
C238 O232 1.252 1_556 S
O239 Fe221 2.002 . S
O239 C235 1.295 1_565 S
O240 Fe223 1.997 . S
O240 C235 1.235 . S
C241 O224 1.295 . S
C241 O225 1.235 . S
Fe242 O244 1.918 . S
Fe242 O247 1.997 1_455 S
Fe242 O248 2.002 . S
Fe242 O253 1.976 1_554 S
Fe242 O256 1.996 1_455 S
Fe243 O244 1.918 . S
Fe243 O251 1.997 . S
Fe243 O254 1.996 1_554 S
Fe243 O258 1.976 1_554 S
Fe243 O261 2.002 . S
O244 Fe242 1.918 . S
O244 Fe243 1.918 . S
O244 Fe245 1.918 . S
Fe245 O244 1.918 . S
Fe245 O246 2.002 . S
Fe245 O255 1.976 . S
Fe245 O259 1.996 . S
Fe245 O262 1.997 . S
O246 Fe245 2.002 . S
O246 C263 1.295 . S
O247 Fe242 1.997 1_655 S
O247 C263 1.235 1_655 S
O248 Fe242 2.002 . S
O248 C249 1.295 . S
C249 O248 1.295 . S
C249 O251 1.235 . S
C250 O255 1.287 1_655 S
C250 O256 1.255 . S
O251 Fe243 1.997 . S
O251 C249 1.235 . S
C252 O258 1.287 . S
C252 O259 1.253 1_556 S
O253 Fe242 1.976 1_556 S
O253 C260 1.287 . S
O254 Fe243 1.996 1_556 S
O254 C260 1.255 . S
O255 Fe245 1.976 . S
O255 C250 1.287 1_455 S
O256 Fe242 1.996 1_655 S
O256 C250 1.255 . S
C257 O261 1.295 . S
C257 O262 1.235 . S
O258 Fe243 1.976 1_556 S
O258 C252 1.287 . S
O259 Fe245 1.996 . S
O259 C252 1.253 1_554 S
C260 O253 1.287 . S
C260 O254 1.255 . S
O261 Fe243 2.002 . S
O261 C257 1.295 . S
O262 Fe245 1.997 . S
O262 C257 1.235 . S
C263 O246 1.295 . S
C263 O247 1.235 1_455 S
Fe264 O266 1.918 . S
Fe264 O269 1.997 . S
Fe264 O270 2.002 1_556 S
Fe264 O275 1.976 . S
Fe264 O278 1.996 . S
Fe265 O266 1.918 . S
Fe265 O273 1.997 1_556 S
Fe265 O276 1.996 . S
Fe265 O280 1.976 . S
Fe265 O283 2.002 . S
O266 Fe264 1.918 . S
O266 Fe265 1.918 . S
O266 Fe267 1.918 . S
Fe267 O266 1.918 . S
Fe267 O268 2.002 . S
Fe267 O277 1.976 . S
Fe267 O281 1.996 . S
Fe267 O284 1.997 . S
O268 Fe267 2.002 . S
O268 C285 1.290 1_556 S
O269 Fe264 1.997 . S
O269 C285 1.235 1_556 S
O270 Fe264 2.002 1_554 S
O270 C271 1.295 . S
C271 O270 1.295 . S
C271 O273 1.235 . S
C272 O277 1.287 . S
C272 O278 1.255 . S
O273 Fe265 1.997 1_554 S
O273 C271 1.235 . S
C274 O280 1.287 . S
C274 O281 1.255 . S
O275 Fe264 1.976 . S
O275 C282 1.287 . S
O276 Fe265 1.996 . S
O276 C282 1.255 . S
O277 Fe267 1.976 . S
O277 C272 1.287 . S
O278 Fe264 1.996 . S
O278 C272 1.255 . S
C279 O283 1.295 . S
C279 O284 1.235 . S
O280 Fe265 1.976 . S
O280 C274 1.287 . S
O281 Fe267 1.996 . S
O281 C274 1.255 . S
C282 O275 1.287 . S
C282 O276 1.255 . S
O283 Fe265 2.002 . S
O283 C279 1.295 . S
O284 Fe267 1.997 . S
O284 C279 1.235 . S
C285 O268 1.290 1_554 S
C285 O269 1.235 1_554 S
Fe286 O288 1.918 . S
Fe286 O291 1.997 . S
Fe286 O292 2.002 . S
Fe286 O297 1.976 1_556 S
Fe286 O300 1.996 1_556 S
Fe287 O288 1.918 . S
Fe287 O295 1.997 . S
Fe287 O298 1.996 . S
Fe287 O302 1.976 . S
Fe287 O305 2.002 . S
O288 Fe286 1.918 . S
O288 Fe287 1.918 . S
O288 Fe289 1.918 . S
Fe289 O288 1.918 . S
Fe289 O290 2.002 . S
Fe289 O299 1.976 1_556 S
Fe289 O303 1.996 1_545 S
Fe289 O306 1.997 1_545 S
O290 Fe289 2.002 . S
O290 C307 1.295 . S
O291 Fe286 1.997 . S
O291 C307 1.235 . S
O292 Fe286 2.002 . S
O292 C293 1.295 . S
C293 O292 1.295 . S
C293 O295 1.235 . S
C294 O299 1.287 . S
C294 O300 1.255 . S
O295 Fe287 1.997 . S
O295 C293 1.235 . S
C296 O302 1.287 1_565 S
C296 O303 1.255 . S
O297 Fe286 1.976 1_554 S
O297 C304 1.287 . S
O298 Fe287 1.996 . S
O298 C304 1.255 1_556 S
O299 Fe289 1.976 1_554 S
O299 C294 1.287 . S
O300 Fe286 1.996 1_554 S
O300 C294 1.255 . S
C301 O305 1.295 . S
C301 O306 1.235 1_545 S
O302 Fe287 1.976 . S
O302 C296 1.287 1_545 S
O303 Fe289 1.996 1_565 S
O303 C296 1.255 . S
C304 O297 1.287 . S
C304 O298 1.255 1_554 S
O305 Fe287 2.002 . S
O305 C301 1.295 . S
O306 Fe289 1.997 1_565 S
O306 C301 1.235 1_565 S
C307 O290 1.295 . S
C307 O291 1.235 . S
Fe308 O310 1.918 1_455 S
Fe308 O313 1.998 1_456 S
Fe308 O314 2.002 . S
Fe308 O319 1.976 . S
Fe308 O322 1.996 1_455 S
Fe309 O310 1.918 . S
Fe309 O317 1.997 1_655 S
Fe309 O320 1.996 . S
Fe309 O324 1.976 . S
Fe309 O327 2.002 . S
O310 Fe308 1.918 1_655 S
O310 Fe309 1.918 . S
O310 Fe311 1.918 . S
Fe311 O310 1.918 . S
Fe311 O312 2.002 1_556 S
Fe311 O321 1.976 . S
Fe311 O325 1.996 . S
Fe311 O328 1.997 . S
O312 Fe311 2.002 1_554 S
O312 C329 1.295 . S
O313 Fe308 1.998 1_654 S
O313 C329 1.246 . S
O314 Fe308 2.002 . S
O314 C315 1.295 . S
C315 O314 1.295 . S
C315 O317 1.235 . S
C316 O321 1.287 . S
C316 O322 1.255 . S
O317 Fe309 1.997 1_455 S
O317 C315 1.235 . S
C318 O324 1.287 . S
C318 O325 1.255 . S
O319 Fe308 1.976 . S
O319 C326 1.287 . S
O320 Fe309 1.996 . S
O320 C326 1.255 1_655 S
O321 Fe311 1.976 . S
O321 C316 1.287 . S
O322 Fe308 1.996 1_655 S
O322 C316 1.255 . S
C323 O327 1.301 . S
C323 O328 1.236 . S
O324 Fe309 1.976 . S
O324 C318 1.287 . S
O325 Fe311 1.996 . S
O325 C318 1.255 . S
C326 O319 1.287 . S
C326 O320 1.255 1_455 S
O327 Fe309 2.002 . S
O327 C323 1.301 . S
O328 Fe311 1.997 . S
O328 C323 1.236 . S
C329 O312 1.295 . S
C329 O313 1.246 . S
Fe330 O332 1.918 . S
Fe330 O335 1.997 1_545 S
Fe330 O336 2.002 . S
Fe330 O341 1.976 . S
Fe330 O344 1.996 1_545 S
Fe331 O332 1.918 . S
Fe331 O339 1.997 . S
Fe331 O342 1.996 . S
Fe331 O346 1.976 . S
Fe331 O349 2.002 . S
O332 Fe330 1.918 . S
O332 Fe331 1.918 . S
O332 Fe333 1.918 . S
Fe333 O332 1.918 . S
Fe333 O334 2.002 . S
Fe333 O343 1.976 . S
Fe333 O347 1.996 . S
Fe333 O350 1.997 . S
O334 Fe333 2.002 . S
O334 C351 1.295 . S
O335 Fe330 1.997 1_565 S
O335 C351 1.235 1_565 S
O336 Fe330 2.002 . S
O336 C337 1.295 . S
C337 O336 1.295 . S
C337 O339 1.235 . S
C338 O343 1.287 1_565 S
C338 O344 1.255 . S
O339 Fe331 1.997 . S
O339 C337 1.235 . S
C340 O346 1.287 . S
C340 O347 1.255 . S
O341 Fe330 1.976 . S
O341 C348 1.287 . S
O342 Fe331 1.996 . S
O342 C348 1.255 . S
O343 Fe333 1.976 . S
O343 C338 1.287 1_545 S
O344 Fe330 1.996 1_565 S
O344 C338 1.255 . S
C345 O349 1.295 . S
C345 O350 1.235 . S
O346 Fe331 1.976 . S
O346 C340 1.287 . S
O347 Fe333 1.996 . S
O347 C340 1.255 . S
C348 O341 1.287 . S
C348 O342 1.255 . S
O349 Fe331 2.002 . S
O349 C345 1.295 . S
O350 Fe333 1.997 . S
O350 C345 1.235 . S
C351 O334 1.295 . S
C351 O335 1.235 1_545 S
Fe352 O354 1.918 . S
Fe352 O357 1.997 . S
Fe352 O358 2.002 . S
Fe352 O363 1.976 . S
Fe352 O366 1.996 . S
Fe353 O354 1.918 1_455 S
Fe353 O361 1.992 1_455 S
Fe353 O364 1.996 1_455 S
Fe353 O368 1.976 . S
Fe353 O371 2.002 . S
O354 Fe352 1.918 . S
O354 Fe353 1.918 1_655 S
O354 Fe355 1.918 . S
Fe355 O354 1.918 . S
Fe355 O356 2.002 . S
Fe355 O365 1.976 . S
Fe355 O369 1.996 . S
Fe355 O372 1.997 1_655 S
O356 Fe355 2.002 . S
O356 C373 1.295 . S
O357 Fe352 1.997 . S
O357 C373 1.235 . S
O358 Fe352 2.002 . S
O358 C359 1.295 . S
C359 O358 1.295 . S
C359 O361 1.247 . S
C360 O365 1.287 . S
C360 O366 1.255 . S
O361 Fe353 1.992 1_655 S
O361 C359 1.247 . S
C362 O368 1.287 . S
C362 O369 1.255 1_455 S
O363 Fe352 1.976 . S
O363 C370 1.287 . S
O364 Fe353 1.996 1_655 S
O364 C370 1.255 . S
O365 Fe355 1.976 . S
O365 C360 1.287 . S
O366 Fe352 1.996 . S
O366 C360 1.255 . S
C367 O371 1.295 . S
C367 O372 1.235 . S
O368 Fe353 1.976 . S
O368 C362 1.287 . S
O369 Fe355 1.996 . S
O369 C362 1.255 1_655 S
C370 O363 1.287 . S
C370 O364 1.255 . S
O371 Fe353 2.002 . S
O371 C367 1.295 . S
O372 Fe355 1.997 1_455 S
O372 C367 1.235 . S
C373 O356 1.295 . S
C373 O357 1.235 . S
Fe374 O376 1.918 . S
Fe374 O379 1.997 . S
Fe374 O380 2.002 . S
Fe374 O385 1.976 . S
Fe374 O388 1.996 . S
Fe375 O376 1.918 . S
Fe375 O383 1.997 . S
Fe375 O386 1.996 . S
Fe375 O390 1.976 . S
Fe375 O393 2.002 . S
O376 Fe374 1.918 . S
O376 Fe375 1.918 . S
O376 Fe377 1.918 . S
Fe377 O376 1.918 . S
Fe377 O378 2.002 . S
Fe377 O387 1.976 . S
Fe377 O391 1.996 . S
Fe377 O394 1.997 . S
O378 Fe377 2.002 . S
O378 C395 1.295 . S
O379 Fe374 1.997 . S
O379 C395 1.235 . S
O380 Fe374 2.002 . S
O380 C381 1.295 . S
C381 O380 1.295 . S
C381 O383 1.235 . S
C382 O387 1.287 . S
C382 O388 1.255 . S
O383 Fe375 1.997 . S
O383 C381 1.235 . S
C384 O390 1.287 . S
C384 O391 1.255 . S
O385 Fe374 1.976 . S
O385 C392 1.287 . S
O386 Fe375 1.996 . S
O386 C392 1.255 . S
O387 Fe377 1.976 . S
O387 C382 1.287 . S
O388 Fe374 1.996 . S
O388 C382 1.255 . S
C389 O393 1.295 . S
C389 O394 1.235 . S
O390 Fe375 1.976 . S
O390 C384 1.287 . S
O391 Fe377 1.996 . S
O391 C384 1.255 . S
C392 O385 1.287 . S
C392 O386 1.255 . S
O393 Fe375 2.002 . S
O393 C389 1.295 . S
O394 Fe377 1.997 . S
O394 C389 1.235 . S
C395 O378 1.295 . S
C395 O379 1.235 . S
C249 C8 1.612 . S
C29 C213 1.617 . S
C62 C241 1.530 . S
C337 C51 1.612 . S
C21 C370 1.612 . S
C40 C381 1.560 . S
C316 C84 1.555 . S
C103 C282 1.609 . S
C118 C307 1.556 . S
C147 C131 1.570 . S
C73 C175 1.651 . S
C191 C98 1.563 . S
C382 C140 1.582 . S
C338 C172 1.557 . S
C367 C184 1.532 . S
C87 C197 1.599 . S
C96 C153 1.651 . S
C161 C125 1.627 . S
C54 C219 1.653 . S
C18 C227 1.628 . S
C257 C43 1.601 . S
C252 C279 1.531 . S
C206 C296 1.582 . S
C238 C315 1.560 . S
C272 C128 1.570 . S
C293 C76 1.622 . S
C318 C95 1.572 . S
C323 C216 1.566 1_556 S
C285 C230 1.659 . S
C304 C250 1.565 . S
C340 C194 1.614 . S
C373 C150 1.619 . S
C164 C384 1.530 . S
C15 C389 1.628 . S
C32 C345 1.626 . S
C360 C65 1.578 . S
C162 C7 1.641 . S
C186 C30 1.558 . S
C142 C59 1.626 . S
C294 C52 1.556 . S
C10 C329 1.621 . S
C37 C271 1.685 . S
C81 C359 1.686 . S
C106 C392 1.557 . S
C117 C348 1.621 . S
C120 C228 1.570 . S
C260 C74 1.581 . S
C109 C208 1.650 . S
C139 C301 1.684 . S
C169 C326 1.607 . S
C183 C274 1.616 . S
C263 C362 1.595 . S
C395 C205 1.661 . S
C351 C235 1.676 . S
