# Generated by pormake.
# Topology upb, (4)-cn, num edge types: 1
# Building blocks:
#     Node 0, Type 0, BuildingBlock: ICAMEG_clean_sbu_1, # of connection points: 4
#     Node 1, Type 0, BuildingBlock: ICAMEG_clean_sbu_1, # of connection points: 4
#     Node 2, Type 0, BuildingBlock: ICAMEG_clean_sbu_1, # of connection points: 4
#     Node 3, Type 0, BuildingBlock: ICAMEG_clean_sbu_1, # of connection points: 4
#     Node 4, Type 0, BuildingBlock: ICAMEG_clean_sbu_1, # of connection points: 4
#     Node 5, Type 0, BuildingBlock: ICAMEG_clean_sbu_1, # of connection points: 4
#     Node 6, Type 0, BuildingBlock: ICAMEG_clean_sbu_1, # of connection points: 4
#     Node 7, Type 0, BuildingBlock: ICAMEG_clean_sbu_1, # of connection points: 4
#     Node 8, Type 0, BuildingBlock: ICAMEG_clean_sbu_1, # of connection points: 4
#     Node 9, Type 0, BuildingBlock: ICAMEG_clean_sbu_1, # of connection points: 4
#     Node 10, Type 0, BuildingBlock: ICAMEG_clean_sbu_1, # of connection points: 4
#     Node 11, Type 0, BuildingBlock: ICAMEG_clean_sbu_1, # of connection points: 4
#     Node 12, Type 0, BuildingBlock: ICAMEG_clean_sbu_1, # of connection points: 4
#     Node 13, Type 0, BuildingBlock: ICAMEG_clean_sbu_1, # of connection points: 4
#     Node 14, Type 0, BuildingBlock: ICAMEG_clean_sbu_1, # of connection points: 4
#     Node 15, Type 0, BuildingBlock: ICAMEG_clean_sbu_1, # of connection points: 4
#     Edge 16, Type (0, 0), BuildingBlock: KIFKEQ_clean_linker_1, # of connection points: 2
#     Edge 17, Type (0, 0), BuildingBlock: KIFKEQ_clean_linker_1, # of connection points: 2
#     Edge 18, Type (0, 0), BuildingBlock: KIFKEQ_clean_linker_1, # of connection points: 2
#     Edge 19, Type (0, 0), BuildingBlock: KIFKEQ_clean_linker_1, # of connection points: 2
#     Edge 20, Type (0, 0), BuildingBlock: KIFKEQ_clean_linker_1, # of connection points: 2
#     Edge 21, Type (0, 0), BuildingBlock: KIFKEQ_clean_linker_1, # of connection points: 2
#     Edge 22, Type (0, 0), BuildingBlock: KIFKEQ_clean_linker_1, # of connection points: 2
#     Edge 23, Type (0, 0), BuildingBlock: KIFKEQ_clean_linker_1, # of connection points: 2
#     Edge 24, Type (0, 0), BuildingBlock: KIFKEQ_clean_linker_1, # of connection points: 2
#     Edge 25, Type (0, 0), BuildingBlock: KIFKEQ_clean_linker_1, # of connection points: 2
#     Edge 26, Type (0, 0), BuildingBlock: KIFKEQ_clean_linker_1, # of connection points: 2
#     Edge 27, Type (0, 0), BuildingBlock: KIFKEQ_clean_linker_1, # of connection points: 2
#     Edge 28, Type (0, 0), BuildingBlock: KIFKEQ_clean_linker_1, # of connection points: 2
#     Edge 29, Type (0, 0), BuildingBlock: KIFKEQ_clean_linker_1, # of connection points: 2
#     Edge 30, Type (0, 0), BuildingBlock: KIFKEQ_clean_linker_1, # of connection points: 2
#     Edge 31, Type (0, 0), BuildingBlock: KIFKEQ_clean_linker_1, # of connection points: 2
#     Edge 32, Type (0, 0), BuildingBlock: KIFKEQ_clean_linker_1, # of connection points: 2
#     Edge 33, Type (0, 0), BuildingBlock: KIFKEQ_clean_linker_1, # of connection points: 2
#     Edge 34, Type (0, 0), BuildingBlock: KIFKEQ_clean_linker_1, # of connection points: 2
#     Edge 35, Type (0, 0), BuildingBlock: KIFKEQ_clean_linker_1, # of connection points: 2
#     Edge 36, Type (0, 0), BuildingBlock: KIFKEQ_clean_linker_1, # of connection points: 2
#     Edge 37, Type (0, 0), BuildingBlock: KIFKEQ_clean_linker_1, # of connection points: 2
#     Edge 38, Type (0, 0), BuildingBlock: KIFKEQ_clean_linker_1, # of connection points: 2
#     Edge 39, Type (0, 0), BuildingBlock: KIFKEQ_clean_linker_1, # of connection points: 2
#     Edge 40, Type (0, 0), BuildingBlock: KIFKEQ_clean_linker_1, # of connection points: 2
#     Edge 41, Type (0, 0), BuildingBlock: KIFKEQ_clean_linker_1, # of connection points: 2
#     Edge 42, Type (0, 0), BuildingBlock: KIFKEQ_clean_linker_1, # of connection points: 2
#     Edge 43, Type (0, 0), BuildingBlock: KIFKEQ_clean_linker_1, # of connection points: 2
#     Edge 44, Type (0, 0), BuildingBlock: KIFKEQ_clean_linker_1, # of connection points: 2
#     Edge 45, Type (0, 0), BuildingBlock: KIFKEQ_clean_linker_1, # of connection points: 2
#     Edge 46, Type (0, 0), BuildingBlock: KIFKEQ_clean_linker_1, # of connection points: 2
#     Edge 47, Type (0, 0), BuildingBlock: KIFKEQ_clean_linker_1, # of connection points: 2
# Relax obj value: 0.190
# Max RMSD: 0.052
# Mean RMSD: 0.052
data_MOF--net-upb--node1-ICAMEG_clean_sbu_1--edge1-KIFKEQ_clean_linker_1
_symmetry_space_group_name_H-M    P1
_symmetry_Int_Tables_number       1
_symmetry_cell_setting            triclinic
loop_
_symmetry_equiv_pos_as_xyz
'x, y, z'
_cell_length_a     50.803707
_cell_length_b     50.79694
_cell_length_c     24.624001
_cell_angle_alpha  90.013363
_cell_angle_beta   90.000858
_cell_angle_gamma 90.008682
loop_
_atom_site_label
_atom_site_type_symbol
_atom_site_fract_x
_atom_site_fract_y
_atom_site_fract_z
_atom_type_partial_charge
Co0 Co 0.07301 0.17955 0.26207 0.0
Co1 Co 0.04372 0.23605 0.21373 0.0
O2 O 0.0737 0.21216 0.22072 0.0
C3 C 0.09081 0.15392 0.15843 0.0
O4 O 0.06807 0.15894 0.13531 0.0
C5 C 0.08536 0.26871 0.26135 0.0
O6 O 0.08734 0.25029 0.2985 0.0
O7 O 0.03696 0.23569 0.29388 0.0
O8 O 0.05093 0.19576 0.31975 0.0
H9 H 0.95106 0.26726 0.24459 0.0
H10 H 0.12412 0.20222 0.22767 0.0
O11 O 0.09579 0.16224 0.20613 0.0
H12 H 0.12827 0.19804 0.42757 0.0
H13 H 0.11273 0.09668 0.33882 0.0
H14 H 0.03172 0.14939 0.32027 0.0
H15 H 0.08906 0.18203 0.37862 0.0
H16 H 0.11329 0.13884 0.28922 0.0
O17 O 0.06838 0.26654 0.22348 0.0
H18 H 0.98872 0.23694 0.25417 0.0
H19 H 0.03611 0.28734 0.15734 0.0
H20 H 0.03034 0.10746 0.37064 0.0
H21 H 0.1638 0.21828 0.27499 0.0
H22 H 0.07106 0.08078 0.38014 0.0
H23 H 0.166 0.21632 0.37567 0.0
O24 O 0.04053 0.16815 0.22377 0.0
H25 H 0.09931 0.24358 0.04545 0.0
H26 H 0.00957 0.22953 0.11602 0.0
H27 H 0.01715 0.22948 0.01706 0.0
H28 H 0.06224 0.2366 0.98119 0.0
H29 H 0.09091 0.24332 0.14414 0.0
H30 H 0.99903 0.31832 0.14706 0.0
H31 H 0.9561 0.30828 0.19067 0.0
O32 O 0.01897 0.20569 0.20406 0.0
C33 C 0.03946 0.21754 0.32932 0.0
C34 C 0.96965 0.27181 0.22527 0.0
C35 C 0.99658 0.3005 0.1706 0.0
N36 N 0.0145 0.26029 0.20601 0.0
C37 C 0.99101 0.2547 0.23044 0.0
C38 C 0.01752 0.28292 0.17667 0.0
C39 C 0.9725 0.29484 0.19505 0.0
C40 C 0.12505 0.20106 0.27146 0.0
N41 N 0.10436 0.19107 0.3003 0.0
C42 C 0.14752 0.21028 0.29804 0.0
C43 C 0.14872 0.20921 0.35454 0.0
C44 C 0.12755 0.19897 0.38368 0.0
C45 C 0.10538 0.18997 0.35574 0.0
C46 C 0.09488 0.10817 0.3351 0.0
C47 C 0.04957 0.138 0.3246 0.0
C48 C 0.09506 0.13204 0.30699 0.0
N49 N 0.07261 0.1467 0.3023 0.0
C50 C 0.04864 0.11423 0.35301 0.0
C51 C 0.07149 0.09926 0.35827 0.0
C52 C 0.02035 0.18058 0.20647 0.0
C53 C 0.07954 0.2405 0.06059 0.0
C54 C 0.02929 0.23253 0.10076 0.0
C55 C 0.03343 0.23254 0.04467 0.0
C56 C 0.05875 0.23656 0.02456 0.0
N57 N 0.04977 0.23652 0.13586 0.0
C58 C 0.07466 0.2404 0.11643 0.0
Co59 Co 0.80756 0.07808 0.31269 0.0
Co60 Co 0.76008 0.06051 0.21826 0.0
O61 O 0.78541 0.08547 0.24975 0.0
C62 C 0.84624 0.09271 0.22665 0.0
O63 O 0.83122 0.08191 0.18943 0.0
C64 C 0.72834 0.10523 0.2563 0.0
O65 O 0.74278 0.10414 0.30038 0.0
O66 O 0.74708 0.04861 0.29127 0.0
O67 O 0.77728 0.06251 0.35142 0.0
H68 H 0.71533 0.973 0.19494 0.0
H69 H 0.80612 0.13203 0.26743 0.0
O70 O 0.839 0.09351 0.2761 0.0
H71 H 0.77521 0.14078 0.45642 0.0
H72 H 0.8775 0.09802 0.45188 0.0
H73 H 0.81327 0.03243 0.38669 0.0
H74 H 0.7886 0.09752 0.42029 0.0
H75 H 0.84934 0.10756 0.37266 0.0
O76 O 0.73241 0.08891 0.21779 0.0
H77 H 0.74672 0.0043 0.23593 0.0
H78 H 0.7196 0.06494 0.13122 0.0
H79 H 0.84084 0.02218 0.46641 0.0
H80 H 0.79312 0.17573 0.30204 0.0
H81 H 0.87324 0.05511 0.49949 0.0
H82 H 0.77743 0.18027 0.39712 0.0
O83 O 0.8172 0.04303 0.28265 0.0
H84 H 0.78511 0.12678 0.0757 0.0
H85 H 0.77762 0.03225 0.1185 0.0
H86 H 0.79408 0.0459 0.02858 0.0
H87 H 0.79788 0.09348 0.00668 0.0
H88 H 0.76896 0.11226 0.16531 0.0
H89 H 0.68776 0.03436 0.08939 0.0
H90 H 0.68558 0.98799 0.1211 0.0
O91 O 0.78731 0.03203 0.21903 0.0
C92 C 0.75569 0.05132 0.33957 0.0
C93 C 0.71614 0.99314 0.18068 0.0
C94 C 0.70064 0.02759 0.1215 0.0
N95 N 0.73509 0.03635 0.18573 0.0
C96 C 0.73391 0.01093 0.20364 0.0
C97 C 0.71865 0.04483 0.14543 0.0
C98 C 0.69944 0.00157 0.13928 0.0
C99 C 0.79958 0.13392 0.30902 0.0
N100 N 0.79827 0.1123 0.34188 0.0
C101 C 0.79214 0.15868 0.32832 0.0
C102 C 0.78331 0.16121 0.38165 0.0
C103 C 0.78204 0.13906 0.41494 0.0
C104 C 0.78962 0.11461 0.39423 0.0
C105 C 0.86341 0.08353 0.43792 0.0
C106 C 0.82721 0.04693 0.40105 0.0
C107 C 0.84746 0.0888 0.39301 0.0
N108 N 0.82954 0.07065 0.37532 0.0
C109 C 0.84282 0.04098 0.44611 0.0
C110 C 0.86101 0.05945 0.46462 0.0
C111 C 0.80816 0.02744 0.24648 0.0
C112 C 0.78348 0.10599 0.08472 0.0
C113 C 0.7793 0.05299 0.10935 0.0
C114 C 0.78857 0.0606 0.05831 0.0
C115 C 0.79068 0.0873 0.04603 0.0
N116 N 0.77224 0.07145 0.14706 0.0
C117 C 0.77425 0.09766 0.13532 0.0
Co118 Co 0.9499 0.82696 0.27756 0.0
Co119 Co 0.95374 0.77286 0.1968 0.0
O120 O 0.93291 0.7999 0.23353 0.0
C121 C 0.91322 0.86049 0.21232 0.0
O122 O 0.92343 0.85136 0.16708 0.0
C123 C 0.9126 0.74243 0.25358 0.0
O124 O 0.91916 0.75528 0.29781 0.0
O125 O 0.96965 0.76237 0.26762 0.0
O126 O 0.97891 0.80255 0.2997 0.0
H127 H 0.03641 0.72292 0.15302 0.0
H128 H 0.89355 0.81477 0.29583 0.0
O129 O 0.92134 0.85225 0.25815 0.0
H130 H 0.93699 0.79855 0.47177 0.0
H131 H 0.95142 0.90377 0.40695 0.0
H132 H 0.00503 0.84489 0.29241 0.0
H133 H 0.96253 0.81451 0.39333 0.0
H134 H 0.93047 0.86844 0.35354 0.0
O135 O 0.92454 0.74704 0.20906 0.0
H136 H 0.00983 0.75686 0.19918 0.0
H137 H 0.94107 0.72998 0.1183 0.0
H138 H 0.02679 0.87986 0.3454 0.0
H139 H 0.86715 0.79922 0.37358 0.0
H140 H 0.99993 0.90959 0.40324 0.0
H141 H 0.88892 0.79086 0.46225 0.0
O142 O 0.97084 0.83799 0.21364 0.0
H143 H 0.87869 0.79791 0.07438 0.0
H144 H 0.97466 0.78453 0.08598 0.0
H145 H 0.95496 0.7987 0.99929 0.0
H146 H 0.90663 0.80546 0.99307 0.0
H147 H 0.89924 0.78387 0.16045 0.0
H148 H 0.96683 0.69553 0.07174 0.0
H149 H 0.0149 0.69199 0.08868 0.0
O150 O 0.98341 0.79837 0.18296 0.0
C151 C 0.98105 0.77759 0.30128 0.0
C152 C 0.0155 0.72432 0.14517 0.0
C153 C 0.97644 0.70893 0.0996 0.0
N154 N 0.97399 0.74553 0.16107 0.0
C155 C 0.00036 0.74353 0.17109 0.0
C156 C 0.96193 0.7284 0.12622 0.0
C157 C 0.00341 0.70696 0.10911 0.0
C158 C 0.90309 0.81148 0.33447 0.0
N159 N 0.92953 0.81557 0.33999 0.0
C160 C 0.88807 0.80256 0.37828 0.0
C161 C 0.9003 0.79784 0.428 0.0
C162 C 0.92727 0.80214 0.43337 0.0
C163 C 0.94164 0.8111 0.38871 0.0
C164 C 0.96334 0.89091 0.38198 0.0
C165 C 0.99321 0.85766 0.31766 0.0
C166 C 0.95158 0.8709 0.35155 0.0
N167 N 0.96652 0.85449 0.32014 0.0
C168 C 0.00564 0.87747 0.3475 0.0
C169 C 0.99056 0.89416 0.37989 0.0
C170 C 0.98576 0.82343 0.18476 0.0
C171 C 0.89976 0.79497 0.07655 0.0
C172 C 0.95362 0.78748 0.08368 0.0
C173 C 0.94257 0.79546 0.03442 0.0
C174 C 0.91546 0.79923 0.03096 0.0
N175 N 0.93808 0.78327 0.1282 0.0
C176 C 0.9115 0.78696 0.12513 0.0
Co177 Co 0.17801 0.93912 0.23643 0.0
Co178 Co 0.23822 0.95851 0.18775 0.0
O179 O 0.21078 0.93214 0.19841 0.0
C180 C 0.14947 0.91886 0.1377 0.0
O181 O 0.15398 0.94086 0.11135 0.0
C182 C 0.26677 0.91491 0.24094 0.0
O183 O 0.25017 0.91703 0.28154 0.0
O184 O 0.23852 0.96733 0.26712 0.0
O185 O 0.19601 0.96256 0.28971 0.0
H186 H 0.28145 0.04689 0.20872 0.0
H187 H 0.19513 0.88408 0.21748 0.0
O188 O 0.15903 0.9151 0.18494 0.0
H189 H 0.187 0.89277 0.41626 0.0
H190 H 0.08987 0.91426 0.31478 0.0
H191 H 0.15231 0.98682 0.28138 0.0
H192 H 0.17666 0.93021 0.35625 0.0
H193 H 0.13233 0.90582 0.26944 0.0
O194 O 0.26517 0.9303 0.20018 0.0
H195 H 0.24645 0.01384 0.22216 0.0
H196 H 0.28996 0.95783 0.13087 0.0
H197 H 0.11018 0.99609 0.32733 0.0
H198 H 0.20548 0.84605 0.27602 0.0
H199 H 0.07862 0.95965 0.34429 0.0
H200 H 0.20149 0.85029 0.37618 0.0
O201 O 0.17122 0.97002 0.18929 0.0
H202 H 0.23738 0.89754 0.02688 0.0
H203 H 0.23649 0.99034 0.08571 0.0
H204 H 0.23501 0.97981 0.98789 0.0
H205 H 0.23558 0.9332 0.95797 0.0
H206 H 0.23865 0.90885 0.12425 0.0
H207 H 0.32555 0.99019 0.11681 0.0
H208 H 0.32134 0.03512 0.15567 0.0
O209 O 0.21147 0.98688 0.17424 0.0
C210 C 0.21943 0.96992 0.30041 0.0
C211 C 0.28348 0.0274 0.19145 0.0
C212 C 0.30825 0.99556 0.13993 0.0
N213 N 0.26609 0.98403 0.17697 0.0
C214 C 0.2637 0.00864 0.19882 0.0
C215 C 0.28807 0.97731 0.14814 0.0
C216 C 0.30587 0.02078 0.16172 0.0
C217 C 0.19313 0.886 0.26101 0.0
N218 N 0.18515 0.90928 0.28337 0.0
C219 C 0.1991 0.86443 0.29395 0.0
C220 C 0.19689 0.86684 0.35015 0.0
C221 C 0.18878 0.89066 0.37267 0.0
C222 C 0.18299 0.91181 0.33847 0.0
C223 C 0.10349 0.93029 0.30776 0.0
C224 C 0.13877 0.97083 0.28899 0.0
C225 C 0.12755 0.92564 0.28202 0.0
N226 N 0.14489 0.94578 0.27322 0.0
C227 C 0.1149 0.97621 0.31487 0.0
C228 C 0.09719 0.95576 0.32431 0.0
C229 C 0.18637 0.98814 0.17168 0.0
C230 C 0.23722 0.91796 0.03944 0.0
C231 C 0.23664 0.96996 0.07304 0.0
C232 C 0.23584 0.96415 0.01759 0.0
C233 C 0.23615 0.93797 1.0008 0.0
N234 N 0.23781 0.95022 0.11073 0.0
C235 C 0.23802 0.92449 0.09453 0.0
Co236 Co 0.08085 0.81503 0.74671 0.0
Co237 Co 0.05031 0.75887 0.79376 0.0
O238 O 0.08046 0.78267 0.78884 0.0
C239 C 0.09643 0.84069 0.85202 0.0
O240 O 0.07328 0.83564 0.87328 0.0
C241 C 0.09272 0.72667 0.74855 0.0
O242 O 0.0953 0.74566 0.71286 0.0
O243 O 0.04463 0.75924 0.71331 0.0
O244 O 0.06024 0.7985 0.68717 0.0
H245 H 0.95812 0.72779 0.75673 0.0
H246 H 0.131 0.7925 0.78701 0.0
O247 O 0.10223 0.83257 0.80457 0.0
H248 H 0.14018 0.79575 0.58775 0.0
H249 H 0.12238 0.8977 0.67309 0.0
H250 H 0.04118 0.84469 0.6829 0.0
H251 H 0.09983 0.81205 0.63211 0.0
H252 H 0.12171 0.85574 0.72338 0.0
O253 O 0.07506 0.72828 0.78527 0.0
H254 H 0.99592 0.75812 0.74988 0.0
H255 H 0.04175 0.70758 0.8495 0.0
H256 H 0.04106 0.88641 0.6317 0.0
H257 H 0.17178 0.77617 0.74431 0.0
H258 H 0.08187 0.91325 0.62663 0.0
H259 H 0.17651 0.77765 0.64397 0.0
O260 O 0.04745 0.82665 0.78126 0.0
H261 H 0.10325 0.75132 0.96567 0.0
H262 H 0.01475 0.76568 0.88902 0.0
H263 H 0.02076 0.76605 0.98842 0.0
H264 H 0.06527 0.75879 0.02735 0.0
H265 H 0.09637 0.7513 0.86645 0.0
H266 H 0.00452 0.67658 0.85711 0.0
H267 H 0.96231 0.68669 0.81068 0.0
O268 O 0.02555 0.78935 0.80166 0.0
C269 C 0.04835 0.77696 0.67742 0.0
C270 C 0.97639 0.72321 0.77727 0.0
C271 C 0.00245 0.69444 0.83355 0.0
N272 N 0.02092 0.7347 0.79959 0.0
C273 C 0.99783 0.74034 0.77366 0.0
C274 C 0.02347 0.71203 0.82899 0.0
C275 C 0.97876 0.70013 0.80751 0.0
C276 C 0.13303 0.79346 0.74335 0.0
N277 N 0.11311 0.80333 0.71213 0.0
C278 C 0.15612 0.78409 0.71939 0.0
C279 C 0.15874 0.78488 0.66308 0.0
C280 C 0.13836 0.79502 0.63151 0.0
C281 C 0.11554 0.80418 0.65687 0.0
C282 C 0.10449 0.88615 0.6749 0.0
C283 C 0.05907 0.85615 0.68053 0.0
C284 C 0.10398 0.86239 0.70341 0.0
N285 N 0.08147 0.84766 0.70574 0.0
C286 C 0.05886 0.87981 0.65162 0.0
C287 C 0.08175 0.89487 0.64883 0.0
C288 C 0.02697 0.81442 0.79774 0.0
C289 C 0.08375 0.75446 0.94919 0.0
C290 C 0.03419 0.7626 0.90563 0.0
C291 C 0.03746 0.76277 0.96196 0.0
C292 C 0.06244 0.75868 0.98378 0.0
N293 N 0.05518 0.75838 0.87195 0.0
C294 C 0.07973 0.75439 0.89305 0.0
Co295 Co 0.17384 0.04921 0.7436 0.0
Co296 Co 0.23452 0.03995 0.80165 0.0
O297 O 0.20462 0.0627 0.78239 0.0
C298 C 0.14838 0.07855 0.83494 0.0
O299 O 0.16604 0.07002 0.86965 0.0
C300 C 0.25817 0.08531 0.74545 0.0
O301 O 0.23907 0.08318 0.70988 0.0
O302 O 0.23816 0.02801 0.72456 0.0
O303 O 0.19586 0.02445 0.70025 0.0
H304 H 0.28618 0.95566 0.80392 0.0
H305 H 0.18235 0.10682 0.74647 0.0
O306 O 0.1501 0.0732 0.78462 0.0
H307 H 0.18371 0.08305 0.5523 0.0
H308 H 0.08658 0.05657 0.64754 0.0
H309 H 0.15522 0.99585 0.71356 0.0
H310 H 0.17626 0.04913 0.62219 0.0
H311 H 0.12605 0.07364 0.694 0.0
O312 O 0.25953 0.06952 0.78552 0.0
H313 H 0.24887 0.98444 0.7796 0.0
H314 H 0.28416 0.04827 0.86394 0.0
H315 H 0.11614 0.97795 0.66698 0.0
H316 H 0.18949 0.14146 0.6778 0.0
H317 H 0.08148 0.0084 0.63361 0.0
H318 H 0.19032 0.12962 0.57993 0.0
O319 O 0.16883 0.02217 0.80026 0.0
H320 H 0.22365 0.10802 0.94803 0.0
H321 H 0.23241 0.01315 0.90969 0.0
H322 H 0.22663 0.02814 0.00435 0.0
H323 H 0.22228 0.07585 0.02393 0.0
H324 H 0.2291 0.09219 0.85397 0.0
H325 H 0.32197 0.02027 0.88875 0.0
H326 H 0.32306 0.97356 0.85893 0.0
O327 O 0.21022 0.00964 0.8188 0.0
C328 C 0.22024 0.02054 0.6918 0.0
C329 C 0.2859 0.97596 0.81729 0.0
C330 C 0.306 0.01223 0.86484 0.0
N331 N 0.26426 0.01792 0.8207 0.0
C332 C 0.2648 0.99232 0.80375 0.0
C333 C 0.28458 0.02801 0.85055 0.0
C334 C 0.30659 0.98602 0.84811 0.0
C335 C 0.18238 0.10158 0.70392 0.0
N336 N 0.17887 0.076 0.6884 0.0
C337 C 0.18656 0.12125 0.66524 0.0
C338 C 0.18708 0.11459 0.61034 0.0
C339 C 0.1834 0.08846 0.59481 0.0
C340 C 0.1793 0.06931 0.63461 0.0
C341 C 0.10159 0.0431 0.66175 0.0
C342 C 0.14031 0.00924 0.69883 0.0
C343 C 0.12398 0.05266 0.68811 0.0
N344 N 0.14305 0.03578 0.70604 0.0
C345 C 0.11819 0.99898 0.67261 0.0
C346 C 0.09874 0.01608 0.65395 0.0
C347 C 0.18528 0.00656 0.82226 0.0
C348 C 0.2256 0.08717 0.93999 0.0
C349 C 0.23042 0.03396 0.91789 0.0
C350 C 0.22723 0.04231 0.97156 0.0
C351 C 0.2248 0.06911 0.98256 0.0
N352 N 0.23116 0.0518 0.87633 0.0
C353 C 0.2288 0.0781 0.88683 0.0
Co354 Co 0.94118 0.17761 0.75428 0.0
Co355 Co 0.9579 0.23351 0.82359 0.0
O356 O 0.93191 0.20793 0.79844 0.0
C357 C 0.91144 0.14817 0.83975 0.0
O358 O 0.92893 0.15516 0.87628 0.0
C359 C 0.91812 0.26638 0.76902 0.0
O360 O 0.92228 0.25215 0.72535 0.0
O361 O 0.97108 0.23892 0.74792 0.0
O362 O 0.96915 0.19769 0.7153 0.0
H363 H 0.04755 0.27476 0.83766 0.0
H364 H 0.88569 0.19545 0.75867 0.0
O365 O 0.91308 0.15648 0.79108 0.0
H366 H 0.91063 0.20018 0.56535 0.0
H367 H 0.92153 0.09642 0.64405 0.0
H368 H 0.9914 0.15307 0.71943 0.0
H369 H 0.94234 0.18447 0.63383 0.0
H370 H 0.91025 0.13585 0.69769 0.0
O371 O 0.931 0.2619 0.8125 0.0
H372 H 0.01493 0.24235 0.80533 0.0
H373 H 0.9547 0.28081 0.89481 0.0
H374 H 0.00354 0.11394 0.6657 0.0
H375 H 0.85325 0.21104 0.69139 0.0
H376 H 0.96847 0.08531 0.62758 0.0
H377 H 0.86569 0.21355 0.59397 0.0
O378 O 0.96743 0.16664 0.80927 0.0
H379 H 0.88838 0.22349 0.96743 0.0
H380 H 0.98378 0.22375 0.93056 0.0
H381 H 0.96795 0.21573 0.02382 0.0
H382 H 0.91996 0.21562 0.04273 0.0
H383 H 0.90502 0.2312 0.87468 0.0
H384 H 0.98661 0.3138 0.92771 0.0
H385 H 0.03344 0.31077 0.89939 0.0
O386 O 0.98504 0.20522 0.83549 0.0
C387 C 0.97656 0.22159 0.71224 0.0
C388 C 0.02722 0.27623 0.85044 0.0
C389 C 0.993 0.29817 0.90091 0.0
N390 N 0.98302 0.25957 0.84857 0.0
C391 C 0.00868 0.2579 0.83237 0.0
C392 C 0.97502 0.27949 0.88203 0.0
C393 C 0.01928 0.29645 0.88503 0.0
C394 C 0.89115 0.19624 0.71627 0.0
N395 N 0.91582 0.18892 0.70019 0.0
C396 C 0.87274 0.20519 0.67839 0.0
C397 C 0.87975 0.20662 0.62375 0.0
C398 C 0.90496 0.19914 0.60767 0.0
C399 C 0.92285 0.1903 0.64667 0.0
C400 C 0.93699 0.10878 0.66034 0.0
C401 C 0.97602 0.1408 0.70271 0.0
C402 C 0.93073 0.13111 0.69083 0.0
N403 N 0.95015 0.14687 0.71131 0.0
C404 C 0.98302 0.11863 0.67243 0.0
C405 C 0.96333 0.10256 0.65111 0.0
C406 C 0.98505 0.18006 0.83369 0.0
C407 C 0.90935 0.22356 0.95971 0.0
C408 C 0.96285 0.22367 0.93841 0.0
C409 C 0.95402 0.21917 0.99134 0.0
C410 C 0.92708 0.21912 0.00193 0.0
N411 N 0.94534 0.22808 0.89722 0.0
C412 C 0.91889 0.228 0.9073 0.0
Co413 Co 0.82039 0.94042 0.7051 0.0
Co414 Co 0.76806 0.94459 0.79287 0.0
O415 O 0.79586 0.92446 0.75649 0.0
C416 C 0.85612 0.91219 0.78064 0.0
O417 O 0.84223 0.92123 0.82156 0.0
C418 C 0.74 0.89983 0.74339 0.0
O419 O 0.75243 0.90561 0.6982 0.0
O420 O 0.75479 0.95821 0.72201 0.0
O421 O 0.79251 0.96421 0.67622 0.0
H422 H 0.7129 0.02455 0.83118 0.0
H423 H 0.81515 0.88239 0.70772 0.0
O424 O 0.84938 0.91729 0.73198 0.0
H425 H 0.79018 0.90837 0.52176 0.0
H426 H 0.89377 0.93955 0.56751 0.0
H427 H 0.83153 0.99513 0.66985 0.0
H428 H 0.80404 0.94179 0.58853 0.0
H429 H 0.86247 0.91963 0.63217 0.0
O430 O 0.74394 0.91354 0.78599 0.0
H431 H 0.74806 0.99931 0.78573 0.0
H432 H 0.72797 0.93124 0.87686 0.0
H433 H 0.86225 0.01583 0.60507 0.0
H434 H 0.80167 0.84827 0.64201 0.0
H435 H 0.89364 0.98797 0.55336 0.0
H436 H 0.78897 0.86121 0.54834 0.0
O437 O 0.83025 0.9673 0.75965 0.0
H438 H 0.79949 0.87437 0.92114 0.0
H439 H 0.78142 0.96917 0.8995 0.0
H440 H 0.79863 0.95269 0.98673 0.0
H441 H 0.80775 0.90496 0.998 0.0
H442 H 0.78249 0.89174 0.8344 0.0
H443 H 0.69243 0.95567 0.92296 0.0
H444 H 0.68481 0.00271 0.90038 0.0
O445 O 0.79173 0.97619 0.80066 0.0
C446 C 0.76784 0.96744 0.68221 0.0
C447 C 0.71609 0.00409 0.84151 0.0
C448 C 0.70458 0.96542 0.89297 0.0
N449 N 0.7402 0.96392 0.829 0.0
C450 C 0.73601 0.98973 0.81603 0.0
C451 C 0.72468 0.95167 0.86665 0.0
C452 C 0.70032 0.99182 0.88029 0.0
C453 C 0.80993 0.88812 0.66684 0.0
N454 N 0.8105 0.91402 0.65193 0.0
C455 C 0.8022 0.86874 0.6299 0.0
C456 C 0.79503 0.87602 0.57737 0.0
C457 C 0.79569 0.90248 0.56245 0.0
C458 C 0.80349 0.92132 0.60049 0.0
C459 C 0.88015 0.95189 0.58975 0.0
C460 C 0.84505 0.98286 0.64731 0.0
C461 C 0.86244 0.94073 0.62653 0.0
N462 N 0.84507 0.95618 0.65448 0.0
C463 C 0.86244 0.9947 0.61079 0.0
C464 C 0.88007 0.97906 0.58181 0.0
C465 C 0.81589 0.98133 0.79072 0.0
C466 C 0.79553 0.8952 0.91677 0.0
C467 C 0.78543 0.94839 0.90398 0.0
C468 C 0.79511 0.93916 0.95354 0.0
C469 C 0.8002 0.91238 0.95985 0.0
N470 N 0.78088 0.93141 0.86193 0.0
C471 C 0.78581 0.90513 0.86782 0.0
Co472 Co 0.56624 0.67695 0.81275 0.0
Co473 Co 0.55886 0.72541 0.71532 0.0
O474 O 0.57983 0.69877 0.75365 0.0
C475 C 0.58791 0.63718 0.73616 0.0
O476 O 0.57753 0.65032 0.69554 0.0
C477 C 0.60436 0.75467 0.75767 0.0
O478 O 0.59988 0.74255 0.80381 0.0
O479 O 0.54635 0.7412 0.78499 0.0
O480 O 0.54634 0.70719 0.84332 0.0
H481 H 0.47774 0.77849 0.67494 0.0
H482 H 0.62372 0.67874 0.79314 0.0
O483 O 0.58587 0.64574 0.78457 0.0
H484 H 0.61167 0.71161 0.97997 0.0
H485 H 0.57281 0.60884 0.96082 0.0
H486 H 0.51398 0.67041 0.86468 0.0
H487 H 0.57351 0.69727 0.92568 0.0
H488 H 0.58964 0.63638 0.88598 0.0
O489 O 0.58979 0.75 0.71662 0.0
H490 H 0.5041 0.74518 0.72355 0.0
H491 H 0.57042 0.76273 0.62501 0.0
H492 H 0.49638 0.64342 0.93969 0.0
H493 H 0.6625 0.69262 0.84629 0.0
H494 H 0.52591 0.6124 0.98836 0.0
H495 H 0.65657 0.70929 0.94033 0.0
O496 O 0.53545 0.66664 0.76792 0.0
H497 H 0.62696 0.69007 0.58644 0.0
H498 H 0.5325 0.70838 0.61284 0.0
H499 H 0.54753 0.68838 0.527 0.0
H500 H 0.59507 0.67913 0.51334 0.0
H501 H 0.61104 0.70987 0.67186 0.0
H502 H 0.54486 0.79638 0.57562 0.0
H503 H 0.49813 0.80433 0.60034 0.0
O504 O 0.52757 0.70133 0.71343 0.0
C505 C 0.54122 0.73092 0.83093 0.0
C506 C 0.49806 0.77514 0.66367 0.0
C507 C 0.53574 0.78521 0.60798 0.0
N508 N 0.53868 0.75187 0.6768 0.0
C509 C 0.51305 0.75627 0.69095 0.0
C510 C 0.55013 0.76618 0.63617 0.0
C511 C 0.50952 0.78966 0.62186 0.0
C512 C 0.62104 0.68569 0.83426 0.0
N513 N 0.59641 0.68707 0.85633 0.0
C514 C 0.64304 0.69364 0.86407 0.0
C515 C 0.6397 0.70303 0.9168 0.0
C516 C 0.61451 0.70435 0.93906 0.0
C517 C 0.59297 0.69625 0.90805 0.0
C518 C 0.55976 0.6223 0.93996 0.0
C519 C 0.52696 0.65701 0.88578 0.0
C520 C 0.56916 0.63789 0.89744 0.0
N521 N 0.55284 0.6551 0.87121 0.0
C522 C 0.51687 0.64174 0.92814 0.0
C523 C 0.53344 0.62432 0.95541 0.0
C524 C 0.52161 0.67873 0.7326 0.0
C525 C 0.6062 0.69406 0.59186 0.0
C526 C 0.55321 0.70433 0.60731 0.0
C527 C 0.56161 0.69306 0.55854 0.0
C528 C 0.5883 0.6879 0.55089 0.0
N529 N 0.5709 0.71037 0.64726 0.0
C530 C 0.59709 0.70536 0.64006 0.0
Co531 Co 0.31573 0.56508 0.76687 0.0
Co532 Co 0.26333 0.54386 0.68826 0.0
O533 O 0.28786 0.57095 0.71388 0.0
C534 C 0.35325 0.58341 0.68022 0.0
O535 O 0.3495 0.5618 0.65209 0.0
C536 C 0.22975 0.58367 0.73978 0.0
O537 O 0.24599 0.58215 0.78108 0.0
O538 O 0.25704 0.53009 0.76337 0.0
O539 O 0.29193 0.54334 0.81244 0.0
H540 H 0.22662 0.45236 0.67091 0.0
H541 H 0.30109 0.61927 0.73401 0.0
O542 O 0.34027 0.58777 0.72355 0.0
H543 H 0.2885 0.61648 0.93251 0.0
H544 H 0.39332 0.59167 0.88196 0.0
H545 H 0.33479 0.51869 0.8283 0.0
H546 H 0.30505 0.57758 0.88324 0.0
H547 H 0.35723 0.59906 0.81675 0.0
O548 O 0.23349 0.56936 0.6979 0.0
H549 H 0.25693 0.4864 0.70557 0.0
H550 H 0.21692 0.545 0.61441 0.0
H551 H 0.37051 0.51049 0.89403 0.0
H552 H 0.2847 0.65872 0.78172 0.0
H553 H 0.40007 0.54714 0.92125 0.0
H554 H 0.2782 0.65743 0.88166 0.0
O555 O 0.3275 0.53285 0.72736 0.0
H556 H 0.27137 0.61358 0.54432 0.0
H557 H 0.27619 0.5184 0.58236 0.0
H558 H 0.28446 0.53444 0.48937 0.0
H559 H 0.282 0.58234 0.46985 0.0
H560 H 0.26346 0.59672 0.63685 0.0
H561 H 0.18601 0.51165 0.57913 0.0
H562 H 0.19088 0.46492 0.60711 0.0
O563 O 0.29282 0.51835 0.67886 0.0
C564 C 0.27012 0.53128 0.80749 0.0
C565 C 0.22433 0.47265 0.6583 0.0
C566 C 0.20152 0.50593 0.60685 0.0
N567 N 0.23879 0.5176 0.66171 0.0
C568 C 0.24147 0.49199 0.67771 0.0
C569 C 0.21901 0.52474 0.6271 0.0
C570 C 0.20428 0.47971 0.62254 0.0
C571 C 0.2985 0.61864 0.77757 0.0
N572 N 0.30399 0.59615 0.80581 0.0
C573 C 0.28914 0.641 0.80433 0.0
C574 C 0.28547 0.64026 0.8604 0.0
C575 C 0.29123 0.61729 0.88895 0.0
C576 C 0.30052 0.5953 0.86082 0.0
C577 C 0.38053 0.57555 0.87049 0.0
C578 C 0.34747 0.53478 0.84022 0.0
C579 C 0.3601 0.5796 0.83348 0.0
N580 N 0.34379 0.55936 0.81903 0.0
C581 C 0.36771 0.53 0.87733 0.0
C582 C 0.38431 0.55057 0.89254 0.0
C583 C 0.31657 0.51635 0.69526 0.0
C584 C 0.27244 0.59266 0.5523 0.0
C585 C 0.2752 0.53929 0.57426 0.0
C586 C 0.27982 0.54824 0.52149 0.0
C587 C 0.27843 0.57512 0.51055 0.0
N588 N 0.26924 0.55661 0.61497 0.0
C589 C 0.26791 0.58299 0.60459 0.0
Co590 Co 0.43082 0.31663 0.73955 0.0
Co591 Co 0.44725 0.25265 0.70681 0.0
O592 O 0.42386 0.28347 0.70162 0.0
C593 C 0.425 0.35657 0.65356 0.0
O594 O 0.45013 0.36156 0.66025 0.0
C595 C 0.39135 0.23212 0.71029 0.0
O596 O 0.38201 0.25602 0.70537 0.0
O597 O 0.44667 0.2544 0.78768 0.0
O598 O 0.4466 0.29784 0.80282 0.0
H599 H 0.52524 0.20245 0.77764 0.0
H600 H 0.37634 0.30878 0.69892 0.0
O601 O 0.41474 0.33675 0.67742 0.0
H602 H 0.36764 0.31757 0.89749 0.0
H603 H 0.40956 0.40815 0.80612 0.0
H604 H 0.47694 0.33839 0.79797 0.0
H605 H 0.41114 0.32051 0.85387 0.0
H606 H 0.40013 0.366 0.76055 0.0
O607 O 0.41612 0.22781 0.71047 0.0
H608 H 0.49576 0.24081 0.76911 0.0
H609 H 0.44769 0.19902 0.65734 0.0
H610 H 0.48714 0.38021 0.84427 0.0
H611 H 0.33237 0.30625 0.74081 0.0
H612 H 0.45333 0.41547 0.84847 0.0
H613 H 0.3278 0.3105 0.84085 0.0
O614 O 0.46595 0.3182 0.70473 0.0
H615 H 0.40854 0.25454 0.51792 0.0
H616 H 0.48994 0.24596 0.62532 0.0
H617 H 0.49228 0.2442 0.52546 0.0
H618 H 0.45137 0.24837 0.47099 0.0
H619 H 0.40711 0.2565 0.61755 0.0
H620 H 0.47653 0.16011 0.66501 0.0
H621 H 0.51569 0.16173 0.72533 0.0
O622 O 0.47923 0.27604 0.70444 0.0
C623 C 0.44928 0.27418 0.81904 0.0
C624 C 0.50829 0.20153 0.75108 0.0
C625 C 0.48093 0.17776 0.68793 0.0
N626 N 0.47017 0.22223 0.71241 0.0
C627 C 0.49157 0.22322 0.74596 0.0
C628 C 0.46464 0.19982 0.68386 0.0
C629 C 0.5029 0.17869 0.72176 0.0
C630 C 0.37455 0.31081 0.74244 0.0
N631 N 0.39641 0.31449 0.77385 0.0
C632 C 0.34958 0.30928 0.76595 0.0
C633 C 0.34703 0.31163 0.82208 0.0
C634 C 0.36938 0.31553 0.85388 0.0
C635 C 0.39403 0.31695 0.82895 0.0
C636 C 0.42445 0.39293 0.80462 0.0
C637 C 0.46209 0.3536 0.79973 0.0
C638 C 0.41923 0.36901 0.77884 0.0
N639 N 0.43797 0.34971 0.77654 0.0
C640 C 0.46799 0.37725 0.82599 0.0
C641 C 0.44901 0.39703 0.82834 0.0
C642 C 0.48361 0.30065 0.69866 0.0
C643 C 0.42648 0.25246 0.54122 0.0
C644 C 0.47198 0.24772 0.60206 0.0
C645 C 0.47347 0.24672 0.54544 0.0
C646 C 0.45052 0.24906 0.5149 0.0
N647 N 0.44828 0.25074 0.62777 0.0
C648 C 0.42576 0.25336 0.59794 0.0
Co649 Co 0.68584 0.41843 0.80612 0.0
Co650 Co 0.73494 0.43844 0.71909 0.0
O651 O 0.7129 0.41142 0.75226 0.0
C652 C 0.65647 0.38924 0.72172 0.0
O653 O 0.66646 0.4055 0.68574 0.0
C654 C 0.77297 0.40198 0.76792 0.0
O655 O 0.76035 0.40585 0.81373 0.0
O656 O 0.74408 0.45386 0.79131 0.0
O657 O 0.70804 0.44574 0.84173 0.0
H658 H 0.76897 0.53012 0.6881 0.0
H659 H 0.70394 0.36368 0.78799 0.0
O660 O 0.66271 0.39131 0.77162 0.0
H661 H 0.7229 0.38243 0.98057 0.0
H662 H 0.6143 0.39261 0.93725 0.0
H663 H 0.66312 0.4666 0.85563 0.0
H664 H 0.70177 0.41592 0.92261 0.0
H665 H 0.64942 0.38442 0.87014 0.0
O666 O 0.76565 0.4137 0.72469 0.0
H667 H 0.74082 0.49631 0.73053 0.0
H668 H 0.77759 0.43674 0.63622 0.0
H669 H 0.62831 0.47568 0.92286 0.0
H670 H 0.72494 0.32954 0.8446 0.0
H671 H 0.60363 0.43852 0.96419 0.0
H672 H 0.7346 0.33887 0.9416 0.0
O673 O 0.67013 0.44614 0.75946 0.0
H674 H 0.72177 0.36545 0.58388 0.0
H675 H 0.71633 0.46125 0.61441 0.0
H676 H 0.70386 0.443 0.52522 0.0
H677 H 0.70659 0.39477 0.50948 0.0
H678 H 0.73383 0.38451 0.6726 0.0
H679 H 0.8063 0.46988 0.59308 0.0
H680 H 0.80198 0.51697 0.61881 0.0
O681 O 0.70439 0.4634 0.71375 0.0
C682 C 0.73028 0.45672 0.83413 0.0
C683 C 0.77098 0.50968 0.67643 0.0
C684 C 0.79196 0.47586 0.62315 0.0
N685 N 0.75743 0.46463 0.68551 0.0
C686 C 0.75505 0.49046 0.7002 0.0
C687 C 0.7757 0.45718 0.6478 0.0
C688 C 0.78952 0.50228 0.63759 0.0
C689 C 0.70787 0.36777 0.8303 0.0
N690 N 0.70149 0.39168 0.85206 0.0
C691 C 0.71985 0.34842 0.86209 0.0
C692 C 0.7253 0.35368 0.9165 0.0
C693 C 0.71875 0.37812 0.93838 0.0
C694 C 0.70683 0.39702 0.90534 0.0
C695 C 0.62496 0.40897 0.91965 0.0
C696 C 0.65261 0.45032 0.87372 0.0
C697 C 0.64484 0.40445 0.88157 0.0
N698 N 0.65848 0.42501 0.8594 0.0
C699 C 0.63285 0.45559 0.91163 0.0
C700 C 0.61899 0.43473 0.93475 0.0
C701 C 0.6803 0.46368 0.7288 0.0
C702 C 0.72056 0.3865 0.59019 0.0
C703 C 0.71749 0.44023 0.60793 0.0
C704 C 0.71046 0.43002 0.5573 0.0
C705 C 0.71201 0.40296 0.54849 0.0
N706 N 0.72593 0.42397 0.64859 0.0
C707 C 0.72747 0.39742 0.64028 0.0
Co708 Co 0.55187 0.32687 0.21336 0.0
Co709 Co 0.54393 0.27456 0.29901 0.0
O710 O 0.56641 0.29983 0.26097 0.0
C711 C 0.58739 0.35989 0.28178 0.0
O712 O 0.57588 0.35079 0.3257 0.0
C713 C 0.58343 0.24126 0.24432 0.0
O714 O 0.57769 0.25404 0.19953 0.0
O715 O 0.52711 0.2638 0.22909 0.0
O716 O 0.52276 0.30324 0.18919 0.0
H717 H 0.45836 0.23088 0.34757 0.0
H718 H 0.60824 0.31271 0.20339 0.0
O719 O 0.5806 0.35155 0.23509 0.0
H720 H 0.56958 0.29423 0.02366 0.0
H721 H 0.55739 0.40127 0.07865 0.0
H722 H 0.49807 0.34659 0.19004 0.0
H723 H 0.54226 0.31238 0.09742 0.0
H724 H 0.57523 0.36617 0.13721 0.0
O725 O 0.57156 0.24686 0.28844 0.0
H726 H 0.48693 0.26196 0.29801 0.0
H727 H 0.5541 0.23233 0.38047 0.0
H728 H 0.47939 0.38137 0.1318 0.0
H729 H 0.63638 0.29487 0.13047 0.0
H730 H 0.50913 0.40899 0.07554 0.0
H731 H 0.61702 0.28541 0.03991 0.0
O732 O 0.52939 0.33992 0.27338 0.0
H733 H 0.62047 0.29656 0.42014 0.0
H734 H 0.52382 0.28948 0.40876 0.0
H735 H 0.54439 0.30366 0.49463 0.0
H736 H 0.59306 0.30724 0.50074 0.0
H737 H 0.59907 0.2826 0.3349 0.0
H738 H 0.52629 0.20075 0.43054 0.0
H739 H 0.47802 0.20009 0.41459 0.0
O740 O 0.51591 0.30195 0.31082 0.0
C741 C 0.51758 0.27879 0.19258 0.0
C742 C 0.47935 0.23104 0.35499 0.0
C743 C 0.51749 0.2141 0.4015 0.0
N744 N 0.52211 0.2491 0.33668 0.0
C745 C 0.49562 0.24862 0.32712 0.0
C746 C 0.53315 0.23195 0.37289 0.0
C747 C 0.4904 0.21374 0.39254 0.0
C748 C 0.59976 0.30892 0.1639 0.0
N749 N 0.57367 0.31367 0.15466 0.0
C750 C 0.61575 0.29871 0.12284 0.0
C751 C 0.60487 0.29336 0.07207 0.0
C752 C 0.57825 0.29829 0.06293 0.0
C753 C 0.56286 0.30851 0.10493 0.0
C754 C 0.54422 0.38934 0.10291 0.0
C755 C 0.51114 0.35844 0.1655 0.0
C756 C 0.55422 0.36947 0.13624 0.0
N757 N 0.5377 0.35423 0.16678 0.0
C758 C 0.50045 0.37815 0.13268 0.0
C759 C 0.51715 0.39365 0.10117 0.0
C760 C 0.51404 0.32685 0.30426 0.0
C761 C 0.59925 0.29503 0.41801 0.0
C762 C 0.54501 0.29107 0.411 0.0
C763 C 0.55655 0.29905 0.45979 0.0
C764 C 0.58386 0.30104 0.46321 0.0
N765 N 0.56025 0.28511 0.3669 0.0
C766 C 0.58703 0.28706 0.36991 0.0
Co767 Co 0.68504 0.58317 0.20113 0.0
Co768 Co 0.73463 0.5637 0.28901 0.0
O769 O 0.70849 0.58922 0.2627 0.0
C770 C 0.64841 0.59818 0.29225 0.0
O771 O 0.66542 0.5911 0.3296 0.0
C772 C 0.76528 0.60908 0.25054 0.0
O773 O 0.74936 0.60905 0.20865 0.0
O774 O 0.74534 0.55286 0.21376 0.0
O775 O 0.71464 0.56929 0.15774 0.0
H776 H 0.77948 0.47569 0.30005 0.0
H777 H 0.68711 0.63577 0.25287 0.0
O778 O 0.65405 0.59683 0.24199 0.0
H779 H 0.71222 0.65049 0.06184 0.0
H780 H 0.61163 0.60556 0.07146 0.0
H781 H 0.67838 0.53953 0.12237 0.0
H782 H 0.70061 0.60602 0.09413 0.0
H783 H 0.64145 0.61346 0.14882 0.0
O784 O 0.76244 0.59194 0.28794 0.0
H785 H 0.74699 0.50773 0.26581 0.0
H786 H 0.77778 0.56652 0.37077 0.0
H787 H 0.64912 0.53096 0.04439 0.0
H788 H 0.69836 0.68062 0.22222 0.0
H789 H 0.61544 0.56412 0.0185 0.0
H790 H 0.71111 0.68817 0.1261 0.0
O791 O 0.67665 0.54713 0.22786 0.0
H792 H 0.71526 0.62763 0.4397 0.0
H793 H 0.71979 0.53387 0.38859 0.0
H794 H 0.70663 0.54605 0.48168 0.0
H795 H 0.70437 0.59323 0.50778 0.0
H796 H 0.72806 0.61457 0.34688 0.0
H797 H 0.81075 0.53517 0.40586 0.0
H798 H 0.81166 0.48936 0.3706 0.0
O799 O 0.70725 0.53543 0.28953 0.0
C800 C 0.73607 0.55714 0.16648 0.0
C801 C 0.77924 0.49557 0.31584 0.0
C802 C 0.79681 0.52897 0.37516 0.0
N803 N 0.7604 0.5389 0.31651 0.0
C804 C 0.76085 0.51378 0.2967 0.0
C805 C 0.77815 0.54665 0.35504 0.0
C806 C 0.7973 0.50327 0.35538 0.0
C807 C 0.69238 0.63896 0.21087 0.0
N808 N 0.69306 0.61834 0.17528 0.0
C809 C 0.69884 0.66437 0.1938 0.0
C810 C 0.70603 0.66859 0.13988 0.0
C811 C 0.70667 0.64746 0.10381 0.0
C812 C 0.70013 0.62231 0.12235 0.0
C813 C 0.62626 0.59099 0.08228 0.0
C814 C 0.66389 0.55413 0.11113 0.0
C815 C 0.64317 0.59532 0.12612 0.0
N816 N 0.66179 0.57706 0.13984 0.0
C817 C 0.64732 0.54913 0.06704 0.0
C818 C 0.62841 0.56773 0.05257 0.0
C819 C 0.68622 0.53105 0.26256 0.0
C820 C 0.71623 0.607 0.42885 0.0
C821 C 0.71871 0.55444 0.39955 0.0
C822 C 0.71133 0.56122 0.45237 0.0
C823 C 0.71009 0.58769 0.46701 0.0
N824 N 0.72476 0.57349 0.36239 0.0
C825 C 0.72357 0.59949 0.37641 0.0
Co826 Co 0.43657 0.68877 0.19558 0.0
Co827 Co 0.44426 0.73738 0.29164 0.0
O828 O 0.42243 0.71287 0.24987 0.0
C829 C 0.40609 0.65268 0.26622 0.0
O830 O 0.41675 0.66416 0.30866 0.0
C831 C 0.4049 0.77181 0.24049 0.0
O832 O 0.41204 0.76127 0.19411 0.0
O833 O 0.46112 0.75127 0.22411 0.0
O834 O 0.46245 0.71549 0.17054 0.0
H835 H 0.52803 0.78299 0.34577 0.0
H836 H 0.37919 0.69883 0.19867 0.0
O837 O 0.4111 0.66098 0.21855 0.0
H838 H 0.40793 0.72713 0.01649 0.0
H839 H 0.43039 0.61996 0.04879 0.0
H840 H 0.49036 0.67442 0.15921 0.0
H841 H 0.43974 0.70834 0.08135 0.0
H842 H 0.41279 0.6508 0.11716 0.0
O843 O 0.41571 0.7645 0.28471 0.0
H844 H 0.50079 0.75197 0.29295 0.0
H845 H 0.43255 0.7762 0.37909 0.0
H846 H 0.50879 0.64406 0.09081 0.0
H847 H 0.34662 0.71726 0.13476 0.0
H848 H 0.4787 0.61658 0.03506 0.0
H849 H 0.36097 0.73164 0.04301 0.0
O850 O 0.46238 0.67517 0.24877 0.0
H851 H 0.36813 0.70927 0.40837 0.0
H852 H 0.46462 0.71866 0.39853 0.0
H853 H 0.44434 0.70067 0.48159 0.0
H854 H 0.39575 0.69591 0.48691 0.0
H855 H 0.38924 0.72698 0.32588 0.0
H856 H 0.459 0.80765 0.43255 0.0
H857 H 0.50713 0.81108 0.41621 0.0
O858 O 0.47313 0.7105 0.29926 0.0
C859 C 0.46866 0.73913 0.1816 0.0
C860 C 0.5071 0.78161 0.3534 0.0
C861 C 0.46835 0.79548 0.40205 0.0
N862 N 0.46518 0.76211 0.33331 0.0
C863 C 0.4916 0.76403 0.32373 0.0
C864 C 0.45346 0.77768 0.37158 0.0
C865 C 0.49535 0.79739 0.39288 0.0
C866 C 0.3855 0.70479 0.15859 0.0
N867 N 0.41128 0.70237 0.14367 0.0
C868 C 0.367 0.71531 0.12267 0.0
C869 C 0.37508 0.72341 0.07122 0.0
C870 C 0.40142 0.72089 0.05632 0.0
C871 C 0.41936 0.71029 0.09329 0.0
C872 C 0.44369 0.63186 0.0728 0.0
C873 C 0.47714 0.6626 0.13492 0.0
C874 C 0.43384 0.64929 0.1117 0.0
N875 N 0.45052 0.6645 0.14192 0.0
C876 C 0.48769 0.64541 0.09635 0.0
C877 C 0.4708 0.62998 0.0651 0.0
C878 C 0.47658 0.68664 0.28431 0.0
C879 C 0.38932 0.71131 0.40659 0.0
C880 C 0.44347 0.71657 0.40044 0.0
C881 C 0.43209 0.70643 0.44764 0.0
C882 C 0.40482 0.70378 0.45061 0.0
N883 N 0.42812 0.72395 0.35746 0.0
C884 C 0.40138 0.72141 0.36006 0.0
Co885 Co 0.31224 0.42346 0.23264 0.0
Co886 Co 0.25769 0.45255 0.29153 0.0
O887 O 0.28282 0.42366 0.28331 0.0
C888 C 0.34583 0.41653 0.33214 0.0
O889 O 0.34015 0.44038 0.34893 0.0
C890 C 0.22605 0.40789 0.2542 0.0
O891 O 0.24411 0.40514 0.2166 0.0
O892 O 0.25441 0.45771 0.21119 0.0
O893 O 0.29018 0.43901 0.17424 0.0
H894 H 0.2207 0.54282 0.25775 0.0
H895 H 0.29679 0.37465 0.29036 0.0
O896 O 0.33523 0.40715 0.28944 0.0
H897 H 0.28993 0.35333 0.09549 0.0
H898 H 0.39339 0.38485 0.1462 0.0
H899 H 0.33349 0.46119 0.15182 0.0
H900 H 0.30482 0.39724 0.12519 0.0
H901 H 0.35508 0.38508 0.20768 0.0
O902 O 0.22806 0.42632 0.28917 0.0
H903 H 0.25249 0.50651 0.24667 0.0
H904 H 0.20848 0.45907 0.35587 0.0
H905 H 0.37142 0.46166 0.08931 0.0
H906 H 0.28202 0.3304 0.2625 0.0
H907 H 0.4017 0.42329 0.0863 0.0
H908 H 0.27841 0.31954 0.16442 0.0
O909 O 0.32277 0.45957 0.25572 0.0
H910 H 0.2594 0.40075 0.46555 0.0
H911 H 0.26654 0.48918 0.38435 0.0
H912 H 0.27078 0.48403 0.48359 0.0
H913 H 0.26716 0.43958 0.52481 0.0
H914 H 0.25543 0.40676 0.36644 0.0
H915 H 0.17609 0.4948 0.36784 0.0
H916 H 0.18217 0.53708 0.31872 0.0
O917 O 0.28706 0.47869 0.29318 0.0
C918 C 0.26867 0.45171 0.17037 0.0
C919 C 0.21788 0.52452 0.2795 0.0
C920 C 0.19282 0.49755 0.34122 0.0
N921 N 0.23242 0.48079 0.30088 0.0
C922 C 0.23585 0.50392 0.2735 0.0
C923 C 0.21118 0.47738 0.33418 0.0
C924 C 0.19625 0.52128 0.31367 0.0
C925 C 0.29546 0.37 0.2476 0.0
N926 N 0.30166 0.38851 0.20943 0.0
C927 C 0.28701 0.34494 0.23208 0.0
C928 C 0.28496 0.33887 0.17704 0.0
C929 C 0.29139 0.35783 0.13835 0.0
C930 C 0.29973 0.38269 0.15538 0.0
C931 C 0.3803 0.40166 0.14706 0.0
C932 C 0.34645 0.44433 0.15043 0.0
C933 C 0.3586 0.40193 0.18189 0.0
N934 N 0.34194 0.42306 0.18307 0.0
C935 C 0.36795 0.44475 0.11508 0.0
C936 C 0.38495 0.42323 0.11345 0.0
C937 C 0.31109 0.47912 0.27791 0.0
C938 C 0.26098 0.42023 0.44807 0.0
C939 C 0.26506 0.46974 0.40195 0.0
C940 C 0.26742 0.46697 0.45818 0.0
C941 C 0.26535 0.44202 0.4813 0.0
N942 N 0.26065 0.44829 0.36964 0.0
C943 C 0.25868 0.42376 0.39199 0.0
H944 H 0.07931 0.11533 0.08417 0.0
H945 H 0.14232 0.14619 0.18331 0.0
H946 H 0.10488 0.07524 0.06856 0.0
H947 H 0.16755 0.10627 0.16839 0.0
H948 H 0.21097 0.03279 0.13422 0.0
H949 H 0.19045 0.07461 0.11 0.0
H950 H 0.11364 0.04042 0.13599 0.0
H951 H 0.1339 0.9987 0.15952 0.0
C952 C 0.09894 0.11395 0.10112 0.0
C953 C 0.10862 0.13368 0.13579 0.0
C954 C 0.11349 0.09091 0.09254 0.0
C955 C 0.13803 0.08736 0.11809 0.0
C956 C 0.14879 0.10833 0.14796 0.0
C957 C 0.13423 0.13121 0.15678 0.0
C958 C 0.18968 0.03405 0.13395 0.0
C959 C 0.17411 0.01247 0.14994 0.0
C960 C 0.17795 0.05803 0.11996 0.0
C961 C 0.15043 0.06091 0.12138 0.0
C962 C 0.13487 0.03884 0.13385 0.0
C963 C 0.14655 0.01493 0.14798 0.0
H964 H 0.01261 0.12768 0.21951 0.0
H965 H 0.97384 0.19838 0.16285 0.0
H966 H 0.9712 0.10382 0.21279 0.0
H967 H 0.9324 0.17419 0.15607 0.0
H968 H 0.86367 0.11381 0.13012 0.0
H969 H 0.90737 0.13309 0.1123 0.0
H970 H 0.93151 0.11307 0.27526 0.0
H971 H 0.88837 0.09448 0.2932 0.0
C972 C 0.99545 0.13805 0.20455 0.0
C973 C 0.99649 0.16513 0.19283 0.0
C974 C 0.97174 0.12433 0.20069 0.0
C975 C 0.94862 0.13727 0.18452 0.0
C976 C 0.94999 0.16375 0.1685 0.0
C977 C 0.97371 0.17761 0.17281 0.0
C978 C 0.87849 0.11339 0.16174 0.0
C979 C 0.87264 0.10285 0.2131 0.0
C980 C 0.90335 0.12442 0.15162 0.0
C981 C 0.92279 0.12433 0.19231 0.0
C982 C 0.91703 0.11308 0.24294 0.0
C983 C 0.89223 0.10264 0.25333 0.0
H984 H 0.84883 0.00741 0.30578 0.0
H985 H 0.80022 0.99073 0.16567 0.0
H986 H 0.87178 0.96601 0.29286 0.0
H987 H 0.82352 0.94892 0.15295 0.0
H988 H 0.89775 0.8916 0.12622 0.0
H989 H 0.87061 0.93156 0.13071 0.0
H990 H 0.8584 0.91861 0.30211 0.0
H991 H 0.88516 0.87914 0.29797 0.0
C992 C 0.84304 0.99499 0.27207 0.0
C993 C 0.82253 0.00244 0.23693 0.0
C994 C 0.85614 0.97115 0.26488 0.0
C995 C 0.84925 0.95413 0.22223 0.0
C996 C 0.82923 0.96171 0.18612 0.0
C997 C 0.81585 0.98558 0.19361 0.0
C998 C 0.8889 0.89711 0.16459 0.0
C999 C 0.89399 0.88242 0.21187 0.0
C1000 C 0.87337 0.91993 0.16712 0.0
C1001 C 0.86283 0.9284 0.21698 0.0
C1002 C 0.86674 0.91286 0.26338 0.0
C1003 C 0.88206 0.89017 0.26087 0.0
H1004 H 0.02734 0.79895 0.13472 0.0
H1005 H 0.99589 0.87597 0.17211 0.0
H1006 H 0.06792 0.81934 0.10229 0.0
H1007 H 0.03636 0.89614 0.13964 0.0
H1008 H 0.10856 0.92933 0.0685 0.0
H1009 H 0.06784 0.90386 0.06093 0.0
H1010 H 0.10199 0.84251 0.15973 0.0
H1011 H 0.14244 0.86783 0.16746 0.0
C1012 C 0.02882 0.82022 0.13509 0.0
C1013 C 0.00851 0.83581 0.15703 0.0
C1014 C 0.05207 0.83186 0.11642 0.0
C1015 C 0.05535 0.8593 0.11864 0.0
C1016 C 0.03432 0.87496 0.13685 0.0
C1017 C 0.0112 0.86335 0.156 0.0
C1018 C 0.10768 0.91 0.08698 0.0
C1019 C 0.12849 0.90076 0.11942 0.0
C1020 C 0.08432 0.89551 0.0829 0.0
C1021 C 0.08162 0.87141 0.11045 0.0
C1022 C 0.10348 0.86096 0.13791 0.0
C1023 C 0.12664 0.87554 0.14254 0.0
H1024 H 0.084 0.8789 0.92675 0.0
H1025 H 0.14824 0.84854 0.83038 0.0
H1026 H 0.10885 0.91945 0.94229 0.0
H1027 H 0.17262 0.88893 0.8447 0.0
H1028 H 0.21271 0.96466 0.86505 0.0
H1029 H 0.19447 0.92295 0.89718 0.0
H1030 H 0.11583 0.95315 0.87329 0.0
H1031 H 0.1338 0.99461 0.84219 0.0
C1032 C 0.10375 0.88048 0.91045 0.0
C1033 C 0.1139 0.86085 0.87615 0.0
C1034 C 0.1179 0.90379 0.919 0.0
C1035 C 0.14243 0.90772 0.89354 0.0
C1036 C 0.15382 0.88668 0.86493 0.0
C1037 C 0.13972 0.86351 0.85636 0.0
C1038 C 0.19153 0.96255 0.86764 0.0
C1039 C 0.17474 0.98279 0.84969 0.0
C1040 C 0.18109 0.93866 0.88617 0.0
C1041 C 0.15369 0.93459 0.8874 0.0
C1042 C 0.13701 0.9556 0.8735 0.0
C1043 C 0.14738 0.97936 0.85488 0.0
H1044 H 0.14177 0.11656 0.91406 0.0
H1045 H 0.09996 0.06942 0.79639 0.0
H1046 H 0.10088 0.14119 0.93299 0.0
H1047 H 0.05993 0.09348 0.81467 0.0
H1048 H 0.98709 0.12837 0.86271 0.0
H1049 H 0.02624 0.1026 0.88299 0.0
H1050 H 0.07374 0.17302 0.87559 0.0
H1051 H 0.03435 0.19907 0.85687 0.0
C1052 C 0.12379 0.11119 0.89317 0.0
C1053 C 0.12398 0.0914 0.85333 0.0
C1054 C 0.10052 0.12527 0.90374 0.0
C1055 C 0.07717 0.11921 0.87546 0.0
C1056 C 0.07737 0.09843 0.83786 0.0
C1057 C 0.10043 0.08481 0.82687 0.0
C1058 C 0.00578 0.13848 0.86659 0.0
C1059 C 0.00775 0.16563 0.85667 0.0
C1060 C 0.0282 0.12372 0.87835 0.0
C1061 C 0.05314 0.1357 0.87965 0.0
C1062 C 0.0548 0.16323 0.87492 0.0
C1063 C 0.03224 0.17811 0.86374 0.0
H1064 H 0.91663 0.10786 0.91247 0.0
H1065 H 0.86444 0.13945 0.79035 0.0
H1066 H 0.89076 0.06716 0.91437 0.0
H1067 H 0.83846 0.09907 0.79294 0.0
H1068 H 0.8679 0.99194 0.80687 0.0
H1069 H 0.8876 0.03361 0.83447 0.0
H1070 H 0.81025 0.06757 0.85298 0.0
H1071 H 0.79034 0.02563 0.826 0.0
C1072 C 0.89914 0.10647 0.88748 0.0
C1073 C 0.89262 0.1267 0.85098 0.0
C1074 C 0.88446 0.08315 0.88833 0.0
C1075 C 0.86274 0.07995 0.85355 0.0
C1076 C 0.85499 0.10107 0.82044 0.0
C1077 C 0.86991 0.12414 0.81884 0.0
C1078 C 0.85505 0.00814 0.81767 0.0
C1079 C 0.82757 0.00558 0.81372 0.0
C1080 C 0.86634 0.03192 0.83396 0.0
C1081 C 0.85043 0.05377 0.84587 0.0
C1082 C 0.82293 0.05099 0.84398 0.0
C1083 C 0.81158 0.027 0.8286 0.0
H1084 H 0.89568 0.90461 0.70836 0.0
H1085 H 0.87303 0.88744 0.87384 0.0
H1086 H 0.93729 0.88219 0.72237 0.0
H1087 H 0.91514 0.86442 0.88756 0.0
H1088 H 0.97978 0.79742 0.83984 0.0
H1089 H 0.93841 0.82199 0.84377 0.0
H1090 H 0.97806 0.89109 0.78308 0.0
H1091 H 0.01935 0.86694 0.77941 0.0
C1092 C 0.89951 0.89594 0.74775 0.0
C1093 C 0.88102 0.8978 0.79003 0.0
C1094 C 0.92348 0.88327 0.75584 0.0
C1095 C 0.9295 0.87184 0.80617 0.0
C1096 C 0.91093 0.87319 0.84842 0.0
C1097 C 0.88694 0.88635 0.84058 0.0
C1098 C 0.97982 0.81799 0.82828 0.0
C1099 C 0.00288 0.83007 0.8085 0.0
C1100 C 0.95614 0.83205 0.83082 0.0
C1101 C 0.95507 0.85828 0.8131 0.0
C1102 C 0.97835 0.87077 0.7964 0.0
C1103 C 0.00202 0.85689 0.79442 0.0
H1104 H 0.59821 0.60001 0.81229 0.0
H1105 H 0.6061 0.61564 0.64048 0.0
H1106 H 0.61828 0.55715 0.79995 0.0
H1107 H 0.62667 0.57217 0.62829 0.0
H1108 H 0.69435 0.50736 0.66936 0.0
H1109 H 0.67021 0.5489 0.66289 0.0
H1110 H 0.60548 0.51455 0.75144 0.0
H1111 H 0.62927 0.47318 0.75813 0.0
C1112 C 0.60428 0.59434 0.77178 0.0
C1113 C 0.60056 0.61129 0.72733 0.0
C1114 C 0.61559 0.56963 0.7647 0.0
C1115 C 0.62375 0.56123 0.71309 0.0
C1116 C 0.62045 0.5782 0.66848 0.0
C1117 C 0.60867 0.60297 0.67545 0.0
C1118 C 0.67473 0.50845 0.68645 0.0
C1119 C 0.66399 0.487 0.71515 0.0
C1120 C 0.6609 0.53224 0.68249 0.0
C1121 C 0.6362 0.535 0.7074 0.0
C1122 C 0.62469 0.51303 0.73257 0.0
C1123 C 0.63835 0.48929 0.73625 0.0
H1124 H 0.50881 0.62666 0.73902 0.0
H1125 H 0.47932 0.70151 0.68174 0.0
H1126 H 0.46782 0.6056 0.71166 0.0
H1127 H 0.43808 0.68026 0.6548 0.0
H1128 H 0.39843 0.57062 0.6259 0.0
H1129 H 0.43987 0.59517 0.62723 0.0
H1130 H 0.40163 0.65879 0.71254 0.0
H1131 H 0.36034 0.63429 0.71169 0.0
C1132 C 0.49365 0.6386 0.7203 0.0
C1133 C 0.49725 0.66582 0.71305 0.0
C1134 C 0.47028 0.62646 0.7041 0.0
C1135 C 0.44983 0.64129 0.68093 0.0
C1136 C 0.45355 0.6684 0.67261 0.0
C1137 C 0.47715 0.68052 0.68803 0.0
C1138 C 0.39868 0.59017 0.64347 0.0
C1139 C 0.37621 0.60045 0.6691 0.0
C1140 C 0.42244 0.60411 0.64458 0.0
C1141 C 0.42398 0.62873 0.67048 0.0
C1142 C 0.40098 0.63992 0.6921 0.0
C1143 C 0.37737 0.62584 0.69173 0.0
H1144 H 0.36865 0.50613 0.71421 0.0
H1145 H 0.30006 0.47481 0.63248 0.0
H1146 H 0.39369 0.46752 0.68733 0.0
H1147 H 0.32541 0.43622 0.60515 0.0
H1148 H 0.37106 0.35848 0.65648 0.0
H1149 H 0.34425 0.39813 0.65438 0.0
H1150 H 0.41244 0.44384 0.60891 0.0
H1151 H 0.43944 0.40426 0.61169 0.0
C1152 C 0.35895 0.49117 0.69005 0.0
C1153 C 0.33224 0.49354 0.67602 0.0
C1154 C 0.37342 0.46912 0.67413 0.0
C1155 C 0.36156 0.44884 0.6439 0.0
C1156 C 0.33504 0.45145 0.62867 0.0
C1157 C 0.32056 0.4736 0.64436 0.0
C1158 C 0.38023 0.3768 0.64434 0.0
C1159 C 0.40756 0.37826 0.63553 0.0
C1160 C 0.36481 0.39959 0.64312 0.0
C1161 C 0.37638 0.42422 0.63281 0.0
C1162 C 0.40311 0.42522 0.61832 0.0
C1163 C 0.41853 0.40246 0.61951 0.0
H1164 H 0.62772 0.38818 0.62756 0.0
H1165 H 0.63707 0.34857 0.78167 0.0
H1166 H 0.58794 0.36242 0.60996 0.0
H1167 H 0.59743 0.32308 0.76417 0.0
H1168 H 0.52951 0.27284 0.71146 0.0
H1169 H 0.57447 0.28984 0.70556 0.0
H1170 H 0.54426 0.36562 0.65638 0.0
H1171 H 0.49965 0.34882 0.66211 0.0
C1172 C 0.62163 0.37362 0.65711 0.0
C1173 C 0.6353 0.37069 0.70636 0.0
C1174 C 0.59882 0.35895 0.64712 0.0
C1175 C 0.58946 0.34091 0.6859 0.0
C1176 C 0.60422 0.33667 0.73331 0.0
C1177 C 0.62684 0.35146 0.74352 0.0
C1178 C 0.53249 0.29299 0.69846 0.0
C1179 C 0.51091 0.30958 0.68804 0.0
C1180 C 0.55823 0.30271 0.69521 0.0
C1181 C 0.56287 0.32908 0.68072 0.0
C1182 C 0.54137 0.34515 0.66714 0.0
C1183 C 0.51572 0.33555 0.67098 0.0
H1184 H 0.64639 0.51067 0.20124 0.0
H1185 H 0.69497 0.49346 0.34111 0.0
H1186 H 0.62508 0.46812 0.21047 0.0
H1187 H 0.67327 0.45058 0.3502 0.0
H1188 H 0.60066 0.39032 0.37039 0.0
H1189 H 0.62621 0.43135 0.36965 0.0
H1190 H 0.64118 0.42118 0.1984 0.0
H1191 H 0.61606 0.38054 0.19886 0.0
C1192 C 0.65247 0.49792 0.23418 0.0
C1193 C 0.67252 0.50553 0.2703 0.0
C1194 C 0.64033 0.47343 0.23923 0.0
C1195 C 0.64771 0.45597 0.28073 0.0
C1196 C 0.66721 0.46371 0.31788 0.0
C1197 C 0.67965 0.48821 0.31249 0.0
C1198 C 0.6098 0.39664 0.33286 0.0
C1199 C 0.60595 0.38236 0.28454 0.0
C1200 C 0.62441 0.42008 0.33248 0.0
C1201 C 0.63522 0.42963 0.28373 0.0
C1202 C 0.6326 0.41455 0.2363 0.0
C1203 C 0.61825 0.39119 0.23671 0.0
H1204 H 0.48248 0.63349 0.28894 0.0
H1205 H 0.52214 0.70627 0.32853 0.0
H1206 H 0.52271 0.60914 0.3076 0.0
H1207 H 0.56275 0.68181 0.34586 0.0
H1208 H 0.63263 0.62682 0.38171 0.0
H1209 H 0.58884 0.64653 0.39629 0.0
H1210 H 0.56137 0.61001 0.24823 0.0
H1211 H 0.60432 0.5907 0.23406 0.0
C1212 C 0.4997 0.64426 0.30242 0.0
C1213 C 0.49934 0.67185 0.30595 0.0
C1214 C 0.52272 0.6303 0.3132 0.0
C1215 C 0.54602 0.64362 0.32706 0.0
C1216 C 0.54509 0.671 0.33535 0.0
C1217 C 0.52188 0.68501 0.32507 0.0
C1218 C 0.61695 0.62269 0.35314 0.0
C1219 C 0.62181 0.60742 0.30663 0.0
C1220 C 0.59204 0.63404 0.36126 0.0
C1221 C 0.57164 0.6297 0.32355 0.0
C1222 C 0.57644 0.61341 0.27856 0.0
C1223 C 0.60118 0.60252 0.27014 0.0
H1224 H 0.38752 0.62989 0.36017 0.0
H1225 H 0.38967 0.61986 0.1858 0.0
H1226 H 0.36469 0.58744 0.36872 0.0
H1227 H 0.36737 0.57785 0.19466 0.0
H1228 H 0.3591 0.49137 0.23478 0.0
H1229 H 0.38156 0.53367 0.23689 0.0
H1230 H 0.31966 0.56586 0.33685 0.0
H1231 H 0.29681 0.52348 0.33468 0.0
C1232 C 0.38303 0.61877 0.32379 0.0
C1233 C 0.39054 0.62822 0.27236 0.0
C1234 C 0.36997 0.59456 0.32871 0.0
C1235 C 0.36464 0.5793 0.28238 0.0
C1236 C 0.37163 0.58905 0.23109 0.0
C1237 C 0.38427 0.61324 0.22609 0.0
C1238 C 0.35031 0.5073 0.25775 0.0
C1239 C 0.32598 0.50404 0.2841 0.0
C1240 C 0.36317 0.53155 0.25875 0.0
C1241 C 0.35218 0.55303 0.28659 0.0
C1242 C 0.32854 0.54956 0.31518 0.0
C1243 C 0.31545 0.52532 0.31367 0.0
H1244 H 0.35536 0.36405 0.32643 0.0
H1245 H 0.38839 0.43688 0.38605 0.0
H1246 H 0.39756 0.34241 0.33858 0.0
H1247 H 0.43088 0.41504 0.3987 0.0
H1248 H 0.50184 0.37926 0.2977 0.0
H1249 H 0.46118 0.40045 0.32567 0.0
H1250 H 0.4342 0.32742 0.39612 0.0
H1251 H 0.47485 0.30596 0.36763 0.0
C1252 C 0.37145 0.37521 0.34389 0.0
C1253 C 0.36869 0.40224 0.35452 0.0
C1254 C 0.39566 0.36276 0.35114 0.0
C1255 C 0.41768 0.37712 0.36886 0.0
C1256 C 0.41431 0.40358 0.38428 0.0
C1257 C 0.38994 0.41602 0.37747 0.0
C1258 C 0.48752 0.36778 0.32009 0.0
C1259 C 0.49145 0.34075 0.3294 0.0
C1260 C 0.46426 0.38003 0.33662 0.0
C1261 C 0.44437 0.36556 0.36278 0.0
C1262 C 0.44905 0.339 0.37549 0.0
C1263 C 0.47237 0.32673 0.3591 0.0
H1264 H 0.09343 0.30529 0.18165 0.0
H1265 H 0.11914 0.28284 0.34248 0.0
H1266 H 0.12588 0.34078 0.1809 0.0
H1267 H 0.15147 0.31839 0.34158 0.0
H1268 H 0.19008 0.40079 0.33591 0.0
H1269 H 0.1541 0.36869 0.33872 0.0
H1270 H 0.17582 0.34103 0.17908 0.0
H1271 H 0.21167 0.37281 0.17618 0.0
C1272 C 0.10582 0.30807 0.21701 0.0
C1273 C 0.1038 0.2912 0.26205 0.0
C1274 C 0.12444 0.32831 0.21646 0.0
C1275 C 0.14118 0.33227 0.26116 0.0
C1276 C 0.13864 0.31591 0.3068 0.0
C1277 C 0.12024 0.29547 0.30712 0.0
C1278 C 0.18705 0.38794 0.30135 0.0
C1279 C 0.20371 0.3893 0.25587 0.0
C1280 C 0.16656 0.36954 0.30306 0.0
C1281 C 0.16217 0.35248 0.25903 0.0
C1282 C 0.17857 0.35416 0.2133 0.0
C1283 C 0.1992 0.37226 0.21185 0.0
H1284 H 0.69256 0.11228 0.17394 0.0
H1285 H 0.71662 0.14376 0.32933 0.0
H1286 H 0.65713 0.14481 0.16957 0.0
H1287 H 0.68167 0.17631 0.32448 0.0
H1288 H 0.59938 0.21063 0.32924 0.0
H1289 H 0.63399 0.17756 0.33004 0.0
H1290 H 0.64946 0.19252 0.16032 0.0
H1291 H 0.6144 0.22543 0.15917 0.0
C1292 C 0.69038 0.12618 0.20699 0.0
C1293 C 0.7073 0.12529 0.25214 0.0
C1294 C 0.67017 0.14489 0.20437 0.0
C1295 C 0.66645 0.16303 0.24688 0.0
C1296 C 0.68366 0.16232 0.29154 0.0
C1297 C 0.70381 0.1437 0.29415 0.0
C1298 C 0.61008 0.20686 0.29199 0.0
C1299 C 0.60415 0.22074 0.24417 0.0
C1300 C 0.63005 0.18798 0.29255 0.0
C1301 C 0.64462 0.18251 0.24533 0.0
C1302 C 0.63845 0.19611 0.19725 0.0
C1303 C 0.61845 0.21506 0.19668 0.0
H1304 H 0.77531 0.64858 0.17872 0.0
H1305 H 0.80325 0.61467 0.32908 0.0
H1306 H 0.81067 0.68076 0.18148 0.0
H1307 H 0.83904 0.64689 0.33135 0.0
H1308 H 0.88294 0.72696 0.34096 0.0
H1309 H 0.84715 0.69481 0.3421 0.0
H1310 H 0.85845 0.68088 0.17062 0.0
H1311 H 0.89383 0.71312 0.16917 0.0
C1312 C 0.78904 0.64793 0.21236 0.0
C1313 C 0.78655 0.62893 0.25352 0.0
C1314 C 0.8094 0.66634 0.21377 0.0
C1315 C 0.82779 0.66625 0.25638 0.0
C1316 C 0.82507 0.64756 0.29815 0.0
C1317 C 0.80466 0.62904 0.2967 0.0
C1318 C 0.87779 0.71701 0.30353 0.0
C1319 C 0.89119 0.72267 0.25494 0.0
C1320 C 0.85738 0.6985 0.30428 0.0
C1321 C 0.8499 0.68539 0.25641 0.0
C1322 C 0.86347 0.69093 0.20801 0.0
C1323 C 0.88386 0.70933 0.20727 0.0
H1324 H 0.29162 0.8938 0.32878 0.0
H1325 H 0.28703 0.88885 0.15417 0.0
H1326 H 0.32555 0.85995 0.32932 0.0
H1327 H 0.31925 0.85355 0.15439 0.0
H1328 H 0.39479 0.80777 0.16171 0.0
H1329 H 0.36236 0.84288 0.16296 0.0
H1330 H 0.33555 0.81641 0.32076 0.0
H1331 H 0.36962 0.78269 0.32078 0.0
C1332 C 0.29769 0.88516 0.29056 0.0
C1333 C 0.2869 0.89401 0.24145 0.0
C1334 C 0.31701 0.86553 0.29075 0.0
C1335 C 0.32542 0.85376 0.24187 0.0
C1336 C 0.31404 0.86246 0.19284 0.0
C1337 C 0.29533 0.8826 0.1926 0.0
C1338 C 0.38195 0.80959 0.19665 0.0
C1339 C 0.38468 0.79261 0.24115 0.0
C1340 C 0.36312 0.82961 0.1973 0.0
C1341 C 0.34595 0.83265 0.24184 0.0
C1342 C 0.34862 0.81527 0.28616 0.0
C1343 C 0.36802 0.79573 0.28611 0.0
H1344 H 0.21376 0.61352 0.82579 0.0
H1345 H 0.19614 0.59702 0.6574 0.0
H1346 H 0.1789 0.64646 0.82763 0.0
H1347 H 0.16115 0.63 0.6595 0.0
H1348 H 0.12863 0.71525 0.66989 0.0
H1349 H 0.16002 0.67908 0.66788 0.0
H1350 H 0.12972 0.65058 0.82082 0.0
H1351 H 0.09817 0.68696 0.82309 0.0
C1352 C 0.20233 0.61677 0.78927 0.0
C1353 C 0.20777 0.60271 0.74138 0.0
C1354 C 0.18225 0.63553 0.79048 0.0
C1355 C 0.16733 0.6408 0.74372 0.0
C1356 C 0.1725 0.62649 0.69603 0.0
C1357 C 0.19245 0.60755 0.69491 0.0
C1358 C 0.1285 0.70121 0.70299 0.0
C1359 C 0.11092 0.70399 0.74671 0.0
C1360 C 0.14639 0.68039 0.70162 0.0
C1361 C 0.14728 0.66199 0.74412 0.0
C1362 C 0.12956 0.6646 0.78767 0.0
C1363 C 0.11145 0.68534 0.78884 0.0
H1364 H 0.34662 0.22527 0.65209 0.0
H1365 H 0.39445 0.18916 0.7759 0.0
H1366 H 0.31552 0.18904 0.65745 0.0
H1367 H 0.36224 0.154 0.78574 0.0
H1368 H 0.31058 0.08246 0.76706 0.0
H1369 H 0.3435 0.11675 0.75511 0.0
H1370 H 0.28226 0.17061 0.7035 0.0
H1371 H 0.25014 0.13536 0.71065 0.0
C1372 C 0.3502 0.20961 0.68104 0.0
C1373 C 0.37283 0.20989 0.71356 0.0
C1374 C 0.33221 0.18889 0.68472 0.0
C1375 C 0.33588 0.16837 0.72257 0.0
C1376 C 0.35872 0.1689 0.75521 0.0
C1377 C 0.37719 0.18919 0.75005 0.0
C1378 C 0.30437 0.10166 0.75281 0.0
C1379 C 0.27795 0.10632 0.73948 0.0
C1380 C 0.32319 0.12152 0.7464 0.0
C1381 C 0.31588 0.14683 0.72829 0.0
C1382 C 0.28912 0.15138 0.71599 0.0
C1383 C 0.27051 0.13124 0.72059 0.0
H1384 H 0.90157 0.29536 0.68249 0.0
H1385 H 0.88869 0.28369 0.85399 0.0
H1386 H 0.86803 0.32959 0.68142 0.0
H1387 H 0.85377 0.31634 0.85264 0.0
H1388 H 0.80709 0.39102 0.84959 0.0
H1389 H 0.84342 0.35991 0.84885 0.0
H1390 H 0.82387 0.33844 0.68347 0.0
H1391 H 0.78886 0.37118 0.68344 0.0
C1392 C 0.8913 0.3 0.71986 0.0
C1393 C 0.89777 0.28704 0.76835 0.0
C1394 C 0.87187 0.31948 0.71927 0.0
C1395 C 0.85794 0.32594 0.76694 0.0
C1396 C 0.86438 0.31259 0.81532 0.0
C1397 C 0.88429 0.29365 0.81615 0.0
C1398 C 0.81078 0.37973 0.81302 0.0
C1399 C 0.79526 0.38346 0.76659 0.0
C1400 C 0.83147 0.36165 0.81264 0.0
C1401 C 0.83666 0.34624 0.76627 0.0
C1402 C 0.82099 0.35016 0.71969 0.0
C1403 C 0.80075 0.36881 0.71965 0.0
H1404 H 0.70892 0.88451 0.82821 0.0
H1405 H 0.72837 0.86487 0.66219 0.0
H1406 H 0.67714 0.84871 0.83045 0.0
H1407 H 0.69689 0.8286 0.66487 0.0
H1408 H 0.61622 0.78688 0.67197 0.0
H1409 H 0.64974 0.82118 0.66814 0.0
H1410 H 0.67449 0.80128 0.83092 0.0
H1411 H 0.64063 0.7674 0.83525 0.0
C1412 C 0.70655 0.87244 0.79227 0.0
C1413 C 0.72114 0.87762 0.74495 0.0
C1414 C 0.68842 0.85178 0.79368 0.0
C1415 C 0.68448 0.83572 0.74787 0.0
C1416 C 0.69921 0.84079 0.70064 0.0
C1417 C 0.71734 0.86151 0.69919 0.0
C1418 C 0.62889 0.78974 0.70686 0.0
C1419 C 0.62563 0.77452 0.75405 0.0
C1420 C 0.64821 0.80933 0.70454 0.0
C1421 C 0.66474 0.81408 0.74931 0.0
C1422 C 0.6618 0.79845 0.79606 0.0
C1423 C 0.64246 0.77892 0.79842 0.0
H1424 H 0.02645 0.26425 0.38038 0.0
H1425 H 0.03064 0.18017 0.4059 0.0
H1426 H 0.0144 0.27021 0.47626 0.0
H1427 H 0.01821 0.186 0.49971 0.0
H1428 H 0.96319 0.259 0.63778 0.0
H1429 H 0.97934 0.26134 0.54395 0.0
H1430 H 0.0377 0.20215 0.58136 0.0
H1431 H 0.02071 0.1991 0.67363 0.0
C1432 C 0.02455 0.24707 0.40615 0.0
C1433 C 0.0298 0.22176 0.38553 0.0
C1434 C 0.0177 0.25049 0.46102 0.0
C1435 C 0.01596 0.22864 0.49606 0.0
C1436 C 0.02024 0.20338 0.47456 0.0
C1437 C 0.02716 0.2 0.42035 0.0
C1438 C 0.98004 0.24722 0.62611 0.0
C1439 C 0.99083 0.22892 0.66259 0.0
C1440 C 0.98923 0.24845 0.5724 0.0
C1441 C 0.0094 0.23147 0.55476 0.0
C1442 C 0.02163 0.21496 0.5931 0.0
C1443 C 0.0122 0.21344 0.64616 0.0
H1444 H 0.78174 0.01527 0.64613 0.0
H1445 H 0.72521 0.95311 0.62114 0.0
H1446 H 0.76685 0.03695 0.56379 0.0
H1447 H 0.71019 0.9748 0.53719 0.0
H1448 H 0.74236 0.00023 0.35754 0.0
H1449 H 0.73485 0.98106 0.44748 0.0
H1450 H 0.73002 0.05913 0.51626 0.0
H1451 H 0.73821 0.07806 0.4268 0.0
C1452 C 0.76549 0.00673 0.62365 0.0
C1453 C 0.75444 0.98273 0.63986 0.0
C1454 C 0.75684 0.01917 0.57658 0.0
C1455 C 0.73721 0.00765 0.54405 0.0
C1456 C 0.72526 0.98415 0.56161 0.0
C1457 C 0.73367 0.97188 0.60964 0.0
C1458 C 0.73832 0.01318 0.39151 0.0
C1459 C 0.74095 0.04052 0.38571 0.0
C1460 C 0.73408 0.00226 0.44304 0.0
C1461 C 0.73239 0.01863 0.48906 0.0
C1462 C 0.73167 0.04605 0.48167 0.0
C1463 C 0.73616 0.05689 0.43049 0.0
H1464 H 0.02736 0.73184 0.63172 0.0
H1465 H 0.04918 0.8121 0.59412 0.0
H1466 H 0.01452 0.72518 0.53658 0.0
H1467 H 0.03604 0.80564 0.50105 0.0
H1468 H 0.03097 0.78887 0.33033 0.0
H1469 H 0.04985 0.78329 0.42058 0.0
H1470 H 0.98091 0.73964 0.47031 0.0
H1471 H 0.96274 0.74421 0.37867 0.0
C1472 C 0.02937 0.74803 0.60341 0.0
C1473 C 0.03948 0.77245 0.62069 0.0
C1474 C 0.02203 0.74421 0.54896 0.0
C1475 C 0.02475 0.7647 0.51087 0.0
C1476 C 0.03445 0.78912 0.52867 0.0
C1477 C 0.04176 0.79291 0.58254 0.0
C1478 C 0.02048 0.77707 0.35993 0.0
C1479 C 0.99559 0.76679 0.34774 0.0
C1480 C 0.03104 0.77418 0.41185 0.0
C1481 C 0.01655 0.76165 0.45315 0.0
C1482 C 0.99262 0.74934 0.4395 0.0
C1483 C 0.98226 0.75181 0.38697 0.0
H1484 H 0.193 0.983 0.63827 0.0
H1485 H 0.26206 0.03207 0.62485 0.0
H1486 H 0.19684 0.97114 0.543 0.0
H1487 H 0.26577 0.02031 0.52812 0.0
H1488 H 0.18329 0.991 0.36873 0.0
H1489 H 0.18824 0.00126 0.46421 0.0
H1490 H 0.2709 0.98208 0.45579 0.0
H1491 H 0.26598 0.9717 0.35859 0.0
C1492 C 0.20939 0.99079 0.61514 0.0
C1493 C 0.22711 0.00861 0.63887 0.0
C1494 C 0.21148 0.98415 0.56043 0.0
C1495 C 0.23121 0.99532 0.52777 0.0
C1496 C 0.25032 0.01148 0.55233 0.0
C1497 C 0.24828 0.01809 0.60765 0.0
C1498 C 0.20265 0.98915 0.38676 0.0
C1499 C 0.22417 0.98017 0.35604 0.0
C1500 C 0.20544 0.99491 0.44172 0.0
C1501 C 0.22981 0.99183 0.46784 0.0
C1502 C 0.25184 0.98445 0.43672 0.0
C1503 C 0.24903 0.97861 0.38114 0.0
H1504 H 0.49018 0.7373 0.85917 0.0
H1505 H 0.56936 0.75846 0.90414 0.0
H1506 H 0.47444 0.75126 0.94846 0.0
H1507 H 0.55381 0.77255 0.99367 0.0
H1508 H 0.51916 0.73109 0.15302 0.0
H1509 H 0.53808 0.74088 0.06434 0.0
H1510 H 0.46852 0.7853 0.0221 0.0
H1511 H 0.44981 0.77559 0.11166 0.0
C1512 C 0.50393 0.74622 0.88734 0.0
C1513 C 0.53081 0.74726 0.87494 0.0
C1514 C 0.495 0.7542 0.93848 0.0
C1515 C 0.51294 0.7629 0.97822 0.0
C1516 C 0.53957 0.76589 0.96394 0.0
C1517 C 0.54843 0.75808 0.91267 0.0
C1518 C 0.50863 0.74415 0.12582 0.0
C1519 C 0.48334 0.75301 0.13919 0.0
C1520 C 0.51936 0.74971 0.07493 0.0
C1521 C 0.50471 0.76377 0.03607 0.0
C1522 C 0.48023 0.77442 0.05121 0.0
C1523 C 0.46966 0.76915 0.10258 0.0
H1524 H 0.25336 0.48061 0.82141 0.0
H1525 H 0.26373 0.55448 0.90505 0.0
H1526 H 0.24498 0.45872 0.90876 0.0
H1527 H 0.2555 0.53294 0.99171 0.0
H1528 H 0.23307 0.49016 0.14272 0.0
H1529 H 0.2247 0.5079 0.05189 0.0
H1530 H 0.27762 0.4503 0.98328 0.0
H1531 H 0.28597 0.43268 0.07314 0.0
C1532 C 0.25308 0.49223 0.85832 0.0
C1533 C 0.25949 0.51907 0.85696 0.0
C1534 C 0.24845 0.47976 0.90819 0.0
C1535 C 0.24976 0.4941 0.95711 0.0
C1536 C 0.25413 0.52137 0.95486 0.0
C1537 C 0.2591 0.53367 0.90532 0.0
C1538 C 0.24248 0.48096 0.1081 0.0
C1539 C 0.26045 0.46021 0.11534 0.0
C1540 C 0.23771 0.49114 0.05615 0.0
C1541 C 0.25054 0.48051 0.01047 0.0
C1542 C 0.26717 0.45872 0.01747 0.0
C1543 C 0.27216 0.44878 0.06924 0.0
H1544 H 0.46904 0.29491 0.16417 0.0
H1545 H 0.53047 0.24041 0.12017 0.0
H1546 H 0.44829 0.28854 0.07587 0.0
H1547 H 0.51024 0.23461 0.0305 0.0
H1548 H 0.45415 0.31172 0.89733 0.0
H1549 H 0.46594 0.30632 0.99149 0.0
H1550 H 0.47228 0.22226 0.96878 0.0
H1551 H 0.46034 0.22763 0.87272 0.0
C1552 C 0.4775 0.28078 0.13617 0.0
C1553 C 0.50116 0.268 0.14881 0.0
C1554 C 0.46584 0.27735 0.0854 0.0
C1555 C 0.47797 0.26155 0.04572 0.0
C1556 C 0.50038 0.24684 0.06022 0.0
C1557 C 0.51189 0.25003 0.11159 0.0
C1558 C 0.45769 0.29195 0.91203 0.0
C1559 C 0.45603 0.27008 0.87716 0.0
C1560 C 0.46431 0.28885 0.96648 0.0
C1561 C 0.4696 0.2638 0.988 0.0
C1562 C 0.46817 0.2418 0.95339 0.0
C1563 C 0.46129 0.24489 0.89848 0.0
H1564 H 0.70302 0.49694 0.87626 0.0
H1565 H 0.77727 0.45622 0.88897 0.0
H1566 H 0.7144 0.52395 0.95441 0.0
H1567 H 0.78868 0.4832 0.96907 0.0
H1568 H 0.75813 0.50838 0.15453 0.0
H1569 H 0.76506 0.48594 0.06743 0.0
H1570 H 0.74927 0.55858 0.98264 0.0
H1571 H 0.74223 0.58083 0.0691 0.0
C1572 C 0.722 0.49413 0.89551 0.0
C1573 C 0.73935 0.47472 0.87683 0.0
C1574 C 0.7286 0.50965 0.94 0.0
C1575 C 0.75253 0.50579 0.96746 0.0
C1576 C 0.77021 0.48661 0.94828 0.0
C1577 C 0.76378 0.47136 0.90259 0.0
C1578 C 0.75737 0.51975 0.11734 0.0
C1579 C 0.74922 0.54616 0.11824 0.0
C1580 C 0.76131 0.50693 0.06755 0.0
C1581 C 0.75721 0.52049 0.01847 0.0
C1582 C 0.75222 0.54765 0.01993 0.0
C1583 C 0.7482 0.56035 0.06936 0.0
loop_
_geom_bond_atom_site_label_1
_geom_bond_atom_site_label_2
_geom_bond_distance
_geom_bond_site_symmetry_2
_ccdc_geom_bond_type
Co0 O2 2.143 . S
Co0 O8 2.074 . S
Co0 O11 2.093 . S
Co0 O24 2.097 . S
Co0 N41 2.151 . S
Co0 N49 2.214 . S
Co1 O2 2.160 . S
Co1 O7 2.058 . S
Co1 O17 2.057 . S
Co1 O32 2.037 . S
Co1 N36 2.145 . S
Co1 N57 2.257 . S
O2 Co0 2.143 . S
O2 Co1 2.160 . S
C3 O4 1.278 . S
C3 O11 1.224 . S
O4 C3 1.278 . S
C5 O6 1.245 . S
C5 O17 1.232 . S
O6 C5 1.245 . S
O7 Co1 2.058 . S
O7 C33 1.269 . S
O8 Co0 2.074 . S
O8 C33 1.257 . S
H9 C34 0.930 . S
H10 C40 0.930 . S
O11 Co0 2.093 . S
O11 C3 1.224 . S
H12 C44 0.929 . S
H13 C46 0.930 . S
H14 C47 0.941 . S
H15 C45 0.929 . S
H16 C48 0.928 . S
O17 Co1 2.057 . S
O17 C5 1.232 . S
H18 C37 0.929 . S
H19 C38 0.929 . S
H20 C50 0.931 . S
H21 C42 0.929 . S
H22 C51 0.931 1_655 S
H23 C43 0.931 . S
O24 Co0 2.097 . S
O24 C52 1.214 . S
H25 C53 0.929 . S
H26 C54 0.929 . S
H27 C55 0.930 1_556 S
H28 C56 0.929 . S
H29 C58 0.930 . S
H30 C35 0.930 . S
H31 C39 0.930 . S
O32 Co1 2.037 . S
O32 C52 1.234 . S
C33 O7 1.269 . S
C33 O8 1.257 . S
C34 H9 0.930 . S
C34 C37 1.388 . S
C34 C39 1.418 . S
C35 H30 0.930 . S
C35 C38 1.404 . S
C35 C39 1.353 1_455 S
N36 Co1 2.145 . S
N36 C37 1.397 1_455 S
N36 C38 1.334 . S
C37 H18 0.929 . S
C37 C34 1.388 . S
C37 N36 1.397 1_655 S
C38 H19 0.929 . S
C38 C35 1.404 . S
C38 N36 1.334 . S
C39 H31 0.930 . S
C39 C34 1.418 . S
C39 C35 1.353 1_655 S
C40 H10 0.930 . S
C40 N41 1.330 . S
C40 C42 1.446 . S
N41 Co0 2.151 . S
N41 C40 1.330 . S
N41 C45 1.418 . S
C42 H21 0.929 . S
C42 C40 1.446 . S
C42 C43 1.332 . S
C43 H23 0.931 . S
C43 C42 1.332 . S
C43 C44 1.267 . S
C44 H12 0.929 . S
C44 C43 1.267 . S
C44 C45 1.251 . S
C45 H15 0.929 . S
C45 N41 1.418 . S
C45 C44 1.251 . S
C46 H13 0.930 . S
C46 C48 1.406 . S
C46 C51 1.261 . S
C47 H14 0.941 . S
C47 N49 1.325 . S
C47 C50 1.357 1_455 S
C48 H16 0.928 . S
C48 C46 1.406 . S
C48 N49 1.261 . S
N49 Co0 2.214 . S
N49 C47 1.325 . S
N49 C48 1.261 . S
C50 H20 0.931 . S
C50 C47 1.357 1_655 S
C50 C51 1.312 1_655 S
C51 H22 0.931 1_455 S
C51 C46 1.261 . S
C51 C50 1.312 1_455 S
C52 O24 1.214 . S
C52 O32 1.234 . S
C53 H25 0.929 . S
C53 C56 1.391 1_554 S
C53 C58 1.391 . S
C54 H26 0.929 . S
C54 C55 1.390 . S
C54 N57 1.391 . S
C55 H27 0.930 1_554 S
C55 C54 1.390 . S
C55 C56 1.392 1_554 S
C56 H28 0.929 . S
C56 C53 1.391 1_556 S
C56 C55 1.392 1_556 S
N57 Co1 2.257 . S
N57 C54 1.391 . S
N57 C58 1.388 . S
C58 H29 0.930 . S
C58 C53 1.391 . S
C58 N57 1.388 . S
Co59 O61 2.143 . S
Co59 O67 2.074 . S
Co59 O70 2.093 . S
Co59 O83 2.097 . S
Co59 N100 2.151 . S
Co59 N108 2.214 . S
Co60 O61 2.160 . S
Co60 O66 2.058 . S
Co60 O76 2.057 . S
Co60 O91 2.037 . S
Co60 N95 2.145 . S
Co60 N116 2.257 . S
O61 Co59 2.143 . S
O61 Co60 2.160 . S
C62 O63 1.278 . S
C62 O70 1.224 . S
O63 C62 1.278 . S
C64 O65 1.245 . S
C64 O76 1.232 . S
O65 C64 1.245 . S
O66 Co60 2.058 . S
O66 C92 1.269 . S
O67 Co59 2.074 . S
O67 C92 1.257 . S
H68 C93 0.930 . S
H69 C99 0.930 . S
O70 Co59 2.093 . S
O70 C62 1.224 . S
H71 C103 0.929 . S
H72 C105 0.930 . S
H73 C106 0.941 . S
H74 C104 0.929 . S
H75 C107 0.928 . S
O76 Co60 2.057 . S
O76 C64 1.232 . S
H77 C96 0.929 . S
H78 C97 0.929 . S
H79 C109 0.931 . S
H80 C101 0.929 . S
H81 C110 0.931 1_565 S
H82 C102 0.931 . S
O83 Co59 2.097 . S
O83 C111 1.214 . S
H84 C112 0.929 . S
H85 C113 0.929 . S
H86 C114 0.930 1_556 S
H87 C115 0.929 . S
H88 C117 0.930 . S
H89 C94 0.930 . S
H90 C98 0.930 . S
O91 Co60 2.037 . S
O91 C111 1.234 . S
C92 O66 1.269 . S
C92 O67 1.257 . S
C93 H68 0.930 . S
C93 C96 1.388 . S
C93 C98 1.418 . S
C94 H89 0.930 . S
C94 C97 1.404 . S
C94 C98 1.353 1_545 S
N95 Co60 2.145 . S
N95 C96 1.397 1_545 S
N95 C97 1.334 . S
C96 H77 0.929 . S
C96 C93 1.388 . S
C96 N95 1.397 1_565 S
C97 H78 0.929 . S
C97 C94 1.404 . S
C97 N95 1.334 . S
C98 H90 0.930 . S
C98 C93 1.418 . S
C98 C94 1.353 1_565 S
C99 H69 0.930 . S
C99 N100 1.330 . S
C99 C101 1.446 . S
N100 Co59 2.151 . S
N100 C99 1.330 . S
N100 C104 1.418 . S
C101 H80 0.929 . S
C101 C99 1.446 . S
C101 C102 1.332 . S
C102 H82 0.931 . S
C102 C101 1.332 . S
C102 C103 1.267 . S
C103 H71 0.929 . S
C103 C102 1.267 . S
C103 C104 1.251 . S
C104 H74 0.929 . S
C104 N100 1.418 . S
C104 C103 1.251 . S
C105 H72 0.930 . S
C105 C107 1.406 . S
C105 C110 1.261 . S
C106 H73 0.941 . S
C106 N108 1.325 . S
C106 C109 1.357 1_545 S
C107 H75 0.928 . S
C107 C105 1.406 . S
C107 N108 1.261 . S
N108 Co59 2.214 . S
N108 C106 1.325 . S
N108 C107 1.261 . S
C109 H79 0.931 . S
C109 C106 1.357 1_565 S
C109 C110 1.312 1_565 S
C110 H81 0.931 1_545 S
C110 C105 1.261 . S
C110 C109 1.312 1_545 S
C111 O83 1.214 . S
C111 O91 1.234 . S
C112 H84 0.929 . S
C112 C115 1.391 1_554 S
C112 C117 1.391 . S
C113 H85 0.929 . S
C113 C114 1.390 . S
C113 N116 1.391 . S
C114 H86 0.930 1_554 S
C114 C113 1.390 . S
C114 C115 1.392 1_554 S
C115 H87 0.929 . S
C115 C112 1.391 1_556 S
C115 C114 1.392 1_556 S
N116 Co60 2.257 . S
N116 C113 1.391 . S
N116 C117 1.388 . S
C117 H88 0.930 . S
C117 C112 1.391 . S
C117 N116 1.388 . S
Co118 O120 2.143 . S
Co118 O126 2.074 . S
Co118 O129 2.093 . S
Co118 O142 2.097 . S
Co118 N159 2.151 . S
Co118 N167 2.214 . S
Co119 O120 2.160 . S
Co119 O125 2.058 . S
Co119 O135 2.057 . S
Co119 O150 2.037 . S
Co119 N154 2.145 . S
Co119 N175 2.257 . S
O120 Co118 2.143 . S
O120 Co119 2.160 . S
C121 O122 1.278 . S
C121 O129 1.224 . S
O122 C121 1.278 . S
C123 O124 1.245 . S
C123 O135 1.232 . S
O124 C123 1.245 . S
O125 Co119 2.058 . S
O125 C151 1.269 . S
O126 Co118 2.074 . S
O126 C151 1.257 . S
H127 C152 0.930 . S
H128 C158 0.930 . S
O129 Co118 2.093 . S
O129 C121 1.224 . S
H130 C162 0.929 . S
H131 C164 0.930 . S
H132 C165 0.941 . S
H133 C163 0.929 . S
H134 C166 0.928 . S
O135 Co119 2.057 . S
O135 C123 1.232 . S
H136 C155 0.929 . S
H137 C156 0.929 . S
H138 C168 0.931 . S
H139 C160 0.929 . S
H140 C169 0.931 1_455 S
H141 C161 0.931 . S
O142 Co118 2.097 . S
O142 C170 1.214 . S
H143 C171 0.929 . S
H144 C172 0.929 . S
H145 C173 0.930 1_556 S
H146 C174 0.929 . S
H147 C176 0.930 . S
H148 C153 0.930 . S
H149 C157 0.930 . S
O150 Co119 2.037 . S
O150 C170 1.234 . S
C151 O125 1.269 . S
C151 O126 1.257 . S
C152 H127 0.930 . S
C152 C155 1.388 . S
C152 C157 1.418 . S
C153 H148 0.930 . S
C153 C156 1.404 . S
C153 C157 1.353 1_655 S
N154 Co119 2.145 . S
N154 C155 1.397 1_655 S
N154 C156 1.334 . S
C155 H136 0.929 . S
C155 C152 1.388 . S
C155 N154 1.397 1_455 S
C156 H137 0.929 . S
C156 C153 1.404 . S
C156 N154 1.334 . S
C157 H149 0.930 . S
C157 C152 1.418 . S
C157 C153 1.353 1_455 S
C158 H128 0.930 . S
C158 N159 1.330 . S
C158 C160 1.446 . S
N159 Co118 2.151 . S
N159 C158 1.330 . S
N159 C163 1.418 . S
C160 H139 0.929 . S
C160 C158 1.446 . S
C160 C161 1.332 . S
C161 H141 0.931 . S
C161 C160 1.332 . S
C161 C162 1.267 . S
C162 H130 0.929 . S
C162 C161 1.267 . S
C162 C163 1.251 . S
C163 H133 0.929 . S
C163 N159 1.418 . S
C163 C162 1.251 . S
C164 H131 0.930 . S
C164 C166 1.406 . S
C164 C169 1.261 . S
C165 H132 0.941 . S
C165 N167 1.325 . S
C165 C168 1.357 1_655 S
C166 H134 0.928 . S
C166 C164 1.406 . S
C166 N167 1.261 . S
N167 Co118 2.214 . S
N167 C165 1.325 . S
N167 C166 1.261 . S
C168 H138 0.931 . S
C168 C165 1.357 1_455 S
C168 C169 1.312 1_455 S
C169 H140 0.931 1_655 S
C169 C164 1.261 . S
C169 C168 1.312 1_655 S
C170 O142 1.214 . S
C170 O150 1.234 . S
C171 H143 0.929 . S
C171 C174 1.391 1_554 S
C171 C176 1.391 . S
C172 H144 0.929 . S
C172 C173 1.390 . S
C172 N175 1.391 . S
C173 H145 0.930 1_554 S
C173 C172 1.390 . S
C173 C174 1.392 1_554 S
C174 H146 0.929 . S
C174 C171 1.391 1_556 S
C174 C173 1.392 1_556 S
N175 Co119 2.257 . S
N175 C172 1.391 . S
N175 C176 1.388 . S
C176 H147 0.930 . S
C176 C171 1.391 . S
C176 N175 1.388 . S
Co177 O179 2.143 . S
Co177 O185 2.074 . S
Co177 O188 2.093 . S
Co177 O201 2.097 . S
Co177 N218 2.151 . S
Co177 N226 2.214 . S
Co178 O179 2.160 . S
Co178 O184 2.058 . S
Co178 O194 2.057 . S
Co178 O209 2.037 . S
Co178 N213 2.145 . S
Co178 N234 2.257 . S
O179 Co177 2.143 . S
O179 Co178 2.160 . S
C180 O181 1.278 . S
C180 O188 1.224 . S
O181 C180 1.278 . S
C182 O183 1.245 . S
C182 O194 1.232 . S
O183 C182 1.245 . S
O184 Co178 2.058 . S
O184 C210 1.269 . S
O185 Co177 2.074 . S
O185 C210 1.257 . S
H186 C211 0.930 . S
H187 C217 0.930 . S
O188 Co177 2.093 . S
O188 C180 1.224 . S
H189 C221 0.929 . S
H190 C223 0.930 . S
H191 C224 0.941 . S
H192 C222 0.929 . S
H193 C225 0.928 . S
O194 Co178 2.057 . S
O194 C182 1.232 . S
H195 C214 0.929 . S
H196 C215 0.929 . S
H197 C227 0.931 . S
H198 C219 0.929 . S
H199 C228 0.931 1_545 S
H200 C220 0.931 . S
O201 Co177 2.097 . S
O201 C229 1.214 . S
H202 C230 0.929 . S
H203 C231 0.929 . S
H204 C232 0.930 1_556 S
H205 C233 0.929 . S
H206 C235 0.930 . S
H207 C212 0.930 . S
H208 C216 0.930 . S
O209 Co178 2.037 . S
O209 C229 1.234 . S
C210 O184 1.269 . S
C210 O185 1.257 . S
C211 H186 0.930 . S
C211 C214 1.388 . S
C211 C216 1.418 . S
C212 H207 0.930 . S
C212 C215 1.404 . S
C212 C216 1.353 1_565 S
N213 Co178 2.145 . S
N213 C214 1.397 1_565 S
N213 C215 1.334 . S
C214 H195 0.929 . S
C214 C211 1.388 . S
C214 N213 1.397 1_545 S
C215 H196 0.929 . S
C215 C212 1.404 . S
C215 N213 1.334 . S
C216 H208 0.930 . S
C216 C211 1.418 . S
C216 C212 1.353 1_545 S
C217 H187 0.930 . S
C217 N218 1.330 . S
C217 C219 1.446 . S
N218 Co177 2.151 . S
N218 C217 1.330 . S
N218 C222 1.418 . S
C219 H198 0.929 . S
C219 C217 1.446 . S
C219 C220 1.332 . S
C220 H200 0.931 . S
C220 C219 1.332 . S
C220 C221 1.267 . S
C221 H189 0.929 . S
C221 C220 1.267 . S
C221 C222 1.251 . S
C222 H192 0.929 . S
C222 N218 1.418 . S
C222 C221 1.251 . S
C223 H190 0.930 . S
C223 C225 1.406 . S
C223 C228 1.261 . S
C224 H191 0.941 . S
C224 N226 1.325 . S
C224 C227 1.357 1_565 S
C225 H193 0.928 . S
C225 C223 1.406 . S
C225 N226 1.261 . S
N226 Co177 2.214 . S
N226 C224 1.325 . S
N226 C225 1.261 . S
C227 H197 0.931 . S
C227 C224 1.357 1_545 S
C227 C228 1.312 1_545 S
C228 H199 0.931 1_565 S
C228 C223 1.261 . S
C228 C227 1.312 1_565 S
C229 O201 1.214 . S
C229 O209 1.234 . S
C230 H202 0.929 . S
C230 C233 1.391 1_554 S
C230 C235 1.391 . S
C231 H203 0.929 . S
C231 C232 1.390 . S
C231 N234 1.391 . S
C232 H204 0.930 1_554 S
C232 C231 1.390 . S
C232 C233 1.392 1_554 S
C233 H205 0.929 . S
C233 C230 1.391 1_556 S
C233 C232 1.392 1_556 S
N234 Co178 2.257 . S
N234 C231 1.391 . S
N234 C235 1.388 . S
C235 H206 0.930 . S
C235 C230 1.391 . S
C235 N234 1.388 . S
Co236 O238 2.143 . S
Co236 O244 2.074 . S
Co236 O247 2.093 . S
Co236 O260 2.097 . S
Co236 N277 2.151 . S
Co236 N285 2.214 . S
Co237 O238 2.160 . S
Co237 O243 2.058 . S
Co237 O253 2.057 . S
Co237 O268 2.037 . S
Co237 N272 2.145 . S
Co237 N293 2.257 . S
O238 Co236 2.143 . S
O238 Co237 2.160 . S
C239 O240 1.278 . S
C239 O247 1.224 . S
O240 C239 1.278 . S
C241 O242 1.245 . S
C241 O253 1.232 . S
O242 C241 1.245 . S
O243 Co237 2.058 . S
O243 C269 1.269 . S
O244 Co236 2.074 . S
O244 C269 1.257 . S
H245 C270 0.930 . S
H246 C276 0.930 . S
O247 Co236 2.093 . S
O247 C239 1.224 . S
H248 C280 0.929 . S
H249 C282 0.930 . S
H250 C283 0.941 . S
H251 C281 0.929 . S
H252 C284 0.928 . S
O253 Co237 2.057 . S
O253 C241 1.232 . S
H254 C273 0.929 . S
H255 C274 0.929 . S
H256 C286 0.931 . S
H257 C278 0.929 . S
H258 C287 0.931 1_655 S
H259 C279 0.931 . S
O260 Co236 2.097 . S
O260 C288 1.214 . S
H261 C289 0.929 . S
H262 C290 0.929 . S
H263 C291 0.930 1_554 S
H264 C292 0.929 . S
H265 C294 0.930 . S
H266 C271 0.930 . S
H267 C275 0.930 . S
O268 Co237 2.037 . S
O268 C288 1.234 . S
C269 O243 1.269 . S
C269 O244 1.257 . S
C270 H245 0.930 . S
C270 C273 1.388 . S
C270 C275 1.418 . S
C271 H266 0.930 . S
C271 C274 1.404 . S
C271 C275 1.353 1_455 S
N272 Co237 2.145 . S
N272 C273 1.397 1_455 S
N272 C274 1.334 . S
C273 H254 0.929 . S
C273 C270 1.388 . S
C273 N272 1.397 1_655 S
C274 H255 0.929 . S
C274 C271 1.404 . S
C274 N272 1.334 . S
C275 H267 0.930 . S
C275 C270 1.418 . S
C275 C271 1.353 1_655 S
C276 H246 0.930 . S
C276 N277 1.330 . S
C276 C278 1.446 . S
N277 Co236 2.151 . S
N277 C276 1.330 . S
N277 C281 1.418 . S
C278 H257 0.929 . S
C278 C276 1.446 . S
C278 C279 1.332 . S
C279 H259 0.931 . S
C279 C278 1.332 . S
C279 C280 1.267 . S
C280 H248 0.929 . S
C280 C279 1.267 . S
C280 C281 1.251 . S
C281 H251 0.929 . S
C281 N277 1.418 . S
C281 C280 1.251 . S
C282 H249 0.930 . S
C282 C284 1.406 . S
C282 C287 1.261 . S
C283 H250 0.941 . S
C283 N285 1.325 . S
C283 C286 1.357 1_455 S
C284 H252 0.928 . S
C284 C282 1.406 . S
C284 N285 1.261 . S
N285 Co236 2.214 . S
N285 C283 1.325 . S
N285 C284 1.261 . S
C286 H256 0.931 . S
C286 C283 1.357 1_655 S
C286 C287 1.312 1_655 S
C287 H258 0.931 1_455 S
C287 C282 1.261 . S
C287 C286 1.312 1_455 S
C288 O260 1.214 . S
C288 O268 1.234 . S
C289 H261 0.929 . S
C289 C292 1.391 1_556 S
C289 C294 1.391 . S
C290 H262 0.929 . S
C290 C291 1.390 . S
C290 N293 1.391 . S
C291 H263 0.930 1_556 S
C291 C290 1.390 . S
C291 C292 1.392 1_556 S
C292 H264 0.929 . S
C292 C289 1.391 1_554 S
C292 C291 1.392 1_554 S
N293 Co237 2.257 . S
N293 C290 1.391 . S
N293 C294 1.388 . S
C294 H265 0.930 . S
C294 C289 1.391 . S
C294 N293 1.388 . S
Co295 O297 2.143 . S
Co295 O303 2.074 . S
Co295 O306 2.093 . S
Co295 O319 2.097 . S
Co295 N336 2.151 . S
Co295 N344 2.214 . S
Co296 O297 2.160 . S
Co296 O302 2.058 . S
Co296 O312 2.057 . S
Co296 O327 2.037 . S
Co296 N331 2.145 . S
Co296 N352 2.257 . S
O297 Co295 2.143 . S
O297 Co296 2.160 . S
C298 O299 1.278 . S
C298 O306 1.224 . S
O299 C298 1.278 . S
C300 O301 1.245 . S
C300 O312 1.232 . S
O301 C300 1.245 . S
O302 Co296 2.058 . S
O302 C328 1.269 . S
O303 Co295 2.074 . S
O303 C328 1.257 . S
H304 C329 0.930 . S
H305 C335 0.930 . S
O306 Co295 2.093 . S
O306 C298 1.224 . S
H307 C339 0.929 . S
H308 C341 0.930 . S
H309 C342 0.941 . S
H310 C340 0.929 . S
H311 C343 0.928 . S
O312 Co296 2.057 . S
O312 C300 1.232 . S
H313 C332 0.929 . S
H314 C333 0.929 . S
H315 C345 0.931 . S
H316 C337 0.929 . S
H317 C346 0.931 1_565 S
H318 C338 0.931 . S
O319 Co295 2.097 . S
O319 C347 1.214 . S
H320 C348 0.929 . S
H321 C349 0.929 . S
H322 C350 0.930 1_554 S
H323 C351 0.929 . S
H324 C353 0.930 . S
H325 C330 0.930 . S
H326 C334 0.930 . S
O327 Co296 2.037 . S
O327 C347 1.234 . S
C328 O302 1.269 . S
C328 O303 1.257 . S
C329 H304 0.930 . S
C329 C332 1.388 . S
C329 C334 1.418 . S
C330 H325 0.930 . S
C330 C333 1.404 . S
C330 C334 1.353 1_545 S
N331 Co296 2.145 . S
N331 C332 1.397 1_545 S
N331 C333 1.334 . S
C332 H313 0.929 . S
C332 C329 1.388 . S
C332 N331 1.397 1_565 S
C333 H314 0.929 . S
C333 C330 1.404 . S
C333 N331 1.334 . S
C334 H326 0.930 . S
C334 C329 1.418 . S
C334 C330 1.353 1_565 S
C335 H305 0.930 . S
C335 N336 1.330 . S
C335 C337 1.446 . S
N336 Co295 2.151 . S
N336 C335 1.330 . S
N336 C340 1.418 . S
C337 H316 0.929 . S
C337 C335 1.446 . S
C337 C338 1.332 . S
C338 H318 0.931 . S
C338 C337 1.332 . S
C338 C339 1.267 . S
C339 H307 0.929 . S
C339 C338 1.267 . S
C339 C340 1.251 . S
C340 H310 0.929 . S
C340 N336 1.418 . S
C340 C339 1.251 . S
C341 H308 0.930 . S
C341 C343 1.406 . S
C341 C346 1.261 . S
C342 H309 0.941 . S
C342 N344 1.325 . S
C342 C345 1.357 1_545 S
C343 H311 0.928 . S
C343 C341 1.406 . S
C343 N344 1.261 . S
N344 Co295 2.214 . S
N344 C342 1.325 . S
N344 C343 1.261 . S
C345 H315 0.931 . S
C345 C342 1.357 1_565 S
C345 C346 1.312 1_565 S
C346 H317 0.931 1_545 S
C346 C341 1.261 . S
C346 C345 1.312 1_545 S
C347 O319 1.214 . S
C347 O327 1.234 . S
C348 H320 0.929 . S
C348 C351 1.391 1_556 S
C348 C353 1.391 . S
C349 H321 0.929 . S
C349 C350 1.390 . S
C349 N352 1.391 . S
C350 H322 0.930 1_556 S
C350 C349 1.390 . S
C350 C351 1.392 1_556 S
C351 H323 0.929 . S
C351 C348 1.391 1_554 S
C351 C350 1.392 1_554 S
N352 Co296 2.257 . S
N352 C349 1.391 . S
N352 C353 1.388 . S
C353 H324 0.930 . S
C353 C348 1.391 . S
C353 N352 1.388 . S
Co354 O356 2.143 . S
Co354 O362 2.074 . S
Co354 O365 2.093 . S
Co354 O378 2.097 . S
Co354 N395 2.151 . S
Co354 N403 2.214 . S
Co355 O356 2.160 . S
Co355 O361 2.058 . S
Co355 O371 2.057 . S
Co355 O386 2.037 . S
Co355 N390 2.145 . S
Co355 N411 2.257 . S
O356 Co354 2.143 . S
O356 Co355 2.160 . S
C357 O358 1.278 . S
C357 O365 1.224 . S
O358 C357 1.278 . S
C359 O360 1.245 . S
C359 O371 1.232 . S
O360 C359 1.245 . S
O361 Co355 2.058 . S
O361 C387 1.269 . S
O362 Co354 2.074 . S
O362 C387 1.257 . S
H363 C388 0.930 . S
H364 C394 0.930 . S
O365 Co354 2.093 . S
O365 C357 1.224 . S
H366 C398 0.929 . S
H367 C400 0.930 . S
H368 C401 0.941 . S
H369 C399 0.929 . S
H370 C402 0.928 . S
O371 Co355 2.057 . S
O371 C359 1.232 . S
H372 C391 0.929 . S
H373 C392 0.929 . S
H374 C404 0.931 . S
H375 C396 0.929 . S
H376 C405 0.931 1_455 S
H377 C397 0.931 . S
O378 Co354 2.097 . S
O378 C406 1.214 . S
H379 C407 0.929 . S
H380 C408 0.929 . S
H381 C409 0.930 1_554 S
H382 C410 0.929 . S
H383 C412 0.930 . S
H384 C389 0.930 . S
H385 C393 0.930 . S
O386 Co355 2.037 . S
O386 C406 1.234 . S
C387 O361 1.269 . S
C387 O362 1.257 . S
C388 H363 0.930 . S
C388 C391 1.388 . S
C388 C393 1.418 . S
C389 H384 0.930 . S
C389 C392 1.404 . S
C389 C393 1.353 1_655 S
N390 Co355 2.145 . S
N390 C391 1.397 1_655 S
N390 C392 1.334 . S
C391 H372 0.929 . S
C391 C388 1.388 . S
C391 N390 1.397 1_455 S
C392 H373 0.929 . S
C392 C389 1.404 . S
C392 N390 1.334 . S
C393 H385 0.930 . S
C393 C388 1.418 . S
C393 C389 1.353 1_455 S
C394 H364 0.930 . S
C394 N395 1.330 . S
C394 C396 1.446 . S
N395 Co354 2.151 . S
N395 C394 1.330 . S
N395 C399 1.418 . S
C396 H375 0.929 . S
C396 C394 1.446 . S
C396 C397 1.332 . S
C397 H377 0.931 . S
C397 C396 1.332 . S
C397 C398 1.267 . S
C398 H366 0.929 . S
C398 C397 1.267 . S
C398 C399 1.251 . S
C399 H369 0.929 . S
C399 N395 1.418 . S
C399 C398 1.251 . S
C400 H367 0.930 . S
C400 C402 1.406 . S
C400 C405 1.261 . S
C401 H368 0.941 . S
C401 N403 1.325 . S
C401 C404 1.357 1_655 S
C402 H370 0.928 . S
C402 C400 1.406 . S
C402 N403 1.261 . S
N403 Co354 2.214 . S
N403 C401 1.325 . S
N403 C402 1.261 . S
C404 H374 0.931 . S
C404 C401 1.357 1_455 S
C404 C405 1.312 1_455 S
C405 H376 0.931 1_655 S
C405 C400 1.261 . S
C405 C404 1.312 1_655 S
C406 O378 1.214 . S
C406 O386 1.234 . S
C407 H379 0.929 . S
C407 C410 1.391 1_556 S
C407 C412 1.391 . S
C408 H380 0.929 . S
C408 C409 1.390 . S
C408 N411 1.391 . S
C409 H381 0.930 1_556 S
C409 C408 1.390 . S
C409 C410 1.392 1_556 S
C410 H382 0.929 . S
C410 C407 1.391 1_554 S
C410 C409 1.392 1_554 S
N411 Co355 2.257 . S
N411 C408 1.391 . S
N411 C412 1.388 . S
C412 H383 0.930 . S
C412 C407 1.391 . S
C412 N411 1.388 . S
Co413 O415 2.143 . S
Co413 O421 2.074 . S
Co413 O424 2.093 . S
Co413 O437 2.097 . S
Co413 N454 2.151 . S
Co413 N462 2.214 . S
Co414 O415 2.160 . S
Co414 O420 2.058 . S
Co414 O430 2.057 . S
Co414 O445 2.037 . S
Co414 N449 2.145 . S
Co414 N470 2.257 . S
O415 Co413 2.143 . S
O415 Co414 2.160 . S
C416 O417 1.278 . S
C416 O424 1.224 . S
O417 C416 1.278 . S
C418 O419 1.245 . S
C418 O430 1.232 . S
O419 C418 1.245 . S
O420 Co414 2.058 . S
O420 C446 1.269 . S
O421 Co413 2.074 . S
O421 C446 1.257 . S
H422 C447 0.930 . S
H423 C453 0.930 . S
O424 Co413 2.093 . S
O424 C416 1.224 . S
H425 C457 0.929 . S
H426 C459 0.930 . S
H427 C460 0.941 . S
H428 C458 0.929 . S
H429 C461 0.928 . S
O430 Co414 2.057 . S
O430 C418 1.232 . S
H431 C450 0.929 . S
H432 C451 0.929 . S
H433 C463 0.931 . S
H434 C455 0.929 . S
H435 C464 0.931 1_545 S
H436 C456 0.931 . S
O437 Co413 2.097 . S
O437 C465 1.214 . S
H438 C466 0.929 . S
H439 C467 0.929 . S
H440 C468 0.930 1_554 S
H441 C469 0.929 . S
H442 C471 0.930 . S
H443 C448 0.930 . S
H444 C452 0.930 . S
O445 Co414 2.037 . S
O445 C465 1.234 . S
C446 O420 1.269 . S
C446 O421 1.257 . S
C447 H422 0.930 . S
C447 C450 1.388 . S
C447 C452 1.418 . S
C448 H443 0.930 . S
C448 C451 1.404 . S
C448 C452 1.353 1_565 S
N449 Co414 2.145 . S
N449 C450 1.397 1_565 S
N449 C451 1.334 . S
C450 H431 0.929 . S
C450 C447 1.388 . S
C450 N449 1.397 1_545 S
C451 H432 0.929 . S
C451 C448 1.404 . S
C451 N449 1.334 . S
C452 H444 0.930 . S
C452 C447 1.418 . S
C452 C448 1.353 1_545 S
C453 H423 0.930 . S
C453 N454 1.330 . S
C453 C455 1.446 . S
N454 Co413 2.151 . S
N454 C453 1.330 . S
N454 C458 1.418 . S
C455 H434 0.929 . S
C455 C453 1.446 . S
C455 C456 1.332 . S
C456 H436 0.931 . S
C456 C455 1.332 . S
C456 C457 1.267 . S
C457 H425 0.929 . S
C457 C456 1.267 . S
C457 C458 1.251 . S
C458 H428 0.929 . S
C458 N454 1.418 . S
C458 C457 1.251 . S
C459 H426 0.930 . S
C459 C461 1.406 . S
C459 C464 1.261 . S
C460 H427 0.941 . S
C460 N462 1.325 . S
C460 C463 1.357 1_565 S
C461 H429 0.928 . S
C461 C459 1.406 . S
C461 N462 1.261 . S
N462 Co413 2.214 . S
N462 C460 1.325 . S
N462 C461 1.261 . S
C463 H433 0.931 . S
C463 C460 1.357 1_545 S
C463 C464 1.312 1_545 S
C464 H435 0.931 1_565 S
C464 C459 1.261 . S
C464 C463 1.312 1_565 S
C465 O437 1.214 . S
C465 O445 1.234 . S
C466 H438 0.929 . S
C466 C469 1.391 1_556 S
C466 C471 1.391 . S
C467 H439 0.929 . S
C467 C468 1.390 . S
C467 N470 1.391 . S
C468 H440 0.930 1_556 S
C468 C467 1.390 . S
C468 C469 1.392 1_556 S
C469 H441 0.929 . S
C469 C466 1.391 1_554 S
C469 C468 1.392 1_554 S
N470 Co414 2.257 . S
N470 C467 1.391 . S
N470 C471 1.388 . S
C471 H442 0.930 . S
C471 C466 1.391 . S
C471 N470 1.388 . S
Co472 O474 2.143 . S
Co472 O480 2.074 . S
Co472 O483 2.093 . S
Co472 O496 2.097 . S
Co472 N513 2.151 . S
Co472 N521 2.214 . S
Co473 O474 2.160 . S
Co473 O479 2.058 . S
Co473 O489 2.057 . S
Co473 O504 2.037 . S
Co473 N508 2.145 . S
Co473 N529 2.257 . S
O474 Co472 2.143 . S
O474 Co473 2.160 . S
C475 O476 1.278 . S
C475 O483 1.224 . S
O476 C475 1.278 . S
C477 O478 1.245 . S
C477 O489 1.232 . S
O478 C477 1.245 . S
O479 Co473 2.058 . S
O479 C505 1.269 . S
O480 Co472 2.074 . S
O480 C505 1.257 . S
H481 C506 0.930 . S
H482 C512 0.930 . S
O483 Co472 2.093 . S
O483 C475 1.224 . S
H484 C516 0.929 . S
H485 C518 0.930 . S
H486 C519 0.930 . S
H487 C517 0.929 . S
H488 C520 0.928 . S
O489 Co473 2.057 . S
O489 C477 1.232 . S
H490 C509 0.929 . S
H491 C510 0.929 . S
H492 C522 0.931 . S
H493 C514 0.929 . S
H494 C523 0.930 . S
H495 C515 0.931 . S
O496 Co472 2.097 . S
O496 C524 1.214 . S
H497 C525 0.929 . S
H498 C526 0.929 . S
H499 C527 0.930 . S
H500 C528 0.929 . S
H501 C530 0.930 . S
H502 C507 0.930 . S
H503 C511 0.930 . S
O504 Co473 2.037 . S
O504 C524 1.234 . S
C505 O479 1.269 . S
C505 O480 1.257 . S
C506 H481 0.930 . S
C506 C509 1.388 . S
C506 C511 1.418 . S
C507 H502 0.930 . S
C507 C510 1.404 . S
C507 C511 1.353 . S
N508 Co473 2.145 . S
N508 C509 1.397 . S
N508 C510 1.334 . S
C509 H490 0.929 . S
C509 C506 1.388 . S
C509 N508 1.397 . S
C510 H491 0.929 . S
C510 C507 1.404 . S
C510 N508 1.334 . S
C511 H503 0.930 . S
C511 C506 1.418 . S
C511 C507 1.353 . S
C512 H482 0.930 . S
C512 N513 1.330 . S
C512 C514 1.446 . S
N513 Co472 2.151 . S
N513 C512 1.330 . S
N513 C517 1.418 . S
C514 H493 0.929 . S
C514 C512 1.446 . S
C514 C515 1.332 . S
C515 H495 0.931 . S
C515 C514 1.332 . S
C515 C516 1.267 . S
C516 H484 0.929 . S
C516 C515 1.267 . S
C516 C517 1.251 . S
C517 H487 0.929 . S
C517 N513 1.418 . S
C517 C516 1.251 . S
C518 H485 0.930 . S
C518 C520 1.406 . S
C518 C523 1.261 . S
C519 H486 0.930 . S
C519 N521 1.325 . S
C519 C522 1.357 . S
C520 H488 0.928 . S
C520 C518 1.406 . S
C520 N521 1.261 . S
N521 Co472 2.214 . S
N521 C519 1.325 . S
N521 C520 1.261 . S
C522 H492 0.931 . S
C522 C519 1.357 . S
C522 C523 1.312 . S
C523 H494 0.930 . S
C523 C518 1.261 . S
C523 C522 1.312 . S
C524 O496 1.214 . S
C524 O504 1.234 . S
C525 H497 0.929 . S
C525 C528 1.391 . S
C525 C530 1.391 . S
C526 H498 0.929 . S
C526 C527 1.390 . S
C526 N529 1.391 . S
C527 H499 0.930 . S
C527 C526 1.390 . S
C527 C528 1.392 . S
C528 H500 0.929 . S
C528 C525 1.391 . S
C528 C527 1.392 . S
N529 Co473 2.257 . S
N529 C526 1.391 . S
N529 C530 1.388 . S
C530 H501 0.930 . S
C530 C525 1.391 . S
C530 N529 1.388 . S
Co531 O533 2.143 . S
Co531 O539 2.074 . S
Co531 O542 2.093 . S
Co531 O555 2.097 . S
Co531 N572 2.151 . S
Co531 N580 2.214 . S
Co532 O533 2.160 . S
Co532 O538 2.058 . S
Co532 O548 2.057 . S
Co532 O563 2.037 . S
Co532 N567 2.145 . S
Co532 N588 2.257 . S
O533 Co531 2.143 . S
O533 Co532 2.160 . S
C534 O535 1.278 . S
C534 O542 1.224 . S
O535 C534 1.278 . S
C536 O537 1.245 . S
C536 O548 1.232 . S
O537 C536 1.245 . S
O538 Co532 2.058 . S
O538 C564 1.269 . S
O539 Co531 2.074 . S
O539 C564 1.257 . S
H540 C565 0.930 . S
H541 C571 0.930 . S
O542 Co531 2.093 . S
O542 C534 1.224 . S
H543 C575 0.929 . S
H544 C577 0.930 . S
H545 C578 0.930 . S
H546 C576 0.929 . S
H547 C579 0.928 . S
O548 Co532 2.057 . S
O548 C536 1.232 . S
H549 C568 0.929 . S
H550 C569 0.929 . S
H551 C581 0.931 . S
H552 C573 0.929 . S
H553 C582 0.930 . S
H554 C574 0.931 . S
O555 Co531 2.097 . S
O555 C583 1.214 . S
H556 C584 0.929 . S
H557 C585 0.929 . S
H558 C586 0.930 . S
H559 C587 0.929 . S
H560 C589 0.930 . S
H561 C566 0.930 . S
H562 C570 0.930 . S
O563 Co532 2.037 . S
O563 C583 1.234 . S
C564 O538 1.269 . S
C564 O539 1.257 . S
C565 H540 0.930 . S
C565 C568 1.388 . S
C565 C570 1.418 . S
C566 H561 0.930 . S
C566 C569 1.404 . S
C566 C570 1.353 . S
N567 Co532 2.145 . S
N567 C568 1.397 . S
N567 C569 1.334 . S
C568 H549 0.929 . S
C568 C565 1.388 . S
C568 N567 1.397 . S
C569 H550 0.929 . S
C569 C566 1.404 . S
C569 N567 1.334 . S
C570 H562 0.930 . S
C570 C565 1.418 . S
C570 C566 1.353 . S
C571 H541 0.930 . S
C571 N572 1.330 . S
C571 C573 1.446 . S
N572 Co531 2.151 . S
N572 C571 1.330 . S
N572 C576 1.418 . S
C573 H552 0.929 . S
C573 C571 1.446 . S
C573 C574 1.332 . S
C574 H554 0.931 . S
C574 C573 1.332 . S
C574 C575 1.267 . S
C575 H543 0.929 . S
C575 C574 1.267 . S
C575 C576 1.251 . S
C576 H546 0.929 . S
C576 N572 1.418 . S
C576 C575 1.251 . S
C577 H544 0.930 . S
C577 C579 1.406 . S
C577 C582 1.261 . S
C578 H545 0.930 . S
C578 N580 1.325 . S
C578 C581 1.357 . S
C579 H547 0.928 . S
C579 C577 1.406 . S
C579 N580 1.261 . S
N580 Co531 2.214 . S
N580 C578 1.325 . S
N580 C579 1.261 . S
C581 H551 0.931 . S
C581 C578 1.357 . S
C581 C582 1.312 . S
C582 H553 0.930 . S
C582 C577 1.261 . S
C582 C581 1.312 . S
C583 O555 1.214 . S
C583 O563 1.234 . S
C584 H556 0.929 . S
C584 C587 1.391 . S
C584 C589 1.391 . S
C585 H557 0.929 . S
C585 C586 1.390 . S
C585 N588 1.391 . S
C586 H558 0.930 . S
C586 C585 1.390 . S
C586 C587 1.392 . S
C587 H559 0.929 . S
C587 C584 1.391 . S
C587 C586 1.392 . S
N588 Co532 2.257 . S
N588 C585 1.391 . S
N588 C589 1.388 . S
C589 H560 0.930 . S
C589 C584 1.391 . S
C589 N588 1.388 . S
Co590 O592 2.143 . S
Co590 O598 2.074 . S
Co590 O601 2.093 . S
Co590 O614 2.097 . S
Co590 N631 2.151 . S
Co590 N639 2.214 . S
Co591 O592 2.160 . S
Co591 O597 2.058 . S
Co591 O607 2.057 . S
Co591 O622 2.037 . S
Co591 N626 2.145 . S
Co591 N647 2.257 . S
O592 Co590 2.143 . S
O592 Co591 2.160 . S
C593 O594 1.278 . S
C593 O601 1.224 . S
O594 C593 1.278 . S
C595 O596 1.245 . S
C595 O607 1.232 . S
O596 C595 1.245 . S
O597 Co591 2.058 . S
O597 C623 1.269 . S
O598 Co590 2.074 . S
O598 C623 1.257 . S
H599 C624 0.930 . S
H600 C630 0.930 . S
O601 Co590 2.093 . S
O601 C593 1.224 . S
H602 C634 0.929 . S
H603 C636 0.930 . S
H604 C637 0.930 . S
H605 C635 0.929 . S
H606 C638 0.928 . S
O607 Co591 2.057 . S
O607 C595 1.232 . S
H608 C627 0.929 . S
H609 C628 0.929 . S
H610 C640 0.931 . S
H611 C632 0.929 . S
H612 C641 0.930 . S
H613 C633 0.931 . S
O614 Co590 2.097 . S
O614 C642 1.214 . S
H615 C643 0.929 . S
H616 C644 0.929 . S
H617 C645 0.930 . S
H618 C646 0.929 . S
H619 C648 0.930 . S
H620 C625 0.930 . S
H621 C629 0.930 . S
O622 Co591 2.037 . S
O622 C642 1.234 . S
C623 O597 1.269 . S
C623 O598 1.257 . S
C624 H599 0.930 . S
C624 C627 1.388 . S
C624 C629 1.418 . S
C625 H620 0.930 . S
C625 C628 1.404 . S
C625 C629 1.353 . S
N626 Co591 2.145 . S
N626 C627 1.397 . S
N626 C628 1.334 . S
C627 H608 0.929 . S
C627 C624 1.388 . S
C627 N626 1.397 . S
C628 H609 0.929 . S
C628 C625 1.404 . S
C628 N626 1.334 . S
C629 H621 0.930 . S
C629 C624 1.418 . S
C629 C625 1.353 . S
C630 H600 0.930 . S
C630 N631 1.330 . S
C630 C632 1.446 . S
N631 Co590 2.151 . S
N631 C630 1.330 . S
N631 C635 1.418 . S
C632 H611 0.929 . S
C632 C630 1.446 . S
C632 C633 1.332 . S
C633 H613 0.931 . S
C633 C632 1.332 . S
C633 C634 1.267 . S
C634 H602 0.929 . S
C634 C633 1.267 . S
C634 C635 1.251 . S
C635 H605 0.929 . S
C635 N631 1.418 . S
C635 C634 1.251 . S
C636 H603 0.930 . S
C636 C638 1.406 . S
C636 C641 1.261 . S
C637 H604 0.930 . S
C637 N639 1.325 . S
C637 C640 1.357 . S
C638 H606 0.928 . S
C638 C636 1.406 . S
C638 N639 1.261 . S
N639 Co590 2.214 . S
N639 C637 1.325 . S
N639 C638 1.261 . S
C640 H610 0.931 . S
C640 C637 1.357 . S
C640 C641 1.312 . S
C641 H612 0.930 . S
C641 C636 1.261 . S
C641 C640 1.312 . S
C642 O614 1.214 . S
C642 O622 1.234 . S
C643 H615 0.929 . S
C643 C646 1.391 . S
C643 C648 1.391 . S
C644 H616 0.929 . S
C644 C645 1.390 . S
C644 N647 1.391 . S
C645 H617 0.930 . S
C645 C644 1.390 . S
C645 C646 1.392 . S
C646 H618 0.929 . S
C646 C643 1.391 . S
C646 C645 1.392 . S
N647 Co591 2.257 . S
N647 C644 1.391 . S
N647 C648 1.388 . S
C648 H619 0.930 . S
C648 C643 1.391 . S
C648 N647 1.388 . S
Co649 O651 2.143 . S
Co649 O657 2.074 . S
Co649 O660 2.093 . S
Co649 O673 2.097 . S
Co649 N690 2.151 . S
Co649 N698 2.214 . S
Co650 O651 2.160 . S
Co650 O656 2.058 . S
Co650 O666 2.057 . S
Co650 O681 2.037 . S
Co650 N685 2.145 . S
Co650 N706 2.257 . S
O651 Co649 2.143 . S
O651 Co650 2.160 . S
C652 O653 1.278 . S
C652 O660 1.224 . S
O653 C652 1.278 . S
C654 O655 1.245 . S
C654 O666 1.232 . S
O655 C654 1.245 . S
O656 Co650 2.058 . S
O656 C682 1.269 . S
O657 Co649 2.074 . S
O657 C682 1.257 . S
H658 C683 0.930 . S
H659 C689 0.930 . S
O660 Co649 2.093 . S
O660 C652 1.224 . S
H661 C693 0.929 . S
H662 C695 0.930 . S
H663 C696 0.930 . S
H664 C694 0.929 . S
H665 C697 0.928 . S
O666 Co650 2.057 . S
O666 C654 1.232 . S
H667 C686 0.929 . S
H668 C687 0.929 . S
H669 C699 0.931 . S
H670 C691 0.929 . S
H671 C700 0.930 . S
H672 C692 0.931 . S
O673 Co649 2.097 . S
O673 C701 1.214 . S
H674 C702 0.929 . S
H675 C703 0.929 . S
H676 C704 0.930 . S
H677 C705 0.929 . S
H678 C707 0.930 . S
H679 C684 0.930 . S
H680 C688 0.930 . S
O681 Co650 2.037 . S
O681 C701 1.234 . S
C682 O656 1.269 . S
C682 O657 1.257 . S
C683 H658 0.930 . S
C683 C686 1.388 . S
C683 C688 1.418 . S
C684 H679 0.930 . S
C684 C687 1.404 . S
C684 C688 1.353 . S
N685 Co650 2.145 . S
N685 C686 1.397 . S
N685 C687 1.334 . S
C686 H667 0.929 . S
C686 C683 1.388 . S
C686 N685 1.397 . S
C687 H668 0.929 . S
C687 C684 1.404 . S
C687 N685 1.334 . S
C688 H680 0.930 . S
C688 C683 1.418 . S
C688 C684 1.353 . S
C689 H659 0.930 . S
C689 N690 1.330 . S
C689 C691 1.446 . S
N690 Co649 2.151 . S
N690 C689 1.330 . S
N690 C694 1.418 . S
C691 H670 0.929 . S
C691 C689 1.446 . S
C691 C692 1.332 . S
C692 H672 0.931 . S
C692 C691 1.332 . S
C692 C693 1.267 . S
C693 H661 0.929 . S
C693 C692 1.267 . S
C693 C694 1.251 . S
C694 H664 0.929 . S
C694 N690 1.418 . S
C694 C693 1.251 . S
C695 H662 0.930 . S
C695 C697 1.406 . S
C695 C700 1.261 . S
C696 H663 0.930 . S
C696 N698 1.325 . S
C696 C699 1.357 . S
C697 H665 0.928 . S
C697 C695 1.406 . S
C697 N698 1.261 . S
N698 Co649 2.214 . S
N698 C696 1.325 . S
N698 C697 1.261 . S
C699 H669 0.931 . S
C699 C696 1.357 . S
C699 C700 1.312 . S
C700 H671 0.930 . S
C700 C695 1.261 . S
C700 C699 1.312 . S
C701 O673 1.214 . S
C701 O681 1.234 . S
C702 H674 0.929 . S
C702 C705 1.391 . S
C702 C707 1.391 . S
C703 H675 0.929 . S
C703 C704 1.390 . S
C703 N706 1.391 . S
C704 H676 0.930 . S
C704 C703 1.390 . S
C704 C705 1.392 . S
C705 H677 0.929 . S
C705 C702 1.391 . S
C705 C704 1.392 . S
N706 Co650 2.257 . S
N706 C703 1.391 . S
N706 C707 1.388 . S
C707 H678 0.930 . S
C707 C702 1.391 . S
C707 N706 1.388 . S
Co708 O710 2.143 . S
Co708 O716 2.074 . S
Co708 O719 2.093 . S
Co708 O732 2.097 . S
Co708 N749 2.151 . S
Co708 N757 2.214 . S
Co709 O710 2.160 . S
Co709 O715 2.058 . S
Co709 O725 2.057 . S
Co709 O740 2.037 . S
Co709 N744 2.145 . S
Co709 N765 2.257 . S
O710 Co708 2.143 . S
O710 Co709 2.160 . S
C711 O712 1.278 . S
C711 O719 1.224 . S
O712 C711 1.278 . S
C713 O714 1.245 . S
C713 O725 1.232 . S
O714 C713 1.245 . S
O715 Co709 2.058 . S
O715 C741 1.269 . S
O716 Co708 2.074 . S
O716 C741 1.257 . S
H717 C742 0.930 . S
H718 C748 0.930 . S
O719 Co708 2.093 . S
O719 C711 1.224 . S
H720 C752 0.929 . S
H721 C754 0.930 . S
H722 C755 0.930 . S
H723 C753 0.929 . S
H724 C756 0.928 . S
O725 Co709 2.057 . S
O725 C713 1.232 . S
H726 C745 0.929 . S
H727 C746 0.929 . S
H728 C758 0.931 . S
H729 C750 0.929 . S
H730 C759 0.930 . S
H731 C751 0.931 . S
O732 Co708 2.097 . S
O732 C760 1.214 . S
H733 C761 0.929 . S
H734 C762 0.929 . S
H735 C763 0.930 . S
H736 C764 0.929 . S
H737 C766 0.930 . S
H738 C743 0.930 . S
H739 C747 0.930 . S
O740 Co709 2.037 . S
O740 C760 1.234 . S
C741 O715 1.269 . S
C741 O716 1.257 . S
C742 H717 0.930 . S
C742 C745 1.388 . S
C742 C747 1.418 . S
C743 H738 0.930 . S
C743 C746 1.404 . S
C743 C747 1.353 . S
N744 Co709 2.145 . S
N744 C745 1.397 . S
N744 C746 1.334 . S
C745 H726 0.929 . S
C745 C742 1.388 . S
C745 N744 1.397 . S
C746 H727 0.929 . S
C746 C743 1.404 . S
C746 N744 1.334 . S
C747 H739 0.930 . S
C747 C742 1.418 . S
C747 C743 1.353 . S
C748 H718 0.930 . S
C748 N749 1.330 . S
C748 C750 1.446 . S
N749 Co708 2.151 . S
N749 C748 1.330 . S
N749 C753 1.418 . S
C750 H729 0.929 . S
C750 C748 1.446 . S
C750 C751 1.332 . S
C751 H731 0.931 . S
C751 C750 1.332 . S
C751 C752 1.267 . S
C752 H720 0.929 . S
C752 C751 1.267 . S
C752 C753 1.251 . S
C753 H723 0.929 . S
C753 N749 1.418 . S
C753 C752 1.251 . S
C754 H721 0.930 . S
C754 C756 1.406 . S
C754 C759 1.261 . S
C755 H722 0.930 . S
C755 N757 1.325 . S
C755 C758 1.357 . S
C756 H724 0.928 . S
C756 C754 1.406 . S
C756 N757 1.261 . S
N757 Co708 2.214 . S
N757 C755 1.325 . S
N757 C756 1.261 . S
C758 H728 0.931 . S
C758 C755 1.357 . S
C758 C759 1.312 . S
C759 H730 0.930 . S
C759 C754 1.261 . S
C759 C758 1.312 . S
C760 O732 1.214 . S
C760 O740 1.234 . S
C761 H733 0.929 . S
C761 C764 1.391 . S
C761 C766 1.391 . S
C762 H734 0.929 . S
C762 C763 1.390 . S
C762 N765 1.391 . S
C763 H735 0.930 . S
C763 C762 1.390 . S
C763 C764 1.392 . S
C764 H736 0.929 . S
C764 C761 1.391 . S
C764 C763 1.392 . S
N765 Co709 2.257 . S
N765 C762 1.391 . S
N765 C766 1.388 . S
C766 H737 0.930 . S
C766 C761 1.391 . S
C766 N765 1.388 . S
Co767 O769 2.143 . S
Co767 O775 2.074 . S
Co767 O778 2.093 . S
Co767 O791 2.097 . S
Co767 N808 2.151 . S
Co767 N816 2.214 . S
Co768 O769 2.160 . S
Co768 O774 2.058 . S
Co768 O784 2.057 . S
Co768 O799 2.037 . S
Co768 N803 2.145 . S
Co768 N824 2.257 . S
O769 Co767 2.143 . S
O769 Co768 2.160 . S
C770 O771 1.278 . S
C770 O778 1.224 . S
O771 C770 1.278 . S
C772 O773 1.245 . S
C772 O784 1.232 . S
O773 C772 1.245 . S
O774 Co768 2.058 . S
O774 C800 1.269 . S
O775 Co767 2.074 . S
O775 C800 1.257 . S
H776 C801 0.930 . S
H777 C807 0.930 . S
O778 Co767 2.093 . S
O778 C770 1.224 . S
H779 C811 0.929 . S
H780 C813 0.930 . S
H781 C814 0.930 . S
H782 C812 0.929 . S
H783 C815 0.928 . S
O784 Co768 2.057 . S
O784 C772 1.232 . S
H785 C804 0.929 . S
H786 C805 0.929 . S
H787 C817 0.931 . S
H788 C809 0.929 . S
H789 C818 0.930 . S
H790 C810 0.931 . S
O791 Co767 2.097 . S
O791 C819 1.214 . S
H792 C820 0.929 . S
H793 C821 0.929 . S
H794 C822 0.930 . S
H795 C823 0.929 . S
H796 C825 0.930 . S
H797 C802 0.930 . S
H798 C806 0.930 . S
O799 Co768 2.037 . S
O799 C819 1.234 . S
C800 O774 1.269 . S
C800 O775 1.257 . S
C801 H776 0.930 . S
C801 C804 1.388 . S
C801 C806 1.418 . S
C802 H797 0.930 . S
C802 C805 1.404 . S
C802 C806 1.353 . S
N803 Co768 2.145 . S
N803 C804 1.397 . S
N803 C805 1.334 . S
C804 H785 0.929 . S
C804 C801 1.388 . S
C804 N803 1.397 . S
C805 H786 0.929 . S
C805 C802 1.404 . S
C805 N803 1.334 . S
C806 H798 0.930 . S
C806 C801 1.418 . S
C806 C802 1.353 . S
C807 H777 0.930 . S
C807 N808 1.330 . S
C807 C809 1.446 . S
N808 Co767 2.151 . S
N808 C807 1.330 . S
N808 C812 1.418 . S
C809 H788 0.929 . S
C809 C807 1.446 . S
C809 C810 1.332 . S
C810 H790 0.931 . S
C810 C809 1.332 . S
C810 C811 1.267 . S
C811 H779 0.929 . S
C811 C810 1.267 . S
C811 C812 1.251 . S
C812 H782 0.929 . S
C812 N808 1.418 . S
C812 C811 1.251 . S
C813 H780 0.930 . S
C813 C815 1.406 . S
C813 C818 1.261 . S
C814 H781 0.930 . S
C814 N816 1.325 . S
C814 C817 1.357 . S
C815 H783 0.928 . S
C815 C813 1.406 . S
C815 N816 1.261 . S
N816 Co767 2.214 . S
N816 C814 1.325 . S
N816 C815 1.261 . S
C817 H787 0.931 . S
C817 C814 1.357 . S
C817 C818 1.312 . S
C818 H789 0.930 . S
C818 C813 1.261 . S
C818 C817 1.312 . S
C819 O791 1.214 . S
C819 O799 1.234 . S
C820 H792 0.929 . S
C820 C823 1.391 . S
C820 C825 1.391 . S
C821 H793 0.929 . S
C821 C822 1.390 . S
C821 N824 1.391 . S
C822 H794 0.930 . S
C822 C821 1.390 . S
C822 C823 1.392 . S
C823 H795 0.929 . S
C823 C820 1.391 . S
C823 C822 1.392 . S
N824 Co768 2.257 . S
N824 C821 1.391 . S
N824 C825 1.388 . S
C825 H796 0.930 . S
C825 C820 1.391 . S
C825 N824 1.388 . S
Co826 O828 2.143 . S
Co826 O834 2.074 . S
Co826 O837 2.093 . S
Co826 O850 2.097 . S
Co826 N867 2.151 . S
Co826 N875 2.214 . S
Co827 O828 2.160 . S
Co827 O833 2.058 . S
Co827 O843 2.057 . S
Co827 O858 2.037 . S
Co827 N862 2.145 . S
Co827 N883 2.257 . S
O828 Co826 2.143 . S
O828 Co827 2.160 . S
C829 O830 1.278 . S
C829 O837 1.224 . S
O830 C829 1.278 . S
C831 O832 1.245 . S
C831 O843 1.232 . S
O832 C831 1.245 . S
O833 Co827 2.058 . S
O833 C859 1.269 . S
O834 Co826 2.074 . S
O834 C859 1.257 . S
H835 C860 0.930 . S
H836 C866 0.930 . S
O837 Co826 2.093 . S
O837 C829 1.224 . S
H838 C870 0.929 . S
H839 C872 0.930 . S
H840 C873 0.930 . S
H841 C871 0.929 . S
H842 C874 0.928 . S
O843 Co827 2.057 . S
O843 C831 1.232 . S
H844 C863 0.929 . S
H845 C864 0.929 . S
H846 C876 0.931 . S
H847 C868 0.929 . S
H848 C877 0.930 . S
H849 C869 0.931 . S
O850 Co826 2.097 . S
O850 C878 1.214 . S
H851 C879 0.929 . S
H852 C880 0.929 . S
H853 C881 0.930 . S
H854 C882 0.929 . S
H855 C884 0.930 . S
H856 C861 0.930 . S
H857 C865 0.930 . S
O858 Co827 2.037 . S
O858 C878 1.234 . S
C859 O833 1.269 . S
C859 O834 1.257 . S
C860 H835 0.930 . S
C860 C863 1.388 . S
C860 C865 1.418 . S
C861 H856 0.930 . S
C861 C864 1.404 . S
C861 C865 1.353 . S
N862 Co827 2.145 . S
N862 C863 1.397 . S
N862 C864 1.334 . S
C863 H844 0.929 . S
C863 C860 1.388 . S
C863 N862 1.397 . S
C864 H845 0.929 . S
C864 C861 1.404 . S
C864 N862 1.334 . S
C865 H857 0.930 . S
C865 C860 1.418 . S
C865 C861 1.353 . S
C866 H836 0.930 . S
C866 N867 1.330 . S
C866 C868 1.446 . S
N867 Co826 2.151 . S
N867 C866 1.330 . S
N867 C871 1.418 . S
C868 H847 0.929 . S
C868 C866 1.446 . S
C868 C869 1.332 . S
C869 H849 0.931 . S
C869 C868 1.332 . S
C869 C870 1.267 . S
C870 H838 0.929 . S
C870 C869 1.267 . S
C870 C871 1.251 . S
C871 H841 0.929 . S
C871 N867 1.418 . S
C871 C870 1.251 . S
C872 H839 0.930 . S
C872 C874 1.406 . S
C872 C877 1.261 . S
C873 H840 0.930 . S
C873 N875 1.325 . S
C873 C876 1.357 . S
C874 H842 0.928 . S
C874 C872 1.406 . S
C874 N875 1.261 . S
N875 Co826 2.214 . S
N875 C873 1.325 . S
N875 C874 1.261 . S
C876 H846 0.931 . S
C876 C873 1.357 . S
C876 C877 1.312 . S
C877 H848 0.930 . S
C877 C872 1.261 . S
C877 C876 1.312 . S
C878 O850 1.214 . S
C878 O858 1.234 . S
C879 H851 0.929 . S
C879 C882 1.391 . S
C879 C884 1.391 . S
C880 H852 0.929 . S
C880 C881 1.390 . S
C880 N883 1.391 . S
C881 H853 0.930 . S
C881 C880 1.390 . S
C881 C882 1.392 . S
C882 H854 0.929 . S
C882 C879 1.391 . S
C882 C881 1.392 . S
N883 Co827 2.257 . S
N883 C880 1.391 . S
N883 C884 1.388 . S
C884 H855 0.930 . S
C884 C879 1.391 . S
C884 N883 1.388 . S
Co885 O887 2.143 . S
Co885 O893 2.074 . S
Co885 O896 2.093 . S
Co885 O909 2.097 . S
Co885 N926 2.151 . S
Co885 N934 2.214 . S
Co886 O887 2.160 . S
Co886 O892 2.058 . S
Co886 O902 2.057 . S
Co886 O917 2.037 . S
Co886 N921 2.145 . S
Co886 N942 2.257 . S
O887 Co885 2.143 . S
O887 Co886 2.160 . S
C888 O889 1.278 . S
C888 O896 1.224 . S
O889 C888 1.278 . S
C890 O891 1.245 . S
C890 O902 1.232 . S
O891 C890 1.245 . S
O892 Co886 2.058 . S
O892 C918 1.269 . S
O893 Co885 2.074 . S
O893 C918 1.257 . S
H894 C919 0.930 . S
H895 C925 0.930 . S
O896 Co885 2.093 . S
O896 C888 1.224 . S
H897 C929 0.929 . S
H898 C931 0.930 . S
H899 C932 0.930 . S
H900 C930 0.929 . S
H901 C933 0.928 . S
O902 Co886 2.057 . S
O902 C890 1.232 . S
H903 C922 0.929 . S
H904 C923 0.929 . S
H905 C935 0.931 . S
H906 C927 0.929 . S
H907 C936 0.930 . S
H908 C928 0.931 . S
O909 Co885 2.097 . S
O909 C937 1.214 . S
H910 C938 0.929 . S
H911 C939 0.929 . S
H912 C940 0.930 . S
H913 C941 0.929 . S
H914 C943 0.930 . S
H915 C920 0.930 . S
H916 C924 0.930 . S
O917 Co886 2.037 . S
O917 C937 1.234 . S
C918 O892 1.269 . S
C918 O893 1.257 . S
C919 H894 0.930 . S
C919 C922 1.388 . S
C919 C924 1.418 . S
C920 H915 0.930 . S
C920 C923 1.404 . S
C920 C924 1.353 . S
N921 Co886 2.145 . S
N921 C922 1.397 . S
N921 C923 1.334 . S
C922 H903 0.929 . S
C922 C919 1.388 . S
C922 N921 1.397 . S
C923 H904 0.929 . S
C923 C920 1.404 . S
C923 N921 1.334 . S
C924 H916 0.930 . S
C924 C919 1.418 . S
C924 C920 1.353 . S
C925 H895 0.930 . S
C925 N926 1.330 . S
C925 C927 1.446 . S
N926 Co885 2.151 . S
N926 C925 1.330 . S
N926 C930 1.418 . S
C927 H906 0.929 . S
C927 C925 1.446 . S
C927 C928 1.332 . S
C928 H908 0.931 . S
C928 C927 1.332 . S
C928 C929 1.267 . S
C929 H897 0.929 . S
C929 C928 1.267 . S
C929 C930 1.251 . S
C930 H900 0.929 . S
C930 N926 1.418 . S
C930 C929 1.251 . S
C931 H898 0.930 . S
C931 C933 1.406 . S
C931 C936 1.261 . S
C932 H899 0.930 . S
C932 N934 1.325 . S
C932 C935 1.357 . S
C933 H901 0.928 . S
C933 C931 1.406 . S
C933 N934 1.261 . S
N934 Co885 2.214 . S
N934 C932 1.325 . S
N934 C933 1.261 . S
C935 H905 0.931 . S
C935 C932 1.357 . S
C935 C936 1.312 . S
C936 H907 0.930 . S
C936 C931 1.261 . S
C936 C935 1.312 . S
C937 O909 1.214 . S
C937 O917 1.234 . S
C938 H910 0.929 . S
C938 C941 1.391 . S
C938 C943 1.391 . S
C939 H911 0.929 . S
C939 C940 1.390 . S
C939 N942 1.391 . S
C940 H912 0.930 . S
C940 C939 1.390 . S
C940 C941 1.392 . S
C941 H913 0.929 . S
C941 C938 1.391 . S
C941 C940 1.392 . S
N942 Co886 2.257 . S
N942 C939 1.391 . S
N942 C943 1.388 . S
C943 H914 0.930 . S
C943 C938 1.391 . S
C943 N942 1.388 . S
H944 C952 0.950 . S
H945 C957 0.950 . S
H946 C954 0.950 . S
H947 C956 0.950 . S
H948 C958 0.950 . S
H949 C960 0.950 . S
H950 C962 0.950 . S
H951 C963 0.950 . S
C952 H944 0.950 . S
C952 C953 1.386 . S
C952 C954 1.391 . S
C953 C952 1.386 . S
C953 C957 1.393 . S
C954 H946 0.950 . S
C954 C952 1.391 . S
C954 C955 1.400 . S
C955 C954 1.400 . S
C955 C956 1.398 . S
C955 C961 1.491 . S
C956 H947 0.950 . S
C956 C955 1.398 . S
C956 C957 1.391 . S
C957 H945 0.950 . S
C957 C953 1.393 . S
C957 C956 1.391 . S
C958 H948 0.950 . S
C958 C959 1.386 . S
C958 C960 1.391 . S
C959 C958 1.386 . S
C959 C963 1.393 . S
C960 H949 0.950 . S
C960 C958 1.391 . S
C960 C961 1.400 . S
C961 C955 1.491 . S
C961 C960 1.400 . S
C961 C962 1.398 . S
C962 H950 0.950 . S
C962 C961 1.398 . S
C962 C963 1.391 . S
C963 H951 0.950 . S
C963 C959 1.393 . S
C963 C962 1.391 . S
H964 C972 0.950 . S
H965 C977 0.950 . S
H966 C974 0.950 . S
H967 C976 0.950 . S
H968 C978 0.950 . S
H969 C980 0.950 . S
H970 C982 0.950 . S
H971 C983 0.950 . S
C972 H964 0.950 . S
C972 C973 1.386 . S
C972 C974 1.391 . S
C973 C972 1.386 . S
C973 C977 1.393 . S
C974 H966 0.950 . S
C974 C972 1.391 . S
C974 C975 1.400 . S
C975 C974 1.400 . S
C975 C976 1.398 . S
C975 C981 1.491 . S
C976 H967 0.950 . S
C976 C975 1.398 . S
C976 C977 1.391 . S
C977 H965 0.950 . S
C977 C973 1.393 . S
C977 C976 1.391 . S
C978 H968 0.950 . S
C978 C979 1.386 . S
C978 C980 1.391 . S
C979 C978 1.386 . S
C979 C983 1.393 . S
C980 H969 0.950 . S
C980 C978 1.391 . S
C980 C981 1.400 . S
C981 C975 1.491 . S
C981 C980 1.400 . S
C981 C982 1.398 . S
C982 H970 0.950 . S
C982 C981 1.398 . S
C982 C983 1.391 . S
C983 H971 0.950 . S
C983 C979 1.393 . S
C983 C982 1.391 . S
H984 C992 0.950 . S
H985 C997 0.950 . S
H986 C994 0.950 . S
H987 C996 0.950 . S
H988 C998 0.950 . S
H989 C1000 0.950 . S
H990 C1002 0.950 . S
H991 C1003 0.950 . S
C992 H984 0.950 . S
C992 C993 1.386 . S
C992 C994 1.391 . S
C993 C992 1.386 . S
C993 C997 1.393 . S
C994 H986 0.950 . S
C994 C992 1.391 . S
C994 C995 1.400 . S
C995 C994 1.400 . S
C995 C996 1.398 . S
C995 C1001 1.491 . S
C996 H987 0.950 . S
C996 C995 1.398 . S
C996 C997 1.391 . S
C997 H985 0.950 . S
C997 C993 1.393 . S
C997 C996 1.391 . S
C998 H988 0.950 . S
C998 C999 1.386 . S
C998 C1000 1.391 . S
C999 C998 1.386 . S
C999 C1003 1.393 . S
C1000 H989 0.950 . S
C1000 C998 1.391 . S
C1000 C1001 1.400 . S
C1001 C995 1.491 . S
C1001 C1000 1.400 . S
C1001 C1002 1.398 . S
C1002 H990 0.950 . S
C1002 C1001 1.398 . S
C1002 C1003 1.391 . S
C1003 H991 0.950 . S
C1003 C999 1.393 . S
C1003 C1002 1.391 . S
H1004 C1012 0.950 . S
H1005 C1017 0.950 . S
H1006 C1014 0.950 . S
H1007 C1016 0.950 . S
H1008 C1018 0.950 . S
H1009 C1020 0.950 . S
H1010 C1022 0.950 . S
H1011 C1023 0.950 . S
C1012 H1004 0.950 . S
C1012 C1013 1.386 . S
C1012 C1014 1.391 . S
C1013 C1012 1.386 . S
C1013 C1017 1.393 . S
C1014 H1006 0.950 . S
C1014 C1012 1.391 . S
C1014 C1015 1.400 . S
C1015 C1014 1.400 . S
C1015 C1016 1.398 . S
C1015 C1021 1.491 . S
C1016 H1007 0.950 . S
C1016 C1015 1.398 . S
C1016 C1017 1.391 . S
C1017 H1005 0.950 . S
C1017 C1013 1.393 . S
C1017 C1016 1.391 . S
C1018 H1008 0.950 . S
C1018 C1019 1.386 . S
C1018 C1020 1.391 . S
C1019 C1018 1.386 . S
C1019 C1023 1.393 . S
C1020 H1009 0.950 . S
C1020 C1018 1.391 . S
C1020 C1021 1.400 . S
C1021 C1015 1.491 . S
C1021 C1020 1.400 . S
C1021 C1022 1.398 . S
C1022 H1010 0.950 . S
C1022 C1021 1.398 . S
C1022 C1023 1.391 . S
C1023 H1011 0.950 . S
C1023 C1019 1.393 . S
C1023 C1022 1.391 . S
H1024 C1032 0.950 . S
H1025 C1037 0.950 . S
H1026 C1034 0.950 . S
H1027 C1036 0.950 . S
H1028 C1038 0.950 . S
H1029 C1040 0.950 . S
H1030 C1042 0.950 . S
H1031 C1043 0.950 . S
C1032 H1024 0.950 . S
C1032 C1033 1.386 . S
C1032 C1034 1.391 . S
C1033 C1032 1.386 . S
C1033 C1037 1.393 . S
C1034 H1026 0.950 . S
C1034 C1032 1.391 . S
C1034 C1035 1.400 . S
C1035 C1034 1.400 . S
C1035 C1036 1.398 . S
C1035 C1041 1.491 . S
C1036 H1027 0.950 . S
C1036 C1035 1.398 . S
C1036 C1037 1.391 . S
C1037 H1025 0.950 . S
C1037 C1033 1.393 . S
C1037 C1036 1.391 . S
C1038 H1028 0.950 . S
C1038 C1039 1.386 . S
C1038 C1040 1.391 . S
C1039 C1038 1.386 . S
C1039 C1043 1.393 . S
C1040 H1029 0.950 . S
C1040 C1038 1.391 . S
C1040 C1041 1.400 . S
C1041 C1035 1.491 . S
C1041 C1040 1.400 . S
C1041 C1042 1.398 . S
C1042 H1030 0.950 . S
C1042 C1041 1.398 . S
C1042 C1043 1.391 . S
C1043 H1031 0.950 . S
C1043 C1039 1.393 . S
C1043 C1042 1.391 . S
H1044 C1052 0.950 . S
H1045 C1057 0.950 . S
H1046 C1054 0.950 . S
H1047 C1056 0.950 . S
H1048 C1058 0.950 . S
H1049 C1060 0.950 . S
H1050 C1062 0.950 . S
H1051 C1063 0.950 . S
C1052 H1044 0.950 . S
C1052 C1053 1.386 . S
C1052 C1054 1.391 . S
C1053 C1052 1.386 . S
C1053 C1057 1.393 . S
C1054 H1046 0.950 . S
C1054 C1052 1.391 . S
C1054 C1055 1.400 . S
C1055 C1054 1.400 . S
C1055 C1056 1.398 . S
C1055 C1061 1.491 . S
C1056 H1047 0.950 . S
C1056 C1055 1.398 . S
C1056 C1057 1.391 . S
C1057 H1045 0.950 . S
C1057 C1053 1.393 . S
C1057 C1056 1.391 . S
C1058 H1048 0.950 . S
C1058 C1059 1.386 . S
C1058 C1060 1.391 . S
C1059 C1058 1.386 . S
C1059 C1063 1.393 . S
C1060 H1049 0.950 . S
C1060 C1058 1.391 . S
C1060 C1061 1.400 . S
C1061 C1055 1.491 . S
C1061 C1060 1.400 . S
C1061 C1062 1.398 . S
C1062 H1050 0.950 . S
C1062 C1061 1.398 . S
C1062 C1063 1.391 . S
C1063 H1051 0.950 . S
C1063 C1059 1.393 . S
C1063 C1062 1.391 . S
H1064 C1072 0.950 . S
H1065 C1077 0.950 . S
H1066 C1074 0.950 . S
H1067 C1076 0.950 . S
H1068 C1078 0.950 . S
H1069 C1080 0.950 . S
H1070 C1082 0.950 . S
H1071 C1083 0.950 . S
C1072 H1064 0.950 . S
C1072 C1073 1.386 . S
C1072 C1074 1.391 . S
C1073 C1072 1.386 . S
C1073 C1077 1.393 . S
C1074 H1066 0.950 . S
C1074 C1072 1.391 . S
C1074 C1075 1.400 . S
C1075 C1074 1.400 . S
C1075 C1076 1.398 . S
C1075 C1081 1.491 . S
C1076 H1067 0.950 . S
C1076 C1075 1.398 . S
C1076 C1077 1.391 . S
C1077 H1065 0.950 . S
C1077 C1073 1.393 . S
C1077 C1076 1.391 . S
C1078 H1068 0.950 . S
C1078 C1079 1.386 . S
C1078 C1080 1.391 . S
C1079 C1078 1.386 . S
C1079 C1083 1.393 . S
C1080 H1069 0.950 . S
C1080 C1078 1.391 . S
C1080 C1081 1.400 . S
C1081 C1075 1.491 . S
C1081 C1080 1.400 . S
C1081 C1082 1.398 . S
C1082 H1070 0.950 . S
C1082 C1081 1.398 . S
C1082 C1083 1.391 . S
C1083 H1071 0.950 . S
C1083 C1079 1.393 . S
C1083 C1082 1.391 . S
H1084 C1092 0.950 . S
H1085 C1097 0.950 . S
H1086 C1094 0.950 . S
H1087 C1096 0.950 . S
H1088 C1098 0.950 . S
H1089 C1100 0.950 . S
H1090 C1102 0.950 . S
H1091 C1103 0.950 . S
C1092 H1084 0.950 . S
C1092 C1093 1.386 . S
C1092 C1094 1.391 . S
C1093 C1092 1.386 . S
C1093 C1097 1.393 . S
C1094 H1086 0.950 . S
C1094 C1092 1.391 . S
C1094 C1095 1.400 . S
C1095 C1094 1.400 . S
C1095 C1096 1.398 . S
C1095 C1101 1.491 . S
C1096 H1087 0.950 . S
C1096 C1095 1.398 . S
C1096 C1097 1.391 . S
C1097 H1085 0.950 . S
C1097 C1093 1.393 . S
C1097 C1096 1.391 . S
C1098 H1088 0.950 . S
C1098 C1099 1.386 . S
C1098 C1100 1.391 . S
C1099 C1098 1.386 . S
C1099 C1103 1.393 . S
C1100 H1089 0.950 . S
C1100 C1098 1.391 . S
C1100 C1101 1.400 . S
C1101 C1095 1.491 . S
C1101 C1100 1.400 . S
C1101 C1102 1.398 . S
C1102 H1090 0.950 . S
C1102 C1101 1.398 . S
C1102 C1103 1.391 . S
C1103 H1091 0.950 . S
C1103 C1099 1.393 . S
C1103 C1102 1.391 . S
H1104 C1112 0.950 . S
H1105 C1117 0.950 . S
H1106 C1114 0.950 . S
H1107 C1116 0.950 . S
H1108 C1118 0.950 . S
H1109 C1120 0.950 . S
H1110 C1122 0.950 . S
H1111 C1123 0.950 . S
C1112 H1104 0.950 . S
C1112 C1113 1.386 . S
C1112 C1114 1.391 . S
C1113 C1112 1.386 . S
C1113 C1117 1.393 . S
C1114 H1106 0.950 . S
C1114 C1112 1.391 . S
C1114 C1115 1.400 . S
C1115 C1114 1.400 . S
C1115 C1116 1.398 . S
C1115 C1121 1.491 . S
C1116 H1107 0.950 . S
C1116 C1115 1.398 . S
C1116 C1117 1.391 . S
C1117 H1105 0.950 . S
C1117 C1113 1.393 . S
C1117 C1116 1.391 . S
C1118 H1108 0.950 . S
C1118 C1119 1.386 . S
C1118 C1120 1.391 . S
C1119 C1118 1.386 . S
C1119 C1123 1.393 . S
C1120 H1109 0.950 . S
C1120 C1118 1.391 . S
C1120 C1121 1.400 . S
C1121 C1115 1.491 . S
C1121 C1120 1.400 . S
C1121 C1122 1.398 . S
C1122 H1110 0.950 . S
C1122 C1121 1.398 . S
C1122 C1123 1.391 . S
C1123 H1111 0.950 . S
C1123 C1119 1.393 . S
C1123 C1122 1.391 . S
H1124 C1132 0.950 . S
H1125 C1137 0.950 . S
H1126 C1134 0.950 . S
H1127 C1136 0.950 . S
H1128 C1138 0.950 . S
H1129 C1140 0.950 . S
H1130 C1142 0.950 . S
H1131 C1143 0.950 . S
C1132 H1124 0.950 . S
C1132 C1133 1.386 . S
C1132 C1134 1.391 . S
C1133 C1132 1.386 . S
C1133 C1137 1.393 . S
C1134 H1126 0.950 . S
C1134 C1132 1.391 . S
C1134 C1135 1.400 . S
C1135 C1134 1.400 . S
C1135 C1136 1.398 . S
C1135 C1141 1.491 . S
C1136 H1127 0.950 . S
C1136 C1135 1.398 . S
C1136 C1137 1.391 . S
C1137 H1125 0.950 . S
C1137 C1133 1.393 . S
C1137 C1136 1.391 . S
C1138 H1128 0.950 . S
C1138 C1139 1.386 . S
C1138 C1140 1.391 . S
C1139 C1138 1.386 . S
C1139 C1143 1.393 . S
C1140 H1129 0.950 . S
C1140 C1138 1.391 . S
C1140 C1141 1.400 . S
C1141 C1135 1.491 . S
C1141 C1140 1.400 . S
C1141 C1142 1.398 . S
C1142 H1130 0.950 . S
C1142 C1141 1.398 . S
C1142 C1143 1.391 . S
C1143 H1131 0.950 . S
C1143 C1139 1.393 . S
C1143 C1142 1.391 . S
H1144 C1152 0.950 . S
H1145 C1157 0.950 . S
H1146 C1154 0.950 . S
H1147 C1156 0.950 . S
H1148 C1158 0.950 . S
H1149 C1160 0.950 . S
H1150 C1162 0.950 . S
H1151 C1163 0.950 . S
C1152 H1144 0.950 . S
C1152 C1153 1.386 . S
C1152 C1154 1.391 . S
C1153 C1152 1.386 . S
C1153 C1157 1.393 . S
C1154 H1146 0.950 . S
C1154 C1152 1.391 . S
C1154 C1155 1.400 . S
C1155 C1154 1.400 . S
C1155 C1156 1.398 . S
C1155 C1161 1.491 . S
C1156 H1147 0.950 . S
C1156 C1155 1.398 . S
C1156 C1157 1.391 . S
C1157 H1145 0.950 . S
C1157 C1153 1.393 . S
C1157 C1156 1.391 . S
C1158 H1148 0.950 . S
C1158 C1159 1.386 . S
C1158 C1160 1.391 . S
C1159 C1158 1.386 . S
C1159 C1163 1.393 . S
C1160 H1149 0.950 . S
C1160 C1158 1.391 . S
C1160 C1161 1.400 . S
C1161 C1155 1.491 . S
C1161 C1160 1.400 . S
C1161 C1162 1.398 . S
C1162 H1150 0.950 . S
C1162 C1161 1.398 . S
C1162 C1163 1.391 . S
C1163 H1151 0.950 . S
C1163 C1159 1.393 . S
C1163 C1162 1.391 . S
H1164 C1172 0.950 . S
H1165 C1177 0.950 . S
H1166 C1174 0.950 . S
H1167 C1176 0.950 . S
H1168 C1178 0.950 . S
H1169 C1180 0.950 . S
H1170 C1182 0.950 . S
H1171 C1183 0.950 . S
C1172 H1164 0.950 . S
C1172 C1173 1.386 . S
C1172 C1174 1.391 . S
C1173 C1172 1.386 . S
C1173 C1177 1.393 . S
C1174 H1166 0.950 . S
C1174 C1172 1.391 . S
C1174 C1175 1.400 . S
C1175 C1174 1.400 . S
C1175 C1176 1.398 . S
C1175 C1181 1.491 . S
C1176 H1167 0.950 . S
C1176 C1175 1.398 . S
C1176 C1177 1.391 . S
C1177 H1165 0.950 . S
C1177 C1173 1.393 . S
C1177 C1176 1.391 . S
C1178 H1168 0.950 . S
C1178 C1179 1.386 . S
C1178 C1180 1.391 . S
C1179 C1178 1.386 . S
C1179 C1183 1.393 . S
C1180 H1169 0.950 . S
C1180 C1178 1.391 . S
C1180 C1181 1.400 . S
C1181 C1175 1.491 . S
C1181 C1180 1.400 . S
C1181 C1182 1.398 . S
C1182 H1170 0.950 . S
C1182 C1181 1.398 . S
C1182 C1183 1.391 . S
C1183 H1171 0.950 . S
C1183 C1179 1.393 . S
C1183 C1182 1.391 . S
H1184 C1192 0.950 . S
H1185 C1197 0.950 . S
H1186 C1194 0.950 . S
H1187 C1196 0.950 . S
H1188 C1198 0.950 . S
H1189 C1200 0.950 . S
H1190 C1202 0.950 . S
H1191 C1203 0.950 . S
C1192 H1184 0.950 . S
C1192 C1193 1.386 . S
C1192 C1194 1.391 . S
C1193 C1192 1.386 . S
C1193 C1197 1.393 . S
C1194 H1186 0.950 . S
C1194 C1192 1.391 . S
C1194 C1195 1.400 . S
C1195 C1194 1.400 . S
C1195 C1196 1.398 . S
C1195 C1201 1.491 . S
C1196 H1187 0.950 . S
C1196 C1195 1.398 . S
C1196 C1197 1.391 . S
C1197 H1185 0.950 . S
C1197 C1193 1.393 . S
C1197 C1196 1.391 . S
C1198 H1188 0.950 . S
C1198 C1199 1.386 . S
C1198 C1200 1.391 . S
C1199 C1198 1.386 . S
C1199 C1203 1.393 . S
C1200 H1189 0.950 . S
C1200 C1198 1.391 . S
C1200 C1201 1.400 . S
C1201 C1195 1.491 . S
C1201 C1200 1.400 . S
C1201 C1202 1.398 . S
C1202 H1190 0.950 . S
C1202 C1201 1.398 . S
C1202 C1203 1.391 . S
C1203 H1191 0.950 . S
C1203 C1199 1.393 . S
C1203 C1202 1.391 . S
H1204 C1212 0.950 . S
H1205 C1217 0.950 . S
H1206 C1214 0.950 . S
H1207 C1216 0.950 . S
H1208 C1218 0.950 . S
H1209 C1220 0.950 . S
H1210 C1222 0.950 . S
H1211 C1223 0.950 . S
C1212 H1204 0.950 . S
C1212 C1213 1.386 . S
C1212 C1214 1.391 . S
C1213 C1212 1.386 . S
C1213 C1217 1.393 . S
C1214 H1206 0.950 . S
C1214 C1212 1.391 . S
C1214 C1215 1.400 . S
C1215 C1214 1.400 . S
C1215 C1216 1.398 . S
C1215 C1221 1.491 . S
C1216 H1207 0.950 . S
C1216 C1215 1.398 . S
C1216 C1217 1.391 . S
C1217 H1205 0.950 . S
C1217 C1213 1.393 . S
C1217 C1216 1.391 . S
C1218 H1208 0.950 . S
C1218 C1219 1.386 . S
C1218 C1220 1.391 . S
C1219 C1218 1.386 . S
C1219 C1223 1.393 . S
C1220 H1209 0.950 . S
C1220 C1218 1.391 . S
C1220 C1221 1.400 . S
C1221 C1215 1.491 . S
C1221 C1220 1.400 . S
C1221 C1222 1.398 . S
C1222 H1210 0.950 . S
C1222 C1221 1.398 . S
C1222 C1223 1.391 . S
C1223 H1211 0.950 . S
C1223 C1219 1.393 . S
C1223 C1222 1.391 . S
H1224 C1232 0.950 . S
H1225 C1237 0.950 . S
H1226 C1234 0.950 . S
H1227 C1236 0.950 . S
H1228 C1238 0.950 . S
H1229 C1240 0.950 . S
H1230 C1242 0.950 . S
H1231 C1243 0.950 . S
C1232 H1224 0.950 . S
C1232 C1233 1.386 . S
C1232 C1234 1.391 . S
C1233 C1232 1.386 . S
C1233 C1237 1.393 . S
C1234 H1226 0.950 . S
C1234 C1232 1.391 . S
C1234 C1235 1.400 . S
C1235 C1234 1.400 . S
C1235 C1236 1.398 . S
C1235 C1241 1.491 . S
C1236 H1227 0.950 . S
C1236 C1235 1.398 . S
C1236 C1237 1.391 . S
C1237 H1225 0.950 . S
C1237 C1233 1.393 . S
C1237 C1236 1.391 . S
C1238 H1228 0.950 . S
C1238 C1239 1.386 . S
C1238 C1240 1.391 . S
C1239 C1238 1.386 . S
C1239 C1243 1.393 . S
C1240 H1229 0.950 . S
C1240 C1238 1.391 . S
C1240 C1241 1.400 . S
C1241 C1235 1.491 . S
C1241 C1240 1.400 . S
C1241 C1242 1.398 . S
C1242 H1230 0.950 . S
C1242 C1241 1.398 . S
C1242 C1243 1.391 . S
C1243 H1231 0.950 . S
C1243 C1239 1.393 . S
C1243 C1242 1.391 . S
H1244 C1252 0.950 . S
H1245 C1257 0.950 . S
H1246 C1254 0.950 . S
H1247 C1256 0.950 . S
H1248 C1258 0.950 . S
H1249 C1260 0.950 . S
H1250 C1262 0.950 . S
H1251 C1263 0.950 . S
C1252 H1244 0.950 . S
C1252 C1253 1.386 . S
C1252 C1254 1.391 . S
C1253 C1252 1.386 . S
C1253 C1257 1.393 . S
C1254 H1246 0.950 . S
C1254 C1252 1.391 . S
C1254 C1255 1.400 . S
C1255 C1254 1.400 . S
C1255 C1256 1.398 . S
C1255 C1261 1.491 . S
C1256 H1247 0.950 . S
C1256 C1255 1.398 . S
C1256 C1257 1.391 . S
C1257 H1245 0.950 . S
C1257 C1253 1.393 . S
C1257 C1256 1.391 . S
C1258 H1248 0.950 . S
C1258 C1259 1.386 . S
C1258 C1260 1.391 . S
C1259 C1258 1.386 . S
C1259 C1263 1.393 . S
C1260 H1249 0.950 . S
C1260 C1258 1.391 . S
C1260 C1261 1.400 . S
C1261 C1255 1.491 . S
C1261 C1260 1.400 . S
C1261 C1262 1.398 . S
C1262 H1250 0.950 . S
C1262 C1261 1.398 . S
C1262 C1263 1.391 . S
C1263 H1251 0.950 . S
C1263 C1259 1.393 . S
C1263 C1262 1.391 . S
H1264 C1272 0.950 . S
H1265 C1277 0.950 . S
H1266 C1274 0.950 . S
H1267 C1276 0.950 . S
H1268 C1278 0.950 . S
H1269 C1280 0.950 . S
H1270 C1282 0.950 . S
H1271 C1283 0.950 . S
C1272 H1264 0.950 . S
C1272 C1273 1.386 . S
C1272 C1274 1.391 . S
C1273 C1272 1.386 . S
C1273 C1277 1.393 . S
C1274 H1266 0.950 . S
C1274 C1272 1.391 . S
C1274 C1275 1.400 . S
C1275 C1274 1.400 . S
C1275 C1276 1.398 . S
C1275 C1281 1.491 . S
C1276 H1267 0.950 . S
C1276 C1275 1.398 . S
C1276 C1277 1.391 . S
C1277 H1265 0.950 . S
C1277 C1273 1.393 . S
C1277 C1276 1.391 . S
C1278 H1268 0.950 . S
C1278 C1279 1.386 . S
C1278 C1280 1.391 . S
C1279 C1278 1.386 . S
C1279 C1283 1.393 . S
C1280 H1269 0.950 . S
C1280 C1278 1.391 . S
C1280 C1281 1.400 . S
C1281 C1275 1.491 . S
C1281 C1280 1.400 . S
C1281 C1282 1.398 . S
C1282 H1270 0.950 . S
C1282 C1281 1.398 . S
C1282 C1283 1.391 . S
C1283 H1271 0.950 . S
C1283 C1279 1.393 . S
C1283 C1282 1.391 . S
H1284 C1292 0.950 . S
H1285 C1297 0.950 . S
H1286 C1294 0.950 . S
H1287 C1296 0.950 . S
H1288 C1298 0.950 . S
H1289 C1300 0.950 . S
H1290 C1302 0.950 . S
H1291 C1303 0.950 . S
C1292 H1284 0.950 . S
C1292 C1293 1.386 . S
C1292 C1294 1.391 . S
C1293 C1292 1.386 . S
C1293 C1297 1.393 . S
C1294 H1286 0.950 . S
C1294 C1292 1.391 . S
C1294 C1295 1.400 . S
C1295 C1294 1.400 . S
C1295 C1296 1.398 . S
C1295 C1301 1.491 . S
C1296 H1287 0.950 . S
C1296 C1295 1.398 . S
C1296 C1297 1.391 . S
C1297 H1285 0.950 . S
C1297 C1293 1.393 . S
C1297 C1296 1.391 . S
C1298 H1288 0.950 . S
C1298 C1299 1.386 . S
C1298 C1300 1.391 . S
C1299 C1298 1.386 . S
C1299 C1303 1.393 . S
C1300 H1289 0.950 . S
C1300 C1298 1.391 . S
C1300 C1301 1.400 . S
C1301 C1295 1.491 . S
C1301 C1300 1.400 . S
C1301 C1302 1.398 . S
C1302 H1290 0.950 . S
C1302 C1301 1.398 . S
C1302 C1303 1.391 . S
C1303 H1291 0.950 . S
C1303 C1299 1.393 . S
C1303 C1302 1.391 . S
H1304 C1312 0.950 . S
H1305 C1317 0.950 . S
H1306 C1314 0.950 . S
H1307 C1316 0.950 . S
H1308 C1318 0.950 . S
H1309 C1320 0.950 . S
H1310 C1322 0.950 . S
H1311 C1323 0.950 . S
C1312 H1304 0.950 . S
C1312 C1313 1.386 . S
C1312 C1314 1.391 . S
C1313 C1312 1.386 . S
C1313 C1317 1.393 . S
C1314 H1306 0.950 . S
C1314 C1312 1.391 . S
C1314 C1315 1.400 . S
C1315 C1314 1.400 . S
C1315 C1316 1.398 . S
C1315 C1321 1.491 . S
C1316 H1307 0.950 . S
C1316 C1315 1.398 . S
C1316 C1317 1.391 . S
C1317 H1305 0.950 . S
C1317 C1313 1.393 . S
C1317 C1316 1.391 . S
C1318 H1308 0.950 . S
C1318 C1319 1.386 . S
C1318 C1320 1.391 . S
C1319 C1318 1.386 . S
C1319 C1323 1.393 . S
C1320 H1309 0.950 . S
C1320 C1318 1.391 . S
C1320 C1321 1.400 . S
C1321 C1315 1.491 . S
C1321 C1320 1.400 . S
C1321 C1322 1.398 . S
C1322 H1310 0.950 . S
C1322 C1321 1.398 . S
C1322 C1323 1.391 . S
C1323 H1311 0.950 . S
C1323 C1319 1.393 . S
C1323 C1322 1.391 . S
H1324 C1332 0.950 . S
H1325 C1337 0.950 . S
H1326 C1334 0.950 . S
H1327 C1336 0.950 . S
H1328 C1338 0.950 . S
H1329 C1340 0.950 . S
H1330 C1342 0.950 . S
H1331 C1343 0.950 . S
C1332 H1324 0.950 . S
C1332 C1333 1.386 . S
C1332 C1334 1.391 . S
C1333 C1332 1.386 . S
C1333 C1337 1.393 . S
C1334 H1326 0.950 . S
C1334 C1332 1.391 . S
C1334 C1335 1.400 . S
C1335 C1334 1.400 . S
C1335 C1336 1.398 . S
C1335 C1341 1.491 . S
C1336 H1327 0.950 . S
C1336 C1335 1.398 . S
C1336 C1337 1.391 . S
C1337 H1325 0.950 . S
C1337 C1333 1.393 . S
C1337 C1336 1.391 . S
C1338 H1328 0.950 . S
C1338 C1339 1.386 . S
C1338 C1340 1.391 . S
C1339 C1338 1.386 . S
C1339 C1343 1.393 . S
C1340 H1329 0.950 . S
C1340 C1338 1.391 . S
C1340 C1341 1.400 . S
C1341 C1335 1.491 . S
C1341 C1340 1.400 . S
C1341 C1342 1.398 . S
C1342 H1330 0.950 . S
C1342 C1341 1.398 . S
C1342 C1343 1.391 . S
C1343 H1331 0.950 . S
C1343 C1339 1.393 . S
C1343 C1342 1.391 . S
H1344 C1352 0.950 . S
H1345 C1357 0.950 . S
H1346 C1354 0.950 . S
H1347 C1356 0.950 . S
H1348 C1358 0.950 . S
H1349 C1360 0.950 . S
H1350 C1362 0.950 . S
H1351 C1363 0.950 . S
C1352 H1344 0.950 . S
C1352 C1353 1.386 . S
C1352 C1354 1.391 . S
C1353 C1352 1.386 . S
C1353 C1357 1.393 . S
C1354 H1346 0.950 . S
C1354 C1352 1.391 . S
C1354 C1355 1.400 . S
C1355 C1354 1.400 . S
C1355 C1356 1.398 . S
C1355 C1361 1.491 . S
C1356 H1347 0.950 . S
C1356 C1355 1.398 . S
C1356 C1357 1.391 . S
C1357 H1345 0.950 . S
C1357 C1353 1.393 . S
C1357 C1356 1.391 . S
C1358 H1348 0.950 . S
C1358 C1359 1.386 . S
C1358 C1360 1.391 . S
C1359 C1358 1.386 . S
C1359 C1363 1.393 . S
C1360 H1349 0.950 . S
C1360 C1358 1.391 . S
C1360 C1361 1.400 . S
C1361 C1355 1.491 . S
C1361 C1360 1.400 . S
C1361 C1362 1.398 . S
C1362 H1350 0.950 . S
C1362 C1361 1.398 . S
C1362 C1363 1.391 . S
C1363 H1351 0.950 . S
C1363 C1359 1.393 . S
C1363 C1362 1.391 . S
H1364 C1372 0.950 . S
H1365 C1377 0.950 . S
H1366 C1374 0.950 . S
H1367 C1376 0.950 . S
H1368 C1378 0.950 . S
H1369 C1380 0.950 . S
H1370 C1382 0.950 . S
H1371 C1383 0.950 . S
C1372 H1364 0.950 . S
C1372 C1373 1.386 . S
C1372 C1374 1.391 . S
C1373 C1372 1.386 . S
C1373 C1377 1.393 . S
C1374 H1366 0.950 . S
C1374 C1372 1.391 . S
C1374 C1375 1.400 . S
C1375 C1374 1.400 . S
C1375 C1376 1.398 . S
C1375 C1381 1.491 . S
C1376 H1367 0.950 . S
C1376 C1375 1.398 . S
C1376 C1377 1.391 . S
C1377 H1365 0.950 . S
C1377 C1373 1.393 . S
C1377 C1376 1.391 . S
C1378 H1368 0.950 . S
C1378 C1379 1.386 . S
C1378 C1380 1.391 . S
C1379 C1378 1.386 . S
C1379 C1383 1.393 . S
C1380 H1369 0.950 . S
C1380 C1378 1.391 . S
C1380 C1381 1.400 . S
C1381 C1375 1.491 . S
C1381 C1380 1.400 . S
C1381 C1382 1.398 . S
C1382 H1370 0.950 . S
C1382 C1381 1.398 . S
C1382 C1383 1.391 . S
C1383 H1371 0.950 . S
C1383 C1379 1.393 . S
C1383 C1382 1.391 . S
H1384 C1392 0.950 . S
H1385 C1397 0.950 . S
H1386 C1394 0.950 . S
H1387 C1396 0.950 . S
H1388 C1398 0.950 . S
H1389 C1400 0.950 . S
H1390 C1402 0.950 . S
H1391 C1403 0.950 . S
C1392 H1384 0.950 . S
C1392 C1393 1.386 . S
C1392 C1394 1.391 . S
C1393 C1392 1.386 . S
C1393 C1397 1.393 . S
C1394 H1386 0.950 . S
C1394 C1392 1.391 . S
C1394 C1395 1.400 . S
C1395 C1394 1.400 . S
C1395 C1396 1.398 . S
C1395 C1401 1.491 . S
C1396 H1387 0.950 . S
C1396 C1395 1.398 . S
C1396 C1397 1.391 . S
C1397 H1385 0.950 . S
C1397 C1393 1.393 . S
C1397 C1396 1.391 . S
C1398 H1388 0.950 . S
C1398 C1399 1.386 . S
C1398 C1400 1.391 . S
C1399 C1398 1.386 . S
C1399 C1403 1.393 . S
C1400 H1389 0.950 . S
C1400 C1398 1.391 . S
C1400 C1401 1.400 . S
C1401 C1395 1.491 . S
C1401 C1400 1.400 . S
C1401 C1402 1.398 . S
C1402 H1390 0.950 . S
C1402 C1401 1.398 . S
C1402 C1403 1.391 . S
C1403 H1391 0.950 . S
C1403 C1399 1.393 . S
C1403 C1402 1.391 . S
H1404 C1412 0.950 . S
H1405 C1417 0.950 . S
H1406 C1414 0.950 . S
H1407 C1416 0.950 . S
H1408 C1418 0.950 . S
H1409 C1420 0.950 . S
H1410 C1422 0.950 . S
H1411 C1423 0.950 . S
C1412 H1404 0.950 . S
C1412 C1413 1.386 . S
C1412 C1414 1.391 . S
C1413 C1412 1.386 . S
C1413 C1417 1.393 . S
C1414 H1406 0.950 . S
C1414 C1412 1.391 . S
C1414 C1415 1.400 . S
C1415 C1414 1.400 . S
C1415 C1416 1.398 . S
C1415 C1421 1.491 . S
C1416 H1407 0.950 . S
C1416 C1415 1.398 . S
C1416 C1417 1.391 . S
C1417 H1405 0.950 . S
C1417 C1413 1.393 . S
C1417 C1416 1.391 . S
C1418 H1408 0.950 . S
C1418 C1419 1.386 . S
C1418 C1420 1.391 . S
C1419 C1418 1.386 . S
C1419 C1423 1.393 . S
C1420 H1409 0.950 . S
C1420 C1418 1.391 . S
C1420 C1421 1.400 . S
C1421 C1415 1.491 . S
C1421 C1420 1.400 . S
C1421 C1422 1.398 . S
C1422 H1410 0.950 . S
C1422 C1421 1.398 . S
C1422 C1423 1.391 . S
C1423 H1411 0.950 . S
C1423 C1419 1.393 . S
C1423 C1422 1.391 . S
H1424 C1432 0.950 . S
H1425 C1437 0.967 . S
H1426 C1434 0.950 . S
H1427 C1436 0.950 . S
H1428 C1438 0.950 . S
H1429 C1440 0.950 . S
H1430 C1442 0.950 . S
H1431 C1443 0.967 . S
C1432 H1424 0.950 . S
C1432 C1433 1.386 . S
C1432 C1434 1.391 . S
C1433 C1432 1.386 . S
C1433 C1437 1.368 1_455 S
C1434 H1426 0.950 . S
C1434 C1432 1.391 . S
C1434 C1435 1.400 . S
C1435 C1434 1.400 . S
C1435 C1436 1.398 1_455 S
C1435 C1441 1.491 1_455 S
C1436 H1427 0.950 . S
C1436 C1435 1.398 1_655 S
C1436 C1437 1.400 . S
C1437 H1425 0.967 . S
C1437 C1433 1.368 1_655 S
C1437 C1436 1.400 . S
C1438 H1428 0.950 . S
C1438 C1439 1.386 . S
C1438 C1440 1.391 . S
C1439 C1438 1.386 . S
C1439 C1443 1.368 1_655 S
C1440 H1429 0.950 . S
C1440 C1438 1.391 . S
C1440 C1441 1.400 . S
C1441 C1435 1.491 1_655 S
C1441 C1440 1.400 . S
C1441 C1442 1.398 1_655 S
C1442 H1430 0.950 . S
C1442 C1441 1.398 1_455 S
C1442 C1443 1.400 . S
C1443 H1431 0.967 . S
C1443 C1439 1.368 1_455 S
C1443 C1442 1.400 . S
H1444 C1452 0.950 . S
H1445 C1457 0.950 . S
H1446 C1454 0.950 . S
H1447 C1456 0.950 . S
H1448 C1458 0.950 . S
H1449 C1460 0.950 . S
H1450 C1462 0.950 . S
H1451 C1463 0.950 . S
C1452 H1444 0.950 . S
C1452 C1453 1.386 1_545 S
C1452 C1454 1.391 . S
C1453 C1452 1.386 1_565 S
C1453 C1457 1.393 . S
C1454 H1446 0.950 . S
C1454 C1452 1.391 . S
C1454 C1455 1.400 1_545 S
C1455 C1454 1.400 1_565 S
C1455 C1456 1.398 . S
C1455 C1461 1.491 1_565 S
C1456 H1447 0.950 . S
C1456 C1455 1.398 . S
C1456 C1457 1.391 . S
C1457 H1445 0.950 . S
C1457 C1453 1.393 . S
C1457 C1456 1.391 . S
C1458 H1448 0.950 . S
C1458 C1459 1.386 1_565 S
C1458 C1460 1.391 . S
C1459 C1458 1.386 1_545 S
C1459 C1463 1.393 . S
C1460 H1449 0.950 . S
C1460 C1458 1.391 . S
C1460 C1461 1.400 1_565 S
C1461 C1455 1.491 1_545 S
C1461 C1460 1.400 1_545 S
C1461 C1462 1.398 . S
C1462 H1450 0.950 . S
C1462 C1461 1.398 . S
C1462 C1463 1.391 . S
C1463 H1451 0.950 . S
C1463 C1459 1.393 . S
C1463 C1462 1.391 . S
H1464 C1472 0.950 . S
H1465 C1477 0.950 . S
H1466 C1474 0.950 . S
H1467 C1476 0.940 1_655 S
H1468 C1478 0.950 . S
H1469 C1480 0.950 . S
H1470 C1482 0.940 1_455 S
H1471 C1483 0.950 . S
C1472 H1464 0.950 . S
C1472 C1473 1.386 . S
C1472 C1474 1.391 . S
C1473 C1472 1.386 . S
C1473 C1477 1.393 . S
C1474 H1466 0.950 . S
C1474 C1472 1.391 . S
C1474 C1475 1.400 . S
C1475 C1474 1.400 . S
C1475 C1476 1.398 . S
C1475 C1481 1.491 1_455 S
C1476 H1467 0.940 1_455 S
C1476 C1475 1.398 . S
C1476 C1477 1.391 . S
C1477 H1465 0.950 . S
C1477 C1473 1.393 . S
C1477 C1476 1.391 . S
C1478 H1468 0.950 . S
C1478 C1479 1.386 . S
C1478 C1480 1.391 . S
C1479 C1478 1.386 . S
C1479 C1483 1.393 . S
C1480 H1469 0.950 . S
C1480 C1478 1.391 . S
C1480 C1481 1.400 . S
C1481 C1475 1.491 1_655 S
C1481 C1480 1.400 . S
C1481 C1482 1.398 . S
C1482 H1470 0.940 1_655 S
C1482 C1481 1.398 . S
C1482 C1483 1.391 . S
C1483 H1471 0.950 . S
C1483 C1479 1.393 . S
C1483 C1482 1.391 . S
H1484 C1492 0.950 . S
H1485 C1497 0.950 . S
H1486 C1494 0.950 . S
H1487 C1496 0.950 . S
H1488 C1498 0.950 . S
H1489 C1500 0.950 . S
H1490 C1502 0.950 . S
H1491 C1503 0.950 . S
C1492 H1484 0.950 . S
C1492 C1493 1.386 1_565 S
C1492 C1494 1.391 . S
C1493 C1492 1.386 1_545 S
C1493 C1497 1.393 . S
C1494 H1486 0.950 . S
C1494 C1492 1.391 . S
C1494 C1495 1.400 1_565 S
C1495 C1494 1.400 1_545 S
C1495 C1496 1.398 . S
C1495 C1501 1.491 1_545 S
C1496 H1487 0.950 . S
C1496 C1495 1.398 . S
C1496 C1497 1.391 . S
C1497 H1485 0.950 . S
C1497 C1493 1.393 . S
C1497 C1496 1.391 . S
C1498 H1488 0.950 . S
C1498 C1499 1.386 1_545 S
C1498 C1500 1.391 . S
C1499 C1498 1.386 1_565 S
C1499 C1503 1.393 . S
C1500 H1489 0.950 . S
C1500 C1498 1.391 . S
C1500 C1501 1.400 1_545 S
C1501 C1495 1.491 1_565 S
C1501 C1500 1.400 1_565 S
C1501 C1502 1.398 . S
C1502 H1490 0.950 . S
C1502 C1501 1.398 . S
C1502 C1503 1.391 . S
C1503 H1491 0.950 . S
C1503 C1499 1.393 . S
C1503 C1502 1.391 . S
H1504 C1512 0.950 . S
H1505 C1517 0.950 . S
H1506 C1514 0.950 . S
H1507 C1516 0.950 . S
H1508 C1518 0.950 . S
H1509 C1520 0.950 . S
H1510 C1522 0.950 . S
H1511 C1523 0.950 . S
C1512 H1504 0.950 . S
C1512 C1513 1.386 . S
C1512 C1514 1.391 . S
C1513 C1512 1.386 . S
C1513 C1517 1.393 . S
C1514 H1506 0.950 . S
C1514 C1512 1.391 . S
C1514 C1515 1.400 . S
C1515 C1514 1.400 . S
C1515 C1516 1.398 . S
C1515 C1521 1.491 1_556 S
C1516 H1507 0.950 . S
C1516 C1515 1.398 . S
C1516 C1517 1.391 . S
C1517 H1505 0.950 . S
C1517 C1513 1.393 . S
C1517 C1516 1.391 . S
C1518 H1508 0.950 . S
C1518 C1519 1.386 . S
C1518 C1520 1.391 . S
C1519 C1518 1.386 . S
C1519 C1523 1.393 . S
C1520 H1509 0.950 . S
C1520 C1518 1.391 . S
C1520 C1521 1.400 . S
C1521 C1515 1.491 1_554 S
C1521 C1520 1.400 . S
C1521 C1522 1.398 . S
C1522 H1510 0.950 . S
C1522 C1521 1.398 . S
C1522 C1523 1.391 . S
C1523 H1511 0.950 . S
C1523 C1519 1.393 . S
C1523 C1522 1.391 . S
H1524 C1532 0.950 . S
H1525 C1537 0.950 . S
H1526 C1534 0.950 . S
H1527 C1536 0.950 . S
H1528 C1538 0.950 . S
H1529 C1540 0.950 . S
H1530 C1542 0.950 . S
H1531 C1543 0.950 . S
C1532 H1524 0.950 . S
C1532 C1533 1.386 . S
C1532 C1534 1.391 . S
C1533 C1532 1.386 . S
C1533 C1537 1.393 . S
C1534 H1526 0.950 . S
C1534 C1532 1.391 . S
C1534 C1535 1.400 . S
C1535 C1534 1.400 . S
C1535 C1536 1.398 . S
C1535 C1541 1.491 1_556 S
C1536 H1527 0.950 . S
C1536 C1535 1.398 . S
C1536 C1537 1.391 . S
C1537 H1525 0.950 . S
C1537 C1533 1.393 . S
C1537 C1536 1.391 . S
C1538 H1528 0.950 . S
C1538 C1539 1.386 . S
C1538 C1540 1.391 . S
C1539 C1538 1.386 . S
C1539 C1543 1.393 . S
C1540 H1529 0.950 . S
C1540 C1538 1.391 . S
C1540 C1541 1.400 . S
C1541 C1535 1.491 1_554 S
C1541 C1540 1.400 . S
C1541 C1542 1.398 . S
C1542 H1530 0.950 . S
C1542 C1541 1.398 . S
C1542 C1543 1.391 . S
C1543 H1531 0.950 . S
C1543 C1539 1.393 . S
C1543 C1542 1.391 . S
H1544 C1552 0.950 . S
H1545 C1557 0.950 . S
H1546 C1554 0.950 . S
H1547 C1556 0.950 . S
H1548 C1558 0.950 . S
H1549 C1560 0.950 . S
H1550 C1562 0.950 . S
H1551 C1563 0.950 . S
C1552 H1544 0.950 . S
C1552 C1553 1.386 . S
C1552 C1554 1.391 . S
C1553 C1552 1.386 . S
C1553 C1557 1.393 . S
C1554 H1546 0.950 . S
C1554 C1552 1.391 . S
C1554 C1555 1.400 . S
C1555 C1554 1.400 . S
C1555 C1556 1.398 . S
C1555 C1561 1.491 1_554 S
C1556 H1547 0.950 . S
C1556 C1555 1.398 . S
C1556 C1557 1.391 . S
C1557 H1545 0.950 . S
C1557 C1553 1.393 . S
C1557 C1556 1.391 . S
C1558 H1548 0.950 . S
C1558 C1559 1.386 . S
C1558 C1560 1.391 . S
C1559 C1558 1.386 . S
C1559 C1563 1.393 . S
C1560 H1549 0.950 . S
C1560 C1558 1.391 . S
C1560 C1561 1.400 . S
C1561 C1555 1.491 1_556 S
C1561 C1560 1.400 . S
C1561 C1562 1.398 . S
C1562 H1550 0.950 . S
C1562 C1561 1.398 . S
C1562 C1563 1.391 . S
C1563 H1551 0.950 . S
C1563 C1559 1.393 . S
C1563 C1562 1.391 . S
H1564 C1572 0.950 . S
H1565 C1577 0.950 . S
H1566 C1574 0.950 . S
H1567 C1576 0.950 . S
H1568 C1578 0.950 . S
H1569 C1580 0.950 . S
H1570 C1582 0.950 . S
H1571 C1583 0.950 . S
C1572 H1564 0.950 . S
C1572 C1573 1.386 . S
C1572 C1574 1.391 . S
C1573 C1572 1.386 . S
C1573 C1577 1.393 . S
C1574 H1566 0.950 . S
C1574 C1572 1.391 . S
C1574 C1575 1.400 . S
C1575 C1574 1.400 . S
C1575 C1576 1.398 . S
C1575 C1581 1.491 1_556 S
C1576 H1567 0.950 . S
C1576 C1575 1.398 . S
C1576 C1577 1.391 . S
C1577 H1565 0.950 . S
C1577 C1573 1.393 . S
C1577 C1576 1.391 . S
C1578 H1568 0.950 . S
C1578 C1579 1.386 . S
C1578 C1580 1.391 . S
C1579 C1578 1.386 . S
C1579 C1583 1.393 . S
C1580 H1569 0.950 . S
C1580 C1578 1.391 . S
C1580 C1581 1.400 . S
C1581 C1575 1.491 1_554 S
C1581 C1580 1.400 . S
C1581 C1582 1.398 . S
C1582 H1570 0.950 . S
C1582 C1581 1.398 . S
C1582 C1583 1.391 . S
C1583 H1571 0.950 . S
C1583 C1579 1.393 . S
C1583 C1582 1.391 . S
C953 C3 1.627 . S
C959 C229 1.644 1_545 S
C973 C52 1.645 1_655 S
C979 C62 1.626 . S
C993 C111 1.646 1_565 S
C999 C121 1.625 . S
C1013 C170 1.653 1_455 S
C1019 C180 1.614 . S
C1033 C239 1.633 . S
C1039 C347 1.640 1_565 S
C1053 C298 1.613 . S
C1059 C406 1.653 1_455 S
C1073 C357 1.615 . S
C1079 C465 1.652 1_545 S
C1093 C416 1.633 . S
C1099 C288 1.640 1_655 S
C1113 C475 1.629 . S
C1119 C701 1.643 . S
C1133 C524 1.643 . S
C1139 C534 1.629 . S
C1153 C583 1.642 . S
C1159 C593 1.630 . S
C1173 C652 1.630 . S
C1179 C642 1.642 . S
C1193 C819 1.645 . S
C1199 C711 1.626 . S
C1213 C878 1.647 . S
C1219 C770 1.623 . S
C1233 C829 1.623 . S
C1239 C937 1.647 . S
C1253 C888 1.615 . S
C1259 C760 1.653 . S
C1273 C5 1.429 . S
C1279 C890 1.426 . S
C1293 C64 1.425 . S
C1299 C713 1.425 . S
C1313 C772 1.426 . S
C1319 C123 1.428 . S
C1333 C182 1.432 . S
C1339 C831 1.437 . S
C1353 C536 1.452 . S
C1359 C241 1.453 . S
C1373 C595 1.453 . S
C1379 C300 1.450 . S
C1393 C359 1.432 . S
C1399 C654 1.438 . S
C1413 C418 1.446 . S
C1419 C477 1.441 . S
C1433 C33 1.684 . S
C1439 C387 1.675 . S
C1453 C446 1.675 . S
C1459 C92 1.686 . S
C1473 C269 1.686 . S
C1479 C151 1.686 . S
C1493 C328 1.675 . S
C1499 C210 1.686 . S
C1513 C505 1.678 . S
C1519 C859 1.689 . S
C1533 C564 1.683 . S
C1539 C918 1.676 . S
C1553 C741 1.676 . S
C1559 C623 1.687 . S
C1573 C682 1.676 . S
C1579 C800 1.683 . S
