# Generated by pormake.
# Topology uot, (4)-cn, num edge types: 1
# Building blocks:
#     Node 0, Type 0, BuildingBlock: TATPOV_clean_sbu_0, # of connection points: 4
#     Node 1, Type 0, BuildingBlock: TATPOV_clean_sbu_0, # of connection points: 4
#     Node 2, Type 0, BuildingBlock: TATPOV_clean_sbu_0, # of connection points: 4
#     Node 3, Type 0, BuildingBlock: TATPOV_clean_sbu_0, # of connection points: 4
#     Node 4, Type 0, BuildingBlock: TATPOV_clean_sbu_0, # of connection points: 4
#     Node 5, Type 0, BuildingBlock: TATPOV_clean_sbu_0, # of connection points: 4
#     Node 6, Type 0, BuildingBlock: TATPOV_clean_sbu_0, # of connection points: 4
#     Node 7, Type 0, BuildingBlock: TATPOV_clean_sbu_0, # of connection points: 4
#     Node 8, Type 0, BuildingBlock: TATPOV_clean_sbu_0, # of connection points: 4
#     Node 9, Type 0, BuildingBlock: TATPOV_clean_sbu_0, # of connection points: 4
#     Node 10, Type 0, BuildingBlock: TATPOV_clean_sbu_0, # of connection points: 4
#     Node 11, Type 0, BuildingBlock: TATPOV_clean_sbu_0, # of connection points: 4
#     Node 12, Type 0, BuildingBlock: TATPOV_clean_sbu_0, # of connection points: 4
#     Node 13, Type 0, BuildingBlock: TATPOV_clean_sbu_0, # of connection points: 4
#     Node 14, Type 0, BuildingBlock: TATPOV_clean_sbu_0, # of connection points: 4
#     Node 15, Type 0, BuildingBlock: TATPOV_clean_sbu_0, # of connection points: 4
#     Edge 16, Type (0, 0), BuildingBlock: CIFDUS_clean_linker_0, # of connection points: 2
#     Edge 17, Type (0, 0), BuildingBlock: CIFDUS_clean_linker_0, # of connection points: 2
#     Edge 18, Type (0, 0), BuildingBlock: CIFDUS_clean_linker_0, # of connection points: 2
#     Edge 19, Type (0, 0), BuildingBlock: CIFDUS_clean_linker_0, # of connection points: 2
#     Edge 20, Type (0, 0), BuildingBlock: CIFDUS_clean_linker_0, # of connection points: 2
#     Edge 21, Type (0, 0), BuildingBlock: CIFDUS_clean_linker_0, # of connection points: 2
#     Edge 22, Type (0, 0), BuildingBlock: CIFDUS_clean_linker_0, # of connection points: 2
#     Edge 23, Type (0, 0), BuildingBlock: CIFDUS_clean_linker_0, # of connection points: 2
#     Edge 24, Type (0, 0), BuildingBlock: CIFDUS_clean_linker_0, # of connection points: 2
#     Edge 25, Type (0, 0), BuildingBlock: CIFDUS_clean_linker_0, # of connection points: 2
#     Edge 26, Type (0, 0), BuildingBlock: CIFDUS_clean_linker_0, # of connection points: 2
#     Edge 27, Type (0, 0), BuildingBlock: CIFDUS_clean_linker_0, # of connection points: 2
#     Edge 28, Type (0, 0), BuildingBlock: CIFDUS_clean_linker_0, # of connection points: 2
#     Edge 29, Type (0, 0), BuildingBlock: CIFDUS_clean_linker_0, # of connection points: 2
#     Edge 30, Type (0, 0), BuildingBlock: CIFDUS_clean_linker_0, # of connection points: 2
#     Edge 31, Type (0, 0), BuildingBlock: CIFDUS_clean_linker_0, # of connection points: 2
#     Edge 32, Type (0, 0), BuildingBlock: CIFDUS_clean_linker_0, # of connection points: 2
#     Edge 33, Type (0, 0), BuildingBlock: CIFDUS_clean_linker_0, # of connection points: 2
#     Edge 34, Type (0, 0), BuildingBlock: CIFDUS_clean_linker_0, # of connection points: 2
#     Edge 35, Type (0, 0), BuildingBlock: CIFDUS_clean_linker_0, # of connection points: 2
#     Edge 36, Type (0, 0), BuildingBlock: CIFDUS_clean_linker_0, # of connection points: 2
#     Edge 37, Type (0, 0), BuildingBlock: CIFDUS_clean_linker_0, # of connection points: 2
#     Edge 38, Type (0, 0), BuildingBlock: CIFDUS_clean_linker_0, # of connection points: 2
#     Edge 39, Type (0, 0), BuildingBlock: CIFDUS_clean_linker_0, # of connection points: 2
#     Edge 40, Type (0, 0), BuildingBlock: CIFDUS_clean_linker_0, # of connection points: 2
#     Edge 41, Type (0, 0), BuildingBlock: CIFDUS_clean_linker_0, # of connection points: 2
#     Edge 42, Type (0, 0), BuildingBlock: CIFDUS_clean_linker_0, # of connection points: 2
#     Edge 43, Type (0, 0), BuildingBlock: CIFDUS_clean_linker_0, # of connection points: 2
#     Edge 44, Type (0, 0), BuildingBlock: CIFDUS_clean_linker_0, # of connection points: 2
#     Edge 45, Type (0, 0), BuildingBlock: CIFDUS_clean_linker_0, # of connection points: 2
#     Edge 46, Type (0, 0), BuildingBlock: CIFDUS_clean_linker_0, # of connection points: 2
#     Edge 47, Type (0, 0), BuildingBlock: CIFDUS_clean_linker_0, # of connection points: 2
# Relax obj value: 0.140
# Max RMSD: 0.189
# Mean RMSD: 0.189
data_MOF--net-uot--node1-TATPOV_clean_sbu_0--edge1-CIFDUS_clean_linker_0
_symmetry_space_group_name_H-M    P1
_symmetry_Int_Tables_number       1
_symmetry_cell_setting            triclinic
loop_
_symmetry_equiv_pos_as_xyz
'x, y, z'
_cell_length_a     38.112144
_cell_length_b     38.227572
_cell_length_c     37.03492
_cell_angle_alpha  89.907608
_cell_angle_beta   89.774943
_cell_angle_gamma 90.11884
loop_
_atom_site_label
_atom_site_type_symbol
_atom_site_fract_x
_atom_site_fract_y
_atom_site_fract_z
_atom_type_partial_charge
Zn0 Zn 0.1833 0.48563 0.3345 0.0
Zn1 Zn 0.22824 0.44212 0.3069 0.0
O2 O 0.18185 0.41406 0.30464 0.0
O3 O 0.1448 0.44948 0.33167 0.0
O4 O 0.26416 0.40647 0.29031 0.0
O5 O 0.20975 0.49433 0.37918 0.0
O6 O 0.24627 0.45429 0.35894 0.0
C7 C 0.15094 0.4207 0.31598 0.0
C8 C 0.21103 0.51079 0.26797 0.0
O9 O 0.22787 0.48193 0.26803 0.0
O10 O 0.19064 0.51841 0.29374 0.0
C11 C 0.29684 0.41043 0.29598 0.0
O12 O 0.30792 0.43971 0.31061 0.0
C13 C 0.23693 0.47601 0.38329 0.0
Zn14 Zn 0.47808 0.8652 0.65369 0.0
Zn15 Zn 0.45472 0.80521 0.68268 0.0
O16 O 0.41585 0.84173 0.69293 0.0
O17 O 0.43396 0.89048 0.667 0.0
O18 O 0.43187 0.76116 0.70138 0.0
O19 O 0.48057 0.8433 0.60528 0.0
O20 O 0.46342 0.793 0.62873 0.0
C21 C 0.41092 0.87371 0.68457 0.0
C22 C 0.52234 0.8371 0.71049 0.0
O23 O 0.49953 0.81276 0.71281 0.0
O24 O 0.51898 0.86167 0.68781 0.0
C25 C 0.44157 0.73076 0.69176 0.0
O26 O 0.46967 0.72749 0.67138 0.0
C27 C 0.47312 0.81129 0.60169 0.0
Zn28 Zn 0.82546 0.50923 0.35502 0.0
Zn29 Zn 0.76792 0.54051 0.32955 0.0
O30 O 0.80815 0.57543 0.32024 0.0
O31 O 0.85554 0.55201 0.34359 0.0
O32 O 0.72575 0.56804 0.31402 0.0
O33 O 0.80248 0.50102 0.4028 0.0
O34 O 0.75521 0.52755 0.38237 0.0
C35 C 0.84091 0.57694 0.32688 0.0
C36 C 0.79264 0.47364 0.29444 0.0
O37 O 0.77084 0.49886 0.29472 0.0
O38 O 0.81744 0.4725 0.31707 0.0
C39 C 0.72507 0.58442 0.28414 0.0
O40 O 0.75182 0.58157 0.26185 0.0
C41 C 0.77128 0.51131 0.40739 0.0
Zn42 Zn 0.52904 0.15291 0.64455 0.0
Zn43 Zn 0.54439 0.21684 0.66958 0.0
O44 O 0.58743 0.18589 0.68105 0.0
O45 O 0.57503 0.13301 0.66154 0.0
O46 O 0.56212 0.26473 0.68437 0.0
O47 O 0.52601 0.1713 0.59445 0.0
O48 O 0.53294 0.22487 0.61529 0.0
C49 C 0.59606 0.15397 0.67668 0.0
C50 C 0.48059 0.17859 0.69967 0.0
O51 O 0.50141 0.20471 0.7017 0.0
O52 O 0.48618 0.15435 0.67707 0.0
C53 C 0.58316 0.26895 0.71062 0.0
O54 O 0.59039 0.24212 0.7315 0.0
C55 C 0.52738 0.20393 0.58918 0.0
Zn56 Zn 0.18601 0.51922 0.63433 0.0
Zn57 Zn 0.24332 0.54864 0.66212 0.0
O58 O 0.2038 0.58377 0.67303 0.0
O59 O 0.15659 0.56159 0.64788 0.0
O60 O 0.28595 0.57469 0.6797 0.0
O61 O 0.20852 0.51381 0.58612 0.0
O62 O 0.25573 0.5393 0.60818 0.0
C63 C 0.17115 0.58568 0.66593 0.0
C64 C 0.21671 0.48005 0.69334 0.0
O65 O 0.2388 0.50509 0.69482 0.0
O66 O 0.19257 0.48019 0.66994 0.0
C67 C 0.31704 0.56574 0.67132 0.0
O68 O 0.32192 0.53715 0.65232 0.0
C69 C 0.23959 0.52473 0.58213 0.0
Zn70 Zn 0.53462 0.85746 0.33865 0.0
Zn71 Zn 0.54722 0.79156 0.32864 0.0
O72 O 0.59437 0.81802 0.32213 0.0
O73 O 0.58531 0.87165 0.34094 0.0
O74 O 0.56314 0.74188 0.32223 0.0
O75 O 0.50722 0.84637 0.38321 0.0
O76 O 0.52447 0.79156 0.37948 0.0
C77 C 0.60608 0.84852 0.3292 0.0
C78 C 0.5011 0.82987 0.27554 0.0
O79 O 0.51175 0.80054 0.28761 0.0
O80 O 0.5094 0.85811 0.29113 0.0
C81 C 0.58153 0.73396 0.29474 0.0
O82 O 0.5871 0.75783 0.26978 0.0
C83 C 0.508 0.81571 0.39606 0.0
Zn84 Zn 0.8067 0.51967 0.65777 0.0
Zn85 Zn 0.76458 0.47301 0.68304 0.0
O86 O 0.80952 0.44354 0.67845 0.0
O87 O 0.84461 0.4827 0.65389 0.0
O88 O 0.72727 0.43833 0.69846 0.0
O89 O 0.77822 0.53371 0.616 0.0
O90 O 0.74469 0.48981 0.63319 0.0
C91 C 0.83951 0.45196 0.66575 0.0
C92 C 0.78614 0.53698 0.72848 0.0
O93 O 0.76978 0.50787 0.72627 0.0
O94 O 0.80332 0.54848 0.70175 0.0
C95 C 0.73133 0.41559 0.72318 0.0
O96 O 0.76096 0.4149 0.74118 0.0
C97 C 0.75186 0.51438 0.61093 0.0
Zn98 Zn 0.47365 0.12786 0.33653 0.0
Zn99 Zn 0.45366 0.1871 0.31554 0.0
O100 O 0.41065 0.15328 0.31293 0.0
O101 O 0.426 0.10728 0.34451 0.0
O102 O 0.43109 0.2328 0.30047 0.0
O103 O 0.50083 0.1484 0.37717 0.0
O104 O 0.47372 0.19805 0.36654 0.0
C105 C 0.40286 0.12379 0.32713 0.0
C106 C 0.5059 0.14619 0.27016 0.0
O107 O 0.49312 0.17615 0.27783 0.0
O108 O 0.49829 0.11987 0.2894 0.0
C109 C 0.444 0.26279 0.30716 0.0
O110 O 0.47494 0.26483 0.32255 0.0
C111 C 0.49437 0.17971 0.3858 0.0
Zn112 Zn 0.68942 0.99635 0.84978 0.0
Zn113 Zn 0.73703 0.9582 0.81635 0.0
O114 O 0.69365 0.92649 0.81374 0.0
O115 O 0.65463 0.95626 0.84496 0.0
O116 O 0.77562 0.92799 0.7954 0.0
O117 O 0.7179 0.00288 0.89386 0.0
O118 O 0.75537 0.96656 0.86863 0.0
C119 C 0.66285 0.92932 0.8269 0.0
C120 C 0.71223 0.02786 0.78386 0.0
O121 O 0.73118 1.00045 0.78129 0.0
O122 O 0.69272 0.03241 0.81114 0.0
C123 C 0.80761 0.93474 0.80229 0.0
O124 O 0.81524 0.96327 0.8204 0.0
C125 C 0.74595 0.98544 0.89529 0.0
Zn126 Zn 0.95909 0.35589 0.14825 0.0
Zn127 Zn 0.94941 0.28935 0.16276 0.0
O128 O 0.90519 0.31642 0.18007 0.0
O129 O 0.91044 0.37048 0.16061 0.0
O130 O 0.93378 0.23984 0.17299 0.0
O131 O 0.96995 0.34489 0.0971 0.0
O132 O 0.95965 0.28905 0.10752 0.0
C133 C 0.89264 0.3471 0.17642 0.0
C134 C 0.00722 0.32801 0.2016 0.0
O135 O 0.99313 0.29858 0.19433 0.0
O136 O 0.99645 0.35578 0.18667 0.0
C137 C 0.9167 0.23313 0.20179 0.0
O138 O 0.91333 0.25771 0.2263 0.0
C139 C 0.96751 0.31379 0.0858 0.0
Zn140 Zn 0.34122 0.01387 0.84677 0.0
Zn141 Zn 0.24965 0.05083 0.81136 0.0
O142 O 0.29964 0.0766 0.803 0.0
O143 O 0.35354 0.06078 0.82306 0.0
O144 O 0.21083 0.08164 0.79305 0.0
O145 O 0.29018 0.02523 0.8545 0.0
O146 O 0.23816 0.04211 0.86622 0.0
C147 C 0.33311 0.08178 0.80604 0.0
C148 C 0.27918 0.98969 0.79426 0.0
O149 O 0.25119 0.00382 0.78309 0.0
O150 O 0.29541 0.00616 0.81871 0.0
C151 C 0.21214 0.09966 0.76422 0.0
O152 O 0.24003 0.09758 0.74338 0.0
C153 C 0.26678 0.03034 0.87811 0.0
Zn154 Zn 0.01601 0.63695 0.14287 0.0
Zn155 Zn 0.05255 0.69061 0.17013 0.0
O156 O 0.0887 0.65069 0.16779 0.0
O157 O 0.06001 0.6071 0.14276 0.0
O158 O 0.08234 0.73148 0.18669 0.0
O159 O 1.0021 0.66486 0.09971 0.0
O160 O 0.03501 0.70792 0.12014 0.0
C161 C 0.08808 0.6194 0.15592 0.0
C162 C 0.98953 0.66028 0.21171 0.0
O163 O 0.01472 0.68234 0.21017 0.0
O164 O 0.98476 0.63856 0.18646 0.0
C165 C 0.07383 0.76307 0.18038 0.0
O166 O 0.04339 0.76959 0.16531 0.0
C167 C 0.01469 0.69528 0.09622 0.0
Zn168 Zn 0.6933 0.98429 0.14873 0.0
Zn169 Zn 0.73214 0.0337 0.17609 0.0
O170 O 0.6847 0.05928 0.17717 0.0
O171 O 0.65199 0.01786 0.15338 0.0
O172 O 0.76809 0.069 0.19195 0.0
O173 O 0.7204 0.97949 0.10312 0.0
O174 O 0.75088 0.02374 0.12431 0.0
C175 C 0.65477 0.04824 0.16687 0.0
C176 C 0.72103 0.96373 0.21615 0.0
O177 O 0.73302 0.99493 0.21558 0.0
O178 O 0.70424 0.95203 0.18936 0.0
C179 C 0.76712 0.08872 0.2195 0.0
O180 O 0.74021 0.08684 0.2417 0.0
C181 C 0.74473 0.00167 0.09935 0.0
Zn182 Zn 0.0322 0.3724 0.81561 0.0
Zn183 Zn 0.03715 0.30726 0.80668 0.0
O184 O 0.08513 0.3302 0.79314 0.0
O185 O 0.08329 0.38363 0.81442 0.0
O186 O 0.04951 0.25647 0.7996 0.0
O187 O 0.00794 0.36599 0.86275 0.0
O188 O 0.02077 0.31003 0.86026 0.0
C189 C 0.10034 0.35926 0.79958 0.0
C190 C 0.98878 0.34837 0.75824 0.0
O191 O 0.99669 0.31849 0.7712 0.0
O192 O 0.00337 0.3757 0.77034 0.0
C193 C 0.06677 0.24786 0.77152 0.0
O194 O 0.07208 0.27142 0.74619 0.0
C195 C 0.00792 0.33605 0.87729 0.0
Zn196 Zn 0.33371 0.97822 0.14336 0.0
Zn197 Zn 0.27611 0.9481 0.16224 0.0
O198 O 0.3156 0.91219 0.17398 0.0
O199 O 0.36427 0.93808 0.15638 0.0
O200 O 0.23299 0.91938 0.17425 0.0
O201 O 0.31956 0.98484 0.0931 0.0
O202 O 0.26845 0.96218 0.10788 0.0
C203 C 0.34888 0.91186 0.16999 0.0
C204 C 0.29758 0.01568 0.19913 0.0
O205 O 0.27602 0.99013 0.19791 0.0
O206 O 0.32393 0.01661 0.1783 0.0
C207 C 0.20192 0.92771 0.16535 0.0
O208 O 0.19659 0.95761 0.14873 0.0
C209 C 0.28871 0.97631 0.08444 0.0
Zn210 Zn 0.9857 0.65126 0.84191 0.0
Zn211 Zn 0.96509 0.71484 0.81761 0.0
O212 O 0.92115 0.68365 0.81747 0.0
O213 O 0.93582 0.63253 0.83994 0.0
O214 O 0.94463 0.76124 0.8019 0.0
O215 O 0.00419 0.67426 0.88661 0.0
O216 O 0.98454 0.72561 0.86846 0.0
C217 C 0.91271 0.65275 0.82712 0.0
C218 C 0.02016 0.67311 0.77561 0.0
O219 O 1.00212 0.70102 0.77891 0.0
O220 O 0.01732 0.64848 0.79833 0.0
C221 C 0.92132 0.76226 0.7774 0.0
O222 O 0.91348 0.73336 0.76003 0.0
C223 C 0.99997 0.70666 0.89182 0.0
H224 H 0.36698 0.40874 0.30997 0.0
H225 H 0.28192 0.34517 0.26982 0.0
H226 H 0.32072 0.29452 0.26711 0.0
H227 H 0.37746 0.26715 0.2806 0.0
H228 H 0.46217 0.33049 0.32187 0.0
H229 H 0.42491 0.38227 0.31935 0.0
C230 C 0.35696 0.38392 0.30025 0.0
C231 C 0.32143 0.3808 0.29042 0.0
C232 C 0.37933 0.35472 0.29914 0.0
C233 C 0.30906 0.34839 0.27774 0.0
C234 C 0.33124 0.31932 0.27625 0.0
C235 C 0.38794 0.29233 0.2887 0.0
C236 C 0.42255 0.29476 0.30172 0.0
C237 C 0.36622 0.32201 0.28758 0.0
C238 C 0.43563 0.32771 0.31192 0.0
C239 C 0.41429 0.35739 0.31056 0.0
H240 H 0.44968 0.66395 0.66754 0.0
H241 H 0.38015 0.72948 0.73002 0.0
H242 H 0.33675 0.68259 0.73227 0.0
H243 H 0.31593 0.6256 0.7109 0.0
H244 H 0.38478 0.56039 0.64734 0.0
H245 H 0.4311 0.60438 0.65152 0.0
C246 C 0.42528 0.66783 0.68214 0.0
C247 C 0.41805 0.70042 0.69813 0.0
C248 C 0.40012 0.6409 0.68288 0.0
C249 C 0.38634 0.70481 0.71716 0.0
C250 C 0.36141 0.67802 0.71839 0.0
C251 C 0.34121 0.62078 0.69831 0.0
C252 C 0.34665 0.58994 0.67838 0.0
C253 C 0.36759 0.64636 0.70043 0.0
C254 C 0.37973 0.58398 0.66264 0.0
C255 C 0.40624 0.6092 0.66491 0.0
H256 H 0.62934 0.71268 0.24465 0.0
H257 H 0.57746 0.67992 0.34295 0.0
H258 H 0.61534 0.62868 0.34631 0.0
H259 H 0.66685 0.59654 0.32482 0.0
H260 H 0.71988 0.63005 0.22747 0.0
H261 H 0.6776 0.6774 0.22012 0.0
C262 C 0.62595 0.69409 0.26654 0.0
C263 C 0.60085 0.70041 0.29374 0.0
C264 C 0.6482 0.66494 0.26866 0.0
C265 C 0.59673 0.67589 0.32179 0.0
C266 C 0.61845 0.64659 0.3238 0.0
C267 C 0.66896 0.61393 0.30174 0.0
C268 C 0.69678 0.60999 0.277 0.0
C269 C 0.64488 0.64139 0.29794 0.0
C270 C 0.69887 0.63258 0.24707 0.0
C271 C 0.67475 0.65976 0.24288 0.0
H272 H 0.63876 0.28185 0.75469 0.0
H273 H 0.57443 0.32974 0.67269 0.0
H274 H 0.61333 0.38053 0.67133 0.0
H275 H 0.66821 0.40903 0.68954 0.0
H276 H 0.73347 0.36044 0.7703 0.0
H277 H 0.69148 0.31241 0.77608 0.0
C278 C 0.63291 0.3036 0.73688 0.0
C279 C 0.6038 0.30178 0.71363 0.0
C280 C 0.65576 0.3325 0.73573 0.0
C281 C 0.59671 0.33028 0.69076 0.0
C282 C 0.61902 0.35934 0.68986 0.0
C283 C 0.67315 0.38812 0.70866 0.0
C284 C 0.70419 0.38825 0.72919 0.0
C285 C 0.64907 0.36035 0.7116 0.0
C286 C 0.70995 0.36099 0.75399 0.0
C287 C 0.68594 0.33344 0.7573 0.0
H288 H 0.80217 0.87518 0.76217 0.0
H289 H 0.87517 0.93476 0.82645 0.0
H290 H 0.9181 0.88776 0.82192 0.0
H291 H 0.93282 0.82749 0.80464 0.0
H292 H 0.86005 0.76805 0.73997 0.0
H293 H 0.81949 0.8173 0.73943 0.0
C294 C 0.82763 0.87807 0.77483 0.0
C295 C 0.83518 0.90831 0.79501 0.0
C296 C 0.85225 0.85084 0.77224 0.0
C297 C 0.86849 0.91175 0.81088 0.0
C298 C 0.89308 0.88479 0.80843 0.0
C299 C 0.90829 0.82545 0.79004 0.0
C300 C 0.89937 0.79393 0.77276 0.0
C301 C 0.88492 0.85387 0.78995 0.0
C302 C 0.86761 0.79191 0.75364 0.0
C303 C 0.84426 0.82005 0.75343 0.0
H304 H 0.82639 0.09713 0.17948 0.0
H305 H 0.77086 0.13992 0.27109 0.0
H306 H 0.81459 0.18655 0.27596 0.0
H307 H 0.86578 0.21772 0.25109 0.0
H308 H 0.91987 0.17565 0.1582 0.0
H309 H 0.87967 0.12589 0.1573 0.0
C310 C 0.8239 0.11648 0.20072 0.0
C311 C 0.79512 0.1152 0.22465 0.0
C312 C 0.84888 0.14338 0.20311 0.0
C313 C 0.79261 0.14035 0.25218 0.0
C314 C 0.8176 0.16706 0.25496 0.0
C315 C 0.86915 0.19741 0.23097 0.0
C316 C 0.8957 0.20057 0.20458 0.0
C317 C 0.84547 0.1692 0.23014 0.0
C318 C 0.89959 0.174 0.1787 0.0
C319 C 0.87652 0.14557 0.17809 0.0
H320 H 0.11644 0.22766 0.72292 0.0
H321 H 0.06127 0.19292 0.81856 0.0
H322 H 0.09967 0.14206 0.82268 0.0
H323 H 0.15238 0.11086 0.80281 0.0
H324 H 0.20901 0.14671 0.70852 0.0
H325 H 0.16635 0.19359 0.7001 0.0
C326 C 0.1124 0.20869 0.74436 0.0
C327 C 0.08618 0.21432 0.7706 0.0
C328 C 0.13508 0.17988 0.74704 0.0
C329 C 0.08136 0.18939 0.79813 0.0
C330 C 0.1034 0.16034 0.80059 0.0
C331 C 0.15525 0.12868 0.78017 0.0
C332 C 0.18414 0.12547 0.75659 0.0
C333 C 0.13094 0.15587 0.77579 0.0
C334 C 0.1872 0.14866 0.72724 0.0
C335 C 0.16283 0.17554 0.72243 0.0
H336 H 0.20503 0.86272 0.19554 0.0
H337 H 0.13309 0.93559 0.14642 0.0
H338 H 0.08632 0.89194 0.14949 0.0
H339 H 0.06702 0.83176 0.16196 0.0
H340 H 0.13942 0.75851 0.20976 0.0
H341 H 0.18463 0.80376 0.21165 0.0
C342 C 0.17905 0.86922 0.18579 0.0
C343 C 0.17275 0.90237 0.17047 0.0
C344 C 0.15233 0.84385 0.18727 0.0
C345 C 0.13881 0.91028 0.15816 0.0
C346 C 0.11202 0.88529 0.15986 0.0
C347 C 0.09254 0.82574 0.17318 0.0
C348 C 0.09981 0.79163 0.18543 0.0
C349 C 0.11865 0.85178 0.17373 0.0
C350 C 0.13307 0.78444 0.19997 0.0
C351 C 0.15902 0.81031 0.20099 0.0
H352 H 0.18107 0.49475 0.20487 0.0
H353 H 0.23237 0.57805 0.26226 0.0
H354 H 0.20194 0.62148 0.22548 0.0
H355 H 0.15001 0.63479 0.18906 0.0
H356 H 0.09457 0.55081 0.13611 0.0
H357 H 0.13726 0.50881 0.15861 0.0
C358 C 0.18703 0.52238 0.20778 0.0
C359 C 0.20895 0.53333 0.23597 0.0
C360 C 0.1675 0.54713 0.18827 0.0
C361 C 0.2159 0.56915 0.24031 0.0
C362 C 0.19794 0.59396 0.21977 0.0
C363 C 0.14774 0.60745 0.18165 0.0
C364 C 0.11849 0.59589 0.16183 0.0
C365 C 0.17187 0.5832 0.19554 0.0
C366 C 0.11637 0.56041 0.15198 0.0
C367 C 0.14081 0.53628 0.16485 0.0
H368 H 0.52201 0.85979 0.77905 0.0
H369 H 0.58963 0.82112 0.69484 0.0
H370 H 0.64134 0.84123 0.72795 0.0
H371 H 0.66575 0.87938 0.77474 0.0
H372 H 0.59724 0.92277 0.85617 0.0
H373 H 0.54762 0.89086 0.83085 0.0
C374 C 0.54822 0.8546 0.76884 0.0
C375 C 0.55236 0.8387 0.73501 0.0
C376 C 0.57758 0.86777 0.78721 0.0
C377 C 0.58615 0.83287 0.72122 0.0
C378 C 0.6156 0.84471 0.73994 0.0
C379 C 0.64017 0.88116 0.78754 0.0
C380 C 0.63512 0.90394 0.8169 0.0
C381 C 0.61148 0.86367 0.77209 0.0
C382 C 0.60178 0.90582 0.83321 0.0
C383 C 0.57333 0.88764 0.8187 0.0
H384 H 0.84831 0.39991 0.15957 0.0
H385 H 0.8661 0.31847 0.23813 0.0
H386 H 0.82771 0.34822 0.28103 0.0
H387 H 0.80247 0.40426 0.30054 0.0
H388 H 0.7857 0.48631 0.22267 0.0
H389 H 0.80949 0.44916 0.17477 0.0
C390 C 0.84278 0.38812 0.18566 0.0
C391 C 0.86075 0.35769 0.19618 0.0
C392 C 0.82127 0.40575 0.21042 0.0
C393 C 0.85287 0.34213 0.22962 0.0
C394 C 0.83116 0.3593 0.25429 0.0
C395 C 0.80273 0.41335 0.27276 0.0
C396 C 0.79311 0.44798 0.265 0.0
C397 C 0.81717 0.39218 0.24571 0.0
C398 C 0.79308 0.45967 0.22909 0.0
C399 C 0.80708 0.43859 0.20183 0.0
H400 H 0.41348 0.16156 0.68462 0.0
H401 H 0.4836 0.18319 0.77278 0.0
H402 H 0.4408 0.15897 0.81566 0.0
H403 H 0.38814 0.12242 0.82598 0.0
H404 H 0.31712 0.10281 0.73796 0.0
H405 H 0.35506 0.13623 0.69711 0.0
C406 C 0.41881 0.16194 0.71337 0.0
C407 C 0.4516 0.17377 0.72567 0.0
C408 C 0.39408 0.14804 0.73773 0.0
C409 C 0.45839 0.17435 0.76286 0.0
C410 C 0.43407 0.1602 0.78728 0.0
C411 C 0.38051 0.12641 0.79809 0.0
C412 C 0.35017 0.10987 0.78482 0.0
C413 C 0.40251 0.14561 0.77478 0.0
C414 C 0.3403 0.11539 0.74878 0.0
C415 C 0.36218 0.13419 0.72534 0.0
H416 H 0.20505 0.41102 0.68542 0.0
H417 H 0.22048 0.49103 0.7656 0.0
H418 H 0.19075 0.45478 0.81081 0.0
H419 H 0.1471 0.4083 0.82161 0.0
H420 H 0.13045 0.32913 0.74054 0.0
H421 H 0.17472 0.35643 0.70192 0.0
C422 C 0.20329 0.41972 0.71326 0.0
C423 C 0.21419 0.45373 0.7222 0.0
C424 C 0.18525 0.39919 0.73867 0.0
C425 C 0.21219 0.46488 0.75822 0.0
C426 C 0.19473 0.44436 0.78392 0.0
C427 C 0.15411 0.39636 0.79603 0.0
C428 C 0.13482 0.36748 0.78337 0.0
C429 C 0.17905 0.41264 0.77364 0.0
C430 C 0.1446 0.35167 0.75064 0.0
C431 C 0.16973 0.36745 0.72839 0.0
H432 H 0.41596 0.89629 0.1527 0.0
H433 H 0.33048 0.86381 0.22178 0.0
H434 H 0.37074 0.82765 0.25704 0.0
H435 H 0.43191 0.81562 0.27529 0.0
H436 H 0.51711 0.85254 0.20864 0.0
H437 H 0.47545 0.87603 0.16486 0.0
C438 C 0.40597 0.88067 0.17498 0.0
C439 C 0.37049 0.88333 0.18516 0.0
C440 C 0.42938 0.86087 0.19566 0.0
C441 C 0.35776 0.86245 0.2136 0.0
C442 C 0.38083 0.84195 0.23392 0.0
C443 C 0.44112 0.82747 0.25034 0.0
C444 C 0.47728 0.83217 0.24472 0.0
C445 C 0.41695 0.84235 0.22624 0.0
C446 C 0.48929 0.84833 0.213 0.0
C447 C 0.46549 0.86208 0.18826 0.0
H448 H 0.78154 0.60574 0.74201 0.0
H449 H 0.80818 0.50718 0.79098 0.0
H450 H 0.84749 0.53699 0.83301 0.0
H451 H 0.88527 0.58846 0.84346 0.0
H452 H 0.86007 0.68647 0.79155 0.0
H453 H 0.80905 0.65974 0.76349 0.0
C454 C 0.79457 0.59111 0.7632 0.0
C455 C 0.79252 0.55442 0.76319 0.0
C456 C 0.8184 0.60824 0.78587 0.0
C457 C 0.80932 0.53551 0.79063 0.0
C458 C 0.83238 0.55252 0.81415 0.0
C459 C 0.86811 0.60422 0.82677 0.0
C460 C 0.87726 0.63908 0.81858 0.0
C461 C 0.839 0.58849 0.81011 0.0
C462 C 0.85422 0.65935 0.79764 0.0
C463 C 0.82495 0.64408 0.78152 0.0
H464 H 0.64896 0.11392 0.19644 0.0
H465 H 0.5873 0.02814 0.15475 0.0
H466 H 0.53406 0.05486 0.17793 0.0
H467 H 0.5064 0.09699 0.2187 0.0
H468 H 0.56651 0.18318 0.26062 0.0
H469 H 0.61869 0.16249 0.22807 0.0
C470 C 0.62381 0.10146 0.19177 0.0
C471 C 0.6224 0.06858 0.17458 0.0
C472 C 0.59295 0.11699 0.20536 0.0
C473 C 0.58943 0.05312 0.16832 0.0
C474 C 0.55883 0.06837 0.18163 0.0
C475 C 0.53066 0.11189 0.21959 0.0
C476 C 0.53281 0.14142 0.24194 0.0
C477 C 0.56047 0.09949 0.20141 0.0
C478 C 0.56425 0.16057 0.24318 0.0
C479 C 0.59417 0.14843 0.22498 0.0
H480 H 0.70594 0.09794 0.78593 0.0
H481 H 0.70368 0.00999 0.7134 0.0
H482 H 0.67058 0.04443 0.66946 0.0
H483 H 0.63149 0.09473 0.65862 0.0
H484 H 0.63348 0.18232 0.73198 0.0
H485 H 0.67782 0.15311 0.76842 0.0
C486 C 0.69945 0.08688 0.75981 0.0
C487 C 0.70675 0.05148 0.75296 0.0
C488 C 0.67958 0.10648 0.7353 0.0
C489 C 0.69845 0.03728 0.71912 0.0
C490 C 0.67901 0.0568 0.69427 0.0
C491 C 0.64225 0.10774 0.68213 0.0
C492 C 0.62852 0.1402 0.69317 0.0
C493 C 0.66765 0.09067 0.70312 0.0
C494 C 0.64325 0.15715 0.72316 0.0
C495 C 0.66855 0.1404 0.74411 0.0
H496 H 0.15105 0.36301 0.27206 0.0
H497 H 0.08306 0.42696 0.3381 0.0
H498 H 0.03177 0.39904 0.31196 0.0
H499 H 0.00633 0.3643 0.26312 0.0
H500 H 0.07294 0.30039 0.19637 0.0
H501 H 0.12466 0.31995 0.23027 0.0
C502 C 0.12506 0.37022 0.28139 0.0
C503 C 0.121 0.39768 0.30641 0.0
C504 C 0.09539 0.35429 0.26583 0.0
C505 C 0.08706 0.40638 0.31845 0.0
C506 C 0.0576 0.39047 0.30345 0.0
C507 C 0.03211 0.35384 0.25687 0.0
C508 C 0.03613 0.3311 0.2275 0.0
C509 C 0.06147 0.36559 0.27604 0.0
C510 C 0.06942 0.3177 0.21923 0.0
C511 C 0.09894 0.32918 0.23836 0.0
H512 H 0.29331 0.9821 0.72328 0.0
H513 H 0.30382 0.93165 0.82669 0.0
H514 H 0.34169 0.88689 0.79999 0.0
H515 H 0.37816 0.86715 0.74913 0.0
H516 H 0.37407 0.92282 0.64795 0.0
H517 H 0.32726 0.96023 0.67138 0.0
C518 C 0.30315 0.96065 0.73955 0.0
C519 C 0.29564 0.95959 0.7766 0.0
C520 C 0.32649 0.93629 0.72443 0.0
C521 C 0.30919 0.9325 0.79794 0.0
C522 C 0.33096 0.90712 0.78276 0.0
C523 C 0.36639 0.88698 0.73206 0.0
C524 C 0.37936 0.89236 0.69699 0.0
C525 C 0.34074 0.90944 0.7463 0.0
C526 C 0.36446 0.91844 0.67516 0.0
C527 C 0.33778 0.93982 0.68854 0.0
H528 H 0.90962 0.59323 0.34028 0.0
H529 H 0.82139 0.62258 0.27406 0.0
H530 H 0.85989 0.65716 0.23535 0.0
H531 H 0.91977 0.6696 0.21389 0.0
H532 H 0.00817 0.64119 0.27959 0.0
H533 H 0.96856 0.61629 0.32528 0.0
C534 C 0.89868 0.60789 0.31791 0.0
C535 C 0.86275 0.60457 0.30966 0.0
C536 C 0.92109 0.62771 0.29548 0.0
C537 C 0.84895 0.62425 0.28091 0.0
C538 C 0.871 0.64396 0.25856 0.0
C539 C 0.93016 0.65921 0.23895 0.0
C540 C 0.96663 0.65721 0.24362 0.0
C541 C 0.90727 0.64455 0.26466 0.0
C542 C 0.98008 0.64338 0.27581 0.0
C543 C 0.95745 0.62875 0.30165 0.0
H544 H 0.72232 0.89352 0.22376 0.0
H545 H 0.7118 0.98921 0.28414 0.0
H546 H 0.68011 0.95798 0.33177 0.0
H547 H 0.64178 0.90796 0.34632 0.0
H548 H 0.64996 0.81313 0.28373 0.0
H549 H 0.69672 0.83916 0.2475 0.0
C550 C 0.71446 0.90715 0.24816 0.0
C551 C 0.71846 0.94367 0.2501 0.0
C552 C 0.69495 0.88931 0.27458 0.0
C553 C 0.70878 0.9611 0.28195 0.0
C554 C 0.69014 0.94332 0.30894 0.0
C555 C 0.65458 0.89259 0.32551 0.0
C556 C 0.64152 0.85916 0.31683 0.0
C557 C 0.68084 0.90808 0.30409 0.0
C558 C 0.65899 0.83918 0.29051 0.0
C559 C 0.68565 0.85414 0.26959 0.0
H560 H 0.84204 0.38813 0.69955 0.0
H561 H 0.90587 0.46231 0.64039 0.0
H562 H 0.95869 0.43168 0.65874 0.0
H563 H 0.98691 0.3913 0.70085 0.0
H564 H 0.92437 0.31719 0.76077 0.0
H565 H 0.87099 0.33967 0.73226 0.0
C566 C 0.86744 0.39706 0.68991 0.0
C567 C 0.86995 0.4281 0.66945 0.0
C568 C 0.89802 0.3795 0.70097 0.0
C569 C 0.90308 0.43896 0.65676 0.0
C570 C 0.93343 0.42148 0.66729 0.0
C571 C 0.96167 0.37931 0.70667 0.0
C572 C 0.95935 0.35299 0.73302 0.0
C573 C 0.93125 0.39284 0.69079 0.0
C574 C 0.9267 0.33742 0.74038 0.0
C575 C 0.89616 0.35059 0.72441 0.0
H576 H 0.35492 0.1427 0.2764 0.0
H577 H 0.37695 0.06309 0.35585 0.0
H578 H 0.33528 0.02371 0.32707 0.0
H579 H 0.30581 0.00709 0.27063 0.0
H580 H 0.28885 0.08491 0.1885 0.0
H581 H 0.31394 0.12999 0.22732 0.0
C582 C 0.34972 0.1172 0.28817 0.0
C583 C 0.36989 0.10546 0.31748 0.0
C584 C 0.32667 0.09412 0.27064 0.0
C585 C 0.36241 0.07251 0.33273 0.0
C586 C 0.33862 0.04986 0.3162 0.0
C587 C 0.30588 0.03429 0.2622 0.0
C588 C 0.29562 0.04287 0.22696 0.0
C589 C 0.32242 0.05958 0.28381 0.0
C590 C 0.29643 0.07796 0.21575 0.0
C591 C 0.3113 0.1036 0.23773 0.0
H592 H 0.10319 0.60268 0.651 0.0
H593 H 0.18973 0.62986 0.72048 0.0
H594 H 0.1507 0.66501 0.75793 0.0
H595 H 0.09037 0.67956 0.77669 0.0
H596 H 0.00377 0.65218 0.70799 0.0
H597 H 0.04432 0.62606 0.66417 0.0
C598 C 0.11367 0.6169 0.67388 0.0
C599 C 0.14924 0.61302 0.68327 0.0
C600 C 0.09096 0.6369 0.69558 0.0
C601 C 0.16245 0.63207 0.71272 0.0
C602 C 0.14009 0.6521 0.73433 0.0
C603 C 0.08067 0.66904 0.75142 0.0
C604 C 0.04439 0.66797 0.74517 0.0
C605 C 0.10409 0.65354 0.72684 0.0
C606 C 0.03175 0.65372 0.71286 0.0
C607 C 0.05489 0.63845 0.68809 0.0
H608 H 0.25391 0.46472 0.54762 0.0
H609 H 0.25933 0.57675 0.53658 0.0
H610 H 0.26701 0.57088 0.47114 0.0
H611 H 0.25839 0.53421 0.41729 0.0
H612 H 0.2526 0.42216 0.42825 0.0
H613 H 0.26001 0.42732 0.49369 0.0
C614 C 0.2582 0.48768 0.53089 0.0
C615 C 0.25584 0.5211 0.5464 0.0
C616 C 0.26214 0.484 0.49342 0.0
C617 C 0.26127 0.55084 0.52494 0.0
C618 C 0.26531 0.54744 0.48758 0.0
C619 C 0.26027 0.51092 0.43396 0.0
C620 C 0.2546 0.4779 0.41839 0.0
C621 C 0.26383 0.51424 0.47146 0.0
C622 C 0.25707 0.44778 0.43985 0.0
C623 C 0.26084 0.4508 0.47726 0.0
H624 H 0.52662 0.76959 0.44919 0.0
H625 H 0.44997 0.84786 0.42092 0.0
H626 H 0.42718 0.84752 0.48234 0.0
H627 H 0.43629 0.83349 0.54567 0.0
H628 H 0.51454 0.75829 0.57643 0.0
H629 H 0.5291 0.74815 0.51255 0.0
C630 C 0.50436 0.78582 0.4564 0.0
C631 C 0.49041 0.80925 0.43092 0.0
C632 C 0.49194 0.78623 0.49225 0.0
C633 C 0.46154 0.83013 0.44037 0.0
C634 C 0.44846 0.82995 0.47544 0.0
C635 C 0.45569 0.81402 0.53817 0.0
C636 C 0.47446 0.7967 0.56519 0.0
C637 C 0.46453 0.80938 0.50187 0.0
C638 C 0.49966 0.77163 0.55572 0.0
C639 C 0.50821 0.7662 0.5193 0.0
H640 H 0.73912 0.55729 0.4521 0.0
H641 H 0.76668 0.44867 0.44042 0.0
H642 H 0.75155 0.43765 0.50356 0.0
H643 H 0.74403 0.46171 0.56418 0.0
H644 H 0.72603 0.57204 0.57762 0.0
H645 H 0.72236 0.57966 0.51215 0.0
C646 C 0.74062 0.53108 0.46328 0.0
C647 C 0.75416 0.50385 0.44212 0.0
C648 C 0.73372 0.5254 0.50014 0.0
C649 C 0.75653 0.46999 0.45661 0.0
C650 C 0.74795 0.46372 0.49265 0.0
C651 C 0.7376 0.48703 0.5527 0.0
C652 C 0.73519 0.51626 0.57535 0.0
C653 C 0.73836 0.49158 0.51511 0.0
C654 C 0.72771 0.54919 0.56043 0.0
C655 C 0.72615 0.5536 0.52302 0.0
H656 H 0.46523 0.22342 0.43603 0.0
H657 H 0.55923 0.16583 0.41016 0.0
H658 H 0.58164 0.17549 0.47078 0.0
H659 H 0.56921 0.18958 0.53364 0.0
H660 H 0.47431 0.24384 0.5621 0.0
H661 H 0.45768 0.24699 0.49813 0.0
C662 C 0.49103 0.214 0.44349 0.0
C663 C 0.51035 0.19344 0.41905 0.0
C664 C 0.50335 0.21871 0.47898 0.0
C665 C 0.54372 0.18124 0.42884 0.0
C666 C 0.55654 0.1867 0.46348 0.0
C667 C 0.54556 0.20324 0.52555 0.0
C668 C 0.52296 0.21646 0.55206 0.0
C669 C 0.53582 0.2038 0.48919 0.0
C670 C 0.4922 0.23385 0.54179 0.0
C671 C 0.48254 0.23523 0.50533 0.0
H672 H 0.76475 0.94919 0.05513 0.0
H673 H 0.76116 0.06157 0.0636 0.0
H674 H 0.76947 0.06698 -0.00165 0.0
H675 H 0.76305 0.03906 0.93886 0.0
H676 H 0.76683 0.92676 0.93027 0.0
H677 H 0.77421 0.92181 -0.00432 0.0
C678 C 0.76709 0.97483 0.04273 0.0
C679 C 0.7616 0.00493 0.06372 0.0
C680 C 0.77147 0.97766 0.00524 0.0
C681 C 0.76515 0.03808 0.04779 0.0
C682 C 0.76957 0.04116 0.01047 0.0
C683 C 0.767 0.01364 0.95128 0.0
C684 C 0.76385 0.98328 0.93024 0.0
C685 C 0.77062 0.01107 0.98883 0.0
C686 C 0.7692 0.95042 0.94616 0.0
C687 C 0.77297 0.9476 0.98357 0.0
H688 H 0.01682 0.28242 0.92626 0.0
H689 H 0.96544 0.38204 0.91098 0.0
H690 H 0.94583 0.38167 0.97323 0.0
H691 H 0.94762 0.35658 0.03309 0.0
H692 H 0.99832 0.25758 0.05149 0.0
H693 H 0.01337 0.25381 0.98686 0.0
C694 C 1.00098 0.30375 0.93654 0.0
C695 C 0.99323 0.33252 0.91412 0.0
C696 C 0.98981 0.30361 0.97289 0.0
C697 C 0.97242 0.35988 0.92773 0.0
C698 C 0.96105 0.35972 0.96337 0.0
C699 C 0.96173 0.33399 0.02291 0.0
C700 C 0.9724 0.3077 0.04684 0.0
C701 C 0.97038 0.33228 0.98632 0.0
C702 C 0.98996 0.27819 0.03337 0.0
C703 C 0.99871 0.27619 -0.00345 0.0
H704 H 0.22121 0.00963 0.93167 0.0
H705 H 0.32934 0.03666 0.91015 0.0
H706 H 0.34511 0.02178 0.97171 0.0
H707 H 0.32931 0.99982 0.03032 0.0
H708 H 0.22224 0.97107 0.05478 0.0
H709 H 0.20491 0.98741 -0.00691 0.0
C710 C 0.24805 0.01258 0.9408 0.0
C711 C 0.27414 0.02416 0.91653 0.0
C712 C 0.25718 0.00326 0.9764 0.0
C713 C 0.30891 0.02755 0.92831 0.0
C714 C 0.31798 0.01903 0.96348 0.0
C715 C 0.30205 0.99705 0.02245 0.0
C716 C 0.27711 0.98423 0.0472 0.0
C717 C 0.29247 0.00652 0.9875 0.0
C718 C 0.24202 0.98074 0.03618 0.0
C719 C 0.23211 0.99024 0.00101 0.0
H720 H 0.95642 0.7274 0.94449 0.0
H721 H 0.06563 0.71394 0.9182 0.0
H722 H 0.08118 0.71843 0.98211 0.0
H723 H 0.06202 0.71266 0.04532 0.0
H724 H 0.95185 0.71657 0.07099 0.0
H725 H 0.93806 0.73017 0.00805 0.0
C726 C 0.98368 0.72698 0.95284 0.0
C727 C 0.00997 0.72075 0.92709 0.0
C728 C 0.99204 0.72728 0.98972 0.0
C729 C 0.04516 0.71916 0.93784 0.0
C730 C 0.05396 0.72137 0.97434 0.0
C731 C 0.03522 0.71795 0.0372 0.0
C732 C 0.00793 0.71396 0.06238 0.0
C733 C 0.02743 0.7235 0.00061 0.0
C734 C 0.97315 0.71986 0.05181 0.0
C735 C 0.96529 0.72731 0.01583 0.0
loop_
_geom_bond_atom_site_label_1
_geom_bond_atom_site_label_2
_geom_bond_distance
_geom_bond_site_symmetry_2
_ccdc_geom_bond_type
Zn0 O3 2.031 . S
Zn0 O5 2.049 . S
Zn0 O10 2.067 . S
Zn1 O2 1.962 . S
Zn1 O4 1.986 . S
Zn1 O6 1.996 . S
Zn1 O9 1.943 . S
O2 Zn1 1.962 . S
O2 C7 1.254 . S
O3 Zn0 2.031 . S
O3 C7 1.269 . S
O4 Zn1 1.986 . S
O4 C11 1.262 . S
O5 Zn0 2.049 . S
O5 C13 1.260 . S
O6 Zn1 1.996 . S
O6 C13 1.257 . S
C7 O2 1.254 . S
C7 O3 1.269 . S
C8 O9 1.249 . S
C8 O10 1.270 . S
O9 Zn1 1.943 . S
O9 C8 1.249 . S
O10 Zn0 2.067 . S
O10 C8 1.270 . S
C11 O4 1.262 . S
C11 O12 1.232 . S
O12 C11 1.232 . S
C13 O5 1.260 . S
C13 O6 1.257 . S
Zn14 O17 2.031 . S
Zn14 O19 2.049 . S
Zn14 O24 2.067 . S
Zn15 O16 1.962 . S
Zn15 O18 1.986 . S
Zn15 O20 1.996 . S
Zn15 O23 1.943 . S
O16 Zn15 1.962 . S
O16 C21 1.254 . S
O17 Zn14 2.031 . S
O17 C21 1.269 . S
O18 Zn15 1.986 . S
O18 C25 1.262 . S
O19 Zn14 2.049 . S
O19 C27 1.260 . S
O20 Zn15 1.996 . S
O20 C27 1.257 . S
C21 O16 1.254 . S
C21 O17 1.269 . S
C22 O23 1.249 . S
C22 O24 1.270 . S
O23 Zn15 1.943 . S
O23 C22 1.249 . S
O24 Zn14 2.067 . S
O24 C22 1.270 . S
C25 O18 1.262 . S
C25 O26 1.232 . S
O26 C25 1.232 . S
C27 O19 1.260 . S
C27 O20 1.257 . S
Zn28 O31 2.031 . S
Zn28 O33 2.049 . S
Zn28 O38 2.067 . S
Zn29 O30 1.962 . S
Zn29 O32 1.986 . S
Zn29 O34 1.996 . S
Zn29 O37 1.943 . S
O30 Zn29 1.962 . S
O30 C35 1.254 . S
O31 Zn28 2.031 . S
O31 C35 1.269 . S
O32 Zn29 1.986 . S
O32 C39 1.262 . S
O33 Zn28 2.049 . S
O33 C41 1.260 . S
O34 Zn29 1.996 . S
O34 C41 1.257 . S
C35 O30 1.254 . S
C35 O31 1.269 . S
C36 O37 1.249 . S
C36 O38 1.270 . S
O37 Zn29 1.943 . S
O37 C36 1.249 . S
O38 Zn28 2.067 . S
O38 C36 1.270 . S
C39 O32 1.262 . S
C39 O40 1.232 . S
O40 C39 1.232 . S
C41 O33 1.260 . S
C41 O34 1.257 . S
Zn42 O45 2.031 . S
Zn42 O47 2.049 . S
Zn42 O52 2.067 . S
Zn43 O44 1.962 . S
Zn43 O46 1.986 . S
Zn43 O48 1.996 . S
Zn43 O51 1.943 . S
O44 Zn43 1.962 . S
O44 C49 1.254 . S
O45 Zn42 2.031 . S
O45 C49 1.269 . S
O46 Zn43 1.986 . S
O46 C53 1.262 . S
O47 Zn42 2.049 . S
O47 C55 1.260 . S
O48 Zn43 1.996 . S
O48 C55 1.257 . S
C49 O44 1.254 . S
C49 O45 1.269 . S
C50 O51 1.249 . S
C50 O52 1.270 . S
O51 Zn43 1.943 . S
O51 C50 1.249 . S
O52 Zn42 2.067 . S
O52 C50 1.270 . S
C53 O46 1.262 . S
C53 O54 1.232 . S
O54 C53 1.232 . S
C55 O47 1.260 . S
C55 O48 1.257 . S
Zn56 O59 2.031 . S
Zn56 O61 2.049 . S
Zn56 O66 2.067 . S
Zn57 O58 1.962 . S
Zn57 O60 1.986 . S
Zn57 O62 1.996 . S
Zn57 O65 1.943 . S
O58 Zn57 1.962 . S
O58 C63 1.254 . S
O59 Zn56 2.031 . S
O59 C63 1.269 . S
O60 Zn57 1.986 . S
O60 C67 1.262 . S
O61 Zn56 2.049 . S
O61 C69 1.260 . S
O62 Zn57 1.996 . S
O62 C69 1.257 . S
C63 O58 1.254 . S
C63 O59 1.269 . S
C64 O65 1.249 . S
C64 O66 1.270 . S
O65 Zn57 1.943 . S
O65 C64 1.249 . S
O66 Zn56 2.067 . S
O66 C64 1.270 . S
C67 O60 1.262 . S
C67 O68 1.232 . S
O68 C67 1.232 . S
C69 O61 1.260 . S
C69 O62 1.257 . S
Zn70 O73 2.031 . S
Zn70 O75 2.049 . S
Zn70 O80 2.067 . S
Zn71 O72 1.962 . S
Zn71 O74 1.986 . S
Zn71 O76 1.996 . S
Zn71 O79 1.943 . S
O72 Zn71 1.962 . S
O72 C77 1.254 . S
O73 Zn70 2.031 . S
O73 C77 1.269 . S
O74 Zn71 1.986 . S
O74 C81 1.262 . S
O75 Zn70 2.049 . S
O75 C83 1.260 . S
O76 Zn71 1.996 . S
O76 C83 1.257 . S
C77 O72 1.254 . S
C77 O73 1.269 . S
C78 O79 1.249 . S
C78 O80 1.270 . S
O79 Zn71 1.943 . S
O79 C78 1.249 . S
O80 Zn70 2.067 . S
O80 C78 1.270 . S
C81 O74 1.262 . S
C81 O82 1.232 . S
O82 C81 1.232 . S
C83 O75 1.260 . S
C83 O76 1.257 . S
Zn84 O87 2.031 . S
Zn84 O89 2.049 . S
Zn84 O94 2.067 . S
Zn85 O86 1.962 . S
Zn85 O88 1.986 . S
Zn85 O90 1.996 . S
Zn85 O93 1.943 . S
O86 Zn85 1.962 . S
O86 C91 1.254 . S
O87 Zn84 2.031 . S
O87 C91 1.269 . S
O88 Zn85 1.986 . S
O88 C95 1.262 . S
O89 Zn84 2.049 . S
O89 C97 1.260 . S
O90 Zn85 1.996 . S
O90 C97 1.257 . S
C91 O86 1.254 . S
C91 O87 1.269 . S
C92 O93 1.249 . S
C92 O94 1.270 . S
O93 Zn85 1.943 . S
O93 C92 1.249 . S
O94 Zn84 2.067 . S
O94 C92 1.270 . S
C95 O88 1.262 . S
C95 O96 1.232 . S
O96 C95 1.232 . S
C97 O89 1.260 . S
C97 O90 1.257 . S
Zn98 O101 2.031 . S
Zn98 O103 2.049 . S
Zn98 O108 2.067 . S
Zn99 O100 1.962 . S
Zn99 O102 1.986 . S
Zn99 O104 1.996 . S
Zn99 O107 1.943 . S
O100 Zn99 1.962 . S
O100 C105 1.254 . S
O101 Zn98 2.031 . S
O101 C105 1.269 . S
O102 Zn99 1.986 . S
O102 C109 1.262 . S
O103 Zn98 2.049 . S
O103 C111 1.260 . S
O104 Zn99 1.996 . S
O104 C111 1.257 . S
C105 O100 1.254 . S
C105 O101 1.269 . S
C106 O107 1.249 . S
C106 O108 1.270 . S
O107 Zn99 1.943 . S
O107 C106 1.249 . S
O108 Zn98 2.067 . S
O108 C106 1.270 . S
C109 O102 1.262 . S
C109 O110 1.232 . S
O110 C109 1.232 . S
C111 O103 1.260 . S
C111 O104 1.257 . S
Zn112 O115 2.031 . S
Zn112 O117 2.049 . S
Zn112 O122 2.067 . S
Zn113 O114 1.962 . S
Zn113 O116 1.986 . S
Zn113 O118 1.996 . S
Zn113 O121 1.943 . S
O114 Zn113 1.962 . S
O114 C119 1.254 . S
O115 Zn112 2.031 . S
O115 C119 1.269 . S
O116 Zn113 1.986 . S
O116 C123 1.262 . S
O117 Zn112 2.049 . S
O117 C125 1.260 . S
O118 Zn113 1.996 . S
O118 C125 1.257 . S
C119 O114 1.254 . S
C119 O115 1.269 . S
C120 O121 1.249 . S
C120 O122 1.270 . S
O121 Zn113 1.943 . S
O121 C120 1.249 . S
O122 Zn112 2.067 . S
O122 C120 1.270 . S
C123 O116 1.262 . S
C123 O124 1.232 . S
O124 C123 1.232 . S
C125 O117 1.260 . S
C125 O118 1.257 . S
Zn126 O129 2.031 . S
Zn126 O131 2.049 . S
Zn126 O136 2.067 . S
Zn127 O128 1.962 . S
Zn127 O130 1.986 . S
Zn127 O132 1.996 . S
Zn127 O135 1.943 . S
O128 Zn127 1.962 . S
O128 C133 1.254 . S
O129 Zn126 2.031 . S
O129 C133 1.269 . S
O130 Zn127 1.986 . S
O130 C137 1.262 . S
O131 Zn126 2.049 . S
O131 C139 1.260 . S
O132 Zn127 1.996 . S
O132 C139 1.257 . S
C133 O128 1.254 . S
C133 O129 1.269 . S
C134 O135 1.249 . S
C134 O136 1.270 . S
O135 Zn127 1.943 . S
O135 C134 1.249 . S
O136 Zn126 2.067 . S
O136 C134 1.270 . S
C137 O130 1.262 . S
C137 O138 1.232 . S
O138 C137 1.232 . S
C139 O131 1.260 . S
C139 O132 1.257 . S
Zn140 O143 2.031 . S
Zn140 O145 2.049 . S
Zn140 O150 2.067 . S
Zn141 O142 1.962 . S
Zn141 O144 1.986 . S
Zn141 O146 1.996 . S
Zn141 O149 1.943 . S
O142 Zn141 1.962 . S
O142 C147 1.254 . S
O143 Zn140 2.031 . S
O143 C147 1.269 . S
O144 Zn141 1.986 . S
O144 C151 1.262 . S
O145 Zn140 2.049 . S
O145 C153 1.260 . S
O146 Zn141 1.996 . S
O146 C153 1.257 . S
C147 O142 1.254 . S
C147 O143 1.269 . S
C148 O149 1.249 . S
C148 O150 1.270 . S
O149 Zn141 1.943 . S
O149 C148 1.249 . S
O150 Zn140 2.067 . S
O150 C148 1.270 . S
C151 O144 1.262 . S
C151 O152 1.232 . S
O152 C151 1.232 . S
C153 O145 1.260 . S
C153 O146 1.257 . S
Zn154 O157 2.031 . S
Zn154 O159 2.049 . S
Zn154 O164 2.067 . S
Zn155 O156 1.962 . S
Zn155 O158 1.986 . S
Zn155 O160 1.996 . S
Zn155 O163 1.943 . S
O156 Zn155 1.962 . S
O156 C161 1.254 . S
O157 Zn154 2.031 . S
O157 C161 1.269 . S
O158 Zn155 1.986 . S
O158 C165 1.262 . S
O159 Zn154 2.049 . S
O159 C167 1.260 . S
O160 Zn155 1.996 . S
O160 C167 1.257 . S
C161 O156 1.254 . S
C161 O157 1.269 . S
C162 O163 1.249 . S
C162 O164 1.270 . S
O163 Zn155 1.943 . S
O163 C162 1.249 . S
O164 Zn154 2.067 . S
O164 C162 1.270 . S
C165 O158 1.262 . S
C165 O166 1.232 . S
O166 C165 1.232 . S
C167 O159 1.260 . S
C167 O160 1.257 . S
Zn168 O171 2.031 . S
Zn168 O173 2.049 . S
Zn168 O178 2.067 . S
Zn169 O170 1.962 . S
Zn169 O172 1.986 . S
Zn169 O174 1.996 . S
Zn169 O177 1.943 . S
O170 Zn169 1.962 . S
O170 C175 1.254 . S
O171 Zn168 2.031 . S
O171 C175 1.269 . S
O172 Zn169 1.986 . S
O172 C179 1.262 . S
O173 Zn168 2.049 . S
O173 C181 1.260 . S
O174 Zn169 1.996 . S
O174 C181 1.257 . S
C175 O170 1.254 . S
C175 O171 1.269 . S
C176 O177 1.249 . S
C176 O178 1.270 . S
O177 Zn169 1.943 . S
O177 C176 1.249 . S
O178 Zn168 2.067 . S
O178 C176 1.270 . S
C179 O172 1.262 . S
C179 O180 1.232 . S
O180 C179 1.232 . S
C181 O173 1.260 . S
C181 O174 1.257 . S
Zn182 O185 2.031 . S
Zn182 O187 2.049 . S
Zn182 O192 2.067 . S
Zn183 O184 1.962 . S
Zn183 O186 1.986 . S
Zn183 O188 1.996 . S
Zn183 O191 1.943 . S
O184 Zn183 1.962 . S
O184 C189 1.254 . S
O185 Zn182 2.031 . S
O185 C189 1.269 . S
O186 Zn183 1.986 . S
O186 C193 1.262 . S
O187 Zn182 2.049 . S
O187 C195 1.260 . S
O188 Zn183 1.996 . S
O188 C195 1.257 . S
C189 O184 1.254 . S
C189 O185 1.269 . S
C190 O191 1.249 . S
C190 O192 1.270 . S
O191 Zn183 1.943 . S
O191 C190 1.249 . S
O192 Zn182 2.067 . S
O192 C190 1.270 . S
C193 O186 1.262 . S
C193 O194 1.232 . S
O194 C193 1.232 . S
C195 O187 1.260 . S
C195 O188 1.257 . S
Zn196 O199 2.031 . S
Zn196 O201 2.049 . S
Zn196 O206 2.067 . S
Zn197 O198 1.962 . S
Zn197 O200 1.986 . S
Zn197 O202 1.996 . S
Zn197 O205 1.943 . S
O198 Zn197 1.962 . S
O198 C203 1.254 . S
O199 Zn196 2.031 . S
O199 C203 1.269 . S
O200 Zn197 1.986 . S
O200 C207 1.262 . S
O201 Zn196 2.049 . S
O201 C209 1.260 . S
O202 Zn197 1.996 . S
O202 C209 1.257 . S
C203 O198 1.254 . S
C203 O199 1.269 . S
C204 O205 1.249 . S
C204 O206 1.270 . S
O205 Zn197 1.943 . S
O205 C204 1.249 . S
O206 Zn196 2.067 . S
O206 C204 1.270 . S
C207 O200 1.262 . S
C207 O208 1.232 . S
O208 C207 1.232 . S
C209 O201 1.260 . S
C209 O202 1.257 . S
Zn210 O213 2.031 . S
Zn210 O215 2.049 . S
Zn210 O220 2.067 . S
Zn211 O212 1.962 . S
Zn211 O214 1.986 . S
Zn211 O216 1.996 . S
Zn211 O219 1.943 . S
O212 Zn211 1.962 . S
O212 C217 1.254 . S
O213 Zn210 2.031 . S
O213 C217 1.269 . S
O214 Zn211 1.986 . S
O214 C221 1.262 . S
O215 Zn210 2.049 . S
O215 C223 1.260 . S
O216 Zn211 1.996 . S
O216 C223 1.257 . S
C217 O212 1.254 . S
C217 O213 1.269 . S
C218 O219 1.249 . S
C218 O220 1.270 . S
O219 Zn211 1.943 . S
O219 C218 1.249 . S
O220 Zn210 2.067 . S
O220 C218 1.270 . S
C221 O214 1.262 . S
C221 O222 1.232 . S
O222 C221 1.232 . S
C223 O215 1.260 . S
C223 O216 1.257 . S
H224 C230 0.930 . S
H225 C233 0.930 . S
H226 C234 0.930 . S
H227 C235 0.930 . S
H228 C238 0.930 . S
H229 C239 0.930 . S
C230 H224 0.930 . S
C230 C231 1.355 . S
C230 C232 1.415 . S
C231 C230 1.355 . S
C231 C233 1.419 . S
C232 C230 1.415 . S
C232 C237 1.425 . S
C232 C239 1.409 . S
C233 H225 0.930 . S
C233 C231 1.419 . S
C233 C234 1.362 . S
C234 H226 0.930 . S
C234 C233 1.362 . S
C234 C237 1.409 . S
C235 H227 0.930 . S
C235 C236 1.355 . S
C235 C237 1.415 . S
C236 C235 1.355 . S
C236 C238 1.419 . S
C237 C232 1.425 . S
C237 C234 1.409 . S
C237 C235 1.415 . S
C238 H228 0.930 . S
C238 C236 1.419 . S
C238 C239 1.362 . S
C239 H229 0.930 . S
C239 C232 1.409 . S
C239 C238 1.362 . S
H240 C246 0.930 . S
H241 C249 0.930 . S
H242 C250 0.930 . S
H243 C251 0.930 . S
H244 C254 0.930 . S
H245 C255 0.930 . S
C246 H240 0.930 . S
C246 C247 1.355 . S
C246 C248 1.415 . S
C247 C246 1.355 . S
C247 C249 1.419 . S
C248 C246 1.415 . S
C248 C253 1.425 . S
C248 C255 1.409 . S
C249 H241 0.930 . S
C249 C247 1.419 . S
C249 C250 1.362 . S
C250 H242 0.930 . S
C250 C249 1.362 . S
C250 C253 1.409 . S
C251 H243 0.930 . S
C251 C252 1.355 . S
C251 C253 1.415 . S
C252 C251 1.355 . S
C252 C254 1.419 . S
C253 C248 1.425 . S
C253 C250 1.409 . S
C253 C251 1.415 . S
C254 H244 0.930 . S
C254 C252 1.419 . S
C254 C255 1.362 . S
C255 H245 0.930 . S
C255 C248 1.409 . S
C255 C254 1.362 . S
H256 C262 0.930 . S
H257 C265 0.930 . S
H258 C266 0.930 . S
H259 C267 0.930 . S
H260 C270 0.930 . S
H261 C271 0.930 . S
C262 H256 0.930 . S
C262 C263 1.355 . S
C262 C264 1.415 . S
C263 C262 1.355 . S
C263 C265 1.419 . S
C264 C262 1.415 . S
C264 C269 1.425 . S
C264 C271 1.409 . S
C265 H257 0.930 . S
C265 C263 1.419 . S
C265 C266 1.362 . S
C266 H258 0.930 . S
C266 C265 1.362 . S
C266 C269 1.409 . S
C267 H259 0.930 . S
C267 C268 1.355 . S
C267 C269 1.415 . S
C268 C267 1.355 . S
C268 C270 1.419 . S
C269 C264 1.425 . S
C269 C266 1.409 . S
C269 C267 1.415 . S
C270 H260 0.930 . S
C270 C268 1.419 . S
C270 C271 1.362 . S
C271 H261 0.930 . S
C271 C264 1.409 . S
C271 C270 1.362 . S
H272 C278 0.930 . S
H273 C281 0.930 . S
H274 C282 0.930 . S
H275 C283 0.930 . S
H276 C286 0.930 . S
H277 C287 0.930 . S
C278 H272 0.930 . S
C278 C279 1.355 . S
C278 C280 1.415 . S
C279 C278 1.355 . S
C279 C281 1.419 . S
C280 C278 1.415 . S
C280 C285 1.425 . S
C280 C287 1.409 . S
C281 H273 0.930 . S
C281 C279 1.419 . S
C281 C282 1.362 . S
C282 H274 0.930 . S
C282 C281 1.362 . S
C282 C285 1.409 . S
C283 H275 0.930 . S
C283 C284 1.355 . S
C283 C285 1.415 . S
C284 C283 1.355 . S
C284 C286 1.419 . S
C285 C280 1.425 . S
C285 C282 1.409 . S
C285 C283 1.415 . S
C286 H276 0.930 . S
C286 C284 1.419 . S
C286 C287 1.362 . S
C287 H277 0.930 . S
C287 C280 1.409 . S
C287 C286 1.362 . S
H288 C294 0.930 . S
H289 C297 0.930 . S
H290 C298 0.930 . S
H291 C299 0.930 . S
H292 C302 0.930 . S
H293 C303 0.930 . S
C294 H288 0.930 . S
C294 C295 1.355 . S
C294 C296 1.415 . S
C295 C294 1.355 . S
C295 C297 1.419 . S
C296 C294 1.415 . S
C296 C301 1.425 . S
C296 C303 1.409 . S
C297 H289 0.930 . S
C297 C295 1.419 . S
C297 C298 1.362 . S
C298 H290 0.930 . S
C298 C297 1.362 . S
C298 C301 1.409 . S
C299 H291 0.930 . S
C299 C300 1.355 . S
C299 C301 1.415 . S
C300 C299 1.355 . S
C300 C302 1.419 . S
C301 C296 1.425 . S
C301 C298 1.409 . S
C301 C299 1.415 . S
C302 H292 0.930 . S
C302 C300 1.419 . S
C302 C303 1.362 . S
C303 H293 0.930 . S
C303 C296 1.409 . S
C303 C302 1.362 . S
H304 C310 0.930 . S
H305 C313 0.930 . S
H306 C314 0.930 . S
H307 C315 0.930 . S
H308 C318 0.930 . S
H309 C319 0.930 . S
C310 H304 0.930 . S
C310 C311 1.355 . S
C310 C312 1.415 . S
C311 C310 1.355 . S
C311 C313 1.419 . S
C312 C310 1.415 . S
C312 C317 1.425 . S
C312 C319 1.409 . S
C313 H305 0.930 . S
C313 C311 1.419 . S
C313 C314 1.362 . S
C314 H306 0.930 . S
C314 C313 1.362 . S
C314 C317 1.409 . S
C315 H307 0.930 . S
C315 C316 1.355 . S
C315 C317 1.415 . S
C316 C315 1.355 . S
C316 C318 1.419 . S
C317 C312 1.425 . S
C317 C314 1.409 . S
C317 C315 1.415 . S
C318 H308 0.930 . S
C318 C316 1.419 . S
C318 C319 1.362 . S
C319 H309 0.930 . S
C319 C312 1.409 . S
C319 C318 1.362 . S
H320 C326 0.930 . S
H321 C329 0.930 . S
H322 C330 0.930 . S
H323 C331 0.930 . S
H324 C334 0.930 . S
H325 C335 0.930 . S
C326 H320 0.930 . S
C326 C327 1.355 . S
C326 C328 1.415 . S
C327 C326 1.355 . S
C327 C329 1.419 . S
C328 C326 1.415 . S
C328 C333 1.425 . S
C328 C335 1.409 . S
C329 H321 0.930 . S
C329 C327 1.419 . S
C329 C330 1.362 . S
C330 H322 0.930 . S
C330 C329 1.362 . S
C330 C333 1.409 . S
C331 H323 0.930 . S
C331 C332 1.355 . S
C331 C333 1.415 . S
C332 C331 1.355 . S
C332 C334 1.419 . S
C333 C328 1.425 . S
C333 C330 1.409 . S
C333 C331 1.415 . S
C334 H324 0.930 . S
C334 C332 1.419 . S
C334 C335 1.362 . S
C335 H325 0.930 . S
C335 C328 1.409 . S
C335 C334 1.362 . S
H336 C342 0.930 . S
H337 C345 0.930 . S
H338 C346 0.930 . S
H339 C347 0.930 . S
H340 C350 0.930 . S
H341 C351 0.930 . S
C342 H336 0.930 . S
C342 C343 1.355 . S
C342 C344 1.415 . S
C343 C342 1.355 . S
C343 C345 1.419 . S
C344 C342 1.415 . S
C344 C349 1.425 . S
C344 C351 1.409 . S
C345 H337 0.930 . S
C345 C343 1.419 . S
C345 C346 1.362 . S
C346 H338 0.930 . S
C346 C345 1.362 . S
C346 C349 1.409 . S
C347 H339 0.930 . S
C347 C348 1.355 . S
C347 C349 1.415 . S
C348 C347 1.355 . S
C348 C350 1.419 . S
C349 C344 1.425 . S
C349 C346 1.409 . S
C349 C347 1.415 . S
C350 H340 0.930 . S
C350 C348 1.419 . S
C350 C351 1.362 . S
C351 H341 0.930 . S
C351 C344 1.409 . S
C351 C350 1.362 . S
H352 C358 0.930 . S
H353 C361 0.930 . S
H354 C362 0.930 . S
H355 C363 0.930 . S
H356 C366 0.930 . S
H357 C367 0.930 . S
C358 H352 0.930 . S
C358 C359 1.355 . S
C358 C360 1.415 . S
C359 C358 1.355 . S
C359 C361 1.419 . S
C360 C358 1.415 . S
C360 C365 1.425 . S
C360 C367 1.409 . S
C361 H353 0.930 . S
C361 C359 1.419 . S
C361 C362 1.362 . S
C362 H354 0.930 . S
C362 C361 1.362 . S
C362 C365 1.409 . S
C363 H355 0.930 . S
C363 C364 1.355 . S
C363 C365 1.415 . S
C364 C363 1.355 . S
C364 C366 1.419 . S
C365 C360 1.425 . S
C365 C362 1.409 . S
C365 C363 1.415 . S
C366 H356 0.930 . S
C366 C364 1.419 . S
C366 C367 1.362 . S
C367 H357 0.930 . S
C367 C360 1.409 . S
C367 C366 1.362 . S
H368 C374 0.930 . S
H369 C377 0.930 . S
H370 C378 0.930 . S
H371 C379 0.930 . S
H372 C382 0.930 . S
H373 C383 0.930 . S
C374 H368 0.930 . S
C374 C375 1.355 . S
C374 C376 1.415 . S
C375 C374 1.355 . S
C375 C377 1.419 . S
C376 C374 1.415 . S
C376 C381 1.425 . S
C376 C383 1.409 . S
C377 H369 0.930 . S
C377 C375 1.419 . S
C377 C378 1.362 . S
C378 H370 0.930 . S
C378 C377 1.362 . S
C378 C381 1.409 . S
C379 H371 0.930 . S
C379 C380 1.355 . S
C379 C381 1.415 . S
C380 C379 1.355 . S
C380 C382 1.419 . S
C381 C376 1.425 . S
C381 C378 1.409 . S
C381 C379 1.415 . S
C382 H372 0.930 . S
C382 C380 1.419 . S
C382 C383 1.362 . S
C383 H373 0.930 . S
C383 C376 1.409 . S
C383 C382 1.362 . S
H384 C390 0.930 . S
H385 C393 0.930 . S
H386 C394 0.930 . S
H387 C395 0.930 . S
H388 C398 0.930 . S
H389 C399 0.930 . S
C390 H384 0.930 . S
C390 C391 1.355 . S
C390 C392 1.415 . S
C391 C390 1.355 . S
C391 C393 1.419 . S
C392 C390 1.415 . S
C392 C397 1.425 . S
C392 C399 1.409 . S
C393 H385 0.930 . S
C393 C391 1.419 . S
C393 C394 1.362 . S
C394 H386 0.930 . S
C394 C393 1.362 . S
C394 C397 1.409 . S
C395 H387 0.930 . S
C395 C396 1.355 . S
C395 C397 1.415 . S
C396 C395 1.355 . S
C396 C398 1.419 . S
C397 C392 1.425 . S
C397 C394 1.409 . S
C397 C395 1.415 . S
C398 H388 0.930 . S
C398 C396 1.419 . S
C398 C399 1.362 . S
C399 H389 0.930 . S
C399 C392 1.409 . S
C399 C398 1.362 . S
H400 C406 0.930 . S
H401 C409 0.930 . S
H402 C410 0.930 . S
H403 C411 0.930 . S
H404 C414 0.930 . S
H405 C415 0.930 . S
C406 H400 0.930 . S
C406 C407 1.355 . S
C406 C408 1.415 . S
C407 C406 1.355 . S
C407 C409 1.419 . S
C408 C406 1.415 . S
C408 C413 1.425 . S
C408 C415 1.409 . S
C409 H401 0.930 . S
C409 C407 1.419 . S
C409 C410 1.362 . S
C410 H402 0.930 . S
C410 C409 1.362 . S
C410 C413 1.409 . S
C411 H403 0.930 . S
C411 C412 1.355 . S
C411 C413 1.415 . S
C412 C411 1.355 . S
C412 C414 1.419 . S
C413 C408 1.425 . S
C413 C410 1.409 . S
C413 C411 1.415 . S
C414 H404 0.930 . S
C414 C412 1.419 . S
C414 C415 1.362 . S
C415 H405 0.930 . S
C415 C408 1.409 . S
C415 C414 1.362 . S
H416 C422 0.930 . S
H417 C425 0.930 . S
H418 C426 0.930 . S
H419 C427 0.930 . S
H420 C430 0.930 . S
H421 C431 0.930 . S
C422 H416 0.930 . S
C422 C423 1.355 . S
C422 C424 1.415 . S
C423 C422 1.355 . S
C423 C425 1.419 . S
C424 C422 1.415 . S
C424 C429 1.425 . S
C424 C431 1.409 . S
C425 H417 0.930 . S
C425 C423 1.419 . S
C425 C426 1.362 . S
C426 H418 0.930 . S
C426 C425 1.362 . S
C426 C429 1.409 . S
C427 H419 0.930 . S
C427 C428 1.355 . S
C427 C429 1.415 . S
C428 C427 1.355 . S
C428 C430 1.419 . S
C429 C424 1.425 . S
C429 C426 1.409 . S
C429 C427 1.415 . S
C430 H420 0.930 . S
C430 C428 1.419 . S
C430 C431 1.362 . S
C431 H421 0.930 . S
C431 C424 1.409 . S
C431 C430 1.362 . S
H432 C438 0.930 . S
H433 C441 0.930 . S
H434 C442 0.930 . S
H435 C443 0.930 . S
H436 C446 0.930 . S
H437 C447 0.930 . S
C438 H432 0.930 . S
C438 C439 1.355 . S
C438 C440 1.415 . S
C439 C438 1.355 . S
C439 C441 1.419 . S
C440 C438 1.415 . S
C440 C445 1.425 . S
C440 C447 1.409 . S
C441 H433 0.930 . S
C441 C439 1.419 . S
C441 C442 1.362 . S
C442 H434 0.930 . S
C442 C441 1.362 . S
C442 C445 1.409 . S
C443 H435 0.930 . S
C443 C444 1.355 . S
C443 C445 1.415 . S
C444 C443 1.355 . S
C444 C446 1.419 . S
C445 C440 1.425 . S
C445 C442 1.409 . S
C445 C443 1.415 . S
C446 H436 0.930 . S
C446 C444 1.419 . S
C446 C447 1.362 . S
C447 H437 0.930 . S
C447 C440 1.409 . S
C447 C446 1.362 . S
H448 C454 0.930 . S
H449 C457 0.930 . S
H450 C458 0.930 . S
H451 C459 0.930 . S
H452 C462 0.930 . S
H453 C463 0.930 . S
C454 H448 0.930 . S
C454 C455 1.355 . S
C454 C456 1.415 . S
C455 C454 1.355 . S
C455 C457 1.419 . S
C456 C454 1.415 . S
C456 C461 1.425 . S
C456 C463 1.409 . S
C457 H449 0.930 . S
C457 C455 1.419 . S
C457 C458 1.362 . S
C458 H450 0.930 . S
C458 C457 1.362 . S
C458 C461 1.409 . S
C459 H451 0.930 . S
C459 C460 1.355 . S
C459 C461 1.415 . S
C460 C459 1.355 . S
C460 C462 1.419 . S
C461 C456 1.425 . S
C461 C458 1.409 . S
C461 C459 1.415 . S
C462 H452 0.930 . S
C462 C460 1.419 . S
C462 C463 1.362 . S
C463 H453 0.930 . S
C463 C456 1.409 . S
C463 C462 1.362 . S
H464 C470 0.930 . S
H465 C473 0.930 . S
H466 C474 0.930 . S
H467 C475 0.930 . S
H468 C478 0.930 . S
H469 C479 0.930 . S
C470 H464 0.930 . S
C470 C471 1.355 . S
C470 C472 1.415 . S
C471 C470 1.355 . S
C471 C473 1.419 . S
C472 C470 1.415 . S
C472 C477 1.425 . S
C472 C479 1.409 . S
C473 H465 0.930 . S
C473 C471 1.419 . S
C473 C474 1.362 . S
C474 H466 0.930 . S
C474 C473 1.362 . S
C474 C477 1.409 . S
C475 H467 0.930 . S
C475 C476 1.355 . S
C475 C477 1.415 . S
C476 C475 1.355 . S
C476 C478 1.419 . S
C477 C472 1.425 . S
C477 C474 1.409 . S
C477 C475 1.415 . S
C478 H468 0.930 . S
C478 C476 1.419 . S
C478 C479 1.362 . S
C479 H469 0.930 . S
C479 C472 1.409 . S
C479 C478 1.362 . S
H480 C486 0.930 . S
H481 C489 0.930 . S
H482 C490 0.930 1_565 S
H483 C491 0.930 . S
H484 C494 0.930 . S
H485 C495 0.930 . S
C486 H480 0.930 . S
C486 C487 1.355 1_545 S
C486 C488 1.415 . S
C487 C486 1.355 1_565 S
C487 C489 1.419 . S
C488 C486 1.415 . S
C488 C493 1.425 . S
C488 C495 1.409 . S
C489 H481 0.930 . S
C489 C487 1.419 . S
C489 C490 1.362 1_565 S
C490 H482 0.930 1_545 S
C490 C489 1.362 1_545 S
C490 C493 1.409 . S
C491 H483 0.930 . S
C491 C492 1.355 . S
C491 C493 1.415 . S
C492 C491 1.355 . S
C492 C494 1.419 . S
C493 C488 1.425 . S
C493 C490 1.409 . S
C493 C491 1.415 . S
C494 H484 0.930 . S
C494 C492 1.419 . S
C494 C495 1.362 . S
C495 H485 0.930 . S
C495 C488 1.409 . S
C495 C494 1.362 . S
H496 C502 0.930 . S
H497 C505 0.930 . S
H498 C506 0.930 . S
H499 C507 0.930 1_655 S
H500 C510 0.930 . S
H501 C511 0.930 . S
C502 H496 0.930 . S
C502 C503 1.355 . S
C502 C504 1.415 . S
C503 C502 1.355 . S
C503 C505 1.419 . S
C504 C502 1.415 . S
C504 C509 1.425 . S
C504 C511 1.409 . S
C505 H497 0.930 . S
C505 C503 1.419 . S
C505 C506 1.362 . S
C506 H498 0.930 . S
C506 C505 1.362 . S
C506 C509 1.409 . S
C507 H499 0.930 1_455 S
C507 C508 1.355 1_455 S
C507 C509 1.415 . S
C508 C507 1.355 1_655 S
C508 C510 1.419 1_655 S
C509 C504 1.425 . S
C509 C506 1.409 . S
C509 C507 1.415 . S
C510 H500 0.930 . S
C510 C508 1.419 1_455 S
C510 C511 1.362 . S
C511 H501 0.930 . S
C511 C504 1.409 . S
C511 C510 1.362 . S
H512 C518 0.930 . S
H513 C521 0.930 . S
H514 C522 0.930 . S
H515 C523 0.930 . S
H516 C526 0.930 . S
H517 C527 0.930 . S
C518 H512 0.930 . S
C518 C519 1.356 . S
C518 C520 1.415 . S
C519 C518 1.356 . S
C519 C521 1.421 . S
C520 C518 1.415 . S
C520 C525 1.425 . S
C520 C527 1.409 . S
C521 H513 0.930 . S
C521 C519 1.421 . S
C521 C522 1.362 . S
C522 H514 0.930 . S
C522 C521 1.362 . S
C522 C525 1.409 . S
C523 H515 0.930 . S
C523 C524 1.355 . S
C523 C525 1.415 . S
C524 C523 1.355 . S
C524 C526 1.419 . S
C525 C520 1.425 . S
C525 C522 1.409 . S
C525 C523 1.415 . S
C526 H516 0.930 . S
C526 C524 1.419 . S
C526 C527 1.362 . S
C527 H517 0.930 . S
C527 C520 1.409 . S
C527 C526 1.362 . S
H528 C534 0.930 . S
H529 C537 0.930 . S
H530 C538 0.930 . S
H531 C539 0.930 . S
H532 C542 0.930 . S
H533 C543 0.930 1_455 S
C534 H528 0.930 . S
C534 C535 1.355 . S
C534 C536 1.415 . S
C535 C534 1.355 . S
C535 C537 1.419 . S
C536 C534 1.415 . S
C536 C541 1.425 . S
C536 C543 1.409 . S
C537 H529 0.930 . S
C537 C535 1.419 . S
C537 C538 1.362 . S
C538 H530 0.930 . S
C538 C537 1.362 . S
C538 C541 1.409 . S
C539 H531 0.930 . S
C539 C540 1.355 1_655 S
C539 C541 1.415 . S
C540 C539 1.355 1_455 S
C540 C542 1.419 . S
C541 C536 1.425 . S
C541 C538 1.409 . S
C541 C539 1.415 . S
C542 H532 0.930 . S
C542 C540 1.419 . S
C542 C543 1.362 1_455 S
C543 H533 0.930 1_655 S
C543 C536 1.409 . S
C543 C542 1.362 1_655 S
H544 C550 0.930 . S
H545 C553 0.930 . S
H546 C554 0.923 1_545 S
H547 C555 0.930 . S
H548 C558 0.930 . S
H549 C559 0.930 . S
C550 H544 0.930 . S
C550 C551 1.355 1_565 S
C550 C552 1.415 . S
C551 C550 1.355 1_545 S
C551 C553 1.419 . S
C552 C550 1.415 . S
C552 C557 1.425 . S
C552 C559 1.409 . S
C553 H545 0.930 . S
C553 C551 1.419 . S
C553 C554 1.362 1_545 S
C554 H546 0.923 1_565 S
C554 C553 1.362 1_565 S
C554 C557 1.409 . S
C555 H547 0.930 . S
C555 C556 1.355 . S
C555 C557 1.415 . S
C556 C555 1.355 . S
C556 C558 1.419 . S
C557 C552 1.425 . S
C557 C554 1.409 . S
C557 C555 1.415 . S
C558 H548 0.930 . S
C558 C556 1.419 . S
C558 C559 1.362 . S
C559 H549 0.930 . S
C559 C552 1.409 . S
C559 C558 1.362 . S
H560 C566 0.930 . S
H561 C569 0.930 . S
H562 C570 0.930 . S
H563 C571 0.930 1_455 S
H564 C574 0.930 . S
H565 C575 0.930 . S
C566 H560 0.930 . S
C566 C567 1.355 . S
C566 C568 1.415 . S
C567 C566 1.355 . S
C567 C569 1.419 . S
C568 C566 1.415 . S
C568 C573 1.425 . S
C568 C575 1.409 . S
C569 H561 0.930 . S
C569 C567 1.419 . S
C569 C570 1.362 . S
C570 H562 0.930 . S
C570 C569 1.362 . S
C570 C573 1.409 . S
C571 H563 0.930 1_655 S
C571 C572 1.357 . S
C571 C573 1.415 . S
C572 C571 1.357 . S
C572 C574 1.445 . S
C573 C568 1.425 . S
C573 C570 1.409 . S
C573 C571 1.415 . S
C574 H564 0.930 . S
C574 C572 1.445 . S
C574 C575 1.362 . S
C575 H565 0.930 . S
C575 C568 1.409 . S
C575 C574 1.362 . S
H576 C582 0.930 . S
H577 C585 0.930 . S
H578 C586 0.930 . S
H579 C587 0.930 1_565 S
H580 C590 0.930 . S
H581 C591 0.930 . S
C582 H576 0.930 . S
C582 C583 1.355 . S
C582 C584 1.415 . S
C583 C582 1.355 . S
C583 C585 1.419 . S
C584 C582 1.415 . S
C584 C589 1.425 . S
C584 C591 1.409 . S
C585 H577 0.930 . S
C585 C583 1.419 . S
C585 C586 1.362 . S
C586 H578 0.930 . S
C586 C585 1.362 . S
C586 C589 1.409 . S
C587 H579 0.930 1_545 S
C587 C588 1.358 . S
C587 C589 1.415 . S
C588 C587 1.358 . S
C588 C590 1.443 . S
C589 C584 1.425 . S
C589 C586 1.409 . S
C589 C587 1.415 . S
C590 H580 0.930 . S
C590 C588 1.443 . S
C590 C591 1.362 . S
C591 H581 0.930 . S
C591 C584 1.409 . S
C591 C590 1.362 . S
H592 C598 0.930 . S
H593 C601 0.930 . S
H594 C602 0.930 . S
H595 C603 0.930 . S
H596 C606 0.930 . S
H597 C607 0.928 1_655 S
C598 H592 0.930 . S
C598 C599 1.355 . S
C598 C600 1.415 . S
C599 C598 1.355 . S
C599 C601 1.419 . S
C600 C598 1.415 . S
C600 C605 1.425 . S
C600 C607 1.409 . S
C601 H593 0.930 . S
C601 C599 1.419 . S
C601 C602 1.362 . S
C602 H594 0.930 . S
C602 C601 1.362 . S
C602 C605 1.409 . S
C603 H595 0.930 . S
C603 C604 1.355 1_455 S
C603 C605 1.415 . S
C604 C603 1.355 1_655 S
C604 C606 1.419 . S
C605 C600 1.425 . S
C605 C602 1.409 . S
C605 C603 1.415 . S
C606 H596 0.930 . S
C606 C604 1.419 . S
C606 C607 1.362 1_655 S
C607 H597 0.928 1_455 S
C607 C600 1.409 . S
C607 C606 1.362 1_455 S
H608 C614 0.930 . S
H609 C617 0.930 . S
H610 C618 0.930 . S
H611 C619 0.930 . S
H612 C622 0.930 . S
H613 C623 0.930 . S
C614 H608 0.930 . S
C614 C615 1.355 . S
C614 C616 1.415 . S
C615 C614 1.355 . S
C615 C617 1.419 . S
C616 C614 1.415 . S
C616 C621 1.425 . S
C616 C623 1.409 . S
C617 H609 0.930 . S
C617 C615 1.419 . S
C617 C618 1.362 . S
C618 H610 0.930 . S
C618 C617 1.362 . S
C618 C621 1.409 . S
C619 H611 0.930 . S
C619 C620 1.355 . S
C619 C621 1.415 . S
C620 C619 1.355 . S
C620 C622 1.419 . S
C621 C616 1.425 . S
C621 C618 1.409 . S
C621 C619 1.415 . S
C622 H612 0.930 . S
C622 C620 1.419 . S
C622 C623 1.362 . S
C623 H613 0.930 . S
C623 C616 1.409 . S
C623 C622 1.362 . S
H624 C630 0.930 . S
H625 C633 0.930 . S
H626 C634 0.930 . S
H627 C635 0.930 . S
H628 C638 0.930 . S
H629 C639 0.930 . S
C630 H624 0.930 . S
C630 C631 1.355 . S
C630 C632 1.415 . S
C631 C630 1.355 . S
C631 C633 1.419 . S
C632 C630 1.415 . S
C632 C637 1.425 . S
C632 C639 1.409 . S
C633 H625 0.930 . S
C633 C631 1.419 . S
C633 C634 1.362 . S
C634 H626 0.930 . S
C634 C633 1.362 . S
C634 C637 1.409 . S
C635 H627 0.930 . S
C635 C636 1.355 . S
C635 C637 1.415 . S
C636 C635 1.355 . S
C636 C638 1.419 . S
C637 C632 1.425 . S
C637 C634 1.409 . S
C637 C635 1.415 . S
C638 H628 0.930 . S
C638 C636 1.419 . S
C638 C639 1.362 . S
C639 H629 0.930 . S
C639 C632 1.409 . S
C639 C638 1.362 . S
H640 C646 0.930 . S
H641 C649 0.930 . S
H642 C650 0.930 . S
H643 C651 0.930 . S
H644 C654 0.930 . S
H645 C655 0.930 . S
C646 H640 0.930 . S
C646 C647 1.355 . S
C646 C648 1.415 . S
C647 C646 1.355 . S
C647 C649 1.419 . S
C648 C646 1.415 . S
C648 C653 1.425 . S
C648 C655 1.409 . S
C649 H641 0.930 . S
C649 C647 1.419 . S
C649 C650 1.362 . S
C650 H642 0.930 . S
C650 C649 1.362 . S
C650 C653 1.409 . S
C651 H643 0.930 . S
C651 C652 1.355 . S
C651 C653 1.415 . S
C652 C651 1.355 . S
C652 C654 1.419 . S
C653 C648 1.425 . S
C653 C650 1.409 . S
C653 C651 1.415 . S
C654 H644 0.930 . S
C654 C652 1.419 . S
C654 C655 1.362 . S
C655 H645 0.930 . S
C655 C648 1.409 . S
C655 C654 1.362 . S
H656 C662 0.930 . S
H657 C665 0.930 . S
H658 C666 0.930 . S
H659 C667 0.930 . S
H660 C670 0.930 . S
H661 C671 0.930 . S
C662 H656 0.930 . S
C662 C663 1.355 . S
C662 C664 1.415 . S
C663 C662 1.355 . S
C663 C665 1.419 . S
C664 C662 1.415 . S
C664 C669 1.425 . S
C664 C671 1.409 . S
C665 H657 0.930 . S
C665 C663 1.419 . S
C665 C666 1.362 . S
C666 H658 0.930 . S
C666 C665 1.362 . S
C666 C669 1.409 . S
C667 H659 0.930 . S
C667 C668 1.355 . S
C667 C669 1.415 . S
C668 C667 1.355 . S
C668 C670 1.419 . S
C669 C664 1.425 . S
C669 C666 1.409 . S
C669 C667 1.415 . S
C670 H660 0.930 . S
C670 C668 1.419 . S
C670 C671 1.362 . S
C671 H661 0.930 . S
C671 C664 1.409 . S
C671 C670 1.362 . S
H672 C678 0.930 1_565 S
H673 C681 0.930 . S
H674 C682 0.930 . S
H675 C683 0.930 1_545 S
H676 C686 0.930 . S
H677 C687 0.930 . S
C678 H672 0.930 1_545 S
C678 C679 1.355 . S
C678 C680 1.415 1_545 S
C679 C678 1.355 . S
C679 C681 1.419 . S
C680 C678 1.415 1_565 S
C680 C685 1.425 1_564 S
C680 C687 1.409 . S
C681 H673 0.930 . S
C681 C679 1.419 . S
C681 C682 1.362 1_554 S
C682 H674 0.930 . S
C682 C681 1.362 1_556 S
C682 C685 1.409 . S
C683 H675 0.930 1_565 S
C683 C684 1.355 . S
C683 C685 1.415 1_565 S
C684 C683 1.355 . S
C684 C686 1.419 . S
C685 C680 1.425 1_546 S
C685 C682 1.409 . S
C685 C683 1.415 1_545 S
C686 H676 0.930 . S
C686 C684 1.419 . S
C686 C687 1.362 1_556 S
C687 H677 0.930 . S
C687 C680 1.409 . S
C687 C686 1.362 1_554 S
H688 C694 0.930 . S
H689 C697 0.930 . S
H690 C698 0.930 . S
H691 C699 0.930 . S
H692 C702 0.930 . S
H693 C703 0.930 . S
C694 H688 0.930 . S
C694 C695 1.355 . S
C694 C696 1.438 . S
C695 C694 1.355 . S
C695 C697 1.419 . S
C696 C694 1.438 . S
C696 C701 1.424 1_456 S
C696 C703 1.387 1_556 S
C697 H689 0.930 . S
C697 C695 1.419 . S
C697 C698 1.362 1_455 S
C698 H690 0.930 . S
C698 C697 1.362 1_655 S
C698 C701 1.387 1_556 S
C699 H691 0.930 . S
C699 C700 1.355 . S
C699 C701 1.438 . S
C700 C699 1.355 . S
C700 C702 1.419 . S
C701 C696 1.424 1_654 S
C701 C698 1.387 1_554 S
C701 C699 1.438 . S
C702 H692 0.930 . S
C702 C700 1.419 . S
C702 C703 1.362 1_655 S
C703 H693 0.930 . S
C703 C696 1.387 1_554 S
C703 C702 1.362 1_455 S
H704 C710 0.930 . S
H705 C713 0.930 . S
H706 C714 0.930 . S
H707 C715 0.930 . S
H708 C718 0.930 . S
H709 C719 0.930 . S
C710 H704 0.930 . S
C710 C711 1.355 . S
C710 C712 1.415 . S
C711 C710 1.355 . S
C711 C713 1.419 . S
C712 C710 1.415 . S
C712 C717 1.425 1_546 S
C712 C719 1.409 1_556 S
C713 H705 0.930 . S
C713 C711 1.419 . S
C713 C714 1.362 1_545 S
C714 H706 0.930 . S
C714 C713 1.362 1_565 S
C714 C717 1.409 1_556 S
C715 H707 0.930 . S
C715 C716 1.355 . S
C715 C717 1.415 . S
C716 C715 1.355 . S
C716 C718 1.419 . S
C717 C712 1.425 1_564 S
C717 C714 1.409 1_554 S
C717 C715 1.415 . S
C718 H708 0.930 . S
C718 C716 1.419 . S
C718 C719 1.362 1_565 S
C719 H709 0.930 . S
C719 C712 1.409 1_554 S
C719 C718 1.362 1_545 S
H720 C726 0.930 . S
H721 C729 0.930 . S
H722 C730 0.930 . S
H723 C731 0.930 . S
H724 C734 0.930 . S
H725 C735 0.930 . S
C726 H720 0.930 . S
C726 C727 1.355 . S
C726 C728 1.415 1_556 S
C727 C726 1.355 . S
C727 C729 1.419 1_655 S
C728 C726 1.415 1_554 S
C728 C733 1.425 1_654 S
C728 C735 1.409 . S
C729 H721 0.930 . S
C729 C727 1.419 1_455 S
C729 C730 1.362 . S
C730 H722 0.930 . S
C730 C729 1.362 . S
C730 C733 1.409 . S
C731 H723 0.930 . S
C731 C732 1.355 . S
C731 C733 1.415 1_554 S
C732 C731 1.355 . S
C732 C734 1.419 1_455 S
C733 C728 1.425 1_456 S
C733 C730 1.409 . S
C733 C731 1.415 1_556 S
C734 H724 0.930 . S
C734 C732 1.419 1_655 S
C734 C735 1.362 . S
C735 H725 0.930 . S
C735 C728 1.409 . S
C735 C734 1.362 . S
C231 C11 1.241 . S
C236 C109 1.290 . S
C247 C25 1.245 . S
C252 C67 1.286 . S
C263 C81 1.291 . S
C268 C39 1.240 . S
C279 C53 1.291 . S
C284 C95 1.240 . S
C295 C123 1.289 . S
C300 C221 1.242 . S
C311 C179 1.252 . S
C316 C137 1.279 . S
C327 C193 1.290 . S
C332 C151 1.241 . S
C343 C207 1.291 . S
C348 C165 1.240 . S
C359 C8 1.127 . S
C364 C161 1.142 . S
C375 C22 1.050 . S
C380 C119 1.159 . S
C391 C133 1.167 . S
C396 C36 1.089 . S
C407 C50 1.085 . S
C412 C147 1.168 . S
C423 C64 1.043 . S
C428 C189 1.171 . S
C439 C203 1.165 . S
C444 C78 1.101 . S
C455 C92 1.050 . S
C460 C217 1.171 . S
C471 C175 1.143 . S
C476 C106 1.154 . S
C487 C120 1.074 . S
C492 C49 1.170 . S
C503 C7 1.143 . S
C508 C134 1.153 . S
C519 C148 1.041 1_565 S
C524 C21 1.161 . S
C535 C35 1.169 . S
C540 C162 1.075 . S
C551 C176 1.062 . S
C556 C77 1.171 . S
C567 C91 1.152 . S
C572 C190 1.052 1_655 S
C583 C105 1.145 . S
C588 C204 1.085 1_545 S
C599 C63 1.171 . S
C604 C218 1.061 . S
C615 C69 1.513 . S
C620 C13 1.437 . S
C631 C83 1.430 . S
C636 C27 1.447 . S
C647 C41 1.436 . S
C652 C97 1.439 . S
C663 C111 1.435 . S
C668 C55 1.440 . S
C679 C181 1.512 . S
C684 C125 1.457 . S
C695 C195 1.417 . S
C700 C139 1.471 . S
C711 C153 1.420 . S
C716 C209 1.502 . S
C727 C223 1.449 . S
C732 C167 1.428 . S
