# Generated by pormake.
# Topology ull, (4)-cn, num edge types: 1
# Building blocks:
#     Node 0, Type 0, BuildingBlock: TATPOV_clean_sbu_0, # of connection points: 4
#     Node 1, Type 0, BuildingBlock: TATPOV_clean_sbu_0, # of connection points: 4
#     Node 2, Type 0, BuildingBlock: TATPOV_clean_sbu_0, # of connection points: 4
#     Node 3, Type 0, BuildingBlock: TATPOV_clean_sbu_0, # of connection points: 4
#     Node 4, Type 0, BuildingBlock: TATPOV_clean_sbu_0, # of connection points: 4
#     Node 5, Type 0, BuildingBlock: TATPOV_clean_sbu_0, # of connection points: 4
#     Node 6, Type 0, BuildingBlock: TATPOV_clean_sbu_0, # of connection points: 4
#     Node 7, Type 0, BuildingBlock: TATPOV_clean_sbu_0, # of connection points: 4
#     Node 8, Type 0, BuildingBlock: TATPOV_clean_sbu_0, # of connection points: 4
#     Node 9, Type 0, BuildingBlock: TATPOV_clean_sbu_0, # of connection points: 4
#     Node 10, Type 0, BuildingBlock: TATPOV_clean_sbu_0, # of connection points: 4
#     Node 11, Type 0, BuildingBlock: TATPOV_clean_sbu_0, # of connection points: 4
#     Node 12, Type 0, BuildingBlock: TATPOV_clean_sbu_0, # of connection points: 4
#     Node 13, Type 0, BuildingBlock: TATPOV_clean_sbu_0, # of connection points: 4
#     Node 14, Type 0, BuildingBlock: TATPOV_clean_sbu_0, # of connection points: 4
#     Node 15, Type 0, BuildingBlock: TATPOV_clean_sbu_0, # of connection points: 4
#     Node 16, Type 0, BuildingBlock: TATPOV_clean_sbu_0, # of connection points: 4
#     Node 17, Type 0, BuildingBlock: TATPOV_clean_sbu_0, # of connection points: 4
#     Node 18, Type 0, BuildingBlock: TATPOV_clean_sbu_0, # of connection points: 4
#     Node 19, Type 0, BuildingBlock: TATPOV_clean_sbu_0, # of connection points: 4
#     Node 20, Type 0, BuildingBlock: TATPOV_clean_sbu_0, # of connection points: 4
#     Node 21, Type 0, BuildingBlock: TATPOV_clean_sbu_0, # of connection points: 4
#     Node 22, Type 0, BuildingBlock: TATPOV_clean_sbu_0, # of connection points: 4
#     Node 23, Type 0, BuildingBlock: TATPOV_clean_sbu_0, # of connection points: 4
#     Node 24, Type 0, BuildingBlock: TATPOV_clean_sbu_0, # of connection points: 4
#     Node 25, Type 0, BuildingBlock: TATPOV_clean_sbu_0, # of connection points: 4
#     Node 26, Type 0, BuildingBlock: TATPOV_clean_sbu_0, # of connection points: 4
#     Node 27, Type 0, BuildingBlock: TATPOV_clean_sbu_0, # of connection points: 4
#     Node 28, Type 0, BuildingBlock: TATPOV_clean_sbu_0, # of connection points: 4
#     Node 29, Type 0, BuildingBlock: TATPOV_clean_sbu_0, # of connection points: 4
#     Node 30, Type 0, BuildingBlock: TATPOV_clean_sbu_0, # of connection points: 4
#     Node 31, Type 0, BuildingBlock: TATPOV_clean_sbu_0, # of connection points: 4
#     Node 32, Type 0, BuildingBlock: TATPOV_clean_sbu_0, # of connection points: 4
#     Node 33, Type 0, BuildingBlock: TATPOV_clean_sbu_0, # of connection points: 4
#     Node 34, Type 0, BuildingBlock: TATPOV_clean_sbu_0, # of connection points: 4
#     Node 35, Type 0, BuildingBlock: TATPOV_clean_sbu_0, # of connection points: 4
#     Node 36, Type 0, BuildingBlock: TATPOV_clean_sbu_0, # of connection points: 4
#     Node 37, Type 0, BuildingBlock: TATPOV_clean_sbu_0, # of connection points: 4
#     Node 38, Type 0, BuildingBlock: TATPOV_clean_sbu_0, # of connection points: 4
#     Node 39, Type 0, BuildingBlock: TATPOV_clean_sbu_0, # of connection points: 4
#     Node 40, Type 0, BuildingBlock: TATPOV_clean_sbu_0, # of connection points: 4
#     Node 41, Type 0, BuildingBlock: TATPOV_clean_sbu_0, # of connection points: 4
#     Node 42, Type 0, BuildingBlock: TATPOV_clean_sbu_0, # of connection points: 4
#     Node 43, Type 0, BuildingBlock: TATPOV_clean_sbu_0, # of connection points: 4
#     Node 44, Type 0, BuildingBlock: TATPOV_clean_sbu_0, # of connection points: 4
#     Node 45, Type 0, BuildingBlock: TATPOV_clean_sbu_0, # of connection points: 4
#     Node 46, Type 0, BuildingBlock: TATPOV_clean_sbu_0, # of connection points: 4
#     Node 47, Type 0, BuildingBlock: TATPOV_clean_sbu_0, # of connection points: 4
#     Edge 48, Type (0, 0), None
#     Edge 49, Type (0, 0), None
#     Edge 50, Type (0, 0), None
#     Edge 51, Type (0, 0), None
#     Edge 52, Type (0, 0), None
#     Edge 53, Type (0, 0), None
#     Edge 54, Type (0, 0), None
#     Edge 55, Type (0, 0), None
#     Edge 56, Type (0, 0), None
#     Edge 57, Type (0, 0), None
#     Edge 58, Type (0, 0), None
#     Edge 59, Type (0, 0), None
#     Edge 60, Type (0, 0), None
#     Edge 61, Type (0, 0), None
#     Edge 62, Type (0, 0), None
#     Edge 63, Type (0, 0), None
#     Edge 64, Type (0, 0), None
#     Edge 65, Type (0, 0), None
#     Edge 66, Type (0, 0), None
#     Edge 67, Type (0, 0), None
#     Edge 68, Type (0, 0), None
#     Edge 69, Type (0, 0), None
#     Edge 70, Type (0, 0), None
#     Edge 71, Type (0, 0), None
#     Edge 72, Type (0, 0), None
#     Edge 73, Type (0, 0), None
#     Edge 74, Type (0, 0), None
#     Edge 75, Type (0, 0), None
#     Edge 76, Type (0, 0), None
#     Edge 77, Type (0, 0), None
#     Edge 78, Type (0, 0), None
#     Edge 79, Type (0, 0), None
#     Edge 80, Type (0, 0), None
#     Edge 81, Type (0, 0), None
#     Edge 82, Type (0, 0), None
#     Edge 83, Type (0, 0), None
#     Edge 84, Type (0, 0), None
#     Edge 85, Type (0, 0), None
#     Edge 86, Type (0, 0), None
#     Edge 87, Type (0, 0), None
#     Edge 88, Type (0, 0), None
#     Edge 89, Type (0, 0), None
#     Edge 90, Type (0, 0), None
#     Edge 91, Type (0, 0), None
#     Edge 92, Type (0, 0), None
#     Edge 93, Type (0, 0), None
#     Edge 94, Type (0, 0), None
#     Edge 95, Type (0, 0), None
#     Edge 96, Type (0, 0), None
#     Edge 97, Type (0, 0), None
#     Edge 98, Type (0, 0), None
#     Edge 99, Type (0, 0), None
#     Edge 100, Type (0, 0), None
#     Edge 101, Type (0, 0), None
#     Edge 102, Type (0, 0), None
#     Edge 103, Type (0, 0), None
#     Edge 104, Type (0, 0), None
#     Edge 105, Type (0, 0), None
#     Edge 106, Type (0, 0), None
#     Edge 107, Type (0, 0), None
#     Edge 108, Type (0, 0), None
#     Edge 109, Type (0, 0), None
#     Edge 110, Type (0, 0), None
#     Edge 111, Type (0, 0), None
#     Edge 112, Type (0, 0), None
#     Edge 113, Type (0, 0), None
#     Edge 114, Type (0, 0), None
#     Edge 115, Type (0, 0), None
#     Edge 116, Type (0, 0), None
#     Edge 117, Type (0, 0), None
#     Edge 118, Type (0, 0), None
#     Edge 119, Type (0, 0), None
#     Edge 120, Type (0, 0), None
#     Edge 121, Type (0, 0), None
#     Edge 122, Type (0, 0), None
#     Edge 123, Type (0, 0), None
#     Edge 124, Type (0, 0), None
#     Edge 125, Type (0, 0), None
#     Edge 126, Type (0, 0), None
#     Edge 127, Type (0, 0), None
#     Edge 128, Type (0, 0), None
#     Edge 129, Type (0, 0), None
#     Edge 130, Type (0, 0), None
#     Edge 131, Type (0, 0), None
#     Edge 132, Type (0, 0), None
#     Edge 133, Type (0, 0), None
#     Edge 134, Type (0, 0), None
#     Edge 135, Type (0, 0), None
#     Edge 136, Type (0, 0), None
#     Edge 137, Type (0, 0), None
#     Edge 138, Type (0, 0), None
#     Edge 139, Type (0, 0), None
#     Edge 140, Type (0, 0), None
#     Edge 141, Type (0, 0), None
#     Edge 142, Type (0, 0), None
#     Edge 143, Type (0, 0), None
# Relax obj value: 0.159
# Max RMSD: 0.208
# Mean RMSD: 0.208
data_MOF--net-ull--node1-TATPOV_clean_sbu_0--edge1-none
_symmetry_space_group_name_H-M    P1
_symmetry_Int_Tables_number       1
_symmetry_cell_setting            triclinic
loop_
_symmetry_equiv_pos_as_xyz
'x, y, z'
_cell_length_a     27.019154
_cell_length_b     27.250401
_cell_length_c     27.439129
_cell_angle_alpha  91.21245
_cell_angle_beta   90.104289
_cell_angle_gamma 90.232015
loop_
_atom_site_label
_atom_site_type_symbol
_atom_site_fract_x
_atom_site_fract_y
_atom_site_fract_z
_atom_type_partial_charge
Zn0 Zn 0.02344 0.27387 0.08859 0.0
Zn1 Zn 0.00765 0.34558 0.14865 0.0
O2 O 0.07333 0.36827 0.11384 0.0
O3 O 0.08667 0.30306 0.06729 0.0
O4 O 0.00136 0.39252 0.20611 0.0
O5 O 0.02789 0.22241 0.13821 0.0
O6 O 0.01591 0.28341 0.19043 0.0
C7 C 0.10027 0.34479 0.08329 0.0
C8 C 0.93094 0.3211 0.06881 0.0
O9 O 0.94219 0.34788 0.10615 0.0
O10 O 0.9603 0.288 0.05397 0.0
C11 C 0.02984 0.42933 0.21199 0.0
O12 O 0.05578 0.44504 0.175 0.0
C13 C 0.02413 0.23814 0.18163 0.0
Zn14 Zn 0.70081 0.01776 0.08498 0.0
Zn15 Zn 0.63709 -0.00523 0.13872 0.0
O16 O 0.61108 0.06137 0.11084 0.0
O17 O 0.68417 0.08809 0.09058 0.0
O18 O 0.58965 0.9821 0.19376 0.0
O19 O 0.75973 -0.00025 0.12057 0.0
O20 O 0.70351 -0.0007 0.17843 0.0
C21 C 0.63904 0.09657 0.09834 0.0
C22 C 0.65513 0.93422 0.04699 0.0
O23 O 0.63706 0.93434 0.08999 0.0
O24 O 0.67819 0.97161 0.03238 0.0
C25 C 0.54905 0.00506 0.19895 0.0
O26 O 0.53119 0.02996 0.16251 0.0
C27 C 0.74878 -0.0018 0.16507 0.0
Zn28 Zn 0.98685 0.66053 0.07535 0.0
Zn29 Zn 0.00912 0.61113 0.14293 0.0
O30 O 0.9368 0.59161 0.1214 0.0
O31 O 0.9423 0.60903 0.04499 0.0
O32 O 0.01915 0.57112 0.20298 0.0
O33 O 0.96309 0.71515 0.12021 0.0
O34 O 0.00593 0.67804 0.17656 0.0
C35 C 0.91877 0.58877 0.07866 0.0
C36 C 0.08226 0.63428 0.05979 0.0
O37 O 0.07065 0.60509 0.09414 0.0
O38 O 0.05242 0.66716 0.04733 0.0
C39 C 0.98849 0.53712 0.21227 0.0
O40 O 0.96174 0.51762 0.17683 0.0
C41 C 0.98145 0.71483 0.16267 0.0
Zn42 Zn 0.25146 0.00582 0.10341 0.0
Zn43 Zn 0.32737 0.00652 0.15312 0.0
O44 O 0.33794 0.94037 0.11467 0.0
O45 O 0.25986 0.93259 0.09428 0.0
O46 O 0.37814 0.00573 0.20784 0.0
O47 O 0.20176 0.03034 0.1517 0.0
O48 O 0.26392 0.00631 0.19692 0.0
C49 C 0.3027 0.91421 0.09725 0.0
C50 C 0.31735 0.07811 0.06941 0.0
O51 O 0.33934 0.06889 0.10957 0.0
O52 O 0.28074 0.05218 0.05583 0.0
C53 C 0.41523 0.97729 0.21019 0.0
O54 O 0.42826 0.95124 0.17155 0.0
C55 C 0.21875 0.01918 0.19281 0.0
Zn56 Zn 0.03057 0.63802 0.88665 0.0
Zn57 Zn 0.00808 0.59299 0.81847 0.0
O58 O 0.0801 0.57438 0.84271 0.0
O59 O 0.07027 0.58571 0.92028 0.0
O60 O 0.00338 0.55291 0.75588 0.0
O61 O 0.05754 0.69411 0.84753 0.0
O62 O 0.00873 0.66253 0.79106 0.0
C63 C 0.09616 0.56873 0.88588 0.0
C64 C 0.93274 0.61779 0.89775 0.0
O65 O 0.94375 0.58584 0.86442 0.0
O66 O 0.96443 0.64956 0.91042 0.0
C67 C 0.03246 0.51685 0.74863 0.0
O68 O 0.05624 0.49812 0.78558 0.0
C69 C 0.0348 0.69817 0.80739 0.0
Zn70 Zn 0.33688 0.04673 0.88809 0.0
Zn71 Zn 0.38889 0.01918 0.82794 0.0
O72 O 0.4119 0.08847 0.85582 0.0
O73 O 0.39213 0.07495 0.93049 0.0
O74 O 0.43341 0.00574 0.7705 0.0
O75 O 0.29161 0.08273 0.84214 0.0
O76 O 0.3219 0.02585 0.79321 0.0
C77 C 0.41403 0.10169 0.90056 0.0
C78 C 0.34444 0.94816 0.89712 0.0
O79 O 0.38419 0.9569 0.87336 0.0
O80 O 0.31296 0.98168 0.90293 0.0
C81 C 0.47212 0.03104 0.76271 0.0
O82 O 0.48959 0.06045 0.79719 0.0
C83 C 0.28832 0.05704 0.80318 0.0
Zn84 Zn 0.95575 0.33266 0.88135 0.0
Zn85 Zn 0.96971 0.38693 0.82128 0.0
O86 O 0.89875 0.39752 0.85241 0.0
O87 O 0.91819 0.37874 0.92613 0.0
O88 O 0.96632 0.43029 0.76211 0.0
O89 O 0.92609 0.28065 0.83683 0.0
O90 O 0.9727 0.32023 0.78536 0.0
C91 C 0.88754 0.39733 0.89744 0.0
C92 C 0.05139 0.35987 0.89199 0.0
O93 O 0.0353 0.39546 0.86635 0.0
O94 O 0.02444 0.32258 0.89725 0.0
C95 C 0.93372 0.46368 0.75856 0.0
O96 O 0.90973 0.47871 0.79764 0.0
C97 C 0.9482 0.28212 0.79624 0.0
Zn98 Zn 0.69396 0.96702 0.8746 0.0
Zn99 Zn 0.62726 0.9758 0.82257 0.0
O100 O 0.61505 0.90728 0.85403 0.0
O101 O 0.6935 0.89348 0.86592 0.0
O102 O 0.5784 0.97653 0.76711 0.0
O103 O 0.74228 0.00701 0.83786 0.0
O104 O 0.69131 0.98099 0.78081 0.0
C105 C 0.64968 0.87732 0.86309 0.0
C106 C 0.63398 0.037 0.91462 0.0
O107 O 0.61924 0.03704 0.8703 0.0
O108 O 0.65936 0.00132 0.92928 0.0
C109 C 0.54458 0.94432 0.76161 0.0
O110 O 0.53228 0.91665 0.79828 0.0
C111 C 0.73258 0.00019 0.79331 0.0
Zn112 Zn 0.09124 0.01712 0.28205 0.0
Zn113 Zn 0.15443 0.98161 0.32932 0.0
O114 O 0.14313 0.05567 0.3484 0.0
O115 O 0.0642 0.0494 0.34493 0.0
O116 O 0.20735 0.96262 0.37669 0.0
O117 O 0.14601 0.04147 0.23602 0.0
O118 O 0.19263 0.98362 0.26633 0.0
C119 C 0.10123 0.0744 0.35756 0.0
C120 C 0.06254 0.92388 0.2919 0.0
O121 O 0.09619 0.92799 0.32489 0.0
O122 O 0.05659 0.95774 0.26191 0.0
C123 C 0.2062 0.984 0.4182 0.0
O124 O 0.16386 0.00149 0.43418 0.0
C125 C 0.18504 0.0157 0.23427 0.0
Zn126 Zn 0.06349 0.11638 0.26272 0.0
Zn127 Zn 0.00129 0.17416 0.32778 0.0
O128 O 0.9526 0.11886 0.31299 0.0
O129 O 0.00459 0.0698 0.27344 0.0
O130 O 0.96144 0.22099 0.36865 0.0
O131 O 0.0492 0.16216 0.21014 0.0
O132 O 0.01599 0.21351 0.26446 0.0
C133 C 0.96251 0.07776 0.29258 0.0
C134 C 0.09529 0.12778 0.35585 0.0
O135 O 0.054 0.14311 0.37172 0.0
O136 O 0.10921 0.14512 0.31599 0.0
C137 C 0.96434 0.23383 0.41334 0.0
O138 O -0.00122 0.21567 0.44135 0.0
C139 C 0.03047 0.20336 0.22103 0.0
Zn140 Zn 0.87453 0.96672 0.23514 0.0
Zn141 Zn 0.82789 0.98767 0.30549 0.0
O142 O 0.85498 0.91833 0.32316 0.0
O143 O 0.86685 0.89588 0.2472 0.0
O144 O 0.77636 0.00091 0.35659 0.0
O145 O 0.83273 -0.00696 0.18389 0.0
O146 O 0.78094 0.9889 0.24524 0.0
C147 C 0.86405 0.88478 0.29149 0.0
C148 C 0.92456 0.03961 0.28654 0.0
O149 O 0.88241 0.04236 0.30753 0.0
O150 O 0.93356 0.00458 0.25704 0.0
C151 C 0.77893 0.98419 0.39926 0.0
O152 O 0.82173 0.96876 0.41561 0.0
C153 C 0.78905 -0.006 0.19994 0.0
Zn154 Zn 0.93844 0.83919 0.23127 0.0
Zn155 Zn 0.97795 0.79323 0.30783 0.0
O156 O 0.03449 0.8423 0.30945 0.0
O157 O 0.99024 0.88794 0.26019 0.0
O158 O 0.99269 0.742 0.3563 0.0
O159 O 0.96067 0.79692 0.17777 0.0
O160 O 0.97822 0.75214 0.24183 0.0
C161 C 0.02757 0.88257 0.28799 0.0
C162 C 0.88079 0.8355 0.30417 0.0
O163 O 0.91812 0.83448 0.33184 0.0
O164 O 0.8822 0.80587 0.26858 0.0
C165 C 0.00319 0.74993 0.40077 0.0
O166 O 0.00197 0.79488 0.41892 0.0
C167 C 0.9737 0.7567 0.19564 0.0
Zn168 Zn 0.14752 0.0252 0.76968 0.0
Zn169 Zn 0.17676 0.02092 0.68722 0.0
O170 O 0.13832 0.95475 0.69495 0.0
O171 O 0.14141 0.95201 0.77439 0.0
O172 O 0.21529 0.01045 0.62352 0.0
O173 O 0.20205 0.06203 0.80251 0.0
O174 O 0.23671 0.03353 0.73556 0.0
C175 C 0.13073 0.93147 0.73391 0.0
C176 C 0.08859 0.08504 0.71236 0.0
O177 O 0.12432 0.07844 0.68221 0.0
O178 O 0.08762 0.06174 0.75159 0.0
C179 C 0.20723 0.97329 0.59564 0.0
O180 O 0.16785 0.94604 0.60272 0.0
C181 C 0.24055 0.05351 0.77798 0.0
Zn182 Zn 0.93951 0.14534 0.73424 0.0
Zn183 Zn 0.98701 0.19212 0.6629 0.0
O184 O 0.05017 0.15595 0.67843 0.0
O185 O 0.00556 0.10686 0.72416 0.0
O186 O 0.00388 0.23885 0.60955 0.0
O187 O 0.9386 0.19753 0.78383 0.0
O188 O 0.96663 0.23942 0.7215 0.0
C189 C 0.04619 0.11716 0.70308 0.0
C190 C 0.90048 0.12537 0.65228 0.0
O191 O 0.9435 0.13457 0.63663 0.0
O192 O 0.88443 0.15482 0.68411 0.0
C193 C 0.02107 0.22615 0.56821 0.0
O194 O 0.0253 0.17932 0.55675 0.0
C195 C 0.95034 0.23789 0.76528 0.0
Zn196 Zn 0.86795 0.01153 0.73443 0.0
Zn197 Zn 0.82687 0.98162 0.66478 0.0
O198 O 0.85162 0.05253 0.64934 0.0
O199 O 0.91355 0.05729 0.70002 0.0
O200 O 0.78446 0.96823 0.60515 0.0
O201 O 0.80841 0.03446 0.77058 0.0
O202 O 0.7743 0.98131 0.71933 0.0
C203 C 0.89087 0.07409 0.66385 0.0
C204 C 0.89845 0.91679 0.71859 0.0
O205 O 0.88079 0.92622 0.67637 0.0
O206 O 0.89176 0.94684 0.75345 0.0
C207 C 0.79517 0.99064 0.56633 0.0
O208 O 0.84038 0.00733 0.5605 0.0
C209 C 0.77204 0.00772 0.75811 0.0
Zn210 Zn 0.01497 0.84222 0.7801 0.0
Zn211 Zn 0.02246 0.81476 0.69368 0.0
O212 O 0.9588 0.85769 0.69322 0.0
O213 O 0.94866 0.8727 0.77129 0.0
O214 O 0.01702 0.77722 0.62806 0.0
O215 O 0.02497 0.78263 0.81651 0.0
O216 O 0.0275 0.75388 0.74098 0.0
C217 C 0.93444 0.87776 0.72774 0.0
C218 C 0.09613 0.88971 0.73507 0.0
O219 O 0.08276 0.86478 0.69704 0.0
O220 O 0.0733 0.8848 0.77476 0.0
C221 C 0.98425 0.7876 0.59642 0.0
O222 O 0.96002 0.8291 0.60062 0.0
C223 C 0.02971 0.74701 0.78696 0.0
Zn224 Zn 0.32486 0.1594 0.93328 0.0
Zn225 Zn 0.37905 0.20782 0.00415 0.0
O226 O 0.35365 0.15689 0.05222 0.0
O227 O 0.32264 0.11169 -0.00849 0.0
O228 O 0.42343 0.25591 0.04209 0.0
O229 O 0.27115 0.20658 0.93218 0.0
O230 O 0.31863 0.25213 0.98082 0.0
C231 C 0.33347 0.1172 0.03649 0.0
C232 C 0.4167 0.15411 0.91387 0.0
O233 O 0.42233 0.1633 0.95913 0.0
O234 O 0.38474 0.17914 0.89256 0.0
C235 C 0.46523 0.24933 0.06243 0.0
O236 O 0.48636 0.20606 0.05965 0.0
C237 C 0.2792 0.24641 0.95515 0.0
Zn238 Zn 0.27903 0.84112 0.98055 0.0
Zn239 Zn 0.35963 0.81656 0.98428 0.0
O240 O 0.36504 0.86851 0.92856 0.0
O241 O 0.29312 0.90124 0.94539 0.0
O242 O 0.4255 0.78255 0.97663 0.0
O243 O 0.24751 0.78702 0.94465 0.0
O244 O 0.31214 0.7533 0.97811 0.0
C245 C 0.33394 0.90294 0.92324 0.0
C246 C 0.31105 0.86811 0.06948 0.0
O247 O 0.35217 0.86057 0.04765 0.0
O248 O 0.27247 0.84747 0.05272 0.0
C249 C 0.42498 0.765 0.93319 0.0
O250 O 0.38648 0.77327 0.90529 0.0
C251 C 0.27023 0.74895 0.95686 0.0
Zn252 Zn 0.15344 0.30809 -0.00797 0.0
Zn253 Zn 0.18942 0.38352 0.97039 0.0
O254 O 0.13673 0.38067 0.91368 0.0
O255 O 0.09196 0.33522 0.9617 0.0
O256 O 0.23612 0.43956 0.95854 0.0
O257 O 0.19484 0.26382 0.95177 0.0
O258 O 0.2428 0.32587 0.97198 0.0
C259 C 0.09509 0.36147 0.92426 0.0
C260 C 0.14837 0.363 0.06606 0.0
O261 O 0.1468 0.39512 0.03324 0.0
O262 O 0.17954 0.32938 0.05921 0.0
C263 C 0.2332 0.46509 0.92057 0.0
O264 O 0.19352 0.46128 0.89306 0.0
C265 C 0.23777 0.28105 0.95824 0.0
Zn266 Zn 0.68201 0.14119 0.01688 0.0
Zn267 Zn 0.60837 0.17853 0.9858 0.0
O268 O 0.61697 0.1224 0.93339 0.0
O269 O 0.65389 0.07769 0.98785 0.0
O270 O 0.55242 0.22164 0.96526 0.0
O271 O 0.72881 0.179 0.97694 0.0
O272 O 0.66746 0.23021 -0.01119 0.0
C273 C 0.6319 0.08058 0.94723 0.0
C274 C 0.62034 0.14443 0.083 0.0
O275 O 0.58892 0.14227 0.04875 0.0
O276 O 0.65397 0.17601 0.07801 0.0
C277 C 0.52787 0.21093 0.92711 0.0
O278 O 0.53418 0.16805 0.90539 0.0
C279 C 0.71286 0.22243 0.97846 0.0
Zn280 Zn 0.84481 0.65649 0.02654 0.0
Zn281 Zn 0.80213 0.59302 0.97746 0.0
O282 O 0.8486 0.59361 0.91844 0.0
O283 O 0.89173 0.64101 0.96891 0.0
O284 O 0.74894 0.54192 0.96716 0.0
O285 O 0.80563 0.71537 0.02153 0.0
O286 O 0.76109 0.66059 0.98064 0.0
C287 C 0.88841 0.6167 0.9289 0.0
C288 C 0.86531 0.58267 0.07093 0.0
O289 O 0.85329 0.5675 0.02836 0.0
O290 O 0.84016 0.61732 0.0888 0.0
C291 C 0.75214 0.50634 0.93679 0.0
O292 O 0.79368 0.49958 0.91288 0.0
C293 C 0.76719 0.70444 -0.00237 0.0
Zn294 Zn 0.7097 0.83103 0.94384 0.0
Zn295 Zn 0.63049 0.79061 0.97916 0.0
O296 O 0.63971 0.84851 0.02883 0.0
O297 O 0.682 0.89236 0.97675 0.0
O298 O 0.57477 0.74916 0.00476 0.0
O299 O 0.75248 0.78723 0.98251 0.0
O300 O 0.68775 0.73831 0.97779 0.0
C301 C 0.65697 0.8898 0.01564 0.0
C302 C 0.6402 0.82732 0.88023 0.0
O303 O 0.60991 0.82451 0.91537 0.0
O304 O 0.67829 0.80102 0.88298 0.0
C305 C 0.54639 0.76313 0.03911 0.0
O306 O 0.54821 0.80891 0.05494 0.0
C307 C 0.7339 0.7448 0.98549 0.0
Zn308 Zn 0.17082 0.64377 0.92606 0.0
Zn309 Zn 0.21297 0.59547 0.98627 0.0
O310 O 0.16524 0.60736 0.04194 0.0
O311 O 0.12145 0.64243 0.98449 0.0
O312 O 0.26468 0.54819 0.01053 0.0
O313 O 0.20872 0.70261 0.91925 0.0
O314 O 0.25096 0.66449 0.97556 0.0
C315 C 0.12534 0.62727 0.02795 0.0
C316 C 0.14967 0.56446 0.89512 0.0
O317 O 0.16182 0.55895 0.93961 0.0
O318 O 0.17574 0.59325 0.87077 0.0
C319 C 0.25488 0.51259 0.03823 0.0
O320 O 0.20861 0.50302 0.0493 0.0
C321 C 0.24435 0.70202 0.9488 0.0
Zn322 Zn 0.83335 0.30688 0.94254 0.0
Zn323 Zn 0.78998 0.36594 0.00927 0.0
O324 O 0.84688 0.34839 0.0559 0.0
O325 O 0.88796 0.31354 -0.00514 0.0
O326 O 0.74222 0.41085 0.04593 0.0
O327 O 0.78794 0.25156 0.94888 0.0
O328 O 0.7442 0.30406 -0.0069 0.0
C329 C 0.88635 0.32903 0.03888 0.0
C330 C 0.83562 0.39565 0.91278 0.0
O331 O 0.82856 0.4054 0.95775 0.0
O332 O 0.81247 0.35942 0.89502 0.0
C333 C 0.74621 0.45454 0.06281 0.0
O334 O 0.7877 0.47901 0.05728 0.0
C335 C 0.74881 0.26213 0.97167 0.0
Zn336 Zn 0.52345 0.77386 0.58859 0.0
Zn337 Zn 0.50766 0.84557 0.64865 0.0
O338 O 0.57334 0.86826 0.61384 0.0
O339 O 0.58668 0.80305 0.56729 0.0
O340 O 0.50137 0.89251 0.7061 0.0
O341 O 0.5279 0.7224 0.63821 0.0
O342 O 0.51592 0.7834 0.69043 0.0
C343 C 0.60028 0.84478 0.58329 0.0
C344 C 0.43095 0.82109 0.56881 0.0
O345 O 0.4422 0.84787 0.60615 0.0
O346 O 0.46031 0.78799 0.55397 0.0
C347 C 0.52984 0.92934 0.71197 0.0
O348 O 0.55579 0.94504 0.67499 0.0
C349 C 0.52414 0.73813 0.68163 0.0
Zn350 Zn 0.2008 0.51776 0.58499 0.0
Zn351 Zn 0.13709 0.49477 0.63872 0.0
O352 O 0.11107 0.56137 0.61084 0.0
O353 O 0.18416 0.58809 0.59058 0.0
O354 O 0.08963 0.4821 0.69376 0.0
O355 O 0.25972 0.49976 0.62057 0.0
O356 O 0.2035 0.49931 0.67843 0.0
C357 C 0.13903 0.59658 0.59834 0.0
C358 C 0.15513 0.43423 0.54699 0.0
O359 O 0.13705 0.43435 0.58999 0.0
O360 O 0.17819 0.47161 0.53238 0.0
C361 C 0.04903 0.50505 0.69894 0.0
O362 O 0.03117 0.52997 0.66251 0.0
C363 C 0.24877 0.4982 0.66507 0.0
Zn364 Zn 0.48685 0.16053 0.57536 0.0
Zn365 Zn 0.50912 0.11114 0.64294 0.0
O366 O 0.4368 0.09162 0.6214 0.0
O367 O 0.44231 0.10902 0.545 0.0
O368 O 0.51915 0.07112 0.70298 0.0
O369 O 0.46308 0.21515 0.62022 0.0
O370 O 0.50593 0.17805 0.67657 0.0
C371 C 0.41878 0.08877 0.57867 0.0
C372 C 0.58226 0.13429 0.5598 0.0
O373 O 0.57065 0.1051 0.59414 0.0
O374 O 0.55242 0.16717 0.54734 0.0
C375 C 0.48849 0.03711 0.71226 0.0
O376 O 0.46173 0.01761 0.67683 0.0
C377 C 0.48144 0.21484 0.66268 0.0
Zn378 Zn 0.75146 0.50581 0.60342 0.0
Zn379 Zn 0.82737 0.50652 0.65313 0.0
O380 O 0.83795 0.44037 0.61468 0.0
O381 O 0.75986 0.43258 0.59429 0.0
O382 O 0.87814 0.50573 0.70784 0.0
O383 O 0.70177 0.53033 0.65171 0.0
O384 O 0.76392 0.5063 0.69693 0.0
C385 C 0.8027 0.4142 0.59725 0.0
C386 C 0.81735 0.57811 0.56942 0.0
O387 O 0.83934 0.56889 0.60957 0.0
O388 O 0.78074 0.55217 0.55583 0.0
C389 C 0.91524 0.47729 0.71018 0.0
O390 O 0.92828 0.45123 0.67154 0.0
C391 C 0.71876 0.51917 0.69282 0.0
Zn392 Zn 0.53057 0.13803 0.38665 0.0
Zn393 Zn 0.50809 0.09299 0.31847 0.0
O394 O 0.5801 0.07438 0.34271 0.0
O395 O 0.57027 0.08572 0.42028 0.0
O396 O 0.50338 0.0529 0.25589 0.0
O397 O 0.55754 0.19411 0.34752 0.0
O398 O 0.50873 0.16254 0.29106 0.0
C399 C 0.59616 0.06874 0.38588 0.0
C400 C 0.43274 0.1178 0.39775 0.0
O401 O 0.44375 0.08585 0.36442 0.0
O402 O 0.46443 0.14957 0.41042 0.0
C403 C 0.53247 0.01684 0.24865 0.0
O404 O 0.55624 -0.00189 0.28559 0.0
C405 C 0.5348 0.19817 0.30738 0.0
Zn406 Zn 0.83688 0.54673 0.38809 0.0
Zn407 Zn 0.88889 0.51918 0.32794 0.0
O408 O 0.9119 0.58847 0.35582 0.0
O409 O 0.89213 0.57496 0.4305 0.0
O410 O 0.93341 0.50575 0.2705 0.0
O411 O 0.7916 0.58273 0.34214 0.0
O412 O 0.8219 0.52585 0.29321 0.0
C413 C 0.91402 0.60169 0.40057 0.0
C414 C 0.84444 0.44816 0.39712 0.0
O415 O 0.88419 0.45691 0.37337 0.0
O416 O 0.81296 0.48168 0.40294 0.0
C417 C 0.97212 0.53104 0.26272 0.0
O418 O 0.9896 0.56045 0.29719 0.0
C419 C 0.78832 0.55704 0.30319 0.0
Zn420 Zn 0.45576 0.83265 0.38135 0.0
Zn421 Zn 0.46972 0.88693 0.32128 0.0
O422 O 0.39875 0.89751 0.35241 0.0
O423 O 0.4182 0.87873 0.42613 0.0
O424 O 0.46632 0.93029 0.26211 0.0
O425 O 0.42609 0.78065 0.33683 0.0
O426 O 0.4727 0.82023 0.28536 0.0
C427 C 0.38755 0.89732 0.39745 0.0
C428 C 0.5514 0.85987 0.39198 0.0
O429 O 0.5353 0.89546 0.36634 0.0
O430 O 0.52445 0.82258 0.39725 0.0
C431 C 0.43372 0.96368 0.25857 0.0
O432 O 0.40973 0.97871 0.29764 0.0
C433 C 0.4482 0.78212 0.29623 0.0
Zn434 Zn 0.19397 0.46702 0.3746 0.0
Zn435 Zn 0.12726 0.4758 0.32257 0.0
O436 O 0.11505 0.40728 0.35403 0.0
O437 O 0.19351 0.39348 0.36592 0.0
O438 O 0.0784 0.47653 0.26712 0.0
O439 O 0.24228 0.50701 0.33786 0.0
O440 O 0.19131 0.48099 0.28081 0.0
C441 C 0.14969 0.37731 0.36309 0.0
C442 C 0.13399 0.537 0.41462 0.0
O443 O 0.11924 0.53704 0.3703 0.0
O444 O 0.15936 0.50132 0.42928 0.0
C445 C 0.04457 0.44432 0.26163 0.0
O446 O 0.03227 0.41664 0.29829 0.0
C447 C 0.23258 0.50018 0.29331 0.0
Zn448 Zn 0.59124 0.51711 0.78205 0.0
Zn449 Zn 0.65443 0.48161 0.82932 0.0
O450 O 0.64313 0.55566 0.84842 0.0
O451 O 0.56421 0.54939 0.84493 0.0
O452 O 0.70734 0.46261 0.8767 0.0
O453 O 0.64601 0.54146 0.73603 0.0
O454 O 0.69263 0.48361 0.76633 0.0
C455 C 0.60123 0.57439 0.85757 0.0
C456 C 0.56254 0.42388 0.79191 0.0
O457 O 0.59619 0.42799 0.8249 0.0
O458 O 0.55659 0.45774 0.76191 0.0
C459 C 0.70617 0.48397 0.91821 0.0
O460 O 0.66385 0.50148 0.93422 0.0
C461 C 0.68504 0.5157 0.73428 0.0
Zn462 Zn 0.56349 0.61638 0.76273 0.0
Zn463 Zn 0.5013 0.67416 0.82778 0.0
O464 O 0.4526 0.61886 0.81299 0.0
O465 O 0.50459 0.5698 0.77345 0.0
O466 O 0.46145 0.721 0.86865 0.0
O467 O 0.5492 0.66215 0.71015 0.0
O468 O 0.516 0.71351 0.76446 0.0
C469 C 0.46251 0.57776 0.79259 0.0
C470 C 0.59529 0.62777 0.85586 0.0
O471 O 0.554 0.64311 0.87173 0.0
O472 O 0.60921 0.64512 0.816 0.0
C473 C 0.46434 0.73383 0.91335 0.0
O474 O 0.49876 0.71565 0.94136 0.0
C475 C 0.53047 0.70335 0.72103 0.0
Zn476 Zn 0.37452 0.46673 0.73515 0.0
Zn477 Zn 0.32788 0.48768 0.8055 0.0
O478 O 0.35497 0.41833 0.82317 0.0
O479 O 0.36684 0.39588 0.7472 0.0
O480 O 0.27636 0.50092 0.8566 0.0
O481 O 0.33272 0.49305 0.6839 0.0
O482 O 0.28093 0.48891 0.74525 0.0
C483 C 0.36404 0.38479 0.7915 0.0
C484 C 0.42455 0.53961 0.78655 0.0
O485 O 0.3824 0.54236 0.80753 0.0
O486 O 0.43356 0.50458 0.75705 0.0
C487 C 0.27895 0.48422 0.89928 0.0
O488 O 0.32173 0.46878 0.91565 0.0
C489 C 0.28904 0.494 0.69995 0.0
Zn490 Zn 0.43843 0.3392 0.73128 0.0
Zn491 Zn 0.47794 0.29323 0.80784 0.0
O492 O 0.53448 0.3423 0.80946 0.0
O493 O 0.49023 0.38794 0.7602 0.0
O494 O 0.49268 0.24201 0.85631 0.0
O495 O 0.46066 0.29692 0.67778 0.0
O496 O 0.47821 0.25214 0.74184 0.0
C497 C 0.52757 0.38257 0.78799 0.0
C498 C 0.38078 0.3355 0.80418 0.0
O499 O 0.41812 0.33449 0.83185 0.0
O500 O 0.38219 0.30587 0.76859 0.0
C501 C 0.50317 0.24994 0.90078 0.0
O502 O 0.50196 0.29489 0.91895 0.0
C503 C 0.47369 0.2567 0.69565 0.0
Zn504 Zn 0.64752 0.5252 0.26968 0.0
Zn505 Zn 0.67676 0.52092 0.18722 0.0
O506 O 0.63832 0.45475 0.19495 0.0
O507 O 0.64141 0.45201 0.27438 0.0
O508 O 0.71529 0.51045 0.12352 0.0
O509 O 0.70205 0.56203 0.30251 0.0
O510 O 0.73671 0.53353 0.23556 0.0
C511 C 0.63073 0.43147 0.23391 0.0
C512 C 0.58859 0.58504 0.21236 0.0
O513 O 0.62432 0.57843 0.18221 0.0
O514 O 0.58762 0.56173 0.25159 0.0
C515 C 0.70722 0.4733 0.09563 0.0
O516 O 0.66783 0.44605 0.1027 0.0
C517 C 0.74055 0.55351 0.27798 0.0
Zn518 Zn 0.43951 0.64534 0.23424 0.0
Zn519 Zn 0.48701 0.69212 0.1629 0.0
O520 O 0.55017 0.65594 0.17843 0.0
O521 O 0.50555 0.60685 0.22416 0.0
O522 O 0.50388 0.73885 0.10954 0.0
O523 O 0.4386 0.69753 0.28382 0.0
O524 O 0.46663 0.73942 0.2215 0.0
C525 C 0.54619 0.61716 0.20308 0.0
C526 C 0.40048 0.62536 0.15227 0.0
O527 O 0.4435 0.63457 0.13662 0.0
O528 O 0.38443 0.65482 0.1841 0.0
C529 C 0.52106 0.72614 0.06821 0.0
O530 O 0.52529 0.67932 0.05673 0.0
C531 C 0.45034 0.73788 0.26528 0.0
Zn532 Zn 0.36795 0.51153 0.23442 0.0
Zn533 Zn 0.32686 0.48162 0.16477 0.0
O534 O 0.35162 0.55253 0.14933 0.0
O535 O 0.41355 0.55729 0.20002 0.0
O536 O 0.28446 0.46823 0.10514 0.0
O537 O 0.30841 0.53446 0.27058 0.0
O538 O 0.2743 0.48131 0.21932 0.0
C539 C 0.39087 0.57409 0.16384 0.0
C540 C 0.39845 0.41679 0.21858 0.0
O541 O 0.38079 0.42622 0.17636 0.0
O542 O 0.39176 0.44683 0.25344 0.0
C543 C 0.29518 0.49063 0.06632 0.0
O544 O 0.34039 0.50733 0.06048 0.0
C545 C 0.27204 0.50772 0.2581 0.0
Zn546 Zn 0.51497 0.34222 0.2801 0.0
Zn547 Zn 0.52246 0.31476 0.19367 0.0
O548 O 0.4588 0.35769 0.19321 0.0
O549 O 0.44866 0.3727 0.27128 0.0
O550 O 0.51702 0.27722 0.12805 0.0
O551 O 0.52497 0.28263 0.3165 0.0
O552 O 0.5275 0.25388 0.24097 0.0
C553 C 0.43444 0.37775 0.22773 0.0
C554 C 0.59613 0.38971 0.23507 0.0
O555 O 0.58276 0.36478 0.19704 0.0
O556 O 0.5733 0.3848 0.27476 0.0
C557 C 0.48426 0.28761 0.09641 0.0
O558 O 0.46003 0.32911 0.10061 0.0
C559 C 0.52971 0.24701 0.28695 0.0
Zn560 Zn 0.82486 0.65939 0.43327 0.0
Zn561 Zn 0.87905 0.70782 0.50416 0.0
O562 O 0.85364 0.65688 0.55222 0.0
O563 O 0.82264 0.61168 0.49151 0.0
O564 O 0.92343 0.75591 0.5421 0.0
O565 O 0.77116 0.70658 0.43218 0.0
O566 O 0.81863 0.75213 0.48082 0.0
C567 C 0.83346 0.6172 0.53649 0.0
C568 C 0.91671 0.65411 0.41388 0.0
O569 O 0.92233 0.6633 0.45914 0.0
O570 O 0.88474 0.67915 0.39257 0.0
C571 C 0.96524 0.74933 0.56243 0.0
O572 O 0.98637 0.70606 0.55965 0.0
C573 C 0.7792 0.7464 0.45515 0.0
Zn574 Zn 0.77903 0.34112 0.48056 0.0
Zn575 Zn 0.85963 0.31656 0.48429 0.0
O576 O 0.86504 0.36851 0.42857 0.0
O577 O 0.79312 0.40125 0.4454 0.0
O578 O 0.9255 0.28256 0.47663 0.0
O579 O 0.74752 0.28703 0.44465 0.0
O580 O 0.81215 0.2533 0.47812 0.0
C581 C 0.83394 0.40294 0.42325 0.0
C582 C 0.81106 0.3681 0.56949 0.0
O583 O 0.85218 0.36057 0.54765 0.0
O584 O 0.77248 0.34746 0.55274 0.0
C585 C 0.92498 0.265 0.43319 0.0
O586 O 0.88647 0.27327 0.4053 0.0
C587 C 0.77023 0.24896 0.45686 0.0
Zn588 Zn 0.65344 0.80809 0.49203 0.0
Zn589 Zn 0.68942 0.88351 0.47039 0.0
O590 O 0.63674 0.88066 0.41368 0.0
O591 O 0.59197 0.83521 0.46169 0.0
O592 O 0.73612 0.93956 0.45853 0.0
O593 O 0.69484 0.76382 0.45176 0.0
O594 O 0.7428 0.82586 0.47198 0.0
C595 C 0.59509 0.86147 0.42426 0.0
C596 C 0.64837 0.86299 0.56606 0.0
O597 O 0.64681 0.89512 0.53324 0.0
O598 O 0.67955 0.82937 0.5592 0.0
C599 C 0.73318 0.96509 0.42057 0.0
O600 O 0.6935 0.9613 0.39306 0.0
C601 C 0.73777 0.78105 0.45823 0.0
Zn602 Zn 0.18201 0.64119 0.51689 0.0
Zn603 Zn 0.10838 0.67853 0.48579 0.0
O604 O 0.11698 0.6224 0.43339 0.0
O605 O 0.15389 0.57769 0.48785 0.0
O606 O 0.05243 0.72163 0.46525 0.0
O607 O 0.22881 0.679 0.47695 0.0
O608 O 0.16746 0.73021 0.48881 0.0
C609 C 0.13191 0.58058 0.44723 0.0
C610 C 0.12034 0.64443 0.583 0.0
O611 O 0.08892 0.64227 0.54874 0.0
O612 O 0.15397 0.67601 0.57801 0.0
C613 C 0.02788 0.71092 0.4271 0.0
O614 O 0.03418 0.66803 0.40538 0.0
C615 C 0.21286 0.72243 0.47847 0.0
Zn616 Zn 0.34482 0.1565 0.52655 0.0
Zn617 Zn 0.30213 0.09303 0.47747 0.0
O618 O 0.34861 0.09362 0.41844 0.0
O619 O 0.39174 0.14102 0.46891 0.0
O620 O 0.24894 0.04193 0.46716 0.0
O621 O 0.30563 0.21537 0.52153 0.0
O622 O 0.2611 0.16059 0.48065 0.0
C623 C 0.38841 0.11671 0.42891 0.0
C624 C 0.36531 0.08267 0.57093 0.0
O625 O 0.35329 0.0675 0.52837 0.0
O626 O 0.34016 0.11732 0.5888 0.0
C627 C 0.25216 0.00634 0.43679 0.0
O628 O 0.2937 -0.00044 0.41289 0.0
C629 C 0.26719 0.20444 0.49764 0.0
Zn630 Zn 0.2097 0.33103 0.44384 0.0
Zn631 Zn 0.1305 0.29061 0.47916 0.0
O632 O 0.13971 0.34851 0.52883 0.0
O633 O 0.182 0.39236 0.47675 0.0
O634 O 0.07477 0.24916 0.50477 0.0
O635 O 0.25248 0.28723 0.48252 0.0
O636 O 0.18776 0.23832 0.47779 0.0
C637 C 0.15697 0.38981 0.51565 0.0
C638 C 0.1402 0.32732 0.38023 0.0
O639 O 0.10991 0.3245 0.41537 0.0
O640 O 0.17829 0.30102 0.38299 0.0
C641 C 0.04639 0.26314 0.53911 0.0
O642 O 0.0482 0.30892 0.55495 0.0
C643 C 0.2339 0.2448 0.4855 0.0
Zn644 Zn 0.67082 0.14378 0.42606 0.0
Zn645 Zn 0.71297 0.09547 0.48627 0.0
O646 O 0.66524 0.10737 0.54194 0.0
O647 O 0.62144 0.14244 0.48449 0.0
O648 O 0.76468 0.04819 0.51053 0.0
O649 O 0.70871 0.20262 0.41926 0.0
O650 O 0.75096 0.1645 0.47556 0.0
C651 C 0.62534 0.12728 0.52796 0.0
C652 C 0.64967 0.06447 0.39512 0.0
O653 O 0.66182 0.05896 0.43961 0.0
O654 O 0.67574 0.09326 0.37077 0.0
C655 C 0.75487 0.01259 0.53823 0.0
O656 O 0.7086 0.00301 0.54929 0.0
C657 C 0.74435 0.20202 0.4488 0.0
Zn658 Zn 0.33336 0.80687 0.44255 0.0
Zn659 Zn 0.28999 0.86594 0.50927 0.0
O660 O 0.34688 0.84838 0.5559 0.0
O661 O 0.38797 0.81353 0.49486 0.0
O662 O 0.24223 0.91085 0.54594 0.0
O663 O 0.28794 0.75155 0.44888 0.0
O664 O 0.24421 0.80405 0.4931 0.0
C665 C 0.38636 0.82902 0.53888 0.0
C666 C 0.33563 0.89565 0.41278 0.0
O667 O 0.32857 0.90539 0.45776 0.0
O668 O 0.31247 0.85941 0.39502 0.0
C669 C 0.24622 0.95454 0.56281 0.0
O670 O 0.2877 0.97902 0.55727 0.0
C671 C 0.24881 0.76213 0.47167 0.0
loop_
_geom_bond_atom_site_label_1
_geom_bond_atom_site_label_2
_geom_bond_distance
_geom_bond_site_symmetry_2
_ccdc_geom_bond_type
Zn0 O3 2.031 . S
Zn0 O5 2.049 1_455 S
Zn0 O10 2.067 1_455 S
Zn1 O2 1.962 . S
Zn1 O4 1.986 . S
Zn1 O6 1.996 . S
Zn1 O9 1.943 1_455 S
O2 Zn1 1.962 . S
O2 C7 1.254 . S
O3 Zn0 2.031 . S
O3 C7 1.269 . S
O4 Zn1 1.986 . S
O4 C11 1.262 . S
O5 Zn0 2.049 1_655 S
O5 C13 1.260 1_655 S
O6 Zn1 1.996 . S
O6 C13 1.257 . S
C7 O2 1.254 . S
C7 O3 1.269 . S
C8 O9 1.249 . S
C8 O10 1.270 . S
O9 Zn1 1.943 1_655 S
O9 C8 1.249 . S
O10 Zn0 2.067 1_655 S
O10 C8 1.270 . S
C11 O4 1.262 . S
C11 O12 1.232 . S
O12 C11 1.232 . S
C13 O5 1.260 1_455 S
C13 O6 1.257 . S
Zn14 O17 2.031 . S
Zn14 O19 2.049 1_545 S
Zn14 O24 2.067 1_545 S
Zn15 O16 1.962 . S
Zn15 O18 1.986 . S
Zn15 O20 1.996 . S
Zn15 O23 1.943 1_545 S
O16 Zn15 1.962 . S
O16 C21 1.254 . S
O17 Zn14 2.031 . S
O17 C21 1.269 . S
O18 Zn15 1.986 . S
O18 C25 1.262 . S
O19 Zn14 2.049 1_565 S
O19 C27 1.260 1_565 S
O20 Zn15 1.996 . S
O20 C27 1.257 . S
C21 O16 1.254 . S
C21 O17 1.269 . S
C22 O23 1.249 . S
C22 O24 1.270 . S
O23 Zn15 1.943 1_565 S
O23 C22 1.249 . S
O24 Zn14 2.067 1_565 S
O24 C22 1.270 . S
C25 O18 1.262 . S
C25 O26 1.232 . S
O26 C25 1.232 . S
C27 O19 1.260 1_545 S
C27 O20 1.257 . S
Zn28 O31 2.031 . S
Zn28 O33 2.049 1_655 S
Zn28 O38 2.067 1_655 S
Zn29 O30 1.962 . S
Zn29 O32 1.986 . S
Zn29 O34 1.996 . S
Zn29 O37 1.943 1_655 S
O30 Zn29 1.962 . S
O30 C35 1.254 . S
O31 Zn28 2.031 . S
O31 C35 1.269 . S
O32 Zn29 1.986 . S
O32 C39 1.262 . S
O33 Zn28 2.049 1_455 S
O33 C41 1.260 1_455 S
O34 Zn29 1.996 . S
O34 C41 1.257 . S
C35 O30 1.254 . S
C35 O31 1.269 . S
C36 O37 1.249 . S
C36 O38 1.270 . S
O37 Zn29 1.943 1_455 S
O37 C36 1.249 . S
O38 Zn28 2.067 1_455 S
O38 C36 1.270 . S
C39 O32 1.262 . S
C39 O40 1.232 . S
O40 C39 1.232 . S
C41 O33 1.260 1_655 S
C41 O34 1.257 . S
Zn42 O45 2.031 . S
Zn42 O47 2.049 1_565 S
Zn42 O52 2.067 1_565 S
Zn43 O44 1.962 . S
Zn43 O46 1.986 . S
Zn43 O48 1.996 . S
Zn43 O51 1.943 1_565 S
O44 Zn43 1.962 . S
O44 C49 1.254 . S
O45 Zn42 2.031 . S
O45 C49 1.269 . S
O46 Zn43 1.986 . S
O46 C53 1.262 . S
O47 Zn42 2.049 1_545 S
O47 C55 1.260 1_545 S
O48 Zn43 1.996 . S
O48 C55 1.257 . S
C49 O44 1.254 . S
C49 O45 1.269 . S
C50 O51 1.249 . S
C50 O52 1.270 . S
O51 Zn43 1.943 1_545 S
O51 C50 1.249 . S
O52 Zn42 2.067 1_545 S
O52 C50 1.270 . S
C53 O46 1.262 . S
C53 O54 1.232 . S
O54 C53 1.232 . S
C55 O47 1.260 1_565 S
C55 O48 1.257 . S
Zn56 O59 2.031 . S
Zn56 O61 2.049 1_455 S
Zn56 O66 2.067 1_455 S
Zn57 O58 1.962 . S
Zn57 O60 1.986 . S
Zn57 O62 1.996 . S
Zn57 O65 1.943 1_455 S
O58 Zn57 1.962 . S
O58 C63 1.254 . S
O59 Zn56 2.031 . S
O59 C63 1.269 . S
O60 Zn57 1.986 . S
O60 C67 1.262 . S
O61 Zn56 2.049 1_655 S
O61 C69 1.260 1_655 S
O62 Zn57 1.996 . S
O62 C69 1.257 . S
C63 O58 1.254 . S
C63 O59 1.269 . S
C64 O65 1.249 . S
C64 O66 1.270 . S
O65 Zn57 1.943 1_655 S
O65 C64 1.249 . S
O66 Zn56 2.067 1_655 S
O66 C64 1.270 . S
C67 O60 1.262 . S
C67 O68 1.232 . S
O68 C67 1.232 . S
C69 O61 1.260 1_455 S
C69 O62 1.257 . S
Zn70 O73 2.031 . S
Zn70 O75 2.049 1_545 S
Zn70 O80 2.067 1_545 S
Zn71 O72 1.962 . S
Zn71 O74 1.986 . S
Zn71 O76 1.996 . S
Zn71 O79 1.943 1_545 S
O72 Zn71 1.962 . S
O72 C77 1.254 . S
O73 Zn70 2.031 . S
O73 C77 1.269 . S
O74 Zn71 1.986 . S
O74 C81 1.262 . S
O75 Zn70 2.049 1_565 S
O75 C83 1.260 1_565 S
O76 Zn71 1.996 . S
O76 C83 1.257 . S
C77 O72 1.254 . S
C77 O73 1.269 . S
C78 O79 1.249 . S
C78 O80 1.270 . S
O79 Zn71 1.943 1_565 S
O79 C78 1.249 . S
O80 Zn70 2.067 1_565 S
O80 C78 1.270 . S
C81 O74 1.262 . S
C81 O82 1.232 . S
O82 C81 1.232 . S
C83 O75 1.260 1_545 S
C83 O76 1.257 . S
Zn84 O87 2.031 . S
Zn84 O89 2.049 1_655 S
Zn84 O94 2.067 1_655 S
Zn85 O86 1.962 . S
Zn85 O88 1.986 . S
Zn85 O90 1.996 . S
Zn85 O93 1.943 1_655 S
O86 Zn85 1.962 . S
O86 C91 1.254 . S
O87 Zn84 2.031 . S
O87 C91 1.269 . S
O88 Zn85 1.986 . S
O88 C95 1.262 . S
O89 Zn84 2.049 1_455 S
O89 C97 1.260 1_455 S
O90 Zn85 1.996 . S
O90 C97 1.257 . S
C91 O86 1.254 . S
C91 O87 1.269 . S
C92 O93 1.249 . S
C92 O94 1.270 . S
O93 Zn85 1.943 1_455 S
O93 C92 1.249 . S
O94 Zn84 2.067 1_455 S
O94 C92 1.270 . S
C95 O88 1.262 . S
C95 O96 1.232 . S
O96 C95 1.232 . S
C97 O89 1.260 1_655 S
C97 O90 1.257 . S
Zn98 O101 2.031 . S
Zn98 O103 2.049 1_565 S
Zn98 O108 2.067 1_565 S
Zn99 O100 1.962 . S
Zn99 O102 1.986 . S
Zn99 O104 1.996 . S
Zn99 O107 1.943 1_565 S
O100 Zn99 1.962 . S
O100 C105 1.254 . S
O101 Zn98 2.031 . S
O101 C105 1.269 . S
O102 Zn99 1.986 . S
O102 C109 1.262 . S
O103 Zn98 2.049 1_545 S
O103 C111 1.260 1_545 S
O104 Zn99 1.996 . S
O104 C111 1.257 . S
C105 O100 1.254 . S
C105 O101 1.269 . S
C106 O107 1.249 . S
C106 O108 1.270 . S
O107 Zn99 1.943 1_545 S
O107 C106 1.249 . S
O108 Zn98 2.067 1_545 S
O108 C106 1.270 . S
C109 O102 1.262 . S
C109 O110 1.232 . S
O110 C109 1.232 . S
C111 O103 1.260 1_565 S
C111 O104 1.257 . S
Zn112 O115 2.031 . S
Zn112 O117 2.049 1_545 S
Zn112 O122 2.067 1_545 S
Zn113 O114 1.962 . S
Zn113 O116 1.986 . S
Zn113 O118 1.996 . S
Zn113 O121 1.943 1_545 S
O114 Zn113 1.962 . S
O114 C119 1.254 . S
O115 Zn112 2.031 . S
O115 C119 1.269 . S
O116 Zn113 1.986 . S
O116 C123 1.262 . S
O117 Zn112 2.049 1_565 S
O117 C125 1.260 1_565 S
O118 Zn113 1.996 . S
O118 C125 1.257 . S
C119 O114 1.254 . S
C119 O115 1.269 . S
C120 O121 1.249 . S
C120 O122 1.270 . S
O121 Zn113 1.943 1_565 S
O121 C120 1.249 . S
O122 Zn112 2.067 1_565 S
O122 C120 1.270 . S
C123 O116 1.262 . S
C123 O124 1.232 . S
O124 C123 1.232 . S
C125 O117 1.260 1_545 S
C125 O118 1.257 . S
Zn126 O129 2.031 . S
Zn126 O131 2.049 1_655 S
Zn126 O136 2.067 1_655 S
Zn127 O128 1.962 . S
Zn127 O130 1.986 . S
Zn127 O132 1.996 . S
Zn127 O135 1.943 1_655 S
O128 Zn127 1.962 . S
O128 C133 1.254 . S
O129 Zn126 2.031 . S
O129 C133 1.269 . S
O130 Zn127 1.986 . S
O130 C137 1.262 . S
O131 Zn126 2.049 1_455 S
O131 C139 1.260 1_455 S
O132 Zn127 1.996 . S
O132 C139 1.257 . S
C133 O128 1.254 . S
C133 O129 1.269 . S
C134 O135 1.249 . S
C134 O136 1.270 . S
O135 Zn127 1.943 1_455 S
O135 C134 1.249 . S
O136 Zn126 2.067 1_455 S
O136 C134 1.270 . S
C137 O130 1.262 . S
C137 O138 1.232 . S
O138 C137 1.232 . S
C139 O131 1.260 1_655 S
C139 O132 1.257 . S
Zn140 O143 2.031 . S
Zn140 O145 2.049 1_565 S
Zn140 O150 2.067 1_565 S
Zn141 O142 1.962 . S
Zn141 O144 1.986 . S
Zn141 O146 1.996 . S
Zn141 O149 1.943 1_565 S
O142 Zn141 1.962 . S
O142 C147 1.254 . S
O143 Zn140 2.031 . S
O143 C147 1.269 . S
O144 Zn141 1.986 . S
O144 C151 1.262 . S
O145 Zn140 2.049 1_545 S
O145 C153 1.260 1_545 S
O146 Zn141 1.996 . S
O146 C153 1.257 . S
C147 O142 1.254 . S
C147 O143 1.269 . S
C148 O149 1.249 . S
C148 O150 1.270 . S
O149 Zn141 1.943 1_545 S
O149 C148 1.249 . S
O150 Zn140 2.067 1_545 S
O150 C148 1.270 . S
C151 O144 1.262 . S
C151 O152 1.232 . S
O152 C151 1.232 . S
C153 O145 1.260 1_565 S
C153 O146 1.257 . S
Zn154 O157 2.031 . S
Zn154 O159 2.049 1_455 S
Zn154 O164 2.067 1_455 S
Zn155 O156 1.962 . S
Zn155 O158 1.986 . S
Zn155 O160 1.996 . S
Zn155 O163 1.943 1_455 S
O156 Zn155 1.962 . S
O156 C161 1.254 . S
O157 Zn154 2.031 . S
O157 C161 1.269 . S
O158 Zn155 1.986 . S
O158 C165 1.262 . S
O159 Zn154 2.049 1_655 S
O159 C167 1.260 1_655 S
O160 Zn155 1.996 . S
O160 C167 1.257 . S
C161 O156 1.254 . S
C161 O157 1.269 . S
C162 O163 1.249 . S
C162 O164 1.270 . S
O163 Zn155 1.943 1_655 S
O163 C162 1.249 . S
O164 Zn154 2.067 1_655 S
O164 C162 1.270 . S
C165 O158 1.262 . S
C165 O166 1.232 . S
O166 C165 1.232 . S
C167 O159 1.260 1_455 S
C167 O160 1.257 . S
Zn168 O171 2.031 . S
Zn168 O173 2.049 1_565 S
Zn168 O178 2.067 1_565 S
Zn169 O170 1.962 . S
Zn169 O172 1.986 . S
Zn169 O174 1.996 . S
Zn169 O177 1.943 1_565 S
O170 Zn169 1.962 . S
O170 C175 1.254 . S
O171 Zn168 2.031 . S
O171 C175 1.269 . S
O172 Zn169 1.986 . S
O172 C179 1.262 . S
O173 Zn168 2.049 1_545 S
O173 C181 1.260 1_545 S
O174 Zn169 1.996 . S
O174 C181 1.257 . S
C175 O170 1.254 . S
C175 O171 1.269 . S
C176 O177 1.249 . S
C176 O178 1.270 . S
O177 Zn169 1.943 1_545 S
O177 C176 1.249 . S
O178 Zn168 2.067 1_545 S
O178 C176 1.270 . S
C179 O172 1.262 . S
C179 O180 1.232 . S
O180 C179 1.232 . S
C181 O173 1.260 1_565 S
C181 O174 1.257 . S
Zn182 O185 2.031 . S
Zn182 O187 2.049 1_455 S
Zn182 O192 2.067 1_455 S
Zn183 O184 1.962 . S
Zn183 O186 1.986 . S
Zn183 O188 1.996 . S
Zn183 O191 1.943 1_455 S
O184 Zn183 1.962 . S
O184 C189 1.254 . S
O185 Zn182 2.031 . S
O185 C189 1.269 . S
O186 Zn183 1.986 . S
O186 C193 1.262 . S
O187 Zn182 2.049 1_655 S
O187 C195 1.260 1_655 S
O188 Zn183 1.996 . S
O188 C195 1.257 . S
C189 O184 1.254 . S
C189 O185 1.269 . S
C190 O191 1.249 . S
C190 O192 1.270 . S
O191 Zn183 1.943 1_655 S
O191 C190 1.249 . S
O192 Zn182 2.067 1_655 S
O192 C190 1.270 . S
C193 O186 1.262 . S
C193 O194 1.232 . S
O194 C193 1.232 . S
C195 O187 1.260 1_455 S
C195 O188 1.257 . S
Zn196 O199 2.031 . S
Zn196 O201 2.049 1_545 S
Zn196 O206 2.067 1_545 S
Zn197 O198 1.962 . S
Zn197 O200 1.986 . S
Zn197 O202 1.996 . S
Zn197 O205 1.943 1_545 S
O198 Zn197 1.962 . S
O198 C203 1.254 . S
O199 Zn196 2.031 . S
O199 C203 1.269 . S
O200 Zn197 1.986 . S
O200 C207 1.262 . S
O201 Zn196 2.049 1_565 S
O201 C209 1.260 1_565 S
O202 Zn197 1.996 . S
O202 C209 1.257 . S
C203 O198 1.254 . S
C203 O199 1.269 . S
C204 O205 1.249 . S
C204 O206 1.270 . S
O205 Zn197 1.943 1_565 S
O205 C204 1.249 . S
O206 Zn196 2.067 1_565 S
O206 C204 1.270 . S
C207 O200 1.262 . S
C207 O208 1.232 . S
O208 C207 1.232 . S
C209 O201 1.260 1_545 S
C209 O202 1.257 . S
Zn210 O213 2.031 . S
Zn210 O215 2.049 1_655 S
Zn210 O220 2.067 1_655 S
Zn211 O212 1.962 . S
Zn211 O214 1.986 . S
Zn211 O216 1.996 . S
Zn211 O219 1.943 1_655 S
O212 Zn211 1.962 . S
O212 C217 1.254 . S
O213 Zn210 2.031 . S
O213 C217 1.269 . S
O214 Zn211 1.986 . S
O214 C221 1.262 . S
O215 Zn210 2.049 1_455 S
O215 C223 1.260 1_455 S
O216 Zn211 1.996 . S
O216 C223 1.257 . S
C217 O212 1.254 . S
C217 O213 1.269 . S
C218 O219 1.249 . S
C218 O220 1.270 . S
O219 Zn211 1.943 1_455 S
O219 C218 1.249 . S
O220 Zn210 2.067 1_455 S
O220 C218 1.270 . S
C221 O214 1.262 . S
C221 O222 1.232 . S
O222 C221 1.232 . S
C223 O215 1.260 1_655 S
C223 O216 1.257 . S
Zn224 O227 2.031 . S
Zn224 O229 2.049 1_554 S
Zn224 O234 2.067 1_554 S
Zn225 O226 1.962 . S
Zn225 O228 1.986 . S
Zn225 O230 1.996 . S
Zn225 O233 1.943 1_554 S
O226 Zn225 1.962 . S
O226 C231 1.254 . S
O227 Zn224 2.031 . S
O227 C231 1.269 . S
O228 Zn225 1.986 . S
O228 C235 1.262 . S
O229 Zn224 2.049 1_556 S
O229 C237 1.260 1_556 S
O230 Zn225 1.996 . S
O230 C237 1.257 . S
C231 O226 1.254 . S
C231 O227 1.269 . S
C232 O233 1.249 . S
C232 O234 1.270 . S
O233 Zn225 1.943 1_556 S
O233 C232 1.249 . S
O234 Zn224 2.067 1_556 S
O234 C232 1.270 . S
C235 O228 1.262 . S
C235 O236 1.232 . S
O236 C235 1.232 . S
C237 O229 1.260 1_554 S
C237 O230 1.257 . S
Zn238 O241 2.031 . S
Zn238 O243 2.049 1_556 S
Zn238 O248 2.067 1_556 S
Zn239 O240 1.962 . S
Zn239 O242 1.986 . S
Zn239 O244 1.996 . S
Zn239 O247 1.943 1_556 S
O240 Zn239 1.962 . S
O240 C245 1.254 . S
O241 Zn238 2.031 . S
O241 C245 1.269 . S
O242 Zn239 1.986 . S
O242 C249 1.262 . S
O243 Zn238 2.049 1_554 S
O243 C251 1.260 1_554 S
O244 Zn239 1.996 . S
O244 C251 1.257 . S
C245 O240 1.254 . S
C245 O241 1.269 . S
C246 O247 1.249 . S
C246 O248 1.270 . S
O247 Zn239 1.943 1_554 S
O247 C246 1.249 . S
O248 Zn238 2.067 1_554 S
O248 C246 1.270 . S
C249 O242 1.262 . S
C249 O250 1.232 . S
O250 C249 1.232 . S
C251 O243 1.260 1_556 S
C251 O244 1.257 . S
Zn252 O255 2.031 . S
Zn252 O257 2.049 1_556 S
Zn252 O262 2.067 1_556 S
Zn253 O254 1.962 . S
Zn253 O256 1.986 . S
Zn253 O258 1.996 . S
Zn253 O261 1.943 1_556 S
O254 Zn253 1.962 . S
O254 C259 1.254 . S
O255 Zn252 2.031 . S
O255 C259 1.269 . S
O256 Zn253 1.986 . S
O256 C263 1.262 . S
O257 Zn252 2.049 1_554 S
O257 C265 1.260 1_554 S
O258 Zn253 1.996 . S
O258 C265 1.257 . S
C259 O254 1.254 . S
C259 O255 1.269 . S
C260 O261 1.249 . S
C260 O262 1.270 . S
O261 Zn253 1.943 1_554 S
O261 C260 1.249 . S
O262 Zn252 2.067 1_554 S
O262 C260 1.270 . S
C263 O256 1.262 . S
C263 O264 1.232 . S
O264 C263 1.232 . S
C265 O257 1.260 1_556 S
C265 O258 1.257 . S
Zn266 O269 2.031 . S
Zn266 O271 2.049 1_556 S
Zn266 O276 2.067 1_556 S
Zn267 O268 1.962 . S
Zn267 O270 1.986 . S
Zn267 O272 1.996 . S
Zn267 O275 1.943 1_556 S
O268 Zn267 1.962 . S
O268 C273 1.254 . S
O269 Zn266 2.031 . S
O269 C273 1.269 . S
O270 Zn267 1.986 . S
O270 C277 1.262 . S
O271 Zn266 2.049 1_554 S
O271 C279 1.260 1_554 S
O272 Zn267 1.996 . S
O272 C279 1.257 . S
C273 O268 1.254 . S
C273 O269 1.269 . S
C274 O275 1.249 . S
C274 O276 1.270 . S
O275 Zn267 1.943 1_554 S
O275 C274 1.249 . S
O276 Zn266 2.067 1_554 S
O276 C274 1.270 . S
C277 O270 1.262 . S
C277 O278 1.232 . S
O278 C277 1.232 . S
C279 O271 1.260 1_556 S
C279 O272 1.257 . S
Zn280 O283 2.031 . S
Zn280 O285 2.049 1_556 S
Zn280 O290 2.067 1_556 S
Zn281 O282 1.962 . S
Zn281 O284 1.986 . S
Zn281 O286 1.996 . S
Zn281 O289 1.943 1_556 S
O282 Zn281 1.962 . S
O282 C287 1.254 . S
O283 Zn280 2.031 . S
O283 C287 1.269 . S
O284 Zn281 1.986 . S
O284 C291 1.262 . S
O285 Zn280 2.049 1_554 S
O285 C293 1.260 1_554 S
O286 Zn281 1.996 . S
O286 C293 1.257 . S
C287 O282 1.254 . S
C287 O283 1.269 . S
C288 O289 1.249 . S
C288 O290 1.270 . S
O289 Zn281 1.943 1_554 S
O289 C288 1.249 . S
O290 Zn280 2.067 1_554 S
O290 C288 1.270 . S
C291 O284 1.262 . S
C291 O292 1.232 . S
O292 C291 1.232 . S
C293 O285 1.260 1_556 S
C293 O286 1.257 . S
Zn294 O297 2.031 . S
Zn294 O299 2.049 1_554 S
Zn294 O304 2.067 1_554 S
Zn295 O296 1.962 . S
Zn295 O298 1.986 . S
Zn295 O300 1.996 . S
Zn295 O303 1.943 1_554 S
O296 Zn295 1.962 . S
O296 C301 1.254 . S
O297 Zn294 2.031 . S
O297 C301 1.269 . S
O298 Zn295 1.986 . S
O298 C305 1.262 . S
O299 Zn294 2.049 1_556 S
O299 C307 1.260 1_556 S
O300 Zn295 1.996 . S
O300 C307 1.257 . S
C301 O296 1.254 . S
C301 O297 1.269 . S
C302 O303 1.249 . S
C302 O304 1.270 . S
O303 Zn295 1.943 1_556 S
O303 C302 1.249 . S
O304 Zn294 2.067 1_556 S
O304 C302 1.270 . S
C305 O298 1.262 . S
C305 O306 1.232 . S
O306 C305 1.232 . S
C307 O299 1.260 1_554 S
C307 O300 1.257 . S
Zn308 O311 2.031 . S
Zn308 O313 2.049 1_554 S
Zn308 O318 2.067 1_554 S
Zn309 O310 1.962 . S
Zn309 O312 1.986 . S
Zn309 O314 1.996 . S
Zn309 O317 1.943 1_554 S
O310 Zn309 1.962 . S
O310 C315 1.254 . S
O311 Zn308 2.031 . S
O311 C315 1.269 . S
O312 Zn309 1.986 . S
O312 C319 1.262 . S
O313 Zn308 2.049 1_556 S
O313 C321 1.260 1_556 S
O314 Zn309 1.996 . S
O314 C321 1.257 . S
C315 O310 1.254 . S
C315 O311 1.269 . S
C316 O317 1.249 . S
C316 O318 1.270 . S
O317 Zn309 1.943 1_556 S
O317 C316 1.249 . S
O318 Zn308 2.067 1_556 S
O318 C316 1.270 . S
C319 O312 1.262 . S
C319 O320 1.232 . S
O320 C319 1.232 . S
C321 O313 1.260 1_554 S
C321 O314 1.257 . S
Zn322 O325 2.031 . S
Zn322 O327 2.049 1_554 S
Zn322 O332 2.067 1_554 S
Zn323 O324 1.962 . S
Zn323 O326 1.986 . S
Zn323 O328 1.996 . S
Zn323 O331 1.943 1_554 S
O324 Zn323 1.962 . S
O324 C329 1.254 . S
O325 Zn322 2.031 . S
O325 C329 1.269 . S
O326 Zn323 1.986 . S
O326 C333 1.262 . S
O327 Zn322 2.049 1_556 S
O327 C335 1.260 1_556 S
O328 Zn323 1.996 . S
O328 C335 1.257 . S
C329 O324 1.254 . S
C329 O325 1.269 . S
C330 O331 1.249 . S
C330 O332 1.270 . S
O331 Zn323 1.943 1_556 S
O331 C330 1.249 . S
O332 Zn322 2.067 1_556 S
O332 C330 1.270 . S
C333 O326 1.262 . S
C333 O334 1.232 . S
O334 C333 1.232 . S
C335 O327 1.260 1_554 S
C335 O328 1.257 . S
Zn336 O339 2.031 . S
Zn336 O341 2.049 . S
Zn336 O346 2.067 . S
Zn337 O338 1.962 . S
Zn337 O340 1.986 . S
Zn337 O342 1.996 . S
Zn337 O345 1.943 . S
O338 Zn337 1.962 . S
O338 C343 1.254 . S
O339 Zn336 2.031 . S
O339 C343 1.269 . S
O340 Zn337 1.986 . S
O340 C347 1.262 . S
O341 Zn336 2.049 . S
O341 C349 1.260 . S
O342 Zn337 1.996 . S
O342 C349 1.257 . S
C343 O338 1.254 . S
C343 O339 1.269 . S
C344 O345 1.249 . S
C344 O346 1.270 . S
O345 Zn337 1.943 . S
O345 C344 1.249 . S
O346 Zn336 2.067 . S
O346 C344 1.270 . S
C347 O340 1.262 . S
C347 O348 1.232 . S
O348 C347 1.232 . S
C349 O341 1.260 . S
C349 O342 1.257 . S
Zn350 O353 2.031 . S
Zn350 O355 2.049 . S
Zn350 O360 2.067 . S
Zn351 O352 1.962 . S
Zn351 O354 1.986 . S
Zn351 O356 1.996 . S
Zn351 O359 1.943 . S
O352 Zn351 1.962 . S
O352 C357 1.254 . S
O353 Zn350 2.031 . S
O353 C357 1.269 . S
O354 Zn351 1.986 . S
O354 C361 1.262 . S
O355 Zn350 2.049 . S
O355 C363 1.260 . S
O356 Zn351 1.996 . S
O356 C363 1.257 . S
C357 O352 1.254 . S
C357 O353 1.269 . S
C358 O359 1.249 . S
C358 O360 1.270 . S
O359 Zn351 1.943 . S
O359 C358 1.249 . S
O360 Zn350 2.067 . S
O360 C358 1.270 . S
C361 O354 1.262 . S
C361 O362 1.232 . S
O362 C361 1.232 . S
C363 O355 1.260 . S
C363 O356 1.257 . S
Zn364 O367 2.031 . S
Zn364 O369 2.049 . S
Zn364 O374 2.067 . S
Zn365 O366 1.962 . S
Zn365 O368 1.986 . S
Zn365 O370 1.996 . S
Zn365 O373 1.943 . S
O366 Zn365 1.962 . S
O366 C371 1.254 . S
O367 Zn364 2.031 . S
O367 C371 1.269 . S
O368 Zn365 1.986 . S
O368 C375 1.262 . S
O369 Zn364 2.049 . S
O369 C377 1.260 . S
O370 Zn365 1.996 . S
O370 C377 1.257 . S
C371 O366 1.254 . S
C371 O367 1.269 . S
C372 O373 1.249 . S
C372 O374 1.270 . S
O373 Zn365 1.943 . S
O373 C372 1.249 . S
O374 Zn364 2.067 . S
O374 C372 1.270 . S
C375 O368 1.262 . S
C375 O376 1.232 . S
O376 C375 1.232 . S
C377 O369 1.260 . S
C377 O370 1.257 . S
Zn378 O381 2.031 . S
Zn378 O383 2.049 . S
Zn378 O388 2.067 . S
Zn379 O380 1.962 . S
Zn379 O382 1.986 . S
Zn379 O384 1.996 . S
Zn379 O387 1.943 . S
O380 Zn379 1.962 . S
O380 C385 1.254 . S
O381 Zn378 2.031 . S
O381 C385 1.269 . S
O382 Zn379 1.986 . S
O382 C389 1.262 . S
O383 Zn378 2.049 . S
O383 C391 1.260 . S
O384 Zn379 1.996 . S
O384 C391 1.257 . S
C385 O380 1.254 . S
C385 O381 1.269 . S
C386 O387 1.249 . S
C386 O388 1.270 . S
O387 Zn379 1.943 . S
O387 C386 1.249 . S
O388 Zn378 2.067 . S
O388 C386 1.270 . S
C389 O382 1.262 . S
C389 O390 1.232 . S
O390 C389 1.232 . S
C391 O383 1.260 . S
C391 O384 1.257 . S
Zn392 O395 2.031 . S
Zn392 O397 2.049 . S
Zn392 O402 2.067 . S
Zn393 O394 1.962 . S
Zn393 O396 1.986 . S
Zn393 O398 1.996 . S
Zn393 O401 1.943 . S
O394 Zn393 1.962 . S
O394 C399 1.254 . S
O395 Zn392 2.031 . S
O395 C399 1.269 . S
O396 Zn393 1.986 . S
O396 C403 1.262 . S
O397 Zn392 2.049 . S
O397 C405 1.260 . S
O398 Zn393 1.996 . S
O398 C405 1.257 . S
C399 O394 1.254 . S
C399 O395 1.269 . S
C400 O401 1.249 . S
C400 O402 1.270 . S
O401 Zn393 1.943 . S
O401 C400 1.249 . S
O402 Zn392 2.067 . S
O402 C400 1.270 . S
C403 O396 1.262 . S
C403 O404 1.232 . S
O404 C403 1.232 . S
C405 O397 1.260 . S
C405 O398 1.257 . S
Zn406 O409 2.031 . S
Zn406 O411 2.049 . S
Zn406 O416 2.067 . S
Zn407 O408 1.962 . S
Zn407 O410 1.986 . S
Zn407 O412 1.996 . S
Zn407 O415 1.943 . S
O408 Zn407 1.962 . S
O408 C413 1.254 . S
O409 Zn406 2.031 . S
O409 C413 1.269 . S
O410 Zn407 1.986 . S
O410 C417 1.262 . S
O411 Zn406 2.049 . S
O411 C419 1.260 . S
O412 Zn407 1.996 . S
O412 C419 1.257 . S
C413 O408 1.254 . S
C413 O409 1.269 . S
C414 O415 1.249 . S
C414 O416 1.270 . S
O415 Zn407 1.943 . S
O415 C414 1.249 . S
O416 Zn406 2.067 . S
O416 C414 1.270 . S
C417 O410 1.262 . S
C417 O418 1.232 . S
O418 C417 1.232 . S
C419 O411 1.260 . S
C419 O412 1.257 . S
Zn420 O423 2.031 . S
Zn420 O425 2.049 . S
Zn420 O430 2.067 . S
Zn421 O422 1.962 . S
Zn421 O424 1.986 . S
Zn421 O426 1.996 . S
Zn421 O429 1.943 . S
O422 Zn421 1.962 . S
O422 C427 1.254 . S
O423 Zn420 2.031 . S
O423 C427 1.269 . S
O424 Zn421 1.986 . S
O424 C431 1.262 . S
O425 Zn420 2.049 . S
O425 C433 1.260 . S
O426 Zn421 1.996 . S
O426 C433 1.257 . S
C427 O422 1.254 . S
C427 O423 1.269 . S
C428 O429 1.249 . S
C428 O430 1.270 . S
O429 Zn421 1.943 . S
O429 C428 1.249 . S
O430 Zn420 2.067 . S
O430 C428 1.270 . S
C431 O424 1.262 . S
C431 O432 1.232 . S
O432 C431 1.232 . S
C433 O425 1.260 . S
C433 O426 1.257 . S
Zn434 O437 2.031 . S
Zn434 O439 2.049 . S
Zn434 O444 2.067 . S
Zn435 O436 1.962 . S
Zn435 O438 1.986 . S
Zn435 O440 1.996 . S
Zn435 O443 1.943 . S
O436 Zn435 1.962 . S
O436 C441 1.254 . S
O437 Zn434 2.031 . S
O437 C441 1.269 . S
O438 Zn435 1.986 . S
O438 C445 1.262 . S
O439 Zn434 2.049 . S
O439 C447 1.260 . S
O440 Zn435 1.996 . S
O440 C447 1.257 . S
C441 O436 1.254 . S
C441 O437 1.269 . S
C442 O443 1.249 . S
C442 O444 1.270 . S
O443 Zn435 1.943 . S
O443 C442 1.249 . S
O444 Zn434 2.067 . S
O444 C442 1.270 . S
C445 O438 1.262 . S
C445 O446 1.232 . S
O446 C445 1.232 . S
C447 O439 1.260 . S
C447 O440 1.257 . S
Zn448 O451 2.031 . S
Zn448 O453 2.049 . S
Zn448 O458 2.067 . S
Zn449 O450 1.962 . S
Zn449 O452 1.986 . S
Zn449 O454 1.996 . S
Zn449 O457 1.943 . S
O450 Zn449 1.962 . S
O450 C455 1.254 . S
O451 Zn448 2.031 . S
O451 C455 1.269 . S
O452 Zn449 1.986 . S
O452 C459 1.262 . S
O453 Zn448 2.049 . S
O453 C461 1.260 . S
O454 Zn449 1.996 . S
O454 C461 1.257 . S
C455 O450 1.254 . S
C455 O451 1.269 . S
C456 O457 1.249 . S
C456 O458 1.270 . S
O457 Zn449 1.943 . S
O457 C456 1.249 . S
O458 Zn448 2.067 . S
O458 C456 1.270 . S
C459 O452 1.262 . S
C459 O460 1.232 . S
O460 C459 1.232 . S
C461 O453 1.260 . S
C461 O454 1.257 . S
Zn462 O465 2.031 . S
Zn462 O467 2.049 . S
Zn462 O472 2.067 . S
Zn463 O464 1.962 . S
Zn463 O466 1.986 . S
Zn463 O468 1.996 . S
Zn463 O471 1.943 . S
O464 Zn463 1.962 . S
O464 C469 1.254 . S
O465 Zn462 2.031 . S
O465 C469 1.269 . S
O466 Zn463 1.986 . S
O466 C473 1.262 . S
O467 Zn462 2.049 . S
O467 C475 1.260 . S
O468 Zn463 1.996 . S
O468 C475 1.257 . S
C469 O464 1.254 . S
C469 O465 1.269 . S
C470 O471 1.249 . S
C470 O472 1.270 . S
O471 Zn463 1.943 . S
O471 C470 1.249 . S
O472 Zn462 2.067 . S
O472 C470 1.270 . S
C473 O466 1.262 . S
C473 O474 1.232 . S
O474 C473 1.232 . S
C475 O467 1.260 . S
C475 O468 1.257 . S
Zn476 O479 2.031 . S
Zn476 O481 2.049 . S
Zn476 O486 2.067 . S
Zn477 O478 1.962 . S
Zn477 O480 1.986 . S
Zn477 O482 1.996 . S
Zn477 O485 1.943 . S
O478 Zn477 1.962 . S
O478 C483 1.254 . S
O479 Zn476 2.031 . S
O479 C483 1.269 . S
O480 Zn477 1.986 . S
O480 C487 1.262 . S
O481 Zn476 2.049 . S
O481 C489 1.260 . S
O482 Zn477 1.996 . S
O482 C489 1.257 . S
C483 O478 1.254 . S
C483 O479 1.269 . S
C484 O485 1.249 . S
C484 O486 1.270 . S
O485 Zn477 1.943 . S
O485 C484 1.249 . S
O486 Zn476 2.067 . S
O486 C484 1.270 . S
C487 O480 1.262 . S
C487 O488 1.232 . S
O488 C487 1.232 . S
C489 O481 1.260 . S
C489 O482 1.257 . S
Zn490 O493 2.031 . S
Zn490 O495 2.049 . S
Zn490 O500 2.067 . S
Zn491 O492 1.962 . S
Zn491 O494 1.986 . S
Zn491 O496 1.996 . S
Zn491 O499 1.943 . S
O492 Zn491 1.962 . S
O492 C497 1.254 . S
O493 Zn490 2.031 . S
O493 C497 1.269 . S
O494 Zn491 1.986 . S
O494 C501 1.262 . S
O495 Zn490 2.049 . S
O495 C503 1.260 . S
O496 Zn491 1.996 . S
O496 C503 1.257 . S
C497 O492 1.254 . S
C497 O493 1.269 . S
C498 O499 1.249 . S
C498 O500 1.270 . S
O499 Zn491 1.943 . S
O499 C498 1.249 . S
O500 Zn490 2.067 . S
O500 C498 1.270 . S
C501 O494 1.262 . S
C501 O502 1.232 . S
O502 C501 1.232 . S
C503 O495 1.260 . S
C503 O496 1.257 . S
Zn504 O507 2.031 . S
Zn504 O509 2.049 . S
Zn504 O514 2.067 . S
Zn505 O506 1.962 . S
Zn505 O508 1.986 . S
Zn505 O510 1.996 . S
Zn505 O513 1.943 . S
O506 Zn505 1.962 . S
O506 C511 1.254 . S
O507 Zn504 2.031 . S
O507 C511 1.269 . S
O508 Zn505 1.986 . S
O508 C515 1.262 . S
O509 Zn504 2.049 . S
O509 C517 1.260 . S
O510 Zn505 1.996 . S
O510 C517 1.257 . S
C511 O506 1.254 . S
C511 O507 1.269 . S
C512 O513 1.249 . S
C512 O514 1.270 . S
O513 Zn505 1.943 . S
O513 C512 1.249 . S
O514 Zn504 2.067 . S
O514 C512 1.270 . S
C515 O508 1.262 . S
C515 O516 1.232 . S
O516 C515 1.232 . S
C517 O509 1.260 . S
C517 O510 1.257 . S
Zn518 O521 2.031 . S
Zn518 O523 2.049 . S
Zn518 O528 2.067 . S
Zn519 O520 1.962 . S
Zn519 O522 1.986 . S
Zn519 O524 1.996 . S
Zn519 O527 1.943 . S
O520 Zn519 1.962 . S
O520 C525 1.254 . S
O521 Zn518 2.031 . S
O521 C525 1.269 . S
O522 Zn519 1.986 . S
O522 C529 1.262 . S
O523 Zn518 2.049 . S
O523 C531 1.260 . S
O524 Zn519 1.996 . S
O524 C531 1.257 . S
C525 O520 1.254 . S
C525 O521 1.269 . S
C526 O527 1.249 . S
C526 O528 1.270 . S
O527 Zn519 1.943 . S
O527 C526 1.249 . S
O528 Zn518 2.067 . S
O528 C526 1.270 . S
C529 O522 1.262 . S
C529 O530 1.232 . S
O530 C529 1.232 . S
C531 O523 1.260 . S
C531 O524 1.257 . S
Zn532 O535 2.031 . S
Zn532 O537 2.049 . S
Zn532 O542 2.067 . S
Zn533 O534 1.962 . S
Zn533 O536 1.986 . S
Zn533 O538 1.996 . S
Zn533 O541 1.943 . S
O534 Zn533 1.962 . S
O534 C539 1.254 . S
O535 Zn532 2.031 . S
O535 C539 1.269 . S
O536 Zn533 1.986 . S
O536 C543 1.262 . S
O537 Zn532 2.049 . S
O537 C545 1.260 . S
O538 Zn533 1.996 . S
O538 C545 1.257 . S
C539 O534 1.254 . S
C539 O535 1.269 . S
C540 O541 1.249 . S
C540 O542 1.270 . S
O541 Zn533 1.943 . S
O541 C540 1.249 . S
O542 Zn532 2.067 . S
O542 C540 1.270 . S
C543 O536 1.262 . S
C543 O544 1.232 . S
O544 C543 1.232 . S
C545 O537 1.260 . S
C545 O538 1.257 . S
Zn546 O549 2.031 . S
Zn546 O551 2.049 . S
Zn546 O556 2.067 . S
Zn547 O548 1.962 . S
Zn547 O550 1.986 . S
Zn547 O552 1.996 . S
Zn547 O555 1.943 . S
O548 Zn547 1.962 . S
O548 C553 1.254 . S
O549 Zn546 2.031 . S
O549 C553 1.269 . S
O550 Zn547 1.986 . S
O550 C557 1.262 . S
O551 Zn546 2.049 . S
O551 C559 1.260 . S
O552 Zn547 1.996 . S
O552 C559 1.257 . S
C553 O548 1.254 . S
C553 O549 1.269 . S
C554 O555 1.249 . S
C554 O556 1.270 . S
O555 Zn547 1.943 . S
O555 C554 1.249 . S
O556 Zn546 2.067 . S
O556 C554 1.270 . S
C557 O550 1.262 . S
C557 O558 1.232 . S
O558 C557 1.232 . S
C559 O551 1.260 . S
C559 O552 1.257 . S
Zn560 O563 2.031 . S
Zn560 O565 2.049 . S
Zn560 O570 2.067 . S
Zn561 O562 1.962 . S
Zn561 O564 1.986 . S
Zn561 O566 1.996 . S
Zn561 O569 1.943 . S
O562 Zn561 1.962 . S
O562 C567 1.254 . S
O563 Zn560 2.031 . S
O563 C567 1.269 . S
O564 Zn561 1.986 . S
O564 C571 1.262 . S
O565 Zn560 2.049 . S
O565 C573 1.260 . S
O566 Zn561 1.996 . S
O566 C573 1.257 . S
C567 O562 1.254 . S
C567 O563 1.269 . S
C568 O569 1.249 . S
C568 O570 1.270 . S
O569 Zn561 1.943 . S
O569 C568 1.249 . S
O570 Zn560 2.067 . S
O570 C568 1.270 . S
C571 O564 1.262 . S
C571 O572 1.232 . S
O572 C571 1.232 . S
C573 O565 1.260 . S
C573 O566 1.257 . S
Zn574 O577 2.031 . S
Zn574 O579 2.049 . S
Zn574 O584 2.067 . S
Zn575 O576 1.962 . S
Zn575 O578 1.986 . S
Zn575 O580 1.996 . S
Zn575 O583 1.943 . S
O576 Zn575 1.962 . S
O576 C581 1.254 . S
O577 Zn574 2.031 . S
O577 C581 1.269 . S
O578 Zn575 1.986 . S
O578 C585 1.262 . S
O579 Zn574 2.049 . S
O579 C587 1.260 . S
O580 Zn575 1.996 . S
O580 C587 1.257 . S
C581 O576 1.254 . S
C581 O577 1.269 . S
C582 O583 1.249 . S
C582 O584 1.270 . S
O583 Zn575 1.943 . S
O583 C582 1.249 . S
O584 Zn574 2.067 . S
O584 C582 1.270 . S
C585 O578 1.262 . S
C585 O586 1.232 . S
O586 C585 1.232 . S
C587 O579 1.260 . S
C587 O580 1.257 . S
Zn588 O591 2.031 . S
Zn588 O593 2.049 . S
Zn588 O598 2.067 . S
Zn589 O590 1.962 . S
Zn589 O592 1.986 . S
Zn589 O594 1.996 . S
Zn589 O597 1.943 . S
O590 Zn589 1.962 . S
O590 C595 1.254 . S
O591 Zn588 2.031 . S
O591 C595 1.269 . S
O592 Zn589 1.986 . S
O592 C599 1.262 . S
O593 Zn588 2.049 . S
O593 C601 1.260 . S
O594 Zn589 1.996 . S
O594 C601 1.257 . S
C595 O590 1.254 . S
C595 O591 1.269 . S
C596 O597 1.249 . S
C596 O598 1.270 . S
O597 Zn589 1.943 . S
O597 C596 1.249 . S
O598 Zn588 2.067 . S
O598 C596 1.270 . S
C599 O592 1.262 . S
C599 O600 1.232 . S
O600 C599 1.232 . S
C601 O593 1.260 . S
C601 O594 1.257 . S
Zn602 O605 2.031 . S
Zn602 O607 2.049 . S
Zn602 O612 2.067 . S
Zn603 O604 1.962 . S
Zn603 O606 1.986 . S
Zn603 O608 1.996 . S
Zn603 O611 1.943 . S
O604 Zn603 1.962 . S
O604 C609 1.254 . S
O605 Zn602 2.031 . S
O605 C609 1.269 . S
O606 Zn603 1.986 . S
O606 C613 1.262 . S
O607 Zn602 2.049 . S
O607 C615 1.260 . S
O608 Zn603 1.996 . S
O608 C615 1.257 . S
C609 O604 1.254 . S
C609 O605 1.269 . S
C610 O611 1.249 . S
C610 O612 1.270 . S
O611 Zn603 1.943 . S
O611 C610 1.249 . S
O612 Zn602 2.067 . S
O612 C610 1.270 . S
C613 O606 1.262 . S
C613 O614 1.232 . S
O614 C613 1.232 . S
C615 O607 1.260 . S
C615 O608 1.257 . S
Zn616 O619 2.031 . S
Zn616 O621 2.049 . S
Zn616 O626 2.067 . S
Zn617 O618 1.962 . S
Zn617 O620 1.986 . S
Zn617 O622 1.996 . S
Zn617 O625 1.943 . S
O618 Zn617 1.962 . S
O618 C623 1.254 . S
O619 Zn616 2.031 . S
O619 C623 1.269 . S
O620 Zn617 1.986 . S
O620 C627 1.262 . S
O621 Zn616 2.049 . S
O621 C629 1.260 . S
O622 Zn617 1.996 . S
O622 C629 1.257 . S
C623 O618 1.254 . S
C623 O619 1.269 . S
C624 O625 1.249 . S
C624 O626 1.270 . S
O625 Zn617 1.943 . S
O625 C624 1.249 . S
O626 Zn616 2.067 . S
O626 C624 1.270 . S
C627 O620 1.262 . S
C627 O628 1.232 . S
O628 C627 1.232 . S
C629 O621 1.260 . S
C629 O622 1.257 . S
Zn630 O633 2.031 . S
Zn630 O635 2.049 . S
Zn630 O640 2.067 . S
Zn631 O632 1.962 . S
Zn631 O634 1.986 . S
Zn631 O636 1.996 . S
Zn631 O639 1.943 . S
O632 Zn631 1.962 . S
O632 C637 1.254 . S
O633 Zn630 2.031 . S
O633 C637 1.269 . S
O634 Zn631 1.986 . S
O634 C641 1.262 . S
O635 Zn630 2.049 . S
O635 C643 1.260 . S
O636 Zn631 1.996 . S
O636 C643 1.257 . S
C637 O632 1.254 . S
C637 O633 1.269 . S
C638 O639 1.249 . S
C638 O640 1.270 . S
O639 Zn631 1.943 . S
O639 C638 1.249 . S
O640 Zn630 2.067 . S
O640 C638 1.270 . S
C641 O634 1.262 . S
C641 O642 1.232 . S
O642 C641 1.232 . S
C643 O635 1.260 . S
C643 O636 1.257 . S
Zn644 O647 2.031 . S
Zn644 O649 2.049 . S
Zn644 O654 2.067 . S
Zn645 O646 1.962 . S
Zn645 O648 1.986 . S
Zn645 O650 1.996 . S
Zn645 O653 1.943 . S
O646 Zn645 1.962 . S
O646 C651 1.254 . S
O647 Zn644 2.031 . S
O647 C651 1.269 . S
O648 Zn645 1.986 . S
O648 C655 1.262 . S
O649 Zn644 2.049 . S
O649 C657 1.260 . S
O650 Zn645 1.996 . S
O650 C657 1.257 . S
C651 O646 1.254 . S
C651 O647 1.269 . S
C652 O653 1.249 . S
C652 O654 1.270 . S
O653 Zn645 1.943 . S
O653 C652 1.249 . S
O654 Zn644 2.067 . S
O654 C652 1.270 . S
C655 O648 1.262 . S
C655 O656 1.232 . S
O656 C655 1.232 . S
C657 O649 1.260 . S
C657 O650 1.257 . S
Zn658 O661 2.031 . S
Zn658 O663 2.049 . S
Zn658 O668 2.067 . S
Zn659 O660 1.962 . S
Zn659 O662 1.986 . S
Zn659 O664 1.996 . S
Zn659 O667 1.943 . S
O660 Zn659 1.962 . S
O660 C665 1.254 . S
O661 Zn658 2.031 . S
O661 C665 1.269 . S
O662 Zn659 1.986 . S
O662 C669 1.262 . S
O663 Zn658 2.049 . S
O663 C671 1.260 . S
O664 Zn659 1.996 . S
O664 C671 1.257 . S
C665 O660 1.254 . S
C665 O661 1.269 . S
C666 O667 1.249 . S
C666 O668 1.270 . S
O667 Zn659 1.943 . S
O667 C666 1.249 . S
O668 Zn658 2.067 . S
O668 C666 1.270 . S
C669 O662 1.262 . S
C669 O670 1.232 . S
O670 C669 1.232 . S
C671 O663 1.260 . S
C671 O664 1.257 . S
C445 C11 1.553 . S
C25 C403 1.553 . S
C39 C417 1.553 . S
C431 C53 1.553 . S
C361 C67 1.553 . S
C81 C375 1.553 . S
C389 C95 1.553 . S
C109 C347 1.553 . S
C123 C627 1.553 . S
C585 C137 1.553 . S
C599 C151 1.553 . S
C165 C613 1.553 . S
C179 C669 1.553 . S
C193 C641 1.553 . S
C207 C655 1.553 . S
C571 C221 1.553 . S
C557 C235 1.553 . S
C249 C473 1.553 . S
C487 C263 1.553 . S
C277 C501 1.553 . S
C459 C291 1.553 . S
C529 C305 1.553 . S
C319 C543 1.553 . S
C515 C333 1.553 . S
C139 C13 1.031 1_655 S
C153 C27 1.031 1_565 S
C41 C167 1.031 1_655 S
C125 C55 1.031 1_545 S
C69 C223 1.031 1_455 S
C181 C83 1.031 1_565 S
C195 C97 1.031 1_455 S
C209 C111 1.031 1_545 S
C265 C237 1.031 1_556 S
C321 C251 1.031 1_554 S
C335 C279 1.031 1_554 S
C293 C307 1.031 1_556 S
C475 C349 1.031 . S
C489 C363 1.031 . S
C503 C377 1.031 . S
C391 C461 1.031 . S
C405 C559 1.031 . S
C419 C517 1.031 . S
C531 C433 1.031 . S
C545 C447 1.031 . S
C573 C601 1.031 . S
C657 C587 1.031 . S
C671 C615 1.031 . S
C643 C629 1.031 . S
C7 C260 1.470 . S
C21 C274 1.470 . S
C35 C288 1.470 . S
C246 C49 1.470 . S
C63 C316 1.470 . S
C77 C232 1.470 . S
C330 C91 1.470 . S
C302 C105 1.470 . S
C119 C134 1.470 . S
C133 C148 1.470 . S
C147 C162 1.470 . S
C120 C161 1.470 . S
C218 C175 1.470 . S
C176 C189 1.470 . S
C190 C203 1.470 . S
C217 C204 1.470 . S
C50 C231 1.470 . S
C78 C245 1.470 . S
C92 C259 1.470 . S
C273 C106 1.470 . S
C64 C287 1.470 . S
C22 C301 1.470 . S
C36 C315 1.470 . S
C8 C329 1.470 . S
C596 C343 1.470 . S
C357 C610 1.470 . S
C624 C371 1.470 . S
C582 C385 1.470 . S
C399 C652 1.470 . S
C413 C568 1.470 . S
C666 C427 1.470 . S
C441 C638 1.470 . S
C455 C470 1.470 . S
C469 C484 1.470 . S
C483 C498 1.470 . S
C497 C456 1.470 . S
C554 C511 1.470 . S
C512 C525 1.470 . S
C526 C539 1.470 . S
C553 C540 1.470 . S
C386 C567 1.470 . S
C414 C581 1.470 . S
C428 C595 1.470 . S
C609 C442 1.470 . S
C400 C623 1.470 . S
C358 C637 1.470 . S
C651 C372 1.470 . S
C344 C665 1.470 . S
