# Generated by pormake.
# Topology uog, (4)-cn, num edge types: 1
# Building blocks:
#     Node 0, Type 0, BuildingBlock: ESEHIV_clean_sbu_0, # of connection points: 4
#     Node 1, Type 0, BuildingBlock: ESEHIV_clean_sbu_0, # of connection points: 4
#     Node 2, Type 0, BuildingBlock: ESEHIV_clean_sbu_0, # of connection points: 4
#     Node 3, Type 0, BuildingBlock: ESEHIV_clean_sbu_0, # of connection points: 4
#     Node 4, Type 0, BuildingBlock: ESEHIV_clean_sbu_0, # of connection points: 4
#     Node 5, Type 0, BuildingBlock: ESEHIV_clean_sbu_0, # of connection points: 4
#     Edge 6, Type (0, 0), BuildingBlock: XIVTED_clean_linker_0, # of connection points: 2
#     Edge 7, Type (0, 0), BuildingBlock: XIVTED_clean_linker_0, # of connection points: 2
#     Edge 8, Type (0, 0), BuildingBlock: XIVTED_clean_linker_0, # of connection points: 2
#     Edge 9, Type (0, 0), BuildingBlock: XIVTED_clean_linker_0, # of connection points: 2
#     Edge 10, Type (0, 0), BuildingBlock: XIVTED_clean_linker_0, # of connection points: 2
#     Edge 11, Type (0, 0), BuildingBlock: XIVTED_clean_linker_0, # of connection points: 2
#     Edge 12, Type (0, 0), BuildingBlock: XIVTED_clean_linker_0, # of connection points: 2
#     Edge 13, Type (0, 0), BuildingBlock: XIVTED_clean_linker_0, # of connection points: 2
#     Edge 14, Type (0, 0), BuildingBlock: XIVTED_clean_linker_0, # of connection points: 2
#     Edge 15, Type (0, 0), BuildingBlock: XIVTED_clean_linker_0, # of connection points: 2
#     Edge 16, Type (0, 0), BuildingBlock: XIVTED_clean_linker_0, # of connection points: 2
#     Edge 17, Type (0, 0), BuildingBlock: XIVTED_clean_linker_0, # of connection points: 2
# Relax obj value: 0.018
# Max RMSD: 0.205
# Mean RMSD: 0.149
data_MOF--net-uog--node1-ESEHIV_clean_sbu_0--edge1-XIVTED_clean_linker_0
_symmetry_space_group_name_H-M    P1
_symmetry_Int_Tables_number       1
_symmetry_cell_setting            triclinic
loop_
_symmetry_equiv_pos_as_xyz
'x, y, z'
_cell_length_a     28.393578
_cell_length_b     34.6192
_cell_length_c     44.739212
_cell_angle_alpha  89.609127
_cell_angle_beta   90.365493
_cell_angle_gamma 114.58862
loop_
_atom_site_label
_atom_site_type_symbol
_atom_site_fract_x
_atom_site_fract_y
_atom_site_fract_z
_atom_type_partial_charge
Cu0 Cu 0.57335 0.27108 0.16629 0.0
N1 N 0.53081 0.30001 0.16819 0.0
N2 N 0.51157 0.35633 0.17047 0.0
C3 C 0.54654 0.3405 0.17711 0.0
C4 C 0.47181 0.32418 0.15715 0.0
C5 C 0.48401 0.2896 0.15554 0.0
O6 O 0.61556 0.28322 0.20229 0.0
C7 C 0.6505 0.28449 0.1205 0.0
O8 O 0.67495 0.26998 0.1394 0.0
H9 H 0.58402 0.35864 0.18699 0.0
H10 H 0.46194 0.26008 0.14411 0.0
N11 N 0.53471 0.21239 0.16542 0.0
N12 N 0.5178 0.14333 0.16347 0.0
C13 C 0.554 0.18355 0.16021 0.0
C14 C 0.48459 0.18977 0.17237 0.0
C15 C 0.47395 0.14715 0.17101 0.0
C16 C 0.65222 0.31822 0.20987 0.0
O17 O 0.66907 0.35013 0.19086 0.0
H18 H 0.59413 0.19206 0.15466 0.0
H19 H 0.4581 0.20323 0.17904 0.0
O20 O 0.60996 0.28832 0.12878 0.0
H21 H 0.43803 0.32636 0.14738 0.0
H22 H 0.43738 0.12111 0.17644 0.0
Cu23 Cu 0.33063 0.60278 0.52402 0.0
N24 N 0.33448 0.63386 0.48905 0.0
N25 N 0.34402 0.65738 0.44182 0.0
C26 C 0.35077 0.63013 0.46141 0.0
C27 C 0.32292 0.67902 0.45783 0.0
C28 C 0.31698 0.66438 0.48681 0.0
O29 O 0.37783 0.57475 0.52367 0.0
C30 C 0.2264 0.54915 0.50985 0.0
O31 O 0.24515 0.55054 0.4829 0.0
H32 H 0.36704 0.60796 0.45571 0.0
H33 H 0.30007 0.67464 0.50501 0.0
N34 N 0.35417 0.64168 0.55518 0.0
N35 N 0.36898 0.67026 0.60083 0.0
C36 C 0.34218 0.63515 0.58441 0.0
C37 C 0.38981 0.682 0.55299 0.0
C38 C 0.39893 0.69975 0.58103 0.0
C39 C 0.383 0.54981 0.50447 0.0
O40 O 0.3509 0.53698 0.48168 0.0
H41 H 0.31444 0.60528 0.59336 0.0
H42 H 0.40853 0.69715 0.53244 0.0
O43 O 0.25763 0.56655 0.53132 0.0
H44 H 0.31111 0.70286 0.44906 0.0
H45 H 0.42651 0.73161 0.58643 0.0
Cu46 Cu 0.79316 0.28751 0.85554 0.0
N47 N 0.76941 0.22837 0.85495 0.0
N48 N 0.71462 0.15965 0.85569 0.0
C49 C 0.71967 0.20013 0.85741 0.0
C50 C 0.76316 0.16264 0.85191 0.0
C51 C 0.79681 0.20503 0.85134 0.0
O52 O 0.77213 0.30254 0.89322 0.0
C53 C 0.77315 0.28918 0.79532 0.0
O54 O 0.79254 0.26074 0.79598 0.0
H55 H 0.68788 0.20916 0.86053 0.0
H56 H 0.83819 0.21785 0.84796 0.0
N57 N 0.86513 0.31452 0.8562 0.0
N58 N 0.94201 0.37013 0.8585 0.0
C59 C 0.8929 0.35528 0.84819 0.0
C60 C 0.89781 0.30311 0.87202 0.0
C61 C 0.94536 0.33734 0.87339 0.0
C62 C 0.72685 0.29665 0.90134 0.0
O63 O 0.68842 0.28222 0.88205 0.0
H64 H 0.87597 0.37485 0.83775 0.0
H65 H 0.88669 0.27339 0.88399 0.0
O66 O 0.76881 0.30613 0.81974 0.0
H67 H 0.77354 0.13615 0.84907 0.0
H68 H 0.97873 0.33888 0.88603 0.0
Cu69 Cu 0.50115 0.7463 0.17987 0.0
N70 N 0.5412 0.71512 0.18209 0.0
N71 N 0.55879 0.65789 0.18133 0.0
C72 C 0.52415 0.67398 0.17448 0.0
C73 C 0.59988 0.69061 0.19312 0.0
C74 C 0.5889 0.72585 0.19358 0.0
O75 O 0.45671 0.73255 0.21475 0.0
C76 C 0.42988 0.74427 0.13354 0.0
O77 O 0.41589 0.76762 0.15134 0.0
H78 H 0.48646 0.65602 0.16463 0.0
H79 H 0.61348 0.75661 0.20251 0.0
N80 N 0.5424 0.80479 0.18139 0.0
N81 N 0.56469 0.8747 0.17723 0.0
C82 C 0.53478 0.83568 0.16645 0.0
C83 C 0.57843 0.82503 0.20227 0.0
C84 C 0.59259 0.86806 0.1996 0.0
C85 C 0.43073 0.69501 0.22441 0.0
O86 O 0.42823 0.66253 0.20846 0.0
H87 H 0.50614 0.82961 0.14901 0.0
H88 H 0.59055 0.80949 0.2198 0.0
O89 O 0.46358 0.73143 0.14231 0.0
H90 H 0.63446 0.68882 0.202 0.0
H91 H 0.61828 0.8922 0.21454 0.0
Cu92 Cu 0.73897 0.42024 0.5077 0.0
N93 N 0.72361 0.38156 0.47634 0.0
N94 N 0.71142 0.35332 0.43054 0.0
C95 C 0.7204 0.38852 0.44686 0.0
C96 C 0.70912 0.32334 0.4507 0.0
C97 C 0.71676 0.34085 0.4788 0.0
O98 O 0.70174 0.45582 0.50026 0.0
C99 C 0.8444 0.47301 0.52851 0.0
O100 O 0.82457 0.48366 0.55181 0.0
H101 H 0.72465 0.41878 0.43766 0.0
H102 H 0.7182 0.32524 0.49959 0.0
N103 N 0.71211 0.3888 0.54262 0.0
N104 N 0.70047 0.36073 0.58858 0.0
C105 C 0.73433 0.38889 0.56942 0.0
C106 C 0.66281 0.35986 0.54512 0.0
C107 C 0.65555 0.34237 0.57331 0.0
C108 C 0.68746 0.47254 0.52165 0.0
O109 O 0.70437 0.47074 0.5488 0.0
H110 H 0.7745 0.40833 0.57463 0.0
H111 H 0.63414 0.35201 0.52747 0.0
O112 O 0.81449 0.44927 0.50845 0.0
H113 H 0.70361 0.29125 0.44555 0.0
H114 H 0.61987 0.31826 0.58203 0.0
Cu115 Cu 0.32209 0.76568 0.8644 0.0
N116 N 0.33878 0.82357 0.86226 0.0
N117 N 0.38915 0.89328 0.86127 0.0
C118 C 0.3875 0.85379 0.86313 0.0
C119 C 0.33914 0.88747 0.85902 0.0
C120 C 0.30811 0.84435 0.85968 0.0
O121 O 0.35706 0.7583 0.89987 0.0
C122 C 0.34401 0.71531 0.81965 0.0
O123 O 0.32941 0.68391 0.83907 0.0
H124 H 0.42108 0.84663 0.86467 0.0
H125 H 0.26628 0.82926 0.85843 0.0
N126 N 0.25104 0.73441 0.86942 0.0
N127 N 0.17542 0.67741 0.87103 0.0
C128 C 0.2218 0.69623 0.85744 0.0
C129 C 0.22185 0.74023 0.89097 0.0
C130 C 0.17516 0.70503 0.89208 0.0
C131 C 0.34153 0.72446 0.91549 0.0
O132 O 0.30411 0.68963 0.90532 0.0
H133 H 0.23582 0.68087 0.84099 0.0
H134 H 0.23513 0.76675 0.90626 0.0
O135 O 0.34481 0.75095 0.82713 0.0
H136 H 0.32578 0.91247 0.85737 0.0
H137 H 0.14462 0.69917 0.90819 0.0
H138 H 0.44555 0.064 0.15087 0.0
H139 H 0.63961 0.95454 0.18349 0.0
H140 H 0.60736 0.13395 0.17244 0.0
H141 H 0.48051 0.88512 0.15617 0.0
H142 H 0.62965 0.02095 0.17717 0.0
H143 H 0.45832 0.99839 0.15069 0.0
C144 C 0.48376 0.06561 0.15555 0.0
C145 C 0.52535 0.10465 0.1618 0.0
C146 C 0.59702 0.99121 0.17231 0.0
C147 C 0.54039 0.02957 0.16147 0.0
C148 C 0.60268 0.95328 0.176 0.0
C149 C 0.56082 0.91412 0.17052 0.0
C150 C 0.54898 0.99008 0.16327 0.0
C151 C 0.514 0.91445 0.16044 0.0
C152 C 0.49111 0.02814 0.15527 0.0
C153 C 0.57423 0.10479 0.16723 0.0
N154 N 0.50924 0.95178 0.1574 0.0
N155 N 0.58028 0.06785 0.16713 0.0
H156 H 0.4523 0.56642 0.55069 0.0
H157 H 0.62862 0.46665 0.47123 0.0
H158 H 0.41662 0.5072 0.46392 0.0
H159 H 0.6513 0.51289 0.56188 0.0
H160 H 0.55479 0.48566 0.46644 0.0
H161 H 0.52803 0.55031 0.55378 0.0
C162 C 0.46022 0.54987 0.53228 0.0
C163 C 0.42773 0.53809 0.50701 0.0
C164 C 0.57611 0.49183 0.48732 0.0
C165 C 0.51525 0.51976 0.51035 0.0
C166 C 0.61853 0.48124 0.49002 0.0
C167 C 0.64632 0.48809 0.51704 0.0
C168 C 0.5614 0.50959 0.51176 0.0
C169 C 0.6311 0.50688 0.54064 0.0
C170 C 0.50366 0.54072 0.53406 0.0
C171 C 0.4403 0.51674 0.4839 0.0
N172 N 0.58975 0.51683 0.53747 0.0
N173 N 0.48308 0.50837 0.48608 0.0
H174 H 1.0041 0.41145 0.9047 0.0
H175 H 0.14589 0.63218 0.81987 0.0
H176 H 0.96172 0.42895 0.81459 0.0
H177 H 0.12436 0.62277 0.91534 0.0
H178 H 0.08897 0.556 0.81565 0.0
H179 H 0.06083 0.48733 0.90715 0.0
C180 C 1.00738 0.43121 0.88528 0.0
C181 C 0.97843 0.414 0.85934 0.0
C182 C 0.0965 0.5708 0.83746 0.0
C183 C 0.04292 0.50074 0.86205 0.0
C184 C 0.12889 0.61406 0.83986 0.0
C185 C 0.13938 0.63369 0.86794 0.0
C186 C 0.07563 0.54696 0.86343 0.0
C187 C 0.1166 0.60896 0.89324 0.0
C188 C 1.03927 0.47452 0.8868 0.0
C189 C 0.98337 0.44118 0.83498 0.0
N190 N 0.08621 0.56678 0.89042 0.0
N191 N 1.01525 0.48326 0.83684 0.0
H192 H 0.14951 0.50749 0.46941 0.0
H193 H 0.92048 0.51495 0.57005 0.0
H194 H 0.17334 0.55609 0.55945 0.0
H195 H 0.89795 0.45856 0.4824 0.0
H196 H 1.01302 0.53115 0.56678 0.0
H197 H 0.05709 0.48894 0.47432 0.0
C198 C 0.13529 0.51393 0.49036 0.0
C199 C 0.16948 0.53345 0.51403 0.0
C200 C 0.98778 0.51527 0.54827 0.0
C201 C 0.06313 0.51267 0.51971 0.0
C202 C 0.93493 0.50619 0.55005 0.0
C203 C 0.90117 0.48538 0.52645 0.0
C204 C 1.00717 0.5036 0.52266 0.0
C205 C 0.92228 0.47463 0.50118 0.0
C206 C 0.08238 0.50342 0.49311 0.0
C207 C 0.14853 0.54098 0.54061 0.0
N208 N 0.97371 0.48384 0.49998 0.0
N209 N 0.09682 0.53084 0.54266 0.0
H210 H 0.3995 0.97011 0.83935 0.0
H211 H 0.70369 0.08168 0.87445 0.0
H212 H 0.48418 0.9075 0.88375 0.0
H213 H 0.61735 0.14989 0.8405 0.0
H214 H 0.62362 0.017 0.87647 0.0
H215 H 0.47853 0.03604 0.83872 0.0
C216 C 0.43447 0.97016 0.84912 0.0
C217 C 0.43499 0.93289 0.86143 0.0
C218 C 0.6221 0.04612 0.86863 0.0
C219 C 0.52589 1.00829 0.86046 0.0
C220 C 0.66794 0.08305 0.86729 0.0
C221 C 0.66737 0.12134 0.85725 0.0
C222 C 0.57516 0.04727 0.85969 0.0
C223 C 0.6196 0.12125 0.8487 0.0
C224 C 0.4797 1.00783 0.84862 0.0
C225 C 0.48185 0.935 0.87348 0.0
N226 N 0.57547 0.08478 0.85001 0.0
N227 N 0.52528 0.97192 0.8726 0.0
H228 H 0.46726 0.58769 0.1809 0.0
H229 H 0.60284 0.42676 0.17227 0.0
H230 H 0.63282 0.6276 0.17747 0.0
H231 H 0.43706 0.38619 0.17384 0.0
H232 H 0.6143 0.50025 0.17513 0.0
H233 H 0.45533 0.51391 0.17838 0.0
C234 C 0.50117 0.58107 0.17931 0.0
C235 C 0.55122 0.61412 0.17924 0.0
C236 C 0.57538 0.47532 0.17493 0.0
C237 C 0.53769 0.52929 0.17686 0.0
C238 C 0.56873 0.43315 0.17355 0.0
C239 C 0.51878 0.39998 0.17298 0.0
C240 C 0.53183 0.48467 0.17574 0.0
C241 C 0.47621 0.41065 0.17399 0.0
C242 C 0.49428 0.53879 0.17812 0.0
C243 C 0.5936 0.60327 0.17784 0.0
N244 N 0.48371 0.45205 0.17533 0.0
N245 N 0.58587 0.56183 0.1767 0.0
H246 H 0.63709 0.29121 0.92782 0.0
H247 H 0.73779 0.28472 0.09393 0.0
H248 H 0.79456 0.31164 0.94815 0.0
H249 H 0.59821 0.30127 0.07431 0.0
H250 H 0.75853 0.2924 0.04051 0.0
H251 H 0.6209 0.29277 0.98143 0.0
C252 C 0.66835 0.29636 0.94349 0.0
C253 C 0.71719 0.30119 0.9334 0.0
C254 C 0.72357 0.29467 0.04798 0.0
C255 C 0.69877 0.30246 0.9948 0.0
C256 C 0.71171 0.29025 0.07847 0.0
C257 C 0.66614 0.29222 0.08867 0.0
C258 C 0.68929 0.30055 0.02751 0.0
C259 C 0.63379 0.29949 0.06754 0.0
C260 C 0.65911 0.29727 0.9741 0.0
C261 C 0.75626 0.30776 0.95481 0.0
N262 N 0.64574 0.303 0.038 0.0
N263 N 0.74607 0.30781 0.98445 0.0
H264 H 0.42608 0.75447 0.26292 0.0
H265 H 0.34574 0.59687 0.40386 0.0
H266 H 0.39061 0.6208 0.25674 0.0
H267 H 0.3665 0.72751 0.40733 0.0
H268 H 0.3622 0.60473 0.35004 0.0
H269 H 0.40251 0.74462 0.31568 0.0
C270 C 0.41283 0.72294 0.27257 0.0
C271 C 0.41054 0.68845 0.25536 0.0
C272 C 0.36301 0.63164 0.36259 0.0
C273 C 0.38408 0.67703 0.31599 0.0
C274 C 0.35406 0.62727 0.39337 0.0
C275 C 0.35475 0.6616 0.4102 0.0
C276 C 0.37307 0.6707 0.34852 0.0
C277 C 0.36497 0.70006 0.39526 0.0
C278 C 0.3995 0.71735 0.30276 0.0
C279 C 0.393 0.64832 0.26912 0.0
N280 N 0.37385 0.70358 0.36536 0.0
N281 N 0.38085 0.64378 0.29868 0.0
H282 H 0.77275 0.36564 0.77793 0.0
H283 H 0.66084 0.2837 0.61521 0.0
H284 H 0.73982 0.23953 0.7463 0.0
H285 H 0.76078 0.41537 0.63082 0.0
H286 H 0.6752 0.26712 0.66674 0.0
H287 H 0.75418 0.38473 0.72735 0.0
C288 C 0.76101 0.34191 0.76048 0.0
C289 C 0.75788 0.30099 0.76621 0.0
C290 C 0.69399 0.29967 0.65893 0.0
C291 C 0.73644 0.32237 0.70884 0.0
C292 C 0.68565 0.30914 0.62959 0.0
C293 C 0.70979 0.35092 0.61878 0.0
C294 C 0.72606 0.33229 0.67786 0.0
C295 C 0.74195 0.3827 0.63829 0.0
C296 C 0.75088 0.35288 0.73167 0.0
C297 C 0.74298 0.2715 0.7428 0.0
N298 N 0.74897 0.3728 0.66704 0.0
N299 N 0.73261 0.28269 0.71524 0.0
H300 H 0.38867 0.79537 0.9497 0.0
H301 H 0.42474 0.6805 0.09608 0.0
H302 H 0.33199 0.65877 0.95335 0.0
H303 H 0.39705 0.79386 0.09914 0.0
H304 H 0.40386 0.67428 0.04247 0.0
H305 H 0.4077 0.79842 1.00317 0.0
C306 C 0.38089 0.76602 0.96163 0.0
C307 C 0.35866 0.72669 0.947 0.0
C308 C 0.402 0.70026 0.05501 0.0
C309 C 0.38037 0.73015 1.00825 0.0
C310 C 0.41387 0.70386 0.08551 0.0
C311 C 0.41242 0.73769 0.10205 0.0
C312 C 0.38999 0.73133 0.04086 0.0
C313 C 0.39821 0.76712 0.08728 0.0
C314 C 0.3913 0.76782 0.99221 0.0
C315 C 0.34903 0.68972 0.96376 0.0
N316 N 0.38819 0.76357 0.05742 0.0
N317 N 0.36017 0.69233 0.99353 0.0
H318 H 0.66279 0.2799 0.39965 0.0
H319 H 0.71294 0.39257 0.23878 0.0
H320 H 0.74746 0.41527 0.38767 0.0
H321 H 0.63004 0.25757 0.25343 0.0
H322 H 0.73113 0.40187 0.29258 0.0
H323 H 0.65473 0.27159 0.34573 0.0
C324 C 0.68008 0.30795 0.38575 0.0
C325 C 0.70599 0.34838 0.39846 0.0
C326 C 0.70932 0.37021 0.28393 0.0
C327 C 0.69626 0.33905 0.33614 0.0
C328 C 0.69917 0.36483 0.25319 0.0
C329 C 0.66963 0.32424 0.24153 0.0
C330 C 0.68983 0.33473 0.30311 0.0
C331 C 0.65264 0.28951 0.26135 0.0
C332 C 0.67523 0.30317 0.35481 0.0
C333 C 0.72665 0.38354 0.37902 0.0
N334 N 0.66272 0.2956 0.29108 0.0
N335 N 0.72131 0.37806 0.34885 0.0
H336 H 0.38372 0.77527 0.77587 0.0
H337 H 0.33934 0.60851 0.64385 0.0
H338 H 0.3263 0.64014 0.79121 0.0
H339 H 0.39418 0.74395 0.63109 0.0
H340 H 0.33687 0.61873 0.69782 0.0
H341 H 0.39213 0.76383 0.72297 0.0
C342 C 0.37318 0.74313 0.76815 0.0
C343 C 0.354 0.70858 0.78806 0.0
C344 C 0.34958 0.64617 0.68316 0.0
C345 C 0.36315 0.69516 0.72711 0.0
C346 C 0.35066 0.64035 0.65229 0.0
C347 C 0.36702 0.67543 0.63274 0.0
C348 C 0.36486 0.68735 0.69459 0.0
C349 C 0.38197 0.71599 0.64515 0.0
C350 C 0.37791 0.7366 0.73784 0.0
C351 C 0.34126 0.66771 0.77668 0.0
N352 N 0.38043 0.72076 0.67517 0.0
N353 N 0.34573 0.66208 0.7469 0.0
loop_
_geom_bond_atom_site_label_1
_geom_bond_atom_site_label_2
_geom_bond_distance
_geom_bond_site_symmetry_2
_ccdc_geom_bond_type
Cu0 N1 1.999 . S
Cu0 O6 1.974 . S
Cu0 N11 1.985 . S
Cu0 O20 1.959 . S
N1 Cu0 1.999 . S
N1 C3 1.263 . S
N1 C5 1.389 . S
N2 C3 1.358 . S
N2 C4 1.400 . S
C3 N1 1.263 . S
C3 N2 1.358 . S
C3 H9 0.930 . S
C4 N2 1.400 . S
C4 C5 1.351 . S
C4 H21 0.930 . S
C5 N1 1.389 . S
C5 C4 1.351 . S
C5 H10 0.930 . S
O6 Cu0 1.974 . S
O6 C16 1.282 . S
C7 O8 1.261 . S
C7 O20 1.251 . S
O8 C7 1.261 . S
H9 C3 0.930 . S
H10 C5 0.930 . S
N11 Cu0 1.985 . S
N11 C13 1.335 . S
N11 C14 1.390 . S
N12 C13 1.345 . S
N12 C15 1.336 . S
C13 N11 1.335 . S
C13 N12 1.345 . S
C13 H18 0.930 . S
C14 N11 1.390 . S
C14 C15 1.346 . S
C14 H19 0.930 . S
C15 N12 1.336 . S
C15 C14 1.346 . S
C15 H22 0.929 . S
C16 O6 1.282 . S
C16 O17 1.216 . S
O17 C16 1.216 . S
H18 C13 0.930 . S
H19 C14 0.930 . S
O20 Cu0 1.959 . S
O20 C7 1.251 . S
H21 C4 0.930 . S
H22 C15 0.929 . S
Cu23 N24 1.999 . S
Cu23 O29 1.974 . S
Cu23 N34 1.985 . S
Cu23 O43 1.959 . S
N24 Cu23 1.999 . S
N24 C26 1.263 . S
N24 C28 1.389 . S
N25 C26 1.358 . S
N25 C27 1.400 . S
C26 N24 1.263 . S
C26 N25 1.358 . S
C26 H32 0.930 . S
C27 N25 1.400 . S
C27 C28 1.351 . S
C27 H44 0.930 . S
C28 N24 1.389 . S
C28 C27 1.351 . S
C28 H33 0.930 . S
O29 Cu23 1.974 . S
O29 C39 1.282 . S
C30 O31 1.261 . S
C30 O43 1.251 . S
O31 C30 1.261 . S
H32 C26 0.930 . S
H33 C28 0.930 . S
N34 Cu23 1.985 . S
N34 C36 1.335 . S
N34 C37 1.390 . S
N35 C36 1.345 . S
N35 C38 1.336 . S
C36 N34 1.335 . S
C36 N35 1.345 . S
C36 H41 0.930 . S
C37 N34 1.390 . S
C37 C38 1.346 . S
C37 H42 0.930 . S
C38 N35 1.336 . S
C38 C37 1.346 . S
C38 H45 0.929 . S
C39 O29 1.282 . S
C39 O40 1.216 . S
O40 C39 1.216 . S
H41 C36 0.930 . S
H42 C37 0.930 . S
O43 Cu23 1.959 . S
O43 C30 1.251 . S
H44 C27 0.930 . S
H45 C38 0.929 . S
Cu46 N47 1.999 . S
Cu46 O52 1.974 . S
Cu46 N57 1.985 . S
Cu46 O66 1.959 . S
N47 Cu46 1.999 . S
N47 C49 1.263 . S
N47 C51 1.389 . S
N48 C49 1.358 . S
N48 C50 1.400 . S
C49 N47 1.263 . S
C49 N48 1.358 . S
C49 H55 0.930 . S
C50 N48 1.400 . S
C50 C51 1.351 . S
C50 H67 0.930 . S
C51 N47 1.389 . S
C51 C50 1.351 . S
C51 H56 0.930 . S
O52 Cu46 1.974 . S
O52 C62 1.282 . S
C53 O54 1.261 . S
C53 O66 1.251 . S
O54 C53 1.261 . S
H55 C49 0.930 . S
H56 C51 0.930 . S
N57 Cu46 1.985 . S
N57 C59 1.335 . S
N57 C60 1.390 . S
N58 C59 1.345 . S
N58 C61 1.336 . S
C59 N57 1.335 . S
C59 N58 1.345 . S
C59 H64 0.930 . S
C60 N57 1.390 . S
C60 C61 1.346 . S
C60 H65 0.930 . S
C61 N58 1.336 . S
C61 C60 1.346 . S
C61 H68 0.929 . S
C62 O52 1.282 . S
C62 O63 1.216 . S
O63 C62 1.216 . S
H64 C59 0.930 . S
H65 C60 0.930 . S
O66 Cu46 1.959 . S
O66 C53 1.251 . S
H67 C50 0.930 . S
H68 C61 0.929 . S
Cu69 N70 1.999 . S
Cu69 O75 1.974 . S
Cu69 N80 1.985 . S
Cu69 O89 1.959 . S
N70 Cu69 1.999 . S
N70 C72 1.263 . S
N70 C74 1.389 . S
N71 C72 1.358 . S
N71 C73 1.400 . S
C72 N70 1.263 . S
C72 N71 1.358 . S
C72 H78 0.930 . S
C73 N71 1.400 . S
C73 C74 1.351 . S
C73 H90 0.930 . S
C74 N70 1.389 . S
C74 C73 1.351 . S
C74 H79 0.930 . S
O75 Cu69 1.974 . S
O75 C85 1.282 . S
C76 O77 1.261 . S
C76 O89 1.251 . S
O77 C76 1.261 . S
H78 C72 0.930 . S
H79 C74 0.930 . S
N80 Cu69 1.985 . S
N80 C82 1.335 . S
N80 C83 1.390 . S
N81 C82 1.345 . S
N81 C84 1.336 . S
C82 N80 1.335 . S
C82 N81 1.345 . S
C82 H87 0.930 . S
C83 N80 1.390 . S
C83 C84 1.346 . S
C83 H88 0.930 . S
C84 N81 1.336 . S
C84 C83 1.346 . S
C84 H91 0.929 . S
C85 O75 1.282 . S
C85 O86 1.216 . S
O86 C85 1.216 . S
H87 C82 0.930 . S
H88 C83 0.930 . S
O89 Cu69 1.959 . S
O89 C76 1.251 . S
H90 C73 0.930 . S
H91 C84 0.929 . S
Cu92 N93 1.999 . S
Cu92 O98 1.974 . S
Cu92 N103 1.985 . S
Cu92 O112 1.959 . S
N93 Cu92 1.999 . S
N93 C95 1.263 . S
N93 C97 1.389 . S
N94 C95 1.358 . S
N94 C96 1.400 . S
C95 N93 1.263 . S
C95 N94 1.358 . S
C95 H101 0.930 . S
C96 N94 1.400 . S
C96 C97 1.351 . S
C96 H113 0.930 . S
C97 N93 1.389 . S
C97 C96 1.351 . S
C97 H102 0.930 . S
O98 Cu92 1.974 . S
O98 C108 1.282 . S
C99 O100 1.261 . S
C99 O112 1.251 . S
O100 C99 1.261 . S
H101 C95 0.930 . S
H102 C97 0.930 . S
N103 Cu92 1.985 . S
N103 C105 1.335 . S
N103 C106 1.390 . S
N104 C105 1.345 . S
N104 C107 1.336 . S
C105 N103 1.335 . S
C105 N104 1.345 . S
C105 H110 0.930 . S
C106 N103 1.390 . S
C106 C107 1.346 . S
C106 H111 0.930 . S
C107 N104 1.336 . S
C107 C106 1.346 . S
C107 H114 0.929 . S
C108 O98 1.282 . S
C108 O109 1.216 . S
O109 C108 1.216 . S
H110 C105 0.930 . S
H111 C106 0.930 . S
O112 Cu92 1.959 . S
O112 C99 1.251 . S
H113 C96 0.930 . S
H114 C107 0.929 . S
Cu115 N116 1.999 . S
Cu115 O121 1.974 . S
Cu115 N126 1.985 . S
Cu115 O135 1.959 . S
N116 Cu115 1.999 . S
N116 C118 1.263 . S
N116 C120 1.389 . S
N117 C118 1.358 . S
N117 C119 1.400 . S
C118 N116 1.263 . S
C118 N117 1.358 . S
C118 H124 0.930 . S
C119 N117 1.400 . S
C119 C120 1.351 . S
C119 H136 0.930 . S
C120 N116 1.389 . S
C120 C119 1.351 . S
C120 H125 0.930 . S
O121 Cu115 1.974 . S
O121 C131 1.282 . S
C122 O123 1.261 . S
C122 O135 1.251 . S
O123 C122 1.261 . S
H124 C118 0.930 . S
H125 C120 0.930 . S
N126 Cu115 1.985 . S
N126 C128 1.335 . S
N126 C129 1.390 . S
N127 C128 1.345 . S
N127 C130 1.336 . S
C128 N126 1.335 . S
C128 N127 1.345 . S
C128 H133 0.930 . S
C129 N126 1.390 . S
C129 C130 1.346 . S
C129 H134 0.930 . S
C130 N127 1.336 . S
C130 C129 1.346 . S
C130 H137 0.929 . S
C131 O121 1.282 . S
C131 O132 1.216 . S
O132 C131 1.216 . S
H133 C128 0.930 . S
H134 C129 0.930 . S
O135 Cu115 1.959 . S
O135 C122 1.251 . S
H136 C119 0.930 . S
H137 C130 0.929 . S
H138 C144 0.930 . S
H139 C148 0.930 . S
H140 C153 0.929 . S
H141 C151 0.929 . S
H142 C146 0.929 . S
H143 C152 0.929 . S
C144 H138 0.930 . S
C144 C145 1.367 . S
C144 C152 1.378 . S
C145 C144 1.367 . S
C145 C153 1.433 . S
C146 H142 0.929 . S
C146 C148 1.378 . S
C146 C150 1.350 . S
C147 C150 1.463 1_545 S
C147 C152 1.350 . S
C147 N155 1.427 . S
C148 H139 0.930 . S
C148 C146 1.378 . S
C148 C149 1.367 . S
C149 C148 1.367 . S
C149 C151 1.433 . S
C150 C146 1.350 . S
C150 C147 1.463 1_565 S
C150 N154 1.427 . S
C151 H141 0.929 . S
C151 C149 1.433 . S
C151 N154 1.384 . S
C152 H143 0.929 . S
C152 C144 1.378 . S
C152 C147 1.350 . S
C153 H140 0.929 . S
C153 C145 1.433 . S
C153 N155 1.384 . S
N154 C150 1.427 . S
N154 C151 1.384 . S
N155 C147 1.427 . S
N155 C153 1.384 . S
H156 C162 0.930 . S
H157 C166 0.930 . S
H158 C171 0.929 . S
H159 C169 0.929 . S
H160 C164 0.929 . S
H161 C170 0.929 . S
C162 H156 0.930 . S
C162 C163 1.367 . S
C162 C170 1.378 . S
C163 C162 1.367 . S
C163 C171 1.433 . S
C164 H160 0.929 . S
C164 C166 1.378 . S
C164 C168 1.350 . S
C165 C168 1.463 . S
C165 C170 1.350 . S
C165 N173 1.427 . S
C166 H157 0.930 . S
C166 C164 1.378 . S
C166 C167 1.367 . S
C167 C166 1.367 . S
C167 C169 1.433 . S
C168 C164 1.350 . S
C168 C165 1.463 . S
C168 N172 1.427 . S
C169 H159 0.929 . S
C169 C167 1.433 . S
C169 N172 1.384 . S
C170 H161 0.929 . S
C170 C162 1.378 . S
C170 C165 1.350 . S
C171 H158 0.929 . S
C171 C163 1.433 . S
C171 N173 1.384 . S
N172 C168 1.427 . S
N172 C169 1.384 . S
N173 C165 1.427 . S
N173 C171 1.384 . S
H174 C180 0.930 . S
H175 C184 0.930 . S
H176 C189 0.929 . S
H177 C187 0.929 . S
H178 C182 0.929 . S
H179 C188 0.929 . S
C180 H174 0.930 . S
C180 C181 1.367 . S
C180 C188 1.378 . S
C181 C180 1.367 . S
C181 C189 1.433 . S
C182 H178 0.929 . S
C182 C184 1.378 . S
C182 C186 1.350 . S
C183 C186 1.463 1_655 S
C183 C188 1.350 . S
C183 N191 1.427 . S
C184 H175 0.930 . S
C184 C182 1.378 . S
C184 C185 1.367 . S
C185 C184 1.367 . S
C185 C187 1.433 . S
C186 C182 1.350 . S
C186 C183 1.463 1_455 S
C186 N190 1.427 . S
C187 H177 0.929 . S
C187 C185 1.433 . S
C187 N190 1.384 . S
C188 H179 0.929 . S
C188 C180 1.378 . S
C188 C183 1.350 . S
C189 H176 0.929 . S
C189 C181 1.433 . S
C189 N191 1.384 . S
N190 C186 1.427 . S
N190 C187 1.384 . S
N191 C183 1.427 . S
N191 C189 1.384 . S
H192 C198 0.930 . S
H193 C202 0.930 . S
H194 C207 0.929 . S
H195 C205 0.929 . S
H196 C200 0.929 . S
H197 C206 0.929 . S
C198 H192 0.930 . S
C198 C199 1.367 . S
C198 C206 1.378 . S
C199 C198 1.367 . S
C199 C207 1.433 . S
C200 H196 0.929 . S
C200 C202 1.378 . S
C200 C204 1.350 . S
C201 C204 1.463 1_455 S
C201 C206 1.350 . S
C201 N209 1.427 . S
C202 H193 0.930 . S
C202 C200 1.378 . S
C202 C203 1.367 . S
C203 C202 1.367 . S
C203 C205 1.433 . S
C204 C200 1.350 . S
C204 C201 1.463 1_655 S
C204 N208 1.427 . S
C205 H195 0.929 . S
C205 C203 1.433 . S
C205 N208 1.384 . S
C206 H197 0.929 . S
C206 C198 1.378 . S
C206 C201 1.350 . S
C207 H194 0.929 . S
C207 C199 1.433 . S
C207 N209 1.384 . S
N208 C204 1.427 . S
N208 C205 1.384 . S
N209 C201 1.427 . S
N209 C207 1.384 . S
H210 C216 0.930 . S
H211 C220 0.930 . S
H212 C225 0.929 . S
H213 C223 0.929 . S
H214 C218 0.929 . S
H215 C224 0.929 . S
C216 H210 0.930 . S
C216 C217 1.367 . S
C216 C224 1.378 . S
C217 C216 1.367 . S
C217 C225 1.433 . S
C218 H214 0.929 . S
C218 C220 1.378 . S
C218 C222 1.350 . S
C219 C222 1.463 1_565 S
C219 C224 1.350 . S
C219 N227 1.427 . S
C220 H211 0.930 . S
C220 C218 1.378 . S
C220 C221 1.367 . S
C221 C220 1.367 . S
C221 C223 1.433 . S
C222 C218 1.350 . S
C222 C219 1.463 1_545 S
C222 N226 1.427 . S
C223 H213 0.929 . S
C223 C221 1.433 . S
C223 N226 1.384 . S
C224 H215 0.929 . S
C224 C216 1.378 . S
C224 C219 1.350 . S
C225 H212 0.929 . S
C225 C217 1.433 . S
C225 N227 1.384 . S
N226 C222 1.427 . S
N226 C223 1.384 . S
N227 C219 1.427 . S
N227 C225 1.384 . S
H228 C234 0.930 . S
H229 C238 0.930 . S
H230 C243 0.929 . S
H231 C241 0.929 . S
H232 C236 0.929 . S
H233 C242 0.929 . S
C234 H228 0.930 . S
C234 C235 1.367 . S
C234 C242 1.378 . S
C235 C234 1.367 . S
C235 C243 1.433 . S
C236 H232 0.929 . S
C236 C238 1.378 . S
C236 C240 1.350 . S
C237 C240 1.463 . S
C237 C242 1.350 . S
C237 N245 1.427 . S
C238 H229 0.930 . S
C238 C236 1.378 . S
C238 C239 1.367 . S
C239 C238 1.367 . S
C239 C241 1.433 . S
C240 C236 1.350 . S
C240 C237 1.463 . S
C240 N244 1.427 . S
C241 H231 0.929 . S
C241 C239 1.433 . S
C241 N244 1.384 . S
C242 H233 0.929 . S
C242 C234 1.378 . S
C242 C237 1.350 . S
C243 H230 0.929 . S
C243 C235 1.433 . S
C243 N245 1.384 . S
N244 C240 1.427 . S
N244 C241 1.384 . S
N245 C237 1.427 . S
N245 C243 1.384 . S
H246 C252 0.930 . S
H247 C256 0.930 . S
H248 C261 0.929 . S
H249 C259 0.929 . S
H250 C254 0.929 . S
H251 C260 0.929 . S
C252 H246 0.930 . S
C252 C253 1.367 . S
C252 C260 1.378 . S
C253 C252 1.367 . S
C253 C261 1.433 . S
C254 H250 0.929 . S
C254 C256 1.378 . S
C254 C258 1.350 . S
C255 C258 1.463 1_556 S
C255 C260 1.350 . S
C255 N263 1.427 . S
C256 H247 0.930 . S
C256 C254 1.378 . S
C256 C257 1.367 . S
C257 C256 1.367 . S
C257 C259 1.433 . S
C258 C254 1.350 . S
C258 C255 1.463 1_554 S
C258 N262 1.427 . S
C259 H249 0.929 . S
C259 C257 1.433 . S
C259 N262 1.384 . S
C260 H251 0.929 . S
C260 C252 1.378 . S
C260 C255 1.350 . S
C261 H248 0.929 . S
C261 C253 1.433 . S
C261 N263 1.384 . S
N262 C258 1.427 . S
N262 C259 1.384 . S
N263 C255 1.427 . S
N263 C261 1.384 . S
H264 C270 0.930 . S
H265 C274 0.930 . S
H266 C279 0.929 . S
H267 C277 0.929 . S
H268 C272 0.929 . S
H269 C278 0.929 . S
C270 H264 0.930 . S
C270 C271 1.367 . S
C270 C278 1.378 . S
C271 C270 1.367 . S
C271 C279 1.433 . S
C272 H268 0.929 . S
C272 C274 1.378 . S
C272 C276 1.350 . S
C273 C276 1.463 . S
C273 C278 1.350 . S
C273 N281 1.427 . S
C274 H265 0.930 . S
C274 C272 1.378 . S
C274 C275 1.367 . S
C275 C274 1.367 . S
C275 C277 1.433 . S
C276 C272 1.350 . S
C276 C273 1.463 . S
C276 N280 1.427 . S
C277 H267 0.929 . S
C277 C275 1.433 . S
C277 N280 1.384 . S
C278 H269 0.929 . S
C278 C270 1.378 . S
C278 C273 1.350 . S
C279 H266 0.929 . S
C279 C271 1.433 . S
C279 N281 1.384 . S
N280 C276 1.427 . S
N280 C277 1.384 . S
N281 C273 1.427 . S
N281 C279 1.384 . S
H282 C288 0.930 . S
H283 C292 0.930 . S
H284 C297 0.929 . S
H285 C295 0.929 . S
H286 C290 0.929 . S
H287 C296 0.929 . S
C288 H282 0.930 . S
C288 C289 1.367 . S
C288 C296 1.378 . S
C289 C288 1.367 . S
C289 C297 1.433 . S
C290 H286 0.929 . S
C290 C292 1.378 . S
C290 C294 1.350 . S
C291 C294 1.463 . S
C291 C296 1.350 . S
C291 N299 1.427 . S
C292 H283 0.930 . S
C292 C290 1.378 . S
C292 C293 1.367 . S
C293 C292 1.367 . S
C293 C295 1.433 . S
C294 C290 1.350 . S
C294 C291 1.463 . S
C294 N298 1.427 . S
C295 H285 0.929 . S
C295 C293 1.433 . S
C295 N298 1.384 . S
C296 H287 0.929 . S
C296 C288 1.378 . S
C296 C291 1.350 . S
C297 H284 0.929 . S
C297 C289 1.433 . S
C297 N299 1.384 . S
N298 C294 1.427 . S
N298 C295 1.384 . S
N299 C291 1.427 . S
N299 C297 1.384 . S
H300 C306 0.930 . S
H301 C310 0.930 . S
H302 C315 0.929 . S
H303 C313 0.929 . S
H304 C308 0.929 . S
H305 C314 0.950 . S
C306 H300 0.930 . S
C306 C307 1.367 . S
C306 C314 1.378 . S
C307 C306 1.367 . S
C307 C315 1.433 . S
C308 H304 0.929 . S
C308 C310 1.378 . S
C308 C312 1.350 . S
C309 C312 1.463 1_556 S
C309 C314 1.350 . S
C309 N317 1.427 . S
C310 H301 0.930 . S
C310 C308 1.378 . S
C310 C311 1.367 . S
C311 C310 1.367 . S
C311 C313 1.433 . S
C312 C308 1.350 . S
C312 C309 1.463 1_554 S
C312 N316 1.427 . S
C313 H303 0.929 . S
C313 C311 1.433 . S
C313 N316 1.384 . S
C314 H305 0.950 . S
C314 C306 1.378 . S
C314 C309 1.350 . S
C315 H302 0.929 . S
C315 C307 1.433 . S
C315 N317 1.384 . S
N316 C312 1.427 . S
N316 C313 1.384 . S
N317 C309 1.427 . S
N317 C315 1.384 . S
H318 C324 0.930 . S
H319 C328 0.930 . S
H320 C333 0.929 . S
H321 C331 0.929 . S
H322 C326 0.929 . S
H323 C332 0.929 . S
C324 H318 0.930 . S
C324 C325 1.367 . S
C324 C332 1.378 . S
C325 C324 1.367 . S
C325 C333 1.433 . S
C326 H322 0.929 . S
C326 C328 1.378 . S
C326 C330 1.350 . S
C327 C330 1.463 . S
C327 C332 1.350 . S
C327 N335 1.427 . S
C328 H319 0.930 . S
C328 C326 1.378 . S
C328 C329 1.367 . S
C329 C328 1.367 . S
C329 C331 1.433 . S
C330 C326 1.350 . S
C330 C327 1.463 . S
C330 N334 1.427 . S
C331 H321 0.929 . S
C331 C329 1.433 . S
C331 N334 1.384 . S
C332 H323 0.929 . S
C332 C324 1.378 . S
C332 C327 1.350 . S
C333 H320 0.929 . S
C333 C325 1.433 . S
C333 N335 1.384 . S
N334 C330 1.427 . S
N334 C331 1.384 . S
N335 C327 1.427 . S
N335 C333 1.384 . S
H336 C342 0.930 . S
H337 C346 0.930 . S
H338 C351 0.929 . S
H339 C349 0.929 . S
H340 C344 0.929 . S
H341 C350 0.929 . S
C342 H336 0.930 . S
C342 C343 1.367 . S
C342 C350 1.378 . S
C343 C342 1.367 . S
C343 C351 1.433 . S
C344 H340 0.929 . S
C344 C346 1.378 . S
C344 C348 1.350 . S
C345 C348 1.463 . S
C345 C350 1.350 . S
C345 N353 1.427 . S
C346 H337 0.930 . S
C346 C344 1.378 . S
C346 C347 1.367 . S
C347 C346 1.367 . S
C347 C349 1.433 . S
C348 C344 1.350 . S
C348 C345 1.463 . S
C348 N352 1.427 . S
C349 H339 0.929 . S
C349 C347 1.433 . S
C349 N352 1.384 . S
C350 H341 0.929 . S
C350 C342 1.378 . S
C350 C345 1.350 . S
C351 H338 0.929 . S
C351 C343 1.433 . S
C351 N353 1.384 . S
N352 C348 1.427 . S
N352 C349 1.384 . S
N353 C345 1.427 . S
N353 C351 1.384 . S
C145 N12 1.475 . S
C149 N81 1.467 . S
C163 C39 1.702 . S
C167 C108 1.703 . S
C181 N58 1.343 . S
C185 N127 1.353 . S
C199 C30 1.780 . S
C203 C99 1.781 . S
C217 N117 1.479 . S
C221 N48 1.485 . S
C235 N71 1.377 . S
C239 N2 1.373 . S
C253 C62 1.843 . S
C257 C7 1.897 . S
C271 C85 1.895 . S
C275 N25 1.821 . S
C289 C53 1.947 . S
C293 N104 1.919 . S
C307 C131 1.857 . S
C311 C76 1.900 . S
C325 N94 1.810 . S
C329 C16 1.890 . S
C343 C122 1.950 . S
C347 N35 1.923 . S
