# Generated by pormake.
# Topology qtz-e, (6)-cn, num edge types: 1
# Building blocks:
#     Node 0, Type 0, BuildingBlock: BETGAK_clean_sbu_0, # of connection points: 6
#     Node 1, Type 0, BuildingBlock: BETGAK_clean_sbu_0, # of connection points: 6
#     Node 2, Type 0, BuildingBlock: BETGAK_clean_sbu_0, # of connection points: 6
#     Node 3, Type 0, BuildingBlock: BETGAK_clean_sbu_0, # of connection points: 6
#     Node 4, Type 0, BuildingBlock: BETGAK_clean_sbu_0, # of connection points: 6
#     Node 5, Type 0, BuildingBlock: BETGAK_clean_sbu_0, # of connection points: 6
#     Edge 6, Type (0, 0), BuildingBlock: XUDNAN_clean_linker_2, # of connection points: 2
#     Edge 7, Type (0, 0), BuildingBlock: XUDNAN_clean_linker_2, # of connection points: 2
#     Edge 8, Type (0, 0), BuildingBlock: XUDNAN_clean_linker_2, # of connection points: 2
#     Edge 9, Type (0, 0), BuildingBlock: XUDNAN_clean_linker_2, # of connection points: 2
#     Edge 10, Type (0, 0), BuildingBlock: XUDNAN_clean_linker_2, # of connection points: 2
#     Edge 11, Type (0, 0), BuildingBlock: XUDNAN_clean_linker_2, # of connection points: 2
#     Edge 12, Type (0, 0), BuildingBlock: XUDNAN_clean_linker_2, # of connection points: 2
#     Edge 13, Type (0, 0), BuildingBlock: XUDNAN_clean_linker_2, # of connection points: 2
#     Edge 14, Type (0, 0), BuildingBlock: XUDNAN_clean_linker_2, # of connection points: 2
#     Edge 15, Type (0, 0), BuildingBlock: XUDNAN_clean_linker_2, # of connection points: 2
#     Edge 16, Type (0, 0), BuildingBlock: XUDNAN_clean_linker_2, # of connection points: 2
#     Edge 17, Type (0, 0), BuildingBlock: XUDNAN_clean_linker_2, # of connection points: 2
#     Edge 18, Type (0, 0), BuildingBlock: XUDNAN_clean_linker_2, # of connection points: 2
#     Edge 19, Type (0, 0), BuildingBlock: XUDNAN_clean_linker_2, # of connection points: 2
#     Edge 20, Type (0, 0), BuildingBlock: XUDNAN_clean_linker_2, # of connection points: 2
#     Edge 21, Type (0, 0), BuildingBlock: XUDNAN_clean_linker_2, # of connection points: 2
#     Edge 22, Type (0, 0), BuildingBlock: XUDNAN_clean_linker_2, # of connection points: 2
#     Edge 23, Type (0, 0), BuildingBlock: XUDNAN_clean_linker_2, # of connection points: 2
# Relax obj value: 0.185
# Max RMSD: 0.209
# Mean RMSD: 0.209
data_MOF--net-qtz-e--node1-BETGAK_clean_sbu_0--edge1-XUDNAN_clean_linker_2
_symmetry_space_group_name_H-M    P1
_symmetry_Int_Tables_number       1
_symmetry_cell_setting            triclinic
loop_
_symmetry_equiv_pos_as_xyz
'x, y, z'
_cell_length_a     25.480872
_cell_length_b     25.421281
_cell_length_c     51.991342
_cell_angle_alpha  90.175061
_cell_angle_beta   89.891331
_cell_angle_gamma 119.81157
loop_
_atom_site_label
_atom_site_type_symbol
_atom_site_fract_x
_atom_site_fract_y
_atom_site_fract_z
_atom_type_partial_charge
La0 La 0.20216 0.51405 0.19287 0.0
La1 La 0.14094 0.39102 0.16642 0.0
C2 C 0.23784 0.61839 0.21066 0.0
C3 C 0.25484 0.6437 0.23667 0.0
C4 C 0.24147 0.60501 0.25784 0.0
C5 C 0.26078 0.62898 0.28243 0.0
C6 C 0.29405 0.69211 0.28629 0.0
C7 C 0.30703 0.73069 0.26498 0.0
C8 C 0.28754 0.70659 0.24035 0.0
C9 C 0.25628 0.44899 0.20016 0.0
C10 C 0.1149 0.39702 0.22454 0.0
C11 C 0.11725 0.30159 0.13744 0.0
C12 C 0.13382 0.29276 0.11076 0.0
C13 C 0.09432 0.28401 0.09025 0.0
C14 C 0.10895 0.27701 0.06499 0.0
C15 C 0.16349 0.27806 0.05924 0.0
C16 C 0.20203 0.2842 0.07987 0.0
C17 C 0.18757 0.29184 0.10529 0.0
C18 C 0.07804 0.44816 0.16983 0.0
C19 C 0.2338 0.50828 0.13474 0.0
O20 O 0.27398 0.60138 0.20034 0.0
O21 O 0.18053 0.57808 0.2073 0.0
O22 O 0.25168 0.48379 0.21722 0.0
O23 O 0.22948 0.45172 0.18041 0.0
O24 O 0.1338 0.45532 0.22074 0.0
O25 O 0.12199 0.36342 0.20675 0.0
O26 O 0.08397 0.32741 0.13916 0.0
O27 O 0.15886 0.32119 0.15545 0.0
O28 O 0.05454 0.38984 0.17171 0.0
O29 O 0.13324 0.47079 0.16525 0.0
O30 O 0.19776 0.44885 0.13553 0.0
O31 O 0.24058 0.54384 0.15457 0.0
H32 H 0.21683 0.55623 0.25528 0.0
H33 H 0.2507 0.59799 0.29835 0.0
H34 H 0.3319 0.77947 0.26737 0.0
H35 H 0.29848 0.73701 0.22415 0.0
H36 H 0.05189 0.28302 0.09369 0.0
H37 H 0.07719 0.2708 0.04986 0.0
H38 H 0.24453 0.2855 0.07627 0.0
H39 H 0.21884 0.29772 0.12059 0.0
La40 La 0.83266 0.33159 0.42558 0.0
La41 La 0.87921 0.25688 0.45157 0.0
C42 C 0.8073 0.40644 0.40638 0.0
C43 C 0.79659 0.41639 0.37933 0.0
C44 C 0.73874 0.4041 0.3717 0.0
C45 C 0.72572 0.40597 0.34572 0.0
C46 C 0.77052 0.42081 0.32687 0.0
C47 C 0.82898 0.43517 0.33458 0.0
C48 C 0.84186 0.43269 0.36051 0.0
C49 C 0.76794 0.21283 0.41644 0.0
C50 C 0.91662 0.29628 0.39479 0.0
C51 C 0.8905 0.18195 0.47938 0.0
C52 C 0.86165 0.14818 0.50339 0.0
C53 C 0.89812 0.15584 0.52488 0.0
C54 C 0.87262 0.12565 0.54799 0.0
C55 C 0.80983 0.08662 0.55022 0.0
C56 C 0.77314 0.07933 0.52872 0.0
C57 C 0.79872 0.10988 0.5056 0.0
C58 C 0.95287 0.376 0.45169 0.0
C59 C 0.7932 0.29192 0.48279 0.0
O60 O 0.76656 0.35465 0.41631 0.0
O61 O 0.86269 0.41993 0.41242 0.0
O62 O 0.78045 0.25496 0.39964 0.0
O63 O 0.79416 0.23928 0.43681 0.0
O64 O 0.90309 0.33934 0.39947 0.0
O65 O 0.90227 0.25142 0.41134 0.0
O66 O 0.92331 0.24077 0.48198 0.0
O67 O 0.85809 0.16664 0.4582 0.0
O68 O 0.97079 0.33657 0.44937 0.0
O69 O 0.8968 0.34785 0.45455 0.0
O70 O 0.81846 0.25752 0.48096 0.0
O71 O 0.79707 0.32891 0.46408 0.0
H72 H 0.70307 0.39138 0.38579 0.0
H73 H 0.68048 0.39551 0.34034 0.0
H74 H 0.86427 0.44643 0.32045 0.0
H75 H 0.88685 0.44196 0.36565 0.0
H76 H 0.9467 0.18519 0.52377 0.0
H77 H 0.90245 0.13181 0.56393 0.0
H78 H 0.72455 0.05015 0.52978 0.0
H79 H 0.76924 0.10339 0.48951 0.0
La80 La 0.51335 0.68274 0.85739 0.0
La81 La 0.6349 0.76987 0.83093 0.0
C82 C 0.43349 0.59273 0.88062 0.0
C83 C 0.42098 0.58897 0.90835 0.0
C84 C 0.42673 0.64003 0.92141 0.0
C85 C 0.42016 0.63932 0.94797 0.0
C86 C 0.4084 0.58778 0.96217 0.0
C87 C 0.40338 0.53677 0.94914 0.0
C88 C 0.40971 0.53743 0.92238 0.0
C89 C 0.54531 0.79689 0.86389 0.0
C90 C 0.63938 0.72938 0.88765 0.0
C91 C 0.71642 0.85476 0.80454 0.0
C92 C 0.72273 0.87312 0.77701 0.0
C93 C 0.71975 0.8341 0.75712 0.0
C94 C 0.72412 0.8516 0.7313 0.0
C95 C 0.7312 0.90847 0.72453 0.0
C96 C 0.73519 0.94782 0.74454 0.0
C97 C 0.73093 0.93031 0.7704 0.0
C98 C 0.5872 0.65135 0.82205 0.0
C99 C 0.50883 0.73413 0.80338 0.0
O100 O 0.42226 0.6305 0.86784 0.0
O101 O 0.48603 0.59829 0.87458 0.0
O102 O 0.49312 0.7516 0.87015 0.0
O103 O 0.58081 0.77576 0.861 0.0
O104 O 0.58147 0.68855 0.88467 0.0
O105 O 0.66979 0.77143 0.86988 0.0
O106 O 0.71622 0.80438 0.81002 0.0
O107 O 0.67557 0.85992 0.81778 0.0
O108 O 0.64484 0.68936 0.82171 0.0
O109 O 0.5612 0.68126 0.82492 0.0
O110 O 0.56741 0.77286 0.80602 0.0
O111 O 0.47936 0.68748 0.81923 0.0
H112 H 0.43671 0.68095 0.91115 0.0
H113 H 0.42328 0.67893 0.95729 0.0
H114 H 0.39505 0.4966 0.95963 0.0
H115 H 0.40665 0.49818 0.91271 0.0
H116 H 0.71362 0.78974 0.76143 0.0
H117 H 0.72204 0.82033 0.71662 0.0
H118 H 0.73963 0.99151 0.74028 0.0
H119 H 0.7332 0.9613 0.78528 0.0
La120 La 0.6842 0.51481 0.09215 0.0
La121 La 0.77139 0.63674 0.11873 0.0
C122 C 0.59421 0.43328 0.06907 0.0
C123 C 0.58743 0.42174 0.04141 0.0
C124 C 0.63425 0.46116 0.02503 0.0
C125 C 0.63128 0.44933 0.99883 0.0
C126 C 0.5818 0.39727 0.98852 0.0
C127 C 0.53406 0.35844 1.0049 0.0
C128 C 0.53691 0.3707 0.03127 0.0
C129 C 0.79862 0.54679 0.08719 0.0
C130 C 0.72972 0.64178 0.06234 0.0
C131 C 0.85776 0.71824 0.14449 0.0
C132 C 0.88587 0.72088 0.16995 0.0
C133 C 0.86604 0.73701 0.19235 0.0
C134 C 0.89247 0.73945 0.21628 0.0
C135 C 0.93969 0.7261 0.21849 0.0
C136 C 0.96001 0.71076 0.19598 0.0
C137 C 0.93358 0.7083 0.17207 0.0
C138 C 0.65346 0.59166 0.12585 0.0
C139 C 0.72995 0.51024 0.14749 0.0
O140 O 0.63582 0.42454 0.07973 0.0
O141 O 0.59838 0.48479 0.07616 0.0
O142 O 0.75382 0.49332 0.08201 0.0
O143 O 0.77705 0.58205 0.08894 0.0
O144 O 0.69043 0.58315 0.06478 0.0
O145 O 0.7708 0.67281 0.08035 0.0
O146 O 0.80284 0.71015 0.14458 0.0
O147 O 0.86464 0.68627 0.1264 0.0
O148 O 0.69211 0.64942 0.12584 0.0
O149 O 0.68235 0.56431 0.12398 0.0
O150 O 0.77143 0.56818 0.14449 0.0
O151 O 0.6846 0.48192 0.13095 0.0
H152 H 0.67398 0.50044 0.03258 0.0
H153 H 0.66819 0.48067 0.98669 0.0
H154 H 0.49559 0.31759 0.99753 0.0
H155 H 0.5006 0.33973 0.04376 0.0
H156 H 0.82971 0.74742 0.19145 0.0
H157 H 0.87484 0.7505 0.23314 0.0
H158 H 0.99684 0.70111 0.19672 0.0
H159 H 0.95068 0.69655 0.15523 0.0
La160 La 0.36899 0.8573 0.52291 0.0
La161 La 0.26573 0.86652 0.49856 0.0
C162 C 0.45803 0.87513 0.54973 0.0
C163 C 0.45568 0.86316 0.57745 0.0
C164 C 0.50737 0.87503 0.59143 0.0
C165 C 0.50229 0.85934 0.61753 0.0
C166 C 0.44538 0.83139 0.6298 0.0
C167 C 0.39426 0.82145 0.61577 0.0
C168 C 0.39936 0.83704 0.58989 0.0
C169 C 0.26288 0.75822 0.52641 0.0
C170 C 0.29996 0.91357 0.55489 0.0
C171 C 0.17188 0.84339 0.4731 0.0
C172 C 0.14936 0.82424 0.44633 0.0
C173 C 0.15916 0.86743 0.4273 0.0
C174 C 0.13639 0.84932 0.40233 0.0
C175 C 0.10278 0.78746 0.39571 0.0
C176 C 0.09278 0.74429 0.41484 0.0
C177 C 0.11565 0.7624 0.43977 0.0
C178 C 0.37538 0.96327 0.49324 0.0
C179 C 0.33918 0.81576 0.46649 0.0
O180 O 0.42713 0.82653 0.53562 0.0
O181 O 0.44692 0.91847 0.54338 0.0
O182 O 0.31411 0.75947 0.52574 0.0
O183 O 0.27273 0.81192 0.52785 0.0
O184 O 0.34869 0.90876 0.55101 0.0
O185 O 0.25551 0.8932 0.53771 0.0
O186 O 0.21778 0.89802 0.47639 0.0
O187 O 0.17677 0.80403 0.4875 0.0
O188 O 0.32546 0.96508 0.49415 0.0
O189 O 0.36117 0.90868 0.49298 0.0
O190 O 0.28651 0.81303 0.47089 0.0
O191 O 0.38478 0.84349 0.48288 0.0
H192 H 0.55117 0.89517 0.58211 0.0
H193 H 0.54246 0.86722 0.62786 0.0
H194 H 0.35008 0.80105 0.62476 0.0
H195 H 0.35885 0.82743 0.5794 0.0
H196 H 0.18443 0.91543 0.43169 0.0
H197 H 0.14583 0.88399 0.38813 0.0
H198 H 0.06637 0.69625 0.41073 0.0
H199 H 0.10641 0.72774 0.45398 0.0
La200 La 0.49547 0.18825 0.7584 0.0
La201 La 0.37296 0.13221 0.78525 0.0
C202 C 0.5965 0.21612 0.73948 0.0
C203 C 0.61891 0.22657 0.7127 0.0
C204 C 0.60044 0.17796 0.69531 0.0
C205 C 0.61665 0.18886 0.6694 0.0
C206 C 0.65134 0.24848 0.66036 0.0
C207 C 0.67175 0.29689 0.67789 0.0
C208 C 0.65592 0.28601 0.70383 0.0
C209 C 0.43437 0.2468 0.7509 0.0
C210 C 0.37701 0.10015 0.72761 0.0
C211 C 0.28675 0.11424 0.81474 0.0
C212 C 0.28029 0.14237 0.83889 0.0
C213 C 0.25566 0.10621 0.86089 0.0
C214 C 0.24887 0.13104 0.88395 0.0
C215 C 0.26609 0.19282 0.88563 0.0
C216 C 0.29152 0.22923 0.86363 0.0
C217 C 0.29881 0.20445 0.8406 0.0
C218 C 0.42728 0.06636 0.78348 0.0
C219 C 0.49255 0.22657 0.81541 0.0
O220 O 0.58345 0.25618 0.74898 0.0
O221 O 0.55544 0.16031 0.74528 0.0
O222 O 0.4685 0.24073 0.73399 0.0
O223 O 0.43593 0.21933 0.7706 0.0
O224 O 0.4349 0.11835 0.73159 0.0
O225 O 0.34401 0.10918 0.74504 0.0
O226 O 0.31776 0.0861 0.81681 0.0
O227 O 0.29909 0.14536 0.79325 0.0
O228 O 0.36912 0.0436 0.78216 0.0
O229 O 0.45087 0.12214 0.78686 0.0
O230 O 0.43284 0.19708 0.81384 0.0
O231 O 0.52717 0.22554 0.79665 0.0
H232 H 0.57207 0.13149 0.70148 0.0
H233 H 0.60029 0.15072 0.6563 0.0
H234 H 0.69954 0.34327 0.67149 0.0
H235 H 0.6713 0.32425 0.71684 0.0
H236 H 0.24117 0.05829 0.86019 0.0
H237 H 0.2285 0.10133 0.90027 0.0
H238 H 0.306 0.27712 0.86421 0.0
H239 H 0.31878 0.2339 0.82417 0.0
H240 H 0.25895 0.72099 0.43705 0.0
H241 H 0.44174 0.8738 0.43762 0.0
H242 H 0.45274 0.85628 0.39156 0.0
H243 H 0.29443 0.62789 0.38967 0.0
H244 H 0.22013 0.59599 0.37561 0.0
H245 H 0.2311 0.61562 0.40914 0.0
H246 H 0.18169 0.68298 0.40231 0.0
H247 H 0.17281 0.66426 0.36863 0.0
H248 H 0.21363 0.7426 0.37865 0.0
H249 H 0.43887 0.82876 0.34418 0.0
H250 H 0.40445 0.78793 0.30036 0.0
H251 H 0.23096 0.65321 0.33141 0.0
C252 C 0.3018 0.74963 0.42758 0.0
C253 C 0.34962 0.79851 0.44074 0.0
C254 C 0.40495 0.83553 0.42787 0.0
C255 C 0.41147 0.8261 0.40171 0.0
C256 C 0.36272 0.7786 0.38899 0.0
C257 C 0.30953 0.73993 0.40169 0.0
C258 C 0.26344 0.69345 0.38347 0.0
C259 C 0.25159 0.62947 0.38985 0.0
C260 C 0.20445 0.69609 0.38327 0.0
C261 C 0.29713 0.71467 0.35832 0.0
C262 C 0.3548 0.76298 0.36188 0.0
C263 C 0.39399 0.79048 0.34124 0.0
C264 C 0.37386 0.76732 0.31641 0.0
C265 C 0.31503 0.7173 0.31246 0.0
C266 C 0.27643 0.69095 0.3338 0.0
H267 H 0.68962 0.19064 0.62701 0.0
H268 H 0.64297 0.33305 0.63115 0.0
H269 H 0.66703 0.35472 0.58504 0.0
H270 H 0.81481 0.26645 0.5861 0.0
H271 H 0.80081 0.20025 0.5679 0.0
H272 H 0.77536 0.1924 0.60068 0.0
H273 H 0.66621 0.11642 0.5863 0.0
H274 H 0.69119 0.12396 0.5534 0.0
H275 H 0.63059 0.13803 0.56179 0.0
H276 H 0.70092 0.36449 0.53928 0.0
H277 H 0.74612 0.36402 0.49725 0.0
H278 H 0.76988 0.21482 0.52316 0.0
C279 C 0.68361 0.22573 0.61809 0.0
C280 C 0.66461 0.26032 0.6326 0.0
C281 C 0.65822 0.30657 0.62041 0.0
C282 C 0.67121 0.31882 0.59421 0.0
C283 C 0.69029 0.28424 0.5805 0.0
C284 C 0.69648 0.23861 0.59198 0.0
C285 C 0.72086 0.21033 0.57322 0.0
C286 C 0.78156 0.21787 0.58253 0.0
C287 C 0.67441 0.14321 0.5684 0.0
C288 C 0.72888 0.2484 0.54965 0.0
C289 C 0.71021 0.29016 0.55411 0.0
C290 C 0.71529 0.3317 0.53544 0.0
C291 C 0.74102 0.33112 0.51165 0.0
C292 C 0.76169 0.2896 0.50694 0.0
C293 C 0.75457 0.24722 0.52612 0.0
H294 H 0.21887 0.45019 0.08912 0.0
H295 H 0.32985 0.62358 0.12694 0.0
H296 H 0.39217 0.66218 0.08744 0.0
H297 H 0.34099 0.44737 0.05419 0.0
H298 H 0.29234 0.4098 0.02712 0.0
H299 H 0.2612 0.39894 0.0591 0.0
H300 H 0.18602 0.43256 0.04231 0.0
H301 H 0.21969 0.44651 1.01079 0.0
H302 H 0.21593 0.50633 0.02784 0.0
H303 H 0.44192 0.68041 0.04307 0.0
H304 H 0.46938 0.67934 0.99749 0.0
H305 H 0.32257 0.49378 0.99016 0.0
C306 C 0.25617 0.49641 0.08925 0.0
C307 C 0.26937 0.53401 0.11107 0.0
C308 C 0.3186 0.59417 0.1103 0.0
C309 C 0.35448 0.61627 0.08806 0.0
C310 C 0.34035 0.57748 0.06695 0.0
C311 C 0.29213 0.51896 0.06744 0.0
C312 C 0.28503 0.48641 0.04228 0.0
C313 C 0.29554 0.43239 0.04585 0.0
C314 C 0.22299 0.4668 0.03009 0.0
C315 C 0.33573 0.53607 0.02715 0.0
C316 C 0.36797 0.58805 0.04172 0.0
C317 C 0.41678 0.63996 0.03153 0.0
C318 C 0.43186 0.63894 1.00562 0.0
C319 C 0.39783 0.58652 0.99023 0.0
C320 C 0.35 0.53426 1.00143 0.0
H321 H 0.83662 0.50627 0.29055 0.0
H322 H 0.67175 0.3341 0.30086 0.0
H323 H 0.64734 0.33351 0.25479 0.0
H324 H 0.77509 0.56972 0.24891 0.0
H325 H 0.84093 0.60849 0.22879 0.0
H326 H 0.8492 0.59404 0.26199 0.0
H327 H 0.90659 0.53889 0.24874 0.0
H328 H 0.89953 0.55205 0.21515 0.0
H329 H 0.87263 0.47603 0.22668 0.0
H330 H 0.6392 0.3542 0.20784 0.0
H331 H 0.64458 0.3976 0.16479 0.0
H332 H 0.81486 0.55622 0.18573 0.0
C333 C 0.79581 0.46803 0.28302 0.0
C334 C 0.75611 0.42016 0.29921 0.0
C335 C 0.70252 0.37148 0.28879 0.0
C336 C 0.68857 0.3705 0.26262 0.0
C337 C 0.72867 0.41853 0.24718 0.0
C338 C 0.78103 0.46651 0.25705 0.0
C339 C 0.81477 0.51423 0.23683 0.0
C340 C 0.82032 0.57522 0.24463 0.0
C341 C 0.87709 0.52071 0.23152 0.0
C342 C 0.77267 0.4863 0.21414 0.0
C343 C 0.72367 0.4307 0.22035 0.0
C344 C 0.6776 0.39752 0.20271 0.0
C345 C 0.68108 0.42252 0.17829 0.0
C346 C 0.73001 0.48035 0.17186 0.0
C347 C 0.7768 0.51188 0.18996 0.0
H348 H 0.55072 0.83423 0.77333 0.0
H349 H 0.40139 0.65014 0.78098 0.0
H350 H 0.36211 0.65934 0.73867 0.0
H351 H 0.46479 0.89656 0.73696 0.0
H352 H 0.53192 0.94462 0.71876 0.0
H353 H 0.53827 0.92498 0.75145 0.0
H354 H 0.60869 0.88591 0.73466 0.0
H355 H 0.59918 0.90245 0.70197 0.0
H356 H 0.58116 0.82662 0.71076 0.0
H357 H 0.34831 0.68393 0.69311 0.0
H358 H 0.35819 0.72253 0.64885 0.0
H359 H 0.51716 0.8907 0.67139 0.0
C360 C 0.50908 0.79606 0.76638 0.0
C361 C 0.47919 0.74123 0.78034 0.0
C362 C 0.42475 0.69263 0.77065 0.0
C363 C 0.40218 0.69751 0.74665 0.0
C364 C 0.43418 0.75158 0.73295 0.0
C365 C 0.48593 0.80034 0.74269 0.0
C366 C 0.51462 0.85178 0.72354 0.0
C367 C 0.51223 0.90776 0.73328 0.0
C368 C 0.57979 0.86758 0.71732 0.0
C369 C 0.47315 0.82304 0.7008 0.0
C370 C 0.42625 0.76577 0.70677 0.0
C371 C 0.38411 0.72913 0.6884 0.0
C372 C 0.39013 0.7515 0.66332 0.0
C373 C 0.43831 0.80977 0.65673 0.0
C374 C 0.47997 0.84601 0.67585 0.0
H375 H 0.48613 0.34985 0.9549 0.0
H376 H 0.67768 0.409 0.96031 0.0
H377 H 0.6778 0.38032 0.91506 0.0
H378 H 0.447 0.21929 0.919 0.0
H379 H 0.39135 0.22367 0.89924 0.0
H380 H 0.40677 0.2559 0.93105 0.0
H381 H 0.43057 0.35957 0.91278 0.0
H382 H 0.41547 0.32889 0.88064 0.0
H383 H 0.48708 0.39481 0.888 0.0
H384 H 0.6559 0.33847 0.87038 0.0
H385 H 0.61216 0.28372 0.82963 0.0
H386 H 0.43487 0.24964 0.85423 0.0
C387 C 0.52816 0.35709 0.94653 0.0
C388 C 0.58197 0.38218 0.96105 0.0
C389 C 0.63613 0.39106 0.94938 0.0
C390 C 0.63668 0.37473 0.92372 0.0
C391 C 0.58275 0.3496 0.91002 0.0
C392 C 0.52948 0.34082 0.92098 0.0
C393 C 0.47694 0.30932 0.9026 0.0
C394 C 0.42764 0.24845 0.91364 0.0
C395 C 0.45101 0.35063 0.8956 0.0
C396 C 0.50879 0.30018 0.87993 0.0
C397 C 0.56991 0.32447 0.88439 0.0
C398 C 0.60815 0.31962 0.86652 0.0
C399 C 0.58296 0.28842 0.84349 0.0
C400 C 0.52019 0.26218 0.83884 0.0
C401 C 0.48305 0.26899 0.85721 0.0
H402 H 0.36304 0.55274 0.2009 0.0
H403 H 0.2803 0.35999 0.18603 0.0
H404 H 0.3759 0.3765 0.16624 0.0
H405 H 0.43116 0.59508 0.1415 0.0
H406 H 0.49839 0.66235 0.15211 0.0
H407 H 0.42884 0.63508 0.16977 0.0
H408 H 0.48103 0.62941 0.21161 0.0
H409 H 0.55134 0.65844 0.1943 0.0
H410 H 0.52144 0.58794 0.21158 0.0
H411 H 0.47564 0.41503 0.14491 0.0
H412 H 0.57557 0.47129 0.12483 0.0
H413 H 0.59105 0.64145 0.14991 0.0
C414 C 0.36626 0.51367 0.19474 0.0
C415 C 0.31561 0.45462 0.19598 0.0
C416 C 0.31966 0.40499 0.18615 0.0
C417 C 0.37342 0.41418 0.17465 0.0
C418 C 0.42175 0.47341 0.17276 0.0
C419 C 0.41882 0.52233 0.18264 0.0
C420 C 0.47428 0.58189 0.1755 0.0
C421 C 0.45712 0.62087 0.15873 0.0
C422 C 0.50909 0.61645 0.19969 0.0
C423 C 0.50929 0.5589 0.16014 0.0
C424 C 0.478 0.49618 0.15891 0.0
C425 C 0.50053 0.46406 0.14578 0.0
C426 C 0.55723 0.49667 0.13418 0.0
C427 C 0.59075 0.56088 0.13545 0.0
C428 C 0.56607 0.5925 0.14833 0.0
H429 H 0.25275 0.65665 0.50528 0.0
H430 H 0.14591 0.73778 0.52942 0.0
H431 H 0.05414 0.64992 0.51086 0.0
H432 H 0.17905 0.59823 0.44664 0.0
H433 H 0.18408 0.52991 0.44791 0.0
H434 H 0.24038 0.59785 0.46372 0.0
H435 H 0.21791 0.54132 0.50737 0.0
H436 H 0.1627 0.47261 0.49176 0.0
H437 H 0.14127 0.50125 0.51921 0.0
H438 H 0.97577 0.5542 0.48767 0.0
H439 H 0.91523 0.4548 0.46633 0.0
H440 H 0.07544 0.43723 0.45904 0.0
C441 C 0.20997 0.6558 0.507 0.0
C442 C 0.20632 0.70447 0.5182 0.0
C443 C 0.14956 0.70142 0.52026 0.0
C444 C 0.09743 0.65173 0.50989 0.0
C445 C 0.10317 0.60534 0.49812 0.0
C446 C 0.15793 0.60663 0.49713 0.0
C447 C 0.15285 0.55172 0.48352 0.0
C448 C 0.19149 0.5705 0.45899 0.0
C449 C 0.16966 0.51452 0.50155 0.0
C450 C 0.08635 0.5185 0.4771 0.0
C451 C 0.05847 0.55038 0.4854 0.0
C452 C 0.99715 0.52883 0.48127 0.0
C453 C 0.96329 0.47254 0.469 0.0
C454 C 0.99084 0.43846 0.46114 0.0
C455 C 0.05332 0.46237 0.46483 0.0
H456 H 0.37724 0.94524 0.79309 0.0
H457 H 0.54852 0.11313 0.78971 0.0
H458 H 0.60137 0.06029 0.8052 0.0
H459 H 0.40881 0.90352 0.85238 0.0
H460 H 0.36863 0.82326 0.84577 0.0
H461 H 0.34634 0.87203 0.83011 0.0
H462 H 0.35769 0.83184 0.78641 0.0
H463 H 0.38368 0.7846 0.80096 0.0
H464 H 0.42918 0.83996 0.77715 0.0
H465 H 0.63377 0.99131 0.82702 0.0
H466 H 0.64068 0.91181 0.85229 0.0
H467 H 0.44798 0.79226 0.8414 0.0
C468 C 0.42606 0.97032 0.79479 0.0
C469 C 0.45899 0.03273 0.78948 0.0
C470 C 0.52262 0.06473 0.79289 0.0
C471 C 0.55308 0.0352 0.80185 0.0
C472 C 0.51913 0.97378 0.80762 0.0
C473 C 0.45693 0.94182 0.80424 0.0
C474 C 0.42973 0.87847 0.81484 0.0
C475 C 0.38583 0.86882 0.83709 0.0
C476 C 0.39822 0.83084 0.79359 0.0
C477 C 0.48625 0.87968 0.82447 0.0
C478 C 0.53758 0.93479 0.8203 0.0
C479 C 0.59403 0.94738 0.82988 0.0
C480 C 0.59775 0.9022 0.84413 0.0
C481 C 0.54538 0.84562 0.84844 0.0
C482 C 0.48933 0.8348 0.83833 0.0
H483 H 0.63352 0.58645 0.79724 0.0
H484 H 0.46695 0.57443 0.82466 0.0
H485 H 0.4083 0.47259 0.80597 0.0
H486 H 0.57418 0.51194 0.73681 0.0
H487 H 0.61542 0.47132 0.73664 0.0
H488 H 0.64593 0.54304 0.75312 0.0
H489 H 0.65343 0.49354 0.79553 0.0
H490 H 0.62449 0.42221 0.77893 0.0
H491 H 0.58726 0.42723 0.80756 0.0
H492 H 0.36724 0.37041 0.78587 0.0
H493 H 0.34818 0.27318 0.76657 0.0
H494 H 0.53887 0.35369 0.74873 0.0
C495 C 0.58484 0.56192 0.79955 0.0
C496 C 0.55491 0.58809 0.8127 0.0
C497 C 0.49101 0.55502 0.81499 0.0
C498 C 0.45709 0.49722 0.80425 0.0
C499 C 0.48754 0.47308 0.79092 0.0
C500 C 0.54993 0.50405 0.78859 0.0
C501 C 0.57103 0.46724 0.77325 0.0
C502 C 0.60356 0.50038 0.74848 0.0
C503 C 0.61142 0.45163 0.78981 0.0
C504 C 0.51083 0.41123 0.76733 0.0
C505 C 0.46323 0.41535 0.77784 0.0
C506 C 0.40388 0.36704 0.77696 0.0
C507 C 0.39322 0.31231 0.76573 0.0
C508 C 0.44146 0.30708 0.75512 0.0
C509 C 0.50068 0.35761 0.75546 0.0
H510 H 0.95588 0.39831 0.1653 0.0
H511 H 0.12464 0.56824 0.15934 0.0
H512 H 0.06994 0.61766 0.14181 0.0
H513 H 0.89975 0.40857 0.10726 0.0
H514 H 0.82181 0.37465 0.11717 0.0
H515 H 0.87213 0.35596 0.13375 0.0
H516 H 0.84723 0.38945 0.17713 0.0
H517 H 0.79606 0.40756 0.16065 0.0
H518 H 0.85657 0.46423 0.17991 0.0
H519 H 0.99809 0.64396 0.11835 0.0
H520 H 0.9149 0.64402 0.09326 0.0
H521 H 0.79592 0.45705 0.11546 0.0
C522 C 0.98094 0.44637 0.16111 0.0
C523 C 0.04418 0.47958 0.16381 0.0
C524 C 0.07587 0.54213 0.15761 0.0
C525 C 0.04523 0.57061 0.14762 0.0
C526 C 0.98292 0.53595 0.14414 0.0
C527 C 0.95113 0.47529 0.15101 0.0
C528 C 0.88573 0.44624 0.14299 0.0
C529 C 0.86894 0.39328 0.12418 0.0
C530 C 0.84387 0.42561 0.16658 0.0
C531 C 0.88614 0.4993 0.12982 0.0
C532 C 0.94214 0.55102 0.13081 0.0
C533 C 0.9536 0.60406 0.11798 0.0
C534 C 0.90635 0.60389 0.10384 0.0
C535 C 0.84899 0.55101 0.10271 0.0
C536 C 0.83921 0.49854 0.11603 0.0
H537 H 0.49212 0.9974 0.50388 0.0
H538 H 0.37829 0.02367 0.44967 0.0
H539 H 0.46593 0.07826 0.42047 0.0
H540 H 0.62515 0.14696 0.49418 0.0
H541 H 0.67666 0.11851 0.49856 0.0
H542 H 0.60443 0.08213 0.51446 0.0
H543 H 0.58208 0.98014 0.49372 0.0
H544 H 0.65332 0.01701 0.47691 0.0
H545 H 0.58382 0.97421 0.4592 0.0
H546 H 0.56486 0.12574 0.39653 0.0
H547 H 0.67239 0.18424 0.38407 0.0
H548 H 0.72216 0.12966 0.45468 0.0
C549 C 0.48618 0.01594 0.48612 0.0
C550 C 0.42907 0.00733 0.47905 0.0
C551 C 0.42226 0.03121 0.45557 0.0
C552 C 0.47144 0.06126 0.43873 0.0
C553 C 0.52692 0.06734 0.44588 0.0
C554 C 0.53499 0.04702 0.46937 0.0
C555 C 0.60003 0.06257 0.47316 0.0
C556 C 0.62822 0.10509 0.49645 0.0
C557 C 0.60507 0.00504 0.4759 0.0
C558 C 0.6273 0.09473 0.44806 0.0
C559 C 0.58417 0.09593 0.43237 0.0
C560 C 0.59909 0.12522 0.40865 0.0
C561 C 0.66028 0.15775 0.40158 0.0
C562 C 0.7056 0.16147 0.41845 0.0
C563 C 0.6884 0.12684 0.44127 0.0
H564 H 0.28047 0.16924 0.93659 0.0
H565 H 0.22431 0.27322 0.88948 0.0
H566 H 0.19838 0.31036 0.92862 0.0
H567 H 0.16471 0.12158 0.98322 0.0
H568 H 0.21174 0.12868 1.01036 0.0
H569 H 0.23072 0.11376 0.97882 0.0
H570 H 0.33721 0.20868 0.98246 0.0
H571 H 0.31866 0.2238 1.0141 0.0
H572 H 0.34408 0.28128 0.98957 0.0
H573 H 0.17014 0.32959 0.97235 0.0
H574 H 0.14542 0.33325 1.01777 0.0
H575 H 0.22055 0.2185 0.03789 0.0
C576 C 0.263 0.20007 0.9345 0.0
C577 C 0.25464 0.21827 0.90973 0.0
C578 C 0.23212 0.25916 0.90805 0.0
C579 C 0.2169 0.28033 0.93024 0.0
C580 C 0.22484 0.26085 0.95421 0.0
C581 C 0.24794 0.22215 0.95656 0.0
C582 C 0.25067 0.20733 0.98472 0.0
C583 C 0.21216 0.13876 0.98956 0.0
C584 C 0.31657 0.23172 0.99322 0.0
C585 C 0.22337 0.24194 0.99773 0.0
C586 C 0.20928 0.27279 0.97968 0.0
C587 C 0.1814 0.30594 0.98664 0.0
C588 C 0.16712 0.30738 1.01261 0.0
C589 C 0.18078 0.27619 0.0317 0.0
C590 C 0.21001 0.24351 0.02399 0.0
H591 H 0.96849 0.39159 0.36118 0.0
H592 H 0.9355 0.20844 0.37222 0.0
H593 H 0.983 0.2136 0.32992 0.0
H594 H 0.93712 0.38041 0.29446 0.0
H595 H 0.99593 0.45653 0.28726 0.0
H596 H 0.96138 0.43894 0.31862 0.0
H597 H 0.06626 0.4802 0.33993 0.0
H598 H 0.10156 0.49851 0.30871 0.0
H599 H 0.11449 0.45058 0.33018 0.0
H600 H 0.0315 0.2387 0.28491 0.0
H601 H 0.07988 0.28251 0.24304 0.0
H602 H 0.0818 0.44949 0.26279 0.0
C603 C 0.97137 0.35246 0.35487 0.0
C604 C 0.94801 0.29944 0.37012 0.0
C605 C 0.95315 0.24961 0.36099 0.0
C606 C 0.97995 0.25212 0.33693 0.0
C607 C 0.00188 0.30495 0.3223 0.0
C608 C 0.99828 0.3544 0.33111 0.0
C609 C 0.02503 0.40596 0.3119 0.0
C610 C 0.97699 0.42132 0.3025 0.0
C611 C 0.0801 0.46211 0.32337 0.0
C612 C 0.04377 0.37775 0.29067 0.0
C613 C 0.03009 0.31947 0.29692 0.0
C614 C 0.04261 0.2844 0.27995 0.0
C615 C 0.07001 0.30965 0.25615 0.0
C616 C 0.0849 0.36954 0.24949 0.0
C617 C 0.07136 0.40366 0.26715 0.0
H618 H 0.7969 0.0217 0.7016 0.0
H619 H 0.66691 0.83373 0.68415 0.0
H620 H 0.66757 0.86039 0.63869 0.0
H621 H 0.73523 0.0879 0.65585 0.0
H622 H 0.80888 0.14948 0.64739 0.0
H623 H 0.79568 0.11672 0.67909 0.0
H624 H 0.88453 0.09563 0.67289 0.0
H625 H 0.89802 0.12837 0.64125 0.0
H626 H 0.88471 0.05232 0.64539 0.0
H627 H 0.68452 0.90646 0.59449 0.0
H628 H 0.7214 0.96742 0.55487 0.0
H629 H 0.83962 0.12583 0.60055 0.0
C630 C 0.76786 0.98616 0.68836 0.0
C631 C 0.73188 0.92538 0.69681 0.0
C632 C 0.69566 0.88042 0.67844 0.0
C633 C 0.69516 0.89523 0.65248 0.0
C634 C 0.73119 0.95531 0.64488 0.0
C635 C 0.76694 1.00012 0.66227 0.0
C636 C 0.80342 0.06079 0.64882 0.0
C637 C 0.78468 0.10641 0.65836 0.0
C638 C 0.87171 0.08571 0.6523 0.0
C639 C 0.78413 0.04259 0.6211 0.0
C640 C 0.74155 0.98177 0.61932 0.0
C641 C 0.71764 0.95423 0.59569 0.0
C642 C 0.73864 0.9894 0.57324 0.0
C643 C 0.78358 0.05153 0.57444 0.0
C644 C 0.80572 0.07838 0.59886 0.0
H645 H 0.58904 0.64454 0.92583 0.0
H646 H 0.75279 0.81213 0.9072 0.0
H647 H 0.79398 0.81108 0.95039 0.0
H648 H 0.57928 0.67976 0.99151 0.0
H649 H 0.55051 0.60287 1.00223 0.0
H650 H 0.53586 0.6174 0.96993 0.0
H651 H 0.58324 0.55528 0.95165 0.0
H652 H 0.59663 0.54004 0.98401 0.0
H653 H 0.65849 0.57422 0.96146 0.0
H654 H 0.81557 0.79065 0.99751 0.0
H655 H 0.81712 0.75049 0.04087 0.0
H656 H 0.63843 0.59704 0.02679 0.0
C657 C 0.63383 0.68116 0.93056 0.0
C658 C 0.66762 0.72852 0.91283 0.0
C659 C 0.72596 0.77519 0.92023 0.0
C660 C 0.74961 0.77502 0.94483 0.0
C661 C 0.71449 0.72786 0.96189 0.0
C662 C 0.6579 0.68162 0.95483 0.0
C663 C 0.62847 0.6359 0.9763 0.0
C664 C 0.57011 0.6339 0.98555 0.0
C665 C 0.61605 0.57265 0.96783 0.0
C666 C 0.67748 0.66294 0.99662 0.0
C667 C 0.7267 0.71625 0.98823 0.0
C668 C 0.77714 0.74888 1.00411 0.0
C669 C 0.77757 0.72591 0.02882 0.0
C670 C 0.72806 0.67051 0.03745 0.0
C671 C 0.67732 0.63943 1.02099 0.0
H672 H 0.05601 0.83907 0.36253 0.0
H673 H 0.09402 0.69093 0.36811 0.0
H674 H 0.05728 0.65982 0.32386 0.0
H675 H 0.91845 0.75675 0.3256 0.0
H676 H 0.93223 0.82131 0.3064 0.0
H677 H 0.96179 0.83227 0.33862 0.0
H678 H 0.06981 0.90368 0.32133 0.0
H679 H 0.04058 0.89295 0.28906 0.0
H680 H 0.10033 0.87698 0.29647 0.0
H681 H 0.01886 0.64619 0.27832 0.0
H682 H 0.97755 0.64838 0.23582 0.0
H683 H 0.96255 0.80422 0.25964 0.0
C684 C 0.0572 0.80041 0.35443 0.0
C685 C 0.07892 0.76803 0.36896 0.0
C686 C 0.078 0.71676 0.3576 0.0
C687 C 0.05722 0.6987 0.33235 0.0
C688 C 0.0367 0.73189 0.3186 0.0
C689 C 0.03607 0.7814 0.32928 0.0
C690 C 0.01078 0.80865 0.31042 0.0
C691 C 0.95234 0.80448 0.32089 0.0
C692 C 0.05822 0.87447 0.30394 0.0
C693 C 0.99792 0.76712 0.2874 0.0
C694 C 0.01333 0.72323 0.29253 0.0
C695 C 0.0065 0.68029 0.27414 0.0
C696 C 0.98317 0.68211 0.24993 0.0
C697 C 0.96619 0.72615 0.2442 0.0
C698 C 0.97401 0.76926 0.26336 0.0
H699 H 0.43027 0.06423 0.69123 0.0
H700 H 0.26373 0.06564 0.70708 0.0
H701 H 0.22377 0.01781 0.66449 0.0
H702 H 0.44087 0.10129 0.62509 0.0
H703 H 0.4712 0.05316 0.61608 0.0
H704 H 0.48445 0.08549 0.64787 0.0
H705 H 0.43807 0.97792 0.66785 0.0
H706 H 0.42579 0.94609 0.63601 0.0
H707 H 0.3634 0.92011 0.65819 0.0
H708 H 0.20397 0.97041 0.61818 0.0
H709 H 0.20639 0.92786 0.5753 0.0
H710 H 0.38691 0.96017 0.59206 0.0
C711 C 0.38518 0.05444 0.68598 0.0
C712 C 0.35023 0.06895 0.70268 0.0
C713 C 0.29143 0.05492 0.69475 0.0
C714 C 0.26843 0.02781 0.67053 0.0
C715 C 0.3046 0.01471 0.65447 0.0
C716 C 0.36169 0.02743 0.66212 0.0
C717 C 0.3925 0.00991 0.64167 0.0
C718 C 0.45067 0.06579 0.63211 0.0
C719 C 0.40565 0.96057 0.65153 0.0
C720 C 0.3441 0.9854 0.62112 0.0
C721 C 0.29354 0.98828 0.62861 0.0
C722 C 0.24346 0.968 0.61227 0.0
C723 C 0.24521 0.94398 0.58789 0.0
C724 C 0.2967 0.94046 0.58006 0.0
C725 C 0.34653 0.96186 0.59712 0.0
loop_
_geom_bond_atom_site_label_1
_geom_bond_atom_site_label_2
_geom_bond_distance
_geom_bond_site_symmetry_2
_ccdc_geom_bond_type
La0 C2 2.928 . S
La0 O20 2.521 . S
La0 O21 2.628 . S
La0 O22 2.554 . S
La0 O23 2.757 . S
La0 O24 2.470 . S
La0 O29 2.482 . S
La0 O31 2.503 . S
La1 C11 2.928 . S
La1 O23 2.482 . S
La1 O25 2.503 . S
La1 O26 2.521 . S
La1 O27 2.628 . S
La1 O28 2.567 . S
La1 O29 2.757 . S
La1 O30 2.470 . S
C2 La0 2.928 . S
C2 C3 1.503 . S
C2 O20 1.261 . S
C2 O21 1.243 . S
C3 C2 1.503 . S
C3 C4 1.394 . S
C3 C8 1.373 . S
C4 C3 1.394 . S
C4 C5 1.380 . S
C4 H32 0.930 . S
C5 C4 1.380 . S
C5 C6 1.376 . S
C5 H33 0.930 . S
C6 C5 1.376 . S
C6 C7 1.370 . S
C7 C6 1.370 . S
C7 C8 1.396 . S
C7 H34 0.929 . S
C8 C3 1.373 . S
C8 C7 1.396 . S
C8 H35 0.929 . S
C9 O22 1.240 . S
C9 O23 1.289 . S
C10 O24 1.258 . S
C10 O25 1.256 . S
C11 La1 2.928 . S
C11 C12 1.503 . S
C11 O26 1.261 . S
C11 O27 1.243 . S
C12 C11 1.503 . S
C12 C13 1.394 . S
C12 C17 1.373 . S
C13 C12 1.394 . S
C13 C14 1.380 . S
C13 H36 0.930 . S
C14 C13 1.380 . S
C14 C15 1.376 . S
C14 H37 0.930 . S
C15 C14 1.376 . S
C15 C16 1.370 . S
C16 C15 1.370 . S
C16 C17 1.396 . S
C16 H38 0.929 . S
C17 C12 1.373 . S
C17 C16 1.396 . S
C17 H39 0.929 . S
C18 O28 1.239 . S
C18 O29 1.289 . S
C19 O30 1.258 . S
C19 O31 1.256 . S
O20 La0 2.521 . S
O20 C2 1.261 . S
O21 La0 2.628 . S
O21 C2 1.243 . S
O22 La0 2.554 . S
O22 C9 1.240 . S
O23 La0 2.757 . S
O23 La1 2.482 . S
O23 C9 1.289 . S
O24 La0 2.470 . S
O24 C10 1.258 . S
O25 La1 2.503 . S
O25 C10 1.256 . S
O26 La1 2.521 . S
O26 C11 1.261 . S
O27 La1 2.628 . S
O27 C11 1.243 . S
O28 La1 2.567 . S
O28 C18 1.239 . S
O29 La0 2.482 . S
O29 La1 2.757 . S
O29 C18 1.289 . S
O30 La1 2.470 . S
O30 C19 1.258 . S
O31 La0 2.503 . S
O31 C19 1.256 . S
H32 C4 0.930 . S
H33 C5 0.930 . S
H34 C7 0.929 . S
H35 C8 0.929 . S
H36 C13 0.930 . S
H37 C14 0.930 . S
H38 C16 0.929 . S
H39 C17 0.929 . S
La40 C42 2.928 . S
La40 O60 2.521 . S
La40 O61 2.628 . S
La40 O62 2.554 . S
La40 O63 2.757 . S
La40 O64 2.470 . S
La40 O69 2.482 . S
La40 O71 2.503 . S
La41 C51 2.928 . S
La41 O63 2.482 . S
La41 O65 2.503 . S
La41 O66 2.521 . S
La41 O67 2.628 . S
La41 O68 2.554 1_655 S
La41 O69 2.757 . S
La41 O70 2.470 . S
C42 La40 2.928 . S
C42 C43 1.503 . S
C42 O60 1.261 . S
C42 O61 1.243 . S
C43 C42 1.503 . S
C43 C44 1.394 . S
C43 C48 1.373 . S
C44 C43 1.394 . S
C44 C45 1.380 . S
C44 H72 0.930 . S
C45 C44 1.380 . S
C45 C46 1.376 . S
C45 H73 0.930 . S
C46 C45 1.376 . S
C46 C47 1.370 . S
C47 C46 1.370 . S
C47 C48 1.396 . S
C47 H74 0.929 . S
C48 C43 1.373 . S
C48 C47 1.396 . S
C48 H75 0.929 . S
C49 O62 1.240 . S
C49 O63 1.289 . S
C50 O64 1.258 . S
C50 O65 1.256 . S
C51 La41 2.928 . S
C51 C52 1.503 . S
C51 O66 1.261 . S
C51 O67 1.243 . S
C52 C51 1.503 . S
C52 C53 1.394 . S
C52 C57 1.373 . S
C53 C52 1.394 . S
C53 C54 1.380 . S
C53 H76 0.930 1_655 S
C54 C53 1.380 . S
C54 C55 1.376 . S
C54 H77 0.930 1_655 S
C55 C54 1.376 . S
C55 C56 1.370 . S
C56 C55 1.370 . S
C56 C57 1.396 . S
C56 H78 0.929 . S
C57 C52 1.373 . S
C57 C56 1.396 . S
C57 H79 0.929 . S
C58 O68 1.240 . S
C58 O69 1.289 1_455 S
C59 O70 1.258 . S
C59 O71 1.256 . S
O60 La40 2.521 . S
O60 C42 1.261 . S
O61 La40 2.628 . S
O61 C42 1.243 . S
O62 La40 2.554 . S
O62 C49 1.240 . S
O63 La40 2.757 . S
O63 La41 2.482 . S
O63 C49 1.289 . S
O64 La40 2.470 . S
O64 C50 1.258 . S
O65 La41 2.503 . S
O65 C50 1.256 . S
O66 La41 2.521 . S
O66 C51 1.261 . S
O67 La41 2.628 . S
O67 C51 1.243 . S
O68 La41 2.554 1_455 S
O68 C58 1.240 . S
O69 La40 2.482 . S
O69 La41 2.757 . S
O69 C58 1.289 1_655 S
O70 La41 2.470 . S
O70 C59 1.258 . S
O71 La40 2.503 . S
O71 C59 1.256 . S
H72 C44 0.930 . S
H73 C45 0.930 . S
H74 C47 0.929 . S
H75 C48 0.929 . S
H76 C53 0.930 1_455 S
H77 C54 0.930 1_455 S
H78 C56 0.929 . S
H79 C57 0.929 . S
La80 C82 2.928 . S
La80 O100 2.521 . S
La80 O101 2.628 . S
La80 O102 2.554 . S
La80 O103 2.757 . S
La80 O104 2.470 . S
La80 O109 2.482 . S
La80 O111 2.503 . S
La81 C91 2.928 . S
La81 O103 2.482 . S
La81 O105 2.503 . S
La81 O106 2.521 . S
La81 O107 2.628 . S
La81 O108 2.554 . S
La81 O109 2.757 . S
La81 O110 2.470 . S
C82 La80 2.928 . S
C82 C83 1.503 . S
C82 O100 1.261 . S
C82 O101 1.243 . S
C83 C82 1.503 . S
C83 C84 1.394 . S
C83 C88 1.373 . S
C84 C83 1.394 . S
C84 C85 1.380 . S
C84 H112 0.930 . S
C85 C84 1.380 . S
C85 C86 1.376 . S
C85 H113 0.930 . S
C86 C85 1.376 . S
C86 C87 1.370 . S
C87 C86 1.370 . S
C87 C88 1.396 . S
C87 H114 0.929 . S
C88 C83 1.373 . S
C88 C87 1.396 . S
C88 H115 0.929 . S
C89 O102 1.240 . S
C89 O103 1.289 . S
C90 O104 1.258 . S
C90 O105 1.256 . S
C91 La81 2.928 . S
C91 C92 1.503 . S
C91 O106 1.261 . S
C91 O107 1.243 . S
C92 C91 1.503 . S
C92 C93 1.394 . S
C92 C97 1.373 . S
C93 C92 1.394 . S
C93 C94 1.380 . S
C93 H116 0.930 . S
C94 C93 1.380 . S
C94 C95 1.376 . S
C94 H117 0.930 . S
C95 C94 1.376 . S
C95 C96 1.370 . S
C96 C95 1.370 . S
C96 C97 1.396 . S
C96 H118 0.929 . S
C97 C92 1.373 . S
C97 C96 1.396 . S
C97 H119 0.929 . S
C98 O108 1.240 . S
C98 O109 1.289 . S
C99 O110 1.258 . S
C99 O111 1.256 . S
O100 La80 2.521 . S
O100 C82 1.261 . S
O101 La80 2.628 . S
O101 C82 1.243 . S
O102 La80 2.554 . S
O102 C89 1.240 . S
O103 La80 2.757 . S
O103 La81 2.482 . S
O103 C89 1.289 . S
O104 La80 2.470 . S
O104 C90 1.258 . S
O105 La81 2.503 . S
O105 C90 1.256 . S
O106 La81 2.521 . S
O106 C91 1.261 . S
O107 La81 2.628 . S
O107 C91 1.243 . S
O108 La81 2.554 . S
O108 C98 1.240 . S
O109 La80 2.482 . S
O109 La81 2.757 . S
O109 C98 1.289 . S
O110 La81 2.470 . S
O110 C99 1.258 . S
O111 La80 2.503 . S
O111 C99 1.256 . S
H112 C84 0.930 . S
H113 C85 0.930 . S
H114 C87 0.929 . S
H115 C88 0.929 . S
H116 C93 0.930 . S
H117 C94 0.930 . S
H118 C96 0.929 . S
H119 C97 0.929 . S
La120 C122 2.928 . S
La120 O140 2.521 . S
La120 O141 2.628 . S
La120 O142 2.554 . S
La120 O143 2.757 . S
La120 O144 2.470 . S
La120 O149 2.482 . S
La120 O151 2.503 . S
La121 C131 2.928 . S
La121 O143 2.482 . S
La121 O145 2.503 . S
La121 O146 2.521 . S
La121 O147 2.628 . S
La121 O148 2.554 . S
La121 O149 2.757 . S
La121 O150 2.470 . S
C122 La120 2.928 . S
C122 C123 1.503 1_554 S
C122 O140 1.261 . S
C122 O141 1.243 . S
C123 C122 1.503 1_556 S
C123 C124 1.394 . S
C123 C128 1.373 . S
C124 C123 1.394 . S
C124 C125 1.380 . S
C124 H152 0.930 . S
C125 C124 1.380 . S
C125 C126 1.376 . S
C125 H153 0.930 . S
C126 C125 1.376 . S
C126 C127 1.370 . S
C127 C126 1.370 . S
C127 C128 1.396 . S
C127 H154 0.929 . S
C128 C123 1.373 . S
C128 C127 1.396 . S
C128 H155 0.929 . S
C129 O142 1.240 . S
C129 O143 1.289 . S
C130 O144 1.258 . S
C130 O145 1.256 . S
C131 La121 2.928 . S
C131 C132 1.503 . S
C131 O146 1.261 . S
C131 O147 1.243 . S
C132 C131 1.503 . S
C132 C133 1.394 . S
C132 C137 1.373 . S
C133 C132 1.394 . S
C133 C134 1.380 . S
C133 H156 0.930 . S
C134 C133 1.380 . S
C134 C135 1.376 . S
C134 H157 0.930 . S
C135 C134 1.376 . S
C135 C136 1.370 . S
C136 C135 1.370 . S
C136 C137 1.396 . S
C136 H158 0.929 . S
C137 C132 1.373 . S
C137 C136 1.396 . S
C137 H159 0.929 . S
C138 O148 1.240 . S
C138 O149 1.289 . S
C139 O150 1.258 . S
C139 O151 1.256 . S
O140 La120 2.521 . S
O140 C122 1.261 . S
O141 La120 2.628 . S
O141 C122 1.243 . S
O142 La120 2.554 . S
O142 C129 1.240 . S
O143 La120 2.757 . S
O143 La121 2.482 . S
O143 C129 1.289 . S
O144 La120 2.470 . S
O144 C130 1.258 . S
O145 La121 2.503 . S
O145 C130 1.256 . S
O146 La121 2.521 . S
O146 C131 1.261 . S
O147 La121 2.628 . S
O147 C131 1.243 . S
O148 La121 2.554 . S
O148 C138 1.240 . S
O149 La120 2.482 . S
O149 La121 2.757 . S
O149 C138 1.289 . S
O150 La121 2.470 . S
O150 C139 1.258 . S
O151 La120 2.503 . S
O151 C139 1.256 . S
H152 C124 0.930 . S
H153 C125 0.930 . S
H154 C127 0.929 . S
H155 C128 0.929 . S
H156 C133 0.930 . S
H157 C134 0.930 . S
H158 C136 0.929 . S
H159 C137 0.929 . S
La160 C162 2.928 . S
La160 O180 2.521 . S
La160 O181 2.628 . S
La160 O182 2.554 . S
La160 O183 2.757 . S
La160 O184 2.470 . S
La160 O189 2.482 . S
La160 O191 2.503 . S
La161 C171 2.928 . S
La161 O183 2.482 . S
La161 O185 2.503 . S
La161 O186 2.521 . S
La161 O187 2.628 . S
La161 O188 2.554 1_565 S
La161 O189 2.757 . S
La161 O190 2.470 . S
C162 La160 2.928 . S
C162 C163 1.503 . S
C162 O180 1.261 . S
C162 O181 1.243 . S
C163 C162 1.503 . S
C163 C164 1.394 . S
C163 C168 1.373 . S
C164 C163 1.394 . S
C164 C165 1.380 . S
C164 H192 0.930 . S
C165 C164 1.380 . S
C165 C166 1.376 . S
C165 H193 0.930 . S
C166 C165 1.376 . S
C166 C167 1.370 . S
C167 C166 1.370 . S
C167 C168 1.396 . S
C167 H194 0.929 . S
C168 C163 1.373 . S
C168 C167 1.396 . S
C168 H195 0.929 . S
C169 O182 1.240 . S
C169 O183 1.289 . S
C170 O184 1.258 . S
C170 O185 1.256 . S
C171 La161 2.928 . S
C171 C172 1.503 . S
C171 O186 1.261 . S
C171 O187 1.243 . S
C172 C171 1.503 . S
C172 C173 1.394 . S
C172 C177 1.373 . S
C173 C172 1.394 . S
C173 C174 1.380 . S
C173 H196 0.930 1_565 S
C174 C173 1.380 . S
C174 C175 1.376 . S
C174 H197 0.930 1_565 S
C175 C174 1.376 . S
C175 C176 1.370 . S
C176 C175 1.370 . S
C176 C177 1.396 . S
C176 H198 0.929 . S
C177 C172 1.373 . S
C177 C176 1.396 . S
C177 H199 0.929 . S
C178 O188 1.240 . S
C178 O189 1.289 1_545 S
C179 O190 1.258 . S
C179 O191 1.256 . S
O180 La160 2.521 . S
O180 C162 1.261 . S
O181 La160 2.628 . S
O181 C162 1.243 . S
O182 La160 2.554 . S
O182 C169 1.240 . S
O183 La160 2.757 . S
O183 La161 2.482 . S
O183 C169 1.289 . S
O184 La160 2.470 . S
O184 C170 1.258 . S
O185 La161 2.503 . S
O185 C170 1.256 . S
O186 La161 2.521 . S
O186 C171 1.261 . S
O187 La161 2.628 . S
O187 C171 1.243 . S
O188 La161 2.554 1_545 S
O188 C178 1.240 . S
O189 La160 2.482 . S
O189 La161 2.757 . S
O189 C178 1.289 1_565 S
O190 La161 2.470 . S
O190 C179 1.258 . S
O191 La160 2.503 . S
O191 C179 1.256 . S
H192 C164 0.930 . S
H193 C165 0.930 . S
H194 C167 0.929 . S
H195 C168 0.929 . S
H196 C173 0.930 1_545 S
H197 C174 0.930 1_545 S
H198 C176 0.929 . S
H199 C177 0.929 . S
La200 C202 2.928 . S
La200 O220 2.521 . S
La200 O221 2.628 . S
La200 O222 2.554 . S
La200 O223 2.757 . S
La200 O224 2.470 . S
La200 O229 2.482 . S
La200 O231 2.503 . S
La201 C211 2.928 . S
La201 O223 2.482 . S
La201 O225 2.503 . S
La201 O226 2.521 . S
La201 O227 2.628 . S
La201 O228 2.566 . S
La201 O229 2.757 . S
La201 O230 2.470 . S
C202 La200 2.928 . S
C202 C203 1.503 . S
C202 O220 1.261 . S
C202 O221 1.243 . S
C203 C202 1.503 . S
C203 C204 1.394 . S
C203 C208 1.373 . S
C204 C203 1.394 . S
C204 C205 1.380 . S
C204 H232 0.930 . S
C205 C204 1.380 . S
C205 C206 1.376 . S
C205 H233 0.930 . S
C206 C205 1.376 . S
C206 C207 1.370 . S
C207 C206 1.370 . S
C207 C208 1.396 . S
C207 H234 0.929 . S
C208 C203 1.373 . S
C208 C207 1.396 . S
C208 H235 0.929 . S
C209 O222 1.240 . S
C209 O223 1.289 . S
C210 O224 1.258 . S
C210 O225 1.256 . S
C211 La201 2.928 . S
C211 C212 1.503 . S
C211 O226 1.261 . S
C211 O227 1.243 . S
C212 C211 1.503 . S
C212 C213 1.394 . S
C212 C217 1.373 . S
C213 C212 1.394 . S
C213 C214 1.380 . S
C213 H236 0.930 . S
C214 C213 1.380 . S
C214 C215 1.376 . S
C214 H237 0.930 . S
C215 C214 1.376 . S
C215 C216 1.370 . S
C216 C215 1.370 . S
C216 C217 1.396 . S
C216 H238 0.929 . S
C217 C212 1.373 . S
C217 C216 1.396 . S
C217 H239 0.929 . S
C218 O228 1.239 . S
C218 O229 1.289 . S
C219 O230 1.258 . S
C219 O231 1.256 . S
O220 La200 2.521 . S
O220 C202 1.261 . S
O221 La200 2.628 . S
O221 C202 1.243 . S
O222 La200 2.554 . S
O222 C209 1.240 . S
O223 La200 2.757 . S
O223 La201 2.482 . S
O223 C209 1.289 . S
O224 La200 2.470 . S
O224 C210 1.258 . S
O225 La201 2.503 . S
O225 C210 1.256 . S
O226 La201 2.521 . S
O226 C211 1.261 . S
O227 La201 2.628 . S
O227 C211 1.243 . S
O228 La201 2.566 . S
O228 C218 1.239 . S
O229 La200 2.482 . S
O229 La201 2.757 . S
O229 C218 1.289 . S
O230 La201 2.470 . S
O230 C219 1.258 . S
O231 La200 2.503 . S
O231 C219 1.256 . S
H232 C204 0.930 . S
H233 C205 0.930 . S
H234 C207 0.929 . S
H235 C208 0.929 . S
H236 C213 0.930 . S
H237 C214 0.930 . S
H238 C216 0.929 . S
H239 C217 0.929 . S
H240 C252 0.930 . S
H241 C254 0.930 . S
H242 C255 0.930 . S
H243 C259 0.959 . S
H244 C259 0.959 . S
H245 C259 0.961 . S
H246 C260 0.960 . S
H247 C260 0.961 . S
H248 C260 0.959 . S
H249 C263 0.929 . S
H250 C264 0.931 . S
H251 C266 0.930 . S
C252 H240 0.930 . S
C252 C253 1.399 . S
C252 C257 1.399 . S
C253 C252 1.399 . S
C253 C254 1.376 . S
C254 H241 0.930 . S
C254 C253 1.376 . S
C254 C255 1.388 . S
C255 H242 0.930 . S
C255 C254 1.388 . S
C255 C256 1.390 . S
C256 C255 1.390 . S
C256 C257 1.394 . S
C256 C262 1.465 . S
C257 C252 1.399 . S
C257 C256 1.394 . S
C257 C258 1.516 . S
C258 C257 1.516 . S
C258 C259 1.502 . S
C258 C260 1.561 . S
C258 C261 1.526 . S
C259 H243 0.959 . S
C259 H244 0.959 . S
C259 H245 0.961 . S
C259 C258 1.502 . S
C260 H246 0.960 . S
C260 H247 0.961 . S
C260 H248 0.959 . S
C260 C258 1.561 . S
C261 C258 1.526 . S
C261 C262 1.396 . S
C261 C266 1.390 . S
C262 C256 1.465 . S
C262 C261 1.396 . S
C262 C263 1.399 . S
C263 H249 0.929 . S
C263 C262 1.399 . S
C263 C264 1.385 . S
C264 H250 0.931 . S
C264 C263 1.385 . S
C264 C265 1.389 . S
C265 C264 1.389 . S
C265 C266 1.387 . S
C266 H251 0.930 . S
C266 C261 1.390 . S
C266 C265 1.387 . S
H267 C279 0.930 . S
H268 C281 0.930 . S
H269 C282 0.930 . S
H270 C286 0.959 . S
H271 C286 0.959 . S
H272 C286 0.961 . S
H273 C287 0.960 . S
H274 C287 0.961 . S
H275 C287 0.959 . S
H276 C290 0.929 . S
H277 C291 0.931 . S
H278 C293 0.930 . S
C279 H267 0.930 . S
C279 C280 1.399 . S
C279 C284 1.399 . S
C280 C279 1.399 . S
C280 C281 1.376 . S
C281 H268 0.930 . S
C281 C280 1.376 . S
C281 C282 1.388 . S
C282 H269 0.930 . S
C282 C281 1.388 . S
C282 C283 1.390 . S
C283 C282 1.390 . S
C283 C284 1.394 . S
C283 C289 1.465 . S
C284 C279 1.399 . S
C284 C283 1.394 . S
C284 C285 1.516 . S
C285 C284 1.516 . S
C285 C286 1.502 . S
C285 C287 1.561 . S
C285 C288 1.526 . S
C286 H270 0.959 . S
C286 H271 0.959 . S
C286 H272 0.961 . S
C286 C285 1.502 . S
C287 H273 0.960 . S
C287 H274 0.961 . S
C287 H275 0.959 . S
C287 C285 1.561 . S
C288 C285 1.526 . S
C288 C289 1.396 . S
C288 C293 1.390 . S
C289 C283 1.465 . S
C289 C288 1.396 . S
C289 C290 1.399 . S
C290 H276 0.929 . S
C290 C289 1.399 . S
C290 C291 1.385 . S
C291 H277 0.931 . S
C291 C290 1.385 . S
C291 C292 1.389 . S
C292 C291 1.389 . S
C292 C293 1.387 . S
C293 H278 0.930 . S
C293 C288 1.390 . S
C293 C292 1.387 . S
H294 C306 0.930 . S
H295 C308 0.930 . S
H296 C309 0.930 . S
H297 C313 0.959 . S
H298 C313 0.959 . S
H299 C313 0.961 . S
H300 C314 0.960 . S
H301 C314 0.961 . S
H302 C314 0.959 . S
H303 C317 0.930 1_554 S
H304 C318 0.931 . S
H305 C320 0.930 . S
C306 H294 0.930 . S
C306 C307 1.399 . S
C306 C311 1.399 . S
C307 C306 1.399 . S
C307 C308 1.376 . S
C308 H295 0.930 . S
C308 C307 1.376 . S
C308 C309 1.388 . S
C309 H296 0.930 . S
C309 C308 1.388 . S
C309 C310 1.390 . S
C310 C309 1.390 . S
C310 C311 1.394 . S
C310 C316 1.465 . S
C311 C306 1.399 . S
C311 C310 1.394 . S
C311 C312 1.516 . S
C312 C311 1.516 . S
C312 C313 1.502 . S
C312 C314 1.561 . S
C312 C315 1.526 . S
C313 H297 0.959 . S
C313 H298 0.959 . S
C313 H299 0.961 . S
C313 C312 1.502 . S
C314 H300 0.960 . S
C314 H301 0.961 . S
C314 H302 0.959 . S
C314 C312 1.561 . S
C315 C312 1.526 . S
C315 C316 1.396 . S
C315 C320 1.390 1_554 S
C316 C310 1.465 . S
C316 C315 1.396 . S
C316 C317 1.399 1_554 S
C317 H303 0.930 1_556 S
C317 C316 1.399 1_556 S
C317 C318 1.385 . S
C318 H304 0.931 . S
C318 C317 1.385 . S
C318 C319 1.389 . S
C319 C318 1.389 . S
C319 C320 1.387 . S
C320 H305 0.930 . S
C320 C315 1.390 1_556 S
C320 C319 1.387 . S
H321 C333 0.930 . S
H322 C335 0.930 . S
H323 C336 0.930 . S
H324 C340 0.959 . S
H325 C340 0.959 . S
H326 C340 0.961 . S
H327 C341 0.960 . S
H328 C341 0.961 . S
H329 C341 0.959 . S
H330 C344 0.929 . S
H331 C345 0.931 . S
H332 C347 0.930 . S
C333 H321 0.930 . S
C333 C334 1.399 . S
C333 C338 1.399 . S
C334 C333 1.399 . S
C334 C335 1.376 . S
C335 H322 0.930 . S
C335 C334 1.376 . S
C335 C336 1.388 . S
C336 H323 0.930 . S
C336 C335 1.388 . S
C336 C337 1.390 . S
C337 C336 1.390 . S
C337 C338 1.394 . S
C337 C343 1.465 . S
C338 C333 1.399 . S
C338 C337 1.394 . S
C338 C339 1.516 . S
C339 C338 1.516 . S
C339 C340 1.502 . S
C339 C341 1.561 . S
C339 C342 1.526 . S
C340 H324 0.959 . S
C340 H325 0.959 . S
C340 H326 0.961 . S
C340 C339 1.502 . S
C341 H327 0.960 . S
C341 H328 0.961 . S
C341 H329 0.959 . S
C341 C339 1.561 . S
C342 C339 1.526 . S
C342 C343 1.396 . S
C342 C347 1.390 . S
C343 C337 1.465 . S
C343 C342 1.396 . S
C343 C344 1.399 . S
C344 H330 0.929 . S
C344 C343 1.399 . S
C344 C345 1.385 . S
C345 H331 0.931 . S
C345 C344 1.385 . S
C345 C346 1.389 . S
C346 C345 1.389 . S
C346 C347 1.387 . S
C347 H332 0.930 . S
C347 C342 1.390 . S
C347 C346 1.387 . S
H348 C360 0.930 . S
H349 C362 0.930 . S
H350 C363 0.930 . S
H351 C367 0.959 . S
H352 C367 0.959 . S
H353 C367 0.961 . S
H354 C368 0.960 . S
H355 C368 0.961 . S
H356 C368 0.959 . S
H357 C371 0.929 . S
H358 C372 0.931 . S
H359 C374 0.930 . S
C360 H348 0.930 . S
C360 C361 1.399 . S
C360 C365 1.399 . S
C361 C360 1.399 . S
C361 C362 1.376 . S
C362 H349 0.930 . S
C362 C361 1.376 . S
C362 C363 1.388 . S
C363 H350 0.930 . S
C363 C362 1.388 . S
C363 C364 1.390 . S
C364 C363 1.390 . S
C364 C365 1.394 . S
C364 C370 1.465 . S
C365 C360 1.399 . S
C365 C364 1.394 . S
C365 C366 1.516 . S
C366 C365 1.516 . S
C366 C367 1.502 . S
C366 C368 1.561 . S
C366 C369 1.526 . S
C367 H351 0.959 . S
C367 H352 0.959 . S
C367 H353 0.961 . S
C367 C366 1.502 . S
C368 H354 0.960 . S
C368 H355 0.961 . S
C368 H356 0.959 . S
C368 C366 1.561 . S
C369 C366 1.526 . S
C369 C370 1.396 . S
C369 C374 1.390 . S
C370 C364 1.465 . S
C370 C369 1.396 . S
C370 C371 1.399 . S
C371 H357 0.929 . S
C371 C370 1.399 . S
C371 C372 1.385 . S
C372 H358 0.931 . S
C372 C371 1.385 . S
C372 C373 1.389 . S
C373 C372 1.389 . S
C373 C374 1.387 . S
C374 H359 0.930 . S
C374 C369 1.390 . S
C374 C373 1.387 . S
H375 C387 0.930 . S
H376 C389 0.930 . S
H377 C390 0.930 . S
H378 C394 0.959 . S
H379 C394 0.959 . S
H380 C394 0.961 . S
H381 C395 0.960 . S
H382 C395 0.961 . S
H383 C395 0.959 . S
H384 C398 0.929 . S
H385 C399 0.931 . S
H386 C401 0.930 . S
C387 H375 0.930 . S
C387 C388 1.399 . S
C387 C392 1.399 . S
C388 C387 1.399 . S
C388 C389 1.376 . S
C389 H376 0.930 . S
C389 C388 1.376 . S
C389 C390 1.388 . S
C390 H377 0.930 . S
C390 C389 1.388 . S
C390 C391 1.390 . S
C391 C390 1.390 . S
C391 C392 1.394 . S
C391 C397 1.465 . S
C392 C387 1.399 . S
C392 C391 1.394 . S
C392 C393 1.516 . S
C393 C392 1.516 . S
C393 C394 1.502 . S
C393 C395 1.561 . S
C393 C396 1.526 . S
C394 H378 0.959 . S
C394 H379 0.959 . S
C394 H380 0.961 . S
C394 C393 1.502 . S
C395 H381 0.960 . S
C395 H382 0.961 . S
C395 H383 0.959 . S
C395 C393 1.561 . S
C396 C393 1.526 . S
C396 C397 1.396 . S
C396 C401 1.390 . S
C397 C391 1.465 . S
C397 C396 1.396 . S
C397 C398 1.399 . S
C398 H384 0.929 . S
C398 C397 1.399 . S
C398 C399 1.385 . S
C399 H385 0.931 . S
C399 C398 1.385 . S
C399 C400 1.389 . S
C400 C399 1.389 . S
C400 C401 1.387 . S
C401 H386 0.930 . S
C401 C396 1.390 . S
C401 C400 1.387 . S
H402 C414 0.930 . S
H403 C416 0.930 . S
H404 C417 0.930 . S
H405 C421 0.959 . S
H406 C421 0.959 . S
H407 C421 0.961 . S
H408 C422 0.960 . S
H409 C422 0.961 . S
H410 C422 0.959 . S
H411 C425 0.929 . S
H412 C426 0.931 . S
H413 C428 0.930 . S
C414 H402 0.930 . S
C414 C415 1.399 . S
C414 C419 1.399 . S
C415 C414 1.399 . S
C415 C416 1.376 . S
C416 H403 0.930 . S
C416 C415 1.376 . S
C416 C417 1.388 . S
C417 H404 0.930 . S
C417 C416 1.388 . S
C417 C418 1.390 . S
C418 C417 1.390 . S
C418 C419 1.394 . S
C418 C424 1.465 . S
C419 C414 1.399 . S
C419 C418 1.394 . S
C419 C420 1.516 . S
C420 C419 1.516 . S
C420 C421 1.502 . S
C420 C422 1.561 . S
C420 C423 1.526 . S
C421 H405 0.959 . S
C421 H406 0.959 . S
C421 H407 0.961 . S
C421 C420 1.502 . S
C422 H408 0.960 . S
C422 H409 0.961 . S
C422 H410 0.959 . S
C422 C420 1.561 . S
C423 C420 1.526 . S
C423 C424 1.396 . S
C423 C428 1.390 . S
C424 C418 1.465 . S
C424 C423 1.396 . S
C424 C425 1.399 . S
C425 H411 0.929 . S
C425 C424 1.399 . S
C425 C426 1.385 . S
C426 H412 0.931 . S
C426 C425 1.385 . S
C426 C427 1.389 . S
C427 C426 1.389 . S
C427 C428 1.387 . S
C428 H413 0.930 . S
C428 C423 1.390 . S
C428 C427 1.387 . S
H429 C441 0.930 . S
H430 C443 0.930 . S
H431 C444 0.930 . S
H432 C448 0.959 . S
H433 C448 0.959 . S
H434 C448 0.961 . S
H435 C449 0.960 . S
H436 C449 0.961 . S
H437 C449 0.959 . S
H438 C452 0.929 . S
H439 C453 0.931 1_655 S
H440 C455 0.930 . S
C441 H429 0.930 . S
C441 C442 1.399 . S
C441 C446 1.399 . S
C442 C441 1.399 . S
C442 C443 1.376 . S
C443 H430 0.930 . S
C443 C442 1.376 . S
C443 C444 1.388 . S
C444 H431 0.930 . S
C444 C443 1.388 . S
C444 C445 1.390 . S
C445 C444 1.390 . S
C445 C446 1.394 . S
C445 C451 1.465 . S
C446 C441 1.399 . S
C446 C445 1.394 . S
C446 C447 1.516 . S
C447 C446 1.516 . S
C447 C448 1.502 . S
C447 C449 1.561 . S
C447 C450 1.526 . S
C448 H432 0.959 . S
C448 H433 0.959 . S
C448 H434 0.961 . S
C448 C447 1.502 . S
C449 H435 0.960 . S
C449 H436 0.961 . S
C449 H437 0.959 . S
C449 C447 1.561 . S
C450 C447 1.526 . S
C450 C451 1.396 . S
C450 C455 1.390 . S
C451 C445 1.465 . S
C451 C450 1.396 . S
C451 C452 1.399 . S
C452 H438 0.929 . S
C452 C451 1.399 . S
C452 C453 1.385 . S
C453 H439 0.931 1_455 S
C453 C452 1.385 . S
C453 C454 1.389 . S
C454 C453 1.389 . S
C454 C455 1.387 . S
C455 H440 0.930 . S
C455 C450 1.390 . S
C455 C454 1.387 . S
H456 C468 0.930 . S
H457 C470 0.930 . S
H458 C471 0.930 . S
H459 C475 0.959 . S
H460 C475 0.959 . S
H461 C475 0.961 . S
H462 C476 0.960 . S
H463 C476 0.961 . S
H464 C476 0.959 . S
H465 C479 0.929 . S
H466 C480 0.931 . S
H467 C482 0.930 . S
C468 H456 0.930 . S
C468 C469 1.399 . S
C468 C473 1.399 . S
C469 C468 1.399 . S
C469 C470 1.376 1_565 S
C470 H457 0.930 . S
C470 C469 1.376 1_545 S
C470 C471 1.388 . S
C471 H458 0.930 . S
C471 C470 1.388 . S
C471 C472 1.390 1_545 S
C472 C471 1.390 1_565 S
C472 C473 1.394 . S
C472 C478 1.465 . S
C473 C468 1.399 . S
C473 C472 1.394 . S
C473 C474 1.516 . S
C474 C473 1.516 . S
C474 C475 1.502 . S
C474 C476 1.561 . S
C474 C477 1.526 . S
C475 H459 0.959 . S
C475 H460 0.959 . S
C475 H461 0.961 . S
C475 C474 1.502 . S
C476 H462 0.960 . S
C476 H463 0.961 . S
C476 H464 0.959 . S
C476 C474 1.561 . S
C477 C474 1.526 . S
C477 C478 1.396 . S
C477 C482 1.390 . S
C478 C472 1.465 . S
C478 C477 1.396 . S
C478 C479 1.399 . S
C479 H465 0.929 . S
C479 C478 1.399 . S
C479 C480 1.385 . S
C480 H466 0.931 . S
C480 C479 1.385 . S
C480 C481 1.389 . S
C481 C480 1.389 . S
C481 C482 1.387 . S
C482 H467 0.930 . S
C482 C477 1.390 . S
C482 C481 1.387 . S
H483 C495 0.930 . S
H484 C497 0.930 . S
H485 C498 0.930 . S
H486 C502 0.959 . S
H487 C502 0.959 . S
H488 C502 0.961 . S
H489 C503 0.960 . S
H490 C503 0.961 . S
H491 C503 0.959 . S
H492 C506 0.929 . S
H493 C507 0.931 . S
H494 C509 0.930 . S
C495 H483 0.930 . S
C495 C496 1.399 . S
C495 C500 1.399 . S
C496 C495 1.399 . S
C496 C497 1.376 . S
C497 H484 0.930 . S
C497 C496 1.376 . S
C497 C498 1.388 . S
C498 H485 0.930 . S
C498 C497 1.388 . S
C498 C499 1.390 . S
C499 C498 1.390 . S
C499 C500 1.394 . S
C499 C505 1.465 . S
C500 C495 1.399 . S
C500 C499 1.394 . S
C500 C501 1.516 . S
C501 C500 1.516 . S
C501 C502 1.502 . S
C501 C503 1.561 . S
C501 C504 1.526 . S
C502 H486 0.959 . S
C502 H487 0.959 . S
C502 H488 0.961 . S
C502 C501 1.502 . S
C503 H489 0.960 . S
C503 H490 0.961 . S
C503 H491 0.959 . S
C503 C501 1.561 . S
C504 C501 1.526 . S
C504 C505 1.396 . S
C504 C509 1.390 . S
C505 C499 1.465 . S
C505 C504 1.396 . S
C505 C506 1.399 . S
C506 H492 0.929 . S
C506 C505 1.399 . S
C506 C507 1.385 . S
C507 H493 0.931 . S
C507 C506 1.385 . S
C507 C508 1.389 . S
C508 C507 1.389 . S
C508 C509 1.387 . S
C509 H494 0.930 . S
C509 C504 1.390 . S
C509 C508 1.387 . S
H510 C522 0.930 . S
H511 C524 0.930 1_455 S
H512 C525 0.930 . S
H513 C529 0.959 . S
H514 C529 0.959 . S
H515 C529 0.961 . S
H516 C530 0.960 1_455 S
H517 C530 0.961 . S
H518 C530 0.959 1_455 S
H519 C533 0.929 . S
H520 C534 0.931 . S
H521 C536 0.930 . S
C522 H510 0.930 . S
C522 C523 1.399 . S
C522 C527 1.399 . S
C523 C522 1.399 . S
C523 C524 1.376 . S
C524 H511 0.930 1_655 S
C524 C523 1.376 . S
C524 C525 1.388 . S
C525 H512 0.930 . S
C525 C524 1.388 . S
C525 C526 1.390 . S
C526 C525 1.390 . S
C526 C527 1.394 . S
C526 C532 1.465 . S
C527 C522 1.399 . S
C527 C526 1.394 . S
C527 C528 1.516 . S
C528 C527 1.516 . S
C528 C529 1.502 . S
C528 C530 1.561 . S
C528 C531 1.526 . S
C529 H513 0.959 . S
C529 H514 0.959 . S
C529 H515 0.961 . S
C529 C528 1.502 . S
C530 H516 0.960 1_655 S
C530 H517 0.961 . S
C530 H518 0.959 1_655 S
C530 C528 1.561 . S
C531 C528 1.526 . S
C531 C532 1.396 . S
C531 C536 1.390 . S
C532 C526 1.465 . S
C532 C531 1.396 . S
C532 C533 1.399 . S
C533 H519 0.929 . S
C533 C532 1.399 . S
C533 C534 1.385 . S
C534 H520 0.931 . S
C534 C533 1.385 . S
C534 C535 1.389 . S
C535 C534 1.389 . S
C535 C536 1.387 . S
C536 H521 0.930 . S
C536 C531 1.390 . S
C536 C535 1.387 . S
H537 C549 0.930 1_565 S
H538 C551 0.930 . S
H539 C552 0.930 . S
H540 C556 0.959 1_545 S
H541 C556 0.959 . S
H542 C556 0.961 . S
H543 C557 0.960 . S
H544 C557 0.961 . S
H545 C557 0.959 1_545 S
H546 C560 0.929 . S
H547 C561 0.931 . S
H548 C563 0.930 . S
C549 H537 0.930 1_545 S
C549 C550 1.399 . S
C549 C554 1.399 . S
C550 C549 1.399 . S
C550 C551 1.376 . S
C551 H538 0.930 . S
C551 C550 1.376 . S
C551 C552 1.388 . S
C552 H539 0.930 . S
C552 C551 1.388 . S
C552 C553 1.390 . S
C553 C552 1.390 . S
C553 C554 1.394 . S
C553 C559 1.465 . S
C554 C549 1.399 . S
C554 C553 1.394 . S
C554 C555 1.516 . S
C555 C554 1.516 . S
C555 C556 1.502 1_545 S
C555 C557 1.561 1_545 S
C555 C558 1.526 . S
C556 H540 0.959 1_565 S
C556 H541 0.959 . S
C556 H542 0.961 . S
C556 C555 1.502 1_565 S
C557 H543 0.960 . S
C557 H544 0.961 . S
C557 H545 0.959 1_565 S
C557 C555 1.561 1_565 S
C558 C555 1.526 . S
C558 C559 1.396 . S
C558 C563 1.390 . S
C559 C553 1.465 . S
C559 C558 1.396 . S
C559 C560 1.399 . S
C560 H546 0.929 . S
C560 C559 1.399 . S
C560 C561 1.385 . S
C561 H547 0.931 . S
C561 C560 1.385 . S
C561 C562 1.389 . S
C562 C561 1.389 . S
C562 C563 1.387 . S
C563 H548 0.930 . S
C563 C558 1.390 . S
C563 C562 1.387 . S
H564 C576 0.930 . S
H565 C578 0.930 . S
H566 C579 0.930 . S
H567 C583 0.959 . S
H568 C583 0.959 . S
H569 C583 0.961 . S
H570 C584 0.960 . S
H571 C584 1.006 . S
H572 C584 0.959 . S
H573 C587 0.929 . S
H574 C588 0.931 . S
H575 C590 0.930 1_554 S
C576 H564 0.930 . S
C576 C577 1.399 . S
C576 C581 1.399 . S
C577 C576 1.399 . S
C577 C578 1.376 . S
C578 H565 0.930 . S
C578 C577 1.376 . S
C578 C579 1.388 . S
C579 H566 0.930 . S
C579 C578 1.388 . S
C579 C580 1.390 . S
C580 C579 1.390 . S
C580 C581 1.394 . S
C580 C586 1.465 . S
C581 C576 1.399 . S
C581 C580 1.394 . S
C581 C582 1.516 . S
C582 C581 1.516 . S
C582 C583 1.502 . S
C582 C584 1.561 . S
C582 C585 1.526 . S
C583 H567 0.959 . S
C583 H568 0.959 . S
C583 H569 0.961 . S
C583 C582 1.502 . S
C584 H570 0.960 . S
C584 H571 1.006 . S
C584 H572 0.959 . S
C584 C582 1.561 . S
C585 C582 1.526 . S
C585 C586 1.396 . S
C585 C590 1.390 . S
C586 C580 1.465 . S
C586 C585 1.396 . S
C586 C587 1.399 . S
C587 H573 0.929 . S
C587 C586 1.399 . S
C587 C588 1.385 . S
C588 H574 0.931 . S
C588 C587 1.385 . S
C588 C589 1.384 1_556 S
C589 C588 1.384 1_554 S
C589 C590 1.386 1_554 S
C590 H575 0.930 1_556 S
C590 C585 1.390 . S
C590 C589 1.386 1_556 S
H591 C603 0.930 . S
H592 C605 0.930 . S
H593 C606 0.930 1_455 S
H594 C610 0.959 . S
H595 C610 0.959 . S
H596 C610 0.961 . S
H597 C611 0.960 . S
H598 C611 0.961 . S
H599 C611 0.959 . S
H600 C614 0.929 . S
H601 C615 0.931 . S
H602 C617 0.930 . S
C603 H591 0.930 . S
C603 C604 1.399 . S
C603 C608 1.399 . S
C604 C603 1.399 . S
C604 C605 1.376 . S
C605 H592 0.930 . S
C605 C604 1.376 . S
C605 C606 1.388 . S
C606 H593 0.930 1_655 S
C606 C605 1.388 . S
C606 C607 1.388 1_655 S
C607 C606 1.388 1_455 S
C607 C608 1.395 1_455 S
C607 C613 1.466 . S
C608 C603 1.399 . S
C608 C607 1.395 1_655 S
C608 C609 1.516 . S
C609 C608 1.516 . S
C609 C610 1.502 1_655 S
C609 C611 1.561 . S
C609 C612 1.526 1_655 S
C610 H594 0.959 . S
C610 H595 0.959 . S
C610 H596 0.961 . S
C610 C609 1.502 1_455 S
C611 H597 0.960 . S
C611 H598 0.961 . S
C611 H599 0.959 . S
C611 C609 1.561 . S
C612 C609 1.526 1_455 S
C612 C613 1.396 . S
C612 C617 1.390 . S
C613 C607 1.466 . S
C613 C612 1.396 . S
C613 C614 1.399 . S
C614 H600 0.929 . S
C614 C613 1.399 . S
C614 C615 1.385 . S
C615 H601 0.931 . S
C615 C614 1.385 . S
C615 C616 1.389 . S
C616 C615 1.389 . S
C616 C617 1.387 . S
C617 H602 0.930 . S
C617 C612 1.390 . S
C617 C616 1.387 . S
H618 C630 0.930 . S
H619 C632 0.930 . S
H620 C633 0.930 . S
H621 C637 0.959 . S
H622 C637 0.959 . S
H623 C637 0.961 . S
H624 C638 0.960 . S
H625 C638 0.961 . S
H626 C638 0.959 . S
H627 C641 0.929 . S
H628 C642 0.931 . S
H629 C644 0.930 . S
C630 H618 0.930 . S
C630 C631 1.399 . S
C630 C635 1.399 1_565 S
C631 C630 1.399 . S
C631 C632 1.376 . S
C632 H619 0.930 . S
C632 C631 1.376 . S
C632 C633 1.388 . S
C633 H620 0.930 . S
C633 C632 1.388 . S
C633 C634 1.390 . S
C634 C633 1.390 . S
C634 C635 1.394 1_565 S
C634 C640 1.465 1_565 S
C635 C630 1.399 1_545 S
C635 C634 1.394 1_545 S
C635 C636 1.516 . S
C636 C635 1.516 . S
C636 C637 1.502 . S
C636 C638 1.561 . S
C636 C639 1.526 . S
C637 H621 0.959 . S
C637 H622 0.959 . S
C637 H623 0.961 . S
C637 C636 1.502 . S
C638 H624 0.960 . S
C638 H625 0.961 . S
C638 H626 0.959 . S
C638 C636 1.561 . S
C639 C636 1.526 . S
C639 C640 1.396 . S
C639 C644 1.390 . S
C640 C634 1.465 1_545 S
C640 C639 1.396 . S
C640 C641 1.399 1_545 S
C641 H627 0.929 . S
C641 C640 1.399 1_565 S
C641 C642 1.385 1_565 S
C642 H628 0.931 . S
C642 C641 1.385 1_545 S
C642 C643 1.389 . S
C643 C642 1.389 . S
C643 C644 1.387 . S
C644 H629 0.930 . S
C644 C639 1.390 . S
C644 C643 1.387 . S
H645 C657 0.930 . S
H646 C659 0.930 . S
H647 C660 0.930 . S
H648 C664 0.959 . S
H649 C664 0.959 . S
H650 C664 0.961 . S
H651 C665 0.960 . S
H652 C665 0.961 . S
H653 C665 0.959 . S
H654 C668 0.929 . S
H655 C669 0.931 . S
H656 C671 0.922 1_554 S
C657 H645 0.930 . S
C657 C658 1.399 . S
C657 C662 1.399 . S
C658 C657 1.399 . S
C658 C659 1.376 . S
C659 H646 0.930 . S
C659 C658 1.376 . S
C659 C660 1.388 . S
C660 H647 0.930 . S
C660 C659 1.388 . S
C660 C661 1.390 . S
C661 C660 1.390 . S
C661 C662 1.394 . S
C661 C667 1.465 . S
C662 C657 1.399 . S
C662 C661 1.394 . S
C662 C663 1.516 . S
C663 C662 1.516 . S
C663 C664 1.502 . S
C663 C665 1.561 . S
C663 C666 1.526 . S
C664 H648 0.959 . S
C664 H649 0.959 . S
C664 H650 0.961 . S
C664 C663 1.502 . S
C665 H651 0.960 . S
C665 H652 0.961 . S
C665 H653 0.959 . S
C665 C663 1.561 . S
C666 C663 1.526 . S
C666 C667 1.396 . S
C666 C671 1.390 . S
C667 C661 1.465 . S
C667 C666 1.396 . S
C667 C668 1.399 . S
C668 H654 0.929 . S
C668 C667 1.399 . S
C668 C669 1.385 1_556 S
C669 H655 0.931 . S
C669 C668 1.385 1_554 S
C669 C670 1.389 . S
C670 C669 1.389 . S
C670 C671 1.387 1_554 S
C671 H656 0.922 1_556 S
C671 C666 1.390 . S
C671 C670 1.387 1_556 S
H672 C684 0.930 . S
H673 C686 0.930 . S
H674 C687 0.930 . S
H675 C691 0.959 . S
H676 C691 0.959 . S
H677 C691 0.961 . S
H678 C692 0.960 1_545 S
H679 C692 0.961 1_655 S
H680 C692 0.959 . S
H681 C695 0.929 . S
H682 C696 0.931 . S
H683 C698 0.930 . S
C684 H672 0.930 . S
C684 C685 1.399 . S
C684 C689 1.399 . S
C685 C684 1.399 . S
C685 C686 1.376 . S
C686 H673 0.930 . S
C686 C685 1.376 . S
C686 C687 1.388 . S
C687 H674 0.930 . S
C687 C686 1.388 . S
C687 C688 1.390 . S
C688 C687 1.390 . S
C688 C689 1.394 . S
C688 C694 1.465 . S
C689 C684 1.399 . S
C689 C688 1.394 . S
C689 C690 1.516 1_455 S
C690 C689 1.516 1_655 S
C690 C691 1.502 . S
C690 C692 1.561 1_655 S
C690 C693 1.526 . S
C691 H675 0.959 . S
C691 H676 0.959 . S
C691 H677 0.961 . S
C691 C690 1.502 . S
C692 H678 0.960 1_565 S
C692 H679 0.961 1_455 S
C692 H680 0.959 . S
C692 C690 1.561 1_455 S
C693 C690 1.526 . S
C693 C694 1.396 1_655 S
C693 C698 1.390 . S
C694 C688 1.465 . S
C694 C693 1.396 1_455 S
C694 C695 1.399 . S
C695 H681 0.929 . S
C695 C694 1.399 . S
C695 C696 1.385 1_455 S
C696 H682 0.931 . S
C696 C695 1.385 1_655 S
C696 C697 1.389 . S
C697 C696 1.389 . S
C697 C698 1.387 . S
C698 H683 0.930 . S
C698 C693 1.390 . S
C698 C697 1.387 . S
H699 C711 0.930 . S
H700 C713 0.930 . S
H701 C714 0.930 . S
H702 C718 0.959 . S
H703 C718 0.959 . S
H704 C718 0.961 . S
H705 C719 0.960 . S
H706 C719 0.961 . S
H707 C719 0.959 . S
H708 C722 0.929 . S
H709 C723 0.931 . S
H710 C725 0.930 . S
C711 H699 0.930 . S
C711 C712 1.399 . S
C711 C716 1.399 . S
C712 C711 1.399 . S
C712 C713 1.376 1_545 S
C713 H700 0.930 . S
C713 C712 1.376 1_565 S
C713 C714 1.388 . S
C714 H701 0.930 . S
C714 C713 1.388 . S
C714 C715 1.390 . S
C715 C714 1.390 . S
C715 C716 1.394 1_565 S
C715 C721 1.465 . S
C716 C711 1.399 . S
C716 C715 1.394 1_545 S
C716 C717 1.516 . S
C717 C716 1.516 . S
C717 C718 1.502 . S
C717 C719 1.561 . S
C717 C720 1.526 . S
C718 H702 0.959 . S
C718 H703 0.959 . S
C718 H704 0.961 . S
C718 C717 1.502 . S
C719 H705 0.960 . S
C719 H706 0.961 . S
C719 H707 0.959 . S
C719 C717 1.561 . S
C720 C717 1.526 . S
C720 C721 1.396 1_545 S
C720 C725 1.390 . S
C721 C715 1.465 . S
C721 C720 1.396 1_565 S
C721 C722 1.399 . S
C722 H708 0.929 . S
C722 C721 1.399 . S
C722 C723 1.385 . S
C723 H709 0.931 . S
C723 C722 1.385 . S
C723 C724 1.389 . S
C724 C723 1.389 . S
C724 C725 1.387 1_565 S
C725 H710 0.930 . S
C725 C720 1.390 . S
C725 C724 1.387 1_545 S
C253 C179 1.465 . S
C265 C6 1.477 . S
C280 C206 1.475 . S
C292 C59 1.466 . S
C307 C19 1.488 . S
C319 C86 1.425 . S
C334 C46 1.449 . S
C346 C139 1.486 . S
C361 C99 1.485 . S
C373 C166 1.451 . S
C388 C126 1.434 . S
C400 C219 1.480 . S
C415 C9 1.270 . S
C427 C138 1.354 . S
C442 C169 1.192 . S
C454 C58 1.308 . S
C469 C218 1.317 1_565 S
C481 C89 1.252 . S
C496 C98 1.356 . S
C508 C209 1.267 . S
C523 C18 1.306 1_655 S
C535 C129 1.204 . S
C550 C178 1.337 . S
C562 C49 1.117 . S
C577 C215 0.806 . S
C589 C15 0.854 . S
C604 C50 1.726 . S
C616 C10 1.730 . S
C631 C95 0.886 . S
C643 C55 0.838 . S
C658 C90 1.738 . S
C670 C130 1.730 . S
C685 C175 0.846 . S
C697 C135 0.807 . S
C712 C210 1.741 . S
C724 C170 1.717 . S
