# Generated by pormake.
# Topology sxb, (6)-cn, num edge types: 1
# Building blocks:
#     Node 0, Type 0, BuildingBlock: BETDEL_clean_sbu_0, # of connection points: 6
#     Node 1, Type 0, BuildingBlock: BETDEL_clean_sbu_0, # of connection points: 6
#     Node 2, Type 0, BuildingBlock: BETDEL_clean_sbu_0, # of connection points: 6
#     Node 3, Type 0, BuildingBlock: BETDEL_clean_sbu_0, # of connection points: 6
#     Edge 4, Type (0, 0), BuildingBlock: ZUJKAS_clean_linker_0, # of connection points: 2
#     Edge 5, Type (0, 0), BuildingBlock: ZUJKAS_clean_linker_0, # of connection points: 2
#     Edge 6, Type (0, 0), BuildingBlock: ZUJKAS_clean_linker_0, # of connection points: 2
#     Edge 7, Type (0, 0), BuildingBlock: ZUJKAS_clean_linker_0, # of connection points: 2
#     Edge 8, Type (0, 0), BuildingBlock: ZUJKAS_clean_linker_0, # of connection points: 2
#     Edge 9, Type (0, 0), BuildingBlock: ZUJKAS_clean_linker_0, # of connection points: 2
#     Edge 10, Type (0, 0), BuildingBlock: ZUJKAS_clean_linker_0, # of connection points: 2
#     Edge 11, Type (0, 0), BuildingBlock: ZUJKAS_clean_linker_0, # of connection points: 2
#     Edge 12, Type (0, 0), BuildingBlock: ZUJKAS_clean_linker_0, # of connection points: 2
#     Edge 13, Type (0, 0), BuildingBlock: ZUJKAS_clean_linker_0, # of connection points: 2
#     Edge 14, Type (0, 0), BuildingBlock: ZUJKAS_clean_linker_0, # of connection points: 2
#     Edge 15, Type (0, 0), BuildingBlock: ZUJKAS_clean_linker_0, # of connection points: 2
# Relax obj value: 0.037
# Max RMSD: 0.029
# Mean RMSD: 0.029
data_MOF--net-sxb--node1-BETDEL_clean_sbu_0--edge1-ZUJKAS_clean_linker_0
_symmetry_space_group_name_H-M    P1
_symmetry_Int_Tables_number       1
_symmetry_cell_setting            triclinic
loop_
_symmetry_equiv_pos_as_xyz
'x, y, z'
_cell_length_a     20.333638
_cell_length_b     36.396061
_cell_length_c     37.920964
_cell_angle_alpha  93.49065
_cell_angle_beta   94.205369
_cell_angle_gamma 85.161922
loop_
_atom_site_label
_atom_site_type_symbol
_atom_site_fract_x
_atom_site_fract_y
_atom_site_fract_z
_atom_type_partial_charge
Dy0 Dy 0.96115 0.99329 0.01368 0.0
C1 C 0.19025 0.05504 0.96713 0.0
C2 C 0.84637 0.97413 0.03728 0.0
Dy3 Dy 0.08981 0.03103 1.00043 0.0
O4 O 0.87506 0.95849 0.01014 0.0
O5 O 0.88159 0.99976 0.05195 0.0
O6 O 0.9631 0.96581 0.95905 0.0
O7 O 1.00016 0.01768 0.96889 0.0
C8 C 0.99396 0.9912 0.94618 0.0
C9 C 0.08017 0.02458 0.07063 0.0
O10 O 1.01537 0.07973 0.99612 0.0
O11 O 0.92245 0.05327 0.01274 0.0
O12 O 0.1613 0.0729 0.99322 0.0
O13 O 0.16382 0.02399 0.95926 0.0
O14 O 0.12869 0.03964 0.05808 0.0
O15 O 0.04278 0.01437 0.0448 0.0
O16 O 0.03909 0.94891 0.02856 0.0
O17 O 0.12164 0.97006 0.99747 0.0
C18 C 0.95281 0.08228 1.00449 0.0
C19 C 0.09678 0.94365 0.01396 0.0
Dy20 Dy 0.03352 0.97181 0.51015 0.0
C21 C 0.05014 0.12288 0.49524 0.0
C22 C 1.00684 0.90136 0.52262 0.0
Dy23 Dy 1.02382 0.05235 0.50761 0.0
O24 O 0.03002 0.91141 0.49407 0.0
O25 O 1.00177 0.92955 0.5452 0.0
O26 O 0.07602 0.96573 0.45753 0.0
O27 O 1.00275 1.00901 0.46702 0.0
C28 C 0.04257 0.99452 0.44498 0.0
C29 C 1.01608 0.02928 0.5729 0.0
O30 O 0.91491 0.04674 0.49505 0.0
O31 O 0.92329 0.98686 0.5126 0.0
O32 O 1.02689 0.11276 0.52374 0.0
O33 O 0.05557 0.0947 0.47268 0.0
O34 O 0.98238 0.05817 0.56069 0.0
O35 O 0.0553 0.0151 0.5505 0.0
O36 O 0.14247 0.97756 0.52276 0.0
O37 O 0.13403 0.03741 0.50505 0.0
C38 C 0.88663 0.01711 0.50334 0.0
C39 C 0.17072 1.00719 0.51439 0.0
Dy40 Dy 0.46488 0.49282 0.01472 0.0
C41 C 0.69197 0.55598 0.97956 0.0
C42 C 0.35384 0.46893 0.03853 0.0
Dy43 Dy 0.58084 0.5321 1.0033 0.0
O44 O 0.38113 0.45633 0.00993 0.0
O45 O 0.38769 0.49459 0.05424 0.0
O46 O 0.46938 0.46413 0.9608 0.0
O47 O 0.49593 0.51859 0.96839 0.0
C48 C 0.49325 0.49114 0.94654 0.0
C49 C 0.55214 0.53386 0.07144 0.0
O50 O 0.50435 0.57776 0.99053 0.0
O51 O 0.42159 0.55228 0.01694 0.0
O52 O 0.66469 0.56853 0.00818 0.0
O53 O 0.65803 0.53039 0.96378 0.0
O54 O 0.57584 0.56092 0.05715 0.0
O55 O 0.54988 0.50636 0.04963 0.0
O56 O 0.54111 0.44716 0.02755 0.0
O57 O 0.62419 0.47259 1.00135 0.0
C58 C 0.44532 0.58082 1.0034 0.0
C59 C 0.60024 0.44406 0.01482 0.0
Dy60 Dy 0.5319 0.47272 0.51021 0.0
C61 C 0.54789 0.62426 0.49521 0.0
C62 C 0.50571 0.40232 0.52302 0.0
Dy63 Dy 0.52178 0.55379 0.50792 0.0
O64 O 0.52875 0.41227 0.49438 0.0
O65 O 0.50049 0.4306 0.54548 0.0
O66 O 0.57253 0.46689 0.457 0.0
O67 O 0.50036 0.51035 0.46771 0.0
C68 C 0.53922 0.49608 0.44515 0.0
C69 C 0.51393 0.53034 0.57294 0.0
O70 O 0.41278 0.54779 0.49568 0.0
O71 O 0.42165 0.48759 0.51259 0.0
O72 O 0.52487 0.61424 0.52384 0.0
O73 O 0.55315 0.596 0.47271 0.0
O74 O 0.48072 0.55953 0.561 0.0
O75 O 0.55317 0.51621 0.5505 0.0
O76 O 0.64089 0.47862 0.52234 0.0
O77 O 0.63204 0.53883 0.50547 0.0
C78 C 0.38481 0.51791 0.50366 0.0
C79 C 0.66887 0.50848 0.51435 0.0
H80 H 0.47876 0.64515 0.97819 0.0
H81 H 0.41715 0.7057 0.98082 0.0
H82 H 0.26067 0.6598 0.03028 0.0
H83 H 0.32245 0.59904 0.02825 0.0
H84 H 0.29215 0.72855 0.95185 0.0
H85 H 0.30343 0.74717 0.09856 0.0
H86 H 0.3543 0.71179 0.0756 0.0
H87 H 0.26886 0.70558 0.08079 0.0
C88 C 0.43119 0.64779 0.9896 0.0
C89 C 0.40582 0.61713 1.00318 0.0
C90 C 0.396 0.68252 0.99108 0.0
C91 C 0.3348 0.68751 1.0063 0.0
C92 C 0.30847 0.65683 0.01912 0.0
H93 H 0.05877 0.88096 0.04082 0.0
H94 H 0.11592 0.81908 0.03864 0.0
C95 C 0.34369 0.62201 0.01769 0.0
C96 C 0.29869 0.72483 0.00844 0.0
H97 H 0.23905 0.79293 0.06659 0.0
C98 C 0.28063 0.74265 0.97694 0.0
C99 C 0.28359 0.74324 0.04119 0.0
C100 C 0.30398 0.72619 0.07602 0.0
C101 C 0.24728 0.77812 0.97723 0.0
C102 C 0.2327 0.79668 0.01 0.0
C103 C 0.2503 0.77875 0.0415 0.0
C104 C 0.19916 0.83467 0.01213 0.0
C105 C 0.22682 0.79506 0.94236 0.0
C106 C 0.22758 0.86431 0.99868 0.0
C107 C 0.19496 0.89978 0.99979 0.0
C108 C 0.13337 0.90649 0.01469 0.0
C109 C 0.10599 0.87692 0.02907 0.0
C110 C 0.1386 0.84144 0.02785 0.0
H111 H 0.22506 0.77378 0.92009 0.0
H112 H 0.17752 0.81061 0.94313 0.0
H113 H 0.26341 0.81456 0.93683 0.0
H114 H 0.27504 0.86001 0.98721 0.0
H115 H 0.21788 0.92186 0.98869 0.0
H116 H 0.72647 0.42648 0.99415 0.0
H117 H 0.78816 0.36567 0.99263 0.0
H118 H 0.62415 0.3184 0.03389 0.0
H119 H 0.56284 0.37897 0.03624 0.0
H120 H 0.74186 0.29357 0.0664 0.0
H121 H 0.75695 0.28095 0.92058 0.0
H122 H 0.79072 0.32148 0.94141 0.0
H123 H 0.70368 0.31621 0.94213 0.0
C124 C 0.70356 0.40317 1.003 0.0
C125 C 0.6395 0.40769 0.01519 0.0
C126 C 0.73874 0.36833 1.00185 0.0
C127 C 0.71032 0.33724 0.01248 0.0
C128 C 0.64702 0.34188 0.02536 0.0
H129 H 0.82512 0.10107 0.02235 0.0
H130 H 0.76603 0.16254 0.02423 0.0
C131 C 0.612 0.37664 0.02668 0.0
C132 C 0.74636 0.29987 0.01056 0.0
H133 H 0.81703 0.23426 0.9535 0.0
C134 C 0.7581 0.28057 0.04168 0.0
C135 C 0.76748 0.28281 0.97829 0.0
C136 C 0.7536 0.30122 0.94363 0.0
C137 C 0.79115 0.24503 0.04154 0.0
C138 C 0.81227 0.22802 0.00929 0.0
C139 C 0.80078 0.24732 0.97819 0.0
C140 C 0.84725 0.19043 1.00737 0.0
C141 C 0.80439 0.2263 0.07606 0.0
C142 C 0.91187 0.18543 0.99628 0.0
C143 C 0.94571 0.15032 0.99499 0.0
C144 C 0.9155 0.11927 1.00454 0.0
C145 C 0.85014 0.12427 0.01494 0.0
C146 C 0.81636 0.15948 0.01627 0.0
H147 H 0.79978 0.24628 0.09927 0.0
H148 H 0.76785 0.20557 0.07762 0.0
H149 H 0.85465 0.21173 0.07782 0.0
H150 H 0.93658 0.20885 0.9891 0.0
H151 H 0.99584 0.14766 0.98674 0.0
H152 H 0.12507 0.14111 0.44309 0.0
H153 H 0.20256 0.18951 0.44729 0.0
H154 H 0.13435 0.22795 0.54913 0.0
H155 H 0.05631 0.17994 0.54492 0.0
H156 H 0.15893 0.28529 0.5058 0.0
H157 H 0.37012 0.17817 0.5151 0.0
H158 H 0.31439 0.17303 0.47644 0.0
H159 H 0.28582 0.16804 0.51949 0.0
C160 C 0.12544 0.16048 0.46595 0.0
C161 C 0.08499 0.15667 0.49378 0.0
C162 C 0.17021 0.18783 0.46849 0.0
C163 C 0.17534 0.21166 0.49894 0.0
C164 C 0.1316 0.2096 0.52556 0.0
H165 H 0.4309 0.3845 0.5754 0.0
H166 H 0.35321 0.33621 0.57156 0.0
C167 C 0.08685 0.18227 0.52305 0.0
C168 C 0.22849 0.23739 0.504 0.0
H169 H 0.39652 0.24012 0.51332 0.0
C170 C 0.21087 0.27547 0.50753 0.0
C171 C 0.29623 0.22441 0.50646 0.0
C172 C 0.31804 0.18368 0.5045 0.0
C173 C 0.25923 0.30102 0.51269 0.0
C174 C 0.32698 0.28803 0.51509 0.0
C175 C 0.34458 0.24995 0.5116 0.0
C176 C 0.38016 0.31374 0.51996 0.0
C177 C 0.23742 0.34174 0.51465 0.0
C178 C 0.42382 0.3156 0.49325 0.0
C179 C 0.46868 0.34286 0.49557 0.0
C180 C 0.47075 0.3686 0.52471 0.0
C181 C 0.43038 0.36501 0.55263 0.0
C182 C 0.38548 0.33773 0.55029 0.0
H183 H 0.18529 0.34725 0.50413 0.0
H184 H 0.24121 0.35241 0.5427 0.0
H185 H 0.26954 0.35738 0.4996 0.0
H186 H 0.42093 0.29713 0.46978 0.0
H187 H 0.49915 0.34502 0.47363 0.0
H188 H 0.93066 0.88373 0.57445 0.0
H189 H 0.85343 0.83522 0.57039 0.0
H190 H 0.9232 0.79606 0.46905 0.0
H191 H 1.00088 0.84414 0.47317 0.0
H192 H 0.75291 0.83079 0.51683 0.0
H193 H 0.91459 0.7002 0.5181 0.0
H194 H 0.94445 0.74429 0.53284 0.0
H195 H 0.93469 0.73137 0.48634 0.0
C196 C 0.93097 0.86404 0.55185 0.0
C197 C 0.9719 0.8676 0.52417 0.0
C198 C 0.88651 0.83651 0.54944 0.0
C199 C 0.88269 0.81192 0.51948 0.0
C200 C 0.926 0.81429 0.49268 0.0
H201 H 0.62348 0.64195 0.44316 0.0
H202 H 0.70028 0.69067 0.44695 0.0
C203 C 0.97039 0.84181 0.49506 0.0
C204 C 0.82945 0.78618 0.51465 0.0
H205 H 0.80087 0.69521 0.5004 0.0
C206 C 0.76335 0.80111 0.51349 0.0
C207 C 0.84317 0.74753 0.50995 0.0
C208 C 0.91304 0.7298 0.51217 0.0
C209 C 0.7106 0.77846 0.50726 0.0
C210 C 0.72432 0.73981 0.50259 0.0
C211 C 0.79042 0.72489 0.50373 0.0
C212 C 0.67112 0.71404 0.49785 0.0
C213 C 0.64072 0.79619 0.50504 0.0
C214 C 0.62797 0.71167 0.52472 0.0
C215 C 0.58384 0.68403 0.5225 0.0
C216 C 0.58242 0.65813 0.49348 0.0
C217 C 0.62311 0.66172 0.4657 0.0
C218 C 0.66733 0.68936 0.46796 0.0
H219 H 0.63917 0.82577 0.49906 0.0
H220 H 0.60931 0.78166 0.4844 0.0
H221 H 0.6191 0.79465 0.53089 0.0
H222 H 0.63075 0.72997 0.5483 0.0
H223 H 0.5535 0.68169 0.54446 0.0
H224 H 0.26353 0.11104 0.9926 0.0
H225 H 0.38412 0.10514 0.99933 0.0
H226 H 0.38738 1.00751 0.92884 0.0
H227 H 0.26703 0.01334 0.92185 0.0
H228 H 0.41939 0.03682 0.0312 0.0
H229 H 0.56477 0.05059 0.91504 0.0
H230 H 0.48399 0.07447 0.91987 0.0
H231 H 0.49144 0.02646 0.90539 0.0
C232 C 0.2901 0.08954 0.97698 0.0
C233 C 0.25651 0.06184 0.95772 0.0
C234 C 0.35895 0.08623 0.98086 0.0
C235 C 0.39418 0.05555 0.96509 0.0
C236 C 0.36093 0.03146 0.94111 0.0
H237 H 0.76205 0.92872 1.00172 0.0
H238 H 0.64395 0.94502 0.98942 0.0
C239 C 0.29208 0.03473 0.93725 0.0
C240 C 0.45959 0.04283 0.98094 0.0
H241 H 0.6172 0.0148 0.96153 0.0
C242 C 0.46308 0.03252 0.0162 0.0
C243 C 0.51554 0.03662 0.96097 0.0
C244 C 0.51416 0.04787 0.92329 0.0
C245 C 0.52104 0.01522 0.03183 0.0
C246 C 0.57684 1.00864 0.01173 0.0
C247 C 0.5737 0.01949 0.97665 0.0
C248 C 0.6405 0.99233 0.02685 0.0
C249 C 0.52158 1.00322 0.06925 0.0
C250 C 0.67582 1.01199 0.05383 0.0
C251 C 0.74302 1.0025 0.06116 0.0
C252 C 0.77535 0.97374 0.04104 0.0
C253 C 0.73812 0.9512 0.01735 0.0
C254 C 0.67089 0.96061 0.01014 0.0
H255 H 0.4707 1.00109 0.07739 0.0
H256 H 0.55035 0.97614 0.07222 0.0
H257 H 0.54527 0.02391 0.0876 0.0
H258 H 0.65318 0.03672 0.06681 0.0
H259 H 0.77077 0.0202 0.07966 0.0
H260 H 0.24259 0.064 0.49907 0.0
H261 H 0.362 0.06482 0.49706 0.0
H262 H 0.38839 0.95246 0.52858 0.0
H263 H 0.26799 0.95117 0.53005 0.0
H264 H 0.46286 0.05728 0.54664 0.0
H265 H 0.49688 0.94437 0.44324 0.0
H266 H 0.41621 0.96503 0.45341 0.0
H267 H 0.4587 0.93093 0.48114 0.0
C268 C 0.27342 0.03926 0.50555 0.0
C269 C 0.24479 1.00738 0.51456 0.0
C270 C 0.34224 0.03985 0.50441 0.0
C271 C 0.3851 1.00855 0.51203 0.0
C272 C 0.35689 0.9768 0.52168 0.0
H273 H 0.81458 0.96047 0.51888 0.0
H274 H 0.69513 0.9598 0.52092 0.0
C275 C 0.28774 0.97617 0.52281 0.0
C276 C 0.45885 1.00968 0.51022 0.0
H277 H 0.59442 0.96736 0.47114 0.0
C278 C 0.49144 0.03763 0.53 0.0
C279 C 0.49697 0.98425 0.48851 0.0
C280 C 0.46545 0.95466 0.46509 0.0
C281 C 0.56031 0.04039 0.52928 0.0
C282 C 0.59843 0.01495 0.50758 0.0
C283 C 0.56584 0.987 0.48779 0.0
C284 C 0.67221 0.01602 0.50581 0.0
C285 C 0.59184 0.07 0.55267 0.0
C286 C 0.70052 0.04771 0.49608 0.0
C287 C 0.76968 0.04825 0.49492 0.0
C288 C 0.81255 0.01702 0.50322 0.0
C289 C 0.78382 0.98521 0.51233 0.0
C290 C 0.71499 0.98471 0.5135 0.0
H291 H 0.56036 0.08036 0.57447 0.0
H292 H 0.64102 0.0596 0.5644 0.0
H293 H 0.59871 0.09367 0.53658 0.0
H294 H 0.66909 0.07206 0.48914 0.0
H295 H 0.78951 0.0732 0.48762 0.0
H296 H 0.7731 0.6027 0.01566 0.0
H297 H 0.89306 0.59075 0.02361 0.0
H298 H 0.88691 0.5047 0.94027 0.0
H299 H 0.76721 0.51679 0.93191 0.0
H300 H 0.92553 0.51793 0.04525 0.0
H301 H 0.06579 0.54742 0.93125 0.0
H302 H 0.98592 0.57071 0.93962 0.0
H303 H 0.99156 0.52468 0.91947 0.0
C304 C 0.79778 0.58255 0.99783 0.0
C305 C 0.76128 0.55995 0.97383 0.0
C306 C 0.86615 0.57571 1.00247 0.0
C307 C 0.89824 0.54655 0.98286 0.0
C308 C 0.86287 0.52749 0.95546 0.0
H309 H 0.27279 0.42211 1.00252 0.0
H310 H 0.15281 0.43399 0.9946 0.0
C311 C 0.79446 0.53438 0.95076 0.0
C312 C 0.96348 0.53066 0.99611 0.0
H313 H 0.12033 0.50682 0.97293 0.0
C314 C 0.96847 0.51577 0.02964 0.0
C315 C 1.01846 0.52741 0.9753 0.0
C316 C 1.01559 0.54365 0.93951 0.0
C317 C 0.0274 0.49734 0.04288 0.0
C318 C 0.08238 0.4941 0.02207 0.0
C319 C 0.07739 0.50897 0.98854 0.0
C320 C 0.14762 0.47821 0.03533 0.0
C321 C 0.03028 0.4811 0.07867 0.0
C322 C 0.18298 0.49731 0.0627 0.0
C323 C 0.25139 0.49045 0.06739 0.0
C324 C 0.28458 0.46489 0.04432 0.0
C325 C 0.2481 0.44225 0.02035 0.0
C326 C 0.17972 0.44905 0.01573 0.0
H327 H 0.98008 0.47733 0.08694 0.0
H328 H 0.05993 0.45403 0.07856 0.0
H329 H 0.05433 0.50005 0.09871 0.0
H330 H 0.15892 0.5201 0.07789 0.0
H331 H 0.27863 0.50808 0.08622 0.0
H332 H 0.28726 0.57491 0.49197 0.0
H333 H 0.16693 0.5733 0.4943 0.0
H334 H 0.194 0.45809 0.51644 0.0
H335 H 0.31327 0.45955 0.51474 0.0
H336 H 0.07515 0.53298 0.45564 0.0
H337 H 0.08132 0.49709 0.59567 0.0
H338 H 0.15245 0.51213 0.57651 0.0
H339 H 0.1317 0.46502 0.56932 0.0
C340 C 0.26766 0.54923 0.49737 0.0
C341 C 0.31077 0.51749 0.50341 0.0
C342 C 0.19858 0.54832 0.49872 0.0
C343 C 0.17068 0.51576 0.50637 0.0
C344 C 0.21363 0.4839 0.51152 0.0
H345 H 0.76623 0.45142 0.52612 0.0
H346 H 0.88656 0.45282 0.52363 0.0
C347 C 0.28235 0.48478 0.51024 0.0
C348 C 0.097 0.51471 0.50841 0.0
H349 H 0.97857 0.49295 0.56199 0.0
C350 C 0.05417 0.52447 0.47903 0.0
C351 C 0.06877 0.50338 0.53876 0.0
C352 C 0.11082 0.49415 0.57198 0.0
C353 C 0.98495 0.52254 0.47886 0.0
C354 C 0.9567 0.51124 0.50923 0.0
C355 C 0.99954 0.50146 0.5386 0.0
C356 C 0.883 0.51029 0.51131 0.0
C357 C 0.94292 0.5317 0.44561 0.0
C358 C 0.84015 0.54217 0.50606 0.0
C359 C 0.77143 0.54141 0.50743 0.0
C360 C 0.74291 0.5088 0.51446 0.0
C361 C 0.78591 0.47703 0.52057 0.0
C362 C 0.85499 0.47782 0.51913 0.0
H363 H 0.97241 0.52859 0.42192 0.0
H364 H 0.90118 0.51378 0.44116 0.0
H365 H 0.92222 0.56086 0.44817 0.0
H366 H 0.85988 0.56791 0.50101 0.0
H367 H 0.74059 0.56664 0.50286 0.0
H368 H 0.13085 0.96759 0.39816 0.0
H369 H 0.1276 0.97642 0.33484 0.0
H370 H 0.94781 0.04757 0.34217 0.0
H371 H 0.9518 0.0394 0.40629 0.0
H372 H 0.03382 0.95698 0.28477 0.0
H373 H 0.05769 0.10799 0.28573 0.0
H374 H 0.07398 0.08224 0.32504 0.0
H375 H 0.99027 0.09491 0.30904 0.0
C376 C 0.09089 0.98544 0.38641 0.0
C377 C 0.0415 1.00276 0.40717 0.0
C378 C 0.08902 0.9904 0.35014 0.0
C379 C 0.03768 0.01277 0.33361 0.0
C380 C 0.98857 0.03065 0.35436 0.0
H381 H 0.97892 0.99513 0.10035 0.0
H382 H 0.9613 0.99351 0.16353 0.0
C383 C 0.9907 0.02588 0.39094 0.0
C384 C 0.0353 0.01581 0.2945 0.0
H385 H 0.04306 0.07641 0.22979 0.0
C386 C 0.03548 0.98314 0.27273 0.0
C387 C 0.03797 0.04989 0.27879 0.0
C388 C 0.04055 0.08577 0.30078 0.0
C389 C 0.03973 0.98344 0.23592 0.0
C390 C 0.04222 0.01753 0.22014 0.0
C391 C 0.04076 0.05031 0.24182 0.0
C392 C 0.05059 0.01956 0.18159 0.0
C393 C 0.04434 0.94705 0.21454 0.0
C394 C 0.10552 0.0356 0.17052 0.0
C395 C 0.11496 0.03703 0.13447 0.0
C396 C 0.06964 0.0225 0.10866 0.0
C397 C 1.01447 1.00662 0.11964 0.0
C398 C 1.00472 1.00542 0.15577 0.0
H399 H 0.05866 0.92348 0.23155 0.0
H400 H 0.99536 0.9425 0.20084 0.0
H401 H 0.08093 0.94699 0.19419 0.0
H402 H 0.14162 0.04669 0.18985 0.0
H403 H 0.15792 0.0495 0.12682 0.0
H404 H 0.98397 0.93524 0.89583 0.0
H405 H 0.99903 0.93659 0.83254 0.0
H406 H 0.04825 0.04974 0.84767 0.0
H407 H 0.03484 0.04815 0.91132 0.0
H408 H 0.92855 0.97866 0.78634 0.0
H409 H 0.1917 1.007 0.78555 0.0
H410 H 0.15661 0.99291 0.82448 0.0
H411 H 0.14534 0.04031 0.81274 0.0
C412 C 0.99888 0.96026 0.88573 0.0
C413 C 1.00807 0.99162 0.90847 0.0
C414 C 1.00746 0.961 0.84954 0.0
C415 C 1.02546 0.99312 0.83523 0.0
C416 C 0.03584 0.02434 0.85808 0.0
H417 H 0.93855 0.06142 0.62311 0.0
H418 H 0.94342 0.04969 0.68594 0.0
C419 C 0.02767 0.02352 0.89442 0.0
C420 C 0.02818 0.99464 0.79617 0.0
H421 H 0.1252 0.01543 0.7313 0.0
C422 C 0.97186 0.98637 0.77436 0.0
C423 C 0.0849 1.00419 0.78031 0.0
C424 C 0.1483 1.01124 0.80194 0.0
C425 C 0.96992 0.9885 0.73744 0.0
C426 C 1.02532 0.99992 0.72177 0.0
C427 C 0.08252 1.00699 0.74335 0.0
C428 C 1.02319 1.00655 0.68336 0.0
C429 C 0.90838 0.97846 0.71551 0.0
C430 C 0.0673 0.98665 0.66095 0.0
C431 C 0.06472 0.9934 0.62478 0.0
C432 C 1.01843 0.02045 0.61061 0.0
C433 C 0.97463 0.04031 0.63318 0.0
C434 C 0.97715 0.03353 0.66912 0.0
H435 H 0.87941 0.96013 0.72963 0.0
H436 H 0.87638 1.00401 0.71014 0.0
H437 H 0.92085 0.96443 0.68975 0.0
H438 H 0.10343 0.9658 0.67142 0.0
H439 H 0.0992 0.97777 0.60801 0.0
H440 H 0.61835 0.46532 0.3951 0.0
H441 H 0.61354 0.47761 0.33239 0.0
H442 H 0.45107 0.55991 0.34709 0.0
H443 H 0.45536 0.54745 0.41038 0.0
H444 H 0.43092 0.50928 0.28751 0.0
H445 H 0.67333 0.56839 0.28828 0.0
H446 H 0.67833 0.52469 0.30825 0.0
H447 H 0.6323 0.5639 0.32827 0.0
C448 C 0.5818 0.48623 0.3851 0.0
C449 C 0.53724 0.50546 0.40764 0.0
C450 C 0.57933 0.49334 0.34925 0.0
C451 C 0.53251 0.51998 0.33511 0.0
C452 C 0.48781 0.53934 0.35752 0.0
H453 H 0.5606 0.5907 0.12108 0.0
H454 H 0.549 0.5896 0.18477 0.0
C455 C 0.49041 0.5323 0.39361 0.0
C456 C 0.52972 0.52652 0.2967 0.0
H457 H 0.62454 0.54892 0.23172 0.0
C458 C 0.47291 0.51835 0.27531 0.0
C459 C 0.58425 0.53873 0.28085 0.0
C460 C 0.64528 0.54979 0.30262 0.0
C461 C 0.47015 0.52079 0.23832 0.0
C462 C 0.52608 0.53112 0.22229 0.0
C463 C 0.58191 0.54057 0.24389 0.0
C464 C 0.52834 0.53213 0.1832 0.0
C465 C 0.40726 0.51241 0.21681 0.0
C466 C 0.52051 0.5002 0.16099 0.0
C467 C 0.52692 0.50082 0.12448 0.0
C468 C 0.54202 0.53327 0.10963 0.0
C469 C 0.54915 0.56525 0.13181 0.0
C470 C 0.54251 0.56466 0.16821 0.0
H471 H 0.36389 0.51576 0.23325 0.0
H472 H 0.3976 0.53061 0.19423 0.0
H473 H 0.41207 0.48334 0.20605 0.0
H474 H 0.51103 0.47454 0.17198 0.0
H475 H 0.52132 0.47574 0.10802 0.0
H476 H 0.43634 0.56251 0.62297 0.0
H477 H 0.44056 0.55067 0.68571 0.0
H478 H 0.59826 0.46536 0.67105 0.0
H479 H 0.59484 0.47757 0.60774 0.0
H480 H 0.42118 0.48717 0.71794 0.0
H481 H 0.67401 0.53111 0.75363 0.0
H482 H 0.62909 0.54131 0.71207 0.0
H483 H 0.6677 0.49579 0.71856 0.0
C484 C 0.47204 0.54121 0.63303 0.0
C485 C 0.51565 0.52116 0.6105 0.0
C486 C 0.47431 0.53445 0.66894 0.0
C487 C 0.52032 0.50752 0.68327 0.0
C488 C 0.56319 0.48678 0.66072 0.0
H489 H 0.48406 0.43453 0.8966 0.0
H490 H 0.49504 0.43604 0.83285 0.0
C491 C 0.56092 0.49358 0.62456 0.0
C492 C 0.52212 0.50144 0.72179 0.0
H493 H 0.61738 0.50976 0.79957 0.0
C494 C 0.46425 0.49183 0.73576 0.0
C495 C 0.57805 0.50806 0.74507 0.0
C496 C 0.64067 0.51994 0.73178 0.0
C497 C 0.46042 0.48907 0.77233 0.0
C498 C 0.51649 0.49538 0.79563 0.0
C499 C 0.57461 0.50469 0.78167 0.0
C500 C 0.51471 0.49366 0.83465 0.0
C501 C 0.39552 0.4807 0.78577 0.0
C502 C 0.52462 0.52516 0.85711 0.0
C503 C 0.51884 0.52428 0.89365 0.0
C504 C 0.50311 0.49185 0.90832 0.0
C505 C 0.49542 0.46004 0.88597 0.0
C506 C 0.50144 0.46089 0.84952 0.0
H507 H 0.35351 0.48577 0.76576 0.0
H508 H 0.39819 0.45118 0.79194 0.0
H509 H 0.38501 0.4977 0.81033 0.0
H510 H 0.53528 0.5507 0.84626 0.0
H511 H 0.52551 0.54914 0.91029 0.0
loop_
_geom_bond_atom_site_label_1
_geom_bond_atom_site_label_2
_geom_bond_distance
_geom_bond_site_symmetry_2
_ccdc_geom_bond_type
Dy0 O4 2.398 . S
Dy0 O5 2.491 1_566 S
Dy0 O6 2.403 . S
Dy0 O7 2.677 1_655 S
Dy0 O11 2.326 1_565 S
Dy0 O15 2.310 1_566 S
Dy0 O16 2.351 1_655 S
C1 O12 1.185 . S
C1 O13 1.355 1_544 S
C2 O4 1.185 . S
C2 O5 1.355 1_566 S
Dy3 O7 2.296 1_544 S
Dy3 O10 2.351 1_455 S
Dy3 O12 2.398 . S
Dy3 O13 2.491 1_544 S
Dy3 O14 2.403 . S
Dy3 O15 2.664 1_455 S
Dy3 O17 2.326 1_545 S
O4 Dy0 2.398 . S
O4 C2 1.185 . S
O5 Dy0 2.491 1_544 S
O5 C2 1.355 1_544 S
O6 Dy0 2.403 . S
O6 C8 1.254 . S
O7 Dy0 2.677 1_455 S
O7 Dy3 2.296 1_566 S
O7 C8 1.274 1_455 S
C8 O6 1.254 . S
C8 O7 1.274 1_655 S
C9 O14 1.254 . S
C9 O15 1.268 1_455 S
O10 Dy3 2.351 1_655 S
O10 C18 1.249 1_554 S
O11 Dy0 2.326 1_545 S
O11 C18 1.267 . S
O12 C1 1.185 . S
O12 Dy3 2.398 . S
O13 C1 1.355 1_566 S
O13 Dy3 2.491 1_566 S
O14 Dy3 2.403 . S
O14 C9 1.254 . S
O15 Dy0 2.310 1_544 S
O15 Dy3 2.664 1_655 S
O15 C9 1.268 1_655 S
O16 Dy0 2.351 1_455 S
O16 C19 1.249 1_556 S
O17 Dy3 2.326 1_565 S
O17 C19 1.267 . S
C18 O10 1.249 1_556 S
C18 O11 1.267 . S
C19 O16 1.249 1_554 S
C19 O17 1.267 . S
Dy20 O24 2.398 1_455 S
Dy20 O25 2.491 1_455 S
Dy20 O26 2.403 1_455 S
Dy20 O27 2.664 1_565 S
Dy20 O31 2.326 1_455 S
Dy20 O35 2.310 1_455 S
Dy20 O36 2.351 . S
C21 O32 1.185 . S
C21 O33 1.355 . S
C22 O24 1.185 . S
C22 O25 1.355 . S
Dy23 O27 2.310 1_655 S
Dy23 O30 2.351 . S
Dy23 O32 2.398 1_655 S
Dy23 O33 2.491 1_655 S
Dy23 O34 2.403 1_655 S
Dy23 O35 2.664 1_545 S
Dy23 O37 2.326 1_655 S
O24 Dy20 2.398 1_655 S
O24 C22 1.185 . S
O25 Dy20 2.491 1_655 S
O25 C22 1.355 . S
O26 Dy20 2.403 1_655 S
O26 C28 1.250 1_655 S
O27 Dy20 2.664 1_545 S
O27 Dy23 2.310 1_455 S
O27 C28 1.270 1_545 S
C28 O26 1.250 1_455 S
C28 O27 1.270 1_565 S
C29 O34 1.251 1_655 S
C29 O35 1.269 1_545 S
O30 Dy23 2.351 . S
O30 C38 1.249 . S
O31 Dy20 2.326 1_655 S
O31 C38 1.267 1_565 S
O32 C21 1.185 . S
O32 Dy23 2.398 1_455 S
O33 C21 1.355 . S
O33 Dy23 2.491 1_455 S
O34 Dy23 2.403 1_455 S
O34 C29 1.251 1_455 S
O35 Dy20 2.310 1_655 S
O35 Dy23 2.664 1_565 S
O35 C29 1.269 1_565 S
O36 Dy20 2.351 . S
O36 C39 1.249 . S
O37 Dy23 2.326 1_455 S
O37 C39 1.267 1_545 S
C38 O30 1.249 . S
C38 O31 1.267 1_545 S
C39 O36 1.249 . S
C39 O37 1.267 1_565 S
Dy40 O44 2.398 . S
Dy40 O45 2.491 1_556 S
Dy40 O46 2.403 . S
Dy40 O47 2.664 . S
Dy40 O51 2.326 . S
Dy40 O55 2.310 1_556 S
Dy40 O56 2.351 . S
C41 O52 1.185 . S
C41 O53 1.355 1_554 S
C42 O44 1.185 . S
C42 O45 1.355 1_556 S
Dy43 O47 2.310 1_554 S
Dy43 O50 2.351 . S
Dy43 O52 2.398 . S
Dy43 O53 2.491 1_554 S
Dy43 O54 2.403 . S
Dy43 O55 2.664 . S
Dy43 O57 2.326 . S
O44 Dy40 2.398 . S
O44 C42 1.185 . S
O45 Dy40 2.491 1_554 S
O45 C42 1.355 1_554 S
O46 Dy40 2.403 . S
O46 C48 1.254 . S
O47 Dy40 2.664 . S
O47 Dy43 2.310 1_556 S
O47 C48 1.268 . S
C48 O46 1.254 . S
C48 O47 1.268 . S
C49 O54 1.254 . S
C49 O55 1.268 . S
O50 Dy43 2.351 . S
O50 C58 1.249 1_554 S
O51 Dy40 2.326 . S
O51 C58 1.267 . S
O52 C41 1.185 . S
O52 Dy43 2.398 . S
O53 C41 1.355 1_556 S
O53 Dy43 2.491 1_556 S
O54 Dy43 2.403 . S
O54 C49 1.254 . S
O55 Dy40 2.310 1_554 S
O55 Dy43 2.664 . S
O55 C49 1.268 . S
O56 Dy40 2.351 . S
O56 C59 1.249 1_556 S
O57 Dy43 2.326 . S
O57 C59 1.267 . S
C58 O50 1.249 1_556 S
C58 O51 1.267 . S
C59 O56 1.249 1_554 S
C59 O57 1.267 . S
Dy60 O64 2.398 . S
Dy60 O65 2.491 . S
Dy60 O66 2.403 . S
Dy60 O67 2.664 . S
Dy60 O71 2.326 . S
Dy60 O75 2.310 . S
Dy60 O76 2.351 . S
C61 O72 1.185 . S
C61 O73 1.355 . S
C62 O64 1.185 . S
C62 O65 1.355 . S
Dy63 O67 2.310 . S
Dy63 O70 2.351 . S
Dy63 O72 2.398 . S
Dy63 O73 2.491 . S
Dy63 O74 2.403 . S
Dy63 O75 2.664 . S
Dy63 O77 2.326 . S
O64 Dy60 2.398 . S
O64 C62 1.185 . S
O65 Dy60 2.491 . S
O65 C62 1.355 . S
O66 Dy60 2.403 . S
O66 C68 1.254 . S
O67 Dy60 2.664 . S
O67 Dy63 2.310 . S
O67 C68 1.268 . S
C68 O66 1.254 . S
C68 O67 1.268 . S
C69 O74 1.254 . S
C69 O75 1.268 . S
O70 Dy63 2.351 . S
O70 C78 1.249 . S
O71 Dy60 2.326 . S
O71 C78 1.267 . S
O72 C61 1.185 . S
O72 Dy63 2.398 . S
O73 C61 1.355 . S
O73 Dy63 2.491 . S
O74 Dy63 2.403 . S
O74 C69 1.254 . S
O75 Dy60 2.310 . S
O75 Dy63 2.664 . S
O75 C69 1.268 . S
O76 Dy60 2.351 . S
O76 C79 1.249 . S
O77 Dy63 2.326 . S
O77 C79 1.267 . S
C78 O70 1.249 . S
C78 O71 1.267 . S
C79 O76 1.249 . S
C79 O77 1.267 . S
H80 C88 0.929 . S
H81 C90 0.930 . S
H82 C92 0.930 . S
H83 C95 0.929 . S
H84 C98 0.930 . S
H85 C100 0.960 . S
H86 C100 0.960 . S
H87 C100 0.960 . S
C88 H80 0.929 . S
C88 C89 1.377 . S
C88 C90 1.384 . S
C89 C88 1.377 . S
C89 C95 1.390 1_554 S
C90 H81 0.930 . S
C90 C88 1.384 . S
C90 C91 1.372 . S
C91 C90 1.372 . S
C91 C92 1.400 1_554 S
C91 C96 1.490 . S
C92 H82 0.930 . S
C92 C91 1.400 1_556 S
C92 C95 1.386 . S
H93 C109 0.930 . S
H94 C110 0.931 . S
C95 H83 0.929 . S
C95 C89 1.390 1_556 S
C95 C92 1.386 . S
C96 C91 1.490 . S
C96 C98 1.387 1_554 S
C96 C99 1.410 . S
H97 C103 0.930 . S
C98 H84 0.930 . S
C98 C96 1.387 1_556 S
C98 C101 1.403 . S
C99 C96 1.410 . S
C99 C100 1.524 . S
C99 C103 1.400 . S
C100 H85 0.960 . S
C100 H86 0.960 . S
C100 H87 0.960 . S
C100 C99 1.524 . S
C101 C98 1.403 . S
C101 C102 1.392 . S
C101 C105 1.495 . S
C102 C101 1.392 . S
C102 C103 1.385 1_556 S
C102 C104 1.478 . S
C103 H97 0.930 . S
C103 C99 1.400 . S
C103 C102 1.385 1_554 S
C104 C102 1.478 . S
C104 C106 1.381 1_556 S
C104 C110 1.383 . S
C105 C101 1.495 . S
C105 H111 0.959 . S
C105 H112 0.961 . S
C105 H113 0.960 . S
C106 C104 1.381 1_554 S
C106 C107 1.394 . S
C106 H114 0.930 . S
C107 C106 1.394 . S
C107 C108 1.383 1_554 S
C107 H115 0.929 . S
C108 C107 1.383 1_556 S
C108 C109 1.377 . S
C109 H93 0.930 . S
C109 C108 1.377 . S
C109 C110 1.379 . S
C110 H94 0.931 . S
C110 C104 1.383 . S
C110 C109 1.379 . S
H111 C105 0.959 . S
H112 C105 0.961 . S
H113 C105 0.960 . S
H114 C106 0.930 . S
H115 C107 0.929 . S
H116 C124 0.929 . S
H117 C126 0.930 . S
H118 C128 0.930 . S
H119 C131 0.929 . S
H120 C134 0.930 . S
H121 C136 0.960 . S
H122 C136 0.960 . S
H123 C136 0.960 . S
C124 H116 0.929 . S
C124 C125 1.357 1_554 S
C124 C126 1.384 . S
C125 C124 1.357 1_556 S
C125 C131 1.411 . S
C126 H117 0.930 . S
C126 C124 1.384 . S
C126 C127 1.372 . S
C127 C126 1.372 . S
C127 C128 1.400 1_554 S
C127 C132 1.490 . S
C128 H118 0.930 . S
C128 C127 1.400 1_556 S
C128 C131 1.386 . S
H129 C145 0.930 . S
H130 C146 0.931 . S
C131 H119 0.929 . S
C131 C125 1.411 . S
C131 C128 1.386 . S
C132 C127 1.490 . S
C132 C134 1.395 . S
C132 C135 1.403 1_554 S
H133 C139 0.930 . S
C134 H120 0.930 . S
C134 C132 1.395 . S
C134 C137 1.403 . S
C135 C132 1.403 1_556 S
C135 C136 1.524 . S
C135 C139 1.400 . S
C136 H121 0.960 . S
C136 H122 0.960 . S
C136 H123 0.960 . S
C136 C135 1.524 . S
C137 C134 1.403 . S
C137 C138 1.392 . S
C137 C141 1.495 . S
C138 C137 1.392 . S
C138 C139 1.385 1_554 S
C138 C140 1.478 . S
C139 H133 0.930 . S
C139 C135 1.400 . S
C139 C138 1.385 1_556 S
C140 C138 1.478 . S
C140 C142 1.381 . S
C140 C146 1.383 1_554 S
C141 C137 1.495 . S
C141 H147 0.959 . S
C141 H148 0.961 . S
C141 H149 0.960 . S
C142 C140 1.381 . S
C142 C143 1.394 . S
C142 H150 0.930 . S
C143 C142 1.394 . S
C143 C144 1.383 . S
C143 H151 0.929 . S
C144 C143 1.383 . S
C144 C145 1.377 1_554 S
C145 H129 0.930 . S
C145 C144 1.377 1_556 S
C145 C146 1.379 . S
C146 H130 0.931 . S
C146 C140 1.383 1_556 S
C146 C145 1.379 . S
H147 C141 0.959 . S
H148 C141 0.961 . S
H149 C141 0.960 . S
H150 C142 0.930 . S
H151 C143 0.929 . S
H152 C160 0.929 . S
H153 C162 0.930 . S
H154 C164 0.930 . S
H155 C167 0.929 . S
H156 C170 0.930 . S
H157 C172 0.960 . S
H158 C172 0.960 . S
H159 C172 0.960 . S
C160 H152 0.929 . S
C160 C161 1.377 . S
C160 C162 1.384 . S
C161 C160 1.377 . S
C161 C167 1.390 . S
C162 H153 0.930 . S
C162 C160 1.384 . S
C162 C163 1.372 . S
C163 C162 1.372 . S
C163 C164 1.400 . S
C163 C168 1.490 . S
C164 H154 0.930 . S
C164 C163 1.400 . S
C164 C167 1.386 . S
H165 C181 0.930 . S
H166 C182 0.931 . S
C167 H155 0.929 . S
C167 C161 1.390 . S
C167 C164 1.386 . S
C168 C163 1.490 . S
C168 C170 1.395 . S
C168 C171 1.403 . S
H169 C175 0.930 . S
C170 H156 0.930 . S
C170 C168 1.395 . S
C170 C173 1.403 . S
C171 C168 1.403 . S
C171 C172 1.524 . S
C171 C175 1.400 . S
C172 H157 0.960 . S
C172 H158 0.960 . S
C172 H159 0.960 . S
C172 C171 1.524 . S
C173 C170 1.403 . S
C173 C174 1.392 . S
C173 C177 1.495 . S
C174 C173 1.392 . S
C174 C175 1.385 . S
C174 C176 1.478 . S
C175 H169 0.930 . S
C175 C171 1.400 . S
C175 C174 1.385 . S
C176 C174 1.478 . S
C176 C178 1.381 . S
C176 C182 1.383 . S
C177 C173 1.495 . S
C177 H183 0.959 . S
C177 H184 0.961 . S
C177 H185 0.960 . S
C178 C176 1.381 . S
C178 C179 1.394 . S
C178 H186 0.930 . S
C179 C178 1.394 . S
C179 C180 1.383 . S
C179 H187 0.929 . S
C180 C179 1.383 . S
C180 C181 1.377 . S
C181 H165 0.930 . S
C181 C180 1.377 . S
C181 C182 1.379 . S
C182 H166 0.931 . S
C182 C176 1.383 . S
C182 C181 1.379 . S
H183 C177 0.959 . S
H184 C177 0.961 . S
H185 C177 0.960 . S
H186 C178 0.930 . S
H187 C179 0.929 . S
H188 C196 0.929 . S
H189 C198 0.930 . S
H190 C200 0.930 . S
H191 C203 0.929 . S
H192 C206 0.930 . S
H193 C208 0.960 . S
H194 C208 0.960 . S
H195 C208 0.960 . S
C196 H188 0.929 . S
C196 C197 1.377 . S
C196 C198 1.384 . S
C197 C196 1.377 . S
C197 C203 1.390 . S
C198 H189 0.930 . S
C198 C196 1.384 . S
C198 C199 1.372 . S
C199 C198 1.372 . S
C199 C200 1.400 . S
C199 C204 1.490 . S
C200 H190 0.930 . S
C200 C199 1.400 . S
C200 C203 1.386 . S
H201 C217 0.930 . S
H202 C218 0.931 . S
C203 H191 0.929 . S
C203 C197 1.390 . S
C203 C200 1.386 . S
C204 C199 1.490 . S
C204 C206 1.395 . S
C204 C207 1.403 . S
H205 C211 0.930 . S
C206 H192 0.930 . S
C206 C204 1.395 . S
C206 C209 1.403 . S
C207 C204 1.403 . S
C207 C208 1.524 . S
C207 C211 1.400 . S
C208 H193 0.960 . S
C208 H194 0.960 . S
C208 H195 0.960 . S
C208 C207 1.524 . S
C209 C206 1.403 . S
C209 C210 1.392 . S
C209 C213 1.495 . S
C210 C209 1.392 . S
C210 C211 1.385 . S
C210 C212 1.478 . S
C211 H205 0.930 . S
C211 C207 1.400 . S
C211 C210 1.385 . S
C212 C210 1.478 . S
C212 C214 1.381 . S
C212 C218 1.383 . S
C213 C209 1.495 . S
C213 H219 0.959 . S
C213 H220 0.961 . S
C213 H221 0.960 . S
C214 C212 1.381 . S
C214 C215 1.394 . S
C214 H222 0.930 . S
C215 C214 1.394 . S
C215 C216 1.383 . S
C215 H223 0.929 . S
C216 C215 1.383 . S
C216 C217 1.377 . S
C217 H201 0.930 . S
C217 C216 1.377 . S
C217 C218 1.379 . S
C218 H202 0.931 . S
C218 C212 1.383 . S
C218 C217 1.379 . S
H219 C213 0.959 . S
H220 C213 0.961 . S
H221 C213 0.960 . S
H222 C214 0.930 . S
H223 C215 0.929 . S
H224 C232 0.929 . S
H225 C234 0.930 . S
H226 C236 0.930 . S
H227 C239 0.929 . S
H228 C242 0.930 . S
H229 C244 0.960 . S
H230 C244 0.960 . S
H231 C244 0.960 . S
C232 H224 0.929 . S
C232 C233 1.398 1_545 S
C232 C234 1.384 . S
C233 C232 1.398 1_565 S
C233 C239 1.367 1_554 S
C234 H225 0.930 . S
C234 C232 1.384 . S
C234 C235 1.362 1_545 S
C235 C234 1.362 1_565 S
C235 C236 1.413 1_554 S
C235 C240 1.488 . S
C236 H226 0.930 . S
C236 C235 1.413 1_556 S
C236 C239 1.386 . S
H237 C253 0.930 . S
H238 C254 0.931 . S
C239 H227 0.929 . S
C239 C233 1.367 1_556 S
C239 C236 1.386 . S
C240 C235 1.488 . S
C240 C242 1.400 . S
C240 C243 1.396 1_564 S
H241 C247 0.930 . S
C242 H228 0.930 . S
C242 C240 1.400 . S
C242 C245 1.403 . S
C243 C240 1.396 1_546 S
C243 C244 1.524 . S
C243 C247 1.400 . S
C244 H229 0.960 . S
C244 H230 0.960 . S
C244 H231 0.960 . S
C244 C243 1.524 . S
C245 C242 1.403 . S
C245 C246 1.392 . S
C245 C249 1.495 . S
C246 C245 1.392 . S
C246 C247 1.385 1_564 S
C246 C248 1.478 . S
C247 H241 0.930 . S
C247 C243 1.400 . S
C247 C246 1.385 1_546 S
C248 C246 1.478 . S
C248 C250 1.381 1_565 S
C248 C254 1.383 1_554 S
C249 C245 1.495 . S
C249 H255 0.959 . S
C249 H256 0.961 . S
C249 H257 0.960 . S
C250 C248 1.381 1_545 S
C250 C251 1.394 . S
C250 H258 0.930 . S
C251 C250 1.394 . S
C251 C252 1.383 . S
C251 H259 0.929 . S
C252 C251 1.383 . S
C252 C253 1.377 1_544 S
C253 H237 0.930 . S
C253 C252 1.377 1_566 S
C253 C254 1.379 . S
C254 H238 0.931 . S
C254 C248 1.383 1_556 S
C254 C253 1.379 . S
H255 C249 0.959 . S
H256 C249 0.961 . S
H257 C249 0.960 . S
H258 C250 0.930 . S
H259 C251 0.929 . S
H260 C268 0.929 . S
H261 C270 0.930 . S
H262 C272 0.930 . S
H263 C275 0.929 . S
H264 C278 0.930 . S
H265 C280 0.960 . S
H266 C280 0.960 . S
H267 C280 0.960 . S
C268 H260 0.929 . S
C268 C269 1.377 1_545 S
C268 C270 1.384 . S
C269 C268 1.377 1_565 S
C269 C275 1.390 . S
C270 H261 0.930 . S
C270 C268 1.384 . S
C270 C271 1.368 1_545 S
C271 C270 1.368 1_565 S
C271 C272 1.405 . S
C271 C276 1.488 1_565 S
C272 H262 0.930 . S
C272 C271 1.405 . S
C272 C275 1.386 . S
H273 C289 0.930 . S
H274 C290 0.931 . S
C275 H263 0.929 . S
C275 C269 1.390 . S
C275 C272 1.386 . S
C276 C271 1.488 1_545 S
C276 C278 1.395 . S
C276 C279 1.403 1_545 S
H277 C283 0.930 . S
C278 H264 0.930 . S
C278 C276 1.395 . S
C278 C281 1.403 . S
C279 C276 1.403 1_565 S
C279 C280 1.524 . S
C279 C283 1.400 . S
C280 H265 0.960 . S
C280 H266 0.960 . S
C280 H267 0.960 . S
C280 C279 1.524 . S
C281 C278 1.403 . S
C281 C282 1.392 . S
C281 C285 1.495 . S
C282 C281 1.392 . S
C282 C283 1.385 1_545 S
C282 C284 1.478 . S
C283 H277 0.930 . S
C283 C279 1.400 . S
C283 C282 1.385 1_565 S
C284 C282 1.478 . S
C284 C286 1.381 . S
C284 C290 1.383 1_545 S
C285 C281 1.495 . S
C285 H291 0.959 . S
C285 H292 0.961 . S
C285 H293 0.960 . S
C286 C284 1.381 . S
C286 C287 1.394 . S
C286 H294 0.930 . S
C287 C286 1.394 . S
C287 C288 1.383 . S
C287 H295 0.929 . S
C288 C287 1.383 . S
C288 C289 1.377 1_545 S
C289 H273 0.930 . S
C289 C288 1.377 1_565 S
C289 C290 1.379 . S
C290 H274 0.931 . S
C290 C284 1.383 1_565 S
C290 C289 1.379 . S
H291 C285 0.959 . S
H292 C285 0.961 . S
H293 C285 0.960 . S
H294 C286 0.930 . S
H295 C287 0.929 . S
H296 C304 0.929 . S
H297 C306 0.930 . S
H298 C308 0.930 . S
H299 C311 0.929 . S
H300 C314 0.930 . S
H301 C316 0.960 . S
H302 C316 0.960 . S
H303 C316 0.960 . S
C304 H296 0.929 . S
C304 C305 1.388 . S
C304 C306 1.384 . S
C305 C304 1.388 . S
C305 C311 1.377 1_554 S
C306 H297 0.930 . S
C306 C304 1.384 . S
C306 C307 1.372 . S
C307 C306 1.372 . S
C307 C308 1.400 1_554 S
C307 C312 1.490 . S
C308 H298 0.930 . S
C308 C307 1.400 1_556 S
C308 C311 1.386 . S
H309 C325 0.930 . S
H310 C326 0.931 . S
C311 H299 0.929 . S
C311 C305 1.377 1_556 S
C311 C308 1.386 . S
C312 C307 1.490 . S
C312 C314 1.395 . S
C312 C315 1.403 1_554 S
H313 C319 0.930 . S
C314 H300 0.930 . S
C314 C312 1.395 . S
C314 C317 1.403 1_655 S
C315 C312 1.403 1_556 S
C315 C316 1.524 . S
C315 C319 1.400 1_655 S
C316 H301 0.960 . S
C316 H302 0.960 . S
C316 H303 0.960 . S
C316 C315 1.524 . S
C317 C314 1.403 1_455 S
C317 C318 1.392 . S
C317 C321 1.495 . S
C318 C317 1.392 . S
C318 C319 1.385 1_554 S
C318 C320 1.478 . S
C319 H313 0.930 . S
C319 C315 1.400 1_455 S
C319 C318 1.385 1_556 S
C320 C318 1.478 . S
C320 C322 1.381 . S
C320 C326 1.383 1_554 S
C321 C317 1.495 . S
C321 H327 0.959 . S
C321 H328 0.961 . S
C321 H329 0.960 . S
C322 C320 1.381 . S
C322 C323 1.394 . S
C322 H330 0.930 . S
C323 C322 1.394 . S
C323 C324 1.383 . S
C323 H331 0.929 . S
C324 C323 1.383 . S
C324 C325 1.377 1_554 S
C325 H309 0.930 . S
C325 C324 1.377 1_556 S
C325 C326 1.379 . S
C326 H310 0.931 . S
C326 C320 1.383 1_556 S
C326 C325 1.379 . S
H327 C321 0.959 . S
H328 C321 0.961 . S
H329 C321 0.960 . S
H330 C322 0.930 . S
H331 C323 0.929 . S
H332 C340 0.929 . S
H333 C342 0.930 . S
H334 C344 0.930 . S
H335 C347 0.929 . S
H336 C350 0.930 . S
H337 C352 0.960 . S
H338 C352 0.960 . S
H339 C352 0.960 . S
C340 H332 0.929 . S
C340 C341 1.377 . S
C340 C342 1.384 . S
C341 C340 1.377 . S
C341 C347 1.390 . S
C342 H333 0.930 . S
C342 C340 1.384 . S
C342 C343 1.372 . S
C343 C342 1.372 . S
C343 C344 1.400 . S
C343 C348 1.490 . S
C344 H334 0.930 . S
C344 C343 1.400 . S
C344 C347 1.386 . S
H345 C361 0.930 . S
H346 C362 0.931 . S
C347 H335 0.929 . S
C347 C341 1.390 . S
C347 C344 1.386 . S
C348 C343 1.490 . S
C348 C350 1.395 . S
C348 C351 1.403 . S
H349 C355 0.930 . S
C350 H336 0.930 . S
C350 C348 1.395 . S
C350 C353 1.403 1_455 S
C351 C348 1.403 . S
C351 C352 1.524 . S
C351 C355 1.400 1_455 S
C352 H337 0.960 . S
C352 H338 0.960 . S
C352 H339 0.960 . S
C352 C351 1.524 . S
C353 C350 1.403 1_655 S
C353 C354 1.392 . S
C353 C357 1.495 . S
C354 C353 1.392 . S
C354 C355 1.385 . S
C354 C356 1.478 . S
C355 H349 0.930 . S
C355 C351 1.400 1_655 S
C355 C354 1.385 . S
C356 C354 1.478 . S
C356 C358 1.381 . S
C356 C362 1.383 . S
C357 C353 1.495 . S
C357 H363 0.959 . S
C357 H364 0.961 . S
C357 H365 0.960 . S
C358 C356 1.381 . S
C358 C359 1.394 . S
C358 H366 0.930 . S
C359 C358 1.394 . S
C359 C360 1.383 . S
C359 H367 0.929 . S
C360 C359 1.383 . S
C360 C361 1.377 . S
C361 H345 0.930 . S
C361 C360 1.377 . S
C361 C362 1.379 . S
C362 H346 0.931 . S
C362 C356 1.383 . S
C362 C361 1.379 . S
H363 C357 0.959 . S
H364 C357 0.961 . S
H365 C357 0.960 . S
H366 C358 0.930 . S
H367 C359 0.929 . S
H368 C376 0.929 . S
H369 C378 0.930 . S
H370 C380 0.930 . S
H371 C383 0.929 . S
H372 C386 0.930 . S
H373 C388 0.960 . S
H374 C388 0.960 . S
H375 C388 0.960 1_655 S
C376 H368 0.929 . S
C376 C377 1.375 1_465 S
C376 C378 1.384 . S
C377 C376 1.375 1_645 S
C377 C383 1.392 . S
C378 H369 0.930 . S
C378 C376 1.384 . S
C378 C379 1.366 1_565 S
C379 C378 1.366 1_545 S
C379 C380 1.406 1_455 S
C379 C384 1.490 1_545 S
C380 H370 0.930 . S
C380 C379 1.406 1_655 S
C380 C383 1.386 . S
H381 C397 0.930 . S
H382 C398 0.931 . S
C383 H371 0.929 . S
C383 C377 1.392 . S
C383 C380 1.386 . S
C384 C379 1.490 1_565 S
C384 C386 1.419 . S
C384 C387 1.379 1_565 S
H385 C391 0.932 1_655 S
C386 H372 0.930 . S
C386 C384 1.419 . S
C386 C389 1.403 . S
C387 C384 1.379 1_545 S
C387 C388 1.524 . S
C387 C391 1.399 . S
C388 H373 0.960 . S
C388 H374 0.960 . S
C388 H375 0.960 1_455 S
C388 C387 1.524 . S
C389 C386 1.403 . S
C389 C390 1.392 . S
C389 C393 1.495 . S
C390 C389 1.392 . S
C390 C391 1.385 1_565 S
C390 C392 1.478 1_455 S
C391 H385 0.932 1_455 S
C391 C387 1.399 . S
C391 C390 1.385 1_545 S
C392 C390 1.478 1_655 S
C392 C394 1.378 1_655 S
C392 C398 1.385 1_565 S
C393 C389 1.495 . S
C393 H399 0.959 . S
C393 H400 0.961 1_455 S
C393 H401 0.960 . S
C394 C392 1.378 1_455 S
C394 C395 1.394 . S
C394 H402 0.930 . S
C395 C394 1.394 . S
C395 C396 1.372 1_455 S
C395 H403 0.929 . S
C396 C395 1.372 1_655 S
C396 C397 1.389 1_565 S
C397 H381 0.930 . S
C397 C396 1.389 1_545 S
C397 C398 1.379 . S
C398 H382 0.931 . S
C398 C392 1.385 1_545 S
C398 C397 1.379 . S
H399 C393 0.959 . S
H400 C393 0.961 1_655 S
H401 C393 0.960 . S
H402 C394 0.930 . S
H403 C395 0.929 . S
H404 C412 0.929 . S
H405 C414 0.930 . S
H406 C416 0.930 . S
H407 C419 0.929 . S
H408 C422 0.930 . S
H409 C424 0.960 . S
H410 C424 0.960 1_565 S
H411 C424 0.960 . S
C412 H404 0.929 . S
C412 C413 1.377 1_655 S
C412 C414 1.384 . S
C413 C412 1.377 1_455 S
C413 C419 1.390 1_565 S
C414 H405 0.930 . S
C414 C412 1.384 . S
C414 C415 1.372 1_655 S
C415 C414 1.372 1_455 S
C415 C416 1.400 1_565 S
C415 C420 1.490 1_455 S
C416 H406 0.930 . S
C416 C415 1.400 1_545 S
C416 C419 1.386 . S
H417 C433 0.930 . S
H418 C434 0.931 . S
C419 H407 0.929 . S
C419 C413 1.390 1_545 S
C419 C416 1.386 . S
C420 C415 1.490 1_655 S
C420 C422 1.395 . S
C420 C423 1.403 1_665 S
H421 C427 0.930 . S
C422 H408 0.930 . S
C422 C420 1.395 . S
C422 C425 1.403 . S
C423 C420 1.403 1_445 S
C423 C424 1.524 . S
C423 C427 1.400 . S
C424 H409 0.960 . S
C424 H410 0.960 1_545 S
C424 H411 0.960 . S
C424 C423 1.524 . S
C425 C422 1.403 . S
C425 C426 1.392 . S
C425 C429 1.495 . S
C426 C425 1.392 . S
C426 C427 1.385 1_665 S
C426 C428 1.478 . S
C427 H421 0.930 . S
C427 C423 1.400 . S
C427 C426 1.385 1_445 S
C428 C426 1.478 . S
C428 C430 1.381 . S
C428 C434 1.383 1_565 S
C429 C425 1.495 . S
C429 H435 0.959 . S
C429 H436 0.961 . S
C429 H437 0.960 . S
C430 C428 1.381 . S
C430 C431 1.394 . S
C430 H438 0.930 . S
C431 C430 1.394 . S
C431 C432 1.383 . S
C431 H439 0.929 . S
C432 C431 1.383 . S
C432 C433 1.377 1_565 S
C433 H417 0.930 . S
C433 C432 1.377 1_545 S
C433 C434 1.379 . S
C434 H418 0.931 . S
C434 C428 1.383 1_545 S
C434 C433 1.379 . S
H435 C429 0.959 . S
H436 C429 0.961 . S
H437 C429 0.960 . S
H438 C430 0.930 . S
H439 C431 0.929 . S
H440 C448 0.929 . S
H441 C450 0.930 . S
H442 C452 0.930 . S
H443 C455 0.929 . S
H444 C458 0.930 . S
H445 C460 0.960 . S
H446 C460 0.960 . S
H447 C460 0.960 . S
C448 H440 0.929 . S
C448 C449 1.377 . S
C448 C450 1.384 . S
C449 C448 1.377 . S
C449 C455 1.390 . S
C450 H441 0.930 . S
C450 C448 1.384 . S
C450 C451 1.372 . S
C451 C450 1.372 . S
C451 C452 1.400 . S
C451 C456 1.490 . S
C452 H442 0.930 . S
C452 C451 1.400 . S
C452 C455 1.386 . S
H453 C469 0.930 . S
H454 C470 0.931 . S
C455 H443 0.929 . S
C455 C449 1.390 . S
C455 C452 1.386 . S
C456 C451 1.490 . S
C456 C458 1.395 . S
C456 C459 1.403 . S
H457 C463 0.930 . S
C458 H444 0.930 . S
C458 C456 1.395 . S
C458 C461 1.403 . S
C459 C456 1.403 . S
C459 C460 1.524 . S
C459 C463 1.400 . S
C460 H445 0.960 . S
C460 H446 0.960 . S
C460 H447 0.960 . S
C460 C459 1.524 . S
C461 C458 1.403 . S
C461 C462 1.392 . S
C461 C465 1.495 . S
C462 C461 1.392 . S
C462 C463 1.385 . S
C462 C464 1.478 . S
C463 H457 0.930 . S
C463 C459 1.400 . S
C463 C462 1.385 . S
C464 C462 1.478 . S
C464 C466 1.381 . S
C464 C470 1.383 . S
C465 C461 1.495 . S
C465 H471 0.959 . S
C465 H472 0.961 . S
C465 H473 0.960 . S
C466 C464 1.381 . S
C466 C467 1.394 . S
C466 H474 0.930 . S
C467 C466 1.394 . S
C467 C468 1.383 . S
C467 H475 0.929 . S
C468 C467 1.383 . S
C468 C469 1.377 . S
C469 H453 0.930 . S
C469 C468 1.377 . S
C469 C470 1.379 . S
C470 H454 0.931 . S
C470 C464 1.383 . S
C470 C469 1.379 . S
H471 C465 0.959 . S
H472 C465 0.961 . S
H473 C465 0.960 . S
H474 C466 0.930 . S
H475 C467 0.929 . S
H476 C484 0.929 . S
H477 C486 0.930 . S
H478 C488 0.930 . S
H479 C491 0.929 . S
H480 C494 0.930 . S
H481 C496 0.960 . S
H482 C496 0.960 . S
H483 C496 0.960 . S
C484 H476 0.929 . S
C484 C485 1.377 . S
C484 C486 1.384 . S
C485 C484 1.377 . S
C485 C491 1.390 . S
C486 H477 0.930 . S
C486 C484 1.384 . S
C486 C487 1.372 . S
C487 C486 1.372 . S
C487 C488 1.400 . S
C487 C492 1.490 . S
C488 H478 0.930 . S
C488 C487 1.400 . S
C488 C491 1.386 . S
H489 C505 0.930 . S
H490 C506 0.931 . S
C491 H479 0.929 . S
C491 C485 1.390 . S
C491 C488 1.386 . S
C492 C487 1.490 . S
C492 C494 1.395 . S
C492 C495 1.403 . S
H493 C499 0.930 . S
C494 H480 0.930 . S
C494 C492 1.395 . S
C494 C497 1.403 . S
C495 C492 1.403 . S
C495 C496 1.524 . S
C495 C499 1.400 . S
C496 H481 0.960 . S
C496 H482 0.960 . S
C496 H483 0.960 . S
C496 C495 1.524 . S
C497 C494 1.403 . S
C497 C498 1.392 . S
C497 C501 1.495 . S
C498 C497 1.392 . S
C498 C499 1.385 . S
C498 C500 1.478 . S
C499 H493 0.930 . S
C499 C495 1.400 . S
C499 C498 1.385 . S
C500 C498 1.478 . S
C500 C502 1.381 . S
C500 C506 1.383 . S
C501 C497 1.495 . S
C501 H507 0.959 . S
C501 H508 0.961 . S
C501 H509 0.960 . S
C502 C500 1.381 . S
C502 C503 1.394 . S
C502 H510 0.930 . S
C503 C502 1.394 . S
C503 C504 1.383 . S
C503 H511 0.929 . S
C504 C503 1.383 . S
C504 C505 1.377 . S
C505 H489 0.930 . S
C505 C504 1.377 . S
C505 C506 1.379 . S
C506 H490 0.931 . S
C506 C500 1.383 . S
C506 C505 1.379 . S
H507 C501 0.959 . S
H508 C501 0.961 . S
H509 C501 0.960 . S
H510 C502 0.930 . S
H511 C503 0.929 . S
C89 C58 2.030 1_554 S
C108 C19 2.035 1_556 S
C125 C59 2.027 1_556 S
C144 C18 2.033 1_554 S
C161 C21 1.020 . S
C180 C62 1.031 . S
C197 C22 1.019 . S
C216 C61 1.006 . S
C233 C1 0.637 1_565 S
C252 C2 0.624 1_544 S
C269 C39 2.408 . S
C288 C38 2.402 . S
C305 C41 0.637 . S
C324 C42 0.639 1_554 S
C341 C78 2.406 . S
C360 C79 2.406 . S
C377 C28 1.458 1_645 S
C396 C9 1.465 1_665 S
C413 C8 1.459 1_455 S
C432 C29 1.459 1_565 S
C449 C68 1.450 . S
C468 C49 1.474 . S
C485 C69 1.450 . S
C504 C48 1.436 . S
