# Generated by pormake.
# Topology umk, (4)-cn, num edge types: 1
# Building blocks:
#     Node 0, Type 0, BuildingBlock: QUQFOY_clean_sbu_1, # of connection points: 4
#     Node 1, Type 0, BuildingBlock: QUQFOY_clean_sbu_1, # of connection points: 4
#     Node 2, Type 0, BuildingBlock: QUQFOY_clean_sbu_1, # of connection points: 4
#     Node 3, Type 0, BuildingBlock: QUQFOY_clean_sbu_1, # of connection points: 4
#     Node 4, Type 0, BuildingBlock: QUQFOY_clean_sbu_1, # of connection points: 4
#     Node 5, Type 0, BuildingBlock: QUQFOY_clean_sbu_1, # of connection points: 4
#     Node 6, Type 0, BuildingBlock: QUQFOY_clean_sbu_1, # of connection points: 4
#     Node 7, Type 0, BuildingBlock: QUQFOY_clean_sbu_1, # of connection points: 4
#     Node 8, Type 0, BuildingBlock: QUQFOY_clean_sbu_1, # of connection points: 4
#     Node 9, Type 0, BuildingBlock: QUQFOY_clean_sbu_1, # of connection points: 4
#     Node 10, Type 0, BuildingBlock: QUQFOY_clean_sbu_1, # of connection points: 4
#     Node 11, Type 0, BuildingBlock: QUQFOY_clean_sbu_1, # of connection points: 4
#     Node 12, Type 0, BuildingBlock: QUQFOY_clean_sbu_1, # of connection points: 4
#     Node 13, Type 0, BuildingBlock: QUQFOY_clean_sbu_1, # of connection points: 4
#     Node 14, Type 0, BuildingBlock: QUQFOY_clean_sbu_1, # of connection points: 4
#     Node 15, Type 0, BuildingBlock: QUQFOY_clean_sbu_1, # of connection points: 4
#     Node 16, Type 0, BuildingBlock: QUQFOY_clean_sbu_1, # of connection points: 4
#     Node 17, Type 0, BuildingBlock: QUQFOY_clean_sbu_1, # of connection points: 4
#     Node 18, Type 0, BuildingBlock: QUQFOY_clean_sbu_1, # of connection points: 4
#     Node 19, Type 0, BuildingBlock: QUQFOY_clean_sbu_1, # of connection points: 4
#     Node 20, Type 0, BuildingBlock: QUQFOY_clean_sbu_1, # of connection points: 4
#     Node 21, Type 0, BuildingBlock: QUQFOY_clean_sbu_1, # of connection points: 4
#     Node 22, Type 0, BuildingBlock: QUQFOY_clean_sbu_1, # of connection points: 4
#     Node 23, Type 0, BuildingBlock: QUQFOY_clean_sbu_1, # of connection points: 4
#     Edge 24, Type (0, 0), BuildingBlock: XUDNAN_clean_linker_2, # of connection points: 2
#     Edge 25, Type (0, 0), BuildingBlock: XUDNAN_clean_linker_2, # of connection points: 2
#     Edge 26, Type (0, 0), BuildingBlock: XUDNAN_clean_linker_2, # of connection points: 2
#     Edge 27, Type (0, 0), BuildingBlock: XUDNAN_clean_linker_2, # of connection points: 2
#     Edge 28, Type (0, 0), BuildingBlock: XUDNAN_clean_linker_2, # of connection points: 2
#     Edge 29, Type (0, 0), BuildingBlock: XUDNAN_clean_linker_2, # of connection points: 2
#     Edge 30, Type (0, 0), BuildingBlock: XUDNAN_clean_linker_2, # of connection points: 2
#     Edge 31, Type (0, 0), BuildingBlock: XUDNAN_clean_linker_2, # of connection points: 2
#     Edge 32, Type (0, 0), BuildingBlock: XUDNAN_clean_linker_2, # of connection points: 2
#     Edge 33, Type (0, 0), BuildingBlock: XUDNAN_clean_linker_2, # of connection points: 2
#     Edge 34, Type (0, 0), BuildingBlock: XUDNAN_clean_linker_2, # of connection points: 2
#     Edge 35, Type (0, 0), BuildingBlock: XUDNAN_clean_linker_2, # of connection points: 2
#     Edge 36, Type (0, 0), BuildingBlock: XUDNAN_clean_linker_2, # of connection points: 2
#     Edge 37, Type (0, 0), BuildingBlock: XUDNAN_clean_linker_2, # of connection points: 2
#     Edge 38, Type (0, 0), BuildingBlock: XUDNAN_clean_linker_2, # of connection points: 2
#     Edge 39, Type (0, 0), BuildingBlock: XUDNAN_clean_linker_2, # of connection points: 2
#     Edge 40, Type (0, 0), BuildingBlock: XUDNAN_clean_linker_2, # of connection points: 2
#     Edge 41, Type (0, 0), BuildingBlock: XUDNAN_clean_linker_2, # of connection points: 2
#     Edge 42, Type (0, 0), BuildingBlock: XUDNAN_clean_linker_2, # of connection points: 2
#     Edge 43, Type (0, 0), BuildingBlock: XUDNAN_clean_linker_2, # of connection points: 2
#     Edge 44, Type (0, 0), BuildingBlock: XUDNAN_clean_linker_2, # of connection points: 2
#     Edge 45, Type (0, 0), BuildingBlock: XUDNAN_clean_linker_2, # of connection points: 2
#     Edge 46, Type (0, 0), BuildingBlock: XUDNAN_clean_linker_2, # of connection points: 2
#     Edge 47, Type (0, 0), BuildingBlock: XUDNAN_clean_linker_2, # of connection points: 2
#     Edge 48, Type (0, 0), BuildingBlock: XUDNAN_clean_linker_2, # of connection points: 2
#     Edge 49, Type (0, 0), BuildingBlock: XUDNAN_clean_linker_2, # of connection points: 2
#     Edge 50, Type (0, 0), BuildingBlock: XUDNAN_clean_linker_2, # of connection points: 2
#     Edge 51, Type (0, 0), BuildingBlock: XUDNAN_clean_linker_2, # of connection points: 2
#     Edge 52, Type (0, 0), BuildingBlock: XUDNAN_clean_linker_2, # of connection points: 2
#     Edge 53, Type (0, 0), BuildingBlock: XUDNAN_clean_linker_2, # of connection points: 2
#     Edge 54, Type (0, 0), BuildingBlock: XUDNAN_clean_linker_2, # of connection points: 2
#     Edge 55, Type (0, 0), BuildingBlock: XUDNAN_clean_linker_2, # of connection points: 2
#     Edge 56, Type (0, 0), BuildingBlock: XUDNAN_clean_linker_2, # of connection points: 2
#     Edge 57, Type (0, 0), BuildingBlock: XUDNAN_clean_linker_2, # of connection points: 2
#     Edge 58, Type (0, 0), BuildingBlock: XUDNAN_clean_linker_2, # of connection points: 2
#     Edge 59, Type (0, 0), BuildingBlock: XUDNAN_clean_linker_2, # of connection points: 2
#     Edge 60, Type (0, 0), BuildingBlock: XUDNAN_clean_linker_2, # of connection points: 2
#     Edge 61, Type (0, 0), BuildingBlock: XUDNAN_clean_linker_2, # of connection points: 2
#     Edge 62, Type (0, 0), BuildingBlock: XUDNAN_clean_linker_2, # of connection points: 2
#     Edge 63, Type (0, 0), BuildingBlock: XUDNAN_clean_linker_2, # of connection points: 2
#     Edge 64, Type (0, 0), BuildingBlock: XUDNAN_clean_linker_2, # of connection points: 2
#     Edge 65, Type (0, 0), BuildingBlock: XUDNAN_clean_linker_2, # of connection points: 2
#     Edge 66, Type (0, 0), BuildingBlock: XUDNAN_clean_linker_2, # of connection points: 2
#     Edge 67, Type (0, 0), BuildingBlock: XUDNAN_clean_linker_2, # of connection points: 2
#     Edge 68, Type (0, 0), BuildingBlock: XUDNAN_clean_linker_2, # of connection points: 2
#     Edge 69, Type (0, 0), BuildingBlock: XUDNAN_clean_linker_2, # of connection points: 2
#     Edge 70, Type (0, 0), BuildingBlock: XUDNAN_clean_linker_2, # of connection points: 2
#     Edge 71, Type (0, 0), BuildingBlock: XUDNAN_clean_linker_2, # of connection points: 2
# Relax obj value: 0.026
# Max RMSD: 0.069
# Mean RMSD: 0.069
data_MOF--net-umk--node1-QUQFOY_clean_sbu_1--edge1-XUDNAN_clean_linker_2
_symmetry_space_group_name_H-M    P1
_symmetry_Int_Tables_number       1
_symmetry_cell_setting            triclinic
loop_
_symmetry_equiv_pos_as_xyz
'x, y, z'
_cell_length_a     66.211997
_cell_length_b     66.245411
_cell_length_c     49.526854
_cell_angle_alpha  90.01676
_cell_angle_beta   89.957696
_cell_angle_gamma 119.9829
loop_
_atom_site_label
_atom_site_type_symbol
_atom_site_fract_x
_atom_site_fract_y
_atom_site_fract_z
_atom_type_partial_charge
O0 O 0.35792 0.4942 0.05448 0.0
Cd1 Cd 0.33183 0.46229 0.06797 0.0
Cd2 Cd 0.35554 0.47849 0.11653 0.0
O3 O 0.37367 0.50886 0.0941 0.0
O4 O 0.30655 0.45212 0.04055 0.0
O5 O 0.30229 0.45914 0.08329 0.0
C6 C 0.29365 0.45338 0.05925 0.0
C7 C 0.3466 0.48134 0.16186 0.0
C8 C 0.37275 0.51109 0.06868 0.0
C9 C 0.3536 0.43592 0.09017 0.0
O10 O 0.3619 0.45144 0.1085 0.0
O11 O 0.33996 0.43623 0.07233 0.0
O12 O 0.36754 0.48781 0.15415 0.0
O13 O 0.33052 0.47366 0.1436 0.0
O14 O 0.86774 0.35387 0.54843 0.0
Cd15 Cd 0.87566 0.33008 0.56441 0.0
Cd16 Cd 0.87402 0.35597 0.61251 0.0
O17 O 0.86365 0.37196 0.58376 0.0
O18 O 0.87268 0.3112 0.53172 0.0
O19 O 0.84938 0.2967 0.56699 0.0
C20 C 0.85472 0.29395 0.5427 0.0
C21 C 0.85837 0.3479 0.6564 0.0
C22 C 0.86294 0.36866 0.55836 0.0
C23 C 0.91902 0.3555 0.59782 0.0
O24 O 0.90804 0.3628 0.61214 0.0
O25 O 0.9092 0.34172 0.57811 0.0
O26 O 0.87227 0.3689 0.64839 0.0
O27 O 0.85205 0.33137 0.63887 0.0
O28 O 0.51367 0.86941 0.0526 0.0
Cd29 Cd 0.54611 0.87394 0.0615 0.0
Cd30 Cd 0.53014 0.87923 0.11552 0.0
O31 O 0.49976 0.86822 0.09354 0.0
O32 O 0.55554 0.86729 0.02579 0.0
O33 O 0.55046 0.84579 0.06192 0.0
C34 C 0.55522 0.84943 0.03649 0.0
C35 C 0.52681 0.86715 0.1609 0.0
C36 C 0.4971 0.86656 0.06802 0.0
C37 C 0.57337 0.92014 0.08991 0.0
O38 O 0.55783 0.91238 0.10825 0.0
O39 O 0.57257 0.90711 0.07059 0.0
O40 O 0.52099 0.88212 0.15325 0.0
O41 O 0.53407 0.85841 0.14258 0.0
O42 O 0.64462 0.50958 0.55446 0.0
Cd43 Cd 0.67189 0.54202 0.56409 0.0
Cd44 Cd 0.65532 0.5226 0.61879 0.0
O45 O 0.63553 0.49339 0.59496 0.0
O46 O 0.68928 0.55336 0.52939 0.0
O47 O 0.70428 0.54635 0.56562 0.0
C48 C 0.70633 0.55228 0.54047 0.0
C49 C 0.6629 0.51652 0.66371 0.0
C50 C 0.63272 0.49198 0.56946 0.0
C51 C 0.65414 0.56642 0.59898 0.0
O52 O 0.64965 0.55052 0.61626 0.0
O53 O 0.66382 0.5669 0.57663 0.0
O54 O 0.6423 0.51088 0.65561 0.0
O55 O 0.67939 0.52482 0.64596 0.0
O56 O 0.14259 0.65374 0.05533 0.0
Cd57 Cd 0.1354 0.67731 0.07354 0.0
Cd58 Cd 0.13356 0.64988 0.11909 0.0
O59 O 0.1434 0.63347 0.09033 0.0
O60 O 0.1461 0.70278 0.04626 0.0
O61 O 0.16197 0.70773 0.08681 0.0
C62 C 0.16187 0.71615 0.06329 0.0
C63 C 0.14797 0.65604 0.16349 0.0
C64 C 0.14552 0.63765 0.06508 0.0
C65 C 0.09012 0.65246 0.10262 0.0
O66 O 0.10009 0.6445 0.11763 0.0
O67 O 0.10109 0.66641 0.0834 0.0
O68 O 0.13353 0.6355 0.15461 0.0
O69 O 0.15545 0.67315 0.14659 0.0
O70 O 0.4977 0.13642 0.54974 0.0
Cd71 Cd 0.46514 0.13074 0.56026 0.0
Cd72 Cd 0.48355 0.12546 0.61478 0.0
O73 O 0.51266 0.13809 0.59014 0.0
O74 O 0.45418 0.13681 0.52529 0.0
O75 O 0.45975 0.1582 0.56168 0.0
C76 C 0.45425 0.15439 0.53643 0.0
C77 C 0.49252 0.13341 0.66106 0.0
C78 C 0.51481 0.14003 0.56461 0.0
C79 C 0.43947 0.08459 0.58955 0.0
O80 O 0.45539 0.09255 0.60744 0.0
O81 O 0.43968 0.09738 0.57029 0.0
O82 O 0.49681 0.1193 0.64782 0.0
O83 O 0.48289 0.1433 0.64814 0.0
O84 O 0.51076 0.65129 0.9632 0.0
Cd85 Cd 0.54072 0.67502 0.9435 0.0
Cd86 Cd 0.51817 0.64247 0.9026 0.0
O87 O 0.49113 0.62676 0.93037 0.0
O88 O 0.5542 0.70116 0.97004 0.0
O89 O 0.5433 0.70468 0.92898 0.0
C90 C 0.55135 0.71377 0.95237 0.0
C91 C 0.51182 0.65016 0.85815 0.0
C92 C 0.49255 0.63327 0.95481 0.0
C93 C 0.56456 0.64971 0.92272 0.0
O94 O 0.54656 0.63787 0.90821 0.0
O95 O 0.56625 0.66624 0.93741 0.0
O96 O 0.50567 0.62932 0.86608 0.0
O97 O 0.52089 0.6667 0.87585 0.0
O98 O 0.86147 0.50568 0.4608 0.0
Cd99 Cd 0.86688 0.53748 0.44736 0.0
Cd100 Cd 0.87431 0.52098 0.39811 0.0
O101 O 0.86268 0.49104 0.42116 0.0
O102 O 0.85263 0.54784 0.47575 0.0
O103 O 0.84007 0.54068 0.43352 0.0
C104 C 0.83797 0.5466 0.45778 0.0
C105 C 0.8621 0.51696 0.35277 0.0
C106 C 0.85963 0.48886 0.44661 0.0
C107 C 0.91482 0.56404 0.42397 0.0
O108 O 0.9076 0.54845 0.40571 0.0
O109 O 0.90096 0.56362 0.44204 0.0
O110 O 0.87693 0.51105 0.36069 0.0
O111 O 0.85369 0.52486 0.37077 0.0
O112 O 0.35471 0.86627 0.97115 0.0
Cd113 Cd 0.32961 0.87254 0.95579 0.0
Cd114 Cd 0.3601 0.87617 0.90563 0.0
O115 O 0.37549 0.86652 0.93596 0.0
O116 O 0.31091 0.86849 0.98907 0.0
O117 O 0.29652 0.84534 0.95375 0.0
C118 C 0.29383 0.85034 0.97821 0.0
C119 C 0.36435 0.86716 0.86052 0.0
C120 C 0.37115 0.86401 0.96118 0.0
C121 C 0.35282 0.91715 0.92353 0.0
O122 O 0.36155 0.90803 0.90827 0.0
O123 O 0.33959 0.90599 0.94321 0.0
O124 O 0.38177 0.88194 0.87467 0.0
O125 O 0.34421 0.8566 0.87215 0.0
O126 O 0.49109 0.35052 0.46884 0.0
Cd127 Cd 0.46138 0.32675 0.44892 0.0
Cd128 Cd 0.48407 0.36074 0.40695 0.0
O129 O 0.51026 0.37514 0.43585 0.0
O130 O 0.44827 0.30011 0.47474 0.0
O131 O 0.4596 0.29775 0.43343 0.0
C132 C 0.45161 0.28812 0.45663 0.0
C133 C 0.49514 0.36401 0.36126 0.0
C134 C 0.5091 0.36863 0.46024 0.0
C135 C 0.43677 0.35129 0.42828 0.0
O136 O 0.45456 0.36325 0.41349 0.0
O137 O 0.43553 0.33509 0.44321 0.0
O138 O 0.49883 0.38182 0.37542 0.0
O139 O 0.48548 0.34398 0.37314 0.0
O140 O 0.13765 0.4951 0.97172 0.0
Cd141 Cd 0.13194 0.4626 0.96143 0.0
Cd142 Cd 0.13539 0.48212 0.9071 0.0
O143 O 0.14476 0.51124 0.93119 0.0
O144 O 0.13834 0.45062 0.99536 0.0
O145 O 0.15969 0.45793 0.95843 0.0
C146 C 0.15614 0.45159 0.98348 0.0
C147 C 0.14998 0.4885 0.86254 0.0
C148 C 0.14348 0.51272 0.95671 0.0
C149 C 0.08996 0.43858 0.92629 0.0
O150 O 0.10165 0.45429 0.90892 0.0
O151 O 0.09888 0.43817 0.94886 0.0
O152 O 0.13497 0.49422 0.87024 0.0
O153 O 0.15767 0.47989 0.88051 0.0
O154 O 0.65812 0.14324 0.46558 0.0
Cd155 Cd 0.68161 0.13594 0.44717 0.0
Cd156 Cd 0.64773 0.12491 0.40378 0.0
O157 O 0.63347 0.13705 0.43236 0.0
O158 O 0.70678 0.14759 0.47495 0.0
O159 O 0.71242 0.16216 0.43372 0.0
C160 C 0.7205 0.16271 0.45761 0.0
C161 C 0.64442 0.13289 0.35819 0.0
C162 C 0.64006 0.14303 0.4566 0.0
C163 C 0.65604 0.08662 0.42614 0.0
O164 O 0.64476 0.09273 0.41057 0.0
O165 O 0.67191 0.10137 0.44158 0.0
O166 O 0.62661 0.11873 0.37234 0.0
O167 O 0.6645 0.14301 0.36996 0.0
O168 O 0.65847 0.51643 0.9666 0.0
Cd169 Cd 0.68147 0.54737 0.94803 0.0
Cd170 Cd 0.65104 0.52403 0.90551 0.0
O171 O 0.63561 0.49656 0.93263 0.0
O172 O 0.70691 0.56167 0.97541 0.0
O173 O 0.71229 0.55229 0.93425 0.0
C174 C 0.72056 0.56022 0.95798 0.0
C175 C 0.6599 0.5184 0.86129 0.0
C176 C 0.64138 0.49785 0.95733 0.0
C177 C 0.65444 0.56886 0.9257 0.0
O178 O 0.6442 0.55101 0.91058 0.0
O179 O 0.67071 0.57138 0.94146 0.0
O180 O 0.63875 0.5113 0.86885 0.0
O181 O 0.67616 0.5281 0.87924 0.0
O182 O 0.14167 0.65097 0.46596 0.0
Cd183 Cd 0.13445 0.67447 0.44751 0.0
Cd184 Cd 0.12557 0.64281 0.40515 0.0
O185 O 0.13694 0.62692 0.4326 0.0
O186 O 0.14594 0.69952 0.47543 0.0
O187 O 0.16103 0.70516 0.43444 0.0
C188 C 0.16146 0.71315 0.45837 0.0
C189 C 0.14035 0.65134 0.361 0.0
C190 C 0.14216 0.63324 0.45707 0.0
C191 C 0.08554 0.64861 0.42566 0.0
O192 O 0.09232 0.63767 0.41044 0.0
O193 O 0.09987 0.66468 0.44122 0.0
O194 O 0.12564 0.63034 0.3684 0.0
O195 O 0.14733 0.66758 0.37904 0.0
O196 O 0.49363 0.13449 0.9706 0.0
Cd197 Cd 0.46194 0.12911 0.9574 0.0
Cd198 Cd 0.48174 0.12919 0.90404 0.0
O199 O 0.50987 0.14024 0.93026 0.0
O200 O 0.45073 0.14363 0.98437 0.0
O201 O 0.46043 0.1563 0.94226 0.0
C202 C 0.45361 0.15865 0.96596 0.0
C203 C 0.49278 0.13756 0.85825 0.0
C204 C 0.51134 0.14001 0.95587 0.0
C205 C 0.43656 0.0858 0.92566 0.0
O206 O 0.45239 0.09651 0.90804 0.0
O207 O 0.43665 0.09559 0.94776 0.0
O208 O 0.49613 0.12307 0.87199 0.0
O209 O 0.48328 0.14792 0.87047 0.0
O210 O 0.3582 0.49387 0.46855 0.0
Cd211 Cd 0.33036 0.46163 0.45878 0.0
Cd212 Cd 0.35233 0.47763 0.40572 0.0
O213 O 0.37167 0.50787 0.42788 0.0
O214 O 0.31306 0.45192 0.49369 0.0
O215 O 0.29795 0.45748 0.45669 0.0
C216 C 0.29592 0.45238 0.48208 0.0
C217 C 0.34444 0.48115 0.36011 0.0
C218 C 0.37231 0.51042 0.45339 0.0
C219 C 0.34974 0.43439 0.43142 0.0
O220 O 0.35772 0.44996 0.41314 0.0
O221 O 0.33721 0.43512 0.45044 0.0
O222 O 0.36507 0.48689 0.36832 0.0
O223 O 0.3281 0.4739 0.37801 0.0
O224 O 0.87003 0.36232 0.96334 0.0
Cd225 Cd 0.87646 0.33639 0.95129 0.0
Cd226 Cd 0.87624 0.35456 0.89872 0.0
O227 O 0.86663 0.37418 0.92277 0.0
O228 O 0.86405 0.31238 0.98041 0.0
O229 O 0.85006 0.30581 0.93867 0.0
C230 C 0.84906 0.29836 0.96305 0.0
C231 C 0.86198 0.34666 0.854 0.0
C232 C 0.86595 0.37544 0.9484 0.0
C233 C 0.92052 0.35541 0.92024 0.0
O234 O 0.90975 0.35978 0.90195 0.0
O235 O 0.91043 0.34577 0.94225 0.0
O236 O 0.87732 0.36725 0.86171 0.0
O237 O 0.854 0.33034 0.87195 0.0
O238 O 0.51329 0.86445 0.468 0.0
Cd239 Cd 0.54588 0.86967 0.45834 0.0
Cd240 Cd 0.52903 0.87537 0.40502 0.0
O241 O 0.49875 0.86352 0.42753 0.0
O242 O 0.55588 0.86309 0.49368 0.0
O243 O 0.55105 0.84201 0.45724 0.0
C244 C 0.556 0.84557 0.48263 0.0
C245 C 0.52575 0.86424 0.35927 0.0
C246 C 0.49644 0.86152 0.45308 0.0
C247 C 0.57212 0.91635 0.43072 0.0
O248 O 0.55637 0.90862 0.41265 0.0
O249 O 0.57182 0.90317 0.44956 0.0
O250 O 0.51954 0.87873 0.36766 0.0
O251 O 0.5333 0.85535 0.37707 0.0
O252 O 0.50154 0.36033 0.05211 0.0
Cd253 Cd 0.46915 0.33338 0.06301 0.0
Cd254 Cd 0.48656 0.35963 0.11673 0.0
O255 O 0.51573 0.37589 0.09207 0.0
O256 O 0.45865 0.31526 0.02867 0.0
O257 O 0.46413 0.30066 0.06613 0.0
C258 C 0.45873 0.29814 0.04082 0.0
C259 C 0.49519 0.36293 0.16339 0.0
C260 C 0.51821 0.37498 0.06671 0.0
C261 C 0.44223 0.35408 0.08922 0.0
O262 O 0.45774 0.36284 0.10754 0.0
O263 O 0.44322 0.34116 0.07088 0.0
O264 O 0.49896 0.38054 0.14885 0.0
O265 O 0.48637 0.34295 0.15156 0.0
O266 O 0.13783 0.49448 0.55632 0.0
Cd267 Cd 0.13208 0.46285 0.57025 0.0
Cd268 Cd 0.13411 0.48291 0.62073 0.0
O269 O 0.14422 0.51182 0.596 0.0
O270 O 0.1454 0.45063 0.543 0.0
O271 O 0.15906 0.46056 0.58472 0.0
C272 C 0.16062 0.45324 0.56101 0.0
C273 C 0.14909 0.48899 0.66501 0.0
C274 C 0.14339 0.51257 0.57035 0.0
C275 C 0.08865 0.4396 0.60188 0.0
O276 O 0.09997 0.45577 0.61891 0.0
O277 O 0.09834 0.43838 0.58026 0.0
O278 O 0.13452 0.49539 0.65761 0.0
O279 O 0.15611 0.47987 0.64688 0.0
O280 O 0.65592 0.14439 0.0523 0.0
Cd281 Cd 0.68136 0.13854 0.06796 0.0
Cd282 Cd 0.64781 0.12798 0.115 0.0
O283 O 0.63265 0.1394 0.08678 0.0
O284 O 0.70062 0.14441 0.03476 0.0
O285 O 0.7142 0.16631 0.07108 0.0
C286 C 0.71736 0.16229 0.04638 0.0
C287 C 0.64445 0.13546 0.16079 0.0
C288 C 0.63825 0.1445 0.06213 0.0
C289 C 0.65712 0.09012 0.09304 0.0
O290 O 0.6456 0.09618 0.10828 0.0
O291 O 0.67264 0.10465 0.07707 0.0
O292 O 0.62671 0.12119 0.14665 0.0
O293 O 0.66446 0.14609 0.14887 0.0
O294 O 0.51618 0.64921 0.55297 0.0
Cd295 Cd 0.5461 0.67283 0.57241 0.0
Cd296 Cd 0.52049 0.64502 0.61667 0.0
O297 O 0.49457 0.62862 0.58749 0.0
O298 O 0.56079 0.69948 0.54668 0.0
O299 O 0.54804 0.70199 0.58721 0.0
C300 C 0.55701 0.71159 0.56425 0.0
C301 C 0.51174 0.65181 0.66054 0.0
C302 C 0.49703 0.63297 0.56227 0.0
C303 C 0.56709 0.64855 0.60122 0.0
O304 O 0.5489 0.64002 0.61592 0.0
O305 O 0.57003 0.66267 0.58224 0.0
O306 O 0.50579 0.63114 0.65223 0.0
O307 O 0.52157 0.66868 0.64335 0.0
O308 O 0.87071 0.51874 0.04674 0.0
Cd309 Cd 0.87784 0.55022 0.06279 0.0
Cd310 Cd 0.87608 0.52297 0.11105 0.0
O311 O 0.86648 0.49675 0.0823 0.0
O312 O 0.87435 0.56597 0.03027 0.0
O313 O 0.85102 0.55652 0.06561 0.0
C314 C 0.8562 0.56477 0.04137 0.0
C315 C 0.86031 0.51492 0.15489 0.0
C316 C 0.8661 0.49928 0.05685 0.0
C317 C 0.92088 0.56876 0.09676 0.0
O318 O 0.90988 0.55046 0.11102 0.0
O319 O 0.91118 0.57255 0.07678 0.0
O320 O 0.87455 0.50826 0.14682 0.0
O321 O 0.85373 0.52495 0.13743 0.0
O322 O 0.35468 0.85966 0.55428 0.0
Cd323 Cd 0.32966 0.86615 0.56986 0.0
Cd324 Cd 0.36414 0.87628 0.61691 0.0
O325 O 0.37854 0.8644 0.58801 0.0
O326 O 0.31176 0.86207 0.53588 0.0
O327 O 0.2962 0.83925 0.57114 0.0
C328 C 0.29419 0.84425 0.54647 0.0
C329 C 0.36711 0.86837 0.66278 0.0
C330 C 0.37238 0.85926 0.56348 0.0
C331 C 0.35508 0.91452 0.59541 0.0
O332 O 0.36671 0.90832 0.61026 0.0
O333 O 0.3392 0.90007 0.57974 0.0
O334 O 0.38503 0.88246 0.64873 0.0
O335 O 0.34716 0.85812 0.65071 0.0
H336 H 0.37722 0.49536 0.20407 0.0
H337 H 0.3041 0.46825 0.1855 0.0
H338 H 0.29554 0.46724 0.23436 0.0
H339 H 0.36853 0.4606 0.26144 0.0
H340 H 0.39296 0.48295 0.27986 0.0
H341 H 0.39333 0.48303 0.24354 0.0
H342 H 0.40041 0.52522 0.24329 0.0
H343 H 0.4001 0.52528 0.27966 0.0
H344 H 0.38053 0.53165 0.2611 0.0
H345 H 0.295 0.46734 0.28607 0.0
H346 H 0.3025 0.46832 0.33521 0.0
H347 H 0.37598 0.49531 0.31878 0.0
C348 C 0.35942 0.48946 0.21016 0.0
C349 C 0.34133 0.48196 0.1909 0.0
C350 C 0.31826 0.47417 0.19986 0.0
C351 C 0.31325 0.47355 0.22758 0.0
C352 C 0.3315 0.48084 0.24605 0.0
C353 C 0.35414 0.48871 0.23762 0.0
C354 C 0.37055 0.49469 0.26134 0.0
C355 C 0.38201 0.4794 0.26155 0.0
C356 C 0.38898 0.52076 0.26134 0.0
C357 C 0.35362 0.48868 0.28454 0.0
C358 C 0.33118 0.48084 0.27543 0.0
C359 C 0.31255 0.47362 0.29337 0.0
C360 C 0.31697 0.47424 0.32125 0.0
C361 C 0.33983 0.48196 0.33091 0.0
C362 C 0.35831 0.48945 0.31216 0.0
H363 H 0.87369 0.3791 0.69811 0.0
H364 H 0.82915 0.30559 0.68043 0.0
H365 H 0.82237 0.29735 0.7294 0.0
H366 H 0.90162 0.37163 0.75345 0.0
H367 H 0.90372 0.39578 0.77252 0.0
H368 H 0.90266 0.39611 0.73625 0.0
H369 H 0.86684 0.40203 0.73843 0.0
H370 H 0.86787 0.40185 0.77478 0.0
H371 H 0.84144 0.38179 0.75736 0.0
H372 H 0.82339 0.29699 0.78102 0.0
H373 H 0.83217 0.30458 0.82982 0.0
H374 H 0.87641 0.37825 0.81272 0.0
C375 C 0.86206 0.3613 0.70441 0.0
C376 C 0.85179 0.34301 0.68535 0.0
C377 C 0.83707 0.31993 0.69461 0.0
C378 C 0.83312 0.31509 0.72241 0.0
C379 C 0.84399 0.33351 0.74069 0.0
C380 C 0.85807 0.35618 0.73198 0.0
C381 C 0.86906 0.37271 0.75552 0.0
C382 C 0.89584 0.38475 0.75435 0.0
C383 C 0.8608 0.39065 0.75658 0.0
C384 C 0.85935 0.35579 0.7789 0.0
C385 C 0.84475 0.33328 0.77007 0.0
C386 C 0.8346 0.31461 0.78813 0.0
C387 C 0.83968 0.31908 0.81582 0.0
C388 C 0.8549 0.34201 0.82517 0.0
C389 C 0.86456 0.36053 0.80635 0.0
H390 H 0.51217 0.88213 0.31793 0.0
H391 H 0.53848 0.83509 0.33424 0.0
H392 H 0.53972 0.82881 0.28509 0.0
H393 H 0.47609 0.85095 0.25998 0.0
H394 H 0.48285 0.87743 0.24243 0.0
H395 H 0.48266 0.87682 0.27879 0.0
H396 H 0.52502 0.91162 0.27946 0.0
H397 H 0.52536 0.9123 0.24314 0.0
H398 H 0.54744 0.90946 0.26121 0.0
H399 H 0.53999 0.82955 0.23337 0.0
H400 H 0.53929 0.8373 0.18453 0.0
H401 H 0.51289 0.88391 0.20315 0.0
C402 C 0.51793 0.87026 0.31127 0.0
C403 C 0.52514 0.85903 0.33001 0.0
C404 C 0.53276 0.84382 0.32031 0.0
C405 C 0.53353 0.84014 0.29241 0.0
C406 C 0.52655 0.85176 0.27448 0.0
C407 C 0.51882 0.86644 0.28362 0.0
C408 C 0.51316 0.87763 0.2604 0.0
C409 C 0.48714 0.87026 0.26041 0.0
C410 C 0.52867 0.90433 0.2611 0.0
C411 C 0.51918 0.86721 0.23668 0.0
C412 C 0.52675 0.85222 0.24509 0.0
C413 C 0.53391 0.84113 0.22661 0.0
C414 C 0.53346 0.84564 0.19889 0.0
C415 C 0.52597 0.86115 0.18994 0.0
C416 C 0.51858 0.87184 0.20922 0.0
H417 H 0.62919 0.50142 0.81918 0.0
H418 H 0.70268 0.53195 0.83821 0.0
H419 H 0.71144 0.53182 0.7896 0.0
H420 H 0.62764 0.46445 0.76308 0.0
H421 H 0.60742 0.46953 0.74401 0.0
H422 H 0.60694 0.47002 0.78038 0.0
H423 H 0.61218 0.51149 0.77915 0.0
H424 H 0.61271 0.51115 0.74285 0.0
H425 H 0.63657 0.53433 0.76112 0.0
H426 H 0.71222 0.53104 0.73799 0.0
H427 H 0.70494 0.53008 0.68881 0.0
H428 H 0.63096 0.50015 0.70461 0.0
C429 C 0.64711 0.50772 0.81326 0.0
C430 C 0.66524 0.51658 0.83257 0.0
C431 C 0.68847 0.52495 0.82382 0.0
C432 C 0.69361 0.52492 0.79624 0.0
C433 C 0.67531 0.51639 0.77769 0.0
C434 C 0.65251 0.50787 0.78592 0.0
C435 C 0.63612 0.50097 0.76206 0.0
C436 C 0.61849 0.47468 0.76241 0.0
C437 C 0.62368 0.51535 0.76126 0.0
C438 C 0.65325 0.50734 0.73901 0.0
C439 C 0.67577 0.51603 0.74832 0.0
C440 C 0.69461 0.52403 0.73054 0.0
C441 C 0.69031 0.5234 0.70262 0.0
C442 C 0.66738 0.51495 0.69279 0.0
C443 C 0.64868 0.50653 0.71136 0.0
H444 H 0.12624 0.62081 0.31854 0.0
H445 H 0.17096 0.69383 0.33846 0.0
H446 H 0.1808 0.70272 0.29007 0.0
H447 H 0.16192 0.61825 0.26318 0.0
H448 H 0.1367 0.59881 0.24349 0.0
H449 H 0.13508 0.59805 0.27983 0.0
H450 H 0.09979 0.60482 0.27777 0.0
H451 H 0.10131 0.60561 0.2415 0.0
H452 H 0.10256 0.62974 0.25977 0.0
H453 H 0.18308 0.70392 0.23867 0.0
H454 H 0.17726 0.69731 0.18938 0.0
H455 H 0.1312 0.62347 0.20383 0.0
C456 C 0.13843 0.63863 0.31286 0.0
C457 C 0.14792 0.65661 0.33237 0.0
C458 C 0.16355 0.67974 0.32393 0.0
C459 C 0.16927 0.68495 0.29647 0.0
C460 C 0.1593 0.66683 0.27771 0.0
C461 C 0.14428 0.64412 0.28562 0.0
C462 C 0.13477 0.62799 0.2615 0.0
C463 C 0.14259 0.6097 0.26204 0.0
C464 C 0.10803 0.61637 0.26006 0.0
C465 C 0.14639 0.6452 0.23869 0.0
C466 C 0.16063 0.66751 0.24837 0.0
C467 C 0.17219 0.68646 0.23091 0.0
C468 C 0.1688 0.68255 0.20293 0.0
C469 C 0.15391 0.65986 0.19266 0.0
C470 C 0.14294 0.64099 0.21092 0.0
H471 H 0.47366 0.15105 0.81724 0.0
H472 H 0.52582 0.13132 0.83387 0.0
H473 H 0.53398 0.13233 0.78528 0.0
H474 H 0.45029 0.1158 0.76042 0.0
H475 H 0.44503 0.1358 0.74118 0.0
H476 H 0.44537 0.13701 0.77749 0.0
H477 H 0.47728 0.18058 0.77593 0.0
H478 H 0.47695 0.17955 0.73954 0.0
H479 H 0.50389 0.18923 0.75755 0.0
H480 H 0.53358 0.13081 0.73577 0.0
H481 H 0.52506 0.12742 0.68713 0.0
H482 H 0.4732 0.14818 0.70063 0.0
C483 C 0.48725 0.14762 0.81061 0.0
C484 C 0.49926 0.14129 0.82933 0.0
C485 C 0.51646 0.13627 0.8199 0.0
C486 C 0.52129 0.13687 0.79233 0.0
C487 C 0.50877 0.14253 0.77432 0.0
C488 C 0.49218 0.14795 0.78293 0.0
C489 C 0.47995 0.15149 0.75894 0.0
C490 C 0.4536 0.13398 0.75955 0.0
C491 C 0.48481 0.17672 0.75793 0.0
C492 C 0.49181 0.14651 0.73567 0.0
C493 C 0.50853 0.14163 0.74516 0.0
C494 C 0.52081 0.13496 0.72801 0.0
C495 C 0.51575 0.13298 0.7004 0.0
C496 C 0.49859 0.13768 0.69006 0.0
C497 C 0.48671 0.14489 0.70792 0.0
H498 H 0.49538 0.61986 0.70153 0.0
H499 H 0.52321 0.69343 0.68523 0.0
H500 H 0.52314 0.70076 0.73424 0.0
H501 H 0.45841 0.61541 0.75958 0.0
H502 H 0.46482 0.59545 0.77715 0.0
H503 H 0.46459 0.59582 0.74077 0.0
H504 H 0.50669 0.60263 0.74006 0.0
H505 H 0.5071 0.6024 0.77636 0.0
H506 H 0.52936 0.62708 0.75814 0.0
H507 H 0.52339 0.70036 0.7857 0.0
H508 H 0.52372 0.69224 0.83444 0.0
H509 H 0.4959 0.61895 0.81634 0.0
C510 C 0.50098 0.63746 0.70814 0.0
C511 C 0.50914 0.65605 0.68945 0.0
C512 C 0.51671 0.67887 0.69911 0.0
C513 C 0.51673 0.6832 0.72693 0.0
C514 C 0.50907 0.66451 0.74484 0.0
C515 C 0.50119 0.64207 0.73575 0.0
C516 C 0.49533 0.62523 0.75905 0.0
C517 C 0.46923 0.6069 0.75914 0.0
C518 C 0.51053 0.61367 0.75835 0.0
C519 C 0.5016 0.64174 0.78273 0.0
C520 C 0.5093 0.6643 0.77422 0.0
C521 C 0.51711 0.6827 0.79256 0.0
C522 C 0.51725 0.67792 0.82022 0.0
C523 C 0.50973 0.65495 0.82929 0.0
C524 C 0.50155 0.63667 0.81018 0.0
H525 H 0.87758 0.50107 0.31115 0.0
H526 H 0.8328 0.52987 0.32857 0.0
H527 H 0.82462 0.52952 0.27972 0.0
H528 H 0.90328 0.53387 0.25273 0.0
H529 H 0.9047 0.51081 0.23508 0.0
H530 H 0.90528 0.51157 0.27139 0.0
H531 H 0.86965 0.46971 0.27284 0.0
H532 H 0.86895 0.46884 0.23647 0.0
H533 H 0.84334 0.46339 0.25516 0.0
H534 H 0.82385 0.52864 0.22811 0.0
H535 H 0.83082 0.52759 0.17912 0.0
H536 H 0.87572 0.49891 0.19641 0.0
C537 C 0.86578 0.50702 0.30481 0.0
C538 C 0.85577 0.51544 0.32376 0.0
C539 C 0.8406 0.52325 0.31447 0.0
C540 C 0.83584 0.52309 0.28675 0.0
C541 C 0.84626 0.51492 0.26858 0.0
C542 C 0.86084 0.50695 0.27733 0.0
C543 C 0.87081 0.50013 0.25382 0.0
C544 C 0.8976 0.51499 0.25323 0.0
C545 C 0.86269 0.47396 0.25463 0.0
C546 C 0.85994 0.50591 0.23037 0.0
C547 C 0.8457 0.51428 0.2392 0.0
C548 C 0.83476 0.52184 0.22103 0.0
C549 C 0.83879 0.52116 0.19322 0.0
C550 C 0.85366 0.513 0.18383 0.0
C551 C 0.864 0.50496 0.2028 0.0
H552 H 0.3334 0.85223 0.70284 0.0
H553 H 0.40698 0.87777 0.6888 0.0
H554 H 0.41301 0.87612 0.7376 0.0
H555 H 0.34101 0.88525 0.76125 0.0
H556 H 0.31573 0.86327 0.77891 0.0
H557 H 0.31629 0.86354 0.74258 0.0
H558 H 0.30772 0.82087 0.74223 0.0
H559 H 0.30709 0.82046 0.77863 0.0
H560 H 0.32646 0.81335 0.76077 0.0
H561 H 0.41226 0.87554 0.78753 0.0
H562 H 0.40481 0.8764 0.83612 0.0
H563 H 0.33171 0.8512 0.81938 0.0
C564 C 0.35064 0.85693 0.71003 0.0
C565 C 0.3697 0.86497 0.69193 0.0
C566 C 0.39211 0.8715 0.7022 0.0
C567 C 0.39571 0.87055 0.72992 0.0
C568 C 0.37673 0.86302 0.74728 0.0
C569 C 0.3546 0.85625 0.73784 0.0
C570 C 0.33768 0.8506 0.76121 0.0
C571 C 0.32706 0.86662 0.76096 0.0
C572 C 0.31861 0.82478 0.76067 0.0
C573 C 0.35392 0.85581 0.78516 0.0
C574 C 0.3763 0.86271 0.77652 0.0
C575 C 0.39474 0.86985 0.79458 0.0
C576 C 0.39034 0.87032 0.82216 0.0
C577 C 0.36766 0.86367 0.8316 0.0
C578 C 0.34912 0.85592 0.81282 0.0
H579 H 0.47779 0.33061 0.32095 0.0
H580 H 0.52558 0.40408 0.3357 0.0
H581 H 0.53316 0.41059 0.28694 0.0
H582 H 0.50995 0.3245 0.26257 0.0
H583 H 0.48354 0.30517 0.24466 0.0
H584 H 0.48375 0.30545 0.28106 0.0
H585 H 0.4494 0.31366 0.28115 0.0
H586 H 0.44914 0.31351 0.24481 0.0
H587 H 0.4522 0.3385 0.26293 0.0
H588 H 0.53287 0.41036 0.2372 0.0
H589 H 0.5251 0.40334 0.18856 0.0
H590 H 0.47759 0.32996 0.20429 0.0
C591 C 0.49027 0.34792 0.3139 0.0
C592 C 0.50122 0.36683 0.33217 0.0
C593 C 0.51701 0.38934 0.32213 0.0
C594 C 0.5215 0.39321 0.29445 0.0
C595 C 0.51008 0.3744 0.27692 0.0
C596 C 0.49486 0.35216 0.28612 0.0
C597 C 0.4837 0.33545 0.26259 0.0
C598 C 0.49066 0.31652 0.26273 0.0
C599 C 0.45703 0.32465 0.2629 0.0
C600 C 0.49462 0.35194 0.23883 0.0
C601 C 0.50992 0.37427 0.24772 0.0
C602 C 0.52118 0.39291 0.22994 0.0
C603 C 0.51656 0.38874 0.20232 0.0
C604 C 0.50084 0.3661 0.19258 0.0
C605 C 0.48997 0.34738 0.21111 0.0
H606 H 0.13507 0.50591 0.70685 0.0
H607 H 0.17805 0.47524 0.68853 0.0
H608 H 0.18601 0.47477 0.73735 0.0
H609 H 0.16943 0.54207 0.76402 0.0
H610 H 0.14374 0.53684 0.78237 0.0
H611 H 0.14363 0.5369 0.74599 0.0
H612 H 0.10724 0.49551 0.746 0.0
H613 H 0.10727 0.49529 0.7823 0.0
H614 H 0.10825 0.47233 0.76387 0.0
H615 H 0.18633 0.47473 0.78914 0.0
H616 H 0.17883 0.47499 0.83815 0.0
H617 H 0.13556 0.5056 0.82131 0.0
C618 C 0.14654 0.49949 0.71296 0.0
C619 C 0.15605 0.49073 0.6938 0.0
C620 C 0.17069 0.48219 0.70281 0.0
C621 C 0.1753 0.48186 0.73051 0.0
C622 C 0.16524 0.49023 0.74891 0.0
C623 C 0.15125 0.49899 0.74039 0.0
C624 C 0.14126 0.5056 0.76403 0.0
C625 C 0.15005 0.53192 0.7641 0.0
C626 C 0.11442 0.49133 0.76404 0.0
C627 C 0.1514 0.4988 0.7873 0.0
C628 C 0.16536 0.49013 0.77831 0.0
C629 C 0.17565 0.48174 0.79634 0.0
C630 C 0.17131 0.48196 0.82416 0.0
C631 C 0.15671 0.49041 0.83364 0.0
C632 C 0.14698 0.49921 0.81484 0.0
H633 H 0.67759 0.14901 0.31764 0.0
H634 H 0.60438 0.12426 0.33331 0.0
H635 H 0.59776 0.1264 0.28477 0.0
H636 H 0.68422 0.18848 0.26036 0.0
H637 H 0.7031 0.18114 0.24179 0.0
H638 H 0.703 0.18058 0.27819 0.0
H639 H 0.69392 0.13776 0.27722 0.0
H640 H 0.69394 0.13817 0.2409 0.0
H641 H 0.6688 0.1163 0.25887 0.0
H642 H 0.59778 0.12714 0.23497 0.0
H643 H 0.60443 0.12634 0.18618 0.0
H644 H 0.67764 0.15068 0.20121 0.0
C645 C 0.66032 0.1446 0.31086 0.0
C646 C 0.64152 0.1366 0.32929 0.0
C647 C 0.61904 0.13045 0.31959 0.0
C648 C 0.61511 0.1317 0.29205 0.0
C649 C 0.63383 0.13914 0.27432 0.0
C650 C 0.65602 0.14557 0.28323 0.0
C651 C 0.67257 0.15114 0.25951 0.0
C652 C 0.69187 0.17687 0.26 0.0
C653 C 0.68291 0.13487 0.25911 0.0
C654 C 0.65602 0.1462 0.23598 0.0
C655 C 0.63383 0.13955 0.24512 0.0
C656 C 0.61514 0.13264 0.22752 0.0
C657 C 0.61909 0.13218 0.19982 0.0
C658 C 0.64157 0.1386 0.18987 0.0
C659 C 0.66036 0.1461 0.2082 0.0
H660 H 0.19586 0.45265 0.96485 0.0
H661 H 0.15433 0.4412 0.03712 0.0
H662 H 0.18388 0.43795 0.06403 0.0
H663 H 0.21757 0.4128 0.98332 0.0
H664 H 0.24593 0.43159 0.96887 0.0
H665 H 0.22056 0.4311 0.9549 0.0
H666 H 0.24019 0.47578 0.96157 0.0
H667 H 0.26552 0.47639 0.97568 0.0
H668 H 0.25038 0.48801 0.99465 0.0
H669 H 0.21977 0.44001 0.08392 0.0
H670 H 0.25844 0.44485 0.09469 0.0
H671 H 0.27591 0.45345 1.00942 0.0
C672 C 0.19277 0.44903 0.98624 0.0
C673 C 0.17273 0.44715 0.99884 0.0
C674 C 0.16948 0.44263 0.02695 0.0
C675 C 0.18618 0.44076 0.04246 0.0
C676 C 0.20596 0.4432 0.02954 0.0
C677 C 0.20921 0.44695 1.00202 0.0
C678 C 0.23243 0.44981 0.99329 0.0
C679 C 0.2289 0.43015 0.97395 0.0
C680 C 0.24805 0.47393 0.98056 0.0
C681 C 0.24194 0.44762 0.02028 0.0
C682 C 0.2264 0.44379 0.04094 0.0
C683 C 0.23193 0.44262 0.06786 0.0
C684 C 0.25394 0.44547 0.0738 0.0
C685 C 0.27006 0.44928 0.0529 0.0
C686 C 0.2638 0.45015 0.02581 0.0
H687 H 0.7362 0.17793 0.5086 0.0
H688 H 0.75793 0.18921 0.4247 0.0
H689 H 0.79674 0.22135 0.43843 0.0
H690 H 0.76211 0.23689 0.52532 0.0
H691 H 0.77025 0.23371 0.5591 0.0
H692 H 0.74557 0.20968 0.5431 0.0
H693 H 0.76384 0.18354 0.55114 0.0
H694 H 0.78866 0.20756 0.56716 0.0
H695 H 0.79286 0.19286 0.53893 0.0
H696 H 0.83212 0.25366 0.46105 0.0
H697 H 0.86014 0.28581 0.48986 0.0
H698 H 0.81447 0.25466 0.55891 0.0
C699 C 0.7493 0.18681 0.49317 0.0
C700 C 0.74422 0.1809 0.46561 0.0
C701 C 0.76156 0.19338 0.44593 0.0
C702 C 0.78366 0.21156 0.45357 0.0
C703 C 0.78801 0.21712 0.48092 0.0
C704 C 0.77125 0.20521 0.5004 0.0
C705 C 0.77944 0.21608 0.52805 0.0
C706 C 0.76339 0.2246 0.53955 0.0
C707 C 0.78131 0.19899 0.54746 0.0
C708 C 0.80329 0.23629 0.52104 0.0
C709 C 0.80807 0.23629 0.49385 0.0
C710 C 0.82863 0.25373 0.48239 0.0
C711 C 0.84447 0.27192 0.49898 0.0
C712 C 0.83955 0.27277 0.5267 0.0
C713 C 0.81886 0.25442 0.53789 0.0
H714 H 0.55645 0.81024 0.05252 0.0
H715 H 0.5615 0.85128 0.98185 0.0
H716 H 0.56379 0.82235 0.95269 0.0
H717 H 0.59625 0.79041 0.02758 0.0
H718 H 0.57924 0.76193 0.04248 0.0
H719 H 0.57983 0.78681 0.05802 0.0
H720 H 0.53472 0.7659 0.05579 0.0
H721 H 0.534 0.74102 0.04018 0.0
H722 H 0.52031 0.75537 0.02375 0.0
H723 H 0.56141 0.78698 0.93075 0.0
H724 H 0.55673 0.7487 0.91813 0.0
H725 H 0.55499 0.73159 1.00299 0.0
C726 C 0.55843 0.81333 0.03096 0.0
C727 C 0.55881 0.83306 0.01952 0.0
C728 C 0.56124 0.83636 0.99115 0.0
C729 C 0.56255 0.82001 0.97437 0.0
C730 C 0.56169 0.80055 0.98623 0.0
C731 C 0.55996 0.79726 0.01389 0.0
C732 C 0.55853 0.77442 0.02141 0.0
C733 C 0.57973 0.77866 0.03837 0.0
C734 C 0.53552 0.75823 0.03614 0.0
C735 C 0.55915 0.76515 0.99363 0.0
C736 C 0.56101 0.78048 0.97359 0.0
C737 C 0.56035 0.775 0.94628 0.0
C738 C 0.55763 0.75322 0.93929 0.0
C739 C 0.55579 0.73732 0.95954 0.0
C740 C 0.55682 0.74357 0.98702 0.0
H741 H 0.74511 0.55049 0.55712 0.0
H742 H 0.71328 0.56195 0.48653 0.0
H743 H 0.74478 0.56405 0.45799 0.0
H744 H 0.80619 0.58904 0.53582 0.0
H745 H 0.81567 0.56997 0.54962 0.0
H746 H 0.79161 0.57125 0.56485 0.0
H747 H 0.76558 0.52656 0.55911 0.0
H748 H 0.78948 0.52517 0.54372 0.0
H749 H 0.76214 0.51383 0.52606 0.0
H750 H 0.77746 0.56091 0.43637 0.0
H751 H 0.81046 0.55522 0.42384 0.0
H752 H 0.82188 0.54728 0.5085 0.0
C753 C 0.74499 0.55387 0.53575 0.0
C754 C 0.72671 0.55609 0.52411 0.0
C755 C 0.72711 0.56027 0.49598 0.0
C756 C 0.74494 0.56148 0.47955 0.0
C757 C 0.76242 0.55872 0.49155 0.0
C758 C 0.76277 0.55528 0.51904 0.0
C759 C 0.78311 0.55201 0.52669 0.0
C760 C 0.80016 0.57175 0.54535 0.0
C761 C 0.77455 0.52796 0.53965 0.0
C762 C 0.79379 0.5536 0.49914 0.0
C763 C 0.78161 0.55749 0.47913 0.0
C764 C 0.78736 0.55823 0.4519 0.0
C765 C 0.80607 0.5549 0.44496 0.0
C766 C 0.81887 0.55104 0.46518 0.0
C767 C 0.81268 0.55059 0.4926 0.0
H768 H 0.25441 0.81011 0.96201 0.0
H769 H 0.2862 0.85505 0.03141 0.0
H770 H 0.25409 0.82696 0.06023 0.0
H771 H 0.19294 0.78918 0.98248 0.0
H772 H 0.18317 0.76023 0.9698 0.0
H773 H 0.20746 0.78499 0.95403 0.0
H774 H 0.23301 0.76597 0.96137 0.0
H775 H 0.20889 0.74127 0.97729 0.0
H776 H 0.23621 0.75743 0.99495 0.0
H777 H 0.22151 0.79179 0.08269 0.0
H778 H 0.1889 0.7532 0.09627 0.0
H779 H 0.17693 0.73204 0.01222 0.0
C780 C 0.25433 0.81429 0.98313 0.0
C781 C 0.27284 0.83483 0.99439 0.0
C782 C 0.27221 0.8395 0.02223 0.0
C783 C 0.25402 0.82364 0.03883 0.0
C784 C 0.23637 0.80328 0.02727 0.0
C785 C 0.23615 0.79872 0.99999 0.0
C786 C 0.21564 0.77505 0.99291 0.0
C787 C 0.1988 0.77752 0.97367 0.0
C788 C 0.22395 0.75899 0.98093 0.0
C789 C 0.20483 0.76678 0.02058 0.0
C790 C 0.21703 0.78332 0.04014 0.0
C791 C 0.21149 0.77888 0.06749 0.0
C792 C 0.19302 0.75692 0.07504 0.0
C793 C 0.18019 0.73981 0.05528 0.0
C794 C 0.18607 0.74499 0.02772 0.0
H795 H 0.45132 0.19236 0.55376 0.0
H796 H 0.44719 0.15283 0.48197 0.0
H797 H 0.44317 0.18129 0.45381 0.0
H798 H 0.40941 0.21016 0.53067 0.0
H799 H 0.42566 0.23857 0.54595 0.0
H800 H 0.42633 0.21404 0.56072 0.0
H801 H 0.47145 0.23652 0.55781 0.0
H802 H 0.47092 0.26104 0.54298 0.0
H803 H 0.48538 0.24784 0.52569 0.0
H804 H 0.44391 0.21626 0.43293 0.0
H805 H 0.44709 0.25411 0.42142 0.0
H806 H 0.44885 0.26981 0.50673 0.0
C807 C 0.44917 0.18948 0.53217 0.0
C808 C 0.44955 0.17034 0.52011 0.0
C809 C 0.44686 0.1673 0.49174 0.0
C810 C 0.44457 0.18338 0.47552 0.0
C811 C 0.4447 0.20228 0.48797 0.0
C812 C 0.44664 0.20526 0.51568 0.0
C813 C 0.44717 0.22754 0.52388 0.0
C814 C 0.42587 0.22225 0.54134 0.0
C815 C 0.47009 0.24421 0.53844 0.0
C816 C 0.44583 0.2369 0.49643 0.0
C817 C 0.44439 0.22207 0.47596 0.0
C818 C 0.44461 0.22782 0.44881 0.0
C819 C 0.44648 0.24935 0.44244 0.0
C820 C 0.44791 0.26473 0.46315 0.0
C821 C 0.44729 0.2582 0.49045 0.0
H822 H 0.81579 0.56329 0.05809 0.0
H823 H 0.86106 0.57823 0.98855 0.0
H824 H 0.83261 0.58201 0.96014 0.0
H825 H 0.76359 0.52838 0.02512 0.0
H826 H 0.7468 0.53866 0.04312 0.0
H827 H 0.77186 0.53986 0.05884 0.0
H828 H 0.78981 0.58422 0.06682 0.0
H829 H 0.76466 0.58313 0.0513 0.0
H830 H 0.79346 0.60302 0.03869 0.0
H831 H 0.79692 0.57859 0.93796 0.0
H832 H 0.75786 0.57153 0.92468 0.0
H833 H 0.73673 0.56097 1.00879 0.0
C834 C 0.81999 0.56794 0.03705 0.0
C835 C 0.8407 0.57049 0.0256 0.0
C836 C 0.84538 0.57629 0.99786 0.0
C837 C 0.82931 0.57846 0.9815 0.0
C838 C 0.80875 0.57514 0.99321 0.0
C839 C 0.80421 0.5704 0.02044 0.0
C840 C 0.78028 0.56646 0.0277 0.0
C841 C 0.76473 0.54188 0.03937 0.0
C842 C 0.78217 0.58534 0.04728 0.0
C843 C 0.7718 0.56898 1.00017 0.0
C844 C 0.78848 0.57401 0.98052 0.0
C845 C 0.7839 0.57517 0.95324 0.0
C846 C 0.76167 0.57105 0.94586 0.0
C847 C 0.74444 0.56606 0.96573 0.0
C848 C 0.74975 0.5653 0.99321 0.0
H849 H 0.17615 0.72813 0.50973 0.0
H850 H 0.18951 0.75045 0.4261 0.0
H851 H 0.22263 0.78841 0.4405 0.0
H852 H 0.19321 0.78521 0.5404 0.0
H853 H 0.20684 0.77994 0.56893 0.0
H854 H 0.18242 0.75589 0.5524 0.0
H855 H 0.20704 0.73587 0.54492 0.0
H856 H 0.2315 0.75982 0.56136 0.0
H857 H 0.23464 0.75149 0.52764 0.0
H858 H 0.25557 0.82272 0.46373 0.0
H859 H 0.28764 0.84984 0.49323 0.0
H860 H 0.25402 0.80429 0.56173 0.0
C861 C 0.1857 0.74121 0.49449 0.0
C862 C 0.18009 0.73653 0.4668 0.0
C863 C 0.19343 0.7538 0.44741 0.0
C864 C 0.21219 0.7754 0.45543 0.0
C865 C 0.21746 0.77934 0.48288 0.0
C866 C 0.20468 0.76267 0.50211 0.0
C867 C 0.21527 0.77032 0.52998 0.0
C868 C 0.19843 0.773 0.54905 0.0
C869 C 0.22255 0.75337 0.54164 0.0
C870 C 0.23629 0.79375 0.52339 0.0
C871 C 0.23698 0.79878 0.49619 0.0
C872 C 0.25513 0.81904 0.48507 0.0
C873 C 0.27328 0.83435 0.50206 0.0
C874 C 0.27337 0.82923 0.52985 0.0
C875 C 0.25438 0.8088 0.54066 0.0
H876 H 0.45386 0.1766 0.01583 0.0
H877 H 0.44705 0.18647 0.93041 0.0
H878 H 0.44444 0.22158 0.94092 0.0
H879 H 0.41554 0.1977 0.04127 0.0
H880 H 0.434 0.21213 0.06988 0.0
H881 H 0.43284 0.18644 0.05592 0.0
H882 H 0.47769 0.20918 0.04967 0.0
H883 H 0.47899 0.23492 0.06353 0.0
H884 H 0.49106 0.23594 0.03059 0.0
H885 H 0.44458 0.25652 0.9604 0.0
H886 H 0.44939 0.29005 0.98701 0.0
H887 H 0.45775 0.2585 0.05987 0.0
C888 C 0.45134 0.18588 0.99938 0.0
C889 C 0.45038 0.17868 0.9723 0.0
C890 C 0.44769 0.19162 0.95129 0.0
C891 C 0.44613 0.21153 0.95708 0.0
C892 C 0.44744 0.21834 0.98397 0.0
C893 C 0.45008 0.20598 1.00478 0.0
C894 C 0.45283 0.21802 0.03171 0.0
C895 C 0.43259 0.20265 0.05082 0.0
C896 C 0.47655 0.22492 0.04462 0.0
C897 C 0.45165 0.23927 0.02273 0.0
C898 C 0.44822 0.23892 0.99516 0.0
C899 C 0.44713 0.25691 0.98202 0.0
C900 C 0.4499 0.27591 0.99736 0.0
C901 C 0.45393 0.27693 0.02557 0.0
C902 C 0.45456 0.25819 0.03839 0.0
H903 H 0.17701 0.45199 0.51067 0.0
H904 H 0.18858 0.44619 0.59584 0.0
H905 H 0.22269 0.44207 0.58434 0.0
H906 H 0.19571 0.41183 0.48502 0.0
H907 H 0.20981 0.4296 0.45582 0.0
H908 H 0.18489 0.42957 0.47054 0.0
H909 H 0.20896 0.47447 0.47568 0.0
H910 H 0.23393 0.47464 0.46105 0.0
H911 H 0.23618 0.48742 0.49384 0.0
H912 H 0.25653 0.44063 0.56383 0.0
H913 H 0.28899 0.44396 0.53618 0.0
H914 H 0.25643 0.45233 0.46423 0.0
C915 C 0.18644 0.44937 0.52687 0.0
C916 C 0.18002 0.44913 0.55416 0.0
C917 C 0.19315 0.44629 0.57482 0.0
C918 C 0.21248 0.44387 0.56847 0.0
C919 C 0.21854 0.44449 0.54138 0.0
C920 C 0.20597 0.44727 0.52091 0.0
C921 C 0.21721 0.44918 0.49362 0.0
C922 C 0.20093 0.42883 0.47516 0.0
C923 C 0.2245 0.47283 0.48028 0.0
C924 C 0.23825 0.44737 0.50197 0.0
C925 C 0.23849 0.44436 0.52957 0.0
C926 C 0.25646 0.44285 0.54219 0.0
C927 C 0.27484 0.44477 0.52626 0.0
C928 C 0.27528 0.44839 0.498 0.0
C929 C 0.25656 0.44944 0.48574 0.0
H930 H 0.83226 0.28322 0.01398 0.0
H931 H 0.82387 0.26055 0.9305 0.0
H932 H 0.79172 0.22174 0.94396 0.0
H933 H 0.81756 0.22725 0.04575 0.0
H934 H 0.8017 0.2311 0.07296 0.0
H935 H 0.82579 0.25615 0.05734 0.0
H936 H 0.79894 0.27325 0.04709 0.0
H937 H 0.77482 0.24831 0.06268 0.0
H938 H 0.77234 0.25601 0.02843 0.0
H939 H 0.75938 0.18635 0.96593 0.0
H940 H 0.72706 0.15766 0.99399 0.0
H941 H 0.75509 0.20379 0.06319 0.0
C942 C 0.82395 0.26992 0.99862 0.0
C943 C 0.83071 0.27475 0.97123 0.0
C944 C 0.81903 0.25715 0.9516 0.0
C945 C 0.80083 0.23504 0.95909 0.0
C946 C 0.79443 0.23092 0.98623 0.0
C947 C 0.80552 0.2479 1.00569 0.0
C948 C 0.79391 0.23965 0.03303 0.0
C949 C 0.81075 0.23847 0.05347 0.0
C950 C 0.78444 0.25523 0.0434 0.0
C951 C 0.77431 0.21549 0.02582 0.0
C952 C 0.77521 0.2107 0.99881 0.0
C953 C 0.75857 0.18985 0.98713 0.0
C954 C 0.74026 0.17365 1.0033 0.0
C955 C 0.73851 0.17843 0.03085 0.0
C956 C 0.75603 0.19952 0.04229 0.0
H957 H 0.55863 0.80729 0.46574 0.0
H958 H 0.56271 0.84721 0.53714 0.0
H959 H 0.56645 0.81879 0.56565 0.0
H960 H 0.52425 0.75192 0.49419 0.0
H961 H 0.53864 0.73852 0.47718 0.0
H962 H 0.53828 0.76303 0.46206 0.0
H963 H 0.5834 0.78529 0.4593 0.0
H964 H 0.5839 0.76079 0.47439 0.0
H965 H 0.60023 0.78928 0.48946 0.0
H966 H 0.56545 0.78391 0.58692 0.0
H967 H 0.56188 0.74599 0.59894 0.0
H968 H 0.5604 0.72972 0.51385 0.0
C969 C 0.5607 0.81026 0.48732 0.0
C970 C 0.56039 0.82951 0.49916 0.0
C971 C 0.56297 0.83265 0.52753 0.0
C972 C 0.56512 0.8166 0.54395 0.0
C973 C 0.56495 0.7976 0.53171 0.0
C974 C 0.56308 0.79448 0.50403 0.0
C975 C 0.56246 0.77208 0.49611 0.0
C976 C 0.53955 0.75541 0.48153 0.0
C977 C 0.58377 0.77717 0.47879 0.0
C978 C 0.56367 0.76285 0.52369 0.0
C979 C 0.56513 0.77783 0.54398 0.0
C980 C 0.56475 0.77223 0.5712 0.0
C981 C 0.56266 0.75066 0.57785 0.0
C982 C 0.5612 0.73509 0.55736 0.0
C983 C 0.56203 0.74149 0.52997 0.0
H984 H 0.38619 0.43313 0.12164 0.0
H985 H 0.33846 0.39908 0.05499 0.0
H986 H 0.35355 0.37188 0.05018 0.0
H987 H 0.43368 0.43183 0.09339 0.0
H988 H 0.44415 0.42656 0.12469 0.0
H989 H 0.42777 0.44153 0.1249 0.0
H990 H 0.39812 0.41102 0.15838 0.0
H991 H 0.41448 0.39596 0.15833 0.0
H992 H 0.38391 0.3805 0.14989 0.0
H993 H 0.37632 0.35071 0.05005 0.0
H994 H 0.40499 0.33743 0.05444 0.0
H995 H 0.43772 0.38546 0.12119 0.0
C996 C 0.37855 0.41969 0.10635 0.0
C997 C 0.36105 0.41822 0.08875 0.0
C998 C 0.35181 0.40054 0.06877 0.0
C999 C 0.36024 0.38496 0.06592 0.0
C1000 C 0.37781 0.3872 0.08328 0.0
C1001 C 0.38678 0.40406 0.10319 0.0
C1002 C 0.40663 0.40384 0.11806 0.0
C1003 C 0.4294 0.42733 0.11506 0.0
C1004 C 0.40041 0.39744 0.14794 0.0
C1005 C 0.40786 0.38461 0.10297 0.0
C1006 C 0.39094 0.37506 0.08316 0.0
C1007 C 0.38946 0.35787 0.06571 0.0
C1008 C 0.40586 0.35046 0.06834 0.0
C1009 C 0.42361 0.36031 0.08823 0.0
C1010 C 0.42427 0.37736 0.10597 0.0
H1011 H 0.05443 0.41226 0.56527 0.0
H1012 H 0.06639 0.43007 0.65037 0.0
H1013 H 0.02426 0.40634 0.65906 0.0
H1014 H 0.00493 0.41706 0.55943 0.0
H1015 H 0.98945 0.39302 0.53647 0.0
H1016 H 0.0208 0.40836 0.53721 0.0
H1017 H 0.02035 0.36963 0.54633 0.0
H1018 H 0.98892 0.35411 0.54546 0.0
H1019 H 0.00395 0.3517 0.57453 0.0
H1020 H 0.98128 0.38563 0.65793 0.0
H1021 H 0.93951 0.36803 0.64713 0.0
H1022 H 0.95434 0.36251 0.56295 0.0
C1023 C 0.04821 0.4106 0.58583 0.0
C1024 C 0.06372 0.42294 0.60716 0.0
C1025 C 0.05486 0.42079 0.6337 0.0
C1026 C 0.03095 0.40726 0.63888 0.0
C1027 C 0.01606 0.39586 0.61735 0.0
C1028 C 0.02427 0.39719 0.59137 0.0
C1029 C 0.00425 0.38487 0.57158 0.0
C1030 C 0.0049 0.40184 0.5499 0.0
C1031 C 0.00438 0.36382 0.55872 0.0
C1032 C 0.98358 0.37716 0.5904 0.0
C1033 C 0.99087 0.38352 0.61675 0.0
C1034 C 0.97529 0.38013 0.63749 0.0
C1035 C 0.95162 0.37024 0.63113 0.0
C1036 C 0.94371 0.36374 0.60428 0.0
C1037 C 0.95987 0.36686 0.58375 0.0
H1038 H 0.57518 0.95499 0.12144 0.0
H1039 H 0.61255 0.94187 0.05813 0.0
H1040 H 0.64087 0.98404 0.05551 0.0
H1041 H 0.57927 0.00454 0.09259 0.0
H1042 H 0.58276 0.01979 0.12393 0.0
H1043 H 0.56744 0.98846 0.12346 0.0
H1044 H 0.59553 0.98827 0.15975 0.0
H1045 H 0.61094 0.01968 0.16039 0.0
H1046 H 0.62654 0.00436 0.15383 0.0
H1047 H 0.66287 0.02795 0.05681 0.0
H1048 H 0.67612 0.06988 0.06114 0.0
H1049 H 0.6239 0.05404 0.12319 0.0
C1050 C 0.58962 0.96087 0.10745 0.0
C1051 C 0.59171 0.94506 0.09011 0.0
C1052 C 0.61061 0.95361 0.0717 0.0
C1053 C 0.62684 0.97754 0.07012 0.0
C1054 C 0.62396 0.99269 0.08713 0.0
C1055 C 0.60584 0.98467 0.1055 0.0
C1056 C 0.60544 0.00464 0.11987 0.0
C1057 C 0.58236 0.00433 0.11463 0.0
C1058 C 0.60988 0.00421 0.15027 0.0
C1059 C 0.62575 0.02517 0.10618 0.0
C1060 C 0.63643 0.01796 0.08764 0.0
C1061 C 0.65482 0.03381 0.07151 0.0
C1062 C 0.66221 0.05761 0.07411 0.0
C1063 C 0.65111 0.06533 0.09254 0.0
C1064 C 0.63292 0.04881 0.10906 0.0
H1065 H 0.64529 0.59274 0.56288 0.0
H1066 H 0.64495 0.57802 0.64834 0.0
H1067 H 0.62713 0.60206 0.65836 0.0
H1068 H 0.65556 0.65373 0.57096 0.0
H1069 H 0.63628 0.6501 0.54338 0.0
H1070 H 0.65254 0.63493 0.54307 0.0
H1071 H 0.61408 0.59568 0.53724 0.0
H1072 H 0.59773 0.61067 0.5377 0.0
H1073 H 0.59089 0.58749 0.56143 0.0
H1074 H 0.60424 0.62209 0.65885 0.0
H1075 H 0.57857 0.63834 0.64982 0.0
H1076 H 0.59398 0.64148 0.56428 0.0
C1077 C 0.64214 0.59521 0.58375 0.0
C1078 C 0.64662 0.58359 0.60484 0.0
C1079 C 0.64168 0.58674 0.63185 0.0
C1080 C 0.63165 0.60046 0.63777 0.0
C1081 C 0.62674 0.61106 0.61651 0.0
C1082 C 0.63198 0.60883 0.59004 0.0
C1083 C 0.62283 0.62027 0.57084 0.0
C1084 C 0.64301 0.64099 0.5562 0.0
C1085 C 0.60535 0.60246 0.55063 0.0
C1086 C 0.61086 0.62842 0.5906 0.0
C1087 C 0.61359 0.62311 0.61686 0.0
C1088 C 0.60239 0.62683 0.63848 0.0
C1089 C 0.58777 0.63595 0.63314 0.0
C1090 C 0.58456 0.6414 0.60643 0.0
C1091 C 0.59663 0.63801 0.58496 0.0
H1092 H 0.95644 0.59775 0.06251 0.0
H1093 H 0.9409 0.57624 0.14627 0.0
H1094 H 0.98255 0.60005 0.15757 0.0
H1095 H 0.00625 0.59334 0.05872 0.0
H1096 H 0.02267 0.61821 0.03712 0.0
H1097 H 0.99133 0.60284 0.03609 0.0
H1098 H 0.99134 0.64121 0.04625 0.0
H1099 H 0.02277 0.65675 0.04722 0.0
H1100 H 0.00644 0.65808 0.07563 0.0
H1101 H 0.02539 0.62132 0.15907 0.0
H1102 H 0.06752 0.63899 0.15065 0.0
H1103 H 0.05657 0.64731 0.06594 0.0
C1104 C 0.96179 0.59867 0.08334 0.0
C1105 C 0.94546 0.58532 0.10358 0.0
C1106 C 0.95313 0.58637 0.13048 0.0
C1107 C 0.97674 0.59994 0.13713 0.0
C1108 C 0.99251 0.61239 0.11666 0.0
C1109 C 0.98545 0.612 0.0903 0.0
C1110 C 0.00633 0.62505 0.07176 0.0
C1111 C 0.00666 0.60889 0.04963 0.0
C1112 C 0.00674 0.64655 0.0595 0.0
C1113 C 0.02615 0.63207 0.09169 0.0
C1114 C 0.01768 0.62483 0.11752 0.0
C1115 C 0.0323 0.62747 0.13905 0.0
C1116 C 0.05619 0.63743 0.13404 0.0
C1117 C 0.06529 0.64467 0.1077 0.0
C1118 C 0.05012 0.64239 0.08637 0.0
H1119 H 0.43867 0.05001 0.62072 0.0
H1120 H 0.3994 0.06253 0.55937 0.0
H1121 H 0.37096 0.02036 0.55776 0.0
H1122 H 0.4334 0.99988 0.59173 0.0
H1123 H 0.43085 0.98503 0.62313 0.0
H1124 H 0.4463 0.01635 0.62209 0.0
H1125 H 0.4195 0.01721 0.6597 0.0
H1126 H 0.40396 0.98582 0.6609 0.0
H1127 H 0.38831 1.00121 0.65517 0.0
H1128 H 0.34881 0.97656 0.55991 0.0
H1129 H 0.33537 0.93465 0.56467 0.0
H1130 H 0.38955 0.95087 0.62416 0.0
C1131 C 0.42382 0.04399 0.60737 0.0
C1132 C 0.42121 0.05964 0.59029 0.0
C1133 C 0.40175 0.05092 0.57272 0.0
C1134 C 0.38545 0.02699 0.57172 0.0
C1135 C 0.38881 0.01201 0.58846 0.0
C1136 C 0.4075 0.02018 0.60599 0.0
C1137 C 0.40823 1.00033 0.62023 0.0
C1138 C 0.43104 1.00041 0.6139 0.0
C1139 C 0.40479 1.0012 0.65082 0.0
C1140 C 0.38741 0.97967 0.60741 0.0
C1141 C 0.37624 0.98676 0.58944 0.0
C1142 C 0.35727 0.9708 0.57416 0.0
C1143 C 0.34977 0.94701 0.577 0.0
C1144 C 0.36135 0.93938 0.59483 0.0
C1145 C 0.38016 0.95603 0.61053 0.0
H1146 H 0.56527 0.61364 0.89637 0.0
H1147 H 0.60547 0.67088 0.95157 0.0
H1148 H 0.63458 0.65813 0.95579 0.0
H1149 H 0.57312 0.57194 0.93061 0.0
H1150 H 0.57525 0.55768 0.90063 0.0
H1151 H 0.55885 0.57263 0.89992 0.0
H1152 H 0.5838 0.59783 0.85973 0.0
H1153 H 0.60026 0.58288 0.86025 0.0
H1154 H 0.61511 0.6142 0.86284 0.0
H1155 H 0.65768 0.63719 0.95674 0.0
H1156 H 0.67291 0.60996 0.9541 0.0
H1157 H 0.61749 0.56668 0.89815 0.0
C1158 C 0.58037 0.62376 0.90902 0.0
C1159 C 0.58307 0.64332 0.92359 0.0
C1160 C 0.60301 0.65589 0.94014 0.0
C1161 C 0.61967 0.64879 0.94264 0.0
C1162 C 0.61623 0.62919 0.92836 0.0
C1163 C 0.59713 0.61694 0.91175 0.0
C1164 C 0.59679 0.59577 0.8997 0.0
C1165 C 0.57469 0.57318 0.90824 0.0
C1166 C 0.59914 0.5978 0.8688 0.0
C1167 C 0.61841 0.59771 0.91259 0.0
C1168 C 0.62951 0.61719 0.92888 0.0
C1169 C 0.64927 0.62202 0.94381 0.0
C1170 C 0.65777 0.60642 0.9422 0.0
C1171 C 0.64648 0.58619 0.92585 0.0
C1172 C 0.6267 0.58206 0.91066 0.0
H1173 H 0.95063 0.56539 0.39469 0.0
H1174 H 0.93591 0.60282 0.45641 0.0
H1175 H 0.97809 0.63069 0.46086 0.0
H1176 H 0.9996 0.56918 0.42606 0.0
H1177 H 0.0156 0.5727 0.3953 0.0
H1178 H 0.98424 0.55734 0.3948 0.0
H1179 H 0.98487 0.58538 0.3579 0.0
H1180 H 0.01629 0.60082 0.35822 0.0
H1181 H 1.0008 0.61638 0.36382 0.0
H1182 H 0.0221 0.65272 0.46095 0.0
H1183 H 0.06425 0.66666 0.45727 0.0
H1184 H 0.04992 0.61434 0.39591 0.0
C1185 C 0.95619 0.5797 0.40878 0.0
C1186 C 0.9399 0.58197 0.42509 0.0
C1187 C 0.94802 0.60074 0.44363 0.0
C1188 C 0.97196 0.6167 0.44625 0.0
C1189 C 0.98755 0.61369 0.43019 0.0
C1190 C 0.97998 0.59567 0.41177 0.0
C1191 C 1.0003 0.5953 0.39824 0.0
C1192 C 0.99991 0.57227 0.40396 0.0
C1193 C 1.00058 0.59974 0.36773 0.0
C1194 C 0.02052 0.61562 0.41233 0.0
C1195 C 0.01284 0.62618 0.43047 0.0
C1196 C 0.02832 0.64473 0.44662 0.0
C1197 C 0.05225 0.65251 0.44439 0.0
C1198 C 0.06048 0.64165 0.42627 0.0
C1199 C 0.04429 0.62315 0.40984 0.0
H1200 H 0.41126 0.05091 0.96247 0.0
H1201 H 0.42235 0.06517 0.87658 0.0
H1202 H 0.39696 0.02344 0.86683 0.0
H1203 H 0.41537 1.00125 0.9614 0.0
H1204 H 0.39324 0.98518 0.98638 0.0
H1205 H 0.40869 0.01651 0.98686 0.0
H1206 H 0.36958 0.01642 0.98437 0.0
H1207 H 0.35394 0.985 0.98402 0.0
H1208 H 0.34936 1.00089 0.95747 0.0
H1209 H 0.37621 0.98055 0.86623 0.0
H1210 H 0.36026 0.93862 0.87492 0.0
H1211 H 0.36128 0.95099 0.96103 0.0
C1212 C 0.40768 0.0453 0.94163 0.0
C1213 C 0.41865 0.06129 0.92027 0.0
C1214 C 0.41411 0.05323 0.89325 0.0
C1215 C 0.39961 0.02956 0.88749 0.0
C1216 C 0.38966 0.01412 0.90895 0.0
C1217 C 0.3933 0.02159 0.9355 0.0
C1218 C 0.38248 1.00101 0.95476 0.0
C1219 C 0.40106 1.001 0.97344 0.0
C1220 C 0.36266 1.00082 0.97112 0.0
C1221 C 0.3731 0.9809 0.93489 0.0
C1222 C 0.37721 0.98892 0.90857 0.0
C1223 C 0.37236 0.97397 0.88669 0.0
C1224 C 0.3634 0.95022 0.89181 0.0
C1225 C 0.35925 0.94161 0.91858 0.0
C1226 C 0.36368 0.95708 0.94034 0.0
H1227 H 0.3827 0.43247 0.39988 0.0
H1228 H 0.33279 0.39562 0.46386 0.0
H1229 H 0.34705 0.36762 0.46687 0.0
H1230 H 0.38093 0.38105 0.36821 0.0
H1231 H 0.41179 0.39676 0.36129 0.0
H1232 H 0.39558 0.41197 0.36186 0.0
H1233 H 0.42405 0.44056 0.39766 0.0
H1234 H 0.44026 0.42543 0.39728 0.0
H1235 H 0.42867 0.42916 0.42864 0.0
H1236 H 0.36925 0.34579 0.46564 0.0
H1237 H 0.39801 0.3326 0.46099 0.0
H1238 H 0.43358 0.38433 0.3983 0.0
C1239 C 0.37436 0.41822 0.41412 0.0
C1240 C 0.35651 0.41618 0.43152 0.0
C1241 C 0.34643 0.39751 0.45024 0.0
C1242 C 0.35437 0.38147 0.45204 0.0
C1243 C 0.37235 0.3843 0.43496 0.0
C1244 C 0.38216 0.40219 0.4163 0.0
C1245 C 0.4025 0.4026 0.40181 0.0
C1246 C 0.39738 0.3978 0.37149 0.0
C1247 C 0.4252 0.42581 0.40665 0.0
C1248 C 0.40301 0.38254 0.41572 0.0
C1249 C 0.38531 0.37198 0.43452 0.0
C1250 C 0.38302 0.35376 0.45076 0.0
C1251 C 0.39946 0.3464 0.44798 0.0
C1252 C 0.41807 0.35739 0.42926 0.0
C1253 C 0.41952 0.37544 0.41269 0.0
H1254 H 0.05413 0.41389 0.9622 0.0
H1255 H 0.07002 0.42541 0.87664 0.0
H1256 H 0.0283 0.40088 0.86596 0.0
H1257 H 0.00369 0.35282 0.95631 0.0
H1258 H 0.98754 0.35755 0.98244 0.0
H1259 H 0.01896 0.37285 0.98346 0.0
H1260 H 0.01954 0.4122 0.98569 0.0
H1261 H 0.98821 0.39708 0.98455 0.0
H1262 H 0.00488 0.41921 0.95983 0.0
H1263 H 0.98523 0.37988 0.86441 0.0
H1264 H 0.94312 0.36337 0.87209 0.0
H1265 H 0.95422 0.36499 0.95861 0.0
C1266 C 0.04886 0.41064 0.94122 0.0
C1267 C 0.06533 0.42142 0.92023 0.0
C1268 C 0.05771 0.4173 0.89304 0.0
C1269 C 0.03406 0.4033 0.88675 0.0
C1270 C 0.01818 0.39348 0.90787 0.0
C1271 C 0.0252 0.39682 0.93457 0.0
C1272 C 0.0043 0.38615 0.9534 0.0
C1273 C 0.00359 0.36615 0.96988 0.0
C1274 C 0.00424 0.40477 0.97195 0.0
C1275 C 0.98452 0.37706 0.9331 0.0
C1276 C 0.99298 0.38123 0.90696 0.0
C1277 C 0.97834 0.37614 0.88475 0.0
C1278 C 0.95445 0.36686 0.88933 0.0
C1279 C 0.94537 0.36275 0.91592 0.0
C1280 C 0.9606 0.36751 0.93805 0.0
H1281 H 0.5735 0.95114 0.39946 0.0
H1282 H 0.61117 0.93835 0.46264 0.0
H1283 H 0.63917 0.9806 0.46535 0.0
H1284 H 0.62454 1.00041 0.367 0.0
H1285 H 0.60889 0.01566 0.36036 0.0
H1286 H 0.59351 0.98426 0.36123 0.0
H1287 H 0.56549 0.9846 0.39757 0.0
H1288 H 0.58079 0.01593 0.39689 0.0
H1289 H 0.57739 1.00084 0.42832 0.0
H1290 H 0.66109 0.02452 0.46382 0.0
H1291 H 0.67464 0.06647 0.45875 0.0
H1292 H 0.62219 0.05024 0.39696 0.0
C1293 C 0.5879 0.95712 0.41349 0.0
C1294 C 0.59018 0.94138 0.43074 0.0
C1295 C 0.60908 0.95004 0.44915 0.0
C1296 C 0.62512 0.97401 0.45079 0.0
C1297 C 0.62208 0.98908 0.43385 0.0
C1298 C 0.60397 0.98095 0.4155 0.0
C1299 C 0.6035 1.00083 0.401 0.0
C1300 C 0.60787 1.00025 0.37059 0.0
C1301 C 0.58043 1.00053 0.40628 0.0
C1302 C 0.62383 0.02144 0.41453 0.0
C1303 C 0.63452 0.01434 0.43318 0.0
C1304 C 0.65301 0.03029 0.44906 0.0
C1305 C 0.66058 0.0541 0.44604 0.0
C1306 C 0.64953 0.06172 0.42743 0.0
C1307 C 0.63115 0.04508 0.41124 0.0
H1308 H 0.45407 0.58946 0.94797 0.0
H1309 H 0.48867 0.64534 1.00646 0.0
H1310 H 0.46 0.62113 0.04096 0.0
H1311 H 0.39393 0.5682 0.97289 0.0
H1312 H 0.38533 0.53811 0.96692 0.0
H1313 H 0.40724 0.56064 0.94591 0.0
H1314 H 0.43589 0.54596 0.95739 0.0
H1315 H 0.41415 0.5235 0.9785 0.0
H1316 H 0.44238 0.54373 0.99224 0.0
H1317 H 0.43028 0.58978 0.07043 0.0
H1318 H 0.40027 0.55364 0.09232 0.0
H1319 H 0.38416 0.51823 0.01487 0.0
C1320 C 0.45533 0.59678 0.96787 0.0
C1321 C 0.47366 0.61935 0.97442 0.0
C1322 C 0.47484 0.62812 1.00086 0.0
C1323 C 0.45859 0.61451 0.02066 0.0
C1324 C 0.44109 0.59218 0.01374 0.0
C1325 C 0.43919 0.58341 0.98795 0.0
C1326 C 0.41942 0.55838 0.98629 0.0
C1327 C 0.40035 0.55622 0.96685 0.0
C1328 C 0.42851 0.54193 0.97813 0.0
C1329 C 0.41094 0.55436 0.0153 0.0
C1330 C 0.42362 0.57412 0.03076 0.0
C1331 C 0.41997 0.57428 0.05847 0.0
C1332 C 0.40295 0.55365 0.07075 0.0
C1333 C 0.38973 0.53315 0.05532 0.0
C1334 C 0.39369 0.5337 0.02717 0.0
H1335 H 0.86588 0.4114 0.5665 0.0
H1336 H 0.84714 0.35676 0.50693 0.0
H1337 H 0.84099 0.38032 0.47312 0.0
H1338 H 0.82499 0.43073 0.54237 0.0
H1339 H 0.84561 0.46104 0.54856 0.0
H1340 H 0.84601 0.43885 0.56923 0.0
H1341 H 0.88959 0.45518 0.55752 0.0
H1342 H 0.8893 0.47732 0.53675 0.0
H1343 H 0.89834 0.45801 0.5226 0.0
H1344 H 0.84073 0.41087 0.44443 0.0
H1345 H 0.84558 0.4466 0.42286 0.0
H1346 H 0.86406 0.48177 0.50048 0.0
C1347 C 0.85995 0.40421 0.54653 0.0
C1348 C 0.85695 0.3822 0.53942 0.0
C1349 C 0.84962 0.37359 0.51288 0.0
C1350 C 0.84599 0.3868 0.49351 0.0
C1351 C 0.84965 0.40863 0.50089 0.0
C1352 C 0.85633 0.41729 0.52677 0.0
C1353 C 0.86059 0.44198 0.52873 0.0
C1354 C 0.84326 0.44321 0.54839 0.0
C1355 C 0.88596 0.45913 0.53688 0.0
C1356 C 0.85581 0.44594 0.49981 0.0
C1357 C 0.84937 0.4264 0.48418 0.0
C1358 C 0.84543 0.42621 0.45652 0.0
C1359 C 0.84831 0.44661 0.44442 0.0
C1360 C 0.85503 0.46694 0.45996 0.0
C1361 C 0.85853 0.46641 0.48811 0.0
H1362 H 0.41469 0.86924 0.95193 0.0
H1363 H 0.36105 0.8489 0.01327 0.0
H1364 H 0.3865 0.84487 0.04637 0.0
H1365 H 0.43697 0.83088 0.97511 0.0
H1366 H 0.46683 0.85232 0.96783 0.0
H1367 H 0.44358 0.8515 0.94808 0.0
H1368 H 0.45862 0.8949 0.95945 0.0
H1369 H 0.48181 0.89582 0.97932 0.0
H1370 H 0.46205 0.90392 0.99429 0.0
H1371 H 0.41872 0.84639 0.07399 0.0
H1372 H 0.45545 0.85221 0.09386 0.0
H1373 H 0.48824 0.87111 0.01486 0.0
C1374 C 0.40812 0.86347 0.97216 0.0
C1375 C 0.38582 0.85936 0.97993 0.0
C1376 C 0.37806 0.85221 1.00678 0.0
C1377 C 0.39237 0.8498 0.02577 0.0
C1378 C 0.41442 0.85451 0.01767 0.0
C1379 C 0.42226 0.86103 0.99149 0.0
C1380 C 0.44722 0.86628 0.98854 0.0
C1381 C 0.44873 0.84922 0.96871 0.0
C1382 C 0.46337 0.89174 0.97989 0.0
C1383 C 0.45225 0.8621 0.01723 0.0
C1384 C 0.43306 0.85523 0.03368 0.0
C1385 C 0.43381 0.85148 0.06126 0.0
C1386 C 0.45478 0.85491 0.07239 0.0
C1387 C 0.47472 0.86198 0.05594 0.0
C1388 C 0.47325 0.86541 0.02795 0.0
H1389 H 0.54697 0.41248 0.45251 0.0
H1390 H 0.5141 0.35704 0.51183 0.0
H1391 H 0.54366 0.38169 0.54541 0.0
H1392 H 0.60754 0.4342 0.47465 0.0
H1393 H 0.61581 0.4642 0.46865 0.0
H1394 H 0.59328 0.44143 0.44851 0.0
H1395 H 0.56487 0.45602 0.46172 0.0
H1396 H 0.58724 0.47873 0.48197 0.0
H1397 H 0.55953 0.45854 0.49692 0.0
H1398 H 0.57486 0.41334 0.57367 0.0
H1399 H 0.60596 0.4496 0.59419 0.0
H1400 H 0.61861 0.48432 0.51651 0.0
C1401 C 0.54623 0.40535 0.4724 0.0
C1402 C 0.52821 0.38277 0.47945 0.0
C1403 C 0.52771 0.37426 0.50587 0.0
C1404 C 0.54447 0.38811 0.52512 0.0
C1405 C 0.5617 0.41043 0.51767 0.0
C1406 C 0.5628 0.41897 0.49191 0.0
C1407 C 0.5824 0.44399 0.48954 0.0
C1408 C 0.60085 0.44607 0.46913 0.0
C1409 C 0.57293 0.46027 0.48211 0.0
C1410 C 0.59181 0.4483 0.51811 0.0
C1411 C 0.57973 0.42869 0.53398 0.0
C1412 C 0.58463 0.42875 0.56137 0.0
C1413 C 0.60229 0.44945 0.57287 0.0
C1414 C 0.61484 0.46982 0.557 0.0
C1415 C 0.60955 0.46904 0.5292 0.0
H1416 H 0.13795 0.52091 0.00988 0.0
H1417 H 0.15914 0.55495 0.93173 0.0
H1418 H 0.16499 0.5915 0.9521 0.0
H1419 H 0.10548 0.5472 0.02997 0.0
H1420 H 0.11374 0.55 0.06504 0.0
H1421 H 0.11311 0.52709 0.04489 0.0
H1422 H 0.15621 0.54142 0.05726 0.0
H1423 H 0.15698 0.56442 0.07747 0.0
H1424 H 0.17804 0.57132 0.05087 0.0
H1425 H 0.16596 0.62339 0.98002 0.0
H1426 H 0.16152 0.64848 0.01337 0.0
H1427 H 0.13984 0.59395 0.07371 0.0
C1428 C 0.14413 0.53611 0.99707 0.0
C1429 C 0.14816 0.53503 0.96916 0.0
C1430 C 0.15597 0.55531 0.95313 0.0
C1431 C 0.15941 0.57618 0.96454 0.0
C1432 C 0.15505 0.57654 0.99203 0.0
C1433 C 0.14761 0.55707 1.00811 0.0
C1434 C 0.14298 0.56177 0.03678 0.0
C1435 C 0.1173 0.54556 0.04462 0.0
C1436 C 0.15954 0.55961 0.05677 0.0
C1437 C 0.14855 0.58683 0.03418 0.0
C1438 C 0.15565 0.59503 1.00823 0.0
C1439 C 0.16065 0.61725 1.00047 0.0
C1440 C 0.15801 0.63135 0.01958 0.0
C1441 C 0.15041 0.62324 0.04622 0.0
C1442 C 0.146 0.60078 0.05366 0.0
H1443 H 0.52322 0.13537 0.51131 0.0
H1444 H 0.55714 0.15665 0.58946 0.0
H1445 H 0.59401 0.16338 0.56902 0.0
H1446 H 0.54989 0.10353 0.49167 0.0
H1447 H 0.55268 0.11152 0.45651 0.0
H1448 H 0.5297 0.11095 0.47649 0.0
H1449 H 0.5439 0.15392 0.46366 0.0
H1450 H 0.56696 0.15462 0.44357 0.0
H1451 H 0.57379 0.17585 0.46992 0.0
H1452 H 0.62621 0.16496 0.5411 0.0
H1453 H 0.65128 0.16012 0.50804 0.0
H1454 H 0.59636 0.13726 0.44798 0.0
C1455 C 0.5385 0.14188 0.52405 0.0
C1456 C 0.53731 0.14562 0.55199 0.0
C1457 C 0.55762 0.1537 0.56801 0.0
C1458 C 0.57868 0.15767 0.55657 0.0
C1459 C 0.57915 0.15348 0.52906 0.0
C1460 C 0.55962 0.14577 0.51299 0.0
C1461 C 0.56435 0.14095 0.48444 0.0
C1462 C 0.5482 0.11521 0.47685 0.0
C1463 C 0.56212 0.15732 0.4642 0.0
C1464 C 0.58945 0.14664 0.48714 0.0
C1465 C 0.59772 0.15412 0.51296 0.0
C1466 C 0.62001 0.15934 0.52074 0.0
C1467 C 0.63411 0.15649 0.50178 0.0
C1468 C 0.62585 0.14835 0.47534 0.0
C1469 C 0.60332 0.14376 0.4679 0.0
H1470 H 0.52629 0.38712 0.01312 0.0
H1471 H 0.56039 0.40195 0.09131 0.0
H1472 H 0.59683 0.43244 0.0705 0.0
H1473 H 0.57742 0.39827 0.97189 0.0
H1474 H 0.56993 0.41182 0.94518 0.0
H1475 H 0.54729 0.38933 0.96552 0.0
H1476 H 0.5318 0.41721 0.9776 0.0
H1477 H 0.55436 0.43976 0.95736 0.0
H1478 H 0.55134 0.4452 0.99238 0.0
H1479 H 0.62843 0.46314 0.04227 0.0
H1480 H 0.65286 0.49297 1.0089 0.0
H1481 H 0.59825 0.45893 0.94884 0.0
C1482 C 0.54156 0.39643 0.02577 0.0
C1483 C 0.54053 0.39201 0.05384 0.0
C1484 C 0.56076 0.40497 0.06977 0.0
C1485 C 0.58157 0.42227 0.05811 0.0
C1486 C 0.58188 0.42643 0.03049 0.0
C1487 C 0.56243 0.41391 0.0145 0.0
C1488 C 0.56689 0.42311 0.98578 0.0
C1489 C 0.56529 0.40452 0.96592 0.0
C1490 C 0.55011 0.43184 0.97783 0.0
C1491 C 0.59174 0.44308 0.98828 0.0
C1492 C 0.60011 0.44446 0.01418 0.0
C1493 C 0.62216 0.4621 0.02185 0.0
C1494 C 0.63589 0.47902 1.00272 0.0
C1495 C 0.62753 0.47831 0.97617 0.0
C1496 C 0.60528 0.45982 0.96882 0.0
H1497 H 0.13511 0.58877 0.45054 0.0
H1498 H 0.16133 0.64644 0.50722 0.0
H1499 H 0.16713 0.6227 0.54117 0.0
H1500 H 0.10293 0.54479 0.49761 0.0
H1501 H 0.10916 0.52351 0.48316 0.0
H1502 H 0.10932 0.54571 0.46209 0.0
H1503 H 0.15153 0.55871 0.44686 0.0
H1504 H 0.15146 0.53643 0.46782 0.0
H1505 H 0.17394 0.56642 0.47194 0.0
H1506 H 0.16679 0.59187 0.57046 0.0
H1507 H 0.16117 0.55606 0.59267 0.0
H1508 H 0.13554 0.51834 0.51719 0.0
C1509 C 0.14254 0.59656 0.46988 0.0
C1510 C 0.1478 0.61951 0.47614 0.0
C1511 C 0.15713 0.6289 0.50189 0.0
C1512 C 0.16056 0.61558 0.52135 0.0
C1513 C 0.15469 0.59287 0.51479 0.0
C1514 C 0.14603 0.58344 0.48964 0.0
C1515 C 0.13989 0.55813 0.4884 0.0
C1516 C 0.11377 0.5421 0.48247 0.0
C1517 C 0.15512 0.55473 0.46752 0.0
C1518 C 0.14595 0.55473 0.51693 0.0
C1519 C 0.15461 0.57503 0.53175 0.0
C1520 C 0.16031 0.57592 0.55898 0.0
C1521 C 0.15699 0.55547 0.57144 0.0
C1522 C 0.14804 0.5344 0.55669 0.0
C1523 C 0.14269 0.5342 0.52899 0.0
H1524 H 0.59371 0.13642 0.0712 0.0
H1525 H 0.64912 0.16302 0.01139 0.0
H1526 H 0.62348 0.16753 0.97897 0.0
H1527 H 0.54825 0.10265 0.02663 0.0
H1528 H 0.52702 0.10832 0.04236 0.0
H1529 H 0.55042 0.10956 0.0621 0.0
H1530 H 0.56284 0.15172 0.07685 0.0
H1531 H 0.53936 0.15056 0.05723 0.0
H1532 H 0.5689 0.17357 0.0515 0.0
H1533 H 0.59107 0.16578 0.95164 0.0
H1534 H 0.55405 0.15866 0.93145 0.0
H1535 H 0.51944 0.13339 1.00875 0.0
C1536 C 0.60062 0.14367 0.0515 0.0
C1537 C 0.62348 0.14943 0.04391 0.0
C1538 C 0.63169 0.15848 0.01772 0.0
C1539 C 0.61727 0.16117 0.99914 0.0
C1540 C 0.59469 0.15483 1.00702 0.0
C1541 C 0.58641 0.14641 0.03261 0.0
C1542 C 0.56095 0.13956 0.03531 0.0
C1543 C 0.54578 0.11348 0.04199 0.0
C1544 C 0.55784 0.15477 0.05648 0.0
C1545 C 0.55612 0.14492 1.00707 0.0
C1546 C 0.57589 0.15388 0.99116 0.0
C1547 C 0.57554 0.15906 0.96397 0.0
C1548 C 0.55438 0.15487 0.95266 0.0
C1549 C 0.53383 0.14556 0.9685 0.0
C1550 C 0.53488 0.14077 0.99616 0.0
H1551 H 0.45718 0.5905 0.57095 0.0
H1552 H 0.4941 0.64322 0.50961 0.0
H1553 H 0.46462 0.61876 0.47599 0.0
H1554 H 0.44255 0.54218 0.52923 0.0
H1555 H 0.41407 0.52382 0.54363 0.0
H1556 H 0.43677 0.54634 0.56376 0.0
H1557 H 0.41023 0.56387 0.57366 0.0
H1558 H 0.38739 0.54132 0.5536 0.0
H1559 H 0.39772 0.57153 0.54594 0.0
H1560 H 0.43326 0.58756 0.44802 0.0
H1561 H 0.4015 0.55162 0.42779 0.0
H1562 H 0.38447 0.51904 0.50695 0.0
C1563 C 0.45881 0.59707 0.55058 0.0
C1564 C 0.47797 0.61883 0.54299 0.0
C1565 C 0.47964 0.62662 0.51597 0.0
C1566 C 0.46293 0.61288 0.49668 0.0
C1567 C 0.44454 0.59137 0.50465 0.0
C1568 C 0.44226 0.58351 0.53095 0.0
C1569 C 0.42149 0.55912 0.53374 0.0
C1570 C 0.42919 0.54185 0.54313 0.0
C1571 C 0.40312 0.55896 0.55287 0.0
C1572 C 0.41281 0.5544 0.50482 0.0
C1573 C 0.42627 0.5733 0.48842 0.0
C1574 C 0.42239 0.57272 0.4607 0.0
C1575 C 0.40434 0.5522 0.44938 0.0
C1576 C 0.39038 0.53252 0.46575 0.0
C1577 C 0.39461 0.53384 0.4939 0.0
H1578 H 0.87039 0.38815 1.00189 0.0
H1579 H 0.85154 0.40298 0.9234 0.0
H1580 H 0.84621 0.43395 0.94387 0.0
H1581 H 0.83048 0.3997 0.04231 0.0
H1582 H 0.85123 0.41308 0.06933 0.0
H1583 H 0.85147 0.39057 0.04911 0.0
H1584 H 0.895 0.41829 0.03765 0.0
H1585 H 0.89491 0.44086 0.05779 0.0
H1586 H 0.90378 0.44637 0.02289 0.0
H1587 H 0.84588 0.46505 0.9717 0.0
H1588 H 0.85099 0.49482 1.00499 0.0
H1589 H 0.87001 0.46018 0.06591 0.0
C1590 C 0.86475 0.39763 0.98906 0.0
C1591 C 0.86127 0.39302 0.961 0.0
C1592 C 0.85427 0.40611 0.94491 0.0
C1593 C 0.85112 0.42371 0.95637 0.0
C1594 C 0.85499 0.42798 0.98398 0.0
C1595 C 0.86161 0.41532 1.00016 0.0
C1596 C 0.86604 0.42443 0.02893 0.0
C1597 C 0.84877 0.40583 0.04858 0.0
C1598 C 0.89144 0.433 0.03729 0.0
C1599 C 0.86135 0.44452 0.02626 0.0
C1600 C 0.85481 0.44607 1.00018 0.0
C1601 C 0.85074 0.46387 0.99225 0.0
C1602 C 0.85377 0.48075 0.01133 0.0
C1603 C 0.86083 0.47981 0.03811 0.0
C1604 C 0.86427 0.46118 0.04574 0.0
H1605 H 0.48866 0.86669 0.50639 0.0
H1606 H 0.45402 0.84589 0.4286 0.0
H1607 H 0.4175 0.83967 0.44964 0.0
H1608 H 0.43867 0.82671 0.5482 0.0
H1609 H 0.44584 0.84788 0.57469 0.0
H1610 H 0.46864 0.84858 0.55411 0.0
H1611 H 0.4828 0.89158 0.54153 0.0
H1612 H 0.4601 0.89103 0.56206 0.0
H1613 H 0.46249 0.8991 0.52695 0.0
H1614 H 0.38559 0.83793 0.47835 0.0
H1615 H 0.36081 0.8424 0.51208 0.0
H1616 H 0.41633 0.86515 0.57134 0.0
C1617 C 0.4733 0.86045 0.49383 0.0
C1618 C 0.47417 0.85661 0.46584 0.0
C1619 C 0.45378 0.84889 0.45007 0.0
C1620 C 0.43293 0.84522 0.46187 0.0
C1621 C 0.43276 0.8494 0.48944 0.0
C1622 C 0.45242 0.8569 0.50523 0.0
C1623 C 0.44803 0.86166 0.53397 0.0
C1624 C 0.45044 0.84522 0.55392 0.0
C1625 C 0.46432 0.88737 0.54156 0.0
C1626 C 0.42292 0.85606 0.53178 0.0
C1627 C 0.4144 0.84875 0.50598 0.0
C1628 C 0.39201 0.84347 0.49866 0.0
C1629 C 0.37807 0.84611 0.51802 0.0
C1630 C 0.38656 0.85412 0.54446 0.0
C1631 C 0.4092 0.85876 0.55146 0.0
loop_
_geom_bond_atom_site_label_1
_geom_bond_atom_site_label_2
_geom_bond_distance
_geom_bond_site_symmetry_2
_ccdc_geom_bond_type
O0 Cd1 2.223 . S
O0 C8 1.315 . S
Cd1 O0 2.223 . S
Cd1 O4 2.297 . S
Cd1 O5 2.439 . S
Cd1 O11 2.240 . S
Cd2 O3 2.240 . S
Cd2 O10 2.223 . S
Cd2 O12 2.297 . S
Cd2 O13 2.439 . S
O3 Cd2 2.240 . S
O3 C8 1.279 . S
O4 Cd1 2.297 . S
O4 C6 1.247 . S
O5 Cd1 2.439 . S
O5 C6 1.208 . S
C6 O4 1.247 . S
C6 O5 1.208 . S
C7 O12 1.247 . S
C7 O13 1.208 . S
C8 O0 1.315 . S
C8 O3 1.279 . S
C9 O10 1.315 . S
C9 O11 1.279 . S
O10 Cd2 2.223 . S
O10 C9 1.315 . S
O11 Cd1 2.240 . S
O11 C9 1.279 . S
O12 Cd2 2.297 . S
O12 C7 1.247 . S
O13 Cd2 2.439 . S
O13 C7 1.208 . S
O14 Cd15 2.223 . S
O14 C22 1.315 . S
Cd15 O14 2.223 . S
Cd15 O18 2.297 . S
Cd15 O19 2.439 . S
Cd15 O25 2.240 . S
Cd16 O17 2.240 . S
Cd16 O24 2.223 . S
Cd16 O26 2.297 . S
Cd16 O27 2.439 . S
O17 Cd16 2.240 . S
O17 C22 1.279 . S
O18 Cd15 2.297 . S
O18 C20 1.247 . S
O19 Cd15 2.439 . S
O19 C20 1.208 . S
C20 O18 1.247 . S
C20 O19 1.208 . S
C21 O26 1.247 . S
C21 O27 1.208 . S
C22 O14 1.315 . S
C22 O17 1.279 . S
C23 O24 1.315 . S
C23 O25 1.279 . S
O24 Cd16 2.223 . S
O24 C23 1.315 . S
O25 Cd15 2.240 . S
O25 C23 1.279 . S
O26 Cd16 2.297 . S
O26 C21 1.247 . S
O27 Cd16 2.439 . S
O27 C21 1.208 . S
O28 Cd29 2.223 . S
O28 C36 1.315 . S
Cd29 O28 2.223 . S
Cd29 O32 2.297 . S
Cd29 O33 2.439 . S
Cd29 O39 2.240 . S
Cd30 O31 2.240 . S
Cd30 O38 2.223 . S
Cd30 O40 2.297 . S
Cd30 O41 2.439 . S
O31 Cd30 2.240 . S
O31 C36 1.279 . S
O32 Cd29 2.297 . S
O32 C34 1.247 . S
O33 Cd29 2.439 . S
O33 C34 1.208 . S
C34 O32 1.247 . S
C34 O33 1.208 . S
C35 O40 1.247 . S
C35 O41 1.208 . S
C36 O28 1.315 . S
C36 O31 1.279 . S
C37 O38 1.315 . S
C37 O39 1.279 . S
O38 Cd30 2.223 . S
O38 C37 1.315 . S
O39 Cd29 2.240 . S
O39 C37 1.279 . S
O40 Cd30 2.297 . S
O40 C35 1.247 . S
O41 Cd30 2.439 . S
O41 C35 1.208 . S
O42 Cd43 2.223 . S
O42 C50 1.315 . S
Cd43 O42 2.223 . S
Cd43 O46 2.297 . S
Cd43 O47 2.439 . S
Cd43 O53 2.240 . S
Cd44 O45 2.240 . S
Cd44 O52 2.223 . S
Cd44 O54 2.297 . S
Cd44 O55 2.439 . S
O45 Cd44 2.240 . S
O45 C50 1.279 . S
O46 Cd43 2.297 . S
O46 C48 1.247 . S
O47 Cd43 2.439 . S
O47 C48 1.208 . S
C48 O46 1.247 . S
C48 O47 1.208 . S
C49 O54 1.247 . S
C49 O55 1.208 . S
C50 O42 1.315 . S
C50 O45 1.279 . S
C51 O52 1.315 . S
C51 O53 1.279 . S
O52 Cd44 2.223 . S
O52 C51 1.315 . S
O53 Cd43 2.240 . S
O53 C51 1.279 . S
O54 Cd44 2.297 . S
O54 C49 1.247 . S
O55 Cd44 2.439 . S
O55 C49 1.208 . S
O56 Cd57 2.223 . S
O56 C64 1.315 . S
Cd57 O56 2.223 . S
Cd57 O60 2.297 . S
Cd57 O61 2.439 . S
Cd57 O67 2.240 . S
Cd58 O59 2.240 . S
Cd58 O66 2.223 . S
Cd58 O68 2.297 . S
Cd58 O69 2.439 . S
O59 Cd58 2.240 . S
O59 C64 1.279 . S
O60 Cd57 2.297 . S
O60 C62 1.247 . S
O61 Cd57 2.439 . S
O61 C62 1.208 . S
C62 O60 1.247 . S
C62 O61 1.208 . S
C63 O68 1.247 . S
C63 O69 1.208 . S
C64 O56 1.315 . S
C64 O59 1.279 . S
C65 O66 1.315 . S
C65 O67 1.279 . S
O66 Cd58 2.223 . S
O66 C65 1.315 . S
O67 Cd57 2.240 . S
O67 C65 1.279 . S
O68 Cd58 2.297 . S
O68 C63 1.247 . S
O69 Cd58 2.439 . S
O69 C63 1.208 . S
O70 Cd71 2.223 . S
O70 C78 1.315 . S
Cd71 O70 2.223 . S
Cd71 O74 2.297 . S
Cd71 O75 2.439 . S
Cd71 O81 2.240 . S
Cd72 O73 2.240 . S
Cd72 O80 2.223 . S
Cd72 O82 2.297 . S
Cd72 O83 2.439 . S
O73 Cd72 2.240 . S
O73 C78 1.279 . S
O74 Cd71 2.297 . S
O74 C76 1.247 . S
O75 Cd71 2.439 . S
O75 C76 1.208 . S
C76 O74 1.247 . S
C76 O75 1.208 . S
C77 O82 1.247 . S
C77 O83 1.208 . S
C78 O70 1.315 . S
C78 O73 1.279 . S
C79 O80 1.315 . S
C79 O81 1.279 . S
O80 Cd72 2.223 . S
O80 C79 1.315 . S
O81 Cd71 2.240 . S
O81 C79 1.279 . S
O82 Cd72 2.297 . S
O82 C77 1.247 . S
O83 Cd72 2.439 . S
O83 C77 1.208 . S
O84 Cd85 2.223 . S
O84 C92 1.315 . S
Cd85 O84 2.223 . S
Cd85 O88 2.297 . S
Cd85 O89 2.439 . S
Cd85 O95 2.240 . S
Cd86 O87 2.240 . S
Cd86 O94 2.223 . S
Cd86 O96 2.297 . S
Cd86 O97 2.439 . S
O87 Cd86 2.240 . S
O87 C92 1.279 . S
O88 Cd85 2.297 . S
O88 C90 1.247 . S
O89 Cd85 2.439 . S
O89 C90 1.208 . S
C90 O88 1.247 . S
C90 O89 1.208 . S
C91 O96 1.247 . S
C91 O97 1.208 . S
C92 O84 1.315 . S
C92 O87 1.279 . S
C93 O94 1.315 . S
C93 O95 1.279 . S
O94 Cd86 2.223 . S
O94 C93 1.315 . S
O95 Cd85 2.240 . S
O95 C93 1.279 . S
O96 Cd86 2.297 . S
O96 C91 1.247 . S
O97 Cd86 2.439 . S
O97 C91 1.208 . S
O98 Cd99 2.223 . S
O98 C106 1.315 . S
Cd99 O98 2.223 . S
Cd99 O102 2.297 . S
Cd99 O103 2.439 . S
Cd99 O109 2.240 . S
Cd100 O101 2.240 . S
Cd100 O108 2.223 . S
Cd100 O110 2.297 . S
Cd100 O111 2.439 . S
O101 Cd100 2.240 . S
O101 C106 1.279 . S
O102 Cd99 2.297 . S
O102 C104 1.247 . S
O103 Cd99 2.439 . S
O103 C104 1.208 . S
C104 O102 1.247 . S
C104 O103 1.208 . S
C105 O110 1.247 . S
C105 O111 1.208 . S
C106 O98 1.315 . S
C106 O101 1.279 . S
C107 O108 1.315 . S
C107 O109 1.279 . S
O108 Cd100 2.223 . S
O108 C107 1.315 . S
O109 Cd99 2.240 . S
O109 C107 1.279 . S
O110 Cd100 2.297 . S
O110 C105 1.247 . S
O111 Cd100 2.439 . S
O111 C105 1.208 . S
O112 Cd113 2.223 . S
O112 C120 1.315 . S
Cd113 O112 2.223 . S
Cd113 O116 2.297 . S
Cd113 O117 2.439 . S
Cd113 O123 2.240 . S
Cd114 O115 2.240 . S
Cd114 O122 2.223 . S
Cd114 O124 2.297 . S
Cd114 O125 2.439 . S
O115 Cd114 2.240 . S
O115 C120 1.279 . S
O116 Cd113 2.297 . S
O116 C118 1.247 . S
O117 Cd113 2.439 . S
O117 C118 1.208 . S
C118 O116 1.247 . S
C118 O117 1.208 . S
C119 O124 1.247 . S
C119 O125 1.208 . S
C120 O112 1.315 . S
C120 O115 1.279 . S
C121 O122 1.315 . S
C121 O123 1.279 . S
O122 Cd114 2.223 . S
O122 C121 1.315 . S
O123 Cd113 2.240 . S
O123 C121 1.279 . S
O124 Cd114 2.297 . S
O124 C119 1.247 . S
O125 Cd114 2.439 . S
O125 C119 1.208 . S
O126 Cd127 2.223 . S
O126 C134 1.315 . S
Cd127 O126 2.223 . S
Cd127 O130 2.297 . S
Cd127 O131 2.439 . S
Cd127 O137 2.240 . S
Cd128 O129 2.240 . S
Cd128 O136 2.223 . S
Cd128 O138 2.297 . S
Cd128 O139 2.439 . S
O129 Cd128 2.240 . S
O129 C134 1.279 . S
O130 Cd127 2.297 . S
O130 C132 1.247 . S
O131 Cd127 2.439 . S
O131 C132 1.208 . S
C132 O130 1.247 . S
C132 O131 1.208 . S
C133 O138 1.247 . S
C133 O139 1.208 . S
C134 O126 1.315 . S
C134 O129 1.279 . S
C135 O136 1.315 . S
C135 O137 1.279 . S
O136 Cd128 2.223 . S
O136 C135 1.315 . S
O137 Cd127 2.240 . S
O137 C135 1.279 . S
O138 Cd128 2.297 . S
O138 C133 1.247 . S
O139 Cd128 2.439 . S
O139 C133 1.208 . S
O140 Cd141 2.223 . S
O140 C148 1.315 . S
Cd141 O140 2.223 . S
Cd141 O144 2.297 . S
Cd141 O145 2.439 . S
Cd141 O151 2.240 . S
Cd142 O143 2.240 . S
Cd142 O150 2.223 . S
Cd142 O152 2.297 . S
Cd142 O153 2.439 . S
O143 Cd142 2.240 . S
O143 C148 1.279 . S
O144 Cd141 2.297 . S
O144 C146 1.247 . S
O145 Cd141 2.439 . S
O145 C146 1.208 . S
C146 O144 1.247 . S
C146 O145 1.208 . S
C147 O152 1.247 . S
C147 O153 1.208 . S
C148 O140 1.315 . S
C148 O143 1.279 . S
C149 O150 1.315 . S
C149 O151 1.279 . S
O150 Cd142 2.223 . S
O150 C149 1.315 . S
O151 Cd141 2.240 . S
O151 C149 1.279 . S
O152 Cd142 2.297 . S
O152 C147 1.247 . S
O153 Cd142 2.439 . S
O153 C147 1.208 . S
O154 Cd155 2.223 . S
O154 C162 1.315 . S
Cd155 O154 2.223 . S
Cd155 O158 2.297 . S
Cd155 O159 2.439 . S
Cd155 O165 2.240 . S
Cd156 O157 2.240 . S
Cd156 O164 2.223 . S
Cd156 O166 2.297 . S
Cd156 O167 2.439 . S
O157 Cd156 2.240 . S
O157 C162 1.279 . S
O158 Cd155 2.297 . S
O158 C160 1.247 . S
O159 Cd155 2.439 . S
O159 C160 1.208 . S
C160 O158 1.247 . S
C160 O159 1.208 . S
C161 O166 1.247 . S
C161 O167 1.208 . S
C162 O154 1.315 . S
C162 O157 1.279 . S
C163 O164 1.315 . S
C163 O165 1.279 . S
O164 Cd156 2.223 . S
O164 C163 1.315 . S
O165 Cd155 2.240 . S
O165 C163 1.279 . S
O166 Cd156 2.297 . S
O166 C161 1.247 . S
O167 Cd156 2.439 . S
O167 C161 1.208 . S
O168 Cd169 2.223 . S
O168 C176 1.315 . S
Cd169 O168 2.223 . S
Cd169 O172 2.297 . S
Cd169 O173 2.439 . S
Cd169 O179 2.240 . S
Cd170 O171 2.240 . S
Cd170 O178 2.223 . S
Cd170 O180 2.297 . S
Cd170 O181 2.439 . S
O171 Cd170 2.240 . S
O171 C176 1.279 . S
O172 Cd169 2.297 . S
O172 C174 1.247 . S
O173 Cd169 2.439 . S
O173 C174 1.208 . S
C174 O172 1.247 . S
C174 O173 1.208 . S
C175 O180 1.247 . S
C175 O181 1.208 . S
C176 O168 1.315 . S
C176 O171 1.279 . S
C177 O178 1.315 . S
C177 O179 1.279 . S
O178 Cd170 2.223 . S
O178 C177 1.315 . S
O179 Cd169 2.240 . S
O179 C177 1.279 . S
O180 Cd170 2.297 . S
O180 C175 1.247 . S
O181 Cd170 2.439 . S
O181 C175 1.208 . S
O182 Cd183 2.223 . S
O182 C190 1.315 . S
Cd183 O182 2.223 . S
Cd183 O186 2.297 . S
Cd183 O187 2.439 . S
Cd183 O193 2.240 . S
Cd184 O185 2.240 . S
Cd184 O192 2.223 . S
Cd184 O194 2.297 . S
Cd184 O195 2.439 . S
O185 Cd184 2.240 . S
O185 C190 1.279 . S
O186 Cd183 2.297 . S
O186 C188 1.247 . S
O187 Cd183 2.439 . S
O187 C188 1.208 . S
C188 O186 1.247 . S
C188 O187 1.208 . S
C189 O194 1.247 . S
C189 O195 1.208 . S
C190 O182 1.315 . S
C190 O185 1.279 . S
C191 O192 1.315 . S
C191 O193 1.279 . S
O192 Cd184 2.223 . S
O192 C191 1.315 . S
O193 Cd183 2.240 . S
O193 C191 1.279 . S
O194 Cd184 2.297 . S
O194 C189 1.247 . S
O195 Cd184 2.439 . S
O195 C189 1.208 . S
O196 Cd197 2.223 . S
O196 C204 1.315 . S
Cd197 O196 2.223 . S
Cd197 O200 2.297 . S
Cd197 O201 2.439 . S
Cd197 O207 2.240 . S
Cd198 O199 2.240 . S
Cd198 O206 2.223 . S
Cd198 O208 2.297 . S
Cd198 O209 2.439 . S
O199 Cd198 2.240 . S
O199 C204 1.279 . S
O200 Cd197 2.297 . S
O200 C202 1.247 . S
O201 Cd197 2.439 . S
O201 C202 1.208 . S
C202 O200 1.247 . S
C202 O201 1.208 . S
C203 O208 1.247 . S
C203 O209 1.208 . S
C204 O196 1.315 . S
C204 O199 1.279 . S
C205 O206 1.315 . S
C205 O207 1.279 . S
O206 Cd198 2.223 . S
O206 C205 1.315 . S
O207 Cd197 2.240 . S
O207 C205 1.279 . S
O208 Cd198 2.297 . S
O208 C203 1.247 . S
O209 Cd198 2.439 . S
O209 C203 1.208 . S
O210 Cd211 2.223 . S
O210 C218 1.315 . S
Cd211 O210 2.223 . S
Cd211 O214 2.297 . S
Cd211 O215 2.439 . S
Cd211 O221 2.240 . S
Cd212 O213 2.240 . S
Cd212 O220 2.223 . S
Cd212 O222 2.297 . S
Cd212 O223 2.439 . S
O213 Cd212 2.240 . S
O213 C218 1.279 . S
O214 Cd211 2.297 . S
O214 C216 1.247 . S
O215 Cd211 2.439 . S
O215 C216 1.208 . S
C216 O214 1.247 . S
C216 O215 1.208 . S
C217 O222 1.247 . S
C217 O223 1.208 . S
C218 O210 1.315 . S
C218 O213 1.279 . S
C219 O220 1.315 . S
C219 O221 1.279 . S
O220 Cd212 2.223 . S
O220 C219 1.315 . S
O221 Cd211 2.240 . S
O221 C219 1.279 . S
O222 Cd212 2.297 . S
O222 C217 1.247 . S
O223 Cd212 2.439 . S
O223 C217 1.208 . S
O224 Cd225 2.223 . S
O224 C232 1.315 . S
Cd225 O224 2.223 . S
Cd225 O228 2.297 . S
Cd225 O229 2.439 . S
Cd225 O235 2.240 . S
Cd226 O227 2.240 . S
Cd226 O234 2.223 . S
Cd226 O236 2.297 . S
Cd226 O237 2.439 . S
O227 Cd226 2.240 . S
O227 C232 1.279 . S
O228 Cd225 2.297 . S
O228 C230 1.247 . S
O229 Cd225 2.439 . S
O229 C230 1.208 . S
C230 O228 1.247 . S
C230 O229 1.208 . S
C231 O236 1.247 . S
C231 O237 1.208 . S
C232 O224 1.315 . S
C232 O227 1.279 . S
C233 O234 1.315 . S
C233 O235 1.279 . S
O234 Cd226 2.223 . S
O234 C233 1.315 . S
O235 Cd225 2.240 . S
O235 C233 1.279 . S
O236 Cd226 2.297 . S
O236 C231 1.247 . S
O237 Cd226 2.439 . S
O237 C231 1.208 . S
O238 Cd239 2.223 . S
O238 C246 1.315 . S
Cd239 O238 2.223 . S
Cd239 O242 2.297 . S
Cd239 O243 2.439 . S
Cd239 O249 2.240 . S
Cd240 O241 2.240 . S
Cd240 O248 2.223 . S
Cd240 O250 2.297 . S
Cd240 O251 2.439 . S
O241 Cd240 2.240 . S
O241 C246 1.279 . S
O242 Cd239 2.297 . S
O242 C244 1.247 . S
O243 Cd239 2.439 . S
O243 C244 1.208 . S
C244 O242 1.247 . S
C244 O243 1.208 . S
C245 O250 1.247 . S
C245 O251 1.208 . S
C246 O238 1.315 . S
C246 O241 1.279 . S
C247 O248 1.315 . S
C247 O249 1.279 . S
O248 Cd240 2.223 . S
O248 C247 1.315 . S
O249 Cd239 2.240 . S
O249 C247 1.279 . S
O250 Cd240 2.297 . S
O250 C245 1.247 . S
O251 Cd240 2.439 . S
O251 C245 1.208 . S
O252 Cd253 2.223 . S
O252 C260 1.315 . S
Cd253 O252 2.223 . S
Cd253 O256 2.297 . S
Cd253 O257 2.439 . S
Cd253 O263 2.240 . S
Cd254 O255 2.240 . S
Cd254 O262 2.223 . S
Cd254 O264 2.297 . S
Cd254 O265 2.439 . S
O255 Cd254 2.240 . S
O255 C260 1.279 . S
O256 Cd253 2.297 . S
O256 C258 1.247 . S
O257 Cd253 2.439 . S
O257 C258 1.208 . S
C258 O256 1.247 . S
C258 O257 1.208 . S
C259 O264 1.247 . S
C259 O265 1.208 . S
C260 O252 1.315 . S
C260 O255 1.279 . S
C261 O262 1.315 . S
C261 O263 1.279 . S
O262 Cd254 2.223 . S
O262 C261 1.315 . S
O263 Cd253 2.240 . S
O263 C261 1.279 . S
O264 Cd254 2.297 . S
O264 C259 1.247 . S
O265 Cd254 2.439 . S
O265 C259 1.208 . S
O266 Cd267 2.223 . S
O266 C274 1.315 . S
Cd267 O266 2.223 . S
Cd267 O270 2.297 . S
Cd267 O271 2.439 . S
Cd267 O277 2.240 . S
Cd268 O269 2.240 . S
Cd268 O276 2.223 . S
Cd268 O278 2.297 . S
Cd268 O279 2.439 . S
O269 Cd268 2.240 . S
O269 C274 1.279 . S
O270 Cd267 2.297 . S
O270 C272 1.247 . S
O271 Cd267 2.439 . S
O271 C272 1.208 . S
C272 O270 1.247 . S
C272 O271 1.208 . S
C273 O278 1.247 . S
C273 O279 1.208 . S
C274 O266 1.315 . S
C274 O269 1.279 . S
C275 O276 1.315 . S
C275 O277 1.279 . S
O276 Cd268 2.223 . S
O276 C275 1.315 . S
O277 Cd267 2.240 . S
O277 C275 1.279 . S
O278 Cd268 2.297 . S
O278 C273 1.247 . S
O279 Cd268 2.439 . S
O279 C273 1.208 . S
O280 Cd281 2.223 . S
O280 C288 1.315 . S
Cd281 O280 2.223 . S
Cd281 O284 2.297 . S
Cd281 O285 2.439 . S
Cd281 O291 2.240 . S
Cd282 O283 2.240 . S
Cd282 O290 2.223 . S
Cd282 O292 2.297 . S
Cd282 O293 2.439 . S
O283 Cd282 2.240 . S
O283 C288 1.279 . S
O284 Cd281 2.297 . S
O284 C286 1.247 . S
O285 Cd281 2.439 . S
O285 C286 1.208 . S
C286 O284 1.247 . S
C286 O285 1.208 . S
C287 O292 1.247 . S
C287 O293 1.208 . S
C288 O280 1.315 . S
C288 O283 1.279 . S
C289 O290 1.315 . S
C289 O291 1.279 . S
O290 Cd282 2.223 . S
O290 C289 1.315 . S
O291 Cd281 2.240 . S
O291 C289 1.279 . S
O292 Cd282 2.297 . S
O292 C287 1.247 . S
O293 Cd282 2.439 . S
O293 C287 1.208 . S
O294 Cd295 2.223 . S
O294 C302 1.315 . S
Cd295 O294 2.223 . S
Cd295 O298 2.297 . S
Cd295 O299 2.439 . S
Cd295 O305 2.240 . S
Cd296 O297 2.240 . S
Cd296 O304 2.223 . S
Cd296 O306 2.297 . S
Cd296 O307 2.439 . S
O297 Cd296 2.240 . S
O297 C302 1.279 . S
O298 Cd295 2.297 . S
O298 C300 1.247 . S
O299 Cd295 2.439 . S
O299 C300 1.208 . S
C300 O298 1.247 . S
C300 O299 1.208 . S
C301 O306 1.247 . S
C301 O307 1.208 . S
C302 O294 1.315 . S
C302 O297 1.279 . S
C303 O304 1.315 . S
C303 O305 1.279 . S
O304 Cd296 2.223 . S
O304 C303 1.315 . S
O305 Cd295 2.240 . S
O305 C303 1.279 . S
O306 Cd296 2.297 . S
O306 C301 1.247 . S
O307 Cd296 2.439 . S
O307 C301 1.208 . S
O308 Cd309 2.223 . S
O308 C316 1.315 . S
Cd309 O308 2.223 . S
Cd309 O312 2.297 . S
Cd309 O313 2.439 . S
Cd309 O319 2.240 . S
Cd310 O311 2.240 . S
Cd310 O318 2.223 . S
Cd310 O320 2.297 . S
Cd310 O321 2.439 . S
O311 Cd310 2.240 . S
O311 C316 1.279 . S
O312 Cd309 2.297 . S
O312 C314 1.247 . S
O313 Cd309 2.439 . S
O313 C314 1.208 . S
C314 O312 1.247 . S
C314 O313 1.208 . S
C315 O320 1.247 . S
C315 O321 1.208 . S
C316 O308 1.315 . S
C316 O311 1.279 . S
C317 O318 1.315 . S
C317 O319 1.279 . S
O318 Cd310 2.223 . S
O318 C317 1.315 . S
O319 Cd309 2.240 . S
O319 C317 1.279 . S
O320 Cd310 2.297 . S
O320 C315 1.247 . S
O321 Cd310 2.439 . S
O321 C315 1.208 . S
O322 Cd323 2.223 . S
O322 C330 1.315 . S
Cd323 O322 2.223 . S
Cd323 O326 2.297 . S
Cd323 O327 2.439 . S
Cd323 O333 2.240 . S
Cd324 O325 2.240 . S
Cd324 O332 2.223 . S
Cd324 O334 2.297 . S
Cd324 O335 2.439 . S
O325 Cd324 2.240 . S
O325 C330 1.279 . S
O326 Cd323 2.297 . S
O326 C328 1.247 . S
O327 Cd323 2.439 . S
O327 C328 1.208 . S
C328 O326 1.247 . S
C328 O327 1.208 . S
C329 O334 1.247 . S
C329 O335 1.208 . S
C330 O322 1.315 . S
C330 O325 1.279 . S
C331 O332 1.315 . S
C331 O333 1.279 . S
O332 Cd324 2.223 . S
O332 C331 1.315 . S
O333 Cd323 2.240 . S
O333 C331 1.279 . S
O334 Cd324 2.297 . S
O334 C329 1.247 . S
O335 Cd324 2.439 . S
O335 C329 1.208 . S
H336 C348 0.930 . S
H337 C350 0.930 . S
H338 C351 0.930 . S
H339 C355 0.959 . S
H340 C355 0.959 . S
H341 C355 0.961 . S
H342 C356 0.960 . S
H343 C356 0.961 . S
H344 C356 0.959 . S
H345 C359 0.929 . S
H346 C360 0.931 . S
H347 C362 0.930 . S
C348 H336 0.930 . S
C348 C349 1.399 . S
C348 C353 1.399 . S
C349 C348 1.399 . S
C349 C350 1.376 . S
C350 H337 0.930 . S
C350 C349 1.376 . S
C350 C351 1.388 . S
C351 H338 0.930 . S
C351 C350 1.388 . S
C351 C352 1.390 . S
C352 C351 1.390 . S
C352 C353 1.394 . S
C352 C358 1.465 . S
C353 C348 1.399 . S
C353 C352 1.394 . S
C353 C354 1.516 . S
C354 C353 1.516 . S
C354 C355 1.502 . S
C354 C356 1.561 . S
C354 C357 1.526 . S
C355 H339 0.959 . S
C355 H340 0.959 . S
C355 H341 0.961 . S
C355 C354 1.502 . S
C356 H342 0.960 . S
C356 H343 0.961 . S
C356 H344 0.959 . S
C356 C354 1.561 . S
C357 C354 1.526 . S
C357 C358 1.396 . S
C357 C362 1.390 . S
C358 C352 1.465 . S
C358 C357 1.396 . S
C358 C359 1.399 . S
C359 H345 0.929 . S
C359 C358 1.399 . S
C359 C360 1.385 . S
C360 H346 0.931 . S
C360 C359 1.385 . S
C360 C361 1.389 . S
C361 C360 1.389 . S
C361 C362 1.387 . S
C362 H347 0.930 . S
C362 C357 1.390 . S
C362 C361 1.387 . S
H363 C375 0.930 . S
H364 C377 0.930 . S
H365 C378 0.930 . S
H366 C382 0.959 . S
H367 C382 0.959 . S
H368 C382 0.961 . S
H369 C383 0.960 . S
H370 C383 0.961 . S
H371 C383 0.959 . S
H372 C386 0.929 . S
H373 C387 0.931 . S
H374 C389 0.930 . S
C375 H363 0.930 . S
C375 C376 1.399 . S
C375 C380 1.399 . S
C376 C375 1.399 . S
C376 C377 1.376 . S
C377 H364 0.930 . S
C377 C376 1.376 . S
C377 C378 1.388 . S
C378 H365 0.930 . S
C378 C377 1.388 . S
C378 C379 1.390 . S
C379 C378 1.390 . S
C379 C380 1.394 . S
C379 C385 1.465 . S
C380 C375 1.399 . S
C380 C379 1.394 . S
C380 C381 1.516 . S
C381 C380 1.516 . S
C381 C382 1.502 . S
C381 C383 1.561 . S
C381 C384 1.526 . S
C382 H366 0.959 . S
C382 H367 0.959 . S
C382 H368 0.961 . S
C382 C381 1.502 . S
C383 H369 0.960 . S
C383 H370 0.961 . S
C383 H371 0.959 . S
C383 C381 1.561 . S
C384 C381 1.526 . S
C384 C385 1.396 . S
C384 C389 1.390 . S
C385 C379 1.465 . S
C385 C384 1.396 . S
C385 C386 1.399 . S
C386 H372 0.929 . S
C386 C385 1.399 . S
C386 C387 1.385 . S
C387 H373 0.931 . S
C387 C386 1.385 . S
C387 C388 1.389 . S
C388 C387 1.389 . S
C388 C389 1.387 . S
C389 H374 0.930 . S
C389 C384 1.390 . S
C389 C388 1.387 . S
H390 C402 0.930 . S
H391 C404 0.930 . S
H392 C405 0.930 . S
H393 C409 0.959 . S
H394 C409 0.959 . S
H395 C409 0.961 . S
H396 C410 0.960 . S
H397 C410 0.961 . S
H398 C410 0.959 . S
H399 C413 0.929 . S
H400 C414 0.931 . S
H401 C416 0.930 . S
C402 H390 0.930 . S
C402 C403 1.399 . S
C402 C407 1.399 . S
C403 C402 1.399 . S
C403 C404 1.376 . S
C404 H391 0.930 . S
C404 C403 1.376 . S
C404 C405 1.388 . S
C405 H392 0.930 . S
C405 C404 1.388 . S
C405 C406 1.390 . S
C406 C405 1.390 . S
C406 C407 1.394 . S
C406 C412 1.465 . S
C407 C402 1.399 . S
C407 C406 1.394 . S
C407 C408 1.516 . S
C408 C407 1.516 . S
C408 C409 1.502 . S
C408 C410 1.561 . S
C408 C411 1.526 . S
C409 H393 0.959 . S
C409 H394 0.959 . S
C409 H395 0.961 . S
C409 C408 1.502 . S
C410 H396 0.960 . S
C410 H397 0.961 . S
C410 H398 0.959 . S
C410 C408 1.561 . S
C411 C408 1.526 . S
C411 C412 1.396 . S
C411 C416 1.390 . S
C412 C406 1.465 . S
C412 C411 1.396 . S
C412 C413 1.399 . S
C413 H399 0.929 . S
C413 C412 1.399 . S
C413 C414 1.385 . S
C414 H400 0.931 . S
C414 C413 1.385 . S
C414 C415 1.389 . S
C415 C414 1.389 . S
C415 C416 1.387 . S
C416 H401 0.930 . S
C416 C411 1.390 . S
C416 C415 1.387 . S
H417 C429 0.930 . S
H418 C431 0.930 . S
H419 C432 0.930 . S
H420 C436 0.959 . S
H421 C436 0.959 . S
H422 C436 0.961 . S
H423 C437 0.960 . S
H424 C437 0.961 . S
H425 C437 0.959 . S
H426 C440 0.929 . S
H427 C441 0.931 . S
H428 C443 0.930 . S
C429 H417 0.930 . S
C429 C430 1.399 . S
C429 C434 1.399 . S
C430 C429 1.399 . S
C430 C431 1.376 . S
C431 H418 0.930 . S
C431 C430 1.376 . S
C431 C432 1.388 . S
C432 H419 0.930 . S
C432 C431 1.388 . S
C432 C433 1.390 . S
C433 C432 1.390 . S
C433 C434 1.394 . S
C433 C439 1.465 . S
C434 C429 1.399 . S
C434 C433 1.394 . S
C434 C435 1.516 . S
C435 C434 1.516 . S
C435 C436 1.502 . S
C435 C437 1.561 . S
C435 C438 1.526 . S
C436 H420 0.959 . S
C436 H421 0.959 . S
C436 H422 0.961 . S
C436 C435 1.502 . S
C437 H423 0.960 . S
C437 H424 0.961 . S
C437 H425 0.959 . S
C437 C435 1.561 . S
C438 C435 1.526 . S
C438 C439 1.396 . S
C438 C443 1.390 . S
C439 C433 1.465 . S
C439 C438 1.396 . S
C439 C440 1.399 . S
C440 H426 0.929 . S
C440 C439 1.399 . S
C440 C441 1.385 . S
C441 H427 0.931 . S
C441 C440 1.385 . S
C441 C442 1.389 . S
C442 C441 1.389 . S
C442 C443 1.387 . S
C443 H428 0.930 . S
C443 C438 1.390 . S
C443 C442 1.387 . S
H444 C456 0.930 . S
H445 C458 0.930 . S
H446 C459 0.930 . S
H447 C463 0.959 . S
H448 C463 0.959 . S
H449 C463 0.961 . S
H450 C464 0.960 . S
H451 C464 0.961 . S
H452 C464 0.959 . S
H453 C467 0.929 . S
H454 C468 0.931 . S
H455 C470 0.930 . S
C456 H444 0.930 . S
C456 C457 1.399 . S
C456 C461 1.399 . S
C457 C456 1.399 . S
C457 C458 1.376 . S
C458 H445 0.930 . S
C458 C457 1.376 . S
C458 C459 1.388 . S
C459 H446 0.930 . S
C459 C458 1.388 . S
C459 C460 1.390 . S
C460 C459 1.390 . S
C460 C461 1.394 . S
C460 C466 1.465 . S
C461 C456 1.399 . S
C461 C460 1.394 . S
C461 C462 1.516 . S
C462 C461 1.516 . S
C462 C463 1.502 . S
C462 C464 1.561 . S
C462 C465 1.526 . S
C463 H447 0.959 . S
C463 H448 0.959 . S
C463 H449 0.961 . S
C463 C462 1.502 . S
C464 H450 0.960 . S
C464 H451 0.961 . S
C464 H452 0.959 . S
C464 C462 1.561 . S
C465 C462 1.526 . S
C465 C466 1.396 . S
C465 C470 1.390 . S
C466 C460 1.465 . S
C466 C465 1.396 . S
C466 C467 1.399 . S
C467 H453 0.929 . S
C467 C466 1.399 . S
C467 C468 1.385 . S
C468 H454 0.931 . S
C468 C467 1.385 . S
C468 C469 1.389 . S
C469 C468 1.389 . S
C469 C470 1.387 . S
C470 H455 0.930 . S
C470 C465 1.390 . S
C470 C469 1.387 . S
H471 C483 0.930 . S
H472 C485 0.930 . S
H473 C486 0.930 . S
H474 C490 0.959 . S
H475 C490 0.959 . S
H476 C490 0.961 . S
H477 C491 0.960 . S
H478 C491 0.961 . S
H479 C491 0.959 . S
H480 C494 0.929 . S
H481 C495 0.931 . S
H482 C497 0.930 . S
C483 H471 0.930 . S
C483 C484 1.399 . S
C483 C488 1.399 . S
C484 C483 1.399 . S
C484 C485 1.376 . S
C485 H472 0.930 . S
C485 C484 1.376 . S
C485 C486 1.388 . S
C486 H473 0.930 . S
C486 C485 1.388 . S
C486 C487 1.390 . S
C487 C486 1.390 . S
C487 C488 1.394 . S
C487 C493 1.465 . S
C488 C483 1.399 . S
C488 C487 1.394 . S
C488 C489 1.516 . S
C489 C488 1.516 . S
C489 C490 1.502 . S
C489 C491 1.561 . S
C489 C492 1.526 . S
C490 H474 0.959 . S
C490 H475 0.959 . S
C490 H476 0.961 . S
C490 C489 1.502 . S
C491 H477 0.960 . S
C491 H478 0.961 . S
C491 H479 0.959 . S
C491 C489 1.561 . S
C492 C489 1.526 . S
C492 C493 1.396 . S
C492 C497 1.390 . S
C493 C487 1.465 . S
C493 C492 1.396 . S
C493 C494 1.399 . S
C494 H480 0.929 . S
C494 C493 1.399 . S
C494 C495 1.385 . S
C495 H481 0.931 . S
C495 C494 1.385 . S
C495 C496 1.389 . S
C496 C495 1.389 . S
C496 C497 1.387 . S
C497 H482 0.930 . S
C497 C492 1.390 . S
C497 C496 1.387 . S
H498 C510 0.930 . S
H499 C512 0.930 . S
H500 C513 0.930 . S
H501 C517 0.959 . S
H502 C517 0.959 . S
H503 C517 0.961 . S
H504 C518 0.960 . S
H505 C518 0.961 . S
H506 C518 0.959 . S
H507 C521 0.929 . S
H508 C522 0.931 . S
H509 C524 0.930 . S
C510 H498 0.930 . S
C510 C511 1.399 . S
C510 C515 1.399 . S
C511 C510 1.399 . S
C511 C512 1.376 . S
C512 H499 0.930 . S
C512 C511 1.376 . S
C512 C513 1.388 . S
C513 H500 0.930 . S
C513 C512 1.388 . S
C513 C514 1.390 . S
C514 C513 1.390 . S
C514 C515 1.394 . S
C514 C520 1.465 . S
C515 C510 1.399 . S
C515 C514 1.394 . S
C515 C516 1.516 . S
C516 C515 1.516 . S
C516 C517 1.502 . S
C516 C518 1.561 . S
C516 C519 1.526 . S
C517 H501 0.959 . S
C517 H502 0.959 . S
C517 H503 0.961 . S
C517 C516 1.502 . S
C518 H504 0.960 . S
C518 H505 0.961 . S
C518 H506 0.959 . S
C518 C516 1.561 . S
C519 C516 1.526 . S
C519 C520 1.396 . S
C519 C524 1.390 . S
C520 C514 1.465 . S
C520 C519 1.396 . S
C520 C521 1.399 . S
C521 H507 0.929 . S
C521 C520 1.399 . S
C521 C522 1.385 . S
C522 H508 0.931 . S
C522 C521 1.385 . S
C522 C523 1.389 . S
C523 C522 1.389 . S
C523 C524 1.387 . S
C524 H509 0.930 . S
C524 C519 1.390 . S
C524 C523 1.387 . S
H525 C537 0.930 . S
H526 C539 0.930 . S
H527 C540 0.930 . S
H528 C544 0.959 . S
H529 C544 0.959 . S
H530 C544 0.961 . S
H531 C545 0.960 . S
H532 C545 0.961 . S
H533 C545 0.959 . S
H534 C548 0.929 . S
H535 C549 0.931 . S
H536 C551 0.930 . S
C537 H525 0.930 . S
C537 C538 1.399 . S
C537 C542 1.399 . S
C538 C537 1.399 . S
C538 C539 1.376 . S
C539 H526 0.930 . S
C539 C538 1.376 . S
C539 C540 1.388 . S
C540 H527 0.930 . S
C540 C539 1.388 . S
C540 C541 1.390 . S
C541 C540 1.390 . S
C541 C542 1.394 . S
C541 C547 1.465 . S
C542 C537 1.399 . S
C542 C541 1.394 . S
C542 C543 1.516 . S
C543 C542 1.516 . S
C543 C544 1.502 . S
C543 C545 1.561 . S
C543 C546 1.526 . S
C544 H528 0.959 . S
C544 H529 0.959 . S
C544 H530 0.961 . S
C544 C543 1.502 . S
C545 H531 0.960 . S
C545 H532 0.961 . S
C545 H533 0.959 . S
C545 C543 1.561 . S
C546 C543 1.526 . S
C546 C547 1.396 . S
C546 C551 1.390 . S
C547 C541 1.465 . S
C547 C546 1.396 . S
C547 C548 1.399 . S
C548 H534 0.929 . S
C548 C547 1.399 . S
C548 C549 1.385 . S
C549 H535 0.931 . S
C549 C548 1.385 . S
C549 C550 1.389 . S
C550 C549 1.389 . S
C550 C551 1.387 . S
C551 H536 0.930 . S
C551 C546 1.390 . S
C551 C550 1.387 . S
H552 C564 0.930 . S
H553 C566 0.930 . S
H554 C567 0.930 . S
H555 C571 0.959 . S
H556 C571 0.959 . S
H557 C571 0.961 . S
H558 C572 0.960 . S
H559 C572 0.961 . S
H560 C572 0.959 . S
H561 C575 0.929 . S
H562 C576 0.931 . S
H563 C578 0.930 . S
C564 H552 0.930 . S
C564 C565 1.399 . S
C564 C569 1.399 . S
C565 C564 1.399 . S
C565 C566 1.376 . S
C566 H553 0.930 . S
C566 C565 1.376 . S
C566 C567 1.388 . S
C567 H554 0.930 . S
C567 C566 1.388 . S
C567 C568 1.390 . S
C568 C567 1.390 . S
C568 C569 1.394 . S
C568 C574 1.465 . S
C569 C564 1.399 . S
C569 C568 1.394 . S
C569 C570 1.516 . S
C570 C569 1.516 . S
C570 C571 1.502 . S
C570 C572 1.561 . S
C570 C573 1.526 . S
C571 H555 0.959 . S
C571 H556 0.959 . S
C571 H557 0.961 . S
C571 C570 1.502 . S
C572 H558 0.960 . S
C572 H559 0.961 . S
C572 H560 0.959 . S
C572 C570 1.561 . S
C573 C570 1.526 . S
C573 C574 1.396 . S
C573 C578 1.390 . S
C574 C568 1.465 . S
C574 C573 1.396 . S
C574 C575 1.399 . S
C575 H561 0.929 . S
C575 C574 1.399 . S
C575 C576 1.385 . S
C576 H562 0.931 . S
C576 C575 1.385 . S
C576 C577 1.389 . S
C577 C576 1.389 . S
C577 C578 1.387 . S
C578 H563 0.930 . S
C578 C573 1.390 . S
C578 C577 1.387 . S
H579 C591 0.930 . S
H580 C593 0.930 . S
H581 C594 0.930 . S
H582 C598 0.959 . S
H583 C598 0.959 . S
H584 C598 0.961 . S
H585 C599 0.960 . S
H586 C599 0.961 . S
H587 C599 0.959 . S
H588 C602 0.929 . S
H589 C603 0.931 . S
H590 C605 0.930 . S
C591 H579 0.930 . S
C591 C592 1.399 . S
C591 C596 1.399 . S
C592 C591 1.399 . S
C592 C593 1.376 . S
C593 H580 0.930 . S
C593 C592 1.376 . S
C593 C594 1.388 . S
C594 H581 0.930 . S
C594 C593 1.388 . S
C594 C595 1.390 . S
C595 C594 1.390 . S
C595 C596 1.394 . S
C595 C601 1.465 . S
C596 C591 1.399 . S
C596 C595 1.394 . S
C596 C597 1.516 . S
C597 C596 1.516 . S
C597 C598 1.502 . S
C597 C599 1.561 . S
C597 C600 1.526 . S
C598 H582 0.959 . S
C598 H583 0.959 . S
C598 H584 0.961 . S
C598 C597 1.502 . S
C599 H585 0.960 . S
C599 H586 0.961 . S
C599 H587 0.959 . S
C599 C597 1.561 . S
C600 C597 1.526 . S
C600 C601 1.396 . S
C600 C605 1.390 . S
C601 C595 1.465 . S
C601 C600 1.396 . S
C601 C602 1.399 . S
C602 H588 0.929 . S
C602 C601 1.399 . S
C602 C603 1.385 . S
C603 H589 0.931 . S
C603 C602 1.385 . S
C603 C604 1.389 . S
C604 C603 1.389 . S
C604 C605 1.387 . S
C605 H590 0.930 . S
C605 C600 1.390 . S
C605 C604 1.387 . S
H606 C618 0.930 . S
H607 C620 0.930 . S
H608 C621 0.930 . S
H609 C625 0.959 . S
H610 C625 0.959 . S
H611 C625 0.961 . S
H612 C626 0.960 . S
H613 C626 0.961 . S
H614 C626 0.959 . S
H615 C629 0.929 . S
H616 C630 0.931 . S
H617 C632 0.930 . S
C618 H606 0.930 . S
C618 C619 1.399 . S
C618 C623 1.399 . S
C619 C618 1.399 . S
C619 C620 1.376 . S
C620 H607 0.930 . S
C620 C619 1.376 . S
C620 C621 1.388 . S
C621 H608 0.930 . S
C621 C620 1.388 . S
C621 C622 1.390 . S
C622 C621 1.390 . S
C622 C623 1.394 . S
C622 C628 1.465 . S
C623 C618 1.399 . S
C623 C622 1.394 . S
C623 C624 1.516 . S
C624 C623 1.516 . S
C624 C625 1.502 . S
C624 C626 1.561 . S
C624 C627 1.526 . S
C625 H609 0.959 . S
C625 H610 0.959 . S
C625 H611 0.961 . S
C625 C624 1.502 . S
C626 H612 0.960 . S
C626 H613 0.961 . S
C626 H614 0.959 . S
C626 C624 1.561 . S
C627 C624 1.526 . S
C627 C628 1.396 . S
C627 C632 1.390 . S
C628 C622 1.465 . S
C628 C627 1.396 . S
C628 C629 1.399 . S
C629 H615 0.929 . S
C629 C628 1.399 . S
C629 C630 1.385 . S
C630 H616 0.931 . S
C630 C629 1.385 . S
C630 C631 1.389 . S
C631 C630 1.389 . S
C631 C632 1.387 . S
C632 H617 0.930 . S
C632 C627 1.390 . S
C632 C631 1.387 . S
H633 C645 0.930 . S
H634 C647 0.930 . S
H635 C648 0.930 . S
H636 C652 0.959 . S
H637 C652 0.959 . S
H638 C652 0.961 . S
H639 C653 0.960 . S
H640 C653 0.961 . S
H641 C653 0.959 . S
H642 C656 0.929 . S
H643 C657 0.931 . S
H644 C659 0.930 . S
C645 H633 0.930 . S
C645 C646 1.399 . S
C645 C650 1.399 . S
C646 C645 1.399 . S
C646 C647 1.376 . S
C647 H634 0.930 . S
C647 C646 1.376 . S
C647 C648 1.388 . S
C648 H635 0.930 . S
C648 C647 1.388 . S
C648 C649 1.390 . S
C649 C648 1.390 . S
C649 C650 1.394 . S
C649 C655 1.465 . S
C650 C645 1.399 . S
C650 C649 1.394 . S
C650 C651 1.516 . S
C651 C650 1.516 . S
C651 C652 1.502 . S
C651 C653 1.561 . S
C651 C654 1.526 . S
C652 H636 0.959 . S
C652 H637 0.959 . S
C652 H638 0.961 . S
C652 C651 1.502 . S
C653 H639 0.960 . S
C653 H640 0.961 . S
C653 H641 0.959 . S
C653 C651 1.561 . S
C654 C651 1.526 . S
C654 C655 1.396 . S
C654 C659 1.390 . S
C655 C649 1.465 . S
C655 C654 1.396 . S
C655 C656 1.399 . S
C656 H642 0.929 . S
C656 C655 1.399 . S
C656 C657 1.385 . S
C657 H643 0.931 . S
C657 C656 1.385 . S
C657 C658 1.389 . S
C658 C657 1.389 . S
C658 C659 1.387 . S
C659 H644 0.930 . S
C659 C654 1.390 . S
C659 C658 1.387 . S
H660 C672 0.930 . S
H661 C674 0.930 . S
H662 C675 0.930 . S
H663 C679 0.959 . S
H664 C679 0.959 . S
H665 C679 0.961 . S
H666 C680 0.960 . S
H667 C680 0.961 . S
H668 C680 0.959 . S
H669 C683 0.929 . S
H670 C684 0.931 . S
H671 C686 0.956 . S
C672 H660 0.930 . S
C672 C673 1.399 . S
C672 C677 1.399 . S
C673 C672 1.399 . S
C673 C674 1.376 . S
C674 H661 0.930 . S
C674 C673 1.376 . S
C674 C675 1.388 1_556 S
C675 H662 0.930 . S
C675 C674 1.388 1_554 S
C675 C676 1.390 . S
C676 C675 1.390 . S
C676 C677 1.394 1_554 S
C676 C682 1.465 . S
C677 C672 1.399 . S
C677 C676 1.394 1_556 S
C677 C678 1.516 . S
C678 C677 1.516 . S
C678 C679 1.502 . S
C678 C680 1.561 . S
C678 C681 1.526 1_556 S
C679 H663 0.959 . S
C679 H664 0.959 . S
C679 H665 0.961 . S
C679 C678 1.502 . S
C680 H666 0.960 . S
C680 H667 0.961 . S
C680 H668 0.959 . S
C680 C678 1.561 . S
C681 C678 1.526 1_554 S
C681 C682 1.396 . S
C681 C686 1.390 . S
C682 C676 1.465 . S
C682 C681 1.396 . S
C682 C683 1.399 . S
C683 H669 0.929 . S
C683 C682 1.399 . S
C683 C684 1.385 . S
C684 H670 0.931 . S
C684 C683 1.385 . S
C684 C685 1.389 . S
C685 C684 1.389 . S
C685 C686 1.387 . S
C686 H671 0.956 . S
C686 C681 1.390 . S
C686 C685 1.387 . S
H687 C699 0.930 . S
H688 C701 0.930 . S
H689 C702 0.930 . S
H690 C706 0.959 . S
H691 C706 0.959 . S
H692 C706 0.961 . S
H693 C707 0.960 . S
H694 C707 0.961 . S
H695 C707 0.959 . S
H696 C710 0.929 . S
H697 C711 0.931 . S
H698 C713 0.930 . S
C699 H687 0.930 . S
C699 C700 1.399 . S
C699 C704 1.399 . S
C700 C699 1.399 . S
C700 C701 1.376 . S
C701 H688 0.930 . S
C701 C700 1.376 . S
C701 C702 1.388 . S
C702 H689 0.930 . S
C702 C701 1.388 . S
C702 C703 1.390 . S
C703 C702 1.390 . S
C703 C704 1.394 . S
C703 C709 1.465 . S
C704 C699 1.399 . S
C704 C703 1.394 . S
C704 C705 1.516 . S
C705 C704 1.516 . S
C705 C706 1.502 . S
C705 C707 1.561 . S
C705 C708 1.526 . S
C706 H690 0.959 . S
C706 H691 0.959 . S
C706 H692 0.961 . S
C706 C705 1.502 . S
C707 H693 0.960 . S
C707 H694 0.961 . S
C707 H695 0.959 . S
C707 C705 1.561 . S
C708 C705 1.526 . S
C708 C709 1.396 . S
C708 C713 1.390 . S
C709 C703 1.465 . S
C709 C708 1.396 . S
C709 C710 1.399 . S
C710 H696 0.929 . S
C710 C709 1.399 . S
C710 C711 1.385 . S
C711 H697 0.931 . S
C711 C710 1.385 . S
C711 C712 1.389 . S
C712 C711 1.389 . S
C712 C713 1.387 . S
C713 H698 0.930 . S
C713 C708 1.390 . S
C713 C712 1.387 . S
H714 C726 0.930 . S
H715 C728 0.930 . S
H716 C729 0.925 1_556 S
H717 C733 0.959 1_556 S
H718 C733 0.959 . S
H719 C733 0.961 . S
H720 C734 0.960 . S
H721 C734 0.961 . S
H722 C734 0.959 . S
H723 C737 0.929 . S
H724 C738 0.931 . S
H725 C740 0.930 . S
C726 H714 0.930 . S
C726 C727 1.399 . S
C726 C731 1.399 . S
C727 C726 1.399 . S
C727 C728 1.376 . S
C728 H715 0.930 . S
C728 C727 1.376 . S
C728 C729 1.388 . S
C729 H716 0.925 1_554 S
C729 C728 1.388 . S
C729 C730 1.390 . S
C730 C729 1.390 . S
C730 C731 1.394 . S
C730 C736 1.465 1_554 S
C731 C726 1.399 . S
C731 C730 1.394 . S
C731 C732 1.516 . S
C732 C731 1.516 . S
C732 C733 1.502 . S
C732 C734 1.561 . S
C732 C735 1.526 1_554 S
C733 H717 0.959 1_554 S
C733 H718 0.959 . S
C733 H719 0.961 . S
C733 C732 1.502 . S
C734 H720 0.960 . S
C734 H721 0.961 . S
C734 H722 0.959 . S
C734 C732 1.561 . S
C735 C732 1.526 1_556 S
C735 C736 1.396 . S
C735 C740 1.390 . S
C736 C730 1.465 1_556 S
C736 C735 1.396 . S
C736 C737 1.399 . S
C737 H723 0.929 . S
C737 C736 1.399 . S
C737 C738 1.385 . S
C738 H724 0.931 . S
C738 C737 1.385 . S
C738 C739 1.389 . S
C739 C738 1.389 . S
C739 C740 1.387 . S
C740 H725 0.930 . S
C740 C735 1.390 . S
C740 C739 1.387 . S
H741 C753 0.930 . S
H742 C755 0.930 . S
H743 C756 0.930 . S
H744 C760 0.959 . S
H745 C760 0.959 . S
H746 C760 0.961 . S
H747 C761 0.960 . S
H748 C761 0.961 . S
H749 C761 0.959 . S
H750 C764 0.929 . S
H751 C765 0.931 . S
H752 C767 0.930 . S
C753 H741 0.930 . S
C753 C754 1.399 . S
C753 C758 1.399 . S
C754 C753 1.399 . S
C754 C755 1.376 . S
C755 H742 0.930 . S
C755 C754 1.376 . S
C755 C756 1.388 . S
C756 H743 0.930 . S
C756 C755 1.388 . S
C756 C757 1.390 . S
C757 C756 1.390 . S
C757 C758 1.394 . S
C757 C763 1.465 . S
C758 C753 1.399 . S
C758 C757 1.394 . S
C758 C759 1.516 . S
C759 C758 1.516 . S
C759 C760 1.502 . S
C759 C761 1.561 . S
C759 C762 1.526 . S
C760 H744 0.959 . S
C760 H745 0.959 . S
C760 H746 0.961 . S
C760 C759 1.502 . S
C761 H747 0.960 . S
C761 H748 0.961 . S
C761 H749 0.959 . S
C761 C759 1.561 . S
C762 C759 1.526 . S
C762 C763 1.396 . S
C762 C767 1.390 . S
C763 C757 1.465 . S
C763 C762 1.396 . S
C763 C764 1.399 . S
C764 H750 0.929 . S
C764 C763 1.399 . S
C764 C765 1.385 . S
C765 H751 0.931 . S
C765 C764 1.385 . S
C765 C766 1.389 . S
C766 C765 1.389 . S
C766 C767 1.387 . S
C767 H752 0.930 . S
C767 C762 1.390 . S
C767 C766 1.387 . S
H768 C780 0.930 . S
H769 C782 0.930 . S
H770 C783 0.930 . S
H771 C787 0.959 . S
H772 C787 0.959 . S
H773 C787 0.961 . S
H774 C788 0.960 . S
H775 C788 0.961 . S
H776 C788 0.959 . S
H777 C791 0.929 . S
H778 C792 0.931 . S
H779 C794 0.930 . S
C780 H768 0.930 . S
C780 C781 1.399 . S
C780 C785 1.399 . S
C781 C780 1.399 . S
C781 C782 1.376 . S
C782 H769 0.930 . S
C782 C781 1.376 . S
C782 C783 1.388 1_556 S
C783 H770 0.930 . S
C783 C782 1.388 1_554 S
C783 C784 1.390 . S
C784 C783 1.390 . S
C784 C785 1.394 1_554 S
C784 C790 1.465 . S
C785 C780 1.399 . S
C785 C784 1.394 1_556 S
C785 C786 1.516 . S
C786 C785 1.516 . S
C786 C787 1.502 . S
C786 C788 1.561 . S
C786 C789 1.526 1_556 S
C787 H771 0.959 . S
C787 H772 0.959 . S
C787 H773 0.961 . S
C787 C786 1.502 . S
C788 H774 0.960 . S
C788 H775 0.961 . S
C788 H776 0.959 . S
C788 C786 1.561 . S
C789 C786 1.526 1_554 S
C789 C790 1.396 . S
C789 C794 1.390 . S
C790 C784 1.465 . S
C790 C789 1.396 . S
C790 C791 1.399 . S
C791 H777 0.929 . S
C791 C790 1.399 . S
C791 C792 1.385 . S
C792 H778 0.931 . S
C792 C791 1.385 . S
C792 C793 1.389 . S
C793 C792 1.389 . S
C793 C794 1.387 . S
C794 H779 0.930 . S
C794 C789 1.390 . S
C794 C793 1.387 . S
H795 C807 0.930 . S
H796 C809 0.930 . S
H797 C810 0.930 . S
H798 C814 0.959 . S
H799 C814 0.959 . S
H800 C814 0.961 . S
H801 C815 0.960 . S
H802 C815 0.961 . S
H803 C815 0.959 . S
H804 C818 0.929 . S
H805 C819 0.931 . S
H806 C821 0.930 . S
C807 H795 0.930 . S
C807 C808 1.399 . S
C807 C812 1.399 . S
C808 C807 1.399 . S
C808 C809 1.376 . S
C809 H796 0.930 . S
C809 C808 1.376 . S
C809 C810 1.388 . S
C810 H797 0.930 . S
C810 C809 1.388 . S
C810 C811 1.390 . S
C811 C810 1.390 . S
C811 C812 1.394 . S
C811 C817 1.465 . S
C812 C807 1.399 . S
C812 C811 1.394 . S
C812 C813 1.516 . S
C813 C812 1.516 . S
C813 C814 1.502 . S
C813 C815 1.561 . S
C813 C816 1.526 . S
C814 H798 0.959 . S
C814 H799 0.959 . S
C814 H800 0.961 . S
C814 C813 1.502 . S
C815 H801 0.960 . S
C815 H802 0.961 . S
C815 H803 0.959 . S
C815 C813 1.561 . S
C816 C813 1.526 . S
C816 C817 1.396 . S
C816 C821 1.390 . S
C817 C811 1.465 . S
C817 C816 1.396 . S
C817 C818 1.399 . S
C818 H804 0.929 . S
C818 C817 1.399 . S
C818 C819 1.385 . S
C819 H805 0.931 . S
C819 C818 1.385 . S
C819 C820 1.389 . S
C820 C819 1.389 . S
C820 C821 1.387 . S
C821 H806 0.930 . S
C821 C816 1.390 . S
C821 C820 1.387 . S
H822 C834 0.930 . S
H823 C836 0.930 . S
H824 C837 0.930 1_556 S
H825 C841 0.959 . S
H826 C841 0.959 . S
H827 C841 0.961 . S
H828 C842 0.955 1_554 S
H829 C842 0.961 . S
H830 C842 0.959 . S
H831 C845 0.929 . S
H832 C846 0.931 . S
H833 C848 0.930 . S
C834 H822 0.930 . S
C834 C835 1.399 . S
C834 C839 1.399 . S
C835 C834 1.399 . S
C835 C836 1.376 . S
C836 H823 0.930 . S
C836 C835 1.376 . S
C836 C837 1.388 . S
C837 H824 0.930 1_554 S
C837 C836 1.388 . S
C837 C838 1.390 . S
C838 C837 1.390 . S
C838 C839 1.394 . S
C838 C844 1.465 1_554 S
C839 C834 1.399 . S
C839 C838 1.394 . S
C839 C840 1.516 . S
C840 C839 1.516 . S
C840 C841 1.502 . S
C840 C842 1.561 1_554 S
C840 C843 1.526 1_554 S
C841 H825 0.959 . S
C841 H826 0.959 . S
C841 H827 0.961 . S
C841 C840 1.502 . S
C842 H828 0.955 1_556 S
C842 H829 0.961 . S
C842 H830 0.959 . S
C842 C840 1.561 1_556 S
C843 C840 1.526 1_556 S
C843 C844 1.396 . S
C843 C848 1.390 . S
C844 C838 1.465 1_556 S
C844 C843 1.396 . S
C844 C845 1.399 . S
C845 H831 0.929 . S
C845 C844 1.399 . S
C845 C846 1.385 . S
C846 H832 0.931 . S
C846 C845 1.385 . S
C846 C847 1.389 . S
C847 C846 1.389 . S
C847 C848 1.387 . S
C848 H833 0.930 . S
C848 C843 1.390 . S
C848 C847 1.387 . S
H849 C861 0.930 . S
H850 C863 0.930 . S
H851 C864 0.930 . S
H852 C868 0.959 . S
H853 C868 0.959 . S
H854 C868 0.961 . S
H855 C869 0.960 . S
H856 C869 0.961 . S
H857 C869 0.959 . S
H858 C872 0.929 . S
H859 C873 0.931 . S
H860 C875 0.930 . S
C861 H849 0.930 . S
C861 C862 1.399 . S
C861 C866 1.399 . S
C862 C861 1.399 . S
C862 C863 1.376 . S
C863 H850 0.930 . S
C863 C862 1.376 . S
C863 C864 1.388 . S
C864 H851 0.930 . S
C864 C863 1.388 . S
C864 C865 1.390 . S
C865 C864 1.390 . S
C865 C866 1.394 . S
C865 C871 1.465 . S
C866 C861 1.399 . S
C866 C865 1.394 . S
C866 C867 1.516 . S
C867 C866 1.516 . S
C867 C868 1.502 . S
C867 C869 1.561 . S
C867 C870 1.526 . S
C868 H852 0.959 . S
C868 H853 0.959 . S
C868 H854 0.961 . S
C868 C867 1.502 . S
C869 H855 0.960 . S
C869 H856 0.961 . S
C869 H857 0.959 . S
C869 C867 1.561 . S
C870 C867 1.526 . S
C870 C871 1.396 . S
C870 C875 1.390 . S
C871 C865 1.465 . S
C871 C870 1.396 . S
C871 C872 1.399 . S
C872 H858 0.929 . S
C872 C871 1.399 . S
C872 C873 1.385 . S
C873 H859 0.931 . S
C873 C872 1.385 . S
C873 C874 1.389 . S
C874 C873 1.389 . S
C874 C875 1.387 . S
C875 H860 0.930 . S
C875 C870 1.390 . S
C875 C874 1.387 . S
H876 C888 0.930 . S
H877 C890 0.930 . S
H878 C891 0.930 . S
H879 C895 0.959 . S
H880 C895 0.959 . S
H881 C895 0.961 . S
H882 C896 0.960 . S
H883 C896 0.961 . S
H884 C896 0.959 1_556 S
H885 C899 0.929 . S
H886 C900 0.931 . S
H887 C902 0.930 . S
C888 H876 0.930 . S
C888 C889 1.399 . S
C888 C893 1.399 . S
C889 C888 1.399 . S
C889 C890 1.376 . S
C890 H877 0.930 . S
C890 C889 1.376 . S
C890 C891 1.388 . S
C891 H878 0.930 . S
C891 C890 1.388 . S
C891 C892 1.390 . S
C892 C891 1.390 . S
C892 C893 1.394 . S
C892 C898 1.465 . S
C893 C888 1.399 . S
C893 C892 1.394 . S
C893 C894 1.516 1_556 S
C894 C893 1.516 1_554 S
C894 C895 1.502 . S
C894 C896 1.561 . S
C894 C897 1.526 . S
C895 H879 0.959 . S
C895 H880 0.959 . S
C895 H881 0.961 . S
C895 C894 1.502 . S
C896 H882 0.960 . S
C896 H883 0.961 . S
C896 H884 0.959 1_554 S
C896 C894 1.561 . S
C897 C894 1.526 . S
C897 C898 1.396 1_554 S
C897 C902 1.390 . S
C898 C892 1.465 . S
C898 C897 1.396 1_556 S
C898 C899 1.399 . S
C899 H885 0.929 . S
C899 C898 1.399 . S
C899 C900 1.385 1_556 S
C900 H886 0.931 . S
C900 C899 1.385 1_554 S
C900 C901 1.389 . S
C901 C900 1.389 . S
C901 C902 1.387 . S
C902 H887 0.930 . S
C902 C897 1.390 . S
C902 C901 1.387 . S
H903 C915 0.930 . S
H904 C917 0.930 . S
H905 C918 0.930 . S
H906 C922 0.959 . S
H907 C922 0.959 . S
H908 C922 0.961 . S
H909 C923 0.960 . S
H910 C923 0.961 . S
H911 C923 0.959 . S
H912 C926 0.929 . S
H913 C927 0.931 . S
H914 C929 0.930 . S
C915 H903 0.930 . S
C915 C916 1.399 . S
C915 C920 1.399 . S
C916 C915 1.399 . S
C916 C917 1.376 . S
C917 H904 0.930 . S
C917 C916 1.376 . S
C917 C918 1.388 . S
C918 H905 0.930 . S
C918 C917 1.388 . S
C918 C919 1.390 . S
C919 C918 1.390 . S
C919 C920 1.394 . S
C919 C925 1.465 . S
C920 C915 1.399 . S
C920 C919 1.394 . S
C920 C921 1.516 . S
C921 C920 1.516 . S
C921 C922 1.502 . S
C921 C923 1.561 . S
C921 C924 1.526 . S
C922 H906 0.959 . S
C922 H907 0.959 . S
C922 H908 0.961 . S
C922 C921 1.502 . S
C923 H909 0.960 . S
C923 H910 0.961 . S
C923 H911 0.959 . S
C923 C921 1.561 . S
C924 C921 1.526 . S
C924 C925 1.396 . S
C924 C929 1.390 . S
C925 C919 1.465 . S
C925 C924 1.396 . S
C925 C926 1.399 . S
C926 H912 0.929 . S
C926 C925 1.399 . S
C926 C927 1.385 . S
C927 H913 0.931 . S
C927 C926 1.385 . S
C927 C928 1.389 . S
C928 C927 1.389 . S
C928 C929 1.387 . S
C929 H914 0.930 . S
C929 C924 1.390 . S
C929 C928 1.387 . S
H930 C942 0.930 . S
H931 C944 0.930 . S
H932 C945 0.930 . S
H933 C949 0.959 . S
H934 C949 0.959 . S
H935 C949 0.961 . S
H936 C950 0.960 . S
H937 C950 0.961 . S
H938 C950 0.957 . S
H939 C953 0.929 . S
H940 C954 0.931 . S
H941 C956 0.930 . S
C942 H930 0.930 . S
C942 C943 1.399 . S
C942 C947 1.399 . S
C943 C942 1.399 . S
C943 C944 1.376 . S
C944 H931 0.930 . S
C944 C943 1.376 . S
C944 C945 1.388 . S
C945 H932 0.930 . S
C945 C944 1.388 . S
C945 C946 1.390 . S
C946 C945 1.390 . S
C946 C947 1.394 . S
C946 C952 1.465 . S
C947 C942 1.399 . S
C947 C946 1.394 . S
C947 C948 1.516 1_556 S
C948 C947 1.516 1_554 S
C948 C949 1.502 . S
C948 C950 1.561 . S
C948 C951 1.526 . S
C949 H933 0.959 . S
C949 H934 0.959 . S
C949 H935 0.961 . S
C949 C948 1.502 . S
C950 H936 0.960 . S
C950 H937 0.961 . S
C950 H938 0.957 . S
C950 C948 1.561 . S
C951 C948 1.526 . S
C951 C952 1.396 1_554 S
C951 C956 1.390 . S
C952 C946 1.465 . S
C952 C951 1.396 1_556 S
C952 C953 1.399 . S
C953 H939 0.929 . S
C953 C952 1.399 . S
C953 C954 1.385 1_556 S
C954 H940 0.931 . S
C954 C953 1.385 1_554 S
C954 C955 1.389 . S
C955 C954 1.389 . S
C955 C956 1.387 . S
C956 H941 0.930 . S
C956 C951 1.390 . S
C956 C955 1.387 . S
H957 C969 0.930 . S
H958 C971 0.930 . S
H959 C972 0.930 . S
H960 C976 0.959 . S
H961 C976 0.959 . S
H962 C976 0.961 . S
H963 C977 0.960 . S
H964 C977 0.961 . S
H965 C977 0.959 . S
H966 C980 0.929 . S
H967 C981 0.931 . S
H968 C983 0.930 . S
C969 H957 0.930 . S
C969 C970 1.399 . S
C969 C974 1.399 . S
C970 C969 1.399 . S
C970 C971 1.376 . S
C971 H958 0.930 . S
C971 C970 1.376 . S
C971 C972 1.388 . S
C972 H959 0.930 . S
C972 C971 1.388 . S
C972 C973 1.390 . S
C973 C972 1.390 . S
C973 C974 1.394 . S
C973 C979 1.465 . S
C974 C969 1.399 . S
C974 C973 1.394 . S
C974 C975 1.516 . S
C975 C974 1.516 . S
C975 C976 1.502 . S
C975 C977 1.561 . S
C975 C978 1.526 . S
C976 H960 0.959 . S
C976 H961 0.959 . S
C976 H962 0.961 . S
C976 C975 1.502 . S
C977 H963 0.960 . S
C977 H964 0.961 . S
C977 H965 0.959 . S
C977 C975 1.561 . S
C978 C975 1.526 . S
C978 C979 1.396 . S
C978 C983 1.390 . S
C979 C973 1.465 . S
C979 C978 1.396 . S
C979 C980 1.399 . S
C980 H966 0.929 . S
C980 C979 1.399 . S
C980 C981 1.385 . S
C981 H967 0.931 . S
C981 C980 1.385 . S
C981 C982 1.389 . S
C982 C981 1.389 . S
C982 C983 1.387 . S
C983 H968 0.930 . S
C983 C978 1.390 . S
C983 C982 1.387 . S
H984 C996 0.930 . S
H985 C998 0.930 . S
H986 C999 0.930 . S
H987 C1003 0.959 . S
H988 C1003 0.959 . S
H989 C1003 0.961 . S
H990 C1004 0.960 . S
H991 C1004 0.961 . S
H992 C1004 0.959 . S
H993 C1007 0.929 . S
H994 C1008 0.931 . S
H995 C1010 0.930 . S
C996 H984 0.930 . S
C996 C997 1.399 . S
C996 C1001 1.399 . S
C997 C996 1.399 . S
C997 C998 1.376 . S
C998 H985 0.930 . S
C998 C997 1.376 . S
C998 C999 1.388 . S
C999 H986 0.930 . S
C999 C998 1.388 . S
C999 C1000 1.390 . S
C1000 C999 1.390 . S
C1000 C1001 1.394 . S
C1000 C1006 1.465 . S
C1001 C996 1.399 . S
C1001 C1000 1.394 . S
C1001 C1002 1.516 . S
C1002 C1001 1.516 . S
C1002 C1003 1.502 . S
C1002 C1004 1.561 . S
C1002 C1005 1.526 . S
C1003 H987 0.959 . S
C1003 H988 0.959 . S
C1003 H989 0.961 . S
C1003 C1002 1.502 . S
C1004 H990 0.960 . S
C1004 H991 0.961 . S
C1004 H992 0.959 . S
C1004 C1002 1.561 . S
C1005 C1002 1.526 . S
C1005 C1006 1.396 . S
C1005 C1010 1.390 . S
C1006 C1000 1.465 . S
C1006 C1005 1.396 . S
C1006 C1007 1.399 . S
C1007 H993 0.929 . S
C1007 C1006 1.399 . S
C1007 C1008 1.385 . S
C1008 H994 0.931 . S
C1008 C1007 1.385 . S
C1008 C1009 1.389 . S
C1009 C1008 1.389 . S
C1009 C1010 1.387 . S
C1010 H995 0.930 . S
C1010 C1005 1.390 . S
C1010 C1009 1.387 . S
H1011 C1023 0.930 . S
H1012 C1025 0.930 . S
H1013 C1026 0.930 . S
H1014 C1030 0.971 . S
H1015 C1030 0.981 . S
H1016 C1030 0.942 1_455 S
H1017 C1031 0.958 1_455 S
H1018 C1031 0.964 . S
H1019 C1031 0.957 . S
H1020 C1034 0.929 . S
H1021 C1035 0.931 . S
H1022 C1037 0.930 . S
C1023 H1011 0.930 . S
C1023 C1024 1.399 . S
C1023 C1028 1.399 . S
C1024 C1023 1.399 . S
C1024 C1025 1.376 . S
C1025 H1012 0.930 . S
C1025 C1024 1.376 . S
C1025 C1026 1.388 . S
C1026 H1013 0.930 . S
C1026 C1025 1.388 . S
C1026 C1027 1.390 . S
C1027 C1026 1.390 . S
C1027 C1028 1.394 . S
C1027 C1033 1.465 1_455 S
C1028 C1023 1.399 . S
C1028 C1027 1.394 . S
C1028 C1029 1.517 1_455 S
C1029 C1028 1.517 1_655 S
C1029 C1030 1.488 . S
C1029 C1031 1.563 . S
C1029 C1032 1.525 . S
C1030 H1014 0.971 . S
C1030 H1015 0.981 . S
C1030 H1016 0.942 1_655 S
C1030 C1029 1.488 . S
C1031 H1017 0.958 1_655 S
C1031 H1018 0.964 . S
C1031 H1019 0.957 . S
C1031 C1029 1.563 . S
C1032 C1029 1.525 . S
C1032 C1033 1.396 . S
C1032 C1037 1.390 . S
C1033 C1027 1.465 1_655 S
C1033 C1032 1.396 . S
C1033 C1034 1.399 . S
C1034 H1020 0.929 . S
C1034 C1033 1.399 . S
C1034 C1035 1.385 . S
C1035 H1021 0.931 . S
C1035 C1034 1.385 . S
C1035 C1036 1.389 . S
C1036 C1035 1.389 . S
C1036 C1037 1.387 . S
C1037 H1022 0.930 . S
C1037 C1032 1.390 . S
C1037 C1036 1.387 . S
H1038 C1050 0.930 . S
H1039 C1052 0.930 . S
H1040 C1053 0.930 . S
H1041 C1057 0.969 . S
H1042 C1057 0.982 . S
H1043 C1057 0.944 1_565 S
H1044 C1058 0.958 1_565 S
H1045 C1058 0.964 . S
H1046 C1058 0.957 . S
H1047 C1061 0.929 . S
H1048 C1062 0.931 . S
H1049 C1064 0.930 . S
C1050 H1038 0.930 . S
C1050 C1051 1.399 . S
C1050 C1055 1.399 . S
C1051 C1050 1.399 . S
C1051 C1052 1.376 . S
C1052 H1039 0.930 . S
C1052 C1051 1.376 . S
C1052 C1053 1.388 . S
C1053 H1040 0.930 . S
C1053 C1052 1.388 . S
C1053 C1054 1.390 . S
C1054 C1053 1.390 . S
C1054 C1055 1.394 . S
C1054 C1060 1.465 1_565 S
C1055 C1050 1.399 . S
C1055 C1054 1.394 . S
C1055 C1056 1.517 1_565 S
C1056 C1055 1.517 1_545 S
C1056 C1057 1.487 . S
C1056 C1058 1.563 . S
C1056 C1059 1.525 . S
C1057 H1041 0.969 . S
C1057 H1042 0.982 . S
C1057 H1043 0.944 1_545 S
C1057 C1056 1.487 . S
C1058 H1044 0.958 1_545 S
C1058 H1045 0.964 . S
C1058 H1046 0.957 . S
C1058 C1056 1.563 . S
C1059 C1056 1.525 . S
C1059 C1060 1.396 . S
C1059 C1064 1.390 . S
C1060 C1054 1.465 1_545 S
C1060 C1059 1.396 . S
C1060 C1061 1.399 . S
C1061 H1047 0.929 . S
C1061 C1060 1.399 . S
C1061 C1062 1.385 . S
C1062 H1048 0.931 . S
C1062 C1061 1.385 . S
C1062 C1063 1.389 . S
C1063 C1062 1.389 . S
C1063 C1064 1.387 . S
C1064 H1049 0.930 . S
C1064 C1059 1.390 . S
C1064 C1063 1.387 . S
H1065 C1077 0.930 . S
H1066 C1079 0.930 . S
H1067 C1080 0.930 . S
H1068 C1084 0.959 . S
H1069 C1084 0.959 . S
H1070 C1084 0.961 . S
H1071 C1085 0.960 . S
H1072 C1085 0.961 . S
H1073 C1085 0.959 . S
H1074 C1088 0.929 . S
H1075 C1089 0.931 . S
H1076 C1091 0.930 . S
C1077 H1065 0.930 . S
C1077 C1078 1.399 . S
C1077 C1082 1.399 . S
C1078 C1077 1.399 . S
C1078 C1079 1.376 . S
C1079 H1066 0.930 . S
C1079 C1078 1.376 . S
C1079 C1080 1.388 . S
C1080 H1067 0.930 . S
C1080 C1079 1.388 . S
C1080 C1081 1.390 . S
C1081 C1080 1.390 . S
C1081 C1082 1.394 . S
C1081 C1087 1.465 . S
C1082 C1077 1.399 . S
C1082 C1081 1.394 . S
C1082 C1083 1.516 . S
C1083 C1082 1.516 . S
C1083 C1084 1.502 . S
C1083 C1085 1.561 . S
C1083 C1086 1.526 . S
C1084 H1068 0.959 . S
C1084 H1069 0.959 . S
C1084 H1070 0.961 . S
C1084 C1083 1.502 . S
C1085 H1071 0.960 . S
C1085 H1072 0.961 . S
C1085 H1073 0.959 . S
C1085 C1083 1.561 . S
C1086 C1083 1.526 . S
C1086 C1087 1.396 . S
C1086 C1091 1.390 . S
C1087 C1081 1.465 . S
C1087 C1086 1.396 . S
C1087 C1088 1.399 . S
C1088 H1074 0.929 . S
C1088 C1087 1.399 . S
C1088 C1089 1.385 . S
C1089 H1075 0.931 . S
C1089 C1088 1.385 . S
C1089 C1090 1.389 . S
C1090 C1089 1.389 . S
C1090 C1091 1.387 . S
C1091 H1076 0.930 . S
C1091 C1086 1.390 . S
C1091 C1090 1.387 . S
H1092 C1104 0.930 . S
H1093 C1106 0.930 . S
H1094 C1107 0.930 . S
H1095 C1111 0.970 . S
H1096 C1111 0.981 . S
H1097 C1111 0.943 1_655 S
H1098 C1112 0.958 1_655 S
H1099 C1112 0.964 . S
H1100 C1112 0.957 . S
H1101 C1115 0.929 . S
H1102 C1116 0.931 . S
H1103 C1118 0.930 . S
C1104 H1092 0.930 . S
C1104 C1105 1.399 . S
C1104 C1109 1.399 . S
C1105 C1104 1.399 . S
C1105 C1106 1.376 . S
C1106 H1093 0.930 . S
C1106 C1105 1.376 . S
C1106 C1107 1.388 . S
C1107 H1094 0.930 . S
C1107 C1106 1.388 . S
C1107 C1108 1.390 . S
C1108 C1107 1.390 . S
C1108 C1109 1.394 . S
C1108 C1114 1.465 1_655 S
C1109 C1104 1.399 . S
C1109 C1108 1.394 . S
C1109 C1110 1.517 1_655 S
C1110 C1109 1.517 1_455 S
C1110 C1111 1.487 . S
C1110 C1112 1.563 . S
C1110 C1113 1.525 . S
C1111 H1095 0.970 . S
C1111 H1096 0.981 . S
C1111 H1097 0.943 1_455 S
C1111 C1110 1.487 . S
C1112 H1098 0.958 1_455 S
C1112 H1099 0.964 . S
C1112 H1100 0.957 . S
C1112 C1110 1.563 . S
C1113 C1110 1.525 . S
C1113 C1114 1.396 . S
C1113 C1118 1.390 . S
C1114 C1108 1.465 1_455 S
C1114 C1113 1.396 . S
C1114 C1115 1.399 . S
C1115 H1101 0.929 . S
C1115 C1114 1.399 . S
C1115 C1116 1.385 . S
C1116 H1102 0.931 . S
C1116 C1115 1.385 . S
C1116 C1117 1.389 . S
C1117 C1116 1.389 . S
C1117 C1118 1.387 . S
C1118 H1103 0.930 . S
C1118 C1113 1.390 . S
C1118 C1117 1.387 . S
H1119 C1131 0.930 . S
H1120 C1133 0.930 . S
H1121 C1134 0.930 . S
H1122 C1138 0.967 . S
H1123 C1138 0.983 . S
H1124 C1138 0.945 1_545 S
H1125 C1139 0.958 1_545 S
H1126 C1139 0.964 . S
H1127 C1139 0.957 . S
H1128 C1142 0.929 . S
H1129 C1143 0.931 . S
H1130 C1145 0.930 . S
C1131 H1119 0.930 . S
C1131 C1132 1.399 . S
C1131 C1136 1.399 . S
C1132 C1131 1.399 . S
C1132 C1133 1.376 . S
C1133 H1120 0.930 . S
C1133 C1132 1.376 . S
C1133 C1134 1.388 . S
C1134 H1121 0.930 . S
C1134 C1133 1.388 . S
C1134 C1135 1.390 . S
C1135 C1134 1.390 . S
C1135 C1136 1.394 . S
C1135 C1141 1.465 1_545 S
C1136 C1131 1.399 . S
C1136 C1135 1.394 . S
C1136 C1137 1.517 1_545 S
C1137 C1136 1.517 1_565 S
C1137 C1138 1.486 . S
C1137 C1139 1.562 . S
C1137 C1140 1.525 . S
C1138 H1122 0.967 . S
C1138 H1123 0.983 . S
C1138 H1124 0.945 1_565 S
C1138 C1137 1.486 . S
C1139 H1125 0.958 1_565 S
C1139 H1126 0.964 . S
C1139 H1127 0.957 . S
C1139 C1137 1.562 . S
C1140 C1137 1.525 . S
C1140 C1141 1.396 . S
C1140 C1145 1.390 . S
C1141 C1135 1.465 1_565 S
C1141 C1140 1.396 . S
C1141 C1142 1.399 . S
C1142 H1128 0.929 . S
C1142 C1141 1.399 . S
C1142 C1143 1.385 . S
C1143 H1129 0.931 . S
C1143 C1142 1.385 . S
C1143 C1144 1.389 . S
C1144 C1143 1.389 . S
C1144 C1145 1.387 . S
C1145 H1130 0.930 . S
C1145 C1140 1.390 . S
C1145 C1144 1.387 . S
H1146 C1158 0.930 . S
H1147 C1160 0.930 . S
H1148 C1161 0.930 . S
H1149 C1165 0.959 . S
H1150 C1165 0.959 . S
H1151 C1165 0.961 . S
H1152 C1166 0.960 . S
H1153 C1166 0.961 . S
H1154 C1166 0.959 . S
H1155 C1169 0.929 . S
H1156 C1170 0.931 . S
H1157 C1172 0.930 . S
C1158 H1146 0.930 . S
C1158 C1159 1.399 . S
C1158 C1163 1.399 . S
C1159 C1158 1.399 . S
C1159 C1160 1.376 . S
C1160 H1147 0.930 . S
C1160 C1159 1.376 . S
C1160 C1161 1.388 . S
C1161 H1148 0.930 . S
C1161 C1160 1.388 . S
C1161 C1162 1.390 . S
C1162 C1161 1.390 . S
C1162 C1163 1.394 . S
C1162 C1168 1.465 . S
C1163 C1158 1.399 . S
C1163 C1162 1.394 . S
C1163 C1164 1.516 . S
C1164 C1163 1.516 . S
C1164 C1165 1.502 . S
C1164 C1166 1.561 . S
C1164 C1167 1.526 . S
C1165 H1149 0.959 . S
C1165 H1150 0.959 . S
C1165 H1151 0.961 . S
C1165 C1164 1.502 . S
C1166 H1152 0.960 . S
C1166 H1153 0.961 . S
C1166 H1154 0.959 . S
C1166 C1164 1.561 . S
C1167 C1164 1.526 . S
C1167 C1168 1.396 . S
C1167 C1172 1.390 . S
C1168 C1162 1.465 . S
C1168 C1167 1.396 . S
C1168 C1169 1.399 . S
C1169 H1155 0.929 . S
C1169 C1168 1.399 . S
C1169 C1170 1.385 . S
C1170 H1156 0.931 . S
C1170 C1169 1.385 . S
C1170 C1171 1.389 . S
C1171 C1170 1.389 . S
C1171 C1172 1.387 . S
C1172 H1157 0.930 . S
C1172 C1167 1.390 . S
C1172 C1171 1.387 . S
H1173 C1185 0.930 . S
H1174 C1187 0.930 . S
H1175 C1188 0.930 . S
H1176 C1192 0.970 . S
H1177 C1192 0.981 . S
H1178 C1192 0.943 1_655 S
H1179 C1193 0.958 1_655 S
H1180 C1193 0.964 . S
H1181 C1193 0.957 . S
H1182 C1196 0.929 . S
H1183 C1197 0.931 . S
H1184 C1199 0.930 . S
C1185 H1173 0.930 . S
C1185 C1186 1.399 . S
C1185 C1190 1.399 . S
C1186 C1185 1.399 . S
C1186 C1187 1.376 . S
C1187 H1174 0.930 . S
C1187 C1186 1.376 . S
C1187 C1188 1.388 . S
C1188 H1175 0.930 . S
C1188 C1187 1.388 . S
C1188 C1189 1.390 . S
C1189 C1188 1.390 . S
C1189 C1190 1.394 . S
C1189 C1195 1.465 1_655 S
C1190 C1185 1.399 . S
C1190 C1189 1.394 . S
C1190 C1191 1.517 1_655 S
C1191 C1190 1.517 1_455 S
C1191 C1192 1.487 . S
C1191 C1193 1.563 . S
C1191 C1194 1.525 . S
C1192 H1176 0.970 . S
C1192 H1177 0.981 . S
C1192 H1178 0.943 1_455 S
C1192 C1191 1.487 . S
C1193 H1179 0.958 1_455 S
C1193 H1180 0.964 . S
C1193 H1181 0.957 . S
C1193 C1191 1.563 . S
C1194 C1191 1.525 . S
C1194 C1195 1.396 . S
C1194 C1199 1.390 . S
C1195 C1189 1.465 1_455 S
C1195 C1194 1.396 . S
C1195 C1196 1.399 . S
C1196 H1182 0.929 . S
C1196 C1195 1.399 . S
C1196 C1197 1.385 . S
C1197 H1183 0.931 . S
C1197 C1196 1.385 . S
C1197 C1198 1.389 . S
C1198 C1197 1.389 . S
C1198 C1199 1.387 . S
C1199 H1184 0.930 . S
C1199 C1194 1.390 . S
C1199 C1198 1.387 . S
H1200 C1212 0.930 . S
H1201 C1214 0.930 . S
H1202 C1215 0.930 . S
H1203 C1219 0.971 . S
H1204 C1219 0.981 . S
H1205 C1219 0.942 1_545 S
H1206 C1220 0.958 1_545 S
H1207 C1220 0.964 . S
H1208 C1220 0.957 . S
H1209 C1223 0.929 . S
H1210 C1224 0.931 . S
H1211 C1226 0.930 . S
C1212 H1200 0.930 . S
C1212 C1213 1.399 . S
C1212 C1217 1.399 . S
C1213 C1212 1.399 . S
C1213 C1214 1.376 . S
C1214 H1201 0.930 . S
C1214 C1213 1.376 . S
C1214 C1215 1.388 . S
C1215 H1202 0.930 . S
C1215 C1214 1.388 . S
C1215 C1216 1.390 . S
C1216 C1215 1.390 . S
C1216 C1217 1.394 . S
C1216 C1222 1.465 1_545 S
C1217 C1212 1.399 . S
C1217 C1216 1.394 . S
C1217 C1218 1.517 1_545 S
C1218 C1217 1.517 1_565 S
C1218 C1219 1.488 . S
C1218 C1220 1.563 . S
C1218 C1221 1.525 . S
C1219 H1203 0.971 . S
C1219 H1204 0.981 . S
C1219 H1205 0.942 1_565 S
C1219 C1218 1.488 . S
C1220 H1206 0.958 1_565 S
C1220 H1207 0.964 . S
C1220 H1208 0.957 . S
C1220 C1218 1.563 . S
C1221 C1218 1.525 . S
C1221 C1222 1.396 . S
C1221 C1226 1.390 . S
C1222 C1216 1.465 1_565 S
C1222 C1221 1.396 . S
C1222 C1223 1.399 . S
C1223 H1209 0.929 . S
C1223 C1222 1.399 . S
C1223 C1224 1.385 . S
C1224 H1210 0.931 . S
C1224 C1223 1.385 . S
C1224 C1225 1.389 . S
C1225 C1224 1.389 . S
C1225 C1226 1.387 . S
C1226 H1211 0.930 . S
C1226 C1221 1.390 . S
C1226 C1225 1.387 . S
H1227 C1239 0.930 . S
H1228 C1241 0.930 . S
H1229 C1242 0.930 . S
H1230 C1246 0.959 . S
H1231 C1246 0.959 . S
H1232 C1246 0.961 . S
H1233 C1247 0.960 . S
H1234 C1247 0.961 . S
H1235 C1247 0.959 . S
H1236 C1250 0.929 . S
H1237 C1251 0.931 . S
H1238 C1253 0.930 . S
C1239 H1227 0.930 . S
C1239 C1240 1.399 . S
C1239 C1244 1.399 . S
C1240 C1239 1.399 . S
C1240 C1241 1.376 . S
C1241 H1228 0.930 . S
C1241 C1240 1.376 . S
C1241 C1242 1.388 . S
C1242 H1229 0.930 . S
C1242 C1241 1.388 . S
C1242 C1243 1.390 . S
C1243 C1242 1.390 . S
C1243 C1244 1.394 . S
C1243 C1249 1.465 . S
C1244 C1239 1.399 . S
C1244 C1243 1.394 . S
C1244 C1245 1.516 . S
C1245 C1244 1.516 . S
C1245 C1246 1.502 . S
C1245 C1247 1.561 . S
C1245 C1248 1.526 . S
C1246 H1230 0.959 . S
C1246 H1231 0.959 . S
C1246 H1232 0.961 . S
C1246 C1245 1.502 . S
C1247 H1233 0.960 . S
C1247 H1234 0.961 . S
C1247 H1235 0.959 . S
C1247 C1245 1.561 . S
C1248 C1245 1.526 . S
C1248 C1249 1.396 . S
C1248 C1253 1.390 . S
C1249 C1243 1.465 . S
C1249 C1248 1.396 . S
C1249 C1250 1.399 . S
C1250 H1236 0.929 . S
C1250 C1249 1.399 . S
C1250 C1251 1.385 . S
C1251 H1237 0.931 . S
C1251 C1250 1.385 . S
C1251 C1252 1.389 . S
C1252 C1251 1.389 . S
C1252 C1253 1.387 . S
C1253 H1238 0.930 . S
C1253 C1248 1.390 . S
C1253 C1252 1.387 . S
H1254 C1266 0.930 . S
H1255 C1268 0.930 . S
H1256 C1269 0.930 . S
H1257 C1273 0.958 . S
H1258 C1273 0.974 . S
H1259 C1273 0.934 1_455 S
H1260 C1274 0.957 1_455 S
H1261 C1274 0.962 . S
H1262 C1274 0.961 . S
H1263 C1277 0.929 . S
H1264 C1278 0.931 . S
H1265 C1280 0.930 . S
C1266 H1254 0.930 . S
C1266 C1267 1.399 . S
C1266 C1271 1.399 . S
C1267 C1266 1.399 . S
C1267 C1268 1.376 . S
C1268 H1255 0.930 . S
C1268 C1267 1.376 . S
C1268 C1269 1.388 . S
C1269 H1256 0.930 . S
C1269 C1268 1.388 . S
C1269 C1270 1.390 . S
C1270 C1269 1.390 . S
C1270 C1271 1.394 . S
C1270 C1276 1.465 1_455 S
C1271 C1266 1.399 . S
C1271 C1270 1.394 . S
C1271 C1272 1.517 1_455 S
C1272 C1271 1.517 1_655 S
C1272 C1273 1.517 . S
C1272 C1274 1.560 . S
C1272 C1275 1.525 . S
C1273 H1257 0.958 . S
C1273 H1258 0.974 . S
C1273 H1259 0.934 1_655 S
C1273 C1272 1.517 . S
C1274 H1260 0.957 1_655 S
C1274 H1261 0.962 . S
C1274 H1262 0.961 . S
C1274 C1272 1.560 . S
C1275 C1272 1.525 . S
C1275 C1276 1.396 . S
C1275 C1280 1.390 . S
C1276 C1270 1.465 1_655 S
C1276 C1275 1.396 . S
C1276 C1277 1.399 . S
C1277 H1263 0.929 . S
C1277 C1276 1.399 . S
C1277 C1278 1.385 . S
C1278 H1264 0.931 . S
C1278 C1277 1.385 . S
C1278 C1279 1.389 . S
C1279 C1278 1.389 . S
C1279 C1280 1.387 . S
C1280 H1265 0.930 . S
C1280 C1275 1.390 . S
C1280 C1279 1.387 . S
H1281 C1293 0.930 . S
H1282 C1295 0.930 . S
H1283 C1296 0.930 . S
H1284 C1300 0.953 . S
H1285 C1300 0.978 . S
H1286 C1300 0.937 1_565 S
H1287 C1301 0.957 1_565 S
H1288 C1301 0.963 . S
H1289 C1301 0.961 . S
H1290 C1304 0.929 . S
H1291 C1305 0.931 . S
H1292 C1307 0.930 . S
C1293 H1281 0.930 . S
C1293 C1294 1.399 . S
C1293 C1298 1.399 . S
C1294 C1293 1.399 . S
C1294 C1295 1.376 . S
C1295 H1282 0.930 . S
C1295 C1294 1.376 . S
C1295 C1296 1.388 . S
C1296 H1283 0.930 . S
C1296 C1295 1.388 . S
C1296 C1297 1.390 . S
C1297 C1296 1.390 . S
C1297 C1298 1.394 . S
C1297 C1303 1.465 1_565 S
C1298 C1293 1.399 . S
C1298 C1297 1.394 . S
C1298 C1299 1.517 1_565 S
C1299 C1298 1.517 1_545 S
C1299 C1300 1.516 . S
C1299 C1301 1.560 . S
C1299 C1302 1.525 . S
C1300 H1284 0.953 . S
C1300 H1285 0.978 . S
C1300 H1286 0.937 1_545 S
C1300 C1299 1.516 . S
C1301 H1287 0.957 1_545 S
C1301 H1288 0.963 . S
C1301 H1289 0.961 . S
C1301 C1299 1.560 . S
C1302 C1299 1.525 . S
C1302 C1303 1.396 . S
C1302 C1307 1.390 . S
C1303 C1297 1.465 1_545 S
C1303 C1302 1.396 . S
C1303 C1304 1.399 . S
C1304 H1290 0.929 . S
C1304 C1303 1.399 . S
C1304 C1305 1.385 . S
C1305 H1291 0.931 . S
C1305 C1304 1.385 . S
C1305 C1306 1.389 . S
C1306 C1305 1.389 . S
C1306 C1307 1.387 . S
C1307 H1292 0.930 . S
C1307 C1302 1.390 . S
C1307 C1306 1.387 . S
H1308 C1320 0.930 . S
H1309 C1322 0.930 . S
H1310 C1323 0.930 . S
H1311 C1327 0.959 . S
H1312 C1327 0.959 . S
H1313 C1327 0.961 . S
H1314 C1328 0.960 . S
H1315 C1328 0.961 . S
H1316 C1328 0.959 1_554 S
H1317 C1331 0.929 . S
H1318 C1332 0.931 . S
H1319 C1334 0.930 . S
C1320 H1308 0.930 . S
C1320 C1321 1.399 . S
C1320 C1325 1.399 . S
C1321 C1320 1.399 . S
C1321 C1322 1.376 . S
C1322 H1309 0.930 . S
C1322 C1321 1.376 . S
C1322 C1323 1.388 1_556 S
C1323 H1310 0.930 . S
C1323 C1322 1.388 1_554 S
C1323 C1324 1.390 . S
C1324 C1323 1.390 . S
C1324 C1325 1.394 1_554 S
C1324 C1330 1.465 . S
C1325 C1320 1.399 . S
C1325 C1324 1.394 1_556 S
C1325 C1326 1.516 . S
C1326 C1325 1.516 . S
C1326 C1327 1.502 . S
C1326 C1328 1.561 . S
C1326 C1329 1.526 1_556 S
C1327 H1311 0.959 . S
C1327 H1312 0.959 . S
C1327 H1313 0.961 . S
C1327 C1326 1.502 . S
C1328 H1314 0.960 . S
C1328 H1315 0.961 . S
C1328 H1316 0.959 1_556 S
C1328 C1326 1.561 . S
C1329 C1326 1.526 1_554 S
C1329 C1330 1.396 . S
C1329 C1334 1.390 . S
C1330 C1324 1.465 . S
C1330 C1329 1.396 . S
C1330 C1331 1.399 . S
C1331 H1317 0.929 . S
C1331 C1330 1.399 . S
C1331 C1332 1.385 . S
C1332 H1318 0.931 . S
C1332 C1331 1.385 . S
C1332 C1333 1.389 . S
C1333 C1332 1.389 . S
C1333 C1334 1.387 . S
C1334 H1319 0.930 . S
C1334 C1329 1.390 . S
C1334 C1333 1.387 . S
H1335 C1347 0.930 . S
H1336 C1349 0.930 . S
H1337 C1350 0.930 . S
H1338 C1354 0.959 . S
H1339 C1354 0.959 . S
H1340 C1354 0.961 . S
H1341 C1355 0.960 . S
H1342 C1355 0.961 . S
H1343 C1355 0.959 . S
H1344 C1358 0.929 . S
H1345 C1359 0.931 . S
H1346 C1361 0.930 . S
C1347 H1335 0.930 . S
C1347 C1348 1.399 . S
C1347 C1352 1.399 . S
C1348 C1347 1.399 . S
C1348 C1349 1.376 . S
C1349 H1336 0.930 . S
C1349 C1348 1.376 . S
C1349 C1350 1.388 . S
C1350 H1337 0.930 . S
C1350 C1349 1.388 . S
C1350 C1351 1.390 . S
C1351 C1350 1.390 . S
C1351 C1352 1.394 . S
C1351 C1357 1.465 . S
C1352 C1347 1.399 . S
C1352 C1351 1.394 . S
C1352 C1353 1.516 . S
C1353 C1352 1.516 . S
C1353 C1354 1.502 . S
C1353 C1355 1.561 . S
C1353 C1356 1.526 . S
C1354 H1338 0.959 . S
C1354 H1339 0.959 . S
C1354 H1340 0.961 . S
C1354 C1353 1.502 . S
C1355 H1341 0.960 . S
C1355 H1342 0.961 . S
C1355 H1343 0.959 . S
C1355 C1353 1.561 . S
C1356 C1353 1.526 . S
C1356 C1357 1.396 . S
C1356 C1361 1.390 . S
C1357 C1351 1.465 . S
C1357 C1356 1.396 . S
C1357 C1358 1.399 . S
C1358 H1344 0.929 . S
C1358 C1357 1.399 . S
C1358 C1359 1.385 . S
C1359 H1345 0.931 . S
C1359 C1358 1.385 . S
C1359 C1360 1.389 . S
C1360 C1359 1.389 . S
C1360 C1361 1.387 . S
C1361 H1346 0.930 . S
C1361 C1356 1.390 . S
C1361 C1360 1.387 . S
H1362 C1374 0.930 . S
H1363 C1376 0.930 . S
H1364 C1377 0.930 . S
H1365 C1381 0.959 . S
H1366 C1381 0.959 . S
H1367 C1381 0.961 . S
H1368 C1382 0.960 . S
H1369 C1382 0.961 . S
H1370 C1382 0.959 . S
H1371 C1385 0.929 . S
H1372 C1386 0.931 . S
H1373 C1388 0.930 . S
C1374 H1362 0.930 . S
C1374 C1375 1.399 . S
C1374 C1379 1.399 . S
C1375 C1374 1.399 . S
C1375 C1376 1.376 . S
C1376 H1363 0.930 . S
C1376 C1375 1.376 . S
C1376 C1377 1.388 . S
C1377 H1364 0.930 . S
C1377 C1376 1.388 . S
C1377 C1378 1.390 . S
C1378 C1377 1.390 . S
C1378 C1379 1.394 . S
C1378 C1384 1.465 1_556 S
C1379 C1374 1.399 . S
C1379 C1378 1.394 . S
C1379 C1380 1.500 1_556 S
C1380 C1379 1.500 1_554 S
C1380 C1381 1.475 1_554 S
C1380 C1382 1.592 . S
C1380 C1383 1.543 . S
C1381 H1365 0.959 . S
C1381 H1366 0.959 . S
C1381 H1367 0.961 . S
C1381 C1380 1.475 1_556 S
C1382 H1368 0.960 . S
C1382 H1369 0.961 . S
C1382 H1370 0.959 . S
C1382 C1380 1.592 . S
C1383 C1380 1.543 . S
C1383 C1384 1.396 . S
C1383 C1388 1.390 . S
C1384 C1378 1.465 1_554 S
C1384 C1383 1.396 . S
C1384 C1385 1.399 . S
C1385 H1371 0.929 . S
C1385 C1384 1.399 . S
C1385 C1386 1.385 . S
C1386 H1372 0.931 . S
C1386 C1385 1.385 . S
C1386 C1387 1.389 . S
C1387 C1386 1.389 . S
C1387 C1388 1.387 . S
C1388 H1373 0.930 . S
C1388 C1383 1.390 . S
C1388 C1387 1.387 . S
H1389 C1401 0.930 . S
H1390 C1403 0.930 . S
H1391 C1404 0.930 . S
H1392 C1408 0.959 . S
H1393 C1408 0.959 . S
H1394 C1408 0.961 . S
H1395 C1409 0.960 . S
H1396 C1409 0.961 . S
H1397 C1409 0.959 . S
H1398 C1412 0.929 . S
H1399 C1413 0.931 . S
H1400 C1415 0.930 . S
C1401 H1389 0.930 . S
C1401 C1402 1.399 . S
C1401 C1406 1.399 . S
C1402 C1401 1.399 . S
C1402 C1403 1.376 . S
C1403 H1390 0.930 . S
C1403 C1402 1.376 . S
C1403 C1404 1.388 . S
C1404 H1391 0.930 . S
C1404 C1403 1.388 . S
C1404 C1405 1.390 . S
C1405 C1404 1.390 . S
C1405 C1406 1.394 . S
C1405 C1411 1.465 . S
C1406 C1401 1.399 . S
C1406 C1405 1.394 . S
C1406 C1407 1.516 . S
C1407 C1406 1.516 . S
C1407 C1408 1.502 . S
C1407 C1409 1.561 . S
C1407 C1410 1.526 . S
C1408 H1392 0.959 . S
C1408 H1393 0.959 . S
C1408 H1394 0.961 . S
C1408 C1407 1.502 . S
C1409 H1395 0.960 . S
C1409 H1396 0.961 . S
C1409 H1397 0.959 . S
C1409 C1407 1.561 . S
C1410 C1407 1.526 . S
C1410 C1411 1.396 . S
C1410 C1415 1.390 . S
C1411 C1405 1.465 . S
C1411 C1410 1.396 . S
C1411 C1412 1.399 . S
C1412 H1398 0.929 . S
C1412 C1411 1.399 . S
C1412 C1413 1.385 . S
C1413 H1399 0.931 . S
C1413 C1412 1.385 . S
C1413 C1414 1.389 . S
C1414 C1413 1.389 . S
C1414 C1415 1.387 . S
C1415 H1400 0.930 . S
C1415 C1410 1.390 . S
C1415 C1414 1.387 . S
H1416 C1428 0.930 . S
H1417 C1430 0.930 . S
H1418 C1431 0.930 . S
H1419 C1435 0.959 . S
H1420 C1435 0.959 . S
H1421 C1435 0.961 . S
H1422 C1436 0.960 . S
H1423 C1436 0.961 . S
H1424 C1436 0.959 . S
H1425 C1439 0.929 . S
H1426 C1440 0.931 . S
H1427 C1442 0.930 . S
C1428 H1416 0.930 . S
C1428 C1429 1.399 . S
C1428 C1433 1.399 . S
C1429 C1428 1.399 . S
C1429 C1430 1.376 . S
C1430 H1417 0.930 . S
C1430 C1429 1.376 . S
C1430 C1431 1.388 . S
C1431 H1418 0.930 . S
C1431 C1430 1.388 . S
C1431 C1432 1.390 . S
C1432 C1431 1.390 . S
C1432 C1433 1.394 . S
C1432 C1438 1.465 . S
C1433 C1428 1.399 . S
C1433 C1432 1.394 . S
C1433 C1434 1.516 1_556 S
C1434 C1433 1.516 1_554 S
C1434 C1435 1.502 . S
C1434 C1436 1.561 . S
C1434 C1437 1.526 . S
C1435 H1419 0.959 . S
C1435 H1420 0.959 . S
C1435 H1421 0.961 . S
C1435 C1434 1.502 . S
C1436 H1422 0.960 . S
C1436 H1423 0.961 . S
C1436 H1424 0.959 . S
C1436 C1434 1.561 . S
C1437 C1434 1.526 . S
C1437 C1438 1.396 1_554 S
C1437 C1442 1.390 . S
C1438 C1432 1.465 . S
C1438 C1437 1.396 1_556 S
C1438 C1439 1.399 . S
C1439 H1425 0.929 . S
C1439 C1438 1.399 . S
C1439 C1440 1.385 1_556 S
C1440 H1426 0.931 . S
C1440 C1439 1.385 1_554 S
C1440 C1441 1.389 . S
C1441 C1440 1.389 . S
C1441 C1442 1.387 . S
C1442 H1427 0.930 . S
C1442 C1437 1.390 . S
C1442 C1441 1.387 . S
H1443 C1455 0.930 . S
H1444 C1457 0.930 . S
H1445 C1458 0.930 . S
H1446 C1462 0.959 . S
H1447 C1462 0.959 . S
H1448 C1462 0.961 . S
H1449 C1463 0.960 . S
H1450 C1463 0.961 . S
H1451 C1463 0.959 . S
H1452 C1466 0.929 . S
H1453 C1467 0.931 . S
H1454 C1469 0.930 . S
C1455 H1443 0.930 . S
C1455 C1456 1.399 . S
C1455 C1460 1.399 . S
C1456 C1455 1.399 . S
C1456 C1457 1.376 . S
C1457 H1444 0.930 . S
C1457 C1456 1.376 . S
C1457 C1458 1.388 . S
C1458 H1445 0.930 . S
C1458 C1457 1.388 . S
C1458 C1459 1.390 . S
C1459 C1458 1.390 . S
C1459 C1460 1.394 . S
C1459 C1465 1.465 . S
C1460 C1455 1.399 . S
C1460 C1459 1.394 . S
C1460 C1461 1.516 . S
C1461 C1460 1.516 . S
C1461 C1462 1.502 . S
C1461 C1463 1.561 . S
C1461 C1464 1.526 . S
C1462 H1446 0.959 . S
C1462 H1447 0.959 . S
C1462 H1448 0.961 . S
C1462 C1461 1.502 . S
C1463 H1449 0.960 . S
C1463 H1450 0.961 . S
C1463 H1451 0.959 . S
C1463 C1461 1.561 . S
C1464 C1461 1.526 . S
C1464 C1465 1.396 . S
C1464 C1469 1.390 . S
C1465 C1459 1.465 . S
C1465 C1464 1.396 . S
C1465 C1466 1.399 . S
C1466 H1452 0.929 . S
C1466 C1465 1.399 . S
C1466 C1467 1.385 . S
C1467 H1453 0.931 . S
C1467 C1466 1.385 . S
C1467 C1468 1.389 . S
C1468 C1467 1.389 . S
C1468 C1469 1.387 . S
C1469 H1454 0.930 . S
C1469 C1464 1.390 . S
C1469 C1468 1.387 . S
H1470 C1482 0.930 . S
H1471 C1484 0.930 . S
H1472 C1485 0.930 . S
H1473 C1489 0.959 . S
H1474 C1489 0.959 . S
H1475 C1489 0.961 . S
H1476 C1490 0.960 . S
H1477 C1490 0.961 . S
H1478 C1490 0.959 . S
H1479 C1493 0.929 . S
H1480 C1494 0.931 . S
H1481 C1496 0.930 . S
C1482 H1470 0.930 . S
C1482 C1483 1.399 . S
C1482 C1487 1.399 . S
C1483 C1482 1.399 . S
C1483 C1484 1.376 . S
C1484 H1471 0.930 . S
C1484 C1483 1.376 . S
C1484 C1485 1.388 . S
C1485 H1472 0.930 . S
C1485 C1484 1.388 . S
C1485 C1486 1.390 . S
C1486 C1485 1.390 . S
C1486 C1487 1.394 . S
C1486 C1492 1.465 . S
C1487 C1482 1.399 . S
C1487 C1486 1.394 . S
C1487 C1488 1.516 1_554 S
C1488 C1487 1.516 1_556 S
C1488 C1489 1.502 . S
C1488 C1490 1.561 . S
C1488 C1491 1.526 . S
C1489 H1473 0.959 . S
C1489 H1474 0.959 . S
C1489 H1475 0.961 . S
C1489 C1488 1.502 . S
C1490 H1476 0.960 . S
C1490 H1477 0.961 . S
C1490 H1478 0.959 . S
C1490 C1488 1.561 . S
C1491 C1488 1.526 . S
C1491 C1492 1.396 1_556 S
C1491 C1496 1.390 . S
C1492 C1486 1.465 . S
C1492 C1491 1.396 1_554 S
C1492 C1493 1.399 . S
C1493 H1479 0.929 . S
C1493 C1492 1.399 . S
C1493 C1494 1.385 1_554 S
C1494 H1480 0.931 . S
C1494 C1493 1.385 1_556 S
C1494 C1495 1.389 . S
C1495 C1494 1.389 . S
C1495 C1496 1.387 . S
C1496 H1481 0.930 . S
C1496 C1491 1.390 . S
C1496 C1495 1.387 . S
H1497 C1509 0.930 . S
H1498 C1511 0.930 . S
H1499 C1512 0.930 . S
H1500 C1516 0.959 . S
H1501 C1516 0.959 . S
H1502 C1516 0.961 . S
H1503 C1517 0.960 . S
H1504 C1517 0.961 . S
H1505 C1517 0.959 . S
H1506 C1520 0.929 . S
H1507 C1521 0.931 . S
H1508 C1523 0.930 . S
C1509 H1497 0.930 . S
C1509 C1510 1.399 . S
C1509 C1514 1.399 . S
C1510 C1509 1.399 . S
C1510 C1511 1.376 . S
C1511 H1498 0.930 . S
C1511 C1510 1.376 . S
C1511 C1512 1.388 . S
C1512 H1499 0.930 . S
C1512 C1511 1.388 . S
C1512 C1513 1.390 . S
C1513 C1512 1.390 . S
C1513 C1514 1.394 . S
C1513 C1519 1.465 . S
C1514 C1509 1.399 . S
C1514 C1513 1.394 . S
C1514 C1515 1.516 . S
C1515 C1514 1.516 . S
C1515 C1516 1.502 . S
C1515 C1517 1.561 . S
C1515 C1518 1.526 . S
C1516 H1500 0.959 . S
C1516 H1501 0.959 . S
C1516 H1502 0.961 . S
C1516 C1515 1.502 . S
C1517 H1503 0.960 . S
C1517 H1504 0.961 . S
C1517 H1505 0.959 . S
C1517 C1515 1.561 . S
C1518 C1515 1.526 . S
C1518 C1519 1.396 . S
C1518 C1523 1.390 . S
C1519 C1513 1.465 . S
C1519 C1518 1.396 . S
C1519 C1520 1.399 . S
C1520 H1506 0.929 . S
C1520 C1519 1.399 . S
C1520 C1521 1.385 . S
C1521 H1507 0.931 . S
C1521 C1520 1.385 . S
C1521 C1522 1.389 . S
C1522 C1521 1.389 . S
C1522 C1523 1.387 . S
C1523 H1508 0.930 . S
C1523 C1518 1.390 . S
C1523 C1522 1.387 . S
H1524 C1536 0.930 . S
H1525 C1538 0.930 . S
H1526 C1539 0.926 1_556 S
H1527 C1543 0.959 . S
H1528 C1543 0.959 . S
H1529 C1543 0.961 . S
H1530 C1544 0.960 . S
H1531 C1544 0.961 . S
H1532 C1544 0.959 . S
H1533 C1547 0.929 . S
H1534 C1548 0.931 . S
H1535 C1550 0.930 . S
C1536 H1524 0.930 . S
C1536 C1537 1.399 . S
C1536 C1541 1.399 . S
C1537 C1536 1.399 . S
C1537 C1538 1.376 . S
C1538 H1525 0.930 . S
C1538 C1537 1.376 . S
C1538 C1539 1.388 . S
C1539 H1526 0.926 1_554 S
C1539 C1538 1.388 . S
C1539 C1540 1.390 . S
C1540 C1539 1.390 . S
C1540 C1541 1.394 . S
C1540 C1546 1.465 1_554 S
C1541 C1536 1.399 . S
C1541 C1540 1.394 . S
C1541 C1542 1.516 . S
C1542 C1541 1.516 . S
C1542 C1543 1.502 . S
C1542 C1544 1.561 1_554 S
C1542 C1545 1.526 1_554 S
C1543 H1527 0.959 . S
C1543 H1528 0.959 . S
C1543 H1529 0.961 . S
C1543 C1542 1.502 . S
C1544 H1530 0.960 . S
C1544 H1531 0.961 . S
C1544 H1532 0.959 . S
C1544 C1542 1.561 1_556 S
C1545 C1542 1.526 1_556 S
C1545 C1546 1.396 . S
C1545 C1550 1.390 . S
C1546 C1540 1.465 1_556 S
C1546 C1545 1.396 . S
C1546 C1547 1.399 . S
C1547 H1533 0.929 . S
C1547 C1546 1.399 . S
C1547 C1548 1.385 . S
C1548 H1534 0.931 . S
C1548 C1547 1.385 . S
C1548 C1549 1.389 . S
C1549 C1548 1.389 . S
C1549 C1550 1.387 . S
C1550 H1535 0.930 . S
C1550 C1545 1.390 . S
C1550 C1549 1.387 . S
H1551 C1563 0.930 . S
H1552 C1565 0.930 . S
H1553 C1566 0.930 . S
H1554 C1570 0.959 . S
H1555 C1570 0.959 . S
H1556 C1570 0.961 . S
H1557 C1571 0.960 . S
H1558 C1571 0.961 . S
H1559 C1571 0.959 . S
H1560 C1574 0.929 . S
H1561 C1575 0.931 . S
H1562 C1577 0.930 . S
C1563 H1551 0.930 . S
C1563 C1564 1.399 . S
C1563 C1568 1.399 . S
C1564 C1563 1.399 . S
C1564 C1565 1.376 . S
C1565 H1552 0.930 . S
C1565 C1564 1.376 . S
C1565 C1566 1.388 . S
C1566 H1553 0.930 . S
C1566 C1565 1.388 . S
C1566 C1567 1.390 . S
C1567 C1566 1.390 . S
C1567 C1568 1.394 . S
C1567 C1573 1.465 . S
C1568 C1563 1.399 . S
C1568 C1567 1.394 . S
C1568 C1569 1.516 . S
C1569 C1568 1.516 . S
C1569 C1570 1.502 . S
C1569 C1571 1.561 . S
C1569 C1572 1.526 . S
C1570 H1554 0.959 . S
C1570 H1555 0.959 . S
C1570 H1556 0.961 . S
C1570 C1569 1.502 . S
C1571 H1557 0.960 . S
C1571 H1558 0.961 . S
C1571 H1559 0.959 . S
C1571 C1569 1.561 . S
C1572 C1569 1.526 . S
C1572 C1573 1.396 . S
C1572 C1577 1.390 . S
C1573 C1567 1.465 . S
C1573 C1572 1.396 . S
C1573 C1574 1.399 . S
C1574 H1560 0.929 . S
C1574 C1573 1.399 . S
C1574 C1575 1.385 . S
C1575 H1561 0.931 . S
C1575 C1574 1.385 . S
C1575 C1576 1.389 . S
C1576 C1575 1.389 . S
C1576 C1577 1.387 . S
C1577 H1562 0.930 . S
C1577 C1572 1.390 . S
C1577 C1576 1.387 . S
H1578 C1590 0.930 . S
H1579 C1592 0.930 . S
H1580 C1593 0.930 . S
H1581 C1597 0.959 . S
H1582 C1597 0.959 . S
H1583 C1597 0.961 . S
H1584 C1598 0.960 . S
H1585 C1598 0.961 . S
H1586 C1598 0.959 . S
H1587 C1601 0.929 . S
H1588 C1602 0.931 . S
H1589 C1604 0.930 . S
C1590 H1578 0.930 . S
C1590 C1591 1.399 . S
C1590 C1595 1.399 . S
C1591 C1590 1.399 . S
C1591 C1592 1.376 . S
C1592 H1579 0.930 . S
C1592 C1591 1.376 . S
C1592 C1593 1.388 . S
C1593 H1580 0.930 . S
C1593 C1592 1.388 . S
C1593 C1594 1.390 . S
C1594 C1593 1.390 . S
C1594 C1595 1.394 . S
C1594 C1600 1.465 . S
C1595 C1590 1.399 . S
C1595 C1594 1.394 . S
C1595 C1596 1.516 1_556 S
C1596 C1595 1.516 1_554 S
C1596 C1597 1.502 . S
C1596 C1598 1.561 . S
C1596 C1599 1.526 . S
C1597 H1581 0.959 . S
C1597 H1582 0.959 . S
C1597 H1583 0.961 . S
C1597 C1596 1.502 . S
C1598 H1584 0.960 . S
C1598 H1585 0.961 . S
C1598 H1586 0.959 . S
C1598 C1596 1.561 . S
C1599 C1596 1.526 . S
C1599 C1600 1.396 1_554 S
C1599 C1604 1.390 . S
C1600 C1594 1.465 . S
C1600 C1599 1.396 1_556 S
C1600 C1601 1.399 . S
C1601 H1587 0.929 . S
C1601 C1600 1.399 . S
C1601 C1602 1.385 1_556 S
C1602 H1588 0.931 . S
C1602 C1601 1.385 1_554 S
C1602 C1603 1.389 . S
C1603 C1602 1.389 . S
C1603 C1604 1.387 . S
C1604 H1589 0.930 . S
C1604 C1599 1.390 . S
C1604 C1603 1.387 . S
H1605 C1617 0.930 . S
H1606 C1619 0.930 . S
H1607 C1620 0.930 . S
H1608 C1624 0.959 . S
H1609 C1624 0.959 . S
H1610 C1624 0.961 . S
H1611 C1625 0.960 . S
H1612 C1625 0.961 . S
H1613 C1625 0.959 . S
H1614 C1628 0.929 . S
H1615 C1629 0.931 . S
H1616 C1631 0.930 . S
C1617 H1605 0.930 . S
C1617 C1618 1.399 . S
C1617 C1622 1.399 . S
C1618 C1617 1.399 . S
C1618 C1619 1.376 . S
C1619 H1606 0.930 . S
C1619 C1618 1.376 . S
C1619 C1620 1.388 . S
C1620 H1607 0.930 . S
C1620 C1619 1.388 . S
C1620 C1621 1.390 . S
C1621 C1620 1.390 . S
C1621 C1622 1.394 . S
C1621 C1627 1.465 . S
C1622 C1617 1.399 . S
C1622 C1621 1.394 . S
C1622 C1623 1.516 . S
C1623 C1622 1.516 . S
C1623 C1624 1.502 . S
C1623 C1625 1.561 . S
C1623 C1626 1.526 . S
C1624 H1608 0.959 . S
C1624 H1609 0.959 . S
C1624 H1610 0.961 . S
C1624 C1623 1.502 . S
C1625 H1611 0.960 . S
C1625 H1612 0.961 . S
C1625 H1613 0.959 . S
C1625 C1623 1.561 . S
C1626 C1623 1.526 . S
C1626 C1627 1.396 . S
C1626 C1631 1.390 . S
C1627 C1621 1.465 . S
C1627 C1626 1.396 . S
C1627 C1628 1.399 . S
C1628 H1614 0.929 . S
C1628 C1627 1.399 . S
C1628 C1629 1.385 . S
C1629 H1615 0.931 . S
C1629 C1628 1.385 . S
C1629 C1630 1.389 . S
C1630 C1629 1.389 . S
C1630 C1631 1.387 . S
C1631 H1616 0.930 . S
C1631 C1626 1.390 . S
C1631 C1630 1.387 . S
C349 C7 1.524 . S
C361 C217 1.524 . S
C376 C21 1.499 . S
C388 C231 1.509 . S
C403 C245 1.522 . S
C415 C35 1.516 . S
C430 C175 1.500 . S
C442 C49 1.489 . S
C457 C189 1.521 . S
C469 C63 1.524 . S
C484 C203 1.458 . S
C496 C77 1.465 . S
C511 C301 1.515 . S
C523 C91 1.521 . S
C538 C105 1.525 . S
C550 C315 1.523 . S
C565 C329 1.458 . S
C577 C119 1.466 . S
C592 C133 1.469 . S
C604 C259 1.462 . S
C619 C273 1.490 . S
C631 C147 1.480 . S
C646 C161 1.501 . S
C658 C287 1.490 . S
C673 C146 1.432 . S
C685 C6 1.485 . S
C700 C160 1.477 . S
C712 C20 1.424 . S
C727 C34 1.469 . S
C739 C90 1.476 . S
C754 C48 1.425 . S
C766 C104 1.455 . S
C781 C118 1.424 . S
C793 C62 1.478 . S
C808 C76 1.466 . S
C820 C132 1.478 . S
C835 C314 1.442 . S
C847 C174 1.481 . S
C862 C188 1.464 . S
C874 C328 1.432 . S
C889 C202 1.479 . S
C901 C258 1.424 . S
C916 C272 1.464 . S
C928 C216 1.432 . S
C943 C230 1.481 . S
C955 C286 1.423 . S
C970 C244 1.427 . S
C982 C300 1.470 . S
C997 C9 1.472 . S
C1009 C261 1.472 . S
C1024 C275 1.439 . S
C1036 C23 1.431 . S
C1051 C37 1.471 . S
C1063 C289 1.473 . S
C1078 C51 1.413 . S
C1090 C303 1.416 . S
C1105 C317 1.441 . S
C1117 C65 1.433 . S
C1132 C79 1.469 . S
C1144 C331 1.472 . S
C1159 C93 1.473 . S
C1171 C177 1.470 . S
C1186 C107 1.472 . S
C1198 C191 1.472 . S
C1213 C205 1.439 . S
C1225 C121 1.431 . S
C1240 C219 1.431 . S
C1252 C135 1.441 . S
C1267 C149 1.418 . S
C1279 C233 1.415 . S
C1294 C247 1.448 . S
C1306 C163 1.457 . S
C1321 C92 1.516 . S
C1333 C8 1.540 . S
C1348 C22 1.519 . S
C1360 C106 1.545 . S
C1375 C120 1.520 . S
C1387 C36 1.530 . S
C1402 C134 1.527 . S
C1414 C50 1.544 . S
C1429 C148 1.536 . S
C1441 C64 1.517 . S
C1456 C78 1.545 . S
C1468 C162 1.526 . S
C1483 C260 1.542 . S
C1495 C176 1.524 . S
C1510 C190 1.524 . S
C1522 C274 1.541 . S
C1537 C288 1.525 . S
C1549 C204 1.540 . S
C1564 C302 1.521 . S
C1576 C218 1.537 . S
C1591 C232 1.543 . S
C1603 C316 1.522 . S
C1618 C246 1.545 . S
C1630 C330 1.517 . S
