# Generated by pormake.
# Topology zfe, (5)-cn, num edge types: 1
# Building blocks:
#     Node 0, Type 0, BuildingBlock: XOMCOT_clean_sbu_0, # of connection points: 5
#     Node 1, Type 0, BuildingBlock: XOMCOT_clean_sbu_0, # of connection points: 5
#     Node 2, Type 0, BuildingBlock: XOMCOT_clean_sbu_0, # of connection points: 5
#     Node 3, Type 0, BuildingBlock: XOMCOT_clean_sbu_0, # of connection points: 5
#     Node 4, Type 0, BuildingBlock: XOMCOT_clean_sbu_0, # of connection points: 5
#     Node 5, Type 0, BuildingBlock: XOMCOT_clean_sbu_0, # of connection points: 5
#     Node 6, Type 0, BuildingBlock: XOMCOT_clean_sbu_0, # of connection points: 5
#     Node 7, Type 0, BuildingBlock: XOMCOT_clean_sbu_0, # of connection points: 5
#     Node 8, Type 0, BuildingBlock: XOMCOT_clean_sbu_0, # of connection points: 5
#     Node 9, Type 0, BuildingBlock: XOMCOT_clean_sbu_0, # of connection points: 5
#     Node 10, Type 0, BuildingBlock: XOMCOT_clean_sbu_0, # of connection points: 5
#     Node 11, Type 0, BuildingBlock: XOMCOT_clean_sbu_0, # of connection points: 5
#     Node 12, Type 0, BuildingBlock: XOMCOT_clean_sbu_0, # of connection points: 5
#     Node 13, Type 0, BuildingBlock: XOMCOT_clean_sbu_0, # of connection points: 5
#     Node 14, Type 0, BuildingBlock: XOMCOT_clean_sbu_0, # of connection points: 5
#     Node 15, Type 0, BuildingBlock: XOMCOT_clean_sbu_0, # of connection points: 5
#     Edge 16, Type (0, 0), BuildingBlock: CIFDUS_clean_linker_0, # of connection points: 2
#     Edge 17, Type (0, 0), BuildingBlock: CIFDUS_clean_linker_0, # of connection points: 2
#     Edge 18, Type (0, 0), BuildingBlock: CIFDUS_clean_linker_0, # of connection points: 2
#     Edge 19, Type (0, 0), BuildingBlock: CIFDUS_clean_linker_0, # of connection points: 2
#     Edge 20, Type (0, 0), BuildingBlock: CIFDUS_clean_linker_0, # of connection points: 2
#     Edge 21, Type (0, 0), BuildingBlock: CIFDUS_clean_linker_0, # of connection points: 2
#     Edge 22, Type (0, 0), BuildingBlock: CIFDUS_clean_linker_0, # of connection points: 2
#     Edge 23, Type (0, 0), BuildingBlock: CIFDUS_clean_linker_0, # of connection points: 2
#     Edge 24, Type (0, 0), BuildingBlock: CIFDUS_clean_linker_0, # of connection points: 2
#     Edge 25, Type (0, 0), BuildingBlock: CIFDUS_clean_linker_0, # of connection points: 2
#     Edge 26, Type (0, 0), BuildingBlock: CIFDUS_clean_linker_0, # of connection points: 2
#     Edge 27, Type (0, 0), BuildingBlock: CIFDUS_clean_linker_0, # of connection points: 2
#     Edge 28, Type (0, 0), BuildingBlock: CIFDUS_clean_linker_0, # of connection points: 2
#     Edge 29, Type (0, 0), BuildingBlock: CIFDUS_clean_linker_0, # of connection points: 2
#     Edge 30, Type (0, 0), BuildingBlock: CIFDUS_clean_linker_0, # of connection points: 2
#     Edge 31, Type (0, 0), BuildingBlock: CIFDUS_clean_linker_0, # of connection points: 2
#     Edge 32, Type (0, 0), BuildingBlock: CIFDUS_clean_linker_0, # of connection points: 2
#     Edge 33, Type (0, 0), BuildingBlock: CIFDUS_clean_linker_0, # of connection points: 2
#     Edge 34, Type (0, 0), BuildingBlock: CIFDUS_clean_linker_0, # of connection points: 2
#     Edge 35, Type (0, 0), BuildingBlock: CIFDUS_clean_linker_0, # of connection points: 2
#     Edge 36, Type (0, 0), BuildingBlock: CIFDUS_clean_linker_0, # of connection points: 2
#     Edge 37, Type (0, 0), BuildingBlock: CIFDUS_clean_linker_0, # of connection points: 2
#     Edge 38, Type (0, 0), BuildingBlock: CIFDUS_clean_linker_0, # of connection points: 2
#     Edge 39, Type (0, 0), BuildingBlock: CIFDUS_clean_linker_0, # of connection points: 2
#     Edge 40, Type (0, 0), BuildingBlock: CIFDUS_clean_linker_0, # of connection points: 2
#     Edge 41, Type (0, 0), BuildingBlock: CIFDUS_clean_linker_0, # of connection points: 2
#     Edge 42, Type (0, 0), BuildingBlock: CIFDUS_clean_linker_0, # of connection points: 2
#     Edge 43, Type (0, 0), BuildingBlock: CIFDUS_clean_linker_0, # of connection points: 2
#     Edge 44, Type (0, 0), BuildingBlock: CIFDUS_clean_linker_0, # of connection points: 2
#     Edge 45, Type (0, 0), BuildingBlock: CIFDUS_clean_linker_0, # of connection points: 2
#     Edge 46, Type (0, 0), BuildingBlock: CIFDUS_clean_linker_0, # of connection points: 2
#     Edge 47, Type (0, 0), BuildingBlock: CIFDUS_clean_linker_0, # of connection points: 2
#     Edge 48, Type (0, 0), BuildingBlock: CIFDUS_clean_linker_0, # of connection points: 2
#     Edge 49, Type (0, 0), BuildingBlock: CIFDUS_clean_linker_0, # of connection points: 2
#     Edge 50, Type (0, 0), BuildingBlock: CIFDUS_clean_linker_0, # of connection points: 2
#     Edge 51, Type (0, 0), BuildingBlock: CIFDUS_clean_linker_0, # of connection points: 2
#     Edge 52, Type (0, 0), BuildingBlock: CIFDUS_clean_linker_0, # of connection points: 2
#     Edge 53, Type (0, 0), BuildingBlock: CIFDUS_clean_linker_0, # of connection points: 2
#     Edge 54, Type (0, 0), BuildingBlock: CIFDUS_clean_linker_0, # of connection points: 2
#     Edge 55, Type (0, 0), BuildingBlock: CIFDUS_clean_linker_0, # of connection points: 2
# Relax obj value: 0.207
# Max RMSD: 0.177
# Mean RMSD: 0.177
data_MOF--net-zfe--node1-XOMCOT_clean_sbu_0--edge1-CIFDUS_clean_linker_0
_symmetry_space_group_name_H-M    P1
_symmetry_Int_Tables_number       1
_symmetry_cell_setting            triclinic
loop_
_symmetry_equiv_pos_as_xyz
'x, y, z'
_cell_length_a     49.258802
_cell_length_b     49.217903
_cell_length_c     24.283664
_cell_angle_alpha  90.217791
_cell_angle_beta   89.93892
_cell_angle_gamma 89.898052
loop_
_atom_site_label
_atom_site_type_symbol
_atom_site_fract_x
_atom_site_fract_y
_atom_site_fract_z
_atom_type_partial_charge
Co0 Co 0.04086 0.23274 0.05633 0.0
C1 C 0.08682 0.27311 0.05423 0.0
C2 C 0.05477 0.28292 0.99815 0.0
C3 C 0.07441 0.30262 0.99415 0.0
N4 N 0.0629 0.26376 0.03426 0.0
N5 N 0.09449 0.29643 0.02943 0.0
H6 H 0.09804 0.26393 0.08738 0.0
H7 H 0.0355 0.28293 0.97689 0.0
C8 C 0.03878 0.2305 0.93307 0.0
O9 O 0.06505 0.2351 0.93228 0.0
N10 N 0.01799 0.20292 0.07833 0.0
C11 C 0.02443 0.18196 0.11137 0.0
C12 C 1.0016 0.1662 0.11859 0.0
C13 C 0.99141 0.20002 0.06669 0.0
N14 N 0.9809 0.17769 0.09066 0.0
C15 C 0.09233 0.20613 0.07441 0.0
C16 C 0.0832 0.16338 1.00278 0.0
C17 C 0.10611 0.16252 0.0368 0.0
C18 C 0.1109 0.18457 0.07215 0.0
C19 C 0.06524 0.18526 1.00624 0.0
N20 N 0.06995 0.20661 0.04123 0.0
H21 H 0.09493 0.2212 0.10614 0.0
H22 H 0.04647 0.18379 0.98364 0.0
H23 H 0.04418 0.17858 0.12951 0.0
H24 H 0.98003 0.21402 0.04131 0.0
O25 O 0.0484 0.2402 0.13302 0.0
O26 O 0.01396 0.25749 0.08603 0.0
O27 O 0.02604 0.22906 0.97889 0.0
C28 C 0.02637 0.25482 0.13307 0.0
H29 H 0.07345 0.32078 0.96919 0.0
H30 H 1.00017 0.14809 0.14355 0.0
H31 H 0.07846 0.14662 0.9754 0.0
H32 H 0.12781 0.18431 0.10062 0.0
Co33 Co 0.7674 0.0415 0.11525 0.0
C34 C 0.73052 0.08984 0.09746 0.0
C35 C 0.70966 0.05166 0.09758 0.0
C36 C 0.69088 0.07194 0.09007 0.0
N37 N 0.73457 0.06274 0.10268 0.0
N38 N 0.70397 0.09592 0.08995 0.0
H39 H 0.7464 0.10489 0.09813 0.0
H40 H 0.70538 0.03013 0.09824 0.0
C41 C 0.75696 0.0365 0.99547 0.0
O42 O 0.75212 0.06274 0.99354 0.0
N43 N 0.79952 0.01977 0.12818 0.0
C44 C 0.82085 0.02708 0.15953 0.0
C45 C 0.84078 0.00765 0.15434 0.0
C46 C 0.80652 0.99578 0.10494 0.0
N47 N 0.83177 0.98803 0.12002 0.0
C48 C 0.79641 0.09187 0.12486 0.0
C49 C 0.83282 0.08006 0.04141 0.0
C50 C 0.83912 0.10074 0.07883 0.0
C51 C 0.82002 0.10752 0.11945 0.0
C52 C 0.80918 0.06499 0.04818 0.0
N53 N 0.79149 0.07042 0.09033 0.0
H54 H 0.78324 0.09558 0.15971 0.0
H55 H 0.80713 0.047 0.0232 0.0
H56 H 0.82212 0.04566 0.18332 0.0
H57 H 0.79388 0.98472 0.07616 0.0
O58 O 0.76567 0.05015 0.19277 0.0
O59 O 0.74624 0.01457 0.15244 0.0
O60 O 0.76409 0.02531 0.04029 0.0
C61 C 0.75139 0.028 0.19732 0.0
H62 H 0.66935 0.06917 0.08309 0.0
H63 H 0.86049 0.00799 0.17401 0.0
H64 H 0.84718 0.07407 1.00975 0.0
H65 H 0.82438 0.12315 0.14966 0.0
Co66 Co 0.96791 0.77883 0.07296 0.0
C67 C 0.9235 0.73634 0.07405 0.0
C68 C 0.95874 0.72489 0.02757 0.0
C69 C 0.94019 0.70418 0.02407 0.0
N70 N 0.94814 0.74544 0.05766 0.0
N71 N 0.9181 0.7114 0.05327 0.0
H72 H 0.90975 0.74716 0.10073 0.0
H73 H 0.97879 0.72496 1.00936 0.0
C74 C 0.96575 0.77541 0.95047 0.0
O75 O 0.93959 0.77109 0.95649 0.0
N76 N 0.98879 0.81112 0.08774 0.0
C77 C 0.98145 0.8326 0.11895 0.0
C78 C 1.00216 0.85136 0.11798 0.0
C79 C 0.01396 0.81671 0.06916 0.0
N80 N 0.02254 0.84125 0.08683 0.0
C81 C 0.9155 0.80269 0.09328 0.0
C82 C 0.92025 0.84382 0.01681 0.0
C83 C 0.89863 0.84465 0.05426 0.0
C84 C 0.89597 0.82332 0.09185 0.0
C85 C 0.93917 0.82267 0.01922 0.0
N86 N 0.93671 0.8022 0.05695 0.0
H87 H 0.91479 0.78864 0.1271 0.0
H88 H 0.95705 0.82421 0.99372 0.0
H89 H 0.96233 0.83456 0.14056 0.0
H90 H 0.02554 0.80329 0.04262 0.0
O91 O 0.962 0.77435 0.15114 0.0
O92 O 0.997 0.75737 0.10529 0.0
O93 O 0.9806 0.77939 0.99311 0.0
C94 C 0.98472 0.76096 0.15239 0.0
H95 H 0.94298 0.68496 1.00295 0.0
H96 H 1.00236 0.8708 0.13896 0.0
H97 H 0.92338 0.86018 0.98778 0.0
H98 H 0.88019 0.82372 0.12295 0.0
Co99 Co 0.23778 0.96418 0.05775 0.0
C100 C 0.28053 0.92088 0.066 0.0
C101 C 0.28926 0.95014 1.0033 0.0
C102 C 0.30896 0.93038 1.00164 0.0
N103 N 0.27103 0.94402 0.04285 0.0
N104 N 0.30343 0.91198 0.04089 0.0
H105 H 0.27103 0.91058 0.10007 0.0
H106 H 0.28857 0.9678 0.9772 0.0
C107 C 0.24361 0.99565 0.95243 0.0
O108 O 0.25312 0.01644 0.98036 0.0
N109 N 0.20463 0.98428 0.07244 0.0
C110 C 0.18415 0.97562 0.10476 0.0
C111 C 0.16404 0.99499 0.10547 0.0
C112 C 0.19692 0.00915 0.05486 0.0
N113 N 0.17208 0.01605 0.07412 0.0
C114 C 0.21361 0.91249 0.08247 0.0
C115 C 0.17588 0.91404 0.99838 0.0
C116 C 0.17263 0.89504 0.04052 0.0
C117 C 0.19245 0.89355 0.08166 0.0
C118 C 0.19738 0.93241 1.00035 0.0
N119 N 0.21554 0.93214 0.04301 0.0
H120 H 0.22679 0.91283 0.11784 0.0
H121 H 0.19751 0.94829 0.96998 0.0
H122 H 0.18386 0.95653 0.1266 0.0
H123 H 0.20891 0.02192 0.02837 0.0
O124 O 0.24285 0.95996 0.13632 0.0
O125 O 0.25874 0.99433 0.08773 0.0
O126 O 0.2365 0.97399 0.97716 0.0
C127 C 0.25561 0.983 0.13578 0.0
H128 H 0.32633 0.9298 0.97428 0.0
H129 H 0.1451 0.99386 0.12799 0.0
H130 H 0.16089 0.91585 0.96596 0.0
H131 H 0.19036 0.87943 0.1155 0.0
Co132 Co 0.04811 0.77538 0.54476 0.0
C133 C 0.09347 0.73395 0.54644 0.0
C134 C 0.05687 0.72049 0.5854 0.0
C135 C 0.07571 0.69992 0.58842 0.0
N136 N 0.06802 0.74204 0.5598 0.0
N137 N 0.09871 0.70838 0.56388 0.0
H138 H 0.10794 0.74605 0.52429 0.0
H139 H 0.03622 0.71975 0.60051 0.0
C140 C 0.04961 0.77129 0.66697 0.0
O141 O 0.07566 0.76622 0.66109 0.0
N142 N 0.02729 0.80769 0.52975 0.0
C143 C 0.03388 0.82752 0.4941 0.0
C144 C 0.01208 0.84486 0.48925 0.0
C145 C 1.0017 0.81312 0.54617 0.0
N146 N 0.9919 0.83573 0.52188 0.0
C147 C 0.09981 0.80006 0.52415 0.0
C148 C 0.09516 0.84031 0.60323 0.0
C149 C 0.11607 0.8421 0.56431 0.0
C150 C 0.1187 0.82119 0.52537 0.0
C151 C 0.07662 0.81889 0.60043 0.0
N152 N 0.07907 0.79883 0.56147 0.0
H153 H 0.10063 0.78609 0.48991 0.0
H154 H 0.05894 0.82002 0.62658 0.0
H155 H 0.05282 0.82872 0.47172 0.0
H156 H 0.99004 0.80004 0.57299 0.0
O157 O 0.05434 0.77082 0.4666 0.0
O158 O 0.01916 0.75399 0.5115 0.0
O159 O 0.03503 0.77595 0.62429 0.0
C160 C 0.03156 0.75766 0.46463 0.0
H161 H 0.07241 0.67996 0.6057 0.0
H162 H 0.01096 0.86255 0.46297 0.0
H163 H 0.09174 0.85652 0.63275 0.0
H164 H 0.13428 0.82198 0.49392 0.0
Co165 Co 0.23017 0.04965 0.52064 0.0
C166 C 0.27834 0.08696 0.51266 0.0
C167 C 0.25848 0.08832 0.59123 0.0
C168 C 0.27934 0.10667 0.59181 0.0
N169 N 0.25784 0.07571 0.54193 0.0
N170 N 0.29181 0.10606 0.54234 0.0
H171 H 0.2828 0.08195 0.47022 0.0
H172 H 0.24423 0.08505 0.62432 0.0
C173 C 0.24139 0.0209 0.62653 0.0
O174 O 0.25927 0.00574 0.60053 0.0
N175 N 0.2023 0.02397 0.50023 0.0
C176 C 0.18314 0.02813 0.46164 0.0
C177 C 0.16857 1.00458 0.45485 0.0
C178 C 0.1992 0.99797 0.51654 0.0
N179 N 0.17869 0.98565 0.48927 0.0
C180 C 0.20303 0.10032 0.50378 0.0
C181 C 0.15848 0.08849 0.56891 0.0
C182 C 0.15801 0.11198 0.53645 0.0
C183 C 0.18101 0.11829 0.50488 0.0
C184 C 0.18086 0.07116 0.56675 0.0
N185 N 0.20243 0.07685 0.53343 0.0
H186 H 0.22011 0.10458 0.47721 0.0
H187 H 0.18009 0.05233 0.58943 0.0
H188 H 0.18033 0.04689 0.43927 0.0
H189 H 0.2122 0.98798 0.54609 0.0
O190 O 0.23673 0.05619 0.44327 0.0
O191 O 0.25722 0.02434 0.49209 0.0
O192 O 0.2274 0.03831 0.60009 0.0
C193 C 0.25304 0.03545 0.4441 0.0
H194 H 0.28476 0.11949 0.62634 0.0
H195 H 0.15183 1.00157 0.42663 0.0
H196 H 0.14124 0.08301 0.59425 0.0
H197 H 0.18137 0.13613 0.47892 0.0
Co198 Co 0.95874 0.23847 0.51985 0.0
C199 C 0.91723 0.2821 0.51938 0.0
C200 C 0.9477 0.28879 0.58116 0.0
C201 C 0.92868 0.30921 0.58509 0.0
N202 N 0.9404 0.27172 0.54029 0.0
N203 N 0.90959 0.30499 0.54628 0.0
H204 H 0.90602 0.27293 0.48582 0.0
H205 H 0.96562 0.28665 0.60647 0.0
C206 C 0.97893 0.21612 0.62899 0.0
O207 O 0.97158 0.19131 0.61557 0.0
N208 N 0.97765 0.20527 0.49936 0.0
C209 C 0.96931 0.18537 0.465 0.0
C210 C 0.98943 0.1661 0.46082 0.0
C211 C 1.00326 0.19834 0.51355 0.0
N212 N 0.01069 0.17421 0.49158 0.0
C213 C 0.91048 0.20825 0.49541 0.0
C214 C 0.89928 0.19187 0.6016 0.0
C215 C 0.88657 0.17859 0.55755 0.0
C216 C 0.891 0.18816 0.50422 0.0
C217 C 0.91807 0.21253 0.59081 0.0
N218 N 0.92578 0.21807 0.53792 0.0
H219 H 0.91453 0.21438 0.45362 0.0
H220 H 0.92715 0.22304 0.62513 0.0
H221 H 0.9504 0.1849 0.44286 0.0
H222 H 0.016 0.21051 0.54019 0.0
O223 O 0.95187 0.24553 0.44256 0.0
O224 O 0.98838 0.25887 0.48812 0.0
O225 O 0.9741 0.23611 0.59697 0.0
C226 C 0.97551 0.25725 0.44148 0.0
H227 H 0.92913 0.32619 0.61354 0.0
H228 H 0.98866 0.14775 0.43615 0.0
H229 H 0.89544 0.1857 0.64366 0.0
H230 H 0.88097 0.17885 0.46926 0.0
Co231 Co 0.78005 0.96722 0.57918 0.0
C232 C 0.739 0.92212 0.57576 0.0
C233 C 0.7287 0.95349 0.63347 0.0
C234 C 0.7083 0.9345 0.63371 0.0
N235 N 0.74849 0.94539 0.59854 0.0
N236 N 0.71478 0.91484 0.59735 0.0
H237 H 0.74872 0.91125 0.54255 0.0
H238 H 0.72853 0.97254 0.65581 0.0
C239 C 0.77954 0.96881 0.70171 0.0
O240 O 0.77655 0.94228 0.70256 0.0
N241 N 0.81062 0.98988 0.56003 0.0
C242 C 0.83237 0.98297 0.52928 0.0
C243 C 0.84978 1.00482 0.52738 0.0
C244 C 0.81471 0.01594 0.57536 0.0
N245 N 0.83858 0.02547 0.55619 0.0
C246 C 0.80627 0.91623 0.55687 0.0
C247 C 0.84746 0.9223 0.63314 0.0
C248 C 0.84896 0.90093 0.59512 0.0
C249 C 0.82777 0.89769 0.5573 0.0
C250 C 0.82583 0.94063 0.63076 0.0
N251 N 0.80532 0.93743 0.59329 0.0
H252 H 0.79173 0.91473 0.52399 0.0
H253 H 0.82699 0.9586 0.65616 0.0
H254 H 0.83548 0.96336 0.51001 0.0
H255 H 0.80078 0.02751 0.6008 0.0
O256 O 0.77323 0.9608 0.50233 0.0
O257 O 0.7561 0.9949 0.55181 0.0
O258 O 0.78234 0.98126 0.65623 0.0
C259 C 0.75857 0.98283 0.50437 0.0
H260 H 0.68943 0.93581 0.65647 0.0
H261 H 0.86909 1.00559 0.50611 0.0
H262 H 0.86394 0.92609 0.66165 0.0
H263 H 0.82852 0.88175 0.52642 0.0
Co264 Co 0.54403 0.74315 0.56542 0.0
C265 C 0.58992 0.78308 0.57496 0.0
C266 C 0.56238 0.79275 0.50975 0.0
C267 C 0.58229 0.81222 0.51106 0.0
N268 N 0.56761 0.77378 0.54837 0.0
N269 N 0.59958 0.80612 0.55203 0.0
H270 H 0.59842 0.77408 0.61153 0.0
H271 H 0.54466 0.79317 0.4836 0.0
C272 C 0.54216 0.74253 0.44158 0.0
O273 O 0.5688 0.74351 0.43925 0.0
N274 N 0.51953 0.71361 0.58154 0.0
C275 C 0.5247 0.69001 0.60761 0.0
C276 C 0.50192 0.67378 0.60402 0.0
C277 C 0.49367 0.7118 0.56391 0.0
N278 N 0.48258 0.68766 0.57669 0.0
C279 C 0.59487 0.71535 0.58197 0.0
C280 C 0.58493 0.67355 0.5085 0.0
C281 C 0.60768 0.67183 0.54284 0.0
C282 C 0.61295 0.69344 0.57897 0.0
C283 C 0.56746 0.69581 0.51266 0.0
N284 N 0.57248 0.71656 0.54894 0.0
H285 H 0.59785 0.73012 0.61408 0.0
H286 H 0.54876 0.69514 0.48963 0.0
H287 H 0.54387 0.68466 0.62639 0.0
H288 H 0.48343 0.72751 0.54072 0.0
O289 O 0.55054 0.74803 0.64317 0.0
O290 O 0.51762 0.768 0.59569 0.0
O291 O 0.52997 0.74253 0.48791 0.0
C292 C 0.52916 0.76363 0.64303 0.0
H293 H 0.58325 0.83025 0.48571 0.0
H294 H 0.49968 0.65343 0.62015 0.0
H295 H 0.57989 0.65716 0.48045 0.0
H296 H 0.62979 0.69253 0.60754 0.0
Co297 Co 0.27848 0.54413 0.56029 0.0
C298 C 0.23283 0.58436 0.56927 0.0
C299 C 0.24061 0.57188 0.48599 0.0
C300 C 0.22051 0.59116 0.48548 0.0
N301 N 0.24845 0.56744 0.53846 0.0
N302 N 0.21564 0.59909 0.53768 0.0
H303 H 0.23441 0.58647 0.6135 0.0
H304 H 0.24916 0.56236 0.4498 0.0
C305 C 0.29613 0.51933 0.45032 0.0
O306 O 0.32187 0.52368 0.46135 0.0
N307 N 0.30848 0.52053 0.581 0.0
C308 C 0.33041 0.5267 0.6118 0.0
C309 C 0.34812 0.50506 0.61061 0.0
C310 C 0.31259 0.49465 0.56401 0.0
N311 N 0.33702 0.48506 0.58005 0.0
C312 C 0.31468 0.58817 0.58112 0.0
C313 C 0.33281 0.59658 0.47514 0.0
C314 C 0.3463 0.60929 0.51901 0.0
C315 C 0.33601 0.60604 0.57208 0.0
C316 C 0.31067 0.57945 0.48607 0.0
N317 N 0.30373 0.57319 0.53914 0.0
H318 H 0.30824 0.58546 0.62306 0.0
H319 H 0.29976 0.57097 0.45172 0.0
H320 H 0.33381 0.54561 0.63314 0.0
H321 H 0.29875 0.48361 0.53762 0.0
O322 O 0.27379 0.55444 0.63649 0.0
O323 O 0.25381 0.51911 0.59794 0.0
O324 O 0.27755 0.52644 0.48441 0.0
C325 C 0.25824 0.53349 0.64223 0.0
H326 H 0.21018 0.59871 0.44929 0.0
H327 H 0.36795 0.50432 0.62973 0.0
H328 H 0.33954 0.59954 0.43311 0.0
H329 H 0.34549 0.6159 0.60709 0.0
Co330 Co 0.4648 0.27637 0.51298 0.0
C331 C 0.42003 0.23488 0.51983 0.0
C332 C 0.4553 0.22079 0.47667 0.0
C333 C 0.43651 0.20019 0.47741 0.0
N334 N 0.44502 0.24261 0.50306 0.0
N335 N 0.41421 0.20903 0.50446 0.0
H336 H 0.40629 0.24768 0.54262 0.0
H337 H 0.47535 0.21983 0.45854 0.0
C338 C 0.48785 0.28774 0.39788 0.0
O339 O 0.4975 0.31153 0.41214 0.0
N340 N 0.48568 0.30971 0.5233 0.0
C341 C 0.47617 0.33456 0.53711 0.0
C342 C 0.49744 0.35259 0.53835 0.0
C343 C 0.51298 0.31281 0.51954 0.0
N344 N 0.52053 0.33898 0.52683 0.0
C345 C 0.41404 0.30069 0.54208 0.0
C346 C 0.41013 0.33527 0.45324 0.0
C347 C 0.39297 0.33929 0.49857 0.0
C348 C 0.39421 0.32092 0.54213 0.0
C349 C 0.42921 0.31411 0.45396 0.0
N350 N 0.43194 0.29785 0.49926 0.0
H351 H 0.41612 0.28863 0.57878 0.0
H352 H 0.44301 0.3126 0.41989 0.0
H353 H 0.45523 0.33961 0.54536 0.0
H354 H 0.5268 0.29662 0.50799 0.0
O355 O 0.46164 0.2735 0.59178 0.0
O356 O 0.49522 0.25584 0.54257 0.0
O357 O 0.47398 0.27352 0.43165 0.0
C358 C 0.48422 0.25996 0.59073 0.0
H359 H 0.43943 0.18007 0.46032 0.0
H360 H 0.49601 0.37419 0.54649 0.0
H361 H 0.40977 0.34923 0.41886 0.0
H362 H 0.38152 0.32361 0.57823 0.0
Co363 Co 0.73162 0.46969 0.55669 0.0
C364 C 0.77413 0.4268 0.55866 0.0
C365 C 0.7823 0.45761 0.49847 0.0
C366 C 0.80236 0.43823 0.49513 0.0
N367 N 0.76448 0.45033 0.53784 0.0
N368 N 0.79722 0.41892 0.53291 0.0
H369 H 0.76436 0.41558 0.59139 0.0
H370 H 0.78095 0.47584 0.47395 0.0
C371 C 0.70985 0.48917 0.44543 0.0
O372 O 0.68485 0.48536 0.46269 0.0
N373 N 0.69889 0.48966 0.57572 0.0
C374 C 0.67797 0.48135 0.60731 0.0
C375 C 0.65909 0.50187 0.61054 0.0
C376 C 0.69291 0.51563 0.56225 0.0
N377 N 0.66839 0.52333 0.5819 0.0
C378 C 0.70218 0.42139 0.58472 0.0
C379 C 0.68218 0.40938 0.48147 0.0
C380 C 0.67104 0.39617 0.52729 0.0
C381 C 0.68242 0.40129 0.57898 0.0
C382 C 0.70263 0.42889 0.48902 0.0
N383 N 0.71033 0.43671 0.54083 0.0
H384 H 0.7094 0.42575 0.62565 0.0
H385 H 0.71162 0.43783 0.45305 0.0
H386 H 0.67641 0.46203 0.62772 0.0
H387 H 0.70585 0.52827 0.53703 0.0
O388 O 0.73831 0.46357 0.63456 0.0
O389 O 0.75291 0.49926 0.58884 0.0
O390 O 0.72987 0.48343 0.47714 0.0
C391 C 0.75097 0.48662 0.63579 0.0
H392 H 0.81976 0.43859 0.46787 0.0
H393 H 0.64004 0.50113 0.63274 0.0
H394 H 0.67481 0.40504 0.44037 0.0
H395 H 0.67486 0.39114 0.6154 0.0
Co396 Co 0.55109 0.27642 0.97752 0.0
C397 C 0.58822 0.23225 0.01777 0.0
C398 C 0.59429 0.24141 0.93236 0.0
C399 C 0.61286 0.2221 0.94737 0.0
N400 N 0.57881 0.24807 0.97637 0.0
N401 N 0.60915 0.21636 1.00096 0.0
H402 H 0.58041 0.23259 0.0594 0.0
H403 H 0.59267 0.25011 0.89173 0.0
C404 C 0.52722 0.25784 0.08439 0.0
O405 O 0.50887 0.24377 0.05745 0.0
N406 N 0.52423 0.30532 0.97688 0.0
C407 C 0.52699 0.32782 0.94592 0.0
C408 C 0.5063 0.34549 0.95796 0.0
C409 C 0.50141 0.30943 1.00699 0.0
N410 N 0.49029 0.33403 0.99634 0.0
C411 C 0.59778 0.30929 0.95592 0.0
C412 C 0.58915 0.34439 0.0435 0.0
C413 C 0.60753 0.35166 1.00225 0.0
C414 C 0.61278 0.33329 0.95933 0.0
C415 C 0.5747 0.32027 0.03868 0.0
N416 N 0.57837 0.30352 0.99425 0.0
H417 H 0.60023 0.29653 0.92006 0.0
H418 H 0.55869 0.31664 0.06806 0.0
H419 H 0.5435 0.33147 0.91751 0.0
H420 H 0.49351 0.29538 0.03702 0.0
O421 O 0.55208 0.27819 0.89848 0.0
O422 O 0.52464 0.25146 0.94624 0.0
O423 O 0.54546 0.27078 0.05828 0.0
C424 C 0.53294 0.26014 0.89843 0.0
H425 H 0.62776 0.21266 0.92061 0.0
H426 H 0.5033 0.3654 0.94013 0.0
H427 H 0.58466 0.35809 0.07736 0.0
H428 H 0.6267 0.3384 0.92642 0.0
Co429 Co 0.73884 0.55017 0.02431 0.0
C430 C 0.78238 0.5914 0.0287 0.0
C431 C 0.78344 0.56493 0.09878 0.0
C432 C 0.80363 0.58401 0.10459 0.0
N433 N 0.77005 0.56968 0.05141 0.0
N434 N 0.80294 0.60055 0.06052 0.0
H435 H 0.77629 0.60049 0.99012 0.0
H436 H 0.77905 0.54867 0.12721 0.0
C437 C 0.70827 0.53102 0.12444 0.0
O438 O 0.68608 0.53656 0.09665 0.0
N439 N 0.70803 0.52973 0.99695 0.0
C440 C 0.6865 0.5372 0.96599 0.0
C441 C 0.67091 0.51457 0.95544 0.0
C442 C 0.70557 0.50266 1.0032 0.0
N443 N 0.68311 0.49299 0.9787 0.0
C444 C 0.70847 0.59682 0.99154 0.0
C445 C 0.6879 0.61065 0.09369 0.0
C446 C 0.67598 0.62157 0.04632 0.0
C447 C 0.68769 0.61587 0.99519 0.0
C448 C 0.70899 0.59161 0.08798 0.0
N449 N 0.71668 0.58267 0.03683 0.0
H450 H 0.71596 0.59169 0.95111 0.0
H451 H 0.71799 0.58322 0.12465 0.0
H452 H 0.68216 0.55725 0.95094 0.0
H453 H 0.71977 0.49034 0.02629 0.0
O454 O 0.74939 0.55732 0.94887 0.0
O455 O 0.76198 0.52104 0.99515 0.0
O456 O 0.73152 0.53561 0.10226 0.0
C457 C 0.76138 0.5339 0.94823 0.0
H458 H 0.81813 0.58524 0.13796 0.0
H459 H 0.65228 0.51393 0.93187 0.0
H460 H 0.67996 0.61546 0.13418 0.0
H461 H 0.67953 0.62466 0.95782 0.0
Co462 Co 0.46838 0.7343 0.02341 0.0
C463 C 0.42021 0.77187 0.0312 0.0
C464 C 0.45176 0.7816 0.08856 0.0
C465 C 0.43152 0.80059 0.09405 0.0
N466 N 0.44442 0.76293 0.05054 0.0
N467 N 0.41172 0.79455 0.05796 0.0
H468 H 0.4096 0.76299 0.99671 0.0
H469 H 0.47119 0.78224 0.10916 0.0
C470 C 0.47332 0.72984 0.14554 0.0
O471 O 0.44668 0.72973 0.14882 0.0
N472 N 0.49288 0.70662 0.99632 0.0
C473 C 0.48836 0.69001 0.95319 0.0
C474 C 0.50993 0.67242 0.94834 0.0
C475 C 0.51713 0.69907 0.01707 0.0
N476 N 0.52797 0.67797 0.98872 0.0
C477 C 0.41943 0.70314 1.00543 0.0
C478 C 0.43611 0.6592 0.06747 0.0
C479 C 0.41367 0.65607 0.03279 0.0
C480 C 0.40472 0.67873 1.00294 0.0
C481 C 0.45022 0.68367 0.06853 0.0
N482 N 0.4421 0.7054 0.03755 0.0
H483 H 0.41394 0.71923 0.97765 0.0
H484 H 0.46921 0.684 0.09049 0.0
H485 H 0.47044 0.69044 0.9275 0.0
H486 H 0.5263 0.70836 0.05289 0.0
O487 O 0.45889 0.74303 0.94826 0.0
O488 O 0.49265 0.76159 0.99557 0.0
O489 O 0.48498 0.73089 0.09868 0.0
C490 C 0.47979 0.75922 0.94906 0.0
H491 H 0.43214 0.81853 0.11998 0.0
H492 H 0.51208 0.65679 0.91718 0.0
H493 H 0.44381 0.64225 0.09117 0.0
H494 H 0.38779 0.67704 0.97471 0.0
Co495 Co 0.27585 0.45808 0.02133 0.0
C496 C 0.2342 0.41301 0.0226 0.0
C497 C 0.22336 0.44715 0.073 0.0
C498 C 0.20289 0.42834 0.07624 0.0
N499 N 0.24363 0.43724 0.04121 0.0
N500 N 0.20971 0.40693 0.04456 0.0
H501 H 0.24417 0.40048 0.99219 0.0
H502 H 0.22311 0.46714 0.0916 0.0
C503 C 0.27326 0.46415 0.14396 0.0
O504 O 0.26825 0.43796 0.14624 0.0
N505 N 0.30668 0.48016 1.00161 0.0
C506 C 0.32854 0.47325 0.97129 0.0
C507 C 0.34507 0.49575 0.96668 0.0
C508 C 0.30993 0.50663 0.01437 0.0
N509 N 0.33328 0.51673 0.99371 0.0
C510 C 0.30196 0.40585 0.01619 0.0
C511 C 0.34274 0.41749 0.0905 0.0
C512 C 0.34456 0.39346 0.05944 0.0
C513 C 0.32334 0.38745 0.02296 0.0
C514 C 0.32114 0.43546 0.08209 0.0
N515 N 0.30086 0.42957 0.04548 0.0
H516 H 0.28773 0.40197 0.9836 0.0
H517 H 0.32206 0.45503 0.10211 0.0
H518 H 0.33212 0.45334 0.95368 0.0
H519 H 0.29552 0.51817 0.03872 0.0
O520 O 0.27215 0.44672 0.94571 0.0
O521 O 0.25272 0.48342 0.98104 0.0
O522 O 0.27626 0.4758 0.0972 0.0
C523 C 0.25732 0.46815 0.9379 0.0
H524 H 0.18383 0.43074 0.098 0.0
H525 H 0.36408 0.49667 0.94438 0.0
H526 H 0.35866 0.42319 0.11899 0.0
H527 H 0.32422 0.36971 0.99649 0.0
H528 H 0.1273 0.32032 0.95605 0.0
H529 H 0.1134 0.31023 0.12981 0.0
H530 H 0.14943 0.34305 0.15043 0.0
H531 H 0.1825 0.37724 0.11829 0.0
H532 H 0.19815 0.38565 0.94481 0.0
H533 H 0.1641 0.3507 0.92429 0.0
C534 C 0.13246 0.32519 0.99834 0.0
C535 C 0.11769 0.31316 0.04144 0.0
C536 C 0.1534 0.34378 1.0097 0.0
C537 C 0.12463 0.31922 0.09615 0.0
C538 C 0.14508 0.33806 0.10784 0.0
C539 C 0.17859 0.37108 0.07612 0.0
C540 C 0.19254 0.38399 0.03301 0.0
C541 C 0.15925 0.35083 0.06491 0.0
C542 C 0.18769 0.37581 0.9785 0.0
C543 C 0.16812 0.356 0.96685 0.0
H544 H 0.65418 0.11319 0.1198 0.0
H545 H 0.72661 0.13718 0.03303 0.0
H546 H 0.70407 0.17872 1.00221 0.0
H547 H 0.66236 0.20571 0.99224 0.0
H548 H 0.58962 0.18179 0.07771 0.0
H549 H 0.61368 0.14286 0.11756 0.0
C550 C 0.66504 0.12765 0.09448 0.0
C551 C 0.69193 0.12198 0.07815 0.0
C552 C 0.65185 0.15138 0.07662 0.0
C553 C 0.70599 0.14111 0.0463 0.0
C554 C 0.69303 0.16476 0.02837 0.0
C555 C 0.65189 0.19208 0.02001 0.0
C556 C 0.62418 0.19631 0.03147 0.0
C557 C 0.66578 0.16973 0.04211 0.0
C558 C 0.61094 0.17892 0.06842 0.0
C559 C 0.62464 0.15658 0.09077 0.0
H560 H 0.82332 0.63638 0.13307 0.0
H561 H 0.82455 0.6132 0.96187 0.0
H562 H 0.85998 0.64686 0.94361 0.0
H563 H 0.89273 0.68072 0.97801 0.0
H564 H 0.89052 0.70509 0.14844 0.0
H565 H 0.85318 0.67333 0.16568 0.0
C566 C 0.8313 0.63889 0.09178 0.0
C567 C 0.82163 0.62223 0.04892 0.0
C568 C 0.85148 0.65839 0.08167 0.0
C569 C 0.83168 0.6259 0.99535 0.0
C570 C 0.85201 0.645 0.98504 0.0
C571 C 0.88389 0.6791 0.01877 0.0
C572 C 0.89442 0.69491 0.06208 0.0
C573 C 0.86238 0.66101 0.02808 0.0
C574 C 0.88261 0.69313 0.11457 0.0
C575 C 0.86142 0.67489 0.12441 0.0
H576 H 0.32705 0.87832 0.96798 0.0
H577 H 0.31568 0.89246 0.14161 0.0
H578 H 0.34716 0.85528 0.16273 0.0
H579 H 0.38083 0.82138 0.13121 0.0
H580 H 0.39144 0.80664 0.95756 0.0
H581 H 0.35708 0.84114 0.93666 0.0
C582 C 0.33138 0.87306 1.01039 0.0
C583 C 0.3194 0.88825 0.05327 0.0
C584 C 0.34934 0.85162 0.02202 0.0
C585 C 0.32467 0.881 0.10807 0.0
C586 C 0.34275 0.85987 0.12005 0.0
C587 C 0.37533 0.82557 0.08887 0.0
C588 C 0.38875 0.81169 0.04593 0.0
C589 C 0.35562 0.84543 0.07734 0.0
C590 C 0.38126 0.81694 0.99123 0.0
C591 C 0.3618 0.83682 0.97933 0.0
H592 H 0.1186 0.66874 0.62904 0.0
H593 H 0.13352 0.71211 0.47798 0.0
H594 H 0.17264 0.68311 0.45879 0.0
H595 H 0.20082 0.64368 0.4818 0.0
H596 H 0.18588 0.59945 0.63157 0.0
H597 H 0.14871 0.63067 0.65485 0.0
C598 C 0.13042 0.67181 0.59193 0.0
C599 C 0.12297 0.69247 0.55479 0.0
C600 C 0.15284 0.6549 0.58096 0.0
C601 C 0.13886 0.69656 0.50745 0.0
C602 C 0.16115 0.67984 0.49626 0.0
C603 C 0.18942 0.64088 0.51955 0.0
C604 C 0.19583 0.61907 0.55458 0.0
C605 C 0.16804 0.65871 0.53225 0.0
C606 C 0.18136 0.61611 0.60405 0.0
C607 C 0.16001 0.63384 0.61711 0.0
H608 H 0.39657 0.16354 0.45189 0.0
H609 H 0.37612 0.21964 0.58294 0.0
H610 H 0.33557 0.19355 0.60331 0.0
H611 H 0.30659 0.15436 0.58627 0.0
H612 H 0.32818 0.09616 0.46013 0.0
H613 H 0.36753 0.12375 0.43537 0.0
C614 C 0.38349 0.17003 0.48528 0.0
C615 C 0.38976 0.19371 0.51577 0.0
C616 C 0.3603 0.15456 0.49769 0.0
C617 C 0.37196 0.20186 0.55812 0.0
C618 C 0.34872 0.18679 0.57015 0.0
C619 C 0.31997 0.14738 0.55377 0.0
C620 C 0.31441 0.1229 0.52563 0.0
C621 C 0.34284 0.16301 0.54056 0.0
C622 C 0.33173 0.11489 0.48242 0.0
C623 C 0.35438 0.1306 0.46846 0.0
H624 H 0.82275 0.38735 0.45885 0.0
H625 H 0.80973 0.39863 0.63283 0.0
H626 H 0.8429 0.36279 0.65283 0.0
H627 H 0.87811 0.33069 0.62042 0.0
H628 H 0.89003 0.31848 0.44633 0.0
H629 H 0.85464 0.35206 0.42638 0.0
C630 C 0.82709 0.38175 0.50107 0.0
C631 C 0.81411 0.39572 0.5444 0.0
C632 C 0.84602 0.36109 0.51205 0.0
C633 C 0.81945 0.38806 0.59894 0.0
C634 C 0.83851 0.36772 0.6103 0.0
C635 C 0.87277 0.33533 0.57818 0.0
C636 C 0.88679 0.32242 0.53483 0.0
C637 C 0.85231 0.35449 0.56719 0.0
C638 C 0.87943 0.32813 0.48025 0.0
C639 C 0.85934 0.34742 0.46891 0.0
H640 H 0.63547 0.83141 0.48716 0.0
H641 H 0.61399 0.81782 0.65675 0.0
H642 H 0.64924 0.84977 0.68651 0.0
H643 H 0.68404 0.88398 0.66341 0.0
H644 H 0.70641 0.89644 0.49387 0.0
H645 H 0.67317 0.86238 0.4646 0.0
C646 C 0.63872 0.83538 0.5306 0.0
C647 C 0.62209 0.82256 0.56977 0.0
C648 C 0.65909 0.85358 0.54721 0.0
C649 C 0.62666 0.82741 0.626 0.0
C650 C 0.64667 0.84577 0.64291 0.0
C651 C 0.68169 0.87901 0.62015 0.0
C652 C 0.69743 0.89277 0.58076 0.0
C653 C 0.66267 0.85933 0.60381 0.0
C654 C 0.69461 0.88597 0.52486 0.0
C655 C 0.6755 0.86666 0.50816 0.0
H656 H 0.19173 0.0669 0.0614 0.0
H657 H 0.11789 0.02 0.06299 0.0
H658 H 0.09113 0.06118 0.04954 0.0
H659 H 0.08844 0.11051 0.04095 0.0
H660 H 0.16168 0.15836 0.04124 0.0
H661 H 0.18898 0.11691 0.05051 0.0
C662 C 0.16982 0.06576 0.05817 0.0
C663 C 0.15679 0.04045 0.0634 0.0
C664 C 0.15447 0.08968 0.05108 0.0
C665 C 0.12835 0.03926 0.05983 0.0
C666 C 0.11304 0.06279 0.05193 0.0
C667 C 0.1104 0.11189 0.0421 0.0
C668 C 0.12301 0.13748 0.03987 0.0
C669 C 0.12585 0.0881 0.048 0.0
C670 C 0.15148 0.1389 0.04296 0.0
C671 C 0.16708 0.11521 0.04814 0.0
H672 H 0.96449 0.12587 0.08857 0.0
H673 H 0.93527 0.20837 0.08621 0.0
H674 H 0.88828 0.19212 0.08294 0.0
H675 H 0.85537 0.15397 0.08142 0.0
H676 H 0.88564 0.07168 0.0812 0.0
H677 H 0.93221 0.0882 0.08512 0.0
C678 C 0.9478 0.14025 0.08767 0.0
C679 C 0.95329 0.16822 0.08787 0.0
C680 C 0.921 0.13076 0.08526 0.0
C681 C 0.93152 0.1867 0.08567 0.0
C682 C 0.90467 0.17742 0.08407 0.0
C683 C 0.87223 0.13978 0.08223 0.0
C684 C 0.86713 0.11169 0.08059 0.0
C685 C 0.89913 0.14945 0.08392 0.0
C686 C 0.8891 0.09342 0.08158 0.0
C687 C 0.91573 0.10282 0.0841 0.0
H688 H 0.91528 0.89698 0.0572 0.0
H689 H 0.84327 0.8475 0.06522 0.0
H690 H 0.81558 0.88808 0.0828 0.0
H691 H 0.81243 0.93756 0.10148 0.0
H692 H 0.8852 0.98598 0.0974 0.0
H693 H 0.91199 0.94603 0.07225 0.0
C694 C 0.89344 0.89512 0.06169 0.0
C695 C 0.88131 0.86931 0.05947 0.0
C696 C 0.87784 0.91838 0.07298 0.0
C697 C 0.85307 0.86717 0.06678 0.0
C698 C 0.83726 0.89035 0.07685 0.0
C699 C 0.83409 0.9393 0.09438 0.0
C700 C 0.84688 0.9646 0.10163 0.0
C701 C 0.84948 0.91605 0.08088 0.0
C702 C 0.875 0.96663 0.09286 0.0
C703 C 0.8903 0.94383 0.07828 0.0
H704 H 0.12223 0.91614 0.03799 0.0
H705 H 0.16523 0.84046 0.05744 0.0
H706 H 0.12201 0.81655 0.071 0.0
H707 H 0.07188 0.81777 0.08021 0.0
H708 H 0.02991 0.8943 0.06594 0.0
H709 H 0.0728 0.9174 0.0472 0.0
C710 C 0.12208 0.89433 0.04439 0.0
C711 C 0.14675 0.87995 0.04596 0.0
C712 C 0.09737 0.88099 0.05338 0.0
C713 C 0.14641 0.85186 0.05581 0.0
C714 C 0.12175 0.83825 0.06357 0.0
C715 C 0.07224 0.83944 0.07248 0.0
C716 C 0.04786 0.85438 0.07438 0.0
C717 C 0.0971 0.85266 0.06282 0.0
C718 C 0.04849 0.88251 0.06514 0.0
C719 C 0.07295 0.89567 0.05426 0.0
H720 H 0.17612 0.95546 0.58169 0.0
H721 H 0.16085 0.95362 0.40698 0.0
H722 H 0.14201 0.90798 0.41447 0.0
H723 H 0.12704 0.87 0.47118 0.0
H724 H 0.14048 0.87164 0.64659 0.0
H725 H 0.16293 0.91586 0.63851 0.0
C726 C 0.16899 0.94483 0.54531 0.0
C727 C 0.16966 0.95794 0.49391 0.0
C728 C 0.15775 0.91865 0.55012 0.0
C729 C 0.16014 0.94411 0.44707 0.0
C730 C 0.14947 0.91798 0.4513 0.0
C731 C 0.13541 0.87971 0.50754 0.0
C732 C 0.13227 0.86744 0.55936 0.0
C733 C 0.14777 0.90524 0.50269 0.0
C734 C 0.1426 0.8807 0.60624 0.0
C735 C 0.15543 0.90597 0.60162 0.0
H736 H 0.06061 0.19508 0.50982 0.0
H737 H 0.01649 0.11982 0.49422 0.0
H738 H 0.0582 0.09408 0.50811 0.0
H739 H 0.10716 0.09278 0.52275 0.0
H740 H 0.15221 0.16749 0.53753 0.0
H741 H 0.11022 0.19369 0.52592 0.0
C742 C 0.06017 0.17306 0.50992 0.0
C743 C 0.0355 0.15938 0.5007 0.0
C744 C 0.08436 0.15833 0.51771 0.0
C745 C 0.03526 0.13083 0.50032 0.0
C746 C 0.05907 0.11609 0.5086 0.0
C747 C 0.10776 0.11481 0.52426 0.0
C748 C 0.13269 0.12818 0.53155 0.0
C749 C 0.08372 0.12961 0.51708 0.0
C750 C 0.13324 0.15674 0.53192 0.0
C751 C 0.10925 0.17169 0.52539 0.0
H752 H 0.813 0.07375 0.54972 0.0
H753 H 0.89043 0.03633 0.58186 0.0
H754 H 0.91149 0.08107 0.59188 0.0
H755 H 0.90856 0.13075 0.58505 0.0
H756 H 0.83242 0.16854 0.54382 0.0
H757 H 0.80991 0.12401 0.54441 0.0
C758 C 0.83438 0.07556 0.5596 0.0
C759 C 0.85023 0.05192 0.56511 0.0
C760 C 0.84648 0.10141 0.56366 0.0
C761 C 0.87799 0.05433 0.5771 0.0
C762 C 0.88997 0.07986 0.58294 0.0
C763 C 0.88691 0.12917 0.57738 0.0
C764 C 0.87195 0.15271 0.56544 0.0
C765 C 0.87452 0.10351 0.57551 0.0
C766 C 0.84412 0.15058 0.55391 0.0
C767 C 0.83137 0.12516 0.55392 0.0
H768 H 0.96056 0.83788 0.61272 0.0
H769 H 0.96261 0.85823 0.4403 0.0
H770 H 0.91744 0.87846 0.44716 0.0
H771 H 0.8783 0.89225 0.50289 0.0
H772 H 0.87666 0.87437 0.67645 0.0
H773 H 0.92058 0.85108 0.66865 0.0
C774 C 0.95091 0.84654 0.5767 0.0
C775 C 0.96489 0.84672 0.52616 0.0
C776 C 0.92506 0.85854 0.58121 0.0
C777 C 0.95239 0.85823 0.47978 0.0
C778 C 0.92652 0.86966 0.48362 0.0
C779 C 0.88736 0.88282 0.53878 0.0
C780 C 0.87421 0.88471 0.59003 0.0
C781 C 0.9128 0.87017 0.5342 0.0
C782 C 0.88644 0.87304 0.63655 0.0
C783 C 0.91152 0.8598 0.63209 0.0
H784 H 0.68986 0.5735 0.57 0.0
H785 H 0.61438 0.52925 0.57048 0.0
H786 H 0.58917 0.57125 0.55614 0.0
H787 H 0.58824 0.62056 0.54666 0.0
H788 H 0.66308 0.66585 0.54777 0.0
H789 H 0.68891 0.62354 0.55825 0.0
C790 C 0.66793 0.57313 0.56647 0.0
C791 C 0.654 0.54832 0.57173 0.0
C792 C 0.65346 0.59752 0.55862 0.0
C793 C 0.62554 0.54812 0.56756 0.0
C794 C 0.61111 0.57211 0.55903 0.0
C795 C 0.61024 0.62117 0.54821 0.0
C796 C 0.62374 0.64628 0.54587 0.0
C797 C 0.62482 0.59692 0.55492 0.0
C798 C 0.65222 0.64676 0.5495 0.0
C799 C 0.66698 0.62258 0.55544 0.0
H800 H 0.35917 0.66033 0.55247 0.0
H801 H 0.39239 0.58927 0.4729 0.0
H802 H 0.43832 0.60763 0.48274 0.0
H803 H 0.4693 0.64183 0.5234 0.0
H804 H 0.43599 0.71366 0.59923 0.0
H805 H 0.38976 0.6972 0.58199 0.0
C806 C 0.37647 0.64925 0.53608 0.0
C807 C 0.37253 0.62353 0.51204 0.0
C808 C 0.40275 0.65984 0.54235 0.0
C809 C 0.39498 0.60926 0.49095 0.0
C810 C 0.42124 0.61959 0.49725 0.0
C811 C 0.45179 0.65379 0.53571 0.0
C812 C 0.45572 0.67859 0.56331 0.0
C813 C 0.42541 0.64444 0.52447 0.0
C814 C 0.43317 0.69441 0.57826 0.0
C815 C 0.40686 0.68501 0.56838 0.0
H816 H 0.31431 0.43587 0.56298 0.0
H817 H 0.38981 0.47973 0.55338 0.0
H818 H 0.41312 0.43886 0.52124 0.0
H819 H 0.41268 0.39013 0.50012 0.0
H820 H 0.33837 0.34487 0.51599 0.0
H821 H 0.31377 0.38668 0.54039 0.0
C822 C 0.33581 0.43638 0.55352 0.0
C823 C 0.35038 0.46069 0.56105 0.0
C824 C 0.34922 0.41259 0.53579 0.0
C825 C 0.37828 0.46114 0.54894 0.0
C826 C 0.39158 0.43784 0.53014 0.0
C827 C 0.39097 0.3896 0.50777 0.0
C828 C 0.37717 0.3647 0.50534 0.0
C829 C 0.37733 0.41341 0.52387 0.0
C830 C 0.34924 0.36398 0.51695 0.0
C831 C 0.33528 0.38781 0.53124 0.0
H832 H 0.56945 0.31885 0.55668 0.0
H833 H 0.53062 0.38613 0.47536 0.0
H834 H 0.57444 0.40833 0.46272 0.0
H835 H 0.62343 0.41027 0.48026 0.0
H836 H 0.66246 0.34491 0.5673 0.0
H837 H 0.61933 0.32016 0.57168 0.0
C838 C 0.57076 0.33822 0.53575 0.0
C839 C 0.54683 0.35095 0.51737 0.0
C840 C 0.59612 0.3512 0.52963 0.0
C841 C 0.54871 0.37616 0.49062 0.0
C842 C 0.57377 0.3888 0.48313 0.0
C843 C 0.62258 0.39033 0.49909 0.0
C844 C 0.64611 0.37929 0.5229 0.0
C845 C 0.59757 0.37674 0.50316 0.0
C846 C 0.6446 0.35374 0.54844 0.0
C847 C 0.61993 0.33966 0.55115 0.0
H848 H 0.63185 0.47703 0.99223 0.0
H849 H 0.7134 0.44757 0.96889 0.0
H850 H 0.69734 0.40051 0.974 0.0
H851 H 0.65976 0.36786 0.98587 0.0
H852 H 0.57852 0.39811 0.01249 0.0
H853 H 0.59469 0.44477 1.00566 0.0
C854 C 0.64595 0.46023 0.98774 0.0
C855 C 0.67361 0.46551 0.97985 0.0
C856 C 0.63665 0.43346 0.9918 0.0
C857 C 0.69197 0.44376 0.97518 0.0
C858 C 0.68281 0.41696 0.97803 0.0
C859 C 0.64571 0.38474 0.99019 0.0
C860 C 0.61811 0.37968 1.00009 0.0
C861 C 0.65517 0.41157 0.98655 0.0
C862 C 0.59999 0.40161 1.00578 0.0
C863 C 0.60914 0.42825 1.00148 0.0
H864 H 0.57194 0.69654 0.04505 0.0
H865 H 0.54051 0.6265 0.95841 0.0
H866 H 0.58325 0.60284 0.97136 0.0
H867 H 0.63018 0.60243 1.00318 0.0
H868 H 0.66237 0.67098 0.09209 0.0
H869 H 0.61847 0.69466 0.08368 0.0
C870 C 0.57427 0.676 0.02957 0.0
C871 C 0.55299 0.66363 0.99977 0.0
C872 C 0.59902 0.66221 0.03774 0.0
C873 C 0.5566 0.63695 0.98003 0.0
C874 C 0.58103 0.62322 0.98783 0.0
C875 C 0.62742 0.62249 0.0211 0.0
C876 C 0.64926 0.63516 0.04781 0.0
C877 C 0.60243 0.63578 0.01585 0.0
C878 C 0.64566 0.66096 0.07141 0.0
C879 C 0.62067 0.67446 0.0663 0.0
H880 H 0.38567 0.5322 0.99467 0.0
H881 H 0.30392 0.56303 1.00701 0.0
H882 H 0.3213 0.60915 0.01945 0.0
H883 H 0.3601 0.6409 0.02792 0.0
H884 H 0.44163 0.60925 0.01518 0.0
H885 H 0.42401 0.56355 1.00145 0.0
C886 C 0.37163 0.54902 0.99947 0.0
C887 C 0.34354 0.54406 0.9999 0.0
C888 C 0.38177 0.57546 1.00676 0.0
C889 C 0.32566 0.56614 1.00717 0.0
C890 C 0.33559 0.59259 0.01401 0.0
C891 C 0.37394 0.62398 0.02189 0.0
C892 C 0.40214 0.6285 0.02331 0.0
C893 C 0.36364 0.59752 0.0141 0.0
C894 C 0.41983 0.60632 0.01545 0.0
C895 C 0.40979 0.58015 1.00725 0.0
H896 H 0.44147 0.31122 0.01687 0.0
H897 H 0.48671 0.38577 0.03001 0.0
H898 H 0.44567 0.41034 0.05673 0.0
H899 H 0.3965 0.41176 0.06493 0.0
H900 H 0.35 0.33784 0.05092 0.0
H901 H 0.39181 0.31193 0.0357 0.0
C902 C 0.44229 0.33269 0.02686 0.0
C903 C 0.46693 0.34679 0.02099 0.0
C904 C 0.41835 0.34687 0.0411 0.0
C905 C 0.46784 0.37465 0.03359 0.0
C906 C 0.4444 0.38869 0.04881 0.0
C907 C 0.3954 0.38988 0.06022 0.0
C908 C 0.36999 0.37688 0.05889 0.0
C909 C 0.41943 0.37519 0.05104 0.0
C910 C 0.36921 0.3485 0.05139 0.0
C911 C 0.39314 0.33363 0.04281 0.0
H912 H 0.9518 0.26561 0.34163 0.0
H913 H 0.02962 0.26322 0.42277 0.0
H914 H 0.05266 0.26528 0.33385 0.0
H915 H 0.05059 0.26188 0.23268 0.0
H916 H 0.97288 0.26556 0.15137 0.0
H917 H 0.95 0.26934 0.24037 0.0
C918 C 0.9738 0.2661 0.33982 0.0
C919 C 0.98895 0.26399 0.3887 0.0
C920 C 0.98697 0.26734 0.28842 0.0
C921 C 0.01745 0.26486 0.3858 0.0
C922 C 0.03067 0.26586 0.33488 0.0
C923 C 0.02869 0.26413 0.23446 0.0
C924 C 0.01346 0.26323 0.18553 0.0
C925 C 0.01564 0.26625 0.28586 0.0
C926 C 0.98511 0.26632 0.18839 0.0
C927 C 0.97197 0.26824 0.23936 0.0
H928 H 0.74441 0.95786 0.40981 0.0
H929 H 0.75231 0.03675 0.48583 0.0
H930 H 0.74752 0.05862 0.39618 0.0
H931 H 0.74828 0.05458 0.29512 0.0
H932 H 0.73931 0.97555 0.21978 0.0
H933 H 0.73691 0.95445 0.31024 0.0
C934 C 0.74441 0.97985 0.4067 0.0
C935 C 0.74906 0.99572 0.45369 0.0
C936 C 0.74177 0.99221 0.3552 0.0
C937 C 0.74872 0.02418 0.44984 0.0
C938 C 0.74623 0.03667 0.39863 0.0
C939 C 0.74526 0.03282 0.2987 0.0
C940 C 0.7445 0.01655 0.25122 0.0
C941 C 0.74386 0.02081 0.35083 0.0
C942 C 0.74013 0.98846 0.25598 0.0
C943 C 0.73888 0.97634 0.30763 0.0
H944 H 0.95952 0.75365 0.25095 0.0
H945 H 0.03844 0.75263 0.17393 0.0
H946 H 0.06006 0.74891 0.26426 0.0
H947 H 0.05662 0.75117 0.3656 0.0
H948 H 0.97769 0.75083 0.44258 0.0
H949 H 0.956 0.74947 0.35201 0.0
C950 C 0.98144 0.75212 0.25392 0.0
C951 C 0.99736 0.75365 0.20578 0.0
C952 C 0.99373 0.74991 0.30607 0.0
C953 C 0.02571 0.75142 0.21025 0.0
C954 C 0.0381 0.74948 0.26198 0.0
C955 C 0.03467 0.75025 0.36253 0.0
C956 C 0.01879 0.75128 0.4108 0.0
C957 C 0.02234 0.74945 0.31024 0.0
C958 C 0.9904 0.74992 0.40617 0.0
C959 C 0.97797 0.74936 0.35432 0.0
H960 H 0.25894 0.05939 0.34394 0.0
H961 H 0.26575 0.9822 0.4262 0.0
H962 H 0.2697 0.95905 0.33724 0.0
H963 H 0.26527 0.96027 0.2359 0.0
H964 H 0.25996 0.03756 0.15357 0.0
H965 H 0.2617 0.06113 0.24241 0.0
C966 C 0.26195 0.03757 0.34239 0.0
C967 C 0.2619 0.02254 0.39169 0.0
C968 C 0.26418 0.02437 0.29096 0.0
C969 C 0.26591 0.99429 0.38901 0.0
C970 C 0.2679 0.98099 0.33804 0.0
C971 C 0.26506 0.9823 0.2374 0.0
C972 C 0.26227 0.99713 0.18818 0.0
C973 C 0.26618 0.99573 0.28872 0.0
C974 C 0.26222 0.02566 0.19073 0.0
C975 C 0.26301 0.03915 0.24162 0.0
H976 H 0.01934 0.77447 0.92059 0.0
H977 H 0.9384 0.77751 0.85302 0.0
H978 H 0.95689 0.77723 0.75987 0.0
H979 H 0.99607 0.7752 0.6968 0.0
H980 H 0.07694 0.77071 0.76452 0.0
H981 H 0.05849 0.77249 0.85757 0.0
C982 C 0.00576 0.77519 0.8855 0.0
C983 C 0.97751 0.77599 0.89405 0.0
C984 C 0.01652 0.77467 0.83169 0.0
C985 C 0.96024 0.77677 0.84791 0.0
C986 C 0.97079 0.77663 0.79443 0.0
C987 C 0.00966 0.77468 0.7319 0.0
C988 C 0.03787 0.77278 0.72337 0.0
C989 C 0.9989 0.77543 0.78572 0.0
C990 C 0.05513 0.77205 0.76955 0.0
C991 C 0.04461 0.77311 0.823 0.0
H992 H 0.25484 0.97889 0.69484 0.0
H993 H 0.22182 0.06014 0.69564 0.0
H994 H 0.22059 0.06008 0.79595 0.0
H995 H 0.22969 0.03729 0.8845 0.0
H996 H 0.2579 0.95436 0.88381 0.0
H997 H 0.26015 0.95466 0.78314 0.0
C998 C 0.24732 0.99654 0.717 0.0
C999 C 0.2389 0.01964 0.68753 0.0
C1000 C 0.24583 0.99609 0.775 0.0
C1001 C 0.22872 0.04215 0.717 0.0
C1002 C 0.228 0.04217 0.77456 0.0
C1003 C 0.23631 0.01933 0.86215 0.0
C1004 C 0.24389 0.99596 0.89144 0.0
C1005 C 0.2367 0.01935 0.8041 0.0
C1006 C 0.25198 0.97263 0.86209 0.0
C1007 C 0.25332 0.9728 0.80453 0.0
H1008 H 0.04947 0.25221 0.83315 0.0
H1009 H 0.99566 0.19688 0.91634 0.0
H1010 H 0.97299 0.18643 0.82907 0.0
H1011 H 0.9687 0.19295 0.72845 0.0
H1012 H 0.01986 0.25154 0.64757 0.0
H1013 H 0.0434 0.26078 0.73423 0.0
C1014 C 0.03277 0.23788 0.83205 0.0
C1015 C 0.02433 0.2252 0.88086 0.0
C1016 C 0.01943 0.23253 0.78206 0.0
C1017 C 1.00243 0.20696 0.8792 0.0
C1018 C 0.98955 0.2009 0.82932 0.0
C1019 C 0.98507 0.20764 0.72999 0.0
C1020 C 0.99277 0.22138 0.68182 0.0
C1021 C 0.99793 0.2135 0.78041 0.0
C1022 C 0.01364 0.24074 0.68427 0.0
C1023 C 0.02711 0.246 0.73374 0.0
H1024 H 0.76878 0.95063 0.80491 0.0
H1025 H 0.78424 0.0237 0.71203 0.0
H1026 H 0.77682 0.05124 0.79405 0.0
H1027 H 0.76605 0.05473 0.89218 0.0
H1028 H 0.75216 0.98179 0.98604 0.0
H1029 H 0.75854 0.95409 0.90342 0.0
C1030 C 0.77069 0.97255 0.80271 0.0
C1031 C 0.77701 0.98503 0.75251 0.0
C1032 C 0.7664 0.98835 0.85002 0.0
C1033 C 0.77938 0.01351 0.75024 0.0
C1034 C 0.77505 0.02934 0.79706 0.0
C1035 C 0.76409 0.03281 0.89431 0.0
C1036 C 0.75849 0.02029 0.94474 0.0
C1037 C 0.7684 0.017 0.84706 0.0
C1038 C 0.75644 0.99184 0.94737 0.0
C1039 C 0.76017 0.97599 0.9003 0.0
H1040 H 0.45456 0.76719 0.85082 0.0
H1041 H 0.53234 0.77317 0.9314 0.0
H1042 H 0.5548 0.77839 0.84258 0.0
H1043 H 0.55295 0.7739 0.74158 0.0
H1044 H 0.47516 0.76982 0.66079 0.0
H1045 H 0.4521 0.77164 0.74983 0.0
C1046 C 0.47633 0.77036 0.8489 0.0
C1047 C 0.49179 0.7694 0.89742 0.0
C1048 C 0.48917 0.77339 0.79759 0.0
C1049 C 0.51995 0.77381 0.89459 0.0
C1050 C 0.53288 0.77657 0.84374 0.0
C1051 C 0.53094 0.77413 0.74358 0.0
C1052 C 0.51576 0.77143 0.69501 0.0
C1053 C 0.51781 0.77528 0.7949 0.0
C1054 C 0.48727 0.77197 0.69778 0.0
C1055 C 0.47406 0.77278 0.74869 0.0
H1056 H 0.24682 0.51887 0.89781 0.0
H1057 H 0.25113 0.43454 0.85 0.0
H1058 H 0.24736 0.44706 0.75312 0.0
H1059 H 0.24943 0.48232 0.68126 0.0
H1060 H 0.24841 0.5667 0.7292 0.0
H1061 H 0.24384 0.55398 0.82587 0.0
C1062 C 0.24618 0.50324 0.86624 0.0
C1063 C 0.24934 0.47584 0.88114 0.0
C1064 C 0.24488 0.51065 0.81023 0.0
C1065 C 0.24885 0.45581 0.83963 0.0
C1066 C 0.24679 0.46295 0.78411 0.0
C1067 C 0.24738 0.49786 0.71278 0.0
C1068 C 0.24926 0.52539 0.69809 0.0
C1069 C 0.24573 0.49036 0.76872 0.0
C1070 C 0.24707 0.54534 0.7395 0.0
C1071 C 0.24458 0.53808 0.79488 0.0
H1072 H 0.55784 0.2552 0.80014 0.0
H1073 H 0.47992 0.24739 0.87939 0.0
H1074 H 0.45781 0.24358 0.78928 0.0
H1075 H 0.46036 0.24881 0.68838 0.0
H1076 H 0.53851 0.25553 0.60942 0.0
H1077 H 0.56101 0.25301 0.69909 0.0
C1078 C 0.53607 0.25208 0.79756 0.0
C1079 C 0.5204 0.25187 0.84598 0.0
C1080 C 0.52363 0.24994 0.7458 0.0
C1081 C 0.49232 0.24753 0.84252 0.0
C1082 C 0.4797 0.24558 0.79105 0.0
C1083 C 0.48235 0.24914 0.69085 0.0
C1084 C 0.49782 0.25264 0.64265 0.0
C1085 C 0.49508 0.2477 0.74248 0.0
C1086 C 0.52624 0.25277 0.64604 0.0
C1087 C 0.53907 0.25155 0.69729 0.0
H1088 H 0.75826 0.46121 0.7345 0.0
H1089 H 0.76253 0.53991 0.6575 0.0
H1090 H 0.76957 0.56129 0.74747 0.0
H1091 H 0.76932 0.55816 0.84891 0.0
H1092 H 0.76546 0.47949 0.92605 0.0
H1093 H 0.76403 0.4576 0.83544 0.0
C1094 C 0.76117 0.48301 0.73729 0.0
C1095 C 0.75963 0.49895 0.68915 0.0
C1096 C 0.76526 0.4952 0.78937 0.0
C1097 C 0.76365 0.52713 0.69364 0.0
C1098 C 0.76756 0.5394 0.74523 0.0
C1099 C 0.76886 0.53617 0.84591 0.0
C1100 C 0.76751 0.52052 0.89445 0.0
C1101 C 0.76771 0.52372 0.79351 0.0
C1102 C 0.76685 0.49206 0.88964 0.0
C1103 C 0.7657 0.47953 0.83768 0.0
H1104 H 0.4871 0.24075 0.15494 0.0
H1105 H 0.56244 0.28552 0.14998 0.0
H1106 H 0.55669 0.29871 0.24568 0.0
H1107 H 0.52945 0.2997 0.32982 0.0
H1108 H 0.45543 0.25331 0.33849 0.0
H1109 H 0.46153 0.23859 0.24272 0.0
C1110 C 0.50241 0.25311 0.17497 0.0
C1111 C 0.52493 0.26243 0.14471 0.0
C1112 C 0.49913 0.26058 0.2307 0.0
C1113 C 0.54466 0.27831 0.17169 0.0
C1114 C 0.54143 0.28594 0.22662 0.0
C1115 C 0.51464 0.28638 0.3107 0.0
C1116 C 0.49185 0.27793 0.34081 0.0
C1117 C 0.51854 0.27763 0.2562 0.0
C1118 C 0.47311 0.2602 0.31597 0.0
C1119 C 0.47658 0.25179 0.26123 0.0
H1120 H 0.67246 0.49472 0.36361 0.0
H1121 H 0.75831 0.502 0.39487 0.0
H1122 H 0.76593 0.51493 0.29876 0.0
H1123 H 0.74789 0.5247 0.20484 0.0
H1124 H 0.66175 0.51647 0.17629 0.0
H1125 H 0.65484 0.50341 0.27146 0.0
C1126 C 0.6929 0.49916 0.34968 0.0
C1127 C 0.71472 0.4974 0.38695 0.0
C1128 C 0.69717 0.50643 0.29425 0.0
C1129 C 0.74104 0.50314 0.36744 0.0
C1130 C 0.74543 0.51056 0.31228 0.0
C1131 C 0.72766 0.51991 0.21938 0.0
C1132 C 0.70542 0.52176 0.18283 0.0
C1133 C 0.72363 0.5123 0.2751 0.0
C1134 C 0.67934 0.51545 0.20293 0.0
C1135 C 0.67527 0.50793 0.25768 0.0
H1136 H 0.56013 0.73692 0.33589 0.0
H1137 H 0.48703 0.74288 0.43367 0.0
H1138 H 0.45942 0.73854 0.35119 0.0
H1139 H 0.45578 0.73363 0.25129 0.0
H1140 H 0.52862 0.72777 0.15286 0.0
H1141 H 0.55643 0.73131 0.23556 0.0
C1142 C 0.53818 0.73734 0.33912 0.0
C1143 C 0.52575 0.74032 0.39088 0.0
C1144 C 0.52229 0.73474 0.29142 0.0
C1145 C 0.49722 0.74065 0.39436 0.0
C1146 C 0.48134 0.73814 0.34719 0.0
C1147 C 0.47772 0.73296 0.2479 0.0
C1148 C 0.49004 0.73047 0.19598 0.0
C1149 C 0.49363 0.7352 0.29553 0.0
C1150 C 0.51855 0.72971 0.19235 0.0
C1151 C 0.53452 0.73178 0.23963 0.0
H1152 H 0.25104 0.45501 0.24435 0.0
H1153 H 0.30815 0.50649 0.15996 0.0
H1154 H 0.32099 0.52766 0.2476 0.0
H1155 H 0.31707 0.53032 0.3492 0.0
H1156 H 0.25714 0.48155 0.432 0.0
H1157 H 0.24433 0.46044 0.34433 0.0
C1158 C 0.26614 0.47102 0.24517 0.0
C1159 C 0.27873 0.47909 0.19585 0.0
C1160 C 0.27306 0.4834 0.29555 0.0
C1161 C 0.29805 0.50005 0.19734 0.0
C1162 C 0.30553 0.51202 0.2475 0.0
C1163 C 0.30126 0.51503 0.34784 0.0
C1164 C 0.2883 0.50715 0.39691 0.0
C1165 C 0.29341 0.50363 0.29698 0.0
C1166 C 0.26744 0.48779 0.39469 0.0
C1167 C 0.26013 0.47574 0.34462 0.0
loop_
_geom_bond_atom_site_label_1
_geom_bond_atom_site_label_2
_geom_bond_distance
_geom_bond_site_symmetry_2
_ccdc_geom_bond_type
Co0 N4 2.148 . S
Co0 N10 2.128 1_455 S
Co0 N20 2.194 . S
Co0 O25 2.351 . S
Co0 O26 2.155 . S
Co0 O27 2.096 1_554 S
C1 N4 1.301 . S
C1 N5 1.328 . S
C1 H6 0.930 . S
C2 C3 1.333 . S
C2 N4 1.317 1_556 S
C2 H7 0.930 . S
C3 C2 1.333 . S
C3 N5 1.350 1_556 S
C3 H29 0.931 . S
N4 Co0 2.148 . S
N4 C1 1.301 . S
N4 C2 1.317 1_554 S
N5 C1 1.328 . S
N5 C3 1.350 1_554 S
H6 C1 0.930 . S
H7 C2 0.930 . S
C8 O9 1.224 . S
C8 O27 1.247 . S
O9 C8 1.224 . S
N10 Co0 2.128 1_655 S
N10 C11 1.355 1_655 S
N10 C13 1.311 1_554 S
C11 N10 1.355 1_455 S
C11 C12 1.363 1_455 S
C11 H23 0.929 . S
C12 C11 1.363 1_655 S
C12 N14 1.375 . S
C12 H30 0.931 . S
C13 N10 1.311 1_556 S
C13 N14 1.347 1_556 S
C13 H24 0.929 . S
N14 C12 1.375 . S
N14 C13 1.347 1_554 S
C15 C18 1.365 . S
C15 N20 1.328 . S
C15 H21 0.929 . S
C16 C17 1.362 1_556 S
C16 C19 1.378 . S
C16 H31 0.929 . S
C17 C16 1.362 1_554 S
C17 C18 1.366 . S
C18 C15 1.365 . S
C18 C17 1.366 . S
C18 H32 0.930 . S
C19 C16 1.378 . S
C19 N20 1.315 1_556 S
C19 H22 0.930 . S
N20 Co0 2.194 . S
N20 C15 1.328 . S
N20 C19 1.315 1_554 S
H21 C15 0.929 . S
H22 C19 0.930 . S
H23 C11 0.929 . S
H24 C13 0.929 . S
O25 Co0 2.351 . S
O25 C28 1.244 . S
O26 Co0 2.155 . S
O26 C28 1.240 . S
O27 Co0 2.096 1_556 S
O27 C8 1.247 . S
C28 O25 1.244 . S
C28 O26 1.240 . S
H29 C3 0.931 . S
H30 C12 0.931 . S
H31 C16 0.929 . S
H32 C18 0.930 . S
Co33 N37 2.148 . S
Co33 N43 2.128 1_545 S
Co33 N53 2.194 . S
Co33 O58 2.351 . S
Co33 O59 2.155 . S
Co33 O60 2.096 1_554 S
C34 N37 1.301 . S
C34 N38 1.328 . S
C34 H39 0.930 . S
C35 C36 1.333 . S
C35 N37 1.317 1_556 S
C35 H40 0.930 . S
C36 C35 1.333 . S
C36 N38 1.350 1_556 S
C36 H62 0.931 . S
N37 Co33 2.148 . S
N37 C34 1.301 . S
N37 C35 1.317 1_554 S
N38 C34 1.328 . S
N38 C36 1.350 1_554 S
H39 C34 0.930 . S
H40 C35 0.930 . S
C41 O42 1.224 . S
C41 O60 1.247 . S
O42 C41 1.224 . S
N43 Co33 2.128 1_565 S
N43 C44 1.355 1_565 S
N43 C46 1.311 1_554 S
C44 N43 1.355 1_545 S
C44 C45 1.363 1_545 S
C44 H56 0.929 . S
C45 C44 1.363 1_565 S
C45 N47 1.375 . S
C45 H63 0.931 . S
C46 N43 1.311 1_556 S
C46 N47 1.347 1_556 S
C46 H57 0.929 . S
N47 C45 1.375 . S
N47 C46 1.347 1_554 S
C48 C51 1.365 . S
C48 N53 1.328 . S
C48 H54 0.929 . S
C49 C50 1.362 1_556 S
C49 C52 1.378 . S
C49 H64 0.929 . S
C50 C49 1.362 1_554 S
C50 C51 1.366 . S
C51 C48 1.365 . S
C51 C50 1.366 . S
C51 H65 0.930 . S
C52 C49 1.378 . S
C52 N53 1.315 1_556 S
C52 H55 0.930 . S
N53 Co33 2.194 . S
N53 C48 1.328 . S
N53 C52 1.315 1_554 S
H54 C48 0.929 . S
H55 C52 0.930 . S
H56 C44 0.929 . S
H57 C46 0.929 . S
O58 Co33 2.351 . S
O58 C61 1.244 . S
O59 Co33 2.155 . S
O59 C61 1.240 . S
O60 Co33 2.096 1_556 S
O60 C41 1.247 . S
C61 O58 1.244 . S
C61 O59 1.240 . S
H62 C36 0.931 . S
H63 C45 0.931 . S
H64 C49 0.929 . S
H65 C51 0.930 . S
Co66 N70 2.148 . S
Co66 N76 2.128 1_655 S
Co66 N86 2.194 . S
Co66 O91 2.351 . S
Co66 O92 2.155 . S
Co66 O93 2.096 1_554 S
C67 N70 1.301 . S
C67 N71 1.328 . S
C67 H72 0.930 . S
C68 C69 1.333 . S
C68 N70 1.317 1_556 S
C68 H73 0.930 . S
C69 C68 1.333 . S
C69 N71 1.350 1_556 S
C69 H95 0.931 . S
N70 Co66 2.148 . S
N70 C67 1.301 . S
N70 C68 1.317 1_554 S
N71 C67 1.328 . S
N71 C69 1.350 1_554 S
H72 C67 0.930 . S
H73 C68 0.930 . S
C74 O75 1.224 . S
C74 O93 1.247 . S
O75 C74 1.224 . S
N76 Co66 2.128 1_455 S
N76 C77 1.355 1_455 S
N76 C79 1.311 1_554 S
C77 N76 1.355 1_655 S
C77 C78 1.363 1_655 S
C77 H89 0.929 . S
C78 C77 1.363 1_455 S
C78 N80 1.375 . S
C78 H96 0.931 . S
C79 N76 1.311 1_556 S
C79 N80 1.347 1_556 S
C79 H90 0.929 . S
N80 C78 1.375 . S
N80 C79 1.347 1_554 S
C81 C84 1.365 . S
C81 N86 1.328 . S
C81 H87 0.929 . S
C82 C83 1.362 1_556 S
C82 C85 1.378 . S
C82 H97 0.929 . S
C83 C82 1.362 1_554 S
C83 C84 1.366 . S
C84 C81 1.365 . S
C84 C83 1.366 . S
C84 H98 0.930 . S
C85 C82 1.378 . S
C85 N86 1.315 1_556 S
C85 H88 0.930 . S
N86 Co66 2.194 . S
N86 C81 1.328 . S
N86 C85 1.315 1_554 S
H87 C81 0.929 . S
H88 C85 0.930 . S
H89 C77 0.929 . S
H90 C79 0.929 . S
O91 Co66 2.351 . S
O91 C94 1.244 . S
O92 Co66 2.155 . S
O92 C94 1.240 . S
O93 Co66 2.096 1_556 S
O93 C74 1.247 . S
C94 O91 1.244 . S
C94 O92 1.240 . S
H95 C69 0.931 . S
H96 C78 0.931 . S
H97 C82 0.929 . S
H98 C84 0.930 . S
Co99 N103 2.148 . S
Co99 N109 2.128 1_565 S
Co99 N119 2.194 . S
Co99 O124 2.351 . S
Co99 O125 2.155 . S
Co99 O126 2.096 1_554 S
C100 N103 1.301 . S
C100 N104 1.328 . S
C100 H105 0.930 . S
C101 C102 1.333 . S
C101 N103 1.317 1_556 S
C101 H106 0.930 . S
C102 C101 1.333 . S
C102 N104 1.350 1_556 S
C102 H128 0.931 . S
N103 Co99 2.148 . S
N103 C100 1.301 . S
N103 C101 1.317 1_554 S
N104 C100 1.328 . S
N104 C102 1.350 1_554 S
H105 C100 0.930 . S
H106 C101 0.930 . S
C107 O108 1.224 . S
C107 O126 1.247 . S
O108 C107 1.224 . S
N109 Co99 2.128 1_545 S
N109 C110 1.355 1_545 S
N109 C112 1.311 1_554 S
C110 N109 1.355 1_565 S
C110 C111 1.363 1_565 S
C110 H122 0.929 . S
C111 C110 1.363 1_545 S
C111 N113 1.375 . S
C111 H129 0.931 . S
C112 N109 1.311 1_556 S
C112 N113 1.347 1_556 S
C112 H123 0.929 . S
N113 C111 1.375 . S
N113 C112 1.347 1_554 S
C114 C117 1.365 . S
C114 N119 1.328 . S
C114 H120 0.929 . S
C115 C116 1.362 1_556 S
C115 C118 1.378 . S
C115 H130 0.929 . S
C116 C115 1.362 1_554 S
C116 C117 1.366 . S
C117 C114 1.365 . S
C117 C116 1.366 . S
C117 H131 0.930 . S
C118 C115 1.378 . S
C118 N119 1.315 1_556 S
C118 H121 0.930 . S
N119 Co99 2.194 . S
N119 C114 1.328 . S
N119 C118 1.315 1_554 S
H120 C114 0.929 . S
H121 C118 0.930 . S
H122 C110 0.929 . S
H123 C112 0.929 . S
O124 Co99 2.351 . S
O124 C127 1.244 . S
O125 Co99 2.155 . S
O125 C127 1.240 . S
O126 Co99 2.096 1_556 S
O126 C107 1.247 . S
C127 O124 1.244 . S
C127 O125 1.240 . S
H128 C102 0.931 . S
H129 C111 0.931 . S
H130 C115 0.929 . S
H131 C117 0.930 . S
Co132 N136 2.148 . S
Co132 N142 2.128 1_455 S
Co132 N152 2.194 . S
Co132 O157 2.351 . S
Co132 O158 2.155 . S
Co132 O159 2.096 . S
C133 N136 1.301 . S
C133 N137 1.328 . S
C133 H138 0.930 . S
C134 C135 1.333 . S
C134 N136 1.317 . S
C134 H139 0.930 . S
C135 C134 1.333 . S
C135 N137 1.350 . S
C135 H161 0.931 . S
N136 Co132 2.148 . S
N136 C133 1.301 . S
N136 C134 1.317 . S
N137 C133 1.328 . S
N137 C135 1.350 . S
H138 C133 0.930 . S
H139 C134 0.930 . S
C140 O141 1.224 . S
C140 O159 1.247 . S
O141 C140 1.224 . S
N142 Co132 2.128 1_655 S
N142 C143 1.355 1_655 S
N142 C145 1.311 . S
C143 N142 1.355 1_455 S
C143 C144 1.363 1_455 S
C143 H155 0.929 . S
C144 C143 1.363 1_655 S
C144 N146 1.375 . S
C144 H162 0.931 . S
C145 N142 1.311 . S
C145 N146 1.347 . S
C145 H156 0.929 . S
N146 C144 1.375 . S
N146 C145 1.347 . S
C147 C150 1.365 . S
C147 N152 1.328 . S
C147 H153 0.929 . S
C148 C149 1.362 . S
C148 C151 1.378 . S
C148 H163 0.929 . S
C149 C148 1.362 . S
C149 C150 1.366 . S
C150 C147 1.365 . S
C150 C149 1.366 . S
C150 H164 0.930 . S
C151 C148 1.378 . S
C151 N152 1.315 . S
C151 H154 0.930 . S
N152 Co132 2.194 . S
N152 C147 1.328 . S
N152 C151 1.315 . S
H153 C147 0.929 . S
H154 C151 0.930 . S
H155 C143 0.929 . S
H156 C145 0.929 . S
O157 Co132 2.351 . S
O157 C160 1.244 . S
O158 Co132 2.155 . S
O158 C160 1.240 . S
O159 Co132 2.096 . S
O159 C140 1.247 . S
C160 O157 1.244 . S
C160 O158 1.240 . S
H161 C135 0.931 . S
H162 C144 0.931 . S
H163 C148 0.929 . S
H164 C150 0.930 . S
Co165 N169 2.148 . S
Co165 N175 2.128 1_545 S
Co165 N185 2.194 . S
Co165 O190 2.351 . S
Co165 O191 2.155 . S
Co165 O192 2.096 . S
C166 N169 1.301 . S
C166 N170 1.328 . S
C166 H171 0.930 . S
C167 C168 1.333 . S
C167 N169 1.317 . S
C167 H172 0.930 . S
C168 C167 1.333 . S
C168 N170 1.350 . S
C168 H194 0.931 . S
N169 Co165 2.148 . S
N169 C166 1.301 . S
N169 C167 1.317 . S
N170 C166 1.328 . S
N170 C168 1.350 . S
H171 C166 0.930 . S
H172 C167 0.930 . S
C173 O174 1.224 . S
C173 O192 1.247 . S
O174 C173 1.224 . S
N175 Co165 2.128 1_565 S
N175 C176 1.355 1_565 S
N175 C178 1.311 . S
C176 N175 1.355 1_545 S
C176 C177 1.363 1_545 S
C176 H188 0.929 . S
C177 C176 1.363 1_565 S
C177 N179 1.375 . S
C177 H195 0.931 . S
C178 N175 1.311 . S
C178 N179 1.347 . S
C178 H189 0.929 . S
N179 C177 1.375 . S
N179 C178 1.347 . S
C180 C183 1.365 . S
C180 N185 1.328 . S
C180 H186 0.929 . S
C181 C182 1.362 . S
C181 C184 1.378 . S
C181 H196 0.929 . S
C182 C181 1.362 . S
C182 C183 1.366 . S
C183 C180 1.365 . S
C183 C182 1.366 . S
C183 H197 0.930 . S
C184 C181 1.378 . S
C184 N185 1.315 . S
C184 H187 0.930 . S
N185 Co165 2.194 . S
N185 C180 1.328 . S
N185 C184 1.315 . S
H186 C180 0.929 . S
H187 C184 0.930 . S
H188 C176 0.929 . S
H189 C178 0.929 . S
O190 Co165 2.351 . S
O190 C193 1.244 . S
O191 Co165 2.155 . S
O191 C193 1.240 . S
O192 Co165 2.096 . S
O192 C173 1.247 . S
C193 O190 1.244 . S
C193 O191 1.240 . S
H194 C168 0.931 . S
H195 C177 0.931 . S
H196 C181 0.929 . S
H197 C183 0.930 . S
Co198 N202 2.148 . S
Co198 N208 2.128 1_655 S
Co198 N218 2.194 . S
Co198 O223 2.351 . S
Co198 O224 2.155 . S
Co198 O225 2.096 . S
C199 N202 1.301 . S
C199 N203 1.328 . S
C199 H204 0.930 . S
C200 C201 1.333 . S
C200 N202 1.317 . S
C200 H205 0.930 . S
C201 C200 1.333 . S
C201 N203 1.350 . S
C201 H227 0.931 . S
N202 Co198 2.148 . S
N202 C199 1.301 . S
N202 C200 1.317 . S
N203 C199 1.328 . S
N203 C201 1.350 . S
H204 C199 0.930 . S
H205 C200 0.930 . S
C206 O207 1.224 . S
C206 O225 1.247 . S
O207 C206 1.224 . S
N208 Co198 2.128 1_455 S
N208 C209 1.355 1_455 S
N208 C211 1.311 . S
C209 N208 1.355 1_655 S
C209 C210 1.363 1_655 S
C209 H221 0.929 . S
C210 C209 1.363 1_455 S
C210 N212 1.375 . S
C210 H228 0.931 . S
C211 N208 1.311 . S
C211 N212 1.347 . S
C211 H222 0.929 . S
N212 C210 1.375 . S
N212 C211 1.347 . S
C213 C216 1.365 . S
C213 N218 1.328 . S
C213 H219 0.929 . S
C214 C215 1.362 . S
C214 C217 1.378 . S
C214 H229 0.929 . S
C215 C214 1.362 . S
C215 C216 1.366 . S
C216 C213 1.365 . S
C216 C215 1.366 . S
C216 H230 0.930 . S
C217 C214 1.378 . S
C217 N218 1.315 . S
C217 H220 0.930 . S
N218 Co198 2.194 . S
N218 C213 1.328 . S
N218 C217 1.315 . S
H219 C213 0.929 . S
H220 C217 0.930 . S
H221 C209 0.929 . S
H222 C211 0.929 . S
O223 Co198 2.351 . S
O223 C226 1.244 . S
O224 Co198 2.155 . S
O224 C226 1.240 . S
O225 Co198 2.096 . S
O225 C206 1.247 . S
C226 O223 1.244 . S
C226 O224 1.240 . S
H227 C201 0.931 . S
H228 C210 0.931 . S
H229 C214 0.929 . S
H230 C216 0.930 . S
Co231 N235 2.148 . S
Co231 N241 2.128 1_565 S
Co231 N251 2.194 . S
Co231 O256 2.351 . S
Co231 O257 2.155 . S
Co231 O258 2.096 . S
C232 N235 1.301 . S
C232 N236 1.328 . S
C232 H237 0.930 . S
C233 C234 1.333 . S
C233 N235 1.317 . S
C233 H238 0.930 . S
C234 C233 1.333 . S
C234 N236 1.350 . S
C234 H260 0.931 . S
N235 Co231 2.148 . S
N235 C232 1.301 . S
N235 C233 1.317 . S
N236 C232 1.328 . S
N236 C234 1.350 . S
H237 C232 0.930 . S
H238 C233 0.930 . S
C239 O240 1.224 . S
C239 O258 1.247 . S
O240 C239 1.224 . S
N241 Co231 2.128 1_545 S
N241 C242 1.355 1_545 S
N241 C244 1.311 . S
C242 N241 1.355 1_565 S
C242 C243 1.363 1_565 S
C242 H254 0.929 . S
C243 C242 1.363 1_545 S
C243 N245 1.375 . S
C243 H261 0.931 . S
C244 N241 1.311 . S
C244 N245 1.347 . S
C244 H255 0.929 . S
N245 C243 1.375 . S
N245 C244 1.347 . S
C246 C249 1.365 . S
C246 N251 1.328 . S
C246 H252 0.929 . S
C247 C248 1.362 . S
C247 C250 1.378 . S
C247 H262 0.929 . S
C248 C247 1.362 . S
C248 C249 1.366 . S
C249 C246 1.365 . S
C249 C248 1.366 . S
C249 H263 0.930 . S
C250 C247 1.378 . S
C250 N251 1.315 . S
C250 H253 0.930 . S
N251 Co231 2.194 . S
N251 C246 1.328 . S
N251 C250 1.315 . S
H252 C246 0.929 . S
H253 C250 0.930 . S
H254 C242 0.929 . S
H255 C244 0.929 . S
O256 Co231 2.351 . S
O256 C259 1.244 . S
O257 Co231 2.155 . S
O257 C259 1.240 . S
O258 Co231 2.096 . S
O258 C239 1.247 . S
C259 O256 1.244 . S
C259 O257 1.240 . S
H260 C234 0.931 . S
H261 C243 0.931 . S
H262 C247 0.929 . S
H263 C249 0.930 . S
Co264 N268 2.148 . S
Co264 N274 2.128 . S
Co264 N284 2.194 . S
Co264 O289 2.351 . S
Co264 O290 2.155 . S
Co264 O291 2.096 . S
C265 N268 1.301 . S
C265 N269 1.328 . S
C265 H270 0.930 . S
C266 C267 1.333 . S
C266 N268 1.317 . S
C266 H271 0.930 . S
C267 C266 1.333 . S
C267 N269 1.350 . S
C267 H293 0.931 . S
N268 Co264 2.148 . S
N268 C265 1.301 . S
N268 C266 1.317 . S
N269 C265 1.328 . S
N269 C267 1.350 . S
H270 C265 0.930 . S
H271 C266 0.930 . S
C272 O273 1.224 . S
C272 O291 1.247 . S
O273 C272 1.224 . S
N274 Co264 2.128 . S
N274 C275 1.355 . S
N274 C277 1.311 . S
C275 N274 1.355 . S
C275 C276 1.363 . S
C275 H287 0.929 . S
C276 C275 1.363 . S
C276 N278 1.375 . S
C276 H294 0.931 . S
C277 N274 1.311 . S
C277 N278 1.347 . S
C277 H288 0.929 . S
N278 C276 1.375 . S
N278 C277 1.347 . S
C279 C282 1.365 . S
C279 N284 1.328 . S
C279 H285 0.929 . S
C280 C281 1.362 . S
C280 C283 1.378 . S
C280 H295 0.929 . S
C281 C280 1.362 . S
C281 C282 1.366 . S
C282 C279 1.365 . S
C282 C281 1.366 . S
C282 H296 0.930 . S
C283 C280 1.378 . S
C283 N284 1.315 . S
C283 H286 0.930 . S
N284 Co264 2.194 . S
N284 C279 1.328 . S
N284 C283 1.315 . S
H285 C279 0.929 . S
H286 C283 0.930 . S
H287 C275 0.929 . S
H288 C277 0.929 . S
O289 Co264 2.351 . S
O289 C292 1.244 . S
O290 Co264 2.155 . S
O290 C292 1.240 . S
O291 Co264 2.096 . S
O291 C272 1.247 . S
C292 O289 1.244 . S
C292 O290 1.240 . S
H293 C267 0.931 . S
H294 C276 0.931 . S
H295 C280 0.929 . S
H296 C282 0.930 . S
Co297 N301 2.148 . S
Co297 N307 2.128 . S
Co297 N317 2.194 . S
Co297 O322 2.351 . S
Co297 O323 2.155 . S
Co297 O324 2.096 . S
C298 N301 1.301 . S
C298 N302 1.328 . S
C298 H303 0.930 . S
C299 C300 1.333 . S
C299 N301 1.317 . S
C299 H304 0.930 . S
C300 C299 1.333 . S
C300 N302 1.350 . S
C300 H326 0.931 . S
N301 Co297 2.148 . S
N301 C298 1.301 . S
N301 C299 1.317 . S
N302 C298 1.328 . S
N302 C300 1.350 . S
H303 C298 0.930 . S
H304 C299 0.930 . S
C305 O306 1.224 . S
C305 O324 1.247 . S
O306 C305 1.224 . S
N307 Co297 2.128 . S
N307 C308 1.355 . S
N307 C310 1.311 . S
C308 N307 1.355 . S
C308 C309 1.363 . S
C308 H320 0.929 . S
C309 C308 1.363 . S
C309 N311 1.375 . S
C309 H327 0.931 . S
C310 N307 1.311 . S
C310 N311 1.347 . S
C310 H321 0.929 . S
N311 C309 1.375 . S
N311 C310 1.347 . S
C312 C315 1.365 . S
C312 N317 1.328 . S
C312 H318 0.929 . S
C313 C314 1.362 . S
C313 C316 1.378 . S
C313 H328 0.929 . S
C314 C313 1.362 . S
C314 C315 1.366 . S
C315 C312 1.365 . S
C315 C314 1.366 . S
C315 H329 0.930 . S
C316 C313 1.378 . S
C316 N317 1.315 . S
C316 H319 0.930 . S
N317 Co297 2.194 . S
N317 C312 1.328 . S
N317 C316 1.315 . S
H318 C312 0.929 . S
H319 C316 0.930 . S
H320 C308 0.929 . S
H321 C310 0.929 . S
O322 Co297 2.351 . S
O322 C325 1.244 . S
O323 Co297 2.155 . S
O323 C325 1.240 . S
O324 Co297 2.096 . S
O324 C305 1.247 . S
C325 O322 1.244 . S
C325 O323 1.240 . S
H326 C300 0.931 . S
H327 C309 0.931 . S
H328 C313 0.929 . S
H329 C315 0.930 . S
Co330 N334 2.148 . S
Co330 N340 2.128 . S
Co330 N350 2.194 . S
Co330 O355 2.351 . S
Co330 O356 2.155 . S
Co330 O357 2.096 . S
C331 N334 1.301 . S
C331 N335 1.328 . S
C331 H336 0.930 . S
C332 C333 1.333 . S
C332 N334 1.317 . S
C332 H337 0.930 . S
C333 C332 1.333 . S
C333 N335 1.350 . S
C333 H359 0.931 . S
N334 Co330 2.148 . S
N334 C331 1.301 . S
N334 C332 1.317 . S
N335 C331 1.328 . S
N335 C333 1.350 . S
H336 C331 0.930 . S
H337 C332 0.930 . S
C338 O339 1.224 . S
C338 O357 1.247 . S
O339 C338 1.224 . S
N340 Co330 2.128 . S
N340 C341 1.355 . S
N340 C343 1.311 . S
C341 N340 1.355 . S
C341 C342 1.363 . S
C341 H353 0.929 . S
C342 C341 1.363 . S
C342 N344 1.375 . S
C342 H360 0.931 . S
C343 N340 1.311 . S
C343 N344 1.347 . S
C343 H354 0.929 . S
N344 C342 1.375 . S
N344 C343 1.347 . S
C345 C348 1.365 . S
C345 N350 1.328 . S
C345 H351 0.929 . S
C346 C347 1.362 . S
C346 C349 1.378 . S
C346 H361 0.929 . S
C347 C346 1.362 . S
C347 C348 1.366 . S
C348 C345 1.365 . S
C348 C347 1.366 . S
C348 H362 0.930 . S
C349 C346 1.378 . S
C349 N350 1.315 . S
C349 H352 0.930 . S
N350 Co330 2.194 . S
N350 C345 1.328 . S
N350 C349 1.315 . S
H351 C345 0.929 . S
H352 C349 0.930 . S
H353 C341 0.929 . S
H354 C343 0.929 . S
O355 Co330 2.351 . S
O355 C358 1.244 . S
O356 Co330 2.155 . S
O356 C358 1.240 . S
O357 Co330 2.096 . S
O357 C338 1.247 . S
C358 O355 1.244 . S
C358 O356 1.240 . S
H359 C333 0.931 . S
H360 C342 0.931 . S
H361 C346 0.929 . S
H362 C348 0.930 . S
Co363 N367 2.148 . S
Co363 N373 2.128 . S
Co363 N383 2.194 . S
Co363 O388 2.351 . S
Co363 O389 2.155 . S
Co363 O390 2.096 . S
C364 N367 1.301 . S
C364 N368 1.328 . S
C364 H369 0.930 . S
C365 C366 1.333 . S
C365 N367 1.317 . S
C365 H370 0.930 . S
C366 C365 1.333 . S
C366 N368 1.350 . S
C366 H392 0.931 . S
N367 Co363 2.148 . S
N367 C364 1.301 . S
N367 C365 1.317 . S
N368 C364 1.328 . S
N368 C366 1.350 . S
H369 C364 0.930 . S
H370 C365 0.930 . S
C371 O372 1.224 . S
C371 O390 1.247 . S
O372 C371 1.224 . S
N373 Co363 2.128 . S
N373 C374 1.355 . S
N373 C376 1.311 . S
C374 N373 1.355 . S
C374 C375 1.363 . S
C374 H386 0.929 . S
C375 C374 1.363 . S
C375 N377 1.375 . S
C375 H393 0.931 . S
C376 N373 1.311 . S
C376 N377 1.347 . S
C376 H387 0.929 . S
N377 C375 1.375 . S
N377 C376 1.347 . S
C378 C381 1.365 . S
C378 N383 1.328 . S
C378 H384 0.929 . S
C379 C380 1.362 . S
C379 C382 1.378 . S
C379 H394 0.929 . S
C380 C379 1.362 . S
C380 C381 1.366 . S
C381 C378 1.365 . S
C381 C380 1.366 . S
C381 H395 0.930 . S
C382 C379 1.378 . S
C382 N383 1.315 . S
C382 H385 0.930 . S
N383 Co363 2.194 . S
N383 C378 1.328 . S
N383 C382 1.315 . S
H384 C378 0.929 . S
H385 C382 0.930 . S
H386 C374 0.929 . S
H387 C376 0.929 . S
O388 Co363 2.351 . S
O388 C391 1.244 . S
O389 Co363 2.155 . S
O389 C391 1.240 . S
O390 Co363 2.096 . S
O390 C371 1.247 . S
C391 O388 1.244 . S
C391 O389 1.240 . S
H392 C366 0.931 . S
H393 C375 0.931 . S
H394 C379 0.929 . S
H395 C381 0.930 . S
Co396 N400 2.148 . S
Co396 N406 2.128 . S
Co396 N416 2.194 . S
Co396 O421 2.351 1_554 S
Co396 O422 2.155 1_554 S
Co396 O423 2.096 . S
C397 N400 1.301 . S
C397 N401 1.328 . S
C397 H402 0.930 1_554 S
C398 C399 1.333 . S
C398 N400 1.317 . S
C398 H403 0.930 . S
C399 C398 1.333 . S
C399 N401 1.350 . S
C399 H425 0.931 . S
N400 Co396 2.148 . S
N400 C397 1.301 . S
N400 C398 1.317 . S
N401 C397 1.328 . S
N401 C399 1.350 . S
H402 C397 0.930 1_556 S
H403 C398 0.930 . S
C404 O405 1.224 . S
C404 O423 1.247 . S
O405 C404 1.224 . S
N406 Co396 2.128 . S
N406 C407 1.355 . S
N406 C409 1.311 . S
C407 N406 1.355 . S
C407 C408 1.363 . S
C407 H419 0.929 1_554 S
C408 C407 1.363 . S
C408 N410 1.375 . S
C408 H426 0.931 . S
C409 N406 1.311 . S
C409 N410 1.347 . S
C409 H420 0.929 . S
N410 C408 1.375 . S
N410 C409 1.347 . S
C411 C414 1.365 . S
C411 N416 1.328 . S
C411 H417 0.929 1_554 S
C412 C413 1.362 . S
C412 C415 1.378 . S
C412 H427 0.929 . S
C413 C412 1.362 . S
C413 C414 1.366 . S
C414 C411 1.365 . S
C414 C413 1.366 . S
C414 H428 0.930 1_554 S
C415 C412 1.378 . S
C415 N416 1.315 . S
C415 H418 0.930 . S
N416 Co396 2.194 . S
N416 C411 1.328 . S
N416 C415 1.315 . S
H417 C411 0.929 1_556 S
H418 C415 0.930 . S
H419 C407 0.929 1_556 S
H420 C409 0.929 . S
O421 Co396 2.351 1_556 S
O421 C424 1.244 . S
O422 Co396 2.155 1_556 S
O422 C424 1.240 . S
O423 Co396 2.096 . S
O423 C404 1.247 . S
C424 O421 1.244 . S
C424 O422 1.240 . S
H425 C399 0.931 . S
H426 C408 0.931 . S
H427 C412 0.929 . S
H428 C414 0.930 1_556 S
Co429 N433 2.148 . S
Co429 N439 2.128 . S
Co429 N449 2.194 . S
Co429 O454 2.351 1_554 S
Co429 O455 2.155 1_554 S
Co429 O456 2.096 . S
C430 N433 1.301 . S
C430 N434 1.328 . S
C430 H435 0.930 1_554 S
C431 C432 1.333 . S
C431 N433 1.317 . S
C431 H436 0.930 . S
C432 C431 1.333 . S
C432 N434 1.350 . S
C432 H458 0.931 . S
N433 Co429 2.148 . S
N433 C430 1.301 . S
N433 C431 1.317 . S
N434 C430 1.328 . S
N434 C432 1.350 . S
H435 C430 0.930 1_556 S
H436 C431 0.930 . S
C437 O438 1.224 . S
C437 O456 1.247 . S
O438 C437 1.224 . S
N439 Co429 2.128 . S
N439 C440 1.355 . S
N439 C442 1.311 . S
C440 N439 1.355 . S
C440 C441 1.363 . S
C440 H452 0.929 1_554 S
C441 C440 1.363 . S
C441 N443 1.375 . S
C441 H459 0.931 . S
C442 N439 1.311 . S
C442 N443 1.347 . S
C442 H453 0.929 . S
N443 C441 1.375 . S
N443 C442 1.347 . S
C444 C447 1.365 . S
C444 N449 1.328 . S
C444 H450 0.929 1_554 S
C445 C446 1.362 . S
C445 C448 1.378 . S
C445 H460 0.929 . S
C446 C445 1.362 . S
C446 C447 1.366 . S
C447 C444 1.365 . S
C447 C446 1.366 . S
C447 H461 0.930 1_554 S
C448 C445 1.378 . S
C448 N449 1.315 . S
C448 H451 0.930 . S
N449 Co429 2.194 . S
N449 C444 1.328 . S
N449 C448 1.315 . S
H450 C444 0.929 1_556 S
H451 C448 0.930 . S
H452 C440 0.929 1_556 S
H453 C442 0.929 . S
O454 Co429 2.351 1_556 S
O454 C457 1.244 . S
O455 Co429 2.155 1_556 S
O455 C457 1.240 . S
O456 Co429 2.096 . S
O456 C437 1.247 . S
C457 O454 1.244 . S
C457 O455 1.240 . S
H458 C432 0.931 . S
H459 C441 0.931 . S
H460 C445 0.929 . S
H461 C447 0.930 1_556 S
Co462 N466 2.148 . S
Co462 N472 2.128 . S
Co462 N482 2.194 . S
Co462 O487 2.351 1_554 S
Co462 O488 2.155 1_554 S
Co462 O489 2.096 . S
C463 N466 1.301 . S
C463 N467 1.328 . S
C463 H468 0.930 1_554 S
C464 C465 1.333 . S
C464 N466 1.317 . S
C464 H469 0.930 . S
C465 C464 1.333 . S
C465 N467 1.350 . S
C465 H491 0.931 . S
N466 Co462 2.148 . S
N466 C463 1.301 . S
N466 C464 1.317 . S
N467 C463 1.328 . S
N467 C465 1.350 . S
H468 C463 0.930 1_556 S
H469 C464 0.930 . S
C470 O471 1.224 . S
C470 O489 1.247 . S
O471 C470 1.224 . S
N472 Co462 2.128 . S
N472 C473 1.355 . S
N472 C475 1.311 . S
C473 N472 1.355 . S
C473 C474 1.363 . S
C473 H485 0.929 1_554 S
C474 C473 1.363 . S
C474 N476 1.375 . S
C474 H492 0.931 . S
C475 N472 1.311 . S
C475 N476 1.347 . S
C475 H486 0.929 . S
N476 C474 1.375 . S
N476 C475 1.347 . S
C477 C480 1.365 . S
C477 N482 1.328 . S
C477 H483 0.929 1_554 S
C478 C479 1.362 . S
C478 C481 1.378 . S
C478 H493 0.929 . S
C479 C478 1.362 . S
C479 C480 1.366 . S
C480 C477 1.365 . S
C480 C479 1.366 . S
C480 H494 0.930 1_554 S
C481 C478 1.378 . S
C481 N482 1.315 . S
C481 H484 0.930 . S
N482 Co462 2.194 . S
N482 C477 1.328 . S
N482 C481 1.315 . S
H483 C477 0.929 1_556 S
H484 C481 0.930 . S
H485 C473 0.929 1_556 S
H486 C475 0.929 . S
O487 Co462 2.351 1_556 S
O487 C490 1.244 . S
O488 Co462 2.155 1_556 S
O488 C490 1.240 . S
O489 Co462 2.096 . S
O489 C470 1.247 . S
C490 O487 1.244 . S
C490 O488 1.240 . S
H491 C465 0.931 . S
H492 C474 0.931 . S
H493 C478 0.929 . S
H494 C480 0.930 1_556 S
Co495 N499 2.148 . S
Co495 N505 2.128 . S
Co495 N515 2.194 . S
Co495 O520 2.351 1_554 S
Co495 O521 2.155 1_554 S
Co495 O522 2.096 . S
C496 N499 1.301 . S
C496 N500 1.328 . S
C496 H501 0.930 1_554 S
C497 C498 1.333 . S
C497 N499 1.317 . S
C497 H502 0.930 . S
C498 C497 1.333 . S
C498 N500 1.350 . S
C498 H524 0.931 . S
N499 Co495 2.148 . S
N499 C496 1.301 . S
N499 C497 1.317 . S
N500 C496 1.328 . S
N500 C498 1.350 . S
H501 C496 0.930 1_556 S
H502 C497 0.930 . S
C503 O504 1.224 . S
C503 O522 1.247 . S
O504 C503 1.224 . S
N505 Co495 2.128 . S
N505 C506 1.355 . S
N505 C508 1.311 . S
C506 N505 1.355 . S
C506 C507 1.363 . S
C506 H518 0.929 1_554 S
C507 C506 1.363 . S
C507 N509 1.375 . S
C507 H525 0.931 . S
C508 N505 1.311 . S
C508 N509 1.347 . S
C508 H519 0.929 . S
N509 C507 1.375 . S
N509 C508 1.347 . S
C510 C513 1.365 . S
C510 N515 1.328 . S
C510 H516 0.929 1_554 S
C511 C512 1.362 . S
C511 C514 1.378 . S
C511 H526 0.929 . S
C512 C511 1.362 . S
C512 C513 1.366 . S
C513 C510 1.365 . S
C513 C512 1.366 . S
C513 H527 0.930 1_554 S
C514 C511 1.378 . S
C514 N515 1.315 . S
C514 H517 0.930 . S
N515 Co495 2.194 . S
N515 C510 1.328 . S
N515 C514 1.315 . S
H516 C510 0.929 1_556 S
H517 C514 0.930 . S
H518 C506 0.929 1_556 S
H519 C508 0.929 . S
O520 Co495 2.351 1_556 S
O520 C523 1.244 . S
O521 Co495 2.155 1_556 S
O521 C523 1.240 . S
O522 Co495 2.096 . S
O522 C503 1.247 . S
C523 O520 1.244 . S
C523 O521 1.240 . S
H524 C498 0.931 . S
H525 C507 0.931 . S
H526 C511 0.929 . S
H527 C513 0.930 1_556 S
H528 C534 0.930 1_556 S
H529 C537 0.930 . S
H530 C538 0.930 . S
H531 C539 0.930 . S
H532 C542 0.930 . S
H533 C543 0.930 . S
C534 H528 0.930 1_554 S
C534 C535 1.355 . S
C534 C536 1.415 . S
C535 C534 1.355 . S
C535 C537 1.419 . S
C536 C534 1.415 . S
C536 C541 1.425 . S
C536 C543 1.409 1_554 S
C537 H529 0.930 . S
C537 C535 1.419 . S
C537 C538 1.362 . S
C538 H530 0.930 . S
C538 C537 1.362 . S
C538 C541 1.409 . S
C539 H531 0.930 . S
C539 C540 1.355 . S
C539 C541 1.415 . S
C540 C539 1.355 . S
C540 C542 1.419 1_554 S
C541 C536 1.425 . S
C541 C538 1.409 . S
C541 C539 1.415 . S
C542 H532 0.930 . S
C542 C540 1.419 1_556 S
C542 C543 1.362 . S
C543 H533 0.930 . S
C543 C536 1.409 1_556 S
C543 C542 1.362 . S
H544 C550 0.930 . S
H545 C553 0.930 . S
H546 C554 0.930 . S
H547 C555 0.930 . S
H548 C558 0.930 . S
H549 C559 0.930 . S
C550 H544 0.930 . S
C550 C551 1.355 . S
C550 C552 1.415 . S
C551 C550 1.355 . S
C551 C553 1.419 1_554 S
C552 C550 1.415 . S
C552 C557 1.425 . S
C552 C559 1.409 . S
C553 H545 0.930 . S
C553 C551 1.419 1_556 S
C553 C554 1.362 . S
C554 H546 0.930 . S
C554 C553 1.362 . S
C554 C557 1.409 1_556 S
C555 H547 0.930 . S
C555 C556 1.355 1_556 S
C555 C557 1.415 1_556 S
C556 C555 1.355 1_554 S
C556 C558 1.419 . S
C557 C552 1.425 . S
C557 C554 1.409 1_554 S
C557 C555 1.415 1_554 S
C558 H548 0.930 . S
C558 C556 1.419 . S
C558 C559 1.362 . S
C559 H549 0.930 . S
C559 C552 1.409 . S
C559 C558 1.362 . S
H560 C566 0.930 . S
H561 C569 0.929 1_556 S
H562 C570 0.930 1_556 S
H563 C571 0.930 . S
H564 C574 0.930 . S
H565 C575 0.930 . S
C566 H560 0.930 . S
C566 C567 1.355 . S
C566 C568 1.415 . S
C567 C566 1.355 . S
C567 C569 1.419 . S
C568 C566 1.415 . S
C568 C573 1.425 . S
C568 C575 1.409 . S
C569 H561 0.929 1_554 S
C569 C567 1.419 . S
C569 C570 1.362 . S
C570 H562 0.930 1_554 S
C570 C569 1.362 . S
C570 C573 1.409 . S
C571 H563 0.930 . S
C571 C572 1.355 . S
C571 C573 1.415 . S
C572 C571 1.355 . S
C572 C574 1.419 . S
C573 C568 1.425 . S
C573 C570 1.409 . S
C573 C571 1.415 . S
C574 H564 0.930 . S
C574 C572 1.419 . S
C574 C575 1.362 . S
C575 H565 0.930 . S
C575 C568 1.409 . S
C575 C574 1.362 . S
H576 C582 0.938 . S
H577 C585 0.930 . S
H578 C586 0.930 . S
H579 C587 0.930 . S
H580 C590 0.930 . S
H581 C591 0.930 . S
C582 H576 0.938 . S
C582 C583 1.348 1_556 S
C582 C584 1.413 1_556 S
C583 C582 1.348 1_554 S
C583 C585 1.419 . S
C584 C582 1.413 1_554 S
C584 C589 1.425 . S
C584 C591 1.409 1_554 S
C585 H577 0.930 . S
C585 C583 1.419 . S
C585 C586 1.362 . S
C586 H578 0.930 . S
C586 C585 1.362 . S
C586 C589 1.409 . S
C587 H579 0.930 . S
C587 C588 1.355 . S
C587 C589 1.415 . S
C588 C587 1.355 . S
C588 C590 1.419 1_554 S
C589 C584 1.425 . S
C589 C586 1.409 . S
C589 C587 1.415 . S
C590 H580 0.930 . S
C590 C588 1.419 1_556 S
C590 C591 1.362 . S
C591 H581 0.930 . S
C591 C584 1.409 1_556 S
C591 C590 1.362 . S
H592 C598 0.930 . S
H593 C601 0.930 . S
H594 C602 0.930 . S
H595 C603 0.930 . S
H596 C606 0.930 . S
H597 C607 0.930 . S
C598 H592 0.930 . S
C598 C599 1.355 . S
C598 C600 1.415 . S
C599 C598 1.355 . S
C599 C601 1.419 . S
C600 C598 1.415 . S
C600 C605 1.425 . S
C600 C607 1.409 . S
C601 H593 0.930 . S
C601 C599 1.419 . S
C601 C602 1.362 . S
C602 H594 0.930 . S
C602 C601 1.362 . S
C602 C605 1.409 . S
C603 H595 0.930 . S
C603 C604 1.355 . S
C603 C605 1.415 . S
C604 C603 1.355 . S
C604 C606 1.419 . S
C605 C600 1.425 . S
C605 C602 1.409 . S
C605 C603 1.415 . S
C606 H596 0.930 . S
C606 C604 1.419 . S
C606 C607 1.362 . S
C607 H597 0.930 . S
C607 C600 1.409 . S
C607 C606 1.362 . S
H608 C614 0.930 . S
H609 C617 0.930 . S
H610 C618 0.930 . S
H611 C619 0.930 . S
H612 C622 0.930 . S
H613 C623 0.930 . S
C614 H608 0.930 . S
C614 C615 1.355 . S
C614 C616 1.415 . S
C615 C614 1.355 . S
C615 C617 1.419 . S
C616 C614 1.415 . S
C616 C621 1.425 . S
C616 C623 1.409 . S
C617 H609 0.930 . S
C617 C615 1.419 . S
C617 C618 1.362 . S
C618 H610 0.930 . S
C618 C617 1.362 . S
C618 C621 1.409 . S
C619 H611 0.930 . S
C619 C620 1.355 . S
C619 C621 1.415 . S
C620 C619 1.355 . S
C620 C622 1.419 . S
C621 C616 1.425 . S
C621 C618 1.409 . S
C621 C619 1.415 . S
C622 H612 0.930 . S
C622 C620 1.419 . S
C622 C623 1.362 . S
C623 H613 0.930 . S
C623 C616 1.409 . S
C623 C622 1.362 . S
H624 C630 0.930 . S
H625 C633 0.930 . S
H626 C634 0.930 . S
H627 C635 0.930 . S
H628 C638 0.930 . S
H629 C639 0.930 . S
C630 H624 0.930 . S
C630 C631 1.355 . S
C630 C632 1.415 . S
C631 C630 1.355 . S
C631 C633 1.419 . S
C632 C630 1.415 . S
C632 C637 1.425 . S
C632 C639 1.409 . S
C633 H625 0.930 . S
C633 C631 1.419 . S
C633 C634 1.362 . S
C634 H626 0.930 . S
C634 C633 1.362 . S
C634 C637 1.409 . S
C635 H627 0.930 . S
C635 C636 1.355 . S
C635 C637 1.415 . S
C636 C635 1.355 . S
C636 C638 1.419 . S
C637 C632 1.425 . S
C637 C634 1.409 . S
C637 C635 1.415 . S
C638 H628 0.930 . S
C638 C636 1.419 . S
C638 C639 1.362 . S
C639 H629 0.930 . S
C639 C632 1.409 . S
C639 C638 1.362 . S
H640 C646 0.930 . S
H641 C649 0.930 . S
H642 C650 0.930 . S
H643 C651 0.930 . S
H644 C654 0.930 . S
H645 C655 0.930 . S
C646 H640 0.930 . S
C646 C647 1.355 . S
C646 C648 1.415 . S
C647 C646 1.355 . S
C647 C649 1.419 . S
C648 C646 1.415 . S
C648 C653 1.425 . S
C648 C655 1.409 . S
C649 H641 0.930 . S
C649 C647 1.419 . S
C649 C650 1.362 . S
C650 H642 0.930 . S
C650 C649 1.362 . S
C650 C653 1.409 . S
C651 H643 0.930 . S
C651 C652 1.355 . S
C651 C653 1.415 . S
C652 C651 1.355 . S
C652 C654 1.419 . S
C653 C648 1.425 . S
C653 C650 1.409 . S
C653 C651 1.415 . S
C654 H644 0.930 . S
C654 C652 1.419 . S
C654 C655 1.362 . S
C655 H645 0.930 . S
C655 C648 1.409 . S
C655 C654 1.362 . S
H656 C662 0.930 . S
H657 C665 0.930 . S
H658 C666 0.930 . S
H659 C667 0.930 . S
H660 C670 0.930 . S
H661 C671 0.930 . S
C662 H656 0.930 . S
C662 C663 1.355 1_554 S
C662 C664 1.415 . S
C663 C662 1.355 1_556 S
C663 C665 1.419 . S
C664 C662 1.415 . S
C664 C669 1.425 1_554 S
C664 C671 1.409 . S
C665 H657 0.930 . S
C665 C663 1.419 . S
C665 C666 1.362 . S
C666 H658 0.930 . S
C666 C665 1.362 . S
C666 C669 1.409 . S
C667 H659 0.930 . S
C667 C668 1.355 1_556 S
C667 C669 1.415 . S
C668 C667 1.355 1_554 S
C668 C670 1.419 . S
C669 C664 1.425 1_556 S
C669 C666 1.409 . S
C669 C667 1.415 . S
C670 H660 0.930 . S
C670 C668 1.419 . S
C670 C671 1.362 . S
C671 H661 0.930 . S
C671 C664 1.409 . S
C671 C670 1.362 . S
H672 C678 0.930 . S
H673 C681 0.930 . S
H674 C682 0.932 . S
H675 C683 0.930 . S
H676 C686 0.930 . S
H677 C687 0.930 . S
C678 H672 0.930 . S
C678 C679 1.355 . S
C678 C680 1.415 . S
C679 C678 1.355 . S
C679 C681 1.419 . S
C680 C678 1.415 . S
C680 C685 1.426 . S
C680 C687 1.409 . S
C681 H673 0.930 . S
C681 C679 1.419 . S
C681 C682 1.361 1_556 S
C682 H674 0.932 . S
C682 C681 1.361 1_554 S
C682 C685 1.409 1_554 S
C683 H675 0.930 . S
C683 C684 1.355 . S
C683 C685 1.414 1_554 S
C684 C683 1.355 . S
C684 C686 1.419 1_554 S
C685 C680 1.426 . S
C685 C682 1.409 1_556 S
C685 C683 1.414 1_556 S
C686 H676 0.930 . S
C686 C684 1.419 1_556 S
C686 C687 1.362 . S
C687 H677 0.930 . S
C687 C680 1.409 . S
C687 C686 1.362 . S
H688 C694 0.930 . S
H689 C697 0.930 . S
H690 C698 0.930 . S
H691 C699 0.930 . S
H692 C702 0.930 . S
H693 C703 0.930 . S
C694 H688 0.930 . S
C694 C695 1.355 1_556 S
C694 C696 1.415 . S
C695 C694 1.355 1_554 S
C695 C697 1.419 . S
C696 C694 1.415 . S
C696 C701 1.425 1_556 S
C696 C703 1.409 . S
C697 H689 0.930 . S
C697 C695 1.419 . S
C697 C698 1.362 . S
C698 H690 0.930 . S
C698 C697 1.362 . S
C698 C701 1.409 . S
C699 H691 0.930 . S
C699 C700 1.355 1_554 S
C699 C701 1.415 . S
C700 C699 1.355 1_556 S
C700 C702 1.419 . S
C701 C696 1.425 1_554 S
C701 C698 1.409 . S
C701 C699 1.415 . S
C702 H692 0.930 . S
C702 C700 1.419 . S
C702 C703 1.362 . S
C703 H693 0.930 . S
C703 C696 1.409 . S
C703 C702 1.362 . S
H704 C710 0.930 . S
H705 C713 0.930 . S
H706 C714 0.930 . S
H707 C715 0.930 . S
H708 C718 0.930 . S
H709 C719 0.930 1_554 S
C710 H704 0.930 . S
C710 C711 1.355 . S
C710 C712 1.413 1_554 S
C711 C710 1.355 . S
C711 C713 1.419 1_554 S
C712 C710 1.413 1_556 S
C712 C717 1.427 . S
C712 C719 1.409 . S
C713 H705 0.930 . S
C713 C711 1.419 1_556 S
C713 C714 1.362 . S
C714 H706 0.930 . S
C714 C713 1.362 . S
C714 C717 1.409 . S
C715 H707 0.930 . S
C715 C716 1.355 . S
C715 C717 1.415 . S
C716 C715 1.355 . S
C716 C718 1.419 . S
C717 C712 1.427 . S
C717 C714 1.409 . S
C717 C715 1.415 . S
C718 H708 0.930 . S
C718 C716 1.419 . S
C718 C719 1.363 . S
C719 H709 0.930 1_556 S
C719 C712 1.409 . S
C719 C718 1.363 . S
H720 C726 0.930 . S
H721 C729 0.930 . S
H722 C730 0.930 . S
H723 C731 0.930 . S
H724 C734 0.930 . S
H725 C735 0.930 . S
C726 H720 0.930 . S
C726 C727 1.355 . S
C726 C728 1.415 . S
C727 C726 1.355 . S
C727 C729 1.419 . S
C728 C726 1.415 . S
C728 C733 1.425 . S
C728 C735 1.409 . S
C729 H721 0.930 . S
C729 C727 1.419 . S
C729 C730 1.362 . S
C730 H722 0.930 . S
C730 C729 1.362 . S
C730 C733 1.409 . S
C731 H723 0.930 . S
C731 C732 1.355 . S
C731 C733 1.415 . S
C732 C731 1.355 . S
C732 C734 1.419 . S
C733 C728 1.425 . S
C733 C730 1.409 . S
C733 C731 1.415 . S
C734 H724 0.930 . S
C734 C732 1.419 . S
C734 C735 1.362 . S
C735 H725 0.930 . S
C735 C728 1.409 . S
C735 C734 1.362 . S
H736 C742 0.930 . S
H737 C745 0.930 . S
H738 C746 0.930 . S
H739 C747 0.930 . S
H740 C750 0.930 . S
H741 C751 0.930 . S
C742 H736 0.930 . S
C742 C743 1.355 . S
C742 C744 1.415 . S
C743 C742 1.355 . S
C743 C745 1.419 . S
C744 C742 1.415 . S
C744 C749 1.425 . S
C744 C751 1.409 . S
C745 H737 0.930 . S
C745 C743 1.419 . S
C745 C746 1.362 . S
C746 H738 0.930 . S
C746 C745 1.362 . S
C746 C749 1.409 . S
C747 H739 0.930 . S
C747 C748 1.355 . S
C747 C749 1.415 . S
C748 C747 1.355 . S
C748 C750 1.419 . S
C749 C744 1.425 . S
C749 C746 1.409 . S
C749 C747 1.415 . S
C750 H740 0.930 . S
C750 C748 1.419 . S
C750 C751 1.362 . S
C751 H741 0.930 . S
C751 C744 1.409 . S
C751 C750 1.362 . S
H752 C758 0.930 . S
H753 C761 0.930 . S
H754 C762 0.930 . S
H755 C763 0.930 . S
H756 C766 0.930 . S
H757 C767 0.930 . S
C758 H752 0.930 . S
C758 C759 1.355 . S
C758 C760 1.415 . S
C759 C758 1.355 . S
C759 C761 1.419 . S
C760 C758 1.415 . S
C760 C765 1.425 . S
C760 C767 1.409 . S
C761 H753 0.930 . S
C761 C759 1.419 . S
C761 C762 1.362 . S
C762 H754 0.930 . S
C762 C761 1.362 . S
C762 C765 1.409 . S
C763 H755 0.930 . S
C763 C764 1.355 . S
C763 C765 1.415 . S
C764 C763 1.355 . S
C764 C766 1.419 . S
C765 C760 1.425 . S
C765 C762 1.409 . S
C765 C763 1.415 . S
C766 H756 0.930 . S
C766 C764 1.419 . S
C766 C767 1.362 . S
C767 H757 0.930 . S
C767 C760 1.409 . S
C767 C766 1.362 . S
H768 C774 0.930 . S
H769 C777 0.930 . S
H770 C778 0.930 . S
H771 C779 0.930 . S
H772 C782 0.930 . S
H773 C783 0.930 . S
C774 H768 0.930 . S
C774 C775 1.355 . S
C774 C776 1.415 . S
C775 C774 1.355 . S
C775 C777 1.419 . S
C776 C774 1.415 . S
C776 C781 1.425 . S
C776 C783 1.409 . S
C777 H769 0.930 . S
C777 C775 1.419 . S
C777 C778 1.362 . S
C778 H770 0.930 . S
C778 C777 1.362 . S
C778 C781 1.409 . S
C779 H771 0.930 . S
C779 C780 1.355 . S
C779 C781 1.415 . S
C780 C779 1.355 . S
C780 C782 1.419 . S
C781 C776 1.425 . S
C781 C778 1.409 . S
C781 C779 1.415 . S
C782 H772 0.930 . S
C782 C780 1.419 . S
C782 C783 1.362 . S
C783 H773 0.930 . S
C783 C776 1.409 . S
C783 C782 1.362 . S
H784 C790 0.930 . S
H785 C793 0.930 . S
H786 C794 0.930 . S
H787 C795 0.930 . S
H788 C798 0.930 . S
H789 C799 0.930 . S
C790 H784 0.930 . S
C790 C791 1.355 . S
C790 C792 1.415 . S
C791 C790 1.355 . S
C791 C793 1.419 . S
C792 C790 1.415 . S
C792 C797 1.425 . S
C792 C799 1.409 . S
C793 H785 0.930 . S
C793 C791 1.419 . S
C793 C794 1.362 . S
C794 H786 0.930 . S
C794 C793 1.362 . S
C794 C797 1.409 . S
C795 H787 0.930 . S
C795 C796 1.355 . S
C795 C797 1.415 . S
C796 C795 1.355 . S
C796 C798 1.419 . S
C797 C792 1.425 . S
C797 C794 1.409 . S
C797 C795 1.415 . S
C798 H788 0.930 . S
C798 C796 1.419 . S
C798 C799 1.362 . S
C799 H789 0.930 . S
C799 C792 1.409 . S
C799 C798 1.362 . S
H800 C806 0.930 . S
H801 C809 0.930 . S
H802 C810 0.930 . S
H803 C811 0.930 . S
H804 C814 0.930 . S
H805 C815 0.930 . S
C806 H800 0.930 . S
C806 C807 1.355 . S
C806 C808 1.415 . S
C807 C806 1.355 . S
C807 C809 1.419 . S
C808 C806 1.415 . S
C808 C813 1.425 . S
C808 C815 1.409 . S
C809 H801 0.930 . S
C809 C807 1.419 . S
C809 C810 1.362 . S
C810 H802 0.930 . S
C810 C809 1.362 . S
C810 C813 1.409 . S
C811 H803 0.930 . S
C811 C812 1.355 . S
C811 C813 1.415 . S
C812 C811 1.355 . S
C812 C814 1.419 . S
C813 C808 1.425 . S
C813 C810 1.409 . S
C813 C811 1.415 . S
C814 H804 0.930 . S
C814 C812 1.419 . S
C814 C815 1.362 . S
C815 H805 0.930 . S
C815 C808 1.409 . S
C815 C814 1.362 . S
H816 C822 0.930 . S
H817 C825 0.930 . S
H818 C826 0.930 . S
H819 C827 0.930 . S
H820 C830 0.930 . S
H821 C831 0.930 . S
C822 H816 0.930 . S
C822 C823 1.355 . S
C822 C824 1.415 . S
C823 C822 1.355 . S
C823 C825 1.419 . S
C824 C822 1.415 . S
C824 C829 1.425 . S
C824 C831 1.409 . S
C825 H817 0.930 . S
C825 C823 1.419 . S
C825 C826 1.362 . S
C826 H818 0.930 . S
C826 C825 1.362 . S
C826 C829 1.409 . S
C827 H819 0.930 . S
C827 C828 1.355 . S
C827 C829 1.415 . S
C828 C827 1.355 . S
C828 C830 1.419 . S
C829 C824 1.425 . S
C829 C826 1.409 . S
C829 C827 1.415 . S
C830 H820 0.930 . S
C830 C828 1.419 . S
C830 C831 1.362 . S
C831 H821 0.930 . S
C831 C824 1.409 . S
C831 C830 1.362 . S
H832 C838 0.930 . S
H833 C841 0.930 . S
H834 C842 0.930 . S
H835 C843 0.930 . S
H836 C846 0.930 . S
H837 C847 0.930 . S
C838 H832 0.930 . S
C838 C839 1.355 . S
C838 C840 1.415 . S
C839 C838 1.355 . S
C839 C841 1.419 . S
C840 C838 1.415 . S
C840 C845 1.425 . S
C840 C847 1.409 . S
C841 H833 0.930 . S
C841 C839 1.419 . S
C841 C842 1.362 . S
C842 H834 0.930 . S
C842 C841 1.362 . S
C842 C845 1.409 . S
C843 H835 0.930 . S
C843 C844 1.355 . S
C843 C845 1.415 . S
C844 C843 1.355 . S
C844 C846 1.419 . S
C845 C840 1.425 . S
C845 C842 1.409 . S
C845 C843 1.415 . S
C846 H836 0.930 . S
C846 C844 1.419 . S
C846 C847 1.362 . S
C847 H837 0.930 . S
C847 C840 1.409 . S
C847 C846 1.362 . S
H848 C854 0.930 . S
H849 C857 0.930 . S
H850 C858 0.930 . S
H851 C859 0.930 . S
H852 C862 0.930 . S
H853 C863 0.930 . S
C854 H848 0.930 . S
C854 C855 1.355 . S
C854 C856 1.415 . S
C855 C854 1.355 . S
C855 C857 1.419 . S
C856 C854 1.415 . S
C856 C861 1.425 . S
C856 C863 1.409 . S
C857 H849 0.930 . S
C857 C855 1.419 . S
C857 C858 1.362 . S
C858 H850 0.930 . S
C858 C857 1.362 . S
C858 C861 1.409 . S
C859 H851 0.930 . S
C859 C860 1.355 . S
C859 C861 1.415 . S
C860 C859 1.355 . S
C860 C862 1.419 . S
C861 C856 1.425 . S
C861 C858 1.409 . S
C861 C859 1.415 . S
C862 H852 0.930 . S
C862 C860 1.419 . S
C862 C863 1.362 . S
C863 H853 0.930 . S
C863 C856 1.409 . S
C863 C862 1.362 . S
H864 C870 0.930 . S
H865 C873 0.930 . S
H866 C874 0.930 . S
H867 C875 0.930 . S
H868 C878 0.930 1_556 S
H869 C879 0.930 1_556 S
C870 H864 0.930 . S
C870 C871 1.355 . S
C870 C872 1.415 . S
C871 C870 1.355 . S
C871 C873 1.419 . S
C872 C870 1.415 . S
C872 C877 1.425 . S
C872 C879 1.409 . S
C873 H865 0.930 . S
C873 C871 1.419 . S
C873 C874 1.362 . S
C874 H866 0.930 . S
C874 C873 1.362 . S
C874 C877 1.409 . S
C875 H867 0.930 . S
C875 C876 1.355 . S
C875 C877 1.415 . S
C876 C875 1.355 . S
C876 C878 1.419 . S
C877 C872 1.425 . S
C877 C874 1.409 . S
C877 C875 1.415 . S
C878 H868 0.930 1_554 S
C878 C876 1.419 . S
C878 C879 1.362 . S
C879 H869 0.930 1_554 S
C879 C872 1.409 . S
C879 C878 1.362 . S
H880 C886 0.930 . S
H881 C889 0.930 . S
H882 C890 0.930 . S
H883 C891 0.930 . S
H884 C894 0.930 . S
H885 C895 0.930 . S
C886 H880 0.930 . S
C886 C887 1.355 . S
C886 C888 1.415 . S
C887 C886 1.355 . S
C887 C889 1.419 . S
C888 C886 1.415 . S
C888 C893 1.425 . S
C888 C895 1.409 . S
C889 H881 0.930 . S
C889 C887 1.419 . S
C889 C890 1.362 . S
C890 H882 0.930 . S
C890 C889 1.362 . S
C890 C893 1.409 . S
C891 H883 0.930 . S
C891 C892 1.355 . S
C891 C893 1.415 . S
C892 C891 1.355 . S
C892 C894 1.419 . S
C893 C888 1.425 . S
C893 C890 1.409 . S
C893 C891 1.415 . S
C894 H884 0.930 . S
C894 C892 1.419 . S
C894 C895 1.362 . S
C895 H885 0.930 . S
C895 C888 1.409 . S
C895 C894 1.362 . S
H896 C902 0.930 . S
H897 C905 0.930 . S
H898 C906 0.930 . S
H899 C907 0.930 . S
H900 C910 0.930 1_556 S
H901 C911 0.930 1_556 S
C902 H896 0.930 . S
C902 C903 1.355 . S
C902 C904 1.415 . S
C903 C902 1.355 . S
C903 C905 1.419 . S
C904 C902 1.415 . S
C904 C909 1.425 . S
C904 C911 1.409 . S
C905 H897 0.930 . S
C905 C903 1.419 . S
C905 C906 1.362 . S
C906 H898 0.930 . S
C906 C905 1.362 . S
C906 C909 1.409 . S
C907 H899 0.930 . S
C907 C908 1.355 . S
C907 C909 1.415 . S
C908 C907 1.355 . S
C908 C910 1.419 . S
C909 C904 1.425 . S
C909 C906 1.409 . S
C909 C907 1.415 . S
C910 H900 0.930 1_554 S
C910 C908 1.419 . S
C910 C911 1.362 . S
C911 H901 0.930 1_554 S
C911 C904 1.409 . S
C911 C910 1.362 . S
H912 C918 0.930 . S
H913 C921 0.930 . S
H914 C922 0.930 . S
H915 C923 0.930 . S
H916 C926 0.930 . S
H917 C927 0.930 . S
C918 H912 0.930 . S
C918 C919 1.355 . S
C918 C920 1.415 . S
C919 C918 1.355 . S
C919 C921 1.419 1_655 S
C920 C918 1.415 . S
C920 C925 1.425 1_655 S
C920 C927 1.409 . S
C921 H913 0.930 . S
C921 C919 1.419 1_455 S
C921 C922 1.362 . S
C922 H914 0.930 . S
C922 C921 1.362 . S
C922 C925 1.409 . S
C923 H915 0.930 . S
C923 C924 1.355 . S
C923 C925 1.415 . S
C924 C923 1.355 . S
C924 C926 1.419 1_455 S
C925 C920 1.425 1_455 S
C925 C922 1.409 . S
C925 C923 1.415 . S
C926 H916 0.930 . S
C926 C924 1.419 1_655 S
C926 C927 1.362 . S
C927 H917 0.930 . S
C927 C920 1.409 . S
C927 C926 1.362 . S
H928 C934 0.930 . S
H929 C937 0.930 . S
H930 C938 0.930 . S
H931 C939 0.930 . S
H932 C942 0.930 . S
H933 C943 0.930 . S
C934 H928 0.930 . S
C934 C935 1.355 . S
C934 C936 1.415 . S
C935 C934 1.355 . S
C935 C937 1.419 1_565 S
C936 C934 1.415 . S
C936 C941 1.425 1_565 S
C936 C943 1.409 . S
C937 H929 0.930 . S
C937 C935 1.419 1_545 S
C937 C938 1.362 . S
C938 H930 0.930 . S
C938 C937 1.362 . S
C938 C941 1.409 . S
C939 H931 0.930 . S
C939 C940 1.355 . S
C939 C941 1.415 . S
C940 C939 1.355 . S
C940 C942 1.419 1_545 S
C941 C936 1.425 1_545 S
C941 C938 1.409 . S
C941 C939 1.415 . S
C942 H932 0.930 . S
C942 C940 1.419 1_565 S
C942 C943 1.362 . S
C943 H933 0.930 . S
C943 C936 1.409 . S
C943 C942 1.362 . S
H944 C950 0.930 . S
H945 C953 0.930 . S
H946 C954 0.930 . S
H947 C955 0.930 . S
H948 C958 0.930 . S
H949 C959 0.930 . S
C950 H944 0.930 . S
C950 C951 1.355 . S
C950 C952 1.415 . S
C951 C950 1.355 . S
C951 C953 1.419 1_655 S
C952 C950 1.415 . S
C952 C957 1.425 1_655 S
C952 C959 1.409 . S
C953 H945 0.930 . S
C953 C951 1.419 1_455 S
C953 C954 1.362 . S
C954 H946 0.930 . S
C954 C953 1.362 . S
C954 C957 1.409 . S
C955 H947 0.930 . S
C955 C956 1.355 . S
C955 C957 1.415 . S
C956 C955 1.355 . S
C956 C958 1.419 1_455 S
C957 C952 1.425 1_455 S
C957 C954 1.409 . S
C957 C955 1.415 . S
C958 H948 0.930 . S
C958 C956 1.419 1_655 S
C958 C959 1.362 . S
C959 H949 0.930 . S
C959 C952 1.409 . S
C959 C958 1.362 . S
H960 C966 0.930 . S
H961 C969 0.930 . S
H962 C970 0.930 . S
H963 C971 0.930 . S
H964 C974 0.930 . S
H965 C975 0.930 . S
C966 H960 0.930 . S
C966 C967 1.355 . S
C966 C968 1.415 . S
C967 C966 1.355 . S
C967 C969 1.419 1_545 S
C968 C966 1.415 . S
C968 C973 1.425 1_545 S
C968 C975 1.409 . S
C969 H961 0.930 . S
C969 C967 1.419 1_565 S
C969 C970 1.362 . S
C970 H962 0.930 . S
C970 C969 1.362 . S
C970 C973 1.409 . S
C971 H963 0.930 . S
C971 C972 1.355 . S
C971 C973 1.415 . S
C972 C971 1.355 . S
C972 C974 1.419 1_565 S
C973 C968 1.425 1_565 S
C973 C970 1.409 . S
C973 C971 1.415 . S
C974 H964 0.930 . S
C974 C972 1.419 1_545 S
C974 C975 1.362 . S
C975 H965 0.930 . S
C975 C968 1.409 . S
C975 C974 1.362 . S
H976 C982 0.930 . S
H977 C985 0.930 . S
H978 C986 0.930 . S
H979 C987 0.930 . S
H980 C990 0.930 . S
H981 C991 0.930 . S
C982 H976 0.930 . S
C982 C983 1.355 1_455 S
C982 C984 1.415 . S
C983 C982 1.355 1_655 S
C983 C985 1.419 . S
C984 C982 1.415 . S
C984 C989 1.425 1_455 S
C984 C991 1.409 . S
C985 H977 0.930 . S
C985 C983 1.419 . S
C985 C986 1.362 . S
C986 H978 0.930 . S
C986 C985 1.362 . S
C986 C989 1.409 . S
C987 H979 0.930 . S
C987 C988 1.355 1_655 S
C987 C989 1.415 . S
C988 C987 1.355 1_455 S
C988 C990 1.419 . S
C989 C984 1.425 1_655 S
C989 C986 1.409 . S
C989 C987 1.415 . S
C990 H980 0.930 . S
C990 C988 1.419 . S
C990 C991 1.362 . S
C991 H981 0.930 . S
C991 C984 1.409 . S
C991 C990 1.362 . S
H992 C998 0.930 . S
H993 C1001 0.930 . S
H994 C1002 0.930 . S
H995 C1003 0.930 . S
H996 C1006 0.930 . S
H997 C1007 0.930 . S
C998 H992 0.930 . S
C998 C999 1.355 1_565 S
C998 C1000 1.415 . S
C999 C998 1.355 1_545 S
C999 C1001 1.419 . S
C1000 C998 1.415 . S
C1000 C1005 1.425 1_565 S
C1000 C1007 1.409 . S
C1001 H993 0.930 . S
C1001 C999 1.419 . S
C1001 C1002 1.362 . S
C1002 H994 0.930 . S
C1002 C1001 1.362 . S
C1002 C1005 1.409 . S
C1003 H995 0.930 . S
C1003 C1004 1.355 1_545 S
C1003 C1005 1.415 . S
C1004 C1003 1.355 1_565 S
C1004 C1006 1.419 . S
C1005 C1000 1.425 1_545 S
C1005 C1002 1.409 . S
C1005 C1003 1.415 . S
C1006 H996 0.930 . S
C1006 C1004 1.419 . S
C1006 C1007 1.362 . S
C1007 H997 0.930 . S
C1007 C1000 1.409 . S
C1007 C1006 1.362 . S
H1008 C1014 0.930 . S
H1009 C1017 0.930 . S
H1010 C1018 0.930 . S
H1011 C1019 0.930 . S
H1012 C1022 0.930 . S
H1013 C1023 0.930 . S
C1014 H1008 0.930 . S
C1014 C1015 1.355 1_655 S
C1014 C1016 1.415 . S
C1015 C1014 1.355 1_455 S
C1015 C1017 1.419 . S
C1016 C1014 1.415 . S
C1016 C1021 1.425 1_655 S
C1016 C1023 1.409 . S
C1017 H1009 0.930 . S
C1017 C1015 1.419 . S
C1017 C1018 1.362 . S
C1018 H1010 0.930 . S
C1018 C1017 1.362 . S
C1018 C1021 1.409 . S
C1019 H1011 0.930 . S
C1019 C1020 1.355 1_455 S
C1019 C1021 1.415 . S
C1020 C1019 1.355 1_655 S
C1020 C1022 1.419 . S
C1021 C1016 1.425 1_455 S
C1021 C1018 1.409 . S
C1021 C1019 1.415 . S
C1022 H1012 0.930 . S
C1022 C1020 1.419 . S
C1022 C1023 1.362 . S
C1023 H1013 0.930 . S
C1023 C1016 1.409 . S
C1023 C1022 1.362 . S
H1024 C1030 0.930 . S
H1025 C1033 0.930 . S
H1026 C1034 0.930 . S
H1027 C1035 0.930 . S
H1028 C1038 0.930 . S
H1029 C1039 0.930 . S
C1030 H1024 0.930 . S
C1030 C1031 1.355 1_545 S
C1030 C1032 1.415 . S
C1031 C1030 1.355 1_565 S
C1031 C1033 1.419 . S
C1032 C1030 1.415 . S
C1032 C1037 1.425 1_545 S
C1032 C1039 1.409 . S
C1033 H1025 0.930 . S
C1033 C1031 1.419 . S
C1033 C1034 1.362 . S
C1034 H1026 0.930 . S
C1034 C1033 1.362 . S
C1034 C1037 1.409 . S
C1035 H1027 0.930 . S
C1035 C1036 1.355 1_565 S
C1035 C1037 1.415 . S
C1036 C1035 1.355 1_545 S
C1036 C1038 1.419 . S
C1037 C1032 1.425 1_565 S
C1037 C1034 1.409 . S
C1037 C1035 1.415 . S
C1038 H1028 0.930 . S
C1038 C1036 1.419 . S
C1038 C1039 1.362 . S
C1039 H1029 0.930 . S
C1039 C1032 1.409 . S
C1039 C1038 1.362 . S
H1040 C1046 0.930 . S
H1041 C1049 0.930 . S
H1042 C1050 0.930 . S
H1043 C1051 0.930 . S
H1044 C1054 0.930 . S
H1045 C1055 0.930 . S
C1046 H1040 0.930 . S
C1046 C1047 1.355 . S
C1046 C1048 1.415 . S
C1047 C1046 1.355 . S
C1047 C1049 1.419 . S
C1048 C1046 1.415 . S
C1048 C1053 1.425 . S
C1048 C1055 1.409 . S
C1049 H1041 0.930 . S
C1049 C1047 1.419 . S
C1049 C1050 1.362 . S
C1050 H1042 0.930 . S
C1050 C1049 1.362 . S
C1050 C1053 1.409 . S
C1051 H1043 0.930 . S
C1051 C1052 1.355 . S
C1051 C1053 1.415 . S
C1052 C1051 1.355 . S
C1052 C1054 1.419 . S
C1053 C1048 1.425 . S
C1053 C1050 1.409 . S
C1053 C1051 1.415 . S
C1054 H1044 0.930 . S
C1054 C1052 1.419 . S
C1054 C1055 1.362 . S
C1055 H1045 0.930 . S
C1055 C1048 1.409 . S
C1055 C1054 1.362 . S
H1056 C1062 0.930 . S
H1057 C1065 0.930 . S
H1058 C1066 0.930 . S
H1059 C1067 0.930 . S
H1060 C1070 0.930 . S
H1061 C1071 0.930 . S
C1062 H1056 0.930 . S
C1062 C1063 1.355 . S
C1062 C1064 1.415 . S
C1063 C1062 1.355 . S
C1063 C1065 1.419 . S
C1064 C1062 1.415 . S
C1064 C1069 1.425 . S
C1064 C1071 1.409 . S
C1065 H1057 0.930 . S
C1065 C1063 1.419 . S
C1065 C1066 1.362 . S
C1066 H1058 0.930 . S
C1066 C1065 1.362 . S
C1066 C1069 1.409 . S
C1067 H1059 0.930 . S
C1067 C1068 1.355 . S
C1067 C1069 1.415 . S
C1068 C1067 1.355 . S
C1068 C1070 1.419 . S
C1069 C1064 1.425 . S
C1069 C1066 1.409 . S
C1069 C1067 1.415 . S
C1070 H1060 0.930 . S
C1070 C1068 1.419 . S
C1070 C1071 1.362 . S
C1071 H1061 0.930 . S
C1071 C1064 1.409 . S
C1071 C1070 1.362 . S
H1072 C1078 0.930 . S
H1073 C1081 0.930 . S
H1074 C1082 0.930 . S
H1075 C1083 0.930 . S
H1076 C1086 0.930 . S
H1077 C1087 0.930 . S
C1078 H1072 0.930 . S
C1078 C1079 1.355 . S
C1078 C1080 1.415 . S
C1079 C1078 1.355 . S
C1079 C1081 1.419 . S
C1080 C1078 1.415 . S
C1080 C1085 1.425 . S
C1080 C1087 1.409 . S
C1081 H1073 0.930 . S
C1081 C1079 1.419 . S
C1081 C1082 1.362 . S
C1082 H1074 0.930 . S
C1082 C1081 1.362 . S
C1082 C1085 1.409 . S
C1083 H1075 0.930 . S
C1083 C1084 1.355 . S
C1083 C1085 1.415 . S
C1084 C1083 1.355 . S
C1084 C1086 1.419 . S
C1085 C1080 1.425 . S
C1085 C1082 1.409 . S
C1085 C1083 1.415 . S
C1086 H1076 0.930 . S
C1086 C1084 1.419 . S
C1086 C1087 1.362 . S
C1087 H1077 0.930 . S
C1087 C1080 1.409 . S
C1087 C1086 1.362 . S
H1088 C1094 0.930 . S
H1089 C1097 0.930 . S
H1090 C1098 0.930 . S
H1091 C1099 0.930 . S
H1092 C1102 0.930 . S
H1093 C1103 0.930 . S
C1094 H1088 0.930 . S
C1094 C1095 1.355 . S
C1094 C1096 1.415 . S
C1095 C1094 1.355 . S
C1095 C1097 1.419 . S
C1096 C1094 1.415 . S
C1096 C1101 1.425 . S
C1096 C1103 1.409 . S
C1097 H1089 0.930 . S
C1097 C1095 1.419 . S
C1097 C1098 1.362 . S
C1098 H1090 0.930 . S
C1098 C1097 1.362 . S
C1098 C1101 1.409 . S
C1099 H1091 0.930 . S
C1099 C1100 1.355 . S
C1099 C1101 1.415 . S
C1100 C1099 1.355 . S
C1100 C1102 1.419 . S
C1101 C1096 1.425 . S
C1101 C1098 1.409 . S
C1101 C1099 1.415 . S
C1102 H1092 0.930 . S
C1102 C1100 1.419 . S
C1102 C1103 1.362 . S
C1103 H1093 0.930 . S
C1103 C1096 1.409 . S
C1103 C1102 1.362 . S
H1104 C1110 0.930 . S
H1105 C1113 0.930 . S
H1106 C1114 0.930 . S
H1107 C1115 0.930 . S
H1108 C1118 0.930 . S
H1109 C1119 0.930 . S
C1110 H1104 0.930 . S
C1110 C1111 1.355 . S
C1110 C1112 1.415 . S
C1111 C1110 1.355 . S
C1111 C1113 1.419 . S
C1112 C1110 1.415 . S
C1112 C1117 1.425 . S
C1112 C1119 1.409 . S
C1113 H1105 0.930 . S
C1113 C1111 1.419 . S
C1113 C1114 1.362 . S
C1114 H1106 0.930 . S
C1114 C1113 1.362 . S
C1114 C1117 1.409 . S
C1115 H1107 0.930 . S
C1115 C1116 1.355 . S
C1115 C1117 1.415 . S
C1116 C1115 1.355 . S
C1116 C1118 1.419 . S
C1117 C1112 1.425 . S
C1117 C1114 1.409 . S
C1117 C1115 1.415 . S
C1118 H1108 0.930 . S
C1118 C1116 1.419 . S
C1118 C1119 1.362 . S
C1119 H1109 0.930 . S
C1119 C1112 1.409 . S
C1119 C1118 1.362 . S
H1120 C1126 0.930 . S
H1121 C1129 0.930 . S
H1122 C1130 0.930 . S
H1123 C1131 0.930 . S
H1124 C1134 0.930 . S
H1125 C1135 0.930 . S
C1126 H1120 0.930 . S
C1126 C1127 1.355 . S
C1126 C1128 1.415 . S
C1127 C1126 1.355 . S
C1127 C1129 1.419 . S
C1128 C1126 1.415 . S
C1128 C1133 1.425 . S
C1128 C1135 1.409 . S
C1129 H1121 0.930 . S
C1129 C1127 1.419 . S
C1129 C1130 1.362 . S
C1130 H1122 0.930 . S
C1130 C1129 1.362 . S
C1130 C1133 1.409 . S
C1131 H1123 0.930 . S
C1131 C1132 1.355 . S
C1131 C1133 1.415 . S
C1132 C1131 1.355 . S
C1132 C1134 1.419 . S
C1133 C1128 1.425 . S
C1133 C1130 1.409 . S
C1133 C1131 1.415 . S
C1134 H1124 0.930 . S
C1134 C1132 1.419 . S
C1134 C1135 1.362 . S
C1135 H1125 0.930 . S
C1135 C1128 1.409 . S
C1135 C1134 1.362 . S
H1136 C1142 0.930 . S
H1137 C1145 0.930 . S
H1138 C1146 0.930 . S
H1139 C1147 0.930 . S
H1140 C1150 0.930 . S
H1141 C1151 0.930 . S
C1142 H1136 0.930 . S
C1142 C1143 1.355 . S
C1142 C1144 1.415 . S
C1143 C1142 1.355 . S
C1143 C1145 1.419 . S
C1144 C1142 1.415 . S
C1144 C1149 1.425 . S
C1144 C1151 1.409 . S
C1145 H1137 0.930 . S
C1145 C1143 1.419 . S
C1145 C1146 1.362 . S
C1146 H1138 0.930 . S
C1146 C1145 1.362 . S
C1146 C1149 1.409 . S
C1147 H1139 0.930 . S
C1147 C1148 1.355 . S
C1147 C1149 1.415 . S
C1148 C1147 1.355 . S
C1148 C1150 1.419 . S
C1149 C1144 1.425 . S
C1149 C1146 1.409 . S
C1149 C1147 1.415 . S
C1150 H1140 0.930 . S
C1150 C1148 1.419 . S
C1150 C1151 1.362 . S
C1151 H1141 0.930 . S
C1151 C1144 1.409 . S
C1151 C1150 1.362 . S
H1152 C1158 0.930 . S
H1153 C1161 0.930 . S
H1154 C1162 0.930 . S
H1155 C1163 0.930 . S
H1156 C1166 0.930 . S
H1157 C1167 0.930 . S
C1158 H1152 0.930 . S
C1158 C1159 1.355 . S
C1158 C1160 1.415 . S
C1159 C1158 1.355 . S
C1159 C1161 1.419 . S
C1160 C1158 1.415 . S
C1160 C1165 1.425 . S
C1160 C1167 1.409 . S
C1161 H1153 0.930 . S
C1161 C1159 1.419 . S
C1161 C1162 1.362 . S
C1162 H1154 0.930 . S
C1162 C1161 1.362 . S
C1162 C1165 1.409 . S
C1163 H1155 0.930 . S
C1163 C1164 1.355 . S
C1163 C1165 1.415 . S
C1164 C1163 1.355 . S
C1164 C1166 1.419 . S
C1165 C1160 1.425 . S
C1165 C1162 1.409 . S
C1165 C1163 1.415 . S
C1166 H1156 0.930 . S
C1166 C1164 1.419 . S
C1166 C1167 1.362 . S
C1167 H1157 0.930 . S
C1167 C1160 1.409 . S
C1167 C1166 1.362 . S
C535 N5 1.368 . S
C540 N500 1.341 . S
C551 N38 1.293 . S
C556 N401 1.308 . S
C567 N434 1.342 . S
C572 N71 1.368 . S
C583 N104 1.371 . S
C588 N467 1.349 . S
C599 N137 1.343 . S
C604 N302 1.309 . S
C615 N335 1.339 . S
C620 N170 1.306 . S
C631 N368 1.355 . S
C636 N203 1.320 . S
C647 N269 1.347 . S
C652 N236 1.312 . S
C663 N113 1.555 1_556 S
C668 C17 1.612 . S
C679 N14 1.564 1_556 S
C684 C50 1.602 . S
C695 C83 1.611 . S
C700 N47 1.567 1_556 S
C711 C116 1.612 . S
C716 N80 1.553 1_556 S
C727 N179 1.519 . S
C732 C149 1.608 . S
C743 N212 1.526 . S
C748 C182 1.610 . S
C759 N245 1.572 . S
C764 C215 1.610 . S
C775 N146 1.519 . S
C780 C248 1.609 . S
C791 N377 1.528 . S
C796 C281 1.610 . S
C807 C314 1.602 . S
C812 N278 1.557 . S
C823 N311 1.568 . S
C828 C347 1.611 . S
C839 N344 1.527 . S
C844 C380 1.610 . S
C855 N443 1.553 . S
C860 C413 1.602 . S
C871 N476 1.571 . S
C876 C446 1.611 . S
C887 N509 1.548 . S
C892 C479 1.602 . S
C903 N410 1.571 . S
C908 C512 1.611 . S
C919 C226 1.761 . S
C924 C28 1.802 . S
C935 C259 1.763 . S
C940 C61 1.800 . S
C951 C94 1.767 . S
C956 C160 1.797 . S
C967 C193 1.759 . S
C972 C127 1.804 . S
C983 C74 0.822 . S
C988 C140 0.759 . S
C999 C173 0.769 . S
C1004 C107 0.787 . S
C1015 C8 0.770 . S
C1020 C206 0.857 . S
C1031 C239 0.787 . S
C1036 C41 0.875 . S
C1047 C490 1.785 . S
C1052 C292 1.779 . S
C1063 C523 1.803 . S
C1068 C325 1.758 . S
C1079 C424 1.770 . S
C1084 C358 1.794 . S
C1095 C391 1.803 . S
C1100 C457 1.760 . S
C1111 C404 0.761 . S
C1116 C338 0.807 . S
C1127 C371 0.889 . S
C1132 C437 0.835 . S
C1143 C272 0.862 . S
C1148 C470 0.774 . S
C1159 C503 0.765 . S
C1164 C305 0.848 . S
