# Generated by pormake.
# Topology crs, (6)-cn, num edge types: 1
# Building blocks:
#     Node 0, Type 0, BuildingBlock: BETDIP_clean_sbu_0, # of connection points: 6
#     Node 1, Type 0, BuildingBlock: BETDIP_clean_sbu_0, # of connection points: 6
#     Node 2, Type 0, BuildingBlock: BETDIP_clean_sbu_0, # of connection points: 6
#     Node 3, Type 0, BuildingBlock: BETDIP_clean_sbu_0, # of connection points: 6
#     Node 4, Type 0, BuildingBlock: BETDIP_clean_sbu_0, # of connection points: 6
#     Node 5, Type 0, BuildingBlock: BETDIP_clean_sbu_0, # of connection points: 6
#     Node 6, Type 0, BuildingBlock: BETDIP_clean_sbu_0, # of connection points: 6
#     Node 7, Type 0, BuildingBlock: BETDIP_clean_sbu_0, # of connection points: 6
#     Node 8, Type 0, BuildingBlock: BETDIP_clean_sbu_0, # of connection points: 6
#     Node 9, Type 0, BuildingBlock: BETDIP_clean_sbu_0, # of connection points: 6
#     Node 10, Type 0, BuildingBlock: BETDIP_clean_sbu_0, # of connection points: 6
#     Node 11, Type 0, BuildingBlock: BETDIP_clean_sbu_0, # of connection points: 6
#     Node 12, Type 0, BuildingBlock: BETDIP_clean_sbu_0, # of connection points: 6
#     Node 13, Type 0, BuildingBlock: BETDIP_clean_sbu_0, # of connection points: 6
#     Node 14, Type 0, BuildingBlock: BETDIP_clean_sbu_0, # of connection points: 6
#     Node 15, Type 0, BuildingBlock: BETDIP_clean_sbu_0, # of connection points: 6
#     Edge 16, Type (0, 0), BuildingBlock: XUDNAN_clean_linker_2, # of connection points: 2
#     Edge 17, Type (0, 0), BuildingBlock: XUDNAN_clean_linker_2, # of connection points: 2
#     Edge 18, Type (0, 0), BuildingBlock: XUDNAN_clean_linker_2, # of connection points: 2
#     Edge 19, Type (0, 0), BuildingBlock: XUDNAN_clean_linker_2, # of connection points: 2
#     Edge 20, Type (0, 0), BuildingBlock: XUDNAN_clean_linker_2, # of connection points: 2
#     Edge 21, Type (0, 0), BuildingBlock: XUDNAN_clean_linker_2, # of connection points: 2
#     Edge 22, Type (0, 0), BuildingBlock: XUDNAN_clean_linker_2, # of connection points: 2
#     Edge 23, Type (0, 0), BuildingBlock: XUDNAN_clean_linker_2, # of connection points: 2
#     Edge 24, Type (0, 0), BuildingBlock: XUDNAN_clean_linker_2, # of connection points: 2
#     Edge 25, Type (0, 0), BuildingBlock: XUDNAN_clean_linker_2, # of connection points: 2
#     Edge 26, Type (0, 0), BuildingBlock: XUDNAN_clean_linker_2, # of connection points: 2
#     Edge 27, Type (0, 0), BuildingBlock: XUDNAN_clean_linker_2, # of connection points: 2
#     Edge 28, Type (0, 0), BuildingBlock: XUDNAN_clean_linker_2, # of connection points: 2
#     Edge 29, Type (0, 0), BuildingBlock: XUDNAN_clean_linker_2, # of connection points: 2
#     Edge 30, Type (0, 0), BuildingBlock: XUDNAN_clean_linker_2, # of connection points: 2
#     Edge 31, Type (0, 0), BuildingBlock: XUDNAN_clean_linker_2, # of connection points: 2
#     Edge 32, Type (0, 0), BuildingBlock: XUDNAN_clean_linker_2, # of connection points: 2
#     Edge 33, Type (0, 0), BuildingBlock: XUDNAN_clean_linker_2, # of connection points: 2
#     Edge 34, Type (0, 0), BuildingBlock: XUDNAN_clean_linker_2, # of connection points: 2
#     Edge 35, Type (0, 0), BuildingBlock: XUDNAN_clean_linker_2, # of connection points: 2
#     Edge 36, Type (0, 0), BuildingBlock: XUDNAN_clean_linker_2, # of connection points: 2
#     Edge 37, Type (0, 0), BuildingBlock: XUDNAN_clean_linker_2, # of connection points: 2
#     Edge 38, Type (0, 0), BuildingBlock: XUDNAN_clean_linker_2, # of connection points: 2
#     Edge 39, Type (0, 0), BuildingBlock: XUDNAN_clean_linker_2, # of connection points: 2
#     Edge 40, Type (0, 0), BuildingBlock: XUDNAN_clean_linker_2, # of connection points: 2
#     Edge 41, Type (0, 0), BuildingBlock: XUDNAN_clean_linker_2, # of connection points: 2
#     Edge 42, Type (0, 0), BuildingBlock: XUDNAN_clean_linker_2, # of connection points: 2
#     Edge 43, Type (0, 0), BuildingBlock: XUDNAN_clean_linker_2, # of connection points: 2
#     Edge 44, Type (0, 0), BuildingBlock: XUDNAN_clean_linker_2, # of connection points: 2
#     Edge 45, Type (0, 0), BuildingBlock: XUDNAN_clean_linker_2, # of connection points: 2
#     Edge 46, Type (0, 0), BuildingBlock: XUDNAN_clean_linker_2, # of connection points: 2
#     Edge 47, Type (0, 0), BuildingBlock: XUDNAN_clean_linker_2, # of connection points: 2
#     Edge 48, Type (0, 0), BuildingBlock: XUDNAN_clean_linker_2, # of connection points: 2
#     Edge 49, Type (0, 0), BuildingBlock: XUDNAN_clean_linker_2, # of connection points: 2
#     Edge 50, Type (0, 0), BuildingBlock: XUDNAN_clean_linker_2, # of connection points: 2
#     Edge 51, Type (0, 0), BuildingBlock: XUDNAN_clean_linker_2, # of connection points: 2
#     Edge 52, Type (0, 0), BuildingBlock: XUDNAN_clean_linker_2, # of connection points: 2
#     Edge 53, Type (0, 0), BuildingBlock: XUDNAN_clean_linker_2, # of connection points: 2
#     Edge 54, Type (0, 0), BuildingBlock: XUDNAN_clean_linker_2, # of connection points: 2
#     Edge 55, Type (0, 0), BuildingBlock: XUDNAN_clean_linker_2, # of connection points: 2
#     Edge 56, Type (0, 0), BuildingBlock: XUDNAN_clean_linker_2, # of connection points: 2
#     Edge 57, Type (0, 0), BuildingBlock: XUDNAN_clean_linker_2, # of connection points: 2
#     Edge 58, Type (0, 0), BuildingBlock: XUDNAN_clean_linker_2, # of connection points: 2
#     Edge 59, Type (0, 0), BuildingBlock: XUDNAN_clean_linker_2, # of connection points: 2
#     Edge 60, Type (0, 0), BuildingBlock: XUDNAN_clean_linker_2, # of connection points: 2
#     Edge 61, Type (0, 0), BuildingBlock: XUDNAN_clean_linker_2, # of connection points: 2
#     Edge 62, Type (0, 0), BuildingBlock: XUDNAN_clean_linker_2, # of connection points: 2
#     Edge 63, Type (0, 0), BuildingBlock: XUDNAN_clean_linker_2, # of connection points: 2
# Relax obj value: 0.408
# Max RMSD: 0.321
# Mean RMSD: 0.320
data_MOF--net-crs--node1-BETDIP_clean_sbu_0--edge1-XUDNAN_clean_linker_2
_symmetry_space_group_name_H-M    P1
_symmetry_Int_Tables_number       1
_symmetry_cell_setting            triclinic
loop_
_symmetry_equiv_pos_as_xyz
'x, y, z'
_cell_length_a     39.010184
_cell_length_b     66.34189
_cell_length_c     44.166496
_cell_angle_alpha  89.859209
_cell_angle_beta   90.136068
_cell_angle_gamma 60.651526
loop_
_atom_site_label
_atom_site_type_symbol
_atom_site_fract_x
_atom_site_fract_y
_atom_site_fract_z
_atom_type_partial_charge
Tb0 Tb 0.94127 0.01609 0.03386 0.0
Tb1 Tb 0.00704 0.01743 0.99996 0.0
C2 C 0.8876 1.00718 0.04595 0.0
C3 C 0.88116 0.98911 0.03218 0.0
C4 C 0.8875 0.9844 1.00102 0.0
C5 C 0.88882 0.96463 0.98889 0.0
C6 C 0.88409 0.94913 0.00772 0.0
C7 C 0.87636 0.95428 0.03869 0.0
C8 C 0.87495 0.9741 0.05081 0.0
C9 C 0.00246 1.00813 0.06722 0.0
C10 C 0.0028 0.97247 0.99537 0.0
C11 C 0.06152 0.02534 0.98576 0.0
C12 C 0.06691 0.04542 0.99218 0.0
C13 C 0.10046 0.0424 0.00782 0.0
C14 C 0.10459 0.06154 0.01555 0.0
C15 C 0.07524 0.08404 0.00765 0.0
C16 C 0.0418 0.08693 0.99187 0.0
C17 C 0.03757 0.06789 0.98436 0.0
C18 C 0.94675 0.02467 0.96609 0.0
C19 C 0.94494 0.06087 0.0402 0.0
O20 O 0.88242 0.02431 0.02821 0.0
O21 O 0.9199 0.99926 0.06201 0.0
O22 O 0.0033 1.00129 0.04043 0.0
O23 O 0.96651 0.01849 0.07695 0.0
O24 O 0.96735 0.98472 0.00692 0.0
O25 O 0.02742 0.98075 0.99293 0.0
O26 O 0.06324 1.01286 0.00926 0.0
O27 O 0.0325 0.02905 0.96755 0.0
O28 O 0.94496 0.03198 0.99283 0.0
O29 O 0.98289 1.01442 0.957 0.0
O30 O 0.97952 0.04972 0.02644 0.0
O31 O 0.9212 0.05204 0.04247 0.0
H32 H 0.89326 0.99538 0.98619 0.0
H33 H 0.89511 0.96102 0.96502 0.0
H34 H 0.87192 0.9428 0.05364 0.0
H35 H 0.87052 0.97724 0.07492 0.0
H36 H 0.12331 0.02524 0.01427 0.0
H37 H 0.13099 0.05867 0.02733 0.0
H38 H 0.01845 0.10397 0.98563 0.0
H39 H 0.01098 0.07088 0.97275 0.0
Tb40 Tb 0.02152 0.27107 0.27806 0.0
Tb41 Tb 0.97581 0.25999 0.23648 0.0
C42 C 0.04632 0.28839 0.31738 0.0
C43 C 0.03349 0.30541 0.34203 0.0
C44 C -0.00541 0.3236 0.3439 0.0
C45 C 0.98481 0.34162 0.36455 0.0
C46 C 0.01385 0.34179 0.38342 0.0
C47 C 0.05238 0.32307 0.38211 0.0
C48 C 0.06205 0.30508 0.36163 0.0
C49 C 0.05924 0.22718 0.25927 0.0
C50 C 0.96142 0.2569 0.30365 0.0
C51 C 0.95613 0.24281 0.19363 0.0
C52 C 0.95346 0.22274 0.18267 0.0
C53 C 0.94529 0.2087 0.20176 0.0
C54 C 0.94164 0.19032 0.18958 0.0
C55 C 0.94636 0.18574 0.15826 0.0
C56 C 0.95533 0.19966 0.13955 0.0
C57 C 0.95882 0.21794 0.15165 0.0
C58 C 0.93708 0.30351 0.25525 0.0
C59 C 0.03798 0.27382 0.21004 0.0
O60 O 0.0345 0.29693 0.29026 0.0
O61 O 0.04513 0.26921 0.32173 0.0
O62 O 0.02341 0.23884 0.26599 0.0
O63 O 0.0756 0.23957 0.26534 0.0
O64 O 0.97444 0.27185 0.30647 0.0
O65 O 0.96668 0.24558 0.278 0.0
O66 O 0.93174 0.25582 0.21465 0.0
O67 O -0.00843 0.23982 0.1973 0.0
O68 O 0.97319 0.29236 0.24856 0.0
O69 O 0.92136 0.29074 0.24925 0.0
O70 O 0.01058 0.2681 0.20466 0.0
O71 O 0.04723 0.27661 0.23772 0.0
H72 H 0.9722 0.32431 0.32868 0.0
H73 H 0.95491 0.35586 0.36487 0.0
H74 H 0.07525 0.32251 0.39663 0.0
H75 H 0.09228 0.29127 0.36034 0.0
H76 H 0.94143 0.21204 0.22585 0.0
H77 H 0.93513 0.17973 0.20461 0.0
H78 H 0.95857 0.19686 0.11533 0.0
H79 H 0.96517 0.22861 0.1366 0.0
Tb80 Tb 0.78304 0.26821 0.52826 0.0
Tb81 Tb 0.7256 0.26166 0.49232 0.0
C82 C 0.83254 0.27999 0.54406 0.0
C83 C 0.83178 0.3025 0.54235 0.0
C84 C 0.83882 0.31064 0.51491 0.0
C85 C 0.8334 0.33305 0.51283 0.0
C86 C 0.82041 0.34784 0.538 0.0
C87 C 0.8152 0.33931 0.56574 0.0
C88 C 0.82107 0.31684 0.56794 0.0
C89 C 0.72072 0.27486 0.55909 0.0
C90 C 0.71824 0.30941 0.48648 0.0
C91 C 0.6802 0.24792 0.47272 0.0
C92 C 0.68362 0.22503 0.47653 0.0
C93 C 0.65026 0.22231 0.4763 0.0
C94 C 0.65392 0.20059 0.48211 0.0
C95 C 0.69097 0.18141 0.48895 0.0
C96 C 0.72418 0.18444 0.48913 0.0
C97 C 0.72062 0.20585 0.48243 0.0
C98 C 0.78822 0.25587 0.46263 0.0
C99 C 0.78664 0.22143 0.53622 0.0
O100 O 0.83436 0.26971 0.51836 0.0
O101 O 0.80722 0.27914 0.56262 0.0
O102 O 0.72074 0.28103 0.53196 0.0
O103 O 0.75585 0.26611 0.5703 0.0
O104 O 0.75285 0.29993 0.50044 0.0
O105 O 0.69771 0.29848 0.48466 0.0
O106 O 0.67365 0.25984 0.49761 0.0
O107 O 0.70786 0.24822 0.45647 0.0
O108 O 0.78802 0.24851 0.48896 0.0
O109 O 0.75298 0.26606 0.45166 0.0
O110 O 0.75162 0.2318 0.5232 0.0
O111 O 0.80891 0.23132 0.53677 0.0
H112 H 0.84737 0.30001 0.49477 0.0
H113 H 0.83797 0.33908 0.49123 0.0
H114 H 0.80616 0.3501 0.58572 0.0
H115 H 0.81601 0.31095 0.5895 0.0
H116 H 0.62146 0.23695 0.47176 0.0
H117 H 0.62774 0.19889 0.4811 0.0
H118 H 0.75306 0.1704 0.49494 0.0
H119 H 0.74695 0.20741 0.48224 0.0
Tb120 Tb 0.71473 1.01035 0.77261 0.0
Tb121 Tb 0.76752 0.02067 0.73517 0.0
C122 C 0.67928 0.98995 0.79268 0.0
C123 C 0.67955 0.97412 0.81627 0.0
C124 C 0.65421 0.96499 0.81252 0.0
C125 C 0.65278 0.95006 0.83412 0.0
C126 C 0.67661 0.94389 0.86023 0.0
C127 C 0.70285 0.95264 0.86368 0.0
C128 C 0.70425 0.96772 0.84184 0.0
C129 C 0.69012 0.05513 0.7656 0.0
C130 C 0.77664 0.01676 0.80818 0.0
C131 C 0.80503 0.0401 0.71597 0.0
C132 C 0.80642 0.05676 0.69454 0.0
C133 C 0.78168 0.06541 0.66909 0.0
C134 C 0.78448 0.08139 0.64964 0.0
C135 C 0.81209 0.08887 0.65539 0.0
C136 C 0.83618 0.08028 0.68125 0.0
C137 C 0.8334 0.06443 0.70046 0.0
C138 C 0.79251 0.97583 0.7427 0.0
C139 C 0.70333 0.01565 0.69999 0.0
O140 O 0.70731 0.98111 0.77252 0.0
O141 O 0.67098 1.01082 0.80079 0.0
O142 O 0.70651 0.03956 0.74588 0.0
O143 O 0.68378 0.04601 0.78946 0.0
O144 O 0.75225 1.00839 0.80989 0.0
O145 O 0.78551 0.02283 0.78197 0.0
O146 O 0.77853 0.04856 0.73729 0.0
O147 O 0.80993 0.02042 0.70553 0.0
O148 O 0.77605 0.99155 0.76221 0.0
O149 O 0.79841 0.98492 0.71866 0.0
O150 O 0.72792 0.02396 0.69837 0.0
O151 O 0.69558 1.00882 0.72608 0.0
H152 H 0.63529 0.96948 0.79276 0.0
H153 H 0.63296 0.94325 0.83026 0.0
H154 H 0.72161 0.94822 0.88348 0.0
H155 H 0.7243 0.97446 0.84497 0.0
H156 H 0.76043 0.05981 0.66426 0.0
H157 H 0.76551 0.0876 0.62991 0.0
H158 H 0.85707 0.086 0.68692 0.0
H159 H 0.85243 0.05817 0.72019 0.0
Tb160 Tb 0.51078 0.77094 0.27138 0.0
Tb161 Tb 0.46129 0.75948 0.23272 0.0
C162 C 0.54716 0.7898 0.29453 0.0
C163 C 0.5441 0.80816 0.31504 0.0
C164 C 0.5619 0.8211 0.30596 0.0
C165 C 0.56309 0.83732 0.32532 0.0
C166 C 0.54654 0.84103 0.3544 0.0
C167 C 0.52726 0.82871 0.36316 0.0
C168 C 0.52619 0.81229 0.34366 0.0
C169 C 0.53821 0.72577 0.26375 0.0
C170 C 0.44599 0.76552 0.30409 0.0
C171 C 0.42884 0.73919 0.20706 0.0
C172 C 0.43411 0.72482 0.1798 0.0
C173 C 0.45988 0.70077 0.18021 0.0
C174 C 0.46123 0.68697 0.15577 0.0
C175 C 0.43671 0.69681 0.13033 0.0
C176 C 0.41207 0.72097 0.1295 0.0
C177 C 0.41066 0.73475 0.15394 0.0
C178 C 0.43414 0.8048 0.23962 0.0
C179 C 0.52333 0.76722 0.19934 0.0
O180 O 0.52749 0.79652 0.26908 0.0
O181 O 0.54706 0.77166 0.30618 0.0
O182 O 0.52223 0.74146 0.24414 0.0
O183 O 0.54193 0.73505 0.28835 0.0
O184 O 0.46561 0.77704 0.30438 0.0
O185 O 0.44388 0.75519 0.27904 0.0
O186 O 0.45495 0.72997 0.22878 0.0
O187 O 0.4181 0.76102 0.20274 0.0
O188 O 0.4499 0.78926 0.25948 0.0
O189 O 0.43064 0.79522 0.21517 0.0
O190 O 0.50221 0.75667 0.1978 0.0
O191 O 0.52795 0.77553 0.22534 0.0
H192 H 0.57574 0.81828 0.28396 0.0
H193 H 0.57744 0.84683 0.31759 0.0
H194 H 0.51422 0.8312 0.38542 0.0
H195 H 0.51214 0.80256 0.35114 0.0
H196 H 0.47818 0.69245 0.19983 0.0
H197 H 0.48021 0.66843 0.15746 0.0
H198 H 0.39317 0.72922 0.11015 0.0
H199 H 0.39033 0.75317 0.15291 0.0
Tb200 Tb 0.27658 0.76078 0.51934 0.0
Tb201 Tb 0.20543 0.76459 0.48598 0.0
C202 C 0.33538 0.76508 0.53086 0.0
C203 C 0.34401 0.78345 0.5212 0.0
C204 C 0.34787 0.78718 0.49037 0.0
C205 C 0.34833 0.80711 0.48087 0.0
C206 C 0.34579 0.82356 0.50205 0.0
C207 C 0.34453 0.81901 0.53308 0.0
C208 C 0.34345 0.79923 0.54252 0.0
C209 C 0.22016 0.76377 0.55453 0.0
C210 C 0.21125 0.8094 0.49106 0.0
C211 C 0.14786 0.75958 0.47227 0.0
C212 C 0.14109 0.73994 0.47884 0.0
C213 C 0.10907 0.743 0.4966 0.0
C214 C 0.10449 0.72398 0.50458 0.0
C215 C 0.13179 0.70159 0.49479 0.0
C216 C 0.16371 0.6987 0.47701 0.0
C217 C 0.16834 0.71755 0.46919 0.0
C218 C 0.26171 0.76181 0.45087 0.0
C219 C 0.27121 0.71626 0.51639 0.0
O220 O 0.33497 0.75147 0.50951 0.0
O221 O 0.30561 0.77181 0.54941 0.0
O222 O 0.21579 0.77399 0.52947 0.0
O223 O 0.25702 0.75323 0.56222 0.0
O224 O 0.24722 0.79606 0.50166 0.0
O225 O 0.18662 0.80146 0.4855 0.0
O226 O 0.14772 0.77175 0.49568 0.0
O227 O 0.17666 0.75529 0.45357 0.0
O228 O 0.26617 0.7512 0.47566 0.0
O229 O 0.22462 0.77352 0.44424 0.0
O230 O 0.23527 0.72915 0.50511 0.0
O231 O 0.2957 0.72442 0.52011 0.0
H232 H 0.34918 0.77509 0.47341 0.0
H233 H 0.3495 0.8099 0.45684 0.0
H234 H 0.344 0.83083 0.55018 0.0
H235 H 0.34085 0.79666 0.56646 0.0
H236 H 0.08791 0.76004 0.50461 0.0
H237 H 0.07943 0.72685 0.51816 0.0
H238 H 0.1858 0.68174 0.4695 0.0
H239 H 0.19384 0.71438 0.45598 0.0
Tb240 Tb 0.21366 0.51329 0.779 0.0
Tb241 Tb 0.25604 0.5194 0.72877 0.0
C242 C 0.19171 0.50248 0.82726 0.0
C243 C 0.19202 0.48332 0.84432 0.0
C244 C 0.20752 0.46091 0.83249 0.0
C245 C 0.21037 0.44281 0.85086 0.0
C246 C 0.19797 0.44696 0.88125 0.0
C247 C 0.18122 0.46964 0.89241 0.0
C248 C 0.17835 0.48757 0.87415 0.0
C249 C 0.18238 0.5571 0.75912 0.0
C250 C 0.28466 0.522 0.7928 0.0
C251 C 0.27322 0.53339 0.68095 0.0
C252 C 0.27328 0.55371 0.66734 0.0
C253 C 0.29005 0.56557 0.68202 0.0
C254 C 0.29268 0.58341 0.66701 0.0
C255 C 0.27849 0.58973 0.63716 0.0
C256 C 0.26037 0.57838 0.6231 0.0
C257 C 0.25791 0.56054 0.63802 0.0
C258 C 0.28955 0.47563 0.74828 0.0
C259 C 0.18615 0.50925 0.71549 0.0
O260 O 0.17014 0.50977 0.8028 0.0
O261 O 0.22552 0.50174 0.82399 0.0
O262 O 0.21804 0.54251 0.76199 0.0
O263 O 0.16258 0.54808 0.77046 0.0
O264 O 0.2675 0.50981 0.80045 0.0
O265 O 0.27732 0.5322 0.76595 0.0
O266 O 0.29851 0.52213 0.70255 0.0
O267 O 0.2388 0.53537 0.68617 0.0
O268 O 0.2532 0.48957 0.74629 0.0
O269 O 0.30764 0.48508 0.73511 0.0
O270 O 0.20354 0.52116 0.70728 0.0
O271 O 0.19316 0.49954 0.7426 0.0
H272 H 0.21811 0.45735 0.80942 0.0
H273 H 0.22349 0.4255 0.84167 0.0
H274 H 0.17081 0.47348 0.91552 0.0
H275 H 0.16619 0.50477 0.88363 0.0
H276 H 0.3018 0.56079 0.70476 0.0
H277 H 0.30628 0.59205 0.67864 0.0
H278 H 0.24948 0.58263 0.60008 0.0
H279 H 0.24487 0.55161 0.62628 0.0
Tb280 Tb 0.94365 0.52861 0.51817 0.0
Tb281 Tb 0.02357 0.51005 0.49168 0.0
C282 C 0.87427 0.53762 0.52805 0.0
C283 C 0.8534 0.52439 0.52375 0.0
C284 C 0.8584 0.51141 0.4974 0.0
C285 C 0.84258 0.49655 0.49555 0.0
C286 C 0.82184 0.4942 0.52012 0.0
C287 C 0.81571 0.50794 0.54596 0.0
C288 C 0.83123 0.52291 0.54768 0.0
C289 C 0.00085 0.51688 0.55785 0.0
C290 C -0.00808 0.47597 0.49429 0.0
C291 C 0.09192 0.50329 0.48437 0.0
C292 C 0.10674 0.51981 0.4893 0.0
C293 C 0.12135 0.52157 0.51777 0.0
C294 C 0.1289 0.53974 0.52383 0.0
C295 C 0.1218 0.55662 0.50167 0.0
C296 C 0.10895 0.55417 0.47281 0.0
C297 C 0.10187 0.53593 0.46664 0.0
C298 C 0.9669 0.52177 0.45177 0.0
C299 C 0.97426 0.56311 0.51396 0.0
O300 O 0.88493 0.54428 0.50355 0.0
O301 O 0.90207 0.52922 0.54862 0.0
O302 O 0.0022 0.5059 0.53415 0.0
O303 O 0.96589 0.5344 0.56093 0.0
O304 O 0.95788 0.49418 0.50156 0.0
O305 O 0.02476 0.47711 0.49274 0.0
O306 O 0.08106 0.4965 0.50866 0.0
O307 O 0.06675 0.50834 0.46207 0.0
O308 O 0.96512 0.53271 0.47566 0.0
O309 O 0.00218 0.50454 0.44846 0.0
O310 O 0.00839 0.54508 0.50659 0.0
O311 O 0.94192 0.56158 0.51628 0.0
H312 H 0.8756 0.51212 0.47862 0.0
H313 H 0.84747 0.48648 0.47516 0.0
H314 H 0.80055 0.50635 0.56554 0.0
H315 H 0.82732 0.53264 0.56828 0.0
H316 H 0.12566 0.50939 0.53572 0.0
H317 H 0.13975 0.54078 0.54601 0.0
H318 H 0.10257 0.56694 0.45523 0.0
H319 H 0.09075 0.53514 0.44444 0.0
Tb320 Tb 0.28553 0.26304 0.02523 0.0
Tb321 Tb 0.21603 0.26737 0.99138 0.0
C322 C 0.34539 0.26562 0.03962 0.0
C323 C 0.34836 0.28593 0.04888 0.0
C324 C 0.38206 0.28751 0.04221 0.0
C325 C 0.38319 0.30781 0.04871 0.0
C326 C 0.35061 0.32673 0.06203 0.0
C327 C 0.31706 0.32494 0.06885 0.0
C328 C 0.31589 0.30477 0.06223 0.0
C329 C 0.22421 0.27291 0.05965 0.0
C330 C 0.22588 0.31096 0.99201 0.0
C331 C 0.15693 0.2644 0.97552 0.0
C332 C 0.14049 0.2496 0.98534 0.0
C333 C 0.13015 0.24889 0.01565 0.0
C334 C 0.11751 0.23339 0.02472 0.0
C335 C 0.11536 0.21811 1.00374 0.0
C336 C 0.12538 0.21912 0.97336 0.0
C337 C 0.13745 0.2348 0.96427 0.0
C338 C 0.27718 0.25888 0.95788 0.0
C339 C 0.27489 0.22075 0.02609 0.0
O340 O 0.33424 0.26611 0.01153 0.0
O341 O 0.32678 0.25911 0.05845 0.0
O342 O 0.22327 0.28062 0.03332 0.0
O343 O 0.26041 0.26084 0.06847 0.0
O344 O 0.25875 0.29836 0.00745 0.0
O345 O 0.2017 0.30313 0.98451 0.0
O346 O 0.15537 0.27978 0.99484 0.0
O347 O 0.19091 0.25358 0.96177 0.0
O348 O 0.27811 0.24998 0.98335 0.0
O349 O 0.24104 0.27187 0.94945 0.0
O350 O 0.23798 0.23534 0.01841 0.0
O351 O 0.30217 0.22692 0.02403 0.0
H352 H 0.40715 0.27322 0.03152 0.0
H353 H 0.40944 0.30874 0.04329 0.0
H354 H 0.29125 0.33938 0.07854 0.0
H355 H 0.28922 0.3041 0.06696 0.0
H356 H 0.13239 0.26 0.0325 0.0
H357 H 0.10967 0.23333 0.04821 0.0
H358 H 0.12518 0.2073 0.95662 0.0
H359 H 0.14556 0.2349 0.94084 0.0
Tb360 Tb 0.2045 1.0129 0.27923 0.0
Tb361 Tb 0.26051 0.02045 0.23505 0.0
C362 C 0.17587 0.99489 0.31407 0.0
C363 C 0.1867 0.976 0.33663 0.0
C364 C 0.20077 0.95297 0.32731 0.0
C365 C 0.20543 0.93585 0.34816 0.0
C366 C 0.19621 0.94126 0.37888 0.0
C367 C 0.18324 0.96413 0.38833 0.0
C368 C 0.17835 0.98129 0.36745 0.0
C369 C 0.17877 0.05654 0.2611 0.0
C370 C 0.27946 1.01462 0.30535 0.0
C371 C 0.2905 0.03886 0.20237 0.0
C372 C 0.28291 0.06071 0.18742 0.0
C373 C 0.30113 0.07286 0.19882 0.0
C374 C 0.30132 0.09066 0.18198 0.0
C375 C 0.28346 0.09665 0.15323 0.0
C376 C 0.26295 0.08557 0.14266 0.0
C377 C 0.26283 0.06768 0.15953 0.0
C378 C 0.28588 0.9753 0.24355 0.0
C379 C 0.18708 0.01769 0.20972 0.0
O380 O 0.18568 0.98872 0.28585 0.0
O381 O 0.17968 1.01285 0.32161 0.0
O382 O 0.21375 0.04091 0.26551 0.0
O383 O 0.15613 0.04854 0.27039 0.0
O384 O 0.25112 1.00938 0.31007 0.0
O385 O 0.28723 0.0203 0.27845 0.0
O386 O 0.29329 0.03775 0.23195 0.0
O387 O 0.27265 0.02804 0.19164 0.0
O388 O 0.2565 0.99254 0.25454 0.0
O389 O 0.30287 0.98355 0.22632 0.0
O390 O 0.21031 0.02687 0.20639 0.0
O391 O 0.18388 1.00861 0.23545 0.0
H392 H 0.20723 0.94821 0.30373 0.0
H393 H 0.216 0.91837 0.34016 0.0
H394 H 0.1755 0.96898 0.41175 0.0
H395 H 0.16683 0.99889 0.3753 0.0
H396 H 0.31701 0.06785 0.22013 0.0
H397 H 0.31678 0.09916 0.19098 0.0
H398 H 0.249 0.08976 0.12057 0.0
H399 H 0.24868 0.05859 0.14996 0.0
Tb400 Tb 0.51861 0.27156 0.77656 0.0
Tb401 Tb 0.47223 0.25963 0.73418 0.0
C402 C 0.54767 0.29335 0.80319 0.0
C403 C 0.53812 0.31074 0.8274 0.0
C404 C 0.53971 0.33096 0.82074 0.0
C405 C 0.53247 0.34742 0.84316 0.0
C406 C 0.52366 0.34404 0.87299 0.0
C407 C 0.52167 0.32383 0.87959 0.0
C408 C 0.52882 0.30736 0.85705 0.0
C409 C 0.54795 0.2264 0.76775 0.0
C410 C 0.45681 0.26181 0.80584 0.0
C411 C 0.43929 0.23933 0.70921 0.0
C412 C 0.44379 0.22092 0.68815 0.0
C413 C 0.42549 0.208 0.69595 0.0
C414 C 0.42569 0.19164 0.67609 0.0
C415 C 0.44427 0.18773 0.64781 0.0
C416 C 0.46418 0.19995 0.64039 0.0
C417 C 0.46378 0.21657 0.6604 0.0
C418 C 0.44216 0.30485 0.74382 0.0
C419 C 0.53668 0.26762 0.70495 0.0
O420 O 0.52643 0.30065 0.77847 0.0
O421 O 0.55512 0.27251 0.81097 0.0
O422 O 0.5322 0.24221 0.74818 0.0
O423 O 0.55102 0.23552 0.79282 0.0
O424 O 0.47548 0.27368 0.80921 0.0
O425 O 0.45481 0.25328 0.77925 0.0
O426 O 0.45879 0.23265 0.73469 0.0
O427 O 0.43788 0.25808 0.69832 0.0
O428 O 0.45825 0.28879 0.76297 0.0
O429 O 0.43901 0.29586 0.71875 0.0
O430 O 0.51532 0.25731 0.70129 0.0
O431 O 0.54033 0.27529 0.73182 0.0
H432 H 0.54678 0.33401 0.79807 0.0
H433 H 0.53352 0.36291 0.83697 0.0
H434 H 0.51532 0.32051 0.90233 0.0
H435 H 0.52741 0.29192 0.86293 0.0
H436 H 0.41011 0.21096 0.71729 0.0
H437 H 0.41067 0.18226 0.6827 0.0
H438 H 0.47875 0.19728 0.61874 0.0
H439 H 0.47829 0.22627 0.65396 0.0
Tb440 Tb 0.01734 0.77135 0.77583 0.0
Tb441 Tb 0.96483 0.7601 0.73355 0.0
C442 C 0.04103 0.79491 0.8043 0.0
C443 C 0.02909 0.81295 0.82786 0.0
C444 C 0.01627 0.83605 0.81958 0.0
C445 C 0.01026 0.85258 0.84161 0.0
C446 C 0.0171 0.84636 0.87239 0.0
C447 C 0.02875 0.82341 0.88071 0.0
C448 C 0.03479 0.80689 0.85872 0.0
C449 C 0.05351 0.72639 0.76203 0.0
C450 C 0.95138 0.76285 0.80529 0.0
C451 C 0.93317 0.73969 0.70765 0.0
C452 C 0.94305 0.72236 0.68352 0.0
C453 C 0.95575 0.72502 0.65476 0.0
C454 C 0.96344 0.70862 0.63209 0.0
C455 C 0.95869 0.68924 0.63778 0.0
C456 C 0.94698 0.6864 0.66687 0.0
C457 C 0.93913 0.70281 0.6894 0.0
C458 C 0.94214 0.80465 0.7412 0.0
C459 C 0.0349 0.76362 0.70525 0.0
O460 O 0.02319 0.8011 0.77788 0.0
O461 O 0.04785 0.77431 0.81296 0.0
O462 O 0.01995 0.74227 0.75463 0.0
O463 O 0.06923 0.73615 0.778 0.0
O464 O 0.98047 0.76745 0.81004 0.0
O465 O 0.93968 0.76058 0.77789 0.0
O466 O 0.95378 0.73221 0.73266 0.0
O467 O 0.92701 0.76026 0.69965 0.0
O468 O 0.95741 0.78872 0.76073 0.0
O469 O 0.9363 0.79597 0.71668 0.0
O470 O 0.01319 0.75335 0.70356 0.0
O471 O 0.03613 0.77458 0.73002 0.0
H472 H 0.01196 0.84124 0.79598 0.0
H473 H 0.00075 0.87018 0.83448 0.0
H474 H 0.03475 0.81794 0.90416 0.0
H475 H 0.04521 0.78921 0.86592 0.0
H476 H 0.95933 0.73985 0.64965 0.0
H477 H 0.97223 0.7114 0.60993 0.0
H478 H 0.9439 0.67144 0.6723 0.0
H479 H 0.92974 0.70029 0.71149 0.0
Tb480 Tb 0.72116 0.51118 0.27939 0.0
Tb481 Tb 0.76222 0.51832 0.2285 0.0
C482 C 0.70454 0.497 0.32722 0.0
C483 C 0.70192 0.47735 0.34013 0.0
C484 C 0.69107 0.46367 0.32275 0.0
C485 C 0.6879 0.44555 0.3364 0.0
C486 C 0.69581 0.44078 0.36753 0.0
C487 C 0.70712 0.45442 0.3846 0.0
C488 C 0.7101 0.4725 0.37102 0.0
C489 C 0.68645 0.55498 0.26 0.0
C490 C 0.78921 0.52295 0.29247 0.0
C491 C 0.78165 0.53071 0.1802 0.0
C492 C 0.77821 0.55077 0.16314 0.0
C493 C 0.76539 0.57256 0.17633 0.0
C494 C 0.76071 0.59133 0.1584 0.0
C495 C 0.76848 0.58853 0.12709 0.0
C496 C 0.78219 0.56649 0.1144 0.0
C497 C 0.78694 0.54789 0.1322 0.0
C498 C 0.79556 0.47438 0.24817 0.0
C499 C 0.69185 0.50845 0.21592 0.0
O500 O 0.67849 0.50975 0.30681 0.0
O501 O 0.73979 0.49325 0.32064 0.0
O502 O 0.72284 0.54126 0.26163 0.0
O503 O 0.66885 0.54532 0.27336 0.0
O504 O 0.77221 0.51092 0.30111 0.0
O505 O 0.78239 0.53224 0.26507 0.0
O506 O 0.80318 0.52429 0.20474 0.0
O507 O 0.74953 0.52944 0.1833 0.0
O508 O 0.75959 0.4886 0.2457 0.0
O509 O 0.81435 0.48387 0.23626 0.0
O510 O 0.70834 0.52099 0.20798 0.0
O511 O 0.6998 0.49817 0.24271 0.0
H512 H 0.6849 0.46705 0.29878 0.0
H513 H 0.67955 0.43517 0.32259 0.0
H514 H 0.71292 0.45143 0.40866 0.0
H515 H 0.71849 0.4829 0.38479 0.0
H516 H 0.75849 0.57512 0.20023 0.0
H517 H 0.74996 0.60812 0.1688 0.0
H518 H 0.78905 0.56363 0.09051 0.0
H519 H 0.79701 0.53121 0.12162 0.0
Tb520 Tb 0.76085 0.76517 0.01314 0.0
Tb521 Tb 0.69438 0.76822 0.97477 0.0
C522 C 0.82063 0.76726 0.02933 0.0
C523 C 0.83889 0.78071 0.01819 0.0
C524 C 0.8412 0.78424 0.98708 0.0
C525 C 0.85578 0.7985 0.97687 0.0
C526 C 0.86701 0.81029 0.99762 0.0
C527 C 0.86476 0.80654 0.02885 0.0
C528 C 0.85126 0.79173 0.03895 0.0
C529 C 0.69945 0.77228 0.04496 0.0
C530 C 0.70154 0.81212 0.97777 0.0
C531 C 0.63966 0.76331 0.95274 0.0
C532 C 0.62895 0.74512 0.95885 0.0
C533 C 0.60586 0.74649 0.98401 0.0
C534 C 0.60267 0.72726 0.99308 0.0
C535 C 0.62141 0.70661 0.97653 0.0
C536 C 0.64205 0.7058 0.95017 0.0
C537 C 0.64576 0.72484 0.94141 0.0
C538 C 0.75787 0.76084 0.9449 0.0
C539 C 0.74753 0.72264 0.01421 0.0
O540 O 0.82196 0.75125 0.01126 0.0
O541 O 0.78607 0.7795 0.04182 0.0
O542 O 0.6985 0.78033 0.0187 0.0
O543 O 0.73504 0.76238 0.05546 0.0
O544 O 0.73753 0.79853 0.98856 0.0
O545 O 0.67608 0.80459 0.97452 0.0
O546 O 0.6343 0.77783 0.97466 0.0
O547 O 0.67363 0.7561 0.9395 0.0
O548 O 0.75701 0.75213 0.97012 0.0
O549 O 0.7223 0.7735 0.93503 0.0
O550 O 0.71469 0.73571 0.99906 0.0
O551 O 0.77336 0.72958 0.02047 0.0
H552 H 0.83076 0.77653 0.97062 0.0
H553 H 0.85739 0.80058 0.95269 0.0
H554 H 0.87183 0.81573 0.04575 0.0
H555 H 0.84907 0.78956 0.06307 0.0
H556 H 0.59138 0.76212 0.99731 0.0
H557 H 0.58588 0.72844 0.01316 0.0
H558 H 0.65677 0.69009 0.93696 0.0
H559 H 0.66327 0.72327 0.92164 0.0
Tb560 Tb 0.46296 1.01335 0.51774 0.0
Tb561 Tb 0.52553 0.01651 0.4821 0.0
C562 C 0.40749 1.00729 0.53506 0.0
C563 C 0.39019 0.99356 0.52338 0.0
C564 C 0.38767 0.99064 0.49216 0.0
C565 C 0.37421 0.976 0.48141 0.0
C566 C 0.36435 0.96328 0.50174 0.0
C567 C 0.36661 0.96652 0.53308 0.0
C568 C 0.37905 0.98166 0.54373 0.0
C569 C 0.52447 1.00681 0.5503 0.0
C570 C 0.5216 0.97128 0.47635 0.0
C571 C 0.58175 0.02133 0.4634 0.0
C572 C 0.60532 0.03093 0.47593 0.0
C573 C 0.59772 0.04076 0.50491 0.0
C574 C 0.61915 0.05099 0.51586 0.0
C575 C 0.64845 0.05146 0.4979 0.0
C576 C 0.65665 0.0409 0.46925 0.0
C577 C 0.63524 0.0307 0.45839 0.0
C578 C 0.46353 0.02336 0.44989 0.0
C579 C 0.46819 0.05815 0.52455 0.0
O580 O 0.40245 0.02494 0.5185 0.0
O581 O 0.44354 0.9952 0.54524 0.0
O582 O 0.52514 1.0001 0.52346 0.0
O583 O 0.48895 0.0158 0.56049 0.0
O584 O 0.48608 0.98279 0.48833 0.0
O585 O 0.54543 0.9801 0.4756 0.0
O586 O 0.5862 1.00257 0.47667 0.0
O587 O 0.54481 0.03625 0.45792 0.0
O588 O 0.46342 0.02999 0.4766 0.0
O589 O 0.49892 1.01417 0.43949 0.0
O590 O 0.50366 0.04645 0.51249 0.0
O591 O 0.44376 0.04968 0.52512 0.0
H592 H 0.39715 0.99915 0.47605 0.0
H593 H 0.37246 0.97431 0.45717 0.0
H594 H 0.36046 0.95665 0.5496 0.0
H595 H 0.38141 0.98341 0.56793 0.0
H596 H 0.57483 0.0409 0.51881 0.0
H597 H 0.61228 0.05892 0.53805 0.0
H598 H 0.67841 0.0414 0.45457 0.0
H599 H 0.64138 0.02315 0.43597 0.0
Tb600 Tb 0.44479 0.52522 0.02286 0.0
Tb601 Tb 0.51807 0.51355 0.99186 0.0
C602 C 0.38101 0.52817 0.0395 0.0
C603 C 0.36996 0.51029 0.04653 0.0
C604 C 0.35609 0.50141 0.02362 0.0
C605 C 0.34947 0.48292 0.02966 0.0
C606 C 0.35645 0.47299 0.05874 0.0
C607 C 0.36899 0.48242 0.08187 0.0
C608 C 0.37548 0.50092 0.07587 0.0
C609 C 0.50477 0.5161 0.05926 0.0
C610 C 0.49791 0.47404 0.99614 0.0
C611 C 0.58329 0.51019 0.97918 0.0
C612 C 0.59992 0.52514 0.98717 0.0
C613 C 0.58925 0.53767 0.01436 0.0
C614 C 0.59901 0.55499 0.01942 0.0
C615 C 0.61974 0.56003 0.99753 0.0
C616 C 0.63234 0.54656 0.9711 0.0
C617 C 0.62237 0.52929 0.96593 0.0
C618 C 0.45945 0.52166 0.95496 0.0
C619 C 0.46096 0.56523 0.01509 0.0
O620 O 0.38928 0.52975 0.01119 0.0
O621 O 0.40599 0.52945 0.05809 0.0
O622 O 0.50585 0.50518 0.0356 0.0
O623 O 0.46902 0.53223 0.06386 0.0
O624 O 0.4642 0.48969 0.008 0.0
O625 O 0.52651 0.4787 0.99037 0.0
O626 O 0.57822 0.49899 1.00164 0.0
O627 O 0.55271 0.5198 0.96115 0.0
O628 O 0.45723 0.53295 0.97863 0.0
O629 O 0.49581 0.50641 0.95014 0.0
O630 O 0.49768 0.54873 0.01041 0.0
O631 O 0.43218 0.56027 0.0153 0.0
H632 H 0.35112 0.5084 1.00084 0.0
H633 H 0.3391 0.47633 0.01148 0.0
H634 H 0.37501 0.47504 0.10445 0.0
H635 H 0.38591 0.50745 0.0941 0.0
H636 H 0.57168 0.53489 0.03104 0.0
H637 H 0.58826 0.56539 0.0396 0.0
H638 H 0.64871 0.54992 0.95394 0.0
H639 H 0.63072 0.51986 0.94478 0.0
H640 H 0.98647 0.0845 0.04205 0.0
H641 H 0.88237 0.0851 0.07793 0.0
H642 H 0.87171 0.11691 0.11214 0.0
H643 H 0.02144 0.09441 0.11046 0.0
H644 H 0.03821 0.113 0.09446 0.0
H645 H 0.03602 0.09133 0.07131 0.0
H646 H -0.00928 0.12337 0.03273 0.0
H647 H -0.0055 0.14444 0.05593 0.0
H648 H 0.94683 0.14814 0.04613 0.0
H649 H 0.87493 0.14671 0.14516 0.0
H650 H 0.88832 0.17512 0.17109 0.0
H651 H -0.00967 0.15494 0.11393 0.0
C652 C 0.96095 0.09161 0.05662 0.0
C653 C 0.93523 0.08225 0.05718 0.0
C654 C 0.90241 0.09198 0.07688 0.0
C655 C 0.89617 0.11002 0.09654 0.0
C656 C 0.92274 0.11833 0.09606 0.0
C657 C 0.95409 0.10975 0.07625 0.0
C658 C 0.97863 0.12152 0.08067 0.0
C659 C 0.02111 0.104 0.08974 0.0
C660 C 0.97759 0.13519 0.05218 0.0
C661 C 0.95671 0.13762 0.10654 0.0
C662 C 0.92452 0.13556 0.11505 0.0
C663 C 0.89996 0.14856 0.1386 0.0
C664 C 0.90801 0.16448 0.1534 0.0
C665 C 0.94032 0.16728 0.14456 0.0
C666 C 0.96517 0.15339 0.12103 0.0
H667 H 0.80257 0.28746 0.43454 0.0
H668 H 0.85101 0.2139 0.44931 0.0
H669 H 0.90302 0.20597 0.41145 0.0
H670 H 0.81657 0.28719 0.35719 0.0
H671 H 0.8313 0.30905 0.35686 0.0
H672 H 0.80013 0.3087 0.38659 0.0
H673 H 0.85049 0.30642 0.4273 0.0
H674 H 0.88047 0.30772 0.39717 0.0
H675 H 0.90117 0.28431 0.42425 0.0
H676 H 0.94263 0.20639 0.36625 0.0
H677 H 0.97424 0.21486 0.3232 0.0
H678 H 0.90517 0.28818 0.3418 0.0
C679 C 0.82483 0.26972 0.43026 0.0
C680 C 0.82316 0.25121 0.44473 0.0
C681 C 0.85232 0.22823 0.43863 0.0
C682 C 0.88172 0.22362 0.41707 0.0
C683 C 0.88207 0.24224 0.40253 0.0
C684 C 0.85509 0.26487 0.40955 0.0
C685 C 0.8619 0.28175 0.39074 0.0
C686 C 0.8253 0.2976 0.37172 0.0
C687 C 0.87425 0.29589 0.41106 0.0
C688 C 0.89569 0.26514 0.37095 0.0
C689 C 0.90673 0.24242 0.378 0.0
C690 C 0.93493 0.22407 0.36108 0.0
C691 C 0.95254 0.22902 0.33658 0.0
C692 C 0.94252 0.2521 0.32957 0.0
C693 C 0.91394 0.27035 0.34715 0.0
H694 H 0.75355 0.12773 0.62662 0.0
H695 H 0.88031 0.08779 0.63773 0.0
H696 H 0.8878 0.11676 0.60779 0.0
H697 H 0.75493 0.14645 0.54847 0.0
H698 H 0.71273 0.17456 0.55466 0.0
H699 H 0.7182 0.14992 0.5758 0.0
H700 H 0.712 0.17238 0.62553 0.0
H701 H 0.70753 0.19659 0.60388 0.0
H702 H 0.74544 0.18336 0.63233 0.0
H703 H 0.88146 0.15156 0.57962 0.0
H704 H 0.86156 0.18831 0.55222 0.0
H705 H 0.73959 0.20447 0.55684 0.0
C706 C 0.78293 0.12485 0.62233 0.0
C707 C 0.81629 0.1055 0.63489 0.0
C708 C 0.85417 0.10263 0.62893 0.0
C709 C 0.8588 0.11895 0.61177 0.0
C710 C 0.82533 0.13804 0.60032 0.0
C711 C 0.78814 0.14096 0.60507 0.0
C712 C 0.75701 0.16322 0.59057 0.0
C713 C 0.7344 0.15822 0.56589 0.0
C714 C 0.72885 0.17986 0.61452 0.0
C715 C 0.78251 0.17236 0.57707 0.0
C716 C 0.82183 0.15767 0.58314 0.0
C717 C 0.85078 0.16306 0.57437 0.0
C718 C 0.83924 0.18399 0.55891 0.0
C719 C 0.79917 0.19914 0.55208 0.0
C720 C 0.77059 0.19308 0.56124 0.0
H721 H 0.95175 1.00951 0.9086 0.0
H722 H 0.86731 0.04609 0.97941 0.0
H723 H 0.81457 0.04612 0.94785 0.0
H724 H 0.88602 0.04279 0.84759 0.0
H725 H 0.90598 0.01863 0.82193 0.0
H726 H 0.93666 0.02045 0.8511 0.0
H727 H 0.9528 0.97998 0.8705 0.0
H728 H 0.92169 0.97799 0.84188 0.0
H729 H 0.91343 0.97459 0.88125 0.0
H730 H 0.77226 0.03952 0.9087 0.0
H731 H 0.74195 0.03303 0.86293 0.0
H732 H 0.85319 1.00573 0.81596 0.0
C733 C 0.92216 0.01755 0.91756 0.0
C734 C 0.91382 0.02695 0.94702 0.0
C735 C 0.87459 0.03788 0.9575 0.0
C736 C 0.84447 0.03813 0.93959 0.0
C737 C 0.854 0.0281 0.91088 0.0
C738 C 0.89177 0.01861 0.89968 0.0
C739 C 0.89418 1.01036 0.86745 0.0
C740 C 0.90642 0.02387 0.84574 0.0
C741 C 0.92217 0.98417 0.86515 0.0
C742 C 0.85195 0.01633 0.86224 0.0
C743 C 0.82926 0.02618 0.88769 0.0
C744 C 0.78967 0.03212 0.88857 0.0
C745 C 0.77278 0.02826 0.8626 0.0
C746 C 0.79528 0.01908 0.83603 0.0
C747 C 0.83531 1.01302 0.83594 0.0
H748 H 0.00092 0.02656 0.12267 0.0
H749 H 0.08059 0.98488 0.05179 0.0
H750 H 0.13562 0.98598 0.07834 0.0
H751 H 0.04476 0.06148 0.14207 0.0
H752 H 0.03765 0.0601 0.18212 0.0
H753 H 0.00449 0.0579 0.15557 0.0
H754 H 0.01971 0.01869 0.18032 0.0
H755 H 0.05315 0.02094 0.20647 0.0
H756 H 0.07 0.99573 0.18287 0.0
H757 H 0.18104 0.99372 0.11181 0.0
H758 H 0.21617 1.00043 0.15411 0.0
H759 H 0.10877 0.0316 0.20654 0.0
C760 C 0.02994 0.01771 0.11269 0.0
C761 C 0.03624 1.00666 0.08434 0.0
C762 C 0.0748 0.99459 0.07257 0.0
C763 C 0.10625 0.99493 0.08766 0.0
C764 C 0.09882 1.00666 0.11513 0.0
C765 C 0.06183 0.01719 0.12799 0.0
C766 C 0.06228 0.02673 0.15902 0.0
C767 C 0.03568 0.05313 0.15973 0.0
C768 C 0.05061 0.0148 0.18362 0.0
C769 C 0.10525 0.02012 0.16154 0.0
C770 C 0.12566 1.00903 0.13569 0.0
C771 C 0.16546 1.00213 0.13228 0.0
C772 C 0.18507 1.00615 0.15624 0.0
C773 C 0.16505 0.01644 0.18338 0.0
C774 C 0.12465 0.02361 0.18597 0.0
H775 H 0.04657 0.44063 0.45916 0.0
H776 H 0.93465 0.46444 0.50441 0.0
H777 H 0.92882 0.43238 0.48166 0.0
H778 H 0.01755 0.42547 0.39061 0.0
H779 H 0.06469 0.40049 0.38337 0.0
H780 H 0.06186 0.42431 0.40478 0.0
H781 H 0.09969 0.39659 0.44921 0.0
H782 H 0.10296 0.37262 0.42784 0.0
H783 H 0.08155 0.37857 0.46511 0.0
H784 H 0.93396 0.39832 0.45321 0.0
H785 H 0.94932 0.36508 0.4199 0.0
H786 H 0.05715 0.36376 0.39241 0.0
C787 C 0.02136 0.43873 0.46499 0.0
C788 C -0.00863 0.45489 0.48396 0.0
C789 C 0.95821 0.45219 0.49018 0.0
C790 C 0.95459 0.434 0.47742 0.0
C791 C 0.98435 0.41856 0.45853 0.0
C792 C 0.01713 0.4207 0.45232 0.0
C793 C 0.04373 0.40254 0.42984 0.0
C794 C 0.04714 0.41389 0.40041 0.0
C795 C 0.08439 0.38664 0.44385 0.0
C796 C 0.02099 0.38974 0.42471 0.0
C797 C 0.98678 0.39928 0.44142 0.0
C798 C 0.96057 0.39071 0.43997 0.0
C799 C 0.9695 0.37188 0.42091 0.0
C800 C 0.0045 0.36173 0.40365 0.0
C801 C 0.03047 0.37088 0.40568 0.0
H802 H 0.71943 0.2635 0.61821 0.0
H803 H 0.64486 0.29069 0.53883 0.0
H804 H 0.59011 0.29039 0.56687 0.0
H805 H 0.68261 0.22697 0.64621 0.0
H806 H 0.68539 0.23374 0.68529 0.0
H807 H 0.71863 0.23493 0.65802 0.0
H808 H 0.69529 0.27749 0.67358 0.0
H809 H 0.66176 0.27628 0.70053 0.0
H810 H 0.64364 0.29843 0.6717 0.0
H811 H 0.54488 0.28463 0.6034 0.0
H812 H 0.51004 0.27936 0.64699 0.0
H813 H 0.61197 0.2606 0.70395 0.0
C814 C 0.69157 0.26942 0.60669 0.0
C815 C 0.68668 0.27648 0.57601 0.0
C816 C 0.64959 0.28451 0.56197 0.0
C817 C 0.6183 0.28451 0.57781 0.0
C818 C 0.62436 0.27701 0.60791 0.0
C819 C 0.65988 0.27008 0.62237 0.0
C820 C 0.65836 0.26395 0.65525 0.0
C821 C 0.68803 0.23838 0.66155 0.0
C822 C 0.66515 0.28 0.67651 0.0
C823 C 0.61645 0.26842 0.65712 0.0
C824 C 0.59752 0.27551 0.62944 0.0
C825 C 0.55927 0.27942 0.62525 0.0
C826 C 0.53979 0.27629 0.65004 0.0
C827 C 0.55821 0.26985 0.67879 0.0
C828 C 0.59701 0.26589 0.6823 0.0
H829 H 0.7358 0.90697 0.89197 0.0
H830 H 0.60895 0.94631 0.88111 0.0
H831 H 0.60178 0.91881 0.9143 0.0
H832 H 0.7463 0.8527 0.88977 0.0
H833 H 0.78272 0.83943 0.91927 0.0
H834 H 0.77947 0.86359 0.89828 0.0
H835 H 0.77107 0.88599 0.94746 0.0
H836 H 0.7737 0.86243 0.9698 0.0
H837 H 0.73198 0.89094 0.97323 0.0
H838 H 0.60803 0.88507 0.94298 0.0
H839 H 0.62743 0.84748 0.96709 0.0
H840 H 0.75018 0.82975 0.96177 0.0
C841 C 0.7065 0.91012 0.89724 0.0
C842 C 0.67295 0.92872 0.88356 0.0
C843 C 0.63515 0.93201 0.89078 0.0
C844 C 0.63071 0.91657 0.90986 0.0
C845 C 0.66428 0.89804 0.92214 0.0
C846 C 0.70145 0.89488 0.91658 0.0
C847 C 0.7326 0.87278 0.93163 0.0
C848 C 0.76201 0.85615 0.90833 0.0
C849 C 0.75362 0.87836 0.95701 0.0
C850 C 0.70724 0.86335 0.94467 0.0
C851 C 0.66786 0.87851 0.93943 0.0
C852 C 0.63874 0.87321 0.94767 0.0
C853 C 0.6501 0.85173 0.96127 0.0
C854 C 0.69029 0.83567 0.9665 0.0
C855 C 0.71917 0.8418 0.95854 0.0
H856 H 0.22528 0.25569 0.11596 0.0
H857 H 0.14567 0.29971 0.04587 0.0
H858 H 0.08895 0.30421 0.07611 0.0
H859 H 0.1709 0.22735 0.13868 0.0
H860 H 0.18239 0.22718 0.17824 0.0
H861 H 0.21595 0.22666 0.14989 0.0
H862 H 0.21247 0.26334 0.17412 0.0
H863 H 0.1784 0.26399 0.20206 0.0
H864 H 0.1653 0.28897 0.17851 0.0
H865 H 0.04119 0.30174 0.11338 0.0
H866 H 0.00612 0.29646 0.15684 0.0
H867 H 0.11679 0.25792 0.20479 0.0
C868 C 0.1959 0.26631 0.10697 0.0
C869 C 0.18985 0.27687 0.07816 0.0
C870 C 0.15099 0.2909 0.06743 0.0
C871 C 0.11862 0.29367 0.08457 0.0
C872 C 0.12564 0.28271 0.11272 0.0
C873 C 0.16334 0.26964 0.12405 0.0
C874 C 0.16303 0.26042 0.15542 0.0
C875 C 0.18436 0.23382 0.15556 0.0
C876 C 0.18085 0.26974 0.17891 0.0
C877 C 0.11924 0.27037 0.1601 0.0
C878 C 0.09816 0.2828 0.13499 0.0
C879 C 0.05738 0.29236 0.13332 0.0
C880 C 0.03773 0.28925 0.15802 0.0
C881 C 0.05875 0.27716 0.18424 0.0
C882 C 0.09997 0.2677 0.18525 0.0
H883 H 0.74542 0.4093 0.40939 0.0
H884 H 0.63702 0.42978 0.3598 0.0
H885 H 0.62903 0.39955 0.3866 0.0
H886 H 0.77953 0.34887 0.40881 0.0
H887 H 0.79984 0.3436 0.44648 0.0
H888 H 0.7974 0.36711 0.4244 0.0
H889 H 0.75931 0.39559 0.46666 0.0
H890 H 0.75926 0.3731 0.4896 0.0
H891 H 0.71353 0.39828 0.47987 0.0
H892 H 0.63295 0.36704 0.41942 0.0
H893 H 0.65071 0.33333 0.45272 0.0
H894 H 0.75629 0.33471 0.48083 0.0
C895 C 0.71984 0.40755 0.40426 0.0
C896 C 0.69177 0.42196 0.38253 0.0
C897 C 0.6591 0.41879 0.37613 0.0
C898 C 0.65415 0.4018 0.39142 0.0
C899 C 0.68216 0.3881 0.41299 0.0
C900 C 0.71449 0.39071 0.41922 0.0
C901 C 0.74081 0.37349 0.44285 0.0
C902 C 0.78182 0.35732 0.42984 0.0
C903 C 0.74338 0.38589 0.47141 0.0
C904 C 0.71839 0.36068 0.44894 0.0
C905 C 0.68449 0.36943 0.43166 0.0
C906 C 0.6594 0.36008 0.43309 0.0
C907 C 0.66968 0.34097 0.45219 0.0
C908 C 0.70482 0.33137 0.46955 0.0
C909 C 0.72905 0.34169 0.46812 0.0
H910 H 0.52429 0.01841 0.6093 0.0
H911 H 0.59988 0.99306 0.53087 0.0
H912 H 0.65272 0.99531 0.55923 0.0
H913 H 0.55693 0.05681 0.63849 0.0
H914 H 0.55456 0.04931 0.67735 0.0
H915 H 0.52233 0.04754 0.64948 0.0
H916 H 0.54852 1.00444 0.66436 0.0
H917 H 0.58098 1.00627 0.69189 0.0
H918 H 0.60063 0.98453 0.66281 0.0
H919 H 0.69655 1.00196 0.5968 0.0
H920 H 0.7306 1.00649 0.64168 0.0
H921 H 0.62835 0.02289 0.69662 0.0
C922 C 0.55195 1.01337 0.59803 0.0
C923 C 0.55761 1.00625 0.56748 0.0
C924 C 0.5945 0.99926 0.55385 0.0
C925 C 0.62472 1.0004 0.5699 0.0
C926 C 0.61789 1.00791 0.59989 0.0
C927 C 0.58265 1.01375 0.61398 0.0
C928 C 0.58348 0.0196 0.64698 0.0
C929 C 0.55245 0.04481 0.65345 0.0
C930 C 0.5781 1.0027 0.66773 0.0
C931 C 0.62468 0.0162 0.64937 0.0
C932 C 0.64388 1.00993 0.62187 0.0
C933 C 0.68188 1.00662 0.61848 0.0
C934 C 0.70091 1.00935 0.644 0.0
C935 C 0.6822 0.01483 0.67257 0.0
C936 C 0.64353 0.01843 0.6751 0.0
H937 H 0.03839 0.95135 0.94175 0.0
H938 H 0.98517 0.94273 0.02333 0.0
H939 H 0.98521 0.9087 1.00131 0.0
H940 H 0.98336 0.93818 0.89133 0.0
H941 H 0.0222 0.92279 0.86444 0.0
H942 H 0.02294 0.94474 0.88789 0.0
H943 H 0.09243 0.91497 0.90775 0.0
H944 H 0.09174 0.89307 0.88409 0.0
H945 H 0.1001 0.88818 0.92426 0.0
H946 H 0.98282 0.87921 0.96879 0.0
H947 H 0.98522 0.85239 0.92916 0.0
H948 H 0.0412 0.87898 0.86834 0.0
C949 C 0.02842 0.94163 0.95535 0.0
C950 C 0.01251 0.94933 0.98443 0.0
C951 C -0.00195 0.93684 1.00117 0.0
C952 C -0.00228 0.91757 0.98881 0.0
C953 C 0.01207 0.91092 0.95966 0.0
C954 C 0.02777 0.92225 0.94323 0.0
C955 C 0.03893 0.91222 0.91163 0.0
C956 C 0.01547 0.93059 0.88739 0.0
C957 C 0.08346 0.90147 0.90665 0.0
C958 C 0.0265 0.89385 0.91288 0.0
C959 C 0.01102 0.89347 0.94079 0.0
C960 C -0.00427 0.87886 0.94704 0.0
C961 C -0.00278 0.86372 0.92437 0.0
C962 C 0.01378 0.86336 0.89571 0.0
C963 C 0.02827 0.87883 0.88994 0.0
H964 H 0.05544 0.12214 0.97231 0.0
H965 H 0.1055 0.09206 0.05981 0.0
H966 H 0.11482 0.12555 0.07098 0.0
H967 H 0.11877 0.14297 0.95528 0.0
H968 H 0.08226 0.1692 0.93726 0.0
H969 H 0.07619 0.14404 0.93762 0.0
H970 H 0.00793 0.16771 0.96286 0.0
H971 H 0.01373 0.19305 0.96258 0.0
H972 H 0.00378 0.18292 0.99762 0.0
H973 H 0.12355 0.16093 0.07049 0.0
H974 H 0.13296 0.19405 0.05775 0.0
H975 H 0.07397 0.20156 0.97157 0.0
C976 C 0.06749 0.12279 0.99416 0.0
C977 C 0.07962 0.10447 0.01521 0.0
C978 C 0.09635 0.10576 0.04317 0.0
C979 C 0.10137 0.12484 0.04986 0.0
C980 C 0.08927 0.14251 0.02843 0.0
C981 C 0.07251 0.14166 1.00121 0.0
C982 C 0.0642 0.16207 0.98117 0.0
C983 C 0.08671 0.15408 0.95107 0.0
C984 C 0.01977 0.17734 0.97575 0.0
C985 C 0.0802 0.17415 1.00089 0.0
C986 C 0.09406 0.16283 0.02823 0.0
C987 C 0.11231 0.17009 0.0493 0.0
C988 C 0.11742 0.18903 0.04186 0.0
C989 C 0.10477 0.20033 0.01342 0.0
C990 C 0.08475 0.19312 0.99325 0.0
H991 H 0.64142 0.58965 0.29962 0.0
H992 H 0.69035 0.57728 0.2093 0.0
H993 H 0.65642 0.61963 0.19964 0.0
H994 H 0.54764 0.63868 0.28315 0.0
H995 H 0.54568 0.65397 0.31734 0.0
H996 H 0.57298 0.62284 0.31675 0.0
H997 H 0.63559 0.6236 0.33474 0.0
H998 H 0.60841 0.65473 0.33561 0.0
H999 H 0.65282 0.64016 0.31363 0.0
H1000 H 0.61223 0.66365 0.19899 0.0
H1001 H 0.57087 0.70544 0.20972 0.0
H1002 H 0.55679 0.6893 0.30243 0.0
C1003 C 0.645 0.59594 0.27786 0.0
C1004 C 0.66829 0.58029 0.25506 0.0
C1005 C 0.67275 0.58905 0.22702 0.0
C1006 C 0.65337 0.61305 0.22133 0.0
C1007 C 0.63026 0.62808 0.24419 0.0
C1008 C 0.62676 0.61985 0.27215 0.0
C1009 C 0.60186 0.63964 0.29341 0.0
C1010 C 0.56485 0.63872 0.30324 0.0
C1011 C 0.62612 0.63952 0.32098 0.0
C1012 C 0.59139 0.66033 0.27301 0.0
C1013 C 0.60745 0.6533 0.24452 0.0
C1014 C 0.60009 0.66929 0.22136 0.0
C1015 C 0.57641 0.69301 0.22762 0.0
C1016 C 0.56102 0.70062 0.25698 0.0
C1017 C 0.56861 0.68398 0.27988 0.0
H1018 H 0.30525 0.8667 0.52775 0.0
H1019 H 0.38447 0.82964 0.45386 0.0
H1020 H 0.3865 0.86488 0.43969 0.0
H1021 H 0.25479 0.92749 0.49329 0.0
H1022 H 0.2554 0.93863 0.53017 0.0
H1023 H 0.25165 0.9127 0.52671 0.0
H1024 H 0.31322 0.89329 0.56307 0.0
H1025 H 0.31741 0.91908 0.56307 0.0
H1026 H 0.3584 0.89205 0.55117 0.0
H1027 H 0.38821 0.90175 0.43796 0.0
H1028 H 0.39342 0.93601 0.45106 0.0
H1029 H 0.31542 0.94895 0.52742 0.0
C1030 C 0.32266 0.866 0.50832 0.0
C1031 C 0.34457 0.84529 0.49191 0.0
C1032 C 0.36673 0.84531 0.46651 0.0
C1033 C 0.36808 0.8653 0.45823 0.0
C1034 C 0.34715 0.88516 0.47552 0.0
C1035 C 0.32481 0.88569 0.50007 0.0
C1036 C 0.31042 0.90786 0.51786 0.0
C1037 C 0.26537 0.92249 0.51694 0.0
C1038 C 0.3258 0.90275 0.55072 0.0
C1039 C 0.32923 0.91932 0.50004 0.0
C1040 C 0.34951 0.90622 0.47534 0.0
C1041 C 0.37184 0.91237 0.45695 0.0
C1042 C 0.37454 0.93201 0.4646 0.0
C1043 C 0.35539 0.94518 0.49064 0.0
C1044 C 0.33114 0.93914 0.50772 0.0
H1045 H 0.02886 0.69367 0.76429 0.0
H1046 H 0.12694 0.7037 0.7398 0.0
H1047 H 0.16819 0.66177 0.73119 0.0
H1048 H 0.08409 0.64383 0.80706 0.0
H1049 H 0.05762 0.62902 0.79638 0.0
H1050 H 0.03327 0.66012 0.79549 0.0
H1051 H 0.01497 0.66012 0.73909 0.0
H1052 H 0.03894 0.62897 0.73988 0.0
H1053 H 0.05309 0.64349 0.71218 0.0
H1054 H 0.20112 0.61874 0.73033 0.0
H1055 H 0.22396 0.57723 0.73817 0.0
H1056 H 0.10635 0.59357 0.76535 0.0
C1057 C 0.05858 0.68703 0.75603 0.0
C1058 C 0.07457 0.70195 0.75201 0.0
C1059 C 0.11405 0.69259 0.74252 0.0
C1060 C 0.1377 0.66878 0.73758 0.0
C1061 C 0.12167 0.65435 0.74256 0.0
C1062 C 0.083 0.66304 0.75151 0.0
C1063 C 0.07453 0.64337 0.75817 0.0
C1064 C 0.06162 0.64414 0.79124 0.0
C1065 C 0.04354 0.64403 0.73601 0.0
C1066 C 0.11472 0.62238 0.75252 0.0
C1067 C 0.14122 0.62921 0.74302 0.0
C1068 C 0.18054 0.61319 0.73752 0.0
C1069 C 0.19332 0.58961 0.74214 0.0
C1070 C 0.16707 0.5821 0.75245 0.0
C1071 C 0.12708 0.59876 0.7573 0.0
H1072 H 0.8622 0.36501 0.50793 0.0
H1073 H 0.75697 0.38601 0.56143 0.0
H1074 H 0.7417 0.42671 0.55774 0.0
H1075 H 0.89045 0.4017 0.5406 0.0
H1076 H 0.90788 0.40853 0.50653 0.0
H1077 H 0.90824 0.38144 0.50967 0.0
H1078 H 0.86761 0.39038 0.46085 0.0
H1079 H 0.86398 0.41844 0.45679 0.0
H1080 H 0.82009 0.41601 0.45824 0.0
H1081 H 0.74027 0.46473 0.55106 0.0
H1082 H 0.75487 0.49671 0.54448 0.0
H1083 H 0.86181 0.45048 0.49648 0.0
C1084 C 0.83559 0.37821 0.51842 0.0
C1085 C 0.81093 0.37232 0.53513 0.0
C1086 C 0.77668 0.39008 0.54895 0.0
C1087 C 0.76747 0.41328 0.54665 0.0
C1088 C 0.79267 0.41846 0.53031 0.0
C1089 C 0.82599 0.40143 0.51641 0.0
C1090 C 0.8497 0.41135 0.50207 0.0
C1091 C 0.89151 0.40009 0.51552 0.0
C1092 C 0.85043 0.40887 0.46744 0.0
C1093 C 0.82549 0.43643 0.51128 0.0
C1094 C 0.79221 0.4403 0.52691 0.0
C1095 C 0.76616 0.46193 0.53871 0.0
C1096 C 0.77487 0.47995 0.53504 0.0
C1097 C 0.80968 0.47614 0.5201 0.0
C1098 C 0.83469 0.45415 0.50755 0.0
H1099 H 0.32976 0.94063 0.20474 0.0
H1100 H 0.27566 0.95332 0.29326 0.0
H1101 H 0.30788 0.91086 0.30238 0.0
H1102 H 0.31939 0.88988 0.18761 0.0
H1103 H 0.36527 0.87575 0.16735 0.0
H1104 H 0.33719 0.90686 0.16822 0.0
H1105 H 0.39795 0.90827 0.18941 0.0
H1106 H 0.42607 0.87718 0.18897 0.0
H1107 H 0.42125 0.89262 0.22364 0.0
H1108 H 0.35276 0.86636 0.30303 0.0
H1109 H 0.39661 0.82475 0.29258 0.0
H1110 H 0.41604 0.84155 0.20172 0.0
C1111 C 0.32429 0.93446 0.22593 0.0
C1112 C 0.30031 0.95022 0.24838 0.0
C1113 C 0.29372 0.94153 0.27573 0.0
C1114 C 0.31216 0.91744 0.28111 0.0
C1115 C 0.33644 0.90234 0.25865 0.0
C1116 C 0.34167 0.91061 0.23131 0.0
C1117 C 0.36839 0.89099 0.2105 0.0
C1118 C 0.34623 0.89087 0.18172 0.0
C1119 C 0.40561 0.89236 0.20268 0.0
C1120 C 0.3781 0.87023 0.23045 0.0
C1121 C 0.3599 0.87709 0.25833 0.0
C1122 C 0.36652 0.86092 0.28109 0.0
C1123 C 0.3917 0.8373 0.27504 0.0
C1124 C 0.40949 0.82989 0.24629 0.0
C1125 C 0.40247 0.84667 0.22378 0.0
H1126 H 0.33597 0.44111 0.70898 0.0
H1127 H 0.28444 0.45299 0.79833 0.0
H1128 H 0.31896 0.4106 0.80785 0.0
H1129 H 0.32741 0.38981 0.69335 0.0
H1130 H 0.37273 0.37581 0.67236 0.0
H1131 H 0.34439 0.40691 0.67323 0.0
H1132 H 0.4054 0.40866 0.6931 0.0
H1133 H 0.43382 0.37756 0.69257 0.0
H1134 H 0.42982 0.39301 0.72706 0.0
H1135 H 0.36426 0.3664 0.80852 0.0
H1136 H 0.40729 0.3247 0.79775 0.0
H1137 H 0.42381 0.34165 0.70608 0.0
C1138 C 0.3318 0.43472 0.73046 0.0
C1139 C 0.30748 0.45026 0.75298 0.0
C1140 C 0.30256 0.44132 0.78073 0.0
C1141 C 0.32234 0.41729 0.78637 0.0
C1142 C 0.34648 0.40237 0.76377 0.0
C1143 C 0.35054 0.41078 0.73612 0.0
C1144 C 0.37683 0.39116 0.71513 0.0
C1145 C 0.35397 0.39091 0.68685 0.0
C1146 C 0.41365 0.3927 0.70646 0.0
C1147 C 0.38737 0.37034 0.7353 0.0
C1148 C 0.37018 0.37715 0.76348 0.0
C1149 C 0.37733 0.36095 0.78637 0.0
C1150 C 0.40199 0.33729 0.78012 0.0
C1151 C 0.41858 0.32993 0.75101 0.0
C1152 C 0.41115 0.34676 0.72844 0.0
H1153 H 0.19567 0.78006 0.61157 0.0
H1154 H 0.17694 0.74321 0.53834 0.0
H1155 H 0.12675 0.74003 0.56832 0.0
H1156 H 0.18632 0.74641 0.67153 0.0
H1157 H 0.16142 0.77049 0.69696 0.0
H1158 H 0.195 0.77067 0.6692 0.0
H1159 H 0.14021 0.80983 0.64818 0.0
H1160 H 0.10648 0.80979 0.67594 0.0
H1161 H 0.09402 0.81236 0.63626 0.0
H1162 H 0.07931 0.74031 0.60652 0.0
H1163 H 0.03813 0.74361 0.65043 0.0
H1164 H 0.08757 0.77996 0.69997 0.0
C1165 C 0.18051 0.77162 0.60181 0.0
C1166 C 0.18898 0.7627 0.57212 0.0
C1167 C 0.16954 0.75119 0.56033 0.0
C1168 C 0.14129 0.74903 0.57742 0.0
C1169 C 0.133 0.75837 0.60643 0.0
C1170 C 0.15204 0.76941 0.61862 0.0
C1171 C 0.13816 0.77745 0.65065 0.0
C1172 C 0.17226 0.76554 0.67343 0.0
C1173 C 0.11855 0.80393 0.65287 0.0
C1174 C 0.10837 0.76921 0.65451 0.0
C1175 C 0.10596 0.75822 0.62872 0.0
C1176 C 0.08085 0.74893 0.62684 0.0
C1177 C 0.05756 0.7509 0.65198 0.0
C1178 C 0.05943 0.7621 0.67876 0.0
C1179 C 0.08525 0.77138 0.67987 0.0
H1180 H 0.17387 0.90798 0.37087 0.0
H1181 H 0.22572 0.93374 0.43672 0.0
H1182 H 0.22901 0.90484 0.47383 0.0
H1183 H 0.11479 0.89614 0.42292 0.0
H1184 H 0.12356 0.8698 0.4046 0.0
H1185 H 0.12458 0.89252 0.38285 0.0
H1186 H 0.19502 0.86391 0.3643 0.0
H1187 H 0.19385 0.84107 0.38558 0.0
H1188 H 0.23303 0.8476 0.39175 0.0
H1189 H 0.22967 0.87277 0.50316 0.0
H1190 H 0.22979 0.83777 0.52223 0.0
H1191 H 0.17581 0.833 0.43863 0.0
C1192 C 0.18608 0.90752 0.39307 0.0
C1193 C 0.19925 0.92333 0.40091 0.0
C1194 C 0.21482 0.92215 0.43029 0.0
C1195 C 0.21691 0.90581 0.45152 0.0
C1196 C 0.20313 0.89082 0.44324 0.0
C1197 C 0.18822 0.89137 0.4147 0.0
C1198 C 0.17649 0.87275 0.41148 0.0
C1199 C 0.13222 0.88345 0.40508 0.0
C1200 C 0.20106 0.8553 0.38682 0.0
C1201 C 0.18699 0.86175 0.44275 0.0
C1202 C 0.20244 0.87247 0.46062 0.0
C1203 C 0.21695 0.8645 0.4896 0.0
C1204 C 0.21664 0.84471 0.50033 0.0
C1205 C 0.20167 0.83312 0.4823 0.0
C1206 C 0.18582 0.84209 0.45338 0.0
H1207 H 0.91513 0.66789 0.6262 0.0
H1208 H 0.01685 0.67191 0.59445 0.0
H1209 H 0.02811 0.64271 0.55533 0.0
H1210 H 0.95764 0.60731 0.61946 0.0
H1211 H 0.91263 0.60818 0.60779 0.0
H1212 H 0.91087 0.63078 0.63128 0.0
H1213 H 0.86587 0.66142 0.59178 0.0
H1214 H 0.86767 0.63888 0.56805 0.0
H1215 H 0.88197 0.65895 0.55307 0.0
H1216 H 0.03149 0.61035 0.52262 0.0
H1217 H 0.02689 0.57775 0.49972 0.0
H1218 H 0.92242 0.59568 0.55272 0.0
C1219 C 0.93987 0.66264 0.6111 0.0
C1220 C 0.96514 0.67221 0.6135 0.0
C1221 C -0.00319 0.66504 0.5929 0.0
C1222 C 0.00357 0.64837 0.57069 0.0
C1223 C 0.97834 0.63909 0.5693 0.0
C1224 C 0.94707 0.64605 0.58894 0.0
C1225 C 0.92527 0.63276 0.58377 0.0
C1226 C 0.92671 0.61894 0.61226 0.0
C1227 C 0.88267 0.64898 0.57355 0.0
C1228 C 0.94946 0.61693 0.55841 0.0
C1229 C 0.9799 0.62085 0.55027 0.0
C1230 C 0.00763 0.60725 0.5287 0.0
C1231 C 0.00469 0.58885 0.51572 0.0
C1232 C 0.97393 0.58443 0.52406 0.0
C1233 C 0.94563 0.59899 0.54526 0.0
H1234 H 0.32509 0.72976 0.41867 0.0
H1235 H 0.26233 0.80205 0.44356 0.0
H1236 H 0.30691 0.80958 0.41241 0.0
H1237 H 0.42483 0.72263 0.40999 0.0
H1238 H 0.435 0.70556 0.37611 0.0
H1239 H 0.4025 0.7047 0.4044 0.0
H1240 H 0.34791 0.71626 0.36383 0.0
H1241 H 0.38014 0.71724 0.33546 0.0
H1242 H 0.33269 0.74222 0.34181 0.0
H1243 H 0.35906 0.80924 0.37998 0.0
H1244 H 0.40614 0.80334 0.33928 0.0
H1245 H 0.42875 0.73296 0.32763 0.0
C1246 C 0.32191 0.74691 0.41836 0.0
C1247 C 0.29167 0.76512 0.43488 0.0
C1248 C 0.28633 0.78772 0.43226 0.0
C1249 C 0.31154 0.79216 0.41452 0.0
C1250 C 0.3414 0.77388 0.39877 0.0
C1251 C 0.34614 0.75182 0.39977 0.0
C1252 C 0.37663 0.73627 0.37686 0.0
C1253 C 0.41183 0.71609 0.3928 0.0
C1254 C 0.35823 0.72749 0.35309 0.0
C1255 C 0.38813 0.75308 0.363 0.0
C1256 C 0.36823 0.77445 0.37674 0.0
C1257 C 0.37451 0.79268 0.36875 0.0
C1258 C 0.40132 0.78916 0.34562 0.0
C1259 C 0.42055 0.76784 0.33005 0.0
C1260 C 0.41403 0.74951 0.33898 0.0
H1261 H 0.22909 0.1324 0.11735 0.0
H1262 H 0.35221 0.09688 0.14378 0.0
H1263 H 0.36404 0.12289 0.11095 0.0
H1264 H 0.24516 0.14297 0.03868 0.0
H1265 H 0.20273 0.17136 0.03666 0.0
H1266 H 0.2025 0.14964 0.06124 0.0
H1267 H 0.18587 0.1766 0.10711 0.0
H1268 H 0.18568 0.19896 0.08379 0.0
H1269 H 0.21726 0.18852 0.11659 0.0
H1270 H 0.3627 0.15305 0.07669 0.0
H1271 H 0.34724 0.18738 0.04571 0.0
H1272 H 0.2248 0.20412 0.04136 0.0
C1273 C 0.25857 0.13 0.11599 0.0
C1274 C 0.28969 0.11269 0.13333 0.0
C1275 C 0.32779 0.11024 0.13113 0.0
C1276 C 0.33492 0.12478 0.11229 0.0
C1277 C 0.30369 0.1417 0.09565 0.0
C1278 C 0.26623 0.14449 0.09732 0.0
C1279 C 0.23763 0.16483 0.07804 0.0
C1280 C 0.22099 0.15671 0.05214 0.0
C1281 C 0.20464 0.18332 0.09754 0.0
C1282 C 0.26471 0.17331 0.06596 0.0
C1283 C 0.30281 0.15944 0.07602 0.0
C1284 C 0.333 0.164 0.06854 0.0
C1285 C 0.32389 0.18357 0.05087 0.0
C1286 C 0.28481 0.1985 0.04103 0.0
C1287 C 0.25503 0.19299 0.04829 0.0
H1288 H 0.75981 0.78214 0.89289 0.0
H1289 H 0.83573 0.73121 0.95886 0.0
H1290 H 0.89421 0.72801 0.93234 0.0
H1291 H 0.82079 0.7526 0.82919 0.0
H1292 H 0.80936 0.77894 0.80933 0.0
H1293 H 0.7741 0.77831 0.83498 0.0
H1294 H 0.77178 0.81259 0.86518 0.0
H1295 H 0.80661 0.81332 0.83912 0.0
H1296 H 0.81715 0.81022 0.87911 0.0
H1297 H 0.94431 0.73244 0.8992 0.0
H1298 H 0.98147 0.7386 0.85795 0.0
H1299 H 0.87208 0.78276 0.81101 0.0
C1300 C 0.78874 0.77034 0.90185 0.0
C1301 C 0.79331 0.75752 0.92855 0.0
C1302 C 0.83162 0.74177 0.93902 0.0
C1303 C 0.86495 0.73981 0.92404 0.0
C1304 C 0.85934 0.75322 0.89814 0.0
C1305 C 0.82213 0.76773 0.88676 0.0
C1306 C 0.82384 0.7789 0.85731 0.0
C1307 C 0.80597 0.77175 0.83116 0.0
C1308 C 0.80361 0.80533 0.86038 0.0
C1309 C 0.86781 0.76856 0.85386 0.0
C1310 C 0.8879 0.75418 0.87793 0.0
C1311 C 0.92883 0.74346 0.88011 0.0
C1312 C 0.94966 0.74716 0.85676 0.0
C1313 C 0.92953 0.761 0.83137 0.0
C1314 C 0.88814 0.77191 0.8301 0.0
H1315 H 0.22675 0.62433 0.59879 0.0
H1316 H 0.34492 0.59378 0.63605 0.0
H1317 H 0.35733 0.62078 0.60571 0.0
H1318 H 0.25357 0.63258 0.52367 0.0
H1319 H 0.2101 0.65981 0.51679 0.0
H1320 H 0.20784 0.63883 0.54142 0.0
H1321 H 0.1811 0.66776 0.58551 0.0
H1322 H 0.18047 0.68967 0.56104 0.0
H1323 H 0.20651 0.68312 0.59664 0.0
H1324 H 0.35719 0.65089 0.57174 0.0
H1325 H 0.34244 0.68487 0.5403 0.0
H1326 H 0.22418 0.69631 0.52471 0.0
C1327 C 0.25526 0.6233 0.60053 0.0
C1328 C 0.28484 0.60695 0.61995 0.0
C1329 C 0.32161 0.60634 0.62173 0.0
C1330 C 0.32909 0.62145 0.60433 0.0
C1331 C 0.29952 0.63713 0.58521 0.0
C1332 C 0.26319 0.63836 0.58341 0.0
C1333 C 0.23638 0.6571 0.56135 0.0
C1334 C 0.22636 0.64643 0.53422 0.0
C1335 C 0.19892 0.6755 0.57709 0.0
C1336 C 0.26286 0.66679 0.55195 0.0
C1337 C 0.29941 0.65464 0.56552 0.0
C1338 C 0.3287 0.66054 0.56095 0.0
C1339 C 0.32 0.67988 0.54293 0.0
C1340 C 0.28214 0.69336 0.52991 0.0
C1341 C 0.25357 0.68628 0.53394 0.0
H1342 H 0.35777 1.00154 0.30881 0.0
H1343 H 0.25037 0.03132 0.36132 0.0
H1344 H 0.28512 0.03766 0.40411 0.0
H1345 H 0.4213 0.9711 0.37291 0.0
H1346 H 0.46154 0.97491 0.35989 0.0
H1347 H 0.42838 0.9731 0.33295 0.0
H1348 H 0.41259 1.01255 0.30973 0.0
H1349 H 0.44593 0.01466 0.33612 0.0
H1350 H 0.39552 0.03749 0.33389 0.0
H1351 H 0.33057 0.04449 0.43904 0.0
H1352 H 0.38569 0.04484 0.46663 0.0
H1353 H 0.46474 1.00619 0.39377 0.0
C1354 C 0.34172 1.00924 0.32943 0.0
C1355 C 0.30141 0.01607 0.33181 0.0
C1356 C 0.28137 0.02587 0.35918 0.0
C1357 C 0.30077 0.02968 0.38349 0.0
C1358 C 0.34044 0.02309 0.38028 0.0
C1359 C 0.36091 1.01255 0.35421 0.0
C1360 C 0.40378 1.00611 0.35701 0.0
C1361 C 0.43036 0.97973 0.3556 0.0
C1362 C 0.4151 0.01844 0.33274 0.0
C1363 C 0.40404 0.01522 0.38837 0.0
C1364 C 0.36714 0.02525 0.40131 0.0
C1365 C 0.3598 0.03613 0.42944 0.0
C1366 C 0.39125 0.03618 0.44503 0.0
C1367 C 0.42964 0.02486 0.43285 0.0
C1368 C 0.43582 1.01458 0.40396 0.0
H1369 H 0.91744 0.82294 0.02468 0.0
H1370 H 0.83991 0.83837 0.94695 0.0
H1371 H 0.84728 0.87216 0.93532 0.0
H1372 H 0.87476 0.87741 0.0505 0.0
H1373 H 0.91884 0.87685 0.06409 0.0
H1374 H 0.91689 0.85043 0.06156 0.0
H1375 H 0.97885 0.83295 0.02835 0.0
H1376 H 0.98111 0.85946 0.02926 0.0
H1377 H 0.97932 0.84693 0.99351 0.0
H1378 H 0.85122 0.90844 0.93813 0.0
H1379 H 0.85168 0.94371 0.95539 0.0
H1380 H 0.92386 0.90588 0.03246 0.0
C1381 C 0.9024 0.83314 1.00491 0.0
C1382 C 0.87759 0.82794 0.9871 0.0
C1383 C 0.85935 0.84162 0.96102 0.0
C1384 C 0.86333 0.861 0.95415 0.0
C1385 C 0.88594 0.86643 0.97337 0.0
C1386 C 0.90551 0.85274 0.99808 0.0
C1387 C 0.92314 0.86401 0.01772 0.0
C1388 C 0.90744 0.86738 0.05037 0.0
C1389 C 0.96829 0.85002 0.01716 0.0
C1390 C 0.90807 0.88687 1.00136 0.0
C1391 C 0.88771 0.88768 0.97531 0.0
C1392 C 0.86788 0.90784 0.95807 0.0
C1393 C 0.8682 0.92779 0.96807 0.0
C1394 C 0.88762 0.92749 0.99533 0.0
C1395 C 0.90862 0.90659 0.01162 0.0
H1396 H 0.63802 0.17137 0.51719 0.0
H1397 H 0.75341 0.13878 0.47515 0.0
H1398 H 0.76058 0.10066 0.48569 0.0
H1399 H 0.65658 0.12442 0.57322 0.0
H1400 H 0.6085 0.12758 0.56695 0.0
H1401 H 0.61576 0.15233 0.56357 0.0
H1402 H 0.58707 0.15995 0.50909 0.0
H1403 H 0.57914 0.13559 0.51259 0.0
H1404 H 0.60795 0.13699 0.48163 0.0
H1405 H 0.75248 0.06663 0.49362 0.0
H1406 H 0.72572 0.03987 0.49139 0.0
H1407 H 0.61327 0.09434 0.52345 0.0
C1408 C 0.66497 0.15627 0.51037 0.0
C1409 C 0.69535 0.15829 0.49575 0.0
C1410 C 0.7301 0.13791 0.48727 0.0
C1411 C 0.73456 0.11606 0.49321 0.0
C1412 C 0.70391 0.11472 0.50734 0.0
C1413 C 0.66954 0.13429 0.51548 0.0
C1414 C 0.63855 0.12827 0.52552 0.0
C1415 C 0.62932 0.13346 0.55933 0.0
C1416 C 0.601 0.14093 0.50603 0.0
C1417 C 0.66005 0.10248 0.51977 0.0
C1418 C 0.69827 0.0949 0.51052 0.0
C1419 C 0.72281 0.07225 0.50121 0.0
C1420 C 0.7073 0.05722 0.49983 0.0
C1421 C 0.6674 0.06511 0.50706 0.0
C1422 C 0.6441 0.0877 0.51842 0.0
H1423 H 0.87183 0.4388 0.23971 0.0
H1424 H 0.75692 0.45298 0.27117 0.0
H1425 H 0.78249 0.41122 0.27985 0.0
H1426 H 0.89468 0.38759 0.19939 0.0
H1427 H 0.94615 0.37239 0.20932 0.0
H1428 H 0.91999 0.40351 0.20781 0.0
H1429 H 0.9408 0.40509 0.26311 0.0
H1430 H 0.96707 0.37393 0.26475 0.0
H1431 H 0.92988 0.39017 0.29247 0.0
H1432 H 0.81883 0.36795 0.28197 0.0
H1433 H 0.86316 0.32598 0.27714 0.0
H1434 H 0.95594 0.3385 0.24467 0.0
C1435 C 0.85223 0.4331 0.24876 0.0
C1436 C 0.81224 0.44923 0.25476 0.0
C1437 C 0.78752 0.44102 0.26636 0.0
C1438 C 0.80186 0.4173 0.27144 0.0
C1439 C 0.84118 0.40182 0.26492 0.0
C1440 C 0.86615 0.40933 0.25394 0.0
C1441 C 0.90674 0.38883 0.24767 0.0
C1442 C 0.91751 0.38804 0.21405 0.0
C1443 C 0.93797 0.38956 0.26822 0.0
C1444 C 0.90037 0.36864 0.25608 0.0
C1445 C 0.86237 0.37665 0.26625 0.0
C1446 C 0.84871 0.36152 0.27426 0.0
C1447 C 0.87416 0.33766 0.27139 0.0
C1448 C 0.91306 0.32888 0.2606 0.0
C1449 C 0.92653 0.34464 0.25331 0.0
H1450 H 0.14819 0.57921 0.46432 0.0
H1451 H 0.10333 0.58147 0.55486 0.0
H1452 H 0.10325 0.61818 0.56426 0.0
H1453 H 0.20896 0.60544 0.48224 0.0
H1454 H 0.1971 0.62117 0.44695 0.0
H1455 H 0.19787 0.59383 0.4491 0.0
H1456 H 0.1262 0.61341 0.42862 0.0
H1457 H 0.12514 0.64081 0.42676 0.0
H1458 H 0.08834 0.63809 0.44818 0.0
H1459 H 0.10352 0.65671 0.56197 0.0
H1460 H 0.10743 0.69187 0.54891 0.0
H1461 H 0.14683 0.66478 0.45864 0.0
C1462 C 0.13837 0.58732 0.48619 0.0
C1463 C 0.12566 0.57737 0.50876 0.0
C1464 C 0.11383 0.58847 0.53728 0.0
C1465 C 0.11331 0.60948 0.54276 0.0
C1466 C 0.12466 0.61919 0.51952 0.0
C1467 C 0.13725 0.60831 0.49189 0.0
C1468 C 0.14634 0.62262 0.47008 0.0
C1469 C 0.19017 0.61001 0.46161 0.0
C1470 C 0.11992 0.62911 0.44175 0.0
C1471 C 0.13615 0.6435 0.48946 0.0
C1472 C 0.12407 0.64123 0.51802 0.0
C1473 C 0.11303 0.6586 0.53966 0.0
C1474 C 0.11492 0.67862 0.53193 0.0
C1475 C 0.1275 0.68113 0.50274 0.0
C1476 C 0.13775 0.66333 0.48132 0.0
H1477 H 0.65805 0.09047 0.80701 0.0
H1478 H 0.67904 0.07722 0.71089 0.0
H1479 H 0.64405 0.1194 0.7008 0.0
H1480 H 0.56171 0.14006 0.80166 0.0
H1481 H 0.56924 0.15542 0.83224 0.0
H1482 H 0.59557 0.12428 0.83187 0.0
H1483 H 0.66175 0.12438 0.83562 0.0
H1484 H 0.6356 0.15553 0.83621 0.0
H1485 H 0.67299 0.14042 0.80815 0.0
H1486 H 0.60305 0.16351 0.70116 0.0
H1487 H 0.56634 0.20543 0.71226 0.0
H1488 H 0.57589 0.19018 0.8084 0.0
C1489 C 0.65534 0.09647 0.78384 0.0
C1490 C 0.67103 0.0805 0.75969 0.0
C1491 C 0.6672 0.08907 0.72974 0.0
C1492 C 0.64724 0.11303 0.7238 0.0
C1493 C 0.63167 0.12832 0.74808 0.0
C1494 C 0.63604 0.12036 0.77756 0.0
C1495 C 0.61759 0.14041 0.79968 0.0
C1496 C 0.58404 0.14001 0.81741 0.0
C1497 C 0.64885 0.14017 0.82118 0.0
C1498 C 0.60189 0.16091 0.77809 0.0
C1499 C 0.6099 0.15358 0.74838 0.0
C1500 C 0.59709 0.16937 0.72438 0.0
C1501 C 0.57612 0.19319 0.73089 0.0
C1502 C 0.56857 0.20113 0.76119 0.0
C1503 C 0.58158 0.18467 0.78502 0.0
H1504 H 0.78933 0.62258 0.13583 0.0
H1505 H 0.73053 0.59937 0.07273 0.0
H1506 H 0.72208 0.6299 0.03678 0.0
H1507 H 0.7276 0.68449 0.11938 0.0
H1508 H 0.76765 0.69059 0.12289 0.0
H1509 H 0.7684 0.6672 0.14424 0.0
H1510 H 0.83625 0.63893 0.12124 0.0
H1511 H 0.83543 0.66218 0.0995 0.0
H1512 H 0.84163 0.63653 0.08067 0.0
H1513 H 0.7201 0.66217 0.00744 0.0
H1514 H 0.7219 0.69609 0.98683 0.0
H1515 H 0.78237 0.6994 0.06771 0.0
C1516 C 0.77429 0.62414 0.11459 0.0
C1517 C 0.76097 0.60838 0.10697 0.0
C1518 C 0.74158 0.61094 0.07887 0.0
C1519 C 0.7365 0.62829 0.05832 0.0
C1520 C 0.7508 0.64312 0.06612 0.0
C1521 C 0.769 0.64146 0.09361 0.0
C1522 C 0.78152 0.65982 0.09603 0.0
C1523 C 0.76001 0.67651 0.12219 0.0
C1524 C 0.82638 0.64869 0.09957 0.0
C1525 C 0.76785 0.67183 0.06549 0.0
C1526 C 0.75011 0.66185 0.04876 0.0
C1527 C 0.73406 0.67008 0.02025 0.0
C1528 C 0.73537 0.68933 0.00869 0.0
C1529 C 0.75277 0.70022 0.02545 0.0
C1530 C 0.76977 0.6911 0.05409 0.0
H1531 H 0.94469 0.49225 0.42753 0.0
H1532 H 0.91681 0.56397 0.42696 0.0
H1533 H 0.86832 0.57226 0.38562 0.0
H1534 H 0.93742 0.48466 0.34968 0.0
H1535 H 0.91342 0.46748 0.35342 0.0
H1536 H 0.94508 0.46737 0.38322 0.0
H1537 H 0.88888 0.47974 0.42199 0.0
H1538 H 0.85691 0.47966 0.39253 0.0
H1539 H 0.84228 0.50527 0.4149 0.0
H1540 H 0.82874 0.57122 0.34007 0.0
H1541 H 0.7922 0.56295 0.30048 0.0
H1542 H 0.84006 0.49304 0.33501 0.0
C1543 C 0.92797 0.50974 0.41886 0.0
C1544 C 0.9345 0.52751 0.43009 0.0
C1545 C 0.91199 0.55022 0.4186 0.0
C1546 C 0.88463 0.55501 0.39505 0.0
C1547 C 0.8794 0.53699 0.38394 0.0
C1548 C 0.89963 0.51496 0.39613 0.0
C1549 C 0.88756 0.49886 0.38104 0.0
C1550 C 0.92299 0.47839 0.36594 0.0
C1551 C 0.86771 0.49039 0.40397 0.0
C1552 C 0.85835 0.51503 0.35766 0.0
C1553 C 0.85442 0.53688 0.35944 0.0
C1554 C 0.83105 0.55431 0.33887 0.0
C1555 C 0.81065 0.54943 0.3163 0.0
C1556 C 0.8131 0.52745 0.31484 0.0
C1557 C 0.83729 0.5101 0.33585 0.0
H1558 H 0.13193 0.54119 0.67642 0.0
H1559 H 0.18344 0.46953 0.70451 0.0
H1560 H 0.14438 0.46304 0.66521 0.0
H1561 H 0.03388 0.54947 0.66437 0.0
H1562 H 0.02366 0.56863 0.63248 0.0
H1563 H 0.05713 0.56713 0.66169 0.0
H1564 H 0.11027 0.55791 0.62107 0.0
H1565 H 0.07773 0.55851 0.5916 0.0
H1566 H 0.12513 0.53315 0.59696 0.0
H1567 H 0.10235 0.46402 0.6202 0.0
H1568 H 0.05236 0.47387 0.57965 0.0
H1569 H 0.02239 0.54584 0.58528 0.0
C1570 C 0.1349 0.52415 0.67425 0.0
C1571 C 0.16092 0.50576 0.6933 0.0
C1572 C 0.16363 0.48381 0.69016 0.0
C1573 C 0.14175 0.47996 0.66777 0.0
C1574 C 0.11656 0.4984 0.64915 0.0
C1575 C 0.11231 0.52022 0.65268 0.0
C1576 C 0.08143 0.53742 0.63104 0.0
C1577 C 0.04698 0.5568 0.64844 0.0
C1578 C 0.09972 0.54735 0.60885 0.0
C1579 C 0.06892 0.52191 0.61484 0.0
C1580 C 0.09025 0.49934 0.62504 0.0
C1581 C 0.08514 0.4817 0.61238 0.0
C1582 C 0.05688 0.48739 0.58929 0.0
C1583 C 0.03337 0.51058 0.57973 0.0
C1584 C 0.03972 0.52799 0.59254 0.0
H1585 H 0.5826 0.77832 0.19561 0.0
H1586 H 0.5108 0.75894 0.14087 0.0
H1587 H 0.54547 0.76044 0.095 0.0
H1588 H 0.58896 0.8176 0.14151 0.0
H1589 H 0.63955 0.80863 0.15045 0.0
H1590 H 0.60792 0.8071 0.17895 0.0
H1591 H 0.65703 0.76351 0.18702 0.0
H1592 H 0.68887 0.76496 0.1587 0.0
H1593 H 0.67184 0.74426 0.15502 0.0
H1594 H 0.59 0.76215 0.05542 0.0
H1595 H 0.64249 0.76322 0.02538 0.0
H1596 H 0.68468 0.78193 0.10496 0.0
C1597 C 0.5739 0.7746 0.17395 0.0
C1598 C 0.54382 0.76861 0.17185 0.0
C1599 C 0.53374 0.76356 0.14309 0.0
C1600 C 0.55318 0.76444 0.11687 0.0
C1601 C 0.58275 0.77032 0.11973 0.0
C1602 C 0.59323 0.77522 0.14754 0.0
C1603 C 0.62727 0.78003 0.14451 0.0
C1604 C 0.61519 0.80482 0.15444 0.0
C1605 C 0.66338 0.76212 0.16237 0.0
C1606 C 0.63425 0.7771 0.11067 0.0
C1607 C 0.6081 0.77162 0.09679 0.0
C1608 C 0.60988 0.76709 0.06588 0.0
C1609 C 0.63915 0.76821 0.04874 0.0
C1610 C 0.66597 0.77391 0.06235 0.0
C1611 C 0.66365 0.77822 0.09379 0.0
H1612 H 0.64013 0.53947 0.17461 0.0
H1613 H 0.68619 0.46928 0.20747 0.0
H1614 H 0.6462 0.46264 0.16915 0.0
H1615 H 0.5421 0.5502 0.1638 0.0
H1616 H 0.53235 0.5673 0.12998 0.0
H1617 H 0.56668 0.56686 0.15769 0.0
H1618 H 0.6207 0.55416 0.11808 0.0
H1619 H 0.58922 0.55342 0.08874 0.0
H1620 H 0.63532 0.52809 0.09663 0.0
H1621 H 0.60293 0.46344 0.1244 0.0
H1622 H 0.55303 0.47337 0.0837 0.0
H1623 H 0.52978 0.54423 0.08453 0.0
C1624 C 0.64181 0.52269 0.17371 0.0
C1625 C 0.66652 0.50481 0.19385 0.0
C1626 C 0.66745 0.48322 0.19226 0.0
C1627 C 0.64498 0.47927 0.17044 0.0
C1628 C 0.62101 0.49725 0.15075 0.0
C1629 C 0.61871 0.51868 0.15271 0.0
C1630 C 0.58922 0.5355 0.13011 0.0
C1631 C 0.55563 0.5562 0.14637 0.0
C1632 C 0.60988 0.54327 0.10707 0.0
C1633 C 0.57482 0.52041 0.11525 0.0
C1634 C 0.59429 0.49818 0.12685 0.0
C1635 C 0.58722 0.48089 0.11551 0.0
C1636 C 0.55902 0.48662 0.09229 0.0
C1637 C 0.53743 0.50956 0.08124 0.0
C1638 C 0.54564 0.52659 0.09284 0.0
H1639 H 0.37761 0.43539 0.02204 0.0
H1640 H 0.32517 0.46402 0.10918 0.0
H1641 H 0.32033 0.42902 0.12017 0.0
H1642 H 0.31654 0.40964 1.00589 0.0
H1643 H 0.35556 0.38472 0.9876 0.0
H1644 H 0.35533 0.41193 0.98684 0.0
H1645 H 0.42534 0.39224 0.01044 0.0
H1646 H 0.42566 0.365 0.01115 0.0
H1647 H 0.43433 0.37645 0.04551 0.0
H1648 H 0.3211 0.39114 0.12174 0.0
H1649 H 0.32534 0.35323 0.11302 0.0
H1650 H 0.3755 0.34982 0.02431 0.0
C1651 C 0.36463 0.43447 0.04328 0.0
C1652 C 0.35186 0.45244 0.0648 0.0
C1653 C 0.33566 0.45033 0.09254 0.0
C1654 C 0.33263 0.43058 0.09894 0.0
C1655 C 0.34578 0.41314 0.07733 0.0
C1656 C 0.36121 0.41494 0.04998 0.0
C1657 C 0.37274 0.39384 0.03051 0.0
C1658 C 0.34859 0.40044 1.00097 0.0
C1659 C 0.41715 0.38113 0.02404 0.0
C1660 C 0.36151 0.37985 0.05127 0.0
C1661 C 0.34604 0.3913 0.07816 0.0
C1662 C 0.33308 0.38201 0.10076 0.0
C1663 C 0.3355 0.36053 0.09558 0.0
C1664 C 0.35076 0.34863 0.06803 0.0
C1665 C 0.36424 0.35837 0.04576 0.0
H1666 H 0.03359 0.19475 0.26408 0.0
H1667 H 0.13621 0.20164 0.24421 0.0
H1668 H 0.17629 0.15928 0.23925 0.0
H1669 H 0.08296 0.14415 0.30955 0.0
H1670 H 0.05508 0.13084 0.29621 0.0
H1671 H 0.0334 0.16186 0.2958 0.0
H1672 H 0.01898 0.16258 0.23846 0.0
H1673 H 0.0406 0.13154 0.23866 0.0
H1674 H 0.05858 0.14533 0.21294 0.0
H1675 H 0.20668 0.11603 0.23938 0.0
H1676 H 0.2252 0.07494 0.24527 0.0
H1677 H 0.10397 0.09473 0.26509 0.0
C1678 C 0.06438 0.18732 0.25829 0.0
C1679 C 0.08174 0.20162 0.25451 0.0
C1680 C 0.12222 0.19114 0.24725 0.0
C1681 C 0.14527 0.16704 0.24432 0.0
C1682 C 0.12759 0.15339 0.24864 0.0
C1683 C 0.08804 0.16309 0.25539 0.0
C1684 C 0.07697 0.14424 0.26017 0.0
C1685 C 0.06117 0.14534 0.29235 0.0
C1686 C 0.04701 0.14603 0.23613 0.0
C1687 C 0.11662 0.12249 0.25576 0.0
C1688 C 0.14527 0.12827 0.24881 0.0
C1689 C 0.18441 0.11134 0.24462 0.0
C1690 C 0.19472 0.08796 0.24799 0.0
C1691 C 0.1662 0.08146 0.2555 0.0
C1692 C 0.12648 0.09907 0.25909 0.0
H1693 H 0.19368 0.3329 0.93794 0.0
H1694 H 0.24342 0.34017 0.02245 0.0
H1695 H 0.24068 0.37586 1.00328 0.0
H1696 H 0.24723 0.35112 0.89024 0.0
H1697 H 0.20762 0.36604 0.86358 0.0
H1698 H 0.21106 0.34198 0.88503 0.0
H1699 H 0.1398 0.36839 0.90445 0.0
H1700 H 0.13705 0.39239 0.88326 0.0
H1701 H 0.1281 0.395 0.92346 0.0
H1702 H 0.23617 0.4092 0.9746 0.0
H1703 H 0.22806 0.43952 0.93838 0.0
H1704 H 0.18233 0.41103 0.87128 0.0
C1705 C 0.20286 0.34244 0.95264 0.0
C1706 C 0.21811 0.33405 0.98189 0.0
C1707 C 0.23125 0.34646 1.00012 0.0
C1708 C 0.22991 0.36671 0.9894 0.0
C1709 C 0.21564 0.37425 0.96025 0.0
C1710 C 0.20221 0.36262 0.94208 0.0
C1711 C 0.19017 0.37397 0.91106 0.0
C1712 C 0.21553 0.35727 0.88601 0.0
C1713 C 0.14616 0.38297 0.90522 0.0
C1714 C 0.199 0.39373 0.91472 0.0
C1715 C 0.2136 0.3935 0.94334 0.0
C1716 C 0.22439 0.40972 0.95222 0.0
C1717 C 0.21958 0.42691 0.93149 0.0
C1718 C 0.20418 0.42781 0.90211 0.0
C1719 C 0.19422 0.41077 0.89355 0.0
H1720 H 0.27962 0.28937 0.91798 0.0
H1721 H 0.3516 0.22164 0.95807 0.0
H1722 H 0.40701 0.21554 0.92474 0.0
H1723 H 0.31111 0.27656 0.84334 0.0
H1724 H 0.31201 0.30302 0.83584 0.0
H1725 H 0.27917 0.3025 0.86396 0.0
H1726 H 0.30928 0.31744 0.90501 0.0
H1727 H 0.34064 0.31894 0.87619 0.0
H1728 H 0.36175 0.30266 0.91046 0.0
H1729 H 0.45179 0.21554 0.88315 0.0
H1730 H 0.48478 0.22299 0.84003 0.0
H1731 H 0.38512 0.29182 0.82971 0.0
C1732 C 0.30721 0.27333 0.91986 0.0
C1733 C 0.31145 0.25581 0.94024 0.0
C1734 C 0.34796 0.2352 0.94251 0.0
C1735 C 0.37946 0.23162 0.92366 0.0
C1736 C 0.37412 0.24909 0.90332 0.0
C1737 C 0.33914 0.26974 0.9018 0.0
C1738 C 0.34095 0.28586 0.87825 0.0
C1739 C 0.30891 0.29235 0.85391 0.0
C1740 C 0.33798 0.30752 0.89336 0.0
C1741 C 0.38171 0.27062 0.86557 0.0
C1742 C 0.40048 0.24951 0.88046 0.0
C1743 C 0.43765 0.23213 0.87173 0.0
C1744 C 0.45611 0.23646 0.84726 0.0
C1745 C 0.4375 0.25799 0.83205 0.0
C1746 C 0.40001 0.27532 0.84139 0.0
H1747 H 0.44496 0.4907 0.92502 0.0
H1748 H 0.40198 0.56414 0.93526 0.0
H1749 H 0.35335 0.57225 0.8941 0.0
H1750 H 0.43534 0.48891 0.84551 0.0
H1751 H 0.41787 0.4683 0.84615 0.0
H1752 H 0.449 0.46843 0.87623 0.0
H1753 H 0.39682 0.47311 0.91576 0.0
H1754 H 0.36554 0.47286 0.88585 0.0
H1755 H 0.3472 0.49669 0.91201 0.0
H1756 H 0.31438 0.57169 0.84776 0.0
H1757 H 0.27963 0.56336 0.80676 0.0
H1758 H 0.34191 0.49071 0.83109 0.0
C1759 C 0.42497 0.50849 0.91873 0.0
C1760 C 0.42727 0.52685 0.93307 0.0
C1761 C 0.40053 0.54989 0.92457 0.0
C1762 C 0.37303 0.55461 0.9011 0.0
C1763 C 0.37194 0.53609 0.88697 0.0
C1764 C 0.39648 0.51352 0.89609 0.0
C1765 C 0.38822 0.49681 0.87821 0.0
C1766 C 0.42478 0.4796 0.86047 0.0
C1767 C 0.37356 0.48412 0.89921 0.0
C1768 C 0.35582 0.51342 0.85705 0.0
C1769 C 0.34736 0.53596 0.8621 0.0
C1770 C 0.3203 0.55415 0.84402 0.0
C1771 C 0.30091 0.54926 0.82064 0.0
C1772 C 0.30789 0.52646 0.8159 0.0
C1773 C 0.33571 0.50835 0.83443 0.0
H1774 H 0.60511 0.67809 0.9426 0.0
H1775 H 0.63681 0.68763 0.0335 0.0
H1776 H 0.64053 0.65074 0.04941 0.0
H1777 H 0.54504 0.6526 0.96459 0.0
H1778 H 0.56081 0.6331 0.93287 0.0
H1779 H 0.55913 0.66064 0.92968 0.0
H1780 H 0.63261 0.63968 0.91394 0.0
H1781 H 0.63461 0.61208 0.91754 0.0
H1782 H 0.6687 0.61774 0.93848 0.0
H1783 H 0.64286 0.61179 0.05441 0.0
H1784 H 0.64069 0.57528 0.04861 0.0
H1785 H 0.60757 0.59218 0.95425 0.0
C1786 C 0.61265 0.67246 0.96589 0.0
C1787 C 0.62058 0.68563 0.98687 0.0
C1788 C 0.63009 0.67786 0.01722 0.0
C1789 C 0.63253 0.6569 0.02637 0.0
C1790 C 0.62514 0.6441 1.0049 0.0
C1791 C 0.61505 0.65174 0.97536 0.0
C1792 C 0.60868 0.63489 0.95653 0.0
C1793 C 0.56587 0.64597 0.94526 0.0
C1794 C 0.6379 0.62555 0.93007 0.0
C1795 C 0.61735 0.61633 0.97989 0.0
C1796 C 0.62668 0.6219 0.0077 0.0
C1797 C 0.63551 0.6073 0.03273 0.0
C1798 C 0.63425 0.58663 0.02923 0.0
C1799 C 0.62441 0.58079 1.00088 0.0
C1800 C 0.61607 0.59587 0.976 0.0
H1801 H 0.91024 0.84085 0.70067 0.0
H1802 H 0.92977 0.82567 0.79668 0.0
H1803 H 0.89264 0.86761 0.80787 0.0
H1804 H 0.92148 0.89232 0.70306 0.0
H1805 H 0.88455 0.90729 0.67438 0.0
H1806 H 0.91262 0.87618 0.67427 0.0
H1807 H 0.84799 0.87416 0.67531 0.0
H1808 H 0.81972 0.90527 0.67571 0.0
H1809 H 0.81287 0.88866 0.70505 0.0
H1810 H 0.84863 0.91181 0.80843 0.0
H1811 H 0.80972 0.95392 0.79808 0.0
H1812 H 0.82292 0.94033 0.70166 0.0
C1813 C 0.90688 0.84637 0.72405 0.0
C1814 C 0.92268 0.82992 0.74783 0.0
C1815 C 0.91788 0.8379 0.77809 0.0
C1816 C 0.89667 0.86172 0.78466 0.0
C1817 C 0.88079 0.87749 0.76071 0.0
C1818 C 0.88632 0.87011 0.73096 0.0
C1819 C 0.86725 0.89056 0.7093 0.0
C1820 C 0.89833 0.89165 0.68906 0.0
C1821 C 0.83505 0.88959 0.69022 0.0
C1822 C 0.84968 0.9106 0.73141 0.0
C1823 C 0.8574 0.90273 0.76099 0.0
C1824 C 0.8429 0.91809 0.78531 0.0
C1825 C 0.82065 0.94201 0.77924 0.0
C1826 C 0.81351 0.95047 0.74909 0.0
C1827 C 0.82814 0.93443 0.72497 0.0
H1828 H 0.50241 0.15199 0.61437 0.0
H1829 H 0.37703 0.18761 0.63225 0.0
H1830 H 0.36936 0.1598 0.60009 0.0
H1831 H 0.49595 0.13602 0.53477 0.0
H1832 H 0.53928 0.10802 0.53807 0.0
H1833 H 0.535 0.13188 0.56032 0.0
H1834 H 0.54692 0.10768 0.60897 0.0
H1835 H 0.55057 0.08377 0.58726 0.0
H1836 H 0.5152 0.09581 0.61747 0.0
H1837 H 0.37527 0.12685 0.56987 0.0
H1838 H 0.39446 0.09075 0.54196 0.0
H1839 H 0.516 0.07587 0.54242 0.0
C1840 C 0.4733 0.15416 0.61093 0.0
C1841 C 0.44029 0.17195 0.62591 0.0
C1842 C 0.40274 0.17401 0.62126 0.0
C1843 C 0.39804 0.15836 0.6029 0.0
C1844 C 0.43113 0.14072 0.58906 0.0
C1845 C 0.46805 0.13854 0.59258 0.0
C1846 C 0.4989 0.11711 0.57638 0.0
C1847 C 0.51843 0.12366 0.55087 0.0
C1848 C 0.52973 0.10008 0.59886 0.0
C1849 C 0.47352 0.10753 0.56372 0.0
C1850 C 0.43452 0.12154 0.57124 0.0
C1851 C 0.40565 0.11586 0.56349 0.0
C1852 C 0.41687 0.09526 0.5477 0.0
C1853 C 0.45664 0.08052 0.53974 0.0
C1854 C 0.48524 0.08692 0.54771 0.0
H1855 H 0.56192 0.36929 0.88117 0.0
H1856 H 0.46908 0.35888 0.91894 0.0
H1857 H 0.45618 0.38872 0.95739 0.0
H1858 H 0.59751 0.38021 0.95184 0.0
H1859 H 0.60625 0.40225 0.93566 0.0
H1860 H 0.60981 0.37906 0.91232 0.0
H1861 H 0.55877 0.40888 0.87495 0.0
H1862 H 0.55498 0.43219 0.89807 0.0
H1863 H 0.5115 0.43041 0.8889 0.0
H1864 H 0.45054 0.42168 0.98982 0.0
H1865 H 0.45219 0.45507 0.01287 0.0
H1866 H 0.54875 0.44391 0.95391 0.0
C1867 C 0.53883 0.37323 0.89748 0.0
C1868 C 0.51661 0.36157 0.89693 0.0
C1869 C 0.48698 0.36722 0.91904 0.0
C1870 C 0.47931 0.38425 0.94095 0.0
C1871 C 0.50161 0.39546 0.94065 0.0
C1872 C 0.53079 0.39016 0.91947 0.0
C1873 C 0.54949 0.40538 0.9232 0.0
C1874 C 0.59337 0.39085 0.93124 0.0
C1875 C 0.5433 0.42009 0.89459 0.0
C1876 C 0.52609 0.42024 0.94964 0.0
C1877 C 0.49865 0.41422 0.95944 0.0
C1878 C 0.47225 0.42632 0.98254 0.0
C1879 C 0.47348 0.44526 0.99555 0.0
C1880 C 0.50102 0.45195 0.98557 0.0
C1881 C 0.52801 0.43894 0.96261 0.0
H1882 H 0.49066 0.87474 0.3914 0.0
H1883 H 0.61316 0.84358 0.36487 0.0
H1884 H 0.62095 0.87183 0.39601 0.0
H1885 H 0.47082 0.93145 0.38837 0.0
H1886 H 0.4399 0.94232 0.42124 0.0
H1887 H 0.44255 0.91814 0.40075 0.0
H1888 H 0.4637 0.89251 0.44807 0.0
H1889 H 0.46103 0.91587 0.47069 0.0
H1890 H 0.50579 0.88855 0.46971 0.0
H1891 H 0.61469 0.90492 0.42659 0.0
H1892 H 0.59475 0.94083 0.4551 0.0
H1893 H 0.47632 0.95098 0.46272 0.0
C1894 C 0.51929 0.87359 0.39269 0.0
C1895 C 0.55126 0.857 0.37551 0.0
C1896 C 0.58811 0.85631 0.37745 0.0
C1897 C 0.59293 0.87218 0.39527 0.0
C1898 C 0.56072 0.88862 0.41133 0.0
C1899 C 0.52467 0.88939 0.41046 0.0
C1900 C 0.49443 0.90966 0.42874 0.0
C1901 C 0.45985 0.92638 0.40859 0.0
C1902 C 0.48036 0.90114 0.45589 0.0
C1903 C 0.51882 0.9205 0.43915 0.0
C1904 C 0.5571 0.90788 0.42913 0.0
C1905 C 0.58489 0.91483 0.43485 0.0
C1906 C 0.57321 0.93532 0.45104 0.0
C1907 C 0.53401 0.94874 0.46133 0.0
C1908 C 0.50663 0.94101 0.45551 0.0
H1909 H 0.51164 0.57976 0.03701 0.0
H1910 H 0.38931 0.60423 0.01394 0.0
H1911 H 0.37144 0.64237 0.03528 0.0
H1912 H 0.49536 0.6059 0.10686 0.0
H1913 H 0.53419 0.61317 0.10444 0.0
H1914 H 0.53725 0.58938 0.08296 0.0
H1915 H 0.54538 0.60827 0.03355 0.0
H1916 H 0.54192 0.63196 0.05573 0.0
H1917 H 0.50886 0.63747 0.02432 0.0
H1918 H 0.36502 0.67567 0.0653 0.0
H1919 H 0.37063 0.70203 0.10149 0.0
H1920 H 0.49716 0.65702 0.10513 0.0
C1921 C 0.48135 0.5934 0.03548 0.0
C1922 C 0.45194 0.589 0.02355 0.0
C1923 C 0.41241 0.60714 0.02285 0.0
C1924 C 0.40195 0.62895 0.03482 0.0
C1925 C 0.43135 0.63254 0.04727 0.0
C1926 C 0.47034 0.6154 0.04741 0.0
C1927 C 0.49548 0.62324 0.06466 0.0
C1928 C 0.51684 0.60696 0.09136 0.0
C1929 C 0.52464 0.62537 0.04331 0.0
C1930 C 0.46424 0.64681 0.07565 0.0
C1931 C 0.42758 0.65201 0.06476 0.0
C1932 C 0.3937 0.67202 0.07342 0.0
C1933 C 0.39724 0.68697 0.094 0.0
C1934 C 0.43438 0.68184 0.10607 0.0
C1935 C 0.46834 0.66155 0.09632 0.0
loop_
_geom_bond_atom_site_label_1
_geom_bond_atom_site_label_2
_geom_bond_distance
_geom_bond_site_symmetry_2
_ccdc_geom_bond_type
Tb0 C2 2.809 . S
Tb0 O20 2.484 . S
Tb0 O21 2.440 . S
Tb0 O22 2.658 1_655 S
Tb0 O23 2.409 1_655 S
Tb0 O24 2.378 1_655 S
Tb0 O28 2.325 1_564 S
Tb0 O31 2.341 1_565 S
Tb1 C11 2.809 . S
Tb1 O22 2.325 1_546 S
Tb1 O25 2.341 1_545 S
Tb1 O26 2.484 . S
Tb1 O27 2.440 . S
Tb1 O28 2.658 1_455 S
Tb1 O29 2.409 1_455 S
Tb1 O30 2.378 1_455 S
C2 Tb0 2.809 . S
C2 C3 1.514 . S
C2 O20 1.248 . S
C2 O21 1.266 . S
C3 C2 1.514 . S
C3 C4 1.359 . S
C3 C8 1.348 . S
C4 C3 1.359 . S
C4 C5 1.380 . S
C4 H32 0.929 1_554 S
C5 C4 1.380 . S
C5 C6 1.347 . S
C5 H33 0.931 1_554 S
C6 C5 1.347 . S
C6 C7 1.369 . S
C7 C6 1.369 . S
C7 C8 1.408 . S
C7 H34 0.930 . S
C8 C3 1.348 . S
C8 C7 1.408 . S
C8 H35 0.930 . S
C9 O22 1.281 . S
C9 O23 1.254 . S
C10 O24 1.236 1_556 S
C10 O25 1.266 . S
C11 Tb1 2.809 . S
C11 C12 1.514 . S
C11 O26 1.248 . S
C11 O27 1.266 . S
C12 C11 1.514 . S
C12 C13 1.359 . S
C12 C17 1.348 . S
C13 C12 1.359 . S
C13 C14 1.380 . S
C13 H36 0.929 1_556 S
C14 C13 1.380 . S
C14 C15 1.347 . S
C14 H37 0.931 1_556 S
C15 C14 1.347 . S
C15 C16 1.369 . S
C16 C15 1.369 . S
C16 C17 1.408 . S
C16 H38 0.930 . S
C17 C12 1.348 . S
C17 C16 1.408 . S
C17 H39 0.930 . S
C18 O28 1.281 . S
C18 O29 1.254 . S
C19 O30 1.236 1_554 S
C19 O31 1.266 . S
O20 Tb0 2.484 . S
O20 C2 1.248 . S
O21 Tb0 2.440 . S
O21 C2 1.266 . S
O22 Tb0 2.658 1_455 S
O22 Tb1 2.325 1_564 S
O22 C9 1.281 . S
O23 Tb0 2.409 1_455 S
O23 C9 1.254 . S
O24 Tb0 2.378 1_455 S
O24 C10 1.236 1_554 S
O25 Tb1 2.341 1_565 S
O25 C10 1.266 . S
O26 Tb1 2.484 . S
O26 C11 1.248 . S
O27 Tb1 2.440 . S
O27 C11 1.266 . S
O28 Tb0 2.325 1_546 S
O28 Tb1 2.658 1_655 S
O28 C18 1.281 . S
O29 Tb1 2.409 1_655 S
O29 C18 1.254 . S
O30 Tb1 2.378 1_655 S
O30 C19 1.236 1_556 S
O31 Tb0 2.341 1_545 S
O31 C19 1.266 . S
H32 C4 0.929 1_556 S
H33 C5 0.931 1_556 S
H34 C7 0.930 . S
H35 C8 0.930 . S
H36 C13 0.929 1_554 S
H37 C14 0.931 1_554 S
H38 C16 0.930 . S
H39 C17 0.930 . S
Tb40 C42 2.809 . S
Tb40 O60 2.487 . S
Tb40 O61 2.440 . S
Tb40 O62 2.658 . S
Tb40 O63 2.409 . S
Tb40 O64 2.378 1_455 S
Tb40 O68 2.325 1_455 S
Tb40 O71 2.341 . S
Tb41 C51 2.809 . S
Tb41 O62 2.325 1_655 S
Tb41 O65 2.341 . S
Tb41 O66 2.483 1_655 S
Tb41 O67 2.440 . S
Tb41 O68 2.658 . S
Tb41 O69 2.409 . S
Tb41 O70 2.378 1_655 S
C42 Tb40 2.809 . S
C42 C43 1.514 . S
C42 O60 1.260 . S
C42 O61 1.266 . S
C43 C42 1.514 . S
C43 C44 1.359 1_455 S
C43 C48 1.348 . S
C44 C43 1.359 1_655 S
C44 C45 1.380 . S
C44 H72 0.929 . S
C45 C44 1.380 . S
C45 C46 1.347 1_655 S
C45 H73 0.931 . S
C46 C45 1.347 1_455 S
C46 C47 1.369 . S
C47 C46 1.369 . S
C47 C48 1.408 . S
C47 H74 0.930 . S
C48 C43 1.348 . S
C48 C47 1.408 . S
C48 H75 0.930 . S
C49 O62 1.281 . S
C49 O63 1.254 . S
C50 O64 1.236 . S
C50 O65 1.266 . S
C51 Tb41 2.809 . S
C51 C52 1.514 . S
C51 O66 1.240 1_655 S
C51 O67 1.266 . S
C52 C51 1.514 . S
C52 C53 1.359 1_655 S
C52 C57 1.348 . S
C53 C52 1.359 1_455 S
C53 C54 1.380 . S
C53 H76 0.929 . S
C54 C53 1.380 . S
C54 C55 1.347 1_455 S
C54 H77 0.931 . S
C55 C54 1.347 1_655 S
C55 C56 1.369 . S
C56 C55 1.369 . S
C56 C57 1.408 . S
C56 H78 0.930 . S
C57 C52 1.348 . S
C57 C56 1.408 . S
C57 H79 0.930 . S
C58 O68 1.281 . S
C58 O69 1.254 . S
C59 O70 1.236 . S
C59 O71 1.266 . S
O60 Tb40 2.487 . S
O60 C42 1.260 . S
O61 Tb40 2.440 . S
O61 C42 1.266 . S
O62 Tb40 2.658 . S
O62 Tb41 2.325 1_455 S
O62 C49 1.281 . S
O63 Tb40 2.409 . S
O63 C49 1.254 . S
O64 Tb40 2.378 1_655 S
O64 C50 1.236 . S
O65 Tb41 2.341 . S
O65 C50 1.266 . S
O66 Tb41 2.483 1_455 S
O66 C51 1.240 1_455 S
O67 Tb41 2.440 . S
O67 C51 1.266 . S
O68 Tb40 2.325 1_655 S
O68 Tb41 2.658 . S
O68 C58 1.281 . S
O69 Tb41 2.409 . S
O69 C58 1.254 . S
O70 Tb41 2.378 1_455 S
O70 C59 1.236 . S
O71 Tb40 2.341 . S
O71 C59 1.266 . S
H72 C44 0.929 . S
H73 C45 0.931 . S
H74 C47 0.930 . S
H75 C48 0.930 . S
H76 C53 0.929 . S
H77 C54 0.931 . S
H78 C56 0.930 . S
H79 C57 0.930 . S
Tb80 C82 2.809 . S
Tb80 O100 2.484 . S
Tb80 O101 2.440 . S
Tb80 O102 2.658 . S
Tb80 O103 2.409 . S
Tb80 O104 2.378 . S
Tb80 O108 2.325 . S
Tb80 O111 2.341 . S
Tb81 C91 2.809 . S
Tb81 O102 2.325 . S
Tb81 O105 2.341 . S
Tb81 O106 2.484 . S
Tb81 O107 2.440 . S
Tb81 O108 2.658 . S
Tb81 O109 2.409 . S
Tb81 O110 2.378 . S
C82 Tb80 2.809 . S
C82 C83 1.514 . S
C82 O100 1.248 . S
C82 O101 1.266 . S
C83 C82 1.514 . S
C83 C84 1.359 . S
C83 C88 1.348 . S
C84 C83 1.359 . S
C84 C85 1.380 . S
C84 H112 0.929 . S
C85 C84 1.380 . S
C85 C86 1.347 . S
C85 H113 0.931 . S
C86 C85 1.347 . S
C86 C87 1.369 . S
C87 C86 1.369 . S
C87 C88 1.408 . S
C87 H114 0.930 . S
C88 C83 1.348 . S
C88 C87 1.408 . S
C88 H115 0.930 . S
C89 O102 1.281 . S
C89 O103 1.254 . S
C90 O104 1.236 . S
C90 O105 1.266 . S
C91 Tb81 2.809 . S
C91 C92 1.514 . S
C91 O106 1.248 . S
C91 O107 1.266 . S
C92 C91 1.514 . S
C92 C93 1.359 . S
C92 C97 1.348 . S
C93 C92 1.359 . S
C93 C94 1.380 . S
C93 H116 0.929 . S
C94 C93 1.380 . S
C94 C95 1.347 . S
C94 H117 0.931 . S
C95 C94 1.347 . S
C95 C96 1.369 . S
C96 C95 1.369 . S
C96 C97 1.408 . S
C96 H118 0.930 . S
C97 C92 1.348 . S
C97 C96 1.408 . S
C97 H119 0.930 . S
C98 O108 1.281 . S
C98 O109 1.254 . S
C99 O110 1.236 . S
C99 O111 1.266 . S
O100 Tb80 2.484 . S
O100 C82 1.248 . S
O101 Tb80 2.440 . S
O101 C82 1.266 . S
O102 Tb80 2.658 . S
O102 Tb81 2.325 . S
O102 C89 1.281 . S
O103 Tb80 2.409 . S
O103 C89 1.254 . S
O104 Tb80 2.378 . S
O104 C90 1.236 . S
O105 Tb81 2.341 . S
O105 C90 1.266 . S
O106 Tb81 2.484 . S
O106 C91 1.248 . S
O107 Tb81 2.440 . S
O107 C91 1.266 . S
O108 Tb80 2.325 . S
O108 Tb81 2.658 . S
O108 C98 1.281 . S
O109 Tb81 2.409 . S
O109 C98 1.254 . S
O110 Tb81 2.378 . S
O110 C99 1.236 . S
O111 Tb80 2.341 . S
O111 C99 1.266 . S
H112 C84 0.929 . S
H113 C85 0.931 . S
H114 C87 0.930 . S
H115 C88 0.930 . S
H116 C93 0.929 . S
H117 C94 0.931 . S
H118 C96 0.930 . S
H119 C97 0.930 . S
Tb120 C122 2.809 . S
Tb120 O140 2.484 . S
Tb120 O141 2.440 . S
Tb120 O142 2.658 1_565 S
Tb120 O143 2.409 1_565 S
Tb120 O144 2.379 1_565 S
Tb120 O148 2.325 . S
Tb120 O151 2.341 . S
Tb121 C131 2.809 . S
Tb121 O142 2.325 . S
Tb121 O145 2.341 . S
Tb121 O146 2.484 . S
Tb121 O147 2.440 . S
Tb121 O148 2.658 1_545 S
Tb121 O149 2.409 1_545 S
Tb121 O150 2.378 . S
C122 Tb120 2.809 . S
C122 C123 1.514 . S
C122 O140 1.248 . S
C122 O141 1.266 . S
C123 C122 1.514 . S
C123 C124 1.359 . S
C123 C128 1.348 . S
C124 C123 1.359 . S
C124 C125 1.380 . S
C124 H152 0.929 . S
C125 C124 1.380 . S
C125 C126 1.347 . S
C125 H153 0.931 . S
C126 C125 1.347 . S
C126 C127 1.369 . S
C127 C126 1.369 . S
C127 C128 1.408 . S
C127 H154 0.930 . S
C128 C123 1.348 . S
C128 C127 1.408 . S
C128 H155 0.930 . S
C129 O142 1.281 . S
C129 O143 1.254 . S
C130 O144 1.261 1_565 S
C130 O145 1.239 1_565 S
C131 Tb121 2.809 . S
C131 C132 1.514 . S
C131 O146 1.248 . S
C131 O147 1.266 . S
C132 C131 1.514 . S
C132 C133 1.359 . S
C132 C137 1.348 . S
C133 C132 1.359 . S
C133 C134 1.380 . S
C133 H156 0.929 . S
C134 C133 1.380 . S
C134 C135 1.347 . S
C134 H157 0.931 . S
C135 C134 1.347 . S
C135 C136 1.369 . S
C136 C135 1.369 . S
C136 C137 1.408 . S
C136 H158 0.930 . S
C137 C132 1.348 . S
C137 C136 1.408 . S
C137 H159 0.930 . S
C138 O148 1.281 . S
C138 O149 1.254 . S
C139 O150 1.236 . S
C139 O151 1.266 1_545 S
O140 Tb120 2.484 . S
O140 C122 1.248 . S
O141 Tb120 2.440 . S
O141 C122 1.266 . S
O142 Tb120 2.658 1_545 S
O142 Tb121 2.325 . S
O142 C129 1.281 . S
O143 Tb120 2.409 1_545 S
O143 C129 1.254 . S
O144 Tb120 2.379 1_545 S
O144 C130 1.261 1_545 S
O145 Tb121 2.341 . S
O145 C130 1.239 1_545 S
O146 Tb121 2.484 . S
O146 C131 1.248 . S
O147 Tb121 2.440 . S
O147 C131 1.266 . S
O148 Tb120 2.325 . S
O148 Tb121 2.658 1_565 S
O148 C138 1.281 . S
O149 Tb121 2.409 1_565 S
O149 C138 1.254 . S
O150 Tb121 2.378 . S
O150 C139 1.236 . S
O151 Tb120 2.341 . S
O151 C139 1.266 1_565 S
H152 C124 0.929 . S
H153 C125 0.931 . S
H154 C127 0.930 . S
H155 C128 0.930 . S
H156 C133 0.929 . S
H157 C134 0.931 . S
H158 C136 0.930 . S
H159 C137 0.930 . S
Tb160 C162 2.809 . S
Tb160 O180 2.484 . S
Tb160 O181 2.440 . S
Tb160 O182 2.658 . S
Tb160 O183 2.409 . S
Tb160 O184 2.378 . S
Tb160 O188 2.325 . S
Tb160 O191 2.341 . S
Tb161 C171 2.809 . S
Tb161 O182 2.325 . S
Tb161 O185 2.341 . S
Tb161 O186 2.484 . S
Tb161 O187 2.440 . S
Tb161 O188 2.658 . S
Tb161 O189 2.409 . S
Tb161 O190 2.378 . S
C162 Tb160 2.809 . S
C162 C163 1.514 . S
C162 O180 1.248 . S
C162 O181 1.266 . S
C163 C162 1.514 . S
C163 C164 1.359 . S
C163 C168 1.348 . S
C164 C163 1.359 . S
C164 C165 1.380 . S
C164 H192 0.929 . S
C165 C164 1.380 . S
C165 C166 1.347 . S
C165 H193 0.931 . S
C166 C165 1.347 . S
C166 C167 1.369 . S
C167 C166 1.369 . S
C167 C168 1.408 . S
C167 H194 0.930 . S
C168 C163 1.348 . S
C168 C167 1.408 . S
C168 H195 0.930 . S
C169 O182 1.281 . S
C169 O183 1.254 . S
C170 O184 1.236 . S
C170 O185 1.266 . S
C171 Tb161 2.809 . S
C171 C172 1.514 . S
C171 O186 1.248 . S
C171 O187 1.266 . S
C172 C171 1.514 . S
C172 C173 1.359 . S
C172 C177 1.348 . S
C173 C172 1.359 . S
C173 C174 1.380 . S
C173 H196 0.929 . S
C174 C173 1.380 . S
C174 C175 1.347 . S
C174 H197 0.931 . S
C175 C174 1.347 . S
C175 C176 1.369 . S
C176 C175 1.369 . S
C176 C177 1.408 . S
C176 H198 0.930 . S
C177 C172 1.348 . S
C177 C176 1.408 . S
C177 H199 0.930 . S
C178 O188 1.281 . S
C178 O189 1.254 . S
C179 O190 1.236 . S
C179 O191 1.266 . S
O180 Tb160 2.484 . S
O180 C162 1.248 . S
O181 Tb160 2.440 . S
O181 C162 1.266 . S
O182 Tb160 2.658 . S
O182 Tb161 2.325 . S
O182 C169 1.281 . S
O183 Tb160 2.409 . S
O183 C169 1.254 . S
O184 Tb160 2.378 . S
O184 C170 1.236 . S
O185 Tb161 2.341 . S
O185 C170 1.266 . S
O186 Tb161 2.484 . S
O186 C171 1.248 . S
O187 Tb161 2.440 . S
O187 C171 1.266 . S
O188 Tb160 2.325 . S
O188 Tb161 2.658 . S
O188 C178 1.281 . S
O189 Tb161 2.409 . S
O189 C178 1.254 . S
O190 Tb161 2.378 . S
O190 C179 1.236 . S
O191 Tb160 2.341 . S
O191 C179 1.266 . S
H192 C164 0.929 . S
H193 C165 0.931 . S
H194 C167 0.930 . S
H195 C168 0.930 . S
H196 C173 0.929 . S
H197 C174 0.931 . S
H198 C176 0.930 . S
H199 C177 0.930 . S
Tb200 C202 2.809 . S
Tb200 O220 2.484 . S
Tb200 O221 2.440 . S
Tb200 O222 2.658 . S
Tb200 O223 2.409 . S
Tb200 O224 2.378 . S
Tb200 O228 2.325 . S
Tb200 O231 2.341 . S
Tb201 C211 2.809 . S
Tb201 O222 2.325 . S
Tb201 O225 2.341 . S
Tb201 O226 2.484 . S
Tb201 O227 2.440 . S
Tb201 O228 2.658 . S
Tb201 O229 2.409 . S
Tb201 O230 2.378 . S
C202 Tb200 2.809 . S
C202 C203 1.514 . S
C202 O220 1.248 . S
C202 O221 1.266 . S
C203 C202 1.514 . S
C203 C204 1.359 . S
C203 C208 1.348 . S
C204 C203 1.359 . S
C204 C205 1.380 . S
C204 H232 0.929 . S
C205 C204 1.380 . S
C205 C206 1.347 . S
C205 H233 0.931 . S
C206 C205 1.347 . S
C206 C207 1.369 . S
C207 C206 1.369 . S
C207 C208 1.408 . S
C207 H234 0.930 . S
C208 C203 1.348 . S
C208 C207 1.408 . S
C208 H235 0.930 . S
C209 O222 1.281 . S
C209 O223 1.254 . S
C210 O224 1.236 . S
C210 O225 1.266 . S
C211 Tb201 2.809 . S
C211 C212 1.514 . S
C211 O226 1.248 . S
C211 O227 1.266 . S
C212 C211 1.514 . S
C212 C213 1.359 . S
C212 C217 1.348 . S
C213 C212 1.359 . S
C213 C214 1.380 . S
C213 H236 0.929 . S
C214 C213 1.380 . S
C214 C215 1.347 . S
C214 H237 0.931 . S
C215 C214 1.347 . S
C215 C216 1.369 . S
C216 C215 1.369 . S
C216 C217 1.408 . S
C216 H238 0.930 . S
C217 C212 1.348 . S
C217 C216 1.408 . S
C217 H239 0.930 . S
C218 O228 1.281 . S
C218 O229 1.254 . S
C219 O230 1.236 . S
C219 O231 1.266 . S
O220 Tb200 2.484 . S
O220 C202 1.248 . S
O221 Tb200 2.440 . S
O221 C202 1.266 . S
O222 Tb200 2.658 . S
O222 Tb201 2.325 . S
O222 C209 1.281 . S
O223 Tb200 2.409 . S
O223 C209 1.254 . S
O224 Tb200 2.378 . S
O224 C210 1.236 . S
O225 Tb201 2.341 . S
O225 C210 1.266 . S
O226 Tb201 2.484 . S
O226 C211 1.248 . S
O227 Tb201 2.440 . S
O227 C211 1.266 . S
O228 Tb200 2.325 . S
O228 Tb201 2.658 . S
O228 C218 1.281 . S
O229 Tb201 2.409 . S
O229 C218 1.254 . S
O230 Tb201 2.378 . S
O230 C219 1.236 . S
O231 Tb200 2.341 . S
O231 C219 1.266 . S
H232 C204 0.929 . S
H233 C205 0.931 . S
H234 C207 0.930 . S
H235 C208 0.930 . S
H236 C213 0.929 . S
H237 C214 0.931 . S
H238 C216 0.930 . S
H239 C217 0.930 . S
Tb240 C242 2.809 . S
Tb240 O260 2.484 . S
Tb240 O261 2.440 . S
Tb240 O262 2.658 . S
Tb240 O263 2.409 . S
Tb240 O264 2.378 . S
Tb240 O268 2.325 . S
Tb240 O271 2.341 . S
Tb241 C251 2.809 . S
Tb241 O262 2.325 . S
Tb241 O265 2.341 . S
Tb241 O266 2.484 . S
Tb241 O267 2.440 . S
Tb241 O268 2.658 . S
Tb241 O269 2.409 . S
Tb241 O270 2.378 . S
C242 Tb240 2.809 . S
C242 C243 1.514 . S
C242 O260 1.248 . S
C242 O261 1.266 . S
C243 C242 1.514 . S
C243 C244 1.359 . S
C243 C248 1.348 . S
C244 C243 1.359 . S
C244 C245 1.380 . S
C244 H272 0.929 . S
C245 C244 1.380 . S
C245 C246 1.347 . S
C245 H273 0.931 . S
C246 C245 1.347 . S
C246 C247 1.369 . S
C247 C246 1.369 . S
C247 C248 1.408 . S
C247 H274 0.930 . S
C248 C243 1.348 . S
C248 C247 1.408 . S
C248 H275 0.930 . S
C249 O262 1.281 . S
C249 O263 1.254 . S
C250 O264 1.236 . S
C250 O265 1.266 . S
C251 Tb241 2.809 . S
C251 C252 1.514 . S
C251 O266 1.248 . S
C251 O267 1.266 . S
C252 C251 1.514 . S
C252 C253 1.359 . S
C252 C257 1.348 . S
C253 C252 1.359 . S
C253 C254 1.380 . S
C253 H276 0.929 . S
C254 C253 1.380 . S
C254 C255 1.347 . S
C254 H277 0.931 . S
C255 C254 1.347 . S
C255 C256 1.369 . S
C256 C255 1.369 . S
C256 C257 1.408 . S
C256 H278 0.930 . S
C257 C252 1.348 . S
C257 C256 1.408 . S
C257 H279 0.930 . S
C258 O268 1.281 . S
C258 O269 1.254 . S
C259 O270 1.236 . S
C259 O271 1.266 . S
O260 Tb240 2.484 . S
O260 C242 1.248 . S
O261 Tb240 2.440 . S
O261 C242 1.266 . S
O262 Tb240 2.658 . S
O262 Tb241 2.325 . S
O262 C249 1.281 . S
O263 Tb240 2.409 . S
O263 C249 1.254 . S
O264 Tb240 2.378 . S
O264 C250 1.236 . S
O265 Tb241 2.341 . S
O265 C250 1.266 . S
O266 Tb241 2.484 . S
O266 C251 1.248 . S
O267 Tb241 2.440 . S
O267 C251 1.266 . S
O268 Tb240 2.325 . S
O268 Tb241 2.658 . S
O268 C258 1.281 . S
O269 Tb241 2.409 . S
O269 C258 1.254 . S
O270 Tb241 2.378 . S
O270 C259 1.236 . S
O271 Tb240 2.341 . S
O271 C259 1.266 . S
H272 C244 0.929 . S
H273 C245 0.931 . S
H274 C247 0.930 . S
H275 C248 0.930 . S
H276 C253 0.929 . S
H277 C254 0.931 . S
H278 C256 0.930 . S
H279 C257 0.930 . S
Tb280 C282 2.809 . S
Tb280 O300 2.484 . S
Tb280 O301 2.440 . S
Tb280 O302 2.658 1_655 S
Tb280 O303 2.409 1_655 S
Tb280 O304 2.378 1_655 S
Tb280 O308 2.325 . S
Tb280 O311 2.341 . S
Tb281 C291 2.809 . S
Tb281 O302 2.325 . S
Tb281 O305 2.341 . S
Tb281 O306 2.484 . S
Tb281 O307 2.440 . S
Tb281 O308 2.658 1_455 S
Tb281 O309 2.409 1_455 S
Tb281 O310 2.378 1_455 S
C282 Tb280 2.809 . S
C282 C283 1.514 . S
C282 O300 1.248 . S
C282 O301 1.266 . S
C283 C282 1.514 . S
C283 C284 1.359 . S
C283 C288 1.348 . S
C284 C283 1.359 . S
C284 C285 1.380 . S
C284 H312 0.929 . S
C285 C284 1.380 . S
C285 C286 1.347 . S
C285 H313 0.931 . S
C286 C285 1.347 . S
C286 C287 1.369 . S
C287 C286 1.369 . S
C287 C288 1.408 . S
C287 H314 0.930 . S
C288 C283 1.348 . S
C288 C287 1.408 . S
C288 H315 0.930 . S
C289 O302 1.281 . S
C289 O303 1.254 . S
C290 O304 1.236 . S
C290 O305 1.266 . S
C291 Tb281 2.809 . S
C291 C292 1.514 . S
C291 O306 1.248 . S
C291 O307 1.266 . S
C292 C291 1.514 . S
C292 C293 1.359 . S
C292 C297 1.348 . S
C293 C292 1.359 . S
C293 C294 1.380 . S
C293 H316 0.929 . S
C294 C293 1.380 . S
C294 C295 1.347 . S
C294 H317 0.931 . S
C295 C294 1.347 . S
C295 C296 1.369 . S
C296 C295 1.369 . S
C296 C297 1.408 . S
C296 H318 0.930 . S
C297 C292 1.348 . S
C297 C296 1.408 . S
C297 H319 0.930 . S
C298 O308 1.281 . S
C298 O309 1.254 . S
C299 O310 1.236 . S
C299 O311 1.266 . S
O300 Tb280 2.484 . S
O300 C282 1.248 . S
O301 Tb280 2.440 . S
O301 C282 1.266 . S
O302 Tb280 2.658 1_455 S
O302 Tb281 2.325 . S
O302 C289 1.281 . S
O303 Tb280 2.409 1_455 S
O303 C289 1.254 . S
O304 Tb280 2.378 1_455 S
O304 C290 1.236 . S
O305 Tb281 2.341 . S
O305 C290 1.266 . S
O306 Tb281 2.484 . S
O306 C291 1.248 . S
O307 Tb281 2.440 . S
O307 C291 1.266 . S
O308 Tb280 2.325 . S
O308 Tb281 2.658 1_655 S
O308 C298 1.281 . S
O309 Tb281 2.409 1_655 S
O309 C298 1.254 . S
O310 Tb281 2.378 1_655 S
O310 C299 1.236 . S
O311 Tb280 2.341 . S
O311 C299 1.266 . S
H312 C284 0.929 . S
H313 C285 0.931 . S
H314 C287 0.930 . S
H315 C288 0.930 . S
H316 C293 0.929 . S
H317 C294 0.931 . S
H318 C296 0.930 . S
H319 C297 0.930 . S
Tb320 C322 2.809 . S
Tb320 O340 2.484 . S
Tb320 O341 2.440 . S
Tb320 O342 2.658 . S
Tb320 O343 2.409 . S
Tb320 O344 2.378 . S
Tb320 O348 2.325 1_554 S
Tb320 O351 2.341 . S
Tb321 C331 2.809 . S
Tb321 O342 2.325 1_556 S
Tb321 O345 2.341 . S
Tb321 O346 2.484 . S
Tb321 O347 2.440 . S
Tb321 O348 2.658 . S
Tb321 O349 2.409 . S
Tb321 O350 2.378 . S
C322 Tb320 2.809 . S
C322 C323 1.514 . S
C322 O340 1.248 . S
C322 O341 1.266 . S
C323 C322 1.514 . S
C323 C324 1.359 . S
C323 C328 1.348 . S
C324 C323 1.359 . S
C324 C325 1.380 . S
C324 H352 0.929 1_554 S
C325 C324 1.380 . S
C325 C326 1.347 . S
C325 H353 0.931 1_554 S
C326 C325 1.347 . S
C326 C327 1.369 . S
C327 C326 1.369 . S
C327 C328 1.408 . S
C327 H354 0.930 . S
C328 C323 1.348 . S
C328 C327 1.408 . S
C328 H355 0.930 . S
C329 O342 1.281 . S
C329 O343 1.254 . S
C330 O344 1.236 1_556 S
C330 O345 1.266 . S
C331 Tb321 2.809 . S
C331 C332 1.514 . S
C331 O346 1.248 . S
C331 O347 1.266 . S
C332 C331 1.514 . S
C332 C333 1.359 . S
C332 C337 1.348 . S
C333 C332 1.359 . S
C333 C334 1.380 . S
C333 H356 0.929 1_556 S
C334 C333 1.380 . S
C334 C335 1.347 . S
C334 H357 0.931 1_556 S
C335 C334 1.347 . S
C335 C336 1.369 . S
C336 C335 1.369 . S
C336 C337 1.408 . S
C336 H358 0.930 . S
C337 C332 1.348 . S
C337 C336 1.408 . S
C337 H359 0.930 . S
C338 O348 1.281 . S
C338 O349 1.254 . S
C339 O350 1.236 1_554 S
C339 O351 1.266 . S
O340 Tb320 2.484 . S
O340 C322 1.248 . S
O341 Tb320 2.440 . S
O341 C322 1.266 . S
O342 Tb320 2.658 . S
O342 Tb321 2.325 1_554 S
O342 C329 1.281 . S
O343 Tb320 2.409 . S
O343 C329 1.254 . S
O344 Tb320 2.378 . S
O344 C330 1.236 1_554 S
O345 Tb321 2.341 . S
O345 C330 1.266 . S
O346 Tb321 2.484 . S
O346 C331 1.248 . S
O347 Tb321 2.440 . S
O347 C331 1.266 . S
O348 Tb320 2.325 1_556 S
O348 Tb321 2.658 . S
O348 C338 1.281 . S
O349 Tb321 2.409 . S
O349 C338 1.254 . S
O350 Tb321 2.378 . S
O350 C339 1.236 1_556 S
O351 Tb320 2.341 . S
O351 C339 1.266 . S
H352 C324 0.929 1_556 S
H353 C325 0.931 1_556 S
H354 C327 0.930 . S
H355 C328 0.930 . S
H356 C333 0.929 1_554 S
H357 C334 0.931 1_554 S
H358 C336 0.930 . S
H359 C337 0.930 . S
Tb360 C362 2.809 . S
Tb360 O380 2.484 . S
Tb360 O381 2.440 . S
Tb360 O382 2.658 1_565 S
Tb360 O383 2.409 1_565 S
Tb360 O384 2.379 1_565 S
Tb360 O388 2.325 . S
Tb360 O391 2.341 . S
Tb361 C371 2.809 . S
Tb361 O382 2.325 . S
Tb361 O385 2.341 . S
Tb361 O386 2.484 . S
Tb361 O387 2.440 . S
Tb361 O388 2.658 1_545 S
Tb361 O389 2.409 1_545 S
Tb361 O390 2.378 . S
C362 Tb360 2.809 . S
C362 C363 1.514 . S
C362 O380 1.248 . S
C362 O381 1.266 . S
C363 C362 1.514 . S
C363 C364 1.359 . S
C363 C368 1.348 . S
C364 C363 1.359 . S
C364 C365 1.380 . S
C364 H392 0.929 . S
C365 C364 1.380 . S
C365 C366 1.347 . S
C365 H393 0.931 . S
C366 C365 1.347 . S
C366 C367 1.369 . S
C367 C366 1.369 . S
C367 C368 1.408 . S
C367 H394 0.930 . S
C368 C363 1.348 . S
C368 C367 1.408 . S
C368 H395 0.930 . S
C369 O382 1.281 . S
C369 O383 1.254 . S
C370 O384 1.261 1_565 S
C370 O385 1.239 1_565 S
C371 Tb361 2.809 . S
C371 C372 1.514 . S
C371 O386 1.248 . S
C371 O387 1.266 . S
C372 C371 1.514 . S
C372 C373 1.359 . S
C372 C377 1.348 . S
C373 C372 1.359 . S
C373 C374 1.380 . S
C373 H396 0.929 . S
C374 C373 1.380 . S
C374 C375 1.347 . S
C374 H397 0.931 . S
C375 C374 1.347 . S
C375 C376 1.369 . S
C376 C375 1.369 . S
C376 C377 1.408 . S
C376 H398 0.930 . S
C377 C372 1.348 . S
C377 C376 1.408 . S
C377 H399 0.930 . S
C378 O388 1.281 . S
C378 O389 1.254 . S
C379 O390 1.236 . S
C379 O391 1.266 1_545 S
O380 Tb360 2.484 . S
O380 C362 1.248 . S
O381 Tb360 2.440 . S
O381 C362 1.266 . S
O382 Tb360 2.658 1_545 S
O382 Tb361 2.325 . S
O382 C369 1.281 . S
O383 Tb360 2.409 1_545 S
O383 C369 1.254 . S
O384 Tb360 2.379 1_545 S
O384 C370 1.261 1_545 S
O385 Tb361 2.341 . S
O385 C370 1.239 1_545 S
O386 Tb361 2.484 . S
O386 C371 1.248 . S
O387 Tb361 2.440 . S
O387 C371 1.266 . S
O388 Tb360 2.325 . S
O388 Tb361 2.658 1_565 S
O388 C378 1.281 . S
O389 Tb361 2.409 1_565 S
O389 C378 1.254 . S
O390 Tb361 2.378 . S
O390 C379 1.236 . S
O391 Tb360 2.341 . S
O391 C379 1.266 1_565 S
H392 C364 0.929 . S
H393 C365 0.931 . S
H394 C367 0.930 . S
H395 C368 0.930 . S
H396 C373 0.929 . S
H397 C374 0.931 . S
H398 C376 0.930 . S
H399 C377 0.930 . S
Tb400 C402 2.809 . S
Tb400 O420 2.484 . S
Tb400 O421 2.440 . S
Tb400 O422 2.658 . S
Tb400 O423 2.409 . S
Tb400 O424 2.378 . S
Tb400 O428 2.325 . S
Tb400 O431 2.341 . S
Tb401 C411 2.809 . S
Tb401 O422 2.325 . S
Tb401 O425 2.341 . S
Tb401 O426 2.484 . S
Tb401 O427 2.440 . S
Tb401 O428 2.658 . S
Tb401 O429 2.409 . S
Tb401 O430 2.378 . S
C402 Tb400 2.809 . S
C402 C403 1.514 . S
C402 O420 1.248 . S
C402 O421 1.266 . S
C403 C402 1.514 . S
C403 C404 1.359 . S
C403 C408 1.348 . S
C404 C403 1.359 . S
C404 C405 1.380 . S
C404 H432 0.929 . S
C405 C404 1.380 . S
C405 C406 1.347 . S
C405 H433 0.931 . S
C406 C405 1.347 . S
C406 C407 1.369 . S
C407 C406 1.369 . S
C407 C408 1.408 . S
C407 H434 0.930 . S
C408 C403 1.348 . S
C408 C407 1.408 . S
C408 H435 0.930 . S
C409 O422 1.281 . S
C409 O423 1.254 . S
C410 O424 1.236 . S
C410 O425 1.266 . S
C411 Tb401 2.809 . S
C411 C412 1.514 . S
C411 O426 1.248 . S
C411 O427 1.266 . S
C412 C411 1.514 . S
C412 C413 1.359 . S
C412 C417 1.348 . S
C413 C412 1.359 . S
C413 C414 1.380 . S
C413 H436 0.929 . S
C414 C413 1.380 . S
C414 C415 1.347 . S
C414 H437 0.931 . S
C415 C414 1.347 . S
C415 C416 1.369 . S
C416 C415 1.369 . S
C416 C417 1.408 . S
C416 H438 0.930 . S
C417 C412 1.348 . S
C417 C416 1.408 . S
C417 H439 0.930 . S
C418 O428 1.281 . S
C418 O429 1.254 . S
C419 O430 1.236 . S
C419 O431 1.266 . S
O420 Tb400 2.484 . S
O420 C402 1.248 . S
O421 Tb400 2.440 . S
O421 C402 1.266 . S
O422 Tb400 2.658 . S
O422 Tb401 2.325 . S
O422 C409 1.281 . S
O423 Tb400 2.409 . S
O423 C409 1.254 . S
O424 Tb400 2.378 . S
O424 C410 1.236 . S
O425 Tb401 2.341 . S
O425 C410 1.266 . S
O426 Tb401 2.484 . S
O426 C411 1.248 . S
O427 Tb401 2.440 . S
O427 C411 1.266 . S
O428 Tb400 2.325 . S
O428 Tb401 2.658 . S
O428 C418 1.281 . S
O429 Tb401 2.409 . S
O429 C418 1.254 . S
O430 Tb401 2.378 . S
O430 C419 1.236 . S
O431 Tb400 2.341 . S
O431 C419 1.266 . S
H432 C404 0.929 . S
H433 C405 0.931 . S
H434 C407 0.930 . S
H435 C408 0.930 . S
H436 C413 0.929 . S
H437 C414 0.931 . S
H438 C416 0.930 . S
H439 C417 0.930 . S
Tb440 C442 2.809 . S
Tb440 O460 2.487 . S
Tb440 O461 2.440 . S
Tb440 O462 2.658 . S
Tb440 O463 2.409 . S
Tb440 O464 2.378 1_455 S
Tb440 O468 2.325 1_455 S
Tb440 O471 2.341 . S
Tb441 C451 2.809 . S
Tb441 O462 2.325 1_655 S
Tb441 O465 2.341 . S
Tb441 O466 2.483 1_655 S
Tb441 O467 2.440 . S
Tb441 O468 2.658 . S
Tb441 O469 2.409 . S
Tb441 O470 2.378 1_655 S
C442 Tb440 2.809 . S
C442 C443 1.514 . S
C442 O460 1.261 . S
C442 O461 1.266 . S
C443 C442 1.514 . S
C443 C444 1.359 1_455 S
C443 C448 1.348 . S
C444 C443 1.359 1_655 S
C444 C445 1.380 . S
C444 H472 0.929 . S
C445 C444 1.380 . S
C445 C446 1.347 1_655 S
C445 H473 0.931 . S
C446 C445 1.347 1_455 S
C446 C447 1.369 . S
C447 C446 1.369 . S
C447 C448 1.408 . S
C447 H474 0.930 . S
C448 C443 1.348 . S
C448 C447 1.408 . S
C448 H475 0.930 . S
C449 O462 1.281 . S
C449 O463 1.254 . S
C450 O464 1.236 . S
C450 O465 1.266 . S
C451 Tb441 2.809 . S
C451 C452 1.514 . S
C451 O466 1.240 1_655 S
C451 O467 1.266 . S
C452 C451 1.514 . S
C452 C453 1.359 1_655 S
C452 C457 1.348 . S
C453 C452 1.359 1_455 S
C453 C454 1.380 . S
C453 H476 0.929 . S
C454 C453 1.380 . S
C454 C455 1.347 1_455 S
C454 H477 0.931 . S
C455 C454 1.347 1_655 S
C455 C456 1.369 . S
C456 C455 1.369 . S
C456 C457 1.408 . S
C456 H478 0.930 . S
C457 C452 1.348 . S
C457 C456 1.408 . S
C457 H479 0.930 . S
C458 O468 1.281 . S
C458 O469 1.254 . S
C459 O470 1.236 . S
C459 O471 1.266 . S
O460 Tb440 2.487 . S
O460 C442 1.261 . S
O461 Tb440 2.440 . S
O461 C442 1.266 . S
O462 Tb440 2.658 . S
O462 Tb441 2.325 1_455 S
O462 C449 1.281 . S
O463 Tb440 2.409 . S
O463 C449 1.254 . S
O464 Tb440 2.378 1_655 S
O464 C450 1.236 . S
O465 Tb441 2.341 . S
O465 C450 1.266 . S
O466 Tb441 2.483 1_455 S
O466 C451 1.240 1_455 S
O467 Tb441 2.440 . S
O467 C451 1.266 . S
O468 Tb440 2.325 1_655 S
O468 Tb441 2.658 . S
O468 C458 1.281 . S
O469 Tb441 2.409 . S
O469 C458 1.254 . S
O470 Tb441 2.378 1_455 S
O470 C459 1.236 . S
O471 Tb440 2.341 . S
O471 C459 1.266 . S
H472 C444 0.929 . S
H473 C445 0.931 . S
H474 C447 0.930 . S
H475 C448 0.930 . S
H476 C453 0.929 . S
H477 C454 0.931 . S
H478 C456 0.930 . S
H479 C457 0.930 . S
Tb480 C482 2.809 . S
Tb480 O500 2.484 . S
Tb480 O501 2.440 . S
Tb480 O502 2.658 . S
Tb480 O503 2.409 . S
Tb480 O504 2.378 . S
Tb480 O508 2.325 . S
Tb480 O511 2.341 . S
Tb481 C491 2.809 . S
Tb481 O502 2.325 . S
Tb481 O505 2.341 . S
Tb481 O506 2.484 . S
Tb481 O507 2.440 . S
Tb481 O508 2.658 . S
Tb481 O509 2.409 . S
Tb481 O510 2.378 . S
C482 Tb480 2.809 . S
C482 C483 1.514 . S
C482 O500 1.248 . S
C482 O501 1.266 . S
C483 C482 1.514 . S
C483 C484 1.359 . S
C483 C488 1.348 . S
C484 C483 1.359 . S
C484 C485 1.380 . S
C484 H512 0.929 . S
C485 C484 1.380 . S
C485 C486 1.347 . S
C485 H513 0.931 . S
C486 C485 1.347 . S
C486 C487 1.369 . S
C487 C486 1.369 . S
C487 C488 1.408 . S
C487 H514 0.930 . S
C488 C483 1.348 . S
C488 C487 1.408 . S
C488 H515 0.930 . S
C489 O502 1.281 . S
C489 O503 1.254 . S
C490 O504 1.236 . S
C490 O505 1.266 . S
C491 Tb481 2.809 . S
C491 C492 1.514 . S
C491 O506 1.248 . S
C491 O507 1.266 . S
C492 C491 1.514 . S
C492 C493 1.359 . S
C492 C497 1.348 . S
C493 C492 1.359 . S
C493 C494 1.380 . S
C493 H516 0.929 . S
C494 C493 1.380 . S
C494 C495 1.347 . S
C494 H517 0.931 . S
C495 C494 1.347 . S
C495 C496 1.369 . S
C496 C495 1.369 . S
C496 C497 1.408 . S
C496 H518 0.930 . S
C497 C492 1.348 . S
C497 C496 1.408 . S
C497 H519 0.930 . S
C498 O508 1.281 . S
C498 O509 1.254 . S
C499 O510 1.236 . S
C499 O511 1.266 . S
O500 Tb480 2.484 . S
O500 C482 1.248 . S
O501 Tb480 2.440 . S
O501 C482 1.266 . S
O502 Tb480 2.658 . S
O502 Tb481 2.325 . S
O502 C489 1.281 . S
O503 Tb480 2.409 . S
O503 C489 1.254 . S
O504 Tb480 2.378 . S
O504 C490 1.236 . S
O505 Tb481 2.341 . S
O505 C490 1.266 . S
O506 Tb481 2.484 . S
O506 C491 1.248 . S
O507 Tb481 2.440 . S
O507 C491 1.266 . S
O508 Tb480 2.325 . S
O508 Tb481 2.658 . S
O508 C498 1.281 . S
O509 Tb481 2.409 . S
O509 C498 1.254 . S
O510 Tb481 2.378 . S
O510 C499 1.236 . S
O511 Tb480 2.341 . S
O511 C499 1.266 . S
H512 C484 0.929 . S
H513 C485 0.931 . S
H514 C487 0.930 . S
H515 C488 0.930 . S
H516 C493 0.929 . S
H517 C494 0.931 . S
H518 C496 0.930 . S
H519 C497 0.930 . S
Tb520 C522 2.809 . S
Tb520 O540 2.484 . S
Tb520 O541 2.440 . S
Tb520 O542 2.658 . S
Tb520 O543 2.409 . S
Tb520 O544 2.378 . S
Tb520 O548 2.325 1_554 S
Tb520 O551 2.341 . S
Tb521 C531 2.809 . S
Tb521 O542 2.325 1_556 S
Tb521 O545 2.341 . S
Tb521 O546 2.484 . S
Tb521 O547 2.440 . S
Tb521 O548 2.658 . S
Tb521 O549 2.409 . S
Tb521 O550 2.378 . S
C522 Tb520 2.809 . S
C522 C523 1.514 . S
C522 O540 1.248 . S
C522 O541 1.266 . S
C523 C522 1.514 . S
C523 C524 1.359 . S
C523 C528 1.348 . S
C524 C523 1.359 . S
C524 C525 1.380 . S
C524 H552 0.929 1_554 S
C525 C524 1.380 . S
C525 C526 1.347 . S
C525 H553 0.931 1_554 S
C526 C525 1.347 . S
C526 C527 1.369 . S
C527 C526 1.369 . S
C527 C528 1.408 . S
C527 H554 0.930 . S
C528 C523 1.348 . S
C528 C527 1.408 . S
C528 H555 0.930 . S
C529 O542 1.281 . S
C529 O543 1.254 . S
C530 O544 1.236 1_556 S
C530 O545 1.266 . S
C531 Tb521 2.809 . S
C531 C532 1.514 . S
C531 O546 1.248 . S
C531 O547 1.266 . S
C532 C531 1.514 . S
C532 C533 1.359 . S
C532 C537 1.348 . S
C533 C532 1.359 . S
C533 C534 1.380 . S
C533 H556 0.929 1_556 S
C534 C533 1.380 . S
C534 C535 1.347 . S
C534 H557 0.931 1_556 S
C535 C534 1.347 . S
C535 C536 1.369 . S
C536 C535 1.369 . S
C536 C537 1.408 . S
C536 H558 0.930 . S
C537 C532 1.348 . S
C537 C536 1.408 . S
C537 H559 0.930 . S
C538 O548 1.281 . S
C538 O549 1.254 . S
C539 O550 1.236 1_554 S
C539 O551 1.266 . S
O540 Tb520 2.484 . S
O540 C522 1.248 . S
O541 Tb520 2.440 . S
O541 C522 1.266 . S
O542 Tb520 2.658 . S
O542 Tb521 2.325 1_554 S
O542 C529 1.281 . S
O543 Tb520 2.409 . S
O543 C529 1.254 . S
O544 Tb520 2.378 . S
O544 C530 1.236 1_554 S
O545 Tb521 2.341 . S
O545 C530 1.266 . S
O546 Tb521 2.484 . S
O546 C531 1.248 . S
O547 Tb521 2.440 . S
O547 C531 1.266 . S
O548 Tb520 2.325 1_556 S
O548 Tb521 2.658 . S
O548 C538 1.281 . S
O549 Tb521 2.409 . S
O549 C538 1.254 . S
O550 Tb521 2.378 . S
O550 C539 1.236 1_556 S
O551 Tb520 2.341 . S
O551 C539 1.266 . S
H552 C524 0.929 1_556 S
H553 C525 0.931 1_556 S
H554 C527 0.930 . S
H555 C528 0.930 . S
H556 C533 0.929 1_554 S
H557 C534 0.931 1_554 S
H558 C536 0.930 . S
H559 C537 0.930 . S
Tb560 C562 2.809 . S
Tb560 O580 2.484 . S
Tb560 O581 2.440 . S
Tb560 O582 2.658 . S
Tb560 O583 2.409 . S
Tb560 O584 2.378 . S
Tb560 O588 2.325 1_565 S
Tb560 O591 2.341 1_565 S
Tb561 C571 2.809 . S
Tb561 O582 2.325 1_545 S
Tb561 O585 2.341 1_545 S
Tb561 O586 2.484 . S
Tb561 O587 2.440 . S
Tb561 O588 2.658 . S
Tb561 O589 2.409 . S
Tb561 O590 2.378 . S
C562 Tb560 2.809 . S
C562 C563 1.514 . S
C562 O580 1.248 . S
C562 O581 1.266 . S
C563 C562 1.514 . S
C563 C564 1.359 . S
C563 C568 1.348 . S
C564 C563 1.359 . S
C564 C565 1.380 . S
C564 H592 0.929 . S
C565 C564 1.380 . S
C565 C566 1.347 . S
C565 H593 0.931 . S
C566 C565 1.347 . S
C566 C567 1.369 . S
C567 C566 1.369 . S
C567 C568 1.408 . S
C567 H594 0.930 . S
C568 C563 1.348 . S
C568 C567 1.408 . S
C568 H595 0.930 . S
C569 O582 1.281 . S
C569 O583 1.254 . S
C570 O584 1.236 . S
C570 O585 1.266 . S
C571 Tb561 2.809 . S
C571 C572 1.514 . S
C571 O586 1.248 . S
C571 O587 1.266 . S
C572 C571 1.514 . S
C572 C573 1.359 . S
C572 C577 1.348 . S
C573 C572 1.359 . S
C573 C574 1.380 . S
C573 H596 0.929 . S
C574 C573 1.380 . S
C574 C575 1.347 . S
C574 H597 0.931 . S
C575 C574 1.347 . S
C575 C576 1.369 . S
C576 C575 1.369 . S
C576 C577 1.408 . S
C576 H598 0.930 . S
C577 C572 1.348 . S
C577 C576 1.408 . S
C577 H599 0.930 . S
C578 O588 1.281 . S
C578 O589 1.254 . S
C579 O590 1.236 . S
C579 O591 1.266 . S
O580 Tb560 2.484 . S
O580 C562 1.248 . S
O581 Tb560 2.440 . S
O581 C562 1.266 . S
O582 Tb560 2.658 . S
O582 Tb561 2.325 1_565 S
O582 C569 1.281 . S
O583 Tb560 2.409 . S
O583 C569 1.254 . S
O584 Tb560 2.378 . S
O584 C570 1.236 . S
O585 Tb561 2.341 1_565 S
O585 C570 1.266 . S
O586 Tb561 2.484 . S
O586 C571 1.248 . S
O587 Tb561 2.440 . S
O587 C571 1.266 . S
O588 Tb560 2.325 1_545 S
O588 Tb561 2.658 . S
O588 C578 1.281 . S
O589 Tb561 2.409 . S
O589 C578 1.254 . S
O590 Tb561 2.378 . S
O590 C579 1.236 . S
O591 Tb560 2.341 1_545 S
O591 C579 1.266 . S
H592 C564 0.929 . S
H593 C565 0.931 . S
H594 C567 0.930 . S
H595 C568 0.930 . S
H596 C573 0.929 . S
H597 C574 0.931 . S
H598 C576 0.930 . S
H599 C577 0.930 . S
Tb600 C602 2.809 . S
Tb600 O620 2.484 . S
Tb600 O621 2.440 . S
Tb600 O622 2.658 . S
Tb600 O623 2.409 . S
Tb600 O624 2.378 . S
Tb600 O628 2.325 1_554 S
Tb600 O631 2.341 . S
Tb601 C611 2.809 . S
Tb601 O622 2.325 1_556 S
Tb601 O625 2.341 . S
Tb601 O626 2.484 . S
Tb601 O627 2.440 . S
Tb601 O628 2.658 . S
Tb601 O629 2.409 . S
Tb601 O630 2.378 . S
C602 Tb600 2.809 . S
C602 C603 1.514 . S
C602 O620 1.248 . S
C602 O621 1.266 . S
C603 C602 1.514 . S
C603 C604 1.359 . S
C603 C608 1.348 . S
C604 C603 1.359 . S
C604 C605 1.380 . S
C604 H632 0.929 1_554 S
C605 C604 1.380 . S
C605 C606 1.347 . S
C605 H633 0.931 1_554 S
C606 C605 1.347 . S
C606 C607 1.369 . S
C607 C606 1.369 . S
C607 C608 1.408 . S
C607 H634 0.930 . S
C608 C603 1.348 . S
C608 C607 1.408 . S
C608 H635 0.930 . S
C609 O622 1.281 . S
C609 O623 1.254 . S
C610 O624 1.236 1_556 S
C610 O625 1.266 . S
C611 Tb601 2.809 . S
C611 C612 1.514 . S
C611 O626 1.248 . S
C611 O627 1.266 . S
C612 C611 1.514 . S
C612 C613 1.359 . S
C612 C617 1.348 . S
C613 C612 1.359 . S
C613 C614 1.380 . S
C613 H636 0.929 1_556 S
C614 C613 1.380 . S
C614 C615 1.347 . S
C614 H637 0.931 1_556 S
C615 C614 1.347 . S
C615 C616 1.369 . S
C616 C615 1.369 . S
C616 C617 1.408 . S
C616 H638 0.930 . S
C617 C612 1.348 . S
C617 C616 1.408 . S
C617 H639 0.930 . S
C618 O628 1.281 . S
C618 O629 1.254 . S
C619 O630 1.236 1_554 S
C619 O631 1.266 . S
O620 Tb600 2.484 . S
O620 C602 1.248 . S
O621 Tb600 2.440 . S
O621 C602 1.266 . S
O622 Tb600 2.658 . S
O622 Tb601 2.325 1_554 S
O622 C609 1.281 . S
O623 Tb600 2.409 . S
O623 C609 1.254 . S
O624 Tb600 2.378 . S
O624 C610 1.236 1_554 S
O625 Tb601 2.341 . S
O625 C610 1.266 . S
O626 Tb601 2.484 . S
O626 C611 1.248 . S
O627 Tb601 2.440 . S
O627 C611 1.266 . S
O628 Tb600 2.325 1_556 S
O628 Tb601 2.658 . S
O628 C618 1.281 . S
O629 Tb601 2.409 . S
O629 C618 1.254 . S
O630 Tb601 2.378 . S
O630 C619 1.236 1_556 S
O631 Tb600 2.341 . S
O631 C619 1.266 . S
H632 C604 0.929 1_556 S
H633 C605 0.931 1_556 S
H634 C607 0.930 . S
H635 C608 0.930 . S
H636 C613 0.929 1_554 S
H637 C614 0.931 1_554 S
H638 C616 0.930 . S
H639 C617 0.930 . S
H640 C652 0.930 . S
H641 C654 0.930 . S
H642 C655 0.930 . S
H643 C659 0.959 . S
H644 C659 0.959 1_556 S
H645 C659 0.961 1_556 S
H646 C660 0.960 . S
H647 C660 0.961 . S
H648 C660 0.959 1_554 S
H649 C663 0.929 . S
H650 C664 0.931 . S
H651 C666 0.930 . S
C652 H640 0.930 . S
C652 C653 1.399 . S
C652 C657 1.399 . S
C653 C652 1.399 . S
C653 C654 1.376 . S
C654 H641 0.930 . S
C654 C653 1.376 . S
C654 C655 1.388 . S
C655 H642 0.930 . S
C655 C654 1.388 . S
C655 C656 1.390 . S
C656 C655 1.390 . S
C656 C657 1.394 . S
C656 C662 1.465 . S
C657 C652 1.399 . S
C657 C656 1.394 . S
C657 C658 1.516 . S
C658 C657 1.516 . S
C658 C659 1.502 1_655 S
C658 C660 1.561 1_554 S
C658 C661 1.526 . S
C659 H643 0.959 . S
C659 H644 0.959 1_554 S
C659 H645 0.961 1_554 S
C659 C658 1.502 1_455 S
C660 H646 0.960 . S
C660 H647 0.961 . S
C660 H648 0.959 1_556 S
C660 C658 1.561 1_556 S
C661 C658 1.526 . S
C661 C662 1.396 . S
C661 C666 1.390 . S
C662 C656 1.465 . S
C662 C661 1.396 . S
C662 C663 1.399 . S
C663 H649 0.929 . S
C663 C662 1.399 . S
C663 C664 1.385 . S
C664 H650 0.931 . S
C664 C663 1.385 . S
C664 C665 1.389 . S
C665 C664 1.389 . S
C665 C666 1.387 . S
C666 H651 0.930 . S
C666 C661 1.390 . S
C666 C665 1.387 . S
H667 C679 0.930 . S
H668 C681 0.930 . S
H669 C682 0.930 . S
H670 C686 0.959 . S
H671 C686 0.959 . S
H672 C686 0.961 . S
H673 C687 0.960 . S
H674 C687 0.961 . S
H675 C687 0.959 . S
H676 C690 0.929 . S
H677 C691 0.931 . S
H678 C693 0.930 . S
C679 H667 0.930 . S
C679 C680 1.399 . S
C679 C684 1.399 . S
C680 C679 1.399 . S
C680 C681 1.376 . S
C681 H668 0.930 . S
C681 C680 1.376 . S
C681 C682 1.388 . S
C682 H669 0.930 . S
C682 C681 1.388 . S
C682 C683 1.390 . S
C683 C682 1.390 . S
C683 C684 1.394 . S
C683 C689 1.465 . S
C684 C679 1.399 . S
C684 C683 1.394 . S
C684 C685 1.516 . S
C685 C684 1.516 . S
C685 C686 1.502 . S
C685 C687 1.561 . S
C685 C688 1.526 . S
C686 H670 0.959 . S
C686 H671 0.959 . S
C686 H672 0.961 . S
C686 C685 1.502 . S
C687 H673 0.960 . S
C687 H674 0.961 . S
C687 H675 0.959 . S
C687 C685 1.561 . S
C688 C685 1.526 . S
C688 C689 1.396 . S
C688 C693 1.390 . S
C689 C683 1.465 . S
C689 C688 1.396 . S
C689 C690 1.399 . S
C690 H676 0.929 . S
C690 C689 1.399 . S
C690 C691 1.385 . S
C691 H677 0.931 . S
C691 C690 1.385 . S
C691 C692 1.389 . S
C692 C691 1.389 . S
C692 C693 1.387 . S
C693 H678 0.930 . S
C693 C688 1.390 . S
C693 C692 1.387 . S
H694 C706 0.930 . S
H695 C708 0.930 . S
H696 C709 0.930 . S
H697 C713 0.959 . S
H698 C713 0.959 . S
H699 C713 0.961 . S
H700 C714 0.960 . S
H701 C714 0.961 . S
H702 C714 0.959 . S
H703 C717 0.929 . S
H704 C718 0.931 . S
H705 C720 0.930 . S
C706 H694 0.930 . S
C706 C707 1.399 . S
C706 C711 1.399 . S
C707 C706 1.399 . S
C707 C708 1.376 . S
C708 H695 0.930 . S
C708 C707 1.376 . S
C708 C709 1.388 . S
C709 H696 0.930 . S
C709 C708 1.388 . S
C709 C710 1.390 . S
C710 C709 1.390 . S
C710 C711 1.394 . S
C710 C716 1.465 . S
C711 C706 1.399 . S
C711 C710 1.394 . S
C711 C712 1.516 . S
C712 C711 1.516 . S
C712 C713 1.502 . S
C712 C714 1.561 . S
C712 C715 1.526 . S
C713 H697 0.959 . S
C713 H698 0.959 . S
C713 H699 0.961 . S
C713 C712 1.502 . S
C714 H700 0.960 . S
C714 H701 0.961 . S
C714 H702 0.959 . S
C714 C712 1.561 . S
C715 C712 1.526 . S
C715 C716 1.396 . S
C715 C720 1.390 . S
C716 C710 1.465 . S
C716 C715 1.396 . S
C716 C717 1.399 . S
C717 H703 0.929 . S
C717 C716 1.399 . S
C717 C718 1.385 . S
C718 H704 0.931 . S
C718 C717 1.385 . S
C718 C719 1.389 . S
C719 C718 1.389 . S
C719 C720 1.387 . S
C720 H705 0.930 . S
C720 C715 1.390 . S
C720 C719 1.387 . S
H721 C733 0.930 . S
H722 C735 0.930 . S
H723 C736 0.930 . S
H724 C740 0.959 . S
H725 C740 0.959 . S
H726 C740 0.961 . S
H727 C741 0.960 . S
H728 C741 0.961 . S
H729 C741 0.959 . S
H730 C744 0.929 . S
H731 C745 0.931 . S
H732 C747 0.930 . S
C733 H721 0.930 . S
C733 C734 1.399 . S
C733 C738 1.399 . S
C734 C733 1.399 . S
C734 C735 1.376 1_545 S
C735 H722 0.930 . S
C735 C734 1.376 1_565 S
C735 C736 1.388 . S
C736 H723 0.930 . S
C736 C735 1.388 . S
C736 C737 1.377 1_565 S
C737 C736 1.377 1_545 S
C737 C738 1.437 . S
C737 C743 1.443 1_545 S
C738 C733 1.399 . S
C738 C737 1.437 . S
C738 C739 1.516 . S
C739 C738 1.516 . S
C739 C740 1.502 . S
C739 C741 1.561 . S
C739 C742 1.526 . S
C740 H724 0.959 . S
C740 H725 0.959 . S
C740 H726 0.961 . S
C740 C739 1.502 . S
C741 H727 0.960 . S
C741 H728 0.961 . S
C741 H729 0.959 . S
C741 C739 1.561 . S
C742 C739 1.526 . S
C742 C743 1.396 1_545 S
C742 C747 1.390 . S
C743 C737 1.443 1_565 S
C743 C742 1.396 1_565 S
C743 C744 1.399 . S
C744 H730 0.929 . S
C744 C743 1.399 . S
C744 C745 1.385 . S
C745 H731 0.931 . S
C745 C744 1.385 . S
C745 C746 1.389 . S
C746 C745 1.389 . S
C746 C747 1.387 1_565 S
C747 H732 0.930 . S
C747 C742 1.390 . S
C747 C746 1.387 1_545 S
H748 C760 0.930 . S
H749 C762 0.930 . S
H750 C763 0.930 . S
H751 C767 0.959 . S
H752 C767 0.959 . S
H753 C767 0.961 . S
H754 C768 0.960 . S
H755 C768 0.961 . S
H756 C768 0.959 . S
H757 C771 0.929 . S
H758 C772 0.931 . S
H759 C774 0.930 . S
C760 H748 0.930 . S
C760 C761 1.399 1_545 S
C760 C765 1.399 . S
C761 C760 1.399 1_565 S
C761 C762 1.376 . S
C762 H749 0.930 . S
C762 C761 1.376 . S
C762 C763 1.388 . S
C763 H750 0.930 . S
C763 C762 1.388 . S
C763 C764 1.390 . S
C764 C763 1.390 . S
C764 C765 1.394 1_565 S
C764 C770 1.465 . S
C765 C760 1.399 . S
C765 C764 1.394 1_545 S
C765 C766 1.516 . S
C766 C765 1.516 . S
C766 C767 1.502 . S
C766 C768 1.561 . S
C766 C769 1.526 . S
C767 H751 0.959 . S
C767 H752 0.959 . S
C767 H753 0.961 . S
C767 C766 1.502 . S
C768 H754 0.960 . S
C768 H755 0.961 . S
C768 H756 0.959 . S
C768 C766 1.561 . S
C769 C766 1.526 . S
C769 C770 1.396 1_545 S
C769 C774 1.390 . S
C770 C764 1.465 . S
C770 C769 1.396 1_565 S
C770 C771 1.399 . S
C771 H757 0.929 . S
C771 C770 1.399 . S
C771 C772 1.385 . S
C772 H758 0.931 . S
C772 C771 1.385 . S
C772 C773 1.389 1_565 S
C773 C772 1.389 1_545 S
C773 C774 1.387 . S
C774 H759 0.930 . S
C774 C769 1.390 . S
C774 C773 1.387 . S
H775 C787 0.930 . S
H776 C789 0.930 . S
H777 C790 0.930 . S
H778 C794 0.959 . S
H779 C794 0.959 . S
H780 C794 0.961 . S
H781 C795 0.960 . S
H782 C795 0.961 . S
H783 C795 0.959 . S
H784 C798 0.929 . S
H785 C799 0.931 . S
H786 C801 0.930 . S
C787 H775 0.930 . S
C787 C788 1.399 . S
C787 C792 1.399 . S
C788 C787 1.399 . S
C788 C789 1.376 1_455 S
C789 H776 0.930 . S
C789 C788 1.376 1_655 S
C789 C790 1.388 . S
C790 H777 0.930 . S
C790 C789 1.388 . S
C790 C791 1.390 1_655 S
C791 C790 1.390 1_455 S
C791 C792 1.394 . S
C791 C797 1.465 . S
C792 C787 1.399 . S
C792 C791 1.394 . S
C792 C793 1.516 . S
C793 C792 1.516 . S
C793 C794 1.502 . S
C793 C795 1.561 . S
C793 C796 1.526 . S
C794 H778 0.959 . S
C794 H779 0.959 . S
C794 H780 0.961 . S
C794 C793 1.502 . S
C795 H781 0.960 . S
C795 H782 0.961 . S
C795 H783 0.959 . S
C795 C793 1.561 . S
C796 C793 1.526 . S
C796 C797 1.396 . S
C796 C801 1.390 . S
C797 C791 1.465 . S
C797 C796 1.396 . S
C797 C798 1.399 1_455 S
C798 H784 0.929 . S
C798 C797 1.399 1_655 S
C798 C799 1.385 . S
C799 H785 0.931 . S
C799 C798 1.385 . S
C799 C800 1.389 1_655 S
C800 C799 1.389 1_455 S
C800 C801 1.387 . S
C801 H786 0.930 . S
C801 C796 1.390 . S
C801 C800 1.387 . S
H802 C814 0.930 . S
H803 C816 0.930 . S
H804 C817 0.930 . S
H805 C821 0.959 . S
H806 C821 0.959 . S
H807 C821 0.961 . S
H808 C822 0.960 . S
H809 C822 0.961 . S
H810 C822 0.959 . S
H811 C825 0.929 . S
H812 C826 0.931 . S
H813 C828 0.930 . S
C814 H802 0.930 . S
C814 C815 1.399 . S
C814 C819 1.399 . S
C815 C814 1.399 . S
C815 C816 1.376 . S
C816 H803 0.930 . S
C816 C815 1.376 . S
C816 C817 1.388 . S
C817 H804 0.930 . S
C817 C816 1.388 . S
C817 C818 1.390 . S
C818 C817 1.390 . S
C818 C819 1.394 . S
C818 C824 1.465 . S
C819 C814 1.399 . S
C819 C818 1.394 . S
C819 C820 1.516 . S
C820 C819 1.516 . S
C820 C821 1.502 . S
C820 C822 1.561 . S
C820 C823 1.526 . S
C821 H805 0.959 . S
C821 H806 0.959 . S
C821 H807 0.961 . S
C821 C820 1.502 . S
C822 H808 0.960 . S
C822 H809 0.961 . S
C822 H810 0.959 . S
C822 C820 1.561 . S
C823 C820 1.526 . S
C823 C824 1.396 . S
C823 C828 1.390 . S
C824 C818 1.465 . S
C824 C823 1.396 . S
C824 C825 1.399 . S
C825 H811 0.929 . S
C825 C824 1.399 . S
C825 C826 1.385 . S
C826 H812 0.931 . S
C826 C825 1.385 . S
C826 C827 1.389 . S
C827 C826 1.389 . S
C827 C828 1.387 . S
C828 H813 0.930 . S
C828 C823 1.390 . S
C828 C827 1.387 . S
H829 C841 0.930 . S
H830 C843 0.930 . S
H831 C844 0.930 . S
H832 C848 0.959 1_556 S
H833 C848 0.959 . S
H834 C848 0.961 . S
H835 C849 0.960 1_554 S
H836 C849 0.961 1_554 S
H837 C849 0.959 . S
H838 C852 0.929 . S
H839 C853 0.931 . S
H840 C855 0.936 . S
C841 H829 0.930 . S
C841 C842 1.399 . S
C841 C846 1.399 . S
C842 C841 1.399 . S
C842 C843 1.376 . S
C843 H830 0.930 . S
C843 C842 1.376 . S
C843 C844 1.388 . S
C844 H831 0.930 . S
C844 C843 1.388 . S
C844 C845 1.390 . S
C845 C844 1.390 . S
C845 C846 1.394 . S
C845 C851 1.465 . S
C846 C841 1.399 . S
C846 C845 1.394 . S
C846 C847 1.516 . S
C847 C846 1.516 . S
C847 C848 1.502 1_556 S
C847 C849 1.561 . S
C847 C850 1.526 . S
C848 H832 0.959 1_554 S
C848 H833 0.959 . S
C848 H834 0.961 . S
C848 C847 1.502 1_554 S
C849 H835 0.960 1_556 S
C849 H836 0.961 1_556 S
C849 H837 0.959 . S
C849 C847 1.561 . S
C850 C847 1.526 . S
C850 C851 1.396 . S
C850 C855 1.390 . S
C851 C845 1.465 . S
C851 C850 1.396 . S
C851 C852 1.399 . S
C852 H838 0.929 . S
C852 C851 1.399 . S
C852 C853 1.385 . S
C853 H839 0.931 . S
C853 C852 1.385 . S
C853 C854 1.389 . S
C854 C853 1.389 . S
C854 C855 1.387 . S
C855 H840 0.936 . S
C855 C850 1.390 . S
C855 C854 1.387 . S
H856 C868 0.930 . S
H857 C870 0.930 . S
H858 C871 0.930 . S
H859 C875 0.959 . S
H860 C875 0.959 . S
H861 C875 0.961 . S
H862 C876 0.960 . S
H863 C876 0.961 . S
H864 C876 0.959 . S
H865 C879 0.929 . S
H866 C880 0.931 . S
H867 C882 0.930 . S
C868 H856 0.930 . S
C868 C869 1.399 . S
C868 C873 1.399 . S
C869 C868 1.399 . S
C869 C870 1.376 . S
C870 H857 0.930 . S
C870 C869 1.376 . S
C870 C871 1.388 . S
C871 H858 0.930 . S
C871 C870 1.388 . S
C871 C872 1.390 . S
C872 C871 1.390 . S
C872 C873 1.394 . S
C872 C878 1.465 . S
C873 C868 1.399 . S
C873 C872 1.394 . S
C873 C874 1.516 . S
C874 C873 1.516 . S
C874 C875 1.502 . S
C874 C876 1.561 . S
C874 C877 1.526 . S
C875 H859 0.959 . S
C875 H860 0.959 . S
C875 H861 0.961 . S
C875 C874 1.502 . S
C876 H862 0.960 . S
C876 H863 0.961 . S
C876 H864 0.959 . S
C876 C874 1.561 . S
C877 C874 1.526 . S
C877 C878 1.396 . S
C877 C882 1.390 . S
C878 C872 1.465 . S
C878 C877 1.396 . S
C878 C879 1.399 . S
C879 H865 0.929 . S
C879 C878 1.399 . S
C879 C880 1.385 . S
C880 H866 0.931 . S
C880 C879 1.385 . S
C880 C881 1.389 . S
C881 C880 1.389 . S
C881 C882 1.387 . S
C882 H867 0.930 . S
C882 C877 1.390 . S
C882 C881 1.387 . S
H883 C895 0.930 . S
H884 C897 0.930 . S
H885 C898 0.930 . S
H886 C902 0.959 . S
H887 C902 0.959 . S
H888 C902 0.961 . S
H889 C903 0.960 . S
H890 C903 0.961 . S
H891 C903 0.959 . S
H892 C906 0.929 . S
H893 C907 0.931 . S
H894 C909 0.930 . S
C895 H883 0.930 . S
C895 C896 1.399 . S
C895 C900 1.399 . S
C896 C895 1.399 . S
C896 C897 1.376 . S
C897 H884 0.930 . S
C897 C896 1.376 . S
C897 C898 1.388 . S
C898 H885 0.930 . S
C898 C897 1.388 . S
C898 C899 1.390 . S
C899 C898 1.390 . S
C899 C900 1.394 . S
C899 C905 1.465 . S
C900 C895 1.399 . S
C900 C899 1.394 . S
C900 C901 1.516 . S
C901 C900 1.516 . S
C901 C902 1.502 . S
C901 C903 1.561 . S
C901 C904 1.526 . S
C902 H886 0.959 . S
C902 H887 0.959 . S
C902 H888 0.961 . S
C902 C901 1.502 . S
C903 H889 0.960 . S
C903 H890 0.961 . S
C903 H891 0.959 . S
C903 C901 1.561 . S
C904 C901 1.526 . S
C904 C905 1.396 . S
C904 C909 1.390 . S
C905 C899 1.465 . S
C905 C904 1.396 . S
C905 C906 1.399 . S
C906 H892 0.929 . S
C906 C905 1.399 . S
C906 C907 1.385 . S
C907 H893 0.931 . S
C907 C906 1.385 . S
C907 C908 1.389 . S
C908 C907 1.389 . S
C908 C909 1.387 . S
C909 H894 0.930 . S
C909 C904 1.390 . S
C909 C908 1.387 . S
H910 C922 0.930 . S
H911 C924 0.930 . S
H912 C925 0.930 . S
H913 C929 0.959 . S
H914 C929 0.959 . S
H915 C929 0.961 . S
H916 C930 0.960 . S
H917 C930 0.961 . S
H918 C930 0.959 . S
H919 C933 0.929 . S
H920 C934 0.931 . S
H921 C936 0.930 . S
C922 H910 0.930 . S
C922 C923 1.399 . S
C922 C927 1.399 . S
C923 C922 1.399 . S
C923 C924 1.376 1_565 S
C924 H911 0.930 . S
C924 C923 1.376 1_545 S
C924 C925 1.388 . S
C925 H912 0.930 . S
C925 C924 1.388 . S
C925 C926 1.410 . S
C926 C925 1.410 . S
C926 C927 1.336 1_545 S
C926 C932 1.496 . S
C927 C922 1.399 . S
C927 C926 1.336 1_565 S
C927 C928 1.516 . S
C928 C927 1.516 . S
C928 C929 1.502 . S
C928 C930 1.561 . S
C928 C931 1.526 . S
C929 H913 0.959 . S
C929 H914 0.959 . S
C929 H915 0.961 . S
C929 C928 1.502 . S
C930 H916 0.960 . S
C930 H917 0.961 . S
C930 H918 0.959 . S
C930 C928 1.561 . S
C931 C928 1.526 . S
C931 C932 1.396 1_565 S
C931 C936 1.390 . S
C932 C926 1.496 . S
C932 C931 1.396 1_545 S
C932 C933 1.399 . S
C933 H919 0.929 . S
C933 C932 1.399 . S
C933 C934 1.385 . S
C934 H920 0.931 . S
C934 C933 1.385 . S
C934 C935 1.389 . S
C935 C934 1.389 . S
C935 C936 1.387 1_545 S
C936 H921 0.930 . S
C936 C931 1.390 . S
C936 C935 1.387 1_565 S
H937 C949 0.930 . S
H938 C951 0.930 1_554 S
H939 C952 0.930 1_554 S
H940 C956 0.959 . S
H941 C956 0.959 . S
H942 C956 0.961 . S
H943 C957 0.960 . S
H944 C957 0.961 . S
H945 C957 0.959 . S
H946 C960 0.929 . S
H947 C961 0.938 . S
H948 C963 0.930 . S
C949 H937 0.930 . S
C949 C950 1.399 . S
C949 C954 1.399 . S
C950 C949 1.399 . S
C950 C951 1.376 . S
C951 H938 0.930 1_556 S
C951 C950 1.376 . S
C951 C952 1.388 . S
C952 H939 0.930 1_556 S
C952 C951 1.388 . S
C952 C953 1.390 . S
C953 C952 1.390 . S
C953 C954 1.394 . S
C953 C959 1.465 . S
C954 C949 1.399 . S
C954 C953 1.394 . S
C954 C955 1.516 . S
C955 C954 1.516 . S
C955 C956 1.502 . S
C955 C957 1.561 . S
C955 C958 1.526 . S
C956 H940 0.959 . S
C956 H941 0.959 . S
C956 H942 0.961 . S
C956 C955 1.502 . S
C957 H943 0.960 . S
C957 H944 0.961 . S
C957 H945 0.959 . S
C957 C955 1.561 . S
C958 C955 1.526 . S
C958 C959 1.396 . S
C958 C963 1.390 . S
C959 C953 1.465 . S
C959 C958 1.396 . S
C959 C960 1.399 . S
C960 H946 0.929 . S
C960 C959 1.399 . S
C960 C961 1.385 . S
C961 H947 0.938 . S
C961 C960 1.385 . S
C961 C962 1.389 . S
C962 C961 1.389 . S
C962 C963 1.387 . S
C963 H948 0.930 . S
C963 C958 1.390 . S
C963 C962 1.387 . S
H964 C976 0.930 . S
H965 C978 0.910 1_554 S
H966 C979 0.930 . S
H967 C983 0.959 . S
H968 C983 0.959 . S
H969 C983 0.961 . S
H970 C984 0.960 . S
H971 C984 0.961 . S
H972 C984 0.959 . S
H973 C987 0.929 . S
H974 C988 0.938 . S
H975 C990 0.930 . S
C976 H964 0.930 . S
C976 C977 1.399 . S
C976 C981 1.399 . S
C977 C976 1.399 . S
C977 C978 1.403 . S
C978 H965 0.910 1_556 S
C978 C977 1.403 . S
C978 C979 1.383 1_556 S
C979 H966 0.930 . S
C979 C978 1.383 1_554 S
C979 C980 1.390 1_554 S
C980 C979 1.390 1_556 S
C980 C981 1.394 . S
C980 C986 1.465 . S
C981 C976 1.399 . S
C981 C980 1.394 . S
C981 C982 1.516 . S
C982 C981 1.516 . S
C982 C983 1.502 . S
C982 C984 1.561 . S
C982 C985 1.526 . S
C983 H967 0.959 . S
C983 H968 0.959 . S
C983 H969 0.961 . S
C983 C982 1.502 . S
C984 H970 0.960 . S
C984 H971 0.961 . S
C984 H972 0.959 . S
C984 C982 1.561 . S
C985 C982 1.526 . S
C985 C986 1.396 . S
C985 C990 1.390 . S
C986 C980 1.465 . S
C986 C985 1.396 . S
C986 C987 1.399 1_556 S
C987 H973 0.929 . S
C987 C986 1.399 1_554 S
C987 C988 1.387 . S
C988 H974 0.938 . S
C988 C987 1.387 . S
C988 C989 1.381 1_554 S
C989 C988 1.381 1_556 S
C989 C990 1.387 . S
C990 H975 0.930 . S
C990 C985 1.390 . S
C990 C989 1.387 . S
H991 C1003 0.930 . S
H992 C1005 0.930 . S
H993 C1006 0.930 . S
H994 C1010 0.959 . S
H995 C1010 0.959 . S
H996 C1010 0.961 . S
H997 C1011 0.960 . S
H998 C1011 0.961 . S
H999 C1011 0.959 . S
H1000 C1014 0.929 . S
H1001 C1015 0.931 . S
H1002 C1017 0.930 . S
C1003 H991 0.930 . S
C1003 C1004 1.399 . S
C1003 C1008 1.399 . S
C1004 C1003 1.399 . S
C1004 C1005 1.376 . S
C1005 H992 0.930 . S
C1005 C1004 1.376 . S
C1005 C1006 1.388 . S
C1006 H993 0.930 . S
C1006 C1005 1.388 . S
C1006 C1007 1.390 . S
C1007 C1006 1.390 . S
C1007 C1008 1.394 . S
C1007 C1013 1.465 . S
C1008 C1003 1.399 . S
C1008 C1007 1.394 . S
C1008 C1009 1.516 . S
C1009 C1008 1.516 . S
C1009 C1010 1.502 . S
C1009 C1011 1.561 . S
C1009 C1012 1.526 . S
C1010 H994 0.959 . S
C1010 H995 0.959 . S
C1010 H996 0.961 . S
C1010 C1009 1.502 . S
C1011 H997 0.960 . S
C1011 H998 0.961 . S
C1011 H999 0.959 . S
C1011 C1009 1.561 . S
C1012 C1009 1.526 . S
C1012 C1013 1.396 . S
C1012 C1017 1.390 . S
C1013 C1007 1.465 . S
C1013 C1012 1.396 . S
C1013 C1014 1.399 . S
C1014 H1000 0.929 . S
C1014 C1013 1.399 . S
C1014 C1015 1.385 . S
C1015 H1001 0.931 . S
C1015 C1014 1.385 . S
C1015 C1016 1.389 . S
C1016 C1015 1.389 . S
C1016 C1017 1.387 . S
C1017 H1002 0.930 . S
C1017 C1012 1.390 . S
C1017 C1016 1.387 . S
H1018 C1030 0.930 . S
H1019 C1032 0.930 . S
H1020 C1033 0.930 . S
H1021 C1037 0.959 . S
H1022 C1037 0.959 . S
H1023 C1037 0.961 . S
H1024 C1038 0.960 . S
H1025 C1038 0.961 . S
H1026 C1038 0.959 . S
H1027 C1041 0.929 . S
H1028 C1042 0.931 . S
H1029 C1044 0.930 . S
C1030 H1018 0.930 . S
C1030 C1031 1.399 . S
C1030 C1035 1.399 . S
C1031 C1030 1.399 . S
C1031 C1032 1.376 . S
C1032 H1019 0.930 . S
C1032 C1031 1.376 . S
C1032 C1033 1.388 . S
C1033 H1020 0.930 . S
C1033 C1032 1.388 . S
C1033 C1034 1.390 . S
C1034 C1033 1.390 . S
C1034 C1035 1.394 . S
C1034 C1040 1.465 . S
C1035 C1030 1.399 . S
C1035 C1034 1.394 . S
C1035 C1036 1.516 . S
C1036 C1035 1.516 . S
C1036 C1037 1.502 . S
C1036 C1038 1.561 . S
C1036 C1039 1.526 . S
C1037 H1021 0.959 . S
C1037 H1022 0.959 . S
C1037 H1023 0.961 . S
C1037 C1036 1.502 . S
C1038 H1024 0.960 . S
C1038 H1025 0.961 . S
C1038 H1026 0.959 . S
C1038 C1036 1.561 . S
C1039 C1036 1.526 . S
C1039 C1040 1.396 . S
C1039 C1044 1.390 . S
C1040 C1034 1.465 . S
C1040 C1039 1.396 . S
C1040 C1041 1.399 . S
C1041 H1027 0.929 . S
C1041 C1040 1.399 . S
C1041 C1042 1.385 . S
C1042 H1028 0.931 . S
C1042 C1041 1.385 . S
C1042 C1043 1.389 . S
C1043 C1042 1.389 . S
C1043 C1044 1.387 . S
C1044 H1029 0.930 . S
C1044 C1039 1.390 . S
C1044 C1043 1.387 . S
H1045 C1057 0.930 . S
H1046 C1059 0.930 . S
H1047 C1060 0.930 . S
H1048 C1064 0.959 . S
H1049 C1064 0.959 . S
H1050 C1064 0.961 . S
H1051 C1065 0.960 . S
H1052 C1065 0.961 . S
H1053 C1065 0.959 . S
H1054 C1068 0.929 . S
H1055 C1069 0.931 . S
H1056 C1071 0.930 . S
C1057 H1045 0.930 . S
C1057 C1058 1.399 . S
C1057 C1062 1.399 . S
C1058 C1057 1.399 . S
C1058 C1059 1.376 . S
C1059 H1046 0.930 . S
C1059 C1058 1.376 . S
C1059 C1060 1.388 . S
C1060 H1047 0.930 . S
C1060 C1059 1.388 . S
C1060 C1061 1.390 . S
C1061 C1060 1.390 . S
C1061 C1062 1.394 . S
C1061 C1067 1.465 . S
C1062 C1057 1.399 . S
C1062 C1061 1.394 . S
C1062 C1063 1.516 . S
C1063 C1062 1.516 . S
C1063 C1064 1.502 . S
C1063 C1065 1.561 . S
C1063 C1066 1.526 . S
C1064 H1048 0.959 . S
C1064 H1049 0.959 . S
C1064 H1050 0.961 . S
C1064 C1063 1.502 . S
C1065 H1051 0.960 . S
C1065 H1052 0.961 . S
C1065 H1053 0.959 . S
C1065 C1063 1.561 . S
C1066 C1063 1.526 . S
C1066 C1067 1.396 . S
C1066 C1071 1.390 . S
C1067 C1061 1.465 . S
C1067 C1066 1.396 . S
C1067 C1068 1.399 . S
C1068 H1054 0.929 . S
C1068 C1067 1.399 . S
C1068 C1069 1.385 . S
C1069 H1055 0.931 . S
C1069 C1068 1.385 . S
C1069 C1070 1.389 . S
C1070 C1069 1.389 . S
C1070 C1071 1.387 . S
C1071 H1056 0.930 . S
C1071 C1066 1.390 . S
C1071 C1070 1.387 . S
H1072 C1084 0.930 . S
H1073 C1086 0.930 . S
H1074 C1087 0.930 . S
H1075 C1091 0.959 . S
H1076 C1091 0.959 . S
H1077 C1091 0.961 . S
H1078 C1092 0.960 . S
H1079 C1092 0.961 . S
H1080 C1092 0.959 . S
H1081 C1095 0.929 . S
H1082 C1096 0.931 . S
H1083 C1098 0.930 . S
C1084 H1072 0.930 . S
C1084 C1085 1.399 . S
C1084 C1089 1.399 . S
C1085 C1084 1.399 . S
C1085 C1086 1.376 . S
C1086 H1073 0.930 . S
C1086 C1085 1.376 . S
C1086 C1087 1.388 . S
C1087 H1074 0.930 . S
C1087 C1086 1.388 . S
C1087 C1088 1.390 . S
C1088 C1087 1.390 . S
C1088 C1089 1.394 . S
C1088 C1094 1.465 . S
C1089 C1084 1.399 . S
C1089 C1088 1.394 . S
C1089 C1090 1.516 . S
C1090 C1089 1.516 . S
C1090 C1091 1.502 . S
C1090 C1092 1.561 . S
C1090 C1093 1.526 . S
C1091 H1075 0.959 . S
C1091 H1076 0.959 . S
C1091 H1077 0.961 . S
C1091 C1090 1.502 . S
C1092 H1078 0.960 . S
C1092 H1079 0.961 . S
C1092 H1080 0.959 . S
C1092 C1090 1.561 . S
C1093 C1090 1.526 . S
C1093 C1094 1.396 . S
C1093 C1098 1.390 . S
C1094 C1088 1.465 . S
C1094 C1093 1.396 . S
C1094 C1095 1.399 . S
C1095 H1081 0.929 . S
C1095 C1094 1.399 . S
C1095 C1096 1.385 . S
C1096 H1082 0.931 . S
C1096 C1095 1.385 . S
C1096 C1097 1.389 . S
C1097 C1096 1.389 . S
C1097 C1098 1.387 . S
C1098 H1083 0.930 . S
C1098 C1093 1.390 . S
C1098 C1097 1.387 . S
H1099 C1111 0.930 . S
H1100 C1113 0.930 . S
H1101 C1114 0.930 . S
H1102 C1118 0.959 . S
H1103 C1118 0.959 . S
H1104 C1118 0.961 . S
H1105 C1119 0.960 . S
H1106 C1119 0.961 . S
H1107 C1119 0.959 . S
H1108 C1122 0.929 . S
H1109 C1123 0.931 . S
H1110 C1125 0.930 . S
C1111 H1099 0.930 . S
C1111 C1112 1.399 . S
C1111 C1116 1.399 . S
C1112 C1111 1.399 . S
C1112 C1113 1.376 . S
C1113 H1100 0.930 . S
C1113 C1112 1.376 . S
C1113 C1114 1.388 . S
C1114 H1101 0.930 . S
C1114 C1113 1.388 . S
C1114 C1115 1.390 . S
C1115 C1114 1.390 . S
C1115 C1116 1.394 . S
C1115 C1121 1.465 . S
C1116 C1111 1.399 . S
C1116 C1115 1.394 . S
C1116 C1117 1.516 . S
C1117 C1116 1.516 . S
C1117 C1118 1.502 . S
C1117 C1119 1.561 . S
C1117 C1120 1.526 . S
C1118 H1102 0.959 . S
C1118 H1103 0.959 . S
C1118 H1104 0.961 . S
C1118 C1117 1.502 . S
C1119 H1105 0.960 . S
C1119 H1106 0.961 . S
C1119 H1107 0.959 . S
C1119 C1117 1.561 . S
C1120 C1117 1.526 . S
C1120 C1121 1.396 . S
C1120 C1125 1.390 . S
C1121 C1115 1.465 . S
C1121 C1120 1.396 . S
C1121 C1122 1.399 . S
C1122 H1108 0.929 . S
C1122 C1121 1.399 . S
C1122 C1123 1.385 . S
C1123 H1109 0.931 . S
C1123 C1122 1.385 . S
C1123 C1124 1.389 . S
C1124 C1123 1.389 . S
C1124 C1125 1.387 . S
C1125 H1110 0.930 . S
C1125 C1120 1.390 . S
C1125 C1124 1.387 . S
H1126 C1138 0.930 . S
H1127 C1140 0.930 . S
H1128 C1141 0.930 . S
H1129 C1145 0.959 . S
H1130 C1145 0.959 . S
H1131 C1145 0.961 . S
H1132 C1146 0.960 . S
H1133 C1146 0.961 . S
H1134 C1146 0.959 . S
H1135 C1149 0.929 . S
H1136 C1150 0.931 . S
H1137 C1152 0.930 . S
C1138 H1126 0.930 . S
C1138 C1139 1.399 . S
C1138 C1143 1.399 . S
C1139 C1138 1.399 . S
C1139 C1140 1.376 . S
C1140 H1127 0.930 . S
C1140 C1139 1.376 . S
C1140 C1141 1.388 . S
C1141 H1128 0.930 . S
C1141 C1140 1.388 . S
C1141 C1142 1.390 . S
C1142 C1141 1.390 . S
C1142 C1143 1.394 . S
C1142 C1148 1.465 . S
C1143 C1138 1.399 . S
C1143 C1142 1.394 . S
C1143 C1144 1.516 . S
C1144 C1143 1.516 . S
C1144 C1145 1.502 . S
C1144 C1146 1.561 . S
C1144 C1147 1.526 . S
C1145 H1129 0.959 . S
C1145 H1130 0.959 . S
C1145 H1131 0.961 . S
C1145 C1144 1.502 . S
C1146 H1132 0.960 . S
C1146 H1133 0.961 . S
C1146 H1134 0.959 . S
C1146 C1144 1.561 . S
C1147 C1144 1.526 . S
C1147 C1148 1.396 . S
C1147 C1152 1.390 . S
C1148 C1142 1.465 . S
C1148 C1147 1.396 . S
C1148 C1149 1.399 . S
C1149 H1135 0.929 . S
C1149 C1148 1.399 . S
C1149 C1150 1.385 . S
C1150 H1136 0.931 . S
C1150 C1149 1.385 . S
C1150 C1151 1.389 . S
C1151 C1150 1.389 . S
C1151 C1152 1.387 . S
C1152 H1137 0.930 . S
C1152 C1147 1.390 . S
C1152 C1151 1.387 . S
H1153 C1165 0.930 . S
H1154 C1167 0.930 . S
H1155 C1168 0.930 . S
H1156 C1172 0.959 . S
H1157 C1172 0.959 . S
H1158 C1172 0.961 . S
H1159 C1173 0.960 . S
H1160 C1173 0.961 . S
H1161 C1173 0.959 . S
H1162 C1176 0.929 . S
H1163 C1177 0.931 . S
H1164 C1179 0.930 . S
C1165 H1153 0.930 . S
C1165 C1166 1.399 . S
C1165 C1170 1.399 . S
C1166 C1165 1.399 . S
C1166 C1167 1.376 . S
C1167 H1154 0.930 . S
C1167 C1166 1.376 . S
C1167 C1168 1.388 . S
C1168 H1155 0.930 . S
C1168 C1167 1.388 . S
C1168 C1169 1.390 . S
C1169 C1168 1.390 . S
C1169 C1170 1.394 . S
C1169 C1175 1.465 . S
C1170 C1165 1.399 . S
C1170 C1169 1.394 . S
C1170 C1171 1.516 . S
C1171 C1170 1.516 . S
C1171 C1172 1.502 . S
C1171 C1173 1.561 . S
C1171 C1174 1.526 . S
C1172 H1156 0.959 . S
C1172 H1157 0.959 . S
C1172 H1158 0.961 . S
C1172 C1171 1.502 . S
C1173 H1159 0.960 . S
C1173 H1160 0.961 . S
C1173 H1161 0.959 . S
C1173 C1171 1.561 . S
C1174 C1171 1.526 . S
C1174 C1175 1.396 . S
C1174 C1179 1.390 . S
C1175 C1169 1.465 . S
C1175 C1174 1.396 . S
C1175 C1176 1.399 . S
C1176 H1162 0.929 . S
C1176 C1175 1.399 . S
C1176 C1177 1.385 . S
C1177 H1163 0.931 . S
C1177 C1176 1.385 . S
C1177 C1178 1.389 . S
C1178 C1177 1.389 . S
C1178 C1179 1.387 . S
C1179 H1164 0.930 . S
C1179 C1174 1.390 . S
C1179 C1178 1.387 . S
H1180 C1192 0.930 . S
H1181 C1194 0.930 . S
H1182 C1195 0.930 . S
H1183 C1199 0.959 . S
H1184 C1199 0.959 . S
H1185 C1199 0.961 . S
H1186 C1200 0.960 . S
H1187 C1200 0.961 . S
H1188 C1200 0.959 . S
H1189 C1203 0.929 . S
H1190 C1204 0.931 . S
H1191 C1206 0.930 . S
C1192 H1180 0.930 . S
C1192 C1193 1.399 . S
C1192 C1197 1.399 . S
C1193 C1192 1.399 . S
C1193 C1194 1.376 . S
C1194 H1181 0.930 . S
C1194 C1193 1.376 . S
C1194 C1195 1.388 . S
C1195 H1182 0.930 . S
C1195 C1194 1.388 . S
C1195 C1196 1.390 . S
C1196 C1195 1.390 . S
C1196 C1197 1.394 . S
C1196 C1202 1.465 . S
C1197 C1192 1.399 . S
C1197 C1196 1.394 . S
C1197 C1198 1.516 . S
C1198 C1197 1.516 . S
C1198 C1199 1.502 . S
C1198 C1200 1.561 . S
C1198 C1201 1.526 . S
C1199 H1183 0.959 . S
C1199 H1184 0.959 . S
C1199 H1185 0.961 . S
C1199 C1198 1.502 . S
C1200 H1186 0.960 . S
C1200 H1187 0.961 . S
C1200 H1188 0.959 . S
C1200 C1198 1.561 . S
C1201 C1198 1.526 . S
C1201 C1202 1.396 . S
C1201 C1206 1.390 . S
C1202 C1196 1.465 . S
C1202 C1201 1.396 . S
C1202 C1203 1.399 . S
C1203 H1189 0.929 . S
C1203 C1202 1.399 . S
C1203 C1204 1.385 . S
C1204 H1190 0.931 . S
C1204 C1203 1.385 . S
C1204 C1205 1.389 . S
C1205 C1204 1.389 . S
C1205 C1206 1.387 . S
C1206 H1191 0.930 . S
C1206 C1201 1.390 . S
C1206 C1205 1.387 . S
H1207 C1219 0.930 . S
H1208 C1221 0.930 . S
H1209 C1222 0.930 . S
H1210 C1226 0.959 . S
H1211 C1226 0.959 . S
H1212 C1226 0.961 . S
H1213 C1227 0.960 . S
H1214 C1227 0.961 . S
H1215 C1227 0.959 1_455 S
H1216 C1230 0.927 1_455 S
H1217 C1231 0.933 1_455 S
H1218 C1233 0.930 . S
C1219 H1207 0.930 . S
C1219 C1220 1.399 . S
C1219 C1224 1.399 . S
C1220 C1219 1.399 . S
C1220 C1221 1.376 1_655 S
C1221 H1208 0.930 . S
C1221 C1220 1.376 1_455 S
C1221 C1222 1.388 . S
C1222 H1209 0.930 . S
C1222 C1221 1.388 . S
C1222 C1223 1.390 1_455 S
C1223 C1222 1.390 1_655 S
C1223 C1224 1.394 . S
C1223 C1229 1.465 . S
C1224 C1219 1.399 . S
C1224 C1223 1.394 . S
C1224 C1225 1.516 . S
C1225 C1224 1.516 . S
C1225 C1226 1.502 . S
C1225 C1227 1.561 . S
C1225 C1228 1.526 . S
C1226 H1210 0.959 . S
C1226 H1211 0.959 . S
C1226 H1212 0.961 . S
C1226 C1225 1.502 . S
C1227 H1213 0.960 . S
C1227 H1214 0.961 . S
C1227 H1215 0.959 1_655 S
C1227 C1225 1.561 . S
C1228 C1225 1.526 . S
C1228 C1229 1.396 . S
C1228 C1233 1.390 . S
C1229 C1223 1.465 . S
C1229 C1228 1.396 . S
C1229 C1230 1.398 . S
C1230 H1216 0.927 1_655 S
C1230 C1229 1.398 . S
C1230 C1231 1.388 . S
C1231 H1217 0.933 1_655 S
C1231 C1230 1.388 . S
C1231 C1232 1.389 . S
C1232 C1231 1.389 . S
C1232 C1233 1.387 . S
C1233 H1218 0.930 . S
C1233 C1228 1.390 . S
C1233 C1232 1.387 . S
H1234 C1246 0.930 . S
H1235 C1248 0.930 . S
H1236 C1249 0.930 . S
H1237 C1253 0.959 . S
H1238 C1253 0.959 . S
H1239 C1253 0.961 . S
H1240 C1254 0.960 . S
H1241 C1254 0.961 . S
H1242 C1254 0.959 . S
H1243 C1257 0.929 . S
H1244 C1258 0.931 . S
H1245 C1260 0.930 . S
C1246 H1234 0.930 . S
C1246 C1247 1.399 . S
C1246 C1251 1.399 . S
C1247 C1246 1.399 . S
C1247 C1248 1.376 . S
C1248 H1235 0.930 . S
C1248 C1247 1.376 . S
C1248 C1249 1.388 . S
C1249 H1236 0.930 . S
C1249 C1248 1.388 . S
C1249 C1250 1.390 . S
C1250 C1249 1.390 . S
C1250 C1251 1.394 . S
C1250 C1256 1.465 . S
C1251 C1246 1.399 . S
C1251 C1250 1.394 . S
C1251 C1252 1.516 . S
C1252 C1251 1.516 . S
C1252 C1253 1.502 . S
C1252 C1254 1.561 . S
C1252 C1255 1.526 . S
C1253 H1237 0.959 . S
C1253 H1238 0.959 . S
C1253 H1239 0.961 . S
C1253 C1252 1.502 . S
C1254 H1240 0.960 . S
C1254 H1241 0.961 . S
C1254 H1242 0.959 . S
C1254 C1252 1.561 . S
C1255 C1252 1.526 . S
C1255 C1256 1.396 . S
C1255 C1260 1.390 . S
C1256 C1250 1.465 . S
C1256 C1255 1.396 . S
C1256 C1257 1.399 . S
C1257 H1243 0.929 . S
C1257 C1256 1.399 . S
C1257 C1258 1.385 . S
C1258 H1244 0.931 . S
C1258 C1257 1.385 . S
C1258 C1259 1.389 . S
C1259 C1258 1.389 . S
C1259 C1260 1.387 . S
C1260 H1245 0.930 . S
C1260 C1255 1.390 . S
C1260 C1259 1.387 . S
H1261 C1273 0.930 . S
H1262 C1275 0.930 . S
H1263 C1276 0.930 . S
H1264 C1280 0.959 . S
H1265 C1280 0.959 . S
H1266 C1280 0.961 . S
H1267 C1281 0.960 . S
H1268 C1281 0.961 . S
H1269 C1281 0.959 . S
H1270 C1284 0.929 . S
H1271 C1285 0.931 . S
H1272 C1287 0.930 . S
C1273 H1261 0.930 . S
C1273 C1274 1.399 . S
C1273 C1278 1.399 . S
C1274 C1273 1.399 . S
C1274 C1275 1.376 . S
C1275 H1262 0.930 . S
C1275 C1274 1.376 . S
C1275 C1276 1.388 . S
C1276 H1263 0.930 . S
C1276 C1275 1.388 . S
C1276 C1277 1.390 . S
C1277 C1276 1.390 . S
C1277 C1278 1.394 . S
C1277 C1283 1.465 . S
C1278 C1273 1.399 . S
C1278 C1277 1.394 . S
C1278 C1279 1.516 . S
C1279 C1278 1.516 . S
C1279 C1280 1.502 . S
C1279 C1281 1.561 1_554 S
C1279 C1282 1.526 . S
C1280 H1264 0.959 . S
C1280 H1265 0.959 . S
C1280 H1266 0.961 . S
C1280 C1279 1.502 . S
C1281 H1267 0.960 . S
C1281 H1268 0.961 . S
C1281 H1269 0.959 . S
C1281 C1279 1.561 1_556 S
C1282 C1279 1.526 . S
C1282 C1283 1.396 . S
C1282 C1287 1.390 . S
C1283 C1277 1.465 . S
C1283 C1282 1.396 . S
C1283 C1284 1.399 . S
C1284 H1270 0.929 . S
C1284 C1283 1.399 . S
C1284 C1285 1.385 . S
C1285 H1271 0.931 . S
C1285 C1284 1.385 . S
C1285 C1286 1.389 . S
C1286 C1285 1.389 . S
C1286 C1287 1.387 . S
C1287 H1272 0.930 . S
C1287 C1282 1.390 . S
C1287 C1286 1.387 . S
H1288 C1300 0.930 . S
H1289 C1302 0.930 . S
H1290 C1303 0.930 . S
H1291 C1307 0.959 . S
H1292 C1307 0.959 . S
H1293 C1307 0.961 . S
H1294 C1308 0.960 . S
H1295 C1308 0.961 . S
H1296 C1308 0.959 . S
H1297 C1311 0.929 . S
H1298 C1312 0.931 . S
H1299 C1314 0.930 . S
C1300 H1288 0.930 . S
C1300 C1301 1.399 . S
C1300 C1305 1.399 . S
C1301 C1300 1.399 . S
C1301 C1302 1.376 . S
C1302 H1289 0.930 . S
C1302 C1301 1.376 . S
C1302 C1303 1.388 . S
C1303 H1290 0.930 . S
C1303 C1302 1.388 . S
C1303 C1304 1.390 . S
C1304 C1303 1.390 . S
C1304 C1305 1.394 . S
C1304 C1310 1.465 . S
C1305 C1300 1.399 . S
C1305 C1304 1.394 . S
C1305 C1306 1.516 . S
C1306 C1305 1.516 . S
C1306 C1307 1.502 . S
C1306 C1308 1.561 . S
C1306 C1309 1.526 . S
C1307 H1291 0.959 . S
C1307 H1292 0.959 . S
C1307 H1293 0.961 . S
C1307 C1306 1.502 . S
C1308 H1294 0.960 . S
C1308 H1295 0.961 . S
C1308 H1296 0.959 . S
C1308 C1306 1.561 . S
C1309 C1306 1.526 . S
C1309 C1310 1.396 . S
C1309 C1314 1.390 . S
C1310 C1304 1.465 . S
C1310 C1309 1.396 . S
C1310 C1311 1.399 . S
C1311 H1297 0.929 . S
C1311 C1310 1.399 . S
C1311 C1312 1.385 . S
C1312 H1298 0.931 . S
C1312 C1311 1.385 . S
C1312 C1313 1.389 . S
C1313 C1312 1.389 . S
C1313 C1314 1.387 . S
C1314 H1299 0.930 . S
C1314 C1309 1.390 . S
C1314 C1313 1.387 . S
H1315 C1327 0.930 . S
H1316 C1329 0.930 . S
H1317 C1330 0.930 . S
H1318 C1334 0.959 . S
H1319 C1334 0.959 . S
H1320 C1334 0.961 . S
H1321 C1335 0.960 . S
H1322 C1335 0.961 . S
H1323 C1335 0.959 . S
H1324 C1338 0.929 . S
H1325 C1339 0.931 . S
H1326 C1341 0.930 . S
C1327 H1315 0.930 . S
C1327 C1328 1.399 . S
C1327 C1332 1.399 . S
C1328 C1327 1.399 . S
C1328 C1329 1.376 . S
C1329 H1316 0.930 . S
C1329 C1328 1.376 . S
C1329 C1330 1.388 . S
C1330 H1317 0.930 . S
C1330 C1329 1.388 . S
C1330 C1331 1.390 . S
C1331 C1330 1.390 . S
C1331 C1332 1.394 . S
C1331 C1337 1.465 . S
C1332 C1327 1.399 . S
C1332 C1331 1.394 . S
C1332 C1333 1.516 . S
C1333 C1332 1.516 . S
C1333 C1334 1.502 . S
C1333 C1335 1.561 . S
C1333 C1336 1.526 . S
C1334 H1318 0.959 . S
C1334 H1319 0.959 . S
C1334 H1320 0.961 . S
C1334 C1333 1.502 . S
C1335 H1321 0.960 . S
C1335 H1322 0.961 . S
C1335 H1323 0.959 . S
C1335 C1333 1.561 . S
C1336 C1333 1.526 . S
C1336 C1337 1.396 . S
C1336 C1341 1.390 . S
C1337 C1331 1.465 . S
C1337 C1336 1.396 . S
C1337 C1338 1.399 . S
C1338 H1324 0.929 . S
C1338 C1337 1.399 . S
C1338 C1339 1.385 . S
C1339 H1325 0.931 . S
C1339 C1338 1.385 . S
C1339 C1340 1.389 . S
C1340 C1339 1.389 . S
C1340 C1341 1.387 . S
C1341 H1326 0.930 . S
C1341 C1336 1.390 . S
C1341 C1340 1.387 . S
H1342 C1354 0.930 . S
H1343 C1356 0.930 . S
H1344 C1357 0.930 . S
H1345 C1361 0.959 . S
H1346 C1361 0.959 . S
H1347 C1361 0.961 . S
H1348 C1362 0.960 . S
H1349 C1362 0.961 . S
H1350 C1362 0.959 . S
H1351 C1365 0.929 . S
H1352 C1366 0.931 . S
H1353 C1368 0.930 . S
C1354 H1342 0.930 . S
C1354 C1355 1.399 1_545 S
C1354 C1359 1.399 . S
C1355 C1354 1.399 1_565 S
C1355 C1356 1.376 . S
C1356 H1343 0.930 . S
C1356 C1355 1.376 . S
C1356 C1357 1.388 . S
C1357 H1344 0.930 . S
C1357 C1356 1.388 . S
C1357 C1358 1.390 . S
C1358 C1357 1.390 . S
C1358 C1359 1.394 1_565 S
C1358 C1364 1.484 . S
C1359 C1354 1.399 . S
C1359 C1358 1.394 1_545 S
C1359 C1360 1.516 . S
C1360 C1359 1.516 . S
C1360 C1361 1.502 . S
C1360 C1362 1.561 . S
C1360 C1363 1.526 . S
C1361 H1345 0.959 . S
C1361 H1346 0.959 . S
C1361 H1347 0.961 . S
C1361 C1360 1.502 . S
C1362 H1348 0.960 . S
C1362 H1349 0.961 . S
C1362 H1350 0.959 . S
C1362 C1360 1.561 . S
C1363 C1360 1.526 . S
C1363 C1364 1.363 1_545 S
C1363 C1368 1.390 . S
C1364 C1358 1.484 . S
C1364 C1363 1.363 1_565 S
C1364 C1365 1.408 . S
C1365 H1351 0.929 . S
C1365 C1364 1.408 . S
C1365 C1366 1.385 . S
C1366 H1352 0.931 . S
C1366 C1365 1.385 . S
C1366 C1367 1.389 1_565 S
C1367 C1366 1.389 1_545 S
C1367 C1368 1.387 . S
C1368 H1353 0.930 . S
C1368 C1363 1.390 . S
C1368 C1367 1.387 . S
H1369 C1381 0.930 . S
H1370 C1383 0.930 1_556 S
H1371 C1384 0.930 . S
H1372 C1388 0.959 . S
H1373 C1388 0.959 . S
H1374 C1388 0.961 . S
H1375 C1389 0.960 . S
H1376 C1389 0.961 . S
H1377 C1389 0.959 . S
H1378 C1392 0.929 . S
H1379 C1393 0.931 1_556 S
H1380 C1395 0.930 . S
C1381 H1369 0.930 . S
C1381 C1382 1.399 . S
C1381 C1386 1.399 . S
C1382 C1381 1.399 . S
C1382 C1383 1.376 . S
C1383 H1370 0.930 1_554 S
C1383 C1382 1.376 . S
C1383 C1384 1.388 1_554 S
C1384 H1371 0.930 . S
C1384 C1383 1.388 1_556 S
C1384 C1385 1.390 1_556 S
C1385 C1384 1.390 1_554 S
C1385 C1386 1.394 . S
C1385 C1391 1.465 . S
C1386 C1381 1.399 . S
C1386 C1385 1.394 . S
C1386 C1387 1.516 . S
C1387 C1386 1.516 . S
C1387 C1388 1.502 . S
C1387 C1389 1.561 . S
C1387 C1390 1.526 . S
C1388 H1372 0.959 . S
C1388 H1373 0.959 . S
C1388 H1374 0.961 . S
C1388 C1387 1.502 . S
C1389 H1375 0.960 . S
C1389 H1376 0.961 . S
C1389 H1377 0.959 . S
C1389 C1387 1.561 . S
C1390 C1387 1.526 . S
C1390 C1391 1.396 . S
C1390 C1395 1.390 . S
C1391 C1385 1.465 . S
C1391 C1390 1.396 . S
C1391 C1392 1.399 1_554 S
C1392 H1378 0.929 . S
C1392 C1391 1.399 1_556 S
C1392 C1393 1.385 1_556 S
C1393 H1379 0.931 1_554 S
C1393 C1392 1.385 1_554 S
C1393 C1394 1.389 . S
C1394 C1393 1.389 . S
C1394 C1395 1.387 . S
C1395 H1380 0.930 . S
C1395 C1390 1.390 . S
C1395 C1394 1.387 . S
H1396 C1408 0.930 . S
H1397 C1410 0.930 . S
H1398 C1411 0.930 . S
H1399 C1415 0.959 . S
H1400 C1415 0.959 . S
H1401 C1415 0.961 . S
H1402 C1416 0.960 . S
H1403 C1416 0.961 . S
H1404 C1416 0.959 . S
H1405 C1419 0.929 . S
H1406 C1420 0.931 . S
H1407 C1422 0.930 . S
C1408 H1396 0.930 . S
C1408 C1409 1.399 . S
C1408 C1413 1.399 . S
C1409 C1408 1.399 . S
C1409 C1410 1.376 . S
C1410 H1397 0.930 . S
C1410 C1409 1.376 . S
C1410 C1411 1.388 . S
C1411 H1398 0.930 . S
C1411 C1410 1.388 . S
C1411 C1412 1.390 . S
C1412 C1411 1.390 . S
C1412 C1413 1.394 . S
C1412 C1418 1.465 . S
C1413 C1408 1.399 . S
C1413 C1412 1.394 . S
C1413 C1414 1.516 . S
C1414 C1413 1.516 . S
C1414 C1415 1.502 . S
C1414 C1416 1.561 . S
C1414 C1417 1.526 . S
C1415 H1399 0.959 . S
C1415 H1400 0.959 . S
C1415 H1401 0.961 . S
C1415 C1414 1.502 . S
C1416 H1402 0.960 . S
C1416 H1403 0.961 . S
C1416 H1404 0.959 . S
C1416 C1414 1.561 . S
C1417 C1414 1.526 . S
C1417 C1418 1.396 . S
C1417 C1422 1.390 . S
C1418 C1412 1.465 . S
C1418 C1417 1.396 . S
C1418 C1419 1.399 . S
C1419 H1405 0.929 . S
C1419 C1418 1.399 . S
C1419 C1420 1.385 . S
C1420 H1406 0.931 . S
C1420 C1419 1.385 . S
C1420 C1421 1.389 . S
C1421 C1420 1.389 . S
C1421 C1422 1.387 . S
C1422 H1407 0.930 . S
C1422 C1417 1.390 . S
C1422 C1421 1.387 . S
H1423 C1435 0.930 . S
H1424 C1437 0.930 . S
H1425 C1438 0.930 . S
H1426 C1442 0.959 . S
H1427 C1442 0.959 . S
H1428 C1442 0.961 . S
H1429 C1443 0.960 . S
H1430 C1443 0.961 . S
H1431 C1443 0.959 . S
H1432 C1446 0.929 . S
H1433 C1447 0.931 . S
H1434 C1449 0.930 . S
C1435 H1423 0.930 . S
C1435 C1436 1.399 . S
C1435 C1440 1.399 . S
C1436 C1435 1.399 . S
C1436 C1437 1.376 . S
C1437 H1424 0.930 . S
C1437 C1436 1.376 . S
C1437 C1438 1.388 . S
C1438 H1425 0.930 . S
C1438 C1437 1.388 . S
C1438 C1439 1.390 . S
C1439 C1438 1.390 . S
C1439 C1440 1.394 . S
C1439 C1445 1.465 . S
C1440 C1435 1.399 . S
C1440 C1439 1.394 . S
C1440 C1441 1.516 . S
C1441 C1440 1.516 . S
C1441 C1442 1.502 . S
C1441 C1443 1.561 . S
C1441 C1444 1.526 . S
C1442 H1426 0.959 . S
C1442 H1427 0.959 . S
C1442 H1428 0.961 . S
C1442 C1441 1.502 . S
C1443 H1429 0.960 . S
C1443 H1430 0.961 . S
C1443 H1431 0.959 . S
C1443 C1441 1.561 . S
C1444 C1441 1.526 . S
C1444 C1445 1.396 . S
C1444 C1449 1.390 . S
C1445 C1439 1.465 . S
C1445 C1444 1.396 . S
C1445 C1446 1.399 . S
C1446 H1432 0.929 . S
C1446 C1445 1.399 . S
C1446 C1447 1.385 . S
C1447 H1433 0.931 . S
C1447 C1446 1.385 . S
C1447 C1448 1.389 . S
C1448 C1447 1.389 . S
C1448 C1449 1.387 . S
C1449 H1434 0.930 . S
C1449 C1444 1.390 . S
C1449 C1448 1.387 . S
H1450 C1462 0.930 . S
H1451 C1464 0.930 . S
H1452 C1465 0.930 . S
H1453 C1469 0.959 . S
H1454 C1469 0.959 . S
H1455 C1469 0.961 . S
H1456 C1470 0.960 . S
H1457 C1470 0.961 . S
H1458 C1470 0.959 . S
H1459 C1473 0.929 . S
H1460 C1474 0.931 . S
H1461 C1476 0.930 . S
C1462 H1450 0.930 . S
C1462 C1463 1.399 . S
C1462 C1467 1.399 . S
C1463 C1462 1.399 . S
C1463 C1464 1.376 . S
C1464 H1451 0.930 . S
C1464 C1463 1.376 . S
C1464 C1465 1.388 . S
C1465 H1452 0.930 . S
C1465 C1464 1.388 . S
C1465 C1466 1.390 . S
C1466 C1465 1.390 . S
C1466 C1467 1.394 . S
C1466 C1472 1.465 . S
C1467 C1462 1.399 . S
C1467 C1466 1.394 . S
C1467 C1468 1.516 . S
C1468 C1467 1.516 . S
C1468 C1469 1.502 . S
C1468 C1470 1.561 . S
C1468 C1471 1.526 . S
C1469 H1453 0.959 . S
C1469 H1454 0.959 . S
C1469 H1455 0.961 . S
C1469 C1468 1.502 . S
C1470 H1456 0.960 . S
C1470 H1457 0.961 . S
C1470 H1458 0.959 . S
C1470 C1468 1.561 . S
C1471 C1468 1.526 . S
C1471 C1472 1.396 . S
C1471 C1476 1.390 . S
C1472 C1466 1.465 . S
C1472 C1471 1.396 . S
C1472 C1473 1.399 . S
C1473 H1459 0.929 . S
C1473 C1472 1.399 . S
C1473 C1474 1.385 . S
C1474 H1460 0.931 . S
C1474 C1473 1.385 . S
C1474 C1475 1.389 . S
C1475 C1474 1.389 . S
C1475 C1476 1.387 . S
C1476 H1461 0.930 . S
C1476 C1471 1.390 . S
C1476 C1475 1.387 . S
H1477 C1489 0.930 . S
H1478 C1491 0.930 . S
H1479 C1492 0.930 . S
H1480 C1496 0.959 . S
H1481 C1496 0.959 . S
H1482 C1496 0.961 . S
H1483 C1497 0.960 . S
H1484 C1497 0.961 . S
H1485 C1497 0.959 . S
H1486 C1500 0.929 . S
H1487 C1501 0.931 . S
H1488 C1503 0.930 . S
C1489 H1477 0.930 . S
C1489 C1490 1.399 . S
C1489 C1494 1.399 . S
C1490 C1489 1.399 . S
C1490 C1491 1.376 . S
C1491 H1478 0.930 . S
C1491 C1490 1.376 . S
C1491 C1492 1.388 . S
C1492 H1479 0.930 . S
C1492 C1491 1.388 . S
C1492 C1493 1.390 . S
C1493 C1492 1.390 . S
C1493 C1494 1.394 . S
C1493 C1499 1.465 . S
C1494 C1489 1.399 . S
C1494 C1493 1.394 . S
C1494 C1495 1.516 . S
C1495 C1494 1.516 . S
C1495 C1496 1.502 . S
C1495 C1497 1.561 . S
C1495 C1498 1.526 . S
C1496 H1480 0.959 . S
C1496 H1481 0.959 . S
C1496 H1482 0.961 . S
C1496 C1495 1.502 . S
C1497 H1483 0.960 . S
C1497 H1484 0.961 . S
C1497 H1485 0.959 . S
C1497 C1495 1.561 . S
C1498 C1495 1.526 . S
C1498 C1499 1.396 . S
C1498 C1503 1.390 . S
C1499 C1493 1.465 . S
C1499 C1498 1.396 . S
C1499 C1500 1.399 . S
C1500 H1486 0.929 . S
C1500 C1499 1.399 . S
C1500 C1501 1.385 . S
C1501 H1487 0.931 . S
C1501 C1500 1.385 . S
C1501 C1502 1.389 . S
C1502 C1501 1.389 . S
C1502 C1503 1.387 . S
C1503 H1488 0.930 . S
C1503 C1498 1.390 . S
C1503 C1502 1.387 . S
H1504 C1516 0.930 . S
H1505 C1518 0.930 . S
H1506 C1519 0.930 . S
H1507 C1523 0.959 . S
H1508 C1523 0.959 . S
H1509 C1523 0.961 . S
H1510 C1524 0.960 . S
H1511 C1524 0.961 . S
H1512 C1524 0.959 . S
H1513 C1527 0.929 1_556 S
H1514 C1528 0.931 1_556 S
H1515 C1530 0.930 . S
C1516 H1504 0.930 . S
C1516 C1517 1.399 . S
C1516 C1521 1.399 . S
C1517 C1516 1.399 . S
C1517 C1518 1.376 . S
C1518 H1505 0.930 . S
C1518 C1517 1.376 . S
C1518 C1519 1.388 . S
C1519 H1506 0.930 . S
C1519 C1518 1.388 . S
C1519 C1520 1.390 . S
C1520 C1519 1.390 . S
C1520 C1521 1.394 . S
C1520 C1526 1.465 . S
C1521 C1516 1.399 . S
C1521 C1520 1.394 . S
C1521 C1522 1.516 . S
C1522 C1521 1.516 . S
C1522 C1523 1.502 . S
C1522 C1524 1.561 . S
C1522 C1525 1.526 . S
C1523 H1507 0.959 . S
C1523 H1508 0.959 . S
C1523 H1509 0.961 . S
C1523 C1522 1.502 . S
C1524 H1510 0.960 . S
C1524 H1511 0.961 . S
C1524 H1512 0.959 . S
C1524 C1522 1.561 . S
C1525 C1522 1.526 . S
C1525 C1526 1.396 . S
C1525 C1530 1.390 . S
C1526 C1520 1.465 . S
C1526 C1525 1.396 . S
C1526 C1527 1.399 . S
C1527 H1513 0.929 1_554 S
C1527 C1526 1.399 . S
C1527 C1528 1.385 . S
C1528 H1514 0.931 1_554 S
C1528 C1527 1.385 . S
C1528 C1529 1.389 . S
C1529 C1528 1.389 . S
C1529 C1530 1.387 . S
C1530 H1515 0.930 . S
C1530 C1525 1.390 . S
C1530 C1529 1.387 . S
H1531 C1543 0.930 . S
H1532 C1545 0.930 . S
H1533 C1546 0.930 . S
H1534 C1550 0.959 . S
H1535 C1550 0.959 . S
H1536 C1550 0.961 . S
H1537 C1551 0.960 . S
H1538 C1551 0.961 . S
H1539 C1551 0.959 . S
H1540 C1554 0.929 . S
H1541 C1555 0.931 . S
H1542 C1557 0.930 . S
C1543 H1531 0.930 . S
C1543 C1544 1.399 . S
C1543 C1548 1.399 . S
C1544 C1543 1.399 . S
C1544 C1545 1.376 . S
C1545 H1532 0.930 . S
C1545 C1544 1.376 . S
C1545 C1546 1.388 . S
C1546 H1533 0.930 . S
C1546 C1545 1.388 . S
C1546 C1547 1.390 . S
C1547 C1546 1.390 . S
C1547 C1548 1.394 . S
C1547 C1553 1.465 . S
C1548 C1543 1.399 . S
C1548 C1547 1.394 . S
C1548 C1549 1.516 . S
C1549 C1548 1.516 . S
C1549 C1550 1.502 . S
C1549 C1551 1.561 . S
C1549 C1552 1.526 . S
C1550 H1534 0.959 . S
C1550 H1535 0.959 . S
C1550 H1536 0.961 . S
C1550 C1549 1.502 . S
C1551 H1537 0.960 . S
C1551 H1538 0.961 . S
C1551 H1539 0.959 . S
C1551 C1549 1.561 . S
C1552 C1549 1.526 . S
C1552 C1553 1.396 . S
C1552 C1557 1.390 . S
C1553 C1547 1.465 . S
C1553 C1552 1.396 . S
C1553 C1554 1.399 . S
C1554 H1540 0.929 . S
C1554 C1553 1.399 . S
C1554 C1555 1.385 . S
C1555 H1541 0.931 . S
C1555 C1554 1.385 . S
C1555 C1556 1.389 . S
C1556 C1555 1.389 . S
C1556 C1557 1.387 . S
C1557 H1542 0.930 . S
C1557 C1552 1.390 . S
C1557 C1556 1.387 . S
H1558 C1570 0.930 . S
H1559 C1572 0.930 . S
H1560 C1573 0.930 . S
H1561 C1577 0.959 . S
H1562 C1577 0.959 . S
H1563 C1577 0.961 . S
H1564 C1578 0.960 . S
H1565 C1578 0.961 . S
H1566 C1578 0.959 . S
H1567 C1581 0.929 . S
H1568 C1582 0.931 . S
H1569 C1584 0.930 . S
C1570 H1558 0.930 . S
C1570 C1571 1.399 . S
C1570 C1575 1.399 . S
C1571 C1570 1.399 . S
C1571 C1572 1.376 . S
C1572 H1559 0.930 . S
C1572 C1571 1.376 . S
C1572 C1573 1.388 . S
C1573 H1560 0.930 . S
C1573 C1572 1.388 . S
C1573 C1574 1.390 . S
C1574 C1573 1.390 . S
C1574 C1575 1.394 . S
C1574 C1580 1.465 . S
C1575 C1570 1.399 . S
C1575 C1574 1.394 . S
C1575 C1576 1.516 . S
C1576 C1575 1.516 . S
C1576 C1577 1.502 . S
C1576 C1578 1.561 . S
C1576 C1579 1.526 . S
C1577 H1561 0.959 . S
C1577 H1562 0.959 . S
C1577 H1563 0.961 . S
C1577 C1576 1.502 . S
C1578 H1564 0.960 . S
C1578 H1565 0.961 . S
C1578 H1566 0.959 . S
C1578 C1576 1.561 . S
C1579 C1576 1.526 . S
C1579 C1580 1.396 . S
C1579 C1584 1.390 . S
C1580 C1574 1.465 . S
C1580 C1579 1.396 . S
C1580 C1581 1.399 . S
C1581 H1567 0.929 . S
C1581 C1580 1.399 . S
C1581 C1582 1.385 . S
C1582 H1568 0.931 . S
C1582 C1581 1.385 . S
C1582 C1583 1.389 . S
C1583 C1582 1.389 . S
C1583 C1584 1.387 . S
C1584 H1569 0.930 . S
C1584 C1579 1.390 . S
C1584 C1583 1.387 . S
H1585 C1597 0.930 . S
H1586 C1599 0.930 . S
H1587 C1600 0.930 . S
H1588 C1604 0.959 . S
H1589 C1604 0.959 . S
H1590 C1604 0.961 . S
H1591 C1605 0.960 . S
H1592 C1605 0.961 . S
H1593 C1605 0.959 . S
H1594 C1608 0.929 . S
H1595 C1609 0.931 . S
H1596 C1611 0.930 . S
C1597 H1585 0.930 . S
C1597 C1598 1.399 . S
C1597 C1602 1.399 . S
C1598 C1597 1.399 . S
C1598 C1599 1.376 . S
C1599 H1586 0.930 . S
C1599 C1598 1.376 . S
C1599 C1600 1.388 . S
C1600 H1587 0.930 . S
C1600 C1599 1.388 . S
C1600 C1601 1.390 . S
C1601 C1600 1.390 . S
C1601 C1602 1.394 . S
C1601 C1607 1.465 . S
C1602 C1597 1.399 . S
C1602 C1601 1.394 . S
C1602 C1603 1.516 . S
C1603 C1602 1.516 . S
C1603 C1604 1.502 . S
C1603 C1605 1.561 . S
C1603 C1606 1.526 . S
C1604 H1588 0.959 . S
C1604 H1589 0.959 . S
C1604 H1590 0.961 . S
C1604 C1603 1.502 . S
C1605 H1591 0.960 . S
C1605 H1592 0.961 . S
C1605 H1593 0.959 . S
C1605 C1603 1.561 . S
C1606 C1603 1.526 . S
C1606 C1607 1.396 . S
C1606 C1611 1.390 . S
C1607 C1601 1.465 . S
C1607 C1606 1.396 . S
C1607 C1608 1.399 . S
C1608 H1594 0.929 . S
C1608 C1607 1.399 . S
C1608 C1609 1.385 . S
C1609 H1595 0.931 . S
C1609 C1608 1.385 . S
C1609 C1610 1.389 . S
C1610 C1609 1.389 . S
C1610 C1611 1.387 . S
C1611 H1596 0.930 . S
C1611 C1606 1.390 . S
C1611 C1610 1.387 . S
H1612 C1624 0.930 . S
H1613 C1626 0.930 . S
H1614 C1627 0.930 . S
H1615 C1631 0.959 . S
H1616 C1631 0.959 . S
H1617 C1631 0.961 . S
H1618 C1632 0.960 . S
H1619 C1632 0.961 . S
H1620 C1632 0.959 . S
H1621 C1635 0.929 . S
H1622 C1636 0.931 . S
H1623 C1638 0.930 . S
C1624 H1612 0.930 . S
C1624 C1625 1.399 . S
C1624 C1629 1.399 . S
C1625 C1624 1.399 . S
C1625 C1626 1.376 . S
C1626 H1613 0.930 . S
C1626 C1625 1.376 . S
C1626 C1627 1.388 . S
C1627 H1614 0.930 . S
C1627 C1626 1.388 . S
C1627 C1628 1.390 . S
C1628 C1627 1.390 . S
C1628 C1629 1.394 . S
C1628 C1634 1.465 . S
C1629 C1624 1.399 . S
C1629 C1628 1.394 . S
C1629 C1630 1.516 . S
C1630 C1629 1.516 . S
C1630 C1631 1.502 . S
C1630 C1632 1.561 . S
C1630 C1633 1.526 . S
C1631 H1615 0.959 . S
C1631 H1616 0.959 . S
C1631 H1617 0.961 . S
C1631 C1630 1.502 . S
C1632 H1618 0.960 . S
C1632 H1619 0.961 . S
C1632 H1620 0.959 . S
C1632 C1630 1.561 . S
C1633 C1630 1.526 . S
C1633 C1634 1.396 . S
C1633 C1638 1.390 . S
C1634 C1628 1.465 . S
C1634 C1633 1.396 . S
C1634 C1635 1.399 . S
C1635 H1621 0.929 . S
C1635 C1634 1.399 . S
C1635 C1636 1.385 . S
C1636 H1622 0.931 . S
C1636 C1635 1.385 . S
C1636 C1637 1.389 . S
C1637 C1636 1.389 . S
C1637 C1638 1.387 . S
C1638 H1623 0.930 . S
C1638 C1633 1.390 . S
C1638 C1637 1.387 . S
H1639 C1651 0.930 1_556 S
H1640 C1653 0.930 . S
H1641 C1654 0.930 . S
H1642 C1658 0.959 . S
H1643 C1658 0.959 . S
H1644 C1658 0.961 . S
H1645 C1659 0.960 . S
H1646 C1659 0.961 . S
H1647 C1659 0.959 . S
H1648 C1662 0.929 . S
H1649 C1663 0.931 . S
H1650 C1665 0.930 1_556 S
C1651 H1639 0.930 1_554 S
C1651 C1652 1.399 . S
C1651 C1656 1.399 . S
C1652 C1651 1.399 . S
C1652 C1653 1.376 . S
C1653 H1640 0.930 . S
C1653 C1652 1.376 . S
C1653 C1654 1.388 . S
C1654 H1641 0.930 . S
C1654 C1653 1.388 . S
C1654 C1655 1.390 . S
C1655 C1654 1.390 . S
C1655 C1656 1.394 . S
C1655 C1661 1.465 . S
C1656 C1651 1.399 . S
C1656 C1655 1.394 . S
C1656 C1657 1.516 1_554 S
C1657 C1656 1.516 1_556 S
C1657 C1658 1.502 . S
C1657 C1659 1.561 . S
C1657 C1660 1.526 1_556 S
C1658 H1642 0.959 . S
C1658 H1643 0.959 . S
C1658 H1644 0.961 . S
C1658 C1657 1.502 . S
C1659 H1645 0.960 . S
C1659 H1646 0.961 . S
C1659 H1647 0.959 . S
C1659 C1657 1.561 . S
C1660 C1657 1.526 1_554 S
C1660 C1661 1.396 . S
C1660 C1665 1.390 . S
C1661 C1655 1.465 . S
C1661 C1660 1.396 . S
C1661 C1662 1.399 . S
C1662 H1648 0.929 . S
C1662 C1661 1.399 . S
C1662 C1663 1.385 . S
C1663 H1649 0.931 . S
C1663 C1662 1.385 . S
C1663 C1664 1.389 . S
C1664 C1663 1.389 . S
C1664 C1665 1.387 . S
C1665 H1650 0.930 1_554 S
C1665 C1660 1.390 . S
C1665 C1664 1.387 . S
H1666 C1678 0.930 . S
H1667 C1680 0.930 . S
H1668 C1681 0.930 . S
H1669 C1685 0.959 . S
H1670 C1685 0.959 . S
H1671 C1685 0.961 . S
H1672 C1686 0.960 . S
H1673 C1686 0.961 . S
H1674 C1686 0.959 . S
H1675 C1689 0.929 . S
H1676 C1690 0.931 . S
H1677 C1692 0.930 . S
C1678 H1666 0.930 . S
C1678 C1679 1.399 . S
C1678 C1683 1.399 . S
C1679 C1678 1.399 . S
C1679 C1680 1.376 . S
C1680 H1667 0.930 . S
C1680 C1679 1.376 . S
C1680 C1681 1.388 . S
C1681 H1668 0.930 . S
C1681 C1680 1.388 . S
C1681 C1682 1.390 . S
C1682 C1681 1.390 . S
C1682 C1683 1.394 . S
C1682 C1688 1.465 . S
C1683 C1678 1.399 . S
C1683 C1682 1.394 . S
C1683 C1684 1.516 . S
C1684 C1683 1.516 . S
C1684 C1685 1.502 . S
C1684 C1686 1.561 . S
C1684 C1687 1.526 . S
C1685 H1669 0.959 . S
C1685 H1670 0.959 . S
C1685 H1671 0.961 . S
C1685 C1684 1.502 . S
C1686 H1672 0.960 . S
C1686 H1673 0.961 . S
C1686 H1674 0.959 . S
C1686 C1684 1.561 . S
C1687 C1684 1.526 . S
C1687 C1688 1.396 . S
C1687 C1692 1.390 . S
C1688 C1682 1.465 . S
C1688 C1687 1.396 . S
C1688 C1689 1.399 . S
C1689 H1675 0.929 . S
C1689 C1688 1.399 . S
C1689 C1690 1.385 . S
C1690 H1676 0.931 . S
C1690 C1689 1.385 . S
C1690 C1691 1.389 . S
C1691 C1690 1.389 . S
C1691 C1692 1.387 . S
C1692 H1677 0.930 . S
C1692 C1687 1.390 . S
C1692 C1691 1.387 . S
H1693 C1705 0.930 . S
H1694 C1707 0.930 1_554 S
H1695 C1708 0.930 1_554 S
H1696 C1712 0.959 . S
H1697 C1712 0.959 . S
H1698 C1712 0.961 . S
H1699 C1713 0.960 . S
H1700 C1713 0.961 . S
H1701 C1713 0.959 . S
H1702 C1716 0.929 . S
H1703 C1717 0.931 . S
H1704 C1719 0.930 . S
C1705 H1693 0.930 . S
C1705 C1706 1.399 . S
C1705 C1710 1.399 . S
C1706 C1705 1.399 . S
C1706 C1707 1.376 . S
C1707 H1694 0.930 1_556 S
C1707 C1706 1.376 . S
C1707 C1708 1.388 . S
C1708 H1695 0.930 1_556 S
C1708 C1707 1.388 . S
C1708 C1709 1.390 . S
C1709 C1708 1.390 . S
C1709 C1710 1.394 . S
C1709 C1715 1.465 . S
C1710 C1705 1.399 . S
C1710 C1709 1.394 . S
C1710 C1711 1.516 . S
C1711 C1710 1.516 . S
C1711 C1712 1.502 . S
C1711 C1713 1.561 . S
C1711 C1714 1.526 . S
C1712 H1696 0.959 . S
C1712 H1697 0.959 . S
C1712 H1698 0.961 . S
C1712 C1711 1.502 . S
C1713 H1699 0.960 . S
C1713 H1700 0.961 . S
C1713 H1701 0.959 . S
C1713 C1711 1.561 . S
C1714 C1711 1.526 . S
C1714 C1715 1.396 . S
C1714 C1719 1.390 . S
C1715 C1709 1.465 . S
C1715 C1714 1.396 . S
C1715 C1716 1.399 . S
C1716 H1702 0.929 . S
C1716 C1715 1.399 . S
C1716 C1717 1.385 . S
C1717 H1703 0.931 . S
C1717 C1716 1.385 . S
C1717 C1718 1.389 . S
C1718 C1717 1.389 . S
C1718 C1719 1.387 . S
C1719 H1704 0.930 . S
C1719 C1714 1.390 . S
C1719 C1718 1.387 . S
H1720 C1732 0.930 . S
H1721 C1734 0.930 . S
H1722 C1735 0.930 . S
H1723 C1739 0.959 . S
H1724 C1739 0.959 . S
H1725 C1739 0.961 . S
H1726 C1740 0.960 . S
H1727 C1740 0.961 . S
H1728 C1740 0.959 . S
H1729 C1743 0.929 . S
H1730 C1744 0.931 . S
H1731 C1746 0.930 . S
C1732 H1720 0.930 . S
C1732 C1733 1.399 . S
C1732 C1737 1.399 . S
C1733 C1732 1.399 . S
C1733 C1734 1.376 . S
C1734 H1721 0.930 . S
C1734 C1733 1.376 . S
C1734 C1735 1.388 . S
C1735 H1722 0.930 . S
C1735 C1734 1.388 . S
C1735 C1736 1.390 . S
C1736 C1735 1.390 . S
C1736 C1737 1.394 . S
C1736 C1742 1.465 . S
C1737 C1732 1.399 . S
C1737 C1736 1.394 . S
C1737 C1738 1.516 . S
C1738 C1737 1.516 . S
C1738 C1739 1.502 . S
C1738 C1740 1.561 . S
C1738 C1741 1.526 . S
C1739 H1723 0.959 . S
C1739 H1724 0.959 . S
C1739 H1725 0.961 . S
C1739 C1738 1.502 . S
C1740 H1726 0.960 . S
C1740 H1727 0.961 . S
C1740 H1728 0.959 . S
C1740 C1738 1.561 . S
C1741 C1738 1.526 . S
C1741 C1742 1.396 . S
C1741 C1746 1.390 . S
C1742 C1736 1.465 . S
C1742 C1741 1.396 . S
C1742 C1743 1.399 . S
C1743 H1729 0.929 . S
C1743 C1742 1.399 . S
C1743 C1744 1.385 . S
C1744 H1730 0.931 . S
C1744 C1743 1.385 . S
C1744 C1745 1.389 . S
C1745 C1744 1.389 . S
C1745 C1746 1.387 . S
C1746 H1731 0.930 . S
C1746 C1741 1.390 . S
C1746 C1745 1.387 . S
H1747 C1759 0.930 . S
H1748 C1761 0.930 . S
H1749 C1762 0.930 . S
H1750 C1766 0.959 . S
H1751 C1766 0.959 . S
H1752 C1766 0.961 . S
H1753 C1767 0.960 . S
H1754 C1767 0.961 . S
H1755 C1767 0.959 . S
H1756 C1770 0.929 . S
H1757 C1771 0.931 . S
H1758 C1773 0.930 . S
C1759 H1747 0.930 . S
C1759 C1760 1.399 . S
C1759 C1764 1.399 . S
C1760 C1759 1.399 . S
C1760 C1761 1.376 . S
C1761 H1748 0.930 . S
C1761 C1760 1.376 . S
C1761 C1762 1.388 . S
C1762 H1749 0.930 . S
C1762 C1761 1.388 . S
C1762 C1763 1.390 . S
C1763 C1762 1.390 . S
C1763 C1764 1.394 . S
C1763 C1769 1.465 . S
C1764 C1759 1.399 . S
C1764 C1763 1.394 . S
C1764 C1765 1.516 . S
C1765 C1764 1.516 . S
C1765 C1766 1.502 . S
C1765 C1767 1.561 . S
C1765 C1768 1.526 . S
C1766 H1750 0.959 . S
C1766 H1751 0.959 . S
C1766 H1752 0.961 . S
C1766 C1765 1.502 . S
C1767 H1753 0.960 . S
C1767 H1754 0.961 . S
C1767 H1755 0.959 . S
C1767 C1765 1.561 . S
C1768 C1765 1.526 . S
C1768 C1769 1.396 . S
C1768 C1773 1.390 . S
C1769 C1763 1.465 . S
C1769 C1768 1.396 . S
C1769 C1770 1.399 . S
C1770 H1756 0.929 . S
C1770 C1769 1.399 . S
C1770 C1771 1.385 . S
C1771 H1757 0.931 . S
C1771 C1770 1.385 . S
C1771 C1772 1.389 . S
C1772 C1771 1.389 . S
C1772 C1773 1.387 . S
C1773 H1758 0.930 . S
C1773 C1768 1.390 . S
C1773 C1772 1.387 . S
H1774 C1786 0.930 . S
H1775 C1788 0.930 1_554 S
H1776 C1789 0.930 . S
H1777 C1793 0.959 . S
H1778 C1793 0.959 . S
H1779 C1793 0.961 . S
H1780 C1794 0.960 . S
H1781 C1794 0.961 . S
H1782 C1794 0.959 . S
H1783 C1797 0.929 . S
H1784 C1798 0.931 1_554 S
H1785 C1800 0.930 . S
C1786 H1774 0.930 . S
C1786 C1787 1.399 . S
C1786 C1791 1.399 . S
C1787 C1786 1.399 . S
C1787 C1788 1.376 . S
C1788 H1775 0.930 1_556 S
C1788 C1787 1.376 . S
C1788 C1789 1.388 1_556 S
C1789 H1776 0.930 . S
C1789 C1788 1.388 1_554 S
C1789 C1790 1.390 1_554 S
C1790 C1789 1.390 1_556 S
C1790 C1791 1.394 . S
C1790 C1796 1.465 . S
C1791 C1786 1.399 . S
C1791 C1790 1.394 . S
C1791 C1792 1.516 . S
C1792 C1791 1.516 . S
C1792 C1793 1.502 . S
C1792 C1794 1.561 . S
C1792 C1795 1.526 . S
C1793 H1777 0.959 . S
C1793 H1778 0.959 . S
C1793 H1779 0.961 . S
C1793 C1792 1.502 . S
C1794 H1780 0.960 . S
C1794 H1781 0.961 . S
C1794 H1782 0.959 . S
C1794 C1792 1.561 . S
C1795 C1792 1.526 . S
C1795 C1796 1.396 . S
C1795 C1800 1.390 . S
C1796 C1790 1.465 . S
C1796 C1795 1.396 . S
C1796 C1797 1.399 1_556 S
C1797 H1783 0.929 . S
C1797 C1796 1.399 1_554 S
C1797 C1798 1.385 1_554 S
C1798 H1784 0.931 1_556 S
C1798 C1797 1.385 1_556 S
C1798 C1799 1.389 . S
C1799 C1798 1.389 . S
C1799 C1800 1.387 . S
C1800 H1785 0.930 . S
C1800 C1795 1.390 . S
C1800 C1799 1.387 . S
H1801 C1813 0.930 . S
H1802 C1815 0.930 . S
H1803 C1816 0.930 . S
H1804 C1820 0.959 . S
H1805 C1820 0.959 . S
H1806 C1820 0.961 . S
H1807 C1821 0.960 . S
H1808 C1821 0.961 . S
H1809 C1821 0.959 . S
H1810 C1824 0.929 . S
H1811 C1825 0.931 . S
H1812 C1827 0.930 . S
C1813 H1801 0.930 . S
C1813 C1814 1.399 . S
C1813 C1818 1.399 . S
C1814 C1813 1.399 . S
C1814 C1815 1.376 . S
C1815 H1802 0.930 . S
C1815 C1814 1.376 . S
C1815 C1816 1.388 . S
C1816 H1803 0.930 . S
C1816 C1815 1.388 . S
C1816 C1817 1.390 . S
C1817 C1816 1.390 . S
C1817 C1818 1.394 . S
C1817 C1823 1.465 . S
C1818 C1813 1.399 . S
C1818 C1817 1.394 . S
C1818 C1819 1.516 . S
C1819 C1818 1.516 . S
C1819 C1820 1.502 . S
C1819 C1821 1.561 . S
C1819 C1822 1.526 . S
C1820 H1804 0.959 . S
C1820 H1805 0.959 . S
C1820 H1806 0.961 . S
C1820 C1819 1.502 . S
C1821 H1807 0.960 . S
C1821 H1808 0.961 . S
C1821 H1809 0.959 . S
C1821 C1819 1.561 . S
C1822 C1819 1.526 . S
C1822 C1823 1.396 . S
C1822 C1827 1.390 . S
C1823 C1817 1.465 . S
C1823 C1822 1.396 . S
C1823 C1824 1.399 . S
C1824 H1810 0.929 . S
C1824 C1823 1.399 . S
C1824 C1825 1.385 . S
C1825 H1811 0.931 . S
C1825 C1824 1.385 . S
C1825 C1826 1.389 . S
C1826 C1825 1.389 . S
C1826 C1827 1.387 . S
C1827 H1812 0.930 . S
C1827 C1822 1.390 . S
C1827 C1826 1.387 . S
H1828 C1840 0.930 . S
H1829 C1842 0.930 . S
H1830 C1843 0.930 . S
H1831 C1847 0.959 . S
H1832 C1847 0.959 . S
H1833 C1847 0.961 . S
H1834 C1848 0.960 . S
H1835 C1848 0.961 . S
H1836 C1848 0.959 . S
H1837 C1851 0.929 . S
H1838 C1852 0.931 . S
H1839 C1854 0.930 . S
C1840 H1828 0.930 . S
C1840 C1841 1.399 . S
C1840 C1845 1.399 . S
C1841 C1840 1.399 . S
C1841 C1842 1.376 . S
C1842 H1829 0.930 . S
C1842 C1841 1.376 . S
C1842 C1843 1.388 . S
C1843 H1830 0.930 . S
C1843 C1842 1.388 . S
C1843 C1844 1.390 . S
C1844 C1843 1.390 . S
C1844 C1845 1.394 . S
C1844 C1850 1.465 . S
C1845 C1840 1.399 . S
C1845 C1844 1.394 . S
C1845 C1846 1.516 . S
C1846 C1845 1.516 . S
C1846 C1847 1.502 . S
C1846 C1848 1.561 . S
C1846 C1849 1.526 . S
C1847 H1831 0.959 . S
C1847 H1832 0.959 . S
C1847 H1833 0.961 . S
C1847 C1846 1.502 . S
C1848 H1834 0.960 . S
C1848 H1835 0.961 . S
C1848 H1836 0.959 . S
C1848 C1846 1.561 . S
C1849 C1846 1.526 . S
C1849 C1850 1.396 . S
C1849 C1854 1.390 . S
C1850 C1844 1.465 . S
C1850 C1849 1.396 . S
C1850 C1851 1.399 . S
C1851 H1837 0.929 . S
C1851 C1850 1.399 . S
C1851 C1852 1.385 . S
C1852 H1838 0.931 . S
C1852 C1851 1.385 . S
C1852 C1853 1.389 . S
C1853 C1852 1.389 . S
C1853 C1854 1.387 . S
C1854 H1839 0.930 . S
C1854 C1849 1.390 . S
C1854 C1853 1.387 . S
H1855 C1867 0.930 . S
H1856 C1869 0.930 . S
H1857 C1870 0.930 . S
H1858 C1874 0.959 . S
H1859 C1874 0.959 . S
H1860 C1874 0.961 . S
H1861 C1875 0.960 . S
H1862 C1875 0.961 . S
H1863 C1875 0.959 . S
H1864 C1878 0.929 1_554 S
H1865 C1879 0.931 1_554 S
H1866 C1881 0.930 . S
C1867 H1855 0.930 . S
C1867 C1868 1.399 . S
C1867 C1872 1.399 . S
C1868 C1867 1.399 . S
C1868 C1869 1.376 . S
C1869 H1856 0.930 . S
C1869 C1868 1.376 . S
C1869 C1870 1.388 . S
C1870 H1857 0.930 . S
C1870 C1869 1.388 . S
C1870 C1871 1.390 . S
C1871 C1870 1.390 . S
C1871 C1872 1.394 . S
C1871 C1877 1.465 . S
C1872 C1867 1.399 . S
C1872 C1871 1.394 . S
C1872 C1873 1.516 . S
C1873 C1872 1.516 . S
C1873 C1874 1.502 . S
C1873 C1875 1.561 . S
C1873 C1876 1.526 . S
C1874 H1858 0.959 . S
C1874 H1859 0.959 . S
C1874 H1860 0.961 . S
C1874 C1873 1.502 . S
C1875 H1861 0.960 . S
C1875 H1862 0.961 . S
C1875 H1863 0.959 . S
C1875 C1873 1.561 . S
C1876 C1873 1.526 . S
C1876 C1877 1.396 . S
C1876 C1881 1.390 . S
C1877 C1871 1.465 . S
C1877 C1876 1.396 . S
C1877 C1878 1.399 . S
C1878 H1864 0.929 1_556 S
C1878 C1877 1.399 . S
C1878 C1879 1.385 . S
C1879 H1865 0.931 1_556 S
C1879 C1878 1.385 . S
C1879 C1880 1.389 . S
C1880 C1879 1.389 . S
C1880 C1881 1.387 . S
C1881 H1866 0.930 . S
C1881 C1876 1.390 . S
C1881 C1880 1.387 . S
H1882 C1894 0.930 . S
H1883 C1896 0.930 . S
H1884 C1897 0.930 . S
H1885 C1901 0.959 . S
H1886 C1901 0.959 . S
H1887 C1901 0.961 . S
H1888 C1902 0.960 . S
H1889 C1902 0.961 . S
H1890 C1902 0.959 . S
H1891 C1905 0.929 . S
H1892 C1906 0.931 . S
H1893 C1908 0.930 . S
C1894 H1882 0.930 . S
C1894 C1895 1.399 . S
C1894 C1899 1.399 . S
C1895 C1894 1.399 . S
C1895 C1896 1.376 . S
C1896 H1883 0.930 . S
C1896 C1895 1.376 . S
C1896 C1897 1.388 . S
C1897 H1884 0.930 . S
C1897 C1896 1.388 . S
C1897 C1898 1.390 . S
C1898 C1897 1.390 . S
C1898 C1899 1.394 . S
C1898 C1904 1.465 . S
C1899 C1894 1.399 . S
C1899 C1898 1.394 . S
C1899 C1900 1.516 . S
C1900 C1899 1.516 . S
C1900 C1901 1.502 . S
C1900 C1902 1.561 . S
C1900 C1903 1.526 . S
C1901 H1885 0.959 . S
C1901 H1886 0.959 . S
C1901 H1887 0.961 . S
C1901 C1900 1.502 . S
C1902 H1888 0.960 . S
C1902 H1889 0.961 . S
C1902 H1890 0.959 . S
C1902 C1900 1.561 . S
C1903 C1900 1.526 . S
C1903 C1904 1.396 . S
C1903 C1908 1.390 . S
C1904 C1898 1.465 . S
C1904 C1903 1.396 . S
C1904 C1905 1.399 . S
C1905 H1891 0.929 . S
C1905 C1904 1.399 . S
C1905 C1906 1.385 . S
C1906 H1892 0.931 . S
C1906 C1905 1.385 . S
C1906 C1907 1.389 . S
C1907 C1906 1.389 . S
C1907 C1908 1.387 . S
C1908 H1893 0.930 . S
C1908 C1903 1.390 . S
C1908 C1907 1.387 . S
H1909 C1921 0.930 . S
H1910 C1923 0.930 . S
H1911 C1924 0.930 . S
H1912 C1928 0.959 . S
H1913 C1928 0.959 1_556 S
H1914 C1928 0.961 1_556 S
H1915 C1929 0.960 . S
H1916 C1929 0.961 . S
H1917 C1929 0.959 1_554 S
H1918 C1932 0.929 . S
H1919 C1933 0.931 . S
H1920 C1935 0.930 . S
C1921 H1909 0.930 . S
C1921 C1922 1.399 . S
C1921 C1926 1.399 . S
C1922 C1921 1.399 . S
C1922 C1923 1.376 . S
C1923 H1910 0.930 . S
C1923 C1922 1.376 . S
C1923 C1924 1.388 . S
C1924 H1911 0.930 . S
C1924 C1923 1.388 . S
C1924 C1925 1.390 . S
C1925 C1924 1.390 . S
C1925 C1926 1.394 . S
C1925 C1931 1.465 . S
C1926 C1921 1.399 . S
C1926 C1925 1.394 . S
C1926 C1927 1.516 . S
C1927 C1926 1.516 . S
C1927 C1928 1.502 . S
C1927 C1929 1.561 1_554 S
C1927 C1930 1.526 . S
C1928 H1912 0.959 . S
C1928 H1913 0.959 1_554 S
C1928 H1914 0.961 1_554 S
C1928 C1927 1.502 . S
C1929 H1915 0.960 . S
C1929 H1916 0.961 . S
C1929 H1917 0.959 1_556 S
C1929 C1927 1.561 1_556 S
C1930 C1927 1.526 . S
C1930 C1931 1.396 . S
C1930 C1935 1.390 . S
C1931 C1925 1.465 . S
C1931 C1930 1.396 . S
C1931 C1932 1.399 . S
C1932 H1918 0.929 . S
C1932 C1931 1.399 . S
C1932 C1933 1.385 . S
C1933 H1919 0.931 . S
C1933 C1932 1.385 . S
C1933 C1934 1.389 . S
C1934 C1933 1.389 . S
C1934 C1935 1.387 . S
C1935 H1920 0.930 . S
C1935 C1930 1.390 . S
C1935 C1934 1.387 . S
C653 C19 1.814 . S
C665 C55 1.645 . S
C680 C98 1.624 . S
C692 C50 1.573 . S
C707 C135 1.713 . S
C719 C99 1.785 . S
C734 C18 1.563 . S
C746 C130 1.635 . S
C761 C9 1.598 . S
C773 C379 1.571 . S
C788 C290 1.774 . S
C800 C46 1.700 . S
C815 C89 1.628 . S
C827 C419 1.601 . S
C842 C126 1.645 . S
C854 C530 1.813 . S
C869 C329 1.605 . S
C881 C59 1.638 . S
C896 C486 1.657 . S
C908 C90 1.815 . S
C923 C569 1.588 . S
C935 C139 1.643 . S
C950 C10 1.775 . S
C962 C446 1.732 . S
C977 C15 0.368 . S
C989 C335 0.373 . S
C1004 C489 1.791 . S
C1016 C169 1.775 . S
C1031 C206 0.382 . S
C1043 C566 0.364 . S
C1058 C449 1.774 . S
C1070 C249 1.798 . S
C1085 C86 0.388 . S
C1097 C286 0.410 . S
C1112 C378 1.776 . S
C1124 C178 1.781 . S
C1139 C258 1.773 . S
C1151 C418 1.786 . S
C1166 C209 1.604 . S
C1178 C459 1.639 . S
C1193 C366 1.726 . S
C1205 C210 1.772 . S
C1220 C455 1.661 . S
C1232 C299 1.803 . S
C1247 C218 1.543 . S
C1259 C170 1.635 . S
C1274 C375 1.663 . S
C1286 C339 1.802 . S
C1301 C538 1.543 . S
C1313 C450 1.636 . S
C1328 C255 1.645 . S
C1340 C219 1.811 . S
C1355 C370 1.636 . S
C1367 C578 1.555 . S
C1382 C526 0.365 . S
C1394 C6 0.373 . S
C1409 C95 0.420 . S
C1421 C575 0.416 . S
C1436 C498 1.798 . S
C1448 C58 1.781 . S
C1463 C295 0.367 . S
C1475 C215 0.371 . S
C1490 C129 1.786 . S
C1502 C409 1.780 . S
C1517 C495 1.717 . S
C1529 C539 1.783 . S
C1544 C298 1.624 . S
C1556 C490 1.573 . S
C1571 C259 1.570 . S
C1583 C289 1.601 . S
C1598 C179 1.644 . S
C1610 C529 1.576 . S
C1625 C499 1.583 . S
C1637 C609 1.621 . S
C1652 C606 0.411 . S
C1664 C326 0.418 . S
C1679 C49 1.776 . S
C1691 C369 1.796 . S
C1706 C330 1.789 . S
C1718 C246 1.725 . S
C1733 C338 1.617 . S
C1745 C410 1.571 . S
C1760 C618 1.625 . S
C1772 C250 1.573 . S
C1787 C535 0.370 . S
C1799 C615 0.375 . S
C1814 C458 1.775 . S
C1826 C138 1.784 . S
C1841 C415 1.659 . S
C1853 C579 1.803 . S
C1868 C406 1.717 . S
C1880 C610 1.772 . S
C1895 C166 1.643 . S
C1907 C570 1.803 . S
C1922 C619 1.814 . S
C1934 C175 1.647 . S
