# Generated by pormake.
# Topology vcj, (7)-cn, num edge types: 1
# Building blocks:
#     Node 0, Type 0, BuildingBlock: HICVOG_clean_sbu_0, # of connection points: 7
#     Node 1, Type 0, BuildingBlock: HICVOG_clean_sbu_0, # of connection points: 7
#     Node 2, Type 0, BuildingBlock: HICVOG_clean_sbu_0, # of connection points: 7
#     Node 3, Type 0, BuildingBlock: HICVOG_clean_sbu_0, # of connection points: 7
#     Node 4, Type 0, BuildingBlock: HICVOG_clean_sbu_0, # of connection points: 7
#     Node 5, Type 0, BuildingBlock: HICVOG_clean_sbu_0, # of connection points: 7
#     Node 6, Type 0, BuildingBlock: HICVOG_clean_sbu_0, # of connection points: 7
#     Node 7, Type 0, BuildingBlock: HICVOG_clean_sbu_0, # of connection points: 7
#     Edge 8, Type (0, 0), BuildingBlock: AJUNOK_clean_linker_0, # of connection points: 2
#     Edge 9, Type (0, 0), BuildingBlock: AJUNOK_clean_linker_0, # of connection points: 2
#     Edge 10, Type (0, 0), BuildingBlock: AJUNOK_clean_linker_0, # of connection points: 2
#     Edge 11, Type (0, 0), BuildingBlock: AJUNOK_clean_linker_0, # of connection points: 2
#     Edge 12, Type (0, 0), BuildingBlock: AJUNOK_clean_linker_0, # of connection points: 2
#     Edge 13, Type (0, 0), BuildingBlock: AJUNOK_clean_linker_0, # of connection points: 2
#     Edge 14, Type (0, 0), BuildingBlock: AJUNOK_clean_linker_0, # of connection points: 2
#     Edge 15, Type (0, 0), BuildingBlock: AJUNOK_clean_linker_0, # of connection points: 2
#     Edge 16, Type (0, 0), BuildingBlock: AJUNOK_clean_linker_0, # of connection points: 2
#     Edge 17, Type (0, 0), BuildingBlock: AJUNOK_clean_linker_0, # of connection points: 2
#     Edge 18, Type (0, 0), BuildingBlock: AJUNOK_clean_linker_0, # of connection points: 2
#     Edge 19, Type (0, 0), BuildingBlock: AJUNOK_clean_linker_0, # of connection points: 2
#     Edge 20, Type (0, 0), BuildingBlock: AJUNOK_clean_linker_0, # of connection points: 2
#     Edge 21, Type (0, 0), BuildingBlock: AJUNOK_clean_linker_0, # of connection points: 2
#     Edge 22, Type (0, 0), BuildingBlock: AJUNOK_clean_linker_0, # of connection points: 2
#     Edge 23, Type (0, 0), BuildingBlock: AJUNOK_clean_linker_0, # of connection points: 2
#     Edge 24, Type (0, 0), BuildingBlock: AJUNOK_clean_linker_0, # of connection points: 2
#     Edge 25, Type (0, 0), BuildingBlock: AJUNOK_clean_linker_0, # of connection points: 2
#     Edge 26, Type (0, 0), BuildingBlock: AJUNOK_clean_linker_0, # of connection points: 2
#     Edge 27, Type (0, 0), BuildingBlock: AJUNOK_clean_linker_0, # of connection points: 2
#     Edge 28, Type (0, 0), BuildingBlock: AJUNOK_clean_linker_0, # of connection points: 2
#     Edge 29, Type (0, 0), BuildingBlock: AJUNOK_clean_linker_0, # of connection points: 2
#     Edge 30, Type (0, 0), BuildingBlock: AJUNOK_clean_linker_0, # of connection points: 2
#     Edge 31, Type (0, 0), BuildingBlock: AJUNOK_clean_linker_0, # of connection points: 2
#     Edge 32, Type (0, 0), BuildingBlock: AJUNOK_clean_linker_0, # of connection points: 2
#     Edge 33, Type (0, 0), BuildingBlock: AJUNOK_clean_linker_0, # of connection points: 2
#     Edge 34, Type (0, 0), BuildingBlock: AJUNOK_clean_linker_0, # of connection points: 2
#     Edge 35, Type (0, 0), BuildingBlock: AJUNOK_clean_linker_0, # of connection points: 2
# Relax obj value: 0.127
# Max RMSD: 0.196
# Mean RMSD: 0.196
data_MOF--net-vcj--node1-HICVOG_clean_sbu_0--edge1-AJUNOK_clean_linker_0
_symmetry_space_group_name_H-M    P1
_symmetry_Int_Tables_number       1
_symmetry_cell_setting            triclinic
loop_
_symmetry_equiv_pos_as_xyz
'x, y, z'
_cell_length_a     27.595414
_cell_length_b     34.32518
_cell_length_c     16.572327
_cell_angle_alpha  90.288999
_cell_angle_beta   90.051365
_cell_angle_gamma 89.836899
loop_
_atom_site_label
_atom_site_type_symbol
_atom_site_fract_x
_atom_site_fract_y
_atom_site_fract_z
_atom_type_partial_charge
Zn0 Zn 0.33568 0.43814 0.27543 0.0
C1 C 0.41813 0.49419 0.11683 0.0
N2 N 0.37932 0.51789 0.11607 0.0
C3 C 0.34485 0.49697 0.15282 0.0
N4 N 0.362 0.46212 0.17735 0.0
N5 N 0.40751 0.45934 0.15206 0.0
C6 C 0.52602 0.41736 0.22627 0.0
O7 O 0.4937 0.41786 0.28442 0.0
O8 O 0.26187 0.43832 0.27206 0.0
Zn9 Zn 0.43806 0.40777 0.13988 0.0
N10 N 0.35403 0.47213 0.36501 0.0
C11 C 0.41155 0.51349 0.42983 0.0
C12 C 0.39932 0.48756 0.36776 0.0
C13 C 0.32076 0.48129 0.42263 0.0
N14 N 0.37796 0.52307 0.48664 0.0
C15 C 0.33277 0.50733 0.4851 0.0
O16 O 0.42013 0.36798 0.22424 0.0
C17 C 0.39194 0.35954 0.28213 0.0
O18 O 0.35899 0.38322 0.30486 0.0
H19 H 0.42548 0.48019 0.32156 0.0
H20 H 0.28464 0.4695 0.41866 0.0
C21 C 0.42389 0.34727 1.01183 0.0
C22 C 0.4043 0.33373 0.93788 0.0
C23 C 0.36763 0.39549 0.91773 0.0
C24 C 0.38603 0.40847 0.99113 0.0
N25 N 0.41503 0.38482 0.03619 0.0
N26 N 0.3772 0.35865 0.89289 0.0
H27 H 0.44578 0.32833 0.04913 0.0
C28 C 0.23821 0.41787 0.32227 0.0
O29 O 0.26236 0.39505 0.37156 0.0
O30 O 0.51146 0.4133 0.15362 0.0
H31 H 0.3777 0.43767 1.01109 0.0
H32 H 0.44733 0.52623 0.4323 0.0
H33 H 0.34548 0.41446 0.88097 0.0
Zn34 Zn 0.16492 0.60627 0.77429 0.0
C35 C 0.08484 0.55232 0.60862 0.0
N36 N 0.12402 0.52923 0.60266 0.0
C37 C 0.15783 0.54904 0.64429 0.0
N38 N 0.13997 0.58265 0.67498 0.0
N39 N 0.09456 0.58569 0.64977 0.0
C40 C 0.97229 0.63208 0.69875 0.0
O41 O 1.0003 0.63263 0.76286 0.0
O42 O 0.23839 0.61003 0.7728 0.0
Zn43 Zn 0.0652 0.63691 0.62969 0.0
N44 N 0.14905 0.57089 0.86242 0.0
C45 C 0.0945 0.52639 0.9243 0.0
C46 C 0.10492 0.55341 0.86392 0.0
C47 C 0.18286 0.56274 0.91988 0.0
N48 N 0.12858 0.51795 0.98099 0.0
C49 C 0.1725 0.53584 0.98104 0.0
O50 O 0.08027 0.67774 0.7158 0.0
C51 C 0.10587 0.68437 0.77844 0.0
O52 O 0.13707 0.65973 0.8032 0.0
H53 H 0.07832 0.56 0.81794 0.0
H54 H 0.21815 0.57606 0.91698 0.0
C55 C 0.08452 0.69441 0.50169 0.0
C56 C 0.10586 0.70661 0.42862 0.0
C57 C 0.13408 0.64226 0.40546 0.0
C58 C 0.11332 0.63031 0.47768 0.0
N59 N 0.08906 0.65637 0.52503 0.0
N60 N 0.13019 0.68003 0.38295 0.0
H61 H 0.06574 0.71502 0.54027 0.0
C62 C 0.25935 0.6311 0.82568 0.0
O63 O 0.23245 0.6518 0.87534 0.0
O64 O 0.99213 0.63267 0.62944 0.0
H65 H 0.11743 0.60046 0.49601 0.0
H66 H 0.0597 0.51197 0.92564 0.0
H67 H 0.15369 0.62173 0.36791 0.0
Zn68 Zn 0.94216 0.14101 0.92232 0.0
C69 C 0.84972 0.0516 0.90336 0.0
N70 N 0.88347 0.03063 0.942 0.0
C71 C 0.92233 0.05413 0.94363 0.0
N72 N 0.91244 0.08904 0.90751 0.0
N73 N 0.86736 0.08632 0.87982 0.0
C74 C 0.74211 0.12824 0.73087 0.0
O75 O 0.76622 0.14865 0.67746 0.0
O76 O 0.01627 0.13717 0.90916 0.0
Zn77 Zn 0.83998 0.11213 0.7848 0.0
N78 N 0.91832 0.16189 1.02729 0.0
C79 C 0.87167 0.14854 0.14519 0.0
C80 C 0.89026 0.13705 0.0709 0.0
C81 C 0.92611 0.19913 0.05421 0.0
N82 N 0.88032 0.18504 0.17264 0.0
C83 C 0.90666 0.21101 0.12937 0.0
O84 O 0.86148 0.16708 0.76142 0.0
C85 C 0.89435 0.19069 0.7834 0.0
O86 O 0.92358 0.18232 0.84017 0.0
H87 H 0.88271 0.10808 0.0491 0.0
H88 H 0.94716 0.21906 1.01805 0.0
C89 C 0.82546 0.06298 0.64862 0.0
C90 C 0.83728 0.04316 0.57693 0.0
C91 C 0.9188 0.06332 0.59232 0.0
C92 C 0.9067 0.08278 0.664 0.0
N93 N 0.86012 0.08236 0.69048 0.0
N94 N 0.88381 0.04421 0.54998 0.0
H95 H 0.78855 0.06384 0.67002 0.0
C96 C 0.03163 0.13704 0.83659 0.0
O97 O 0.99978 0.13816 0.7778 0.0
O98 O 0.76577 0.11089 0.78626 0.0
H99 H 0.93392 0.09862 0.69747 0.0
H100 H 0.85016 0.12866 0.18065 0.0
H101 H 0.95565 0.06375 0.57014 0.0
Zn102 Zn 0.67198 0.94573 0.27956 0.0
C103 C 0.58843 0.99406 0.44874 0.0
N104 N 0.62704 1.01715 0.45923 0.0
C105 C 0.66212 0.99915 0.41694 0.0
N106 N 0.64494 0.96684 0.37996 0.0
N107 N 0.5993 0.96226 0.4031 0.0
C108 C 0.47595 0.91615 0.35454 0.0
O109 O 0.50108 0.92144 0.28819 0.0
O110 O 0.74542 0.94586 0.27715 0.0
Zn111 Zn 0.57144 0.90937 0.41154 0.0
N112 N 0.65389 0.9811 0.193 0.0
C113 C 0.60109 0.0283 0.13493 0.0
C114 C 0.61121 1.00094 0.1949 0.0
C115 C 0.68632 0.98694 0.13246 0.0
N116 N 0.63423 0.03497 0.07589 0.0
C117 C 0.67662 1.01467 0.0724 0.0
O118 O 0.58428 0.87423 0.31554 0.0
C119 C 0.61426 0.86832 0.25851 0.0
O120 O 0.64898 0.89178 0.24488 0.0
H121 H 0.58566 0.99604 0.24323 0.0
H122 H 0.72023 0.97115 0.13288 0.0
C123 C 0.584 0.84985 0.54216 0.0
C124 C 0.6133 0.83028 0.59941 0.0
C125 C 0.67638 0.87546 0.57593 0.0
C126 C 0.64826 0.89378 0.51777 0.0
N127 N 0.60226 0.88167 0.50285 0.0
N128 N 0.65853 0.84404 0.61459 0.0
H129 H 0.5485 0.83885 0.5264 0.0
C130 C 0.77624 0.92825 0.32079 0.0
O131 O 0.76108 0.90772 0.38248 0.0
O132 O 0.49865 0.91156 0.42076 0.0
H133 H 0.66393 0.91666 0.48266 0.0
H134 H 0.56752 0.04463 0.13617 0.0
H135 H 0.71294 0.88518 0.58802 0.0
Zn136 Zn 0.56419 0.63801 0.92399 0.0
C137 C 0.66071 0.55062 0.9081 0.0
N138 N 0.62716 0.52914 0.94536 0.0
C139 C 0.58764 0.55208 0.9447 0.0
N140 N 0.59684 0.58709 0.90968 0.0
N141 N 0.64239 0.58517 0.8844 0.0
C142 C 0.76152 0.62703 0.72709 0.0
O143 O 0.73526 0.63969 0.66639 0.0
O144 O 0.49136 0.63217 0.92682 0.0
Zn145 Zn 0.66672 0.60963 0.78755 0.0
N146 N 0.5887 0.66077 1.02524 0.0
C147 C 0.6364 0.65097 0.14353 0.0
C148 C 0.61386 0.6364 0.07462 0.0
C149 C 0.58488 0.6996 0.04319 0.0
N150 N 0.63331 0.68954 0.16061 0.0
C151 C 0.60808 0.71446 0.11274 0.0
O152 O 0.64005 0.66273 0.76282 0.0
C153 C 0.60565 0.68613 0.77946 0.0
O154 O 0.57567 0.67881 0.83578 0.0
H155 H 0.61727 0.60584 0.06023 0.0
H156 H 0.56544 0.71877 1.00275 0.0
C157 C 0.67998 0.55793 0.65091 0.0
C158 C 0.66589 0.54063 0.57749 0.0
C159 C 0.58534 0.56198 0.6001 0.0
C160 C 0.59978 0.58 0.67196 0.0
N161 N 0.64689 0.57802 0.69554 0.0
N162 N 0.61881 0.54327 0.55379 0.0
H163 H 0.71742 0.55708 0.67024 0.0
C164 C 0.46951 0.62123 0.86303 0.0
O165 O 0.49544 0.61131 0.79972 0.0
O166 O 0.74006 0.61284 0.7882 0.0
H167 H 0.574 0.59644 0.70758 0.0
H168 H 0.65674 0.63183 0.18275 0.0
H169 H 0.54804 0.56373 0.58027 0.0
Zn170 Zn 0.93575 0.41343 0.42824 0.0
C171 C 0.83749 0.49716 0.41161 0.0
N172 N 0.87004 0.51885 0.45218 0.0
C173 C 0.91089 0.49766 0.44703 0.0
N174 N 0.90332 0.46343 0.40785 0.0
N175 N 0.8577 0.46406 0.38302 0.0
C176 C 0.73072 0.42455 0.31751 0.0
O177 O 0.7444 0.40882 0.386 0.0
O178 O 0.00848 0.41929 0.42674 0.0
Zn179 Zn 0.83617 0.44098 0.28107 0.0
N180 N 0.91482 0.39347 0.53424 0.0
C181 C 0.87954 0.40937 0.66156 0.0
C182 C 0.89429 0.42012 0.58468 0.0
C183 C 0.91964 0.35545 0.5576 0.0
N184 N 0.88483 0.3719 0.68511 0.0
C185 C 0.904 0.34424 0.63541 0.0
O186 O 0.86381 0.38715 0.25543 0.0
C187 C 0.89581 0.36368 0.28231 0.0
O188 O 0.92152 0.37209 0.34382 0.0
H189 H 0.88904 0.44957 0.56539 0.0
H190 H 0.93583 0.33446 0.51678 0.0
C191 C 0.82335 0.48303 0.13438 0.0
C192 C 0.8337 0.51113 0.07553 0.0
C193 C 0.90937 0.52287 0.139 0.0
C194 C 0.89861 0.49516 0.19785 0.0
N195 N 0.85558 0.47604 0.19486 0.0
N196 N 0.87646 0.53066 0.08003 0.0
H197 H 0.78903 0.468 0.134 0.0
C198 C 0.02847 0.4285 0.36043 0.0
O199 O 1.00096 0.43597 0.29761 0.0
O200 O 0.7626 0.43886 0.27115 0.0
H201 H 0.92387 0.48952 0.24636 0.0
H202 H 0.86364 0.43063 0.70213 0.0
H203 H 0.94324 0.53864 0.14116 0.0
Zn204 Zn 0.17109 0.93699 0.27495 0.0
C205 C 0.09152 0.99485 0.11851 0.0
N206 N 0.13103 1.01758 0.118 0.0
C207 C 0.16494 0.99563 0.15373 0.0
N208 N 0.14704 0.96082 0.17624 0.0
N209 N 0.10131 0.95937 0.15142 0.0
C210 C 0.98076 0.91984 0.2311 0.0
O211 O 0.01321 0.91598 0.28856 0.0
O212 O 0.24443 0.93375 0.27489 0.0
Zn213 Zn 0.06679 0.90953 0.1386 0.0
N214 N 0.15223 0.97129 0.36433 0.0
C215 C 0.09419 1.01351 0.42612 0.0
C216 C 0.10721 0.98749 0.36459 0.0
C217 C 0.18446 0.97981 0.42407 0.0
N218 N 0.12662 1.02224 0.4853 0.0
C219 C 0.17141 1.00561 0.48658 0.0
O220 O 0.08431 0.86702 0.21965 0.0
C221 C 0.11327 0.85917 0.27724 0.0
O222 O 0.14585 0.88309 0.29936 0.0
H223 H 0.08185 0.98066 0.31682 0.0
H224 H 0.22051 0.96761 0.42201 0.0
C225 C 0.07777 0.85017 1.00784 0.0
C226 C 0.0914 0.83808 0.92915 0.0
C227 C 0.11352 0.9031 0.89883 0.0
C228 C 0.10105 0.91474 0.97653 0.0
N229 N 0.08217 0.88861 1.02944 0.0
N230 N 0.10835 0.8653 0.87705 0.0
H231 H 0.06387 0.82944 0.05095 0.0
C232 C 0.26525 0.91316 0.32848 0.0
O233 O 0.23835 0.89347 0.37925 0.0
O234 O 0.99468 0.91857 0.15776 0.0
H235 H 0.10652 0.94465 0.99404 0.0
H236 H 0.05865 0.0269 0.42643 0.0
H237 H 0.12776 0.92392 0.85625 0.0
Zn238 Zn 0.43696 0.1341 0.63474 0.0
C239 C 0.34323 0.0459 0.65147 0.0
N240 N 0.3763 0.02594 0.60837 0.0
C241 C 0.41523 0.04922 0.61075 0.0
N242 N 0.40611 0.08289 0.65156 0.0
N243 N 0.36122 0.07995 0.67948 0.0
C244 C 0.23828 0.13245 0.76079 0.0
O245 O 0.25849 0.16081 0.72003 0.0
O246 O 0.51041 0.12884 0.63325 0.0
Zn247 Zn 0.33845 0.10307 0.78094 0.0
N248 N 0.41331 0.15586 0.53115 0.0
C249 C 0.37296 0.14171 0.40708 0.0
C250 C 0.39014 0.13004 0.48208 0.0
C251 C 0.41837 0.19399 0.50831 0.0
N252 N 0.37884 0.17914 0.38377 0.0
C253 C 0.40076 0.20597 0.43203 0.0
O254 O 0.36541 0.15663 0.80906 0.0
C255 C 0.39721 0.18082 0.78519 0.0
O256 O 0.42311 0.17407 0.72299 0.0
H257 H 0.38465 0.10048 0.50087 0.0
H258 H 0.43634 0.21446 0.54811 0.0
C259 C 0.32602 0.06163 0.92821 0.0
C260 C 0.33772 0.03504 0.98955 0.0
C261 C 0.41368 1.02365 0.92668 0.0
C262 C 0.40179 0.05011 0.86588 0.0
N263 N 0.35803 0.06835 0.86751 0.0
N264 N 0.38125 1.01636 0.98649 0.0
H265 H 0.29103 0.0759 0.92714 0.0
C266 C 0.53183 0.11687 0.6966 0.0
O267 O 0.50555 0.10649 0.75893 0.0
O268 O 0.26476 0.10519 0.78809 0.0
H269 H 0.42689 0.05564 0.8172 0.0
H270 H 0.35494 0.12114 0.3676 0.0
H271 H 0.44818 1.00861 0.9257 0.0
C272 C 0.26541 0.47623 0.096 0.0
C273 C 0.29338 0.50513 0.13447 0.0
C274 C 0.22422 0.48614 0.05037 0.0
C275 C 0.20991 0.52525 0.04144 0.0
H276 H 0.27767 0.44621 0.09527 0.0
H277 H 0.2054 0.46336 1.01761 0.0
S278 S 0.26574 0.61078 0.1418 0.0
N279 N 0.30019 0.57367 0.1691 0.0
N280 N 0.22275 0.59225 0.08393 0.0
C281 C 0.23511 0.55391 0.08521 0.0
C282 C 0.2768 0.54382 0.13172 0.0
C283 C 0.22438 0.50158 0.62386 0.0
C284 C 0.20967 0.54074 0.63007 0.0
C285 C 0.2665 0.49107 0.58182 0.0
C286 C 0.29559 0.51939 0.54477 0.0
H287 H 0.20107 0.47865 0.64601 0.0
H288 H 0.27479 0.4604 0.57413 0.0
S289 S 0.27522 0.6261 0.54844 0.0
N290 N 0.22901 0.60809 0.59918 0.0
N291 N 0.30921 0.58835 0.52271 0.0
C292 C 0.28366 0.55883 0.5564 0.0
C293 C 0.24037 0.56954 0.59847 0.0
C294 C 0.7699 0.07311 0.95731 0.0
C295 C 0.79795 0.04393 0.91961 0.0
C296 C 0.72838 0.06361 1.00211 0.0
C297 C 0.71388 1.02462 1.01135 0.0
H298 H 0.78241 0.103 0.95842 0.0
H299 H 0.70967 0.08662 0.03454 0.0
S300 S 0.76959 0.93856 0.9118 0.0
N301 N 0.80435 0.97537 0.88488 0.0
N302 N 0.72642 0.95749 0.96893 0.0
C303 C 0.739 0.99572 0.9678 0.0
C304 C 0.78097 1.00543 0.92184 0.0
C305 C 0.7492 1.02028 0.40719 0.0
C306 C 0.71181 1.00156 0.44921 0.0
C307 C 0.79236 0.03092 0.4472 0.0
C308 C 0.7988 1.02324 0.53009 0.0
H309 H 0.74385 0.02891 0.34503 0.0
H310 H 0.81914 0.0477 0.41475 0.0
S311 S 0.71352 0.97128 0.66418 0.0
N312 N 0.68516 0.97418 0.57675 0.0
N313 N 0.76698 0.99131 0.64925 0.0
C314 C 0.76333 1.0015 0.57022 0.0
C315 C 0.71948 0.99156 0.5305 0.0
C316 C 0.73993 0.57148 0.96475 0.0
C317 C 0.71254 0.54297 0.92407 0.0
C318 C 0.78133 0.56124 1.00943 0.0
C319 C 0.79667 0.52222 1.0148 0.0
H320 H 0.72686 0.60123 0.96843 0.0
H321 H 0.7993 0.58357 0.04478 0.0
S322 S 0.74246 0.43794 0.90751 0.0
N323 N 0.70722 0.47511 0.88344 0.0
N324 N 0.78523 0.45593 0.9666 0.0
C325 C 0.77212 0.49411 0.96852 0.0
C326 C 0.73008 0.50452 0.92313 0.0
C327 C 0.77541 0.48261 0.51276 0.0
C328 C 0.7867 0.4991 0.43761 0.0
C329 C 0.73425 0.49434 0.55571 0.0
C330 C 0.70252 0.52246 0.5242 0.0
H331 H 0.80071 0.46293 0.54166 0.0
H332 H 0.72863 0.48296 0.61584 0.0
S333 S 0.71215 0.56985 0.32429 0.0
N334 N 0.76086 0.54184 0.32978 0.0
N335 N 0.68189 0.56298 0.4091 0.0
C336 C 0.71093 0.53638 0.44571 0.0
C337 C 0.75358 0.52497 0.4027 0.0
C338 C 0.28914 0.98545 0.06425 0.0
C339 C 0.30148 0.02474 0.05195 0.0
C340 C 0.24722 0.97536 0.10749 0.0
C341 C 0.21678 1.00428 0.14055 0.0
H342 H 0.30956 0.96254 0.03447 0.0
H343 H 0.23621 0.94509 0.10803 0.0
S344 S 0.23961 0.11066 0.14131 0.0
N345 N 0.28483 0.09212 0.08825 0.0
N346 N 0.20635 0.0732 0.16958 0.0
C347 C 0.232 0.04326 0.13653 0.0
C348 C 0.27427 0.05352 0.0921 0.0
C349 C 0.26146 0.06627 0.6047 0.0
C350 C 0.29128 0.03754 0.63948 0.0
C351 C 0.21975 0.05596 0.56074 0.0
C352 C 0.20713 1.01662 0.54947 0.0
H353 H 0.27301 0.0964 0.60412 0.0
H354 H 0.19983 0.07861 0.5296 0.0
S355 S 0.26704 0.93151 0.64374 0.0
N356 N 0.3007 0.96902 0.67124 0.0
N357 N 0.22261 0.94963 0.58849 0.0
C358 C 0.23369 0.98816 0.59122 0.0
C359 C 0.27571 0.99867 0.63636 0.0
C360 C 0.47711 0.5466 0.08225 0.0
C361 C 0.46384 0.50686 0.07653 0.0
C362 C 0.51592 0.56209 0.03762 0.0
C363 C 0.54243 0.53859 0.98406 0.0
H364 H 0.45721 0.56606 0.12193 0.0
H365 H 0.52579 0.59223 0.04684 0.0
S366 S 0.52128 0.4337 0.9415 0.0
N367 N 0.48018 0.44532 1.00972 0.0
N368 N 0.55209 0.47401 0.92557 0.0
C369 C 0.5293 0.49909 0.97694 0.0
C370 C 0.49033 0.48331 1.02306 0.0
C371 C 0.99893 0.51491 0.44742 0.0
C372 C 0.95554 0.50964 0.49009 0.0
C373 C 0.04014 0.53052 0.48553 0.0
C374 C 0.0391 0.54211 0.56724 0.0
H375 H 1.00071 0.5078 0.38377 0.0
H376 H 0.07323 0.53335 0.45089 0.0
S377 S 0.93562 0.53105 0.70724 0.0
N378 N 0.91427 0.51662 0.61896 0.0
N379 N 0.99254 0.54362 0.6912 0.0
C380 C 0.99619 0.53649 0.61073 0.0
C381 C 0.95411 0.52107 0.57183 0.0
C382 C 0.01604 0.98494 0.03315 0.0
C383 C 0.04576 1.00896 0.08047 0.0
C384 C 0.9778 1.00062 0.98729 0.0
C385 C 0.96706 0.04098 0.98715 0.0
H386 H 0.02269 0.95404 0.02957 0.0
H387 H 0.95622 0.98067 0.95144 0.0
S388 S 0.02957 0.11543 0.11218 0.0
N389 N 0.05919 0.07468 0.1308 0.0
N390 N 0.98683 0.10342 0.04716 0.0
C391 C 0.99535 0.06492 0.03712 0.0
C392 C 0.03455 0.04908 0.08323 0.0
C393 C 0.50264 0.03032 0.61055 0.0
C394 C 0.46009 0.03834 0.5672 0.0
C395 C 0.54317 1.01355 0.57236 0.0
C396 C 0.54225 1.00329 0.48984 0.0
H397 H 0.5042 0.03608 0.67479 0.0
H398 H 0.57581 1.00894 0.60753 0.0
S399 S 0.44031 1.02026 0.3488 0.0
N400 N 0.41941 0.03489 0.43729 0.0
N401 N 0.49637 1.00516 0.36508 0.0
C402 C 0.50001 1.01133 0.44586 0.0
C403 C 0.45867 0.02819 0.48478 0.0
C404 C 0.42177 0.25117 0.78829 0.0
C405 C 0.40353 0.21851 0.82934 0.0
C406 C 0.42455 0.28784 0.82587 0.0
C407 C 0.41047 0.29335 0.90673 0.0
H408 H 0.43214 0.24883 0.72541 0.0
H409 H 0.43648 0.31247 0.79045 0.0
S410 S 0.36382 0.21706 0.04356 0.0
N411 N 0.37355 0.19387 0.95744 0.0
N412 N 0.37965 0.26279 1.028 0.0
C413 C 0.39437 0.26073 0.94989 0.0
C414 C 0.39065 0.22337 0.91121 0.0
C415 C 0.15034 0.80488 0.35762 0.0
C416 C 0.10919 0.82126 0.32028 0.0
C417 C 0.14825 0.76849 0.39584 0.0
C418 C 0.1047 0.74748 0.40037 0.0
H419 H 0.18492 0.81969 0.35509 0.0
H420 H 0.18128 0.75625 0.42059 0.0
S421 S 0.98601 0.77791 0.3169 0.0
N422 N 0.02299 0.81382 0.29304 0.0
N423 N 0.01924 0.7458 0.36643 0.0
C424 C 0.06296 0.76387 0.36581 0.0
C425 C 0.06517 0.80065 0.32543 0.0
C426 C 0.89406 0.28339 0.12144 0.0
C427 C 0.91209 0.25086 0.16318 0.0
C428 C 0.88941 0.3199 0.15996 0.0
C429 C 0.90323 0.32531 0.24129 0.0
H430 H 0.88119 0.28016 0.05999 0.0
H431 H 0.87419 0.3439 0.12606 0.0
S432 S 0.95518 0.24932 0.37515 0.0
N433 N 0.94539 0.22649 0.28876 0.0
N434 N 0.93781 0.29481 0.36064 0.0
C435 C 0.92318 0.29317 0.28235 0.0
C436 C 0.92724 0.25606 0.24347 0.0
C437 C 0.62732 0.72515 0.6573 0.0
C438 C 0.60067 0.72217 0.7296 0.0
C439 C 0.62745 0.75947 0.61186 0.0
C440 C 0.60067 0.79235 0.63594 0.0
H441 H 0.64965 0.70113 0.63645 0.0
H442 H 0.65069 0.76092 0.55927 0.0
S443 S 0.52251 0.79995 0.81696 0.0
N444 N 0.54443 0.75513 0.82053 0.0
N445 N 0.54534 0.8198 0.73471 0.0
C446 C 0.57211 0.78957 0.70577 0.0
C447 C 0.57184 0.75443 0.75251 0.0
C448 C 0.65112 0.77636 0.14491 0.0
C449 C 0.6071 0.75623 0.13573 0.0
C450 C 0.65275 0.81354 0.18062 0.0
C451 C 0.61055 0.83155 0.21081 0.0
H452 H 0.68481 0.76268 0.12657 0.0
H453 H 0.68772 0.82735 0.18833 0.0
S454 S 0.48576 0.79167 0.19771 0.0
N455 N 0.52005 0.75768 0.1556 0.0
N456 N 0.52291 0.82709 0.22467 0.0
C457 C 0.56602 0.81217 0.19951 0.0
C458 C 0.56434 0.77464 0.16152 0.0
C459 C 0.92354 0.29738 0.74542 0.0
C460 C 0.90692 0.30367 0.66616 0.0
C461 C 0.92037 0.26066 0.78191 0.0
C462 C 0.8993 0.22879 0.74141 0.0
H463 H 0.93837 0.32136 0.78025 0.0
H464 H 0.93319 0.2576 0.84338 0.0
S465 S 0.85146 0.2295 0.5317 0.0
N466 N 0.86995 0.27464 0.54728 0.0
N467 N 0.86333 0.20567 0.61583 0.0
C468 C 0.8834 0.23446 0.66133 0.0
C469 C 0.88743 0.27181 0.62369 0.0
C470 C 0.0747 0.75317 0.78477 0.0
C471 C 0.09915 0.72215 0.82268 0.0
C472 C 0.0702 0.78981 0.82203 0.0
C473 C 0.08903 0.79707 0.8996 0.0
H474 H 0.06016 0.74964 0.72444 0.0
H475 H 0.05281 0.81309 0.78875 0.0
S476 S 0.15385 0.7256 1.02779 0.0
N477 N 0.14069 0.70099 0.94473 0.0
N478 N 0.1318 0.76991 1.01447 0.0
C479 C 0.11189 0.76609 0.93986 0.0
C480 C 0.11709 0.72871 0.90148 0.0
C481 C 0.37757 0.31438 0.40031 0.0
C482 C 0.39773 0.32099 0.32324 0.0
C483 C 0.38151 0.27781 0.43847 0.0
C484 C 0.40527 0.24634 0.40061 0.0
H485 H 0.35805 0.33749 0.43107 0.0
H486 H 0.36398 0.27365 0.49623 0.0
S487 S 0.4655 0.24793 0.20074 0.0
N488 N 0.44393 0.2925 0.21235 0.0
N489 N 0.45019 0.22424 0.28328 0.0
C490 C 0.42637 0.25271 0.32472 0.0
C491 C 0.42297 0.28985 0.28633 0.0
C492 C 0.64307 0.41136 0.3471 0.0
C493 C 0.67867 0.42422 0.29271 0.0
C494 C 0.59402 0.40953 0.32495 0.0
C495 C 0.57834 0.42004 0.24708 0.0
H496 H 0.65305 0.40249 0.40753 0.0
H497 H 0.56824 0.39923 0.36918 0.0
S498 S 0.65596 0.45783 0.08289 0.0
N499 N 0.69398 0.44934 0.15776 0.0
N500 N 0.60193 0.44536 0.11647 0.0
C501 C 0.61324 0.43341 0.19224 0.0
C502 C 0.66326 0.4357 0.21498 0.0
C503 C 0.88856 0.63497 0.63981 0.0
C504 C 0.91872 0.6303 0.70757 0.0
C505 C 0.83792 0.63399 0.64694 0.0
C506 C 0.81528 0.62787 0.72198 0.0
H507 H 0.90409 0.63972 0.58067 0.0
H508 H 0.81641 0.63782 0.59284 0.0
S509 S 0.87777 0.61275 0.91783 0.0
N510 N 0.92207 0.61851 0.85227 0.0
N511 N 0.82715 0.61652 0.86532 0.0
C512 C 0.84499 0.62265 0.79008 0.0
C513 C 0.89657 0.62395 0.78299 0.0
C514 C 0.16757 0.11737 0.85094 0.0
C515 C 0.1855 0.13318 0.77849 0.0
C516 C 0.11795 0.11931 0.87038 0.0
C517 C 0.08427 0.13629 0.81718 0.0
H518 H 0.19218 0.10401 0.89369 0.0
H519 H 0.10582 0.10693 0.92687 0.0
S520 S 0.11256 0.1809 0.61885 0.0
N521 N 0.16557 0.16601 0.65333 0.0
N522 N 0.07262 0.16897 0.68851 0.0
C523 C 0.10178 0.15174 0.74413 0.0
C524 C 0.15227 0.15038 0.72516 0.0
C525 C 0.39842 0.92825 0.28031 0.0
C526 C 0.42221 0.9156 0.35078 0.0
C527 C 0.34779 0.92755 0.27385 0.0
C528 C 0.31881 0.9135 0.33703 0.0
H529 H 0.419 0.9391 0.22959 0.0
H530 H 0.33134 0.93778 0.21846 0.0
S531 S 0.36313 0.87674 0.53446 0.0
N532 N 0.41281 0.88883 0.48535 0.0
N533 N 0.31778 0.88673 0.47286 0.0
C534 C 0.3421 0.90064 0.40787 0.0
C535 C 0.39371 0.9019 0.41485 0.0
C536 C 0.39236 0.60779 0.78793 0.0
C537 C 0.41574 0.62273 0.85706 0.0
C538 C 0.34196 0.61067 0.77824 0.0
C539 C 0.31277 0.62896 0.83691 0.0
H540 H 0.41312 0.59383 0.74041 0.0
H541 H 0.32586 0.59867 0.72393 0.0
S542 S 0.3558 0.67216 0.03021 0.0
N543 N 0.40546 0.65575 0.98619 0.0
N544 N 0.31106 0.66157 0.96779 0.0
C545 C 0.3356 0.64377 0.90674 0.0
C546 C 0.38691 0.64049 0.91692 0.0
C547 C 0.16019 0.39978 0.38949 0.0
C548 C 0.18469 0.42189 0.33086 0.0
C549 C 0.10993 0.40295 0.40025 0.0
C550 C 0.08191 0.428 0.35217 0.0
H551 H 0.17988 0.37963 0.42754 0.0
H552 H 0.09279 0.38487 0.44531 0.0
S553 S 0.12806 0.49502 0.19543 0.0
N554 N 0.17682 0.47194 0.22801 0.0
N555 N 0.08229 0.47713 0.24728 0.0
C556 C 0.10578 0.4509 0.29454 0.0
C557 C 0.15712 0.44805 0.28412 0.0
C558 C 0.86331 0.91206 0.34984 0.0
C559 C 0.82851 0.92847 0.29793 0.0
C560 C 0.91239 0.90993 0.32796 0.0
C561 C 0.92873 0.92365 0.25278 0.0
H562 H 0.85263 0.90046 0.4078 0.0
H563 H 0.93757 0.89667 0.3699 0.0
S564 S 0.85329 0.97126 0.09633 0.0
N565 N 0.81474 0.96044 0.16882 0.0
N566 N 0.90668 0.95574 0.12778 0.0
C567 C 0.89464 0.94068 0.20073 0.0
C568 C 0.8447 0.94334 0.22333 0.0
C569 C 0.61255 0.14449 0.6583 0.0
C570 C 0.58555 0.11741 0.70287 0.0
C571 C 0.66293 0.14774 0.66815 0.0
C572 C 0.68858 0.12384 0.72254 0.0
H573 H 0.59449 0.1641 0.61692 0.0
H574 H 0.68179 0.16954 0.63324 0.0
S575 S 0.63535 0.04465 0.84573 0.0
N576 N 0.5885 0.06412 0.79869 0.0
N577 N 0.68315 0.06962 0.81613 0.0
C578 C 0.66214 0.0956 0.76528 0.0
C579 C 0.61072 0.09254 0.75569 0.0
loop_
_geom_bond_atom_site_label_1
_geom_bond_atom_site_label_2
_geom_bond_distance
_geom_bond_site_symmetry_2
_ccdc_geom_bond_type
Zn0 N4 2.020 . S
Zn0 O8 2.019 . S
Zn0 N10 2.119 . S
Zn0 O18 1.975 . S
C1 N2 1.334 . S
C1 N5 1.336 . S
N2 C1 1.334 . S
N2 C3 1.334 . S
C3 N2 1.334 . S
C3 N4 1.336 . S
N4 Zn0 2.020 . S
N4 C3 1.336 . S
N4 N5 1.354 . S
N5 C1 1.336 . S
N5 N4 1.354 . S
N5 Zn9 2.020 . S
C6 O7 1.244 . S
C6 O30 1.257 . S
O7 C6 1.244 . S
O8 Zn0 2.019 . S
O8 C28 1.257 . S
Zn9 N5 2.020 . S
Zn9 O16 1.975 . S
Zn9 N25 2.119 . S
Zn9 O30 2.019 . S
N10 Zn0 2.119 . S
N10 C12 1.334 . S
N10 C13 1.328 . S
C11 C12 1.391 . S
C11 N14 1.329 . S
C11 H32 0.930 . S
C12 N10 1.334 . S
C12 C11 1.391 . S
C12 H19 0.930 . S
C13 N10 1.328 . S
C13 C15 1.392 . S
C13 H20 0.930 . S
N14 C11 1.329 . S
N14 C15 1.331 . S
C15 C13 1.392 . S
C15 N14 1.331 . S
O16 Zn9 1.975 . S
O16 C17 1.252 . S
C17 O16 1.252 . S
C17 O18 1.252 . S
O18 Zn0 1.975 . S
O18 C17 1.252 . S
H19 C12 0.930 . S
H20 C13 0.930 . S
C21 C22 1.392 . S
C21 N25 1.328 . S
C21 H27 0.930 . S
C22 C21 1.392 . S
C22 N26 1.331 . S
C23 C24 1.391 . S
C23 N26 1.329 . S
C23 H33 0.930 . S
C24 C23 1.391 . S
C24 N25 1.334 . S
C24 H31 0.930 . S
N25 Zn9 2.119 . S
N25 C21 1.328 . S
N25 C24 1.334 . S
N26 C22 1.331 . S
N26 C23 1.329 . S
H27 C21 0.930 . S
C28 O8 1.257 . S
C28 O29 1.244 . S
O29 C28 1.244 . S
O30 C6 1.257 . S
O30 Zn9 2.019 . S
H31 C24 0.930 . S
H32 C11 0.930 . S
H33 C23 0.930 . S
Zn34 N38 2.020 . S
Zn34 O42 2.019 . S
Zn34 N44 2.119 . S
Zn34 O52 1.975 . S
C35 N36 1.334 . S
C35 N39 1.336 . S
N36 C35 1.334 . S
N36 C37 1.334 . S
C37 N36 1.334 . S
C37 N38 1.336 . S
N38 Zn34 2.020 . S
N38 C37 1.336 . S
N38 N39 1.354 . S
N39 C35 1.336 . S
N39 N38 1.354 . S
N39 Zn43 2.020 . S
C40 O41 1.244 . S
C40 O64 1.257 . S
O41 C40 1.244 . S
O42 Zn34 2.019 . S
O42 C62 1.257 . S
Zn43 N39 2.020 . S
Zn43 O50 1.975 . S
Zn43 N59 2.119 . S
Zn43 O64 2.019 1_455 S
N44 Zn34 2.119 . S
N44 C46 1.334 . S
N44 C47 1.328 . S
C45 C46 1.391 . S
C45 N48 1.329 . S
C45 H66 0.930 . S
C46 N44 1.334 . S
C46 C45 1.391 . S
C46 H53 0.930 . S
C47 N44 1.328 . S
C47 C49 1.392 . S
C47 H54 0.930 . S
N48 C45 1.329 . S
N48 C49 1.331 . S
C49 C47 1.392 . S
C49 N48 1.331 . S
O50 Zn43 1.975 . S
O50 C51 1.252 . S
C51 O50 1.252 . S
C51 O52 1.252 . S
O52 Zn34 1.975 . S
O52 C51 1.252 . S
H53 C46 0.930 . S
H54 C47 0.930 . S
C55 C56 1.392 . S
C55 N59 1.328 . S
C55 H61 0.951 . S
C56 C55 1.392 . S
C56 N60 1.331 . S
C57 C58 1.391 . S
C57 N60 1.329 . S
C57 H67 0.930 . S
C58 C57 1.391 . S
C58 N59 1.334 . S
C58 H65 0.930 . S
N59 Zn43 2.119 . S
N59 C55 1.328 . S
N59 C58 1.334 . S
N60 C56 1.331 . S
N60 C57 1.329 . S
H61 C55 0.951 . S
C62 O42 1.257 . S
C62 O63 1.244 . S
O63 C62 1.244 . S
O64 C40 1.257 . S
O64 Zn43 2.019 1_655 S
H65 C58 0.930 . S
H66 C45 0.930 . S
H67 C57 0.930 . S
Zn68 N72 2.020 . S
Zn68 O76 2.019 1_655 S
Zn68 N78 2.119 . S
Zn68 O86 1.975 . S
C69 N70 1.334 . S
C69 N73 1.336 . S
N70 C69 1.334 . S
N70 C71 1.334 . S
C71 N70 1.334 . S
C71 N72 1.336 . S
N72 Zn68 2.020 . S
N72 C71 1.336 . S
N72 N73 1.354 . S
N73 C69 1.336 . S
N73 N72 1.354 . S
N73 Zn77 2.020 . S
C74 O75 1.244 . S
C74 O98 1.257 . S
O75 C74 1.244 . S
O76 Zn68 2.019 1_455 S
O76 C96 1.257 . S
Zn77 N73 2.020 . S
Zn77 O84 1.975 . S
Zn77 N93 2.119 . S
Zn77 O98 2.019 . S
N78 Zn68 2.119 . S
N78 C80 1.334 . S
N78 C81 1.328 . S
C79 C80 1.391 . S
C79 N82 1.329 . S
C79 H100 0.930 . S
C80 N78 1.334 . S
C80 C79 1.391 . S
C80 H87 0.930 . S
C81 N78 1.328 . S
C81 C83 1.392 . S
C81 H88 0.951 . S
N82 C79 1.329 . S
N82 C83 1.331 . S
C83 C81 1.392 . S
C83 N82 1.331 . S
O84 Zn77 1.975 . S
O84 C85 1.252 . S
C85 O84 1.252 . S
C85 O86 1.252 . S
O86 Zn68 1.975 . S
O86 C85 1.252 . S
H87 C80 0.930 . S
H88 C81 0.951 . S
C89 C90 1.392 . S
C89 N93 1.328 . S
C89 H95 0.930 . S
C90 C89 1.392 . S
C90 N94 1.331 . S
C91 C92 1.391 . S
C91 N94 1.329 . S
C91 H101 0.930 . S
C92 C91 1.391 . S
C92 N93 1.334 . S
C92 H99 0.930 . S
N93 Zn77 2.119 . S
N93 C89 1.328 . S
N93 C92 1.334 . S
N94 C90 1.331 . S
N94 C91 1.329 . S
H95 C89 0.930 . S
C96 O76 1.257 . S
C96 O97 1.244 . S
O97 C96 1.244 . S
O98 C74 1.257 . S
O98 Zn77 2.019 . S
H99 C92 0.930 . S
H100 C79 0.930 . S
H101 C91 0.930 . S
Zn102 N106 2.020 . S
Zn102 O110 2.019 . S
Zn102 N112 2.119 . S
Zn102 O120 1.975 . S
C103 N104 1.334 . S
C103 N107 1.336 . S
N104 C103 1.334 . S
N104 C105 1.334 . S
C105 N104 1.334 . S
C105 N106 1.336 . S
N106 Zn102 2.020 . S
N106 C105 1.336 . S
N106 N107 1.354 . S
N107 C103 1.336 . S
N107 N106 1.354 . S
N107 Zn111 2.020 . S
C108 O109 1.244 . S
C108 O132 1.257 . S
O109 C108 1.244 . S
O110 Zn102 2.019 . S
O110 C130 1.257 . S
Zn111 N107 2.020 . S
Zn111 O118 1.975 . S
Zn111 N127 2.119 . S
Zn111 O132 2.019 . S
N112 Zn102 2.119 . S
N112 C114 1.334 . S
N112 C115 1.328 . S
C113 C114 1.391 . S
C113 N116 1.329 . S
C113 H134 0.930 . S
C114 N112 1.334 . S
C114 C113 1.391 . S
C114 H121 0.930 . S
C115 N112 1.328 . S
C115 C117 1.392 . S
C115 H122 0.930 . S
N116 C113 1.329 . S
N116 C117 1.331 . S
C117 C115 1.392 . S
C117 N116 1.331 . S
O118 Zn111 1.975 . S
O118 C119 1.252 . S
C119 O118 1.252 . S
C119 O120 1.252 . S
O120 Zn102 1.975 . S
O120 C119 1.252 . S
H121 C114 0.930 . S
H122 C115 0.930 . S
C123 C124 1.392 . S
C123 N127 1.328 . S
C123 H129 0.930 . S
C124 C123 1.392 . S
C124 N128 1.331 . S
C125 C126 1.391 . S
C125 N128 1.329 . S
C125 H135 0.930 . S
C126 C125 1.391 . S
C126 N127 1.334 . S
C126 H133 0.930 . S
N127 Zn111 2.119 . S
N127 C123 1.328 . S
N127 C126 1.334 . S
N128 C124 1.331 . S
N128 C125 1.329 . S
H129 C123 0.930 . S
C130 O110 1.257 . S
C130 O131 1.244 . S
O131 C130 1.244 . S
O132 C108 1.257 . S
O132 Zn111 2.019 . S
H133 C126 0.930 . S
H134 C113 0.930 . S
H135 C125 0.930 . S
Zn136 N140 2.020 . S
Zn136 O144 2.019 . S
Zn136 N146 2.119 . S
Zn136 O154 1.975 . S
C137 N138 1.334 . S
C137 N141 1.336 . S
N138 C137 1.334 . S
N138 C139 1.334 . S
C139 N138 1.334 . S
C139 N140 1.336 . S
N140 Zn136 2.020 . S
N140 C139 1.336 . S
N140 N141 1.354 . S
N141 C137 1.336 . S
N141 N140 1.354 . S
N141 Zn145 2.020 . S
C142 O143 1.244 . S
C142 O166 1.257 . S
O143 C142 1.244 . S
O144 Zn136 2.019 . S
O144 C164 1.257 . S
Zn145 N141 2.020 . S
Zn145 O152 1.975 . S
Zn145 N161 2.119 . S
Zn145 O166 2.019 . S
N146 Zn136 2.119 . S
N146 C148 1.334 . S
N146 C149 1.328 . S
C147 C148 1.391 . S
C147 N150 1.329 . S
C147 H168 0.930 . S
C148 N146 1.334 . S
C148 C147 1.391 . S
C148 H155 0.930 . S
C149 N146 1.328 . S
C149 C151 1.392 . S
C149 H156 0.930 . S
N150 C147 1.329 . S
N150 C151 1.331 . S
C151 C149 1.392 . S
C151 N150 1.331 . S
O152 Zn145 1.975 . S
O152 C153 1.252 . S
C153 O152 1.252 . S
C153 O154 1.252 . S
O154 Zn136 1.975 . S
O154 C153 1.252 . S
H155 C148 0.930 . S
H156 C149 0.930 . S
C157 C158 1.392 . S
C157 N161 1.328 . S
C157 H163 0.930 . S
C158 C157 1.392 . S
C158 N162 1.331 . S
C159 C160 1.391 . S
C159 N162 1.329 . S
C159 H169 0.930 . S
C160 C159 1.391 . S
C160 N161 1.334 . S
C160 H167 0.930 . S
N161 Zn145 2.119 . S
N161 C157 1.328 . S
N161 C160 1.334 . S
N162 C158 1.331 . S
N162 C159 1.329 . S
H163 C157 0.930 . S
C164 O144 1.257 . S
C164 O165 1.244 . S
O165 C164 1.244 . S
O166 C142 1.257 . S
O166 Zn145 2.019 . S
H167 C160 0.930 . S
H168 C147 0.930 . S
H169 C159 0.930 . S
Zn170 N174 2.020 . S
Zn170 O178 2.019 1_655 S
Zn170 N180 2.119 . S
Zn170 O188 1.975 . S
C171 N172 1.334 . S
C171 N175 1.336 . S
N172 C171 1.334 . S
N172 C173 1.334 . S
C173 N172 1.334 . S
C173 N174 1.336 . S
N174 Zn170 2.020 . S
N174 C173 1.336 . S
N174 N175 1.354 . S
N175 C171 1.336 . S
N175 N174 1.354 . S
N175 Zn179 2.020 . S
C176 O177 1.244 . S
C176 O200 1.257 . S
O177 C176 1.244 . S
O178 Zn170 2.019 1_455 S
O178 C198 1.257 . S
Zn179 N175 2.020 . S
Zn179 O186 1.975 . S
Zn179 N195 2.119 . S
Zn179 O200 2.019 . S
N180 Zn170 2.119 . S
N180 C182 1.334 . S
N180 C183 1.328 . S
C181 C182 1.391 . S
C181 N184 1.329 . S
C181 H202 0.930 . S
C182 N180 1.334 . S
C182 C181 1.391 . S
C182 H189 0.930 . S
C183 N180 1.328 . S
C183 C185 1.392 . S
C183 H190 0.951 . S
N184 C181 1.329 . S
N184 C185 1.331 . S
C185 C183 1.392 . S
C185 N184 1.331 . S
O186 Zn179 1.975 . S
O186 C187 1.252 . S
C187 O186 1.252 . S
C187 O188 1.252 . S
O188 Zn170 1.975 . S
O188 C187 1.252 . S
H189 C182 0.930 . S
H190 C183 0.951 . S
C191 C192 1.392 . S
C191 N195 1.328 . S
C191 H197 0.930 . S
C192 C191 1.392 . S
C192 N196 1.331 . S
C193 C194 1.391 . S
C193 N196 1.329 . S
C193 H203 0.930 . S
C194 C193 1.391 . S
C194 N195 1.334 . S
C194 H201 0.930 . S
N195 Zn179 2.119 . S
N195 C191 1.328 . S
N195 C194 1.334 . S
N196 C192 1.331 . S
N196 C193 1.329 . S
H197 C191 0.930 . S
C198 O178 1.257 . S
C198 O199 1.244 . S
O199 C198 1.244 . S
O200 C176 1.257 . S
O200 Zn179 2.019 . S
H201 C194 0.930 . S
H202 C181 0.930 . S
H203 C193 0.930 . S
Zn204 N208 2.020 . S
Zn204 O212 2.019 . S
Zn204 N214 2.119 . S
Zn204 O222 1.975 . S
C205 N206 1.334 . S
C205 N209 1.336 . S
N206 C205 1.334 . S
N206 C207 1.334 . S
C207 N206 1.334 . S
C207 N208 1.336 . S
N208 Zn204 2.020 . S
N208 C207 1.336 . S
N208 N209 1.354 . S
N209 C205 1.336 . S
N209 N208 1.354 . S
N209 Zn213 2.020 . S
C210 O211 1.244 . S
C210 O234 1.257 . S
O211 C210 1.244 . S
O212 Zn204 2.019 . S
O212 C232 1.257 . S
Zn213 N209 2.020 . S
Zn213 O220 1.975 . S
Zn213 N229 2.119 . S
Zn213 O234 2.019 1_455 S
N214 Zn204 2.119 . S
N214 C216 1.334 . S
N214 C217 1.328 . S
C215 C216 1.391 . S
C215 N218 1.329 . S
C215 H236 0.930 . S
C216 N214 1.334 . S
C216 C215 1.391 . S
C216 H223 0.930 . S
C217 N214 1.328 . S
C217 C219 1.392 . S
C217 H224 0.930 . S
N218 C215 1.329 . S
N218 C219 1.331 . S
C219 C217 1.392 . S
C219 N218 1.331 . S
O220 Zn213 1.975 . S
O220 C221 1.252 . S
C221 O220 1.252 . S
C221 O222 1.252 . S
O222 Zn204 1.975 . S
O222 C221 1.252 . S
H223 C216 0.930 . S
H224 C217 0.930 . S
C225 C226 1.392 . S
C225 N229 1.328 . S
C225 H231 0.951 . S
C226 C225 1.392 . S
C226 N230 1.331 . S
C227 C228 1.391 . S
C227 N230 1.329 . S
C227 H237 0.930 . S
C228 C227 1.391 . S
C228 N229 1.334 . S
C228 H235 0.930 . S
N229 Zn213 2.119 . S
N229 C225 1.328 . S
N229 C228 1.334 . S
N230 C226 1.331 . S
N230 C227 1.329 . S
H231 C225 0.951 . S
C232 O212 1.257 . S
C232 O233 1.244 . S
O233 C232 1.244 . S
O234 C210 1.257 . S
O234 Zn213 2.019 1_655 S
H235 C228 0.930 . S
H236 C215 0.930 . S
H237 C227 0.930 . S
Zn238 N242 2.020 . S
Zn238 O246 2.019 . S
Zn238 N248 2.119 . S
Zn238 O256 1.975 . S
C239 N240 1.334 . S
C239 N243 1.336 . S
N240 C239 1.334 . S
N240 C241 1.334 . S
C241 N240 1.334 . S
C241 N242 1.336 . S
N242 Zn238 2.020 . S
N242 C241 1.336 . S
N242 N243 1.354 . S
N243 C239 1.336 . S
N243 N242 1.354 . S
N243 Zn247 2.020 . S
C244 O245 1.244 . S
C244 O268 1.257 . S
O245 C244 1.244 . S
O246 Zn238 2.019 . S
O246 C266 1.257 . S
Zn247 N243 2.020 . S
Zn247 O254 1.975 . S
Zn247 N263 2.119 . S
Zn247 O268 2.019 . S
N248 Zn238 2.119 . S
N248 C250 1.334 . S
N248 C251 1.328 . S
C249 C250 1.391 . S
C249 N252 1.329 . S
C249 H270 0.930 . S
C250 N248 1.334 . S
C250 C249 1.391 . S
C250 H257 0.930 . S
C251 N248 1.328 . S
C251 C253 1.392 . S
C251 H258 0.930 . S
N252 C249 1.329 . S
N252 C253 1.331 . S
C253 C251 1.392 . S
C253 N252 1.331 . S
O254 Zn247 1.975 . S
O254 C255 1.252 . S
C255 O254 1.252 . S
C255 O256 1.252 . S
O256 Zn238 1.975 . S
O256 C255 1.252 . S
H257 C250 0.930 . S
H258 C251 0.930 . S
C259 C260 1.392 . S
C259 N263 1.328 . S
C259 H265 0.930 . S
C260 C259 1.392 . S
C260 N264 1.331 . S
C261 C262 1.391 . S
C261 N264 1.329 . S
C261 H271 0.930 . S
C262 C261 1.391 . S
C262 N263 1.334 . S
C262 H269 0.930 . S
N263 Zn247 2.119 . S
N263 C259 1.328 . S
N263 C262 1.334 . S
N264 C260 1.331 . S
N264 C261 1.329 . S
H265 C259 0.930 . S
C266 O246 1.257 . S
C266 O267 1.244 . S
O267 C266 1.244 . S
O268 C244 1.257 . S
O268 Zn247 2.019 . S
H269 C262 0.930 . S
H270 C249 0.930 . S
H271 C261 0.930 . S
C272 C273 1.369 . S
C272 C274 1.419 1_554 S
C272 H276 0.930 . S
C273 C272 1.369 . S
C273 C282 1.429 . S
C274 C272 1.419 1_556 S
C274 C275 1.364 . S
C274 H277 0.929 . S
C275 C274 1.364 . S
C275 C281 1.418 1_556 S
H276 C272 0.930 . S
H277 C274 0.929 . S
S278 N279 1.613 . S
S278 N280 1.610 . S
N279 S278 1.613 . S
N279 C282 1.350 . S
N280 S278 1.610 . S
N280 C281 1.351 . S
C281 C275 1.418 1_554 S
C281 N280 1.351 . S
C281 C282 1.434 . S
C282 C273 1.429 . S
C282 N279 1.350 . S
C282 C281 1.434 . S
C283 C284 1.369 . S
C283 C285 1.419 . S
C283 H287 0.930 . S
C284 C283 1.369 . S
C284 C293 1.429 . S
C285 C283 1.419 . S
C285 C286 1.363 . S
C285 H288 0.929 . S
C286 C285 1.363 . S
C286 C292 1.428 . S
H287 C283 0.930 . S
H288 C285 0.929 . S
S289 N290 1.613 . S
S289 N291 1.610 . S
N290 S289 1.613 . S
N290 C293 1.350 . S
N291 S289 1.610 . S
N291 C292 1.351 . S
C292 C286 1.428 . S
C292 N291 1.351 . S
C292 C293 1.434 . S
C293 C284 1.429 . S
C293 N290 1.350 . S
C293 C292 1.434 . S
C294 C295 1.369 . S
C294 C296 1.419 . S
C294 H298 0.930 . S
C295 C294 1.369 . S
C295 C304 1.429 1_545 S
C296 C294 1.419 . S
C296 C297 1.359 1_546 S
C296 H299 0.929 . S
C297 C296 1.359 1_564 S
C297 C303 1.430 . S
H298 C294 0.930 . S
H299 C296 0.929 . S
S300 N301 1.613 1_554 S
S300 N302 1.610 . S
N301 S300 1.613 1_556 S
N301 C304 1.350 . S
N302 S300 1.610 . S
N302 C303 1.351 . S
C303 C297 1.430 . S
C303 N302 1.351 . S
C303 C304 1.434 1_554 S
C304 C295 1.429 1_565 S
C304 N301 1.350 . S
C304 C303 1.434 1_556 S
C305 C306 1.369 . S
C305 C307 1.419 . S
C305 H309 0.930 . S
C306 C305 1.369 . S
C306 C315 1.429 . S
C307 C305 1.419 . S
C307 C308 1.363 1_565 S
C307 H310 0.929 . S
C308 C307 1.363 1_545 S
C308 C314 1.429 1_545 S
H309 C305 0.930 . S
H310 C307 0.929 . S
S311 N312 1.613 . S
S311 N313 1.610 . S
N312 S311 1.613 . S
N312 C315 1.350 . S
N313 S311 1.610 . S
N313 C314 1.351 . S
C314 C308 1.429 1_565 S
C314 N313 1.351 . S
C314 C315 1.434 . S
C315 C306 1.429 . S
C315 N312 1.350 . S
C315 C314 1.434 . S
C316 C317 1.369 . S
C316 C318 1.419 . S
C316 H320 0.930 . S
C317 C316 1.369 . S
C317 C326 1.429 . S
C318 C316 1.419 . S
C318 C319 1.363 1_556 S
C318 H321 0.929 . S
C319 C318 1.363 1_554 S
C319 C325 1.428 1_554 S
H320 C316 0.930 . S
H321 C318 0.929 . S
S322 N323 1.613 1_554 S
S322 N324 1.610 . S
N323 S322 1.613 1_556 S
N323 C326 1.350 . S
N324 S322 1.610 . S
N324 C325 1.351 1_554 S
C325 C319 1.428 1_556 S
C325 N324 1.351 1_556 S
C325 C326 1.434 . S
C326 C317 1.429 . S
C326 N323 1.350 . S
C326 C325 1.434 . S
C327 C328 1.369 . S
C327 C329 1.419 . S
C327 H331 0.930 . S
C328 C327 1.369 . S
C328 C337 1.429 . S
C329 C327 1.419 . S
C329 C330 1.363 . S
C329 H332 0.929 . S
C330 C329 1.363 . S
C330 C336 1.428 . S
H331 C327 0.930 . S
H332 C329 0.929 . S
S333 N334 1.613 . S
S333 N335 1.610 . S
N334 S333 1.613 . S
N334 C337 1.350 . S
N335 S333 1.610 . S
N335 C336 1.351 . S
C336 C330 1.428 . S
C336 N335 1.351 . S
C336 C337 1.434 . S
C337 C328 1.429 . S
C337 N334 1.350 . S
C337 C336 1.434 . S
C338 C339 1.365 1_565 S
C338 C340 1.419 1_556 S
C338 H342 0.930 . S
C339 C338 1.365 1_545 S
C339 C348 1.424 1_556 S
C340 C338 1.419 1_554 S
C340 C341 1.363 . S
C340 H343 0.929 . S
C341 C340 1.363 . S
C341 C347 1.428 1_565 S
H342 C338 0.930 . S
H343 C340 0.929 . S
S344 N345 1.613 . S
S344 N346 1.610 . S
N345 S344 1.613 . S
N345 C348 1.350 . S
N346 S344 1.610 . S
N346 C347 1.351 . S
C347 C341 1.428 1_545 S
C347 N346 1.351 . S
C347 C348 1.434 . S
C348 C339 1.424 1_554 S
C348 N345 1.350 . S
C348 C347 1.434 . S
C349 C350 1.369 . S
C349 C351 1.419 . S
C349 H353 0.930 . S
C350 C349 1.369 . S
C350 C359 1.429 1_545 S
C351 C349 1.419 . S
C351 C352 1.357 1_545 S
C351 H354 0.929 . S
C352 C351 1.357 1_565 S
C352 C358 1.432 . S
H353 C349 0.930 . S
H354 C351 0.929 . S
S355 N356 1.613 . S
S355 N357 1.610 . S
N356 S355 1.613 . S
N356 C359 1.350 . S
N357 S355 1.610 . S
N357 C358 1.351 . S
C358 C352 1.432 . S
C358 N357 1.351 . S
C358 C359 1.434 . S
C359 C350 1.429 1_565 S
C359 N356 1.350 . S
C359 C358 1.434 . S
C360 C361 1.369 . S
C360 C362 1.419 1_554 S
C360 H364 0.930 . S
C361 C360 1.369 . S
C361 C370 1.429 . S
C362 C360 1.419 1_556 S
C362 C363 1.363 . S
C362 H365 0.929 . S
C363 C362 1.363 . S
C363 C369 1.428 . S
H364 C360 0.930 . S
H365 C362 0.929 . S
S366 N367 1.613 1_556 S
S366 N368 1.610 . S
N367 S366 1.613 1_554 S
N367 C370 1.350 . S
N368 S366 1.610 . S
N368 C369 1.351 . S
C369 C363 1.428 . S
C369 N368 1.351 . S
C369 C370 1.434 1_556 S
C370 C361 1.429 . S
C370 N367 1.350 . S
C370 C369 1.434 1_554 S
C371 C372 1.369 1_455 S
C371 C373 1.419 . S
C371 H375 0.930 . S
C372 C371 1.369 1_655 S
C372 C381 1.429 . S
C373 C371 1.419 . S
C373 C374 1.363 . S
C373 H376 0.929 . S
C374 C373 1.363 . S
C374 C380 1.428 1_455 S
H375 C371 0.930 . S
H376 C373 0.929 . S
S377 N378 1.613 . S
S377 N379 1.610 . S
N378 S377 1.613 . S
N378 C381 1.350 . S
N379 S377 1.610 . S
N379 C380 1.351 . S
C380 C374 1.428 1_655 S
C380 N379 1.351 . S
C380 C381 1.434 . S
C381 C372 1.429 . S
C381 N378 1.350 . S
C381 C380 1.434 . S
C382 C383 1.369 1_655 S
C382 C384 1.419 1_554 S
C382 H386 0.930 . S
C383 C382 1.369 1_455 S
C383 C392 1.429 1_565 S
C384 C382 1.419 1_556 S
C384 C385 1.363 1_565 S
C384 H387 0.929 . S
C385 C384 1.363 1_545 S
C385 C391 1.428 1_655 S
H386 C382 0.930 . S
H387 C384 0.929 . S
S388 N389 1.613 1_556 S
S388 N390 1.610 . S
N389 S388 1.613 1_554 S
N389 C392 1.350 . S
N390 S388 1.610 . S
N390 C391 1.351 . S
C391 C385 1.428 1_455 S
C391 N390 1.351 . S
C391 C392 1.434 1_556 S
C392 C383 1.429 1_545 S
C392 N389 1.350 . S
C392 C391 1.434 1_554 S
C393 C394 1.369 . S
C393 C395 1.419 1_545 S
C393 H397 0.930 . S
C394 C393 1.369 . S
C394 C403 1.429 . S
C395 C393 1.419 1_565 S
C395 C396 1.363 . S
C395 H398 0.929 . S
C396 C395 1.363 . S
C396 C402 1.428 . S
H397 C393 0.930 . S
H398 C395 0.929 . S
S399 N400 1.613 1_565 S
S399 N401 1.610 . S
N400 S399 1.613 1_545 S
N400 C403 1.350 . S
N401 S399 1.610 . S
N401 C402 1.351 . S
C402 C396 1.428 . S
C402 N401 1.351 . S
C402 C403 1.434 1_565 S
C403 C394 1.429 . S
C403 N400 1.350 . S
C403 C402 1.434 1_545 S
C404 C405 1.369 . S
C404 C406 1.419 . S
C404 H408 0.930 . S
C405 C404 1.369 . S
C405 C414 1.429 . S
C406 C404 1.419 . S
C406 C407 1.363 . S
C406 H409 0.929 . S
C407 C406 1.363 . S
C407 C413 1.428 . S
H408 C404 0.930 . S
H409 C406 0.929 . S
S410 N411 1.618 . S
S410 N412 1.609 1_556 S
N411 S410 1.618 . S
N411 C414 1.350 . S
N412 S410 1.609 1_554 S
N412 C413 1.351 1_554 S
C413 C407 1.428 . S
C413 N412 1.351 1_556 S
C413 C414 1.434 . S
C414 C405 1.429 . S
C414 N411 1.350 . S
C414 C413 1.434 . S
C415 C416 1.369 . S
C415 C417 1.419 . S
C415 H419 0.930 . S
C416 C415 1.369 . S
C416 C425 1.429 . S
C417 C415 1.419 . S
C417 C418 1.363 . S
C417 H420 0.929 . S
C418 C417 1.363 . S
C418 C424 1.428 . S
H419 C415 0.930 . S
H420 C417 0.929 . S
S421 N422 1.613 1_655 S
S421 N423 1.610 . S
N422 S421 1.613 1_455 S
N422 C425 1.350 . S
N423 S421 1.610 . S
N423 C424 1.351 1_655 S
C424 C418 1.428 . S
C424 N423 1.351 1_455 S
C424 C425 1.434 . S
C425 C416 1.429 . S
C425 N422 1.350 . S
C425 C424 1.434 . S
C426 C427 1.369 . S
C426 C428 1.419 . S
C426 H430 0.930 1_554 S
C427 C426 1.369 . S
C427 C436 1.429 . S
C428 C426 1.419 . S
C428 C429 1.363 . S
C428 H431 0.929 . S
C429 C428 1.363 . S
C429 C435 1.428 . S
H430 C426 0.930 1_556 S
H431 C428 0.929 . S
S432 N433 1.613 . S
S432 N434 1.610 . S
N433 S432 1.613 . S
N433 C436 1.350 . S
N434 S432 1.610 . S
N434 C435 1.351 . S
C435 C429 1.428 . S
C435 N434 1.351 . S
C435 C436 1.434 . S
C436 C427 1.429 . S
C436 N433 1.350 . S
C436 C435 1.434 . S
C437 C438 1.369 . S
C437 C439 1.419 . S
C437 H441 0.930 . S
C438 C437 1.369 . S
C438 C447 1.429 . S
C439 C437 1.419 . S
C439 C440 1.363 . S
C439 H442 0.929 . S
C440 C439 1.363 . S
C440 C446 1.428 . S
H441 C437 0.930 . S
H442 C439 0.929 . S
S443 N444 1.613 . S
S443 N445 1.610 . S
N444 S443 1.613 . S
N444 C447 1.350 . S
N445 S443 1.610 . S
N445 C446 1.351 . S
C446 C440 1.428 . S
C446 N445 1.351 . S
C446 C447 1.434 . S
C447 C438 1.429 . S
C447 N444 1.350 . S
C447 C446 1.434 . S
C448 C449 1.369 1_556 S
C448 C450 1.419 1_556 S
C448 H452 0.930 . S
C449 C448 1.369 1_554 S
C449 C458 1.429 . S
C450 C448 1.419 1_554 S
C450 C451 1.363 . S
C450 H453 0.929 . S
C451 C450 1.363 . S
C451 C457 1.428 . S
H452 C448 0.930 . S
H453 C450 0.929 . S
S454 N455 1.613 . S
S454 N456 1.610 . S
N455 S454 1.613 . S
N455 C458 1.350 . S
N456 S454 1.610 . S
N456 C457 1.351 . S
C457 C451 1.428 . S
C457 N456 1.351 . S
C457 C458 1.434 . S
C458 C449 1.429 . S
C458 N455 1.350 . S
C458 C457 1.434 . S
C459 C460 1.369 . S
C459 C461 1.419 . S
C459 H463 0.930 . S
C460 C459 1.369 . S
C460 C469 1.429 . S
C461 C459 1.419 . S
C461 C462 1.363 . S
C461 H464 0.929 . S
C462 C461 1.363 . S
C462 C468 1.428 . S
H463 C459 0.930 . S
H464 C461 0.929 . S
S465 N466 1.613 . S
S465 N467 1.610 . S
N466 S465 1.613 . S
N466 C469 1.350 . S
N467 S465 1.610 . S
N467 C468 1.351 . S
C468 C462 1.428 . S
C468 N467 1.351 . S
C468 C469 1.434 . S
C469 C460 1.429 . S
C469 N466 1.350 . S
C469 C468 1.434 . S
C470 C471 1.369 . S
C470 C472 1.419 . S
C470 H474 0.930 . S
C471 C470 1.369 . S
C471 C480 1.429 . S
C472 C470 1.419 . S
C472 C473 1.363 . S
C472 H475 0.929 . S
C473 C472 1.363 . S
C473 C479 1.428 1_556 S
H474 C470 0.930 . S
H475 C472 0.929 . S
S476 N477 1.607 1_554 S
S476 N478 1.610 . S
N477 S476 1.607 1_556 S
N477 C480 1.353 . S
N478 S476 1.610 . S
N478 C479 1.351 . S
C479 C473 1.428 1_554 S
C479 N478 1.351 . S
C479 C480 1.434 1_554 S
C480 C471 1.429 . S
C480 N477 1.353 . S
C480 C479 1.434 1_556 S
C481 C482 1.369 . S
C481 C483 1.419 . S
C481 H485 0.930 . S
C482 C481 1.369 . S
C482 C491 1.429 . S
C483 C481 1.419 . S
C483 C484 1.363 . S
C483 H486 0.929 . S
C484 C483 1.363 . S
C484 C490 1.428 . S
H485 C481 0.930 . S
H486 C483 0.929 . S
S487 N488 1.613 . S
S487 N489 1.610 . S
N488 S487 1.613 . S
N488 C491 1.350 . S
N489 S487 1.610 . S
N489 C490 1.351 . S
C490 C484 1.428 . S
C490 N489 1.351 . S
C490 C491 1.434 . S
C491 C482 1.429 . S
C491 N488 1.350 . S
C491 C490 1.434 . S
C492 C493 1.369 . S
C492 C494 1.419 . S
C492 H496 0.930 . S
C493 C492 1.369 . S
C493 C502 1.429 . S
C494 C492 1.419 . S
C494 C495 1.363 . S
C494 H497 0.929 . S
C495 C494 1.363 . S
C495 C501 1.428 . S
H496 C492 0.930 . S
H497 C494 0.929 . S
S498 N499 1.613 . S
S498 N500 1.610 . S
N499 S498 1.613 . S
N499 C502 1.350 . S
N500 S498 1.610 . S
N500 C501 1.351 . S
C501 C495 1.428 . S
C501 N500 1.351 . S
C501 C502 1.434 . S
C502 C493 1.429 . S
C502 N499 1.350 . S
C502 C501 1.434 . S
C503 C504 1.369 . S
C503 C505 1.419 . S
C503 H507 0.930 . S
C504 C503 1.369 . S
C504 C513 1.429 . S
C505 C503 1.419 . S
C505 C506 1.363 . S
C505 H508 0.929 . S
C506 C505 1.363 . S
C506 C512 1.428 . S
H507 C503 0.930 . S
H508 C505 0.929 . S
S509 N510 1.613 . S
S509 N511 1.610 . S
N510 S509 1.613 . S
N510 C513 1.350 . S
N511 S509 1.610 . S
N511 C512 1.351 . S
C512 C506 1.428 . S
C512 N511 1.351 . S
C512 C513 1.434 . S
C513 C504 1.429 . S
C513 N510 1.350 . S
C513 C512 1.434 . S
C514 C515 1.369 . S
C514 C516 1.419 . S
C514 H518 0.930 . S
C515 C514 1.369 . S
C515 C524 1.429 . S
C516 C514 1.419 . S
C516 C517 1.363 . S
C516 H519 0.929 . S
C517 C516 1.363 . S
C517 C523 1.428 . S
H518 C514 0.930 . S
H519 C516 0.929 . S
S520 N521 1.613 . S
S520 N522 1.610 . S
N521 S520 1.613 . S
N521 C524 1.350 . S
N522 S520 1.610 . S
N522 C523 1.351 . S
C523 C517 1.428 . S
C523 N522 1.351 . S
C523 C524 1.434 . S
C524 C515 1.429 . S
C524 N521 1.350 . S
C524 C523 1.434 . S
C525 C526 1.369 . S
C525 C527 1.419 . S
C525 H529 0.930 . S
C526 C525 1.369 . S
C526 C535 1.429 . S
C527 C525 1.419 . S
C527 C528 1.363 . S
C527 H530 0.929 . S
C528 C527 1.363 . S
C528 C534 1.428 . S
H529 C525 0.930 . S
H530 C527 0.929 . S
S531 N532 1.613 . S
S531 N533 1.610 . S
N532 S531 1.613 . S
N532 C535 1.350 . S
N533 S531 1.610 . S
N533 C534 1.351 . S
C534 C528 1.428 . S
C534 N533 1.351 . S
C534 C535 1.434 . S
C535 C526 1.429 . S
C535 N532 1.350 . S
C535 C534 1.434 . S
C536 C537 1.369 . S
C536 C538 1.419 . S
C536 H540 0.930 . S
C537 C536 1.369 . S
C537 C546 1.429 . S
C538 C536 1.419 . S
C538 C539 1.363 . S
C538 H541 0.929 . S
C539 C538 1.363 . S
C539 C545 1.428 . S
H540 C536 0.930 . S
H541 C538 0.929 . S
S542 N543 1.613 . S
S542 N544 1.610 . S
N543 S542 1.613 . S
N543 C546 1.350 . S
N544 S542 1.610 . S
N544 C545 1.351 . S
C545 C539 1.428 . S
C545 N544 1.351 . S
C545 C546 1.434 . S
C546 C537 1.429 . S
C546 N543 1.350 . S
C546 C545 1.434 . S
C547 C548 1.369 . S
C547 C549 1.419 . S
C547 H551 0.930 . S
C548 C547 1.369 . S
C548 C557 1.429 . S
C549 C547 1.419 . S
C549 C550 1.363 . S
C549 H552 0.929 . S
C550 C549 1.363 . S
C550 C556 1.428 . S
H551 C547 0.930 . S
H552 C549 0.929 . S
S553 N554 1.613 . S
S553 N555 1.610 . S
N554 S553 1.613 . S
N554 C557 1.350 . S
N555 S553 1.610 . S
N555 C556 1.351 . S
C556 C550 1.428 . S
C556 N555 1.351 . S
C556 C557 1.434 . S
C557 C548 1.429 . S
C557 N554 1.350 . S
C557 C556 1.434 . S
C558 C559 1.369 . S
C558 C560 1.419 . S
C558 H562 0.930 . S
C559 C558 1.369 . S
C559 C568 1.429 . S
C560 C558 1.419 . S
C560 C561 1.363 . S
C560 H563 0.929 . S
C561 C560 1.363 . S
C561 C567 1.428 . S
H562 C558 0.930 . S
H563 C560 0.929 . S
S564 N565 1.613 . S
S564 N566 1.610 . S
N565 S564 1.613 . S
N565 C568 1.350 . S
N566 S564 1.610 . S
N566 C567 1.351 . S
C567 C561 1.428 . S
C567 N566 1.351 . S
C567 C568 1.434 . S
C568 C559 1.429 . S
C568 N565 1.350 . S
C568 C567 1.434 . S
C569 C570 1.369 . S
C569 C571 1.419 . S
C569 H573 0.930 . S
C570 C569 1.369 . S
C570 C579 1.429 . S
C571 C569 1.419 . S
C571 C572 1.363 . S
C571 H574 0.929 . S
C572 C571 1.363 . S
C572 C578 1.428 . S
H573 C569 0.930 . S
H574 C571 0.929 . S
S575 N576 1.613 . S
S575 N577 1.610 . S
N576 S575 1.613 . S
N576 C579 1.350 . S
N577 S575 1.610 . S
N577 C578 1.351 . S
C578 C572 1.428 . S
C578 N577 1.351 . S
C578 C579 1.434 . S
C579 C570 1.429 . S
C579 N576 1.350 . S
C579 C578 1.434 . S
C273 C3 1.570 . S
C275 C49 1.663 . S
C284 C37 1.560 . S
C286 C15 1.657 . S
C295 C69 1.564 . S
C297 C117 1.657 . S
C306 C105 1.561 . S
C308 C90 1.655 . S
C317 C137 1.562 . S
C319 C192 1.655 . S
C328 C171 1.570 . S
C330 C158 1.655 . S
C339 C260 1.663 . S
C341 C207 1.569 . S
C350 C239 1.567 . S
C352 C219 1.657 . S
C361 C1 2.018 . S
C363 C139 2.010 . S
C372 C173 2.011 . S
C374 C35 2.016 . S
C383 C205 2.009 . S
C385 C71 2.018 . S
C394 C241 2.009 . S
C396 C103 2.018 . S
C405 C255 2.025 . S
C407 C22 1.679 1_556 S
C416 C221 2.021 . S
C418 C56 1.690 . S
C427 C83 1.680 1_554 S
C429 C187 2.023 . S
C438 C153 2.022 . S
C440 C124 1.684 . S
C449 C151 1.688 1_554 S
C451 C119 2.021 . S
C460 C185 1.683 . S
C462 C85 2.023 . S
C471 C51 2.024 . S
C473 C226 1.682 1_556 S
C482 C17 2.023 . S
C484 C253 1.683 . S
C493 C176 1.267 . S
C495 C6 1.271 . S
C504 C40 1.271 . S
C506 C142 1.267 . S
C515 C244 1.269 . S
C517 C96 1.272 . S
C526 C108 1.271 . S
C528 C232 1.268 . S
C537 C164 1.271 . S
C539 C62 1.268 . S
C548 C28 1.266 . S
C550 C198 1.271 . S
C559 C130 1.267 . S
C561 C210 1.271 . S
C570 C266 1.271 . S
C572 C74 1.268 . S
