# Generated by pormake.
# Topology ure, (4)-cn, num edge types: 1
# Building blocks:
#     Node 0, Type 0, BuildingBlock: UXUYUI_clean_sbu_0, # of connection points: 4
#     Node 1, Type 0, BuildingBlock: UXUYUI_clean_sbu_0, # of connection points: 4
#     Node 2, Type 0, BuildingBlock: UXUYUI_clean_sbu_0, # of connection points: 4
#     Node 3, Type 0, BuildingBlock: UXUYUI_clean_sbu_0, # of connection points: 4
#     Node 4, Type 0, BuildingBlock: UXUYUI_clean_sbu_0, # of connection points: 4
#     Node 5, Type 0, BuildingBlock: UXUYUI_clean_sbu_0, # of connection points: 4
#     Node 6, Type 0, BuildingBlock: UXUYUI_clean_sbu_0, # of connection points: 4
#     Node 7, Type 0, BuildingBlock: UXUYUI_clean_sbu_0, # of connection points: 4
#     Node 8, Type 0, BuildingBlock: UXUYUI_clean_sbu_0, # of connection points: 4
#     Node 9, Type 0, BuildingBlock: UXUYUI_clean_sbu_0, # of connection points: 4
#     Node 10, Type 0, BuildingBlock: UXUYUI_clean_sbu_0, # of connection points: 4
#     Node 11, Type 0, BuildingBlock: UXUYUI_clean_sbu_0, # of connection points: 4
#     Node 12, Type 0, BuildingBlock: UXUYUI_clean_sbu_0, # of connection points: 4
#     Node 13, Type 0, BuildingBlock: UXUYUI_clean_sbu_0, # of connection points: 4
#     Node 14, Type 0, BuildingBlock: UXUYUI_clean_sbu_0, # of connection points: 4
#     Node 15, Type 0, BuildingBlock: UXUYUI_clean_sbu_0, # of connection points: 4
#     Edge 16, Type (0, 0), BuildingBlock: AJUNOK_clean_linker_0, # of connection points: 2
#     Edge 17, Type (0, 0), BuildingBlock: AJUNOK_clean_linker_0, # of connection points: 2
#     Edge 18, Type (0, 0), BuildingBlock: AJUNOK_clean_linker_0, # of connection points: 2
#     Edge 19, Type (0, 0), BuildingBlock: AJUNOK_clean_linker_0, # of connection points: 2
#     Edge 20, Type (0, 0), BuildingBlock: AJUNOK_clean_linker_0, # of connection points: 2
#     Edge 21, Type (0, 0), BuildingBlock: AJUNOK_clean_linker_0, # of connection points: 2
#     Edge 22, Type (0, 0), BuildingBlock: AJUNOK_clean_linker_0, # of connection points: 2
#     Edge 23, Type (0, 0), BuildingBlock: AJUNOK_clean_linker_0, # of connection points: 2
#     Edge 24, Type (0, 0), BuildingBlock: AJUNOK_clean_linker_0, # of connection points: 2
#     Edge 25, Type (0, 0), BuildingBlock: AJUNOK_clean_linker_0, # of connection points: 2
#     Edge 26, Type (0, 0), BuildingBlock: AJUNOK_clean_linker_0, # of connection points: 2
#     Edge 27, Type (0, 0), BuildingBlock: AJUNOK_clean_linker_0, # of connection points: 2
#     Edge 28, Type (0, 0), BuildingBlock: AJUNOK_clean_linker_0, # of connection points: 2
#     Edge 29, Type (0, 0), BuildingBlock: AJUNOK_clean_linker_0, # of connection points: 2
#     Edge 30, Type (0, 0), BuildingBlock: AJUNOK_clean_linker_0, # of connection points: 2
#     Edge 31, Type (0, 0), BuildingBlock: AJUNOK_clean_linker_0, # of connection points: 2
#     Edge 32, Type (0, 0), BuildingBlock: AJUNOK_clean_linker_0, # of connection points: 2
#     Edge 33, Type (0, 0), BuildingBlock: AJUNOK_clean_linker_0, # of connection points: 2
#     Edge 34, Type (0, 0), BuildingBlock: AJUNOK_clean_linker_0, # of connection points: 2
#     Edge 35, Type (0, 0), BuildingBlock: AJUNOK_clean_linker_0, # of connection points: 2
#     Edge 36, Type (0, 0), BuildingBlock: AJUNOK_clean_linker_0, # of connection points: 2
#     Edge 37, Type (0, 0), BuildingBlock: AJUNOK_clean_linker_0, # of connection points: 2
#     Edge 38, Type (0, 0), BuildingBlock: AJUNOK_clean_linker_0, # of connection points: 2
#     Edge 39, Type (0, 0), BuildingBlock: AJUNOK_clean_linker_0, # of connection points: 2
#     Edge 40, Type (0, 0), BuildingBlock: AJUNOK_clean_linker_0, # of connection points: 2
#     Edge 41, Type (0, 0), BuildingBlock: AJUNOK_clean_linker_0, # of connection points: 2
#     Edge 42, Type (0, 0), BuildingBlock: AJUNOK_clean_linker_0, # of connection points: 2
#     Edge 43, Type (0, 0), BuildingBlock: AJUNOK_clean_linker_0, # of connection points: 2
#     Edge 44, Type (0, 0), BuildingBlock: AJUNOK_clean_linker_0, # of connection points: 2
#     Edge 45, Type (0, 0), BuildingBlock: AJUNOK_clean_linker_0, # of connection points: 2
#     Edge 46, Type (0, 0), BuildingBlock: AJUNOK_clean_linker_0, # of connection points: 2
#     Edge 47, Type (0, 0), BuildingBlock: AJUNOK_clean_linker_0, # of connection points: 2
# Relax obj value: 0.164
# Max RMSD: 0.090
# Mean RMSD: 0.090
data_MOF--net-ure--node1-UXUYUI_clean_sbu_0--edge1-AJUNOK_clean_linker_0
_symmetry_space_group_name_H-M    P1
_symmetry_Int_Tables_number       1
_symmetry_cell_setting            triclinic
loop_
_symmetry_equiv_pos_as_xyz
'x, y, z'
_cell_length_a     38.163919
_cell_length_b     38.059825
_cell_length_c     38.09428
_cell_angle_alpha  90.022128
_cell_angle_beta   90.092851
_cell_angle_gamma 90.195821
loop_
_atom_site_label
_atom_site_type_symbol
_atom_site_fract_x
_atom_site_fract_y
_atom_site_fract_z
_atom_type_partial_charge
Li0 Li 0.26294 0.3106 0.26758 0.0
Li1 Li 0.26413 0.26395 0.30931 0.0
Li2 Li 0.30856 0.26549 0.26549 0.0
Li3 Li 0.24686 0.24828 0.25061 0.0
C4 C 0.32552 0.3261 0.30017 0.0
N5 N 0.37779 0.37639 0.2952 0.0
C6 C 0.34246 0.33835 0.3304 0.0
C7 C 0.33514 0.33963 0.2674 0.0
C8 C 0.36883 0.36372 0.32734 0.0
C9 C 0.36161 0.36499 0.26545 0.0
C10 C 0.19564 0.28548 0.30502 0.0
C11 C 0.13884 0.268 0.32656 0.0
N12 N 0.14063 0.29377 0.35126 0.0
C13 C 0.19684 0.31196 0.33043 0.0
C14 C 0.16638 0.26341 0.30288 0.0
C15 C 0.1688 0.31564 0.35366 0.0
C16 C 0.24325 0.37253 0.22967 0.0
N17 N 0.25351 0.3594 0.26122 0.0
C18 C 0.25627 0.41711 0.2858 0.0
C19 C 0.25931 0.38079 0.28922 0.0
C20 C 0.24665 0.43171 0.25335 0.0
C21 C 0.23932 0.40883 0.22521 0.0
H22 H 0.23859 0.35488 0.20789 0.0
H23 H 0.26727 0.36969 0.31409 0.0
C24 C 0.28522 0.26323 0.37927 0.0
N25 N 0.25752 0.25445 0.35856 0.0
C26 C 0.28312 0.2598 0.41566 0.0
C27 C 0.22448 0.23667 0.40894 0.0
C28 C 0.22774 0.24058 0.37259 0.0
C29 C 0.25222 0.24696 0.43099 0.0
H30 H 0.30896 0.27319 0.36748 0.0
H31 H 0.20642 0.23261 0.35572 0.0
C32 C 0.28782 0.26933 0.19377 0.0
N33 N 0.30586 0.24139 0.12937 0.0
C34 C 0.29841 0.23429 0.1912 0.0
C35 C 0.28642 0.29016 0.16361 0.0
C36 C 0.30739 0.22065 0.1584 0.0
C37 C 0.29567 0.27555 0.13129 0.0
C38 C 0.27529 0.19714 0.30434 0.0
C39 C 0.30245 0.18468 0.32554 0.0
C40 C 0.24155 0.18323 0.30811 0.0
C41 C 0.29535 0.15859 0.35035 0.0
C42 C 0.23554 0.1571 0.33315 0.0
N43 N 0.26233 0.14545 0.3536 0.0
C44 C 0.37667 0.2509 0.28671 0.0
C45 C 0.37406 0.26889 0.22722 0.0
C46 C 0.41323 0.25097 0.28581 0.0
N47 N 0.35786 0.25982 0.25775 0.0
C48 C 0.41065 0.26927 0.22515 0.0
C49 C 0.43067 0.26087 0.25492 0.0
H50 H 0.36324 0.24512 0.31099 0.0
H51 H 0.35881 0.27734 0.20491 0.0
C52 C 0.19014 0.23459 0.20379 0.0
N53 N 0.21777 0.21976 0.22072 0.0
C54 C 0.16874 0.21427 0.18176 0.0
C55 C 0.20451 0.16378 0.19513 0.0
C56 C 0.22533 0.18509 0.21667 0.0
C57 C 0.17586 0.17833 0.17707 0.0
H58 H 0.18477 0.26225 0.20736 0.0
H59 H 0.24751 0.1739 0.23031 0.0
O60 O 0.30014 0.30062 0.30281 0.0
O61 O 0.22281 0.28131 0.28211 0.0
O62 O 0.27852 0.28324 0.22551 0.0
O63 O 0.28146 0.22326 0.28045 0.0
H64 H 0.33538 0.3284 0.35601 0.0
H65 H 0.32247 0.33067 0.24365 0.0
H66 H 0.38219 0.37332 0.35053 0.0
H67 H 0.36933 0.37558 0.24026 0.0
H68 H 0.11608 0.25102 0.32533 0.0
H69 H 0.21938 0.32913 0.33249 0.0
H70 H 0.16508 0.24285 0.28327 0.0
H71 H 0.16946 0.33584 0.37364 0.0
H72 H 0.26235 0.43363 0.30816 0.0
H73 H 0.23084 0.41881 0.2 0.0
H74 H 0.3052 0.26784 0.43169 0.0
H75 H 0.20057 0.22571 0.41967 0.0
H76 H 0.29985 0.21782 0.21427 0.0
H77 H 0.27828 0.31733 0.16519 0.0
H78 H 0.31562 0.19358 0.15602 0.0
H79 H 0.29473 0.29137 0.10772 0.0
H80 H 0.3287 0.19507 0.32298 0.0
H81 H 0.22008 0.19299 0.29235 0.0
H82 H 0.3161 0.14879 0.36702 0.0
H83 H 0.20951 0.14627 0.3365 0.0
H84 H 0.4277 0.24392 0.30924 0.0
H85 H 0.42317 0.27737 0.20095 0.0
H86 H 0.14703 0.22663 0.16828 0.0
H87 H 0.21054 0.13608 0.19305 0.0
Li88 Li 0.99693 0.05547 0.51006 0.0
Li89 Li 0.9531 0.01027 0.51354 0.0
Li90 Li 0.99743 0.01183 0.55761 0.0
Li91 Li 0.01088 0.9922 0.49579 0.0
C92 C 0.96554 0.07522 0.57104 0.0
N93 N 0.97238 0.12988 0.61842 0.0
C94 C 0.9358 0.09225 0.5839 0.0
C95 C 0.99878 0.08615 0.5822 0.0
C96 C 0.93981 0.11979 0.60786 0.0
C97 C 1.00168 0.11377 0.60618 0.0
C98 C 0.95818 0.02427 0.44275 0.0
C99 C 0.93821 0.99587 0.38973 0.0
N100 N 0.91436 0.02193 0.38502 0.0
C101 C 0.93369 0.05092 0.43724 0.0
C102 C 0.96067 0.99661 0.41874 0.0
C103 C 0.91166 0.04919 0.40795 0.0
C104 C 0.03778 0.11742 0.49682 0.0
N105 N 1.00495 0.10374 0.49961 0.0
C106 C 0.9796 0.1608 0.4941 0.0
C107 C 0.9761 0.12453 0.49804 0.0
C108 C 0.01314 0.17588 0.49202 0.0
C109 C 0.04252 0.15371 0.49293 0.0
H110 H 0.06026 0.10027 0.49839 0.0
H111 H 0.95035 0.11301 0.50104 0.0
C112 C 0.88497 0.0119 0.539 0.0
N113 N 0.90306 1.00287 0.50964 0.0
C114 C 0.8485 0.00929 0.53984 0.0
C115 C 0.84965 0.98684 0.48056 0.0
C116 C 0.88618 0.98995 0.48085 0.0
C117 C 0.83036 0.99686 0.51027 0.0
H118 H 0.89893 0.02125 0.56188 0.0
H119 H 0.90085 0.98188 0.4581 0.0
C120 C 0.06867 0.01253 0.53759 0.0
N121 N 0.13145 0.98354 0.55899 0.0
C122 C 0.07117 0.97635 0.54352 0.0
C123 C 0.09807 0.03394 0.54258 0.0
C124 C 0.10317 0.96221 0.55428 0.0
C125 C 0.12957 0.01879 0.55345 0.0
C126 C 0.95422 0.94525 0.53406 0.0
C127 C 0.94014 0.93606 0.56664 0.0
C128 C 0.94069 0.92994 0.50353 0.0
C129 C 0.91245 0.912 0.56811 0.0
C130 C 0.913 0.90598 0.50608 0.0
N131 N 0.89954 0.89761 0.53805 0.0
C132 C 0.97437 0.00766 0.62646 0.0
C133 C 0.03635 0.00628 0.62356 0.0
C134 C 0.97546 0.00765 0.66307 0.0
N135 N 1.00449 0.00703 0.60743 0.0
C136 C 0.03864 0.00591 0.66021 0.0
C137 C 0.0079 0.00681 0.68037 0.0
H138 H 0.94938 0.00897 0.61308 0.0
H139 H 0.06008 0.00693 0.60832 0.0
C140 C 0.06961 0.97701 0.45284 0.0
N141 N 0.04003 0.96278 0.46685 0.0
C142 C 0.0923 0.9564 0.43271 0.0
C143 C 0.05313 0.90714 0.44071 0.0
C144 C 0.03159 0.92849 0.46127 0.0
C145 C 0.08434 0.92081 0.42652 0.0
H146 H 0.07585 1.00433 0.45774 0.0
H147 H 0.00819 0.91757 0.47284 0.0
O148 O 0.96189 0.04833 0.54735 0.0
O149 O 0.98021 0.0256 0.47103 0.0
O150 O 0.0378 0.02701 0.52655 0.0
O151 O 0.98097 0.96922 0.53206 0.0
H152 H 0.90988 0.08438 0.57537 0.0
H153 H 0.02217 0.07354 0.57251 0.0
H154 H 0.91704 0.13319 0.61801 0.0
H155 H 0.02723 0.12243 0.61504 0.0
H156 H 0.93973 0.97457 0.371 0.0
H157 H 0.93148 0.07251 0.45554 0.0
H158 H 0.97964 0.97589 0.42252 0.0
H159 H 0.89241 0.06951 0.40347 0.0
H160 H 0.95633 0.17701 0.49386 0.0
H161 H 0.0688 0.16433 0.49099 0.0
H162 H 0.83459 0.01696 0.56338 0.0
H163 H 0.83663 0.97741 0.45709 0.0
H164 H 0.0487 0.95934 0.54 0.0
H165 H 0.09656 0.06198 0.53818 0.0
H166 H 0.10549 0.93428 0.55894 0.0
H167 H 0.15254 0.03505 0.55745 0.0
H168 H 0.95053 0.94726 0.59057 0.0
H169 H 0.95078 0.93723 0.47803 0.0
H170 H 0.90124 0.90474 0.59316 0.0
H171 H 0.90203 0.89426 0.48262 0.0
H172 H 0.95118 0.00843 0.67774 0.0
H173 H 0.06418 0.00596 0.67267 0.0
H174 H 0.11608 0.96812 0.42249 0.0
H175 H 0.04518 0.88025 0.43582 0.0
Li176 Li 0.20299 0.75119 0.76626 0.0
Li177 Li 0.26467 0.76874 0.75083 0.0
Li178 Li 0.2495 0.70674 0.77052 0.0
Li179 Li 0.24745 0.75537 0.81015 0.0
C180 C 0.22343 0.7437 0.69485 0.0
N181 N 0.20376 0.76715 0.62912 0.0
C182 C 0.2159 0.77923 0.68947 0.0
C183 C 0.22101 0.72012 0.66683 0.0
C184 C 0.20602 0.79056 0.65602 0.0
C185 C 0.21097 0.73248 0.63379 0.0
C186 C 0.23105 0.82075 0.8038 0.0
C187 C 0.26474 0.86166 0.83867 0.0
N188 N 0.23472 0.87291 0.85417 0.0
C189 C 0.20053 0.83288 0.8199 0.0
C190 C 0.26342 0.83534 0.81311 0.0
C191 C 0.20293 0.8592 0.84537 0.0
C192 C 0.13478 0.76114 0.78863 0.0
N193 N 0.15343 0.75571 0.75874 0.0
C194 C 0.10042 0.74847 0.72578 0.0
C195 C 0.13704 0.74951 0.72757 0.0
C196 C 0.08063 0.75317 0.75646 0.0
C197 C 0.09824 0.76015 0.78807 0.0
H198 H 0.14841 0.76492 0.81326 0.0
H199 H 0.15213 0.74402 0.70431 0.0
C200 C 0.31375 0.77961 0.6955 0.0
N201 N 0.29364 0.79626 0.71979 0.0
C202 C 0.33472 0.79903 0.67234 0.0
C203 C 0.31426 0.85232 0.69985 0.0
C204 C 0.29325 0.83195 0.72203 0.0
C205 C 0.33523 0.83588 0.67453 0.0
H206 H 0.31338 0.75122 0.69404 0.0
H207 H 0.27643 0.84471 0.74085 0.0
C208 C 0.18727 0.69191 0.80382 0.0
N209 N 0.13604 0.64037 0.80182 0.0
C210 C 0.17145 0.68037 0.83485 0.0
C211 C 0.17706 0.67708 0.77176 0.0
C212 C 0.14561 0.65432 0.83329 0.0
C213 C 0.15111 0.65111 0.77131 0.0
C214 C 0.31695 0.73471 0.80607 0.0
C215 C 0.31733 0.70891 0.83215 0.0
C216 C 0.3455 0.75752 0.80248 0.0
C217 C 0.34622 0.70664 0.85461 0.0
C218 C 0.37392 0.75435 0.82542 0.0
N219 N 0.37366 0.72922 0.85082 0.0
C220 C 0.27098 0.6427 0.73673 0.0
C221 C 0.2539 0.63811 0.7963 0.0
C222 C 0.27598 0.60628 0.7349 0.0
N223 N 0.25986 0.65773 0.76709 0.0
C224 C 0.25774 0.60172 0.79542 0.0
C225 C 0.26905 0.58519 0.76449 0.0
H226 H 0.27549 0.6589 0.71384 0.0
H227 H 0.24516 0.65065 0.82017 0.0
C228 C 0.22482 0.75982 0.87939 0.0
N229 N 0.25343 0.76644 0.85919 0.0
C230 C 0.22641 0.76395 0.91575 0.0
C231 C 0.28645 0.78334 0.90995 0.0
C232 C 0.28367 0.77889 0.87363 0.0
C233 C 0.25778 0.77511 0.93151 0.0
H234 H 0.20082 0.75084 0.86723 0.0
H235 H 0.30573 0.78529 0.85715 0.0
O236 O 0.23355 0.73197 0.72722 0.0
O237 O 0.22934 0.79452 0.77928 0.0
O238 O 0.21221 0.71791 0.80501 0.0
O239 O 0.28897 0.73751 0.78387 0.0
H240 H 0.21754 0.79786 0.71085 0.0
H241 H 0.22681 0.69255 0.67061 0.0
H242 H 0.20011 0.81796 0.65146 0.0
H243 H 0.20894 0.71452 0.61186 0.0
H244 H 0.28964 0.87295 0.84635 0.0
H245 H 0.17524 0.82218 0.81278 0.0
H246 H 0.28738 0.82592 0.80127 0.0
H247 H 0.17952 0.86876 0.85813 0.0
H248 H 0.08773 0.74278 0.70096 0.0
H249 H 0.08391 0.76431 0.81223 0.0
H250 H 0.35066 0.78543 0.6532 0.0
H251 H 0.31373 0.88069 0.70207 0.0
H252 H 0.17905 0.69138 0.85992 0.0
H253 H 0.18889 0.68552 0.74743 0.0
H254 H 0.13318 0.64518 0.85711 0.0
H255 H 0.14292 0.63951 0.74668 0.0
H256 H 0.29538 0.69116 0.83532 0.0
H257 H 0.34557 0.77756 0.78231 0.0
H258 H 0.34679 0.68699 0.87511 0.0
H259 H 0.39614 0.7719 0.82308 0.0
H260 H 0.28478 0.59473 0.71049 0.0
H261 H 0.25078 0.58671 0.81851 0.0
H262 H 0.20364 0.75754 0.93146 0.0
H263 H 0.3108 0.79296 0.92105 0.0
Li264 Li 0.50686 0.99227 0.05342 0.0
Li265 Li 0.51092 0.95165 0.00557 0.0
Li266 Li 0.55438 0.99615 0.00998 0.0
Li267 Li 0.49266 0.0102 0.99095 0.0
C268 C 0.5677 0.96024 0.07164 0.0
N269 N 0.61352 0.964 0.12782 0.0
C270 C 0.57878 0.92957 0.08844 0.0
C271 C 0.57978 0.99287 0.08362 0.0
C272 C 0.60195 0.93201 0.11677 0.0
C273 C 0.60301 0.99419 0.11196 0.0
C274 C 0.44054 0.95437 0.01918 0.0
C275 C 0.38816 0.9352 0.9892 0.0
N276 N 0.38425 0.90896 0.01313 0.0
C277 C 0.43586 0.92743 0.04365 0.0
C278 C 0.41643 0.95849 0.99184 0.0
C279 C 0.4073 0.90464 0.04005 0.0
C280 C 0.49354 0.02882 0.11777 0.0
N281 N 0.49631 0.9969 0.10202 0.0
C282 C 0.49132 0.96768 0.15731 0.0
C283 C 0.49498 0.96664 0.12091 0.0
C284 C 0.48895 1.00022 0.17447 0.0
C285 C 0.48988 0.0311 0.15425 0.0
H286 H 0.49506 0.05247 0.10212 0.0
H287 H 0.49811 0.94166 0.10777 0.0
C288 C 0.53505 0.88279 1.00481 0.0
N289 N 0.50695 0.90221 0.99469 0.0
C290 C 0.53539 0.8465 0.99973 0.0
C291 C 0.47822 0.85061 0.97281 0.0
C292 C 0.47906 0.88694 0.97829 0.0
C293 C 0.50661 0.82993 0.98376 0.0
H294 H 0.55728 0.89553 0.01701 0.0
H295 H 0.45746 0.90279 0.96933 0.0
C296 C 0.53379 0.06752 0.01617 0.0
N297 N 0.55487 0.1332 0.99344 0.0
C298 C 0.53836 0.07404 0.98034 0.0
C299 C 0.54005 0.09438 0.04043 0.0
C300 C 0.54895 0.10744 0.96938 0.0
C301 C 0.55073 0.1274 0.02843 0.0
C302 C 0.52943 0.95711 0.94089 0.0
C303 C 0.56012 0.93848 0.93388 0.0
C304 C 0.49889 0.94941 0.92205 0.0
C305 C 0.55969 0.9122 0.90827 0.0
C306 C 0.49955 0.92301 0.89657 0.0
N307 N 0.52966 0.90507 0.8903 0.0
C308 C 0.62343 0.97413 0.00588 0.0
C309 C 0.61962 0.03607 1.00182 0.0
C310 C 0.6599 0.97571 1.00423 0.0
N311 N 0.604 1.00399 1.00472 0.0
C312 C 0.6561 0.03883 0.99949 0.0
C313 C 0.67676 0.00836 1.00059 0.0
H314 H 0.61051 0.94896 0.00876 0.0
H315 H 0.60413 0.05964 1.00169 0.0
C316 C 0.43885 0.06003 0.97919 0.0
N317 N 0.46331 0.03999 0.96282 0.0
C318 C 0.41708 0.08224 0.95971 0.0
C319 C 0.44611 0.06288 0.90688 0.0
C320 C 0.46746 0.04122 0.92738 0.0
C321 C 0.42032 0.08364 0.92296 0.0
H322 H 0.43641 0.05887 0.00746 0.0
H323 H 0.4875 0.02555 0.915 0.0
O324 O 0.54439 0.95812 0.0443 0.0
O325 O 0.46812 0.97714 0.02236 0.0
O326 O 0.52289 0.03521 0.02756 0.0
O327 O 0.52909 0.98231 0.96649 0.0
H328 H 0.56935 0.90412 0.07989 0.0
H329 H 0.57132 0.01696 0.0713 0.0
H330 H 0.61061 0.90848 0.13006 0.0
H331 H 0.6126 0.01925 0.12142 0.0
H332 H 0.36937 0.93796 0.9681 0.0
H333 H 0.45426 0.92393 0.06497 0.0
H334 H 0.4196 0.97932 0.97277 0.0
H335 H 0.40346 0.8835 0.05865 0.0
H336 H 0.49169 0.94332 0.17199 0.0
H337 H 0.48827 0.05669 0.16658 0.0
H338 H 0.55762 0.83148 0.00897 0.0
H339 H 0.45567 0.8388 0.9601 0.0
H340 H 0.53437 0.05341 0.96123 0.0
H341 H 0.53679 0.08974 0.06826 0.0
H342 H 0.55264 0.11283 0.94175 0.0
H343 H 0.5557 0.14841 0.04692 0.0
H344 H 0.58397 0.94409 0.9482 0.0
H345 H 0.47474 0.96315 0.92755 0.0
H346 H 0.58321 0.89744 0.9027 0.0
H347 H 0.47605 0.91659 0.88197 0.0
H348 H 0.67471 0.9516 0.00647 0.0
H349 H 0.66801 0.06456 0.99686 0.0
H350 H 0.39824 0.09846 0.97335 0.0
H351 H 0.44958 0.06315 0.87867 0.0
Li352 Li 0.25352 0.76865 0.26828 0.0
Li353 Li 0.26703 0.70739 0.24503 0.0
Li354 Li 0.31284 0.75141 0.25189 0.0
Li355 Li 0.27161 0.75761 0.20482 0.0
C356 C 0.30728 0.72472 0.31442 0.0
N357 N 0.36003 0.71348 0.36287 0.0
C358 C 0.32317 0.69179 0.31692 0.0
C359 C 0.31817 0.75193 0.3366 0.0
C360 C 0.34982 0.68664 0.34156 0.0
C361 C 0.34487 0.74571 0.36094 0.0
C362 C 0.19804 0.72253 0.23012 0.0
C363 C 0.15736 0.68252 0.20236 0.0
N364 N 0.13552 0.6856 0.23036 0.0
C365 C 0.1752 0.72522 0.25866 0.0
C366 C 0.18905 0.701 0.20172 0.0
C367 C 0.14371 0.70639 0.25825 0.0
C368 C 0.19866 0.81652 0.28275 0.0
N369 N 0.22333 0.79584 0.29804 0.0
C370 C 0.20466 0.81403 0.35517 0.0
C371 C 0.22654 0.79412 0.33355 0.0
C372 C 0.17841 0.83519 0.34023 0.0
C373 C 0.17573 0.83633 0.30341 0.0
H374 H 0.19655 0.8173 0.25443 0.0
H375 H 0.24608 0.77728 0.34517 0.0
C376 C 0.28626 0.63741 0.23839 0.0
N377 N 0.25847 0.65766 0.24761 0.0
C378 C 0.28338 0.60089 0.23788 0.0
C379 C 0.22336 0.60626 0.25703 0.0
C380 C 0.2276 0.6428 0.2577 0.0
C381 C 0.25137 0.5848 0.24654 0.0
H382 H 0.3109 0.64971 0.23155 0.0
H383 H 0.20621 0.6591 0.26625 0.0
C384 C 0.30939 0.82225 0.24639 0.0
N385 N 0.35369 0.87743 0.26301 0.0
C386 C 0.33795 0.83013 0.22481 0.0
C387 C 0.30328 0.84256 0.27634 0.0
C388 C 0.36009 0.85808 0.2337 0.0
C389 C 0.32599 0.87032 0.2843 0.0
C390 C 0.3123 0.70715 0.17957 0.0
C391 C 0.34317 0.7174 0.16263 0.0
C392 C 0.28854 0.68514 0.16221 0.0
C393 C 0.34962 0.70561 0.1285 0.0
C394 C 0.29593 0.67394 0.12809 0.0
N395 N 0.32605 0.68433 0.11208 0.0
C396 C 0.38138 0.72683 0.24964 0.0
C397 C 0.37784 0.77964 0.28225 0.0
C398 C 0.41765 0.72594 0.25393 0.0
N399 N 0.36228 0.75384 0.26291 0.0
C400 C 0.41415 0.77967 0.28742 0.0
C401 C 0.43458 0.7527 0.27287 0.0
H402 H 0.36849 0.70602 0.23525 0.0
H403 H 0.36224 0.80026 0.29369 0.0
C404 C 0.23546 0.76407 0.13948 0.0
N405 N 0.26599 0.77086 0.15668 0.0
C406 C 0.23353 0.76773 0.10301 0.0
C407 C 0.29378 0.78744 0.10295 0.0
C408 C 0.29452 0.7834 0.13934 0.0
C409 C 0.26333 0.77849 0.08424 0.0
H410 H 0.21298 0.75463 0.15386 0.0
H411 H 0.31847 0.78855 0.15351 0.0
O412 O 0.28175 0.73048 0.28986 0.0
O413 O 0.22886 0.74106 0.2299 0.0
O414 O 0.28711 0.79528 0.23795 0.0
O415 O 0.30513 0.71904 0.21274 0.0
H416 H 0.31516 0.67049 0.29989 0.0
H417 H 0.30678 0.77782 0.33448 0.0
H418 H 0.36243 0.66131 0.34369 0.0
H419 H 0.35374 0.7666 0.37807 0.0
H420 H 0.15015 0.6657 0.1806 0.0
H421 H 0.18176 0.74139 0.28105 0.0
H422 H 0.20639 0.69833 0.1795 0.0
H423 H 0.12584 0.70821 0.28019 0.0
H424 H 0.20858 0.81304 0.3833 0.0
H425 H 0.15586 0.85208 0.29066 0.0
H426 H 0.30618 0.58544 0.23118 0.0
H427 H 0.19836 0.59496 0.26442 0.0
H428 H 0.34337 0.81451 0.20179 0.0
H429 H 0.28131 0.83696 0.29333 0.0
H430 H 0.38242 0.86432 0.21737 0.0
H431 H 0.32162 0.8862 0.30743 0.0
H432 H 0.3617 0.73476 0.17546 0.0
H433 H 0.26456 0.67692 0.17487 0.0
H434 H 0.37329 0.71352 0.115 0.0
H435 H 0.27768 0.65701 0.11433 0.0
H436 H 0.43232 0.70499 0.24165 0.0
H437 H 0.42614 0.80064 0.3025 0.0
H438 H 0.2095 0.76076 0.08951 0.0
H439 H 0.31708 0.79654 0.08949 0.0
Li440 Li 0.55532 0.00909 0.49341 0.0
Li441 Li 0.51301 0.05445 0.49551 0.0
Li442 Li 0.49742 0.99167 0.51167 0.0
Li443 Li 0.51031 0.00954 0.44942 0.0
C444 C 0.55345 0.01906 0.56135 0.0
N445 N 0.60362 1.00544 0.61187 0.0
C446 C 0.57967 0.0438 0.56847 0.0
C447 C 0.55254 0.98754 0.58015 0.0
C448 C 0.60487 0.03636 0.59403 0.0
C449 C 0.57817 0.98113 0.60556 0.0
C450 C 0.54296 0.07058 0.43199 0.0
C451 C 0.50629 0.10935 0.39788 0.0
N452 N 0.53495 0.12059 0.37989 0.0
C453 C 0.57199 0.08236 0.41289 0.0
C454 C 0.50976 0.08402 0.42416 0.0
C455 C 0.56743 0.10769 0.38676 0.0
C456 C 0.61987 0.97574 0.51856 0.0
N457 N 0.6052 1.0027 0.50027 0.0
C458 C 0.66195 0.0268 0.48836 0.0
C459 C 0.62553 0.02832 0.48591 0.0
C460 C 0.6778 0.99867 0.50595 0.0
C461 C 0.65632 0.97304 0.5215 0.0
H462 H 0.60345 0.95651 0.53128 0.0
H463 H 0.61344 0.05021 0.47274 0.0
C464 C 0.47571 0.11975 0.50139 0.0
N465 N 0.50729 0.10353 0.5042 0.0
C466 C 0.47367 0.15644 0.50284 0.0
C467 C 0.53644 0.1588 0.51119 0.0
C468 C 0.53732 0.1222 0.50918 0.0
C469 C 0.50442 0.17637 0.50735 0.0
H470 H 0.45234 0.10431 0.49677 0.0
H471 H 0.56216 0.10869 0.51018 0.0
C472 C 0.55057 0.94064 0.47726 0.0
N473 N 0.59762 0.88555 0.47921 0.0
C474 C 0.57447 0.93587 0.44991 0.0
C475 C 0.55063 0.91729 0.5056 0.0
C476 C 0.59809 0.90794 0.45141 0.0
C477 C 0.57455 0.88958 0.50607 0.0
C478 C 0.43934 0.01125 0.47264 0.0
C479 C 0.43755 0.97639 0.46112 0.0
C480 C 0.40849 0.0305 0.47668 0.0
C481 C 0.4049 0.96142 0.45371 0.0
C482 C 0.37634 0.0146 0.46894 0.0
N483 N 0.37522 0.98068 0.45774 0.0
C484 C 0.45289 0.97703 0.56987 0.0
C485 C 0.46109 0.92872 0.53164 0.0
C486 C 0.43074 0.95693 0.59126 0.0
N487 N 0.46765 0.96268 0.54076 0.0
C488 C 0.43955 0.90755 0.55253 0.0
C489 C 0.42371 0.92161 0.58272 0.0
H490 H 0.45823 1.00419 0.5764 0.0
H491 H 0.47267 0.91794 0.50812 0.0
C492 C 0.52987 0.9988 0.3797 0.0
N493 N 0.50104 1.00395 0.39997 0.0
C494 C 0.52705 0.99768 0.3432 0.0
C495 C 0.46487 0.00775 0.34866 0.0
C496 C 0.46894 0.00892 0.38514 0.0
C497 C 0.49422 1.00211 0.32725 0.0
H498 H 0.55536 0.99688 0.39186 0.0
H499 H 0.4466 0.01504 0.40127 0.0
O500 O 0.52892 0.0255 0.53596 0.0
O501 O 0.54707 0.04536 0.4574 0.0
O502 O 0.52699 0.96768 0.47607 0.0
O503 O 0.47096 0.02626 0.48081 0.0
H504 H 0.5808 0.06829 0.55417 0.0
H505 H 0.53246 0.96809 0.57499 0.0
H506 H 0.62548 0.05514 0.59961 0.0
H507 H 0.5779 0.95676 0.62017 0.0
H508 H 0.48077 0.12 0.39171 0.0
H509 H 0.59782 0.07189 0.4179 0.0
H510 H 0.48679 0.07495 0.43801 0.0
H511 H 0.58971 0.11701 0.37186 0.0
H512 H 0.6776 0.0473 0.47631 0.0
H513 H 0.66755 0.95148 0.5362 0.0
H514 H 0.44847 0.16914 0.49995 0.0
H515 H 0.56071 0.17332 0.51433 0.0
H516 H 0.57502 0.95364 0.42787 0.0
H517 H 0.53296 0.92084 0.52741 0.0
H518 H 0.6168 0.90408 0.43048 0.0
H519 H 0.57497 0.87146 0.52793 0.0
H520 H 0.46111 0.9611 0.45767 0.0
H521 H 0.40935 0.05742 0.48577 0.0
H522 H 0.40316 0.9345 0.44474 0.0
H523 H 0.35226 0.02921 0.47192 0.0
H524 H 0.41898 0.96903 0.6141 0.0
H525 H 0.43576 0.8803 0.54526 0.0
H526 H 0.55039 0.99371 0.32755 0.0
H527 H 0.43927 0.01237 0.33728 0.0
Li528 Li 0.26159 0.24797 0.76719 0.0
Li529 Li 0.24681 0.30972 0.74878 0.0
Li530 Li 0.20099 0.26385 0.75375 0.0
Li531 Li 0.24245 0.26284 0.70524 0.0
C532 C 0.20903 0.29129 0.81787 0.0
N533 N 0.16033 0.30699 0.86912 0.0
C534 C 0.1996 0.32618 0.82423 0.0
C535 C 0.19401 0.26444 0.83792 0.0
C536 C 0.17487 0.33357 0.85018 0.0
C537 C 0.16933 0.2729 0.86359 0.0
C538 C 0.31494 0.29828 0.7301 0.0
C539 C 0.34981 0.34443 0.70421 0.0
N540 N 0.37492 0.33912 0.72901 0.0
C541 C 0.34111 0.29323 0.75529 0.0
C542 C 0.31932 0.32401 0.70427 0.0
C543 C 0.37125 0.31415 0.75429 0.0
C544 C 0.31383 0.19634 0.77987 0.0
N545 N 0.29142 0.21918 0.79553 0.0
C546 C 0.30966 0.19982 0.85244 0.0
C547 C 0.28918 0.22148 0.83109 0.0
C548 C 0.33279 0.1757 0.83705 0.0
C549 C 0.33503 0.17437 0.80026 0.0
H550 H 0.31504 0.19505 0.75153 0.0
H551 H 0.27123 0.23997 0.84287 0.0
C552 C 0.2292 0.38058 0.74313 0.0
N553 N 0.25545 0.35918 0.75415 0.0
C554 C 0.2328 0.417 0.74515 0.0
C555 C 0.29054 0.40905 0.76984 0.0
C556 C 0.28548 0.37266 0.76807 0.0
C557 C 0.26389 0.43182 0.75839 0.0
H558 H 0.2052 0.36933 0.73299 0.0
H559 H 0.30568 0.35526 0.77752 0.0
C560 C 0.216 0.18996 0.74287 0.0
N561 N 0.19204 0.12294 0.75747 0.0
C562 C 0.20446 0.16808 0.7157 0.0
C563 C 0.21566 0.17762 0.77742 0.0
C564 C 0.19233 0.13433 0.72363 0.0
C565 C 0.20339 0.14369 0.78427 0.0
C566 C 0.19386 0.309 0.68549 0.0
C567 C 0.16133 0.29577 0.6748 0.0
C568 C 0.21249 0.33158 0.66334 0.0
C569 C 0.14813 0.3051 0.64186 0.0
C570 C 0.19842 0.34022 0.6306 0.0
N571 N 0.16682 0.3269 0.62062 0.0
C572 C 0.13467 0.28918 0.76984 0.0
C573 C 0.13465 0.22736 0.76278 0.0
C574 C 0.09841 0.28921 0.77451 0.0
N575 N 0.15206 0.25858 0.76416 0.0
C576 C 0.09828 0.22622 0.7669 0.0
C577 C 0.07964 0.25747 0.77271 0.0
H578 H 0.14893 0.31378 0.76979 0.0
H579 H 0.14854 0.20341 0.7573 0.0
C580 C 0.27561 0.26227 0.63829 0.0
N581 N 0.24643 0.25266 0.65635 0.0
C582 C 0.27657 0.25898 0.60177 0.0
C583 C 0.21801 0.23467 0.60329 0.0
C584 C 0.2182 0.23837 0.63976 0.0
C585 C 0.2472 0.24574 0.58379 0.0
H586 H 0.29778 0.27332 0.65209 0.0
H587 H 0.19534 0.23094 0.65477 0.0
O588 O 0.23279 0.28351 0.79214 0.0
O589 O 0.28535 0.27794 0.7306 0.0
O590 O 0.22791 0.22308 0.73549 0.0
O591 O 0.20759 0.29961 0.71733 0.0
H592 H 0.21108 0.34734 0.80922 0.0
H593 H 0.20105 0.23734 0.83358 0.0
H594 H 0.16721 0.36044 0.85524 0.0
H595 H 0.15731 0.25234 0.87909 0.0
H596 H 0.35347 0.36456 0.6845 0.0
H597 H 0.33815 0.27345 0.77547 0.0
H598 H 0.29923 0.32844 0.68473 0.0
H599 H 0.39169 0.31059 0.77366 0.0
H600 H 0.30759 0.20205 0.88071 0.0
H601 H 0.35253 0.1561 0.78741 0.0
H602 H 0.21128 0.43341 0.7366 0.0
H603 H 0.31525 0.41913 0.77961 0.0
H604 H 0.2048 0.17706 0.68878 0.0
H605 H 0.22469 0.19401 0.79871 0.0
H606 H 0.18318 0.11718 0.70287 0.0
H607 H 0.2029 0.13386 0.81091 0.0
H608 H 0.14663 0.27816 0.69155 0.0
H609 H 0.23766 0.34207 0.67127 0.0
H610 H 0.1231 0.29489 0.63313 0.0
H611 H 0.21265 0.35749 0.61309 0.0
H612 H 0.08512 0.31393 0.77883 0.0
H613 H 0.08481 0.20128 0.76419 0.0
H614 H 0.2996 0.26777 0.58765 0.0
H615 H 0.19511 0.22369 0.59046 0.0
Li616 Li 0.99706 1.0054 0.95565 0.0
Li617 Li 0.01063 0.02213 0.0179 0.0
Li618 Li 0.9946 0.95986 1.00125 0.0
Li619 Li 0.95224 0.00661 0.99963 0.0
C620 C 0.06816 1.00194 0.9767 0.0
N621 N 0.1321 0.03064 0.95814 0.0
C622 C 0.07117 0.03799 0.97022 0.0
C623 C 0.09767 0.98051 0.97375 0.0
C624 C 0.10373 0.05199 0.9609 0.0
C625 C 0.12975 0.99551 0.96429 0.0
C626 C 0.95567 0.07215 0.98336 0.0
C627 C 0.91615 0.10924 0.01583 0.0
N628 N 0.90218 0.12085 0.9851 0.0
C629 C 0.94112 0.08465 0.9521 0.0
C630 C 0.94329 0.08471 0.0155 0.0
C631 C 0.91403 0.10921 0.95354 0.0
C632 C 0.97499 0.01546 0.88697 0.0
N633 N 1.00474 0.01135 0.90619 0.0
C634 C 0.03904 0.00847 0.85372 0.0
C635 C 0.03648 0.00786 0.89033 0.0
C636 C 0.0086 0.01202 0.83325 0.0
C637 C 0.97631 0.01599 0.85038 0.0
H638 H 0.94997 0.0171 0.90014 0.0
H639 H 0.05976 1.00359 0.90579 0.0
C640 C 0.06549 0.03451 0.06694 0.0
N641 N 0.0401 0.05044 0.04762 0.0
C642 C 0.08814 0.0545 0.08796 0.0
C643 C 0.05784 0.10688 0.06921 0.0
C644 C 0.03601 0.08594 0.0483 0.0
C645 C 0.0845 0.09121 0.08919 0.0
H646 H 0.06828 0.00625 0.06579 0.0
H647 H 0.01605 0.09808 0.03229 0.0
C648 C 0.96103 0.94453 0.93911 0.0
N649 N 0.96254 0.89268 0.88834 0.0
C650 C 0.92978 0.9315 0.92494 0.0
C651 C 0.99306 0.93112 0.92751 0.0
C652 C 0.93109 0.90529 0.89928 0.0
C653 C 0.99327 0.90494 0.9018 0.0
C654 C 0.9589 0.98925 0.07107 0.0
C655 C 0.93625 0.96135 0.07868 0.0
C656 C 0.96178 0.01738 0.09453 0.0
C657 C 0.91632 0.96236 0.1094 0.0
C658 C 0.94143 0.01739 0.12499 0.0
N659 N 0.91928 0.99013 0.13171 0.0
C660 C 0.03146 0.89489 0.01065 0.0
C661 C 0.9694 0.89188 0.01002 0.0
C662 C 0.0336 0.85822 0.01223 0.0
N663 N 0.99965 0.91081 0.00925 0.0
C664 C 0.9703 0.8553 0.01169 0.0
C665 C 1.00268 0.838 0.01221 0.0
H666 H 0.0551 0.9106 0.00964 0.0
H667 H 0.9445 0.90523 0.00806 0.0
C668 C 0.88595 0.01244 0.97145 0.0
N669 N 0.90248 0.01437 1.00303 0.0
C670 C 0.8495 0.01387 0.96941 0.0
C671 C 0.84744 0.02038 0.03241 0.0
C672 C 0.88407 0.01949 0.03316 0.0
C673 C 0.82964 0.01657 1.00028 0.0
H674 H 0.90118 0.00922 0.94777 0.0
H675 H 0.89748 0.02234 0.05788 0.0
O676 O 0.03668 0.9876 0.98631 0.0
O677 O 0.98161 0.04743 0.98255 0.0
O678 O 0.96004 0.9702 0.96428 0.0
O679 O 0.97885 0.98865 0.04132 0.0
H680 H 0.04866 0.05502 0.97223 0.0
H681 H 0.09579 0.95256 0.97867 0.0
H682 H 0.10644 0.07983 0.95581 0.0
H683 H 0.1528 0.97922 0.96187 0.0
H684 H 0.9061 0.11894 0.04053 0.0
H685 H 0.95063 0.07552 0.927 0.0
H686 H 0.95413 0.07518 0.03993 0.0
H687 H 0.90243 0.119 0.92955 0.0
H688 H 0.06452 0.00581 0.84157 0.0
H689 H 0.95216 0.01839 0.83561 0.0
H690 H 0.10811 0.04138 0.10329 0.0
H691 H 0.05435 0.13511 0.06928 0.0
H692 H 0.90476 0.9415 0.93371 0.0
H693 H 0.01753 0.94079 0.93819 0.0
H694 H 0.90711 0.89497 0.88809 0.0
H695 H 0.01786 0.89436 0.89257 0.0
H696 H 0.93385 0.93931 0.06093 0.0
H697 H 0.97948 0.039 0.08926 0.0
H698 H 0.89849 0.94108 0.1155 0.0
H699 H 0.94325 0.03906 0.1433 0.0
H700 H 0.05907 0.8458 0.01304 0.0
H701 H 0.94592 0.84064 0.01129 0.0
H702 H 0.83703 0.01241 0.9439 0.0
H703 H 0.83321 0.02298 0.05684 0.0
Li704 Li 0.74692 0.26554 0.76245 0.0
Li705 Li 0.76233 0.20429 0.74366 0.0
Li706 Li 0.80598 0.24911 0.74817 0.0
Li707 Li 0.76514 0.25167 0.70028 0.0
C708 C 0.80053 0.23184 0.81334 0.0
N709 N 0.85144 0.23608 0.86487 0.0
C710 C 0.81778 0.20154 0.82464 0.0
C711 C 0.80895 0.26425 0.82851 0.0
C712 C 0.84352 0.20424 0.85064 0.0
C713 C 0.83479 0.26586 0.85447 0.0
C714 C 0.69099 0.22386 0.7394 0.0
C715 C 0.62961 0.21069 0.73151 0.0
N716 N 0.62707 0.20264 0.76619 0.0
C717 C 0.68777 0.21542 0.77499 0.0
C718 C 0.66168 0.22151 0.71747 0.0
C719 C 0.65524 0.20478 0.78802 0.0
C720 C 0.69371 0.31606 0.77438 0.0
N721 N 0.71631 0.29381 0.79069 0.0
C722 C 0.69551 0.31217 0.84702 0.0
C723 C 0.71734 0.29127 0.8263 0.0
C724 C 0.67193 0.33537 0.83093 0.0
C725 C 0.67108 0.33712 0.79411 0.0
H726 H 0.69335 0.31746 0.74602 0.0
H727 H 0.73501 0.27293 0.83867 0.0
C728 C 0.78484 0.13563 0.75365 0.0
N729 N 0.75517 0.15444 0.74784 0.0
C730 C 0.78383 0.09897 0.75413 0.0
C731 C 0.72169 0.10139 0.74236 0.0
C732 C 0.7239 0.13808 0.74205 0.0
C733 C 0.75201 0.08138 0.74805 0.0
H734 H 0.80956 0.14919 0.75705 0.0
H735 H 0.7008 0.15322 0.73619 0.0
C736 C 0.79916 0.32075 0.7346 0.0
N737 N 0.83861 0.38143 0.74117 0.0
C738 C 0.82499 0.32872 0.70985 0.0
C739 C 0.79315 0.34384 0.7625 0.0
C740 C 0.84475 0.35946 0.7137 0.0
C741 C 0.81343 0.37433 0.7654 0.0
C742 C 0.79905 0.1909 0.68315 0.0
C743 C 0.83017 0.1772 0.66964 0.0
C744 C 0.76691 0.17979 0.66925 0.0
C745 C 0.82862 0.15249 0.64253 0.0
C746 C 0.76648 0.15506 0.64216 0.0
N747 N 0.79708 0.14201 0.62948 0.0
C748 C 0.8741 0.22454 0.75317 0.0
C749 C 0.87067 0.28398 0.77128 0.0
C750 C 0.91029 0.22448 0.75841 0.0
N751 N 0.85511 0.25414 0.75903 0.0
C752 C 0.90692 0.28522 0.77647 0.0
C753 C 0.92713 0.25525 0.76978 0.0
H754 H 0.86109 0.20093 0.74416 0.0
H755 H 0.85517 0.30684 0.77715 0.0
C756 C 0.72926 0.26109 0.63476 0.0
N757 N 0.7607 0.26212 0.65156 0.0
C758 C 0.72759 0.2654 0.59831 0.0
C759 C 0.79052 0.27256 0.59742 0.0
C760 C 0.79101 0.26762 0.6337 0.0
C761 C 0.75856 0.2712 0.57911 0.0
H762 H 0.70564 0.25588 0.64952 0.0
H763 H 0.81573 0.26718 0.64755 0.0
O764 O 0.77593 0.22993 0.78722 0.0
O765 O 0.72246 0.23474 0.726 0.0
O766 O 0.77923 0.29103 0.73111 0.0
O767 O 0.80026 0.21494 0.70991 0.0
H768 H 0.81141 0.17621 0.81349 0.0
H769 H 0.79611 0.28802 0.81986 0.0
H770 H 0.85719 0.18102 0.85951 0.0
H771 H 0.84177 0.29082 0.8662 0.0
H772 H 0.60672 0.20872 0.71482 0.0
H773 H 0.71009 0.21692 0.79241 0.0
H774 H 0.66367 0.22792 0.68988 0.0
H775 H 0.65239 0.19818 0.81549 0.0
H776 H 0.69672 0.30991 0.87534 0.0
H777 H 0.65344 0.35492 0.78076 0.0
H778 H 0.80775 0.08455 0.75909 0.0
H779 H 0.69671 0.08876 0.73727 0.0
H780 H 0.83001 0.31122 0.68812 0.0
H781 H 0.77309 0.33828 0.78175 0.0
H782 H 0.86498 0.36584 0.69487 0.0
H783 H 0.80915 0.39236 0.78692 0.0
H784 H 0.85528 0.18557 0.67996 0.0
H785 H 0.74252 0.19004 0.67923 0.0
H786 H 0.85249 0.14163 0.63187 0.0
H787 H 0.74181 0.14621 0.63123 0.0
H788 H 0.92507 0.20091 0.75275 0.0
H789 H 0.91905 0.30932 0.78562 0.0
H790 H 0.70248 0.26304 0.58524 0.0
H791 H 0.81503 0.27689 0.58377 0.0
Li792 Li 0.01144 0.56339 0.99369 0.0
Li793 Li 0.05552 0.51915 0.99407 0.0
Li794 Li 0.00822 0.51917 0.94733 0.0
Li795 Li 0.9965 0.50366 0.01079 0.0
C796 C 0.05703 0.58491 0.94293 0.0
N797 N 0.07843 0.64885 0.91571 0.0
C798 C 0.07446 0.60931 0.96423 0.0
C799 C 0.05049 0.59314 0.90774 0.0
C800 C 0.08502 0.64148 0.95001 0.0
C801 C 0.06157 0.62554 0.89447 0.0
C802 C 0.05528 0.53389 0.05911 0.0
C803 C 0.09356 0.49767 0.09417 0.0
N804 N 0.11084 0.52694 0.10527 0.0
C805 C 0.07353 0.56361 0.0708 0.0
C806 C 0.06544 0.50065 0.07085 0.0
C807 C 0.10148 0.55955 0.09418 0.0
C808 C 0.00598 0.62781 0.03233 0.0
N809 N 1.00187 0.61252 1.00032 0.0
C810 C 0.9923 0.66848 0.9736 0.0
C811 C 0.99365 0.63194 0.9715 0.0
C812 C 0.99917 0.68517 0.00574 0.0
C813 C 1.00482 0.66439 0.03565 0.0
H814 H 0.01116 0.61172 0.05508 0.0
H815 H 0.98965 0.61911 0.94649 0.0
C816 C 0.11759 0.47715 0.99294 0.0
N817 N 0.10479 0.50995 0.99883 0.0
C818 C 0.15377 0.47112 0.99371 0.0
C819 C 0.16276 0.53258 0.00684 0.0
C820 C 0.1266 0.53738 0.00581 0.0
C821 C 0.17684 0.49922 1.00036 0.0
H822 H 0.09977 0.45579 0.98712 0.0
H823 H 0.11605 0.56318 0.01027 0.0
C824 C 0.94277 0.55657 0.98693 0.0
N825 N 0.88968 0.60214 1.00535 0.0
C826 C 0.93242 0.55954 0.02198 0.0
C827 C 0.92613 0.57677 0.96124 0.0
C828 C 0.90551 0.58272 0.03076 0.0
C829 C 0.89935 0.59966 0.97109 0.0
C830 C 0.0148 0.44535 0.97727 0.0
C831 C 0.98904 0.43413 0.95363 0.0
C832 C 0.02711 0.42221 1.00293 0.0
C833 C 0.97575 0.39999 0.95629 0.0
C834 C 0.0131 0.3883 1.00478 0.0
N835 N 0.98791 0.37799 0.98163 0.0
C836 C 0.0285 0.50132 0.87969 0.0
C837 C 0.96858 0.51713 0.88345 0.0
C838 C 0.02618 0.49877 0.84322 0.0
N839 N 1.00011 0.51098 0.89885 0.0
C840 C 0.96507 0.51488 0.84696 0.0
C841 C 0.99434 0.50628 0.82636 0.0
H842 H 0.05328 0.49682 0.89274 0.0
H843 H 0.94637 0.52442 0.89939 0.0
C844 C 0.97365 0.47033 0.07466 0.0
N845 N 0.96691 0.47426 0.0398 0.0
C846 C 0.95251 0.44856 0.09538 0.0
C847 C 0.91694 0.43621 0.04438 0.0
C848 C 0.93883 0.45814 0.02462 0.0
C849 C 0.92388 0.43082 0.08024 0.0
H850 H 0.99533 0.4842 0.08655 0.0
H851 H 0.93337 0.46243 0.99709 0.0
O852 O 0.04611 0.55331 0.95638 0.0
O853 O 0.02813 0.53716 0.03576 0.0
O854 O 0.96964 0.53464 0.97803 0.0
O855 O 0.02753 0.47896 0.97559 0.0
H856 H 0.07858 0.60413 0.99179 0.0
H857 H 0.03684 0.57483 0.89084 0.0
H858 H 0.09812 0.66073 0.96634 0.0
H859 H 0.0567 0.63219 0.8673 0.0
H860 H 0.10174 0.47207 0.10331 0.0
H861 H 0.06679 0.5895 0.06144 0.0
H862 H 0.05208 0.47732 0.06167 0.0
H863 H 0.1159 0.58232 0.1033 0.0
H864 H 0.98673 0.68357 0.95015 0.0
H865 H 0.00963 0.67633 0.06103 0.0
H866 H 0.16355 0.44484 0.98914 0.0
H867 H 0.1796 0.55499 0.0119 0.0
H868 H 0.94531 0.54442 0.04225 0.0
H869 H 0.93416 0.57522 0.93407 0.0
H870 H 0.89731 0.58536 0.05779 0.0
H871 H 0.88636 0.61558 0.95151 0.0
H872 H 0.97906 0.45172 0.93372 0.0
H873 H 0.04717 0.43034 0.02131 0.0
H874 H 0.95565 0.39103 0.93831 0.0
H875 H 0.02225 0.37018 0.02462 0.0
H876 H 0.04935 0.49212 0.82827 0.0
H877 H 0.93986 0.52008 0.83497 0.0
H878 H 0.95869 0.44542 0.12296 0.0
H879 H 0.89454 0.42399 0.0318 0.0
Li880 Li 0.76757 0.7485 0.26687 0.0
Li881 Li 0.75432 0.81024 0.2475 0.0
Li882 Li 0.70907 0.76679 0.25178 0.0
Li883 Li 0.74918 0.76247 0.20468 0.0
C884 C 0.71827 0.78467 0.3199 0.0
N885 N 0.67614 0.78419 0.37891 0.0
C886 C 0.69572 0.81273 0.32663 0.0
C887 C 0.71942 0.75639 0.34331 0.0
C888 C 0.67457 0.81197 0.35653 0.0
C889 C 0.69796 0.75666 0.373 0.0
C890 C 0.82478 0.78728 0.24347 0.0
C891 C 0.88741 0.79284 0.23698 0.0
N892 N 0.88977 0.80472 0.27058 0.0
C893 C 0.82784 0.79957 0.27795 0.0
C894 C 0.8548 0.78386 0.22281 0.0
C895 C 0.86092 0.80823 0.29116 0.0
C896 C 0.81066 0.68945 0.28013 0.0
N897 N 0.79813 0.71947 0.29482 0.0
C898 C 0.82941 0.70766 0.34808 0.0
C899 C 0.80737 0.72905 0.32801 0.0
C900 C 0.84269 0.67652 0.3336 0.0
C901 C 0.83318 0.66753 0.29911 0.0
H902 H 0.80309 0.68253 0.25363 0.0
H903 H 0.79762 0.75332 0.33897 0.0
C904 C 0.73442 0.87961 0.25711 0.0
N905 N 0.76344 0.85989 0.25115 0.0
C906 C 0.73649 0.9162 0.25742 0.0
C907 C 0.7983 0.91195 0.24476 0.0
C908 C 0.79501 0.87531 0.24458 0.0
C909 C 0.7687 0.93287 0.25106 0.0
H910 H 0.70931 0.86688 0.2604 0.0
H911 H 0.81752 0.85946 0.23833 0.0
C912 C 0.70902 0.69888 0.24332 0.0
N913 N 0.65746 0.65039 0.25942 0.0
C914 C 0.68178 0.69234 0.21961 0.0
C915 C 0.71027 0.68049 0.27505 0.0
C916 C 0.65588 0.66783 0.2283 0.0
C917 C 0.68392 0.65612 0.28272 0.0
C918 C 0.7195 0.82557 0.18733 0.0
C919 C 0.69041 0.84491 0.17625 0.0
C920 C 0.75223 0.83222 0.17214 0.0
C921 C 0.69446 0.87017 0.14994 0.0
C922 C 0.75518 0.85766 0.14589 0.0
N923 N 0.72648 0.87595 0.13542 0.0
C924 C 0.64596 0.74437 0.28959 0.0
C925 C 0.63822 0.7746 0.23588 0.0
C926 C 0.60967 0.74224 0.29432 0.0
N927 N 0.65955 0.76103 0.26103 0.0
C928 C 0.6019 0.77286 0.23939 0.0
C929 C 0.58713 0.75674 0.26901 0.0
H930 H 0.6631 0.73248 0.30864 0.0
H931 H 0.64941 0.7865 0.21279 0.0
C932 C 0.78456 0.75013 0.13956 0.0
N933 N 0.75302 0.75115 0.15606 0.0
C934 C 0.78615 0.74575 0.10314 0.0
C935 C 0.72288 0.74259 0.10162 0.0
C936 C 0.7225 0.74739 0.13796 0.0
C937 C 0.75499 0.74207 0.08376 0.0
H938 H 0.80837 0.75374 0.15454 0.0
H939 H 0.69778 0.74934 0.15164 0.0
O940 O 0.73955 0.78516 0.29098 0.0
O941 O 0.79274 0.77807 0.23007 0.0
O942 O 0.73417 0.72338 0.2357 0.0
O943 O 0.71597 0.80128 0.21373 0.0
H944 H 0.69439 0.83483 0.30896 0.0
H945 H 0.73612 0.73411 0.33835 0.0
H946 H 0.65693 0.83348 0.36195 0.0
H947 H 0.69848 0.73485 0.39119 0.0
H948 H 0.91086 0.79033 0.22126 0.0
H949 H 0.80495 0.80268 0.29428 0.0
H950 H 0.85296 0.77432 0.19611 0.0
H951 H 0.86363 0.8178 0.31778 0.0
H952 H 0.83637 0.71557 0.37451 0.0
H953 H 0.8427 0.64359 0.28713 0.0
H954 H 0.7129 0.93135 0.26175 0.0
H955 H 0.8237 0.92376 0.23996 0.0
H956 H 0.6804 0.70637 0.19497 0.0
H957 H 0.73118 0.68519 0.29367 0.0
H958 H 0.63447 0.66273 0.21034 0.0
H959 H 0.68443 0.64185 0.30727 0.0
H960 H 0.66497 0.84079 0.18804 0.0
H961 H 0.77526 0.81814 0.18054 0.0
H962 H 0.67217 0.88529 0.14118 0.0
H963 H 0.78035 0.86296 0.13395 0.0
H964 H 0.59942 0.72973 0.31768 0.0
H965 H 0.5855 0.78375 0.21889 0.0
H966 H 0.81139 0.74567 0.09017 0.0
H967 H 0.69831 0.74063 0.08748 0.0
Li968 Li 0.01461 0.49447 0.55257 0.0
Li969 Li 0.01767 0.45141 0.50553 0.0
Li970 Li 0.06273 0.49732 0.51045 0.0
Li971 Li 1.00167 0.51159 0.48937 0.0
C972 C 0.06023 0.44677 0.5756 0.0
N973 N 0.07712 0.42142 0.64144 0.0
C974 C 0.0474 0.41415 0.58665 0.0
C975 C 0.08178 0.46641 0.59798 0.0
C976 C 0.05625 0.4018 0.62004 0.0
C977 C 0.08994 0.45318 0.63119 0.0
C978 C 0.9445 0.46293 0.51338 0.0
C979 C 0.89963 0.44703 0.47155 0.0
N980 N 0.88092 0.43156 0.49771 0.0
C981 C 0.92469 0.4471 0.5399 0.0
C982 C 0.93178 0.46307 0.47896 0.0
C983 C 0.89268 0.43129 0.53143 0.0
C984 C 0.01178 0.5307 0.61813 0.0
N985 N 1.00311 0.50053 0.60104 0.0
C986 C 0.98441 0.47405 0.65478 0.0
C987 C 0.98912 0.47268 0.61849 0.0
C988 C 0.99412 0.50445 0.67335 0.0
C989 C 0.00762 0.5332 0.65451 0.0
H990 H 0.02291 0.55246 0.60371 0.0
H991 H 0.98287 0.44883 0.60438 0.0
C992 C 0.04624 0.38538 0.49616 0.0
N993 N 0.0146 0.40175 0.49641 0.0
C994 C 0.04834 0.34894 0.49286 0.0
C995 C 0.98518 0.34653 0.48975 0.0
C996 C 0.98431 0.38314 0.49278 0.0
C997 C 0.01749 0.32892 0.49044 0.0
H998 H 0.06996 0.4007 0.49933 0.0
H999 H 0.9594 0.3963 0.49306 0.0
C1000 C 0.05197 0.56557 0.5258 0.0
N1001 N 0.09498 0.62412 0.52487 0.0
C1002 C 0.0492 0.59008 0.49863 0.0
C1003 C 0.07657 0.57087 0.55253 0.0
C1004 C 0.07117 0.61953 0.49865 0.0
C1005 C 0.09811 0.6006 0.55156 0.0
C1006 C 0.04593 0.45656 0.44254 0.0
C1007 C 0.08059 0.44568 0.43805 0.0
C1008 C 0.01931 0.44091 0.42264 0.0
C1009 C 0.08797 0.41897 0.41403 0.0
C1010 C 0.02775 0.41425 0.39893 0.0
N1011 N 0.06162 0.4039 0.39517 0.0
C1012 C 0.13281 0.48049 0.52155 0.0
C1013 C 0.12659 0.53364 0.48988 0.0
C1014 C 0.16916 0.48396 0.52145 0.0
N1015 N 0.11224 0.50547 0.5066 0.0
C1016 C 0.16301 0.53829 0.48933 0.0
C1017 C 0.18472 0.51347 0.50579 0.0
H1018 H 0.121 0.45755 0.53334 0.0
H1019 H 0.10988 0.55256 0.47707 0.0
C1020 C 0.95585 0.56837 0.4751 0.0
N1021 N 0.97388 0.54165 0.45991 0.0
C1022 C 0.93526 0.59083 0.45463 0.0
C1023 C 0.95156 0.55746 0.40331 0.0
C1024 C 0.97228 0.53598 0.42469 0.0
C1025 C 0.93289 0.5856 0.41813 0.0
H1026 H 0.95765 0.57236 0.50317 0.0
H1027 H 0.98674 0.51448 0.41324 0.0
O1028 O 0.05165 0.45949 0.54311 0.0
O1029 O 0.97584 0.47867 0.52127 0.0
O1030 O 0.03064 0.53662 0.52626 0.0
O1031 O 0.03809 0.48205 0.4666 0.0
H1032 H 0.03048 0.3987 0.56983 0.0
H1033 H 0.09194 0.49167 0.58984 0.0
H1034 H 0.04642 0.37666 0.62898 0.0
H1035 H 0.10646 0.46817 0.64882 0.0
H1036 H 0.88958 0.44683 0.44498 0.0
H1037 H 0.93388 0.44699 0.56674 0.0
H1038 H 0.94661 0.4752 0.45813 0.0
H1039 H 0.87717 0.41883 0.55168 0.0
H1040 H 0.9739 0.45132 0.6683 0.0
H1041 H 0.01613 0.55687 0.66785 0.0
H1042 H 0.07385 0.33656 0.49264 0.0
H1043 H 0.96074 0.33208 0.48799 0.0
H1044 H 0.03048 0.58634 0.47761 0.0
H1045 H 0.07926 0.55207 0.57362 0.0
H1046 H 0.06937 0.63868 0.47775 0.0
H1047 H 0.11737 0.60494 0.57199 0.0
H1048 H 0.10155 0.4575 0.45314 0.0
H1049 H 0.99236 0.4489 0.42577 0.0
H1050 H 0.11464 0.41014 0.41045 0.0
H1051 H 0.00737 0.40172 0.38359 0.0
H1052 H 0.18495 0.46345 0.53314 0.0
H1053 H 0.17406 0.56114 0.47646 0.0
H1054 H 0.92154 0.61224 0.46725 0.0
H1055 H 0.94981 0.55166 0.37554 0.0
Li1056 Li 0.49442 0.55649 1.0036 0.0
Li1057 Li 0.45115 0.509 0.00603 0.0
Li1058 Li 0.49755 0.51427 0.05103 0.0
Li1059 Li 0.51158 0.49389 0.99014 0.0
C1060 C 0.4451 0.57931 0.04641 0.0
N1061 N 0.41777 0.64569 0.05681 0.0
C1062 C 0.41221 0.58794 0.03275 0.0
C1063 C 0.46399 0.60442 0.06553 0.0
C1064 C 0.39885 0.62164 0.03829 0.0
C1065 C 0.44977 0.63785 0.07041 0.0
C1066 C 0.46744 0.51744 0.93169 0.0
C1067 C 0.45171 0.47465 0.88764 0.0
N1068 N 0.44482 0.50111 0.86467 0.0
C1069 C 0.46045 0.54421 0.90759 0.0
C1070 C 0.46321 0.4824 0.92161 0.0
C1071 C 0.44893 0.53541 0.87386 0.0
C1072 C 0.52978 0.62247 1.00134 0.0
N1073 N 0.50035 0.60484 0.99142 0.0
C1074 C 0.47442 0.65793 0.97039 0.0
C1075 C 0.47322 0.62163 0.97555 0.0
C1076 C 0.504 0.67704 0.98137 0.0
C1077 C 0.53215 0.65881 0.9966 0.0
H1078 H 0.55095 0.60853 0.01393 0.0
H1079 H 0.45004 0.60697 0.96812 0.0
C1080 C 0.38466 0.49032 0.03044 0.0
N1081 N 0.40203 0.49917 1.00057 0.0
C1082 C 0.34837 0.48591 0.03021 0.0
C1083 C 0.34798 0.50101 0.96865 0.0
C1084 C 0.38445 0.50452 0.96994 0.0
C1085 C 0.32941 0.49169 0.99913 0.0
H1086 H 0.39889 0.4878 0.05483 0.0
H1087 H 0.39833 0.513 0.94681 0.0
C1088 C 0.56469 0.52919 0.04143 0.0
N1089 N 0.62088 0.52608 0.08713 0.0
C1090 C 0.58876 0.50171 0.039 0.0
C1091 C 0.56924 0.55516 0.06702 0.0
C1092 C 0.61701 0.50061 0.06235 0.0
C1093 C 0.59778 0.55307 0.08993 0.0
C1094 C 0.45899 0.44487 0.03642 0.0
C1095 C 0.45128 0.44012 0.07199 0.0
C1096 C 0.44296 0.42318 0.01143 0.0
C1097 C 0.42736 0.41409 0.08189 0.0
C1098 C 0.41913 0.3975 0.02238 0.0
N1099 N 0.41188 0.39353 0.05709 0.0
C1100 C 0.48766 0.52976 0.1223 0.0
C1101 C 0.5319 0.48724 0.11314 0.0
C1102 C 0.49292 0.52844 0.15849 0.0
N1103 N 0.50729 0.50971 0.10037 0.0
C1104 C 0.53803 0.48504 0.14935 0.0
C1105 C 0.51838 0.50592 0.17248 0.0
H1106 H 0.46756 0.54661 0.11176 0.0
H1107 H 0.54674 0.47105 0.09525 0.0
C1108 C 0.56716 0.47982 0.94286 0.0
N1109 N 0.54068 0.4647 0.96142 0.0
C1110 C 0.58863 0.45932 0.92134 0.0
C1111 C 0.55498 0.40814 0.93809 0.0
C1112 C 0.53446 0.42953 0.95965 0.0
C1113 C 0.5824 0.42304 0.91851 0.0
H1114 H 0.57157 0.50785 0.94482 0.0
H1115 H 0.51344 0.41811 0.97486 0.0
O1116 O 0.4589 0.5466 0.04085 0.0
O1117 O 0.47842 0.52568 0.96491 0.0
O1118 O 0.53674 0.53057 0.01896 0.0
O1119 O 0.4822 0.47043 0.02621 0.0
H1120 H 0.39723 0.56899 0.01778 0.0
H1121 H 0.48956 0.59829 0.07612 0.0
H1122 H 0.3735 0.62871 0.02776 0.0
H1123 H 0.46422 0.65758 0.08493 0.0
H1124 H 0.44825 0.44762 0.87954 0.0
H1125 H 0.4638 0.57149 0.91485 0.0
H1126 H 0.46869 0.46143 0.93981 0.0
H1127 H 0.44328 0.55586 0.85499 0.0
H1128 H 0.45221 0.67103 0.95854 0.0
H1129 H 0.55516 0.67265 0.00601 0.0
H1130 H 0.33518 0.47893 0.05438 0.0
H1131 H 0.33443 0.50706 0.94442 0.0
H1132 H 0.58556 0.48132 0.01946 0.0
H1133 H 0.55068 0.57642 0.06949 0.0
H1134 H 0.6358 0.47946 0.06083 0.0
H1135 H 0.60151 0.57286 0.11 0.0
H1136 H 0.46333 0.45648 0.0918 0.0
H1137 H 0.44854 0.42624 0.98384 0.0
H1138 H 0.42105 0.41029 0.10931 0.0
H1139 H 0.40639 0.38073 1.00326 0.0
H1140 H 0.4768 0.54452 0.17545 0.0
H1141 H 0.55805 0.46746 0.1591 0.0
H1142 H 0.60958 0.47172 0.90667 0.0
H1143 H 0.54971 0.38017 0.937 0.0
Li1144 Li 0.75977 0.80651 0.76663 0.0
Li1145 Li 0.76009 0.75837 0.80844 0.0
Li1146 Li 0.80595 0.76108 0.76461 0.0
Li1147 Li 0.7436 0.74312 0.74826 0.0
C1148 C 0.81513 0.82367 0.81063 0.0
N1149 N 0.85427 0.88238 0.82807 0.0
C1150 C 0.81173 0.83901 0.84381 0.0
C1151 C 0.83857 0.8381 0.78642 0.0
C1152 C 0.83171 0.86872 0.8521 0.0
C1153 C 0.8581 0.8678 0.79571 0.0
C1154 C 0.6902 0.77574 0.80178 0.0
C1155 C 0.63631 0.7484 0.82069 0.0
N1156 N 0.63137 0.775 0.844 0.0
C1157 C 0.6845 0.80288 0.8258 0.0
C1158 C 0.66588 0.74829 0.7991 0.0
C1159 C 0.65465 0.80199 0.84698 0.0
C1160 C 0.75097 0.87001 0.7275 0.0
N1161 N 0.75153 0.8557 0.7602 0.0
C1162 C 0.74685 0.91263 0.78635 0.0
C1163 C 0.74876 0.87615 0.78934 0.0
C1164 C 0.74771 0.9283 0.75302 0.0
C1165 C 0.74906 0.90648 0.72328 0.0
H1166 H 0.7527 0.85319 0.70471 0.0
H1167 H 0.74905 0.86421 0.81504 0.0
C1168 C 0.78588 0.75269 0.87607 0.0
N1169 N 0.75548 0.74826 0.85791 0.0
C1170 C 0.78666 0.74887 0.91247 0.0
C1171 C 0.72492 0.73494 0.91116 0.0
C1172 C 0.72548 0.73849 0.8746 0.0
C1173 C 0.75578 0.7405 0.93065 0.0
H1174 H 0.80962 0.7596 0.86222 0.0
H1175 H 0.70182 0.73389 0.85985 0.0
C1176 C 0.79383 0.781 0.69433 0.0
N1177 N 0.83084 0.78515 0.63215 0.0
C1178 C 0.79182 0.7537 0.66985 0.0
C1179 C 0.8144 0.81057 0.68702 0.0
C1180 C 0.81078 0.75626 0.6386 0.0
C1181 C 0.833 0.81212 0.6555 0.0
C1182 C 0.77575 0.69265 0.80278 0.0
C1183 C 0.80474 0.68377 0.82335 0.0
C1184 C 0.74372 0.67561 0.80814 0.0
C1185 C 0.80108 0.65808 0.84929 0.0
C1186 C 0.74114 0.65006 0.83433 0.0
N1187 N 0.76962 0.64192 0.85422 0.0
C1188 C 0.87415 0.75668 0.78897 0.0
C1189 C 0.87149 0.74732 0.72755 0.0
C1190 C 0.91061 0.75421 0.78855 0.0
N1191 N 0.85538 0.7538 0.75872 0.0
C1192 C 0.90804 0.74471 0.72591 0.0
C1193 C 0.92805 0.74831 0.7567 0.0
H1194 H 0.86076 0.76155 0.81347 0.0
H1195 H 0.85623 0.74437 0.7039 0.0
C1196 C 0.6833 0.7258 0.70702 0.0
N1197 N 0.7153 0.71433 0.71775 0.0
C1198 C 0.66221 0.70468 0.68545 0.0
C1199 C 0.7078 0.66082 0.68538 0.0
C1200 C 0.72778 0.68251 0.70742 0.0
C1201 C 0.67441 0.6717 0.67441 0.0
H1202 H 0.67405 0.75127 0.71544 0.0
H1203 H 0.75333 0.67401 0.71628 0.0
O1204 O 0.79553 0.79471 0.80201 0.0
O1205 O 0.71903 0.77634 0.78051 0.0
O1206 O 0.7753 0.77898 0.72497 0.0
O1207 O 0.7784 0.71862 0.77819 0.0
H1208 H 0.79356 0.82832 0.86283 0.0
H1209 H 0.84178 0.8264 0.7608 0.0
H1210 H 0.82922 0.88095 0.87761 0.0
H1211 H 0.87632 0.87923 0.7772 0.0
H1212 H 0.61735 0.72728 0.81899 0.0
H1213 H 0.70304 0.82426 0.82825 0.0
H1214 H 0.66993 0.72696 0.78082 0.0
H1215 H 0.65 0.82274 0.8658 0.0
H1216 H 0.74584 0.92849 0.80995 0.0
H1217 H 0.74893 0.9175 0.69707 0.0
H1218 H 0.81119 0.75281 0.92628 0.0
H1219 H 0.70035 0.7289 0.924 0.0
H1220 H 0.77596 0.7307 0.67498 0.0
H1221 H 0.81593 0.83218 0.70539 0.0
H1222 H 0.80958 0.73526 0.61948 0.0
H1223 H 0.8491 0.83479 0.64957 0.0
H1224 H 0.82966 0.69688 0.81959 0.0
H1225 H 0.72101 0.68237 0.7925 0.0
H1226 H 0.82322 0.65108 0.86559 0.0
H1227 H 0.71646 0.6368 0.83895 0.0
H1228 H 0.92503 0.75775 0.81281 0.0
H1229 H 0.92054 0.73991 0.70086 0.0
H1230 H 0.63676 0.71415 0.67722 0.0
H1231 H 0.71808 0.63555 0.67741 0.0
Li1232 Li 0.76718 0.27066 0.24388 0.0
Li1233 Li 0.70561 0.251 0.26047 0.0
Li1234 Li 0.75181 0.25518 0.30426 0.0
Li1235 Li 0.75314 0.20759 0.2624 0.0
C1236 C 0.73144 0.31975 0.29922 0.0
N1237 N 0.73114 0.36946 0.35204 0.0
C1238 C 0.70127 0.32495 0.31927 0.0
C1239 C 0.76136 0.33998 0.3058 0.0
C1240 C 0.70167 0.35017 0.34593 0.0
C1241 C 0.7607 0.36496 0.33267 0.0
C1242 C 0.7159 0.23459 0.19096 0.0
C1243 C 0.67158 0.20845 0.15393 0.0
N1244 N 0.67494 0.23571 0.13108 0.0
C1245 C 0.71899 0.26229 0.16705 0.0
C1246 C 0.69212 0.20736 0.1843 0.0
C1247 C 0.69803 0.26238 0.13694 0.0
C1248 C 0.82301 0.28513 0.19682 0.0
N1249 N 0.7947 0.29948 0.21295 0.0
C1250 C 0.80611 0.35498 0.18557 0.0
C1251 C 0.78596 0.33371 0.20778 0.0
C1252 C 0.83555 0.34093 0.16849 0.0
C1253 C 0.84399 0.3055 0.17457 0.0
H1254 H 0.82954 0.25791 0.20161 0.0
H1255 H 0.76328 0.34448 0.22089 0.0
C1256 C 0.63714 0.24915 0.28436 0.0
N1257 N 0.65593 0.25709 0.2551 0.0
C1258 C 0.60071 0.25166 0.28428 0.0
C1259 C 0.60323 0.27138 0.22408 0.0
C1260 C 0.63981 0.26868 0.2254 0.0
C1261 C 0.58328 0.26285 0.25386 0.0
H1262 H 0.6505 0.24072 0.30792 0.0
H1263 H 0.65515 0.27592 0.20275 0.0
C1264 C 0.82264 0.24513 0.29594 0.0
N1265 N 0.88279 0.25767 0.3346 0.0
C1266 C 0.8339 0.22073 0.32092 0.0
C1267 C 0.84208 0.27588 0.29057 0.0
C1268 C 0.86432 0.22758 0.34025 0.0
C1269 C 0.8724 0.28173 0.31036 0.0
C1270 C 0.70349 0.18619 0.30762 0.0
C1271 C 0.7139 0.1706 0.33916 0.0
C1272 C 0.6792 0.16904 0.28606 0.0
C1273 C 0.69999 0.1379 0.34847 0.0
C1274 C 0.66589 0.13638 0.2963 0.0
N1275 N 0.67649 0.12161 0.32702 0.0
C1276 C 0.72686 0.25831 0.37246 0.0
C1277 C 0.78553 0.27858 0.36972 0.0
C1278 C 0.72645 0.26245 0.40883 0.0
N1279 N 0.75632 0.2656 0.35369 0.0
C1280 C 0.78645 0.28263 0.40622 0.0
C1281 C 0.7567 0.2742 0.42616 0.0
H1282 H 0.70366 0.24881 0.35915 0.0
H1283 H 0.80821 0.28564 0.35445 0.0
C1284 C 0.75628 0.14207 0.22544 0.0
N1285 N 0.76333 0.15868 0.25628 0.0
C1286 C 0.75982 0.10557 0.22278 0.0
C1287 C 0.77908 0.10422 0.2832 0.0
C1288 C 0.7751 0.14061 0.28469 0.0
C1289 C 0.77095 0.08613 0.2521 0.0
H1290 H 0.74698 0.15697 0.20319 0.0
H1291 H 0.78015 0.15427 0.309 0.0
O1292 O 0.732 0.29429 0.27393 0.0
O1293 O 0.73635 0.23398 0.22047 0.0
O1294 O 0.79323 0.23864 0.27635 0.0
O1295 O 0.71712 0.21804 0.29786 0.0
H1296 H 0.67796 0.30937 0.31458 0.0
H1297 H 0.78495 0.33614 0.29057 0.0
H1298 H 0.67861 0.35432 0.36185 0.0
H1299 H 0.78373 0.38066 0.33822 0.0
H1300 H 0.65298 0.18763 0.14853 0.0
H1301 H 0.73727 0.28355 0.17171 0.0
H1302 H 0.68944 0.18567 0.20241 0.0
H1303 H 0.70009 0.28368 0.11826 0.0
H1304 H 0.79858 0.3821 0.18161 0.0
H1305 H 0.86693 0.29376 0.16275 0.0
H1306 H 0.58628 0.24442 0.30766 0.0
H1307 H 0.59069 0.28039 0.20021 0.0
H1308 H 0.81922 0.19691 0.32561 0.0
H1309 H 0.83382 0.29518 0.27154 0.0
H1310 H 0.87322 0.20898 0.35976 0.0
H1311 H 0.88762 0.30544 0.30652 0.0
H1312 H 0.73285 0.1834 0.35606 0.0
H1313 H 0.6707 0.18083 0.2617 0.0
H1314 H 0.70796 0.12544 0.37271 0.0
H1315 H 0.64713 0.12279 0.27983 0.0
H1316 H 0.70305 0.25553 0.42337 0.0
H1317 H 0.81015 0.29214 0.41876 0.0
H1318 H 0.75267 0.09261 0.19848 0.0
H1319 H 0.78779 0.09026 0.30638 0.0
Li1320 Li 0.51787 0.51266 0.50925 0.0
Li1321 Li 0.50535 0.49616 0.44607 0.0
Li1322 Li 0.45896 0.49737 0.49056 0.0
Li1323 Li 0.50057 0.45125 0.49258 0.0
C1324 C 0.4663 0.56511 0.47957 0.0
N1325 N 0.4194 0.61898 0.49168 0.0
C1326 C 0.43984 0.57232 0.45519 0.0
C1327 C 0.46875 0.58525 0.51019 0.0
C1328 C 0.41641 0.59965 0.46178 0.0
C1329 C 0.44486 0.61241 0.51578 0.0
C1330 C 0.57583 0.49018 0.47031 0.0
C1331 C 0.6386 0.48335 0.47156 0.0
N1332 N 0.64226 0.51521 0.45579 0.0
C1333 C 0.58018 0.52282 0.45407 0.0
C1334 C 0.60522 0.47024 0.47912 0.0
C1335 C 0.61399 0.53503 0.44697 0.0
C1336 C 0.55549 0.5292 0.57208 0.0
N1337 N 0.54822 0.54055 0.539 0.0
C1338 C 0.58286 0.5924 0.54834 0.0
C1339 C 0.56168 0.57138 0.52679 0.0
C1340 C 0.58985 0.58186 0.58295 0.0
C1341 C 0.57608 0.54969 0.59471 0.0
H1342 H 0.54484 0.50443 0.58109 0.0
H1343 H 0.5555 0.57996 0.50044 0.0
C1344 C 0.49738 0.52526 0.37831 0.0
N1345 N 0.51666 0.50233 0.39758 0.0
C1346 C 0.50129 0.52685 0.34192 0.0
C1347 C 0.54587 0.48208 0.34585 0.0
C1348 C 0.54108 0.48137 0.38226 0.0
C1349 C 0.52521 0.50449 0.32514 0.0
H1350 H 0.47808 0.54148 0.39103 0.0
H1351 H 0.55585 0.4631 0.39815 0.0
C1352 C 0.46022 0.48358 0.55892 0.0
N1353 N 0.41055 0.49117 0.61111 0.0
C1354 C 0.43315 0.45898 0.56236 0.0
C1355 C 0.46209 0.51196 0.58218 0.0
C1356 C 0.40824 0.46333 0.58882 0.0
C1357 C 0.43675 0.51532 0.60839 0.0
C1358 C 0.45711 0.43018 0.4415 0.0
C1359 C 0.43435 0.40912 0.46116 0.0
C1360 C 0.46928 0.4181 0.40909 0.0
C1361 C 0.42472 0.37604 0.44839 0.0
C1362 C 0.45891 0.38493 0.39714 0.0
N1363 N 0.4371 0.36473 0.41691 0.0
C1364 C 0.38815 0.49109 0.47116 0.0
C1365 C 0.39578 0.52823 0.52046 0.0
C1366 C 0.35188 0.495 0.47286 0.0
N1367 N 0.40935 0.50692 0.4952 0.0
C1368 C 0.35954 0.53294 0.5231 0.0
C1369 C 0.33708 0.51569 0.49941 0.0
H1370 H 0.39932 0.4752 0.4506 0.0
H1371 H 0.41296 0.54163 0.53858 0.0
C1372 C 0.49475 0.38595 0.52927 0.0
N1373 N 0.50747 0.4021 0.50009 0.0
C1374 C 0.49502 0.34929 0.53176 0.0
C1375 C 0.52265 0.34675 0.47476 0.0
C1376 C 0.52216 0.38341 0.47352 0.0
C1377 C 0.50823 0.32927 0.50382 0.0
H1378 H 0.48344 0.40142 0.55012 0.0
H1379 H 0.5322 0.39698 0.45069 0.0
O1380 O 0.48926 0.53814 0.47384 0.0
O1381 O 0.54302 0.47769 0.47764 0.0
O1382 O 0.48491 0.47976 0.53318 0.0
O1383 O 0.46723 0.46251 0.45384 0.0
H1384 H 0.43684 0.55649 0.43183 0.0
H1385 H 0.48853 0.57976 0.5297 0.0
H1386 H 0.39569 0.60534 0.44324 0.0
H1387 H 0.44643 0.62811 0.53941 0.0
H1388 H 0.6616 0.46821 0.47824 0.0
H1389 H 0.55771 0.53863 0.44712 0.0
H1390 H 0.60223 0.44489 0.49169 0.0
H1391 H 0.61775 0.56028 0.43447 0.0
H1392 H 0.593 0.61706 0.53835 0.0
H1393 H 0.58129 0.54045 0.62109 0.0
H1394 H 0.48476 0.54442 0.32692 0.0
H1395 H 0.56502 0.46485 0.33399 0.0
H1396 H 0.43118 0.43691 0.54462 0.0
H1397 H 0.48255 0.53151 0.57976 0.0
H1398 H 0.38705 0.4446 0.59162 0.0
H1399 H 0.43781 0.53725 0.62644 0.0
H1400 H 0.4244 0.41814 0.48611 0.0
H1401 H 0.48655 0.43408 0.39329 0.0
H1402 H 0.40739 0.35937 0.4635 0.0
H1403 H 0.4682 0.37527 0.37214 0.0
H1404 H 0.33552 0.48135 0.45397 0.0
H1405 H 0.34924 0.54994 0.54338 0.0
H1406 H 0.48386 0.33668 0.55467 0.0
H1407 H 0.53367 0.33219 0.45301 0.0
C1408 C 0.11639 0.15873 0.15597 0.0
C1409 C 0.15315 0.15608 0.15399 0.0
C1410 C 0.09443 0.13778 0.13491 0.0
C1411 C 0.10833 0.11317 0.11117 0.0
H1412 H 0.10441 0.17679 0.17432 0.0
H1413 H 0.06632 0.14052 0.13758 0.0
S1414 S 0.20261 0.09806 0.09346 0.0
N1415 N 0.20235 0.1284 0.12446 0.0
N1416 N 0.16107 0.08873 0.08543 0.0
C1417 C 0.14497 0.11055 0.10854 0.0
C1418 C 0.16735 0.13204 0.12978 0.0
C1419 C 0.12348 0.91167 0.37416 0.0
C1420 C 0.10832 0.89835 0.40514 0.0
C1421 C 0.14594 0.89115 0.35347 0.0
C1422 C 0.15422 0.85631 0.36273 0.0
H1423 H 0.1177 0.93815 0.36555 0.0
H1424 H 0.15719 0.90289 0.33015 0.0
S1425 S 0.12148 0.8087 0.4413 0.0
N1426 N 0.10406 0.84819 0.44452 0.0
N1427 N 0.14459 0.80911 0.40473 0.0
C1428 C 0.13908 0.84255 0.39354 0.0
C1429 C 0.11653 0.86361 0.41486 0.0
C1430 C 0.4035 0.9015 0.6424 0.0
C1431 C 0.40054 0.89954 0.60554 0.0
C1432 C 0.38228 0.88093 0.66447 0.0
C1433 C 0.35752 0.85723 0.65061 0.0
H1434 H 0.42269 0.91879 0.65437 0.0
H1435 H 0.38557 0.88326 0.69263 0.0
S1436 S 0.3371 0.84378 0.55642 0.0
N1437 N 0.36885 0.87337 0.55647 0.0
N1438 N 0.32995 0.83402 0.59804 0.0
C1439 C 0.354 0.85509 0.61397 0.0
C1440 C 0.37525 0.87635 0.59145 0.0
C1441 C 0.41192 0.12782 0.87457 0.0
C1442 C 0.39736 0.10692 0.90142 0.0
C1443 C 0.3909 0.14984 0.85383 0.0
C1444 C 0.35452 0.15202 0.85923 0.0
H1445 H 0.43988 0.12747 0.86977 0.0
H1446 H 0.40331 0.16564 0.8337 0.0
S1447 S 0.30293 0.10079 0.924 0.0
N1448 N 0.34382 0.0884 0.93073 0.0
N1449 N 0.30453 0.13013 0.89211 0.0
C1450 C 0.33954 0.13106 0.88568 0.0
C1451 C 0.36088 0.10848 0.90667 0.0
C1452 C 0.66287 0.37964 0.87883 0.0
C1453 C 0.64858 0.35778 0.85262 0.0
C1454 C 0.64135 0.40101 0.89969 0.0
C1455 C 0.6047 0.4008 0.89556 0.0
H1456 H 0.69094 0.38045 0.88302 0.0
H1457 H 0.65343 0.41745 0.91957 0.0
S1458 S 0.55429 0.3481 0.83085 0.0
N1459 N 0.59555 0.33725 0.82369 0.0
N1460 N 0.5551 0.3771 0.86312 0.0
C1461 C 0.59009 0.37898 0.86953 0.0
C1462 C 0.61202 0.3576 0.84798 0.0
C1463 C 0.88935 0.41872 0.13516 0.0
C1464 C 0.90113 0.40743 0.10201 0.0
C1465 C 0.86803 0.39723 0.15624 0.0
C1466 C 0.85772 0.36341 0.14519 0.0
H1467 H 0.89644 0.44455 0.14484 0.0
H1468 H 0.85993 0.40705 0.18164 0.0
S1469 S 0.88137 0.32129 0.06058 0.0
N1470 N 0.90115 0.35991 0.05932 0.0
N1471 N 0.86044 0.31995 0.09846 0.0
C1472 C 0.86921 0.35182 0.11204 0.0
C1473 C 0.89094 0.37371 0.09057 0.0
C1474 C 0.87703 0.61918 0.40784 0.0
C1475 C 0.91048 0.609 0.39598 0.0
C1476 C 0.8554 0.64111 0.38763 0.0
C1477 C 0.86614 0.65345 0.35455 0.0
H1478 H 0.86723 0.60981 0.43282 0.0
H1479 H 0.82985 0.64809 0.39777 0.0
S1480 S 0.95197 0.63703 0.31232 0.0
N1481 N 0.95396 0.61507 0.34965 0.0
N1482 N 0.91282 0.65535 0.31142 0.0
C1483 C 0.89948 0.64378 0.3424 0.0
C1484 C 0.92172 0.6218 0.36312 0.0
C1485 C 0.64502 0.61532 0.59698 0.0
C1486 C 0.61108 0.60456 0.60674 0.0
C1487 C 0.66549 0.63669 0.61915 0.0
C1488 C 0.65248 0.64872 0.65154 0.0
H1489 H 0.65595 0.60683 0.57217 0.0
H1490 H 0.69154 0.64425 0.61069 0.0
S1491 S 0.5651 0.62844 0.68902 0.0
N1492 N 0.5654 0.60763 0.65096 0.0
N1493 N 0.60358 0.64819 0.69228 0.0
C1494 C 0.61851 0.63836 0.66146 0.0
C1495 C 0.59792 0.61616 0.63918 0.0
C1496 C 0.27662 0.23043 0.48979 0.0
C1497 C 0.24916 0.24488 0.46982 0.0
C1498 C 0.27551 0.23026 0.52657 0.0
C1499 C 0.24685 0.24447 0.54482 0.0
H1500 H 0.29929 0.2193 0.47687 0.0
H1501 H 0.29732 0.219 0.54085 0.0
S1502 S 0.16885 0.28681 0.505 0.0
N1503 N 0.19281 0.27454 0.4711 0.0
N1504 N 0.19069 0.27416 0.54023 0.0
C1505 C 0.21904 0.25875 0.52521 0.0
C1506 C 0.22019 0.25895 0.48774 0.0
C1507 C 0.99145 0.03571 0.77431 0.0
C1508 C 0.01006 0.01083 0.79425 0.0
C1509 C 0.9911 0.03432 0.73754 0.0
C1510 C 0.00947 0.00809 0.71927 0.0
H1511 H 0.97705 0.05649 0.78724 0.0
H1512 H 0.97646 0.05405 0.72326 0.0
S1513 S 0.06058 0.93554 0.75893 0.0
N1514 N 0.04614 0.95826 0.79287 0.0
N1515 N 0.04586 0.95605 0.7237 0.0
C1516 C 0.02824 0.9831 0.73877 0.0
C1517 C 0.02845 0.98437 0.77626 0.0
C1518 C 0.23445 0.79416 0.98998 0.0
C1519 C 0.26061 0.77716 0.97034 0.0
C1520 C 0.23569 0.79489 0.02678 0.0
C1521 C 0.26316 0.77867 0.04527 0.0
H1522 H 0.21282 0.80698 0.97678 0.0
H1523 H 0.21503 0.80827 0.04088 0.0
S1524 S 0.33669 0.72844 0.00632 0.0
N1525 N 0.31391 0.74238 0.97219 0.0
N1526 N 0.31623 0.7437 0.04128 0.0
C1527 C 0.28941 0.76146 0.02596 0.0
C1528 C 0.28815 0.76074 0.98853 0.0
C1529 C 0.51368 0.02347 0.26826 0.0
C1530 C 0.4911 1.00226 0.28839 0.0
C1531 C 0.51208 0.0234 0.2315 0.0
C1532 C 0.48804 1.00186 0.21343 0.0
H1533 H 0.53283 0.04024 0.28106 0.0
H1534 H 0.53044 0.03965 0.21708 0.0
S1535 S 0.42263 0.94203 0.2539 0.0
N1536 N 0.44363 0.95953 0.28762 0.0
N1537 N 0.44041 0.95956 0.21847 0.0
C1538 C 0.46495 0.9809 0.23325 0.0
C1539 C 0.46647 0.98113 0.27072 0.0
C1540 C 0.48852 0.2471 0.2269 0.0
C1541 C 0.46954 0.26325 0.2541 0.0
C1542 C 0.52531 0.24785 0.22649 0.0
C1543 C 0.54441 0.26477 0.25326 0.0
H1544 H 0.47486 0.23304 0.20625 0.0
H1545 H 0.53891 0.23423 0.20561 0.0
S1546 S 0.50711 0.31484 0.32788 0.0
N1547 N 0.47256 0.29937 0.30671 0.0
N1548 N 0.54159 0.30062 0.306 0.0
C1549 C 0.52572 0.2821 0.27989 0.0
C1550 C 0.48834 0.28137 0.28029 0.0
C1551 C 0.99773 0.27094 0.46589 0.0
C1552 C 0.01874 0.28984 0.48977 0.0
C1553 C 0.99683 0.23411 0.46616 0.0
C1554 C 0.01698 0.2147 0.49024 0.0
H1555 H 0.98167 0.28475 0.44695 0.0
H1556 H 0.97998 0.22068 0.44754 0.0
S1557 S 0.0755 0.25143 0.55904 0.0
N1558 N 0.05967 0.28625 0.5387 0.0
N1559 N 0.05817 0.21706 0.53893 0.0
C1560 C 0.03849 0.23319 0.51394 0.0
C1561 C 0.03932 0.27072 0.51377 0.0
C1562 C 0.98537 0.768 0.73113 0.0
C1563 C 0.96697 0.74729 0.7556 0.0
C1564 C 0.02214 0.76936 0.73117 0.0
C1565 C 0.04183 0.75012 0.75574 0.0
H1566 H 0.97123 0.78404 0.71241 0.0
H1567 H 0.03523 0.78627 0.71241 0.0
S1568 S 0.00646 0.68858 0.82251 0.0
N1569 N 0.97135 0.70482 0.80307 0.0
N1570 N 0.04036 0.70745 0.80321 0.0
C1571 C 0.0238 0.7284 0.77957 0.0
C1572 C 0.98642 0.72697 0.77949 0.0
C1573 C 0.47573 0.73535 0.99189 0.0
C1574 C 0.50444 0.71602 0.97921 0.0
C1575 C 0.47628 0.77218 0.99235 0.0
C1576 C 0.50558 0.79108 0.9802 0.0
H1577 H 0.45305 0.72189 1.00254 0.0
H1578 H 0.45403 0.78592 1.00334 0.0
S1579 S 0.58575 0.75309 0.94062 0.0
N1580 N 0.56179 0.71858 0.9516 0.0
N1581 N 0.56284 0.78785 0.9525 0.0
C1582 C 0.53397 0.77213 0.96635 0.0
C1583 C 0.53341 0.73462 0.96586 0.0
C1584 C 0.52836 0.7857 0.26654 0.0
C1585 C 0.54839 0.75538 0.27303 0.0
C1586 C 0.49168 0.78482 0.26774 0.0
C1587 C 0.47348 0.75355 0.27542 0.0
H1588 H 0.54116 0.8103 0.26005 0.0
H1589 H 0.47745 0.8086 0.26147 0.0
S1590 S 0.51355 0.66727 0.2963 0.0
N1591 N 0.54727 0.69335 0.28834 0.0
N1592 N 0.47833 0.69195 0.29169 0.0
C1593 C 0.49318 0.72328 0.28308 0.0
C1594 C 0.5306 0.72415 0.28172 0.0
C1595 C 0.51896 0.23476 0.53419 0.0
C1596 C 0.50366 0.21534 0.50666 0.0
C1597 C 0.51991 0.27162 0.53335 0.0
C1598 C 0.50622 0.29033 0.50463 0.0
H1599 H 0.53025 0.22131 0.55655 0.0
H1600 H 0.53203 0.28557 0.55501 0.0
S1601 S 0.46334 0.2519 0.42595 0.0
N1602 N 0.47442 0.21755 0.44998 0.0
N1603 N 0.47633 0.28679 0.44833 0.0
C1604 C 0.49074 0.27124 0.47701 0.0
C1605 C 0.4894 0.23376 0.47806 0.0
C1606 C 0.02159 0.28252 0.75501 0.0
C1607 C 0.04067 0.25741 0.77427 0.0
C1608 C 0.98488 0.28214 0.75447 0.0
C1609 C 0.96582 0.25648 0.77291 0.0
H1610 H 0.03511 0.30211 0.73943 0.0
H1611 H 0.97131 0.30148 0.73866 0.0
S1612 S 1.00274 0.18692 0.82997 0.0
N1613 N 0.03741 0.20777 0.81441 0.0
N1614 N 0.96834 0.20668 0.81266 0.0
C1615 C 0.98438 0.23172 0.7929 0.0
C1616 C 0.02179 0.23226 0.79374 0.0
C1617 C 0.98319 0.77929 0.03491 0.0
C1618 C 1.00376 0.799 0.01136 0.0
C1619 C 0.9822 0.74247 0.03331 0.0
C1620 C 1.00137 0.72406 0.00778 0.0
H1621 H 0.96764 0.79248 0.05467 0.0
H1622 H 0.96577 0.72834 0.05173 0.0
S1623 S 0.05978 0.76319 0.94042 0.0
N1624 N 0.04397 0.7973 0.96195 0.0
N1625 N 0.04243 0.72814 0.9592 0.0
C1626 C 0.02238 0.74341 0.98437 0.0
C1627 C 0.02355 0.78085 0.98613 0.0
C1628 C 0.23058 0.49151 0.27588 0.0
C1629 C 0.24536 0.47064 0.24922 0.0
C1630 C 0.23183 0.5283 0.27436 0.0
C1631 C 0.24782 0.5458 0.24605 0.0
H1632 H 0.21834 0.47931 0.29846 0.0
H1633 H 0.22109 0.54308 0.29611 0.0
S1634 S 0.28831 0.5036 0.16818 0.0
N1635 N 0.27567 0.47041 0.19306 0.0
N1636 N 0.27649 0.53947 0.18941 0.0
C1637 C 0.2615 0.52531 0.21852 0.0
C1638 C 0.26055 0.48781 0.22024 0.0
C1639 C 0.72514 0.0245 0.7677 0.0
C1640 C 0.75046 0.04234 0.74761 0.0
C1641 C 0.72411 0.98767 0.7689 0.0
C1642 C 0.74812 0.96725 0.74974 0.0
H1643 H 0.70644 0.03913 0.78324 0.0
H1644 H 0.70441 0.97505 0.78505 0.0
S1645 S 0.81877 1.00123 0.69202 0.0
N1646 N 0.7993 0.03685 0.70709 0.0
N1647 N 0.79776 0.96768 0.70978 0.0
C1648 C 0.77317 0.98477 0.72903 0.0
C1649 C 0.77429 0.02227 0.72791 0.0
C1650 C 0.27231 0.50736 0.02728 0.0
C1651 C 0.29037 0.49103 0.99953 0.0
C1652 C 0.23567 0.509 0.0277 0.0
C1653 C 0.21548 0.49444 1.00038 0.0
H1654 H 0.28658 0.51985 0.04851 0.0
H1655 H 0.22305 0.52216 0.04947 0.0
S1656 S 0.24969 0.44792 0.92202 0.0
N1657 N 0.28509 0.45878 0.94459 0.0
N1658 N 0.21616 0.46287 0.94487 0.0
C1659 C 0.23306 0.47749 0.97273 0.0
C1660 C 0.27048 0.47568 0.97235 0.0
C1661 C 0.75596 0.02789 0.27863 0.0
C1662 C 0.77185 0.04706 0.25133 0.0
C1663 C 0.75544 0.99109 0.27842 0.0
C1664 C 0.77093 0.97189 0.251 0.0
H1665 H 0.74324 0.04145 0.3001 0.0
H1666 H 0.74278 0.97754 0.29998 0.0
S1667 S 0.81634 0.00942 0.17343 0.0
N1668 N 0.80409 0.04408 0.19641 0.0
N1669 N 0.80254 0.97481 0.19567 0.0
C1670 C 0.78717 0.99067 0.22363 0.0
C1671 C 0.78766 0.02824 0.22382 0.0
C1672 C 0.77039 0.03791 0.01932 0.0
C1673 C 0.79066 0.01461 0.99915 0.0
C1674 C 0.73367 0.036 0.01928 0.0
C1675 C 0.7157 0.0107 0.99906 0.0
H1676 H 0.78298 0.05787 0.03526 0.0
H1677 H 0.71928 0.05412 0.03573 0.0
S1678 S 0.75642 0.94376 0.94124 0.0
N1679 N 0.78991 0.96504 0.95873 0.0
N1680 N 0.72103 0.96261 0.95734 0.0
C1681 C 0.73563 0.98754 0.97839 0.0
C1682 C 0.77301 0.98925 0.9787 0.0
C1683 C 0.25776 0.52834 0.73294 0.0
C1684 C 0.27119 0.54607 0.76251 0.0
C1685 C 0.25637 0.49157 0.7316 0.0
C1686 C 0.26806 0.4708 0.75987 0.0
H1687 H 0.24719 0.54296 0.71098 0.0
H1688 H 0.24565 0.47931 0.70825 0.0
S1689 S 0.3074 0.50408 0.84277 0.0
N1690 N 0.29885 0.53983 0.81982 0.0
N1691 N 0.29422 0.47084 0.81818 0.0
C1692 C 0.28232 0.48811 0.78932 0.0
C1693 C 0.28427 0.52563 0.79046 0.0
C1694 C 0.24112 0.52442 0.4739 0.0
C1695 C 0.2235 0.51732 0.50552 0.0
C1696 C 0.27784 0.52481 0.47236 0.0
C1697 C 0.29835 0.51835 0.50243 0.0
H1698 H 0.22645 0.52853 0.44989 0.0
H1699 H 0.2903 0.5297 0.44729 0.0
S1700 S 0.26492 0.50057 0.59213 0.0
N1701 N 0.2293 0.50577 0.56806 0.0
N1702 N 0.29825 0.50569 0.565 0.0
C1703 C 0.28105 0.51235 0.53445 0.0
C1704 C 0.24368 0.51196 0.53602 0.0
C1705 C 0.77357 0.76575 0.98885 0.0
C1706 C 0.75576 0.73942 0.96977 0.0
C1707 C 0.77372 0.76596 0.02563 0.0
C1708 C 0.7558 0.74006 0.04487 0.0
H1709 H 0.78703 0.78682 0.97526 0.0
H1710 H 0.78731 0.78706 0.03913 0.0
S1711 S 0.70717 0.66399 0.00806 0.0
N1712 N 0.7214 0.68555 0.97324 0.0
N1713 N 0.72101 0.68657 0.04245 0.0
C1714 C 0.73819 0.71338 0.02632 0.0
C1715 C 0.7383 0.71293 0.98879 0.0
C1716 C 0.52859 0.53548 0.2672 0.0
C1717 C 0.52712 0.50378 0.28614 0.0
C1718 C 0.52692 0.53578 0.23045 0.0
C1719 C 0.5237 0.50439 0.21112 0.0
H1720 H 0.53054 0.56034 0.28095 0.0
H1721 H 0.52763 0.56087 0.21703 0.0
S1722 S 0.51807 0.41438 0.24808 0.0
N1723 N 0.52202 0.44013 0.28277 0.0
N1724 N 0.51901 0.44074 0.21365 0.0
C1725 C 0.52299 0.47244 0.22964 0.0
C1726 C 0.52465 0.47212 0.26713 0.0
C1727 C 0.78319 0.25656 0.48344 0.0
C1728 C 0.75767 0.27567 0.46503 0.0
C1729 C 0.7833 0.25545 0.52021 0.0
C1730 C 0.7581 0.27373 0.54006 0.0
H1731 H 0.80267 0.24154 0.46927 0.0
H1732 H 0.80289 0.23948 0.53314 0.0
S1733 S 0.6876 0.33033 0.50405 0.0
N1734 N 0.70763 0.31467 0.469 0.0
N1735 N 0.70831 0.3135 0.53821 0.0
C1736 C 0.73296 0.29373 0.52185 0.0
C1737 C 0.73266 0.29451 0.48435 0.0
C1738 C 0.00579 0.47676 0.73179 0.0
C1739 C 0.99228 0.50511 0.71234 0.0
C1740 C 0.00587 0.47715 0.76858 0.0
C1741 C 0.99224 0.5058 0.7874 0.0
H1742 H 0.01713 0.45436 0.71847 0.0
H1743 H 0.01682 0.45486 0.78241 0.0
S1744 S 0.95336 0.5864 0.74907 0.0
N1745 N 0.96418 0.56232 0.71471 0.0
N1746 N 0.96497 0.56335 0.78389 0.0
C1747 C 0.97829 0.53417 0.76834 0.0
C1748 C 0.97825 0.5338 0.73083 0.0
C1749 C 0.77255 0.02588 0.52039 0.0
C1750 C 0.79144 0.99593 0.51007 0.0
C1751 C 0.73585 0.02635 0.51936 0.0
C1752 C 0.71659 0.99676 0.50831 0.0
H1753 H 0.78628 0.04944 0.52869 0.0
H1754 H 0.72243 0.05011 0.52724 0.0
S1755 S 0.75342 0.9114 0.47962 0.0
N1756 N 0.78813 0.93558 0.48936 0.0
N1757 N 0.71905 0.93655 0.48718 0.0
C1758 C 0.73508 0.96643 0.49847 0.0
C1759 C 0.77252 0.96602 0.49931 0.0
loop_
_geom_bond_atom_site_label_1
_geom_bond_atom_site_label_2
_geom_bond_distance
_geom_bond_site_symmetry_2
_ccdc_geom_bond_type
Li0 N17 1.990 . S
Li0 O60 1.956 . S
Li0 O61 1.970 . S
Li0 O62 1.961 . S
Li1 N25 1.990 . S
Li1 O60 1.970 . S
Li1 O61 1.956 . S
Li1 O63 1.961 . S
Li2 N47 1.990 . S
Li2 O60 1.961 . S
Li2 O62 1.956 . S
Li2 O63 1.970 . S
Li3 N53 1.990 . S
Li3 O61 1.961 . S
Li3 O62 1.970 . S
Li3 O63 1.956 . S
C4 C6 1.348 . S
C4 C7 1.356 . S
C4 O60 1.325 . S
N5 C8 1.314 . S
N5 C9 1.279 . S
C6 C4 1.348 . S
C6 C8 1.353 . S
C6 H64 0.929 . S
C7 C4 1.356 . S
C7 C9 1.358 . S
C7 H65 0.930 . S
C8 N5 1.314 . S
C8 C6 1.353 . S
C8 H66 0.930 . S
C9 N5 1.279 . S
C9 C7 1.358 . S
C9 H67 0.930 . S
C10 C13 1.348 . S
C10 C14 1.356 . S
C10 O61 1.325 . S
C11 N12 1.279 . S
C11 C14 1.358 . S
C11 H68 0.930 . S
N12 C11 1.279 . S
N12 C15 1.314 . S
C13 C10 1.348 . S
C13 C15 1.353 . S
C13 H69 0.929 . S
C14 C10 1.356 . S
C14 C11 1.358 . S
C14 H70 0.930 . S
C15 N12 1.314 . S
C15 C13 1.353 . S
C15 H71 0.930 . S
C16 N17 1.314 . S
C16 C21 1.353 . S
C16 H22 0.930 . S
N17 Li0 1.990 . S
N17 C16 1.314 . S
N17 C19 1.279 . S
C18 C19 1.358 . S
C18 C20 1.356 . S
C18 H72 0.930 . S
C19 N17 1.279 . S
C19 C18 1.358 . S
C19 H23 0.930 . S
C20 C18 1.356 . S
C20 C21 1.348 . S
C21 C16 1.353 . S
C21 C20 1.348 . S
C21 H73 0.929 . S
H22 C16 0.930 . S
H23 C19 0.930 . S
C24 N25 1.314 . S
C24 C26 1.353 . S
C24 H30 0.930 . S
N25 Li1 1.990 . S
N25 C24 1.314 . S
N25 C28 1.279 . S
C26 C24 1.353 . S
C26 C29 1.348 . S
C26 H74 0.929 . S
C27 C28 1.358 . S
C27 C29 1.356 . S
C27 H75 0.930 . S
C28 N25 1.279 . S
C28 C27 1.358 . S
C28 H31 0.930 . S
C29 C26 1.348 . S
C29 C27 1.356 . S
H30 C24 0.930 . S
H31 C28 0.930 . S
C32 C34 1.348 . S
C32 C35 1.356 . S
C32 O62 1.325 . S
N33 C36 1.314 . S
N33 C37 1.279 . S
C34 C32 1.348 . S
C34 C36 1.353 . S
C34 H76 0.929 . S
C35 C32 1.356 . S
C35 C37 1.358 . S
C35 H77 0.930 . S
C36 N33 1.314 . S
C36 C34 1.353 . S
C36 H78 0.930 . S
C37 N33 1.279 . S
C37 C35 1.358 . S
C37 H79 0.930 . S
C38 C39 1.348 . S
C38 C40 1.356 . S
C38 O63 1.325 . S
C39 C38 1.348 . S
C39 C41 1.353 . S
C39 H80 0.929 . S
C40 C38 1.356 . S
C40 C42 1.358 . S
C40 H81 0.930 . S
C41 C39 1.353 . S
C41 N43 1.314 . S
C41 H82 0.930 . S
C42 C40 1.358 . S
C42 N43 1.279 . S
C42 H83 0.930 . S
N43 C41 1.314 . S
N43 C42 1.279 . S
C44 C46 1.353 . S
C44 N47 1.314 . S
C44 H50 0.930 . S
C45 N47 1.279 . S
C45 C48 1.358 . S
C45 H51 0.930 . S
C46 C44 1.353 . S
C46 C49 1.348 . S
C46 H84 0.929 . S
N47 Li2 1.990 . S
N47 C44 1.314 . S
N47 C45 1.279 . S
C48 C45 1.358 . S
C48 C49 1.356 . S
C48 H85 0.930 . S
C49 C46 1.348 . S
C49 C48 1.356 . S
H50 C44 0.930 . S
H51 C45 0.930 . S
C52 N53 1.314 . S
C52 C54 1.353 . S
C52 H58 0.930 . S
N53 Li3 1.990 . S
N53 C52 1.314 . S
N53 C56 1.279 . S
C54 C52 1.353 . S
C54 C57 1.348 . S
C54 H86 0.929 . S
C55 C56 1.358 . S
C55 C57 1.356 . S
C55 H87 0.930 . S
C56 N53 1.279 . S
C56 C55 1.358 . S
C56 H59 0.930 . S
C57 C54 1.348 . S
C57 C55 1.356 . S
H58 C52 0.930 . S
H59 C56 0.930 . S
O60 Li0 1.956 . S
O60 Li1 1.970 . S
O60 Li2 1.961 . S
O60 C4 1.325 . S
O61 Li0 1.970 . S
O61 Li1 1.956 . S
O61 Li3 1.961 . S
O61 C10 1.325 . S
O62 Li0 1.961 . S
O62 Li2 1.956 . S
O62 Li3 1.970 . S
O62 C32 1.325 . S
O63 Li1 1.961 . S
O63 Li2 1.970 . S
O63 Li3 1.956 . S
O63 C38 1.325 . S
H64 C6 0.929 . S
H65 C7 0.930 . S
H66 C8 0.930 . S
H67 C9 0.930 . S
H68 C11 0.930 . S
H69 C13 0.929 . S
H70 C14 0.930 . S
H71 C15 0.930 . S
H72 C18 0.930 . S
H73 C21 0.929 . S
H74 C26 0.929 . S
H75 C27 0.930 . S
H76 C34 0.929 . S
H77 C35 0.930 . S
H78 C36 0.930 . S
H79 C37 0.930 . S
H80 C39 0.929 . S
H81 C40 0.930 . S
H82 C41 0.930 . S
H83 C42 0.930 . S
H84 C46 0.929 . S
H85 C48 0.930 . S
H86 C54 0.929 . S
H87 C55 0.930 . S
Li88 N105 1.990 1_655 S
Li88 O148 1.956 . S
Li88 O149 1.970 . S
Li88 O150 1.961 1_655 S
Li89 N113 1.990 . S
Li89 O148 1.970 . S
Li89 O149 1.956 . S
Li89 O151 1.961 1_545 S
Li90 N135 1.990 . S
Li90 O148 1.961 . S
Li90 O150 1.956 1_655 S
Li90 O151 1.970 1_545 S
Li91 N141 1.990 . S
Li91 O149 1.961 1_465 S
Li91 O150 1.970 1_565 S
Li91 O151 1.956 1_455 S
C92 C94 1.348 . S
C92 C95 1.356 . S
C92 O148 1.325 . S
N93 C96 1.314 . S
N93 C97 1.279 . S
C94 C92 1.348 . S
C94 C96 1.353 . S
C94 H152 0.929 . S
C95 C92 1.356 . S
C95 C97 1.358 . S
C95 H153 0.930 . S
C96 N93 1.314 . S
C96 C94 1.353 . S
C96 H154 0.930 . S
C97 N93 1.279 . S
C97 C95 1.358 . S
C97 H155 0.930 . S
C98 C101 1.348 . S
C98 C102 1.356 . S
C98 O149 1.325 . S
C99 N100 1.279 . S
C99 C102 1.358 . S
C99 H156 0.930 . S
N100 C99 1.279 . S
N100 C103 1.314 . S
C101 C98 1.348 . S
C101 C103 1.353 . S
C101 H157 0.929 . S
C102 C98 1.356 . S
C102 C99 1.358 . S
C102 H158 0.930 1_545 S
C103 N100 1.314 . S
C103 C101 1.353 . S
C103 H159 0.930 . S
C104 N105 1.314 . S
C104 C109 1.353 . S
C104 H110 0.930 . S
N105 Li88 1.990 1_455 S
N105 C104 1.314 . S
N105 C107 1.279 1_455 S
C106 C107 1.358 . S
C106 C108 1.356 1_655 S
C106 H160 0.930 . S
C107 N105 1.279 1_655 S
C107 C106 1.358 . S
C107 H111 0.930 . S
C108 C106 1.356 1_455 S
C108 C109 1.348 . S
C109 C104 1.353 . S
C109 C108 1.348 . S
C109 H161 0.929 . S
H110 C104 0.930 . S
H111 C107 0.930 . S
C112 N113 1.314 1_565 S
C112 C114 1.353 . S
C112 H118 0.930 . S
N113 Li89 1.990 . S
N113 C112 1.314 1_545 S
N113 C116 1.279 . S
C114 C112 1.353 . S
C114 C117 1.348 . S
C114 H162 0.929 . S
C115 C116 1.358 . S
C115 C117 1.356 1_545 S
C115 H163 0.930 . S
C116 N113 1.279 . S
C116 C115 1.358 . S
C116 H119 0.930 . S
C117 C114 1.348 . S
C117 C115 1.356 1_565 S
H118 C112 0.930 . S
H119 C116 0.930 . S
C120 C122 1.348 . S
C120 C123 1.356 . S
C120 O150 1.325 . S
N121 C124 1.314 . S
N121 C125 1.279 . S
C122 C120 1.348 . S
C122 C124 1.353 . S
C122 H164 0.929 1_545 S
C123 C120 1.356 . S
C123 C125 1.358 . S
C123 H165 0.930 . S
C124 N121 1.314 . S
C124 C122 1.353 . S
C124 H166 0.948 . S
C125 N121 1.279 . S
C125 C123 1.358 . S
C125 H167 0.930 . S
C126 C127 1.348 . S
C126 C128 1.356 . S
C126 O151 1.325 . S
C127 C126 1.348 . S
C127 C129 1.353 . S
C127 H168 0.929 . S
C128 C126 1.356 . S
C128 C130 1.358 . S
C128 H169 0.930 . S
C129 C127 1.353 . S
C129 N131 1.314 . S
C129 H170 0.930 . S
C130 C128 1.358 . S
C130 N131 1.279 . S
C130 H171 0.930 . S
N131 C129 1.314 . S
N131 C130 1.279 . S
C132 C134 1.353 . S
C132 N135 1.314 1_565 S
C132 H138 0.930 1_565 S
C133 N135 1.279 1_465 S
C133 C136 1.358 . S
C133 H139 0.930 . S
C134 C132 1.353 . S
C134 C137 1.348 1_655 S
C134 H172 0.929 . S
N135 Li90 1.990 . S
N135 C132 1.314 1_545 S
N135 C133 1.279 1_645 S
C136 C133 1.358 . S
C136 C137 1.356 . S
C136 H173 0.930 . S
C137 C134 1.348 1_455 S
C137 C136 1.356 . S
H138 C132 0.930 1_545 S
H139 C133 0.930 . S
C140 N141 1.314 . S
C140 C142 1.353 . S
C140 H146 0.930 . S
N141 Li91 1.990 . S
N141 C140 1.314 . S
N141 C144 1.279 . S
C142 C140 1.353 . S
C142 C145 1.348 . S
C142 H174 0.929 . S
C143 C144 1.358 . S
C143 C145 1.356 . S
C143 H175 0.930 . S
C144 N141 1.279 . S
C144 C143 1.358 . S
C144 H147 0.930 . S
C145 C142 1.348 . S
C145 C143 1.356 . S
H146 C140 0.930 . S
H147 C144 0.930 . S
O148 Li88 1.956 . S
O148 Li89 1.970 . S
O148 Li90 1.961 . S
O148 C92 1.325 . S
O149 Li88 1.970 . S
O149 Li89 1.956 . S
O149 Li91 1.961 1_645 S
O149 C98 1.325 . S
O150 Li88 1.961 1_455 S
O150 Li90 1.956 1_455 S
O150 Li91 1.970 1_545 S
O150 C120 1.325 . S
O151 Li89 1.961 1_565 S
O151 Li90 1.970 1_565 S
O151 Li91 1.956 1_655 S
O151 C126 1.325 . S
H152 C94 0.929 . S
H153 C95 0.930 . S
H154 C96 0.930 . S
H155 C97 0.930 . S
H156 C99 0.930 . S
H157 C101 0.929 . S
H158 C102 0.930 1_565 S
H159 C103 0.930 . S
H160 C106 0.930 . S
H161 C109 0.929 . S
H162 C114 0.929 . S
H163 C115 0.930 . S
H164 C122 0.929 1_565 S
H165 C123 0.930 . S
H166 C124 0.948 . S
H167 C125 0.930 . S
H168 C127 0.929 . S
H169 C128 0.930 . S
H170 C129 0.930 . S
H171 C130 0.930 . S
H172 C134 0.929 . S
H173 C136 0.930 . S
H174 C142 0.929 . S
H175 C143 0.930 . S
Li176 N193 1.990 . S
Li176 O236 1.956 . S
Li176 O237 1.970 . S
Li176 O238 1.961 . S
Li177 N201 1.990 . S
Li177 O236 1.970 . S
Li177 O237 1.956 . S
Li177 O239 1.961 . S
Li178 N223 1.990 . S
Li178 O236 1.961 . S
Li178 O238 1.956 . S
Li178 O239 1.970 . S
Li179 N229 1.990 . S
Li179 O237 1.961 . S
Li179 O238 1.970 . S
Li179 O239 1.956 . S
C180 C182 1.348 . S
C180 C183 1.356 . S
C180 O236 1.325 . S
N181 C184 1.314 . S
N181 C185 1.279 . S
C182 C180 1.348 . S
C182 C184 1.353 . S
C182 H240 0.929 . S
C183 C180 1.356 . S
C183 C185 1.358 . S
C183 H241 0.930 . S
C184 N181 1.314 . S
C184 C182 1.353 . S
C184 H242 0.930 . S
C185 N181 1.279 . S
C185 C183 1.358 . S
C185 H243 0.930 . S
C186 C189 1.348 . S
C186 C190 1.356 . S
C186 O237 1.325 . S
C187 N188 1.279 . S
C187 C190 1.358 . S
C187 H244 0.930 . S
N188 C187 1.279 . S
N188 C191 1.314 . S
C189 C186 1.348 . S
C189 C191 1.353 . S
C189 H245 0.929 . S
C190 C186 1.356 . S
C190 C187 1.358 . S
C190 H246 0.930 . S
C191 N188 1.314 . S
C191 C189 1.353 . S
C191 H247 0.930 . S
C192 N193 1.314 . S
C192 C197 1.353 . S
C192 H198 0.930 . S
N193 Li176 1.990 . S
N193 C192 1.314 . S
N193 C195 1.279 . S
C194 C195 1.358 . S
C194 C196 1.356 . S
C194 H248 0.930 . S
C195 N193 1.279 . S
C195 C194 1.358 . S
C195 H199 0.930 . S
C196 C194 1.356 . S
C196 C197 1.348 . S
C197 C192 1.353 . S
C197 C196 1.348 . S
C197 H249 0.929 . S
H198 C192 0.930 . S
H199 C195 0.930 . S
C200 N201 1.314 . S
C200 C202 1.353 . S
C200 H206 0.930 . S
N201 Li177 1.990 . S
N201 C200 1.314 . S
N201 C204 1.279 . S
C202 C200 1.353 . S
C202 C205 1.348 . S
C202 H250 0.929 . S
C203 C204 1.358 . S
C203 C205 1.356 . S
C203 H251 0.930 . S
C204 N201 1.279 . S
C204 C203 1.358 . S
C204 H207 0.930 . S
C205 C202 1.348 . S
C205 C203 1.356 . S
H206 C200 0.930 . S
H207 C204 0.930 . S
C208 C210 1.348 . S
C208 C211 1.356 . S
C208 O238 1.325 . S
N209 C212 1.314 . S
N209 C213 1.279 . S
C210 C208 1.348 . S
C210 C212 1.353 . S
C210 H252 0.929 . S
C211 C208 1.356 . S
C211 C213 1.358 . S
C211 H253 0.930 . S
C212 N209 1.314 . S
C212 C210 1.353 . S
C212 H254 0.930 . S
C213 N209 1.279 . S
C213 C211 1.358 . S
C213 H255 0.930 . S
C214 C215 1.348 . S
C214 C216 1.356 . S
C214 O239 1.325 . S
C215 C214 1.348 . S
C215 C217 1.353 . S
C215 H256 0.929 . S
C216 C214 1.356 . S
C216 C218 1.358 . S
C216 H257 0.930 . S
C217 C215 1.353 . S
C217 N219 1.314 . S
C217 H258 0.930 . S
C218 C216 1.358 . S
C218 N219 1.279 . S
C218 H259 0.930 . S
N219 C217 1.314 . S
N219 C218 1.279 . S
C220 C222 1.353 . S
C220 N223 1.314 . S
C220 H226 0.930 . S
C221 N223 1.279 . S
C221 C224 1.358 . S
C221 H227 0.930 . S
C222 C220 1.353 . S
C222 C225 1.348 . S
C222 H260 0.929 . S
N223 Li178 1.990 . S
N223 C220 1.314 . S
N223 C221 1.279 . S
C224 C221 1.358 . S
C224 C225 1.356 . S
C224 H261 0.930 . S
C225 C222 1.348 . S
C225 C224 1.356 . S
H226 C220 0.930 . S
H227 C221 0.930 . S
C228 N229 1.314 . S
C228 C230 1.353 . S
C228 H234 0.930 . S
N229 Li179 1.990 . S
N229 C228 1.314 . S
N229 C232 1.279 . S
C230 C228 1.353 . S
C230 C233 1.348 . S
C230 H262 0.929 . S
C231 C232 1.358 . S
C231 C233 1.356 . S
C231 H263 0.930 . S
C232 N229 1.279 . S
C232 C231 1.358 . S
C232 H235 0.930 . S
C233 C230 1.348 . S
C233 C231 1.356 . S
H234 C228 0.930 . S
H235 C232 0.930 . S
O236 Li176 1.956 . S
O236 Li177 1.970 . S
O236 Li178 1.961 . S
O236 C180 1.325 . S
O237 Li176 1.970 . S
O237 Li177 1.956 . S
O237 Li179 1.961 . S
O237 C186 1.325 . S
O238 Li176 1.961 . S
O238 Li178 1.956 . S
O238 Li179 1.970 . S
O238 C208 1.325 . S
O239 Li177 1.961 . S
O239 Li178 1.970 . S
O239 Li179 1.956 . S
O239 C214 1.325 . S
H240 C182 0.929 . S
H241 C183 0.930 . S
H242 C184 0.930 . S
H243 C185 0.930 . S
H244 C187 0.930 . S
H245 C189 0.929 . S
H246 C190 0.930 . S
H247 C191 0.930 . S
H248 C194 0.930 . S
H249 C197 0.929 . S
H250 C202 0.929 . S
H251 C203 0.930 . S
H252 C210 0.929 . S
H253 C211 0.930 . S
H254 C212 0.930 . S
H255 C213 0.930 . S
H256 C215 0.929 . S
H257 C216 0.930 . S
H258 C217 0.930 . S
H259 C218 0.930 . S
H260 C222 0.929 . S
H261 C224 0.930 . S
H262 C230 0.929 . S
H263 C231 0.930 . S
Li264 N281 1.986 1_565 S
Li264 O324 1.956 . S
Li264 O325 1.970 . S
Li264 O326 1.961 1_565 S
Li265 N289 1.990 . S
Li265 O324 1.970 . S
Li265 O325 1.956 . S
Li265 O327 1.961 1_554 S
Li266 N311 1.994 . S
Li266 O324 1.961 . S
Li266 O326 1.956 1_565 S
Li266 O327 1.970 1_554 S
Li267 N317 1.990 . S
Li267 O325 1.961 1_546 S
Li267 O326 1.970 1_556 S
Li267 O327 1.956 1_545 S
C268 C270 1.348 . S
C268 C271 1.356 . S
C268 O324 1.325 . S
N269 C272 1.314 . S
N269 C273 1.279 . S
C270 C268 1.348 . S
C270 C272 1.353 . S
C270 H328 0.929 . S
C271 C268 1.356 . S
C271 C273 1.358 . S
C271 H329 0.930 . S
C272 N269 1.314 . S
C272 C270 1.353 . S
C272 H330 0.930 . S
C273 N269 1.279 . S
C273 C271 1.358 . S
C273 H331 0.930 . S
C274 C277 1.348 . S
C274 C278 1.356 . S
C274 O325 1.325 . S
C275 N276 1.279 . S
C275 C278 1.358 . S
C275 H332 0.930 . S
N276 C275 1.279 . S
N276 C279 1.314 . S
C277 C274 1.348 . S
C277 C279 1.353 . S
C277 H333 0.929 . S
C278 C274 1.356 . S
C278 C275 1.358 . S
C278 H334 0.930 1_554 S
C279 N276 1.314 . S
C279 C277 1.353 . S
C279 H335 0.930 . S
C280 N281 1.330 . S
C280 C285 1.353 . S
C280 H286 0.930 . S
N281 Li264 1.986 1_545 S
N281 C280 1.330 . S
N281 C283 1.269 1_545 S
C282 C283 1.358 . S
C282 C284 1.356 1_565 S
C282 H336 0.930 . S
C283 N281 1.269 1_565 S
C283 C282 1.358 . S
C283 H287 0.930 . S
C284 C282 1.356 1_545 S
C284 C285 1.348 . S
C285 C280 1.353 . S
C285 C284 1.348 . S
C285 H337 0.929 . S
H286 C280 0.930 . S
H287 C283 0.930 . S
C288 N289 1.314 1_556 S
C288 C290 1.353 . S
C288 H294 0.930 . S
N289 Li265 1.990 . S
N289 C288 1.314 1_554 S
N289 C292 1.279 . S
C290 C288 1.353 . S
C290 C293 1.348 . S
C290 H338 0.929 . S
C291 C292 1.358 . S
C291 C293 1.356 1_554 S
C291 H339 0.930 . S
C292 N289 1.279 . S
C292 C291 1.358 . S
C292 H295 0.930 . S
C293 C290 1.348 . S
C293 C291 1.356 1_556 S
H294 C288 0.930 . S
H295 C292 0.930 . S
C296 C298 1.348 . S
C296 C299 1.356 . S
C296 O326 1.325 . S
N297 C300 1.314 . S
N297 C301 1.279 . S
C298 C296 1.348 . S
C298 C300 1.353 . S
C298 H340 0.929 1_554 S
C299 C296 1.356 . S
C299 C301 1.358 . S
C299 H341 0.930 . S
C300 N297 1.314 . S
C300 C298 1.353 . S
C300 H342 0.929 1_554 S
C301 N297 1.279 . S
C301 C299 1.358 . S
C301 H343 0.930 . S
C302 C303 1.348 . S
C302 C304 1.356 . S
C302 O327 1.325 . S
C303 C302 1.348 . S
C303 C305 1.353 . S
C303 H344 0.929 . S
C304 C302 1.356 . S
C304 C306 1.358 . S
C304 H345 0.930 . S
C305 C303 1.353 . S
C305 N307 1.314 . S
C305 H346 0.930 . S
C306 C304 1.358 . S
C306 N307 1.279 . S
C306 H347 0.930 . S
N307 C305 1.314 . S
N307 C306 1.279 . S
C308 C310 1.353 . S
C308 N311 1.312 1_556 S
C308 H314 0.928 1_556 S
C309 N311 1.276 1_546 S
C309 C312 1.358 . S
C309 H315 0.930 . S
C310 C308 1.353 . S
C310 C313 1.348 1_565 S
C310 H348 0.929 . S
N311 Li266 1.994 . S
N311 C308 1.312 1_554 S
N311 C309 1.276 1_564 S
C312 C309 1.358 . S
C312 C313 1.356 . S
C312 H349 0.930 . S
C313 C310 1.348 1_545 S
C313 C312 1.356 . S
H314 C308 0.928 1_554 S
H315 C309 0.930 . S
C316 N317 1.314 . S
C316 C318 1.353 . S
C316 H322 0.963 . S
N317 Li267 1.990 . S
N317 C316 1.314 . S
N317 C320 1.279 . S
C318 C316 1.353 . S
C318 C321 1.348 . S
C318 H350 0.929 . S
C319 C320 1.358 . S
C319 C321 1.356 . S
C319 H351 0.930 . S
C320 N317 1.279 . S
C320 C319 1.358 . S
C320 H323 0.930 . S
C321 C318 1.348 . S
C321 C319 1.356 . S
H322 C316 0.963 . S
H323 C320 0.930 . S
O324 Li264 1.956 . S
O324 Li265 1.970 . S
O324 Li266 1.961 . S
O324 C268 1.325 . S
O325 Li264 1.970 . S
O325 Li265 1.956 . S
O325 Li267 1.961 1_564 S
O325 C274 1.325 . S
O326 Li264 1.961 1_545 S
O326 Li266 1.956 1_545 S
O326 Li267 1.970 1_554 S
O326 C296 1.325 . S
O327 Li265 1.961 1_556 S
O327 Li266 1.970 1_556 S
O327 Li267 1.956 1_565 S
O327 C302 1.325 . S
H328 C270 0.929 . S
H329 C271 0.930 . S
H330 C272 0.930 . S
H331 C273 0.930 . S
H332 C275 0.930 . S
H333 C277 0.929 . S
H334 C278 0.930 1_556 S
H335 C279 0.930 . S
H336 C282 0.930 . S
H337 C285 0.929 . S
H338 C290 0.929 . S
H339 C291 0.930 . S
H340 C298 0.929 1_556 S
H341 C299 0.930 . S
H342 C300 0.929 1_556 S
H343 C301 0.930 . S
H344 C303 0.929 . S
H345 C304 0.930 . S
H346 C305 0.930 . S
H347 C306 0.930 . S
H348 C310 0.929 . S
H349 C312 0.930 . S
H350 C318 0.929 . S
H351 C319 0.930 . S
Li352 N369 1.990 . S
Li352 O412 1.956 . S
Li352 O413 1.970 . S
Li352 O414 1.961 . S
Li353 N377 1.990 . S
Li353 O412 1.970 . S
Li353 O413 1.956 . S
Li353 O415 1.961 . S
Li354 N399 1.990 . S
Li354 O412 1.961 . S
Li354 O414 1.956 . S
Li354 O415 1.970 . S
Li355 N405 1.990 . S
Li355 O413 1.961 . S
Li355 O414 1.970 . S
Li355 O415 1.956 . S
C356 C358 1.348 . S
C356 C359 1.356 . S
C356 O412 1.325 . S
N357 C360 1.314 . S
N357 C361 1.279 . S
C358 C356 1.348 . S
C358 C360 1.353 . S
C358 H416 0.929 . S
C359 C356 1.356 . S
C359 C361 1.358 . S
C359 H417 0.930 . S
C360 N357 1.314 . S
C360 C358 1.353 . S
C360 H418 0.930 . S
C361 N357 1.279 . S
C361 C359 1.358 . S
C361 H419 0.930 . S
C362 C365 1.348 . S
C362 C366 1.356 . S
C362 O413 1.325 . S
C363 N364 1.279 . S
C363 C366 1.358 . S
C363 H420 0.930 . S
N364 C363 1.279 . S
N364 C367 1.314 . S
C365 C362 1.348 . S
C365 C367 1.353 . S
C365 H421 0.929 . S
C366 C362 1.356 . S
C366 C363 1.358 . S
C366 H422 0.930 . S
C367 N364 1.314 . S
C367 C365 1.353 . S
C367 H423 0.930 . S
C368 N369 1.314 . S
C368 C373 1.353 . S
C368 H374 0.930 . S
N369 Li352 1.990 . S
N369 C368 1.314 . S
N369 C371 1.279 . S
C370 C371 1.358 . S
C370 C372 1.356 . S
C370 H424 0.930 . S
C371 N369 1.279 . S
C371 C370 1.358 . S
C371 H375 0.930 . S
C372 C370 1.356 . S
C372 C373 1.348 . S
C373 C368 1.353 . S
C373 C372 1.348 . S
C373 H425 0.929 . S
H374 C368 0.930 . S
H375 C371 0.930 . S
C376 N377 1.314 . S
C376 C378 1.353 . S
C376 H382 0.930 . S
N377 Li353 1.990 . S
N377 C376 1.314 . S
N377 C380 1.279 . S
C378 C376 1.353 . S
C378 C381 1.348 . S
C378 H426 0.929 . S
C379 C380 1.358 . S
C379 C381 1.356 . S
C379 H427 0.930 . S
C380 N377 1.279 . S
C380 C379 1.358 . S
C380 H383 0.930 . S
C381 C378 1.348 . S
C381 C379 1.356 . S
H382 C376 0.930 . S
H383 C380 0.930 . S
C384 C386 1.348 . S
C384 C387 1.356 . S
C384 O414 1.325 . S
N385 C388 1.314 . S
N385 C389 1.279 . S
C386 C384 1.348 . S
C386 C388 1.353 . S
C386 H428 0.929 . S
C387 C384 1.356 . S
C387 C389 1.358 . S
C387 H429 0.930 . S
C388 N385 1.314 . S
C388 C386 1.353 . S
C388 H430 0.930 . S
C389 N385 1.279 . S
C389 C387 1.358 . S
C389 H431 0.930 . S
C390 C391 1.348 . S
C390 C392 1.356 . S
C390 O415 1.325 . S
C391 C390 1.348 . S
C391 C393 1.353 . S
C391 H432 0.929 . S
C392 C390 1.356 . S
C392 C394 1.358 . S
C392 H433 0.930 . S
C393 C391 1.353 . S
C393 N395 1.314 . S
C393 H434 0.930 . S
C394 C392 1.358 . S
C394 N395 1.279 . S
C394 H435 0.930 . S
N395 C393 1.314 . S
N395 C394 1.279 . S
C396 C398 1.353 . S
C396 N399 1.314 . S
C396 H402 0.930 . S
C397 N399 1.279 . S
C397 C400 1.358 . S
C397 H403 0.930 . S
C398 C396 1.353 . S
C398 C401 1.348 . S
C398 H436 0.929 . S
N399 Li354 1.990 . S
N399 C396 1.314 . S
N399 C397 1.279 . S
C400 C397 1.358 . S
C400 C401 1.356 . S
C400 H437 0.930 . S
C401 C398 1.348 . S
C401 C400 1.356 . S
H402 C396 0.930 . S
H403 C397 0.930 . S
C404 N405 1.314 . S
C404 C406 1.353 . S
C404 H410 0.930 . S
N405 Li355 1.990 . S
N405 C404 1.314 . S
N405 C408 1.279 . S
C406 C404 1.353 . S
C406 C409 1.348 . S
C406 H438 0.929 . S
C407 C408 1.358 . S
C407 C409 1.356 . S
C407 H439 0.930 . S
C408 N405 1.279 . S
C408 C407 1.358 . S
C408 H411 0.930 . S
C409 C406 1.348 . S
C409 C407 1.356 . S
H410 C404 0.930 . S
H411 C408 0.930 . S
O412 Li352 1.956 . S
O412 Li353 1.970 . S
O412 Li354 1.961 . S
O412 C356 1.325 . S
O413 Li352 1.970 . S
O413 Li353 1.956 . S
O413 Li355 1.961 . S
O413 C362 1.325 . S
O414 Li352 1.961 . S
O414 Li354 1.956 . S
O414 Li355 1.970 . S
O414 C384 1.325 . S
O415 Li353 1.961 . S
O415 Li354 1.970 . S
O415 Li355 1.956 . S
O415 C390 1.325 . S
H416 C358 0.929 . S
H417 C359 0.930 . S
H418 C360 0.930 . S
H419 C361 0.930 . S
H420 C363 0.930 . S
H421 C365 0.929 . S
H422 C366 0.930 . S
H423 C367 0.930 . S
H424 C370 0.930 . S
H425 C373 0.929 . S
H426 C378 0.929 . S
H427 C379 0.930 . S
H428 C386 0.929 . S
H429 C387 0.930 . S
H430 C388 0.930 . S
H431 C389 0.930 . S
H432 C391 0.929 . S
H433 C392 0.930 . S
H434 C393 0.930 . S
H435 C394 0.930 . S
H436 C398 0.929 . S
H437 C400 0.930 . S
H438 C406 0.929 . S
H439 C407 0.930 . S
Li440 N457 1.990 . S
Li440 O500 1.956 . S
Li440 O501 1.970 . S
Li440 O502 1.961 1_545 S
Li441 N465 1.990 . S
Li441 O500 1.970 . S
Li441 O501 1.956 . S
Li441 O503 1.961 . S
Li442 N487 1.990 . S
Li442 O500 1.961 1_565 S
Li442 O502 1.956 . S
Li442 O503 1.970 1_565 S
Li443 N493 1.990 . S
Li443 O501 1.961 . S
Li443 O502 1.970 1_545 S
Li443 O503 1.956 . S
C444 C446 1.348 . S
C444 C447 1.356 . S
C444 O500 1.325 . S
N445 C448 1.314 . S
N445 C449 1.279 . S
C446 C444 1.348 . S
C446 C448 1.353 . S
C446 H504 0.929 . S
C447 C444 1.356 . S
C447 C449 1.358 . S
C447 H505 0.930 1_545 S
C448 N445 1.314 . S
C448 C446 1.353 . S
C448 H506 0.930 . S
C449 N445 1.279 . S
C449 C447 1.358 . S
C449 H507 0.930 . S
C450 C453 1.348 . S
C450 C454 1.356 . S
C450 O501 1.325 . S
C451 N452 1.279 . S
C451 C454 1.358 . S
C451 H508 0.930 . S
N452 C451 1.279 . S
N452 C455 1.314 . S
C453 C450 1.348 . S
C453 C455 1.353 . S
C453 H509 0.929 . S
C454 C450 1.356 . S
C454 C451 1.358 . S
C454 H510 0.930 . S
C455 N452 1.314 . S
C455 C453 1.353 . S
C455 H511 0.930 . S
C456 N457 1.314 1_565 S
C456 C461 1.353 . S
C456 H462 0.930 . S
N457 Li440 1.990 . S
N457 C456 1.314 1_545 S
N457 C459 1.279 . S
C458 C459 1.358 . S
C458 C460 1.356 1_545 S
C458 H512 0.930 . S
C459 N457 1.279 . S
C459 C458 1.358 . S
C459 H463 0.930 . S
C460 C458 1.356 1_565 S
C460 C461 1.348 . S
C461 C456 1.353 . S
C461 C460 1.348 . S
C461 H513 0.929 . S
H462 C456 0.930 . S
H463 C459 0.930 . S
C464 N465 1.314 . S
C464 C466 1.353 . S
C464 H470 0.930 . S
N465 Li441 1.990 . S
N465 C464 1.314 . S
N465 C468 1.279 . S
C466 C464 1.353 . S
C466 C469 1.348 . S
C466 H514 0.929 . S
C467 C468 1.358 . S
C467 C469 1.356 . S
C467 H515 0.930 . S
C468 N465 1.279 . S
C468 C467 1.358 . S
C468 H471 0.930 . S
C469 C466 1.348 . S
C469 C467 1.356 . S
H470 C464 0.930 . S
H471 C468 0.930 . S
C472 C474 1.348 . S
C472 C475 1.356 . S
C472 O502 1.325 . S
N473 C476 1.314 . S
N473 C477 1.279 . S
C474 C472 1.348 . S
C474 C476 1.353 . S
C474 H516 0.929 . S
C475 C472 1.356 . S
C475 C477 1.358 . S
C475 H517 0.930 . S
C476 N473 1.314 . S
C476 C474 1.353 . S
C476 H518 0.930 . S
C477 N473 1.279 . S
C477 C475 1.358 . S
C477 H519 0.930 . S
C478 C479 1.348 . S
C478 C480 1.356 . S
C478 O503 1.325 . S
C479 C478 1.348 . S
C479 C481 1.353 . S
C479 H520 0.929 1_545 S
C480 C478 1.356 . S
C480 C482 1.358 . S
C480 H521 0.930 . S
C481 C479 1.353 . S
C481 N483 1.314 . S
C481 H522 0.929 . S
C482 C480 1.358 . S
C482 N483 1.279 . S
C482 H523 0.930 . S
N483 C481 1.314 . S
N483 C482 1.279 . S
C484 C486 1.353 . S
C484 N487 1.314 . S
C484 H490 0.933 . S
C485 N487 1.279 . S
C485 C488 1.358 . S
C485 H491 0.930 . S
C486 C484 1.353 . S
C486 C489 1.348 . S
C486 H524 0.929 . S
N487 Li442 1.990 . S
N487 C484 1.314 . S
N487 C485 1.279 . S
C488 C485 1.358 . S
C488 C489 1.356 . S
C488 H525 0.930 . S
C489 C486 1.348 . S
C489 C488 1.356 . S
H490 C484 0.933 . S
H491 C485 0.930 . S
C492 N493 1.314 1_565 S
C492 C494 1.353 . S
C492 H498 0.925 1_565 S
N493 Li443 1.990 . S
N493 C492 1.314 1_545 S
N493 C496 1.279 1_545 S
C494 C492 1.353 . S
C494 C497 1.348 . S
C494 H526 0.929 . S
C495 C496 1.358 . S
C495 C497 1.356 . S
C495 H527 0.930 . S
C496 N493 1.279 1_565 S
C496 C495 1.358 . S
C496 H499 0.930 . S
C497 C494 1.348 . S
C497 C495 1.356 . S
H498 C492 0.925 1_545 S
H499 C496 0.930 . S
O500 Li440 1.956 . S
O500 Li441 1.970 . S
O500 Li442 1.961 1_545 S
O500 C444 1.325 . S
O501 Li440 1.970 . S
O501 Li441 1.956 . S
O501 Li443 1.961 . S
O501 C450 1.325 . S
O502 Li440 1.961 1_565 S
O502 Li442 1.956 . S
O502 Li443 1.970 1_565 S
O502 C472 1.325 . S
O503 Li441 1.961 . S
O503 Li442 1.970 1_545 S
O503 Li443 1.956 . S
O503 C478 1.325 . S
H504 C446 0.929 . S
H505 C447 0.930 1_565 S
H506 C448 0.930 . S
H507 C449 0.930 . S
H508 C451 0.930 . S
H509 C453 0.929 . S
H510 C454 0.930 . S
H511 C455 0.930 . S
H512 C458 0.930 . S
H513 C461 0.929 . S
H514 C466 0.929 . S
H515 C467 0.930 . S
H516 C474 0.929 . S
H517 C475 0.930 . S
H518 C476 0.930 . S
H519 C477 0.930 . S
H520 C479 0.929 1_565 S
H521 C480 0.930 . S
H522 C481 0.929 . S
H523 C482 0.930 . S
H524 C486 0.929 . S
H525 C488 0.930 . S
H526 C494 0.929 . S
H527 C495 0.930 . S
Li528 N545 1.990 . S
Li528 O588 1.956 . S
Li528 O589 1.970 . S
Li528 O590 1.961 . S
Li529 N553 1.990 . S
Li529 O588 1.970 . S
Li529 O589 1.956 . S
Li529 O591 1.961 . S
Li530 N575 1.990 . S
Li530 O588 1.961 . S
Li530 O590 1.956 . S
Li530 O591 1.970 . S
Li531 N581 1.990 . S
Li531 O589 1.961 . S
Li531 O590 1.970 . S
Li531 O591 1.956 . S
C532 C534 1.348 . S
C532 C535 1.356 . S
C532 O588 1.325 . S
N533 C536 1.314 . S
N533 C537 1.279 . S
C534 C532 1.348 . S
C534 C536 1.353 . S
C534 H592 0.929 . S
C535 C532 1.356 . S
C535 C537 1.358 . S
C535 H593 0.930 . S
C536 N533 1.314 . S
C536 C534 1.353 . S
C536 H594 0.930 . S
C537 N533 1.279 . S
C537 C535 1.358 . S
C537 H595 0.930 . S
C538 C541 1.348 . S
C538 C542 1.356 . S
C538 O589 1.325 . S
C539 N540 1.279 . S
C539 C542 1.358 . S
C539 H596 0.930 . S
N540 C539 1.279 . S
N540 C543 1.314 . S
C541 C538 1.348 . S
C541 C543 1.353 . S
C541 H597 0.929 . S
C542 C538 1.356 . S
C542 C539 1.358 . S
C542 H598 0.930 . S
C543 N540 1.314 . S
C543 C541 1.353 . S
C543 H599 0.930 . S
C544 N545 1.314 . S
C544 C549 1.353 . S
C544 H550 0.930 . S
N545 Li528 1.990 . S
N545 C544 1.314 . S
N545 C547 1.279 . S
C546 C547 1.358 . S
C546 C548 1.356 . S
C546 H600 0.930 . S
C547 N545 1.279 . S
C547 C546 1.358 . S
C547 H551 0.930 . S
C548 C546 1.356 . S
C548 C549 1.348 . S
C549 C544 1.353 . S
C549 C548 1.348 . S
C549 H601 0.929 . S
H550 C544 0.930 . S
H551 C547 0.930 . S
C552 N553 1.314 . S
C552 C554 1.353 . S
C552 H558 0.930 . S
N553 Li529 1.990 . S
N553 C552 1.314 . S
N553 C556 1.279 . S
C554 C552 1.353 . S
C554 C557 1.348 . S
C554 H602 0.929 . S
C555 C556 1.358 . S
C555 C557 1.356 . S
C555 H603 0.930 . S
C556 N553 1.279 . S
C556 C555 1.358 . S
C556 H559 0.930 . S
C557 C554 1.348 . S
C557 C555 1.356 . S
H558 C552 0.930 . S
H559 C556 0.930 . S
C560 C562 1.348 . S
C560 C563 1.356 . S
C560 O590 1.325 . S
N561 C564 1.314 . S
N561 C565 1.279 . S
C562 C560 1.348 . S
C562 C564 1.353 . S
C562 H604 0.929 . S
C563 C560 1.356 . S
C563 C565 1.358 . S
C563 H605 0.930 . S
C564 N561 1.314 . S
C564 C562 1.353 . S
C564 H606 0.930 . S
C565 N561 1.279 . S
C565 C563 1.358 . S
C565 H607 0.930 . S
C566 C567 1.348 . S
C566 C568 1.356 . S
C566 O591 1.325 . S
C567 C566 1.348 . S
C567 C569 1.353 . S
C567 H608 0.929 . S
C568 C566 1.356 . S
C568 C570 1.358 . S
C568 H609 0.930 . S
C569 C567 1.353 . S
C569 N571 1.314 . S
C569 H610 0.930 . S
C570 C568 1.358 . S
C570 N571 1.279 . S
C570 H611 0.930 . S
N571 C569 1.314 . S
N571 C570 1.279 . S
C572 C574 1.353 . S
C572 N575 1.314 . S
C572 H578 0.930 . S
C573 N575 1.279 . S
C573 C576 1.358 . S
C573 H579 0.930 . S
C574 C572 1.353 . S
C574 C577 1.348 . S
C574 H612 0.929 . S
N575 Li530 1.990 . S
N575 C572 1.314 . S
N575 C573 1.279 . S
C576 C573 1.358 . S
C576 C577 1.356 . S
C576 H613 0.930 . S
C577 C574 1.348 . S
C577 C576 1.356 . S
H578 C572 0.930 . S
H579 C573 0.930 . S
C580 N581 1.314 . S
C580 C582 1.353 . S
C580 H586 0.930 . S
N581 Li531 1.990 . S
N581 C580 1.314 . S
N581 C584 1.279 . S
C582 C580 1.353 . S
C582 C585 1.348 . S
C582 H614 0.929 . S
C583 C584 1.358 . S
C583 C585 1.356 . S
C583 H615 0.930 . S
C584 N581 1.279 . S
C584 C583 1.358 . S
C584 H587 0.930 . S
C585 C582 1.348 . S
C585 C583 1.356 . S
H586 C580 0.930 . S
H587 C584 0.930 . S
O588 Li528 1.956 . S
O588 Li529 1.970 . S
O588 Li530 1.961 . S
O588 C532 1.325 . S
O589 Li528 1.970 . S
O589 Li529 1.956 . S
O589 Li531 1.961 . S
O589 C538 1.325 . S
O590 Li528 1.961 . S
O590 Li530 1.956 . S
O590 Li531 1.970 . S
O590 C560 1.325 . S
O591 Li529 1.961 . S
O591 Li530 1.970 . S
O591 Li531 1.956 . S
O591 C566 1.325 . S
H592 C534 0.929 . S
H593 C535 0.930 . S
H594 C536 0.930 . S
H595 C537 0.930 . S
H596 C539 0.930 . S
H597 C541 0.929 . S
H598 C542 0.930 . S
H599 C543 0.930 . S
H600 C546 0.930 . S
H601 C549 0.929 . S
H602 C554 0.929 . S
H603 C555 0.930 . S
H604 C562 0.929 . S
H605 C563 0.930 . S
H606 C564 0.930 . S
H607 C565 0.930 . S
H608 C567 0.929 . S
H609 C568 0.930 . S
H610 C569 0.930 . S
H611 C570 0.930 . S
H612 C574 0.929 . S
H613 C576 0.930 . S
H614 C582 0.929 . S
H615 C583 0.930 . S
Li616 N633 1.990 . S
Li616 O676 1.956 1_655 S
Li616 O677 1.970 1_565 S
Li616 O678 1.961 . S
Li617 N641 1.990 . S
Li617 O676 1.970 1_544 S
Li617 O677 1.956 1_454 S
Li617 O679 1.961 1_445 S
Li618 N663 1.982 1_655 S
Li618 O676 1.961 1_655 S
Li618 O678 1.956 . S
Li618 O679 1.970 1_556 S
Li619 N669 1.990 1_556 S
Li619 O677 1.961 1_565 S
Li619 O678 1.970 . S
Li619 O679 1.956 1_556 S
C620 C622 1.348 . S
C620 C623 1.356 . S
C620 O676 1.325 . S
N621 C624 1.314 . S
N621 C625 1.279 . S
C622 C620 1.348 . S
C622 C624 1.353 . S
C622 H680 0.929 1_565 S
C623 C620 1.356 . S
C623 C625 1.358 . S
C623 H681 0.930 . S
C624 N621 1.314 . S
C624 C622 1.353 . S
C624 H682 0.943 . S
C625 N621 1.279 . S
C625 C623 1.358 . S
C625 H683 0.930 . S
C626 C629 1.348 . S
C626 C630 1.356 . S
C626 O677 1.325 . S
C627 N628 1.279 . S
C627 C630 1.358 . S
C627 H684 0.930 1_556 S
N628 C627 1.279 . S
N628 C631 1.314 . S
C629 C626 1.348 . S
C629 C631 1.353 . S
C629 H685 0.929 . S
C630 C626 1.356 . S
C630 C627 1.358 . S
C630 H686 0.930 1_556 S
C631 N628 1.314 . S
C631 C629 1.353 . S
C631 H687 0.930 . S
C632 N633 1.314 1_545 S
C632 C637 1.353 . S
C632 H638 0.930 1_545 S
N633 Li616 1.990 . S
N633 C632 1.314 1_565 S
N633 C635 1.279 1_665 S
C634 C635 1.358 . S
C634 C636 1.356 . S
C634 H688 0.930 . S
C635 N633 1.279 1_445 S
C635 C634 1.358 . S
C635 H639 0.930 . S
C636 C634 1.356 . S
C636 C637 1.348 1_455 S
C637 C632 1.353 . S
C637 C636 1.348 1_655 S
C637 H689 0.929 . S
H638 C632 0.930 1_565 S
H639 C635 0.930 . S
C640 N641 1.314 . S
C640 C642 1.353 . S
C640 H646 0.928 1_545 S
N641 Li617 1.990 . S
N641 C640 1.314 . S
N641 C644 1.279 . S
C642 C640 1.353 . S
C642 C645 1.348 . S
C642 H690 0.929 . S
C643 C644 1.358 . S
C643 C645 1.356 . S
C643 H691 0.930 . S
C644 N641 1.279 . S
C644 C643 1.358 . S
C644 H647 0.930 . S
C645 C642 1.348 . S
C645 C643 1.356 . S
H646 C640 0.928 1_565 S
H647 C644 0.930 . S
C648 C650 1.348 . S
C648 C651 1.356 . S
C648 O678 1.325 . S
N649 C652 1.314 . S
N649 C653 1.279 . S
C650 C648 1.348 . S
C650 C652 1.353 . S
C650 H692 0.929 . S
C651 C648 1.356 . S
C651 C653 1.358 . S
C651 H693 0.930 . S
C652 N649 1.314 . S
C652 C650 1.353 . S
C652 H694 0.930 . S
C653 N649 1.279 . S
C653 C651 1.358 . S
C653 H695 0.930 . S
C654 C655 1.348 . S
C654 C656 1.356 . S
C654 O679 1.325 . S
C655 C654 1.348 . S
C655 C657 1.353 . S
C655 H696 0.929 . S
C656 C654 1.356 . S
C656 C658 1.358 . S
C656 H697 0.930 1_565 S
C657 C655 1.353 . S
C657 N659 1.314 . S
C657 H698 0.930 . S
C658 C656 1.358 . S
C658 N659 1.279 . S
C658 H699 0.930 . S
N659 C657 1.314 . S
N659 C658 1.279 . S
C660 C662 1.353 . S
C660 N663 1.342 1_554 S
C660 H666 0.930 . S
C661 N663 1.261 1_655 S
C661 C664 1.358 . S
C661 H667 0.930 . S
C662 C660 1.353 . S
C662 C665 1.348 . S
C662 H700 0.929 . S
N663 Li618 1.982 1_455 S
N663 C660 1.342 1_556 S
N663 C661 1.261 1_455 S
C664 C661 1.358 . S
C664 C665 1.356 1_656 S
C664 H701 0.930 . S
C665 C662 1.348 . S
C665 C664 1.356 1_454 S
H666 C660 0.930 . S
H667 C661 0.930 . S
C668 N669 1.314 1_546 S
C668 C670 1.353 . S
C668 H674 0.930 . S
N669 Li619 1.990 1_554 S
N669 C668 1.314 1_564 S
N669 C672 1.279 . S
C670 C668 1.353 . S
C670 C673 1.348 1_556 S
C670 H702 0.929 . S
C671 C672 1.358 . S
C671 C673 1.356 1_565 S
C671 H703 0.930 . S
C672 N669 1.279 . S
C672 C671 1.358 . S
C672 H675 0.930 . S
C673 C670 1.348 1_554 S
C673 C671 1.356 1_545 S
H674 C668 0.930 . S
H675 C672 0.930 . S
O676 Li616 1.956 1_455 S
O676 Li617 1.970 1_566 S
O676 Li618 1.961 1_455 S
O676 C620 1.325 . S
O677 Li616 1.970 1_545 S
O677 Li617 1.956 1_656 S
O677 Li619 1.961 1_545 S
O677 C626 1.325 . S
O678 Li616 1.961 . S
O678 Li618 1.956 . S
O678 Li619 1.970 . S
O678 C648 1.325 . S
O679 Li617 1.961 1_665 S
O679 Li618 1.970 1_554 S
O679 Li619 1.956 1_554 S
O679 C654 1.325 . S
H680 C622 0.929 1_545 S
H681 C623 0.930 . S
H682 C624 0.943 . S
H683 C625 0.930 . S
H684 C627 0.930 1_554 S
H685 C629 0.929 . S
H686 C630 0.930 1_554 S
H687 C631 0.930 . S
H688 C634 0.930 . S
H689 C637 0.929 . S
H690 C642 0.929 . S
H691 C643 0.930 . S
H692 C650 0.929 . S
H693 C651 0.930 . S
H694 C652 0.930 . S
H695 C653 0.930 . S
H696 C655 0.929 . S
H697 C656 0.930 1_545 S
H698 C657 0.930 . S
H699 C658 0.930 . S
H700 C662 0.929 . S
H701 C664 0.930 . S
H702 C670 0.929 . S
H703 C671 0.930 . S
Li704 N721 1.990 . S
Li704 O764 1.956 . S
Li704 O765 1.970 . S
Li704 O766 1.961 . S
Li705 N729 1.990 . S
Li705 O764 1.970 . S
Li705 O765 1.956 . S
Li705 O767 1.961 . S
Li706 N751 1.990 . S
Li706 O764 1.961 . S
Li706 O766 1.956 . S
Li706 O767 1.970 . S
Li707 N757 1.990 . S
Li707 O765 1.961 . S
Li707 O766 1.970 . S
Li707 O767 1.956 . S
C708 C710 1.348 . S
C708 C711 1.356 . S
C708 O764 1.325 . S
N709 C712 1.314 . S
N709 C713 1.279 . S
C710 C708 1.348 . S
C710 C712 1.353 . S
C710 H768 0.929 . S
C711 C708 1.356 . S
C711 C713 1.358 . S
C711 H769 0.930 . S
C712 N709 1.314 . S
C712 C710 1.353 . S
C712 H770 0.930 . S
C713 N709 1.279 . S
C713 C711 1.358 . S
C713 H771 0.930 . S
C714 C717 1.348 . S
C714 C718 1.356 . S
C714 O765 1.325 . S
C715 N716 1.279 . S
C715 C718 1.358 . S
C715 H772 0.930 . S
N716 C715 1.279 . S
N716 C719 1.314 . S
C717 C714 1.348 . S
C717 C719 1.353 . S
C717 H773 0.929 . S
C718 C714 1.356 . S
C718 C715 1.358 . S
C718 H774 0.930 . S
C719 N716 1.314 . S
C719 C717 1.353 . S
C719 H775 0.930 . S
C720 N721 1.314 . S
C720 C725 1.353 . S
C720 H726 0.930 . S
N721 Li704 1.990 . S
N721 C720 1.314 . S
N721 C723 1.279 . S
C722 C723 1.358 . S
C722 C724 1.356 . S
C722 H776 0.930 . S
C723 N721 1.279 . S
C723 C722 1.358 . S
C723 H727 0.930 . S
C724 C722 1.356 . S
C724 C725 1.348 . S
C725 C720 1.353 . S
C725 C724 1.348 . S
C725 H777 0.929 . S
H726 C720 0.930 . S
H727 C723 0.930 . S
C728 N729 1.314 . S
C728 C730 1.353 . S
C728 H734 0.930 . S
N729 Li705 1.990 . S
N729 C728 1.314 . S
N729 C732 1.279 . S
C730 C728 1.353 . S
C730 C733 1.348 . S
C730 H778 0.929 . S
C731 C732 1.358 . S
C731 C733 1.356 . S
C731 H779 0.930 . S
C732 N729 1.279 . S
C732 C731 1.358 . S
C732 H735 0.930 . S
C733 C730 1.348 . S
C733 C731 1.356 . S
H734 C728 0.930 . S
H735 C732 0.930 . S
C736 C738 1.348 . S
C736 C739 1.356 . S
C736 O766 1.325 . S
N737 C740 1.314 . S
N737 C741 1.279 . S
C738 C736 1.348 . S
C738 C740 1.353 . S
C738 H780 0.929 . S
C739 C736 1.356 . S
C739 C741 1.358 . S
C739 H781 0.930 . S
C740 N737 1.314 . S
C740 C738 1.353 . S
C740 H782 0.930 . S
C741 N737 1.279 . S
C741 C739 1.358 . S
C741 H783 0.930 . S
C742 C743 1.348 . S
C742 C744 1.356 . S
C742 O767 1.325 . S
C743 C742 1.348 . S
C743 C745 1.353 . S
C743 H784 0.929 . S
C744 C742 1.356 . S
C744 C746 1.358 . S
C744 H785 0.930 . S
C745 C743 1.353 . S
C745 N747 1.314 . S
C745 H786 0.930 . S
C746 C744 1.358 . S
C746 N747 1.279 . S
C746 H787 0.930 . S
N747 C745 1.314 . S
N747 C746 1.279 . S
C748 C750 1.353 . S
C748 N751 1.314 . S
C748 H754 0.930 . S
C749 N751 1.279 . S
C749 C752 1.358 . S
C749 H755 0.930 . S
C750 C748 1.353 . S
C750 C753 1.348 . S
C750 H788 0.929 . S
N751 Li706 1.990 . S
N751 C748 1.314 . S
N751 C749 1.279 . S
C752 C749 1.358 . S
C752 C753 1.356 . S
C752 H789 0.930 . S
C753 C750 1.348 . S
C753 C752 1.356 . S
H754 C748 0.930 . S
H755 C749 0.930 . S
C756 N757 1.314 . S
C756 C758 1.353 . S
C756 H762 0.930 . S
N757 Li707 1.990 . S
N757 C756 1.314 . S
N757 C760 1.279 . S
C758 C756 1.353 . S
C758 C761 1.348 . S
C758 H790 0.929 . S
C759 C760 1.358 . S
C759 C761 1.356 . S
C759 H791 0.930 . S
C760 N757 1.279 . S
C760 C759 1.358 . S
C760 H763 0.930 . S
C761 C758 1.348 . S
C761 C759 1.356 . S
H762 C756 0.930 . S
H763 C760 0.930 . S
O764 Li704 1.956 . S
O764 Li705 1.970 . S
O764 Li706 1.961 . S
O764 C708 1.325 . S
O765 Li704 1.970 . S
O765 Li705 1.956 . S
O765 Li707 1.961 . S
O765 C714 1.325 . S
O766 Li704 1.961 . S
O766 Li706 1.956 . S
O766 Li707 1.970 . S
O766 C736 1.325 . S
O767 Li705 1.961 . S
O767 Li706 1.970 . S
O767 Li707 1.956 . S
O767 C742 1.325 . S
H768 C710 0.929 . S
H769 C711 0.930 . S
H770 C712 0.930 . S
H771 C713 0.930 . S
H772 C715 0.930 . S
H773 C717 0.929 . S
H774 C718 0.930 . S
H775 C719 0.930 . S
H776 C722 0.930 . S
H777 C725 0.929 . S
H778 C730 0.929 . S
H779 C731 0.930 . S
H780 C738 0.929 . S
H781 C739 0.930 . S
H782 C740 0.930 . S
H783 C741 0.930 . S
H784 C743 0.929 . S
H785 C744 0.930 . S
H786 C745 0.930 . S
H787 C746 0.930 . S
H788 C750 0.929 . S
H789 C752 0.930 . S
H790 C758 0.929 . S
H791 C759 0.930 . S
Li792 N809 1.990 1_455 S
Li792 O852 1.956 . S
Li792 O853 1.970 1_556 S
Li792 O854 1.961 1_455 S
Li793 N817 1.990 1_556 S
Li793 O852 1.970 . S
Li793 O853 1.956 1_556 S
Li793 O855 1.961 . S
Li794 N839 1.990 . S
Li794 O852 1.961 . S
Li794 O854 1.956 1_455 S
Li794 O855 1.970 . S
Li795 N845 1.990 . S
Li795 O853 1.961 1_655 S
Li795 O854 1.970 1_554 S
Li795 O855 1.956 1_654 S
C796 C798 1.348 . S
C796 C799 1.356 . S
C796 O852 1.325 . S
N797 C800 1.314 . S
N797 C801 1.279 . S
C798 C796 1.348 . S
C798 C800 1.353 . S
C798 H856 0.929 . S
C799 C796 1.356 . S
C799 C801 1.358 . S
C799 H857 0.930 . S
C800 N797 1.314 . S
C800 C798 1.353 . S
C800 H858 0.930 . S
C801 N797 1.279 . S
C801 C799 1.358 . S
C801 H859 0.930 . S
C802 C805 1.348 . S
C802 C806 1.356 . S
C802 O853 1.325 . S
C803 N804 1.279 . S
C803 C806 1.358 . S
C803 H860 0.930 . S
N804 C803 1.279 . S
N804 C807 1.314 . S
C805 C802 1.348 . S
C805 C807 1.353 . S
C805 H861 0.929 . S
C806 C802 1.356 . S
C806 C803 1.358 . S
C806 H862 0.930 . S
C807 N804 1.314 . S
C807 C805 1.353 . S
C807 H863 0.930 . S
C808 N809 1.314 1_554 S
C808 C813 1.353 . S
C808 H814 0.930 . S
N809 Li792 1.990 1_655 S
N809 C808 1.314 1_556 S
N809 C811 1.279 1_655 S
C810 C811 1.358 . S
C810 C812 1.356 1_456 S
C810 H864 0.930 . S
C811 N809 1.279 1_455 S
C811 C810 1.358 . S
C811 H815 0.930 . S
C812 C810 1.356 1_654 S
C812 C813 1.348 . S
C813 C808 1.353 . S
C813 C812 1.348 . S
C813 H865 0.929 . S
H814 C808 0.930 . S
H815 C811 0.930 . S
C816 N817 1.314 1_556 S
C816 C818 1.353 . S
C816 H822 0.930 . S
N817 Li793 1.990 1_554 S
N817 C816 1.314 1_554 S
N817 C820 1.279 . S
C818 C816 1.353 . S
C818 C821 1.348 1_556 S
C818 H866 0.929 . S
C819 C820 1.358 . S
C819 C821 1.356 . S
C819 H867 0.930 . S
C820 N817 1.279 . S
C820 C819 1.358 . S
C820 H823 0.930 . S
C821 C818 1.348 1_554 S
C821 C819 1.356 . S
H822 C816 0.930 . S
H823 C820 0.930 . S
C824 C826 1.348 . S
C824 C827 1.356 . S
C824 O854 1.325 . S
N825 C828 1.314 . S
N825 C829 1.279 . S
C826 C824 1.348 . S
C826 C828 1.353 . S
C826 H868 0.929 . S
C827 C824 1.356 . S
C827 C829 1.358 . S
C827 H869 0.930 . S
C828 N825 1.314 . S
C828 C826 1.353 . S
C828 H870 0.930 . S
C829 N825 1.279 . S
C829 C827 1.358 . S
C829 H871 0.930 . S
C830 C831 1.348 . S
C830 C832 1.356 . S
C830 O855 1.325 . S
C831 C830 1.348 . S
C831 C833 1.353 . S
C831 H872 0.929 . S
C832 C830 1.356 . S
C832 C834 1.358 . S
C832 H873 0.930 1_556 S
C833 C831 1.353 . S
C833 N835 1.314 . S
C833 H874 0.930 . S
C834 C832 1.358 . S
C834 N835 1.279 . S
C834 H875 0.930 1_556 S
N835 C833 1.314 . S
N835 C834 1.279 . S
C836 C838 1.353 . S
C836 N839 1.314 . S
C836 H842 0.930 . S
C837 N839 1.279 1_655 S
C837 C840 1.358 . S
C837 H843 0.930 . S
C838 C836 1.353 . S
C838 C841 1.348 1_455 S
C838 H876 0.929 . S
N839 Li794 1.990 . S
N839 C836 1.314 . S
N839 C837 1.279 1_455 S
C840 C837 1.358 . S
C840 C841 1.356 . S
C840 H877 0.930 . S
C841 C838 1.348 1_655 S
C841 C840 1.356 . S
H842 C836 0.930 . S
H843 C837 0.930 . S
C844 N845 1.314 . S
C844 C846 1.353 . S
C844 H850 0.930 . S
N845 Li795 1.990 . S
N845 C844 1.314 . S
N845 C848 1.279 . S
C846 C844 1.353 . S
C846 C849 1.348 . S
C846 H878 0.929 . S
C847 C848 1.358 . S
C847 C849 1.356 . S
C847 H879 0.930 . S
C848 N845 1.279 . S
C848 C847 1.358 . S
C848 H851 0.930 . S
C849 C846 1.348 . S
C849 C847 1.356 . S
H850 C844 0.930 . S
H851 C848 0.930 . S
O852 Li792 1.956 . S
O852 Li793 1.970 . S
O852 Li794 1.961 . S
O852 C796 1.325 . S
O853 Li792 1.970 1_554 S
O853 Li793 1.956 1_554 S
O853 Li795 1.961 1_455 S
O853 C802 1.325 . S
O854 Li792 1.961 1_655 S
O854 Li794 1.956 1_655 S
O854 Li795 1.970 1_556 S
O854 C824 1.325 . S
O855 Li793 1.961 . S
O855 Li794 1.970 . S
O855 Li795 1.956 1_456 S
O855 C830 1.325 . S
H856 C798 0.929 . S
H857 C799 0.930 . S
H858 C800 0.930 . S
H859 C801 0.930 . S
H860 C803 0.930 . S
H861 C805 0.929 . S
H862 C806 0.930 . S
H863 C807 0.930 . S
H864 C810 0.930 . S
H865 C813 0.929 . S
H866 C818 0.929 . S
H867 C819 0.930 . S
H868 C826 0.929 . S
H869 C827 0.930 . S
H870 C828 0.930 . S
H871 C829 0.930 . S
H872 C831 0.929 . S
H873 C832 0.930 1_554 S
H874 C833 0.930 . S
H875 C834 0.930 1_554 S
H876 C838 0.929 . S
H877 C840 0.930 . S
H878 C846 0.929 . S
H879 C847 0.930 . S
Li880 N897 1.990 . S
Li880 O940 1.956 . S
Li880 O941 1.970 . S
Li880 O942 1.961 . S
Li881 N905 1.990 . S
Li881 O940 1.970 . S
Li881 O941 1.956 . S
Li881 O943 1.961 . S
Li882 N927 1.990 . S
Li882 O940 1.961 . S
Li882 O942 1.956 . S
Li882 O943 1.970 . S
Li883 N933 1.990 . S
Li883 O941 1.961 . S
Li883 O942 1.970 . S
Li883 O943 1.956 . S
C884 C886 1.348 . S
C884 C887 1.356 . S
C884 O940 1.325 . S
N885 C888 1.314 . S
N885 C889 1.279 . S
C886 C884 1.348 . S
C886 C888 1.353 . S
C886 H944 0.929 . S
C887 C884 1.356 . S
C887 C889 1.358 . S
C887 H945 0.930 . S
C888 N885 1.314 . S
C888 C886 1.353 . S
C888 H946 0.930 . S
C889 N885 1.279 . S
C889 C887 1.358 . S
C889 H947 0.930 . S
C890 C893 1.348 . S
C890 C894 1.356 . S
C890 O941 1.325 . S
C891 N892 1.279 . S
C891 C894 1.358 . S
C891 H948 0.930 . S
N892 C891 1.279 . S
N892 C895 1.314 . S
C893 C890 1.348 . S
C893 C895 1.353 . S
C893 H949 0.929 . S
C894 C890 1.356 . S
C894 C891 1.358 . S
C894 H950 0.930 . S
C895 N892 1.314 . S
C895 C893 1.353 . S
C895 H951 0.930 . S
C896 N897 1.314 . S
C896 C901 1.353 . S
C896 H902 0.930 . S
N897 Li880 1.990 . S
N897 C896 1.314 . S
N897 C899 1.279 . S
C898 C899 1.358 . S
C898 C900 1.356 . S
C898 H952 0.930 . S
C899 N897 1.279 . S
C899 C898 1.358 . S
C899 H903 0.930 . S
C900 C898 1.356 . S
C900 C901 1.348 . S
C901 C896 1.353 . S
C901 C900 1.348 . S
C901 H953 0.929 . S
H902 C896 0.930 . S
H903 C899 0.930 . S
C904 N905 1.314 . S
C904 C906 1.353 . S
C904 H910 0.930 . S
N905 Li881 1.990 . S
N905 C904 1.314 . S
N905 C908 1.279 . S
C906 C904 1.353 . S
C906 C909 1.348 . S
C906 H954 0.929 . S
C907 C908 1.358 . S
C907 C909 1.356 . S
C907 H955 0.930 . S
C908 N905 1.279 . S
C908 C907 1.358 . S
C908 H911 0.930 . S
C909 C906 1.348 . S
C909 C907 1.356 . S
H910 C904 0.930 . S
H911 C908 0.930 . S
C912 C914 1.348 . S
C912 C915 1.356 . S
C912 O942 1.325 . S
N913 C916 1.314 . S
N913 C917 1.279 . S
C914 C912 1.348 . S
C914 C916 1.353 . S
C914 H956 0.929 . S
C915 C912 1.356 . S
C915 C917 1.358 . S
C915 H957 0.930 . S
C916 N913 1.314 . S
C916 C914 1.353 . S
C916 H958 0.930 . S
C917 N913 1.279 . S
C917 C915 1.358 . S
C917 H959 0.930 . S
C918 C919 1.348 . S
C918 C920 1.356 . S
C918 O943 1.325 . S
C919 C918 1.348 . S
C919 C921 1.353 . S
C919 H960 0.929 . S
C920 C918 1.356 . S
C920 C922 1.358 . S
C920 H961 0.930 . S
C921 C919 1.353 . S
C921 N923 1.314 . S
C921 H962 0.930 . S
C922 C920 1.358 . S
C922 N923 1.279 . S
C922 H963 0.930 . S
N923 C921 1.314 . S
N923 C922 1.279 . S
C924 C926 1.353 . S
C924 N927 1.314 . S
C924 H930 0.930 . S
C925 N927 1.279 . S
C925 C928 1.358 . S
C925 H931 0.930 . S
C926 C924 1.353 . S
C926 C929 1.348 . S
C926 H964 0.929 . S
N927 Li882 1.990 . S
N927 C924 1.314 . S
N927 C925 1.279 . S
C928 C925 1.358 . S
C928 C929 1.356 . S
C928 H965 0.930 . S
C929 C926 1.348 . S
C929 C928 1.356 . S
H930 C924 0.930 . S
H931 C925 0.930 . S
C932 N933 1.314 . S
C932 C934 1.353 . S
C932 H938 0.930 . S
N933 Li883 1.990 . S
N933 C932 1.314 . S
N933 C936 1.279 . S
C934 C932 1.353 . S
C934 C937 1.348 . S
C934 H966 0.929 . S
C935 C936 1.358 . S
C935 C937 1.356 . S
C935 H967 0.930 . S
C936 N933 1.279 . S
C936 C935 1.358 . S
C936 H939 0.930 . S
C937 C934 1.348 . S
C937 C935 1.356 . S
H938 C932 0.930 . S
H939 C936 0.930 . S
O940 Li880 1.956 . S
O940 Li881 1.970 . S
O940 Li882 1.961 . S
O940 C884 1.325 . S
O941 Li880 1.970 . S
O941 Li881 1.956 . S
O941 Li883 1.961 . S
O941 C890 1.325 . S
O942 Li880 1.961 . S
O942 Li882 1.956 . S
O942 Li883 1.970 . S
O942 C912 1.325 . S
O943 Li881 1.961 . S
O943 Li882 1.970 . S
O943 Li883 1.956 . S
O943 C918 1.325 . S
H944 C886 0.929 . S
H945 C887 0.930 . S
H946 C888 0.930 . S
H947 C889 0.930 . S
H948 C891 0.930 . S
H949 C893 0.929 . S
H950 C894 0.930 . S
H951 C895 0.930 . S
H952 C898 0.930 . S
H953 C901 0.929 . S
H954 C906 0.929 . S
H955 C907 0.930 . S
H956 C914 0.929 . S
H957 C915 0.930 . S
H958 C916 0.930 . S
H959 C917 0.930 . S
H960 C919 0.929 . S
H961 C920 0.930 . S
H962 C921 0.930 . S
H963 C922 0.930 . S
H964 C926 0.929 . S
H965 C928 0.930 . S
H966 C934 0.929 . S
H967 C935 0.930 . S
Li968 N985 1.990 . S
Li968 O1028 1.956 . S
Li968 O1029 1.970 1_455 S
Li968 O1030 1.961 . S
Li969 N993 1.990 1_455 S
Li969 O1028 1.970 . S
Li969 O1029 1.956 1_455 S
Li969 O1031 1.961 . S
Li970 N1015 1.990 . S
Li970 O1028 1.961 . S
Li970 O1030 1.956 . S
Li970 O1031 1.970 . S
Li971 N1021 1.990 . S
Li971 O1029 1.961 . S
Li971 O1030 1.970 1_655 S
Li971 O1031 1.956 1_655 S
C972 C974 1.348 . S
C972 C975 1.356 . S
C972 O1028 1.325 . S
N973 C976 1.314 . S
N973 C977 1.279 . S
C974 C972 1.348 . S
C974 C976 1.353 . S
C974 H1032 0.929 . S
C975 C972 1.356 . S
C975 C977 1.358 . S
C975 H1033 0.930 . S
C976 N973 1.314 . S
C976 C974 1.353 . S
C976 H1034 0.930 . S
C977 N973 1.279 . S
C977 C975 1.358 . S
C977 H1035 0.930 . S
C978 C981 1.348 . S
C978 C982 1.356 . S
C978 O1029 1.325 . S
C979 N980 1.279 . S
C979 C982 1.358 . S
C979 H1036 0.930 . S
N980 C979 1.279 . S
N980 C983 1.314 . S
C981 C978 1.348 . S
C981 C983 1.353 . S
C981 H1037 0.929 . S
C982 C978 1.356 . S
C982 C979 1.358 . S
C982 H1038 0.930 . S
C983 N980 1.314 . S
C983 C981 1.353 . S
C983 H1039 0.930 . S
C984 N985 1.314 1_655 S
C984 C989 1.353 . S
C984 H990 0.930 . S
N985 Li968 1.990 . S
N985 C984 1.314 1_455 S
N985 C987 1.279 . S
C986 C987 1.358 . S
C986 C988 1.356 1_455 S
C986 H1040 0.930 . S
C987 N985 1.279 . S
C987 C986 1.358 . S
C987 H991 0.930 . S
C988 C986 1.356 1_655 S
C988 C989 1.348 . S
C989 C984 1.353 . S
C989 C988 1.348 . S
C989 H1041 0.929 . S
H990 C984 0.930 . S
H991 C987 0.930 . S
C992 N993 1.314 1_455 S
C992 C994 1.353 . S
C992 H998 0.930 . S
N993 Li969 1.990 1_655 S
N993 C992 1.314 1_655 S
N993 C996 1.279 . S
C994 C992 1.353 . S
C994 C997 1.348 1_455 S
C994 H1042 0.929 . S
C995 C996 1.358 . S
C995 C997 1.356 . S
C995 H1043 0.930 . S
C996 N993 1.279 . S
C996 C995 1.358 . S
C996 H999 0.930 . S
C997 C994 1.348 1_655 S
C997 C995 1.356 . S
H998 C992 0.930 . S
H999 C996 0.930 . S
C1000 C1002 1.348 . S
C1000 C1003 1.356 . S
C1000 O1030 1.325 . S
N1001 C1004 1.314 . S
N1001 C1005 1.279 . S
C1002 C1000 1.348 . S
C1002 C1004 1.353 . S
C1002 H1044 0.929 . S
C1003 C1000 1.356 . S
C1003 C1005 1.358 . S
C1003 H1045 0.930 . S
C1004 N1001 1.314 . S
C1004 C1002 1.353 . S
C1004 H1046 0.930 . S
C1005 N1001 1.279 . S
C1005 C1003 1.358 . S
C1005 H1047 0.930 . S
C1006 C1007 1.348 . S
C1006 C1008 1.356 . S
C1006 O1031 1.325 . S
C1007 C1006 1.348 . S
C1007 C1009 1.353 . S
C1007 H1048 0.929 . S
C1008 C1006 1.356 . S
C1008 C1010 1.358 . S
C1008 H1049 0.930 1_455 S
C1009 C1007 1.353 . S
C1009 N1011 1.314 . S
C1009 H1050 0.930 . S
C1010 C1008 1.358 . S
C1010 N1011 1.279 . S
C1010 H1051 0.930 1_455 S
N1011 C1009 1.314 . S
N1011 C1010 1.279 . S
C1012 C1014 1.353 . S
C1012 N1015 1.314 . S
C1012 H1018 0.930 . S
C1013 N1015 1.279 . S
C1013 C1016 1.358 . S
C1013 H1019 0.930 . S
C1014 C1012 1.353 . S
C1014 C1017 1.348 . S
C1014 H1052 0.929 . S
N1015 Li970 1.990 . S
N1015 C1012 1.314 . S
N1015 C1013 1.279 . S
C1016 C1013 1.358 . S
C1016 C1017 1.356 . S
C1016 H1053 0.930 . S
C1017 C1014 1.348 . S
C1017 C1016 1.356 . S
H1018 C1012 0.930 . S
H1019 C1013 0.930 . S
C1020 N1021 1.314 . S
C1020 C1022 1.353 . S
C1020 H1026 0.930 . S
N1021 Li971 1.990 . S
N1021 C1020 1.314 . S
N1021 C1024 1.279 . S
C1022 C1020 1.353 . S
C1022 C1025 1.348 . S
C1022 H1054 0.929 . S
C1023 C1024 1.358 . S
C1023 C1025 1.356 . S
C1023 H1055 0.930 . S
C1024 N1021 1.279 . S
C1024 C1023 1.358 . S
C1024 H1027 0.930 . S
C1025 C1022 1.348 . S
C1025 C1023 1.356 . S
H1026 C1020 0.930 . S
H1027 C1024 0.930 . S
O1028 Li968 1.956 . S
O1028 Li969 1.970 . S
O1028 Li970 1.961 . S
O1028 C972 1.325 . S
O1029 Li968 1.970 1_655 S
O1029 Li969 1.956 1_655 S
O1029 Li971 1.961 . S
O1029 C978 1.325 . S
O1030 Li968 1.961 . S
O1030 Li970 1.956 . S
O1030 Li971 1.970 1_455 S
O1030 C1000 1.325 . S
O1031 Li969 1.961 . S
O1031 Li970 1.970 . S
O1031 Li971 1.956 1_455 S
O1031 C1006 1.325 . S
H1032 C974 0.929 . S
H1033 C975 0.930 . S
H1034 C976 0.930 . S
H1035 C977 0.930 . S
H1036 C979 0.930 . S
H1037 C981 0.929 . S
H1038 C982 0.930 . S
H1039 C983 0.930 . S
H1040 C986 0.930 . S
H1041 C989 0.929 . S
H1042 C994 0.929 . S
H1043 C995 0.930 . S
H1044 C1002 0.929 . S
H1045 C1003 0.930 . S
H1046 C1004 0.930 . S
H1047 C1005 0.930 . S
H1048 C1007 0.929 . S
H1049 C1008 0.930 1_655 S
H1050 C1009 0.930 . S
H1051 C1010 0.930 1_655 S
H1052 C1014 0.929 . S
H1053 C1016 0.930 . S
H1054 C1022 0.929 . S
H1055 C1023 0.930 . S
Li1056 N1073 1.990 . S
Li1056 O1116 1.956 . S
Li1056 O1117 1.970 1_554 S
Li1056 O1118 1.961 . S
Li1057 N1081 1.990 1_554 S
Li1057 O1116 1.970 . S
Li1057 O1117 1.956 1_554 S
Li1057 O1119 1.961 . S
Li1058 N1103 1.990 . S
Li1058 O1116 1.961 . S
Li1058 O1118 1.956 . S
Li1058 O1119 1.970 . S
Li1059 N1109 1.990 . S
Li1059 O1117 1.961 . S
Li1059 O1118 1.970 1_556 S
Li1059 O1119 1.956 1_556 S
C1060 C1062 1.348 . S
C1060 C1063 1.356 . S
C1060 O1116 1.325 . S
N1061 C1064 1.314 . S
N1061 C1065 1.279 . S
C1062 C1060 1.348 . S
C1062 C1064 1.353 . S
C1062 H1120 0.929 . S
C1063 C1060 1.356 . S
C1063 C1065 1.358 . S
C1063 H1121 0.930 . S
C1064 N1061 1.314 . S
C1064 C1062 1.353 . S
C1064 H1122 0.930 . S
C1065 N1061 1.279 . S
C1065 C1063 1.358 . S
C1065 H1123 0.930 . S
C1066 C1069 1.348 . S
C1066 C1070 1.356 . S
C1066 O1117 1.325 . S
C1067 N1068 1.279 . S
C1067 C1070 1.358 . S
C1067 H1124 0.930 . S
N1068 C1067 1.279 . S
N1068 C1071 1.314 . S
C1069 C1066 1.348 . S
C1069 C1071 1.353 . S
C1069 H1125 0.929 . S
C1070 C1066 1.356 . S
C1070 C1067 1.358 . S
C1070 H1126 0.930 . S
C1071 N1068 1.314 . S
C1071 C1069 1.353 . S
C1071 H1127 0.930 . S
C1072 N1073 1.314 1_556 S
C1072 C1077 1.353 . S
C1072 H1078 0.930 . S
N1073 Li1056 1.990 . S
N1073 C1072 1.314 1_554 S
N1073 C1075 1.279 . S
C1074 C1075 1.358 . S
C1074 C1076 1.356 1_554 S
C1074 H1128 0.930 . S
C1075 N1073 1.279 . S
C1075 C1074 1.358 . S
C1075 H1079 0.930 . S
C1076 C1074 1.356 1_556 S
C1076 C1077 1.348 . S
C1077 C1072 1.353 . S
C1077 C1076 1.348 . S
C1077 H1129 0.929 . S
H1078 C1072 0.930 . S
H1079 C1075 0.930 . S
C1080 N1081 1.314 1_554 S
C1080 C1082 1.353 . S
C1080 H1086 0.930 . S
N1081 Li1057 1.990 1_556 S
N1081 C1080 1.314 1_556 S
N1081 C1084 1.279 . S
C1082 C1080 1.353 . S
C1082 C1085 1.348 1_554 S
C1082 H1130 0.929 . S
C1083 C1084 1.358 . S
C1083 C1085 1.356 . S
C1083 H1131 0.930 . S
C1084 N1081 1.279 . S
C1084 C1083 1.358 . S
C1084 H1087 0.930 . S
C1085 C1082 1.348 1_556 S
C1085 C1083 1.356 . S
H1086 C1080 0.930 . S
H1087 C1084 0.930 . S
C1088 C1090 1.348 . S
C1088 C1091 1.356 . S
C1088 O1118 1.325 . S
N1089 C1092 1.314 . S
N1089 C1093 1.279 . S
C1090 C1088 1.348 . S
C1090 C1092 1.353 . S
C1090 H1132 0.929 . S
C1091 C1088 1.356 . S
C1091 C1093 1.358 . S
C1091 H1133 0.930 . S
C1092 N1089 1.314 . S
C1092 C1090 1.353 . S
C1092 H1134 0.930 . S
C1093 N1089 1.279 . S
C1093 C1091 1.358 . S
C1093 H1135 0.930 . S
C1094 C1095 1.348 . S
C1094 C1096 1.356 . S
C1094 O1119 1.325 . S
C1095 C1094 1.348 . S
C1095 C1097 1.353 . S
C1095 H1136 0.929 . S
C1096 C1094 1.356 . S
C1096 C1098 1.358 . S
C1096 H1137 0.930 1_554 S
C1097 C1095 1.353 . S
C1097 N1099 1.314 . S
C1097 H1138 0.930 . S
C1098 C1096 1.358 . S
C1098 N1099 1.279 . S
C1098 H1139 0.930 1_554 S
N1099 C1097 1.314 . S
N1099 C1098 1.279 . S
C1100 C1102 1.353 . S
C1100 N1103 1.314 . S
C1100 H1106 0.930 . S
C1101 N1103 1.279 . S
C1101 C1104 1.358 . S
C1101 H1107 0.930 . S
C1102 C1100 1.353 . S
C1102 C1105 1.348 . S
C1102 H1140 0.929 . S
N1103 Li1058 1.990 . S
N1103 C1100 1.314 . S
N1103 C1101 1.279 . S
C1104 C1101 1.358 . S
C1104 C1105 1.356 . S
C1104 H1141 0.930 . S
C1105 C1102 1.348 . S
C1105 C1104 1.356 . S
H1106 C1100 0.930 . S
H1107 C1101 0.930 . S
C1108 N1109 1.314 . S
C1108 C1110 1.353 . S
C1108 H1114 0.930 . S
N1109 Li1059 1.990 . S
N1109 C1108 1.314 . S
N1109 C1112 1.279 . S
C1110 C1108 1.353 . S
C1110 C1113 1.348 . S
C1110 H1142 0.929 . S
C1111 C1112 1.358 . S
C1111 C1113 1.356 . S
C1111 H1143 0.930 . S
C1112 N1109 1.279 . S
C1112 C1111 1.358 . S
C1112 H1115 0.930 . S
C1113 C1110 1.348 . S
C1113 C1111 1.356 . S
H1114 C1108 0.930 . S
H1115 C1112 0.930 . S
O1116 Li1056 1.956 . S
O1116 Li1057 1.970 . S
O1116 Li1058 1.961 . S
O1116 C1060 1.325 . S
O1117 Li1056 1.970 1_556 S
O1117 Li1057 1.956 1_556 S
O1117 Li1059 1.961 . S
O1117 C1066 1.325 . S
O1118 Li1056 1.961 . S
O1118 Li1058 1.956 . S
O1118 Li1059 1.970 1_554 S
O1118 C1088 1.325 . S
O1119 Li1057 1.961 . S
O1119 Li1058 1.970 . S
O1119 Li1059 1.956 1_554 S
O1119 C1094 1.325 . S
H1120 C1062 0.929 . S
H1121 C1063 0.930 . S
H1122 C1064 0.930 . S
H1123 C1065 0.930 . S
H1124 C1067 0.930 . S
H1125 C1069 0.929 . S
H1126 C1070 0.930 . S
H1127 C1071 0.930 . S
H1128 C1074 0.930 . S
H1129 C1077 0.929 . S
H1130 C1082 0.929 . S
H1131 C1083 0.930 . S
H1132 C1090 0.929 . S
H1133 C1091 0.930 . S
H1134 C1092 0.930 . S
H1135 C1093 0.930 . S
H1136 C1095 0.929 . S
H1137 C1096 0.930 1_556 S
H1138 C1097 0.930 . S
H1139 C1098 0.930 1_556 S
H1140 C1102 0.929 . S
H1141 C1104 0.930 . S
H1142 C1110 0.929 . S
H1143 C1111 0.930 . S
Li1144 N1161 1.990 . S
Li1144 O1204 1.956 . S
Li1144 O1205 1.970 . S
Li1144 O1206 1.961 . S
Li1145 N1169 1.990 . S
Li1145 O1204 1.970 . S
Li1145 O1205 1.956 . S
Li1145 O1207 1.961 . S
Li1146 N1191 1.990 . S
Li1146 O1204 1.961 . S
Li1146 O1206 1.956 . S
Li1146 O1207 1.970 . S
Li1147 N1197 1.990 . S
Li1147 O1205 1.961 . S
Li1147 O1206 1.970 . S
Li1147 O1207 1.956 . S
C1148 C1150 1.348 . S
C1148 C1151 1.356 . S
C1148 O1204 1.325 . S
N1149 C1152 1.314 . S
N1149 C1153 1.279 . S
C1150 C1148 1.348 . S
C1150 C1152 1.353 . S
C1150 H1208 0.929 . S
C1151 C1148 1.356 . S
C1151 C1153 1.358 . S
C1151 H1209 0.930 . S
C1152 N1149 1.314 . S
C1152 C1150 1.353 . S
C1152 H1210 0.930 . S
C1153 N1149 1.279 . S
C1153 C1151 1.358 . S
C1153 H1211 0.930 . S
C1154 C1157 1.348 . S
C1154 C1158 1.356 . S
C1154 O1205 1.325 . S
C1155 N1156 1.279 . S
C1155 C1158 1.358 . S
C1155 H1212 0.930 . S
N1156 C1155 1.279 . S
N1156 C1159 1.314 . S
C1157 C1154 1.348 . S
C1157 C1159 1.353 . S
C1157 H1213 0.929 . S
C1158 C1154 1.356 . S
C1158 C1155 1.358 . S
C1158 H1214 0.930 . S
C1159 N1156 1.314 . S
C1159 C1157 1.353 . S
C1159 H1215 0.930 . S
C1160 N1161 1.314 . S
C1160 C1165 1.353 . S
C1160 H1166 0.930 . S
N1161 Li1144 1.990 . S
N1161 C1160 1.314 . S
N1161 C1163 1.279 . S
C1162 C1163 1.358 . S
C1162 C1164 1.356 . S
C1162 H1216 0.930 . S
C1163 N1161 1.279 . S
C1163 C1162 1.358 . S
C1163 H1167 0.930 . S
C1164 C1162 1.356 . S
C1164 C1165 1.348 . S
C1165 C1160 1.353 . S
C1165 C1164 1.348 . S
C1165 H1217 0.929 . S
H1166 C1160 0.930 . S
H1167 C1163 0.930 . S
C1168 N1169 1.314 . S
C1168 C1170 1.353 . S
C1168 H1174 0.930 . S
N1169 Li1145 1.990 . S
N1169 C1168 1.314 . S
N1169 C1172 1.279 . S
C1170 C1168 1.353 . S
C1170 C1173 1.348 . S
C1170 H1218 0.929 . S
C1171 C1172 1.358 . S
C1171 C1173 1.356 . S
C1171 H1219 0.930 . S
C1172 N1169 1.279 . S
C1172 C1171 1.358 . S
C1172 H1175 0.930 . S
C1173 C1170 1.348 . S
C1173 C1171 1.356 . S
H1174 C1168 0.930 . S
H1175 C1172 0.930 . S
C1176 C1178 1.348 . S
C1176 C1179 1.356 . S
C1176 O1206 1.325 . S
N1177 C1180 1.314 . S
N1177 C1181 1.279 . S
C1178 C1176 1.348 . S
C1178 C1180 1.353 . S
C1178 H1220 0.929 . S
C1179 C1176 1.356 . S
C1179 C1181 1.358 . S
C1179 H1221 0.930 . S
C1180 N1177 1.314 . S
C1180 C1178 1.353 . S
C1180 H1222 0.930 . S
C1181 N1177 1.279 . S
C1181 C1179 1.358 . S
C1181 H1223 0.930 . S
C1182 C1183 1.348 . S
C1182 C1184 1.356 . S
C1182 O1207 1.325 . S
C1183 C1182 1.348 . S
C1183 C1185 1.353 . S
C1183 H1224 0.929 . S
C1184 C1182 1.356 . S
C1184 C1186 1.358 . S
C1184 H1225 0.930 . S
C1185 C1183 1.353 . S
C1185 N1187 1.314 . S
C1185 H1226 0.930 . S
C1186 C1184 1.358 . S
C1186 N1187 1.279 . S
C1186 H1227 0.930 . S
N1187 C1185 1.314 . S
N1187 C1186 1.279 . S
C1188 C1190 1.353 . S
C1188 N1191 1.314 . S
C1188 H1194 0.930 . S
C1189 N1191 1.279 . S
C1189 C1192 1.358 . S
C1189 H1195 0.930 . S
C1190 C1188 1.353 . S
C1190 C1193 1.348 . S
C1190 H1228 0.929 . S
N1191 Li1146 1.990 . S
N1191 C1188 1.314 . S
N1191 C1189 1.279 . S
C1192 C1189 1.358 . S
C1192 C1193 1.356 . S
C1192 H1229 0.930 . S
C1193 C1190 1.348 . S
C1193 C1192 1.356 . S
H1194 C1188 0.930 . S
H1195 C1189 0.930 . S
C1196 N1197 1.314 . S
C1196 C1198 1.353 . S
C1196 H1202 0.930 . S
N1197 Li1147 1.990 . S
N1197 C1196 1.314 . S
N1197 C1200 1.279 . S
C1198 C1196 1.353 . S
C1198 C1201 1.348 . S
C1198 H1230 0.929 . S
C1199 C1200 1.358 . S
C1199 C1201 1.356 . S
C1199 H1231 0.930 . S
C1200 N1197 1.279 . S
C1200 C1199 1.358 . S
C1200 H1203 0.930 . S
C1201 C1198 1.348 . S
C1201 C1199 1.356 . S
H1202 C1196 0.930 . S
H1203 C1200 0.930 . S
O1204 Li1144 1.956 . S
O1204 Li1145 1.970 . S
O1204 Li1146 1.961 . S
O1204 C1148 1.325 . S
O1205 Li1144 1.970 . S
O1205 Li1145 1.956 . S
O1205 Li1147 1.961 . S
O1205 C1154 1.325 . S
O1206 Li1144 1.961 . S
O1206 Li1146 1.956 . S
O1206 Li1147 1.970 . S
O1206 C1176 1.325 . S
O1207 Li1145 1.961 . S
O1207 Li1146 1.970 . S
O1207 Li1147 1.956 . S
O1207 C1182 1.325 . S
H1208 C1150 0.929 . S
H1209 C1151 0.930 . S
H1210 C1152 0.930 . S
H1211 C1153 0.930 . S
H1212 C1155 0.930 . S
H1213 C1157 0.929 . S
H1214 C1158 0.930 . S
H1215 C1159 0.930 . S
H1216 C1162 0.930 . S
H1217 C1165 0.929 . S
H1218 C1170 0.929 . S
H1219 C1171 0.930 . S
H1220 C1178 0.929 . S
H1221 C1179 0.930 . S
H1222 C1180 0.930 . S
H1223 C1181 0.930 . S
H1224 C1183 0.929 . S
H1225 C1184 0.930 . S
H1226 C1185 0.930 . S
H1227 C1186 0.930 . S
H1228 C1190 0.929 . S
H1229 C1192 0.930 . S
H1230 C1198 0.929 . S
H1231 C1199 0.930 . S
Li1232 N1249 1.990 . S
Li1232 O1292 1.956 . S
Li1232 O1293 1.970 . S
Li1232 O1294 1.961 . S
Li1233 N1257 1.990 . S
Li1233 O1292 1.970 . S
Li1233 O1293 1.956 . S
Li1233 O1295 1.961 . S
Li1234 N1279 1.990 . S
Li1234 O1292 1.961 . S
Li1234 O1294 1.956 . S
Li1234 O1295 1.970 . S
Li1235 N1285 1.990 . S
Li1235 O1293 1.961 . S
Li1235 O1294 1.970 . S
Li1235 O1295 1.956 . S
C1236 C1238 1.348 . S
C1236 C1239 1.356 . S
C1236 O1292 1.325 . S
N1237 C1240 1.314 . S
N1237 C1241 1.279 . S
C1238 C1236 1.348 . S
C1238 C1240 1.353 . S
C1238 H1296 0.929 . S
C1239 C1236 1.356 . S
C1239 C1241 1.358 . S
C1239 H1297 0.930 . S
C1240 N1237 1.314 . S
C1240 C1238 1.353 . S
C1240 H1298 0.930 . S
C1241 N1237 1.279 . S
C1241 C1239 1.358 . S
C1241 H1299 0.930 . S
C1242 C1245 1.348 . S
C1242 C1246 1.356 . S
C1242 O1293 1.325 . S
C1243 N1244 1.279 . S
C1243 C1246 1.358 . S
C1243 H1300 0.930 . S
N1244 C1243 1.279 . S
N1244 C1247 1.314 . S
C1245 C1242 1.348 . S
C1245 C1247 1.353 . S
C1245 H1301 0.929 . S
C1246 C1242 1.356 . S
C1246 C1243 1.358 . S
C1246 H1302 0.930 . S
C1247 N1244 1.314 . S
C1247 C1245 1.353 . S
C1247 H1303 0.930 . S
C1248 N1249 1.314 . S
C1248 C1253 1.353 . S
C1248 H1254 0.930 . S
N1249 Li1232 1.990 . S
N1249 C1248 1.314 . S
N1249 C1251 1.279 . S
C1250 C1251 1.358 . S
C1250 C1252 1.356 . S
C1250 H1304 0.930 . S
C1251 N1249 1.279 . S
C1251 C1250 1.358 . S
C1251 H1255 0.930 . S
C1252 C1250 1.356 . S
C1252 C1253 1.348 . S
C1253 C1248 1.353 . S
C1253 C1252 1.348 . S
C1253 H1305 0.929 . S
H1254 C1248 0.930 . S
H1255 C1251 0.930 . S
C1256 N1257 1.314 . S
C1256 C1258 1.353 . S
C1256 H1262 0.930 . S
N1257 Li1233 1.990 . S
N1257 C1256 1.314 . S
N1257 C1260 1.279 . S
C1258 C1256 1.353 . S
C1258 C1261 1.348 . S
C1258 H1306 0.929 . S
C1259 C1260 1.358 . S
C1259 C1261 1.356 . S
C1259 H1307 0.930 . S
C1260 N1257 1.279 . S
C1260 C1259 1.358 . S
C1260 H1263 0.930 . S
C1261 C1258 1.348 . S
C1261 C1259 1.356 . S
H1262 C1256 0.930 . S
H1263 C1260 0.930 . S
C1264 C1266 1.348 . S
C1264 C1267 1.356 . S
C1264 O1294 1.325 . S
N1265 C1268 1.314 . S
N1265 C1269 1.279 . S
C1266 C1264 1.348 . S
C1266 C1268 1.353 . S
C1266 H1308 0.929 . S
C1267 C1264 1.356 . S
C1267 C1269 1.358 . S
C1267 H1309 0.930 . S
C1268 N1265 1.314 . S
C1268 C1266 1.353 . S
C1268 H1310 0.930 . S
C1269 N1265 1.279 . S
C1269 C1267 1.358 . S
C1269 H1311 0.930 . S
C1270 C1271 1.348 . S
C1270 C1272 1.356 . S
C1270 O1295 1.325 . S
C1271 C1270 1.348 . S
C1271 C1273 1.353 . S
C1271 H1312 0.929 . S
C1272 C1270 1.356 . S
C1272 C1274 1.358 . S
C1272 H1313 0.930 . S
C1273 C1271 1.353 . S
C1273 N1275 1.314 . S
C1273 H1314 0.930 . S
C1274 C1272 1.358 . S
C1274 N1275 1.279 . S
C1274 H1315 0.930 . S
N1275 C1273 1.314 . S
N1275 C1274 1.279 . S
C1276 C1278 1.353 . S
C1276 N1279 1.314 . S
C1276 H1282 0.930 . S
C1277 N1279 1.279 . S
C1277 C1280 1.358 . S
C1277 H1283 0.930 . S
C1278 C1276 1.353 . S
C1278 C1281 1.348 . S
C1278 H1316 0.929 . S
N1279 Li1234 1.990 . S
N1279 C1276 1.314 . S
N1279 C1277 1.279 . S
C1280 C1277 1.358 . S
C1280 C1281 1.356 . S
C1280 H1317 0.930 . S
C1281 C1278 1.348 . S
C1281 C1280 1.356 . S
H1282 C1276 0.930 . S
H1283 C1277 0.930 . S
C1284 N1285 1.314 . S
C1284 C1286 1.353 . S
C1284 H1290 0.930 . S
N1285 Li1235 1.990 . S
N1285 C1284 1.314 . S
N1285 C1288 1.279 . S
C1286 C1284 1.353 . S
C1286 C1289 1.348 . S
C1286 H1318 0.929 . S
C1287 C1288 1.358 . S
C1287 C1289 1.356 . S
C1287 H1319 0.930 . S
C1288 N1285 1.279 . S
C1288 C1287 1.358 . S
C1288 H1291 0.930 . S
C1289 C1286 1.348 . S
C1289 C1287 1.356 . S
H1290 C1284 0.930 . S
H1291 C1288 0.930 . S
O1292 Li1232 1.956 . S
O1292 Li1233 1.970 . S
O1292 Li1234 1.961 . S
O1292 C1236 1.325 . S
O1293 Li1232 1.970 . S
O1293 Li1233 1.956 . S
O1293 Li1235 1.961 . S
O1293 C1242 1.325 . S
O1294 Li1232 1.961 . S
O1294 Li1234 1.956 . S
O1294 Li1235 1.970 . S
O1294 C1264 1.325 . S
O1295 Li1233 1.961 . S
O1295 Li1234 1.970 . S
O1295 Li1235 1.956 . S
O1295 C1270 1.325 . S
H1296 C1238 0.929 . S
H1297 C1239 0.930 . S
H1298 C1240 0.930 . S
H1299 C1241 0.930 . S
H1300 C1243 0.930 . S
H1301 C1245 0.929 . S
H1302 C1246 0.930 . S
H1303 C1247 0.930 . S
H1304 C1250 0.930 . S
H1305 C1253 0.929 . S
H1306 C1258 0.929 . S
H1307 C1259 0.930 . S
H1308 C1266 0.929 . S
H1309 C1267 0.930 . S
H1310 C1268 0.930 . S
H1311 C1269 0.930 . S
H1312 C1271 0.929 . S
H1313 C1272 0.930 . S
H1314 C1273 0.930 . S
H1315 C1274 0.930 . S
H1316 C1278 0.929 . S
H1317 C1280 0.930 . S
H1318 C1286 0.929 . S
H1319 C1287 0.930 . S
Li1320 N1337 1.990 . S
Li1320 O1380 1.956 . S
Li1320 O1381 1.970 . S
Li1320 O1382 1.961 . S
Li1321 N1345 1.990 . S
Li1321 O1380 1.970 . S
Li1321 O1381 1.956 . S
Li1321 O1383 1.961 . S
Li1322 N1367 1.990 . S
Li1322 O1380 1.961 . S
Li1322 O1382 1.956 . S
Li1322 O1383 1.970 . S
Li1323 N1373 1.990 . S
Li1323 O1381 1.961 . S
Li1323 O1382 1.970 . S
Li1323 O1383 1.956 . S
C1324 C1326 1.348 . S
C1324 C1327 1.356 . S
C1324 O1380 1.325 . S
N1325 C1328 1.314 . S
N1325 C1329 1.279 . S
C1326 C1324 1.348 . S
C1326 C1328 1.353 . S
C1326 H1384 0.929 . S
C1327 C1324 1.356 . S
C1327 C1329 1.358 . S
C1327 H1385 0.930 . S
C1328 N1325 1.314 . S
C1328 C1326 1.353 . S
C1328 H1386 0.930 . S
C1329 N1325 1.279 . S
C1329 C1327 1.358 . S
C1329 H1387 0.930 . S
C1330 C1333 1.348 . S
C1330 C1334 1.356 . S
C1330 O1381 1.325 . S
C1331 N1332 1.279 . S
C1331 C1334 1.358 . S
C1331 H1388 0.930 . S
N1332 C1331 1.279 . S
N1332 C1335 1.314 . S
C1333 C1330 1.348 . S
C1333 C1335 1.353 . S
C1333 H1389 0.929 . S
C1334 C1330 1.356 . S
C1334 C1331 1.358 . S
C1334 H1390 0.930 . S
C1335 N1332 1.314 . S
C1335 C1333 1.353 . S
C1335 H1391 0.930 . S
C1336 N1337 1.314 . S
C1336 C1341 1.353 . S
C1336 H1342 0.930 . S
N1337 Li1320 1.990 . S
N1337 C1336 1.314 . S
N1337 C1339 1.279 . S
C1338 C1339 1.358 . S
C1338 C1340 1.356 . S
C1338 H1392 0.930 . S
C1339 N1337 1.279 . S
C1339 C1338 1.358 . S
C1339 H1343 0.930 . S
C1340 C1338 1.356 . S
C1340 C1341 1.348 . S
C1341 C1336 1.353 . S
C1341 C1340 1.348 . S
C1341 H1393 0.929 . S
H1342 C1336 0.930 . S
H1343 C1339 0.930 . S
C1344 N1345 1.314 . S
C1344 C1346 1.353 . S
C1344 H1350 0.930 . S
N1345 Li1321 1.990 . S
N1345 C1344 1.314 . S
N1345 C1348 1.279 . S
C1346 C1344 1.353 . S
C1346 C1349 1.348 . S
C1346 H1394 0.929 . S
C1347 C1348 1.358 . S
C1347 C1349 1.356 . S
C1347 H1395 0.930 . S
C1348 N1345 1.279 . S
C1348 C1347 1.358 . S
C1348 H1351 0.930 . S
C1349 C1346 1.348 . S
C1349 C1347 1.356 . S
H1350 C1344 0.930 . S
H1351 C1348 0.930 . S
C1352 C1354 1.348 . S
C1352 C1355 1.356 . S
C1352 O1382 1.325 . S
N1353 C1356 1.314 . S
N1353 C1357 1.279 . S
C1354 C1352 1.348 . S
C1354 C1356 1.353 . S
C1354 H1396 0.929 . S
C1355 C1352 1.356 . S
C1355 C1357 1.358 . S
C1355 H1397 0.930 . S
C1356 N1353 1.314 . S
C1356 C1354 1.353 . S
C1356 H1398 0.930 . S
C1357 N1353 1.279 . S
C1357 C1355 1.358 . S
C1357 H1399 0.930 . S
C1358 C1359 1.348 . S
C1358 C1360 1.356 . S
C1358 O1383 1.325 . S
C1359 C1358 1.348 . S
C1359 C1361 1.353 . S
C1359 H1400 0.929 . S
C1360 C1358 1.356 . S
C1360 C1362 1.358 . S
C1360 H1401 0.930 . S
C1361 C1359 1.353 . S
C1361 N1363 1.314 . S
C1361 H1402 0.930 . S
C1362 C1360 1.358 . S
C1362 N1363 1.279 . S
C1362 H1403 0.930 . S
N1363 C1361 1.314 . S
N1363 C1362 1.279 . S
C1364 C1366 1.353 . S
C1364 N1367 1.314 . S
C1364 H1370 0.930 . S
C1365 N1367 1.279 . S
C1365 C1368 1.358 . S
C1365 H1371 0.930 . S
C1366 C1364 1.353 . S
C1366 C1369 1.348 . S
C1366 H1404 0.929 . S
N1367 Li1322 1.990 . S
N1367 C1364 1.314 . S
N1367 C1365 1.279 . S
C1368 C1365 1.358 . S
C1368 C1369 1.356 . S
C1368 H1405 0.930 . S
C1369 C1366 1.348 . S
C1369 C1368 1.356 . S
H1370 C1364 0.930 . S
H1371 C1365 0.930 . S
C1372 N1373 1.314 . S
C1372 C1374 1.353 . S
C1372 H1378 0.930 . S
N1373 Li1323 1.990 . S
N1373 C1372 1.314 . S
N1373 C1376 1.279 . S
C1374 C1372 1.353 . S
C1374 C1377 1.348 . S
C1374 H1406 0.929 . S
C1375 C1376 1.358 . S
C1375 C1377 1.356 . S
C1375 H1407 0.930 . S
C1376 N1373 1.279 . S
C1376 C1375 1.358 . S
C1376 H1379 0.930 . S
C1377 C1374 1.348 . S
C1377 C1375 1.356 . S
H1378 C1372 0.930 . S
H1379 C1376 0.930 . S
O1380 Li1320 1.956 . S
O1380 Li1321 1.970 . S
O1380 Li1322 1.961 . S
O1380 C1324 1.325 . S
O1381 Li1320 1.970 . S
O1381 Li1321 1.956 . S
O1381 Li1323 1.961 . S
O1381 C1330 1.325 . S
O1382 Li1320 1.961 . S
O1382 Li1322 1.956 . S
O1382 Li1323 1.970 . S
O1382 C1352 1.325 . S
O1383 Li1321 1.961 . S
O1383 Li1322 1.970 . S
O1383 Li1323 1.956 . S
O1383 C1358 1.325 . S
H1384 C1326 0.929 . S
H1385 C1327 0.930 . S
H1386 C1328 0.930 . S
H1387 C1329 0.930 . S
H1388 C1331 0.930 . S
H1389 C1333 0.929 . S
H1390 C1334 0.930 . S
H1391 C1335 0.930 . S
H1392 C1338 0.930 . S
H1393 C1341 0.929 . S
H1394 C1346 0.929 . S
H1395 C1347 0.930 . S
H1396 C1354 0.929 . S
H1397 C1355 0.930 . S
H1398 C1356 0.930 . S
H1399 C1357 0.930 . S
H1400 C1359 0.929 . S
H1401 C1360 0.930 . S
H1402 C1361 0.930 . S
H1403 C1362 0.930 . S
H1404 C1366 0.929 . S
H1405 C1368 0.930 . S
H1406 C1374 0.929 . S
H1407 C1375 0.930 . S
C1408 C1409 1.369 . S
C1408 C1410 1.419 . S
C1408 H1412 0.930 . S
C1409 C1408 1.369 . S
C1409 C1418 1.429 . S
C1410 C1408 1.419 . S
C1410 C1411 1.363 . S
C1410 H1413 0.929 . S
C1411 C1410 1.363 . S
C1411 C1417 1.428 . S
H1412 C1408 0.930 . S
H1413 C1410 0.929 . S
S1414 N1415 1.613 . S
S1414 N1416 1.610 . S
N1415 S1414 1.613 . S
N1415 C1418 1.350 . S
N1416 S1414 1.610 . S
N1416 C1417 1.351 . S
C1417 C1411 1.428 . S
C1417 N1416 1.351 . S
C1417 C1418 1.434 . S
C1418 C1409 1.429 . S
C1418 N1415 1.350 . S
C1418 C1417 1.434 . S
C1419 C1420 1.369 . S
C1419 C1421 1.419 . S
C1419 H1423 0.930 . S
C1420 C1419 1.369 . S
C1420 C1429 1.429 . S
C1421 C1419 1.419 . S
C1421 C1422 1.363 . S
C1421 H1424 0.929 . S
C1422 C1421 1.363 . S
C1422 C1428 1.428 . S
H1423 C1419 0.930 . S
H1424 C1421 0.929 . S
S1425 N1426 1.613 . S
S1425 N1427 1.610 . S
N1426 S1425 1.613 . S
N1426 C1429 1.350 . S
N1427 S1425 1.610 . S
N1427 C1428 1.351 . S
C1428 C1422 1.428 . S
C1428 N1427 1.351 . S
C1428 C1429 1.434 . S
C1429 C1420 1.429 . S
C1429 N1426 1.350 . S
C1429 C1428 1.434 . S
C1430 C1431 1.369 . S
C1430 C1432 1.419 . S
C1430 H1434 0.930 . S
C1431 C1430 1.369 . S
C1431 C1440 1.429 . S
C1432 C1430 1.419 . S
C1432 C1433 1.363 . S
C1432 H1435 0.929 . S
C1433 C1432 1.363 . S
C1433 C1439 1.428 . S
H1434 C1430 0.930 . S
H1435 C1432 0.929 . S
S1436 N1437 1.613 . S
S1436 N1438 1.610 . S
N1437 S1436 1.613 . S
N1437 C1440 1.350 . S
N1438 S1436 1.610 . S
N1438 C1439 1.351 . S
C1439 C1433 1.428 . S
C1439 N1438 1.351 . S
C1439 C1440 1.434 . S
C1440 C1431 1.429 . S
C1440 N1437 1.350 . S
C1440 C1439 1.434 . S
C1441 C1442 1.369 . S
C1441 C1443 1.419 . S
C1441 H1445 0.930 . S
C1442 C1441 1.369 . S
C1442 C1451 1.429 . S
C1443 C1441 1.419 . S
C1443 C1444 1.363 . S
C1443 H1446 0.929 . S
C1444 C1443 1.363 . S
C1444 C1450 1.428 . S
H1445 C1441 0.930 . S
H1446 C1443 0.929 . S
S1447 N1448 1.613 . S
S1447 N1449 1.610 . S
N1448 S1447 1.613 . S
N1448 C1451 1.350 . S
N1449 S1447 1.610 . S
N1449 C1450 1.351 . S
C1450 C1444 1.428 . S
C1450 N1449 1.351 . S
C1450 C1451 1.434 . S
C1451 C1442 1.429 . S
C1451 N1448 1.350 . S
C1451 C1450 1.434 . S
C1452 C1453 1.369 . S
C1452 C1454 1.419 . S
C1452 H1456 0.930 . S
C1453 C1452 1.369 . S
C1453 C1462 1.429 . S
C1454 C1452 1.419 . S
C1454 C1455 1.363 . S
C1454 H1457 0.929 . S
C1455 C1454 1.363 . S
C1455 C1461 1.428 . S
H1456 C1452 0.930 . S
H1457 C1454 0.929 . S
S1458 N1459 1.613 . S
S1458 N1460 1.610 . S
N1459 S1458 1.613 . S
N1459 C1462 1.350 . S
N1460 S1458 1.610 . S
N1460 C1461 1.351 . S
C1461 C1455 1.428 . S
C1461 N1460 1.351 . S
C1461 C1462 1.434 . S
C1462 C1453 1.429 . S
C1462 N1459 1.350 . S
C1462 C1461 1.434 . S
C1463 C1464 1.369 . S
C1463 C1465 1.419 . S
C1463 H1467 0.930 . S
C1464 C1463 1.369 . S
C1464 C1473 1.429 . S
C1465 C1463 1.419 . S
C1465 C1466 1.363 . S
C1465 H1468 0.929 . S
C1466 C1465 1.363 . S
C1466 C1472 1.428 . S
H1467 C1463 0.930 . S
H1468 C1465 0.929 . S
S1469 N1470 1.613 . S
S1469 N1471 1.610 . S
N1470 S1469 1.613 . S
N1470 C1473 1.350 . S
N1471 S1469 1.610 . S
N1471 C1472 1.351 . S
C1472 C1466 1.428 . S
C1472 N1471 1.351 . S
C1472 C1473 1.434 . S
C1473 C1464 1.429 . S
C1473 N1470 1.350 . S
C1473 C1472 1.434 . S
C1474 C1475 1.369 . S
C1474 C1476 1.419 . S
C1474 H1478 0.930 . S
C1475 C1474 1.369 . S
C1475 C1484 1.429 . S
C1476 C1474 1.419 . S
C1476 C1477 1.363 . S
C1476 H1479 0.929 . S
C1477 C1476 1.363 . S
C1477 C1483 1.428 . S
H1478 C1474 0.930 . S
H1479 C1476 0.929 . S
S1480 N1481 1.613 . S
S1480 N1482 1.610 . S
N1481 S1480 1.613 . S
N1481 C1484 1.350 . S
N1482 S1480 1.610 . S
N1482 C1483 1.351 . S
C1483 C1477 1.428 . S
C1483 N1482 1.351 . S
C1483 C1484 1.434 . S
C1484 C1475 1.429 . S
C1484 N1481 1.350 . S
C1484 C1483 1.434 . S
C1485 C1486 1.369 . S
C1485 C1487 1.419 . S
C1485 H1489 0.930 . S
C1486 C1485 1.369 . S
C1486 C1495 1.429 . S
C1487 C1485 1.419 . S
C1487 C1488 1.363 . S
C1487 H1490 0.929 . S
C1488 C1487 1.363 . S
C1488 C1494 1.428 . S
H1489 C1485 0.930 . S
H1490 C1487 0.929 . S
S1491 N1492 1.613 . S
S1491 N1493 1.610 . S
N1492 S1491 1.613 . S
N1492 C1495 1.350 . S
N1493 S1491 1.610 . S
N1493 C1494 1.351 . S
C1494 C1488 1.428 . S
C1494 N1493 1.351 . S
C1494 C1495 1.434 . S
C1495 C1486 1.429 . S
C1495 N1492 1.350 . S
C1495 C1494 1.434 . S
C1496 C1497 1.369 . S
C1496 C1498 1.419 . S
C1496 H1500 0.930 . S
C1497 C1496 1.369 . S
C1497 C1506 1.429 . S
C1498 C1496 1.419 . S
C1498 C1499 1.363 . S
C1498 H1501 0.929 . S
C1499 C1498 1.363 . S
C1499 C1505 1.428 . S
H1500 C1496 0.930 . S
H1501 C1498 0.929 . S
S1502 N1503 1.613 . S
S1502 N1504 1.610 . S
N1503 S1502 1.613 . S
N1503 C1506 1.350 . S
N1504 S1502 1.610 . S
N1504 C1505 1.351 . S
C1505 C1499 1.428 . S
C1505 N1504 1.351 . S
C1505 C1506 1.434 . S
C1506 C1497 1.429 . S
C1506 N1503 1.350 . S
C1506 C1505 1.434 . S
C1507 C1508 1.369 . S
C1507 C1509 1.419 . S
C1507 H1511 0.930 . S
C1508 C1507 1.369 . S
C1508 C1517 1.429 1_545 S
C1509 C1507 1.419 . S
C1509 C1510 1.363 1_545 S
C1509 H1512 0.929 . S
C1510 C1509 1.363 1_565 S
C1510 C1516 1.428 . S
H1511 C1507 0.930 . S
H1512 C1509 0.929 . S
S1513 N1514 1.613 . S
S1513 N1515 1.610 . S
N1514 S1513 1.613 . S
N1514 C1517 1.350 . S
N1515 S1513 1.610 . S
N1515 C1516 1.351 . S
C1516 C1510 1.428 . S
C1516 N1515 1.351 . S
C1516 C1517 1.434 . S
C1517 C1508 1.429 1_565 S
C1517 N1514 1.350 . S
C1517 C1516 1.434 . S
C1518 C1519 1.369 . S
C1518 C1520 1.419 1_556 S
C1518 H1522 0.930 . S
C1519 C1518 1.369 . S
C1519 C1528 1.429 . S
C1520 C1518 1.419 1_554 S
C1520 C1521 1.363 . S
C1520 H1523 0.929 . S
C1521 C1520 1.363 . S
C1521 C1527 1.428 . S
H1522 C1518 0.930 . S
H1523 C1520 0.929 . S
S1524 N1525 1.613 1_554 S
S1524 N1526 1.610 . S
N1525 S1524 1.613 1_556 S
N1525 C1528 1.350 . S
N1526 S1524 1.610 . S
N1526 C1527 1.351 . S
C1527 C1521 1.428 . S
C1527 N1526 1.351 . S
C1527 C1528 1.434 1_554 S
C1528 C1519 1.429 . S
C1528 N1525 1.350 . S
C1528 C1527 1.434 1_556 S
C1529 C1530 1.369 1_545 S
C1529 C1531 1.419 . S
C1529 H1533 0.930 . S
C1530 C1529 1.369 1_565 S
C1530 C1539 1.429 . S
C1531 C1529 1.419 . S
C1531 C1532 1.363 . S
C1531 H1534 0.929 . S
C1532 C1531 1.363 . S
C1532 C1538 1.428 1_545 S
H1533 C1529 0.930 . S
H1534 C1531 0.929 . S
S1535 N1536 1.613 . S
S1535 N1537 1.610 . S
N1536 S1535 1.613 . S
N1536 C1539 1.350 . S
N1537 S1535 1.610 . S
N1537 C1538 1.351 . S
C1538 C1532 1.428 1_565 S
C1538 N1537 1.351 . S
C1538 C1539 1.434 . S
C1539 C1530 1.429 . S
C1539 N1536 1.350 . S
C1539 C1538 1.434 . S
C1540 C1541 1.369 . S
C1540 C1542 1.419 . S
C1540 H1544 0.930 . S
C1541 C1540 1.369 . S
C1541 C1550 1.429 . S
C1542 C1540 1.419 . S
C1542 C1543 1.363 . S
C1542 H1545 0.929 . S
C1543 C1542 1.363 . S
C1543 C1549 1.428 . S
H1544 C1540 0.930 . S
H1545 C1542 0.929 . S
S1546 N1547 1.613 . S
S1546 N1548 1.610 . S
N1547 S1546 1.613 . S
N1547 C1550 1.350 . S
N1548 S1546 1.610 . S
N1548 C1549 1.351 . S
C1549 C1543 1.428 . S
C1549 N1548 1.351 . S
C1549 C1550 1.434 . S
C1550 C1541 1.429 . S
C1550 N1547 1.350 . S
C1550 C1549 1.434 . S
C1551 C1552 1.369 . S
C1551 C1553 1.419 . S
C1551 H1555 0.930 . S
C1552 C1551 1.369 . S
C1552 C1561 1.429 1_655 S
C1553 C1551 1.419 . S
C1553 C1554 1.363 1_655 S
C1553 H1556 0.929 . S
C1554 C1553 1.363 1_455 S
C1554 C1560 1.428 . S
H1555 C1551 0.930 . S
H1556 C1553 0.929 . S
S1557 N1558 1.613 . S
S1557 N1559 1.610 . S
N1558 S1557 1.613 . S
N1558 C1561 1.350 . S
N1559 S1557 1.610 . S
N1559 C1560 1.351 . S
C1560 C1554 1.428 . S
C1560 N1559 1.351 . S
C1560 C1561 1.434 . S
C1561 C1552 1.429 1_455 S
C1561 N1558 1.350 . S
C1561 C1560 1.434 . S
C1562 C1563 1.369 . S
C1562 C1564 1.419 1_655 S
C1562 H1566 0.930 . S
C1563 C1562 1.369 . S
C1563 C1572 1.429 . S
C1564 C1562 1.419 1_455 S
C1564 C1565 1.363 . S
C1564 H1567 0.929 . S
C1565 C1564 1.363 . S
C1565 C1571 1.428 . S
H1566 C1562 0.930 . S
H1567 C1564 0.929 . S
S1568 N1569 1.613 1_455 S
S1568 N1570 1.610 . S
N1569 S1568 1.613 1_655 S
N1569 C1572 1.350 . S
N1570 S1568 1.610 . S
N1570 C1571 1.351 . S
C1571 C1565 1.428 . S
C1571 N1570 1.351 . S
C1571 C1572 1.434 1_455 S
C1572 C1563 1.429 . S
C1572 N1569 1.350 . S
C1572 C1571 1.434 1_655 S
C1573 C1574 1.369 1_554 S
C1573 C1575 1.419 . S
C1573 H1577 0.930 . S
C1574 C1573 1.369 1_556 S
C1574 C1583 1.429 . S
C1575 C1573 1.419 . S
C1575 C1576 1.363 1_554 S
C1575 H1578 0.929 . S
C1576 C1575 1.363 1_556 S
C1576 C1582 1.428 . S
H1577 C1573 0.930 . S
H1578 C1575 0.929 . S
S1579 N1580 1.613 . S
S1579 N1581 1.610 . S
N1580 S1579 1.613 . S
N1580 C1583 1.350 . S
N1581 S1579 1.610 . S
N1581 C1582 1.351 . S
C1582 C1576 1.428 . S
C1582 N1581 1.351 . S
C1582 C1583 1.434 . S
C1583 C1574 1.429 . S
C1583 N1580 1.350 . S
C1583 C1582 1.434 . S
C1584 C1585 1.369 . S
C1584 C1586 1.419 . S
C1584 H1588 0.930 . S
C1585 C1584 1.369 . S
C1585 C1594 1.429 . S
C1586 C1584 1.419 . S
C1586 C1587 1.363 . S
C1586 H1589 0.929 . S
C1587 C1586 1.363 . S
C1587 C1593 1.428 . S
H1588 C1584 0.930 . S
H1589 C1586 0.929 . S
S1590 N1591 1.613 . S
S1590 N1592 1.610 . S
N1591 S1590 1.613 . S
N1591 C1594 1.350 . S
N1592 S1590 1.610 . S
N1592 C1593 1.351 . S
C1593 C1587 1.428 . S
C1593 N1592 1.351 . S
C1593 C1594 1.434 . S
C1594 C1585 1.429 . S
C1594 N1591 1.350 . S
C1594 C1593 1.434 . S
C1595 C1596 1.369 . S
C1595 C1597 1.419 . S
C1595 H1599 0.930 . S
C1596 C1595 1.369 . S
C1596 C1605 1.429 . S
C1597 C1595 1.419 . S
C1597 C1598 1.363 . S
C1597 H1600 0.929 . S
C1598 C1597 1.363 . S
C1598 C1604 1.428 . S
H1599 C1595 0.930 . S
H1600 C1597 0.929 . S
S1601 N1602 1.613 . S
S1601 N1603 1.610 . S
N1602 S1601 1.613 . S
N1602 C1605 1.350 . S
N1603 S1601 1.610 . S
N1603 C1604 1.351 . S
C1604 C1598 1.428 . S
C1604 N1603 1.351 . S
C1604 C1605 1.434 . S
C1605 C1596 1.429 . S
C1605 N1602 1.350 . S
C1605 C1604 1.434 . S
C1606 C1607 1.369 . S
C1606 C1608 1.419 1_455 S
C1606 H1610 0.930 . S
C1607 C1606 1.369 . S
C1607 C1616 1.429 . S
C1608 C1606 1.419 1_655 S
C1608 C1609 1.363 . S
C1608 H1611 0.929 . S
C1609 C1608 1.363 . S
C1609 C1615 1.428 . S
H1610 C1606 0.930 . S
H1611 C1608 0.929 . S
S1612 N1613 1.613 1_655 S
S1612 N1614 1.610 . S
N1613 S1612 1.613 1_455 S
N1613 C1616 1.350 . S
N1614 S1612 1.610 . S
N1614 C1615 1.351 . S
C1615 C1609 1.428 . S
C1615 N1614 1.351 . S
C1615 C1616 1.434 1_655 S
C1616 C1607 1.429 . S
C1616 N1613 1.350 . S
C1616 C1615 1.434 1_455 S
C1617 C1618 1.369 1_655 S
C1617 C1619 1.419 . S
C1617 H1621 0.930 . S
C1618 C1617 1.369 1_455 S
C1618 C1627 1.429 1_554 S
C1619 C1617 1.419 . S
C1619 C1620 1.363 . S
C1619 H1622 0.929 . S
C1620 C1619 1.363 . S
C1620 C1626 1.428 1_654 S
H1621 C1617 0.930 . S
H1622 C1619 0.929 . S
S1623 N1624 1.613 . S
S1623 N1625 1.610 . S
N1624 S1623 1.613 . S
N1624 C1627 1.350 . S
N1625 S1623 1.610 . S
N1625 C1626 1.351 . S
C1626 C1620 1.428 1_456 S
C1626 N1625 1.351 . S
C1626 C1627 1.434 . S
C1627 C1618 1.429 1_556 S
C1627 N1624 1.350 . S
C1627 C1626 1.434 . S
C1628 C1629 1.369 . S
C1628 C1630 1.419 . S
C1628 H1632 0.930 . S
C1629 C1628 1.369 . S
C1629 C1638 1.429 . S
C1630 C1628 1.419 . S
C1630 C1631 1.363 . S
C1630 H1633 0.929 . S
C1631 C1630 1.363 . S
C1631 C1637 1.428 . S
H1632 C1628 0.930 . S
H1633 C1630 0.929 . S
S1634 N1635 1.613 . S
S1634 N1636 1.610 . S
N1635 S1634 1.613 . S
N1635 C1638 1.350 . S
N1636 S1634 1.610 . S
N1636 C1637 1.351 . S
C1637 C1631 1.428 . S
C1637 N1636 1.351 . S
C1637 C1638 1.434 . S
C1638 C1629 1.429 . S
C1638 N1635 1.350 . S
C1638 C1637 1.434 . S
C1639 C1640 1.369 . S
C1639 C1641 1.419 1_545 S
C1639 H1643 0.930 . S
C1640 C1639 1.369 . S
C1640 C1649 1.429 . S
C1641 C1639 1.419 1_565 S
C1641 C1642 1.363 . S
C1641 H1644 0.929 . S
C1642 C1641 1.363 . S
C1642 C1648 1.428 . S
H1643 C1639 0.930 . S
H1644 C1641 0.929 . S
S1645 N1646 1.613 . S
S1645 N1647 1.610 1_545 S
N1646 S1645 1.613 . S
N1646 C1649 1.350 . S
N1647 S1645 1.610 1_565 S
N1647 C1648 1.351 . S
C1648 C1642 1.428 . S
C1648 N1647 1.351 . S
C1648 C1649 1.434 1_565 S
C1649 C1640 1.429 . S
C1649 N1646 1.350 . S
C1649 C1648 1.434 1_545 S
C1650 C1651 1.369 1_554 S
C1650 C1652 1.419 . S
C1650 H1654 0.930 . S
C1651 C1650 1.369 1_556 S
C1651 C1660 1.429 . S
C1652 C1650 1.419 . S
C1652 C1653 1.363 . S
C1652 H1655 0.929 . S
C1653 C1652 1.363 . S
C1653 C1659 1.428 1_554 S
H1654 C1650 0.930 . S
H1655 C1652 0.929 . S
S1656 N1657 1.613 . S
S1656 N1658 1.610 . S
N1657 S1656 1.613 . S
N1657 C1660 1.350 . S
N1658 S1656 1.610 . S
N1658 C1659 1.351 . S
C1659 C1653 1.428 1_556 S
C1659 N1658 1.351 . S
C1659 C1660 1.434 . S
C1660 C1651 1.429 . S
C1660 N1657 1.350 . S
C1660 C1659 1.434 . S
C1661 C1662 1.369 . S
C1661 C1663 1.419 1_545 S
C1661 H1665 0.930 . S
C1662 C1661 1.369 . S
C1662 C1671 1.429 . S
C1663 C1661 1.419 1_565 S
C1663 C1664 1.363 . S
C1663 H1666 0.929 . S
C1664 C1663 1.363 . S
C1664 C1670 1.428 . S
H1665 C1661 0.930 . S
H1666 C1663 0.929 . S
S1667 N1668 1.613 1_565 S
S1667 N1669 1.610 . S
N1668 S1667 1.613 1_545 S
N1668 C1671 1.350 . S
N1669 S1667 1.610 . S
N1669 C1670 1.351 . S
C1670 C1664 1.428 . S
C1670 N1669 1.351 . S
C1670 C1671 1.434 1_565 S
C1671 C1662 1.429 . S
C1671 N1668 1.350 . S
C1671 C1670 1.434 1_545 S
C1672 C1673 1.369 . S
C1672 C1674 1.419 . S
C1672 H1676 0.930 . S
C1673 C1672 1.369 . S
C1673 C1682 1.429 1_544 S
C1674 C1672 1.419 . S
C1674 C1675 1.363 1_554 S
C1674 H1677 0.929 . S
C1675 C1674 1.363 1_556 S
C1675 C1681 1.428 1_545 S
H1676 C1672 0.930 . S
H1677 C1674 0.929 . S
S1678 N1679 1.613 . S
S1678 N1680 1.610 . S
N1679 S1678 1.613 . S
N1679 C1682 1.350 . S
N1680 S1678 1.610 . S
N1680 C1681 1.351 . S
C1681 C1675 1.428 1_565 S
C1681 N1680 1.351 . S
C1681 C1682 1.434 . S
C1682 C1673 1.429 1_566 S
C1682 N1679 1.350 . S
C1682 C1681 1.434 . S
C1683 C1684 1.369 . S
C1683 C1685 1.419 . S
C1683 H1687 0.930 . S
C1684 C1683 1.369 . S
C1684 C1693 1.429 . S
C1685 C1683 1.419 . S
C1685 C1686 1.363 . S
C1685 H1688 0.929 . S
C1686 C1685 1.363 . S
C1686 C1692 1.428 . S
H1687 C1683 0.930 . S
H1688 C1685 0.929 . S
S1689 N1690 1.613 . S
S1689 N1691 1.610 . S
N1690 S1689 1.613 . S
N1690 C1693 1.350 . S
N1691 S1689 1.610 . S
N1691 C1692 1.351 . S
C1692 C1686 1.428 . S
C1692 N1691 1.351 . S
C1692 C1693 1.434 . S
C1693 C1684 1.429 . S
C1693 N1690 1.350 . S
C1693 C1692 1.434 . S
C1694 C1695 1.369 . S
C1694 C1696 1.419 . S
C1694 H1698 0.930 . S
C1695 C1694 1.369 . S
C1695 C1704 1.429 . S
C1696 C1694 1.419 . S
C1696 C1697 1.363 . S
C1696 H1699 0.929 . S
C1697 C1696 1.363 . S
C1697 C1703 1.428 . S
H1698 C1694 0.930 . S
H1699 C1696 0.929 . S
S1700 N1701 1.613 . S
S1700 N1702 1.610 . S
N1701 S1700 1.613 . S
N1701 C1704 1.350 . S
N1702 S1700 1.610 . S
N1702 C1703 1.351 . S
C1703 C1697 1.428 . S
C1703 N1702 1.351 . S
C1703 C1704 1.434 . S
C1704 C1695 1.429 . S
C1704 N1701 1.350 . S
C1704 C1703 1.434 . S
C1705 C1706 1.369 . S
C1705 C1707 1.419 1_556 S
C1705 H1709 0.930 . S
C1706 C1705 1.369 . S
C1706 C1715 1.429 . S
C1707 C1705 1.419 1_554 S
C1707 C1708 1.363 . S
C1707 H1710 0.929 . S
C1708 C1707 1.363 . S
C1708 C1714 1.428 . S
H1709 C1705 0.930 . S
H1710 C1707 0.929 . S
S1711 N1712 1.613 1_554 S
S1711 N1713 1.610 . S
N1712 S1711 1.613 1_556 S
N1712 C1715 1.350 . S
N1713 S1711 1.610 . S
N1713 C1714 1.351 . S
C1714 C1708 1.428 . S
C1714 N1713 1.351 . S
C1714 C1715 1.434 1_554 S
C1715 C1706 1.429 . S
C1715 N1712 1.350 . S
C1715 C1714 1.434 1_556 S
C1716 C1717 1.369 . S
C1716 C1718 1.419 . S
C1716 H1720 0.930 . S
C1717 C1716 1.369 . S
C1717 C1726 1.429 . S
C1718 C1716 1.419 . S
C1718 C1719 1.363 . S
C1718 H1721 0.929 . S
C1719 C1718 1.363 . S
C1719 C1725 1.428 . S
H1720 C1716 0.930 . S
H1721 C1718 0.929 . S
S1722 N1723 1.613 . S
S1722 N1724 1.610 . S
N1723 S1722 1.613 . S
N1723 C1726 1.350 . S
N1724 S1722 1.610 . S
N1724 C1725 1.351 . S
C1725 C1719 1.428 . S
C1725 N1724 1.351 . S
C1725 C1726 1.434 . S
C1726 C1717 1.429 . S
C1726 N1723 1.350 . S
C1726 C1725 1.434 . S
C1727 C1728 1.369 . S
C1727 C1729 1.419 . S
C1727 H1731 0.930 . S
C1728 C1727 1.369 . S
C1728 C1737 1.429 . S
C1729 C1727 1.419 . S
C1729 C1730 1.363 . S
C1729 H1732 0.929 . S
C1730 C1729 1.363 . S
C1730 C1736 1.428 . S
H1731 C1727 0.930 . S
H1732 C1729 0.929 . S
S1733 N1734 1.613 . S
S1733 N1735 1.610 . S
N1734 S1733 1.613 . S
N1734 C1737 1.350 . S
N1735 S1733 1.610 . S
N1735 C1736 1.351 . S
C1736 C1730 1.428 . S
C1736 N1735 1.351 . S
C1736 C1737 1.434 . S
C1737 C1728 1.429 . S
C1737 N1734 1.350 . S
C1737 C1736 1.434 . S
C1738 C1739 1.369 1_455 S
C1738 C1740 1.419 . S
C1738 H1742 0.930 . S
C1739 C1738 1.369 1_655 S
C1739 C1748 1.429 . S
C1740 C1738 1.419 . S
C1740 C1741 1.363 1_455 S
C1740 H1743 0.929 . S
C1741 C1740 1.363 1_655 S
C1741 C1747 1.428 . S
H1742 C1738 0.930 . S
H1743 C1740 0.929 . S
S1744 N1745 1.613 . S
S1744 N1746 1.610 . S
N1745 S1744 1.613 . S
N1745 C1748 1.350 . S
N1746 S1744 1.610 . S
N1746 C1747 1.351 . S
C1747 C1741 1.428 . S
C1747 N1746 1.351 . S
C1747 C1748 1.434 . S
C1748 C1739 1.429 . S
C1748 N1745 1.350 . S
C1748 C1747 1.434 . S
C1749 C1750 1.369 1_545 S
C1749 C1751 1.419 . S
C1749 H1753 0.930 . S
C1750 C1749 1.369 1_565 S
C1750 C1759 1.429 . S
C1751 C1749 1.419 . S
C1751 C1752 1.363 1_545 S
C1751 H1754 0.929 . S
C1752 C1751 1.363 1_565 S
C1752 C1758 1.428 . S
H1753 C1749 0.930 . S
H1754 C1751 0.929 . S
S1755 N1756 1.613 . S
S1755 N1757 1.610 . S
N1756 S1755 1.613 . S
N1756 C1759 1.350 . S
N1757 S1755 1.610 . S
N1757 C1758 1.351 . S
C1758 C1752 1.428 . S
C1758 N1757 1.351 . S
C1758 C1759 1.434 . S
C1759 C1750 1.429 . S
C1759 N1756 1.350 . S
C1759 C1758 1.434 . S
C1409 C57 1.845 . S
C1411 C645 1.845 . S
C1420 C145 1.848 . S
C1422 C372 1.848 . S
C1431 C489 1.844 . S
C1433 C205 1.845 . S
C1442 C321 1.846 . S
C1444 C548 1.846 . S
C1453 C724 1.848 . S
C1455 C1113 1.848 . S
C1464 C849 1.844 . S
C1466 C1252 1.845 . S
C1475 C1025 1.846 . S
C1477 C900 1.847 . S
C1486 C1340 1.845 . S
C1488 C1201 1.845 . S
C1497 C29 1.343 . S
C1499 C585 1.327 . S
C1508 C636 1.342 . S
C1510 C137 1.352 . S
C1519 C233 1.339 . S
C1521 C409 1.327 . S
C1530 C497 1.363 . S
C1532 C284 1.357 . S
C1541 C49 1.340 . S
C1543 C1261 1.344 . S
C1552 C997 1.332 . S
C1554 C108 1.329 . S
C1563 C1193 1.348 . S
C1565 C196 1.339 . S
C1574 C1076 1.331 . S
C1576 C293 1.334 . S
C1585 C929 1.369 . S
C1587 C401 1.360 . S
C1596 C469 1.340 . S
C1598 C1377 1.333 . S
C1607 C577 1.369 . S
C1609 C753 1.359 . S
C1618 C665 1.340 . S
C1620 C812 1.333 . S
C1629 C20 1.354 . S
C1631 C381 1.344 . S
C1640 C733 1.343 . S
C1642 C1164 1.353 . S
C1651 C1085 1.355 . S
C1653 C821 1.350 . S
C1662 C1289 1.353 . S
C1664 C909 1.340 . S
C1673 C673 1.347 . S
C1675 C313 1.341 . S
C1684 C225 1.348 . S
C1686 C557 1.345 . S
C1695 C1017 1.330 . S
C1697 C1369 1.357 . S
C1706 C1173 1.347 . S
C1708 C937 1.325 . S
C1717 C1349 1.347 . S
C1719 C1105 1.350 . S
C1728 C1281 1.343 . S
C1730 C761 1.330 . S
C1739 C988 1.367 . S
C1741 C841 1.353 . S
C1750 C117 1.358 . S
C1752 C460 1.349 . S
