# Generated by pormake.
# Topology rob, (6)-cn, num edge types: 1
# Building blocks:
#     Node 0, Type 0, BuildingBlock: PAMTUU_clean_sbu_0, # of connection points: 6
#     Node 1, Type 0, BuildingBlock: PAMTUU_clean_sbu_0, # of connection points: 6
#     Node 2, Type 0, BuildingBlock: PAMTUU_clean_sbu_0, # of connection points: 6
#     Node 3, Type 0, BuildingBlock: PAMTUU_clean_sbu_0, # of connection points: 6
#     Edge 4, Type (0, 0), BuildingBlock: XUDNAN_clean_linker_2, # of connection points: 2
#     Edge 5, Type (0, 0), BuildingBlock: XUDNAN_clean_linker_2, # of connection points: 2
#     Edge 6, Type (0, 0), BuildingBlock: XUDNAN_clean_linker_2, # of connection points: 2
#     Edge 7, Type (0, 0), BuildingBlock: XUDNAN_clean_linker_2, # of connection points: 2
#     Edge 8, Type (0, 0), BuildingBlock: XUDNAN_clean_linker_2, # of connection points: 2
#     Edge 9, Type (0, 0), BuildingBlock: XUDNAN_clean_linker_2, # of connection points: 2
#     Edge 10, Type (0, 0), BuildingBlock: XUDNAN_clean_linker_2, # of connection points: 2
#     Edge 11, Type (0, 0), BuildingBlock: XUDNAN_clean_linker_2, # of connection points: 2
#     Edge 12, Type (0, 0), BuildingBlock: XUDNAN_clean_linker_2, # of connection points: 2
#     Edge 13, Type (0, 0), BuildingBlock: XUDNAN_clean_linker_2, # of connection points: 2
#     Edge 14, Type (0, 0), BuildingBlock: XUDNAN_clean_linker_2, # of connection points: 2
#     Edge 15, Type (0, 0), BuildingBlock: XUDNAN_clean_linker_2, # of connection points: 2
# Relax obj value: 0.149
# Max RMSD: 0.213
# Mean RMSD: 0.213
data_MOF--net-rob--node1-PAMTUU_clean_sbu_0--edge1-XUDNAN_clean_linker_2
_symmetry_space_group_name_H-M    P1
_symmetry_Int_Tables_number       1
_symmetry_cell_setting            triclinic
loop_
_symmetry_equiv_pos_as_xyz
'x, y, z'
_cell_length_a     18.12697
_cell_length_b     23.654647
_cell_length_c     36.017186
_cell_angle_alpha  89.768137
_cell_angle_beta   54.566421
_cell_angle_gamma 90.044742
loop_
_atom_site_label
_atom_site_type_symbol
_atom_site_fract_x
_atom_site_fract_y
_atom_site_fract_z
_atom_type_partial_charge
Tb0 Tb 0.17322 0.26228 0.01905 0.0
Tb1 Tb 0.31411 0.18033 0.02767 0.0
C2 C 0.35459 0.30748 0.99824 0.0
C3 C 0.06978 0.33069 0.96605 0.0
C4 C 0.05938 0.35574 0.8922 0.0
C5 C 0.03499 0.39631 0.92598 0.0
C6 C 0.03978 0.38379 0.96259 0.0
C7 C 0.09606 0.29044 0.93184 0.0
C8 C 0.09027 0.3027 0.89551 0.0
C9 C 0.0702 0.31725 1.00615 0.0
O10 O 0.24556 0.2107 0.95837 0.0
O11 O 0.37083 0.18167 0.95537 0.0
O12 O 0.21674 0.12741 0.02663 0.0
O13 O 0.10194 0.19066 0.06325 0.0
O14 O 0.44425 0.1581 0.0081 0.0
O15 O 0.32638 0.1107 0.06013 0.0
O16 O 0.21789 0.21527 0.09491 0.0
O17 O 0.1499 0.28935 0.08267 0.0
O18 O 0.30511 0.30252 0.98258 0.0
O19 O 0.35557 0.26784 0.02361 0.0
C20 C 0.32782 0.19006 0.9364 0.0
O21 O 0.05842 0.26425 0.01842 0.0
O22 O 0.13343 0.34073 0.00778 0.0
C23 C 0.13015 0.13906 0.04957 0.0
C24 C 0.44592 0.11897 0.06832 0.0
C25 C 0.50748 0.11708 0.12483 0.0
C26 C 0.50585 0.06739 0.10387 0.0
C27 C 0.47557 0.06842 0.07591 0.0
C28 C 0.44641 0.16869 0.08936 0.0
C29 C 0.47709 0.16779 0.11727 0.0
C30 C 0.4132 0.11852 0.03915 0.0
C31 C 0.1685 0.26145 0.10803 0.0
H32 H 0.01031 0.43741 0.92462 0.0
H33 H 0.01905 0.41545 0.98854 0.0
H34 H 0.12027 0.24924 0.93338 0.0
H35 H 0.11072 0.27083 0.86976 0.0
H36 H 0.5268 0.02733 0.10954 0.0
H37 H 0.47485 0.0295 0.06035 0.0
H38 H 0.42324 0.20817 0.08415 0.0
H39 H 0.47805 0.20697 0.13243 0.0
Tb40 Tb 0.68631 0.77802 0.99491 0.0
Tb41 Tb 0.79969 0.69379 0.02047 0.0
C42 C 0.82835 0.82548 0.0107 0.0
C43 C 0.59897 0.82989 0.93048 0.0
C44 C 0.59469 0.81814 0.85362 0.0
C45 C 0.58328 0.87146 0.87359 0.0
C46 C 0.58531 0.87719 0.91165 0.0
C47 C 0.60929 0.77651 0.9112 0.0
C48 C 0.6065 0.77061 0.87339 0.0
C49 C 0.61179 0.83752 0.96694 0.0
O50 O 0.77375 0.72496 0.9367 0.0
O51 O 0.88513 0.70475 0.9466 0.0
O52 O 0.72968 0.63779 1.00248 0.0
O53 O 0.61453 0.69805 0.01933 0.0
O54 O 0.92069 0.67124 0.01188 0.0
O55 O 0.7965 0.62618 0.05956 0.0
O56 O 0.6739 0.71799 0.08385 0.0
O57 O 0.63133 0.79907 0.0649 0.0
O58 O 0.79512 0.82833 0.98666 0.0
O59 O 0.82509 0.77931 0.03179 0.0
C60 C 0.85635 0.7091 0.92054 0.0
O61 O 0.56745 0.80328 1.00189 0.0
O62 O 0.69584 0.84312 0.95266 0.0
C63 C 0.65047 0.64736 0.01016 0.0
C64 C 0.89225 0.64539 0.08227 0.0
C65 C 0.91945 0.66573 0.15078 0.0
C66 C 0.93017 0.61105 0.13303 0.0
C67 C 0.917 0.60104 0.09889 0.0
C68 C 0.87894 0.69959 0.10089 0.0
C69 C 0.89288 0.70973 0.13457 0.0
C70 C 0.87964 0.63547 0.04588 0.0
C71 C 0.62839 0.76558 0.09493 0.0
H72 H 0.57566 0.90919 0.85901 0.0
H73 H 0.57879 0.91888 0.9256 0.0
H74 H 0.62139 0.73957 0.9248 0.0
H75 H 0.61423 0.72875 0.85954 0.0
H76 H 0.95111 0.5764 0.14465 0.0
H77 H 0.92696 0.55884 0.08517 0.0
H78 H 0.85851 0.7343 0.0891 0.0
H79 H 0.88299 0.75213 0.14791 0.0
Tb80 Tb 0.32118 0.79434 0.50965 0.0
Tb81 Tb 0.17681 0.71256 0.50477 0.0
C82 C 0.14076 0.84004 0.52859 0.0
C83 C 0.4612 0.84521 0.54614 0.0
C84 C 0.51699 0.83082 0.60434 0.0
C85 C 0.50689 0.88531 0.59205 0.0
C86 C 0.47947 0.89239 0.56308 0.0
C87 C 0.4709 0.79075 0.55849 0.0
C88 C 0.49904 0.78364 0.58706 0.0
C89 C 0.4272 0.85296 0.51787 0.0
O90 O 0.21951 0.76472 0.57852 0.0
O91 O 0.15555 0.68676 0.56818 0.0
O92 O 0.30131 0.66572 0.47688 0.0
O93 O 0.3562 0.70813 0.51342 0.0
O94 O 0.04532 0.69052 0.5256 0.0
O95 O 0.16201 0.64702 0.47037 0.0
O96 O 0.23898 0.77082 0.44772 0.0
O97 O 0.37448 0.78457 0.43799 0.0
O98 O 0.22746 0.85027 0.50818 0.0
O99 O 0.1074 0.78882 0.54143 0.0
C100 C 0.17134 0.7178 0.59311 0.0
O101 O 0.45438 0.81613 0.48547 0.0
O102 O 0.34062 0.8627 0.54032 0.0
C103 C 0.35079 0.66467 0.49269 0.0
C104 C 0.04491 0.66392 0.46221 0.0
C105 C 0.01019 0.67976 0.39573 0.0
C106 C 0.01941 0.62503 0.40806 0.0
C107 C 0.03653 0.61726 0.44099 0.0
C108 C 0.03305 0.71852 0.4511 0.0
C109 C 0.01512 0.72632 0.41853 0.0
C110 C 0.07549 0.65541 0.49191 0.0
C111 C 0.32481 0.78483 0.42221 0.0
H112 H 0.52073 0.92243 0.60461 0.0
H113 H 0.47166 0.93474 0.55427 0.0
H114 H 0.45572 0.75364 0.54648 0.0
H115 H 0.50485 0.74115 0.59642 0.0
H116 H 0.01729 0.58819 0.39096 0.0
H117 H 0.04654 0.57481 0.44869 0.0
H118 H 0.04013 0.75528 0.46666 0.0
H119 H 0.00675 0.76903 0.41065 0.0
Tb120 Tb 0.80078 0.30268 0.53435 0.0
Tb121 Tb 0.68575 0.21891 0.5098 0.0
C122 C 0.64086 0.34428 0.53286 0.0
C123 C 0.90159 0.36733 0.5915 0.0
C124 C 0.94489 0.37711 0.65536 0.0
C125 C 0.91303 0.42394 0.64428 0.0
C126 C 0.89201 0.41909 0.61269 0.0
C127 C 0.93126 0.31996 0.60314 0.0
C128 C 0.95274 0.32483 0.63471 0.0
C129 C 0.88311 0.36484 0.55648 0.0
O130 O 0.67865 0.27384 0.59852 0.0
O131 O 0.64493 0.19141 0.57685 0.0
O132 O 0.81373 0.17971 0.48604 0.0
O133 O 0.83434 0.21574 0.53836 0.0
O134 O 0.57363 0.20875 0.50728 0.0
O135 O 0.67122 0.14208 0.48506 0.0
O136 O 0.76918 0.2728 0.4508 0.0
O137 O 0.88055 0.2979 0.46008 0.0
O138 O 0.72414 0.35591 0.51872 0.0
O139 O 0.60809 0.29313 0.54645 0.0
C140 C 0.63849 0.22413 0.60803 0.0
O141 O 0.92168 0.32463 0.52628 0.0
O142 O 0.7995 0.37284 0.57052 0.0
C143 C 0.84556 0.1754 0.51063 0.0
C144 C 0.60617 0.15386 0.44435 0.0
C145 C 0.61135 0.13895 0.3649 0.0
C146 C 0.61244 0.09204 0.38871 0.0
C147 C 0.60942 0.09945 0.42811 0.0
C148 C 0.60617 0.20094 0.4203 0.0
C149 C 0.6081 0.1935 0.38116 0.0
C150 C 0.60196 0.16042 0.48644 0.0
C151 C 0.85064 0.29204 0.43452 0.0
H152 H 0.90415 0.46459 0.66007 0.0
H153 H 0.86893 0.45616 0.60444 0.0
H154 H 0.93908 0.27939 0.58741 0.0
H155 H 0.97763 0.28793 0.64204 0.0
H156 H 0.61411 0.04947 0.37727 0.0
H157 H 0.60932 0.06254 0.44606 0.0
H158 H 0.60452 0.24352 0.43173 0.0
H159 H 0.60826 0.23045 0.36325 0.0
H160 H 0.65297 0.53257 0.02391 0.0
H161 H 0.5423 0.65924 0.98154 0.0
H162 H 0.4661 0.58468 0.96794 0.0
H163 H 0.68578 0.42119 0.94559 0.0
H164 H 0.6497 0.36519 0.98687 0.0
H165 H 0.70225 0.42785 0.99017 0.0
H166 H 0.56337 0.44373 0.07336 0.0
H167 H 0.5108 0.38098 0.07035 0.0
H168 H 0.4519 0.44752 0.08564 0.0
H169 H 0.4016 0.49835 0.95909 0.0
H170 H 0.33672 0.40517 0.96381 0.0
H171 H 0.47913 0.33279 0.01666 0.0
C172 C 0.61311 0.54434 0.01151 0.0
C173 C 0.60376 0.60161 1.0036 0.0
C174 C 0.55009 0.61566 0.98799 0.0
C175 C 0.50705 0.57359 0.97983 0.0
C176 C 0.51735 0.51763 0.98795 0.0
C177 C 0.56783 0.50275 1.00405 0.0
C178 C 0.56195 0.43957 0.013 0.0
C179 C 0.65549 0.41183 0.98205 0.0
C180 C 0.51946 0.42725 0.06359 0.0
C181 C 0.4995 0.42168 0.99988 0.0
C182 C 0.4763 0.46739 0.9847 0.0
C183 C 0.41912 0.46212 0.97091 0.0
C184 C 0.38281 0.40884 0.97362 0.0
C185 C 0.40264 0.36155 0.99067 0.0
C186 C 0.46279 0.36807 1.00342 0.0
H187 H 0.49079 0.64844 0.50104 0.0
H188 H 0.30304 0.55926 0.48376 0.0
H189 H 0.35826 0.46834 0.49194 0.0
H190 H 0.67613 0.54406 0.43759 0.0
H191 H 0.7119 0.55311 0.4746 0.0
H192 H 0.66081 0.61115 0.46475 0.0
H193 H 0.54087 0.61983 0.55209 0.0
H194 H 0.59051 0.56099 0.56196 0.0
H195 H 0.47227 0.55925 0.58409 0.0
H196 H 0.42096 0.38852 0.50947 0.0
H197 H 0.50353 0.32162 0.5251 0.0
H198 H 0.6592 0.46037 0.5264 0.0
C199 C 0.4624 0.6097 0.49829 0.0
C200 C 0.39264 0.61083 0.49178 0.0
C201 C 0.35705 0.55939 0.48835 0.0
C202 C 0.38758 0.50752 0.4932 0.0
C203 C 0.45481 0.50784 0.50063 0.0
C204 C 0.49341 0.55735 0.50216 0.0
C205 C 0.56505 0.54537 0.5104 0.0
C206 C 0.65904 0.56457 0.46939 0.0
C207 C 0.54067 0.573 0.55477 0.0
C208 C 0.55859 0.48145 0.51454 0.0
C209 C 0.49407 0.46098 0.50904 0.0
C210 C 0.47254 0.40383 0.51325 0.0
C211 C 0.51941 0.36623 0.52251 0.0
C212 C 0.58784 0.38582 0.52693 0.0
C213 C 0.60752 0.44426 0.52296 0.0
H214 H 0.15067 0.02352 0.03845 0.0
H215 H 0.96504 0.16032 0.06714 0.0
H216 H 0.8666 0.09406 0.06218 0.0
H217 H 0.13584 0.9521 0.95857 0.0
H218 H 0.13592 0.88161 0.97774 0.0
H219 H 0.18979 0.93843 0.98685 0.0
H220 H 0.09078 0.91708 0.07355 0.0
H221 H 0.03732 0.85961 0.06468 0.0
H222 H 0.96928 0.91489 0.10437 0.0
H223 H 0.80046 0.01735 0.04321 0.0
H224 H 0.75456 0.92952 0.02478 0.0
H225 H 0.97305 0.83931 0.0154 0.0
C226 C 0.08853 0.03923 0.04445 0.0
C227 C 0.06596 0.09718 0.05288 0.0
C228 C 0.98391 0.11617 0.06068 0.0
C229 C 0.92754 0.07889 0.05777 0.0
C230 C 0.9531 0.0225 0.04798 0.0
C231 C 0.03018 0.00224 0.04267 0.0
C232 C 0.04145 0.93943 0.03247 0.0
C233 C 0.13106 0.92721 0.98615 0.0
C234 C 0.03426 0.90577 0.07107 0.0
C235 C 0.96061 0.92828 0.03116 0.0
C236 C 0.91108 0.97699 0.03988 0.0
C237 C 0.83735 0.9786 0.03732 0.0
C238 C 0.81246 0.92877 0.02636 0.0
C239 C 0.86033 0.87798 0.0188 0.0
C240 C 0.93505 0.87766 0.02144 0.0
H241 H 0.9873 0.15348 0.51671 0.0
H242 H 0.77988 0.07335 0.51001 0.0
H243 H 0.82842 0.97974 0.51835 0.0
H244 H 0.1578 0.04694 0.44896 0.0
H245 H 0.20628 0.05059 0.48068 0.0
H246 H 0.15265 0.11187 0.47641 0.0
H247 H 0.0468 0.11812 0.56451 0.0
H248 H 0.0996 0.05652 0.56905 0.0
H249 H 0.97879 0.05771 0.59725 0.0
H250 H 0.89324 0.89626 0.53049 0.0
H251 H 0.98577 0.82432 0.53467 0.0
H252 H 0.16214 0.95584 0.52661 0.0
C253 C 0.95258 0.11605 0.51694 0.0
C254 C 0.88001 0.12024 0.51276 0.0
C255 C 0.83621 0.07072 0.51277 0.0
C256 C 0.86274 0.0175 0.51786 0.0
C257 C 0.93423 0.01458 0.52206 0.0
C258 C 0.97995 0.06221 0.52072 0.0
C259 C 0.05809 0.0464 0.52321 0.0
C260 C 0.14909 0.06505 0.47972 0.0
C261 C 0.045 0.07117 0.56606 0.0
C262 C 0.04852 0.98253 0.52638 0.0
C263 C 0.97547 0.96545 0.5265 0.0
C264 C 0.95104 0.90893 0.53012 0.0
C265 C 0.00387 0.86841 0.53274 0.0
C266 C 0.08128 0.8845 0.53089 0.0
C267 C 0.10347 0.9424 0.52798 0.0
H268 H 0.50375 0.18941 0.34345 0.0
H269 H 0.72271 0.06934 0.29281 0.0
H270 H 0.7236 0.05317 0.22475 0.0
H271 H 0.38479 0.11261 0.3083 0.0
H272 H 0.3498 0.17457 0.29307 0.0
H273 H 0.36957 0.17881 0.33653 0.0
H274 H 0.48468 0.26017 0.29214 0.0
H275 H 0.46528 0.25615 0.24849 0.0
H276 H 0.57854 0.24964 0.23357 0.0
H277 H 0.69974 0.04949 0.16244 0.0
H278 H 0.64901 0.05553 0.11217 0.0
H279 H 0.44122 0.17532 0.20476 0.0
C280 C 0.55261 0.16026 0.31773 0.0
C281 C 0.61344 0.13074 0.32333 0.0
C282 C 0.67522 0.09215 0.28933 0.0
C283 C 0.6765 0.08291 0.25047 0.0
C284 C 0.61524 0.11237 0.24615 0.0
C285 C 0.55418 0.15011 0.27893 0.0
C286 C 0.49315 0.17461 0.2669 0.0
C287 C 0.39344 0.15921 0.30336 0.0
C288 C 0.50623 0.23896 0.25985 0.0
C289 C 0.52913 0.14457 0.22235 0.0
C290 C 0.59999 0.10919 0.21083 0.0
C291 C 0.64395 0.07685 0.1713 0.0
C292 C 0.61415 0.08032 0.14305 0.0
C293 C 0.54054 0.1156 0.15443 0.0
C294 C 0.49822 0.14839 0.19462 0.0
H295 H 0.66372 0.73906 0.15659 0.0
H296 H 0.47506 0.83059 0.14155 0.0
H297 H 0.38383 0.85447 0.22366 0.0
H298 H 0.50762 0.67801 0.26217 0.0
H299 H 0.57572 0.68546 0.28355 0.0
H300 H 0.62944 0.68002 0.22324 0.0
H301 H 0.71417 0.77432 0.20992 0.0
H302 H 0.66105 0.77999 0.27028 0.0
H303 H 0.65092 0.83681 0.24 0.0
H304 H 0.30412 0.85705 0.30839 0.0
H305 H 0.24551 0.84322 0.38917 0.0
H306 H 0.49238 0.75617 0.34779 0.0
C307 C 0.60342 0.76443 0.17053 0.0
C308 C 0.57542 0.78248 0.1431 0.0
C309 C 0.4972 0.8163 0.16221 0.0
C310 C 0.44531 0.83012 0.20866 0.0
C311 C 0.47418 0.8109 0.23494 0.0
C312 C 0.55217 0.77949 0.2164 0.0
C313 C 0.5671 0.76243 0.25212 0.0
C314 C 0.57007 0.69765 0.25546 0.0
C315 C 0.65342 0.79006 0.24251 0.0
C316 C 0.48304 0.78702 0.29421 0.0
C317 C 0.43055 0.81505 0.28351 0.0
C318 C 0.34555 0.83647 0.31709 0.0
C319 C 0.31278 0.82831 0.36278 0.0
C320 C 0.36537 0.79956 0.37434 0.0
C321 C 0.45225 0.77977 0.33964 0.0
H322 H 0.49504 0.87695 0.83037 0.0
H323 H 0.70004 0.74659 0.78118 0.0
H324 H 0.70444 0.73717 0.7119 0.0
H325 H 0.37575 0.81683 0.78909 0.0
H326 H 0.35378 0.88359 0.77301 0.0
H327 H 0.36697 0.88043 0.81882 0.0
H328 H 0.49485 0.95558 0.77784 0.0
H329 H 0.48213 0.95897 0.73185 0.0
H330 H 0.59106 0.94338 0.7201 0.0
H331 H 0.68453 0.74032 0.64839 0.0
H332 H 0.6422 0.7565 0.59519 0.0
H333 H 0.45412 0.8868 0.68425 0.0
C334 C 0.54177 0.84686 0.80488 0.0
C335 C 0.59703 0.81245 0.81165 0.0
C336 C 0.65588 0.77292 0.77748 0.0
C337 C 0.65946 0.76752 0.7377 0.0
C338 C 0.60421 0.80212 0.73223 0.0
C339 C 0.5467 0.84117 0.76479 0.0
C340 C 0.49396 0.873 0.75069 0.0
C341 C 0.39156 0.86282 0.78494 0.0
C342 C 0.5169 0.93648 0.74476 0.0
C343 C 0.53016 0.84529 0.7053 0.0
C344 C 0.59375 0.80455 0.69529 0.0
C345 C 0.63504 0.77223 0.65581 0.0
C346 C 0.61027 0.78154 0.6259 0.0
C347 C 0.545 0.82293 0.63551 0.0
C348 C 0.50512 0.85541 0.67565 0.0
H349 H 0.51955 0.28401 0.68428 0.0
H350 H 0.64591 0.1197 0.63796 0.0
H351 H 0.57571 0.09021 0.7181 0.0
H352 H 0.5433 0.30148 0.77268 0.0
H353 H 0.43455 0.33398 0.8116 0.0
H354 H 0.4901 0.34057 0.75113 0.0
H355 H 0.34927 0.29801 0.75924 0.0
H356 H 0.29313 0.29258 0.81988 0.0
H357 H 0.30464 0.23088 0.78772 0.0
H358 H 0.50791 0.08465 0.80298 0.0
H359 H 0.42911 0.09823 0.8863 0.0
H360 H 0.33529 0.26213 0.8762 0.0
C361 C 0.53099 0.24152 0.69121 0.0
C362 C 0.58777 0.20398 0.6554 0.0
C363 C 0.60168 0.1487 0.6653 0.0
C364 C 0.56257 0.1318 0.71056 0.0
C365 C 0.50813 0.17033 0.74526 0.0
C366 C 0.49045 0.22353 0.73609 0.0
C367 C 0.42983 0.25712 0.77923 0.0
C368 C 0.47732 0.31147 0.7786 0.0
C369 C 0.33882 0.27038 0.78696 0.0
C370 C 0.41814 0.21522 0.81405 0.0
C371 C 0.46451 0.16559 0.79395 0.0
C372 C 0.46965 0.12278 0.81921 0.0
C373 C 0.42538 0.13086 0.86626 0.0
C374 C 0.37545 0.18072 0.88729 0.0
C375 C 0.37157 0.22308 0.86087 0.0
H376 H 0.86733 0.60461 0.22796 0.0
H377 H 0.01764 0.75393 0.14977 0.0
H378 H 0.05311 0.77473 0.20488 0.0
H379 H 0.77204 0.66595 0.33941 0.0
H380 H 0.78079 0.6017 0.36364 0.0
H381 H 0.76567 0.59833 0.31848 0.0
H382 H 0.91013 0.53727 0.27056 0.0
H383 H 0.92545 0.54018 0.31565 0.0
H384 H 0.01533 0.56297 0.25892 0.0
H385 H 0.07757 0.77765 0.26623 0.0
H386 H 0.08715 0.76385 0.33102 0.0
H387 H 0.91582 0.61469 0.37221 0.0
C388 C 0.90789 0.64156 0.22245 0.0
C389 C 0.93955 0.67776 0.18459 0.0
C390 C 0.99174 0.72601 0.17877 0.0
C391 C 0.01258 0.73805 0.20979 0.0
C392 C 0.98031 0.70167 0.24671 0.0
C393 C 0.92872 0.65455 0.2534 0.0
C394 C 0.90243 0.62258 0.29612 0.0
C395 C 0.79909 0.62214 0.3315 0.0
C396 C 0.94065 0.56218 0.2846 0.0
C397 C 0.9486 0.65865 0.31187 0.0
C398 C 0.99293 0.70406 0.28286 0.0
C399 C 0.04219 0.74265 0.28954 0.0
C400 C 0.04653 0.73465 0.3268 0.0
C401 C 1.00142 0.68854 0.35734 0.0
C402 C 0.95154 0.65023 0.34958 0.0
H403 H 0.8071 0.29341 0.37329 0.0
H404 H 0.03263 0.31601 0.38347 0.0
H405 H 0.13689 0.32348 0.29968 0.0
H406 H 0.91436 0.20527 0.28108 0.0
H407 H 0.86331 0.23336 0.25439 0.0
H408 H 0.80498 0.23866 0.31503 0.0
H409 H 0.79381 0.3472 0.31 0.0
H410 H 0.85224 0.34234 0.24914 0.0
H411 H 0.89519 0.38818 0.27244 0.0
H412 H 0.21841 0.31262 0.21581 0.0
H413 H 0.27103 0.28913 0.13722 0.0
H414 H 0.99303 0.27786 0.18072 0.0
C415 C 0.87812 0.30127 0.35808 0.0
C416 C 0.9117 0.30413 0.38504 0.0
C417 C 0.0052 0.31397 0.36363 0.0
C418 C 0.06494 0.31834 0.31603 0.0
C419 C 0.02988 0.31364 0.29045 0.0
C420 C 0.93845 0.30606 0.31073 0.0
C421 C 0.91885 0.29788 0.2755 0.0
C422 C 0.87272 0.24038 0.28188 0.0
C423 C 0.86165 0.34683 0.27685 0.0
C424 C 0.01412 0.29954 0.23218 0.0
C425 C 0.07706 0.30919 0.24161 0.0
C426 C 0.16984 0.30664 0.20783 0.0
C427 C 0.19908 0.29318 0.16344 0.0
C428 C 0.13581 0.2831 0.15321 0.0
C429 C 0.04234 0.28733 0.1877 0.0
H430 H 0.91945 0.30152 0.72089 0.0
H431 H 0.03179 0.46711 0.66252 0.0
H432 H 0.07263 0.47952 0.71638 0.0
H433 H 0.82686 0.33684 0.83684 0.0
H434 H 0.85489 0.26998 0.84982 0.0
H435 H 0.83379 0.27402 0.80678 0.0
H436 H 0.99068 0.2295 0.74805 0.0
H437 H 0.01218 0.22533 0.79094 0.0
H438 H 0.0909 0.26186 0.738 0.0
H439 H 0.0993 0.47496 0.77762 0.0
H440 H 0.11325 0.45234 0.84037 0.0
H441 H 0.98857 0.28868 0.85753 0.0
C442 C 0.95347 0.34017 0.71903 0.0
C443 C 0.9715 0.3835 0.68747 0.0
C444 C 0.01531 0.43367 0.68682 0.0
C445 C 0.03951 0.441 0.71712 0.0
C446 C 0.02019 0.39769 0.74788 0.0
C447 C 0.97854 0.34814 0.74896 0.0
C448 C 0.96541 0.30822 0.78548 0.0
C449 C 0.86423 0.2966 0.82188 0.0
C450 C 0.01794 0.25296 0.76434 0.0
C451 C 0.00631 0.34303 0.80466 0.0
C452 C 0.03711 0.39463 0.78262 0.0
C453 C 0.07568 0.43458 0.79501 0.0
C454 C 0.08293 0.42148 0.83084 0.0
C455 C 0.05226 0.36873 0.85384 0.0
C456 C 0.01377 0.32905 0.84026 0.0
H457 H 0.99604 0.71122 0.66712 0.0
H458 H 0.27291 0.68691 0.62229 0.0
H459 H 0.22007 0.66949 0.702 0.0
H460 H 0.93493 0.79154 0.76042 0.0
H461 H 0.82048 0.76557 0.79767 0.0
H462 H 0.87696 0.7648 0.73697 0.0
H463 H 0.84772 0.6572 0.73968 0.0
H464 H 0.78989 0.65765 0.8006 0.0
H465 H 0.8836 0.61032 0.76593 0.0
H466 H 0.13921 0.66651 0.78679 0.0
H467 H 0.03686 0.68023 0.87024 0.0
H468 H 0.81367 0.70994 0.85925 0.0
C469 C 0.0447 0.70003 0.6742 0.0
C470 C 0.13792 0.69885 0.63908 0.0
C471 C 0.20092 0.68681 0.64916 0.0
C472 C 0.17154 0.67684 0.69416 0.0
C473 C 0.07907 0.6797 0.72853 0.0
C474 C 0.01648 0.69099 0.71909 0.0
C475 C 0.92269 0.69903 0.76243 0.0
C476 C 0.88671 0.75876 0.76447 0.0
C477 C 0.85713 0.65329 0.76745 0.0
C478 C 0.94268 0.69154 0.79752 0.0
C479 C 0.03288 0.67974 0.77745 0.0
C480 C 0.06808 0.6749 0.80301 0.0
C481 C 0.00957 0.68291 0.85034 0.0
C482 C 0.91728 0.69611 0.87137 0.0
C483 C 0.8837 0.69954 0.84444 0.0
loop_
_geom_bond_atom_site_label_1
_geom_bond_atom_site_label_2
_geom_bond_distance
_geom_bond_site_symmetry_2
_ccdc_geom_bond_type
Tb0 C9 2.764 1_554 S
Tb0 O10 2.325 1_554 S
Tb0 O13 2.303 . S
Tb0 O17 2.322 . S
Tb0 O18 2.349 1_554 S
Tb0 O21 2.415 1_554 S
Tb0 O22 2.399 1_554 S
Tb1 O11 2.322 1_554 S
Tb1 O12 2.349 . S
Tb1 O14 2.415 . S
Tb1 O15 2.399 . S
Tb1 O16 2.325 . S
Tb1 O19 2.303 . S
Tb1 C30 2.764 . S
C2 O18 1.254 1_554 S
C2 O19 1.258 . S
C3 C6 1.358 . S
C3 C7 1.332 . S
C3 C9 1.504 . S
C4 C5 1.373 . S
C4 C8 1.308 . S
C5 C4 1.373 . S
C5 C6 1.429 . S
C5 H32 0.932 . S
C6 C3 1.358 . S
C6 C5 1.429 . S
C6 H33 0.930 . S
C7 C3 1.332 . S
C7 C8 1.394 . S
C7 H34 0.932 . S
C8 C4 1.308 . S
C8 C7 1.394 . S
C8 H35 0.929 . S
C9 Tb0 2.764 1_556 S
C9 C3 1.504 . S
C9 O21 1.239 . S
C9 O22 1.263 . S
O10 Tb0 2.325 1_556 S
O10 C20 1.236 . S
O11 Tb1 2.322 1_556 S
O11 C20 1.257 . S
O12 Tb1 2.349 . S
O12 C23 1.261 . S
O13 Tb0 2.303 . S
O13 C23 1.257 . S
O14 Tb1 2.415 . S
O14 C30 1.239 . S
O15 Tb1 2.399 . S
O15 C30 1.263 . S
O16 Tb1 2.325 . S
O16 C31 1.236 . S
O17 Tb0 2.322 . S
O17 C31 1.257 . S
O18 Tb0 2.349 1_556 S
O18 C2 1.254 1_556 S
O19 Tb1 2.303 . S
O19 C2 1.258 . S
C20 O10 1.236 . S
C20 O11 1.257 . S
O21 Tb0 2.415 1_556 S
O21 C9 1.239 . S
O22 Tb0 2.399 1_556 S
O22 C9 1.263 . S
C23 O12 1.261 . S
C23 O13 1.257 . S
C24 C27 1.358 . S
C24 C28 1.332 . S
C24 C30 1.504 . S
C25 C26 1.373 . S
C25 C29 1.308 . S
C26 C25 1.373 . S
C26 C27 1.429 . S
C26 H36 0.932 . S
C27 C24 1.358 . S
C27 C26 1.429 . S
C27 H37 0.930 . S
C28 C24 1.332 . S
C28 C29 1.394 . S
C28 H38 0.932 . S
C29 C25 1.308 . S
C29 C28 1.394 . S
C29 H39 0.929 . S
C30 Tb1 2.764 . S
C30 O14 1.239 . S
C30 O15 1.263 . S
C30 C24 1.504 . S
C31 O16 1.236 . S
C31 O17 1.257 . S
H32 C5 0.932 . S
H33 C6 0.930 . S
H34 C7 0.932 . S
H35 C8 0.929 . S
H36 C26 0.932 . S
H37 C27 0.930 . S
H38 C28 0.932 . S
H39 C29 0.929 . S
Tb40 C49 2.764 1_554 S
Tb40 O50 2.325 1_554 S
Tb40 O53 2.303 . S
Tb40 O57 2.322 . S
Tb40 O58 2.349 1_554 S
Tb40 O61 2.415 1_554 S
Tb40 O62 2.399 1_554 S
Tb41 O51 2.322 1_554 S
Tb41 O52 2.349 . S
Tb41 O54 2.415 . S
Tb41 O55 2.399 . S
Tb41 O56 2.325 . S
Tb41 O59 2.303 . S
Tb41 C70 2.764 . S
C42 O58 1.254 1_554 S
C42 O59 1.258 . S
C43 C46 1.358 . S
C43 C47 1.332 . S
C43 C49 1.504 . S
C44 C45 1.373 . S
C44 C48 1.308 . S
C45 C44 1.373 . S
C45 C46 1.429 . S
C45 H72 0.932 . S
C46 C43 1.358 . S
C46 C45 1.429 . S
C46 H73 0.930 . S
C47 C43 1.332 . S
C47 C48 1.394 . S
C47 H74 0.932 . S
C48 C44 1.308 . S
C48 C47 1.394 . S
C48 H75 0.929 . S
C49 Tb40 2.764 1_556 S
C49 C43 1.504 . S
C49 O61 1.239 . S
C49 O62 1.263 . S
O50 Tb40 2.325 1_556 S
O50 C60 1.236 . S
O51 Tb41 2.322 1_556 S
O51 C60 1.257 . S
O52 Tb41 2.349 . S
O52 C63 1.261 . S
O53 Tb40 2.303 . S
O53 C63 1.257 . S
O54 Tb41 2.415 . S
O54 C70 1.239 . S
O55 Tb41 2.399 . S
O55 C70 1.263 . S
O56 Tb41 2.325 . S
O56 C71 1.236 . S
O57 Tb40 2.322 . S
O57 C71 1.257 . S
O58 Tb40 2.349 1_556 S
O58 C42 1.254 1_556 S
O59 Tb41 2.303 . S
O59 C42 1.258 . S
C60 O50 1.236 . S
C60 O51 1.257 . S
O61 Tb40 2.415 1_556 S
O61 C49 1.239 . S
O62 Tb40 2.399 1_556 S
O62 C49 1.263 . S
C63 O52 1.261 . S
C63 O53 1.257 . S
C64 C67 1.358 . S
C64 C68 1.332 . S
C64 C70 1.504 . S
C65 C66 1.373 . S
C65 C69 1.308 . S
C66 C65 1.373 . S
C66 C67 1.429 . S
C66 H76 0.932 . S
C67 C64 1.358 . S
C67 C66 1.429 . S
C67 H77 0.930 . S
C68 C64 1.332 . S
C68 C69 1.394 . S
C68 H78 0.932 . S
C69 C65 1.308 . S
C69 C68 1.394 . S
C69 H79 0.929 . S
C70 Tb41 2.764 . S
C70 O54 1.239 . S
C70 O55 1.263 . S
C70 C64 1.504 . S
C71 O56 1.236 . S
C71 O57 1.257 . S
H72 C45 0.932 . S
H73 C46 0.930 . S
H74 C47 0.932 . S
H75 C48 0.929 . S
H76 C66 0.932 . S
H77 C67 0.930 . S
H78 C68 0.932 . S
H79 C69 0.929 . S
Tb80 C89 2.764 . S
Tb80 O90 2.325 . S
Tb80 O93 2.303 . S
Tb80 O97 2.322 . S
Tb80 O98 2.349 . S
Tb80 O101 2.415 . S
Tb80 O102 2.399 . S
Tb81 O91 2.322 . S
Tb81 O92 2.349 . S
Tb81 O94 2.415 . S
Tb81 O95 2.399 . S
Tb81 O96 2.325 . S
Tb81 O99 2.303 . S
Tb81 C110 2.764 . S
C82 O98 1.261 . S
C82 O99 1.257 . S
C83 C86 1.358 . S
C83 C87 1.332 . S
C83 C89 1.504 . S
C84 C85 1.373 . S
C84 C88 1.308 . S
C85 C84 1.373 . S
C85 C86 1.429 . S
C85 H112 0.932 . S
C86 C83 1.358 . S
C86 C85 1.429 . S
C86 H113 0.930 . S
C87 C83 1.332 . S
C87 C88 1.394 . S
C87 H114 0.932 . S
C88 C84 1.308 . S
C88 C87 1.394 . S
C88 H115 0.929 . S
C89 Tb80 2.764 . S
C89 C83 1.504 . S
C89 O101 1.239 . S
C89 O102 1.263 . S
O90 Tb80 2.325 . S
O90 C100 1.236 . S
O91 Tb81 2.322 . S
O91 C100 1.257 . S
O92 Tb81 2.349 . S
O92 C103 1.261 . S
O93 Tb80 2.303 . S
O93 C103 1.257 . S
O94 Tb81 2.415 . S
O94 C110 1.239 . S
O95 Tb81 2.399 . S
O95 C110 1.263 . S
O96 Tb81 2.325 . S
O96 C111 1.236 . S
O97 Tb80 2.322 . S
O97 C111 1.257 . S
O98 Tb80 2.349 . S
O98 C82 1.261 . S
O99 Tb81 2.303 . S
O99 C82 1.257 . S
C100 O90 1.236 . S
C100 O91 1.257 . S
O101 Tb80 2.415 . S
O101 C89 1.239 . S
O102 Tb80 2.399 . S
O102 C89 1.263 . S
C103 O92 1.261 . S
C103 O93 1.257 . S
C104 C107 1.358 . S
C104 C108 1.332 . S
C104 C110 1.504 . S
C105 C106 1.373 . S
C105 C109 1.308 . S
C106 C105 1.373 . S
C106 C107 1.429 . S
C106 H116 0.932 . S
C107 C104 1.358 . S
C107 C106 1.429 . S
C107 H117 0.930 . S
C108 C104 1.332 . S
C108 C109 1.394 . S
C108 H118 0.932 . S
C109 C105 1.308 . S
C109 C108 1.394 . S
C109 H119 0.929 . S
C110 Tb81 2.764 . S
C110 O94 1.239 . S
C110 O95 1.263 . S
C110 C104 1.504 . S
C111 O96 1.236 . S
C111 O97 1.257 . S
H112 C85 0.932 . S
H113 C86 0.930 . S
H114 C87 0.932 . S
H115 C88 0.929 . S
H116 C106 0.932 . S
H117 C107 0.930 . S
H118 C108 0.932 . S
H119 C109 0.929 . S
Tb120 C129 2.764 . S
Tb120 O130 2.325 . S
Tb120 O133 2.303 . S
Tb120 O137 2.322 . S
Tb120 O138 2.349 . S
Tb120 O141 2.415 . S
Tb120 O142 2.399 . S
Tb121 O131 2.322 . S
Tb121 O132 2.349 . S
Tb121 O134 2.415 . S
Tb121 O135 2.399 . S
Tb121 O136 2.325 . S
Tb121 O139 2.303 . S
Tb121 C150 2.764 . S
C122 O138 1.261 . S
C122 O139 1.257 . S
C123 C126 1.358 . S
C123 C127 1.332 . S
C123 C129 1.504 . S
C124 C125 1.373 . S
C124 C128 1.308 . S
C125 C124 1.373 . S
C125 C126 1.429 . S
C125 H152 0.932 . S
C126 C123 1.358 . S
C126 C125 1.429 . S
C126 H153 0.930 . S
C127 C123 1.332 . S
C127 C128 1.394 . S
C127 H154 0.932 . S
C128 C124 1.308 . S
C128 C127 1.394 . S
C128 H155 0.929 . S
C129 Tb120 2.764 . S
C129 C123 1.504 . S
C129 O141 1.239 . S
C129 O142 1.263 . S
O130 Tb120 2.325 . S
O130 C140 1.236 . S
O131 Tb121 2.322 . S
O131 C140 1.257 . S
O132 Tb121 2.349 . S
O132 C143 1.261 . S
O133 Tb120 2.303 . S
O133 C143 1.257 . S
O134 Tb121 2.415 . S
O134 C150 1.239 . S
O135 Tb121 2.399 . S
O135 C150 1.263 . S
O136 Tb121 2.325 . S
O136 C151 1.236 . S
O137 Tb120 2.322 . S
O137 C151 1.257 . S
O138 Tb120 2.349 . S
O138 C122 1.261 . S
O139 Tb121 2.303 . S
O139 C122 1.257 . S
C140 O130 1.236 . S
C140 O131 1.257 . S
O141 Tb120 2.415 . S
O141 C129 1.239 . S
O142 Tb120 2.399 . S
O142 C129 1.263 . S
C143 O132 1.261 . S
C143 O133 1.257 . S
C144 C147 1.358 . S
C144 C148 1.332 . S
C144 C150 1.504 . S
C145 C146 1.373 . S
C145 C149 1.308 . S
C146 C145 1.373 . S
C146 C147 1.429 . S
C146 H156 0.932 . S
C147 C144 1.358 . S
C147 C146 1.429 . S
C147 H157 0.930 . S
C148 C144 1.332 . S
C148 C149 1.394 . S
C148 H158 0.932 . S
C149 C145 1.308 . S
C149 C148 1.394 . S
C149 H159 0.929 . S
C150 Tb121 2.764 . S
C150 O134 1.239 . S
C150 O135 1.263 . S
C150 C144 1.504 . S
C151 O136 1.236 . S
C151 O137 1.257 . S
H152 C125 0.932 . S
H153 C126 0.930 . S
H154 C127 0.932 . S
H155 C128 0.929 . S
H156 C146 0.932 . S
H157 C147 0.930 . S
H158 C148 0.932 . S
H159 C149 0.929 . S
H160 C172 0.930 . S
H161 C174 0.930 . S
H162 C175 0.930 . S
H163 C179 0.959 . S
H164 C179 0.959 . S
H165 C179 0.961 . S
H166 C180 0.960 . S
H167 C180 0.961 . S
H168 C180 0.959 . S
H169 C183 0.929 . S
H170 C184 0.931 . S
H171 C186 0.930 . S
C172 H160 0.930 . S
C172 C173 1.399 . S
C172 C177 1.399 . S
C173 C172 1.399 . S
C173 C174 1.376 1_554 S
C174 H161 0.930 . S
C174 C173 1.376 1_556 S
C174 C175 1.388 . S
C175 H162 0.930 . S
C175 C174 1.388 . S
C175 C176 1.390 . S
C176 C175 1.390 . S
C176 C177 1.394 1_556 S
C176 C182 1.465 . S
C177 C172 1.399 . S
C177 C176 1.394 1_554 S
C177 C178 1.516 . S
C178 C177 1.516 . S
C178 C179 1.502 . S
C178 C180 1.561 . S
C178 C181 1.526 . S
C179 H163 0.959 . S
C179 H164 0.959 . S
C179 H165 0.961 . S
C179 C178 1.502 . S
C180 H166 0.960 . S
C180 H167 0.961 . S
C180 H168 0.959 . S
C180 C178 1.561 . S
C181 C178 1.526 . S
C181 C182 1.396 1_554 S
C181 C186 1.390 . S
C182 C176 1.465 . S
C182 C181 1.396 1_556 S
C182 C183 1.399 . S
C183 H169 0.929 . S
C183 C182 1.399 . S
C183 C184 1.385 . S
C184 H170 0.931 . S
C184 C183 1.385 . S
C184 C185 1.405 . S
C185 C184 1.405 . S
C185 C186 1.365 1_556 S
C186 H171 0.930 . S
C186 C181 1.390 . S
C186 C185 1.365 1_554 S
H187 C199 0.930 . S
H188 C201 0.930 . S
H189 C202 0.930 . S
H190 C206 0.959 . S
H191 C206 0.959 . S
H192 C206 0.961 . S
H193 C207 0.960 . S
H194 C207 0.961 . S
H195 C207 0.959 . S
H196 C210 0.929 . S
H197 C211 0.931 . S
H198 C213 0.930 . S
C199 H187 0.930 . S
C199 C200 1.399 . S
C199 C204 1.399 . S
C200 C199 1.399 . S
C200 C201 1.376 . S
C201 H188 0.930 . S
C201 C200 1.376 . S
C201 C202 1.388 . S
C202 H189 0.930 . S
C202 C201 1.388 . S
C202 C203 1.390 . S
C203 C202 1.390 . S
C203 C204 1.394 . S
C203 C209 1.465 . S
C204 C199 1.399 . S
C204 C203 1.394 . S
C204 C205 1.516 . S
C205 C204 1.516 . S
C205 C206 1.502 . S
C205 C207 1.561 . S
C205 C208 1.526 . S
C206 H190 0.959 . S
C206 H191 0.959 . S
C206 H192 0.961 . S
C206 C205 1.502 . S
C207 H193 0.960 . S
C207 H194 0.961 . S
C207 H195 0.959 . S
C207 C205 1.561 . S
C208 C205 1.526 . S
C208 C209 1.396 . S
C208 C213 1.390 . S
C209 C203 1.465 . S
C209 C208 1.396 . S
C209 C210 1.399 . S
C210 H196 0.929 . S
C210 C209 1.399 . S
C210 C211 1.385 . S
C211 H197 0.931 . S
C211 C210 1.385 . S
C211 C212 1.389 . S
C212 C211 1.389 . S
C212 C213 1.387 . S
C213 H198 0.930 . S
C213 C208 1.390 . S
C213 C212 1.387 . S
H214 C226 0.930 . S
H215 C228 0.930 . S
H216 C229 0.930 . S
H217 C233 0.959 1_556 S
H218 C233 0.959 . S
H219 C233 0.961 . S
H220 C234 0.960 . S
H221 C234 0.961 . S
H222 C234 0.959 . S
H223 C237 0.943 . S
H224 C238 0.931 . S
H225 C240 0.930 . S
C226 H214 0.930 . S
C226 C227 1.399 . S
C226 C231 1.399 . S
C227 C226 1.399 . S
C227 C228 1.376 1_554 S
C228 H215 0.930 . S
C228 C227 1.376 1_556 S
C228 C229 1.388 . S
C229 H216 0.930 . S
C229 C228 1.388 . S
C229 C230 1.390 . S
C230 C229 1.390 . S
C230 C231 1.394 1_556 S
C230 C236 1.451 1_445 S
C231 C226 1.399 . S
C231 C230 1.394 1_554 S
C231 C232 1.516 1_545 S
C232 C231 1.516 1_565 S
C232 C233 1.502 . S
C232 C234 1.561 1_455 S
C232 C235 1.526 1_455 S
C233 H217 0.959 1_554 S
C233 H218 0.959 . S
C233 H219 0.961 . S
C233 C232 1.502 . S
C234 H220 0.960 . S
C234 H221 0.961 . S
C234 H222 0.959 . S
C234 C232 1.561 1_655 S
C235 C232 1.526 1_655 S
C235 C236 1.413 1_554 S
C235 C240 1.390 . S
C236 C230 1.451 1_665 S
C236 C235 1.413 1_556 S
C236 C237 1.398 1_565 S
C237 H223 0.943 . S
C237 C236 1.398 1_545 S
C237 C238 1.372 1_545 S
C238 H224 0.931 . S
C238 C237 1.372 1_565 S
C238 C239 1.389 1_556 S
C239 C238 1.389 1_554 S
C239 C240 1.387 . S
C240 H225 0.930 . S
C240 C235 1.390 . S
C240 C239 1.387 . S
H241 C253 0.930 . S
H242 C255 0.930 . S
H243 C256 0.930 . S
H244 C260 0.959 . S
H245 C260 0.959 . S
H246 C260 0.961 . S
H247 C261 0.960 . S
H248 C261 0.961 . S
H249 C261 0.959 1_655 S
H250 C264 0.929 . S
H251 C265 0.931 . S
H252 C267 0.930 . S
C253 H241 0.930 . S
C253 C254 1.399 . S
C253 C258 1.399 . S
C254 C253 1.399 . S
C254 C255 1.376 . S
C255 H242 0.930 . S
C255 C254 1.376 . S
C255 C256 1.388 1_545 S
C256 H243 0.930 . S
C256 C255 1.388 1_565 S
C256 C257 1.390 1_565 S
C257 C256 1.390 1_545 S
C257 C258 1.394 . S
C257 C263 1.465 1_545 S
C258 C253 1.399 . S
C258 C257 1.394 . S
C258 C259 1.516 1_655 S
C259 C258 1.516 1_455 S
C259 C260 1.502 . S
C259 C261 1.561 . S
C259 C262 1.526 1_545 S
C260 H244 0.959 . S
C260 H245 0.959 . S
C260 H246 0.961 . S
C260 C259 1.502 . S
C261 H247 0.960 . S
C261 H248 0.961 . S
C261 H249 0.959 1_455 S
C261 C259 1.561 . S
C262 C259 1.526 1_565 S
C262 C263 1.396 1_455 S
C262 C267 1.390 . S
C263 C257 1.465 1_565 S
C263 C262 1.396 1_655 S
C263 C264 1.399 . S
C264 H250 0.929 . S
C264 C263 1.399 . S
C264 C265 1.385 1_655 S
C265 H251 0.931 . S
C265 C264 1.385 1_455 S
C265 C266 1.389 . S
C266 C265 1.389 . S
C266 C267 1.387 . S
C267 H252 0.930 . S
C267 C262 1.390 . S
C267 C266 1.387 . S
H268 C280 0.930 . S
H269 C282 0.930 . S
H270 C283 0.930 . S
H271 C287 0.959 . S
H272 C287 0.959 . S
H273 C287 0.961 . S
H274 C288 0.960 . S
H275 C288 0.961 . S
H276 C288 0.959 . S
H277 C291 0.929 . S
H278 C292 0.931 . S
H279 C294 0.930 . S
C280 H268 0.930 . S
C280 C281 1.399 . S
C280 C285 1.399 . S
C281 C280 1.399 . S
C281 C282 1.376 . S
C282 H269 0.930 . S
C282 C281 1.376 . S
C282 C283 1.388 . S
C283 H270 0.930 . S
C283 C282 1.388 . S
C283 C284 1.390 . S
C284 C283 1.390 . S
C284 C285 1.394 . S
C284 C290 1.465 . S
C285 C280 1.399 . S
C285 C284 1.394 . S
C285 C286 1.516 . S
C286 C285 1.516 . S
C286 C287 1.502 . S
C286 C288 1.561 . S
C286 C289 1.526 . S
C287 H271 0.959 . S
C287 H272 0.959 . S
C287 H273 0.961 . S
C287 C286 1.502 . S
C288 H274 0.960 . S
C288 H275 0.961 . S
C288 H276 0.959 . S
C288 C286 1.561 . S
C289 C286 1.526 . S
C289 C290 1.396 . S
C289 C294 1.390 . S
C290 C284 1.465 . S
C290 C289 1.396 . S
C290 C291 1.399 . S
C291 H277 0.929 . S
C291 C290 1.399 . S
C291 C292 1.385 . S
C292 H278 0.931 . S
C292 C291 1.385 . S
C292 C293 1.389 . S
C293 C292 1.389 . S
C293 C294 1.387 . S
C294 H279 0.930 . S
C294 C289 1.390 . S
C294 C293 1.387 . S
H295 C307 0.930 . S
H296 C309 0.930 . S
H297 C310 0.930 . S
H298 C314 0.959 . S
H299 C314 0.959 . S
H300 C314 0.961 . S
H301 C315 0.960 . S
H302 C315 0.961 . S
H303 C315 0.959 . S
H304 C318 0.929 . S
H305 C319 0.931 . S
H306 C321 0.930 . S
C307 H295 0.930 . S
C307 C308 1.399 . S
C307 C312 1.399 . S
C308 C307 1.399 . S
C308 C309 1.376 . S
C309 H296 0.930 . S
C309 C308 1.376 . S
C309 C310 1.388 . S
C310 H297 0.930 . S
C310 C309 1.388 . S
C310 C311 1.390 . S
C311 C310 1.390 . S
C311 C312 1.394 . S
C311 C317 1.465 . S
C312 C307 1.399 . S
C312 C311 1.394 . S
C312 C313 1.516 . S
C313 C312 1.516 . S
C313 C314 1.502 . S
C313 C315 1.561 . S
C313 C316 1.526 . S
C314 H298 0.959 . S
C314 H299 0.959 . S
C314 H300 0.961 . S
C314 C313 1.502 . S
C315 H301 0.960 . S
C315 H302 0.961 . S
C315 H303 0.959 . S
C315 C313 1.561 . S
C316 C313 1.526 . S
C316 C317 1.396 . S
C316 C321 1.390 . S
C317 C311 1.465 . S
C317 C316 1.396 . S
C317 C318 1.399 . S
C318 H304 0.929 . S
C318 C317 1.399 . S
C318 C319 1.385 . S
C319 H305 0.931 . S
C319 C318 1.385 . S
C319 C320 1.389 . S
C320 C319 1.389 . S
C320 C321 1.387 . S
C321 H306 0.930 . S
C321 C316 1.390 . S
C321 C320 1.387 . S
H322 C334 0.930 . S
H323 C336 0.930 . S
H324 C337 0.930 . S
H325 C341 0.959 . S
H326 C341 0.959 . S
H327 C341 0.961 . S
H328 C342 0.960 . S
H329 C342 0.961 . S
H330 C342 0.959 . S
H331 C345 0.929 . S
H332 C346 0.931 . S
H333 C348 0.930 . S
C334 H322 0.930 . S
C334 C335 1.399 . S
C334 C339 1.399 . S
C335 C334 1.399 . S
C335 C336 1.376 . S
C336 H323 0.930 . S
C336 C335 1.376 . S
C336 C337 1.388 . S
C337 H324 0.930 . S
C337 C336 1.388 . S
C337 C338 1.390 . S
C338 C337 1.390 . S
C338 C339 1.394 . S
C338 C344 1.465 . S
C339 C334 1.399 . S
C339 C338 1.394 . S
C339 C340 1.516 . S
C340 C339 1.516 . S
C340 C341 1.502 . S
C340 C342 1.561 . S
C340 C343 1.526 . S
C341 H325 0.959 . S
C341 H326 0.959 . S
C341 H327 0.961 . S
C341 C340 1.502 . S
C342 H328 0.960 . S
C342 H329 0.961 . S
C342 H330 0.959 . S
C342 C340 1.561 . S
C343 C340 1.526 . S
C343 C344 1.396 . S
C343 C348 1.390 . S
C344 C338 1.465 . S
C344 C343 1.396 . S
C344 C345 1.399 . S
C345 H331 0.929 . S
C345 C344 1.399 . S
C345 C346 1.385 . S
C346 H332 0.931 . S
C346 C345 1.385 . S
C346 C347 1.389 . S
C347 C346 1.389 . S
C347 C348 1.387 . S
C348 H333 0.930 . S
C348 C343 1.390 . S
C348 C347 1.387 . S
H349 C361 0.930 . S
H350 C363 0.930 . S
H351 C364 0.930 . S
H352 C368 0.959 . S
H353 C368 0.959 . S
H354 C368 0.961 . S
H355 C369 0.960 . S
H356 C369 0.961 . S
H357 C369 0.959 . S
H358 C372 0.929 . S
H359 C373 0.931 . S
H360 C375 0.930 . S
C361 H349 0.930 . S
C361 C362 1.399 . S
C361 C366 1.399 . S
C362 C361 1.399 . S
C362 C363 1.376 . S
C363 H350 0.930 . S
C363 C362 1.376 . S
C363 C364 1.388 . S
C364 H351 0.930 . S
C364 C363 1.388 . S
C364 C365 1.390 . S
C365 C364 1.390 . S
C365 C366 1.394 . S
C365 C371 1.465 . S
C366 C361 1.399 . S
C366 C365 1.394 . S
C366 C367 1.516 . S
C367 C366 1.516 . S
C367 C368 1.502 . S
C367 C369 1.561 . S
C367 C370 1.526 . S
C368 H352 0.959 . S
C368 H353 0.959 . S
C368 H354 0.961 . S
C368 C367 1.502 . S
C369 H355 0.960 . S
C369 H356 0.961 . S
C369 H357 0.959 . S
C369 C367 1.561 . S
C370 C367 1.526 . S
C370 C371 1.396 . S
C370 C375 1.390 . S
C371 C365 1.465 . S
C371 C370 1.396 . S
C371 C372 1.399 . S
C372 H358 0.929 . S
C372 C371 1.399 . S
C372 C373 1.385 . S
C373 H359 0.931 . S
C373 C372 1.385 . S
C373 C374 1.389 . S
C374 C373 1.389 . S
C374 C375 1.387 . S
C375 H360 0.930 . S
C375 C370 1.390 . S
C375 C374 1.387 . S
H376 C388 0.930 . S
H377 C390 0.930 . S
H378 C391 0.930 . S
H379 C395 0.959 . S
H380 C395 0.959 . S
H381 C395 0.961 . S
H382 C396 0.960 . S
H383 C396 0.961 . S
H384 C396 0.959 . S
H385 C399 0.929 . S
H386 C400 0.931 . S
H387 C402 0.930 . S
C388 H376 0.930 . S
C388 C389 1.399 . S
C388 C393 1.399 . S
C389 C388 1.399 . S
C389 C390 1.376 1_655 S
C390 H377 0.930 . S
C390 C389 1.376 1_455 S
C390 C391 1.388 . S
C391 H378 0.930 . S
C391 C390 1.388 . S
C391 C392 1.390 . S
C392 C391 1.390 . S
C392 C393 1.394 1_455 S
C392 C398 1.465 . S
C393 C388 1.399 . S
C393 C392 1.394 1_655 S
C393 C394 1.516 . S
C394 C393 1.516 . S
C394 C395 1.502 . S
C394 C396 1.561 1_655 S
C394 C397 1.526 . S
C395 H379 0.959 . S
C395 H380 0.959 . S
C395 H381 0.961 . S
C395 C394 1.502 . S
C396 H382 0.960 . S
C396 H383 0.961 . S
C396 H384 0.959 . S
C396 C394 1.561 1_455 S
C397 C394 1.526 . S
C397 C398 1.396 1_655 S
C397 C402 1.390 . S
C398 C392 1.465 . S
C398 C397 1.396 1_455 S
C398 C399 1.399 . S
C399 H385 0.929 . S
C399 C398 1.399 . S
C399 C400 1.385 . S
C400 H386 0.931 . S
C400 C399 1.385 . S
C400 C401 1.389 . S
C401 C400 1.389 . S
C401 C402 1.387 1_455 S
C402 H387 0.930 . S
C402 C397 1.390 . S
C402 C401 1.387 1_655 S
H403 C415 0.930 . S
H404 C417 0.930 . S
H405 C418 0.930 1_455 S
H406 C422 0.959 . S
H407 C422 0.959 . S
H408 C422 0.961 . S
H409 C423 0.960 . S
H410 C423 0.961 . S
H411 C423 0.959 . S
H412 C426 0.929 . S
H413 C427 0.931 . S
H414 C429 0.930 . S
C415 H403 0.930 . S
C415 C416 1.399 . S
C415 C420 1.399 . S
C416 C415 1.399 . S
C416 C417 1.376 . S
C417 H404 0.930 . S
C417 C416 1.376 . S
C417 C418 1.388 . S
C418 H405 0.930 1_655 S
C418 C417 1.388 . S
C418 C419 1.390 . S
C419 C418 1.390 . S
C419 C420 1.394 . S
C419 C425 1.465 1_655 S
C420 C415 1.399 . S
C420 C419 1.394 . S
C420 C421 1.516 . S
C421 C420 1.516 . S
C421 C422 1.502 . S
C421 C423 1.561 1_655 S
C421 C424 1.526 1_655 S
C422 H406 0.959 . S
C422 H407 0.959 . S
C422 H408 0.961 . S
C422 C421 1.502 . S
C423 H409 0.960 . S
C423 H410 0.961 . S
C423 H411 0.959 . S
C423 C421 1.561 1_455 S
C424 C421 1.526 1_455 S
C424 C425 1.396 . S
C424 C429 1.390 . S
C425 C419 1.465 1_455 S
C425 C424 1.396 . S
C425 C426 1.399 . S
C426 H412 0.929 . S
C426 C425 1.399 . S
C426 C427 1.385 . S
C427 H413 0.931 . S
C427 C426 1.385 . S
C427 C428 1.389 . S
C428 C427 1.389 . S
C428 C429 1.387 . S
C429 H414 0.930 . S
C429 C424 1.390 . S
C429 C428 1.387 . S
H430 C442 0.930 . S
H431 C444 0.930 . S
H432 C445 0.930 . S
H433 C449 0.959 . S
H434 C449 0.959 . S
H435 C449 0.961 . S
H436 C450 0.960 . S
H437 C450 0.961 . S
H438 C450 0.959 . S
H439 C453 0.929 . S
H440 C454 0.931 . S
H441 C456 0.930 . S
C442 H430 0.930 . S
C442 C443 1.399 . S
C442 C447 1.399 . S
C443 C442 1.399 . S
C443 C444 1.376 1_655 S
C444 H431 0.930 . S
C444 C443 1.376 1_455 S
C444 C445 1.388 . S
C445 H432 0.930 . S
C445 C444 1.388 . S
C445 C446 1.390 . S
C446 C445 1.390 . S
C446 C447 1.394 1_455 S
C446 C452 1.465 . S
C447 C442 1.399 . S
C447 C446 1.394 1_655 S
C447 C448 1.516 . S
C448 C447 1.516 . S
C448 C449 1.502 . S
C448 C450 1.561 1_655 S
C448 C451 1.526 . S
C449 H433 0.959 . S
C449 H434 0.959 . S
C449 H435 0.961 . S
C449 C448 1.502 . S
C450 H436 0.960 . S
C450 H437 0.961 . S
C450 H438 0.959 . S
C450 C448 1.561 1_455 S
C451 C448 1.526 . S
C451 C452 1.396 1_655 S
C451 C456 1.390 . S
C452 C446 1.465 . S
C452 C451 1.396 1_455 S
C452 C453 1.399 . S
C453 H439 0.929 . S
C453 C452 1.399 . S
C453 C454 1.385 . S
C454 H440 0.931 . S
C454 C453 1.385 . S
C454 C455 1.389 . S
C455 C454 1.389 . S
C455 C456 1.387 1_455 S
C456 H441 0.930 . S
C456 C451 1.390 . S
C456 C455 1.387 1_655 S
H457 C469 0.930 . S
H458 C471 0.930 . S
H459 C472 0.930 . S
H460 C476 0.959 . S
H461 C476 0.959 . S
H462 C476 0.961 . S
H463 C477 0.960 . S
H464 C477 0.961 1_655 S
H465 C477 0.959 . S
H466 C480 0.929 . S
H467 C481 0.931 . S
H468 C483 0.930 . S
C469 H457 0.930 . S
C469 C470 1.399 . S
C469 C474 1.399 . S
C470 C469 1.399 . S
C470 C471 1.376 . S
C471 H458 0.930 . S
C471 C470 1.376 . S
C471 C472 1.388 . S
C472 H459 0.930 . S
C472 C471 1.388 . S
C472 C473 1.390 . S
C473 C472 1.390 . S
C473 C474 1.394 . S
C473 C479 1.465 . S
C474 C469 1.399 . S
C474 C473 1.394 . S
C474 C475 1.516 1_455 S
C475 C474 1.516 1_655 S
C475 C476 1.502 . S
C475 C477 1.561 1_655 S
C475 C478 1.526 . S
C476 H460 0.959 . S
C476 H461 0.959 . S
C476 H462 0.961 . S
C476 C475 1.502 . S
C477 H463 0.960 . S
C477 H464 0.961 1_455 S
C477 H465 0.959 . S
C477 C475 1.561 1_455 S
C478 C475 1.526 . S
C478 C479 1.396 1_655 S
C478 C483 1.390 . S
C479 C473 1.465 . S
C479 C478 1.396 1_455 S
C479 C480 1.399 . S
C480 H466 0.929 . S
C480 C479 1.399 . S
C480 C481 1.385 1_455 S
C481 H467 0.931 . S
C481 C480 1.385 1_655 S
C481 C482 1.389 . S
C482 C481 1.389 . S
C482 C483 1.387 . S
C483 H468 0.930 . S
C483 C478 1.390 . S
C483 C482 1.387 . S
C173 C63 1.596 . S
C185 C2 1.595 1_556 S
C200 C103 1.587 . S
C212 C122 1.591 . S
C227 C23 1.595 . S
C239 C42 1.586 . S
C254 C143 1.585 . S
C266 C82 1.593 . S
C281 C145 1.104 . S
C293 C25 1.147 . S
C308 C71 1.465 . S
C320 C111 1.453 . S
C335 C44 1.062 . S
C347 C84 1.094 . S
C362 C140 1.490 . S
C374 C20 1.483 . S
C389 C65 1.110 . S
C401 C105 1.066 . S
C416 C151 1.463 . S
C428 C31 1.453 . S
C443 C124 1.150 . S
C455 C4 1.112 . S
C470 C100 1.455 . S
C482 C60 1.464 . S
