# Generated by pormake.
# Topology mmt, (4)-cn, num edge types: 1
# Building blocks:
#     Node 0, Type 0, BuildingBlock: KUFVIS_clean_sbu_0, # of connection points: 4
#     Node 1, Type 0, BuildingBlock: KUFVIS_clean_sbu_0, # of connection points: 4
#     Node 2, Type 0, BuildingBlock: KUFVIS_clean_sbu_0, # of connection points: 4
#     Node 3, Type 0, BuildingBlock: KUFVIS_clean_sbu_0, # of connection points: 4
#     Node 4, Type 0, BuildingBlock: KUFVIS_clean_sbu_0, # of connection points: 4
#     Node 5, Type 0, BuildingBlock: KUFVIS_clean_sbu_0, # of connection points: 4
#     Node 6, Type 0, BuildingBlock: KUFVIS_clean_sbu_0, # of connection points: 4
#     Node 7, Type 0, BuildingBlock: KUFVIS_clean_sbu_0, # of connection points: 4
#     Edge 8, Type (0, 0), BuildingBlock: KIFKEQ_clean_linker_1, # of connection points: 2
#     Edge 9, Type (0, 0), BuildingBlock: KIFKEQ_clean_linker_1, # of connection points: 2
#     Edge 10, Type (0, 0), BuildingBlock: KIFKEQ_clean_linker_1, # of connection points: 2
#     Edge 11, Type (0, 0), BuildingBlock: KIFKEQ_clean_linker_1, # of connection points: 2
#     Edge 12, Type (0, 0), BuildingBlock: KIFKEQ_clean_linker_1, # of connection points: 2
#     Edge 13, Type (0, 0), BuildingBlock: KIFKEQ_clean_linker_1, # of connection points: 2
#     Edge 14, Type (0, 0), BuildingBlock: KIFKEQ_clean_linker_1, # of connection points: 2
#     Edge 15, Type (0, 0), BuildingBlock: KIFKEQ_clean_linker_1, # of connection points: 2
#     Edge 16, Type (0, 0), BuildingBlock: KIFKEQ_clean_linker_1, # of connection points: 2
#     Edge 17, Type (0, 0), BuildingBlock: KIFKEQ_clean_linker_1, # of connection points: 2
#     Edge 18, Type (0, 0), BuildingBlock: KIFKEQ_clean_linker_1, # of connection points: 2
#     Edge 19, Type (0, 0), BuildingBlock: KIFKEQ_clean_linker_1, # of connection points: 2
#     Edge 20, Type (0, 0), BuildingBlock: KIFKEQ_clean_linker_1, # of connection points: 2
#     Edge 21, Type (0, 0), BuildingBlock: KIFKEQ_clean_linker_1, # of connection points: 2
#     Edge 22, Type (0, 0), BuildingBlock: KIFKEQ_clean_linker_1, # of connection points: 2
#     Edge 23, Type (0, 0), BuildingBlock: KIFKEQ_clean_linker_1, # of connection points: 2
# Relax obj value: 0.034
# Max RMSD: 0.059
# Mean RMSD: 0.059
data_MOF--net-mmt--node1-KUFVIS_clean_sbu_0--edge1-KIFKEQ_clean_linker_1
_symmetry_space_group_name_H-M    P1
_symmetry_Int_Tables_number       1
_symmetry_cell_setting            triclinic
loop_
_symmetry_equiv_pos_as_xyz
'x, y, z'
_cell_length_a     22.584516
_cell_length_b     37.327435
_cell_length_c     44.266296
_cell_angle_alpha  89.912104
_cell_angle_beta   90.031941
_cell_angle_gamma 90.002827
loop_
_atom_site_label
_atom_site_type_symbol
_atom_site_fract_x
_atom_site_fract_y
_atom_site_fract_z
_atom_type_partial_charge
Mn0 Mn 0.10019 0.57584 0.36021 0.0
Mn1 Mn 0.07572 0.62306 0.29622 0.0
C2 C 0.03088 0.55583 0.32573 0.0
C3 C 0.07999 0.56384 0.4109 0.0
C4 C 0.18204 0.57442 0.30534 0.0
O5 O 0.13992 0.62398 0.36903 0.0
O6 O 0.11318 0.6544 0.32711 0.0
C7 C 0.98498 0.67316 0.31942 0.0
N8 N 1.00201 0.64793 0.29901 0.0
C9 C 0.90911 0.65234 0.27264 0.0
C10 C 0.89078 0.67865 0.29319 0.0
C11 C 0.92881 0.689 0.31675 0.0
C12 C 0.96564 0.63759 0.27639 0.0
H13 H 0.01399 0.68106 0.33762 0.0
C14 C 0.13796 0.65256 0.35312 0.0
O15 O 0.1298 0.55444 0.39859 0.0
O16 O 0.04346 0.58204 0.39424 0.0
N17 N 0.03931 0.59646 0.26429 0.0
C18 C 0.06232 0.56925 0.24749 0.0
C19 C 0.02892 0.55484 0.22366 0.0
C20 C 0.97263 0.56885 0.21708 0.0
C21 C 0.95027 0.59721 0.2344 0.0
C22 C 0.98559 0.61052 0.25784 0.0
H23 H 0.10563 0.55846 0.25237 0.0
O24 O 0.05328 0.53419 0.34559 0.0
O25 O 0.0484 0.58904 0.32709 0.0
O26 O 0.16747 0.56269 0.33137 0.0
O27 O 0.15205 0.59781 0.29078 0.0
C28 C 0.89386 0.61235 0.22968 0.0
C29 C 0.87318 0.63977 0.24887 0.0
H30 H 0.84742 0.69084 0.29126 0.0
H31 H 0.91483 0.70911 0.33282 0.0
H32 H 0.04649 0.53296 0.2104 0.0
H33 H 0.94682 0.55749 0.19883 0.0
H34 H 0.86568 0.60277 0.21162 0.0
H35 H 0.82934 0.65078 0.24533 0.0
Mn36 Mn 0.41273 0.95083 0.35748 0.0
Mn37 Mn 0.43364 0.90397 0.29312 0.0
C38 C 0.47948 0.97132 0.32188 0.0
C39 C 0.43578 0.96261 0.40787 0.0
C40 C 0.32726 0.95197 0.30401 0.0
O41 O 0.3742 0.90247 0.36687 0.0
O42 O 0.39883 0.87225 0.3246 0.0
C43 C 0.5268 0.85437 0.31469 0.0
N44 N 0.50796 0.8796 0.29463 0.0
C45 C 0.59936 0.87624 0.26688 0.0
C46 C 0.61954 0.84994 0.28707 0.0
C47 C 0.58316 0.83905 0.31114 0.0
C48 C 0.54272 0.89043 0.27151 0.0
H49 H 0.49907 0.84607 0.33329 0.0
C50 C 0.3756 0.87392 0.35098 0.0
O51 O 0.38519 0.97186 0.3963 0.0
O52 O 0.47164 0.94475 0.39065 0.0
N53 N 0.46737 0.93097 0.26062 0.0
C54 C 0.44269 0.95807 0.24423 0.0
C55 C 0.47428 0.97293 0.21993 0.0
C56 C 0.53052 0.9595 0.21251 0.0
C57 C 0.55461 0.93125 0.22942 0.0
C58 C 0.52101 0.91744 0.25333 0.0
H59 H 0.39943 0.96844 0.24978 0.0
O60 O 0.45817 0.99276 0.34214 0.0
O61 O 0.46248 0.93802 0.32352 0.0
O62 O 0.34348 0.96379 0.32973 0.0
O63 O 0.35653 0.92872 0.289 0.0
C64 C 0.61114 0.91673 0.22388 0.0
C65 C 0.6336 0.88934 0.24266 0.0
H66 H 0.66308 0.83817 0.28448 0.0
H67 H 0.59858 0.81895 0.32693 0.0
H68 H 0.45537 0.99473 0.20699 0.0
H69 H 0.55496 0.97124 0.19392 0.0
H70 H 0.63806 0.92676 0.20547 0.0
H71 H 0.67751 0.8788 0.23846 0.0
Mn72 Mn 0.60002 0.45284 0.1588 0.0
Mn73 Mn 0.57574 0.40603 0.22299 0.0
C74 C 0.5305 0.47299 0.19309 0.0
C75 C 0.57993 0.46428 0.10801 0.0
C76 C 0.68184 0.45478 0.21368 0.0
O77 O 0.64018 0.40476 0.15035 0.0
O78 O 0.61329 0.37446 0.19229 0.0
C79 C 0.48511 0.35561 0.20011 0.0
N80 N 0.5021 0.38106 0.22035 0.0
C81 C 0.40928 0.37676 0.24676 0.0
C82 C 0.39099 0.35024 0.22638 0.0
C83 C 0.42901 0.33973 0.20289 0.0
C84 C 0.46574 0.39156 0.2429 0.0
H85 H 0.51414 0.34757 0.18197 0.0
C86 C 0.63831 0.37625 0.16635 0.0
O87 O 0.6296 0.47396 0.12032 0.0
O88 O 0.54345 0.44617 0.12474 0.0
N89 N 0.53932 0.43286 0.25476 0.0
C90 C 0.56228 0.46025 0.27139 0.0
C91 C 0.52888 0.47483 0.29513 0.0
C92 C 0.47266 0.4608 0.3018 0.0
C93 C 0.45036 0.43226 0.28466 0.0
C94 C 0.48566 0.4188 0.26129 0.0
H95 H 0.60555 0.47106 0.26643 0.0
O96 O 0.55276 0.49449 0.17309 0.0
O97 O 0.54824 0.4398 0.19195 0.0
O98 O 0.66712 0.46643 0.18764 0.0
O99 O 0.65201 0.43138 0.22829 0.0
C100 C 0.39401 0.41709 0.28948 0.0
C101 C 0.37338 0.38948 0.27046 0.0
H102 H 0.34767 0.33801 0.22838 0.0
H103 H 0.41506 0.31945 0.18695 0.0
H104 H 0.54641 0.49686 0.30825 0.0
H105 H 0.44686 0.4723 0.31998 0.0
H106 H 0.36586 0.42678 0.30749 0.0
H107 H 0.32959 0.37845 0.27408 0.0
Mn108 Mn 0.91328 0.07769 0.15738 0.0
Mn109 Mn 0.93257 0.12181 0.2232 0.0
C110 C 0.97848 0.05546 0.19305 0.0
C111 C 0.93927 0.0679 0.10703 0.0
C112 C 0.82582 0.07492 0.2099 0.0
O113 O 0.87605 0.12666 0.14894 0.0
O114 O 0.89899 0.15497 0.1924 0.0
C115 C 0.02684 0.17198 0.204 0.0
N116 N 0.00716 0.14593 0.22307 0.0
C117 C 0.09764 0.14779 0.25174 0.0
C118 C 0.11868 0.17489 0.23258 0.0
C119 C 0.08319 0.18694 0.20854 0.0
C120 C 0.04105 0.13399 0.24616 0.0
H121 H 0.99976 0.18119 0.18544 0.0
C122 C 0.87682 0.15448 0.16574 0.0
O123 O 0.88756 0.05873 0.11731 0.0
O124 O 0.97424 0.08459 0.1255 0.0
N125 N 0.96504 0.09326 0.2551 0.0
C126 C 0.93972 0.06543 0.27031 0.0
C127 C 0.97046 0.04933 0.29435 0.0
C128 C 0.02651 0.06228 0.30273 0.0
C129 C 0.0513 0.09125 0.28699 0.0
C130 C 0.01856 0.10625 0.26327 0.0
H131 H 0.8966 0.05542 0.26402 0.0
O132 O 0.95738 0.03485 0.17211 0.0
O133 O 0.96185 0.08885 0.19214 0.0
O134 O 0.84244 0.06412 0.18392 0.0
O135 O 0.85519 0.09722 0.22587 0.0
C136 C 0.1077 0.10539 0.29354 0.0
C137 C 0.13097 0.13353 0.27585 0.0
H138 H 0.16222 0.18641 0.23594 0.0
H139 H 0.09927 0.20768 0.19354 0.0
H140 H 0.95103 0.02697 0.30637 0.0
H141 H 0.05028 0.04962 0.32113 0.0
H142 H 0.1339 0.09448 0.31188 0.0
H143 H 0.1748 0.14376 0.28079 0.0
Mn144 Mn 0.90848 0.44974 0.65893 0.0
Mn145 Mn 0.92814 0.40399 0.72407 0.0
C146 C 0.97359 0.47119 0.6949 0.0
C147 C 0.93426 0.46082 0.60873 0.0
C148 C 0.82134 0.45119 0.71165 0.0
O149 O 0.87128 0.40101 0.64976 0.0
O150 O 0.89409 0.37171 0.69283 0.0
C151 C 0.02205 0.35433 0.70366 0.0
N152 N 1.00265 0.3798 0.72329 0.0
C153 C 0.09355 0.3771 0.75157 0.0
C154 C 0.1143 0.35056 0.73184 0.0
C155 C 0.07846 0.33923 0.70772 0.0
C156 C 0.03689 0.39107 0.74645 0.0
H157 H 0.99473 0.34568 0.68502 0.0
C158 C 0.87191 0.37284 0.66619 0.0
O159 O 0.88256 0.46969 0.61917 0.0
O160 O 0.96932 0.44371 0.62693 0.0
N161 N 0.96106 0.43157 0.75639 0.0
C162 C 0.93593 0.4589 0.77223 0.0
C163 C 0.96699 0.47424 0.79647 0.0
C164 C 0.02316 0.46106 0.80439 0.0
C165 C 0.04773 0.43258 0.78803 0.0
C166 C 0.01466 0.4183 0.76414 0.0
H167 H 0.89271 0.46908 0.76629 0.0
O168 O 0.95242 0.49226 0.67426 0.0
O169 O 0.95718 0.43778 0.6935 0.0
O170 O 0.83773 0.46248 0.68575 0.0
O171 O 0.85087 0.42862 0.72734 0.0
C172 C 0.10423 0.41827 0.79409 0.0
C173 C 0.12723 0.39066 0.7758 0.0
H174 H 0.15787 0.33895 0.73482 0.0
H175 H 0.09432 0.31894 0.69228 0.0
H176 H 0.94772 0.49622 0.80899 0.0
H177 H 0.04718 0.47316 0.82294 0.0
H178 H 0.13072 0.42864 0.81251 0.0
H179 H 0.17113 0.38029 0.78038 0.0
Mn180 Mn 0.60053 0.07394 0.65821 0.0
Mn181 Mn 0.57168 0.11941 0.72242 0.0
C182 C 0.5337 0.05137 0.6929 0.0
C183 C 0.57822 0.0619 0.60771 0.0
C184 C 0.68157 0.07374 0.71381 0.0
O185 O 0.63514 0.12326 0.64912 0.0
O186 O 0.61058 0.15146 0.69234 0.0
C187 C 0.48098 0.16821 0.69706 0.0
N188 N 0.49715 0.14308 0.71782 0.0
C189 C 0.40054 0.1443 0.7407 0.0
C190 C 0.38303 0.17046 0.71975 0.0
C191 C 0.4234 0.18238 0.69779 0.0
C192 C 0.45852 0.13121 0.73889 0.0
H193 H 0.5117 0.17725 0.68 0.0
C194 C 0.63395 0.151 0.66595 0.0
O195 O 0.62989 0.05411 0.61892 0.0
O196 O 0.54146 0.07838 0.6253 0.0
N197 N 0.5337 0.09232 0.75365 0.0
C198 C 0.55713 0.06645 0.77183 0.0
C199 C 0.52248 0.05166 0.79504 0.0
C200 C 0.46423 0.06373 0.79942 0.0
C201 C 0.44121 0.09056 0.7806 0.0
C202 C 0.47812 0.10466 0.75812 0.0
H203 H 0.60167 0.05689 0.76847 0.0
O204 O 0.55815 0.03047 0.67319 0.0
O205 O 0.54813 0.08505 0.69139 0.0
O206 O 0.67018 0.06372 0.68681 0.0
O207 O 0.648 0.0946 0.72905 0.0
C208 C 0.38291 0.10366 0.78309 0.0
C209 C 0.36252 0.13041 0.76308 0.0
H210 H 0.33861 0.18138 0.72019 0.0
H211 H 0.4101 0.20239 0.68142 0.0
H212 H 0.54054 0.0309 0.80943 0.0
H213 H 0.43759 0.05217 0.81728 0.0
H214 H 0.35323 0.09309 0.80013 0.0
H215 H 0.31742 0.14001 0.76502 0.0
Mn216 Mn 0.40878 0.57566 0.85887 0.0
Mn217 Mn 0.42826 0.62113 0.79359 0.0
C218 C 0.47362 0.554 0.8229 0.0
C219 C 0.43475 0.56478 0.90908 0.0
C220 C 0.3213 0.57416 0.80625 0.0
O221 O 0.37196 0.62451 0.86796 0.0
O222 O 0.39469 0.65361 0.82479 0.0
C223 C 0.52263 0.67069 0.8137 0.0
N224 N 0.50291 0.64517 0.79419 0.0
C225 C 0.59356 0.64761 0.76572 0.0
C226 C 0.61462 0.67419 0.78534 0.0
C227 C 0.57906 0.68568 0.80949 0.0
C228 C 0.53688 0.63375 0.77099 0.0
H229 H 0.49552 0.67946 0.83237 0.0
C230 C 0.37273 0.65264 0.85147 0.0
O231 O 0.38297 0.55593 0.8987 0.0
O232 O 0.46983 0.58171 0.8908 0.0
N233 N 0.46077 0.59334 0.76132 0.0
C234 C 0.43539 0.56596 0.74562 0.0
C235 C 0.46616 0.55045 0.72138 0.0
C236 C 0.52231 0.56351 0.71331 0.0
C237 C 0.54715 0.59203 0.72953 0.0
C238 C 0.51436 0.60648 0.75343 0.0
H239 H 0.39219 0.55586 0.75168 0.0
O240 O 0.45246 0.53301 0.8436 0.0
O241 O 0.45733 0.58743 0.82423 0.0
O242 O 0.33781 0.56292 0.83216 0.0
O243 O 0.35082 0.59664 0.79049 0.0
C244 C 0.60365 0.60624 0.72331 0.0
C245 C 0.62695 0.6339 0.74147 0.0
H246 H 0.65822 0.68571 0.78224 0.0
H247 H 0.59517 0.706 0.82485 0.0
H248 H 0.44669 0.52843 0.70898 0.0
H249 H 0.54611 0.55129 0.69475 0.0
H250 H 0.6299 0.59576 0.70486 0.0
H251 H 0.67084 0.64417 0.73677 0.0
Mn252 Mn 0.10194 0.95181 0.8585 0.0
Mn253 Mn 0.07141 0.90453 0.79533 0.0
C254 C 0.0333 0.97308 0.82409 0.0
C255 C 0.08312 0.96516 0.90908 0.0
C256 C 0.18092 0.95092 0.80222 0.0
O257 O 0.13802 0.90295 0.86803 0.0
O258 O 0.11146 0.87344 0.82573 0.0
C259 C 0.98194 0.85612 0.82227 0.0
N260 N 0.99729 0.88069 0.80089 0.0
C261 C 0.90017 0.87831 0.77859 0.0
C262 C 0.88351 0.8527 0.80018 0.0
C263 C 0.92454 0.84164 0.82216 0.0
C264 C 0.95799 0.89176 0.77981 0.0
H265 H 0.01318 0.84775 0.83935 0.0
C266 C 0.13607 0.87471 0.85181 0.0
O267 O 0.13347 0.97316 0.89658 0.0
O268 O 0.04522 0.94782 0.89267 0.0
N269 N 0.03227 0.9306 0.76384 0.0
C270 C 0.05498 0.95595 0.74492 0.0
C271 C 0.01959 0.96986 0.7216 0.0
C272 C 0.96139 0.95741 0.71783 0.0
C273 C 0.93917 0.93104 0.73735 0.0
C274 C 0.97678 0.91783 0.75993 0.0
H275 H 0.09951 0.96577 0.74779 0.0
O276 O 0.058 0.99456 0.84327 0.0
O277 O 0.04827 0.9395 0.82603 0.0
O278 O 0.16984 0.96177 0.82898 0.0
O279 O 0.1474 0.92938 0.78761 0.0
C280 C 0.88102 0.91757 0.73545 0.0
C281 C 0.86145 0.89133 0.75613 0.0
H282 H 0.83924 0.84153 0.80022 0.0
H283 H 0.91191 0.82206 0.83903 0.0
H284 H 0.03706 0.99023 0.70664 0.0
H285 H 0.93416 0.9683 0.69989 0.0
H286 H 0.85081 0.92746 0.71834 0.0
H287 H 0.81646 0.88143 0.75463 0.0
H288 H 0.23205 0.50859 0.31441 0.0
H289 H 0.25226 0.60628 0.26294 0.0
H290 H 0.31769 0.48295 0.28834 0.0
H291 H 0.33857 0.58079 0.23747 0.0
H292 H 0.5285 0.53366 0.22631 0.0
H293 H 0.44493 0.55834 0.25485 0.0
H294 H 0.33857 0.46694 0.22998 0.0
H295 H 0.42174 0.44296 0.20057 0.0
C296 C 0.25513 0.5247 0.29779 0.0
C297 C 0.23548 0.55947 0.29073 0.0
C298 C 0.30386 0.50993 0.28281 0.0
C299 C 0.33459 0.52994 0.26101 0.0
C300 C 0.31574 0.56492 0.25435 0.0
C301 C 0.26628 0.57941 0.26883 0.0
C302 C 0.48736 0.51877 0.22727 0.0
C303 C 0.48197 0.48577 0.21239 0.0
C304 C 0.43969 0.53288 0.24344 0.0
C305 C 0.3857 0.51431 0.24482 0.0
C306 C 0.38012 0.48143 0.22966 0.0
C307 C 0.42764 0.4676 0.21311 0.0
H308 H 0.08667 0.08527 0.20211 0.0
H309 H 0.97954 0.99365 0.22515 0.0
H310 H 0.16901 0.06055 0.23167 0.0
H311 H 0.06238 0.96825 0.25397 0.0
H312 H 0.2773 0.01761 0.31388 0.0
H313 H 0.19087 0.04346 0.28862 0.0
H314 H 0.16776 0.94588 0.23787 0.0
H315 H 0.25486 0.92016 0.26256 0.0
C316 C 0.08048 0.06025 0.21413 0.0
C317 C 0.02629 0.04201 0.21256 0.0
C318 C 0.12755 0.046 0.23079 0.0
C319 C 0.12174 1.01266 0.24527 0.0
C320 C 0.06784 0.99406 0.2431 0.0
C321 C 0.02057 1.00857 0.22677 0.0
C322 C 0.25349 1.00156 0.29752 0.0
C323 C 0.27286 0.96684 0.29019 0.0
C324 C 0.20426 0.01644 0.283 0.0
C325 C 0.1727 0.99661 0.26141 0.0
C326 C 0.19113 0.96161 0.25461 0.0
C327 C 0.24108 0.947 0.26863 0.0
H328 H 0.73167 0.52067 0.20457 0.0
H329 H 0.75241 0.42291 0.25591 0.0
H330 H 0.81757 0.54628 0.23051 0.0
H331 H 0.83894 0.44838 0.28123 0.0
H332 H 0.02889 0.49545 0.29212 0.0
H333 H 0.9452 0.47095 0.26351 0.0
H334 H 0.83877 0.56203 0.28905 0.0
H335 H 0.92206 0.58582 0.31853 0.0
C336 C 0.75491 0.50455 0.22113 0.0
C337 C 0.73535 0.46977 0.22821 0.0
C338 C 0.80379 0.51929 0.23603 0.0
C339 C 0.83473 0.49924 0.25775 0.0
C340 C 0.81594 0.46427 0.26441 0.0
C341 C 0.76636 0.44979 0.25002 0.0
C342 C 0.98771 0.51032 0.29129 0.0
C343 C 0.9823 0.54316 0.30639 0.0
C344 C 0.93998 0.49631 0.27507 0.0
C345 C 0.88594 0.51484 0.27388 0.0
C346 C 0.88037 0.54758 0.28923 0.0
C347 C 0.92794 0.56131 0.30582 0.0
H348 H 0.77642 1.0092 0.19934 0.0
H349 H 0.75205 0.1065 0.25061 0.0
H350 H 0.69004 0.98283 0.22446 0.0
H351 H 0.66522 0.08034 0.27508 0.0
H352 H 0.47828 0.03157 0.28792 0.0
H353 H 0.55996 0.05671 0.25819 0.0
H354 H 0.66965 0.96654 0.28272 0.0
H355 H 0.58838 0.94209 0.31323 0.0
C356 C 0.75212 0.02511 0.2156 0.0
C357 C 0.77096 0.05991 0.22304 0.0
C358 C 0.70302 1.00994 0.23005 0.0
C359 C 0.67114 0.0296 0.25162 0.0
C360 C 0.68889 0.06473 0.25837 0.0
C361 C 0.73865 0.0796 0.24446 0.0
C362 C 0.5197 0.01702 0.28658 0.0
C363 C 0.52662 0.98427 0.30176 0.0
C364 C 0.56628 0.03137 0.2697 0.0
C365 C 0.6207 0.0133 0.26792 0.0
C366 C 0.62772 0.98062 0.28329 0.0
C367 C 0.5813 0.96652 0.30051 0.0
H368 H 0.58213 0.58346 0.81402 0.0
H369 H 0.47339 0.49297 0.78995 0.0
H370 H 0.66379 0.55898 0.78393 0.0
H371 H 0.55555 0.46779 0.76061 0.0
H372 H 0.77115 0.51669 0.7012 0.0
H373 H 0.68454 0.54254 0.72629 0.0
H374 H 0.6611 0.44484 0.77708 0.0
H375 H 0.74829 0.41917 0.7526 0.0
C376 C 0.57544 0.55877 0.80166 0.0
C377 C 0.52101 0.54077 0.8031 0.0
C378 C 0.6221 0.54466 0.78469 0.0
C379 C 0.6156 0.5117 0.76977 0.0
C380 C 0.56147 0.49333 0.7718 0.0
C381 C 0.51461 0.50771 0.78843 0.0
C382 C 0.74715 0.50062 0.7175 0.0
C383 C 0.76648 0.46591 0.72496 0.0
C384 C 0.69786 0.51549 0.73192 0.0
C385 C 0.66626 0.49563 0.75351 0.0
C386 C 0.68453 0.46059 0.76034 0.0
C387 C 0.73451 0.446 0.74643 0.0
H388 H 0.70457 0.07085 0.77438 0.0
H389 H 0.78035 0.04432 0.68754 0.0
H390 H 0.79027 0.04462 0.79956 0.0
H391 H 0.86748 0.0194 0.71315 0.0
H392 H 0.03409 0.02819 0.7841 0.0
H393 H 0.94943 0.05213 0.7555 0.0
H394 H 0.8355 0.97321 0.79673 0.0
H395 H 0.92045 0.94868 0.82458 0.0
C396 C 0.73946 0.05958 0.76061 0.0
C397 C 0.73523 0.0594 0.72888 0.0
C398 C 0.78842 0.04454 0.7751 0.0
C399 C 0.83491 0.02989 0.75821 0.0
C400 C 0.83183 0.03045 0.72655 0.0
C401 C 0.78204 0.04468 0.71199 0.0
C402 C 0.99102 0.01575 0.78659 0.0
C403 C 0.98368 0.986 0.80563 0.0
C404 C 0.94291 0.02933 0.7703 0.0
C405 C 0.88645 0.01421 0.77385 0.0
C406 C 0.87885 0.98507 0.79355 0.0
C407 C 0.92722 0.97097 0.80927 0.0
H408 H 0.27109 0.50869 0.81685 0.0
H409 H 0.24815 0.60607 0.76525 0.0
H410 H 0.18445 0.48275 0.79177 0.0
H411 H 0.16096 0.58031 0.74078 0.0
H412 H 0.97324 0.53209 0.72799 0.0
H413 H 0.05537 0.55729 0.75738 0.0
H414 H 0.16382 0.46626 0.73396 0.0
H415 H 0.08218 0.44176 0.7038 0.0
C416 C 0.24706 0.52471 0.80051 0.0
C417 C 0.26638 0.55941 0.79299 0.0
C418 C 0.19777 0.50979 0.78609 0.0
C419 C 0.16616 0.52958 0.76444 0.0
C420 C 0.18441 0.56461 0.75756 0.0
C421 C 0.23438 0.57925 0.77147 0.0
C422 C 0.0145 0.51738 0.7295 0.0
C423 C 0.02096 0.48437 0.71477 0.0
C424 C 0.06134 0.53177 0.74617 0.0
C425 C 0.11552 0.51346 0.74818 0.0
C426 C 0.12208 0.48053 0.73322 0.0
C427 C 0.07543 0.46642 0.71621 0.0
H428 H 0.20314 0.95359 0.7415 0.0
H429 H 0.28032 0.9796 0.82817 0.0
H430 H 0.28924 0.9793 0.71614 0.0
H431 H 0.36758 1.00395 0.80246 0.0
H432 H 0.53378 0.99513 0.73182 0.0
H433 H 0.44866 0.97072 0.75975 0.0
H434 H 0.3357 0.05098 0.71965 0.0
H435 H 0.42107 0.07598 0.69249 0.0
C436 C 0.23843 0.96461 0.75517 0.0
C437 C 0.23452 0.96485 0.7869 0.0
C438 C 0.28759 0.97934 0.7406 0.0
C439 C 0.33449 0.99366 0.75745 0.0
C440 C 0.33165 0.99312 0.78909 0.0
C441 C 0.28175 0.97924 0.80371 0.0
C442 C 0.49081 1.00773 0.72942 0.0
C443 C 0.48386 0.038 0.71094 0.0
C444 C 0.44244 0.99386 0.74529 0.0
C445 C 0.38613 1.00923 0.74186 0.0
C446 C 0.3789 0.03889 0.72268 0.0
C447 C 0.42753 0.05326 0.70739 0.0
H448 H 0.12993 0.50959 0.44334 0.0
H449 H 0.98931 0.5878 0.44638 0.0
H450 H 0.09376 0.48288 0.48991 0.0
H451 H 0.95469 0.56242 0.49396 0.0
H452 H 0.86859 0.48839 0.5621 0.0
H453 H 0.90498 0.51327 0.51461 0.0
H454 H 0.08453 0.4887 0.5417 0.0
H455 H 0.0477 0.46223 0.58813 0.0
C456 C 0.09202 0.5216 0.45437 0.0
C457 C 0.06253 0.55083 0.44121 0.0
C458 C 0.0712 0.5063 0.4812 0.0
C459 C 0.02088 0.52023 0.49585 0.0
C460 C 0.99263 0.55031 0.48308 0.0
C461 C 0.01291 0.56522 0.45596 0.0
C462 C 0.91573 0.48791 0.55763 0.0
C463 C 0.95518 0.47317 0.57878 0.0
C464 C 0.9368 0.50258 0.53055 0.0
C465 C 0.99796 0.5034 0.52421 0.0
C466 C 0.03716 0.48814 0.54535 0.0
C467 C 0.016 0.47298 0.57213 0.0
H468 H 0.38672 0.01622 0.44107 0.0
H469 H 0.5282 0.93851 0.44238 0.0
H470 H 0.42317 0.0418 0.48789 0.0
H471 H 0.56312 0.96271 0.49036 0.0
H472 H 0.64632 0.03496 0.56154 0.0
H473 H 0.6118 1.01096 0.51327 0.0
H474 H 0.43104 0.03368 0.53924 0.0
H475 H 0.46584 0.05929 0.58619 0.0
C476 C 0.42494 1.00408 0.45176 0.0
C477 C 0.45441 0.97525 0.43809 0.0
C478 C 0.44591 0.01871 0.47877 0.0
C479 C 0.49632 1.00445 0.49319 0.0
C480 C 0.52497 0.97498 0.47975 0.0
C481 C 0.50454 0.96075 0.4524 0.0
C482 C 0.59934 0.03519 0.55662 0.0
C483 C 0.55893 0.04929 0.57756 0.0
C484 C 0.57934 0.02106 0.5291 0.0
C485 C 0.51839 0.02019 0.52214 0.0
C486 C 0.4783 0.03447 0.54325 0.0
C487 C 0.49832 0.0491 0.57039 0.0
H488 H 0.48936 0.4398 0.07264 0.0
H489 H 0.62999 0.51806 0.07507 0.0
H490 H 0.45493 0.46448 0.02475 0.0
H491 H 0.59402 0.54407 0.02817 0.0
H492 H 0.54821 0.56335 0.92971 0.0
H493 H 0.58495 0.53741 0.9764 0.0
H494 H 0.40531 0.51342 1.00359 0.0
H495 H 0.369 0.53776 0.95587 0.0
C496 C 0.51301 0.46224 0.06286 0.0
C497 C 0.56256 0.47686 0.07754 0.0
C498 C 0.49284 0.47675 0.03556 0.0
C499 C 0.52115 0.50663 0.02251 0.0
C500 C 0.57142 0.52078 0.0371 0.0
C501 C 0.59211 0.50589 0.06412 0.0
C502 C 0.51648 0.55283 0.94578 0.0
C503 C 0.45566 0.55266 0.93911 0.0
C504 C 0.53758 0.53798 0.97271 0.0
C505 C 0.49832 0.52306 0.99397 0.0
C506 C 0.43716 0.52387 0.98758 0.0
C507 C 0.41615 0.53823 0.96036 0.0
H508 H 0.99312 0.94178 0.94508 0.0
H509 H 0.1346 0.01937 0.94107 0.0
H510 H 0.95933 0.9675 0.99253 0.0
H511 H 0.09921 0.04647 0.98769 0.0
H512 H 0.05279 0.06704 0.08635 0.0
H513 H 0.08964 0.04107 0.03974 0.0
H514 H 0.91004 0.01699 0.01251 0.0
H515 H 0.87366 0.04135 0.06009 0.0
C516 C 0.01709 0.96433 0.95442 0.0
C517 C 0.06664 0.97846 0.93941 0.0
C518 C 0.99727 0.97944 0.98148 0.0
C519 C 0.02587 1.00951 0.99397 0.0
C520 C 0.0763 0.02312 0.97913 0.0
C521 C 0.09668 1.00761 0.95231 0.0
C522 C 0.0211 0.05651 0.07027 0.0
C523 C 0.96027 0.05622 0.07693 0.0
C524 C 0.04227 0.04164 0.04339 0.0
C525 C 1.00306 0.02655 0.02221 0.0
C526 C 0.94188 0.02748 0.0285 0.0
C527 C 0.92081 0.04186 0.05564 0.0
H528 H 0.10519 0.72186 0.34421 0.0
H529 H 0.24185 0.65683 0.38485 0.0
H530 H 0.16438 0.77549 0.35305 0.0
H531 H 0.30197 0.71074 0.39312 0.0
H532 H 0.27444 0.8693 0.38483 0.0
H533 H 0.21516 0.8153 0.39421 0.0
H534 H 0.34937 0.75095 0.35108 0.0
H535 H 0.40773 0.80469 0.34116 0.0
C536 C 0.14737 0.71915 0.35565 0.0
C537 C 0.16899 0.68514 0.36375 0.0
C538 C 0.18113 0.74989 0.36086 0.0
C539 C 0.23783 0.74728 0.3737 0.0
C540 C 0.25837 0.71348 0.38317 0.0
C541 C 0.2239 0.6827 0.37857 0.0
C542 C 0.29189 0.84349 0.37809 0.0
C543 C 0.34552 0.84121 0.36212 0.0
C544 C 0.25789 0.81266 0.38333 0.0
C545 C 0.27767 0.77896 0.37334 0.0
C546 C 0.33326 0.77647 0.3593 0.0
C547 C 0.36652 0.80729 0.35348 0.0
H548 H 0.90866 0.22336 0.17752 0.0
H549 H 0.776 0.16027 0.13176 0.0
H550 H 0.85021 0.27742 0.16878 0.0
H551 H 0.7166 0.21451 0.12365 0.0
H552 H 0.74246 0.37232 0.1349 0.0
H553 H 0.80294 0.31859 0.12648 0.0
H554 H 0.66583 0.25332 0.16626 0.0
H555 H 0.60629 0.3068 0.17534 0.0
C556 C 0.86759 0.22119 0.16501 0.0
C557 C 0.84683 0.18758 0.15537 0.0
C558 C 0.83426 0.25217 0.15988 0.0
C559 C 0.77883 0.25014 0.1456 0.0
C560 C 0.75923 0.21679 0.13471 0.0
C561 C 0.79331 0.18583 0.13922 0.0
C562 C 0.72472 0.34638 0.14113 0.0
C563 C 0.66978 0.34375 0.15588 0.0
C564 C 0.75939 0.31571 0.13644 0.0
C565 C 0.73902 0.28182 0.14572 0.0
C566 C 0.68241 0.27901 0.15861 0.0
C567 C 0.64846 0.30966 0.16394 0.0
H568 H 0.73508 0.15642 0.63225 0.0
H569 H 0.60314 0.22002 0.67802 0.0
H570 H 0.79484 0.21048 0.62397 0.0
H571 H 0.66193 0.2739 0.66904 0.0
H572 H 0.76925 0.36823 0.63367 0.0
H573 H 0.70917 0.31427 0.62551 0.0
H574 H 0.84554 0.24988 0.66701 0.0
H575 H 0.90463 0.30365 0.6759 0.0
C576 C 0.71804 0.18205 0.63971 0.0
C577 C 0.66458 0.18401 0.65589 0.0
C578 C 0.75231 0.2129 0.63509 0.0
C579 C 0.73292 0.24633 0.64584 0.0
C580 C 0.67766 0.24856 0.66024 0.0
C581 C 0.64416 0.21769 0.66551 0.0
C582 C 0.78699 0.34241 0.64028 0.0
C583 C 0.8415 0.34011 0.65549 0.0
C584 C 0.75253 0.31163 0.63576 0.0
C585 C 0.77277 0.27796 0.64565 0.0
C586 C 0.82911 0.27542 0.65891 0.0
C587 C 0.86281 0.30621 0.6641 0.0
H588 H 0.27162 0.6579 0.88517 0.0
H589 H 0.40539 0.72165 0.84081 0.0
H590 H 0.21242 0.71211 0.89367 0.0
H591 H 0.34715 0.77565 0.84997 0.0
H592 H 0.10397 0.80549 0.84181 0.0
H593 H 0.16291 0.75174 0.85091 0.0
H594 H 0.29906 0.81603 0.89255 0.0
H595 H 0.23915 0.87002 0.88412 0.0
C596 C 0.28922 0.68359 0.87813 0.0
C597 C 0.34297 0.68557 0.86223 0.0
C598 C 0.25526 0.71452 0.88286 0.0
C599 C 0.27524 0.74803 0.87246 0.0
C600 C 0.33093 0.75025 0.85848 0.0
C601 C 0.36412 0.71932 0.85313 0.0
C602 C 0.14577 0.80807 0.85362 0.0
C603 C 0.16703 0.84196 0.86219 0.0
C604 C 0.17936 0.77726 0.85897 0.0
C605 C 0.23555 0.77974 0.8724 0.0
C606 C 0.25581 0.81342 0.88219 0.0
C607 C 0.22147 0.84423 0.87748 0.0
loop_
_geom_bond_atom_site_label_1
_geom_bond_atom_site_label_2
_geom_bond_distance
_geom_bond_site_symmetry_2
_ccdc_geom_bond_type
Mn0 O5 2.095 . S
Mn0 O15 2.162 . S
Mn0 O16 2.297 . S
Mn0 O24 2.385 . S
Mn0 O25 2.209 . S
Mn0 O26 2.094 . S
Mn1 O6 2.121 . S
Mn1 N8 2.257 . S
Mn1 N17 2.282 . S
Mn1 O25 2.215 . S
Mn1 O27 2.117 . S
C2 O24 1.234 . S
C2 O25 1.283 . S
C3 O15 1.281 . S
C3 O16 1.236 . S
C4 O26 1.240 . S
C4 O27 1.264 . S
O5 Mn0 2.095 . S
O5 C14 1.250 . S
O6 Mn1 2.121 . S
O6 C14 1.258 . S
C7 N8 1.326 . S
C7 C11 1.460 . S
C7 H13 0.929 . S
N8 Mn1 2.257 . S
N8 C7 1.326 . S
N8 C12 1.362 . S
C9 C10 1.258 1_455 S
C9 C12 1.431 . S
C9 C29 1.449 1_455 S
C10 C9 1.258 1_655 S
C10 C11 1.477 1_655 S
C10 H30 0.931 . S
C11 C7 1.460 . S
C11 C10 1.477 1_455 S
C11 H31 0.930 . S
C12 N8 1.362 . S
C12 C9 1.431 . S
C12 C22 1.476 . S
H13 C7 0.929 . S
C14 O5 1.250 . S
C14 O6 1.258 . S
O15 Mn0 2.162 . S
O15 C3 1.281 . S
O16 Mn0 2.297 . S
O16 C3 1.236 . S
N17 Mn1 2.282 . S
N17 C18 1.328 . S
N17 C22 1.318 . S
C18 N17 1.328 . S
C18 C19 1.457 . S
C18 H23 0.929 . S
C19 C18 1.457 . S
C19 C20 1.291 . S
C19 H32 0.931 . S
C20 C19 1.291 . S
C20 C21 1.373 . S
C20 H33 0.929 . S
C21 C20 1.373 . S
C21 C22 1.396 . S
C21 C28 1.403 . S
C22 C12 1.476 . S
C22 N17 1.318 . S
C22 C21 1.396 . S
H23 C18 0.929 . S
O24 Mn0 2.385 . S
O24 C2 1.234 . S
O25 Mn0 2.209 . S
O25 Mn1 2.215 . S
O25 C2 1.283 . S
O26 Mn0 2.094 . S
O26 C4 1.240 . S
O27 Mn1 2.117 . S
O27 C4 1.264 . S
C28 C21 1.403 . S
C28 C29 1.399 1_455 S
C28 H34 0.929 1_455 S
C29 C9 1.449 1_655 S
C29 C28 1.399 1_655 S
C29 H35 0.930 . S
H30 C10 0.931 . S
H31 C11 0.930 . S
H32 C19 0.931 . S
H33 C20 0.929 . S
H34 C28 0.929 1_655 S
H35 C29 0.930 . S
Mn36 O41 2.095 . S
Mn36 O51 2.162 . S
Mn36 O52 2.297 . S
Mn36 O60 2.385 . S
Mn36 O61 2.209 . S
Mn36 O62 2.094 . S
Mn37 O42 2.121 . S
Mn37 N44 2.257 . S
Mn37 N53 2.282 . S
Mn37 O61 2.215 . S
Mn37 O63 2.117 . S
C38 O60 1.234 . S
C38 O61 1.283 . S
C39 O51 1.281 . S
C39 O52 1.236 . S
C40 O62 1.240 . S
C40 O63 1.264 . S
O41 Mn36 2.095 . S
O41 C50 1.250 . S
O42 Mn37 2.121 . S
O42 C50 1.258 . S
C43 N44 1.326 . S
C43 C47 1.460 . S
C43 H49 0.929 . S
N44 Mn37 2.257 . S
N44 C43 1.326 . S
N44 C48 1.362 . S
C45 C46 1.258 . S
C45 C48 1.431 . S
C45 C65 1.449 . S
C46 C45 1.258 . S
C46 C47 1.477 . S
C46 H66 0.931 . S
C47 C43 1.460 . S
C47 C46 1.477 . S
C47 H67 0.930 . S
C48 N44 1.362 . S
C48 C45 1.431 . S
C48 C58 1.476 . S
H49 C43 0.929 . S
C50 O41 1.250 . S
C50 O42 1.258 . S
O51 Mn36 2.162 . S
O51 C39 1.281 . S
O52 Mn36 2.297 . S
O52 C39 1.236 . S
N53 Mn37 2.282 . S
N53 C54 1.328 . S
N53 C58 1.318 . S
C54 N53 1.328 . S
C54 C55 1.457 . S
C54 H59 0.929 . S
C55 C54 1.457 . S
C55 C56 1.291 . S
C55 H68 0.931 1_565 S
C56 C55 1.291 . S
C56 C57 1.373 . S
C56 H69 0.929 . S
C57 C56 1.373 . S
C57 C58 1.396 . S
C57 C64 1.403 . S
C58 C48 1.476 . S
C58 N53 1.318 . S
C58 C57 1.396 . S
H59 C54 0.929 . S
O60 Mn36 2.385 . S
O60 C38 1.234 . S
O61 Mn36 2.209 . S
O61 Mn37 2.215 . S
O61 C38 1.283 . S
O62 Mn36 2.094 . S
O62 C40 1.240 . S
O63 Mn37 2.117 . S
O63 C40 1.264 . S
C64 C57 1.403 . S
C64 C65 1.399 . S
C64 H70 0.929 . S
C65 C45 1.449 . S
C65 C64 1.399 . S
C65 H71 0.930 . S
H66 C46 0.931 . S
H67 C47 0.930 . S
H68 C55 0.931 1_545 S
H69 C56 0.929 . S
H70 C64 0.929 . S
H71 C65 0.930 . S
Mn72 O77 2.095 . S
Mn72 O87 2.162 . S
Mn72 O88 2.297 . S
Mn72 O96 2.385 . S
Mn72 O97 2.209 . S
Mn72 O98 2.094 . S
Mn73 O78 2.121 . S
Mn73 N80 2.257 . S
Mn73 N89 2.282 . S
Mn73 O97 2.215 . S
Mn73 O99 2.117 . S
C74 O96 1.234 . S
C74 O97 1.283 . S
C75 O87 1.281 . S
C75 O88 1.236 . S
C76 O98 1.240 . S
C76 O99 1.264 . S
O77 Mn72 2.095 . S
O77 C86 1.250 . S
O78 Mn73 2.121 . S
O78 C86 1.258 . S
C79 N80 1.326 . S
C79 C83 1.460 . S
C79 H85 0.929 . S
N80 Mn73 2.257 . S
N80 C79 1.326 . S
N80 C84 1.362 . S
C81 C82 1.258 . S
C81 C84 1.431 . S
C81 C101 1.449 . S
C82 C81 1.258 . S
C82 C83 1.477 . S
C82 H102 0.931 . S
C83 C79 1.460 . S
C83 C82 1.477 . S
C83 H103 0.930 . S
C84 N80 1.362 . S
C84 C81 1.431 . S
C84 C94 1.476 . S
H85 C79 0.929 . S
C86 O77 1.250 . S
C86 O78 1.258 . S
O87 Mn72 2.162 . S
O87 C75 1.281 . S
O88 Mn72 2.297 . S
O88 C75 1.236 . S
N89 Mn73 2.282 . S
N89 C90 1.328 . S
N89 C94 1.318 . S
C90 N89 1.328 . S
C90 C91 1.457 . S
C90 H95 0.929 . S
C91 C90 1.457 . S
C91 C92 1.291 . S
C91 H104 0.931 . S
C92 C91 1.291 . S
C92 C93 1.373 . S
C92 H105 0.929 . S
C93 C92 1.373 . S
C93 C94 1.396 . S
C93 C100 1.403 . S
C94 C84 1.476 . S
C94 N89 1.318 . S
C94 C93 1.396 . S
H95 C90 0.929 . S
O96 Mn72 2.385 . S
O96 C74 1.234 . S
O97 Mn72 2.209 . S
O97 Mn73 2.215 . S
O97 C74 1.283 . S
O98 Mn72 2.094 . S
O98 C76 1.240 . S
O99 Mn73 2.117 . S
O99 C76 1.264 . S
C100 C93 1.403 . S
C100 C101 1.399 . S
C100 H106 0.929 . S
C101 C81 1.449 . S
C101 C100 1.399 . S
C101 H107 0.930 . S
H102 C82 0.931 . S
H103 C83 0.930 . S
H104 C91 0.931 . S
H105 C92 0.929 . S
H106 C100 0.929 . S
H107 C101 0.930 . S
Mn108 O113 2.095 . S
Mn108 O123 2.162 . S
Mn108 O124 2.297 . S
Mn108 O132 2.385 . S
Mn108 O133 2.209 . S
Mn108 O134 2.094 . S
Mn109 O114 2.121 . S
Mn109 N116 2.257 . S
Mn109 N125 2.282 . S
Mn109 O133 2.215 . S
Mn109 O135 2.117 . S
C110 O132 1.234 . S
C110 O133 1.283 . S
C111 O123 1.281 . S
C111 O124 1.236 . S
C112 O134 1.240 . S
C112 O135 1.264 . S
O113 Mn108 2.095 . S
O113 C122 1.250 . S
O114 Mn109 2.121 . S
O114 C122 1.258 . S
C115 N116 1.326 . S
C115 C119 1.460 . S
C115 H121 0.929 . S
N116 Mn109 2.257 . S
N116 C115 1.326 . S
N116 C120 1.362 . S
C117 C118 1.258 1_655 S
C117 C120 1.431 . S
C117 C137 1.449 1_655 S
C118 C117 1.258 1_455 S
C118 C119 1.477 1_455 S
C118 H138 0.931 . S
C119 C115 1.460 . S
C119 C118 1.477 1_655 S
C119 H139 0.930 . S
C120 N116 1.362 . S
C120 C117 1.431 . S
C120 C130 1.476 . S
H121 C115 0.929 . S
C122 O113 1.250 . S
C122 O114 1.258 . S
O123 Mn108 2.162 . S
O123 C111 1.281 . S
O124 Mn108 2.297 . S
O124 C111 1.236 . S
N125 Mn109 2.282 . S
N125 C126 1.328 . S
N125 C130 1.318 . S
C126 N125 1.328 . S
C126 C127 1.457 . S
C126 H131 0.929 . S
C127 C126 1.457 . S
C127 C128 1.291 . S
C127 H140 0.931 1_545 S
C128 C127 1.291 . S
C128 C129 1.373 . S
C128 H141 0.929 . S
C129 C128 1.373 . S
C129 C130 1.396 . S
C129 C136 1.403 . S
C130 C120 1.476 . S
C130 N125 1.318 . S
C130 C129 1.396 . S
H131 C126 0.929 . S
O132 Mn108 2.385 . S
O132 C110 1.234 . S
O133 Mn108 2.209 . S
O133 Mn109 2.215 . S
O133 C110 1.283 . S
O134 Mn108 2.094 . S
O134 C112 1.240 . S
O135 Mn109 2.117 . S
O135 C112 1.264 . S
C136 C129 1.403 . S
C136 C137 1.399 1_655 S
C136 H142 0.929 1_655 S
C137 C117 1.449 1_455 S
C137 C136 1.399 1_455 S
C137 H143 0.930 . S
H138 C118 0.931 . S
H139 C119 0.930 . S
H140 C127 0.931 1_565 S
H141 C128 0.929 . S
H142 C136 0.929 1_455 S
H143 C137 0.930 . S
Mn144 O149 2.095 . S
Mn144 O159 2.162 . S
Mn144 O160 2.297 . S
Mn144 O168 2.385 . S
Mn144 O169 2.209 . S
Mn144 O170 2.094 . S
Mn145 O150 2.121 . S
Mn145 N152 2.257 . S
Mn145 N161 2.282 . S
Mn145 O169 2.215 . S
Mn145 O171 2.117 . S
C146 O168 1.234 . S
C146 O169 1.283 . S
C147 O159 1.281 . S
C147 O160 1.236 . S
C148 O170 1.240 . S
C148 O171 1.264 . S
O149 Mn144 2.095 . S
O149 C158 1.250 . S
O150 Mn145 2.121 . S
O150 C158 1.258 . S
C151 N152 1.326 . S
C151 C155 1.460 . S
C151 H157 0.929 . S
N152 Mn145 2.257 . S
N152 C151 1.326 . S
N152 C156 1.362 . S
C153 C154 1.258 1_655 S
C153 C156 1.431 . S
C153 C173 1.449 1_655 S
C154 C153 1.258 1_455 S
C154 C155 1.477 1_455 S
C154 H174 0.931 . S
C155 C151 1.460 . S
C155 C154 1.477 1_655 S
C155 H175 0.930 . S
C156 N152 1.362 . S
C156 C153 1.431 . S
C156 C166 1.476 . S
H157 C151 0.929 . S
C158 O149 1.250 . S
C158 O150 1.258 . S
O159 Mn144 2.162 . S
O159 C147 1.281 . S
O160 Mn144 2.297 . S
O160 C147 1.236 . S
N161 Mn145 2.282 . S
N161 C162 1.328 . S
N161 C166 1.318 . S
C162 N161 1.328 . S
C162 C163 1.457 . S
C162 H167 0.929 . S
C163 C162 1.457 . S
C163 C164 1.291 . S
C163 H176 0.931 . S
C164 C163 1.291 . S
C164 C165 1.373 . S
C164 H177 0.929 . S
C165 C164 1.373 . S
C165 C166 1.396 . S
C165 C172 1.403 . S
C166 C156 1.476 . S
C166 N161 1.318 . S
C166 C165 1.396 . S
H167 C162 0.929 . S
O168 Mn144 2.385 . S
O168 C146 1.234 . S
O169 Mn144 2.209 . S
O169 Mn145 2.215 . S
O169 C146 1.283 . S
O170 Mn144 2.094 . S
O170 C148 1.240 . S
O171 Mn145 2.117 . S
O171 C148 1.264 . S
C172 C165 1.403 . S
C172 C173 1.399 1_655 S
C172 H178 0.929 1_655 S
C173 C153 1.449 1_455 S
C173 C172 1.399 1_455 S
C173 H179 0.930 . S
H174 C154 0.931 . S
H175 C155 0.930 . S
H176 C163 0.931 . S
H177 C164 0.929 . S
H178 C172 0.929 1_455 S
H179 C173 0.930 . S
Mn180 O185 2.095 . S
Mn180 O195 2.162 . S
Mn180 O196 2.297 . S
Mn180 O204 2.385 . S
Mn180 O205 2.209 . S
Mn180 O206 2.094 . S
Mn181 O186 2.121 . S
Mn181 N188 2.257 . S
Mn181 N197 2.282 . S
Mn181 O205 2.215 . S
Mn181 O207 2.117 . S
C182 O204 1.234 . S
C182 O205 1.283 . S
C183 O195 1.281 . S
C183 O196 1.236 . S
C184 O206 1.240 . S
C184 O207 1.264 . S
O185 Mn180 2.095 . S
O185 C194 1.250 . S
O186 Mn181 2.121 . S
O186 C194 1.258 . S
C187 N188 1.326 . S
C187 C191 1.460 . S
C187 H193 0.929 . S
N188 Mn181 2.257 . S
N188 C187 1.326 . S
N188 C192 1.362 . S
C189 C190 1.258 . S
C189 C192 1.431 . S
C189 C209 1.449 . S
C190 C189 1.258 . S
C190 C191 1.477 . S
C190 H210 0.931 . S
C191 C187 1.460 . S
C191 C190 1.477 . S
C191 H211 0.930 . S
C192 N188 1.362 . S
C192 C189 1.431 . S
C192 C202 1.476 . S
H193 C187 0.929 . S
C194 O185 1.250 . S
C194 O186 1.258 . S
O195 Mn180 2.162 . S
O195 C183 1.281 . S
O196 Mn180 2.297 . S
O196 C183 1.236 . S
N197 Mn181 2.282 . S
N197 C198 1.328 . S
N197 C202 1.318 . S
C198 N197 1.328 . S
C198 C199 1.457 . S
C198 H203 0.929 . S
C199 C198 1.457 . S
C199 C200 1.291 . S
C199 H212 0.931 1_545 S
C200 C199 1.291 . S
C200 C201 1.373 . S
C200 H213 0.929 . S
C201 C200 1.373 . S
C201 C202 1.396 . S
C201 C208 1.403 . S
C202 C192 1.476 . S
C202 N197 1.318 . S
C202 C201 1.396 . S
H203 C198 0.929 . S
O204 Mn180 2.385 . S
O204 C182 1.234 . S
O205 Mn180 2.209 . S
O205 Mn181 2.215 . S
O205 C182 1.283 . S
O206 Mn180 2.094 . S
O206 C184 1.240 . S
O207 Mn181 2.117 . S
O207 C184 1.264 . S
C208 C201 1.403 . S
C208 C209 1.399 . S
C208 H214 0.929 . S
C209 C189 1.449 . S
C209 C208 1.399 . S
C209 H215 0.930 . S
H210 C190 0.931 . S
H211 C191 0.930 . S
H212 C199 0.931 1_565 S
H213 C200 0.929 . S
H214 C208 0.929 . S
H215 C209 0.930 . S
Mn216 O221 2.095 . S
Mn216 O231 2.162 . S
Mn216 O232 2.297 . S
Mn216 O240 2.385 . S
Mn216 O241 2.209 . S
Mn216 O242 2.094 . S
Mn217 O222 2.121 . S
Mn217 N224 2.257 . S
Mn217 N233 2.282 . S
Mn217 O241 2.215 . S
Mn217 O243 2.117 . S
C218 O240 1.234 . S
C218 O241 1.283 . S
C219 O231 1.281 . S
C219 O232 1.236 . S
C220 O242 1.240 . S
C220 O243 1.264 . S
O221 Mn216 2.095 . S
O221 C230 1.250 . S
O222 Mn217 2.121 . S
O222 C230 1.258 . S
C223 N224 1.326 . S
C223 C227 1.460 . S
C223 H229 0.929 . S
N224 Mn217 2.257 . S
N224 C223 1.326 . S
N224 C228 1.362 . S
C225 C226 1.258 . S
C225 C228 1.431 . S
C225 C245 1.449 . S
C226 C225 1.258 . S
C226 C227 1.477 . S
C226 H246 0.931 . S
C227 C223 1.460 . S
C227 C226 1.477 . S
C227 H247 0.930 . S
C228 N224 1.362 . S
C228 C225 1.431 . S
C228 C238 1.476 . S
H229 C223 0.929 . S
C230 O221 1.250 . S
C230 O222 1.258 . S
O231 Mn216 2.162 . S
O231 C219 1.281 . S
O232 Mn216 2.297 . S
O232 C219 1.236 . S
N233 Mn217 2.282 . S
N233 C234 1.328 . S
N233 C238 1.318 . S
C234 N233 1.328 . S
C234 C235 1.457 . S
C234 H239 0.929 . S
C235 C234 1.457 . S
C235 C236 1.291 . S
C235 H248 0.931 . S
C236 C235 1.291 . S
C236 C237 1.373 . S
C236 H249 0.929 . S
C237 C236 1.373 . S
C237 C238 1.396 . S
C237 C244 1.403 . S
C238 C228 1.476 . S
C238 N233 1.318 . S
C238 C237 1.396 . S
H239 C234 0.929 . S
O240 Mn216 2.385 . S
O240 C218 1.234 . S
O241 Mn216 2.209 . S
O241 Mn217 2.215 . S
O241 C218 1.283 . S
O242 Mn216 2.094 . S
O242 C220 1.240 . S
O243 Mn217 2.117 . S
O243 C220 1.264 . S
C244 C237 1.403 . S
C244 C245 1.399 . S
C244 H250 0.929 . S
C245 C225 1.449 . S
C245 C244 1.399 . S
C245 H251 0.930 . S
H246 C226 0.931 . S
H247 C227 0.930 . S
H248 C235 0.931 . S
H249 C236 0.929 . S
H250 C244 0.929 . S
H251 C245 0.930 . S
Mn252 O257 2.095 . S
Mn252 O267 2.162 . S
Mn252 O268 2.297 . S
Mn252 O276 2.385 . S
Mn252 O277 2.209 . S
Mn252 O278 2.094 . S
Mn253 O258 2.121 . S
Mn253 N260 2.257 . S
Mn253 N269 2.282 . S
Mn253 O277 2.215 . S
Mn253 O279 2.117 . S
C254 O276 1.234 . S
C254 O277 1.283 . S
C255 O267 1.281 . S
C255 O268 1.236 . S
C256 O278 1.240 . S
C256 O279 1.264 . S
O257 Mn252 2.095 . S
O257 C266 1.250 . S
O258 Mn253 2.121 . S
O258 C266 1.258 . S
C259 N260 1.326 . S
C259 C263 1.460 . S
C259 H265 0.929 . S
N260 Mn253 2.257 . S
N260 C259 1.326 . S
N260 C264 1.362 . S
C261 C262 1.258 1_455 S
C261 C264 1.431 . S
C261 C281 1.449 1_455 S
C262 C261 1.258 1_655 S
C262 C263 1.477 1_655 S
C262 H282 0.931 . S
C263 C259 1.460 . S
C263 C262 1.477 1_455 S
C263 H283 0.930 . S
C264 N260 1.362 . S
C264 C261 1.431 . S
C264 C274 1.476 . S
H265 C259 0.929 . S
C266 O257 1.250 . S
C266 O258 1.258 . S
O267 Mn252 2.162 . S
O267 C255 1.281 . S
O268 Mn252 2.297 . S
O268 C255 1.236 . S
N269 Mn253 2.282 . S
N269 C270 1.328 . S
N269 C274 1.318 . S
C270 N269 1.328 . S
C270 C271 1.457 . S
C270 H275 0.929 . S
C271 C270 1.457 . S
C271 C272 1.291 . S
C271 H284 0.931 1_565 S
C272 C271 1.291 . S
C272 C273 1.373 . S
C272 H285 0.929 . S
C273 C272 1.373 . S
C273 C274 1.396 . S
C273 C280 1.403 . S
C274 C264 1.476 . S
C274 N269 1.318 . S
C274 C273 1.396 . S
H275 C270 0.929 . S
O276 Mn252 2.385 . S
O276 C254 1.234 . S
O277 Mn252 2.209 . S
O277 Mn253 2.215 . S
O277 C254 1.283 . S
O278 Mn252 2.094 . S
O278 C256 1.240 . S
O279 Mn253 2.117 . S
O279 C256 1.264 . S
C280 C273 1.403 . S
C280 C281 1.399 1_455 S
C280 H286 0.929 1_455 S
C281 C261 1.449 1_655 S
C281 C280 1.399 1_655 S
C281 H287 0.930 . S
H282 C262 0.931 . S
H283 C263 0.930 . S
H284 C271 0.931 1_545 S
H285 C272 0.929 . S
H286 C280 0.929 1_655 S
H287 C281 0.930 . S
H288 C296 0.950 . S
H289 C301 0.950 . S
H290 C298 0.950 . S
H291 C300 0.950 . S
H292 C302 0.950 . S
H293 C304 0.950 . S
H294 C306 0.950 . S
H295 C307 0.950 . S
C296 H288 0.950 . S
C296 C297 1.386 . S
C296 C298 1.391 . S
C297 C296 1.386 . S
C297 C301 1.393 . S
C298 H290 0.950 . S
C298 C296 1.391 . S
C298 C299 1.400 . S
C299 C298 1.400 . S
C299 C300 1.398 . S
C299 C305 1.491 . S
C300 H291 0.950 . S
C300 C299 1.398 . S
C300 C301 1.391 . S
C301 H289 0.950 . S
C301 C297 1.393 . S
C301 C300 1.391 . S
C302 H292 0.950 . S
C302 C303 1.386 . S
C302 C304 1.391 . S
C303 C302 1.386 . S
C303 C307 1.393 . S
C304 H293 0.950 . S
C304 C302 1.391 . S
C304 C305 1.400 . S
C305 C299 1.491 . S
C305 C304 1.400 . S
C305 C306 1.398 . S
C306 H294 0.950 . S
C306 C305 1.398 . S
C306 C307 1.391 . S
C307 H295 0.950 . S
C307 C303 1.393 . S
C307 C306 1.391 . S
H308 C316 0.950 . S
H309 C321 0.950 . S
H310 C318 0.946 1_565 S
H311 C320 0.950 . S
H312 C322 0.950 . S
H313 C324 0.950 . S
H314 C326 0.950 . S
H315 C327 0.950 . S
C316 H308 0.950 . S
C316 C317 1.386 1_455 S
C316 C318 1.391 . S
C317 C316 1.386 1_655 S
C317 C321 1.393 . S
C318 H310 0.946 1_545 S
C318 C316 1.391 . S
C318 C319 1.400 . S
C319 C318 1.400 . S
C319 C320 1.398 . S
C319 C325 1.491 1_545 S
C320 H311 0.950 . S
C320 C319 1.398 . S
C320 C321 1.391 1_455 S
C321 H309 0.950 . S
C321 C317 1.393 . S
C321 C320 1.391 1_655 S
C322 H312 0.950 . S
C322 C323 1.386 . S
C322 C324 1.391 1_565 S
C323 C322 1.386 . S
C323 C327 1.393 . S
C324 H313 0.950 . S
C324 C322 1.391 1_545 S
C324 C325 1.400 1_545 S
C325 C319 1.491 1_565 S
C325 C324 1.400 1_565 S
C325 C326 1.398 . S
C326 H314 0.950 . S
C326 C325 1.398 . S
C326 C327 1.391 . S
C327 H315 0.950 . S
C327 C323 1.393 . S
C327 C326 1.391 . S
H328 C336 0.950 . S
H329 C341 0.950 . S
H330 C338 0.950 . S
H331 C340 0.950 . S
H332 C342 0.950 . S
H333 C344 0.950 . S
H334 C346 0.950 . S
H335 C347 0.950 . S
C336 H328 0.950 . S
C336 C337 1.386 . S
C336 C338 1.391 . S
C337 C336 1.386 . S
C337 C341 1.393 . S
C338 H330 0.950 . S
C338 C336 1.391 . S
C338 C339 1.400 . S
C339 C338 1.400 . S
C339 C340 1.398 . S
C339 C345 1.491 . S
C340 H331 0.950 . S
C340 C339 1.398 . S
C340 C341 1.391 . S
C341 H329 0.950 . S
C341 C337 1.393 . S
C341 C340 1.391 . S
C342 H332 0.950 . S
C342 C343 1.386 1_655 S
C342 C344 1.391 . S
C343 C342 1.386 1_455 S
C343 C347 1.393 . S
C344 H333 0.950 . S
C344 C342 1.391 . S
C344 C345 1.400 . S
C345 C339 1.491 . S
C345 C344 1.400 . S
C345 C346 1.398 . S
C346 H334 0.950 . S
C346 C345 1.398 . S
C346 C347 1.391 1_655 S
C347 H335 0.950 . S
C347 C343 1.393 . S
C347 C346 1.391 1_455 S
H348 C356 0.950 . S
H349 C361 0.950 . S
H350 C358 0.950 . S
H351 C360 0.950 . S
H352 C362 0.950 1_545 S
H353 C364 0.950 . S
H354 C366 0.950 . S
H355 C367 0.950 . S
C356 H348 0.950 . S
C356 C357 1.386 1_565 S
C356 C358 1.391 . S
C357 C356 1.386 1_545 S
C357 C361 1.393 . S
C358 H350 0.950 . S
C358 C356 1.391 . S
C358 C359 1.399 1_565 S
C359 C358 1.399 1_545 S
C359 C360 1.400 . S
C359 C365 1.490 1_545 S
C360 H351 0.950 . S
C360 C359 1.400 . S
C360 C361 1.391 . S
C361 H349 0.950 . S
C361 C357 1.393 . S
C361 C360 1.391 . S
C362 H352 0.950 1_565 S
C362 C363 1.386 . S
C362 C364 1.391 1_565 S
C363 C362 1.386 . S
C363 C367 1.393 . S
C364 H353 0.950 . S
C364 C362 1.391 1_545 S
C364 C365 1.400 1_545 S
C365 C359 1.490 1_565 S
C365 C364 1.400 1_565 S
C365 C366 1.398 . S
C366 H354 0.950 . S
C366 C365 1.398 . S
C366 C367 1.391 . S
C367 H355 0.950 . S
C367 C363 1.393 . S
C367 C366 1.391 . S
H368 C376 0.950 . S
H369 C381 0.950 . S
H370 C378 0.950 . S
H371 C380 0.950 . S
H372 C382 0.950 . S
H373 C384 0.950 . S
H374 C386 0.950 . S
H375 C387 0.950 . S
C376 H368 0.950 . S
C376 C377 1.386 . S
C376 C378 1.391 . S
C377 C376 1.386 . S
C377 C381 1.393 . S
C378 H370 0.950 . S
C378 C376 1.391 . S
C378 C379 1.400 . S
C379 C378 1.400 . S
C379 C380 1.398 . S
C379 C385 1.491 . S
C380 H371 0.950 . S
C380 C379 1.398 . S
C380 C381 1.391 . S
C381 H369 0.950 . S
C381 C377 1.393 . S
C381 C380 1.391 . S
C382 H372 0.950 . S
C382 C383 1.386 . S
C382 C384 1.391 . S
C383 C382 1.386 . S
C383 C387 1.393 . S
C384 H373 0.950 . S
C384 C382 1.391 . S
C384 C385 1.400 . S
C385 C379 1.491 . S
C385 C384 1.400 . S
C385 C386 1.398 . S
C386 H374 0.950 . S
C386 C385 1.398 . S
C386 C387 1.391 . S
C387 H375 0.950 . S
C387 C383 1.393 . S
C387 C386 1.391 . S
H388 C396 0.950 . S
H389 C401 0.950 . S
H390 C398 0.950 1_565 S
H391 C400 0.950 . S
H392 C402 0.950 . S
H393 C404 0.950 . S
H394 C406 0.950 . S
H395 C407 0.950 . S
C396 H388 0.950 . S
C396 C397 1.386 . S
C396 C398 1.391 . S
C397 C396 1.386 . S
C397 C401 1.393 . S
C398 H390 0.950 1_545 S
C398 C396 1.391 . S
C398 C399 1.400 1_545 S
C399 C398 1.400 1_565 S
C399 C400 1.398 1_565 S
C399 C405 1.490 . S
C400 H391 0.950 . S
C400 C399 1.398 1_545 S
C400 C401 1.391 . S
C401 H389 0.950 . S
C401 C397 1.393 . S
C401 C400 1.391 . S
C402 H392 0.950 . S
C402 C403 1.386 . S
C402 C404 1.391 1_455 S
C403 C402 1.386 . S
C403 C407 1.393 1_455 S
C404 H393 0.950 . S
C404 C402 1.391 1_655 S
C404 C405 1.400 . S
C405 C399 1.490 . S
C405 C404 1.400 . S
C405 C406 1.398 . S
C406 H394 0.950 . S
C406 C405 1.398 . S
C406 C407 1.391 . S
C407 H395 0.950 . S
C407 C403 1.393 1_655 S
C407 C406 1.391 . S
H408 C416 0.950 . S
H409 C421 0.950 . S
H410 C418 0.950 . S
H411 C420 0.950 . S
H412 C422 0.950 . S
H413 C424 0.950 . S
H414 C426 0.950 . S
H415 C427 0.950 1_655 S
C416 H408 0.950 . S
C416 C417 1.386 . S
C416 C418 1.391 . S
C417 C416 1.386 . S
C417 C421 1.393 . S
C418 H410 0.950 . S
C418 C416 1.391 . S
C418 C419 1.400 . S
C419 C418 1.400 . S
C419 C420 1.398 . S
C419 C425 1.491 . S
C420 H411 0.950 . S
C420 C419 1.398 . S
C420 C421 1.391 . S
C421 H409 0.950 . S
C421 C417 1.393 . S
C421 C420 1.391 . S
C422 H412 0.950 . S
C422 C423 1.386 1_455 S
C422 C424 1.391 . S
C423 C422 1.386 1_655 S
C423 C427 1.393 1_655 S
C424 H413 0.950 . S
C424 C422 1.391 . S
C424 C425 1.400 . S
C425 C419 1.491 . S
C425 C424 1.400 . S
C425 C426 1.398 . S
C426 H414 0.950 . S
C426 C425 1.398 . S
C426 C427 1.391 . S
C427 H415 0.950 1_455 S
C427 C423 1.393 1_455 S
C427 C426 1.391 . S
H428 C436 0.950 . S
H429 C441 0.950 . S
H430 C438 0.950 . S
H431 C440 0.950 . S
H432 C442 0.950 . S
H433 C444 0.950 . S
H434 C446 0.950 . S
H435 C447 0.950 . S
C436 H428 0.950 . S
C436 C437 1.386 1_545 S
C436 C438 1.391 . S
C437 C436 1.386 1_565 S
C437 C441 1.393 . S
C438 H430 0.950 . S
C438 C436 1.391 . S
C438 C439 1.393 1_545 S
C439 C438 1.393 1_565 S
C439 C440 1.409 . S
C439 C445 1.487 1_565 S
C440 H431 0.950 . S
C440 C439 1.409 . S
C440 C441 1.391 . S
C441 H429 0.950 . S
C441 C437 1.393 . S
C441 C440 1.391 . S
C442 H432 0.950 . S
C442 C443 1.386 1_565 S
C442 C444 1.391 . S
C443 C442 1.386 1_545 S
C443 C447 1.393 . S
C444 H433 0.950 . S
C444 C442 1.391 . S
C444 C445 1.400 1_565 S
C445 C439 1.487 1_545 S
C445 C444 1.400 1_545 S
C445 C446 1.398 . S
C446 H434 0.950 . S
C446 C445 1.398 . S
C446 C447 1.391 . S
C447 H435 0.950 . S
C447 C443 1.393 . S
C447 C446 1.391 . S
H448 C456 0.950 . S
H449 C461 0.950 . S
H450 C458 0.950 . S
H451 C460 0.950 1_655 S
H452 C462 0.950 . S
H453 C464 0.950 . S
H454 C466 0.950 1_455 S
H455 C467 0.950 . S
C456 H448 0.950 . S
C456 C457 1.386 . S
C456 C458 1.391 . S
C457 C456 1.386 . S
C457 C461 1.393 . S
C458 H450 0.950 . S
C458 C456 1.391 . S
C458 C459 1.400 . S
C459 C458 1.400 . S
C459 C460 1.398 . S
C459 C465 1.491 1_455 S
C460 H451 0.950 1_455 S
C460 C459 1.398 . S
C460 C461 1.391 . S
C461 H449 0.950 . S
C461 C457 1.393 . S
C461 C460 1.391 . S
C462 H452 0.950 . S
C462 C463 1.386 . S
C462 C464 1.391 . S
C463 C462 1.386 . S
C463 C467 1.393 . S
C464 H453 0.950 . S
C464 C462 1.391 . S
C464 C465 1.400 . S
C465 C459 1.491 1_655 S
C465 C464 1.400 . S
C465 C466 1.398 . S
C466 H454 0.950 1_655 S
C466 C465 1.398 . S
C466 C467 1.391 . S
C467 H455 0.950 . S
C467 C463 1.393 . S
C467 C466 1.391 . S
H468 C476 0.950 1_545 S
H469 C481 0.950 . S
H470 C478 0.950 . S
H471 C480 0.950 . S
H472 C482 0.950 1_565 S
H473 C484 0.950 . S
H474 C486 0.950 . S
H475 C487 0.950 . S
C476 H468 0.950 1_565 S
C476 C477 1.386 . S
C476 C478 1.391 1_565 S
C477 C476 1.386 . S
C477 C481 1.393 . S
C478 H470 0.950 . S
C478 C476 1.391 1_545 S
C478 C479 1.400 1_545 S
C479 C478 1.400 1_565 S
C479 C480 1.398 . S
C479 C485 1.491 1_565 S
C480 H471 0.950 . S
C480 C479 1.398 . S
C480 C481 1.391 . S
C481 H469 0.950 . S
C481 C477 1.393 . S
C481 C480 1.391 . S
C482 H472 0.950 1_545 S
C482 C483 1.386 . S
C482 C484 1.391 1_545 S
C483 C482 1.386 . S
C483 C487 1.393 . S
C484 H473 0.950 . S
C484 C482 1.391 1_565 S
C484 C485 1.400 1_565 S
C485 C479 1.491 1_545 S
C485 C484 1.400 1_545 S
C485 C486 1.398 . S
C486 H474 0.950 . S
C486 C485 1.398 . S
C486 C487 1.391 . S
C487 H475 0.950 . S
C487 C483 1.393 . S
C487 C486 1.391 . S
H488 C496 0.950 . S
H489 C501 0.950 . S
H490 C498 0.950 . S
H491 C500 0.950 1_556 S
H492 C502 0.950 . S
H493 C504 0.950 . S
H494 C506 0.950 1_554 S
H495 C507 0.950 . S
C496 H488 0.950 . S
C496 C497 1.386 . S
C496 C498 1.391 . S
C497 C496 1.386 . S
C497 C501 1.393 . S
C498 H490 0.950 . S
C498 C496 1.391 . S
C498 C499 1.400 . S
C499 C498 1.400 . S
C499 C500 1.398 . S
C499 C505 1.491 1_554 S
C500 H491 0.950 1_554 S
C500 C499 1.398 . S
C500 C501 1.391 . S
C501 H489 0.950 . S
C501 C497 1.393 . S
C501 C500 1.391 . S
C502 H492 0.950 . S
C502 C503 1.386 . S
C502 C504 1.391 . S
C503 C502 1.386 . S
C503 C507 1.393 . S
C504 H493 0.950 . S
C504 C502 1.391 . S
C504 C505 1.400 . S
C505 C499 1.491 1_556 S
C505 C504 1.400 . S
C505 C506 1.398 . S
C506 H494 0.950 1_556 S
C506 C505 1.398 . S
C506 C507 1.391 . S
C507 H495 0.950 . S
C507 C503 1.393 . S
C507 C506 1.391 . S
H508 C516 0.950 . S
H509 C521 0.950 . S
H510 C518 0.950 . S
H511 C520 0.950 1_554 S
H512 C522 0.950 . S
H513 C524 0.950 . S
H514 C526 0.950 1_556 S
H515 C527 0.950 . S
C516 H508 0.950 . S
C516 C517 1.386 . S
C516 C518 1.391 1_465 S
C517 C516 1.386 . S
C517 C521 1.393 . S
C518 H510 0.950 . S
C518 C516 1.391 1_645 S
C518 C519 1.400 1_645 S
C519 C518 1.400 1_465 S
C519 C520 1.398 . S
C519 C525 1.491 1_466 S
C520 H511 0.950 1_556 S
C520 C519 1.398 . S
C520 C521 1.391 . S
C521 H509 0.950 . S
C521 C517 1.393 . S
C521 C520 1.391 . S
C522 H512 0.950 . S
C522 C523 1.386 . S
C522 C524 1.391 1_645 S
C523 C522 1.386 . S
C523 C527 1.393 . S
C524 H513 0.950 . S
C524 C522 1.391 1_465 S
C524 C525 1.400 1_465 S
C525 C519 1.491 1_644 S
C525 C524 1.400 1_645 S
C525 C526 1.398 . S
C526 H514 0.950 1_554 S
C526 C525 1.398 . S
C526 C527 1.391 . S
C527 H515 0.950 . S
C527 C523 1.393 . S
C527 C526 1.391 . S
H528 C536 0.950 . S
H529 C541 0.950 . S
H530 C538 0.950 . S
H531 C540 0.950 . S
H532 C542 0.950 . S
H533 C544 0.950 . S
H534 C546 0.950 . S
H535 C547 0.950 . S
C536 H528 0.950 . S
C536 C537 1.386 . S
C536 C538 1.391 . S
C537 C536 1.386 . S
C537 C541 1.393 . S
C538 H530 0.950 . S
C538 C536 1.391 . S
C538 C539 1.400 . S
C539 C538 1.400 . S
C539 C540 1.398 . S
C539 C545 1.491 . S
C540 H531 0.950 . S
C540 C539 1.398 . S
C540 C541 1.391 . S
C541 H529 0.950 . S
C541 C537 1.393 . S
C541 C540 1.391 . S
C542 H532 0.950 . S
C542 C543 1.386 . S
C542 C544 1.391 . S
C543 C542 1.386 . S
C543 C547 1.393 . S
C544 H533 0.950 . S
C544 C542 1.391 . S
C544 C545 1.400 . S
C545 C539 1.491 . S
C545 C544 1.400 . S
C545 C546 1.398 . S
C546 H534 0.950 . S
C546 C545 1.398 . S
C546 C547 1.391 . S
C547 H535 0.950 . S
C547 C543 1.393 . S
C547 C546 1.391 . S
H548 C556 0.950 . S
H549 C561 0.950 . S
H550 C558 0.950 . S
H551 C560 0.950 . S
H552 C562 0.950 . S
H553 C564 0.950 . S
H554 C566 0.950 . S
H555 C567 0.950 . S
C556 H548 0.950 . S
C556 C557 1.386 . S
C556 C558 1.391 . S
C557 C556 1.386 . S
C557 C561 1.393 . S
C558 H550 0.950 . S
C558 C556 1.391 . S
C558 C559 1.400 . S
C559 C558 1.400 . S
C559 C560 1.398 . S
C559 C565 1.491 . S
C560 H551 0.950 . S
C560 C559 1.398 . S
C560 C561 1.391 . S
C561 H549 0.950 . S
C561 C557 1.393 . S
C561 C560 1.391 . S
C562 H552 0.950 . S
C562 C563 1.386 . S
C562 C564 1.391 . S
C563 C562 1.386 . S
C563 C567 1.393 . S
C564 H553 0.950 . S
C564 C562 1.391 . S
C564 C565 1.400 . S
C565 C559 1.491 . S
C565 C564 1.400 . S
C565 C566 1.398 . S
C566 H554 0.950 . S
C566 C565 1.398 . S
C566 C567 1.391 . S
C567 H555 0.950 . S
C567 C563 1.393 . S
C567 C566 1.391 . S
H568 C576 0.950 . S
H569 C581 0.950 . S
H570 C578 0.950 . S
H571 C580 0.950 . S
H572 C582 0.950 . S
H573 C584 0.950 . S
H574 C586 0.950 . S
H575 C587 0.950 . S
C576 H568 0.950 . S
C576 C577 1.386 . S
C576 C578 1.391 . S
C577 C576 1.386 . S
C577 C581 1.393 . S
C578 H570 0.950 . S
C578 C576 1.391 . S
C578 C579 1.400 . S
C579 C578 1.400 . S
C579 C580 1.398 . S
C579 C585 1.491 . S
C580 H571 0.950 . S
C580 C579 1.398 . S
C580 C581 1.391 . S
C581 H569 0.950 . S
C581 C577 1.393 . S
C581 C580 1.391 . S
C582 H572 0.950 . S
C582 C583 1.386 . S
C582 C584 1.391 . S
C583 C582 1.386 . S
C583 C587 1.393 . S
C584 H573 0.950 . S
C584 C582 1.391 . S
C584 C585 1.400 . S
C585 C579 1.491 . S
C585 C584 1.400 . S
C585 C586 1.398 . S
C586 H574 0.950 . S
C586 C585 1.398 . S
C586 C587 1.391 . S
C587 H575 0.950 . S
C587 C583 1.393 . S
C587 C586 1.391 . S
H588 C596 0.950 . S
H589 C601 0.950 . S
H590 C598 0.950 . S
H591 C600 0.950 . S
H592 C602 0.950 . S
H593 C604 0.950 . S
H594 C606 0.950 . S
H595 C607 0.950 . S
C596 H588 0.950 . S
C596 C597 1.386 . S
C596 C598 1.391 . S
C597 C596 1.386 . S
C597 C601 1.393 . S
C598 H590 0.950 . S
C598 C596 1.391 . S
C598 C599 1.400 . S
C599 C598 1.400 . S
C599 C600 1.398 . S
C599 C605 1.491 . S
C600 H591 0.950 . S
C600 C599 1.398 . S
C600 C601 1.391 . S
C601 H589 0.950 . S
C601 C597 1.393 . S
C601 C600 1.391 . S
C602 H592 0.950 . S
C602 C603 1.386 . S
C602 C604 1.391 . S
C603 C602 1.386 . S
C603 C607 1.393 . S
C604 H593 0.950 . S
C604 C602 1.391 . S
C604 C605 1.400 . S
C605 C599 1.491 . S
C605 C604 1.400 . S
C605 C606 1.398 . S
C606 H594 0.950 . S
C606 C605 1.398 . S
C606 C607 1.391 . S
C607 H595 0.950 . S
C607 C603 1.393 . S
C607 C606 1.391 . S
C297 C4 1.323 . S
C303 C74 1.338 . S
C317 C110 1.347 . S
C323 C40 1.327 . S
C337 C76 1.330 . S
C343 C2 1.334 . S
C357 C112 1.326 . S
C363 C38 1.336 . S
C377 C218 1.334 . S
C383 C148 1.331 . S
C397 C184 1.337 . S
C403 C254 1.335 . S
C417 C220 1.334 . S
C423 C146 1.346 . S
C437 C256 1.339 . S
C443 C182 1.341 . S
C457 C3 1.520 . S
C463 C147 1.520 . S
C477 C39 1.523 . S
C483 C183 1.523 . S
C497 C75 1.520 . S
C503 C219 1.520 . S
C517 C255 1.521 . S
C523 C111 1.521 . S
C537 C14 1.453 . S
C543 C50 1.449 . S
C557 C122 1.458 . S
C563 C86 1.443 . S
C577 C194 1.451 . S
C583 C158 1.435 . S
C597 C230 1.445 . S
C603 C266 1.457 . S
