# Generated by pormake.
# Topology npo, (4)-cn, num edge types: 1
# Building blocks:
#     Node 0, Type 0, BuildingBlock: QUQFOY_clean_sbu_1, # of connection points: 4
#     Node 1, Type 0, BuildingBlock: QUQFOY_clean_sbu_1, # of connection points: 4
#     Node 2, Type 0, BuildingBlock: QUQFOY_clean_sbu_1, # of connection points: 4
#     Node 3, Type 0, BuildingBlock: QUQFOY_clean_sbu_1, # of connection points: 4
#     Node 4, Type 0, BuildingBlock: QUQFOY_clean_sbu_1, # of connection points: 4
#     Node 5, Type 0, BuildingBlock: QUQFOY_clean_sbu_1, # of connection points: 4
#     Edge 6, Type (0, 0), BuildingBlock: EZIPEK_clean_linker_0, # of connection points: 2
#     Edge 7, Type (0, 0), BuildingBlock: EZIPEK_clean_linker_0, # of connection points: 2
#     Edge 8, Type (0, 0), BuildingBlock: EZIPEK_clean_linker_0, # of connection points: 2
#     Edge 9, Type (0, 0), BuildingBlock: EZIPEK_clean_linker_0, # of connection points: 2
#     Edge 10, Type (0, 0), BuildingBlock: EZIPEK_clean_linker_0, # of connection points: 2
#     Edge 11, Type (0, 0), BuildingBlock: EZIPEK_clean_linker_0, # of connection points: 2
#     Edge 12, Type (0, 0), BuildingBlock: EZIPEK_clean_linker_0, # of connection points: 2
#     Edge 13, Type (0, 0), BuildingBlock: EZIPEK_clean_linker_0, # of connection points: 2
#     Edge 14, Type (0, 0), BuildingBlock: EZIPEK_clean_linker_0, # of connection points: 2
#     Edge 15, Type (0, 0), BuildingBlock: EZIPEK_clean_linker_0, # of connection points: 2
#     Edge 16, Type (0, 0), BuildingBlock: EZIPEK_clean_linker_0, # of connection points: 2
#     Edge 17, Type (0, 0), BuildingBlock: EZIPEK_clean_linker_0, # of connection points: 2
# Relax obj value: 0.257
# Max RMSD: 0.247
# Mean RMSD: 0.247
data_MOF--net-npo--node1-QUQFOY_clean_sbu_1--edge1-EZIPEK_clean_linker_0
_symmetry_space_group_name_H-M    P1
_symmetry_Int_Tables_number       1
_symmetry_cell_setting            triclinic
loop_
_symmetry_equiv_pos_as_xyz
'x, y, z'
_cell_length_a     33.247977
_cell_length_b     33.23237
_cell_length_c     20.016599
_cell_angle_alpha  89.798414
_cell_angle_beta   90.472776
_cell_angle_gamma 120.43226
loop_
_atom_site_label
_atom_site_type_symbol
_atom_site_fract_x
_atom_site_fract_y
_atom_site_fract_z
_atom_type_partial_charge
O0 O 0.60456 0.14734 0.34755 0.0
Cd1 Cd 0.53286 0.11124 0.35349 0.0
Cd2 Cd 0.54061 0.11442 0.21675 0.0
O3 O 0.6109 0.14677 0.23871 0.0
O4 O 0.51988 0.09053 0.44803 0.0
O5 O 0.49868 0.04151 0.36233 0.0
C6 C 0.5003 0.04834 0.42605 0.0
C7 C 0.51249 0.05923 0.13188 0.0
C8 C 0.62997 0.15694 0.29617 0.0
C9 C 0.49004 0.15919 0.28028 0.0
O10 O 0.50634 0.15108 0.22815 0.0
O11 O 0.49746 0.14651 0.33671 0.0
O12 O 0.53743 0.10309 0.11878 0.0
O13 O 0.50371 0.04631 0.19356 0.0
O14 O 0.4482 0.62045 0.83055 0.0
Cd15 Cd 0.41521 0.54857 0.83839 0.0
Cd16 Cd 0.40615 0.55803 0.70544 0.0
O17 O 0.44749 0.62829 0.72186 0.0
O18 O 0.42458 0.54089 0.93489 0.0
O19 O 0.45247 0.51675 0.85422 0.0
C20 C 0.44737 0.52099 0.91719 0.0
C21 C 0.42973 0.52166 0.63036 0.0
C22 C 0.45975 0.64664 0.77941 0.0
C23 C 0.31837 0.51109 0.78334 0.0
O24 O 0.33679 0.52965 0.72786 0.0
O25 O 0.34336 0.51074 0.83135 0.0
O26 O 0.41157 0.54586 0.60985 0.0
O27 O 0.43408 0.51762 0.69393 0.0
O28 O 0.79393 0.3433 0.22412 0.0
Cd29 Cd 0.83264 0.41247 0.19856 0.0
Cd30 Cd 0.8574 0.42352 0.32971 0.0
O31 O 0.82501 0.35168 0.3244 0.0
O32 O 0.84268 0.4165 0.10056 0.0
O33 O 0.90019 0.44371 0.17577 0.0
C34 C 0.88673 0.43729 0.11395 0.0
C35 C 0.91973 0.4576 0.4053 0.0
C36 C 0.79674 0.32587 0.27925 0.0
C37 C 0.79371 0.45795 0.27865 0.0
O38 O 0.81333 0.45056 0.32816 0.0
O39 O 0.80012 0.44888 0.2196 0.0
O40 O 0.87742 0.43283 0.42517 0.0
O41 O 0.92728 0.46393 0.34196 0.0
O42 O 0.42133 0.80378 0.72474 0.0
Cd43 Cd 0.39317 0.84535 0.70552 0.0
Cd44 Cd 0.40912 0.86479 0.83858 0.0
O45 O 0.4466 0.83142 0.82593 0.0
O46 O 0.39918 0.85976 0.60853 0.0
O47 O 0.43381 0.91357 0.68791 0.0
C48 C 0.42538 0.90297 0.62526 0.0
C49 C 0.44003 0.92471 0.91728 0.0
C50 C 0.44308 0.80501 0.77785 0.0
C51 C 0.30859 0.811 0.78752 0.0
O52 O 0.33693 0.82512 0.83665 0.0
O53 O 0.32433 0.81751 0.72852 0.0
O54 O 0.4212 0.88172 0.93489 0.0
O55 O 0.44154 0.93426 0.85447 0.0
O56 O 0.50993 0.35048 0.34066 0.0
Cd57 Cd 0.53337 0.42051 0.35712 0.0
Cd58 Cd 0.52887 0.41889 0.22383 0.0
O59 O 0.48341 0.34905 0.23925 0.0
O60 O 0.52307 0.42731 0.453 0.0
O61 O 0.49122 0.4466 0.37014 0.0
C62 C 0.49772 0.44435 0.43347 0.0
C63 C 0.50967 0.45197 0.13565 0.0
C64 C 0.48862 0.32791 0.28839 0.0
C65 C 0.62273 0.45999 0.29235 0.0
O66 O 0.59854 0.44063 0.24029 0.0
O67 O 0.60356 0.46357 0.34462 0.0
O68 O 0.52484 0.42383 0.12511 0.0
O69 O 0.5062 0.46242 0.19659 0.0
O70 O 0.12716 0.50584 0.83287 0.0
Cd71 Cd 0.08831 0.53859 0.83424 0.0
Cd72 Cd 0.11206 0.54828 0.70204 0.0
O73 O 0.14024 0.5076 0.72533 0.0
O74 O 0.06761 0.52947 0.92876 0.0
O75 O 0.01827 0.50123 0.84332 0.0
C76 C 0.02538 0.50645 0.907 0.0
C77 C 0.05789 0.52504 0.61625 0.0
C78 C 0.14397 0.49507 0.78394 0.0
C79 C 0.15002 0.63574 0.78195 0.0
O80 O 0.15171 0.61772 0.72697 0.0
O81 O 0.12337 0.6104 0.82837 0.0
O82 O 0.1018 0.54414 0.60372 0.0
O83 O 0.04461 0.51944 0.67782 0.0
C84 C 0.47632 0.21626 0.21674 0.0
C85 C 0.4698 0.19059 0.276 0.0
C86 C 0.45449 0.24638 0.33451 0.0
C87 C 0.4762 0.27842 0.2811 0.0
N88 N 0.51424 0.29389 0.1727 0.0
N89 N 0.437 0.17298 0.38648 0.0
C90 C 0.48812 0.26329 0.22186 0.0
C91 C 0.45373 0.20298 0.33366 0.0
N92 N 0.47072 0.1958 0.15578 0.0
N93 N 0.43365 0.25698 0.38453 0.0
H94 H 0.42844 0.13823 0.38239 0.0
H95 H 0.43078 0.18205 0.43337 0.0
H96 H 0.43202 0.28753 0.38447 0.0
H97 H 0.41453 0.23413 0.42278 0.0
H98 H 0.47274 0.21303 0.11117 0.0
H99 H 0.45727 0.15995 0.15075 0.0
H100 H 0.52633 0.28376 0.13183 0.0
H101 H 0.52894 0.32989 0.17606 0.0
C102 C 0.25165 0.50577 0.85017 0.0
C103 C 0.26781 0.49279 0.79306 0.0
C104 C 0.19013 0.45927 0.74175 0.0
C105 C 0.17644 0.47698 0.79584 0.0
N106 N 0.18373 0.48801 0.91521 0.0
N107 N 0.24796 0.44266 0.6967 0.0
C108 C 0.20359 0.49028 0.85494 0.0
C109 C 0.23545 0.46459 0.74262 0.0
N110 N 0.28186 0.53592 0.89713 0.0
N111 N 0.15988 0.43798 0.68976 0.0
H112 H 0.28031 0.44466 0.69818 0.0
H113 H 0.22516 0.41925 0.6612 0.0
H114 H 0.12505 0.42941 0.6922 0.0
H115 H 0.16911 0.42923 0.64486 0.0
H116 H 0.271 0.5492 0.93562 0.0
H117 H 0.31797 0.55182 0.89426 0.0
H118 H 0.20214 0.49508 0.9602 0.0
H119 H 0.14768 0.47232 0.92059 0.0
C120 C 0.70073 0.21512 0.36021 0.0
C121 C 0.68189 0.18764 0.30221 0.0
C122 C 0.75333 0.24209 0.24262 0.0
C123 C 0.76289 0.27593 0.29297 0.0
N124 N 0.74167 0.29385 0.40068 0.0
N125 N 0.69782 0.1663 0.19518 0.0
C126 C 0.73637 0.26216 0.35296 0.0
C127 C 0.7109 0.19823 0.24549 0.0
N128 N 0.68508 0.19634 0.42187 0.0
N129 N 0.7851 0.25191 0.19318 0.0
H130 H 0.67066 0.13191 0.20095 0.0
H131 H 0.71386 0.17344 0.14875 0.0
H132 H 0.81712 0.28308 0.19203 0.0
H133 H 0.78184 0.2281 0.15686 0.0
H134 H 0.70004 0.21474 0.46595 0.0
H135 H 0.66222 0.16065 0.42851 0.0
H136 H 0.71926 0.28487 0.44129 0.0
H137 H 0.76462 0.32959 0.39719 0.0
C138 C 0.45288 0.74561 0.84418 0.0
C139 C 0.46159 0.77286 0.78521 0.0
C140 C 0.4919 0.72761 0.73085 0.0
C141 C 0.47807 0.69785 0.78743 0.0
N142 N 0.47603 0.69861 0.90767 0.0
N143 N 0.50477 0.80052 0.68262 0.0
C144 C 0.46905 0.71372 0.84762 0.0
C145 C 0.48622 0.76737 0.73156 0.0
N146 N 0.42595 0.74664 0.8946 0.0
N147 N 0.5103 0.71764 0.67707 0.0
H148 H 0.50282 0.83087 0.68388 0.0
H149 H 0.5256 0.80026 0.64431 0.0
H150 H 0.52018 0.69243 0.67947 0.0
H151 H 0.51579 0.73406 0.63091 0.0
H152 H 0.41582 0.72382 0.93512 0.0
H153 H 0.40925 0.76596 0.89307 0.0
H154 H 0.47226 0.71156 0.95313 0.0
H155 H 0.49211 0.67865 0.91126 0.0
C156 C 0.70826 0.50174 0.26534 0.0
C157 C 0.66925 0.4649 0.29809 0.0
C158 C 0.7129 0.4252 0.32036 0.0
C159 C 0.75288 0.46313 0.29072 0.0
N160 N 0.79159 0.54037 0.24374 0.0
N161 N 0.63701 0.39634 0.36883 0.0
C162 C 0.75149 0.50243 0.26591 0.0
C163 C 0.67266 0.42856 0.33016 0.0
N164 N 0.70353 0.53529 0.23262 0.0
N165 N 0.71169 0.38414 0.33391 0.0
H166 H 0.60514 0.39478 0.37417 0.0
H167 H 0.64043 0.37315 0.40019 0.0
H168 H 0.73938 0.37864 0.32528 0.0
H169 H 0.68145 0.35353 0.34739 0.0
H170 H 0.72897 0.56034 0.20171 0.0
H171 H 0.67283 0.53659 0.23392 0.0
H172 H 0.79406 0.57181 0.23024 0.0
H173 H 0.82354 0.5415 0.24376 0.0
C174 C 0.22591 0.76458 0.74394 0.0
C175 C 0.25766 0.77821 0.79846 0.0
C176 C 0.21079 0.70273 0.85132 0.0
C177 C 0.18193 0.68641 0.79314 0.0
N178 N 0.15172 0.70559 0.69588 0.0
N179 N 0.26154 0.77078 0.91768 0.0
C180 C 0.18606 0.71873 0.7431 0.0
C181 C 0.2437 0.75088 0.85703 0.0
N182 N 0.2344 0.79547 0.69335 0.0
N183 N 0.21013 0.67256 0.89848 0.0
H184 H 0.28239 0.80687 0.92338 0.0
H185 H 0.25011 0.7524 0.96246 0.0
H186 H 0.18933 0.63644 0.89529 0.0
H187 H 0.23415 0.68346 0.93781 0.0
H188 H 0.21619 0.78668 0.64819 0.0
H189 H 0.26031 0.83056 0.69746 0.0
H190 H 0.15104 0.72806 0.66016 0.0
H191 H 0.1215 0.67276 0.69608 0.0
C192 C 0.42716 0.96464 1.0134 0.0
C193 C 0.45857 0.9616 0.9689 0.0
C194 C 0.52517 0.02009 0.03441 0.0
C195 C 0.49383 0.0249 0.07677 0.0
N196 N 0.41594 0.00843 0.10061 0.0
N197 N 0.53706 -0.00991 0.93066 0.0
C198 C 0.44502 -0.00114 0.06484 0.0
C199 C 0.5075 -0.0093 0.97723 0.0
N200 N 0.38019 0.93457 1.00665 0.0
N201 N 0.57156 0.04186 0.05077 0.0
H202 H 0.52559 0.96746 0.88985 0.0
H203 H 0.57268 0.01415 0.92965 0.0
H204 H 0.58568 0.06317 0.09274 0.0
H205 H 0.59556 0.03593 1.02626 0.0
H206 H 0.35593 0.93077 0.04238 0.0
H207 H 0.36541 0.9114 0.9667 0.0
H208 H 0.38072 -0.0055 0.08938 0.0
H209 H 0.42768 0.03338 0.13854 0.0
C210 C 0.51187 0.50399 0.52015 0.0
C211 C 0.47967 0.46408 0.48298 0.0
C212 C 0.41432 0.46272 0.54101 0.0
C213 C 0.44673 0.50056 0.58146 0.0
N214 N 0.52612 0.55428 0.6156 0.0
N215 N 0.40111 0.40144 0.46267 0.0
C216 C 0.49546 0.52014 0.57307 0.0
C217 C 0.43104 0.44243 0.49437 0.0
N218 N 0.55792 0.52787 0.50255 0.0
N219 N 0.36759 0.44631 0.54713 0.0
H220 H 0.41219 0.3858 0.42799 0.0
H221 H 0.36586 0.38106 0.47397 0.0
H222 H 0.35384 0.45819 0.58361 0.0
H223 H 0.34248 0.42272 0.51397 0.0
H224 H 0.5823 0.56011 0.52255 0.0
H225 H 0.57128 0.5176 0.46343 0.0
H226 H 0.56163 0.5658 0.61747 0.0
H227 H 0.51582 0.56925 0.65241 0.0
C228 C 0.95986 0.43927 0.96729 0.0
C229 C -0.01348 0.48793 0.95493 0.0
C230 C 0.94883 0.50338 0.04811 0.0
C231 C 0.921 0.4546 0.05919 0.0
N232 N 0.89488 0.37545 1.02519 0.0
N233 N 0.00109 0.56573 0.97392 0.0
C234 C 0.92476 0.42231 1.01717 0.0
C235 C -0.02046 0.51986 0.99272 0.0
N236 N 0.96977 0.40958 0.93372 0.0
N237 N 0.94606 0.53396 0.09076 0.0
H238 H 0.02338 0.57883 0.93303 0.0
H239 H -0.006 0.59009 0.99481 0.0
H240 H 0.92189 0.5234 0.12932 0.0
H241 H 0.96937 0.56977 0.09056 0.0
H242 H 0.95561 0.37449 0.94571 0.0
H243 H -0.00528 0.42065 0.89615 0.0
H244 H 0.89196 0.35035 0.9914 0.0
H245 H 0.87083 0.36149 0.06392 0.0
C246 C 0.51197 0.00213 0.51507 0.0
C247 C 0.48105 0.009 0.4737 0.0
C248 C 0.41388 0.94805 0.53426 0.0
C249 C 0.44464 0.93955 0.57332 0.0
N250 N 0.5217 0.95227 0.59448 0.0
N251 N 0.40288 -0.01489 0.43675 0.0
C252 C 0.49342 0.96498 0.56214 0.0
C253 C 0.43204 0.98069 0.48086 0.0
N254 N 0.55911 0.03136 0.5096 0.0
N255 N 0.36765 0.92663 0.55044 0.0
H256 H 0.41479 0.01015 0.39898 0.0
H257 H 0.36705 0.96198 0.43443 0.0
H258 H 0.3531 0.90284 0.58961 0.0
H259 H 0.34429 0.93508 0.52889 0.0
H260 H 0.58329 0.03207 0.54366 0.0
H261 H 0.57422 0.05689 0.47268 0.0
H262 H 0.55677 0.96591 0.58329 0.0
H263 H 0.50932 0.92519 0.62923 0.0
C264 C 0.50305 0.53547 1.01146 0.0
C265 C 0.46653 0.50333 0.96885 0.0
C266 C 0.45673 0.43808 0.03811 0.0
C267 C 0.49478 0.46997 0.07877 0.0
N268 N 0.55937 0.54761 0.09855 0.0
N269 N 0.41302 0.42402 0.93475 0.0
C270 C 0.51936 0.51836 0.06405 0.0
C271 C 0.44498 0.45457 0.97981 0.0
N272 N 0.52187 0.58239 1.00187 0.0
N273 N 0.4302 0.39243 0.05733 0.0
H274 H 0.40169 0.43463 0.89318 0.0
H275 H 0.40017 0.38821 0.93569 0.0
H276 H 0.43708 0.37908 0.10036 0.0
H277 H 0.39897 0.36854 0.03415 0.0
H278 H 0.54425 0.60757 0.03592 0.0
H279 H 0.51329 0.5963 0.96109 0.0
H280 H 0.58177 0.58233 0.08563 0.0
H281 H 0.57237 0.53627 0.13732 0.0
C282 C 0.0201 0.54092 0.51873 0.0
C283 C 0.02352 0.50828 0.56087 0.0
C284 C 0.96498 0.44359 0.49279 0.0
C285 C 0.95824 0.47583 0.45478 0.0
N286 N -0.02466 0.55443 0.43434 0.0
N287 N -0.00251 0.42864 0.59222 0.0
C288 C -0.01497 0.52441 0.46799 0.0
C289 C -0.00464 0.4596 0.54918 0.0
N290 N 0.05032 0.58767 0.52736 0.0
N291 N 0.94364 0.39787 0.47318 0.0
H292 H 0.02128 0.43884 0.63179 0.0
H293 H -0.02613 0.39289 0.59139 0.0
H294 H 0.92172 0.38507 0.43143 0.0
H295 H 0.95072 0.37344 0.49429 0.0
H296 H 0.05338 0.61301 0.49373 0.0
H297 H 0.07454 0.60122 0.56644 0.0
H298 H -0.0103 0.58948 0.44676 0.0
H299 H 0.95034 0.54365 0.39633 0.0
loop_
_geom_bond_atom_site_label_1
_geom_bond_atom_site_label_2
_geom_bond_distance
_geom_bond_site_symmetry_2
_ccdc_geom_bond_type
O0 Cd1 2.223 . S
O0 C8 1.315 . S
Cd1 O0 2.223 . S
Cd1 O4 2.297 . S
Cd1 O5 2.439 . S
Cd1 O11 2.240 . S
Cd2 O3 2.240 . S
Cd2 O10 2.223 . S
Cd2 O12 2.297 . S
Cd2 O13 2.439 . S
O3 Cd2 2.240 . S
O3 C8 1.279 . S
O4 Cd1 2.297 . S
O4 C6 1.247 . S
O5 Cd1 2.439 . S
O5 C6 1.208 . S
C6 O4 1.247 . S
C6 O5 1.208 . S
C7 O12 1.247 . S
C7 O13 1.208 . S
C8 O0 1.315 . S
C8 O3 1.279 . S
C9 O10 1.315 . S
C9 O11 1.279 . S
O10 Cd2 2.223 . S
O10 C9 1.315 . S
O11 Cd1 2.240 . S
O11 C9 1.279 . S
O12 Cd2 2.297 . S
O12 C7 1.247 . S
O13 Cd2 2.439 . S
O13 C7 1.208 . S
O14 Cd15 2.223 . S
O14 C22 1.315 . S
Cd15 O14 2.223 . S
Cd15 O18 2.297 . S
Cd15 O19 2.439 . S
Cd15 O25 2.240 . S
Cd16 O17 2.240 . S
Cd16 O24 2.223 . S
Cd16 O26 2.297 . S
Cd16 O27 2.439 . S
O17 Cd16 2.240 . S
O17 C22 1.279 . S
O18 Cd15 2.297 . S
O18 C20 1.247 . S
O19 Cd15 2.439 . S
O19 C20 1.208 . S
C20 O18 1.247 . S
C20 O19 1.208 . S
C21 O26 1.247 . S
C21 O27 1.208 . S
C22 O14 1.315 . S
C22 O17 1.279 . S
C23 O24 1.315 . S
C23 O25 1.279 . S
O24 Cd16 2.223 . S
O24 C23 1.315 . S
O25 Cd15 2.240 . S
O25 C23 1.279 . S
O26 Cd16 2.297 . S
O26 C21 1.247 . S
O27 Cd16 2.439 . S
O27 C21 1.208 . S
O28 Cd29 2.223 . S
O28 C36 1.315 . S
Cd29 O28 2.223 . S
Cd29 O32 2.297 . S
Cd29 O33 2.439 . S
Cd29 O39 2.240 . S
Cd30 O31 2.240 . S
Cd30 O38 2.223 . S
Cd30 O40 2.297 . S
Cd30 O41 2.439 . S
O31 Cd30 2.240 . S
O31 C36 1.279 . S
O32 Cd29 2.297 . S
O32 C34 1.247 . S
O33 Cd29 2.439 . S
O33 C34 1.208 . S
C34 O32 1.247 . S
C34 O33 1.208 . S
C35 O40 1.247 . S
C35 O41 1.208 . S
C36 O28 1.315 . S
C36 O31 1.279 . S
C37 O38 1.315 . S
C37 O39 1.279 . S
O38 Cd30 2.223 . S
O38 C37 1.315 . S
O39 Cd29 2.240 . S
O39 C37 1.279 . S
O40 Cd30 2.297 . S
O40 C35 1.247 . S
O41 Cd30 2.439 . S
O41 C35 1.208 . S
O42 Cd43 2.223 . S
O42 C50 1.315 . S
Cd43 O42 2.223 . S
Cd43 O46 2.297 . S
Cd43 O47 2.439 . S
Cd43 O53 2.240 . S
Cd44 O45 2.240 . S
Cd44 O52 2.223 . S
Cd44 O54 2.297 . S
Cd44 O55 2.439 . S
O45 Cd44 2.240 . S
O45 C50 1.279 . S
O46 Cd43 2.297 . S
O46 C48 1.247 . S
O47 Cd43 2.439 . S
O47 C48 1.208 . S
C48 O46 1.247 . S
C48 O47 1.208 . S
C49 O54 1.247 . S
C49 O55 1.208 . S
C50 O42 1.315 . S
C50 O45 1.279 . S
C51 O52 1.315 . S
C51 O53 1.279 . S
O52 Cd44 2.223 . S
O52 C51 1.315 . S
O53 Cd43 2.240 . S
O53 C51 1.279 . S
O54 Cd44 2.297 . S
O54 C49 1.247 . S
O55 Cd44 2.439 . S
O55 C49 1.208 . S
O56 Cd57 2.223 . S
O56 C64 1.315 . S
Cd57 O56 2.223 . S
Cd57 O60 2.297 . S
Cd57 O61 2.439 . S
Cd57 O67 2.240 . S
Cd58 O59 2.240 . S
Cd58 O66 2.223 . S
Cd58 O68 2.297 . S
Cd58 O69 2.439 . S
O59 Cd58 2.240 . S
O59 C64 1.279 . S
O60 Cd57 2.297 . S
O60 C62 1.247 . S
O61 Cd57 2.439 . S
O61 C62 1.208 . S
C62 O60 1.247 . S
C62 O61 1.208 . S
C63 O68 1.247 . S
C63 O69 1.208 . S
C64 O56 1.315 . S
C64 O59 1.279 . S
C65 O66 1.315 . S
C65 O67 1.279 . S
O66 Cd58 2.223 . S
O66 C65 1.315 . S
O67 Cd57 2.240 . S
O67 C65 1.279 . S
O68 Cd58 2.297 . S
O68 C63 1.247 . S
O69 Cd58 2.439 . S
O69 C63 1.208 . S
O70 Cd71 2.223 . S
O70 C78 1.315 . S
Cd71 O70 2.223 . S
Cd71 O74 2.297 . S
Cd71 O75 2.439 . S
Cd71 O81 2.240 . S
Cd72 O73 2.240 . S
Cd72 O80 2.223 . S
Cd72 O82 2.297 . S
Cd72 O83 2.439 . S
O73 Cd72 2.240 . S
O73 C78 1.279 . S
O74 Cd71 2.297 . S
O74 C76 1.247 . S
O75 Cd71 2.439 . S
O75 C76 1.208 . S
C76 O74 1.247 . S
C76 O75 1.208 . S
C77 O82 1.247 . S
C77 O83 1.208 . S
C78 O70 1.315 . S
C78 O73 1.279 . S
C79 O80 1.315 . S
C79 O81 1.279 . S
O80 Cd72 2.223 . S
O80 C79 1.315 . S
O81 Cd71 2.240 . S
O81 C79 1.279 . S
O82 Cd72 2.297 . S
O82 C77 1.247 . S
O83 Cd72 2.439 . S
O83 C77 1.208 . S
C84 C85 1.363 . S
C84 C90 1.379 . S
C84 N92 1.356 . S
C85 C84 1.363 . S
C85 C91 1.363 . S
C86 C87 1.363 . S
C86 C91 1.379 . S
C86 N93 1.356 . S
C87 C86 1.363 . S
C87 C90 1.363 . S
N88 C90 1.356 . S
N88 H100 0.984 . S
N88 H101 0.985 . S
N89 C91 1.356 . S
N89 H94 0.984 . S
N89 H95 0.985 . S
C90 C84 1.379 . S
C90 C87 1.363 . S
C90 N88 1.356 . S
C91 C85 1.363 . S
C91 C86 1.379 . S
C91 N89 1.356 . S
N92 C84 1.356 . S
N92 H98 0.984 . S
N92 H99 0.984 . S
N93 C86 1.356 . S
N93 H96 0.984 . S
N93 H97 0.985 . S
H94 N89 0.984 . S
H95 N89 0.985 . S
H96 N93 0.984 . S
H97 N93 0.985 . S
H98 N92 0.984 . S
H99 N92 0.984 . S
H100 N88 0.984 . S
H101 N88 0.985 . S
C102 C103 1.363 . S
C102 C108 1.379 . S
C102 N110 1.356 . S
C103 C102 1.363 . S
C103 C109 1.363 . S
C104 C105 1.363 . S
C104 C109 1.379 . S
C104 N111 1.356 . S
C105 C104 1.363 . S
C105 C108 1.363 . S
N106 C108 1.356 . S
N106 H118 0.984 . S
N106 H119 0.985 . S
N107 C109 1.356 . S
N107 H112 0.984 . S
N107 H113 0.985 . S
C108 C102 1.379 . S
C108 C105 1.363 . S
C108 N106 1.356 . S
C109 C103 1.363 . S
C109 C104 1.379 . S
C109 N107 1.356 . S
N110 C102 1.356 . S
N110 H116 0.984 . S
N110 H117 0.984 . S
N111 C104 1.356 . S
N111 H114 0.984 . S
N111 H115 0.985 . S
H112 N107 0.984 . S
H113 N107 0.985 . S
H114 N111 0.984 . S
H115 N111 0.985 . S
H116 N110 0.984 . S
H117 N110 0.984 . S
H118 N106 0.984 . S
H119 N106 0.985 . S
C120 C121 1.363 . S
C120 C126 1.379 . S
C120 N128 1.356 . S
C121 C120 1.363 . S
C121 C127 1.363 . S
C122 C123 1.363 . S
C122 C127 1.379 . S
C122 N129 1.356 . S
C123 C122 1.363 . S
C123 C126 1.363 . S
N124 C126 1.356 . S
N124 H136 0.984 . S
N124 H137 0.985 . S
N125 C127 1.356 . S
N125 H130 0.984 . S
N125 H131 0.985 . S
C126 C120 1.379 . S
C126 C123 1.363 . S
C126 N124 1.356 . S
C127 C121 1.363 . S
C127 C122 1.379 . S
C127 N125 1.356 . S
N128 C120 1.356 . S
N128 H134 0.984 . S
N128 H135 0.984 . S
N129 C122 1.356 . S
N129 H132 0.984 . S
N129 H133 0.985 . S
H130 N125 0.984 . S
H131 N125 0.985 . S
H132 N129 0.984 . S
H133 N129 0.985 . S
H134 N128 0.984 . S
H135 N128 0.984 . S
H136 N124 0.984 . S
H137 N124 0.985 . S
C138 C139 1.363 . S
C138 C144 1.379 . S
C138 N146 1.356 . S
C139 C138 1.363 . S
C139 C145 1.363 . S
C140 C141 1.363 . S
C140 C145 1.379 . S
C140 N147 1.356 . S
C141 C140 1.363 . S
C141 C144 1.363 . S
N142 C144 1.356 . S
N142 H154 0.984 . S
N142 H155 0.985 . S
N143 C145 1.356 . S
N143 H148 0.984 . S
N143 H149 0.985 . S
C144 C138 1.379 . S
C144 C141 1.363 . S
C144 N142 1.356 . S
C145 C139 1.363 . S
C145 C140 1.379 . S
C145 N143 1.356 . S
N146 C138 1.356 . S
N146 H152 0.984 . S
N146 H153 0.984 . S
N147 C140 1.356 . S
N147 H150 0.984 . S
N147 H151 0.985 . S
H148 N143 0.984 . S
H149 N143 0.985 . S
H150 N147 0.984 . S
H151 N147 0.985 . S
H152 N146 0.984 . S
H153 N146 0.984 . S
H154 N142 0.984 . S
H155 N142 0.985 . S
C156 C157 1.363 . S
C156 C162 1.379 . S
C156 N164 1.356 . S
C157 C156 1.363 . S
C157 C163 1.363 . S
C158 C159 1.363 . S
C158 C163 1.379 . S
C158 N165 1.356 . S
C159 C158 1.363 . S
C159 C162 1.363 . S
N160 C162 1.356 . S
N160 H172 0.984 . S
N160 H173 0.985 . S
N161 C163 1.356 . S
N161 H166 0.984 . S
N161 H167 0.985 . S
C162 C156 1.379 . S
C162 C159 1.363 . S
C162 N160 1.356 . S
C163 C157 1.363 . S
C163 C158 1.379 . S
C163 N161 1.356 . S
N164 C156 1.356 . S
N164 H170 0.984 . S
N164 H171 0.984 . S
N165 C158 1.356 . S
N165 H168 0.984 . S
N165 H169 0.985 . S
H166 N161 0.984 . S
H167 N161 0.985 . S
H168 N165 0.984 . S
H169 N165 0.985 . S
H170 N164 0.984 . S
H171 N164 0.984 . S
H172 N160 0.984 . S
H173 N160 0.985 . S
C174 C175 1.363 . S
C174 C180 1.379 . S
C174 N182 1.356 . S
C175 C174 1.363 . S
C175 C181 1.363 . S
C176 C177 1.363 . S
C176 C181 1.379 . S
C176 N183 1.356 . S
C177 C176 1.363 . S
C177 C180 1.363 . S
N178 C180 1.356 . S
N178 H190 0.984 . S
N178 H191 0.985 . S
N179 C181 1.356 . S
N179 H184 0.984 . S
N179 H185 0.985 . S
C180 C174 1.379 . S
C180 C177 1.363 . S
C180 N178 1.356 . S
C181 C175 1.363 . S
C181 C176 1.379 . S
C181 N179 1.356 . S
N182 C174 1.356 . S
N182 H188 0.984 . S
N182 H189 0.984 . S
N183 C176 1.356 . S
N183 H186 0.984 . S
N183 H187 0.985 . S
H184 N179 0.984 . S
H185 N179 0.985 . S
H186 N183 0.984 . S
H187 N183 0.985 . S
H188 N182 0.984 . S
H189 N182 0.984 . S
H190 N178 0.984 . S
H191 N178 0.985 . S
C192 C193 1.363 . S
C192 C198 1.379 1_556 S
C192 N200 1.356 . S
C193 C192 1.363 . S
C193 C199 1.363 1_565 S
C194 C195 1.363 . S
C194 C199 1.379 1_554 S
C194 N201 1.356 . S
C195 C194 1.363 . S
C195 C198 1.363 1_545 S
N196 C198 1.356 . S
N196 H208 0.984 . S
N196 H209 0.985 . S
N197 C199 1.356 . S
N197 H202 0.984 . S
N197 H203 0.985 . S
C198 C192 1.379 1_554 S
C198 C195 1.363 1_565 S
C198 N196 1.356 . S
C199 C193 1.363 1_545 S
C199 C194 1.379 1_556 S
C199 N197 1.356 . S
N200 C192 1.356 . S
N200 H206 0.984 . S
N200 H207 0.984 . S
N201 C194 1.356 . S
N201 H204 0.984 . S
N201 H205 0.985 . S
H202 N197 0.984 . S
H203 N197 0.985 . S
H204 N201 0.984 . S
H205 N201 0.985 . S
H206 N200 0.984 . S
H207 N200 0.984 . S
H208 N196 0.984 . S
H209 N196 0.985 . S
C210 C211 1.363 . S
C210 C216 1.379 . S
C210 N218 1.356 . S
C211 C210 1.363 . S
C211 C217 1.363 . S
C212 C213 1.363 . S
C212 C217 1.379 . S
C212 N219 1.356 . S
C213 C212 1.363 . S
C213 C216 1.363 . S
N214 C216 1.356 . S
N214 H226 0.984 . S
N214 H227 0.985 . S
N215 C217 1.356 . S
N215 H220 0.984 . S
N215 H221 0.985 . S
C216 C210 1.379 . S
C216 C213 1.363 . S
C216 N214 1.356 . S
C217 C211 1.363 . S
C217 C212 1.379 . S
C217 N215 1.356 . S
N218 C210 1.356 . S
N218 H224 0.984 . S
N218 H225 0.984 . S
N219 C212 1.356 . S
N219 H222 0.984 . S
N219 H223 0.985 . S
H220 N215 0.984 . S
H221 N215 0.985 . S
H222 N219 0.984 . S
H223 N219 0.985 . S
H224 N218 0.984 . S
H225 N218 0.984 . S
H226 N214 0.984 . S
H227 N214 0.985 . S
C228 C229 1.363 1_655 S
C228 C234 1.379 1_556 S
C228 N236 1.356 . S
C229 C228 1.363 1_455 S
C229 C235 1.363 . S
C230 C231 1.363 1_455 S
C230 C235 1.379 1_554 S
C230 N237 1.356 . S
C231 C230 1.363 1_655 S
C231 C234 1.363 . S
N232 C234 1.356 . S
N232 H244 0.984 . S
N232 H245 0.985 . S
N233 C235 1.356 . S
N233 H238 0.984 . S
N233 H239 0.985 . S
C234 C228 1.379 1_554 S
C234 C231 1.363 . S
C234 N232 1.356 . S
C235 C229 1.363 . S
C235 C230 1.379 1_556 S
C235 N233 1.356 . S
N236 C228 1.356 . S
N236 H242 0.984 . S
N236 H243 0.984 1_655 S
N237 C230 1.356 . S
N237 H240 0.984 1_455 S
N237 H241 0.985 . S
H238 N233 0.984 . S
H239 N233 0.985 . S
H240 N237 0.984 1_655 S
H241 N237 0.985 . S
H242 N236 0.984 . S
H243 N236 0.984 1_455 S
H244 N232 0.984 . S
H245 N232 0.985 . S
C246 C247 1.363 . S
C246 C252 1.379 1_545 S
C246 N254 1.356 . S
C247 C246 1.363 . S
C247 C253 1.363 . S
C248 C249 1.363 . S
C248 C253 1.379 1_565 S
C248 N255 1.356 . S
C249 C248 1.363 . S
C249 C252 1.363 . S
N250 C252 1.356 . S
N250 H262 0.984 . S
N250 H263 0.985 . S
N251 C253 1.356 . S
N251 H256 0.984 . S
N251 H257 0.985 . S
C252 C246 1.379 1_565 S
C252 C249 1.363 . S
C252 N250 1.356 . S
C253 C247 1.363 . S
C253 C248 1.379 1_545 S
C253 N251 1.356 . S
N254 C246 1.356 . S
N254 H260 0.984 . S
N254 H261 0.984 . S
N255 C248 1.356 . S
N255 H258 0.984 . S
N255 H259 0.985 . S
H256 N251 0.984 . S
H257 N251 0.985 . S
H258 N255 0.984 . S
H259 N255 0.985 . S
H260 N254 0.984 . S
H261 N254 0.984 . S
H262 N250 0.984 . S
H263 N250 0.985 . S
C264 C265 1.363 . S
C264 C270 1.379 1_556 S
C264 N272 1.356 . S
C265 C264 1.363 . S
C265 C271 1.363 . S
C266 C267 1.363 . S
C266 C271 1.379 1_554 S
C266 N273 1.356 . S
C267 C266 1.363 . S
C267 C270 1.363 . S
N268 C270 1.356 . S
N268 H280 0.984 . S
N268 H281 0.985 . S
N269 C271 1.356 . S
N269 H274 0.984 . S
N269 H275 0.985 . S
C270 C264 1.379 1_554 S
C270 C267 1.363 . S
C270 N268 1.356 . S
C271 C265 1.363 . S
C271 C266 1.379 1_556 S
C271 N269 1.356 . S
N272 C264 1.356 . S
N272 H278 0.984 . S
N272 H279 0.984 . S
N273 C266 1.356 . S
N273 H276 0.984 . S
N273 H277 0.985 . S
H274 N269 0.984 . S
H275 N269 0.985 . S
H276 N273 0.984 . S
H277 N273 0.985 . S
H278 N272 0.984 . S
H279 N272 0.984 . S
H280 N268 0.984 . S
H281 N268 0.985 . S
C282 C283 1.363 . S
C282 C288 1.379 1_455 S
C282 N290 1.356 . S
C283 C282 1.363 . S
C283 C289 1.363 . S
C284 C285 1.363 . S
C284 C289 1.379 1_655 S
C284 N291 1.356 . S
C285 C284 1.363 . S
C285 C288 1.363 . S
N286 C288 1.356 . S
N286 H298 0.984 . S
N286 H299 0.985 . S
N287 C289 1.356 . S
N287 H292 0.984 . S
N287 H293 0.985 . S
C288 C282 1.379 1_655 S
C288 C285 1.363 . S
C288 N286 1.356 . S
C289 C283 1.363 . S
C289 C284 1.379 1_455 S
C289 N287 1.356 . S
N290 C282 1.356 . S
N290 H296 0.984 . S
N290 H297 0.984 . S
N291 C284 1.356 . S
N291 H294 0.984 . S
N291 H295 0.985 . S
H292 N287 0.984 . S
H293 N287 0.985 . S
H294 N291 0.984 . S
H295 N291 0.985 . S
H296 N290 0.984 . S
H297 N290 0.984 . S
H298 N286 0.984 . S
H299 N286 0.985 . S
C85 C9 1.487 . S
C87 C64 1.487 . S
C103 C23 1.487 . S
C105 C78 1.487 . S
C121 C8 1.487 . S
C123 C36 1.487 . S
C139 C50 1.487 . S
C141 C22 1.487 . S
C157 C65 1.487 . S
C159 C37 1.487 . S
C175 C51 1.487 . S
C177 C79 1.487 . S
C193 C49 1.461 . S
C195 C7 1.461 . S
C211 C62 1.461 . S
C213 C21 1.461 . S
C229 C76 1.461 . S
C231 C34 1.461 . S
C247 C6 1.461 . S
C249 C48 1.461 . S
C265 C20 1.461 . S
C267 C63 1.461 . S
C283 C77 1.461 . S
C285 C35 1.461 . S
