# Generated by pormake.
# Topology umy, (4)-cn, num edge types: 1
# Building blocks:
#     Node 0, Type 0, BuildingBlock: ICAMEG_clean_sbu_1, # of connection points: 4
#     Node 1, Type 0, BuildingBlock: ICAMEG_clean_sbu_1, # of connection points: 4
#     Node 2, Type 0, BuildingBlock: ICAMEG_clean_sbu_1, # of connection points: 4
#     Node 3, Type 0, BuildingBlock: ICAMEG_clean_sbu_1, # of connection points: 4
#     Node 4, Type 0, BuildingBlock: ICAMEG_clean_sbu_1, # of connection points: 4
#     Node 5, Type 0, BuildingBlock: ICAMEG_clean_sbu_1, # of connection points: 4
#     Node 6, Type 0, BuildingBlock: ICAMEG_clean_sbu_1, # of connection points: 4
#     Node 7, Type 0, BuildingBlock: ICAMEG_clean_sbu_1, # of connection points: 4
#     Node 8, Type 0, BuildingBlock: ICAMEG_clean_sbu_1, # of connection points: 4
#     Node 9, Type 0, BuildingBlock: ICAMEG_clean_sbu_1, # of connection points: 4
#     Node 10, Type 0, BuildingBlock: ICAMEG_clean_sbu_1, # of connection points: 4
#     Node 11, Type 0, BuildingBlock: ICAMEG_clean_sbu_1, # of connection points: 4
#     Edge 12, Type (0, 0), BuildingBlock: EZIPEK_clean_linker_0, # of connection points: 2
#     Edge 13, Type (0, 0), BuildingBlock: EZIPEK_clean_linker_0, # of connection points: 2
#     Edge 14, Type (0, 0), BuildingBlock: EZIPEK_clean_linker_0, # of connection points: 2
#     Edge 15, Type (0, 0), BuildingBlock: EZIPEK_clean_linker_0, # of connection points: 2
#     Edge 16, Type (0, 0), BuildingBlock: EZIPEK_clean_linker_0, # of connection points: 2
#     Edge 17, Type (0, 0), BuildingBlock: EZIPEK_clean_linker_0, # of connection points: 2
#     Edge 18, Type (0, 0), BuildingBlock: EZIPEK_clean_linker_0, # of connection points: 2
#     Edge 19, Type (0, 0), BuildingBlock: EZIPEK_clean_linker_0, # of connection points: 2
#     Edge 20, Type (0, 0), BuildingBlock: EZIPEK_clean_linker_0, # of connection points: 2
#     Edge 21, Type (0, 0), BuildingBlock: EZIPEK_clean_linker_0, # of connection points: 2
#     Edge 22, Type (0, 0), BuildingBlock: EZIPEK_clean_linker_0, # of connection points: 2
#     Edge 23, Type (0, 0), BuildingBlock: EZIPEK_clean_linker_0, # of connection points: 2
#     Edge 24, Type (0, 0), BuildingBlock: EZIPEK_clean_linker_0, # of connection points: 2
#     Edge 25, Type (0, 0), BuildingBlock: EZIPEK_clean_linker_0, # of connection points: 2
#     Edge 26, Type (0, 0), BuildingBlock: EZIPEK_clean_linker_0, # of connection points: 2
#     Edge 27, Type (0, 0), BuildingBlock: EZIPEK_clean_linker_0, # of connection points: 2
#     Edge 28, Type (0, 0), BuildingBlock: EZIPEK_clean_linker_0, # of connection points: 2
#     Edge 29, Type (0, 0), BuildingBlock: EZIPEK_clean_linker_0, # of connection points: 2
#     Edge 30, Type (0, 0), BuildingBlock: EZIPEK_clean_linker_0, # of connection points: 2
#     Edge 31, Type (0, 0), BuildingBlock: EZIPEK_clean_linker_0, # of connection points: 2
#     Edge 32, Type (0, 0), BuildingBlock: EZIPEK_clean_linker_0, # of connection points: 2
#     Edge 33, Type (0, 0), BuildingBlock: EZIPEK_clean_linker_0, # of connection points: 2
#     Edge 34, Type (0, 0), BuildingBlock: EZIPEK_clean_linker_0, # of connection points: 2
#     Edge 35, Type (0, 0), BuildingBlock: EZIPEK_clean_linker_0, # of connection points: 2
# Relax obj value: 0.082
# Max RMSD: 0.108
# Mean RMSD: 0.108
data_MOF--net-umy--node1-ICAMEG_clean_sbu_1--edge1-EZIPEK_clean_linker_0
_symmetry_space_group_name_H-M    P1
_symmetry_Int_Tables_number       1
_symmetry_cell_setting            triclinic
loop_
_symmetry_equiv_pos_as_xyz
'x, y, z'
_cell_length_a     30.287899
_cell_length_b     30.244489
_cell_length_c     42.026529
_cell_angle_alpha  90.021511
_cell_angle_beta   90.04456
_cell_angle_gamma 119.88024
loop_
_atom_site_label
_atom_site_type_symbol
_atom_site_fract_x
_atom_site_fract_y
_atom_site_fract_z
_atom_type_partial_charge
Co0 Co 0.07082 0.30649 0.14813 0.0
Co1 Co 0.08163 0.42039 0.176 0.0
O2 O 0.0834 0.37659 0.14136 0.0
C3 C 0.16171 0.35577 0.10199 0.0
O4 O 0.16032 0.39834 0.1016 0.0
C5 C 0.03299 0.44148 0.11843 0.0
O6 O 0.03582 0.40613 0.10205 0.0
O7 O 0.01258 0.36464 0.18981 0.0
O8 O 0.01164 0.29191 0.17711 0.0
H9 H 0.05152 0.45516 0.28859 0.0
H10 H 0.07033 0.34641 0.08299 0.0
O11 O 0.12979 0.31807 0.11899 0.0
H12 H 0.9104 0.18242 0.09041 0.0
H13 H 0.0586 0.13846 0.11937 0.0
H14 H 0.04613 0.24216 0.20565 0.0
H15 H 0.97005 0.21431 0.13559 0.0
H16 H 0.07015 0.22351 0.10832 0.0
O17 O 0.04803 0.44979 0.14741 0.0
H18 H 0.0557 0.40371 0.24448 0.0
H19 H 0.10507 0.52909 0.18175 0.0
H20 H 0.03312 0.15675 0.21775 0.0
H21 H 0.01179 0.31626 0.03741 0.0
H22 H 0.03965 0.10434 0.17447 0.0
H23 H 0.93101 0.23355 0.04081 0.0
O24 O 0.11869 0.32937 0.18469 0.0
H25 H 0.21654 0.5314 0.09666 0.0
H26 H 0.17818 0.49086 0.21024 0.0
H27 H 0.26424 0.55668 0.19432 0.0
H28 H 0.28402 0.57759 0.13711 0.0
H29 H 0.13123 0.46554 0.11365 0.0
H30 H 0.10096 0.58191 0.22481 0.0
H31 H 0.07413 0.54506 0.27889 0.0
O32 O 0.11529 0.39484 0.20628 0.0
C33 C 0.9918 0.31601 0.19057 0.0
C34 C 0.06301 0.47168 0.26512 0.0
C35 C 0.09063 0.5427 0.22933 0.0
N36 N 0.07976 0.46292 0.21026 0.0
C37 C 0.06533 0.44265 0.24 0.0
C38 C 0.09245 0.51241 0.20484 0.0
C39 C 0.07569 0.52205 0.25966 0.0
C40 C 0.03546 0.31058 0.0849 0.0
N41 N 0.02394 0.28242 0.11216 0.0
C42 C 1.00233 0.29359 0.05887 0.0
C43 C 0.95704 0.24721 0.06079 0.0
C44 C 0.94549 0.21852 0.08858 0.0
C45 C 0.97952 0.23683 0.11412 0.0
C46 C 0.05574 0.16094 0.13846 0.0
C47 C 0.04848 0.21942 0.18659 0.0
C48 C 0.06266 0.20938 0.13232 0.0
N49 N 0.05888 0.23799 0.1562 0.0
C50 C 0.0413 0.17114 0.19363 0.0
C51 C 0.04503 0.14179 0.16936 0.0
C52 C 0.13087 0.36275 0.20643 0.0
C53 C 0.2084 0.52281 0.12169 0.0
C54 C 0.18623 0.49935 0.18534 0.0
C55 C 0.23517 0.5369 0.17644 0.0
C56 C 0.24624 0.54864 0.14437 0.0
N57 N 0.14905 0.47421 0.16301 0.0
C58 C 0.1599 0.48549 0.13151 0.0
Co59 Co 0.78861 0.0687 0.30718 0.0
Co60 Co 0.68889 0.07748 0.34238 0.0
O61 O 0.73028 0.08107 0.3052 0.0
C62 C 0.8327 0.16909 0.27324 0.0
O63 O 0.80778 0.18166 0.29346 0.0
C64 C 0.61366 0.03193 0.2872 0.0
O65 O 0.65081 0.03824 0.26844 0.0
O66 O 0.67965 0.00944 0.35464 0.0
O67 O 0.75276 0.01348 0.33977 0.0
H68 H 0.6467 0.04795 0.45873 0.0
H69 H 0.73999 0.06592 0.24551 0.0
O70 O 0.82754 0.12457 0.27458 0.0
H71 H 0.72662 0.89741 0.25561 0.0
H72 H 0.93474 0.05605 0.25977 0.0
H73 H 0.83718 0.03683 0.35755 0.0
H74 H 0.76774 0.96223 0.29764 0.0
H75 H 0.86174 0.07054 0.25883 0.0
O76 O 0.62226 0.04264 0.31689 0.0
H77 H 0.69487 0.05479 0.41008 0.0
H78 H 0.59739 0.08933 0.3562 0.0
H79 H 0.90926 0.0211 0.35933 0.0
H80 H 0.69934 1.00269 0.20248 0.0
H81 H 0.95908 0.03115 0.31028 0.0
H82 H 0.69224 0.91754 0.2075 0.0
O83 O 0.82086 0.11981 0.34239 0.0
H84 H 0.70466 0.21467 0.26707 0.0
H85 H 0.70533 0.16884 0.37945 0.0
H86 H 0.71544 0.25253 0.36621 0.0
H87 H 0.71519 0.27611 0.30965 0.0
H88 H 0.69412 0.13134 0.28125 0.0
H89 H 0.54759 0.08194 0.40403 0.0
H90 H 0.57237 0.06149 0.45595 0.0
O91 O 0.75298 0.11345 0.36852 0.0
C92 C 0.71084 0.99267 0.35506 0.0
C93 C 0.6356 0.05706 0.43627 0.0
C94 C 0.57992 0.07597 0.40557 0.0
N95 N 0.64935 0.07288 0.38009 0.0
C96 C 0.66289 0.06122 0.40859 0.0
C97 C 0.60811 0.07979 0.37838 0.0
C98 C 0.59387 0.06457 0.43469 0.0
C99 C 0.73817 0.0295 0.24738 0.0
N100 N 0.75721 0.01832 0.27364 0.0
C101 C 0.71462 0.9936 0.22316 0.0
C102 C 0.7105 0.9458 0.22604 0.0
C103 C 0.72975 0.93448 0.25303 0.0
C104 C 0.753 0.97137 0.27676 0.0
C105 C 0.91373 0.05213 0.2814 0.0
C106 C 0.8584 0.04138 0.33604 0.0
C107 C 0.87258 0.06088 0.28113 0.0
N108 N 0.84585 0.05624 0.30837 0.0
C109 C 0.89934 0.03237 0.33722 0.0
C110 C 0.92727 0.03801 0.30971 0.0
C111 C 0.8009 0.13017 0.366 0.0
C112 C 0.70436 0.2047 0.29183 0.0
C113 C 0.70414 0.17811 0.35477 0.0
C114 C 0.7103 0.22589 0.34742 0.0
C115 C 0.71029 0.23915 0.31571 0.0
N116 N 0.69757 0.14402 0.33128 0.0
C117 C 0.69819 0.15721 0.30009 0.0
Co118 Co 0.73151 0.77532 0.47353 0.0
Co119 Co 0.61611 0.68047 0.50333 0.0
O120 O 0.66002 0.72251 0.46851 0.0
C121 C 0.68401 0.82963 0.44071 0.0
O122 O 0.64303 0.80393 0.45808 0.0
C123 C 0.5869 0.58231 0.46728 0.0
O124 O 0.6249 0.5787 0.47946 0.0
O125 O 0.66821 0.66142 0.51697 0.0
O126 O 0.7432 0.72934 0.50306 0.0
H127 H 0.57096 0.61936 0.61643 0.0
H128 H 0.68401 0.73658 0.41054 0.0
O129 O 0.72192 0.82256 0.44394 0.0
H130 H 0.83664 0.71781 0.41194 0.0
H131 H 0.90079 0.91987 0.43711 0.0
H132 H 0.80263 0.81388 0.52825 0.0
H133 H 0.81566 0.75445 0.45802 0.0
H134 H 0.81204 0.85089 0.43005 0.0
O135 O 0.58186 0.62094 0.47315 0.0
H136 H 0.62729 0.6722 0.57325 0.0
H137 H 0.5071 0.59818 0.50638 0.0
H138 H 0.8916 0.88189 0.53622 0.0
H139 H 0.70345 0.69977 0.36391 0.0
H140 H 0.94123 0.93562 0.49047 0.0
H141 H 0.78025 0.69011 0.36443 0.0
O142 O 0.71504 0.80549 0.51063 0.0
H143 H 0.50726 0.71028 0.4256 0.0
H144 H 0.55733 0.72024 0.5382 0.0
H145 H 0.49568 0.7471 0.52278 0.0
H146 H 0.47008 0.74201 0.46614 0.0
H147 H 0.56945 0.68469 0.44196 0.0
H148 H 0.4497 0.5438 0.54873 0.0
H149 H 0.48141 0.55421 0.60429 0.0
O150 O 0.64771 0.73903 0.53357 0.0
C151 C 0.71704 0.68663 0.51757 0.0
C152 C 0.55669 0.61427 0.5923 0.0
C153 C 0.48874 0.57178 0.5543 0.0
N154 N 0.57109 0.63792 0.53713 0.0
C155 C 0.58849 0.64426 0.56771 0.0
C156 C 0.52167 0.60247 0.53033 0.0
C157 C 0.5065 0.57772 0.58548 0.0
C158 C 0.7173 0.73217 0.41104 0.0
N159 N 0.74822 0.74682 0.43721 0.0
C160 C 0.7282 0.71145 0.38452 0.0
C161 C 0.77129 0.70606 0.38482 0.0
C162 C 0.80292 0.72156 0.41147 0.0
C163 C 0.79074 0.74206 0.43756 0.0
C164 C 0.87958 0.89665 0.45721 0.0
C165 C 0.82417 0.83662 0.50812 0.0
C166 C 0.82922 0.85763 0.45339 0.0
N167 N 0.80224 0.82803 0.47866 0.0
C168 C 0.87446 0.87527 0.51282 0.0
C169 C 0.90226 0.90545 0.48715 0.0
C170 C 0.68329 0.78536 0.53332 0.0
C171 C 0.51789 0.71241 0.45038 0.0
C172 C 0.54659 0.7181 0.51348 0.0
C173 C 0.51153 0.73324 0.50491 0.0
C174 C 0.49715 0.73033 0.47313 0.0
N175 N 0.56674 0.7005 0.49104 0.0
C176 C 0.55284 0.69761 0.45983 0.0
Co177 Co 0.95383 0.72555 0.64554 0.0
Co178 Co 0.94113 0.61306 0.6752 0.0
O179 O 0.93949 0.65534 0.64066 0.0
C180 C 0.85612 0.67385 0.60742 0.0
O181 O 0.84205 0.63295 0.62471 0.0
C182 C 0.01095 0.58363 0.64027 0.0
O183 O 0.05144 0.6185 0.65527 0.0
O184 O 0.01164 0.66796 0.6878 0.0
O185 O 1.00855 0.73975 0.678 0.0
H186 H 0.97266 0.57138 0.78622 0.0
H187 H 0.9595 0.68 0.58409 0.0
O188 O 0.89937 0.71351 0.61251 0.0
H189 H 0.12513 0.83764 0.59544 0.0
H190 H 0.97001 0.88993 0.60514 0.0
H191 H 0.98555 0.80095 0.69871 0.0
H192 H 0.05923 0.81262 0.63674 0.0
H193 H 0.95548 0.80263 0.60032 0.0
O194 O 0.96777 0.58062 0.64435 0.0
H195 H 0.96972 0.6262 0.74415 0.0
H196 H 0.91538 0.50439 0.67801 0.0
H197 H 1.00053 0.88821 0.70473 0.0
H198 H 0.02415 0.70368 0.54209 0.0
H199 H 0.99254 0.9334 0.65767 0.0
H200 H 0.1077 0.78315 0.54757 0.0
O201 O 0.90231 0.70408 0.68084 0.0
H202 H 0.80247 0.49778 0.59937 0.0
H203 H 0.84482 0.55113 0.71134 0.0
H204 H 0.75702 0.48634 0.69714 0.0
H205 H 0.73537 0.45908 0.64081 0.0
H206 H 0.88949 0.56339 0.61448 0.0
H207 H 0.91812 0.44807 0.71921 0.0
H208 H 0.94678 0.48136 0.77388 0.0
O209 O 0.91195 0.6431 0.70582 0.0
C210 C 0.02962 0.71622 0.69045 0.0
C211 C 0.9601 0.55638 0.7625 0.0
C212 C 0.92957 0.48724 0.72492 0.0
N213 N 0.94261 0.56909 0.70856 0.0
C214 C 0.95836 0.58749 0.73855 0.0
C215 C 0.9283 0.5195 0.70162 0.0
C216 C 0.94561 0.50591 0.75557 0.0
C217 C 0.99528 0.71517 0.58633 0.0
N218 N 1.00468 0.7459 0.61224 0.0
C219 C 0.03195 0.72817 0.5626 0.0
C220 C 0.07886 0.77267 0.56572 0.0
C221 C 0.08862 0.80331 0.59254 0.0
C222 C 0.051 0.78909 0.61577 0.0
C223 C 0.97289 0.87041 0.62594 0.0
C224 C 0.98096 0.81966 0.67837 0.0
C225 C 0.96416 0.82061 0.62345 0.0
N226 N 0.96757 0.7955 0.64961 0.0
C227 C 0.99 0.86944 0.68179 0.0
C228 C 0.98563 0.89481 0.65538 0.0
C229 C 0.89479 0.67419 0.70444 0.0
C230 C 0.81145 0.50923 0.62401 0.0
C231 C 0.83569 0.53978 0.68673 0.0
C232 C 0.78592 0.50288 0.67886 0.0
C233 C 0.77381 0.48759 0.64726 0.0
N234 N 0.87237 0.56107 0.66377 0.0
C235 C 0.86079 0.54613 0.63275 0.0
Co236 Co 0.24207 0.95262 0.80837 0.0
Co237 Co 0.34812 0.95083 0.83655 0.0
O238 O 0.30076 0.94316 0.80248 0.0
C239 C 0.19848 0.85311 0.77214 0.0
O240 O 0.2281 0.84072 0.78789 0.0
C241 C 0.44618 0.01983 0.80162 0.0
O242 O 0.45474 0.05942 0.81895 0.0
O243 O 0.35901 0.02061 0.84714 0.0
O244 O 0.28083 0.01016 0.83923 0.0
H245 H 0.43501 0.00908 0.94295 0.0
H246 H 0.2792 0.95201 0.7433 0.0
O247 O 0.20031 0.89552 0.77741 0.0
H248 H 0.29168 0.12012 0.75509 0.0
H249 H 0.09017 0.96323 0.76978 0.0
H250 H 0.18643 0.9626 0.864 0.0
H251 H 0.25853 0.0576 0.79889 0.0
H252 H 0.16739 0.95629 0.76381 0.0
O253 O 0.4045 0.9779 0.80447 0.0
H254 H 0.37313 0.99759 0.90127 0.0
H255 H 0.43208 0.92652 0.84123 0.0
H256 H 0.11003 0.97039 0.87114 0.0
H257 H 0.31216 0.01319 0.69878 0.0
H258 H 0.06104 0.97056 0.82375 0.0
H259 H 0.31858 0.09796 0.70454 0.0
O260 O 0.21859 0.90353 0.84482 0.0
H261 H 0.33026 0.81013 0.76424 0.0
H262 H 0.32209 0.85813 0.87532 0.0
H263 H 0.30451 0.77109 0.86331 0.0
H264 H 0.30887 0.74666 0.80746 0.0
H265 H 0.34624 0.8963 0.77714 0.0
H266 H 0.49536 0.9381 0.88202 0.0
H267 H 0.49687 0.97924 0.93348 0.0
O268 O 0.29198 0.92048 0.86876 0.0
C269 C 0.32562 0.03444 0.85119 0.0
C270 C 0.43421 0.99033 0.92084 0.0
C271 C 0.46814 0.9506 0.88664 0.0
N272 N 0.39719 0.95932 0.86933 0.0
C273 C 0.39868 0.98309 0.89727 0.0
C274 C 0.43198 0.94393 0.86367 0.0
C275 C 0.46901 0.97374 0.91548 0.0
C276 C 0.28149 0.98866 0.74587 0.0
N277 N 0.26654 1.00105 0.77352 0.0
C278 C 0.30035 0.02321 0.72063 0.0
C279 C 0.30402 0.07079 0.7239 0.0
C280 C 0.28895 0.08326 0.75226 0.0
C281 C 0.27033 0.04776 0.777 0.0
C282 C 0.11144 0.96372 0.79061 0.0
C283 C 0.16633 0.96394 0.84331 0.0
C284 C 0.15535 0.95994 0.7874 0.0
N285 N 0.1826 0.96065 0.81357 0.0
C286 C 0.12263 0.96783 0.84746 0.0
C287 C 0.0951 0.96779 0.82089 0.0
C288 C 0.24345 0.89949 0.86832 0.0
C289 C 0.32846 0.82037 0.78869 0.0
C290 C 0.32357 0.84773 0.8509 0.0
C291 C 0.31383 0.79842 0.84427 0.0
C292 C 0.31635 0.78475 0.81294 0.0
N293 N 0.33553 0.88256 0.82699 0.0
C294 C 0.33787 0.8693 0.79619 0.0
Co295 Co 0.30156 0.24321 0.9729 0.0
Co296 Co 0.40735 0.3425 0.00885 0.0
O297 O 0.37058 0.30216 0.97139 0.0
C298 C 0.35852 0.20057 0.93696 0.0
O299 O 0.39823 0.22548 0.95557 0.0
C300 C 0.42142 0.426 0.96341 0.0
O301 O 0.37199 0.40432 0.95914 0.0
O302 O 0.34843 0.35195 0.02105 0.0
O303 O 0.28039 0.27878 1.00509 0.0
H304 H 0.42698 0.39795 0.1233 0.0
H305 H 0.34573 0.28712 0.91 0.0
O306 O 0.31917 0.20515 0.94048 0.0
H307 H 0.19484 0.30778 0.92048 0.0
H308 H 0.14076 0.10526 0.92218 0.0
H309 H 0.23298 0.17063 0.02313 0.0
H310 H 0.21771 0.26688 0.96313 0.0
H311 H 0.22559 0.18185 0.92284 0.0
O312 O 0.43979 0.40653 0.9824 0.0
H313 H 0.38105 0.3463 0.07651 0.0
H314 H 0.51337 0.42768 0.01962 0.0
H315 H 0.1481 0.09467 0.02361 0.0
H316 H 0.3234 0.327 0.86637 0.0
H317 H 0.10107 0.0612 0.97285 0.0
H318 H 0.24765 0.33782 0.87155 0.0
O319 O 0.32144 0.21213 0.00838 0.0
H320 H 0.53428 0.33723 0.93421 0.0
H321 H 0.47018 0.30805 0.04445 0.0
H322 H 0.53958 0.29151 0.0302 0.0
H323 H 0.57224 0.30631 0.97476 0.0
H324 H 0.46431 0.35244 0.94934 0.0
H325 H 0.56062 0.48066 0.0657 0.0
H326 H 0.51749 0.46579 0.11806 0.0
O327 O 0.37824 0.28058 0.03616 0.0
C328 C 0.30028 0.3207 0.02088 0.0
C329 C 0.44629 0.40463 0.10065 0.0
C330 C 0.52126 0.45108 0.06832 0.0
N331 N 0.44456 0.38339 0.04544 0.0
C332 C 0.42049 0.37529 0.0741 0.0
C333 C 0.49425 0.42095 0.0423 0.0
C334 C 0.49704 0.44272 0.09769 0.0
C335 C 0.31231 0.29108 0.91224 0.0
N336 N 0.2829 0.27437 0.93899 0.0
C337 C 0.29999 0.3139 0.88753 0.0
C338 C 0.25755 0.32006 0.89048 0.0
C339 C 0.22795 0.30329 0.91794 0.0
C340 C 0.24129 0.28044 0.94211 0.0
C341 C 0.16026 0.1202 0.94457 0.0
C342 C 0.21226 0.1583 1.00112 0.0
C343 C 0.20823 0.16408 0.94519 0.0
N344 N 0.23318 0.18367 0.97336 0.0
C345 C 0.16433 0.11434 1.00145 0.0
C346 C 0.13807 0.09542 0.97297 0.0
C347 C 0.34857 0.23275 0.03316 0.0
C348 C 0.52052 0.33084 0.95848 0.0
C349 C 0.48398 0.31435 0.02023 0.0
C350 C 0.52341 0.30506 0.01233 0.0
C351 C 0.54174 0.31341 0.98123 0.0
N352 N 0.46338 0.33152 0.9978 0.0
C353 C 0.4811 0.33967 0.96724 0.0
Co354 Co 0.72401 0.94647 0.70758 0.0
Co355 Co 0.60948 0.92758 0.67549 0.0
O356 O 0.65214 0.92841 0.71118 0.0
C357 C 0.67228 0.84166 0.73663 0.0
O358 O 0.63266 0.82996 0.71856 0.0
C359 C 0.5853 0.97695 0.73107 0.0
O360 O 0.62171 0.9769 0.74787 0.0
O361 O 0.6635 0.99734 0.66175 0.0
O362 O 0.73803 0.00707 0.67963 0.0
H363 H 0.57176 0.93997 0.56003 0.0
H364 H 0.67633 0.93086 0.77117 0.0
O365 O 0.71151 0.88619 0.7353 0.0
H366 H 0.82493 0.10454 0.77376 0.0
H367 H 0.89018 0.96661 0.74724 0.0
H368 H 0.79887 0.9831 0.65489 0.0
H369 H 0.8056 0.0508 0.72583 0.0
H370 H 0.80104 0.94675 0.75231 0.0
O371 O 0.57684 0.95954 0.7026 0.0
H372 H 0.62465 0.94378 0.60544 0.0
H373 H 0.50162 0.9046 0.66851 0.0
H374 H 0.88825 1.0041 0.64892 0.0
H375 H 0.69452 0.98278 0.81984 0.0
H376 H 0.93444 0.99567 0.69528 0.0
H377 H 0.76906 0.07052 0.82123 0.0
O378 O 0.71021 0.90323 0.66916 0.0
H379 H 0.49875 0.79191 0.75437 0.0
H380 H 0.54619 0.8294 0.64135 0.0
H381 H 0.48201 0.74226 0.6572 0.0
H382 H 0.45768 0.72304 0.71407 0.0
H383 H 0.563 0.87825 0.73757 0.0
H384 H 0.44751 0.9016 0.62404 0.0
H385 H 0.48241 0.91917 0.56914 0.0
O386 O 0.63976 0.89675 0.64702 0.0
C387 C 0.71217 0.0227 0.66361 0.0
C388 C 0.55611 0.93253 0.58384 0.0
C389 C 0.48655 0.91126 0.61976 0.0
N390 N 0.56699 0.92571 0.63998 0.0
C391 C 0.58598 0.9345 0.60973 0.0
C392 C 0.51765 0.91366 0.64503 0.0
C393 C 0.50606 0.92093 0.58897 0.0
C394 C 0.7088 0.969 0.77162 0.0
N395 N 0.73903 0.98842 0.74538 0.0
C396 C 0.71892 0.99822 0.79923 0.0
C397 C 0.76073 0.04744 0.8 0.0
C398 C 0.79201 0.06659 0.77335 0.0
C399 C 0.78063 0.03623 0.74617 0.0
C400 C 0.87048 0.97051 0.72688 0.0
C401 C 0.8189 0.97994 0.67528 0.0
C402 C 0.81993 0.95917 0.72957 0.0
N403 N 0.79486 0.96415 0.70398 0.0
C404 C 0.86943 0.99164 0.67171 0.0
C405 C 0.89531 0.98685 0.69772 0.0
C406 C 0.67734 0.88893 0.647 0.0
C407 C 0.5086 0.79991 0.72947 0.0
C408 C 0.53565 0.82155 0.66613 0.0
C409 C 0.4993 0.77203 0.67497 0.0
C410 C 0.48568 0.76127 0.70686 0.0
N411 N 0.55756 0.85949 0.68838 0.0
C412 C 0.54477 0.84898 0.71975 0.0
Co413 Co 0.76614 0.70719 0.86954 0.0
Co414 Co 0.66255 0.59399 0.84553 0.0
O415 O 0.70702 0.64058 0.87875 0.0
C416 C 0.8162 0.66235 0.90993 0.0
O417 O 0.7947 0.62076 0.89253 0.0
C418 C 0.58543 0.58992 0.89353 0.0
O419 O 0.6095 0.63965 0.89717 0.0
O420 O 0.6516 0.64935 0.82692 0.0
O421 O 0.72839 0.71914 0.83459 0.0
H422 H 0.59481 0.54515 0.73418 0.0
H423 H 0.72709 0.68229 0.93543 0.0
O424 O 0.80677 0.69835 0.90461 0.0
H425 H 0.71381 0.83305 0.90592 0.0
H426 H 0.91946 0.87566 0.89808 0.0
H427 H 0.81781 0.76195 0.8104 0.0
H428 H 0.74903 0.7962 0.86815 0.0
H429 H 0.84199 0.79369 0.90935 0.0
O430 O 0.60156 0.56909 0.87401 0.0
H431 H 0.65201 0.60215 0.77596 0.0
H432 H 0.57528 0.48676 0.84548 0.0
H433 H 0.89484 0.84362 0.79806 0.0
H434 H 0.69198 0.71812 0.97406 0.0
H435 H 0.94641 0.90107 0.8421 0.0
H436 H 0.68511 0.79401 0.95934 0.0
O437 O 0.79214 0.67634 0.83806 0.0
H438 H 0.68191 0.49691 0.93625 0.0
H439 H 0.68212 0.51196 0.81972 0.0
H440 H 0.69964 0.44821 0.84359 0.0
H441 H 0.69949 0.44013 0.9024 0.0
H442 H 0.66547 0.56086 0.91125 0.0
H443 H 0.51692 0.42877 0.8045 0.0
H444 H 0.52667 0.45772 0.74833 0.0
O445 O 0.72155 0.61466 0.81567 0.0
C446 C 0.68433 0.69638 0.82179 0.0
C447 C 0.59032 0.53199 0.75854 0.0
C448 C 0.54661 0.46669 0.798 0.0
N449 N 0.61759 0.54764 0.81307 0.0
C450 C 0.62269 0.56407 0.7823 0.0
C451 C 0.57978 0.49977 0.82111 0.0
C452 C 0.55208 0.48296 0.7665 0.0
C453 C 0.72464 0.7156 0.929 0.0
N454 N 0.74039 0.73735 0.8997 0.0
C455 C 0.70456 0.73561 0.95091 0.0
C456 C 0.70063 0.77813 0.94261 0.0
C457 C 0.71671 0.80004 0.91264 0.0
C458 C 0.73653 0.77896 0.89134 0.0
C459 C 0.89723 0.85104 0.87868 0.0
C460 C 0.83967 0.78695 0.82969 0.0
C461 C 0.85329 0.80459 0.88492 0.0
N462 N 0.82511 0.77321 0.86054 0.0
C463 C 0.88339 0.83309 0.82256 0.0
C464 C 0.91233 0.86527 0.84727 0.0
C465 C 0.76984 0.64306 0.81621 0.0
C466 C 0.68243 0.50025 0.9106 0.0
C467 C 0.68326 0.50985 0.84513 0.0
C468 C 0.69257 0.47308 0.85863 0.0
C469 C 0.69233 0.46845 0.89161 0.0
N470 N 0.67407 0.54134 0.86383 0.0
C471 C 0.6732 0.53649 0.89623 0.0
Co472 Co 0.07239 0.78822 0.03706 0.0
Co473 Co 0.06627 0.67838 0.00918 0.0
O474 O 0.0772 0.72683 0.04324 0.0
C475 C 0.17131 0.82854 0.07387 0.0
O476 O 0.18312 0.80022 0.05618 0.0
C477 C 0.99553 0.58086 0.04379 0.0
O478 O 0.95728 0.57265 0.02527 0.0
O479 O 0.99794 0.67108 0.99972 0.0
O480 O 0.01494 0.7521 1.00544 0.0
H481 H 1.00462 0.59407 0.90246 0.0
H482 H 0.05984 0.7374 0.09946 0.0
O483 O 0.12878 0.827 0.06965 0.0
H484 H 0.90731 0.75452 0.087 0.0
H485 H 0.07153 0.94606 0.07455 0.0
H486 H 0.07265 0.84891 0.9809 0.0
H487 H 0.9732 0.78553 0.04527 0.0
H488 H 0.07163 0.86517 0.08108 0.0
O489 O 0.03785 0.62236 0.04162 0.0
H490 H 0.02064 0.65728 0.94433 0.0
H491 H 0.08367 0.58977 1.00414 0.0
H492 H 0.07153 0.92891 0.97318 0.0
H493 H 0.99545 0.7066 0.14205 0.0
H494 H 0.07111 0.97834 0.02027 0.0
H495 H 0.91845 0.71515 0.13598 0.0
O496 O 0.12297 0.80888 1.00134 0.0
H497 H 0.20682 0.69157 0.07953 0.0
H498 H 0.1561 0.69941 0.96908 0.0
H499 H 0.24229 0.71388 0.97989 0.0
H500 H 0.26808 0.70973 0.03543 0.0
H501 H 0.12145 0.67855 0.06779 0.0
H502 H 0.06763 0.52525 0.96312 0.0
H503 H 0.02813 0.52729 0.91173 0.0
O504 O 0.09712 0.73378 0.97657 0.0
C505 C 0.98733 0.70662 0.99473 0.0
C506 C 0.02237 0.59309 0.92462 0.0
C507 C 0.05766 0.55443 0.95866 0.0
N508 N 0.05442 0.62834 0.97633 0.0
C509 C 0.03196 0.62917 0.94832 0.0
C510 C 0.06675 0.5912 0.98178 0.0
C511 C 0.03546 0.55557 0.92985 0.0
C512 C 0.02735 0.74275 0.09712 0.0
N513 N 0.02168 0.76561 0.07065 0.0
C514 C 0.9906 0.72457 0.12111 0.0
C515 C 0.94732 0.72918 0.11763 0.0
C516 C 0.94108 0.75132 0.09017 0.0
C517 C 0.97864 0.76902 0.06668 0.0
C518 C 0.07097 0.92453 0.05382 0.0
C519 C 0.07069 0.86899 1.00144 0.0
C520 C 0.07085 0.87854 0.05735 0.0
N521 N 0.06979 0.85082 0.03131 0.0
C522 C 0.07081 0.91483 0.99696 0.0
C523 C 0.07077 0.94263 0.02338 0.0
C524 C 0.12209 0.78245 0.97713 0.0
C525 C 0.19598 0.69328 0.05521 0.0
C526 C 0.16709 0.69791 0.99335 0.0
C527 C 0.21592 0.70594 0.99931 0.0
C528 C 0.23035 0.70357 0.03047 0.0
N529 N 0.13352 0.68782 0.01775 0.0
C530 C 0.14751 0.6856 0.04838 0.0
Co531 Co 0.29658 0.06163 0.20149 0.0
Co532 Co 0.41373 0.07568 0.18039 0.0
O533 O 0.36538 0.07516 0.21157 0.0
C534 C 0.34391 0.15979 0.23999 0.0
O535 O 0.38812 0.17193 0.22742 0.0
C536 C 0.43657 1.00139 0.21551 0.0
O537 O 0.40517 0.96294 0.19756 0.0
O538 O 0.36063 1.00676 0.16347 0.0
O539 O 0.28602 1.00416 0.17231 0.0
H540 H 0.47319 0.05491 0.07257 0.0
H541 H 0.33481 0.05802 0.26621 0.0
O542 O 0.30436 0.11839 0.23144 0.0
H543 H 0.17015 0.89888 0.2563 0.0
H544 H 0.12675 0.04795 0.22457 0.0
H545 H 0.23634 0.03673 0.142 0.0
H546 H 0.20306 0.96036 0.21211 0.0
H547 H 0.21147 0.06082 0.23838 0.0
O548 O 0.4387 0.04445 0.2131 0.0
H549 H 0.41244 0.05617 0.11107 0.0
H550 H 0.52127 0.09746 0.18518 0.0
H551 H 0.15146 0.02266 0.12729 0.0
H552 H 0.30383 0.99698 0.31062 0.0
H553 H 0.09611 0.02848 0.16872 0.0
H554 H 0.22067 0.91689 0.30602 0.0
O555 O 0.32285 0.11038 0.16515 0.0
H556 H 0.51407 0.20202 0.26638 0.0
H557 H 0.48676 0.17629 0.15076 0.0
H558 H 0.55016 0.26064 0.1712 0.0
H559 H 0.56444 0.27396 0.22946 0.0
H560 H 0.44995 0.11865 0.2449 0.0
H561 H 0.58305 0.09628 0.14766 0.0
H562 H 0.55925 0.07495 0.09084 0.0
O563 O 0.39213 0.10982 0.14766 0.0
C564 C 0.31212 0.98554 0.16023 0.0
C565 C 0.48402 0.06409 0.09727 0.0
C566 C 0.54562 0.08728 0.13941 0.0
N567 N 0.46286 0.07623 0.15039 0.0
C568 C 0.44971 0.06475 0.11918 0.0
C569 C 0.51029 0.08763 0.16059 0.0
C570 C 0.53226 0.07534 0.10754 0.0
C571 C 0.2988 0.0231 0.26375 0.0
N572 N 0.27051 0.01335 0.23661 0.0
C573 C 0.28134 0.98875 0.28913 0.0
C574 C 0.23467 0.94387 0.28655 0.0
C575 C 0.20625 0.93383 0.25871 0.0
C576 C 0.22498 0.96905 0.23382 0.0
C577 C 0.15049 0.04525 0.20632 0.0
C578 C 0.21224 0.03868 0.16025 0.0
C579 C 0.19865 0.05275 0.21396 0.0
N580 N 0.22875 0.04911 0.19106 0.0
C581 C 0.16431 0.03095 0.15174 0.0
C582 C 0.1333 0.03428 0.17498 0.0
C583 C 0.35934 0.12447 0.14529 0.0
C584 C 0.50825 0.19672 0.24094 0.0
C585 C 0.49201 0.18179 0.17606 0.0
C586 C 0.52833 0.22965 0.18755 0.0
C587 C 0.53642 0.23707 0.22022 0.0
N588 N 0.46432 0.14236 0.19648 0.0
C589 C 0.4722 0.14942 0.22858 0.0
Co590 Co 0.23706 0.28449 0.37628 0.0
Co591 Co 0.33396 0.39668 0.34344 0.0
O592 O 0.29201 0.35628 0.3798 0.0
C593 C 0.18422 0.33498 0.40794 0.0
O594 O 0.20821 0.37427 0.38892 0.0
C595 C 0.4069 0.43011 0.40019 0.0
O596 O 0.37083 0.39623 0.4184 0.0
O597 O 0.35058 0.34224 0.3326 0.0
O598 O 0.2809 0.26911 0.34661 0.0
H599 H 0.38862 0.41896 0.2289 0.0
H600 H 0.27606 0.33299 0.4389 0.0
O601 O 0.19215 0.2974 0.40605 0.0
H602 H 0.28935 0.17709 0.44032 0.0
H603 H 0.08964 0.11939 0.41595 0.0
H604 H 0.19505 0.2107 0.32301 0.0
H605 H 0.25338 0.19784 0.39381 0.0
H606 H 0.16094 0.20741 0.42134 0.0
O607 O 0.39817 0.43311 0.37069 0.0
H608 H 0.3386 0.37181 0.27573 0.0
H609 H 0.41588 0.50515 0.33239 0.0
H610 H 0.12469 0.12234 0.31674 0.0
H611 H 0.31184 0.3137 0.48613 0.0
H612 H 0.07122 0.07616 0.36338 0.0
H613 H 0.31908 0.23542 0.48694 0.0
O614 O 0.20646 0.30049 0.33911 0.0
H615 H 0.30013 0.5094 0.41597 0.0
H616 H 0.3007 0.45749 0.30486 0.0
H617 H 0.27461 0.5209 0.31662 0.0
H618 H 0.27449 0.54758 0.3725 0.0
H619 H 0.32535 0.44577 0.40324 0.0
H620 H 0.46742 0.55363 0.2864 0.0
H621 H 0.45383 0.51057 0.23404 0.0
O622 O 0.27379 0.36432 0.31474 0.0
C623 C 0.32417 0.29358 0.33238 0.0
C624 C 0.39499 0.43819 0.25158 0.0
C625 C 0.43931 0.51367 0.28387 0.0
N626 N 0.37452 0.43549 0.30705 0.0
C627 C 0.36665 0.4117 0.27823 0.0
C628 C 0.41027 0.48589 0.31 0.0
C629 C 0.4316 0.48953 0.25449 0.0
C630 C 0.27981 0.29928 0.43889 0.0
N631 N 0.26507 0.26788 0.41294 0.0
C632 C 0.29979 0.28837 0.46579 0.0
C633 C 0.30378 0.24443 0.46624 0.0
C634 C 0.28728 0.2118 0.44006 0.0
C635 C 0.26758 0.22406 0.41359 0.0
C636 C 0.11273 0.13908 0.39546 0.0
C637 C 0.17246 0.19065 0.34354 0.0
C638 C 0.15309 0.18904 0.39833 0.0
N639 N 0.18253 0.21413 0.37256 0.0
C640 C 0.13247 0.14069 0.3398 0.0
C641 C 0.10244 0.11483 0.36597 0.0
C642 C 0.22687 0.33096 0.31588 0.0
C643 C 0.30069 0.49863 0.39147 0.0
C644 C 0.30136 0.46919 0.32924 0.0
C645 C 0.28631 0.50504 0.33575 0.0
C646 C 0.28618 0.51992 0.36709 0.0
N647 N 0.31636 0.44896 0.35322 0.0
C648 C 0.31539 0.46278 0.38407 0.0
Co649 Co 0.95004 0.23253 0.54387 0.0
Co650 Co 0.94237 0.33463 0.51207 0.0
O651 O 0.93922 0.29144 0.54809 0.0
C652 C 0.85031 0.1841 0.57825 0.0
O653 O 0.83413 0.20394 0.55655 0.0
C654 C 0.98445 0.40647 0.56927 0.0
O655 O 0.97624 0.36824 0.58775 0.0
O656 O 1.01026 0.344 0.49892 0.0
O657 O 1.00295 0.26804 0.51 0.0
H658 H 0.96945 0.38175 0.39623 0.0
H659 H 0.95725 0.27768 0.6075 0.0
O660 O 0.89651 0.19397 0.57776 0.0
H661 H 0.12444 0.29174 0.58951 0.0
H662 H 0.96394 0.08385 0.58575 0.0
H663 H 0.972 0.18189 0.49012 0.0
H664 H 0.05657 0.25227 0.54915 0.0
H665 H 0.95217 0.15856 0.58998 0.0
O666 O 0.97708 0.39967 0.53916 0.0
H667 H 0.96172 0.33053 0.44347 0.0
H668 H 0.93637 0.43069 0.50138 0.0
H669 H 0.98487 0.10804 0.48495 0.0
H670 H 0.02367 0.31688 0.64885 0.0
H671 H 0.98045 0.05809 0.53295 0.0
H672 H 0.10816 0.32427 0.63986 0.0
O673 O 0.89704 0.20237 0.50983 0.0
H674 H 0.80242 0.30635 0.58909 0.0
H675 H 0.85351 0.3292 0.47645 0.0
H676 H 0.77097 0.31957 0.49116 0.0
H677 H 0.74453 0.30788 0.54783 0.0
H678 H 0.88503 0.3173 0.57373 0.0
H679 H 0.94497 0.48358 0.455 0.0
H680 H 0.96114 0.45903 0.40173 0.0
O681 O 0.90588 0.27177 0.48451 0.0
C682 C 0.02488 0.31119 0.49605 0.0
C683 C 0.96202 0.39267 0.41927 0.0
C684 C 0.94847 0.44987 0.45225 0.0
N685 N 0.94756 0.37673 0.47543 0.0
C686 C 0.9572 0.36353 0.44618 0.0
C687 C 0.94389 0.41979 0.47863 0.0
C688 C 0.95748 0.43607 0.42238 0.0
C689 C 0.99352 0.28005 0.60376 0.0
N690 N 1.00271 0.26225 0.57618 0.0
C691 C 0.03117 0.30259 0.6271 0.0
C692 C 0.07859 0.30683 0.62201 0.0
C693 C 0.08776 0.28862 0.59376 0.0
C694 C 0.04917 0.26638 0.57096 0.0
C695 C 0.96563 0.1051 0.56463 0.0
C696 C 0.97036 0.16074 0.5112 0.0
C697 C 0.95859 0.14728 0.56682 0.0
N698 N 0.96054 0.17429 0.54025 0.0
C699 C 0.97755 0.11877 0.50809 0.0
C700 C 0.97501 0.09074 0.53501 0.0
C701 C 0.8876 0.22337 0.48645 0.0
C702 C 0.81367 0.31191 0.56432 0.0
C703 C 0.84355 0.32563 0.50132 0.0
C704 C 0.79612 0.31953 0.50945 0.0
C705 C 0.78123 0.31278 0.5412 0.0
N706 N 0.87587 0.32561 0.52411 0.0
C707 C 0.86086 0.31822 0.55532 0.0
C708 C 0.02231 0.55822 0.09449 0.0
C709 C 0.99335 0.54114 0.06609 0.0
C710 C 0.97772 0.45494 0.07842 0.0
C711 C 0.01673 0.47525 0.10195 0.0
N712 N 0.08695 0.55247 0.12388 0.0
N713 N 0.95007 0.4716 0.02823 0.0
C714 C 0.04164 0.52855 0.10813 0.0
C715 C 0.97218 0.48885 0.05731 0.0
N716 N 0.03277 0.60349 0.10798 0.0
N717 N 0.94544 0.40357 0.07635 0.0
H718 H 0.94707 0.49458 0.01098 0.0
H719 H 0.9392 0.43504 0.02003 0.0
H720 H 0.94634 0.37777 0.09243 0.0
H721 H 0.91407 0.38752 0.06111 0.0
H722 H 0.05157 0.6158 0.12977 0.0
H723 H 0.01752 0.62535 0.09922 0.0
H724 H 0.10777 0.59195 0.12684 0.0
H725 H 0.1073 0.53419 0.12924 0.0
C726 C 0.53559 0.04251 0.28013 0.0
C727 C 0.56265 0.01664 0.27254 0.0
C728 C 0.50421 0.97612 0.22742 0.0
C729 C 0.47438 0.99825 0.23721 0.0
N730 N 0.45355 0.03774 0.28011 0.0
N731 N 0.56157 0.94652 0.24435 0.0
C732 C 0.48717 0.02609 0.26615 0.0
C733 C 0.54315 0.97924 0.24803 0.0
N734 N 0.5577 0.086 0.29789 0.0
N735 N 0.49881 0.95567 0.19772 0.0
H736 H 0.58853 0.9463 0.25973 0.0
H737 H 0.54573 0.91602 0.22842 0.0
H738 H 0.4736 0.95508 0.1807 0.0
H739 H 0.52357 0.94412 0.18878 0.0
H740 H 0.54052 0.10806 0.30175 0.0
H741 H 0.59568 0.10385 0.30468 0.0
H742 H 0.46018 0.05525 0.30235 0.0
H743 H 0.41693 0.02462 0.27113 0.0
C744 C 0.52968 0.55486 0.41967 0.0
C745 C 0.54716 0.54085 0.44703 0.0
C746 C 0.4805 0.4518 0.4379 0.0
C747 C 0.45703 0.46794 0.41486 0.0
N748 N 0.45478 0.53981 0.39112 0.0
N749 N 0.53231 0.47515 0.48548 0.0
C750 C 0.48061 0.52078 0.40738 0.0
C751 C 0.52107 0.48896 0.45699 0.0
N752 N 0.55975 0.6009 0.40543 0.0
N753 N 0.46494 0.40121 0.44125 0.0
H754 H 0.56 0.50088 0.501 0.0
H755 H 0.51051 0.43877 0.49508 0.0
H756 H 0.43713 0.3731 0.42677 0.0
H757 H 0.48374 0.38801 0.45585 0.0
H758 H 0.54993 0.61115 0.384 0.0
H759 H 0.59678 0.62602 0.41313 0.0
H760 H 0.4693 0.57874 0.38751 0.0
H761 H 0.41654 0.51772 0.38531 0.0
C762 C 0.03695 0.51641 0.62922 0.0
C763 C 0.01312 0.54457 0.61926 0.0
C764 C 0.96967 0.4818 0.57694 0.0
C765 C 0.99746 0.45663 0.58447 0.0
N766 N 0.06783 0.45954 0.61327 0.0
N767 N 0.97019 0.56194 0.57683 0.0
C768 C 0.03456 0.47716 0.6091 0.0
C769 C 0.9842 0.52999 0.59076 0.0
N770 N 0.05866 0.52404 0.65867 0.0
N771 N 0.92626 0.458 0.55922 0.0
H772 H 0.98189 0.59845 0.58558 0.0
H773 H 0.95208 0.55425 0.55475 0.0
H774 H 0.91043 0.42034 0.55194 0.0
H775 H 0.90256 0.47338 0.55555 0.0
H776 H 0.07161 0.50064 0.66805 0.0
H777 H 0.05904 0.54995 0.67512 0.0
H778 H 0.09837 0.47624 0.6291 0.0
H779 H 0.06824 0.43203 0.59847 0.0
C780 C 0.49815 0.96807 0.74042 0.0
C781 C 0.55143 0.994 0.74637 0.0
C782 C 0.53803 0.04229 0.78872 0.0
C783 C 0.48567 0.02 0.78001 0.0
N784 N 0.42315 0.97658 0.73871 0.0
N785 N 0.62298 0.06835 0.76972 0.0
C786 C 0.46842 0.98835 0.75265 0.0
C787 C 0.57177 0.03527 0.76839 0.0
N788 N 0.47445 0.92143 0.7261 0.0
N789 N 0.55558 0.06698 0.81709 0.0
H790 H 0.64864 0.0665 0.75399 0.0
H791 H 0.63891 0.10114 0.78378 0.0
H792 H 0.53279 0.07108 0.83392 0.0
H793 H 0.59232 0.07889 0.82531 0.0
H794 H 0.435 0.90007 0.72343 0.0
H795 H 0.49299 0.901 0.72158 0.0
H796 H 0.41072 0.95572 0.7176 0.0
H797 H 0.40138 0.99266 0.74624 0.0
C798 C 0.49637 0.51539 0.9625 0.0
C799 C 0.45778 0.47303 0.94552 0.0
C800 C 0.49531 0.51788 0.89538 0.0
C801 C 0.53863 0.5554 0.91211 0.0
N802 N 0.58283 0.58651 0.96214 0.0
N803 N 0.425 0.43117 0.89499 0.0
C804 C 0.53961 0.55376 0.94589 0.0
C805 C 0.45795 0.47376 0.91171 0.0
N806 N 0.49137 0.51926 0.99454 0.0
N807 N 0.48984 0.52455 0.86375 0.0
H808 H 0.39836 0.39739 0.90584 0.0
H809 H 0.42737 0.42774 0.87047 0.0
H810 H 0.51603 0.5569 0.85127 0.0
H811 H 0.45697 0.50085 0.85088 0.0
H812 H 0.51586 0.55141 1.00777 0.0
H813 H 0.45967 0.49255 1.00728 0.0
H814 H 0.58769 0.58293 0.98636 0.0
H815 H 0.61553 0.61481 0.95111 0.0
C816 C 0.18045 0.30274 0.06385 0.0
C817 C 0.19743 0.34943 0.08002 0.0
C818 C 0.27879 0.38224 0.05125 0.0
C819 C 0.26527 0.33181 0.0412 0.0
N820 N 0.2058 0.24193 0.05112 0.0
N821 N 0.26938 0.43203 0.09314 0.0
C822 C 0.21671 0.29133 0.05107 0.0
C823 C 0.24862 0.3889 0.07496 0.0
N824 N 0.12985 0.26957 0.05955 0.0
N825 N 0.31819 0.42404 0.03734 0.0
H826 H 0.24993 0.43746 0.1118 0.0
H827 H 0.30782 0.45966 0.09188 0.0
H828 H 0.33746 0.42195 0.01743 0.0
H829 H 0.32667 0.46111 0.04275 0.0
H830 H 0.11658 0.23619 0.04621 0.0
H831 H 0.10216 0.27895 0.0655 0.0
H832 H 0.17125 0.2122 0.05946 0.0
H833 H 0.23402 0.23239 0.04872 0.0
C834 C 0.90542 0.25814 0.26208 0.0
C835 C 0.87012 0.20854 0.25055 0.0
C836 C 0.90532 0.2369 0.19652 0.0
C837 C 0.94287 0.2844 0.20893 0.0
N838 N 0.95467 0.34709 0.24834 0.0
N839 N 0.83636 0.15092 0.2057 0.0
C840 C 0.9363 0.29738 0.24025 0.0
C841 C 0.86992 0.19802 0.21738 0.0
N842 N 0.91204 0.26754 0.29405 0.0
N843 N 0.90008 0.23169 0.16428 0.0
H844 H 0.80674 0.12336 0.21909 0.0
H845 H 0.8389 0.1384 0.18307 0.0
H846 H 0.9215 0.26252 0.1492 0.0
H847 H 0.87125 0.20005 0.15267 0.0
H848 H 0.94082 0.30186 0.30335 0.0
H849 H 0.89322 0.2395 0.31125 0.0
H850 H 0.94818 0.35844 0.27045 0.0
H851 H 0.96754 0.37558 0.23116 0.0
C852 C 0.72377 0.92257 0.42718 0.0
C853 C 0.68864 0.87109 0.41933 0.0
C854 C 0.66323 0.89952 0.37112 0.0
C855 C 0.70136 0.95062 0.37765 0.0
N856 N 0.76964 0.01117 0.41109 0.0
N857 N 0.62746 0.80923 0.38305 0.0
C858 C 0.73207 0.96214 0.40547 0.0
C859 C 0.65866 0.85921 0.3912 0.0
N860 N 0.7477 0.93383 0.45614 0.0
N861 N 0.63145 0.88966 0.34569 0.0
H862 H 0.62294 0.77898 0.39727 0.0
H863 H 0.60842 0.79733 0.36141 0.0
H864 H 0.63531 0.91786 0.3298 0.0
H865 H 0.59946 0.85437 0.34125 0.0
H866 H 0.76892 0.97062 0.4652 0.0
H867 H 0.74336 0.90609 0.47253 0.0
H868 H 0.79813 0.02137 0.42806 0.0
H869 H 0.77401 0.04188 0.3976 0.0
C870 C 0.79509 0.67875 0.52779 0.0
C871 C 0.74654 0.66898 0.53806 0.0
C872 C 0.76919 0.66033 0.59295 0.0
C873 C 0.81948 0.6742 0.58329 0.0
N874 N 0.88128 0.69972 0.5409 0.0
N875 N 0.68118 0.62266 0.577 0.0
C876 C 0.83268 0.68414 0.55047 0.0
C877 C 0.73149 0.65166 0.56968 0.0
N878 N 0.80294 0.67747 0.49593 0.0
N879 N 0.75793 0.65838 0.62456 0.0
H880 H 0.65321 0.60746 0.5595 0.0
H881 H 0.66816 0.60628 0.59931 0.0
H882 H 0.78514 0.66783 0.64237 0.0
H883 H 0.72337 0.65358 0.63284 0.0
H884 H 0.83561 0.68002 0.48602 0.0
H885 H 0.77331 0.66708 0.47966 0.0
H886 H 0.89498 0.71365 0.51824 0.0
H887 H 0.90917 0.70201 0.55624 0.0
C888 C 0.06514 0.75495 0.7441 0.0
C889 C 0.07416 0.74662 0.71206 0.0
C890 C 0.16644 0.80224 0.72099 0.0
C891 C 0.15641 0.8144 0.75188 0.0
N892 N 0.0958 0.80559 0.79214 0.0
N893 N 0.13289 0.76424 0.66903 0.0
C894 C 0.10568 0.79142 0.76326 0.0
C895 C 0.12482 0.77056 0.70028 0.0
N896 N 0.01756 0.72702 0.75657 0.0
N897 N 0.21576 0.82103 0.71152 0.0
H898 H 0.1035 0.73998 0.65378 0.0
H899 H 0.16791 0.78477 0.65771 0.0
H900 H 0.24677 0.84545 0.72567 0.0
H901 H 0.22618 0.81007 0.69066 0.0
H902 H 1.0097 0.7247 0.78083 0.0
H903 H 0.98619 0.70363 0.74263 0.0
H904 H 0.05937 0.79581 0.79982 0.0
H905 H 0.12418 0.82995 0.80787 0.0
C906 C 0.30563 0.06827 0.90113 0.0
C907 C 0.33681 0.0777 0.87364 0.0
C908 C 0.3843 0.16927 0.88802 0.0
C909 C 0.35429 0.15871 0.91598 0.0
N910 N 0.29452 0.09684 0.95277 0.0
N911 N 0.40808 0.13695 0.84185 0.0
C912 C 0.31726 0.10788 0.92346 0.0
C913 C 0.37722 0.12815 0.86757 0.0
N914 N 0.26391 0.02144 0.90593 0.0
N915 N 0.41784 0.21886 0.88032 0.0
H916 H 0.4011 0.10914 0.82482 0.0
H917 H 0.44166 0.17107 0.83786 0.0
H918 H 0.42419 0.24939 0.89493 0.0
H919 H 0.43734 0.23032 0.85883 0.0
H920 H 0.23529 0.01459 0.92222 0.0
H921 H 0.25618 0.98961 0.89258 0.0
H922 H 0.27221 0.05988 0.96136 0.0
H923 H 0.30173 0.12446 0.96998 0.0
C924 C 0.70534 0.74367 0.76978 0.0
C925 C 0.67419 0.72654 0.79749 0.0
C926 C 0.64042 0.78376 0.78476 0.0
C927 C 0.67244 0.80162 0.75747 0.0
N928 N 0.73057 0.79475 0.72147 0.0
N929 N 0.60733 0.72444 0.8294 0.0
C930 C 0.70364 0.78051 0.74933 0.0
C931 C 0.63997 0.74461 0.80423 0.0
N932 N 0.73717 0.72489 0.76333 0.0
N933 N 0.61222 0.80606 0.79279 0.0
H934 H 0.60719 0.69701 0.84446 0.0
H935 H 0.57823 0.73215 0.83444 0.0
H936 H 0.61149 0.83444 0.7791 0.0
H937 H 0.59158 0.79888 0.81376 0.0
H938 H 0.76601 0.73991 0.74641 0.0
H939 H 0.7355 0.69426 0.7757 0.0
H940 H 0.74972 0.77727 0.71197 0.0
H941 H 0.73193 0.82293 0.70656 0.0
C942 C 0.90874 0.71251 0.92443 0.0
C943 C 0.8592 0.67236 0.93181 0.0
C944 C 0.89299 0.65362 0.98041 0.0
C945 C 0.94241 0.69559 0.97374 0.0
N946 N 0.99431 0.77039 0.94146 0.0
N947 N 0.80213 0.60744 0.96794 0.0
C948 C 0.9492 0.72666 0.94651 0.0
C949 C 0.85083 0.64331 0.96 0.0
N950 N 0.91815 0.73555 0.89524 0.0
N951 N 0.88606 0.62439 1.00676 0.0
H952 H 0.77084 0.59906 0.95353 0.0
H953 H 0.79186 0.58795 0.98947 0.0
H954 H 0.91373 0.63447 0.02436 0.0
H955 H 0.85342 0.58959 0.01107 0.0
H956 H 0.95459 0.75989 0.88654 0.0
H957 H 0.89002 0.72701 0.87822 0.0
H958 H 0.99846 0.79885 0.92574 0.0
H959 H 0.02742 0.7797 0.95373 0.0
C960 C 0.29697 0.93339 0.10937 0.0
C961 C 0.28271 0.93712 0.14089 0.0
C962 C 0.19781 0.86259 0.1305 0.0
C963 C 0.20954 0.86533 0.09744 0.0
N964 N 0.2688 0.91067 0.05506 0.0
N965 N 0.22815 0.89208 0.1844 0.0
C966 C 0.25888 0.90249 0.08684 0.0
C967 C 0.23513 0.89798 0.15228 0.0
N968 N 0.3471 0.95535 0.10156 0.0
N969 N 0.15095 0.82647 0.14103 0.0
H970 H 0.25769 0.91403 0.20022 0.0
H971 H 0.19614 0.86286 0.19538 0.0
H972 H 0.12489 0.79748 0.12646 0.0
H973 H 0.13715 0.82584 0.16378 0.0
H974 H 0.35982 0.95147 0.07926 0.0
H975 H 0.37512 0.96866 0.11904 0.0
H976 H 0.30266 0.94055 0.04612 0.0
H977 H 0.24097 0.8916 0.03781 0.0
C978 C 0.36568 0.24848 0.25878 0.0
C979 C 0.34085 0.19485 0.26453 0.0
C980 C 0.32277 0.21122 0.31921 0.0
C981 C 0.34121 0.26311 0.31203 0.0
N982 N 0.40631 0.33304 0.28171 0.0
N983 N 0.29032 0.12514 0.30082 0.0
C984 C 0.37014 0.2827 0.28368 0.0
C985 C 0.31777 0.1762 0.29487 0.0
N986 N 0.38286 0.26703 0.22896 0.0
N987 N 0.31657 0.19698 0.35036 0.0
H988 H 0.28623 0.09752 0.28469 0.0
H989 H 0.26778 0.11002 0.32102 0.0
H990 H 0.32925 0.22445 0.3683 0.0
H991 H 0.30749 0.16073 0.35816 0.0
H992 H 0.39502 0.30461 0.22244 0.0
H993 H 0.38009 0.24403 0.20981 0.0
H994 H 0.43126 0.34857 0.26259 0.0
H995 H 0.41765 0.3575 0.30119 0.0
C996 C 0.15599 0.36528 0.45603 0.0
C997 C 0.14348 0.33144 0.4297 0.0
C998 C 0.05295 0.28989 0.44468 0.0
C999 C 0.06588 0.32055 0.4726 0.0
N1000 N 0.12986 0.38393 0.50677 0.0
N1001 N 0.08049 0.25918 0.39985 0.0
C1002 C 0.11745 0.35769 0.47864 0.0
C1003 C 0.09208 0.29302 0.42438 0.0
N1004 N 0.20484 0.40451 0.45953 0.0
N1005 N 1.00286 0.25922 0.43676 0.0
H1006 H 0.10664 0.26274 0.38251 0.0
H1007 H 0.04551 0.22587 0.39748 0.0
H1008 H 0.97316 0.25599 0.45079 0.0
H1009 H 0.9904 0.24032 0.41509 0.0
H1010 H 0.21555 0.43398 0.47589 0.0
H1011 H 0.23458 0.40942 0.44474 0.0
H1012 H 0.16707 0.40742 0.51451 0.0
H1013 H 0.10267 0.37953 0.52361 0.0
C1014 C 0.82098 0.15257 0.63483 0.0
C1015 C 0.8131 0.14582 0.60135 0.0
C1016 C 0.72882 0.07205 0.61152 0.0
C1017 C 0.74135 0.071 0.64398 0.0
N1018 N 0.79458 0.11748 0.68806 0.0
N1019 N 0.76155 0.0922 0.55803 0.0
C1020 C 0.78652 0.11336 0.65604 0.0
C1021 C 0.76763 0.10354 0.58976 0.0
N1022 N 0.85945 0.19759 0.64633 0.0
N1023 N 0.67941 0.0471 0.60171 0.0
H1024 H 0.78969 0.11276 0.54118 0.0
H1025 H 0.73067 0.05894 0.54913 0.0
H1026 H 0.64948 0.03379 0.61782 0.0
H1027 H 0.66857 0.04876 0.57838 0.0
H1028 H 0.86568 0.20688 0.67037 0.0
H1029 H 0.88267 0.22788 0.6315 0.0
H1030 H 0.8291 0.14287 0.69874 0.0
H1031 H 0.76544 0.0951 0.70393 0.0
C1032 C 0.20868 0.32159 0.25756 0.0
C1033 C 0.19566 0.3302 0.28845 0.0
C1034 C 0.15348 0.3735 0.26557 0.0
C1035 C 0.16115 0.36045 0.23433 0.0
N1036 N 0.21247 0.33908 0.2009 0.0
N1037 N 0.14393 0.35169 0.32128 0.0
C1038 C 0.19304 0.3386 0.23034 0.0
C1039 C 0.16388 0.35159 0.2922 0.0
N1040 N 0.23484 0.29577 0.25451 0.0
N1041 N 0.14317 0.41199 0.27033 0.0
H1042 H 0.14938 0.33449 0.34115 0.0
H1043 H 0.11688 0.363 0.32458 0.0
H1044 H 0.14888 0.43811 0.25259 0.0
H1045 H 0.13991 0.42464 0.29281 0.0
H1046 H 0.24217 0.28396 0.23288 0.0
H1047 H 0.24558 0.28216 0.27415 0.0
H1048 H 0.23853 0.32702 0.19629 0.0
H1049 H 0.20726 0.35749 0.18147 0.0
C1050 C 0.83061 0.20919 0.43966 0.0
C1051 C 0.85844 0.19212 0.45797 0.0
C1052 C 0.86126 0.14418 0.41166 0.0
C1053 C 0.83298 0.16101 0.39356 0.0
N1054 N 0.80917 0.22491 0.38706 0.0
N1055 N 0.8774 0.12388 0.46428 0.0
C1056 C 0.82292 0.19801 0.40671 0.0
C1057 C 0.86759 0.15409 0.44491 0.0
N1058 N 0.80688 0.23144 0.4547 0.0
N1059 N 0.88539 0.12215 0.39686 0.0
H1060 H 0.87284 0.1233 0.48883 0.0
H1061 H 0.88123 0.09356 0.45583 0.0
H1062 H 0.88863 0.12278 0.37224 0.0
H1063 H 0.90927 0.112 0.40872 0.0
H1064 H 0.78263 0.24144 0.44317 0.0
H1065 H 0.80592 0.23244 0.47949 0.0
H1066 H 0.8055 0.25569 0.39476 0.0
H1067 H 0.80761 0.21984 0.36241 0.0
C1068 C 0.68394 0.81786 0.62018 0.0
C1069 C 0.68504 0.86517 0.61828 0.0
C1070 C 0.68763 0.86218 0.56015 0.0
C1071 C 0.68904 0.81609 0.56211 0.0
N1072 N 0.70637 0.76037 0.59428 0.0
N1073 N 0.70616 0.94017 0.58717 0.0
C1074 C 0.69274 0.79707 0.59227 0.0
C1075 C 0.69254 0.88984 0.58844 0.0
N1076 N 0.6723 0.79159 0.64817 0.0
N1077 N 0.67907 0.87841 0.53171 0.0
H1078 H 0.71246 0.96217 0.60759 0.0
H1079 H 0.71638 0.96113 0.5661 0.0
H1080 H 0.67359 0.85841 0.51056 0.0
H1081 H 0.67271 0.90915 0.52974 0.0
H1082 H 0.66608 0.75454 0.64997 0.0
H1083 H 0.66427 0.80501 0.6689 0.0
H1084 H 0.71379 0.74822 0.61581 0.0
H1085 H 0.71565 0.74621 0.57429 0.0
C1086 C 0.88215 0.69565 0.76013 0.0
C1087 C 0.86065 0.67084 0.73107 0.0
C1088 C 0.77875 0.61857 0.75829 0.0
C1089 C 0.80123 0.64368 0.7878 0.0
N1090 N 0.88062 0.68521 0.81677 0.0
N1091 N 0.78651 0.61451 0.70084 0.0
C1092 C 0.85477 0.67645 0.78874 0.0
C1093 C 0.80822 0.63407 0.72971 0.0
N1094 N 0.928 0.73933 0.7604 0.0
N1095 N 0.73166 0.57611 0.75795 0.0
H1096 H 0.8077 0.62391 0.67996 0.0
H1097 H 0.74752 0.59269 0.69689 0.0
H1098 H 0.71323 0.55722 0.77845 0.0
H1099 H 0.714 0.55437 0.73783 0.0
H1100 H 0.94314 0.76174 0.78074 0.0
H1101 H 0.94789 0.75527 0.73952 0.0
H1102 H 0.92022 0.70634 0.8182 0.0
H1103 H 0.86312 0.66443 0.83728 0.0
C1104 C 0.16844 0.82073 0.89106 0.0
C1105 C 0.21437 0.86735 0.89627 0.0
C1106 C 0.20535 0.84748 0.95334 0.0
C1107 C 0.15416 0.80907 0.94875 0.0
N1108 N 0.08582 0.76 0.91123 0.0
N1109 N 0.27358 0.92748 0.9352 0.0
C1110 C 0.13528 0.79579 0.91704 0.0
C1111 C 0.2322 0.88142 0.92817 0.0
N1112 N 0.15798 0.79805 0.86179 0.0
N1113 N 0.2298 0.84951 0.98103 0.0
H1114 H 0.29446 0.95479 0.91831 0.0
H1115 H 0.28395 0.94052 0.95849 0.0
H1116 H 0.21267 0.82219 0.99882 0.0
H1117 H 0.2688 0.87378 0.98428 0.0
H1118 H 0.1272 0.76175 0.85748 0.0
H1119 H 0.18364 0.81223 0.84296 0.0
H1120 H 0.06926 0.75414 0.88874 0.0
H1121 H 0.06021 0.73884 0.92892 0.0
C1122 C 0.33722 0.18746 0.11915 0.0
C1123 C 0.36148 0.15731 0.11723 0.0
C1124 C 0.36762 0.16934 0.05897 0.0
C1125 C 0.34572 0.20097 0.06104 0.0
N1126 N 0.31474 0.24541 0.09359 0.0
N1127 N 0.42167 0.14472 0.08585 0.0
C1128 C 0.33164 0.21119 0.09129 0.0
C1129 C 0.38252 0.15467 0.0873 0.0
N1130 N 0.32149 0.19565 0.1479 0.0
N1131 N 0.37681 0.15517 0.02997 0.0
H1132 H 0.44344 0.14772 0.10557 0.0
H1133 H 0.43968 0.14465 0.06473 0.0
H1134 H 0.36955 0.16755 0.00854 0.0
H1135 H 0.3874 0.12745 0.02735 0.0
H1136 H 0.29505 0.20781 0.15047 0.0
H1137 H 0.33567 0.19103 0.16941 0.0
H1138 H 0.31031 0.26023 0.11494 0.0
H1139 H 0.30777 0.26171 0.07384 0.0
loop_
_geom_bond_atom_site_label_1
_geom_bond_atom_site_label_2
_geom_bond_distance
_geom_bond_site_symmetry_2
_ccdc_geom_bond_type
Co0 O2 2.143 . S
Co0 O8 2.074 . S
Co0 O11 2.093 . S
Co0 O24 2.097 . S
Co0 N41 2.151 . S
Co0 N49 2.214 . S
Co1 O2 2.160 . S
Co1 O7 2.058 . S
Co1 O17 2.057 . S
Co1 O32 2.037 . S
Co1 N36 2.145 . S
Co1 N57 2.257 . S
O2 Co0 2.143 . S
O2 Co1 2.160 . S
C3 O4 1.278 . S
C3 O11 1.224 . S
O4 C3 1.278 . S
C5 O6 1.245 . S
C5 O17 1.232 . S
O6 C5 1.245 . S
O7 Co1 2.058 . S
O7 C33 1.269 1_455 S
O8 Co0 2.074 . S
O8 C33 1.257 1_455 S
H9 C34 0.930 . S
H10 C40 0.930 . S
O11 Co0 2.093 . S
O11 C3 1.224 . S
H12 C44 0.929 . S
H13 C46 0.930 . S
H14 C47 0.930 . S
H15 C45 0.929 . S
H16 C48 0.928 . S
O17 Co1 2.057 . S
O17 C5 1.232 . S
H18 C37 0.929 . S
H19 C38 0.929 . S
H20 C50 0.931 . S
H21 C42 0.929 1_455 S
H22 C51 0.930 . S
H23 C43 0.931 . S
O24 Co0 2.097 . S
O24 C52 1.214 . S
H25 C53 0.929 . S
H26 C54 0.929 . S
H27 C55 0.930 . S
H28 C56 0.929 . S
H29 C58 0.930 . S
H30 C35 0.930 . S
H31 C39 0.930 . S
O32 Co1 2.037 . S
O32 C52 1.234 . S
C33 O7 1.269 1_655 S
C33 O8 1.257 1_655 S
C34 H9 0.930 . S
C34 C37 1.388 . S
C34 C39 1.418 . S
C35 H30 0.930 . S
C35 C38 1.404 . S
C35 C39 1.353 . S
N36 Co1 2.145 . S
N36 C37 1.397 . S
N36 C38 1.334 . S
C37 H18 0.929 . S
C37 C34 1.388 . S
C37 N36 1.397 . S
C38 H19 0.929 . S
C38 C35 1.404 . S
C38 N36 1.334 . S
C39 H31 0.930 . S
C39 C34 1.418 . S
C39 C35 1.353 . S
C40 H10 0.930 . S
C40 N41 1.330 . S
C40 C42 1.446 1_455 S
N41 Co0 2.151 . S
N41 C40 1.330 . S
N41 C45 1.418 1_455 S
C42 H21 0.929 1_655 S
C42 C40 1.446 1_655 S
C42 C43 1.332 . S
C43 H23 0.931 . S
C43 C42 1.332 . S
C43 C44 1.267 . S
C44 H12 0.929 . S
C44 C43 1.267 . S
C44 C45 1.251 . S
C45 H15 0.929 . S
C45 N41 1.418 1_655 S
C45 C44 1.251 . S
C46 H13 0.930 . S
C46 C48 1.406 . S
C46 C51 1.261 . S
C47 H14 0.930 . S
C47 N49 1.325 . S
C47 C50 1.357 . S
C48 H16 0.928 . S
C48 C46 1.406 . S
C48 N49 1.261 . S
N49 Co0 2.214 . S
N49 C47 1.325 . S
N49 C48 1.261 . S
C50 H20 0.931 . S
C50 C47 1.357 . S
C50 C51 1.312 . S
C51 H22 0.930 . S
C51 C46 1.261 . S
C51 C50 1.312 . S
C52 O24 1.214 . S
C52 O32 1.234 . S
C53 H25 0.929 . S
C53 C56 1.391 . S
C53 C58 1.391 . S
C54 H26 0.929 . S
C54 C55 1.390 . S
C54 N57 1.391 . S
C55 H27 0.930 . S
C55 C54 1.390 . S
C55 C56 1.392 . S
C56 H28 0.929 . S
C56 C53 1.391 . S
C56 C55 1.392 . S
N57 Co1 2.257 . S
N57 C54 1.391 . S
N57 C58 1.388 . S
C58 H29 0.930 . S
C58 C53 1.391 . S
C58 N57 1.388 . S
Co59 O61 2.143 . S
Co59 O67 2.074 . S
Co59 O70 2.093 . S
Co59 O83 2.097 . S
Co59 N100 2.151 . S
Co59 N108 2.214 . S
Co60 O61 2.160 . S
Co60 O66 2.058 . S
Co60 O76 2.057 . S
Co60 O91 2.037 . S
Co60 N95 2.145 . S
Co60 N116 2.257 . S
O61 Co59 2.143 . S
O61 Co60 2.160 . S
C62 O63 1.278 . S
C62 O70 1.224 . S
O63 C62 1.278 . S
C64 O65 1.245 . S
C64 O76 1.232 . S
O65 C64 1.245 . S
O66 Co60 2.058 . S
O66 C92 1.269 1_545 S
O67 Co59 2.074 . S
O67 C92 1.257 1_545 S
H68 C93 0.930 . S
H69 C99 0.930 . S
O70 Co59 2.093 . S
O70 C62 1.224 . S
H71 C103 0.929 . S
H72 C105 0.930 . S
H73 C106 0.930 . S
H74 C104 0.929 . S
H75 C107 0.928 . S
O76 Co60 2.057 . S
O76 C64 1.232 . S
H77 C96 0.929 . S
H78 C97 0.929 . S
H79 C109 0.931 . S
H80 C101 0.929 1_545 S
H81 C110 0.930 . S
H82 C102 0.931 . S
O83 Co59 2.097 . S
O83 C111 1.214 . S
H84 C112 0.929 . S
H85 C113 0.929 . S
H86 C114 0.930 . S
H87 C115 0.929 . S
H88 C117 0.930 . S
H89 C94 0.930 . S
H90 C98 0.930 . S
O91 Co60 2.037 . S
O91 C111 1.234 . S
C92 O66 1.269 1_565 S
C92 O67 1.257 1_565 S
C93 H68 0.930 . S
C93 C96 1.388 . S
C93 C98 1.418 . S
C94 H89 0.930 . S
C94 C97 1.404 . S
C94 C98 1.353 . S
N95 Co60 2.145 . S
N95 C96 1.397 . S
N95 C97 1.334 . S
C96 H77 0.929 . S
C96 C93 1.388 . S
C96 N95 1.397 . S
C97 H78 0.929 . S
C97 C94 1.404 . S
C97 N95 1.334 . S
C98 H90 0.930 . S
C98 C93 1.418 . S
C98 C94 1.353 . S
C99 H69 0.930 . S
C99 N100 1.330 . S
C99 C101 1.446 1_545 S
N100 Co59 2.151 . S
N100 C99 1.330 . S
N100 C104 1.418 1_545 S
C101 H80 0.929 1_565 S
C101 C99 1.446 1_565 S
C101 C102 1.332 . S
C102 H82 0.931 . S
C102 C101 1.332 . S
C102 C103 1.267 . S
C103 H71 0.929 . S
C103 C102 1.267 . S
C103 C104 1.251 . S
C104 H74 0.929 . S
C104 N100 1.418 1_565 S
C104 C103 1.251 . S
C105 H72 0.930 . S
C105 C107 1.406 . S
C105 C110 1.261 . S
C106 H73 0.930 . S
C106 N108 1.325 . S
C106 C109 1.357 . S
C107 H75 0.928 . S
C107 C105 1.406 . S
C107 N108 1.261 . S
N108 Co59 2.214 . S
N108 C106 1.325 . S
N108 C107 1.261 . S
C109 H79 0.931 . S
C109 C106 1.357 . S
C109 C110 1.312 . S
C110 H81 0.930 . S
C110 C105 1.261 . S
C110 C109 1.312 . S
C111 O83 1.214 . S
C111 O91 1.234 . S
C112 H84 0.929 . S
C112 C115 1.391 . S
C112 C117 1.391 . S
C113 H85 0.929 . S
C113 C114 1.390 . S
C113 N116 1.391 . S
C114 H86 0.930 . S
C114 C113 1.390 . S
C114 C115 1.392 . S
C115 H87 0.929 . S
C115 C112 1.391 . S
C115 C114 1.392 . S
N116 Co60 2.257 . S
N116 C113 1.391 . S
N116 C117 1.388 . S
C117 H88 0.930 . S
C117 C112 1.391 . S
C117 N116 1.388 . S
Co118 O120 2.143 . S
Co118 O126 2.074 . S
Co118 O129 2.093 . S
Co118 O142 2.097 . S
Co118 N159 2.151 . S
Co118 N167 2.214 . S
Co119 O120 2.160 . S
Co119 O125 2.058 . S
Co119 O135 2.057 . S
Co119 O150 2.037 . S
Co119 N154 2.145 . S
Co119 N175 2.257 . S
O120 Co118 2.143 . S
O120 Co119 2.160 . S
C121 O122 1.278 . S
C121 O129 1.224 . S
O122 C121 1.278 . S
C123 O124 1.245 . S
C123 O135 1.232 . S
O124 C123 1.245 . S
O125 Co119 2.058 . S
O125 C151 1.269 . S
O126 Co118 2.074 . S
O126 C151 1.257 . S
H127 C152 0.930 . S
H128 C158 0.930 . S
O129 Co118 2.093 . S
O129 C121 1.224 . S
H130 C162 0.929 . S
H131 C164 0.930 . S
H132 C165 0.930 . S
H133 C163 0.929 . S
H134 C166 0.928 . S
O135 Co119 2.057 . S
O135 C123 1.232 . S
H136 C155 0.929 . S
H137 C156 0.929 . S
H138 C168 0.931 . S
H139 C160 0.929 . S
H140 C169 0.930 . S
H141 C161 0.931 . S
O142 Co118 2.097 . S
O142 C170 1.214 . S
H143 C171 0.929 . S
H144 C172 0.929 . S
H145 C173 0.930 . S
H146 C174 0.929 . S
H147 C176 0.930 . S
H148 C153 0.930 . S
H149 C157 0.930 . S
O150 Co119 2.037 . S
O150 C170 1.234 . S
C151 O125 1.269 . S
C151 O126 1.257 . S
C152 H127 0.930 . S
C152 C155 1.388 . S
C152 C157 1.418 . S
C153 H148 0.930 . S
C153 C156 1.404 . S
C153 C157 1.353 . S
N154 Co119 2.145 . S
N154 C155 1.397 . S
N154 C156 1.334 . S
C155 H136 0.929 . S
C155 C152 1.388 . S
C155 N154 1.397 . S
C156 H137 0.929 . S
C156 C153 1.404 . S
C156 N154 1.334 . S
C157 H149 0.930 . S
C157 C152 1.418 . S
C157 C153 1.353 . S
C158 H128 0.930 . S
C158 N159 1.330 . S
C158 C160 1.446 . S
N159 Co118 2.151 . S
N159 C158 1.330 . S
N159 C163 1.418 . S
C160 H139 0.929 . S
C160 C158 1.446 . S
C160 C161 1.332 . S
C161 H141 0.931 . S
C161 C160 1.332 . S
C161 C162 1.267 . S
C162 H130 0.929 . S
C162 C161 1.267 . S
C162 C163 1.251 . S
C163 H133 0.929 . S
C163 N159 1.418 . S
C163 C162 1.251 . S
C164 H131 0.930 . S
C164 C166 1.406 . S
C164 C169 1.261 . S
C165 H132 0.930 . S
C165 N167 1.325 . S
C165 C168 1.357 . S
C166 H134 0.928 . S
C166 C164 1.406 . S
C166 N167 1.261 . S
N167 Co118 2.214 . S
N167 C165 1.325 . S
N167 C166 1.261 . S
C168 H138 0.931 . S
C168 C165 1.357 . S
C168 C169 1.312 . S
C169 H140 0.930 . S
C169 C164 1.261 . S
C169 C168 1.312 . S
C170 O142 1.214 . S
C170 O150 1.234 . S
C171 H143 0.929 . S
C171 C174 1.391 . S
C171 C176 1.391 . S
C172 H144 0.929 . S
C172 C173 1.390 . S
C172 N175 1.391 . S
C173 H145 0.930 . S
C173 C172 1.390 . S
C173 C174 1.392 . S
C174 H146 0.929 . S
C174 C171 1.391 . S
C174 C173 1.392 . S
N175 Co119 2.257 . S
N175 C172 1.391 . S
N175 C176 1.388 . S
C176 H147 0.930 . S
C176 C171 1.391 . S
C176 N175 1.388 . S
Co177 O179 2.143 . S
Co177 O185 2.074 . S
Co177 O188 2.093 . S
Co177 O201 2.097 . S
Co177 N218 2.151 . S
Co177 N226 2.214 . S
Co178 O179 2.160 . S
Co178 O184 2.058 . S
Co178 O194 2.057 . S
Co178 O209 2.037 . S
Co178 N213 2.145 . S
Co178 N234 2.257 . S
O179 Co177 2.143 . S
O179 Co178 2.160 . S
C180 O181 1.278 . S
C180 O188 1.224 . S
O181 C180 1.278 . S
C182 O183 1.245 . S
C182 O194 1.232 . S
O183 C182 1.245 . S
O184 Co178 2.058 . S
O184 C210 1.269 1_655 S
O185 Co177 2.074 . S
O185 C210 1.257 1_655 S
H186 C211 0.930 . S
H187 C217 0.930 . S
O188 Co177 2.093 . S
O188 C180 1.224 . S
H189 C221 0.929 . S
H190 C223 0.930 . S
H191 C224 0.930 . S
H192 C222 0.929 . S
H193 C225 0.928 . S
O194 Co178 2.057 . S
O194 C182 1.232 . S
H195 C214 0.929 . S
H196 C215 0.929 . S
H197 C227 0.931 . S
H198 C219 0.929 1_655 S
H199 C228 0.930 . S
H200 C220 0.931 . S
O201 Co177 2.097 . S
O201 C229 1.214 . S
H202 C230 0.929 . S
H203 C231 0.929 . S
H204 C232 0.930 . S
H205 C233 0.929 . S
H206 C235 0.930 . S
H207 C212 0.930 . S
H208 C216 0.930 . S
O209 Co178 2.037 . S
O209 C229 1.234 . S
C210 O184 1.269 1_455 S
C210 O185 1.257 1_455 S
C211 H186 0.930 . S
C211 C214 1.388 . S
C211 C216 1.418 . S
C212 H207 0.930 . S
C212 C215 1.404 . S
C212 C216 1.353 . S
N213 Co178 2.145 . S
N213 C214 1.397 . S
N213 C215 1.334 . S
C214 H195 0.929 . S
C214 C211 1.388 . S
C214 N213 1.397 . S
C215 H196 0.929 . S
C215 C212 1.404 . S
C215 N213 1.334 . S
C216 H208 0.930 . S
C216 C211 1.418 . S
C216 C212 1.353 . S
C217 H187 0.930 . S
C217 N218 1.330 . S
C217 C219 1.446 1_655 S
N218 Co177 2.151 . S
N218 C217 1.330 . S
N218 C222 1.418 1_655 S
C219 H198 0.929 1_455 S
C219 C217 1.446 1_455 S
C219 C220 1.332 . S
C220 H200 0.931 . S
C220 C219 1.332 . S
C220 C221 1.267 . S
C221 H189 0.929 . S
C221 C220 1.267 . S
C221 C222 1.251 . S
C222 H192 0.929 . S
C222 N218 1.418 1_455 S
C222 C221 1.251 . S
C223 H190 0.930 . S
C223 C225 1.406 . S
C223 C228 1.261 . S
C224 H191 0.930 . S
C224 N226 1.325 . S
C224 C227 1.357 . S
C225 H193 0.928 . S
C225 C223 1.406 . S
C225 N226 1.261 . S
N226 Co177 2.214 . S
N226 C224 1.325 . S
N226 C225 1.261 . S
C227 H197 0.931 . S
C227 C224 1.357 . S
C227 C228 1.312 . S
C228 H199 0.930 . S
C228 C223 1.261 . S
C228 C227 1.312 . S
C229 O201 1.214 . S
C229 O209 1.234 . S
C230 H202 0.929 . S
C230 C233 1.391 . S
C230 C235 1.391 . S
C231 H203 0.929 . S
C231 C232 1.390 . S
C231 N234 1.391 . S
C232 H204 0.930 . S
C232 C231 1.390 . S
C232 C233 1.392 . S
C233 H205 0.929 . S
C233 C230 1.391 . S
C233 C232 1.392 . S
N234 Co178 2.257 . S
N234 C231 1.391 . S
N234 C235 1.388 . S
C235 H206 0.930 . S
C235 C230 1.391 . S
C235 N234 1.388 . S
Co236 O238 2.143 . S
Co236 O244 2.074 . S
Co236 O247 2.093 . S
Co236 O260 2.097 . S
Co236 N277 2.151 . S
Co236 N285 2.214 . S
Co237 O238 2.160 . S
Co237 O243 2.058 . S
Co237 O253 2.057 . S
Co237 O268 2.037 . S
Co237 N272 2.145 . S
Co237 N293 2.257 . S
O238 Co236 2.143 . S
O238 Co237 2.160 . S
C239 O240 1.278 . S
C239 O247 1.224 . S
O240 C239 1.278 . S
C241 O242 1.245 . S
C241 O253 1.232 . S
O242 C241 1.245 . S
O243 Co237 2.058 . S
O243 C269 1.269 1_565 S
O244 Co236 2.074 . S
O244 C269 1.257 1_565 S
H245 C270 0.930 . S
H246 C276 0.930 . S
O247 Co236 2.093 . S
O247 C239 1.224 . S
H248 C280 0.929 . S
H249 C282 0.930 . S
H250 C283 0.930 . S
H251 C281 0.929 . S
H252 C284 0.928 . S
O253 Co237 2.057 . S
O253 C241 1.232 . S
H254 C273 0.929 . S
H255 C274 0.929 . S
H256 C286 0.931 . S
H257 C278 0.929 1_565 S
H258 C287 0.930 . S
H259 C279 0.931 . S
O260 Co236 2.097 . S
O260 C288 1.214 . S
H261 C289 0.929 . S
H262 C290 0.929 . S
H263 C291 0.930 . S
H264 C292 0.929 . S
H265 C294 0.930 . S
H266 C271 0.930 . S
H267 C275 0.930 . S
O268 Co237 2.037 . S
O268 C288 1.234 . S
C269 O243 1.269 1_545 S
C269 O244 1.257 1_545 S
C270 H245 0.930 . S
C270 C273 1.388 . S
C270 C275 1.418 . S
C271 H266 0.930 . S
C271 C274 1.404 . S
C271 C275 1.353 . S
N272 Co237 2.145 . S
N272 C273 1.397 . S
N272 C274 1.334 . S
C273 H254 0.929 . S
C273 C270 1.388 . S
C273 N272 1.397 . S
C274 H255 0.929 . S
C274 C271 1.404 . S
C274 N272 1.334 . S
C275 H267 0.930 . S
C275 C270 1.418 . S
C275 C271 1.353 . S
C276 H246 0.930 . S
C276 N277 1.330 . S
C276 C278 1.446 1_565 S
N277 Co236 2.151 . S
N277 C276 1.330 . S
N277 C281 1.418 1_565 S
C278 H257 0.929 1_545 S
C278 C276 1.446 1_545 S
C278 C279 1.332 . S
C279 H259 0.931 . S
C279 C278 1.332 . S
C279 C280 1.267 . S
C280 H248 0.929 . S
C280 C279 1.267 . S
C280 C281 1.251 . S
C281 H251 0.929 . S
C281 N277 1.418 1_545 S
C281 C280 1.251 . S
C282 H249 0.930 . S
C282 C284 1.406 . S
C282 C287 1.261 . S
C283 H250 0.930 . S
C283 N285 1.325 . S
C283 C286 1.357 . S
C284 H252 0.928 . S
C284 C282 1.406 . S
C284 N285 1.261 . S
N285 Co236 2.214 . S
N285 C283 1.325 . S
N285 C284 1.261 . S
C286 H256 0.931 . S
C286 C283 1.357 . S
C286 C287 1.312 . S
C287 H258 0.930 . S
C287 C282 1.261 . S
C287 C286 1.312 . S
C288 O260 1.214 . S
C288 O268 1.234 . S
C289 H261 0.929 . S
C289 C292 1.391 . S
C289 C294 1.391 . S
C290 H262 0.929 . S
C290 C291 1.390 . S
C290 N293 1.391 . S
C291 H263 0.930 . S
C291 C290 1.390 . S
C291 C292 1.392 . S
C292 H264 0.929 . S
C292 C289 1.391 . S
C292 C291 1.392 . S
N293 Co237 2.257 . S
N293 C290 1.391 . S
N293 C294 1.388 . S
C294 H265 0.930 . S
C294 C289 1.391 . S
C294 N293 1.388 . S
Co295 O297 2.143 . S
Co295 O303 2.074 . S
Co295 O306 2.093 . S
Co295 O319 2.097 1_556 S
Co295 N336 2.151 . S
Co295 N344 2.214 . S
Co296 O297 2.160 . S
Co296 O302 2.059 . S
Co296 O312 2.057 . S
Co296 O327 2.037 1_556 S
Co296 N331 2.145 1_556 S
Co296 N352 2.257 . S
O297 Co295 2.143 . S
O297 Co296 2.160 . S
C298 O299 1.278 . S
C298 O306 1.224 . S
O299 C298 1.278 . S
C300 O301 1.245 . S
C300 O312 1.232 . S
O301 C300 1.245 . S
O302 Co296 2.059 . S
O302 C328 1.269 1_556 S
O303 Co295 2.074 . S
O303 C328 1.257 1_556 S
H304 C329 0.930 . S
H305 C335 0.930 . S
O306 Co295 2.093 . S
O306 C298 1.224 . S
H307 C339 0.929 . S
H308 C341 0.930 . S
H309 C342 0.930 . S
H310 C340 0.929 . S
H311 C343 0.928 . S
O312 Co296 2.057 . S
O312 C300 1.232 . S
H313 C332 0.929 . S
H314 C333 0.929 . S
H315 C345 0.931 . S
H316 C337 0.929 . S
H317 C346 0.930 . S
H318 C338 0.931 . S
O319 Co295 2.097 1_554 S
O319 C347 1.214 . S
H320 C348 0.929 . S
H321 C349 0.929 . S
H322 C350 0.930 . S
H323 C351 0.929 . S
H324 C353 0.930 . S
H325 C330 0.930 . S
H326 C334 0.930 . S
O327 Co296 2.037 1_554 S
O327 C347 1.234 . S
C328 O302 1.269 1_554 S
C328 O303 1.257 1_554 S
C329 H304 0.930 . S
C329 C332 1.388 . S
C329 C334 1.418 . S
C330 H325 0.930 . S
C330 C333 1.404 . S
C330 C334 1.353 . S
N331 Co296 2.145 1_554 S
N331 C332 1.397 . S
N331 C333 1.334 . S
C332 H313 0.929 . S
C332 C329 1.388 . S
C332 N331 1.397 . S
C333 H314 0.929 . S
C333 C330 1.404 . S
C333 N331 1.334 . S
C334 H326 0.930 . S
C334 C329 1.418 . S
C334 C330 1.353 . S
C335 H305 0.930 . S
C335 N336 1.330 . S
C335 C337 1.446 . S
N336 Co295 2.151 . S
N336 C335 1.330 . S
N336 C340 1.418 . S
C337 H316 0.929 . S
C337 C335 1.446 . S
C337 C338 1.332 . S
C338 H318 0.931 . S
C338 C337 1.332 . S
C338 C339 1.267 . S
C339 H307 0.929 . S
C339 C338 1.267 . S
C339 C340 1.251 . S
C340 H310 0.929 . S
C340 N336 1.418 . S
C340 C339 1.251 . S
C341 H308 0.930 . S
C341 C343 1.406 . S
C341 C346 1.261 1_556 S
C342 H309 0.930 . S
C342 N344 1.325 1_554 S
C342 C345 1.357 . S
C343 H311 0.928 . S
C343 C341 1.406 . S
C343 N344 1.261 . S
N344 Co295 2.214 . S
N344 C342 1.325 1_556 S
N344 C343 1.261 . S
C345 H315 0.931 . S
C345 C342 1.357 . S
C345 C346 1.312 . S
C346 H317 0.930 . S
C346 C341 1.261 1_554 S
C346 C345 1.312 . S
C347 O319 1.214 . S
C347 O327 1.234 . S
C348 H320 0.929 . S
C348 C351 1.391 . S
C348 C353 1.391 . S
C349 H321 0.929 . S
C349 C350 1.390 . S
C349 N352 1.391 1_554 S
C350 H322 0.930 . S
C350 C349 1.390 . S
C350 C351 1.392 1_554 S
C351 H323 0.929 . S
C351 C348 1.391 . S
C351 C350 1.392 1_556 S
N352 Co296 2.257 . S
N352 C349 1.391 1_556 S
N352 C353 1.388 . S
C353 H324 0.930 . S
C353 C348 1.391 . S
C353 N352 1.388 . S
Co354 O356 2.143 . S
Co354 O362 2.074 . S
Co354 O365 2.093 . S
Co354 O378 2.097 . S
Co354 N395 2.151 . S
Co354 N403 2.214 . S
Co355 O356 2.160 . S
Co355 O361 2.058 . S
Co355 O371 2.057 . S
Co355 O386 2.037 . S
Co355 N390 2.145 . S
Co355 N411 2.257 . S
O356 Co354 2.143 . S
O356 Co355 2.160 . S
C357 O358 1.278 . S
C357 O365 1.224 . S
O358 C357 1.278 . S
C359 O360 1.245 . S
C359 O371 1.232 . S
O360 C359 1.245 . S
O361 Co355 2.058 . S
O361 C387 1.269 1_565 S
O362 Co354 2.074 . S
O362 C387 1.257 1_565 S
H363 C388 0.930 . S
H364 C394 0.930 . S
O365 Co354 2.093 . S
O365 C357 1.224 . S
H366 C398 0.929 . S
H367 C400 0.930 . S
H368 C401 0.930 . S
H369 C399 0.929 . S
H370 C402 0.928 . S
O371 Co355 2.057 . S
O371 C359 1.232 . S
H372 C391 0.929 . S
H373 C392 0.929 . S
H374 C404 0.931 . S
H375 C396 0.929 1_565 S
H376 C405 0.930 . S
H377 C397 0.931 . S
O378 Co354 2.097 . S
O378 C406 1.214 . S
H379 C407 0.929 . S
H380 C408 0.929 . S
H381 C409 0.930 . S
H382 C410 0.929 . S
H383 C412 0.930 . S
H384 C389 0.930 . S
H385 C393 0.930 . S
O386 Co355 2.037 . S
O386 C406 1.234 . S
C387 O361 1.269 1_545 S
C387 O362 1.257 1_545 S
C388 H363 0.930 . S
C388 C391 1.388 . S
C388 C393 1.418 . S
C389 H384 0.930 . S
C389 C392 1.404 . S
C389 C393 1.353 . S
N390 Co355 2.145 . S
N390 C391 1.397 . S
N390 C392 1.334 . S
C391 H372 0.929 . S
C391 C388 1.388 . S
C391 N390 1.397 . S
C392 H373 0.929 . S
C392 C389 1.404 . S
C392 N390 1.334 . S
C393 H385 0.930 . S
C393 C388 1.418 . S
C393 C389 1.353 . S
C394 H364 0.930 . S
C394 N395 1.330 . S
C394 C396 1.446 1_565 S
N395 Co354 2.151 . S
N395 C394 1.330 . S
N395 C399 1.418 1_565 S
C396 H375 0.929 1_545 S
C396 C394 1.446 1_545 S
C396 C397 1.332 . S
C397 H377 0.931 . S
C397 C396 1.332 . S
C397 C398 1.267 . S
C398 H366 0.929 . S
C398 C397 1.267 . S
C398 C399 1.251 . S
C399 H369 0.929 . S
C399 N395 1.418 1_545 S
C399 C398 1.251 . S
C400 H367 0.930 . S
C400 C402 1.406 . S
C400 C405 1.261 . S
C401 H368 0.930 . S
C401 N403 1.325 . S
C401 C404 1.357 . S
C402 H370 0.928 . S
C402 C400 1.406 . S
C402 N403 1.261 . S
N403 Co354 2.214 . S
N403 C401 1.325 . S
N403 C402 1.261 . S
C404 H374 0.931 . S
C404 C401 1.357 . S
C404 C405 1.312 . S
C405 H376 0.930 . S
C405 C400 1.261 . S
C405 C404 1.312 . S
C406 O378 1.214 . S
C406 O386 1.234 . S
C407 H379 0.929 . S
C407 C410 1.391 . S
C407 C412 1.391 . S
C408 H380 0.929 . S
C408 C409 1.390 . S
C408 N411 1.391 . S
C409 H381 0.930 . S
C409 C408 1.390 . S
C409 C410 1.392 . S
C410 H382 0.929 . S
C410 C407 1.391 . S
C410 C409 1.392 . S
N411 Co355 2.257 . S
N411 C408 1.391 . S
N411 C412 1.388 . S
C412 H383 0.930 . S
C412 C407 1.391 . S
C412 N411 1.388 . S
Co413 O415 2.143 . S
Co413 O421 2.074 . S
Co413 O424 2.093 . S
Co413 O437 2.097 . S
Co413 N454 2.151 . S
Co413 N462 2.214 . S
Co414 O415 2.160 . S
Co414 O420 2.058 . S
Co414 O430 2.057 . S
Co414 O445 2.037 . S
Co414 N449 2.145 . S
Co414 N470 2.257 . S
O415 Co413 2.143 . S
O415 Co414 2.160 . S
C416 O417 1.278 . S
C416 O424 1.224 . S
O417 C416 1.278 . S
C418 O419 1.245 . S
C418 O430 1.232 . S
O419 C418 1.245 . S
O420 Co414 2.058 . S
O420 C446 1.269 . S
O421 Co413 2.074 . S
O421 C446 1.257 . S
H422 C447 0.930 . S
H423 C453 0.930 . S
O424 Co413 2.093 . S
O424 C416 1.224 . S
H425 C457 0.929 . S
H426 C459 0.930 . S
H427 C460 0.930 . S
H428 C458 0.929 . S
H429 C461 0.928 . S
O430 Co414 2.057 . S
O430 C418 1.232 . S
H431 C450 0.929 . S
H432 C451 0.929 . S
H433 C463 0.931 . S
H434 C455 0.929 . S
H435 C464 0.930 . S
H436 C456 0.931 . S
O437 Co413 2.097 . S
O437 C465 1.214 . S
H438 C466 0.929 . S
H439 C467 0.929 . S
H440 C468 0.930 . S
H441 C469 0.929 . S
H442 C471 0.930 . S
H443 C448 0.930 . S
H444 C452 0.930 . S
O445 Co414 2.037 . S
O445 C465 1.234 . S
C446 O420 1.269 . S
C446 O421 1.257 . S
C447 H422 0.930 . S
C447 C450 1.388 . S
C447 C452 1.418 . S
C448 H443 0.930 . S
C448 C451 1.404 . S
C448 C452 1.353 . S
N449 Co414 2.145 . S
N449 C450 1.397 . S
N449 C451 1.334 . S
C450 H431 0.929 . S
C450 C447 1.388 . S
C450 N449 1.397 . S
C451 H432 0.929 . S
C451 C448 1.404 . S
C451 N449 1.334 . S
C452 H444 0.930 . S
C452 C447 1.418 . S
C452 C448 1.353 . S
C453 H423 0.930 . S
C453 N454 1.330 . S
C453 C455 1.446 . S
N454 Co413 2.151 . S
N454 C453 1.330 . S
N454 C458 1.418 . S
C455 H434 0.929 . S
C455 C453 1.446 . S
C455 C456 1.332 . S
C456 H436 0.931 . S
C456 C455 1.332 . S
C456 C457 1.267 . S
C457 H425 0.929 . S
C457 C456 1.267 . S
C457 C458 1.251 . S
C458 H428 0.929 . S
C458 N454 1.418 . S
C458 C457 1.251 . S
C459 H426 0.930 . S
C459 C461 1.406 . S
C459 C464 1.261 . S
C460 H427 0.930 . S
C460 N462 1.325 . S
C460 C463 1.357 . S
C461 H429 0.928 . S
C461 C459 1.406 . S
C461 N462 1.261 . S
N462 Co413 2.214 . S
N462 C460 1.325 . S
N462 C461 1.261 . S
C463 H433 0.931 . S
C463 C460 1.357 . S
C463 C464 1.312 . S
C464 H435 0.930 . S
C464 C459 1.261 . S
C464 C463 1.312 . S
C465 O437 1.214 . S
C465 O445 1.234 . S
C466 H438 0.929 . S
C466 C469 1.391 . S
C466 C471 1.391 . S
C467 H439 0.929 . S
C467 C468 1.390 . S
C467 N470 1.391 . S
C468 H440 0.930 . S
C468 C467 1.390 . S
C468 C469 1.392 . S
C469 H441 0.929 . S
C469 C466 1.391 . S
C469 C468 1.392 . S
N470 Co414 2.257 . S
N470 C467 1.391 . S
N470 C471 1.388 . S
C471 H442 0.930 . S
C471 C466 1.391 . S
C471 N470 1.388 . S
Co472 O474 2.143 . S
Co472 O480 2.074 . S
Co472 O483 2.093 . S
Co472 O496 2.097 1_554 S
Co472 N513 2.151 . S
Co472 N521 2.214 . S
Co473 O474 2.160 . S
Co473 O479 2.059 . S
Co473 O489 2.057 . S
Co473 O504 2.037 1_554 S
Co473 N508 2.145 1_554 S
Co473 N529 2.257 . S
O474 Co472 2.143 . S
O474 Co473 2.160 . S
C475 O476 1.278 . S
C475 O483 1.224 . S
O476 C475 1.278 . S
C477 O478 1.245 . S
C477 O489 1.232 . S
O478 C477 1.245 . S
O479 Co473 2.059 . S
O479 C505 1.269 1_454 S
O480 Co472 2.074 . S
O480 C505 1.257 1_454 S
H481 C506 0.930 . S
H482 C512 0.930 . S
O483 Co472 2.093 . S
O483 C475 1.224 . S
H484 C516 0.929 . S
H485 C518 0.930 . S
H486 C519 0.930 . S
H487 C517 0.929 . S
H488 C520 0.928 . S
O489 Co473 2.057 . S
O489 C477 1.232 . S
H490 C509 0.929 . S
H491 C510 0.929 . S
H492 C522 0.931 . S
H493 C514 0.929 1_455 S
H494 C523 0.930 . S
H495 C515 0.931 . S
O496 Co472 2.097 1_556 S
O496 C524 1.214 . S
H497 C525 0.929 . S
H498 C526 0.929 . S
H499 C527 0.930 . S
H500 C528 0.929 . S
H501 C530 0.930 . S
H502 C507 0.930 . S
H503 C511 0.930 . S
O504 Co473 2.037 1_556 S
O504 C524 1.234 . S
C505 O479 1.269 1_656 S
C505 O480 1.257 1_656 S
C506 H481 0.930 . S
C506 C509 1.388 . S
C506 C511 1.418 . S
C507 H502 0.930 . S
C507 C510 1.404 . S
C507 C511 1.353 . S
N508 Co473 2.145 1_556 S
N508 C509 1.397 . S
N508 C510 1.334 . S
C509 H490 0.929 . S
C509 C506 1.388 . S
C509 N508 1.397 . S
C510 H491 0.929 . S
C510 C507 1.404 . S
C510 N508 1.334 . S
C511 H503 0.930 . S
C511 C506 1.418 . S
C511 C507 1.353 . S
C512 H482 0.930 . S
C512 N513 1.330 . S
C512 C514 1.446 1_455 S
N513 Co472 2.151 . S
N513 C512 1.330 . S
N513 C517 1.418 1_455 S
C514 H493 0.929 1_655 S
C514 C512 1.446 1_655 S
C514 C515 1.332 . S
C515 H495 0.931 . S
C515 C514 1.332 . S
C515 C516 1.267 . S
C516 H484 0.929 . S
C516 C515 1.267 . S
C516 C517 1.251 . S
C517 H487 0.929 . S
C517 N513 1.418 1_655 S
C517 C516 1.251 . S
C518 H485 0.930 . S
C518 C520 1.406 . S
C518 C523 1.261 1_554 S
C519 H486 0.930 . S
C519 N521 1.325 1_556 S
C519 C522 1.357 . S
C520 H488 0.928 . S
C520 C518 1.406 . S
C520 N521 1.261 . S
N521 Co472 2.214 . S
N521 C519 1.325 1_554 S
N521 C520 1.261 . S
C522 H492 0.931 . S
C522 C519 1.357 . S
C522 C523 1.312 . S
C523 H494 0.930 . S
C523 C518 1.261 1_556 S
C523 C522 1.312 . S
C524 O496 1.214 . S
C524 O504 1.234 . S
C525 H497 0.929 . S
C525 C528 1.391 . S
C525 C530 1.391 . S
C526 H498 0.929 . S
C526 C527 1.390 . S
C526 N529 1.391 1_556 S
C527 H499 0.930 . S
C527 C526 1.390 . S
C527 C528 1.392 1_556 S
C528 H500 0.929 . S
C528 C525 1.391 . S
C528 C527 1.392 1_554 S
N529 Co473 2.257 . S
N529 C526 1.391 1_554 S
N529 C530 1.388 . S
C530 H501 0.930 . S
C530 C525 1.391 . S
C530 N529 1.388 . S
Co531 O533 2.143 . S
Co531 O539 2.074 . S
Co531 O542 2.093 . S
Co531 O555 2.097 . S
Co531 N572 2.151 . S
Co531 N580 2.214 . S
Co532 O533 2.160 . S
Co532 O538 2.058 . S
Co532 O548 2.057 . S
Co532 O563 2.037 . S
Co532 N567 2.145 . S
Co532 N588 2.257 . S
O533 Co531 2.143 . S
O533 Co532 2.160 . S
C534 O535 1.278 . S
C534 O542 1.224 . S
O535 C534 1.278 . S
C536 O537 1.245 . S
C536 O548 1.232 . S
O537 C536 1.245 . S
O538 Co532 2.058 . S
O538 C564 1.269 1_545 S
O539 Co531 2.074 . S
O539 C564 1.257 1_545 S
H540 C565 0.930 . S
H541 C571 0.930 . S
O542 Co531 2.093 . S
O542 C534 1.224 . S
H543 C575 0.929 . S
H544 C577 0.930 . S
H545 C578 0.930 . S
H546 C576 0.929 . S
H547 C579 0.928 . S
O548 Co532 2.057 . S
O548 C536 1.232 . S
H549 C568 0.929 . S
H550 C569 0.929 . S
H551 C581 0.931 . S
H552 C573 0.929 1_545 S
H553 C582 0.930 . S
H554 C574 0.931 . S
O555 Co531 2.097 . S
O555 C583 1.214 . S
H556 C584 0.929 . S
H557 C585 0.929 . S
H558 C586 0.930 . S
H559 C587 0.929 . S
H560 C589 0.930 . S
H561 C566 0.930 . S
H562 C570 0.930 . S
O563 Co532 2.037 . S
O563 C583 1.234 . S
C564 O538 1.269 1_565 S
C564 O539 1.257 1_565 S
C565 H540 0.930 . S
C565 C568 1.388 . S
C565 C570 1.418 . S
C566 H561 0.930 . S
C566 C569 1.404 . S
C566 C570 1.353 . S
N567 Co532 2.145 . S
N567 C568 1.397 . S
N567 C569 1.334 . S
C568 H549 0.929 . S
C568 C565 1.388 . S
C568 N567 1.397 . S
C569 H550 0.929 . S
C569 C566 1.404 . S
C569 N567 1.334 . S
C570 H562 0.930 . S
C570 C565 1.418 . S
C570 C566 1.353 . S
C571 H541 0.930 . S
C571 N572 1.330 . S
C571 C573 1.446 1_545 S
N572 Co531 2.151 . S
N572 C571 1.330 . S
N572 C576 1.418 1_545 S
C573 H552 0.929 1_565 S
C573 C571 1.446 1_565 S
C573 C574 1.332 . S
C574 H554 0.931 . S
C574 C573 1.332 . S
C574 C575 1.267 . S
C575 H543 0.929 . S
C575 C574 1.267 . S
C575 C576 1.251 . S
C576 H546 0.929 . S
C576 N572 1.418 1_565 S
C576 C575 1.251 . S
C577 H544 0.930 . S
C577 C579 1.406 . S
C577 C582 1.261 . S
C578 H545 0.930 . S
C578 N580 1.325 . S
C578 C581 1.357 . S
C579 H547 0.928 . S
C579 C577 1.406 . S
C579 N580 1.261 . S
N580 Co531 2.214 . S
N580 C578 1.325 . S
N580 C579 1.261 . S
C581 H551 0.931 . S
C581 C578 1.357 . S
C581 C582 1.312 . S
C582 H553 0.930 . S
C582 C577 1.261 . S
C582 C581 1.312 . S
C583 O555 1.214 . S
C583 O563 1.234 . S
C584 H556 0.929 . S
C584 C587 1.391 . S
C584 C589 1.391 . S
C585 H557 0.929 . S
C585 C586 1.390 . S
C585 N588 1.391 . S
C586 H558 0.930 . S
C586 C585 1.390 . S
C586 C587 1.392 . S
C587 H559 0.929 . S
C587 C584 1.391 . S
C587 C586 1.392 . S
N588 Co532 2.257 . S
N588 C585 1.391 . S
N588 C589 1.388 . S
C589 H560 0.930 . S
C589 C584 1.391 . S
C589 N588 1.388 . S
Co590 O592 2.143 . S
Co590 O598 2.074 . S
Co590 O601 2.093 . S
Co590 O614 2.097 . S
Co590 N631 2.151 . S
Co590 N639 2.214 . S
Co591 O592 2.160 . S
Co591 O597 2.058 . S
Co591 O607 2.057 . S
Co591 O622 2.037 . S
Co591 N626 2.145 . S
Co591 N647 2.257 . S
O592 Co590 2.143 . S
O592 Co591 2.160 . S
C593 O594 1.278 . S
C593 O601 1.224 . S
O594 C593 1.278 . S
C595 O596 1.245 . S
C595 O607 1.232 . S
O596 C595 1.245 . S
O597 Co591 2.058 . S
O597 C623 1.269 . S
O598 Co590 2.074 . S
O598 C623 1.257 . S
H599 C624 0.930 . S
H600 C630 0.930 . S
O601 Co590 2.093 . S
O601 C593 1.224 . S
H602 C634 0.929 . S
H603 C636 0.930 . S
H604 C637 0.930 . S
H605 C635 0.929 . S
H606 C638 0.928 . S
O607 Co591 2.057 . S
O607 C595 1.232 . S
H608 C627 0.929 . S
H609 C628 0.929 . S
H610 C640 0.931 . S
H611 C632 0.929 . S
H612 C641 0.930 . S
H613 C633 0.931 . S
O614 Co590 2.097 . S
O614 C642 1.214 . S
H615 C643 0.929 . S
H616 C644 0.929 . S
H617 C645 0.930 . S
H618 C646 0.929 . S
H619 C648 0.930 . S
H620 C625 0.930 . S
H621 C629 0.930 . S
O622 Co591 2.037 . S
O622 C642 1.234 . S
C623 O597 1.269 . S
C623 O598 1.257 . S
C624 H599 0.930 . S
C624 C627 1.388 . S
C624 C629 1.418 . S
C625 H620 0.930 . S
C625 C628 1.404 . S
C625 C629 1.353 . S
N626 Co591 2.145 . S
N626 C627 1.397 . S
N626 C628 1.334 . S
C627 H608 0.929 . S
C627 C624 1.388 . S
C627 N626 1.397 . S
C628 H609 0.929 . S
C628 C625 1.404 . S
C628 N626 1.334 . S
C629 H621 0.930 . S
C629 C624 1.418 . S
C629 C625 1.353 . S
C630 H600 0.930 . S
C630 N631 1.330 . S
C630 C632 1.446 . S
N631 Co590 2.151 . S
N631 C630 1.330 . S
N631 C635 1.418 . S
C632 H611 0.929 . S
C632 C630 1.446 . S
C632 C633 1.332 . S
C633 H613 0.931 . S
C633 C632 1.332 . S
C633 C634 1.267 . S
C634 H602 0.929 . S
C634 C633 1.267 . S
C634 C635 1.251 . S
C635 H605 0.929 . S
C635 N631 1.418 . S
C635 C634 1.251 . S
C636 H603 0.930 . S
C636 C638 1.406 . S
C636 C641 1.261 . S
C637 H604 0.930 . S
C637 N639 1.325 . S
C637 C640 1.357 . S
C638 H606 0.928 . S
C638 C636 1.406 . S
C638 N639 1.261 . S
N639 Co590 2.214 . S
N639 C637 1.325 . S
N639 C638 1.261 . S
C640 H610 0.931 . S
C640 C637 1.357 . S
C640 C641 1.312 . S
C641 H612 0.930 . S
C641 C636 1.261 . S
C641 C640 1.312 . S
C642 O614 1.214 . S
C642 O622 1.234 . S
C643 H615 0.929 . S
C643 C646 1.391 . S
C643 C648 1.391 . S
C644 H616 0.929 . S
C644 C645 1.390 . S
C644 N647 1.391 . S
C645 H617 0.930 . S
C645 C644 1.390 . S
C645 C646 1.392 . S
C646 H618 0.929 . S
C646 C643 1.391 . S
C646 C645 1.392 . S
N647 Co591 2.257 . S
N647 C644 1.391 . S
N647 C648 1.388 . S
C648 H619 0.930 . S
C648 C643 1.391 . S
C648 N647 1.388 . S
Co649 O651 2.143 . S
Co649 O657 2.074 . S
Co649 O660 2.093 . S
Co649 O673 2.097 . S
Co649 N690 2.151 . S
Co649 N698 2.214 . S
Co650 O651 2.160 . S
Co650 O656 2.058 . S
Co650 O666 2.057 . S
Co650 O681 2.037 . S
Co650 N685 2.145 . S
Co650 N706 2.257 . S
O651 Co649 2.143 . S
O651 Co650 2.160 . S
C652 O653 1.278 . S
C652 O660 1.224 . S
O653 C652 1.278 . S
C654 O655 1.245 . S
C654 O666 1.232 . S
O655 C654 1.245 . S
O656 Co650 2.058 . S
O656 C682 1.269 1_655 S
O657 Co649 2.074 . S
O657 C682 1.257 1_655 S
H658 C683 0.930 . S
H659 C689 0.930 . S
O660 Co649 2.093 . S
O660 C652 1.224 . S
H661 C693 0.929 . S
H662 C695 0.930 . S
H663 C696 0.930 . S
H664 C694 0.929 . S
H665 C697 0.928 . S
O666 Co650 2.057 . S
O666 C654 1.232 . S
H667 C686 0.929 . S
H668 C687 0.929 . S
H669 C699 0.931 . S
H670 C691 0.929 1_655 S
H671 C700 0.930 . S
H672 C692 0.931 . S
O673 Co649 2.097 . S
O673 C701 1.214 . S
H674 C702 0.929 . S
H675 C703 0.929 . S
H676 C704 0.930 . S
H677 C705 0.929 . S
H678 C707 0.930 . S
H679 C684 0.930 . S
H680 C688 0.930 . S
O681 Co650 2.037 . S
O681 C701 1.234 . S
C682 O656 1.269 1_455 S
C682 O657 1.257 1_455 S
C683 H658 0.930 . S
C683 C686 1.388 . S
C683 C688 1.418 . S
C684 H679 0.930 . S
C684 C687 1.404 . S
C684 C688 1.353 . S
N685 Co650 2.145 . S
N685 C686 1.397 . S
N685 C687 1.334 . S
C686 H667 0.929 . S
C686 C683 1.388 . S
C686 N685 1.397 . S
C687 H668 0.929 . S
C687 C684 1.404 . S
C687 N685 1.334 . S
C688 H680 0.930 . S
C688 C683 1.418 . S
C688 C684 1.353 . S
C689 H659 0.930 . S
C689 N690 1.330 . S
C689 C691 1.446 1_655 S
N690 Co649 2.151 . S
N690 C689 1.330 . S
N690 C694 1.418 1_655 S
C691 H670 0.929 1_455 S
C691 C689 1.446 1_455 S
C691 C692 1.332 . S
C692 H672 0.931 . S
C692 C691 1.332 . S
C692 C693 1.267 . S
C693 H661 0.929 . S
C693 C692 1.267 . S
C693 C694 1.251 . S
C694 H664 0.929 . S
C694 N690 1.418 1_455 S
C694 C693 1.251 . S
C695 H662 0.930 . S
C695 C697 1.406 . S
C695 C700 1.261 . S
C696 H663 0.930 . S
C696 N698 1.325 . S
C696 C699 1.357 . S
C697 H665 0.928 . S
C697 C695 1.406 . S
C697 N698 1.261 . S
N698 Co649 2.214 . S
N698 C696 1.325 . S
N698 C697 1.261 . S
C699 H669 0.931 . S
C699 C696 1.357 . S
C699 C700 1.312 . S
C700 H671 0.930 . S
C700 C695 1.261 . S
C700 C699 1.312 . S
C701 O673 1.214 . S
C701 O681 1.234 . S
C702 H674 0.929 . S
C702 C705 1.391 . S
C702 C707 1.391 . S
C703 H675 0.929 . S
C703 C704 1.390 . S
C703 N706 1.391 . S
C704 H676 0.930 . S
C704 C703 1.390 . S
C704 C705 1.392 . S
C705 H677 0.929 . S
C705 C702 1.391 . S
C705 C704 1.392 . S
N706 Co650 2.257 . S
N706 C703 1.391 . S
N706 C707 1.388 . S
C707 H678 0.930 . S
C707 C702 1.391 . S
C707 N706 1.388 . S
C708 C709 1.363 . S
C708 C714 1.379 . S
C708 N716 1.356 . S
C709 C708 1.363 . S
C709 C715 1.363 . S
C710 C711 1.363 . S
C710 C715 1.379 . S
C710 N717 1.356 . S
C711 C710 1.363 . S
C711 C714 1.363 . S
N712 C714 1.356 . S
N712 H724 0.984 . S
N712 H725 0.985 . S
N713 C715 1.356 . S
N713 H718 0.984 . S
N713 H719 0.985 . S
C714 C708 1.379 . S
C714 C711 1.363 . S
C714 N712 1.356 . S
C715 C709 1.363 . S
C715 C710 1.379 . S
C715 N713 1.356 . S
N716 C708 1.356 . S
N716 H722 0.984 . S
N716 H723 0.984 . S
N717 C710 1.356 . S
N717 H720 0.984 . S
N717 H721 0.985 . S
H718 N713 0.984 . S
H719 N713 0.985 . S
H720 N717 0.984 . S
H721 N717 0.985 . S
H722 N716 0.984 . S
H723 N716 0.984 . S
H724 N712 0.984 . S
H725 N712 0.985 . S
C726 C727 1.363 . S
C726 C732 1.379 . S
C726 N734 1.356 . S
C727 C726 1.363 . S
C727 C733 1.363 . S
C728 C729 1.363 . S
C728 C733 1.379 . S
C728 N735 1.356 1_545 S
C729 C728 1.363 . S
C729 C732 1.363 . S
N730 C732 1.356 . S
N730 H742 0.984 . S
N730 H743 0.985 . S
N731 C733 1.356 1_565 S
N731 H736 0.984 . S
N731 H737 0.985 . S
C732 C726 1.379 . S
C732 C729 1.363 . S
C732 N730 1.356 . S
C733 C727 1.363 . S
C733 C728 1.379 . S
C733 N731 1.356 1_545 S
N734 C726 1.356 . S
N734 H740 0.984 . S
N734 H741 0.984 . S
N735 C728 1.356 1_565 S
N735 H738 0.984 . S
N735 H739 0.985 . S
H736 N731 0.984 . S
H737 N731 0.985 . S
H738 N735 0.984 . S
H739 N735 0.985 . S
H740 N734 0.984 . S
H741 N734 0.984 . S
H742 N730 0.984 . S
H743 N730 0.985 . S
C744 C745 1.363 . S
C744 C750 1.379 . S
C744 N752 1.356 . S
C745 C744 1.363 . S
C745 C751 1.363 . S
C746 C747 1.363 . S
C746 C751 1.379 . S
C746 N753 1.356 . S
C747 C746 1.363 . S
C747 C750 1.363 . S
N748 C750 1.356 . S
N748 H760 0.984 . S
N748 H761 0.985 . S
N749 C751 1.356 . S
N749 H754 0.984 . S
N749 H755 0.985 . S
C750 C744 1.379 . S
C750 C747 1.363 . S
C750 N748 1.356 . S
C751 C745 1.363 . S
C751 C746 1.379 . S
C751 N749 1.356 . S
N752 C744 1.356 . S
N752 H758 0.984 . S
N752 H759 0.984 . S
N753 C746 1.356 . S
N753 H756 0.984 . S
N753 H757 0.985 . S
H754 N749 0.984 . S
H755 N749 0.985 . S
H756 N753 0.984 . S
H757 N753 0.985 . S
H758 N752 0.984 . S
H759 N752 0.984 . S
H760 N748 0.984 . S
H761 N748 0.985 . S
C762 C763 1.363 . S
C762 C768 1.379 . S
C762 N770 1.356 . S
C763 C762 1.363 . S
C763 C769 1.363 . S
C764 C765 1.363 . S
C764 C769 1.379 . S
C764 N771 1.356 . S
C765 C764 1.363 . S
C765 C768 1.363 . S
N766 C768 1.356 . S
N766 H778 0.984 1_655 S
N766 H779 0.985 . S
N767 C769 1.356 . S
N767 H772 0.984 . S
N767 H773 0.985 . S
C768 C762 1.379 . S
C768 C765 1.363 . S
C768 N766 1.356 . S
C769 C763 1.363 . S
C769 C764 1.379 . S
C769 N767 1.356 . S
N770 C762 1.356 . S
N770 H776 0.984 1_655 S
N770 H777 0.984 . S
N771 C764 1.356 . S
N771 H774 0.984 . S
N771 H775 0.985 . S
H772 N767 0.984 . S
H773 N767 0.985 . S
H774 N771 0.984 . S
H775 N771 0.985 . S
H776 N770 0.984 1_455 S
H777 N770 0.984 . S
H778 N766 0.984 1_455 S
H779 N766 0.985 . S
C780 C781 1.363 . S
C780 C786 1.379 . S
C780 N788 1.356 . S
C781 C780 1.363 . S
C781 C787 1.363 . S
C782 C783 1.363 . S
C782 C787 1.379 . S
C782 N789 1.356 1_565 S
C783 C782 1.363 . S
C783 C786 1.363 . S
N784 C786 1.356 . S
N784 H796 0.984 . S
N784 H797 0.985 . S
N785 C787 1.356 1_545 S
N785 H790 0.984 . S
N785 H791 0.985 . S
C786 C780 1.379 . S
C786 C783 1.363 . S
C786 N784 1.356 . S
C787 C781 1.363 . S
C787 C782 1.379 . S
C787 N785 1.356 1_565 S
N788 C780 1.356 . S
N788 H794 0.984 . S
N788 H795 0.984 . S
N789 C782 1.356 1_545 S
N789 H792 0.984 . S
N789 H793 0.985 . S
H790 N785 0.984 . S
H791 N785 0.985 . S
H792 N789 0.984 . S
H793 N789 0.985 . S
H794 N788 0.984 . S
H795 N788 0.984 . S
H796 N784 0.984 . S
H797 N784 0.985 . S
C798 C799 1.363 . S
C798 C804 1.379 . S
C798 N806 1.356 . S
C799 C798 1.363 . S
C799 C805 1.363 . S
C800 C801 1.363 . S
C800 C805 1.379 . S
C800 N807 1.356 . S
C801 C800 1.363 . S
C801 C804 1.363 . S
N802 C804 1.356 . S
N802 H814 0.984 . S
N802 H815 0.985 . S
N803 C805 1.356 . S
N803 H808 0.984 . S
N803 H809 0.985 . S
C804 C798 1.379 . S
C804 C801 1.363 . S
C804 N802 1.356 . S
C805 C799 1.363 . S
C805 C800 1.379 . S
C805 N803 1.356 . S
N806 C798 1.356 . S
N806 H812 0.984 . S
N806 H813 0.984 . S
N807 C800 1.356 . S
N807 H810 0.984 . S
N807 H811 0.985 . S
H808 N803 0.984 . S
H809 N803 0.985 . S
H810 N807 0.984 . S
H811 N807 0.985 . S
H812 N806 0.984 . S
H813 N806 0.984 . S
H814 N802 0.984 . S
H815 N802 0.985 . S
C816 C817 1.363 . S
C816 C822 1.379 . S
C816 N824 1.356 . S
C817 C816 1.363 . S
C817 C823 1.363 . S
C818 C819 1.363 . S
C818 C823 1.379 . S
C818 N825 1.356 . S
C819 C818 1.363 . S
C819 C822 1.363 . S
N820 C822 1.356 . S
N820 H832 0.984 . S
N820 H833 0.985 . S
N821 C823 1.356 . S
N821 H826 0.984 . S
N821 H827 0.985 . S
C822 C816 1.379 . S
C822 C819 1.363 . S
C822 N820 1.356 . S
C823 C817 1.363 . S
C823 C818 1.379 . S
C823 N821 1.356 . S
N824 C816 1.356 . S
N824 H830 0.984 . S
N824 H831 0.984 . S
N825 C818 1.356 . S
N825 H828 0.984 . S
N825 H829 0.985 . S
H826 N821 0.984 . S
H827 N821 0.985 . S
H828 N825 0.984 . S
H829 N825 0.985 . S
H830 N824 0.984 . S
H831 N824 0.984 . S
H832 N820 0.984 . S
H833 N820 0.985 . S
C834 C835 1.363 . S
C834 C840 1.379 . S
C834 N842 1.356 . S
C835 C834 1.363 . S
C835 C841 1.363 . S
C836 C837 1.363 . S
C836 C841 1.379 . S
C836 N843 1.356 . S
C837 C836 1.363 . S
C837 C840 1.363 . S
N838 C840 1.356 . S
N838 H850 0.984 . S
N838 H851 0.985 . S
N839 C841 1.356 . S
N839 H844 0.984 . S
N839 H845 0.985 . S
C840 C834 1.379 . S
C840 C837 1.363 . S
C840 N838 1.356 . S
C841 C835 1.363 . S
C841 C836 1.379 . S
C841 N839 1.356 . S
N842 C834 1.356 . S
N842 H848 0.984 . S
N842 H849 0.984 . S
N843 C836 1.356 . S
N843 H846 0.984 . S
N843 H847 0.985 . S
H844 N839 0.984 . S
H845 N839 0.985 . S
H846 N843 0.984 . S
H847 N843 0.985 . S
H848 N842 0.984 . S
H849 N842 0.984 . S
H850 N838 0.984 . S
H851 N838 0.985 . S
C852 C853 1.363 . S
C852 C858 1.379 . S
C852 N860 1.356 . S
C853 C852 1.363 . S
C853 C859 1.363 . S
C854 C855 1.363 . S
C854 C859 1.379 . S
C854 N861 1.356 . S
C855 C854 1.363 . S
C855 C858 1.363 . S
N856 C858 1.356 . S
N856 H868 0.984 1_565 S
N856 H869 0.985 1_565 S
N857 C859 1.356 . S
N857 H862 0.984 . S
N857 H863 0.985 . S
C858 C852 1.379 . S
C858 C855 1.363 . S
C858 N856 1.356 . S
C859 C853 1.363 . S
C859 C854 1.379 . S
C859 N857 1.356 . S
N860 C852 1.356 . S
N860 H866 0.984 . S
N860 H867 0.984 . S
N861 C854 1.356 . S
N861 H864 0.984 . S
N861 H865 0.985 . S
H862 N857 0.984 . S
H863 N857 0.985 . S
H864 N861 0.984 . S
H865 N861 0.985 . S
H866 N860 0.984 . S
H867 N860 0.984 . S
H868 N856 0.984 1_545 S
H869 N856 0.985 1_545 S
C870 C871 1.363 . S
C870 C876 1.379 . S
C870 N878 1.356 . S
C871 C870 1.363 . S
C871 C877 1.363 . S
C872 C873 1.363 . S
C872 C877 1.379 . S
C872 N879 1.356 . S
C873 C872 1.363 . S
C873 C876 1.363 . S
N874 C876 1.356 . S
N874 H886 0.984 . S
N874 H887 0.985 . S
N875 C877 1.356 . S
N875 H880 0.984 . S
N875 H881 0.985 . S
C876 C870 1.379 . S
C876 C873 1.363 . S
C876 N874 1.356 . S
C877 C871 1.363 . S
C877 C872 1.379 . S
C877 N875 1.356 . S
N878 C870 1.356 . S
N878 H884 0.984 . S
N878 H885 0.984 . S
N879 C872 1.356 . S
N879 H882 0.984 . S
N879 H883 0.985 . S
H880 N875 0.984 . S
H881 N875 0.985 . S
H882 N879 0.984 . S
H883 N879 0.985 . S
H884 N878 0.984 . S
H885 N878 0.984 . S
H886 N874 0.984 . S
H887 N874 0.985 . S
C888 C889 1.363 . S
C888 C894 1.379 . S
C888 N896 1.356 1_455 S
C889 C888 1.363 . S
C889 C895 1.363 . S
C890 C891 1.363 . S
C890 C895 1.379 . S
C890 N897 1.356 . S
C891 C890 1.363 . S
C891 C894 1.363 . S
N892 C894 1.356 . S
N892 H904 0.984 . S
N892 H905 0.985 . S
N893 C895 1.356 . S
N893 H898 0.984 . S
N893 H899 0.985 . S
C894 C888 1.379 . S
C894 C891 1.363 . S
C894 N892 1.356 . S
C895 C889 1.363 . S
C895 C890 1.379 . S
C895 N893 1.356 . S
N896 C888 1.356 1_655 S
N896 H902 0.984 . S
N896 H903 0.984 . S
N897 C890 1.356 . S
N897 H900 0.984 . S
N897 H901 0.985 . S
H898 N893 0.984 . S
H899 N893 0.985 . S
H900 N897 0.984 . S
H901 N897 0.985 . S
H902 N896 0.984 . S
H903 N896 0.984 . S
H904 N892 0.984 . S
H905 N892 0.985 . S
C906 C907 1.363 . S
C906 C912 1.379 . S
C906 N914 1.356 1_545 S
C907 C906 1.363 . S
C907 C913 1.363 . S
C908 C909 1.363 . S
C908 C913 1.379 . S
C908 N915 1.356 . S
C909 C908 1.363 . S
C909 C912 1.363 . S
N910 C912 1.356 . S
N910 H922 0.984 . S
N910 H923 0.985 . S
N911 C913 1.356 . S
N911 H916 0.984 . S
N911 H917 0.985 . S
C912 C906 1.379 . S
C912 C909 1.363 . S
C912 N910 1.356 . S
C913 C907 1.363 . S
C913 C908 1.379 . S
C913 N911 1.356 . S
N914 C906 1.356 1_565 S
N914 H920 0.984 . S
N914 H921 0.984 . S
N915 C908 1.356 . S
N915 H918 0.984 . S
N915 H919 0.985 . S
H916 N911 0.984 . S
H917 N911 0.985 . S
H918 N915 0.984 . S
H919 N915 0.985 . S
H920 N914 0.984 . S
H921 N914 0.984 . S
H922 N910 0.984 . S
H923 N910 0.985 . S
C924 C925 1.363 . S
C924 C930 1.379 . S
C924 N932 1.356 . S
C925 C924 1.363 . S
C925 C931 1.363 . S
C926 C927 1.363 . S
C926 C931 1.379 . S
C926 N933 1.356 . S
C927 C926 1.363 . S
C927 C930 1.363 . S
N928 C930 1.356 . S
N928 H940 0.984 . S
N928 H941 0.985 . S
N929 C931 1.356 . S
N929 H934 0.984 . S
N929 H935 0.985 . S
C930 C924 1.379 . S
C930 C927 1.363 . S
C930 N928 1.356 . S
C931 C925 1.363 . S
C931 C926 1.379 . S
C931 N929 1.356 . S
N932 C924 1.356 . S
N932 H938 0.984 . S
N932 H939 0.984 . S
N933 C926 1.356 . S
N933 H936 0.984 . S
N933 H937 0.985 . S
H934 N929 0.984 . S
H935 N929 0.985 . S
H936 N933 0.984 . S
H937 N933 0.985 . S
H938 N932 0.984 . S
H939 N932 0.984 . S
H940 N928 0.984 . S
H941 N928 0.985 . S
C942 C943 1.363 . S
C942 C948 1.379 . S
C942 N950 1.356 . S
C943 C942 1.363 . S
C943 C949 1.363 . S
C944 C945 1.363 . S
C944 C949 1.379 . S
C944 N951 1.356 1_556 S
C945 C944 1.363 . S
C945 C948 1.363 . S
N946 C948 1.356 1_455 S
N946 H958 0.984 . S
N946 H959 0.985 . S
N947 C949 1.356 . S
N947 H952 0.984 . S
N947 H953 0.985 . S
C948 C942 1.379 . S
C948 C945 1.363 . S
C948 N946 1.356 1_655 S
C949 C943 1.363 . S
C949 C944 1.379 . S
C949 N947 1.356 . S
N950 C942 1.356 . S
N950 H956 0.984 . S
N950 H957 0.984 . S
N951 C944 1.356 1_554 S
N951 H954 0.984 . S
N951 H955 0.985 . S
H952 N947 0.984 . S
H953 N947 0.985 . S
H954 N951 0.984 . S
H955 N951 0.985 . S
H956 N950 0.984 . S
H957 N950 0.984 . S
H958 N946 0.984 . S
H959 N946 0.985 . S
C960 C961 1.363 . S
C960 C966 1.379 . S
C960 N968 1.356 . S
C961 C960 1.363 . S
C961 C967 1.363 . S
C962 C963 1.363 . S
C962 C967 1.379 . S
C962 N969 1.356 . S
C963 C962 1.363 . S
C963 C966 1.363 . S
N964 C966 1.356 . S
N964 H976 0.984 . S
N964 H977 0.985 . S
N965 C967 1.356 . S
N965 H970 0.984 . S
N965 H971 0.985 . S
C966 C960 1.379 . S
C966 C963 1.363 . S
C966 N964 1.356 . S
C967 C961 1.363 . S
C967 C962 1.379 . S
C967 N965 1.356 . S
N968 C960 1.356 . S
N968 H974 0.984 . S
N968 H975 0.984 . S
N969 C962 1.356 . S
N969 H972 0.984 . S
N969 H973 0.985 . S
H970 N965 0.984 . S
H971 N965 0.985 . S
H972 N969 0.984 . S
H973 N969 0.985 . S
H974 N968 0.984 . S
H975 N968 0.984 . S
H976 N964 0.984 . S
H977 N964 0.985 . S
C978 C979 1.363 . S
C978 C984 1.379 . S
C978 N986 1.356 . S
C979 C978 1.363 . S
C979 C985 1.363 . S
C980 C981 1.363 . S
C980 C985 1.379 . S
C980 N987 1.356 . S
C981 C980 1.363 . S
C981 C984 1.363 . S
N982 C984 1.356 . S
N982 H994 0.984 . S
N982 H995 0.985 . S
N983 C985 1.356 . S
N983 H988 0.984 . S
N983 H989 0.985 . S
C984 C978 1.379 . S
C984 C981 1.363 . S
C984 N982 1.356 . S
C985 C979 1.363 . S
C985 C980 1.379 . S
C985 N983 1.356 . S
N986 C978 1.356 . S
N986 H992 0.984 . S
N986 H993 0.984 . S
N987 C980 1.356 . S
N987 H990 0.984 . S
N987 H991 0.985 . S
H988 N983 0.984 . S
H989 N983 0.985 . S
H990 N987 0.984 . S
H991 N987 0.985 . S
H992 N986 0.984 . S
H993 N986 0.984 . S
H994 N982 0.984 . S
H995 N982 0.985 . S
C996 C997 1.363 . S
C996 C1002 1.379 . S
C996 N1004 1.356 . S
C997 C996 1.363 . S
C997 C1003 1.363 . S
C998 C999 1.363 . S
C998 C1003 1.379 . S
C998 N1005 1.340 1_455 S
C999 C998 1.363 . S
C999 C1002 1.363 . S
N1000 C1002 1.356 . S
N1000 H1012 0.984 . S
N1000 H1013 0.985 . S
N1001 C1003 1.356 . S
N1001 H1006 0.984 . S
N1001 H1007 0.985 . S
C1002 C996 1.379 . S
C1002 C999 1.363 . S
C1002 N1000 1.356 . S
C1003 C997 1.363 . S
C1003 C998 1.379 . S
C1003 N1001 1.356 . S
N1004 C996 1.356 . S
N1004 H1010 0.984 . S
N1004 H1011 0.984 . S
N1005 C998 1.340 1_655 S
N1005 H1008 0.999 . S
N1005 H1009 0.986 . S
H1006 N1001 0.984 . S
H1007 N1001 0.985 . S
H1008 N1005 0.999 . S
H1009 N1005 0.986 . S
H1010 N1004 0.984 . S
H1011 N1004 0.984 . S
H1012 N1000 0.984 . S
H1013 N1000 0.985 . S
C1014 C1015 1.363 . S
C1014 C1020 1.379 . S
C1014 N1022 1.356 . S
C1015 C1014 1.363 . S
C1015 C1021 1.363 . S
C1016 C1017 1.363 . S
C1016 C1021 1.379 . S
C1016 N1023 1.356 . S
C1017 C1016 1.363 . S
C1017 C1020 1.363 . S
N1018 C1020 1.356 . S
N1018 H1030 0.984 . S
N1018 H1031 0.985 . S
N1019 C1021 1.356 . S
N1019 H1024 0.984 . S
N1019 H1025 0.985 . S
C1020 C1014 1.379 . S
C1020 C1017 1.363 . S
C1020 N1018 1.356 . S
C1021 C1015 1.363 . S
C1021 C1016 1.379 . S
C1021 N1019 1.356 . S
N1022 C1014 1.356 . S
N1022 H1028 0.984 . S
N1022 H1029 0.984 . S
N1023 C1016 1.356 . S
N1023 H1026 0.993 . S
N1023 H1027 0.985 . S
H1024 N1019 0.984 . S
H1025 N1019 0.985 . S
H1026 N1023 0.993 . S
H1027 N1023 0.985 . S
H1028 N1022 0.984 . S
H1029 N1022 0.984 . S
H1030 N1018 0.984 . S
H1031 N1018 0.985 . S
C1032 C1033 1.363 . S
C1032 C1038 1.379 . S
C1032 N1040 1.356 . S
C1033 C1032 1.363 . S
C1033 C1039 1.363 . S
C1034 C1035 1.363 . S
C1034 C1039 1.379 . S
C1034 N1041 1.356 . S
C1035 C1034 1.363 . S
C1035 C1038 1.363 . S
N1036 C1038 1.356 . S
N1036 H1048 0.984 . S
N1036 H1049 0.985 . S
N1037 C1039 1.356 . S
N1037 H1042 0.984 . S
N1037 H1043 0.985 . S
C1038 C1032 1.379 . S
C1038 C1035 1.363 . S
C1038 N1036 1.356 . S
C1039 C1033 1.363 . S
C1039 C1034 1.379 . S
C1039 N1037 1.356 . S
N1040 C1032 1.356 . S
N1040 H1046 0.984 . S
N1040 H1047 0.984 . S
N1041 C1034 1.356 . S
N1041 H1044 0.984 . S
N1041 H1045 0.985 . S
H1042 N1037 0.984 . S
H1043 N1037 0.985 . S
H1044 N1041 0.984 . S
H1045 N1041 0.985 . S
H1046 N1040 0.984 . S
H1047 N1040 0.984 . S
H1048 N1036 0.984 . S
H1049 N1036 0.985 . S
C1050 C1051 1.363 . S
C1050 C1056 1.379 . S
C1050 N1058 1.356 . S
C1051 C1050 1.363 . S
C1051 C1057 1.363 . S
C1052 C1053 1.363 . S
C1052 C1057 1.379 . S
C1052 N1059 1.356 . S
C1053 C1052 1.363 . S
C1053 C1056 1.363 . S
N1054 C1056 1.356 . S
N1054 H1066 0.984 . S
N1054 H1067 0.985 . S
N1055 C1057 1.356 . S
N1055 H1060 0.984 . S
N1055 H1061 0.985 . S
C1056 C1050 1.379 . S
C1056 C1053 1.363 . S
C1056 N1054 1.356 . S
C1057 C1051 1.363 . S
C1057 C1052 1.379 . S
C1057 N1055 1.356 . S
N1058 C1050 1.356 . S
N1058 H1064 0.984 . S
N1058 H1065 0.984 . S
N1059 C1052 1.356 . S
N1059 H1062 0.984 . S
N1059 H1063 0.985 . S
H1060 N1055 0.984 . S
H1061 N1055 0.985 . S
H1062 N1059 0.984 . S
H1063 N1059 0.985 . S
H1064 N1058 0.984 . S
H1065 N1058 0.984 . S
H1066 N1054 0.984 . S
H1067 N1054 0.985 . S
C1068 C1069 1.363 . S
C1068 C1074 1.379 . S
C1068 N1076 1.356 . S
C1069 C1068 1.363 . S
C1069 C1075 1.363 . S
C1070 C1071 1.363 . S
C1070 C1075 1.379 . S
C1070 N1077 1.356 . S
C1071 C1070 1.363 . S
C1071 C1074 1.363 . S
N1072 C1074 1.356 . S
N1072 H1084 0.984 . S
N1072 H1085 0.985 . S
N1073 C1075 1.356 . S
N1073 H1078 0.984 . S
N1073 H1079 0.985 . S
C1074 C1068 1.379 . S
C1074 C1071 1.363 . S
C1074 N1072 1.356 . S
C1075 C1069 1.363 . S
C1075 C1070 1.379 . S
C1075 N1073 1.356 . S
N1076 C1068 1.356 . S
N1076 H1082 0.984 . S
N1076 H1083 0.984 . S
N1077 C1070 1.356 . S
N1077 H1080 0.984 . S
N1077 H1081 0.985 . S
H1078 N1073 0.984 . S
H1079 N1073 0.985 . S
H1080 N1077 0.984 . S
H1081 N1077 0.985 . S
H1082 N1076 0.984 . S
H1083 N1076 0.984 . S
H1084 N1072 0.984 . S
H1085 N1072 0.985 . S
C1086 C1087 1.363 . S
C1086 C1092 1.379 . S
C1086 N1094 1.356 . S
C1087 C1086 1.363 . S
C1087 C1093 1.363 . S
C1088 C1089 1.363 . S
C1088 C1093 1.379 . S
C1088 N1095 1.356 . S
C1089 C1088 1.363 . S
C1089 C1092 1.363 . S
N1090 C1092 1.356 . S
N1090 H1102 0.984 . S
N1090 H1103 0.985 . S
N1091 C1093 1.356 . S
N1091 H1096 0.984 . S
N1091 H1097 0.985 . S
C1092 C1086 1.379 . S
C1092 C1089 1.363 . S
C1092 N1090 1.356 . S
C1093 C1087 1.363 . S
C1093 C1088 1.379 . S
C1093 N1091 1.356 . S
N1094 C1086 1.356 . S
N1094 H1100 0.984 . S
N1094 H1101 0.984 . S
N1095 C1088 1.356 . S
N1095 H1098 0.984 . S
N1095 H1099 0.985 . S
H1096 N1091 0.984 . S
H1097 N1091 0.985 . S
H1098 N1095 0.984 . S
H1099 N1095 0.985 . S
H1100 N1094 0.984 . S
H1101 N1094 0.984 . S
H1102 N1090 0.984 . S
H1103 N1090 0.985 . S
C1104 C1105 1.363 . S
C1104 C1110 1.379 . S
C1104 N1112 1.356 . S
C1105 C1104 1.363 . S
C1105 C1111 1.363 . S
C1106 C1107 1.363 . S
C1106 C1111 1.379 . S
C1106 N1113 1.356 . S
C1107 C1106 1.363 . S
C1107 C1110 1.363 . S
N1108 C1110 1.356 . S
N1108 H1120 0.984 . S
N1108 H1121 0.985 . S
N1109 C1111 1.356 . S
N1109 H1114 0.984 . S
N1109 H1115 0.985 . S
C1110 C1104 1.379 . S
C1110 C1107 1.363 . S
C1110 N1108 1.356 . S
C1111 C1105 1.363 . S
C1111 C1106 1.379 . S
C1111 N1109 1.356 . S
N1112 C1104 1.356 . S
N1112 H1118 0.984 . S
N1112 H1119 0.984 . S
N1113 C1106 1.356 . S
N1113 H1116 0.984 . S
N1113 H1117 0.985 . S
H1114 N1109 0.984 . S
H1115 N1109 0.985 . S
H1116 N1113 0.984 . S
H1117 N1113 0.985 . S
H1118 N1112 0.984 . S
H1119 N1112 0.984 . S
H1120 N1108 0.984 . S
H1121 N1108 0.985 . S
C1122 C1123 1.363 . S
C1122 C1128 1.379 . S
C1122 N1130 1.356 . S
C1123 C1122 1.363 . S
C1123 C1129 1.363 . S
C1124 C1125 1.363 . S
C1124 C1129 1.379 . S
C1124 N1131 1.356 . S
C1125 C1124 1.363 . S
C1125 C1128 1.363 . S
N1126 C1128 1.356 . S
N1126 H1138 0.984 . S
N1126 H1139 0.985 . S
N1127 C1129 1.356 . S
N1127 H1132 0.984 . S
N1127 H1133 0.985 . S
C1128 C1122 1.379 . S
C1128 C1125 1.363 . S
C1128 N1126 1.356 . S
C1129 C1123 1.363 . S
C1129 C1124 1.379 . S
C1129 N1127 1.356 . S
N1130 C1122 1.356 . S
N1130 H1136 0.984 . S
N1130 H1137 0.984 . S
N1131 C1124 1.356 . S
N1131 H1134 0.984 . S
N1131 H1135 0.985 . S
H1132 N1127 0.984 . S
H1133 N1127 0.985 . S
H1134 N1131 0.984 . S
H1135 N1131 0.985 . S
H1136 N1130 0.984 . S
H1137 N1130 0.984 . S
H1138 N1126 0.984 . S
H1139 N1126 0.985 . S
C709 C477 1.539 . S
C711 C5 1.539 . S
C727 C64 1.539 . S
C729 C536 1.539 . S
C745 C123 1.539 . S
C747 C595 1.539 . S
C763 C182 1.539 . S
C765 C654 1.539 . S
C781 C359 1.539 . S
C783 C241 1.539 . S
C799 C300 1.539 . S
C801 C418 1.539 . S
C817 C3 1.582 . S
C819 C328 1.585 . S
C835 C62 1.582 . S
C837 C33 1.585 . S
C853 C121 1.582 . S
C855 C92 1.585 . S
C871 C151 1.585 . S
C873 C180 1.582 . S
C889 C210 1.585 . S
C891 C239 1.582 . S
C907 C269 1.585 . S
C909 C298 1.582 . S
C925 C446 1.585 . S
C927 C357 1.582 . S
C943 C416 1.582 . S
C945 C505 1.585 . S
C961 C564 1.585 . S
C963 C475 1.582 . S
C979 C534 1.582 . S
C981 C623 1.585 . S
C997 C593 1.582 . S
C999 C682 1.585 . S
C1015 C652 1.582 . S
C1017 C387 1.585 . S
C1033 C642 1.489 . S
C1035 C52 1.489 . S
C1051 C701 1.489 . S
C1053 C111 1.489 . S
C1069 C406 1.489 . S
C1071 C170 1.489 . S
C1087 C229 1.488 . S
C1089 C465 1.488 . S
C1105 C288 1.489 . S
C1107 C524 1.489 . S
C1123 C583 1.489 . S
C1125 C347 1.489 . S
