# Generated by pormake.
# Topology uoi, (4)-cn, num edge types: 1
# Building blocks:
#     Node 0, Type 0, BuildingBlock: CEKHIL_clean_sbu_0, # of connection points: 4
#     Node 1, Type 0, BuildingBlock: CEKHIL_clean_sbu_0, # of connection points: 4
#     Node 2, Type 0, BuildingBlock: CEKHIL_clean_sbu_0, # of connection points: 4
#     Node 3, Type 0, BuildingBlock: CEKHIL_clean_sbu_0, # of connection points: 4
#     Node 4, Type 0, BuildingBlock: CEKHIL_clean_sbu_0, # of connection points: 4
#     Node 5, Type 0, BuildingBlock: CEKHIL_clean_sbu_0, # of connection points: 4
#     Node 6, Type 0, BuildingBlock: CEKHIL_clean_sbu_0, # of connection points: 4
#     Node 7, Type 0, BuildingBlock: CEKHIL_clean_sbu_0, # of connection points: 4
#     Node 8, Type 0, BuildingBlock: CEKHIL_clean_sbu_0, # of connection points: 4
#     Node 9, Type 0, BuildingBlock: CEKHIL_clean_sbu_0, # of connection points: 4
#     Node 10, Type 0, BuildingBlock: CEKHIL_clean_sbu_0, # of connection points: 4
#     Node 11, Type 0, BuildingBlock: CEKHIL_clean_sbu_0, # of connection points: 4
#     Node 12, Type 0, BuildingBlock: CEKHIL_clean_sbu_0, # of connection points: 4
#     Node 13, Type 0, BuildingBlock: CEKHIL_clean_sbu_0, # of connection points: 4
#     Node 14, Type 0, BuildingBlock: CEKHIL_clean_sbu_0, # of connection points: 4
#     Node 15, Type 0, BuildingBlock: CEKHIL_clean_sbu_0, # of connection points: 4
#     Node 16, Type 0, BuildingBlock: CEKHIL_clean_sbu_0, # of connection points: 4
#     Node 17, Type 0, BuildingBlock: CEKHIL_clean_sbu_0, # of connection points: 4
#     Node 18, Type 0, BuildingBlock: CEKHIL_clean_sbu_0, # of connection points: 4
#     Node 19, Type 0, BuildingBlock: CEKHIL_clean_sbu_0, # of connection points: 4
#     Node 20, Type 0, BuildingBlock: CEKHIL_clean_sbu_0, # of connection points: 4
#     Node 21, Type 0, BuildingBlock: CEKHIL_clean_sbu_0, # of connection points: 4
#     Node 22, Type 0, BuildingBlock: CEKHIL_clean_sbu_0, # of connection points: 4
#     Node 23, Type 0, BuildingBlock: CEKHIL_clean_sbu_0, # of connection points: 4
#     Node 24, Type 0, BuildingBlock: CEKHIL_clean_sbu_0, # of connection points: 4
#     Node 25, Type 0, BuildingBlock: CEKHIL_clean_sbu_0, # of connection points: 4
#     Node 26, Type 0, BuildingBlock: CEKHIL_clean_sbu_0, # of connection points: 4
#     Node 27, Type 0, BuildingBlock: CEKHIL_clean_sbu_0, # of connection points: 4
#     Node 28, Type 0, BuildingBlock: CEKHIL_clean_sbu_0, # of connection points: 4
#     Node 29, Type 0, BuildingBlock: CEKHIL_clean_sbu_0, # of connection points: 4
#     Node 30, Type 0, BuildingBlock: CEKHIL_clean_sbu_0, # of connection points: 4
#     Node 31, Type 0, BuildingBlock: CEKHIL_clean_sbu_0, # of connection points: 4
#     Edge 32, Type (0, 0), BuildingBlock: CIFDUS_clean_linker_0, # of connection points: 2
#     Edge 33, Type (0, 0), BuildingBlock: CIFDUS_clean_linker_0, # of connection points: 2
#     Edge 34, Type (0, 0), BuildingBlock: CIFDUS_clean_linker_0, # of connection points: 2
#     Edge 35, Type (0, 0), BuildingBlock: CIFDUS_clean_linker_0, # of connection points: 2
#     Edge 36, Type (0, 0), BuildingBlock: CIFDUS_clean_linker_0, # of connection points: 2
#     Edge 37, Type (0, 0), BuildingBlock: CIFDUS_clean_linker_0, # of connection points: 2
#     Edge 38, Type (0, 0), BuildingBlock: CIFDUS_clean_linker_0, # of connection points: 2
#     Edge 39, Type (0, 0), BuildingBlock: CIFDUS_clean_linker_0, # of connection points: 2
#     Edge 40, Type (0, 0), BuildingBlock: CIFDUS_clean_linker_0, # of connection points: 2
#     Edge 41, Type (0, 0), BuildingBlock: CIFDUS_clean_linker_0, # of connection points: 2
#     Edge 42, Type (0, 0), BuildingBlock: CIFDUS_clean_linker_0, # of connection points: 2
#     Edge 43, Type (0, 0), BuildingBlock: CIFDUS_clean_linker_0, # of connection points: 2
#     Edge 44, Type (0, 0), BuildingBlock: CIFDUS_clean_linker_0, # of connection points: 2
#     Edge 45, Type (0, 0), BuildingBlock: CIFDUS_clean_linker_0, # of connection points: 2
#     Edge 46, Type (0, 0), BuildingBlock: CIFDUS_clean_linker_0, # of connection points: 2
#     Edge 47, Type (0, 0), BuildingBlock: CIFDUS_clean_linker_0, # of connection points: 2
#     Edge 48, Type (0, 0), BuildingBlock: CIFDUS_clean_linker_0, # of connection points: 2
#     Edge 49, Type (0, 0), BuildingBlock: CIFDUS_clean_linker_0, # of connection points: 2
#     Edge 50, Type (0, 0), BuildingBlock: CIFDUS_clean_linker_0, # of connection points: 2
#     Edge 51, Type (0, 0), BuildingBlock: CIFDUS_clean_linker_0, # of connection points: 2
#     Edge 52, Type (0, 0), BuildingBlock: CIFDUS_clean_linker_0, # of connection points: 2
#     Edge 53, Type (0, 0), BuildingBlock: CIFDUS_clean_linker_0, # of connection points: 2
#     Edge 54, Type (0, 0), BuildingBlock: CIFDUS_clean_linker_0, # of connection points: 2
#     Edge 55, Type (0, 0), BuildingBlock: CIFDUS_clean_linker_0, # of connection points: 2
#     Edge 56, Type (0, 0), BuildingBlock: CIFDUS_clean_linker_0, # of connection points: 2
#     Edge 57, Type (0, 0), BuildingBlock: CIFDUS_clean_linker_0, # of connection points: 2
#     Edge 58, Type (0, 0), BuildingBlock: CIFDUS_clean_linker_0, # of connection points: 2
#     Edge 59, Type (0, 0), BuildingBlock: CIFDUS_clean_linker_0, # of connection points: 2
#     Edge 60, Type (0, 0), BuildingBlock: CIFDUS_clean_linker_0, # of connection points: 2
#     Edge 61, Type (0, 0), BuildingBlock: CIFDUS_clean_linker_0, # of connection points: 2
#     Edge 62, Type (0, 0), BuildingBlock: CIFDUS_clean_linker_0, # of connection points: 2
#     Edge 63, Type (0, 0), BuildingBlock: CIFDUS_clean_linker_0, # of connection points: 2
#     Edge 64, Type (0, 0), BuildingBlock: CIFDUS_clean_linker_0, # of connection points: 2
#     Edge 65, Type (0, 0), BuildingBlock: CIFDUS_clean_linker_0, # of connection points: 2
#     Edge 66, Type (0, 0), BuildingBlock: CIFDUS_clean_linker_0, # of connection points: 2
#     Edge 67, Type (0, 0), BuildingBlock: CIFDUS_clean_linker_0, # of connection points: 2
#     Edge 68, Type (0, 0), BuildingBlock: CIFDUS_clean_linker_0, # of connection points: 2
#     Edge 69, Type (0, 0), BuildingBlock: CIFDUS_clean_linker_0, # of connection points: 2
#     Edge 70, Type (0, 0), BuildingBlock: CIFDUS_clean_linker_0, # of connection points: 2
#     Edge 71, Type (0, 0), BuildingBlock: CIFDUS_clean_linker_0, # of connection points: 2
#     Edge 72, Type (0, 0), BuildingBlock: CIFDUS_clean_linker_0, # of connection points: 2
#     Edge 73, Type (0, 0), BuildingBlock: CIFDUS_clean_linker_0, # of connection points: 2
#     Edge 74, Type (0, 0), BuildingBlock: CIFDUS_clean_linker_0, # of connection points: 2
#     Edge 75, Type (0, 0), BuildingBlock: CIFDUS_clean_linker_0, # of connection points: 2
#     Edge 76, Type (0, 0), BuildingBlock: CIFDUS_clean_linker_0, # of connection points: 2
#     Edge 77, Type (0, 0), BuildingBlock: CIFDUS_clean_linker_0, # of connection points: 2
#     Edge 78, Type (0, 0), BuildingBlock: CIFDUS_clean_linker_0, # of connection points: 2
#     Edge 79, Type (0, 0), BuildingBlock: CIFDUS_clean_linker_0, # of connection points: 2
#     Edge 80, Type (0, 0), BuildingBlock: CIFDUS_clean_linker_0, # of connection points: 2
#     Edge 81, Type (0, 0), BuildingBlock: CIFDUS_clean_linker_0, # of connection points: 2
#     Edge 82, Type (0, 0), BuildingBlock: CIFDUS_clean_linker_0, # of connection points: 2
#     Edge 83, Type (0, 0), BuildingBlock: CIFDUS_clean_linker_0, # of connection points: 2
#     Edge 84, Type (0, 0), BuildingBlock: CIFDUS_clean_linker_0, # of connection points: 2
#     Edge 85, Type (0, 0), BuildingBlock: CIFDUS_clean_linker_0, # of connection points: 2
#     Edge 86, Type (0, 0), BuildingBlock: CIFDUS_clean_linker_0, # of connection points: 2
#     Edge 87, Type (0, 0), BuildingBlock: CIFDUS_clean_linker_0, # of connection points: 2
#     Edge 88, Type (0, 0), BuildingBlock: CIFDUS_clean_linker_0, # of connection points: 2
#     Edge 89, Type (0, 0), BuildingBlock: CIFDUS_clean_linker_0, # of connection points: 2
#     Edge 90, Type (0, 0), BuildingBlock: CIFDUS_clean_linker_0, # of connection points: 2
#     Edge 91, Type (0, 0), BuildingBlock: CIFDUS_clean_linker_0, # of connection points: 2
#     Edge 92, Type (0, 0), BuildingBlock: CIFDUS_clean_linker_0, # of connection points: 2
#     Edge 93, Type (0, 0), BuildingBlock: CIFDUS_clean_linker_0, # of connection points: 2
#     Edge 94, Type (0, 0), BuildingBlock: CIFDUS_clean_linker_0, # of connection points: 2
#     Edge 95, Type (0, 0), BuildingBlock: CIFDUS_clean_linker_0, # of connection points: 2
# Relax obj value: 0.256
# Max RMSD: 0.467
# Mean RMSD: 0.293
data_MOF--net-uoi--node1-CEKHIL_clean_sbu_0--edge1-CIFDUS_clean_linker_0
_symmetry_space_group_name_H-M    P1
_symmetry_Int_Tables_number       1
_symmetry_cell_setting            triclinic
loop_
_symmetry_equiv_pos_as_xyz
'x, y, z'
_cell_length_a     41.435896
_cell_length_b     64.29135
_cell_length_c     18.551371
_cell_angle_alpha  89.877434
_cell_angle_beta   89.944141
_cell_angle_gamma 89.952396
loop_
_atom_site_label
_atom_site_type_symbol
_atom_site_fract_x
_atom_site_fract_y
_atom_site_fract_z
_atom_type_partial_charge
Co0 Co 0.30139 0.18753 0.24532 0.0
O1 O 0.28696 0.16337 0.1958 0.0
O2 O 0.26909 0.19524 0.17416 0.0
C3 C 0.29525 0.17303 0.35387 0.0
O4 O 0.30971 0.2163 0.29187 0.0
Co5 Co 0.36257 0.18765 0.29886 0.0
O6 O 0.35657 0.21361 0.34996 0.0
C7 C 0.35577 0.20512 0.16427 0.0
C8 C 0.26844 0.17547 0.15863 0.0
C9 C 0.3315 0.22381 0.33415 0.0
O10 O 0.33472 0.19092 0.16812 0.0
O11 O 0.37419 0.20753 0.21784 0.0
O12 O 0.27251 0.18281 0.32057 0.0
O13 O 0.32308 0.17065 0.32033 0.0
Co14 Co 0.11516 0.91486 0.60405 0.0
O15 O 0.14222 0.91588 0.52126 0.0
O16 O 0.13011 0.88701 0.58102 0.0
C17 C 0.14046 0.94186 0.65524 0.0
O18 O 0.08837 0.90857 0.69397 0.0
Co19 Co 0.07388 0.95325 0.64749 0.0
O20 O 0.07586 0.93946 0.74276 0.0
C21 C 0.05039 0.92363 0.53555 0.0
C22 C 0.14662 0.89613 0.53013 0.0
C23 C 0.078 0.91974 0.74659 0.0
O24 O 0.07545 0.91188 0.54206 0.0
O25 O 0.04654 0.94068 0.57021 0.0
O26 O 0.15177 0.92321 0.66421 0.0
O27 O 0.11527 0.94362 0.6152 0.0
Co28 Co 0.17908 0.82526 0.73908 0.0
O29 O 0.18686 0.84968 0.68336 0.0
O30 O 0.22016 0.82276 0.68845 0.0
C31 C 0.16558 0.84138 0.84144 0.0
O32 O 0.17753 0.79778 0.79595 0.0
Co33 Co 0.10787 0.81792 0.77905 0.0
O34 O 0.12608 0.79446 0.83436 0.0
C35 C 0.12945 0.80537 0.63661 0.0
C36 C 0.21409 0.84145 0.66459 0.0
C37 C 0.15525 0.78821 0.8321 0.0
O38 O 0.15732 0.81183 0.65559 0.0
O39 O 0.10461 0.80718 0.67711 0.0
O40 O 0.19543 0.83884 0.82279 0.0
O41 O 0.14429 0.83682 0.79226 0.0
Co42 Co 0.3743 0.09128 0.12011 0.0
O43 O 0.35342 0.09716 0.02993 0.0
O44 O 0.36642 0.12101 0.11063 0.0
C45 C 0.34329 0.06353 0.15099 0.0
O46 O 0.39592 0.09118 0.21879 0.0
Co47 Co 0.40789 0.04853 0.14958 0.0
O48 O 0.40617 0.05806 0.25085 0.0
C49 C 0.44233 0.08202 0.06949 0.0
C50 C 0.35427 0.11666 0.04779 0.0
C51 C 0.40452 0.07738 0.26526 0.0
O52 O 0.41802 0.09445 0.07339 0.0
O53 O 0.4422 0.06337 0.09389 0.0
O54 O 0.33335 0.08233 0.16449 0.0
O55 O 0.36972 0.06231 0.11496 0.0
Co56 Co 0.31269 0.81602 0.22608 0.0
O57 O 0.30029 0.83721 0.30015 0.0
O58 O 0.26787 0.81321 0.26776 0.0
C59 C 0.27397 0.82889 0.14284 0.0
O60 O 0.32047 0.79303 0.15518 0.0
Co61 Co 0.33896 0.82499 0.21523 0.0
O62 O 0.36507 0.80918 0.14082 0.0
C63 C 0.34268 0.80078 0.33837 0.0
C64 C 0.27305 0.82857 0.31046 0.0
C65 C 0.34769 0.79386 0.12417 0.0
O66 O 0.319 0.79495 0.30132 0.0
O67 O 0.35805 0.81631 0.3139 0.0
O68 O 0.2684 0.81341 0.18507 0.0
O69 O 0.30216 0.83683 0.15011 0.0
Co70 Co 0.37507 0.92384 0.36454 0.0
O71 O 0.34712 0.9198 0.44563 0.0
O72 O 0.36417 0.8946 0.37381 0.0
C73 C 0.34831 0.95186 0.32009 0.0
O74 O 0.40274 0.92194 0.27414 0.0
Co75 Co 0.41406 0.96456 0.34175 0.0
O76 O 0.41545 0.95452 0.24088 0.0
C77 C 0.43865 0.93198 0.44158 0.0
C78 C 0.34677 0.90021 0.42884 0.0
C79 C 0.41317 0.93516 0.22771 0.0
O80 O 0.41451 0.92002 0.42756 0.0
O81 O 0.44186 0.95028 0.41505 0.0
O82 O 0.33849 0.93315 0.30543 0.0
O83 O 0.37225 0.95304 0.36417 0.0
Co84 Co 0.20473 0.19858 0.78013 0.0
O85 O 0.23217 0.18073 0.83331 0.0
O86 O 0.24183 0.21424 0.81792 0.0
C87 C 0.20386 0.17671 0.68573 0.0
O88 O 0.18005 0.2207 0.72147 0.0
Co89 Co 0.13924 0.18375 0.76228 0.0
O90 O 0.13817 0.20256 0.67872 0.0
C91 C 0.15245 0.20278 0.8979 0.0
C92 C 0.2511 0.19626 0.84332 0.0
C93 C 0.15632 0.21844 0.67707 0.0
O94 O 0.18055 0.20511 0.87084 0.0
O95 O 0.13008 0.19355 0.86338 0.0
O96 O 0.22518 0.1911 0.69325 0.0
O97 O 0.18344 0.17429 0.739 0.0
Co98 Co 0.12955 0.08434 0.84151 0.0
O99 O 0.16009 0.08485 0.91819 0.0
O100 O 0.14662 0.11223 0.85151 0.0
C101 C 0.15008 0.05519 0.79363 0.0
O102 O 0.09986 0.089 0.7552 0.0
Co103 Co 0.08317 0.04669 0.82335 0.0
O104 O 0.07979 0.05776 0.72419 0.0
C105 C 0.06743 0.08036 0.92713 0.0
C106 C 0.16442 0.10426 0.90243 0.0
C107 C 0.08516 0.07687 0.71103 0.0
O108 O 0.09308 0.09061 0.91049 0.0
O109 O 0.0602 0.06261 0.90043 0.0
O110 O 0.16259 0.07308 0.77706 0.0
O111 O 0.12698 0.05541 0.84014 0.0
Co112 Co 0.68876 0.82121 0.7467 0.0
O113 O 0.69502 0.84499 0.81455 0.0
O114 O 0.7336 0.8244 0.78888 0.0
C115 C 0.72464 0.83479 0.65896 0.0
O116 O 0.68675 0.79664 0.68017 0.0
Co117 Co 0.66109 0.82754 0.73429 0.0
O118 O 0.64076 0.81021 0.65635 0.0
C119 C 0.65976 0.80276 0.85626 0.0
C120 C 0.7243 0.84018 0.82588 0.0
C121 C 0.66074 0.79588 0.64455 0.0
O122 O 0.68689 0.80112 0.82642 0.0
O123 O 0.64049 0.81555 0.82707 0.0
O124 O 0.73338 0.82146 0.70698 0.0
O125 O 0.6952 0.84085 0.66502 0.0
Co126 Co 0.88926 0.09311 0.34241 0.0
O127 O 0.85997 0.09721 0.4202 0.0
O128 O 0.87931 0.12253 0.35142 0.0
C129 C 0.86254 0.06577 0.29505 0.0
O130 O 0.91929 0.0944 0.25552 0.0
Co131 Co 0.92688 0.05135 0.32795 0.0
O132 O 0.93432 0.06163 0.22875 0.0
C133 C 0.94999 0.08391 0.42846 0.0
C134 C 0.86096 0.11689 0.40501 0.0
C135 C 0.9324 0.08091 0.21362 0.0
O136 O 0.92699 0.09627 0.41009 0.0
O137 O 0.9532 0.0654 0.4041 0.0
O138 O 0.85379 0.08464 0.279 0.0
O139 O 0.88522 0.06411 0.34217 0.0
Co140 Co 0.8 0.18788 0.25934 0.0
O141 O 0.78307 0.16482 0.31124 0.0
O142 O 0.7651 0.197 0.32243 0.0
C143 C 0.79625 0.17133 0.15449 0.0
O144 O 0.81084 0.21558 0.20861 0.0
Co145 Co 0.86285 0.186 0.21076 0.0
O146 O 0.8564 0.20985 0.1479 0.0
C147 C 0.85388 0.20529 0.34272 0.0
C148 C 0.76303 0.17752 0.34118 0.0
C149 C 0.8323 0.22119 0.16209 0.0
O150 O 0.83105 0.19219 0.33993 0.0
O151 O 0.87401 0.20593 0.29138 0.0
O152 O 0.77338 0.18248 0.18133 0.0
O153 O 0.823 0.16921 0.19218 0.0
Co154 Co 0.61037 0.91984 0.86742 0.0
O155 O 0.63739 0.91445 0.94863 0.0
O156 O 0.62243 0.8906 0.86943 0.0
C157 C 0.63701 0.94893 0.83401 0.0
O158 O 0.58347 0.92019 0.77499 0.0
Co159 Co 0.57133 0.96117 0.85501 0.0
O160 O 0.57107 0.95361 0.75171 0.0
C161 C 0.5463 0.92589 0.94308 0.0
C162 C 0.6391 0.89539 0.92651 0.0
C163 C 0.5732 0.93465 0.73265 0.0
O164 O 0.57051 0.91421 0.92695 0.0
O165 O 0.54336 0.9448 0.92212 0.0
O166 O 0.64748 0.93081 0.81364 0.0
O167 O 0.61244 0.94873 0.87646 0.0
Co168 Co 0.69611 0.19058 0.72617 0.0
O169 O 0.71285 0.16491 0.6932 0.0
O170 O 0.73439 0.19507 0.66476 0.0
C171 C 0.69644 0.17764 0.83854 0.0
O172 O 0.68492 0.22061 0.75823 0.0
Co173 Co 0.63343 0.19134 0.76189 0.0
O174 O 0.63774 0.21732 0.81418 0.0
C175 C 0.64589 0.20318 0.62141 0.0
C176 C 0.73506 0.17484 0.65939 0.0
C177 C 0.66222 0.22811 0.79836 0.0
O178 O 0.66951 0.19144 0.63652 0.0
O179 O 0.62414 0.20609 0.66823 0.0
O180 O 0.7193 0.18874 0.81184 0.0
O181 O 0.67063 0.17465 0.79867 0.0
Co182 Co 0.60476 0.08918 0.62631 0.0
O183 O 0.63446 0.08837 0.54788 0.0
O184 O 0.62006 0.11703 0.60632 0.0
C185 C 0.62771 0.0619 0.68276 0.0
O186 O 0.57576 0.09581 0.71163 0.0
Co187 Co 0.56106 0.05148 0.6636 0.0
O188 O 0.55942 0.0654 0.75861 0.0
C189 C 0.54134 0.08161 0.54947 0.0
C190 C 0.63807 0.10819 0.55768 0.0
C191 C 0.56306 0.08502 0.76251 0.0
O192 O 0.56697 0.09265 0.55857 0.0
O193 O 0.53569 0.06468 0.58383 0.0
O194 O 0.63918 0.08046 0.69223 0.0
O195 O 0.60397 0.06028 0.63836 0.0
Co196 Co 0.81528 0.82104 0.21168 0.0
O197 O 0.8058 0.84647 0.16346 0.0
O198 O 0.77631 0.81792 0.15399 0.0
C199 C 0.82287 0.83491 0.3207 0.0
O200 O 0.81871 0.7922 0.2585 0.0
Co201 Co 0.88513 0.81623 0.26245 0.0
O202 O 0.8686 0.79047 0.30666 0.0
C203 C 0.87067 0.80621 0.11327 0.0
C204 C 0.78038 0.8375 0.13781 0.0
C205 C 0.84082 0.78272 0.29513 0.0
O206 O 0.84158 0.81143 0.12779 0.0
O207 O 0.89343 0.80764 0.1595 0.0
O208 O 0.79429 0.83088 0.29666 0.0
O209 O 0.84638 0.83325 0.27428 0.0
Co210 Co 0.88691 0.92557 0.10151 0.0
O211 O 0.86304 0.92088 0.01476 0.0
O212 O 0.87617 0.89642 0.09416 0.0
C213 C 0.85825 0.95392 0.13441 0.0
O214 O 0.90997 0.92457 0.19805 0.0
Co215 Co 0.92408 0.96667 0.1306 0.0
O216 O 0.92065 0.95732 0.23214 0.0
C217 C 0.95501 0.93238 0.04701 0.0
C218 C 0.86119 0.90161 0.0352 0.0
C219 C 0.91831 0.93797 0.24573 0.0
O220 O 0.9295 0.92095 0.05061 0.0
O221 O 0.95672 0.95078 0.07315 0.0
O222 O 0.8476 0.93542 0.14953 0.0
O223 O 0.88439 0.95464 0.09688 0.0
Co224 Co 0.80432 0.69524 0.72452 0.0
O225 O 0.78866 0.671 0.67701 0.0
O226 O 0.76477 0.70184 0.67301 0.0
C227 C 0.81044 0.67725 0.82859 0.0
O228 O 0.81659 0.72218 0.77041 0.0
Co229 Co 0.87271 0.68848 0.72822 0.0
O230 O 0.86958 0.71548 0.78501 0.0
C231 C 0.85077 0.69855 0.59427 0.0
C232 C 0.76458 0.68223 0.65548 0.0
C233 C 0.84476 0.72718 0.79402 0.0
O234 O 0.82721 0.70428 0.63388 0.0
O235 O 0.87409 0.68834 0.62096 0.0
O236 O 0.78352 0.6855 0.80971 0.0
O237 O 0.83537 0.68168 0.78878 0.0
Co238 Co 0.62353 0.42275 0.11148 0.0
O239 O 0.65522 0.41893 0.0375 0.0
O240 O 0.63407 0.39349 0.1033 0.0
C241 C 0.64922 0.45013 0.1618 0.0
O242 O 0.5912 0.42071 0.19415 0.0
Co243 Co 0.5853 0.46413 0.1279 0.0
O244 O 0.57513 0.45291 0.22472 0.0
C245 C 0.56305 0.43153 0.02526 0.0
C246 C 0.6543 0.39929 0.0535 0.0
C247 C 0.57647 0.43342 0.23629 0.0
O248 O 0.58708 0.41957 0.04023 0.0
O249 O 0.55911 0.44966 0.05244 0.0
O250 O 0.65748 0.43125 0.17881 0.0
O251 O 0.62718 0.45184 0.11324 0.0
Co252 Co 0.69084 0.31503 0.22739 0.0
O253 O 0.71719 0.3361 0.18637 0.0
O254 O 0.73037 0.30269 0.18872 0.0
C255 C 0.68134 0.33203 0.33023 0.0
O256 O 0.66844 0.28956 0.27188 0.0
Co257 Co 0.62124 0.32485 0.23903 0.0
O258 O 0.61907 0.30061 0.30393 0.0
C259 C 0.64331 0.31151 0.09986 0.0
C260 C 0.7378 0.32175 0.17096 0.0
C261 C 0.64133 0.28701 0.30533 0.0
O262 O 0.67064 0.31009 0.13103 0.0
O263 O 0.61837 0.31812 0.13312 0.0
O264 O 0.70689 0.32085 0.32061 0.0
O265 O 0.66322 0.33523 0.27359 0.0
Co266 Co 0.87443 0.5776 0.61525 0.0
O267 O 0.84616 0.58363 0.53617 0.0
O268 O 0.8556 0.60488 0.62789 0.0
C269 C 0.85586 0.54482 0.63228 0.0
O270 O 0.90091 0.57664 0.70754 0.0
Co271 Co 0.92381 0.54084 0.6108 0.0
O272 O 0.92803 0.54635 0.71511 0.0
C273 C 0.9405 0.58225 0.54808 0.0
C274 C 0.84034 0.60117 0.56807 0.0
C275 C 0.91874 0.56357 0.74168 0.0
O276 O 0.91264 0.59005 0.56288 0.0
O277 O 0.94843 0.56334 0.5606 0.0
O278 O 0.84065 0.56053 0.66042 0.0
O279 O 0.88015 0.54948 0.59215 0.0
Co280 Co 0.8201 0.32238 0.73343 0.0
O281 O 0.81561 0.34533 0.806 0.0
O282 O 0.77541 0.32675 0.77662 0.0
C283 C 0.78587 0.33855 0.64817 0.0
O284 O 0.82167 0.29875 0.66239 0.0
Co285 Co 0.84761 0.32803 0.7261 0.0
O286 O 0.87113 0.30822 0.66007 0.0
C287 C 0.84371 0.30309 0.84714 0.0
C288 C 0.78615 0.34128 0.81754 0.0
C289 C 0.84992 0.29579 0.63774 0.0
O290 O 0.81883 0.301 0.80935 0.0
O291 O 0.86375 0.31642 0.82403 0.0
O292 O 0.77578 0.32501 0.69414 0.0
O293 O 0.8159 0.34324 0.65511 0.0
Co294 Co 0.88871 0.41483 0.89697 0.0
O295 O 0.86215 0.41342 0.9814 0.0
O296 O 0.8794 0.38605 0.91979 0.0
C297 C 0.85965 0.44038 0.84446 0.0
O298 O 0.91628 0.41007 0.80741 0.0
Co299 Co 0.92462 0.45542 0.85297 0.0
O300 O 0.93006 0.44096 0.75968 0.0
C301 C 0.95148 0.42784 0.96747 0.0
C302 C 0.86292 0.39337 0.97383 0.0
C303 C 0.92858 0.4212 0.75678 0.0
O304 O 0.92882 0.41438 0.95856 0.0
O305 O 0.95272 0.44522 0.93358 0.0
O306 O 0.85076 0.42112 0.83707 0.0
O307 O 0.8844 0.44356 0.8847 0.0
Co308 Co 0.68275 0.68482 0.25427 0.0
O309 O 0.68189 0.66041 0.3218 0.0
O310 O 0.72502 0.67769 0.30122 0.0
C311 C 0.71673 0.6681 0.1692 0.0
O312 O 0.68986 0.70979 0.19211 0.0
Co313 Co 0.654 0.6821 0.23586 0.0
O314 O 0.63997 0.70546 0.1687 0.0
C315 C 0.65492 0.70501 0.36101 0.0
C316 C 0.71151 0.66306 0.33763 0.0
C317 C 0.66506 0.71621 0.15943 0.0
O318 O 0.68287 0.70465 0.3346 0.0
O319 O 0.63414 0.69389 0.32927 0.0
O320 O 0.72767 0.67996 0.21924 0.0
O321 O 0.68611 0.66531 0.17157 0.0
Co322 Co 0.61895 0.58444 0.38306 0.0
O323 O 0.6424 0.58517 0.47169 0.0
O324 O 0.62713 0.61305 0.41013 0.0
C325 C 0.65046 0.55946 0.33422 0.0
O326 O 0.59493 0.58985 0.28945 0.0
Co327 Co 0.58677 0.54389 0.32566 0.0
O328 O 0.58713 0.55941 0.23341 0.0
C329 C 0.55306 0.57064 0.43384 0.0
C330 C 0.64243 0.60526 0.46516 0.0
C331 C 0.58653 0.5792 0.23412 0.0
O332 O 0.5763 0.58398 0.43587 0.0
O333 O 0.55391 0.5539 0.3965 0.0
O334 O 0.65915 0.57884 0.32958 0.0
O335 O 0.62429 0.55593 0.36924 0.0
Co336 Co 0.1934 0.31284 0.30959 0.0
O337 O 0.21324 0.33745 0.34434 0.0
O338 O 0.22751 0.30626 0.3804 0.0
C339 C 0.20386 0.32354 0.19605 0.0
O340 O 0.17826 0.2838 0.2765 0.0
Co341 Co 0.13388 0.31763 0.24595 0.0
O342 O 0.13758 0.29038 0.20121 0.0
C343 C 0.13235 0.30828 0.39413 0.0
C344 C 0.23273 0.32625 0.38143 0.0
C345 C 0.158 0.27791 0.22772 0.0
O346 O 0.16101 0.31521 0.38968 0.0
O347 O 0.11498 0.30678 0.33815 0.0
O348 O 0.22203 0.31123 0.23214 0.0
O349 O 0.17718 0.32975 0.22758 0.0
Co350 Co 0.3901 0.58919 0.88399 0.0
O351 O 0.36391 0.59673 0.96548 0.0
O352 O 0.3863 0.61909 0.88907 0.0
C353 C 0.35683 0.56382 0.84289 0.0
O354 O 0.41752 0.58787 0.79369 0.0
Co355 Co 0.41761 0.54445 0.86031 0.0
O356 O 0.42598 0.55468 0.76115 0.0
C357 C 0.45356 0.57578 0.94826 0.0
C358 C 0.36806 0.61586 0.94492 0.0
C359 C 0.42788 0.57415 0.74923 0.0
O360 O 0.43106 0.58956 0.94293 0.0
O361 O 0.45159 0.55742 0.92194 0.0
O362 O 0.35127 0.58319 0.82706 0.0
O363 O 0.38044 0.56063 0.88654 0.0
Co364 Co 0.29843 0.68913 0.75086 0.0
O365 O 0.27796 0.66703 0.8016 0.0
O366 O 0.26036 0.69946 0.80244 0.0
C367 C 0.29944 0.6695 0.64977 0.0
O368 O 0.3125 0.71587 0.69971 0.0
Co369 Co 0.36355 0.68513 0.70823 0.0
O370 O 0.35932 0.70937 0.64513 0.0
C371 C 0.35381 0.70119 0.84936 0.0
C372 C 0.25643 0.68018 0.82236 0.0
C373 C 0.33535 0.72114 0.65636 0.0
O374 O 0.32484 0.69534 0.83815 0.0
O375 O 0.37553 0.69918 0.8014 0.0
O376 O 0.27656 0.68232 0.66529 0.0
O377 O 0.32354 0.66865 0.69542 0.0
Co378 Co 0.1213 0.42487 0.39641 0.0
O379 O 0.14767 0.41827 0.47852 0.0
O380 O 0.13375 0.39572 0.39411 0.0
C381 C 0.14755 0.45477 0.36801 0.0
O382 O 0.09572 0.42612 0.3025 0.0
Co383 Co 0.08169 0.46612 0.38569 0.0
O384 O 0.08244 0.4595 0.28153 0.0
C385 C 0.0542 0.42889 0.46004 0.0
C386 C 0.14989 0.39959 0.45268 0.0
C387 C 0.08521 0.4407 0.26107 0.0
O388 O 0.08009 0.41806 0.45067 0.0
O389 O 0.05114 0.44787 0.44011 0.0
O390 O 0.1589 0.43692 0.34712 0.0
O391 O 0.12262 0.45382 0.40929 0.0
Co392 Co 0.21711 0.69331 0.25 0.0
O393 O 0.24104 0.67403 0.19402 0.0
O394 O 0.25573 0.70672 0.20928 0.0
C395 C 0.21585 0.6701 0.34247 0.0
O396 O 0.19727 0.71719 0.30798 0.0
Co397 Co 0.15152 0.68316 0.27801 0.0
O398 O 0.14869 0.70667 0.34505 0.0
C399 C 0.16347 0.70277 0.14187 0.0
C400 C 0.2614 0.68857 0.18065 0.0
C401 C 0.17114 0.72005 0.34439 0.0
O402 O 0.19289 0.70161 0.16142 0.0
O403 O 0.14085 0.69546 0.18101 0.0
O404 O 0.23712 0.68458 0.33619 0.0
O405 O 0.19378 0.66959 0.29215 0.0
Co406 Co 0.10796 0.59017 0.12624 0.0
O407 O 0.13827 0.58878 0.04837 0.0
O408 O 0.12031 0.618 0.09742 0.0
C409 C 0.13213 0.56518 0.19295 0.0
O410 O 0.07707 0.59799 0.20711 0.0
Co411 Co 0.06677 0.55189 0.17203 0.0
O412 O 0.05826 0.56881 0.25898 0.0
C413 C 0.04728 0.57763 0.04595 0.0
C414 C 0.13838 0.60896 0.04939 0.0
C415 C 0.06159 0.58848 0.25721 0.0
O416 O 0.07097 0.59028 0.05562 0.0
O417 O 0.04269 0.56127 0.08418 0.0
O418 O 0.14228 0.58428 0.19666 0.0
O419 O 0.10931 0.56171 0.14763 0.0
Co420 Co 0.3105 0.31875 0.76188 0.0
O421 O 0.30859 0.34267 0.69969 0.0
O422 O 0.27394 0.31689 0.6949 0.0
C423 C 0.30893 0.33898 0.86681 0.0
O424 O 0.30959 0.29311 0.82299 0.0
Co425 Co 0.3574 0.32347 0.75491 0.0
O426 O 0.36218 0.29778 0.81911 0.0
C427 C 0.35237 0.30672 0.63778 0.0
C428 C 0.28232 0.33533 0.67277 0.0
C429 C 0.338 0.28728 0.84152 0.0
O430 O 0.33305 0.30076 0.68671 0.0
O431 O 0.36894 0.32265 0.65035 0.0
O432 O 0.28515 0.33411 0.82796 0.0
O433 O 0.33694 0.33233 0.84587 0.0
Co434 Co 0.38766 0.42816 0.61377 0.0
O435 O 0.36229 0.4254 0.52826 0.0
O436 O 0.37695 0.39909 0.59804 0.0
C437 C 0.35874 0.45526 0.65774 0.0
O438 O 0.413 0.42517 0.70738 0.0
Co439 Co 0.42391 0.46924 0.65026 0.0
O440 O 0.42306 0.45733 0.74874 0.0
C441 C 0.45374 0.43788 0.55208 0.0
C442 C 0.36088 0.40565 0.54216 0.0
C443 C 0.42198 0.4377 0.75739 0.0
O444 O 0.42922 0.42559 0.55676 0.0
O445 O 0.45517 0.45568 0.58287 0.0
O446 O 0.34907 0.4363 0.66866 0.0
O447 O 0.38405 0.45721 0.61803 0.0
H448 H 0.26072 0.15759 0.67106 0.0
H449 H 0.1661 0.16192 0.5764 0.0
H450 H 0.18897 0.15391 0.45793 0.0
H451 H 0.23629 0.15744 0.3805 0.0
H452 H 0.33124 0.16264 0.47383 0.0
H453 H 0.30849 0.15493 0.59327 0.0
C454 C 0.24496 0.15575 0.62478 0.0
C455 C 0.21185 0.16069 0.63188 0.0
C456 C 0.25886 0.15376 0.55615 0.0
C457 C 0.19153 0.15815 0.57234 0.0
C458 C 0.20483 0.15408 0.50434 0.0
C459 C 0.25223 0.15639 0.42676 0.0
C460 C 0.28533 0.16123 0.41891 0.0
C461 C 0.23859 0.15373 0.49523 0.0
C462 C 0.30575 0.15917 0.47862 0.0
C463 C 0.2926 0.15499 0.5469 0.0
H464 H 0.15548 0.97798 0.59318 0.0
H465 H 0.15252 0.94647 0.79822 0.0
H466 H 0.15967 0.97973 0.86078 0.0
H467 H 0.15751 0.01796 0.85583 0.0
H468 H 0.16113 0.04943 0.65064 0.0
H469 H 0.16351 0.01586 0.58836 0.0
C470 C 0.15741 0.97845 0.65151 0.0
C471 C 0.15334 0.96013 0.69164 0.0
C472 C 0.16124 0.99751 0.68649 0.0
C473 C 0.15588 0.96054 0.76685 0.0
C474 C 0.15962 0.97951 0.80236 0.0
C475 C 0.15963 0.01736 0.79755 0.0
C476 C 0.15879 0.03585 0.75732 0.0
C477 C 0.16094 0.99813 0.76267 0.0
C478 C 0.16185 0.03523 0.68216 0.0
C479 C 0.16296 0.0161 0.64677 0.0
H480 H 0.2145 0.81308 0.1153 0.0
H481 H 0.27525 0.86621 0.07274 0.0
H482 H 0.2344 0.88052 0.99169 0.0
H483 H 0.188 0.8739 0.91432 0.0
H484 H 0.13195 0.81835 0.94258 0.0
H485 H 0.1623 0.8098 0.0516 0.0
C486 C 0.21862 0.82791 0.0889 0.0
C487 C 0.24824 0.83831 0.0983 0.0
C488 C 0.19542 0.83573 0.0407 0.0
C489 C 0.25302 0.85767 0.06485 0.0
C490 C 0.22953 0.86595 0.01907 0.0
C491 C 0.18125 0.86053 0.94684 0.0
C492 C 0.15952 0.84596 0.91787 0.0
C493 C 0.20133 0.85465 0.00422 0.0
C494 C 0.14988 0.82923 0.96151 0.0
C495 C 0.16785 0.82408 0.02301 0.0
H496 H 0.33519 0.02491 0.09826 0.0
H497 H 0.32902 0.0606 0.29406 0.0
H498 H 0.32737 0.02844 0.36513 0.0
H499 H 0.33589 0.99036 0.37146 0.0
H500 H 0.33929 0.95465 0.17532 0.0
H501 H 0.33354 0.98656 0.10402 0.0
C502 C 0.33231 0.02558 0.15635 0.0
C503 C 0.33213 0.04502 0.19104 0.0
C504 C 0.33141 0.00704 0.1966 0.0
C505 C 0.32866 0.0458 0.26623 0.0
C506 C 0.32818 0.02741 0.30686 0.0
C507 C 0.33453 0.9896 0.31313 0.0
C508 C 0.33814 0.9703 0.27841 0.0
C509 C 0.33076 0.00798 0.27271 0.0
C510 C 0.33629 0.96935 0.20299 0.0
C511 C 0.33323 0.9876 0.16231 0.0
H512 H 0.79299 0.86699 0.38057 0.0
H513 H 0.85503 0.81522 0.42978 0.0
H514 H 0.83147 0.81278 0.55063 0.0
H515 H 0.7839 0.81947 0.62721 0.0
H516 H 0.71648 0.86768 0.5673 0.0
H517 H 0.75085 0.87732 0.46537 0.0
C518 C 0.80252 0.85592 0.4194 0.0
C519 C 0.8255 0.84122 0.39646 0.0
C520 C 0.78658 0.85335 0.48549 0.0
C521 C 0.83762 0.82682 0.44645 0.0
C522 C 0.82344 0.82509 0.51487 0.0
C523 C 0.77705 0.83235 0.5926 0.0
C524 C 0.74737 0.84261 0.60378 0.0
C525 C 0.79635 0.83727 0.53261 0.0
C526 C 0.73889 0.85934 0.55897 0.0
C527 C 0.75862 0.8649 0.50092 0.0
H528 H 0.848 0.02798 0.34832 0.0
H529 H 0.85483 0.06271 0.15 0.0
H530 H 0.84947 0.03051 0.08058 0.0
H531 H 0.85134 0.99217 0.07801 0.0
H532 H 0.8424 0.95752 0.27607 0.0
H533 H 0.83934 0.99002 0.34446 0.0
C534 C 0.84746 0.02846 0.28986 0.0
C535 C 0.85205 0.04749 0.25394 0.0
C536 C 0.84415 0.00995 0.25065 0.0
C537 C 0.85115 0.04816 0.17843 0.0
C538 C 0.84834 0.02976 0.1389 0.0
C539 C 0.84769 0.99183 0.13594 0.0
C540 C 0.84724 0.97266 0.17233 0.0
C541 C 0.84599 0.01053 0.17457 0.0
C542 C 0.84248 0.97218 0.24716 0.0
C543 C 0.84111 0.99074 0.28622 0.0
H544 H 0.75434 0.15929 0.84793 0.0
H545 H 0.66299 0.16395 0.95842 0.0
H546 H 0.689 0.15247 0.07059 0.0
H547 H 0.73894 0.15266 0.14053 0.0
H548 H 0.8304 0.1604 0.03289 0.0
H549 H 0.80402 0.15447 0.91644 0.0
C550 C 0.73991 0.15732 0.89634 0.0
C551 C 0.70698 0.16314 0.89588 0.0
C552 C 0.75567 0.15317 0.96139 0.0
C553 C 0.68834 0.15981 0.95774 0.0
C554 C 0.70339 0.15352 0.0219 0.0
C555 C 0.75328 0.15236 0.09152 0.0
C556 C 0.78639 0.15764 0.09467 0.0
C557 C 0.73731 0.15188 0.02515 0.0
C558 C 0.80495 0.15656 0.03175 0.0
C559 C 0.78965 0.15361 0.9652 0.0
H560 H 0.63713 0.98686 0.89437 0.0
H561 H 0.65759 0.95472 0.69578 0.0
H562 H 0.66044 0.98801 0.63162 0.0
H563 H 0.64842 0.02558 0.62959 0.0
H564 H 0.62914 0.05781 0.82833 0.0
H565 H 0.63469 0.02513 0.89574 0.0
C566 C 0.64304 0.98725 0.83738 0.0
C567 C 0.64682 0.96851 0.79939 0.0
C568 C 0.64443 0.00637 0.80113 0.0
C569 C 0.65472 0.96902 0.72591 0.0
C570 C 0.65604 0.98801 0.68922 0.0
C571 C 0.64636 0.02543 0.68791 0.0
C572 C 0.63832 0.0438 0.72445 0.0
C573 C 0.64967 0.00667 0.72582 0.0
C574 C 0.63563 0.04373 0.79971 0.0
C575 C 0.63854 0.02507 0.83794 0.0
H576 H 0.77209 0.64634 0.86899 0.0
H577 H 0.84818 0.68606 0.94544 0.0
H578 H 0.82782 0.68265 0.06899 0.0
H579 H 0.77996 0.67673 0.14548 0.0
H580 H 0.70003 0.6411 0.06244 0.0
H581 H 0.73 0.63446 0.95149 0.0
C582 C 0.78515 0.65332 0.91351 0.0
C583 C 0.81131 0.66657 0.89858 0.0
C584 C 0.77165 0.65271 0.9827 0.0
C585 C 0.82814 0.67566 0.95592 0.0
C586 C 0.81597 0.6741 0.02627 0.0
C587 C 0.76948 0.66703 0.10387 0.0
C588 C 0.73753 0.65983 0.11123 0.0
C589 C 0.78637 0.66401 0.039 0.0
C590 C 0.72435 0.6471 0.05743 0.0
C591 C 0.7415 0.64331 0.99398 0.0
H592 H 0.66872 0.52214 0.38235 0.0
H593 H 0.65986 0.55887 0.18902 0.0
H594 H 0.66231 0.52722 0.11561 0.0
H595 H 0.65682 0.48901 0.10957 0.0
H596 H 0.66595 0.4524 0.30349 0.0
H597 H 0.67391 0.48411 0.37413 0.0
C598 C 0.66873 0.5232 0.32394 0.0
C599 C 0.66423 0.54263 0.29073 0.0
C600 C 0.66945 0.50497 0.28269 0.0
C601 C 0.66387 0.54403 0.21533 0.0
C602 C 0.66472 0.52592 0.1736 0.0
C603 C 0.66126 0.48802 0.1671 0.0
C604 C 0.66032 0.46854 0.20178 0.0
C605 C 0.66591 0.50629 0.20707 0.0
C606 C 0.66652 0.46727 0.27594 0.0
C607 C 0.67092 0.48539 0.31626 0.0
H608 H 0.72017 0.36396 0.35951 0.0
H609 H 0.64507 0.32588 0.45017 0.0
H610 H 0.67065 0.32789 0.56861 0.0
H611 H 0.72173 0.33166 0.63444 0.0
H612 H 0.8008 0.36521 0.53739 0.0
H613 H 0.76687 0.37365 0.43337 0.0
C614 C 0.70841 0.35722 0.40637 0.0
C615 C 0.68099 0.34462 0.39614 0.0
C616 C 0.72514 0.35666 0.47222 0.0
C617 C 0.66602 0.33579 0.45673 0.0
C618 C 0.68125 0.33642 0.52406 0.0
C619 C 0.73137 0.34121 0.59124 0.0
C620 C 0.76403 0.34737 0.5927 0.0
C621 C 0.71206 0.34535 0.53066 0.0
C622 C 0.77595 0.36001 0.53699 0.0
C623 C 0.75651 0.36484 0.47754 0.0
H624 H 0.86774 0.44996 0.7044 0.0
H625 H 0.82192 0.4705 0.89994 0.0
H626 H 0.81177 0.50474 0.84642 0.0
H627 H 0.82447 0.53039 0.75166 0.0
H628 H 0.87513 0.51036 0.5608 0.0
H629 H 0.87479 0.47453 0.60404 0.0
C630 C 0.8545 0.46175 0.73398 0.0
C631 C 0.84511 0.45782 0.80525 0.0
C632 C 0.85032 0.48167 0.70414 0.0
C633 C 0.8288 0.47325 0.84436 0.0
C634 C 0.82336 0.49286 0.81409 0.0
C635 C 0.8347 0.51808 0.71891 0.0
C636 C 0.8501 0.52301 0.65363 0.0
C637 C 0.83528 0.49753 0.74516 0.0
C638 C 0.86344 0.50695 0.61174 0.0
C639 C 0.86327 0.48644 0.63637 0.0
H640 H 0.25661 0.36053 0.90767 0.0
H641 H 0.34319 0.33187 0.99059 0.0
H642 H 0.31781 0.32854 0.10903 0.0
H643 H 0.26811 0.32583 0.17646 0.0
H644 H 0.17809 0.34808 0.08732 0.0
H645 H 0.20771 0.36192 0.98262 0.0
C646 C 0.27028 0.35421 0.95255 0.0
C647 C 0.30143 0.34597 0.94037 0.0
C648 C 0.25444 0.35051 0.01795 0.0
C649 C 0.31926 0.33826 -0.00134 0.0
C650 C 0.30444 0.33597 0.06586 0.0
C651 C 0.25462 0.33377 0.13454 0.0
C652 C 0.22057 0.33526 0.13833 0.0
C653 C 0.27146 0.34067 0.07407 0.0
C654 C 0.20407 0.34638 0.08488 0.0
C655 C 0.22105 0.35424 0.02527 0.0
H656 H 0.35089 0.49448 0.61024 0.0
H657 H 0.34179 0.45602 0.79964 0.0
H658 H 0.3355 0.4871 0.87469 0.0
H659 H 0.34153 0.52514 0.88738 0.0
H660 H 0.34902 0.56352 0.69738 0.0
H661 H 0.34639 0.53258 0.62099 0.0
C662 C 0.3466 0.49296 0.66772 0.0
C663 C 0.34698 0.47313 0.69975 0.0
C664 C 0.34295 0.51086 0.71017 0.0
C665 C 0.34133 0.47117 0.77401 0.0
C666 C 0.33804 0.48894 0.81687 0.0
C667 C 0.34143 0.52671 0.82913 0.0
C668 C 0.34547 0.54648 0.79781 0.0
C669 C 0.34002 0.50885 0.78578 0.0
C670 C 0.34548 0.54846 0.72249 0.0
C671 C 0.34439 0.53075 0.67891 0.0
H672 H 0.1943 0.64969 0.46425 0.0
H673 H 0.26848 0.64836 0.30196 0.0
H674 H 0.30957 0.64337 0.39378 0.0
H675 H 0.32262 0.65375 0.52114 0.0
H676 H 0.24908 0.64484 0.68221 0.0
H677 H 0.20908 0.63841 0.58936 0.0
C678 C 0.21902 0.64661 0.44813 0.0
C679 C 0.2288 0.65117 0.37745 0.0
C680 C 0.24261 0.64259 0.50112 0.0
C681 C 0.26063 0.64592 0.35709 0.0
C682 C 0.28441 0.64346 0.40979 0.0
C683 C 0.29855 0.64879 0.53644 0.0
C684 C 0.28816 0.65134 0.6079 0.0
C685 C 0.27572 0.64392 0.48263 0.0
C686 C 0.25725 0.64388 0.62685 0.0
C687 C 0.23407 0.6405 0.57365 0.0
H688 H 0.13794 0.49354 0.41967 0.0
H689 H 0.17497 0.46039 0.23539 0.0
H690 H 0.17737 0.49289 0.1667 0.0
H691 H 0.16122 0.52967 0.15405 0.0
H692 H 0.12498 0.56297 0.33829 0.0
H693 H 0.13012 0.53152 0.41267 0.0
C694 C 0.14724 0.49354 0.36499 0.0
C695 C 0.15597 0.47461 0.33229 0.0
C696 C 0.14839 0.51226 0.32587 0.0
C697 C 0.16819 0.47477 0.26171 0.0
C698 C 0.16932 0.49333 0.22228 0.0
C699 C 0.15548 0.53012 0.21111 0.0
C700 C 0.143 0.54846 0.24123 0.0
C701 C 0.15842 0.512 0.25304 0.0
C702 C 0.13516 0.54902 0.3147 0.0
C703 C 0.13779 0.53101 0.35683 0.0
H704 H 0.16519 0.14572 0.93234 0.0
H705 H 0.21956 0.08891 0.95771 0.0
H706 H 0.25871 0.10675 0.03341 0.0
H707 H 0.27413 0.13725 0.102 0.0
H708 H 0.21838 0.19359 0.08662 0.0
H709 H 0.18263 0.17682 -0.00197 0.0
C710 C 0.18587 0.13741 0.9538 0.0
C711 C 0.1894 0.11608 0.94045 0.0
C712 C 0.20775 0.14757 -0.00049 0.0
C713 C 0.21619 0.10534 0.96831 0.0
C714 C 0.23858 0.11549 0.0115 0.0
C715 C 0.25434 0.14606 0.07878 0.0
C716 C 0.24853 0.1666 0.10085 0.0
C717 C 0.23401 0.13642 0.02912 0.0
C718 C 0.22317 0.17782 0.06977 0.0
C719 C 0.20292 0.16834 0.01931 0.0
H720 H 0.26792 0.86826 0.35257 0.0
H721 H 0.22187 0.80844 0.37028 0.0
H722 H 0.17849 0.82379 0.44304 0.0
H723 H 0.15348 0.85461 0.50051 0.0
H724 H 0.19819 0.91466 0.47007 0.0
H725 H 0.24234 0.8988 0.40411 0.0
C726 C 0.24856 0.85855 0.37315 0.0
C727 C 0.24807 0.8373 0.35736 0.0
C728 C 0.22346 0.86752 0.41265 0.0
C729 C 0.22268 0.82486 0.38288 0.0
C730 C 0.19801 0.83359 0.42443 0.0
C731 C 0.1729 0.86412 0.47921 0.0
C732 C 0.17246 0.88573 0.48956 0.0
C733 C 0.19806 0.85496 0.43945 0.0
C734 C 0.1977 0.89798 0.4618 0.0
C735 C 0.22309 0.88896 0.4243 0.0
H736 H 0.2997 0.91026 0.52125 0.0
H737 H 0.34656 0.85724 0.42496 0.0
H738 H 0.31032 0.83377 0.49143 0.0
H739 H 0.26409 0.8287 0.57657 0.0
H740 H 0.21661 0.88308 0.66304 0.0
H741 H 0.25435 0.90556 0.60094 0.0
C742 C 0.3023 0.89356 0.5151 0.0
C743 C 0.32596 0.88551 0.46891 0.0
C744 C 0.28119 0.88037 0.55195 0.0
C745 C 0.32857 0.86383 0.46066 0.0
C746 C 0.30789 0.85042 0.49869 0.0
C747 C 0.26227 0.84545 0.58183 0.0
C748 C 0.23769 0.85419 0.62462 0.0
C749 C 0.28392 0.85855 0.54442 0.0
C750 C 0.23522 0.87593 0.63033 0.0
C751 C 0.2569 0.88886 0.59511 0.0
H752 H 0.29355 0.16885 0.79697 0.0
H753 H 0.27506 0.21163 0.97008 0.0
H754 H 0.30987 0.1912 0.04907 0.0
H755 H 0.33644 0.15711 0.07621 0.0
H756 H 0.34668 0.11249 0.90411 0.0
H757 H 0.32392 0.13721 0.81887 0.0
C758 C 0.29851 0.1742 0.85136 0.0
C759 C 0.28216 0.19177 0.87767 0.0
C760 C 0.31609 0.16138 0.89806 0.0
C761 C 0.28806 0.19845 0.94815 0.0
C762 C 0.30746 0.18641 0.99394 0.0
C763 C 0.33414 0.153 0.01984 0.0
C764 C 0.34286 0.13286 -0.00317 0.0
C765 C 0.32003 0.1672 0.97087 0.0
C766 C 0.33969 0.12772 0.9236 0.0
C767 C 0.32687 0.14191 0.87457 0.0
H768 H 0.80812 0.91141 0.95999 0.0
H769 H 0.86627 0.85921 0.02711 0.0
H770 H 0.82937 0.83545 0.9652 0.0
H771 H 0.77938 0.82943 0.89556 0.0
H772 H 0.71948 0.88185 0.83873 0.0
H773 H 0.75802 0.90559 0.89415 0.0
C774 C 0.81285 0.8948 0.96063 0.0
C775 C 0.84 0.88702 -0.00304 0.0
C776 C 0.79098 0.88126 0.92778 0.0
C777 C 0.84551 0.8655 -0.00094 0.0
C778 C 0.82437 0.85192 0.96413 0.0
C779 C 0.77489 0.84606 0.89566 0.0
C780 C 0.74679 0.85398 0.86351 0.0
C781 C 0.79685 0.8596 0.92896 0.0
C782 C 0.74093 0.87547 0.86382 0.0
C783 C 0.76302 0.88904 0.895 0.0
H784 H 0.78337 0.18826 0.56619 0.0
H785 H 0.7396 0.13328 0.65927 0.0
H786 H 0.77443 0.11125 0.58963 0.0
H787 H 0.8156 0.10682 0.50077 0.0
H788 H 0.86271 0.15991 0.4055 0.0
H789 H 0.82873 0.18332 0.4788 0.0
C790 C 0.78179 0.17149 0.57144 0.0
C791 C 0.75871 0.16258 0.61779 0.0
C792 C 0.80235 0.15847 0.53078 0.0
C793 C 0.75691 0.14076 0.62395 0.0
C794 C 0.7769 0.12798 0.58413 0.0
C795 C 0.81864 0.12352 0.49562 0.0
C796 C 0.84136 0.13164 0.44736 0.0
C797 C 0.79937 0.13662 0.53702 0.0
C798 C 0.84491 0.15332 0.44167 0.0
C799 C 0.82558 0.16666 0.48341 0.0
H800 H 0.64268 0.14979 0.52702 0.0
H801 H 0.69252 0.09106 0.50642 0.0
H802 H 0.73693 0.10805 0.44461 0.0
H803 H 0.76036 0.13869 0.39181 0.0
H804 H 0.71021 0.19741 0.39923 0.0
H805 H 0.66669 0.18112 0.47012 0.0
C806 C 0.66332 0.14082 0.50887 0.0
C807 C 0.66424 0.11922 0.52043 0.0
C808 C 0.68863 0.15062 0.47144 0.0
C809 C 0.69105 0.10767 0.49703 0.0
C810 C 0.71653 0.11735 0.46201 0.0
C811 C 0.74015 0.14813 0.40952 0.0
C812 C 0.73844 0.16924 0.39069 0.0
C813 C 0.71537 0.13872 0.44835 0.0
C814 C 0.71215 0.18118 0.41419 0.0
C815 C 0.68738 0.17191 0.45454 0.0
H816 H 0.6907 0.90579 0.00398 0.0
H817 H 0.63821 0.8524 0.92738 0.0
H818 H 0.67719 0.82924 0.98742 0.0
H819 H 0.72716 0.8245 0.06072 0.0
H820 H 0.77964 0.87924 0.12785 0.0
H821 H 0.73976 0.90142 0.07191 0.0
C822 C 0.68752 0.88907 0.00075 0.0
C823 C 0.66153 0.88079 0.96201 0.0
C824 C 0.71018 0.87605 0.03343 0.0
C825 C 0.65811 0.85911 0.95711 0.0
C826 C 0.68037 0.8459 0.99132 0.0
C827 C 0.72976 0.84127 0.06284 0.0
C828 C 0.75628 0.85013 0.09881 0.0
C829 C 0.7067 0.85421 0.02933 0.0
C830 C 0.75951 0.8719 0.10074 0.0
C831 C 0.7366 0.88471 0.06904 0.0
H832 H 0.65079 0.64764 0.46412 0.0
H833 H 0.67912 0.59141 0.57559 0.0
H834 H 0.71845 0.6107 0.64512 0.0
H835 H 0.74757 0.64251 0.6683 0.0
H836 H 0.72083 0.69945 0.56064 0.0
H837 H 0.67813 0.68083 0.49514 0.0
C838 C 0.66515 0.63974 0.50462 0.0
C839 C 0.66217 0.61808 0.51414 0.0
C840 C 0.68812 0.65096 0.54463 0.0
C841 C 0.68095 0.60803 0.56681 0.0
C842 C 0.70359 0.61902 0.60656 0.0
C843 C 0.73226 0.65094 0.63081 0.0
C844 C 0.73742 0.6722 0.61846 0.0
C845 C 0.70785 0.64032 0.59469 0.0
C846 C 0.71717 0.68302 0.5708 0.0
C847 C 0.69276 0.67241 0.53368 0.0
H848 H 0.71416 0.40747 0.0069 0.0
H849 H 0.64345 0.35846 0.01975 0.0
H850 H 0.67841 0.33587 0.94716 0.0
H851 H 0.7284 0.33058 0.87661 0.0
H852 H 0.79932 0.37966 0.86882 0.0
H853 H 0.76543 0.40143 0.94513 0.0
C854 C 0.70657 0.39173 0.99439 0.0
C855 C 0.67623 0.38466 0.01734 0.0
C856 C 0.72696 0.37877 0.95447 0.0
C857 C 0.66678 0.36418 0.0023 0.0
C858 C 0.68675 0.35127 0.9611 0.0
C859 C 0.73629 0.34605 0.89176 0.0
C860 C 0.76598 0.35367 0.8665 0.0
C861 C 0.71671 0.35849 0.93609 0.0
C862 C 0.77641 0.37354 0.8874 0.0
C863 C 0.75706 0.38601 0.93093 0.0
H864 H 0.77479 0.35322 0.21022 0.0
H865 H 0.76529 0.3057 0.04856 0.0
H866 H 0.80594 0.3235 0.97372 0.0
H867 H 0.84094 0.35388 0.95104 0.0
H868 H 0.8444 0.40295 0.10929 0.0
H869 H 0.81017 0.38278 0.18996 0.0
C870 C 0.7826 0.34632 0.15973 0.0
C871 C 0.76788 0.328 0.1354 0.0
C872 C 0.80498 0.35682 0.1167 0.0
C873 C 0.77732 0.31938 0.06933 0.0
C874 C 0.80029 0.32961 0.02646 0.0
C875 C 0.83456 0.35994 0.00367 0.0
C876 C 0.84505 0.37987 0.0242 0.0
C877 C 0.81384 0.34853 0.04902 0.0
C878 C 0.83643 0.3877 0.09215 0.0
C879 C 0.81691 0.37617 0.13837 0.0
H880 H 0.76139 0.67348 0.42285 0.0
H881 H 0.70262 0.6216 0.35695 0.0
H882 H 0.73691 0.59778 0.42595 0.0
H883 H 0.78584 0.59163 0.49748 0.0
H884 H 0.84263 0.64361 0.57064 0.0
H885 H 0.80663 0.66771 0.5068 0.0
C886 C 0.75613 0.65695 0.4241 0.0
C887 C 0.72996 0.64912 0.38463 0.0
C888 C 0.77558 0.6435 0.46472 0.0
C889 C 0.72279 0.62783 0.38708 0.0
C890 C 0.74241 0.61426 0.42621 0.0
C891 C 0.79016 0.60826 0.49967 0.0
C892 C 0.81704 0.61592 0.53715 0.0
C893 C 0.76919 0.6219 0.46404 0.0
C894 C 0.82214 0.63745 0.54145 0.0
C895 C 0.80171 0.65117 0.50479 0.0
H896 H 0.35102 0.36338 0.55497 0.0
H897 H 0.32091 0.41779 0.43523 0.0
H898 H 0.27955 0.39769 0.37514 0.0
H899 H 0.24996 0.36586 0.36151 0.0
H900 H 0.27827 0.31038 0.47589 0.0
H901 H 0.3228 0.33005 0.53241 0.0
C902 C 0.33575 0.37071 0.51484 0.0
C903 C 0.33901 0.39214 0.50015 0.0
C904 C 0.31178 0.35897 0.4795 0.0
C905 C 0.319 0.40139 0.44798 0.0
C906 C 0.2952 0.38993 0.41354 0.0
C907 C 0.26582 0.35778 0.3987 0.0
C908 C 0.26058 0.33668 0.41545 0.0
C909 C 0.29104 0.36887 0.42999 0.0
C910 C 0.28189 0.32657 0.46243 0.0
C911 C 0.30729 0.33772 0.49433 0.0
H912 H 0.38175 0.64432 0.04993 0.0
H913 H 0.30765 0.62338 0.90419 0.0
H914 H 0.26912 0.64745 0.95814 0.0
H915 H 0.25521 0.67198 0.05206 0.0
H916 H 0.32657 0.69166 0.20568 0.0
H917 H 0.36814 0.67155 0.14122 0.0
C918 C 0.3573 0.64546 0.02948 0.0
C919 C 0.34725 0.63229 0.97344 0.0
C920 C 0.33509 0.6593 0.06128 0.0
C921 C 0.31564 0.63353 0.94722 0.0
C922 C 0.29369 0.64729 0.97778 0.0
C923 C 0.28015 0.6724 0.06987 0.0
C924 C 0.28817 0.68354 0.13217 0.0
C925 C 0.30299 0.65993 0.03541 0.0
C926 C 0.32021 0.68364 0.15643 0.0
C927 C 0.34372 0.6718 0.12042 0.0
H928 H 0.22915 0.64318 0.80643 0.0
H929 H 0.22308 0.69914 0.93299 0.0
H930 H 0.18455 0.68177 0.01459 0.0
H931 H 0.15529 0.65015 0.05348 0.0
H932 H 0.16531 0.59412 0.92725 0.0
H933 H 0.19944 0.61238 0.84139 0.0
C934 C 0.21886 0.65182 0.85105 0.0
C935 C 0.22873 0.67236 0.86386 0.0
C936 C 0.19751 0.64181 0.89778 0.0
C937 C 0.21533 0.68341 0.92162 0.0
C938 C 0.19353 0.6735 0.96834 0.0
C939 C 0.16476 0.64204 0.00682 0.0
C940 C 0.1579 0.62079 -0.00307 0.0
C941 C 0.18488 0.6526 0.95769 0.0
C942 C 0.17042 0.61042 0.93646 0.0
C943 C 0.18985 0.62085 0.88711 0.0
H944 H 0.22862 0.32518 0.59262 0.0
H945 H 0.28883 0.37684 0.65573 0.0
H946 H 0.25329 0.40094 0.59401 0.0
H947 H 0.20408 0.40785 0.52623 0.0
H948 H 0.14561 0.35685 0.45181 0.0
H949 H 0.18223 0.3321 0.51227 0.0
C950 C 0.23391 0.3417 0.5926 0.0
C951 C 0.26123 0.34911 0.62935 0.0
C952 C 0.21358 0.35569 0.55539 0.0
C953 C 0.26797 0.37058 0.6281 0.0
C954 C 0.2476 0.38449 0.59292 0.0
C955 C 0.19907 0.39131 0.52369 0.0
C956 C 0.17179 0.3842 0.4863 0.0
C957 C 0.22013 0.37725 0.55726 0.0
C958 C 0.16622 0.3627 0.48134 0.0
C959 C 0.18685 0.34859 0.51621 0.0
H960 H 0.39293 0.21694 0.04807 0.0
H961 H 0.30424 0.23037 0.15998 0.0
H962 H 0.28893 0.25537 0.06741 0.0
H963 H 0.30076 0.27404 0.95437 0.0
H964 H 0.39014 0.26174 0.8434 0.0
H965 H 0.40485 0.23581 0.9341 0.0
C966 C 0.37061 0.22565 0.05254 0.0
C967 C 0.35004 0.22206 0.1115 0.0
C968 C 0.36173 0.24007 -0.00168 0.0
C969 C 0.32073 0.23307 0.11572 0.0
C970 C 0.31179 0.2473 0.06242 0.0
C971 C 0.32315 0.26541 0.94947 0.0
C972 C 0.34411 0.26969 0.89179 0.0
C973 C 0.33198 0.2509 0.00317 0.0
C974 C 0.37345 0.25868 0.88714 0.0
C975 C 0.38202 0.24391 0.93928 0.0
H976 H 0.96551 0.90965 0.26145 0.0
H977 H 0.90358 0.95122 0.38008 0.0
H978 H 0.93698 0.9467 0.48766 0.0
H979 H 0.98857 0.93647 0.53889 0.0
H980 H 0.05449 0.89838 0.41634 0.0
H981 H 0.01456 0.8956 0.31945 0.0
C982 C 0.95883 0.91708 0.31178 0.0
C983 C 0.9323 0.9307 0.31366 0.0
C984 C 0.97924 0.91538 0.37182 0.0
C985 C 0.92395 0.94065 0.37815 0.0
C986 C 0.94315 0.93819 0.4392 0.0
C987 C 0.99413 0.92733 0.49136 0.0
C988 C 0.02475 0.91813 0.48376 0.0
C989 C 0.9717 0.9265 0.43529 0.0
C990 C 0.03122 0.90582 0.42298 0.0
C991 C 0.00846 0.90432 0.36751 0.0
H992 H 0.11603 0.73379 0.40915 0.0
H993 H 0.21633 0.74962 0.37624 0.0
H994 H 0.2103 0.77943 0.45626 0.0
H995 H 0.17844 0.79874 0.54306 0.0
H996 H 0.07885 0.78234 0.58215 0.0
H997 H 0.08249 0.75533 0.4895 0.0
C998 C 0.13655 0.74385 0.41888 0.0
C999 C 0.16678 0.73925 0.38744 0.0
C1000 C 0.13295 0.76094 0.46523 0.0
C1001 C 0.19289 0.75267 0.39991 0.0
C1002 C 0.18943 0.76976 0.44553 0.0
C1003 C 0.15717 0.7896 0.53069 0.0
C1004 C 0.12842 0.79251 0.57029 0.0
C1005 C 0.15979 0.77375 0.4795 0.0
C1006 C 0.10126 0.78048 0.55276 0.0
C1007 C 0.10345 0.76491 0.50023 0.0
H1008 H 0.57091 0.07816 0.9037 0.0
H1009 H 0.51615 0.11421 0.75101 0.0
H1010 H 0.47438 0.12054 0.84187 0.0
H1011 H 0.4482 0.10817 0.95405 0.0
H1012 H 0.50324 0.07091 0.1037 0.0
H1013 H 0.55048 0.07324 0.02612 0.0
C1014 C 0.55047 0.08816 0.89166 0.0
C1015 C 0.54613 0.09551 0.82135 0.0
C1016 C 0.52631 0.09115 0.94327 0.0
C1017 C 0.51981 0.10848 0.80537 0.0
C1018 C 0.49575 0.11185 0.85698 0.0
C1019 C 0.47086 0.10117 0.97055 0.0
C1020 C 0.47206 0.08876 0.03287 0.0
C1021 C 0.49783 0.10211 0.92461 0.0
C1022 C 0.50159 0.07999 0.05454 0.0
C1023 C 0.52862 0.08131 0.01033 0.0
H1024 H 0.38396 0.74195 0.58938 0.0
H1025 H 0.28121 0.74392 0.62817 0.0
H1026 H 0.27548 0.77155 0.5386 0.0
H1027 H 0.29835 0.79082 0.43668 0.0
H1028 H 0.40069 0.78892 0.39584 0.0
H1029 H 0.40816 0.76571 0.49997 0.0
C1030 C 0.36038 0.74867 0.57906 0.0
C1031 C 0.33291 0.74058 0.61411 0.0
C1032 C 0.35723 0.76436 0.52691 0.0
C1033 C 0.30266 0.74974 0.60149 0.0
C1034 C 0.29934 0.76545 0.55002 0.0
C1035 C 0.32236 0.78558 0.4516 0.0
C1036 C 0.34892 0.79106 0.40852 0.0
C1037 C 0.32624 0.77221 0.51047 0.0
C1038 C 0.38 0.78471 0.42849 0.0
C1039 C 0.38416 0.77137 0.48751 0.0
H1040 H 0.50087 0.94416 0.44355 0.0
H1041 H 0.43346 0.90385 0.55279 0.0
H1042 H 0.47328 0.89739 0.64798 0.0
H1043 H 0.52358 0.90823 0.70958 0.0
H1044 H 0.58833 0.95069 0.60265 0.0
H1045 H 0.55372 0.9509 0.49606 0.0
C1046 C 0.49499 0.93374 0.48774 0.0
C1047 C 0.46401 0.9249 0.49216 0.0
C1048 C 0.51766 0.93047 0.54254 0.0
C1049 C 0.45705 0.91101 0.54862 0.0
C1050 C 0.47977 0.90738 0.60313 0.0
C1051 C 0.5306 0.91684 0.6617 0.0
C1052 C 0.5584 0.92935 0.66324 0.0
C1053 C 0.50969 0.91768 0.60204 0.0
C1054 C 0.56709 0.94086 0.60196 0.0
C1055 C 0.54715 0.94115 0.54149 0.0
H1056 H 0.19782 0.21606 0.99157 0.0
H1057 H 0.09457 0.21111 0.96636 0.0
H1058 H 0.0869 0.23116 0.07756 0.0
H1059 H 0.11017 0.25417 0.17114 0.0
H1060 H 0.2135 0.25722 0.19725 0.0
H1061 H 0.22056 0.23274 0.09807 0.0
C1062 C 0.17352 0.21884 0.01106 0.0
C1063 C 0.14678 0.21216 0.97012 0.0
C1064 C 0.16941 0.22982 0.07555 0.0
C1065 C 0.11557 0.21605 -0.00349 0.0
C1066 C 0.11122 0.22751 0.06013 0.0
C1067 C 0.13417 0.24882 0.15681 0.0
C1068 C 0.16136 0.25768 0.19083 0.0
C1069 C 0.13801 0.23497 0.09883 0.0
C1070 C 0.19226 0.25057 0.17229 0.0
C1071 C 0.19629 0.23682 0.11473 0.0
H1072 H 0.0029 0.07908 0.92063 0.0
H1073 H 0.08147 0.10018 0.05368 0.0
H1074 H 0.04381 0.10641 0.15356 0.0
H1075 H 0.99033 0.09952 0.20823 0.0
H1076 H 0.91331 0.07594 0.07592 0.0
H1077 H 0.94819 0.07749 0.96949 0.0
C1078 C 0.0116 0.08548 0.97109 0.0
C1079 C 0.0448 0.08884 0.98071 0.0
C1080 C 0.99002 0.08852 0.02812 0.0
C1081 C 0.05594 0.09745 0.04549 0.0
C1082 C 0.03446 0.10085 0.10258 0.0
C1083 C 0.98102 0.09552 0.15539 0.0
C1084 C 0.94946 0.08781 0.14891 0.0
C1085 C 0.00169 0.09559 0.09536 0.0
C1086 C 0.93751 0.08213 0.0812 0.0
C1087 C 0.95752 0.08283 0.02079 0.0
H1088 H 0.70119 0.79098 0.95793 0.0
H1089 H 0.60145 0.78559 0.89566 0.0
H1090 H 0.59316 0.75865 0.98837 0.0
H1091 H 0.61665 0.73403 0.0784 0.0
H1092 H 0.71704 0.74063 0.13702 0.0
H1093 H 0.72264 0.76974 0.05469 0.0
C1094 C 0.67749 0.7841 0.96537 0.0
C1095 C 0.65207 0.78995 0.91985 0.0
C1096 C 0.67317 0.76867 0.01755 0.0
C1097 C 0.62135 0.78127 0.93046 0.0
C1098 C 0.61674 0.76577 0.98292 0.0
C1099 C 0.63961 0.74197 0.07338 0.0
C1100 C 0.66653 0.73488 0.11286 0.0
C1101 C 0.64281 0.75888 0.02535 0.0
C1102 C 0.69604 0.74551 0.10661 0.0
C1103 C 0.69932 0.76223 0.05959 0.0
H1104 H 0.03157 0.1004 0.70497 0.0
H1105 H 0.10348 0.07033 0.57366 0.0
H1106 H 0.06848 0.07327 0.46804 0.0
H1107 H 0.01383 0.07767 0.42093 0.0
H1108 H 0.94015 0.10575 0.55284 0.0
H1109 H 0.97929 0.11054 0.65065 0.0
C1110 C 0.03994 0.09536 0.65238 0.0
C1111 C 0.06994 0.08533 0.64619 0.0
C1112 C 0.01902 0.09622 0.5929 0.0
C1113 C 0.08055 0.07832 0.57877 0.0
C1114 C 0.0604 0.07976 0.51883 0.0
C1115 C 0.0066 0.08523 0.47066 0.0
C1116 C 0.97423 0.09097 0.48078 0.0
C1117 C 0.029 0.08761 0.52639 0.0
C1118 C 0.96502 0.10111 0.54445 0.0
C1119 C 0.98733 0.10374 0.60031 0.0
H1120 H 0.80735 0.27425 0.55832 0.0
H1121 H 0.9093 0.28044 0.59807 0.0
H1122 H 0.92074 0.2531 0.50938 0.0
H1123 H 0.90094 0.22696 0.41932 0.0
H1124 H 0.79837 0.22287 0.38251 0.0
H1125 H 0.78819 0.24969 0.46987 0.0
C1126 C 0.83209 0.26958 0.54786 0.0
C1127 C 0.85733 0.27926 0.58483 0.0
C1128 C 0.83846 0.25413 0.49674 0.0
C1129 C 0.88934 0.2732 0.57005 0.0
C1130 C 0.89592 0.25756 0.51934 0.0
C1131 C 0.8765 0.23203 0.43064 0.0
C1132 C 0.85039 0.22246 0.39535 0.0
C1133 C 0.87059 0.24786 0.48202 0.0
C1134 C 0.81885 0.22936 0.4102 0.0
C1135 C 0.81291 0.24491 0.46004 0.0
H1136 H 0.46211 0.90781 0.21317 0.0
H1137 H 0.39727 0.9472 0.09312 0.0
H1138 H 0.43068 0.94329 0.98535 0.0
H1139 H 0.48344 0.93518 0.93514 0.0
H1140 H 0.55191 0.89925 0.0582 0.0
H1141 H 0.51188 0.89474 0.15455 0.0
C1142 C 0.45485 0.91485 0.1625 0.0
C1143 C 0.42753 0.9278 0.16032 0.0
C1144 C 0.47517 0.91345 0.10205 0.0
C1145 C 0.41831 0.93719 0.09532 0.0
C1146 C 0.43749 0.93506 0.0341 0.0
C1147 C 0.48932 0.92596 0.98244 0.0
C1148 C 0.52065 0.918 0.9908 0.0
C1149 C 0.46682 0.92425 0.03823 0.0
C1150 C 0.52793 0.90566 0.05113 0.0
C1151 C 0.50515 0.90325 0.10636 0.0
H1152 H 0.68674 0.26176 0.36497 0.0
H1153 H 0.58388 0.27159 0.3541 0.0
H1154 H 0.57535 0.24572 0.44862 0.0
H1155 H 0.59766 0.2224 0.543 0.0
H1156 H 0.70089 0.2136 0.5528 0.0
H1157 H 0.70848 0.23687 0.45163 0.0
C1158 C 0.66242 0.25793 0.38212 0.0
C1159 C 0.63612 0.2687 0.35268 0.0
C1160 C 0.65765 0.24334 0.43761 0.0
C1161 C 0.60471 0.26363 0.37619 0.0
C1162 C 0.59974 0.24888 0.43056 0.0
C1163 C 0.62168 0.22541 0.52223 0.0
C1164 C 0.64851 0.21607 0.55534 0.0
C1165 C 0.62611 0.23899 0.46316 0.0
C1166 C 0.67961 0.22032 0.52814 0.0
C1167 C 0.68413 0.23373 0.47011 0.0
H1168 H 0.45708 0.10147 0.27703 0.0
H1169 H 0.38821 0.0662 0.40113 0.0
H1170 H 0.42379 0.06751 0.50622 0.0
H1171 H 0.47784 0.07301 0.5541 0.0
H1172 H 0.54938 0.10526 0.42712 0.0
H1173 H 0.50944 0.11099 0.33157 0.0
C1174 C 0.44946 0.09483 0.32812 0.0
C1175 C 0.42011 0.08394 0.33227 0.0
C1176 C 0.4709 0.09461 0.38673 0.0
C1177 C 0.41061 0.07484 0.39759 0.0
C1178 C 0.43109 0.07539 0.45715 0.0
C1179 C 0.48465 0.0815 0.50582 0.0
C1180 C 0.51668 0.08826 0.49674 0.0
C1181 C 0.46189 0.08428 0.45099 0.0
C1182 C 0.52493 0.09973 0.43493 0.0
C1183 C 0.50213 0.10294 0.38031 0.0
H1184 H 0.82754 0.80186 0.00532 0.0
H1185 H 0.9243 0.78438 0.06695 0.0
H1186 H 0.9262 0.75957 0.96688 0.0
H1187 H 0.89718 0.73969 0.87294 0.0
H1188 H 0.79992 0.7576 0.81572 0.0
H1189 H 0.8019 0.7859 0.90243 0.0
C1190 C 0.84965 0.79328 -0.00424 0.0
C1191 C 0.87577 0.79511 0.04395 0.0
C1192 C 0.85028 0.77887 0.93942 0.0
C1193 C 0.90384 0.7834 0.03083 0.0
C1194 C 0.90482 0.76907 0.9739 0.0
C1195 C 0.87658 0.74998 0.87852 0.0
C1196 C 0.84816 0.74621 0.8386 0.0
C1197 C 0.87767 0.76614 0.92955 0.0
C1198 C 0.82188 0.75986 0.84631 0.0
C1199 C 0.82299 0.77608 0.89595 0.0
H1200 H 0.08597 0.92795 0.88682 0.0
H1201 H 0.02957 0.89137 0.73948 0.0
H1202 H 0.98611 0.88872 0.82857 0.0
H1203 H 0.95968 0.90446 0.93559 0.0
H1204 H 0.01659 0.94248 0.07875 0.0
H1205 H 0.06428 0.93667 0.00521 0.0
C1206 C 0.06477 0.91857 0.8758 0.0
C1207 C 0.06064 0.91008 0.80699 0.0
C1208 C 0.0395 0.91794 0.92586 0.0
C1209 C 0.03323 0.89795 0.79258 0.0
C1210 C 0.00813 0.89677 0.84305 0.0
C1211 C 0.98272 0.91098 0.95151 0.0
C1212 C 0.98436 0.92452 0.01085 0.0
C1213 C 0.01018 0.90791 0.90793 0.0
C1214 C 0.01448 0.93259 0.03176 0.0
C1215 C 0.04184 0.92921 0.98997 0.0
H1216 H 0.88407 0.75262 0.32545 0.0
H1217 H 0.78308 0.7679 0.34634 0.0
H1218 H 0.77623 0.73937 0.43286 0.0
H1219 H 0.80128 0.71502 0.51812 0.0
H1220 H 0.90337 0.70204 0.50434 0.0
H1221 H 0.90736 0.72442 0.39784 0.0
C1222 C 0.86038 0.74944 0.34786 0.0
C1223 C 0.83421 0.76259 0.33082 0.0
C1224 C 0.857 0.73361 0.39932 0.0
C1225 C 0.80356 0.75805 0.35884 0.0
C1226 C 0.79976 0.74187 0.40879 0.0
C1227 C 0.82439 0.71683 0.49125 0.0
C1228 C 0.85227 0.70741 0.52053 0.0
C1229 C 0.82667 0.73031 0.43198 0.0
C1230 C 0.8817 0.70935 0.48369 0.0
C1231 C 0.884 0.72226 0.42308 0.0
H1232 H 0.47457 0.41315 0.76043 0.0
H1233 H 0.40703 0.44572 0.89626 0.0
H1234 H 0.44427 0.44303 -0.00201 0.0
H1235 H 0.49963 0.43822 0.03906 0.0
H1236 H 0.56962 0.4085 0.90145 0.0
H1237 H 0.52792 0.40304 0.80937 0.0
C1238 C 0.46761 0.41883 0.81325 0.0
C1239 C 0.43826 0.42956 0.82158 0.0
C1240 C 0.48996 0.41829 0.87014 0.0
C1241 C 0.4295 0.43731 0.88937 0.0
C1242 C 0.45092 0.43598 0.94706 0.0
C1243 C 0.50561 0.43025 0.98928 0.0
C1244 C 0.53766 0.42428 0.97579 0.0
C1245 C 0.48184 0.42763 0.93666 0.0
C1246 C 0.5451 0.41345 0.91233 0.0
C1247 C 0.5213 0.41041 0.85975 0.0
H1248 H 0.69278 0.2999 0.01227 0.0
H1249 H 0.58865 0.30131 0.02358 0.0
H1250 H 0.58575 0.27801 0.91972 0.0
H1251 H 0.6128 0.25266 0.84121 0.0
H1252 H 0.7168 0.24989 0.83443 0.0
H1253 H 0.71975 0.27879 0.92013 0.0
C1254 C 0.66933 0.29546 0.99137 0.0
C1255 C 0.6409 0.30207 0.0269 0.0
C1256 C 0.6679 0.28171 0.9328 0.0
C1257 C 0.61088 0.29644 -0.00215 0.0
C1258 C 0.60923 0.28298 0.93869 0.0
C1259 C 0.63616 0.25869 0.85723 0.0
C1260 C 0.6646 0.24889 0.83252 0.0
C1261 C 0.63758 0.27481 0.90804 0.0
C1262 C 0.69462 0.2571 0.85268 0.0
C1263 C 0.69626 0.27348 0.90228 0.0
H1264 H 0.93741 0.60365 0.42176 0.0
H1265 H 1.00037 0.58833 0.5987 0.0
H1266 H 0.04762 0.59475 0.5236 0.0
H1267 H 0.06902 0.59375 0.40017 0.0
H1268 H 0.00655 0.60814 0.22178 0.0
H1269 H 0.96123 0.61351 0.30424 0.0
C1270 C 0.96148 0.60282 0.44454 0.0
C1271 C 0.9657 0.59506 0.51459 0.0
C1272 C 0.98861 0.60581 0.40009 0.0
C1273 C 0.99684 0.59401 0.54419 0.0
C1274 C 0.02384 0.59747 0.50113 0.0
C1275 C 0.04588 0.59915 0.38009 0.0
C1276 C 0.04074 0.60036 0.3057 0.0
C1277 C 0.01989 0.60172 0.42768 0.0
C1278 C 0.01081 0.60721 0.27934 0.0
C1279 C 0.98483 0.61002 0.32639 0.0
H1280 H 0.7961 0.28595 0.92555 0.0
H1281 H 0.89948 0.2937 0.9201 0.0
H1282 H 0.90476 0.27066 0.02521 0.0
H1283 H 0.87995 0.24561 0.1095 0.0
H1284 H 0.77634 0.23927 0.117 0.0
H1285 H 0.77096 0.26527 0.02119 0.0
C1286 C 0.81982 0.28274 0.94771 0.0
C1287 C 0.84747 0.29116 0.91458 0.0
C1288 C 0.82248 0.27 0.00863 0.0
C1289 C 0.87793 0.28728 0.9446 0.0
C1290 C 0.88089 0.27414 0.00455 0.0
C1291 C 0.85616 0.25028 0.09116 0.0
C1292 C 0.82853 0.24038 0.11933 0.0
C1293 C 0.85335 0.26506 0.03583 0.0
C1294 C 0.79786 0.24672 0.09615 0.0
C1295 C 0.79485 0.26139 0.04088 0.0
H1296 H 0.01022 0.44591 0.9725 0.0
H1297 H 0.95117 0.40021 0.08075 0.0
H1298 H 0.9916 0.39717 0.17647 0.0
H1299 H 0.03981 0.41143 0.23742 0.0
H1300 H 0.09559 0.45926 0.13236 0.0
H1301 H 0.06078 0.45723 0.02625 0.0
C1302 C 0.00623 0.43514 0.0167 0.0
C1303 C 0.97741 0.42364 0.02034 0.0
C1304 C 0.02914 0.43382 0.07189 0.0
C1305 C 0.97303 0.40938 0.07704 0.0
C1306 C 0.99611 0.40768 0.13184 0.0
C1307 C 0.04487 0.42085 0.19015 0.0
C1308 C 0.07018 0.43539 0.19193 0.0
C1309 C 0.02376 0.42032 0.13094 0.0
C1310 C 0.07627 0.44791 0.13148 0.0
C1311 C 0.05623 0.44687 0.07129 0.0
H1312 H 0.67054 0.74487 0.35979 0.0
H1313 H 0.62222 0.69852 0.48826 0.0
H1314 H 0.61819 0.72328 0.58909 0.0
H1315 H 0.6331 0.75752 0.64287 0.0
H1316 H 0.6807 0.80331 0.51025 0.0
H1317 H 0.68004 0.77949 0.40773 0.0
C1318 C 0.65873 0.74032 0.40968 0.0
C1319 C 0.64705 0.72003 0.41767 0.0
C1320 C 0.65655 0.75451 0.46624 0.0
C1321 C 0.63135 0.71419 0.48155 0.0
C1322 C 0.62927 0.72827 0.53903 0.0
C1323 C 0.64294 0.76218 0.5911 0.0
C1324 C 0.65721 0.78186 0.5833 0.0
C1325 C 0.64249 0.74835 0.53247 0.0
C1326 C 0.66983 0.78808 0.51667 0.0
C1327 C 0.66947 0.77452 0.45838 0.0
H1328 H 0.54486 0.59584 0.55159 0.0
H1329 H 0.49445 0.55312 0.41196 0.0
H1330 H 0.44859 0.55277 0.49328 0.0
H1331 H 0.42651 0.55998 0.61291 0.0
H1332 H 0.4753 0.6031 0.75273 0.0
H1333 H 0.51775 0.60812 0.6625 0.0
C1334 C 0.5236 0.58679 0.53842 0.0
C1335 C 0.5236 0.57396 0.47724 0.0
C1336 C 0.49708 0.58655 0.58579 0.0
C1337 C 0.49558 0.56261 0.46008 0.0
C1338 C 0.46921 0.56242 0.50638 0.0
C1339 C 0.44604 0.57087 0.62251 0.0
C1340 C 0.44815 0.581 0.68893 0.0
C1341 C 0.47029 0.57358 0.57081 0.0
C1342 C 0.47327 0.59522 0.70134 0.0
C1343 C 0.49767 0.59795 0.65014 0.0
H1344 H 0.15295 0.26117 0.68467 0.0
H1345 H 0.14398 0.20922 0.53929 0.0
H1346 H 0.12877 0.23252 0.44149 0.0
H1347 H 0.12152 0.2676 0.39472 0.0
H1348 H 0.13055 0.3202 0.53615 0.0
H1349 H 0.14114 0.29688 0.63847 0.0
C1350 C 0.14791 0.2551 0.63137 0.0
C1351 C 0.14999 0.23357 0.61882 0.0
C1352 C 0.13853 0.26865 0.57512 0.0
C1353 C 0.14273 0.22577 0.54999 0.0
C1354 C 0.13379 0.23904 0.49414 0.0
C1355 C 0.12447 0.27391 0.44856 0.0
C1356 C 0.12533 0.29551 0.45816 0.0
C1357 C 0.13166 0.26047 0.50597 0.0
C1358 C 0.13008 0.30356 0.52767 0.0
C1359 C 0.13642 0.29023 0.5859 0.0
H1360 H 0.58807 0.57029 0.09293 0.0
H1361 H 0.54151 0.60976 0.24884 0.0
H1362 H 0.49622 0.61533 0.1665 0.0
H1363 H 0.46487 0.60213 0.06202 0.0
H1364 H 0.51204 0.56136 0.91017 0.0
H1365 H 0.56192 0.56332 0.97816 0.0
C1366 C 0.56857 0.58077 0.1075 0.0
C1367 C 0.56769 0.58929 0.17679 0.0
C1368 C 0.5422 0.5832 0.06128 0.0
C1369 C 0.54262 0.60302 0.19542 0.0
C1370 C 0.51646 0.60594 0.1488 0.0
C1371 C 0.48632 0.59412 0.04321 0.0
C1372 C 0.48449 0.58098 0.98296 0.0
C1373 C 0.51509 0.59502 0.08346 0.0
C1374 C 0.51257 0.57097 0.95808 0.0
C1375 C 0.54121 0.57216 -0.0034 0.0
H1376 H 0.32596 0.75469 0.11959 0.0
H1377 H 0.39368 0.79607 0.017 0.0
H1378 H 0.40685 0.76907 0.92794 0.0
H1379 H 0.39337 0.73498 0.87097 0.0
H1380 H 0.32355 0.69543 0.97485 0.0
H1381 H 0.31735 0.72027 0.07211 0.0
C1382 C 0.34379 0.75779 0.07803 0.0
C1383 C 0.35831 0.77742 0.07383 0.0
C1384 C 0.35118 0.74232 0.0277 0.0
C1385 C 0.38191 0.78107 0.02076 0.0
C1386 C 0.38945 0.76564 0.96994 0.0
C1387 C 0.37798 0.73141 0.91666 0.0
C1388 C 0.35932 0.71307 0.91644 0.0
C1389 C 0.37362 0.74629 0.97184 0.0
C1390 C 0.3388 0.70901 0.97502 0.0
C1391 C 0.33488 0.72336 0.03015 0.0
H1392 H 0.05126 0.40432 0.58088 0.0
H1393 H 0.99272 0.43331 0.41691 0.0
H1394 H 0.94467 0.4289 0.49085 0.0
H1395 H 0.92272 0.42515 0.61289 0.0
H1396 H 0.98021 0.39631 0.7783 0.0
H1397 H 0.02494 0.3919 0.69336 0.0
C1398 C 0.02777 0.40891 0.56052 0.0
C1399 C 0.02555 0.41971 0.49484 0.0
C1400 C 1.00013 0.40671 0.60422 0.0
C1401 C 0.995 0.42544 0.4684 0.0
C1402 C 0.96751 0.42298 0.51065 0.0
C1403 C 0.94452 0.41703 0.6291 0.0
C1404 C 0.94849 0.41122 0.70128 0.0
C1405 C 0.9702 0.41491 0.58041 0.0
C1406 C 0.97674 0.40078 0.72249 0.0
C1407 C 0.00246 0.39852 0.67419 0.0
H1408 H 0.2068 0.7223 0.05507 0.0
H1409 H 0.10449 0.71137 0.08008 0.0
H1410 H 0.09359 0.7354 0.98052 0.0
H1411 H 0.11281 0.76159 0.89483 0.0
H1412 H 0.21495 0.77362 0.87343 0.0
H1413 H 0.22625 0.74652 0.96293 0.0
C1414 C 0.18202 0.72495 0.0386 0.0
C1415 C 0.15641 0.7151 0.07578 0.0
C1416 C 0.17597 0.73896 0.98217 0.0
C1417 C 0.12462 0.7187 0.05282 0.0
C1418 C 0.11841 0.73249 -0.00401 0.0
C1419 C 0.13766 0.75825 0.90909 0.0
C1420 C 0.16304 0.76988 0.87784 0.0
C1421 C 0.14386 0.74304 0.96157 0.0
C1422 C 0.19499 0.76501 0.89648 0.0
C1423 C 0.20141 0.7496 0.948 0.0
H1424 H 0.97193 0.58672 0.75428 0.0
H1425 H 0.90031 0.55364 0.87768 0.0
H1426 H 0.93277 0.55784 0.98719 0.0
H1427 H 0.98469 0.56635 0.04235 0.0
H1428 H 0.05802 0.59775 0.91784 0.0
H1429 H 0.02165 0.59904 0.81381 0.0
C1430 C 0.9632 0.58099 0.8058 0.0
C1431 C 0.93395 0.57001 0.80901 0.0
C1432 C 0.98251 0.58285 0.86748 0.0
C1433 C 0.92274 0.56226 0.87495 0.0
C1434 C 0.94138 0.56453 0.93707 0.0
C1435 C 0.9926 0.57368 0.99263 0.0
C1436 C 0.02416 0.58155 0.98705 0.0
C1437 C 0.97183 0.57405 0.9332 0.0
C1438 C 0.03388 0.59146 0.92311 0.0
C1439 C 0.01316 0.59211 0.86365 0.0
H1440 H 0.30275 0.28699 0.57644 0.0
H1441 H 0.40331 0.30144 0.54397 0.0
H1442 H 0.40409 0.27929 0.43605 0.0
H1443 H 0.37749 0.25235 0.36205 0.0
H1444 H 0.27634 0.23931 0.39308 0.0
H1445 H 0.27392 0.26535 0.48908 0.0
C1446 C 0.32484 0.28537 0.54548 0.0
C1447 C 0.35323 0.29526 0.56897 0.0
C1448 C 0.32475 0.27319 0.48305 0.0
C1449 C 0.38136 0.29369 0.52731 0.0
C1450 C 0.38172 0.2811 0.4657 0.0
C1451 C 0.3547 0.25571 0.38848 0.0
C1452 C 0.32718 0.2438 0.37155 0.0
C1453 C 0.35375 0.27034 0.44442 0.0
C1454 C 0.29772 0.24834 0.40516 0.0
C1455 C 0.29651 0.26297 0.46076 0.0
H1456 H 0.45627 0.41519 0.42693 0.0
H1457 H 0.51564 0.44726 0.58198 0.0
H1458 H 0.56172 0.4454 0.50101 0.0
H1459 H 0.58194 0.44085 0.37805 0.0
H1460 H 0.52382 0.40892 0.22135 0.0
H1461 H 0.48068 0.4043 0.31059 0.0
C1462 C 0.47953 0.42124 0.4435 0.0
C1463 C 0.48233 0.43191 0.50925 0.0
C1464 C 0.50605 0.42041 0.39592 0.0
C1465 C 0.51269 0.43949 0.5306 0.0
C1466 C 0.53909 0.43844 0.48443 0.0
C1467 C 0.56025 0.43225 0.36454 0.0
C1468 C 0.55579 0.42525 0.29393 0.0
C1469 C 0.5356 0.42991 0.41567 0.0
C1470 C 0.52768 0.41423 0.27607 0.0
C1471 C 0.50293 0.41179 0.32681 0.0
loop_
_geom_bond_atom_site_label_1
_geom_bond_atom_site_label_2
_geom_bond_distance
_geom_bond_site_symmetry_2
_ccdc_geom_bond_type
Co0 O1 2.216 . S
Co0 O2 2.091 . S
Co0 O4 2.004 . S
Co0 O10 2.021 . S
Co0 O12 2.137 . S
Co0 O13 2.244 . S
O1 Co0 2.216 . S
O1 C8 1.247 . S
O2 Co0 2.091 . S
O2 C8 1.261 . S
C3 O12 1.247 . S
C3 O13 1.272 . S
O4 Co0 2.004 . S
O4 C9 1.259 . S
Co5 O6 2.061 . S
Co5 O11 2.052 . S
Co5 O13 2.135 . S
O6 Co5 2.061 . S
O6 C9 1.235 . S
C7 O10 1.238 . S
C7 O11 1.241 . S
C8 O1 1.247 . S
C8 O2 1.261 . S
C9 O4 1.259 . S
C9 O6 1.235 . S
O10 Co0 2.021 . S
O10 C7 1.238 . S
O11 Co5 2.052 . S
O11 C7 1.241 . S
O12 Co0 2.137 . S
O12 C3 1.247 . S
O13 Co0 2.244 . S
O13 C3 1.272 . S
O13 Co5 2.135 . S
Co14 O15 2.216 . S
Co14 O16 2.091 . S
Co14 O18 2.004 . S
Co14 O24 2.021 . S
Co14 O26 2.137 . S
Co14 O27 2.244 . S
O15 Co14 2.216 . S
O15 C22 1.247 . S
O16 Co14 2.091 . S
O16 C22 1.261 . S
C17 O26 1.247 . S
C17 O27 1.272 . S
O18 Co14 2.004 . S
O18 C23 1.259 . S
Co19 O20 2.061 . S
Co19 O25 2.052 . S
Co19 O27 2.135 . S
O20 Co19 2.061 . S
O20 C23 1.235 . S
C21 O24 1.238 . S
C21 O25 1.241 . S
C22 O15 1.247 . S
C22 O16 1.261 . S
C23 O18 1.259 . S
C23 O20 1.235 . S
O24 Co14 2.021 . S
O24 C21 1.238 . S
O25 Co19 2.052 . S
O25 C21 1.241 . S
O26 Co14 2.137 . S
O26 C17 1.247 . S
O27 Co14 2.244 . S
O27 C17 1.272 . S
O27 Co19 2.135 . S
Co28 O29 2.216 . S
Co28 O30 2.091 . S
Co28 O32 2.004 . S
Co28 O38 2.021 . S
Co28 O40 2.137 . S
Co28 O41 2.244 . S
O29 Co28 2.216 . S
O29 C36 1.247 . S
O30 Co28 2.091 . S
O30 C36 1.261 . S
C31 O40 1.247 . S
C31 O41 1.272 . S
O32 Co28 2.004 . S
O32 C37 1.259 . S
Co33 O34 2.061 . S
Co33 O39 2.052 . S
Co33 O41 2.135 . S
O34 Co33 2.061 . S
O34 C37 1.235 . S
C35 O38 1.238 . S
C35 O39 1.241 . S
C36 O29 1.247 . S
C36 O30 1.261 . S
C37 O32 1.259 . S
C37 O34 1.235 . S
O38 Co28 2.021 . S
O38 C35 1.238 . S
O39 Co33 2.052 . S
O39 C35 1.241 . S
O40 Co28 2.137 . S
O40 C31 1.247 . S
O41 Co28 2.244 . S
O41 C31 1.272 . S
O41 Co33 2.135 . S
Co42 O43 2.216 . S
Co42 O44 2.091 . S
Co42 O46 2.004 . S
Co42 O52 2.021 . S
Co42 O54 2.137 . S
Co42 O55 2.244 . S
O43 Co42 2.216 . S
O43 C50 1.247 . S
O44 Co42 2.091 . S
O44 C50 1.261 . S
C45 O54 1.247 . S
C45 O55 1.272 . S
O46 Co42 2.004 . S
O46 C51 1.259 . S
Co47 O48 2.061 . S
Co47 O53 2.052 . S
Co47 O55 2.135 . S
O48 Co47 2.061 . S
O48 C51 1.235 . S
C49 O52 1.238 . S
C49 O53 1.241 . S
C50 O43 1.247 . S
C50 O44 1.261 . S
C51 O46 1.259 . S
C51 O48 1.235 . S
O52 Co42 2.021 . S
O52 C49 1.238 . S
O53 Co47 2.052 . S
O53 C49 1.241 . S
O54 Co42 2.137 . S
O54 C45 1.247 . S
O55 Co42 2.244 . S
O55 C45 1.272 . S
O55 Co47 2.135 . S
Co56 O57 2.216 . S
Co56 O58 2.091 . S
Co56 O60 2.004 . S
Co56 O66 2.021 . S
Co56 O68 2.137 . S
Co56 O69 2.244 . S
O57 Co56 2.216 . S
O57 C64 1.247 . S
O58 Co56 2.091 . S
O58 C64 1.261 . S
C59 O68 1.247 . S
C59 O69 1.272 . S
O60 Co56 2.004 . S
O60 C65 1.259 . S
Co61 O62 2.061 . S
Co61 O67 2.052 . S
Co61 O69 2.135 . S
O62 Co61 2.061 . S
O62 C65 1.235 . S
C63 O66 1.238 . S
C63 O67 1.241 . S
C64 O57 1.247 . S
C64 O58 1.261 . S
C65 O60 1.259 . S
C65 O62 1.235 . S
O66 Co56 2.021 . S
O66 C63 1.238 . S
O67 Co61 2.052 . S
O67 C63 1.241 . S
O68 Co56 2.137 . S
O68 C59 1.247 . S
O69 Co56 2.244 . S
O69 C59 1.272 . S
O69 Co61 2.135 . S
Co70 O71 2.216 . S
Co70 O72 2.091 . S
Co70 O74 2.004 . S
Co70 O80 2.021 . S
Co70 O82 2.137 . S
Co70 O83 2.244 . S
O71 Co70 2.216 . S
O71 C78 1.247 . S
O72 Co70 2.091 . S
O72 C78 1.261 . S
C73 O82 1.247 . S
C73 O83 1.272 . S
O74 Co70 2.004 . S
O74 C79 1.259 . S
Co75 O76 2.061 . S
Co75 O81 2.052 . S
Co75 O83 2.135 . S
O76 Co75 2.061 . S
O76 C79 1.235 . S
C77 O80 1.238 . S
C77 O81 1.241 . S
C78 O71 1.247 . S
C78 O72 1.261 . S
C79 O74 1.259 . S
C79 O76 1.235 . S
O80 Co70 2.021 . S
O80 C77 1.238 . S
O81 Co75 2.052 . S
O81 C77 1.241 . S
O82 Co70 2.137 . S
O82 C73 1.247 . S
O83 Co70 2.244 . S
O83 C73 1.272 . S
O83 Co75 2.135 . S
Co84 O85 2.216 . S
Co84 O86 2.091 . S
Co84 O88 2.004 . S
Co84 O94 2.021 . S
Co84 O96 2.137 . S
Co84 O97 2.244 . S
O85 Co84 2.216 . S
O85 C92 1.247 . S
O86 Co84 2.091 . S
O86 C92 1.261 . S
C87 O96 1.247 . S
C87 O97 1.272 . S
O88 Co84 2.004 . S
O88 C93 1.259 . S
Co89 O90 2.061 . S
Co89 O95 2.052 . S
Co89 O97 2.135 . S
O90 Co89 2.061 . S
O90 C93 1.235 . S
C91 O94 1.238 . S
C91 O95 1.241 . S
C92 O85 1.247 . S
C92 O86 1.261 . S
C93 O88 1.259 . S
C93 O90 1.235 . S
O94 Co84 2.021 . S
O94 C91 1.238 . S
O95 Co89 2.052 . S
O95 C91 1.241 . S
O96 Co84 2.137 . S
O96 C87 1.247 . S
O97 Co84 2.244 . S
O97 C87 1.272 . S
O97 Co89 2.135 . S
Co98 O99 2.216 . S
Co98 O100 2.091 . S
Co98 O102 2.004 . S
Co98 O108 2.021 . S
Co98 O110 2.137 . S
Co98 O111 2.244 . S
O99 Co98 2.216 . S
O99 C106 1.247 . S
O100 Co98 2.091 . S
O100 C106 1.261 . S
C101 O110 1.247 . S
C101 O111 1.272 . S
O102 Co98 2.004 . S
O102 C107 1.259 . S
Co103 O104 2.061 . S
Co103 O109 2.052 . S
Co103 O111 2.135 . S
O104 Co103 2.061 . S
O104 C107 1.235 . S
C105 O108 1.238 . S
C105 O109 1.241 . S
C106 O99 1.247 . S
C106 O100 1.261 . S
C107 O102 1.259 . S
C107 O104 1.235 . S
O108 Co98 2.021 . S
O108 C105 1.238 . S
O109 Co103 2.052 . S
O109 C105 1.241 . S
O110 Co98 2.137 . S
O110 C101 1.247 . S
O111 Co98 2.244 . S
O111 C101 1.272 . S
O111 Co103 2.135 . S
Co112 O113 2.216 . S
Co112 O114 2.091 . S
Co112 O116 2.004 . S
Co112 O122 2.021 . S
Co112 O124 2.137 . S
Co112 O125 2.244 . S
O113 Co112 2.216 . S
O113 C120 1.247 . S
O114 Co112 2.091 . S
O114 C120 1.261 . S
C115 O124 1.247 . S
C115 O125 1.272 . S
O116 Co112 2.004 . S
O116 C121 1.259 . S
Co117 O118 2.061 . S
Co117 O123 2.052 . S
Co117 O125 2.135 . S
O118 Co117 2.061 . S
O118 C121 1.235 . S
C119 O122 1.238 . S
C119 O123 1.241 . S
C120 O113 1.247 . S
C120 O114 1.261 . S
C121 O116 1.259 . S
C121 O118 1.235 . S
O122 Co112 2.021 . S
O122 C119 1.238 . S
O123 Co117 2.052 . S
O123 C119 1.241 . S
O124 Co112 2.137 . S
O124 C115 1.247 . S
O125 Co112 2.244 . S
O125 C115 1.272 . S
O125 Co117 2.135 . S
Co126 O127 2.216 . S
Co126 O128 2.091 . S
Co126 O130 2.004 . S
Co126 O136 2.021 . S
Co126 O138 2.137 . S
Co126 O139 2.244 . S
O127 Co126 2.216 . S
O127 C134 1.247 . S
O128 Co126 2.091 . S
O128 C134 1.261 . S
C129 O138 1.247 . S
C129 O139 1.272 . S
O130 Co126 2.004 . S
O130 C135 1.259 . S
Co131 O132 2.061 . S
Co131 O137 2.052 . S
Co131 O139 2.135 . S
O132 Co131 2.061 . S
O132 C135 1.235 . S
C133 O136 1.238 . S
C133 O137 1.241 . S
C134 O127 1.247 . S
C134 O128 1.261 . S
C135 O130 1.259 . S
C135 O132 1.235 . S
O136 Co126 2.021 . S
O136 C133 1.238 . S
O137 Co131 2.052 . S
O137 C133 1.241 . S
O138 Co126 2.137 . S
O138 C129 1.247 . S
O139 Co126 2.244 . S
O139 C129 1.272 . S
O139 Co131 2.135 . S
Co140 O141 2.216 . S
Co140 O142 2.091 . S
Co140 O144 2.004 . S
Co140 O150 2.021 . S
Co140 O152 2.137 . S
Co140 O153 2.244 . S
O141 Co140 2.216 . S
O141 C148 1.247 . S
O142 Co140 2.091 . S
O142 C148 1.261 . S
C143 O152 1.247 . S
C143 O153 1.272 . S
O144 Co140 2.004 . S
O144 C149 1.259 . S
Co145 O146 2.061 . S
Co145 O151 2.052 . S
Co145 O153 2.135 . S
O146 Co145 2.061 . S
O146 C149 1.235 . S
C147 O150 1.238 . S
C147 O151 1.241 . S
C148 O141 1.247 . S
C148 O142 1.261 . S
C149 O144 1.259 . S
C149 O146 1.235 . S
O150 Co140 2.021 . S
O150 C147 1.238 . S
O151 Co145 2.052 . S
O151 C147 1.241 . S
O152 Co140 2.137 . S
O152 C143 1.247 . S
O153 Co140 2.244 . S
O153 C143 1.272 . S
O153 Co145 2.135 . S
Co154 O155 2.216 . S
Co154 O156 2.091 . S
Co154 O158 2.004 . S
Co154 O164 2.021 . S
Co154 O166 2.137 . S
Co154 O167 2.244 . S
O155 Co154 2.216 . S
O155 C162 1.247 . S
O156 Co154 2.091 . S
O156 C162 1.261 . S
C157 O166 1.247 . S
C157 O167 1.272 . S
O158 Co154 2.004 . S
O158 C163 1.259 . S
Co159 O160 2.061 . S
Co159 O165 2.052 . S
Co159 O167 2.135 . S
O160 Co159 2.061 . S
O160 C163 1.235 . S
C161 O164 1.238 . S
C161 O165 1.241 . S
C162 O155 1.247 . S
C162 O156 1.261 . S
C163 O158 1.259 . S
C163 O160 1.235 . S
O164 Co154 2.021 . S
O164 C161 1.238 . S
O165 Co159 2.052 . S
O165 C161 1.241 . S
O166 Co154 2.137 . S
O166 C157 1.247 . S
O167 Co154 2.244 . S
O167 C157 1.272 . S
O167 Co159 2.135 . S
Co168 O169 2.216 . S
Co168 O170 2.091 . S
Co168 O172 2.004 . S
Co168 O178 2.021 . S
Co168 O180 2.137 . S
Co168 O181 2.244 . S
O169 Co168 2.216 . S
O169 C176 1.247 . S
O170 Co168 2.091 . S
O170 C176 1.261 . S
C171 O180 1.247 . S
C171 O181 1.272 . S
O172 Co168 2.004 . S
O172 C177 1.259 . S
Co173 O174 2.061 . S
Co173 O179 2.052 . S
Co173 O181 2.135 . S
O174 Co173 2.061 . S
O174 C177 1.235 . S
C175 O178 1.238 . S
C175 O179 1.241 . S
C176 O169 1.247 . S
C176 O170 1.261 . S
C177 O172 1.259 . S
C177 O174 1.235 . S
O178 Co168 2.021 . S
O178 C175 1.238 . S
O179 Co173 2.052 . S
O179 C175 1.241 . S
O180 Co168 2.137 . S
O180 C171 1.247 . S
O181 Co168 2.244 . S
O181 C171 1.272 . S
O181 Co173 2.135 . S
Co182 O183 2.216 . S
Co182 O184 2.091 . S
Co182 O186 2.004 . S
Co182 O192 2.021 . S
Co182 O194 2.137 . S
Co182 O195 2.244 . S
O183 Co182 2.216 . S
O183 C190 1.247 . S
O184 Co182 2.091 . S
O184 C190 1.261 . S
C185 O194 1.247 . S
C185 O195 1.272 . S
O186 Co182 2.004 . S
O186 C191 1.259 . S
Co187 O188 2.061 . S
Co187 O193 2.052 . S
Co187 O195 2.135 . S
O188 Co187 2.061 . S
O188 C191 1.235 . S
C189 O192 1.238 . S
C189 O193 1.241 . S
C190 O183 1.247 . S
C190 O184 1.261 . S
C191 O186 1.259 . S
C191 O188 1.235 . S
O192 Co182 2.021 . S
O192 C189 1.238 . S
O193 Co187 2.052 . S
O193 C189 1.241 . S
O194 Co182 2.137 . S
O194 C185 1.247 . S
O195 Co182 2.244 . S
O195 C185 1.272 . S
O195 Co187 2.135 . S
Co196 O197 2.216 . S
Co196 O198 2.091 . S
Co196 O200 2.004 . S
Co196 O206 2.021 . S
Co196 O208 2.137 . S
Co196 O209 2.244 . S
O197 Co196 2.216 . S
O197 C204 1.247 . S
O198 Co196 2.091 . S
O198 C204 1.261 . S
C199 O208 1.247 . S
C199 O209 1.272 . S
O200 Co196 2.004 . S
O200 C205 1.259 . S
Co201 O202 2.061 . S
Co201 O207 2.052 . S
Co201 O209 2.135 . S
O202 Co201 2.061 . S
O202 C205 1.235 . S
C203 O206 1.238 . S
C203 O207 1.241 . S
C204 O197 1.247 . S
C204 O198 1.261 . S
C205 O200 1.259 . S
C205 O202 1.235 . S
O206 Co196 2.021 . S
O206 C203 1.238 . S
O207 Co201 2.052 . S
O207 C203 1.241 . S
O208 Co196 2.137 . S
O208 C199 1.247 . S
O209 Co196 2.244 . S
O209 C199 1.272 . S
O209 Co201 2.135 . S
Co210 O211 2.216 . S
Co210 O212 2.091 . S
Co210 O214 2.004 . S
Co210 O220 2.021 . S
Co210 O222 2.137 . S
Co210 O223 2.244 . S
O211 Co210 2.216 . S
O211 C218 1.247 . S
O212 Co210 2.091 . S
O212 C218 1.261 . S
C213 O222 1.247 . S
C213 O223 1.272 . S
O214 Co210 2.004 . S
O214 C219 1.259 . S
Co215 O216 2.061 . S
Co215 O221 2.052 . S
Co215 O223 2.135 . S
O216 Co215 2.061 . S
O216 C219 1.235 . S
C217 O220 1.238 . S
C217 O221 1.241 . S
C218 O211 1.247 . S
C218 O212 1.261 . S
C219 O214 1.259 . S
C219 O216 1.235 . S
O220 Co210 2.021 . S
O220 C217 1.238 . S
O221 Co215 2.052 . S
O221 C217 1.241 . S
O222 Co210 2.137 . S
O222 C213 1.247 . S
O223 Co210 2.244 . S
O223 C213 1.272 . S
O223 Co215 2.135 . S
Co224 O225 2.216 . S
Co224 O226 2.091 . S
Co224 O228 2.004 . S
Co224 O234 2.021 . S
Co224 O236 2.137 . S
Co224 O237 2.244 . S
O225 Co224 2.216 . S
O225 C232 1.247 . S
O226 Co224 2.091 . S
O226 C232 1.261 . S
C227 O236 1.247 . S
C227 O237 1.272 . S
O228 Co224 2.004 . S
O228 C233 1.259 . S
Co229 O230 2.061 . S
Co229 O235 2.052 . S
Co229 O237 2.135 . S
O230 Co229 2.061 . S
O230 C233 1.235 . S
C231 O234 1.238 . S
C231 O235 1.241 . S
C232 O225 1.247 . S
C232 O226 1.261 . S
C233 O228 1.259 . S
C233 O230 1.235 . S
O234 Co224 2.021 . S
O234 C231 1.238 . S
O235 Co229 2.052 . S
O235 C231 1.241 . S
O236 Co224 2.137 . S
O236 C227 1.247 . S
O237 Co224 2.244 . S
O237 C227 1.272 . S
O237 Co229 2.135 . S
Co238 O239 2.216 . S
Co238 O240 2.091 . S
Co238 O242 2.004 . S
Co238 O248 2.021 . S
Co238 O250 2.137 . S
Co238 O251 2.244 . S
O239 Co238 2.216 . S
O239 C246 1.247 . S
O240 Co238 2.091 . S
O240 C246 1.261 . S
C241 O250 1.247 . S
C241 O251 1.272 . S
O242 Co238 2.004 . S
O242 C247 1.259 . S
Co243 O244 2.061 . S
Co243 O249 2.052 . S
Co243 O251 2.135 . S
O244 Co243 2.061 . S
O244 C247 1.235 . S
C245 O248 1.238 . S
C245 O249 1.241 . S
C246 O239 1.247 . S
C246 O240 1.261 . S
C247 O242 1.259 . S
C247 O244 1.235 . S
O248 Co238 2.021 . S
O248 C245 1.238 . S
O249 Co243 2.052 . S
O249 C245 1.241 . S
O250 Co238 2.137 . S
O250 C241 1.247 . S
O251 Co238 2.244 . S
O251 C241 1.272 . S
O251 Co243 2.135 . S
Co252 O253 2.216 . S
Co252 O254 2.091 . S
Co252 O256 2.004 . S
Co252 O262 2.021 . S
Co252 O264 2.137 . S
Co252 O265 2.244 . S
O253 Co252 2.216 . S
O253 C260 1.247 . S
O254 Co252 2.091 . S
O254 C260 1.261 . S
C255 O264 1.247 . S
C255 O265 1.272 . S
O256 Co252 2.004 . S
O256 C261 1.259 . S
Co257 O258 2.061 . S
Co257 O263 2.052 . S
Co257 O265 2.135 . S
O258 Co257 2.061 . S
O258 C261 1.235 . S
C259 O262 1.238 . S
C259 O263 1.241 . S
C260 O253 1.247 . S
C260 O254 1.261 . S
C261 O256 1.259 . S
C261 O258 1.235 . S
O262 Co252 2.021 . S
O262 C259 1.238 . S
O263 Co257 2.052 . S
O263 C259 1.241 . S
O264 Co252 2.137 . S
O264 C255 1.247 . S
O265 Co252 2.244 . S
O265 C255 1.272 . S
O265 Co257 2.135 . S
Co266 O267 2.216 . S
Co266 O268 2.091 . S
Co266 O270 2.004 . S
Co266 O276 2.021 . S
Co266 O278 2.137 . S
Co266 O279 2.244 . S
O267 Co266 2.216 . S
O267 C274 1.247 . S
O268 Co266 2.091 . S
O268 C274 1.261 . S
C269 O278 1.247 . S
C269 O279 1.272 . S
O270 Co266 2.004 . S
O270 C275 1.259 . S
Co271 O272 2.061 . S
Co271 O277 2.052 . S
Co271 O279 2.135 . S
O272 Co271 2.061 . S
O272 C275 1.235 . S
C273 O276 1.238 . S
C273 O277 1.241 . S
C274 O267 1.247 . S
C274 O268 1.261 . S
C275 O270 1.259 . S
C275 O272 1.235 . S
O276 Co266 2.021 . S
O276 C273 1.238 . S
O277 Co271 2.052 . S
O277 C273 1.241 . S
O278 Co266 2.137 . S
O278 C269 1.247 . S
O279 Co266 2.244 . S
O279 C269 1.272 . S
O279 Co271 2.135 . S
Co280 O281 2.216 . S
Co280 O282 2.091 . S
Co280 O284 2.004 . S
Co280 O290 2.021 . S
Co280 O292 2.137 . S
Co280 O293 2.244 . S
O281 Co280 2.216 . S
O281 C288 1.247 . S
O282 Co280 2.091 . S
O282 C288 1.261 . S
C283 O292 1.247 . S
C283 O293 1.272 . S
O284 Co280 2.004 . S
O284 C289 1.259 . S
Co285 O286 2.061 . S
Co285 O291 2.052 . S
Co285 O293 2.135 . S
O286 Co285 2.061 . S
O286 C289 1.235 . S
C287 O290 1.238 . S
C287 O291 1.241 . S
C288 O281 1.247 . S
C288 O282 1.261 . S
C289 O284 1.259 . S
C289 O286 1.235 . S
O290 Co280 2.021 . S
O290 C287 1.238 . S
O291 Co285 2.052 . S
O291 C287 1.241 . S
O292 Co280 2.137 . S
O292 C283 1.247 . S
O293 Co280 2.244 . S
O293 C283 1.272 . S
O293 Co285 2.135 . S
Co294 O295 2.216 . S
Co294 O296 2.091 . S
Co294 O298 2.004 . S
Co294 O304 2.021 . S
Co294 O306 2.137 . S
Co294 O307 2.244 . S
O295 Co294 2.216 . S
O295 C302 1.247 . S
O296 Co294 2.091 . S
O296 C302 1.261 . S
C297 O306 1.247 . S
C297 O307 1.272 . S
O298 Co294 2.004 . S
O298 C303 1.259 . S
Co299 O300 2.061 . S
Co299 O305 2.052 . S
Co299 O307 2.135 . S
O300 Co299 2.061 . S
O300 C303 1.235 . S
C301 O304 1.238 . S
C301 O305 1.241 . S
C302 O295 1.247 . S
C302 O296 1.261 . S
C303 O298 1.259 . S
C303 O300 1.235 . S
O304 Co294 2.021 . S
O304 C301 1.238 . S
O305 Co299 2.052 . S
O305 C301 1.241 . S
O306 Co294 2.137 . S
O306 C297 1.247 . S
O307 Co294 2.244 . S
O307 C297 1.272 . S
O307 Co299 2.135 . S
Co308 O309 2.216 . S
Co308 O310 2.091 . S
Co308 O312 2.004 . S
Co308 O318 2.021 . S
Co308 O320 2.137 . S
Co308 O321 2.244 . S
O309 Co308 2.216 . S
O309 C316 1.247 . S
O310 Co308 2.091 . S
O310 C316 1.261 . S
C311 O320 1.247 . S
C311 O321 1.272 . S
O312 Co308 2.004 . S
O312 C317 1.259 . S
Co313 O314 2.061 . S
Co313 O319 2.052 . S
Co313 O321 2.135 . S
O314 Co313 2.061 . S
O314 C317 1.235 . S
C315 O318 1.238 . S
C315 O319 1.241 . S
C316 O309 1.247 . S
C316 O310 1.261 . S
C317 O312 1.259 . S
C317 O314 1.235 . S
O318 Co308 2.021 . S
O318 C315 1.238 . S
O319 Co313 2.052 . S
O319 C315 1.241 . S
O320 Co308 2.137 . S
O320 C311 1.247 . S
O321 Co308 2.244 . S
O321 C311 1.272 . S
O321 Co313 2.135 . S
Co322 O323 2.216 . S
Co322 O324 2.091 . S
Co322 O326 2.004 . S
Co322 O332 2.021 . S
Co322 O334 2.137 . S
Co322 O335 2.244 . S
O323 Co322 2.216 . S
O323 C330 1.247 . S
O324 Co322 2.091 . S
O324 C330 1.261 . S
C325 O334 1.247 . S
C325 O335 1.272 . S
O326 Co322 2.004 . S
O326 C331 1.259 . S
Co327 O328 2.061 . S
Co327 O333 2.052 . S
Co327 O335 2.135 . S
O328 Co327 2.061 . S
O328 C331 1.235 . S
C329 O332 1.238 . S
C329 O333 1.241 . S
C330 O323 1.247 . S
C330 O324 1.261 . S
C331 O326 1.259 . S
C331 O328 1.235 . S
O332 Co322 2.021 . S
O332 C329 1.238 . S
O333 Co327 2.052 . S
O333 C329 1.241 . S
O334 Co322 2.137 . S
O334 C325 1.247 . S
O335 Co322 2.244 . S
O335 C325 1.272 . S
O335 Co327 2.135 . S
Co336 O337 2.216 . S
Co336 O338 2.091 . S
Co336 O340 2.004 . S
Co336 O346 2.021 . S
Co336 O348 2.137 . S
Co336 O349 2.244 . S
O337 Co336 2.216 . S
O337 C344 1.247 . S
O338 Co336 2.091 . S
O338 C344 1.261 . S
C339 O348 1.247 . S
C339 O349 1.272 . S
O340 Co336 2.004 . S
O340 C345 1.259 . S
Co341 O342 2.061 . S
Co341 O347 2.052 . S
Co341 O349 2.135 . S
O342 Co341 2.061 . S
O342 C345 1.235 . S
C343 O346 1.238 . S
C343 O347 1.241 . S
C344 O337 1.247 . S
C344 O338 1.261 . S
C345 O340 1.259 . S
C345 O342 1.235 . S
O346 Co336 2.021 . S
O346 C343 1.238 . S
O347 Co341 2.052 . S
O347 C343 1.241 . S
O348 Co336 2.137 . S
O348 C339 1.247 . S
O349 Co336 2.244 . S
O349 C339 1.272 . S
O349 Co341 2.135 . S
Co350 O351 2.216 . S
Co350 O352 2.091 . S
Co350 O354 2.004 . S
Co350 O360 2.021 . S
Co350 O362 2.137 . S
Co350 O363 2.244 . S
O351 Co350 2.216 . S
O351 C358 1.247 . S
O352 Co350 2.091 . S
O352 C358 1.261 . S
C353 O362 1.247 . S
C353 O363 1.272 . S
O354 Co350 2.004 . S
O354 C359 1.259 . S
Co355 O356 2.061 . S
Co355 O361 2.052 . S
Co355 O363 2.135 . S
O356 Co355 2.061 . S
O356 C359 1.235 . S
C357 O360 1.238 . S
C357 O361 1.241 . S
C358 O351 1.247 . S
C358 O352 1.261 . S
C359 O354 1.259 . S
C359 O356 1.235 . S
O360 Co350 2.021 . S
O360 C357 1.238 . S
O361 Co355 2.052 . S
O361 C357 1.241 . S
O362 Co350 2.137 . S
O362 C353 1.247 . S
O363 Co350 2.244 . S
O363 C353 1.272 . S
O363 Co355 2.135 . S
Co364 O365 2.216 . S
Co364 O366 2.091 . S
Co364 O368 2.004 . S
Co364 O374 2.021 . S
Co364 O376 2.137 . S
Co364 O377 2.244 . S
O365 Co364 2.216 . S
O365 C372 1.247 . S
O366 Co364 2.091 . S
O366 C372 1.261 . S
C367 O376 1.247 . S
C367 O377 1.272 . S
O368 Co364 2.004 . S
O368 C373 1.259 . S
Co369 O370 2.061 . S
Co369 O375 2.052 . S
Co369 O377 2.135 . S
O370 Co369 2.061 . S
O370 C373 1.235 . S
C371 O374 1.238 . S
C371 O375 1.241 . S
C372 O365 1.247 . S
C372 O366 1.261 . S
C373 O368 1.259 . S
C373 O370 1.235 . S
O374 Co364 2.021 . S
O374 C371 1.238 . S
O375 Co369 2.052 . S
O375 C371 1.241 . S
O376 Co364 2.137 . S
O376 C367 1.247 . S
O377 Co364 2.244 . S
O377 C367 1.272 . S
O377 Co369 2.135 . S
Co378 O379 2.216 . S
Co378 O380 2.091 . S
Co378 O382 2.004 . S
Co378 O388 2.021 . S
Co378 O390 2.137 . S
Co378 O391 2.244 . S
O379 Co378 2.216 . S
O379 C386 1.247 . S
O380 Co378 2.091 . S
O380 C386 1.261 . S
C381 O390 1.247 . S
C381 O391 1.272 . S
O382 Co378 2.004 . S
O382 C387 1.259 . S
Co383 O384 2.061 . S
Co383 O389 2.052 . S
Co383 O391 2.135 . S
O384 Co383 2.061 . S
O384 C387 1.235 . S
C385 O388 1.238 . S
C385 O389 1.241 . S
C386 O379 1.247 . S
C386 O380 1.261 . S
C387 O382 1.259 . S
C387 O384 1.235 . S
O388 Co378 2.021 . S
O388 C385 1.238 . S
O389 Co383 2.052 . S
O389 C385 1.241 . S
O390 Co378 2.137 . S
O390 C381 1.247 . S
O391 Co378 2.244 . S
O391 C381 1.272 . S
O391 Co383 2.135 . S
Co392 O393 2.216 . S
Co392 O394 2.091 . S
Co392 O396 2.004 . S
Co392 O402 2.021 . S
Co392 O404 2.137 . S
Co392 O405 2.244 . S
O393 Co392 2.216 . S
O393 C400 1.247 . S
O394 Co392 2.091 . S
O394 C400 1.261 . S
C395 O404 1.247 . S
C395 O405 1.272 . S
O396 Co392 2.004 . S
O396 C401 1.259 . S
Co397 O398 2.061 . S
Co397 O403 2.052 . S
Co397 O405 2.135 . S
O398 Co397 2.061 . S
O398 C401 1.235 . S
C399 O402 1.238 . S
C399 O403 1.241 . S
C400 O393 1.247 . S
C400 O394 1.261 . S
C401 O396 1.259 . S
C401 O398 1.235 . S
O402 Co392 2.021 . S
O402 C399 1.238 . S
O403 Co397 2.052 . S
O403 C399 1.241 . S
O404 Co392 2.137 . S
O404 C395 1.247 . S
O405 Co392 2.244 . S
O405 C395 1.272 . S
O405 Co397 2.135 . S
Co406 O407 2.216 . S
Co406 O408 2.091 . S
Co406 O410 2.004 . S
Co406 O416 2.021 . S
Co406 O418 2.137 . S
Co406 O419 2.244 . S
O407 Co406 2.216 . S
O407 C414 1.247 . S
O408 Co406 2.091 . S
O408 C414 1.261 . S
C409 O418 1.247 . S
C409 O419 1.272 . S
O410 Co406 2.004 . S
O410 C415 1.259 . S
Co411 O412 2.061 . S
Co411 O417 2.052 . S
Co411 O419 2.135 . S
O412 Co411 2.061 . S
O412 C415 1.235 . S
C413 O416 1.238 . S
C413 O417 1.241 . S
C414 O407 1.247 . S
C414 O408 1.261 . S
C415 O410 1.259 . S
C415 O412 1.235 . S
O416 Co406 2.021 . S
O416 C413 1.238 . S
O417 Co411 2.052 . S
O417 C413 1.241 . S
O418 Co406 2.137 . S
O418 C409 1.247 . S
O419 Co406 2.244 . S
O419 C409 1.272 . S
O419 Co411 2.135 . S
Co420 O421 2.216 . S
Co420 O422 2.091 . S
Co420 O424 2.004 . S
Co420 O430 2.021 . S
Co420 O432 2.137 . S
Co420 O433 2.244 . S
O421 Co420 2.216 . S
O421 C428 1.247 . S
O422 Co420 2.091 . S
O422 C428 1.261 . S
C423 O432 1.247 . S
C423 O433 1.272 . S
O424 Co420 2.004 . S
O424 C429 1.259 . S
Co425 O426 2.061 . S
Co425 O431 2.052 . S
Co425 O433 2.135 . S
O426 Co425 2.061 . S
O426 C429 1.235 . S
C427 O430 1.238 . S
C427 O431 1.241 . S
C428 O421 1.247 . S
C428 O422 1.261 . S
C429 O424 1.259 . S
C429 O426 1.235 . S
O430 Co420 2.021 . S
O430 C427 1.238 . S
O431 Co425 2.052 . S
O431 C427 1.241 . S
O432 Co420 2.137 . S
O432 C423 1.247 . S
O433 Co420 2.244 . S
O433 C423 1.272 . S
O433 Co425 2.135 . S
Co434 O435 2.216 . S
Co434 O436 2.091 . S
Co434 O438 2.004 . S
Co434 O444 2.021 . S
Co434 O446 2.137 . S
Co434 O447 2.244 . S
O435 Co434 2.216 . S
O435 C442 1.247 . S
O436 Co434 2.091 . S
O436 C442 1.261 . S
C437 O446 1.247 . S
C437 O447 1.272 . S
O438 Co434 2.004 . S
O438 C443 1.259 . S
Co439 O440 2.061 . S
Co439 O445 2.052 . S
Co439 O447 2.135 . S
O440 Co439 2.061 . S
O440 C443 1.235 . S
C441 O444 1.238 . S
C441 O445 1.241 . S
C442 O435 1.247 . S
C442 O436 1.261 . S
C443 O438 1.259 . S
C443 O440 1.235 . S
O444 Co434 2.021 . S
O444 C441 1.238 . S
O445 Co439 2.052 . S
O445 C441 1.241 . S
O446 Co434 2.137 . S
O446 C437 1.247 . S
O447 Co434 2.244 . S
O447 C437 1.272 . S
O447 Co439 2.135 . S
H448 C454 0.930 . S
H449 C457 0.930 . S
H450 C458 0.930 . S
H451 C459 0.930 . S
H452 C462 0.930 . S
H453 C463 0.930 . S
C454 H448 0.930 . S
C454 C455 1.355 . S
C454 C456 1.415 . S
C455 C454 1.355 . S
C455 C457 1.419 . S
C456 C454 1.415 . S
C456 C461 1.425 . S
C456 C463 1.409 . S
C457 H449 0.930 . S
C457 C455 1.419 . S
C457 C458 1.362 . S
C458 H450 0.930 . S
C458 C457 1.362 . S
C458 C461 1.409 . S
C459 H451 0.930 . S
C459 C460 1.355 . S
C459 C461 1.415 . S
C460 C459 1.355 . S
C460 C462 1.419 . S
C461 C456 1.425 . S
C461 C458 1.409 . S
C461 C459 1.415 . S
C462 H452 0.930 . S
C462 C460 1.419 . S
C462 C463 1.362 . S
C463 H453 0.930 . S
C463 C456 1.409 . S
C463 C462 1.362 . S
H464 C470 0.930 . S
H465 C473 0.930 . S
H466 C474 0.930 . S
H467 C475 0.930 . S
H468 C478 0.930 . S
H469 C479 0.930 . S
C470 H464 0.930 . S
C470 C471 1.355 . S
C470 C472 1.415 . S
C471 C470 1.355 . S
C471 C473 1.419 . S
C472 C470 1.415 . S
C472 C477 1.425 1_565 S
C472 C479 1.409 1_565 S
C473 H465 0.930 . S
C473 C471 1.419 . S
C473 C474 1.362 . S
C474 H466 0.930 . S
C474 C473 1.362 . S
C474 C477 1.409 1_565 S
C475 H467 0.930 . S
C475 C476 1.355 . S
C475 C477 1.415 . S
C476 C475 1.355 . S
C476 C478 1.419 . S
C477 C472 1.425 1_545 S
C477 C474 1.409 1_545 S
C477 C475 1.415 . S
C478 H468 0.930 . S
C478 C476 1.419 . S
C478 C479 1.362 . S
C479 H469 0.930 . S
C479 C472 1.409 1_545 S
C479 C478 1.362 . S
H480 C486 0.930 . S
H481 C489 0.927 1_556 S
H482 C490 0.930 . S
H483 C491 0.930 . S
H484 C494 0.927 1_554 S
H485 C495 0.930 . S
C486 H480 0.930 . S
C486 C487 1.355 . S
C486 C488 1.415 . S
C487 C486 1.355 . S
C487 C489 1.431 . S
C488 C486 1.415 . S
C488 C493 1.425 1_554 S
C488 C495 1.409 . S
C489 H481 0.927 1_554 S
C489 C487 1.431 . S
C489 C490 1.353 1_554 S
C490 H482 0.930 . S
C490 C489 1.353 1_556 S
C490 C493 1.409 . S
C491 H483 0.930 . S
C491 C492 1.355 . S
C491 C493 1.415 . S
C492 C491 1.355 . S
C492 C494 1.432 . S
C493 C488 1.425 1_556 S
C493 C490 1.409 . S
C493 C491 1.415 . S
C494 H484 0.927 1_556 S
C494 C492 1.432 . S
C494 C495 1.352 1_556 S
C495 H485 0.930 . S
C495 C488 1.409 . S
C495 C494 1.352 1_554 S
H496 C502 0.930 . S
H497 C505 0.930 . S
H498 C506 0.930 . S
H499 C507 0.930 . S
H500 C510 0.930 . S
H501 C511 0.930 . S
C502 H496 0.930 . S
C502 C503 1.355 . S
C502 C504 1.415 . S
C503 C502 1.355 . S
C503 C505 1.419 . S
C504 C502 1.415 . S
C504 C509 1.425 1_545 S
C504 C511 1.409 1_545 S
C505 H497 0.930 . S
C505 C503 1.419 . S
C505 C506 1.362 . S
C506 H498 0.930 . S
C506 C505 1.362 . S
C506 C509 1.409 1_545 S
C507 H499 0.930 . S
C507 C508 1.355 . S
C507 C509 1.415 . S
C508 C507 1.355 . S
C508 C510 1.419 . S
C509 C504 1.425 1_565 S
C509 C506 1.409 1_565 S
C509 C507 1.415 . S
C510 H500 0.930 . S
C510 C508 1.419 . S
C510 C511 1.362 . S
C511 H501 0.930 . S
C511 C504 1.409 1_565 S
C511 C510 1.362 . S
H512 C518 0.930 . S
H513 C521 0.930 . S
H514 C522 0.930 . S
H515 C523 0.930 . S
H516 C526 0.930 . S
H517 C527 0.930 . S
C518 H512 0.930 . S
C518 C519 1.355 . S
C518 C520 1.415 . S
C519 C518 1.355 . S
C519 C521 1.419 . S
C520 C518 1.415 . S
C520 C525 1.425 . S
C520 C527 1.409 . S
C521 H513 0.930 . S
C521 C519 1.419 . S
C521 C522 1.362 . S
C522 H514 0.930 . S
C522 C521 1.362 . S
C522 C525 1.409 . S
C523 H515 0.930 . S
C523 C524 1.355 . S
C523 C525 1.415 . S
C524 C523 1.355 . S
C524 C526 1.419 . S
C525 C520 1.425 . S
C525 C522 1.409 . S
C525 C523 1.415 . S
C526 H516 0.930 . S
C526 C524 1.419 . S
C526 C527 1.362 . S
C527 H517 0.930 . S
C527 C520 1.409 . S
C527 C526 1.362 . S
H528 C534 0.930 . S
H529 C537 0.930 . S
H530 C538 0.930 . S
H531 C539 0.930 . S
H532 C542 0.930 . S
H533 C543 0.930 . S
C534 H528 0.930 . S
C534 C535 1.355 . S
C534 C536 1.415 . S
C535 C534 1.355 . S
C535 C537 1.419 . S
C536 C534 1.415 . S
C536 C541 1.425 1_545 S
C536 C543 1.409 1_545 S
C537 H529 0.930 . S
C537 C535 1.419 . S
C537 C538 1.362 . S
C538 H530 0.930 . S
C538 C537 1.362 . S
C538 C541 1.409 1_545 S
C539 H531 0.930 . S
C539 C540 1.355 . S
C539 C541 1.415 . S
C540 C539 1.355 . S
C540 C542 1.419 . S
C541 C536 1.425 1_565 S
C541 C538 1.409 1_565 S
C541 C539 1.415 . S
C542 H532 0.930 . S
C542 C540 1.419 . S
C542 C543 1.362 . S
C543 H533 0.930 . S
C543 C536 1.409 1_565 S
C543 C542 1.362 . S
H544 C550 0.930 . S
H545 C553 0.930 . S
H546 C554 0.930 . S
H547 C555 0.930 . S
H548 C558 0.930 . S
H549 C559 0.930 . S
C550 H544 0.930 . S
C550 C551 1.355 . S
C550 C552 1.415 . S
C551 C550 1.355 . S
C551 C553 1.419 1_556 S
C552 C550 1.415 . S
C552 C557 1.425 1_556 S
C552 C559 1.409 . S
C553 H545 0.930 . S
C553 C551 1.419 1_554 S
C553 C554 1.362 . S
C554 H546 0.930 . S
C554 C553 1.362 . S
C554 C557 1.409 . S
C555 H547 0.930 . S
C555 C556 1.355 . S
C555 C557 1.415 . S
C556 C555 1.355 . S
C556 C558 1.419 1_554 S
C557 C552 1.425 1_554 S
C557 C554 1.409 . S
C557 C555 1.415 . S
C558 H548 0.930 . S
C558 C556 1.419 1_556 S
C558 C559 1.362 . S
C559 H549 0.930 . S
C559 C552 1.409 . S
C559 C558 1.362 . S
H560 C566 0.930 . S
H561 C569 0.930 . S
H562 C570 0.930 . S
H563 C571 0.930 . S
H564 C574 0.930 . S
H565 C575 0.930 . S
C566 H560 0.930 . S
C566 C567 1.355 . S
C566 C568 1.415 . S
C567 C566 1.355 . S
C567 C569 1.419 . S
C568 C566 1.415 . S
C568 C573 1.425 1_565 S
C568 C575 1.409 1_565 S
C569 H561 0.930 . S
C569 C567 1.419 . S
C569 C570 1.362 . S
C570 H562 0.930 . S
C570 C569 1.362 . S
C570 C573 1.409 1_565 S
C571 H563 0.930 . S
C571 C572 1.355 . S
C571 C573 1.415 . S
C572 C571 1.355 . S
C572 C574 1.419 . S
C573 C568 1.425 1_545 S
C573 C570 1.409 1_545 S
C573 C571 1.415 . S
C574 H564 0.930 . S
C574 C572 1.419 . S
C574 C575 1.362 . S
C575 H565 0.930 . S
C575 C568 1.409 1_545 S
C575 C574 1.362 . S
H576 C582 0.930 . S
H577 C585 0.929 1_554 S
H578 C586 0.930 . S
H579 C587 0.930 . S
H580 C590 0.930 1_556 S
H581 C591 0.930 . S
C582 H576 0.930 . S
C582 C583 1.355 . S
C582 C584 1.415 . S
C583 C582 1.355 . S
C583 C585 1.421 . S
C584 C582 1.415 . S
C584 C589 1.425 1_556 S
C584 C591 1.409 . S
C585 H577 0.929 1_556 S
C585 C583 1.421 . S
C585 C586 1.361 1_556 S
C586 H578 0.930 . S
C586 C585 1.361 1_554 S
C586 C589 1.409 . S
C587 H579 0.930 . S
C587 C588 1.355 . S
C587 C589 1.415 . S
C588 C587 1.355 . S
C588 C590 1.419 . S
C589 C584 1.425 1_554 S
C589 C586 1.409 . S
C589 C587 1.415 . S
C590 H580 0.930 1_554 S
C590 C588 1.419 . S
C590 C591 1.362 1_554 S
C591 H581 0.930 . S
C591 C584 1.409 . S
C591 C590 1.362 1_556 S
H592 C598 0.930 . S
H593 C601 0.930 . S
H594 C602 0.930 . S
H595 C603 0.930 . S
H596 C606 0.930 . S
H597 C607 0.930 . S
C598 H592 0.930 . S
C598 C599 1.355 . S
C598 C600 1.415 . S
C599 C598 1.355 . S
C599 C601 1.419 . S
C600 C598 1.415 . S
C600 C605 1.425 . S
C600 C607 1.409 . S
C601 H593 0.930 . S
C601 C599 1.419 . S
C601 C602 1.362 . S
C602 H594 0.930 . S
C602 C601 1.362 . S
C602 C605 1.409 . S
C603 H595 0.930 . S
C603 C604 1.355 . S
C603 C605 1.415 . S
C604 C603 1.355 . S
C604 C606 1.419 . S
C605 C600 1.425 . S
C605 C602 1.409 . S
C605 C603 1.415 . S
C606 H596 0.930 . S
C606 C604 1.419 . S
C606 C607 1.362 . S
C607 H597 0.930 . S
C607 C600 1.409 . S
C607 C606 1.362 . S
H608 C614 0.930 . S
H609 C617 0.930 . S
H610 C618 0.930 . S
H611 C619 0.930 . S
H612 C622 0.930 . S
H613 C623 0.930 . S
C614 H608 0.930 . S
C614 C615 1.355 . S
C614 C616 1.415 . S
C615 C614 1.355 . S
C615 C617 1.419 . S
C616 C614 1.415 . S
C616 C621 1.425 . S
C616 C623 1.409 . S
C617 H609 0.930 . S
C617 C615 1.419 . S
C617 C618 1.362 . S
C618 H610 0.930 . S
C618 C617 1.362 . S
C618 C621 1.409 . S
C619 H611 0.930 . S
C619 C620 1.355 . S
C619 C621 1.415 . S
C620 C619 1.355 . S
C620 C622 1.419 . S
C621 C616 1.425 . S
C621 C618 1.409 . S
C621 C619 1.415 . S
C622 H612 0.930 . S
C622 C620 1.419 . S
C622 C623 1.362 . S
C623 H613 0.930 . S
C623 C616 1.409 . S
C623 C622 1.362 . S
H624 C630 0.930 . S
H625 C633 0.930 . S
H626 C634 0.930 . S
H627 C635 0.930 . S
H628 C638 0.930 . S
H629 C639 0.930 . S
C630 H624 0.930 . S
C630 C631 1.355 . S
C630 C632 1.415 . S
C631 C630 1.355 . S
C631 C633 1.419 . S
C632 C630 1.415 . S
C632 C637 1.425 . S
C632 C639 1.409 . S
C633 H625 0.930 . S
C633 C631 1.419 . S
C633 C634 1.362 . S
C634 H626 0.930 . S
C634 C633 1.362 . S
C634 C637 1.409 . S
C635 H627 0.930 . S
C635 C636 1.355 . S
C635 C637 1.415 . S
C636 C635 1.355 . S
C636 C638 1.419 . S
C637 C632 1.425 . S
C637 C634 1.409 . S
C637 C635 1.415 . S
C638 H628 0.930 . S
C638 C636 1.419 . S
C638 C639 1.362 . S
C639 H629 0.930 . S
C639 C632 1.409 . S
C639 C638 1.362 . S
H640 C646 0.930 . S
H641 C649 0.930 . S
H642 C650 0.930 . S
H643 C651 0.930 . S
H644 C654 0.930 . S
H645 C655 0.930 . S
C646 H640 0.930 . S
C646 C647 1.355 . S
C646 C648 1.415 1_556 S
C647 C646 1.355 . S
C647 C649 1.419 . S
C648 C646 1.415 1_554 S
C648 C653 1.425 1_554 S
C648 C655 1.409 . S
C649 H641 0.930 . S
C649 C647 1.419 . S
C649 C650 1.362 . S
C650 H642 0.930 . S
C650 C649 1.362 . S
C650 C653 1.409 . S
C651 H643 0.930 . S
C651 C652 1.355 . S
C651 C653 1.415 1_554 S
C652 C651 1.355 . S
C652 C654 1.419 . S
C653 C648 1.425 1_556 S
C653 C650 1.409 . S
C653 C651 1.415 1_556 S
C654 H644 0.930 . S
C654 C652 1.419 . S
C654 C655 1.362 . S
C655 H645 0.930 . S
C655 C648 1.409 . S
C655 C654 1.362 . S
H656 C662 0.930 . S
H657 C665 0.930 . S
H658 C666 0.930 . S
H659 C667 0.930 . S
H660 C670 0.930 . S
H661 C671 0.930 . S
C662 H656 0.930 . S
C662 C663 1.355 . S
C662 C664 1.415 . S
C663 C662 1.355 . S
C663 C665 1.419 . S
C664 C662 1.415 . S
C664 C669 1.425 . S
C664 C671 1.409 . S
C665 H657 0.930 . S
C665 C663 1.419 . S
C665 C666 1.362 . S
C666 H658 0.930 . S
C666 C665 1.362 . S
C666 C669 1.409 . S
C667 H659 0.930 . S
C667 C668 1.355 . S
C667 C669 1.415 . S
C668 C667 1.355 . S
C668 C670 1.419 . S
C669 C664 1.425 . S
C669 C666 1.409 . S
C669 C667 1.415 . S
C670 H660 0.930 . S
C670 C668 1.419 . S
C670 C671 1.362 . S
C671 H661 0.930 . S
C671 C664 1.409 . S
C671 C670 1.362 . S
H672 C678 0.930 . S
H673 C681 0.930 . S
H674 C682 0.930 . S
H675 C683 0.930 . S
H676 C686 0.930 . S
H677 C687 0.930 . S
C678 H672 0.930 . S
C678 C679 1.355 . S
C678 C680 1.415 . S
C679 C678 1.355 . S
C679 C681 1.419 . S
C680 C678 1.415 . S
C680 C685 1.425 . S
C680 C687 1.409 . S
C681 H673 0.930 . S
C681 C679 1.419 . S
C681 C682 1.362 . S
C682 H674 0.930 . S
C682 C681 1.362 . S
C682 C685 1.409 . S
C683 H675 0.930 . S
C683 C684 1.355 . S
C683 C685 1.415 . S
C684 C683 1.355 . S
C684 C686 1.419 . S
C685 C680 1.425 . S
C685 C682 1.409 . S
C685 C683 1.415 . S
C686 H676 0.930 . S
C686 C684 1.419 . S
C686 C687 1.362 . S
C687 H677 0.930 . S
C687 C680 1.409 . S
C687 C686 1.362 . S
H688 C694 0.930 . S
H689 C697 0.930 . S
H690 C698 0.930 . S
H691 C699 0.930 . S
H692 C702 0.930 . S
H693 C703 0.930 . S
C694 H688 0.930 . S
C694 C695 1.355 . S
C694 C696 1.415 . S
C695 C694 1.355 . S
C695 C697 1.419 . S
C696 C694 1.415 . S
C696 C701 1.425 . S
C696 C703 1.409 . S
C697 H689 0.930 . S
C697 C695 1.419 . S
C697 C698 1.362 . S
C698 H690 0.930 . S
C698 C697 1.362 . S
C698 C701 1.409 . S
C699 H691 0.930 . S
C699 C700 1.355 . S
C699 C701 1.415 . S
C700 C699 1.355 . S
C700 C702 1.419 . S
C701 C696 1.425 . S
C701 C698 1.409 . S
C701 C699 1.415 . S
C702 H692 0.930 . S
C702 C700 1.419 . S
C702 C703 1.362 . S
C703 H693 0.930 . S
C703 C696 1.409 . S
C703 C702 1.362 . S
H704 C710 0.930 1_554 S
H705 C713 0.930 . S
H706 C714 0.930 . S
H707 C715 0.930 . S
H708 C718 0.930 . S
H709 C719 0.930 . S
C710 H704 0.930 1_556 S
C710 C711 1.355 . S
C710 C712 1.415 1_556 S
C711 C710 1.355 . S
C711 C713 1.419 . S
C712 C710 1.415 1_554 S
C712 C717 1.425 . S
C712 C719 1.409 . S
C713 H705 0.930 . S
C713 C711 1.419 . S
C713 C714 1.362 . S
C714 H706 0.930 . S
C714 C713 1.362 . S
C714 C717 1.409 1_556 S
C715 H707 0.930 . S
C715 C716 1.355 . S
C715 C717 1.415 . S
C716 C715 1.355 . S
C716 C718 1.419 . S
C717 C712 1.425 . S
C717 C714 1.409 1_554 S
C717 C715 1.415 . S
C718 H708 0.930 . S
C718 C716 1.419 . S
C718 C719 1.362 . S
C719 H709 0.930 . S
C719 C712 1.409 . S
C719 C718 1.362 . S
H720 C726 0.930 . S
H721 C729 0.930 . S
H722 C730 0.930 . S
H723 C731 0.930 . S
H724 C734 0.930 . S
H725 C735 0.930 . S
C726 H720 0.930 . S
C726 C727 1.355 . S
C726 C728 1.415 . S
C727 C726 1.355 . S
C727 C729 1.419 . S
C728 C726 1.415 . S
C728 C733 1.425 . S
C728 C735 1.409 . S
C729 H721 0.930 . S
C729 C727 1.419 . S
C729 C730 1.362 . S
C730 H722 0.930 . S
C730 C729 1.362 . S
C730 C733 1.409 . S
C731 H723 0.930 . S
C731 C732 1.355 . S
C731 C733 1.415 . S
C732 C731 1.355 . S
C732 C734 1.419 . S
C733 C728 1.425 . S
C733 C730 1.409 . S
C733 C731 1.415 . S
C734 H724 0.930 . S
C734 C732 1.419 . S
C734 C735 1.362 . S
C735 H725 0.930 . S
C735 C728 1.409 . S
C735 C734 1.362 . S
H736 C742 0.930 . S
H737 C745 0.930 . S
H738 C746 0.930 . S
H739 C747 0.930 . S
H740 C750 0.930 . S
H741 C751 0.930 . S
C742 H736 0.930 . S
C742 C743 1.355 . S
C742 C744 1.415 . S
C743 C742 1.355 . S
C743 C745 1.419 . S
C744 C742 1.415 . S
C744 C749 1.425 . S
C744 C751 1.409 . S
C745 H737 0.930 . S
C745 C743 1.419 . S
C745 C746 1.362 . S
C746 H738 0.930 . S
C746 C745 1.362 . S
C746 C749 1.409 . S
C747 H739 0.930 . S
C747 C748 1.355 . S
C747 C749 1.415 . S
C748 C747 1.355 . S
C748 C750 1.419 . S
C749 C744 1.425 . S
C749 C746 1.409 . S
C749 C747 1.415 . S
C750 H740 0.930 . S
C750 C748 1.419 . S
C750 C751 1.362 . S
C751 H741 0.930 . S
C751 C744 1.409 . S
C751 C750 1.362 . S
H752 C758 0.930 . S
H753 C761 0.930 . S
H754 C762 0.930 . S
H755 C763 0.930 . S
H756 C766 0.930 . S
H757 C767 0.930 . S
C758 H752 0.930 . S
C758 C759 1.355 . S
C758 C760 1.415 . S
C759 C758 1.355 . S
C759 C761 1.419 . S
C760 C758 1.415 . S
C760 C765 1.425 1_556 S
C760 C767 1.409 . S
C761 H753 0.930 . S
C761 C759 1.419 . S
C761 C762 1.362 1_556 S
C762 H754 0.930 . S
C762 C761 1.362 1_554 S
C762 C765 1.409 . S
C763 H755 0.930 . S
C763 C764 1.355 . S
C763 C765 1.415 . S
C764 C763 1.355 . S
C764 C766 1.419 1_554 S
C765 C760 1.425 1_554 S
C765 C762 1.409 . S
C765 C763 1.415 . S
C766 H756 0.930 . S
C766 C764 1.419 1_556 S
C766 C767 1.362 . S
C767 H757 0.930 . S
C767 C760 1.409 . S
C767 C766 1.362 . S
H768 C774 0.930 . S
H769 C777 0.930 . S
H770 C778 0.930 . S
H771 C779 0.930 . S
H772 C782 0.930 . S
H773 C783 0.930 . S
C774 H768 0.930 . S
C774 C775 1.355 . S
C774 C776 1.415 1_554 S
C775 C774 1.355 . S
C775 C777 1.419 . S
C776 C774 1.415 1_556 S
C776 C781 1.425 . S
C776 C783 1.409 . S
C777 H769 0.930 . S
C777 C775 1.419 . S
C777 C778 1.362 . S
C778 H770 0.930 . S
C778 C777 1.362 . S
C778 C781 1.409 1_554 S
C779 H771 0.930 . S
C779 C780 1.355 . S
C779 C781 1.415 . S
C780 C779 1.355 . S
C780 C782 1.419 . S
C781 C776 1.425 . S
C781 C778 1.409 1_556 S
C781 C779 1.415 . S
C782 H772 0.930 . S
C782 C780 1.419 . S
C782 C783 1.362 . S
C783 H773 0.930 . S
C783 C776 1.409 . S
C783 C782 1.362 . S
H784 C790 0.930 . S
H785 C793 0.930 . S
H786 C794 0.930 . S
H787 C795 0.930 . S
H788 C798 0.930 . S
H789 C799 0.930 . S
C790 H784 0.930 . S
C790 C791 1.355 . S
C790 C792 1.415 . S
C791 C790 1.355 . S
C791 C793 1.419 . S
C792 C790 1.415 . S
C792 C797 1.425 . S
C792 C799 1.409 . S
C793 H785 0.930 . S
C793 C791 1.419 . S
C793 C794 1.362 . S
C794 H786 0.930 . S
C794 C793 1.362 . S
C794 C797 1.409 . S
C795 H787 0.930 . S
C795 C796 1.355 . S
C795 C797 1.415 . S
C796 C795 1.355 . S
C796 C798 1.419 . S
C797 C792 1.425 . S
C797 C794 1.409 . S
C797 C795 1.415 . S
C798 H788 0.930 . S
C798 C796 1.419 . S
C798 C799 1.362 . S
C799 H789 0.930 . S
C799 C792 1.409 . S
C799 C798 1.362 . S
H800 C806 0.930 . S
H801 C809 0.930 . S
H802 C810 0.930 . S
H803 C811 0.930 . S
H804 C814 0.930 . S
H805 C815 0.930 . S
C806 H800 0.930 . S
C806 C807 1.355 . S
C806 C808 1.415 . S
C807 C806 1.355 . S
C807 C809 1.419 . S
C808 C806 1.415 . S
C808 C813 1.425 . S
C808 C815 1.409 . S
C809 H801 0.930 . S
C809 C807 1.419 . S
C809 C810 1.362 . S
C810 H802 0.930 . S
C810 C809 1.362 . S
C810 C813 1.409 . S
C811 H803 0.930 . S
C811 C812 1.355 . S
C811 C813 1.415 . S
C812 C811 1.355 . S
C812 C814 1.419 . S
C813 C808 1.425 . S
C813 C810 1.409 . S
C813 C811 1.415 . S
C814 H804 0.930 . S
C814 C812 1.419 . S
C814 C815 1.362 . S
C815 H805 0.930 . S
C815 C808 1.409 . S
C815 C814 1.362 . S
H816 C822 0.930 . S
H817 C825 0.930 . S
H818 C826 0.930 1_554 S
H819 C827 0.930 . S
H820 C830 0.930 . S
H821 C831 0.930 . S
C822 H816 0.930 . S
C822 C823 1.355 . S
C822 C824 1.415 1_556 S
C823 C822 1.355 . S
C823 C825 1.419 . S
C824 C822 1.415 1_554 S
C824 C829 1.425 . S
C824 C831 1.409 . S
C825 H817 0.930 . S
C825 C823 1.419 . S
C825 C826 1.362 . S
C826 H818 0.930 1_556 S
C826 C825 1.362 . S
C826 C829 1.409 1_556 S
C827 H819 0.930 . S
C827 C828 1.355 . S
C827 C829 1.415 . S
C828 C827 1.355 . S
C828 C830 1.419 . S
C829 C824 1.425 . S
C829 C826 1.409 1_554 S
C829 C827 1.415 . S
C830 H820 0.930 . S
C830 C828 1.419 . S
C830 C831 1.362 . S
C831 H821 0.930 . S
C831 C824 1.409 . S
C831 C830 1.362 . S
H832 C838 0.930 . S
H833 C841 0.930 . S
H834 C842 0.930 . S
H835 C843 0.930 . S
H836 C846 0.930 . S
H837 C847 0.930 . S
C838 H832 0.930 . S
C838 C839 1.355 . S
C838 C840 1.415 . S
C839 C838 1.355 . S
C839 C841 1.419 . S
C840 C838 1.415 . S
C840 C845 1.425 . S
C840 C847 1.409 . S
C841 H833 0.930 . S
C841 C839 1.419 . S
C841 C842 1.362 . S
C842 H834 0.930 . S
C842 C841 1.362 . S
C842 C845 1.409 . S
C843 H835 0.930 . S
C843 C844 1.355 . S
C843 C845 1.415 . S
C844 C843 1.355 . S
C844 C846 1.419 . S
C845 C840 1.425 . S
C845 C842 1.409 . S
C845 C843 1.415 . S
C846 H836 0.930 . S
C846 C844 1.419 . S
C846 C847 1.362 . S
C847 H837 0.930 . S
C847 C840 1.409 . S
C847 C846 1.362 . S
H848 C854 0.930 . S
H849 C857 0.930 . S
H850 C858 0.930 1_556 S
H851 C859 0.930 . S
H852 C862 0.930 . S
H853 C863 0.930 . S
C854 H848 0.930 . S
C854 C855 1.355 . S
C854 C856 1.415 1_554 S
C855 C854 1.355 . S
C855 C857 1.419 . S
C856 C854 1.415 1_556 S
C856 C861 1.425 . S
C856 C863 1.409 . S
C857 H849 0.930 . S
C857 C855 1.419 . S
C857 C858 1.362 . S
C858 H850 0.930 1_554 S
C858 C857 1.362 . S
C858 C861 1.409 1_554 S
C859 H851 0.930 . S
C859 C860 1.355 . S
C859 C861 1.415 . S
C860 C859 1.355 . S
C860 C862 1.419 . S
C861 C856 1.425 . S
C861 C858 1.409 1_556 S
C861 C859 1.415 . S
C862 H852 0.930 . S
C862 C860 1.419 . S
C862 C863 1.362 . S
C863 H853 0.930 . S
C863 C856 1.409 . S
C863 C862 1.362 . S
H864 C870 0.930 . S
H865 C873 0.930 . S
H866 C874 0.930 . S
H867 C875 0.930 1_554 S
H868 C878 0.930 . S
H869 C879 0.930 . S
C870 H864 0.930 . S
C870 C871 1.355 . S
C870 C872 1.415 . S
C871 C870 1.355 . S
C871 C873 1.419 . S
C872 C870 1.415 . S
C872 C877 1.425 . S
C872 C879 1.409 1_554 S
C873 H865 0.930 . S
C873 C871 1.419 . S
C873 C874 1.362 . S
C874 H866 0.930 . S
C874 C873 1.362 . S
C874 C877 1.409 . S
C875 H867 0.930 1_556 S
C875 C876 1.355 . S
C875 C877 1.415 1_556 S
C876 C875 1.355 . S
C876 C878 1.419 . S
C877 C872 1.425 . S
C877 C874 1.409 . S
C877 C875 1.415 1_554 S
C878 H868 0.930 . S
C878 C876 1.419 . S
C878 C879 1.362 . S
C879 H869 0.930 . S
C879 C872 1.409 1_556 S
C879 C878 1.362 . S
H880 C886 0.930 . S
H881 C889 0.930 . S
H882 C890 0.930 . S
H883 C891 0.930 . S
H884 C894 0.930 . S
H885 C895 0.930 . S
C886 H880 0.930 . S
C886 C887 1.355 . S
C886 C888 1.415 . S
C887 C886 1.355 . S
C887 C889 1.419 . S
C888 C886 1.415 . S
C888 C893 1.425 . S
C888 C895 1.409 . S
C889 H881 0.930 . S
C889 C887 1.419 . S
C889 C890 1.362 . S
C890 H882 0.930 . S
C890 C889 1.362 . S
C890 C893 1.409 . S
C891 H883 0.930 . S
C891 C892 1.355 . S
C891 C893 1.415 . S
C892 C891 1.355 . S
C892 C894 1.419 . S
C893 C888 1.425 . S
C893 C890 1.409 . S
C893 C891 1.415 . S
C894 H884 0.930 . S
C894 C892 1.419 . S
C894 C895 1.362 . S
C895 H885 0.930 . S
C895 C888 1.409 . S
C895 C894 1.362 . S
H896 C902 0.930 . S
H897 C905 0.930 . S
H898 C906 0.930 . S
H899 C907 0.930 . S
H900 C910 0.930 . S
H901 C911 0.930 . S
C902 H896 0.930 . S
C902 C903 1.355 . S
C902 C904 1.415 . S
C903 C902 1.355 . S
C903 C905 1.419 . S
C904 C902 1.415 . S
C904 C909 1.425 . S
C904 C911 1.409 . S
C905 H897 0.930 . S
C905 C903 1.419 . S
C905 C906 1.362 . S
C906 H898 0.930 . S
C906 C905 1.362 . S
C906 C909 1.409 . S
C907 H899 0.930 . S
C907 C908 1.355 . S
C907 C909 1.415 . S
C908 C907 1.355 . S
C908 C910 1.419 . S
C909 C904 1.425 . S
C909 C906 1.409 . S
C909 C907 1.415 . S
C910 H900 0.930 . S
C910 C908 1.419 . S
C910 C911 1.362 . S
C911 H901 0.930 . S
C911 C904 1.409 . S
C911 C910 1.362 . S
H912 C918 0.930 . S
H913 C921 0.930 . S
H914 C922 0.930 . S
H915 C923 0.930 . S
H916 C926 0.930 . S
H917 C927 0.930 . S
C918 H912 0.930 . S
C918 C919 1.355 . S
C918 C920 1.415 1_556 S
C919 C918 1.355 . S
C919 C921 1.419 . S
C920 C918 1.415 1_554 S
C920 C925 1.425 . S
C920 C927 1.409 . S
C921 H913 0.930 . S
C921 C919 1.419 . S
C921 C922 1.362 . S
C922 H914 0.930 . S
C922 C921 1.362 . S
C922 C925 1.409 1_556 S
C923 H915 0.930 . S
C923 C924 1.355 . S
C923 C925 1.415 . S
C924 C923 1.355 . S
C924 C926 1.419 . S
C925 C920 1.425 . S
C925 C922 1.409 1_554 S
C925 C923 1.415 . S
C926 H916 0.930 . S
C926 C924 1.419 . S
C926 C927 1.362 . S
C927 H917 0.930 . S
C927 C920 1.409 . S
C927 C926 1.362 . S
H928 C934 0.930 . S
H929 C937 0.930 . S
H930 C938 0.930 . S
H931 C939 0.930 . S
H932 C942 0.930 . S
H933 C943 0.930 . S
C934 H928 0.930 . S
C934 C935 1.355 . S
C934 C936 1.415 . S
C935 C934 1.355 . S
C935 C937 1.419 . S
C936 C934 1.415 . S
C936 C941 1.425 1_556 S
C936 C943 1.409 . S
C937 H929 0.930 . S
C937 C935 1.419 . S
C937 C938 1.362 1_556 S
C938 H930 0.930 . S
C938 C937 1.362 1_554 S
C938 C941 1.409 . S
C939 H931 0.930 . S
C939 C940 1.355 . S
C939 C941 1.415 . S
C940 C939 1.355 . S
C940 C942 1.419 1_554 S
C941 C936 1.425 1_554 S
C941 C938 1.409 . S
C941 C939 1.415 . S
C942 H932 0.930 . S
C942 C940 1.419 1_556 S
C942 C943 1.362 . S
C943 H933 0.930 . S
C943 C936 1.409 . S
C943 C942 1.362 . S
H944 C950 0.930 . S
H945 C953 0.930 . S
H946 C954 0.930 . S
H947 C955 0.930 . S
H948 C958 0.930 . S
H949 C959 0.930 . S
C950 H944 0.930 . S
C950 C951 1.355 . S
C950 C952 1.415 . S
C951 C950 1.355 . S
C951 C953 1.419 . S
C952 C950 1.415 . S
C952 C957 1.425 . S
C952 C959 1.409 . S
C953 H945 0.930 . S
C953 C951 1.419 . S
C953 C954 1.362 . S
C954 H946 0.930 . S
C954 C953 1.362 . S
C954 C957 1.409 . S
C955 H947 0.930 . S
C955 C956 1.355 . S
C955 C957 1.415 . S
C956 C955 1.355 . S
C956 C958 1.419 . S
C957 C952 1.425 . S
C957 C954 1.409 . S
C957 C955 1.415 . S
C958 H948 0.930 . S
C958 C956 1.419 . S
C958 C959 1.362 . S
C959 H949 0.930 . S
C959 C952 1.409 . S
C959 C958 1.362 . S
H960 C966 0.930 1_556 S
H961 C969 0.930 . S
H962 C970 0.930 . S
H963 C971 0.930 . S
H964 C974 0.930 . S
H965 C975 0.930 . S
C966 H960 0.930 1_554 S
C966 C967 1.355 . S
C966 C968 1.415 1_554 S
C967 C966 1.355 . S
C967 C969 1.419 . S
C968 C966 1.415 1_556 S
C968 C973 1.425 . S
C968 C975 1.409 . S
C969 H961 0.930 . S
C969 C967 1.419 . S
C969 C970 1.362 . S
C970 H962 0.930 . S
C970 C969 1.362 . S
C970 C973 1.409 1_554 S
C971 H963 0.930 . S
C971 C972 1.355 . S
C971 C973 1.415 . S
C972 C971 1.355 . S
C972 C974 1.419 . S
C973 C968 1.425 . S
C973 C970 1.409 1_556 S
C973 C971 1.415 . S
C974 H964 0.930 . S
C974 C972 1.419 . S
C974 C975 1.362 . S
C975 H965 0.930 . S
C975 C968 1.409 . S
C975 C974 1.362 . S
H976 C982 0.930 . S
H977 C985 0.930 . S
H978 C986 0.930 . S
H979 C987 0.930 . S
H980 C990 0.930 . S
H981 C991 0.930 . S
C982 H976 0.930 . S
C982 C983 1.355 . S
C982 C984 1.415 1_655 S
C983 C982 1.355 . S
C983 C985 1.419 . S
C984 C982 1.415 1_455 S
C984 C989 1.425 1_455 S
C984 C991 1.409 . S
C985 H977 0.930 . S
C985 C983 1.419 . S
C985 C986 1.362 . S
C986 H978 0.930 . S
C986 C985 1.362 . S
C986 C989 1.409 . S
C987 H979 0.930 . S
C987 C988 1.355 . S
C987 C989 1.415 1_455 S
C988 C987 1.355 . S
C988 C990 1.419 . S
C989 C984 1.425 1_655 S
C989 C986 1.409 . S
C989 C987 1.415 1_655 S
C990 H980 0.930 . S
C990 C988 1.419 . S
C990 C991 1.362 . S
C991 H981 0.930 . S
C991 C984 1.409 . S
C991 C990 1.362 . S
H992 C998 0.930 . S
H993 C1001 0.930 . S
H994 C1002 0.930 . S
H995 C1003 0.930 . S
H996 C1006 0.930 . S
H997 C1007 0.930 . S
C998 H992 0.930 . S
C998 C999 1.355 . S
C998 C1000 1.415 . S
C999 C998 1.355 . S
C999 C1001 1.419 . S
C1000 C998 1.415 . S
C1000 C1005 1.425 . S
C1000 C1007 1.409 . S
C1001 H993 0.930 . S
C1001 C999 1.419 . S
C1001 C1002 1.362 . S
C1002 H994 0.930 . S
C1002 C1001 1.362 . S
C1002 C1005 1.409 . S
C1003 H995 0.930 . S
C1003 C1004 1.355 . S
C1003 C1005 1.415 . S
C1004 C1003 1.355 . S
C1004 C1006 1.419 . S
C1005 C1000 1.425 . S
C1005 C1002 1.409 . S
C1005 C1003 1.415 . S
C1006 H996 0.930 . S
C1006 C1004 1.419 . S
C1006 C1007 1.362 . S
C1007 H997 0.930 . S
C1007 C1000 1.409 . S
C1007 C1006 1.362 . S
H1008 C1014 0.930 . S
H1009 C1017 0.930 . S
H1010 C1018 0.930 . S
H1011 C1019 0.930 . S
H1012 C1022 0.930 . S
H1013 C1023 0.930 . S
C1014 H1008 0.930 . S
C1014 C1015 1.355 . S
C1014 C1016 1.415 . S
C1015 C1014 1.355 . S
C1015 C1017 1.419 . S
C1016 C1014 1.415 . S
C1016 C1021 1.425 . S
C1016 C1023 1.409 1_556 S
C1017 H1009 0.930 . S
C1017 C1015 1.419 . S
C1017 C1018 1.362 . S
C1018 H1010 0.930 . S
C1018 C1017 1.362 . S
C1018 C1021 1.409 . S
C1019 H1011 0.930 . S
C1019 C1020 1.355 1_556 S
C1019 C1021 1.415 . S
C1020 C1019 1.355 1_554 S
C1020 C1022 1.419 . S
C1021 C1016 1.425 . S
C1021 C1018 1.409 . S
C1021 C1019 1.415 . S
C1022 H1012 0.930 . S
C1022 C1020 1.419 . S
C1022 C1023 1.362 . S
C1023 H1013 0.930 . S
C1023 C1016 1.409 1_554 S
C1023 C1022 1.362 . S
H1024 C1030 0.930 . S
H1025 C1033 0.930 . S
H1026 C1034 0.930 . S
H1027 C1035 0.930 . S
H1028 C1038 0.930 . S
H1029 C1039 0.930 . S
C1030 H1024 0.930 . S
C1030 C1031 1.355 . S
C1030 C1032 1.415 . S
C1031 C1030 1.355 . S
C1031 C1033 1.419 . S
C1032 C1030 1.415 . S
C1032 C1037 1.425 . S
C1032 C1039 1.409 . S
C1033 H1025 0.930 . S
C1033 C1031 1.419 . S
C1033 C1034 1.362 . S
C1034 H1026 0.930 . S
C1034 C1033 1.362 . S
C1034 C1037 1.409 . S
C1035 H1027 0.930 . S
C1035 C1036 1.355 . S
C1035 C1037 1.415 . S
C1036 C1035 1.355 . S
C1036 C1038 1.419 . S
C1037 C1032 1.425 . S
C1037 C1034 1.409 . S
C1037 C1035 1.415 . S
C1038 H1028 0.930 . S
C1038 C1036 1.419 . S
C1038 C1039 1.362 . S
C1039 H1029 0.930 . S
C1039 C1032 1.409 . S
C1039 C1038 1.362 . S
H1040 C1046 0.930 . S
H1041 C1049 0.930 . S
H1042 C1050 0.930 . S
H1043 C1051 0.930 . S
H1044 C1054 0.930 . S
H1045 C1055 0.930 . S
C1046 H1040 0.930 . S
C1046 C1047 1.355 . S
C1046 C1048 1.415 . S
C1047 C1046 1.355 . S
C1047 C1049 1.419 . S
C1048 C1046 1.415 . S
C1048 C1053 1.425 . S
C1048 C1055 1.409 . S
C1049 H1041 0.930 . S
C1049 C1047 1.419 . S
C1049 C1050 1.362 . S
C1050 H1042 0.930 . S
C1050 C1049 1.362 . S
C1050 C1053 1.409 . S
C1051 H1043 0.930 . S
C1051 C1052 1.355 . S
C1051 C1053 1.415 . S
C1052 C1051 1.355 . S
C1052 C1054 1.419 . S
C1053 C1048 1.425 . S
C1053 C1050 1.409 . S
C1053 C1051 1.415 . S
C1054 H1044 0.930 . S
C1054 C1052 1.419 . S
C1054 C1055 1.362 . S
C1055 H1045 0.930 . S
C1055 C1048 1.409 . S
C1055 C1054 1.362 . S
H1056 C1062 0.930 1_554 S
H1057 C1065 0.930 . S
H1058 C1066 0.930 . S
H1059 C1067 0.930 . S
H1060 C1070 0.930 . S
H1061 C1071 0.930 . S
C1062 H1056 0.930 1_556 S
C1062 C1063 1.355 . S
C1062 C1064 1.415 1_556 S
C1063 C1062 1.355 . S
C1063 C1065 1.419 . S
C1064 C1062 1.415 1_554 S
C1064 C1069 1.425 . S
C1064 C1071 1.409 . S
C1065 H1057 0.930 . S
C1065 C1063 1.419 . S
C1065 C1066 1.362 . S
C1066 H1058 0.930 . S
C1066 C1065 1.362 . S
C1066 C1069 1.409 1_556 S
C1067 H1059 0.930 . S
C1067 C1068 1.355 . S
C1067 C1069 1.415 . S
C1068 C1067 1.355 . S
C1068 C1070 1.419 . S
C1069 C1064 1.425 . S
C1069 C1066 1.409 1_554 S
C1069 C1067 1.415 . S
C1070 H1060 0.930 . S
C1070 C1068 1.419 . S
C1070 C1071 1.362 . S
C1071 H1061 0.930 . S
C1071 C1064 1.409 . S
C1071 C1070 1.362 . S
H1072 C1078 0.934 . S
H1073 C1081 0.930 . S
H1074 C1082 0.930 . S
H1075 C1083 0.930 . S
H1076 C1086 0.930 . S
H1077 C1087 0.930 . S
C1078 H1072 0.934 . S
C1078 C1079 1.355 1_556 S
C1078 C1080 1.411 1_456 S
C1079 C1078 1.355 1_554 S
C1079 C1081 1.419 . S
C1080 C1078 1.411 1_654 S
C1080 C1085 1.425 1_655 S
C1080 C1087 1.409 . S
C1081 H1073 0.930 . S
C1081 C1079 1.419 . S
C1081 C1082 1.362 . S
C1082 H1074 0.930 . S
C1082 C1081 1.362 . S
C1082 C1085 1.409 . S
C1083 H1075 0.930 . S
C1083 C1084 1.355 . S
C1083 C1085 1.415 1_655 S
C1084 C1083 1.355 . S
C1084 C1086 1.419 . S
C1085 C1080 1.425 1_455 S
C1085 C1082 1.409 . S
C1085 C1083 1.415 1_455 S
C1086 H1076 0.930 . S
C1086 C1084 1.419 . S
C1086 C1087 1.362 . S
C1087 H1077 0.930 . S
C1087 C1080 1.409 . S
C1087 C1086 1.362 . S
H1088 C1094 0.930 . S
H1089 C1097 0.930 . S
H1090 C1098 0.930 . S
H1091 C1099 0.930 . S
H1092 C1102 0.930 . S
H1093 C1103 0.930 . S
C1094 H1088 0.930 . S
C1094 C1095 1.355 1_554 S
C1094 C1096 1.415 . S
C1095 C1094 1.355 1_556 S
C1095 C1097 1.419 . S
C1096 C1094 1.415 . S
C1096 C1101 1.425 . S
C1096 C1103 1.409 . S
C1097 H1089 0.930 . S
C1097 C1095 1.419 . S
C1097 C1098 1.362 . S
C1098 H1090 0.930 . S
C1098 C1097 1.362 . S
C1098 C1101 1.409 1_556 S
C1099 H1091 0.930 . S
C1099 C1100 1.355 . S
C1099 C1101 1.415 . S
C1100 C1099 1.355 . S
C1100 C1102 1.419 . S
C1101 C1096 1.425 . S
C1101 C1098 1.409 1_554 S
C1101 C1099 1.415 . S
C1102 H1092 0.930 . S
C1102 C1100 1.419 . S
C1102 C1103 1.362 . S
C1103 H1093 0.930 . S
C1103 C1096 1.409 . S
C1103 C1102 1.362 . S
H1104 C1110 0.930 . S
H1105 C1113 0.930 . S
H1106 C1114 0.930 . S
H1107 C1115 0.930 . S
H1108 C1118 0.930 . S
H1109 C1119 0.930 . S
C1110 H1104 0.930 . S
C1110 C1111 1.355 . S
C1110 C1112 1.415 1_455 S
C1111 C1110 1.355 . S
C1111 C1113 1.419 . S
C1112 C1110 1.415 1_655 S
C1112 C1117 1.425 1_655 S
C1112 C1119 1.409 . S
C1113 H1105 0.930 . S
C1113 C1111 1.419 . S
C1113 C1114 1.362 . S
C1114 H1106 0.930 . S
C1114 C1113 1.362 . S
C1114 C1117 1.409 . S
C1115 H1107 0.930 . S
C1115 C1116 1.355 . S
C1115 C1117 1.415 1_655 S
C1116 C1115 1.355 . S
C1116 C1118 1.419 . S
C1117 C1112 1.425 1_455 S
C1117 C1114 1.409 . S
C1117 C1115 1.415 1_455 S
C1118 H1108 0.930 . S
C1118 C1116 1.419 . S
C1118 C1119 1.362 . S
C1119 H1109 0.930 . S
C1119 C1112 1.409 . S
C1119 C1118 1.362 . S
H1120 C1126 0.930 . S
H1121 C1129 0.930 . S
H1122 C1130 0.930 . S
H1123 C1131 0.930 . S
H1124 C1134 0.930 . S
H1125 C1135 0.930 . S
C1126 H1120 0.930 . S
C1126 C1127 1.355 . S
C1126 C1128 1.415 . S
C1127 C1126 1.355 . S
C1127 C1129 1.419 . S
C1128 C1126 1.415 . S
C1128 C1133 1.425 . S
C1128 C1135 1.409 . S
C1129 H1121 0.930 . S
C1129 C1127 1.419 . S
C1129 C1130 1.362 . S
C1130 H1122 0.930 . S
C1130 C1129 1.362 . S
C1130 C1133 1.409 . S
C1131 H1123 0.930 . S
C1131 C1132 1.355 . S
C1131 C1133 1.415 . S
C1132 C1131 1.355 . S
C1132 C1134 1.419 . S
C1133 C1128 1.425 . S
C1133 C1130 1.409 . S
C1133 C1131 1.415 . S
C1134 H1124 0.930 . S
C1134 C1132 1.419 . S
C1134 C1135 1.362 . S
C1135 H1125 0.930 . S
C1135 C1128 1.409 . S
C1135 C1134 1.362 . S
H1136 C1142 0.930 . S
H1137 C1145 0.930 . S
H1138 C1146 0.930 . S
H1139 C1147 0.930 . S
H1140 C1150 0.930 . S
H1141 C1151 0.930 . S
C1142 H1136 0.930 . S
C1142 C1143 1.355 . S
C1142 C1144 1.415 . S
C1143 C1142 1.355 . S
C1143 C1145 1.419 . S
C1144 C1142 1.415 . S
C1144 C1149 1.425 . S
C1144 C1151 1.409 . S
C1145 H1137 0.930 . S
C1145 C1143 1.419 . S
C1145 C1146 1.362 . S
C1146 H1138 0.930 . S
C1146 C1145 1.362 . S
C1146 C1149 1.409 . S
C1147 H1139 0.930 . S
C1147 C1148 1.354 . S
C1147 C1149 1.415 1_556 S
C1148 C1147 1.354 . S
C1148 C1150 1.421 1_556 S
C1149 C1144 1.425 . S
C1149 C1146 1.409 . S
C1149 C1147 1.415 1_554 S
C1150 H1140 0.930 . S
C1150 C1148 1.421 1_554 S
C1150 C1151 1.362 . S
C1151 H1141 0.930 . S
C1151 C1144 1.409 . S
C1151 C1150 1.362 . S
H1152 C1158 0.930 . S
H1153 C1161 0.930 . S
H1154 C1162 0.930 . S
H1155 C1163 0.930 . S
H1156 C1166 0.930 . S
H1157 C1167 0.930 . S
C1158 H1152 0.930 . S
C1158 C1159 1.355 . S
C1158 C1160 1.415 . S
C1159 C1158 1.355 . S
C1159 C1161 1.419 . S
C1160 C1158 1.415 . S
C1160 C1165 1.425 . S
C1160 C1167 1.409 . S
C1161 H1153 0.930 . S
C1161 C1159 1.419 . S
C1161 C1162 1.362 . S
C1162 H1154 0.930 . S
C1162 C1161 1.362 . S
C1162 C1165 1.409 . S
C1163 H1155 0.930 . S
C1163 C1164 1.355 . S
C1163 C1165 1.415 . S
C1164 C1163 1.355 . S
C1164 C1166 1.419 . S
C1165 C1160 1.425 . S
C1165 C1162 1.409 . S
C1165 C1163 1.415 . S
C1166 H1156 0.930 . S
C1166 C1164 1.419 . S
C1166 C1167 1.362 . S
C1167 H1157 0.930 . S
C1167 C1160 1.409 . S
C1167 C1166 1.362 . S
H1168 C1174 0.930 . S
H1169 C1177 0.930 . S
H1170 C1178 0.930 . S
H1171 C1179 0.930 . S
H1172 C1182 0.930 . S
H1173 C1183 0.930 . S
C1174 H1168 0.930 . S
C1174 C1175 1.355 . S
C1174 C1176 1.415 . S
C1175 C1174 1.355 . S
C1175 C1177 1.419 . S
C1176 C1174 1.415 . S
C1176 C1181 1.425 . S
C1176 C1183 1.409 . S
C1177 H1169 0.930 . S
C1177 C1175 1.419 . S
C1177 C1178 1.362 . S
C1178 H1170 0.930 . S
C1178 C1177 1.362 . S
C1178 C1181 1.409 . S
C1179 H1171 0.930 . S
C1179 C1180 1.355 . S
C1179 C1181 1.415 . S
C1180 C1179 1.355 . S
C1180 C1182 1.419 . S
C1181 C1176 1.425 . S
C1181 C1178 1.409 . S
C1181 C1179 1.415 . S
C1182 H1172 0.930 . S
C1182 C1180 1.419 . S
C1182 C1183 1.362 . S
C1183 H1173 0.930 . S
C1183 C1176 1.409 . S
C1183 C1182 1.362 . S
H1184 C1190 0.931 . S
H1185 C1193 0.930 . S
H1186 C1194 0.930 . S
H1187 C1195 0.930 . S
H1188 C1198 0.930 . S
H1189 C1199 0.930 . S
C1190 H1184 0.931 . S
C1190 C1191 1.351 1_556 S
C1190 C1192 1.417 . S
C1191 C1190 1.351 1_554 S
C1191 C1193 1.419 . S
C1192 C1190 1.417 . S
C1192 C1197 1.425 . S
C1192 C1199 1.409 . S
C1193 H1185 0.930 . S
C1193 C1191 1.419 . S
C1193 C1194 1.362 . S
C1194 H1186 0.930 . S
C1194 C1193 1.362 . S
C1194 C1197 1.409 1_554 S
C1195 H1187 0.930 . S
C1195 C1196 1.355 . S
C1195 C1197 1.415 . S
C1196 C1195 1.355 . S
C1196 C1198 1.419 . S
C1197 C1192 1.425 . S
C1197 C1194 1.409 1_556 S
C1197 C1195 1.415 . S
C1198 H1188 0.930 . S
C1198 C1196 1.419 . S
C1198 C1199 1.362 . S
C1199 H1189 0.930 . S
C1199 C1192 1.409 . S
C1199 C1198 1.362 . S
H1200 C1206 0.930 . S
H1201 C1209 0.930 . S
H1202 C1210 0.930 . S
H1203 C1211 0.930 . S
H1204 C1214 0.930 . S
H1205 C1215 0.930 . S
C1206 H1200 0.930 . S
C1206 C1207 1.355 . S
C1206 C1208 1.415 . S
C1207 C1206 1.355 . S
C1207 C1209 1.419 . S
C1208 C1206 1.415 . S
C1208 C1213 1.425 1_455 S
C1208 C1215 1.409 1_556 S
C1209 H1201 0.930 . S
C1209 C1207 1.419 . S
C1209 C1210 1.362 1_455 S
C1210 H1202 0.930 . S
C1210 C1209 1.362 1_655 S
C1210 C1213 1.409 . S
C1211 H1203 0.930 . S
C1211 C1212 1.355 1_556 S
C1211 C1213 1.415 . S
C1212 C1211 1.355 1_554 S
C1212 C1214 1.419 . S
C1213 C1208 1.425 1_655 S
C1213 C1210 1.409 . S
C1213 C1211 1.415 . S
C1214 H1204 0.930 . S
C1214 C1212 1.419 . S
C1214 C1215 1.362 1_655 S
C1215 H1205 0.930 . S
C1215 C1208 1.409 1_554 S
C1215 C1214 1.362 1_455 S
H1216 C1222 0.930 . S
H1217 C1225 0.930 . S
H1218 C1226 0.930 . S
H1219 C1227 0.930 . S
H1220 C1230 0.930 . S
H1221 C1231 0.930 . S
C1222 H1216 0.930 . S
C1222 C1223 1.355 . S
C1222 C1224 1.415 . S
C1223 C1222 1.355 . S
C1223 C1225 1.419 . S
C1224 C1222 1.415 . S
C1224 C1229 1.425 . S
C1224 C1231 1.409 . S
C1225 H1217 0.930 . S
C1225 C1223 1.419 . S
C1225 C1226 1.362 . S
C1226 H1218 0.930 . S
C1226 C1225 1.362 . S
C1226 C1229 1.409 . S
C1227 H1219 0.930 . S
C1227 C1228 1.355 . S
C1227 C1229 1.415 . S
C1228 C1227 1.355 . S
C1228 C1230 1.419 . S
C1229 C1224 1.425 . S
C1229 C1226 1.409 . S
C1229 C1227 1.415 . S
C1230 H1220 0.930 . S
C1230 C1228 1.419 . S
C1230 C1231 1.362 . S
C1231 H1221 0.930 . S
C1231 C1224 1.409 . S
C1231 C1230 1.362 . S
H1232 C1238 0.930 . S
H1233 C1241 0.930 . S
H1234 C1242 0.930 . S
H1235 C1243 0.925 1_554 S
H1236 C1246 0.930 . S
H1237 C1247 0.930 . S
C1238 H1232 0.930 . S
C1238 C1239 1.355 . S
C1238 C1240 1.415 . S
C1239 C1238 1.355 . S
C1239 C1241 1.419 . S
C1240 C1238 1.415 . S
C1240 C1245 1.425 . S
C1240 C1247 1.409 . S
C1241 H1233 0.930 . S
C1241 C1239 1.419 . S
C1241 C1242 1.362 . S
C1242 H1234 0.930 . S
C1242 C1241 1.362 . S
C1242 C1245 1.409 . S
C1243 H1235 0.925 1_556 S
C1243 C1244 1.355 . S
C1243 C1245 1.419 . S
C1244 C1243 1.355 . S
C1244 C1246 1.432 . S
C1245 C1240 1.425 . S
C1245 C1242 1.409 . S
C1245 C1243 1.419 . S
C1246 H1236 0.930 . S
C1246 C1244 1.432 . S
C1246 C1247 1.362 . S
C1247 H1237 0.930 . S
C1247 C1240 1.409 . S
C1247 C1246 1.362 . S
H1248 C1254 0.930 . S
H1249 C1257 0.930 . S
H1250 C1258 0.931 . S
H1251 C1259 0.930 . S
H1252 C1262 0.930 . S
H1253 C1263 0.930 . S
C1254 H1248 0.930 . S
C1254 C1255 1.355 . S
C1254 C1256 1.415 1_554 S
C1255 C1254 1.355 . S
C1255 C1257 1.419 . S
C1256 C1254 1.415 1_556 S
C1256 C1261 1.425 . S
C1256 C1263 1.409 . S
C1257 H1249 0.930 . S
C1257 C1255 1.419 . S
C1257 C1258 1.359 1_554 S
C1258 H1250 0.931 . S
C1258 C1257 1.359 1_556 S
C1258 C1261 1.411 . S
C1259 H1251 0.930 . S
C1259 C1260 1.355 . S
C1259 C1261 1.415 . S
C1260 C1259 1.355 . S
C1260 C1262 1.419 . S
C1261 C1256 1.425 . S
C1261 C1258 1.411 . S
C1261 C1259 1.415 . S
C1262 H1252 0.930 . S
C1262 C1260 1.419 . S
C1262 C1263 1.362 . S
C1263 H1253 0.930 . S
C1263 C1256 1.409 . S
C1263 C1262 1.362 . S
H1264 C1270 0.930 . S
H1265 C1273 0.930 . S
H1266 C1274 0.930 . S
H1267 C1275 0.930 . S
H1268 C1278 0.930 . S
H1269 C1279 0.930 . S
C1270 H1264 0.930 . S
C1270 C1271 1.355 . S
C1270 C1272 1.415 . S
C1271 C1270 1.355 . S
C1271 C1273 1.419 . S
C1272 C1270 1.415 . S
C1272 C1277 1.425 1_655 S
C1272 C1279 1.409 . S
C1273 H1265 0.930 . S
C1273 C1271 1.419 . S
C1273 C1274 1.362 1_655 S
C1274 H1266 0.930 . S
C1274 C1273 1.362 1_455 S
C1274 C1277 1.409 . S
C1275 H1267 0.930 . S
C1275 C1276 1.355 . S
C1275 C1277 1.415 . S
C1276 C1275 1.355 . S
C1276 C1278 1.419 . S
C1277 C1272 1.425 1_455 S
C1277 C1274 1.409 . S
C1277 C1275 1.415 . S
C1278 H1268 0.930 . S
C1278 C1276 1.419 . S
C1278 C1279 1.362 1_455 S
C1279 H1269 0.930 . S
C1279 C1272 1.409 . S
C1279 C1278 1.362 1_655 S
H1280 C1286 0.930 . S
H1281 C1289 0.930 . S
H1282 C1290 0.930 . S
H1283 C1291 0.930 . S
H1284 C1294 0.930 . S
H1285 C1295 0.930 . S
C1286 H1280 0.930 . S
C1286 C1287 1.355 1_554 S
C1286 C1288 1.415 . S
C1287 C1286 1.355 1_556 S
C1287 C1289 1.419 . S
C1288 C1286 1.415 . S
C1288 C1293 1.425 . S
C1288 C1295 1.409 . S
C1289 H1281 0.930 . S
C1289 C1287 1.419 . S
C1289 C1290 1.362 . S
C1290 H1282 0.930 . S
C1290 C1289 1.362 . S
C1290 C1293 1.409 1_556 S
C1291 H1283 0.930 . S
C1291 C1292 1.355 . S
C1291 C1293 1.415 . S
C1292 C1291 1.355 . S
C1292 C1294 1.419 . S
C1293 C1288 1.425 . S
C1293 C1290 1.409 1_554 S
C1293 C1291 1.415 . S
C1294 H1284 0.930 . S
C1294 C1292 1.419 . S
C1294 C1295 1.362 . S
C1295 H1285 0.930 . S
C1295 C1288 1.409 . S
C1295 C1294 1.362 . S
H1296 C1302 0.930 . S
H1297 C1305 0.930 1_556 S
H1298 C1306 0.930 . S
H1299 C1307 0.930 . S
H1300 C1310 0.930 . S
H1301 C1311 0.930 . S
C1302 H1296 0.930 . S
C1302 C1303 1.355 1_554 S
C1302 C1304 1.415 . S
C1303 C1302 1.355 1_556 S
C1303 C1305 1.419 1_556 S
C1304 C1302 1.415 . S
C1304 C1309 1.425 1_655 S
C1304 C1311 1.409 1_655 S
C1305 H1297 0.930 1_554 S
C1305 C1303 1.419 1_554 S
C1305 C1306 1.362 . S
C1306 H1298 0.930 . S
C1306 C1305 1.362 . S
C1306 C1309 1.409 1_655 S
C1307 H1299 0.930 . S
C1307 C1308 1.355 . S
C1307 C1309 1.415 . S
C1308 C1307 1.355 . S
C1308 C1310 1.419 . S
C1309 C1304 1.425 1_455 S
C1309 C1306 1.409 1_455 S
C1309 C1307 1.415 . S
C1310 H1300 0.930 . S
C1310 C1308 1.419 . S
C1310 C1311 1.362 . S
C1311 H1301 0.930 . S
C1311 C1304 1.409 1_455 S
C1311 C1310 1.362 . S
H1312 C1318 0.930 . S
H1313 C1321 0.930 . S
H1314 C1322 0.930 . S
H1315 C1323 0.930 . S
H1316 C1326 0.930 . S
H1317 C1327 0.930 . S
C1318 H1312 0.930 . S
C1318 C1319 1.355 . S
C1318 C1320 1.415 . S
C1319 C1318 1.355 . S
C1319 C1321 1.419 . S
C1320 C1318 1.415 . S
C1320 C1325 1.425 . S
C1320 C1327 1.409 . S
C1321 H1313 0.930 . S
C1321 C1319 1.419 . S
C1321 C1322 1.362 . S
C1322 H1314 0.930 . S
C1322 C1321 1.362 . S
C1322 C1325 1.409 . S
C1323 H1315 0.930 . S
C1323 C1324 1.355 . S
C1323 C1325 1.415 . S
C1324 C1323 1.355 . S
C1324 C1326 1.419 . S
C1325 C1320 1.425 . S
C1325 C1322 1.409 . S
C1325 C1323 1.415 . S
C1326 H1316 0.930 . S
C1326 C1324 1.419 . S
C1326 C1327 1.362 . S
C1327 H1317 0.930 . S
C1327 C1320 1.409 . S
C1327 C1326 1.362 . S
H1328 C1334 0.930 . S
H1329 C1337 0.930 . S
H1330 C1338 0.930 . S
H1331 C1339 0.930 . S
H1332 C1342 0.930 . S
H1333 C1343 0.930 . S
C1334 H1328 0.930 . S
C1334 C1335 1.355 . S
C1334 C1336 1.415 . S
C1335 C1334 1.355 . S
C1335 C1337 1.419 . S
C1336 C1334 1.415 . S
C1336 C1341 1.425 . S
C1336 C1343 1.409 . S
C1337 H1329 0.930 . S
C1337 C1335 1.419 . S
C1337 C1338 1.362 . S
C1338 H1330 0.930 . S
C1338 C1337 1.362 . S
C1338 C1341 1.409 . S
C1339 H1331 0.930 . S
C1339 C1340 1.355 . S
C1339 C1341 1.415 . S
C1340 C1339 1.355 . S
C1340 C1342 1.419 . S
C1341 C1336 1.425 . S
C1341 C1338 1.409 . S
C1341 C1339 1.415 . S
C1342 H1332 0.930 . S
C1342 C1340 1.419 . S
C1342 C1343 1.362 . S
C1343 H1333 0.930 . S
C1343 C1336 1.409 . S
C1343 C1342 1.362 . S
H1344 C1350 0.930 . S
H1345 C1353 0.930 . S
H1346 C1354 0.930 . S
H1347 C1355 0.930 . S
H1348 C1358 0.930 . S
H1349 C1359 0.930 . S
C1350 H1344 0.930 . S
C1350 C1351 1.355 . S
C1350 C1352 1.415 . S
C1351 C1350 1.355 . S
C1351 C1353 1.419 . S
C1352 C1350 1.415 . S
C1352 C1357 1.425 . S
C1352 C1359 1.409 . S
C1353 H1345 0.930 . S
C1353 C1351 1.419 . S
C1353 C1354 1.362 . S
C1354 H1346 0.930 . S
C1354 C1353 1.362 . S
C1354 C1357 1.409 . S
C1355 H1347 0.930 . S
C1355 C1356 1.355 . S
C1355 C1357 1.415 . S
C1356 C1355 1.355 . S
C1356 C1358 1.419 . S
C1357 C1352 1.425 . S
C1357 C1354 1.409 . S
C1357 C1355 1.415 . S
C1358 H1348 0.930 . S
C1358 C1356 1.419 . S
C1358 C1359 1.362 . S
C1359 H1349 0.930 . S
C1359 C1352 1.409 . S
C1359 C1358 1.362 . S
H1360 C1366 0.930 . S
H1361 C1369 0.930 . S
H1362 C1370 0.930 . S
H1363 C1371 0.930 . S
H1364 C1374 0.930 . S
H1365 C1375 0.930 . S
C1366 H1360 0.930 . S
C1366 C1367 1.355 . S
C1366 C1368 1.415 . S
C1367 C1366 1.355 . S
C1367 C1369 1.419 . S
C1368 C1366 1.415 . S
C1368 C1373 1.425 . S
C1368 C1375 1.409 1_554 S
C1369 H1361 0.930 . S
C1369 C1367 1.419 . S
C1369 C1370 1.362 . S
C1370 H1362 0.930 . S
C1370 C1369 1.362 . S
C1370 C1373 1.409 . S
C1371 H1363 0.930 . S
C1371 C1372 1.355 1_554 S
C1371 C1373 1.415 . S
C1372 C1371 1.355 1_556 S
C1372 C1374 1.419 . S
C1373 C1368 1.425 . S
C1373 C1370 1.409 . S
C1373 C1371 1.415 . S
C1374 H1364 0.930 . S
C1374 C1372 1.419 . S
C1374 C1375 1.362 . S
C1375 H1365 0.930 . S
C1375 C1368 1.409 1_556 S
C1375 C1374 1.362 . S
H1376 C1382 0.930 . S
H1377 C1385 0.930 . S
H1378 C1386 0.930 . S
H1379 C1387 0.930 . S
H1380 C1390 0.930 . S
H1381 C1391 0.930 . S
C1382 H1376 0.930 . S
C1382 C1383 1.355 . S
C1382 C1384 1.415 . S
C1383 C1382 1.355 . S
C1383 C1385 1.419 . S
C1384 C1382 1.415 . S
C1384 C1389 1.425 1_554 S
C1384 C1391 1.409 . S
C1385 H1377 0.930 . S
C1385 C1383 1.419 . S
C1385 C1386 1.362 1_554 S
C1386 H1378 0.930 . S
C1386 C1385 1.362 1_556 S
C1386 C1389 1.409 . S
C1387 H1379 0.930 . S
C1387 C1388 1.355 . S
C1387 C1389 1.415 . S
C1388 C1387 1.355 . S
C1388 C1390 1.419 1_556 S
C1389 C1384 1.425 1_556 S
C1389 C1386 1.409 . S
C1389 C1387 1.415 . S
C1390 H1380 0.930 . S
C1390 C1388 1.419 1_554 S
C1390 C1391 1.362 . S
C1391 H1381 0.930 . S
C1391 C1384 1.409 . S
C1391 C1390 1.362 . S
H1392 C1398 0.930 . S
H1393 C1401 0.930 . S
H1394 C1402 0.930 1_655 S
H1395 C1403 0.930 . S
H1396 C1406 0.930 . S
H1397 C1407 0.930 1_455 S
C1398 H1392 0.930 . S
C1398 C1399 1.355 . S
C1398 C1400 1.415 . S
C1399 C1398 1.355 . S
C1399 C1401 1.419 . S
C1400 C1398 1.415 . S
C1400 C1405 1.425 1_455 S
C1400 C1407 1.409 1_455 S
C1401 H1393 0.930 . S
C1401 C1399 1.419 . S
C1401 C1402 1.362 . S
C1402 H1394 0.930 1_455 S
C1402 C1401 1.362 . S
C1402 C1405 1.409 1_455 S
C1403 H1395 0.930 . S
C1403 C1404 1.355 . S
C1403 C1405 1.415 . S
C1404 C1403 1.355 . S
C1404 C1406 1.419 . S
C1405 C1400 1.425 1_655 S
C1405 C1402 1.409 1_655 S
C1405 C1403 1.415 . S
C1406 H1396 0.930 . S
C1406 C1404 1.419 . S
C1406 C1407 1.362 . S
C1407 H1397 0.930 1_655 S
C1407 C1400 1.409 1_655 S
C1407 C1406 1.362 . S
H1408 C1414 0.930 . S
H1409 C1417 0.930 . S
H1410 C1418 0.930 . S
H1411 C1419 0.930 . S
H1412 C1422 0.930 . S
H1413 C1423 0.930 . S
C1414 H1408 0.930 . S
C1414 C1415 1.355 1_556 S
C1414 C1416 1.415 . S
C1415 C1414 1.355 1_554 S
C1415 C1417 1.419 . S
C1416 C1414 1.415 . S
C1416 C1421 1.425 . S
C1416 C1423 1.409 . S
C1417 H1409 0.930 . S
C1417 C1415 1.419 . S
C1417 C1418 1.362 . S
C1418 H1410 0.930 . S
C1418 C1417 1.362 . S
C1418 C1421 1.409 1_554 S
C1419 H1411 0.930 . S
C1419 C1420 1.355 . S
C1419 C1421 1.415 . S
C1420 C1419 1.355 . S
C1420 C1422 1.419 . S
C1421 C1416 1.425 . S
C1421 C1418 1.409 1_556 S
C1421 C1419 1.415 . S
C1422 H1412 0.930 . S
C1422 C1420 1.419 . S
C1422 C1423 1.362 . S
C1423 H1413 0.930 . S
C1423 C1416 1.409 . S
C1423 C1422 1.362 . S
H1424 C1430 0.930 . S
H1425 C1433 0.930 . S
H1426 C1434 0.930 1_554 S
H1427 C1435 0.930 . S
H1428 C1438 0.930 . S
H1429 C1439 0.930 . S
C1430 H1424 0.930 . S
C1430 C1431 1.355 . S
C1430 C1432 1.415 1_655 S
C1431 C1430 1.355 . S
C1431 C1433 1.419 . S
C1432 C1430 1.415 1_455 S
C1432 C1437 1.425 1_455 S
C1432 C1439 1.409 . S
C1433 H1425 0.930 . S
C1433 C1431 1.419 . S
C1433 C1434 1.362 . S
C1434 H1426 0.930 1_556 S
C1434 C1433 1.362 . S
C1434 C1437 1.409 . S
C1435 H1427 0.930 . S
C1435 C1436 1.355 1_554 S
C1435 C1437 1.415 1_454 S
C1436 C1435 1.355 1_556 S
C1436 C1438 1.419 . S
C1437 C1432 1.425 1_655 S
C1437 C1434 1.409 . S
C1437 C1435 1.415 1_656 S
C1438 H1428 0.930 . S
C1438 C1436 1.419 . S
C1438 C1439 1.362 . S
C1439 H1429 0.930 . S
C1439 C1432 1.409 . S
C1439 C1438 1.362 . S
H1440 C1446 0.930 . S
H1441 C1449 0.930 . S
H1442 C1450 0.930 . S
H1443 C1451 0.930 . S
H1444 C1454 0.930 . S
H1445 C1455 0.930 . S
C1446 H1440 0.930 . S
C1446 C1447 1.355 . S
C1446 C1448 1.415 . S
C1447 C1446 1.355 . S
C1447 C1449 1.419 . S
C1448 C1446 1.415 . S
C1448 C1453 1.425 . S
C1448 C1455 1.409 . S
C1449 H1441 0.930 . S
C1449 C1447 1.419 . S
C1449 C1450 1.362 . S
C1450 H1442 0.930 . S
C1450 C1449 1.362 . S
C1450 C1453 1.409 . S
C1451 H1443 0.930 . S
C1451 C1452 1.355 . S
C1451 C1453 1.415 . S
C1452 C1451 1.355 . S
C1452 C1454 1.419 . S
C1453 C1448 1.425 . S
C1453 C1450 1.409 . S
C1453 C1451 1.415 . S
C1454 H1444 0.930 . S
C1454 C1452 1.419 . S
C1454 C1455 1.362 . S
C1455 H1445 0.930 . S
C1455 C1448 1.409 . S
C1455 C1454 1.362 . S
H1456 C1462 0.930 . S
H1457 C1465 0.930 . S
H1458 C1466 0.930 . S
H1459 C1467 0.930 . S
H1460 C1470 0.930 . S
H1461 C1471 0.930 . S
C1462 H1456 0.930 . S
C1462 C1463 1.355 . S
C1462 C1464 1.415 . S
C1463 C1462 1.355 . S
C1463 C1465 1.419 . S
C1464 C1462 1.415 . S
C1464 C1469 1.425 . S
C1464 C1471 1.409 . S
C1465 H1457 0.930 . S
C1465 C1463 1.419 . S
C1465 C1466 1.362 . S
C1466 H1458 0.930 . S
C1466 C1465 1.362 . S
C1466 C1469 1.409 . S
C1467 H1459 0.930 . S
C1467 C1468 1.355 . S
C1467 C1469 1.415 . S
C1468 C1467 1.355 . S
C1468 C1470 1.419 . S
C1469 C1464 1.425 . S
C1469 C1466 1.409 . S
C1469 C1467 1.415 . S
C1470 H1460 0.930 . S
C1470 C1468 1.419 . S
C1470 C1471 1.362 . S
C1471 H1461 0.930 . S
C1471 C1464 1.409 . S
C1471 C1470 1.362 . S
C455 C87 2.357 . S
C460 C3 2.370 . S
C471 C17 1.438 . S
C476 C101 1.416 . S
C487 C59 2.370 . S
C492 C31 2.356 . S
C503 C45 1.442 . S
C508 C73 1.409 . S
C519 C199 2.369 . S
C524 C115 2.357 . S
C535 C129 1.415 . S
C540 C213 1.439 . S
C551 C171 2.375 . S
C556 C143 2.343 . S
C567 C157 1.442 . S
C572 C185 1.407 . S
C583 C227 2.332 . S
C588 C311 2.375 . S
C599 C325 1.414 . S
C604 C241 1.439 . S
C615 C255 2.342 . S
C620 C283 2.375 . S
C631 C297 1.418 . S
C636 C269 1.424 . S
C647 C423 2.306 . S
C652 C339 2.363 . S
C663 C437 1.442 . S
C668 C353 1.407 . S
C679 C395 2.292 . S
C684 C367 2.314 . S
C695 C381 1.442 . S
C700 C409 1.406 . S
C711 C106 1.364 . S
C716 C8 1.352 . S
C727 C64 1.359 . S
C732 C22 1.336 . S
C743 C78 1.339 . S
C748 C36 1.358 . S
C759 C92 1.358 . S
C764 C50 1.336 . S
C775 C218 1.350 . S
C780 C120 1.356 . S
C791 C176 1.358 . S
C796 C134 1.341 . S
C807 C190 1.340 . S
C812 C148 1.357 . S
C823 C162 1.348 . S
C828 C204 1.357 . S
C839 C330 1.349 . S
C844 C232 1.355 . S
C855 C246 1.340 . S
C860 C288 1.358 . S
C871 C260 1.353 . S
C876 C302 1.358 . S
C887 C316 1.358 . S
C892 C274 1.341 . S
C903 C442 1.350 . S
C908 C344 1.354 . S
C919 C358 1.356 . S
C924 C400 1.353 . S
C935 C372 1.358 . S
C940 C414 1.335 . S
C951 C428 1.355 . S
C956 C386 1.356 . S
C967 C7 1.835 . S
C972 C429 1.975 . S
C983 C219 1.264 . S
C988 C21 1.294 . S
C999 C401 2.008 . S
C1004 C35 1.873 . S
C1015 C191 1.226 . S
C1020 C49 1.222 . S
C1031 C373 2.008 . S
C1036 C63 1.901 . S
C1047 C77 1.272 . S
C1052 C163 1.290 . S
C1063 C91 1.839 . S
C1068 C345 1.987 . S
C1079 C105 1.272 1_554 S
C1084 C135 1.290 . S
C1095 C119 1.835 . S
C1100 C317 1.979 . S
C1111 C107 1.245 . S
C1116 C133 1.299 . S
C1127 C289 1.985 . S
C1132 C147 1.838 . S
C1143 C79 1.250 . S
C1148 C161 1.297 . S
C1159 C261 1.974 . S
C1164 C175 1.835 . S
C1175 C51 1.297 . S
C1180 C189 1.230 . S
C1191 C203 1.836 . S
C1196 C233 1.968 . S
C1207 C23 1.239 . S
C1212 C217 1.213 . S
C1223 C205 1.986 . S
C1228 C231 1.919 . S
C1239 C443 1.265 . S
C1244 C245 1.280 1_556 S
C1255 C259 1.910 . S
C1260 C177 2.004 . S
C1271 C273 1.229 . S
C1276 C415 1.220 . S
C1287 C287 1.859 . S
C1292 C149 2.003 . S
C1303 C301 1.268 . S
C1308 C387 1.207 . S
C1319 C315 1.902 . S
C1324 C121 1.962 . S
C1335 C329 1.210 . S
C1340 C359 1.243 . S
C1351 C93 1.952 . S
C1356 C343 1.862 . S
C1367 C331 1.262 . S
C1372 C357 1.206 . S
C1383 C65 1.955 . S
C1388 C371 1.885 . S
C1399 C385 1.206 . S
C1404 C303 1.270 . S
C1415 C399 1.835 . S
C1420 C37 1.978 . S
C1431 C275 1.271 . S
C1436 C413 1.291 1_556 S
C1447 C427 1.875 . S
C1452 C9 2.009 . S
C1463 C441 1.217 . S
C1468 C247 1.232 . S
