# Generated by pormake.
# Topology zfp, (5)-cn, num edge types: 1
# Building blocks:
#     Node 0, Type 0, BuildingBlock: XOMCOT_clean_sbu_0, # of connection points: 5
#     Node 1, Type 0, BuildingBlock: XOMCOT_clean_sbu_0, # of connection points: 5
#     Node 2, Type 0, BuildingBlock: XOMCOT_clean_sbu_0, # of connection points: 5
#     Node 3, Type 0, BuildingBlock: XOMCOT_clean_sbu_0, # of connection points: 5
#     Node 4, Type 0, BuildingBlock: XOMCOT_clean_sbu_0, # of connection points: 5
#     Node 5, Type 0, BuildingBlock: XOMCOT_clean_sbu_0, # of connection points: 5
#     Node 6, Type 0, BuildingBlock: XOMCOT_clean_sbu_0, # of connection points: 5
#     Node 7, Type 0, BuildingBlock: XOMCOT_clean_sbu_0, # of connection points: 5
#     Node 8, Type 0, BuildingBlock: XOMCOT_clean_sbu_0, # of connection points: 5
#     Node 9, Type 0, BuildingBlock: XOMCOT_clean_sbu_0, # of connection points: 5
#     Node 10, Type 0, BuildingBlock: XOMCOT_clean_sbu_0, # of connection points: 5
#     Node 11, Type 0, BuildingBlock: XOMCOT_clean_sbu_0, # of connection points: 5
#     Node 12, Type 0, BuildingBlock: XOMCOT_clean_sbu_0, # of connection points: 5
#     Node 13, Type 0, BuildingBlock: XOMCOT_clean_sbu_0, # of connection points: 5
#     Node 14, Type 0, BuildingBlock: XOMCOT_clean_sbu_0, # of connection points: 5
#     Node 15, Type 0, BuildingBlock: XOMCOT_clean_sbu_0, # of connection points: 5
#     Edge 16, Type (0, 0), BuildingBlock: EZIPEK_clean_linker_0, # of connection points: 2
#     Edge 17, Type (0, 0), BuildingBlock: EZIPEK_clean_linker_0, # of connection points: 2
#     Edge 18, Type (0, 0), BuildingBlock: EZIPEK_clean_linker_0, # of connection points: 2
#     Edge 19, Type (0, 0), BuildingBlock: EZIPEK_clean_linker_0, # of connection points: 2
#     Edge 20, Type (0, 0), BuildingBlock: EZIPEK_clean_linker_0, # of connection points: 2
#     Edge 21, Type (0, 0), BuildingBlock: EZIPEK_clean_linker_0, # of connection points: 2
#     Edge 22, Type (0, 0), BuildingBlock: EZIPEK_clean_linker_0, # of connection points: 2
#     Edge 23, Type (0, 0), BuildingBlock: EZIPEK_clean_linker_0, # of connection points: 2
#     Edge 24, Type (0, 0), BuildingBlock: EZIPEK_clean_linker_0, # of connection points: 2
#     Edge 25, Type (0, 0), BuildingBlock: EZIPEK_clean_linker_0, # of connection points: 2
#     Edge 26, Type (0, 0), BuildingBlock: EZIPEK_clean_linker_0, # of connection points: 2
#     Edge 27, Type (0, 0), BuildingBlock: EZIPEK_clean_linker_0, # of connection points: 2
#     Edge 28, Type (0, 0), BuildingBlock: EZIPEK_clean_linker_0, # of connection points: 2
#     Edge 29, Type (0, 0), BuildingBlock: EZIPEK_clean_linker_0, # of connection points: 2
#     Edge 30, Type (0, 0), BuildingBlock: EZIPEK_clean_linker_0, # of connection points: 2
#     Edge 31, Type (0, 0), BuildingBlock: EZIPEK_clean_linker_0, # of connection points: 2
#     Edge 32, Type (0, 0), BuildingBlock: EZIPEK_clean_linker_0, # of connection points: 2
#     Edge 33, Type (0, 0), BuildingBlock: EZIPEK_clean_linker_0, # of connection points: 2
#     Edge 34, Type (0, 0), BuildingBlock: EZIPEK_clean_linker_0, # of connection points: 2
#     Edge 35, Type (0, 0), BuildingBlock: EZIPEK_clean_linker_0, # of connection points: 2
#     Edge 36, Type (0, 0), BuildingBlock: EZIPEK_clean_linker_0, # of connection points: 2
#     Edge 37, Type (0, 0), BuildingBlock: EZIPEK_clean_linker_0, # of connection points: 2
#     Edge 38, Type (0, 0), BuildingBlock: EZIPEK_clean_linker_0, # of connection points: 2
#     Edge 39, Type (0, 0), BuildingBlock: EZIPEK_clean_linker_0, # of connection points: 2
#     Edge 40, Type (0, 0), BuildingBlock: EZIPEK_clean_linker_0, # of connection points: 2
#     Edge 41, Type (0, 0), BuildingBlock: EZIPEK_clean_linker_0, # of connection points: 2
#     Edge 42, Type (0, 0), BuildingBlock: EZIPEK_clean_linker_0, # of connection points: 2
#     Edge 43, Type (0, 0), BuildingBlock: EZIPEK_clean_linker_0, # of connection points: 2
#     Edge 44, Type (0, 0), BuildingBlock: EZIPEK_clean_linker_0, # of connection points: 2
#     Edge 45, Type (0, 0), BuildingBlock: EZIPEK_clean_linker_0, # of connection points: 2
#     Edge 46, Type (0, 0), BuildingBlock: EZIPEK_clean_linker_0, # of connection points: 2
#     Edge 47, Type (0, 0), BuildingBlock: EZIPEK_clean_linker_0, # of connection points: 2
#     Edge 48, Type (0, 0), BuildingBlock: EZIPEK_clean_linker_0, # of connection points: 2
#     Edge 49, Type (0, 0), BuildingBlock: EZIPEK_clean_linker_0, # of connection points: 2
#     Edge 50, Type (0, 0), BuildingBlock: EZIPEK_clean_linker_0, # of connection points: 2
#     Edge 51, Type (0, 0), BuildingBlock: EZIPEK_clean_linker_0, # of connection points: 2
#     Edge 52, Type (0, 0), BuildingBlock: EZIPEK_clean_linker_0, # of connection points: 2
#     Edge 53, Type (0, 0), BuildingBlock: EZIPEK_clean_linker_0, # of connection points: 2
#     Edge 54, Type (0, 0), BuildingBlock: EZIPEK_clean_linker_0, # of connection points: 2
#     Edge 55, Type (0, 0), BuildingBlock: EZIPEK_clean_linker_0, # of connection points: 2
# Relax obj value: 0.363
# Max RMSD: 0.245
# Mean RMSD: 0.245
data_MOF--net-zfp--node1-XOMCOT_clean_sbu_0--edge1-EZIPEK_clean_linker_0
_symmetry_space_group_name_H-M    P1
_symmetry_Int_Tables_number       1
_symmetry_cell_setting            triclinic
loop_
_symmetry_equiv_pos_as_xyz
'x, y, z'
_cell_length_a     21.521673
_cell_length_b     21.540266
_cell_length_c     54.167705
_cell_angle_alpha  90.353236
_cell_angle_beta   89.934777
_cell_angle_gamma 90.401967
loop_
_atom_site_label
_atom_site_type_symbol
_atom_site_fract_x
_atom_site_fract_y
_atom_site_fract_z
_atom_type_partial_charge
Co0 Co 0.28855 0.32783 0.14538 0.0
C1 C 0.30669 0.30008 0.19904 0.0
C2 C 0.28821 0.21821 0.17732 0.0
C3 C 0.29039 0.20168 0.20185 0.0
N4 N 0.29745 0.27995 0.17555 0.0
N5 N 0.30167 0.25311 0.21548 0.0
H6 H 0.31365 0.34832 0.2041 0.0
H7 H 0.27819 0.18768 0.16189 0.0
C8 C 0.1606 0.29897 0.12732 0.0
O9 O 0.16046 0.35763 0.12088 0.0
N10 N 0.28242 0.37287 0.11404 0.0
C11 C 0.30238 0.43097 0.10871 0.0
C12 C 0.30084 0.43963 0.08356 0.0
C13 C 0.27158 0.3464 0.09158 0.0
N14 N 0.28159 0.38652 0.07285 0.0
C15 C 0.2301 0.44665 0.16043 0.0
C16 C 0.13392 0.3883 0.18521 0.0
C17 C 0.12694 0.44998 0.17834 0.0
C18 C 0.17727 0.48063 0.16719 0.0
C19 C 0.18588 0.35604 0.1772 0.0
N20 N 0.23097 0.38362 0.16306 0.0
H21 H 0.26865 0.47114 0.15262 0.0
H22 H 0.18691 0.3071 0.18072 0.0
H23 H 0.32501 0.46246 0.1214 0.0
H24 H 0.25971 0.29791 0.08893 0.0
O25 O 0.36886 0.36793 0.15193 0.0
O26 O 0.35732 0.28089 0.13072 0.0
O27 O 0.2112 0.27547 0.13589 0.0
C28 C 0.39497 0.32318 0.13956 0.0
H29 H 0.2827 0.15566 0.20923 0.0
H30 H 0.31721 0.48021 0.07373 0.0
H31 H 0.09678 0.3636 0.19456 0.0
H32 H 0.17463 0.52951 0.16276 0.0
Co33 Co 0.74133 0.29174 0.64197 0.0
C34 C 0.77197 0.31148 0.69624 0.0
C35 C 0.83988 0.25961 0.67683 0.0
C36 C 0.85248 0.25632 0.70148 0.0
N37 N 0.78555 0.28846 0.67361 0.0
N38 N 0.81084 0.29075 0.71425 0.0
H39 H 0.73526 0.34394 0.6989 0.0
H40 H 0.86746 0.23957 0.66222 0.0
C41 C 0.78246 0.16035 0.64432 0.0
O42 O 0.75912 0.16314 0.6667 0.0
N43 N 0.70323 0.29643 0.60976 0.0
C44 C 0.64961 0.32405 0.60345 0.0
C45 C 0.64435 0.32255 0.57804 0.0
C46 C 0.72974 0.27848 0.5883 0.0
N47 N 0.69491 0.29415 0.56868 0.0
C48 C 0.64711 0.24809 0.67692 0.0
C49 C 0.61376 0.14587 0.64884 0.0
C50 C 0.59826 0.1471 0.67389 0.0
C51 C 0.61239 0.20029 0.68779 0.0
C52 C 0.64919 0.194 0.63896 0.0
N53 N 0.67106 0.24113 0.6537 0.0
H54 H 0.65609 0.28933 0.6875 0.0
H55 H 0.6642 0.18971 0.62006 0.0
H56 H 0.61744 0.345 0.61634 0.0
H57 H 0.77465 0.25643 0.58696 0.0
O58 O 0.70851 0.37247 0.6503 0.0
O59 O 0.79875 0.35858 0.63182 0.0
O60 O 0.78455 0.21022 0.63116 0.0
C61 C 0.75733 0.39748 0.64038 0.0
H62 H 0.88836 0.22717 0.70875 0.0
H63 H 0.6068 0.34145 0.56721 0.0
H64 H 0.60163 0.10627 0.63734 0.0
H65 H 0.59825 0.20405 0.70694 0.0
Co66 Co 0.77323 0.73853 0.13707 0.0
C67 C 0.76052 0.76326 0.1927 0.0
C68 C 0.78292 0.84307 0.17102 0.0
C69 C 0.78253 0.86066 0.19544 0.0
N70 N 0.77129 0.7815 0.16911 0.0
N71 N 0.76857 0.81046 0.20904 0.0
H72 H 0.7469 0.71741 0.19832 0.0
H73 H 0.79291 0.87308 0.15556 0.0
C74 C 0.90118 0.78744 0.14463 0.0
O75 O 0.89337 0.76333 0.16666 0.0
N76 N 0.77365 0.70061 0.10441 0.0
C77 C 0.75114 0.64397 0.09844 0.0
C78 C 0.75367 0.63668 0.07316 0.0
C79 C 0.78987 0.72702 0.08267 0.0
N80 N 0.77756 0.68894 0.06325 0.0
C81 C 0.80422 0.63431 0.16865 0.0
C82 C 0.91711 0.61215 0.14612 0.0
C83 C 0.90344 0.5832 0.16845 0.0
C84 C 0.84526 0.59217 0.17938 0.0
C85 C 0.87516 0.65379 0.13634 0.0
N86 N 0.82251 0.66935 0.14899 0.0
H87 H 0.75784 0.63816 0.17591 0.0
H88 H 0.88659 0.67599 0.11913 0.0
H89 H 0.73287 0.61082 0.11154 0.0
H90 H 0.80845 0.77363 0.08101 0.0
O91 O 0.6918 0.70316 0.14327 0.0
O92 O 0.70722 0.79447 0.12592 0.0
O93 O 0.85519 0.78575 0.12922 0.0
C94 C 0.66776 0.75219 0.13358 0.0
H95 H 0.7922 0.90663 0.20273 0.0
H96 H 0.73836 0.59636 0.06273 0.0
H97 H 0.96043 0.60338 0.13653 0.0
H98 H 0.83178 0.56673 0.19574 0.0
Co99 Co 0.32483 0.78652 0.64388 0.0
C100 C 0.29449 0.76218 0.69781 0.0
C101 C 0.22355 0.81163 0.67873 0.0
C102 C 0.2067 0.80756 0.70311 0.0
N103 N 0.27994 0.78546 0.67536 0.0
N104 N 0.25155 0.77697 0.71507 0.0
H105 H 0.33497 0.73492 0.70184 0.0
H106 H 0.1961 0.83321 0.66452 0.0
C107 C 0.28154 0.91295 0.62168 0.0
O108 O 0.31098 0.90548 0.6007 0.0
N109 N 0.36617 0.78603 0.61197 0.0
C110 C 0.42756 0.7788 0.60778 0.0
C111 C 0.43764 0.77558 0.58267 0.0
C112 C 0.33948 0.78427 0.5894 0.0
N113 N 0.38224 0.77923 0.57129 0.0
C114 C 0.42022 0.82553 0.67965 0.0
C115 C 0.45115 0.93328 0.65524 0.0
C116 C 0.47339 0.9246 0.67907 0.0
C117 C 0.45971 0.86901 0.69118 0.0
C118 C 0.41177 0.8894 0.64479 0.0
N119 N 0.39202 0.83861 0.65766 0.0
H120 H 0.41366 0.78136 0.68825 0.0
H121 H 0.39833 0.89651 0.62607 0.0
H122 H 0.46252 0.77522 0.62202 0.0
H123 H 0.28986 0.78647 0.58629 0.0
O124 O 0.35963 0.70477 0.64978 0.0
O125 O 0.26915 0.72003 0.63201 0.0
O126 O 0.27649 0.86725 0.6367 0.0
C127 C 0.31111 0.68038 0.63918 0.0
H128 H 0.16526 0.82645 0.71156 0.0
H129 H 0.48189 0.76981 0.57344 0.0
H130 H 0.4637 0.97431 0.64481 0.0
H131 H 0.47925 0.8594 0.70916 0.0
Co132 Co 0.79046 0.26391 0.89359 0.0
C133 C 0.81148 0.2866 0.83934 0.0
C134 C 0.76016 0.35843 0.85699 0.0
C135 C 0.75728 0.36706 0.83211 0.0
N136 N 0.78847 0.30444 0.86149 0.0
N137 N 0.79122 0.32296 0.82049 0.0
H138 H 0.84422 0.2493 0.83762 0.0
H139 H 0.7401 0.38839 0.87084 0.0
C140 C 0.65924 0.31004 0.8907 0.0
O141 O 0.6602 0.28397 0.86868 0.0
N142 N 0.7946 0.22625 0.92573 0.0
C143 C 0.81954 0.17064 0.93097 0.0
C144 C 0.81777 0.16243 0.95611 0.0
C145 C 0.77711 0.25085 0.94757 0.0
N146 N 0.79146 0.21293 0.96641 0.0
C147 C 0.74697 0.15883 0.86233 0.0
C148 C 0.64252 0.14073 0.89115 0.0
C149 C 0.64953 0.104 0.87 0.0
C150 C 0.70372 0.11194 0.85572 0.0
C151 C 0.68917 0.18064 0.8983 0.0
N152 N 0.73761 0.19442 0.883 0.0
H153 H 0.7882 0.16513 0.85132 0.0
H154 H 0.68371 0.20398 0.91574 0.0
H155 H 0.83854 0.13881 0.91746 0.0
H156 H 0.75613 0.29606 0.94974 0.0
O157 O 0.87142 0.22914 0.886 0.0
O158 O 0.85779 0.32072 0.90365 0.0
O159 O 0.70972 0.31099 0.90381 0.0
C160 C 0.89644 0.27816 0.89596 0.0
H161 H 0.72899 0.40215 0.82369 0.0
H162 H 0.83475 0.12272 0.96617 0.0
H163 H 0.60224 0.13631 0.90308 0.0
H164 H 0.71262 0.08236 0.83989 0.0
Co165 Co 0.8307 0.79804 0.38593 0.0
C166 C 0.80713 0.81154 0.33165 0.0
C167 C 0.72401 0.7936 0.35251 0.0
C168 C 0.70882 0.79496 0.32783 0.0
N169 N 0.78566 0.80296 0.35491 0.0
N170 N 0.76099 0.80612 0.31475 0.0
H171 H 0.85558 0.81908 0.3271 0.0
H172 H 0.69251 0.78462 0.36766 0.0
C173 C 0.80028 0.67109 0.40486 0.0
O174 O 0.85858 0.67176 0.41197 0.0
N175 N 0.87182 0.79677 0.41824 0.0
C176 C 0.92488 0.82645 0.42488 0.0
C177 C 0.93092 0.82519 0.4502 0.0
C178 C 0.84471 0.78133 0.44007 0.0
N179 N 0.88062 0.79663 0.45965 0.0
C180 C 0.94997 0.73651 0.3762 0.0
C181 C 0.89711 0.64143 0.34855 0.0
C182 C 0.95747 0.63475 0.35726 0.0
C183 C 0.98541 0.68423 0.3701 0.0
C184 C 0.86314 0.69305 0.3557 0.0
N185 N 0.888 0.73809 0.37078 0.0
H186 H 0.97193 0.77364 0.38624 0.0
H187 H 0.81486 0.69364 0.35073 0.0
H188 H 0.95541 0.85128 0.41248 0.0
H189 H 0.79844 0.76188 0.44175 0.0
O190 O 0.87416 0.87487 0.37798 0.0
O191 O 0.78492 0.87189 0.39771 0.0
O192 O 0.77684 0.72153 0.39591 0.0
C193 C 0.82993 0.90588 0.38852 0.0
H194 H 0.66312 0.78742 0.31999 0.0
H195 H 0.96807 0.84596 0.46096 0.0
H196 H 0.87445 0.60431 0.3383 0.0
H197 H 1.03295 0.68103 0.37649 0.0
Co198 Co 0.27117 0.8049 0.89337 0.0
C199 C 0.25875 0.79426 0.83778 0.0
C200 C 0.26897 0.70713 0.85621 0.0
C201 C 0.26571 0.69572 0.83128 0.0
N202 N 0.26626 0.76891 0.86037 0.0
N203 N 0.25937 0.75044 0.81977 0.0
H204 H 0.25285 0.84302 0.83426 0.0
H205 H 0.27477 0.67274 0.87046 0.0
C206 C 0.39244 0.74056 0.88521 0.0
O207 O 0.38737 0.7659 0.8633 0.0
N208 N 0.27325 0.83857 0.9266 0.0
C209 C 0.25816 0.8973 0.9327 0.0
C210 C 0.26205 0.90417 0.95788 0.0
C211 C 0.2865 0.81029 0.94818 0.0
N212 N 0.27955 0.84961 0.96759 0.0
C213 C 0.32382 0.9144 0.867 0.0
C214 C 0.43693 0.90166 0.89037 0.0
C215 C 0.43162 0.94797 0.87259 0.0
C216 C 0.37306 0.95585 0.86131 0.0
C217 C 0.38503 0.86964 0.89793 0.0
N218 N 0.33199 0.86904 0.88424 0.0
H219 H 0.2791 0.92056 0.85843 0.0
H220 H 0.38908 0.84186 0.91424 0.0
H221 H 0.24483 0.93262 0.91966 0.0
H222 H 0.29984 0.76214 0.94972 0.0
O223 O 0.19338 0.84914 0.88754 0.0
O224 O 0.19814 0.75447 0.90247 0.0
O225 O 0.34643 0.74667 0.90059 0.0
C226 C 0.16344 0.80095 0.89578 0.0
H227 H 0.26821 0.65087 0.82221 0.0
H228 H 0.2526 0.946 0.96838 0.0
H229 H 0.48017 0.89325 0.89999 0.0
H230 H 0.36538 0.99336 0.84849 0.0
Co231 Co 0.23637 0.26382 0.3939 0.0
C232 C 0.25828 0.25155 0.33796 0.0
C233 C 0.33948 0.27183 0.35937 0.0
C234 C 0.35607 0.27144 0.33488 0.0
N235 N 0.27767 0.26176 0.36153 0.0
N236 N 0.30507 0.25871 0.32141 0.0
H237 H 0.21196 0.23847 0.33254 0.0
H238 H 0.37044 0.28068 0.37472 0.0
C239 C 0.29161 0.39027 0.3879 0.0
O240 O 0.26766 0.385 0.36566 0.0
N241 N 0.20018 0.26412 0.42676 0.0
C242 C 0.14146 0.24818 0.4328 0.0
C243 C 0.13448 0.25366 0.45804 0.0
C244 C 0.22837 0.2787 0.44837 0.0
N245 N 0.18906 0.27272 0.46775 0.0
C246 C 0.13404 0.30601 0.36301 0.0
C247 C 0.11919 0.41634 0.38855 0.0
C248 C 0.08909 0.40802 0.36601 0.0
C249 C 0.09431 0.35122 0.35352 0.0
C250 C 0.15798 0.37031 0.39714 0.0
N251 N 0.17003 0.31872 0.38318 0.0
H252 H 0.13484 0.2608 0.35452 0.0
H253 H 0.18076 0.3776 0.4146 0.0
H254 H 0.10616 0.23372 0.41974 0.0
H255 H 0.27653 0.29295 0.44995 0.0
O256 O 0.19528 0.18526 0.3871 0.0
O257 O 0.28838 0.19251 0.40355 0.0
O258 O 0.28843 0.3429 0.40256 0.0
C259 C 0.24287 0.15652 0.39593 0.0
H260 H 0.40203 0.28007 0.32744 0.0
H261 H 0.09264 0.2443 0.46852 0.0
H262 H 0.11309 0.45841 0.39934 0.0
H263 H 0.06757 0.34184 0.33697 0.0
Co264 Co 0.76892 0.73361 0.88548 0.0
C265 C 0.7515 0.7589 0.83158 0.0
C266 C 0.77099 0.84157 0.85266 0.0
C267 C 0.76876 0.85695 0.82802 0.0
N268 N 0.7612 0.78003 0.8549 0.0
N269 N 0.75666 0.80503 0.81479 0.0
H270 H 0.74389 0.71052 0.82689 0.0
H271 H 0.78135 0.87274 0.86786 0.0
C272 C 0.89739 0.76287 0.90342 0.0
O273 O 0.89742 0.7039 0.90941 0.0
N274 N 0.77301 0.69069 0.9173 0.0
C275 C 0.74307 0.63781 0.92379 0.0
C276 C 0.74489 0.63146 0.94909 0.0
C277 C 0.78987 0.71697 0.93919 0.0
N278 N 0.77427 0.68129 0.95871 0.0
C279 C 0.82924 0.61526 0.87329 0.0
C280 C 0.92002 0.67005 0.84424 0.0
C281 C 0.92738 0.60887 0.85163 0.0
C282 C 0.88004 0.58006 0.86528 0.0
C283 C 0.87077 0.70385 0.85361 0.0
N284 N 0.82754 0.67766 0.86901 0.0
H285 H 0.79358 0.59276 0.88389 0.0
H286 H 0.87045 0.75272 0.84982 0.0
H287 H 0.71746 0.60781 0.91133 0.0
H288 H 0.80985 0.76298 0.941 0.0
O289 O 0.69188 0.69016 0.87787 0.0
O290 O 0.69569 0.77823 0.89855 0.0
O291 O 0.84623 0.78706 0.89534 0.0
C292 C 0.66137 0.7335 0.88918 0.0
H293 H 0.77676 0.90255 0.82028 0.0
H294 H 0.72388 0.59445 0.95973 0.0
H295 H 0.95568 0.69347 0.83356 0.0
H296 H 0.88401 0.53202 0.87082 0.0
Co297 Co 0.31601 0.76617 0.39375 0.0
C298 C 0.3 0.75663 0.3383 0.0
C299 C 0.21465 0.76775 0.35824 0.0
C300 C 0.20118 0.76587 0.33347 0.0
N301 N 0.27677 0.76413 0.36136 0.0
N302 N 0.25482 0.75894 0.321 0.0
H303 H 0.34807 0.74847 0.33395 0.0
H304 H 0.18136 0.77253 0.37309 0.0
C305 C 0.25244 0.88835 0.38869 0.0
O306 O 0.27567 0.88486 0.36627 0.0
N307 N 0.35325 0.76481 0.42624 0.0
C308 C 0.41367 0.75283 0.43057 0.0
C309 C 0.42375 0.75351 0.45559 0.0
C310 C 0.32692 0.77213 0.44873 0.0
N311 N 0.36944 0.76561 0.46689 0.0
C312 C 0.42145 0.82156 0.36555 0.0
C313 C 0.41396 0.93121 0.39207 0.0
C314 C 0.45551 0.92857 0.37229 0.0
C315 C 0.46107 0.87177 0.35939 0.0
C316 C 0.38278 0.87855 0.39929 0.0
N317 N 0.37955 0.8274 0.38442 0.0
H318 H 0.42633 0.77798 0.35591 0.0
H319 H 0.35751 0.8805 0.41639 0.0
H320 H 0.44802 0.74406 0.41641 0.0
H321 H 0.27819 0.78165 0.45174 0.0
O322 O 0.35938 0.68939 0.38612 0.0
O323 O 0.26568 0.69287 0.4024 0.0
O324 O 0.25933 0.84111 0.40323 0.0
C325 C 0.3118 0.65877 0.39461 0.0
H326 H 0.15555 0.76881 0.32518 0.0
H327 H 0.46747 0.74559 0.46489 0.0
H328 H 0.40838 0.97297 0.4031 0.0
H329 H 0.49541 0.86626 0.34494 0.0
Co330 Co 0.28753 0.3351 0.89434 0.0
C331 C 0.30692 0.31146 0.83898 0.0
C332 C 0.27467 0.23247 0.8591 0.0
C333 C 0.27704 0.21666 0.83449 0.0
N334 N 0.29152 0.29262 0.86213 0.0
N335 N 0.29721 0.26638 0.82188 0.0
H336 H 0.32542 0.35629 0.83422 0.0
H337 H 0.26038 0.20189 0.87384 0.0
C338 C 0.16355 0.28262 0.91571 0.0
O339 O 0.17145 0.30873 0.93741 0.0
N340 N 0.2848 0.37428 0.92694 0.0
C341 C 0.28383 0.43584 0.93176 0.0
C342 C 0.28408 0.44506 0.95697 0.0
C343 C 0.28882 0.34705 0.94939 0.0
N344 N 0.2868 0.38929 0.96798 0.0
C345 C 0.25266 0.43416 0.86124 0.0
C346 C 0.13541 0.45015 0.88058 0.0
C347 C 0.15055 0.47831 0.85828 0.0
C348 C 0.21065 0.47221 0.84884 0.0
C349 C 0.17849 0.4127 0.892 0.0
N350 N 0.23409 0.39979 0.88108 0.0
H351 H 0.30035 0.43379 0.85534 0.0
H352 H 0.16735 0.39626 0.91003 0.0
H353 H 0.2829 0.47175 0.91791 0.0
H354 H 0.29146 0.29739 0.95209 0.0
O355 O 0.36642 0.37571 0.88897 0.0
O356 O 0.35681 0.28284 0.90542 0.0
O357 O 0.20893 0.28168 0.90034 0.0
C358 C 0.39373 0.32775 0.89816 0.0
H359 H 0.26464 0.17219 0.82641 0.0
H360 H 0.28195 0.48926 0.96655 0.0
H361 H 0.09088 0.45816 0.88938 0.0
H362 H 0.22528 0.49788 0.83269 0.0
Co363 Co 0.75927 0.29764 0.39172 0.0
C364 C 0.77806 0.3101 0.33668 0.0
C365 C 0.86255 0.30231 0.35734 0.0
C366 C 0.87763 0.30525 0.33274 0.0
N367 N 0.80018 0.30394 0.35987 0.0
N368 N 0.82451 0.31011 0.31987 0.0
H369 H 0.72971 0.31378 0.33185 0.0
H370 H 0.89476 0.29689 0.37246 0.0
C371 C 0.82305 0.17576 0.38392 0.0
O372 O 0.80107 0.18224 0.36147 0.0
N373 N 0.72104 0.29378 0.42396 0.0
C374 C 0.66207 0.3099 0.42917 0.0
C375 C 0.65312 0.30608 0.45425 0.0
C376 C 0.74722 0.27978 0.44586 0.0
N377 N 0.70662 0.28753 0.46469 0.0
C378 C 0.65052 0.25277 0.36312 0.0
C379 C 0.65301 0.1374 0.38507 0.0
C380 C 0.60682 0.14888 0.36767 0.0
C381 C 0.60473 0.20807 0.35681 0.0
C382 C 0.69122 0.18489 0.39278 0.0
N383 N 0.69528 0.23933 0.38018 0.0
H384 H 0.64772 0.29876 0.35544 0.0
H385 H 0.71814 0.17727 0.40915 0.0
H386 H 0.62831 0.32456 0.41567 0.0
H387 H 0.7952 0.26622 0.44808 0.0
O388 O 0.71688 0.37616 0.38569 0.0
O389 O 0.80905 0.36951 0.40296 0.0
O390 O 0.81526 0.22116 0.39951 0.0
C391 C 0.76401 0.40509 0.39542 0.0
H392 H 0.92377 0.30301 0.32481 0.0
H393 H 0.61083 0.31685 0.46419 0.0
H394 H 0.65551 0.09346 0.39468 0.0
H395 H 0.5675 0.22009 0.34434 0.0
Co396 Co 0.27651 0.8152 0.14485 0.0
C397 C 0.26084 0.79086 0.19876 0.0
C398 C 0.28209 0.70845 0.17793 0.0
C399 C 0.28089 0.69362 0.20261 0.0
N400 N 0.27069 0.76952 0.17555 0.0
N401 N 0.26768 0.7454 0.21565 0.0
H402 H 0.25172 0.83897 0.20328 0.0
H403 H 0.29268 0.6773 0.16279 0.0
C404 C 0.40373 0.7895 0.12612 0.0
O405 O 0.40327 0.84851 0.12017 0.0
N406 N 0.27891 0.85662 0.11285 0.0
C407 C 0.24866 0.90849 0.10592 0.0
C408 C 0.24952 0.91258 0.08051 0.0
C409 C 0.29479 0.82859 0.09127 0.0
N410 N 0.27845 0.86221 0.07144 0.0
C411 C 0.33584 0.93583 0.15594 0.0
C412 C 0.42873 0.88442 0.18449 0.0
C413 C 0.43482 0.9457 0.17692 0.0
C414 C 0.38653 0.97268 0.16343 0.0
C415 C 0.37916 0.84914 0.17587 0.0
N416 N 0.33482 0.87361 0.1607 0.0
H417 H 0.29951 0.95699 0.14544 0.0
H418 H 0.37941 0.8005 0.1801 0.0
H419 H 0.22345 0.93905 0.11817 0.0
H420 H 0.31454 0.78266 0.08993 0.0
O421 O 0.19872 0.85591 0.15255 0.0
O422 O 0.205 0.76705 0.13235 0.0
O423 O 0.35357 0.76413 0.13476 0.0
C424 C 0.16962 0.81055 0.14161 0.0
H425 H 0.28996 0.6485 0.21049 0.0
H426 H 0.22815 0.94829 0.06947 0.0
H427 H 0.46493 0.86241 0.19516 0.0
H428 H 0.38937 1.0208 0.15782 0.0
Co429 Co 0.24936 0.28625 0.64522 0.0
C430 C 0.2731 0.27024 0.69916 0.0
C431 C 0.35691 0.28924 0.6789 0.0
C432 C 0.37113 0.28671 0.70371 0.0
N433 N 0.29537 0.27984 0.67607 0.0
N434 N 0.3184 0.27515 0.7164 0.0
H435 H 0.22448 0.26252 0.70337 0.0
H436 H 0.3889 0.29917 0.664 0.0
C437 C 0.27386 0.41486 0.62741 0.0
O438 O 0.21507 0.41285 0.62097 0.0
N439 N 0.20589 0.28904 0.61338 0.0
C440 C 0.15277 0.2588 0.60723 0.0
C441 C 0.14542 0.2595 0.582 0.0
C442 C 0.23138 0.30503 0.5913 0.0
N443 N 0.19493 0.2883 0.572 0.0
C444 C 0.12814 0.34196 0.65742 0.0
C445 C 0.1802 0.43699 0.68532 0.0
C446 C 0.11897 0.44235 0.67745 0.0
C447 C 0.09159 0.39273 0.66447 0.0
C448 C 0.21539 0.38751 0.67688 0.0
N449 N 0.19063 0.34229 0.66185 0.0
H450 H 0.10641 0.30461 0.64745 0.0
H451 H 0.26436 0.38892 0.68082 0.0
H452 H 0.12392 0.2326 0.61981 0.0
H453 H 0.27731 0.32507 0.58924 0.0
O454 O 0.21103 0.20581 0.65197 0.0
O455 O 0.29886 0.21812 0.63145 0.0
O456 O 0.29938 0.3651 0.63587 0.0
C457 C 0.25676 0.1801 0.64013 0.0
H458 H 0.41646 0.29408 0.71191 0.0
H459 H 0.10843 0.23724 0.57162 0.0
H460 H 0.20254 0.47412 0.69567 0.0
H461 H 0.04343 0.3947 0.65875 0.0
Co462 Co 0.78956 0.24503 0.14358 0.0
C463 C 0.81544 0.27312 0.19761 0.0
C464 C 0.76209 0.34291 0.17959 0.0
C465 C 0.7675 0.35911 0.204 0.0
N466 N 0.78988 0.28758 0.17555 0.0
N467 N 0.80049 0.31498 0.21527 0.0
H468 H 0.84428 0.23335 0.20103 0.0
H469 H 0.73894 0.37041 0.16582 0.0
C470 C 0.66016 0.28735 0.12246 0.0
O471 O 0.66359 0.25641 0.1016 0.0
N472 N 0.79042 0.2081 0.11105 0.0
C473 C 0.80599 0.14969 0.10465 0.0
C474 C 0.80685 0.14549 0.07922 0.0
C475 C 0.78399 0.23895 0.08963 0.0
N476 N 0.79297 0.20171 0.06992 0.0
C477 C 0.74968 0.1484 0.17819 0.0
C478 C 0.64679 0.11273 0.15127 0.0
C479 C 0.65434 0.0894 0.17496 0.0
C480 C 0.70756 0.1056 0.18833 0.0
C481 C 0.68984 0.15459 0.14202 0.0
N482 N 0.73794 0.17643 0.15609 0.0
H483 H 0.79217 0.15699 0.18786 0.0
H484 H 0.68461 0.16779 0.12321 0.0
H485 H 0.81636 0.11307 0.11754 0.0
H486 H 0.77313 0.28786 0.08851 0.0
O487 O 0.87119 0.20944 0.14973 0.0
O488 O 0.85747 0.30064 0.1326 0.0
O489 O 0.70789 0.29298 0.13672 0.0
C490 C 0.89645 0.25813 0.13992 0.0
H491 H 0.74794 0.39961 0.21294 0.0
H492 H 0.81634 0.10432 0.06833 0.0
H493 H 0.60803 0.09806 0.13982 0.0
H494 H 0.71672 0.08496 0.20613 0.0
Co495 Co 0.82472 0.79135 0.63717 0.0
C496 C 0.7994 0.80129 0.69288 0.0
C497 C 0.71912 0.7827 0.6707 0.0
C498 C 0.70117 0.78308 0.69508 0.0
N499 N 0.78111 0.7924 0.66911 0.0
N500 N 0.75166 0.79478 0.70897 0.0
H501 H 0.84565 0.8128 0.69884 0.0
H502 H 0.68899 0.77434 0.65505 0.0
C503 C 0.77591 0.66444 0.64366 0.0
O504 O 0.79911 0.67202 0.66592 0.0
N505 N 0.86403 0.79206 0.60493 0.0
C506 C 0.92377 0.80713 0.60018 0.0
C507 C 0.93337 0.8048 0.57505 0.0
C508 C 0.83776 0.7814 0.58261 0.0
N509 N 0.87941 0.78873 0.56411 0.0
C510 C 0.92911 0.76132 0.66891 0.0
C511 C 0.95182 0.64818 0.64657 0.0
C512 C 0.98075 0.66249 0.66893 0.0
C513 C 0.97137 0.72073 0.67981 0.0
C514 C 0.90982 0.68959 0.6367 0.0
N515 N 0.89403 0.74238 0.64925 0.0
H516 H 0.92498 0.80784 0.6761 0.0
H517 H 0.88778 0.67781 0.61942 0.0
H518 H 0.95778 0.81968 0.61406 0.0
H519 H 0.7892 0.76986 0.57993 0.0
O520 O 0.85921 0.87216 0.64367 0.0
O521 O 0.76757 0.85626 0.62632 0.0
O522 O 0.77817 0.71028 0.62845 0.0
C523 C 0.80938 0.89588 0.63433 0.0
H524 H 0.65469 0.7752 0.70212 0.0
H525 H 0.97624 0.81542 0.56543 0.0
H526 H 0.96089 0.60479 0.63703 0.0
H527 H 0.99667 0.73464 0.69623 0.0
C528 C 0.25817 0.29123 0.25543 0.0
C529 C 0.3031 0.25627 0.24222 0.0
C530 C 0.34189 0.21543 0.28147 0.0
C531 C 0.30216 0.25612 0.2947 0.0
N532 N 0.23216 0.343 0.29386 0.0
N533 N 0.39569 0.19455 0.24299 0.0
C534 C 0.2629 0.29697 0.28157 0.0
C535 C 0.3473 0.22102 0.25538 0.0
N536 N 0.20923 0.31646 0.24319 0.0
N537 N 0.37263 0.16985 0.29377 0.0
H538 H 0.40179 0.19939 0.22398 0.0
H539 H 0.43282 0.1735 0.25189 0.0
H540 H 0.3672 0.16273 0.31268 0.0
H541 H 0.39807 0.13535 0.28485 0.0
H542 H 0.17202 0.33767 0.25213 0.0
H543 H 0.20257 0.30993 0.22435 0.0
H544 H 0.20748 0.37763 0.28487 0.0
H545 H 0.23662 0.35044 0.3128 0.0
C546 C 0.83143 0.26516 0.78261 0.0
C547 C 0.80029 0.31641 0.79376 0.0
C548 C 0.76423 0.34111 0.75259 0.0
C549 C 0.80826 0.30097 0.74111 0.0
N550 N 0.90943 0.25678 0.75164 0.0
N551 N 0.77126 0.42226 0.78256 0.0
C552 C 0.85 0.27115 0.75772 0.0
C553 C 0.77647 0.36098 0.77693 0.0
N554 N 0.83842 0.20941 0.79378 0.0
N555 N 0.70762 0.35356 0.74288 0.0
H556 H 0.79401 0.4419 0.79774 0.0
H557 H 0.75364 0.45366 0.76976 0.0
H558 H 0.68632 0.32278 0.73058 0.0
H559 H 0.6774 0.38449 0.75162 0.0
H560 H 0.86273 0.17349 0.78514 0.0
H561 H 0.80956 0.19554 0.80818 0.0
H562 H 0.93863 0.23485 0.76423 0.0
H563 H 0.93198 0.27831 0.73692 0.0
C564 C 0.72991 0.85254 0.27495 0.0
C565 C 0.7653 0.80841 0.2881 0.0
C566 C 0.80719 0.76911 0.24887 0.0
C567 C 0.76619 0.80815 0.23571 0.0
N568 N 0.67987 0.87854 0.23631 0.0
N569 N 0.82719 0.71567 0.28719 0.0
C570 C 0.72506 0.84759 0.24881 0.0
C571 C 0.80122 0.76416 0.27495 0.0
N572 N 0.70254 0.90032 0.28745 0.0
N573 N 0.85351 0.73873 0.23662 0.0
H574 H 0.82115 0.70903 0.30606 0.0
H575 H 0.84896 0.67878 0.27825 0.0
H576 H 0.86094 0.74331 0.21771 0.0
H577 H 0.88831 0.71423 0.24561 0.0
H578 H 0.68069 0.93714 0.27869 0.0
H579 H 0.70727 0.90629 0.30648 0.0
H580 H 0.64498 0.90376 0.24506 0.0
H581 H 0.67355 0.87372 0.2173 0.0
C582 C 0.20712 0.73218 0.77976 0.0
C583 C 0.25667 0.75913 0.79342 0.0
C584 C 0.30092 0.80121 0.75527 0.0
C585 C 0.25509 0.76874 0.74141 0.0
N586 N 0.17026 0.69578 0.73983 0.0
N587 N 0.35717 0.809 0.7939 0.0
C588 C 0.20971 0.732 0.75352 0.0
C589 C 0.30543 0.7909 0.7811 0.0
N590 N 0.15673 0.70868 0.79198 0.0
N591 N 0.33826 0.84396 0.74395 0.0
H592 H 0.3627 0.80067 0.8127 0.0
H593 H 0.39686 0.82693 0.78545 0.0
H594 H 0.33469 0.8543 0.72523 0.0
H595 H 0.36849 0.87338 0.75353 0.0
H596 H 0.11653 0.69325 0.78312 0.0
H597 H 0.15291 0.71008 0.81118 0.0
H598 H 0.13965 0.66359 0.74751 0.0
H599 H 0.1722 0.69404 0.72059 0.0
C600 C 0.7111 0.83672 0.7748 0.0
C601 C 0.75433 0.80052 0.78809 0.0
C602 C 0.79164 0.75594 0.74899 0.0
C603 C 0.75375 0.7976 0.73567 0.0
N604 N 0.68704 0.88675 0.73603 0.0
N605 N 0.84592 0.73689 0.78722 0.0
C606 C 0.71603 0.84059 0.74864 0.0
C607 C 0.79742 0.76302 0.77502 0.0
N608 N 0.66422 0.86593 0.78714 0.0
N609 N 0.82036 0.70823 0.73695 0.0
H610 H 0.8538 0.74478 0.80591 0.0
H611 H 0.88191 0.71362 0.7783 0.0
H612 H 0.81513 0.70015 0.71807 0.0
H613 H 0.84398 0.67314 0.7461 0.0
H614 H 0.62804 0.88858 0.77825 0.0
H615 H 0.65818 0.86201 0.80618 0.0
H616 H 0.66311 0.92272 0.74467 0.0
H617 H 0.69272 0.89268 0.71708 0.0
C618 C 0.22767 0.70786 0.2815 0.0
C619 C 0.26112 0.75438 0.29452 0.0
C620 C 0.30474 0.79114 0.25539 0.0
C621 C 0.26445 0.75025 0.24226 0.0
N622 N 0.17748 0.67948 0.24317 0.0
N623 N 0.32253 0.84835 0.29341 0.0
C624 C 0.22305 0.71128 0.25544 0.0
C625 C 0.29728 0.7984 0.28136 0.0
N626 N 0.20235 0.65901 0.29397 0.0
N627 N 0.35198 0.82065 0.24334 0.0
H628 H 0.31614 0.85629 0.31225 0.0
H629 H 0.34454 0.88485 0.28429 0.0
H630 H 0.36097 0.81316 0.2247 0.0
H631 H 0.38605 0.8468 0.25237 0.0
H632 H 0.1829 0.62055 0.28503 0.0
H633 H 0.20729 0.65381 0.31301 0.0
H634 H 0.14222 0.65549 0.25233 0.0
H635 H 0.171 0.68308 0.22415 0.0
C636 C 0.3432 0.22621 0.75649 0.0
C637 C 0.31215 0.27286 0.74302 0.0
C638 C 0.26763 0.31292 0.78171 0.0
C639 C 0.30391 0.27039 0.79533 0.0
N640 N 0.38554 0.19472 0.79592 0.0
N641 N 0.2561 0.36912 0.74341 0.0
C642 C 0.34443 0.22928 0.78275 0.0
C643 C 0.2774 0.31866 0.75581 0.0
N644 N 0.36959 0.17776 0.74412 0.0
N645 N 0.22205 0.34593 0.79329 0.0
H646 H 0.2654 0.37605 0.72478 0.0
H647 H 0.23528 0.4069 0.75212 0.0
H648 H 0.21196 0.34111 0.81201 0.0
H649 H 0.1903 0.37333 0.78387 0.0
H650 H 0.3883 0.13927 0.75288 0.0
H651 H 0.36691 0.17341 0.72498 0.0
H652 H 0.4201 0.16791 0.78774 0.0
H653 H 0.389 0.19783 0.8151 0.0
C654 C 0.8455 0.36031 0.27982 0.0
C655 C 0.8191 0.31066 0.29339 0.0
C656 C 0.77907 0.26427 0.2552 0.0
C657 C 0.81023 0.31084 0.24146 0.0
N658 N 0.88141 0.39708 0.23995 0.0
N659 N 0.77281 0.20858 0.29381 0.0
C660 C 0.84608 0.35709 0.2536 0.0
C661 C 0.78932 0.26057 0.28102 0.0
N662 N 0.86766 0.41149 0.29203 0.0
N663 N 0.7373 0.22564 0.24382 0.0
H664 H 0.78143 0.20367 0.31261 0.0
H665 H 0.7563 0.16818 0.28533 0.0
H666 H 0.72683 0.22853 0.22508 0.0
H667 H 0.70868 0.19483 0.25337 0.0
H668 H 0.88245 0.45171 0.28315 0.0
H669 H 0.86595 0.41579 0.31122 0.0
H670 H 0.9129 0.42856 0.24766 0.0
H671 H 0.88317 0.39475 0.2207 0.0
C672 C 0.33561 0.35993 0.03391 0.0
C673 C 0.27996 0.37495 0.04654 0.0
C674 C 0.22619 0.38601 1.00684 0.0
C675 C 0.28359 0.37844 0.99429 0.0
N676 N 0.39368 0.36211 0.99535 0.0
N677 N 0.17253 0.40324 0.04588 0.0
C678 C 0.33846 0.36557 1.0077 0.0
C679 C 0.22502 0.38748 0.03318 0.0
N680 N 0.38556 0.34044 0.04722 0.0
N681 N 0.17298 0.39162 0.99336 0.0
H682 H 0.17053 0.40287 0.06514 0.0
H683 H 0.13209 0.41912 0.03762 0.0
H684 H 0.17311 0.3917 0.97411 0.0
H685 H 0.12861 0.39207 1.001 0.0
H686 H 0.42646 0.32409 0.03934 0.0
H687 H 0.38391 0.3359 0.06636 0.0
H688 H 0.43666 0.35853 1.00398 0.0
H689 H 0.39672 0.36691 0.97624 0.0
C690 C 0.67919 0.23486 0.50342 0.0
C691 C 0.71604 0.27933 0.49085 0.0
C692 C 0.75317 0.32034 0.53057 0.0
C693 C 0.70813 0.28343 0.54287 0.0
N694 N 0.63165 0.20192 0.542 0.0
N695 N 0.78918 0.36439 0.49208 0.0
C696 C 0.67247 0.23911 0.52953 0.0
C697 C 0.7543 0.32132 0.50433 0.0
N698 N 0.65147 0.18832 0.4901 0.0
N699 N 0.79514 0.35412 0.544 0.0
H700 H 0.79467 0.36391 0.47304 0.0
H701 H 0.81077 0.40219 0.50063 0.0
H702 H 0.79571 0.354 0.56315 0.0
H703 H 0.83301 0.37736 0.53634 0.0
H704 H 0.62702 0.15151 0.49791 0.0
H705 H 0.65753 0.184 0.47104 0.0
H706 H 0.59931 0.17282 0.53346 0.0
H707 H 0.62912 0.20164 0.56124 0.0
C708 C 0.82756 0.65736 0.99792 0.0
C709 C 0.78405 0.69351 0.98476 0.0
C710 C 0.7469 0.73913 0.0238 0.0
C711 C 0.78702 0.69928 0.03706 0.0
N712 N 0.87479 0.63174 0.03746 0.0
N713 N 0.71089 0.77724 0.98414 0.0
C714 C 0.83046 0.66198 0.02421 0.0
C715 C 0.74667 0.73742 0.99743 0.0
N716 N 0.86522 0.6179 0.98506 0.0
N717 N 0.70726 0.77668 0.03655 0.0
H718 H 0.70883 0.77604 0.96498 0.0
H719 H 0.6862 0.81402 0.99174 0.0
H720 H 0.71056 0.7832 0.05551 0.0
H721 H 0.67083 0.80097 0.02865 0.0
H722 H 0.89438 0.58561 0.99316 0.0
H723 H 0.86628 0.61678 0.96579 0.0
H724 H 0.91061 0.60603 0.02968 0.0
H725 H 0.87813 0.63623 0.05661 0.0
C726 C 0.35736 0.71494 0.50721 0.0
C727 C 0.36116 0.77013 0.49322 0.0
C728 C 0.3703 0.83196 0.53123 0.0
C729 C 0.37152 0.77634 0.54506 0.0
N730 N 0.37042 0.66513 0.54703 0.0
N731 N 0.37269 0.88068 0.49077 0.0
C732 C 0.36548 0.71779 0.53326 0.0
C733 C 0.36706 0.82873 0.50498 0.0
N734 N 0.34641 0.65996 0.49527 0.0
N735 N 0.37344 0.88759 0.5434 0.0
H736 H 0.36962 0.87911 0.47156 0.0
H737 H 0.38249 0.92483 0.49765 0.0
H738 H 0.38006 0.89064 0.56243 0.0
H739 H 0.36744 0.93046 0.53505 0.0
H740 H 0.33801 0.61802 0.50413 0.0
H741 H 0.34188 0.65726 0.47614 0.0
H742 H 0.37148 0.62044 0.53968 0.0
H743 H 0.37693 0.66643 0.5661 0.0
C744 C 0.82242 0.25935 0.03194 0.0
C745 C 0.78317 0.21622 0.04426 0.0
C746 C 0.73813 0.18332 1.00476 0.0
C747 C 0.7811 0.22224 0.9924 0.0
N748 N 0.85161 0.3094 0.99362 0.0
N749 N 0.69135 0.15247 0.0437 0.0
C750 C 0.81909 0.26439 1.00583 0.0
C751 C 0.73699 0.18294 0.03098 0.0
N752 N 0.86461 0.29363 0.04505 0.0
N753 N 0.6994 0.14603 0.99119 0.0
H754 H 0.68856 0.15403 0.06293 0.0
H755 H 0.65345 0.13056 0.03542 0.0
H756 H 0.69649 0.14911 0.972 0.0
H757 H 0.67156 0.11124 0.99869 0.0
H758 H 0.90129 0.31817 0.03713 0.0
H759 H 0.86376 0.29687 0.06414 0.0
H760 H 0.87565 0.34541 1.00232 0.0
H761 H 0.85015 0.3144 0.97457 0.0
C762 C 0.84301 0.83663 0.52537 0.0
C763 C 0.86906 0.78539 0.5378 0.0
C764 C 0.89379 0.73623 0.49797 0.0
C765 C 0.8681 0.78782 0.48562 0.0
N766 N 0.80353 0.87793 0.48693 0.0
N767 N 0.90867 0.68171 0.5368 0.0
C768 C 0.83775 0.83504 0.4992 0.0
C769 C 0.8909 0.73343 0.52427 0.0
N770 N 0.82661 0.88817 0.53855 0.0
N771 N 0.92248 0.69112 0.48441 0.0
H772 H 0.90674 0.6793 0.55603 0.0
H773 H 0.92091 0.6401 0.52829 0.0
H774 H 0.92281 0.69145 0.46514 0.0
H775 H 0.94763 0.65495 0.49206 0.0
H776 H 0.8131 0.9297 0.5305 0.0
H777 H 0.83126 0.89078 0.55767 0.0
H778 H 0.77623 0.91121 0.49566 0.0
H779 H 0.7973 0.87542 0.46791 0.0
C780 C 0.33365 0.88005 0.03211 0.0
C781 C 0.28773 0.84741 0.04565 0.0
C782 C 0.24553 0.80325 1.00727 0.0
C783 C 0.2891 0.83885 0.99361 0.0
N784 N 0.38374 0.89787 0.99241 0.0
N785 N 0.21187 0.76514 0.04722 0.0
C786 C 0.33636 0.87289 1.00597 0.0
C787 C 0.24761 0.80462 0.03354 0.0
N788 N 0.37357 0.91886 0.04441 0.0
N789 N 0.20018 0.7708 0.99511 0.0
H790 H 0.21348 0.76459 0.0664 0.0
H791 H 0.18535 0.72913 0.03972 0.0
H792 H 0.19963 0.76594 0.97601 0.0
H793 H 0.16187 0.75072 1.00377 0.0
H794 H 0.40444 0.94908 0.03575 0.0
H795 H 0.37431 0.92201 0.06365 0.0
H796 H 0.42234 0.92008 1.00003 0.0
H797 H 0.38661 0.89166 0.97331 0.0
C798 C 0.1709 0.33737 0.53205 0.0
C799 C 0.20631 0.29448 0.54579 0.0
C800 C 0.23759 0.24212 0.50742 0.0
C801 C 0.20114 0.28416 0.49367 0.0
N802 N 0.14507 0.37978 0.4918 0.0
N803 N 0.28732 0.21834 0.54638 0.0
C804 C 0.17165 0.33454 0.50573 0.0
C805 C 0.24445 0.25096 0.53336 0.0
N806 N 0.1354 0.37967 0.54441 0.0
N807 N 0.26254 0.19164 0.49587 0.0
H808 H 0.29462 0.22566 0.56516 0.0
H809 H 0.32002 0.18932 0.53822 0.0
H810 H 0.25779 0.1839 0.47699 0.0
H811 H 0.28372 0.15531 0.50516 0.0
H812 H 0.10311 0.40822 0.53591 0.0
H813 H 0.13701 0.38448 0.56359 0.0
H814 H 0.12666 0.42049 0.49911 0.0
H815 H 0.14614 0.37866 0.47253 0.0
C816 C 0.05586 0.53233 0.19537 0.0
C817 C 0.06482 0.47935 0.18016 0.0
C818 C 0.95513 0.48185 0.16834 0.0
C819 C 0.9505 0.54147 0.17886 0.0
N820 N 0.99484 0.6249 0.20293 0.0
N821 N 1.02378 0.40885 0.14905 0.0
C822 C 1.00009 0.56679 0.19295 0.0
C823 C 1.01435 0.45462 0.16615 0.0
N824 N 0.10007 0.54913 0.21222 0.0
N825 N 0.90314 0.45241 0.15963 0.0
H826 H 0.06702 0.38957 0.14567 0.0
H827 H 0.99003 0.39498 0.13636 0.0
H828 H 0.85911 0.47222 0.16089 0.0
H829 H 0.90306 0.40627 0.15376 0.0
H830 H 0.0929 0.58338 0.22551 0.0
H831 H 0.14137 0.52468 0.2144 0.0
H832 H 1.03199 0.64913 0.2108 0.0
H833 H 0.95345 0.64985 0.20229 0.0
C834 C 0.47878 1.03016 0.69648 0.0
C835 C 0.51084 0.97539 0.69012 0.0
C836 C 0.60636 0.03572 0.6858 0.0
C837 C 0.57038 0.09074 0.68513 0.0
N838 N 0.47075 0.14054 0.68958 0.0
N839 N 0.60644 0.92398 0.6801 0.0
C840 C 0.50629 0.08846 0.69106 0.0
C841 C 0.57556 0.9773 0.68583 0.0
N842 N 0.42126 1.0257 0.70687 0.0
N843 N 0.66963 0.03969 0.68607 0.0
H844 H 0.58513 0.88038 0.68099 0.0
H845 H 0.65203 0.92333 0.67361 0.0
H846 H 0.69269 0.08232 0.68694 0.0
H847 H 0.69839 1.00139 0.68817 0.0
H848 H 0.39635 0.064 0.71311 0.0
H849 H 0.40213 0.98261 0.71151 0.0
H850 H 0.42238 0.1391 0.69011 0.0
H851 H 0.48924 0.18439 0.68592 0.0
C852 C 0.52157 1.006 0.89053 0.0
C853 C 0.48648 0.9905 0.86921 0.0
C854 C 0.56386 0.04861 0.84494 0.0
C855 C 0.60233 0.05361 0.86626 0.0
N856 N 0.62577 1.01002 0.90613 0.0
N857 N 0.48538 0.98547 0.82443 0.0
C858 C 0.58429 1.02136 0.88771 0.0
C859 C 0.51067 1.00826 0.84572 0.0
N860 N 0.49476 1.00881 0.91336 0.0
N861 N 0.57589 0.0834 0.82453 0.0
H862 H 0.44923 0.95307 0.82425 0.0
H863 H 0.50494 0.99396 0.80715 0.0
H864 H 0.61359 0.11382 0.82339 0.0
H865 H 0.54551 0.08508 0.80957 0.0
H866 H 0.5195 1.02299 0.929 0.0
H867 H 0.44686 1.00411 0.91591 0.0
H868 H 0.61345 0.98507 0.92188 0.0
H869 H 0.67301 1.02045 0.90424 0.0
C870 C 0.99016 0.4644 0.36902 0.0
C871 C 0.04843 0.45823 0.3574 0.0
C872 C 0.03985 0.56327 0.34074 0.0
C873 C 0.98725 0.57296 0.35602 0.0
N874 N 0.91628 0.53447 0.38719 0.0
N875 N 0.13089 0.50054 0.33243 0.0
C876 C 0.96276 0.52369 0.37055 0.0
C877 C 0.07357 0.50703 0.34297 0.0
N878 N 0.96196 0.41362 0.37917 0.0
N879 N 0.05691 0.60737 0.324 0.0
H880 H 0.15539 0.45892 0.33293 0.0
H881 H 0.15521 0.53698 0.32425 0.0
H882 H 1.03334 0.64925 0.32214 0.0
H883 H 0.0907 0.60009 0.31056 0.0
H884 H 0.9166 0.41397 0.38584 0.0
H885 H 0.98191 0.36962 0.37868 0.0
H886 H 0.90225 0.50239 0.4004 0.0
H887 H 0.89558 0.57749 0.38946 0.0
C888 C 0.04041 0.60548 0.86196 0.0
C889 C 0.98905 0.57982 0.84877 0.0
C890 C 0.05421 0.49484 0.83395 0.0
C891 C 0.10436 0.5204 0.84762 0.0
N892 N 0.15184 0.60876 0.86725 0.0
N893 N 0.94997 0.50887 0.81779 0.0
C894 C 0.0997 0.57938 0.85871 0.0
C895 C 0.99693 0.52729 0.83318 0.0
N896 N 1.03187 0.65116 0.87923 0.0
N897 N 0.061 0.43833 0.82277 0.0
H898 H 0.90756 0.53197 0.81697 0.0
H899 H 0.95453 0.47384 0.8046 0.0
H900 H 0.10392 0.41609 0.82195 0.0
H901 H 1.02441 0.41307 0.81503 0.0
H902 H 0.06648 0.6659 0.89138 0.0
H903 H 0.98874 0.66991 0.88333 0.0
H904 H 0.15194 0.65446 0.87364 0.0
H905 H 0.19589 0.58933 0.86547 0.0
C906 C 0.53423 0.07768 0.38838 0.0
C907 C 0.55642 0.10123 0.36575 0.0
C908 C 0.50461 1.01336 0.34501 0.0
C909 C 0.49657 0.984 0.36836 0.0
N910 N 0.52989 0.98285 0.4111 0.0
N911 N 0.56773 0.08641 0.3217 0.0
C912 C 0.51976 1.01447 0.38972 0.0
C913 C 0.54291 0.06787 0.34364 0.0
N914 N 0.53105 0.11464 0.40889 0.0
N915 N 0.47446 0.99146 0.32458 0.0
H916 H 0.59565 0.12591 0.3201 0.0
H917 H 0.56376 0.06 0.30558 0.0
H918 H 0.44398 0.95371 0.32506 0.0
H919 H 0.47529 1.01474 0.30776 0.0
H920 H 0.51296 0.09868 0.42559 0.0
H921 H 0.54068 0.1622 0.40818 0.0
H922 H 0.54993 1.00389 0.4266 0.0
H923 H 0.52498 0.93468 0.41217 0.0
C924 C 0.49934 1.03011 0.19682 0.0
C925 C 0.49506 0.97817 0.18065 0.0
C926 C 0.60659 0.98559 0.1724 0.0
C927 C 0.60751 0.04442 0.1839 0.0
N928 N 0.55791 0.12232 0.20883 0.0
N929 N 0.54405 0.90946 0.15093 0.0
C930 C 0.55501 0.06614 0.19707 0.0
C931 C 0.54881 0.95586 0.16819 0.0
N932 N 0.4506 0.04437 0.21195 0.0
N933 N 0.66107 0.95948 0.16481 0.0
H934 H 0.50216 0.88817 0.14618 0.0
H935 H 0.5807 0.89617 0.13954 0.0
H936 H 0.70393 0.98133 0.16775 0.0
H937 H 0.66415 0.91412 0.15815 0.0
H938 H 0.45292 0.07808 0.22576 0.0
H939 H 0.40926 1.01876 0.21207 0.0
H940 H 0.51951 0.14436 0.2165 0.0
H941 H 0.59918 0.14781 0.21023 0.0
C942 C 1.03203 0.50873 0.69387 0.0
C943 C 0.08735 0.50312 0.67979 0.0
C944 C 0.08359 0.61389 0.67018 0.0
C945 C 1.02261 0.61583 0.67948 0.0
N946 N 0.93742 0.56714 0.70086 0.0
N947 N 0.16033 0.54933 0.65099 0.0
C948 C 0.99672 0.56405 0.69195 0.0
C949 C 0.11247 0.55569 0.66735 0.0
N950 N 1.0137 0.4616 0.70904 0.0
N951 N 0.11279 0.66742 0.66313 0.0
H952 H 0.18096 0.50702 0.64696 0.0
H953 H 0.1746 0.5849 0.6393 0.0
H954 H 0.0918 0.71077 0.6648 0.0
H955 H 0.15964 0.66927 0.65826 0.0
H956 H 0.97652 0.46506 0.72128 0.0
H957 H 0.03906 0.42077 0.71087 0.0
H958 H 0.91287 0.5288 0.70743 0.0
H959 H 0.91193 0.60821 0.70069 0.0
C960 C 0.56067 0.34409 0.11319 0.0
C961 C 0.59652 0.30937 0.1302 0.0
C962 C 0.50047 0.28482 0.15347 0.0
C963 C 0.46464 0.31957 0.1365 0.0
N964 N 0.46248 0.3917 0.10277 0.0
N965 N 0.60173 0.26195 0.17053 0.0
C966 C 0.49547 0.35219 0.11719 0.0
C967 C 0.56688 0.28464 0.15161 0.0
N968 N 0.58914 0.36875 0.09287 0.0
N969 N 0.47093 0.25009 0.17101 0.0
H970 H 0.64994 0.26183 0.17051 0.0
H971 H 0.58317 0.24972 0.18759 0.0
H972 H 0.42293 0.25031 0.17348 0.0
H973 H 0.4933 0.2173 0.1818 0.0
H974 H 0.56533 0.38668 0.07783 0.0
H975 H 0.63733 0.36942 0.09069 0.0
H976 H 0.48232 0.42253 0.09027 0.0
H977 H 0.41483 0.39624 0.10446 0.0
C978 C 0.74273 0.50252 0.65978 0.0
C979 C 0.76234 0.46727 0.63903 0.0
C980 C 0.77855 0.56587 0.61659 0.0
C981 C 0.75534 0.59957 0.63733 0.0
N982 N 0.69214 0.59579 0.67394 0.0
N983 N 0.78338 0.46638 0.59528 0.0
C984 C 0.72872 0.56602 0.65707 0.0
C985 C 0.77592 0.49919 0.61666 0.0
N986 N 0.74271 0.47688 0.68268 0.0
N987 N 0.80386 0.59668 0.59706 0.0
H988 H 0.77969 0.41829 0.59466 0.0
H989 H 0.78725 0.48703 0.578 0.0
H990 H 0.80069 0.64452 0.59497 0.0
H991 H 0.82917 0.5746 0.58319 0.0
H992 H 0.73259 0.50193 0.69871 0.0
H993 H 0.76298 0.43409 0.68577 0.0
H994 H 0.66852 0.57236 0.68794 0.0
H995 H 0.68046 0.64252 0.67208 0.0
C996 C 0.49384 0.74024 0.14822 0.0
C997 C 0.4664 0.75918 0.12575 0.0
C998 C 0.57106 0.76172 0.10701 0.0
C999 C 0.59847 0.75657 0.13075 0.0
N1000 N 0.58395 0.74791 0.1748 0.0
N1001 N 0.47933 0.78545 0.0829 0.0
C1002 C 0.55926 0.74724 0.15158 0.0
C1003 C 0.50536 0.76882 0.10486 0.0
N1004 N 0.45796 0.71405 0.16615 0.0
N1005 N 0.60731 0.75654 0.08645 0.0
H1006 H 0.43134 0.78537 0.08012 0.0
H1007 H 0.50512 0.80131 0.0679 0.0
H1008 H 0.65478 0.74826 0.0875 0.0
H1009 H 0.58959 0.75389 0.06859 0.0
H1010 H 0.47621 0.69544 0.18228 0.0
H1011 H 0.41122 0.70356 0.16333 0.0
H1012 H 0.55672 0.74782 0.19072 0.0
H1013 H 0.63113 0.75517 0.17816 0.0
C1014 C 0.32672 0.50437 0.6501 0.0
C1015 C 0.30347 0.47864 0.62781 0.0
C1016 C 0.29142 0.58508 0.61134 0.0
C1017 C 0.30657 0.61074 0.635 0.0
N1018 N 0.32609 0.59186 0.67821 0.0
N1019 N 0.28019 0.49293 0.58505 0.0
C1020 C 0.32166 0.56955 0.65462 0.0
C1021 C 0.29063 0.51893 0.6078 0.0
N1022 N 0.35552 0.46705 0.66674 0.0
N1023 N 0.27619 0.62367 0.5924 0.0
H1024 H 0.28273 0.44508 0.58204 0.0
H1025 H 0.27401 0.51763 0.56884 0.0
H1026 H 0.28035 0.67162 0.59344 0.0
H1027 H 0.25789 0.60902 0.57559 0.0
H1028 H 0.37808 0.48395 0.68243 0.0
H1029 H 0.36425 0.42042 0.66317 0.0
H1030 H 0.32993 0.56336 0.69359 0.0
H1031 H 0.31812 0.63808 0.68277 0.0
C1032 C 0.05419 0.25151 0.92639 0.0
C1033 C 0.09701 0.26913 0.9077 0.0
C1034 C 1.00698 0.28904 0.88014 0.0
C1035 C 0.96551 0.2809 0.90028 0.0
N1036 N 0.9512 0.26207 0.94367 0.0
N1037 N 0.11207 0.30107 0.86502 0.0
C1038 C 0.9897 0.26437 0.92369 0.0
C1039 C 0.07293 0.28614 0.88396 0.0
N1040 N 0.07516 0.2199 0.9465 0.0
N1041 N 0.98313 0.29895 0.85712 0.0
H1042 H 0.1587 0.28982 0.86446 0.0
H1043 H 0.09809 0.32498 0.84938 0.0
H1044 H 0.9361 0.30701 0.85407 0.0
H1045 H 1.00905 0.29642 0.84092 0.0
H1046 H 0.04583 0.20059 0.95974 0.0
H1047 H 0.12145 0.20645 0.94827 0.0
H1048 H 0.96685 0.25649 0.96171 0.0
H1049 H 0.90426 0.27228 0.94243 0.0
C1050 C 0.85345 1.0098 0.36847 0.0
C1051 C 0.83253 0.97644 0.38952 0.0
C1052 C 0.8214 0.07743 0.41163 0.0
C1053 C 0.84241 0.10991 0.39027 0.0
N1054 N 0.90366 0.10297 0.35325 0.0
N1055 N 0.81439 0.97904 0.43339 0.0
C1056 C 0.86717 0.07437 0.37047 0.0
C1057 C 0.82138 1.01048 0.41178 0.0
N1058 N 0.85644 0.98116 0.34593 0.0
N1059 N 0.8016 0.10981 0.43182 0.0
H1060 H 0.81734 0.93095 0.43424 0.0
H1061 H 0.81213 1.0005 0.45064 0.0
H1062 H 0.8096 0.15716 0.43401 0.0
H1063 H 0.77679 0.08965 0.44625 0.0
H1064 H 0.86602 1.00503 0.32967 0.0
H1065 H 0.84183 0.93556 0.34295 0.0
H1066 H 0.92719 0.07874 0.33943 0.0
H1067 H 0.91583 0.1499 0.35471 0.0
C1068 C 0.98795 0.81538 0.8813 0.0
C1069 C 0.96048 0.79466 0.90367 0.0
C1070 C 0.0657 0.79354 0.92226 0.0
C1071 C 0.09335 0.80092 0.89859 0.0
N1072 N 0.07905 0.81436 0.8548 0.0
N1073 N 0.97388 0.76772 0.94636 0.0
C1074 C 0.05395 0.8114 0.87793 0.0
C1075 C 0.9998 0.78541 0.92445 0.0
N1076 N 0.95135 0.84028 0.86346 0.0
N1077 N 0.10219 0.79697 0.94282 0.0
H1078 H 0.92592 0.76724 0.94925 0.0
H1079 H 0.99959 0.75163 0.96126 0.0
H1080 H 0.14985 0.80511 0.94184 0.0
H1081 H 0.08471 0.79813 0.96074 0.0
H1082 H 0.96895 0.86027 0.84742 0.0
H1083 H 0.90419 0.84818 0.86626 0.0
H1084 H 0.05224 0.81477 0.8388 0.0
H1085 H 0.12658 0.8106 0.85146 0.0
C1086 C 0.25788 0.05168 0.41802 0.0
C1087 C 0.24306 0.08606 0.39634 0.0
C1088 C 0.2052 0.98877 0.37729 0.0
C1089 C 0.2319 0.95294 0.39632 0.0
N1090 N 0.27565 0.95117 0.4372 0.0
N1091 N 0.21307 0.08242 0.35335 0.0
C1092 C 0.25561 0.98467 0.41753 0.0
C1093 C 0.21895 0.05322 0.37554 0.0
N1094 N 0.27145 0.08292 0.43936 0.0
N1095 N 0.16722 0.96029 0.36045 0.0
H1096 H 0.22772 0.12797 0.35047 0.0
H1097 H 0.20105 0.05913 0.33711 0.0
H1098 H 0.15577 0.91318 0.36167 0.0
H1099 H 0.14211 0.98458 0.34724 0.0
H1100 H 0.27645 0.06163 0.45643 0.0
H1101 H 0.27337 0.13112 0.44037 0.0
H1102 H 0.3019 0.96989 0.4516 0.0
H1103 H 0.26603 0.90399 0.439 0.0
C1104 C 0.49053 0.7388 0.91309 0.0
C1105 C 0.45766 0.71925 0.89151 0.0
C1106 C 0.55701 0.71044 0.86932 0.0
C1107 C 0.59091 0.73044 0.8905 0.0
N1108 N 0.58981 0.74613 0.9346 0.0
N1109 N 0.46362 0.66062 0.85377 0.0
C1110 C 0.55759 0.73977 0.91304 0.0
C1111 C 0.4927 0.69589 0.87138 0.0
N1112 N 0.45828 0.75609 0.93364 0.0
N1113 N 0.58477 0.70943 0.84663 0.0
H1114 H 0.41665 0.64852 0.85519 0.0
H1115 H 0.4875 0.63809 0.8396 0.0
H1116 H 0.62994 0.7252 0.84363 0.0
H1117 H 0.5604 0.70049 0.83036 0.0
H1118 H 0.47833 0.77959 0.94851 0.0
H1119 H 0.41098 0.74721 0.93564 0.0
H1120 H 0.56891 0.74737 0.95194 0.0
H1121 H 0.63806 0.74409 0.93532 0.0
C1122 C 0.34295 0.48946 0.37589 0.0
C1123 C 0.31362 0.45499 0.3949 0.0
C1124 C 0.29331 0.55463 0.41655 0.0
C1125 C 0.31133 0.58841 0.39504 0.0
N1126 N 0.34312 0.58406 0.35224 0.0
N1127 N 0.26444 0.45571 0.43491 0.0
C1128 C 0.33409 0.55476 0.37428 0.0
C1129 C 0.29029 0.48783 0.41583 0.0
N1130 N 0.37917 0.45911 0.35905 0.0
N1131 N 0.28164 0.58603 0.43802 0.0
H1132 H 0.2692 0.40798 0.43678 0.0
H1133 H 0.23769 0.47628 0.44871 0.0
H1134 H 0.28424 0.63418 0.43948 0.0
H1135 H 0.27473 0.56434 0.45494 0.0
H1136 H 0.40615 0.48207 0.34592 0.0
H1137 H 0.38746 0.41149 0.36019 0.0
H1138 H 0.3538 0.56042 0.33596 0.0
H1139 H 0.33261 0.6306 0.34945 0.0
C1140 C 0.56451 0.30534 0.91929 0.0
C1141 C 0.59663 0.33266 0.89906 0.0
C1142 C 0.49735 0.35155 0.87863 0.0
C1143 C 0.46381 0.32578 0.89882 0.0
N1144 N 0.46651 0.29083 0.9411 0.0
N1145 N 0.59105 0.40381 0.86528 0.0
C1146 C 0.49766 0.30622 0.92002 0.0
C1147 C 0.56178 0.36375 0.88093 0.0
N1148 N 0.59759 0.278 0.93763 0.0
N1149 N 0.46904 0.36004 0.85637 0.0
H1150 H 0.63812 0.41448 0.86712 0.0
H1151 H 0.56725 0.43146 0.85275 0.0
H1152 H 0.4239 0.34512 0.85283 0.0
H1153 H 0.49299 0.37376 0.84056 0.0
H1154 H 0.57778 0.24934 0.95095 0.0
H1155 H 0.64544 0.28395 0.93924 0.0
H1156 H 0.48848 0.28226 0.95784 0.0
H1157 H 0.41828 0.29153 0.94247 0.0
C1158 C 0.76894 0.50233 0.4225 0.0
C1159 C 0.7643 0.47504 0.3986 0.0
C1160 C 0.75034 0.58045 0.38161 0.0
C1161 C 0.7691 0.60774 0.40438 0.0
N1162 N 0.79273 0.59366 0.4474 0.0
N1163 N 0.75564 0.49026 0.35465 0.0
C1164 C 0.77689 0.56814 0.42511 0.0
C1165 C 0.7557 0.51473 0.37796 0.0
N1166 N 0.76272 0.46567 0.44281 0.0
N1167 N 0.7257 0.61681 0.36367 0.0
H1168 H 0.76079 0.44296 0.35109 0.0
H1169 H 0.75649 0.51757 0.33883 0.0
H1170 H 0.7165 0.66365 0.36662 0.0
H1171 H 0.7071 0.59905 0.34732 0.0
H1172 H 0.75983 0.48296 0.46076 0.0
H1173 H 0.75361 0.41826 0.4414 0.0
H1174 H 0.80755 0.56762 0.46239 0.0
H1175 H 0.793 0.64154 0.45051 0.0
C1176 C 0.9991 0.83749 0.15887 0.0
C1177 C 0.96627 0.80969 0.13894 0.0
C1178 C 0.06727 0.79548 0.11792 0.0
C1179 C 0.09945 0.80972 0.14028 0.0
N1180 N 0.09144 0.83361 0.18389 0.0
N1181 N 0.97098 0.76241 0.0984 0.0
C1182 C 0.06415 0.82846 0.1612 0.0
C1183 C 1.00078 0.78909 0.11801 0.0
N1184 N 0.96756 0.87208 0.17591 0.0
N1185 N 0.09967 0.79146 0.09633 0.0
H1186 H 0.92295 0.76252 0.09645 0.0
H1187 H 0.99423 0.73871 0.08437 0.0
H1188 H 0.14721 0.80024 0.09544 0.0
H1189 H 0.07856 0.78672 0.07911 0.0
H1190 H 0.98971 0.89749 0.18982 0.0
H1191 H 0.92009 0.88083 0.17422 0.0
H1192 H 0.06622 0.84166 0.20002 0.0
H1193 H 0.1376 0.82217 0.18713 0.0
C1194 C 0.2685 0.07067 0.65673 0.0
C1195 C 0.25917 0.11071 0.63632 0.0
C1196 C 0.24247 1.01858 0.60978 0.0
C1197 C 0.26292 0.9786 0.62886 0.0
N1198 N 0.29527 0.96869 0.67171 0.0
N1199 N 0.24061 0.12213 0.59276 0.0
C1200 C 0.27492 1.00498 0.65281 0.0
C1201 C 0.2472 0.08435 0.61268 0.0
N1202 N 0.27185 0.09557 0.67999 0.0
N1203 N 0.21557 0.9934 0.58913 0.0
H1204 H 0.24142 0.17019 0.59428 0.0
H1205 H 0.23917 0.1059 0.57461 0.0
H1206 H 0.20774 0.94576 0.58711 0.0
H1207 H 0.19436 1.01972 0.5755 0.0
H1208 H 0.26944 0.06948 0.69607 0.0
H1209 H 0.27279 0.14319 0.68343 0.0
H1210 H 0.31074 0.98615 0.68852 0.0
H1211 H 0.29923 0.92092 0.67099 0.0
C1212 C 0.99133 0.26477 0.11163 0.0
C1213 C 0.96608 0.26134 0.13586 0.0
C1214 C 0.07304 0.24734 0.15123 0.0
C1215 C 0.0979 0.2673 0.12833 0.0
N1216 N 0.07923 0.29188 0.08569 0.0
N1217 N 0.98637 0.25432 0.17956 0.0
C1218 C 0.0564 0.27494 0.10822 0.0
C1219 C 1.00797 0.25339 0.1559 0.0
N1220 N 0.95406 0.25364 0.09182 0.0
N1221 N 0.11076 0.22052 0.16822 0.0
H1222 H 0.93976 0.26131 0.18375 0.0
H1223 H 1.01566 0.25481 0.19488 0.0
H1224 H 0.15692 0.2101 0.16431 0.0
H1225 H 0.09421 0.20141 0.18461 0.0
H1226 H 0.97075 0.24942 0.07382 0.0
H1227 H 0.90789 0.24055 0.09396 0.0
H1228 H 0.05095 0.30596 0.07119 0.0
H1229 H 0.12681 0.29379 0.08195 0.0
C1230 C 0.83516 0.06247 0.65413 0.0
C1231 C 0.80372 0.09745 0.63608 0.0
C1232 C 0.77997 0.99925 0.61407 0.0
C1233 C 0.80155 0.96503 0.63479 0.0
N1234 N 0.83235 0.96852 0.6777 0.0
N1235 N 0.7446 0.09838 0.59831 0.0
C1236 C 0.82452 0.99793 0.65566 0.0
C1237 C 0.77603 0.06569 0.61571 0.0
N1238 N 0.87459 0.09138 0.67027 0.0
N1239 N 0.76507 0.96904 0.59264 0.0
H1240 H 0.746 0.14659 0.59759 0.0
H1241 H 0.71604 0.07768 0.58506 0.0
H1242 H 0.76652 0.92098 0.59076 0.0
H1243 H 0.75569 0.99192 0.57619 0.0
H1244 H 0.90208 0.06724 0.68276 0.0
H1245 H 0.88517 0.13843 0.66888 0.0
H1246 H 0.844 0.99204 0.69395 0.0
H1247 H 0.81881 0.92263 0.6805 0.0
loop_
_geom_bond_atom_site_label_1
_geom_bond_atom_site_label_2
_geom_bond_distance
_geom_bond_site_symmetry_2
_ccdc_geom_bond_type
Co0 N4 2.148 . S
Co0 N10 2.128 . S
Co0 N20 2.194 . S
Co0 O25 2.351 . S
Co0 O26 2.155 . S
Co0 O27 2.096 . S
C1 N4 1.301 . S
C1 N5 1.328 . S
C1 H6 0.930 . S
C2 C3 1.333 . S
C2 N4 1.317 . S
C2 H7 0.930 . S
C3 C2 1.333 . S
C3 N5 1.350 . S
C3 H29 0.931 . S
N4 Co0 2.148 . S
N4 C1 1.301 . S
N4 C2 1.317 . S
N5 C1 1.328 . S
N5 C3 1.350 . S
H6 C1 0.930 . S
H7 C2 0.930 . S
C8 O9 1.224 . S
C8 O27 1.247 1_655 S
O9 C8 1.224 . S
N10 Co0 2.128 . S
N10 C11 1.355 . S
N10 C13 1.311 . S
C11 N10 1.355 . S
C11 C12 1.363 . S
C11 H23 0.929 . S
C12 C11 1.363 . S
C12 N14 1.375 . S
C12 H30 0.931 . S
C13 N10 1.311 . S
C13 N14 1.347 . S
C13 H24 0.929 . S
N14 C12 1.375 . S
N14 C13 1.347 . S
C15 C18 1.365 . S
C15 N20 1.328 . S
C15 H21 0.929 . S
C16 C17 1.362 . S
C16 C19 1.378 . S
C16 H31 0.929 1_455 S
C17 C16 1.362 . S
C17 C18 1.366 . S
C18 C15 1.365 . S
C18 C17 1.366 . S
C18 H32 0.930 . S
C19 C16 1.378 . S
C19 N20 1.315 . S
C19 H22 0.930 1_455 S
N20 Co0 2.194 . S
N20 C15 1.328 . S
N20 C19 1.315 . S
H21 C15 0.929 . S
H22 C19 0.930 1_655 S
H23 C11 0.929 . S
H24 C13 0.929 . S
O25 Co0 2.351 . S
O25 C28 1.244 . S
O26 Co0 2.155 . S
O26 C28 1.240 . S
O27 Co0 2.096 . S
O27 C8 1.247 1_455 S
C28 O25 1.244 . S
C28 O26 1.240 . S
H29 C3 0.931 . S
H30 C12 0.931 . S
H31 C16 0.929 1_655 S
H32 C18 0.930 . S
Co33 N37 2.148 . S
Co33 N43 2.128 . S
Co33 N53 2.194 . S
Co33 O58 2.351 . S
Co33 O59 2.155 . S
Co33 O60 2.096 . S
C34 N37 1.301 . S
C34 N38 1.328 . S
C34 H39 0.930 . S
C35 C36 1.333 . S
C35 N37 1.317 . S
C35 H40 0.930 . S
C36 C35 1.333 . S
C36 N38 1.350 . S
C36 H62 0.931 . S
N37 Co33 2.148 . S
N37 C34 1.301 . S
N37 C35 1.317 . S
N38 C34 1.328 . S
N38 C36 1.350 . S
H39 C34 0.930 . S
H40 C35 0.930 . S
C41 O42 1.224 . S
C41 O60 1.247 1_565 S
O42 C41 1.224 . S
N43 Co33 2.128 . S
N43 C44 1.355 . S
N43 C46 1.311 . S
C44 N43 1.355 . S
C44 C45 1.363 . S
C44 H56 0.929 . S
C45 C44 1.363 . S
C45 N47 1.375 . S
C45 H63 0.931 . S
C46 N43 1.311 . S
C46 N47 1.347 . S
C46 H57 0.929 . S
N47 C45 1.375 . S
N47 C46 1.347 . S
C48 C51 1.365 . S
C48 N53 1.328 . S
C48 H54 0.929 . S
C49 C50 1.362 . S
C49 C52 1.378 . S
C49 H64 0.929 1_545 S
C50 C49 1.362 . S
C50 C51 1.366 . S
C51 C48 1.365 . S
C51 C50 1.366 . S
C51 H65 0.930 . S
C52 C49 1.378 . S
C52 N53 1.315 . S
C52 H55 0.930 1_545 S
N53 Co33 2.194 . S
N53 C48 1.328 . S
N53 C52 1.315 . S
H54 C48 0.929 . S
H55 C52 0.930 1_565 S
H56 C44 0.929 . S
H57 C46 0.929 . S
O58 Co33 2.351 . S
O58 C61 1.244 . S
O59 Co33 2.155 . S
O59 C61 1.240 . S
O60 Co33 2.096 . S
O60 C41 1.247 1_545 S
C61 O58 1.244 . S
C61 O59 1.240 . S
H62 C36 0.931 . S
H63 C45 0.931 . S
H64 C49 0.929 1_565 S
H65 C51 0.930 . S
Co66 N70 2.148 . S
Co66 N76 2.128 . S
Co66 N86 2.194 . S
Co66 O91 2.351 . S
Co66 O92 2.155 . S
Co66 O93 2.096 . S
C67 N70 1.301 . S
C67 N71 1.328 . S
C67 H72 0.930 . S
C68 C69 1.333 . S
C68 N70 1.317 . S
C68 H73 0.930 . S
C69 C68 1.333 . S
C69 N71 1.350 . S
C69 H95 0.931 . S
N70 Co66 2.148 . S
N70 C67 1.301 . S
N70 C68 1.317 . S
N71 C67 1.328 . S
N71 C69 1.350 . S
H72 C67 0.930 . S
H73 C68 0.930 . S
C74 O75 1.224 . S
C74 O93 1.247 1_455 S
O75 C74 1.224 . S
N76 Co66 2.128 . S
N76 C77 1.355 . S
N76 C79 1.311 . S
C77 N76 1.355 . S
C77 C78 1.363 . S
C77 H89 0.929 . S
C78 C77 1.363 . S
C78 N80 1.375 . S
C78 H96 0.931 . S
C79 N76 1.311 . S
C79 N80 1.347 . S
C79 H90 0.929 . S
N80 C78 1.375 . S
N80 C79 1.347 . S
C81 C84 1.365 . S
C81 N86 1.328 . S
C81 H87 0.929 . S
C82 C83 1.362 . S
C82 C85 1.378 . S
C82 H97 0.929 1_655 S
C83 C82 1.362 . S
C83 C84 1.366 . S
C84 C81 1.365 . S
C84 C83 1.366 . S
C84 H98 0.930 . S
C85 C82 1.378 . S
C85 N86 1.315 . S
C85 H88 0.930 1_655 S
N86 Co66 2.194 . S
N86 C81 1.328 . S
N86 C85 1.315 . S
H87 C81 0.929 . S
H88 C85 0.930 1_455 S
H89 C77 0.929 . S
H90 C79 0.929 . S
O91 Co66 2.351 . S
O91 C94 1.244 . S
O92 Co66 2.155 . S
O92 C94 1.240 . S
O93 Co66 2.096 . S
O93 C74 1.247 1_655 S
C94 O91 1.244 . S
C94 O92 1.240 . S
H95 C69 0.931 . S
H96 C78 0.931 . S
H97 C82 0.929 1_455 S
H98 C84 0.930 . S
Co99 N103 2.148 . S
Co99 N109 2.128 . S
Co99 N119 2.194 . S
Co99 O124 2.351 . S
Co99 O125 2.155 . S
Co99 O126 2.096 . S
C100 N103 1.301 . S
C100 N104 1.328 . S
C100 H105 0.930 . S
C101 C102 1.333 . S
C101 N103 1.317 . S
C101 H106 0.930 . S
C102 C101 1.333 . S
C102 N104 1.350 . S
C102 H128 0.931 . S
N103 Co99 2.148 . S
N103 C100 1.301 . S
N103 C101 1.317 . S
N104 C100 1.328 . S
N104 C102 1.350 . S
H105 C100 0.930 . S
H106 C101 0.930 . S
C107 O108 1.224 . S
C107 O126 1.247 1_545 S
O108 C107 1.224 . S
N109 Co99 2.128 . S
N109 C110 1.355 . S
N109 C112 1.311 . S
C110 N109 1.355 . S
C110 C111 1.363 . S
C110 H122 0.929 . S
C111 C110 1.363 . S
C111 N113 1.375 . S
C111 H129 0.931 . S
C112 N109 1.311 . S
C112 N113 1.347 . S
C112 H123 0.929 . S
N113 C111 1.375 . S
N113 C112 1.347 . S
C114 C117 1.365 . S
C114 N119 1.328 . S
C114 H120 0.929 . S
C115 C116 1.362 . S
C115 C118 1.378 . S
C115 H130 0.929 1_565 S
C116 C115 1.362 . S
C116 C117 1.366 . S
C117 C114 1.365 . S
C117 C116 1.366 . S
C117 H131 0.930 . S
C118 C115 1.378 . S
C118 N119 1.315 . S
C118 H121 0.930 1_565 S
N119 Co99 2.194 . S
N119 C114 1.328 . S
N119 C118 1.315 . S
H120 C114 0.929 . S
H121 C118 0.930 1_545 S
H122 C110 0.929 . S
H123 C112 0.929 . S
O124 Co99 2.351 . S
O124 C127 1.244 . S
O125 Co99 2.155 . S
O125 C127 1.240 . S
O126 Co99 2.096 . S
O126 C107 1.247 1_565 S
C127 O124 1.244 . S
C127 O125 1.240 . S
H128 C102 0.931 . S
H129 C111 0.931 . S
H130 C115 0.929 1_545 S
H131 C117 0.930 . S
Co132 N136 2.148 . S
Co132 N142 2.128 . S
Co132 N152 2.194 . S
Co132 O157 2.351 . S
Co132 O158 2.155 . S
Co132 O159 2.096 . S
C133 N136 1.301 . S
C133 N137 1.328 . S
C133 H138 0.930 . S
C134 C135 1.333 . S
C134 N136 1.317 . S
C134 H139 0.930 . S
C135 C134 1.333 . S
C135 N137 1.350 . S
C135 H161 0.931 . S
N136 Co132 2.148 . S
N136 C133 1.301 . S
N136 C134 1.317 . S
N137 C133 1.328 . S
N137 C135 1.350 . S
H138 C133 0.930 . S
H139 C134 0.930 . S
C140 O141 1.224 . S
C140 O159 1.247 . S
O141 C140 1.224 . S
N142 Co132 2.128 . S
N142 C143 1.355 . S
N142 C145 1.311 . S
C143 N142 1.355 . S
C143 C144 1.363 . S
C143 H155 0.929 . S
C144 C143 1.363 . S
C144 N146 1.375 . S
C144 H162 0.931 . S
C145 N142 1.311 . S
C145 N146 1.347 . S
C145 H156 0.929 . S
N146 C144 1.375 . S
N146 C145 1.347 . S
C147 C150 1.365 . S
C147 N152 1.328 . S
C147 H153 0.929 . S
C148 C149 1.362 . S
C148 C151 1.378 . S
C148 H163 0.929 . S
C149 C148 1.362 . S
C149 C150 1.366 . S
C150 C147 1.365 . S
C150 C149 1.366 . S
C150 H164 0.930 . S
C151 C148 1.378 . S
C151 N152 1.315 . S
C151 H154 0.930 . S
N152 Co132 2.194 . S
N152 C147 1.328 . S
N152 C151 1.315 . S
H153 C147 0.929 . S
H154 C151 0.930 . S
H155 C143 0.929 . S
H156 C145 0.929 . S
O157 Co132 2.351 . S
O157 C160 1.244 . S
O158 Co132 2.155 . S
O158 C160 1.240 . S
O159 Co132 2.096 . S
O159 C140 1.247 . S
C160 O157 1.244 . S
C160 O158 1.240 . S
H161 C135 0.931 . S
H162 C144 0.931 . S
H163 C148 0.929 . S
H164 C150 0.930 . S
Co165 N169 2.148 . S
Co165 N175 2.128 . S
Co165 N185 2.194 . S
Co165 O190 2.351 . S
Co165 O191 2.155 . S
Co165 O192 2.096 . S
C166 N169 1.301 . S
C166 N170 1.328 . S
C166 H171 0.930 . S
C167 C168 1.333 . S
C167 N169 1.317 . S
C167 H172 0.930 . S
C168 C167 1.333 . S
C168 N170 1.350 . S
C168 H194 0.931 . S
N169 Co165 2.148 . S
N169 C166 1.301 . S
N169 C167 1.317 . S
N170 C166 1.328 . S
N170 C168 1.350 . S
H171 C166 0.930 . S
H172 C167 0.930 . S
C173 O174 1.224 . S
C173 O192 1.247 . S
O174 C173 1.224 . S
N175 Co165 2.128 . S
N175 C176 1.355 . S
N175 C178 1.311 . S
C176 N175 1.355 . S
C176 C177 1.363 . S
C176 H188 0.929 . S
C177 C176 1.363 . S
C177 N179 1.375 . S
C177 H195 0.931 . S
C178 N175 1.311 . S
C178 N179 1.347 . S
C178 H189 0.929 . S
N179 C177 1.375 . S
N179 C178 1.347 . S
C180 C183 1.365 . S
C180 N185 1.328 . S
C180 H186 0.929 . S
C181 C182 1.362 . S
C181 C184 1.378 . S
C181 H196 0.929 . S
C182 C181 1.362 . S
C182 C183 1.366 . S
C183 C180 1.365 . S
C183 C182 1.366 . S
C183 H197 0.930 . S
C184 C181 1.378 . S
C184 N185 1.315 . S
C184 H187 0.930 . S
N185 Co165 2.194 . S
N185 C180 1.328 . S
N185 C184 1.315 . S
H186 C180 0.929 . S
H187 C184 0.930 . S
H188 C176 0.929 . S
H189 C178 0.929 . S
O190 Co165 2.351 . S
O190 C193 1.244 . S
O191 Co165 2.155 . S
O191 C193 1.240 . S
O192 Co165 2.096 . S
O192 C173 1.247 . S
C193 O190 1.244 . S
C193 O191 1.240 . S
H194 C168 0.931 . S
H195 C177 0.931 . S
H196 C181 0.929 . S
H197 C183 0.930 . S
Co198 N202 2.148 . S
Co198 N208 2.128 . S
Co198 N218 2.194 . S
Co198 O223 2.351 . S
Co198 O224 2.155 . S
Co198 O225 2.096 . S
C199 N202 1.301 . S
C199 N203 1.328 . S
C199 H204 0.930 . S
C200 C201 1.333 . S
C200 N202 1.317 . S
C200 H205 0.930 . S
C201 C200 1.333 . S
C201 N203 1.350 . S
C201 H227 0.931 . S
N202 Co198 2.148 . S
N202 C199 1.301 . S
N202 C200 1.317 . S
N203 C199 1.328 . S
N203 C201 1.350 . S
H204 C199 0.930 . S
H205 C200 0.930 . S
C206 O207 1.224 . S
C206 O225 1.247 . S
O207 C206 1.224 . S
N208 Co198 2.128 . S
N208 C209 1.355 . S
N208 C211 1.311 . S
C209 N208 1.355 . S
C209 C210 1.363 . S
C209 H221 0.929 . S
C210 C209 1.363 . S
C210 N212 1.375 . S
C210 H228 0.931 . S
C211 N208 1.311 . S
C211 N212 1.347 . S
C211 H222 0.929 . S
N212 C210 1.375 . S
N212 C211 1.347 . S
C213 C216 1.365 . S
C213 N218 1.328 . S
C213 H219 0.929 . S
C214 C215 1.362 . S
C214 C217 1.378 . S
C214 H229 0.929 . S
C215 C214 1.362 . S
C215 C216 1.366 . S
C216 C213 1.365 . S
C216 C215 1.366 . S
C216 H230 0.930 . S
C217 C214 1.378 . S
C217 N218 1.315 . S
C217 H220 0.930 . S
N218 Co198 2.194 . S
N218 C213 1.328 . S
N218 C217 1.315 . S
H219 C213 0.929 . S
H220 C217 0.930 . S
H221 C209 0.929 . S
H222 C211 0.929 . S
O223 Co198 2.351 . S
O223 C226 1.244 . S
O224 Co198 2.155 . S
O224 C226 1.240 . S
O225 Co198 2.096 . S
O225 C206 1.247 . S
C226 O223 1.244 . S
C226 O224 1.240 . S
H227 C201 0.931 . S
H228 C210 0.931 . S
H229 C214 0.929 . S
H230 C216 0.930 . S
Co231 N235 2.148 . S
Co231 N241 2.128 . S
Co231 N251 2.194 . S
Co231 O256 2.351 . S
Co231 O257 2.155 . S
Co231 O258 2.096 . S
C232 N235 1.301 . S
C232 N236 1.328 . S
C232 H237 0.930 . S
C233 C234 1.333 . S
C233 N235 1.317 . S
C233 H238 0.930 . S
C234 C233 1.333 . S
C234 N236 1.350 . S
C234 H260 0.931 . S
N235 Co231 2.148 . S
N235 C232 1.301 . S
N235 C233 1.317 . S
N236 C232 1.328 . S
N236 C234 1.350 . S
H237 C232 0.930 . S
H238 C233 0.930 . S
C239 O240 1.224 . S
C239 O258 1.247 . S
O240 C239 1.224 . S
N241 Co231 2.128 . S
N241 C242 1.355 . S
N241 C244 1.311 . S
C242 N241 1.355 . S
C242 C243 1.363 . S
C242 H254 0.929 . S
C243 C242 1.363 . S
C243 N245 1.375 . S
C243 H261 0.931 . S
C244 N241 1.311 . S
C244 N245 1.347 . S
C244 H255 0.929 . S
N245 C243 1.375 . S
N245 C244 1.347 . S
C246 C249 1.365 . S
C246 N251 1.328 . S
C246 H252 0.929 . S
C247 C248 1.362 . S
C247 C250 1.378 . S
C247 H262 0.929 . S
C248 C247 1.362 . S
C248 C249 1.366 . S
C249 C246 1.365 . S
C249 C248 1.366 . S
C249 H263 0.930 . S
C250 C247 1.378 . S
C250 N251 1.315 . S
C250 H253 0.930 . S
N251 Co231 2.194 . S
N251 C246 1.328 . S
N251 C250 1.315 . S
H252 C246 0.929 . S
H253 C250 0.930 . S
H254 C242 0.929 . S
H255 C244 0.929 . S
O256 Co231 2.351 . S
O256 C259 1.244 . S
O257 Co231 2.155 . S
O257 C259 1.240 . S
O258 Co231 2.096 . S
O258 C239 1.247 . S
C259 O256 1.244 . S
C259 O257 1.240 . S
H260 C234 0.931 . S
H261 C243 0.931 . S
H262 C247 0.929 . S
H263 C249 0.930 . S
Co264 N268 2.148 . S
Co264 N274 2.128 . S
Co264 N284 2.194 . S
Co264 O289 2.351 . S
Co264 O290 2.155 . S
Co264 O291 2.096 . S
C265 N268 1.301 . S
C265 N269 1.328 . S
C265 H270 0.930 . S
C266 C267 1.333 . S
C266 N268 1.317 . S
C266 H271 0.930 . S
C267 C266 1.333 . S
C267 N269 1.350 . S
C267 H293 0.931 . S
N268 Co264 2.148 . S
N268 C265 1.301 . S
N268 C266 1.317 . S
N269 C265 1.328 . S
N269 C267 1.350 . S
H270 C265 0.930 . S
H271 C266 0.930 . S
C272 O273 1.224 . S
C272 O291 1.247 1_455 S
O273 C272 1.224 . S
N274 Co264 2.128 . S
N274 C275 1.355 . S
N274 C277 1.311 . S
C275 N274 1.355 . S
C275 C276 1.363 . S
C275 H287 0.929 . S
C276 C275 1.363 . S
C276 N278 1.375 . S
C276 H294 0.931 . S
C277 N274 1.311 . S
C277 N278 1.347 . S
C277 H288 0.929 . S
N278 C276 1.375 . S
N278 C277 1.347 . S
C279 C282 1.365 . S
C279 N284 1.328 . S
C279 H285 0.929 . S
C280 C281 1.362 . S
C280 C283 1.378 . S
C280 H295 0.929 1_655 S
C281 C280 1.362 . S
C281 C282 1.366 . S
C282 C279 1.365 . S
C282 C281 1.366 . S
C282 H296 0.930 . S
C283 C280 1.378 . S
C283 N284 1.315 . S
C283 H286 0.930 1_655 S
N284 Co264 2.194 . S
N284 C279 1.328 . S
N284 C283 1.315 . S
H285 C279 0.929 . S
H286 C283 0.930 1_455 S
H287 C275 0.929 . S
H288 C277 0.929 . S
O289 Co264 2.351 . S
O289 C292 1.244 . S
O290 Co264 2.155 . S
O290 C292 1.240 . S
O291 Co264 2.096 . S
O291 C272 1.247 1_655 S
C292 O289 1.244 . S
C292 O290 1.240 . S
H293 C267 0.931 . S
H294 C276 0.931 . S
H295 C280 0.929 1_455 S
H296 C282 0.930 . S
Co297 N301 2.148 . S
Co297 N307 2.128 . S
Co297 N317 2.194 . S
Co297 O322 2.351 . S
Co297 O323 2.155 . S
Co297 O324 2.096 . S
C298 N301 1.301 . S
C298 N302 1.328 . S
C298 H303 0.930 . S
C299 C300 1.333 . S
C299 N301 1.317 . S
C299 H304 0.930 . S
C300 C299 1.333 . S
C300 N302 1.350 . S
C300 H326 0.931 . S
N301 Co297 2.148 . S
N301 C298 1.301 . S
N301 C299 1.317 . S
N302 C298 1.328 . S
N302 C300 1.350 . S
H303 C298 0.930 . S
H304 C299 0.930 . S
C305 O306 1.224 . S
C305 O324 1.247 1_545 S
O306 C305 1.224 . S
N307 Co297 2.128 . S
N307 C308 1.355 . S
N307 C310 1.311 . S
C308 N307 1.355 . S
C308 C309 1.363 . S
C308 H320 0.929 . S
C309 C308 1.363 . S
C309 N311 1.375 . S
C309 H327 0.931 . S
C310 N307 1.311 . S
C310 N311 1.347 . S
C310 H321 0.929 . S
N311 C309 1.375 . S
N311 C310 1.347 . S
C312 C315 1.365 . S
C312 N317 1.328 . S
C312 H318 0.929 . S
C313 C314 1.362 . S
C313 C316 1.378 . S
C313 H328 0.929 1_565 S
C314 C313 1.362 . S
C314 C315 1.366 . S
C315 C312 1.365 . S
C315 C314 1.366 . S
C315 H329 0.930 . S
C316 C313 1.378 . S
C316 N317 1.315 . S
C316 H319 0.930 1_565 S
N317 Co297 2.194 . S
N317 C312 1.328 . S
N317 C316 1.315 . S
H318 C312 0.929 . S
H319 C316 0.930 1_545 S
H320 C308 0.929 . S
H321 C310 0.929 . S
O322 Co297 2.351 . S
O322 C325 1.244 . S
O323 Co297 2.155 . S
O323 C325 1.240 . S
O324 Co297 2.096 . S
O324 C305 1.247 1_565 S
C325 O322 1.244 . S
C325 O323 1.240 . S
H326 C300 0.931 . S
H327 C309 0.931 . S
H328 C313 0.929 1_545 S
H329 C315 0.930 . S
Co330 N334 2.148 . S
Co330 N340 2.128 . S
Co330 N350 2.194 . S
Co330 O355 2.351 . S
Co330 O356 2.155 . S
Co330 O357 2.096 . S
C331 N334 1.301 . S
C331 N335 1.328 . S
C331 H336 0.930 . S
C332 C333 1.333 . S
C332 N334 1.317 . S
C332 H337 0.930 . S
C333 C332 1.333 . S
C333 N335 1.350 . S
C333 H359 0.931 . S
N334 Co330 2.148 . S
N334 C331 1.301 . S
N334 C332 1.317 . S
N335 C331 1.328 . S
N335 C333 1.350 . S
H336 C331 0.930 . S
H337 C332 0.930 . S
C338 O339 1.224 . S
C338 O357 1.247 1_655 S
O339 C338 1.224 . S
N340 Co330 2.128 . S
N340 C341 1.355 . S
N340 C343 1.311 . S
C341 N340 1.355 . S
C341 C342 1.363 . S
C341 H353 0.929 . S
C342 C341 1.363 . S
C342 N344 1.375 . S
C342 H360 0.931 . S
C343 N340 1.311 . S
C343 N344 1.347 . S
C343 H354 0.929 . S
N344 C342 1.375 . S
N344 C343 1.347 . S
C345 C348 1.365 . S
C345 N350 1.328 . S
C345 H351 0.929 . S
C346 C347 1.362 . S
C346 C349 1.378 . S
C346 H361 0.929 1_455 S
C347 C346 1.362 . S
C347 C348 1.366 . S
C348 C345 1.365 . S
C348 C347 1.366 . S
C348 H362 0.930 . S
C349 C346 1.378 . S
C349 N350 1.315 . S
C349 H352 0.930 1_455 S
N350 Co330 2.194 . S
N350 C345 1.328 . S
N350 C349 1.315 . S
H351 C345 0.929 . S
H352 C349 0.930 1_655 S
H353 C341 0.929 . S
H354 C343 0.929 . S
O355 Co330 2.351 . S
O355 C358 1.244 . S
O356 Co330 2.155 . S
O356 C358 1.240 . S
O357 Co330 2.096 . S
O357 C338 1.247 1_455 S
C358 O355 1.244 . S
C358 O356 1.240 . S
H359 C333 0.931 . S
H360 C342 0.931 . S
H361 C346 0.929 1_655 S
H362 C348 0.930 . S
Co363 N367 2.148 . S
Co363 N373 2.128 . S
Co363 N383 2.194 . S
Co363 O388 2.351 . S
Co363 O389 2.155 . S
Co363 O390 2.096 . S
C364 N367 1.301 . S
C364 N368 1.328 . S
C364 H369 0.930 . S
C365 C366 1.333 . S
C365 N367 1.317 . S
C365 H370 0.930 . S
C366 C365 1.333 . S
C366 N368 1.350 . S
C366 H392 0.931 . S
N367 Co363 2.148 . S
N367 C364 1.301 . S
N367 C365 1.317 . S
N368 C364 1.328 . S
N368 C366 1.350 . S
H369 C364 0.930 . S
H370 C365 0.930 . S
C371 O372 1.224 . S
C371 O390 1.247 1_565 S
O372 C371 1.224 . S
N373 Co363 2.128 . S
N373 C374 1.355 . S
N373 C376 1.311 . S
C374 N373 1.355 . S
C374 C375 1.363 . S
C374 H386 0.929 . S
C375 C374 1.363 . S
C375 N377 1.375 . S
C375 H393 0.931 . S
C376 N373 1.311 . S
C376 N377 1.347 . S
C376 H387 0.929 . S
N377 C375 1.375 . S
N377 C376 1.347 . S
C378 C381 1.365 . S
C378 N383 1.328 . S
C378 H384 0.929 . S
C379 C380 1.362 . S
C379 C382 1.378 . S
C379 H394 0.929 1_545 S
C380 C379 1.362 . S
C380 C381 1.366 . S
C381 C378 1.365 . S
C381 C380 1.366 . S
C381 H395 0.930 . S
C382 C379 1.378 . S
C382 N383 1.315 . S
C382 H385 0.930 1_545 S
N383 Co363 2.194 . S
N383 C378 1.328 . S
N383 C382 1.315 . S
H384 C378 0.929 . S
H385 C382 0.930 1_565 S
H386 C374 0.929 . S
H387 C376 0.929 . S
O388 Co363 2.351 . S
O388 C391 1.244 . S
O389 Co363 2.155 . S
O389 C391 1.240 . S
O390 Co363 2.096 . S
O390 C371 1.247 1_545 S
C391 O388 1.244 . S
C391 O389 1.240 . S
H392 C366 0.931 . S
H393 C375 0.931 . S
H394 C379 0.929 1_565 S
H395 C381 0.930 . S
Co396 N400 2.148 . S
Co396 N406 2.128 . S
Co396 N416 2.194 . S
Co396 O421 2.351 . S
Co396 O422 2.155 . S
Co396 O423 2.096 . S
C397 N400 1.301 . S
C397 N401 1.328 . S
C397 H402 0.930 . S
C398 C399 1.333 . S
C398 N400 1.317 . S
C398 H403 0.930 . S
C399 C398 1.333 . S
C399 N401 1.350 . S
C399 H425 0.931 . S
N400 Co396 2.148 . S
N400 C397 1.301 . S
N400 C398 1.317 . S
N401 C397 1.328 . S
N401 C399 1.350 . S
H402 C397 0.930 . S
H403 C398 0.930 . S
C404 O405 1.224 . S
C404 O423 1.247 . S
O405 C404 1.224 . S
N406 Co396 2.128 . S
N406 C407 1.355 . S
N406 C409 1.311 . S
C407 N406 1.355 . S
C407 C408 1.363 . S
C407 H419 0.929 . S
C408 C407 1.363 . S
C408 N410 1.375 . S
C408 H426 0.931 . S
C409 N406 1.311 . S
C409 N410 1.347 . S
C409 H420 0.929 . S
N410 C408 1.375 . S
N410 C409 1.347 . S
C411 C414 1.365 . S
C411 N416 1.328 . S
C411 H417 0.929 . S
C412 C413 1.362 . S
C412 C415 1.378 . S
C412 H427 0.929 . S
C413 C412 1.362 . S
C413 C414 1.366 . S
C414 C411 1.365 . S
C414 C413 1.366 . S
C414 H428 0.930 . S
C415 C412 1.378 . S
C415 N416 1.315 . S
C415 H418 0.930 . S
N416 Co396 2.194 . S
N416 C411 1.328 . S
N416 C415 1.315 . S
H417 C411 0.929 . S
H418 C415 0.930 . S
H419 C407 0.929 . S
H420 C409 0.929 . S
O421 Co396 2.351 . S
O421 C424 1.244 . S
O422 Co396 2.155 . S
O422 C424 1.240 . S
O423 Co396 2.096 . S
O423 C404 1.247 . S
C424 O421 1.244 . S
C424 O422 1.240 . S
H425 C399 0.931 . S
H426 C408 0.931 . S
H427 C412 0.929 . S
H428 C414 0.930 . S
Co429 N433 2.148 . S
Co429 N439 2.128 . S
Co429 N449 2.194 . S
Co429 O454 2.351 . S
Co429 O455 2.155 . S
Co429 O456 2.096 . S
C430 N433 1.301 . S
C430 N434 1.328 . S
C430 H435 0.930 . S
C431 C432 1.333 . S
C431 N433 1.317 . S
C431 H436 0.930 . S
C432 C431 1.333 . S
C432 N434 1.350 . S
C432 H458 0.931 . S
N433 Co429 2.148 . S
N433 C430 1.301 . S
N433 C431 1.317 . S
N434 C430 1.328 . S
N434 C432 1.350 . S
H435 C430 0.930 . S
H436 C431 0.930 . S
C437 O438 1.224 . S
C437 O456 1.247 . S
O438 C437 1.224 . S
N439 Co429 2.128 . S
N439 C440 1.355 . S
N439 C442 1.311 . S
C440 N439 1.355 . S
C440 C441 1.363 . S
C440 H452 0.929 . S
C441 C440 1.363 . S
C441 N443 1.375 . S
C441 H459 0.931 . S
C442 N439 1.311 . S
C442 N443 1.347 . S
C442 H453 0.929 . S
N443 C441 1.375 . S
N443 C442 1.347 . S
C444 C447 1.365 . S
C444 N449 1.328 . S
C444 H450 0.929 . S
C445 C446 1.362 . S
C445 C448 1.378 . S
C445 H460 0.929 . S
C446 C445 1.362 . S
C446 C447 1.366 . S
C447 C444 1.365 . S
C447 C446 1.366 . S
C447 H461 0.930 . S
C448 C445 1.378 . S
C448 N449 1.315 . S
C448 H451 0.930 . S
N449 Co429 2.194 . S
N449 C444 1.328 . S
N449 C448 1.315 . S
H450 C444 0.929 . S
H451 C448 0.930 . S
H452 C440 0.929 . S
H453 C442 0.929 . S
O454 Co429 2.351 . S
O454 C457 1.244 . S
O455 Co429 2.155 . S
O455 C457 1.240 . S
O456 Co429 2.096 . S
O456 C437 1.247 . S
C457 O454 1.244 . S
C457 O455 1.240 . S
H458 C432 0.931 . S
H459 C441 0.931 . S
H460 C445 0.929 . S
H461 C447 0.930 . S
Co462 N466 2.148 . S
Co462 N472 2.128 . S
Co462 N482 2.194 . S
Co462 O487 2.351 . S
Co462 O488 2.155 . S
Co462 O489 2.096 . S
C463 N466 1.301 . S
C463 N467 1.328 . S
C463 H468 0.930 . S
C464 C465 1.333 . S
C464 N466 1.317 . S
C464 H469 0.930 . S
C465 C464 1.333 . S
C465 N467 1.350 . S
C465 H491 0.931 . S
N466 Co462 2.148 . S
N466 C463 1.301 . S
N466 C464 1.317 . S
N467 C463 1.328 . S
N467 C465 1.350 . S
H468 C463 0.930 . S
H469 C464 0.930 . S
C470 O471 1.224 . S
C470 O489 1.247 . S
O471 C470 1.224 . S
N472 Co462 2.128 . S
N472 C473 1.355 . S
N472 C475 1.311 . S
C473 N472 1.355 . S
C473 C474 1.363 . S
C473 H485 0.929 . S
C474 C473 1.363 . S
C474 N476 1.375 . S
C474 H492 0.931 . S
C475 N472 1.311 . S
C475 N476 1.347 . S
C475 H486 0.929 . S
N476 C474 1.375 . S
N476 C475 1.347 . S
C477 C480 1.365 . S
C477 N482 1.328 . S
C477 H483 0.929 . S
C478 C479 1.362 . S
C478 C481 1.378 . S
C478 H493 0.929 . S
C479 C478 1.362 . S
C479 C480 1.366 . S
C480 C477 1.365 . S
C480 C479 1.366 . S
C480 H494 0.930 . S
C481 C478 1.378 . S
C481 N482 1.315 . S
C481 H484 0.930 . S
N482 Co462 2.194 . S
N482 C477 1.328 . S
N482 C481 1.315 . S
H483 C477 0.929 . S
H484 C481 0.930 . S
H485 C473 0.929 . S
H486 C475 0.929 . S
O487 Co462 2.351 . S
O487 C490 1.244 . S
O488 Co462 2.155 . S
O488 C490 1.240 . S
O489 Co462 2.096 . S
O489 C470 1.247 . S
C490 O487 1.244 . S
C490 O488 1.240 . S
H491 C465 0.931 . S
H492 C474 0.931 . S
H493 C478 0.929 . S
H494 C480 0.930 . S
Co495 N499 2.148 . S
Co495 N505 2.128 . S
Co495 N515 2.194 . S
Co495 O520 2.351 . S
Co495 O521 2.155 . S
Co495 O522 2.096 . S
C496 N499 1.301 . S
C496 N500 1.328 . S
C496 H501 0.930 . S
C497 C498 1.333 . S
C497 N499 1.317 . S
C497 H502 0.930 . S
C498 C497 1.333 . S
C498 N500 1.350 . S
C498 H524 0.931 . S
N499 Co495 2.148 . S
N499 C496 1.301 . S
N499 C497 1.317 . S
N500 C496 1.328 . S
N500 C498 1.350 . S
H501 C496 0.930 . S
H502 C497 0.930 . S
C503 O504 1.224 . S
C503 O522 1.247 . S
O504 C503 1.224 . S
N505 Co495 2.128 . S
N505 C506 1.355 . S
N505 C508 1.311 . S
C506 N505 1.355 . S
C506 C507 1.363 . S
C506 H518 0.929 . S
C507 C506 1.363 . S
C507 N509 1.375 . S
C507 H525 0.931 . S
C508 N505 1.311 . S
C508 N509 1.347 . S
C508 H519 0.929 . S
N509 C507 1.375 . S
N509 C508 1.347 . S
C510 C513 1.365 . S
C510 N515 1.328 . S
C510 H516 0.929 . S
C511 C512 1.362 . S
C511 C514 1.378 . S
C511 H526 0.929 . S
C512 C511 1.362 . S
C512 C513 1.366 . S
C513 C510 1.365 . S
C513 C512 1.366 . S
C513 H527 0.930 . S
C514 C511 1.378 . S
C514 N515 1.315 . S
C514 H517 0.930 . S
N515 Co495 2.194 . S
N515 C510 1.328 . S
N515 C514 1.315 . S
H516 C510 0.929 . S
H517 C514 0.930 . S
H518 C506 0.929 . S
H519 C508 0.929 . S
O520 Co495 2.351 . S
O520 C523 1.244 . S
O521 Co495 2.155 . S
O521 C523 1.240 . S
O522 Co495 2.096 . S
O522 C503 1.247 . S
C523 O520 1.244 . S
C523 O521 1.240 . S
H524 C498 0.931 . S
H525 C507 0.931 . S
H526 C511 0.929 . S
H527 C513 0.930 . S
C528 C529 1.363 . S
C528 C534 1.379 . S
C528 N536 1.356 . S
C529 C528 1.363 . S
C529 C535 1.363 . S
C530 C531 1.363 . S
C530 C535 1.379 . S
C530 N537 1.356 . S
C531 C530 1.363 . S
C531 C534 1.363 . S
N532 C534 1.356 . S
N532 H544 0.984 . S
N532 H545 0.985 . S
N533 C535 1.356 . S
N533 H538 0.984 . S
N533 H539 0.985 . S
C534 C528 1.379 . S
C534 C531 1.363 . S
C534 N532 1.356 . S
C535 C529 1.363 . S
C535 C530 1.379 . S
C535 N533 1.356 . S
N536 C528 1.356 . S
N536 H542 0.984 . S
N536 H543 0.984 . S
N537 C530 1.356 . S
N537 H540 0.984 . S
N537 H541 0.985 . S
H538 N533 0.984 . S
H539 N533 0.985 . S
H540 N537 0.984 . S
H541 N537 0.985 . S
H542 N536 0.984 . S
H543 N536 0.984 . S
H544 N532 0.984 . S
H545 N532 0.985 . S
C546 C547 1.363 . S
C546 C552 1.379 . S
C546 N554 1.356 . S
C547 C546 1.363 . S
C547 C553 1.363 . S
C548 C549 1.363 . S
C548 C553 1.379 . S
C548 N555 1.356 . S
C549 C548 1.363 . S
C549 C552 1.363 . S
N550 C552 1.356 . S
N550 H562 0.984 . S
N550 H563 0.985 . S
N551 C553 1.356 . S
N551 H556 0.984 . S
N551 H557 0.985 . S
C552 C546 1.379 . S
C552 C549 1.363 . S
C552 N550 1.356 . S
C553 C547 1.363 . S
C553 C548 1.379 . S
C553 N551 1.356 . S
N554 C546 1.356 . S
N554 H560 0.984 . S
N554 H561 0.984 . S
N555 C548 1.356 . S
N555 H558 0.984 . S
N555 H559 0.985 . S
H556 N551 0.984 . S
H557 N551 0.985 . S
H558 N555 0.984 . S
H559 N555 0.985 . S
H560 N554 0.984 . S
H561 N554 0.984 . S
H562 N550 0.984 . S
H563 N550 0.985 . S
C564 C565 1.363 . S
C564 C570 1.379 . S
C564 N572 1.356 . S
C565 C564 1.363 . S
C565 C571 1.363 . S
C566 C567 1.363 . S
C566 C571 1.379 . S
C566 N573 1.356 . S
C567 C566 1.363 . S
C567 C570 1.363 . S
N568 C570 1.356 . S
N568 H580 0.984 . S
N568 H581 0.985 . S
N569 C571 1.356 . S
N569 H574 0.984 . S
N569 H575 0.985 . S
C570 C564 1.379 . S
C570 C567 1.363 . S
C570 N568 1.356 . S
C571 C565 1.363 . S
C571 C566 1.379 . S
C571 N569 1.356 . S
N572 C564 1.356 . S
N572 H578 0.984 . S
N572 H579 0.984 . S
N573 C566 1.356 . S
N573 H576 0.984 . S
N573 H577 0.985 . S
H574 N569 0.984 . S
H575 N569 0.985 . S
H576 N573 0.984 . S
H577 N573 0.985 . S
H578 N572 0.984 . S
H579 N572 0.984 . S
H580 N568 0.984 . S
H581 N568 0.985 . S
C582 C583 1.363 . S
C582 C588 1.379 . S
C582 N590 1.356 . S
C583 C582 1.363 . S
C583 C589 1.363 . S
C584 C585 1.363 . S
C584 C589 1.379 . S
C584 N591 1.356 . S
C585 C584 1.363 . S
C585 C588 1.363 . S
N586 C588 1.356 . S
N586 H598 0.984 . S
N586 H599 0.985 . S
N587 C589 1.356 . S
N587 H592 0.984 . S
N587 H593 0.985 . S
C588 C582 1.379 . S
C588 C585 1.363 . S
C588 N586 1.356 . S
C589 C583 1.363 . S
C589 C584 1.379 . S
C589 N587 1.356 . S
N590 C582 1.356 . S
N590 H596 0.984 . S
N590 H597 0.984 . S
N591 C584 1.356 . S
N591 H594 0.984 . S
N591 H595 0.985 . S
H592 N587 0.984 . S
H593 N587 0.985 . S
H594 N591 0.984 . S
H595 N591 0.985 . S
H596 N590 0.984 . S
H597 N590 0.984 . S
H598 N586 0.984 . S
H599 N586 0.985 . S
C600 C601 1.363 . S
C600 C606 1.379 . S
C600 N608 1.356 . S
C601 C600 1.363 . S
C601 C607 1.363 . S
C602 C603 1.363 . S
C602 C607 1.379 . S
C602 N609 1.356 . S
C603 C602 1.363 . S
C603 C606 1.363 . S
N604 C606 1.356 . S
N604 H616 0.984 . S
N604 H617 0.985 . S
N605 C607 1.356 . S
N605 H610 0.984 . S
N605 H611 0.985 . S
C606 C600 1.379 . S
C606 C603 1.363 . S
C606 N604 1.356 . S
C607 C601 1.363 . S
C607 C602 1.379 . S
C607 N605 1.356 . S
N608 C600 1.356 . S
N608 H614 0.984 . S
N608 H615 0.984 . S
N609 C602 1.356 . S
N609 H612 0.984 . S
N609 H613 0.985 . S
H610 N605 0.984 . S
H611 N605 0.985 . S
H612 N609 0.984 . S
H613 N609 0.985 . S
H614 N608 0.984 . S
H615 N608 0.984 . S
H616 N604 0.984 . S
H617 N604 0.985 . S
C618 C619 1.363 . S
C618 C624 1.379 . S
C618 N626 1.356 . S
C619 C618 1.363 . S
C619 C625 1.363 . S
C620 C621 1.363 . S
C620 C625 1.379 . S
C620 N627 1.356 . S
C621 C620 1.363 . S
C621 C624 1.363 . S
N622 C624 1.356 . S
N622 H634 0.984 . S
N622 H635 0.985 . S
N623 C625 1.356 . S
N623 H628 0.984 . S
N623 H629 0.985 . S
C624 C618 1.379 . S
C624 C621 1.363 . S
C624 N622 1.356 . S
C625 C619 1.363 . S
C625 C620 1.379 . S
C625 N623 1.356 . S
N626 C618 1.356 . S
N626 H632 0.984 . S
N626 H633 0.984 . S
N627 C620 1.356 . S
N627 H630 0.984 . S
N627 H631 0.985 . S
H628 N623 0.984 . S
H629 N623 0.985 . S
H630 N627 0.984 . S
H631 N627 0.985 . S
H632 N626 0.984 . S
H633 N626 0.984 . S
H634 N622 0.984 . S
H635 N622 0.985 . S
C636 C637 1.363 . S
C636 C642 1.379 . S
C636 N644 1.356 . S
C637 C636 1.363 . S
C637 C643 1.363 . S
C638 C639 1.363 . S
C638 C643 1.379 . S
C638 N645 1.356 . S
C639 C638 1.363 . S
C639 C642 1.363 . S
N640 C642 1.356 . S
N640 H652 0.984 . S
N640 H653 0.985 . S
N641 C643 1.356 . S
N641 H646 0.984 . S
N641 H647 0.985 . S
C642 C636 1.379 . S
C642 C639 1.363 . S
C642 N640 1.356 . S
C643 C637 1.363 . S
C643 C638 1.379 . S
C643 N641 1.356 . S
N644 C636 1.356 . S
N644 H650 0.984 . S
N644 H651 0.984 . S
N645 C638 1.356 . S
N645 H648 0.984 . S
N645 H649 0.985 . S
H646 N641 0.984 . S
H647 N641 0.985 . S
H648 N645 0.984 . S
H649 N645 0.985 . S
H650 N644 0.984 . S
H651 N644 0.984 . S
H652 N640 0.984 . S
H653 N640 0.985 . S
C654 C655 1.363 . S
C654 C660 1.379 . S
C654 N662 1.356 . S
C655 C654 1.363 . S
C655 C661 1.363 . S
C656 C657 1.363 . S
C656 C661 1.379 . S
C656 N663 1.356 . S
C657 C656 1.363 . S
C657 C660 1.363 . S
N658 C660 1.356 . S
N658 H670 0.984 . S
N658 H671 0.985 . S
N659 C661 1.356 . S
N659 H664 0.984 . S
N659 H665 0.985 . S
C660 C654 1.379 . S
C660 C657 1.363 . S
C660 N658 1.356 . S
C661 C655 1.363 . S
C661 C656 1.379 . S
C661 N659 1.356 . S
N662 C654 1.356 . S
N662 H668 0.984 . S
N662 H669 0.984 . S
N663 C656 1.356 . S
N663 H666 0.984 . S
N663 H667 0.985 . S
H664 N659 0.984 . S
H665 N659 0.985 . S
H666 N663 0.984 . S
H667 N663 0.985 . S
H668 N662 0.984 . S
H669 N662 0.984 . S
H670 N658 0.984 . S
H671 N658 0.985 . S
C672 C673 1.363 . S
C672 C678 1.379 1_554 S
C672 N680 1.356 . S
C673 C672 1.363 . S
C673 C679 1.363 . S
C674 C675 1.363 . S
C674 C679 1.379 1_556 S
C674 N681 1.356 . S
C675 C674 1.363 . S
C675 C678 1.363 . S
N676 C678 1.356 . S
N676 H688 0.984 . S
N676 H689 0.985 . S
N677 C679 1.356 . S
N677 H682 0.984 . S
N677 H683 0.985 1_455 S
C678 C672 1.379 1_556 S
C678 C675 1.363 . S
C678 N676 1.356 . S
C679 C673 1.363 . S
C679 C674 1.379 1_554 S
C679 N677 1.356 . S
N680 C672 1.356 . S
N680 H686 0.984 . S
N680 H687 0.984 . S
N681 C674 1.356 . S
N681 H684 0.984 . S
N681 H685 0.985 1_455 S
H682 N677 0.984 . S
H683 N677 0.985 1_655 S
H684 N681 0.984 . S
H685 N681 0.985 1_655 S
H686 N680 0.984 . S
H687 N680 0.984 . S
H688 N676 0.984 . S
H689 N676 0.985 . S
C690 C691 1.363 . S
C690 C696 1.379 . S
C690 N698 1.356 1_545 S
C691 C690 1.363 . S
C691 C697 1.363 . S
C692 C693 1.363 . S
C692 C697 1.379 . S
C692 N699 1.356 . S
C693 C692 1.363 . S
C693 C696 1.363 . S
N694 C696 1.356 1_565 S
N694 H706 0.984 . S
N694 H707 0.985 . S
N695 C697 1.356 . S
N695 H700 0.984 . S
N695 H701 0.985 . S
C696 C690 1.379 . S
C696 C693 1.363 . S
C696 N694 1.356 1_545 S
C697 C691 1.363 . S
C697 C692 1.379 . S
C697 N695 1.356 . S
N698 C690 1.356 1_565 S
N698 H704 0.984 . S
N698 H705 0.984 . S
N699 C692 1.356 . S
N699 H702 0.984 . S
N699 H703 0.985 . S
H700 N695 0.984 . S
H701 N695 0.985 . S
H702 N699 0.984 . S
H703 N699 0.985 . S
H704 N698 0.984 . S
H705 N698 0.984 . S
H706 N694 0.984 . S
H707 N694 0.985 . S
C708 C709 1.363 . S
C708 C714 1.379 1_556 S
C708 N716 1.356 . S
C709 C708 1.363 . S
C709 C715 1.363 . S
C710 C711 1.363 . S
C710 C715 1.379 1_554 S
C710 N717 1.356 . S
C711 C710 1.363 . S
C711 C714 1.363 . S
N712 C714 1.356 . S
N712 H724 0.984 . S
N712 H725 0.985 . S
N713 C715 1.356 . S
N713 H718 0.984 . S
N713 H719 0.985 1_655 S
C714 C708 1.379 1_554 S
C714 C711 1.363 . S
C714 N712 1.356 . S
C715 C709 1.363 . S
C715 C710 1.379 1_556 S
C715 N713 1.356 . S
N716 C708 1.356 . S
N716 H722 0.984 . S
N716 H723 0.984 . S
N717 C710 1.356 . S
N717 H720 0.984 . S
N717 H721 0.985 1_655 S
H718 N713 0.984 . S
H719 N713 0.985 1_455 S
H720 N717 0.984 . S
H721 N717 0.985 1_455 S
H722 N716 0.984 . S
H723 N716 0.984 . S
H724 N712 0.984 . S
H725 N712 0.985 . S
C726 C727 1.363 . S
C726 C732 1.379 . S
C726 N734 1.356 . S
C727 C726 1.363 . S
C727 C733 1.363 . S
C728 C729 1.363 . S
C728 C733 1.379 . S
C728 N735 1.356 1_565 S
C729 C728 1.363 . S
C729 C732 1.363 . S
N730 C732 1.356 . S
N730 H742 0.984 . S
N730 H743 0.985 . S
N731 C733 1.356 1_545 S
N731 H736 0.984 . S
N731 H737 0.985 . S
C732 C726 1.379 . S
C732 C729 1.363 . S
C732 N730 1.356 . S
C733 C727 1.363 . S
C733 C728 1.379 . S
C733 N731 1.356 1_565 S
N734 C726 1.356 . S
N734 H740 0.984 . S
N734 H741 0.984 . S
N735 C728 1.356 1_545 S
N735 H738 0.984 . S
N735 H739 0.985 . S
H736 N731 0.984 . S
H737 N731 0.985 . S
H738 N735 0.984 . S
H739 N735 0.985 . S
H740 N734 0.984 . S
H741 N734 0.984 . S
H742 N730 0.984 . S
H743 N730 0.985 . S
C744 C745 1.363 . S
C744 C750 1.379 1_554 S
C744 N752 1.356 . S
C745 C744 1.363 . S
C745 C751 1.363 . S
C746 C747 1.363 . S
C746 C751 1.379 1_556 S
C746 N753 1.356 . S
C747 C746 1.363 . S
C747 C750 1.363 . S
N748 C750 1.356 . S
N748 H760 0.984 . S
N748 H761 0.985 . S
N749 C751 1.356 . S
N749 H754 0.984 . S
N749 H755 0.985 . S
C750 C744 1.379 1_556 S
C750 C747 1.363 . S
C750 N748 1.356 . S
C751 C745 1.363 . S
C751 C746 1.379 1_554 S
C751 N749 1.356 . S
N752 C744 1.356 . S
N752 H758 0.984 . S
N752 H759 0.984 . S
N753 C746 1.356 . S
N753 H756 0.984 . S
N753 H757 0.985 . S
H754 N749 0.984 . S
H755 N749 0.985 . S
H756 N753 0.984 . S
H757 N753 0.985 . S
H758 N752 0.984 . S
H759 N752 0.984 . S
H760 N748 0.984 . S
H761 N748 0.985 . S
C762 C763 1.363 . S
C762 C768 1.379 . S
C762 N770 1.356 . S
C763 C762 1.363 . S
C763 C769 1.363 . S
C764 C765 1.363 . S
C764 C769 1.379 . S
C764 N771 1.356 . S
C765 C764 1.363 . S
C765 C768 1.363 . S
N766 C768 1.356 . S
N766 H778 0.984 . S
N766 H779 0.985 . S
N767 C769 1.356 . S
N767 H772 0.984 . S
N767 H773 0.985 . S
C768 C762 1.379 . S
C768 C765 1.363 . S
C768 N766 1.356 . S
C769 C763 1.363 . S
C769 C764 1.379 . S
C769 N767 1.356 . S
N770 C762 1.356 . S
N770 H776 0.984 . S
N770 H777 0.984 . S
N771 C764 1.356 . S
N771 H774 0.984 . S
N771 H775 0.985 . S
H772 N767 0.984 . S
H773 N767 0.985 . S
H774 N771 0.984 . S
H775 N771 0.985 . S
H776 N770 0.984 . S
H777 N770 0.984 . S
H778 N766 0.984 . S
H779 N766 0.985 . S
C780 C781 1.363 . S
C780 C786 1.379 1_554 S
C780 N788 1.356 . S
C781 C780 1.363 . S
C781 C787 1.363 . S
C782 C783 1.363 . S
C782 C787 1.379 1_556 S
C782 N789 1.356 . S
C783 C782 1.363 . S
C783 C786 1.363 . S
N784 C786 1.356 . S
N784 H796 0.984 . S
N784 H797 0.985 . S
N785 C787 1.356 . S
N785 H790 0.984 . S
N785 H791 0.985 . S
C786 C780 1.379 1_556 S
C786 C783 1.363 . S
C786 N784 1.356 . S
C787 C781 1.363 . S
C787 C782 1.379 1_554 S
C787 N785 1.356 . S
N788 C780 1.356 . S
N788 H794 0.984 . S
N788 H795 0.984 . S
N789 C782 1.356 . S
N789 H792 0.984 . S
N789 H793 0.985 . S
H790 N785 0.984 . S
H791 N785 0.985 . S
H792 N789 0.984 . S
H793 N789 0.985 . S
H794 N788 0.984 . S
H795 N788 0.984 . S
H796 N784 0.984 . S
H797 N784 0.985 . S
C798 C799 1.363 . S
C798 C804 1.379 . S
C798 N806 1.356 . S
C799 C798 1.363 . S
C799 C805 1.363 . S
C800 C801 1.363 . S
C800 C805 1.379 . S
C800 N807 1.356 . S
C801 C800 1.363 . S
C801 C804 1.363 . S
N802 C804 1.356 . S
N802 H814 0.984 . S
N802 H815 0.985 . S
N803 C805 1.356 . S
N803 H808 0.984 . S
N803 H809 0.985 . S
C804 C798 1.379 . S
C804 C801 1.363 . S
C804 N802 1.356 . S
C805 C799 1.363 . S
C805 C800 1.379 . S
C805 N803 1.356 . S
N806 C798 1.356 . S
N806 H812 0.984 . S
N806 H813 0.984 . S
N807 C800 1.356 . S
N807 H810 0.984 . S
N807 H811 0.985 . S
H808 N803 0.984 . S
H809 N803 0.985 . S
H810 N807 0.984 . S
H811 N807 0.985 . S
H812 N806 0.984 . S
H813 N806 0.984 . S
H814 N802 0.984 . S
H815 N802 0.985 . S
C816 C817 1.363 . S
C816 C822 1.379 1_455 S
C816 N824 1.356 . S
C817 C816 1.363 . S
C817 C823 1.363 . S
C818 C819 1.363 . S
C818 C823 1.379 1_655 S
C818 N825 1.356 . S
C819 C818 1.363 . S
C819 C822 1.363 . S
N820 C822 1.356 . S
N820 H832 0.984 . S
N820 H833 0.985 . S
N821 C823 1.356 . S
N821 H826 0.984 . S
N821 H827 0.985 . S
C822 C816 1.379 1_655 S
C822 C819 1.363 . S
C822 N820 1.356 . S
C823 C817 1.363 . S
C823 C818 1.379 1_455 S
C823 N821 1.356 . S
N824 C816 1.356 . S
N824 H830 0.984 . S
N824 H831 0.984 . S
N825 C818 1.356 . S
N825 H828 0.984 . S
N825 H829 0.985 . S
H826 N821 0.984 . S
H827 N821 0.985 . S
H828 N825 0.984 . S
H829 N825 0.985 . S
H830 N824 0.984 . S
H831 N824 0.984 . S
H832 N820 0.984 . S
H833 N820 0.985 . S
C834 C835 1.363 . S
C834 C840 1.379 1_565 S
C834 N842 1.356 . S
C835 C834 1.363 . S
C835 C841 1.363 . S
C836 C837 1.363 . S
C836 C841 1.379 1_545 S
C836 N843 1.356 . S
C837 C836 1.363 . S
C837 C840 1.363 . S
N838 C840 1.356 . S
N838 H850 0.984 . S
N838 H851 0.985 . S
N839 C841 1.356 . S
N839 H844 0.984 . S
N839 H845 0.985 . S
C840 C834 1.379 1_545 S
C840 C837 1.363 . S
C840 N838 1.356 . S
C841 C835 1.363 . S
C841 C836 1.379 1_565 S
C841 N839 1.356 . S
N842 C834 1.356 . S
N842 H848 0.984 . S
N842 H849 0.984 . S
N843 C836 1.356 . S
N843 H846 0.984 . S
N843 H847 0.985 . S
H844 N839 0.984 . S
H845 N839 0.985 . S
H846 N843 0.984 . S
H847 N843 0.985 . S
H848 N842 0.984 . S
H849 N842 0.984 . S
H850 N838 0.984 . S
H851 N838 0.985 . S
C852 C853 1.363 1_545 S
C852 C858 1.379 . S
C852 N860 1.356 . S
C853 C852 1.363 1_565 S
C853 C859 1.363 . S
C854 C855 1.363 1_565 S
C854 C859 1.379 . S
C854 N861 1.356 . S
C855 C854 1.363 1_545 S
C855 C858 1.363 . S
N856 C858 1.356 . S
N856 H868 0.984 . S
N856 H869 0.985 . S
N857 C859 1.356 . S
N857 H862 0.984 . S
N857 H863 0.985 . S
C858 C852 1.379 . S
C858 C855 1.363 . S
C858 N856 1.356 . S
C859 C853 1.363 . S
C859 C854 1.379 . S
C859 N857 1.356 . S
N860 C852 1.356 . S
N860 H866 0.984 . S
N860 H867 0.984 . S
N861 C854 1.356 . S
N861 H864 0.984 . S
N861 H865 0.985 . S
H862 N857 0.984 . S
H863 N857 0.985 . S
H864 N861 0.984 . S
H865 N861 0.985 . S
H866 N860 0.984 . S
H867 N860 0.984 . S
H868 N856 0.984 . S
H869 N856 0.985 . S
C870 C871 1.363 1_655 S
C870 C876 1.379 . S
C870 N878 1.356 . S
C871 C870 1.363 1_455 S
C871 C877 1.363 . S
C872 C873 1.363 1_455 S
C872 C877 1.379 . S
C872 N879 1.356 . S
C873 C872 1.363 1_655 S
C873 C876 1.363 . S
N874 C876 1.356 . S
N874 H886 0.984 . S
N874 H887 0.985 . S
N875 C877 1.356 . S
N875 H880 0.984 . S
N875 H881 0.985 . S
C876 C870 1.379 . S
C876 C873 1.363 . S
C876 N874 1.356 . S
C877 C871 1.363 . S
C877 C872 1.379 . S
C877 N875 1.356 . S
N878 C870 1.356 . S
N878 H884 0.984 . S
N878 H885 0.984 . S
N879 C872 1.356 . S
N879 H882 0.984 . S
N879 H883 0.985 . S
H880 N875 0.984 . S
H881 N875 0.985 . S
H882 N879 0.984 . S
H883 N879 0.985 . S
H884 N878 0.984 . S
H885 N878 0.984 . S
H886 N874 0.984 . S
H887 N874 0.985 . S
C888 C889 1.363 . S
C888 C894 1.379 1_655 S
C888 N896 1.356 . S
C889 C888 1.363 . S
C889 C895 1.363 . S
C890 C891 1.363 . S
C890 C895 1.379 1_455 S
C890 N897 1.356 . S
C891 C890 1.363 . S
C891 C894 1.363 . S
N892 C894 1.356 . S
N892 H904 0.984 . S
N892 H905 0.985 . S
N893 C895 1.356 . S
N893 H898 0.984 . S
N893 H899 0.985 . S
C894 C888 1.379 1_455 S
C894 C891 1.363 . S
C894 N892 1.356 . S
C895 C889 1.363 . S
C895 C890 1.379 1_655 S
C895 N893 1.356 . S
N896 C888 1.356 . S
N896 H902 0.984 . S
N896 H903 0.984 . S
N897 C890 1.356 . S
N897 H900 0.984 . S
N897 H901 0.985 . S
H898 N893 0.984 . S
H899 N893 0.985 . S
H900 N897 0.984 . S
H901 N897 0.985 . S
H902 N896 0.984 . S
H903 N896 0.984 . S
H904 N892 0.984 . S
H905 N892 0.985 . S
C906 C907 1.363 . S
C906 C912 1.379 1_545 S
C906 N914 1.356 . S
C907 C906 1.363 . S
C907 C913 1.363 . S
C908 C909 1.363 . S
C908 C913 1.379 1_565 S
C908 N915 1.356 . S
C909 C908 1.363 . S
C909 C912 1.363 . S
N910 C912 1.356 . S
N910 H922 0.984 . S
N910 H923 0.985 . S
N911 C913 1.356 . S
N911 H916 0.984 . S
N911 H917 0.985 . S
C912 C906 1.379 1_565 S
C912 C909 1.363 . S
C912 N910 1.356 . S
C913 C907 1.363 . S
C913 C908 1.379 1_545 S
C913 N911 1.356 . S
N914 C906 1.356 . S
N914 H920 0.984 . S
N914 H921 0.984 . S
N915 C908 1.356 . S
N915 H918 0.984 . S
N915 H919 0.985 . S
H916 N911 0.984 . S
H917 N911 0.985 . S
H918 N915 0.984 . S
H919 N915 0.985 . S
H920 N914 0.984 . S
H921 N914 0.984 . S
H922 N910 0.984 . S
H923 N910 0.985 . S
C924 C925 1.363 1_545 S
C924 C930 1.379 . S
C924 N932 1.356 . S
C925 C924 1.363 1_565 S
C925 C931 1.363 . S
C926 C927 1.363 1_565 S
C926 C931 1.379 . S
C926 N933 1.356 . S
C927 C926 1.363 1_545 S
C927 C930 1.363 . S
N928 C930 1.356 . S
N928 H940 0.984 . S
N928 H941 0.985 . S
N929 C931 1.356 . S
N929 H934 0.984 . S
N929 H935 0.985 . S
C930 C924 1.379 . S
C930 C927 1.363 . S
C930 N928 1.356 . S
C931 C925 1.363 . S
C931 C926 1.379 . S
C931 N929 1.356 . S
N932 C924 1.356 . S
N932 H938 0.984 . S
N932 H939 0.984 . S
N933 C926 1.356 . S
N933 H936 0.984 . S
N933 H937 0.985 . S
H934 N929 0.984 . S
H935 N929 0.985 . S
H936 N933 0.984 . S
H937 N933 0.985 . S
H938 N932 0.984 . S
H939 N932 0.984 . S
H940 N928 0.984 . S
H941 N928 0.985 . S
C942 C943 1.363 1_655 S
C942 C948 1.379 . S
C942 N950 1.356 . S
C943 C942 1.363 1_455 S
C943 C949 1.363 . S
C944 C945 1.363 1_455 S
C944 C949 1.379 . S
C944 N951 1.356 . S
C945 C944 1.363 1_655 S
C945 C948 1.363 . S
N946 C948 1.356 . S
N946 H958 0.984 . S
N946 H959 0.985 . S
N947 C949 1.356 . S
N947 H952 0.984 . S
N947 H953 0.985 . S
C948 C942 1.379 . S
C948 C945 1.363 . S
C948 N946 1.356 . S
C949 C943 1.363 . S
C949 C944 1.379 . S
C949 N947 1.356 . S
N950 C942 1.356 . S
N950 H956 0.984 . S
N950 H957 0.984 . S
N951 C944 1.356 . S
N951 H954 0.984 . S
N951 H955 0.985 . S
H952 N947 0.984 . S
H953 N947 0.985 . S
H954 N951 0.984 . S
H955 N951 0.985 . S
H956 N950 0.984 . S
H957 N950 0.984 . S
H958 N946 0.984 . S
H959 N946 0.985 . S
C960 C961 1.363 . S
C960 C966 1.379 . S
C960 N968 1.356 . S
C961 C960 1.363 . S
C961 C967 1.363 . S
C962 C963 1.363 . S
C962 C967 1.379 . S
C962 N969 1.356 . S
C963 C962 1.363 . S
C963 C966 1.363 . S
N964 C966 1.356 . S
N964 H976 0.984 . S
N964 H977 0.985 . S
N965 C967 1.356 . S
N965 H970 0.984 . S
N965 H971 0.985 . S
C966 C960 1.379 . S
C966 C963 1.363 . S
C966 N964 1.356 . S
C967 C961 1.363 . S
C967 C962 1.379 . S
C967 N965 1.356 . S
N968 C960 1.356 . S
N968 H974 0.984 . S
N968 H975 0.984 . S
N969 C962 1.356 . S
N969 H972 0.984 . S
N969 H973 0.985 . S
H970 N965 0.984 . S
H971 N965 0.985 . S
H972 N969 0.984 . S
H973 N969 0.985 . S
H974 N968 0.984 . S
H975 N968 0.984 . S
H976 N964 0.984 . S
H977 N964 0.985 . S
C978 C979 1.363 . S
C978 C984 1.379 . S
C978 N986 1.356 . S
C979 C978 1.363 . S
C979 C985 1.363 . S
C980 C981 1.363 . S
C980 C985 1.379 . S
C980 N987 1.356 . S
C981 C980 1.363 . S
C981 C984 1.363 . S
N982 C984 1.356 . S
N982 H994 0.984 . S
N982 H995 0.985 . S
N983 C985 1.356 . S
N983 H988 0.984 . S
N983 H989 0.985 . S
C984 C978 1.379 . S
C984 C981 1.363 . S
C984 N982 1.356 . S
C985 C979 1.363 . S
C985 C980 1.379 . S
C985 N983 1.356 . S
N986 C978 1.356 . S
N986 H992 0.984 . S
N986 H993 0.984 . S
N987 C980 1.356 . S
N987 H990 0.984 . S
N987 H991 0.985 . S
H988 N983 0.984 . S
H989 N983 0.985 . S
H990 N987 0.984 . S
H991 N987 0.985 . S
H992 N986 0.984 . S
H993 N986 0.984 . S
H994 N982 0.984 . S
H995 N982 0.985 . S
C996 C997 1.363 . S
C996 C1002 1.379 . S
C996 N1004 1.356 . S
C997 C996 1.363 . S
C997 C1003 1.363 . S
C998 C999 1.363 . S
C998 C1003 1.379 . S
C998 N1005 1.356 . S
C999 C998 1.363 . S
C999 C1002 1.363 . S
N1000 C1002 1.356 . S
N1000 H1012 0.984 . S
N1000 H1013 0.985 . S
N1001 C1003 1.356 . S
N1001 H1006 0.984 . S
N1001 H1007 0.985 . S
C1002 C996 1.379 . S
C1002 C999 1.363 . S
C1002 N1000 1.356 . S
C1003 C997 1.363 . S
C1003 C998 1.379 . S
C1003 N1001 1.356 . S
N1004 C996 1.356 . S
N1004 H1010 0.984 . S
N1004 H1011 0.984 . S
N1005 C998 1.356 . S
N1005 H1008 0.984 . S
N1005 H1009 0.985 . S
H1006 N1001 0.984 . S
H1007 N1001 0.985 . S
H1008 N1005 0.984 . S
H1009 N1005 0.985 . S
H1010 N1004 0.984 . S
H1011 N1004 0.984 . S
H1012 N1000 0.984 . S
H1013 N1000 0.985 . S
C1014 C1015 1.363 . S
C1014 C1020 1.379 . S
C1014 N1022 1.356 . S
C1015 C1014 1.363 . S
C1015 C1021 1.363 . S
C1016 C1017 1.363 . S
C1016 C1021 1.379 . S
C1016 N1023 1.356 . S
C1017 C1016 1.363 . S
C1017 C1020 1.363 . S
N1018 C1020 1.356 . S
N1018 H1030 0.984 . S
N1018 H1031 0.985 . S
N1019 C1021 1.356 . S
N1019 H1024 0.984 . S
N1019 H1025 0.985 . S
C1020 C1014 1.379 . S
C1020 C1017 1.363 . S
C1020 N1018 1.356 . S
C1021 C1015 1.363 . S
C1021 C1016 1.379 . S
C1021 N1019 1.356 . S
N1022 C1014 1.356 . S
N1022 H1028 0.984 . S
N1022 H1029 0.984 . S
N1023 C1016 1.356 . S
N1023 H1026 0.984 . S
N1023 H1027 0.985 . S
H1024 N1019 0.984 . S
H1025 N1019 0.985 . S
H1026 N1023 0.984 . S
H1027 N1023 0.985 . S
H1028 N1022 0.984 . S
H1029 N1022 0.984 . S
H1030 N1018 0.984 . S
H1031 N1018 0.985 . S
C1032 C1033 1.363 . S
C1032 C1038 1.379 . S
C1032 N1040 1.356 . S
C1033 C1032 1.363 . S
C1033 C1039 1.363 . S
C1034 C1035 1.363 . S
C1034 C1039 1.379 . S
C1034 N1041 1.356 . S
C1035 C1034 1.363 . S
C1035 C1038 1.363 . S
N1036 C1038 1.356 . S
N1036 H1048 0.984 . S
N1036 H1049 0.985 . S
N1037 C1039 1.356 . S
N1037 H1042 0.984 . S
N1037 H1043 0.985 . S
C1038 C1032 1.379 . S
C1038 C1035 1.363 . S
C1038 N1036 1.356 . S
C1039 C1033 1.363 . S
C1039 C1034 1.379 . S
C1039 N1037 1.356 . S
N1040 C1032 1.356 . S
N1040 H1046 0.984 . S
N1040 H1047 0.984 . S
N1041 C1034 1.356 . S
N1041 H1044 0.984 . S
N1041 H1045 0.985 . S
H1042 N1037 0.984 . S
H1043 N1037 0.985 . S
H1044 N1041 0.984 . S
H1045 N1041 0.985 . S
H1046 N1040 0.984 . S
H1047 N1040 0.984 . S
H1048 N1036 0.984 . S
H1049 N1036 0.985 . S
C1050 C1051 1.363 . S
C1050 C1056 1.379 . S
C1050 N1058 1.356 . S
C1051 C1050 1.363 . S
C1051 C1057 1.363 . S
C1052 C1053 1.363 . S
C1052 C1057 1.379 . S
C1052 N1059 1.356 . S
C1053 C1052 1.363 . S
C1053 C1056 1.363 . S
N1054 C1056 1.356 . S
N1054 H1066 0.984 . S
N1054 H1067 0.985 . S
N1055 C1057 1.356 . S
N1055 H1060 0.984 . S
N1055 H1061 0.985 . S
C1056 C1050 1.379 . S
C1056 C1053 1.363 . S
C1056 N1054 1.356 . S
C1057 C1051 1.363 . S
C1057 C1052 1.379 . S
C1057 N1055 1.356 . S
N1058 C1050 1.356 . S
N1058 H1064 0.984 . S
N1058 H1065 0.984 . S
N1059 C1052 1.356 . S
N1059 H1062 0.984 . S
N1059 H1063 0.985 . S
H1060 N1055 0.984 . S
H1061 N1055 0.985 . S
H1062 N1059 0.984 . S
H1063 N1059 0.985 . S
H1064 N1058 0.984 . S
H1065 N1058 0.984 . S
H1066 N1054 0.984 . S
H1067 N1054 0.985 . S
C1068 C1069 1.363 . S
C1068 C1074 1.379 . S
C1068 N1076 1.356 . S
C1069 C1068 1.363 . S
C1069 C1075 1.363 . S
C1070 C1071 1.363 . S
C1070 C1075 1.379 . S
C1070 N1077 1.356 . S
C1071 C1070 1.363 . S
C1071 C1074 1.363 . S
N1072 C1074 1.356 . S
N1072 H1084 0.984 . S
N1072 H1085 0.985 . S
N1073 C1075 1.356 . S
N1073 H1078 0.984 . S
N1073 H1079 0.985 . S
C1074 C1068 1.379 . S
C1074 C1071 1.363 . S
C1074 N1072 1.356 . S
C1075 C1069 1.363 . S
C1075 C1070 1.379 . S
C1075 N1073 1.356 . S
N1076 C1068 1.356 . S
N1076 H1082 0.984 . S
N1076 H1083 0.984 . S
N1077 C1070 1.356 . S
N1077 H1080 0.984 . S
N1077 H1081 0.985 . S
H1078 N1073 0.984 . S
H1079 N1073 0.985 . S
H1080 N1077 0.984 . S
H1081 N1077 0.985 . S
H1082 N1076 0.984 . S
H1083 N1076 0.984 . S
H1084 N1072 0.984 . S
H1085 N1072 0.985 . S
C1086 C1087 1.363 . S
C1086 C1092 1.379 . S
C1086 N1094 1.356 . S
C1087 C1086 1.363 . S
C1087 C1093 1.363 . S
C1088 C1089 1.363 . S
C1088 C1093 1.379 . S
C1088 N1095 1.356 . S
C1089 C1088 1.363 . S
C1089 C1092 1.363 . S
N1090 C1092 1.356 . S
N1090 H1102 0.984 . S
N1090 H1103 0.985 . S
N1091 C1093 1.356 . S
N1091 H1096 0.984 . S
N1091 H1097 0.985 . S
C1092 C1086 1.379 . S
C1092 C1089 1.363 . S
C1092 N1090 1.356 . S
C1093 C1087 1.363 . S
C1093 C1088 1.379 . S
C1093 N1091 1.356 . S
N1094 C1086 1.356 . S
N1094 H1100 0.984 . S
N1094 H1101 0.984 . S
N1095 C1088 1.356 . S
N1095 H1098 0.984 . S
N1095 H1099 0.985 . S
H1096 N1091 0.984 . S
H1097 N1091 0.985 . S
H1098 N1095 0.984 . S
H1099 N1095 0.985 . S
H1100 N1094 0.984 . S
H1101 N1094 0.984 . S
H1102 N1090 0.984 . S
H1103 N1090 0.985 . S
C1104 C1105 1.363 . S
C1104 C1110 1.379 . S
C1104 N1112 1.356 . S
C1105 C1104 1.363 . S
C1105 C1111 1.363 . S
C1106 C1107 1.363 . S
C1106 C1111 1.379 . S
C1106 N1113 1.356 . S
C1107 C1106 1.363 . S
C1107 C1110 1.363 . S
N1108 C1110 1.356 . S
N1108 H1120 0.984 . S
N1108 H1121 0.985 . S
N1109 C1111 1.356 . S
N1109 H1114 0.984 . S
N1109 H1115 0.985 . S
C1110 C1104 1.379 . S
C1110 C1107 1.363 . S
C1110 N1108 1.356 . S
C1111 C1105 1.363 . S
C1111 C1106 1.379 . S
C1111 N1109 1.356 . S
N1112 C1104 1.356 . S
N1112 H1118 0.984 . S
N1112 H1119 0.984 . S
N1113 C1106 1.356 . S
N1113 H1116 0.984 . S
N1113 H1117 0.985 . S
H1114 N1109 0.984 . S
H1115 N1109 0.985 . S
H1116 N1113 0.984 . S
H1117 N1113 0.985 . S
H1118 N1112 0.984 . S
H1119 N1112 0.984 . S
H1120 N1108 0.984 . S
H1121 N1108 0.985 . S
C1122 C1123 1.363 . S
C1122 C1128 1.379 . S
C1122 N1130 1.356 . S
C1123 C1122 1.363 . S
C1123 C1129 1.363 . S
C1124 C1125 1.363 . S
C1124 C1129 1.379 . S
C1124 N1131 1.356 . S
C1125 C1124 1.363 . S
C1125 C1128 1.363 . S
N1126 C1128 1.356 . S
N1126 H1138 0.984 . S
N1126 H1139 0.985 . S
N1127 C1129 1.356 . S
N1127 H1132 0.984 . S
N1127 H1133 0.985 . S
C1128 C1122 1.379 . S
C1128 C1125 1.363 . S
C1128 N1126 1.356 . S
C1129 C1123 1.363 . S
C1129 C1124 1.379 . S
C1129 N1127 1.356 . S
N1130 C1122 1.356 . S
N1130 H1136 0.984 . S
N1130 H1137 0.984 . S
N1131 C1124 1.356 . S
N1131 H1134 0.984 . S
N1131 H1135 0.985 . S
H1132 N1127 0.984 . S
H1133 N1127 0.985 . S
H1134 N1131 0.984 . S
H1135 N1131 0.985 . S
H1136 N1130 0.984 . S
H1137 N1130 0.984 . S
H1138 N1126 0.984 . S
H1139 N1126 0.985 . S
C1140 C1141 1.363 . S
C1140 C1146 1.379 . S
C1140 N1148 1.356 . S
C1141 C1140 1.363 . S
C1141 C1147 1.363 . S
C1142 C1143 1.363 . S
C1142 C1147 1.379 . S
C1142 N1149 1.356 . S
C1143 C1142 1.363 . S
C1143 C1146 1.363 . S
N1144 C1146 1.356 . S
N1144 H1156 0.984 . S
N1144 H1157 0.985 . S
N1145 C1147 1.356 . S
N1145 H1150 0.984 . S
N1145 H1151 0.985 . S
C1146 C1140 1.379 . S
C1146 C1143 1.363 . S
C1146 N1144 1.356 . S
C1147 C1141 1.363 . S
C1147 C1142 1.379 . S
C1147 N1145 1.356 . S
N1148 C1140 1.356 . S
N1148 H1154 0.984 . S
N1148 H1155 0.984 . S
N1149 C1142 1.356 . S
N1149 H1152 0.984 . S
N1149 H1153 0.985 . S
H1150 N1145 0.984 . S
H1151 N1145 0.985 . S
H1152 N1149 0.984 . S
H1153 N1149 0.985 . S
H1154 N1148 0.984 . S
H1155 N1148 0.984 . S
H1156 N1144 0.984 . S
H1157 N1144 0.985 . S
C1158 C1159 1.363 . S
C1158 C1164 1.379 . S
C1158 N1166 1.356 . S
C1159 C1158 1.363 . S
C1159 C1165 1.363 . S
C1160 C1161 1.363 . S
C1160 C1165 1.379 . S
C1160 N1167 1.356 . S
C1161 C1160 1.363 . S
C1161 C1164 1.363 . S
N1162 C1164 1.356 . S
N1162 H1174 0.984 . S
N1162 H1175 0.985 . S
N1163 C1165 1.356 . S
N1163 H1168 0.984 . S
N1163 H1169 0.985 . S
C1164 C1158 1.379 . S
C1164 C1161 1.363 . S
C1164 N1162 1.356 . S
C1165 C1159 1.363 . S
C1165 C1160 1.379 . S
C1165 N1163 1.356 . S
N1166 C1158 1.356 . S
N1166 H1172 0.984 . S
N1166 H1173 0.984 . S
N1167 C1160 1.356 . S
N1167 H1170 0.984 . S
N1167 H1171 0.985 . S
H1168 N1163 0.984 . S
H1169 N1163 0.985 . S
H1170 N1167 0.984 . S
H1171 N1167 0.985 . S
H1172 N1166 0.984 . S
H1173 N1166 0.984 . S
H1174 N1162 0.984 . S
H1175 N1162 0.985 . S
C1176 C1177 1.363 . S
C1176 C1182 1.379 . S
C1176 N1184 1.356 . S
C1177 C1176 1.363 . S
C1177 C1183 1.363 . S
C1178 C1179 1.363 . S
C1178 C1183 1.379 . S
C1178 N1185 1.356 . S
C1179 C1178 1.363 . S
C1179 C1182 1.363 . S
N1180 C1182 1.356 . S
N1180 H1192 0.984 . S
N1180 H1193 0.985 . S
N1181 C1183 1.356 . S
N1181 H1186 0.984 . S
N1181 H1187 0.985 . S
C1182 C1176 1.379 . S
C1182 C1179 1.363 . S
C1182 N1180 1.356 . S
C1183 C1177 1.363 . S
C1183 C1178 1.379 . S
C1183 N1181 1.356 . S
N1184 C1176 1.356 . S
N1184 H1190 0.984 . S
N1184 H1191 0.984 . S
N1185 C1178 1.356 . S
N1185 H1188 0.984 . S
N1185 H1189 0.985 . S
H1186 N1181 0.984 . S
H1187 N1181 0.985 . S
H1188 N1185 0.984 . S
H1189 N1185 0.985 . S
H1190 N1184 0.984 . S
H1191 N1184 0.984 . S
H1192 N1180 0.984 . S
H1193 N1180 0.985 . S
C1194 C1195 1.363 . S
C1194 C1200 1.379 . S
C1194 N1202 1.356 . S
C1195 C1194 1.363 . S
C1195 C1201 1.363 . S
C1196 C1197 1.363 . S
C1196 C1201 1.379 . S
C1196 N1203 1.356 . S
C1197 C1196 1.363 . S
C1197 C1200 1.363 . S
N1198 C1200 1.356 . S
N1198 H1210 0.984 . S
N1198 H1211 0.985 . S
N1199 C1201 1.356 . S
N1199 H1204 0.984 . S
N1199 H1205 0.985 . S
C1200 C1194 1.379 . S
C1200 C1197 1.363 . S
C1200 N1198 1.356 . S
C1201 C1195 1.363 . S
C1201 C1196 1.379 . S
C1201 N1199 1.356 . S
N1202 C1194 1.356 . S
N1202 H1208 0.984 . S
N1202 H1209 0.984 . S
N1203 C1196 1.356 . S
N1203 H1206 0.984 . S
N1203 H1207 0.985 . S
H1204 N1199 0.984 . S
H1205 N1199 0.985 . S
H1206 N1203 0.984 . S
H1207 N1203 0.985 . S
H1208 N1202 0.984 . S
H1209 N1202 0.984 . S
H1210 N1198 0.984 . S
H1211 N1198 0.985 . S
C1212 C1213 1.363 . S
C1212 C1218 1.379 . S
C1212 N1220 1.356 . S
C1213 C1212 1.363 . S
C1213 C1219 1.363 . S
C1214 C1215 1.363 . S
C1214 C1219 1.379 . S
C1214 N1221 1.356 . S
C1215 C1214 1.363 . S
C1215 C1218 1.363 . S
N1216 C1218 1.356 . S
N1216 H1228 0.984 . S
N1216 H1229 0.985 . S
N1217 C1219 1.356 . S
N1217 H1222 0.984 . S
N1217 H1223 0.985 . S
C1218 C1212 1.379 . S
C1218 C1215 1.363 . S
C1218 N1216 1.356 . S
C1219 C1213 1.363 . S
C1219 C1214 1.379 . S
C1219 N1217 1.356 . S
N1220 C1212 1.356 . S
N1220 H1226 0.984 . S
N1220 H1227 0.984 . S
N1221 C1214 1.356 . S
N1221 H1224 0.984 . S
N1221 H1225 0.985 . S
H1222 N1217 0.984 . S
H1223 N1217 0.985 . S
H1224 N1221 0.984 . S
H1225 N1221 0.985 . S
H1226 N1220 0.984 . S
H1227 N1220 0.984 . S
H1228 N1216 0.984 . S
H1229 N1216 0.985 . S
C1230 C1231 1.363 . S
C1230 C1236 1.379 . S
C1230 N1238 1.356 . S
C1231 C1230 1.363 . S
C1231 C1237 1.363 . S
C1232 C1233 1.363 . S
C1232 C1237 1.379 . S
C1232 N1239 1.356 . S
C1233 C1232 1.363 . S
C1233 C1236 1.363 . S
N1234 C1236 1.356 . S
N1234 H1246 0.984 . S
N1234 H1247 0.985 . S
N1235 C1237 1.356 . S
N1235 H1240 0.984 . S
N1235 H1241 0.985 . S
C1236 C1230 1.379 . S
C1236 C1233 1.363 . S
C1236 N1234 1.356 . S
C1237 C1231 1.363 . S
C1237 C1232 1.379 . S
C1237 N1235 1.356 . S
N1238 C1230 1.356 . S
N1238 H1244 0.984 . S
N1238 H1245 0.984 . S
N1239 C1232 1.356 . S
N1239 H1242 0.984 . S
N1239 H1243 0.985 . S
H1240 N1235 0.984 . S
H1241 N1235 0.985 . S
H1242 N1239 0.984 . S
H1243 N1239 0.985 . S
H1244 N1238 0.984 . S
H1245 N1238 0.984 . S
H1246 N1234 0.984 . S
H1247 N1234 0.985 . S
C529 N5 1.869 . S
C531 N236 1.869 . S
C547 N137 1.869 . S
C549 N38 1.869 . S
C565 N170 1.869 . S
C567 N71 1.869 . S
C583 N203 1.869 . S
C585 N104 1.869 . S
C601 N269 1.869 . S
C603 N500 1.869 . S
C619 N302 1.869 . S
C621 N401 1.869 . S
C637 N434 1.869 . S
C639 N335 1.869 . S
C655 N368 1.869 . S
C657 N467 1.869 . S
C673 N14 1.604 . S
C675 N344 1.604 . S
C691 N377 1.604 . S
C693 N47 1.604 . S
C709 N278 1.604 . S
C711 N80 1.604 . S
C727 N311 1.604 . S
C729 N113 1.604 . S
C745 N476 1.604 . S
C747 N146 1.604 . S
C763 N509 1.604 . S
C765 N179 1.604 . S
C781 N410 1.604 . S
C783 N212 1.604 . S
C799 N443 1.604 . S
C801 N245 1.604 . S
C817 C17 0.717 . S
C819 C83 0.717 . S
C835 C116 0.717 . S
C837 C50 0.717 . S
C853 C215 0.717 . S
C855 C149 0.717 . S
C871 C248 0.717 . S
C873 C182 0.717 . S
C889 C281 0.717 . S
C891 C347 0.717 . S
C907 C380 0.717 . S
C909 C314 0.717 . S
C925 C413 0.717 . S
C927 C479 0.717 . S
C943 C446 0.717 . S
C945 C512 0.717 . S
C961 C470 1.922 . S
C963 C28 2.116 . S
C979 C61 2.116 . S
C981 C503 1.922 . S
C997 C404 1.922 . S
C999 C94 2.116 . S
C1015 C437 1.922 . S
C1017 C127 2.116 . S
C1033 C338 1.922 . S
C1035 C160 2.116 . S
C1051 C193 2.116 . S
C1053 C371 1.922 . S
C1069 C272 1.922 . S
C1071 C226 2.116 . S
C1087 C259 2.116 . S
C1089 C305 1.922 . S
C1105 C206 1.922 . S
C1107 C292 2.116 . S
C1123 C239 1.922 . S
C1125 C325 2.116 . S
C1141 C140 1.922 . S
C1143 C358 2.116 . S
C1159 C391 2.116 . S
C1161 C173 1.922 . S
C1177 C74 1.922 . S
C1179 C424 2.116 . S
C1195 C457 2.116 . S
C1197 C107 1.922 . S
C1213 C490 2.116 . S
C1215 C8 1.922 . S
C1231 C41 1.922 . S
C1233 C523 2.116 . S
