# Generated by pormake.
# Topology kag, (6)-cn, num edge types: 1
# Building blocks:
#     Node 0, Type 0, BuildingBlock: KUMBOL_clean_sbu_0, # of connection points: 6
#     Node 1, Type 0, BuildingBlock: KUMBOL_clean_sbu_0, # of connection points: 6
#     Node 2, Type 0, BuildingBlock: KUMBOL_clean_sbu_0, # of connection points: 6
#     Edge 3, Type (0, 0), BuildingBlock: ZUJKAS_clean_linker_0, # of connection points: 2
#     Edge 4, Type (0, 0), BuildingBlock: ZUJKAS_clean_linker_0, # of connection points: 2
#     Edge 5, Type (0, 0), BuildingBlock: ZUJKAS_clean_linker_0, # of connection points: 2
#     Edge 6, Type (0, 0), BuildingBlock: ZUJKAS_clean_linker_0, # of connection points: 2
#     Edge 7, Type (0, 0), BuildingBlock: ZUJKAS_clean_linker_0, # of connection points: 2
#     Edge 8, Type (0, 0), BuildingBlock: ZUJKAS_clean_linker_0, # of connection points: 2
#     Edge 9, Type (0, 0), BuildingBlock: ZUJKAS_clean_linker_0, # of connection points: 2
#     Edge 10, Type (0, 0), BuildingBlock: ZUJKAS_clean_linker_0, # of connection points: 2
#     Edge 11, Type (0, 0), BuildingBlock: ZUJKAS_clean_linker_0, # of connection points: 2
# Relax obj value: 0.055
# Max RMSD: 0.170
# Mean RMSD: 0.129
data_MOF--net-kag--node1-KUMBOL_clean_sbu_0--edge1-ZUJKAS_clean_linker_0
_symmetry_space_group_name_H-M    P1
_symmetry_Int_Tables_number       1
_symmetry_cell_setting            triclinic
loop_
_symmetry_equiv_pos_as_xyz
'x, y, z'
_cell_length_a     48.685493
_cell_length_b     39.531658
_cell_length_c     19.788464
_cell_angle_alpha  93.782722
_cell_angle_beta   114.0676
_cell_angle_gamma 102.73455
loop_
_atom_site_label
_atom_site_type_symbol
_atom_site_fract_x
_atom_site_fract_y
_atom_site_fract_z
_atom_type_partial_charge
Gd0 Gd 0.01975 0.57917 0.00096 0.0
Gd1 Gd 1.00587 0.4835 0.98476 0.0
C2 C 0.07902 0.42919 0.98187 0.0
C3 C 0.05327 0.39486 0.85553 0.0
C4 C 0.02685 0.43088 0.89781 0.0
C5 C 0.05262 0.44196 0.9668 0.0
C6 C 0.02662 0.40669 0.84184 0.0
C7 C 0.07944 0.40612 0.92539 0.0
C8 C 0.10392 0.43939 0.05375 0.0
C9 C 0.10165 0.46085 0.1091 0.0
N10 N 0.05136 0.4641 0.02025 0.0
C11 C 0.07487 0.47262 0.0916 0.0
H12 H 0.07351 0.48928 0.13488 0.0
C13 C 0.97434 0.42978 0.82234 0.0
N14 N 1.0015 0.44278 0.88646 0.0
C15 C 0.973 0.40586 0.76502 0.0
C16 C 0.99937 0.39455 0.77445 0.0
H17 H 0.95395 0.43859 0.81473 0.0
H18 H 0.09962 0.39628 0.93569 0.0
H19 H 0.95223 0.57337 0.85068 0.0
H20 H 0.12469 0.43031 0.06748 0.0
H21 H 0.12056 0.46842 0.16522 0.0
H22 H 0.05366 0.37649 0.813 0.0
H23 H 0.07144 0.6241 0.17115 0.0
H24 H 0.90025 0.63089 0.9187 0.0
H25 H 0.90484 0.59362 0.82049 0.0
H26 H 0.97068 0.68392 0.17394 0.0
H27 H 0.95167 0.3962 0.71363 0.0
H28 H 0.99826 0.37596 0.73003 0.0
H29 H 0.92484 0.66414 0.05103 0.0
H30 H 0.07327 0.66583 0.27275 0.0
N31 N 0.97398 0.59795 0.96565 0.0
C32 C 0.9211 0.62199 0.93238 0.0
C33 C 0.92365 0.60104 0.87675 0.0
C34 C 0.94586 0.632 0.00447 0.0
C35 C 0.97244 0.61958 0.01943 0.0
C36 C 0.9506 0.58962 0.89415 0.0
N37 N 0.02376 0.61935 0.09963 0.0
C38 C 0.99817 0.63073 0.0885 0.0
C39 C 0.05196 0.65605 0.22134 0.0
C40 C 0.02536 0.6668 0.21215 0.0
C41 C 0.05089 0.63252 0.16376 0.0
C42 C 0.99814 0.65453 0.14472 0.0
H43 H 0.02627 0.68509 0.25676 0.0
O44 O 0.06018 0.62123 0.01694 0.0
O45 O 0.03919 0.53392 -0.00593 0.0
O46 O 0.02754 0.51084 0.10748 0.0
O47 O 0.01524 0.56456 0.10478 0.0
O48 O 0.06985 0.5778 0.07026 0.0
O49 O 0.01733 0.61061 0.91396 0.0
O50 O 0.96501 0.44249 0.96984 0.0
O51 O 0.98638 0.52872 0.9915 0.0
O52 O 0.9985 0.55189 0.87817 0.0
O53 O 1.01033 0.49784 0.8808 0.0
O54 O 0.95593 0.48497 0.91459 0.0
O55 O 1.00822 0.45204 0.07168 0.0
C56 C 0.06749 0.54671 0.04032 0.0
C57 C 0.97127 0.66587 0.13122 0.0
C58 C 0.94517 0.65461 0.06124 0.0
C59 C 0.04539 0.63142 0.95388 0.0
C60 C 0.04889 0.66952 0.95798 0.0
C61 C 0.027 0.68463 0.96793 0.0
C62 C 0.07485 0.69117 0.95313 0.0
C63 C 0.07911 0.72783 0.95843 0.0
C64 C 0.03111 0.72093 0.97349 0.0
C65 C 0.05697 0.74246 0.96886 0.0
C66 C 0.02282 0.53822 0.13957 0.0
C67 C 0.95812 0.51594 0.94479 0.0
C68 C 0.97979 0.432 0.03249 0.0
C69 C 0.97521 0.3938 0.028 0.0
C70 C 0.99647 0.37742 0.01836 0.0
C71 C 0.94862 0.37333 0.03196 0.0
C72 C 0.9431 0.33657 0.0265 0.0
C73 C 0.99112 0.34095 0.01255 0.0
C74 C 0.96462 0.32057 0.01655 0.0
C75 C 1.00295 0.52427 0.84605 0.0
H76 H 1.00674 0.66847 0.97118 0.0
H77 H 0.0919 0.67948 0.94614 0.0
H78 H 0.0141 0.73241 0.98108 0.0
H79 H 0.05935 0.77049 0.97221 0.0
H80 H 0.01716 0.39273 0.01544 0.0
H81 H 0.93204 0.38607 0.03835 0.0
H82 H 1.00762 0.32844 0.00523 0.0
H83 H 0.96125 0.29239 0.01302 0.0
Gd84 Gd 0.4653 1.01102 0.94334 0.0
Gd85 Gd 0.54988 0.03397 0.03153 0.0
C86 C 0.58863 0.93847 0.08042 0.0
C87 C 0.6144 0.94903 0.21692 0.0
C88 C 0.58804 0.99065 0.15056 0.0
C89 C 0.57896 0.9695 0.08253 0.0
C90 C 0.6068 0.98125 0.21842 0.0
C91 C 0.60545 0.92775 0.14798 0.0
C92 C 0.58226 0.91997 0.01059 0.0
C93 C 0.56759 0.93318 0.94543 0.0
N94 N 0.56329 0.98104 0.01835 0.0
C95 C 0.55842 0.96404 0.95041 0.0
H96 H 0.54732 0.97397 0.89968 0.0
C97 C 0.59591 0.04729 0.21364 0.0
N98 N 0.58161 1.02232 0.14965 0.0
C99 C 0.61401 0.03892 0.28257 0.0
C100 C 0.61898 1.00547 0.28522 0.0
H101 H 0.59213 0.07323 0.21166 0.0
H102 H 0.61277 0.9038 0.14753 0.0
H103 H 0.45341 0.03585 0.09899 0.0
H104 H 0.58941 0.89613 0.00652 0.0
H105 H 0.5632 0.91953 0.89128 0.0
H106 H 0.62847 0.94117 0.26852 0.0
H107 H 0.44812 1.02282 0.76204 0.0
H108 H 0.43192 0.13404 0.08204 0.0
H109 H 0.44288 0.08558 0.15209 0.0
H110 H 0.42114 0.15384 0.83887 0.0
H111 H 0.62426 0.05832 0.33348 0.0
H112 H 0.63343 0.99922 0.33851 0.0
H113 H 0.42364 0.15893 0.96548 0.0
H114 H 0.43491 0.0673 0.68477 0.0
N115 N 0.45342 0.05691 0.00157 0.0
C116 C 0.43761 0.11247 0.05865 0.0
C117 C 0.44403 0.08535 0.09858 0.0
C118 C 0.43734 0.11076 0.98774 0.0
C119 C 0.4451 0.08214 0.95968 0.0
C120 C 0.4511 0.05733 0.06847 0.0
N121 N 0.45133 0.0518 0.86148 0.0
C122 C 0.44404 0.07952 0.88815 0.0
C123 C 0.438 0.07149 0.74234 0.0
C124 C 0.43248 0.10115 0.77047 0.0
C125 C 0.44666 0.04665 0.78799 0.0
C126 C 0.43476 0.10512 0.84337 0.0
H127 H 0.42555 0.12027 0.7347 0.0
O128 O 0.422 0.98449 0.84579 0.0
O129 O 0.50675 0.98869 0.98598 0.0
O130 O 0.5315 0.03011 0.90565 0.0
O131 O 0.47961 0.99697 0.85304 0.0
O132 O 0.46407 0.95272 0.9387 0.0
O133 O 0.42416 0.98629 0.95799 0.0
O134 O 0.58959 0.08069 0.07532 0.0
O135 O 0.5087 0.05705 0.97527 0.0
O136 O 0.48105 1.00503 0.06487 0.0
O137 O 0.53539 1.02643 0.12492 0.0
O138 O 0.54408 0.08462 0.07738 0.0
O139 O 0.58253 0.04337 0.98146 0.0
C140 C 0.49351 0.95522 0.97198 0.0
C141 C 0.42785 0.13382 0.87218 0.0
C142 C 0.42926 0.13671 0.94423 0.0
C143 C 0.40651 0.97696 0.88587 0.0
C144 C 0.37526 0.98283 0.85867 0.0
C145 C 0.36797 1.01049 0.81995 0.0
C146 C 0.35223 0.95994 0.87197 0.0
C147 C 0.32193 0.96435 0.84676 0.0
C148 C 0.33799 1.01513 0.79492 0.0
C149 C 0.31506 0.99224 0.80804 0.0
C150 C 0.50566 1.01138 0.84786 0.0
C151 C 0.51842 0.08593 0.02272 0.0
C152 C 0.60104 0.07154 0.03025 0.0
C153 C 0.63454 0.07327 0.06499 0.0
C154 C 0.64485 0.04571 0.09952 0.0
C155 C 0.65646 0.10255 0.06317 0.0
C156 C 0.68857 0.10441 0.09638 0.0
C157 C 0.67658 0.04755 0.13324 0.0
C158 C 0.69836 0.07669 0.13186 0.0
C159 C 0.50805 1.014 0.12545 0.0
H160 H 0.38528 0.02835 0.80874 0.0
H161 H 0.35786 0.93832 0.90102 0.0
H162 H 0.33249 0.03655 0.76522 0.0
H163 H 0.29207 0.9966 0.78864 0.0
H164 H 0.62845 1.02261 0.09981 0.0
H165 H 0.64855 0.12382 0.03612 0.0
H166 H 0.68427 1.02611 0.15974 0.0
H167 H 0.72283 0.07711 0.15693 0.0
Gd168 Gd 0.55307 0.53613 0.03223 0.0
Gd169 Gd 0.46919 0.50957 0.95682 0.0
C170 C 0.43869 0.39154 0.9602 0.0
C171 C 0.41767 0.36569 0.82862 0.0
C172 C 0.43827 0.42935 0.86849 0.0
C173 C 0.44596 0.4254 0.94229 0.0
C174 C 0.42308 0.39951 0.81053 0.0
C175 C 0.42529 0.36172 0.9033 0.0
C176 C 0.44438 0.38869 0.03447 0.0
C177 C 0.45628 0.41911 0.08835 0.0
N178 N 0.45903 0.45474 -0.00385 0.0
C179 C 0.46307 0.452 0.06793 0.0
H180 H 0.47065 0.47491 0.10981 0.0
C181 C 0.4287 0.46732 0.77962 0.0
N182 N 0.44266 0.46245 0.85264 0.0
C183 C 0.41428 0.4387 0.72035 0.0
C184 C 0.41211 0.4046 0.73584 0.0
H185 H 0.42853 0.4934 0.76651 0.0
H186 H 0.41992 0.33554 0.91612 0.0
H187 H 0.55127 0.57249 0.88082 0.0
H188 H 0.43882 0.36328 0.05038 0.0
H189 H 0.45987 0.4173 0.14554 0.0
H190 H 0.40638 0.34253 0.78493 0.0
H191 H 0.59422 0.55093 0.22237 0.0
H192 H 0.58119 0.68419 0.94388 0.0
H193 H 0.56114 0.63081 0.84708 0.0
H194 H 0.6143 0.70237 0.20964 0.0
H195 H 0.40429 0.44297 0.6628 0.0
H196 H 0.40038 0.38241 0.68984 0.0
H197 H 0.6001 0.71063 0.07878 0.0
H198 H 0.61826 0.60065 0.32774 0.0
N199 N 0.56307 0.59158 -0.00486 0.0
C200 C 0.57645 0.65841 0.959 0.0
C201 C 0.56503 0.62838 0.90422 0.0
C202 C 0.5825 0.65477 0.03311 0.0
C203 C 0.57584 0.62054 0.04987 0.0
C204 C 0.55884 0.59509 0.92353 0.0
N205 N 0.5796 0.58255 0.13788 0.0
C206 C 0.58361 0.6159 0.12331 0.0
C207 C 0.60808 0.60536 0.27057 0.0
C208 C 0.60976 0.63964 0.25643 0.0
C209 C 0.59383 0.57715 0.21041 0.0
C210 C 0.59852 0.64536 0.18215 0.0
H211 H 0.6213 0.66152 0.30311 0.0
O212 O 0.59919 0.52821 0.09434 0.0
O213 O 0.51129 0.48729 0.97964 0.0
O214 O 0.49054 0.53098 0.08133 0.0
O215 O 0.5415 0.52674 0.12976 0.0
O216 O 0.55007 0.48395 0.0734 0.0
O217 O 0.58384 0.53229 0.978 0.0
O218 O 0.42309 0.51727 0.89359 0.0
O219 O 0.51085 0.55835 0.00908 0.0
O220 O 0.53198 0.51543 0.90756 0.0
O221 O 0.48071 0.5187 0.85908 0.0
O222 O 0.47223 0.56132 0.91435 0.0
O223 O 0.43855 0.51472 0.01068 0.0
C224 C 0.52279 0.46594 0.02314 0.0
C225 C 0.60333 0.67949 0.16527 0.0
C226 C 0.59542 0.68419 0.09085 0.0
C227 C 0.60712 0.53016 0.03907 0.0
C228 C 0.63857 0.55382 0.05662 0.0
C229 C 0.64796 0.58736 0.09994 0.0
C230 C 0.6596 0.54329 0.03192 0.0
C231 C 0.68954 0.5665 0.05034 0.0
C232 C 0.67725 0.61001 0.11878 0.0
C233 C 0.69783 0.59975 0.09467 0.0
C234 C 0.51679 0.53039 0.13816 0.0
C235 C 0.49933 0.57953 0.96507 0.0
C236 C 0.41529 0.51646 0.94915 0.0
C237 C 0.38378 0.49345 0.93276 0.0
C238 C 0.374 0.4594 0.89136 0.0
C239 C 0.36305 0.50521 0.9567 0.0
C240 C 0.33297 0.48273 0.93942 0.0
C241 C 0.34454 0.43742 0.8736 0.0
C242 C 0.32422 0.44889 0.89694 0.0
C243 C 0.5056 0.51569 0.85077 0.0
H244 H 0.63282 0.59602 0.12031 0.0
H245 H 0.6526 0.51748 -0.00177 0.0
H246 H 0.68418 0.63567 0.1529 0.0
H247 H 0.72064 0.61795 0.112 0.0
H248 H 0.38899 0.44981 0.8717 0.0
H249 H 0.3704 0.53143 0.98898 0.0
H250 H 0.33728 0.41132 0.84093 0.0
H251 H 0.30128 0.43118 0.88048 0.0
H252 H 0.98718 0.57191 0.75145 0.0
H253 H 0.98994 0.57364 0.6308 0.0
H254 H 0.02081 0.47905 0.64917 0.0
H255 H 0.01808 0.47699 0.76904 0.0
H256 H 0.04252 0.57875 0.60393 0.0
H257 H 0.95074 0.45592 0.43638 0.0
H258 H 0.95439 0.47641 0.52504 0.0
H259 H 0.97976 0.44986 0.52306 0.0
C260 C 0.99415 0.55119 0.72942 0.0
C261 C 1.00204 0.52408 0.76992 0.0
C262 C 0.9958 0.55228 0.66045 0.0
C263 C 1.00515 0.5262 0.63025 0.0
C264 C 0.01282 0.49902 0.67028 0.0
H265 H 0.0389 0.49058 0.234 0.0
H266 H 0.03615 0.48855 0.35464 0.0
C267 C 0.01123 0.49791 0.73912 0.0
C268 C 1.00837 0.52828 0.55883 0.0
H269 H 0.98338 0.48308 0.38171 0.0
C270 C 0.02944 0.55794 0.55517 0.0
C271 C 0.99147 0.50101 0.49533 0.0
C272 C 0.9676 0.46913 0.49462 0.0
C273 C 0.03442 0.56082 0.49032 0.0
C274 C 0.0175 0.53357 0.4268 0.0
C275 C 0.99646 0.50389 0.43048 0.0
C276 C 0.02063 0.53576 0.3553 0.0
C277 C 0.05827 0.5927 0.491 0.0
C278 C 0.01275 0.5629 0.31534 0.0
C279 C 0.01431 0.56416 0.24649 0.0
C280 C 0.0237 0.53822 0.21566 0.0
C281 C 0.03178 0.51114 0.25608 0.0
C282 C 0.03014 0.50987 0.32503 0.0
H283 H 0.07513 0.60593 0.54923 0.0
H284 H 0.07149 0.58542 0.46061 0.0
H285 H 0.04611 0.61196 0.46251 0.0
H286 H 1.00465 0.58271 0.33653 0.0
H287 H 1.0073 0.58503 0.2166 0.0
H288 H 0.55071 0.05097 0.26384 0.0
H289 H 0.54912 0.04608 0.38461 0.0
H290 H 0.46164 0.96541 0.27373 0.0
H291 H 0.46342 0.96959 0.15245 0.0
H292 H 0.49971 0.0567 0.42027 0.0
H293 H 0.517 0.923 0.45043 0.0
H294 H 0.52725 0.9484 0.38742 0.0
H295 H 0.48707 0.92676 0.36246 0.0
C296 C 0.53153 0.03158 0.26522 0.0
C297 C 0.50748 1.01025 0.19874 0.0
C298 C 0.53049 0.02907 0.33422 0.0
C299 C 0.50548 1.00507 0.33812 0.0
C300 C 0.48141 0.98368 0.27197 0.0
H301 H 0.46211 0.96659 0.71797 0.0
H302 H 0.46105 0.96408 0.5928 0.0
C303 C 0.48237 0.98626 0.20277 0.0
C304 C 0.50403 1.00375 0.41117 0.0
H305 H 0.50708 0.95157 0.54351 0.0
C306 C 0.50132 0.03374 0.44728 0.0
C307 C 0.50594 0.97364 0.44581 0.0
C308 C 0.50971 0.94113 0.41006 0.0
C309 C 0.5005 0.03446 0.51736 0.0
C310 C 0.50303 1.00463 0.55275 0.0
C311 C 0.5052 0.97439 0.51613 0.0
C312 C 0.50435 1.00487 0.62882 0.0
C313 C 0.49665 0.06705 0.55274 0.0
C314 C 0.52943 0.02804 0.69056 0.0
C315 C 0.53013 0.02957 0.76193 0.0
C316 C 0.50572 1.00792 0.77294 0.0
C317 C 0.4811 0.98389 0.71127 0.0
C318 C 0.48047 0.98234 0.6398 0.0
H319 H 0.4872 0.08377 0.51074 0.0
H320 H 0.48083 0.05996 0.5802 0.0
H321 H 0.51978 0.08292 0.5964 0.0
H322 H 0.54834 0.04522 0.68336 0.0
H323 H 0.54954 0.04827 0.80811 0.0
H324 H 0.54675 0.49629 0.80551 0.0
H325 H 0.54855 0.49907 0.68447 0.0
H326 H 0.46548 0.53554 0.60401 0.0
H327 H 0.46341 0.53283 0.72515 0.0
H328 H 0.46556 0.48303 0.49976 0.0
H329 H 0.57546 0.59142 0.61626 0.0
H330 H 0.57798 0.55384 0.66242 0.0
H331 H 0.55259 0.57966 0.66784 0.0
C332 C 0.52872 0.50474 0.76203 0.0
C333 C 0.50491 0.51434 0.77509 0.0
C334 C 0.52992 0.5065 0.69301 0.0
C335 C 0.5075 0.51815 0.63586 0.0
C336 C 0.4831 0.52665 0.64764 0.0
H337 H 0.47607 0.55096 0.18336 0.0
H338 H 0.47422 0.54873 0.30448 0.0
C339 C 0.48185 0.52487 0.71676 0.0
C340 C 0.50969 0.52164 0.56397 0.0
H341 H 0.55673 0.56439 0.48923 0.0
C342 C 0.48539 0.50094 0.4973 0.0
C343 C 0.53564 0.54502 0.56111 0.0
C344 C 0.5618 0.56901 0.63057 0.0
C345 C 0.48663 0.50245 0.42788 0.0
C346 C 0.51261 0.52577 0.42505 0.0
C347 C 0.53689 0.54652 0.49169 0.0
C348 C 0.5149 0.52905 0.35324 0.0
C349 C 0.46045 0.47853 0.35836 0.0
C350 C 0.53911 0.52 0.34151 0.0
C351 C 0.54037 0.52142 0.27234 0.0
C352 C 0.51752 0.53214 0.21391 0.0
C353 C 0.49393 0.54234 0.22693 0.0
C354 C 0.49271 0.54092 0.29599 0.0
H355 H 0.44655 0.45631 0.37257 0.0
H356 H 0.44449 0.49384 0.32613 0.0
H357 H 0.46969 0.46761 0.32145 0.0
H358 H 0.55655 0.51093 0.38521 0.0
H359 H 0.55864 0.51301 0.26399 0.0
H360 H 0.12822 0.56752 0.14421 0.0
H361 H 0.1745 0.5596 0.13164 0.0
H362 H 0.11558 0.49924 0.90915 0.0
H363 H 0.06958 0.50913 0.91997 0.0
H364 H 0.19589 0.50716 0.11701 0.0
H365 H 0.17578 0.56524 0.86018 0.0
H366 H 0.15264 0.56737 0.9111 0.0
H367 H 0.14379 0.52831 0.84528 0.0
C368 C 0.12513 0.55254 0.09256 0.0
C369 C 0.095 0.53851 0.03367 0.0
C370 C 0.15169 0.54795 0.08537 0.0
C371 C 0.14902 0.52935 0.01879 0.0
C372 C 0.11877 0.51463 0.96039 0.0
H373 H 0.29425 0.44232 0.98999 0.0
H374 H 0.25149 0.45527 0.0106 0.0
C375 C 0.09222 0.5197 0.96719 0.0
C376 C 0.17783 0.52531 0.01135 0.0
H377 H 0.21527 0.5346 0.89684 0.0
C378 C 0.20009 0.51341 0.06892 0.0
C379 C 0.18415 0.53411 0.94967 0.0
C380 C 0.163 0.54983 0.88851 0.0
C381 C 0.22772 0.50938 0.06595 0.0
C382 C 0.23314 0.51621 0.00222 0.0
C383 C 0.21128 0.52891 0.94546 0.0
C384 C 0.26057 0.50912 0.99204 0.0
C385 C 0.25111 0.49859 0.13246 0.0
C386 C 0.28014 0.53465 0.97283 0.0
C387 C 0.30458 0.52694 0.95906 0.0
C388 C 0.30994 0.49337 0.96353 0.0
C389 C 0.29081 0.46834 0.98483 0.0
C390 C 0.26639 0.47591 -0.00215 0.0
H391 H 0.24953 0.50708 0.18511 0.0
H392 H 0.24599 0.46945 0.12349 0.0
H393 H 0.27542 0.50994 0.14031 0.0
H394 H 0.27629 0.5605 0.96753 0.0
H395 H 0.31848 0.54684 0.9422 0.0
H396 H 0.7455 0.1406 0.20819 0.0
H397 H 0.78666 0.18468 0.19688 0.0
H398 H 0.72607 0.1793 0.96317 0.0
H399 H 0.68474 0.13515 0.97409 0.0
H400 H 0.81314 0.17175 0.10177 0.0
H401 H 0.76313 0.28563 0.04002 0.0
H402 H 0.74782 0.25013 0.07882 0.0
H403 H 0.73809 0.2445 0.98014 0.0
C404 C 0.74083 0.14909 0.15458 0.0
C405 C 0.71196 0.13429 0.0919 0.0
C406 C 0.76431 0.17434 0.14829 0.0
C407 C 0.75935 0.18542 0.07936 0.0
C408 C 0.73019 0.17162 0.01727 0.0
H409 H 0.90436 0.27275 0.94175 0.0
H410 H 0.85924 0.23664 0.95339 0.0
C411 C 0.7066 0.14638 0.02357 0.0
C412 C 0.78565 0.20889 0.07106 0.0
H413 H 0.80949 0.28813 0.02441 0.0
C414 C 0.81239 0.19726 0.08514 0.0
C415 C 0.78465 0.24222 0.04981 0.0
C416 C 0.75702 0.2566 0.03694 0.0
C417 C 0.83809 0.21787 0.07779 0.0
C418 C 0.83678 0.25077 0.05456 0.0
C419 C 0.81024 0.2627 0.04146 0.0
C420 C 0.8631 0.27335 0.04499 0.0
C421 C 0.86661 0.20449 0.09605 0.0
C422 C 0.87971 0.30629 0.09144 0.0
C423 C 0.90554 0.32693 0.08509 0.0
C424 C 0.91512 0.31505 0.03184 0.0
C425 C 0.89795 0.28234 0.98425 0.0
C426 C 0.87212 0.26174 0.99066 0.0
H427 H 0.86679 0.18311 0.12984 0.0
H428 H 0.86675 0.1938 0.04296 0.0
H429 H 0.88837 0.22612 0.12752 0.0
H430 H 0.87309 0.31568 0.13373 0.0
H431 H 0.91842 0.35184 0.12304 0.0
H432 H 0.48594 0.90306 0.8632 0.0
H433 H 0.49136 0.84317 0.87194 0.0
H434 H 0.52631 0.86699 0.1124 0.0
H435 H 0.52114 0.92738 0.10316 0.0
H436 H 0.4633 0.78993 0.9094 0.0
H437 H 0.58669 0.81364 0.11403 0.0
H438 H 0.56473 0.83473 0.14859 0.0
H439 H 0.57141 0.84821 0.07024 0.0
C440 C 0.49595 0.89615 0.91852 0.0
C441 C 0.5048 0.92167 0.98261 0.0
C442 C 0.4987 0.8612 0.92353 0.0
C443 C 0.50992 0.84917 0.99304 0.0
C444 C 0.51859 0.87462 0.05761 0.0
H445 H 0.49094 0.62189 0.85935 0.0
H446 H 0.49457 0.68479 0.86909 0.0
C447 C 0.51578 0.90981 0.05243 0.0
C448 C 0.51031 0.80994 -0.00407 0.0
H449 H 0.5555 0.75445 0.07976 0.0
C450 C 0.48373 0.78263 0.9468 0.0
C451 C 0.53642 0.79869 0.04458 0.0
C452 C 0.56656 0.82526 0.09697 0.0
C453 C 0.48234 0.74601 0.94515 0.0
C454 C 0.5086 0.73472 0.99265 0.0
C455 C 0.5351 0.76192 0.04274 0.0
C456 C 0.50894 0.69534 0.98898 0.0
C457 C 0.45191 0.71964 0.89313 0.0
C458 C 0.51723 0.67858 0.05315 0.0
C459 C 0.51561 0.64174 0.04765 0.0
C460 C 0.5063 0.62007 0.97781 0.0
C461 C 0.49862 0.63712 0.91448 0.0
C462 C 0.50033 0.6736 0.91995 0.0
H463 H 0.43177 0.73096 0.88092 0.0
H464 H 0.45255 0.71209 0.8389 0.0
H465 H 0.4478 0.69552 0.91733 0.0
H466 H 0.52416 0.69379 0.10779 0.0
H467 H 0.52097 0.6301 0.09794 0.0
H468 H 0.89752 0.49456 0.84073 0.0
H469 H 0.85092 0.50107 0.85322 0.0
H470 H 0.90889 0.56015 0.07722 0.0
H471 H 0.9554 0.55184 0.06619 0.0
H472 H 0.86059 0.51613 0.07815 0.0
H473 H 0.81432 0.58183 0.83435 0.0
H474 H 0.8184 0.5399 0.80627 0.0
H475 H 0.85256 0.57455 0.86772 0.0
C476 C 0.90038 0.50932 0.89236 0.0
C477 C 0.93043 0.52355 0.95153 0.0
C478 C 0.87362 0.51328 0.89933 0.0
C479 C 0.87602 0.53194 0.96551 0.0
C480 C 0.90609 0.54591 0.02512 0.0
H481 H 0.72749 0.60913 0.00104 0.0
H482 H 0.77131 0.59881 0.98137 0.0
C483 C 0.93287 0.54154 0.01846 0.0
C484 C 0.84721 0.53558 0.97352 0.0
H485 H 0.77926 0.55959 0.88723 0.0
C486 C 0.84291 0.52582 0.03645 0.0
C487 C 0.82399 0.54857 0.91995 0.0
C488 C 0.82769 0.56216 0.85377 0.0
C489 C 0.81636 0.52844 0.04701 0.0
C490 C 0.79255 0.54015 0.99193 0.0
C491 C 0.79698 0.55006 0.92921 0.0
C492 C 0.76417 0.545 0.00074 0.0
C493 C 0.81479 0.51977 0.11869 0.0
C494 C 0.74428 0.51797 0.01601 0.0
C495 C 0.71912 0.52408 0.02877 0.0
C496 C 0.71298 0.55731 0.02584 0.0
C497 C 0.73177 0.58345 0.00588 0.0
C498 C 0.75692 0.57748 -0.00602 0.0
H499 H 0.83826 0.52103 0.16338 0.0
H500 H 0.80471 0.53809 0.14016 0.0
H501 H 0.79978 0.49255 0.10756 0.0
H502 H 0.74839 0.49219 0.01907 0.0
H503 H 0.70524 0.50321 0.0436 0.0
H504 H 0.10331 0.71568 0.85902 0.0
H505 H 0.14648 0.75492 0.84515 0.0
H506 H 0.15939 0.83121 0.02917 0.0
H507 H 0.11625 0.79214 0.04337 0.0
H508 H 0.15668 0.86041 0.90561 0.0
H509 H 0.24042 0.77869 0.9754 0.0
H510 H 0.20233 0.75635 0.90264 0.0
H511 H 0.20697 0.76958 -0.00376 0.0
C512 C 0.11567 0.74057 0.89733 0.0
C513 C 0.10633 0.75081 0.95228 0.0
C514 C 0.14037 0.76294 0.8894 0.0
C515 C 0.15641 0.79582 0.93672 0.0
C516 C 0.14736 0.80594 0.9921 0.0
H517 H 0.3285 0.93786 0.97535 0.0
H518 H 0.28847 0.89716 -0.0024 0.0
C519 C 0.12262 0.78366 -8e-05 0.0
C520 C 0.1815 0.8205 0.92599 0.0
H521 H 0.25222 0.82914 0.92227 0.0
C522 C 0.17764 0.85363 0.90957 0.0
C523 C 0.20897 0.81177 0.932 0.0
C524 C 0.21516 0.7773 0.95324 0.0
C525 C 0.20025 0.87805 0.89775 0.0
C526 C 0.2272 0.86885 0.90111 0.0
C527 C 0.23137 0.83598 0.91891 0.0
C528 C 0.25144 0.89314 0.88692 0.0
C529 C 0.19528 0.9137 0.88286 0.0
C530 C 0.24398 0.90403 0.81698 0.0
C531 C 0.26679 0.92724 0.80404 0.0
C532 C 0.2976 0.93979 0.86063 0.0
C533 C 0.30507 0.92845 0.93034 0.0
C534 C 0.28222 0.90528 0.94326 0.0
H535 H 0.17806 0.91994 0.90162 0.0
H536 H 0.21758 0.9348 0.91179 0.0
H537 H 0.18616 0.91383 0.82156 0.0
H538 H 0.22053 0.89436 0.77216 0.0
H539 H 0.26041 0.93493 0.7493 0.0
H540 H 0.50132 0.41531 0.89067 0.0
H541 H 0.49683 0.35132 0.88048 0.0
H542 H 0.52604 0.36031 0.11898 0.0
H543 H 0.53033 0.42342 0.12884 0.0
H544 H 0.53936 0.31164 0.94022 0.0
H545 H 0.45237 0.27553 0.05301 0.0
H546 H 0.46023 0.31719 0.023 0.0
H547 H 0.4856 0.31083 0.11446 0.0
C548 C 0.50603 0.40357 0.94075 0.0
C549 C 0.51517 0.42528 0.01044 0.0
C550 C 0.50379 0.36657 0.9351 0.0
C551 C 0.51043 0.34939 -0.00133 0.0
C552 C 0.51974 0.37137 0.06792 0.0
H553 H 0.51981 0.13817 0.12329 0.0
H554 H 0.51741 0.19893 0.11285 0.0
C555 C 0.52229 0.40809 0.07362 0.0
C556 C 0.50883 0.30943 -0.00572 0.0
H557 H 0.47919 0.23297 0.04638 0.0
C558 C 0.52588 0.29456 0.96297 0.0
C559 C 0.49161 0.28582 0.0238 0.0
C560 C 0.47116 0.29795 0.05487 0.0
C561 C 0.52717 0.25857 0.96302 0.0
C562 C 0.51013 0.235 0.99326 0.0
C563 C 0.49263 0.24985 0.02326 0.0
C564 C 0.51092 0.19586 -0.00253 0.0
C565 C 0.54823 0.24686 0.93345 0.0
C566 C 0.50767 0.17156 0.93648 0.0
C567 C 0.50915 0.13603 0.94274 0.0
C568 C 0.51304 0.12252 0.00962 0.0
C569 C 0.51611 0.14668 0.07008 0.0
C570 C 0.51474 0.18203 0.064 0.0
H571 H 0.56662 0.26958 0.93462 0.0
H572 H 0.55981 0.22829 0.96664 0.0
H573 H 0.53411 0.23345 0.87412 0.0
H574 H 0.50372 0.17983 0.88307 0.0
H575 H 0.50743 0.11915 0.895 0.0
loop_
_geom_bond_atom_site_label_1
_geom_bond_atom_site_label_2
_geom_bond_distance
_geom_bond_site_symmetry_2
_ccdc_geom_bond_type
Gd0 N31 2.661 1_454 S
Gd0 N37 2.601 . S
Gd0 O44 2.545 . S
Gd0 O45 2.606 . S
Gd0 O47 2.429 . S
Gd0 O48 2.545 . S
Gd0 O49 2.412 1_554 S
Gd0 O51 2.362 1_454 S
Gd0 O52 2.324 1_554 S
Gd0 C59 2.828 . S
Gd1 N10 2.661 1_656 S
Gd1 N14 2.601 . S
Gd1 O45 2.362 1_656 S
Gd1 O46 2.324 1_556 S
Gd1 O50 2.545 . S
Gd1 O51 2.606 . S
Gd1 O53 2.429 . S
Gd1 O54 2.545 . S
Gd1 O55 2.412 1_556 S
Gd1 C68 2.828 . S
C2 C5 1.417 1_554 S
C2 C7 1.431 1_554 S
C2 C8 1.412 . S
C3 C6 1.437 . S
C3 C7 1.317 . S
C3 H22 0.929 . S
C4 C5 1.426 . S
C4 C6 1.413 . S
C4 N14 1.359 1_455 S
C5 C2 1.417 1_556 S
C5 C4 1.426 . S
C5 N10 1.350 1_556 S
C6 C3 1.437 . S
C6 C4 1.413 . S
C6 C16 1.391 1_455 S
C7 C2 1.431 1_556 S
C7 C3 1.317 . S
C7 H18 0.930 1_556 S
C8 C2 1.412 . S
C8 C9 1.355 . S
C8 H20 0.930 . S
C9 C8 1.355 . S
C9 C11 1.402 . S
C9 H21 0.930 . S
N10 Gd1 2.661 1_454 S
N10 C5 1.350 1_554 S
N10 C11 1.307 . S
C11 C9 1.402 . S
C11 N10 1.307 . S
C11 H12 0.930 . S
H12 C11 0.930 . S
C13 N14 1.334 . S
C13 C15 1.394 . S
C13 H17 0.930 . S
N14 Gd1 2.601 . S
N14 C4 1.359 1_655 S
N14 C13 1.334 . S
C15 C13 1.394 . S
C15 C16 1.359 . S
C15 H27 0.930 . S
C16 C6 1.391 1_655 S
C16 C15 1.359 . S
C16 H28 0.929 . S
H17 C13 0.930 . S
H18 C7 0.930 1_554 S
H19 C36 0.930 . S
H20 C8 0.930 . S
H21 C9 0.930 . S
H22 C3 0.929 . S
H23 C41 0.930 . S
H24 C32 0.930 . S
H25 C33 0.930 . S
H26 C57 0.929 . S
H27 C15 0.930 . S
H28 C16 0.929 . S
H29 C58 0.930 1_556 S
H30 C39 0.930 . S
N31 Gd0 2.661 1_656 S
N31 C35 1.350 1_556 S
N31 C36 1.307 . S
C32 H24 0.930 . S
C32 C33 1.355 . S
C32 C34 1.412 . S
C33 H25 0.930 . S
C33 C32 1.355 . S
C33 C36 1.402 . S
C34 C32 1.412 . S
C34 C35 1.417 1_556 S
C34 C58 1.431 1_556 S
C35 N31 1.350 1_554 S
C35 C34 1.417 1_554 S
C35 C38 1.426 . S
C36 H19 0.930 . S
C36 N31 1.307 . S
C36 C33 1.402 . S
N37 Gd0 2.601 . S
N37 C38 1.359 1_455 S
N37 C41 1.334 . S
C38 C35 1.426 . S
C38 N37 1.359 1_655 S
C38 C42 1.413 . S
C39 H30 0.930 . S
C39 C40 1.359 . S
C39 C41 1.394 . S
C40 C39 1.359 . S
C40 C42 1.391 1_455 S
C40 H43 0.929 . S
C41 H23 0.930 . S
C41 N37 1.334 . S
C41 C39 1.394 . S
C42 C38 1.413 . S
C42 C40 1.391 1_655 S
C42 C57 1.437 . S
H43 C40 0.929 . S
O44 Gd0 2.545 . S
O44 C59 1.258 . S
O45 Gd0 2.606 . S
O45 Gd1 2.362 1_454 S
O45 C56 1.284 . S
O46 Gd1 2.324 1_554 S
O46 C66 1.254 1_655 S
O47 Gd0 2.429 . S
O47 C66 1.268 . S
O48 Gd0 2.545 . S
O48 C56 1.250 . S
O49 Gd0 2.412 1_556 S
O49 C59 1.252 1_556 S
O50 Gd1 2.545 . S
O50 C68 1.258 . S
O51 Gd0 2.362 1_656 S
O51 Gd1 2.606 . S
O51 C67 1.284 . S
O52 Gd0 2.324 1_556 S
O52 C75 1.254 1_455 S
O53 Gd1 2.429 . S
O53 C75 1.268 . S
O54 Gd1 2.545 . S
O54 C67 1.250 . S
O55 Gd1 2.412 1_554 S
O55 C68 1.252 1_554 S
C56 O45 1.284 . S
C56 O48 1.250 . S
C57 H26 0.929 . S
C57 C42 1.437 . S
C57 C58 1.317 . S
C58 H29 0.930 1_554 S
C58 C34 1.431 1_554 S
C58 C57 1.317 . S
C59 Gd0 2.828 . S
C59 O44 1.258 . S
C59 O49 1.252 1_554 S
C59 C60 1.497 . S
C60 C59 1.497 . S
C60 C61 1.395 . S
C60 C62 1.380 . S
C61 C60 1.395 . S
C61 C64 1.398 . S
C61 H76 0.930 . S
C62 C60 1.380 . S
C62 C63 1.391 . S
C62 H77 0.930 1_554 S
C63 C62 1.391 . S
C63 C65 1.387 . S
C64 C61 1.398 . S
C64 C65 1.380 . S
C64 H78 0.930 . S
C65 C63 1.387 . S
C65 C64 1.380 . S
C65 H79 0.930 . S
C66 O46 1.254 1_455 S
C66 O47 1.268 . S
C67 O51 1.284 . S
C67 O54 1.250 . S
C68 Gd1 2.828 . S
C68 O50 1.258 . S
C68 O55 1.252 1_556 S
C68 C69 1.497 . S
C69 C68 1.497 . S
C69 C70 1.395 . S
C69 C71 1.380 . S
C70 C69 1.395 . S
C70 C73 1.398 . S
C70 H80 0.930 . S
C71 C69 1.380 . S
C71 C72 1.391 . S
C71 H81 0.930 1_556 S
C72 C71 1.391 . S
C72 C74 1.387 . S
C73 C70 1.398 . S
C73 C74 1.380 . S
C73 H82 0.930 . S
C74 C72 1.387 . S
C74 C73 1.380 . S
C74 H83 0.930 . S
C75 O52 1.254 1_655 S
C75 O53 1.268 . S
H76 C61 0.930 . S
H77 C62 0.930 1_556 S
H78 C64 0.930 . S
H79 C65 0.930 . S
H80 C70 0.930 . S
H81 C71 0.930 1_554 S
H82 C73 0.930 . S
H83 C74 0.930 . S
Gd84 N115 2.661 1_565 S
Gd84 N121 2.601 1_565 S
Gd84 O128 2.545 . S
Gd84 O129 2.606 1_556 S
Gd84 O131 2.429 . S
Gd84 O132 2.545 . S
Gd84 O133 2.412 . S
Gd84 O135 2.362 1_565 S
Gd84 O136 2.324 1_556 S
Gd84 C143 2.828 . S
Gd85 N94 2.661 1_545 S
Gd85 N98 2.601 1_545 S
Gd85 O129 2.362 1_545 S
Gd85 O130 2.324 1_554 S
Gd85 O134 2.545 . S
Gd85 O135 2.606 1_554 S
Gd85 O137 2.429 . S
Gd85 O138 2.545 . S
Gd85 O139 2.412 . S
Gd85 C152 2.828 . S
C86 C89 1.417 . S
C86 C91 1.431 . S
C86 C92 1.412 1_554 S
C87 C90 1.437 . S
C87 C91 1.317 . S
C87 H106 0.929 . S
C88 C89 1.426 . S
C88 C90 1.413 . S
C88 N98 1.359 . S
C89 C86 1.417 . S
C89 C88 1.426 . S
C89 N94 1.350 . S
C90 C87 1.437 . S
C90 C88 1.413 . S
C90 C100 1.391 . S
C91 C86 1.431 . S
C91 C87 1.317 . S
C91 H102 0.930 . S
C92 C86 1.412 1_556 S
C92 C93 1.355 . S
C92 H104 0.930 . S
C93 C92 1.355 . S
C93 C95 1.402 . S
C93 H105 0.930 . S
N94 Gd85 2.661 1_565 S
N94 C89 1.350 . S
N94 C95 1.307 1_554 S
C95 C93 1.402 . S
C95 N94 1.307 1_556 S
C95 H96 0.930 . S
H96 C95 0.930 . S
C97 N98 1.334 1_545 S
C97 C99 1.394 . S
C97 H101 0.930 . S
N98 Gd85 2.601 1_565 S
N98 C88 1.359 . S
N98 C97 1.334 1_565 S
C99 C97 1.394 . S
C99 C100 1.359 1_545 S
C99 H111 0.930 . S
C100 C90 1.391 . S
C100 C99 1.359 1_565 S
C100 H112 0.929 . S
H101 C97 0.930 . S
H102 C91 0.930 . S
H103 C120 0.930 . S
H104 C92 0.930 . S
H105 C93 0.930 . S
H106 C87 0.929 . S
H107 C125 0.930 . S
H108 C116 0.930 . S
H109 C117 0.930 . S
H110 C141 0.929 . S
H111 C99 0.930 . S
H112 C100 0.929 . S
H113 C142 0.930 . S
H114 C123 0.930 . S
N115 Gd84 2.661 1_545 S
N115 C119 1.350 . S
N115 C120 1.307 1_556 S
C116 H108 0.930 . S
C116 C117 1.355 . S
C116 C118 1.412 1_554 S
C117 H109 0.930 . S
C117 C116 1.355 . S
C117 C120 1.402 . S
C118 C116 1.412 1_556 S
C118 C119 1.417 . S
C118 C142 1.431 . S
C119 N115 1.350 . S
C119 C118 1.417 . S
C119 C122 1.426 . S
C120 H103 0.930 . S
C120 N115 1.307 1_554 S
C120 C117 1.402 . S
N121 Gd84 2.601 1_545 S
N121 C122 1.359 . S
N121 C125 1.334 1_545 S
C122 C119 1.426 . S
C122 N121 1.359 . S
C122 C126 1.413 . S
C123 H114 0.930 . S
C123 C124 1.359 1_565 S
C123 C125 1.394 . S
C124 C123 1.359 1_545 S
C124 C126 1.391 . S
C124 H127 0.929 . S
C125 H107 0.930 . S
C125 N121 1.334 1_565 S
C125 C123 1.394 . S
C126 C122 1.413 . S
C126 C124 1.391 . S
C126 C141 1.437 . S
H127 C124 0.929 . S
O128 Gd84 2.545 . S
O128 C143 1.258 . S
O129 Gd84 2.606 1_554 S
O129 Gd85 2.362 1_565 S
O129 C140 1.284 . S
O130 Gd85 2.324 1_556 S
O130 C150 1.252 . S
O131 Gd84 2.429 . S
O131 C150 1.264 1_565 S
O132 Gd84 2.545 . S
O132 C140 1.250 1_556 S
O133 Gd84 2.412 . S
O133 C143 1.252 . S
O134 Gd85 2.545 . S
O134 C152 1.258 . S
O135 Gd84 2.362 1_545 S
O135 Gd85 2.606 1_556 S
O135 C151 1.284 . S
O136 Gd84 2.324 1_554 S
O136 C159 1.253 . S
O137 Gd85 2.429 . S
O137 C159 1.267 1_545 S
O138 Gd85 2.545 . S
O138 C151 1.250 1_554 S
O139 Gd85 2.412 . S
O139 C152 1.252 . S
C140 O129 1.284 . S
C140 O132 1.250 1_554 S
C141 H110 0.929 . S
C141 C126 1.437 . S
C141 C142 1.317 . S
C142 H113 0.930 . S
C142 C118 1.431 . S
C142 C141 1.317 . S
C143 Gd84 2.828 . S
C143 O128 1.258 . S
C143 O133 1.252 . S
C143 C144 1.497 . S
C144 C143 1.497 . S
C144 C145 1.395 . S
C144 C146 1.380 . S
C145 C144 1.395 . S
C145 C148 1.398 . S
C145 H160 0.930 . S
C146 C144 1.380 . S
C146 C147 1.391 . S
C146 H161 0.930 1_556 S
C147 C146 1.391 . S
C147 C149 1.387 . S
C148 C145 1.398 . S
C148 C149 1.380 . S
C148 H162 0.930 . S
C149 C147 1.387 . S
C149 C148 1.380 . S
C149 H163 0.930 . S
C150 O130 1.252 . S
C150 O131 1.264 1_545 S
C151 O135 1.284 . S
C151 O138 1.250 1_556 S
C152 Gd85 2.828 . S
C152 O134 1.258 . S
C152 O139 1.252 . S
C152 C153 1.497 . S
C153 C152 1.497 . S
C153 C154 1.395 . S
C153 C155 1.380 . S
C154 C153 1.395 . S
C154 C157 1.398 . S
C154 H164 0.930 . S
C155 C153 1.380 . S
C155 C156 1.391 . S
C155 H165 0.930 1_554 S
C156 C155 1.391 . S
C156 C158 1.387 . S
C157 C154 1.398 . S
C157 C158 1.380 . S
C157 H166 0.930 . S
C158 C156 1.387 . S
C158 C157 1.380 . S
C158 H167 0.930 . S
C159 O136 1.253 . S
C159 O137 1.267 1_565 S
H160 C145 0.930 . S
H161 C146 0.930 1_554 S
H162 C148 0.930 . S
H163 C149 0.930 . S
H164 C154 0.930 . S
H165 C155 0.930 1_556 S
H166 C157 0.930 . S
H167 C158 0.930 . S
Gd168 N199 2.661 . S
Gd168 N205 2.601 . S
Gd168 O212 2.545 . S
Gd168 O213 2.606 1_554 S
Gd168 O215 2.429 . S
Gd168 O216 2.545 . S
Gd168 O217 2.412 . S
Gd168 O219 2.362 . S
Gd168 O220 2.324 1_554 S
Gd168 C227 2.828 . S
Gd169 N178 2.661 . S
Gd169 N182 2.601 . S
Gd169 O213 2.362 . S
Gd169 O214 2.324 1_556 S
Gd169 O218 2.545 . S
Gd169 O219 2.606 1_556 S
Gd169 O221 2.429 . S
Gd169 O222 2.545 . S
Gd169 O223 2.412 . S
Gd169 C236 2.828 . S
C170 C173 1.417 . S
C170 C175 1.431 . S
C170 C176 1.412 1_556 S
C171 C174 1.437 . S
C171 C175 1.317 . S
C171 H190 0.929 . S
C172 C173 1.426 . S
C172 C174 1.413 . S
C172 N182 1.359 . S
C173 C170 1.417 . S
C173 C172 1.426 . S
C173 N178 1.350 . S
C174 C171 1.437 . S
C174 C172 1.413 . S
C174 C184 1.391 . S
C175 C170 1.431 . S
C175 C171 1.317 . S
C175 H186 0.930 . S
C176 C170 1.412 1_554 S
C176 C177 1.355 . S
C176 H188 0.930 . S
C177 C176 1.355 . S
C177 C179 1.402 . S
C177 H189 0.930 . S
N178 Gd169 2.661 . S
N178 C173 1.350 . S
N178 C179 1.307 1_556 S
C179 C177 1.402 . S
C179 N178 1.307 1_554 S
C179 H180 0.930 . S
H180 C179 0.930 . S
C181 N182 1.334 . S
C181 C183 1.394 . S
C181 H185 0.930 . S
N182 Gd169 2.601 . S
N182 C172 1.359 . S
N182 C181 1.334 . S
C183 C181 1.394 . S
C183 C184 1.359 . S
C183 H195 0.930 . S
C184 C174 1.391 . S
C184 C183 1.359 . S
C184 H196 0.929 . S
H185 C181 0.930 . S
H186 C175 0.930 . S
H187 C204 0.930 . S
H188 C176 0.930 . S
H189 C177 0.930 . S
H190 C171 0.929 . S
H191 C209 0.930 . S
H192 C200 0.930 . S
H193 C201 0.930 . S
H194 C225 0.929 . S
H195 C183 0.930 . S
H196 C184 0.929 . S
H197 C226 0.930 . S
H198 C207 0.930 . S
N199 Gd168 2.661 . S
N199 C203 1.350 . S
N199 C204 1.307 1_554 S
C200 H192 0.930 . S
C200 C201 1.355 . S
C200 C202 1.412 1_556 S
C201 H193 0.930 . S
C201 C200 1.355 . S
C201 C204 1.402 . S
C202 C200 1.412 1_554 S
C202 C203 1.417 . S
C202 C226 1.431 . S
C203 N199 1.350 . S
C203 C202 1.417 . S
C203 C206 1.426 . S
C204 H187 0.930 . S
C204 N199 1.307 1_556 S
C204 C201 1.402 . S
N205 Gd168 2.601 . S
N205 C206 1.359 . S
N205 C209 1.334 . S
C206 C203 1.426 . S
C206 N205 1.359 . S
C206 C210 1.413 . S
C207 H198 0.930 . S
C207 C208 1.359 . S
C207 C209 1.394 . S
C208 C207 1.359 . S
C208 C210 1.391 . S
C208 H211 0.929 . S
C209 H191 0.930 . S
C209 N205 1.334 . S
C209 C207 1.394 . S
C210 C206 1.413 . S
C210 C208 1.391 . S
C210 C225 1.437 . S
H211 C208 0.929 . S
O212 Gd168 2.545 . S
O212 C227 1.258 . S
O213 Gd168 2.606 1_556 S
O213 Gd169 2.362 . S
O213 C224 1.284 . S
O214 Gd169 2.324 1_554 S
O214 C234 1.254 . S
O215 Gd168 2.429 . S
O215 C234 1.268 . S
O216 Gd168 2.545 . S
O216 C224 1.250 1_554 S
O217 Gd168 2.412 . S
O217 C227 1.252 . S
O218 Gd169 2.545 . S
O218 C236 1.258 . S
O219 Gd168 2.362 . S
O219 Gd169 2.606 1_554 S
O219 C235 1.284 . S
O220 Gd168 2.324 1_556 S
O220 C243 1.254 . S
O221 Gd169 2.429 . S
O221 C243 1.268 . S
O222 Gd169 2.545 . S
O222 C235 1.250 1_556 S
O223 Gd169 2.412 . S
O223 C236 1.252 . S
C224 O213 1.284 . S
C224 O216 1.250 1_556 S
C225 H194 0.929 . S
C225 C210 1.437 . S
C225 C226 1.317 . S
C226 H197 0.930 . S
C226 C202 1.431 . S
C226 C225 1.317 . S
C227 Gd168 2.828 . S
C227 O212 1.258 . S
C227 O217 1.252 . S
C227 C228 1.497 . S
C228 C227 1.497 . S
C228 C229 1.395 . S
C228 C230 1.380 . S
C229 C228 1.395 . S
C229 C232 1.398 . S
C229 H244 0.930 . S
C230 C228 1.380 . S
C230 C231 1.391 . S
C230 H245 0.930 1_554 S
C231 C230 1.391 . S
C231 C233 1.387 . S
C232 C229 1.398 . S
C232 C233 1.380 . S
C232 H246 0.930 . S
C233 C231 1.387 . S
C233 C232 1.380 . S
C233 H247 0.930 . S
C234 O214 1.254 . S
C234 O215 1.268 . S
C235 O219 1.284 . S
C235 O222 1.250 1_554 S
C236 Gd169 2.828 . S
C236 O218 1.258 . S
C236 O223 1.252 . S
C236 C237 1.497 . S
C237 C236 1.497 . S
C237 C238 1.395 . S
C237 C239 1.380 . S
C238 C237 1.395 . S
C238 C241 1.398 . S
C238 H248 0.930 . S
C239 C237 1.380 . S
C239 C240 1.391 . S
C239 H249 0.930 1_556 S
C240 C239 1.391 . S
C240 C242 1.387 . S
C241 C238 1.398 . S
C241 C242 1.380 . S
C241 H250 0.930 . S
C242 C240 1.387 . S
C242 C241 1.380 . S
C242 H251 0.930 . S
C243 O220 1.254 . S
C243 O221 1.268 . S
H244 C229 0.930 . S
H245 C230 0.930 1_556 S
H246 C232 0.930 . S
H247 C233 0.930 . S
H248 C238 0.930 . S
H249 C239 0.930 1_554 S
H250 C241 0.930 . S
H251 C242 0.930 . S
H252 C260 0.929 . S
H253 C262 0.930 . S
H254 C264 0.930 . S
H255 C267 0.929 . S
H256 C270 0.930 . S
H257 C272 0.960 . S
H258 C272 0.960 . S
H259 C272 0.960 . S
C260 H252 0.929 . S
C260 C261 1.377 . S
C260 C262 1.384 . S
C261 C260 1.377 . S
C261 C267 1.390 1_655 S
C262 H253 0.930 . S
C262 C260 1.384 . S
C262 C263 1.372 . S
C263 C262 1.372 . S
C263 C264 1.400 1_655 S
C263 C268 1.492 . S
C264 H254 0.930 . S
C264 C263 1.400 1_455 S
C264 C267 1.386 . S
H265 C281 0.930 . S
H266 C282 0.931 . S
C267 H255 0.929 . S
C267 C261 1.390 1_455 S
C267 C264 1.386 . S
C268 C263 1.492 . S
C268 C270 1.392 1_655 S
C268 C271 1.403 . S
H269 C275 0.930 . S
C270 H256 0.930 . S
C270 C268 1.392 1_455 S
C270 C273 1.403 . S
C271 C268 1.403 . S
C271 C272 1.524 . S
C271 C275 1.400 . S
C272 H257 0.960 . S
C272 H258 0.960 . S
C272 H259 0.960 . S
C272 C271 1.524 . S
C273 C270 1.403 . S
C273 C274 1.392 . S
C273 C277 1.495 . S
C274 C273 1.392 . S
C274 C275 1.385 1_455 S
C274 C276 1.478 . S
C275 H269 0.930 . S
C275 C271 1.400 . S
C275 C274 1.385 1_655 S
C276 C274 1.478 . S
C276 C278 1.381 1_455 S
C276 C282 1.383 . S
C277 C273 1.495 . S
C277 H283 0.959 . S
C277 H284 0.961 . S
C277 H285 0.960 . S
C278 C276 1.381 1_655 S
C278 C279 1.394 . S
C278 H286 0.930 . S
C279 C278 1.394 . S
C279 C280 1.383 1_655 S
C279 H287 0.929 . S
C280 C279 1.383 1_455 S
C280 C281 1.377 . S
C281 H265 0.930 . S
C281 C280 1.377 . S
C281 C282 1.379 . S
C282 H266 0.931 . S
C282 C276 1.383 . S
C282 C281 1.379 . S
H283 C277 0.959 . S
H284 C277 0.961 . S
H285 C277 0.960 . S
H286 C278 0.930 . S
H287 C279 0.929 . S
H288 C296 0.929 . S
H289 C298 0.930 . S
H290 C300 0.930 . S
H291 C303 0.929 . S
H292 C306 0.930 . S
H293 C308 0.960 . S
H294 C308 0.960 . S
H295 C308 0.960 . S
C296 H288 0.929 . S
C296 C297 1.377 1_545 S
C296 C298 1.384 . S
C297 C296 1.377 1_565 S
C297 C303 1.390 . S
C298 H289 0.930 . S
C298 C296 1.384 . S
C298 C299 1.372 1_545 S
C299 C298 1.372 1_565 S
C299 C300 1.400 . S
C299 C304 1.490 1_565 S
C300 H290 0.930 . S
C300 C299 1.400 . S
C300 C303 1.386 . S
H301 C317 0.930 . S
H302 C318 0.931 . S
C303 H291 0.929 . S
C303 C297 1.390 . S
C303 C300 1.386 . S
C304 C299 1.490 1_545 S
C304 C306 1.394 . S
C304 C307 1.403 1_545 S
H305 C311 0.930 . S
C306 H292 0.930 . S
C306 C304 1.394 . S
C306 C309 1.403 . S
C307 C304 1.403 1_565 S
C307 C308 1.524 . S
C307 C311 1.400 . S
C308 H293 0.960 . S
C308 H294 0.960 . S
C308 H295 0.960 . S
C308 C307 1.524 . S
C309 C306 1.403 . S
C309 C310 1.392 . S
C309 C313 1.495 . S
C310 C309 1.392 . S
C310 C311 1.385 1_545 S
C310 C312 1.478 . S
C311 H305 0.930 . S
C311 C307 1.400 . S
C311 C310 1.385 1_565 S
C312 C310 1.478 . S
C312 C314 1.381 . S
C312 C318 1.383 1_545 S
C313 C309 1.495 . S
C313 H319 0.959 . S
C313 H320 0.961 . S
C313 H321 0.960 . S
C314 C312 1.381 . S
C314 C315 1.394 . S
C314 H322 0.930 . S
C315 C314 1.394 . S
C315 C316 1.383 . S
C315 H323 0.929 . S
C316 C315 1.383 . S
C316 C317 1.377 1_545 S
C317 H301 0.930 . S
C317 C316 1.377 1_565 S
C317 C318 1.379 . S
C318 H302 0.931 . S
C318 C312 1.383 1_565 S
C318 C317 1.379 . S
H319 C313 0.959 . S
H320 C313 0.961 . S
H321 C313 0.960 . S
H322 C314 0.930 . S
H323 C315 0.929 . S
H324 C332 0.929 . S
H325 C334 0.930 . S
H326 C336 0.930 . S
H327 C339 0.929 . S
H328 C342 0.930 . S
H329 C344 0.960 . S
H330 C344 0.960 . S
H331 C344 0.960 . S
C332 H324 0.929 . S
C332 C333 1.377 . S
C332 C334 1.384 . S
C333 C332 1.377 . S
C333 C339 1.390 . S
C334 H325 0.930 . S
C334 C332 1.384 . S
C334 C335 1.372 . S
C335 C334 1.372 . S
C335 C336 1.400 . S
C335 C340 1.490 . S
C336 H326 0.930 . S
C336 C335 1.400 . S
C336 C339 1.386 . S
H337 C353 0.930 . S
H338 C354 0.931 . S
C339 H327 0.929 . S
C339 C333 1.390 . S
C339 C336 1.386 . S
C340 C335 1.490 . S
C340 C342 1.395 . S
C340 C343 1.403 . S
H341 C347 0.930 . S
C342 H328 0.930 . S
C342 C340 1.395 . S
C342 C345 1.403 . S
C343 C340 1.403 . S
C343 C344 1.524 . S
C343 C347 1.400 . S
C344 H329 0.960 . S
C344 H330 0.960 . S
C344 H331 0.960 . S
C344 C343 1.524 . S
C345 C342 1.403 . S
C345 C346 1.392 . S
C345 C349 1.495 . S
C346 C345 1.392 . S
C346 C347 1.385 . S
C346 C348 1.478 . S
C347 H341 0.930 . S
C347 C343 1.400 . S
C347 C346 1.385 . S
C348 C346 1.478 . S
C348 C350 1.381 . S
C348 C354 1.383 . S
C349 C345 1.495 . S
C349 H355 0.959 . S
C349 H356 0.961 . S
C349 H357 0.960 . S
C350 C348 1.381 . S
C350 C351 1.394 . S
C350 H358 0.930 . S
C351 C350 1.394 . S
C351 C352 1.383 . S
C351 H359 0.929 . S
C352 C351 1.383 . S
C352 C353 1.377 . S
C353 H337 0.930 . S
C353 C352 1.377 . S
C353 C354 1.379 . S
C354 H338 0.931 . S
C354 C348 1.383 . S
C354 C353 1.379 . S
H355 C349 0.959 . S
H356 C349 0.961 . S
H357 C349 0.960 . S
H358 C350 0.930 . S
H359 C351 0.929 . S
H360 C368 0.929 . S
H361 C370 0.930 . S
H362 C372 0.930 . S
H363 C375 0.930 . S
H364 C378 0.930 . S
H365 C380 0.960 . S
H366 C380 0.960 . S
H367 C380 0.960 . S
C368 H360 0.929 . S
C368 C369 1.377 . S
C368 C370 1.384 . S
C369 C368 1.377 . S
C369 C375 1.390 1_554 S
C370 H361 0.930 . S
C370 C368 1.384 . S
C370 C371 1.372 . S
C371 C370 1.372 . S
C371 C372 1.400 1_554 S
C371 C376 1.490 . S
C372 H362 0.930 . S
C372 C371 1.400 1_556 S
C372 C375 1.385 . S
H373 C389 0.930 . S
H374 C390 0.931 . S
C375 H363 0.930 . S
C375 C369 1.390 1_556 S
C375 C372 1.385 . S
C376 C371 1.490 . S
C376 C378 1.395 . S
C376 C379 1.403 1_554 S
H377 C383 0.930 . S
C378 H364 0.930 . S
C378 C376 1.395 . S
C378 C381 1.403 . S
C379 C376 1.403 1_556 S
C379 C380 1.524 . S
C379 C383 1.400 . S
C380 H365 0.960 . S
C380 H366 0.960 . S
C380 H367 0.960 . S
C380 C379 1.524 . S
C381 C378 1.403 . S
C381 C382 1.392 . S
C381 C385 1.495 . S
C382 C381 1.392 . S
C382 C383 1.385 1_554 S
C382 C384 1.478 . S
C383 H377 0.930 . S
C383 C379 1.400 . S
C383 C382 1.385 1_556 S
C384 C382 1.478 . S
C384 C386 1.381 . S
C384 C390 1.383 . S
C385 C381 1.495 . S
C385 H391 0.959 . S
C385 H392 0.961 . S
C385 H393 0.960 . S
C386 C384 1.381 . S
C386 C387 1.394 . S
C386 H394 0.930 . S
C387 C386 1.394 . S
C387 C388 1.383 . S
C387 H395 0.929 . S
C388 C387 1.383 . S
C388 C389 1.377 . S
C389 H373 0.930 . S
C389 C388 1.377 . S
C389 C390 1.379 . S
C390 H374 0.931 . S
C390 C384 1.383 . S
C390 C389 1.379 . S
H391 C385 0.959 . S
H392 C385 0.961 . S
H393 C385 0.960 . S
H394 C386 0.930 . S
H395 C387 0.929 . S
H396 C404 0.929 . S
H397 C406 0.930 . S
H398 C408 0.930 . S
H399 C411 0.929 . S
H400 C414 0.930 . S
H401 C416 0.960 . S
H402 C416 0.960 1_554 S
H403 C416 0.960 . S
C404 H396 0.929 . S
C404 C405 1.377 . S
C404 C406 1.384 . S
C405 C404 1.377 . S
C405 C411 1.390 1_554 S
C406 H397 0.930 . S
C406 C404 1.384 . S
C406 C407 1.372 . S
C407 C406 1.372 . S
C407 C408 1.400 1_554 S
C407 C412 1.490 . S
C408 H398 0.930 . S
C408 C407 1.400 1_556 S
C408 C411 1.386 . S
H409 C425 0.930 . S
H410 C426 0.931 . S
C411 H399 0.929 . S
C411 C405 1.390 1_556 S
C411 C408 1.386 . S
C412 C407 1.490 . S
C412 C414 1.395 . S
C412 C415 1.403 1_554 S
H413 C419 0.930 . S
C414 H400 0.930 . S
C414 C412 1.395 . S
C414 C417 1.403 . S
C415 C412 1.403 1_556 S
C415 C416 1.524 . S
C415 C419 1.400 . S
C416 H401 0.960 . S
C416 H402 0.960 1_556 S
C416 H403 0.960 . S
C416 C415 1.524 . S
C417 C414 1.403 . S
C417 C418 1.392 . S
C417 C421 1.495 . S
C418 C417 1.392 . S
C418 C419 1.385 1_554 S
C418 C420 1.478 . S
C419 H413 0.930 . S
C419 C415 1.400 . S
C419 C418 1.385 1_556 S
C420 C418 1.478 . S
C420 C422 1.381 . S
C420 C426 1.383 1_554 S
C421 C417 1.495 . S
C421 H427 0.959 . S
C421 H428 0.961 . S
C421 H429 0.960 . S
C422 C420 1.381 . S
C422 C423 1.394 . S
C422 H430 0.930 . S
C423 C422 1.394 . S
C423 C424 1.383 . S
C423 H431 0.929 . S
C424 C423 1.383 . S
C424 C425 1.377 1_554 S
C425 H409 0.930 . S
C425 C424 1.377 1_556 S
C425 C426 1.379 . S
C426 H410 0.931 . S
C426 C420 1.383 1_556 S
C426 C425 1.379 . S
H427 C421 0.959 . S
H428 C421 0.961 . S
H429 C421 0.960 . S
H430 C422 0.930 . S
H431 C423 0.929 . S
H432 C440 0.929 . S
H433 C442 0.930 . S
H434 C444 0.930 . S
H435 C447 0.929 . S
H436 C450 0.930 . S
H437 C452 0.960 . S
H438 C452 0.960 . S
H439 C452 0.960 . S
C440 H432 0.929 . S
C440 C441 1.377 . S
C440 C442 1.384 . S
C441 C440 1.377 . S
C441 C447 1.390 . S
C442 H433 0.930 . S
C442 C440 1.384 . S
C442 C443 1.372 . S
C443 C442 1.372 . S
C443 C444 1.400 . S
C443 C448 1.490 . S
C444 H434 0.930 . S
C444 C443 1.400 . S
C444 C447 1.386 . S
H445 C461 0.930 1_556 S
H446 C462 0.931 . S
C447 H435 0.929 . S
C447 C441 1.390 . S
C447 C444 1.386 . S
C448 C443 1.490 . S
C448 C450 1.395 1_554 S
C448 C451 1.403 . S
H449 C455 0.930 . S
C450 H436 0.930 . S
C450 C448 1.395 1_556 S
C450 C453 1.403 . S
C451 C448 1.403 . S
C451 C452 1.524 . S
C451 C455 1.400 . S
C452 H437 0.960 . S
C452 H438 0.960 . S
C452 H439 0.960 . S
C452 C451 1.524 . S
C453 C450 1.403 . S
C453 C454 1.392 1_556 S
C453 C457 1.495 . S
C454 C453 1.392 1_554 S
C454 C455 1.385 . S
C454 C456 1.478 . S
C455 H449 0.930 . S
C455 C451 1.400 . S
C455 C454 1.385 . S
C456 C454 1.478 . S
C456 C458 1.381 . S
C456 C462 1.383 1_554 S
C457 C453 1.495 . S
C457 H463 0.959 . S
C457 H464 0.961 . S
C457 H465 0.960 . S
C458 C456 1.381 . S
C458 C459 1.394 . S
C458 H466 0.930 . S
C459 C458 1.394 . S
C459 C460 1.383 . S
C459 H467 0.929 . S
C460 C459 1.383 . S
C460 C461 1.377 . S
C461 H445 0.930 1_554 S
C461 C460 1.377 . S
C461 C462 1.379 1_554 S
C462 H446 0.931 . S
C462 C456 1.383 1_556 S
C462 C461 1.379 1_556 S
H463 C457 0.959 . S
H464 C457 0.961 . S
H465 C457 0.960 . S
H466 C458 0.930 . S
H467 C459 0.929 . S
H468 C476 0.929 . S
H469 C478 0.930 . S
H470 C480 0.930 . S
H471 C483 0.929 . S
H472 C486 0.930 . S
H473 C488 0.960 . S
H474 C488 0.960 . S
H475 C488 0.960 . S
C476 H468 0.929 . S
C476 C477 1.377 . S
C476 C478 1.384 . S
C477 C476 1.377 . S
C477 C483 1.390 1_556 S
C478 H469 0.930 . S
C478 C476 1.384 . S
C478 C479 1.372 . S
C479 C478 1.372 . S
C479 C480 1.400 1_556 S
C479 C484 1.490 . S
C480 H470 0.930 . S
C480 C479 1.400 1_554 S
C480 C483 1.386 . S
H481 C497 0.930 . S
H482 C498 0.931 . S
C483 H471 0.929 . S
C483 C477 1.390 1_554 S
C483 C480 1.386 . S
C484 C479 1.490 . S
C484 C486 1.395 1_556 S
C484 C487 1.403 . S
H485 C491 0.930 . S
C486 H472 0.930 . S
C486 C484 1.395 1_554 S
C486 C489 1.403 . S
C487 C484 1.403 . S
C487 C488 1.524 . S
C487 C491 1.400 . S
C488 H473 0.960 . S
C488 H474 0.960 . S
C488 H475 0.960 . S
C488 C487 1.524 . S
C489 C486 1.403 . S
C489 C490 1.392 . S
C489 C493 1.495 . S
C490 C489 1.392 . S
C490 C491 1.385 1_554 S
C490 C492 1.478 . S
C491 H485 0.930 . S
C491 C487 1.400 . S
C491 C490 1.385 1_556 S
C492 C490 1.478 . S
C492 C494 1.381 1_554 S
C492 C498 1.383 . S
C493 C489 1.495 . S
C493 H499 0.959 . S
C493 H500 0.961 . S
C493 H501 0.960 . S
C494 C492 1.381 1_556 S
C494 C495 1.394 . S
C494 H502 0.930 . S
C495 C494 1.394 . S
C495 C496 1.383 1_556 S
C495 H503 0.929 . S
C496 C495 1.383 1_554 S
C496 C497 1.377 . S
C497 H481 0.930 . S
C497 C496 1.377 . S
C497 C498 1.379 . S
C498 H482 0.931 . S
C498 C492 1.383 . S
C498 C497 1.379 . S
H499 C493 0.959 . S
H500 C493 0.961 . S
H501 C493 0.960 . S
H502 C494 0.930 . S
H503 C495 0.929 . S
H504 C512 0.929 . S
H505 C514 0.930 . S
H506 C516 0.930 . S
H507 C519 0.929 . S
H508 C522 0.930 . S
H509 C524 0.960 . S
H510 C524 0.960 . S
H511 C524 0.960 . S
C512 H504 0.929 . S
C512 C513 1.377 . S
C512 C514 1.384 . S
C513 C512 1.377 . S
C513 C519 1.390 1_556 S
C514 H505 0.930 . S
C514 C512 1.384 . S
C514 C515 1.372 . S
C515 C514 1.372 . S
C515 C516 1.400 1_556 S
C515 C520 1.490 . S
C516 H506 0.930 . S
C516 C515 1.400 1_554 S
C516 C519 1.386 . S
H517 C533 0.930 . S
H518 C534 0.931 . S
C519 H507 0.929 . S
C519 C513 1.390 1_554 S
C519 C516 1.386 . S
C520 C515 1.490 . S
C520 C522 1.395 . S
C520 C523 1.403 1_556 S
H521 C527 0.930 . S
C522 H508 0.930 . S
C522 C520 1.395 . S
C522 C525 1.403 . S
C523 C520 1.403 1_554 S
C523 C524 1.524 . S
C523 C527 1.400 . S
C524 H509 0.960 . S
C524 H510 0.960 . S
C524 H511 0.960 . S
C524 C523 1.524 . S
C525 C522 1.403 . S
C525 C526 1.392 . S
C525 C529 1.495 . S
C526 C525 1.392 . S
C526 C527 1.385 1_556 S
C526 C528 1.478 . S
C527 H521 0.930 . S
C527 C523 1.400 . S
C527 C526 1.385 1_554 S
C528 C526 1.478 . S
C528 C530 1.381 . S
C528 C534 1.383 1_556 S
C529 C525 1.495 . S
C529 H535 0.959 . S
C529 H536 0.961 . S
C529 H537 0.960 . S
C530 C528 1.381 . S
C530 C531 1.394 . S
C530 H538 0.930 . S
C531 C530 1.394 . S
C531 C532 1.383 . S
C531 H539 0.929 . S
C532 C531 1.383 . S
C532 C533 1.377 1_556 S
C533 H517 0.930 . S
C533 C532 1.377 1_554 S
C533 C534 1.379 . S
C534 H518 0.931 . S
C534 C528 1.383 1_554 S
C534 C533 1.379 . S
H535 C529 0.959 . S
H536 C529 0.961 . S
H537 C529 0.960 . S
H538 C530 0.930 . S
H539 C531 0.929 . S
H540 C548 0.929 . S
H541 C550 0.930 . S
H542 C552 0.930 1_554 S
H543 C555 0.931 1_554 S
H544 C558 0.930 . S
H545 C560 0.960 . S
H546 C560 0.960 . S
H547 C560 0.960 . S
C548 H540 0.929 . S
C548 C549 1.377 . S
C548 C550 1.384 . S
C549 C548 1.377 . S
C549 C555 1.389 . S
C550 H541 0.930 . S
C550 C548 1.384 . S
C550 C551 1.372 . S
C551 C550 1.372 . S
C551 C552 1.399 . S
C551 C556 1.490 . S
C552 H542 0.930 1_556 S
C552 C551 1.399 . S
C552 C555 1.385 . S
H553 C569 0.930 . S
H554 C570 0.931 . S
C555 H543 0.931 1_556 S
C555 C549 1.389 . S
C555 C552 1.385 . S
C556 C551 1.490 . S
C556 C558 1.395 . S
C556 C559 1.403 1_556 S
H557 C563 0.930 . S
C558 H544 0.930 . S
C558 C556 1.395 . S
C558 C561 1.403 . S
C559 C556 1.403 1_554 S
C559 C560 1.524 . S
C559 C563 1.400 . S
C560 H545 0.960 . S
C560 H546 0.960 . S
C560 H547 0.960 . S
C560 C559 1.524 . S
C561 C558 1.403 . S
C561 C562 1.392 . S
C561 C565 1.495 . S
C562 C561 1.392 . S
C562 C563 1.385 1_556 S
C562 C564 1.478 . S
C563 H557 0.930 . S
C563 C559 1.400 . S
C563 C562 1.385 1_554 S
C564 C562 1.478 . S
C564 C566 1.381 . S
C564 C570 1.383 . S
C565 C561 1.495 . S
C565 H571 0.959 . S
C565 H572 0.961 . S
C565 H573 0.960 . S
C566 C564 1.381 . S
C566 C567 1.394 . S
C566 H574 0.930 . S
C567 C566 1.394 . S
C567 C568 1.383 . S
C567 H575 0.929 . S
C568 C567 1.383 . S
C568 C569 1.377 . S
C569 H553 0.930 . S
C569 C568 1.377 . S
C569 C570 1.379 . S
C570 H554 0.931 . S
C570 C564 1.383 . S
C570 C569 1.379 . S
H571 C565 0.959 . S
H572 C565 0.961 . S
H573 C565 0.960 . S
H574 C566 0.930 . S
H575 C567 0.929 . S
C261 C75 1.483 . S
C280 C66 1.470 . S
C297 C159 1.481 . S
C316 C150 1.505 . S
C333 C243 1.494 . S
C352 C234 1.488 . S
C369 C56 1.516 . S
C388 C240 1.468 1_554 S
C405 C156 0.761 . S
C424 C72 0.762 1_554 S
C441 C140 2.286 . S
C460 C235 2.310 . S
C477 C67 1.516 . S
C496 C231 1.411 . S
C513 C63 0.782 1_556 S
C532 C147 0.704 . S
C549 C224 2.327 . S
C568 C151 2.292 . S
