# Generated by pormake.
# Topology wix, (3)-cn, num edge types: 1
# Building blocks:
#     Node 0, Type 0, BuildingBlock: WUSLED_clean_sbu_0, # of connection points: 3
#     Node 1, Type 0, BuildingBlock: WUSLED_clean_sbu_0, # of connection points: 3
#     Node 2, Type 0, BuildingBlock: WUSLED_clean_sbu_0, # of connection points: 3
#     Node 3, Type 0, BuildingBlock: WUSLED_clean_sbu_0, # of connection points: 3
#     Node 4, Type 0, BuildingBlock: WUSLED_clean_sbu_0, # of connection points: 3
#     Node 5, Type 0, BuildingBlock: WUSLED_clean_sbu_0, # of connection points: 3
#     Node 6, Type 0, BuildingBlock: WUSLED_clean_sbu_0, # of connection points: 3
#     Node 7, Type 0, BuildingBlock: WUSLED_clean_sbu_0, # of connection points: 3
#     Node 8, Type 0, BuildingBlock: WUSLED_clean_sbu_0, # of connection points: 3
#     Node 9, Type 0, BuildingBlock: WUSLED_clean_sbu_0, # of connection points: 3
#     Node 10, Type 0, BuildingBlock: WUSLED_clean_sbu_0, # of connection points: 3
#     Node 11, Type 0, BuildingBlock: WUSLED_clean_sbu_0, # of connection points: 3
#     Edge 12, Type (0, 0), BuildingBlock: XIVTED_clean_linker_0, # of connection points: 2
#     Edge 13, Type (0, 0), BuildingBlock: XIVTED_clean_linker_0, # of connection points: 2
#     Edge 14, Type (0, 0), BuildingBlock: XIVTED_clean_linker_0, # of connection points: 2
#     Edge 15, Type (0, 0), BuildingBlock: XIVTED_clean_linker_0, # of connection points: 2
#     Edge 16, Type (0, 0), BuildingBlock: XIVTED_clean_linker_0, # of connection points: 2
#     Edge 17, Type (0, 0), BuildingBlock: XIVTED_clean_linker_0, # of connection points: 2
#     Edge 18, Type (0, 0), BuildingBlock: XIVTED_clean_linker_0, # of connection points: 2
#     Edge 19, Type (0, 0), BuildingBlock: XIVTED_clean_linker_0, # of connection points: 2
#     Edge 20, Type (0, 0), BuildingBlock: XIVTED_clean_linker_0, # of connection points: 2
#     Edge 21, Type (0, 0), BuildingBlock: XIVTED_clean_linker_0, # of connection points: 2
#     Edge 22, Type (0, 0), BuildingBlock: XIVTED_clean_linker_0, # of connection points: 2
#     Edge 23, Type (0, 0), BuildingBlock: XIVTED_clean_linker_0, # of connection points: 2
#     Edge 24, Type (0, 0), BuildingBlock: XIVTED_clean_linker_0, # of connection points: 2
#     Edge 25, Type (0, 0), BuildingBlock: XIVTED_clean_linker_0, # of connection points: 2
#     Edge 26, Type (0, 0), BuildingBlock: XIVTED_clean_linker_0, # of connection points: 2
#     Edge 27, Type (0, 0), BuildingBlock: XIVTED_clean_linker_0, # of connection points: 2
#     Edge 28, Type (0, 0), BuildingBlock: XIVTED_clean_linker_0, # of connection points: 2
#     Edge 29, Type (0, 0), BuildingBlock: XIVTED_clean_linker_0, # of connection points: 2
# Relax obj value: 0.022
# Max RMSD: 0.029
# Mean RMSD: 0.029
data_MOF--net-wix--node1-WUSLED_clean_sbu_0--edge1-XIVTED_clean_linker_0
_symmetry_space_group_name_H-M    P1
_symmetry_Int_Tables_number       1
_symmetry_cell_setting            triclinic
loop_
_symmetry_equiv_pos_as_xyz
'x, y, z'
_cell_length_a     65.649469
_cell_length_b     65.924833
_cell_length_c     57.211786
_cell_angle_alpha  90.120179
_cell_angle_beta   89.984845
_cell_angle_gamma 119.95887
loop_
_atom_site_label
_atom_site_type_symbol
_atom_site_fract_x
_atom_site_fract_y
_atom_site_fract_z
_atom_type_partial_charge
C0 C 0.47864 0.67747 0.05726 0.0
C1 C 0.49113 0.67002 0.04309 0.0
C2 C 0.46466 0.66414 1.01063 0.0
C3 C 0.48413 0.66336 0.01982 0.0
C4 C 0.45328 0.67307 0.02439 0.0
C5 C 0.46022 0.67964 0.04753 0.0
U6 U 0.49234 0.67964 0.12674 0.0
O7 O 0.48744 0.7046 0.14868 0.0
O8 O 0.46169 0.66646 0.15038 0.0
C9 C 0.46776 0.68768 0.15748 0.0
C10 C 0.48153 0.67969 0.08279 0.0
C11 C 0.45411 0.69209 0.17519 0.0
C12 C 0.42388 0.70175 0.18534 0.0
C13 C 0.43783 0.6989 0.16851 0.0
C14 C 0.44289 0.69165 0.2157 0.0
C15 C 0.42601 0.69791 0.20922 0.0
C16 C 0.45659 0.68857 0.19887 0.0
C17 C 0.5403 0.66123 0.14794 0.0
C18 C 0.55747 0.65007 0.17959 0.0
C19 C 0.56569 0.6451 0.13938 0.0
C20 C 0.55162 0.65421 0.13176 0.0
C21 C 0.56843 0.64253 0.16335 0.0
C22 C 0.54361 0.65949 0.17192 0.0
C23 C 0.52319 0.66783 0.13954 0.0
O24 O 0.47116 0.66094 0.09595 0.0
O25 O 0.49897 0.69819 0.09281 0.0
O26 O 0.52884 0.68982 0.13657 0.0
O27 O 0.50101 0.65224 0.13594 0.0
H28 H 0.50535 0.66815 0.05033 0.0
H29 H 0.49306 0.65645 1.00939 0.0
H30 H 0.4381 0.67358 1.01772 0.0
H31 H 0.45026 0.68517 0.05827 0.0
H32 H 0.41099 0.70629 0.1795 0.0
H33 H 0.43556 0.70155 0.15023 0.0
H34 H 0.44561 0.68908 0.23386 0.0
H35 H 0.46909 0.68335 0.20437 0.0
H36 H 0.55938 0.64837 0.19817 0.0
H37 H 0.57372 0.63922 0.1265 0.0
H38 H 0.54904 0.65516 0.11317 0.0
H39 H 0.53489 0.66469 0.18468 0.0
C40 C 0.81962 0.46735 0.2237 0.0
C41 C 0.83889 0.47996 0.20878 0.0
C42 C 0.81789 0.45225 0.17723 0.0
C43 C 0.83795 0.47255 0.18553 0.0
C44 C 0.79816 0.44093 0.19186 0.0
C45 C 0.79906 0.44839 0.21483 0.0
U46 U 0.83055 0.4807 0.29338 0.0
O47 O 0.80026 0.47537 0.31496 0.0
O48 O 0.81316 0.44997 0.31665 0.0
C49 C 0.79781 0.45587 0.32376 0.0
C50 C 0.82129 0.47081 0.24914 0.0
C51 C 0.78001 0.4423 0.34163 0.0
C52 C 0.74047 0.41156 0.35161 0.0
C53 C 0.75718 0.42558 0.33488 0.0
C54 C 0.76905 0.43158 0.38222 0.0
C55 C 0.74605 0.41417 0.37569 0.0
C56 C 0.78585 0.44521 0.36538 0.0
C57 C 0.89645 0.52846 0.3148 0.0
C58 C 0.9253 0.54763 0.34557 0.0
C59 C 0.93775 0.55184 0.3052 0.0
C60 C 0.91436 0.53804 0.29819 0.0
C61 C 0.94385 0.55674 0.3291 0.0
C62 C 0.90196 0.53348 0.33847 0.0
C63 C 0.87245 0.5112 0.30791 0.0
O64 O 0.82919 0.46007 0.26248 0.0
O65 O 0.81927 0.48766 0.25926 0.0
O66 O 0.85623 0.51696 0.30404 0.0
O67 O 0.86648 0.48941 0.30328 0.0
H68 H 0.85498 0.49465 0.2154 0.0
H69 H 0.85341 0.48173 0.17463 0.0
H70 H 0.78226 0.42562 0.18585 0.0
H71 H 0.78402 0.43846 0.2261 0.0
H72 H 0.72343 0.3983 0.34534 0.0
H73 H 0.7524 0.42297 0.31654 0.0
H74 H 0.77431 0.43502 0.40034 0.0
H75 H 0.80343 0.45808 0.37095 0.0
H76 H 0.92842 0.55112 0.36405 0.0
H77 H 0.9508 0.55765 0.29157 0.0
H78 H 0.91037 0.53412 0.2798 0.0
H79 H 0.88822 0.52603 0.35156 0.0
C80 C 0.37061 0.80846 0.39114 0.0
C81 C 0.3775 0.82766 0.37634 0.0
C82 C 0.38343 0.80626 0.34434 0.0
C83 C 0.38345 0.82644 0.35302 0.0
C84 C 0.3751 0.78675 0.3594 0.0
C85 C 0.36861 0.78784 0.38229 0.0
U86 U 0.36832 0.8199 0.46052 0.0
O87 O 0.34333 0.7898 0.48207 0.0
O88 O 0.3817 0.80251 0.48389 0.0
C89 C 0.3604 0.78721 0.49083 0.0
C90 C 0.36875 0.81007 0.41649 0.0
C91 C 0.35612 0.76926 0.50847 0.0
C92 C 0.34651 0.72956 0.51831 0.0
C93 C 0.34959 0.74642 0.50163 0.0
C94 C 0.35677 0.75842 0.54887 0.0
C95 C 0.35026 0.73516 0.54243 0.0
C96 C 0.35954 0.77509 0.53216 0.0
C97 C 0.38666 0.88599 0.48168 0.0
C98 C 0.39778 0.91472 0.51293 0.0
C99 C 0.40293 0.92719 0.47253 0.0
C100 C 0.39376 0.90397 0.46523 0.0
C101 C 0.4054 0.93294 0.49646 0.0
C102 C 0.3884 0.89143 0.50557 0.0
C103 C 0.38006 0.86219 0.47393 0.0
O104 O 0.38749 0.81811 0.42978 0.0
O105 O 0.34989 0.80832 0.42648 0.0
O106 O 0.35799 0.84591 0.47065 0.0
O107 O 0.39577 0.85582 0.47007 0.0
H108 H 0.37905 0.84378 0.38297 0.0
H109 H 0.38861 0.8417 0.34232 0.0
H110 H 0.37462 0.77074 0.35448 0.0
H111 H 0.36338 0.77286 0.3936 0.0
H112 H 0.34108 0.71223 0.51182 0.0
H113 H 0.34695 0.74159 0.4833 0.0
H114 H 0.36044 0.76446 0.5667 0.0
H115 H 0.36475 0.79273 0.53777 0.0
H116 H 0.39924 0.91851 0.53148 0.0
H117 H 0.40888 0.94077 0.45939 0.0
H118 H 0.39283 0.90013 0.44671 0.0
H119 H 0.38314 0.87775 0.51853 0.0
C120 C 0.58078 0.35904 0.55705 0.0
C121 C 0.56786 0.36554 0.54236 0.0
C122 C 0.59527 0.37236 0.51051 0.0
C123 C 0.57499 0.372 0.51906 0.0
C124 C 0.60716 0.36446 0.52488 0.0
C125 C 0.59988 0.35774 0.54787 0.0
U126 U 0.56749 0.35646 0.62685 0.0
O127 O 0.57267 0.3314 0.64825 0.0
O128 O 0.59825 0.36955 0.65032 0.0
C129 C 0.59226 0.34832 0.65725 0.0
C130 C 0.5775 0.35708 0.58257 0.0
C131 C 0.60573 0.34407 0.67532 0.0
C132 C 0.63533 0.33362 0.68566 0.0
C133 C 0.62167 0.33676 0.66877 0.0
C134 C 0.61733 0.34516 0.71591 0.0
C135 C 0.6334 0.33795 0.70938 0.0
C136 C 0.60353 0.34811 0.69903 0.0
C137 C 0.51961 0.37451 0.6483 0.0
C138 C 0.50094 0.38532 0.67865 0.0
C139 C 0.49533 0.39118 0.63799 0.0
C140 C 0.50952 0.38193 0.63139 0.0
C141 C 0.49119 0.39381 0.66185 0.0
C142 C 0.51488 0.37578 0.6719 0.0
C143 C 0.53697 0.36773 0.6418 0.0
O144 O 0.58822 0.37566 0.59601 0.0
O145 O 0.56045 0.33832 0.59259 0.0
O146 O 0.53108 0.34586 0.6375 0.0
O147 O 0.55881 0.38352 0.63706 0.0
H148 H 0.55312 0.36677 0.54918 0.0
H149 H 0.56561 0.3781 0.50823 0.0
H150 H 0.6228 0.36458 0.51864 0.0
H151 H 0.6101 0.35285 0.55897 0.0
H152 H 0.64782 0.32838 0.68016 0.0
H153 H 0.62378 0.33379 0.65052 0.0
H154 H 0.6156 0.34867 0.73409 0.0
H155 H 0.59138 0.35382 0.70444 0.0
H156 H 0.49859 0.38627 0.69717 0.0
H157 H 0.48821 0.39643 0.62385 0.0
H158 H 0.51301 0.38103 0.61302 0.0
H159 H 0.52267 0.37013 0.68523 0.0
C160 C 0.23919 0.56872 0.72436 0.0
C161 C 0.21976 0.55704 0.70955 0.0
C162 C 0.2417 0.58416 0.67766 0.0
C163 C 0.22098 0.5646 0.68642 0.0
C164 C 0.26165 0.5941 0.69245 0.0
C165 C 0.26024 0.58672 0.71547 0.0
U166 U 0.22799 0.55513 0.79381 0.0
O167 O 0.25833 0.56049 0.8153 0.0
O168 O 0.24538 0.58588 0.81718 0.0
C169 C 0.26074 0.57998 0.82419 0.0
C170 C 0.23741 0.56514 0.74971 0.0
C171 C 0.27865 0.59363 0.84191 0.0
C172 C 0.31842 0.62386 0.85171 0.0
C173 C 0.30151 0.61006 0.83503 0.0
C174 C 0.28962 0.60503 0.88237 0.0
C175 C 0.31274 0.6218 0.87573 0.0
C176 C 0.27283 0.59107 0.86565 0.0
C177 C 0.16209 0.50722 0.81521 0.0
C178 C 0.13337 0.48824 0.84618 0.0
C179 C 0.12069 0.48362 0.8058 0.0
C180 C 0.144 0.49764 0.79865 0.0
C181 C 0.11496 0.47925 0.8297 0.0
C182 C 0.15674 0.50209 0.83895 0.0
C183 C 0.18607 0.52454 0.80818 0.0
O184 O 0.22934 0.57575 0.76306 0.0
O185 O 0.23946 0.54829 0.7597 0.0
O186 O 0.20235 0.51886 0.80432 0.0
O187 O 0.19202 0.54634 0.80369 0.0
H188 H 0.20332 0.5429 0.71618 0.0
H189 H 0.20509 0.55562 0.6762 0.0
H190 H 0.27857 0.60804 0.68695 0.0
H191 H 0.27553 0.59582 0.72668 0.0
H192 H 0.33596 0.63595 0.84558 0.0
H193 H 0.30628 0.6123 0.8167 0.0
H194 H 0.28405 0.60298 0.90041 0.0
H195 H 0.25517 0.57853 0.87125 0.0
H196 H 0.12971 0.4854 0.8647 0.0
H197 H 0.1071 0.47651 0.79255 0.0
H198 H 0.14784 0.50145 0.78024 0.0
H199 H 0.17057 0.50957 0.85197 0.0
C200 C 0.68897 0.2281 0.89035 0.0
C201 C 0.6824 0.20893 0.87532 0.0
C202 C 0.67567 0.22991 0.84391 0.0
C203 C 0.67598 0.20992 0.85206 0.0
C204 C 0.68396 0.24954 0.85861 0.0
C205 C 0.69055 0.24862 0.88156 0.0
U206 U 0.69113 0.21678 0.95998 0.0
O207 O 0.71608 0.2469 0.98169 0.0
O208 O 0.67771 0.2342 0.98337 0.0
C209 C 0.69898 0.24947 0.99046 0.0
C210 C 0.69073 0.22642 0.91581 0.0
C211 C 0.70319 0.26732 1.00828 0.0
C212 C 0.71289 0.30702 1.01835 0.0
C213 C 0.70979 0.29019 1.00157 0.0
C214 C 0.70241 0.27808 0.04877 0.0
C215 C 0.70903 0.30129 0.04237 0.0
C216 C 0.69969 0.26142 0.03196 0.0
C217 C 0.67284 0.15083 0.98134 0.0
C218 C 0.66284 0.12234 1.01252 0.0
C219 C 0.65535 0.10948 0.97222 0.0
C220 C 0.66479 0.1327 0.96496 0.0
C221 C 0.65391 0.10377 0.99615 0.0
C222 C 0.67205 0.1456 1.00517 0.0
C223 C 0.67943 0.17461 0.97362 0.0
O224 O 0.67201 0.21849 0.9291 0.0
O225 O 0.70955 0.22822 0.92593 0.0
O226 O 0.70148 0.19087 0.97031 0.0
O227 O 0.66369 0.1809 0.96952 0.0
H228 H 0.68101 0.19288 0.88187 0.0
H229 H 0.6697 0.19455 0.84105 0.0
H230 H 0.6842 0.26526 0.85269 0.0
H231 H 0.69555 0.26358 0.8929 0.0
H232 H 0.71855 0.32452 1.0122 0.0
H233 H 0.71251 0.29507 0.98328 0.0
H234 H 0.69858 0.27222 0.06667 0.0
H235 H 0.69442 0.24376 0.03746 0.0
H236 H 0.66267 0.11907 0.03105 0.0
H237 H 0.64834 0.09605 0.95888 0.0
H238 H 0.66501 0.1364 0.94649 0.0
H239 H 0.67806 0.15943 1.01813 0.0
C240 C 0.37032 0.56869 0.81474 0.0
C241 C 0.37737 0.55647 0.82969 0.0
C242 C 0.38365 0.58413 0.86114 0.0
C243 C 0.38387 0.56406 0.85288 0.0
C244 C 0.37458 0.59486 0.84652 0.0
C245 C 0.36817 0.58732 0.82355 0.0
U246 U 0.36802 0.55558 0.74501 0.0
O247 O 0.34301 0.56102 0.72364 0.0
O248 O 0.3814 0.58641 0.72193 0.0
C249 C 0.36012 0.58057 0.71491 0.0
C250 C 0.3687 0.56514 0.78933 0.0
C251 C 0.35603 0.59405 0.6969 0.0
C252 C 0.34631 0.62402 0.68679 0.0
C253 C 0.34941 0.61037 0.70357 0.0
C254 C 0.35675 0.60534 0.65636 0.0
C255 C 0.35018 0.62203 0.66279 0.0
C256 C 0.35951 0.59148 0.67321 0.0
C257 C 0.38602 0.50789 0.72346 0.0
C258 C 0.39643 0.48889 0.69317 0.0
C259 C 0.40334 0.48425 0.7338 0.0
C260 C 0.39385 0.49821 0.74039 0.0
C261 C 0.40536 0.47956 0.70996 0.0
C262 C 0.38702 0.50291 0.69989 0.0
C263 C 0.37919 0.52519 0.7298 0.0
O264 O 0.38738 0.57598 0.77601 0.0
O265 O 0.34974 0.54844 0.77914 0.0
O266 O 0.35724 0.51934 0.73407 0.0
O267 O 0.39509 0.54689 0.73475 0.0
H268 H 0.37912 0.542 0.82311 0.0
H269 H 0.39058 0.55525 0.8637 0.0
H270 H 0.3734 0.60984 0.85248 0.0
H271 H 0.36272 0.59692 0.81226 0.0
H272 H 0.34064 0.63591 0.69291 0.0
H273 H 0.34668 0.61261 0.72185 0.0
H274 H 0.36049 0.60323 0.63842 0.0
H275 H 0.36476 0.57901 0.66774 0.0
H276 H 0.39672 0.48591 0.67468 0.0
H277 H 0.40956 0.478 0.7479 0.0
H278 H 0.39329 0.50202 0.75873 0.0
H279 H 0.38108 0.51043 0.68655 0.0
C280 C 0.8187 0.35919 0.9807 0.0
C281 C 0.83879 0.36641 0.99468 0.0
C282 C 0.81863 0.37245 0.02754 0.0
C283 C 0.83871 0.373 1.01809 0.0
C284 C 0.79829 0.3639 1.01388 0.0
C285 C 0.79836 0.35733 0.99072 0.0
U286 U 0.8306 0.35626 0.91155 0.0
O287 O 0.8011 0.33148 0.88915 0.0
O288 O 0.81478 0.36973 0.88614 0.0
C289 C 0.79982 0.34856 0.87869 0.0
C290 C 0.81854 0.35634 0.95514 0.0
C291 C 0.78057 0.34392 0.86227 0.0
C292 C 0.74039 0.33451 0.85364 0.0
C293 C 0.75778 0.33751 0.8699 0.0
C294 C 0.76832 0.34407 0.82213 0.0
C295 C 0.7456 0.33788 0.82962 0.0
C296 C 0.78559 0.34701 0.8383 0.0
C297 C 0.89717 0.37476 0.8916 0.0
C298 C 0.92509 0.38595 0.85953 0.0
C299 C 0.93886 0.39189 0.89957 0.0
C300 C 0.91579 0.38232 0.90745 0.0
C301 C 0.94393 0.39403 0.87554 0.0
C302 C 0.90183 0.37641 0.86752 0.0
C303 C 0.87381 0.36794 0.90109 0.0
O304 O 0.827 0.37492 0.94173 0.0
O305 O 0.81785 0.33788 0.94547 0.0
O306 O 0.85704 0.34591 0.90265 0.0
O307 O 0.86716 0.3835 0.90422 0.0
H308 H 0.85471 0.36801 0.98727 0.0
H309 H 0.85459 0.37961 0.02844 0.0
H310 H 0.78271 0.3635 0.02076 0.0
H311 H 0.78276 0.35192 0.98018 0.0
H312 H 0.72304 0.33006 0.85981 0.0
H313 H 0.75356 0.33522 0.88836 0.0
H314 H 0.77282 0.34702 0.80376 0.0
H315 H 0.80308 0.35208 0.83207 0.0
H316 H 0.92831 0.38714 0.84088 0.0
H317 H 0.9528 0.39835 0.91245 0.0
H318 H 0.91255 0.38154 0.92609 0.0
H319 H 0.88765 0.37086 0.85499 0.0
C320 C 0.47872 0.80805 0.14754 0.0
C321 C 0.49123 0.82776 0.16182 0.0
C322 C 0.46456 0.80716 0.19426 0.0
C323 C 0.4844 0.8272 0.18515 0.0
C324 C 0.45311 0.78712 0.17999 0.0
C325 C 0.46025 0.78757 0.15699 0.0
U326 U 0.49247 0.8195 0.07829 0.0
O327 O 0.48744 0.78956 0.05651 0.0
O328 O 0.46171 0.8022 0.05482 0.0
C329 C 0.46776 0.78698 0.04777 0.0
C330 C 0.48174 0.80888 0.12213 0.0
C331 C 0.4541 0.76908 0.03014 0.0
C332 C 0.42379 0.72952 0.02016 0.0
C333 C 0.43763 0.74632 0.0369 0.0
C334 C 0.44298 0.75825 0.9897 0.0
C335 C 0.42592 0.73507 0.99602 0.0
C336 C 0.45676 0.7749 1.0065 0.0
C337 C 0.54034 0.88546 0.05711 0.0
C338 C 0.55837 0.91412 0.02597 0.0
C339 C 0.56479 0.92668 0.06638 0.0
C340 C 0.55074 0.90348 0.07356 0.0
C341 C 0.56827 0.93261 0.04244 0.0
C342 C 0.54464 0.89079 0.03327 0.0
C343 C 0.52309 0.8617 0.06484 0.0
O344 O 0.47132 0.81727 0.10896 0.0
O345 O 0.49919 0.80768 0.11221 0.0
O346 O 0.52884 0.84544 0.06811 0.0
O347 O 0.50105 0.85544 0.06898 0.0
H348 H 0.5056 0.84375 0.15475 0.0
H349 H 0.49422 0.84277 0.19572 0.0
H350 H 0.43765 0.77139 0.18589 0.0
H351 H 0.45032 0.77224 0.14609 0.0
H352 H 0.41153 0.71237 0.02671 0.0
H353 H 0.43529 0.74155 0.05523 0.0
H354 H 0.44594 0.7643 0.97192 0.0
H355 H 0.46939 0.79251 1.00099 0.0
H356 H 0.5603 0.91755 1.0074 0.0
H357 H 0.57271 0.93988 0.07985 0.0
H358 H 0.54763 0.89967 0.09205 0.0
H359 H 0.53661 0.87702 0.02027 0.0
C360 C 0.68848 0.46658 0.31432 0.0
C361 C 0.68205 0.47959 0.32901 0.0
C362 C 0.67529 0.4524 0.36097 0.0
C363 C 0.67569 0.47263 0.3524 0.0
C364 C 0.68308 0.44047 0.34654 0.0
C365 C 0.68969 0.44756 0.32352 0.0
U366 U 0.69168 0.48182 0.24522 0.0
O367 O 0.71632 0.47621 0.22353 0.0
O368 O 0.67775 0.45249 0.21982 0.0
C369 C 0.699 0.4579 0.21316 0.0
C370 C 0.69116 0.46985 0.28884 0.0
C371 C 0.70338 0.44346 0.19644 0.0
C372 C 0.71272 0.41291 0.18728 0.0
C373 C 0.70979 0.42713 0.20373 0.0
C374 C 0.70249 0.4311 0.15632 0.0
C375 C 0.70895 0.41443 0.16308 0.0
C376 C 0.69998 0.44542 0.17268 0.0
C377 C 0.67336 0.52987 0.22493 0.0
C378 C 0.66367 0.54788 0.19283 0.0
C379 C 0.65417 0.55257 0.23263 0.0
C380 C 0.66402 0.53939 0.24063 0.0
C381 C 0.65357 0.55675 0.20867 0.0
C382 C 0.67332 0.53428 0.2009 0.0
C383 C 0.68012 0.51323 0.23427 0.0
O384 O 0.67257 0.45971 0.27527 0.0
O385 O 0.70988 0.48745 0.27932 0.0
O386 O 0.7022 0.51828 0.23544 0.0
O387 O 0.6644 0.49128 0.23821 0.0
H388 H 0.68094 0.49432 0.32219 0.0
H389 H 0.6697 0.48208 0.36327 0.0
H390 H 0.68303 0.42493 0.35277 0.0
H391 H 0.69459 0.43731 0.31246 0.0
H392 H 0.71808 0.40097 0.19387 0.0
H393 H 0.71242 0.42528 0.22212 0.0
H394 H 0.6986 0.43306 0.13845 0.0
H395 H 0.69485 0.45783 0.16674 0.0
H396 H 0.66332 0.55073 0.17423 0.0
H397 H 0.64671 0.5593 0.24525 0.0
H398 H 0.66366 0.53599 0.25919 0.0
H399 H 0.68012 0.52676 0.18844 0.0
C400 C 0.24013 0.67743 0.4809 0.0
C401 C 0.21998 0.66967 0.49476 0.0
C402 C 0.2404 0.66389 0.52756 0.0
C403 C 0.22017 0.66307 0.51804 0.0
C404 C 0.26089 0.67315 0.51391 0.0
C405 C 0.2607 0.67984 0.49085 0.0
U406 U 0.22904 0.67985 0.41149 0.0
O407 O 0.25878 0.70469 0.38946 0.0
O408 O 0.2463 0.66652 0.38775 0.0
C409 C 0.26139 0.68771 0.38056 0.0
C410 C 0.23984 0.67984 0.45541 0.0
C411 C 0.27931 0.69206 0.36277 0.0
C412 C 0.31877 0.70025 0.35314 0.0
C413 C 0.30187 0.69732 0.36977 0.0
C414 C 0.29091 0.69339 0.32215 0.0
C415 C 0.31345 0.69829 0.32915 0.0
C416 C 0.27387 0.6901 0.33885 0.0
C417 C 0.16293 0.66176 0.39053 0.0
C418 C 0.13407 0.65076 0.35951 0.0
C419 C 0.12178 0.64551 0.39996 0.0
C420 C 0.14505 0.65456 0.40704 0.0
C421 C 0.11555 0.64256 0.37602 0.0
C422 C 0.15749 0.6604 0.36674 0.0
C423 C 0.18668 0.66825 0.39825 0.0
O424 O 0.23144 0.66112 0.44212 0.0
O425 O 0.24096 0.69837 0.44551 0.0
O426 O 0.20299 0.69022 0.40159 0.0
O427 O 0.19294 0.65251 0.4022 0.0
H428 H 0.20391 0.66771 0.48735 0.0
H429 H 0.20424 0.65645 0.52829 0.0
H430 H 0.27671 0.67389 0.52048 0.0
H431 H 0.27637 0.68566 0.48032 0.0
H432 H 0.336 0.70401 0.35901 0.0
H433 H 0.30631 0.69879 0.38816 0.0
H434 H 0.2863 0.6915 0.30378 0.0
H435 H 0.25644 0.68583 0.33311 0.0
H436 H 0.13087 0.64912 0.34093 0.0
H437 H 0.10899 0.64088 0.4137 0.0
H438 H 0.14903 0.65558 0.42553 0.0
H439 H 0.17123 0.66587 0.35372 0.0
C440 C 0.58052 0.22837 0.64793 0.0
C441 C 0.56784 0.20884 0.66244 0.0
C442 C 0.59483 0.22949 0.69457 0.0
C443 C 0.57494 0.20945 0.68575 0.0
C444 C 0.60646 0.24938 0.68042 0.0
C445 C 0.5993 0.24883 0.65734 0.0
U446 U 0.56683 0.21695 0.57825 0.0
O447 O 0.5718 0.24677 0.55636 0.0
O448 O 0.59754 0.23426 0.55462 0.0
C449 C 0.59132 0.24924 0.54731 0.0
C450 C 0.57738 0.2273 0.62237 0.0
C451 C 0.60509 0.26739 0.52974 0.0
C452 C 0.63612 0.30686 0.5203 0.0
C453 C 0.62212 0.28995 0.53685 0.0
C454 C 0.61592 0.27903 0.48918 0.0
C455 C 0.63338 0.30161 0.49622 0.0
C456 C 0.60202 0.26206 0.5058 0.0
C457 C 0.51877 0.15076 0.55706 0.0
C458 C 0.49964 0.12205 0.52591 0.0
C459 C 0.49539 0.10941 0.56619 0.0
C460 C 0.50923 0.13264 0.57343 0.0
C461 C 0.49091 0.10369 0.54231 0.0
C462 C 0.51356 0.14544 0.53324 0.0
C463 C 0.53609 0.17461 0.56479 0.0
O464 O 0.58791 0.21909 0.60906 0.0
O465 O 0.5601 0.2287 0.61233 0.0
O466 O 0.5304 0.19092 0.56808 0.0
O467 O 0.55816 0.18093 0.56885 0.0
H468 H 0.55337 0.19283 0.65546 0.0
H469 H 0.56585 0.19387 0.69642 0.0
H470 H 0.62193 0.26492 0.68681 0.0
H471 H 0.60938 0.26401 0.64638 0.0
H472 H 0.64914 0.3241 0.52641 0.0
H473 H 0.62481 0.29442 0.55526 0.0
H474 H 0.61345 0.27422 0.47086 0.0
H475 H 0.58905 0.24468 0.49996 0.0
H476 H 0.49659 0.11829 0.50739 0.0
H477 H 0.48855 0.09581 0.57935 0.0
H478 H 0.51306 0.13641 0.59186 0.0
H479 H 0.52095 0.15923 0.52028 0.0
H480 H 0.40836 0.67145 0.24888 0.0
H481 H 0.33035 0.72718 0.29085 0.0
H482 H 0.40682 0.72722 0.21087 0.0
H483 H 0.3363 0.67342 0.32765 0.0
H484 H 0.35885 0.72886 0.26176 0.0
H485 H 0.3828 0.67341 0.27813 0.0
C486 C 0.40295 0.68437 0.24671 0.0
C487 C 0.41017 0.69933 0.22725 0.0
C488 C 0.35388 0.71668 0.27618 0.0
C489 C 0.37981 0.70116 0.2609 0.0
C490 C 0.33763 0.7157 0.29272 0.0
C491 C 0.33098 0.7001 0.31162 0.0
C492 C 0.36323 0.70167 0.27841 0.0
C493 C 0.34105 0.68578 0.31343 0.0
C494 C 0.38804 0.68531 0.26346 0.0
C495 C 0.40165 0.71513 0.22536 0.0
N496 N 0.35648 0.68681 0.297 0.0
N497 N 0.38691 0.7156 0.24193 0.0
H498 H 0.68075 0.33192 0.50006 0.0
H499 H 0.69691 0.38896 0.37307 0.0
H500 H 0.62284 0.31155 0.4523 0.0
H501 H 0.75398 0.40285 0.4203 0.0
H502 H 0.66928 0.36214 0.40178 0.0
H503 H 0.70713 0.36002 0.47145 0.0
C504 C 0.67348 0.33349 0.48363 0.0
C505 C 0.64942 0.31926 0.47873 0.0
C506 C 0.68788 0.37124 0.40582 0.0
C507 C 0.6799 0.35153 0.44542 0.0
C508 C 0.70392 0.38652 0.38924 0.0
C509 C 0.72835 0.3985 0.3937 0.0
C510 C 0.6961 0.36802 0.42734 0.0
C511 C 0.73562 0.39475 0.41568 0.0
C512 C 0.68865 0.3495 0.46716 0.0
C513 C 0.64127 0.32192 0.45682 0.0
N514 N 0.71966 0.37999 0.4315 0.0
N515 N 0.65645 0.33772 0.441 0.0
H516 H 0.3422 0.61488 0.61476 0.0
H517 H 0.34939 0.73752 0.59152 0.0
H518 H 0.35281 0.66529 0.66886 0.0
H519 H 0.34533 0.69048 0.5362 0.0
H520 H 0.34847 0.71022 0.61971 0.0
H521 H 0.34128 0.64136 0.586 0.0
C522 C 0.34449 0.6314 0.62088 0.0
C523 C 0.34795 0.63754 0.64478 0.0
C524 C 0.34769 0.70591 0.60133 0.0
C525 C 0.34585 0.66786 0.61132 0.0
C526 C 0.3485 0.72183 0.58478 0.0
C527 C 0.34799 0.71731 0.56055 0.0
C528 C 0.34589 0.68479 0.59405 0.0
C529 C 0.34576 0.69552 0.55419 0.0
C530 C 0.34364 0.64648 0.60423 0.0
C531 C 0.34977 0.65912 0.65102 0.0
N532 N 0.34482 0.68026 0.57074 0.0
N533 N 0.34869 0.67335 0.63448 0.0
H534 H 0.63578 0.29926 0.7236 0.0
H535 H 0.74235 0.37442 0.81264 0.0
H536 H 0.66693 0.37345 0.73527 0.0
H537 H 0.70991 0.29947 0.80729 0.0
H538 H 0.71482 0.37372 0.78347 0.0
H539 H 0.66238 0.29802 0.75334 0.0
C540 C 0.6483 0.31527 0.73239 0.0
C541 C 0.64919 0.3365 0.7271 0.0
C542 C 0.71355 0.35734 0.78862 0.0
C543 C 0.67978 0.33535 0.76076 0.0
C544 C 0.72927 0.35779 0.80532 0.0
C545 C 0.72821 0.337 0.81246 0.0
C546 C 0.69661 0.33591 0.77873 0.0
C547 C 0.7111 0.31586 0.8023 0.0
C548 C 0.66342 0.31457 0.74935 0.0
C549 C 0.66559 0.35672 0.73897 0.0
N550 N 0.69595 0.31583 0.78589 0.0
N551 N 0.68024 0.35566 0.75508 0.0
H552 H 0.42646 0.73916 0.94692 0.0
H553 H 0.31532 0.61347 0.92299 0.0
H554 H 0.38863 0.68863 1.00176 0.0
H555 H 0.35147 0.66619 0.86991 0.0
H556 H 0.34289 0.64005 0.95188 0.0
H557 H 0.40039 0.71168 0.91888 0.0
C558 C 0.41295 0.72267 0.95368 0.0
C559 C 0.41032 0.71727 0.9778 0.0
C560 C 0.34482 0.64567 0.93384 0.0
C561 C 0.37986 0.68472 0.94423 0.0
C562 C 0.32884 0.63055 0.9172 0.0
C563 C 0.33053 0.63735 0.8936 0.0
C564 C 0.36299 0.66776 0.92698 0.0
C565 C 0.34927 0.65962 0.88755 0.0
C566 C 0.39789 0.70669 0.93712 0.0
C567 C 0.39206 0.69459 0.98394 0.0
N568 N 0.36465 0.6739 0.90407 0.0
N569 N 0.37764 0.67935 0.96736 0.0
H570 H 0.71576 0.30145 0.09064 0.0
H571 H 0.71182 0.41853 0.11419 0.0
H572 H 0.70783 0.34279 0.03642 0.0
H573 H 0.71186 0.37362 0.16949 0.0
H574 H 0.71239 0.39196 0.08593 0.0
H575 H 0.71644 0.32865 0.11947 0.0
C576 C 0.71397 0.31594 0.08446 0.0
C577 C 0.71127 0.31905 0.06048 0.0
C578 C 0.71236 0.38801 0.1043 0.0
C579 C 0.71322 0.35133 0.09418 0.0
C580 C 0.71166 0.40319 0.12088 0.0
C581 C 0.71114 0.39868 0.14509 0.0
C582 C 0.71314 0.36816 0.11155 0.0
C583 C 0.71229 0.37856 0.15147 0.0
C584 C 0.7147 0.33177 0.10121 0.0
C585 C 0.7102 0.33923 0.0543 0.0
N586 N 0.71324 0.36419 0.13488 0.0
N587 N 0.71119 0.35446 0.07096 0.0
H588 H 0.55335 0.60493 0.19242 0.0
H589 H 0.67024 0.59519 0.17982 0.0
H590 H 0.61316 0.65313 0.1515 0.0
H591 H 0.60946 0.54752 0.21994 0.0
H592 H 0.65027 0.61711 0.16937 0.0
H593 H 0.57418 0.58413 0.20305 0.0
C594 C 0.57102 0.6113 0.18594 0.0
C595 C 0.5816 0.63081 0.17115 0.0
C596 C 0.64127 0.60178 0.18036 0.0
C597 C 0.60564 0.60708 0.18317 0.0
C598 C 0.65261 0.58922 0.18619 0.0
C599 C 0.64146 0.5695 0.20071 0.0
C600 C 0.61851 0.5944 0.18893 0.0
C601 C 0.61874 0.56269 0.20878 0.0
C602 C 0.58288 0.59935 0.19188 0.0
C603 C 0.60438 0.6381 0.16291 0.0
N604 N 0.60804 0.57504 0.20276 0.0
N605 N 0.61567 0.62629 0.16906 0.0
H606 H 0.96354 0.56022 0.37346 0.0
H607 H 0.09598 0.6407 0.3318 0.0
H608 H 0.98371 0.58569 0.30256 0.0
H609 H 0.07519 0.6154 0.4027 0.0
H610 H 0.05507 0.62012 0.32075 0.0
H611 H 1.00436 0.58178 0.38455 0.0
C612 C 0.97608 0.57022 0.36001 0.0
C613 C 0.96922 0.5705 0.33667 0.0
C614 C 0.05965 0.61941 0.33879 0.0
C615 C 1.01698 0.59475 0.3496 0.0
C616 C 0.08332 0.63108 0.34528 0.0
C617 C 0.09008 0.63049 0.3686 0.0
C618 C 0.04229 0.60724 0.35567 0.0
C619 C 0.07181 0.6176 0.38474 0.0
C620 C 0.99972 0.58241 0.3665 0.0
C621 C 0.98732 0.58378 0.32053 0.0
N622 N 0.04897 0.60674 0.37799 0.0
N623 N 1.0102 0.5951 0.32726 0.0
H624 H 0.3982 0.96752 0.47889 0.0
H625 H 0.49672 0.06831 0.55943 0.0
H626 H 0.43839 0.95543 0.53099 0.0
H627 H 0.45683 0.08174 0.50807 0.0
H628 H 0.47529 0.027 0.54904 0.0
H629 H 0.41877 1.00907 0.48946 0.0
C630 C 0.41136 0.97361 0.49256 0.0
C631 C 0.41662 0.95792 0.50396 0.0
C632 C 0.47111 0.03888 0.54003 0.0
C633 C 0.44033 1.00561 0.51616 0.0
C634 C 0.4833 0.06255 0.54604 0.0
C635 C 0.47837 0.07859 0.53491 0.0
C636 C 0.45375 0.03092 0.52262 0.0
C637 C 0.46124 0.07006 0.51717 0.0
C638 C 0.42307 0.99734 0.49861 0.0
C639 C 0.43359 0.96678 0.52182 0.0
N640 N 0.44946 0.0468 0.51166 0.0
N641 N 0.4449 0.99 0.52724 0.0
H642 H 0.42224 0.45614 0.73812 0.0
H643 H 0.4718 0.4149 0.63362 0.0
H644 H 0.41657 0.4703 0.66495 0.0
H645 H 0.47851 0.40161 0.70683 0.0
H646 H 0.45101 0.43421 0.64508 0.0
H647 H 0.44246 0.43619 0.72667 0.0
C648 C 0.42498 0.45551 0.71967 0.0
C649 C 0.41721 0.46582 0.70282 0.0
C650 C 0.45708 0.42699 0.65858 0.0
C651 C 0.44064 0.44155 0.68958 0.0
C652 C 0.46917 0.41555 0.65209 0.0
C653 C 0.47754 0.40581 0.66894 0.0
C654 C 0.45317 0.42914 0.68219 0.0
C655 C 0.47297 0.4084 0.69262 0.0
C656 C 0.43667 0.44367 0.71318 0.0
C657 C 0.42162 0.46304 0.67914 0.0
N658 N 0.46121 0.41979 0.69843 0.0
N659 N 0.43294 0.45121 0.67334 0.0
H660 H 0.96469 0.42403 0.83849 0.0
H661 H 0.09467 0.44792 0.86618 0.0
H662 H 0.98037 0.39035 0.8947 0.0
H663 H 0.07781 0.48135 0.81063 0.0
H664 H 0.05307 0.42666 0.87721 0.0
H665 H 1.00615 0.44435 0.82754 0.0
C666 C 0.97675 0.42068 0.8484 0.0
C667 C 0.96889 0.40543 0.86761 0.0
C668 C 0.05853 0.4386 0.86255 0.0
C669 C 1.01667 0.42908 0.8554 0.0
C670 C 0.08232 0.45087 0.85632 0.0
C671 C 0.08985 0.46629 0.8372 0.0
C672 C 0.04214 0.44181 0.84962 0.0
C673 C 0.07289 0.46924 0.82508 0.0
C674 C 1.00052 0.43249 0.84227 0.0
C675 C 0.98558 0.4022 0.88 0.0
N676 N 0.04993 0.4571 0.83144 0.0
N677 N 1.00863 0.41395 0.87374 0.0
H678 H 0.63093 0.0838 0.03784 0.0
H679 H 0.59274 0.95221 1.00103 0.0
H680 H 0.65028 0.06544 0.97214 0.0
H681 H 0.5737 0.97158 0.06636 0.0
H682 H 0.61347 0.99335 0.98986 0.0
H683 H 0.61124 0.0428 0.04896 0.0
C684 C 0.63133 0.0714 0.02571 0.0
C685 C 0.64242 0.0786 1.00379 0.0
C686 C 0.60489 0.98851 1.00674 0.0
C687 C 0.61884 0.03093 1.01637 0.0
C688 C 0.59276 0.96484 1.01314 0.0
C689 C 0.58142 0.95787 0.03498 0.0
C690 C 0.60599 1.00554 0.0223 0.0
C691 C 0.58265 0.97563 0.04973 0.0
C692 C 0.61973 0.04778 0.03205 0.0
C693 C 0.64157 0.0611 0.98892 0.0
N694 N 0.59475 0.99846 0.04318 0.0
N695 N 0.62991 0.0382 0.9954 0.0
H696 H 0.4386 0.61759 1.00308 0.0
H697 H 0.41078 0.63093 0.86974 0.0
H698 H 0.46514 0.6839 0.9683 0.0
H699 H 0.3835 0.5639 0.90371 0.0
H700 H 0.43002 0.6503 0.90585 0.0
H701 H 0.41802 0.59749 0.96714 0.0
C702 C 0.4403 0.62784 0.98767 0.0
C703 C 0.45379 0.65231 0.98837 0.0
C704 C 0.41979 0.63136 0.90553 0.0
C705 C 0.43026 0.6296 0.94733 0.0
C706 C 0.40853 0.6202 0.88489 0.0
C707 C 0.39512 0.59565 0.88363 0.0
C708 C 0.41796 0.61801 0.92525 0.0
C709 C 0.39366 0.58283 0.90377 0.0
C710 C 0.42848 0.61641 0.96724 0.0
C711 C 0.45509 0.66496 0.96826 0.0
N712 N 0.40493 0.59417 0.92377 0.0
N713 N 0.44354 0.65344 0.94848 0.0
H714 H 0.80339 0.35202 0.07049 0.0
H715 H 0.83451 0.47308 0.13422 0.0
H716 H 0.83484 0.41846 0.0352 0.0
H717 H 0.80192 0.40604 0.16879 0.0
H718 H 0.83469 0.45359 0.09763 0.0
H719 H 0.80282 0.3716 0.10693 0.0
C720 C 0.81039 0.37078 0.07057 0.0
C721 C 0.81961 0.38382 0.05011 0.0
C722 C 0.82746 0.44317 0.11325 0.0
C723 C 0.81857 0.40628 0.0913 0.0
C724 C 0.82743 0.45431 0.13412 0.0
C725 C 0.81807 0.44118 0.15458 0.0
C726 C 0.81834 0.41877 0.11291 0.0
C727 C 0.80898 0.41685 0.15339 0.0
C728 C 0.80996 0.38195 0.09125 0.0
C729 C 0.82802 0.40797 0.05084 0.0
N730 N 0.8094 0.40649 0.133 0.0
N731 N 0.8273 0.41844 0.07108 0.0
H732 H 0.37963 0.76808 0.31871 0.0
H733 H 0.46611 0.84493 0.21688 0.0
H734 H 0.41099 0.8436 0.31426 0.0
H735 H 0.43916 0.77057 0.22497 0.0
H736 H 0.4463 0.84477 0.25274 0.0
H737 H 0.40076 0.76889 0.28431 0.0
C738 C 0.39096 0.78501 0.3111 0.0
C739 C 0.39369 0.80597 0.3208 0.0
C740 C 0.44471 0.82849 0.2466 0.0
C741 C 0.41734 0.80647 0.27958 0.0
C742 C 0.45635 0.82857 0.22619 0.0
C743 C 0.45438 0.80769 0.21747 0.0
C744 C 0.43068 0.80736 0.25836 0.0
C745 C 0.44085 0.78706 0.23039 0.0
C746 C 0.40291 0.78526 0.29092 0.0
C747 C 0.40787 0.82679 0.30823 0.0
N748 N 0.4294 0.7874 0.25002 0.0
N749 N 0.41908 0.82645 0.28838 0.0
H750 H 0.58034 0.35689 0.46571 0.0
H751 H 0.68827 0.4699 0.40569 0.0
H752 H 0.63529 0.41379 0.50479 0.0
H753 H 0.63659 0.41002 0.36713 0.0
H754 H 0.66897 0.45004 0.44234 0.0
H755 H 0.60034 0.37636 0.42921 0.0
C756 C 0.59651 0.37358 0.46651 0.0
C757 C 0.60617 0.38391 0.48812 0.0
C758 C 0.66179 0.44129 0.42585 0.0
C759 C 0.62911 0.40632 0.44672 0.0
C760 C 0.67275 0.45267 0.405 0.0
C761 C 0.66385 0.44158 0.38347 0.0
C762 C 0.64164 0.41884 0.42504 0.0
C763 C 0.64392 0.41913 0.38344 0.0
C764 C 0.60799 0.38466 0.44576 0.0
C765 C 0.62731 0.40538 0.48837 0.0
N766 N 0.63343 0.40856 0.40384 0.0
N767 N 0.63802 0.41592 0.46801 0.0
H768 H 0.27655 0.62699 0.65896 0.0
H769 H 0.20476 0.62298 0.54536 0.0
H770 H 0.20809 0.56791 0.6414 0.0
H771 H 0.27459 0.67918 0.5617 0.0
H772 H 0.2051 0.60305 0.58113 0.0
H773 H 0.27596 0.64541 0.62346 0.0
C774 C 0.26132 0.61734 0.64804 0.0
C775 C 0.24223 0.59523 0.65433 0.0
C776 C 0.2203 0.61979 0.57694 0.0
C777 C 0.24143 0.61782 0.61278 0.0
C778 C 0.22003 0.63135 0.55664 0.0
C779 C 0.23962 0.65289 0.55049 0.0
C780 C 0.24031 0.62981 0.5913 0.0
C781 C 0.25913 0.66254 0.56558 0.0
C782 C 0.26104 0.62841 0.62747 0.0
C783 C 0.22321 0.58492 0.63841 0.0
N784 N 0.25897 0.65092 0.58524 0.0
N785 N 0.22326 0.59636 0.61861 0.0
H786 H 0.63011 0.2201 0.69955 0.0
H787 H 0.64145 0.24096 0.83798 0.0
H788 H 0.58547 0.23777 0.73937 0.0
H789 H 0.68276 0.21804 0.79943 0.0
H790 H 0.62171 0.24098 0.80191 0.0
H791 H 0.65036 0.22028 0.73559 0.0
C792 C 0.62452 0.22384 0.71603 0.0
C793 C 0.60599 0.22862 0.71668 0.0
C794 C 0.6351 0.23598 0.80122 0.0
C795 C 0.62916 0.22915 0.75793 0.0
C796 C 0.64646 0.23605 0.82181 0.0
C797 C 0.66385 0.22959 0.82167 0.0
C798 C 0.64116 0.22948 0.78014 0.0
C799 C 0.66939 0.22304 0.8003 0.0
C800 C 0.63608 0.22401 0.73655 0.0
C801 C 0.59951 0.23371 0.73828 0.0
N802 N 0.65814 0.22326 0.78034 0.0
N803 N 0.61111 0.23385 0.75809 0.0
loop_
_geom_bond_atom_site_label_1
_geom_bond_atom_site_label_2
_geom_bond_distance
_geom_bond_site_symmetry_2
_ccdc_geom_bond_type
C0 C1 1.264 . S
C0 C5 1.479 . S
C0 C10 1.465 . S
C1 C0 1.264 . S
C1 C3 1.339 . S
C1 H28 0.931 . S
C2 C3 1.395 1_556 S
C2 C4 1.320 1_556 S
C3 C1 1.339 . S
C3 C2 1.395 1_554 S
C3 H29 0.929 1_554 S
C4 C2 1.320 1_554 S
C4 C5 1.405 . S
C4 H30 0.914 1_554 S
C5 C0 1.479 . S
C5 C4 1.405 . S
C5 H31 0.931 . S
U6 O7 2.454 . S
U6 O8 2.458 . S
U6 C9 2.984 . S
U6 C10 2.847 . S
U6 C23 2.882 . S
U6 O24 2.441 . S
U6 O25 2.420 . S
U6 O26 2.455 . S
U6 O27 2.449 . S
O7 U6 2.454 . S
O7 C9 1.353 . S
O8 U6 2.458 . S
O8 C9 1.286 . S
C9 U6 2.984 . S
C9 O7 1.353 . S
C9 O8 1.286 . S
C9 C11 1.363 . S
C10 C0 1.465 . S
C10 U6 2.847 . S
C10 O24 1.249 . S
C10 O25 1.202 . S
C11 C9 1.363 . S
C11 C13 1.408 . S
C11 C16 1.342 . S
C12 C13 1.310 . S
C12 C15 1.461 . S
C12 H32 0.932 . S
C13 C11 1.408 . S
C13 C12 1.310 . S
C13 H33 0.930 . S
C14 C15 1.474 . S
C14 C16 1.285 . S
C14 H34 0.929 . S
C15 C12 1.461 . S
C15 C14 1.474 . S
C16 C11 1.342 . S
C16 C14 1.285 . S
C16 H35 0.930 . S
C17 C20 1.424 . S
C17 C22 1.245 . S
C17 C23 1.428 . S
C18 C21 1.260 . S
C18 C22 1.477 . S
C18 H36 0.932 . S
C19 C20 1.384 . S
C19 C21 1.479 . S
C19 H37 0.929 . S
C20 C17 1.424 . S
C20 C19 1.384 . S
C20 H38 0.928 . S
C21 C18 1.260 . S
C21 C19 1.479 . S
C22 C17 1.245 . S
C22 C18 1.477 . S
C22 H39 0.932 . S
C23 U6 2.882 . S
C23 C17 1.428 . S
C23 O26 1.301 . S
C23 O27 1.282 . S
O24 U6 2.441 . S
O24 C10 1.249 . S
O25 U6 2.420 . S
O25 C10 1.202 . S
O26 U6 2.455 . S
O26 C23 1.301 . S
O27 U6 2.449 . S
O27 C23 1.282 . S
H28 C1 0.931 . S
H29 C3 0.929 1_556 S
H30 C4 0.914 1_556 S
H31 C5 0.931 . S
H32 C12 0.932 . S
H33 C13 0.930 . S
H34 C14 0.929 . S
H35 C16 0.930 . S
H36 C18 0.932 . S
H37 C19 0.929 . S
H38 C20 0.928 . S
H39 C22 0.932 . S
C40 C41 1.264 . S
C40 C45 1.479 . S
C40 C50 1.465 . S
C41 C40 1.264 . S
C41 C43 1.339 . S
C41 H68 0.931 . S
C42 C43 1.395 . S
C42 C44 1.320 . S
C43 C41 1.339 . S
C43 C42 1.395 . S
C43 H69 0.929 . S
C44 C42 1.320 . S
C44 C45 1.405 . S
C44 H70 0.930 . S
C45 C40 1.479 . S
C45 C44 1.405 . S
C45 H71 0.931 . S
U46 O47 2.454 . S
U46 O48 2.458 . S
U46 C49 2.984 . S
U46 C50 2.847 . S
U46 C63 2.882 . S
U46 O64 2.441 . S
U46 O65 2.420 . S
U46 O66 2.455 . S
U46 O67 2.449 . S
O47 U46 2.454 . S
O47 C49 1.353 . S
O48 U46 2.458 . S
O48 C49 1.286 . S
C49 U46 2.984 . S
C49 O47 1.353 . S
C49 O48 1.286 . S
C49 C51 1.363 . S
C50 C40 1.465 . S
C50 U46 2.847 . S
C50 O64 1.249 . S
C50 O65 1.202 . S
C51 C49 1.363 . S
C51 C53 1.408 . S
C51 C56 1.342 . S
C52 C53 1.310 . S
C52 C55 1.461 . S
C52 H72 0.932 . S
C53 C51 1.408 . S
C53 C52 1.310 . S
C53 H73 0.930 . S
C54 C55 1.474 . S
C54 C56 1.285 . S
C54 H74 0.929 . S
C55 C52 1.461 . S
C55 C54 1.474 . S
C56 C51 1.342 . S
C56 C54 1.285 . S
C56 H75 0.930 . S
C57 C60 1.424 . S
C57 C62 1.245 . S
C57 C63 1.428 . S
C58 C61 1.260 . S
C58 C62 1.477 . S
C58 H76 0.932 . S
C59 C60 1.384 . S
C59 C61 1.479 . S
C59 H77 0.929 . S
C60 C57 1.424 . S
C60 C59 1.384 . S
C60 H78 0.928 . S
C61 C58 1.260 . S
C61 C59 1.479 . S
C62 C57 1.245 . S
C62 C58 1.477 . S
C62 H79 0.932 . S
C63 U46 2.882 . S
C63 C57 1.428 . S
C63 O66 1.301 . S
C63 O67 1.282 . S
O64 U46 2.441 . S
O64 C50 1.249 . S
O65 U46 2.420 . S
O65 C50 1.202 . S
O66 U46 2.455 . S
O66 C63 1.301 . S
O67 U46 2.449 . S
O67 C63 1.282 . S
H68 C41 0.931 . S
H69 C43 0.929 . S
H70 C44 0.930 . S
H71 C45 0.931 . S
H72 C52 0.932 . S
H73 C53 0.930 . S
H74 C54 0.929 . S
H75 C56 0.930 . S
H76 C58 0.932 . S
H77 C59 0.929 . S
H78 C60 0.928 . S
H79 C62 0.932 . S
C80 C81 1.264 . S
C80 C85 1.479 . S
C80 C90 1.465 . S
C81 C80 1.264 . S
C81 C83 1.339 . S
C81 H108 0.931 . S
C82 C83 1.395 . S
C82 C84 1.320 . S
C83 C81 1.339 . S
C83 C82 1.395 . S
C83 H109 0.929 . S
C84 C82 1.320 . S
C84 C85 1.405 . S
C84 H110 0.930 . S
C85 C80 1.479 . S
C85 C84 1.405 . S
C85 H111 0.931 . S
U86 O87 2.454 . S
U86 O88 2.458 . S
U86 C89 2.984 . S
U86 C90 2.847 . S
U86 C103 2.882 . S
U86 O104 2.441 . S
U86 O105 2.420 . S
U86 O106 2.455 . S
U86 O107 2.449 . S
O87 U86 2.454 . S
O87 C89 1.353 . S
O88 U86 2.458 . S
O88 C89 1.286 . S
C89 U86 2.984 . S
C89 O87 1.353 . S
C89 O88 1.286 . S
C89 C91 1.363 . S
C90 C80 1.465 . S
C90 U86 2.847 . S
C90 O104 1.249 . S
C90 O105 1.202 . S
C91 C89 1.363 . S
C91 C93 1.408 . S
C91 C96 1.342 . S
C92 C93 1.310 . S
C92 C95 1.461 . S
C92 H112 0.932 . S
C93 C91 1.408 . S
C93 C92 1.310 . S
C93 H113 0.930 . S
C94 C95 1.474 . S
C94 C96 1.285 . S
C94 H114 0.929 . S
C95 C92 1.461 . S
C95 C94 1.474 . S
C96 C91 1.342 . S
C96 C94 1.285 . S
C96 H115 0.930 . S
C97 C100 1.424 . S
C97 C102 1.245 . S
C97 C103 1.428 . S
C98 C101 1.260 . S
C98 C102 1.477 . S
C98 H116 0.932 . S
C99 C100 1.384 . S
C99 C101 1.479 . S
C99 H117 0.929 . S
C100 C97 1.424 . S
C100 C99 1.384 . S
C100 H118 0.928 . S
C101 C98 1.260 . S
C101 C99 1.479 . S
C102 C97 1.245 . S
C102 C98 1.477 . S
C102 H119 0.932 . S
C103 U86 2.882 . S
C103 C97 1.428 . S
C103 O106 1.301 . S
C103 O107 1.282 . S
O104 U86 2.441 . S
O104 C90 1.249 . S
O105 U86 2.420 . S
O105 C90 1.202 . S
O106 U86 2.455 . S
O106 C103 1.301 . S
O107 U86 2.449 . S
O107 C103 1.282 . S
H108 C81 0.931 . S
H109 C83 0.929 . S
H110 C84 0.930 . S
H111 C85 0.931 . S
H112 C92 0.932 . S
H113 C93 0.930 . S
H114 C94 0.929 . S
H115 C96 0.930 . S
H116 C98 0.932 . S
H117 C99 0.929 . S
H118 C100 0.928 . S
H119 C102 0.932 . S
C120 C121 1.264 . S
C120 C125 1.479 . S
C120 C130 1.465 . S
C121 C120 1.264 . S
C121 C123 1.339 . S
C121 H148 0.931 . S
C122 C123 1.395 . S
C122 C124 1.320 . S
C123 C121 1.339 . S
C123 C122 1.395 . S
C123 H149 0.929 . S
C124 C122 1.320 . S
C124 C125 1.405 . S
C124 H150 0.930 . S
C125 C120 1.479 . S
C125 C124 1.405 . S
C125 H151 0.931 . S
U126 O127 2.454 . S
U126 O128 2.458 . S
U126 C129 2.984 . S
U126 C130 2.847 . S
U126 C143 2.882 . S
U126 O144 2.441 . S
U126 O145 2.420 . S
U126 O146 2.455 . S
U126 O147 2.449 . S
O127 U126 2.454 . S
O127 C129 1.353 . S
O128 U126 2.458 . S
O128 C129 1.286 . S
C129 U126 2.984 . S
C129 O127 1.353 . S
C129 O128 1.286 . S
C129 C131 1.363 . S
C130 C120 1.465 . S
C130 U126 2.847 . S
C130 O144 1.249 . S
C130 O145 1.202 . S
C131 C129 1.363 . S
C131 C133 1.408 . S
C131 C136 1.342 . S
C132 C133 1.310 . S
C132 C135 1.461 . S
C132 H152 0.932 . S
C133 C131 1.408 . S
C133 C132 1.310 . S
C133 H153 0.930 . S
C134 C135 1.474 . S
C134 C136 1.285 . S
C134 H154 0.929 . S
C135 C132 1.461 . S
C135 C134 1.474 . S
C136 C131 1.342 . S
C136 C134 1.285 . S
C136 H155 0.930 . S
C137 C140 1.424 . S
C137 C142 1.245 . S
C137 C143 1.428 . S
C138 C141 1.260 . S
C138 C142 1.477 . S
C138 H156 0.932 . S
C139 C140 1.384 . S
C139 C141 1.479 . S
C139 H157 0.929 . S
C140 C137 1.424 . S
C140 C139 1.384 . S
C140 H158 0.928 . S
C141 C138 1.260 . S
C141 C139 1.479 . S
C142 C137 1.245 . S
C142 C138 1.477 . S
C142 H159 0.932 . S
C143 U126 2.882 . S
C143 C137 1.428 . S
C143 O146 1.301 . S
C143 O147 1.282 . S
O144 U126 2.441 . S
O144 C130 1.249 . S
O145 U126 2.420 . S
O145 C130 1.202 . S
O146 U126 2.455 . S
O146 C143 1.301 . S
O147 U126 2.449 . S
O147 C143 1.282 . S
H148 C121 0.931 . S
H149 C123 0.929 . S
H150 C124 0.930 . S
H151 C125 0.931 . S
H152 C132 0.932 . S
H153 C133 0.930 . S
H154 C134 0.929 . S
H155 C136 0.930 . S
H156 C138 0.932 . S
H157 C139 0.929 . S
H158 C140 0.928 . S
H159 C142 0.932 . S
C160 C161 1.264 . S
C160 C165 1.479 . S
C160 C170 1.465 . S
C161 C160 1.264 . S
C161 C163 1.339 . S
C161 H188 0.931 . S
C162 C163 1.395 . S
C162 C164 1.320 . S
C163 C161 1.339 . S
C163 C162 1.395 . S
C163 H189 0.929 . S
C164 C162 1.320 . S
C164 C165 1.405 . S
C164 H190 0.930 . S
C165 C160 1.479 . S
C165 C164 1.405 . S
C165 H191 0.931 . S
U166 O167 2.454 . S
U166 O168 2.458 . S
U166 C169 2.984 . S
U166 C170 2.847 . S
U166 C183 2.882 . S
U166 O184 2.441 . S
U166 O185 2.420 . S
U166 O186 2.455 . S
U166 O187 2.449 . S
O167 U166 2.454 . S
O167 C169 1.353 . S
O168 U166 2.458 . S
O168 C169 1.286 . S
C169 U166 2.984 . S
C169 O167 1.353 . S
C169 O168 1.286 . S
C169 C171 1.363 . S
C170 C160 1.465 . S
C170 U166 2.847 . S
C170 O184 1.249 . S
C170 O185 1.202 . S
C171 C169 1.363 . S
C171 C173 1.408 . S
C171 C176 1.342 . S
C172 C173 1.310 . S
C172 C175 1.461 . S
C172 H192 0.932 . S
C173 C171 1.408 . S
C173 C172 1.310 . S
C173 H193 0.930 . S
C174 C175 1.474 . S
C174 C176 1.285 . S
C174 H194 0.929 . S
C175 C172 1.461 . S
C175 C174 1.474 . S
C176 C171 1.342 . S
C176 C174 1.285 . S
C176 H195 0.930 . S
C177 C180 1.424 . S
C177 C182 1.245 . S
C177 C183 1.428 . S
C178 C181 1.260 . S
C178 C182 1.477 . S
C178 H196 0.932 . S
C179 C180 1.384 . S
C179 C181 1.479 . S
C179 H197 0.929 . S
C180 C177 1.424 . S
C180 C179 1.384 . S
C180 H198 0.928 . S
C181 C178 1.260 . S
C181 C179 1.479 . S
C182 C177 1.245 . S
C182 C178 1.477 . S
C182 H199 0.932 . S
C183 U166 2.882 . S
C183 C177 1.428 . S
C183 O186 1.301 . S
C183 O187 1.282 . S
O184 U166 2.441 . S
O184 C170 1.249 . S
O185 U166 2.420 . S
O185 C170 1.202 . S
O186 U166 2.455 . S
O186 C183 1.301 . S
O187 U166 2.449 . S
O187 C183 1.282 . S
H188 C161 0.931 . S
H189 C163 0.929 . S
H190 C164 0.930 . S
H191 C165 0.931 . S
H192 C172 0.932 . S
H193 C173 0.930 . S
H194 C174 0.929 . S
H195 C176 0.930 . S
H196 C178 0.932 . S
H197 C179 0.929 . S
H198 C180 0.928 . S
H199 C182 0.932 . S
C200 C201 1.264 . S
C200 C205 1.479 . S
C200 C210 1.465 . S
C201 C200 1.264 . S
C201 C203 1.339 . S
C201 H228 0.931 . S
C202 C203 1.395 . S
C202 C204 1.320 . S
C203 C201 1.339 . S
C203 C202 1.395 . S
C203 H229 0.929 . S
C204 C202 1.320 . S
C204 C205 1.405 . S
C204 H230 0.930 . S
C205 C200 1.479 . S
C205 C204 1.405 . S
C205 H231 0.931 . S
U206 O207 2.454 . S
U206 O208 2.458 . S
U206 C209 2.984 . S
U206 C210 2.847 . S
U206 C223 2.882 . S
U206 O224 2.441 . S
U206 O225 2.420 . S
U206 O226 2.455 . S
U206 O227 2.449 . S
O207 U206 2.454 . S
O207 C209 1.353 . S
O208 U206 2.458 . S
O208 C209 1.286 . S
C209 U206 2.984 . S
C209 O207 1.353 . S
C209 O208 1.286 . S
C209 C211 1.363 . S
C210 C200 1.465 . S
C210 U206 2.847 . S
C210 O224 1.249 . S
C210 O225 1.202 . S
C211 C209 1.363 . S
C211 C213 1.408 . S
C211 C216 1.342 1_556 S
C212 C213 1.310 . S
C212 C215 1.461 1_556 S
C212 H232 0.932 . S
C213 C211 1.408 . S
C213 C212 1.310 . S
C213 H233 0.930 . S
C214 C215 1.474 . S
C214 C216 1.285 . S
C214 H234 0.929 . S
C215 C212 1.461 1_554 S
C215 C214 1.474 . S
C216 C211 1.342 1_554 S
C216 C214 1.285 . S
C216 H235 0.930 . S
C217 C220 1.424 . S
C217 C222 1.245 . S
C217 C223 1.428 . S
C218 C221 1.260 . S
C218 C222 1.477 . S
C218 H236 0.932 1_556 S
C219 C220 1.384 . S
C219 C221 1.479 . S
C219 H237 0.929 . S
C220 C217 1.424 . S
C220 C219 1.384 . S
C220 H238 0.928 . S
C221 C218 1.260 . S
C221 C219 1.479 . S
C222 C217 1.245 . S
C222 C218 1.477 . S
C222 H239 0.932 . S
C223 U206 2.882 . S
C223 C217 1.428 . S
C223 O226 1.301 . S
C223 O227 1.282 . S
O224 U206 2.441 . S
O224 C210 1.249 . S
O225 U206 2.420 . S
O225 C210 1.202 . S
O226 U206 2.455 . S
O226 C223 1.301 . S
O227 U206 2.449 . S
O227 C223 1.282 . S
H228 C201 0.931 . S
H229 C203 0.929 . S
H230 C204 0.930 . S
H231 C205 0.931 . S
H232 C212 0.932 . S
H233 C213 0.930 . S
H234 C214 0.929 . S
H235 C216 0.930 . S
H236 C218 0.932 1_554 S
H237 C219 0.929 . S
H238 C220 0.928 . S
H239 C222 0.932 . S
C240 C241 1.264 . S
C240 C245 1.479 . S
C240 C250 1.465 . S
C241 C240 1.264 . S
C241 C243 1.339 . S
C241 H268 0.931 . S
C242 C243 1.395 . S
C242 C244 1.320 . S
C243 C241 1.339 . S
C243 C242 1.395 . S
C243 H269 0.929 . S
C244 C242 1.320 . S
C244 C245 1.405 . S
C244 H270 0.930 . S
C245 C240 1.479 . S
C245 C244 1.405 . S
C245 H271 0.931 . S
U246 O247 2.454 . S
U246 O248 2.458 . S
U246 C249 2.984 . S
U246 C250 2.847 . S
U246 C263 2.882 . S
U246 O264 2.441 . S
U246 O265 2.420 . S
U246 O266 2.455 . S
U246 O267 2.449 . S
O247 U246 2.454 . S
O247 C249 1.353 . S
O248 U246 2.458 . S
O248 C249 1.286 . S
C249 U246 2.984 . S
C249 O247 1.353 . S
C249 O248 1.286 . S
C249 C251 1.363 . S
C250 C240 1.465 . S
C250 U246 2.847 . S
C250 O264 1.249 . S
C250 O265 1.202 . S
C251 C249 1.363 . S
C251 C253 1.408 . S
C251 C256 1.342 . S
C252 C253 1.310 . S
C252 C255 1.461 . S
C252 H272 0.932 . S
C253 C251 1.408 . S
C253 C252 1.310 . S
C253 H273 0.930 . S
C254 C255 1.474 . S
C254 C256 1.285 . S
C254 H274 0.929 . S
C255 C252 1.461 . S
C255 C254 1.474 . S
C256 C251 1.342 . S
C256 C254 1.285 . S
C256 H275 0.930 . S
C257 C260 1.424 . S
C257 C262 1.245 . S
C257 C263 1.428 . S
C258 C261 1.260 . S
C258 C262 1.477 . S
C258 H276 0.932 . S
C259 C260 1.384 . S
C259 C261 1.479 . S
C259 H277 0.929 . S
C260 C257 1.424 . S
C260 C259 1.384 . S
C260 H278 0.928 . S
C261 C258 1.260 . S
C261 C259 1.479 . S
C262 C257 1.245 . S
C262 C258 1.477 . S
C262 H279 0.932 . S
C263 U246 2.882 . S
C263 C257 1.428 . S
C263 O266 1.301 . S
C263 O267 1.282 . S
O264 U246 2.441 . S
O264 C250 1.249 . S
O265 U246 2.420 . S
O265 C250 1.202 . S
O266 U246 2.455 . S
O266 C263 1.301 . S
O267 U246 2.449 . S
O267 C263 1.282 . S
H268 C241 0.931 . S
H269 C243 0.929 . S
H270 C244 0.930 . S
H271 C245 0.931 . S
H272 C252 0.932 . S
H273 C253 0.930 . S
H274 C254 0.929 . S
H275 C256 0.930 . S
H276 C258 0.932 . S
H277 C259 0.929 . S
H278 C260 0.928 . S
H279 C262 0.932 . S
C280 C281 1.264 . S
C280 C285 1.479 . S
C280 C290 1.465 . S
C281 C280 1.264 . S
C281 C283 1.339 . S
C281 H308 0.931 . S
C282 C283 1.395 1_554 S
C282 C284 1.320 1_554 S
C283 C281 1.339 . S
C283 C282 1.395 1_556 S
C283 H309 0.929 1_556 S
C284 C282 1.320 1_556 S
C284 C285 1.405 . S
C284 H310 0.914 1_556 S
C285 C280 1.479 . S
C285 C284 1.405 . S
C285 H311 0.931 . S
U286 O287 2.454 . S
U286 O288 2.458 . S
U286 C289 2.984 . S
U286 C290 2.847 . S
U286 C303 2.882 . S
U286 O304 2.441 . S
U286 O305 2.420 . S
U286 O306 2.455 . S
U286 O307 2.449 . S
O287 U286 2.454 . S
O287 C289 1.353 . S
O288 U286 2.458 . S
O288 C289 1.286 . S
C289 U286 2.984 . S
C289 O287 1.353 . S
C289 O288 1.286 . S
C289 C291 1.363 . S
C290 C280 1.465 . S
C290 U286 2.847 . S
C290 O304 1.249 . S
C290 O305 1.202 . S
C291 C289 1.363 . S
C291 C293 1.408 . S
C291 C296 1.342 . S
C292 C293 1.310 . S
C292 C295 1.461 . S
C292 H312 0.932 . S
C293 C291 1.408 . S
C293 C292 1.310 . S
C293 H313 0.930 . S
C294 C295 1.474 . S
C294 C296 1.285 . S
C294 H314 0.929 . S
C295 C292 1.461 . S
C295 C294 1.474 . S
C296 C291 1.342 . S
C296 C294 1.285 . S
C296 H315 0.930 . S
C297 C300 1.424 . S
C297 C302 1.245 . S
C297 C303 1.428 . S
C298 C301 1.260 . S
C298 C302 1.477 . S
C298 H316 0.932 . S
C299 C300 1.384 . S
C299 C301 1.479 . S
C299 H317 0.929 . S
C300 C297 1.424 . S
C300 C299 1.384 . S
C300 H318 0.928 . S
C301 C298 1.260 . S
C301 C299 1.479 . S
C302 C297 1.245 . S
C302 C298 1.477 . S
C302 H319 0.932 . S
C303 U286 2.882 . S
C303 C297 1.428 . S
C303 O306 1.301 . S
C303 O307 1.282 . S
O304 U286 2.441 . S
O304 C290 1.249 . S
O305 U286 2.420 . S
O305 C290 1.202 . S
O306 U286 2.455 . S
O306 C303 1.301 . S
O307 U286 2.449 . S
O307 C303 1.282 . S
H308 C281 0.931 . S
H309 C283 0.929 1_554 S
H310 C284 0.914 1_554 S
H311 C285 0.931 . S
H312 C292 0.932 . S
H313 C293 0.930 . S
H314 C294 0.929 . S
H315 C296 0.930 . S
H316 C298 0.932 . S
H317 C299 0.929 . S
H318 C300 0.928 . S
H319 C302 0.932 . S
C320 C321 1.264 . S
C320 C325 1.479 . S
C320 C330 1.465 . S
C321 C320 1.264 . S
C321 C323 1.339 . S
C321 H348 0.931 . S
C322 C323 1.395 . S
C322 C324 1.320 . S
C323 C321 1.339 . S
C323 C322 1.395 . S
C323 H349 0.929 . S
C324 C322 1.320 . S
C324 C325 1.405 . S
C324 H350 0.930 . S
C325 C320 1.479 . S
C325 C324 1.405 . S
C325 H351 0.931 . S
U326 O327 2.454 . S
U326 O328 2.458 . S
U326 C329 2.984 . S
U326 C330 2.847 . S
U326 C343 2.882 . S
U326 O344 2.441 . S
U326 O345 2.420 . S
U326 O346 2.455 . S
U326 O347 2.449 . S
O327 U326 2.454 . S
O327 C329 1.353 . S
O328 U326 2.458 . S
O328 C329 1.286 . S
C329 U326 2.984 . S
C329 O327 1.353 . S
C329 O328 1.286 . S
C329 C331 1.363 . S
C330 C320 1.465 . S
C330 U326 2.847 . S
C330 O344 1.249 . S
C330 O345 1.202 . S
C331 C329 1.363 . S
C331 C333 1.408 . S
C331 C336 1.342 1_554 S
C332 C333 1.310 . S
C332 C335 1.461 1_554 S
C332 H352 0.932 . S
C333 C331 1.408 . S
C333 C332 1.310 . S
C333 H353 0.930 . S
C334 C335 1.474 . S
C334 C336 1.285 . S
C334 H354 0.929 . S
C335 C332 1.461 1_556 S
C335 C334 1.474 . S
C336 C331 1.342 1_556 S
C336 C334 1.285 . S
C336 H355 0.930 . S
C337 C340 1.424 . S
C337 C342 1.245 . S
C337 C343 1.428 . S
C338 C341 1.260 . S
C338 C342 1.477 . S
C338 H356 0.932 1_554 S
C339 C340 1.384 . S
C339 C341 1.479 . S
C339 H357 0.929 . S
C340 C337 1.424 . S
C340 C339 1.384 . S
C340 H358 0.928 . S
C341 C338 1.260 . S
C341 C339 1.479 . S
C342 C337 1.245 . S
C342 C338 1.477 . S
C342 H359 0.932 . S
C343 U326 2.882 . S
C343 C337 1.428 . S
C343 O346 1.301 . S
C343 O347 1.282 . S
O344 U326 2.441 . S
O344 C330 1.249 . S
O345 U326 2.420 . S
O345 C330 1.202 . S
O346 U326 2.455 . S
O346 C343 1.301 . S
O347 U326 2.449 . S
O347 C343 1.282 . S
H348 C321 0.931 . S
H349 C323 0.929 . S
H350 C324 0.930 . S
H351 C325 0.931 . S
H352 C332 0.932 . S
H353 C333 0.930 . S
H354 C334 0.929 . S
H355 C336 0.930 . S
H356 C338 0.932 1_556 S
H357 C339 0.929 . S
H358 C340 0.928 . S
H359 C342 0.932 . S
C360 C361 1.264 . S
C360 C365 1.479 . S
C360 C370 1.465 . S
C361 C360 1.264 . S
C361 C363 1.339 . S
C361 H388 0.931 . S
C362 C363 1.395 . S
C362 C364 1.320 . S
C363 C361 1.339 . S
C363 C362 1.395 . S
C363 H389 0.929 . S
C364 C362 1.320 . S
C364 C365 1.405 . S
C364 H390 0.930 . S
C365 C360 1.479 . S
C365 C364 1.405 . S
C365 H391 0.931 . S
U366 O367 2.454 . S
U366 O368 2.458 . S
U366 C369 2.984 . S
U366 C370 2.847 . S
U366 C383 2.882 . S
U366 O384 2.441 . S
U366 O385 2.420 . S
U366 O386 2.455 . S
U366 O387 2.449 . S
O367 U366 2.454 . S
O367 C369 1.353 . S
O368 U366 2.458 . S
O368 C369 1.286 . S
C369 U366 2.984 . S
C369 O367 1.353 . S
C369 O368 1.286 . S
C369 C371 1.363 . S
C370 C360 1.465 . S
C370 U366 2.847 . S
C370 O384 1.249 . S
C370 O385 1.202 . S
C371 C369 1.363 . S
C371 C373 1.408 . S
C371 C376 1.342 . S
C372 C373 1.310 . S
C372 C375 1.461 . S
C372 H392 0.932 . S
C373 C371 1.408 . S
C373 C372 1.310 . S
C373 H393 0.930 . S
C374 C375 1.474 . S
C374 C376 1.285 . S
C374 H394 0.929 . S
C375 C372 1.461 . S
C375 C374 1.474 . S
C376 C371 1.342 . S
C376 C374 1.285 . S
C376 H395 0.930 . S
C377 C380 1.424 . S
C377 C382 1.245 . S
C377 C383 1.428 . S
C378 C381 1.260 . S
C378 C382 1.477 . S
C378 H396 0.932 . S
C379 C380 1.384 . S
C379 C381 1.479 . S
C379 H397 0.929 . S
C380 C377 1.424 . S
C380 C379 1.384 . S
C380 H398 0.928 . S
C381 C378 1.260 . S
C381 C379 1.479 . S
C382 C377 1.245 . S
C382 C378 1.477 . S
C382 H399 0.932 . S
C383 U366 2.882 . S
C383 C377 1.428 . S
C383 O386 1.301 . S
C383 O387 1.282 . S
O384 U366 2.441 . S
O384 C370 1.249 . S
O385 U366 2.420 . S
O385 C370 1.202 . S
O386 U366 2.455 . S
O386 C383 1.301 . S
O387 U366 2.449 . S
O387 C383 1.282 . S
H388 C361 0.931 . S
H389 C363 0.929 . S
H390 C364 0.930 . S
H391 C365 0.931 . S
H392 C372 0.932 . S
H393 C373 0.930 . S
H394 C374 0.929 . S
H395 C376 0.930 . S
H396 C378 0.932 . S
H397 C379 0.929 . S
H398 C380 0.928 . S
H399 C382 0.932 . S
C400 C401 1.264 . S
C400 C405 1.479 . S
C400 C410 1.465 . S
C401 C400 1.264 . S
C401 C403 1.339 . S
C401 H428 0.931 . S
C402 C403 1.395 . S
C402 C404 1.320 . S
C403 C401 1.339 . S
C403 C402 1.395 . S
C403 H429 0.929 . S
C404 C402 1.320 . S
C404 C405 1.405 . S
C404 H430 0.930 . S
C405 C400 1.479 . S
C405 C404 1.405 . S
C405 H431 0.931 . S
U406 O407 2.454 . S
U406 O408 2.458 . S
U406 C409 2.984 . S
U406 C410 2.847 . S
U406 C423 2.882 . S
U406 O424 2.441 . S
U406 O425 2.420 . S
U406 O426 2.455 . S
U406 O427 2.449 . S
O407 U406 2.454 . S
O407 C409 1.353 . S
O408 U406 2.458 . S
O408 C409 1.286 . S
C409 U406 2.984 . S
C409 O407 1.353 . S
C409 O408 1.286 . S
C409 C411 1.363 . S
C410 C400 1.465 . S
C410 U406 2.847 . S
C410 O424 1.249 . S
C410 O425 1.202 . S
C411 C409 1.363 . S
C411 C413 1.408 . S
C411 C416 1.342 . S
C412 C413 1.310 . S
C412 C415 1.461 . S
C412 H432 0.932 . S
C413 C411 1.408 . S
C413 C412 1.310 . S
C413 H433 0.930 . S
C414 C415 1.474 . S
C414 C416 1.285 . S
C414 H434 0.929 . S
C415 C412 1.461 . S
C415 C414 1.474 . S
C416 C411 1.342 . S
C416 C414 1.285 . S
C416 H435 0.930 . S
C417 C420 1.424 . S
C417 C422 1.245 . S
C417 C423 1.428 . S
C418 C421 1.260 . S
C418 C422 1.477 . S
C418 H436 0.932 . S
C419 C420 1.384 . S
C419 C421 1.479 . S
C419 H437 0.929 . S
C420 C417 1.424 . S
C420 C419 1.384 . S
C420 H438 0.928 . S
C421 C418 1.260 . S
C421 C419 1.479 . S
C422 C417 1.245 . S
C422 C418 1.477 . S
C422 H439 0.932 . S
C423 U406 2.882 . S
C423 C417 1.428 . S
C423 O426 1.301 . S
C423 O427 1.282 . S
O424 U406 2.441 . S
O424 C410 1.249 . S
O425 U406 2.420 . S
O425 C410 1.202 . S
O426 U406 2.455 . S
O426 C423 1.301 . S
O427 U406 2.449 . S
O427 C423 1.282 . S
H428 C401 0.931 . S
H429 C403 0.929 . S
H430 C404 0.930 . S
H431 C405 0.931 . S
H432 C412 0.932 . S
H433 C413 0.930 . S
H434 C414 0.929 . S
H435 C416 0.930 . S
H436 C418 0.932 . S
H437 C419 0.929 . S
H438 C420 0.928 . S
H439 C422 0.932 . S
C440 C441 1.264 . S
C440 C445 1.479 . S
C440 C450 1.465 . S
C441 C440 1.264 . S
C441 C443 1.339 . S
C441 H468 0.931 . S
C442 C443 1.395 . S
C442 C444 1.320 . S
C443 C441 1.339 . S
C443 C442 1.395 . S
C443 H469 0.929 . S
C444 C442 1.320 . S
C444 C445 1.405 . S
C444 H470 0.930 . S
C445 C440 1.479 . S
C445 C444 1.405 . S
C445 H471 0.931 . S
U446 O447 2.454 . S
U446 O448 2.458 . S
U446 C449 2.984 . S
U446 C450 2.847 . S
U446 C463 2.882 . S
U446 O464 2.441 . S
U446 O465 2.420 . S
U446 O466 2.455 . S
U446 O467 2.449 . S
O447 U446 2.454 . S
O447 C449 1.353 . S
O448 U446 2.458 . S
O448 C449 1.286 . S
C449 U446 2.984 . S
C449 O447 1.353 . S
C449 O448 1.286 . S
C449 C451 1.363 . S
C450 C440 1.465 . S
C450 U446 2.847 . S
C450 O464 1.249 . S
C450 O465 1.202 . S
C451 C449 1.363 . S
C451 C453 1.408 . S
C451 C456 1.342 . S
C452 C453 1.310 . S
C452 C455 1.461 . S
C452 H472 0.932 . S
C453 C451 1.408 . S
C453 C452 1.310 . S
C453 H473 0.930 . S
C454 C455 1.474 . S
C454 C456 1.285 . S
C454 H474 0.929 . S
C455 C452 1.461 . S
C455 C454 1.474 . S
C456 C451 1.342 . S
C456 C454 1.285 . S
C456 H475 0.930 . S
C457 C460 1.424 . S
C457 C462 1.245 . S
C457 C463 1.428 . S
C458 C461 1.260 . S
C458 C462 1.477 . S
C458 H476 0.932 . S
C459 C460 1.384 . S
C459 C461 1.479 . S
C459 H477 0.929 . S
C460 C457 1.424 . S
C460 C459 1.384 . S
C460 H478 0.928 . S
C461 C458 1.260 . S
C461 C459 1.479 . S
C462 C457 1.245 . S
C462 C458 1.477 . S
C462 H479 0.932 . S
C463 U446 2.882 . S
C463 C457 1.428 . S
C463 O466 1.301 . S
C463 O467 1.282 . S
O464 U446 2.441 . S
O464 C450 1.249 . S
O465 U446 2.420 . S
O465 C450 1.202 . S
O466 U446 2.455 . S
O466 C463 1.301 . S
O467 U446 2.449 . S
O467 C463 1.282 . S
H468 C441 0.931 . S
H469 C443 0.929 . S
H470 C444 0.930 . S
H471 C445 0.931 . S
H472 C452 0.932 . S
H473 C453 0.930 . S
H474 C454 0.929 . S
H475 C456 0.930 . S
H476 C458 0.932 . S
H477 C459 0.929 . S
H478 C460 0.928 . S
H479 C462 0.932 . S
H480 C486 0.930 . S
H481 C490 0.930 . S
H482 C495 0.929 . S
H483 C493 0.929 . S
H484 C488 0.929 . S
H485 C494 0.929 . S
C486 H480 0.930 . S
C486 C487 1.367 . S
C486 C494 1.378 . S
C487 C486 1.367 . S
C487 C495 1.433 . S
C488 H484 0.929 . S
C488 C490 1.378 . S
C488 C492 1.350 . S
C489 C492 1.463 . S
C489 C494 1.350 . S
C489 N497 1.427 . S
C490 H481 0.930 . S
C490 C488 1.378 . S
C490 C491 1.367 . S
C491 C490 1.367 . S
C491 C493 1.433 . S
C492 C488 1.350 . S
C492 C489 1.463 . S
C492 N496 1.427 . S
C493 H483 0.929 . S
C493 C491 1.433 . S
C493 N496 1.384 . S
C494 H485 0.929 . S
C494 C486 1.378 . S
C494 C489 1.350 . S
C495 H482 0.929 . S
C495 C487 1.433 . S
C495 N497 1.384 . S
N496 C492 1.427 . S
N496 C493 1.384 . S
N497 C489 1.427 . S
N497 C495 1.384 . S
H498 C504 0.930 . S
H499 C508 0.930 . S
H500 C513 0.929 . S
H501 C511 0.929 . S
H502 C506 0.929 . S
H503 C512 0.929 . S
C504 H498 0.930 . S
C504 C505 1.367 . S
C504 C512 1.378 . S
C505 C504 1.367 . S
C505 C513 1.433 . S
C506 H502 0.929 . S
C506 C508 1.378 . S
C506 C510 1.350 . S
C507 C510 1.463 . S
C507 C512 1.350 . S
C507 N515 1.427 . S
C508 H499 0.930 . S
C508 C506 1.378 . S
C508 C509 1.367 . S
C509 C508 1.367 . S
C509 C511 1.433 . S
C510 C506 1.350 . S
C510 C507 1.463 . S
C510 N514 1.427 . S
C511 H501 0.929 . S
C511 C509 1.433 . S
C511 N514 1.384 . S
C512 H503 0.929 . S
C512 C504 1.378 . S
C512 C507 1.350 . S
C513 H500 0.929 . S
C513 C505 1.433 . S
C513 N515 1.384 . S
N514 C510 1.427 . S
N514 C511 1.384 . S
N515 C507 1.427 . S
N515 C513 1.384 . S
H516 C522 0.930 . S
H517 C526 0.930 . S
H518 C531 0.929 . S
H519 C529 0.929 . S
H520 C524 0.929 . S
H521 C530 0.929 . S
C522 H516 0.930 . S
C522 C523 1.367 . S
C522 C530 1.378 . S
C523 C522 1.367 . S
C523 C531 1.433 . S
C524 H520 0.929 . S
C524 C526 1.378 . S
C524 C528 1.350 . S
C525 C528 1.463 . S
C525 C530 1.350 . S
C525 N533 1.427 . S
C526 H517 0.930 . S
C526 C524 1.378 . S
C526 C527 1.367 . S
C527 C526 1.367 . S
C527 C529 1.433 . S
C528 C524 1.350 . S
C528 C525 1.463 . S
C528 N532 1.427 . S
C529 H519 0.929 . S
C529 C527 1.433 . S
C529 N532 1.384 . S
C530 H521 0.929 . S
C530 C522 1.378 . S
C530 C525 1.350 . S
C531 H518 0.929 . S
C531 C523 1.433 . S
C531 N533 1.384 . S
N532 C528 1.427 . S
N532 C529 1.384 . S
N533 C525 1.427 . S
N533 C531 1.384 . S
H534 C540 0.930 . S
H535 C544 0.930 . S
H536 C549 0.929 . S
H537 C547 0.929 . S
H538 C542 0.929 . S
H539 C548 0.929 . S
C540 H534 0.930 . S
C540 C541 1.367 . S
C540 C548 1.378 . S
C541 C540 1.367 . S
C541 C549 1.433 . S
C542 H538 0.929 . S
C542 C544 1.378 . S
C542 C546 1.350 . S
C543 C546 1.463 . S
C543 C548 1.350 . S
C543 N551 1.427 . S
C544 H535 0.930 . S
C544 C542 1.378 . S
C544 C545 1.367 . S
C545 C544 1.367 . S
C545 C547 1.433 . S
C546 C542 1.350 . S
C546 C543 1.463 . S
C546 N550 1.427 . S
C547 H537 0.929 . S
C547 C545 1.433 . S
C547 N550 1.384 . S
C548 H539 0.929 . S
C548 C540 1.378 . S
C548 C543 1.350 . S
C549 H536 0.929 . S
C549 C541 1.433 . S
C549 N551 1.384 . S
N550 C546 1.427 . S
N550 C547 1.384 . S
N551 C543 1.427 . S
N551 C549 1.384 . S
H552 C558 0.930 . S
H553 C562 0.930 . S
H554 C567 0.929 . S
H555 C565 0.929 . S
H556 C560 0.929 . S
H557 C566 0.929 . S
C558 H552 0.930 . S
C558 C559 1.367 . S
C558 C566 1.378 . S
C559 C558 1.367 . S
C559 C567 1.433 . S
C560 H556 0.929 . S
C560 C562 1.378 . S
C560 C564 1.350 . S
C561 C564 1.463 . S
C561 C566 1.350 . S
C561 N569 1.427 . S
C562 H553 0.930 . S
C562 C560 1.378 . S
C562 C563 1.367 . S
C563 C562 1.367 . S
C563 C565 1.433 . S
C564 C560 1.350 . S
C564 C561 1.463 . S
C564 N568 1.427 . S
C565 H555 0.929 . S
C565 C563 1.433 . S
C565 N568 1.384 . S
C566 H557 0.929 . S
C566 C558 1.378 . S
C566 C561 1.350 . S
C567 H554 0.929 . S
C567 C559 1.433 . S
C567 N569 1.384 . S
N568 C564 1.427 . S
N568 C565 1.384 . S
N569 C561 1.427 . S
N569 C567 1.384 . S
H570 C576 0.930 . S
H571 C580 0.930 . S
H572 C585 0.929 . S
H573 C583 0.929 . S
H574 C578 0.929 . S
H575 C584 0.929 . S
C576 H570 0.930 . S
C576 C577 1.367 . S
C576 C584 1.378 . S
C577 C576 1.367 . S
C577 C585 1.433 . S
C578 H574 0.929 . S
C578 C580 1.378 . S
C578 C582 1.350 . S
C579 C582 1.463 . S
C579 C584 1.350 . S
C579 N587 1.427 . S
C580 H571 0.930 . S
C580 C578 1.378 . S
C580 C581 1.367 . S
C581 C580 1.367 . S
C581 C583 1.433 . S
C582 C578 1.350 . S
C582 C579 1.463 . S
C582 N586 1.427 . S
C583 H573 0.929 . S
C583 C581 1.433 . S
C583 N586 1.384 . S
C584 H575 0.929 . S
C584 C576 1.378 . S
C584 C579 1.350 . S
C585 H572 0.929 . S
C585 C577 1.433 . S
C585 N587 1.384 . S
N586 C582 1.427 . S
N586 C583 1.384 . S
N587 C579 1.427 . S
N587 C585 1.384 . S
H588 C594 0.930 . S
H589 C598 0.930 . S
H590 C603 0.929 . S
H591 C601 0.929 . S
H592 C596 0.929 . S
H593 C602 0.929 . S
C594 H588 0.930 . S
C594 C595 1.367 . S
C594 C602 1.378 . S
C595 C594 1.367 . S
C595 C603 1.433 . S
C596 H592 0.929 . S
C596 C598 1.378 . S
C596 C600 1.350 . S
C597 C600 1.463 . S
C597 C602 1.350 . S
C597 N605 1.427 . S
C598 H589 0.930 . S
C598 C596 1.378 . S
C598 C599 1.367 . S
C599 C598 1.367 . S
C599 C601 1.433 . S
C600 C596 1.350 . S
C600 C597 1.463 . S
C600 N604 1.427 . S
C601 H591 0.929 . S
C601 C599 1.433 . S
C601 N604 1.384 . S
C602 H593 0.929 . S
C602 C594 1.378 . S
C602 C597 1.350 . S
C603 H590 0.929 . S
C603 C595 1.433 . S
C603 N605 1.384 . S
N604 C600 1.427 . S
N604 C601 1.384 . S
N605 C597 1.427 . S
N605 C603 1.384 . S
H606 C612 0.930 . S
H607 C616 0.930 . S
H608 C621 0.929 . S
H609 C619 0.929 . S
H610 C614 0.929 . S
H611 C620 0.929 . S
C612 H606 0.930 . S
C612 C613 1.367 . S
C612 C620 1.378 . S
C613 C612 1.367 . S
C613 C621 1.433 . S
C614 H610 0.929 . S
C614 C616 1.378 . S
C614 C618 1.350 . S
C615 C618 1.463 1_655 S
C615 C620 1.350 . S
C615 N623 1.427 . S
C616 H607 0.930 . S
C616 C614 1.378 . S
C616 C617 1.367 . S
C617 C616 1.367 . S
C617 C619 1.433 . S
C618 C614 1.350 . S
C618 C615 1.463 1_455 S
C618 N622 1.427 . S
C619 H609 0.929 . S
C619 C617 1.433 . S
C619 N622 1.384 . S
C620 H611 0.929 . S
C620 C612 1.378 . S
C620 C615 1.350 . S
C621 H608 0.929 . S
C621 C613 1.433 . S
C621 N623 1.384 . S
N622 C618 1.427 . S
N622 C619 1.384 . S
N623 C615 1.427 . S
N623 C621 1.384 . S
H624 C630 0.930 . S
H625 C634 0.930 . S
H626 C639 0.929 . S
H627 C637 0.929 . S
H628 C632 0.929 . S
H629 C638 0.929 . S
C630 H624 0.930 . S
C630 C631 1.367 . S
C630 C638 1.378 . S
C631 C630 1.367 . S
C631 C639 1.433 . S
C632 H628 0.929 . S
C632 C634 1.378 . S
C632 C636 1.350 . S
C633 C636 1.463 1_565 S
C633 C638 1.350 . S
C633 N641 1.427 . S
C634 H625 0.930 . S
C634 C632 1.378 . S
C634 C635 1.367 . S
C635 C634 1.367 . S
C635 C637 1.433 . S
C636 C632 1.350 . S
C636 C633 1.463 1_545 S
C636 N640 1.427 . S
C637 H627 0.929 . S
C637 C635 1.433 . S
C637 N640 1.384 . S
C638 H629 0.929 . S
C638 C630 1.378 . S
C638 C633 1.350 . S
C639 H626 0.929 . S
C639 C631 1.433 . S
C639 N641 1.384 . S
N640 C636 1.427 . S
N640 C637 1.384 . S
N641 C633 1.427 . S
N641 C639 1.384 . S
H642 C648 0.930 . S
H643 C652 0.930 . S
H644 C657 0.929 . S
H645 C655 0.929 . S
H646 C650 0.929 . S
H647 C656 0.929 . S
C648 H642 0.930 . S
C648 C649 1.367 . S
C648 C656 1.378 . S
C649 C648 1.367 . S
C649 C657 1.433 . S
C650 H646 0.929 . S
C650 C652 1.378 . S
C650 C654 1.350 . S
C651 C654 1.463 . S
C651 C656 1.350 . S
C651 N659 1.427 . S
C652 H643 0.930 . S
C652 C650 1.378 . S
C652 C653 1.367 . S
C653 C652 1.367 . S
C653 C655 1.433 . S
C654 C650 1.350 . S
C654 C651 1.463 . S
C654 N658 1.427 . S
C655 H645 0.929 . S
C655 C653 1.433 . S
C655 N658 1.384 . S
C656 H647 0.929 . S
C656 C648 1.378 . S
C656 C651 1.350 . S
C657 H644 0.929 . S
C657 C649 1.433 . S
C657 N659 1.384 . S
N658 C654 1.427 . S
N658 C655 1.384 . S
N659 C651 1.427 . S
N659 C657 1.384 . S
H660 C666 0.930 . S
H661 C670 0.930 . S
H662 C675 0.929 . S
H663 C673 0.929 . S
H664 C668 0.929 . S
H665 C674 0.929 . S
C666 H660 0.930 . S
C666 C667 1.367 . S
C666 C674 1.378 . S
C667 C666 1.367 . S
C667 C675 1.433 . S
C668 H664 0.929 . S
C668 C670 1.378 . S
C668 C672 1.350 . S
C669 C672 1.463 1_655 S
C669 C674 1.350 . S
C669 N677 1.427 . S
C670 H661 0.930 . S
C670 C668 1.378 . S
C670 C671 1.367 . S
C671 C670 1.367 . S
C671 C673 1.433 . S
C672 C668 1.350 . S
C672 C669 1.463 1_455 S
C672 N676 1.427 . S
C673 H663 0.929 . S
C673 C671 1.433 . S
C673 N676 1.384 . S
C674 H665 0.929 . S
C674 C666 1.378 . S
C674 C669 1.350 . S
C675 H662 0.929 . S
C675 C667 1.433 . S
C675 N677 1.384 . S
N676 C672 1.427 . S
N676 C673 1.384 . S
N677 C669 1.427 . S
N677 C675 1.384 . S
H678 C684 0.930 . S
H679 C688 0.930 . S
H680 C693 0.929 . S
H681 C691 0.929 . S
H682 C686 0.929 . S
H683 C692 0.929 . S
C684 H678 0.930 . S
C684 C685 1.367 1_554 S
C684 C692 1.378 . S
C685 C684 1.367 1_556 S
C685 C693 1.433 . S
C686 H682 0.929 . S
C686 C688 1.378 . S
C686 C690 1.350 1_556 S
C687 C690 1.463 1_546 S
C687 C692 1.350 1_556 S
C687 N695 1.427 . S
C688 H679 0.930 . S
C688 C686 1.378 . S
C688 C689 1.367 1_556 S
C689 C688 1.367 1_554 S
C689 C691 1.433 . S
C690 C686 1.350 1_554 S
C690 C687 1.463 1_564 S
C690 N694 1.427 . S
C691 H681 0.929 . S
C691 C689 1.433 . S
C691 N694 1.384 . S
C692 H683 0.929 . S
C692 C684 1.378 . S
C692 C687 1.350 1_554 S
C693 H680 0.929 . S
C693 C685 1.433 . S
C693 N695 1.384 . S
N694 C690 1.427 . S
N694 C691 1.384 . S
N695 C687 1.427 . S
N695 C693 1.384 . S
H696 C702 0.930 . S
H697 C706 0.930 . S
H698 C711 0.929 . S
H699 C709 0.929 . S
H700 C704 0.929 . S
H701 C710 0.929 . S
C702 H696 0.930 . S
C702 C703 1.367 . S
C702 C710 1.378 . S
C703 C702 1.367 . S
C703 C711 1.433 . S
C704 H700 0.929 . S
C704 C706 1.378 . S
C704 C708 1.350 . S
C705 C708 1.463 . S
C705 C710 1.350 . S
C705 N713 1.427 . S
C706 H697 0.930 . S
C706 C704 1.378 . S
C706 C707 1.367 . S
C707 C706 1.367 . S
C707 C709 1.433 . S
C708 C704 1.350 . S
C708 C705 1.463 . S
C708 N712 1.427 . S
C709 H699 0.929 . S
C709 C707 1.433 . S
C709 N712 1.384 . S
C710 H701 0.929 . S
C710 C702 1.378 . S
C710 C705 1.350 . S
C711 H698 0.929 . S
C711 C703 1.433 . S
C711 N713 1.384 . S
N712 C708 1.427 . S
N712 C709 1.384 . S
N713 C705 1.427 . S
N713 C711 1.384 . S
H714 C720 0.930 . S
H715 C724 0.930 . S
H716 C729 0.929 . S
H717 C727 0.929 . S
H718 C722 0.929 . S
H719 C728 0.929 . S
C720 H714 0.930 . S
C720 C721 1.367 . S
C720 C728 1.378 . S
C721 C720 1.367 . S
C721 C729 1.433 . S
C722 H718 0.929 . S
C722 C724 1.378 . S
C722 C726 1.350 . S
C723 C726 1.463 . S
C723 C728 1.350 . S
C723 N731 1.427 . S
C724 H715 0.930 . S
C724 C722 1.378 . S
C724 C725 1.367 . S
C725 C724 1.367 . S
C725 C727 1.433 . S
C726 C722 1.350 . S
C726 C723 1.463 . S
C726 N730 1.427 . S
C727 H717 0.929 . S
C727 C725 1.433 . S
C727 N730 1.384 . S
C728 H719 0.929 . S
C728 C720 1.378 . S
C728 C723 1.350 . S
C729 H716 0.929 . S
C729 C721 1.433 . S
C729 N731 1.384 . S
N730 C726 1.427 . S
N730 C727 1.384 . S
N731 C723 1.427 . S
N731 C729 1.384 . S
H732 C738 0.930 . S
H733 C742 0.930 . S
H734 C747 0.929 . S
H735 C745 0.929 . S
H736 C740 0.929 . S
H737 C746 0.929 . S
C738 H732 0.930 . S
C738 C739 1.367 . S
C738 C746 1.378 . S
C739 C738 1.367 . S
C739 C747 1.433 . S
C740 H736 0.929 . S
C740 C742 1.378 . S
C740 C744 1.350 . S
C741 C744 1.463 . S
C741 C746 1.350 . S
C741 N749 1.427 . S
C742 H733 0.930 . S
C742 C740 1.378 . S
C742 C743 1.367 . S
C743 C742 1.367 . S
C743 C745 1.433 . S
C744 C740 1.350 . S
C744 C741 1.463 . S
C744 N748 1.427 . S
C745 H735 0.929 . S
C745 C743 1.433 . S
C745 N748 1.384 . S
C746 H737 0.929 . S
C746 C738 1.378 . S
C746 C741 1.350 . S
C747 H734 0.929 . S
C747 C739 1.433 . S
C747 N749 1.384 . S
N748 C744 1.427 . S
N748 C745 1.384 . S
N749 C741 1.427 . S
N749 C747 1.384 . S
H750 C756 0.930 . S
H751 C760 0.930 . S
H752 C765 0.929 . S
H753 C763 0.929 . S
H754 C758 0.929 . S
H755 C764 0.929 . S
C756 H750 0.930 . S
C756 C757 1.367 . S
C756 C764 1.378 . S
C757 C756 1.367 . S
C757 C765 1.433 . S
C758 H754 0.929 . S
C758 C760 1.378 . S
C758 C762 1.350 . S
C759 C762 1.463 . S
C759 C764 1.350 . S
C759 N767 1.427 . S
C760 H751 0.930 . S
C760 C758 1.378 . S
C760 C761 1.367 . S
C761 C760 1.367 . S
C761 C763 1.433 . S
C762 C758 1.350 . S
C762 C759 1.463 . S
C762 N766 1.427 . S
C763 H753 0.929 . S
C763 C761 1.433 . S
C763 N766 1.384 . S
C764 H755 0.929 . S
C764 C756 1.378 . S
C764 C759 1.350 . S
C765 H752 0.929 . S
C765 C757 1.433 . S
C765 N767 1.384 . S
N766 C762 1.427 . S
N766 C763 1.384 . S
N767 C759 1.427 . S
N767 C765 1.384 . S
H768 C774 0.930 . S
H769 C778 0.930 . S
H770 C783 0.929 . S
H771 C781 0.929 . S
H772 C776 0.929 . S
H773 C782 0.929 . S
C774 H768 0.930 . S
C774 C775 1.367 . S
C774 C782 1.378 . S
C775 C774 1.367 . S
C775 C783 1.433 . S
C776 H772 0.929 . S
C776 C778 1.378 . S
C776 C780 1.350 . S
C777 C780 1.463 . S
C777 C782 1.350 . S
C777 N785 1.427 . S
C778 H769 0.930 . S
C778 C776 1.378 . S
C778 C779 1.367 . S
C779 C778 1.367 . S
C779 C781 1.433 . S
C780 C776 1.350 . S
C780 C777 1.463 . S
C780 N784 1.427 . S
C781 H771 0.929 . S
C781 C779 1.433 . S
C781 N784 1.384 . S
C782 H773 0.929 . S
C782 C774 1.378 . S
C782 C777 1.350 . S
C783 H770 0.929 . S
C783 C775 1.433 . S
C783 N785 1.384 . S
N784 C780 1.427 . S
N784 C781 1.384 . S
N785 C777 1.427 . S
N785 C783 1.384 . S
H786 C792 0.930 . S
H787 C796 0.930 . S
H788 C801 0.929 . S
H789 C799 0.929 . S
H790 C794 0.929 . S
H791 C800 0.929 . S
C792 H786 0.930 . S
C792 C793 1.367 . S
C792 C800 1.378 . S
C793 C792 1.367 . S
C793 C801 1.433 . S
C794 H790 0.929 . S
C794 C796 1.378 . S
C794 C798 1.350 . S
C795 C798 1.463 . S
C795 C800 1.350 . S
C795 N803 1.427 . S
C796 H787 0.930 . S
C796 C794 1.378 . S
C796 C797 1.367 . S
C797 C796 1.367 . S
C797 C799 1.433 . S
C798 C794 1.350 . S
C798 C795 1.463 . S
C798 N802 1.427 . S
C799 H789 0.929 . S
C799 C797 1.433 . S
C799 N802 1.384 . S
C800 H791 0.929 . S
C800 C792 1.378 . S
C800 C795 1.350 . S
C801 H788 0.929 . S
C801 C793 1.433 . S
C801 N803 1.384 . S
N802 C798 1.427 . S
N802 C799 1.384 . S
N803 C795 1.427 . S
N803 C801 1.384 . S
C487 C15 1.961 . S
C491 C415 1.964 . S
C505 C455 1.961 . S
C509 C55 1.964 . S
C523 C255 1.963 . S
C527 C95 1.962 . S
C541 C135 1.965 . S
C545 C295 1.960 . S
C559 C335 1.962 . S
C563 C175 1.963 . S
C577 C215 1.963 . S
C581 C375 1.962 . S
C595 C21 1.902 . S
C599 C381 1.903 . S
C613 C61 1.903 . S
C617 C421 1.903 . S
C631 C101 1.900 . S
C635 C461 1.900 . S
C649 C261 1.900 . S
C653 C141 1.900 . S
C667 C301 1.903 . S
C671 C181 1.903 . S
C685 C221 1.903 . S
C689 C341 1.903 . S
C703 C2 2.084 . S
C707 C242 2.083 . S
C721 C282 2.091 . S
C725 C42 2.091 . S
C739 C82 2.086 . S
C743 C322 2.087 . S
C757 C122 2.091 . S
C761 C362 2.091 . S
C775 C162 2.085 . S
C779 C402 2.086 . S
C793 C442 2.084 . S
C797 C202 2.083 . S
