# Generated by pormake.
# Topology snz, (6)-cn, num edge types: 1
# Building blocks:
#     Node 0, Type 0, BuildingBlock: VOLQOD_clean_sbu_1, # of connection points: 6
#     Node 1, Type 0, BuildingBlock: VOLQOD_clean_sbu_1, # of connection points: 6
#     Node 2, Type 0, BuildingBlock: VOLQOD_clean_sbu_1, # of connection points: 6
#     Node 3, Type 0, BuildingBlock: VOLQOD_clean_sbu_1, # of connection points: 6
#     Node 4, Type 0, BuildingBlock: VOLQOD_clean_sbu_1, # of connection points: 6
#     Node 5, Type 0, BuildingBlock: VOLQOD_clean_sbu_1, # of connection points: 6
#     Node 6, Type 0, BuildingBlock: VOLQOD_clean_sbu_1, # of connection points: 6
#     Node 7, Type 0, BuildingBlock: VOLQOD_clean_sbu_1, # of connection points: 6
#     Node 8, Type 0, BuildingBlock: VOLQOD_clean_sbu_1, # of connection points: 6
#     Edge 9, Type (0, 0), BuildingBlock: MIFKUJ_clean_linker_0, # of connection points: 2
#     Edge 10, Type (0, 0), BuildingBlock: MIFKUJ_clean_linker_0, # of connection points: 2
#     Edge 11, Type (0, 0), BuildingBlock: MIFKUJ_clean_linker_0, # of connection points: 2
#     Edge 12, Type (0, 0), BuildingBlock: MIFKUJ_clean_linker_0, # of connection points: 2
#     Edge 13, Type (0, 0), BuildingBlock: MIFKUJ_clean_linker_0, # of connection points: 2
#     Edge 14, Type (0, 0), BuildingBlock: MIFKUJ_clean_linker_0, # of connection points: 2
#     Edge 15, Type (0, 0), BuildingBlock: MIFKUJ_clean_linker_0, # of connection points: 2
#     Edge 16, Type (0, 0), BuildingBlock: MIFKUJ_clean_linker_0, # of connection points: 2
#     Edge 17, Type (0, 0), BuildingBlock: MIFKUJ_clean_linker_0, # of connection points: 2
#     Edge 18, Type (0, 0), BuildingBlock: MIFKUJ_clean_linker_0, # of connection points: 2
#     Edge 19, Type (0, 0), BuildingBlock: MIFKUJ_clean_linker_0, # of connection points: 2
#     Edge 20, Type (0, 0), BuildingBlock: MIFKUJ_clean_linker_0, # of connection points: 2
#     Edge 21, Type (0, 0), BuildingBlock: MIFKUJ_clean_linker_0, # of connection points: 2
#     Edge 22, Type (0, 0), BuildingBlock: MIFKUJ_clean_linker_0, # of connection points: 2
#     Edge 23, Type (0, 0), BuildingBlock: MIFKUJ_clean_linker_0, # of connection points: 2
#     Edge 24, Type (0, 0), BuildingBlock: MIFKUJ_clean_linker_0, # of connection points: 2
#     Edge 25, Type (0, 0), BuildingBlock: MIFKUJ_clean_linker_0, # of connection points: 2
#     Edge 26, Type (0, 0), BuildingBlock: MIFKUJ_clean_linker_0, # of connection points: 2
#     Edge 27, Type (0, 0), BuildingBlock: MIFKUJ_clean_linker_0, # of connection points: 2
#     Edge 28, Type (0, 0), BuildingBlock: MIFKUJ_clean_linker_0, # of connection points: 2
#     Edge 29, Type (0, 0), BuildingBlock: MIFKUJ_clean_linker_0, # of connection points: 2
#     Edge 30, Type (0, 0), BuildingBlock: MIFKUJ_clean_linker_0, # of connection points: 2
#     Edge 31, Type (0, 0), BuildingBlock: MIFKUJ_clean_linker_0, # of connection points: 2
#     Edge 32, Type (0, 0), BuildingBlock: MIFKUJ_clean_linker_0, # of connection points: 2
#     Edge 33, Type (0, 0), BuildingBlock: MIFKUJ_clean_linker_0, # of connection points: 2
#     Edge 34, Type (0, 0), BuildingBlock: MIFKUJ_clean_linker_0, # of connection points: 2
#     Edge 35, Type (0, 0), BuildingBlock: MIFKUJ_clean_linker_0, # of connection points: 2
# Relax obj value: 0.409
# Max RMSD: 0.302
# Mean RMSD: 0.293
data_MOF--net-snz--node1-VOLQOD_clean_sbu_1--edge1-MIFKUJ_clean_linker_0
_symmetry_space_group_name_H-M    P1
_symmetry_Int_Tables_number       1
_symmetry_cell_setting            triclinic
loop_
_symmetry_equiv_pos_as_xyz
'x, y, z'
_cell_length_a     66.74372
_cell_length_b     66.766049
_cell_length_c     19.597354
_cell_angle_alpha  90.006424
_cell_angle_beta   90.128985
_cell_angle_gamma 120.242
loop_
_atom_site_label
_atom_site_type_symbol
_atom_site_fract_x
_atom_site_fract_y
_atom_site_fract_z
_atom_type_partial_charge
O0 O 0.01598 0.52771 0.11668 0.0
Zn1 Zn 0.00204 0.54374 0.06641 0.0
O2 O 0.96924 0.52946 0.08471 0.0
Zn3 Zn 0.95479 0.52744 -0.0013 0.0
Zn4 Zn 0.95826 0.49897 0.12205 0.0
Zn5 Zn 0.96228 0.54755 0.14715 0.0
O6 O 0.9324 0.53856 0.00615 0.0
O7 O 0.93568 0.55135 0.11255 0.0
O8 O 0.00815 0.54302 0.96616 0.0
O9 O 0.97815 0.54523 0.92678 0.0
O10 O 0.93719 0.49434 0.96628 0.0
O11 O 0.93944 0.4744 0.05372 0.0
O12 O 0.94064 0.49417 0.20821 0.0
O13 O 0.01796 0.57634 0.09987 0.0
O14 O 0.95218 0.53067 0.23621 0.0
O15 O 0.99129 0.57866 0.16217 0.0
C16 C 0.00686 0.5084 0.14779 0.0
C17 C 0.92611 0.54707 0.0539 0.0
C18 C 0.93258 0.47519 -0.00635 0.0
C19 C -0.0024 0.54646 0.91756 0.0
C20 C 0.94253 0.50923 0.25147 0.0
C21 C 0.01191 0.58759 0.13902 0.0
O22 O 0.98497 0.49538 0.1516 0.0
O23 O 0.51079 0.56095 0.12028 0.0
Zn24 Zn 0.49366 0.52741 0.09163 0.0
O25 O 0.49569 0.5084 0.16096 0.0
Zn26 Zn 0.51485 0.49617 0.13475 0.0
Zn27 Zn 0.50885 0.52701 0.24002 0.0
Zn28 Zn 0.46616 0.48124 0.17501 0.0
O29 O 0.50114 0.46272 0.1571 0.0
O30 O 0.46544 0.45374 0.12918 0.0
O31 O 0.50381 0.5207 0.00284 0.0
O32 O 0.51584 0.49649 0.03428 0.0
O33 O 0.54678 0.5151 0.17036 0.0
O34 O 0.54344 0.53837 0.2445 0.0
O35 O 0.49144 0.50763 0.32076 0.0
O36 O 0.46049 0.51887 0.0792 0.0
O37 O 0.4626 0.47514 0.27466 0.0
O38 O 0.44079 0.48645 0.13936 0.0
C39 C 0.51182 0.56894 0.1802 0.0
C40 C 0.48114 0.44825 0.13405 0.0
C41 C 0.55576 0.53171 0.21297 0.0
C42 C 0.51103 0.5068 0.98827 0.0
C43 C 0.47374 0.48732 0.32616 0.0
C44 C 0.44141 0.50228 0.10139 0.0
O45 O 0.50729 0.55614 0.23282 0.0
O46 O 0.45793 0.97775 0.06543 0.0
Zn47 Zn 0.48768 0.99343 0.01129 0.0
O48 O 0.50544 0.02693 0.0303 0.0
Zn49 Zn 0.50681 0.04461 0.95053 0.0
Zn50 Zn 0.49087 0.0348 0.10255 0.0
Zn51 Zn 0.53678 0.03546 0.05719 0.0
O52 O 0.53955 0.06615 0.9216 0.0
O53 O 0.56071 0.06037 -0.00209 0.0
O54 O 0.48002 0.98785 0.91167 0.0
O55 O 0.49105 0.02319 0.87259 0.0
O56 O 0.49217 0.06389 0.9658 0.0
O57 O 0.48143 0.05786 0.07439 0.0
O58 O 0.51131 0.04622 0.18426 0.0
O59 O 0.50638 0.97793 0.03088 0.0
O60 O 0.5427 0.04477 0.15542 0.0
O61 O 0.54133 0.00831 0.04939 0.0
C62 C 0.4506 0.98545 0.11287 0.0
C63 C 0.55913 0.07061 0.94521 0.0
C64 C 0.48304 0.06765 0.01741 0.0
C65 C 0.48192 0.00145 0.86348 0.0
C66 C 0.53095 0.04856 0.19913 0.0
C67 C 0.52801 0.9866 0.04169 0.0
O68 O 0.46188 0.00654 0.1317 0.0
O69 O 0.75487 0.91496 0.31105 0.0
Zn70 Zn 0.73395 0.88138 0.28597 0.0
O71 O 0.70145 0.87207 0.3004 0.0
Zn72 Zn 0.68782 0.85026 0.3745 0.0
Zn73 Zn 0.7001 0.89966 0.32012 0.0
Zn74 Zn 0.68336 0.85738 0.22039 0.0
O75 O 0.65963 0.82001 0.346 0.0
O76 O 0.66224 0.82358 0.23338 0.0
O77 O 0.74297 0.86211 0.34436 0.0
O78 O 0.7113 0.84249 0.40771 0.0
O79 O 0.6814 0.86476 0.45487 0.0
O80 O 0.69502 0.90103 0.42042 0.0
O81 O 0.67462 0.90026 0.26733 0.0
O82 O 0.73991 0.87994 0.1852 0.0
O83 O 0.66284 0.87023 0.19728 0.0
O84 O 0.7042 0.86295 0.1418 0.0
C85 C 0.75101 0.93174 0.30638 0.0
C86 C 0.65298 0.8115 0.28647 0.0
C87 C 0.68687 0.88566 0.46693 0.0
C88 C 0.73194 0.84789 0.39238 0.0
C89 C 0.66127 0.8872 0.22017 0.0
C90 C 0.72602 0.87213 0.13458 0.0
O91 O 0.7305 0.92826 0.30016 0.0
O92 O 0.10968 0.85015 0.47262 0.0
Zn93 Zn 0.14109 0.87359 0.43732 0.0
O94 O 0.1634 0.86316 0.45213 0.0
Zn95 Zn 0.1916 0.88825 0.49111 0.0
Zn96 Zn 0.15033 0.83669 0.51294 0.0
Zn97 Zn 0.17059 0.85394 0.36694 0.0
O98 O 0.21979 0.8961 0.43512 0.0
O99 O 0.20447 0.87266 0.34605 0.0
O100 O 0.15166 0.90464 0.47987 0.0
O101 O 0.18853 0.91627 0.5044 0.0
O102 O 0.19623 0.88077 0.58573 0.0
O103 O 0.16538 0.84615 0.60433 0.0
O104 O 0.15268 0.80994 0.47562 0.0
O105 O 0.13681 0.87695 0.33813 0.0
O106 O 0.16288 0.82099 0.36844 0.0
O107 O 0.15301 0.85813 0.29162 0.0
C108 C 0.10254 0.83143 0.50604 0.0
C109 C 0.22198 0.88839 0.3779 0.0
C110 C 0.18372 0.86404 0.62542 0.0
C111 C 0.17155 0.91986 0.50164 0.0
C112 C 0.15693 0.80595 0.41546 0.0
C113 C 0.14128 0.8683 0.28679 0.0
O114 O 0.11633 0.82457 0.525 0.0
O115 O 0.17097 0.32332 0.24689 0.0
Zn116 Zn 0.15272 0.33954 0.23501 0.0
O117 O 0.17075 0.37226 0.26167 0.0
Zn118 Zn 0.1574 0.37736 0.34192 0.0
Zn119 Zn 0.20227 0.37963 0.28051 0.0
Zn120 Zn 0.17099 0.39285 0.19109 0.0
O121 O 0.14608 0.39938 0.32715 0.0
O122 O 0.15425 0.40956 0.21871 0.0
O123 O 0.12449 0.32173 0.29356 0.0
O124 O 0.1302 0.34786 0.37284 0.0
O125 O 0.18003 0.38919 0.41756 0.0
O126 O 0.21089 0.38867 0.37798 0.0
O127 O 0.22466 0.40518 0.22181 0.0
O128 O 0.14433 0.33718 0.13597 0.0
O129 O 0.2037 0.41715 0.16544 0.0
O130 O 0.15606 0.37378 0.10777 0.0
C131 C 0.19247 0.33105 0.25657 0.0
C132 C 0.14569 0.41066 0.27557 0.0
C133 C 0.20029 0.39233 0.42571 0.0
C134 C 0.11868 0.32743 0.34885 0.0
C135 C 0.22311 0.41899 0.18048 0.0
C136 C 0.14667 0.35236 0.09242 0.0
O137 O 0.2065 0.35251 0.26627 0.0
O138 O 0.40191 0.25307 0.66476 0.0
Zn139 Zn 0.38193 0.22116 0.62588 0.0
O140 O 0.34977 0.21234 0.63648 0.0
Zn141 Zn 0.33553 0.19018 0.70799 0.0
Zn142 Zn 0.34874 0.23982 0.66019 0.0
Zn143 Zn 0.33281 0.19858 0.55417 0.0
O144 O 0.30443 0.16415 0.68134 0.0
O145 O 0.30748 0.1655 0.56843 0.0
O146 O 0.38855 0.19863 0.676 0.0
O147 O 0.35529 0.17664 0.73021 0.0
O148 O 0.33398 0.20534 0.79344 0.0
O149 O 0.34461 0.24118 0.76154 0.0
O150 O 0.32361 0.24113 0.60733 0.0
O151 O 0.38953 0.22254 0.52587 0.0
O152 O 0.31631 0.21516 0.52545 0.0
O153 O 0.35449 0.20198 0.4788 0.0
C154 C 0.39903 0.27052 0.66161 0.0
C155 C 0.29671 0.15535 0.62283 0.0
C156 C 0.33885 0.22589 0.80778 0.0
C157 C 0.37589 0.18177 0.71557 0.0
C158 C 0.31321 0.23068 0.55267 0.0
C159 C 0.37653 0.21314 0.47411 0.0
O160 O 0.37959 0.26821 0.64385 0.0
O161 O 0.78317 0.197 0.59698 0.0
Zn162 Zn 0.81644 0.21804 0.57118 0.0
O163 O 0.83449 0.20314 0.58636 0.0
Zn164 Zn 0.85725 0.21908 0.6569 0.0
Zn165 Zn 0.81372 0.17154 0.61413 0.0
Zn166 Zn 0.85063 0.20368 0.50461 0.0
O167 O 0.88822 0.22295 0.63244 0.0
O168 O 0.885 0.221 0.5194 0.0
O169 O 0.83037 0.24847 0.62064 0.0
O170 O 0.86094 0.25051 0.67303 0.0
O171 O 0.84618 0.20186 0.7443 0.0
O172 O 0.81508 0.16855 0.71514 0.0
O173 O 0.82198 0.14998 0.56739 0.0
O174 O 0.81584 0.2247 0.47246 0.0
O175 O 0.84306 0.17129 0.47951 0.0
O176 O 0.84211 0.2175 0.42726 0.0
C177 C 0.77106 0.17494 0.5988 0.0
C178 C 0.89707 0.22517 0.57352 0.0
C179 C 0.82902 0.1822 0.76011 0.0
C180 C 0.84858 0.25941 0.65711 0.0
C181 C 0.83297 0.15225 0.51223 0.0
C182 C 0.82758 0.22447 0.42189 0.0
O183 O 0.78047 0.16241 0.59691 0.0
O184 O 0.77449 0.60084 0.73116 0.0
Zn185 Zn 0.77375 0.62829 0.69332 0.0
O186 O 0.80373 0.6556 0.70791 0.0
Zn187 Zn 0.80321 0.67354 0.78444 0.0
Zn188 Zn 0.82476 0.64427 0.72414 0.0
Zn189 Zn 0.81382 0.67475 0.62859 0.0
O190 O 0.81127 0.70593 0.75649 0.0
O191 O 0.81255 0.70358 0.64343 0.0
O192 O 0.74916 0.62954 0.74965 0.0
O193 O 0.7709 0.65826 0.82166 0.0
O194 O 0.8228 0.67265 0.86172 0.0
O195 O 0.8317 0.64672 0.82363 0.0
O196 O 0.85483 0.66305 0.67503 0.0
O197 O 0.76745 0.62288 0.59153 0.0
O198 O 0.84707 0.68526 0.60892 0.0
O199 O 0.79485 0.65658 0.54859 0.0
C200 C 0.79015 0.59549 0.72472 0.0
C201 C 0.8131 0.71456 0.69721 0.0
C202 C 0.83107 0.6593 0.87131 0.0
C203 C 0.75129 0.64161 0.80262 0.0
C204 C 0.86109 0.67912 0.63105 0.0
C205 C 0.77757 0.63621 0.54091 0.0
O206 O 0.81027 0.61031 0.70342 0.0
H207 H 0.00982 0.51699 0.86183 0.0
H208 H 0.00208 0.5042 0.7426 0.0
H209 H 0.99094 0.56093 0.6952 0.0
H210 H -0.00188 0.57341 0.81415 0.0
H211 H 0.9507 0.51379 0.69471 0.0
H212 H 0.03004 0.55925 0.61428 0.0
H213 H 0.07146 0.57133 0.60607 0.0
H214 H 0.05347 0.50203 0.55054 0.0
H215 H 0.01189 0.4894 0.55981 0.0
H216 H 0.93576 0.53246 0.35469 0.0
H217 H 0.94205 0.52885 0.47546 0.0
H218 H 0.94751 0.46837 0.43287 0.0
H219 H 0.94098 0.4717 0.31181 0.0
H220 H 0.98754 0.50502 0.48647 0.0
H221 H 0.90811 0.46273 0.54158 0.0
H222 H 0.86697 0.45182 0.54374 0.0
H223 H 0.88485 0.5161 0.64267 0.0
H224 H 0.92617 0.52759 0.64041 0.0
C225 C 0.0071 0.52751 0.82502 0.0
C226 C 0.00424 0.54599 0.84673 0.0
C227 C 0.00257 0.5201 0.75712 0.0
C228 C -0.0044 0.53145 0.71097 0.0
C229 C -0.00381 0.55195 0.7306 0.0
C230 C 0.00041 0.55914 0.79831 0.0
C231 C 0.9825 0.51948 0.6492 0.0
C232 C 0.9587 0.51194 0.64882 0.0
C233 C 0.99283 0.51587 0.59144 0.0
C234 C 0.01783 0.52327 0.58902 0.0
C235 C 0.03489 0.54647 0.60163 0.0
C236 C 0.05841 0.55345 0.59644 0.0
C237 C 0.0651 0.53744 0.57812 0.0
C238 C 0.04827 0.5144 0.56502 0.0
C239 C 0.02473 0.50731 0.57032 0.0
C240 C 0.93734 0.51784 0.37138 0.0
C241 C 0.93829 0.50263 0.32385 0.0
C242 C 0.94085 0.51573 0.44041 0.0
C243 C 0.94545 0.49845 0.46266 0.0
C244 C 0.94401 0.48181 0.41636 0.0
C245 C 0.94017 0.48371 0.3473 0.0
C246 C 0.95604 0.50087 0.53036 0.0
C247 C 0.97931 0.50631 0.53264 0.0
C248 C 0.94527 0.50275 0.58988 0.0
C249 C 0.92036 0.49601 0.59092 0.0
C250 C 0.90335 0.47462 0.56359 0.0
C251 C 0.87996 0.46832 0.56483 0.0
C252 C 0.8733 0.48325 0.59337 0.0
C253 C 0.89003 0.50452 0.6207 0.0
C254 C 0.91345 0.51091 0.61958 0.0
H255 H 0.85517 0.47833 0.5943 0.0
H256 H 0.08331 0.5429 0.57377 0.0
H257 H 0.51271 0.46893 0.94338 0.0
H258 H 0.4987 0.44963 0.83327 0.0
H259 H 0.48957 0.50593 0.76468 0.0
H260 H 0.50338 0.52535 0.87436 0.0
H261 H 0.44896 0.46026 0.75467 0.0
H262 H 0.53361 0.50285 0.70206 0.0
H263 H 0.57318 0.51064 0.72719 0.0
H264 H 0.54987 0.43805 0.70794 0.0
H265 H 0.51016 0.42992 0.68352 0.0
H266 H 0.47239 0.5084 0.44202 0.0
H267 H 0.4678 0.49323 0.55774 0.0
H268 H 0.45733 0.42831 0.47847 0.0
H269 H 0.46107 0.44323 0.36165 0.0
H270 H 0.49721 0.45513 0.57104 0.0
H271 H 0.41654 0.41917 0.57062 0.0
H272 H 0.37776 0.41318 0.54445 0.0
H273 H 0.39249 0.47286 0.66464 0.0
H274 H 0.43149 0.47947 0.69071 0.0
C275 C 0.50829 0.47753 0.90426 0.0
C276 C 0.50885 0.49856 0.91768 0.0
C277 C 0.50011 0.46633 0.84181 0.0
C278 C 0.49263 0.47618 0.79226 0.0
C279 C 0.49485 0.49795 0.80347 0.0
C280 C 0.50297 0.50912 0.86571 0.0
C281 C 0.48198 0.46398 0.72846 0.0
C282 C 0.45926 0.45876 0.71439 0.0
C283 C 0.49509 0.46078 0.67795 0.0
C284 C 0.51898 0.46576 0.69124 0.0
C285 C 0.53697 0.48858 0.70335 0.0
C286 C 0.5594 0.49306 0.71751 0.0
C287 C 0.56404 0.47485 0.7192 0.0
C288 C 0.54626 0.45214 0.7066 0.0
C289 C 0.5238 0.44759 0.69253 0.0
C290 C 0.46843 0.49069 0.44934 0.0
C291 C 0.46717 0.47696 0.39379 0.0
C292 C 0.46565 0.48198 0.51507 0.0
C293 C 0.4621 0.45964 0.52599 0.0
C294 C 0.45979 0.44546 0.47046 0.0
C295 C 0.46194 0.45399 0.40425 0.0
C296 C 0.4649 0.45347 0.5956 0.0
C297 C 0.48623 0.45523 0.61164 0.0
C298 C 0.45047 0.45352 0.64794 0.0
C299 C 0.42699 0.44977 0.63278 0.0
C300 C 0.41157 0.4311 0.59122 0.0
C301 C 0.38953 0.42759 0.57642 0.0
C302 C 0.38266 0.44261 0.60292 0.0
C303 C 0.39782 0.46119 0.6443 0.0
C304 C 0.41989 0.46479 0.65927 0.0
H305 H 0.36558 0.43987 0.59139 0.0
H306 H 0.5814 0.47834 0.73023 0.0
H307 H 0.4644 0.01505 0.76069 0.0
H308 H 0.47097 0.01235 0.63981 0.0
H309 H 0.49879 0.96787 0.68598 0.0
H310 H 0.49182 0.97025 0.80761 0.0
H311 H 0.53056 0.00833 0.6272 0.0
H312 H 0.45573 0.94874 0.57323 0.0
H313 H 0.41306 0.92523 0.57149 0.0
H314 H 0.40926 0.98129 0.47746 0.0
H315 H 0.45187 0.00536 0.47981 0.0
H316 H 0.55497 0.03045 0.26033 0.0
H317 H 0.54836 0.01626 0.3776 0.0
H318 H 0.51233 0.05339 0.41926 0.0
H319 H 0.51855 0.06737 0.30195 0.0
H320 H 0.48455 0.00447 0.42364 0.0
H321 H 0.55957 0.06612 0.51122 0.0
H322 H 0.60236 0.08871 0.51127 0.0
H323 H 0.60483 0.02611 0.53648 0.0
H324 H 0.56204 0.00316 0.53646 0.0
C325 C 0.47084 0.00378 0.74469 0.0
C326 C 0.4778 0.99302 0.79298 0.0
C327 C 0.47455 0.00218 0.67563 0.0
C328 C 0.48551 0.99002 0.65416 0.0
C329 C 0.49027 0.97728 0.70176 0.0
C330 C 0.48615 0.97854 0.77102 0.0
C331 C 0.49609 0.99498 0.5858 0.0
C332 C 0.52046 0.00688 0.5821 0.0
C333 C 0.48291 0.99312 0.52725 0.0
C334 C 0.45712 0.97892 0.52686 0.0
C335 C 0.44583 0.95618 0.55276 0.0
C336 C 0.42162 0.94272 0.55157 0.0
C337 C 0.40846 0.95176 0.52439 0.0
C338 C 0.41948 0.9743 0.49845 0.0
C339 C 0.44368 0.98785 0.49962 0.0
C340 C 0.5467 0.03659 0.2954 0.0
C341 C 0.53669 0.0495 0.27185 0.0
C342 C 0.54282 0.02832 0.36229 0.0
C343 C 0.52934 0.03333 0.40598 0.0
C344 C 0.52245 0.04909 0.38549 0.0
C345 C 0.52616 0.05719 0.31871 0.0
C346 C 0.51876 0.01921 0.46726 0.0
C347 C 0.4945 0.00539 0.46861 0.0
C348 C 0.53199 0.01916 0.52325 0.0
C349 C 0.55766 0.03293 0.52322 0.0
C350 C 0.56926 0.05717 0.51617 0.0
C351 C 0.5935 0.07004 0.51631 0.0
C352 C 0.60631 0.05885 0.52354 0.0
C353 C 0.59489 0.03475 0.53059 0.0
C354 C 0.57065 0.02181 0.53074 0.0
H355 H 0.62507 0.06885 0.52408 0.0
H356 H 0.38973 0.94129 0.52336 0.0
H357 H 0.71587 0.92848 0.51942 0.0
H358 H 0.72885 0.93677 0.63821 0.0
H359 H 0.67615 0.86779 0.69545 0.0
H360 H 0.66324 0.85914 0.57674 0.0
H361 H 0.69133 0.90956 0.79851 0.0
H362 H 0.71827 0.86874 0.64236 0.0
H363 H 0.73732 0.86855 0.53524 0.0
H364 H 0.79864 0.93156 0.59428 0.0
H365 H 0.77952 0.93265 0.70078 0.0
H366 H 0.71029 0.8438 0.02474 0.0
H367 H 0.7137 0.85685 0.90675 0.0
H368 H 0.76302 0.92669 0.96888 0.0
H369 H 0.76011 0.91356 0.08729 0.0
H370 H 0.75833 0.89644 0.80717 0.0
H371 H 0.73224 0.94435 0.9413 0.0
H372 H 0.71582 0.94929 0.04854 0.0
H373 H 0.65965 0.87895 0.03485 0.0
H374 H 0.67577 0.87371 0.92714 0.0
C375 C 0.70641 0.91539 0.5577 0.0
C376 C 0.68883 0.893 0.53875 0.0
C377 C 0.71397 0.92015 0.62535 0.0
C378 C 0.70378 0.90272 0.67466 0.0
C379 C 0.68425 0.8814 0.65764 0.0
C380 C 0.67693 0.87647 0.58985 0.0
C381 C 0.71583 0.90477 0.73956 0.0
C382 C 0.70622 0.90713 0.80027 0.0
C383 C 0.73565 0.90219 0.7418 0.0
C384 C 0.7473 0.901 0.6789 0.0
C385 C 0.73569 0.8827 0.63216 0.0
C386 C 0.74654 0.88239 0.57161 0.0
C387 C 0.76921 0.89996 0.55792 0.0
C388 C 0.78107 0.91794 0.60486 0.0
C389 C 0.77021 0.91845 0.66525 0.0
C390 C 0.72284 0.86166 0.01259 0.0
C391 C 0.73494 0.87769 0.06468 0.0
C392 C 0.72477 0.86911 0.94532 0.0
C393 C 0.73852 0.8927 0.92963 0.0
C394 C 0.75253 0.90837 0.98026 0.0
C395 C 0.75092 0.90083 0.04767 0.0
C396 C 0.73364 0.90097 0.86563 0.0
C397 C 0.74418 0.90002 0.80512 0.0
C398 C 0.7153 0.90574 0.86329 0.0
C399 C 0.70509 0.90871 0.92651 0.0
C400 C 0.71634 0.93 0.9612 0.0
C401 C 0.70714 0.93284 0.02197 0.0
C402 C 0.68673 0.91445 0.04842 0.0
C403 C 0.67546 0.89317 0.01422 0.0
C404 C 0.68457 0.89028 0.95319 0.0
H405 H 0.67967 0.91681 0.09523 0.0
H406 H 0.77758 0.89963 0.51103 0.0
H407 H 0.2081 0.9057 0.69002 0.0
H408 H 0.19938 0.91387 0.80348 0.0
H409 H 0.15698 0.84049 0.84209 0.0
H410 H 0.16496 0.83212 0.72746 0.0
H411 H 0.13243 0.86222 0.85145 0.0
H412 H 0.20725 0.87584 0.93213 0.0
H413 H 0.24992 0.89479 0.9321 0.0
H414 H 0.25541 0.96118 0.95961 0.0
H415 H 0.21273 0.94263 0.95903 0.0
H416 H 0.12157 0.83618 0.1881 0.0
H417 H 0.12328 0.84418 0.06675 0.0
H418 H 0.14987 0.91673 0.10989 0.0
H419 H 0.14775 0.90851 0.23256 0.0
H420 H 0.18103 0.9082 0.04704 0.0
H421 H 0.10465 0.89055 -0.00168 0.0
H422 H 0.06201 0.86933 0.00724 0.0
H423 H 0.05912 0.80807 0.92712 0.0
H424 H 0.10171 0.82883 0.91804 0.0
C425 C 0.19769 0.89123 0.72352 0.0
C426 C 0.18668 0.86824 0.69934 0.0
C427 C 0.19264 0.89599 0.78836 0.0
C428 C 0.17709 0.87778 0.83018 0.0
C429 C 0.16865 0.85476 0.80962 0.0
C430 C 0.17341 0.84999 0.74449 0.0
C431 C 0.16723 0.88247 0.89106 0.0
C432 C 0.143 0.87218 0.89453 0.0
C433 C 0.18117 0.89674 0.94494 0.0
C434 C 0.20682 0.90789 0.94456 0.0
C435 C 0.21756 0.89451 0.93744 0.0
C436 C 0.24174 0.90517 0.93773 0.0
C437 C 0.25537 0.92919 0.94559 0.0
C438 C 0.24483 0.94259 0.95335 0.0
C439 C 0.22065 0.93201 0.95308 0.0
C440 C 0.12667 0.85361 0.17162 0.0
C441 C 0.13484 0.87182 0.21866 0.0
C442 C 0.12746 0.85819 0.10234 0.0
C443 C 0.1368 0.8811 0.07946 0.0
C444 C 0.1425 0.89895 0.12683 0.0
C445 C 0.1413 0.89426 0.19658 0.0
C446 C 0.14612 0.88639 0.00972 0.0
C447 C 0.17038 0.89886 0.00336 0.0
C448 C 0.1322 0.87386 0.95352 0.0
C449 C 0.10645 0.86133 0.95735 0.0
C450 C 0.09493 0.87254 0.98268 0.0
C451 C 0.07075 0.86059 0.98774 0.0
C452 C 0.05786 0.83737 0.96777 0.0
C453 C 0.06912 0.82607 0.94247 0.0
C454 C 0.09329 0.83797 0.937 0.0
H455 H 0.03915 0.82813 0.97179 0.0
H456 H 0.27409 0.9374 0.94589 0.0
H457 H 0.22048 0.37019 0.48273 0.0
H458 H 0.21744 0.36017 0.60409 0.0
H459 H 0.1941 0.40852 0.64679 0.0
H460 H 0.19691 0.41828 0.52606 0.0
H461 H 0.21804 0.40347 0.75457 0.0
H462 H 0.15189 0.35549 0.60191 0.0
H463 H 0.13485 0.33119 0.49955 0.0
H464 H 0.16034 0.28661 0.56406 0.0
H465 H 0.17743 0.31068 0.66724 0.0
H466 H 0.13536 0.37274 0.99131 0.0
H467 H 0.14644 0.37416 0.87208 0.0
H468 H 0.16402 0.32125 0.91056 0.0
H469 H 0.15231 0.31922 0.02956 0.0
H470 H 0.14919 0.32415 0.76796 0.0
H471 H 0.20466 0.37217 0.94616 0.0
H472 H 0.21478 0.39838 0.04481 0.0
H473 H 0.20569 0.44672 0.92298 0.0
H474 H 0.19511 0.42054 0.82384 0.0
C475 C 0.21603 0.37959 0.51882 0.0
C476 C 0.20864 0.39472 0.49576 0.0
C477 C 0.21405 0.37368 0.5877 0.0
C478 C 0.20501 0.38321 0.63343 0.0
C479 C 0.20098 0.4009 0.61184 0.0
C480 C 0.20266 0.40655 0.54306 0.0
C481 C 0.19554 0.37216 0.6995 0.0
C482 C 0.20331 0.38598 0.75793 0.0
C483 C 0.17619 0.34939 0.70325 0.0
C484 C 0.16603 0.3349 0.6417 0.0
C485 C 0.15388 0.34052 0.59405 0.0
C486 C 0.14419 0.32679 0.536 0.0
C487 C 0.14654 0.30738 0.52514 0.0
C488 C 0.15852 0.30164 0.57253 0.0
C489 C 0.16817 0.31528 0.63088 0.0
C490 C 0.14043 0.36057 0.97352 0.0
C491 C 0.14355 0.3463 0.01967 0.0
C492 C 0.1468 0.36142 0.90557 0.0
C493 C 0.15673 0.34835 0.88378 0.0
C494 C 0.15658 0.3316 0.92704 0.0
C495 C 0.14983 0.33045 -0.00505 0.0
C496 C 0.17143 0.35574 0.82257 0.0
C497 C 0.1646 0.34121 0.76542 0.0
C498 C 0.19136 0.37814 0.81936 0.0
C499 C 0.19898 0.39436 0.8779 0.0
C500 C 0.20483 0.38839 0.94051 0.0
C501 C 0.21063 0.40325 -0.00349 0.0
C502 C 0.2108 0.4242 0.99019 0.0
C503 C 0.20549 0.43047 0.92774 0.0
C504 C 0.19962 0.41565 0.87166 0.0
H505 H 0.21486 0.43556 0.03357 0.0
H506 H 0.13903 0.29679 0.48008 0.0
H507 H 0.36259 0.18491 0.36349 0.0
H508 H 0.37019 0.19749 0.24485 0.0
H509 H 0.41893 0.26721 0.31017 0.0
H510 H 0.41179 0.25447 0.42948 0.0
H511 H 0.38093 0.2632 0.23952 0.0
H512 H 0.43872 0.24426 0.20212 0.0
H513 H 0.45946 0.22244 0.20508 0.0
H514 H 0.40497 0.16755 0.08837 0.0
H515 H 0.38362 0.18876 0.08579 0.0
H516 H 0.36766 0.26922 0.86005 0.0
H517 H 0.38429 0.27741 0.97543 0.0
H518 H 0.33733 0.20647 0.03271 0.0
H519 H 0.32051 0.19816 0.91851 0.0
H520 H 0.38954 0.22504 0.03375 0.0
H521 H 0.3281 0.24045 0.10432 0.0
H522 H 0.30762 0.26253 0.10083 0.0
H523 H 0.37058 0.32477 0.15486 0.0
H524 H 0.39147 0.30309 0.15807 0.0
C525 C 0.37572 0.20266 0.35238 0.0
C526 C 0.38653 0.21874 0.40527 0.0
C527 C 0.38011 0.20985 0.28463 0.0
C528 C 0.39507 0.23331 0.26889 0.0
C529 C 0.40743 0.24903 0.32145 0.0
C530 C 0.40341 0.24169 0.38941 0.0
C531 C 0.39374 0.24156 0.20006 0.0
C532 C 0.38353 0.25548 0.19414 0.0
C533 C 0.39709 0.23144 0.14112 0.0
C534 C 0.40951 0.21817 0.1439 0.0
C535 C 0.43101 0.22743 0.17767 0.0
C536 C 0.44291 0.21517 0.17917 0.0
C537 C 0.43354 0.19362 0.14693 0.0
C538 C 0.41221 0.18425 0.11328 0.0
C539 C 0.40022 0.19642 0.11171 0.0
C540 C 0.36018 0.25564 0.89811 0.0
C541 C 0.34298 0.23293 0.88011 0.0
C542 C 0.36986 0.26033 0.9637 0.0
C543 C 0.36225 0.2424 0.01158 0.0
C544 C 0.34351 0.22042 -0.00419 0.0
C545 C 0.33385 0.21574 0.93072 0.0
C546 C 0.37538 0.24517 0.07476 0.0
C547 C 0.38783 0.23343 0.07898 0.0
C548 C 0.37405 0.25722 0.13203 0.0
C549 C 0.36148 0.27024 0.12986 0.0
C550 C 0.33766 0.25891 0.11444 0.0
C551 C 0.32594 0.27133 0.11287 0.0
C552 C 0.33782 0.29507 0.12717 0.0
C553 C 0.36142 0.3064 0.14344 0.0
C554 C 0.37321 0.29405 0.14513 0.0
H555 H 0.32871 0.30465 0.12597 0.0
H556 H 0.44282 0.1842 0.14794 0.0
H557 H 0.78472 0.21195 0.37416 0.0
H558 H 0.77335 0.20553 0.2539 0.0
H559 H 0.84537 0.2394 0.19562 0.0
H560 H 0.85681 0.24511 0.31564 0.0
H561 H 0.81188 0.24106 0.09423 0.0
H562 H 0.82858 0.18924 0.23694 0.0
H563 H 0.82173 0.16741 0.34401 0.0
H564 H 0.74863 0.1292 0.30129 0.0
H565 H 0.75509 0.15147 0.19477 0.0
H566 H 0.85769 0.20018 0.8694 0.0
H567 H 0.84573 0.20399 0.98377 0.0
H568 H 0.77402 0.15906 0.92862 0.0
H569 H 0.78581 0.15501 0.81357 0.0
H570 H 0.79277 0.1589 0.08032 0.0
H571 H 0.7805 0.20465 0.91359 0.0
H572 H 0.7905 0.22842 0.80892 0.0
H573 H 0.85603 0.27789 0.89662 0.0
H574 H 0.84643 0.25442 0.00174 0.0
C575 C 0.79813 0.21903 0.33556 0.0
C576 C 0.82159 0.22855 0.35348 0.0
C577 C 0.79159 0.21543 0.26703 0.0
C578 C 0.80855 0.22177 0.21654 0.0
C579 C 0.83211 0.23448 0.23424 0.0
C580 C 0.83862 0.23755 0.30264 0.0
C581 C 0.80247 0.20985 0.15037 0.0
C582 C 0.80709 0.22297 0.09084 0.0
C583 C 0.79613 0.18619 0.14641 0.0
C584 C 0.79227 0.17208 0.20847 0.0
C585 C 0.81105 0.17622 0.25058 0.0
C586 C 0.80724 0.16381 0.31117 0.0
C587 C 0.78475 0.14686 0.32946 0.0
C588 C 0.76604 0.14233 0.28709 0.0
C589 C 0.76975 0.15489 0.2267 0.0
C590 C 0.83945 0.19036 0.88233 0.0
C591 C 0.82266 0.17767 0.83246 0.0
C592 C 0.83265 0.19258 0.94751 0.0
C593 C 0.80904 0.18217 0.96342 0.0
C594 C 0.79231 0.16723 0.91661 0.0
C595 C 0.79912 0.1649 0.85115 0.0
C596 C 0.80242 0.1902 0.02436 0.0
C597 C 0.79596 0.1765 0.08306 0.0
C598 C 0.80691 0.21327 0.02746 0.0
C599 C 0.81273 0.22778 0.96529 0.0
C600 C 0.79705 0.22057 0.91033 0.0
C601 C 0.80263 0.23395 0.85109 0.0
C602 C 0.82384 0.25457 0.84627 0.0
C603 C 0.83961 0.26185 0.90049 0.0
C604 C 0.83404 0.2486 0.96009 0.0
H605 H 0.82784 0.26505 0.80088 0.0
H606 H 0.78184 0.13724 0.37641 0.0
H607 H 0.77981 0.59903 0.49802 0.0
H608 H 0.78862 0.59306 0.38091 0.0
H609 H 0.77591 0.64686 0.31056 0.0
H610 H 0.76829 0.65369 0.42803 0.0
H611 H 0.76243 0.60294 0.21661 0.0
H612 H 0.82443 0.66687 0.35832 0.0
H613 H 0.85001 0.68065 0.45925 0.0
H614 H 0.87444 0.63373 0.41321 0.0
H615 H 0.84855 0.61928 0.31287 0.0
H616 H 0.84207 0.68764 0.98239 0.0
H617 H 0.83579 0.67487 0.10122 0.0
H618 H 0.82092 0.60686 0.0383 0.0
H619 H 0.82791 0.61959 0.91977 0.0
H620 H 0.84837 0.64851 0.19974 0.0
H621 H 0.76392 0.5718 0.11326 0.0
H622 H 0.73974 0.55636 0.00965 0.0
H623 H 0.76197 0.62565 0.94244 0.0
H624 H 0.78589 0.6414 0.04576 0.0
C625 C 0.77777 0.60875 0.45701 0.0
C626 C 0.77324 0.62671 0.47151 0.0
C627 C 0.78295 0.60542 0.39036 0.0
C628 C 0.78302 0.61963 0.33761 0.0
C629 C 0.77581 0.63568 0.35084 0.0
C630 C 0.77135 0.63951 0.4177 0.0
C631 C 0.79461 0.62108 0.27233 0.0
C632 C 0.7812 0.61243 0.21295 0.0
C633 C 0.81911 0.63325 0.26782 0.0
C634 C 0.83423 0.64169 0.32895 0.0
C635 C 0.83495 0.65922 0.3704 0.0
C636 C 0.84959 0.66721 0.42736 0.0
C637 C 0.8638 0.65801 0.44278 0.0
C638 C 0.86337 0.64077 0.40135 0.0
C639 C 0.84869 0.63265 0.34454 0.0
C640 C 0.83852 0.6703 -0.0058 0.0
C641 C 0.83508 0.65453 0.94187 0.0
C642 C 0.83504 0.66305 0.06205 0.0
C643 C 0.8276 0.63986 0.07796 0.0
C644 C 0.82672 0.62482 0.02675 0.0
C645 C 0.83069 0.63218 0.95901 0.0
C646 C 0.81622 0.6307 0.14408 0.0
C647 C 0.82963 0.63813 0.20357 0.0
C648 C 0.79177 0.61694 0.14864 0.0
C649 C 0.77686 0.60776 0.08705 0.0
C650 C 0.76352 0.58371 0.0765 0.0
C651 C 0.74985 0.5749 0.01778 0.0
C652 C 0.74931 0.59 0.96943 0.0
C653 C 0.76239 0.61394 0.97977 0.0
C654 C 0.77606 0.62281 0.03834 0.0
H655 H 0.73875 0.58316 0.92399 0.0
H656 H 0.87523 0.66427 0.48658 0.0
H657 H 0.11507 0.40701 0.3732 0.0
H658 H 0.09299 0.42711 0.37701 0.0
H659 H 0.1282 0.46561 0.19655 0.0
H660 H 0.15016 0.44529 0.1914 0.0
H661 H 0.11951 0.49121 0.31431 0.0
H662 H 0.08236 0.42234 0.1636 0.0
H663 H 0.06613 0.38049 0.14336 0.0
H664 H 0.01867 0.36476 0.30959 0.0
H665 H 0.0349 0.40656 0.33137 0.0
H666 H 0.05308 0.5257 0.12696 0.0
H667 H 0.07749 0.51206 0.17707 0.0
H668 H 0.01948 0.46159 0.29563 0.0
H669 H 0.99472 0.47469 0.24397 0.0
H670 H 0.03828 0.44142 0.23543 0.0
H671 H 0.0675 0.50739 0.37488 0.0
H672 H 0.0827 0.54817 0.40776 0.0
H673 H 0.14297 0.56888 0.28374 0.0
H674 H 0.12803 0.52822 0.24952 0.0
C675 C 0.1184 0.42001 0.33488 0.0
C676 C 0.13415 0.42443 0.28148 0.0
C677 C 0.10585 0.4315 0.3374 0.0
C678 C 0.10911 0.44777 0.28718 0.0
C679 C 0.12567 0.45317 0.23595 0.0
C680 C 0.138 0.44142 0.23273 0.0
C681 C 0.09329 0.457 0.2829 0.0
C682 C 0.10176 0.48049 0.29688 0.0
C683 C 0.06992 0.44258 0.26338 0.0
C684 C 0.06001 0.41752 0.2496 0.0
C685 C 0.0686 0.40994 0.19617 0.0
C686 C 0.05938 0.38624 0.18436 0.0
C687 C 0.04143 0.36997 0.22531 0.0
C688 C 0.03261 0.37738 0.278 0.0
C689 C 0.0418 0.40106 0.29008 0.0
C690 C 0.04557 0.51184 0.16419 0.0
C691 C 0.02194 0.50106 0.18094 0.0
C692 C 0.05961 0.50423 0.1934 0.0
C693 C 0.05037 0.486 0.24078 0.0
C694 C 0.02695 0.4757 0.25922 0.0
C695 C 0.01282 0.48312 0.22941 0.0
C696 C 0.06456 0.47607 0.26464 0.0
C697 C 0.05582 0.45229 0.25434 0.0
C698 C 0.08747 0.49017 0.28937 0.0
C699 C 0.09655 0.51473 0.30924 0.0
C700 C 0.08391 0.52065 0.35414 0.0
C701 C 0.0925 0.54375 0.37314 0.0
C702 C 0.11376 0.56111 0.34771 0.0
C703 C 0.1265 0.5554 0.30337 0.0
C704 C 0.118 0.53232 0.28428 0.0
H705 H 0.12039 0.57899 0.36246 0.0
H706 H 0.03431 0.35163 0.21609 0.0
H707 H 0.51715 0.59206 0.30009 0.0
H708 H 0.5361 0.63386 0.31688 0.0
H709 H 0.54464 0.64427 0.09923 0.0
H710 H 0.52596 0.60242 0.08181 0.0
H711 H 0.58482 0.66881 0.16604 0.0
H712 H 0.50808 0.65646 0.18644 0.0
H713 H 0.46811 0.63827 0.23034 0.0
H714 H 0.49419 0.66162 0.43279 0.0
H715 H 0.53435 0.67966 0.3903 0.0
H716 H 0.63354 0.78905 0.16724 0.0
H717 H 0.60511 0.74823 0.15108 0.0
H718 H 0.60186 0.73749 0.36869 0.0
H719 H 0.63044 0.77864 0.38582 0.0
H720 H 0.55796 0.71351 0.30205 0.0
H721 H 0.63431 0.72365 0.28258 0.0
H722 H 0.67433 0.74156 0.23925 0.0
H723 H 0.64851 0.72166 0.03488 0.0
H724 H 0.60831 0.70393 0.07691 0.0
C725 C 0.5227 0.60318 0.25563 0.0
C726 C 0.52028 0.59391 0.18962 0.0
C727 C 0.53341 0.62708 0.26534 0.0
C728 C 0.54171 0.64213 0.20928 0.0
C729 C 0.53835 0.6329 0.14314 0.0
C730 C 0.52766 0.60899 0.13334 0.0
C731 C 0.55607 0.66742 0.22013 0.0
C732 C 0.57876 0.67865 0.19465 0.0
C733 C 0.54838 0.68003 0.2595 0.0
C734 C 0.52425 0.66924 0.28524 0.0
C735 C 0.50531 0.65755 0.24043 0.0
C736 C 0.48261 0.6473 0.26504 0.0
C737 C 0.47862 0.64874 0.33433 0.0
C738 C 0.49732 0.6605 0.37914 0.0
C739 C 0.52005 0.67076 0.3548 0.0
C740 C 0.62674 0.77813 0.21191 0.0
C741 C 0.6345 0.78706 0.27786 0.0
C742 C 0.61044 0.7548 0.20248 0.0
C743 C 0.60165 0.73989 0.25863 0.0
C744 C 0.60853 0.74882 0.32478 0.0
C745 C 0.62491 0.77227 0.33437 0.0
C746 C 0.5865 0.71475 0.24735 0.0
C747 C 0.56383 0.70359 0.27304 0.0
C748 C 0.59414 0.70209 0.20823 0.0
C749 C 0.61831 0.71268 0.18282 0.0
C750 C 0.63717 0.72327 0.22833 0.0
C751 C 0.65989 0.73336 0.20402 0.0
C752 C 0.66396 0.7328 0.13433 0.0
C753 C 0.64533 0.72211 0.08883 0.0
C754 C 0.62257 0.71203 0.11287 0.0
H755 H 0.68156 0.74061 0.11561 0.0
H756 H 0.46103 0.6408 0.35329 0.0
H757 H 0.4138 0.94627 0.05938 0.0
H758 H 0.37428 0.92512 0.1052 0.0
H759 H 0.39665 0.96957 0.28246 0.0
H760 H 0.43598 0.99074 0.23719 0.0
H761 H 0.36539 0.92382 0.31402 0.0
H762 H 0.37418 0.98268 0.15448 0.0
H763 H 0.38338 0.00273 0.04349 0.0
H764 H 0.33031 0.94077 0.94702 0.0
H765 H 0.32109 0.92022 0.05734 0.0
H766 H 0.26379 0.92018 0.43342 0.0
H767 H 0.30239 0.9327 0.38815 0.0
H768 H 0.27176 0.88822 0.21315 0.0
H769 H 0.2331 0.87581 0.25735 0.0
H770 H 0.30629 0.93024 0.1767 0.0
H771 H 0.29501 0.87259 0.34156 0.0
H772 H 0.28586 0.85371 0.45431 0.0
H773 H 0.34351 0.91419 0.54278 0.0
H774 H 0.35281 0.93361 0.43074 0.0
C775 C 0.41036 0.95119 0.10873 0.0
C776 C 0.42784 0.9703 0.14438 0.0
C777 C 0.38781 0.93918 0.13464 0.0
C778 C 0.3826 0.94605 0.19667 0.0
C779 C 0.40037 0.9641 0.2344 0.0
C780 C 0.42277 0.97623 0.20828 0.0
C781 C 0.3584 0.93586 0.21999 0.0
C782 C 0.35244 0.92525 0.28424 0.0
C783 C 0.34155 0.93752 0.18042 0.0
C784 C 0.34719 0.94981 0.11397 0.0
C785 C 0.36466 0.97325 0.10946 0.0
C786 C 0.36985 0.98472 0.0467 0.0
C787 C 0.3575 0.973 0.98818 0.0
C788 C 0.33991 0.9498 0.99235 0.0
C789 C 0.33471 0.93823 0.05497 0.0
C790 C 0.26524 0.91313 0.38523 0.0
C791 C 0.24536 0.89694 0.34919 0.0
C792 C 0.2873 0.92017 0.35962 0.0
C793 C 0.28988 0.91106 0.2979 0.0
C794 C 0.27011 0.89533 0.26107 0.0
C795 C 0.24805 0.88829 0.28655 0.0
C796 C 0.31322 0.91826 0.27107 0.0
C797 C 0.31907 0.92842 0.20617 0.0
C798 C 0.32998 0.91628 0.31027 0.0
C799 C 0.32445 0.90464 0.37779 0.0
C800 C 0.30561 0.88195 0.38515 0.0
C801 C 0.30043 0.87114 0.44894 0.0
C802 C 0.31406 0.88277 0.50571 0.0
C803 C 0.33295 0.90522 0.49877 0.0
C804 C 0.33819 0.91613 0.43512 0.0
H805 H 0.31002 0.87436 0.55504 0.0
H806 H 0.36151 0.98192 0.93965 0.0
H807 H 0.49911 0.10587 0.93802 0.0
H808 H 0.47902 0.12686 0.90883 0.0
H809 H 0.42313 0.08295 0.04447 0.0
H810 H 0.44358 0.06226 0.07564 0.0
H811 H 0.41135 0.08382 0.90054 0.0
H812 H 0.44752 0.13418 0.08802 0.0
H813 H 0.47911 0.16006 0.16592 0.0
H814 H 0.5143 0.20696 0.0007 0.0
H815 H 0.48305 0.18122 0.92154 0.0
H816 H 0.3532 0.1441 0.79866 0.0
H817 H 0.36987 0.12518 0.86489 0.0
H818 H 0.43704 0.17098 0.77737 0.0
H819 H 0.42059 0.19042 0.71155 0.0
H820 H 0.43917 0.16802 0.91533 0.0
H821 H 0.40484 0.11483 0.72592 0.0
H822 H 0.37311 0.08877 0.6486 0.0
H823 H 0.33423 0.04683 0.81889 0.0
H824 H 0.36565 0.07281 0.89739 0.0
C825 C 0.48282 0.1011 0.96288 0.0
C826 C 0.47279 0.08247 0.00881 0.0
C827 C 0.47144 0.11312 0.94645 0.0
C828 C 0.44968 0.10641 0.97471 0.0
C829 C 0.44001 0.08841 0.02267 0.0
C830 C 0.45169 0.0767 0.04045 0.0
C831 C 0.43607 0.11633 0.94674 0.0
C832 C 0.41702 0.10212 0.90501 0.0
C833 C 0.44393 0.14026 0.95169 0.0
C834 C 0.46302 0.15564 -0.00131 0.0
C835 C 0.46212 0.14988 0.0681 0.0
C836 C 0.47993 0.16457 0.11254 0.0
C837 C 0.49872 0.18511 0.08824 0.0
C838 C 0.49973 0.19103 0.01944 0.0
C839 C 0.48196 0.17641 0.97477 0.0
C840 C 0.3715 0.15009 0.79294 0.0
C841 C 0.38561 0.16884 0.74987 0.0
C842 C 0.38097 0.1392 0.83082 0.0
C843 C 0.40464 0.14667 0.82587 0.0
C844 C 0.41871 0.16505 0.78198 0.0
C845 C 0.40926 0.17602 0.74408 0.0
C846 C 0.41488 0.13564 0.86748 0.0
C847 C 0.43326 0.14965 0.91167 0.0
C848 C 0.40641 0.1115 0.86475 0.0
C849 C 0.3875 0.0959 0.81759 0.0
C850 C 0.38945 0.10016 0.74695 0.0
C851 C 0.37155 0.08536 0.70289 0.0
C852 C 0.35169 0.06614 0.72881 0.0
C853 C 0.34966 0.0617 0.79888 0.0
C854 C 0.36751 0.07644 0.84317 0.0
H855 H 0.33784 0.05473 0.69463 0.0
H856 H 0.51248 0.19647 0.12275 0.0
H857 H 0.87893 0.28337 0.75993 0.0
H858 H 0.88798 0.32087 0.8074 0.0
H859 H 0.84294 0.32608 0.65947 0.0
H860 H 0.8331 0.28812 0.6127 0.0
H861 H 0.8947 0.36797 0.68653 0.0
H862 H 0.81951 0.3171 0.78345 0.0
H863 H 0.78923 0.28261 0.84315 0.0
H864 H 0.83345 0.29935 0.01873 0.0
H865 H 0.86419 0.33372 0.95956 0.0
H866 H 0.91184 0.4688 0.86816 0.0
H867 H 0.89275 0.43297 0.80107 0.0
H868 H 0.90658 0.39721 0.96142 0.0
H869 H 0.92498 0.43251 0.02919 0.0
H870 H 0.86432 0.37118 0.91464 0.0
H871 H 0.94061 0.41941 0.81697 0.0
H872 H 0.97153 0.45451 0.7612 0.0
H873 H 0.92709 0.44281 0.58905 0.0
H874 H 0.89559 0.40801 0.64469 0.0
C875 C 0.87105 0.29252 0.73708 0.0
C876 C 0.85522 0.28274 0.68276 0.0
C877 C 0.87617 0.31386 0.76444 0.0
C878 C 0.86599 0.326 0.73694 0.0
C879 C 0.85083 0.31679 0.68129 0.0
C880 C 0.84525 0.29515 0.65483 0.0
C881 C 0.87126 0.34826 0.76749 0.0
C882 C 0.88774 0.36884 0.73572 0.0
C883 C 0.86234 0.34908 0.832 0.0
C884 C 0.84426 0.32788 0.86672 0.0
C885 C 0.82292 0.31326 0.83439 0.0
C886 C 0.8056 0.29382 0.86834 0.0
C887 C 0.80937 0.28887 0.93483 0.0
C888 C 0.83051 0.30329 0.96738 0.0
C889 C 0.8479 0.32272 0.9336 0.0
C890 C 0.91063 0.45323 0.88929 0.0
C891 C 0.91998 0.45351 0.95396 0.0
C892 C 0.8998 0.43283 0.85078 0.0
C893 C 0.89847 0.41252 0.87602 0.0
C894 C 0.90736 0.41268 0.94106 0.0
C895 C 0.91795 0.43293 0.97971 0.0
C896 C 0.88838 0.39102 0.83491 0.0
C897 C 0.87099 0.3705 0.86477 0.0
C898 C 0.89667 0.3903 0.76898 0.0
C899 C 0.91561 0.41126 0.73549 0.0
C900 C 0.93731 0.42446 0.76759 0.0
C901 C 0.95493 0.44432 0.73602 0.0
C902 C 0.9512 0.45097 0.67183 0.0
C903 C 0.92985 0.43775 0.63903 0.0
C904 C 0.9121 0.41797 0.6706 0.0
H905 H 0.9649 0.46626 0.64733 0.0
H906 H 0.79597 0.27377 0.96093 0.0
H907 H 0.74184 0.6677 0.89033 0.0
H908 H 0.7118 0.6534 0.97854 0.0
H909 H 0.68888 0.58303 0.91586 0.0
H910 H 0.71747 0.59734 0.82504 0.0
H911 H 0.65396 0.58547 0.93467 0.0
H912 H 0.72238 0.61085 0.08877 0.0
H913 H 0.75976 0.63907 0.14232 0.0
H914 H 0.73443 0.68574 0.17817 0.0
H915 H 0.69661 0.65749 0.12777 0.0
H916 H 0.587 0.51764 0.19278 0.0
H917 H 0.62545 0.54174 0.14385 0.0
H918 H 0.62021 0.60273 0.17771 0.0
H919 H 0.58169 0.5787 0.22751 0.0
H920 H 0.66861 0.60927 0.17792 0.0
H921 H 0.5977 0.57816 0.04234 0.0
H922 H 0.55976 0.54683 0.0016 0.0
H923 H 0.59163 0.50883 0.92893 0.0
H924 H 0.62971 0.53976 0.97042 0.0
C925 C 0.73001 0.64921 0.89483 0.0
C926 C 0.73163 0.63363 0.85005 0.0
C927 C 0.71317 0.64101 0.94619 0.0
C928 C 0.69826 0.61706 0.95512 0.0
C929 C 0.7 0.6016 0.91008 0.0
C930 C 0.71623 0.60979 0.8576 0.0
C931 C 0.6798 0.60773 0.00807 0.0
C932 C 0.65745 0.59057 0.98791 0.0
C933 C 0.68378 0.61485 0.07742 0.0
C934 C 0.70688 0.63228 0.10366 0.0
C935 C 0.7249 0.62724 0.10746 0.0
C936 C 0.74609 0.64316 0.13747 0.0
C937 C 0.74958 0.66427 0.16251 0.0
C938 C 0.73177 0.66944 0.1584 0.0
C939 C 0.7104 0.65343 0.12967 0.0
C940 C 0.59451 0.5363 0.19303 0.0
C941 C 0.58123 0.54628 0.21268 0.0
C942 C 0.61646 0.55004 0.16496 0.0
C943 C 0.6253 0.57386 0.15575 0.0
C944 C 0.61357 0.58433 0.18425 0.0
C945 C 0.59158 0.57056 0.21292 0.0
C946 C 0.64359 0.58636 0.10436 0.0
C947 C 0.6655 0.60425 0.12457 0.0
C948 C 0.63942 0.57972 0.03495 0.0
C949 C 0.61649 0.56116 0.01007 0.0
C950 C 0.59657 0.56302 0.0183 0.0
C951 C 0.57505 0.54534 -0.00502 0.0
C952 C 0.5733 0.52583 0.96283 0.0
C953 C 0.59303 0.52394 0.95394 0.0
C954 C 0.61457 0.54153 0.97733 0.0
H955 H 0.55671 0.51218 0.94454 0.0
H956 H 0.76601 0.67653 0.18561 0.0
H957 H 0.81326 0.5725 0.69896 0.0
H958 H 0.81919 0.54855 0.78033 0.0
H959 H 0.76778 0.54858 0.91361 0.0
H960 H 0.7617 0.57258 0.83167 0.0
H961 H 0.80874 0.56859 0.97306 0.0
H962 H 0.76323 0.49596 0.87371 0.0
H963 H 0.74443 0.46637 0.78383 0.0
H964 H 0.81086 0.47822 0.71824 0.0
H965 H 0.83013 0.50813 0.80688 0.0
H966 H 0.89381 0.54458 0.14573 0.0
H967 H 0.85621 0.54118 0.11731 0.0
H968 H 0.87546 0.55186 0.90473 0.0
H969 H 0.91248 0.5551 0.9323 0.0
H970 H 0.83315 0.51083 0.93088 0.0
H971 H 0.87508 0.59446 -0.00074 0.0
H972 H 0.89314 0.626 0.08427 0.0
H973 H 0.83156 0.59239 0.20674 0.0
H974 H 0.81324 0.56064 0.12257 0.0
C975 C 0.80244 0.5665 0.74403 0.0
C976 C 0.78735 0.5747 0.75952 0.0
C977 C 0.80569 0.55263 0.79054 0.0
C978 C 0.79396 0.54681 0.85337 0.0
C979 C 0.77693 0.5528 0.86542 0.0
C980 C 0.77346 0.56648 0.81836 0.0
C981 C 0.80377 0.53985 0.91022 0.0
C982 C 0.81337 0.55533 0.96538 0.0
C983 C 0.80953 0.52238 0.90108 0.0
C984 C 0.79813 0.50427 0.84747 0.0
C985 C 0.77386 0.49234 0.84001 0.0
C986 C 0.76311 0.47549 0.78922 0.0
C987 C 0.77643 0.47039 0.74544 0.0
C988 C 0.80055 0.48213 0.75236 0.0
C989 C 0.81139 0.49899 0.80308 0.0
C990 C 0.89013 0.54674 0.09325 0.0
C991 C 0.90589 0.54984 0.04101 0.0
C992 C 0.86866 0.54463 0.07714 0.0
C993 C 0.86296 0.54578 0.00882 0.0
C994 C 0.87938 0.55047 0.95763 0.0
C995 C 0.90058 0.55244 0.97348 0.0
C996 C 0.83976 0.54116 0.98777 0.0
C997 C 0.82751 0.52324 0.94041 0.0
C998 C 0.83157 0.55637 0.00395 0.0
C999 C 0.843 0.575 0.05545 0.0
C1000 C 0.86555 0.59367 0.04481 0.0
C1001 C 0.87578 0.61163 0.09267 0.0
C1002 C 0.86357 0.61114 0.15111 0.0
C1003 C 0.84108 0.5927 0.16174 0.0
C1004 C 0.83077 0.57472 0.11401 0.0
H1005 H 0.8715 0.62509 0.18799 0.0
H1006 H 0.76808 0.45735 0.70612 0.0
H1007 H 0.44065 0.40805 0.10656 0.0
H1008 H 0.43557 0.37751 0.02658 0.0
H1009 H 0.50947 0.41241 -0.00493 0.0
H1010 H 0.51483 0.44243 0.07639 0.0
H1011 H 0.47607 0.40413 0.87466 0.0
H1012 H 0.49484 0.36914 0.05737 0.0
H1013 H 0.49222 0.35169 0.17005 0.0
H1014 H 0.42329 0.29688 0.1237 0.0
H1015 H 0.42491 0.31463 0.01217 0.0
H1016 H 0.44125 0.28147 0.71578 0.0
H1017 H 0.46524 0.31423 0.79093 0.0
H1018 H 0.41969 0.34154 0.75573 0.0
H1019 H 0.3962 0.30954 0.67934 0.0
H1020 H 0.44902 0.32065 0.90748 0.0
H1021 H 0.44294 0.39508 0.78287 0.0
H1022 H 0.44108 0.40758 0.66602 0.0
H1023 H 0.48478 0.38192 0.59508 0.0
H1024 H 0.48636 0.36862 0.71143 0.0
C1025 C 0.45584 0.40876 0.08426 0.0
C1026 C 0.4781 0.42754 0.09785 0.0
C1027 C 0.45292 0.39137 0.03874 0.0
C1028 C 0.47219 0.39281 0.00542 0.0
C1029 C 0.49448 0.41098 0.02098 0.0
C1030 C 0.49746 0.42802 0.06768 0.0
C1031 C 0.4687 0.37719 0.9479 0.0
C1032 C 0.47046 0.38592 0.88167 0.0
C1033 C 0.4615 0.35355 0.9576 0.0
C1034 C 0.45991 0.34351 0.02648 0.0
C1035 C 0.47887 0.35372 0.07175 0.0
C1036 C 0.47756 0.34373 0.13551 0.0
C1037 C 0.45749 0.32331 0.15431 0.0
C1038 C 0.43867 0.31286 0.10945 0.0
C1039 C 0.43976 0.32294 0.04603 0.0
C1040 C 0.4368 0.29488 0.72221 0.0
C1041 C 0.41664 0.29275 0.69215 0.0
C1042 C 0.45048 0.31352 0.76542 0.0
C1043 C 0.44428 0.33032 0.77888 0.0
C1044 C 0.4251 0.32905 0.74517 0.0
C1045 C 0.41157 0.31059 0.70163 0.0
C1046 C 0.45574 0.34741 0.83441 0.0
C1047 C 0.45528 0.33898 0.90036 0.0
C1048 C 0.46401 0.37129 0.82468 0.0
C1049 C 0.46482 0.38092 0.75588 0.0
C1050 C 0.45241 0.39238 0.74256 0.0
C1051 C 0.45129 0.39947 0.6763 0.0
C1052 C 0.46297 0.39575 0.6232 0.0
C1053 C 0.47572 0.38479 0.63623 0.0
C1054 C 0.47665 0.37736 0.70226 0.0
H1055 H 0.46209 0.40132 0.57197 0.0
H1056 H 0.45658 0.31548 0.20343 0.0
H1057 H 0.74352 0.194 0.58113 0.0
H1058 H 0.70338 0.17786 0.61839 0.0
H1059 H 0.70178 0.11518 0.68189 0.0
H1060 H 0.74157 0.13086 0.64281 0.0
H1061 H 0.66021 0.10481 0.6389 0.0
H1062 H 0.71704 0.15946 0.7945 0.0
H1063 H 0.75044 0.1968 0.82939 0.0
H1064 H 0.71327 0.23161 0.7762 0.0
H1065 H 0.67959 0.19431 0.74023 0.0
H1066 H 0.6008 0.0726 0.9516 0.0
H1067 H 0.63374 0.09366 0.87511 0.0
H1068 H 0.59844 0.12462 0.77468 0.0
H1069 H 0.56494 0.1031 0.85008 0.0
H1070 H 0.65423 0.15332 0.82093 0.0
H1071 H 0.59287 0.09059 0.68672 0.0
H1072 H 0.56132 0.04985 0.68104 0.0
H1073 H 0.61026 0.02708 0.7155 0.0
H1074 H 0.64201 0.06774 0.72382 0.0
C1075 C 0.73445 0.17658 0.60171 0.0
C1076 C 0.74582 0.16385 0.61018 0.0
C1077 C 0.71152 0.16739 0.62293 0.0
C1078 C 0.69979 0.14553 0.65424 0.0
C1079 C 0.71052 0.1321 0.65796 0.0
C1080 C 0.73333 0.14114 0.63588 0.0
C1081 C 0.67768 0.13784 0.69072 0.0
C1082 C 0.65883 0.11554 0.67801 0.0
C1083 C 0.67588 0.15175 0.7423 0.0
C1084 C 0.69597 0.1742 0.76382 0.0
C1085 C 0.71606 0.17511 0.78977 0.0
C1086 C 0.73504 0.19627 0.80984 0.0
C1087 C 0.73407 0.21664 0.8048 0.0
C1088 C 0.71403 0.21584 0.77989 0.0
C1089 C 0.69498 0.19468 0.75968 0.0
C1090 C 0.60015 0.08419 0.91414 0.0
C1091 C 0.58024 0.08609 0.90643 0.0
C1092 C 0.61894 0.09614 0.8705 0.0
C1093 C 0.61825 0.11041 0.81932 0.0
C1094 C 0.59909 0.11356 0.81401 0.0
C1095 C 0.58004 0.10125 0.8569 0.0
C1096 C 0.637 0.12053 0.76875 0.0
C1097 C 0.65531 0.1431 0.77955 0.0
C1098 C 0.63853 0.10663 0.71698 0.0
C1099 C 0.61978 0.08223 0.70673 0.0
C1100 C 0.59688 0.07691 0.69378 0.0
C1101 C 0.57894 0.05383 0.69035 0.0
C1102 C 0.58375 0.03589 0.69859 0.0
C1103 C 0.60654 0.041 0.70957 0.0
C1104 C 0.62452 0.06407 0.71366 0.0
H1105 H 0.56985 0.01802 0.69573 0.0
H1106 H 0.74882 0.23302 0.82038 0.0
H1107 H 0.50645 0.93944 0.0212 0.0
H1108 H 0.5241 0.91496 0.02907 0.0
H1109 H 0.58998 0.97516 0.07901 0.0
H1110 H 0.57282 -0.00042 0.07025 0.0
H1111 H 0.59566 0.94823 0.98984 0.0
H1112 H 0.55313 0.93809 0.20244 0.0
H1113 H 0.51771 0.9265 0.26955 0.0
H1114 H 0.48674 0.85753 0.18774 0.0
H1115 H 0.52192 0.86882 0.11954 0.0
H1116 H 0.6602 0.92733 0.22923 0.0
H1117 H 0.63246 0.93614 0.17585 0.0
H1118 H 0.5953 0.86726 0.09054 0.0
H1119 H 0.62336 0.85831 0.14271 0.0
H1120 H 0.56897 0.88825 0.17082 0.0
H1121 H 0.616 0.89782 0.97512 0.0
H1122 H 0.6528 0.91054 0.91433 0.0
H1123 H 0.67645 0.98114 0.97084 0.0
H1124 H 0.6397 0.96885 0.0316 0.0
C1125 C 0.52472 0.94743 0.03361 0.0
C1126 C 0.5382 0.97145 0.04544 0.0
C1127 C 0.53475 0.93343 0.038 0.0
C1128 C 0.55833 0.94327 0.05473 0.0
C1129 C 0.5718 0.96724 0.06548 0.0
C1130 C 0.56188 0.98117 0.06089 0.0
C1131 C 0.56919 0.92889 0.0647 0.0
C1132 C 0.58968 0.93493 0.0289 0.0
C1133 C 0.56106 0.91111 0.11434 0.0
C1134 C 0.53997 0.90437 0.15525 0.0
C1135 C 0.53868 0.92051 0.19838 0.0
C1136 C 0.51867 0.91399 0.23668 0.0
C1137 C 0.49995 0.89132 0.23271 0.0
C1138 C 0.50123 0.8751 0.19061 0.0
C1139 C 0.52119 0.88155 0.15214 0.0
C1140 C 0.64609 0.91399 0.19944 0.0
C1141 C 0.64393 0.89213 0.19022 0.0
C1142 C 0.63036 0.91908 0.16878 0.0
C1143 C 0.61203 0.90233 0.12929 0.0
C1144 C 0.60945 0.88034 0.12085 0.0
C1145 C 0.62546 0.87532 0.15061 0.0
C1146 C 0.59571 0.9083 0.09779 0.0
C1147 C 0.57435 0.9008 0.12973 0.0
C1148 C 0.60306 0.92482 0.04493 0.0
C1149 C 0.62513 0.9324 0.00808 0.0
C1150 C 0.62909 0.91605 0.97481 0.0
C1151 C 0.64991 0.92318 0.9402 0.0
C1152 C 0.66699 0.94662 0.93895 0.0
C1153 C 0.6632 0.96299 0.97185 0.0
C1154 C 0.64233 0.95596 0.00607 0.0
H1155 H 0.68314 0.95208 0.91243 0.0
H1156 H 0.48448 0.8863 0.26241 0.0
H1157 H 0.12742 0.76555 0.47969 0.0
H1158 H 0.11093 0.7268 0.43207 0.0
H1159 H 0.15808 0.75418 0.26165 0.0
H1160 H 0.17396 0.7933 0.30783 0.0
H1161 H 0.11717 0.7321 0.21575 0.0
H1162 H 0.15723 0.71246 0.37519 0.0
H1163 H 0.17312 0.70971 0.48617 0.0
H1164 H 0.10415 0.66779 0.56448 0.0
H1165 H 0.08781 0.67057 0.45434 0.0
H1166 H 0.05444 0.61557 0.08251 0.0
H1167 H 0.08588 0.65198 0.1286 0.0
H1168 H 0.04205 0.64792 0.29571 0.0
H1169 H 0.01042 0.61156 0.24992 0.0
H1170 H 0.08783 0.65674 0.33366 0.0
H1171 H 0.04999 0.68353 0.17412 0.0
H1172 H 0.03581 0.68645 0.06032 0.0
H1173 H 0.10454 0.71486 0.9791 0.0
H1174 H 0.11905 0.7118 0.09232 0.0
C1175 C 0.13481 0.76324 0.43325 0.0
C1176 C 0.15169 0.78243 0.39685 0.0
C1177 C 0.12544 0.741 0.40615 0.0
C1178 C 0.13323 0.73752 0.34309 0.0
C1179 C 0.15169 0.75647 0.31009 0.0
C1180 C 0.16076 0.77879 0.33654 0.0
C1181 C 0.1195 0.71514 0.30685 0.0
C1182 C 0.11134 0.71562 0.24103 0.0
C1183 C 0.1116 0.69359 0.33982 0.0
C1184 C 0.12129 0.69183 0.40641 0.0
C1185 C 0.14543 0.70279 0.41619 0.0
C1186 C 0.15453 0.70121 0.47897 0.0
C1187 C 0.13966 0.68861 0.53236 0.0
C1188 C 0.11565 0.67754 0.52306 0.0
C1189 C 0.10646 0.67908 0.46039 0.0
C1190 C 0.05141 0.62253 0.12876 0.0
C1191 C 0.02995 0.61073 0.16264 0.0
C1192 C 0.06939 0.64327 0.15498 0.0
C1193 C 0.06623 0.65241 0.21562 0.0
C1194 C 0.04477 0.64093 0.24901 0.0
C1195 C 0.02668 0.62032 0.22245 0.0
C1196 C 0.08524 0.67408 0.24442 0.0
C1197 C 0.09428 0.67332 0.3084 0.0
C1198 C 0.0943 0.69535 0.20941 0.0
C1199 C 0.08553 0.69715 0.14143 0.0
C1200 C 0.06202 0.69018 0.13184 0.0
C1201 C 0.05394 0.69191 0.06748 0.0
C1202 C 0.06925 0.70076 0.01245 0.0
C1203 C 0.09269 0.70796 0.02172 0.0
C1204 C 0.10085 0.70624 0.08597 0.0
H1205 H 0.06296 0.7021 0.96268 0.0
H1206 H 0.14673 0.6874 0.58092 0.0
H1207 H 0.4338 0.52579 -0.0007 0.0
H1208 H 0.39767 0.52582 0.97481 0.0
H1209 H 0.36429 0.47853 0.14178 0.0
H1210 H 0.39988 0.47804 0.16589 0.0
H1211 H 0.34905 0.48195 0.95305 0.0
H1212 H 0.3426 0.50685 0.23437 0.0
H1213 H 0.36874 0.5342 0.32153 0.0
H1214 H 0.41427 0.57856 0.16468 0.0
H1215 H 0.38821 0.55168 0.07643 0.0
H1216 H 0.25724 0.41217 0.13677 0.0
H1217 H 0.29325 0.43977 0.08184 0.0
H1218 H 0.27309 0.49187 0.08868 0.0
H1219 H 0.2364 0.46378 0.14453 0.0
H1220 H 0.31684 0.50658 0.14201 0.0
H1221 H 0.28044 0.47713 0.93449 0.0
H1222 H 0.25301 0.4475 0.85434 0.0
H1223 H 0.29183 0.41226 0.86311 0.0
H1224 H 0.3193 0.44139 0.94416 0.0
C1225 C 0.41871 0.51536 0.03062 0.0
C1226 C 0.41965 0.5019 0.08461 0.0
C1227 C 0.39817 0.51541 0.01644 0.0
C1228 C 0.37856 0.50239 0.05699 0.0
C1229 C 0.37942 0.48885 0.11038 0.0
C1230 C 0.39972 0.4885 0.12389 0.0
C1231 C 0.35666 0.50218 0.04491 0.0
C1232 C 0.34198 0.48784 -0.00708 0.0
C1233 C 0.34792 0.51078 0.09553 0.0
C1234 C 0.36339 0.52723 0.14866 0.0
C1235 C 0.35805 0.52255 0.21834 0.0
C1236 C 0.3729 0.53794 0.268 0.0
C1237 C 0.39315 0.5581 0.24866 0.0
C1238 C 0.39859 0.56292 0.1796 0.0
C1239 C 0.3838 0.5476 0.12975 0.0
C1240 C 0.26037 0.42945 0.12622 0.0
C1241 C 0.24423 0.43598 0.14504 0.0
C1242 C 0.28078 0.44511 0.09388 0.0
C1243 C 0.28558 0.4677 0.07983 0.0
C1244 C 0.26945 0.47437 0.09816 0.0
C1245 C 0.24869 0.45845 0.13017 0.0
C1246 C 0.30888 0.48446 0.05416 0.0
C1247 C 0.32394 0.50187 0.09929 0.0
C1248 C 0.31794 0.47885 -0.00325 0.0
C1249 C 0.30214 0.46168 0.94525 0.0
C1250 C 0.28319 0.4631 0.91931 0.0
C1251 C 0.26757 0.44633 0.87383 0.0
C1252 C 0.27067 0.42802 0.85363 0.0
C1253 C 0.28949 0.42651 0.87863 0.0
C1254 C 0.30517 0.44322 0.92419 0.0
H1255 H 0.25849 0.41499 0.81867 0.0
H1256 H 0.40464 0.56998 0.28719 0.0
H1257 H 0.79399 0.73312 0.78079 0.0
H1258 H 0.78632 0.76426 0.7508 0.0
H1259 H 0.82566 0.77698 0.56557 0.0
H1260 H 0.83309 0.74571 0.59454 0.0
H1261 H 0.82629 0.81851 0.6311 0.0
H1262 H 0.77469 0.73841 0.5479 0.0
H1263 H 0.75023 0.69648 0.57007 0.0
H1264 H 0.70901 0.70992 0.71027 0.0
H1265 H 0.73351 0.75198 0.68961 0.0
H1266 H 0.7742 0.85117 0.37137 0.0
H1267 H 0.79265 0.83485 0.44254 0.0
H1268 H 0.73462 0.80758 0.58111 0.0
H1269 H 0.71573 0.82279 0.50921 0.0
H1270 H 0.74399 0.77601 0.55604 0.0
H1271 H 0.78888 0.85475 0.62273 0.0
H1272 H 0.8131 0.89705 0.6082 0.0
H1273 H 0.86591 0.88832 0.51181 0.0
H1274 H 0.8419 0.84591 0.52501 0.0
C1275 C 0.80172 0.74314 0.73501 0.0
C1276 C 0.81372 0.73678 0.68923 0.0
C1277 C 0.79741 0.76095 0.71812 0.0
C1278 C 0.80531 0.7727 0.65581 0.0
C1279 C 0.81953 0.76813 0.61397 0.0
C1280 C 0.82354 0.75013 0.63025 0.0
C1281 C 0.79466 0.78553 0.62689 0.0
C1282 C 0.80831 0.80939 0.61465 0.0
C1283 C 0.77111 0.77355 0.6069 0.0
C1284 C 0.75603 0.74828 0.61778 0.0
C1285 C 0.76049 0.7324 0.58372 0.0
C1286 C 0.74662 0.70863 0.59599 0.0
C1287 C 0.72811 0.70054 0.64169 0.0
C1288 C 0.72337 0.71621 0.67498 0.0
C1289 C 0.73723 0.74001 0.66301 0.0
C1290 C 0.76539 0.84166 0.41694 0.0
C1291 C 0.74344 0.83816 0.43428 0.0
C1292 C 0.77606 0.83257 0.458 0.0
C1293 C 0.76514 0.82024 0.5177 0.0
C1294 C 0.74337 0.81699 0.53531 0.0
C1295 C 0.73256 0.82567 0.49387 0.0
C1296 C 0.77555 0.80929 0.55943 0.0
C1297 C 0.76184 0.78554 0.57359 0.0
C1298 C 0.79889 0.82158 0.58217 0.0
C1299 C 0.81349 0.8471 0.57439 0.0
C1300 C 0.80559 0.86182 0.59798 0.0
C1301 C 0.81928 0.88583 0.59004 0.0
C1302 C 0.84099 0.89536 0.55891 0.0
C1303 C 0.84908 0.8809 0.53586 0.0
C1304 C 0.83545 0.85687 0.54366 0.0
H1305 H 0.85157 0.91395 0.55279 0.0
H1306 H 0.71741 0.68214 0.65119 0.0
H1307 H 0.27213 0.12692 0.72842 0.0
H1308 H 0.24124 0.0865 0.72113 0.0
H1309 H 0.2426 0.09092 0.50155 0.0
H1310 H 0.27361 0.13144 0.50797 0.0
H1311 H 0.19607 0.06106 0.56593 0.0
H1312 H 0.27629 0.07591 0.56373 0.0
H1313 H 0.31542 0.09404 0.61481 0.0
H1314 H 0.28655 0.0574 0.80194 0.0
H1315 H 0.24718 0.03934 0.75225 0.0
H1316 H 0.16788 0.95228 0.42846 0.0
H1317 H 0.18047 0.992 0.46439 0.0
H1318 H 0.19483 0.97641 0.66659 0.0
H1319 H 0.1839 0.93728 0.62864 0.0
H1320 H 0.22971 0.01207 0.62846 0.0
H1321 H 0.15051 0.99081 0.62804 0.0
H1322 H 0.11037 0.97389 0.58591 0.0
H1323 H 0.13411 0.02146 0.41762 0.0
H1324 H 0.17445 0.03848 0.45812 0.0
C1325 C 0.26557 0.1195 0.67851 0.0
C1326 C 0.27568 0.13222 0.61864 0.0
C1327 C 0.2478 0.09646 0.6746 0.0
C1328 C 0.23987 0.08585 0.61087 0.0
C1329 C 0.24853 0.09896 0.55116 0.0
C1330 C 0.2664 0.12201 0.55496 0.0
C1331 C 0.22576 0.06044 0.60605 0.0
C1332 C 0.20324 0.05017 0.57935 0.0
C1333 C 0.23507 0.04645 0.62589 0.0
C1334 C 0.25881 0.0565 0.65459 0.0
C1335 C 0.27829 0.0718 0.61586 0.0
C1336 C 0.3005 0.08207 0.64455 0.0
C1337 C 0.30344 0.07698 0.71171 0.0
C1338 C 0.28422 0.06139 0.75003 0.0
C1339 C 0.26196 0.05113 0.72162 0.0
C1340 C 0.17333 0.95736 0.48082 0.0
C1341 C 0.17515 0.9421 0.52593 0.0
C1342 C 0.1803 0.97995 0.50165 0.0
C1343 C 0.18844 0.98724 0.56854 0.0
C1344 C 0.18874 0.97128 0.61471 0.0
C1345 C 0.18249 0.94899 0.59322 0.0
C1346 C 0.19963 0.01211 0.5873 0.0
C1347 C 0.22193 0.02251 0.61632 0.0
C1348 C 0.18982 0.02603 0.57074 0.0
C1349 C 0.16556 0.01583 0.54596 0.0
C1350 C 0.14721 -0.00244 0.58175 0.0
C1351 C 0.12441 0.98797 0.55821 0.0
C1352 C 0.1197 0.99657 0.49907 0.0
C1353 C 0.13778 0.01481 0.46342 0.0
C1354 C 0.16062 0.02447 0.48672 0.0
H1355 H 0.10203 0.98911 0.48093 0.0
H1356 H 0.32061 0.08514 0.73407 0.0
H1357 H 0.92597 0.24806 0.46882 0.0
H1358 H 0.9652 0.25544 0.4517 0.0
H1359 H 0.96225 0.2226 0.64417 0.0
H1360 H 0.92302 0.21609 0.66308 0.0
H1361 H 0.00363 0.25814 0.62854 0.0
H1362 H 0.9573 0.19343 0.49364 0.0
H1363 H 0.92562 0.16819 0.415 0.0
H1364 H 0.95796 0.21793 0.2542 0.0
H1365 H 0.98962 0.24365 0.33198 0.0
H1366 H 0.09741 0.28005 0.34235 0.0
H1367 H 0.0627 0.2519 0.40474 0.0
H1368 H 0.05883 0.30825 0.49966 0.0
H1369 H 0.09366 0.33607 0.44042 0.0
H1370 H 0.02169 0.24337 0.3948 0.0
H1371 H 0.03503 0.29766 0.64782 0.0
H1372 H 0.06738 0.3208 0.72673 0.0
H1373 H 0.10236 0.28533 0.65869 0.0
H1374 H 0.06995 0.26144 0.58072 0.0
C1375 C 0.93372 0.24254 0.50771 0.0
C1376 C 0.92147 0.23136 0.56694 0.0
C1377 C 0.95605 0.24655 0.49766 0.0
C1378 C 0.96633 0.2388 0.54554 0.0
C1379 C 0.9545 0.22842 0.60617 0.0
C1380 C 0.93219 0.2248 0.61697 0.0
C1381 C 0.98959 0.24214 0.53119 0.0
C1382 C 0.00766 0.25464 0.57793 0.0
C1383 C 0.99463 0.23615 0.46677 0.0
C1384 C 0.97592 0.22048 0.41883 0.0
C1385 C 0.95765 0.19902 0.44154 0.0
C1386 C 0.93967 0.18463 0.3971 0.0
C1387 C 0.93978 0.19146 0.32966 0.0
C1388 C 0.95792 0.21264 0.30643 0.0
C1389 C 0.97594 0.22711 0.35065 0.0
C1390 C 0.0892 0.28631 0.37719 0.0
C1391 C 0.09812 0.31021 0.38642 0.0
C1392 C 0.0695 0.27025 0.41302 0.0
C1393 C 0.05841 0.27792 0.45806 0.0
C1394 C 0.06748 0.30182 0.46724 0.0
C1395 C 0.08727 0.31777 0.43254 0.0
C1396 C 0.03584 0.2615 0.48953 0.0
C1397 C 0.0178 0.2462 0.44638 0.0
C1398 C 0.03092 0.26413 0.55816 0.0
C1399 C 0.04991 0.27766 0.60816 0.0
C1400 C 0.04939 0.29446 0.65035 0.0
C1401 C 0.06782 0.30779 0.69485 0.0
C1402 C 0.08691 0.30454 0.69773 0.0
C1403 C 0.08755 0.28782 0.65647 0.0
C1404 C 0.06913 0.27435 0.61216 0.0
H1405 H 0.10121 0.31498 0.73188 0.0
H1406 H 0.92581 0.18038 0.29537 0.0
H1407 H 0.28485 0.24317 0.61521 0.0
H1408 H 0.25744 0.25233 0.56087 0.0
H1409 H 0.2784 0.2412 0.36261 0.0
H1410 H 0.30464 0.23057 0.41719 0.0
H1411 H 0.26563 0.28588 0.48909 0.0
H1412 H 0.23849 0.2292 0.24172 0.0
H1413 H 0.22968 0.19013 0.20643 0.0
H1414 H 0.21225 0.16619 0.41294 0.0
H1415 H 0.22064 0.20502 0.44934 0.0
H1416 H 0.23708 0.34068 0.24783 0.0
H1417 H 0.25253 0.3169 0.29079 0.0
H1418 H 0.18317 0.26131 0.33296 0.0
H1419 H 0.16743 0.28497 0.28915 0.0
H1420 H 0.21362 0.24552 0.29271 0.0
H1421 H 0.20865 0.29451 0.46038 0.0
H1422 H 0.21333 0.33023 0.51218 0.0
H1423 H 0.28717 0.36358 0.4864 0.0
H1424 H 0.28287 0.32797 0.43423 0.0
C1425 C 0.28339 0.2425 0.56008 0.0
C1426 C 0.29684 0.23631 0.5202 0.0
C1427 C 0.2677 0.24763 0.52906 0.0
C1428 C 0.26562 0.24721 0.4576 0.0
C1429 C 0.27913 0.241 0.4178 0.0
C1430 C 0.29433 0.23522 0.44894 0.0
C1431 C 0.25116 0.25553 0.42471 0.0
C1432 C 0.25414 0.27684 0.4466 0.0
C1433 C 0.23577 0.24362 0.36995 0.0
C1434 C 0.23037 0.2201 0.34831 0.0
C1435 C 0.23265 0.21558 0.27955 0.0
C1436 C 0.22776 0.19347 0.25936 0.0
C1437 C 0.22046 0.17571 0.30744 0.0
C1438 C 0.21798 0.17999 0.37578 0.0
C1439 C 0.22283 0.20205 0.39624 0.0
C1440 C 0.22505 0.32318 0.26456 0.0
C1441 C 0.20109 0.31482 0.26633 0.0
C1442 C 0.23391 0.30963 0.28903 0.0
C1443 C 0.21897 0.28762 0.31625 0.0
C1444 C 0.19491 0.27833 0.31231 0.0
C1445 C 0.18598 0.29186 0.28729 0.0
C1446 C 0.22878 0.27593 0.35646 0.0
C1447 C 0.22496 0.25418 0.33581 0.0
C1448 C 0.24278 0.28692 0.41417 0.0
C1449 C 0.24541 0.30867 0.44291 0.0
C1450 C 0.22586 0.30955 0.46507 0.0
C1451 C 0.22846 0.32976 0.49474 0.0
C1452 C 0.25056 0.34921 0.50249 0.0
C1453 C 0.27008 0.3485 0.48035 0.0
C1454 C 0.26757 0.3283 0.45087 0.0
H1455 H 0.25264 0.36482 0.52591 0.0
H1456 H 0.21671 0.15861 0.29171 0.0
H1457 H 0.79262 0.94689 0.37075 0.0
H1458 H 0.82147 0.98717 0.3988 0.0
H1459 H 0.7817 0.01082 0.28621 0.0
H1460 H 0.7528 0.9708 0.25864 0.0
H1461 H 0.83305 0.0409 0.27776 0.0
H1462 H 0.7681 0.00014 0.45161 0.0
H1463 H 0.74744 0.9681 0.53349 0.0
H1464 H 0.81228 0.98356 0.62453 0.0
H1465 H 0.83327 0.0159 0.54353 0.0
H1466 H 0.82255 0.1333 0.38558 0.0
H1467 H 0.82259 0.09865 0.34688 0.0
H1468 H 0.84957 0.09348 0.54282 0.0
H1469 H 0.84754 0.12713 0.58299 0.0
H1470 H 0.81896 0.05479 0.51693 0.0
H1471 H 0.88168 0.10455 0.38227 0.0
H1472 H 0.90655 0.13698 0.30613 0.0
H1473 H 0.85631 0.10613 0.14512 0.0
H1474 H 0.83103 0.07351 0.22042 0.0
C1475 C 0.79038 0.96074 0.3505 0.0
C1476 C 0.77034 0.95577 0.31334 0.0
C1477 C 0.80688 0.98369 0.36641 0.0
C1478 C 0.80362 0.00186 0.34455 0.0
C1479 C 0.78456 0.997 0.30307 0.0
C1480 C 0.76796 0.97413 0.28797 0.0
C1481 C 0.81736 0.02535 0.37368 0.0
C1482 C 0.83033 0.04417 0.33017 0.0
C1483 C 0.8148 0.02944 0.44283 0.0
C1484 C 0.80217 0.01025 0.49164 0.0
C1485 C 0.77789 0.99665 0.48913 0.0
C1486 C 0.76615 0.97845 0.53532 0.0
C1487 C 0.77856 0.97373 0.58399 0.0
C1488 C 0.80272 0.98725 0.58679 0.0
C1489 C 0.81453 0.00555 0.54096 0.0
C1490 C 0.82866 0.12483 0.41989 0.0
C1491 C 0.83483 0.13257 0.48716 0.0
C1492 C 0.82905 0.10519 0.39757 0.0
C1493 C 0.83655 0.09352 0.44134 0.0
C1494 C 0.84367 0.10202 0.50795 0.0
C1495 C 0.84248 0.12119 0.53096 0.0
C1496 C 0.83401 0.07095 0.42024 0.0
C1497 C 0.82291 0.05211 0.46525 0.0
C1498 C 0.83935 0.06706 0.35327 0.0
C1499 C 0.85441 0.08658 0.30721 0.0
C1500 C 0.87586 0.10472 0.33075 0.0
C1501 C 0.89004 0.12315 0.28769 0.0
C1502 C 0.88299 0.12367 0.22088 0.0
C1503 C 0.86176 0.1057 0.19689 0.0
C1504 C 0.84753 0.08717 0.23968 0.0
H1505 H 0.89399 0.13799 0.18767 0.0
H1506 H 0.76949 0.95969 0.61975 0.0
H1507 H 0.88042 0.71331 0.53493 0.0
H1508 H 0.92151 0.73784 0.50863 0.0
H1509 H 0.93842 0.69994 0.65347 0.0
H1510 H 0.89731 0.67511 0.67994 0.0
H1511 H 0.96322 0.74848 0.67177 0.0
H1512 H 0.94343 0.69234 0.49249 0.0
H1513 H 0.9196 0.66873 0.39565 0.0
H1514 H 0.9381 0.73056 0.28165 0.0
H1515 H 0.96176 0.75457 0.37834 0.0
H1516 H 0.08182 0.79513 0.59468 0.0
H1517 H 0.04032 0.7688 0.61098 0.0
H1518 H 0.02509 0.80702 0.46261 0.0
H1519 H 0.06665 0.83361 0.44603 0.0
H1520 H -0.00078 0.75846 0.44361 0.0
H1521 H 0.01679 0.81454 0.61783 0.0
H1522 H 0.03846 0.83991 0.71456 0.0
H1523 H 0.02255 0.78031 0.83653 0.0
H1524 H 0.00102 0.75453 0.74002 0.0
C1525 C 0.89281 0.70993 0.56054 0.0
C1526 C 0.88559 0.69229 0.6097 0.0
C1527 C 0.91626 0.72396 0.54535 0.0
C1528 C 0.93287 0.72063 0.57922 0.0
C1529 C 0.92576 0.70272 0.62701 0.0
C1530 C 0.90228 0.68852 0.64181 0.0
C1531 C 0.95777 0.7367 0.56743 0.0
C1532 C 0.97123 0.75039 0.62224 0.0
C1533 C 0.9678 0.73968 0.50207 0.0
C1534 C 0.95423 0.72527 0.44293 0.0
C1535 C 0.94232 0.70092 0.44693 0.0
C1536 C 0.92884 0.68746 0.39206 0.0
C1537 C 0.92727 0.69814 0.33262 0.0
C1538 C 0.93931 0.72231 0.32778 0.0
C1539 C 0.95278 0.73586 0.38258 0.0
C1540 C 0.06967 0.79804 0.56576 0.0
C1541 C 0.0775 0.81649 0.51925 0.0
C1542 C 0.04599 0.78298 0.57511 0.0
C1543 C 0.02975 0.78603 0.53792 0.0
C1544 C 0.03744 0.80441 0.49153 0.0
C1545 C 0.06115 0.81966 0.48262 0.0
C1546 C 0.00473 0.77002 0.54827 0.0
C1547 C 0.99124 0.75643 0.49323 0.0
C1548 C 0.99453 0.76728 0.61324 0.0
C1549 C 0.00751 0.78262 0.67145 0.0
C1550 C 0.0181 0.80684 0.66504 0.0
C1551 C 0.03031 0.82129 0.71985 0.0
C1552 C 0.03192 0.81172 0.78154 0.0
C1553 C 0.0213 0.78768 0.78862 0.0
C1554 C 0.00908 0.77314 0.7339 0.0
H1555 H 0.04132 0.82297 0.82386 0.0
H1556 H 0.91677 0.68768 0.29027 0.0
loop_
_geom_bond_atom_site_label_1
_geom_bond_atom_site_label_2
_geom_bond_distance
_geom_bond_site_symmetry_2
_ccdc_geom_bond_type
O0 Zn1 1.957 . S
O0 C16 1.213 1_556 S
Zn1 O0 1.957 . S
Zn1 O2 1.949 1_556 S
Zn1 O8 1.919 . S
Zn1 O13 1.924 1_556 S
O2 Zn1 1.949 1_554 S
O2 Zn3 1.923 1_454 S
O2 Zn4 1.950 . S
O2 Zn5 1.945 . S
Zn3 O2 1.923 1_656 S
Zn3 O6 1.933 . S
Zn3 O9 1.934 1_655 S
Zn3 O10 1.965 . S
Zn4 O2 1.950 . S
Zn4 O11 1.938 1_455 S
Zn4 O12 1.906 1_455 S
Zn4 O22 1.953 . S
Zn5 O2 1.945 . S
Zn5 O7 1.932 1_455 S
Zn5 O14 1.977 . S
Zn5 O15 1.910 . S
O6 Zn3 1.933 . S
O6 C17 1.226 . S
O7 Zn5 1.932 1_655 S
O7 C17 1.307 1_554 S
O8 Zn1 1.919 . S
O8 C19 1.253 . S
O9 Zn3 1.934 1_455 S
O9 C19 1.295 . S
O10 Zn3 1.965 . S
O10 C18 1.303 . S
O11 Zn4 1.938 1_655 S
O11 C18 1.247 1_554 S
O12 Zn4 1.906 1_655 S
O12 C20 1.304 . S
O13 Zn1 1.924 1_554 S
O13 C21 1.311 . S
O14 Zn5 1.977 . S
O14 C20 1.272 1_455 S
O15 Zn5 1.910 . S
O15 C21 1.231 . S
C16 O0 1.213 1_554 S
C16 O22 1.298 . S
C17 O6 1.226 . S
C17 O7 1.307 1_556 S
C18 O10 1.303 . S
C18 O11 1.247 1_556 S
C19 O8 1.253 . S
C19 O9 1.295 . S
C20 O12 1.304 . S
C20 O14 1.272 1_655 S
C21 O13 1.311 . S
C21 O15 1.231 . S
O22 Zn4 1.953 . S
O22 C16 1.298 . S
O23 Zn24 1.957 . S
O23 C39 1.213 1_556 S
Zn24 O23 1.957 . S
Zn24 O25 1.949 1_556 S
Zn24 O31 1.919 . S
Zn24 O36 1.924 1_556 S
O25 Zn24 1.949 1_554 S
O25 Zn26 1.923 1_554 S
O25 Zn27 1.950 . S
O25 Zn28 1.945 . S
Zn26 O25 1.923 1_556 S
Zn26 O29 1.933 . S
Zn26 O32 1.941 . S
Zn26 O33 1.965 . S
Zn27 O25 1.950 . S
Zn27 O34 1.938 . S
Zn27 O35 1.906 . S
Zn27 O45 1.953 . S
Zn28 O25 1.945 . S
Zn28 O30 1.932 . S
Zn28 O37 1.977 . S
Zn28 O38 1.910 . S
O29 Zn26 1.933 . S
O29 C40 1.226 . S
O30 Zn28 1.932 . S
O30 C40 1.307 1_554 S
O31 Zn24 1.919 . S
O31 C42 1.253 . S
O32 Zn26 1.941 . S
O32 C42 1.283 . S
O33 Zn26 1.965 . S
O33 C41 1.303 . S
O34 Zn27 1.938 . S
O34 C41 1.247 1_554 S
O35 Zn27 1.906 . S
O35 C43 1.304 . S
O36 Zn24 1.924 1_554 S
O36 C44 1.311 . S
O37 Zn28 1.977 . S
O37 C43 1.272 . S
O38 Zn28 1.910 . S
O38 C44 1.231 . S
C39 O23 1.213 1_554 S
C39 O45 1.298 . S
C40 O29 1.226 . S
C40 O30 1.307 1_556 S
C41 O33 1.303 . S
C41 O34 1.247 1_556 S
C42 O31 1.253 . S
C42 O32 1.283 . S
C43 O35 1.304 . S
C43 O37 1.272 . S
C44 O36 1.311 . S
C44 O38 1.231 . S
O45 Zn27 1.953 . S
O45 C39 1.298 . S
O46 Zn47 1.957 . S
O46 C62 1.213 1_556 S
Zn47 O46 1.957 . S
Zn47 O48 1.949 1_566 S
Zn47 O54 1.919 . S
Zn47 O59 1.924 1_556 S
O48 Zn47 1.949 1_544 S
O48 Zn49 1.923 1_554 S
O48 Zn50 1.950 . S
O48 Zn51 1.945 . S
Zn49 O48 1.923 1_556 S
Zn49 O52 1.933 . S
Zn49 O55 1.941 . S
Zn49 O56 1.965 . S
Zn50 O48 1.950 . S
Zn50 O57 1.938 . S
Zn50 O58 1.906 . S
Zn50 O68 1.953 1_545 S
Zn51 O48 1.945 . S
Zn51 O53 1.932 . S
Zn51 O60 1.977 . S
Zn51 O61 1.910 1_545 S
O52 Zn49 1.933 . S
O52 C63 1.226 . S
O53 Zn51 1.932 . S
O53 C63 1.307 1_554 S
O54 Zn47 1.919 . S
O54 C65 1.253 1_565 S
O55 Zn49 1.941 . S
O55 C65 1.283 . S
O56 Zn49 1.965 . S
O56 C64 1.303 . S
O57 Zn50 1.938 . S
O57 C64 1.247 1_554 S
O58 Zn50 1.906 . S
O58 C66 1.304 . S
O59 Zn47 1.924 1_554 S
O59 C67 1.311 . S
O60 Zn51 1.977 . S
O60 C66 1.272 . S
O61 Zn51 1.910 1_565 S
O61 C67 1.231 . S
C62 O46 1.213 1_554 S
C62 O68 1.298 . S
C63 O52 1.226 . S
C63 O53 1.307 1_556 S
C64 O56 1.303 . S
C64 O57 1.247 1_556 S
C65 O54 1.253 1_545 S
C65 O55 1.283 . S
C66 O58 1.304 . S
C66 O60 1.272 . S
C67 O59 1.311 . S
C67 O61 1.231 . S
O68 Zn50 1.953 1_565 S
O68 C62 1.298 . S
O69 Zn70 1.953 . S
O69 C85 1.225 . S
Zn70 O69 1.953 . S
Zn70 O71 1.949 . S
Zn70 O77 1.919 . S
Zn70 O82 1.924 . S
O71 Zn70 1.949 . S
O71 Zn72 1.923 . S
O71 Zn73 1.950 . S
O71 Zn74 1.945 . S
Zn72 O71 1.923 . S
Zn72 O75 1.933 . S
Zn72 O78 1.941 . S
Zn72 O79 1.965 . S
Zn73 O71 1.950 . S
Zn73 O80 1.938 . S
Zn73 O81 1.906 . S
Zn73 O91 1.953 . S
Zn74 O71 1.945 . S
Zn74 O76 1.932 . S
Zn74 O83 1.977 . S
Zn74 O84 1.910 . S
O75 Zn72 1.933 . S
O75 C86 1.226 . S
O76 Zn74 1.932 . S
O76 C86 1.307 . S
O77 Zn70 1.919 . S
O77 C88 1.253 . S
O78 Zn72 1.941 . S
O78 C88 1.283 . S
O79 Zn72 1.965 . S
O79 C87 1.303 . S
O80 Zn73 1.938 . S
O80 C87 1.247 . S
O81 Zn73 1.906 . S
O81 C89 1.304 . S
O82 Zn70 1.924 . S
O82 C90 1.311 . S
O83 Zn74 1.977 . S
O83 C89 1.272 . S
O84 Zn74 1.910 . S
O84 C90 1.231 . S
C85 O69 1.225 . S
C85 O91 1.298 . S
C86 O75 1.226 . S
C86 O76 1.307 . S
C87 O79 1.303 . S
C87 O80 1.247 . S
C88 O77 1.253 . S
C88 O78 1.283 . S
C89 O81 1.304 . S
C89 O83 1.272 . S
C90 O82 1.311 . S
C90 O84 1.231 . S
O91 Zn73 1.953 . S
O91 C85 1.298 . S
O92 Zn93 1.953 . S
O92 C108 1.225 . S
Zn93 O92 1.953 . S
Zn93 O94 1.949 . S
Zn93 O100 1.919 . S
Zn93 O105 1.924 . S
O94 Zn93 1.949 . S
O94 Zn95 1.923 . S
O94 Zn96 1.950 . S
O94 Zn97 1.945 . S
Zn95 O94 1.923 . S
Zn95 O98 1.933 . S
Zn95 O101 1.941 . S
Zn95 O102 1.965 . S
Zn96 O94 1.950 . S
Zn96 O103 1.938 . S
Zn96 O104 1.906 . S
Zn96 O114 1.953 . S
Zn97 O94 1.945 . S
Zn97 O99 1.932 . S
Zn97 O106 1.977 . S
Zn97 O107 1.910 . S
O98 Zn95 1.933 . S
O98 C109 1.226 . S
O99 Zn97 1.932 . S
O99 C109 1.307 . S
O100 Zn93 1.919 . S
O100 C111 1.253 . S
O101 Zn95 1.941 . S
O101 C111 1.283 . S
O102 Zn95 1.965 . S
O102 C110 1.303 . S
O103 Zn96 1.938 . S
O103 C110 1.247 . S
O104 Zn96 1.906 . S
O104 C112 1.304 . S
O105 Zn93 1.924 . S
O105 C113 1.311 . S
O106 Zn97 1.977 . S
O106 C112 1.272 . S
O107 Zn97 1.910 . S
O107 C113 1.231 . S
C108 O92 1.225 . S
C108 O114 1.298 . S
C109 O98 1.226 . S
C109 O99 1.307 . S
C110 O102 1.303 . S
C110 O103 1.247 . S
C111 O100 1.253 . S
C111 O101 1.283 . S
C112 O104 1.304 . S
C112 O106 1.272 . S
C113 O105 1.311 . S
C113 O107 1.231 . S
O114 Zn96 1.953 . S
O114 C108 1.298 . S
O115 Zn116 1.953 . S
O115 C131 1.225 . S
Zn116 O115 1.953 . S
Zn116 O117 1.949 . S
Zn116 O123 1.919 . S
Zn116 O128 1.924 . S
O117 Zn116 1.949 . S
O117 Zn118 1.923 . S
O117 Zn119 1.950 . S
O117 Zn120 1.945 . S
Zn118 O117 1.923 . S
Zn118 O121 1.933 . S
Zn118 O124 1.941 . S
Zn118 O125 1.965 . S
Zn119 O117 1.950 . S
Zn119 O126 1.938 . S
Zn119 O127 1.906 . S
Zn119 O137 1.953 . S
Zn120 O117 1.945 . S
Zn120 O122 1.932 . S
Zn120 O129 1.977 . S
Zn120 O130 1.910 . S
O121 Zn118 1.933 . S
O121 C132 1.226 . S
O122 Zn120 1.932 . S
O122 C132 1.307 . S
O123 Zn116 1.919 . S
O123 C134 1.253 . S
O124 Zn118 1.941 . S
O124 C134 1.283 . S
O125 Zn118 1.965 . S
O125 C133 1.303 . S
O126 Zn119 1.938 . S
O126 C133 1.247 . S
O127 Zn119 1.906 . S
O127 C135 1.304 . S
O128 Zn116 1.924 . S
O128 C136 1.311 . S
O129 Zn120 1.977 . S
O129 C135 1.272 . S
O130 Zn120 1.910 . S
O130 C136 1.231 . S
C131 O115 1.225 . S
C131 O137 1.298 . S
C132 O121 1.226 . S
C132 O122 1.307 . S
C133 O125 1.303 . S
C133 O126 1.247 . S
C134 O123 1.253 . S
C134 O124 1.283 . S
C135 O127 1.304 . S
C135 O129 1.272 . S
C136 O128 1.311 . S
C136 O130 1.231 . S
O137 Zn119 1.953 . S
O137 C131 1.298 . S
O138 Zn139 1.953 . S
O138 C154 1.225 . S
Zn139 O138 1.953 . S
Zn139 O140 1.949 . S
Zn139 O146 1.919 . S
Zn139 O151 1.924 . S
O140 Zn139 1.949 . S
O140 Zn141 1.923 . S
O140 Zn142 1.950 . S
O140 Zn143 1.945 . S
Zn141 O140 1.923 . S
Zn141 O144 1.933 . S
Zn141 O147 1.941 . S
Zn141 O148 1.965 . S
Zn142 O140 1.950 . S
Zn142 O149 1.938 . S
Zn142 O150 1.906 . S
Zn142 O160 1.953 . S
Zn143 O140 1.945 . S
Zn143 O145 1.932 . S
Zn143 O152 1.977 . S
Zn143 O153 1.910 . S
O144 Zn141 1.933 . S
O144 C155 1.226 . S
O145 Zn143 1.932 . S
O145 C155 1.307 . S
O146 Zn139 1.919 . S
O146 C157 1.253 . S
O147 Zn141 1.941 . S
O147 C157 1.283 . S
O148 Zn141 1.965 . S
O148 C156 1.303 . S
O149 Zn142 1.938 . S
O149 C156 1.247 . S
O150 Zn142 1.906 . S
O150 C158 1.304 . S
O151 Zn139 1.924 . S
O151 C159 1.311 . S
O152 Zn143 1.977 . S
O152 C158 1.272 . S
O153 Zn143 1.910 . S
O153 C159 1.231 . S
C154 O138 1.225 . S
C154 O160 1.298 . S
C155 O144 1.226 . S
C155 O145 1.307 . S
C156 O148 1.303 . S
C156 O149 1.247 . S
C157 O146 1.253 . S
C157 O147 1.283 . S
C158 O150 1.304 . S
C158 O152 1.272 . S
C159 O151 1.311 . S
C159 O153 1.231 . S
O160 Zn142 1.953 . S
O160 C154 1.298 . S
O161 Zn162 1.953 . S
O161 C177 1.225 . S
Zn162 O161 1.953 . S
Zn162 O163 1.949 . S
Zn162 O169 1.919 . S
Zn162 O174 1.924 . S
O163 Zn162 1.949 . S
O163 Zn164 1.923 . S
O163 Zn165 1.950 . S
O163 Zn166 1.945 . S
Zn164 O163 1.923 . S
Zn164 O167 1.933 . S
Zn164 O170 1.941 . S
Zn164 O171 1.965 . S
Zn165 O163 1.950 . S
Zn165 O172 1.938 . S
Zn165 O173 1.906 . S
Zn165 O183 1.953 . S
Zn166 O163 1.945 . S
Zn166 O168 1.932 . S
Zn166 O175 1.977 . S
Zn166 O176 1.910 . S
O167 Zn164 1.933 . S
O167 C178 1.226 . S
O168 Zn166 1.932 . S
O168 C178 1.307 . S
O169 Zn162 1.919 . S
O169 C180 1.253 . S
O170 Zn164 1.941 . S
O170 C180 1.283 . S
O171 Zn164 1.965 . S
O171 C179 1.303 . S
O172 Zn165 1.938 . S
O172 C179 1.247 . S
O173 Zn165 1.906 . S
O173 C181 1.304 . S
O174 Zn162 1.924 . S
O174 C182 1.311 . S
O175 Zn166 1.977 . S
O175 C181 1.272 . S
O176 Zn166 1.910 . S
O176 C182 1.231 . S
C177 O161 1.225 . S
C177 O183 1.298 . S
C178 O167 1.226 . S
C178 O168 1.307 . S
C179 O171 1.303 . S
C179 O172 1.247 . S
C180 O169 1.253 . S
C180 O170 1.283 . S
C181 O173 1.304 . S
C181 O175 1.272 . S
C182 O174 1.311 . S
C182 O176 1.231 . S
O183 Zn165 1.953 . S
O183 C177 1.298 . S
O184 Zn185 1.953 . S
O184 C200 1.225 . S
Zn185 O184 1.953 . S
Zn185 O186 1.949 . S
Zn185 O192 1.919 . S
Zn185 O197 1.924 . S
O186 Zn185 1.949 . S
O186 Zn187 1.923 . S
O186 Zn188 1.950 . S
O186 Zn189 1.945 . S
Zn187 O186 1.923 . S
Zn187 O190 1.933 . S
Zn187 O193 1.941 . S
Zn187 O194 1.965 . S
Zn188 O186 1.950 . S
Zn188 O195 1.938 . S
Zn188 O196 1.906 . S
Zn188 O206 1.953 . S
Zn189 O186 1.945 . S
Zn189 O191 1.932 . S
Zn189 O198 1.977 . S
Zn189 O199 1.910 . S
O190 Zn187 1.933 . S
O190 C201 1.226 . S
O191 Zn189 1.932 . S
O191 C201 1.307 . S
O192 Zn185 1.919 . S
O192 C203 1.253 . S
O193 Zn187 1.941 . S
O193 C203 1.283 . S
O194 Zn187 1.965 . S
O194 C202 1.303 . S
O195 Zn188 1.938 . S
O195 C202 1.247 . S
O196 Zn188 1.906 . S
O196 C204 1.304 . S
O197 Zn185 1.924 . S
O197 C205 1.311 . S
O198 Zn189 1.977 . S
O198 C204 1.272 . S
O199 Zn189 1.910 . S
O199 C205 1.231 . S
C200 O184 1.225 . S
C200 O206 1.298 . S
C201 O190 1.226 . S
C201 O191 1.307 . S
C202 O194 1.303 . S
C202 O195 1.247 . S
C203 O192 1.253 . S
C203 O193 1.283 . S
C204 O196 1.304 . S
C204 O198 1.272 . S
C205 O197 1.311 . S
C205 O199 1.231 . S
O206 Zn188 1.953 . S
O206 C200 1.298 . S
H207 C225 0.951 . S
H208 C227 0.951 . S
H209 C229 0.918 1_655 S
H210 C230 0.950 . S
H211 C232 0.950 . S
H212 C235 0.950 . S
H213 C236 0.950 . S
H214 C238 0.950 . S
H215 C239 0.950 . S
H216 C240 0.951 . S
H217 C242 0.951 . S
H218 C244 0.950 1_455 S
H219 C245 0.950 . S
H220 C247 0.950 . S
H221 C250 0.950 . S
H222 C251 0.950 . S
H223 C253 0.950 . S
H224 C254 0.950 . S
C225 H207 0.951 . S
C225 C226 1.366 . S
C225 C227 1.388 . S
C226 C225 1.366 . S
C226 C230 1.385 . S
C227 H208 0.951 . S
C227 C225 1.388 . S
C227 C228 1.366 . S
C228 C227 1.366 . S
C228 C229 1.414 . S
C228 C231 1.499 . S
C229 H209 0.918 1_455 S
C229 C228 1.414 . S
C229 C230 1.374 . S
C230 H210 0.950 . S
C230 C226 1.385 . S
C230 C229 1.374 . S
C231 C228 1.499 . S
C231 C232 1.373 1_455 S
C231 C233 1.389 . S
C232 H211 0.950 . S
C232 C231 1.373 1_655 S
C232 C248 1.377 . S
C233 C231 1.389 . S
C233 C234 1.524 . S
C233 C247 1.377 . S
C234 C233 1.524 . S
C234 C235 1.397 . S
C234 C239 1.363 . S
C235 H212 0.950 . S
C235 C234 1.397 . S
C235 C236 1.334 . S
C236 H213 0.950 . S
C236 C235 1.334 . S
C236 C237 1.287 . S
C237 C236 1.287 . S
C237 C238 1.524 . S
C237 H256 0.913 . S
C238 H214 0.950 . S
C238 C237 1.524 . S
C238 C239 1.415 . S
C239 H215 0.950 . S
C239 C234 1.363 . S
C239 C238 1.415 . S
C240 H216 0.951 . S
C240 C241 1.366 . S
C240 C242 1.388 . S
C241 C240 1.366 . S
C241 C245 1.385 . S
C242 H217 0.951 . S
C242 C240 1.388 . S
C242 C243 1.366 . S
C243 C242 1.366 . S
C243 C244 1.414 . S
C243 C246 1.499 . S
C244 H218 0.950 1_655 S
C244 C243 1.414 . S
C244 C245 1.374 . S
C245 H219 0.950 . S
C245 C241 1.385 . S
C245 C244 1.374 . S
C246 C243 1.499 . S
C246 C247 1.373 1_655 S
C246 C248 1.389 . S
C247 H220 0.950 . S
C247 C233 1.377 . S
C247 C246 1.373 1_455 S
C248 C232 1.377 . S
C248 C246 1.389 . S
C248 C249 1.524 . S
C249 C248 1.524 . S
C249 C250 1.397 . S
C249 C254 1.363 . S
C250 H221 0.950 . S
C250 C249 1.397 . S
C250 C251 1.334 . S
C251 H222 0.950 . S
C251 C250 1.334 . S
C251 C252 1.287 . S
C252 C251 1.287 . S
C252 C253 1.524 . S
C252 H255 0.999 . S
C253 H223 0.950 . S
C253 C252 1.524 . S
C253 C254 1.415 . S
C254 H224 0.950 . S
C254 C249 1.363 . S
C254 C253 1.415 . S
H255 C252 0.999 . S
H256 C237 0.913 . S
H257 C275 0.951 . S
H258 C277 0.951 . S
H259 C279 0.950 . S
H260 C280 0.950 . S
H261 C282 0.950 . S
H262 C285 0.950 . S
H263 C286 0.950 . S
H264 C288 0.950 . S
H265 C289 0.950 . S
H266 C290 0.951 . S
H267 C292 0.951 . S
H268 C294 0.950 . S
H269 C295 0.950 . S
H270 C297 0.950 . S
H271 C300 0.950 . S
H272 C301 0.950 . S
H273 C303 0.950 . S
H274 C304 0.950 . S
C275 H257 0.951 . S
C275 C276 1.366 . S
C275 C277 1.388 . S
C276 C275 1.366 . S
C276 C280 1.385 . S
C277 H258 0.951 . S
C277 C275 1.388 . S
C277 C278 1.366 . S
C278 C277 1.366 . S
C278 C279 1.414 . S
C278 C281 1.499 . S
C279 H259 0.950 . S
C279 C278 1.414 . S
C279 C280 1.374 . S
C280 H260 0.950 . S
C280 C276 1.385 . S
C280 C279 1.374 . S
C281 C278 1.499 . S
C281 C282 1.373 . S
C281 C283 1.389 . S
C282 H261 0.950 . S
C282 C281 1.373 . S
C282 C298 1.377 . S
C283 C281 1.389 . S
C283 C284 1.524 . S
C283 C297 1.377 . S
C284 C283 1.524 . S
C284 C285 1.397 . S
C284 C289 1.363 . S
C285 H262 0.950 . S
C285 C284 1.397 . S
C285 C286 1.334 . S
C286 H263 0.950 . S
C286 C285 1.334 . S
C286 C287 1.287 . S
C287 C286 1.287 . S
C287 C288 1.524 . S
C287 H306 0.913 . S
C288 H264 0.950 . S
C288 C287 1.524 . S
C288 C289 1.415 . S
C289 H265 0.950 . S
C289 C284 1.363 . S
C289 C288 1.415 . S
C290 H266 0.951 . S
C290 C291 1.366 . S
C290 C292 1.388 . S
C291 C290 1.366 . S
C291 C295 1.385 . S
C292 H267 0.951 . S
C292 C290 1.388 . S
C292 C293 1.366 . S
C293 C292 1.366 . S
C293 C294 1.414 . S
C293 C296 1.499 . S
C294 H268 0.950 . S
C294 C293 1.414 . S
C294 C295 1.374 . S
C295 H269 0.950 . S
C295 C291 1.385 . S
C295 C294 1.374 . S
C296 C293 1.499 . S
C296 C297 1.373 . S
C296 C298 1.389 . S
C297 H270 0.950 . S
C297 C283 1.377 . S
C297 C296 1.373 . S
C298 C282 1.377 . S
C298 C296 1.389 . S
C298 C299 1.524 . S
C299 C298 1.524 . S
C299 C300 1.397 . S
C299 C304 1.363 . S
C300 H271 0.950 . S
C300 C299 1.397 . S
C300 C301 1.334 . S
C301 H272 0.950 . S
C301 C300 1.334 . S
C301 C302 1.287 . S
C302 C301 1.287 . S
C302 C303 1.524 . S
C302 H305 0.999 . S
C303 H273 0.950 . S
C303 C302 1.524 . S
C303 C304 1.415 . S
C304 H274 0.950 . S
C304 C299 1.363 . S
C304 C303 1.415 . S
H305 C302 0.999 . S
H306 C287 0.913 . S
H307 C325 0.951 . S
H308 C327 0.951 . S
H309 C329 0.950 . S
H310 C330 0.950 . S
H311 C332 0.950 . S
H312 C335 0.950 . S
H313 C336 0.950 . S
H314 C338 0.950 . S
H315 C339 0.950 . S
H316 C340 0.951 . S
H317 C342 0.951 . S
H318 C344 0.950 . S
H319 C345 0.950 . S
H320 C347 0.950 . S
H321 C350 0.950 . S
H322 C351 0.950 . S
H323 C353 0.950 . S
H324 C354 0.950 . S
C325 H307 0.951 . S
C325 C326 1.366 . S
C325 C327 1.388 . S
C326 C325 1.366 . S
C326 C330 1.385 . S
C327 H308 0.951 . S
C327 C325 1.388 . S
C327 C328 1.366 . S
C328 C327 1.366 . S
C328 C329 1.414 . S
C328 C331 1.499 . S
C329 H309 0.950 . S
C329 C328 1.414 . S
C329 C330 1.374 . S
C330 H310 0.950 . S
C330 C326 1.385 . S
C330 C329 1.374 . S
C331 C328 1.499 . S
C331 C332 1.373 . S
C331 C333 1.389 . S
C332 H311 0.950 . S
C332 C331 1.373 . S
C332 C348 1.377 . S
C333 C331 1.389 . S
C333 C334 1.524 1_545 S
C333 C347 1.377 . S
C334 C333 1.524 1_565 S
C334 C335 1.397 . S
C334 C339 1.363 . S
C335 H312 0.950 . S
C335 C334 1.397 . S
C335 C336 1.334 . S
C336 H313 0.950 . S
C336 C335 1.334 . S
C336 C337 1.287 . S
C337 C336 1.287 . S
C337 C338 1.524 . S
C337 H356 0.913 . S
C338 H314 0.950 . S
C338 C337 1.524 . S
C338 C339 1.415 . S
C339 H315 0.950 . S
C339 C334 1.363 . S
C339 C338 1.415 . S
C340 H316 0.951 . S
C340 C341 1.366 . S
C340 C342 1.388 . S
C341 C340 1.366 . S
C341 C345 1.385 . S
C342 H317 0.951 . S
C342 C340 1.388 . S
C342 C343 1.366 . S
C343 C342 1.366 . S
C343 C344 1.414 . S
C343 C346 1.499 . S
C344 H318 0.950 . S
C344 C343 1.414 . S
C344 C345 1.374 . S
C345 H319 0.950 . S
C345 C341 1.385 . S
C345 C344 1.374 . S
C346 C343 1.499 . S
C346 C347 1.373 . S
C346 C348 1.389 . S
C347 H320 0.950 . S
C347 C333 1.377 . S
C347 C346 1.373 . S
C348 C332 1.377 . S
C348 C346 1.389 . S
C348 C349 1.524 . S
C349 C348 1.524 . S
C349 C350 1.397 . S
C349 C354 1.363 . S
C350 H321 0.950 . S
C350 C349 1.397 . S
C350 C351 1.334 . S
C351 H322 0.950 . S
C351 C350 1.334 . S
C351 C352 1.287 . S
C352 C351 1.287 . S
C352 C353 1.524 . S
C352 H355 0.999 . S
C353 H323 0.950 . S
C353 C352 1.524 . S
C353 C354 1.415 . S
C354 H324 0.950 . S
C354 C349 1.363 . S
C354 C353 1.415 . S
H355 C352 0.999 . S
H356 C337 0.913 . S
H357 C375 0.951 . S
H358 C377 0.951 . S
H359 C379 0.950 . S
H360 C380 0.950 . S
H361 C382 0.950 . S
H362 C385 0.950 . S
H363 C386 0.950 . S
H364 C388 0.950 . S
H365 C389 0.950 . S
H366 C390 0.951 . S
H367 C392 0.951 . S
H368 C394 0.950 . S
H369 C395 0.950 . S
H370 C397 0.950 . S
H371 C400 0.950 . S
H372 C401 0.950 . S
H373 C403 0.950 . S
H374 C404 0.950 . S
C375 H357 0.951 . S
C375 C376 1.366 . S
C375 C377 1.388 . S
C376 C375 1.366 . S
C376 C380 1.385 . S
C377 H358 0.951 . S
C377 C375 1.388 . S
C377 C378 1.366 . S
C378 C377 1.366 . S
C378 C379 1.414 . S
C378 C381 1.499 . S
C379 H359 0.950 . S
C379 C378 1.414 . S
C379 C380 1.374 . S
C380 H360 0.950 . S
C380 C376 1.385 . S
C380 C379 1.374 . S
C381 C378 1.499 . S
C381 C382 1.373 . S
C381 C383 1.389 . S
C382 H361 0.950 . S
C382 C381 1.373 . S
C382 C398 1.377 . S
C383 C381 1.389 . S
C383 C384 1.524 . S
C383 C397 1.377 . S
C384 C383 1.524 . S
C384 C385 1.397 . S
C384 C389 1.363 . S
C385 H362 0.950 . S
C385 C384 1.397 . S
C385 C386 1.334 . S
C386 H363 0.950 . S
C386 C385 1.334 . S
C386 C387 1.287 . S
C387 C386 1.287 . S
C387 C388 1.524 . S
C387 H406 0.913 . S
C388 H364 0.950 . S
C388 C387 1.524 . S
C388 C389 1.415 . S
C389 H365 0.950 . S
C389 C384 1.363 . S
C389 C388 1.415 . S
C390 H366 0.951 . S
C390 C391 1.366 . S
C390 C392 1.388 . S
C391 C390 1.366 . S
C391 C395 1.385 . S
C392 H367 0.951 . S
C392 C390 1.388 . S
C392 C393 1.366 . S
C393 C392 1.366 . S
C393 C394 1.414 . S
C393 C396 1.499 1_554 S
C394 H368 0.950 . S
C394 C393 1.414 . S
C394 C395 1.374 . S
C395 H369 0.950 . S
C395 C391 1.385 . S
C395 C394 1.374 . S
C396 C393 1.499 1_556 S
C396 C397 1.373 . S
C396 C398 1.389 . S
C397 H370 0.950 . S
C397 C383 1.377 . S
C397 C396 1.373 . S
C398 C382 1.377 . S
C398 C396 1.389 . S
C398 C399 1.524 . S
C399 C398 1.524 . S
C399 C400 1.397 1_556 S
C399 C404 1.363 . S
C400 H371 0.950 . S
C400 C399 1.397 1_554 S
C400 C401 1.334 . S
C401 H372 0.950 . S
C401 C400 1.334 . S
C401 C402 1.287 . S
C402 C401 1.287 . S
C402 C403 1.524 . S
C402 H405 0.999 . S
C403 H373 0.950 . S
C403 C402 1.524 . S
C403 C404 1.415 1_554 S
C404 H374 0.950 . S
C404 C399 1.363 . S
C404 C403 1.415 1_556 S
H405 C402 0.999 . S
H406 C387 0.913 . S
H407 C425 0.951 . S
H408 C427 0.951 . S
H409 C429 0.950 . S
H410 C430 0.950 . S
H411 C432 0.950 . S
H412 C435 0.950 . S
H413 C436 0.950 . S
H414 C438 0.950 . S
H415 C439 0.950 . S
H416 C440 0.951 . S
H417 C442 0.951 . S
H418 C444 0.950 . S
H419 C445 0.950 . S
H420 C447 0.950 . S
H421 C450 0.950 . S
H422 C451 0.950 1_554 S
H423 C453 0.950 . S
H424 C454 0.950 . S
C425 H407 0.951 . S
C425 C426 1.366 . S
C425 C427 1.388 . S
C426 C425 1.366 . S
C426 C430 1.385 . S
C427 H408 0.951 . S
C427 C425 1.388 . S
C427 C428 1.366 . S
C428 C427 1.366 . S
C428 C429 1.414 . S
C428 C431 1.499 . S
C429 H409 0.950 . S
C429 C428 1.414 . S
C429 C430 1.374 . S
C430 H410 0.950 . S
C430 C426 1.385 . S
C430 C429 1.374 . S
C431 C428 1.499 . S
C431 C432 1.373 . S
C431 C433 1.389 . S
C432 H411 0.950 . S
C432 C431 1.373 . S
C432 C448 1.377 . S
C433 C431 1.389 . S
C433 C434 1.524 . S
C433 C447 1.377 . S
C434 C433 1.524 . S
C434 C435 1.397 . S
C434 C439 1.363 . S
C435 H412 0.950 . S
C435 C434 1.397 . S
C435 C436 1.334 . S
C436 H413 0.950 . S
C436 C435 1.334 . S
C436 C437 1.287 . S
C437 C436 1.287 . S
C437 C438 1.524 . S
C437 H456 0.913 . S
C438 H414 0.950 . S
C438 C437 1.524 . S
C438 C439 1.415 . S
C439 H415 0.950 . S
C439 C434 1.363 . S
C439 C438 1.415 . S
C440 H416 0.951 . S
C440 C441 1.366 . S
C440 C442 1.388 . S
C441 C440 1.366 . S
C441 C445 1.385 . S
C442 H417 0.951 . S
C442 C440 1.388 . S
C442 C443 1.366 . S
C443 C442 1.366 . S
C443 C444 1.414 . S
C443 C446 1.499 1_554 S
C444 H418 0.950 . S
C444 C443 1.414 . S
C444 C445 1.374 . S
C445 H419 0.950 . S
C445 C441 1.385 . S
C445 C444 1.374 . S
C446 C443 1.499 1_556 S
C446 C447 1.373 . S
C446 C448 1.389 . S
C447 H420 0.950 . S
C447 C433 1.377 . S
C447 C446 1.373 . S
C448 C432 1.377 . S
C448 C446 1.389 . S
C448 C449 1.524 . S
C449 C448 1.524 . S
C449 C450 1.397 . S
C449 C454 1.363 . S
C450 H421 0.950 . S
C450 C449 1.397 . S
C450 C451 1.334 . S
C451 H422 0.950 1_556 S
C451 C450 1.334 . S
C451 C452 1.287 . S
C452 C451 1.287 . S
C452 C453 1.524 . S
C452 H455 0.999 1_556 S
C453 H423 0.950 . S
C453 C452 1.524 . S
C453 C454 1.415 . S
C454 H424 0.950 . S
C454 C449 1.363 . S
C454 C453 1.415 . S
H455 C452 0.999 1_554 S
H456 C437 0.913 . S
H457 C475 0.951 . S
H458 C477 0.951 . S
H459 C479 0.950 . S
H460 C480 0.950 . S
H461 C482 0.950 . S
H462 C485 0.950 . S
H463 C486 0.950 . S
H464 C488 0.950 . S
H465 C489 0.950 . S
H466 C490 0.951 . S
H467 C492 0.951 . S
H468 C494 0.950 . S
H469 C495 0.950 . S
H470 C497 0.950 . S
H471 C500 0.950 . S
H472 C501 0.950 . S
H473 C503 0.950 . S
H474 C504 0.950 . S
C475 H457 0.951 . S
C475 C476 1.366 . S
C475 C477 1.388 . S
C476 C475 1.366 . S
C476 C480 1.385 . S
C477 H458 0.951 . S
C477 C475 1.388 . S
C477 C478 1.366 . S
C478 C477 1.366 . S
C478 C479 1.414 . S
C478 C481 1.499 . S
C479 H459 0.950 . S
C479 C478 1.414 . S
C479 C480 1.374 . S
C480 H460 0.950 . S
C480 C476 1.385 . S
C480 C479 1.374 . S
C481 C478 1.499 . S
C481 C482 1.373 . S
C481 C483 1.389 . S
C482 H461 0.950 . S
C482 C481 1.373 . S
C482 C498 1.377 . S
C483 C481 1.389 . S
C483 C484 1.524 . S
C483 C497 1.377 . S
C484 C483 1.524 . S
C484 C485 1.397 . S
C484 C489 1.363 . S
C485 H462 0.950 . S
C485 C484 1.397 . S
C485 C486 1.334 . S
C486 H463 0.950 . S
C486 C485 1.334 . S
C486 C487 1.287 . S
C487 C486 1.287 . S
C487 C488 1.524 . S
C487 H506 0.913 . S
C488 H464 0.950 . S
C488 C487 1.524 . S
C488 C489 1.415 . S
C489 H465 0.950 . S
C489 C484 1.363 . S
C489 C488 1.415 . S
C490 H466 0.951 . S
C490 C491 1.366 . S
C490 C492 1.388 . S
C491 C490 1.366 . S
C491 C495 1.385 . S
C492 H467 0.951 . S
C492 C490 1.388 . S
C492 C493 1.366 . S
C493 C492 1.366 . S
C493 C494 1.414 . S
C493 C496 1.499 1_554 S
C494 H468 0.950 . S
C494 C493 1.414 . S
C494 C495 1.374 . S
C495 H469 0.950 . S
C495 C491 1.385 . S
C495 C494 1.374 . S
C496 C493 1.499 1_556 S
C496 C497 1.373 . S
C496 C498 1.389 . S
C497 H470 0.950 . S
C497 C483 1.377 . S
C497 C496 1.373 . S
C498 C482 1.377 . S
C498 C496 1.389 . S
C498 C499 1.524 . S
C499 C498 1.524 . S
C499 C500 1.397 1_556 S
C499 C504 1.363 . S
C500 H471 0.950 . S
C500 C499 1.397 1_554 S
C500 C501 1.334 . S
C501 H472 0.950 . S
C501 C500 1.334 . S
C501 C502 1.287 . S
C502 C501 1.287 . S
C502 C503 1.524 1_554 S
C502 H505 0.999 . S
C503 H473 0.950 . S
C503 C502 1.524 1_556 S
C503 C504 1.415 . S
C504 H474 0.950 . S
C504 C499 1.363 . S
C504 C503 1.415 . S
H505 C502 0.999 . S
H506 C487 0.913 . S
H507 C525 0.951 . S
H508 C527 0.951 . S
H509 C529 0.950 . S
H510 C530 0.950 . S
H511 C532 0.950 . S
H512 C535 0.950 . S
H513 C536 0.950 . S
H514 C538 0.950 . S
H515 C539 0.950 . S
H516 C540 0.951 . S
H517 C542 0.951 . S
H518 C544 0.950 . S
H519 C545 0.950 . S
H520 C547 0.950 . S
H521 C550 0.950 . S
H522 C551 0.950 . S
H523 C553 0.950 . S
H524 C554 0.950 . S
C525 H507 0.951 . S
C525 C526 1.366 . S
C525 C527 1.388 . S
C526 C525 1.366 . S
C526 C530 1.385 . S
C527 H508 0.951 . S
C527 C525 1.388 . S
C527 C528 1.366 . S
C528 C527 1.366 . S
C528 C529 1.414 . S
C528 C531 1.499 . S
C529 H509 0.950 . S
C529 C528 1.414 . S
C529 C530 1.374 . S
C530 H510 0.950 . S
C530 C526 1.385 . S
C530 C529 1.374 . S
C531 C528 1.499 . S
C531 C532 1.373 . S
C531 C533 1.389 . S
C532 H511 0.950 . S
C532 C531 1.373 . S
C532 C548 1.377 . S
C533 C531 1.389 . S
C533 C534 1.524 . S
C533 C547 1.377 . S
C534 C533 1.524 . S
C534 C535 1.397 . S
C534 C539 1.363 . S
C535 H512 0.950 . S
C535 C534 1.397 . S
C535 C536 1.334 . S
C536 H513 0.950 . S
C536 C535 1.334 . S
C536 C537 1.287 . S
C537 C536 1.287 . S
C537 C538 1.524 . S
C537 H556 0.913 . S
C538 H514 0.950 . S
C538 C537 1.524 . S
C538 C539 1.415 . S
C539 H515 0.950 . S
C539 C534 1.363 . S
C539 C538 1.415 . S
C540 H516 0.951 . S
C540 C541 1.366 . S
C540 C542 1.388 1_556 S
C541 C540 1.366 . S
C541 C545 1.385 . S
C542 H517 0.951 . S
C542 C540 1.388 1_554 S
C542 C543 1.366 . S
C543 C542 1.366 . S
C543 C544 1.414 . S
C543 C546 1.499 . S
C544 H518 0.950 . S
C544 C543 1.414 . S
C544 C545 1.374 1_554 S
C545 H519 0.950 . S
C545 C541 1.385 . S
C545 C544 1.374 1_556 S
C546 C543 1.499 . S
C546 C547 1.373 . S
C546 C548 1.389 . S
C547 H520 0.950 . S
C547 C533 1.377 . S
C547 C546 1.373 . S
C548 C532 1.377 . S
C548 C546 1.389 . S
C548 C549 1.524 . S
C549 C548 1.524 . S
C549 C550 1.397 . S
C549 C554 1.363 . S
C550 H521 0.950 . S
C550 C549 1.397 . S
C550 C551 1.334 . S
C551 H522 0.950 . S
C551 C550 1.334 . S
C551 C552 1.287 . S
C552 C551 1.287 . S
C552 C553 1.524 . S
C552 H555 0.999 . S
C553 H523 0.950 . S
C553 C552 1.524 . S
C553 C554 1.415 . S
C554 H524 0.950 . S
C554 C549 1.363 . S
C554 C553 1.415 . S
H555 C552 0.999 . S
H556 C537 0.913 . S
H557 C575 0.951 . S
H558 C577 0.951 . S
H559 C579 0.950 . S
H560 C580 0.950 . S
H561 C582 0.950 . S
H562 C585 0.950 . S
H563 C586 0.950 . S
H564 C588 0.950 . S
H565 C589 0.950 . S
H566 C590 0.951 . S
H567 C592 0.951 . S
H568 C594 0.950 . S
H569 C595 0.950 . S
H570 C597 0.950 . S
H571 C600 0.950 . S
H572 C601 0.950 . S
H573 C603 0.950 . S
H574 C604 0.950 . S
C575 H557 0.951 . S
C575 C576 1.366 . S
C575 C577 1.388 . S
C576 C575 1.366 . S
C576 C580 1.385 . S
C577 H558 0.951 . S
C577 C575 1.388 . S
C577 C578 1.366 . S
C578 C577 1.366 . S
C578 C579 1.414 . S
C578 C581 1.499 . S
C579 H559 0.950 . S
C579 C578 1.414 . S
C579 C580 1.374 . S
C580 H560 0.950 . S
C580 C576 1.385 . S
C580 C579 1.374 . S
C581 C578 1.499 . S
C581 C582 1.373 . S
C581 C583 1.389 . S
C582 H561 0.950 . S
C582 C581 1.373 . S
C582 C598 1.377 . S
C583 C581 1.389 . S
C583 C584 1.524 . S
C583 C597 1.377 . S
C584 C583 1.524 . S
C584 C585 1.397 . S
C584 C589 1.363 . S
C585 H562 0.950 . S
C585 C584 1.397 . S
C585 C586 1.334 . S
C586 H563 0.950 . S
C586 C585 1.334 . S
C586 C587 1.287 . S
C587 C586 1.287 . S
C587 C588 1.524 . S
C587 H606 0.913 . S
C588 H564 0.950 . S
C588 C587 1.524 . S
C588 C589 1.415 . S
C589 H565 0.950 . S
C589 C584 1.363 . S
C589 C588 1.415 . S
C590 H566 0.951 . S
C590 C591 1.366 . S
C590 C592 1.388 1_556 S
C591 C590 1.366 . S
C591 C595 1.385 . S
C592 H567 0.951 . S
C592 C590 1.388 1_554 S
C592 C593 1.366 . S
C593 C592 1.366 . S
C593 C594 1.414 . S
C593 C596 1.499 . S
C594 H568 0.950 . S
C594 C593 1.414 . S
C594 C595 1.374 1_554 S
C595 H569 0.950 . S
C595 C591 1.385 . S
C595 C594 1.374 1_556 S
C596 C593 1.499 . S
C596 C597 1.373 . S
C596 C598 1.389 . S
C597 H570 0.950 . S
C597 C583 1.377 . S
C597 C596 1.373 . S
C598 C582 1.377 . S
C598 C596 1.389 . S
C598 C599 1.524 . S
C599 C598 1.524 . S
C599 C600 1.397 . S
C599 C604 1.363 . S
C600 H571 0.950 . S
C600 C599 1.397 . S
C600 C601 1.334 . S
C601 H572 0.950 . S
C601 C600 1.334 . S
C601 C602 1.287 . S
C602 C601 1.287 . S
C602 C603 1.524 . S
C602 H605 0.999 . S
C603 H573 0.950 . S
C603 C602 1.524 . S
C603 C604 1.415 . S
C604 H574 0.950 . S
C604 C599 1.363 . S
C604 C603 1.415 . S
H605 C602 0.999 . S
H606 C587 0.913 . S
H607 C625 0.951 . S
H608 C627 0.951 . S
H609 C629 0.950 . S
H610 C630 0.950 . S
H611 C632 0.950 . S
H612 C635 0.950 . S
H613 C636 0.950 . S
H614 C638 0.950 . S
H615 C639 0.950 . S
H616 C640 0.951 . S
H617 C642 0.951 . S
H618 C644 0.950 . S
H619 C645 0.950 . S
H620 C647 0.950 . S
H621 C650 0.950 . S
H622 C651 0.950 . S
H623 C653 0.950 . S
H624 C654 0.950 . S
C625 H607 0.951 . S
C625 C626 1.366 . S
C625 C627 1.388 . S
C626 C625 1.366 . S
C626 C630 1.385 . S
C627 H608 0.951 . S
C627 C625 1.388 . S
C627 C628 1.366 . S
C628 C627 1.366 . S
C628 C629 1.414 . S
C628 C631 1.499 . S
C629 H609 0.950 . S
C629 C628 1.414 . S
C629 C630 1.374 . S
C630 H610 0.950 . S
C630 C626 1.385 . S
C630 C629 1.374 . S
C631 C628 1.499 . S
C631 C632 1.373 . S
C631 C633 1.389 . S
C632 H611 0.950 . S
C632 C631 1.373 . S
C632 C648 1.377 . S
C633 C631 1.389 . S
C633 C634 1.524 . S
C633 C647 1.377 . S
C634 C633 1.524 . S
C634 C635 1.397 . S
C634 C639 1.363 . S
C635 H612 0.950 . S
C635 C634 1.397 . S
C635 C636 1.334 . S
C636 H613 0.950 . S
C636 C635 1.334 . S
C636 C637 1.287 . S
C637 C636 1.287 . S
C637 C638 1.524 . S
C637 H656 0.913 . S
C638 H614 0.950 . S
C638 C637 1.524 . S
C638 C639 1.415 . S
C639 H615 0.950 . S
C639 C634 1.363 . S
C639 C638 1.415 . S
C640 H616 0.951 . S
C640 C641 1.366 . S
C640 C642 1.388 1_556 S
C641 C640 1.366 . S
C641 C645 1.385 . S
C642 H617 0.951 . S
C642 C640 1.388 1_554 S
C642 C643 1.366 . S
C643 C642 1.366 . S
C643 C644 1.414 . S
C643 C646 1.499 . S
C644 H618 0.950 . S
C644 C643 1.414 . S
C644 C645 1.374 1_554 S
C645 H619 0.950 . S
C645 C641 1.385 . S
C645 C644 1.374 1_556 S
C646 C643 1.499 . S
C646 C647 1.373 . S
C646 C648 1.389 . S
C647 H620 0.950 . S
C647 C633 1.377 . S
C647 C646 1.373 . S
C648 C632 1.377 . S
C648 C646 1.389 . S
C648 C649 1.524 . S
C649 C648 1.524 . S
C649 C650 1.397 . S
C649 C654 1.363 . S
C650 H621 0.950 . S
C650 C649 1.397 . S
C650 C651 1.334 . S
C651 H622 0.950 . S
C651 C650 1.334 . S
C651 C652 1.287 . S
C652 C651 1.287 . S
C652 C653 1.524 . S
C652 H655 0.999 . S
C653 H623 0.950 . S
C653 C652 1.524 . S
C653 C654 1.415 . S
C654 H624 0.950 . S
C654 C649 1.363 . S
C654 C653 1.415 . S
H655 C652 0.999 . S
H656 C637 0.913 . S
H657 C675 0.951 . S
H658 C677 0.951 . S
H659 C679 0.950 . S
H660 C680 0.950 . S
H661 C682 0.950 . S
H662 C685 0.950 . S
H663 C686 0.950 . S
H664 C688 0.950 . S
H665 C689 0.950 . S
H666 C690 0.951 1_556 S
H667 C692 0.951 . S
H668 C694 0.950 . S
H669 C695 0.950 . S
H670 C697 0.950 . S
H671 C700 0.950 . S
H672 C701 0.950 . S
H673 C703 0.950 . S
H674 C704 0.950 . S
C675 H657 0.951 . S
C675 C676 1.366 . S
C675 C677 1.388 . S
C676 C675 1.366 . S
C676 C680 1.385 . S
C677 H658 0.951 . S
C677 C675 1.388 . S
C677 C678 1.366 . S
C678 C677 1.366 . S
C678 C679 1.414 . S
C678 C681 1.499 . S
C679 H659 0.950 . S
C679 C678 1.414 . S
C679 C680 1.374 . S
C680 H660 0.950 . S
C680 C676 1.385 . S
C680 C679 1.374 . S
C681 C678 1.499 . S
C681 C682 1.373 . S
C681 C683 1.389 . S
C682 H661 0.950 . S
C682 C681 1.373 . S
C682 C698 1.377 . S
C683 C681 1.389 . S
C683 C684 1.524 . S
C683 C697 1.377 . S
C684 C683 1.524 . S
C684 C685 1.397 . S
C684 C689 1.363 . S
C685 H662 0.950 . S
C685 C684 1.397 . S
C685 C686 1.334 . S
C686 H663 0.950 . S
C686 C685 1.334 . S
C686 C687 1.287 . S
C687 C686 1.287 . S
C687 C688 1.524 . S
C687 H706 0.913 . S
C688 H664 0.950 . S
C688 C687 1.524 . S
C688 C689 1.415 . S
C689 H665 0.950 . S
C689 C684 1.363 . S
C689 C688 1.415 . S
C690 H666 0.951 1_554 S
C690 C691 1.366 . S
C690 C692 1.388 . S
C691 C690 1.366 . S
C691 C695 1.385 . S
C692 H667 0.951 . S
C692 C690 1.388 . S
C692 C693 1.366 . S
C693 C692 1.366 . S
C693 C694 1.414 . S
C693 C696 1.499 . S
C694 H668 0.950 . S
C694 C693 1.414 . S
C694 C695 1.374 . S
C695 H669 0.950 . S
C695 C691 1.385 . S
C695 C694 1.374 . S
C696 C693 1.499 . S
C696 C697 1.373 . S
C696 C698 1.389 . S
C697 H670 0.950 . S
C697 C683 1.377 . S
C697 C696 1.373 . S
C698 C682 1.377 . S
C698 C696 1.389 . S
C698 C699 1.524 . S
C699 C698 1.524 . S
C699 C700 1.397 . S
C699 C704 1.363 . S
C700 H671 0.950 . S
C700 C699 1.397 . S
C700 C701 1.334 . S
C701 H672 0.950 . S
C701 C700 1.334 . S
C701 C702 1.287 . S
C702 C701 1.287 . S
C702 C703 1.524 . S
C702 H705 0.999 . S
C703 H673 0.950 . S
C703 C702 1.524 . S
C703 C704 1.415 . S
C704 H674 0.950 . S
C704 C699 1.363 . S
C704 C703 1.415 . S
H705 C702 0.999 . S
H706 C687 0.913 . S
H707 C725 0.951 . S
H708 C727 0.951 . S
H709 C729 0.950 . S
H710 C730 0.950 1_556 S
H711 C732 0.950 . S
H712 C735 0.950 . S
H713 C736 0.950 . S
H714 C738 0.950 . S
H715 C739 0.950 . S
H716 C740 0.951 . S
H717 C742 0.951 . S
H718 C744 0.950 . S
H719 C745 0.950 . S
H720 C747 0.950 . S
H721 C750 0.950 . S
H722 C751 0.950 . S
H723 C753 0.950 1_556 S
H724 C754 0.950 . S
C725 H707 0.951 . S
C725 C726 1.366 . S
C725 C727 1.388 . S
C726 C725 1.366 . S
C726 C730 1.385 . S
C727 H708 0.951 . S
C727 C725 1.388 . S
C727 C728 1.366 . S
C728 C727 1.366 . S
C728 C729 1.414 . S
C728 C731 1.499 . S
C729 H709 0.950 . S
C729 C728 1.414 . S
C729 C730 1.374 . S
C730 H710 0.950 1_554 S
C730 C726 1.385 . S
C730 C729 1.374 . S
C731 C728 1.499 . S
C731 C732 1.373 . S
C731 C733 1.389 . S
C732 H711 0.950 . S
C732 C731 1.373 . S
C732 C748 1.377 . S
C733 C731 1.389 . S
C733 C734 1.524 . S
C733 C747 1.377 . S
C734 C733 1.524 . S
C734 C735 1.397 . S
C734 C739 1.363 . S
C735 H712 0.950 . S
C735 C734 1.397 . S
C735 C736 1.334 . S
C736 H713 0.950 . S
C736 C735 1.334 . S
C736 C737 1.287 . S
C737 C736 1.287 . S
C737 C738 1.524 . S
C737 H756 0.913 . S
C738 H714 0.950 . S
C738 C737 1.524 . S
C738 C739 1.415 . S
C739 H715 0.950 . S
C739 C734 1.363 . S
C739 C738 1.415 . S
C740 H716 0.951 . S
C740 C741 1.366 . S
C740 C742 1.388 . S
C741 C740 1.366 . S
C741 C745 1.385 . S
C742 H717 0.951 . S
C742 C740 1.388 . S
C742 C743 1.366 . S
C743 C742 1.366 . S
C743 C744 1.414 . S
C743 C746 1.499 . S
C744 H718 0.950 . S
C744 C743 1.414 . S
C744 C745 1.374 . S
C745 H719 0.950 . S
C745 C741 1.385 . S
C745 C744 1.374 . S
C746 C743 1.499 . S
C746 C747 1.373 . S
C746 C748 1.389 . S
C747 H720 0.950 . S
C747 C733 1.377 . S
C747 C746 1.373 . S
C748 C732 1.377 . S
C748 C746 1.389 . S
C748 C749 1.524 . S
C749 C748 1.524 . S
C749 C750 1.397 . S
C749 C754 1.363 . S
C750 H721 0.950 . S
C750 C749 1.397 . S
C750 C751 1.334 . S
C751 H722 0.950 . S
C751 C750 1.334 . S
C751 C752 1.287 . S
C752 C751 1.287 . S
C752 C753 1.524 . S
C752 H755 0.999 . S
C753 H723 0.950 1_554 S
C753 C752 1.524 . S
C753 C754 1.415 . S
C754 H724 0.950 . S
C754 C749 1.363 . S
C754 C753 1.415 . S
H755 C752 0.999 . S
H756 C737 0.913 . S
H757 C775 0.951 1_556 S
H758 C777 0.951 . S
H759 C779 0.950 . S
H760 C780 0.950 . S
H761 C782 0.950 . S
H762 C785 0.950 . S
H763 C786 0.950 . S
H764 C788 0.950 1_556 S
H765 C789 0.950 . S
H766 C790 0.951 . S
H767 C792 0.951 . S
H768 C794 0.950 . S
H769 C795 0.950 . S
H770 C797 0.950 . S
H771 C800 0.950 . S
H772 C801 0.950 . S
H773 C803 0.950 . S
H774 C804 0.950 . S
C775 H757 0.951 1_554 S
C775 C776 1.366 . S
C775 C777 1.388 . S
C776 C775 1.366 . S
C776 C780 1.385 . S
C777 H758 0.951 . S
C777 C775 1.388 . S
C777 C778 1.366 . S
C778 C777 1.366 . S
C778 C779 1.414 . S
C778 C781 1.499 . S
C779 H759 0.950 . S
C779 C778 1.414 . S
C779 C780 1.374 . S
C780 H760 0.950 . S
C780 C776 1.385 . S
C780 C779 1.374 . S
C781 C778 1.499 . S
C781 C782 1.373 . S
C781 C783 1.389 . S
C782 H761 0.950 . S
C782 C781 1.373 . S
C782 C798 1.377 . S
C783 C781 1.389 . S
C783 C784 1.524 . S
C783 C797 1.377 . S
C784 C783 1.524 . S
C784 C785 1.397 . S
C784 C789 1.363 . S
C785 H762 0.950 . S
C785 C784 1.397 . S
C785 C786 1.334 1_565 S
C786 H763 0.950 . S
C786 C785 1.334 1_545 S
C786 C787 1.287 . S
C787 C786 1.287 . S
C787 C788 1.524 1_545 S
C787 H806 0.913 . S
C788 H764 0.950 1_554 S
C788 C787 1.524 1_565 S
C788 C789 1.415 . S
C789 H765 0.950 . S
C789 C784 1.363 . S
C789 C788 1.415 . S
C790 H766 0.951 . S
C790 C791 1.366 . S
C790 C792 1.388 . S
C791 C790 1.366 . S
C791 C795 1.385 . S
C792 H767 0.951 . S
C792 C790 1.388 . S
C792 C793 1.366 . S
C793 C792 1.366 . S
C793 C794 1.414 . S
C793 C796 1.499 . S
C794 H768 0.950 . S
C794 C793 1.414 . S
C794 C795 1.374 . S
C795 H769 0.950 . S
C795 C791 1.385 . S
C795 C794 1.374 . S
C796 C793 1.499 . S
C796 C797 1.373 . S
C796 C798 1.389 . S
C797 H770 0.950 . S
C797 C783 1.377 . S
C797 C796 1.373 . S
C798 C782 1.377 . S
C798 C796 1.389 . S
C798 C799 1.524 . S
C799 C798 1.524 . S
C799 C800 1.397 . S
C799 C804 1.363 . S
C800 H771 0.950 . S
C800 C799 1.397 . S
C800 C801 1.334 . S
C801 H772 0.950 . S
C801 C800 1.334 . S
C801 C802 1.287 . S
C802 C801 1.287 . S
C802 C803 1.524 . S
C802 H805 0.999 . S
C803 H773 0.950 . S
C803 C802 1.524 . S
C803 C804 1.415 . S
C804 H774 0.950 . S
C804 C799 1.363 . S
C804 C803 1.415 . S
H805 C802 0.999 . S
H806 C787 0.913 . S
H807 C825 0.951 . S
H808 C827 0.951 . S
H809 C829 0.950 . S
H810 C830 0.950 . S
H811 C832 0.950 . S
H812 C835 0.950 . S
H813 C836 0.950 . S
H814 C838 0.950 . S
H815 C839 0.950 . S
H816 C840 0.951 . S
H817 C842 0.951 . S
H818 C844 0.950 . S
H819 C845 0.950 . S
H820 C847 0.950 . S
H821 C850 0.950 . S
H822 C851 0.950 . S
H823 C853 0.950 . S
H824 C854 0.950 . S
C825 H807 0.951 . S
C825 C826 1.366 . S
C825 C827 1.388 . S
C826 C825 1.366 . S
C826 C830 1.385 . S
C827 H808 0.951 . S
C827 C825 1.388 . S
C827 C828 1.366 . S
C828 C827 1.366 . S
C828 C829 1.414 . S
C828 C831 1.499 . S
C829 H809 0.950 . S
C829 C828 1.414 . S
C829 C830 1.374 . S
C830 H810 0.950 . S
C830 C826 1.385 . S
C830 C829 1.374 . S
C831 C828 1.499 . S
C831 C832 1.373 . S
C831 C833 1.389 . S
C832 H811 0.950 . S
C832 C831 1.373 . S
C832 C848 1.377 . S
C833 C831 1.389 . S
C833 C834 1.524 . S
C833 C847 1.377 . S
C834 C833 1.524 . S
C834 C835 1.397 1_556 S
C834 C839 1.363 . S
C835 H812 0.950 . S
C835 C834 1.397 1_554 S
C835 C836 1.334 . S
C836 H813 0.950 . S
C836 C835 1.334 . S
C836 C837 1.287 . S
C837 C836 1.287 . S
C837 C838 1.524 . S
C837 H856 0.913 . S
C838 H814 0.950 . S
C838 C837 1.524 . S
C838 C839 1.415 1_554 S
C839 H815 0.950 . S
C839 C834 1.363 . S
C839 C838 1.415 1_556 S
C840 H816 0.951 . S
C840 C841 1.366 . S
C840 C842 1.388 . S
C841 C840 1.366 . S
C841 C845 1.385 . S
C842 H817 0.951 . S
C842 C840 1.388 . S
C842 C843 1.366 . S
C843 C842 1.366 . S
C843 C844 1.414 . S
C843 C846 1.499 . S
C844 H818 0.950 . S
C844 C843 1.414 . S
C844 C845 1.374 . S
C845 H819 0.950 . S
C845 C841 1.385 . S
C845 C844 1.374 . S
C846 C843 1.499 . S
C846 C847 1.373 . S
C846 C848 1.389 . S
C847 H820 0.950 . S
C847 C833 1.377 . S
C847 C846 1.373 . S
C848 C832 1.377 . S
C848 C846 1.389 . S
C848 C849 1.524 . S
C849 C848 1.524 . S
C849 C850 1.397 . S
C849 C854 1.363 . S
C850 H821 0.950 . S
C850 C849 1.397 . S
C850 C851 1.334 . S
C851 H822 0.950 . S
C851 C850 1.334 . S
C851 C852 1.287 . S
C852 C851 1.287 . S
C852 C853 1.524 . S
C852 H855 0.999 . S
C853 H823 0.950 . S
C853 C852 1.524 . S
C853 C854 1.415 . S
C854 H824 0.950 . S
C854 C849 1.363 . S
C854 C853 1.415 . S
H855 C852 0.999 . S
H856 C837 0.913 . S
H857 C875 0.951 . S
H858 C877 0.951 . S
H859 C879 0.950 . S
H860 C880 0.950 . S
H861 C882 0.950 . S
H862 C885 0.950 . S
H863 C886 0.950 . S
H864 C888 0.950 1_554 S
H865 C889 0.950 . S
H866 C890 0.951 . S
H867 C892 0.951 . S
H868 C894 0.950 . S
H869 C895 0.950 . S
H870 C897 0.950 . S
H871 C900 0.950 . S
H872 C901 0.950 . S
H873 C903 0.950 . S
H874 C904 0.950 . S
C875 H857 0.951 . S
C875 C876 1.366 . S
C875 C877 1.388 . S
C876 C875 1.366 . S
C876 C880 1.385 . S
C877 H858 0.951 . S
C877 C875 1.388 . S
C877 C878 1.366 . S
C878 C877 1.366 . S
C878 C879 1.414 . S
C878 C881 1.499 . S
C879 H859 0.950 . S
C879 C878 1.414 . S
C879 C880 1.374 . S
C880 H860 0.950 . S
C880 C876 1.385 . S
C880 C879 1.374 . S
C881 C878 1.499 . S
C881 C882 1.373 . S
C881 C883 1.389 . S
C882 H861 0.950 . S
C882 C881 1.373 . S
C882 C898 1.377 . S
C883 C881 1.389 . S
C883 C884 1.524 . S
C883 C897 1.377 . S
C884 C883 1.524 . S
C884 C885 1.397 . S
C884 C889 1.363 . S
C885 H862 0.950 . S
C885 C884 1.397 . S
C885 C886 1.334 1_556 S
C886 H863 0.950 . S
C886 C885 1.334 1_554 S
C886 C887 1.287 . S
C887 C886 1.287 . S
C887 C888 1.524 1_554 S
C887 H906 0.913 . S
C888 H864 0.950 1_556 S
C888 C887 1.524 1_556 S
C888 C889 1.415 . S
C889 H865 0.950 . S
C889 C884 1.363 . S
C889 C888 1.415 . S
C890 H866 0.951 . S
C890 C891 1.366 . S
C890 C892 1.388 . S
C891 C890 1.366 . S
C891 C895 1.385 . S
C892 H867 0.951 . S
C892 C890 1.388 . S
C892 C893 1.366 . S
C893 C892 1.366 . S
C893 C894 1.414 . S
C893 C896 1.499 . S
C894 H868 0.950 . S
C894 C893 1.414 . S
C894 C895 1.374 . S
C895 H869 0.950 . S
C895 C891 1.385 . S
C895 C894 1.374 . S
C896 C893 1.499 . S
C896 C897 1.373 . S
C896 C898 1.389 . S
C897 H870 0.950 . S
C897 C883 1.377 . S
C897 C896 1.373 . S
C898 C882 1.377 . S
C898 C896 1.389 . S
C898 C899 1.524 . S
C899 C898 1.524 . S
C899 C900 1.397 . S
C899 C904 1.363 . S
C900 H871 0.950 . S
C900 C899 1.397 . S
C900 C901 1.334 . S
C901 H872 0.950 . S
C901 C900 1.334 . S
C901 C902 1.287 . S
C902 C901 1.287 . S
C902 C903 1.524 . S
C902 H905 0.999 . S
C903 H873 0.950 . S
C903 C902 1.524 . S
C903 C904 1.415 . S
C904 H874 0.950 . S
C904 C899 1.363 . S
C904 C903 1.415 . S
H905 C902 0.999 . S
H906 C887 0.913 . S
H907 C925 0.951 . S
H908 C927 0.951 . S
H909 C929 0.950 . S
H910 C930 0.950 . S
H911 C932 0.950 . S
H912 C935 0.950 . S
H913 C936 0.950 . S
H914 C938 0.950 . S
H915 C939 0.950 . S
H916 C940 0.951 . S
H917 C942 0.951 1_554 S
H918 C944 0.950 . S
H919 C945 0.950 . S
H920 C947 0.950 . S
H921 C950 0.950 . S
H922 C951 0.950 . S
H923 C953 0.950 1_554 S
H924 C954 0.950 . S
C925 H907 0.951 . S
C925 C926 1.366 . S
C925 C927 1.388 . S
C926 C925 1.366 . S
C926 C930 1.385 . S
C927 H908 0.951 . S
C927 C925 1.388 . S
C927 C928 1.366 . S
C928 C927 1.366 . S
C928 C929 1.414 . S
C928 C931 1.499 . S
C929 H909 0.950 . S
C929 C928 1.414 . S
C929 C930 1.374 . S
C930 H910 0.950 . S
C930 C926 1.385 . S
C930 C929 1.374 . S
C931 C928 1.499 . S
C931 C932 1.373 . S
C931 C933 1.389 . S
C932 H911 0.950 . S
C932 C931 1.373 . S
C932 C948 1.377 . S
C933 C931 1.389 . S
C933 C934 1.524 . S
C933 C947 1.377 . S
C934 C933 1.524 . S
C934 C935 1.397 . S
C934 C939 1.363 . S
C935 H912 0.950 . S
C935 C934 1.397 . S
C935 C936 1.334 . S
C936 H913 0.950 . S
C936 C935 1.334 . S
C936 C937 1.287 . S
C937 C936 1.287 . S
C937 C938 1.524 . S
C937 H956 0.913 . S
C938 H914 0.950 . S
C938 C937 1.524 . S
C938 C939 1.415 . S
C939 H915 0.950 . S
C939 C934 1.363 . S
C939 C938 1.415 . S
C940 H916 0.951 . S
C940 C941 1.366 1_554 S
C940 C942 1.388 1_554 S
C941 C940 1.366 1_556 S
C941 C945 1.385 . S
C942 H917 0.951 1_556 S
C942 C940 1.388 1_556 S
C942 C943 1.366 . S
C943 C942 1.366 . S
C943 C944 1.414 . S
C943 C946 1.499 . S
C944 H918 0.950 . S
C944 C943 1.414 . S
C944 C945 1.374 . S
C945 H919 0.950 . S
C945 C941 1.385 . S
C945 C944 1.374 . S
C946 C943 1.499 . S
C946 C947 1.373 . S
C946 C948 1.389 . S
C947 H920 0.950 . S
C947 C933 1.377 . S
C947 C946 1.373 . S
C948 C932 1.377 . S
C948 C946 1.389 . S
C948 C949 1.524 . S
C949 C948 1.524 . S
C949 C950 1.397 . S
C949 C954 1.363 . S
C950 H921 0.950 . S
C950 C949 1.397 . S
C950 C951 1.334 . S
C951 H922 0.950 . S
C951 C950 1.334 . S
C951 C952 1.287 . S
C952 C951 1.287 . S
C952 C953 1.524 . S
C952 H955 0.999 . S
C953 H923 0.950 1_556 S
C953 C952 1.524 . S
C953 C954 1.415 . S
C954 H924 0.950 . S
C954 C949 1.363 . S
C954 C953 1.415 . S
H955 C952 0.999 . S
H956 C937 0.913 . S
H957 C975 0.951 . S
H958 C977 0.951 . S
H959 C979 0.950 . S
H960 C980 0.950 . S
H961 C982 0.950 . S
H962 C985 0.950 . S
H963 C986 0.950 . S
H964 C988 0.950 . S
H965 C989 0.950 . S
H966 C990 0.951 . S
H967 C992 0.951 1_554 S
H968 C994 0.950 . S
H969 C995 0.950 . S
H970 C997 0.950 . S
H971 C1000 0.950 . S
H972 C1001 0.950 1_455 S
H973 C1003 0.950 . S
H974 C1004 0.950 . S
C975 H957 0.951 . S
C975 C976 1.366 . S
C975 C977 1.388 . S
C976 C975 1.366 . S
C976 C980 1.385 . S
C977 H958 0.951 . S
C977 C975 1.388 . S
C977 C978 1.366 . S
C978 C977 1.366 . S
C978 C979 1.414 . S
C978 C981 1.499 . S
C979 H959 0.950 . S
C979 C978 1.414 . S
C979 C980 1.374 . S
C980 H960 0.950 . S
C980 C976 1.385 . S
C980 C979 1.374 . S
C981 C978 1.499 . S
C981 C982 1.373 . S
C981 C983 1.389 . S
C982 H961 0.950 . S
C982 C981 1.373 . S
C982 C998 1.377 . S
C983 C981 1.389 . S
C983 C984 1.524 . S
C983 C997 1.377 . S
C984 C983 1.524 . S
C984 C985 1.397 . S
C984 C989 1.363 . S
C985 H962 0.950 . S
C985 C984 1.397 . S
C985 C986 1.334 . S
C986 H963 0.950 . S
C986 C985 1.334 . S
C986 C987 1.287 . S
C987 C986 1.287 . S
C987 C988 1.524 . S
C987 H1006 0.913 . S
C988 H964 0.950 . S
C988 C987 1.524 . S
C988 C989 1.415 . S
C989 H965 0.950 . S
C989 C984 1.363 . S
C989 C988 1.415 . S
C990 H966 0.951 . S
C990 C991 1.366 1_554 S
C990 C992 1.388 1_554 S
C991 C990 1.366 1_556 S
C991 C995 1.385 . S
C992 H967 0.951 1_556 S
C992 C990 1.388 1_556 S
C992 C993 1.366 . S
C993 C992 1.366 . S
C993 C994 1.414 . S
C993 C996 1.499 . S
C994 H968 0.950 . S
C994 C993 1.414 . S
C994 C995 1.374 . S
C995 H969 0.950 . S
C995 C991 1.385 . S
C995 C994 1.374 . S
C996 C993 1.499 . S
C996 C997 1.373 . S
C996 C998 1.389 . S
C997 H970 0.950 . S
C997 C983 1.377 . S
C997 C996 1.373 . S
C998 C982 1.377 . S
C998 C996 1.389 . S
C998 C999 1.524 . S
C999 C998 1.524 . S
C999 C1000 1.397 . S
C999 C1004 1.363 . S
C1000 H971 0.950 . S
C1000 C999 1.397 . S
C1000 C1001 1.334 . S
C1001 H972 0.950 1_655 S
C1001 C1000 1.334 . S
C1001 C1002 1.287 1_655 S
C1002 C1001 1.287 1_455 S
C1002 C1003 1.524 1_455 S
C1002 H1005 0.999 . S
C1003 H973 0.950 . S
C1003 C1002 1.524 1_655 S
C1003 C1004 1.415 . S
C1004 H974 0.950 . S
C1004 C999 1.363 . S
C1004 C1003 1.415 . S
H1005 C1002 0.999 . S
H1006 C987 0.913 . S
H1007 C1025 0.951 1_554 S
H1008 C1027 0.951 . S
H1009 C1029 0.950 . S
H1010 C1030 0.950 . S
H1011 C1032 0.950 . S
H1012 C1035 0.950 . S
H1013 C1036 0.950 . S
H1014 C1038 0.950 . S
H1015 C1039 0.950 . S
H1016 C1040 0.951 . S
H1017 C1042 0.951 . S
H1018 C1044 0.950 . S
H1019 C1045 0.950 . S
H1020 C1047 0.950 . S
H1021 C1050 0.950 . S
H1022 C1051 0.950 . S
H1023 C1053 0.950 . S
H1024 C1054 0.950 . S
C1025 H1007 0.951 1_556 S
C1025 C1026 1.366 . S
C1025 C1027 1.388 . S
C1026 C1025 1.366 . S
C1026 C1030 1.385 . S
C1027 H1008 0.951 . S
C1027 C1025 1.388 . S
C1027 C1028 1.366 . S
C1028 C1027 1.366 . S
C1028 C1029 1.414 . S
C1028 C1031 1.499 . S
C1029 H1009 0.950 . S
C1029 C1028 1.414 . S
C1029 C1030 1.374 . S
C1030 H1010 0.950 . S
C1030 C1026 1.385 . S
C1030 C1029 1.374 . S
C1031 C1028 1.499 . S
C1031 C1032 1.373 . S
C1031 C1033 1.389 . S
C1032 H1011 0.950 . S
C1032 C1031 1.373 . S
C1032 C1048 1.377 . S
C1033 C1031 1.389 . S
C1033 C1034 1.524 1_556 S
C1033 C1047 1.377 . S
C1034 C1033 1.524 1_554 S
C1034 C1035 1.397 . S
C1034 C1039 1.363 . S
C1035 H1012 0.950 . S
C1035 C1034 1.397 . S
C1035 C1036 1.334 . S
C1036 H1013 0.950 . S
C1036 C1035 1.334 . S
C1036 C1037 1.287 . S
C1037 C1036 1.287 . S
C1037 C1038 1.524 . S
C1037 H1056 0.913 . S
C1038 H1014 0.950 . S
C1038 C1037 1.524 . S
C1038 C1039 1.415 . S
C1039 H1015 0.950 . S
C1039 C1034 1.363 . S
C1039 C1038 1.415 . S
C1040 H1016 0.951 . S
C1040 C1041 1.366 . S
C1040 C1042 1.388 . S
C1041 C1040 1.366 . S
C1041 C1045 1.385 . S
C1042 H1017 0.951 . S
C1042 C1040 1.388 . S
C1042 C1043 1.366 . S
C1043 C1042 1.366 . S
C1043 C1044 1.414 . S
C1043 C1046 1.499 . S
C1044 H1018 0.950 . S
C1044 C1043 1.414 . S
C1044 C1045 1.374 . S
C1045 H1019 0.950 . S
C1045 C1041 1.385 . S
C1045 C1044 1.374 . S
C1046 C1043 1.499 . S
C1046 C1047 1.373 . S
C1046 C1048 1.389 . S
C1047 H1020 0.950 . S
C1047 C1033 1.377 . S
C1047 C1046 1.373 . S
C1048 C1032 1.377 . S
C1048 C1046 1.389 . S
C1048 C1049 1.524 . S
C1049 C1048 1.524 . S
C1049 C1050 1.397 . S
C1049 C1054 1.363 . S
C1050 H1021 0.950 . S
C1050 C1049 1.397 . S
C1050 C1051 1.334 . S
C1051 H1022 0.950 . S
C1051 C1050 1.334 . S
C1051 C1052 1.287 . S
C1052 C1051 1.287 . S
C1052 C1053 1.524 . S
C1052 H1055 0.999 . S
C1053 H1023 0.950 . S
C1053 C1052 1.524 . S
C1053 C1054 1.415 . S
C1054 H1024 0.950 . S
C1054 C1049 1.363 . S
C1054 C1053 1.415 . S
H1055 C1052 0.999 . S
H1056 C1037 0.913 . S
H1057 C1075 0.951 . S
H1058 C1077 0.951 . S
H1059 C1079 0.950 . S
H1060 C1080 0.950 . S
H1061 C1082 0.950 . S
H1062 C1085 0.950 . S
H1063 C1086 0.950 . S
H1064 C1088 0.950 . S
H1065 C1089 0.950 . S
H1066 C1090 0.951 1_554 S
H1067 C1092 0.951 . S
H1068 C1094 0.950 . S
H1069 C1095 0.950 . S
H1070 C1097 0.950 . S
H1071 C1100 0.950 . S
H1072 C1101 0.950 . S
H1073 C1103 0.950 . S
H1074 C1104 0.950 . S
C1075 H1057 0.951 . S
C1075 C1076 1.366 . S
C1075 C1077 1.388 . S
C1076 C1075 1.366 . S
C1076 C1080 1.385 . S
C1077 H1058 0.951 . S
C1077 C1075 1.388 . S
C1077 C1078 1.366 . S
C1078 C1077 1.366 . S
C1078 C1079 1.414 . S
C1078 C1081 1.499 . S
C1079 H1059 0.950 . S
C1079 C1078 1.414 . S
C1079 C1080 1.374 . S
C1080 H1060 0.950 . S
C1080 C1076 1.385 . S
C1080 C1079 1.374 . S
C1081 C1078 1.499 . S
C1081 C1082 1.373 . S
C1081 C1083 1.389 . S
C1082 H1061 0.950 . S
C1082 C1081 1.373 . S
C1082 C1098 1.377 . S
C1083 C1081 1.389 . S
C1083 C1084 1.524 . S
C1083 C1097 1.377 . S
C1084 C1083 1.524 . S
C1084 C1085 1.397 . S
C1084 C1089 1.363 . S
C1085 H1062 0.950 . S
C1085 C1084 1.397 . S
C1085 C1086 1.334 . S
C1086 H1063 0.950 . S
C1086 C1085 1.334 . S
C1086 C1087 1.287 . S
C1087 C1086 1.287 . S
C1087 C1088 1.524 . S
C1087 H1106 0.913 . S
C1088 H1064 0.950 . S
C1088 C1087 1.524 . S
C1088 C1089 1.415 . S
C1089 H1065 0.950 . S
C1089 C1084 1.363 . S
C1089 C1088 1.415 . S
C1090 H1066 0.951 1_556 S
C1090 C1091 1.366 . S
C1090 C1092 1.388 . S
C1091 C1090 1.366 . S
C1091 C1095 1.385 . S
C1092 H1067 0.951 . S
C1092 C1090 1.388 . S
C1092 C1093 1.366 . S
C1093 C1092 1.366 . S
C1093 C1094 1.414 . S
C1093 C1096 1.499 . S
C1094 H1068 0.950 . S
C1094 C1093 1.414 . S
C1094 C1095 1.374 . S
C1095 H1069 0.950 . S
C1095 C1091 1.385 . S
C1095 C1094 1.374 . S
C1096 C1093 1.499 . S
C1096 C1097 1.373 . S
C1096 C1098 1.389 . S
C1097 H1070 0.950 . S
C1097 C1083 1.377 . S
C1097 C1096 1.373 . S
C1098 C1082 1.377 . S
C1098 C1096 1.389 . S
C1098 C1099 1.524 . S
C1099 C1098 1.524 . S
C1099 C1100 1.397 . S
C1099 C1104 1.363 . S
C1100 H1071 0.950 . S
C1100 C1099 1.397 . S
C1100 C1101 1.334 . S
C1101 H1072 0.950 . S
C1101 C1100 1.334 . S
C1101 C1102 1.287 . S
C1102 C1101 1.287 . S
C1102 C1103 1.524 . S
C1102 H1105 0.999 . S
C1103 H1073 0.950 . S
C1103 C1102 1.524 . S
C1103 C1104 1.415 . S
C1104 H1074 0.950 . S
C1104 C1099 1.363 . S
C1104 C1103 1.415 . S
H1105 C1102 0.999 . S
H1106 C1087 0.913 . S
H1107 C1125 0.951 . S
H1108 C1127 0.951 . S
H1109 C1129 0.950 . S
H1110 C1130 0.950 . S
H1111 C1132 0.950 . S
H1112 C1135 0.950 . S
H1113 C1136 0.950 . S
H1114 C1138 0.950 . S
H1115 C1139 0.950 . S
H1116 C1140 0.951 . S
H1117 C1142 0.951 . S
H1118 C1144 0.950 . S
H1119 C1145 0.950 . S
H1120 C1147 0.950 . S
H1121 C1150 0.950 . S
H1122 C1151 0.950 . S
H1123 C1153 0.950 1_545 S
H1124 C1154 0.950 . S
C1125 H1107 0.951 . S
C1125 C1126 1.366 . S
C1125 C1127 1.388 . S
C1126 C1125 1.366 . S
C1126 C1130 1.385 . S
C1127 H1108 0.951 . S
C1127 C1125 1.388 . S
C1127 C1128 1.366 . S
C1128 C1127 1.366 . S
C1128 C1129 1.414 . S
C1128 C1131 1.499 . S
C1129 H1109 0.950 . S
C1129 C1128 1.414 . S
C1129 C1130 1.374 . S
C1130 H1110 0.950 . S
C1130 C1126 1.385 . S
C1130 C1129 1.374 . S
C1131 C1128 1.499 . S
C1131 C1132 1.373 . S
C1131 C1133 1.389 . S
C1132 H1111 0.950 . S
C1132 C1131 1.373 . S
C1132 C1148 1.377 . S
C1133 C1131 1.389 . S
C1133 C1134 1.524 . S
C1133 C1147 1.377 . S
C1134 C1133 1.524 . S
C1134 C1135 1.397 . S
C1134 C1139 1.363 . S
C1135 H1112 0.950 . S
C1135 C1134 1.397 . S
C1135 C1136 1.334 . S
C1136 H1113 0.950 . S
C1136 C1135 1.334 . S
C1136 C1137 1.287 . S
C1137 C1136 1.287 . S
C1137 C1138 1.524 . S
C1137 H1156 0.913 . S
C1138 H1114 0.950 . S
C1138 C1137 1.524 . S
C1138 C1139 1.415 . S
C1139 H1115 0.950 . S
C1139 C1134 1.363 . S
C1139 C1138 1.415 . S
C1140 H1116 0.951 . S
C1140 C1141 1.366 . S
C1140 C1142 1.388 . S
C1141 C1140 1.366 . S
C1141 C1145 1.385 . S
C1142 H1117 0.951 . S
C1142 C1140 1.388 . S
C1142 C1143 1.366 . S
C1143 C1142 1.366 . S
C1143 C1144 1.414 . S
C1143 C1146 1.499 . S
C1144 H1118 0.950 . S
C1144 C1143 1.414 . S
C1144 C1145 1.374 . S
C1145 H1119 0.950 . S
C1145 C1141 1.385 . S
C1145 C1144 1.374 . S
C1146 C1143 1.499 . S
C1146 C1147 1.373 . S
C1146 C1148 1.389 . S
C1147 H1120 0.950 . S
C1147 C1133 1.377 . S
C1147 C1146 1.373 . S
C1148 C1132 1.377 . S
C1148 C1146 1.389 . S
C1148 C1149 1.524 . S
C1149 C1148 1.524 . S
C1149 C1150 1.397 . S
C1149 C1154 1.363 . S
C1150 H1121 0.950 . S
C1150 C1149 1.397 . S
C1150 C1151 1.334 . S
C1151 H1122 0.950 . S
C1151 C1150 1.334 . S
C1151 C1152 1.287 . S
C1152 C1151 1.287 . S
C1152 C1153 1.524 . S
C1152 H1155 0.999 . S
C1153 H1123 0.950 1_565 S
C1153 C1152 1.524 . S
C1153 C1154 1.415 . S
C1154 H1124 0.950 . S
C1154 C1149 1.363 . S
C1154 C1153 1.415 . S
H1155 C1152 0.999 . S
H1156 C1137 0.913 . S
H1157 C1175 0.951 . S
H1158 C1177 0.951 . S
H1159 C1179 0.950 . S
H1160 C1180 0.950 . S
H1161 C1182 0.950 . S
H1162 C1185 0.950 . S
H1163 C1186 0.950 . S
H1164 C1188 0.950 . S
H1165 C1189 0.950 . S
H1166 C1190 0.951 1_556 S
H1167 C1192 0.951 . S
H1168 C1194 0.950 . S
H1169 C1195 0.950 . S
H1170 C1197 0.950 . S
H1171 C1200 0.950 . S
H1172 C1201 0.950 . S
H1173 C1203 0.950 . S
H1174 C1204 0.950 . S
C1175 H1157 0.951 . S
C1175 C1176 1.366 . S
C1175 C1177 1.388 . S
C1176 C1175 1.366 . S
C1176 C1180 1.385 . S
C1177 H1158 0.951 . S
C1177 C1175 1.388 . S
C1177 C1178 1.366 . S
C1178 C1177 1.366 . S
C1178 C1179 1.414 . S
C1178 C1181 1.499 . S
C1179 H1159 0.950 . S
C1179 C1178 1.414 . S
C1179 C1180 1.374 . S
C1180 H1160 0.950 . S
C1180 C1176 1.385 . S
C1180 C1179 1.374 . S
C1181 C1178 1.499 . S
C1181 C1182 1.373 . S
C1181 C1183 1.389 . S
C1182 H1161 0.950 . S
C1182 C1181 1.373 . S
C1182 C1198 1.377 . S
C1183 C1181 1.389 . S
C1183 C1184 1.524 . S
C1183 C1197 1.377 . S
C1184 C1183 1.524 . S
C1184 C1185 1.397 . S
C1184 C1189 1.363 . S
C1185 H1162 0.950 . S
C1185 C1184 1.397 . S
C1185 C1186 1.334 . S
C1186 H1163 0.950 . S
C1186 C1185 1.334 . S
C1186 C1187 1.287 . S
C1187 C1186 1.287 . S
C1187 C1188 1.524 . S
C1187 H1206 0.913 . S
C1188 H1164 0.950 . S
C1188 C1187 1.524 . S
C1188 C1189 1.415 . S
C1189 H1165 0.950 . S
C1189 C1184 1.363 . S
C1189 C1188 1.415 . S
C1190 H1166 0.951 1_554 S
C1190 C1191 1.366 . S
C1190 C1192 1.388 . S
C1191 C1190 1.366 . S
C1191 C1195 1.385 . S
C1192 H1167 0.951 . S
C1192 C1190 1.388 . S
C1192 C1193 1.366 . S
C1193 C1192 1.366 . S
C1193 C1194 1.414 . S
C1193 C1196 1.499 . S
C1194 H1168 0.950 . S
C1194 C1193 1.414 . S
C1194 C1195 1.374 . S
C1195 H1169 0.950 . S
C1195 C1191 1.385 . S
C1195 C1194 1.374 . S
C1196 C1193 1.499 . S
C1196 C1197 1.373 . S
C1196 C1198 1.389 . S
C1197 H1170 0.950 . S
C1197 C1183 1.377 . S
C1197 C1196 1.373 . S
C1198 C1182 1.377 . S
C1198 C1196 1.389 . S
C1198 C1199 1.524 . S
C1199 C1198 1.524 . S
C1199 C1200 1.397 . S
C1199 C1204 1.363 . S
C1200 H1171 0.950 . S
C1200 C1199 1.397 . S
C1200 C1201 1.334 1_554 S
C1201 H1172 0.950 . S
C1201 C1200 1.334 1_556 S
C1201 C1202 1.287 . S
C1202 C1201 1.287 . S
C1202 C1203 1.524 . S
C1202 H1205 0.999 . S
C1203 H1173 0.950 . S
C1203 C1202 1.524 . S
C1203 C1204 1.415 1_556 S
C1204 H1174 0.950 . S
C1204 C1199 1.363 . S
C1204 C1203 1.415 1_554 S
H1205 C1202 0.999 . S
H1206 C1187 0.913 . S
H1207 C1225 0.951 . S
H1208 C1227 0.951 . S
H1209 C1229 0.950 . S
H1210 C1230 0.950 . S
H1211 C1232 0.950 . S
H1212 C1235 0.950 . S
H1213 C1236 0.950 . S
H1214 C1238 0.950 . S
H1215 C1239 0.950 . S
H1216 C1240 0.951 . S
H1217 C1242 0.951 . S
H1218 C1244 0.950 . S
H1219 C1245 0.950 . S
H1220 C1247 0.950 . S
H1221 C1250 0.950 . S
H1222 C1251 0.950 . S
H1223 C1253 0.950 . S
H1224 C1254 0.950 . S
C1225 H1207 0.951 . S
C1225 C1226 1.366 . S
C1225 C1227 1.388 . S
C1226 C1225 1.366 . S
C1226 C1230 1.385 . S
C1227 H1208 0.951 . S
C1227 C1225 1.388 . S
C1227 C1228 1.366 . S
C1228 C1227 1.366 . S
C1228 C1229 1.414 . S
C1228 C1231 1.499 . S
C1229 H1209 0.950 . S
C1229 C1228 1.414 . S
C1229 C1230 1.374 . S
C1230 H1210 0.950 . S
C1230 C1226 1.385 . S
C1230 C1229 1.374 . S
C1231 C1228 1.499 . S
C1231 C1232 1.373 . S
C1231 C1233 1.389 . S
C1232 H1211 0.950 . S
C1232 C1231 1.373 . S
C1232 C1248 1.377 . S
C1233 C1231 1.389 . S
C1233 C1234 1.524 . S
C1233 C1247 1.377 . S
C1234 C1233 1.524 . S
C1234 C1235 1.397 . S
C1234 C1239 1.363 . S
C1235 H1212 0.950 . S
C1235 C1234 1.397 . S
C1235 C1236 1.334 . S
C1236 H1213 0.950 . S
C1236 C1235 1.334 . S
C1236 C1237 1.287 . S
C1237 C1236 1.287 . S
C1237 C1238 1.524 . S
C1237 H1256 0.913 . S
C1238 H1214 0.950 . S
C1238 C1237 1.524 . S
C1238 C1239 1.415 . S
C1239 H1215 0.950 . S
C1239 C1234 1.363 . S
C1239 C1238 1.415 . S
C1240 H1216 0.951 . S
C1240 C1241 1.366 . S
C1240 C1242 1.388 . S
C1241 C1240 1.366 . S
C1241 C1245 1.385 . S
C1242 H1217 0.951 . S
C1242 C1240 1.388 . S
C1242 C1243 1.366 . S
C1243 C1242 1.366 . S
C1243 C1244 1.414 . S
C1243 C1246 1.499 . S
C1244 H1218 0.950 . S
C1244 C1243 1.414 . S
C1244 C1245 1.374 . S
C1245 H1219 0.950 . S
C1245 C1241 1.385 . S
C1245 C1244 1.374 . S
C1246 C1243 1.499 . S
C1246 C1247 1.373 . S
C1246 C1248 1.389 . S
C1247 H1220 0.950 . S
C1247 C1233 1.377 . S
C1247 C1246 1.373 . S
C1248 C1232 1.377 . S
C1248 C1246 1.389 . S
C1248 C1249 1.524 . S
C1249 C1248 1.524 . S
C1249 C1250 1.397 . S
C1249 C1254 1.363 . S
C1250 H1221 0.950 . S
C1250 C1249 1.397 . S
C1250 C1251 1.334 . S
C1251 H1222 0.950 . S
C1251 C1250 1.334 . S
C1251 C1252 1.287 . S
C1252 C1251 1.287 . S
C1252 C1253 1.524 . S
C1252 H1255 0.999 . S
C1253 H1223 0.950 . S
C1253 C1252 1.524 . S
C1253 C1254 1.415 . S
C1254 H1224 0.950 . S
C1254 C1249 1.363 . S
C1254 C1253 1.415 . S
H1255 C1252 0.999 . S
H1256 C1237 0.913 . S
H1257 C1275 0.951 . S
H1258 C1277 0.951 . S
H1259 C1279 0.950 . S
H1260 C1280 0.950 . S
H1261 C1282 0.950 . S
H1262 C1285 0.950 . S
H1263 C1286 0.950 . S
H1264 C1288 0.950 . S
H1265 C1289 0.950 . S
H1266 C1290 0.951 . S
H1267 C1292 0.951 . S
H1268 C1294 0.950 . S
H1269 C1295 0.950 . S
H1270 C1297 0.950 . S
H1271 C1300 0.950 . S
H1272 C1301 0.950 . S
H1273 C1303 0.950 . S
H1274 C1304 0.950 . S
C1275 H1257 0.951 . S
C1275 C1276 1.366 . S
C1275 C1277 1.388 . S
C1276 C1275 1.366 . S
C1276 C1280 1.385 . S
C1277 H1258 0.951 . S
C1277 C1275 1.388 . S
C1277 C1278 1.366 . S
C1278 C1277 1.366 . S
C1278 C1279 1.414 . S
C1278 C1281 1.499 . S
C1279 H1259 0.950 . S
C1279 C1278 1.414 . S
C1279 C1280 1.374 . S
C1280 H1260 0.950 . S
C1280 C1276 1.385 . S
C1280 C1279 1.374 . S
C1281 C1278 1.499 . S
C1281 C1282 1.373 . S
C1281 C1283 1.389 . S
C1282 H1261 0.950 . S
C1282 C1281 1.373 . S
C1282 C1298 1.377 . S
C1283 C1281 1.389 . S
C1283 C1284 1.524 . S
C1283 C1297 1.377 . S
C1284 C1283 1.524 . S
C1284 C1285 1.397 . S
C1284 C1289 1.363 . S
C1285 H1262 0.950 . S
C1285 C1284 1.397 . S
C1285 C1286 1.334 . S
C1286 H1263 0.950 . S
C1286 C1285 1.334 . S
C1286 C1287 1.287 . S
C1287 C1286 1.287 . S
C1287 C1288 1.524 . S
C1287 H1306 0.913 . S
C1288 H1264 0.950 . S
C1288 C1287 1.524 . S
C1288 C1289 1.415 . S
C1289 H1265 0.950 . S
C1289 C1284 1.363 . S
C1289 C1288 1.415 . S
C1290 H1266 0.951 . S
C1290 C1291 1.366 . S
C1290 C1292 1.388 . S
C1291 C1290 1.366 . S
C1291 C1295 1.385 . S
C1292 H1267 0.951 . S
C1292 C1290 1.388 . S
C1292 C1293 1.366 . S
C1293 C1292 1.366 . S
C1293 C1294 1.414 . S
C1293 C1296 1.499 . S
C1294 H1268 0.950 . S
C1294 C1293 1.414 . S
C1294 C1295 1.374 . S
C1295 H1269 0.950 . S
C1295 C1291 1.385 . S
C1295 C1294 1.374 . S
C1296 C1293 1.499 . S
C1296 C1297 1.373 . S
C1296 C1298 1.389 . S
C1297 H1270 0.950 . S
C1297 C1283 1.377 . S
C1297 C1296 1.373 . S
C1298 C1282 1.377 . S
C1298 C1296 1.389 . S
C1298 C1299 1.524 . S
C1299 C1298 1.524 . S
C1299 C1300 1.397 . S
C1299 C1304 1.363 . S
C1300 H1271 0.950 . S
C1300 C1299 1.397 . S
C1300 C1301 1.334 . S
C1301 H1272 0.950 . S
C1301 C1300 1.334 . S
C1301 C1302 1.287 . S
C1302 C1301 1.287 . S
C1302 C1303 1.524 . S
C1302 H1305 0.999 . S
C1303 H1273 0.950 . S
C1303 C1302 1.524 . S
C1303 C1304 1.415 . S
C1304 H1274 0.950 . S
C1304 C1299 1.363 . S
C1304 C1303 1.415 . S
H1305 C1302 0.999 . S
H1306 C1287 0.913 . S
H1307 C1325 0.951 . S
H1308 C1327 0.951 . S
H1309 C1329 0.950 . S
H1310 C1330 0.950 . S
H1311 C1332 0.950 . S
H1312 C1335 0.950 . S
H1313 C1336 0.950 . S
H1314 C1338 0.950 . S
H1315 C1339 0.950 . S
H1316 C1340 0.951 . S
H1317 C1342 0.951 . S
H1318 C1344 0.950 . S
H1319 C1345 0.950 . S
H1320 C1347 0.950 . S
H1321 C1350 0.950 . S
H1322 C1351 0.950 . S
H1323 C1353 0.950 . S
H1324 C1354 0.950 . S
C1325 H1307 0.951 . S
C1325 C1326 1.366 . S
C1325 C1327 1.388 . S
C1326 C1325 1.366 . S
C1326 C1330 1.385 . S
C1327 H1308 0.951 . S
C1327 C1325 1.388 . S
C1327 C1328 1.366 . S
C1328 C1327 1.366 . S
C1328 C1329 1.414 . S
C1328 C1331 1.499 . S
C1329 H1309 0.950 . S
C1329 C1328 1.414 . S
C1329 C1330 1.374 . S
C1330 H1310 0.950 . S
C1330 C1326 1.385 . S
C1330 C1329 1.374 . S
C1331 C1328 1.499 . S
C1331 C1332 1.373 . S
C1331 C1333 1.389 . S
C1332 H1311 0.950 . S
C1332 C1331 1.373 . S
C1332 C1348 1.377 . S
C1333 C1331 1.389 . S
C1333 C1334 1.524 . S
C1333 C1347 1.377 . S
C1334 C1333 1.524 . S
C1334 C1335 1.397 . S
C1334 C1339 1.363 . S
C1335 H1312 0.950 . S
C1335 C1334 1.397 . S
C1335 C1336 1.334 . S
C1336 H1313 0.950 . S
C1336 C1335 1.334 . S
C1336 C1337 1.287 . S
C1337 C1336 1.287 . S
C1337 C1338 1.524 . S
C1337 H1356 0.913 . S
C1338 H1314 0.950 . S
C1338 C1337 1.524 . S
C1338 C1339 1.415 . S
C1339 H1315 0.950 . S
C1339 C1334 1.363 . S
C1339 C1338 1.415 . S
C1340 H1316 0.951 . S
C1340 C1341 1.366 . S
C1340 C1342 1.388 . S
C1341 C1340 1.366 . S
C1341 C1345 1.385 . S
C1342 H1317 0.951 . S
C1342 C1340 1.388 . S
C1342 C1343 1.366 . S
C1343 C1342 1.366 . S
C1343 C1344 1.414 . S
C1343 C1346 1.499 1_565 S
C1344 H1318 0.950 . S
C1344 C1343 1.414 . S
C1344 C1345 1.374 . S
C1345 H1319 0.950 . S
C1345 C1341 1.385 . S
C1345 C1344 1.374 . S
C1346 C1343 1.499 1_545 S
C1346 C1347 1.373 . S
C1346 C1348 1.389 . S
C1347 H1320 0.950 . S
C1347 C1333 1.377 . S
C1347 C1346 1.373 . S
C1348 C1332 1.377 . S
C1348 C1346 1.389 . S
C1348 C1349 1.524 . S
C1349 C1348 1.524 . S
C1349 C1350 1.397 1_545 S
C1349 C1354 1.363 . S
C1350 H1321 0.950 . S
C1350 C1349 1.397 1_565 S
C1350 C1351 1.334 . S
C1351 H1322 0.950 . S
C1351 C1350 1.334 . S
C1351 C1352 1.301 . S
C1352 C1351 1.301 . S
C1352 C1353 1.513 1_565 S
C1352 H1355 0.995 . S
C1353 H1323 0.950 . S
C1353 C1352 1.513 1_545 S
C1353 C1354 1.415 . S
C1354 H1324 0.950 . S
C1354 C1349 1.363 . S
C1354 C1353 1.415 . S
H1355 C1352 0.995 . S
H1356 C1337 0.913 . S
H1357 C1375 0.951 . S
H1358 C1377 0.951 . S
H1359 C1379 0.950 . S
H1360 C1380 0.950 . S
H1361 C1382 0.946 1_655 S
H1362 C1385 0.950 . S
H1363 C1386 0.950 . S
H1364 C1388 0.950 . S
H1365 C1389 0.950 . S
H1366 C1390 0.951 . S
H1367 C1392 0.951 . S
H1368 C1394 0.950 . S
H1369 C1395 0.950 . S
H1370 C1397 0.950 . S
H1371 C1400 0.950 . S
H1372 C1401 0.950 . S
H1373 C1403 0.950 . S
H1374 C1404 0.950 . S
C1375 H1357 0.951 . S
C1375 C1376 1.366 . S
C1375 C1377 1.388 . S
C1376 C1375 1.366 . S
C1376 C1380 1.385 . S
C1377 H1358 0.951 . S
C1377 C1375 1.388 . S
C1377 C1378 1.366 . S
C1378 C1377 1.366 . S
C1378 C1379 1.414 . S
C1378 C1381 1.499 . S
C1379 H1359 0.950 . S
C1379 C1378 1.414 . S
C1379 C1380 1.374 . S
C1380 H1360 0.950 . S
C1380 C1376 1.385 . S
C1380 C1379 1.374 . S
C1381 C1378 1.499 . S
C1381 C1382 1.373 1_655 S
C1381 C1383 1.389 . S
C1382 H1361 0.946 1_455 S
C1382 C1381 1.373 1_455 S
C1382 C1398 1.377 . S
C1383 C1381 1.389 . S
C1383 C1384 1.524 . S
C1383 C1397 1.377 1_655 S
C1384 C1383 1.524 . S
C1384 C1385 1.397 . S
C1384 C1389 1.363 . S
C1385 H1362 0.950 . S
C1385 C1384 1.397 . S
C1385 C1386 1.334 . S
C1386 H1363 0.950 . S
C1386 C1385 1.334 . S
C1386 C1387 1.287 . S
C1387 C1386 1.287 . S
C1387 C1388 1.524 . S
C1387 H1406 0.913 . S
C1388 H1364 0.950 . S
C1388 C1387 1.524 . S
C1388 C1389 1.415 . S
C1389 H1365 0.950 . S
C1389 C1384 1.363 . S
C1389 C1388 1.415 . S
C1390 H1366 0.951 . S
C1390 C1391 1.366 . S
C1390 C1392 1.388 . S
C1391 C1390 1.366 . S
C1391 C1395 1.385 . S
C1392 H1367 0.951 . S
C1392 C1390 1.388 . S
C1392 C1393 1.366 . S
C1393 C1392 1.366 . S
C1393 C1394 1.414 . S
C1393 C1396 1.499 . S
C1394 H1368 0.950 . S
C1394 C1393 1.414 . S
C1394 C1395 1.374 . S
C1395 H1369 0.950 . S
C1395 C1391 1.385 . S
C1395 C1394 1.374 . S
C1396 C1393 1.499 . S
C1396 C1397 1.373 . S
C1396 C1398 1.389 . S
C1397 H1370 0.950 . S
C1397 C1383 1.377 1_455 S
C1397 C1396 1.373 . S
C1398 C1382 1.377 . S
C1398 C1396 1.389 . S
C1398 C1399 1.524 . S
C1399 C1398 1.524 . S
C1399 C1400 1.397 . S
C1399 C1404 1.363 . S
C1400 H1371 0.950 . S
C1400 C1399 1.397 . S
C1400 C1401 1.334 . S
C1401 H1372 0.950 . S
C1401 C1400 1.334 . S
C1401 C1402 1.287 . S
C1402 C1401 1.287 . S
C1402 C1403 1.524 . S
C1402 H1405 0.999 . S
C1403 H1373 0.950 . S
C1403 C1402 1.524 . S
C1403 C1404 1.415 . S
C1404 H1374 0.950 . S
C1404 C1399 1.363 . S
C1404 C1403 1.415 . S
H1405 C1402 0.999 . S
H1406 C1387 0.913 . S
H1407 C1425 0.951 . S
H1408 C1427 0.951 . S
H1409 C1429 0.950 . S
H1410 C1430 0.950 . S
H1411 C1432 0.950 . S
H1412 C1435 0.950 . S
H1413 C1436 0.950 . S
H1414 C1438 0.950 . S
H1415 C1439 0.950 . S
H1416 C1440 0.951 . S
H1417 C1442 0.951 . S
H1418 C1444 0.950 . S
H1419 C1445 0.950 . S
H1420 C1447 0.950 . S
H1421 C1450 0.950 . S
H1422 C1451 0.950 . S
H1423 C1453 0.950 . S
H1424 C1454 0.950 . S
C1425 H1407 0.951 . S
C1425 C1426 1.366 . S
C1425 C1427 1.388 . S
C1426 C1425 1.366 . S
C1426 C1430 1.385 . S
C1427 H1408 0.951 . S
C1427 C1425 1.388 . S
C1427 C1428 1.366 . S
C1428 C1427 1.366 . S
C1428 C1429 1.414 . S
C1428 C1431 1.499 . S
C1429 H1409 0.950 . S
C1429 C1428 1.414 . S
C1429 C1430 1.374 . S
C1430 H1410 0.950 . S
C1430 C1426 1.385 . S
C1430 C1429 1.374 . S
C1431 C1428 1.499 . S
C1431 C1432 1.373 . S
C1431 C1433 1.389 . S
C1432 H1411 0.950 . S
C1432 C1431 1.373 . S
C1432 C1448 1.377 . S
C1433 C1431 1.389 . S
C1433 C1434 1.524 . S
C1433 C1447 1.377 . S
C1434 C1433 1.524 . S
C1434 C1435 1.397 . S
C1434 C1439 1.363 . S
C1435 H1412 0.950 . S
C1435 C1434 1.397 . S
C1435 C1436 1.334 . S
C1436 H1413 0.950 . S
C1436 C1435 1.334 . S
C1436 C1437 1.287 . S
C1437 C1436 1.287 . S
C1437 C1438 1.524 . S
C1437 H1456 0.913 . S
C1438 H1414 0.950 . S
C1438 C1437 1.524 . S
C1438 C1439 1.415 . S
C1439 H1415 0.950 . S
C1439 C1434 1.363 . S
C1439 C1438 1.415 . S
C1440 H1416 0.951 . S
C1440 C1441 1.366 . S
C1440 C1442 1.388 . S
C1441 C1440 1.366 . S
C1441 C1445 1.385 . S
C1442 H1417 0.951 . S
C1442 C1440 1.388 . S
C1442 C1443 1.366 . S
C1443 C1442 1.366 . S
C1443 C1444 1.414 . S
C1443 C1446 1.499 . S
C1444 H1418 0.950 . S
C1444 C1443 1.414 . S
C1444 C1445 1.374 . S
C1445 H1419 0.950 . S
C1445 C1441 1.385 . S
C1445 C1444 1.374 . S
C1446 C1443 1.499 . S
C1446 C1447 1.373 . S
C1446 C1448 1.389 . S
C1447 H1420 0.950 . S
C1447 C1433 1.377 . S
C1447 C1446 1.373 . S
C1448 C1432 1.377 . S
C1448 C1446 1.389 . S
C1448 C1449 1.524 . S
C1449 C1448 1.524 . S
C1449 C1450 1.397 . S
C1449 C1454 1.363 . S
C1450 H1421 0.950 . S
C1450 C1449 1.397 . S
C1450 C1451 1.334 . S
C1451 H1422 0.950 . S
C1451 C1450 1.334 . S
C1451 C1452 1.287 . S
C1452 C1451 1.287 . S
C1452 C1453 1.524 . S
C1452 H1455 0.999 . S
C1453 H1423 0.950 . S
C1453 C1452 1.524 . S
C1453 C1454 1.415 . S
C1454 H1424 0.950 . S
C1454 C1449 1.363 . S
C1454 C1453 1.415 . S
H1455 C1452 0.999 . S
H1456 C1437 0.913 . S
H1457 C1475 0.951 . S
H1458 C1477 0.951 . S
H1459 C1479 0.950 . S
H1460 C1480 0.950 . S
H1461 C1482 0.950 . S
H1462 C1485 0.950 . S
H1463 C1486 0.950 . S
H1464 C1488 0.950 . S
H1465 C1489 0.950 1_545 S
H1466 C1490 0.951 . S
H1467 C1492 0.951 . S
H1468 C1494 0.950 . S
H1469 C1495 0.950 . S
H1470 C1497 0.950 . S
H1471 C1500 0.950 . S
H1472 C1501 0.950 . S
H1473 C1503 0.950 . S
H1474 C1504 0.950 . S
C1475 H1457 0.951 . S
C1475 C1476 1.366 . S
C1475 C1477 1.388 . S
C1476 C1475 1.366 . S
C1476 C1480 1.385 . S
C1477 H1458 0.951 . S
C1477 C1475 1.388 . S
C1477 C1478 1.366 . S
C1478 C1477 1.366 . S
C1478 C1479 1.414 . S
C1478 C1481 1.499 1_565 S
C1479 H1459 0.950 . S
C1479 C1478 1.414 . S
C1479 C1480 1.374 . S
C1480 H1460 0.950 . S
C1480 C1476 1.385 . S
C1480 C1479 1.374 . S
C1481 C1478 1.499 1_545 S
C1481 C1482 1.373 . S
C1481 C1483 1.389 . S
C1482 H1461 0.950 . S
C1482 C1481 1.373 . S
C1482 C1498 1.377 . S
C1483 C1481 1.389 . S
C1483 C1484 1.524 1_545 S
C1483 C1497 1.377 . S
C1484 C1483 1.524 1_565 S
C1484 C1485 1.397 . S
C1484 C1489 1.363 . S
C1485 H1462 0.950 . S
C1485 C1484 1.397 . S
C1485 C1486 1.334 . S
C1486 H1463 0.950 . S
C1486 C1485 1.334 . S
C1486 C1487 1.287 . S
C1487 C1486 1.287 . S
C1487 C1488 1.524 . S
C1487 H1506 0.913 . S
C1488 H1464 0.950 . S
C1488 C1487 1.524 . S
C1488 C1489 1.415 . S
C1489 H1465 0.950 1_565 S
C1489 C1484 1.363 . S
C1489 C1488 1.415 . S
C1490 H1466 0.951 . S
C1490 C1491 1.366 . S
C1490 C1492 1.388 . S
C1491 C1490 1.366 . S
C1491 C1495 1.385 . S
C1492 H1467 0.951 . S
C1492 C1490 1.388 . S
C1492 C1493 1.366 . S
C1493 C1492 1.366 . S
C1493 C1494 1.414 . S
C1493 C1496 1.499 . S
C1494 H1468 0.950 . S
C1494 C1493 1.414 . S
C1494 C1495 1.374 . S
C1495 H1469 0.950 . S
C1495 C1491 1.385 . S
C1495 C1494 1.374 . S
C1496 C1493 1.499 . S
C1496 C1497 1.373 . S
C1496 C1498 1.389 . S
C1497 H1470 0.950 . S
C1497 C1483 1.377 . S
C1497 C1496 1.373 . S
C1498 C1482 1.377 . S
C1498 C1496 1.389 . S
C1498 C1499 1.524 . S
C1499 C1498 1.524 . S
C1499 C1500 1.397 . S
C1499 C1504 1.363 . S
C1500 H1471 0.950 . S
C1500 C1499 1.397 . S
C1500 C1501 1.334 . S
C1501 H1472 0.950 . S
C1501 C1500 1.334 . S
C1501 C1502 1.287 . S
C1502 C1501 1.287 . S
C1502 C1503 1.524 . S
C1502 H1505 0.999 . S
C1503 H1473 0.950 . S
C1503 C1502 1.524 . S
C1503 C1504 1.415 . S
C1504 H1474 0.950 . S
C1504 C1499 1.363 . S
C1504 C1503 1.415 . S
H1505 C1502 0.999 . S
H1506 C1487 0.913 . S
H1507 C1525 0.951 . S
H1508 C1527 0.951 . S
H1509 C1529 0.950 . S
H1510 C1530 0.950 . S
H1511 C1532 0.950 . S
H1512 C1535 0.950 . S
H1513 C1536 0.950 . S
H1514 C1538 0.950 . S
H1515 C1539 0.950 . S
H1516 C1540 0.951 . S
H1517 C1542 0.951 . S
H1518 C1544 0.950 . S
H1519 C1545 0.950 . S
H1520 C1547 0.951 1_455 S
H1521 C1550 0.950 . S
H1522 C1551 0.950 . S
H1523 C1553 0.950 . S
H1524 C1554 0.950 . S
C1525 H1507 0.951 . S
C1525 C1526 1.366 . S
C1525 C1527 1.388 . S
C1526 C1525 1.366 . S
C1526 C1530 1.385 . S
C1527 H1508 0.951 . S
C1527 C1525 1.388 . S
C1527 C1528 1.366 . S
C1528 C1527 1.366 . S
C1528 C1529 1.414 . S
C1528 C1531 1.499 . S
C1529 H1509 0.950 . S
C1529 C1528 1.414 . S
C1529 C1530 1.374 . S
C1530 H1510 0.950 . S
C1530 C1526 1.385 . S
C1530 C1529 1.374 . S
C1531 C1528 1.499 . S
C1531 C1532 1.373 . S
C1531 C1533 1.389 . S
C1532 H1511 0.950 . S
C1532 C1531 1.373 . S
C1532 C1548 1.377 1_655 S
C1533 C1531 1.389 . S
C1533 C1534 1.524 . S
C1533 C1547 1.409 . S
C1534 C1533 1.524 . S
C1534 C1535 1.397 . S
C1534 C1539 1.363 . S
C1535 H1512 0.950 . S
C1535 C1534 1.397 . S
C1535 C1536 1.334 . S
C1536 H1513 0.950 . S
C1536 C1535 1.334 . S
C1536 C1537 1.287 . S
C1537 C1536 1.287 . S
C1537 C1538 1.524 . S
C1537 H1556 0.913 . S
C1538 H1514 0.950 . S
C1538 C1537 1.524 . S
C1538 C1539 1.415 . S
C1539 H1515 0.950 . S
C1539 C1534 1.363 . S
C1539 C1538 1.415 . S
C1540 H1516 0.951 . S
C1540 C1541 1.366 . S
C1540 C1542 1.388 . S
C1541 C1540 1.366 . S
C1541 C1545 1.385 . S
C1542 H1517 0.951 . S
C1542 C1540 1.388 . S
C1542 C1543 1.366 . S
C1543 C1542 1.366 . S
C1543 C1544 1.414 . S
C1543 C1546 1.499 . S
C1544 H1518 0.950 . S
C1544 C1543 1.414 . S
C1544 C1545 1.374 . S
C1545 H1519 0.950 . S
C1545 C1541 1.385 . S
C1545 C1544 1.374 . S
C1546 C1543 1.499 . S
C1546 C1547 1.342 1_455 S
C1546 C1548 1.389 . S
C1547 H1520 0.951 1_655 S
C1547 C1533 1.409 . S
C1547 C1546 1.342 1_655 S
C1548 C1532 1.377 1_455 S
C1548 C1546 1.389 . S
C1548 C1549 1.524 . S
C1549 C1548 1.524 . S
C1549 C1550 1.397 . S
C1549 C1554 1.363 . S
C1550 H1521 0.950 . S
C1550 C1549 1.397 . S
C1550 C1551 1.334 . S
C1551 H1522 0.950 . S
C1551 C1550 1.334 . S
C1551 C1552 1.287 . S
C1552 C1551 1.287 . S
C1552 C1553 1.524 . S
C1552 H1555 0.999 . S
C1553 H1523 0.950 . S
C1553 C1552 1.524 . S
C1553 C1554 1.415 . S
C1554 H1524 0.950 . S
C1554 C1549 1.363 . S
C1554 C1553 1.415 . S
H1555 C1552 0.999 . S
H1556 C1537 0.913 . S
C226 C19 0.783 . S
C241 C20 0.774 . S
C276 C42 0.785 . S
C291 C43 0.776 . S
C326 C65 0.783 . S
C341 C66 0.773 . S
C376 C87 0.823 . S
C391 C90 0.804 . S
C426 C110 0.823 . S
C441 C113 0.803 . S
C476 C133 0.823 . S
C491 C136 0.805 . S
C526 C159 0.781 . S
C541 C156 0.792 . S
C576 C182 0.781 . S
C591 C179 0.792 . S
C626 C205 0.782 . S
C641 C202 0.792 . S
C676 C132 1.384 . S
C691 C16 1.373 . S
C726 C39 1.372 . S
C741 C86 1.384 . S
C776 C62 1.373 . S
C791 C109 1.383 . S
C826 C64 1.099 . S
C841 C157 1.083 . S
C876 C180 1.084 . S
C891 C18 1.099 . S
C926 C203 1.083 . S
C941 C41 1.099 . S
C976 C200 0.832 . S
C991 C17 0.835 . S
C1026 C40 0.834 . S
C1041 C154 0.832 . S
C1076 C177 0.832 . S
C1091 C63 0.835 . S
C1126 C67 1.025 . S
C1141 C89 1.032 . S
C1176 C112 1.030 . S
C1191 C21 1.026 . S
C1226 C44 1.025 . S
C1241 C135 1.032 . S
C1276 C201 1.216 . S
C1291 C88 1.191 . S
C1326 C155 1.216 . S
C1341 C111 1.191 . S
C1376 C178 1.216 . S
C1391 C134 1.191 . S
C1426 C158 0.886 . S
C1441 C131 0.918 . S
C1476 C85 0.918 . S
C1491 C181 0.886 . S
C1526 C204 0.887 . S
C1541 C108 0.918 . S
