# Generated by pormake.
# Topology sni, (6)-cn, num edge types: 1
# Building blocks:
#     Node 0, Type 0, BuildingBlock: MIDCAF_clean_sbu_0, # of connection points: 6
#     Node 1, Type 0, BuildingBlock: MIDCAF_clean_sbu_0, # of connection points: 6
#     Node 2, Type 0, BuildingBlock: MIDCAF_clean_sbu_0, # of connection points: 6
#     Node 3, Type 0, BuildingBlock: MIDCAF_clean_sbu_0, # of connection points: 6
#     Node 4, Type 0, BuildingBlock: MIDCAF_clean_sbu_0, # of connection points: 6
#     Node 5, Type 0, BuildingBlock: MIDCAF_clean_sbu_0, # of connection points: 6
#     Node 6, Type 0, BuildingBlock: MIDCAF_clean_sbu_0, # of connection points: 6
#     Node 7, Type 0, BuildingBlock: MIDCAF_clean_sbu_0, # of connection points: 6
#     Edge 8, Type (0, 0), BuildingBlock: AJUNOK_clean_linker_0, # of connection points: 2
#     Edge 9, Type (0, 0), BuildingBlock: AJUNOK_clean_linker_0, # of connection points: 2
#     Edge 10, Type (0, 0), BuildingBlock: AJUNOK_clean_linker_0, # of connection points: 2
#     Edge 11, Type (0, 0), BuildingBlock: AJUNOK_clean_linker_0, # of connection points: 2
#     Edge 12, Type (0, 0), BuildingBlock: AJUNOK_clean_linker_0, # of connection points: 2
#     Edge 13, Type (0, 0), BuildingBlock: AJUNOK_clean_linker_0, # of connection points: 2
#     Edge 14, Type (0, 0), BuildingBlock: AJUNOK_clean_linker_0, # of connection points: 2
#     Edge 15, Type (0, 0), BuildingBlock: AJUNOK_clean_linker_0, # of connection points: 2
#     Edge 16, Type (0, 0), BuildingBlock: AJUNOK_clean_linker_0, # of connection points: 2
#     Edge 17, Type (0, 0), BuildingBlock: AJUNOK_clean_linker_0, # of connection points: 2
#     Edge 18, Type (0, 0), BuildingBlock: AJUNOK_clean_linker_0, # of connection points: 2
#     Edge 19, Type (0, 0), BuildingBlock: AJUNOK_clean_linker_0, # of connection points: 2
#     Edge 20, Type (0, 0), BuildingBlock: AJUNOK_clean_linker_0, # of connection points: 2
#     Edge 21, Type (0, 0), BuildingBlock: AJUNOK_clean_linker_0, # of connection points: 2
#     Edge 22, Type (0, 0), BuildingBlock: AJUNOK_clean_linker_0, # of connection points: 2
#     Edge 23, Type (0, 0), BuildingBlock: AJUNOK_clean_linker_0, # of connection points: 2
#     Edge 24, Type (0, 0), BuildingBlock: AJUNOK_clean_linker_0, # of connection points: 2
#     Edge 25, Type (0, 0), BuildingBlock: AJUNOK_clean_linker_0, # of connection points: 2
#     Edge 26, Type (0, 0), BuildingBlock: AJUNOK_clean_linker_0, # of connection points: 2
#     Edge 27, Type (0, 0), BuildingBlock: AJUNOK_clean_linker_0, # of connection points: 2
#     Edge 28, Type (0, 0), BuildingBlock: AJUNOK_clean_linker_0, # of connection points: 2
#     Edge 29, Type (0, 0), BuildingBlock: AJUNOK_clean_linker_0, # of connection points: 2
#     Edge 30, Type (0, 0), BuildingBlock: AJUNOK_clean_linker_0, # of connection points: 2
#     Edge 31, Type (0, 0), BuildingBlock: AJUNOK_clean_linker_0, # of connection points: 2
# Relax obj value: 0.345
# Max RMSD: 0.257
# Mean RMSD: 0.257
data_MOF--net-sni--node1-MIDCAF_clean_sbu_0--edge1-AJUNOK_clean_linker_0
_symmetry_space_group_name_H-M    P1
_symmetry_Int_Tables_number       1
_symmetry_cell_setting            triclinic
loop_
_symmetry_equiv_pos_as_xyz
'x, y, z'
_cell_length_a     33.444275
_cell_length_b     33.881988
_cell_length_c     11.062065
_cell_angle_alpha  89.184533
_cell_angle_beta   89.722209
_cell_angle_gamma 89.503007
loop_
_atom_site_label
_atom_site_type_symbol
_atom_site_fract_x
_atom_site_fract_y
_atom_site_fract_z
_atom_type_partial_charge
Zn0 Zn 0.5993 0.09843 0.76682 0.0
Zn1 Zn 0.65203 0.05549 0.32912 0.0
Zn2 Zn 0.62632 0.07978 0.12106 0.0
C3 C 0.6524 -0.01042 0.18259 0.0
C4 C 0.57014 0.081 0.34428 0.0
O5 O 0.66618 0.12606 1.06158 0.0
O6 O 0.63909 0.12383 0.88225 0.0
C7 C 0.63171 0.0212 0.86835 0.0
O8 O 0.6367 0.01532 0.1101 0.0
O9 O 0.66646 0.00031 0.28264 0.0
O10 O 0.59748 0.0641 0.40489 0.0
O11 O 0.57507 0.08973 0.23216 0.0
O12 O 0.61807 0.04177 0.77943 0.0
O13 O 0.63376 0.03367 0.97869 0.0
O14 O 0.56461 0.1015 0.1154 0.0
O15 O 0.58949 0.10872 0.93885 0.0
C16 C 0.55882 0.1102 1.00482 0.0
O17 O 0.67103 0.12139 0.18814 0.0
O18 O 0.69131 0.09797 0.36499 0.0
C19 C 0.66367 0.13959 0.95319 0.0
C20 C 0.69067 0.1256 0.287 0.0
Zn21 Zn 0.77274 0.65616 0.90349 0.0
Zn22 Zn 0.74938 0.62795 0.3145 0.0
Zn23 Zn 0.78527 0.61176 0.11204 0.0
C24 C 0.82852 0.59893 0.35185 0.0
C25 C 0.74434 0.5494 0.2708 0.0
O26 O 0.72515 0.60587 1.04884 0.0
O27 O 0.72098 0.66793 0.99768 0.0
C28 C 0.85173 0.6494 0.9587 0.0
O29 O 0.8165 0.58135 0.25712 0.0
O30 O 0.80572 0.62501 0.39677 0.0
O31 O 0.71853 0.5752 0.30088 0.0
O32 O 0.77701 0.56091 0.22201 0.0
O33 O 0.82948 0.6785 0.92946 0.0
O34 O 0.83615 0.61853 1.00605 0.0
O35 O 0.81066 0.58256 0.95752 0.0
O36 O 0.77325 0.60367 0.80709 0.0
C37 C 0.7957 0.57715 0.85277 0.0
O38 O 0.79541 0.67169 0.16505 0.0
O39 O 0.73585 0.68193 0.24032 0.0
C40 C 0.70366 0.63514 1.0151 0.0
C41 C 0.76894 0.69573 0.20309 0.0
Zn42 Zn 0.32523 0.79228 0.30863 0.0
Zn43 Zn 0.33839 0.78029 0.87929 0.0
Zn44 Zn 0.33159 0.79201 1.09033 0.0
C45 C 0.4154 0.78096 0.93622 0.0
C46 C 0.30401 0.85455 0.90198 0.0
O47 O 0.28242 0.75095 0.15302 0.0
O48 O 0.29283 0.74684 0.34968 0.0
C49 C 0.4046 0.77912 0.27235 0.0
O50 O 0.39712 0.77942 1.03957 0.0
O51 O 0.39506 0.78454 0.84131 0.0
O52 O 0.30656 0.82695 0.82699 0.0
O53 O 0.31529 0.84881 1.01183 0.0
O54 O 0.38105 0.7882 0.35672 0.0
O55 O 0.39152 0.77648 0.16332 0.0
O56 O 0.31809 0.85401 0.14303 0.0
O57 O 0.30072 0.84475 0.33375 0.0
C58 C 0.306 0.86792 0.24507 0.0
O59 O 0.28552 0.75019 1.01888 0.0
O60 O 0.31359 0.72922 0.85039 0.0
C61 C 0.27338 0.73662 0.25853 0.0
C62 C 0.28486 0.72819 0.92425 0.0
Zn63 Zn 0.07825 0.29398 0.29783 0.0
Zn64 Zn 0.12175 0.30766 0.72276 0.0
Zn65 Zn 0.09672 0.30321 0.09635 0.0
C66 C 0.12919 0.36466 0.94683 0.0
C67 C 0.03929 0.29314 0.83896 0.0
O68 O 0.13483 0.25654 0.185 0.0
O69 O 0.12543 0.27071 0.37721 0.0
C70 C 0.0894 0.37319 0.27094 0.0
O71 O 0.12159 0.36138 1.05943 0.0
O72 O 0.12708 0.33301 0.88789 0.0
O73 O 0.06236 0.29586 0.74602 0.0
O74 O 0.05109 0.29615 0.95034 0.0
O75 O 0.06718 0.35073 0.33321 0.0
O76 O 0.1076 0.35988 0.17742 0.0
O77 O 0.03093 0.29436 0.10372 0.0
O78 O 0.03319 0.25763 0.26724 0.0
C79 C 0.01261 0.27387 0.18513 0.0
O80 O 0.14201 0.25888 1.06333 0.0
O81 O 0.1329 0.28605 0.88926 0.0
C82 C 0.14385 0.25144 0.29762 0.0
C83 C 0.15097 0.26005 0.95139 0.0
Zn84 Zn 0.66801 0.7805 0.79931 0.0
Zn85 Zn 0.65124 0.7481 0.37184 0.0
Zn86 Zn 0.63225 0.7933 0.57748 0.0
C87 C 0.63777 0.82697 0.29929 0.0
C88 C 0.57084 0.76422 0.40936 0.0
O89 O 0.62573 0.7324 0.62968 0.0
O90 O 0.68345 0.72791 0.72212 0.0
C91 C 0.6585 0.85803 0.74359 0.0
O92 O 0.62202 0.82558 0.40562 0.0
O93 O 0.65674 0.79718 0.26018 0.0
O94 O 0.59122 0.73271 0.39615 0.0
O95 O 0.58798 0.7949 0.44838 0.0
O96 O 0.689 0.83737 0.77171 0.0
O97 O 0.62884 0.84138 0.69374 0.0
O98 O 0.59204 0.8112 0.72332 0.0
O99 O 0.61268 0.77718 0.88244 0.0
C100 C 0.58475 0.79505 0.82678 0.0
O101 O 0.69405 0.80163 0.53945 0.0
O102 O 0.70025 0.74042 0.48337 0.0
C103 C 0.65271 0.71118 0.6799 0.0
C104 C 0.71661 0.773 0.50896 0.0
Zn105 Zn 0.07791 0.60448 0.39381 0.0
Zn106 Zn 0.09038 0.60143 0.82058 0.0
Zn107 Zn 0.08134 0.60005 0.60785 0.0
C108 C 0.11221 0.52619 0.7735 0.0
C109 C 0.01245 0.61974 0.79437 0.0
O110 O 0.12729 0.64043 0.52302 0.0
O111 O 0.10057 0.65579 0.3464 0.0
C112 C 0.10595 0.53168 0.43814 0.0
O113 O 0.09665 0.53838 0.673 0.0
O114 O 0.11795 0.55066 0.85633 0.0
O115 O 0.03558 0.60609 0.87433 0.0
O116 O 0.02385 0.62143 0.68296 0.0
O117 O 0.11219 0.55776 0.3581 0.0
O118 O 0.09142 0.54134 0.54144 0.0
O119 O 0.01584 0.61063 0.5602 0.0
O120 O 0.0205 0.59422 0.36926 0.0
C121 C -0.00114 0.60069 0.46046 0.0
O122 O 0.13153 0.64099 0.65491 0.0
O123 O 0.11999 0.64945 0.84924 0.0
C124 C 0.12839 0.65991 0.42156 0.0
C125 C 0.13977 0.65784 0.75574 0.0
Zn126 Zn 0.34256 0.10854 0.4064 0.0
Zn127 Zn 0.32072 0.09197 0.83176 0.0
Zn128 Zn 0.32666 0.09294 0.61652 0.0
C129 C 0.39652 0.11052 0.81879 0.0
C130 C 0.3056 0.01609 0.75841 0.0
O131 O 0.28436 0.13955 0.54763 0.0
O132 O 0.29709 0.13897 0.35139 0.0
C133 C 0.4119 0.11936 0.49675 0.0
O134 O 0.38611 0.10086 0.71082 0.0
O135 O 0.36996 0.11507 0.89858 0.0
O136 O 0.31522 0.03523 0.85042 0.0
O137 O 0.30628 0.03265 0.65311 0.0
O138 O 0.39478 0.13451 0.40606 0.0
O139 O 0.3911 0.10253 0.581 0.0
O140 O 0.31238 0.03716 0.5229 0.0
O141 O 0.34169 0.05333 0.35063 0.0
C142 C 0.32384 0.02798 0.41522 0.0
O143 O 0.28085 0.13907 0.67479 0.0
O144 O 0.27128 0.11979 0.86376 0.0
C145 C 0.27584 0.15042 0.4383 0.0
C146 C 0.26227 0.14245 0.77701 0.0
Zn147 Zn 0.80056 0.33503 0.80421 0.0
Zn148 Zn 0.76309 0.33008 0.27777 0.0
Zn149 Zn 0.79664 0.33036 0.59232 0.0
C150 C 0.8526 0.31231 0.36506 0.0
C151 C 0.741 0.38966 0.45751 0.0
O152 O 0.76066 0.28438 0.68744 0.0
O153 O 0.75553 0.30543 0.87477 0.0
C154 C 0.87348 0.30581 0.71213 0.0
O155 O 0.8479 0.31649 0.47992 0.0
O156 O 0.82365 0.3171 0.29182 0.0
O157 O 0.72703 0.36022 0.4025 0.0
O158 O 0.77034 0.38441 0.53041 0.0
O159 O 0.8514 0.3051 0.80476 0.0
O160 O 0.85944 0.31813 0.61078 0.0
O161 O 0.78851 0.39442 0.63957 0.0
O162 O 0.80715 0.3924 0.83001 0.0
C163 C 0.79848 0.41239 0.73663 0.0
O164 O 0.75806 0.28198 0.55617 0.0
O165 O 0.72448 0.31176 0.41141 0.0
C166 C 0.74691 0.28047 0.7957 0.0
C167 C 0.73338 0.28019 0.46849 0.0
C168 C 0.48158 0.13976 0.45297 0.0
C169 C 0.45441 0.10997 0.48458 0.0
C170 C 0.52001 0.13009 0.41168 0.0
C171 C 0.53209 0.09047 0.40168 0.0
H172 H 0.47241 0.1705 0.45474 0.0
H173 H 0.53994 0.1536 0.38375 0.0
S174 S 0.47071 0.00189 0.4584 0.0
N175 N 0.44109 0.03943 0.49256 0.0
N176 N 0.51406 0.02152 0.41994 0.0
C177 C 0.50556 0.0605 0.43426 0.0
C178 C 0.46636 0.07023 0.47449 0.0
C179 C 0.70859 0.49439 0.381 0.0
C180 C 0.74037 0.50726 0.30641 0.0
C181 C 0.70753 0.45542 0.42644 0.0
C182 C 0.73829 0.42853 0.39875 0.0
H183 H 0.68516 0.51479 0.40772 0.0
H184 H 0.68352 0.44677 0.48707 0.0
S185 S 0.82595 0.44552 0.20023 0.0
N186 N 0.80156 0.48806 0.19968 0.0
N187 N 0.79963 0.41583 0.28853 0.0
C188 C 0.76909 0.44033 0.32097 0.0
C189 C 0.77011 0.47948 0.27371 0.0
C190 C 0.51135 0.74073 0.29282 0.0
C191 C 0.52854 0.76768 0.37274 0.0
C192 C 0.47131 0.74505 0.25623 0.0
C193 C 0.44743 0.77609 0.30005 0.0
H194 H 0.5289 0.71637 0.25799 0.0
H195 H 0.45877 0.72364 0.19565 0.0
S196 S 0.47811 0.85492 0.50864 0.0
N197 N 0.51821 0.82677 0.49321 0.0
N198 N 0.44377 0.83481 0.42321 0.0
C199 C 0.46441 0.80343 0.37826 0.0
C200 C 0.5048 0.79925 0.41499 0.0
C201 C 0.06206 0.43438 0.35865 0.0
C202 C 0.09461 0.41411 0.30778 0.0
C203 C 0.06662 0.47236 0.40298 0.0
C204 C 0.10396 0.49086 0.39977 0.0
H205 H 0.03288 0.4208 0.36437 0.0
H206 H 0.04064 0.48747 0.43964 0.0
S207 S 0.19793 0.45137 0.26989 0.0
N208 N 0.16512 0.41572 0.25231 0.0
N209 N 0.17336 0.48782 0.33564 0.0
C210 C 0.13646 0.47163 0.34571 0.0
C211 C 0.13187 0.4329 0.29993 0.0
C212 C 0.52647 0.80463 0.97124 0.0
C213 C 0.54259 0.78921 0.86376 0.0
C214 C 0.48541 0.80027 0.99951 0.0
C215 C 0.4597 0.77951 0.92258 0.0
H216 H 0.54525 0.82135 1.03101 0.0
H217 H 0.47345 0.81477 1.07853 0.0
S218 S 0.48939 0.72823 0.64145 0.0
N219 N 0.53081 0.74939 0.68724 0.0
N220 N 0.45483 0.73997 0.74182 0.0
C221 C 0.47646 0.76209 0.81915 0.0
C222 C 0.51757 0.7672 0.78946 0.0
C223 C 0.15275 0.43448 0.93412 0.0
C224 C 0.12949 0.40403 0.88732 0.0
C225 C 0.14868 0.47349 0.89084 0.0
C226 C 0.12065 0.48372 0.80036 0.0
H227 H 0.17365 0.42824 1.00637 0.0
H228 H 0.16666 0.49607 0.93191 0.0
S229 S 0.04996 0.41479 0.658 0.0
N230 N 0.077 0.38643 0.74881 0.0
N231 N 0.0677 0.45986 0.67177 0.0
C232 C 0.09753 0.45326 0.75234 0.0
C233 C 0.10233 0.41341 0.79487 0.0
C234 C 0.45135 0.14087 0.93928 0.0
C235 C 0.43908 0.11245 0.85553 0.0
C236 C 0.49025 0.14024 0.98742 0.0
C237 C 0.51821 0.11129 0.95284 0.0
H238 H 0.4305 0.16339 0.96926 0.0
H239 H 0.49847 0.16242 1.05215 0.0
S240 S 0.49927 0.02641 0.75553 0.0
N241 N 0.45682 0.05172 0.75376 0.0
N242 N 0.53012 0.05158 0.84028 0.0
C243 C 0.50623 0.08247 0.87128 0.0
C244 C 0.46662 0.08279 0.82348 0.0
C245 C 0.77121 0.5217 0.7246 0.0
C246 C 0.80167 0.53823 0.79513 0.0
C247 C 0.77134 0.48111 0.69809 0.0
C248 C 0.80188 0.45595 0.74143 0.0
H249 H 0.74564 0.53949 0.69744 0.0
H250 H 0.74606 0.46894 0.65128 0.0
S251 S 0.89285 0.4863 0.90574 0.0
N252 N 0.86641 0.52738 0.88963 0.0
N253 N 0.86646 0.45158 0.84084 0.0
C254 C 0.83425 0.47291 0.80192 0.0
C255 C 0.83424 0.51396 0.82826 0.0
C256 C 0.91559 0.61294 0.96132 0.0
C257 C 0.89394 0.64645 0.92154 0.0
C258 C 0.95336 0.60451 0.91636 0.0
C259 C -0.02832 0.62966 0.83178 0.0
H260 H 0.90297 0.59215 1.02592 0.0
H261 H -0.03172 0.57778 0.94791 0.0
S262 S 0.93112 0.72436 0.71176 0.0
N263 N 0.89507 0.70687 0.79958 0.0
N264 N -0.03181 0.69185 0.71985 0.0
C265 C 0.9519 0.66464 0.79637 0.0
C266 C 0.91252 0.67292 0.84037 0.0
C267 C 0.3131 0.94541 0.70557 0.0
C268 C 0.29561 -0.02551 0.7777 0.0
C269 C 0.31271 0.90582 0.74292 0.0
C270 C 0.29577 0.89448 0.85494 0.0
H271 H 0.33006 -0.04646 0.6256 0.0
H272 H 0.32859 0.88448 0.68817 0.0
S273 S 0.23965 -0.0411 1.06443 0.0
N274 N 0.25579 -0.01103 0.95646 0.0
N275 N 0.25576 0.9144 1.02762 0.0
C276 C 0.27538 0.92283 0.92277 0.0
C277 C 0.2752 -0.03703 0.88382 0.0
C278 C 0.94024 0.27251 0.69004 0.0
C279 C 0.91641 0.30336 0.73447 0.0
C280 C -0.01989 0.26824 0.72786 0.0
C281 C -0.00356 0.29405 0.81308 0.0
H282 H 0.92793 0.25151 0.62771 0.0
H283 H -0.0017 0.24472 0.69053 0.0
S284 S 0.94603 0.38035 0.95033 0.0
N285 N 0.91189 0.36079 0.86282 0.0
N286 N -0.0137 0.3523 0.93531 0.0
C287 C -0.02724 0.32502 0.85676 0.0
C288 C 0.93279 0.32977 0.81691 0.0
C289 C 0.61011 -0.04251 0.79143 0.0
C290 C 0.64032 -0.02035 0.844 0.0
C291 C 0.61676 0.91844 0.75965 0.0
C292 C 0.65411 0.89984 0.77845 0.0
H293 H 0.58091 -0.02947 0.7745 0.0
H294 H 0.59208 0.90283 0.71979 0.0
S295 S 0.74472 0.94729 0.90104 0.0
N296 N 0.70979 -0.01792 0.9065 0.0
N297 N 0.72279 0.90786 0.84627 0.0
C298 C 0.68509 0.92205 0.8292 0.0
C299 C 0.67807 -0.03781 0.86223 0.0
C300 C -0.03465 0.30031 0.33731 0.0
C301 C -0.02895 0.28414 0.22158 0.0
C302 C 0.92724 0.30918 0.38257 0.0
C303 C 0.89279 0.30216 0.31458 0.0
H304 H -0.00915 0.30631 0.39413 0.0
H305 H 0.925 0.32216 0.4711 0.0
S306 S 0.89084 0.256 1.01191 0.0
N307 N 0.93896 0.2589 1.04328 0.0
N308 N 0.86677 0.27571 0.12722 0.0
C309 C 0.89792 0.28556 0.19875 0.0
C310 C 0.9371 0.27652 0.15252 0.0
C311 C 0.67233 0.87975 0.17909 0.0
C312 C 0.63688 0.86503 0.23131 0.0
C313 C 0.67659 0.92026 0.153 0.0
C314 C 0.64469 0.94691 0.16952 0.0
H315 H 0.69828 0.86079 0.16956 0.0
H316 H 0.70583 0.93116 0.12856 0.0
S317 S 0.54359 0.92216 0.28534 0.0
N318 N 0.56814 0.87965 0.28804 0.0
N319 N 0.57522 -0.04499 0.22972 0.0
C320 C 0.60779 0.93175 0.20916 0.0
C321 C 0.60401 0.89094 0.2414 0.0
C322 C 0.88556 0.61592 0.49008 0.0
C323 C 0.87038 0.59276 0.39612 0.0
C324 C 0.92685 0.61735 0.51444 0.0
C325 C 0.95467 0.59524 0.4477 0.0
H326 H 0.86565 0.63448 0.54192 0.0
H327 H 0.93717 0.63752 0.58108 0.0
S328 S 0.92988 0.52272 0.21057 0.0
N329 N 0.88635 0.54238 0.24826 0.0
N330 N -0.03679 0.54432 0.29631 0.0
C331 C 0.93946 0.56911 0.36111 0.0
C332 C 0.89759 0.56791 0.33532 0.0
C333 C 0.28197 0.92518 0.36657 0.0
C334 C 0.30534 0.91082 0.26992 0.0
C335 C 0.28734 -0.03668 0.41159 0.0
C336 C 0.31684 -0.01167 0.36335 0.0
H337 H 0.2602 0.90627 0.4106 0.0
H338 H 0.26885 -0.02712 0.48647 0.0
S339 S 0.38412 -0.03413 0.10365 0.0
N340 N 0.35723 0.92563 0.12232 0.0
N341 N 0.36812 -0.00327 0.20766 0.0
C342 C 0.33915 -0.02505 0.26278 0.0
C343 C 0.33323 0.93636 0.21599 0.0
C344 C 0.74127 0.20636 0.46394 0.0
C345 C 0.72292 0.24115 0.41863 0.0
C346 C 0.73242 0.16925 0.4164 0.0
C347 C 0.70482 0.16535 0.32178 0.0
H348 H 0.76255 0.20766 0.53725 0.0
H349 H 0.74667 0.14333 0.45595 0.0
S350 S 0.6485 0.24738 0.17138 0.0
N351 N 0.67657 0.26931 0.27197 0.0
N352 N 0.65867 0.19987 0.18626 0.0
C353 C 0.6866 0.20002 0.27502 0.0
C354 C 0.69595 0.23777 0.3225 0.0
C355 C 0.75702 0.76731 0.2283 0.0
C356 C 0.78092 0.73388 0.25293 0.0
C357 C 0.74694 0.79323 0.32195 0.0
C358 C 0.75394 0.7815 0.44241 0.0
H359 H 0.74211 0.77063 0.14199 0.0
H360 H 0.72568 0.81657 0.30371 0.0
S361 S 0.83545 0.71396 0.53702 0.0
N362 N 0.83 0.7057 0.39114 0.0
N363 N 0.80246 0.74862 0.5719 0.0
C364 C 0.7863 0.75576 0.46143 0.0
C365 C 0.80088 0.73248 0.36423 0.0
C366 C 0.23785 0.68319 0.36987 0.0
C367 C 0.23669 0.71388 0.28278 0.0
C368 C 0.20264 0.66688 0.4175 0.0
C369 C 0.16486 0.68093 0.38114 0.0
H370 H 0.26631 0.67225 0.40347 0.0
H371 H 0.20507 0.6425 0.48117 0.0
S372 S 0.14542 0.76274 0.16212 0.0
N373 N 0.19466 0.75921 0.16758 0.0
N374 N 0.12837 0.72788 0.25415 0.0
C375 C 0.16326 0.71154 0.2938 0.0
C376 C 0.19917 0.72817 0.24539 0.0
C377 C 0.23167 0.209 0.47187 0.0
C378 C 0.24026 0.17426 0.40939 0.0
C379 C 0.19987 0.23357 0.43584 0.0
C380 C 0.17628 0.22443 0.33494 0.0
H381 H 0.25019 0.21769 0.54684 0.0
H382 H 0.19436 0.26043 0.48547 0.0
S383 S 0.18548 0.13531 0.14628 0.0
N384 N 0.22181 0.13074 0.24614 0.0
N385 N 0.1623 0.17717 0.1778 0.0
C386 C 0.18416 0.18934 0.27338 0.0
C387 C 0.21621 0.16422 0.31065 0.0
C388 C 0.17645 0.71432 0.84041 0.0
C389 C 0.17733 0.67887 0.77577 0.0
C390 C 0.21126 0.72938 0.8921 0.0
C391 C 0.24789 0.70891 0.88438 0.0
H392 H 0.14841 0.73 0.85355 0.0
H393 H 0.20968 0.75773 0.9357 0.0
S394 S 0.26565 0.61402 0.7291 0.0
N395 N 0.21752 0.6232 0.70962 0.0
N396 N 0.28305 0.65159 0.80592 0.0
C397 C 0.24922 0.67368 0.81875 0.0
C398 C 0.2139 0.65859 0.76502 0.0
C399 C 0.20068 0.18507 0.74463 0.0
C400 C 0.23633 0.17642 0.80681 0.0
C401 C 0.17354 0.21357 0.78896 0.0
C402 C 0.18078 0.23292 0.89862 0.0
H403 H 0.19299 0.16868 0.66487 0.0
H404 H 0.14596 0.21917 0.74038 0.0
S405 S 0.27093 0.22227 1.08987 0.0
N406 N 0.27846 0.19128 0.97825 0.0
N407 N 0.22709 0.24328 1.06306 0.0
C408 C 0.21671 0.22513 0.95913 0.0
C409 C 0.2445 0.19715 0.91296 0.0
C410 C 0.69295 0.23074 0.77169 0.0
C411 C 0.72659 0.24408 0.83344 0.0
C412 C 0.67323 0.19644 0.81041 0.0
C413 C 0.68707 0.17398 0.91046 0.0
H414 H 0.68126 0.24739 0.69515 0.0
H415 H 0.64649 0.18792 0.7628 0.0
S416 S 0.77885 0.19324 1.0866 0.0
N417 N 0.7755 0.23083 0.99054 0.0
N418 N 0.74009 0.16497 1.05843 0.0
C419 C 0.72227 0.18593 0.96773 0.0
C420 C 0.74161 0.22138 0.93041 0.0
C421 C 0.6691 0.64095 0.71888 0.0
C422 C 0.64243 0.6727 0.73483 0.0
C423 C 0.67974 0.61673 0.81788 0.0
C424 C 0.66919 0.62817 0.93574 0.0
H425 H 0.68547 0.63794 0.63472 0.0
H426 H 0.70249 0.59445 0.80479 0.0
S427 S 0.58272 0.69231 1.00981 0.0
N428 N 0.58955 0.69873 0.86278 0.0
N429 N 0.61745 0.66032 1.05444 0.0
C430 C 0.63551 0.6527 0.94697 0.0
C431 C 0.62079 0.67375 0.84383 0.0
loop_
_geom_bond_atom_site_label_1
_geom_bond_atom_site_label_2
_geom_bond_distance
_geom_bond_site_symmetry_2
_ccdc_geom_bond_type
Zn0 O6 1.920 . S
Zn0 O12 1.898 . S
Zn0 O15 1.905 . S
Zn1 O9 1.905 . S
Zn1 O10 1.898 . S
Zn1 O18 1.920 . S
Zn2 O5 2.080 1_554 S
Zn2 O8 2.114 . S
Zn2 O11 2.120 . S
Zn2 O13 2.120 1_554 S
Zn2 O14 2.114 1_554 S
Zn2 O17 2.080 . S
C3 O8 1.166 . S
C3 O9 1.182 . S
C4 O10 1.167 . S
C4 O11 1.299 . S
O5 Zn2 2.080 1_556 S
O5 C19 1.305 . S
O6 Zn0 1.920 . S
O6 C19 1.234 . S
C7 O12 1.167 . S
C7 O13 1.299 . S
O8 Zn2 2.114 . S
O8 C3 1.166 . S
O9 Zn1 1.905 . S
O9 C3 1.182 . S
O10 Zn1 1.898 . S
O10 C4 1.167 . S
O11 Zn2 2.120 . S
O11 C4 1.299 . S
O12 Zn0 1.898 . S
O12 C7 1.167 . S
O13 Zn2 2.120 1_556 S
O13 C7 1.299 . S
O14 Zn2 2.114 1_556 S
O14 C16 1.166 . S
O15 Zn0 1.905 . S
O15 C16 1.182 . S
C16 O14 1.166 . S
C16 O15 1.182 . S
O17 Zn2 2.080 . S
O17 C20 1.305 . S
O18 Zn1 1.920 . S
O18 C20 1.234 . S
C19 O5 1.305 . S
C19 O6 1.234 . S
C20 O17 1.305 . S
C20 O18 1.234 . S
Zn21 O27 1.920 . S
Zn21 O33 1.898 . S
Zn21 O36 1.905 . S
Zn22 O30 1.905 . S
Zn22 O31 1.898 . S
Zn22 O39 1.920 . S
Zn23 O26 2.080 1_554 S
Zn23 O29 2.114 . S
Zn23 O32 2.120 . S
Zn23 O34 2.120 1_554 S
Zn23 O35 2.114 1_554 S
Zn23 O38 2.080 . S
C24 O29 1.166 . S
C24 O30 1.182 . S
C25 O31 1.167 . S
C25 O32 1.299 . S
O26 Zn23 2.080 1_556 S
O26 C40 1.305 . S
O27 Zn21 1.920 . S
O27 C40 1.234 . S
C28 O33 1.167 . S
C28 O34 1.299 . S
O29 Zn23 2.114 . S
O29 C24 1.166 . S
O30 Zn22 1.905 . S
O30 C24 1.182 . S
O31 Zn22 1.898 . S
O31 C25 1.167 . S
O32 Zn23 2.120 . S
O32 C25 1.299 . S
O33 Zn21 1.898 . S
O33 C28 1.167 . S
O34 Zn23 2.120 1_556 S
O34 C28 1.299 . S
O35 Zn23 2.114 1_556 S
O35 C37 1.166 . S
O36 Zn21 1.905 . S
O36 C37 1.182 . S
C37 O35 1.166 . S
C37 O36 1.182 . S
O38 Zn23 2.080 . S
O38 C41 1.305 . S
O39 Zn22 1.920 . S
O39 C41 1.234 . S
C40 O26 1.305 . S
C40 O27 1.234 . S
C41 O38 1.305 . S
C41 O39 1.234 . S
Zn42 O48 1.920 . S
Zn42 O54 1.898 . S
Zn42 O57 1.905 . S
Zn43 O51 1.905 . S
Zn43 O52 1.898 . S
Zn43 O60 1.920 . S
Zn44 O47 2.080 . S
Zn44 O50 2.114 1_554 S
Zn44 O53 2.120 1_554 S
Zn44 O55 2.120 . S
Zn44 O56 2.114 . S
Zn44 O59 2.080 1_554 S
C45 O50 1.166 . S
C45 O51 1.182 . S
C46 O52 1.167 . S
C46 O53 1.299 . S
O47 Zn44 2.080 . S
O47 C61 1.305 . S
O48 Zn42 1.920 . S
O48 C61 1.234 . S
C49 O54 1.167 . S
C49 O55 1.299 . S
O50 Zn44 2.114 1_556 S
O50 C45 1.166 . S
O51 Zn43 1.905 . S
O51 C45 1.182 . S
O52 Zn43 1.898 . S
O52 C46 1.167 . S
O53 Zn44 2.120 1_556 S
O53 C46 1.299 . S
O54 Zn42 1.898 . S
O54 C49 1.167 . S
O55 Zn44 2.120 . S
O55 C49 1.299 . S
O56 Zn44 2.114 . S
O56 C58 1.166 . S
O57 Zn42 1.905 . S
O57 C58 1.182 . S
C58 O56 1.166 . S
C58 O57 1.182 . S
O59 Zn44 2.080 1_556 S
O59 C62 1.305 . S
O60 Zn43 1.920 . S
O60 C62 1.234 . S
C61 O47 1.305 . S
C61 O48 1.234 . S
C62 O59 1.305 . S
C62 O60 1.234 . S
Zn63 O69 1.920 . S
Zn63 O75 1.898 . S
Zn63 O78 1.905 . S
Zn64 O72 1.905 . S
Zn64 O73 1.898 . S
Zn64 O81 1.920 . S
Zn65 O68 2.080 . S
Zn65 O71 2.114 1_554 S
Zn65 O74 2.120 1_554 S
Zn65 O76 2.120 . S
Zn65 O77 2.114 . S
Zn65 O80 2.080 1_554 S
C66 O71 1.166 . S
C66 O72 1.182 . S
C67 O73 1.167 . S
C67 O74 1.299 . S
O68 Zn65 2.080 . S
O68 C82 1.305 . S
O69 Zn63 1.920 . S
O69 C82 1.234 . S
C70 O75 1.167 . S
C70 O76 1.299 . S
O71 Zn65 2.114 1_556 S
O71 C66 1.166 . S
O72 Zn64 1.905 . S
O72 C66 1.182 . S
O73 Zn64 1.898 . S
O73 C67 1.167 . S
O74 Zn65 2.120 1_556 S
O74 C67 1.299 . S
O75 Zn63 1.898 . S
O75 C70 1.167 . S
O76 Zn65 2.120 . S
O76 C70 1.299 . S
O77 Zn65 2.114 . S
O77 C79 1.166 . S
O78 Zn63 1.905 . S
O78 C79 1.182 . S
C79 O77 1.166 . S
C79 O78 1.182 . S
O80 Zn65 2.080 1_556 S
O80 C83 1.305 . S
O81 Zn64 1.920 . S
O81 C83 1.234 . S
C82 O68 1.305 . S
C82 O69 1.234 . S
C83 O80 1.305 . S
C83 O81 1.234 . S
Zn84 O90 1.920 . S
Zn84 O96 1.898 . S
Zn84 O99 1.905 . S
Zn85 O93 1.905 . S
Zn85 O94 1.898 . S
Zn85 O102 1.920 . S
Zn86 O89 2.080 . S
Zn86 O92 2.114 . S
Zn86 O95 2.120 . S
Zn86 O97 2.120 . S
Zn86 O98 2.114 . S
Zn86 O101 2.080 . S
C87 O92 1.166 . S
C87 O93 1.182 . S
C88 O94 1.167 . S
C88 O95 1.299 . S
O89 Zn86 2.080 . S
O89 C103 1.305 . S
O90 Zn84 1.920 . S
O90 C103 1.234 . S
C91 O96 1.167 . S
C91 O97 1.299 . S
O92 Zn86 2.114 . S
O92 C87 1.166 . S
O93 Zn85 1.905 . S
O93 C87 1.182 . S
O94 Zn85 1.898 . S
O94 C88 1.167 . S
O95 Zn86 2.120 . S
O95 C88 1.299 . S
O96 Zn84 1.898 . S
O96 C91 1.167 . S
O97 Zn86 2.120 . S
O97 C91 1.299 . S
O98 Zn86 2.114 . S
O98 C100 1.166 . S
O99 Zn84 1.905 . S
O99 C100 1.182 . S
C100 O98 1.166 . S
C100 O99 1.182 . S
O101 Zn86 2.080 . S
O101 C104 1.305 . S
O102 Zn85 1.920 . S
O102 C104 1.234 . S
C103 O89 1.305 . S
C103 O90 1.234 . S
C104 O101 1.305 . S
C104 O102 1.234 . S
Zn105 O111 1.920 . S
Zn105 O117 1.898 . S
Zn105 O120 1.905 . S
Zn106 O114 1.905 . S
Zn106 O115 1.898 . S
Zn106 O123 1.920 . S
Zn107 O110 2.080 . S
Zn107 O113 2.114 . S
Zn107 O116 2.120 . S
Zn107 O118 2.120 . S
Zn107 O119 2.114 . S
Zn107 O122 2.080 . S
C108 O113 1.166 . S
C108 O114 1.182 . S
C109 O115 1.167 . S
C109 O116 1.299 . S
O110 Zn107 2.080 . S
O110 C124 1.305 . S
O111 Zn105 1.920 . S
O111 C124 1.234 . S
C112 O117 1.167 . S
C112 O118 1.299 . S
O113 Zn107 2.114 . S
O113 C108 1.166 . S
O114 Zn106 1.905 . S
O114 C108 1.182 . S
O115 Zn106 1.898 . S
O115 C109 1.167 . S
O116 Zn107 2.120 . S
O116 C109 1.299 . S
O117 Zn105 1.898 . S
O117 C112 1.167 . S
O118 Zn107 2.120 . S
O118 C112 1.299 . S
O119 Zn107 2.114 . S
O119 C121 1.166 . S
O120 Zn105 1.905 . S
O120 C121 1.182 . S
C121 O119 1.166 . S
C121 O120 1.182 . S
O122 Zn107 2.080 . S
O122 C125 1.305 . S
O123 Zn106 1.920 . S
O123 C125 1.234 . S
C124 O110 1.305 . S
C124 O111 1.234 . S
C125 O122 1.305 . S
C125 O123 1.234 . S
Zn126 O132 1.920 . S
Zn126 O138 1.898 . S
Zn126 O141 1.905 . S
Zn127 O135 1.905 . S
Zn127 O136 1.898 . S
Zn127 O144 1.920 . S
Zn128 O131 2.080 . S
Zn128 O134 2.114 . S
Zn128 O137 2.120 . S
Zn128 O139 2.120 . S
Zn128 O140 2.114 . S
Zn128 O143 2.080 . S
C129 O134 1.166 . S
C129 O135 1.182 . S
C130 O136 1.167 . S
C130 O137 1.299 . S
O131 Zn128 2.080 . S
O131 C145 1.305 . S
O132 Zn126 1.920 . S
O132 C145 1.234 . S
C133 O138 1.167 . S
C133 O139 1.299 . S
O134 Zn128 2.114 . S
O134 C129 1.166 . S
O135 Zn127 1.905 . S
O135 C129 1.182 . S
O136 Zn127 1.898 . S
O136 C130 1.167 . S
O137 Zn128 2.120 . S
O137 C130 1.299 . S
O138 Zn126 1.898 . S
O138 C133 1.167 . S
O139 Zn128 2.120 . S
O139 C133 1.299 . S
O140 Zn128 2.114 . S
O140 C142 1.166 . S
O141 Zn126 1.905 . S
O141 C142 1.182 . S
C142 O140 1.166 . S
C142 O141 1.182 . S
O143 Zn128 2.080 . S
O143 C146 1.305 . S
O144 Zn127 1.920 . S
O144 C146 1.234 . S
C145 O131 1.305 . S
C145 O132 1.234 . S
C146 O143 1.305 . S
C146 O144 1.234 . S
Zn147 O153 1.920 . S
Zn147 O159 1.898 . S
Zn147 O162 1.905 . S
Zn148 O156 1.905 . S
Zn148 O157 1.898 . S
Zn148 O165 1.920 . S
Zn149 O152 2.080 . S
Zn149 O155 2.114 . S
Zn149 O158 2.120 . S
Zn149 O160 2.120 . S
Zn149 O161 2.114 . S
Zn149 O164 2.080 . S
C150 O155 1.166 . S
C150 O156 1.182 . S
C151 O157 1.167 . S
C151 O158 1.299 . S
O152 Zn149 2.080 . S
O152 C166 1.305 . S
O153 Zn147 1.920 . S
O153 C166 1.234 . S
C154 O159 1.167 . S
C154 O160 1.299 . S
O155 Zn149 2.114 . S
O155 C150 1.166 . S
O156 Zn148 1.905 . S
O156 C150 1.182 . S
O157 Zn148 1.898 . S
O157 C151 1.167 . S
O158 Zn149 2.120 . S
O158 C151 1.299 . S
O159 Zn147 1.898 . S
O159 C154 1.167 . S
O160 Zn149 2.120 . S
O160 C154 1.299 . S
O161 Zn149 2.114 . S
O161 C163 1.166 . S
O162 Zn147 1.905 . S
O162 C163 1.182 . S
C163 O161 1.166 . S
C163 O162 1.182 . S
O164 Zn149 2.080 . S
O164 C167 1.305 . S
O165 Zn148 1.920 . S
O165 C167 1.234 . S
C166 O152 1.305 . S
C166 O153 1.234 . S
C167 O164 1.305 . S
C167 O165 1.234 . S
C168 C169 1.369 . S
C168 C170 1.419 . S
C168 H172 0.930 . S
C169 C168 1.369 . S
C169 C178 1.429 . S
C170 C168 1.419 . S
C170 C171 1.363 . S
C170 H173 0.929 . S
C171 C170 1.363 . S
C171 C177 1.428 . S
H172 C168 0.930 . S
H173 C170 0.929 . S
S174 N175 1.613 . S
S174 N176 1.610 . S
N175 S174 1.613 . S
N175 C178 1.350 . S
N176 S174 1.610 . S
N176 C177 1.351 . S
C177 C171 1.428 . S
C177 N176 1.351 . S
C177 C178 1.434 . S
C178 C169 1.429 . S
C178 N175 1.350 . S
C178 C177 1.434 . S
C179 C180 1.369 . S
C179 C181 1.419 . S
C179 H183 0.930 . S
C180 C179 1.369 . S
C180 C189 1.429 . S
C181 C179 1.419 . S
C181 C182 1.363 . S
C181 H184 0.929 . S
C182 C181 1.363 . S
C182 C188 1.428 . S
H183 C179 0.930 . S
H184 C181 0.929 . S
S185 N186 1.613 . S
S185 N187 1.610 . S
N186 S185 1.613 . S
N186 C189 1.350 . S
N187 S185 1.610 . S
N187 C188 1.351 . S
C188 C182 1.428 . S
C188 N187 1.351 . S
C188 C189 1.434 . S
C189 C180 1.429 . S
C189 N186 1.350 . S
C189 C188 1.434 . S
C190 C191 1.369 . S
C190 C192 1.419 . S
C190 H194 0.930 . S
C191 C190 1.369 . S
C191 C200 1.429 . S
C192 C190 1.419 . S
C192 C193 1.363 . S
C192 H195 0.929 . S
C193 C192 1.363 . S
C193 C199 1.428 . S
H194 C190 0.930 . S
H195 C192 0.929 . S
S196 N197 1.613 . S
S196 N198 1.610 . S
N197 S196 1.613 . S
N197 C200 1.350 . S
N198 S196 1.610 . S
N198 C199 1.351 . S
C199 C193 1.428 . S
C199 N198 1.351 . S
C199 C200 1.434 . S
C200 C191 1.429 . S
C200 N197 1.350 . S
C200 C199 1.434 . S
C201 C202 1.369 . S
C201 C203 1.419 . S
C201 H205 0.930 . S
C202 C201 1.369 . S
C202 C211 1.429 . S
C203 C201 1.419 . S
C203 C204 1.363 . S
C203 H206 0.929 . S
C204 C203 1.363 . S
C204 C210 1.428 . S
H205 C201 0.930 . S
H206 C203 0.929 . S
S207 N208 1.613 . S
S207 N209 1.610 . S
N208 S207 1.613 . S
N208 C211 1.350 . S
N209 S207 1.610 . S
N209 C210 1.351 . S
C210 C204 1.428 . S
C210 N209 1.351 . S
C210 C211 1.434 . S
C211 C202 1.429 . S
C211 N208 1.350 . S
C211 C210 1.434 . S
C212 C213 1.369 . S
C212 C214 1.419 . S
C212 H216 0.930 . S
C213 C212 1.369 . S
C213 C222 1.429 . S
C214 C212 1.419 . S
C214 C215 1.363 . S
C214 H217 0.929 . S
C215 C214 1.363 . S
C215 C221 1.428 . S
H216 C212 0.930 . S
H217 C214 0.929 . S
S218 N219 1.613 . S
S218 N220 1.610 . S
N219 S218 1.613 . S
N219 C222 1.350 . S
N220 S218 1.610 . S
N220 C221 1.351 . S
C221 C215 1.428 . S
C221 N220 1.351 . S
C221 C222 1.434 . S
C222 C213 1.429 . S
C222 N219 1.350 . S
C222 C221 1.434 . S
C223 C224 1.369 . S
C223 C225 1.419 . S
C223 H227 0.930 . S
C224 C223 1.369 . S
C224 C233 1.429 . S
C225 C223 1.419 . S
C225 C226 1.363 . S
C225 H228 0.929 . S
C226 C225 1.363 . S
C226 C232 1.428 . S
H227 C223 0.930 . S
H228 C225 0.929 . S
S229 N230 1.613 . S
S229 N231 1.610 . S
N230 S229 1.613 . S
N230 C233 1.350 . S
N231 S229 1.610 . S
N231 C232 1.351 . S
C232 C226 1.428 . S
C232 N231 1.351 . S
C232 C233 1.434 . S
C233 C224 1.429 . S
C233 N230 1.350 . S
C233 C232 1.434 . S
C234 C235 1.369 . S
C234 C236 1.419 . S
C234 H238 0.930 . S
C235 C234 1.369 . S
C235 C244 1.429 . S
C236 C234 1.419 . S
C236 C237 1.363 . S
C236 H239 0.929 . S
C237 C236 1.363 . S
C237 C243 1.428 . S
H238 C234 0.930 . S
H239 C236 0.929 . S
S240 N241 1.613 . S
S240 N242 1.610 . S
N241 S240 1.613 . S
N241 C244 1.350 . S
N242 S240 1.610 . S
N242 C243 1.351 . S
C243 C237 1.428 . S
C243 N242 1.351 . S
C243 C244 1.434 . S
C244 C235 1.429 . S
C244 N241 1.350 . S
C244 C243 1.434 . S
C245 C246 1.369 . S
C245 C247 1.419 . S
C245 H249 0.930 . S
C246 C245 1.369 . S
C246 C255 1.429 . S
C247 C245 1.419 . S
C247 C248 1.363 . S
C247 H250 0.929 . S
C248 C247 1.363 . S
C248 C254 1.428 . S
H249 C245 0.930 . S
H250 C247 0.929 . S
S251 N252 1.613 . S
S251 N253 1.610 . S
N252 S251 1.613 . S
N252 C255 1.350 . S
N253 S251 1.610 . S
N253 C254 1.351 . S
C254 C248 1.428 . S
C254 N253 1.351 . S
C254 C255 1.434 . S
C255 C246 1.429 . S
C255 N252 1.350 . S
C255 C254 1.434 . S
C256 C257 1.366 1_455 S
C256 C258 1.422 . S
C256 H260 0.930 . S
C257 C256 1.366 1_655 S
C257 C266 1.429 . S
C258 C256 1.422 . S
C258 C259 1.363 . S
C258 H261 0.929 . S
C259 C258 1.363 . S
C259 C265 1.428 1_455 S
H260 C256 0.930 . S
H261 C258 0.929 . S
S262 N263 1.613 . S
S262 N264 1.610 . S
N263 S262 1.613 . S
N263 C266 1.350 . S
N264 S262 1.610 . S
N264 C265 1.351 . S
C265 C259 1.428 1_655 S
C265 N264 1.351 . S
C265 C266 1.434 . S
C266 C257 1.429 . S
C266 N263 1.350 . S
C266 C265 1.434 . S
C267 C268 1.367 1_565 S
C267 C269 1.420 . S
C267 H271 0.930 . S
C268 C267 1.367 1_545 S
C268 C277 1.429 . S
C269 C267 1.420 . S
C269 C270 1.363 . S
C269 H272 0.929 . S
C270 C269 1.363 . S
C270 C276 1.428 1_565 S
H271 C267 0.930 . S
H272 C269 0.929 . S
S273 N274 1.613 . S
S273 N275 1.610 . S
N274 S273 1.613 . S
N274 C277 1.350 . S
N275 S273 1.610 . S
N275 C276 1.351 . S
C276 C270 1.428 1_545 S
C276 N275 1.351 . S
C276 C277 1.434 . S
C277 C268 1.429 . S
C277 N274 1.350 . S
C277 C276 1.434 . S
C278 C279 1.369 . S
C278 C280 1.419 1_655 S
C278 H282 0.930 . S
C279 C278 1.369 . S
C279 C288 1.429 . S
C280 C278 1.419 1_455 S
C280 C281 1.363 . S
C280 H283 0.929 . S
C281 C280 1.363 . S
C281 C287 1.428 . S
H282 C278 0.930 . S
H283 C280 0.929 . S
S284 N285 1.613 . S
S284 N286 1.610 1_655 S
N285 S284 1.613 . S
N285 C288 1.350 . S
N286 S284 1.610 1_455 S
N286 C287 1.351 . S
C287 C281 1.428 . S
C287 N286 1.351 . S
C287 C288 1.434 1_455 S
C288 C279 1.429 . S
C288 N285 1.350 . S
C288 C287 1.434 1_655 S
C289 C290 1.369 . S
C289 C291 1.424 . S
C289 H293 0.930 . S
C290 C289 1.369 . S
C290 C299 1.429 1_545 S
C291 C289 1.424 . S
C291 C292 1.357 1_545 S
C291 H294 0.930 . S
C292 C291 1.357 1_565 S
C292 C298 1.428 . S
H293 C289 0.930 . S
H294 C291 0.930 . S
S295 N296 1.613 . S
S295 N297 1.610 . S
N296 S295 1.613 . S
N296 C299 1.350 . S
N297 S295 1.610 . S
N297 C298 1.351 . S
C298 C292 1.428 . S
C298 N297 1.351 . S
C298 C299 1.434 . S
C299 C290 1.429 1_565 S
C299 N296 1.350 . S
C299 C298 1.434 . S
C300 C301 1.369 . S
C300 C302 1.419 . S
C300 H304 0.930 . S
C301 C300 1.369 . S
C301 C310 1.429 1_455 S
C302 C300 1.419 . S
C302 C303 1.363 1_455 S
C302 H305 0.929 . S
C303 C302 1.363 1_655 S
C303 C309 1.428 . S
H304 C300 0.930 . S
H305 C302 0.929 . S
S306 N307 1.613 . S
S306 N308 1.610 . S
N307 S306 1.613 . S
N307 C310 1.350 . S
N308 S306 1.610 . S
N308 C309 1.351 . S
C309 C303 1.428 . S
C309 N308 1.351 . S
C309 C310 1.434 . S
C310 C301 1.429 1_655 S
C310 N307 1.350 . S
C310 C309 1.434 . S
C311 C312 1.369 . S
C311 C313 1.419 . S
C311 H315 0.930 . S
C312 C311 1.369 . S
C312 C321 1.429 1_565 S
C313 C311 1.419 . S
C313 C314 1.363 1_565 S
C313 H316 0.929 . S
C314 C313 1.363 1_545 S
C314 C320 1.428 . S
H315 C311 0.930 . S
H316 C313 0.929 . S
S317 N318 1.613 . S
S317 N319 1.610 . S
N318 S317 1.613 . S
N318 C321 1.350 . S
N319 S317 1.610 . S
N319 C320 1.351 . S
C320 C314 1.428 . S
C320 N319 1.351 . S
C320 C321 1.434 . S
C321 C312 1.429 1_545 S
C321 N318 1.350 . S
C321 C320 1.434 . S
C322 C323 1.369 . S
C322 C324 1.419 . S
C322 H326 0.930 . S
C323 C322 1.369 . S
C323 C332 1.429 1_655 S
C324 C322 1.419 . S
C324 C325 1.363 1_655 S
C324 H327 0.929 . S
C325 C324 1.363 1_455 S
C325 C331 1.428 . S
H326 C322 0.930 . S
H327 C324 0.929 . S
S328 N329 1.613 . S
S328 N330 1.610 . S
N329 S328 1.613 . S
N329 C332 1.350 . S
N330 S328 1.610 . S
N330 C331 1.351 . S
C331 C325 1.428 . S
C331 N330 1.351 . S
C331 C332 1.434 . S
C332 C323 1.429 1_455 S
C332 N329 1.350 . S
C332 C331 1.434 . S
C333 C334 1.369 . S
C333 C335 1.419 1_565 S
C333 H337 0.930 . S
C334 C333 1.369 . S
C334 C343 1.429 . S
C335 C333 1.419 1_545 S
C335 C336 1.363 . S
C335 H338 0.929 . S
C336 C335 1.363 . S
C336 C342 1.428 . S
H337 C333 0.930 . S
H338 C335 0.929 . S
S339 N340 1.613 . S
S339 N341 1.610 . S
N340 S339 1.613 . S
N340 C343 1.350 . S
N341 S339 1.610 . S
N341 C342 1.351 1_565 S
C342 C336 1.428 . S
C342 N341 1.351 1_545 S
C342 C343 1.434 1_545 S
C343 C334 1.429 . S
C343 N340 1.350 . S
C343 C342 1.434 1_565 S
C344 C345 1.369 . S
C344 C346 1.419 . S
C344 H348 0.930 . S
C345 C344 1.369 . S
C345 C354 1.429 . S
C346 C344 1.419 . S
C346 C347 1.363 . S
C346 H349 0.929 . S
C347 C346 1.363 . S
C347 C353 1.428 . S
H348 C344 0.930 . S
H349 C346 0.929 . S
S350 N351 1.613 . S
S350 N352 1.610 . S
N351 S350 1.613 . S
N351 C354 1.350 . S
N352 S350 1.610 . S
N352 C353 1.351 . S
C353 C347 1.428 . S
C353 N352 1.351 . S
C353 C354 1.434 . S
C354 C345 1.429 . S
C354 N351 1.350 . S
C354 C353 1.434 . S
C355 C356 1.369 . S
C355 C357 1.419 . S
C355 H359 0.930 . S
C356 C355 1.369 . S
C356 C365 1.429 . S
C357 C355 1.419 . S
C357 C358 1.363 . S
C357 H360 0.929 . S
C358 C357 1.363 . S
C358 C364 1.428 . S
H359 C355 0.930 . S
H360 C357 0.929 . S
S361 N362 1.613 . S
S361 N363 1.610 . S
N362 S361 1.613 . S
N362 C365 1.350 . S
N363 S361 1.610 . S
N363 C364 1.351 . S
C364 C358 1.428 . S
C364 N363 1.351 . S
C364 C365 1.434 . S
C365 C356 1.429 . S
C365 N362 1.350 . S
C365 C364 1.434 . S
C366 C367 1.369 . S
C366 C368 1.419 . S
C366 H370 0.930 . S
C367 C366 1.369 . S
C367 C376 1.429 . S
C368 C366 1.419 . S
C368 C369 1.363 . S
C368 H371 0.929 . S
C369 C368 1.363 . S
C369 C375 1.428 . S
H370 C366 0.930 . S
H371 C368 0.929 . S
S372 N373 1.613 . S
S372 N374 1.610 . S
N373 S372 1.613 . S
N373 C376 1.350 . S
N374 S372 1.610 . S
N374 C375 1.351 . S
C375 C369 1.428 . S
C375 N374 1.351 . S
C375 C376 1.434 . S
C376 C367 1.429 . S
C376 N373 1.350 . S
C376 C375 1.434 . S
C377 C378 1.369 . S
C377 C379 1.419 . S
C377 H381 0.930 . S
C378 C377 1.369 . S
C378 C387 1.429 . S
C379 C377 1.419 . S
C379 C380 1.363 . S
C379 H382 0.929 . S
C380 C379 1.363 . S
C380 C386 1.428 . S
H381 C377 0.930 . S
H382 C379 0.929 . S
S383 N384 1.613 . S
S383 N385 1.610 . S
N384 S383 1.613 . S
N384 C387 1.350 . S
N385 S383 1.610 . S
N385 C386 1.351 . S
C386 C380 1.428 . S
C386 N385 1.351 . S
C386 C387 1.434 . S
C387 C378 1.429 . S
C387 N384 1.350 . S
C387 C386 1.434 . S
C388 C389 1.369 . S
C388 C390 1.419 . S
C388 H392 0.930 . S
C389 C388 1.369 . S
C389 C398 1.429 . S
C390 C388 1.419 . S
C390 C391 1.363 . S
C390 H393 0.929 . S
C391 C390 1.363 . S
C391 C397 1.428 . S
H392 C388 0.930 . S
H393 C390 0.929 . S
S394 N395 1.613 . S
S394 N396 1.610 . S
N395 S394 1.613 . S
N395 C398 1.350 . S
N396 S394 1.610 . S
N396 C397 1.351 . S
C397 C391 1.428 . S
C397 N396 1.351 . S
C397 C398 1.434 . S
C398 C389 1.429 . S
C398 N395 1.350 . S
C398 C397 1.434 . S
C399 C400 1.369 . S
C399 C401 1.419 . S
C399 H403 0.930 . S
C400 C399 1.369 . S
C400 C409 1.429 . S
C401 C399 1.419 . S
C401 C402 1.363 . S
C401 H404 0.929 . S
C402 C401 1.363 . S
C402 C408 1.428 . S
H403 C399 0.930 . S
H404 C401 0.929 . S
S405 N406 1.613 . S
S405 N407 1.610 . S
N406 S405 1.613 . S
N406 C409 1.350 . S
N407 S405 1.610 . S
N407 C408 1.351 . S
C408 C402 1.428 . S
C408 N407 1.351 . S
C408 C409 1.434 . S
C409 C400 1.429 . S
C409 N406 1.350 . S
C409 C408 1.434 . S
C410 C411 1.369 . S
C410 C412 1.419 . S
C410 H414 0.930 . S
C411 C410 1.369 . S
C411 C420 1.429 . S
C412 C410 1.419 . S
C412 C413 1.363 . S
C412 H415 0.929 . S
C413 C412 1.363 . S
C413 C419 1.428 . S
H414 C410 0.930 . S
H415 C412 0.929 . S
S416 N417 1.613 . S
S416 N418 1.610 . S
N417 S416 1.613 . S
N417 C420 1.350 . S
N418 S416 1.610 . S
N418 C419 1.351 . S
C419 C413 1.428 . S
C419 N418 1.351 . S
C419 C420 1.434 . S
C420 C411 1.429 . S
C420 N417 1.350 . S
C420 C419 1.434 . S
C421 C422 1.369 . S
C421 C423 1.419 . S
C421 H425 0.930 . S
C422 C421 1.369 . S
C422 C431 1.429 . S
C423 C421 1.419 . S
C423 C424 1.363 . S
C423 H426 0.929 . S
C424 C423 1.363 . S
C424 C430 1.428 . S
H425 C421 0.930 . S
H426 C423 0.929 . S
S427 N428 1.613 . S
S427 N429 1.610 . S
N428 S427 1.613 . S
N428 C431 1.350 . S
N429 S427 1.610 . S
N429 C430 1.351 . S
C430 C424 1.428 . S
C430 N429 1.351 . S
C430 C431 1.434 . S
C431 C422 1.429 . S
C431 N428 1.350 . S
C431 C430 1.434 . S
C169 C133 1.425 . S
C171 C4 1.416 . S
C180 C25 1.427 . S
C182 C151 1.416 . S
C191 C88 1.429 . S
C193 C49 1.418 . S
C202 C70 1.427 . S
C204 C112 1.423 . S
C213 C100 1.207 . S
C215 C45 1.201 . S
C224 C66 1.195 . S
C226 C108 1.210 . S
C235 C129 1.210 . S
C237 C16 1.197 . S
C246 C37 1.196 . S
C248 C163 1.208 . S
C257 C28 1.414 . S
C259 C109 1.425 . S
C268 C130 1.414 . S
C270 C46 1.426 . S
C279 C154 1.417 . S
C281 C67 1.419 . S
C290 C7 1.429 . S
C292 C91 1.418 . S
C301 C79 1.212 . S
C303 C150 1.196 . S
C312 C87 1.211 . S
C314 C3 1.196 . S
C323 C24 1.210 . S
C325 C121 1.196 . S
C334 C58 1.195 . S
C336 C142 1.208 . S
C345 C167 1.115 . S
C347 C20 1.130 . S
C356 C41 1.113 . S
C358 C104 1.129 . S
C367 C61 1.121 . S
C369 C124 1.128 . S
C378 C145 1.118 . S
C380 C82 1.129 . S
C389 C125 1.132 . S
C391 C62 1.118 . S
C400 C146 1.114 . S
C402 C83 1.131 . S
C411 C166 1.125 . S
C413 C19 1.118 . S
C422 C103 1.113 . S
C424 C40 1.130 . S
