# Generated by pormake.
# Topology uoq, (4)-cn, num edge types: 1
# Building blocks:
#     Node 0, Type 0, BuildingBlock: UXUYUI_clean_sbu_0, # of connection points: 4
#     Node 1, Type 0, BuildingBlock: UXUYUI_clean_sbu_0, # of connection points: 4
#     Node 2, Type 0, BuildingBlock: UXUYUI_clean_sbu_0, # of connection points: 4
#     Node 3, Type 0, BuildingBlock: UXUYUI_clean_sbu_0, # of connection points: 4
#     Node 4, Type 0, BuildingBlock: UXUYUI_clean_sbu_0, # of connection points: 4
#     Node 5, Type 0, BuildingBlock: UXUYUI_clean_sbu_0, # of connection points: 4
#     Node 6, Type 0, BuildingBlock: UXUYUI_clean_sbu_0, # of connection points: 4
#     Node 7, Type 0, BuildingBlock: UXUYUI_clean_sbu_0, # of connection points: 4
#     Node 8, Type 0, BuildingBlock: UXUYUI_clean_sbu_0, # of connection points: 4
#     Node 9, Type 0, BuildingBlock: UXUYUI_clean_sbu_0, # of connection points: 4
#     Node 10, Type 0, BuildingBlock: UXUYUI_clean_sbu_0, # of connection points: 4
#     Node 11, Type 0, BuildingBlock: UXUYUI_clean_sbu_0, # of connection points: 4
#     Edge 12, Type (0, 0), BuildingBlock: ZUJKAS_clean_linker_0, # of connection points: 2
#     Edge 13, Type (0, 0), BuildingBlock: ZUJKAS_clean_linker_0, # of connection points: 2
#     Edge 14, Type (0, 0), BuildingBlock: ZUJKAS_clean_linker_0, # of connection points: 2
#     Edge 15, Type (0, 0), BuildingBlock: ZUJKAS_clean_linker_0, # of connection points: 2
#     Edge 16, Type (0, 0), BuildingBlock: ZUJKAS_clean_linker_0, # of connection points: 2
#     Edge 17, Type (0, 0), BuildingBlock: ZUJKAS_clean_linker_0, # of connection points: 2
#     Edge 18, Type (0, 0), BuildingBlock: ZUJKAS_clean_linker_0, # of connection points: 2
#     Edge 19, Type (0, 0), BuildingBlock: ZUJKAS_clean_linker_0, # of connection points: 2
#     Edge 20, Type (0, 0), BuildingBlock: ZUJKAS_clean_linker_0, # of connection points: 2
#     Edge 21, Type (0, 0), BuildingBlock: ZUJKAS_clean_linker_0, # of connection points: 2
#     Edge 22, Type (0, 0), BuildingBlock: ZUJKAS_clean_linker_0, # of connection points: 2
#     Edge 23, Type (0, 0), BuildingBlock: ZUJKAS_clean_linker_0, # of connection points: 2
#     Edge 24, Type (0, 0), BuildingBlock: ZUJKAS_clean_linker_0, # of connection points: 2
#     Edge 25, Type (0, 0), BuildingBlock: ZUJKAS_clean_linker_0, # of connection points: 2
#     Edge 26, Type (0, 0), BuildingBlock: ZUJKAS_clean_linker_0, # of connection points: 2
#     Edge 27, Type (0, 0), BuildingBlock: ZUJKAS_clean_linker_0, # of connection points: 2
#     Edge 28, Type (0, 0), BuildingBlock: ZUJKAS_clean_linker_0, # of connection points: 2
#     Edge 29, Type (0, 0), BuildingBlock: ZUJKAS_clean_linker_0, # of connection points: 2
#     Edge 30, Type (0, 0), BuildingBlock: ZUJKAS_clean_linker_0, # of connection points: 2
#     Edge 31, Type (0, 0), BuildingBlock: ZUJKAS_clean_linker_0, # of connection points: 2
#     Edge 32, Type (0, 0), BuildingBlock: ZUJKAS_clean_linker_0, # of connection points: 2
#     Edge 33, Type (0, 0), BuildingBlock: ZUJKAS_clean_linker_0, # of connection points: 2
#     Edge 34, Type (0, 0), BuildingBlock: ZUJKAS_clean_linker_0, # of connection points: 2
#     Edge 35, Type (0, 0), BuildingBlock: ZUJKAS_clean_linker_0, # of connection points: 2
# Relax obj value: 0.147
# Max RMSD: 0.104
# Mean RMSD: 0.104
data_MOF--net-uoq--node1-UXUYUI_clean_sbu_0--edge1-ZUJKAS_clean_linker_0
_symmetry_space_group_name_H-M    P1
_symmetry_Int_Tables_number       1
_symmetry_cell_setting            triclinic
loop_
_symmetry_equiv_pos_as_xyz
'x, y, z'
_cell_length_a     101.60518
_cell_length_b     101.60142
_cell_length_c     42.443665
_cell_angle_alpha  90.004437
_cell_angle_beta   90.002371
_cell_angle_gamma 119.99978
loop_
_atom_site_label
_atom_site_type_symbol
_atom_site_fract_x
_atom_site_fract_y
_atom_site_fract_z
_atom_type_partial_charge
Li0 Li 0.29156 0.44336 0.27812 0.0
Li1 Li 0.30574 0.43362 0.25049 0.0
Li2 Li 0.31517 0.46139 0.25256 0.0
Li3 Li 0.29205 0.44375 0.2217 0.0
C4 C 0.31961 0.45067 0.315 0.0
N5 N 0.33508 0.45754 0.37167 0.0
C6 C 0.32131 0.43959 0.33104 0.0
C7 C 0.3258 0.46526 0.32785 0.0
C8 C 0.32916 0.44328 0.35964 0.0
C9 C 0.33357 0.4685 0.3565 0.0
C10 C 0.27587 0.41212 0.26537 0.0
C11 C 0.25595 0.38592 0.26872 0.0
N12 N 0.26098 0.38495 0.29785 0.0
C13 C 0.28082 0.41087 0.29535 0.0
C14 C 0.26332 0.39956 0.25193 0.0
C15 C 0.27315 0.39704 0.31139 0.0
C16 C 0.26344 0.43278 0.30915 0.0
N17 N 0.27874 0.44031 0.31379 0.0
C18 C 0.2754 0.44321 0.36855 0.0
C19 C 0.2848 0.44556 0.34276 0.0
C20 C 0.25958 0.43549 0.36449 0.0
C21 C 0.25358 0.43031 0.33429 0.0
H22 H 0.2589 0.42874 0.28585 0.0
H23 H 0.2969 0.45169 0.34599 0.0
C24 C 0.32814 0.42642 0.26106 0.0
N25 N 0.31329 0.41988 0.25257 0.0
C26 C 0.3346 0.41745 0.26777 0.0
C27 C 0.31059 0.39515 0.25521 0.0
C28 C 0.30458 0.40459 0.24868 0.0
C29 C 0.32572 0.40156 0.26553 0.0
H30 H 0.33478 0.43862 0.26394 0.0
H31 H 0.29287 0.39966 0.24137 0.0
C32 C 0.28665 0.46546 0.26494 0.0
N33 N 0.26849 0.47405 0.29699 0.0
C34 C 0.27177 0.46035 0.25488 0.0
C35 C 0.29235 0.47504 0.29113 0.0
C36 C 0.26276 0.46481 0.27144 0.0
C37 C 0.28297 0.47922 0.30707 0.0
C38 C 0.31453 0.44151 0.18833 0.0
C39 C 0.32694 0.44901 0.16805 0.0
C40 C 0.303 0.42675 0.18117 0.0
C41 C 0.32761 0.44163 0.14084 0.0
C42 C 0.30409 0.41976 0.15374 0.0
N43 N 0.31627 0.42728 0.13431 0.0
C44 C 0.34623 0.48085 0.26222 0.0
C45 C 0.33221 0.49358 0.25556 0.0
C46 C 0.35928 0.4945 0.26985 0.0
N47 N 0.333 0.48063 0.25596 0.0
C48 C 0.34502 0.50751 0.26293 0.0
C49 C 0.35872 0.50804 0.2709 0.0
H50 H 0.34642 0.4703 0.26275 0.0
H51 H 0.3215 0.49303 0.25056 0.0
C52 C 0.26569 0.43158 0.18419 0.0
N53 N 0.28072 0.44213 0.18491 0.0
C54 C 0.25682 0.43067 0.15824 0.0
C55 C 0.27914 0.45136 0.13409 0.0
C56 C 0.28757 0.45188 0.16055 0.0
C57 C 0.26349 0.44073 0.13281 0.0
H58 H 0.26055 0.42404 0.20404 0.0
H59 H 0.29954 0.46023 0.16194 0.0
O60 O 0.3122 0.44733 0.28662 0.0
O61 O 0.28319 0.42552 0.24905 0.0
O62 O 0.29548 0.46085 0.24963 0.0
O63 O 0.31374 0.44863 0.21501 0.0
H64 H 0.31661 0.42823 0.32156 0.0
H65 H 0.32443 0.47394 0.31611 0.0
H66 H 0.33054 0.43481 0.37228 0.0
H67 H 0.33837 0.47973 0.36672 0.0
H68 H 0.24623 0.3761 0.25857 0.0
H69 H 0.29045 0.42045 0.30619 0.0
H70 H 0.25936 0.40033 0.2287 0.0
H71 H 0.27687 0.39592 0.33461 0.0
H72 H 0.28047 0.44762 0.39137 0.0
H73 H 0.24143 0.42428 0.33026 0.0
H74 H 0.34625 0.4229 0.27597 0.0
H75 H 0.30342 0.38297 0.25266 0.0
H76 H 0.26718 0.4529 0.23471 0.0
H77 H 0.30381 0.47902 0.29931 0.0
H78 H 0.25119 0.46088 0.26404 0.0
H79 H 0.28718 0.48652 0.32753 0.0
H80 H 0.33596 0.46044 0.17329 0.0
H81 H 0.2933 0.42075 0.19653 0.0
H82 H 0.33715 0.44731 0.12491 0.0
H83 H 0.29525 0.40835 0.14791 0.0
H84 H 0.3695 0.49429 0.27624 0.0
H85 H 0.34412 0.51769 0.26298 0.0
H86 H 0.24486 0.42218 0.15812 0.0
H87 H 0.28473 0.45946 0.11523 0.0
Li88 Li 0.84881 0.29139 0.61254 0.0
Li89 Li 0.8721 0.30595 0.58478 0.0
Li90 Li 0.85408 0.31533 0.58817 0.0
Li91 Li 0.84845 0.29178 0.55557 0.0
C92 C 0.86909 0.31886 0.65073 0.0
N93 N 0.87731 0.33295 0.70891 0.0
C94 C 0.88147 0.31975 0.66703 0.0
C95 C 0.86093 0.32521 0.66406 0.0
C96 C 0.88543 0.32689 0.6964 0.0
C97 C 0.86525 0.33226 0.69348 0.0
C98 C 0.86475 0.27609 0.5975 0.0
C99 C 0.87178 0.25667 0.59799 0.0
N100 N 0.87779 0.26123 0.62728 0.0
C101 C 0.87097 0.28057 0.6276 0.0
C102 C 0.86512 0.26403 0.58255 0.0
C103 C 0.87752 0.27293 0.64227 0.0
C104 C 0.83248 0.26298 0.64371 0.0
N105 N 0.83929 0.27828 0.64805 0.0
C106 C 0.83282 0.27479 0.7027 0.0
C107 C 0.83939 0.28424 0.67677 0.0
C108 C 0.82585 0.259 0.69902 0.0
C109 C 0.82556 0.25305 0.66901 0.0
H110 H 0.83241 0.2585 0.62056 0.0
H111 H 0.84442 0.2963 0.67969 0.0
C112 C 0.90169 0.32803 0.59774 0.0
N113 N 0.89349 0.31369 0.58619 0.0
C114 C 0.91717 0.33436 0.60367 0.0
C115 C 0.91572 0.31131 0.58421 0.0
C116 C 0.9002 0.30541 0.5786 0.0
C117 C 0.92435 0.32587 0.5975 0.0
H118 H 0.89605 0.33436 0.60342 0.0
H119 H 0.89348 0.29412 0.56894 0.0
C120 C 0.82171 0.28641 0.60073 0.0
N121 N 0.79541 0.26829 0.63418 0.0
C122 C 0.81213 0.27133 0.5917 0.0
C123 C 0.81788 0.29233 0.62661 0.0
C124 C 0.79888 0.26234 0.60895 0.0
C125 C 0.80455 0.28297 0.64326 0.0
C126 C 0.8772 0.3199 0.53115 0.0
C127 C 0.88726 0.33556 0.532 0.0
C128 C 0.88048 0.31063 0.51229 0.0
C129 C 0.90055 0.34171 0.51404 0.0
C130 C 0.89389 0.31722 0.49467 0.0
N131 N 0.90357 0.33249 0.49592 0.0
C132 C 0.86526 0.34615 0.59963 0.0
C133 C 0.83865 0.33216 0.59099 0.0
C134 C 0.86451 0.35908 0.60751 0.0
N135 N 0.85241 0.333 0.59219 0.0
C136 C 0.83737 0.34485 0.59863 0.0
C137 C 0.85038 0.35848 0.60765 0.0
H138 H 0.876 0.34636 0.6009 0.0
H139 H 0.82861 0.32151 0.58511 0.0
C140 C 0.83384 0.26544 0.51795 0.0
N141 N 0.83874 0.28056 0.51874 0.0
C142 C 0.82607 0.25678 0.4916 0.0
C143 C 0.82866 0.27949 0.46733 0.0
C144 C 0.8364 0.28771 0.49414 0.0
C145 C 0.82329 0.26378 0.46588 0.0
H146 H 0.83575 0.26006 0.53804 0.0
H147 H 0.84045 0.29977 0.49549 0.0
O148 O 0.86524 0.31219 0.62157 0.0
O149 O 0.85834 0.28344 0.5825 0.0
O150 O 0.83496 0.29523 0.58479 0.0
O151 O 0.86439 0.31358 0.54932 0.0
H152 H 0.88801 0.31501 0.65713 0.0
H153 H 0.85119 0.32447 0.65212 0.0
H154 H 0.89498 0.32764 0.70924 0.0
H155 H 0.85898 0.33714 0.70409 0.0
H156 H 0.87217 0.24733 0.58668 0.0
H157 H 0.87068 0.28978 0.63958 0.0
H158 H 0.86037 0.26044 0.55921 0.0
H159 H 0.88237 0.27628 0.66558 0.0
H160 H 0.83299 0.27979 0.72535 0.0
H161 H 0.82023 0.24091 0.66527 0.0
H162 H 0.92328 0.34554 0.61425 0.0
H163 H 0.92085 0.30447 0.57863 0.0
H164 H 0.81498 0.26657 0.5718 0.0
H165 H 0.82524 0.30396 0.63403 0.0
H166 H 0.7914 0.25061 0.60236 0.0
H167 H 0.80149 0.28736 0.66349 0.0
H168 H 0.88489 0.34287 0.54659 0.0
H169 H 0.87284 0.29846 0.51159 0.0
H170 H 0.90849 0.3538 0.51457 0.0
H171 H 0.89663 0.31018 0.48008 0.0
H172 H 0.87479 0.36923 0.61477 0.0
H173 H 0.82628 0.34393 0.59801 0.0
H174 H 0.82197 0.24468 0.4917 0.0
H175 H 0.82694 0.28538 0.44792 0.0
Li176 Li 0.56646 0.87326 0.91827 0.0
Li177 Li 0.55755 0.8499 0.94638 0.0
Li178 Li 0.55769 0.84975 0.88904 0.0
Li179 Li 0.53916 0.85496 0.9201 0.0
C180 C 0.58869 0.86587 0.93435 0.0
N181 N 0.61552 0.87839 0.96813 0.0
C182 C 0.58981 0.87281 0.96344 0.0
C183 C 0.6012 0.86525 0.92249 0.0
C184 C 0.60347 0.87908 0.98014 0.0
C185 C 0.61467 0.87166 0.93992 0.0
C186 C 0.54843 0.86944 0.98243 0.0
C187 C 0.52959 0.86329 0.02302 0.0
N188 N 0.5395 0.87606 0.03898 0.0
C189 C 0.55845 0.88246 0.99937 0.0
C190 C 0.5339 0.85973 0.99447 0.0
C191 C 0.55371 0.88562 0.02785 0.0
C192 C 0.57356 0.90276 0.93084 0.0
N193 N 0.57998 0.89466 0.9202 0.0
C194 C 0.6047 0.91677 0.92192 0.0
C195 C 0.59517 0.90141 0.9146 0.0
C196 C 0.59845 0.92512 0.93509 0.0
C197 C 0.58261 0.91806 0.93858 0.0
H198 H 0.56142 0.89712 0.9347 0.0
H199 H 0.59998 0.89476 0.90571 0.0
C200 C 0.56562 0.8303 0.97737 0.0
N201 N 0.56076 0.84041 0.98243 0.0
C202 C 0.56736 0.82246 0.00262 0.0
C203 C 0.55988 0.83619 0.03795 0.0
C204 C 0.55818 0.84363 0.01209 0.0
C205 C 0.56427 0.82524 0.03341 0.0
H206 H 0.56788 0.82813 0.9536 0.0
H207 H 0.55475 0.85192 0.01598 0.0
C208 C 0.55847 0.87827 0.86357 0.0
N209 N 0.57283 0.90451 0.82802 0.0
C210 C 0.55277 0.88826 0.86291 0.0
C211 C 0.57142 0.88157 0.84607 0.0
C212 C 0.56021 0.90148 0.8448 0.0
C213 C 0.57852 0.89491 0.82826 0.0
C214 C 0.5357 0.8222 0.93113 0.0
C215 C 0.53967 0.81206 0.91794 0.0
C216 C 0.52688 0.81814 0.95852 0.0
C217 C 0.53493 0.79809 0.93264 0.0
C218 C 0.52239 0.80408 0.97255 0.0
N219 N 0.52648 0.79444 0.95944 0.0
C220 C 0.56968 0.83479 0.85326 0.0
C221 C 0.55119 0.83844 0.82684 0.0
C222 C 0.57082 0.82691 0.8274 0.0
N223 N 0.55988 0.84023 0.85258 0.0
C224 C 0.55201 0.83069 0.80038 0.0
C225 C 0.56182 0.82466 0.80056 0.0
H226 H 0.57641 0.83635 0.87415 0.0
H227 H 0.54344 0.84284 0.82709 0.0
C228 C 0.51855 0.86538 0.92783 0.0
N229 N 0.51953 0.85268 0.92305 0.0
C230 C 0.5046 0.86416 0.93522 0.0
C231 C 0.4929 0.83681 0.93195 0.0
C232 C 0.50707 0.83857 0.92437 0.0
C233 C 0.4916 0.84972 0.93803 0.0
H234 H 0.52874 0.87643 0.92738 0.0
H235 H 0.50824 0.82867 0.92077 0.0
O236 O 0.57545 0.85963 0.91745 0.0
O237 O 0.55288 0.86622 0.95436 0.0
O238 O 0.55166 0.86551 0.88186 0.0
O239 O 0.54049 0.83605 0.91739 0.0
H240 H 0.58027 0.87338 0.97304 0.0
H241 H 0.60051 0.85991 0.90002 0.0
H242 H 0.60449 0.88451 0.00265 0.0
H243 H 0.62445 0.87128 0.931 0.0
H244 H 0.51838 0.85588 0.03254 0.0
H245 H 0.56982 0.89 0.9908 0.0
H246 H 0.52606 0.84948 0.98212 0.0
H247 H 0.56135 0.89566 0.04115 0.0
H248 H 0.61686 0.92183 0.9188 0.0
H249 H 0.57732 0.92418 0.94806 0.0
H250 H 0.57073 0.81408 0.99797 0.0
H251 H 0.55777 0.83901 0.06132 0.0
H252 H 0.54279 0.88587 0.8764 0.0
H253 H 0.57601 0.87399 0.84656 0.0
H254 H 0.55598 0.90936 0.84415 0.0
H255 H 0.5886 0.89766 0.81472 0.0
H256 H 0.54642 0.81498 0.89669 0.0
H257 H 0.52368 0.82582 0.96902 0.0
H258 H 0.53799 0.79017 0.92277 0.0
H259 H 0.51568 0.80086 0.9939 0.0
H260 H 0.57864 0.82261 0.82841 0.0
H261 H 0.54475 0.82908 0.78036 0.0
H262 H 0.50413 0.87438 0.94017 0.0
H263 H 0.48312 0.82549 0.93366 0.0
Li264 Li 0.70982 0.55689 0.2801 0.0
Li265 Li 0.69451 0.56647 0.25559 0.0
Li266 Li 0.6859 0.53916 0.25579 0.0
Li267 Li 0.70704 0.55687 0.22281 0.0
C268 C 0.67686 0.54444 0.30996 0.0
N269 N 0.65051 0.52658 0.34358 0.0
C270 C 0.66481 0.54737 0.30861 0.0
C271 C 0.67552 0.53246 0.32853 0.0
C272 C 0.65159 0.53822 0.3258 0.0
C273 C 0.66209 0.52354 0.34527 0.0
C274 C 0.72237 0.58965 0.25514 0.0
C275 C 0.72581 0.61354 0.23612 0.0
N276 N 0.73262 0.62022 0.26381 0.0
C277 C 0.72945 0.59676 0.28335 0.0
C278 C 0.72059 0.5981 0.23125 0.0
C279 C 0.73454 0.61222 0.28729 0.0
C280 C 0.7381 0.5649 0.30937 0.0
N281 N 0.72318 0.56022 0.31439 0.0
C282 C 0.72657 0.56035 0.37005 0.0
C283 C 0.71736 0.55812 0.34396 0.0
C284 C 0.74196 0.56489 0.36568 0.0
C285 C 0.74773 0.56719 0.33484 0.0
H286 H 0.7425 0.56685 0.2856 0.0
H287 H 0.70557 0.55476 0.34735 0.0
C288 C 0.67907 0.58307 0.24213 0.0
N289 N 0.68807 0.58086 0.26259 0.0
C290 C 0.67333 0.59258 0.25043 0.0
C291 C 0.68661 0.59757 0.30014 0.0
C292 C 0.69195 0.58792 0.29103 0.0
C293 C 0.67688 0.59978 0.28006 0.0
H294 H 0.67595 0.57709 0.21988 0.0
H295 H 0.69891 0.58571 0.30703 0.0
C296 C 0.71574 0.53607 0.26007 0.0
N297 N 0.73683 0.52868 0.28211 0.0
C298 C 0.72927 0.54072 0.24355 0.0
C299 C 0.71294 0.52764 0.28778 0.0
C300 C 0.73977 0.53686 0.25506 0.0
C301 C 0.72375 0.52404 0.29857 0.0
C302 C 0.68286 0.5496 0.18925 0.0
C303 C 0.67598 0.53489 0.17691 0.0
C304 C 0.6877 0.56201 0.16898 0.0
C305 C 0.67418 0.53285 0.14432 0.0
C306 C 0.68572 0.5595 0.13653 0.0
N307 N 0.67906 0.54509 0.12497 0.0
C308 C 0.65448 0.51817 0.25705 0.0
C309 C 0.67001 0.50735 0.26705 0.0
C310 C 0.64142 0.50442 0.26418 0.0
N311 N 0.66842 0.51946 0.25944 0.0
C312 C 0.65727 0.49338 0.27429 0.0
C313 C 0.64274 0.49187 0.27361 0.0
H314 H 0.65357 0.52802 0.2509 0.0
H315 H 0.68121 0.50863 0.26836 0.0
C316 C 0.7282 0.57248 0.17348 0.0
N317 N 0.7172 0.55866 0.1839 0.0
C318 C 0.73652 0.5736 0.1464 0.0
C319 C 0.72188 0.54627 0.14107 0.0
C320 C 0.71385 0.54569 0.16822 0.0
C321 C 0.73354 0.56036 0.13001 0.0
H322 H 0.73076 0.5826 0.18658 0.0
H323 H 0.70522 0.53483 0.17739 0.0
O324 O 0.68976 0.55303 0.29267 0.0
O325 O 0.71707 0.57446 0.25103 0.0
O326 O 0.70539 0.53992 0.24942 0.0
O327 O 0.68503 0.55186 0.22101 0.0
H328 H 0.66555 0.55648 0.29415 0.0
H329 H 0.68465 0.52991 0.32959 0.0
H330 H 0.64216 0.54032 0.32486 0.0
H331 H 0.66085 0.51415 0.35951 0.0
H332 H 0.72442 0.6202 0.21793 0.0
H333 H 0.73089 0.59038 0.30212 0.0
H334 H 0.71505 0.59276 0.20935 0.0
H335 H 0.73999 0.61786 0.30905 0.0
H336 H 0.72162 0.55833 0.39339 0.0
H337 H 0.75958 0.57089 0.33048 0.0
H338 H 0.66573 0.59379 0.23435 0.0
H339 H 0.68987 0.60305 0.32296 0.0
H340 H 0.73173 0.54739 0.22226 0.0
H341 H 0.70265 0.52414 0.30116 0.0
H342 H 0.75031 0.54042 0.24256 0.0
H343 H 0.72177 0.51761 0.32009 0.0
H344 H 0.67222 0.52517 0.19231 0.0
H345 H 0.69305 0.57347 0.1782 0.0
H346 H 0.66895 0.52153 0.1344 0.0
H347 H 0.68949 0.569 0.12053 0.0
H348 H 0.63049 0.50384 0.26358 0.0
H349 H 0.65879 0.48392 0.28082 0.0
H350 H 0.74529 0.5847 0.13857 0.0
H351 H 0.71933 0.53575 0.12955 0.0
Li352 Li 0.15241 0.70961 0.61347 0.0
Li353 Li 0.12783 0.69365 0.588 0.0
Li354 Li 0.14685 0.68606 0.58975 0.0
Li355 Li 0.15092 0.70752 0.55556 0.0
C356 C 0.13213 0.67631 0.64252 0.0
N357 N 0.12401 0.64965 0.67467 0.0
C358 C 0.1177 0.6636 0.63832 0.0
C359 C 0.14241 0.67545 0.66313 0.0
C360 C 0.1138 0.65024 0.65483 0.0
C361 C 0.1381 0.66187 0.67911 0.0
C362 C 0.13378 0.72324 0.59109 0.0
C363 C 0.12048 0.73629 0.57535 0.0
N364 N 0.11733 0.73733 0.60609 0.0
C365 C 0.1305 0.72455 0.62254 0.0
C366 C 0.12881 0.72924 0.56729 0.0
C367 C 0.12213 0.73166 0.62963 0.0
C368 C 0.17211 0.73823 0.6416 0.0
N369 N 0.16206 0.72334 0.64741 0.0
C370 C 0.1657 0.72741 0.70286 0.0
C371 C 0.15858 0.71787 0.67727 0.0
C372 C 0.17645 0.74277 0.69766 0.0
C373 C 0.17958 0.74819 0.66653 0.0
H374 H 0.17445 0.74231 0.61757 0.0
H375 H 0.15029 0.70607 0.68124 0.0
C376 C 0.0956 0.68066 0.57193 0.0
N377 N 0.10669 0.68703 0.59421 0.0
C378 C 0.08041 0.67537 0.58 0.0
C379 C 0.08832 0.68333 0.63362 0.0
C380 C 0.10329 0.68846 0.62454 0.0
C381 C 0.0766 0.67657 0.6113 0.0
H382 H 0.09837 0.67937 0.54806 0.0
H383 H 0.11221 0.69322 0.64202 0.0
C384 C 0.17974 0.71599 0.59525 0.0
N385 N 0.20801 0.73691 0.61855 0.0
C386 C 0.18941 0.7289 0.57767 0.0
C387 C 0.18453 0.71366 0.62456 0.0
C388 C 0.20364 0.73935 0.58987 0.0
C389 C 0.19883 0.72439 0.63598 0.0
C390 C 0.1257 0.68284 0.52622 0.0
C391 C 0.11854 0.66849 0.51209 0.0
C392 C 0.12401 0.69453 0.51313 0.0
C393 C 0.10973 0.66606 0.48511 0.0
C394 C 0.11514 0.69166 0.4861 0.0
N395 N 0.10823 0.6776 0.47278 0.0
C396 C 0.13747 0.65479 0.58825 0.0
C397 C 0.16284 0.67074 0.60535 0.0
C398 C 0.13826 0.64184 0.59603 0.0
N399 N 0.14953 0.66886 0.59381 0.0
C400 C 0.16412 0.65812 0.61352 0.0
C401 C 0.1516 0.64344 0.60958 0.0
H402 H 0.127 0.65365 0.5792 0.0
H403 H 0.17229 0.68202 0.60927 0.0
C404 C 0.16412 0.73338 0.5166 0.0
N405 N 0.15975 0.71838 0.51772 0.0
C406 C 0.17174 0.74206 0.4902 0.0
C407 C 0.1698 0.71956 0.46624 0.0
C408 C 0.16232 0.71134 0.49323 0.0
C409 C 0.17482 0.73521 0.46462 0.0
H410 H 0.16207 0.73869 0.53664 0.0
H411 H 0.15872 0.69938 0.49486 0.0
O412 O 0.1363 0.68938 0.62593 0.0
O413 O 0.14185 0.7162 0.5836 0.0
O414 O 0.16566 0.70573 0.58386 0.0
O415 O 0.13456 0.68541 0.55233 0.0
H416 H 0.10967 0.66392 0.62209 0.0
H417 H 0.15371 0.68507 0.66633 0.0
H418 H 0.1027 0.64031 0.65168 0.0
H419 H 0.146 0.66101 0.6949 0.0
H420 H 0.11654 0.74095 0.55716 0.0
H421 H 0.1342 0.71995 0.64128 0.0
H422 H 0.1314 0.72853 0.54285 0.0
H423 H 0.11942 0.73264 0.65386 0.0
H424 H 0.16304 0.72272 0.72643 0.0
H425 H 0.18764 0.76 0.66152 0.0
H426 H 0.07175 0.67031 0.56196 0.0
H427 H 0.08593 0.68421 0.65816 0.0
H428 H 0.18598 0.73085 0.55486 0.0
H429 H 0.17715 0.70384 0.63869 0.0
H430 H 0.21121 0.74941 0.57655 0.0
H431 H 0.2026 0.7228 0.65877 0.0
H432 H 0.1198 0.65934 0.52186 0.0
H433 H 0.12939 0.70564 0.52384 0.0
H434 H 0.1041 0.65501 0.47395 0.0
H435 H 0.11372 0.70061 0.47577 0.0
H436 H 0.1283 0.63075 0.59282 0.0
H437 H 0.1747 0.65985 0.62336 0.0
H438 H 0.17557 0.7541 0.4903 0.0
H439 H 0.17169 0.71373 0.44696 0.0
Li440 Li 0.44199 0.14982 0.94194 0.0
Li441 Li 0.43306 0.1264 0.915 0.0
Li442 Li 0.46066 0.14454 0.91755 0.0
Li443 Li 0.44273 0.15079 0.88557 0.0
C444 C 0.44695 0.12727 0.97922 0.0
N445 N 0.44802 0.11451 0.03601 0.0
C446 C 0.43368 0.11537 0.99226 0.0
C447 C 0.46076 0.13269 0.99516 0.0
C448 C 0.43446 0.10906 0.02096 0.0
C449 C 0.46106 0.12609 0.02382 0.0
C450 C 0.41317 0.14077 0.92799 0.0
C451 C 0.39627 0.15083 0.93397 0.0
N452 N 0.39093 0.14288 0.96126 0.0
C453 C 0.4074 0.13257 0.9559 0.0
C454 C 0.40748 0.14987 0.91675 0.0
C455 C 0.39621 0.13384 0.97246 0.0
C456 C 0.43548 0.1708 0.97205 0.0
N457 N 0.43876 0.15956 0.97765 0.0
C458 C 0.43796 0.16285 0.03322 0.0
C459 C 0.44 0.15552 0.00755 0.0
C460 C 0.43457 0.1745 0.02819 0.0
C461 C 0.43331 0.17844 0.99707 0.0
H462 H 0.43462 0.17388 0.94806 0.0
H463 H 0.44276 0.14674 0.01172 0.0
C464 C 0.42525 0.09605 0.9223 0.0
N465 N 0.41924 0.10514 0.91673 0.0
C466 C 0.41577 0.08064 0.92863 0.0
C467 C 0.39404 0.08414 0.9226 0.0
C468 C 0.40397 0.09949 0.91608 0.0
C469 C 0.39995 0.07457 0.92957 0.0
H470 H 0.43745 0.10095 0.92323 0.0
H471 H 0.39951 0.10701 0.91167 0.0
C472 C 0.46664 0.17647 0.93348 0.0
N473 N 0.4798 0.20182 0.97191 0.0
C474 C 0.46669 0.18972 0.92443 0.0
C475 C 0.47346 0.17618 0.96188 0.0
C476 C 0.47336 0.2024 0.94423 0.0
C477 C 0.47999 0.18909 0.98104 0.0
C478 C 0.44222 0.12153 0.86092 0.0
C479 C 0.44954 0.11303 0.85869 0.0
C480 C 0.42842 0.11662 0.84531 0.0
C481 C 0.44286 0.09964 0.841 0.0
C482 C 0.4221 0.10316 0.82787 0.0
N483 N 0.42939 0.09502 0.82611 0.0
C484 C 0.47998 0.13288 0.92781 0.0
C485 C 0.49284 0.15971 0.92291 0.0
C486 C 0.49347 0.13332 0.93622 0.0
N487 N 0.47988 0.14597 0.92196 0.0
C488 C 0.5066 0.16069 0.93139 0.0
C489 C 0.50697 0.14739 0.93887 0.0
H490 H 0.46943 0.12214 0.92725 0.0
H491 H 0.4924 0.16995 0.91835 0.0
C492 C 0.43849 0.17254 0.85371 0.0
N493 N 0.44123 0.16089 0.84922 0.0
C494 C 0.43771 0.1807 0.82802 0.0
C495 C 0.44238 0.16458 0.79344 0.0
C496 C 0.44318 0.15679 0.81987 0.0
C497 C 0.43967 0.17679 0.7973 0.0
H498 H 0.43706 0.1756 0.87734 0.0
H499 H 0.44543 0.14753 0.81697 0.0
O500 O 0.44647 0.13359 0.95106 0.0
O501 O 0.42433 0.13988 0.91174 0.0
O502 O 0.45982 0.16379 0.91485 0.0
O503 O 0.44835 0.13445 0.87879 0.0
H504 H 0.42288 0.11101 0.98044 0.0
H505 H 0.47114 0.14195 0.98565 0.0
H506 H 0.42428 0.09984 0.03127 0.0
H507 H 0.47167 0.13018 0.03637 0.0
H508 H 0.39181 0.1579 0.92564 0.0
H509 H 0.41166 0.12547 0.96488 0.0
H510 H 0.41168 0.15615 0.895 0.0
H511 H 0.39174 0.12766 0.99424 0.0
H512 H 0.43933 0.15963 0.05679 0.0
H513 H 0.4306 0.18727 0.99208 0.0
H514 H 0.42081 0.07372 0.9343 0.0
H515 H 0.38191 0.07986 0.92284 0.0
H516 H 0.4616 0.19021 0.90241 0.0
H517 H 0.47348 0.16601 0.96926 0.0
H518 H 0.47341 0.21271 0.9376 0.0
H519 H 0.48518 0.18896 0.00321 0.0
H520 H 0.46024 0.11669 0.87062 0.0
H521 H 0.42258 0.12305 0.847 0.0
H522 H 0.44836 0.0929 0.83915 0.0
H523 H 0.41139 0.09917 0.81581 0.0
H524 H 0.49324 0.12276 0.94126 0.0
H525 H 0.51667 0.17179 0.93341 0.0
H526 H 0.43586 0.19016 0.8323 0.0
H527 H 0.44378 0.16101 0.77025 0.0
Li528 Li 0.53706 0.68333 0.41439 0.0
Li529 Li 0.55515 0.70623 0.44576 0.0
Li530 Li 0.55522 0.70712 0.38938 0.0
Li531 Li 0.56486 0.69251 0.41537 0.0
C532 C 0.53327 0.71203 0.40357 0.0
N533 N 0.52456 0.73024 0.37206 0.0
C534 C 0.5398 0.7274 0.41136 0.0
C535 C 0.52225 0.70588 0.37989 0.0
C536 C 0.53526 0.73643 0.39511 0.0
C537 C 0.51802 0.71528 0.36421 0.0
C538 C 0.55722 0.68312 0.4774 0.0
C539 C 0.57897 0.69298 0.5119 0.0
N540 N 0.57152 0.6804 0.53031 0.0
C541 C 0.54979 0.67029 0.49663 0.0
C542 C 0.57194 0.69457 0.48504 0.0
C543 C 0.55721 0.66913 0.52329 0.0
C544 C 0.51777 0.65255 0.40282 0.0
N545 N 0.51782 0.66549 0.41104 0.0
C546 C 0.4908 0.65307 0.40638 0.0
C547 C 0.50472 0.66594 0.41358 0.0
C548 C 0.49043 0.63967 0.39645 0.0
C549 C 0.50415 0.63945 0.39532 0.0
H550 H 0.52842 0.65263 0.4007 0.0
H551 H 0.50513 0.67641 0.42023 0.0
C552 C 0.5673 0.73259 0.48305 0.0
N553 N 0.55721 0.71742 0.48308 0.0
C554 C 0.56856 0.74144 0.50929 0.0
C555 C 0.54924 0.71882 0.53535 0.0
C556 C 0.5483 0.71041 0.50851 0.0
C557 C 0.55937 0.73459 0.53584 0.0
H558 H 0.57418 0.73784 0.4624 0.0
H559 H 0.5403 0.69833 0.50774 0.0
C560 C 0.54793 0.68026 0.35006 0.0
N561 N 0.54178 0.66705 0.29094 0.0
C562 C 0.55942 0.67987 0.33264 0.0
C563 C 0.53327 0.67377 0.33746 0.0
C564 C 0.55609 0.67318 0.30278 0.0
C565 C 0.53041 0.6672 0.30752 0.0
C566 C 0.58685 0.72248 0.40276 0.0
C567 C 0.58836 0.71847 0.37204 0.0
C568 C 0.59947 0.73414 0.41811 0.0
C569 C 0.60249 0.7262 0.35714 0.0
C570 C 0.61342 0.7416 0.40243 0.0
N571 N 0.61463 0.7375 0.37253 0.0
C572 C 0.56808 0.73524 0.35626 0.0
C573 C 0.54964 0.71405 0.32747 0.0
C574 C 0.57049 0.74484 0.33066 0.0
N575 N 0.55796 0.72009 0.35404 0.0
C576 C 0.55168 0.72318 0.30137 0.0
C577 C 0.56233 0.73877 0.30262 0.0
H578 H 0.57432 0.73987 0.37791 0.0
H579 H 0.5412 0.70219 0.3266 0.0
C580 C 0.57202 0.67044 0.40044 0.0
N581 N 0.57845 0.68483 0.41188 0.0
C582 C 0.58103 0.66412 0.39284 0.0
C583 C 0.60309 0.68726 0.41053 0.0
C584 C 0.59361 0.69316 0.41777 0.0
C585 C 0.59684 0.67265 0.3973 0.0
H586 H 0.55992 0.66409 0.39605 0.0
H587 H 0.59843 0.70449 0.42735 0.0
O588 O 0.53791 0.70314 0.41854 0.0
O589 O 0.55007 0.68439 0.45124 0.0
O590 O 0.55088 0.68641 0.37972 0.0
O591 O 0.57319 0.71499 0.41805 0.0
H592 H 0.5484 0.73235 0.4295 0.0
H593 H 0.51722 0.69405 0.37332 0.0
H594 H 0.54028 0.74837 0.40075 0.0
H595 H 0.50959 0.71071 0.34567 0.0
H596 H 0.59035 0.70176 0.5181 0.0
H597 H 0.53839 0.66133 0.49099 0.0
H598 H 0.57788 0.70459 0.47049 0.0
H599 H 0.55159 0.65926 0.5384 0.0
H600 H 0.48049 0.65368 0.40804 0.0
H601 H 0.50447 0.62949 0.38738 0.0
H602 H 0.57663 0.75352 0.50878 0.0
H603 H 0.54183 0.71311 0.55514 0.0
H604 H 0.57079 0.6846 0.34207 0.0
H605 H 0.52425 0.67405 0.35039 0.0
H606 H 0.56489 0.67284 0.28907 0.0
H607 H 0.51914 0.66225 0.29745 0.0
H608 H 0.57871 0.70958 0.35977 0.0
H609 H 0.5985 0.73734 0.44196 0.0
H610 H 0.6038 0.72321 0.33335 0.0
H611 H 0.62329 0.75063 0.41404 0.0
H612 H 0.57877 0.75682 0.33266 0.0
H613 H 0.54481 0.71811 0.28056 0.0
H614 H 0.5757 0.6529 0.38238 0.0
H615 H 0.61518 0.69413 0.41486 0.0
Li616 Li 0.84906 0.55512 0.78134 0.0
Li617 Li 0.85385 0.53676 0.75118 0.0
Li618 Li 0.87234 0.56457 0.75082 0.0
Li619 Li 0.84792 0.55447 0.72509 0.0
C620 C 0.87427 0.55775 0.8134 0.0
N621 N 0.89116 0.57282 0.86593 0.0
C622 C 0.8794 0.55051 0.83389 0.0
C623 C 0.87773 0.57266 0.81961 0.0
C624 C 0.88792 0.55832 0.86034 0.0
C625 C 0.88628 0.58008 0.84629 0.0
C626 C 0.82114 0.53276 0.74086 0.0
C627 C 0.80224 0.51734 0.70229 0.0
N628 N 0.79386 0.52384 0.71071 0.0
C629 C 0.81232 0.53924 0.74925 0.0
C630 C 0.81606 0.52169 0.71729 0.0
C631 C 0.79857 0.53459 0.73369 0.0
C632 C 0.83609 0.5685 0.81875 0.0
N633 N 0.83997 0.5575 0.81832 0.0
C634 C 0.82905 0.54882 0.86929 0.0
C635 C 0.83674 0.5478 0.84291 0.0
C636 C 0.82463 0.55991 0.87023 0.0
C637 C 0.82841 0.56994 0.84461 0.0
H638 H 0.83872 0.57597 0.79871 0.0
H639 H 0.83986 0.53907 0.84174 0.0
C640 C 0.86521 0.51724 0.74069 0.0
N641 N 0.85239 0.51748 0.74869 0.0
C642 C 0.86452 0.5035 0.7335 0.0
C643 C 0.83755 0.49046 0.74447 0.0
C644 C 0.83876 0.50447 0.75136 0.0
C645 C 0.85049 0.48988 0.73469 0.0
H646 H 0.87584 0.52781 0.73841 0.0
H647 H 0.82876 0.50503 0.75779 0.0
C648 C 0.8641 0.58609 0.73575 0.0
N649 N 0.87635 0.61296 0.70214 0.0
C650 C 0.8694 0.5868 0.70506 0.0
C651 C 0.86501 0.59906 0.74933 0.0
C652 C 0.87556 0.60048 0.68846 0.0
C653 C 0.87125 0.61253 0.73196 0.0
C654 C 0.86759 0.54669 0.68674 0.0
C655 C 0.87979 0.55774 0.66926 0.0
C656 C 0.85913 0.53193 0.67483 0.0
C657 C 0.88321 0.55387 0.64003 0.0
C658 C 0.8629 0.5285 0.64551 0.0
N659 N 0.87477 0.53945 0.62886 0.0
C660 C 0.90167 0.57145 0.73755 0.0
C661 C 0.90031 0.5935 0.74973 0.0
C662 C 0.91692 0.58029 0.72913 0.0
N663 N 0.89361 0.57815 0.74671 0.0
C664 C 0.91556 0.60281 0.74139 0.0
C665 C 0.92396 0.59622 0.7301 0.0
H666 H 0.89606 0.55921 0.73561 0.0
H667 H 0.89373 0.59857 0.75755 0.0
C668 C 0.83186 0.56638 0.69241 0.0
N669 N 0.83733 0.55664 0.6898 0.0
C670 C 0.82408 0.56831 0.66733 0.0
C671 C 0.82734 0.54985 0.63763 0.0
C672 C 0.83508 0.54834 0.6632 0.0
C673 C 0.82177 0.55999 0.63945 0.0
H674 H 0.83344 0.57259 0.7141 0.0
H675 H 0.83907 0.54035 0.66188 0.0
O676 O 0.86589 0.5502 0.78748 0.0
O677 O 0.83486 0.53753 0.75512 0.0
O678 O 0.8581 0.57287 0.75266 0.0
O679 O 0.86434 0.55018 0.71585 0.0
H680 H 0.8768 0.53896 0.82939 0.0
H681 H 0.87387 0.57846 0.80408 0.0
H682 H 0.89196 0.55286 0.87641 0.0
H683 H 0.88904 0.59162 0.85139 0.0
H684 H 0.79822 0.50887 0.68383 0.0
H685 H 0.81615 0.5479 0.76732 0.0
H686 H 0.82284 0.51669 0.71028 0.0
H687 H 0.79166 0.53956 0.73979 0.0
H688 H 0.82623 0.54073 0.88829 0.0
H689 H 0.82541 0.57878 0.84446 0.0
H690 H 0.87474 0.50367 0.72567 0.0
H691 H 0.82656 0.48022 0.74617 0.0
H692 H 0.8687 0.57689 0.69411 0.0
H693 H 0.86101 0.59873 0.77311 0.0
H694 H 0.87969 0.60116 0.66468 0.0
H695 H 0.87205 0.62266 0.74221 0.0
H696 H 0.8866 0.5692 0.67814 0.0
H697 H 0.84958 0.52324 0.68783 0.0
H698 H 0.8926 0.56232 0.62626 0.0
H699 H 0.85639 0.51714 0.63597 0.0
H700 H 0.92303 0.57469 0.72131 0.0
H701 H 0.9205 0.61503 0.74251 0.0
H702 H 0.81974 0.57605 0.66991 0.0
H703 H 0.82586 0.54325 0.61655 0.0
Li704 Li 0.3177 0.85581 0.08016 0.0
Li705 Li 0.29403 0.84988 0.11302 0.0
Li706 Li 0.29354 0.84955 0.05533 0.0
Li707 Li 0.30746 0.87289 0.08258 0.0
C708 C 0.29104 0.82327 0.0671 0.0
N709 N 0.27681 0.79713 0.03114 0.0
C710 C 0.27593 0.8123 0.07319 0.0
C711 C 0.29892 0.82091 0.04282 0.0
C712 C 0.26893 0.79917 0.05472 0.0
C713 C 0.29153 0.80762 0.02489 0.0
C714 C 0.32501 0.87996 0.13289 0.0
C715 C 0.32829 0.90096 0.16509 0.0
N716 N 0.34358 0.90784 0.16079 0.0
C717 C 0.34077 0.88716 0.12911 0.0
C718 C 0.31872 0.88683 0.15132 0.0
C719 C 0.34996 0.90128 0.14328 0.0
C720 C 0.34745 0.86641 0.06114 0.0
N721 N 0.33543 0.85433 0.07496 0.0
C722 C 0.34822 0.84 0.07309 0.0
C723 C 0.33565 0.84135 0.08157 0.0
C724 C 0.36065 0.85214 0.05777 0.0
C725 C 0.36027 0.86561 0.05254 0.0
H726 H 0.3469 0.87656 0.0561 0.0
H727 H 0.32582 0.83185 0.09224 0.0
C728 C 0.2673 0.83083 0.14594 0.0
N729 N 0.28254 0.84 0.14951 0.0
C730 C 0.25827 0.82282 0.17162 0.0
C731 C 0.28073 0.83418 0.20445 0.0
C732 C 0.28937 0.84191 0.17801 0.0
C733 C 0.26498 0.82437 0.20134 0.0
H734 H 0.26218 0.82972 0.12302 0.0
H735 H 0.30152 0.84932 0.18011 0.0
C736 C 0.31455 0.87377 0.01841 0.0
N737 N 0.31578 0.88972 0.96472 0.0
C738 C 0.30307 0.87717 0.01216 0.0
C739 C 0.32664 0.87846 0.99732 0.0
C740 C 0.3039 0.88525 0.98492 0.0
C741 C 0.32706 0.88651 0.9703 0.0
C742 C 0.27604 0.86419 0.09252 0.0
C743 C 0.26731 0.86623 0.06965 0.0
C744 C 0.27506 0.8677 0.12397 0.0
C745 C 0.25798 0.87204 0.07855 0.0
C746 C 0.26557 0.87347 0.13192 0.0
N747 N 0.25732 0.87552 0.10924 0.0
C748 C 0.26586 0.83347 0.0222 0.0
C749 C 0.28779 0.83856 0.99291 0.0
C750 C 0.25653 0.82598 0.99647 0.0
N751 N 0.28116 0.83957 0.01989 0.0
C752 C 0.2789 0.83112 0.96667 0.0
C753 C 0.26306 0.82471 0.96825 0.0
H754 H 0.26092 0.83433 0.04413 0.0
H755 H 0.29998 0.84343 0.99185 0.0
C756 C 0.32959 0.90235 0.06944 0.0
N757 N 0.31481 0.8943 0.07865 0.0
C758 C 0.336 0.91752 0.06053 0.0
C759 C 0.31204 0.91616 0.07158 0.0
C760 C 0.30609 0.90097 0.08052 0.0
C761 C 0.32709 0.92453 0.06063 0.0
H762 H 0.33623 0.89674 0.06773 0.0
H763 H 0.29437 0.89446 0.08762 0.0
O764 O 0.29794 0.83642 0.08425 0.0
O765 O 0.31582 0.86626 0.1187 0.0
O766 O 0.31411 0.86605 0.04518 0.0
O767 O 0.28514 0.85839 0.08419 0.0
H768 H 0.26965 0.81397 0.0918 0.0
H769 H 0.31054 0.82939 0.03745 0.0
H770 H 0.25723 0.79062 0.05907 0.0
H771 H 0.29746 0.80571 0.00588 0.0
H772 H 0.32355 0.90645 0.1792 0.0
H773 H 0.34585 0.88194 0.11528 0.0
H774 H 0.30659 0.88138 0.15483 0.0
H775 H 0.36216 0.90701 0.14036 0.0
H776 H 0.34793 0.82935 0.07732 0.0
H777 H 0.36968 0.87537 0.04141 0.0
H778 H 0.24614 0.81557 0.16831 0.0
H779 H 0.28636 0.83562 0.2269 0.0
H780 H 0.29369 0.87368 0.02826 0.0
H781 H 0.33562 0.8759 0.00178 0.0
H782 H 0.29511 0.88799 0.97985 0.0
H783 H 0.33636 0.89022 0.95378 0.0
H784 H 0.26773 0.86336 0.04526 0.0
H785 H 0.28146 0.86592 0.14208 0.0
H786 H 0.25123 0.87375 0.06107 0.0
H787 H 0.26475 0.87628 0.15616 0.0
H788 H 0.24435 0.82101 0.99879 0.0
H789 H 0.2844 0.83053 0.94529 0.0
H790 H 0.34774 0.92358 0.05287 0.0
H791 H 0.30469 0.92103 0.07184 0.0
Li792 Li 0.46165 0.31569 0.40893 0.0
Li793 Li 0.44367 0.29412 0.443 0.0
Li794 Li 0.44337 0.29167 0.38416 0.0
Li795 Li 0.43546 0.30748 0.40929 0.0
C796 C 0.47153 0.29578 0.43162 0.0
N797 N 0.49459 0.29656 0.46753 0.0
C798 C 0.47653 0.3047 0.45886 0.0
C799 C 0.47825 0.28726 0.42265 0.0
C800 C 0.4882 0.30493 0.4767 0.0
C801 C 0.48991 0.28782 0.4411 0.0
C802 C 0.44254 0.32239 0.4613 0.0
C803 C 0.42233 0.32011 0.49479 0.0
N804 N 0.4274 0.33518 0.49086 0.0
C805 C 0.4476 0.33786 0.4577 0.0
C806 C 0.42983 0.31343 0.48003 0.0
C807 C 0.43976 0.34412 0.47278 0.0
C808 C 0.48112 0.34609 0.39583 0.0
N809 N 0.4813 0.33316 0.40309 0.0
C810 C 0.50806 0.3455 0.39349 0.0
C811 C 0.49441 0.33262 0.40207 0.0
C812 C 0.50815 0.35896 0.38537 0.0
C813 C 0.49447 0.35919 0.38699 0.0
H814 H 0.47046 0.34605 0.39574 0.0
H815 H 0.49427 0.32211 0.40659 0.0
C816 C 0.43775 0.26818 0.47603 0.0
N817 N 0.44149 0.28289 0.48032 0.0
C818 C 0.43695 0.25924 0.50173 0.0
C819 C 0.44359 0.2807 0.53594 0.0
C820 C 0.44441 0.28929 0.50948 0.0
C821 C 0.43996 0.2655 0.53216 0.0
H822 H 0.43565 0.26348 0.45248 0.0
H823 H 0.44768 0.30112 0.51213 0.0
C824 C 0.45736 0.31621 0.34521 0.0
N825 N 0.47498 0.32387 0.29133 0.0
C826 C 0.45505 0.32406 0.32078 0.0
C827 C 0.46861 0.31219 0.34209 0.0
C828 C 0.46408 0.32785 0.29376 0.0
C829 C 0.47741 0.31618 0.31472 0.0
C830 C 0.41098 0.27863 0.4127 0.0
C831 C 0.40377 0.27795 0.38422 0.0
C832 C 0.40233 0.2725 0.43997 0.0
C833 C 0.38796 0.2713 0.38359 0.0
C834 C 0.38655 0.26592 0.43835 0.0
N835 N 0.37975 0.26549 0.41044 0.0
C836 C 0.4439 0.26735 0.35282 0.0
C837 C 0.43369 0.28002 0.32344 0.0
C838 C 0.44195 0.25788 0.32724 0.0
N839 N 0.43988 0.2782 0.35031 0.0
C840 C 0.43162 0.27088 0.29729 0.0
C841 C 0.43587 0.25971 0.29891 0.0
H842 H 0.44878 0.26618 0.37455 0.0
H843 H 0.43054 0.28872 0.3222 0.0
C844 C 0.42728 0.32716 0.38298 0.0
N845 N 0.42189 0.31536 0.40359 0.0
C846 C 0.4183 0.33329 0.37387 0.0
C847 C 0.3986 0.31569 0.40889 0.0
C848 C 0.408 0.30984 0.41728 0.0
C849 C 0.40361 0.32733 0.38631 0.0
H850 H 0.43856 0.33173 0.3733 0.0
H851 H 0.40406 0.30077 0.43433 0.0
O852 O 0.45998 0.29518 0.41396 0.0
O853 O 0.44983 0.31596 0.44619 0.0
O854 O 0.44855 0.31247 0.37181 0.0
O855 O 0.42641 0.28502 0.41386 0.0
H856 H 0.47151 0.31141 0.46616 0.0
H857 H 0.47452 0.28031 0.40163 0.0
H858 H 0.49217 0.31177 0.49783 0.0
H859 H 0.49522 0.28129 0.43443 0.0
H860 H 0.41243 0.31329 0.5092 0.0
H861 H 0.45742 0.34497 0.44335 0.0
H862 H 0.42564 0.30139 0.48272 0.0
H863 H 0.44351 0.35607 0.47011 0.0
H864 H 0.5183 0.34474 0.39195 0.0
H865 H 0.49403 0.36933 0.38106 0.0
H866 H 0.434 0.24754 0.49783 0.0
H867 H 0.44617 0.286 0.55897 0.0
H868 H 0.44633 0.32717 0.32257 0.0
H869 H 0.47058 0.30604 0.36049 0.0
H870 H 0.4624 0.33393 0.27471 0.0
H871 H 0.48616 0.31316 0.31207 0.0
H872 H 0.41033 0.28265 0.36294 0.0
H873 H 0.40777 0.27287 0.46215 0.0
H874 H 0.38222 0.27079 0.36177 0.0
H875 H 0.3797 0.26119 0.45928 0.0
H876 H 0.4455 0.24948 0.32936 0.0
H877 H 0.42671 0.27253 0.27604 0.0
H878 H 0.42279 0.34256 0.3571 0.0
H879 H 0.38738 0.31085 0.41923 0.0
Li880 Li 0.1438 0.46122 0.74416 0.0
Li881 Li 0.14935 0.44351 0.77836 0.0
Li882 Li 0.15072 0.44354 0.72077 0.0
Li883 Li 0.12688 0.43391 0.74584 0.0
C884 C 0.17678 0.46713 0.73489 0.0
N885 N 0.20386 0.4788 0.7023 0.0
C886 C 0.18694 0.46202 0.74154 0.0
C887 C 0.1804 0.47822 0.71178 0.0
C888 C 0.20057 0.46805 0.72477 0.0
C889 C 0.19416 0.48398 0.69554 0.0
C890 C 0.11876 0.44343 0.79549 0.0
C891 C 0.09879 0.42607 0.83015 0.0
N892 N 0.0902 0.4323 0.82146 0.0
C893 C 0.10983 0.44978 0.78718 0.0
C894 C 0.11328 0.43158 0.81739 0.0
C895 C 0.09539 0.44396 0.80047 0.0
C896 C 0.13352 0.48016 0.72232 0.0
N897 N 0.14508 0.4803 0.73865 0.0
C898 C 0.15863 0.50745 0.73986 0.0
C899 C 0.15742 0.49353 0.7479 0.0
C900 C 0.14704 0.50767 0.72214 0.0
C901 C 0.13423 0.49376 0.71391 0.0
H902 H 0.12388 0.46944 0.7152 0.0
H903 H 0.16653 0.49327 0.76056 0.0
C904 C 0.16691 0.43473 0.81373 0.0
N905 N 0.15887 0.44209 0.81568 0.0
C906 C 0.17481 0.43393 0.83987 0.0
C907 C 0.16585 0.44815 0.86977 0.0
C908 C 0.1581 0.44867 0.84297 0.0
C909 C 0.17448 0.44083 0.86834 0.0
H910 H 0.16727 0.42956 0.7917 0.0
H911 H 0.15165 0.45451 0.84375 0.0
C912 C 0.12803 0.44082 0.68049 0.0
N913 N 0.11523 0.42746 0.62345 0.0
C914 C 0.12368 0.42563 0.6749 0.0
C915 C 0.1259 0.44924 0.65706 0.0
C916 C 0.11721 0.41907 0.64593 0.0
C917 C 0.11941 0.44228 0.62836 0.0
C918 C 0.13486 0.41112 0.75737 0.0
C919 C 0.13232 0.40025 0.73434 0.0
C920 C 0.13115 0.40659 0.78875 0.0
C921 C 0.1258 0.38499 0.743 0.0
C922 C 0.12468 0.39122 0.79647 0.0
N923 N 0.12214 0.38082 0.77362 0.0
C924 C 0.16688 0.4317 0.68843 0.0
C925 C 0.16342 0.44982 0.65991 0.0
C926 C 0.17475 0.43007 0.66316 0.0
N927 N 0.1614 0.44143 0.68628 0.0
C928 C 0.17117 0.44852 0.63409 0.0
C929 C 0.17697 0.43855 0.63549 0.0
H930 H 0.16521 0.4253 0.70987 0.0
H931 H 0.15906 0.45757 0.65899 0.0
C932 C 0.09807 0.42611 0.72608 0.0
N933 N 0.10549 0.41981 0.74076 0.0
C934 C 0.08304 0.41712 0.7165 0.0
C935 C 0.08304 0.39529 0.739 0.0
C936 C 0.09819 0.40474 0.74802 0.0
C937 C 0.07544 0.40143 0.72225 0.0
H938 H 0.10403 0.43814 0.72086 0.0
H939 H 0.10413 0.3999 0.75994 0.0
O940 O 0.16316 0.46102 0.75032 0.0
O941 O 0.13277 0.44873 0.78212 0.0
O942 O 0.13439 0.44751 0.70871 0.0
O943 O 0.14143 0.42613 0.74931 0.0
H944 H 0.18426 0.45337 0.75922 0.0
H945 H 0.17257 0.48216 0.70606 0.0
H946 H 0.20851 0.46414 0.72954 0.0
H947 H 0.19707 0.4925 0.67745 0.0
H948 H 0.09437 0.41685 0.84699 0.0
H949 H 0.11393 0.45901 0.77041 0.0
H950 H 0.12013 0.4267 0.82446 0.0
H951 H 0.0883 0.44868 0.79404 0.0
H952 H 0.16878 0.5179 0.74644 0.0
H953 H 0.1249 0.49336 0.70076 0.0
H954 H 0.18109 0.42795 0.8378 0.0
H955 H 0.16539 0.45375 0.8911 0.0
H956 H 0.12521 0.41898 0.6928 0.0
H957 H 0.12927 0.46104 0.66097 0.0
H958 H 0.11375 0.40731 0.64134 0.0
H959 H 0.1177 0.44865 0.61 0.0
H960 H 0.13541 0.40356 0.71002 0.0
H961 H 0.13322 0.41481 0.80696 0.0
H962 H 0.12371 0.37646 0.72539 0.0
H963 H 0.12169 0.38756 0.82064 0.0
H964 H 0.17923 0.42243 0.66544 0.0
H965 H 0.17244 0.45513 0.61314 0.0
H966 H 0.07749 0.42237 0.70423 0.0
H967 H 0.07755 0.38323 0.74394 0.0
Li968 Li 0.70651 0.1505 0.11102 0.0
Li969 Li 0.68316 0.14561 0.07843 0.0
Li970 Li 0.6926 0.1276 0.07924 0.0
Li971 Li 0.70729 0.15154 0.05406 0.0
C972 C 0.67848 0.12108 0.13265 0.0
N973 N 0.66622 0.09383 0.16476 0.0
C974 C 0.66294 0.11064 0.13051 0.0
C975 C 0.68779 0.11772 0.1512 0.0
C976 C 0.65696 0.09691 0.14691 0.0
C977 C 0.68137 0.10387 0.16724 0.0
C978 C 0.71225 0.17834 0.06944 0.0
C979 C 0.71611 0.19715 0.03032 0.0
N980 N 0.73086 0.20563 0.03956 0.0
C981 C 0.72741 0.18725 0.07865 0.0
C982 C 0.70651 0.18333 0.04516 0.0
C983 C 0.73665 0.20101 0.06322 0.0
C984 C 0.73254 0.16397 0.14971 0.0
N985 N 0.71751 0.15949 0.1485 0.0
C986 C 0.71855 0.16947 0.19999 0.0
C987 C 0.71039 0.16197 0.17295 0.0
C988 C 0.73417 0.17447 0.20181 0.0
C989 C 0.74113 0.1715 0.1763 0.0
H990 H 0.73792 0.16199 0.12971 0.0
H991 H 0.69842 0.15829 0.17123 0.0
C992 C 0.65233 0.13451 0.06737 0.0
N993 N 0.66547 0.14729 0.07525 0.0
C994 C 0.63933 0.13531 0.06036 0.0
C995 C 0.65354 0.16234 0.07052 0.0
C996 C 0.66626 0.16101 0.07752 0.0
C997 C 0.63991 0.14941 0.06129 0.0
H998 H 0.65216 0.12382 0.06519 0.0
H999 H 0.67689 0.17098 0.08378 0.0
C1000 C 0.72247 0.13504 0.06746 0.0
N1001 N 0.73736 0.12215 0.03725 0.0
C1002 C 0.71871 0.12989 0.03646 0.0
C1003 C 0.73383 0.13367 0.0831 0.0
C1004 C 0.72636 0.1234 0.02158 0.0
C1005 C 0.74122 0.12711 0.06743 0.0
C1006 C 0.68079 0.13277 0.01353 0.0
C1007 C 0.68075 0.12135 0.99503 0.0
C1008 C 0.67436 0.14112 0.00164 0.0
C1009 C 0.67446 0.11863 0.96483 0.0
C1010 C 0.66818 0.13805 0.97132 0.0
N1011 N 0.66836 0.12697 0.95369 0.0
C1012 C 0.67111 0.09847 0.06153 0.0
C1013 C 0.69299 0.09937 0.08344 0.0
C1014 C 0.66501 0.08318 0.05392 0.0
N1015 N 0.685 0.10631 0.0753 0.0
C1016 C 0.68729 0.08401 0.07627 0.0
C1017 C 0.67323 0.07578 0.06077 0.0
H1018 H 0.66497 0.10428 0.05553 0.0
H1019 H 0.70391 0.10579 0.09488 0.0
C1020 C 0.73582 0.16762 0.02318 0.0
N1021 N 0.72066 0.16218 0.0195 0.0
C1022 C 0.74591 0.17548 0.99868 0.0
C1023 C 0.72466 0.17221 0.96726 0.0
C1024 C 0.71502 0.16447 0.99232 0.0
C1025 C 0.74034 0.17784 0.97019 0.0
H1026 H 0.74009 0.16597 0.04528 0.0
H1027 H 0.70309 0.16054 0.99013 0.0
O1028 O 0.68467 0.13434 0.11596 0.0
O1029 O 0.70318 0.16461 0.08355 0.0
O1030 O 0.71503 0.14129 0.0827 0.0
O1031 O 0.68655 0.13533 0.04353 0.0
H1032 H 0.65561 0.11306 0.11614 0.0
H1033 H 0.69987 0.12566 0.15286 0.0
H1034 H 0.64496 0.08867 0.14537 0.0
H1035 H 0.68844 0.10108 0.18156 0.0
H1036 H 0.71186 0.2011 0.01134 0.0
H1037 H 0.73204 0.1835 0.09726 0.0
H1038 H 0.69484 0.17647 0.0375 0.0
H1039 H 0.74844 0.20799 0.06997 0.0
H1040 H 0.71269 0.17136 0.21923 0.0
H1041 H 0.75317 0.17532 0.17648 0.0
H1042 H 0.62914 0.1251 0.05293 0.0
H1043 H 0.65441 0.1734 0.07181 0.0
H1044 H 0.71006 0.13097 0.02398 0.0
H1045 H 0.73683 0.13756 0.10716 0.0
H1046 H 0.72357 0.11937 0.99758 0.0
H1047 H 0.75001 0.12594 0.07927 0.0
H1048 H 0.68544 0.11458 0.00388 0.0
H1049 H 0.67439 0.15008 0.01538 0.0
H1050 H 0.67438 0.10985 0.95027 0.0
H1051 H 0.66328 0.14451 0.96179 0.0
H1052 H 0.65422 0.07741 0.04168 0.0
H1053 H 0.6939 0.0787 0.08247 0.0
H1054 H 0.75795 0.17986 0.00219 0.0
H1055 H 0.71982 0.17366 0.9457 0.0
H1056 H 0.35423 0.40601 0.25463 0.0
H1057 H 0.3654 0.39144 0.27596 0.0
H1058 H 0.32287 0.36065 0.32092 0.0
H1059 H 0.31164 0.37528 0.30006 0.0
H1060 H 0.3675 0.38644 0.34154 0.0
H1061 H 0.3352 0.3324 0.27469 0.0
H1062 H 0.33634 0.34992 0.26211 0.0
H1063 H 0.32404 0.33925 0.29406 0.0
C1064 C 0.34722 0.39611 0.26896 0.0
C1065 C 0.33204 0.39183 0.27568 0.0
C1066 C 0.35361 0.38778 0.28103 0.0
C1067 C 0.34493 0.37494 0.29985 0.0
C1068 C 0.32969 0.37039 0.30603 0.0
H1069 H 0.38513 0.33428 0.4212 0.0
H1070 H 0.36958 0.34491 0.40199 0.0
C1071 C 0.32328 0.37874 0.294 0.0
C1072 C 0.35215 0.36684 0.31427 0.0
H1073 H 0.35209 0.3332 0.31396 0.0
C1074 C 0.3641 0.37478 0.33565 0.0
C1075 C 0.34769 0.35166 0.30639 0.0
C1076 C 0.33519 0.34278 0.28289 0.0
C1077 C 0.37184 0.36798 0.34918 0.0
C1078 C 0.36739 0.3528 0.34133 0.0
C1079 C 0.35536 0.3448 0.32013 0.0
C1080 C 0.37586 0.34544 0.35309 0.0
C1081 C 0.38504 0.37725 0.37099 0.0
C1082 C 0.38417 0.34187 0.33185 0.0
C1083 C 0.39298 0.3358 0.34269 0.0
C1084 C 0.3936 0.3331 0.37501 0.0
C1085 C 0.38487 0.33623 0.39618 0.0
C1086 C 0.37608 0.34238 0.38529 0.0
H1087 H 0.38873 0.38954 0.37012 0.0
H1088 H 0.38162 0.37324 0.39555 0.0
H1089 H 0.39487 0.3758 0.36489 0.0
H1090 H 0.38408 0.34408 0.30689 0.0
H1091 H 0.39936 0.33325 0.32573 0.0
H1092 H 0.94802 0.35504 0.59158 0.0
H1093 H 0.97375 0.36562 0.61259 0.0
H1094 H 0.96309 0.32119 0.64527 0.0
H1095 H 0.93717 0.31052 0.62495 0.0
H1096 H 0.97987 0.36303 0.67927 0.0
H1097 H 0.00473 0.33868 0.59677 0.0
H1098 H 0.98844 0.34048 0.58651 0.0
H1099 H 0.98633 0.32584 0.61314 0.0
C1100 C 0.95114 0.34749 0.60314 0.0
C1101 C 0.9405 0.33194 0.60672 0.0
C1102 C 0.96586 0.35355 0.61499 0.0
C1103 C 0.97029 0.34417 0.63036 0.0
C1104 C 0.95991 0.32857 0.63313 0.0
H1105 H 0.05072 0.37834 0.75216 0.0
H1106 H 0.02485 0.36296 0.7311 0.0
C1107 C 0.94513 0.32249 0.62138 0.0
C1108 C 0.98549 0.35096 0.64512 0.0
H1109 H 0.02022 0.35356 0.63887 0.0
C1110 C 0.98868 0.3609 0.67061 0.0
C1111 C 0.99691 0.34815 0.63362 0.0
C1112 C 0.99406 0.33778 0.60588 0.0
C1113 C 0.00309 0.36827 0.68475 0.0
C1114 C 0.01454 0.36554 0.67315 0.0
C1115 C 0.01133 0.35549 0.64783 0.0
C1116 C 0.03025 0.37396 0.6855 0.0
C1117 C 0.00613 0.37931 0.71132 0.0
C1118 C 0.04183 0.38495 0.66658 0.0
C1119 C 0.05651 0.39372 0.6785 0.0
C1120 C 0.05992 0.39158 0.70954 0.0
C1121 C 0.0484 0.38022 0.72817 0.0
C1122 C 0.03365 0.3715 0.71625 0.0
H1123 H 0.99676 0.38185 0.71432 0.0
H1124 H 0.00741 0.37439 0.73366 0.0
H1125 H 0.01688 0.39013 0.70708 0.0
H1126 H 0.03942 0.38697 0.64276 0.0
H1127 H 0.06521 0.40221 0.66341 0.0
H1128 H 0.62308 0.94891 0.90638 0.0
H1129 H 0.639 0.97481 0.92703 0.0
H1130 H 0.61193 0.96231 0.01167 0.0
H1131 H 0.59614 0.93654 0.99144 0.0
H1132 H 0.62776 0.995 0.94645 0.0
H1133 H 0.65681 0.98277 0.04324 0.0
H1134 H 0.64804 0.97006 0.01027 0.0
H1135 H 0.63655 0.97041 0.04209 0.0
C1136 C 0.62064 0.95169 0.92949 0.0
C1137 C 0.60832 0.94075 0.94722 0.0
C1138 C 0.6297 0.96645 0.9412 0.0
C1139 C 0.62672 0.97037 0.97101 0.0
C1140 C 0.61453 0.95944 0.98881 0.0
H1141 H 0.64383 0.0522 0.06162 0.0
H1142 H 0.63391 0.02691 0.03868 0.0
C1143 C 0.60543 0.94478 0.97706 0.0
C1144 C 0.63575 0.98609 0.9831 0.0
H1145 H 0.65791 0.00683 0.04502 0.0
C1146 C 0.63452 0.99765 0.96774 0.0
C1147 C 0.64461 0.98949 0.01079 0.0
C1148 C 0.64673 0.97757 0.02747 0.0
C1149 C 0.64141 0.01241 0.98017 0.0
C1150 C 0.64965 0.01562 0.00867 0.0
C1151 C 0.65145 0.00425 0.0233 0.0
C1152 C 0.6559 0.03059 0.02417 0.0
C1153 C 0.63961 0.02445 0.96312 0.0
C1154 C 0.67158 0.04084 0.02427 0.0
C1155 C 0.6773 0.05538 0.03709 0.0
C1156 C 0.6674 0.05985 0.05021 0.0
C1157 C 0.65174 0.04925 0.05117 0.0
C1158 C 0.64605 0.03478 0.0382 0.0
H1159 H 0.63548 0.021 0.93861 0.0
H1160 H 0.63127 0.02649 0.97593 0.0
H1161 H 0.65058 0.03534 0.96248 0.0
H1162 H 0.67933 0.03774 0.01358 0.0
H1163 H 0.68939 0.06329 0.03564 0.0
H1164 H 0.67143 0.61951 0.2456 0.0
H1165 H 0.65954 0.63402 0.26389 0.0
H1166 H 0.65478 0.61514 0.35692 0.0
H1167 H 0.66625 0.60039 0.33888 0.0
H1168 H 0.62999 0.62201 0.29184 0.0
H1169 H 0.67591 0.66166 0.37204 0.0
H1170 H 0.67895 0.65106 0.34153 0.0
H1171 H 0.6701 0.64199 0.37803 0.0
C1172 C 0.66781 0.61841 0.26993 0.0
C1173 C 0.66994 0.60888 0.29083 0.0
C1174 C 0.6611 0.62678 0.28036 0.0
C1175 C 0.65655 0.62585 0.31188 0.0
C1176 C 0.65856 0.61629 0.3327 0.0
H1177 H 0.59148 0.64349 0.40256 0.0
H1178 H 0.60651 0.63299 0.38052 0.0
C1179 C 0.66517 0.6079 0.32231 0.0
C1180 C 0.64905 0.63429 0.32295 0.0
H1181 H 0.65186 0.66031 0.37746 0.0
C1182 C 0.63482 0.6305 0.31033 0.0
C1183 C 0.65546 0.64545 0.34687 0.0
C1184 C 0.67101 0.65042 0.36026 0.0
C1185 C 0.62657 0.63716 0.32185 0.0
C1186 C 0.63267 0.64778 0.3468 0.0
C1187 C 0.64715 0.65203 0.35858 0.0
C1188 C 0.624 0.65436 0.36131 0.0
C1189 C 0.61135 0.63275 0.30737 0.0
C1190 C 0.62912 0.66994 0.35864 0.0
C1191 C 0.62052 0.67598 0.37109 0.0
C1192 C 0.60669 0.66654 0.38663 0.0
C1193 C 0.60191 0.65102 0.39022 0.0
C1194 C 0.61049 0.645 0.37768 0.0
H1195 H 0.60996 0.62737 0.28389 0.0
H1196 H 0.60219 0.62446 0.32298 0.0
H1197 H 0.60988 0.64282 0.30481 0.0
H1198 H 0.63957 0.67734 0.3462 0.0
H1199 H 0.62446 0.68794 0.36759 0.0
H1200 H 0.94685 0.62317 0.75399 0.0
H1201 H 0.9725 0.63901 0.73267 0.0
H1202 H 0.96239 0.60653 0.65799 0.0
H1203 H 0.93666 0.59103 0.67823 0.0
H1204 H 0.99495 0.63181 0.72444 0.0
H1205 H 0.97951 0.64602 0.60936 0.0
H1206 H 0.96613 0.63793 0.64144 0.0
H1207 H 0.97001 0.62593 0.61651 0.0
C1208 C 0.95003 0.61951 0.73279 0.0
C1209 C 0.93968 0.60581 0.71786 0.0
C1210 C 0.9647 0.62853 0.72073 0.0
C1211 C 0.96926 0.62408 0.69342 0.0
C1212 C 0.95902 0.61037 0.67867 0.0
H1213 H 0.05184 0.64989 0.59221 0.0
H1214 H 0.02577 0.63836 0.61193 0.0
C1215 C 0.94437 0.60138 0.69061 0.0
C1216 C 0.98491 0.6334 0.68096 0.0
H1217 H 0.00499 0.6507 0.61428 0.0
C1218 C 0.99717 0.63611 0.70049 0.0
C1219 C 0.98777 0.63901 0.64969 0.0
C1220 C 0.97517 0.63721 0.62813 0.0
C1221 C 0.01216 0.6438 0.68923 0.0
C1222 C 0.01496 0.64904 0.65774 0.0
C1223 C 0.00276 0.6466 0.63837 0.0
C1224 C 0.03047 0.65665 0.64426 0.0
C1225 C 0.02487 0.64584 0.71076 0.0
C1226 C 0.0416 0.67093 0.65533 0.0
C1227 C 0.05648 0.67763 0.64392 0.0
C1228 C 0.06049 0.67014 0.62122 0.0
C1229 C 0.04913 0.65605 0.60942 0.0
C1230 C 0.03425 0.64939 0.62078 0.0
H1231 H 0.02055 0.63872 0.7323 0.0
H1232 H 0.03269 0.64293 0.69829 0.0
H1233 H 0.03154 0.65792 0.71814 0.0
H1234 H 0.03882 0.67682 0.67308 0.0
H1235 H 0.06487 0.68862 0.65309 0.0
H1236 H 0.34525 0.93674 0.00895 0.0
H1237 H 0.35558 0.96226 0.98748 0.0
H1238 H 0.33236 0.97288 0.05943 0.0
H1239 H 0.32252 0.9475 0.08211 0.0
H1240 H 0.34081 0.97624 0.96342 0.0
H1241 H 0.37555 0.00811 0.06715 0.0
H1242 H 0.36735 0.98782 0.06316 0.0
H1243 H 0.35576 0.99566 0.07542 0.0
C1244 C 0.34256 0.94456 0.02067 0.0
C1245 C 0.33323 0.94011 0.04761 0.0
C1246 C 0.34835 0.95912 0.00811 0.0
C1247 C 0.34493 0.96955 0.0221 0.0
C1248 C 0.3354 0.96511 0.04863 0.0
H1249 H 0.37658 0.06419 0.97177 0.0
H1250 H 0.36159 0.03841 0.99299 0.0
C1251 C 0.32965 0.95054 0.06136 0.0
C1252 C 0.35131 0.98501 0.00851 0.0
H1253 H 0.37489 0.02266 0.02443 0.0
C1254 C 0.34823 0.98639 0.97679 0.0
C1255 C 0.36098 0.99824 0.026 0.0
C1256 C 0.36524 0.99745 0.05973 0.0
C1257 C 0.35465 0.00064 0.96203 0.0
C1258 C 0.36449 0.01382 0.97938 0.0
C1259 C 0.3673 0.0125 0.01126 0.0
C1260 C 0.37259 0.02903 0.96456 0.0
C1261 C 0.35088 0.00152 0.928 0.0
C1262 C 0.38366 0.03224 0.94144 0.0
C1263 C 0.39224 0.04693 0.9293 0.0
C1264 C 0.38987 0.05867 0.94005 0.0
C1265 C 0.37851 0.05533 0.96268 0.0
C1266 C 0.37001 0.04065 0.97497 0.0
H1267 H 0.34043 0.99104 0.92039 0.0
H1268 H 0.3493 0.01145 0.924 0.0
H1269 H 0.36042 0.00292 0.91292 0.0
H1270 H 0.38596 0.02346 0.93343 0.0
H1271 H 0.40088 0.04916 0.91182 0.0
H1272 H 0.20314 0.44469 0.86889 0.0
H1273 H 0.21765 0.44408 0.91421 0.0
H1274 H 0.18085 0.43659 0.97599 0.0
H1275 H 0.16602 0.43669 0.93062 0.0
H1276 H 0.22706 0.46294 0.967 0.0
H1277 H 0.18937 0.40262 0.00107 0.0
H1278 H 0.188 0.41004 0.96333 0.0
H1279 H 0.17999 0.41357 0.99785 0.0
C1280 C 0.19802 0.44269 0.89205 0.0
C1281 C 0.18334 0.44061 0.89606 0.0
C1282 C 0.20638 0.44246 0.91796 0.0
C1283 C 0.20025 0.44007 0.94841 0.0
C1284 C 0.18569 0.43817 0.95262 0.0
H1285 H 0.23482 0.43689 0.13374 0.0
H1286 H 0.21962 0.43681 0.08898 0.0
C1287 C 0.1773 0.4384 0.9267 0.0
C1288 C 0.20928 0.43996 0.97576 0.0
H1289 H 0.20963 0.41777 0.03586 0.0
C1290 C 0.22328 0.45305 0.98201 0.0
C1291 C 0.20431 0.42705 0.99531 0.0
C1292 C 0.18966 0.41246 0.98898 0.0
C1293 C 0.23235 0.45366 0.00755 0.0
C1294 C 0.22741 0.44073 0.02703 0.0
C1295 C 0.21339 0.42766 0.02087 0.0
C1296 C 0.23662 0.44057 0.05398 0.0
C1297 C 0.24701 0.46825 0.01384 0.0
C1298 C 0.25113 0.44245 0.04908 0.0
C1299 C 0.25983 0.44243 0.0746 0.0
C1300 C 0.25414 0.44042 0.10552 0.0
C1301 C 0.23949 0.43829 0.11024 0.0
C1302 C 0.23081 0.43832 0.08471 0.0
H1303 H 0.24724 0.47811 0.00199 0.0
H1304 H 0.24876 0.4706 0.03951 0.0
H1305 H 0.25666 0.46718 0.00468 0.0
H1306 H 0.25569 0.44386 0.02548 0.0
H1307 H 0.27095 0.44384 0.07008 0.0
H1308 H 0.8254 0.24093 0.43616 0.0
H1309 H 0.81068 0.22575 0.39091 0.0
H1310 H 0.78668 0.25072 0.38766 0.0
H1311 H 0.80129 0.26591 0.43286 0.0
H1312 H 0.77944 0.20716 0.38515 0.0
H1313 H 0.8011 0.25364 0.29697 0.0
H1314 H 0.81023 0.25565 0.33456 0.0
H1315 H 0.79355 0.25747 0.33178 0.0
C1316 C 0.81696 0.24317 0.42585 0.0
C1317 C 0.81459 0.2547 0.43803 0.0
C1318 C 0.80861 0.23452 0.39993 0.0
C1319 C 0.79776 0.23727 0.38559 0.0
C1320 C 0.79526 0.24866 0.39784 0.0
H1321 H 0.73247 0.19686 0.23427 0.0
H1322 H 0.74774 0.21146 0.27945 0.0
C1323 C 0.80363 0.25734 0.4237 0.0
C1324 C 0.78873 0.22792 0.35841 0.0
H1325 H 0.77974 0.23009 0.28177 0.0
C1326 C 0.77958 0.21215 0.36247 0.0
C1327 C 0.78894 0.23445 0.32885 0.0
C1328 C 0.79908 0.25121 0.32259 0.0
C1329 C 0.77033 0.20278 0.33798 0.0
C1330 C 0.77042 0.20935 0.30855 0.0
C1331 C 0.77965 0.2251 0.30441 0.0
C1332 C 0.76093 0.20011 0.28174 0.0
C1333 C 0.76025 0.186 0.34405 0.0
C1334 C 0.76333 0.18893 0.26796 0.0
C1335 C 0.75457 0.18051 0.24221 0.0
C1336 C 0.74326 0.18313 0.22971 0.0
C1337 C 0.74091 0.19437 0.24361 0.0
C1338 C 0.7497 0.2028 0.26929 0.0
H1339 H 0.75881 0.18336 0.36965 0.0
H1340 H 0.74886 0.18174 0.33331 0.0
H1341 H 0.76545 0.17974 0.33324 0.0
H1342 H 0.7721 0.18684 0.2769 0.0
H1343 H 0.75661 0.17189 0.23219 0.0
H1344 H 0.56282 0.79825 0.80172 0.0
H1345 H 0.56323 0.78333 0.75684 0.0
H1346 H 0.56187 0.8156 0.69291 0.0
H1347 H 0.56179 0.83078 0.73765 0.0
H1348 H 0.54096 0.77021 0.70821 0.0
H1349 H 0.59799 0.81133 0.66084 0.0
H1350 H 0.59214 0.81265 0.70034 0.0
H1351 H 0.58559 0.81891 0.66739 0.0
C1352 C 0.56284 0.8023 0.77811 0.0
C1353 C 0.56235 0.81575 0.77327 0.0
C1354 C 0.56297 0.79371 0.75251 0.0
C1355 C 0.56276 0.79846 0.72158 0.0
C1356 C 0.56227 0.81186 0.7166 0.0
H1357 H 0.56123 0.76241 0.53573 0.0
H1358 H 0.56196 0.77758 0.58114 0.0
C1359 C 0.56208 0.82043 0.74219 0.0
C1360 C 0.56257 0.78912 0.69454 0.0
H1361 H 0.58267 0.78959 0.62964 0.0
C1362 C 0.5501 0.7744 0.69109 0.0
C1363 C 0.5745 0.79466 0.67223 0.0
C1364 C 0.58839 0.8102 0.67539 0.0
C1365 C 0.54908 0.76514 0.66554 0.0
C1366 C 0.56103 0.77066 0.64324 0.0
C1367 C 0.57352 0.78538 0.64676 0.0
C1368 C 0.56072 0.7614 0.61586 0.0
C1369 C 0.53502 0.74972 0.66222 0.0
C1370 C 0.56 0.74736 0.62029 0.0
C1371 C 0.55958 0.73865 0.59437 0.0
C1372 C 0.56005 0.74391 0.56349 0.0
C1373 C 0.56102 0.7581 0.55918 0.0
C1374 C 0.56137 0.76676 0.5851 0.0
H1375 H 0.52536 0.7489 0.67605 0.0
H1376 H 0.53151 0.74715 0.63717 0.0
H1377 H 0.53747 0.7409 0.67113 0.0
H1378 H 0.55986 0.74317 0.64382 0.0
H1379 H 0.55908 0.72789 0.5985 0.0
H1380 H 0.72415 0.54394 0.0751 0.0
H1381 H 0.73993 0.54431 0.03115 0.0
H1382 H 0.77994 0.57886 0.07833 0.0
H1383 H 0.76431 0.57845 0.12255 0.0
H1384 H 0.77843 0.58472 0.01367 0.0
H1385 H 0.76854 0.52645 0.03396 0.0
H1386 H 0.75156 0.52766 0.03033 0.0
H1387 H 0.76412 0.5366 0.0631 0.0
C1388 C 0.73632 0.55155 0.07624 0.0
C1389 C 0.74296 0.56111 0.10245 0.0
C1390 C 0.74531 0.55175 0.0511 0.0
C1391 C 0.76112 0.56146 0.05172 0.0
C1392 C 0.76776 0.57126 0.07744 0.0
H1393 H 0.82833 0.55641 0.93317 0.0
H1394 H 0.81325 0.55723 0.97733 0.0
C1395 C 0.75878 0.57107 0.1026 0.0
C1396 C 0.77077 0.56139 0.02558 0.0
H1397 H 0.78179 0.53891 0.98734 0.0
C1398 C 0.77919 0.57472 0.00791 0.0
C1399 C 0.7719 0.54839 0.01845 0.0
C1400 C 0.76367 0.53399 0.03759 0.0
C1401 C 0.78852 0.57531 0.98289 0.0
C1402 C 0.78929 0.56217 0.97515 0.0
C1403 C 0.78108 0.54893 0.99318 0.0
C1404 C 0.79853 0.5619 0.94838 0.0
C1405 C 0.79763 0.59006 0.96521 0.0
C1406 C 0.79515 0.5641 0.91745 0.0
C1407 C 0.80368 0.56355 0.89217 0.0
C1408 C 0.81574 0.56074 0.89729 0.0
C1409 C 0.81904 0.55846 0.92835 0.0
C1410 C 0.81048 0.559 0.95362 0.0
H1411 H 0.7988 0.59991 0.9789 0.0
H1412 H 0.80915 0.59205 0.95949 0.0
H1413 H 0.79177 0.58949 0.94276 0.0
H1414 H 0.78576 0.56601 0.91281 0.0
H1415 H 0.80061 0.56503 0.86854 0.0
H1416 H 0.19637 0.73267 0.43045 0.0
H1417 H 0.21126 0.74817 0.38595 0.0
H1418 H 0.1889 0.77466 0.39247 0.0
H1419 H 0.17337 0.75871 0.43602 0.0
H1420 H 0.19124 0.7677 0.33211 0.0
H1421 H 0.24712 0.79081 0.39109 0.0
H1422 H 0.2367 0.77043 0.39025 0.0
H1423 H 0.22938 0.78055 0.41217 0.0
C1424 C 0.19444 0.74165 0.42222 0.0
C1425 C 0.18367 0.74445 0.43699 0.0
C1426 C 0.20315 0.75066 0.39703 0.0
C1427 C 0.20145 0.7628 0.38633 0.0
C1428 C 0.19052 0.76545 0.40056 0.0
H1429 H 0.26596 0.83442 0.26167 0.0
H1430 H 0.25021 0.81989 0.30655 0.0
C1431 C 0.18173 0.75639 0.42563 0.0
C1432 C 0.21088 0.77256 0.35995 0.0
H1433 H 0.24758 0.79511 0.33576 0.0
C1434 C 0.20356 0.77377 0.33297 0.0
C1435 C 0.22696 0.78069 0.3613 0.0
C1436 C 0.23551 0.7807 0.39038 0.0
C1437 C 0.21187 0.78258 0.30702 0.0
C1438 C 0.22794 0.79011 0.30777 0.0
C1439 C 0.23526 0.7892 0.33504 0.0
C1440 C 0.23739 0.79892 0.28047 0.0
C1441 C 0.20332 0.78392 0.27927 0.0
C1442 C 0.23558 0.79191 0.25104 0.0
C1443 C 0.2445 0.80019 0.22539 0.0
C1444 C 0.25558 0.81561 0.22875 0.0
C1445 C 0.25758 0.82254 0.2584 0.0
C1446 C 0.24856 0.81427 0.28401 0.0
H1447 H 0.19177 0.7815 0.28614 0.0
H1448 H 0.20952 0.79544 0.26865 0.0
H1449 H 0.20199 0.77551 0.26104 0.0
H1450 H 0.22736 0.77997 0.24795 0.0
H1451 H 0.24289 0.79445 0.20301 0.0
H1452 H 0.45715 0.18474 0.74368 0.0
H1453 H 0.45644 0.19945 0.69874 0.0
H1454 H 0.42073 0.20382 0.7434 0.0
H1455 H 0.42094 0.1887 0.78802 0.0
H1456 H 0.42808 0.19263 0.66029 0.0
H1457 H 0.45699 0.24862 0.72145 0.0
H1458 H 0.45908 0.23278 0.73413 0.0
H1459 H 0.44176 0.23282 0.74193 0.0
C1460 C 0.44898 0.18862 0.74384 0.0
C1461 C 0.43912 0.18553 0.76962 0.0
C1462 C 0.44867 0.19712 0.71821 0.0
C1463 C 0.43864 0.20281 0.71799 0.0
C1464 C 0.42869 0.19967 0.74339 0.0
H1465 H 0.42694 0.26315 0.5899 0.0
H1466 H 0.42609 0.24754 0.63475 0.0
C1467 C 0.42889 0.19108 0.76893 0.0
C1468 C 0.43854 0.21202 0.69108 0.0
H1469 H 0.44858 0.24821 0.66955 0.0
C1470 C 0.43257 0.20478 0.66221 0.0
C1471 C 0.44429 0.22782 0.69389 0.0
C1472 C 0.45099 0.23608 0.72441 0.0
C1473 C 0.43206 0.21294 0.63597 0.0
C1474 C 0.4381 0.22885 0.63852 0.0
C1475 C 0.44398 0.23604 0.66757 0.0
C1476 C 0.4386 0.23827 0.61129 0.0
C1477 C 0.42473 0.20437 0.60605 0.0
C1478 C 0.44612 0.23846 0.5834 0.0
C1479 C 0.44652 0.24727 0.55774 0.0
C1480 C 0.43961 0.25628 0.55962 0.0
C1481 C 0.4324 0.25637 0.58782 0.0
C1482 C 0.43188 0.24743 0.61339 0.0
H1483 H 0.41668 0.19215 0.61081 0.0
H1484 H 0.41851 0.20926 0.59377 0.0
H1485 H 0.43367 0.20504 0.59 0.0
H1486 H 0.4518 0.23188 0.58153 0.0
H1487 H 0.45243 0.24721 0.53655 0.0
H1488 H 0.17529 0.4126 0.6121 0.0
H1489 H 0.18902 0.41029 0.56701 0.0
H1490 H 0.21054 0.45861 0.55123 0.0
H1491 H 0.19741 0.46113 0.59697 0.0
H1492 H 0.18824 0.41739 0.50482 0.0
H1493 H 0.24652 0.45163 0.55268 0.0
H1494 H 0.22979 0.4449 0.57696 0.0
H1495 H 0.23614 0.46163 0.55307 0.0
C1496 C 0.18313 0.42277 0.59934 0.0
C1497 C 0.1853 0.43706 0.60823 0.0
C1498 C 0.19087 0.4214 0.57344 0.0
C1499 C 0.20095 0.4343 0.55608 0.0
C1500 C 0.20303 0.44855 0.56468 0.0
H1501 H 0.23565 0.4406 0.36743 0.0
H1502 H 0.22055 0.43882 0.41389 0.0
C1503 C 0.19536 0.44994 0.59061 0.0
C1504 C 0.20908 0.43287 0.52852 0.0
H1505 H 0.2445 0.44619 0.49765 0.0
C1506 C 0.20055 0.42358 0.5033 0.0
C1507 C 0.22513 0.44077 0.52684 0.0
C1508 C 0.23494 0.45017 0.55397 0.0
C1509 C 0.20764 0.42231 0.47601 0.0
C1510 C 0.22367 0.43082 0.47371 0.0
C1511 C 0.2322 0.43978 0.4993 0.0
C1512 C 0.23192 0.43077 0.44497 0.0
C1513 C 0.19791 0.41177 0.45008 0.0
C1514 C 0.24344 0.42701 0.44709 0.0
C1515 C 0.25217 0.4282 0.42073 0.0
C1516 C 0.24954 0.43315 0.39172 0.0
C1517 C 0.23777 0.43656 0.3894 0.0
C1518 C 0.22912 0.4355 0.41589 0.0
H1519 H 0.18671 0.40284 0.45917 0.0
H1520 H 0.19581 0.41841 0.43205 0.0
H1521 H 0.20362 0.40616 0.43848 0.0
H1522 H 0.24581 0.42336 0.46931 0.0
H1523 H 0.26109 0.42537 0.42308 0.0
H1524 H 0.83815 0.2615 0.75719 0.0
H1525 H 0.82567 0.24637 0.80409 0.0
H1526 H 0.78488 0.21916 0.75003 0.0
H1527 H 0.79748 0.23406 0.70287 0.0
H1528 H 0.8017 0.24457 0.83261 0.0
H1529 H 0.78813 0.18666 0.79758 0.0
H1530 H 0.80117 0.20336 0.77557 0.0
H1531 H 0.78098 0.19489 0.76988 0.0
C1532 C 0.82659 0.25215 0.75528 0.0
C1533 C 0.81875 0.24893 0.72648 0.0
C1534 C 0.81949 0.2435 0.78202 0.0
C1535 C 0.8044 0.23152 0.78052 0.0
C1536 C 0.79665 0.22809 0.75159 0.0
H1537 H 0.73922 0.19852 0.93072 0.0
H1538 H 0.75556 0.21139 0.88571 0.0
C1539 C 0.80382 0.23664 0.7247 0.0
C1540 C 0.79641 0.22354 0.80976 0.0
H1541 H 0.77467 0.18842 0.84244 0.0
C1542 C 0.79594 0.2323 0.83487 0.0
C1543 C 0.78907 0.20755 0.8129 0.0
C1544 C 0.78999 0.19758 0.78766 0.0
C1545 C 0.78794 0.22549 0.86261 0.0
C1546 C 0.77985 0.20946 0.86499 0.0
C1547 C 0.78073 0.20071 0.84038 0.0
C1548 C 0.76999 0.20158 0.89238 0.0
C1549 C 0.78829 0.23556 0.88913 0.0
C1550 C 0.77243 0.19148 0.91059 0.0
C1551 C 0.76292 0.18387 0.9361 0.0
C1552 C 0.75076 0.18619 0.9437 0.0
C1553 C 0.74838 0.19634 0.92534 0.0
C1554 C 0.75783 0.20387 0.89982 0.0
H1555 H 0.79852 0.24706 0.88774 0.0
H1556 H 0.77814 0.23694 0.88744 0.0
H1557 H 0.78815 0.23056 0.91246 0.0
H1558 H 0.7817 0.18947 0.90507 0.0
H1559 H 0.76493 0.17597 0.94948 0.0
H1560 H 0.54496 0.81405 0.0836 0.0
H1561 H 0.54665 0.80036 0.12915 0.0
H1562 H 0.58678 0.80233 0.09008 0.0
H1563 H 0.58556 0.81667 0.04484 0.0
H1564 H 0.54536 0.77287 0.13013 0.0
H1565 H 0.60012 0.81787 0.17986 0.0
H1566 H 0.58978 0.82174 0.15016 0.0
H1567 H 0.60098 0.81326 0.13933 0.0
C1568 C 0.55431 0.81182 0.08488 0.0
C1569 C 0.56522 0.81661 0.06071 0.0
C1570 C 0.55519 0.80389 0.11084 0.0
C1571 C 0.56696 0.80054 0.11322 0.0
C1572 C 0.57777 0.80508 0.08898 0.0
H1573 H 0.56447 0.73246 0.24094 0.0
H1574 H 0.56642 0.74771 0.19473 0.0
C1575 C 0.57694 0.81309 0.06297 0.0
C1576 C 0.5675 0.79183 0.14068 0.0
H1577 H 0.58895 0.79364 0.20426 0.0
C1578 C 0.5549 0.7774 0.14632 0.0
C1579 C 0.57989 0.79786 0.16192 0.0
C1580 C 0.59342 0.81359 0.15778 0.0
C1581 C 0.55435 0.7688 0.17261 0.0
C1582 C 0.56687 0.77468 0.19349 0.0
C1583 C 0.57945 0.78914 0.18799 0.0
C1584 C 0.56688 0.76604 0.22151 0.0
C1585 C 0.54022 0.75364 0.17824 0.0
C1586 C 0.56701 0.77158 0.25187 0.0
C1587 C 0.56589 0.76289 0.27836 0.0
C1588 C 0.56465 0.74855 0.27484 0.0
C1589 C 0.56509 0.74333 0.24438 0.0
C1590 C 0.56624 0.75202 0.21797 0.0
H1591 H 0.53038 0.75245 0.16447 0.0
H1592 H 0.54238 0.7444 0.17094 0.0
H1593 H 0.53713 0.75207 0.20361 0.0
H1594 H 0.56754 0.78241 0.25503 0.0
H1595 H 0.56549 0.76718 0.30149 0.0
H1596 H 0.7431 0.57869 0.42169 0.0
H1597 H 0.75783 0.58034 0.4686 0.0
H1598 H 0.77755 0.55728 0.41914 0.0
H1599 H 0.76282 0.55555 0.37213 0.0
H1600 H 0.75576 0.55599 0.50148 0.0
H1601 H 0.81465 0.59346 0.45905 0.0
H1602 H 0.79823 0.59172 0.43875 0.0
H1603 H 0.80358 0.57744 0.43388 0.0
C1604 C 0.75062 0.57403 0.42077 0.0
C1605 C 0.75178 0.56695 0.39325 0.0
C1606 C 0.75908 0.57504 0.44751 0.0
C1607 C 0.7689 0.56908 0.44721 0.0
C1608 C 0.77029 0.56225 0.41963 0.0
H1609 H 0.80038 0.53767 0.60199 0.0
H1610 H 0.78757 0.54068 0.55615 0.0
C1611 C 0.76185 0.56126 0.39282 0.0
C1612 C 0.77685 0.56906 0.4764 0.0
H1613 H 0.8119 0.58015 0.50723 0.0
C1614 C 0.76804 0.56138 0.50284 0.0
C1615 C 0.79287 0.57625 0.4782 0.0
C1616 C 0.80291 0.58531 0.45106 0.0
C1617 C 0.77481 0.56031 0.53077 0.0
C1618 C 0.79078 0.5669 0.53207 0.0
C1619 C 0.79963 0.57499 0.506 0.0
C1620 C 0.79848 0.56516 0.56001 0.0
C1621 C 0.76482 0.55216 0.55865 0.0
C1622 C 0.80905 0.57796 0.57699 0.0
C1623 C 0.81649 0.57629 0.60307 0.0
C1624 C 0.81357 0.56179 0.61238 0.0
C1625 C 0.80298 0.549 0.59524 0.0
C1626 C 0.79553 0.55068 0.56925 0.0
H1627 H 0.75358 0.55145 0.55684 0.0
H1628 H 0.76286 0.54039 0.55959 0.0
H1629 H 0.77031 0.55794 0.58106 0.0
H1630 H 0.81153 0.58923 0.57005 0.0
H1631 H 0.82474 0.58636 0.61556 0.0
H1632 H 0.16463 0.74434 0.7545 0.0
H1633 H 0.17843 0.75953 0.80044 0.0
H1634 H 0.22037 0.77911 0.74797 0.0
H1635 H 0.20668 0.76387 0.70199 0.0
H1636 H 0.20176 0.75795 0.83136 0.0
H1637 H 0.2212 0.81636 0.78793 0.0
H1638 H 0.20619 0.79964 0.76902 0.0
H1639 H 0.22574 0.80515 0.7622 0.0
C1640 C 0.17679 0.75193 0.7527 0.0
C1641 C 0.18458 0.75289 0.72464 0.0
C1642 C 0.18463 0.76064 0.7789 0.0
C1643 C 0.20037 0.77055 0.77746 0.0
C1644 C 0.20816 0.77176 0.74933 0.0
H1645 H 0.26547 0.80473 0.92897 0.0
H1646 H 0.24976 0.7917 0.88307 0.0
C1647 C 0.20032 0.76305 0.72309 0.0
C1648 C 0.20879 0.77879 0.80604 0.0
H1649 H 0.23247 0.81422 0.83555 0.0
C1650 C 0.20839 0.77025 0.83238 0.0
C1651 C 0.2173 0.79484 0.80734 0.0
C1652 C 0.21756 0.80457 0.78024 0.0
C1653 C 0.2166 0.77733 0.85978 0.0
C1654 C 0.22558 0.79335 0.86063 0.0
C1655 C 0.22567 0.80192 0.83464 0.0
C1656 C 0.23514 0.80138 0.8882 0.0
C1657 C 0.21556 0.76762 0.88763 0.0
C1658 C 0.23228 0.81135 0.90584 0.0
C1659 C 0.2413 0.81889 0.93197 0.0
C1660 C 0.2534 0.81667 0.94067 0.0
C1661 C 0.2563 0.80676 0.9227 0.0
C1662 C 0.24726 0.79921 0.89667 0.0
H1663 H 0.2054 0.75608 0.88616 0.0
H1664 H 0.22579 0.76636 0.8882 0.0
H1665 H 0.21509 0.77299 0.91008 0.0
H1666 H 0.22302 0.81323 0.89949 0.0
H1667 H 0.23891 0.8266 0.94511 0.0
H1668 H 0.44501 0.20501 0.0338 0.0
H1669 H 0.44332 0.21858 0.07989 0.0
H1670 H 0.41875 0.17621 0.13024 0.0
H1671 H 0.42009 0.16249 0.08411 0.0
H1672 H 0.41601 0.21342 0.11557 0.0
H1673 H 0.45705 0.20419 0.18547 0.0
H1674 H 0.45562 0.20221 0.14313 0.0
H1675 H 0.44153 0.18761 0.16775 0.0
C1676 C 0.43904 0.19854 0.05448 0.0
C1677 C 0.43278 0.18268 0.05536 0.0
C1678 C 0.43815 0.20632 0.08082 0.0
C1679 C 0.43109 0.19838 0.10848 0.0
C1680 C 0.42445 0.18253 0.1092 0.0
H1681 H 0.42533 0.2291 0.29677 0.0
H1682 H 0.4231 0.21373 0.25042 0.0
C1683 C 0.42528 0.17474 0.08288 0.0
C1684 C 0.43099 0.20674 0.13687 0.0
H1685 H 0.44569 0.21661 0.211 0.0
C1686 C 0.42248 0.21414 0.13648 0.0
C1687 C 0.4394 0.20755 0.16405 0.0
C1688 C 0.44903 0.20008 0.16526 0.0
C1689 C 0.42206 0.2223 0.16279 0.0
C1690 C 0.43069 0.22333 0.18982 0.0
C1691 C 0.43908 0.21578 0.19026 0.0
C1692 C 0.43154 0.23254 0.21763 0.0
C1693 C 0.41221 0.22952 0.16156 0.0
C1694 C 0.4372 0.24821 0.21457 0.0
C1695 C 0.43848 0.25699 0.24093 0.0
C1696 C 0.43429 0.25028 0.27094 0.0
C1697 C 0.42875 0.23459 0.27399 0.0
C1698 C 0.4274 0.2258 0.24755 0.0
H1699 H 0.40307 0.22398 0.14365 0.0
H1700 H 0.40692 0.2289 0.18481 0.0
H1701 H 0.41932 0.24167 0.15499 0.0
H1702 H 0.44088 0.25371 0.19185 0.0
H1703 H 0.44307 0.26909 0.23793 0.0
H1704 H 0.3889 0.51882 0.25816 0.0
H1705 H 0.41082 0.54135 0.28028 0.0
H1706 H 0.38076 0.55257 0.33016 0.0
H1707 H 0.3588 0.52976 0.3093 0.0
H1708 H 0.41977 0.57166 0.27605 0.0
H1709 H 0.4079 0.55231 0.40034 0.0
H1710 H 0.39838 0.53979 0.36758 0.0
H1711 H 0.39238 0.55274 0.38113 0.0
C1712 C 0.38694 0.52601 0.27402 0.0
C1713 C 0.37207 0.52239 0.28211 0.0
C1714 C 0.39948 0.53894 0.28647 0.0
C1715 C 0.39741 0.54847 0.30732 0.0
C1716 C 0.38261 0.54519 0.31463 0.0
H1717 H 0.46773 0.63956 0.36139 0.0
H1718 H 0.44487 0.61759 0.34066 0.0
C1719 C 0.37006 0.53225 0.3023 0.0
C1720 C 0.41076 0.56183 0.32144 0.0
H1721 H 0.42759 0.57772 0.39171 0.0
C1722 C 0.4215 0.573 0.30133 0.0
C1723 C 0.4131 0.56341 0.35442 0.0
C1724 C 0.40242 0.55137 0.37715 0.0
C1725 C 0.43444 0.58581 0.31331 0.0
C1726 C 0.43652 0.58764 0.34633 0.0
C1727 C 0.42588 0.57638 0.36642 0.0
C1728 C 0.44989 0.60097 0.36046 0.0
C1729 C 0.44593 0.59708 0.29047 0.0
C1730 C 0.45997 0.59889 0.37961 0.0
C1731 C 0.47292 0.61142 0.392 0.0
C1732 C 0.47603 0.62629 0.38552 0.0
C1733 C 0.46564 0.62829 0.36711 0.0
C1734 C 0.45266 0.61574 0.35484 0.0
H1735 H 0.44475 0.59205 0.26667 0.0
H1736 H 0.44415 0.60696 0.28817 0.0
H1737 H 0.45771 0.60129 0.29895 0.0
H1738 H 0.45796 0.58757 0.3845 0.0
H1739 H 0.48054 0.60946 0.40649 0.0
H1740 H 0.87047 0.47959 0.74499 0.0
H1741 H 0.86951 0.45689 0.72293 0.0
H1742 H 0.82663 0.44441 0.67867 0.0
H1743 H 0.82778 0.46737 0.69951 0.0
H1744 H 0.84853 0.42644 0.72956 0.0
H1745 H 0.85232 0.44446 0.60486 0.0
H1746 H 0.85609 0.45727 0.63745 0.0
H1747 H 0.83684 0.44398 0.62626 0.0
C1748 C 0.86087 0.47207 0.73042 0.0
C1749 C 0.84927 0.47539 0.72384 0.0
C1750 C 0.8603 0.45905 0.71799 0.0
C1751 C 0.84814 0.44912 0.69869 0.0
C1752 C 0.83627 0.45209 0.69299 0.0
H1753 H 0.8282 0.35817 0.64492 0.0
H1754 H 0.82709 0.37994 0.66617 0.0
C1755 C 0.83685 0.46512 0.70531 0.0
C1756 C 0.84798 0.43573 0.68433 0.0
H1757 H 0.84758 0.41941 0.61372 0.0
C1758 C 0.84832 0.42488 0.70424 0.0
C1759 C 0.84794 0.43387 0.65127 0.0
C1760 C 0.84842 0.44557 0.62867 0.0
C1761 C 0.84848 0.41212 0.69199 0.0
C1762 C 0.84798 0.41003 0.65895 0.0
C1763 C 0.84779 0.42096 0.63904 0.0
C1764 C 0.84812 0.3968 0.64456 0.0
C1765 C 0.84954 0.40121 0.71454 0.0
C1766 C 0.85998 0.39906 0.62428 0.0
C1767 C 0.86052 0.38664 0.61163 0.0
C1768 C 0.84918 0.3717 0.61896 0.0
C1769 C 0.83706 0.3695 0.63854 0.0
C1770 C 0.83651 0.38194 0.65108 0.0
H1771 H 0.85379 0.40644 0.73804 0.0
H1772 H 0.83808 0.39113 0.71779 0.0
H1773 H 0.85718 0.39725 0.70518 0.0
H1774 H 0.86898 0.41045 0.6187 0.0
H1775 H 0.86988 0.38875 0.59625 0.0
H1776 H 0.47811 0.8659 0.91905 0.0
H1777 H 0.45491 0.86438 0.94018 0.0
H1778 H 0.44915 0.82867 0.00337 0.0
H1779 H 0.47236 0.83016 0.98256 0.0
H1780 H 0.42339 0.83535 0.94577 0.0
H1781 H 0.45028 0.86472 0.05839 0.0
H1782 H 0.46129 0.8671 0.02324 0.0
H1783 H 0.4535 0.84972 0.04518 0.0
C1784 C 0.47188 0.85771 0.9374 0.0
C1785 C 0.47704 0.84815 0.94916 0.0
C1786 C 0.45863 0.85682 0.94933 0.0
C1787 C 0.45045 0.84649 0.97342 0.0
C1788 C 0.4554 0.83676 0.98486 0.0
H1789 H 0.37445 0.8378 0.08604 0.0
H1790 H 0.39544 0.83499 0.06546 0.0
C1791 C 0.46857 0.83755 0.97278 0.0
C1792 C 0.43686 0.84611 0.98695 0.0
H1793 H 0.42439 0.85678 0.05142 0.0
C1794 C 0.42354 0.83999 0.96889 0.0
C1795 C 0.43715 0.85203 0.01721 0.0
C1796 C 0.45131 0.85885 0.03725 0.0
C1797 C 0.41043 0.83969 0.98031 0.0
C1798 C 0.41084 0.84608 0.01021 0.0
C1799 C 0.42411 0.85192 0.0285 0.0
C1800 C 0.39786 0.84739 0.02237 0.0
C1801 C 0.39623 0.83236 0.96038 0.0
C1802 C 0.39238 0.85545 0.00518 0.0
C1803 C 0.38031 0.85692 0.01666 0.0
C1804 C 0.37359 0.85058 0.04589 0.0
C1805 C 0.37922 0.84266 0.06328 0.0
C1806 C 0.39128 0.84112 0.05165 0.0
H1807 H 0.39626 0.82391 0.94379 0.0
H1808 H 0.38586 0.8266 0.9752 0.0
H1809 H 0.39568 0.84124 0.94616 0.0
H1810 H 0.39751 0.86069 0.98289 0.0
H1811 H 0.37616 0.86291 0.00239 0.0
H1812 H 0.61411 0.47761 0.24793 0.0
H1813 H 0.59152 0.45482 0.26737 0.0
H1814 H 0.61812 0.45075 0.34189 0.0
H1815 H 0.6406 0.47379 0.32338 0.0
H1816 H 0.58626 0.42527 0.27523 0.0
H1817 H 0.58281 0.44997 0.38953 0.0
H1818 H 0.59458 0.46149 0.35742 0.0
H1819 H 0.60086 0.45134 0.38217 0.0
C1820 C 0.61513 0.47193 0.2686 0.0
C1821 C 0.62916 0.47757 0.28416 0.0
C1822 C 0.60224 0.45887 0.27956 0.0
C1823 C 0.6031 0.45125 0.30636 0.0
C1824 C 0.61714 0.45663 0.32151 0.0
H1825 H 0.53704 0.37094 0.40881 0.0
H1826 H 0.56029 0.39299 0.38901 0.0
C1827 C 0.63003 0.46969 0.31063 0.0
C1828 C 0.58933 0.43763 0.31838 0.0
H1829 H 0.56612 0.42352 0.38261 0.0
C1830 C 0.58182 0.4249 0.29866 0.0
C1831 C 0.58358 0.43719 0.34897 0.0
C1832 C 0.59077 0.45076 0.37069 0.0
C1833 C 0.5688 0.41163 0.30888 0.0
C1834 C 0.56307 0.4112 0.33946 0.0
C1835 C 0.5706 0.4239 0.35922 0.0
C1836 C 0.54905 0.39777 0.35114 0.0
C1837 C 0.56143 0.3981 0.28709 0.0
C1838 C 0.53504 0.3933 0.3366 0.0
C1839 C 0.52178 0.38074 0.34781 0.0
C1840 C 0.52227 0.37244 0.37387 0.0
C1841 C 0.53632 0.37701 0.38851 0.0
C1842 C 0.54959 0.38963 0.37734 0.0
H1843 H 0.56924 0.3989 0.26791 0.0
H1844 H 0.5577 0.38736 0.30026 0.0
H1845 H 0.55126 0.39755 0.27612 0.0
H1846 H 0.53436 0.39957 0.31664 0.0
H1847 H 0.51117 0.37742 0.33579 0.0
H1848 H 0.14081 0.61584 0.58046 0.0
H1849 H 0.14096 0.59334 0.6008 0.0
H1850 H 0.16402 0.61809 0.68467 0.0
H1851 H 0.16363 0.64049 0.66489 0.0
H1852 H 0.16683 0.59064 0.61976 0.0
H1853 H 0.12624 0.57916 0.71794 0.0
H1854 H 0.12822 0.59135 0.68517 0.0
H1855 H 0.14215 0.59819 0.7161 0.0
C1856 C 0.14584 0.61646 0.6033 0.0
C1857 C 0.1522 0.62994 0.62107 0.0
C1858 C 0.14598 0.60363 0.61481 0.0
C1859 C 0.15234 0.60402 0.64438 0.0
C1860 C 0.15888 0.61751 0.66197 0.0
H1861 H 0.15817 0.53457 0.75458 0.0
H1862 H 0.16055 0.55848 0.73576 0.0
C1863 C 0.15879 0.63034 0.65047 0.0
C1864 C 0.1522 0.59033 0.65676 0.0
H1865 H 0.13766 0.56384 0.71545 0.0
C1866 C 0.16045 0.58476 0.64065 0.0
C1867 C 0.14393 0.58277 0.68413 0.0
C1868 C 0.13452 0.58805 0.70178 0.0
C1869 C 0.16074 0.57182 0.65132 0.0
C1870 C 0.15227 0.5641 0.67841 0.0
C1871 C 0.14416 0.5698 0.69472 0.0
C1872 C 0.15123 0.54979 0.68957 0.0
C1873 C 0.17028 0.56668 0.63373 0.0
C1874 C 0.14507 0.53697 0.66996 0.0
C1875 C 0.14379 0.52337 0.68053 0.0
C1876 C 0.1485 0.52224 0.71111 0.0
C1877 C 0.1546 0.5351 0.7308 0.0
C1878 C 0.15589 0.54873 0.72015 0.0
H1879 H 0.17938 0.57609 0.61978 0.0
H1880 H 0.17561 0.5622 0.65014 0.0
H1881 H 0.16294 0.55748 0.61711 0.0
H1882 H 0.14113 0.53743 0.6465 0.0
H1883 H 0.13923 0.51376 0.66459 0.0
H1884 H 0.6099 0.13053 0.07557 0.0
H1885 H 0.58794 0.1316 0.05484 0.0
H1886 H 0.61794 0.17216 0.00285 0.0
H1887 H 0.63994 0.17107 0.02306 0.0
H1888 H 0.5815 0.15686 0.0583 0.0
H1889 H 0.58808 0.1412 0.93601 0.0
H1890 H 0.59689 0.13774 0.96952 0.0
H1891 H 0.60472 0.1566 0.95387 0.0
C1892 C 0.61182 0.13968 0.05973 0.0
C1893 C 0.62665 0.15069 0.05086 0.0
C1894 C 0.59928 0.14031 0.04804 0.0
C1895 C 0.60135 0.15185 0.02706 0.0
C1896 C 0.61613 0.16307 0.01876 0.0
H1897 H 0.53641 0.16622 0.9196 0.0
H1898 H 0.55959 0.16819 0.94171 0.0
C1899 C 0.62868 0.16251 0.03057 0.0
C1900 C 0.58801 0.15199 0.01348 0.0
H1901 H 0.56847 0.14677 0.94486 0.0
C1902 C 0.57863 0.15467 0.03351 0.0
C1903 C 0.5844 0.14921 0.98111 0.0
C1904 C 0.59395 0.14591 0.95879 0.0
C1905 C 0.5657 0.15472 0.02196 0.0
C1906 C 0.56189 0.15161 0.98967 0.0
C1907 C 0.57141 0.14913 0.96959 0.0
C1908 C 0.54786 0.1505 0.97643 0.0
C1909 C 0.5564 0.15831 0.04437 0.0
C1910 C 0.53358 0.13973 0.98826 0.0
C1911 C 0.52035 0.13868 0.97591 0.0
C1912 C 0.52109 0.14824 0.95113 0.0
C1913 C 0.53543 0.15883 0.93892 0.0
C1914 C 0.54868 0.15991 0.95141 0.0
H1915 H 0.56317 0.1648 0.06518 0.0
H1916 H 0.55189 0.16499 0.03252 0.0
H1917 H 0.54664 0.14754 0.05301 0.0
H1918 H 0.53265 0.13212 0.00709 0.0
H1919 H 0.50954 0.13052 0.98619 0.0
loop_
_geom_bond_atom_site_label_1
_geom_bond_atom_site_label_2
_geom_bond_distance
_geom_bond_site_symmetry_2
_ccdc_geom_bond_type
Li0 N17 1.990 . S
Li0 O60 1.956 . S
Li0 O61 1.970 . S
Li0 O62 1.961 . S
Li1 N25 1.990 . S
Li1 O60 1.970 . S
Li1 O61 1.956 . S
Li1 O63 1.961 . S
Li2 N47 1.990 . S
Li2 O60 1.961 . S
Li2 O62 1.956 . S
Li2 O63 1.970 . S
Li3 N53 1.990 . S
Li3 O61 1.961 . S
Li3 O62 1.970 . S
Li3 O63 1.956 . S
C4 C6 1.348 . S
C4 C7 1.356 . S
C4 O60 1.325 . S
N5 C8 1.314 . S
N5 C9 1.279 . S
C6 C4 1.348 . S
C6 C8 1.353 . S
C6 H64 0.929 . S
C7 C4 1.356 . S
C7 C9 1.358 . S
C7 H65 0.930 . S
C8 N5 1.314 . S
C8 C6 1.353 . S
C8 H66 0.930 . S
C9 N5 1.279 . S
C9 C7 1.358 . S
C9 H67 0.930 . S
C10 C13 1.348 . S
C10 C14 1.356 . S
C10 O61 1.325 . S
C11 N12 1.279 . S
C11 C14 1.358 . S
C11 H68 0.930 . S
N12 C11 1.279 . S
N12 C15 1.314 . S
C13 C10 1.348 . S
C13 C15 1.353 . S
C13 H69 0.929 . S
C14 C10 1.356 . S
C14 C11 1.358 . S
C14 H70 0.930 . S
C15 N12 1.314 . S
C15 C13 1.353 . S
C15 H71 0.930 . S
C16 N17 1.314 . S
C16 C21 1.353 . S
C16 H22 0.930 . S
N17 Li0 1.990 . S
N17 C16 1.314 . S
N17 C19 1.279 . S
C18 C19 1.358 . S
C18 C20 1.356 . S
C18 H72 0.930 . S
C19 N17 1.279 . S
C19 C18 1.358 . S
C19 H23 0.930 . S
C20 C18 1.356 . S
C20 C21 1.348 . S
C21 C16 1.353 . S
C21 C20 1.348 . S
C21 H73 0.929 . S
H22 C16 0.930 . S
H23 C19 0.930 . S
C24 N25 1.314 . S
C24 C26 1.353 . S
C24 H30 0.930 . S
N25 Li1 1.990 . S
N25 C24 1.314 . S
N25 C28 1.279 . S
C26 C24 1.353 . S
C26 C29 1.348 . S
C26 H74 0.929 . S
C27 C28 1.358 . S
C27 C29 1.356 . S
C27 H75 0.930 . S
C28 N25 1.279 . S
C28 C27 1.358 . S
C28 H31 0.930 . S
C29 C26 1.348 . S
C29 C27 1.356 . S
H30 C24 0.930 . S
H31 C28 0.930 . S
C32 C34 1.348 . S
C32 C35 1.356 . S
C32 O62 1.325 . S
N33 C36 1.314 . S
N33 C37 1.279 . S
C34 C32 1.348 . S
C34 C36 1.353 . S
C34 H76 0.929 . S
C35 C32 1.356 . S
C35 C37 1.358 . S
C35 H77 0.930 . S
C36 N33 1.314 . S
C36 C34 1.353 . S
C36 H78 0.930 . S
C37 N33 1.279 . S
C37 C35 1.358 . S
C37 H79 0.930 . S
C38 C39 1.348 . S
C38 C40 1.356 . S
C38 O63 1.325 . S
C39 C38 1.348 . S
C39 C41 1.353 . S
C39 H80 0.929 . S
C40 C38 1.356 . S
C40 C42 1.358 . S
C40 H81 0.930 . S
C41 C39 1.353 . S
C41 N43 1.314 . S
C41 H82 0.930 . S
C42 C40 1.358 . S
C42 N43 1.279 . S
C42 H83 0.930 . S
N43 C41 1.314 . S
N43 C42 1.279 . S
C44 C46 1.353 . S
C44 N47 1.314 . S
C44 H50 0.930 . S
C45 N47 1.279 . S
C45 C48 1.358 . S
C45 H51 0.930 . S
C46 C44 1.353 . S
C46 C49 1.348 . S
C46 H84 0.929 . S
N47 Li2 1.990 . S
N47 C44 1.314 . S
N47 C45 1.279 . S
C48 C45 1.358 . S
C48 C49 1.356 . S
C48 H85 0.930 . S
C49 C46 1.348 . S
C49 C48 1.356 . S
H50 C44 0.930 . S
H51 C45 0.930 . S
C52 N53 1.314 . S
C52 C54 1.353 . S
C52 H58 0.930 . S
N53 Li3 1.990 . S
N53 C52 1.314 . S
N53 C56 1.279 . S
C54 C52 1.353 . S
C54 C57 1.348 . S
C54 H86 0.929 . S
C55 C56 1.358 . S
C55 C57 1.356 . S
C55 H87 0.930 . S
C56 N53 1.279 . S
C56 C55 1.358 . S
C56 H59 0.930 . S
C57 C54 1.348 . S
C57 C55 1.356 . S
H58 C52 0.930 . S
H59 C56 0.930 . S
O60 Li0 1.956 . S
O60 Li1 1.970 . S
O60 Li2 1.961 . S
O60 C4 1.325 . S
O61 Li0 1.970 . S
O61 Li1 1.956 . S
O61 Li3 1.961 . S
O61 C10 1.325 . S
O62 Li0 1.961 . S
O62 Li2 1.956 . S
O62 Li3 1.970 . S
O62 C32 1.325 . S
O63 Li1 1.961 . S
O63 Li2 1.970 . S
O63 Li3 1.956 . S
O63 C38 1.325 . S
H64 C6 0.929 . S
H65 C7 0.930 . S
H66 C8 0.930 . S
H67 C9 0.930 . S
H68 C11 0.930 . S
H69 C13 0.929 . S
H70 C14 0.930 . S
H71 C15 0.930 . S
H72 C18 0.930 . S
H73 C21 0.929 . S
H74 C26 0.929 . S
H75 C27 0.930 . S
H76 C34 0.929 . S
H77 C35 0.930 . S
H78 C36 0.930 . S
H79 C37 0.930 . S
H80 C39 0.929 . S
H81 C40 0.930 . S
H82 C41 0.930 . S
H83 C42 0.930 . S
H84 C46 0.929 . S
H85 C48 0.930 . S
H86 C54 0.929 . S
H87 C55 0.930 . S
Li88 N105 1.990 . S
Li88 O148 1.956 . S
Li88 O149 1.970 . S
Li88 O150 1.961 . S
Li89 N113 1.990 . S
Li89 O148 1.970 . S
Li89 O149 1.956 . S
Li89 O151 1.961 . S
Li90 N135 1.990 . S
Li90 O148 1.961 . S
Li90 O150 1.956 . S
Li90 O151 1.970 . S
Li91 N141 1.990 . S
Li91 O149 1.961 . S
Li91 O150 1.970 . S
Li91 O151 1.956 . S
C92 C94 1.348 . S
C92 C95 1.356 . S
C92 O148 1.325 . S
N93 C96 1.314 . S
N93 C97 1.279 . S
C94 C92 1.348 . S
C94 C96 1.353 . S
C94 H152 0.929 . S
C95 C92 1.356 . S
C95 C97 1.358 . S
C95 H153 0.930 . S
C96 N93 1.314 . S
C96 C94 1.353 . S
C96 H154 0.930 . S
C97 N93 1.279 . S
C97 C95 1.358 . S
C97 H155 0.930 . S
C98 C101 1.348 . S
C98 C102 1.356 . S
C98 O149 1.325 . S
C99 N100 1.279 . S
C99 C102 1.358 . S
C99 H156 0.930 . S
N100 C99 1.279 . S
N100 C103 1.314 . S
C101 C98 1.348 . S
C101 C103 1.353 . S
C101 H157 0.929 . S
C102 C98 1.356 . S
C102 C99 1.358 . S
C102 H158 0.930 . S
C103 N100 1.314 . S
C103 C101 1.353 . S
C103 H159 0.930 . S
C104 N105 1.314 . S
C104 C109 1.353 . S
C104 H110 0.930 . S
N105 Li88 1.990 . S
N105 C104 1.314 . S
N105 C107 1.279 . S
C106 C107 1.358 . S
C106 C108 1.356 . S
C106 H160 0.930 . S
C107 N105 1.279 . S
C107 C106 1.358 . S
C107 H111 0.930 . S
C108 C106 1.356 . S
C108 C109 1.348 . S
C109 C104 1.353 . S
C109 C108 1.348 . S
C109 H161 0.929 . S
H110 C104 0.930 . S
H111 C107 0.930 . S
C112 N113 1.314 . S
C112 C114 1.353 . S
C112 H118 0.930 . S
N113 Li89 1.990 . S
N113 C112 1.314 . S
N113 C116 1.279 . S
C114 C112 1.353 . S
C114 C117 1.348 . S
C114 H162 0.929 . S
C115 C116 1.358 . S
C115 C117 1.356 . S
C115 H163 0.930 . S
C116 N113 1.279 . S
C116 C115 1.358 . S
C116 H119 0.930 . S
C117 C114 1.348 . S
C117 C115 1.356 . S
H118 C112 0.930 . S
H119 C116 0.930 . S
C120 C122 1.348 . S
C120 C123 1.356 . S
C120 O150 1.325 . S
N121 C124 1.314 . S
N121 C125 1.279 . S
C122 C120 1.348 . S
C122 C124 1.353 . S
C122 H164 0.929 . S
C123 C120 1.356 . S
C123 C125 1.358 . S
C123 H165 0.930 . S
C124 N121 1.314 . S
C124 C122 1.353 . S
C124 H166 0.930 . S
C125 N121 1.279 . S
C125 C123 1.358 . S
C125 H167 0.930 . S
C126 C127 1.348 . S
C126 C128 1.356 . S
C126 O151 1.325 . S
C127 C126 1.348 . S
C127 C129 1.353 . S
C127 H168 0.929 . S
C128 C126 1.356 . S
C128 C130 1.358 . S
C128 H169 0.930 . S
C129 C127 1.353 . S
C129 N131 1.314 . S
C129 H170 0.930 . S
C130 C128 1.358 . S
C130 N131 1.279 . S
C130 H171 0.930 . S
N131 C129 1.314 . S
N131 C130 1.279 . S
C132 C134 1.353 . S
C132 N135 1.314 . S
C132 H138 0.930 . S
C133 N135 1.279 . S
C133 C136 1.358 . S
C133 H139 0.930 . S
C134 C132 1.353 . S
C134 C137 1.348 . S
C134 H172 0.929 . S
N135 Li90 1.990 . S
N135 C132 1.314 . S
N135 C133 1.279 . S
C136 C133 1.358 . S
C136 C137 1.356 . S
C136 H173 0.930 . S
C137 C134 1.348 . S
C137 C136 1.356 . S
H138 C132 0.930 . S
H139 C133 0.930 . S
C140 N141 1.314 . S
C140 C142 1.353 . S
C140 H146 0.930 . S
N141 Li91 1.990 . S
N141 C140 1.314 . S
N141 C144 1.279 . S
C142 C140 1.353 . S
C142 C145 1.348 . S
C142 H174 0.929 . S
C143 C144 1.358 . S
C143 C145 1.356 . S
C143 H175 0.930 . S
C144 N141 1.279 . S
C144 C143 1.358 . S
C144 H147 0.930 . S
C145 C142 1.348 . S
C145 C143 1.356 . S
H146 C140 0.930 . S
H147 C144 0.930 . S
O148 Li88 1.956 . S
O148 Li89 1.970 . S
O148 Li90 1.961 . S
O148 C92 1.325 . S
O149 Li88 1.970 . S
O149 Li89 1.956 . S
O149 Li91 1.961 . S
O149 C98 1.325 . S
O150 Li88 1.961 . S
O150 Li90 1.956 . S
O150 Li91 1.970 . S
O150 C120 1.325 . S
O151 Li89 1.961 . S
O151 Li90 1.970 . S
O151 Li91 1.956 . S
O151 C126 1.325 . S
H152 C94 0.929 . S
H153 C95 0.930 . S
H154 C96 0.930 . S
H155 C97 0.930 . S
H156 C99 0.930 . S
H157 C101 0.929 . S
H158 C102 0.930 . S
H159 C103 0.930 . S
H160 C106 0.930 . S
H161 C109 0.929 . S
H162 C114 0.929 . S
H163 C115 0.930 . S
H164 C122 0.929 . S
H165 C123 0.930 . S
H166 C124 0.930 . S
H167 C125 0.930 . S
H168 C127 0.929 . S
H169 C128 0.930 . S
H170 C129 0.930 . S
H171 C130 0.930 . S
H172 C134 0.929 . S
H173 C136 0.930 . S
H174 C142 0.929 . S
H175 C143 0.930 . S
Li176 N193 1.990 . S
Li176 O236 1.956 . S
Li176 O237 1.970 . S
Li176 O238 1.961 . S
Li177 N201 1.990 1_556 S
Li177 O236 1.970 . S
Li177 O237 1.956 . S
Li177 O239 1.961 . S
Li178 N223 1.990 . S
Li178 O236 1.961 . S
Li178 O238 1.956 . S
Li178 O239 1.970 . S
Li179 N229 1.990 . S
Li179 O237 1.961 . S
Li179 O238 1.970 . S
Li179 O239 1.956 . S
C180 C182 1.348 . S
C180 C183 1.356 . S
C180 O236 1.325 . S
N181 C184 1.314 . S
N181 C185 1.279 . S
C182 C180 1.348 . S
C182 C184 1.353 . S
C182 H240 0.929 . S
C183 C180 1.356 . S
C183 C185 1.358 . S
C183 H241 0.930 . S
C184 N181 1.314 . S
C184 C182 1.353 . S
C184 H242 0.930 . S
C185 N181 1.279 . S
C185 C183 1.358 . S
C185 H243 0.930 . S
C186 C189 1.348 . S
C186 C190 1.356 . S
C186 O237 1.325 1_554 S
C187 N188 1.279 . S
C187 C190 1.358 . S
C187 H244 0.930 . S
N188 C187 1.279 . S
N188 C191 1.314 . S
C189 C186 1.348 . S
C189 C191 1.353 . S
C189 H245 0.929 . S
C190 C186 1.356 . S
C190 C187 1.358 . S
C190 H246 0.930 . S
C191 N188 1.314 . S
C191 C189 1.353 . S
C191 H247 0.930 . S
C192 N193 1.314 . S
C192 C197 1.353 . S
C192 H198 0.930 . S
N193 Li176 1.990 . S
N193 C192 1.314 . S
N193 C195 1.279 . S
C194 C195 1.358 . S
C194 C196 1.356 . S
C194 H248 0.930 . S
C195 N193 1.279 . S
C195 C194 1.358 . S
C195 H199 0.930 . S
C196 C194 1.356 . S
C196 C197 1.348 . S
C197 C192 1.353 . S
C197 C196 1.348 . S
C197 H249 0.929 . S
H198 C192 0.930 . S
H199 C195 0.930 . S
C200 N201 1.314 . S
C200 C202 1.353 . S
C200 H206 0.930 1_554 S
N201 Li177 1.990 1_554 S
N201 C200 1.314 . S
N201 C204 1.279 . S
C202 C200 1.353 . S
C202 C205 1.348 . S
C202 H250 0.929 . S
C203 C204 1.358 . S
C203 C205 1.356 . S
C203 H251 0.930 . S
C204 N201 1.279 . S
C204 C203 1.358 . S
C204 H207 0.930 . S
C205 C202 1.348 . S
C205 C203 1.356 . S
H206 C200 0.930 1_556 S
H207 C204 0.930 . S
C208 C210 1.348 . S
C208 C211 1.356 . S
C208 O238 1.325 . S
N209 C212 1.314 . S
N209 C213 1.279 . S
C210 C208 1.348 . S
C210 C212 1.353 . S
C210 H252 0.929 . S
C211 C208 1.356 . S
C211 C213 1.358 . S
C211 H253 0.930 . S
C212 N209 1.314 . S
C212 C210 1.353 . S
C212 H254 0.930 . S
C213 N209 1.279 . S
C213 C211 1.358 . S
C213 H255 0.930 . S
C214 C215 1.348 . S
C214 C216 1.356 . S
C214 O239 1.325 . S
C215 C214 1.348 . S
C215 C217 1.353 . S
C215 H256 0.929 . S
C216 C214 1.356 . S
C216 C218 1.358 . S
C216 H257 0.930 . S
C217 C215 1.353 . S
C217 N219 1.314 . S
C217 H258 0.930 . S
C218 C216 1.358 . S
C218 N219 1.279 . S
C218 H259 0.930 . S
N219 C217 1.314 . S
N219 C218 1.279 . S
C220 C222 1.353 . S
C220 N223 1.314 . S
C220 H226 0.930 . S
C221 N223 1.279 . S
C221 C224 1.358 . S
C221 H227 0.930 . S
C222 C220 1.353 . S
C222 C225 1.348 . S
C222 H260 0.929 . S
N223 Li178 1.990 . S
N223 C220 1.314 . S
N223 C221 1.279 . S
C224 C221 1.358 . S
C224 C225 1.356 . S
C224 H261 0.930 . S
C225 C222 1.348 . S
C225 C224 1.356 . S
H226 C220 0.930 . S
H227 C221 0.930 . S
C228 N229 1.314 . S
C228 C230 1.353 . S
C228 H234 0.930 . S
N229 Li179 1.990 . S
N229 C228 1.314 . S
N229 C232 1.279 . S
C230 C228 1.353 . S
C230 C233 1.348 . S
C230 H262 0.929 . S
C231 C232 1.358 . S
C231 C233 1.356 . S
C231 H263 0.930 . S
C232 N229 1.279 . S
C232 C231 1.358 . S
C232 H235 0.930 . S
C233 C230 1.348 . S
C233 C231 1.356 . S
H234 C228 0.930 . S
H235 C232 0.930 . S
O236 Li176 1.956 . S
O236 Li177 1.970 . S
O236 Li178 1.961 . S
O236 C180 1.325 . S
O237 Li176 1.970 . S
O237 Li177 1.956 . S
O237 Li179 1.961 . S
O237 C186 1.325 1_556 S
O238 Li176 1.961 . S
O238 Li178 1.956 . S
O238 Li179 1.970 . S
O238 C208 1.325 . S
O239 Li177 1.961 . S
O239 Li178 1.970 . S
O239 Li179 1.956 . S
O239 C214 1.325 . S
H240 C182 0.929 . S
H241 C183 0.930 . S
H242 C184 0.930 . S
H243 C185 0.930 . S
H244 C187 0.930 . S
H245 C189 0.929 . S
H246 C190 0.930 . S
H247 C191 0.930 . S
H248 C194 0.930 . S
H249 C197 0.929 . S
H250 C202 0.929 . S
H251 C203 0.930 . S
H252 C210 0.929 . S
H253 C211 0.930 . S
H254 C212 0.930 . S
H255 C213 0.930 . S
H256 C215 0.929 . S
H257 C216 0.930 . S
H258 C217 0.930 . S
H259 C218 0.930 . S
H260 C222 0.929 . S
H261 C224 0.930 . S
H262 C230 0.929 . S
H263 C231 0.930 . S
Li264 N281 1.990 . S
Li264 O324 1.956 . S
Li264 O325 1.970 . S
Li264 O326 1.961 . S
Li265 N289 1.990 . S
Li265 O324 1.970 . S
Li265 O325 1.956 . S
Li265 O327 1.961 . S
Li266 N311 1.990 . S
Li266 O324 1.961 . S
Li266 O326 1.956 . S
Li266 O327 1.970 . S
Li267 N317 1.990 . S
Li267 O325 1.961 . S
Li267 O326 1.970 . S
Li267 O327 1.956 . S
C268 C270 1.348 . S
C268 C271 1.356 . S
C268 O324 1.325 . S
N269 C272 1.314 . S
N269 C273 1.279 . S
C270 C268 1.348 . S
C270 C272 1.353 . S
C270 H328 0.929 . S
C271 C268 1.356 . S
C271 C273 1.358 . S
C271 H329 0.930 . S
C272 N269 1.314 . S
C272 C270 1.353 . S
C272 H330 0.930 . S
C273 N269 1.279 . S
C273 C271 1.358 . S
C273 H331 0.930 . S
C274 C277 1.348 . S
C274 C278 1.356 . S
C274 O325 1.325 . S
C275 N276 1.279 . S
C275 C278 1.358 . S
C275 H332 0.930 . S
N276 C275 1.279 . S
N276 C279 1.314 . S
C277 C274 1.348 . S
C277 C279 1.353 . S
C277 H333 0.929 . S
C278 C274 1.356 . S
C278 C275 1.358 . S
C278 H334 0.930 . S
C279 N276 1.314 . S
C279 C277 1.353 . S
C279 H335 0.930 . S
C280 N281 1.314 . S
C280 C285 1.353 . S
C280 H286 0.930 . S
N281 Li264 1.990 . S
N281 C280 1.314 . S
N281 C283 1.279 . S
C282 C283 1.358 . S
C282 C284 1.356 . S
C282 H336 0.930 . S
C283 N281 1.279 . S
C283 C282 1.358 . S
C283 H287 0.930 . S
C284 C282 1.356 . S
C284 C285 1.348 . S
C285 C280 1.353 . S
C285 C284 1.348 . S
C285 H337 0.929 . S
H286 C280 0.930 . S
H287 C283 0.930 . S
C288 N289 1.314 . S
C288 C290 1.353 . S
C288 H294 0.930 . S
N289 Li265 1.990 . S
N289 C288 1.314 . S
N289 C292 1.279 . S
C290 C288 1.353 . S
C290 C293 1.348 . S
C290 H338 0.929 . S
C291 C292 1.358 . S
C291 C293 1.356 . S
C291 H339 0.930 . S
C292 N289 1.279 . S
C292 C291 1.358 . S
C292 H295 0.930 . S
C293 C290 1.348 . S
C293 C291 1.356 . S
H294 C288 0.930 . S
H295 C292 0.930 . S
C296 C298 1.348 . S
C296 C299 1.356 . S
C296 O326 1.325 . S
N297 C300 1.314 . S
N297 C301 1.279 . S
C298 C296 1.348 . S
C298 C300 1.353 . S
C298 H340 0.929 . S
C299 C296 1.356 . S
C299 C301 1.358 . S
C299 H341 0.930 . S
C300 N297 1.314 . S
C300 C298 1.353 . S
C300 H342 0.930 . S
C301 N297 1.279 . S
C301 C299 1.358 . S
C301 H343 0.930 . S
C302 C303 1.348 . S
C302 C304 1.356 . S
C302 O327 1.325 . S
C303 C302 1.348 . S
C303 C305 1.353 . S
C303 H344 0.929 . S
C304 C302 1.356 . S
C304 C306 1.358 . S
C304 H345 0.930 . S
C305 C303 1.353 . S
C305 N307 1.314 . S
C305 H346 0.930 . S
C306 C304 1.358 . S
C306 N307 1.279 . S
C306 H347 0.930 . S
N307 C305 1.314 . S
N307 C306 1.279 . S
C308 C310 1.353 . S
C308 N311 1.314 . S
C308 H314 0.930 . S
C309 N311 1.279 . S
C309 C312 1.358 . S
C309 H315 0.930 . S
C310 C308 1.353 . S
C310 C313 1.348 . S
C310 H348 0.929 . S
N311 Li266 1.990 . S
N311 C308 1.314 . S
N311 C309 1.279 . S
C312 C309 1.358 . S
C312 C313 1.356 . S
C312 H349 0.930 . S
C313 C310 1.348 . S
C313 C312 1.356 . S
H314 C308 0.930 . S
H315 C309 0.930 . S
C316 N317 1.314 . S
C316 C318 1.353 . S
C316 H322 0.930 . S
N317 Li267 1.990 . S
N317 C316 1.314 . S
N317 C320 1.279 . S
C318 C316 1.353 . S
C318 C321 1.348 . S
C318 H350 0.929 . S
C319 C320 1.358 . S
C319 C321 1.356 . S
C319 H351 0.930 . S
C320 N317 1.279 . S
C320 C319 1.358 . S
C320 H323 0.930 . S
C321 C318 1.348 . S
C321 C319 1.356 . S
H322 C316 0.930 . S
H323 C320 0.930 . S
O324 Li264 1.956 . S
O324 Li265 1.970 . S
O324 Li266 1.961 . S
O324 C268 1.325 . S
O325 Li264 1.970 . S
O325 Li265 1.956 . S
O325 Li267 1.961 . S
O325 C274 1.325 . S
O326 Li264 1.961 . S
O326 Li266 1.956 . S
O326 Li267 1.970 . S
O326 C296 1.325 . S
O327 Li265 1.961 . S
O327 Li266 1.970 . S
O327 Li267 1.956 . S
O327 C302 1.325 . S
H328 C270 0.929 . S
H329 C271 0.930 . S
H330 C272 0.930 . S
H331 C273 0.930 . S
H332 C275 0.930 . S
H333 C277 0.929 . S
H334 C278 0.930 . S
H335 C279 0.930 . S
H336 C282 0.930 . S
H337 C285 0.929 . S
H338 C290 0.929 . S
H339 C291 0.930 . S
H340 C298 0.929 . S
H341 C299 0.930 . S
H342 C300 0.930 . S
H343 C301 0.930 . S
H344 C303 0.929 . S
H345 C304 0.930 . S
H346 C305 0.930 . S
H347 C306 0.930 . S
H348 C310 0.929 . S
H349 C312 0.930 . S
H350 C318 0.929 . S
H351 C319 0.930 . S
Li352 N369 1.990 . S
Li352 O412 1.956 . S
Li352 O413 1.970 . S
Li352 O414 1.961 . S
Li353 N377 1.990 . S
Li353 O412 1.970 . S
Li353 O413 1.956 . S
Li353 O415 1.961 . S
Li354 N399 1.990 . S
Li354 O412 1.961 . S
Li354 O414 1.956 . S
Li354 O415 1.970 . S
Li355 N405 1.990 . S
Li355 O413 1.961 . S
Li355 O414 1.970 . S
Li355 O415 1.956 . S
C356 C358 1.348 . S
C356 C359 1.356 . S
C356 O412 1.325 . S
N357 C360 1.314 . S
N357 C361 1.279 . S
C358 C356 1.348 . S
C358 C360 1.353 . S
C358 H416 0.929 . S
C359 C356 1.356 . S
C359 C361 1.358 . S
C359 H417 0.930 . S
C360 N357 1.314 . S
C360 C358 1.353 . S
C360 H418 0.930 . S
C361 N357 1.279 . S
C361 C359 1.358 . S
C361 H419 0.930 . S
C362 C365 1.348 . S
C362 C366 1.356 . S
C362 O413 1.325 . S
C363 N364 1.279 . S
C363 C366 1.358 . S
C363 H420 0.930 . S
N364 C363 1.279 . S
N364 C367 1.314 . S
C365 C362 1.348 . S
C365 C367 1.353 . S
C365 H421 0.929 . S
C366 C362 1.356 . S
C366 C363 1.358 . S
C366 H422 0.930 . S
C367 N364 1.314 . S
C367 C365 1.353 . S
C367 H423 0.930 . S
C368 N369 1.314 . S
C368 C373 1.353 . S
C368 H374 0.930 . S
N369 Li352 1.990 . S
N369 C368 1.314 . S
N369 C371 1.279 . S
C370 C371 1.358 . S
C370 C372 1.356 . S
C370 H424 0.930 . S
C371 N369 1.279 . S
C371 C370 1.358 . S
C371 H375 0.930 . S
C372 C370 1.356 . S
C372 C373 1.348 . S
C373 C368 1.353 . S
C373 C372 1.348 . S
C373 H425 0.929 . S
H374 C368 0.930 . S
H375 C371 0.930 . S
C376 N377 1.314 . S
C376 C378 1.353 . S
C376 H382 0.930 . S
N377 Li353 1.990 . S
N377 C376 1.314 . S
N377 C380 1.279 . S
C378 C376 1.353 . S
C378 C381 1.348 . S
C378 H426 0.929 . S
C379 C380 1.358 . S
C379 C381 1.356 . S
C379 H427 0.930 . S
C380 N377 1.279 . S
C380 C379 1.358 . S
C380 H383 0.930 . S
C381 C378 1.348 . S
C381 C379 1.356 . S
H382 C376 0.930 . S
H383 C380 0.930 . S
C384 C386 1.348 . S
C384 C387 1.356 . S
C384 O414 1.325 . S
N385 C388 1.314 . S
N385 C389 1.279 . S
C386 C384 1.348 . S
C386 C388 1.353 . S
C386 H428 0.929 . S
C387 C384 1.356 . S
C387 C389 1.358 . S
C387 H429 0.930 . S
C388 N385 1.314 . S
C388 C386 1.353 . S
C388 H430 0.930 . S
C389 N385 1.279 . S
C389 C387 1.358 . S
C389 H431 0.930 . S
C390 C391 1.348 . S
C390 C392 1.356 . S
C390 O415 1.325 . S
C391 C390 1.348 . S
C391 C393 1.353 . S
C391 H432 0.929 . S
C392 C390 1.356 . S
C392 C394 1.358 . S
C392 H433 0.930 . S
C393 C391 1.353 . S
C393 N395 1.314 . S
C393 H434 0.930 . S
C394 C392 1.358 . S
C394 N395 1.279 . S
C394 H435 0.930 . S
N395 C393 1.314 . S
N395 C394 1.279 . S
C396 C398 1.353 . S
C396 N399 1.314 . S
C396 H402 0.930 . S
C397 N399 1.279 . S
C397 C400 1.358 . S
C397 H403 0.930 . S
C398 C396 1.353 . S
C398 C401 1.348 . S
C398 H436 0.929 . S
N399 Li354 1.990 . S
N399 C396 1.314 . S
N399 C397 1.279 . S
C400 C397 1.358 . S
C400 C401 1.356 . S
C400 H437 0.930 . S
C401 C398 1.348 . S
C401 C400 1.356 . S
H402 C396 0.930 . S
H403 C397 0.930 . S
C404 N405 1.314 . S
C404 C406 1.353 . S
C404 H410 0.930 . S
N405 Li355 1.990 . S
N405 C404 1.314 . S
N405 C408 1.279 . S
C406 C404 1.353 . S
C406 C409 1.348 . S
C406 H438 0.929 . S
C407 C408 1.358 . S
C407 C409 1.356 . S
C407 H439 0.930 . S
C408 N405 1.279 . S
C408 C407 1.358 . S
C408 H411 0.930 . S
C409 C406 1.348 . S
C409 C407 1.356 . S
H410 C404 0.930 . S
H411 C408 0.930 . S
O412 Li352 1.956 . S
O412 Li353 1.970 . S
O412 Li354 1.961 . S
O412 C356 1.325 . S
O413 Li352 1.970 . S
O413 Li353 1.956 . S
O413 Li355 1.961 . S
O413 C362 1.325 . S
O414 Li352 1.961 . S
O414 Li354 1.956 . S
O414 Li355 1.970 . S
O414 C384 1.325 . S
O415 Li353 1.961 . S
O415 Li354 1.970 . S
O415 Li355 1.956 . S
O415 C390 1.325 . S
H416 C358 0.929 . S
H417 C359 0.930 . S
H418 C360 0.930 . S
H419 C361 0.930 . S
H420 C363 0.930 . S
H421 C365 0.929 . S
H422 C366 0.930 . S
H423 C367 0.930 . S
H424 C370 0.930 . S
H425 C373 0.929 . S
H426 C378 0.929 . S
H427 C379 0.930 . S
H428 C386 0.929 . S
H429 C387 0.930 . S
H430 C388 0.930 . S
H431 C389 0.930 . S
H432 C391 0.929 . S
H433 C392 0.930 . S
H434 C393 0.930 . S
H435 C394 0.930 . S
H436 C398 0.929 . S
H437 C400 0.930 . S
H438 C406 0.929 . S
H439 C407 0.930 . S
Li440 N457 1.990 1_556 S
Li440 O500 1.956 . S
Li440 O501 1.970 . S
Li440 O502 1.961 . S
Li441 N465 1.990 . S
Li441 O500 1.970 . S
Li441 O501 1.956 . S
Li441 O503 1.961 . S
Li442 N487 1.990 . S
Li442 O500 1.961 . S
Li442 O502 1.956 . S
Li442 O503 1.970 . S
Li443 N493 1.990 . S
Li443 O501 1.961 . S
Li443 O502 1.970 . S
Li443 O503 1.956 . S
C444 C446 1.348 . S
C444 C447 1.356 . S
C444 O500 1.325 1_554 S
N445 C448 1.314 . S
N445 C449 1.279 . S
C446 C444 1.348 . S
C446 C448 1.353 . S
C446 H504 0.929 . S
C447 C444 1.356 . S
C447 C449 1.358 . S
C447 H505 0.930 . S
C448 N445 1.314 . S
C448 C446 1.353 . S
C448 H506 0.930 . S
C449 N445 1.279 . S
C449 C447 1.358 . S
C449 H507 0.930 . S
C450 C453 1.348 . S
C450 C454 1.356 . S
C450 O501 1.325 . S
C451 N452 1.279 . S
C451 C454 1.358 . S
C451 H508 0.930 . S
N452 C451 1.279 . S
N452 C455 1.314 . S
C453 C450 1.348 . S
C453 C455 1.353 . S
C453 H509 0.929 . S
C454 C450 1.356 . S
C454 C451 1.358 . S
C454 H510 0.930 . S
C455 N452 1.314 . S
C455 C453 1.353 . S
C455 H511 0.930 . S
C456 N457 1.314 . S
C456 C461 1.353 . S
C456 H462 0.930 1_554 S
N457 Li440 1.990 1_554 S
N457 C456 1.314 . S
N457 C459 1.279 . S
C458 C459 1.358 . S
C458 C460 1.356 . S
C458 H512 0.930 . S
C459 N457 1.279 . S
C459 C458 1.358 . S
C459 H463 0.930 . S
C460 C458 1.356 . S
C460 C461 1.348 . S
C461 C456 1.353 . S
C461 C460 1.348 . S
C461 H513 0.929 . S
H462 C456 0.930 1_556 S
H463 C459 0.930 . S
C464 N465 1.314 . S
C464 C466 1.353 . S
C464 H470 0.930 . S
N465 Li441 1.990 . S
N465 C464 1.314 . S
N465 C468 1.279 . S
C466 C464 1.353 . S
C466 C469 1.348 . S
C466 H514 0.929 . S
C467 C468 1.358 . S
C467 C469 1.356 . S
C467 H515 0.930 . S
C468 N465 1.279 . S
C468 C467 1.358 . S
C468 H471 0.930 . S
C469 C466 1.348 . S
C469 C467 1.356 . S
H470 C464 0.930 . S
H471 C468 0.930 . S
C472 C474 1.348 . S
C472 C475 1.356 . S
C472 O502 1.325 . S
N473 C476 1.314 . S
N473 C477 1.279 . S
C474 C472 1.348 . S
C474 C476 1.353 . S
C474 H516 0.929 . S
C475 C472 1.356 . S
C475 C477 1.358 . S
C475 H517 0.930 . S
C476 N473 1.314 . S
C476 C474 1.353 . S
C476 H518 0.930 . S
C477 N473 1.279 . S
C477 C475 1.358 . S
C477 H519 0.930 . S
C478 C479 1.348 . S
C478 C480 1.356 . S
C478 O503 1.325 . S
C479 C478 1.348 . S
C479 C481 1.353 . S
C479 H520 0.929 . S
C480 C478 1.356 . S
C480 C482 1.358 . S
C480 H521 0.930 . S
C481 C479 1.353 . S
C481 N483 1.314 . S
C481 H522 0.930 . S
C482 C480 1.358 . S
C482 N483 1.279 . S
C482 H523 0.930 . S
N483 C481 1.314 . S
N483 C482 1.279 . S
C484 C486 1.353 . S
C484 N487 1.314 . S
C484 H490 0.930 . S
C485 N487 1.279 . S
C485 C488 1.358 . S
C485 H491 0.930 . S
C486 C484 1.353 . S
C486 C489 1.348 . S
C486 H524 0.929 . S
N487 Li442 1.990 . S
N487 C484 1.314 . S
N487 C485 1.279 . S
C488 C485 1.358 . S
C488 C489 1.356 . S
C488 H525 0.930 . S
C489 C486 1.348 . S
C489 C488 1.356 . S
H490 C484 0.930 . S
H491 C485 0.930 . S
C492 N493 1.314 . S
C492 C494 1.353 . S
C492 H498 0.930 . S
N493 Li443 1.990 . S
N493 C492 1.314 . S
N493 C496 1.279 . S
C494 C492 1.353 . S
C494 C497 1.348 . S
C494 H526 0.929 . S
C495 C496 1.358 . S
C495 C497 1.356 . S
C495 H527 0.930 . S
C496 N493 1.279 . S
C496 C495 1.358 . S
C496 H499 0.930 . S
C497 C494 1.348 . S
C497 C495 1.356 . S
H498 C492 0.930 . S
H499 C496 0.930 . S
O500 Li440 1.956 . S
O500 Li441 1.970 . S
O500 Li442 1.961 . S
O500 C444 1.325 1_556 S
O501 Li440 1.970 . S
O501 Li441 1.956 . S
O501 Li443 1.961 . S
O501 C450 1.325 . S
O502 Li440 1.961 . S
O502 Li442 1.956 . S
O502 Li443 1.970 . S
O502 C472 1.325 . S
O503 Li441 1.961 . S
O503 Li442 1.970 . S
O503 Li443 1.956 . S
O503 C478 1.325 . S
H504 C446 0.929 . S
H505 C447 0.930 . S
H506 C448 0.930 . S
H507 C449 0.930 . S
H508 C451 0.930 . S
H509 C453 0.929 . S
H510 C454 0.930 . S
H511 C455 0.930 . S
H512 C458 0.930 . S
H513 C461 0.929 . S
H514 C466 0.929 . S
H515 C467 0.930 . S
H516 C474 0.929 . S
H517 C475 0.930 . S
H518 C476 0.930 . S
H519 C477 0.930 . S
H520 C479 0.929 . S
H521 C480 0.930 . S
H522 C481 0.930 . S
H523 C482 0.930 . S
H524 C486 0.929 . S
H525 C488 0.930 . S
H526 C494 0.929 . S
H527 C495 0.930 . S
Li528 N545 1.990 . S
Li528 O588 1.956 . S
Li528 O589 1.970 . S
Li528 O590 1.961 . S
Li529 N553 1.990 . S
Li529 O588 1.970 . S
Li529 O589 1.956 . S
Li529 O591 1.961 . S
Li530 N575 1.990 . S
Li530 O588 1.961 . S
Li530 O590 1.956 . S
Li530 O591 1.970 . S
Li531 N581 1.990 . S
Li531 O589 1.961 . S
Li531 O590 1.970 . S
Li531 O591 1.956 . S
C532 C534 1.348 . S
C532 C535 1.356 . S
C532 O588 1.325 . S
N533 C536 1.314 . S
N533 C537 1.279 . S
C534 C532 1.348 . S
C534 C536 1.353 . S
C534 H592 0.929 . S
C535 C532 1.356 . S
C535 C537 1.358 . S
C535 H593 0.930 . S
C536 N533 1.314 . S
C536 C534 1.353 . S
C536 H594 0.930 . S
C537 N533 1.279 . S
C537 C535 1.358 . S
C537 H595 0.930 . S
C538 C541 1.348 . S
C538 C542 1.356 . S
C538 O589 1.325 . S
C539 N540 1.279 . S
C539 C542 1.358 . S
C539 H596 0.930 . S
N540 C539 1.279 . S
N540 C543 1.314 . S
C541 C538 1.348 . S
C541 C543 1.353 . S
C541 H597 0.929 . S
C542 C538 1.356 . S
C542 C539 1.358 . S
C542 H598 0.930 . S
C543 N540 1.314 . S
C543 C541 1.353 . S
C543 H599 0.930 . S
C544 N545 1.314 . S
C544 C549 1.353 . S
C544 H550 0.930 . S
N545 Li528 1.990 . S
N545 C544 1.314 . S
N545 C547 1.279 . S
C546 C547 1.358 . S
C546 C548 1.356 . S
C546 H600 0.930 . S
C547 N545 1.279 . S
C547 C546 1.358 . S
C547 H551 0.930 . S
C548 C546 1.356 . S
C548 C549 1.348 . S
C549 C544 1.353 . S
C549 C548 1.348 . S
C549 H601 0.929 . S
H550 C544 0.930 . S
H551 C547 0.930 . S
C552 N553 1.314 . S
C552 C554 1.353 . S
C552 H558 0.930 . S
N553 Li529 1.990 . S
N553 C552 1.314 . S
N553 C556 1.279 . S
C554 C552 1.353 . S
C554 C557 1.348 . S
C554 H602 0.929 . S
C555 C556 1.358 . S
C555 C557 1.356 . S
C555 H603 0.930 . S
C556 N553 1.279 . S
C556 C555 1.358 . S
C556 H559 0.930 . S
C557 C554 1.348 . S
C557 C555 1.356 . S
H558 C552 0.930 . S
H559 C556 0.930 . S
C560 C562 1.348 . S
C560 C563 1.356 . S
C560 O590 1.325 . S
N561 C564 1.314 . S
N561 C565 1.279 . S
C562 C560 1.348 . S
C562 C564 1.353 . S
C562 H604 0.929 . S
C563 C560 1.356 . S
C563 C565 1.358 . S
C563 H605 0.930 . S
C564 N561 1.314 . S
C564 C562 1.353 . S
C564 H606 0.930 . S
C565 N561 1.279 . S
C565 C563 1.358 . S
C565 H607 0.930 . S
C566 C567 1.348 . S
C566 C568 1.356 . S
C566 O591 1.325 . S
C567 C566 1.348 . S
C567 C569 1.353 . S
C567 H608 0.929 . S
C568 C566 1.356 . S
C568 C570 1.358 . S
C568 H609 0.930 . S
C569 C567 1.353 . S
C569 N571 1.314 . S
C569 H610 0.930 . S
C570 C568 1.358 . S
C570 N571 1.279 . S
C570 H611 0.930 . S
N571 C569 1.314 . S
N571 C570 1.279 . S
C572 C574 1.353 . S
C572 N575 1.314 . S
C572 H578 0.930 . S
C573 N575 1.279 . S
C573 C576 1.358 . S
C573 H579 0.930 . S
C574 C572 1.353 . S
C574 C577 1.348 . S
C574 H612 0.929 . S
N575 Li530 1.990 . S
N575 C572 1.314 . S
N575 C573 1.279 . S
C576 C573 1.358 . S
C576 C577 1.356 . S
C576 H613 0.930 . S
C577 C574 1.348 . S
C577 C576 1.356 . S
H578 C572 0.930 . S
H579 C573 0.930 . S
C580 N581 1.314 . S
C580 C582 1.353 . S
C580 H586 0.930 . S
N581 Li531 1.990 . S
N581 C580 1.314 . S
N581 C584 1.279 . S
C582 C580 1.353 . S
C582 C585 1.348 . S
C582 H614 0.929 . S
C583 C584 1.358 . S
C583 C585 1.356 . S
C583 H615 0.930 . S
C584 N581 1.279 . S
C584 C583 1.358 . S
C584 H587 0.930 . S
C585 C582 1.348 . S
C585 C583 1.356 . S
H586 C580 0.930 . S
H587 C584 0.930 . S
O588 Li528 1.956 . S
O588 Li529 1.970 . S
O588 Li530 1.961 . S
O588 C532 1.325 . S
O589 Li528 1.970 . S
O589 Li529 1.956 . S
O589 Li531 1.961 . S
O589 C538 1.325 . S
O590 Li528 1.961 . S
O590 Li530 1.956 . S
O590 Li531 1.970 . S
O590 C560 1.325 . S
O591 Li529 1.961 . S
O591 Li530 1.970 . S
O591 Li531 1.956 . S
O591 C566 1.325 . S
H592 C534 0.929 . S
H593 C535 0.930 . S
H594 C536 0.930 . S
H595 C537 0.930 . S
H596 C539 0.930 . S
H597 C541 0.929 . S
H598 C542 0.930 . S
H599 C543 0.930 . S
H600 C546 0.930 . S
H601 C549 0.929 . S
H602 C554 0.929 . S
H603 C555 0.930 . S
H604 C562 0.929 . S
H605 C563 0.930 . S
H606 C564 0.930 . S
H607 C565 0.930 . S
H608 C567 0.929 . S
H609 C568 0.930 . S
H610 C569 0.930 . S
H611 C570 0.930 . S
H612 C574 0.929 . S
H613 C576 0.930 . S
H614 C582 0.929 . S
H615 C583 0.930 . S
Li616 N633 1.990 . S
Li616 O676 1.956 . S
Li616 O677 1.970 . S
Li616 O678 1.961 . S
Li617 N641 1.990 . S
Li617 O676 1.970 . S
Li617 O677 1.956 . S
Li617 O679 1.961 . S
Li618 N663 1.990 . S
Li618 O676 1.961 . S
Li618 O678 1.956 . S
Li618 O679 1.970 . S
Li619 N669 1.990 . S
Li619 O677 1.961 . S
Li619 O678 1.970 . S
Li619 O679 1.956 . S
C620 C622 1.348 . S
C620 C623 1.356 . S
C620 O676 1.325 . S
N621 C624 1.314 . S
N621 C625 1.279 . S
C622 C620 1.348 . S
C622 C624 1.353 . S
C622 H680 0.929 . S
C623 C620 1.356 . S
C623 C625 1.358 . S
C623 H681 0.930 . S
C624 N621 1.314 . S
C624 C622 1.353 . S
C624 H682 0.930 . S
C625 N621 1.279 . S
C625 C623 1.358 . S
C625 H683 0.930 . S
C626 C629 1.348 . S
C626 C630 1.356 . S
C626 O677 1.325 . S
C627 N628 1.279 . S
C627 C630 1.358 . S
C627 H684 0.930 . S
N628 C627 1.279 . S
N628 C631 1.314 . S
C629 C626 1.348 . S
C629 C631 1.353 . S
C629 H685 0.929 . S
C630 C626 1.356 . S
C630 C627 1.358 . S
C630 H686 0.930 . S
C631 N628 1.314 . S
C631 C629 1.353 . S
C631 H687 0.930 . S
C632 N633 1.314 . S
C632 C637 1.353 . S
C632 H638 0.930 . S
N633 Li616 1.990 . S
N633 C632 1.314 . S
N633 C635 1.279 . S
C634 C635 1.358 . S
C634 C636 1.356 . S
C634 H688 0.930 . S
C635 N633 1.279 . S
C635 C634 1.358 . S
C635 H639 0.930 . S
C636 C634 1.356 . S
C636 C637 1.348 . S
C637 C632 1.353 . S
C637 C636 1.348 . S
C637 H689 0.929 . S
H638 C632 0.930 . S
H639 C635 0.930 . S
C640 N641 1.314 . S
C640 C642 1.353 . S
C640 H646 0.930 . S
N641 Li617 1.990 . S
N641 C640 1.314 . S
N641 C644 1.279 . S
C642 C640 1.353 . S
C642 C645 1.348 . S
C642 H690 0.929 . S
C643 C644 1.358 . S
C643 C645 1.356 . S
C643 H691 0.930 . S
C644 N641 1.279 . S
C644 C643 1.358 . S
C644 H647 0.930 . S
C645 C642 1.348 . S
C645 C643 1.356 . S
H646 C640 0.930 . S
H647 C644 0.930 . S
C648 C650 1.348 . S
C648 C651 1.356 . S
C648 O678 1.325 . S
N649 C652 1.314 . S
N649 C653 1.279 . S
C650 C648 1.348 . S
C650 C652 1.353 . S
C650 H692 0.929 . S
C651 C648 1.356 . S
C651 C653 1.358 . S
C651 H693 0.930 . S
C652 N649 1.314 . S
C652 C650 1.353 . S
C652 H694 0.930 . S
C653 N649 1.279 . S
C653 C651 1.358 . S
C653 H695 0.930 . S
C654 C655 1.348 . S
C654 C656 1.356 . S
C654 O679 1.325 . S
C655 C654 1.348 . S
C655 C657 1.353 . S
C655 H696 0.929 . S
C656 C654 1.356 . S
C656 C658 1.358 . S
C656 H697 0.930 . S
C657 C655 1.353 . S
C657 N659 1.314 . S
C657 H698 0.930 . S
C658 C656 1.358 . S
C658 N659 1.279 . S
C658 H699 0.930 . S
N659 C657 1.314 . S
N659 C658 1.279 . S
C660 C662 1.353 . S
C660 N663 1.314 . S
C660 H666 0.930 . S
C661 N663 1.279 . S
C661 C664 1.358 . S
C661 H667 0.930 . S
C662 C660 1.353 . S
C662 C665 1.348 . S
C662 H700 0.929 . S
N663 Li618 1.990 . S
N663 C660 1.314 . S
N663 C661 1.279 . S
C664 C661 1.358 . S
C664 C665 1.356 . S
C664 H701 0.930 . S
C665 C662 1.348 . S
C665 C664 1.356 . S
H666 C660 0.930 . S
H667 C661 0.930 . S
C668 N669 1.314 . S
C668 C670 1.353 . S
C668 H674 0.930 . S
N669 Li619 1.990 . S
N669 C668 1.314 . S
N669 C672 1.279 . S
C670 C668 1.353 . S
C670 C673 1.348 . S
C670 H702 0.929 . S
C671 C672 1.358 . S
C671 C673 1.356 . S
C671 H703 0.930 . S
C672 N669 1.279 . S
C672 C671 1.358 . S
C672 H675 0.930 . S
C673 C670 1.348 . S
C673 C671 1.356 . S
H674 C668 0.930 . S
H675 C672 0.930 . S
O676 Li616 1.956 . S
O676 Li617 1.970 . S
O676 Li618 1.961 . S
O676 C620 1.325 . S
O677 Li616 1.970 . S
O677 Li617 1.956 . S
O677 Li619 1.961 . S
O677 C626 1.325 . S
O678 Li616 1.961 . S
O678 Li618 1.956 . S
O678 Li619 1.970 . S
O678 C648 1.325 . S
O679 Li617 1.961 . S
O679 Li618 1.970 . S
O679 Li619 1.956 . S
O679 C654 1.325 . S
H680 C622 0.929 . S
H681 C623 0.930 . S
H682 C624 0.930 . S
H683 C625 0.930 . S
H684 C627 0.930 . S
H685 C629 0.929 . S
H686 C630 0.930 . S
H687 C631 0.930 . S
H688 C634 0.930 . S
H689 C637 0.929 . S
H690 C642 0.929 . S
H691 C643 0.930 . S
H692 C650 0.929 . S
H693 C651 0.930 . S
H694 C652 0.930 . S
H695 C653 0.930 . S
H696 C655 0.929 . S
H697 C656 0.930 . S
H698 C657 0.930 . S
H699 C658 0.930 . S
H700 C662 0.929 . S
H701 C664 0.930 . S
H702 C670 0.929 . S
H703 C671 0.930 . S
Li704 N721 1.990 . S
Li704 O764 1.956 . S
Li704 O765 1.970 . S
Li704 O766 1.961 . S
Li705 N729 1.990 . S
Li705 O764 1.970 . S
Li705 O765 1.956 . S
Li705 O767 1.961 . S
Li706 N751 1.990 1_554 S
Li706 O764 1.961 . S
Li706 O766 1.956 . S
Li706 O767 1.970 . S
Li707 N757 1.990 . S
Li707 O765 1.961 . S
Li707 O766 1.970 . S
Li707 O767 1.956 . S
C708 C710 1.348 . S
C708 C711 1.356 . S
C708 O764 1.325 . S
N709 C712 1.314 . S
N709 C713 1.279 . S
C710 C708 1.348 . S
C710 C712 1.353 . S
C710 H768 0.929 . S
C711 C708 1.356 . S
C711 C713 1.358 . S
C711 H769 0.930 . S
C712 N709 1.314 . S
C712 C710 1.353 . S
C712 H770 0.930 . S
C713 N709 1.279 . S
C713 C711 1.358 . S
C713 H771 0.930 . S
C714 C717 1.348 . S
C714 C718 1.356 . S
C714 O765 1.325 . S
C715 N716 1.279 . S
C715 C718 1.358 . S
C715 H772 0.930 . S
N716 C715 1.279 . S
N716 C719 1.314 . S
C717 C714 1.348 . S
C717 C719 1.353 . S
C717 H773 0.929 . S
C718 C714 1.356 . S
C718 C715 1.358 . S
C718 H774 0.930 . S
C719 N716 1.314 . S
C719 C717 1.353 . S
C719 H775 0.930 . S
C720 N721 1.314 . S
C720 C725 1.353 . S
C720 H726 0.930 . S
N721 Li704 1.990 . S
N721 C720 1.314 . S
N721 C723 1.279 . S
C722 C723 1.358 . S
C722 C724 1.356 . S
C722 H776 0.930 . S
C723 N721 1.279 . S
C723 C722 1.358 . S
C723 H727 0.930 . S
C724 C722 1.356 . S
C724 C725 1.348 . S
C725 C720 1.353 . S
C725 C724 1.348 . S
C725 H777 0.929 . S
H726 C720 0.930 . S
H727 C723 0.930 . S
C728 N729 1.314 . S
C728 C730 1.353 . S
C728 H734 0.930 . S
N729 Li705 1.990 . S
N729 C728 1.314 . S
N729 C732 1.279 . S
C730 C728 1.353 . S
C730 C733 1.348 . S
C730 H778 0.929 . S
C731 C732 1.358 . S
C731 C733 1.356 . S
C731 H779 0.930 . S
C732 N729 1.279 . S
C732 C731 1.358 . S
C732 H735 0.930 . S
C733 C730 1.348 . S
C733 C731 1.356 . S
H734 C728 0.930 . S
H735 C732 0.930 . S
C736 C738 1.348 . S
C736 C739 1.356 . S
C736 O766 1.325 1_556 S
N737 C740 1.314 . S
N737 C741 1.279 . S
C738 C736 1.348 . S
C738 C740 1.353 . S
C738 H780 0.929 . S
C739 C736 1.356 . S
C739 C741 1.358 . S
C739 H781 0.930 . S
C740 N737 1.314 . S
C740 C738 1.353 . S
C740 H782 0.930 . S
C741 N737 1.279 . S
C741 C739 1.358 . S
C741 H783 0.930 . S
C742 C743 1.348 . S
C742 C744 1.356 . S
C742 O767 1.325 . S
C743 C742 1.348 . S
C743 C745 1.353 . S
C743 H784 0.929 . S
C744 C742 1.356 . S
C744 C746 1.358 . S
C744 H785 0.930 . S
C745 C743 1.353 . S
C745 N747 1.314 . S
C745 H786 0.930 . S
C746 C744 1.358 . S
C746 N747 1.279 . S
C746 H787 0.930 . S
N747 C745 1.314 . S
N747 C746 1.279 . S
C748 C750 1.353 . S
C748 N751 1.314 . S
C748 H754 0.930 1_556 S
C749 N751 1.279 . S
C749 C752 1.358 . S
C749 H755 0.930 . S
C750 C748 1.353 . S
C750 C753 1.348 . S
C750 H788 0.929 . S
N751 Li706 1.990 1_556 S
N751 C748 1.314 . S
N751 C749 1.279 . S
C752 C749 1.358 . S
C752 C753 1.356 . S
C752 H789 0.930 . S
C753 C750 1.348 . S
C753 C752 1.356 . S
H754 C748 0.930 1_554 S
H755 C749 0.930 . S
C756 N757 1.314 . S
C756 C758 1.353 . S
C756 H762 0.930 . S
N757 Li707 1.990 . S
N757 C756 1.314 . S
N757 C760 1.279 . S
C758 C756 1.353 . S
C758 C761 1.348 . S
C758 H790 0.929 . S
C759 C760 1.358 . S
C759 C761 1.356 . S
C759 H791 0.930 . S
C760 N757 1.279 . S
C760 C759 1.358 . S
C760 H763 0.930 . S
C761 C758 1.348 . S
C761 C759 1.356 . S
H762 C756 0.930 . S
H763 C760 0.930 . S
O764 Li704 1.956 . S
O764 Li705 1.970 . S
O764 Li706 1.961 . S
O764 C708 1.325 . S
O765 Li704 1.970 . S
O765 Li705 1.956 . S
O765 Li707 1.961 . S
O765 C714 1.325 . S
O766 Li704 1.961 . S
O766 Li706 1.956 . S
O766 Li707 1.970 . S
O766 C736 1.325 1_554 S
O767 Li705 1.961 . S
O767 Li706 1.970 . S
O767 Li707 1.956 . S
O767 C742 1.325 . S
H768 C710 0.929 . S
H769 C711 0.930 . S
H770 C712 0.930 . S
H771 C713 0.930 . S
H772 C715 0.930 . S
H773 C717 0.929 . S
H774 C718 0.930 . S
H775 C719 0.930 . S
H776 C722 0.930 . S
H777 C725 0.929 . S
H778 C730 0.929 . S
H779 C731 0.930 . S
H780 C738 0.929 . S
H781 C739 0.930 . S
H782 C740 0.930 . S
H783 C741 0.930 . S
H784 C743 0.929 . S
H785 C744 0.930 . S
H786 C745 0.930 . S
H787 C746 0.930 . S
H788 C750 0.929 . S
H789 C752 0.930 . S
H790 C758 0.929 . S
H791 C759 0.930 . S
Li792 N809 1.990 . S
Li792 O852 1.956 . S
Li792 O853 1.970 . S
Li792 O854 1.961 . S
Li793 N817 1.990 . S
Li793 O852 1.970 . S
Li793 O853 1.956 . S
Li793 O855 1.961 . S
Li794 N839 1.990 . S
Li794 O852 1.961 . S
Li794 O854 1.956 . S
Li794 O855 1.970 . S
Li795 N845 1.990 . S
Li795 O853 1.961 . S
Li795 O854 1.970 . S
Li795 O855 1.956 . S
C796 C798 1.348 . S
C796 C799 1.356 . S
C796 O852 1.325 . S
N797 C800 1.314 . S
N797 C801 1.279 . S
C798 C796 1.348 . S
C798 C800 1.353 . S
C798 H856 0.929 . S
C799 C796 1.356 . S
C799 C801 1.358 . S
C799 H857 0.930 . S
C800 N797 1.314 . S
C800 C798 1.353 . S
C800 H858 0.930 . S
C801 N797 1.279 . S
C801 C799 1.358 . S
C801 H859 0.930 . S
C802 C805 1.348 . S
C802 C806 1.356 . S
C802 O853 1.325 . S
C803 N804 1.279 . S
C803 C806 1.358 . S
C803 H860 0.930 . S
N804 C803 1.279 . S
N804 C807 1.314 . S
C805 C802 1.348 . S
C805 C807 1.353 . S
C805 H861 0.929 . S
C806 C802 1.356 . S
C806 C803 1.358 . S
C806 H862 0.930 . S
C807 N804 1.314 . S
C807 C805 1.353 . S
C807 H863 0.930 . S
C808 N809 1.314 . S
C808 C813 1.353 . S
C808 H814 0.930 . S
N809 Li792 1.990 . S
N809 C808 1.314 . S
N809 C811 1.279 . S
C810 C811 1.358 . S
C810 C812 1.356 . S
C810 H864 0.930 . S
C811 N809 1.279 . S
C811 C810 1.358 . S
C811 H815 0.930 . S
C812 C810 1.356 . S
C812 C813 1.348 . S
C813 C808 1.353 . S
C813 C812 1.348 . S
C813 H865 0.929 . S
H814 C808 0.930 . S
H815 C811 0.930 . S
C816 N817 1.314 . S
C816 C818 1.353 . S
C816 H822 0.930 . S
N817 Li793 1.990 . S
N817 C816 1.314 . S
N817 C820 1.279 . S
C818 C816 1.353 . S
C818 C821 1.348 . S
C818 H866 0.929 . S
C819 C820 1.358 . S
C819 C821 1.356 . S
C819 H867 0.930 . S
C820 N817 1.279 . S
C820 C819 1.358 . S
C820 H823 0.930 . S
C821 C818 1.348 . S
C821 C819 1.356 . S
H822 C816 0.930 . S
H823 C820 0.930 . S
C824 C826 1.348 . S
C824 C827 1.356 . S
C824 O854 1.325 . S
N825 C828 1.314 . S
N825 C829 1.279 . S
C826 C824 1.348 . S
C826 C828 1.353 . S
C826 H868 0.929 . S
C827 C824 1.356 . S
C827 C829 1.358 . S
C827 H869 0.930 . S
C828 N825 1.314 . S
C828 C826 1.353 . S
C828 H870 0.930 . S
C829 N825 1.279 . S
C829 C827 1.358 . S
C829 H871 0.930 . S
C830 C831 1.348 . S
C830 C832 1.356 . S
C830 O855 1.325 . S
C831 C830 1.348 . S
C831 C833 1.353 . S
C831 H872 0.929 . S
C832 C830 1.356 . S
C832 C834 1.358 . S
C832 H873 0.930 . S
C833 C831 1.353 . S
C833 N835 1.314 . S
C833 H874 0.930 . S
C834 C832 1.358 . S
C834 N835 1.279 . S
C834 H875 0.930 . S
N835 C833 1.314 . S
N835 C834 1.279 . S
C836 C838 1.353 . S
C836 N839 1.314 . S
C836 H842 0.930 . S
C837 N839 1.279 . S
C837 C840 1.358 . S
C837 H843 0.930 . S
C838 C836 1.353 . S
C838 C841 1.348 . S
C838 H876 0.929 . S
N839 Li794 1.990 . S
N839 C836 1.314 . S
N839 C837 1.279 . S
C840 C837 1.358 . S
C840 C841 1.356 . S
C840 H877 0.930 . S
C841 C838 1.348 . S
C841 C840 1.356 . S
H842 C836 0.930 . S
H843 C837 0.930 . S
C844 N845 1.314 . S
C844 C846 1.353 . S
C844 H850 0.930 . S
N845 Li795 1.990 . S
N845 C844 1.314 . S
N845 C848 1.279 . S
C846 C844 1.353 . S
C846 C849 1.348 . S
C846 H878 0.929 . S
C847 C848 1.358 . S
C847 C849 1.356 . S
C847 H879 0.930 . S
C848 N845 1.279 . S
C848 C847 1.358 . S
C848 H851 0.930 . S
C849 C846 1.348 . S
C849 C847 1.356 . S
H850 C844 0.930 . S
H851 C848 0.930 . S
O852 Li792 1.956 . S
O852 Li793 1.970 . S
O852 Li794 1.961 . S
O852 C796 1.325 . S
O853 Li792 1.970 . S
O853 Li793 1.956 . S
O853 Li795 1.961 . S
O853 C802 1.325 . S
O854 Li792 1.961 . S
O854 Li794 1.956 . S
O854 Li795 1.970 . S
O854 C824 1.325 . S
O855 Li793 1.961 . S
O855 Li794 1.970 . S
O855 Li795 1.956 . S
O855 C830 1.325 . S
H856 C798 0.929 . S
H857 C799 0.930 . S
H858 C800 0.930 . S
H859 C801 0.930 . S
H860 C803 0.930 . S
H861 C805 0.929 . S
H862 C806 0.930 . S
H863 C807 0.930 . S
H864 C810 0.930 . S
H865 C813 0.929 . S
H866 C818 0.929 . S
H867 C819 0.930 . S
H868 C826 0.929 . S
H869 C827 0.930 . S
H870 C828 0.930 . S
H871 C829 0.930 . S
H872 C831 0.929 . S
H873 C832 0.930 . S
H874 C833 0.930 . S
H875 C834 0.930 . S
H876 C838 0.929 . S
H877 C840 0.930 . S
H878 C846 0.929 . S
H879 C847 0.930 . S
Li880 N897 1.990 . S
Li880 O940 1.956 . S
Li880 O941 1.970 . S
Li880 O942 1.961 . S
Li881 N905 1.990 . S
Li881 O940 1.970 . S
Li881 O941 1.956 . S
Li881 O943 1.961 . S
Li882 N927 1.990 . S
Li882 O940 1.961 . S
Li882 O942 1.956 . S
Li882 O943 1.970 . S
Li883 N933 1.990 . S
Li883 O941 1.961 . S
Li883 O942 1.970 . S
Li883 O943 1.956 . S
C884 C886 1.348 . S
C884 C887 1.356 . S
C884 O940 1.325 . S
N885 C888 1.314 . S
N885 C889 1.279 . S
C886 C884 1.348 . S
C886 C888 1.353 . S
C886 H944 0.929 . S
C887 C884 1.356 . S
C887 C889 1.358 . S
C887 H945 0.930 . S
C888 N885 1.314 . S
C888 C886 1.353 . S
C888 H946 0.930 . S
C889 N885 1.279 . S
C889 C887 1.358 . S
C889 H947 0.930 . S
C890 C893 1.348 . S
C890 C894 1.356 . S
C890 O941 1.325 . S
C891 N892 1.279 . S
C891 C894 1.358 . S
C891 H948 0.930 . S
N892 C891 1.279 . S
N892 C895 1.314 . S
C893 C890 1.348 . S
C893 C895 1.353 . S
C893 H949 0.929 . S
C894 C890 1.356 . S
C894 C891 1.358 . S
C894 H950 0.930 . S
C895 N892 1.314 . S
C895 C893 1.353 . S
C895 H951 0.930 . S
C896 N897 1.314 . S
C896 C901 1.353 . S
C896 H902 0.930 . S
N897 Li880 1.990 . S
N897 C896 1.314 . S
N897 C899 1.279 . S
C898 C899 1.358 . S
C898 C900 1.356 . S
C898 H952 0.930 . S
C899 N897 1.279 . S
C899 C898 1.358 . S
C899 H903 0.930 . S
C900 C898 1.356 . S
C900 C901 1.348 . S
C901 C896 1.353 . S
C901 C900 1.348 . S
C901 H953 0.929 . S
H902 C896 0.930 . S
H903 C899 0.930 . S
C904 N905 1.314 . S
C904 C906 1.353 . S
C904 H910 0.930 . S
N905 Li881 1.990 . S
N905 C904 1.314 . S
N905 C908 1.279 . S
C906 C904 1.353 . S
C906 C909 1.348 . S
C906 H954 0.929 . S
C907 C908 1.358 . S
C907 C909 1.356 . S
C907 H955 0.930 . S
C908 N905 1.279 . S
C908 C907 1.358 . S
C908 H911 0.930 . S
C909 C906 1.348 . S
C909 C907 1.356 . S
H910 C904 0.930 . S
H911 C908 0.930 . S
C912 C914 1.348 . S
C912 C915 1.356 . S
C912 O942 1.325 . S
N913 C916 1.314 . S
N913 C917 1.279 . S
C914 C912 1.348 . S
C914 C916 1.353 . S
C914 H956 0.929 . S
C915 C912 1.356 . S
C915 C917 1.358 . S
C915 H957 0.930 . S
C916 N913 1.314 . S
C916 C914 1.353 . S
C916 H958 0.930 . S
C917 N913 1.279 . S
C917 C915 1.358 . S
C917 H959 0.930 . S
C918 C919 1.348 . S
C918 C920 1.356 . S
C918 O943 1.325 . S
C919 C918 1.348 . S
C919 C921 1.353 . S
C919 H960 0.929 . S
C920 C918 1.356 . S
C920 C922 1.358 . S
C920 H961 0.930 . S
C921 C919 1.353 . S
C921 N923 1.314 . S
C921 H962 0.930 . S
C922 C920 1.358 . S
C922 N923 1.279 . S
C922 H963 0.930 . S
N923 C921 1.314 . S
N923 C922 1.279 . S
C924 C926 1.353 . S
C924 N927 1.314 . S
C924 H930 0.930 . S
C925 N927 1.279 . S
C925 C928 1.358 . S
C925 H931 0.930 . S
C926 C924 1.353 . S
C926 C929 1.348 . S
C926 H964 0.929 . S
N927 Li882 1.990 . S
N927 C924 1.314 . S
N927 C925 1.279 . S
C928 C925 1.358 . S
C928 C929 1.356 . S
C928 H965 0.930 . S
C929 C926 1.348 . S
C929 C928 1.356 . S
H930 C924 0.930 . S
H931 C925 0.930 . S
C932 N933 1.314 . S
C932 C934 1.353 . S
C932 H938 0.930 . S
N933 Li883 1.990 . S
N933 C932 1.314 . S
N933 C936 1.279 . S
C934 C932 1.353 . S
C934 C937 1.348 . S
C934 H966 0.929 . S
C935 C936 1.358 . S
C935 C937 1.356 . S
C935 H967 0.930 . S
C936 N933 1.279 . S
C936 C935 1.358 . S
C936 H939 0.930 . S
C937 C934 1.348 . S
C937 C935 1.356 . S
H938 C932 0.930 . S
H939 C936 0.930 . S
O940 Li880 1.956 . S
O940 Li881 1.970 . S
O940 Li882 1.961 . S
O940 C884 1.325 . S
O941 Li880 1.970 . S
O941 Li881 1.956 . S
O941 Li883 1.961 . S
O941 C890 1.325 . S
O942 Li880 1.961 . S
O942 Li882 1.956 . S
O942 Li883 1.970 . S
O942 C912 1.325 . S
O943 Li881 1.961 . S
O943 Li882 1.970 . S
O943 Li883 1.956 . S
O943 C918 1.325 . S
H944 C886 0.929 . S
H945 C887 0.930 . S
H946 C888 0.930 . S
H947 C889 0.930 . S
H948 C891 0.930 . S
H949 C893 0.929 . S
H950 C894 0.930 . S
H951 C895 0.930 . S
H952 C898 0.930 . S
H953 C901 0.929 . S
H954 C906 0.929 . S
H955 C907 0.930 . S
H956 C914 0.929 . S
H957 C915 0.930 . S
H958 C916 0.930 . S
H959 C917 0.930 . S
H960 C919 0.929 . S
H961 C920 0.930 . S
H962 C921 0.930 . S
H963 C922 0.930 . S
H964 C926 0.929 . S
H965 C928 0.930 . S
H966 C934 0.929 . S
H967 C935 0.930 . S
Li968 N985 1.990 . S
Li968 O1028 1.956 . S
Li968 O1029 1.970 . S
Li968 O1030 1.961 . S
Li969 N993 1.990 . S
Li969 O1028 1.970 . S
Li969 O1029 1.956 . S
Li969 O1031 1.961 . S
Li970 N1015 1.990 . S
Li970 O1028 1.961 . S
Li970 O1030 1.956 . S
Li970 O1031 1.970 . S
Li971 N1021 1.990 1_554 S
Li971 O1029 1.961 . S
Li971 O1030 1.970 . S
Li971 O1031 1.956 . S
C972 C974 1.348 . S
C972 C975 1.356 . S
C972 O1028 1.325 . S
N973 C976 1.314 . S
N973 C977 1.279 . S
C974 C972 1.348 . S
C974 C976 1.353 . S
C974 H1032 0.929 . S
C975 C972 1.356 . S
C975 C977 1.358 . S
C975 H1033 0.930 . S
C976 N973 1.314 . S
C976 C974 1.353 . S
C976 H1034 0.930 . S
C977 N973 1.279 . S
C977 C975 1.358 . S
C977 H1035 0.930 . S
C978 C981 1.348 . S
C978 C982 1.356 . S
C978 O1029 1.325 . S
C979 N980 1.279 . S
C979 C982 1.358 . S
C979 H1036 0.930 . S
N980 C979 1.279 . S
N980 C983 1.314 . S
C981 C978 1.348 . S
C981 C983 1.353 . S
C981 H1037 0.929 . S
C982 C978 1.356 . S
C982 C979 1.358 . S
C982 H1038 0.930 . S
C983 N980 1.314 . S
C983 C981 1.353 . S
C983 H1039 0.930 . S
C984 N985 1.314 . S
C984 C989 1.353 . S
C984 H990 0.930 . S
N985 Li968 1.990 . S
N985 C984 1.314 . S
N985 C987 1.279 . S
C986 C987 1.358 . S
C986 C988 1.356 . S
C986 H1040 0.930 . S
C987 N985 1.279 . S
C987 C986 1.358 . S
C987 H991 0.930 . S
C988 C986 1.356 . S
C988 C989 1.348 . S
C989 C984 1.353 . S
C989 C988 1.348 . S
C989 H1041 0.929 . S
H990 C984 0.930 . S
H991 C987 0.930 . S
C992 N993 1.314 . S
C992 C994 1.353 . S
C992 H998 0.930 . S
N993 Li969 1.990 . S
N993 C992 1.314 . S
N993 C996 1.279 . S
C994 C992 1.353 . S
C994 C997 1.348 . S
C994 H1042 0.929 . S
C995 C996 1.358 . S
C995 C997 1.356 . S
C995 H1043 0.930 . S
C996 N993 1.279 . S
C996 C995 1.358 . S
C996 H999 0.930 . S
C997 C994 1.348 . S
C997 C995 1.356 . S
H998 C992 0.930 . S
H999 C996 0.930 . S
C1000 C1002 1.348 . S
C1000 C1003 1.356 . S
C1000 O1030 1.325 . S
N1001 C1004 1.314 . S
N1001 C1005 1.279 . S
C1002 C1000 1.348 . S
C1002 C1004 1.353 . S
C1002 H1044 0.929 . S
C1003 C1000 1.356 . S
C1003 C1005 1.358 . S
C1003 H1045 0.930 . S
C1004 N1001 1.314 . S
C1004 C1002 1.353 . S
C1004 H1046 0.930 . S
C1005 N1001 1.279 . S
C1005 C1003 1.358 . S
C1005 H1047 0.930 . S
C1006 C1007 1.348 . S
C1006 C1008 1.356 . S
C1006 O1031 1.325 1_556 S
C1007 C1006 1.348 . S
C1007 C1009 1.353 . S
C1007 H1048 0.929 . S
C1008 C1006 1.356 . S
C1008 C1010 1.358 . S
C1008 H1049 0.930 . S
C1009 C1007 1.353 . S
C1009 N1011 1.314 . S
C1009 H1050 0.930 . S
C1010 C1008 1.358 . S
C1010 N1011 1.279 . S
C1010 H1051 0.930 . S
N1011 C1009 1.314 . S
N1011 C1010 1.279 . S
C1012 C1014 1.353 . S
C1012 N1015 1.314 . S
C1012 H1018 0.930 . S
C1013 N1015 1.279 . S
C1013 C1016 1.358 . S
C1013 H1019 0.930 . S
C1014 C1012 1.353 . S
C1014 C1017 1.348 . S
C1014 H1052 0.929 . S
N1015 Li970 1.990 . S
N1015 C1012 1.314 . S
N1015 C1013 1.279 . S
C1016 C1013 1.358 . S
C1016 C1017 1.356 . S
C1016 H1053 0.930 . S
C1017 C1014 1.348 . S
C1017 C1016 1.356 . S
H1018 C1012 0.930 . S
H1019 C1013 0.930 . S
C1020 N1021 1.314 . S
C1020 C1022 1.353 . S
C1020 H1026 0.930 1_556 S
N1021 Li971 1.990 1_556 S
N1021 C1020 1.314 . S
N1021 C1024 1.279 . S
C1022 C1020 1.353 . S
C1022 C1025 1.348 . S
C1022 H1054 0.929 . S
C1023 C1024 1.358 . S
C1023 C1025 1.356 . S
C1023 H1055 0.930 . S
C1024 N1021 1.279 . S
C1024 C1023 1.358 . S
C1024 H1027 0.930 . S
C1025 C1022 1.348 . S
C1025 C1023 1.356 . S
H1026 C1020 0.930 1_554 S
H1027 C1024 0.930 . S
O1028 Li968 1.956 . S
O1028 Li969 1.970 . S
O1028 Li970 1.961 . S
O1028 C972 1.325 . S
O1029 Li968 1.970 . S
O1029 Li969 1.956 . S
O1029 Li971 1.961 . S
O1029 C978 1.325 . S
O1030 Li968 1.961 . S
O1030 Li970 1.956 . S
O1030 Li971 1.970 . S
O1030 C1000 1.325 . S
O1031 Li969 1.961 . S
O1031 Li970 1.970 . S
O1031 Li971 1.956 . S
O1031 C1006 1.325 1_554 S
H1032 C974 0.929 . S
H1033 C975 0.930 . S
H1034 C976 0.930 . S
H1035 C977 0.930 . S
H1036 C979 0.930 . S
H1037 C981 0.929 . S
H1038 C982 0.930 . S
H1039 C983 0.930 . S
H1040 C986 0.930 . S
H1041 C989 0.929 . S
H1042 C994 0.929 . S
H1043 C995 0.930 . S
H1044 C1002 0.929 . S
H1045 C1003 0.930 . S
H1046 C1004 0.930 . S
H1047 C1005 0.930 . S
H1048 C1007 0.929 . S
H1049 C1008 0.930 . S
H1050 C1009 0.930 . S
H1051 C1010 0.930 . S
H1052 C1014 0.929 . S
H1053 C1016 0.930 . S
H1054 C1022 0.929 . S
H1055 C1023 0.930 . S
H1056 C1064 0.929 . S
H1057 C1066 0.930 . S
H1058 C1068 0.930 . S
H1059 C1071 0.929 . S
H1060 C1074 0.930 . S
H1061 C1076 0.960 . S
H1062 C1076 0.960 . S
H1063 C1076 0.960 . S
C1064 H1056 0.929 . S
C1064 C1065 1.377 . S
C1064 C1066 1.384 . S
C1065 C1064 1.377 . S
C1065 C1071 1.390 . S
C1066 H1057 0.930 . S
C1066 C1064 1.384 . S
C1066 C1067 1.372 . S
C1067 C1066 1.372 . S
C1067 C1068 1.400 . S
C1067 C1072 1.490 . S
C1068 H1058 0.930 . S
C1068 C1067 1.400 . S
C1068 C1071 1.386 . S
H1069 C1085 0.930 . S
H1070 C1086 0.931 . S
C1071 H1059 0.929 . S
C1071 C1065 1.390 . S
C1071 C1068 1.386 . S
C1072 C1067 1.490 . S
C1072 C1074 1.395 . S
C1072 C1075 1.403 . S
H1073 C1079 0.930 . S
C1074 H1060 0.930 . S
C1074 C1072 1.395 . S
C1074 C1077 1.403 . S
C1075 C1072 1.403 . S
C1075 C1076 1.524 . S
C1075 C1079 1.400 . S
C1076 H1061 0.960 . S
C1076 H1062 0.960 . S
C1076 H1063 0.960 . S
C1076 C1075 1.524 . S
C1077 C1074 1.403 . S
C1077 C1078 1.392 . S
C1077 C1081 1.495 . S
C1078 C1077 1.392 . S
C1078 C1079 1.385 . S
C1078 C1080 1.478 . S
C1079 H1073 0.930 . S
C1079 C1075 1.400 . S
C1079 C1078 1.385 . S
C1080 C1078 1.478 . S
C1080 C1082 1.381 . S
C1080 C1086 1.383 . S
C1081 C1077 1.495 . S
C1081 H1087 0.959 . S
C1081 H1088 0.961 . S
C1081 H1089 0.960 . S
C1082 C1080 1.381 . S
C1082 C1083 1.394 . S
C1082 H1090 0.930 . S
C1083 C1082 1.394 . S
C1083 C1084 1.383 . S
C1083 H1091 0.929 . S
C1084 C1083 1.383 . S
C1084 C1085 1.377 . S
C1085 H1069 0.930 . S
C1085 C1084 1.377 . S
C1085 C1086 1.379 . S
C1086 H1070 0.931 . S
C1086 C1080 1.383 . S
C1086 C1085 1.379 . S
H1087 C1081 0.959 . S
H1088 C1081 0.961 . S
H1089 C1081 0.960 . S
H1090 C1082 0.930 . S
H1091 C1083 0.929 . S
H1092 C1100 0.929 . S
H1093 C1102 0.930 . S
H1094 C1104 0.930 . S
H1095 C1107 0.929 . S
H1096 C1110 0.930 . S
H1097 C1112 0.939 1_455 S
H1098 C1112 0.960 . S
H1099 C1112 0.960 . S
C1100 H1092 0.929 . S
C1100 C1101 1.377 . S
C1100 C1102 1.384 . S
C1101 C1100 1.377 . S
C1101 C1107 1.390 . S
C1102 H1093 0.930 . S
C1102 C1100 1.384 . S
C1102 C1103 1.372 . S
C1103 C1102 1.372 . S
C1103 C1104 1.400 . S
C1103 C1108 1.490 . S
C1104 H1094 0.930 . S
C1104 C1103 1.400 . S
C1104 C1107 1.386 . S
H1105 C1121 0.930 . S
H1106 C1122 0.931 . S
C1107 H1095 0.929 . S
C1107 C1101 1.390 . S
C1107 C1104 1.386 . S
C1108 C1103 1.490 . S
C1108 C1110 1.395 . S
C1108 C1111 1.403 . S
H1109 C1115 0.930 . S
C1110 H1096 0.930 . S
C1110 C1108 1.395 . S
C1110 C1113 1.403 1_655 S
C1111 C1108 1.403 . S
C1111 C1112 1.524 . S
C1111 C1115 1.400 1_655 S
C1112 H1097 0.939 1_655 S
C1112 H1098 0.960 . S
C1112 H1099 0.960 . S
C1112 C1111 1.524 . S
C1113 C1110 1.403 1_455 S
C1113 C1114 1.392 . S
C1113 C1117 1.495 . S
C1114 C1113 1.392 . S
C1114 C1115 1.385 . S
C1114 C1116 1.478 . S
C1115 H1109 0.930 . S
C1115 C1111 1.400 1_455 S
C1115 C1114 1.385 . S
C1116 C1114 1.478 . S
C1116 C1118 1.381 . S
C1116 C1122 1.383 . S
C1117 C1113 1.495 . S
C1117 H1123 0.973 . S
C1117 H1124 0.961 . S
C1117 H1125 0.960 . S
C1118 C1116 1.381 . S
C1118 C1119 1.394 . S
C1118 H1126 0.930 . S
C1119 C1118 1.394 . S
C1119 C1120 1.383 . S
C1119 H1127 0.929 . S
C1120 C1119 1.383 . S
C1120 C1121 1.377 . S
C1121 H1105 0.930 . S
C1121 C1120 1.377 . S
C1121 C1122 1.379 . S
C1122 H1106 0.931 . S
C1122 C1116 1.383 . S
C1122 C1121 1.379 . S
H1123 C1117 0.973 . S
H1124 C1117 0.961 . S
H1125 C1117 0.960 . S
H1126 C1118 0.930 . S
H1127 C1119 0.929 . S
H1128 C1136 0.929 . S
H1129 C1138 0.930 . S
H1130 C1140 0.930 1_554 S
H1131 C1143 0.929 . S
H1132 C1146 0.930 . S
H1133 C1148 0.960 . S
H1134 C1148 0.960 . S
H1135 C1148 0.960 . S
C1136 H1128 0.929 . S
C1136 C1137 1.377 . S
C1136 C1138 1.384 . S
C1137 C1136 1.377 . S
C1137 C1143 1.390 . S
C1138 H1129 0.930 . S
C1138 C1136 1.384 . S
C1138 C1139 1.372 . S
C1139 C1138 1.372 . S
C1139 C1140 1.400 . S
C1139 C1144 1.490 . S
C1140 H1130 0.930 1_556 S
C1140 C1139 1.400 . S
C1140 C1143 1.386 . S
H1141 C1157 0.930 . S
H1142 C1158 0.931 . S
C1143 H1131 0.929 . S
C1143 C1137 1.390 . S
C1143 C1140 1.386 . S
C1144 C1139 1.490 . S
C1144 C1146 1.395 . S
C1144 C1147 1.403 1_556 S
H1145 C1151 0.930 . S
C1146 H1132 0.930 . S
C1146 C1144 1.395 . S
C1146 C1149 1.403 1_565 S
C1147 C1144 1.403 1_554 S
C1147 C1148 1.524 . S
C1147 C1151 1.400 1_565 S
C1148 H1133 0.960 . S
C1148 H1134 0.960 . S
C1148 H1135 0.960 . S
C1148 C1147 1.524 . S
C1149 C1146 1.403 1_545 S
C1149 C1150 1.392 1_556 S
C1149 C1153 1.495 . S
C1150 C1149 1.392 1_554 S
C1150 C1151 1.385 . S
C1150 C1152 1.478 . S
C1151 H1145 0.930 . S
C1151 C1147 1.400 1_545 S
C1151 C1150 1.385 . S
C1152 C1150 1.478 . S
C1152 C1154 1.381 . S
C1152 C1158 1.383 . S
C1153 C1149 1.495 . S
C1153 H1159 0.959 . S
C1153 H1160 0.961 . S
C1153 H1161 0.960 . S
C1154 C1152 1.381 . S
C1154 C1155 1.394 . S
C1154 H1162 0.930 1_554 S
C1155 C1154 1.394 . S
C1155 C1156 1.383 . S
C1155 H1163 0.929 . S
C1156 C1155 1.383 . S
C1156 C1157 1.377 . S
C1157 H1141 0.930 . S
C1157 C1156 1.377 . S
C1157 C1158 1.379 . S
C1158 H1142 0.931 . S
C1158 C1152 1.383 . S
C1158 C1157 1.379 . S
H1159 C1153 0.959 . S
H1160 C1153 0.961 . S
H1161 C1153 0.960 . S
H1162 C1154 0.930 1_556 S
H1163 C1155 0.929 . S
H1164 C1172 0.929 . S
H1165 C1174 0.930 . S
H1166 C1176 0.930 . S
H1167 C1179 0.929 . S
H1168 C1182 0.930 . S
H1169 C1184 0.960 . S
H1170 C1184 0.960 . S
H1171 C1184 0.960 . S
C1172 H1164 0.929 . S
C1172 C1173 1.377 . S
C1172 C1174 1.384 . S
C1173 C1172 1.377 . S
C1173 C1179 1.390 . S
C1174 H1165 0.930 . S
C1174 C1172 1.384 . S
C1174 C1175 1.372 . S
C1175 C1174 1.372 . S
C1175 C1176 1.400 . S
C1175 C1180 1.490 . S
C1176 H1166 0.930 . S
C1176 C1175 1.400 . S
C1176 C1179 1.386 . S
H1177 C1193 0.930 . S
H1178 C1194 0.931 . S
C1179 H1167 0.929 . S
C1179 C1173 1.390 . S
C1179 C1176 1.386 . S
C1180 C1175 1.490 . S
C1180 C1182 1.395 . S
C1180 C1183 1.403 . S
H1181 C1187 0.930 . S
C1182 H1168 0.930 . S
C1182 C1180 1.395 . S
C1182 C1185 1.403 . S
C1183 C1180 1.403 . S
C1183 C1184 1.524 . S
C1183 C1187 1.400 . S
C1184 H1169 0.960 . S
C1184 H1170 0.960 . S
C1184 H1171 0.960 . S
C1184 C1183 1.524 . S
C1185 C1182 1.403 . S
C1185 C1186 1.392 . S
C1185 C1189 1.495 . S
C1186 C1185 1.392 . S
C1186 C1187 1.385 . S
C1186 C1188 1.478 . S
C1187 H1181 0.930 . S
C1187 C1183 1.400 . S
C1187 C1186 1.385 . S
C1188 C1186 1.478 . S
C1188 C1190 1.381 . S
C1188 C1194 1.383 . S
C1189 C1185 1.495 . S
C1189 H1195 0.959 . S
C1189 H1196 0.961 . S
C1189 H1197 0.960 . S
C1190 C1188 1.381 . S
C1190 C1191 1.394 . S
C1190 H1198 0.930 . S
C1191 C1190 1.394 . S
C1191 C1192 1.383 . S
C1191 H1199 0.929 . S
C1192 C1191 1.383 . S
C1192 C1193 1.377 . S
C1193 H1177 0.930 . S
C1193 C1192 1.377 . S
C1193 C1194 1.379 . S
C1194 H1178 0.931 . S
C1194 C1188 1.383 . S
C1194 C1193 1.379 . S
H1195 C1189 0.959 . S
H1196 C1189 0.961 . S
H1197 C1189 0.960 . S
H1198 C1190 0.930 . S
H1199 C1191 0.929 . S
H1200 C1208 0.929 . S
H1201 C1210 0.930 . S
H1202 C1212 0.930 . S
H1203 C1215 0.929 . S
H1204 C1218 0.930 . S
H1205 C1220 0.960 . S
H1206 C1220 0.960 . S
H1207 C1220 0.960 . S
C1208 H1200 0.929 . S
C1208 C1209 1.377 . S
C1208 C1210 1.384 . S
C1209 C1208 1.377 . S
C1209 C1215 1.390 . S
C1210 H1201 0.930 . S
C1210 C1208 1.384 . S
C1210 C1211 1.372 . S
C1211 C1210 1.372 . S
C1211 C1212 1.400 . S
C1211 C1216 1.490 . S
C1212 H1202 0.930 . S
C1212 C1211 1.400 . S
C1212 C1215 1.386 . S
H1213 C1229 0.930 . S
H1214 C1230 0.931 . S
C1215 H1203 0.929 . S
C1215 C1209 1.390 . S
C1215 C1212 1.386 . S
C1216 C1211 1.490 . S
C1216 C1218 1.395 . S
C1216 C1219 1.403 . S
H1217 C1223 0.930 . S
C1218 H1204 0.930 . S
C1218 C1216 1.395 . S
C1218 C1221 1.403 1_655 S
C1219 C1216 1.403 . S
C1219 C1220 1.524 . S
C1219 C1223 1.400 1_655 S
C1220 H1205 0.960 . S
C1220 H1206 0.960 . S
C1220 H1207 0.960 . S
C1220 C1219 1.524 . S
C1221 C1218 1.403 1_455 S
C1221 C1222 1.392 . S
C1221 C1225 1.495 . S
C1222 C1221 1.392 . S
C1222 C1223 1.385 . S
C1222 C1224 1.478 . S
C1223 H1217 0.930 . S
C1223 C1219 1.400 1_455 S
C1223 C1222 1.385 . S
C1224 C1222 1.478 . S
C1224 C1226 1.381 . S
C1224 C1230 1.383 . S
C1225 C1221 1.495 . S
C1225 H1231 0.959 . S
C1225 H1232 0.961 . S
C1225 H1233 0.960 . S
C1226 C1224 1.381 . S
C1226 C1227 1.394 . S
C1226 H1234 0.930 . S
C1227 C1226 1.394 . S
C1227 C1228 1.383 . S
C1227 H1235 0.929 . S
C1228 C1227 1.383 . S
C1228 C1229 1.377 . S
C1229 H1213 0.930 . S
C1229 C1228 1.377 . S
C1229 C1230 1.379 . S
C1230 H1214 0.931 . S
C1230 C1224 1.383 . S
C1230 C1229 1.379 . S
H1231 C1225 0.959 . S
H1232 C1225 0.961 . S
H1233 C1225 0.960 . S
H1234 C1226 0.930 . S
H1235 C1227 0.929 . S
H1236 C1244 0.929 . S
H1237 C1246 0.930 1_556 S
H1238 C1248 0.930 . S
H1239 C1251 0.929 . S
H1240 C1254 0.930 . S
H1241 C1256 0.960 1_545 S
H1242 C1256 0.960 . S
H1243 C1256 0.960 . S
C1244 H1236 0.929 . S
C1244 C1245 1.377 . S
C1244 C1246 1.384 . S
C1245 C1244 1.377 . S
C1245 C1251 1.390 . S
C1246 H1237 0.930 1_554 S
C1246 C1244 1.384 . S
C1246 C1247 1.372 . S
C1247 C1246 1.372 . S
C1247 C1248 1.400 . S
C1247 C1252 1.490 . S
C1248 H1238 0.930 . S
C1248 C1247 1.400 . S
C1248 C1251 1.386 . S
H1249 C1265 0.930 . S
H1250 C1266 0.931 . S
C1251 H1239 0.929 . S
C1251 C1245 1.390 . S
C1251 C1248 1.386 . S
C1252 C1247 1.490 . S
C1252 C1254 1.395 1_554 S
C1252 C1255 1.403 . S
H1253 C1259 0.930 . S
C1254 H1240 0.930 . S
C1254 C1252 1.395 1_556 S
C1254 C1257 1.403 1_565 S
C1255 C1252 1.403 . S
C1255 C1256 1.524 . S
C1255 C1259 1.400 1_565 S
C1256 H1241 0.960 1_565 S
C1256 H1242 0.960 . S
C1256 H1243 0.960 . S
C1256 C1255 1.524 . S
C1257 C1254 1.403 1_545 S
C1257 C1258 1.392 . S
C1257 C1261 1.495 . S
C1258 C1257 1.392 . S
C1258 C1259 1.385 1_556 S
C1258 C1260 1.478 . S
C1259 H1253 0.930 . S
C1259 C1255 1.400 1_545 S
C1259 C1258 1.385 1_554 S
C1260 C1258 1.478 . S
C1260 C1262 1.381 . S
C1260 C1266 1.383 . S
C1261 C1257 1.495 . S
C1261 H1267 0.959 1_545 S
C1261 H1268 0.961 . S
C1261 H1269 0.960 . S
C1262 C1260 1.381 . S
C1262 C1263 1.394 . S
C1262 H1270 0.930 . S
C1263 C1262 1.394 . S
C1263 C1264 1.383 . S
C1263 H1271 0.929 . S
C1264 C1263 1.383 . S
C1264 C1265 1.377 . S
C1265 H1249 0.930 . S
C1265 C1264 1.377 . S
C1265 C1266 1.379 . S
C1266 H1250 0.931 . S
C1266 C1260 1.383 . S
C1266 C1265 1.379 . S
H1267 C1261 0.959 1_565 S
H1268 C1261 0.961 . S
H1269 C1261 0.960 . S
H1270 C1262 0.930 . S
H1271 C1263 0.929 . S
H1272 C1280 0.929 . S
H1273 C1282 0.930 . S
H1274 C1284 0.930 . S
H1275 C1287 0.929 . S
H1276 C1290 0.930 . S
H1277 C1292 0.940 1_554 S
H1278 C1292 0.976 . S
H1279 C1292 0.963 . S
C1280 H1272 0.929 . S
C1280 C1281 1.377 . S
C1280 C1282 1.384 . S
C1281 C1280 1.377 . S
C1281 C1287 1.390 . S
C1282 H1273 0.930 . S
C1282 C1280 1.384 . S
C1282 C1283 1.372 . S
C1283 C1282 1.372 . S
C1283 C1284 1.400 . S
C1283 C1288 1.490 . S
C1284 H1274 0.930 . S
C1284 C1283 1.400 . S
C1284 C1287 1.386 . S
H1285 C1301 0.930 . S
H1286 C1302 0.931 . S
C1287 H1275 0.929 . S
C1287 C1281 1.390 . S
C1287 C1284 1.386 . S
C1288 C1283 1.490 . S
C1288 C1290 1.395 . S
C1288 C1291 1.403 . S
H1289 C1295 0.930 . S
C1290 H1276 0.930 . S
C1290 C1288 1.395 . S
C1290 C1293 1.403 . S
C1291 C1288 1.403 . S
C1291 C1292 1.525 . S
C1291 C1295 1.400 1_556 S
C1292 H1277 0.940 1_556 S
C1292 H1278 0.976 . S
C1292 H1279 0.963 . S
C1292 C1291 1.525 . S
C1293 C1290 1.403 . S
C1293 C1294 1.392 1_556 S
C1293 C1297 1.495 . S
C1294 C1293 1.392 1_554 S
C1294 C1295 1.385 . S
C1294 C1296 1.478 . S
C1295 H1289 0.930 . S
C1295 C1291 1.400 1_554 S
C1295 C1294 1.385 . S
C1296 C1294 1.478 . S
C1296 C1298 1.381 . S
C1296 C1302 1.383 . S
C1297 C1293 1.495 . S
C1297 H1303 0.959 . S
C1297 H1304 0.961 1_556 S
C1297 H1305 0.961 . S
C1298 C1296 1.381 . S
C1298 C1299 1.394 . S
C1298 H1306 0.930 . S
C1299 C1298 1.394 . S
C1299 C1300 1.383 . S
C1299 H1307 0.929 . S
C1300 C1299 1.383 . S
C1300 C1301 1.377 . S
C1301 H1285 0.930 . S
C1301 C1300 1.377 . S
C1301 C1302 1.379 . S
C1302 H1286 0.931 . S
C1302 C1296 1.383 . S
C1302 C1301 1.379 . S
H1303 C1297 0.959 . S
H1304 C1297 0.961 1_554 S
H1305 C1297 0.961 . S
H1306 C1298 0.930 . S
H1307 C1299 0.929 . S
H1308 C1316 0.929 . S
H1309 C1318 0.930 . S
H1310 C1320 0.930 . S
H1311 C1323 0.929 . S
H1312 C1326 0.930 . S
H1313 C1328 0.960 . S
H1314 C1328 0.960 . S
H1315 C1328 0.960 . S
C1316 H1308 0.929 . S
C1316 C1317 1.377 . S
C1316 C1318 1.384 . S
C1317 C1316 1.377 . S
C1317 C1323 1.390 . S
C1318 H1309 0.930 . S
C1318 C1316 1.384 . S
C1318 C1319 1.372 . S
C1319 C1318 1.372 . S
C1319 C1320 1.400 . S
C1319 C1324 1.490 . S
C1320 H1310 0.930 . S
C1320 C1319 1.400 . S
C1320 C1323 1.386 . S
H1321 C1337 0.930 . S
H1322 C1338 0.931 . S
C1323 H1311 0.929 . S
C1323 C1317 1.390 . S
C1323 C1320 1.386 . S
C1324 C1319 1.490 . S
C1324 C1326 1.395 . S
C1324 C1327 1.403 . S
H1325 C1331 0.930 . S
C1326 H1312 0.930 . S
C1326 C1324 1.395 . S
C1326 C1329 1.403 . S
C1327 C1324 1.403 . S
C1327 C1328 1.524 . S
C1327 C1331 1.400 . S
C1328 H1313 0.960 . S
C1328 H1314 0.960 . S
C1328 H1315 0.960 . S
C1328 C1327 1.524 . S
C1329 C1326 1.403 . S
C1329 C1330 1.392 . S
C1329 C1333 1.495 . S
C1330 C1329 1.392 . S
C1330 C1331 1.385 . S
C1330 C1332 1.478 . S
C1331 H1325 0.930 . S
C1331 C1327 1.400 . S
C1331 C1330 1.385 . S
C1332 C1330 1.478 . S
C1332 C1334 1.381 . S
C1332 C1338 1.383 . S
C1333 C1329 1.495 . S
C1333 H1339 0.959 . S
C1333 H1340 0.961 . S
C1333 H1341 0.960 . S
C1334 C1332 1.381 . S
C1334 C1335 1.394 . S
C1334 H1342 0.930 . S
C1335 C1334 1.394 . S
C1335 C1336 1.383 . S
C1335 H1343 0.929 . S
C1336 C1335 1.383 . S
C1336 C1337 1.377 . S
C1337 H1321 0.930 . S
C1337 C1336 1.377 . S
C1337 C1338 1.379 . S
C1338 H1322 0.931 . S
C1338 C1332 1.383 . S
C1338 C1337 1.379 . S
H1339 C1333 0.959 . S
H1340 C1333 0.961 . S
H1341 C1333 0.960 . S
H1342 C1334 0.930 . S
H1343 C1335 0.929 . S
H1344 C1352 0.929 . S
H1345 C1354 0.930 . S
H1346 C1356 0.930 . S
H1347 C1359 0.929 . S
H1348 C1362 0.930 . S
H1349 C1364 0.960 . S
H1350 C1364 0.960 . S
H1351 C1364 0.960 . S
C1352 H1344 0.929 . S
C1352 C1353 1.377 . S
C1352 C1354 1.384 . S
C1353 C1352 1.377 . S
C1353 C1359 1.390 . S
C1354 H1345 0.930 . S
C1354 C1352 1.384 . S
C1354 C1355 1.372 . S
C1355 C1354 1.372 . S
C1355 C1356 1.400 . S
C1355 C1360 1.490 . S
C1356 H1346 0.930 . S
C1356 C1355 1.400 . S
C1356 C1359 1.386 . S
H1357 C1373 0.930 . S
H1358 C1374 0.931 . S
C1359 H1347 0.929 . S
C1359 C1353 1.390 . S
C1359 C1356 1.386 . S
C1360 C1355 1.490 . S
C1360 C1362 1.395 . S
C1360 C1363 1.403 . S
H1361 C1367 0.930 . S
C1362 H1348 0.930 . S
C1362 C1360 1.395 . S
C1362 C1365 1.403 . S
C1363 C1360 1.403 . S
C1363 C1364 1.524 . S
C1363 C1367 1.400 . S
C1364 H1349 0.960 . S
C1364 H1350 0.960 . S
C1364 H1351 0.960 . S
C1364 C1363 1.524 . S
C1365 C1362 1.403 . S
C1365 C1366 1.392 . S
C1365 C1369 1.495 . S
C1366 C1365 1.392 . S
C1366 C1367 1.385 . S
C1366 C1368 1.478 . S
C1367 H1361 0.930 . S
C1367 C1363 1.400 . S
C1367 C1366 1.385 . S
C1368 C1366 1.478 . S
C1368 C1370 1.381 . S
C1368 C1374 1.383 . S
C1369 C1365 1.495 . S
C1369 H1375 0.959 . S
C1369 H1376 0.961 . S
C1369 H1377 0.960 . S
C1370 C1368 1.381 . S
C1370 C1371 1.394 . S
C1370 H1378 0.930 . S
C1371 C1370 1.394 . S
C1371 C1372 1.383 . S
C1371 H1379 0.929 . S
C1372 C1371 1.383 . S
C1372 C1373 1.377 . S
C1373 H1357 0.930 . S
C1373 C1372 1.377 . S
C1373 C1374 1.379 . S
C1374 H1358 0.931 . S
C1374 C1368 1.383 . S
C1374 C1373 1.379 . S
H1375 C1369 0.959 . S
H1376 C1369 0.961 . S
H1377 C1369 0.960 . S
H1378 C1370 0.930 . S
H1379 C1371 0.929 . S
H1380 C1388 0.929 . S
H1381 C1390 0.930 . S
H1382 C1392 0.930 . S
H1383 C1395 0.929 . S
H1384 C1398 0.930 . S
H1385 C1400 0.960 . S
H1386 C1400 0.960 . S
H1387 C1400 0.960 . S
C1388 H1380 0.929 . S
C1388 C1389 1.377 . S
C1388 C1390 1.384 . S
C1389 C1388 1.377 . S
C1389 C1395 1.390 . S
C1390 H1381 0.930 . S
C1390 C1388 1.384 . S
C1390 C1391 1.372 . S
C1391 C1390 1.372 . S
C1391 C1392 1.400 . S
C1391 C1396 1.490 . S
C1392 H1382 0.930 . S
C1392 C1391 1.400 . S
C1392 C1395 1.386 . S
H1393 C1409 0.930 . S
H1394 C1410 0.931 . S
C1395 H1383 0.929 . S
C1395 C1389 1.390 . S
C1395 C1392 1.386 . S
C1396 C1391 1.490 . S
C1396 C1398 1.395 . S
C1396 C1399 1.403 . S
H1397 C1403 0.930 . S
C1398 H1384 0.930 . S
C1398 C1396 1.395 . S
C1398 C1401 1.403 1_554 S
C1399 C1396 1.403 . S
C1399 C1400 1.524 . S
C1399 C1403 1.400 1_554 S
C1400 H1385 0.960 . S
C1400 H1386 0.960 . S
C1400 H1387 0.960 . S
C1400 C1399 1.524 . S
C1401 C1398 1.403 1_556 S
C1401 C1402 1.392 . S
C1401 C1405 1.495 . S
C1402 C1401 1.392 . S
C1402 C1403 1.385 . S
C1402 C1404 1.478 . S
C1403 H1397 0.930 . S
C1403 C1399 1.400 1_556 S
C1403 C1402 1.385 . S
C1404 C1402 1.478 . S
C1404 C1406 1.381 . S
C1404 C1410 1.383 . S
C1405 C1401 1.495 . S
C1405 H1411 0.959 . S
C1405 H1412 0.961 . S
C1405 H1413 0.960 . S
C1406 C1404 1.381 . S
C1406 C1407 1.394 . S
C1406 H1414 0.930 . S
C1407 C1406 1.394 . S
C1407 C1408 1.383 . S
C1407 H1415 0.929 . S
C1408 C1407 1.383 . S
C1408 C1409 1.377 . S
C1409 H1393 0.930 . S
C1409 C1408 1.377 . S
C1409 C1410 1.379 . S
C1410 H1394 0.931 . S
C1410 C1404 1.383 . S
C1410 C1409 1.379 . S
H1411 C1405 0.959 . S
H1412 C1405 0.961 . S
H1413 C1405 0.960 . S
H1414 C1406 0.930 . S
H1415 C1407 0.929 . S
H1416 C1424 0.929 . S
H1417 C1426 0.930 . S
H1418 C1428 0.930 . S
H1419 C1431 0.929 . S
H1420 C1434 0.930 . S
H1421 C1436 0.960 . S
H1422 C1436 0.960 . S
H1423 C1436 0.960 . S
C1424 H1416 0.929 . S
C1424 C1425 1.377 . S
C1424 C1426 1.384 . S
C1425 C1424 1.377 . S
C1425 C1431 1.390 . S
C1426 H1417 0.930 . S
C1426 C1424 1.384 . S
C1426 C1427 1.372 . S
C1427 C1426 1.372 . S
C1427 C1428 1.400 . S
C1427 C1432 1.490 . S
C1428 H1418 0.930 . S
C1428 C1427 1.400 . S
C1428 C1431 1.386 . S
H1429 C1445 0.930 . S
H1430 C1446 0.931 . S
C1431 H1419 0.929 . S
C1431 C1425 1.390 . S
C1431 C1428 1.386 . S
C1432 C1427 1.490 . S
C1432 C1434 1.395 . S
C1432 C1435 1.403 . S
H1433 C1439 0.930 . S
C1434 H1420 0.930 . S
C1434 C1432 1.395 . S
C1434 C1437 1.403 . S
C1435 C1432 1.403 . S
C1435 C1436 1.524 . S
C1435 C1439 1.400 . S
C1436 H1421 0.960 . S
C1436 H1422 0.960 . S
C1436 H1423 0.960 . S
C1436 C1435 1.524 . S
C1437 C1434 1.403 . S
C1437 C1438 1.392 . S
C1437 C1441 1.495 . S
C1438 C1437 1.392 . S
C1438 C1439 1.385 . S
C1438 C1440 1.478 . S
C1439 H1433 0.930 . S
C1439 C1435 1.400 . S
C1439 C1438 1.385 . S
C1440 C1438 1.478 . S
C1440 C1442 1.381 . S
C1440 C1446 1.383 . S
C1441 C1437 1.495 . S
C1441 H1447 0.959 . S
C1441 H1448 0.961 . S
C1441 H1449 0.960 . S
C1442 C1440 1.381 . S
C1442 C1443 1.394 . S
C1442 H1450 0.930 . S
C1443 C1442 1.394 . S
C1443 C1444 1.383 . S
C1443 H1451 0.929 . S
C1444 C1443 1.383 . S
C1444 C1445 1.377 . S
C1445 H1429 0.930 . S
C1445 C1444 1.377 . S
C1445 C1446 1.379 . S
C1446 H1430 0.931 . S
C1446 C1440 1.383 . S
C1446 C1445 1.379 . S
H1447 C1441 0.959 . S
H1448 C1441 0.961 . S
H1449 C1441 0.960 . S
H1450 C1442 0.930 . S
H1451 C1443 0.929 . S
H1452 C1460 0.929 . S
H1453 C1462 0.930 . S
H1454 C1464 0.930 . S
H1455 C1467 0.929 . S
H1456 C1470 0.930 . S
H1457 C1472 0.960 . S
H1458 C1472 0.960 . S
H1459 C1472 0.960 . S
C1460 H1452 0.929 . S
C1460 C1461 1.377 . S
C1460 C1462 1.384 . S
C1461 C1460 1.377 . S
C1461 C1467 1.390 . S
C1462 H1453 0.930 . S
C1462 C1460 1.384 . S
C1462 C1463 1.372 . S
C1463 C1462 1.372 . S
C1463 C1464 1.400 . S
C1463 C1468 1.490 . S
C1464 H1454 0.930 . S
C1464 C1463 1.400 . S
C1464 C1467 1.386 . S
H1465 C1481 0.930 . S
H1466 C1482 0.931 . S
C1467 H1455 0.929 . S
C1467 C1461 1.390 . S
C1467 C1464 1.386 . S
C1468 C1463 1.490 . S
C1468 C1470 1.395 . S
C1468 C1471 1.403 . S
H1469 C1475 0.930 . S
C1470 H1456 0.930 . S
C1470 C1468 1.395 . S
C1470 C1473 1.403 . S
C1471 C1468 1.403 . S
C1471 C1472 1.524 . S
C1471 C1475 1.400 . S
C1472 H1457 0.960 . S
C1472 H1458 0.960 . S
C1472 H1459 0.960 . S
C1472 C1471 1.524 . S
C1473 C1470 1.403 . S
C1473 C1474 1.392 . S
C1473 C1477 1.495 . S
C1474 C1473 1.392 . S
C1474 C1475 1.385 . S
C1474 C1476 1.478 . S
C1475 H1469 0.930 . S
C1475 C1471 1.400 . S
C1475 C1474 1.385 . S
C1476 C1474 1.478 . S
C1476 C1478 1.381 . S
C1476 C1482 1.383 . S
C1477 C1473 1.495 . S
C1477 H1483 0.959 . S
C1477 H1484 0.961 . S
C1477 H1485 0.960 . S
C1478 C1476 1.381 . S
C1478 C1479 1.394 . S
C1478 H1486 0.930 . S
C1479 C1478 1.394 . S
C1479 C1480 1.383 . S
C1479 H1487 0.929 . S
C1480 C1479 1.383 . S
C1480 C1481 1.377 . S
C1481 H1465 0.930 . S
C1481 C1480 1.377 . S
C1481 C1482 1.379 . S
C1482 H1466 0.931 . S
C1482 C1476 1.383 . S
C1482 C1481 1.379 . S
H1483 C1477 0.959 . S
H1484 C1477 0.961 . S
H1485 C1477 0.960 . S
H1486 C1478 0.930 . S
H1487 C1479 0.929 . S
H1488 C1496 0.929 . S
H1489 C1498 0.930 . S
H1490 C1500 0.930 . S
H1491 C1503 0.929 . S
H1492 C1506 0.930 . S
H1493 C1508 0.960 . S
H1494 C1508 0.960 . S
H1495 C1508 0.960 . S
C1496 H1488 0.929 . S
C1496 C1497 1.377 . S
C1496 C1498 1.384 . S
C1497 C1496 1.377 . S
C1497 C1503 1.390 . S
C1498 H1489 0.930 . S
C1498 C1496 1.384 . S
C1498 C1499 1.372 . S
C1499 C1498 1.372 . S
C1499 C1500 1.400 . S
C1499 C1504 1.490 . S
C1500 H1490 0.930 . S
C1500 C1499 1.400 . S
C1500 C1503 1.386 . S
H1501 C1517 0.930 . S
H1502 C1518 0.931 . S
C1503 H1491 0.929 . S
C1503 C1497 1.390 . S
C1503 C1500 1.386 . S
C1504 C1499 1.490 . S
C1504 C1506 1.395 . S
C1504 C1507 1.403 . S
H1505 C1511 0.930 . S
C1506 H1492 0.930 . S
C1506 C1504 1.395 . S
C1506 C1509 1.403 . S
C1507 C1504 1.403 . S
C1507 C1508 1.524 . S
C1507 C1511 1.400 . S
C1508 H1493 0.960 . S
C1508 H1494 0.960 . S
C1508 H1495 0.960 . S
C1508 C1507 1.524 . S
C1509 C1506 1.403 . S
C1509 C1510 1.392 . S
C1509 C1513 1.495 . S
C1510 C1509 1.392 . S
C1510 C1511 1.385 . S
C1510 C1512 1.478 . S
C1511 H1505 0.930 . S
C1511 C1507 1.400 . S
C1511 C1510 1.385 . S
C1512 C1510 1.478 . S
C1512 C1514 1.381 . S
C1512 C1518 1.383 . S
C1513 C1509 1.495 . S
C1513 H1519 0.959 . S
C1513 H1520 0.961 . S
C1513 H1521 0.960 . S
C1514 C1512 1.381 . S
C1514 C1515 1.394 . S
C1514 H1522 0.930 . S
C1515 C1514 1.394 . S
C1515 C1516 1.383 . S
C1515 H1523 0.929 . S
C1516 C1515 1.383 . S
C1516 C1517 1.377 . S
C1517 H1501 0.930 . S
C1517 C1516 1.377 . S
C1517 C1518 1.379 . S
C1518 H1502 0.931 . S
C1518 C1512 1.383 . S
C1518 C1517 1.379 . S
H1519 C1513 0.959 . S
H1520 C1513 0.961 . S
H1521 C1513 0.960 . S
H1522 C1514 0.930 . S
H1523 C1515 0.929 . S
H1524 C1532 0.929 . S
H1525 C1534 0.930 . S
H1526 C1536 0.930 . S
H1527 C1539 0.929 . S
H1528 C1542 0.930 . S
H1529 C1544 0.960 . S
H1530 C1544 0.960 . S
H1531 C1544 0.960 . S
C1532 H1524 0.929 . S
C1532 C1533 1.377 . S
C1532 C1534 1.384 . S
C1533 C1532 1.377 . S
C1533 C1539 1.390 . S
C1534 H1525 0.930 . S
C1534 C1532 1.384 . S
C1534 C1535 1.372 . S
C1535 C1534 1.372 . S
C1535 C1536 1.400 . S
C1535 C1540 1.490 . S
C1536 H1526 0.930 . S
C1536 C1535 1.400 . S
C1536 C1539 1.386 . S
H1537 C1553 0.930 . S
H1538 C1554 0.931 . S
C1539 H1527 0.929 . S
C1539 C1533 1.390 . S
C1539 C1536 1.386 . S
C1540 C1535 1.490 . S
C1540 C1542 1.395 . S
C1540 C1543 1.403 . S
H1541 C1547 0.930 . S
C1542 H1528 0.930 . S
C1542 C1540 1.395 . S
C1542 C1545 1.403 . S
C1543 C1540 1.403 . S
C1543 C1544 1.524 . S
C1543 C1547 1.400 . S
C1544 H1529 0.960 . S
C1544 H1530 0.960 . S
C1544 H1531 0.960 . S
C1544 C1543 1.524 . S
C1545 C1542 1.403 . S
C1545 C1546 1.392 . S
C1545 C1549 1.495 . S
C1546 C1545 1.392 . S
C1546 C1547 1.385 . S
C1546 C1548 1.478 . S
C1547 H1541 0.930 . S
C1547 C1543 1.400 . S
C1547 C1546 1.385 . S
C1548 C1546 1.478 . S
C1548 C1550 1.381 . S
C1548 C1554 1.383 . S
C1549 C1545 1.495 . S
C1549 H1555 0.959 . S
C1549 H1556 0.961 . S
C1549 H1557 0.960 . S
C1550 C1548 1.381 . S
C1550 C1551 1.394 . S
C1550 H1558 0.930 . S
C1551 C1550 1.394 . S
C1551 C1552 1.383 . S
C1551 H1559 0.929 . S
C1552 C1551 1.383 . S
C1552 C1553 1.377 . S
C1553 H1537 0.930 . S
C1553 C1552 1.377 . S
C1553 C1554 1.379 . S
C1554 H1538 0.931 . S
C1554 C1548 1.383 . S
C1554 C1553 1.379 . S
H1555 C1549 0.959 . S
H1556 C1549 0.961 . S
H1557 C1549 0.960 . S
H1558 C1550 0.930 . S
H1559 C1551 0.929 . S
H1560 C1568 0.929 . S
H1561 C1570 0.930 . S
H1562 C1572 0.930 . S
H1563 C1575 0.929 . S
H1564 C1578 0.930 . S
H1565 C1580 0.960 . S
H1566 C1580 0.960 . S
H1567 C1580 0.960 . S
C1568 H1560 0.929 . S
C1568 C1569 1.377 . S
C1568 C1570 1.384 . S
C1569 C1568 1.377 . S
C1569 C1575 1.390 . S
C1570 H1561 0.930 . S
C1570 C1568 1.384 . S
C1570 C1571 1.372 . S
C1571 C1570 1.372 . S
C1571 C1572 1.400 . S
C1571 C1576 1.490 . S
C1572 H1562 0.930 . S
C1572 C1571 1.400 . S
C1572 C1575 1.386 . S
H1573 C1589 0.930 . S
H1574 C1590 0.931 . S
C1575 H1563 0.929 . S
C1575 C1569 1.390 . S
C1575 C1572 1.386 . S
C1576 C1571 1.490 . S
C1576 C1578 1.395 . S
C1576 C1579 1.403 . S
H1577 C1583 0.930 . S
C1578 H1564 0.930 . S
C1578 C1576 1.395 . S
C1578 C1581 1.403 . S
C1579 C1576 1.403 . S
C1579 C1580 1.524 . S
C1579 C1583 1.400 . S
C1580 H1565 0.960 . S
C1580 H1566 0.960 . S
C1580 H1567 0.960 . S
C1580 C1579 1.524 . S
C1581 C1578 1.403 . S
C1581 C1582 1.392 . S
C1581 C1585 1.495 . S
C1582 C1581 1.392 . S
C1582 C1583 1.385 . S
C1582 C1584 1.478 . S
C1583 H1577 0.930 . S
C1583 C1579 1.400 . S
C1583 C1582 1.385 . S
C1584 C1582 1.478 . S
C1584 C1586 1.381 . S
C1584 C1590 1.383 . S
C1585 C1581 1.495 . S
C1585 H1591 0.959 . S
C1585 H1592 0.961 . S
C1585 H1593 0.960 . S
C1586 C1584 1.381 . S
C1586 C1587 1.394 . S
C1586 H1594 0.930 . S
C1587 C1586 1.394 . S
C1587 C1588 1.383 . S
C1587 H1595 0.929 . S
C1588 C1587 1.383 . S
C1588 C1589 1.377 . S
C1589 H1573 0.930 . S
C1589 C1588 1.377 . S
C1589 C1590 1.379 . S
C1590 H1574 0.931 . S
C1590 C1584 1.383 . S
C1590 C1589 1.379 . S
H1591 C1585 0.959 . S
H1592 C1585 0.961 . S
H1593 C1585 0.960 . S
H1594 C1586 0.930 . S
H1595 C1587 0.929 . S
H1596 C1604 0.929 . S
H1597 C1606 0.930 . S
H1598 C1608 0.930 . S
H1599 C1611 0.929 . S
H1600 C1614 0.930 . S
H1601 C1616 0.960 . S
H1602 C1616 0.960 . S
H1603 C1616 0.960 . S
C1604 H1596 0.929 . S
C1604 C1605 1.377 . S
C1604 C1606 1.384 . S
C1605 C1604 1.377 . S
C1605 C1611 1.390 . S
C1606 H1597 0.930 . S
C1606 C1604 1.384 . S
C1606 C1607 1.372 . S
C1607 C1606 1.372 . S
C1607 C1608 1.400 . S
C1607 C1612 1.490 . S
C1608 H1598 0.930 . S
C1608 C1607 1.400 . S
C1608 C1611 1.386 . S
H1609 C1625 0.930 . S
H1610 C1626 0.931 . S
C1611 H1599 0.929 . S
C1611 C1605 1.390 . S
C1611 C1608 1.386 . S
C1612 C1607 1.490 . S
C1612 C1614 1.395 . S
C1612 C1615 1.403 . S
H1613 C1619 0.930 . S
C1614 H1600 0.930 . S
C1614 C1612 1.395 . S
C1614 C1617 1.403 . S
C1615 C1612 1.403 . S
C1615 C1616 1.524 . S
C1615 C1619 1.400 . S
C1616 H1601 0.960 . S
C1616 H1602 0.960 . S
C1616 H1603 0.960 . S
C1616 C1615 1.524 . S
C1617 C1614 1.403 . S
C1617 C1618 1.392 . S
C1617 C1621 1.495 . S
C1618 C1617 1.392 . S
C1618 C1619 1.385 . S
C1618 C1620 1.478 . S
C1619 H1613 0.930 . S
C1619 C1615 1.400 . S
C1619 C1618 1.385 . S
C1620 C1618 1.478 . S
C1620 C1622 1.381 . S
C1620 C1626 1.383 . S
C1621 C1617 1.495 . S
C1621 H1627 0.959 . S
C1621 H1628 0.961 . S
C1621 H1629 0.960 . S
C1622 C1620 1.381 . S
C1622 C1623 1.394 . S
C1622 H1630 0.930 . S
C1623 C1622 1.394 . S
C1623 C1624 1.383 . S
C1623 H1631 0.929 . S
C1624 C1623 1.383 . S
C1624 C1625 1.377 . S
C1625 H1609 0.930 . S
C1625 C1624 1.377 . S
C1625 C1626 1.379 . S
C1626 H1610 0.931 . S
C1626 C1620 1.383 . S
C1626 C1625 1.379 . S
H1627 C1621 0.959 . S
H1628 C1621 0.961 . S
H1629 C1621 0.960 . S
H1630 C1622 0.930 . S
H1631 C1623 0.929 . S
H1632 C1640 0.929 . S
H1633 C1642 0.930 . S
H1634 C1644 0.930 . S
H1635 C1647 0.929 . S
H1636 C1650 0.930 . S
H1637 C1652 0.960 . S
H1638 C1652 0.960 . S
H1639 C1652 0.960 . S
C1640 H1632 0.929 . S
C1640 C1641 1.377 . S
C1640 C1642 1.384 . S
C1641 C1640 1.377 . S
C1641 C1647 1.390 . S
C1642 H1633 0.930 . S
C1642 C1640 1.384 . S
C1642 C1643 1.372 . S
C1643 C1642 1.372 . S
C1643 C1644 1.400 . S
C1643 C1648 1.490 . S
C1644 H1634 0.930 . S
C1644 C1643 1.400 . S
C1644 C1647 1.386 . S
H1645 C1661 0.930 . S
H1646 C1662 0.931 . S
C1647 H1635 0.929 . S
C1647 C1641 1.390 . S
C1647 C1644 1.386 . S
C1648 C1643 1.490 . S
C1648 C1650 1.395 . S
C1648 C1651 1.403 . S
H1649 C1655 0.930 . S
C1650 H1636 0.930 . S
C1650 C1648 1.395 . S
C1650 C1653 1.403 . S
C1651 C1648 1.403 . S
C1651 C1652 1.524 . S
C1651 C1655 1.400 . S
C1652 H1637 0.960 . S
C1652 H1638 0.960 . S
C1652 H1639 0.960 . S
C1652 C1651 1.524 . S
C1653 C1650 1.403 . S
C1653 C1654 1.392 . S
C1653 C1657 1.495 . S
C1654 C1653 1.392 . S
C1654 C1655 1.385 . S
C1654 C1656 1.478 . S
C1655 H1649 0.930 . S
C1655 C1651 1.400 . S
C1655 C1654 1.385 . S
C1656 C1654 1.478 . S
C1656 C1658 1.381 . S
C1656 C1662 1.383 . S
C1657 C1653 1.495 . S
C1657 H1663 0.959 . S
C1657 H1664 0.961 . S
C1657 H1665 0.960 . S
C1658 C1656 1.381 . S
C1658 C1659 1.394 . S
C1658 H1666 0.930 . S
C1659 C1658 1.394 . S
C1659 C1660 1.383 . S
C1659 H1667 0.929 . S
C1660 C1659 1.383 . S
C1660 C1661 1.377 . S
C1661 H1645 0.930 . S
C1661 C1660 1.377 . S
C1661 C1662 1.379 . S
C1662 H1646 0.931 . S
C1662 C1656 1.383 . S
C1662 C1661 1.379 . S
H1663 C1657 0.959 . S
H1664 C1657 0.961 . S
H1665 C1657 0.960 . S
H1666 C1658 0.930 . S
H1667 C1659 0.929 . S
H1668 C1676 0.929 . S
H1669 C1678 0.930 . S
H1670 C1680 0.930 . S
H1671 C1683 0.929 . S
H1672 C1686 0.930 . S
H1673 C1688 0.960 . S
H1674 C1688 0.960 . S
H1675 C1688 0.960 . S
C1676 H1668 0.929 . S
C1676 C1677 1.377 . S
C1676 C1678 1.384 . S
C1677 C1676 1.377 . S
C1677 C1683 1.390 . S
C1678 H1669 0.930 . S
C1678 C1676 1.384 . S
C1678 C1679 1.372 . S
C1679 C1678 1.372 . S
C1679 C1680 1.400 . S
C1679 C1684 1.490 . S
C1680 H1670 0.930 . S
C1680 C1679 1.400 . S
C1680 C1683 1.386 . S
H1681 C1697 0.930 . S
H1682 C1698 0.931 . S
C1683 H1671 0.929 . S
C1683 C1677 1.390 . S
C1683 C1680 1.386 . S
C1684 C1679 1.490 . S
C1684 C1686 1.395 . S
C1684 C1687 1.403 . S
H1685 C1691 0.930 . S
C1686 H1672 0.930 . S
C1686 C1684 1.395 . S
C1686 C1689 1.403 . S
C1687 C1684 1.403 . S
C1687 C1688 1.524 . S
C1687 C1691 1.400 . S
C1688 H1673 0.960 . S
C1688 H1674 0.960 . S
C1688 H1675 0.960 . S
C1688 C1687 1.524 . S
C1689 C1686 1.403 . S
C1689 C1690 1.392 . S
C1689 C1693 1.495 . S
C1690 C1689 1.392 . S
C1690 C1691 1.385 . S
C1690 C1692 1.478 . S
C1691 H1685 0.930 . S
C1691 C1687 1.400 . S
C1691 C1690 1.385 . S
C1692 C1690 1.478 . S
C1692 C1694 1.381 . S
C1692 C1698 1.383 . S
C1693 C1689 1.495 . S
C1693 H1699 0.959 . S
C1693 H1700 0.961 . S
C1693 H1701 0.960 . S
C1694 C1692 1.381 . S
C1694 C1695 1.394 . S
C1694 H1702 0.930 . S
C1695 C1694 1.394 . S
C1695 C1696 1.383 . S
C1695 H1703 0.929 . S
C1696 C1695 1.383 . S
C1696 C1697 1.377 . S
C1697 H1681 0.930 . S
C1697 C1696 1.377 . S
C1697 C1698 1.379 . S
C1698 H1682 0.931 . S
C1698 C1692 1.383 . S
C1698 C1697 1.379 . S
H1699 C1693 0.959 . S
H1700 C1693 0.961 . S
H1701 C1693 0.960 . S
H1702 C1694 0.930 . S
H1703 C1695 0.929 . S
H1704 C1712 0.929 . S
H1705 C1714 0.930 . S
H1706 C1716 0.930 . S
H1707 C1719 0.929 . S
H1708 C1722 0.930 . S
H1709 C1724 0.960 . S
H1710 C1724 0.960 . S
H1711 C1724 0.960 . S
C1712 H1704 0.929 . S
C1712 C1713 1.377 . S
C1712 C1714 1.384 . S
C1713 C1712 1.377 . S
C1713 C1719 1.390 . S
C1714 H1705 0.930 . S
C1714 C1712 1.384 . S
C1714 C1715 1.372 . S
C1715 C1714 1.372 . S
C1715 C1716 1.400 . S
C1715 C1720 1.490 . S
C1716 H1706 0.930 . S
C1716 C1715 1.400 . S
C1716 C1719 1.386 . S
H1717 C1733 0.930 . S
H1718 C1734 0.931 . S
C1719 H1707 0.929 . S
C1719 C1713 1.390 . S
C1719 C1716 1.386 . S
C1720 C1715 1.490 . S
C1720 C1722 1.395 . S
C1720 C1723 1.403 . S
H1721 C1727 0.930 . S
C1722 H1708 0.930 . S
C1722 C1720 1.395 . S
C1722 C1725 1.403 . S
C1723 C1720 1.403 . S
C1723 C1724 1.524 . S
C1723 C1727 1.400 . S
C1724 H1709 0.960 . S
C1724 H1710 0.960 . S
C1724 H1711 0.960 . S
C1724 C1723 1.524 . S
C1725 C1722 1.403 . S
C1725 C1726 1.392 . S
C1725 C1729 1.495 . S
C1726 C1725 1.392 . S
C1726 C1727 1.385 . S
C1726 C1728 1.478 . S
C1727 H1721 0.930 . S
C1727 C1723 1.400 . S
C1727 C1726 1.385 . S
C1728 C1726 1.478 . S
C1728 C1730 1.381 . S
C1728 C1734 1.383 . S
C1729 C1725 1.495 . S
C1729 H1735 0.959 . S
C1729 H1736 0.961 . S
C1729 H1737 0.960 . S
C1730 C1728 1.381 . S
C1730 C1731 1.394 . S
C1730 H1738 0.930 . S
C1731 C1730 1.394 . S
C1731 C1732 1.383 . S
C1731 H1739 0.929 . S
C1732 C1731 1.383 . S
C1732 C1733 1.377 . S
C1733 H1717 0.930 . S
C1733 C1732 1.377 . S
C1733 C1734 1.379 . S
C1734 H1718 0.931 . S
C1734 C1728 1.383 . S
C1734 C1733 1.379 . S
H1735 C1729 0.959 . S
H1736 C1729 0.961 . S
H1737 C1729 0.960 . S
H1738 C1730 0.930 . S
H1739 C1731 0.929 . S
H1740 C1748 0.929 . S
H1741 C1750 0.930 . S
H1742 C1752 0.930 . S
H1743 C1755 0.929 . S
H1744 C1758 0.930 . S
H1745 C1760 0.960 . S
H1746 C1760 0.960 . S
H1747 C1760 0.960 . S
C1748 H1740 0.929 . S
C1748 C1749 1.377 . S
C1748 C1750 1.384 . S
C1749 C1748 1.377 . S
C1749 C1755 1.390 . S
C1750 H1741 0.930 . S
C1750 C1748 1.384 . S
C1750 C1751 1.372 . S
C1751 C1750 1.372 . S
C1751 C1752 1.400 . S
C1751 C1756 1.490 . S
C1752 H1742 0.930 . S
C1752 C1751 1.400 . S
C1752 C1755 1.386 . S
H1753 C1769 0.930 . S
H1754 C1770 0.931 . S
C1755 H1743 0.929 . S
C1755 C1749 1.390 . S
C1755 C1752 1.386 . S
C1756 C1751 1.490 . S
C1756 C1758 1.395 . S
C1756 C1759 1.403 . S
H1757 C1763 0.930 . S
C1758 H1744 0.930 . S
C1758 C1756 1.395 . S
C1758 C1761 1.403 . S
C1759 C1756 1.403 . S
C1759 C1760 1.524 . S
C1759 C1763 1.400 . S
C1760 H1745 0.960 . S
C1760 H1746 0.960 . S
C1760 H1747 0.960 . S
C1760 C1759 1.524 . S
C1761 C1758 1.403 . S
C1761 C1762 1.392 . S
C1761 C1765 1.495 . S
C1762 C1761 1.392 . S
C1762 C1763 1.385 . S
C1762 C1764 1.478 . S
C1763 H1757 0.930 . S
C1763 C1759 1.400 . S
C1763 C1762 1.385 . S
C1764 C1762 1.478 . S
C1764 C1766 1.381 . S
C1764 C1770 1.383 . S
C1765 C1761 1.495 . S
C1765 H1771 0.959 . S
C1765 H1772 0.961 . S
C1765 H1773 0.960 . S
C1766 C1764 1.381 . S
C1766 C1767 1.394 . S
C1766 H1774 0.930 . S
C1767 C1766 1.394 . S
C1767 C1768 1.383 . S
C1767 H1775 0.929 . S
C1768 C1767 1.383 . S
C1768 C1769 1.377 . S
C1769 H1753 0.930 . S
C1769 C1768 1.377 . S
C1769 C1770 1.379 . S
C1770 H1754 0.931 . S
C1770 C1764 1.383 . S
C1770 C1769 1.379 . S
H1771 C1765 0.959 . S
H1772 C1765 0.961 . S
H1773 C1765 0.960 . S
H1774 C1766 0.930 . S
H1775 C1767 0.929 . S
H1776 C1784 0.929 . S
H1777 C1786 0.930 . S
H1778 C1788 0.930 1_554 S
H1779 C1791 0.929 . S
H1780 C1794 0.930 . S
H1781 C1796 0.960 . S
H1782 C1796 0.960 . S
H1783 C1796 0.960 . S
C1784 H1776 0.929 . S
C1784 C1785 1.377 . S
C1784 C1786 1.384 . S
C1785 C1784 1.377 . S
C1785 C1791 1.390 . S
C1786 H1777 0.930 . S
C1786 C1784 1.384 . S
C1786 C1787 1.372 . S
C1787 C1786 1.372 . S
C1787 C1788 1.400 . S
C1787 C1792 1.490 . S
C1788 H1778 0.930 1_556 S
C1788 C1787 1.400 . S
C1788 C1791 1.386 . S
H1789 C1805 0.930 . S
H1790 C1806 0.931 . S
C1791 H1779 0.929 . S
C1791 C1785 1.390 . S
C1791 C1788 1.386 . S
C1792 C1787 1.490 . S
C1792 C1794 1.395 . S
C1792 C1795 1.403 1_556 S
H1793 C1799 0.930 . S
C1794 H1780 0.930 . S
C1794 C1792 1.395 . S
C1794 C1797 1.403 . S
C1795 C1792 1.403 1_554 S
C1795 C1796 1.524 . S
C1795 C1799 1.400 . S
C1796 H1781 0.960 . S
C1796 H1782 0.960 . S
C1796 H1783 0.960 . S
C1796 C1795 1.524 . S
C1797 C1794 1.403 . S
C1797 C1798 1.392 1_556 S
C1797 C1801 1.495 . S
C1798 C1797 1.392 1_554 S
C1798 C1799 1.385 . S
C1798 C1800 1.478 . S
C1799 H1793 0.930 . S
C1799 C1795 1.400 . S
C1799 C1798 1.385 . S
C1800 C1798 1.478 . S
C1800 C1802 1.390 . S
C1800 C1806 1.383 . S
C1801 C1797 1.495 . S
C1801 H1807 0.959 . S
C1801 H1808 0.961 . S
C1801 H1809 0.960 . S
C1802 C1800 1.390 . S
C1802 C1803 1.403 . S
C1802 H1810 0.914 1_554 S
C1803 C1802 1.403 . S
C1803 C1804 1.383 . S
C1803 H1811 0.929 . S
C1804 C1803 1.383 . S
C1804 C1805 1.377 . S
C1805 H1789 0.930 . S
C1805 C1804 1.377 . S
C1805 C1806 1.379 . S
C1806 H1790 0.931 . S
C1806 C1800 1.383 . S
C1806 C1805 1.379 . S
H1807 C1801 0.959 . S
H1808 C1801 0.961 . S
H1809 C1801 0.960 . S
H1810 C1802 0.914 1_556 S
H1811 C1803 0.929 . S
H1812 C1820 0.929 . S
H1813 C1822 0.930 . S
H1814 C1824 0.930 . S
H1815 C1827 0.929 . S
H1816 C1830 0.930 . S
H1817 C1832 0.960 . S
H1818 C1832 0.960 . S
H1819 C1832 0.960 . S
C1820 H1812 0.929 . S
C1820 C1821 1.377 . S
C1820 C1822 1.384 . S
C1821 C1820 1.377 . S
C1821 C1827 1.390 . S
C1822 H1813 0.930 . S
C1822 C1820 1.384 . S
C1822 C1823 1.372 . S
C1823 C1822 1.372 . S
C1823 C1824 1.400 . S
C1823 C1828 1.490 . S
C1824 H1814 0.930 . S
C1824 C1823 1.400 . S
C1824 C1827 1.386 . S
H1825 C1841 0.930 . S
H1826 C1842 0.931 . S
C1827 H1815 0.929 . S
C1827 C1821 1.390 . S
C1827 C1824 1.386 . S
C1828 C1823 1.490 . S
C1828 C1830 1.395 . S
C1828 C1831 1.403 . S
H1829 C1835 0.930 . S
C1830 H1816 0.930 . S
C1830 C1828 1.395 . S
C1830 C1833 1.403 . S
C1831 C1828 1.403 . S
C1831 C1832 1.524 . S
C1831 C1835 1.400 . S
C1832 H1817 0.960 . S
C1832 H1818 0.960 . S
C1832 H1819 0.960 . S
C1832 C1831 1.524 . S
C1833 C1830 1.403 . S
C1833 C1834 1.392 . S
C1833 C1837 1.495 . S
C1834 C1833 1.392 . S
C1834 C1835 1.385 . S
C1834 C1836 1.478 . S
C1835 H1829 0.930 . S
C1835 C1831 1.400 . S
C1835 C1834 1.385 . S
C1836 C1834 1.478 . S
C1836 C1838 1.381 . S
C1836 C1842 1.383 . S
C1837 C1833 1.495 . S
C1837 H1843 0.959 . S
C1837 H1844 0.961 . S
C1837 H1845 0.960 . S
C1838 C1836 1.381 . S
C1838 C1839 1.394 . S
C1838 H1846 0.930 . S
C1839 C1838 1.394 . S
C1839 C1840 1.383 . S
C1839 H1847 0.929 . S
C1840 C1839 1.383 . S
C1840 C1841 1.377 . S
C1841 H1825 0.930 . S
C1841 C1840 1.377 . S
C1841 C1842 1.379 . S
C1842 H1826 0.931 . S
C1842 C1836 1.383 . S
C1842 C1841 1.379 . S
H1843 C1837 0.959 . S
H1844 C1837 0.961 . S
H1845 C1837 0.960 . S
H1846 C1838 0.930 . S
H1847 C1839 0.929 . S
H1848 C1856 0.929 . S
H1849 C1858 0.930 . S
H1850 C1860 0.930 . S
H1851 C1863 0.929 . S
H1852 C1866 0.930 . S
H1853 C1868 0.960 . S
H1854 C1868 0.960 . S
H1855 C1868 0.960 . S
C1856 H1848 0.929 . S
C1856 C1857 1.377 . S
C1856 C1858 1.384 . S
C1857 C1856 1.377 . S
C1857 C1863 1.390 . S
C1858 H1849 0.930 . S
C1858 C1856 1.384 . S
C1858 C1859 1.372 . S
C1859 C1858 1.372 . S
C1859 C1860 1.400 . S
C1859 C1864 1.490 . S
C1860 H1850 0.930 . S
C1860 C1859 1.400 . S
C1860 C1863 1.386 . S
H1861 C1877 0.930 . S
H1862 C1878 0.931 . S
C1863 H1851 0.929 . S
C1863 C1857 1.390 . S
C1863 C1860 1.386 . S
C1864 C1859 1.490 . S
C1864 C1866 1.395 . S
C1864 C1867 1.403 . S
H1865 C1871 0.930 . S
C1866 H1852 0.930 . S
C1866 C1864 1.395 . S
C1866 C1869 1.403 . S
C1867 C1864 1.403 . S
C1867 C1868 1.524 . S
C1867 C1871 1.400 . S
C1868 H1853 0.960 . S
C1868 H1854 0.960 . S
C1868 H1855 0.960 . S
C1868 C1867 1.524 . S
C1869 C1866 1.403 . S
C1869 C1870 1.392 . S
C1869 C1873 1.495 . S
C1870 C1869 1.392 . S
C1870 C1871 1.385 . S
C1870 C1872 1.478 . S
C1871 H1865 0.930 . S
C1871 C1867 1.400 . S
C1871 C1870 1.385 . S
C1872 C1870 1.478 . S
C1872 C1874 1.381 . S
C1872 C1878 1.383 . S
C1873 C1869 1.495 . S
C1873 H1879 0.959 . S
C1873 H1880 0.961 . S
C1873 H1881 0.960 . S
C1874 C1872 1.381 . S
C1874 C1875 1.394 . S
C1874 H1882 0.930 . S
C1875 C1874 1.394 . S
C1875 C1876 1.383 . S
C1875 H1883 0.929 . S
C1876 C1875 1.383 . S
C1876 C1877 1.377 . S
C1877 H1861 0.930 . S
C1877 C1876 1.377 . S
C1877 C1878 1.379 . S
C1878 H1862 0.931 . S
C1878 C1872 1.383 . S
C1878 C1877 1.379 . S
H1879 C1873 0.959 . S
H1880 C1873 0.961 . S
H1881 C1873 0.960 . S
H1882 C1874 0.930 . S
H1883 C1875 0.929 . S
H1884 C1892 0.929 . S
H1885 C1894 0.930 . S
H1886 C1896 0.930 . S
H1887 C1899 0.929 1_556 S
H1888 C1902 0.930 . S
H1889 C1904 0.960 . S
H1890 C1904 0.960 . S
H1891 C1904 0.960 . S
C1892 H1884 0.929 . S
C1892 C1893 1.377 . S
C1892 C1894 1.384 . S
C1893 C1892 1.377 . S
C1893 C1899 1.390 . S
C1894 H1885 0.930 . S
C1894 C1892 1.384 . S
C1894 C1895 1.372 . S
C1895 C1894 1.372 . S
C1895 C1896 1.400 1_554 S
C1895 C1900 1.490 . S
C1896 H1886 0.930 . S
C1896 C1895 1.400 1_556 S
C1896 C1899 1.386 1_556 S
H1897 C1913 0.930 . S
H1898 C1914 0.931 . S
C1899 H1887 0.929 1_554 S
C1899 C1893 1.390 . S
C1899 C1896 1.386 1_554 S
C1900 C1895 1.490 . S
C1900 C1902 1.395 . S
C1900 C1903 1.403 1_554 S
H1901 C1907 0.930 . S
C1902 H1888 0.930 . S
C1902 C1900 1.395 . S
C1902 C1905 1.403 . S
C1903 C1900 1.403 1_556 S
C1903 C1904 1.524 . S
C1903 C1907 1.400 . S
C1904 H1889 0.960 . S
C1904 H1890 0.960 . S
C1904 H1891 0.960 . S
C1904 C1903 1.524 . S
C1905 C1902 1.403 . S
C1905 C1906 1.392 1_554 S
C1905 C1909 1.495 . S
C1906 C1905 1.392 1_556 S
C1906 C1907 1.385 . S
C1906 C1908 1.478 . S
C1907 H1901 0.930 . S
C1907 C1903 1.400 . S
C1907 C1906 1.385 . S
C1908 C1906 1.478 . S
C1908 C1910 1.381 1_556 S
C1908 C1914 1.383 . S
C1909 C1905 1.495 . S
C1909 H1915 0.959 . S
C1909 H1916 0.961 . S
C1909 H1917 0.960 . S
C1910 C1908 1.381 1_554 S
C1910 C1911 1.394 1_554 S
C1910 H1918 0.930 . S
C1911 C1910 1.394 1_556 S
C1911 C1912 1.383 . S
C1911 H1919 0.929 1_556 S
C1912 C1911 1.383 . S
C1912 C1913 1.377 . S
C1913 H1897 0.930 . S
C1913 C1912 1.377 . S
C1913 C1914 1.379 . S
C1914 H1898 0.931 . S
C1914 C1908 1.383 . S
C1914 C1913 1.379 . S
H1915 C1909 0.959 . S
H1916 C1909 0.961 . S
H1917 C1909 0.960 . S
H1918 C1910 0.930 . S
H1919 C1911 0.929 1_554 S
C1065 C29 1.321 . S
C1084 C849 1.304 . S
C1101 C117 1.320 . S
C1120 C937 1.313 . S
C1137 C196 1.320 . S
C1156 C1017 1.303 . S
C1173 C293 1.321 . S
C1192 C585 1.300 . S
C1209 C665 1.319 . S
C1228 C381 1.309 . S
C1245 C761 1.317 . S
C1264 C469 1.326 . S
C1281 C909 2.039 . S
C1300 C57 2.035 . S
C1317 C145 2.040 . S
C1336 C988 2.039 . S
C1353 C225 2.039 . S
C1372 C557 2.034 . S
C1389 C321 2.039 . S
C1408 C636 2.035 . S
C1425 C409 2.039 . S
C1444 C733 2.034 . S
C1461 C497 2.038 . S
C1480 C821 2.033 . S
C1497 C929 0.294 . S
C1516 C20 0.356 . S
C1533 C108 0.296 . S
C1552 C1025 0.338 . S
C1569 C205 0.283 . S
C1588 C577 0.271 . S
C1605 C284 0.294 . S
C1624 C673 0.323 . S
C1641 C372 0.292 . S
C1660 C753 0.311 . S
C1677 C460 0.280 . S
C1696 C841 0.316 . S
C1713 C49 1.677 . S
C1732 C548 1.665 . S
C1749 C645 1.676 . S
C1768 C137 1.665 . S
C1785 C233 1.677 . S
C1804 C724 1.667 . S
C1821 C313 1.677 . S
C1840 C812 1.666 . S
C1857 C401 1.678 . S
C1876 C900 1.670 . S
C1893 C997 1.678 . S
C1912 C489 1.669 . S
