# Generated by pormake.
# Topology uka, (4)-cn, num edge types: 1
# Building blocks:
#     Node 0, Type 0, BuildingBlock: ICAMEG_clean_sbu_1, # of connection points: 4
#     Node 1, Type 0, BuildingBlock: ICAMEG_clean_sbu_1, # of connection points: 4
#     Node 2, Type 0, BuildingBlock: ICAMEG_clean_sbu_1, # of connection points: 4
#     Node 3, Type 0, BuildingBlock: ICAMEG_clean_sbu_1, # of connection points: 4
#     Node 4, Type 0, BuildingBlock: ICAMEG_clean_sbu_1, # of connection points: 4
#     Node 5, Type 0, BuildingBlock: ICAMEG_clean_sbu_1, # of connection points: 4
#     Node 6, Type 0, BuildingBlock: ICAMEG_clean_sbu_1, # of connection points: 4
#     Node 7, Type 0, BuildingBlock: ICAMEG_clean_sbu_1, # of connection points: 4
#     Node 8, Type 0, BuildingBlock: ICAMEG_clean_sbu_1, # of connection points: 4
#     Node 9, Type 0, BuildingBlock: ICAMEG_clean_sbu_1, # of connection points: 4
#     Node 10, Type 0, BuildingBlock: ICAMEG_clean_sbu_1, # of connection points: 4
#     Node 11, Type 0, BuildingBlock: ICAMEG_clean_sbu_1, # of connection points: 4
#     Node 12, Type 0, BuildingBlock: ICAMEG_clean_sbu_1, # of connection points: 4
#     Node 13, Type 0, BuildingBlock: ICAMEG_clean_sbu_1, # of connection points: 4
#     Node 14, Type 0, BuildingBlock: ICAMEG_clean_sbu_1, # of connection points: 4
#     Node 15, Type 0, BuildingBlock: ICAMEG_clean_sbu_1, # of connection points: 4
#     Node 16, Type 0, BuildingBlock: ICAMEG_clean_sbu_1, # of connection points: 4
#     Node 17, Type 0, BuildingBlock: ICAMEG_clean_sbu_1, # of connection points: 4
#     Node 18, Type 0, BuildingBlock: ICAMEG_clean_sbu_1, # of connection points: 4
#     Node 19, Type 0, BuildingBlock: ICAMEG_clean_sbu_1, # of connection points: 4
#     Node 20, Type 0, BuildingBlock: ICAMEG_clean_sbu_1, # of connection points: 4
#     Node 21, Type 0, BuildingBlock: ICAMEG_clean_sbu_1, # of connection points: 4
#     Node 22, Type 0, BuildingBlock: ICAMEG_clean_sbu_1, # of connection points: 4
#     Node 23, Type 0, BuildingBlock: ICAMEG_clean_sbu_1, # of connection points: 4
#     Node 24, Type 0, BuildingBlock: ICAMEG_clean_sbu_1, # of connection points: 4
#     Node 25, Type 0, BuildingBlock: ICAMEG_clean_sbu_1, # of connection points: 4
#     Node 26, Type 0, BuildingBlock: ICAMEG_clean_sbu_1, # of connection points: 4
#     Node 27, Type 0, BuildingBlock: ICAMEG_clean_sbu_1, # of connection points: 4
#     Node 28, Type 0, BuildingBlock: ICAMEG_clean_sbu_1, # of connection points: 4
#     Node 29, Type 0, BuildingBlock: ICAMEG_clean_sbu_1, # of connection points: 4
#     Node 30, Type 0, BuildingBlock: ICAMEG_clean_sbu_1, # of connection points: 4
#     Node 31, Type 0, BuildingBlock: ICAMEG_clean_sbu_1, # of connection points: 4
#     Edge 32, Type (0, 0), BuildingBlock: AJUNOK_clean_linker_0, # of connection points: 2
#     Edge 33, Type (0, 0), BuildingBlock: AJUNOK_clean_linker_0, # of connection points: 2
#     Edge 34, Type (0, 0), BuildingBlock: AJUNOK_clean_linker_0, # of connection points: 2
#     Edge 35, Type (0, 0), BuildingBlock: AJUNOK_clean_linker_0, # of connection points: 2
#     Edge 36, Type (0, 0), BuildingBlock: AJUNOK_clean_linker_0, # of connection points: 2
#     Edge 37, Type (0, 0), BuildingBlock: AJUNOK_clean_linker_0, # of connection points: 2
#     Edge 38, Type (0, 0), BuildingBlock: AJUNOK_clean_linker_0, # of connection points: 2
#     Edge 39, Type (0, 0), BuildingBlock: AJUNOK_clean_linker_0, # of connection points: 2
#     Edge 40, Type (0, 0), BuildingBlock: AJUNOK_clean_linker_0, # of connection points: 2
#     Edge 41, Type (0, 0), BuildingBlock: AJUNOK_clean_linker_0, # of connection points: 2
#     Edge 42, Type (0, 0), BuildingBlock: AJUNOK_clean_linker_0, # of connection points: 2
#     Edge 43, Type (0, 0), BuildingBlock: AJUNOK_clean_linker_0, # of connection points: 2
#     Edge 44, Type (0, 0), BuildingBlock: AJUNOK_clean_linker_0, # of connection points: 2
#     Edge 45, Type (0, 0), BuildingBlock: AJUNOK_clean_linker_0, # of connection points: 2
#     Edge 46, Type (0, 0), BuildingBlock: AJUNOK_clean_linker_0, # of connection points: 2
#     Edge 47, Type (0, 0), BuildingBlock: AJUNOK_clean_linker_0, # of connection points: 2
#     Edge 48, Type (0, 0), BuildingBlock: AJUNOK_clean_linker_0, # of connection points: 2
#     Edge 49, Type (0, 0), BuildingBlock: AJUNOK_clean_linker_0, # of connection points: 2
#     Edge 50, Type (0, 0), BuildingBlock: AJUNOK_clean_linker_0, # of connection points: 2
#     Edge 51, Type (0, 0), BuildingBlock: AJUNOK_clean_linker_0, # of connection points: 2
#     Edge 52, Type (0, 0), BuildingBlock: AJUNOK_clean_linker_0, # of connection points: 2
#     Edge 53, Type (0, 0), BuildingBlock: AJUNOK_clean_linker_0, # of connection points: 2
#     Edge 54, Type (0, 0), BuildingBlock: AJUNOK_clean_linker_0, # of connection points: 2
#     Edge 55, Type (0, 0), BuildingBlock: AJUNOK_clean_linker_0, # of connection points: 2
#     Edge 56, Type (0, 0), BuildingBlock: AJUNOK_clean_linker_0, # of connection points: 2
#     Edge 57, Type (0, 0), BuildingBlock: AJUNOK_clean_linker_0, # of connection points: 2
#     Edge 58, Type (0, 0), BuildingBlock: AJUNOK_clean_linker_0, # of connection points: 2
#     Edge 59, Type (0, 0), BuildingBlock: AJUNOK_clean_linker_0, # of connection points: 2
#     Edge 60, Type (0, 0), BuildingBlock: AJUNOK_clean_linker_0, # of connection points: 2
#     Edge 61, Type (0, 0), BuildingBlock: AJUNOK_clean_linker_0, # of connection points: 2
#     Edge 62, Type (0, 0), BuildingBlock: AJUNOK_clean_linker_0, # of connection points: 2
#     Edge 63, Type (0, 0), BuildingBlock: AJUNOK_clean_linker_0, # of connection points: 2
#     Edge 64, Type (0, 0), BuildingBlock: AJUNOK_clean_linker_0, # of connection points: 2
#     Edge 65, Type (0, 0), BuildingBlock: AJUNOK_clean_linker_0, # of connection points: 2
#     Edge 66, Type (0, 0), BuildingBlock: AJUNOK_clean_linker_0, # of connection points: 2
#     Edge 67, Type (0, 0), BuildingBlock: AJUNOK_clean_linker_0, # of connection points: 2
#     Edge 68, Type (0, 0), BuildingBlock: AJUNOK_clean_linker_0, # of connection points: 2
#     Edge 69, Type (0, 0), BuildingBlock: AJUNOK_clean_linker_0, # of connection points: 2
#     Edge 70, Type (0, 0), BuildingBlock: AJUNOK_clean_linker_0, # of connection points: 2
#     Edge 71, Type (0, 0), BuildingBlock: AJUNOK_clean_linker_0, # of connection points: 2
#     Edge 72, Type (0, 0), BuildingBlock: AJUNOK_clean_linker_0, # of connection points: 2
#     Edge 73, Type (0, 0), BuildingBlock: AJUNOK_clean_linker_0, # of connection points: 2
#     Edge 74, Type (0, 0), BuildingBlock: AJUNOK_clean_linker_0, # of connection points: 2
#     Edge 75, Type (0, 0), BuildingBlock: AJUNOK_clean_linker_0, # of connection points: 2
#     Edge 76, Type (0, 0), BuildingBlock: AJUNOK_clean_linker_0, # of connection points: 2
#     Edge 77, Type (0, 0), BuildingBlock: AJUNOK_clean_linker_0, # of connection points: 2
#     Edge 78, Type (0, 0), BuildingBlock: AJUNOK_clean_linker_0, # of connection points: 2
#     Edge 79, Type (0, 0), BuildingBlock: AJUNOK_clean_linker_0, # of connection points: 2
#     Edge 80, Type (0, 0), BuildingBlock: AJUNOK_clean_linker_0, # of connection points: 2
#     Edge 81, Type (0, 0), BuildingBlock: AJUNOK_clean_linker_0, # of connection points: 2
#     Edge 82, Type (0, 0), BuildingBlock: AJUNOK_clean_linker_0, # of connection points: 2
#     Edge 83, Type (0, 0), BuildingBlock: AJUNOK_clean_linker_0, # of connection points: 2
#     Edge 84, Type (0, 0), BuildingBlock: AJUNOK_clean_linker_0, # of connection points: 2
#     Edge 85, Type (0, 0), BuildingBlock: AJUNOK_clean_linker_0, # of connection points: 2
#     Edge 86, Type (0, 0), BuildingBlock: AJUNOK_clean_linker_0, # of connection points: 2
#     Edge 87, Type (0, 0), BuildingBlock: AJUNOK_clean_linker_0, # of connection points: 2
#     Edge 88, Type (0, 0), BuildingBlock: AJUNOK_clean_linker_0, # of connection points: 2
#     Edge 89, Type (0, 0), BuildingBlock: AJUNOK_clean_linker_0, # of connection points: 2
#     Edge 90, Type (0, 0), BuildingBlock: AJUNOK_clean_linker_0, # of connection points: 2
#     Edge 91, Type (0, 0), BuildingBlock: AJUNOK_clean_linker_0, # of connection points: 2
#     Edge 92, Type (0, 0), BuildingBlock: AJUNOK_clean_linker_0, # of connection points: 2
#     Edge 93, Type (0, 0), BuildingBlock: AJUNOK_clean_linker_0, # of connection points: 2
#     Edge 94, Type (0, 0), BuildingBlock: AJUNOK_clean_linker_0, # of connection points: 2
#     Edge 95, Type (0, 0), BuildingBlock: AJUNOK_clean_linker_0, # of connection points: 2
# Relax obj value: 0.037
# Max RMSD: 0.068
# Mean RMSD: 0.068
data_MOF--net-uka--node1-ICAMEG_clean_sbu_1--edge1-AJUNOK_clean_linker_0
_symmetry_space_group_name_H-M    P1
_symmetry_Int_Tables_number       1
_symmetry_cell_setting            triclinic
loop_
_symmetry_equiv_pos_as_xyz
'x, y, z'
_cell_length_a     47.480797
_cell_length_b     47.537315
_cell_length_c     35.196834
_cell_angle_alpha  89.979244
_cell_angle_beta   90.020423
_cell_angle_gamma 90.001991
loop_
_atom_site_label
_atom_site_type_symbol
_atom_site_fract_x
_atom_site_fract_y
_atom_site_fract_z
_atom_type_partial_charge
Co0 Co 0.09779 0.29446 0.26834 0.0
Co1 Co 0.15539 0.30013 0.32503 0.0
O2 O 0.13855 0.29856 0.27401 0.0
C3 C 0.11658 0.33179 0.20236 0.0
O4 O 0.14242 0.33349 0.21529 0.0
C5 C 0.1942 0.26357 0.2804 0.0
O6 O 0.17194 0.24943 0.26925 0.0
O7 O 0.14027 0.26194 0.33545 0.0
O8 O 0.09614 0.26921 0.31488 0.0
H9 H 0.15712 0.28537 0.46643 0.0
H10 H 0.13686 0.27804 0.20575 0.0
O11 O 0.09777 0.31851 0.22107 0.0
H12 H 0.07642 0.19532 0.22754 0.0
H13 H 0.00622 0.29444 0.19628 0.0
H14 H 0.05025 0.29591 0.32302 0.0
H15 H 0.07023 0.23831 0.2657 0.0
H16 H 0.05753 0.28851 0.20318 0.0
O17 O 0.19125 0.2839 0.30365 0.0
H18 H 0.1357 0.28555 0.40263 0.0
H19 H 0.2123 0.31513 0.35474 0.0
H20 H 0.9987 0.29993 0.31758 0.0
H21 H 0.1437 0.23558 0.16685 0.0
H22 H 0.97639 0.30007 0.25374 0.0
H23 H 0.11334 0.19377 0.17758 0.0
O24 O 0.09258 0.32866 0.29964 0.0
H25 H 0.20463 0.37373 0.24688 0.0
H26 H 0.15409 0.35489 0.36657 0.0
H27 H 0.17107 0.40286 0.35306 0.0
H28 H 0.1966 0.41253 0.29287 0.0
H29 H 0.18704 0.32613 0.26136 0.0
H30 H 0.2346 0.31511 0.41804 0.0
H31 H 0.20693 0.30024 0.47446 0.0
O32 O 0.12015 0.31682 0.3483 0.0
C33 C 0.11426 0.25511 0.33417 0.0
C34 C 0.16937 0.29199 0.44208 0.0
C35 C 0.21286 0.30865 0.41492 0.0
N36 N 0.17265 0.30057 0.37501 0.0
C37 C 0.15733 0.2922 0.40587 0.0
C38 C 0.20013 0.30857 0.37913 0.0
C39 C 0.19732 0.30031 0.44656 0.0
C40 C 0.1233 0.26018 0.21031 0.0
N41 N 0.10284 0.26094 0.23757 0.0
C42 C 0.12739 0.23607 0.18831 0.0
C43 C 0.1104 0.2126 0.19441 0.0
C44 C 0.0897 0.21344 0.22243 0.0
C45 C 0.08627 0.23788 0.24394 0.0
C46 C 0.01571 0.29458 0.22425 0.0
C47 C 0.04069 0.2949 0.29524 0.0
C48 C 0.04479 0.29121 0.22835 0.0
N49 N 0.05703 0.29205 0.2635 0.0
C50 C 0.01147 0.29756 0.2923 0.0
C51 C 0.99898 0.29776 0.25649 0.0
C52 C 0.09941 0.3305 0.33443 0.0
C53 C 0.19351 0.36979 0.27319 0.0
C54 C 0.16494 0.35896 0.34014 0.0
C55 C 0.17463 0.38615 0.33274 0.0
C56 C 0.18898 0.39156 0.29899 0.0
N57 N 0.16937 0.33774 0.31463 0.0
C58 C 0.18353 0.34286 0.28157 0.0
Co59 Co 0.96523 0.85102 0.51977 0.0
Co60 Co 0.95611 0.91 0.57369 0.0
O61 O 0.95912 0.89145 0.52398 0.0
C62 C 0.92595 0.86681 0.45452 0.0
O63 O 0.92501 0.89325 0.465 0.0
C64 C 0.99238 0.94766 0.52724 0.0
O65 O 0.00739 0.92537 0.51865 0.0
O66 O 0.99464 0.89668 0.58661 0.0
O67 O 0.99169 0.85201 0.56514 0.0
H68 H 0.96812 0.91933 0.7151 0.0
H69 H 0.9787 0.89032 0.45585 0.0
O70 O 0.9399 0.84882 0.47381 0.0
H71 H 0.06368 0.83232 0.47353 0.0
H72 H 0.96592 0.75808 0.45179 0.0
H73 H 0.96839 0.80506 0.57655 0.0
H74 H 0.02224 0.82556 0.51463 0.0
H75 H 0.97101 0.80957 0.45605 0.0
O76 O 0.97163 0.94529 0.54999 0.0
H77 H 0.97039 0.89513 0.65325 0.0
H78 H 0.93799 0.96735 0.59773 0.0
H79 H 0.96476 0.75339 0.57357 0.0
H80 H 0.01968 0.89797 0.41441 0.0
H81 H 0.96239 0.72967 0.51081 0.0
H82 H 0.06261 0.86879 0.42298 0.0
O83 O 0.93204 0.84444 0.55258 0.0
H84 H 0.88222 0.95456 0.49076 0.0
H85 H 0.90053 0.90733 0.61303 0.0
H86 H 0.85218 0.92205 0.59709 0.0
H87 H 0.84277 0.94591 0.53559 0.0
H88 H 0.93019 0.93919 0.50762 0.0
H89 H 0.93555 0.99259 0.65883 0.0
H90 H 0.95056 0.96852 0.71814 0.0
O91 O 0.94049 0.87505 0.59915 0.0
C92 C 0.00372 0.8714 0.58471 0.0
C93 C 0.96138 0.93002 0.68951 0.0
C94 C 0.94314 0.97113 0.65792 0.0
N95 N 0.954 0.92956 0.62203 0.0
C96 C 0.96253 0.91632 0.65445 0.0
C97 C 0.9446 0.95672 0.62339 0.0
C98 C 0.95156 0.95762 0.69118 0.0
C99 C 0.99705 0.87729 0.45959 0.0
N100 N 0.99771 0.85708 0.48718 0.0
C101 C 0.02032 0.88183 0.43611 0.0
C102 C 0.04442 0.8655 0.44097 0.0
C103 C 0.04503 0.84504 0.46929 0.0
C104 C 0.02143 0.84123 0.4924 0.0
C105 C 0.96663 0.76822 0.4793 0.0
C106 C 0.96853 0.79484 0.54915 0.0
C107 C 0.9696 0.79738 0.48191 0.0
N108 N 0.96964 0.81043 0.51653 0.0
C109 C 0.96608 0.76558 0.54764 0.0
C110 C 0.96466 0.75228 0.51243 0.0
C111 C 0.92933 0.85235 0.58681 0.0
C112 C 0.88604 0.94412 0.51761 0.0
C113 C 0.89658 0.91736 0.58599 0.0
C114 C 0.86917 0.92582 0.57723 0.0
C115 C 0.86391 0.93925 0.54275 0.0
N116 N 0.91817 0.92209 0.56109 0.0
C117 C 0.91318 0.93539 0.52734 0.0
Co118 Co 0.40673 0.71457 0.76563 0.0
Co119 Co 0.35012 0.70892 0.82366 0.0
O120 O 0.36631 0.71001 0.77251 0.0
C121 C 0.39971 0.66457 0.71218 0.0
O122 O 0.39382 0.64686 0.73969 0.0
C123 C 0.30928 0.74357 0.77875 0.0
O124 O 0.33053 0.75888 0.76681 0.0
O125 O 0.36462 0.74763 0.8323 0.0
O126 O 0.40879 0.74134 0.81063 0.0
H127 H 0.34794 0.72873 0.96392 0.0
H128 H 0.36524 0.72807 0.70539 0.0
O129 O 0.40462 0.69031 0.71937 0.0
H130 H 0.42796 0.81057 0.71202 0.0
H131 H 0.49667 0.70567 0.69155 0.0
H132 H 0.45502 0.71706 0.81882 0.0
H133 H 0.43582 0.76959 0.75344 0.0
H134 H 0.44611 0.7159 0.69869 0.0
O135 O 0.31365 0.72361 0.8022 0.0
H136 H 0.36886 0.72791 0.89988 0.0
H137 H 0.29447 0.69119 0.85508 0.0
H138 H 0.50593 0.70841 0.8128 0.0
H139 H 0.35661 0.76853 0.66312 0.0
H140 H 0.52692 0.70146 0.74887 0.0
H141 H 0.38806 0.81023 0.66634 0.0
O142 O 0.41324 0.68148 0.79887 0.0
H143 H 0.30504 0.6322 0.74662 0.0
H144 H 0.3521 0.65518 0.86762 0.0
H145 H 0.33676 0.60644 0.85545 0.0
H146 H 0.31296 0.59471 0.79463 0.0
H147 H 0.32095 0.68061 0.75981 0.0
H148 H 0.27252 0.69192 0.91854 0.0
H149 H 0.29937 0.71064 0.97359 0.0
O150 O 0.3858 0.69361 0.84728 0.0
C151 C 0.39043 0.75526 0.82987 0.0
C152 C 0.33607 0.72036 0.94022 0.0
C153 C 0.29374 0.69975 0.91474 0.0
N154 N 0.33313 0.70908 0.87384 0.0
C155 C 0.34789 0.71971 0.90391 0.0
C156 C 0.30626 0.69943 0.87884 0.0
C157 C 0.30881 0.71025 0.94561 0.0
C158 C 0.37886 0.74623 0.70724 0.0
N159 N 0.40059 0.74676 0.73269 0.0
C160 C 0.37393 0.76904 0.68311 0.0
C161 C 0.39158 0.79243 0.68493 0.0
C162 C 0.41392 0.79267 0.7106 0.0
C163 C 0.41814 0.76949 0.73432 0.0
C164 C 0.48769 0.70828 0.7196 0.0
C165 C 0.46411 0.71536 0.7908 0.0
C166 C 0.45905 0.71423 0.72384 0.0
N167 N 0.44738 0.71674 0.7592 0.0
C168 C 0.49293 0.70995 0.78761 0.0
C169 C 0.50466 0.7059 0.75176 0.0
C170 C 0.40711 0.68056 0.83397 0.0
C171 C 0.3153 0.63707 0.77328 0.0
C172 C 0.34184 0.65023 0.84103 0.0
C173 C 0.33314 0.6226 0.83434 0.0
C174 C 0.31978 0.61604 0.80021 0.0
N175 N 0.33723 0.67077 0.81456 0.0
C176 C 0.32427 0.66446 0.78096 0.0
Co177 Co 0.5381 0.15676 0.0131 0.0
Co178 Co 0.55094 0.10187 0.07276 0.0
O179 O 0.54611 0.11714 0.02161 0.0
C180 C 0.58588 0.14679 0.95818 0.0
O181 O 0.60221 0.13731 0.98543 0.0
C182 C 0.514 0.06103 0.0328 0.0
O183 O 0.49822 0.08263 0.02352 0.0
O184 O 0.51249 0.11528 0.08631 0.0
O185 O 0.51324 0.15842 0.05993 0.0
H186 H 0.54441 0.10271 0.21528 0.0
H187 H 0.52648 0.11414 0.95359 0.0
O188 O 0.56108 0.15529 0.96553 0.0
H189 H 0.43709 0.1653 0.97128 0.0
H190 H 0.5343 0.24316 0.93164 0.0
H191 H 0.53533 0.20691 0.06285 0.0
H192 H 0.47932 0.17825 0.00817 0.0
H193 H 0.52859 0.19246 0.94412 0.0
O194 O 0.53551 0.06486 0.05388 0.0
H195 H 0.54 0.12263 0.15089 0.0
H196 H 0.56984 0.04632 0.10282 0.0
H197 H 0.5407 0.2578 0.05168 0.0
H198 H 0.48484 0.10048 0.91592 0.0
H199 H 0.54147 0.27608 0.98557 0.0
H200 H 0.43971 0.12608 0.92474 0.0
O201 O 0.5718 0.16716 0.04339 0.0
H202 H 0.62321 0.05725 0.9877 0.0
H203 H 0.60742 0.10583 0.10961 0.0
H204 H 0.65555 0.09152 0.09179 0.0
H205 H 0.66368 0.06699 0.03046 0.0
H206 H 0.57546 0.07216 0.00649 0.0
H207 H 0.57434 0.02545 0.16672 0.0
H208 H 0.56167 0.05375 0.22352 0.0
O209 O 0.56693 0.13839 0.09296 0.0
C210 C 0.50241 0.14008 0.08246 0.0
C211 C 0.55008 0.09018 0.19077 0.0
C212 C 0.56683 0.04682 0.16351 0.0
N213 N 0.55484 0.08575 0.12314 0.0
C214 C 0.54771 0.10139 0.15423 0.0
C215 C 0.56417 0.05873 0.12739 0.0
C216 C 0.55974 0.06271 0.19537 0.0
C217 C 0.50692 0.12541 0.95752 0.0
N218 N 0.50522 0.14682 0.98331 0.0
C219 C 0.48342 0.11757 0.93613 0.0
C220 C 0.4581 0.13193 0.94112 0.0
C221 C 0.4566 0.1539 0.96726 0.0
C222 C 0.48052 0.16109 0.98821 0.0
C223 C 0.53447 0.23538 0.96054 0.0
C224 C 0.53447 0.2148 0.03409 0.0
C225 C 0.53097 0.2067 0.96783 0.0
N226 N 0.53207 0.19662 0.00419 0.0
C227 C 0.53799 0.24361 0.02791 0.0
C228 C 0.53853 0.25384 0.99082 0.0
C229 C 0.57665 0.16085 0.0779 0.0
C230 C 0.61993 0.06784 0.01455 0.0
C231 C 0.61079 0.09524 0.08284 0.0
C232 C 0.63809 0.08713 0.07293 0.0
C233 C 0.64263 0.07335 0.03853 0.0
N234 N 0.58862 0.08971 0.0592 0.0
C235 C 0.59292 0.07624 0.02541 0.0
Co236 Co 0.10062 0.71339 0.24274 0.0
Co237 Co 0.15558 0.7041 0.18194 0.0
O238 O 0.14049 0.70598 0.2338 0.0
C239 C 0.11839 0.67248 0.3054 0.0
O240 O 0.14458 0.67118 0.29368 0.0
C241 C 0.19731 0.73815 0.22516 0.0
O242 O 0.17612 0.75358 0.237 0.0
O243 O 0.14266 0.7432 0.17287 0.0
O244 O 0.09932 0.7405 0.19818 0.0
H245 H 0.1538 0.71903 0.04052 0.0
H246 H 0.14387 0.72409 0.30303 0.0
O247 O 0.10023 0.68735 0.28778 0.0
H248 H 0.08963 0.81204 0.29214 0.0
H249 H 0.01313 0.71738 0.32263 0.0
H250 H 0.05083 0.71706 0.19214 0.0
H251 H 0.07833 0.77132 0.25165 0.0
H252 H 0.06422 0.72115 0.31135 0.0
O253 O 0.1928 0.71807 0.20194 0.0
H254 H 0.1342 0.71946 0.10533 0.0
H255 H 0.21071 0.68644 0.14913 0.0
H256 H 0.99956 0.71355 0.20215 0.0
H257 H 0.15576 0.76406 0.34432 0.0
H258 H 0.98053 0.71259 0.26787 0.0
H259 H 0.12856 0.80852 0.33909 0.0
O260 O 0.09089 0.68105 0.20978 0.0
H261 H 0.20281 0.62691 0.25596 0.0
H262 H 0.14962 0.64996 0.13971 0.0
H263 H 0.16422 0.60096 0.15137 0.0
H264 H 0.19109 0.58917 0.20981 0.0
H265 H 0.18751 0.67559 0.2434 0.0
H266 H 0.23127 0.68591 0.08482 0.0
H267 H 0.20271 0.70224 0.02992 0.0
O268 O 0.11878 0.68989 0.16025 0.0
C269 C 0.11772 0.75273 0.17713 0.0
C270 C 0.16645 0.71183 0.06419 0.0
C271 C 0.20995 0.69332 0.08907 0.0
N272 N 0.17132 0.70307 0.13107 0.0
C273 C 0.15544 0.71196 0.10099 0.0
C274 C 0.19825 0.6938 0.12547 0.0
C275 C 0.1939 0.70245 0.05828 0.0
C276 C 0.13159 0.74305 0.3009 0.0
N277 N 0.11 0.74504 0.27537 0.0
C278 C 0.13858 0.76578 0.32422 0.0
C279 C 0.12337 0.79074 0.32121 0.0
C280 C 0.10155 0.79273 0.29489 0.0
C281 C 0.09522 0.76959 0.27201 0.0
C282 C 0.02123 0.71741 0.29388 0.0
C283 C 0.04265 0.71763 0.22076 0.0
C284 C 0.05013 0.71979 0.28728 0.0
N285 N 0.06057 0.71905 0.25109 0.0
C286 C 0.01361 0.71527 0.22627 0.0
C287 C 1.00293 0.71469 0.26313 0.0
C288 C 0.09705 0.67841 0.17488 0.0
C289 C 0.19109 0.63177 0.23041 0.0
C290 C 0.16105 0.64498 0.1654 0.0
C291 C 0.16939 0.6172 0.17175 0.0
C292 C 0.18449 0.6106 0.20452 0.0
N293 N 0.16754 0.66562 0.19099 0.0
C294 C 0.18239 0.65932 0.22312 0.0
Co295 Co 0.53972 0.85107 0.48641 0.0
Co296 Co 0.54891 0.9081 0.42803 0.0
O297 O 0.54627 0.89117 0.47884 0.0
C298 C 0.58023 0.86902 0.54914 0.0
O299 O 0.5813 0.8949 0.53642 0.0
C300 C 0.5122 0.94678 0.47203 0.0
O301 O 0.49725 0.92464 0.48147 0.0
O302 O 0.51046 0.89407 0.41585 0.0
O303 O 0.51216 0.85075 0.44231 0.0
H304 H 0.53761 0.91301 0.28605 0.0
H305 H 0.52817 0.89386 0.54695 0.0
O306 O 0.56618 0.85024 0.53139 0.0
H307 H 0.44273 0.83533 0.53991 0.0
H308 H 0.53699 0.76098 0.56151 0.0
H309 H 0.5351 0.80292 0.43341 0.0
H310 H 0.48282 0.82624 0.49725 0.0
H311 H 0.53439 0.81242 0.55343 0.0
O312 O 0.53317 0.94394 0.44976 0.0
H313 H 0.53559 0.89058 0.34915 0.0
H314 H 0.56612 0.96498 0.40098 0.0
H315 H 0.53707 0.75134 0.44025 0.0
H316 H 0.48856 0.90383 0.58977 0.0
H317 H 0.53894 0.7301 0.50466 0.0
H318 H 0.4454 0.87441 0.58659 0.0
O319 O 0.57187 0.84254 0.45245 0.0
H320 H 0.62262 0.95609 0.5077 0.0
H321 H 0.60446 0.90429 0.38885 0.0
H322 H 0.65274 0.91988 0.40365 0.0
H323 H 0.66208 0.94603 0.46341 0.0
H324 H 0.57474 0.93983 0.49203 0.0
H325 H 0.56835 0.98849 0.33862 0.0
H326 H 0.55413 0.96244 0.28052 0.0
O327 O 0.56457 0.87251 0.40458 0.0
C328 C 0.50074 0.86922 0.42055 0.0
C329 C 0.54394 0.92458 0.31111 0.0
C330 C 0.56116 0.96694 0.34062 0.0
N331 N 0.55086 0.92624 0.37864 0.0
C332 C 0.54287 0.91189 0.34687 0.0
C333 C 0.55979 0.95351 0.37588 0.0
C334 C 0.55319 0.95231 0.30804 0.0
C335 C 0.50974 0.8807 0.54552 0.0
N336 N 0.50823 0.85906 0.52006 0.0
C337 C 0.48723 0.88658 0.56979 0.0
C338 C 0.463 0.87011 0.56794 0.0
C339 C 0.4615 0.84818 0.54179 0.0
C340 C 0.48435 0.84306 0.5178 0.0
C341 C 0.53651 0.77002 0.53329 0.0
C342 C 0.535 0.79383 0.46155 0.0
C343 C 0.53489 0.79915 0.52851 0.0
N344 N 0.53476 0.81075 0.49294 0.0
C345 C 0.53647 0.7646 0.46523 0.0
C346 C 0.53763 0.7527 0.50138 0.0
C347 C 0.57488 0.84973 0.41792 0.0
C348 C 0.61884 0.94466 0.4816 0.0
C349 C 0.60838 0.91534 0.41516 0.0
C350 C 0.63575 0.92427 0.42326 0.0
C351 C 0.64097 0.93899 0.45676 0.0
N352 N 0.58679 0.92084 0.43976 0.0
C353 C 0.59173 0.93542 0.47253 0.0
Co354 Co 0.40592 0.29057 0.7401 0.0
Co355 Co 0.34951 0.30036 0.68121 0.0
O356 O 0.36599 0.29816 0.73219 0.0
C357 C 0.38922 0.33181 0.80272 0.0
O358 O 0.36312 0.33367 0.7908 0.0
C359 C 0.31035 0.26395 0.7247 0.0
O360 O 0.33254 0.24906 0.73419 0.0
O361 O 0.36319 0.26165 0.66987 0.0
O362 O 0.40645 0.26366 0.69562 0.0
H363 H 0.34664 0.2872 0.53953 0.0
H364 H 0.36329 0.2804 0.80125 0.0
O365 O 0.40711 0.31659 0.78518 0.0
H366 H 0.41604 0.19164 0.78919 0.0
H367 H 0.49431 0.28236 0.81806 0.0
H368 H 0.455 0.28619 0.68846 0.0
H369 H 0.42783 0.23233 0.74892 0.0
H370 H 0.44294 0.28216 0.80794 0.0
O371 O 0.31325 0.28497 0.70251 0.0
H372 H 0.36808 0.28551 0.60328 0.0
H373 H 0.29314 0.31777 0.65223 0.0
H374 H 0.50647 0.28592 0.69728 0.0
H375 H 0.35095 0.2404 0.84227 0.0
H376 H 0.52642 0.28492 0.76259 0.0
H377 H 0.37735 0.19553 0.83641 0.0
O378 O 0.4156 0.32272 0.70653 0.0
H379 H 0.30186 0.37493 0.75949 0.0
H380 H 0.35359 0.35543 0.64094 0.0
H381 H 0.33814 0.40385 0.65482 0.0
H382 H 0.31202 0.41386 0.71443 0.0
H383 H 0.31798 0.32688 0.7447 0.0
H384 H 0.27063 0.31951 0.58911 0.0
H385 H 0.29748 0.30427 0.53215 0.0
O386 O 0.38551 0.31582 0.65852 0.0
C387 C 0.38816 0.25204 0.67387 0.0
C388 C 0.33478 0.29411 0.56406 0.0
C389 C 0.2921 0.31215 0.59191 0.0
N390 N 0.33212 0.30195 0.63134 0.0
C391 C 0.34692 0.29338 0.60019 0.0
C392 C 0.30495 0.31108 0.6276 0.0
C393 C 0.30718 0.30361 0.55996 0.0
C394 C 0.37524 0.26124 0.79883 0.0
N395 N 0.3966 0.25901 0.77299 0.0
C396 C 0.368 0.23851 0.82202 0.0
C397 C 0.38276 0.21331 0.81865 0.0
C398 C 0.40444 0.21111 0.79216 0.0
C399 C 0.41101 0.23425 0.76938 0.0
C400 C 0.48585 0.28316 0.78952 0.0
C401 C 0.46351 0.28497 0.71689 0.0
C402 C 0.45678 0.28288 0.78357 0.0
N403 N 0.44595 0.28436 0.74762 0.0
C404 C 0.49269 0.2852 0.72174 0.0
C405 C 0.50386 0.28469 0.75836 0.0
C406 C 0.40832 0.32608 0.67204 0.0
C407 C 0.31325 0.37085 0.73344 0.0
C408 C 0.3425 0.35964 0.66714 0.0
C409 C 0.33367 0.38709 0.67475 0.0
C410 C 0.31898 0.39268 0.70817 0.0
N411 N 0.33688 0.33834 0.69213 0.0
C412 C 0.32239 0.34366 0.72487 0.0
Co413 Co 0.9661 0.15393 0.99371 0.0
Co414 Co 0.95688 0.09876 0.93299 0.0
O415 O 0.95887 0.11409 0.98466 0.0
C416 C 0.92517 0.1357 0.05599 0.0
O417 O 0.92323 0.10996 0.0429 0.0
C418 C 0.99284 0.05875 0.97564 0.0
O419 O 0.00762 0.08076 0.98609 0.0
O420 O 0.99563 0.1125 0.92286 0.0
O421 O 0.99313 0.15551 0.94907 0.0
H422 H 0.96931 0.10034 0.79112 0.0
H423 H 0.97677 0.11066 0.05384 0.0
O424 O 0.94012 0.15408 0.03891 0.0
H425 H 0.06517 0.16422 0.04248 0.0
H426 H 0.97118 0.24116 0.07399 0.0
H427 H 0.96924 0.2038 0.94336 0.0
H428 H 0.0242 0.17606 1.00258 0.0
H429 H 0.97423 0.19009 0.06244 0.0
O430 O 0.97205 0.06204 0.95312 0.0
H431 H 0.97027 0.12023 0.85574 0.0
H432 H 0.94095 0.04283 0.9013 0.0
H433 H 0.96617 0.25501 0.95364 0.0
H434 H 0.017 0.0982 0.09447 0.0
H435 H 0.96613 0.2739 0.01942 0.0
H436 H 0.0617 0.12502 0.08897 0.0
O437 O 0.93365 0.16364 0.96078 0.0
H438 H 0.88146 0.04989 0.00848 0.0
H439 H 0.90212 0.10359 0.8919 0.0
H440 H 0.8535 0.08802 0.90451 0.0
H441 H 0.84291 0.06091 0.96314 0.0
H442 H 0.92974 0.06612 0.99495 0.0
H443 H 0.93989 0.02202 0.83714 0.0
H444 H 0.95409 0.05086 0.78148 0.0
O445 O 0.94168 0.13518 0.9115 0.0
C446 C 0.00511 0.13742 0.92735 0.0
C447 C 0.963 0.08758 0.81513 0.0
C448 C 0.94656 0.0436 0.84097 0.0
N449 N 0.95563 0.08275 0.8823 0.0
C450 C 0.96342 0.09876 0.85181 0.0
C451 C 0.9473 0.05548 0.87725 0.0
C452 C 0.9545 0.0598 0.80975 0.0
C453 C 0.99584 0.12281 0.05162 0.0
N454 N 0.99783 0.14448 0.02625 0.0
C455 C 0.0187 0.11549 0.07457 0.0
C456 C 0.0438 0.13049 0.0714 0.0
C457 C 0.04576 0.15246 0.04533 0.0
C458 C 0.02248 0.1591 0.0228 0.0
C459 C 0.9708 0.23313 0.04522 0.0
C460 C 0.9701 0.2119 0.97201 0.0
C461 C 0.97278 0.20425 0.03847 0.0
N462 N 0.97169 0.19392 1.00224 0.0
C463 C 0.968 0.24091 0.97767 0.0
C464 C 0.96793 0.2515 0.01458 0.0
C465 C 0.93061 0.15717 0.92602 0.0
C466 C 0.8858 0.06171 0.98285 0.0
C467 C 0.89766 0.09204 0.91766 0.0
C468 C 0.8701 0.08316 0.92455 0.0
C469 C 0.86417 0.06792 0.95742 0.0
N470 N 0.91875 0.08596 0.94282 0.0
C471 C 0.91312 0.07093 0.97501 0.0
Co472 Co 0.90532 0.72118 0.74969 0.0
Co473 Co 0.85101 0.71212 0.68755 0.0
O474 O 0.86577 0.71407 0.73933 0.0
C475 C 0.89749 0.66964 0.79937 0.0
O476 O 0.89103 0.65346 0.77042 0.0
C477 C 0.8097 0.74697 0.73002 0.0
O478 O 0.83112 0.76252 0.74072 0.0
O479 O 0.86467 0.75103 0.67796 0.0
O480 O 0.90746 0.74922 0.70593 0.0
H481 H 0.85327 0.7249 0.54571 0.0
H482 H 0.85966 0.73 0.80595 0.0
O483 O 0.90322 0.69549 0.79441 0.0
H484 H 0.91663 0.81661 0.81033 0.0
H485 H 0.99151 0.72047 0.83252 0.0
H486 H 0.9559 0.72535 0.7011 0.0
H487 H 0.93019 0.77717 0.76881 0.0
H488 H 0.94077 0.72637 0.82005 0.0
O489 O 0.81384 0.72643 0.70741 0.0
H490 H 0.87281 0.72593 0.61055 0.0
H491 H 0.79542 0.69563 0.65513 0.0
H492 H 0.00675 0.719 0.71232 0.0
H493 H 0.84536 0.76869 0.84832 0.0
H494 H 0.02476 0.71564 0.77841 0.0
H495 H 0.87381 0.81252 0.85052 0.0
O496 O 0.91581 0.6894 0.71585 0.0
H497 H 0.80621 0.63524 0.76469 0.0
H498 H 0.85548 0.65794 0.64523 0.0
H499 H 0.84136 0.60893 0.65809 0.0
H500 H 0.81649 0.59733 0.71817 0.0
H501 H 0.82088 0.68394 0.75081 0.0
H502 H 0.77496 0.69445 0.59074 0.0
H503 H 0.80398 0.70908 0.53546 0.0
O504 O 0.88766 0.6976 0.66629 0.0
C505 C 0.8894 0.76096 0.68364 0.0
C506 C 0.84041 0.71846 0.56956 0.0
C507 C 0.79645 0.70142 0.59485 0.0
N508 N 0.83528 0.71092 0.63666 0.0
C509 C 0.85137 0.71899 0.60638 0.0
C510 C 0.80812 0.70225 0.63127 0.0
C511 C 0.81275 0.70961 0.56384 0.0
C512 C 0.872 0.7491 0.80636 0.0
N513 N 0.89514 0.75183 0.78354 0.0
C514 C 0.86386 0.77089 0.83061 0.0
C515 C 0.87983 0.79547 0.83183 0.0
C516 C 0.90378 0.79782 0.8092 0.0
C517 C 0.91119 0.7756 0.78527 0.0
C518 C 0.98386 0.72156 0.80358 0.0
C519 C 0.96364 0.72477 0.72997 0.0
C520 C 0.95517 0.72521 0.79632 0.0
N521 N 0.94528 0.72605 0.75982 0.0
C522 C 0.99242 0.72075 0.73613 0.0
C523 C 1.0025 0.71876 0.77322 0.0
C524 C 0.90964 0.68667 0.68093 0.0
C525 C 0.81694 0.64005 0.73835 0.0
C526 C 0.84467 0.65307 0.67144 0.0
C527 C 0.8367 0.62528 0.67855 0.0
C528 C 0.82275 0.61878 0.71226 0.0
N529 N 0.83882 0.67382 0.69713 0.0
C530 C 0.82521 0.6676 0.73027 0.0
Co531 Co 0.04149 0.15014 0.494 0.0
Co532 Co 0.05097 0.10098 0.42411 0.0
O533 O 0.04926 0.11205 0.47723 0.0
C534 C 0.08975 0.15785 0.54745 0.0
O535 O 0.09938 0.1777 0.52498 0.0
C536 C 0.01431 0.05879 0.46138 0.0
O537 O 0.9992 0.08013 0.47342 0.0
O538 O 0.0126 0.11661 0.41545 0.0
O539 O 0.01359 0.15627 0.45074 0.0
H540 H 0.03966 0.11389 0.28311 0.0
H541 H 0.03493 0.10087 0.54509 0.0
O542 O 0.06813 0.14366 0.53769 0.0
H543 H 0.94393 0.15065 0.55038 0.0
H544 H 0.03308 0.22493 0.59442 0.0
H545 H 0.03953 0.20627 0.45714 0.0
H546 H 0.98306 0.16915 0.51173 0.0
H547 H 0.03091 0.17645 0.57001 0.0
O548 O 0.0351 0.06327 0.43925 0.0
H549 H 0.03885 0.12873 0.35017 0.0
H550 H 0.06575 0.04747 0.38484 0.0
H551 H 0.0431 0.25503 0.48021 0.0
H552 H 0.99662 0.08178 0.58469 0.0
H553 H 0.04051 0.26458 0.54951 0.0
H554 H 0.95065 0.10665 0.58739 0.0
O555 O 0.07259 0.16441 0.46099 0.0
H556 H 0.12529 0.04677 0.49477 0.0
H557 H 0.10573 0.10675 0.3835 0.0
H558 H 0.15397 0.08922 0.39427 0.0
H559 H 0.16397 0.0589 0.45016 0.0
H560 H 0.07744 0.06499 0.48315 0.0
H561 H 0.06664 0.03166 0.31813 0.0
H562 H 0.05359 0.065 0.26669 0.0
O563 O 0.06688 0.13837 0.40842 0.0
C564 C 1.00279 0.1408 0.42441 0.0
C565 C 0.04538 0.09915 0.30525 0.0
C566 C 0.06047 0.05299 0.32492 0.0
N567 N 0.05211 0.08895 0.37145 0.0
C568 C 0.04498 0.10744 0.34331 0.0
C569 C 0.05979 0.06202 0.36266 0.0
C570 C 0.05317 0.07172 0.29607 0.0
C571 C 0.015 0.11184 0.54611 0.0
N572 N 0.01106 0.13592 0.52554 0.0
C573 C 0.99338 0.10091 0.56859 0.0
C574 C 0.96759 0.11485 0.57006 0.0
C575 C 0.96378 0.13949 0.54923 0.0
C576 C 0.98588 0.14975 0.52702 0.0
C577 C 0.03454 0.22104 0.56418 0.0
C578 C 0.03798 0.21025 0.48711 0.0
C579 C 0.03298 0.19361 0.55012 0.0
N580 N 0.03539 0.1884 0.51203 0.0
C581 C 0.04025 0.2379 0.50013 0.0
C582 C 0.03881 0.24324 0.53901 0.0
C583 C 0.07658 0.15986 0.42571 0.0
C584 C 0.12118 0.05989 0.47025 0.0
C585 C 0.10994 0.09366 0.40797 0.0
C586 C 0.13728 0.08374 0.41387 0.0
C587 C 0.14288 0.06672 0.44523 0.0
N588 N 0.08874 0.08673 0.43251 0.0
C589 C 0.0941 0.0702 0.46345 0.0
Co590 Co 0.60019 0.2855 0.24492 0.0
Co591 Co 0.65448 0.30182 0.18483 0.0
O592 O 0.63949 0.29509 0.23587 0.0
C593 C 0.60868 0.3341 0.29867 0.0
O594 O 0.61778 0.35019 0.27095 0.0
C595 C 0.69754 0.26575 0.22323 0.0
O596 O 0.67699 0.24902 0.23386 0.0
O597 O 0.64208 0.26346 0.16907 0.0
O598 O 0.59983 0.26013 0.19856 0.0
H599 H 0.65361 0.29982 0.042 0.0
H600 H 0.64431 0.2762 0.30325 0.0
O601 O 0.60074 0.30902 0.29201 0.0
H602 H 0.59374 0.18594 0.2927 0.0
H603 H 0.51396 0.27807 0.32661 0.0
H604 H 0.55015 0.2799 0.19538 0.0
H605 H 0.58011 0.22646 0.25289 0.0
H606 H 0.56496 0.27513 0.31423 0.0
O607 O 0.69209 0.28707 0.20249 0.0
H608 H 0.634 0.29281 0.10613 0.0
H609 H 0.70895 0.32448 0.15569 0.0
H610 H 0.49898 0.28286 0.2065 0.0
H611 H 0.6589 0.23615 0.34325 0.0
H612 H 0.4807 0.2833 0.27259 0.0
H613 H 0.63351 0.19061 0.33814 0.0
O614 O 0.58784 0.31837 0.21435 0.0
H615 H 0.69771 0.37244 0.27364 0.0
H616 H 0.64843 0.35934 0.1516 0.0
H617 H 0.6614 0.40717 0.17221 0.0
H618 H 0.6863 0.41395 0.23362 0.0
H619 H 0.68404 0.32501 0.25214 0.0
H620 H 0.72962 0.33166 0.09219 0.0
H621 H 0.70184 0.31937 0.03471 0.0
O622 O 0.61756 0.31716 0.16543 0.0
C623 C 0.61824 0.25148 0.17445 0.0
C624 C 0.666 0.30513 0.0668 0.0
C625 C 0.70864 0.32299 0.09496 0.0
N626 N 0.67039 0.30788 0.13466 0.0
C627 C 0.655 0.3011 0.10319 0.0
C628 C 0.69691 0.3187 0.13089 0.0
C629 C 0.69304 0.31612 0.06273 0.0
C630 C 0.63332 0.25638 0.30064 0.0
N631 N 0.6116 0.25354 0.27546 0.0
C632 C 0.64162 0.2338 0.32345 0.0
C633 C 0.62735 0.20827 0.32058 0.0
C634 C 0.60505 0.20563 0.29508 0.0
C635 C 0.59746 0.22862 0.27258 0.0
C636 C 0.52173 0.27842 0.29771 0.0
C637 C 0.5423 0.27889 0.22416 0.0
C638 C 0.55059 0.27649 0.29048 0.0
N639 N 0.5606 0.27775 0.25409 0.0
C640 C 0.51332 0.28104 0.2303 0.0
C641 C 0.50307 0.28138 0.26738 0.0
C642 C 0.59436 0.32485 0.18044 0.0
C643 C 0.68694 0.36975 0.24677 0.0
C644 C 0.65912 0.36211 0.17842 0.0
C645 C 0.6665 0.38924 0.1899 0.0
C646 C 0.68049 0.39303 0.22434 0.0
N647 N 0.66556 0.33936 0.20055 0.0
C648 C 0.67925 0.34292 0.23437 0.0
Co649 Co 0.464 0.85089 0.98935 0.0
Co650 Co 0.45728 0.90658 0.92944 0.0
O651 O 0.45922 0.89129 0.98121 0.0
C652 C 0.42637 0.87104 0.05445 0.0
O653 O 0.42668 0.8973 0.04299 0.0
C654 C 0.49277 0.94775 0.97256 0.0
O655 O 0.50743 0.92647 0.98579 0.0
O656 O 0.49569 0.89145 0.91925 0.0
O657 O 0.48924 0.84805 0.94286 0.0
H658 H 0.47218 0.90451 0.78805 0.0
H659 H 0.47983 0.89219 0.04997 0.0
O660 O 0.43948 0.85201 0.03602 0.0
H661 H 0.56361 0.83267 0.03125 0.0
H662 H 0.46792 0.76295 0.06873 0.0
H663 H 0.46294 0.80095 0.93867 0.0
H664 H 0.52076 0.82481 0.99325 0.0
H665 H 0.4714 0.81397 0.05744 0.0
O666 O 0.47308 0.94328 0.94868 0.0
H667 H 0.47253 0.88509 0.85293 0.0
H668 H 0.44025 0.96187 0.89643 0.0
H669 H 0.46065 0.74975 0.94845 0.0
H670 H 0.52207 0.90061 0.08876 0.0
H671 H 0.4623 0.73043 0.01412 0.0
H672 H 0.56444 0.87073 0.07957 0.0
O673 O 0.42992 0.84373 0.95809 0.0
H674 H 0.3835 0.95716 0.00568 0.0
H675 H 0.40222 0.90339 0.88862 0.0
H676 H 0.35412 0.92036 0.90159 0.0
H677 H 0.34451 0.94754 0.96043 0.0
H678 H 0.43121 0.93953 0.99181 0.0
H679 H 0.43977 0.98226 0.83203 0.0
H680 H 0.45573 0.95347 0.77723 0.0
O681 O 0.44096 0.8706 0.90841 0.0
C682 C 0.50248 0.86544 0.92135 0.0
C683 C 0.46512 0.91725 0.81167 0.0
C684 C 0.44698 0.9609 0.83636 0.0
N685 N 0.45633 0.92227 0.87851 0.0
C686 C 0.46522 0.90634 0.84851 0.0
C687 C 0.44739 0.94927 0.87281 0.0
C688 C 0.45592 0.94473 0.80563 0.0
C689 C 0.49787 0.87879 0.04612 0.0
N690 N 0.49746 0.85765 0.01985 0.0
C691 C 0.5219 0.8838 0.06803 0.0
C692 C 0.54568 0.86708 0.0628 0.0
C693 C 0.54524 0.84574 0.03569 0.0
C694 C 0.52087 0.84139 0.01426 0.0
C695 C 0.4669 0.77111 0.04005 0.0
C696 C 0.46451 0.79272 0.96713 0.0
C697 C 0.46899 0.8 0.03343 0.0
N698 N 0.46727 0.81054 0.99733 0.0
C699 C 0.46282 0.76368 0.97258 0.0
C700 C 0.46364 0.75288 0.00938 0.0
C701 C 0.42807 0.84964 0.92299 0.0
C702 C 0.3874 0.94533 0.97995 0.0
C703 C 0.39818 0.91496 0.91447 0.0
C704 C 0.37091 0.92463 0.92157 0.0
C705 C 0.36554 0.93991 0.95457 0.0
N706 N 0.41952 0.92035 0.93953 0.0
C707 C 0.4144 0.93532 0.97191 0.0
Co708 Co 0.90636 0.2833 0.76029 0.0
Co709 Co 0.85253 0.29854 0.82116 0.0
O710 O 0.8672 0.29293 0.76992 0.0
C711 C 0.89786 0.3315 0.70574 0.0
O712 O 0.89009 0.34829 0.73344 0.0
C713 C 0.81116 0.26094 0.78371 0.0
O714 O 0.83265 0.24482 0.77499 0.0
O715 O 0.86574 0.26025 0.83595 0.0
O716 O 0.90793 0.25868 0.807 0.0
H717 H 0.85529 0.29506 0.96384 0.0
H718 H 0.86186 0.27349 0.70264 0.0
O719 O 0.90517 0.30628 0.7127 0.0
H720 H 0.90938 0.18202 0.71864 0.0
H721 H 0.99084 0.27115 0.67607 0.0
H722 H 0.95739 0.27892 0.80824 0.0
H723 H 0.92512 0.22357 0.75478 0.0
H724 H 0.94001 0.2709 0.69036 0.0
O725 O 0.81525 0.283 0.80356 0.0
H726 H 0.87435 0.28924 0.89919 0.0
H727 H 0.79732 0.31806 0.85176 0.0
H728 H 0.00834 0.27904 0.79527 0.0
H729 H 0.84551 0.23256 0.66567 0.0
H730 H 0.02533 0.27655 0.72858 0.0
H731 H 0.86927 0.18638 0.67366 0.0
O732 O 0.91885 0.31643 0.79041 0.0
H733 H 0.80731 0.3694 0.7345 0.0
H734 H 0.857 0.35558 0.85609 0.0
H735 H 0.84266 0.40337 0.83697 0.0
H736 H 0.81755 0.41051 0.77579 0.0
H737 H 0.82227 0.32199 0.75459 0.0
H738 H 0.7773 0.32395 0.91594 0.0
H739 H 0.8064 0.31251 0.97254 0.0
O740 O 0.88937 0.3146 0.83983 0.0
C741 C 0.88999 0.24913 0.83099 0.0
C742 C 0.84242 0.30018 0.93942 0.0
C743 C 0.79864 0.31635 0.91252 0.0
N744 N 0.83704 0.30346 0.87173 0.0
C745 C 0.85313 0.29701 0.90272 0.0
C746 C 0.81006 0.3129 0.87625 0.0
C747 C 0.81498 0.30995 0.94427 0.0
C748 C 0.87237 0.25349 0.70617 0.0
N749 N 0.89433 0.25088 0.73102 0.0
C750 C 0.863 0.23038 0.68518 0.0
C751 C 0.87632 0.20447 0.68971 0.0
C752 C 0.89879 0.202 0.71498 0.0
C753 C 0.90755 0.22557 0.73551 0.0
C754 C 0.98367 0.27283 0.70517 0.0
C755 C 0.96462 0.27678 0.77928 0.0
C756 C 0.95491 0.27249 0.71347 0.0
N757 N 0.94571 0.27529 0.75009 0.0
C758 C 0.99351 0.27732 0.77205 0.0
C759 C 1.00302 0.27589 0.73465 0.0
C760 C 0.91233 0.3228 0.82446 0.0
C761 C 0.81817 0.36655 0.76127 0.0
C762 C 0.8462 0.35852 0.82938 0.0
C763 C 0.83805 0.38563 0.81874 0.0
C764 C 0.82395 0.38962 0.78442 0.0
N765 N 0.84039 0.33599 0.80656 0.0
C766 C 0.82661 0.33975 0.77285 0.0
Co767 Co 0.46481 0.15439 0.51084 0.0
Co768 Co 0.45552 0.10117 0.57535 0.0
O769 O 0.4569 0.11508 0.52282 0.0
C770 C 0.4224 0.1355 0.45051 0.0
O771 O 0.42194 0.10936 0.46242 0.0
C772 C 0.49012 0.05903 0.53411 0.0
O773 O 0.50579 0.08011 0.52252 0.0
O774 O 0.49463 0.11462 0.58417 0.0
O775 O 0.4938 0.15618 0.55333 0.0
H776 H 0.46976 0.10602 0.71683 0.0
H777 H 0.47382 0.10598 0.45742 0.0
O778 O 0.43701 0.15409 0.46768 0.0
H779 H 0.55934 0.16397 0.4468 0.0
H780 H 0.4687 0.24007 0.42675 0.0
H781 H 0.4721 0.20495 0.5585 0.0
H782 H 0.5208 0.17818 0.48915 0.0
H783 H 0.46981 0.18912 0.43974 0.0
O784 O 0.46964 0.0637 0.55664 0.0
H785 H 0.47026 0.12429 0.65131 0.0
H786 H 0.43852 0.04656 0.6101 0.0
H787 H 0.47102 0.25592 0.5468 0.0
H788 H 0.51153 0.09128 0.41424 0.0
H789 H 0.46839 0.27389 0.48054 0.0
H790 H 0.55486 0.12024 0.40868 0.0
O791 O 0.43402 0.16621 0.54555 0.0
H792 H 0.37824 0.05213 0.50356 0.0
H793 H 0.4014 0.10789 0.61747 0.0
H794 H 0.35235 0.09295 0.60658 0.0
H795 H 0.3405 0.06479 0.54933 0.0
H796 H 0.42696 0.0678 0.51531 0.0
H797 H 0.43788 0.02734 0.67516 0.0
H798 H 0.45353 0.05717 0.72912 0.0
O799 O 0.44134 0.13818 0.59556 0.0
C800 C 0.50506 0.13883 0.57691 0.0
C801 C 0.46294 0.09278 0.69356 0.0
C802 C 0.44509 0.04862 0.67017 0.0
N803 N 0.45465 0.08645 0.6268 0.0
C804 C 0.46318 0.10302 0.65636 0.0
C805 C 0.44565 0.05956 0.63334 0.0
C806 C 0.45384 0.06538 0.70043 0.0
C807 C 0.49225 0.11902 0.4551 0.0
N808 N 0.49481 0.14306 0.47615 0.0
C809 C 0.51373 0.11043 0.4306 0.0
C810 C 0.53805 0.12663 0.42756 0.0
C811 C 0.54059 0.15112 0.44896 0.0
C812 C 0.51869 0.15899 0.47321 0.0
C813 C 0.46948 0.23253 0.45575 0.0
C814 C 0.47173 0.21252 0.52955 0.0
C815 C 0.4703 0.20369 0.46331 0.0
N816 N 0.47094 0.194 0.49991 0.0
C817 C 0.47066 0.24146 0.52309 0.0
C818 C 0.4692 0.25149 0.48593 0.0
C819 C 0.43098 0.16026 0.5805 0.0
C820 C 0.38313 0.06441 0.52861 0.0
C821 C 0.3964 0.09587 0.5923 0.0
C822 C 0.36859 0.08735 0.58638 0.0
C823 C 0.36197 0.07153 0.55428 0.0
N824 N 0.41704 0.08885 0.56694 0.0
C825 C 0.4107 0.0733 0.53545 0.0
Co826 Co 0.6077 0.71608 0.25946 0.0
Co827 Co 0.6561 0.70734 0.33064 0.0
O828 O 0.64515 0.70716 0.27756 0.0
C829 C 0.59755 0.66606 0.21028 0.0
O830 O 0.57652 0.65924 0.23267 0.0
C831 C 0.69801 0.74263 0.29142 0.0
O832 O 0.67624 0.757 0.27916 0.0
O833 O 0.64131 0.74613 0.33672 0.0
O834 O 0.60247 0.74629 0.2998 0.0
H835 H 0.64331 0.72387 0.47066 0.0
H836 H 0.65722 0.71704 0.20792 0.0
O837 O 0.61316 0.68702 0.21854 0.0
H838 H 0.61433 0.81113 0.19666 0.0
H839 H 0.53539 0.7235 0.15605 0.0
H840 H 0.55112 0.72286 0.29458 0.0
H841 H 0.59279 0.77481 0.23738 0.0
H842 H 0.58346 0.7243 0.1821 0.0
O843 O 0.69407 0.72221 0.31438 0.0
H844 H 0.62855 0.72273 0.40353 0.0
H845 H 0.70947 0.69336 0.37085 0.0
H846 H 0.5026 0.72168 0.26926 0.0
H847 H 0.67929 0.75248 0.16632 0.0
H848 H 0.49454 0.72078 0.19986 0.0
H849 H 0.65796 0.80001 0.16072 0.0
O850 O 0.59142 0.68748 0.29497 0.0
H851 H 0.70887 0.6296 0.26506 0.0
H852 H 0.6492 0.65429 0.37476 0.0
H853 H 0.66558 0.60538 0.36704 0.0
H854 H 0.69571 0.5928 0.31193 0.0
H855 H 0.69181 0.67818 0.27367 0.0
H856 H 0.7252 0.69438 0.43766 0.0
H857 H 0.69197 0.70964 0.48811 0.0
O858 O 0.61827 0.69261 0.34715 0.0
C859 C 0.61808 0.75713 0.32587 0.0
C860 C 0.65798 0.71713 0.44895 0.0
C861 C 0.70395 0.70063 0.43041 0.0
N862 N 0.66811 0.70794 0.38331 0.0
C863 C 0.64972 0.71639 0.41088 0.0
C864 C 0.69496 0.70019 0.39263 0.0
C865 C 0.68529 0.70918 0.45871 0.0
C866 C 0.64769 0.73761 0.20548 0.0
N867 N 0.62394 0.74404 0.22563 0.0
C868 C 0.66032 0.75761 0.18191 0.0
C869 C 0.64838 0.78429 0.17883 0.0
C870 C 0.62396 0.79057 0.19907 0.0
C871 C 0.61198 0.77005 0.22242 0.0
C872 C 0.53863 0.72347 0.18646 0.0
C873 C 0.54777 0.72326 0.2642 0.0
C874 C 0.56582 0.72425 0.20146 0.0
N875 N 0.57015 0.72336 0.23989 0.0
C876 C 0.52029 0.72216 0.25013 0.0
C877 C 0.51576 0.72183 0.21103 0.0
C878 C 0.59605 0.68387 0.33039 0.0
C879 C 0.69582 0.63485 0.28926 0.0
C880 C 0.66225 0.64896 0.35065 0.0
C881 C 0.6715 0.62124 0.34647 0.0
C882 C 0.68841 0.6142 0.31554 0.0
N883 N 0.66971 0.66911 0.32484 0.0
C884 C 0.68618 0.66234 0.29436 0.0
Co885 Co 0.0413 0.8491 0.01783 0.0
Co886 Co 0.05003 0.90417 0.07858 0.0
O887 O 0.0479 0.88914 0.02667 0.0
C888 C 0.0816 0.8681 0.95532 0.0
O889 O 0.08374 0.89348 0.96956 0.0
C890 C 0.01546 0.94587 0.03581 0.0
O891 O 1.00023 0.92467 0.02356 0.0
O892 O 0.01109 0.89083 0.08792 0.0
O893 O 0.01452 0.84746 0.06291 0.0
H894 H 0.03619 0.9019 0.22021 0.0
H895 H 0.02925 0.89197 0.95785 0.0
O896 O 0.06688 0.84934 0.97205 0.0
H897 H 0.94255 0.83564 0.96924 0.0
H898 H 0.03824 0.761 0.93894 0.0
H899 H 0.03819 0.79962 0.06889 0.0
H900 H 0.98377 0.82521 0.00937 0.0
H901 H 0.03438 0.81212 0.94949 0.0
O902 O 0.03562 0.94133 0.05897 0.0
H903 H 0.03542 0.88249 0.15533 0.0
H904 H 0.06761 0.95924 0.11147 0.0
H905 H 0.04168 0.74835 0.05963 0.0
H906 H 0.9887 0.90297 0.91696 0.0
H907 H 0.04268 0.72879 0.99423 0.0
H908 H 0.94488 0.87472 0.92246 0.0
O909 O 0.07418 0.84012 0.05032 0.0
H910 H 0.1264 0.95276 0.00454 0.0
H911 H 0.10462 0.89816 0.11997 0.0
H912 H 0.15348 0.91317 0.10793 0.0
H913 H 0.16465 0.94074 0.0499 0.0
H914 H 0.07789 0.93702 0.01742 0.0
H915 H 0.06847 0.97962 0.17585 0.0
H916 H 0.05272 0.95086 0.23082 0.0
O917 O 0.06456 0.86748 0.10003 0.0
C918 C 1.00207 0.86568 0.08405 0.0
C919 C 0.04311 0.91466 0.1965 0.0
C920 C 0.06114 0.9583 0.17159 0.0
N921 N 0.05129 0.91977 0.12953 0.0
C922 C 0.04277 0.90376 0.15966 0.0
C923 C 0.06046 0.9467 0.13515 0.0
C924 C 0.05234 0.94213 0.20243 0.0
C925 C 0.01051 0.87931 0.96017 0.0
N926 N 0.00915 0.85768 0.98568 0.0
C927 C 0.98748 0.88577 0.93705 0.0
C928 C 0.96288 0.86995 0.9402 0.0
C929 C 0.96156 0.84805 0.96645 0.0
C930 C 0.98498 0.84225 0.98914 0.0
C931 C 0.03822 0.76931 0.96757 0.0
C932 C 0.03776 0.79125 0.04038 0.0
C933 C 0.03584 0.79824 0.97375 0.0
N934 N 0.03638 0.80894 0.0098 0.0
C935 C 0.04009 0.7622 0.0353 0.0
C936 C 0.04077 0.75125 0.99859 0.0
C937 C 0.07643 0.84603 0.08534 0.0
C938 C 0.12182 0.94072 0.0299 0.0
C939 C 0.10932 0.90986 0.09442 0.0
C940 C 0.13703 0.91845 0.08787 0.0
C941 C 0.14327 0.93395 0.05534 0.0
N942 N 0.08841 0.91647 0.06923 0.0
C943 C 0.09436 0.93177 0.03738 0.0
Co944 Co 0.60109 0.78364 0.75472 0.0
Co945 Co 0.65074 0.80197 0.82146 0.0
O946 O 0.63875 0.79555 0.76929 0.0
C947 C 0.60719 0.83441 0.70335 0.0
O948 O 0.61116 0.85139 0.73228 0.0
C949 C 0.69524 0.76566 0.78762 0.0
O950 O 0.67497 0.74881 0.77638 0.0
O951 O 0.6375 0.76359 0.83641 0.0
O952 O 0.59864 0.75735 0.80003 0.0
H953 H 0.64085 0.80193 0.96373 0.0
H954 H 0.64976 0.77939 0.70198 0.0
O955 O 0.60343 0.80824 0.70877 0.0
H956 H 0.60805 0.68443 0.70579 0.0
H957 H 0.52617 0.76745 0.65675 0.0
H958 H 0.54606 0.77528 0.79378 0.0
H959 H 0.58706 0.72334 0.74259 0.0
H960 H 0.57497 0.76995 0.67998 0.0
O961 O 0.68922 0.78722 0.80759 0.0
H962 H 0.62491 0.79501 0.89775 0.0
H963 H 0.70389 0.8232 0.85626 0.0
H964 H 0.49681 0.77253 0.77154 0.0
H965 H 0.67138 0.74123 0.66455 0.0
H966 H 0.4866 0.77039 0.70267 0.0
H967 H 0.65057 0.6933 0.66644 0.0
O968 O 0.58392 0.81463 0.78566 0.0
H969 H 0.69854 0.87294 0.73748 0.0
H970 H 0.64241 0.85931 0.85391 0.0
H971 H 0.65633 0.90726 0.83486 0.0
H972 H 0.68466 0.9143 0.7763 0.0
H973 H 0.68397 0.82538 0.7574 0.0
H974 H 0.72085 0.83032 0.92175 0.0
H975 H 0.68921 0.81968 0.97609 0.0
O976 O 0.61287 0.81701 0.83606 0.0
C977 C 0.61492 0.7503 0.82766 0.0
C978 C 0.65491 0.80648 0.94032 0.0
C979 C 0.69981 0.82239 0.91676 0.0
N980 N 0.6636 0.80815 0.87316 0.0
C981 C 0.64601 0.80248 0.90289 0.0
C982 C 0.69016 0.81811 0.87972 0.0
C983 C 0.68203 0.81645 0.94723 0.0
C984 C 0.64062 0.75858 0.70301 0.0
N985 N 0.61749 0.75341 0.72504 0.0
C986 C 0.65294 0.73706 0.68172 0.0
C987 C 0.64126 0.71017 0.68281 0.0
C988 C 0.61745 0.70517 0.70493 0.0
C989 C 0.60576 0.72719 0.72592 0.0
C990 C 0.53032 0.76915 0.68691 0.0
C991 C 0.54181 0.77333 0.76385 0.0
C992 C 0.55795 0.77035 0.70034 0.0
N993 N 0.56342 0.77323 0.73835 0.0
C994 C 0.51389 0.77234 0.75139 0.0
C995 C 0.50816 0.77086 0.71264 0.0
C996 C 0.58979 0.8228 0.81932 0.0
C997 C 0.68629 0.87013 0.76313 0.0
C998 C 0.65471 0.86219 0.82837 0.0
C999 C 0.66256 0.8894 0.81775 0.0
C1000 C 0.67846 0.89333 0.7849 0.0
N1001 N 0.66257 0.83953 0.80696 0.0
C1002 C 0.67807 0.84324 0.77464 0.0
Co1003 Co 0.47022 0.34894 0.01398 0.0
Co1004 Co 0.45492 0.40407 0.07224 0.0
O1005 O 0.46172 0.38859 0.02151 0.0
C1006 C 0.4234 0.35761 0.95708 0.0
O1007 O 0.40598 0.36603 0.98372 0.0
C1008 C 0.49117 0.44657 0.03309 0.0
O1009 O 0.5079 0.42585 0.02312 0.0
O1010 O 0.49331 0.39175 0.08784 0.0
O1011 O 0.49413 0.34827 0.06175 0.0
H1012 H 0.45819 0.40493 0.21501 0.0
H1013 H 0.48354 0.39199 0.95564 0.0
O1014 O 0.44827 0.34986 0.96546 0.0
H1015 H 0.57103 0.33757 0.9729 0.0
H1016 H 0.4744 0.26113 0.93534 0.0
H1017 H 0.47392 0.29966 0.0653 0.0
H1018 H 0.52871 0.32657 0.01074 0.0
H1019 H 0.47983 0.31203 0.94603 0.0
O1020 O 0.46972 0.44146 0.05379 0.0
H1021 H 0.46497 0.38468 0.1512 0.0
H1022 H 0.43211 0.45866 0.10048 0.0
H1023 H 0.46935 0.24851 0.05592 0.0
H1024 H 0.5255 0.40405 0.91764 0.0
H1025 H 0.46818 0.22908 0.99045 0.0
H1026 H 0.56962 0.37664 0.92605 0.0
O1027 O 0.43596 0.33851 0.0429 0.0
H1028 H 0.38398 0.44638 0.98299 0.0
H1029 H 0.39748 0.39847 0.10594 0.0
H1030 H 0.34954 0.41142 0.08543 0.0
H1031 H 0.34257 0.43564 0.02359 0.0
H1032 H 0.43152 0.43277 0.00442 0.0
H1033 H 0.42522 0.47997 0.16365 0.0
H1034 H 0.43818 0.45298 0.22154 0.0
O1035 O 0.43951 0.3673 0.09248 0.0
C1036 C 0.50397 0.36717 0.08423 0.0
C1037 C 0.4525 0.41694 0.19003 0.0
C1038 C 0.43401 0.45904 0.16121 0.0
N1039 N 0.44908 0.42047 0.12214 0.0
C1040 C 0.45633 0.40556 0.15382 0.0
C1041 C 0.43811 0.44694 0.12548 0.0
C1042 C 0.44127 0.44389 0.19366 0.0
C1043 C 0.50273 0.3801 0.95961 0.0
N1044 N 0.50368 0.35857 0.98529 0.0
C1045 C 0.52639 0.38698 0.93797 0.0
C1046 C 0.55113 0.37159 0.94269 0.0
C1047 C 0.55194 0.34965 0.96894 0.0
C1048 C 0.5279 0.34349 0.99024 0.0
C1049 C 0.47437 0.26942 0.96398 0.0
C1050 C 0.47477 0.29129 0.0368 0.0
C1051 C 0.47764 0.29824 0.97026 0.0
N1052 N 0.47665 0.30897 0.00628 0.0
C1053 C 0.47166 0.26232 0.03164 0.0
C1054 C 0.47088 0.25143 0.99491 0.0
C1055 C 0.4305 0.34465 0.07724 0.0
C1056 C 0.38675 0.43591 0.01005 0.0
C1057 C 0.39461 0.40888 0.07892 0.0
C1058 C 0.36742 0.41624 0.0675 0.0
C1059 C 0.36353 0.42985 0.03282 0.0
N1060 N 0.41731 0.41499 0.0565 0.0
C1061 C 0.41364 0.42825 0.02241 0.0
Co1062 Co 0.90672 0.22298 0.25987 0.0
Co1063 Co 0.85342 0.21051 0.32237 0.0
O1064 O 0.86786 0.21348 0.27093 0.0
C1065 C 0.89868 0.1725 0.20893 0.0
O1066 O 0.89169 0.15641 0.23777 0.0
C1067 C 0.81162 0.2457 0.28174 0.0
O1068 O 0.833 0.26159 0.27182 0.0
O1069 O 0.86637 0.24963 0.33316 0.0
O1070 O 0.90892 0.24925 0.30496 0.0
H1071 H 0.85481 0.22337 0.46413 0.0
H1072 H 0.86261 0.22966 0.2007 0.0
O1073 O 0.90499 0.1982 0.21413 0.0
H1074 H 0.90606 0.32335 0.21415 0.0
H1075 H 0.98657 0.23544 0.16857 0.0
H1076 H 0.9605 0.22637 0.30372 0.0
H1077 H 0.92306 0.28326 0.25228 0.0
H1078 H 0.93682 0.23569 0.18798 0.0
O1079 O 0.81587 0.22459 0.30336 0.0
H1080 H 0.87391 0.22612 0.39912 0.0
H1081 H 0.79888 0.1907 0.35463 0.0
H1082 H 0.01078 0.22556 0.28488 0.0
H1083 H 0.84509 0.2691 0.16174 0.0
H1084 H 0.02388 0.22908 0.21721 0.0
H1085 H 0.86678 0.31638 0.16846 0.0
O1086 O 0.91981 0.19117 0.29257 0.0
H1087 H 0.80902 0.13437 0.24348 0.0
H1088 H 0.85964 0.15558 0.36244 0.0
H1089 H 0.84627 0.10658 0.34814 0.0
H1090 H 0.82072 0.09573 0.28831 0.0
H1091 H 0.82299 0.18304 0.25876 0.0
H1092 H 0.77865 0.18788 0.41906 0.0
H1093 H 0.80674 0.20415 0.47442 0.0
O1094 O 0.89066 0.19622 0.34229 0.0
C1095 C 0.89094 0.26005 0.32798 0.0
C1096 C 0.84243 0.21597 0.44031 0.0
C1097 C 0.79967 0.19615 0.41499 0.0
N1098 N 0.83784 0.20808 0.37324 0.0
C1099 C 0.85328 0.21728 0.40348 0.0
C1100 C 0.81123 0.19782 0.37857 0.0
C1101 C 0.81544 0.20526 0.44604 0.0
C1102 C 0.8723 0.25013 0.20357 0.0
N1103 N 0.8938 0.25418 0.22882 0.0
C1104 C 0.86224 0.27239 0.18151 0.0
C1105 C 0.87439 0.29893 0.18534 0.0
C1106 C 0.8964 0.30286 0.21101 0.0
C1107 C 0.90587 0.28012 0.23265 0.0
C1108 C 0.98106 0.23352 0.1983 0.0
C1109 C 0.96614 0.22873 0.27414 0.0
C1110 C 0.95291 0.23398 0.20959 0.0
N1111 N 0.94568 0.23089 0.24701 0.0
C1112 C 0.99456 0.22797 0.26375 0.0
C1113 C 1.00196 0.22989 0.22557 0.0
C1114 C 0.91363 0.18731 0.32752 0.0
C1115 C 0.82005 0.13884 0.26971 0.0
C1116 C 0.84856 0.15102 0.33633 0.0
C1117 C 0.841 0.12324 0.32841 0.0
C1118 C 0.82666 0.11717 0.29485 0.0
N1119 N 0.84191 0.17218 0.3116 0.0
C1120 C 0.82791 0.16638 0.27859 0.0
Co1121 Co 0.03549 0.65872 0.51483 0.0
Co1122 Co 0.04836 0.60544 0.57663 0.0
O1123 O 0.04357 0.61929 0.52478 0.0
C1124 C 0.0829 0.64856 0.45945 0.0
O1125 O 0.10009 0.64138 0.48703 0.0
C1126 C 0.01238 0.56271 0.53846 0.0
O1127 O 0.99617 0.58353 0.52739 0.0
O1128 O 0.00971 0.61869 0.58914 0.0
O1129 O 0.01133 0.66159 0.56222 0.0
H1130 H 0.04123 0.61031 0.71901 0.0
H1131 H 0.02282 0.61456 0.45782 0.0
O1132 O 0.05778 0.65616 0.46671 0.0
H1133 H 0.93388 0.66651 0.47528 0.0
H1134 H 0.02587 0.74303 0.42983 0.0
H1135 H 0.03468 0.71024 0.56219 0.0
H1136 H 0.97651 0.6799 0.511 0.0
H1137 H 0.02347 0.69244 0.4449 0.0
O1138 O 0.03359 0.56779 0.55959 0.0
H1139 H 0.03711 0.62843 0.65364 0.0
H1140 H 0.06836 0.5513 0.60984 0.0
H1141 H 0.03717 0.76103 0.54837 0.0
H1142 H 0.98081 0.6005 0.42121 0.0
H1143 H 0.03384 0.7776 0.48159 0.0
H1144 H 0.93591 0.62656 0.42985 0.0
O1145 O 0.06969 0.66968 0.5439 0.0
H1146 H 0.12162 0.55936 0.49462 0.0
H1147 H 0.10465 0.61147 0.61356 0.0
H1148 H 0.15305 0.59726 0.59691 0.0
H1149 H 0.16177 0.57094 0.53711 0.0
H1150 H 0.0736 0.57421 0.51219 0.0
H1151 H 0.07255 0.53219 0.67474 0.0
H1152 H 0.05898 0.56181 0.72991 0.0
O1153 O 0.06353 0.64259 0.59504 0.0
C1154 C 1.00015 0.64367 0.58503 0.0
C1155 C 0.04722 0.59719 0.69521 0.0
C1156 C 0.06471 0.55333 0.67036 0.0
N1157 N 0.05233 0.59088 0.62789 0.0
C1158 C 0.04498 0.60736 0.6581 0.0
C1159 C 0.06214 0.5642 0.63365 0.0
C1160 C 0.05714 0.56997 0.70131 0.0
C1161 C 0.00339 0.62607 0.4616 0.0
N1162 N 1.00211 0.64809 0.48646 0.0
C1163 C 0.97965 0.61797 0.44086 0.0
C1164 C 0.95447 0.63258 0.44575 0.0
C1165 C 0.95331 0.65498 0.47124 0.0
C1166 C 0.97747 0.66244 0.4915 0.0
C1167 C 0.02777 0.73601 0.45897 0.0
C1168 C 0.03233 0.71734 0.53321 0.0
C1169 C 0.02619 0.70739 0.46773 0.0
N1170 N 0.02921 0.69834 0.50438 0.0
C1171 C 0.0341 0.74611 0.52551 0.0
C1172 C 0.03228 0.7554 0.48803 0.0
C1173 C 0.07401 0.66417 0.57877 0.0
C1174 C 0.11808 0.57073 0.52082 0.0
C1175 C 0.10828 0.60008 0.58744 0.0
C1176 C 0.13572 0.59205 0.57819 0.0
C1177 C 0.1406 0.57727 0.54465 0.0
N1178 N 0.08629 0.5935 0.56399 0.0
C1179 C 0.09092 0.5791 0.53099 0.0
Co1180 Co 0.60077 0.21406 0.74289 0.0
Co1181 Co 0.65583 0.20564 0.6808 0.0
O1182 O 0.64048 0.20665 0.73258 0.0
C1183 C 0.619 0.17141 0.80286 0.0
O1184 O 0.64483 0.17024 0.78983 0.0
C1185 C 0.69762 0.23974 0.72442 0.0
O1186 O 0.67666 0.25555 0.73608 0.0
O1187 O 0.64231 0.24482 0.67188 0.0
O1188 O 0.59994 0.24347 0.70091 0.0
H1189 H 0.65602 0.2225 0.53974 0.0
H1190 H 0.64785 0.22264 0.79861 0.0
O1191 O 0.60028 0.18596 0.78577 0.0
H1192 H 0.58879 0.30739 0.80909 0.0
H1193 H 0.51287 0.21649 0.82298 0.0
H1194 H 0.55118 0.22126 0.69296 0.0
H1195 H 0.57595 0.26942 0.76505 0.0
H1196 H 0.56415 0.21822 0.81234 0.0
O1197 O 0.69286 0.21965 0.70133 0.0
H1198 H 0.63596 0.22272 0.60432 0.0
H1199 H 0.7111 0.18758 0.6487 0.0
H1200 H 0.49978 0.21913 0.70235 0.0
H1201 H 0.66122 0.25977 0.84344 0.0
H1202 H 0.48033 0.21607 0.7677 0.0
H1203 H 0.63172 0.3027 0.84896 0.0
O1204 O 0.59002 0.18364 0.70701 0.0
H1205 H 0.7041 0.12831 0.75342 0.0
H1206 H 0.64997 0.15172 0.6381 0.0
H1207 H 0.66502 0.10276 0.64898 0.0
H1208 H 0.69238 0.09078 0.70693 0.0
H1209 H 0.68832 0.17691 0.74169 0.0
H1210 H 0.73229 0.18723 0.5848 0.0
H1211 H 0.70465 0.20467 0.52967 0.0
O1212 O 0.61929 0.19145 0.65852 0.0
C1213 C 0.61783 0.25507 0.67835 0.0
C1214 C 0.66829 0.21479 0.56348 0.0
C1215 C 0.71109 0.19505 0.58878 0.0
N1216 N 0.67219 0.20512 0.63023 0.0
C1217 C 0.65695 0.21481 0.60008 0.0
C1218 C 0.69901 0.1954 0.62496 0.0
C1219 C 0.69557 0.20482 0.55787 0.0
C1220 C 0.63464 0.24096 0.80077 0.0
N1221 N 0.61106 0.24366 0.77873 0.0
C1222 C 0.64245 0.26208 0.82627 0.0
C1223 C 0.62593 0.28617 0.82931 0.0
C1224 C 0.6019 0.28883 0.80692 0.0
C1225 C 0.59481 0.26729 0.78172 0.0
C1226 C 0.52111 0.21754 0.79435 0.0
C1227 C 0.5429 0.22059 0.72154 0.0
C1228 C 0.55014 0.21872 0.78813 0.0
N1229 N 0.56074 0.21977 0.75201 0.0
C1230 C 0.51376 0.21905 0.72665 0.0
C1231 C 0.50286 0.21724 0.76332 0.0
C1232 C 0.5966 0.18119 0.67217 0.0
C1233 C 0.69216 0.13324 0.72808 0.0
C1234 C 0.66156 0.14665 0.66363 0.0
C1235 C 0.67018 0.1189 0.66951 0.0
C1236 C 0.68556 0.1122 0.70201 0.0
N1237 N 0.66806 0.16718 0.68938 0.0
C1238 C 0.6832 0.16076 0.72124 0.0
Co1239 Co 0.03757 0.34583 0.98857 0.0
Co1240 Co 0.0499 0.40392 0.93462 0.0
O1241 O 0.04462 0.38599 0.98423 0.0
C1242 C 0.08438 0.35427 0.04535 0.0
O1243 O 0.10048 0.36573 0.01927 0.0
C1244 C 0.01287 0.4431 0.97745 0.0
O1245 O 0.99694 0.42133 0.9855 0.0
O1246 O 0.01155 0.39124 0.91937 0.0
O1247 O 0.01321 0.34653 0.94113 0.0
H1248 H 0.0428 0.41228 0.7925 0.0
H1249 H 0.02391 0.38472 0.05178 0.0
O1250 O 0.06 0.34514 0.03678 0.0
H1251 H 0.93696 0.33067 0.02844 0.0
H1252 H 0.03306 0.25422 0.05952 0.0
H1253 H 0.0357 0.29894 0.9332 0.0
H1254 H 0.97944 0.32235 0.98969 0.0
H1255 H 0.02901 0.30569 0.05324 0.0
O1256 O 0.03453 0.43983 0.95656 0.0
H1257 H 0.03775 0.38873 0.85452 0.0
H1258 H 0.07057 0.46045 0.91077 0.0
H1259 H 0.0386 0.24731 0.93815 0.0
H1260 H 0.98176 0.39414 0.09075 0.0
H1261 H 0.03843 0.22475 1.00176 0.0
H1262 H 0.93791 0.36693 0.07925 0.0
O1263 O 0.07191 0.33812 0.95829 0.0
H1264 H 0.12168 0.44398 0.02452 0.0
H1265 H 0.10673 0.40103 0.8986 0.0
H1266 H 0.15481 0.41403 0.9185 0.0
H1267 H 0.16251 0.43573 0.98185 0.0
H1268 H 0.074 0.43038 0.00365 0.0
H1269 H 0.07577 0.48504 0.84947 0.0
H1270 H 0.06197 0.46088 0.78972 0.0
O1271 O 0.06562 0.3685 0.9108 0.0
C1272 C 1.00208 0.36606 0.92083 0.0
C1273 C 0.04905 0.42299 0.81829 0.0
C1274 C 0.06751 0.46383 0.85027 0.0
N1275 N 0.05425 0.42293 0.88614 0.0
C1276 C 0.04635 0.40965 0.85346 0.0
C1277 C 0.0645 0.44979 0.88491 0.0
C1278 C 0.05977 0.45026 0.81676 0.0
C1279 C 0.00486 0.3729 0.04652 0.0
N1280 N 0.0041 0.35303 0.01851 0.0
C1281 C 0.98108 0.37829 0.0687 0.0
C1282 C 0.95648 0.36302 0.06223 0.0
C1283 C 0.95593 0.34268 0.03373 0.0
C1284 C 0.98005 0.33803 0.01191 0.0
C1285 C 0.0335 0.26388 0.03167 0.0
C1286 C 0.03444 0.28923 0.9609 0.0
C1287 C 0.03109 0.29303 0.0279 0.0
N1288 N 0.03238 0.30542 0.99288 0.0
C1289 C 0.0365 0.25999 0.96355 0.0
C1290 C 0.03648 0.24733 0.99925 0.0
C1291 C 0.07589 0.3457 0.92412 0.0
C1292 C 0.11858 0.43463 0.9968 0.0
C1293 C 0.10992 0.41037 0.92626 0.0
C1294 C 0.13718 0.41776 0.93733 0.0
C1295 C 0.14149 0.42996 0.97287 0.0
N1296 N 0.08755 0.41508 0.94986 0.0
C1297 C 0.09161 0.427 0.98475 0.0
Co1298 Co 0.909 0.78475 0.24342 0.0
Co1299 Co 0.85253 0.7976 0.18681 0.0
O1300 O 0.86902 0.79242 0.23732 0.0
C1301 C 0.90096 0.83186 0.29996 0.0
O1302 O 0.892 0.84905 0.27336 0.0
C1303 C 0.81081 0.76264 0.22924 0.0
O1304 O 0.8316 0.74593 0.23905 0.0
O1305 O 0.86461 0.75886 0.17321 0.0
O1306 O 0.90908 0.76034 0.19612 0.0
H1307 H 0.84889 0.7904 0.04432 0.0
H1308 H 0.86738 0.77117 0.30356 0.0
O1309 O 0.90881 0.80704 0.29165 0.0
H1310 H 0.92312 0.68465 0.28581 0.0
H1311 H 0.99868 0.779 0.31872 0.0
H1312 H 0.95735 0.78267 0.19034 0.0
H1313 H 0.93236 0.72669 0.2466 0.0
H1314 H 0.94735 0.77528 0.30987 0.0
O1315 O 0.8156 0.78353 0.20746 0.0
H1316 H 0.87063 0.7859 0.10763 0.0
H1317 H 0.79713 0.81903 0.15931 0.0
H1318 H 0.00888 0.78569 0.19788 0.0
H1319 H 0.857 0.72946 0.34287 0.0
H1320 H 0.02973 0.785 0.26258 0.0
H1321 H 0.88511 0.68585 0.33426 0.0
O1322 O 0.91792 0.81895 0.2133 0.0
H1323 H 0.81208 0.8715 0.27302 0.0
H1324 H 0.85769 0.85377 0.14947 0.0
H1325 H 0.84533 0.90235 0.16751 0.0
H1326 H 0.82226 0.91145 0.22963 0.0
H1327 H 0.82511 0.82329 0.25406 0.0
H1328 H 0.77439 0.82376 0.09668 0.0
H1329 H 0.80035 0.80944 0.03855 0.0
O1330 O 0.88889 0.81204 0.16441 0.0
C1331 C 0.88965 0.74909 0.17572 0.0
C1332 C 0.83731 0.79663 0.06943 0.0
C1333 C 0.7955 0.81532 0.09881 0.0
N1334 N 0.83511 0.80188 0.13721 0.0
C1335 C 0.84953 0.79406 0.10537 0.0
C1336 C 0.80841 0.81243 0.13425 0.0
C1337 C 0.81009 0.80731 0.06621 0.0
C1338 C 0.87959 0.75221 0.29952 0.0
N1339 N 0.9006 0.75141 0.27306 0.0
C1340 C 0.87364 0.72867 0.32189 0.0
C1341 C 0.88942 0.70422 0.31706 0.0
C1342 C 0.91077 0.70354 0.28991 0.0
C1343 C 0.91596 0.72742 0.26788 0.0
C1344 C 0.98978 0.77973 0.29043 0.0
C1345 C 0.96632 0.78129 0.21847 0.0
C1346 C 0.96071 0.77747 0.28519 0.0
N1347 N 0.94926 0.77908 0.2496 0.0
C1348 C 0.99551 0.7834 0.2226 0.0
C1349 C 0.00721 0.78308 0.2589 0.0
C1350 C 0.91108 0.82274 0.17878 0.0
C1351 C 0.82203 0.86779 0.24582 0.0
C1352 C 0.84775 0.85756 0.17662 0.0
C1353 C 0.84074 0.88511 0.18663 0.0
C1354 C 0.82779 0.8902 0.22149 0.0
N1355 N 0.84196 0.83569 0.20059 0.0
C1356 C 0.82935 0.84052 0.23486 0.0
Co1357 Co 0.46698 0.65483 0.49314 0.0
Co1358 Co 0.45665 0.60016 0.43163 0.0
O1359 O 0.46012 0.61497 0.4834 0.0
C1360 C 0.42786 0.63481 0.55642 0.0
O1361 O 0.42554 0.60965 0.54155 0.0
C1362 C 0.49439 0.56017 0.47137 0.0
O1363 O 0.50933 0.58216 0.48149 0.0
O1364 O 0.49482 0.61485 0.4192 0.0
O1365 O 0.49258 0.65737 0.447 0.0
H1366 H 0.46368 0.60366 0.28913 0.0
H1367 H 0.47992 0.61092 0.55148 0.0
O1368 O 0.44237 0.65385 0.5399 0.0
H1369 H 0.56737 0.66559 0.53663 0.0
H1370 H 0.47525 0.74105 0.5753 0.0
H1371 H 0.46871 0.70549 0.44407 0.0
H1372 H 0.52508 0.67767 0.4995 0.0
H1373 H 0.47664 0.69007 0.56244 0.0
O1374 O 0.47304 0.56352 0.44988 0.0
H1375 H 0.46676 0.62277 0.35403 0.0
H1376 H 0.44059 0.54433 0.39977 0.0
H1377 H 0.46707 0.7566 0.45565 0.0
H1378 H 0.52154 0.59826 0.58939 0.0
H1379 H 0.46951 0.77464 0.52178 0.0
H1380 H 0.56576 0.62562 0.58209 0.0
O1381 O 0.43342 0.66471 0.46212 0.0
H1382 H 0.38489 0.54838 0.51008 0.0
H1383 H 0.4004 0.60482 0.39441 0.0
H1384 H 0.35258 0.58803 0.40951 0.0
H1385 H 0.34457 0.55954 0.46768 0.0
H1386 H 0.4323 0.56585 0.49416 0.0
H1387 H 0.43746 0.52427 0.3353 0.0
H1388 H 0.44899 0.55403 0.27941 0.0
O1389 O 0.44025 0.63648 0.41222 0.0
C1390 C 0.50395 0.63993 0.42371 0.0
C1391 C 0.45854 0.59049 0.31324 0.0
C1392 C 0.44389 0.54592 0.33917 0.0
N1393 N 0.45384 0.58473 0.38072 0.0
C1394 C 0.46016 0.60123 0.3501 0.0
C1395 C 0.44581 0.55738 0.37562 0.0
C1396 C 0.45034 0.56264 0.30781 0.0
C1397 C 0.49881 0.62327 0.54849 0.0
N1398 N 0.4998 0.64532 0.52361 0.0
C1399 C 0.52245 0.61585 0.5699 0.0
C1400 C 0.54728 0.63116 0.56572 0.0
C1401 C 0.5482 0.65356 0.54021 0.0
C1402 C 0.52416 0.66031 0.51922 0.0
C1403 C 0.47378 0.73341 0.5464 0.0
C1404 C 0.47041 0.71317 0.47283 0.0
C1405 C 0.47475 0.70457 0.5389 0.0
N1406 N 0.47247 0.69475 0.50251 0.0
C1407 C 0.4692 0.74214 0.47925 0.0
C1408 C 0.47052 0.75225 0.51636 0.0
C1409 C 0.42953 0.65836 0.42745 0.0
C1410 C 0.38809 0.5608 0.48468 0.0
C1411 C 0.39707 0.5927 0.42 0.0
C1412 C 0.36995 0.58312 0.42829 0.0
C1413 C 0.36548 0.5671 0.4609 0.0
N1414 N 0.41913 0.58655 0.44356 0.0
C1415 C 0.41492 0.57072 0.47546 0.0
Co1416 Co 0.40526 0.2169 0.24033 0.0
Co1417 Co 0.34997 0.20516 0.18115 0.0
O1418 O 0.36529 0.2102 0.23239 0.0
C1419 C 0.39612 0.16924 0.29622 0.0
O1420 O 0.38876 0.15173 0.26912 0.0
C1421 C 0.30761 0.2408 0.22141 0.0
O1422 O 0.32851 0.25703 0.23223 0.0
O1423 O 0.363 0.24374 0.16806 0.0
O1424 O 0.40685 0.24177 0.19323 0.0
H1425 H 0.34982 0.21202 0.03851 0.0
H1426 H 0.36228 0.23131 0.29831 0.0
O1427 O 0.40334 0.19434 0.28835 0.0
H1428 H 0.42132 0.31609 0.28522 0.0
H1429 H 0.49331 0.21783 0.3193 0.0
H1430 H 0.45478 0.21846 0.18926 0.0
H1431 H 0.43045 0.27413 0.24589 0.0
H1432 H 0.44247 0.2244 0.30853 0.0
O1433 O 0.31259 0.2197 0.20009 0.0
H1434 H 0.37016 0.21624 0.10269 0.0
H1435 H 0.29496 0.18447 0.15137 0.0
H1436 H 0.50586 0.21256 0.19874 0.0
H1437 H 0.352 0.273 0.33765 0.0
H1438 H 0.52532 0.21113 0.26422 0.0
H1439 H 0.38176 0.31574 0.33139 0.0
O1440 O 0.41419 0.18265 0.21039 0.0
H1441 H 0.30692 0.1318 0.26593 0.0
H1442 H 0.35523 0.14892 0.14409 0.0
H1443 H 0.34195 0.1005 0.16176 0.0
H1444 H 0.31754 0.0917 0.22303 0.0
H1445 H 0.32082 0.17985 0.24732 0.0
H1446 H 0.27358 0.18003 0.08783 0.0
H1447 H 0.30111 0.19383 0.03077 0.0
O1448 O 0.38671 0.19031 0.16026 0.0
C1449 C 0.38807 0.25331 0.17191 0.0
C1450 C 0.33755 0.20606 0.06314 0.0
C1451 C 0.29477 0.18814 0.09082 0.0
N1452 N 0.33368 0.20103 0.13082 0.0
C1453 C 0.34898 0.2085 0.09957 0.0
C1454 C 0.30691 0.19088 0.12678 0.0
C1455 C 0.31023 0.19585 0.05882 0.0
C1456 C 0.37518 0.24991 0.29523 0.0
N1457 N 0.39701 0.25025 0.26998 0.0
C1458 C 0.3693 0.27342 0.31764 0.0
C1459 C 0.38602 0.29738 0.31414 0.0
C1460 C 0.40823 0.29759 0.28827 0.0
C1461 C 0.41334 0.27374 0.26615 0.0
C1462 C 0.48503 0.21801 0.29065 0.0
C1463 C 0.46317 0.21892 0.21777 0.0
C1464 C 0.45625 0.22193 0.28433 0.0
N1465 N 0.44552 0.22145 0.24826 0.0
C1466 C 0.49209 0.21513 0.22299 0.0
C1467 C 0.50298 0.21421 0.25974 0.0
C1468 C 0.40847 0.17935 0.17546 0.0
C1469 C 0.31746 0.13537 0.2391 0.0
C1470 C 0.34467 0.14526 0.17084 0.0
C1471 C 0.33716 0.1178 0.18066 0.0
C1472 C 0.32346 0.11288 0.21504 0.0
N1473 N 0.33862 0.16722 0.19453 0.0
C1474 C 0.32528 0.16255 0.22834 0.0
Co1475 Co 0.53803 0.65307 0.99663 0.0
Co1476 Co 0.54835 0.60037 0.93087 0.0
O1477 O 0.54696 0.61429 0.98306 0.0
C1478 C 0.58178 0.6334 0.05413 0.0
O1479 O 0.58321 0.60817 0.03929 0.0
C1480 C 0.51209 0.55961 0.97189 0.0
O1481 O 0.49715 0.58144 0.98258 0.0
O1482 O 0.50967 0.61481 0.92122 0.0
O1483 O 0.50833 0.65502 0.9552 0.0
H1484 H 0.53534 0.60566 0.7893 0.0
H1485 H 0.53218 0.6036 0.04959 0.0
O1486 O 0.56679 0.6526 0.03888 0.0
H1487 H 0.44362 0.65657 0.06185 0.0
H1488 H 0.5315 0.73418 0.08776 0.0
H1489 H 0.52921 0.70594 0.95297 0.0
H1490 H 0.48103 0.67324 0.01915 0.0
H1491 H 0.53199 0.68408 0.06999 0.0
O1492 O 0.53286 0.56324 0.94943 0.0
H1493 H 0.53451 0.62376 0.85491 0.0
H1494 H 0.56398 0.54524 0.89648 0.0
H1495 H 0.52927 0.7564 0.97004 0.0
H1496 H 0.49584 0.58667 0.09332 0.0
H1497 H 0.53129 0.77071 0.03742 0.0
H1498 H 0.45093 0.61302 0.09962 0.0
O1499 O 0.5673 0.667 0.96057 0.0
H1500 H 0.62333 0.54783 1.00278 0.0
H1501 H 0.60307 0.60598 0.89003 0.0
H1502 H 0.65149 0.58928 0.90128 0.0
H1503 H 0.66188 0.55991 0.95796 0.0
H1504 H 0.57528 0.56528 0.9907 0.0
H1505 H 0.56497 0.52619 0.83132 0.0
H1506 H 0.55068 0.55651 0.77715 0.0
O1507 O 0.56391 0.63718 0.9115 0.0
C1508 C 0.49819 0.63826 0.93001 0.0
C1509 C 0.54164 0.59223 0.81264 0.0
C1510 C 0.55826 0.54763 0.83624 0.0
N1511 N 0.54925 0.58564 0.87948 0.0
C1512 C 0.54123 0.60238 0.84986 0.0
C1513 C 0.55757 0.55852 0.87309 0.0
C1514 C 0.55024 0.56466 0.80585 0.0
C1515 C 0.51319 0.6157 0.05248 0.0
N1516 N 0.50913 0.63971 0.03176 0.0
C1517 C 0.49243 0.60577 0.0772 0.0
C1518 C 0.46722 0.6205 0.08064 0.0
C1519 C 0.46309 0.64488 0.05942 0.0
C1520 C 0.48434 0.65415 0.03501 0.0
C1521 C 0.53098 0.72815 0.05815 0.0
C1522 C 0.52939 0.712 0.98257 0.0
C1523 C 0.53102 0.6998 0.04783 0.0
N1524 N 0.53072 0.69201 0.01037 0.0
C1525 C 0.52975 0.74057 0.99192 0.0
C1526 C 0.53089 0.74863 0.02991 0.0
C1527 C 0.57203 0.66049 0.92596 0.0
C1528 C 0.61908 0.56065 0.97801 0.0
C1529 C 0.60745 0.59352 0.91502 0.0
C1530 C 0.6349 0.58397 0.92111 0.0
C1531 C 0.64071 0.56746 0.95288 0.0
N1532 N 0.58636 0.58686 0.93987 0.0
C1533 C 0.59188 0.57057 0.97097 0.0
Co1534 Co 0.10048 0.79 0.74344 0.0
Co1535 Co 0.15465 0.80454 0.68294 0.0
O1536 O 0.13988 0.79886 0.73425 0.0
C1537 C 0.10889 0.83744 0.79957 0.0
O1538 O 0.11732 0.85469 0.77274 0.0
C1539 C 0.19577 0.76661 0.72036 0.0
O1540 O 0.17414 0.75066 0.72905 0.0
O1541 O 0.14121 0.76637 0.66797 0.0
O1542 O 0.09874 0.76593 0.69626 0.0
H1543 H 0.15242 0.80102 0.54024 0.0
H1544 H 0.14426 0.77862 0.80152 0.0
O1545 O 0.10186 0.81233 0.79153 0.0
H1546 H 0.09461 0.68849 0.78353 0.0
H1547 H 0.01468 0.78171 0.82595 0.0
H1548 H 0.05 0.78598 0.6944 0.0
H1549 H 0.08005 0.73079 0.74803 0.0
H1550 H 0.0656 0.77903 0.81289 0.0
O1551 O 0.19185 0.78877 0.70064 0.0
H1552 H 0.13308 0.79529 0.60476 0.0
H1553 H 0.20997 0.82401 0.65269 0.0
H1554 H 0.99897 0.78766 0.70608 0.0
H1555 H 0.15951 0.73689 0.8378 0.0
H1556 H 0.98105 0.78715 0.77242 0.0
H1557 H 0.13467 0.69139 0.8288 0.0
O1558 O 0.08898 0.82372 0.71389 0.0
H1559 H 0.19988 0.87514 0.76992 0.0
H1560 H 0.15022 0.86163 0.64822 0.0
H1561 H 0.16456 0.90938 0.66755 0.0
H1562 H 0.18963 0.91636 0.72879 0.0
H1563 H 0.18496 0.82778 0.7496 0.0
H1564 H 0.23026 0.82982 0.58866 0.0
H1565 H 0.20138 0.81838 0.53186 0.0
O1566 O 0.11786 0.82074 0.66403 0.0
C1567 C 0.11658 0.75598 0.67244 0.0
C1568 C 0.1652 0.80615 0.56475 0.0
C1569 C 0.20889 0.82227 0.59193 0.0
N1570 N 0.1703 0.80948 0.63246 0.0
C1571 C 0.15433 0.80303 0.60137 0.0
C1572 C 0.19731 0.81887 0.62812 0.0
C1573 C 0.19267 0.81587 0.56007 0.0
C1574 C 0.13334 0.75889 0.79749 0.0
N1575 N 0.1115 0.75703 0.77231 0.0
C1576 C 0.14206 0.73534 0.81811 0.0
C1577 C 0.12814 0.70981 0.81301 0.0
C1578 C 0.1057 0.70816 0.78758 0.0
C1579 C 0.09762 0.73213 0.76738 0.0
C1580 C 0.02228 0.78259 0.79698 0.0
C1581 C 0.04237 0.78444 0.72324 0.0
C1582 C 0.05109 0.7809 0.78936 0.0
N1583 N 0.06086 0.78285 0.75292 0.0
C1584 C 0.01343 0.78595 0.72973 0.0
C1585 C 0.0034 0.78567 0.76693 0.0
C1586 C 0.09515 0.82947 0.67954 0.0
C1587 C 0.18905 0.87236 0.74312 0.0
C1588 C 0.16106 0.8645 0.67493 0.0
C1589 C 0.16918 0.89158 0.6857 0.0
C1590 C 0.18326 0.89548 0.72005 0.0
N1591 N 0.16688 0.84192 0.69766 0.0
C1592 C 0.18063 0.84558 0.7314 0.0
Co1593 Co 0.96831 0.35417 0.49272 0.0
Co1594 Co 0.9579 0.40965 0.4325 0.0
O1595 O 0.95955 0.39373 0.48396 0.0
C1596 C 0.92525 0.36969 0.55382 0.0
O1597 O 0.92327 0.39591 0.54252 0.0
C1598 C 0.99214 0.44993 0.47695 0.0
O1599 O 0.00737 0.42816 0.48716 0.0
O1600 O 0.99721 0.39725 0.42277 0.0
O1601 O 0.99635 0.35437 0.44949 0.0
H1602 H 0.97179 0.41029 0.29087 0.0
H1603 H 0.97586 0.39762 0.55349 0.0
O1604 O 0.94118 0.3523 0.53655 0.0
H1605 H 0.06623 0.34705 0.54663 0.0
H1606 H 0.97493 0.26577 0.57069 0.0
H1607 H 0.9772 0.30571 0.44143 0.0
H1608 H 0.02689 0.33388 0.50464 0.0
H1609 H 0.97477 0.31714 0.56112 0.0
O1610 O 0.97175 0.44647 0.45383 0.0
H1611 H 0.97264 0.38956 0.35503 0.0
H1612 H 0.94083 0.46555 0.40181 0.0
H1613 H 0.97925 0.25442 0.4498 0.0
H1614 H 0.01445 0.41128 0.59619 0.0
H1615 H 0.9762 0.23399 0.51476 0.0
H1616 H 0.06014 0.38599 0.59295 0.0
O1617 O 0.93724 0.34325 0.45808 0.0
H1618 H 0.8801 0.45495 0.50759 0.0
H1619 H 0.90383 0.40382 0.39003 0.0
H1620 H 0.85459 0.41762 0.40199 0.0
H1621 H 0.84245 0.44344 0.4611 0.0
H1622 H 0.92902 0.44047 0.4947 0.0
H1623 H 0.93985 0.48718 0.33812 0.0
H1624 H 0.95535 0.45948 0.28208 0.0
O1625 O 0.94402 0.37313 0.40985 0.0
C1626 C 0.0077 0.3728 0.42776 0.0
C1627 C 0.96492 0.42257 0.31504 0.0
C1628 C 0.94707 0.46574 0.34158 0.0
N1629 N 0.95678 0.4263 0.38217 0.0
C1630 C 0.96528 0.41091 0.35147 0.0
C1631 C 0.94777 0.4534 0.3776 0.0
C1632 C 0.95574 0.45017 0.31014 0.0
C1633 C 0.99535 0.38611 0.55222 0.0
N1634 N 0.99878 0.3646 0.5269 0.0
C1635 C 0.01729 0.39412 0.57636 0.0
C1636 C 0.04294 0.37998 0.57446 0.0
C1637 C 0.04638 0.35815 0.54847 0.0
C1638 C 0.02399 0.35079 0.52473 0.0
C1639 C 0.97558 0.27439 0.54223 0.0
C1640 C 0.9773 0.29711 0.46985 0.0
C1641 C 0.97559 0.30347 0.53662 0.0
N1642 N 0.97564 0.31446 0.50071 0.0
C1643 C 0.97789 0.26797 0.4744 0.0
C1644 C 0.97625 0.25658 0.51082 0.0
C1645 C 0.93389 0.35044 0.4236 0.0
C1646 C 0.88511 0.4437 0.48174 0.0
C1647 C 0.89871 0.41482 0.41599 0.0
C1648 C 0.87079 0.4227 0.42251 0.0
C1649 C 0.864 0.43721 0.45566 0.0
N1650 N 0.91929 0.42117 0.44176 0.0
C1651 C 0.9128 0.43548 0.47425 0.0
Co1652 Co 0.40386 0.78724 0.26236 0.0
Co1653 Co 0.35046 0.79818 0.32505 0.0
O1654 O 0.36448 0.79479 0.2731 0.0
C1655 C 0.39847 0.83682 0.20834 0.0
O1656 O 0.39682 0.85493 0.23642 0.0
C1657 C 0.31004 0.76057 0.28613 0.0
O1658 O 0.33199 0.74542 0.27643 0.0
O1659 O 0.36507 0.75992 0.33703 0.0
O1660 O 0.4073 0.76218 0.30855 0.0
H1661 H 0.35493 0.78822 0.46707 0.0
H1662 H 0.35933 0.77583 0.20534 0.0
O1663 O 0.40075 0.81061 0.21509 0.0
H1664 H 0.41184 0.68683 0.21804 0.0
H1665 H 0.48832 0.78201 0.17676 0.0
H1666 H 0.45534 0.78397 0.30948 0.0
H1667 H 0.42561 0.7286 0.25513 0.0
H1668 H 0.43766 0.77866 0.19138 0.0
O1669 O 0.31348 0.78209 0.30725 0.0
H1670 H 0.37325 0.78543 0.40165 0.0
H1671 H 0.29542 0.8156 0.35829 0.0
H1672 H 0.50608 0.78583 0.29627 0.0
H1673 H 0.34491 0.73465 0.16741 0.0
H1674 H 0.5229 0.78667 0.22937 0.0
H1675 H 0.37119 0.68972 0.17372 0.0
O1676 O 0.4148 0.82043 0.29318 0.0
H1677 H 0.30199 0.87077 0.24438 0.0
H1678 H 0.35391 0.85396 0.3636 0.0
H1679 H 0.3379 0.90195 0.34812 0.0
H1680 H 0.31166 0.91059 0.28817 0.0
H1681 H 0.31858 0.82314 0.26085 0.0
H1682 H 0.27614 0.81849 0.42327 0.0
H1683 H 0.30603 0.80488 0.47822 0.0
O1684 O 0.38713 0.81473 0.34392 0.0
C1685 C 0.3901 0.75075 0.33201 0.0
C1686 C 0.34173 0.79432 0.44339 0.0
C1687 C 0.29751 0.81129 0.41879 0.0
N1688 N 0.33556 0.8007 0.37624 0.0
C1689 C 0.35202 0.79287 0.40628 0.0
C1690 C 0.30852 0.80958 0.38207 0.0
C1691 C 0.31429 0.80365 0.44961 0.0
C1692 C 0.37095 0.75638 0.20812 0.0
N1693 N 0.39326 0.7546 0.23253 0.0
C1694 C 0.36266 0.73313 0.1866 0.0
C1695 C 0.3774 0.70791 0.19019 0.0
C1696 C 0.40018 0.70627 0.21508 0.0
C1697 C 0.40783 0.72996 0.23614 0.0
C1698 C 0.48124 0.78235 0.20598 0.0
C1699 C 0.46245 0.78291 0.28037 0.0
C1700 C 0.45258 0.7803 0.21446 0.0
N1701 N 0.44346 0.78149 0.25127 0.0
C1702 C 0.49125 0.78456 0.27301 0.0
C1703 C 0.50062 0.78502 0.23551 0.0
C1704 C 0.40914 0.82486 0.32804 0.0
C1705 C 0.31333 0.86726 0.27064 0.0
C1706 C 0.34259 0.85756 0.33741 0.0
C1707 C 0.33352 0.88477 0.32883 0.0
C1708 C 0.31879 0.8896 0.2952 0.0
N1709 N 0.33704 0.83573 0.31326 0.0
C1710 C 0.3227 0.84032 0.28018 0.0
Co1711 Co 0.9678 0.65173 0.01335 0.0
Co1712 Co 0.955 0.59843 0.07664 0.0
O1713 O 0.95875 0.61246 0.02442 0.0
C1714 C 0.9264 0.63341 0.9517 0.0
O1715 O 0.92401 0.60792 0.96552 0.0
C1716 C 0.99064 0.55596 0.03747 0.0
O1717 O 0.00646 0.57692 0.02584 0.0
O1718 O 0.99385 0.61158 0.08824 0.0
O1719 O 0.9946 0.65323 0.05798 0.0
H1720 H 0.96413 0.60353 0.21876 0.0
H1721 H 0.97695 0.60604 0.95602 0.0
O1722 O 0.9418 0.65177 0.96809 0.0
H1723 H 0.06707 0.65701 0.96399 0.0
H1724 H 0.97633 0.73658 0.92885 0.0
H1725 H 0.97434 0.7026 0.06117 0.0
H1726 H 0.02666 0.67152 1.00319 0.0
H1727 H 0.97702 0.68573 0.94273 0.0
O1728 O 0.96979 0.56087 0.05927 0.0
H1729 H 0.96755 0.62142 0.15321 0.0
H1730 H 0.93587 0.54413 0.11047 0.0
H1731 H 0.97327 0.7536 0.04856 0.0
H1732 H 0.01661 0.59103 0.91605 0.0
H1733 H 0.97321 0.77086 0.98197 0.0
H1734 H 0.06218 0.61654 0.91985 0.0
O1735 O 0.93593 0.66414 0.04561 0.0
H1736 H 0.88116 0.54874 0.99929 0.0
H1737 H 0.89906 0.60493 0.11443 0.0
H1738 H 0.85066 0.58967 0.09989 0.0
H1739 H 0.84145 0.56127 0.04198 0.0
H1740 H 0.92917 0.56479 0.01467 0.0
H1741 H 0.93241 0.52523 0.17556 0.0
H1742 H 0.94651 0.55506 0.2303 0.0
O1743 O 0.93983 0.63552 0.09558 0.0
C1744 C 0.00487 0.63566 0.08193 0.0
C1745 C 0.9579 0.59032 0.19517 0.0
C1746 C 0.94016 0.54637 0.17091 0.0
N1747 N 0.95195 0.58383 0.12799 0.0
C1748 C 0.95974 0.60035 0.15796 0.0
C1749 C 0.94229 0.55713 0.13408 0.0
C1750 C 0.94804 0.56312 0.20161 0.0
C1751 C 0.9964 0.61761 0.95751 0.0
N1752 N 0.99916 0.64 0.98156 0.0
C1753 C 0.01895 0.60884 0.93494 0.0
C1754 C 0.04452 0.62311 0.93715 0.0
C1755 C 0.04729 0.6458 0.96191 0.0
C1756 C 0.0243 0.65391 0.98409 0.0
C1757 C 0.97589 0.72929 0.95799 0.0
C1758 C 0.97518 0.70994 0.03214 0.0
C1759 C 0.97651 0.70052 0.96605 0.0
N1760 N 0.97534 0.69115 1.00276 0.0
C1761 C 0.97422 0.73884 0.02516 0.0
C1762 C 0.9741 0.74851 0.98779 0.0
C1763 C 0.93098 0.65818 0.08019 0.0
C1764 C 0.88488 0.56116 0.02457 0.0
C1765 C 0.89521 0.59295 0.08892 0.0
C1766 C 0.86776 0.58419 0.08096 0.0
C1767 C 0.86261 0.56821 0.0485 0.0
N1768 N 0.91694 0.58607 0.06522 0.0
C1769 C 0.91205 0.57029 0.03346 0.0
Co1770 Co 0.10227 0.21232 0.76539 0.0
Co1771 Co 0.15651 0.2054 0.82864 0.0
O1772 O 0.14212 0.2064 0.77632 0.0
C1773 C 0.12339 0.17263 0.7038 0.0
O1774 O 0.14954 0.17425 0.71558 0.0
C1775 C 0.19805 0.2404 0.7864 0.0
O1776 O 0.17674 0.25581 0.77487 0.0
O1777 O 0.1424 0.24417 0.83671 0.0
O1778 O 0.09992 0.24128 0.80809 0.0
H1779 H 0.15276 0.22063 0.97 0.0
H1780 H 0.15015 0.22541 0.71199 0.0
O1781 O 0.10354 0.18474 0.72192 0.0
H1782 H 0.08501 0.3055 0.70099 0.0
H1783 H 0.01494 0.20827 0.68448 0.0
H1784 H 0.05211 0.21761 0.81468 0.0
H1785 H 0.07433 0.26625 0.74396 0.0
H1786 H 0.06583 0.2142 0.69547 0.0
O1787 O 0.19367 0.21995 0.80909 0.0
H1788 H 0.13382 0.22028 0.90483 0.0
H1789 H 0.21176 0.18958 0.86271 0.0
H1790 H 1.00104 0.21183 0.8049 0.0
H1791 H 0.16142 0.26387 0.66832 0.0
H1792 H 0.98221 0.2063 0.7395 0.0
H1793 H 0.12883 0.30449 0.66248 0.0
O1794 O 0.0927 0.18087 0.80008 0.0
H1795 H 0.20629 0.12843 0.75738 0.0
H1796 H 0.15098 0.15159 0.87171 0.0
H1797 H 0.16662 0.10275 0.86135 0.0
H1798 H 0.19455 0.0909 0.80388 0.0
H1799 H 0.18997 0.17693 0.76864 0.0
H1800 H 0.23164 0.18978 0.92741 0.0
H1801 H 0.20204 0.20534 0.98166 0.0
O1802 O 0.11981 0.19088 0.84993 0.0
C1803 C 0.11763 0.25362 0.83029 0.0
C1804 C 0.1659 0.21386 0.9466 0.0
C1805 C 0.21017 0.1966 0.92269 0.0
N1806 N 0.17174 0.20518 0.87986 0.0
C1807 C 0.15529 0.21364 0.90959 0.0
C1808 C 0.19885 0.19668 0.88606 0.0
C1809 C 0.19355 0.2053 0.95312 0.0
C1810 C 0.13548 0.24251 0.7095 0.0
N1811 N 0.11128 0.24305 0.73055 0.0
C1812 C 0.14216 0.2645 0.68474 0.0
C1813 C 0.12392 0.2873 0.68153 0.0
C1814 C 0.09938 0.28789 0.70313 0.0
C1815 C 0.09346 0.26554 0.72761 0.0
C1816 C 0.02292 0.21036 0.71316 0.0
C1817 C 0.04404 0.21608 0.78605 0.0
C1818 C 0.05174 0.21392 0.71958 0.0
N1819 N 0.06207 0.21611 0.75577 0.0
C1820 C 0.01512 0.2124 0.78073 0.0
C1821 C 0.00458 0.20918 0.74403 0.0
C1822 C 0.09827 0.17918 0.83525 0.0
C1823 C 0.1941 0.13331 0.7825 0.0
C1824 C 0.16289 0.14658 0.84643 0.0
C1825 C 0.1718 0.1189 0.84082 0.0
C1826 C 0.18749 0.11227 0.80859 0.0
N1827 N 0.16938 0.1671 0.82066 0.0
C1828 C 0.18482 0.16076 0.78905 0.0
Co1829 Co 0.54123 0.35122 0.51298 0.0
Co1830 Co 0.55009 0.40573 0.57569 0.0
O1831 O 0.54921 0.39069 0.52379 0.0
C1832 C 0.58426 0.36909 0.45319 0.0
O1833 O 0.58562 0.39496 0.46596 0.0
C1834 C 0.51611 0.44743 0.53226 0.0
O1835 O 0.50043 0.42638 0.52062 0.0
O1836 O 0.51077 0.39247 0.58424 0.0
O1837 O 0.51172 0.35039 0.55477 0.0
H1838 H 0.53205 0.40522 0.71644 0.0
H1839 H 0.53343 0.39866 0.45766 0.0
O1840 O 0.56947 0.35061 0.47033 0.0
H1841 H 0.44756 0.3412 0.44662 0.0
H1842 H 0.53745 0.26421 0.43151 0.0
H1843 H 0.53292 0.30149 0.56208 0.0
H1844 H 0.48535 0.32744 0.49049 0.0
H1845 H 0.53684 0.31536 0.44293 0.0
O1846 O 0.53623 0.44283 0.55542 0.0
H1847 H 0.53204 0.3856 0.65161 0.0
H1848 H 0.56852 0.46053 0.60867 0.0
H1849 H 0.53342 0.2503 0.55193 0.0
H1850 H 0.49649 0.41287 0.41294 0.0
H1851 H 0.53656 0.23128 0.48626 0.0
H1852 H 0.45299 0.38419 0.40716 0.0
O1853 O 0.57144 0.3398 0.54895 0.0
H1854 H 0.62794 0.45377 0.50376 0.0
H1855 H 0.60392 0.39959 0.61876 0.0
H1856 H 0.65303 0.41445 0.60825 0.0
H1857 H 0.66531 0.44182 0.55046 0.0
H1858 H 0.57916 0.4382 0.51514 0.0
H1859 H 0.56865 0.48126 0.67286 0.0
H1860 H 0.55044 0.45349 0.72738 0.0
O1861 O 0.56419 0.36909 0.59762 0.0
C1862 C 0.50025 0.36819 0.5775 0.0
C1863 C 0.54014 0.41752 0.69297 0.0
C1864 C 0.56062 0.4602 0.6685 0.0
N1865 N 0.55045 0.42173 0.62644 0.0
C1866 C 0.54028 0.40643 0.65624 0.0
C1867 C 0.56042 0.44838 0.63217 0.0
C1868 C 0.55042 0.4446 0.69907 0.0
C1869 C 0.51489 0.38576 0.45534 0.0
N1870 N 0.51178 0.36215 0.47716 0.0
C1871 C 0.49387 0.39407 0.42992 0.0
C1872 C 0.46945 0.37802 0.42675 0.0
C1873 C 0.46637 0.35396 0.44891 0.0
C1874 C 0.48783 0.34636 0.47405 0.0
C1875 C 0.53645 0.27223 0.46026 0.0
C1876 C 0.53353 0.29345 0.53338 0.0
C1877 C 0.53593 0.30118 0.46692 0.0
N1878 N 0.53494 0.31147 0.50321 0.0
C1879 C 0.53425 0.2644 0.52782 0.0
C1880 C 0.53605 0.25376 0.491 0.0
C1881 C 0.57427 0.34639 0.58376 0.0
C1882 C 0.62286 0.44183 0.52904 0.0
C1883 C 0.60912 0.41121 0.59332 0.0
C1884 C 0.63696 0.41971 0.58763 0.0
C1885 C 0.64382 0.4351 0.55523 0.0
N1886 N 0.58867 0.41785 0.56746 0.0
C1887 C 0.59525 0.43298 0.53568 0.0
C1888 C 0.11513 0.1903 0.39894 0.0
C1889 C 0.08647 0.18356 0.40218 0.0
C1890 C 0.12395 0.21335 0.37674 0.0
C1891 C 0.10437 0.2307 0.35749 0.0
H1892 H 0.13076 0.17765 0.41346 0.0
H1893 H 0.14632 0.21759 0.37478 0.0
S1894 S 0.02642 0.22269 0.36107 0.0
N1895 N 0.03854 0.19586 0.38576 0.0
N1896 N 0.05451 0.23998 0.34625 0.0
C1897 C 0.07551 0.22421 0.36156 0.0
C1898 C 0.06674 0.20043 0.3833 0.0
C1899 C 0.02393 0.85788 0.64756 0.0
C1900 C 0.02795 0.86343 0.60879 0.0
C1901 C 0.04613 0.84841 0.67054 0.0
C1902 C 0.0733 0.84363 0.65557 0.0
H1903 H 0.0033 0.86008 0.66013 0.0
H1904 H 0.04157 0.84393 0.70006 0.0
S1905 S 0.09506 0.85776 0.55584 0.0
N1906 N 0.06122 0.86573 0.55675 0.0
N1907 N 0.10306 0.84749 0.59935 0.0
C1908 C 0.07773 0.85022 0.61689 0.0
C1909 C 0.05503 0.8601 0.59364 0.0
C1910 C 0.3912 0.81447 0.90358 0.0
C1911 C 0.41731 0.82753 0.89726 0.0
C1912 C 0.38238 0.79165 0.88104 0.0
C1913 C 0.39984 0.78028 0.85235 0.0
H1914 H 0.37757 0.82191 0.92611 0.0
H1915 H 0.36196 0.78246 0.88686 0.0
S1916 S 0.47143 0.80615 0.82744 0.0
N1917 N 0.4607 0.82754 0.86122 0.0
N1918 N 0.44545 0.78362 0.82093 0.0
C1919 C 0.42633 0.79303 0.84661 0.0
C1920 C 0.4347 0.81689 0.86849 0.0
C1921 C 0.43871 0.18166 0.11761 0.0
C1922 C 0.43052 0.1672 0.15064 0.0
C1923 C 0.46189 0.17277 0.09597 0.0
C1924 C 0.4774 0.14849 0.10572 0.0
H1925 H 0.42785 0.20075 0.10926 0.0
H1926 H 0.46779 0.18534 0.07164 0.0
S1927 S 0.46335 0.10252 0.18917 0.0
N1928 N 0.4393 0.12752 0.19224 0.0
N1929 N 0.48177 0.10962 0.15056 0.0
C1930 C 0.46872 0.13335 0.13824 0.0
C1931 C 0.44562 0.143 0.16092 0.0
C1932 C 0.08355 0.79205 0.16392 0.0
C1933 C 0.109 0.77817 0.15508 0.0
C1934 C 0.07399 0.81504 0.14243 0.0
C1935 C 0.08906 0.82462 0.1106 0.0
H1936 H 0.07056 0.78489 0.18724 0.0
H1937 H 0.05398 0.82456 0.14978 0.0
S1938 S 0.1572 0.797 0.07569 0.0
N1939 N 0.14985 0.77732 0.11305 0.0
N1940 N 0.1308 0.8194 0.07167 0.0
C1941 C 0.11458 0.8114 0.1016 0.0
C1942 C 0.12483 0.78852 0.12409 0.0
C1943 C 0.45716 0.84636 0.33573 0.0
C1944 C 0.43087 0.8393 0.35182 0.0
C1945 C 0.47939 0.85654 0.35805 0.0
C1946 C 0.47628 0.86047 0.39734 0.0
H1947 H 0.46108 0.84315 0.30573 0.0
H1948 H 0.49942 0.8604 0.3445 0.0
S1949 S 0.41144 0.84835 0.45344 0.0
N1950 N 0.40277 0.83904 0.40979 0.0
N1951 N 0.4446 0.85866 0.45121 0.0
C1952 C 0.45 0.8547 0.41372 0.0
C1953 C 0.42727 0.84414 0.3911 0.0
C1954 C 0.42255 0.21312 0.66012 0.0
C1955 C 0.39716 0.22706 0.65109 0.0
C1956 C 0.4326 0.19067 0.63809 0.0
C1957 C 0.41812 0.1817 0.60546 0.0
H1958 H 0.43513 0.21979 0.68412 0.0
H1959 H 0.45247 0.181 0.6458 0.0
S1960 S 0.35035 0.20968 0.56963 0.0
N1961 N 0.35697 0.22857 0.60796 0.0
N1962 N 0.37699 0.18756 0.56547 0.0
C1963 C 0.39269 0.19501 0.59614 0.0
C1964 C 0.38191 0.21733 0.61923 0.0
C1965 C 0.06752 0.18121 0.89275 0.0
C1966 C 0.07677 0.16652 0.86043 0.0
C1967 C 0.04456 0.17155 0.9143 0.0
C1968 C 0.03038 0.14637 0.90503 0.0
H1969 H 0.07729 0.201 0.9005 0.0
H1970 H 0.0377 0.18424 0.93808 0.0
S1971 S 0.0481 0.09925 0.82407 0.0
N1972 N 0.07078 0.12544 0.82049 0.0
N1973 N 0.02877 0.10626 0.86188 0.0
C1974 C 0.04034 0.13095 0.87345 0.0
C1975 C 0.06318 0.14129 0.85094 0.0
C1976 C 0.8958 0.81299 0.60143 0.0
C1977 C 0.9166 0.83196 0.6139 0.0
C1978 C 0.88638 0.79088 0.62473 0.0
C1979 C 0.89811 0.78611 0.66099 0.0
H1980 H 0.88703 0.81494 0.57313 0.0
H1981 H 0.87042 0.77691 0.61357 0.0
S1982 S 0.95199 0.8309 0.70783 0.0
N1983 N 0.94725 0.84562 0.66589 0.0
N1984 N 0.93072 0.80348 0.70867 0.0
C1985 C 0.91847 0.80537 0.674 0.0
C1986 C 0.92737 0.82841 0.65077 0.0
C1987 C 0.97424 0.14182 0.36383 0.0
C1988 C 0.97898 0.15213 0.40097 0.0
C1989 C 0.95318 0.15317 0.34018 0.0
C1990 C 0.93524 0.17466 0.35307 0.0
H1991 H 0.98722 0.12513 0.35248 0.0
H1992 H 0.9508 0.1449 0.31168 0.0
S1993 S 0.93748 0.20836 0.44812 0.0
N1994 N 0.9633 0.18517 0.44918 0.0
N1995 N 0.92334 0.20557 0.40553 0.0
C1996 C 0.93928 0.18473 0.39028 0.0
C1997 C 0.96117 0.17374 0.41398 0.0
C1998 C 0.59748 0.20907 0.08738 0.0
C1999 C 0.59088 0.18231 0.1024 0.0
C2000 C 0.60705 0.23106 0.11068 0.0
C2001 C 0.61069 0.22726 0.14993 0.0
H2002 H 0.59435 0.21351 0.0575 0.0
H2003 H 0.61058 0.25144 0.09794 0.0
S2004 S 0.60093 0.16063 0.20299 0.0
N2005 N 0.59173 0.15283 0.15902 0.0
N2006 N 0.61013 0.19412 0.20223 0.0
C2007 C 0.60579 0.20039 0.16508 0.0
C2008 C 0.59592 0.17793 0.14147 0.0
C2009 C 0.54079 0.87286 0.87216 0.0
C2010 C 0.52494 0.85437 0.89532 0.0
C2011 C 0.56146 0.86278 0.84677 0.0
C2012 C 0.56684 0.83385 0.8434 0.0
H2013 H 0.53731 0.89534 0.87367 0.0
H2014 H 0.57345 0.87767 0.83 0.0
S2015 S 0.53134 0.77629 0.89534 0.0
N2016 N 0.51634 0.8052 0.91159 0.0
N2017 N 0.55519 0.78689 0.86454 0.0
C2018 C 0.55136 0.8152 0.866 0.0
C2019 C 0.53042 0.82526 0.89174 0.0
C2020 C 0.92191 0.20801 0.844 0.0
C2021 C 0.89836 0.22434 0.85459 0.0
C2022 C 0.93116 0.18531 0.86622 0.0
C2023 C 0.91778 0.17842 0.90058 0.0
H2024 H 0.93372 0.21296 0.8186 0.0
H2025 H 0.94976 0.17389 0.85726 0.0
S2026 S 0.85501 0.21353 0.94134 0.0
N2027 N 0.86114 0.23077 0.90146 0.0
N2028 N 0.87961 0.18907 0.94404 0.0
C2029 C 0.89414 0.19421 0.91151 0.0
C2030 C 0.88416 0.21687 0.88834 0.0
C2031 C 0.55668 0.14777 0.6593 0.0
C2032 C 0.57547 0.16846 0.64605 0.0
C2033 C 0.53482 0.13745 0.63619 0.0
C2034 C 0.53018 0.14808 0.59928 0.0
H2035 H 0.5587 0.13963 0.68793 0.0
H2036 H 0.52099 0.12162 0.64793 0.0
S2037 S 0.57452 0.20129 0.5504 0.0
N2038 N 0.58886 0.19807 0.59283 0.0
N2039 N 0.54748 0.1795 0.55015 0.0
C2040 C 0.54924 0.16834 0.58553 0.0
C2041 C 0.5719 0.17829 0.60867 0.0
C2042 C 0.61906 0.78826 0.38351 0.0
C2043 C 0.60821 0.78261 0.34695 0.0
C2044 C 0.6089 0.81058 0.40566 0.0
C2045 C 0.58803 0.8289 0.39189 0.0
H2046 H 0.63503 0.77483 0.39586 0.0
H2047 H 0.6172 0.81325 0.43411 0.0
S2048 S 0.55415 0.82534 0.29701 0.0
N2049 N 0.57598 0.79833 0.29759 0.0
N2050 N 0.55785 0.84089 0.3386 0.0
C2051 C 0.57787 0.82442 0.35482 0.0
C2052 C 0.58767 0.80116 0.33257 0.0
C2053 C 0.9414 0.82071 0.12106 0.0
C2054 C 0.93211 0.83559 0.15319 0.0
C2055 C 0.96374 0.83074 0.09872 0.0
C2056 C 0.9772 0.85648 0.10697 0.0
H2057 H 0.9321 0.80054 0.11405 0.0
H2058 H 0.97071 0.81792 0.07512 0.0
S2059 S 0.9587 0.9044 0.1868 0.0
N2060 N 0.93707 0.87745 0.19179 0.0
N2061 N 0.97781 0.89745 0.14876 0.0
C2062 C 0.96707 0.87213 0.13829 0.0
C2063 C 0.9449 0.86138 0.16167 0.0
C2064 C 0.59243 0.70891 0.91527 0.0
C2065 C 0.58556 0.68209 0.90073 0.0
C2066 C 0.60261 0.7305 0.89165 0.0
C2067 C 0.60616 0.72643 0.85237 0.0
H2068 H 0.58937 0.71362 0.94508 0.0
H2069 H 0.60681 0.7508 0.90419 0.0
S2070 S 0.59421 0.65986 0.80003 0.0
N2071 N 0.5853 0.65245 0.84423 0.0
N2072 N 0.60413 0.69313 0.80041 0.0
C2073 C 0.60029 0.69966 0.83756 0.0
C2074 C 0.59016 0.67751 0.86156 0.0
C2075 C 0.54492 0.3425 0.17048 0.0
C2076 C 0.57259 0.33909 0.15645 0.0
C2077 C 0.52296 0.35213 0.14716 0.0
C2078 C 0.52781 0.35934 0.10907 0.0
H2079 H 0.53982 0.33682 0.19945 0.0
H2080 H 0.50191 0.3531 0.1588 0.0
S2081 S 0.59645 0.35813 0.05917 0.0
N2082 N 0.60362 0.34616 0.10213 0.0
N2083 N 0.56237 0.36504 0.05905 0.0
C2084 C 0.55539 0.35754 0.09506 0.0
C2085 C 0.57778 0.34737 0.11858 0.0
C2086 C 0.92504 0.29928 0.34197 0.0
C2087 C 0.89986 0.28494 0.35103 0.0
C2088 C 0.9351 0.32147 0.36454 0.0
C2089 C 0.92083 0.32977 0.39764 0.0
H2090 H 0.93746 0.29307 0.31759 0.0
H2091 H 0.95488 0.33137 0.35692 0.0
S2092 S 0.85349 0.30083 0.43349 0.0
N2093 N 0.85996 0.28257 0.39457 0.0
N2094 N 0.88001 0.32305 0.43791 0.0
C2095 C 0.89553 0.31618 0.40684 0.0
C2096 C 0.88475 0.29413 0.3833 0.0
C2097 C 0.93914 0.68806 0.62235 0.0
C2098 C 0.93089 0.67384 0.65554 0.0
C2099 C 0.9614 0.67809 0.59983 0.0
C2100 C 0.97582 0.65301 0.6089 0.0
H2101 H 0.92906 0.70767 0.6145 0.0
H2102 H 0.96747 0.69045 0.57535 0.0
S2103 S 0.96084 0.60724 0.69227 0.0
N2104 N 0.93825 0.63346 0.6964 0.0
N2105 N 0.97894 0.61363 0.65315 0.0
C2106 C 0.96698 0.63812 0.64154 0.0
C2107 C 0.94485 0.64882 0.66508 0.0
C2108 C 0.60783 0.3064 0.59583 0.0
C2109 C 0.58753 0.3254 0.60965 0.0
C2110 C 0.61863 0.28473 0.61885 0.0
C2111 C 0.60878 0.28038 0.6562 0.0
H2112 H 0.61531 0.30813 0.56685 0.0
H2113 H 0.63419 0.27083 0.6067 0.0
S2114 S 0.55771 0.32597 0.70707 0.0
N2115 N 0.55975 0.33976 0.6642 0.0
N2116 N 0.57915 0.29867 0.70664 0.0
C2117 C 0.58917 0.29984 0.67062 0.0
C2118 C 0.57878 0.32236 0.64759 0.0
C2119 C 0.98319 0.35145 0.85766 0.0
C2120 C 0.9783 0.35836 0.89583 0.0
C2121 C 0.96143 0.34139 0.83432 0.0
C2122 C 0.93386 0.33745 0.84839 0.0
H2123 H 0.00413 0.35307 0.84591 0.0
H2124 H 0.96664 0.33579 0.80536 0.0
S2125 S 0.90979 0.35573 0.94588 0.0
N2126 N 0.94374 0.36323 0.94598 0.0
N2127 N 0.90277 0.34384 0.90284 0.0
C2128 C 0.92856 0.34558 0.88632 0.0
C2129 C 0.95078 0.35605 0.90987 0.0
C2130 C 0.91349 0.70755 0.08984 0.0
C2131 C 0.91724 0.68009 0.10431 0.0
C2132 C 0.90418 0.72966 0.113 0.0
C2133 C 0.89743 0.72511 0.15129 0.0
H2134 H 0.91867 0.7124 0.06062 0.0
H2135 H 0.90304 0.75057 0.10101 0.0
S2136 S 0.90004 0.65716 0.20261 0.0
N2137 N 0.9115 0.64964 0.15951 0.0
N2138 N 0.89271 0.69111 0.20217 0.0
C2139 C 0.89962 0.69775 0.16583 0.0
C2140 C 0.9097 0.67524 0.14253 0.0
C2141 C 0.56482 0.68522 0.38748 0.0
C2142 C 0.5734 0.67144 0.35408 0.0
C2143 C 0.54243 0.67493 0.40958 0.0
C2144 C 0.52814 0.64991 0.3999 0.0
H2145 H 0.575 0.7046 0.39608 0.0
H2146 H 0.53631 0.68686 0.43442 0.0
S2147 S 0.54357 0.60539 0.31545 0.0
N2148 N 0.56622 0.63164 0.31221 0.0
N2149 N 0.52521 0.61128 0.35449 0.0
C2150 C 0.53708 0.63561 0.3668 0.0
C2151 C 0.55937 0.64664 0.34373 0.0
C2152 C 0.41177 0.29562 0.08632 0.0
C2153 C 0.41648 0.32278 0.10127 0.0
C2154 C 0.40242 0.27338 0.10929 0.0
C2155 C 0.3966 0.27745 0.14797 0.0
H2156 H 0.41619 0.29108 0.05679 0.0
H2157 H 0.40049 0.25273 0.09676 0.0
S2158 S 0.40146 0.34476 0.20056 0.0
N2159 N 0.41226 0.35262 0.15725 0.0
N2160 N 0.39354 0.31094 0.19968 0.0
C2161 C 0.39969 0.3046 0.16302 0.0
C2162 C 0.40974 0.32725 0.13984 0.0
C2163 C 0.46961 0.63792 0.86983 0.0
C2164 C 0.47303 0.64727 0.90757 0.0
C2165 C 0.44777 0.64807 0.84665 0.0
C2166 C 0.42782 0.66743 0.86047 0.0
H2167 H 0.4844 0.62326 0.85749 0.0
H2168 H 0.44683 0.641 0.81742 0.0
S2169 S 0.42486 0.69567 0.95877 0.0
N2170 N 0.45307 0.67542 0.95841 0.0
N2171 N 0.4116 0.69369 0.91556 0.0
C2172 C 0.43001 0.67571 0.89879 0.0
C2173 C 0.45268 0.66588 0.9221 0.0
C2174 C 0.08354 0.71598 0.65921 0.0
C2175 C 0.10754 0.7316 0.64859 0.0
C2176 C 0.07371 0.69352 0.63718 0.0
C2177 C 0.08688 0.68616 0.60288 0.0
H2178 H 0.07188 0.72123 0.68461 0.0
H2179 H 0.05494 0.68249 0.64641 0.0
S2180 S 0.15031 0.71965 0.5616 0.0
N2181 N 0.14475 0.7371 0.60147 0.0
N2182 N 0.12507 0.69581 0.55904 0.0
C2183 C 0.11077 0.7014 0.59161 0.0
C2184 C 0.12141 0.72382 0.6147 0.0
C2185 C 0.04803 0.33974 0.41561 0.0
C2186 C 0.0333 0.36448 0.4058 0.0
C2187 C 0.07066 0.32992 0.39368 0.0
C2188 C 0.07908 0.34403 0.36049 0.0
H2189 H 0.04169 0.32735 0.43994 0.0
H2190 H 0.08063 0.31028 0.40169 0.0
S2191 S 0.0493 0.41054 0.32313 0.0
N2192 N 0.03067 0.40398 0.36172 0.0
N2193 N 0.07215 0.3845 0.3196 0.0
C2194 C 0.06523 0.36909 0.35077 0.0
C2195 C 0.04267 0.37959 0.37365 0.0
C2196 C 0.39213 0.69293 0.40778 0.0
C2197 C 0.41861 0.68053 0.40204 0.0
C2198 C 0.38286 0.71524 0.38459 0.0
C2199 C 0.40008 0.72646 0.35551 0.0
H2200 H 0.37853 0.68532 0.43024 0.0
H2201 H 0.36219 0.72401 0.38999 0.0
S2202 S 0.47281 0.70261 0.3328 0.0
N2203 N 0.46248 0.68153 0.36718 0.0
N2204 N 0.44604 0.7239 0.32467 0.0
C2205 C 0.427 0.71439 0.35044 0.0
C2206 C 0.43599 0.69134 0.37341 0.0
C2207 C 0.0457 0.66836 0.09351 0.0
C2208 C 0.03007 0.64444 0.1045 0.0
C2209 C 0.06836 0.67828 0.11538 0.0
C2210 C 0.07591 0.66514 0.14967 0.0
H2211 H 0.04016 0.67993 0.0681 0.0
H2212 H 0.07921 0.69715 0.10621 0.0
S2213 S 0.04329 0.60123 0.19084 0.0
N2214 N 0.02542 0.60691 0.15133 0.0
N2215 N 0.06698 0.62659 0.19316 0.0
C2216 C 0.061 0.64102 0.1608 0.0
C2217 C 0.0384 0.6304 0.13805 0.0
C2218 C 0.11961 0.28409 0.88867 0.0
C2219 C 0.10842 0.27888 0.8522 0.0
C2220 C 0.10968 0.3063 0.91134 0.0
C2221 C 0.08895 0.32496 0.89793 0.0
H2222 H 0.13557 0.27043 0.90046 0.0
H2223 H 0.11804 0.30864 0.93981 0.0
S2224 S 0.05497 0.32273 0.80303 0.0
N2225 N 0.07651 0.2955 0.80321 0.0
N2226 N 0.05894 0.33786 0.84484 0.0
C2227 C 0.07873 0.32098 0.86082 0.0
C2228 C 0.08815 0.29782 0.83824 0.0
C2229 C 0.46934 0.3707 0.63575 0.0
C2230 C 0.47472 0.35936 0.59942 0.0
C2231 C 0.44739 0.36042 0.65875 0.0
C2232 C 0.42914 0.33914 0.64582 0.0
H2233 H 0.4827 0.38703 0.64722 0.0
H2234 H 0.4449 0.36898 0.68707 0.0
S2235 S 0.43173 0.30458 0.55142 0.0
N2236 N 0.45843 0.32677 0.55102 0.0
N2237 N 0.41681 0.30838 0.59339 0.0
C2238 C 0.43326 0.32874 0.60887 0.0
C2239 C 0.45607 0.3386 0.58592 0.0
C2240 C 0.27346 0.26752 0.26251 0.0
C2241 C 0.27837 0.24625 0.23546 0.0
C2242 C 0.24636 0.27275 0.27692 0.0
C2243 C 0.22279 0.25697 0.26499 0.0
H2244 H 0.29072 0.28026 0.27292 0.0
H2245 H 0.24394 0.28942 0.29764 0.0
S2246 S 0.22389 0.19901 0.1942 0.0
N2247 N 0.25699 0.20936 0.19709 0.0
N2248 N 0.20628 0.21923 0.22398 0.0
C2249 C 0.22733 0.23567 0.23785 0.0
C2250 C 0.25498 0.23031 0.22319 0.0
C2251 C 0.98264 0.99933 0.52014 0.0
C2252 C 0.99856 0.97556 0.5096 0.0
C2253 C 0.9876 0.02586 0.50396 0.0
C2254 C 0.0087 0.02994 0.47637 0.0
H2255 H 0.96616 0.99758 0.54128 0.0
H2256 H 0.97487 0.04337 0.51357 0.0
S2257 S 0.05603 0.97451 0.43796 0.0
N2258 N 0.03613 0.95784 0.46912 0.0
N2259 N 0.04547 0.00758 0.43881 0.0
C2260 C 0.02467 0.00631 0.46527 0.0
C2261 C 0.01962 0.97922 0.48182 0.0
C2262 C 0.27478 0.77182 0.7399 0.0
C2263 C 0.28016 0.74887 0.76418 0.0
C2264 C 0.24762 0.7772 0.7257 0.0
C2265 C 0.22454 0.75983 0.73499 0.0
H2266 H 0.29167 0.78591 0.7318 0.0
H2267 H 0.24474 0.79527 0.70734 0.0
S2268 S 0.22716 0.69656 0.79698 0.0
N2269 N 0.25985 0.70829 0.79639 0.0
N2270 N 0.20909 0.71843 0.76995 0.0
C2271 C 0.22962 0.73667 0.75905 0.0
C2272 C 0.25728 0.7312 0.77355 0.0
C2273 C 0.52455 0.00917 0.02811 0.0
C2274 C 0.50785 0.03238 0.01732 0.0
C2275 C 0.51969 0.9821 0.01336 0.0
C2276 C 0.49795 0.97693 0.98699 0.0
H2277 H 0.54163 0.01185 0.04819 0.0
H2278 H 0.53313 0.96508 0.02285 0.0
S2279 S 0.4481 0.03045 0.94912 0.0
N2280 N 0.46861 0.04824 0.97833 0.0
N2281 N 0.45945 0.99768 0.95081 0.0
C2282 C 0.48108 0.99998 0.97591 0.0
C2283 C 0.48601 0.02754 0.99099 0.0
C2284 C 0.23117 0.76529 0.26615 0.0
C2285 C 0.22631 0.74334 0.24007 0.0
C2286 C 0.25812 0.77046 0.2811 0.0
C2287 C 0.2815 0.75387 0.27075 0.0
H2288 H 0.21401 0.77872 0.27521 0.0
H2289 H 0.26058 0.78774 0.30087 0.0
S2290 S 0.28034 0.69354 0.20363 0.0
N2291 N 0.24745 0.70468 0.20476 0.0
N2292 N 0.29787 0.71439 0.23268 0.0
C2293 C 0.27697 0.73175 0.24481 0.0
C2294 C 0.24951 0.7265 0.22955 0.0
C2295 C 0.52212 0.99853 0.47765 0.0
C2296 C 0.50576 0.97506 0.48827 0.0
C2297 C 0.51704 0.02536 0.49281 0.0
C2298 C 0.49537 0.03004 0.51937 0.0
H2299 H 0.53912 0.99627 0.45737 0.0
H2300 H 0.53023 0.04259 0.48339 0.0
S2301 S 0.44642 0.9757 0.55708 0.0
N2302 N 0.46696 0.95836 0.5274 0.0
N2303 N 0.45735 0.00864 0.55574 0.0
C2304 C 0.47882 0.00675 0.53035 0.0
C2305 C 0.48402 0.97937 0.51487 0.0
C2306 C 0.23151 0.26786 0.74523 0.0
C2307 C 0.22702 0.24603 0.77162 0.0
C2308 C 0.25837 0.27334 0.73019 0.0
C2309 C 0.28203 0.25721 0.74077 0.0
H2310 H 0.21413 0.2809 0.73589 0.0
H2311 H 0.26051 0.29044 0.71005 0.0
S2312 S 0.28191 0.19756 0.80906 0.0
N2313 N 0.24882 0.20811 0.8077 0.0
N2314 N 0.29908 0.21843 0.77963 0.0
C2315 C 0.27789 0.2353 0.76717 0.0
C2316 C 0.2505 0.22972 0.78251 0.0
C2317 C 0.98336 0.00674 0.97975 0.0
C2318 C 0.99935 0.03024 0.99122 0.0
C2319 C 0.98859 0.97974 0.99445 0.0
C2320 C 0.01004 0.97495 0.02136 0.0
H2321 H 0.96654 0.00912 0.9592 0.0
H2322 H 0.97568 0.96249 0.98444 0.0
S2323 S 0.058 0.02936 0.06118 0.0
N2324 N 0.03758 0.04683 0.03148 0.0
N2325 N 0.04744 0.99634 0.05888 0.0
C2326 C 0.02621 0.99829 0.03311 0.0
C2327 C 0.02087 0.0258 0.01814 0.0
C2328 C 0.75793 0.73573 0.73305 0.0
C2329 C 0.78082 0.7523 0.74533 0.0
C2330 C 0.73059 0.73992 0.74727 0.0
C2331 C 0.7248 0.76088 0.77447 0.0
H2332 H 0.76104 0.71933 0.71212 0.0
H2333 H 0.71381 0.72673 0.73643 0.0
S2334 S 0.77737 0.80956 0.81705 0.0
N2335 N 0.79581 0.79024 0.78711 0.0
N2336 N 0.74466 0.79811 0.81368 0.0
C2337 C 0.74755 0.77748 0.78726 0.0
C2338 C 0.77542 0.7732 0.77277 0.0
C2339 C 0.73263 0.23883 0.26285 0.0
C2340 C 0.72693 0.26082 0.2371 0.0
C2341 C 0.7599 0.23424 0.27722 0.0
C2342 C 0.78277 0.25143 0.26656 0.0
H2343 H 0.71586 0.22504 0.27227 0.0
H2344 H 0.76299 0.21699 0.29691 0.0
S2345 S 0.77949 0.31175 0.19947 0.0
N2346 N 0.74688 0.29989 0.20133 0.0
N2347 N 0.7978 0.29127 0.22815 0.0
C2348 C 0.77743 0.27345 0.24072 0.0
C2349 C 0.74967 0.27812 0.22608 0.0
C2350 C 0.73232 0.26718 0.76386 0.0
C2351 C 0.72678 0.24457 0.7391 0.0
C2352 C 0.75948 0.2721 0.77833 0.0
C2353 C 0.78238 0.25457 0.76884 0.0
H2354 H 0.71556 0.28136 0.77217 0.0
H2355 H 0.76248 0.28993 0.79705 0.0
S2356 S 0.77931 0.19209 0.70554 0.0
N2357 N 0.74674 0.20417 0.70616 0.0
N2358 N 0.79751 0.21343 0.73316 0.0
C2359 C 0.77714 0.23175 0.7443 0.0
C2360 C 0.74948 0.22676 0.72952 0.0
C2361 C 0.77657 0.73565 0.27007 0.0
C2362 C 0.78187 0.75802 0.24477 0.0
C2363 C 0.74962 0.73109 0.28545 0.0
C2364 C 0.72672 0.7487 0.27623 0.0
H2365 H 0.79337 0.72143 0.27814 0.0
H2366 H 0.74671 0.71341 0.30448 0.0
S2367 S 0.72926 0.81068 0.21187 0.0
N2368 N 0.76169 0.79829 0.21172 0.0
N2369 N 0.71138 0.78974 0.2404 0.0
C2370 C 0.73175 0.77128 0.25118 0.0
C2371 C 0.75917 0.77593 0.23555 0.0
C2372 C 0.51774 0.48073 0.99165 0.0
C2373 C 0.49628 0.4757 0.01847 0.0
C2374 C 0.52249 0.50773 0.97658 0.0
C2375 C 0.506 0.53101 0.98759 0.0
H2376 H 0.53097 0.46363 0.98192 0.0
H2377 H 0.53933 0.5103 0.95612 0.0
S2378 S 0.44738 0.52954 0.05754 0.0
N2379 N 0.45856 0.49671 0.05572 0.0
N2380 N 0.46742 0.54714 0.02754 0.0
C2381 C 0.48452 0.52634 0.01449 0.0
C2382 C 0.47969 0.49884 0.02986 0.0
C2383 C 0.9819 0.50176 0.48117 0.0
C2384 C 0.9978 0.47836 0.49326 0.0
C2385 C 0.9865 0.52872 0.49628 0.0
C2386 C 0.0072 0.53358 0.5242 0.0
H2387 H 0.96573 0.49933 0.4597 0.0
H2388 H 0.97382 0.54594 0.4856 0.0
S2389 S 0.05408 0.47934 0.56667 0.0
N2390 N 0.03479 0.46186 0.53565 0.0
N2391 N 0.04341 0.51231 0.5639 0.0
C2392 C 0.02311 0.51031 0.53681 0.0
C2393 C 0.01843 0.48283 0.52141 0.0
C2394 C 0.0234 0.49473 0.98325 0.0
C2395 C 0.0065 0.47151 0.99336 0.0
C2396 C 0.01827 0.52171 0.9979 0.0
C2397 C 0.99603 0.5268 0.02344 0.0
H2398 H 0.04082 0.49216 0.96369 0.0
H2399 H 0.03187 0.53874 0.98885 0.0
S2400 S 0.94563 0.47321 0.05961 0.0
N2401 N 0.96665 0.45546 0.031 0.0
N2402 N 0.95696 0.50601 0.05841 0.0
C2403 C 0.97899 0.50374 0.03397 0.0
C2404 C 0.98422 0.47621 0.01899 0.0
C2405 C 0.48941 0.48137 0.49092 0.0
C2406 C 0.51116 0.47643 0.51731 0.0
C2407 C 0.48443 0.50833 0.476 0.0
C2408 C 0.50099 0.53164 0.48671 0.0
H2409 H 0.476 0.46428 0.48158 0.0
H2410 H 0.46728 0.51085 0.45598 0.0
S2411 S 0.56088 0.53021 0.55469 0.0
N2412 N 0.54966 0.49738 0.55327 0.0
N2413 N 0.54026 0.54783 0.52539 0.0
C2414 C 0.52293 0.52702 0.51293 0.0
C2415 C 0.52801 0.49954 0.52816 0.0
C2416 C 0.0734 0.3462 0.11381 0.0
C2417 C 0.09372 0.35167 0.08561 0.0
C2418 C 0.08105 0.34129 0.1516 0.0
C2419 C 0.10943 0.34138 0.16317 0.0
H2420 H 0.05123 0.34523 0.10665 0.0
H2421 H 0.06442 0.3367 0.17172 0.0
S2422 S 0.17086 0.35676 0.10114 0.0
N2423 N 0.14346 0.35873 0.07233 0.0
N2424 N 0.15798 0.34918 0.14352 0.0
C2425 C 0.12999 0.34809 0.13568 0.0
C2426 C 0.12211 0.35328 0.09693 0.0
C2427 C 0.90648 0.86972 0.34957 0.0
C2428 C 0.90341 0.8411 0.34022 0.0
C2429 C 0.91227 0.87817 0.38711 0.0
C2430 C 0.91505 0.8583 0.41664 0.0
H2431 H 0.90567 0.88561 0.32752 0.0
H2432 H 0.91588 0.9003 0.39262 0.0
S2433 S 0.90416 0.78123 0.40828 0.0
N2434 N 0.90039 0.79324 0.36461 0.0
N2435 N 0.91073 0.80914 0.43468 0.0
C2436 C 0.91011 0.82986 0.40804 0.0
C2437 C 0.90445 0.82126 0.36999 0.0
C2438 C 0.40626 0.67605 0.64356 0.0
C2439 C 0.40299 0.65534 0.67195 0.0
C2440 C 0.41306 0.669 0.60614 0.0
C2441 C 0.41666 0.64085 0.59501 0.0
H2442 H 0.40439 0.6982 0.65038 0.0
H2443 H 0.4162 0.68592 0.58594 0.0
S2444 S 0.4082 0.57823 0.65711 0.0
N2445 N 0.40218 0.60519 0.68558 0.0
N2446 N 0.41474 0.59183 0.61483 0.0
C2447 C 0.41199 0.61971 0.62241 0.0
C2448 C 0.4052 0.62696 0.66092 0.0
C2449 C 0.5834 0.15804 0.85167 0.0
C2450 C 0.6119 0.16012 0.84113 0.0
C2451 C 0.57549 0.15254 0.88918 0.0
C2452 C 0.59567 0.14878 0.9181 0.0
H2453 H 0.56688 0.16169 0.831 0.0
H2454 H 0.55319 0.15202 0.89566 0.0
S2455 S 0.67321 0.14931 0.90511 0.0
N2456 N 0.66055 0.15583 0.86229 0.0
N2457 N 0.64555 0.14531 0.93304 0.0
C2458 C 0.62429 0.14906 0.9077 0.0
C2459 C 0.63242 0.15475 0.86921 0.0
C2460 C 0.12127 0.65381 0.41044 0.0
C2461 C 0.09261 0.64991 0.41932 0.0
C2462 C 0.12995 0.6593 0.37289 0.0
C2463 C 0.11026 0.66098 0.34302 0.0
H2464 H 0.13692 0.65408 0.43284 0.0
H2465 H 0.15197 0.66381 0.36767 0.0
S2466 S 0.03347 0.6474 0.35011 0.0
N2467 N 0.04513 0.64459 0.3941 0.0
N2468 N 0.06144 0.65464 0.3241 0.0
C2469 C 0.0819 0.65502 0.35116 0.0
C2470 C 0.07308 0.64957 0.38914 0.0
C2471 C 0.60275 0.8253 0.63371 0.0
C2472 C 0.60451 0.84498 0.66362 0.0
C2473 C 0.59628 0.83353 0.59658 0.0
C2474 C 0.59157 0.86189 0.58733 0.0
H2475 H 0.60551 0.80303 0.63908 0.0
H2476 H 0.59416 0.81732 0.57512 0.0
S2477 S 0.59631 0.92229 0.65399 0.0
N2478 N 0.60299 0.89452 0.68072 0.0
N2479 N 0.59108 0.91011 0.61061 0.0
C2480 C 0.59491 0.8821 0.61633 0.0
C2481 C 0.60133 0.87363 0.65449 0.0
C2482 C 0.37735 0.34648 0.86954 0.0
C2483 C 0.39741 0.3433 0.84035 0.0
C2484 C 0.38566 0.35244 0.90711 0.0
C2485 C 0.4143 0.35534 0.91674 0.0
H2486 H 0.35522 0.34292 0.8638 0.0
H2487 H 0.36965 0.35345 0.92898 0.0
S2488 S 0.47461 0.35363 0.84935 0.0
N2489 N 0.44676 0.34702 0.82277 0.0
N2490 N 0.46237 0.35796 0.89281 0.0
C2491 C 0.43431 0.35406 0.88719 0.0
C2492 C 0.42587 0.34812 0.84917 0.0
C2493 C 0.90334 0.18068 0.13931 0.0
C2494 C 0.90101 0.16137 0.16955 0.0
C2495 C 0.90954 0.17187 0.10241 0.0
C2496 C 0.91356 0.14329 0.09379 0.0
H2497 H 0.90126 0.20308 0.14426 0.0
H2498 H 0.91213 0.1878 0.08065 0.0
S2499 S 0.90712 0.08378 0.16159 0.0
N2500 N 0.90112 0.11201 0.18773 0.0
N2501 N 0.91273 0.09533 0.11797 0.0
C2502 C 0.90959 0.12347 0.1231 0.0
C2503 C 0.90333 0.13253 0.16104 0.0
C2504 C 0.90929 0.66915 0.90568 0.0
C2505 C 0.9143 0.64072 0.91411 0.0
C2506 C 0.90233 0.6778 0.86894 0.0
C2507 C 0.90032 0.65847 0.83868 0.0
H2508 H 0.91164 0.6851 0.92745 0.0
H2509 H 0.89946 0.70013 0.86411 0.0
S2510 S 0.90928 0.58114 0.84628 0.0
N2511 N 0.91489 0.5928 0.88985 0.0
N2512 N 0.90201 0.60918 0.82032 0.0
C2513 C 0.90373 0.62972 0.84704 0.0
C2514 C 0.91069 0.62082 0.88484 0.0
C2515 C 0.13533 0.17009 0.63474 0.0
C2516 C 0.11717 0.16285 0.66478 0.0
C2517 C 0.12689 0.16704 0.59669 0.0
C2518 C 0.10023 0.15607 0.58726 0.0
H2519 H 0.15543 0.17998 0.64061 0.0
H2520 H 0.14093 0.17435 0.57454 0.0
S2521 S 0.04627 0.13092 0.65593 0.0
N2522 N 0.07232 0.14241 0.68284 0.0
N2523 N 0.0568 0.13552 0.61168 0.0
C2524 C 0.08276 0.14681 0.61721 0.0
C2525 C 0.09113 0.15054 0.65586 0.0
C2526 C 0.59788 0.33303 0.40528 0.0
C2527 C 0.59557 0.36162 0.4151 0.0
C2528 C 0.60326 0.32465 0.36794 0.0
C2529 C 0.60667 0.34443 0.33848 0.0
H2530 H 0.59448 0.31679 0.4264 0.0
H2531 H 0.60398 0.30229 0.36204 0.0
S2532 S 0.60545 0.42204 0.34949 0.0
N2533 N 0.59926 0.40994 0.39269 0.0
N2534 N 0.60959 0.39406 0.32224 0.0
C2535 C 0.60617 0.37315 0.34814 0.0
C2536 C 0.6006 0.38177 0.38647 0.0
C2537 C 0.41436 0.88301 0.12221 0.0
C2538 C 0.41451 0.86347 0.09213 0.0
C2539 C 0.40778 0.87465 0.15958 0.0
C2540 C 0.40103 0.84648 0.16816 0.0
H2541 H 0.42079 0.90456 0.11728 0.0
H2542 H 0.40926 0.89012 0.18207 0.0
S2543 S 0.39415 0.78822 0.09815 0.0
N2544 N 0.40425 0.81553 0.07264 0.0
N2545 N 0.39172 0.79986 0.14217 0.0
C2546 C 0.39927 0.82725 0.1377 0.0
C2547 C 0.40606 0.83573 0.09991 0.0
C2548 C 0.91004 0.37992 0.6209 0.0
C2549 C 0.91302 0.36072 0.59067 0.0
C2550 C 0.90371 0.3706 0.65792 0.0
C2551 C 0.90021 0.34178 0.66593 0.0
H2552 H 0.91414 0.40209 0.61641 0.0
H2553 H 0.90297 0.38593 0.68066 0.0
S2554 S 0.90106 0.28365 0.59523 0.0
N2555 N 0.90845 0.31211 0.57031 0.0
N2556 N 0.89665 0.29461 0.6393 0.0
C2557 C 0.90117 0.3227 0.63529 0.0
C2558 C 0.90755 0.33216 0.59784 0.0
C2559 C 0.40234 0.13144 0.34591 0.0
C2560 C 0.39809 0.15993 0.33654 0.0
C2561 C 0.40837 0.1232 0.38352 0.0
C2562 C 0.41025 0.14317 0.41301 0.0
H2563 H 0.40246 0.11558 0.32383 0.0
H2564 H 0.41314 0.10129 0.38905 0.0
S2565 S 0.39601 0.21969 0.40466 0.0
N2566 N 0.39274 0.20756 0.36099 0.0
N2567 N 0.40376 0.19208 0.43106 0.0
C2568 C 0.40396 0.17135 0.40442 0.0
C2569 C 0.39798 0.17973 0.36637 0.0
C2570 C 0.60414 0.66399 0.10303 0.0
C2571 C 0.59142 0.63828 0.09349 0.0
C2572 C 0.60815 0.67176 0.14108 0.0
C2573 C 0.5986 0.65454 0.17108 0.0
H2574 H 0.61003 0.67871 0.08089 0.0
H2575 H 0.61715 0.69225 0.14686 0.0
S2576 S 0.56537 0.58433 0.16101 0.0
N2577 N 0.571 0.59472 0.11688 0.0
N2578 N 0.57748 0.60978 0.18847 0.0
C2579 C 0.58695 0.62822 0.16187 0.0
C2580 C 0.5836 0.61998 0.12306 0.0
C2581 C 0.10125 0.82599 0.86798 0.0
C2582 C 0.10583 0.8466 0.83983 0.0
C2583 C 0.09484 0.83329 0.90546 0.0
C2584 C 0.0928 0.86157 0.91682 0.0
H2585 H 0.10187 0.80382 0.86093 0.0
H2586 H 0.09071 0.81647 0.92549 0.0
S2587 S 0.10528 0.92382 0.85524 0.0
N2588 N 0.10975 0.89666 0.82661 0.0
N2589 N 0.09774 0.91047 0.89736 0.0
C2590 C 0.09881 0.8825 0.88959 0.0
C2591 C 0.10531 0.87501 0.85109 0.0
loop_
_geom_bond_atom_site_label_1
_geom_bond_atom_site_label_2
_geom_bond_distance
_geom_bond_site_symmetry_2
_ccdc_geom_bond_type
Co0 O2 2.143 . S
Co0 O8 2.074 . S
Co0 O11 2.093 . S
Co0 O24 2.097 . S
Co0 N41 2.151 . S
Co0 N49 2.214 . S
Co1 O2 2.160 . S
Co1 O7 2.058 . S
Co1 O17 2.057 . S
Co1 O32 2.037 . S
Co1 N36 2.145 . S
Co1 N57 2.257 . S
O2 Co0 2.143 . S
O2 Co1 2.160 . S
C3 O4 1.278 . S
C3 O11 1.224 . S
O4 C3 1.278 . S
C5 O6 1.245 . S
C5 O17 1.232 . S
O6 C5 1.245 . S
O7 Co1 2.058 . S
O7 C33 1.269 . S
O8 Co0 2.074 . S
O8 C33 1.257 . S
H9 C34 0.930 . S
H10 C40 0.930 . S
O11 Co0 2.093 . S
O11 C3 1.224 . S
H12 C44 0.929 . S
H13 C46 0.930 1_655 S
H14 C47 0.930 . S
H15 C45 0.929 . S
H16 C48 0.928 . S
O17 Co1 2.057 . S
O17 C5 1.232 . S
H18 C37 0.929 . S
H19 C38 0.929 . S
H20 C50 0.936 . S
H21 C42 0.929 . S
H22 C51 0.930 . S
H23 C43 0.931 . S
O24 Co0 2.097 . S
O24 C52 1.214 . S
H25 C53 0.929 . S
H26 C54 0.929 . S
H27 C55 0.930 . S
H28 C56 0.929 . S
H29 C58 0.930 . S
H30 C35 0.930 . S
H31 C39 0.930 . S
O32 Co1 2.037 . S
O32 C52 1.234 . S
C33 O7 1.269 . S
C33 O8 1.257 . S
C34 H9 0.930 . S
C34 C37 1.388 . S
C34 C39 1.418 . S
C35 H30 0.930 . S
C35 C38 1.404 . S
C35 C39 1.353 . S
N36 Co1 2.145 . S
N36 C37 1.397 . S
N36 C38 1.334 . S
C37 H18 0.929 . S
C37 C34 1.388 . S
C37 N36 1.397 . S
C38 H19 0.929 . S
C38 C35 1.404 . S
C38 N36 1.334 . S
C39 H31 0.930 . S
C39 C34 1.418 . S
C39 C35 1.353 . S
C40 H10 0.930 . S
C40 N41 1.330 . S
C40 C42 1.446 . S
N41 Co0 2.151 . S
N41 C40 1.330 . S
N41 C45 1.418 . S
C42 H21 0.929 . S
C42 C40 1.446 . S
C42 C43 1.332 . S
C43 H23 0.931 . S
C43 C42 1.332 . S
C43 C44 1.267 . S
C44 H12 0.929 . S
C44 C43 1.267 . S
C44 C45 1.251 . S
C45 H15 0.929 . S
C45 N41 1.418 . S
C45 C44 1.251 . S
C46 H13 0.930 1_455 S
C46 C48 1.406 . S
C46 C51 1.261 1_455 S
C47 H14 0.930 . S
C47 N49 1.325 . S
C47 C50 1.357 . S
C48 H16 0.928 . S
C48 C46 1.406 . S
C48 N49 1.261 . S
N49 Co0 2.214 . S
N49 C47 1.325 . S
N49 C48 1.261 . S
C50 H20 0.936 . S
C50 C47 1.357 . S
C50 C51 1.312 1_455 S
C51 H22 0.930 . S
C51 C46 1.261 1_655 S
C51 C50 1.312 1_655 S
C52 O24 1.214 . S
C52 O32 1.234 . S
C53 H25 0.929 . S
C53 C56 1.391 . S
C53 C58 1.391 . S
C54 H26 0.929 . S
C54 C55 1.390 . S
C54 N57 1.391 . S
C55 H27 0.930 . S
C55 C54 1.390 . S
C55 C56 1.392 . S
C56 H28 0.929 . S
C56 C53 1.391 . S
C56 C55 1.392 . S
N57 Co1 2.257 . S
N57 C54 1.391 . S
N57 C58 1.388 . S
C58 H29 0.930 . S
C58 C53 1.391 . S
C58 N57 1.388 . S
Co59 O61 2.143 . S
Co59 O67 2.074 . S
Co59 O70 2.093 . S
Co59 O83 2.097 . S
Co59 N100 2.151 . S
Co59 N108 2.214 . S
Co60 O61 2.160 . S
Co60 O66 2.058 . S
Co60 O76 2.057 . S
Co60 O91 2.037 . S
Co60 N95 2.145 . S
Co60 N116 2.257 . S
O61 Co59 2.143 . S
O61 Co60 2.160 . S
C62 O63 1.278 . S
C62 O70 1.224 . S
O63 C62 1.278 . S
C64 O65 1.245 . S
C64 O76 1.232 . S
O65 C64 1.245 . S
O66 Co60 2.058 . S
O66 C92 1.269 . S
O67 Co59 2.074 . S
O67 C92 1.257 . S
H68 C93 0.930 . S
H69 C99 0.930 . S
O70 Co59 2.093 . S
O70 C62 1.224 . S
H71 C103 0.929 . S
H72 C105 0.930 . S
H73 C106 0.930 . S
H74 C104 0.929 . S
H75 C107 0.928 . S
O76 Co60 2.057 . S
O76 C64 1.232 . S
H77 C96 0.929 . S
H78 C97 0.929 . S
H79 C109 0.931 . S
H80 C101 0.929 . S
H81 C110 0.930 . S
H82 C102 0.931 . S
O83 Co59 2.097 . S
O83 C111 1.214 . S
H84 C112 0.929 . S
H85 C113 0.929 . S
H86 C114 0.930 . S
H87 C115 0.929 . S
H88 C117 0.930 . S
H89 C94 0.930 . S
H90 C98 0.930 . S
O91 Co60 2.037 . S
O91 C111 1.234 . S
C92 O66 1.269 . S
C92 O67 1.257 . S
C93 H68 0.930 . S
C93 C96 1.388 . S
C93 C98 1.418 . S
C94 H89 0.930 . S
C94 C97 1.404 . S
C94 C98 1.353 . S
N95 Co60 2.145 . S
N95 C96 1.397 . S
N95 C97 1.334 . S
C96 H77 0.929 . S
C96 C93 1.388 . S
C96 N95 1.397 . S
C97 H78 0.929 . S
C97 C94 1.404 . S
C97 N95 1.334 . S
C98 H90 0.930 . S
C98 C93 1.418 . S
C98 C94 1.353 . S
C99 H69 0.930 . S
C99 N100 1.330 . S
C99 C101 1.446 1_655 S
N100 Co59 2.151 . S
N100 C99 1.330 . S
N100 C104 1.418 1_655 S
C101 H80 0.929 . S
C101 C99 1.446 1_455 S
C101 C102 1.332 . S
C102 H82 0.931 . S
C102 C101 1.332 . S
C102 C103 1.267 . S
C103 H71 0.929 . S
C103 C102 1.267 . S
C103 C104 1.251 . S
C104 H74 0.929 . S
C104 N100 1.418 1_455 S
C104 C103 1.251 . S
C105 H72 0.930 . S
C105 C107 1.406 . S
C105 C110 1.261 . S
C106 H73 0.930 . S
C106 N108 1.325 . S
C106 C109 1.357 . S
C107 H75 0.928 . S
C107 C105 1.406 . S
C107 N108 1.261 . S
N108 Co59 2.214 . S
N108 C106 1.325 . S
N108 C107 1.261 . S
C109 H79 0.931 . S
C109 C106 1.357 . S
C109 C110 1.312 . S
C110 H81 0.930 . S
C110 C105 1.261 . S
C110 C109 1.312 . S
C111 O83 1.214 . S
C111 O91 1.234 . S
C112 H84 0.929 . S
C112 C115 1.391 . S
C112 C117 1.391 . S
C113 H85 0.929 . S
C113 C114 1.390 . S
C113 N116 1.391 . S
C114 H86 0.930 . S
C114 C113 1.390 . S
C114 C115 1.392 . S
C115 H87 0.929 . S
C115 C112 1.391 . S
C115 C114 1.392 . S
N116 Co60 2.257 . S
N116 C113 1.391 . S
N116 C117 1.388 . S
C117 H88 0.930 . S
C117 C112 1.391 . S
C117 N116 1.388 . S
Co118 O120 2.143 . S
Co118 O126 2.074 . S
Co118 O129 2.093 . S
Co118 O142 2.097 . S
Co118 N159 2.151 . S
Co118 N167 2.214 . S
Co119 O120 2.160 . S
Co119 O125 2.058 . S
Co119 O135 2.057 . S
Co119 O150 2.037 . S
Co119 N154 2.145 . S
Co119 N175 2.257 . S
O120 Co118 2.143 . S
O120 Co119 2.160 . S
C121 O122 1.278 . S
C121 O129 1.224 . S
O122 C121 1.278 . S
C123 O124 1.245 . S
C123 O135 1.232 . S
O124 C123 1.245 . S
O125 Co119 2.058 . S
O125 C151 1.269 . S
O126 Co118 2.074 . S
O126 C151 1.257 . S
H127 C152 0.930 . S
H128 C158 0.930 . S
O129 Co118 2.093 . S
O129 C121 1.224 . S
H130 C162 0.929 . S
H131 C164 0.930 . S
H132 C165 0.930 . S
H133 C163 0.929 . S
H134 C166 0.928 . S
O135 Co119 2.057 . S
O135 C123 1.232 . S
H136 C155 0.929 . S
H137 C156 0.929 . S
H138 C168 0.931 . S
H139 C160 0.929 . S
H140 C169 0.930 . S
H141 C161 0.931 . S
O142 Co118 2.097 . S
O142 C170 1.214 . S
H143 C171 0.929 . S
H144 C172 0.929 . S
H145 C173 0.930 . S
H146 C174 0.929 . S
H147 C176 0.930 . S
H148 C153 0.930 . S
H149 C157 0.930 . S
O150 Co119 2.037 . S
O150 C170 1.234 . S
C151 O125 1.269 . S
C151 O126 1.257 . S
C152 H127 0.930 . S
C152 C155 1.388 . S
C152 C157 1.418 . S
C153 H148 0.930 . S
C153 C156 1.404 . S
C153 C157 1.353 . S
N154 Co119 2.145 . S
N154 C155 1.397 . S
N154 C156 1.334 . S
C155 H136 0.929 . S
C155 C152 1.388 . S
C155 N154 1.397 . S
C156 H137 0.929 . S
C156 C153 1.404 . S
C156 N154 1.334 . S
C157 H149 0.930 . S
C157 C152 1.418 . S
C157 C153 1.353 . S
C158 H128 0.930 . S
C158 N159 1.330 . S
C158 C160 1.446 . S
N159 Co118 2.151 . S
N159 C158 1.330 . S
N159 C163 1.418 . S
C160 H139 0.929 . S
C160 C158 1.446 . S
C160 C161 1.332 . S
C161 H141 0.931 . S
C161 C160 1.332 . S
C161 C162 1.267 . S
C162 H130 0.929 . S
C162 C161 1.267 . S
C162 C163 1.251 . S
C163 H133 0.929 . S
C163 N159 1.418 . S
C163 C162 1.251 . S
C164 H131 0.930 . S
C164 C166 1.406 . S
C164 C169 1.261 . S
C165 H132 0.930 . S
C165 N167 1.325 . S
C165 C168 1.357 . S
C166 H134 0.928 . S
C166 C164 1.406 . S
C166 N167 1.261 . S
N167 Co118 2.214 . S
N167 C165 1.325 . S
N167 C166 1.261 . S
C168 H138 0.931 . S
C168 C165 1.357 . S
C168 C169 1.312 . S
C169 H140 0.930 . S
C169 C164 1.261 . S
C169 C168 1.312 . S
C170 O142 1.214 . S
C170 O150 1.234 . S
C171 H143 0.929 . S
C171 C174 1.391 . S
C171 C176 1.391 . S
C172 H144 0.929 . S
C172 C173 1.390 . S
C172 N175 1.391 . S
C173 H145 0.930 . S
C173 C172 1.390 . S
C173 C174 1.392 . S
C174 H146 0.929 . S
C174 C171 1.391 . S
C174 C173 1.392 . S
N175 Co119 2.257 . S
N175 C172 1.391 . S
N175 C176 1.388 . S
C176 H147 0.930 . S
C176 C171 1.391 . S
C176 N175 1.388 . S
Co177 O179 2.143 . S
Co177 O185 2.074 . S
Co177 O188 2.093 1_554 S
Co177 O201 2.097 . S
Co177 N218 2.151 1_554 S
Co177 N226 2.214 . S
Co178 O179 2.160 . S
Co178 O184 2.058 . S
Co178 O194 2.057 . S
Co178 O209 2.037 . S
Co178 N213 2.145 . S
Co178 N234 2.257 . S
O179 Co177 2.143 . S
O179 Co178 2.160 . S
C180 O181 1.278 . S
C180 O188 1.224 . S
O181 C180 1.278 . S
C182 O183 1.245 . S
C182 O194 1.232 . S
O183 C182 1.245 . S
O184 Co178 2.058 . S
O184 C210 1.269 . S
O185 Co177 2.074 . S
O185 C210 1.257 . S
H186 C211 0.930 . S
H187 C217 0.930 . S
O188 Co177 2.093 1_556 S
O188 C180 1.224 . S
H189 C221 0.929 . S
H190 C223 0.930 . S
H191 C224 0.930 . S
H192 C222 0.929 1_554 S
H193 C225 0.928 . S
O194 Co178 2.057 . S
O194 C182 1.232 . S
H195 C214 0.929 . S
H196 C215 0.929 . S
H197 C227 0.931 . S
H198 C219 0.929 . S
H199 C228 0.930 . S
H200 C220 0.931 . S
O201 Co177 2.097 . S
O201 C229 1.214 . S
H202 C230 0.929 1_556 S
H203 C231 0.929 . S
H204 C232 0.930 . S
H205 C233 0.929 . S
H206 C235 0.930 . S
H207 C212 0.930 . S
H208 C216 0.930 . S
O209 Co178 2.037 . S
O209 C229 1.234 . S
C210 O184 1.269 . S
C210 O185 1.257 . S
C211 H186 0.930 . S
C211 C214 1.388 . S
C211 C216 1.418 . S
C212 H207 0.930 . S
C212 C215 1.404 . S
C212 C216 1.353 . S
N213 Co178 2.145 . S
N213 C214 1.397 . S
N213 C215 1.334 . S
C214 H195 0.929 . S
C214 C211 1.388 . S
C214 N213 1.397 . S
C215 H196 0.929 . S
C215 C212 1.404 . S
C215 N213 1.334 . S
C216 H208 0.930 . S
C216 C211 1.418 . S
C216 C212 1.353 . S
C217 H187 0.930 . S
C217 N218 1.330 . S
C217 C219 1.446 . S
N218 Co177 2.151 1_556 S
N218 C217 1.330 . S
N218 C222 1.418 . S
C219 H198 0.929 . S
C219 C217 1.446 . S
C219 C220 1.332 . S
C220 H200 0.931 . S
C220 C219 1.332 . S
C220 C221 1.267 . S
C221 H189 0.929 . S
C221 C220 1.267 . S
C221 C222 1.251 . S
C222 H192 0.929 1_556 S
C222 N218 1.418 . S
C222 C221 1.251 . S
C223 H190 0.930 . S
C223 C225 1.406 . S
C223 C228 1.261 1_556 S
C224 H191 0.930 . S
C224 N226 1.325 . S
C224 C227 1.357 . S
C225 H193 0.928 . S
C225 C223 1.406 . S
C225 N226 1.261 1_556 S
N226 Co177 2.214 . S
N226 C224 1.325 . S
N226 C225 1.261 1_554 S
C227 H197 0.931 . S
C227 C224 1.357 . S
C227 C228 1.312 . S
C228 H199 0.930 . S
C228 C223 1.261 1_554 S
C228 C227 1.312 . S
C229 O201 1.214 . S
C229 O209 1.234 . S
C230 H202 0.929 1_554 S
C230 C233 1.391 . S
C230 C235 1.391 . S
C231 H203 0.929 . S
C231 C232 1.390 . S
C231 N234 1.391 . S
C232 H204 0.930 . S
C232 C231 1.390 . S
C232 C233 1.392 . S
C233 H205 0.929 . S
C233 C230 1.391 . S
C233 C232 1.392 . S
N234 Co178 2.257 . S
N234 C231 1.391 . S
N234 C235 1.388 . S
C235 H206 0.930 . S
C235 C230 1.391 . S
C235 N234 1.388 . S
Co236 O238 2.143 . S
Co236 O244 2.074 . S
Co236 O247 2.093 . S
Co236 O260 2.097 . S
Co236 N277 2.151 . S
Co236 N285 2.214 . S
Co237 O238 2.160 . S
Co237 O243 2.058 . S
Co237 O253 2.057 . S
Co237 O268 2.037 . S
Co237 N272 2.145 . S
Co237 N293 2.257 . S
O238 Co236 2.143 . S
O238 Co237 2.160 . S
C239 O240 1.278 . S
C239 O247 1.224 . S
O240 C239 1.278 . S
C241 O242 1.245 . S
C241 O253 1.232 . S
O242 C241 1.245 . S
O243 Co237 2.058 . S
O243 C269 1.269 . S
O244 Co236 2.074 . S
O244 C269 1.257 . S
H245 C270 0.930 . S
H246 C276 0.930 . S
O247 Co236 2.093 . S
O247 C239 1.224 . S
H248 C280 0.929 . S
H249 C282 0.930 1_655 S
H250 C283 0.930 . S
H251 C281 0.929 . S
H252 C284 0.928 . S
O253 Co237 2.057 . S
O253 C241 1.232 . S
H254 C273 0.929 . S
H255 C274 0.929 . S
H256 C286 0.936 . S
H257 C278 0.929 . S
H258 C287 0.930 . S
H259 C279 0.931 . S
O260 Co236 2.097 . S
O260 C288 1.214 . S
H261 C289 0.929 . S
H262 C290 0.929 . S
H263 C291 0.930 . S
H264 C292 0.929 . S
H265 C294 0.930 . S
H266 C271 0.930 . S
H267 C275 0.930 . S
O268 Co237 2.037 . S
O268 C288 1.234 . S
C269 O243 1.269 . S
C269 O244 1.257 . S
C270 H245 0.930 . S
C270 C273 1.388 . S
C270 C275 1.418 . S
C271 H266 0.930 . S
C271 C274 1.404 . S
C271 C275 1.353 . S
N272 Co237 2.145 . S
N272 C273 1.397 . S
N272 C274 1.334 . S
C273 H254 0.929 . S
C273 C270 1.388 . S
C273 N272 1.397 . S
C274 H255 0.929 . S
C274 C271 1.404 . S
C274 N272 1.334 . S
C275 H267 0.930 . S
C275 C270 1.418 . S
C275 C271 1.353 . S
C276 H246 0.930 . S
C276 N277 1.330 . S
C276 C278 1.446 . S
N277 Co236 2.151 . S
N277 C276 1.330 . S
N277 C281 1.418 . S
C278 H257 0.929 . S
C278 C276 1.446 . S
C278 C279 1.332 . S
C279 H259 0.931 . S
C279 C278 1.332 . S
C279 C280 1.267 . S
C280 H248 0.929 . S
C280 C279 1.267 . S
C280 C281 1.251 . S
C281 H251 0.929 . S
C281 N277 1.418 . S
C281 C280 1.251 . S
C282 H249 0.930 1_455 S
C282 C284 1.406 . S
C282 C287 1.261 1_455 S
C283 H250 0.930 . S
C283 N285 1.325 . S
C283 C286 1.357 . S
C284 H252 0.928 . S
C284 C282 1.406 . S
C284 N285 1.261 . S
N285 Co236 2.214 . S
N285 C283 1.325 . S
N285 C284 1.261 . S
C286 H256 0.936 . S
C286 C283 1.357 . S
C286 C287 1.312 1_455 S
C287 H258 0.930 . S
C287 C282 1.261 1_655 S
C287 C286 1.312 1_655 S
C288 O260 1.214 . S
C288 O268 1.234 . S
C289 H261 0.929 . S
C289 C292 1.391 . S
C289 C294 1.391 . S
C290 H262 0.929 . S
C290 C291 1.390 . S
C290 N293 1.391 . S
C291 H263 0.930 . S
C291 C290 1.390 . S
C291 C292 1.392 . S
C292 H264 0.929 . S
C292 C289 1.391 . S
C292 C291 1.392 . S
N293 Co237 2.257 . S
N293 C290 1.391 . S
N293 C294 1.388 . S
C294 H265 0.930 . S
C294 C289 1.391 . S
C294 N293 1.388 . S
Co295 O297 2.143 . S
Co295 O303 2.074 . S
Co295 O306 2.093 . S
Co295 O319 2.097 . S
Co295 N336 2.151 . S
Co295 N344 2.214 . S
Co296 O297 2.160 . S
Co296 O302 2.058 . S
Co296 O312 2.057 . S
Co296 O327 2.037 . S
Co296 N331 2.145 . S
Co296 N352 2.257 . S
O297 Co295 2.143 . S
O297 Co296 2.160 . S
C298 O299 1.278 . S
C298 O306 1.224 . S
O299 C298 1.278 . S
C300 O301 1.245 . S
C300 O312 1.232 . S
O301 C300 1.245 . S
O302 Co296 2.058 . S
O302 C328 1.269 . S
O303 Co295 2.074 . S
O303 C328 1.257 . S
H304 C329 0.930 . S
H305 C335 0.930 . S
O306 Co295 2.093 . S
O306 C298 1.224 . S
H307 C339 0.929 . S
H308 C341 0.930 . S
H309 C342 0.930 . S
H310 C340 0.929 . S
H311 C343 0.928 . S
O312 Co296 2.057 . S
O312 C300 1.232 . S
H313 C332 0.929 . S
H314 C333 0.929 . S
H315 C345 0.931 . S
H316 C337 0.929 . S
H317 C346 0.930 . S
H318 C338 0.931 . S
O319 Co295 2.097 . S
O319 C347 1.214 . S
H320 C348 0.929 . S
H321 C349 0.929 . S
H322 C350 0.930 . S
H323 C351 0.929 . S
H324 C353 0.930 . S
H325 C330 0.930 . S
H326 C334 0.930 . S
O327 Co296 2.037 . S
O327 C347 1.234 . S
C328 O302 1.269 . S
C328 O303 1.257 . S
C329 H304 0.930 . S
C329 C332 1.388 . S
C329 C334 1.418 . S
C330 H325 0.930 . S
C330 C333 1.404 . S
C330 C334 1.353 . S
N331 Co296 2.145 . S
N331 C332 1.397 . S
N331 C333 1.334 . S
C332 H313 0.929 . S
C332 C329 1.388 . S
C332 N331 1.397 . S
C333 H314 0.929 . S
C333 C330 1.404 . S
C333 N331 1.334 . S
C334 H326 0.930 . S
C334 C329 1.418 . S
C334 C330 1.353 . S
C335 H305 0.930 . S
C335 N336 1.330 . S
C335 C337 1.446 . S
N336 Co295 2.151 . S
N336 C335 1.330 . S
N336 C340 1.418 . S
C337 H316 0.929 . S
C337 C335 1.446 . S
C337 C338 1.332 . S
C338 H318 0.931 . S
C338 C337 1.332 . S
C338 C339 1.267 . S
C339 H307 0.929 . S
C339 C338 1.267 . S
C339 C340 1.251 . S
C340 H310 0.929 . S
C340 N336 1.418 . S
C340 C339 1.251 . S
C341 H308 0.930 . S
C341 C343 1.406 . S
C341 C346 1.261 . S
C342 H309 0.930 . S
C342 N344 1.325 . S
C342 C345 1.357 . S
C343 H311 0.928 . S
C343 C341 1.406 . S
C343 N344 1.261 . S
N344 Co295 2.214 . S
N344 C342 1.325 . S
N344 C343 1.261 . S
C345 H315 0.931 . S
C345 C342 1.357 . S
C345 C346 1.312 . S
C346 H317 0.930 . S
C346 C341 1.261 . S
C346 C345 1.312 . S
C347 O319 1.214 . S
C347 O327 1.234 . S
C348 H320 0.929 . S
C348 C351 1.391 . S
C348 C353 1.391 . S
C349 H321 0.929 . S
C349 C350 1.390 . S
C349 N352 1.391 . S
C350 H322 0.930 . S
C350 C349 1.390 . S
C350 C351 1.392 . S
C351 H323 0.929 . S
C351 C348 1.391 . S
C351 C350 1.392 . S
N352 Co296 2.257 . S
N352 C349 1.391 . S
N352 C353 1.388 . S
C353 H324 0.930 . S
C353 C348 1.391 . S
C353 N352 1.388 . S
Co354 O356 2.143 . S
Co354 O362 2.074 . S
Co354 O365 2.093 . S
Co354 O378 2.097 . S
Co354 N395 2.151 . S
Co354 N403 2.214 . S
Co355 O356 2.160 . S
Co355 O361 2.058 . S
Co355 O371 2.057 . S
Co355 O386 2.037 . S
Co355 N390 2.145 . S
Co355 N411 2.257 . S
O356 Co354 2.143 . S
O356 Co355 2.160 . S
C357 O358 1.278 . S
C357 O365 1.224 . S
O358 C357 1.278 . S
C359 O360 1.245 . S
C359 O371 1.232 . S
O360 C359 1.245 . S
O361 Co355 2.058 . S
O361 C387 1.269 . S
O362 Co354 2.074 . S
O362 C387 1.257 . S
H363 C388 0.930 . S
H364 C394 0.930 . S
O365 Co354 2.093 . S
O365 C357 1.224 . S
H366 C398 0.929 . S
H367 C400 0.930 . S
H368 C401 0.930 . S
H369 C399 0.929 . S
H370 C402 0.928 . S
O371 Co355 2.057 . S
O371 C359 1.232 . S
H372 C391 0.929 . S
H373 C392 0.929 . S
H374 C404 0.931 . S
H375 C396 0.929 . S
H376 C405 0.930 . S
H377 C397 0.931 . S
O378 Co354 2.097 . S
O378 C406 1.214 . S
H379 C407 0.929 . S
H380 C408 0.929 . S
H381 C409 0.930 . S
H382 C410 0.929 . S
H383 C412 0.930 . S
H384 C389 0.930 . S
H385 C393 0.930 . S
O386 Co355 2.037 . S
O386 C406 1.234 . S
C387 O361 1.269 . S
C387 O362 1.257 . S
C388 H363 0.930 . S
C388 C391 1.388 . S
C388 C393 1.418 . S
C389 H384 0.930 . S
C389 C392 1.404 . S
C389 C393 1.353 . S
N390 Co355 2.145 . S
N390 C391 1.397 . S
N390 C392 1.334 . S
C391 H372 0.929 . S
C391 C388 1.388 . S
C391 N390 1.397 . S
C392 H373 0.929 . S
C392 C389 1.404 . S
C392 N390 1.334 . S
C393 H385 0.930 . S
C393 C388 1.418 . S
C393 C389 1.353 . S
C394 H364 0.930 . S
C394 N395 1.330 . S
C394 C396 1.446 . S
N395 Co354 2.151 . S
N395 C394 1.330 . S
N395 C399 1.418 . S
C396 H375 0.929 . S
C396 C394 1.446 . S
C396 C397 1.332 . S
C397 H377 0.931 . S
C397 C396 1.332 . S
C397 C398 1.267 . S
C398 H366 0.929 . S
C398 C397 1.267 . S
C398 C399 1.251 . S
C399 H369 0.929 . S
C399 N395 1.418 . S
C399 C398 1.251 . S
C400 H367 0.930 . S
C400 C402 1.406 . S
C400 C405 1.261 . S
C401 H368 0.930 . S
C401 N403 1.325 . S
C401 C404 1.357 . S
C402 H370 0.928 . S
C402 C400 1.406 . S
C402 N403 1.261 . S
N403 Co354 2.214 . S
N403 C401 1.325 . S
N403 C402 1.261 . S
C404 H374 0.931 . S
C404 C401 1.357 . S
C404 C405 1.312 . S
C405 H376 0.930 . S
C405 C400 1.261 . S
C405 C404 1.312 . S
C406 O378 1.214 . S
C406 O386 1.234 . S
C407 H379 0.929 . S
C407 C410 1.391 . S
C407 C412 1.391 . S
C408 H380 0.929 . S
C408 C409 1.390 . S
C408 N411 1.391 . S
C409 H381 0.930 . S
C409 C408 1.390 . S
C409 C410 1.392 . S
C410 H382 0.929 . S
C410 C407 1.391 . S
C410 C409 1.392 . S
N411 Co355 2.257 . S
N411 C408 1.391 . S
N411 C412 1.388 . S
C412 H383 0.930 . S
C412 C407 1.391 . S
C412 N411 1.388 . S
Co413 O415 2.143 . S
Co413 O421 2.074 . S
Co413 O424 2.093 1_556 S
Co413 O437 2.097 . S
Co413 N454 2.151 1_556 S
Co413 N462 2.214 . S
Co414 O415 2.160 . S
Co414 O420 2.058 . S
Co414 O430 2.057 . S
Co414 O445 2.037 . S
Co414 N449 2.145 . S
Co414 N470 2.257 . S
O415 Co413 2.143 . S
O415 Co414 2.160 . S
C416 O417 1.278 . S
C416 O424 1.224 . S
O417 C416 1.278 . S
C418 O419 1.245 . S
C418 O430 1.232 . S
O419 C418 1.245 . S
O420 Co414 2.058 . S
O420 C446 1.269 . S
O421 Co413 2.074 . S
O421 C446 1.257 . S
H422 C447 0.930 . S
H423 C453 0.930 . S
O424 Co413 2.093 1_554 S
O424 C416 1.224 . S
H425 C457 0.929 . S
H426 C459 0.930 . S
H427 C460 0.930 . S
H428 C458 0.929 1_556 S
H429 C461 0.928 . S
O430 Co414 2.057 . S
O430 C418 1.232 . S
H431 C450 0.929 . S
H432 C451 0.929 . S
H433 C463 0.931 . S
H434 C455 0.929 . S
H435 C464 0.930 . S
H436 C456 0.931 . S
O437 Co413 2.097 . S
O437 C465 1.214 . S
H438 C466 0.929 1_554 S
H439 C467 0.929 . S
H440 C468 0.930 . S
H441 C469 0.929 . S
H442 C471 0.930 . S
H443 C448 0.930 . S
H444 C452 0.930 . S
O445 Co414 2.037 . S
O445 C465 1.234 . S
C446 O420 1.269 . S
C446 O421 1.257 . S
C447 H422 0.930 . S
C447 C450 1.388 . S
C447 C452 1.418 . S
C448 H443 0.930 . S
C448 C451 1.404 . S
C448 C452 1.353 . S
N449 Co414 2.145 . S
N449 C450 1.397 . S
N449 C451 1.334 . S
C450 H431 0.929 . S
C450 C447 1.388 . S
C450 N449 1.397 . S
C451 H432 0.929 . S
C451 C448 1.404 . S
C451 N449 1.334 . S
C452 H444 0.930 . S
C452 C447 1.418 . S
C452 C448 1.353 . S
C453 H423 0.930 . S
C453 N454 1.330 . S
C453 C455 1.446 1_655 S
N454 Co413 2.151 1_554 S
N454 C453 1.330 . S
N454 C458 1.418 1_655 S
C455 H434 0.929 . S
C455 C453 1.446 1_455 S
C455 C456 1.332 . S
C456 H436 0.931 . S
C456 C455 1.332 . S
C456 C457 1.267 . S
C457 H425 0.929 . S
C457 C456 1.267 . S
C457 C458 1.251 . S
C458 H428 0.929 1_554 S
C458 N454 1.418 1_455 S
C458 C457 1.251 . S
C459 H426 0.930 . S
C459 C461 1.406 . S
C459 C464 1.261 1_554 S
C460 H427 0.930 . S
C460 N462 1.325 . S
C460 C463 1.357 . S
C461 H429 0.928 . S
C461 C459 1.406 . S
C461 N462 1.261 1_554 S
N462 Co413 2.214 . S
N462 C460 1.325 . S
N462 C461 1.261 1_556 S
C463 H433 0.931 . S
C463 C460 1.357 . S
C463 C464 1.312 . S
C464 H435 0.930 . S
C464 C459 1.261 1_556 S
C464 C463 1.312 . S
C465 O437 1.214 . S
C465 O445 1.234 . S
C466 H438 0.929 1_556 S
C466 C469 1.391 . S
C466 C471 1.391 . S
C467 H439 0.929 . S
C467 C468 1.390 . S
C467 N470 1.391 . S
C468 H440 0.930 . S
C468 C467 1.390 . S
C468 C469 1.392 . S
C469 H441 0.929 . S
C469 C466 1.391 . S
C469 C468 1.392 . S
N470 Co414 2.257 . S
N470 C467 1.391 . S
N470 C471 1.388 . S
C471 H442 0.930 . S
C471 C466 1.391 . S
C471 N470 1.388 . S
Co472 O474 2.143 . S
Co472 O480 2.074 . S
Co472 O483 2.093 . S
Co472 O496 2.097 . S
Co472 N513 2.151 . S
Co472 N521 2.214 . S
Co473 O474 2.160 . S
Co473 O479 2.058 . S
Co473 O489 2.057 . S
Co473 O504 2.037 . S
Co473 N508 2.145 . S
Co473 N529 2.257 . S
O474 Co472 2.143 . S
O474 Co473 2.160 . S
C475 O476 1.278 . S
C475 O483 1.224 . S
O476 C475 1.278 . S
C477 O478 1.245 . S
C477 O489 1.232 . S
O478 C477 1.245 . S
O479 Co473 2.058 . S
O479 C505 1.269 . S
O480 Co472 2.074 . S
O480 C505 1.257 . S
H481 C506 0.930 . S
H482 C512 0.930 . S
O483 Co472 2.093 . S
O483 C475 1.224 . S
H484 C516 0.929 . S
H485 C518 0.930 1_455 S
H486 C519 0.930 . S
H487 C517 0.929 . S
H488 C520 0.928 . S
O489 Co473 2.057 . S
O489 C477 1.232 . S
H490 C509 0.929 . S
H491 C510 0.929 . S
H492 C522 0.936 . S
H493 C514 0.929 . S
H494 C523 0.930 . S
H495 C515 0.931 . S
O496 Co472 2.097 . S
O496 C524 1.214 . S
H497 C525 0.929 . S
H498 C526 0.929 . S
H499 C527 0.930 . S
H500 C528 0.929 . S
H501 C530 0.930 . S
H502 C507 0.930 . S
H503 C511 0.930 . S
O504 Co473 2.037 . S
O504 C524 1.234 . S
C505 O479 1.269 . S
C505 O480 1.257 . S
C506 H481 0.930 . S
C506 C509 1.388 . S
C506 C511 1.418 . S
C507 H502 0.930 . S
C507 C510 1.404 . S
C507 C511 1.353 . S
N508 Co473 2.145 . S
N508 C509 1.397 . S
N508 C510 1.334 . S
C509 H490 0.929 . S
C509 C506 1.388 . S
C509 N508 1.397 . S
C510 H491 0.929 . S
C510 C507 1.404 . S
C510 N508 1.334 . S
C511 H503 0.930 . S
C511 C506 1.418 . S
C511 C507 1.353 . S
C512 H482 0.930 . S
C512 N513 1.330 . S
C512 C514 1.446 . S
N513 Co472 2.151 . S
N513 C512 1.330 . S
N513 C517 1.418 . S
C514 H493 0.929 . S
C514 C512 1.446 . S
C514 C515 1.332 . S
C515 H495 0.931 . S
C515 C514 1.332 . S
C515 C516 1.267 . S
C516 H484 0.929 . S
C516 C515 1.267 . S
C516 C517 1.251 . S
C517 H487 0.929 . S
C517 N513 1.418 . S
C517 C516 1.251 . S
C518 H485 0.930 1_655 S
C518 C520 1.406 . S
C518 C523 1.261 1_655 S
C519 H486 0.930 . S
C519 N521 1.325 . S
C519 C522 1.357 . S
C520 H488 0.928 . S
C520 C518 1.406 . S
C520 N521 1.261 . S
N521 Co472 2.214 . S
N521 C519 1.325 . S
N521 C520 1.261 . S
C522 H492 0.936 . S
C522 C519 1.357 . S
C522 C523 1.312 1_655 S
C523 H494 0.930 . S
C523 C518 1.261 1_455 S
C523 C522 1.312 1_455 S
C524 O496 1.214 . S
C524 O504 1.234 . S
C525 H497 0.929 . S
C525 C528 1.391 . S
C525 C530 1.391 . S
C526 H498 0.929 . S
C526 C527 1.390 . S
C526 N529 1.391 . S
C527 H499 0.930 . S
C527 C526 1.390 . S
C527 C528 1.392 . S
C528 H500 0.929 . S
C528 C525 1.391 . S
C528 C527 1.392 . S
N529 Co473 2.257 . S
N529 C526 1.391 . S
N529 C530 1.388 . S
C530 H501 0.930 . S
C530 C525 1.391 . S
C530 N529 1.388 . S
Co531 O533 2.143 . S
Co531 O539 2.074 . S
Co531 O542 2.093 . S
Co531 O555 2.097 . S
Co531 N572 2.151 . S
Co531 N580 2.214 . S
Co532 O533 2.160 . S
Co532 O538 2.058 . S
Co532 O548 2.057 . S
Co532 O563 2.037 . S
Co532 N567 2.145 . S
Co532 N588 2.257 . S
O533 Co531 2.143 . S
O533 Co532 2.160 . S
C534 O535 1.278 . S
C534 O542 1.224 . S
O535 C534 1.278 . S
C536 O537 1.245 . S
C536 O548 1.232 . S
O537 C536 1.245 . S
O538 Co532 2.058 . S
O538 C564 1.269 . S
O539 Co531 2.074 . S
O539 C564 1.257 . S
H540 C565 0.930 . S
H541 C571 0.930 . S
O542 Co531 2.093 . S
O542 C534 1.224 . S
H543 C575 0.929 . S
H544 C577 0.930 . S
H545 C578 0.930 . S
H546 C576 0.929 . S
H547 C579 0.928 . S
O548 Co532 2.057 . S
O548 C536 1.232 . S
H549 C568 0.929 . S
H550 C569 0.929 . S
H551 C581 0.931 . S
H552 C573 0.929 . S
H553 C582 0.930 . S
H554 C574 0.931 . S
O555 Co531 2.097 . S
O555 C583 1.214 . S
H556 C584 0.929 . S
H557 C585 0.929 . S
H558 C586 0.930 . S
H559 C587 0.929 . S
H560 C589 0.930 . S
H561 C566 0.930 . S
H562 C570 0.930 . S
O563 Co532 2.037 . S
O563 C583 1.234 . S
C564 O538 1.269 . S
C564 O539 1.257 . S
C565 H540 0.930 . S
C565 C568 1.388 . S
C565 C570 1.418 . S
C566 H561 0.930 . S
C566 C569 1.404 . S
C566 C570 1.353 . S
N567 Co532 2.145 . S
N567 C568 1.397 . S
N567 C569 1.334 . S
C568 H549 0.929 . S
C568 C565 1.388 . S
C568 N567 1.397 . S
C569 H550 0.929 . S
C569 C566 1.404 . S
C569 N567 1.334 . S
C570 H562 0.930 . S
C570 C565 1.418 . S
C570 C566 1.353 . S
C571 H541 0.930 . S
C571 N572 1.330 . S
C571 C573 1.446 1_455 S
N572 Co531 2.151 . S
N572 C571 1.330 . S
N572 C576 1.418 1_455 S
C573 H552 0.929 . S
C573 C571 1.446 1_655 S
C573 C574 1.332 . S
C574 H554 0.931 . S
C574 C573 1.332 . S
C574 C575 1.267 . S
C575 H543 0.929 . S
C575 C574 1.267 . S
C575 C576 1.251 . S
C576 H546 0.929 . S
C576 N572 1.418 1_655 S
C576 C575 1.251 . S
C577 H544 0.930 . S
C577 C579 1.406 . S
C577 C582 1.261 . S
C578 H545 0.930 . S
C578 N580 1.325 . S
C578 C581 1.357 . S
C579 H547 0.928 . S
C579 C577 1.406 . S
C579 N580 1.261 . S
N580 Co531 2.214 . S
N580 C578 1.325 . S
N580 C579 1.261 . S
C581 H551 0.931 . S
C581 C578 1.357 . S
C581 C582 1.312 . S
C582 H553 0.930 . S
C582 C577 1.261 . S
C582 C581 1.312 . S
C583 O555 1.214 . S
C583 O563 1.234 . S
C584 H556 0.929 . S
C584 C587 1.391 . S
C584 C589 1.391 . S
C585 H557 0.929 . S
C585 C586 1.390 . S
C585 N588 1.391 . S
C586 H558 0.930 . S
C586 C585 1.390 . S
C586 C587 1.392 . S
C587 H559 0.929 . S
C587 C584 1.391 . S
C587 C586 1.392 . S
N588 Co532 2.257 . S
N588 C585 1.391 . S
N588 C589 1.388 . S
C589 H560 0.930 . S
C589 C584 1.391 . S
C589 N588 1.388 . S
Co590 O592 2.143 . S
Co590 O598 2.074 . S
Co590 O601 2.093 . S
Co590 O614 2.097 . S
Co590 N631 2.151 . S
Co590 N639 2.214 . S
Co591 O592 2.160 . S
Co591 O597 2.058 . S
Co591 O607 2.057 . S
Co591 O622 2.037 . S
Co591 N626 2.145 . S
Co591 N647 2.257 . S
O592 Co590 2.143 . S
O592 Co591 2.160 . S
C593 O594 1.278 . S
C593 O601 1.224 . S
O594 C593 1.278 . S
C595 O596 1.245 . S
C595 O607 1.232 . S
O596 C595 1.245 . S
O597 Co591 2.058 . S
O597 C623 1.269 . S
O598 Co590 2.074 . S
O598 C623 1.257 . S
H599 C624 0.930 . S
H600 C630 0.930 . S
O601 Co590 2.093 . S
O601 C593 1.224 . S
H602 C634 0.929 . S
H603 C636 0.930 . S
H604 C637 0.930 . S
H605 C635 0.929 . S
H606 C638 0.928 . S
O607 Co591 2.057 . S
O607 C595 1.232 . S
H608 C627 0.929 . S
H609 C628 0.929 . S
H610 C640 0.931 . S
H611 C632 0.929 . S
H612 C641 0.930 . S
H613 C633 0.931 . S
O614 Co590 2.097 . S
O614 C642 1.214 . S
H615 C643 0.929 . S
H616 C644 0.929 . S
H617 C645 0.930 . S
H618 C646 0.929 . S
H619 C648 0.930 . S
H620 C625 0.930 . S
H621 C629 0.930 . S
O622 Co591 2.037 . S
O622 C642 1.234 . S
C623 O597 1.269 . S
C623 O598 1.257 . S
C624 H599 0.930 . S
C624 C627 1.388 . S
C624 C629 1.418 . S
C625 H620 0.930 . S
C625 C628 1.404 . S
C625 C629 1.353 . S
N626 Co591 2.145 . S
N626 C627 1.397 . S
N626 C628 1.334 . S
C627 H608 0.929 . S
C627 C624 1.388 . S
C627 N626 1.397 . S
C628 H609 0.929 . S
C628 C625 1.404 . S
C628 N626 1.334 . S
C629 H621 0.930 . S
C629 C624 1.418 . S
C629 C625 1.353 . S
C630 H600 0.930 . S
C630 N631 1.330 . S
C630 C632 1.446 . S
N631 Co590 2.151 . S
N631 C630 1.330 . S
N631 C635 1.418 . S
C632 H611 0.929 . S
C632 C630 1.446 . S
C632 C633 1.332 . S
C633 H613 0.931 . S
C633 C632 1.332 . S
C633 C634 1.267 . S
C634 H602 0.929 . S
C634 C633 1.267 . S
C634 C635 1.251 . S
C635 H605 0.929 . S
C635 N631 1.418 . S
C635 C634 1.251 . S
C636 H603 0.930 . S
C636 C638 1.406 . S
C636 C641 1.261 . S
C637 H604 0.930 . S
C637 N639 1.325 . S
C637 C640 1.357 . S
C638 H606 0.928 . S
C638 C636 1.406 . S
C638 N639 1.261 . S
N639 Co590 2.214 . S
N639 C637 1.325 . S
N639 C638 1.261 . S
C640 H610 0.931 . S
C640 C637 1.357 . S
C640 C641 1.312 . S
C641 H612 0.930 . S
C641 C636 1.261 . S
C641 C640 1.312 . S
C642 O614 1.214 . S
C642 O622 1.234 . S
C643 H615 0.929 . S
C643 C646 1.391 . S
C643 C648 1.391 . S
C644 H616 0.929 . S
C644 C645 1.390 . S
C644 N647 1.391 . S
C645 H617 0.930 . S
C645 C644 1.390 . S
C645 C646 1.392 . S
C646 H618 0.929 . S
C646 C643 1.391 . S
C646 C645 1.392 . S
N647 Co591 2.257 . S
N647 C644 1.391 . S
N647 C648 1.388 . S
C648 H619 0.930 . S
C648 C643 1.391 . S
C648 N647 1.388 . S
Co649 O651 2.143 . S
Co649 O657 2.074 . S
Co649 O660 2.093 1_556 S
Co649 O673 2.097 . S
Co649 N690 2.151 1_556 S
Co649 N698 2.214 . S
Co650 O651 2.160 . S
Co650 O656 2.058 . S
Co650 O666 2.057 . S
Co650 O681 2.037 . S
Co650 N685 2.145 . S
Co650 N706 2.257 . S
O651 Co649 2.143 . S
O651 Co650 2.160 . S
C652 O653 1.278 . S
C652 O660 1.224 . S
O653 C652 1.278 . S
C654 O655 1.245 . S
C654 O666 1.232 . S
O655 C654 1.245 . S
O656 Co650 2.058 . S
O656 C682 1.269 . S
O657 Co649 2.074 . S
O657 C682 1.257 . S
H658 C683 0.930 . S
H659 C689 0.930 . S
O660 Co649 2.093 1_554 S
O660 C652 1.224 . S
H661 C693 0.929 . S
H662 C695 0.930 . S
H663 C696 0.930 . S
H664 C694 0.929 1_556 S
H665 C697 0.928 . S
O666 Co650 2.057 . S
O666 C654 1.232 . S
H667 C686 0.929 . S
H668 C687 0.929 . S
H669 C699 0.931 . S
H670 C691 0.929 . S
H671 C700 0.930 . S
H672 C692 0.931 . S
O673 Co649 2.097 . S
O673 C701 1.214 . S
H674 C702 0.929 1_554 S
H675 C703 0.929 . S
H676 C704 0.930 . S
H677 C705 0.929 . S
H678 C707 0.930 . S
H679 C684 0.930 . S
H680 C688 0.930 . S
O681 Co650 2.037 . S
O681 C701 1.234 . S
C682 O656 1.269 . S
C682 O657 1.257 . S
C683 H658 0.930 . S
C683 C686 1.388 . S
C683 C688 1.418 . S
C684 H679 0.930 . S
C684 C687 1.404 . S
C684 C688 1.353 . S
N685 Co650 2.145 . S
N685 C686 1.397 . S
N685 C687 1.334 . S
C686 H667 0.929 . S
C686 C683 1.388 . S
C686 N685 1.397 . S
C687 H668 0.929 . S
C687 C684 1.404 . S
C687 N685 1.334 . S
C688 H680 0.930 . S
C688 C683 1.418 . S
C688 C684 1.353 . S
C689 H659 0.930 . S
C689 N690 1.330 . S
C689 C691 1.446 . S
N690 Co649 2.151 1_554 S
N690 C689 1.330 . S
N690 C694 1.418 . S
C691 H670 0.929 . S
C691 C689 1.446 . S
C691 C692 1.332 . S
C692 H672 0.931 . S
C692 C691 1.332 . S
C692 C693 1.267 . S
C693 H661 0.929 . S
C693 C692 1.267 . S
C693 C694 1.251 . S
C694 H664 0.929 1_554 S
C694 N690 1.418 . S
C694 C693 1.251 . S
C695 H662 0.930 . S
C695 C697 1.406 . S
C695 C700 1.261 1_554 S
C696 H663 0.930 . S
C696 N698 1.325 . S
C696 C699 1.357 . S
C697 H665 0.928 . S
C697 C695 1.406 . S
C697 N698 1.261 1_554 S
N698 Co649 2.214 . S
N698 C696 1.325 . S
N698 C697 1.261 1_556 S
C699 H669 0.931 . S
C699 C696 1.357 . S
C699 C700 1.312 . S
C700 H671 0.930 . S
C700 C695 1.261 1_556 S
C700 C699 1.312 . S
C701 O673 1.214 . S
C701 O681 1.234 . S
C702 H674 0.929 1_556 S
C702 C705 1.391 . S
C702 C707 1.391 . S
C703 H675 0.929 . S
C703 C704 1.390 . S
C703 N706 1.391 . S
C704 H676 0.930 . S
C704 C703 1.390 . S
C704 C705 1.392 . S
C705 H677 0.929 . S
C705 C702 1.391 . S
C705 C704 1.392 . S
N706 Co650 2.257 . S
N706 C703 1.391 . S
N706 C707 1.388 . S
C707 H678 0.930 . S
C707 C702 1.391 . S
C707 N706 1.388 . S
Co708 O710 2.143 . S
Co708 O716 2.074 . S
Co708 O719 2.093 . S
Co708 O732 2.097 . S
Co708 N749 2.151 . S
Co708 N757 2.214 . S
Co709 O710 2.160 . S
Co709 O715 2.058 . S
Co709 O725 2.057 . S
Co709 O740 2.037 . S
Co709 N744 2.145 . S
Co709 N765 2.257 . S
O710 Co708 2.143 . S
O710 Co709 2.160 . S
C711 O712 1.278 . S
C711 O719 1.224 . S
O712 C711 1.278 . S
C713 O714 1.245 . S
C713 O725 1.232 . S
O714 C713 1.245 . S
O715 Co709 2.058 . S
O715 C741 1.269 . S
O716 Co708 2.074 . S
O716 C741 1.257 . S
H717 C742 0.930 . S
H718 C748 0.930 . S
O719 Co708 2.093 . S
O719 C711 1.224 . S
H720 C752 0.929 . S
H721 C754 0.930 1_455 S
H722 C755 0.930 . S
H723 C753 0.929 . S
H724 C756 0.928 . S
O725 Co709 2.057 . S
O725 C713 1.232 . S
H726 C745 0.929 . S
H727 C746 0.929 . S
H728 C758 0.936 . S
H729 C750 0.929 . S
H730 C759 0.930 . S
H731 C751 0.931 . S
O732 Co708 2.097 . S
O732 C760 1.214 . S
H733 C761 0.929 . S
H734 C762 0.929 . S
H735 C763 0.930 . S
H736 C764 0.929 . S
H737 C766 0.930 . S
H738 C743 0.930 . S
H739 C747 0.930 . S
O740 Co709 2.037 . S
O740 C760 1.234 . S
C741 O715 1.269 . S
C741 O716 1.257 . S
C742 H717 0.930 . S
C742 C745 1.388 . S
C742 C747 1.418 . S
C743 H738 0.930 . S
C743 C746 1.404 . S
C743 C747 1.353 . S
N744 Co709 2.145 . S
N744 C745 1.397 . S
N744 C746 1.334 . S
C745 H726 0.929 . S
C745 C742 1.388 . S
C745 N744 1.397 . S
C746 H727 0.929 . S
C746 C743 1.404 . S
C746 N744 1.334 . S
C747 H739 0.930 . S
C747 C742 1.418 . S
C747 C743 1.353 . S
C748 H718 0.930 . S
C748 N749 1.330 . S
C748 C750 1.446 . S
N749 Co708 2.151 . S
N749 C748 1.330 . S
N749 C753 1.418 . S
C750 H729 0.929 . S
C750 C748 1.446 . S
C750 C751 1.332 . S
C751 H731 0.931 . S
C751 C750 1.332 . S
C751 C752 1.267 . S
C752 H720 0.929 . S
C752 C751 1.267 . S
C752 C753 1.251 . S
C753 H723 0.929 . S
C753 N749 1.418 . S
C753 C752 1.251 . S
C754 H721 0.930 1_655 S
C754 C756 1.406 . S
C754 C759 1.261 1_655 S
C755 H722 0.930 . S
C755 N757 1.325 . S
C755 C758 1.357 . S
C756 H724 0.928 . S
C756 C754 1.406 . S
C756 N757 1.261 . S
N757 Co708 2.214 . S
N757 C755 1.325 . S
N757 C756 1.261 . S
C758 H728 0.936 . S
C758 C755 1.357 . S
C758 C759 1.312 1_655 S
C759 H730 0.930 . S
C759 C754 1.261 1_455 S
C759 C758 1.312 1_455 S
C760 O732 1.214 . S
C760 O740 1.234 . S
C761 H733 0.929 . S
C761 C764 1.391 . S
C761 C766 1.391 . S
C762 H734 0.929 . S
C762 C763 1.390 . S
C762 N765 1.391 . S
C763 H735 0.930 . S
C763 C762 1.390 . S
C763 C764 1.392 . S
C764 H736 0.929 . S
C764 C761 1.391 . S
C764 C763 1.392 . S
N765 Co709 2.257 . S
N765 C762 1.391 . S
N765 C766 1.388 . S
C766 H737 0.930 . S
C766 C761 1.391 . S
C766 N765 1.388 . S
Co767 O769 2.143 . S
Co767 O775 2.074 . S
Co767 O778 2.093 . S
Co767 O791 2.097 . S
Co767 N808 2.151 . S
Co767 N816 2.214 . S
Co768 O769 2.160 . S
Co768 O774 2.058 . S
Co768 O784 2.057 . S
Co768 O799 2.037 . S
Co768 N803 2.145 . S
Co768 N824 2.257 . S
O769 Co767 2.143 . S
O769 Co768 2.160 . S
C770 O771 1.278 . S
C770 O778 1.224 . S
O771 C770 1.278 . S
C772 O773 1.245 . S
C772 O784 1.232 . S
O773 C772 1.245 . S
O774 Co768 2.058 . S
O774 C800 1.269 . S
O775 Co767 2.074 . S
O775 C800 1.257 . S
H776 C801 0.930 . S
H777 C807 0.930 . S
O778 Co767 2.093 . S
O778 C770 1.224 . S
H779 C811 0.929 . S
H780 C813 0.930 . S
H781 C814 0.930 . S
H782 C812 0.929 . S
H783 C815 0.928 . S
O784 Co768 2.057 . S
O784 C772 1.232 . S
H785 C804 0.929 . S
H786 C805 0.929 . S
H787 C817 0.931 . S
H788 C809 0.929 . S
H789 C818 0.930 . S
H790 C810 0.931 . S
O791 Co767 2.097 . S
O791 C819 1.214 . S
H792 C820 0.929 . S
H793 C821 0.929 . S
H794 C822 0.930 . S
H795 C823 0.929 . S
H796 C825 0.930 . S
H797 C802 0.930 . S
H798 C806 0.930 . S
O799 Co768 2.037 . S
O799 C819 1.234 . S
C800 O774 1.269 . S
C800 O775 1.257 . S
C801 H776 0.930 . S
C801 C804 1.388 . S
C801 C806 1.418 . S
C802 H797 0.930 . S
C802 C805 1.404 . S
C802 C806 1.353 . S
N803 Co768 2.145 . S
N803 C804 1.397 . S
N803 C805 1.334 . S
C804 H785 0.929 . S
C804 C801 1.388 . S
C804 N803 1.397 . S
C805 H786 0.929 . S
C805 C802 1.404 . S
C805 N803 1.334 . S
C806 H798 0.930 . S
C806 C801 1.418 . S
C806 C802 1.353 . S
C807 H777 0.930 . S
C807 N808 1.330 . S
C807 C809 1.446 . S
N808 Co767 2.151 . S
N808 C807 1.330 . S
N808 C812 1.418 . S
C809 H788 0.929 . S
C809 C807 1.446 . S
C809 C810 1.332 . S
C810 H790 0.931 . S
C810 C809 1.332 . S
C810 C811 1.267 . S
C811 H779 0.929 . S
C811 C810 1.267 . S
C811 C812 1.251 . S
C812 H782 0.929 . S
C812 N808 1.418 . S
C812 C811 1.251 . S
C813 H780 0.930 . S
C813 C815 1.406 . S
C813 C818 1.261 . S
C814 H781 0.930 . S
C814 N816 1.325 . S
C814 C817 1.357 . S
C815 H783 0.928 . S
C815 C813 1.406 . S
C815 N816 1.261 . S
N816 Co767 2.214 . S
N816 C814 1.325 . S
N816 C815 1.261 . S
C817 H787 0.931 . S
C817 C814 1.357 . S
C817 C818 1.312 . S
C818 H789 0.930 . S
C818 C813 1.261 . S
C818 C817 1.312 . S
C819 O791 1.214 . S
C819 O799 1.234 . S
C820 H792 0.929 . S
C820 C823 1.391 . S
C820 C825 1.391 . S
C821 H793 0.929 . S
C821 C822 1.390 . S
C821 N824 1.391 . S
C822 H794 0.930 . S
C822 C821 1.390 . S
C822 C823 1.392 . S
C823 H795 0.929 . S
C823 C820 1.391 . S
C823 C822 1.392 . S
N824 Co768 2.257 . S
N824 C821 1.391 . S
N824 C825 1.388 . S
C825 H796 0.930 . S
C825 C820 1.391 . S
C825 N824 1.388 . S
Co826 O828 2.143 . S
Co826 O834 2.074 . S
Co826 O837 2.093 . S
Co826 O850 2.097 . S
Co826 N867 2.151 . S
Co826 N875 2.214 . S
Co827 O828 2.160 . S
Co827 O833 2.058 . S
Co827 O843 2.057 . S
Co827 O858 2.037 . S
Co827 N862 2.145 . S
Co827 N883 2.257 . S
O828 Co826 2.143 . S
O828 Co827 2.160 . S
C829 O830 1.278 . S
C829 O837 1.224 . S
O830 C829 1.278 . S
C831 O832 1.245 . S
C831 O843 1.232 . S
O832 C831 1.245 . S
O833 Co827 2.058 . S
O833 C859 1.269 . S
O834 Co826 2.074 . S
O834 C859 1.257 . S
H835 C860 0.930 . S
H836 C866 0.930 . S
O837 Co826 2.093 . S
O837 C829 1.224 . S
H838 C870 0.929 . S
H839 C872 0.930 . S
H840 C873 0.930 . S
H841 C871 0.929 . S
H842 C874 0.928 . S
O843 Co827 2.057 . S
O843 C831 1.232 . S
H844 C863 0.929 . S
H845 C864 0.929 . S
H846 C876 0.931 . S
H847 C868 0.929 . S
H848 C877 0.930 . S
H849 C869 0.931 . S
O850 Co826 2.097 . S
O850 C878 1.214 . S
H851 C879 0.929 . S
H852 C880 0.929 . S
H853 C881 0.930 . S
H854 C882 0.929 . S
H855 C884 0.930 . S
H856 C861 0.930 . S
H857 C865 0.930 . S
O858 Co827 2.037 . S
O858 C878 1.234 . S
C859 O833 1.269 . S
C859 O834 1.257 . S
C860 H835 0.930 . S
C860 C863 1.388 . S
C860 C865 1.418 . S
C861 H856 0.930 . S
C861 C864 1.404 . S
C861 C865 1.353 . S
N862 Co827 2.145 . S
N862 C863 1.397 . S
N862 C864 1.334 . S
C863 H844 0.929 . S
C863 C860 1.388 . S
C863 N862 1.397 . S
C864 H845 0.929 . S
C864 C861 1.404 . S
C864 N862 1.334 . S
C865 H857 0.930 . S
C865 C860 1.418 . S
C865 C861 1.353 . S
C866 H836 0.930 . S
C866 N867 1.330 . S
C866 C868 1.446 . S
N867 Co826 2.151 . S
N867 C866 1.330 . S
N867 C871 1.418 . S
C868 H847 0.929 . S
C868 C866 1.446 . S
C868 C869 1.332 . S
C869 H849 0.931 . S
C869 C868 1.332 . S
C869 C870 1.267 . S
C870 H838 0.929 . S
C870 C869 1.267 . S
C870 C871 1.251 . S
C871 H841 0.929 . S
C871 N867 1.418 . S
C871 C870 1.251 . S
C872 H839 0.930 . S
C872 C874 1.406 . S
C872 C877 1.261 . S
C873 H840 0.930 . S
C873 N875 1.325 . S
C873 C876 1.357 . S
C874 H842 0.928 . S
C874 C872 1.406 . S
C874 N875 1.261 . S
N875 Co826 2.214 . S
N875 C873 1.325 . S
N875 C874 1.261 . S
C876 H846 0.931 . S
C876 C873 1.357 . S
C876 C877 1.312 . S
C877 H848 0.930 . S
C877 C872 1.261 . S
C877 C876 1.312 . S
C878 O850 1.214 . S
C878 O858 1.234 . S
C879 H851 0.929 . S
C879 C882 1.391 . S
C879 C884 1.391 . S
C880 H852 0.929 . S
C880 C881 1.390 . S
C880 N883 1.391 . S
C881 H853 0.930 . S
C881 C880 1.390 . S
C881 C882 1.392 . S
C882 H854 0.929 . S
C882 C879 1.391 . S
C882 C881 1.392 . S
N883 Co827 2.257 . S
N883 C880 1.391 . S
N883 C884 1.388 . S
C884 H855 0.930 . S
C884 C879 1.391 . S
C884 N883 1.388 . S
Co885 O887 2.143 . S
Co885 O893 2.074 . S
Co885 O896 2.093 1_554 S
Co885 O909 2.097 . S
Co885 N926 2.151 1_554 S
Co885 N934 2.214 . S
Co886 O887 2.160 . S
Co886 O892 2.058 . S
Co886 O902 2.057 . S
Co886 O917 2.037 . S
Co886 N921 2.145 . S
Co886 N942 2.257 . S
O887 Co885 2.143 . S
O887 Co886 2.160 . S
C888 O889 1.278 . S
C888 O896 1.224 . S
O889 C888 1.278 . S
C890 O891 1.245 . S
C890 O902 1.232 . S
O891 C890 1.245 . S
O892 Co886 2.058 . S
O892 C918 1.269 . S
O893 Co885 2.074 . S
O893 C918 1.257 . S
H894 C919 0.930 . S
H895 C925 0.930 . S
O896 Co885 2.093 1_556 S
O896 C888 1.224 . S
H897 C929 0.929 . S
H898 C931 0.930 . S
H899 C932 0.930 . S
H900 C930 0.929 1_554 S
H901 C933 0.928 . S
O902 Co886 2.057 . S
O902 C890 1.232 . S
H903 C922 0.929 . S
H904 C923 0.929 . S
H905 C935 0.931 . S
H906 C927 0.929 . S
H907 C936 0.930 . S
H908 C928 0.931 . S
O909 Co885 2.097 . S
O909 C937 1.214 . S
H910 C938 0.929 1_556 S
H911 C939 0.929 . S
H912 C940 0.930 . S
H913 C941 0.929 . S
H914 C943 0.930 . S
H915 C920 0.930 . S
H916 C924 0.930 . S
O917 Co886 2.037 . S
O917 C937 1.234 . S
C918 O892 1.269 . S
C918 O893 1.257 . S
C919 H894 0.930 . S
C919 C922 1.388 . S
C919 C924 1.418 . S
C920 H915 0.930 . S
C920 C923 1.404 . S
C920 C924 1.353 . S
N921 Co886 2.145 . S
N921 C922 1.397 . S
N921 C923 1.334 . S
C922 H903 0.929 . S
C922 C919 1.388 . S
C922 N921 1.397 . S
C923 H904 0.929 . S
C923 C920 1.404 . S
C923 N921 1.334 . S
C924 H916 0.930 . S
C924 C919 1.418 . S
C924 C920 1.353 . S
C925 H895 0.930 . S
C925 N926 1.330 . S
C925 C927 1.446 1_455 S
N926 Co885 2.151 1_556 S
N926 C925 1.330 . S
N926 C930 1.418 1_455 S
C927 H906 0.929 . S
C927 C925 1.446 1_655 S
C927 C928 1.332 . S
C928 H908 0.931 . S
C928 C927 1.332 . S
C928 C929 1.267 . S
C929 H897 0.929 . S
C929 C928 1.267 . S
C929 C930 1.251 . S
C930 H900 0.929 1_556 S
C930 N926 1.418 1_655 S
C930 C929 1.251 . S
C931 H898 0.930 . S
C931 C933 1.406 . S
C931 C936 1.261 1_556 S
C932 H899 0.930 . S
C932 N934 1.325 . S
C932 C935 1.357 . S
C933 H901 0.928 . S
C933 C931 1.406 . S
C933 N934 1.261 1_556 S
N934 Co885 2.214 . S
N934 C932 1.325 . S
N934 C933 1.261 1_554 S
C935 H905 0.931 . S
C935 C932 1.357 . S
C935 C936 1.312 . S
C936 H907 0.930 . S
C936 C931 1.261 1_554 S
C936 C935 1.312 . S
C937 O909 1.214 . S
C937 O917 1.234 . S
C938 H910 0.929 1_554 S
C938 C941 1.391 . S
C938 C943 1.391 . S
C939 H911 0.929 . S
C939 C940 1.390 . S
C939 N942 1.391 . S
C940 H912 0.930 . S
C940 C939 1.390 . S
C940 C941 1.392 . S
C941 H913 0.929 . S
C941 C938 1.391 . S
C941 C940 1.392 . S
N942 Co886 2.257 . S
N942 C939 1.391 . S
N942 C943 1.388 . S
C943 H914 0.930 . S
C943 C938 1.391 . S
C943 N942 1.388 . S
Co944 O946 2.143 . S
Co944 O952 2.074 . S
Co944 O955 2.093 . S
Co944 O968 2.097 . S
Co944 N985 2.151 . S
Co944 N993 2.214 . S
Co945 O946 2.160 . S
Co945 O951 2.058 . S
Co945 O961 2.057 . S
Co945 O976 2.037 . S
Co945 N980 2.145 . S
Co945 N1001 2.257 . S
O946 Co944 2.143 . S
O946 Co945 2.160 . S
C947 O948 1.278 . S
C947 O955 1.224 . S
O948 C947 1.278 . S
C949 O950 1.245 . S
C949 O961 1.232 . S
O950 C949 1.245 . S
O951 Co945 2.058 . S
O951 C977 1.269 . S
O952 Co944 2.074 . S
O952 C977 1.257 . S
H953 C978 0.930 . S
H954 C984 0.930 . S
O955 Co944 2.093 . S
O955 C947 1.224 . S
H956 C988 0.929 . S
H957 C990 0.930 . S
H958 C991 0.930 . S
H959 C989 0.929 . S
H960 C992 0.928 . S
O961 Co945 2.057 . S
O961 C949 1.232 . S
H962 C981 0.929 . S
H963 C982 0.929 . S
H964 C994 0.931 . S
H965 C986 0.929 . S
H966 C995 0.930 . S
H967 C987 0.931 . S
O968 Co944 2.097 . S
O968 C996 1.214 . S
H969 C997 0.929 . S
H970 C998 0.929 . S
H971 C999 0.930 . S
H972 C1000 0.929 . S
H973 C1002 0.930 . S
H974 C979 0.930 . S
H975 C983 0.930 . S
O976 Co945 2.037 . S
O976 C996 1.234 . S
C977 O951 1.269 . S
C977 O952 1.257 . S
C978 H953 0.930 . S
C978 C981 1.388 . S
C978 C983 1.418 . S
C979 H974 0.930 . S
C979 C982 1.404 . S
C979 C983 1.353 . S
N980 Co945 2.145 . S
N980 C981 1.397 . S
N980 C982 1.334 . S
C981 H962 0.929 . S
C981 C978 1.388 . S
C981 N980 1.397 . S
C982 H963 0.929 . S
C982 C979 1.404 . S
C982 N980 1.334 . S
C983 H975 0.930 . S
C983 C978 1.418 . S
C983 C979 1.353 . S
C984 H954 0.930 . S
C984 N985 1.330 . S
C984 C986 1.446 . S
N985 Co944 2.151 . S
N985 C984 1.330 . S
N985 C989 1.418 . S
C986 H965 0.929 . S
C986 C984 1.446 . S
C986 C987 1.332 . S
C987 H967 0.931 . S
C987 C986 1.332 . S
C987 C988 1.267 . S
C988 H956 0.929 . S
C988 C987 1.267 . S
C988 C989 1.251 . S
C989 H959 0.929 . S
C989 N985 1.418 . S
C989 C988 1.251 . S
C990 H957 0.930 . S
C990 C992 1.406 . S
C990 C995 1.261 . S
C991 H958 0.930 . S
C991 N993 1.325 . S
C991 C994 1.357 . S
C992 H960 0.928 . S
C992 C990 1.406 . S
C992 N993 1.261 . S
N993 Co944 2.214 . S
N993 C991 1.325 . S
N993 C992 1.261 . S
C994 H964 0.931 . S
C994 C991 1.357 . S
C994 C995 1.312 . S
C995 H966 0.930 . S
C995 C990 1.261 . S
C995 C994 1.312 . S
C996 O968 1.214 . S
C996 O976 1.234 . S
C997 H969 0.929 . S
C997 C1000 1.391 . S
C997 C1002 1.391 . S
C998 H970 0.929 . S
C998 C999 1.390 . S
C998 N1001 1.391 . S
C999 H971 0.930 . S
C999 C998 1.390 . S
C999 C1000 1.392 . S
C1000 H972 0.929 . S
C1000 C997 1.391 . S
C1000 C999 1.392 . S
N1001 Co945 2.257 . S
N1001 C998 1.391 . S
N1001 C1002 1.388 . S
C1002 H973 0.930 . S
C1002 C997 1.391 . S
C1002 N1001 1.388 . S
Co1003 O1005 2.143 . S
Co1003 O1011 2.074 . S
Co1003 O1014 2.093 1_554 S
Co1003 O1027 2.097 . S
Co1003 N1044 2.151 1_554 S
Co1003 N1052 2.214 . S
Co1004 O1005 2.160 . S
Co1004 O1010 2.058 . S
Co1004 O1020 2.057 . S
Co1004 O1035 2.037 . S
Co1004 N1039 2.145 . S
Co1004 N1060 2.257 . S
O1005 Co1003 2.143 . S
O1005 Co1004 2.160 . S
C1006 O1007 1.278 . S
C1006 O1014 1.224 . S
O1007 C1006 1.278 . S
C1008 O1009 1.245 . S
C1008 O1020 1.232 . S
O1009 C1008 1.245 . S
O1010 Co1004 2.058 . S
O1010 C1036 1.269 . S
O1011 Co1003 2.074 . S
O1011 C1036 1.257 . S
H1012 C1037 0.930 . S
H1013 C1043 0.930 . S
O1014 Co1003 2.093 1_556 S
O1014 C1006 1.224 . S
H1015 C1047 0.929 . S
H1016 C1049 0.930 . S
H1017 C1050 0.930 . S
H1018 C1048 0.929 1_554 S
H1019 C1051 0.928 . S
O1020 Co1004 2.057 . S
O1020 C1008 1.232 . S
H1021 C1040 0.929 . S
H1022 C1041 0.929 . S
H1023 C1053 0.931 . S
H1024 C1045 0.929 . S
H1025 C1054 0.930 . S
H1026 C1046 0.931 . S
O1027 Co1003 2.097 . S
O1027 C1055 1.214 . S
H1028 C1056 0.929 1_556 S
H1029 C1057 0.929 . S
H1030 C1058 0.930 . S
H1031 C1059 0.929 . S
H1032 C1061 0.930 . S
H1033 C1038 0.930 . S
H1034 C1042 0.930 . S
O1035 Co1004 2.037 . S
O1035 C1055 1.234 . S
C1036 O1010 1.269 . S
C1036 O1011 1.257 . S
C1037 H1012 0.930 . S
C1037 C1040 1.388 . S
C1037 C1042 1.418 . S
C1038 H1033 0.930 . S
C1038 C1041 1.404 . S
C1038 C1042 1.353 . S
N1039 Co1004 2.145 . S
N1039 C1040 1.397 . S
N1039 C1041 1.334 . S
C1040 H1021 0.929 . S
C1040 C1037 1.388 . S
C1040 N1039 1.397 . S
C1041 H1022 0.929 . S
C1041 C1038 1.404 . S
C1041 N1039 1.334 . S
C1042 H1034 0.930 . S
C1042 C1037 1.418 . S
C1042 C1038 1.353 . S
C1043 H1013 0.930 . S
C1043 N1044 1.330 . S
C1043 C1045 1.446 . S
N1044 Co1003 2.151 1_556 S
N1044 C1043 1.330 . S
N1044 C1048 1.418 . S
C1045 H1024 0.929 . S
C1045 C1043 1.446 . S
C1045 C1046 1.332 . S
C1046 H1026 0.931 . S
C1046 C1045 1.332 . S
C1046 C1047 1.267 . S
C1047 H1015 0.929 . S
C1047 C1046 1.267 . S
C1047 C1048 1.251 . S
C1048 H1018 0.929 1_556 S
C1048 N1044 1.418 . S
C1048 C1047 1.251 . S
C1049 H1016 0.930 . S
C1049 C1051 1.406 . S
C1049 C1054 1.261 1_556 S
C1050 H1017 0.930 . S
C1050 N1052 1.325 . S
C1050 C1053 1.357 . S
C1051 H1019 0.928 . S
C1051 C1049 1.406 . S
C1051 N1052 1.261 1_556 S
N1052 Co1003 2.214 . S
N1052 C1050 1.325 . S
N1052 C1051 1.261 1_554 S
C1053 H1023 0.931 . S
C1053 C1050 1.357 . S
C1053 C1054 1.312 . S
C1054 H1025 0.930 . S
C1054 C1049 1.261 1_554 S
C1054 C1053 1.312 . S
C1055 O1027 1.214 . S
C1055 O1035 1.234 . S
C1056 H1028 0.929 1_554 S
C1056 C1059 1.391 . S
C1056 C1061 1.391 . S
C1057 H1029 0.929 . S
C1057 C1058 1.390 . S
C1057 N1060 1.391 . S
C1058 H1030 0.930 . S
C1058 C1057 1.390 . S
C1058 C1059 1.392 . S
C1059 H1031 0.929 . S
C1059 C1056 1.391 . S
C1059 C1058 1.392 . S
N1060 Co1004 2.257 . S
N1060 C1057 1.391 . S
N1060 C1061 1.388 . S
C1061 H1032 0.930 . S
C1061 C1056 1.391 . S
C1061 N1060 1.388 . S
Co1062 O1064 2.143 . S
Co1062 O1070 2.074 . S
Co1062 O1073 2.093 . S
Co1062 O1086 2.097 . S
Co1062 N1103 2.151 . S
Co1062 N1111 2.214 . S
Co1063 O1064 2.160 . S
Co1063 O1069 2.058 . S
Co1063 O1079 2.057 . S
Co1063 O1094 2.037 . S
Co1063 N1098 2.145 . S
Co1063 N1119 2.257 . S
O1064 Co1062 2.143 . S
O1064 Co1063 2.160 . S
C1065 O1066 1.278 . S
C1065 O1073 1.224 . S
O1066 C1065 1.278 . S
C1067 O1068 1.245 . S
C1067 O1079 1.232 . S
O1068 C1067 1.245 . S
O1069 Co1063 2.058 . S
O1069 C1095 1.269 . S
O1070 Co1062 2.074 . S
O1070 C1095 1.257 . S
H1071 C1096 0.930 . S
H1072 C1102 0.930 . S
O1073 Co1062 2.093 . S
O1073 C1065 1.224 . S
H1074 C1106 0.929 . S
H1075 C1108 0.930 1_455 S
H1076 C1109 0.930 . S
H1077 C1107 0.929 . S
H1078 C1110 0.928 . S
O1079 Co1063 2.057 . S
O1079 C1067 1.232 . S
H1080 C1099 0.929 . S
H1081 C1100 0.929 . S
H1082 C1112 0.936 . S
H1083 C1104 0.929 . S
H1084 C1113 0.930 . S
H1085 C1105 0.931 . S
O1086 Co1062 2.097 . S
O1086 C1114 1.214 . S
H1087 C1115 0.929 . S
H1088 C1116 0.929 . S
H1089 C1117 0.930 . S
H1090 C1118 0.929 . S
H1091 C1120 0.930 . S
H1092 C1097 0.930 . S
H1093 C1101 0.930 . S
O1094 Co1063 2.037 . S
O1094 C1114 1.234 . S
C1095 O1069 1.269 . S
C1095 O1070 1.257 . S
C1096 H1071 0.930 . S
C1096 C1099 1.388 . S
C1096 C1101 1.418 . S
C1097 H1092 0.930 . S
C1097 C1100 1.404 . S
C1097 C1101 1.353 . S
N1098 Co1063 2.145 . S
N1098 C1099 1.397 . S
N1098 C1100 1.334 . S
C1099 H1080 0.929 . S
C1099 C1096 1.388 . S
C1099 N1098 1.397 . S
C1100 H1081 0.929 . S
C1100 C1097 1.404 . S
C1100 N1098 1.334 . S
C1101 H1093 0.930 . S
C1101 C1096 1.418 . S
C1101 C1097 1.353 . S
C1102 H1072 0.930 . S
C1102 N1103 1.330 . S
C1102 C1104 1.446 . S
N1103 Co1062 2.151 . S
N1103 C1102 1.330 . S
N1103 C1107 1.418 . S
C1104 H1083 0.929 . S
C1104 C1102 1.446 . S
C1104 C1105 1.332 . S
C1105 H1085 0.931 . S
C1105 C1104 1.332 . S
C1105 C1106 1.267 . S
C1106 H1074 0.929 . S
C1106 C1105 1.267 . S
C1106 C1107 1.251 . S
C1107 H1077 0.929 . S
C1107 N1103 1.418 . S
C1107 C1106 1.251 . S
C1108 H1075 0.930 1_655 S
C1108 C1110 1.406 . S
C1108 C1113 1.261 1_655 S
C1109 H1076 0.930 . S
C1109 N1111 1.325 . S
C1109 C1112 1.357 . S
C1110 H1078 0.928 . S
C1110 C1108 1.406 . S
C1110 N1111 1.261 . S
N1111 Co1062 2.214 . S
N1111 C1109 1.325 . S
N1111 C1110 1.261 . S
C1112 H1082 0.936 . S
C1112 C1109 1.357 . S
C1112 C1113 1.312 1_655 S
C1113 H1084 0.930 . S
C1113 C1108 1.261 1_455 S
C1113 C1112 1.312 1_455 S
C1114 O1086 1.214 . S
C1114 O1094 1.234 . S
C1115 H1087 0.929 . S
C1115 C1118 1.391 . S
C1115 C1120 1.391 . S
C1116 H1088 0.929 . S
C1116 C1117 1.390 . S
C1116 N1119 1.391 . S
C1117 H1089 0.930 . S
C1117 C1116 1.390 . S
C1117 C1118 1.392 . S
C1118 H1090 0.929 . S
C1118 C1115 1.391 . S
C1118 C1117 1.392 . S
N1119 Co1063 2.257 . S
N1119 C1116 1.391 . S
N1119 C1120 1.388 . S
C1120 H1091 0.930 . S
C1120 C1115 1.391 . S
C1120 N1119 1.388 . S
Co1121 O1123 2.143 . S
Co1121 O1129 2.074 . S
Co1121 O1132 2.093 . S
Co1121 O1145 2.097 . S
Co1121 N1162 2.151 . S
Co1121 N1170 2.214 . S
Co1122 O1123 2.160 . S
Co1122 O1128 2.058 . S
Co1122 O1138 2.057 . S
Co1122 O1153 2.037 . S
Co1122 N1157 2.145 . S
Co1122 N1178 2.257 . S
O1123 Co1121 2.143 . S
O1123 Co1122 2.160 . S
C1124 O1125 1.278 . S
C1124 O1132 1.224 . S
O1125 C1124 1.278 . S
C1126 O1127 1.245 . S
C1126 O1138 1.232 . S
O1127 C1126 1.245 . S
O1128 Co1122 2.058 . S
O1128 C1154 1.269 . S
O1129 Co1121 2.074 . S
O1129 C1154 1.257 . S
H1130 C1155 0.930 . S
H1131 C1161 0.930 . S
O1132 Co1121 2.093 . S
O1132 C1124 1.224 . S
H1133 C1165 0.929 . S
H1134 C1167 0.930 . S
H1135 C1168 0.930 . S
H1136 C1166 0.929 . S
H1137 C1169 0.928 . S
O1138 Co1122 2.057 . S
O1138 C1126 1.232 . S
H1139 C1158 0.929 . S
H1140 C1159 0.929 . S
H1141 C1171 0.931 . S
H1142 C1163 0.929 . S
H1143 C1172 0.930 . S
H1144 C1164 0.931 . S
O1145 Co1121 2.097 . S
O1145 C1173 1.214 . S
H1146 C1174 0.929 . S
H1147 C1175 0.929 . S
H1148 C1176 0.930 . S
H1149 C1177 0.929 . S
H1150 C1179 0.930 . S
H1151 C1156 0.930 . S
H1152 C1160 0.930 . S
O1153 Co1122 2.037 . S
O1153 C1173 1.234 . S
C1154 O1128 1.269 . S
C1154 O1129 1.257 . S
C1155 H1130 0.930 . S
C1155 C1158 1.388 . S
C1155 C1160 1.418 . S
C1156 H1151 0.930 . S
C1156 C1159 1.404 . S
C1156 C1160 1.353 . S
N1157 Co1122 2.145 . S
N1157 C1158 1.397 . S
N1157 C1159 1.334 . S
C1158 H1139 0.929 . S
C1158 C1155 1.388 . S
C1158 N1157 1.397 . S
C1159 H1140 0.929 . S
C1159 C1156 1.404 . S
C1159 N1157 1.334 . S
C1160 H1152 0.930 . S
C1160 C1155 1.418 . S
C1160 C1156 1.353 . S
C1161 H1131 0.930 . S
C1161 N1162 1.330 . S
C1161 C1163 1.446 1_455 S
N1162 Co1121 2.151 . S
N1162 C1161 1.330 . S
N1162 C1166 1.418 1_455 S
C1163 H1142 0.929 . S
C1163 C1161 1.446 1_655 S
C1163 C1164 1.332 . S
C1164 H1144 0.931 . S
C1164 C1163 1.332 . S
C1164 C1165 1.267 . S
C1165 H1133 0.929 . S
C1165 C1164 1.267 . S
C1165 C1166 1.251 . S
C1166 H1136 0.929 . S
C1166 N1162 1.418 1_655 S
C1166 C1165 1.251 . S
C1167 H1134 0.930 . S
C1167 C1169 1.406 . S
C1167 C1172 1.261 . S
C1168 H1135 0.930 . S
C1168 N1170 1.325 . S
C1168 C1171 1.357 . S
C1169 H1137 0.928 . S
C1169 C1167 1.406 . S
C1169 N1170 1.261 . S
N1170 Co1121 2.214 . S
N1170 C1168 1.325 . S
N1170 C1169 1.261 . S
C1171 H1141 0.931 . S
C1171 C1168 1.357 . S
C1171 C1172 1.312 . S
C1172 H1143 0.930 . S
C1172 C1167 1.261 . S
C1172 C1171 1.312 . S
C1173 O1145 1.214 . S
C1173 O1153 1.234 . S
C1174 H1146 0.929 . S
C1174 C1177 1.391 . S
C1174 C1179 1.391 . S
C1175 H1147 0.929 . S
C1175 C1176 1.390 . S
C1175 N1178 1.391 . S
C1176 H1148 0.930 . S
C1176 C1175 1.390 . S
C1176 C1177 1.392 . S
C1177 H1149 0.929 . S
C1177 C1174 1.391 . S
C1177 C1176 1.392 . S
N1178 Co1122 2.257 . S
N1178 C1175 1.391 . S
N1178 C1179 1.388 . S
C1179 H1150 0.930 . S
C1179 C1174 1.391 . S
C1179 N1178 1.388 . S
Co1180 O1182 2.143 . S
Co1180 O1188 2.074 . S
Co1180 O1191 2.093 . S
Co1180 O1204 2.097 . S
Co1180 N1221 2.151 . S
Co1180 N1229 2.214 . S
Co1181 O1182 2.160 . S
Co1181 O1187 2.058 . S
Co1181 O1197 2.057 . S
Co1181 O1212 2.037 . S
Co1181 N1216 2.145 . S
Co1181 N1237 2.257 . S
O1182 Co1180 2.143 . S
O1182 Co1181 2.160 . S
C1183 O1184 1.278 . S
C1183 O1191 1.224 . S
O1184 C1183 1.278 . S
C1185 O1186 1.245 . S
C1185 O1197 1.232 . S
O1186 C1185 1.245 . S
O1187 Co1181 2.058 . S
O1187 C1213 1.269 . S
O1188 Co1180 2.074 . S
O1188 C1213 1.257 . S
H1189 C1214 0.930 . S
H1190 C1220 0.930 . S
O1191 Co1180 2.093 . S
O1191 C1183 1.224 . S
H1192 C1224 0.929 . S
H1193 C1226 0.930 . S
H1194 C1227 0.930 . S
H1195 C1225 0.929 . S
H1196 C1228 0.928 . S
O1197 Co1181 2.057 . S
O1197 C1185 1.232 . S
H1198 C1217 0.929 . S
H1199 C1218 0.929 . S
H1200 C1230 0.931 . S
H1201 C1222 0.929 . S
H1202 C1231 0.930 . S
H1203 C1223 0.931 . S
O1204 Co1180 2.097 . S
O1204 C1232 1.214 . S
H1205 C1233 0.929 . S
H1206 C1234 0.929 . S
H1207 C1235 0.930 . S
H1208 C1236 0.929 . S
H1209 C1238 0.930 . S
H1210 C1215 0.930 . S
H1211 C1219 0.930 . S
O1212 Co1181 2.037 . S
O1212 C1232 1.234 . S
C1213 O1187 1.269 . S
C1213 O1188 1.257 . S
C1214 H1189 0.930 . S
C1214 C1217 1.388 . S
C1214 C1219 1.418 . S
C1215 H1210 0.930 . S
C1215 C1218 1.404 . S
C1215 C1219 1.353 . S
N1216 Co1181 2.145 . S
N1216 C1217 1.397 . S
N1216 C1218 1.334 . S
C1217 H1198 0.929 . S
C1217 C1214 1.388 . S
C1217 N1216 1.397 . S
C1218 H1199 0.929 . S
C1218 C1215 1.404 . S
C1218 N1216 1.334 . S
C1219 H1211 0.930 . S
C1219 C1214 1.418 . S
C1219 C1215 1.353 . S
C1220 H1190 0.930 . S
C1220 N1221 1.330 . S
C1220 C1222 1.446 . S
N1221 Co1180 2.151 . S
N1221 C1220 1.330 . S
N1221 C1225 1.418 . S
C1222 H1201 0.929 . S
C1222 C1220 1.446 . S
C1222 C1223 1.332 . S
C1223 H1203 0.931 . S
C1223 C1222 1.332 . S
C1223 C1224 1.267 . S
C1224 H1192 0.929 . S
C1224 C1223 1.267 . S
C1224 C1225 1.251 . S
C1225 H1195 0.929 . S
C1225 N1221 1.418 . S
C1225 C1224 1.251 . S
C1226 H1193 0.930 . S
C1226 C1228 1.406 . S
C1226 C1231 1.261 . S
C1227 H1194 0.930 . S
C1227 N1229 1.325 . S
C1227 C1230 1.357 . S
C1228 H1196 0.928 . S
C1228 C1226 1.406 . S
C1228 N1229 1.261 . S
N1229 Co1180 2.214 . S
N1229 C1227 1.325 . S
N1229 C1228 1.261 . S
C1230 H1200 0.931 . S
C1230 C1227 1.357 . S
C1230 C1231 1.312 . S
C1231 H1202 0.930 . S
C1231 C1226 1.261 . S
C1231 C1230 1.312 . S
C1232 O1204 1.214 . S
C1232 O1212 1.234 . S
C1233 H1205 0.929 . S
C1233 C1236 1.391 . S
C1233 C1238 1.391 . S
C1234 H1206 0.929 . S
C1234 C1235 1.390 . S
C1234 N1237 1.391 . S
C1235 H1207 0.930 . S
C1235 C1234 1.390 . S
C1235 C1236 1.392 . S
C1236 H1208 0.929 . S
C1236 C1233 1.391 . S
C1236 C1235 1.392 . S
N1237 Co1181 2.257 . S
N1237 C1234 1.391 . S
N1237 C1238 1.388 . S
C1238 H1209 0.930 . S
C1238 C1233 1.391 . S
C1238 N1237 1.388 . S
Co1239 O1241 2.143 . S
Co1239 O1247 2.074 . S
Co1239 O1250 2.093 1_556 S
Co1239 O1263 2.097 . S
Co1239 N1280 2.151 1_556 S
Co1239 N1288 2.214 . S
Co1240 O1241 2.160 . S
Co1240 O1246 2.058 . S
Co1240 O1256 2.057 . S
Co1240 O1271 2.037 . S
Co1240 N1275 2.145 . S
Co1240 N1296 2.257 . S
O1241 Co1239 2.143 . S
O1241 Co1240 2.160 . S
C1242 O1243 1.278 . S
C1242 O1250 1.224 . S
O1243 C1242 1.278 . S
C1244 O1245 1.245 . S
C1244 O1256 1.232 . S
O1245 C1244 1.245 . S
O1246 Co1240 2.058 . S
O1246 C1272 1.269 . S
O1247 Co1239 2.074 . S
O1247 C1272 1.257 . S
H1248 C1273 0.930 . S
H1249 C1279 0.930 . S
O1250 Co1239 2.093 1_554 S
O1250 C1242 1.224 . S
H1251 C1283 0.929 . S
H1252 C1285 0.930 . S
H1253 C1286 0.930 . S
H1254 C1284 0.929 1_556 S
H1255 C1287 0.928 . S
O1256 Co1240 2.057 . S
O1256 C1244 1.232 . S
H1257 C1276 0.929 . S
H1258 C1277 0.929 . S
H1259 C1289 0.931 . S
H1260 C1281 0.929 . S
H1261 C1290 0.930 . S
H1262 C1282 0.931 . S
O1263 Co1239 2.097 . S
O1263 C1291 1.214 . S
H1264 C1292 0.929 1_554 S
H1265 C1293 0.929 . S
H1266 C1294 0.930 . S
H1267 C1295 0.929 . S
H1268 C1297 0.930 . S
H1269 C1274 0.930 . S
H1270 C1278 0.930 . S
O1271 Co1240 2.037 . S
O1271 C1291 1.234 . S
C1272 O1246 1.269 . S
C1272 O1247 1.257 . S
C1273 H1248 0.930 . S
C1273 C1276 1.388 . S
C1273 C1278 1.418 . S
C1274 H1269 0.930 . S
C1274 C1277 1.404 . S
C1274 C1278 1.353 . S
N1275 Co1240 2.145 . S
N1275 C1276 1.397 . S
N1275 C1277 1.334 . S
C1276 H1257 0.929 . S
C1276 C1273 1.388 . S
C1276 N1275 1.397 . S
C1277 H1258 0.929 . S
C1277 C1274 1.404 . S
C1277 N1275 1.334 . S
C1278 H1270 0.930 . S
C1278 C1273 1.418 . S
C1278 C1274 1.353 . S
C1279 H1249 0.930 . S
C1279 N1280 1.330 . S
C1279 C1281 1.446 1_455 S
N1280 Co1239 2.151 1_554 S
N1280 C1279 1.330 . S
N1280 C1284 1.418 1_455 S
C1281 H1260 0.929 . S
C1281 C1279 1.446 1_655 S
C1281 C1282 1.332 . S
C1282 H1262 0.931 . S
C1282 C1281 1.332 . S
C1282 C1283 1.267 . S
C1283 H1251 0.929 . S
C1283 C1282 1.267 . S
C1283 C1284 1.251 . S
C1284 H1254 0.929 1_554 S
C1284 N1280 1.418 1_655 S
C1284 C1283 1.251 . S
C1285 H1252 0.930 . S
C1285 C1287 1.406 . S
C1285 C1290 1.261 1_554 S
C1286 H1253 0.930 . S
C1286 N1288 1.325 . S
C1286 C1289 1.357 . S
C1287 H1255 0.928 . S
C1287 C1285 1.406 . S
C1287 N1288 1.261 1_554 S
N1288 Co1239 2.214 . S
N1288 C1286 1.325 . S
N1288 C1287 1.261 1_556 S
C1289 H1259 0.931 . S
C1289 C1286 1.357 . S
C1289 C1290 1.312 . S
C1290 H1261 0.930 . S
C1290 C1285 1.261 1_556 S
C1290 C1289 1.312 . S
C1291 O1263 1.214 . S
C1291 O1271 1.234 . S
C1292 H1264 0.929 1_556 S
C1292 C1295 1.391 . S
C1292 C1297 1.391 . S
C1293 H1265 0.929 . S
C1293 C1294 1.390 . S
C1293 N1296 1.391 . S
C1294 H1266 0.930 . S
C1294 C1293 1.390 . S
C1294 C1295 1.392 . S
C1295 H1267 0.929 . S
C1295 C1292 1.391 . S
C1295 C1294 1.392 . S
N1296 Co1240 2.257 . S
N1296 C1293 1.391 . S
N1296 C1297 1.388 . S
C1297 H1268 0.930 . S
C1297 C1292 1.391 . S
C1297 N1296 1.388 . S
Co1298 O1300 2.143 . S
Co1298 O1306 2.074 . S
Co1298 O1309 2.093 . S
Co1298 O1322 2.097 . S
Co1298 N1339 2.151 . S
Co1298 N1347 2.214 . S
Co1299 O1300 2.160 . S
Co1299 O1305 2.058 . S
Co1299 O1315 2.057 . S
Co1299 O1330 2.037 . S
Co1299 N1334 2.145 . S
Co1299 N1355 2.257 . S
O1300 Co1298 2.143 . S
O1300 Co1299 2.160 . S
C1301 O1302 1.278 . S
C1301 O1309 1.224 . S
O1302 C1301 1.278 . S
C1303 O1304 1.245 . S
C1303 O1315 1.232 . S
O1304 C1303 1.245 . S
O1305 Co1299 2.058 . S
O1305 C1331 1.269 . S
O1306 Co1298 2.074 . S
O1306 C1331 1.257 . S
H1307 C1332 0.930 . S
H1308 C1338 0.930 . S
O1309 Co1298 2.093 . S
O1309 C1301 1.224 . S
H1310 C1342 0.929 . S
H1311 C1344 0.930 1_455 S
H1312 C1345 0.930 . S
H1313 C1343 0.929 . S
H1314 C1346 0.928 . S
O1315 Co1299 2.057 . S
O1315 C1303 1.232 . S
H1316 C1335 0.929 . S
H1317 C1336 0.929 . S
H1318 C1348 0.936 . S
H1319 C1340 0.929 . S
H1320 C1349 0.930 . S
H1321 C1341 0.931 . S
O1322 Co1298 2.097 . S
O1322 C1350 1.214 . S
H1323 C1351 0.929 . S
H1324 C1352 0.929 . S
H1325 C1353 0.930 . S
H1326 C1354 0.929 . S
H1327 C1356 0.930 . S
H1328 C1333 0.930 . S
H1329 C1337 0.930 . S
O1330 Co1299 2.037 . S
O1330 C1350 1.234 . S
C1331 O1305 1.269 . S
C1331 O1306 1.257 . S
C1332 H1307 0.930 . S
C1332 C1335 1.388 . S
C1332 C1337 1.418 . S
C1333 H1328 0.930 . S
C1333 C1336 1.404 . S
C1333 C1337 1.353 . S
N1334 Co1299 2.145 . S
N1334 C1335 1.397 . S
N1334 C1336 1.334 . S
C1335 H1316 0.929 . S
C1335 C1332 1.388 . S
C1335 N1334 1.397 . S
C1336 H1317 0.929 . S
C1336 C1333 1.404 . S
C1336 N1334 1.334 . S
C1337 H1329 0.930 . S
C1337 C1332 1.418 . S
C1337 C1333 1.353 . S
C1338 H1308 0.930 . S
C1338 N1339 1.330 . S
C1338 C1340 1.446 . S
N1339 Co1298 2.151 . S
N1339 C1338 1.330 . S
N1339 C1343 1.418 . S
C1340 H1319 0.929 . S
C1340 C1338 1.446 . S
C1340 C1341 1.332 . S
C1341 H1321 0.931 . S
C1341 C1340 1.332 . S
C1341 C1342 1.267 . S
C1342 H1310 0.929 . S
C1342 C1341 1.267 . S
C1342 C1343 1.251 . S
C1343 H1313 0.929 . S
C1343 N1339 1.418 . S
C1343 C1342 1.251 . S
C1344 H1311 0.930 1_655 S
C1344 C1346 1.406 . S
C1344 C1349 1.261 1_655 S
C1345 H1312 0.930 . S
C1345 N1347 1.325 . S
C1345 C1348 1.357 . S
C1346 H1314 0.928 . S
C1346 C1344 1.406 . S
C1346 N1347 1.261 . S
N1347 Co1298 2.214 . S
N1347 C1345 1.325 . S
N1347 C1346 1.261 . S
C1348 H1318 0.936 . S
C1348 C1345 1.357 . S
C1348 C1349 1.312 1_655 S
C1349 H1320 0.930 . S
C1349 C1344 1.261 1_455 S
C1349 C1348 1.312 1_455 S
C1350 O1322 1.214 . S
C1350 O1330 1.234 . S
C1351 H1323 0.929 . S
C1351 C1354 1.391 . S
C1351 C1356 1.391 . S
C1352 H1324 0.929 . S
C1352 C1353 1.390 . S
C1352 N1355 1.391 . S
C1353 H1325 0.930 . S
C1353 C1352 1.390 . S
C1353 C1354 1.392 . S
C1354 H1326 0.929 . S
C1354 C1351 1.391 . S
C1354 C1353 1.392 . S
N1355 Co1299 2.257 . S
N1355 C1352 1.391 . S
N1355 C1356 1.388 . S
C1356 H1327 0.930 . S
C1356 C1351 1.391 . S
C1356 N1355 1.388 . S
Co1357 O1359 2.143 . S
Co1357 O1365 2.074 . S
Co1357 O1368 2.093 . S
Co1357 O1381 2.097 . S
Co1357 N1398 2.151 . S
Co1357 N1406 2.214 . S
Co1358 O1359 2.160 . S
Co1358 O1364 2.058 . S
Co1358 O1374 2.057 . S
Co1358 O1389 2.037 . S
Co1358 N1393 2.145 . S
Co1358 N1414 2.257 . S
O1359 Co1357 2.143 . S
O1359 Co1358 2.160 . S
C1360 O1361 1.278 . S
C1360 O1368 1.224 . S
O1361 C1360 1.278 . S
C1362 O1363 1.245 . S
C1362 O1374 1.232 . S
O1363 C1362 1.245 . S
O1364 Co1358 2.058 . S
O1364 C1390 1.269 . S
O1365 Co1357 2.074 . S
O1365 C1390 1.257 . S
H1366 C1391 0.930 . S
H1367 C1397 0.930 . S
O1368 Co1357 2.093 . S
O1368 C1360 1.224 . S
H1369 C1401 0.929 . S
H1370 C1403 0.930 . S
H1371 C1404 0.930 . S
H1372 C1402 0.929 . S
H1373 C1405 0.928 . S
O1374 Co1358 2.057 . S
O1374 C1362 1.232 . S
H1375 C1394 0.929 . S
H1376 C1395 0.929 . S
H1377 C1407 0.931 . S
H1378 C1399 0.929 . S
H1379 C1408 0.930 . S
H1380 C1400 0.931 . S
O1381 Co1357 2.097 . S
O1381 C1409 1.214 . S
H1382 C1410 0.929 . S
H1383 C1411 0.929 . S
H1384 C1412 0.930 . S
H1385 C1413 0.929 . S
H1386 C1415 0.930 . S
H1387 C1392 0.930 . S
H1388 C1396 0.930 . S
O1389 Co1358 2.037 . S
O1389 C1409 1.234 . S
C1390 O1364 1.269 . S
C1390 O1365 1.257 . S
C1391 H1366 0.930 . S
C1391 C1394 1.388 . S
C1391 C1396 1.418 . S
C1392 H1387 0.930 . S
C1392 C1395 1.404 . S
C1392 C1396 1.353 . S
N1393 Co1358 2.145 . S
N1393 C1394 1.397 . S
N1393 C1395 1.334 . S
C1394 H1375 0.929 . S
C1394 C1391 1.388 . S
C1394 N1393 1.397 . S
C1395 H1376 0.929 . S
C1395 C1392 1.404 . S
C1395 N1393 1.334 . S
C1396 H1388 0.930 . S
C1396 C1391 1.418 . S
C1396 C1392 1.353 . S
C1397 H1367 0.930 . S
C1397 N1398 1.330 . S
C1397 C1399 1.446 . S
N1398 Co1357 2.151 . S
N1398 C1397 1.330 . S
N1398 C1402 1.418 . S
C1399 H1378 0.929 . S
C1399 C1397 1.446 . S
C1399 C1400 1.332 . S
C1400 H1380 0.931 . S
C1400 C1399 1.332 . S
C1400 C1401 1.267 . S
C1401 H1369 0.929 . S
C1401 C1400 1.267 . S
C1401 C1402 1.251 . S
C1402 H1372 0.929 . S
C1402 N1398 1.418 . S
C1402 C1401 1.251 . S
C1403 H1370 0.930 . S
C1403 C1405 1.406 . S
C1403 C1408 1.261 . S
C1404 H1371 0.930 . S
C1404 N1406 1.325 . S
C1404 C1407 1.357 . S
C1405 H1373 0.928 . S
C1405 C1403 1.406 . S
C1405 N1406 1.261 . S
N1406 Co1357 2.214 . S
N1406 C1404 1.325 . S
N1406 C1405 1.261 . S
C1407 H1377 0.931 . S
C1407 C1404 1.357 . S
C1407 C1408 1.312 . S
C1408 H1379 0.930 . S
C1408 C1403 1.261 . S
C1408 C1407 1.312 . S
C1409 O1381 1.214 . S
C1409 O1389 1.234 . S
C1410 H1382 0.929 . S
C1410 C1413 1.391 . S
C1410 C1415 1.391 . S
C1411 H1383 0.929 . S
C1411 C1412 1.390 . S
C1411 N1414 1.391 . S
C1412 H1384 0.930 . S
C1412 C1411 1.390 . S
C1412 C1413 1.392 . S
C1413 H1385 0.929 . S
C1413 C1410 1.391 . S
C1413 C1412 1.392 . S
N1414 Co1358 2.257 . S
N1414 C1411 1.391 . S
N1414 C1415 1.388 . S
C1415 H1386 0.930 . S
C1415 C1410 1.391 . S
C1415 N1414 1.388 . S
Co1416 O1418 2.143 . S
Co1416 O1424 2.074 . S
Co1416 O1427 2.093 . S
Co1416 O1440 2.097 . S
Co1416 N1457 2.151 . S
Co1416 N1465 2.214 . S
Co1417 O1418 2.160 . S
Co1417 O1423 2.058 . S
Co1417 O1433 2.057 . S
Co1417 O1448 2.037 . S
Co1417 N1452 2.145 . S
Co1417 N1473 2.257 . S
O1418 Co1416 2.143 . S
O1418 Co1417 2.160 . S
C1419 O1420 1.278 . S
C1419 O1427 1.224 . S
O1420 C1419 1.278 . S
C1421 O1422 1.245 . S
C1421 O1433 1.232 . S
O1422 C1421 1.245 . S
O1423 Co1417 2.058 . S
O1423 C1449 1.269 . S
O1424 Co1416 2.074 . S
O1424 C1449 1.257 . S
H1425 C1450 0.930 . S
H1426 C1456 0.930 . S
O1427 Co1416 2.093 . S
O1427 C1419 1.224 . S
H1428 C1460 0.929 . S
H1429 C1462 0.930 . S
H1430 C1463 0.930 . S
H1431 C1461 0.929 . S
H1432 C1464 0.928 . S
O1433 Co1417 2.057 . S
O1433 C1421 1.232 . S
H1434 C1453 0.929 . S
H1435 C1454 0.929 . S
H1436 C1466 0.931 . S
H1437 C1458 0.929 . S
H1438 C1467 0.930 . S
H1439 C1459 0.931 . S
O1440 Co1416 2.097 . S
O1440 C1468 1.214 . S
H1441 C1469 0.929 . S
H1442 C1470 0.929 . S
H1443 C1471 0.930 . S
H1444 C1472 0.929 . S
H1445 C1474 0.930 . S
H1446 C1451 0.930 . S
H1447 C1455 0.930 . S
O1448 Co1417 2.037 . S
O1448 C1468 1.234 . S
C1449 O1423 1.269 . S
C1449 O1424 1.257 . S
C1450 H1425 0.930 . S
C1450 C1453 1.388 . S
C1450 C1455 1.418 . S
C1451 H1446 0.930 . S
C1451 C1454 1.404 . S
C1451 C1455 1.353 . S
N1452 Co1417 2.145 . S
N1452 C1453 1.397 . S
N1452 C1454 1.334 . S
C1453 H1434 0.929 . S
C1453 C1450 1.388 . S
C1453 N1452 1.397 . S
C1454 H1435 0.929 . S
C1454 C1451 1.404 . S
C1454 N1452 1.334 . S
C1455 H1447 0.930 . S
C1455 C1450 1.418 . S
C1455 C1451 1.353 . S
C1456 H1426 0.930 . S
C1456 N1457 1.330 . S
C1456 C1458 1.446 . S
N1457 Co1416 2.151 . S
N1457 C1456 1.330 . S
N1457 C1461 1.418 . S
C1458 H1437 0.929 . S
C1458 C1456 1.446 . S
C1458 C1459 1.332 . S
C1459 H1439 0.931 . S
C1459 C1458 1.332 . S
C1459 C1460 1.267 . S
C1460 H1428 0.929 . S
C1460 C1459 1.267 . S
C1460 C1461 1.251 . S
C1461 H1431 0.929 . S
C1461 N1457 1.418 . S
C1461 C1460 1.251 . S
C1462 H1429 0.930 . S
C1462 C1464 1.406 . S
C1462 C1467 1.261 . S
C1463 H1430 0.930 . S
C1463 N1465 1.325 . S
C1463 C1466 1.357 . S
C1464 H1432 0.928 . S
C1464 C1462 1.406 . S
C1464 N1465 1.261 . S
N1465 Co1416 2.214 . S
N1465 C1463 1.325 . S
N1465 C1464 1.261 . S
C1466 H1436 0.931 . S
C1466 C1463 1.357 . S
C1466 C1467 1.312 . S
C1467 H1438 0.930 . S
C1467 C1462 1.261 . S
C1467 C1466 1.312 . S
C1468 O1440 1.214 . S
C1468 O1448 1.234 . S
C1469 H1441 0.929 . S
C1469 C1472 1.391 . S
C1469 C1474 1.391 . S
C1470 H1442 0.929 . S
C1470 C1471 1.390 . S
C1470 N1473 1.391 . S
C1471 H1443 0.930 . S
C1471 C1470 1.390 . S
C1471 C1472 1.392 . S
C1472 H1444 0.929 . S
C1472 C1469 1.391 . S
C1472 C1471 1.392 . S
N1473 Co1417 2.257 . S
N1473 C1470 1.391 . S
N1473 C1474 1.388 . S
C1474 H1445 0.930 . S
C1474 C1469 1.391 . S
C1474 N1473 1.388 . S
Co1475 O1477 2.143 . S
Co1475 O1483 2.074 . S
Co1475 O1486 2.093 1_556 S
Co1475 O1499 2.097 . S
Co1475 N1516 2.151 1_556 S
Co1475 N1524 2.214 . S
Co1476 O1477 2.160 . S
Co1476 O1482 2.058 . S
Co1476 O1492 2.057 . S
Co1476 O1507 2.037 . S
Co1476 N1511 2.145 . S
Co1476 N1532 2.257 . S
O1477 Co1475 2.143 . S
O1477 Co1476 2.160 . S
C1478 O1479 1.278 . S
C1478 O1486 1.224 . S
O1479 C1478 1.278 . S
C1480 O1481 1.245 . S
C1480 O1492 1.232 . S
O1481 C1480 1.245 . S
O1482 Co1476 2.058 . S
O1482 C1508 1.269 . S
O1483 Co1475 2.074 . S
O1483 C1508 1.257 . S
H1484 C1509 0.930 . S
H1485 C1515 0.930 . S
O1486 Co1475 2.093 1_554 S
O1486 C1478 1.224 . S
H1487 C1519 0.929 . S
H1488 C1521 0.930 . S
H1489 C1522 0.930 . S
H1490 C1520 0.929 1_556 S
H1491 C1523 0.928 . S
O1492 Co1476 2.057 . S
O1492 C1480 1.232 . S
H1493 C1512 0.929 . S
H1494 C1513 0.929 . S
H1495 C1525 0.931 . S
H1496 C1517 0.929 . S
H1497 C1526 0.930 . S
H1498 C1518 0.931 . S
O1499 Co1475 2.097 . S
O1499 C1527 1.214 . S
H1500 C1528 0.929 1_554 S
H1501 C1529 0.929 . S
H1502 C1530 0.930 . S
H1503 C1531 0.929 . S
H1504 C1533 0.930 . S
H1505 C1510 0.930 . S
H1506 C1514 0.930 . S
O1507 Co1476 2.037 . S
O1507 C1527 1.234 . S
C1508 O1482 1.269 . S
C1508 O1483 1.257 . S
C1509 H1484 0.930 . S
C1509 C1512 1.388 . S
C1509 C1514 1.418 . S
C1510 H1505 0.930 . S
C1510 C1513 1.404 . S
C1510 C1514 1.353 . S
N1511 Co1476 2.145 . S
N1511 C1512 1.397 . S
N1511 C1513 1.334 . S
C1512 H1493 0.929 . S
C1512 C1509 1.388 . S
C1512 N1511 1.397 . S
C1513 H1494 0.929 . S
C1513 C1510 1.404 . S
C1513 N1511 1.334 . S
C1514 H1506 0.930 . S
C1514 C1509 1.418 . S
C1514 C1510 1.353 . S
C1515 H1485 0.930 . S
C1515 N1516 1.330 . S
C1515 C1517 1.446 . S
N1516 Co1475 2.151 1_554 S
N1516 C1515 1.330 . S
N1516 C1520 1.418 . S
C1517 H1496 0.929 . S
C1517 C1515 1.446 . S
C1517 C1518 1.332 . S
C1518 H1498 0.931 . S
C1518 C1517 1.332 . S
C1518 C1519 1.267 . S
C1519 H1487 0.929 . S
C1519 C1518 1.267 . S
C1519 C1520 1.251 . S
C1520 H1490 0.929 1_554 S
C1520 N1516 1.418 . S
C1520 C1519 1.251 . S
C1521 H1488 0.930 . S
C1521 C1523 1.406 . S
C1521 C1526 1.261 1_554 S
C1522 H1489 0.930 . S
C1522 N1524 1.325 . S
C1522 C1525 1.357 . S
C1523 H1491 0.928 . S
C1523 C1521 1.406 . S
C1523 N1524 1.261 1_554 S
N1524 Co1475 2.214 . S
N1524 C1522 1.325 . S
N1524 C1523 1.261 1_556 S
C1525 H1495 0.931 . S
C1525 C1522 1.357 . S
C1525 C1526 1.312 . S
C1526 H1497 0.930 . S
C1526 C1521 1.261 1_556 S
C1526 C1525 1.312 . S
C1527 O1499 1.214 . S
C1527 O1507 1.234 . S
C1528 H1500 0.929 1_556 S
C1528 C1531 1.391 . S
C1528 C1533 1.391 . S
C1529 H1501 0.929 . S
C1529 C1530 1.390 . S
C1529 N1532 1.391 . S
C1530 H1502 0.930 . S
C1530 C1529 1.390 . S
C1530 C1531 1.392 . S
C1531 H1503 0.929 . S
C1531 C1528 1.391 . S
C1531 C1530 1.392 . S
N1532 Co1476 2.257 . S
N1532 C1529 1.391 . S
N1532 C1533 1.388 . S
C1533 H1504 0.930 . S
C1533 C1528 1.391 . S
C1533 N1532 1.388 . S
Co1534 O1536 2.143 . S
Co1534 O1542 2.074 . S
Co1534 O1545 2.093 . S
Co1534 O1558 2.097 . S
Co1534 N1575 2.151 . S
Co1534 N1583 2.214 . S
Co1535 O1536 2.160 . S
Co1535 O1541 2.058 . S
Co1535 O1551 2.057 . S
Co1535 O1566 2.037 . S
Co1535 N1570 2.145 . S
Co1535 N1591 2.257 . S
O1536 Co1534 2.143 . S
O1536 Co1535 2.160 . S
C1537 O1538 1.278 . S
C1537 O1545 1.224 . S
O1538 C1537 1.278 . S
C1539 O1540 1.245 . S
C1539 O1551 1.232 . S
O1540 C1539 1.245 . S
O1541 Co1535 2.058 . S
O1541 C1567 1.269 . S
O1542 Co1534 2.074 . S
O1542 C1567 1.257 . S
H1543 C1568 0.930 . S
H1544 C1574 0.930 . S
O1545 Co1534 2.093 . S
O1545 C1537 1.224 . S
H1546 C1578 0.929 . S
H1547 C1580 0.930 1_655 S
H1548 C1581 0.930 . S
H1549 C1579 0.929 . S
H1550 C1582 0.928 . S
O1551 Co1535 2.057 . S
O1551 C1539 1.232 . S
H1552 C1571 0.929 . S
H1553 C1572 0.929 . S
H1554 C1584 0.936 . S
H1555 C1576 0.929 . S
H1556 C1585 0.930 . S
H1557 C1577 0.931 . S
O1558 Co1534 2.097 . S
O1558 C1586 1.214 . S
H1559 C1587 0.929 . S
H1560 C1588 0.929 . S
H1561 C1589 0.930 . S
H1562 C1590 0.929 . S
H1563 C1592 0.930 . S
H1564 C1569 0.930 . S
H1565 C1573 0.930 . S
O1566 Co1535 2.037 . S
O1566 C1586 1.234 . S
C1567 O1541 1.269 . S
C1567 O1542 1.257 . S
C1568 H1543 0.930 . S
C1568 C1571 1.388 . S
C1568 C1573 1.418 . S
C1569 H1564 0.930 . S
C1569 C1572 1.404 . S
C1569 C1573 1.353 . S
N1570 Co1535 2.145 . S
N1570 C1571 1.397 . S
N1570 C1572 1.334 . S
C1571 H1552 0.929 . S
C1571 C1568 1.388 . S
C1571 N1570 1.397 . S
C1572 H1553 0.929 . S
C1572 C1569 1.404 . S
C1572 N1570 1.334 . S
C1573 H1565 0.930 . S
C1573 C1568 1.418 . S
C1573 C1569 1.353 . S
C1574 H1544 0.930 . S
C1574 N1575 1.330 . S
C1574 C1576 1.446 . S
N1575 Co1534 2.151 . S
N1575 C1574 1.330 . S
N1575 C1579 1.418 . S
C1576 H1555 0.929 . S
C1576 C1574 1.446 . S
C1576 C1577 1.332 . S
C1577 H1557 0.931 . S
C1577 C1576 1.332 . S
C1577 C1578 1.267 . S
C1578 H1546 0.929 . S
C1578 C1577 1.267 . S
C1578 C1579 1.251 . S
C1579 H1549 0.929 . S
C1579 N1575 1.418 . S
C1579 C1578 1.251 . S
C1580 H1547 0.930 1_455 S
C1580 C1582 1.406 . S
C1580 C1585 1.261 1_455 S
C1581 H1548 0.930 . S
C1581 N1583 1.325 . S
C1581 C1584 1.357 . S
C1582 H1550 0.928 . S
C1582 C1580 1.406 . S
C1582 N1583 1.261 . S
N1583 Co1534 2.214 . S
N1583 C1581 1.325 . S
N1583 C1582 1.261 . S
C1584 H1554 0.936 . S
C1584 C1581 1.357 . S
C1584 C1585 1.312 1_455 S
C1585 H1556 0.930 . S
C1585 C1580 1.261 1_655 S
C1585 C1584 1.312 1_655 S
C1586 O1558 1.214 . S
C1586 O1566 1.234 . S
C1587 H1559 0.929 . S
C1587 C1590 1.391 . S
C1587 C1592 1.391 . S
C1588 H1560 0.929 . S
C1588 C1589 1.390 . S
C1588 N1591 1.391 . S
C1589 H1561 0.930 . S
C1589 C1588 1.390 . S
C1589 C1590 1.392 . S
C1590 H1562 0.929 . S
C1590 C1587 1.391 . S
C1590 C1589 1.392 . S
N1591 Co1535 2.257 . S
N1591 C1588 1.391 . S
N1591 C1592 1.388 . S
C1592 H1563 0.930 . S
C1592 C1587 1.391 . S
C1592 N1591 1.388 . S
Co1593 O1595 2.143 . S
Co1593 O1601 2.074 . S
Co1593 O1604 2.093 . S
Co1593 O1617 2.097 . S
Co1593 N1634 2.151 . S
Co1593 N1642 2.214 . S
Co1594 O1595 2.160 . S
Co1594 O1600 2.058 . S
Co1594 O1610 2.057 . S
Co1594 O1625 2.037 . S
Co1594 N1629 2.145 . S
Co1594 N1650 2.257 . S
O1595 Co1593 2.143 . S
O1595 Co1594 2.160 . S
C1596 O1597 1.278 . S
C1596 O1604 1.224 . S
O1597 C1596 1.278 . S
C1598 O1599 1.245 . S
C1598 O1610 1.232 . S
O1599 C1598 1.245 . S
O1600 Co1594 2.058 . S
O1600 C1626 1.269 . S
O1601 Co1593 2.074 . S
O1601 C1626 1.257 . S
H1602 C1627 0.930 . S
H1603 C1633 0.930 . S
O1604 Co1593 2.093 . S
O1604 C1596 1.224 . S
H1605 C1637 0.929 . S
H1606 C1639 0.930 . S
H1607 C1640 0.930 . S
H1608 C1638 0.929 . S
H1609 C1641 0.928 . S
O1610 Co1594 2.057 . S
O1610 C1598 1.232 . S
H1611 C1630 0.929 . S
H1612 C1631 0.929 . S
H1613 C1643 0.931 . S
H1614 C1635 0.929 . S
H1615 C1644 0.930 . S
H1616 C1636 0.931 . S
O1617 Co1593 2.097 . S
O1617 C1645 1.214 . S
H1618 C1646 0.929 . S
H1619 C1647 0.929 . S
H1620 C1648 0.930 . S
H1621 C1649 0.929 . S
H1622 C1651 0.930 . S
H1623 C1628 0.930 . S
H1624 C1632 0.930 . S
O1625 Co1594 2.037 . S
O1625 C1645 1.234 . S
C1626 O1600 1.269 . S
C1626 O1601 1.257 . S
C1627 H1602 0.930 . S
C1627 C1630 1.388 . S
C1627 C1632 1.418 . S
C1628 H1623 0.930 . S
C1628 C1631 1.404 . S
C1628 C1632 1.353 . S
N1629 Co1594 2.145 . S
N1629 C1630 1.397 . S
N1629 C1631 1.334 . S
C1630 H1611 0.929 . S
C1630 C1627 1.388 . S
C1630 N1629 1.397 . S
C1631 H1612 0.929 . S
C1631 C1628 1.404 . S
C1631 N1629 1.334 . S
C1632 H1624 0.930 . S
C1632 C1627 1.418 . S
C1632 C1628 1.353 . S
C1633 H1603 0.930 . S
C1633 N1634 1.330 . S
C1633 C1635 1.446 1_655 S
N1634 Co1593 2.151 . S
N1634 C1633 1.330 . S
N1634 C1638 1.418 1_655 S
C1635 H1614 0.929 . S
C1635 C1633 1.446 1_455 S
C1635 C1636 1.332 . S
C1636 H1616 0.931 . S
C1636 C1635 1.332 . S
C1636 C1637 1.267 . S
C1637 H1605 0.929 . S
C1637 C1636 1.267 . S
C1637 C1638 1.251 . S
C1638 H1608 0.929 . S
C1638 N1634 1.418 1_455 S
C1638 C1637 1.251 . S
C1639 H1606 0.930 . S
C1639 C1641 1.406 . S
C1639 C1644 1.261 . S
C1640 H1607 0.930 . S
C1640 N1642 1.325 . S
C1640 C1643 1.357 . S
C1641 H1609 0.928 . S
C1641 C1639 1.406 . S
C1641 N1642 1.261 . S
N1642 Co1593 2.214 . S
N1642 C1640 1.325 . S
N1642 C1641 1.261 . S
C1643 H1613 0.931 . S
C1643 C1640 1.357 . S
C1643 C1644 1.312 . S
C1644 H1615 0.930 . S
C1644 C1639 1.261 . S
C1644 C1643 1.312 . S
C1645 O1617 1.214 . S
C1645 O1625 1.234 . S
C1646 H1618 0.929 . S
C1646 C1649 1.391 . S
C1646 C1651 1.391 . S
C1647 H1619 0.929 . S
C1647 C1648 1.390 . S
C1647 N1650 1.391 . S
C1648 H1620 0.930 . S
C1648 C1647 1.390 . S
C1648 C1649 1.392 . S
C1649 H1621 0.929 . S
C1649 C1646 1.391 . S
C1649 C1648 1.392 . S
N1650 Co1594 2.257 . S
N1650 C1647 1.391 . S
N1650 C1651 1.388 . S
C1651 H1622 0.930 . S
C1651 C1646 1.391 . S
C1651 N1650 1.388 . S
Co1652 O1654 2.143 . S
Co1652 O1660 2.074 . S
Co1652 O1663 2.093 . S
Co1652 O1676 2.097 . S
Co1652 N1693 2.151 . S
Co1652 N1701 2.214 . S
Co1653 O1654 2.160 . S
Co1653 O1659 2.058 . S
Co1653 O1669 2.057 . S
Co1653 O1684 2.037 . S
Co1653 N1688 2.145 . S
Co1653 N1709 2.257 . S
O1654 Co1652 2.143 . S
O1654 Co1653 2.160 . S
C1655 O1656 1.278 . S
C1655 O1663 1.224 . S
O1656 C1655 1.278 . S
C1657 O1658 1.245 . S
C1657 O1669 1.232 . S
O1658 C1657 1.245 . S
O1659 Co1653 2.058 . S
O1659 C1685 1.269 . S
O1660 Co1652 2.074 . S
O1660 C1685 1.257 . S
H1661 C1686 0.930 . S
H1662 C1692 0.930 . S
O1663 Co1652 2.093 . S
O1663 C1655 1.224 . S
H1664 C1696 0.929 . S
H1665 C1698 0.930 . S
H1666 C1699 0.930 . S
H1667 C1697 0.929 . S
H1668 C1700 0.928 . S
O1669 Co1653 2.057 . S
O1669 C1657 1.232 . S
H1670 C1689 0.929 . S
H1671 C1690 0.929 . S
H1672 C1702 0.931 . S
H1673 C1694 0.929 . S
H1674 C1703 0.930 . S
H1675 C1695 0.931 . S
O1676 Co1652 2.097 . S
O1676 C1704 1.214 . S
H1677 C1705 0.929 . S
H1678 C1706 0.929 . S
H1679 C1707 0.930 . S
H1680 C1708 0.929 . S
H1681 C1710 0.930 . S
H1682 C1687 0.930 . S
H1683 C1691 0.930 . S
O1684 Co1653 2.037 . S
O1684 C1704 1.234 . S
C1685 O1659 1.269 . S
C1685 O1660 1.257 . S
C1686 H1661 0.930 . S
C1686 C1689 1.388 . S
C1686 C1691 1.418 . S
C1687 H1682 0.930 . S
C1687 C1690 1.404 . S
C1687 C1691 1.353 . S
N1688 Co1653 2.145 . S
N1688 C1689 1.397 . S
N1688 C1690 1.334 . S
C1689 H1670 0.929 . S
C1689 C1686 1.388 . S
C1689 N1688 1.397 . S
C1690 H1671 0.929 . S
C1690 C1687 1.404 . S
C1690 N1688 1.334 . S
C1691 H1683 0.930 . S
C1691 C1686 1.418 . S
C1691 C1687 1.353 . S
C1692 H1662 0.930 . S
C1692 N1693 1.330 . S
C1692 C1694 1.446 . S
N1693 Co1652 2.151 . S
N1693 C1692 1.330 . S
N1693 C1697 1.418 . S
C1694 H1673 0.929 . S
C1694 C1692 1.446 . S
C1694 C1695 1.332 . S
C1695 H1675 0.931 . S
C1695 C1694 1.332 . S
C1695 C1696 1.267 . S
C1696 H1664 0.929 . S
C1696 C1695 1.267 . S
C1696 C1697 1.251 . S
C1697 H1667 0.929 . S
C1697 N1693 1.418 . S
C1697 C1696 1.251 . S
C1698 H1665 0.930 . S
C1698 C1700 1.406 . S
C1698 C1703 1.261 . S
C1699 H1666 0.930 . S
C1699 N1701 1.325 . S
C1699 C1702 1.357 . S
C1700 H1668 0.928 . S
C1700 C1698 1.406 . S
C1700 N1701 1.261 . S
N1701 Co1652 2.214 . S
N1701 C1699 1.325 . S
N1701 C1700 1.261 . S
C1702 H1672 0.931 . S
C1702 C1699 1.357 . S
C1702 C1703 1.312 . S
C1703 H1674 0.930 . S
C1703 C1698 1.261 . S
C1703 C1702 1.312 . S
C1704 O1676 1.214 . S
C1704 O1684 1.234 . S
C1705 H1677 0.929 . S
C1705 C1708 1.391 . S
C1705 C1710 1.391 . S
C1706 H1678 0.929 . S
C1706 C1707 1.390 . S
C1706 N1709 1.391 . S
C1707 H1679 0.930 . S
C1707 C1706 1.390 . S
C1707 C1708 1.392 . S
C1708 H1680 0.929 . S
C1708 C1705 1.391 . S
C1708 C1707 1.392 . S
N1709 Co1653 2.257 . S
N1709 C1706 1.391 . S
N1709 C1710 1.388 . S
C1710 H1681 0.930 . S
C1710 C1705 1.391 . S
C1710 N1709 1.388 . S
Co1711 O1713 2.143 . S
Co1711 O1719 2.074 . S
Co1711 O1722 2.093 1_554 S
Co1711 O1735 2.097 . S
Co1711 N1752 2.151 1_554 S
Co1711 N1760 2.214 . S
Co1712 O1713 2.160 . S
Co1712 O1718 2.058 . S
Co1712 O1728 2.057 . S
Co1712 O1743 2.037 . S
Co1712 N1747 2.145 . S
Co1712 N1768 2.257 . S
O1713 Co1711 2.143 . S
O1713 Co1712 2.160 . S
C1714 O1715 1.278 . S
C1714 O1722 1.224 . S
O1715 C1714 1.278 . S
C1716 O1717 1.245 . S
C1716 O1728 1.232 . S
O1717 C1716 1.245 . S
O1718 Co1712 2.058 . S
O1718 C1744 1.269 . S
O1719 Co1711 2.074 . S
O1719 C1744 1.257 . S
H1720 C1745 0.930 . S
H1721 C1751 0.930 . S
O1722 Co1711 2.093 1_556 S
O1722 C1714 1.224 . S
H1723 C1755 0.929 . S
H1724 C1757 0.930 . S
H1725 C1758 0.930 . S
H1726 C1756 0.929 1_554 S
H1727 C1759 0.928 . S
O1728 Co1712 2.057 . S
O1728 C1716 1.232 . S
H1729 C1748 0.929 . S
H1730 C1749 0.929 . S
H1731 C1761 0.931 . S
H1732 C1753 0.929 . S
H1733 C1762 0.930 . S
H1734 C1754 0.931 . S
O1735 Co1711 2.097 . S
O1735 C1763 1.214 . S
H1736 C1764 0.929 1_556 S
H1737 C1765 0.929 . S
H1738 C1766 0.930 . S
H1739 C1767 0.929 . S
H1740 C1769 0.930 . S
H1741 C1746 0.930 . S
H1742 C1750 0.930 . S
O1743 Co1712 2.037 . S
O1743 C1763 1.234 . S
C1744 O1718 1.269 . S
C1744 O1719 1.257 . S
C1745 H1720 0.930 . S
C1745 C1748 1.388 . S
C1745 C1750 1.418 . S
C1746 H1741 0.930 . S
C1746 C1749 1.404 . S
C1746 C1750 1.353 . S
N1747 Co1712 2.145 . S
N1747 C1748 1.397 . S
N1747 C1749 1.334 . S
C1748 H1729 0.929 . S
C1748 C1745 1.388 . S
C1748 N1747 1.397 . S
C1749 H1730 0.929 . S
C1749 C1746 1.404 . S
C1749 N1747 1.334 . S
C1750 H1742 0.930 . S
C1750 C1745 1.418 . S
C1750 C1746 1.353 . S
C1751 H1721 0.930 . S
C1751 N1752 1.330 . S
C1751 C1753 1.446 1_655 S
N1752 Co1711 2.151 1_556 S
N1752 C1751 1.330 . S
N1752 C1756 1.418 1_655 S
C1753 H1732 0.929 . S
C1753 C1751 1.446 1_455 S
C1753 C1754 1.332 . S
C1754 H1734 0.931 . S
C1754 C1753 1.332 . S
C1754 C1755 1.267 . S
C1755 H1723 0.929 . S
C1755 C1754 1.267 . S
C1755 C1756 1.251 . S
C1756 H1726 0.929 1_556 S
C1756 N1752 1.418 1_455 S
C1756 C1755 1.251 . S
C1757 H1724 0.930 . S
C1757 C1759 1.406 . S
C1757 C1762 1.261 1_556 S
C1758 H1725 0.930 . S
C1758 N1760 1.325 . S
C1758 C1761 1.357 . S
C1759 H1727 0.928 . S
C1759 C1757 1.406 . S
C1759 N1760 1.261 1_556 S
N1760 Co1711 2.214 . S
N1760 C1758 1.325 . S
N1760 C1759 1.261 1_554 S
C1761 H1731 0.931 . S
C1761 C1758 1.357 . S
C1761 C1762 1.312 . S
C1762 H1733 0.930 . S
C1762 C1757 1.261 1_554 S
C1762 C1761 1.312 . S
C1763 O1735 1.214 . S
C1763 O1743 1.234 . S
C1764 H1736 0.929 1_554 S
C1764 C1767 1.391 . S
C1764 C1769 1.391 . S
C1765 H1737 0.929 . S
C1765 C1766 1.390 . S
C1765 N1768 1.391 . S
C1766 H1738 0.930 . S
C1766 C1765 1.390 . S
C1766 C1767 1.392 . S
C1767 H1739 0.929 . S
C1767 C1764 1.391 . S
C1767 C1766 1.392 . S
N1768 Co1712 2.257 . S
N1768 C1765 1.391 . S
N1768 C1769 1.388 . S
C1769 H1740 0.930 . S
C1769 C1764 1.391 . S
C1769 N1768 1.388 . S
Co1770 O1772 2.143 . S
Co1770 O1778 2.074 . S
Co1770 O1781 2.093 . S
Co1770 O1794 2.097 . S
Co1770 N1811 2.151 . S
Co1770 N1819 2.214 . S
Co1771 O1772 2.160 . S
Co1771 O1777 2.058 . S
Co1771 O1787 2.057 . S
Co1771 O1802 2.037 . S
Co1771 N1806 2.145 . S
Co1771 N1827 2.257 . S
O1772 Co1770 2.143 . S
O1772 Co1771 2.160 . S
C1773 O1774 1.278 . S
C1773 O1781 1.224 . S
O1774 C1773 1.278 . S
C1775 O1776 1.245 . S
C1775 O1787 1.232 . S
O1776 C1775 1.245 . S
O1777 Co1771 2.058 . S
O1777 C1803 1.269 . S
O1778 Co1770 2.074 . S
O1778 C1803 1.257 . S
H1779 C1804 0.930 . S
H1780 C1810 0.930 . S
O1781 Co1770 2.093 . S
O1781 C1773 1.224 . S
H1782 C1814 0.929 . S
H1783 C1816 0.930 1_655 S
H1784 C1817 0.930 . S
H1785 C1815 0.929 . S
H1786 C1818 0.928 . S
O1787 Co1771 2.057 . S
O1787 C1775 1.232 . S
H1788 C1807 0.929 . S
H1789 C1808 0.929 . S
H1790 C1820 0.936 . S
H1791 C1812 0.929 . S
H1792 C1821 0.930 . S
H1793 C1813 0.931 . S
O1794 Co1770 2.097 . S
O1794 C1822 1.214 . S
H1795 C1823 0.929 . S
H1796 C1824 0.929 . S
H1797 C1825 0.930 . S
H1798 C1826 0.929 . S
H1799 C1828 0.930 . S
H1800 C1805 0.930 . S
H1801 C1809 0.930 . S
O1802 Co1771 2.037 . S
O1802 C1822 1.234 . S
C1803 O1777 1.269 . S
C1803 O1778 1.257 . S
C1804 H1779 0.930 . S
C1804 C1807 1.388 . S
C1804 C1809 1.418 . S
C1805 H1800 0.930 . S
C1805 C1808 1.404 . S
C1805 C1809 1.353 . S
N1806 Co1771 2.145 . S
N1806 C1807 1.397 . S
N1806 C1808 1.334 . S
C1807 H1788 0.929 . S
C1807 C1804 1.388 . S
C1807 N1806 1.397 . S
C1808 H1789 0.929 . S
C1808 C1805 1.404 . S
C1808 N1806 1.334 . S
C1809 H1801 0.930 . S
C1809 C1804 1.418 . S
C1809 C1805 1.353 . S
C1810 H1780 0.930 . S
C1810 N1811 1.330 . S
C1810 C1812 1.446 . S
N1811 Co1770 2.151 . S
N1811 C1810 1.330 . S
N1811 C1815 1.418 . S
C1812 H1791 0.929 . S
C1812 C1810 1.446 . S
C1812 C1813 1.332 . S
C1813 H1793 0.931 . S
C1813 C1812 1.332 . S
C1813 C1814 1.267 . S
C1814 H1782 0.929 . S
C1814 C1813 1.267 . S
C1814 C1815 1.251 . S
C1815 H1785 0.929 . S
C1815 N1811 1.418 . S
C1815 C1814 1.251 . S
C1816 H1783 0.930 1_455 S
C1816 C1818 1.406 . S
C1816 C1821 1.261 1_455 S
C1817 H1784 0.930 . S
C1817 N1819 1.325 . S
C1817 C1820 1.357 . S
C1818 H1786 0.928 . S
C1818 C1816 1.406 . S
C1818 N1819 1.261 . S
N1819 Co1770 2.214 . S
N1819 C1817 1.325 . S
N1819 C1818 1.261 . S
C1820 H1790 0.936 . S
C1820 C1817 1.357 . S
C1820 C1821 1.312 1_455 S
C1821 H1792 0.930 . S
C1821 C1816 1.261 1_655 S
C1821 C1820 1.312 1_655 S
C1822 O1794 1.214 . S
C1822 O1802 1.234 . S
C1823 H1795 0.929 . S
C1823 C1826 1.391 . S
C1823 C1828 1.391 . S
C1824 H1796 0.929 . S
C1824 C1825 1.390 . S
C1824 N1827 1.391 . S
C1825 H1797 0.930 . S
C1825 C1824 1.390 . S
C1825 C1826 1.392 . S
C1826 H1798 0.929 . S
C1826 C1823 1.391 . S
C1826 C1825 1.392 . S
N1827 Co1771 2.257 . S
N1827 C1824 1.391 . S
N1827 C1828 1.388 . S
C1828 H1799 0.930 . S
C1828 C1823 1.391 . S
C1828 N1827 1.388 . S
Co1829 O1831 2.143 . S
Co1829 O1837 2.074 . S
Co1829 O1840 2.093 . S
Co1829 O1853 2.097 . S
Co1829 N1870 2.151 . S
Co1829 N1878 2.214 . S
Co1830 O1831 2.160 . S
Co1830 O1836 2.058 . S
Co1830 O1846 2.057 . S
Co1830 O1861 2.037 . S
Co1830 N1865 2.145 . S
Co1830 N1886 2.257 . S
O1831 Co1829 2.143 . S
O1831 Co1830 2.160 . S
C1832 O1833 1.278 . S
C1832 O1840 1.224 . S
O1833 C1832 1.278 . S
C1834 O1835 1.245 . S
C1834 O1846 1.232 . S
O1835 C1834 1.245 . S
O1836 Co1830 2.058 . S
O1836 C1862 1.269 . S
O1837 Co1829 2.074 . S
O1837 C1862 1.257 . S
H1838 C1863 0.930 . S
H1839 C1869 0.930 . S
O1840 Co1829 2.093 . S
O1840 C1832 1.224 . S
H1841 C1873 0.929 . S
H1842 C1875 0.930 . S
H1843 C1876 0.930 . S
H1844 C1874 0.929 . S
H1845 C1877 0.928 . S
O1846 Co1830 2.057 . S
O1846 C1834 1.232 . S
H1847 C1866 0.929 . S
H1848 C1867 0.929 . S
H1849 C1879 0.931 . S
H1850 C1871 0.929 . S
H1851 C1880 0.930 . S
H1852 C1872 0.931 . S
O1853 Co1829 2.097 . S
O1853 C1881 1.214 . S
H1854 C1882 0.929 . S
H1855 C1883 0.929 . S
H1856 C1884 0.930 . S
H1857 C1885 0.929 . S
H1858 C1887 0.930 . S
H1859 C1864 0.930 . S
H1860 C1868 0.930 . S
O1861 Co1830 2.037 . S
O1861 C1881 1.234 . S
C1862 O1836 1.269 . S
C1862 O1837 1.257 . S
C1863 H1838 0.930 . S
C1863 C1866 1.388 . S
C1863 C1868 1.418 . S
C1864 H1859 0.930 . S
C1864 C1867 1.404 . S
C1864 C1868 1.353 . S
N1865 Co1830 2.145 . S
N1865 C1866 1.397 . S
N1865 C1867 1.334 . S
C1866 H1847 0.929 . S
C1866 C1863 1.388 . S
C1866 N1865 1.397 . S
C1867 H1848 0.929 . S
C1867 C1864 1.404 . S
C1867 N1865 1.334 . S
C1868 H1860 0.930 . S
C1868 C1863 1.418 . S
C1868 C1864 1.353 . S
C1869 H1839 0.930 . S
C1869 N1870 1.330 . S
C1869 C1871 1.446 . S
N1870 Co1829 2.151 . S
N1870 C1869 1.330 . S
N1870 C1874 1.418 . S
C1871 H1850 0.929 . S
C1871 C1869 1.446 . S
C1871 C1872 1.332 . S
C1872 H1852 0.931 . S
C1872 C1871 1.332 . S
C1872 C1873 1.267 . S
C1873 H1841 0.929 . S
C1873 C1872 1.267 . S
C1873 C1874 1.251 . S
C1874 H1844 0.929 . S
C1874 N1870 1.418 . S
C1874 C1873 1.251 . S
C1875 H1842 0.930 . S
C1875 C1877 1.406 . S
C1875 C1880 1.261 . S
C1876 H1843 0.930 . S
C1876 N1878 1.325 . S
C1876 C1879 1.357 . S
C1877 H1845 0.928 . S
C1877 C1875 1.406 . S
C1877 N1878 1.261 . S
N1878 Co1829 2.214 . S
N1878 C1876 1.325 . S
N1878 C1877 1.261 . S
C1879 H1849 0.931 . S
C1879 C1876 1.357 . S
C1879 C1880 1.312 . S
C1880 H1851 0.930 . S
C1880 C1875 1.261 . S
C1880 C1879 1.312 . S
C1881 O1853 1.214 . S
C1881 O1861 1.234 . S
C1882 H1854 0.929 . S
C1882 C1885 1.391 . S
C1882 C1887 1.391 . S
C1883 H1855 0.929 . S
C1883 C1884 1.390 . S
C1883 N1886 1.391 . S
C1884 H1856 0.930 . S
C1884 C1883 1.390 . S
C1884 C1885 1.392 . S
C1885 H1857 0.929 . S
C1885 C1882 1.391 . S
C1885 C1884 1.392 . S
N1886 Co1830 2.257 . S
N1886 C1883 1.391 . S
N1886 C1887 1.388 . S
C1887 H1858 0.930 . S
C1887 C1882 1.391 . S
C1887 N1886 1.388 . S
C1888 C1889 1.369 . S
C1888 C1890 1.419 . S
C1888 H1892 0.930 . S
C1889 C1888 1.369 . S
C1889 C1898 1.429 . S
C1890 C1888 1.419 . S
C1890 C1891 1.363 . S
C1890 H1893 0.929 . S
C1891 C1890 1.363 . S
C1891 C1897 1.428 . S
H1892 C1888 0.930 . S
H1893 C1890 0.929 . S
S1894 N1895 1.613 . S
S1894 N1896 1.610 . S
N1895 S1894 1.613 . S
N1895 C1898 1.350 . S
N1896 S1894 1.610 . S
N1896 C1897 1.351 . S
C1897 C1891 1.428 . S
C1897 N1896 1.351 . S
C1897 C1898 1.434 . S
C1898 C1889 1.429 . S
C1898 N1895 1.350 . S
C1898 C1897 1.434 . S
C1899 C1900 1.369 . S
C1899 C1901 1.419 . S
C1899 H1903 0.930 . S
C1900 C1899 1.369 . S
C1900 C1909 1.429 . S
C1901 C1899 1.419 . S
C1901 C1902 1.363 . S
C1901 H1904 0.929 . S
C1902 C1901 1.363 . S
C1902 C1908 1.428 . S
H1903 C1899 0.930 . S
H1904 C1901 0.929 . S
S1905 N1906 1.613 . S
S1905 N1907 1.610 . S
N1906 S1905 1.613 . S
N1906 C1909 1.350 . S
N1907 S1905 1.610 . S
N1907 C1908 1.351 . S
C1908 C1902 1.428 . S
C1908 N1907 1.351 . S
C1908 C1909 1.434 . S
C1909 C1900 1.429 . S
C1909 N1906 1.350 . S
C1909 C1908 1.434 . S
C1910 C1911 1.369 . S
C1910 C1912 1.419 . S
C1910 H1914 0.930 . S
C1911 C1910 1.369 . S
C1911 C1920 1.429 . S
C1912 C1910 1.419 . S
C1912 C1913 1.363 . S
C1912 H1915 0.929 . S
C1913 C1912 1.363 . S
C1913 C1919 1.428 . S
H1914 C1910 0.930 . S
H1915 C1912 0.929 . S
S1916 N1917 1.613 . S
S1916 N1918 1.610 . S
N1917 S1916 1.613 . S
N1917 C1920 1.350 . S
N1918 S1916 1.610 . S
N1918 C1919 1.351 . S
C1919 C1913 1.428 . S
C1919 N1918 1.351 . S
C1919 C1920 1.434 . S
C1920 C1911 1.429 . S
C1920 N1917 1.350 . S
C1920 C1919 1.434 . S
C1921 C1922 1.369 . S
C1921 C1923 1.419 . S
C1921 H1925 0.930 . S
C1922 C1921 1.369 . S
C1922 C1931 1.429 . S
C1923 C1921 1.419 . S
C1923 C1924 1.363 . S
C1923 H1926 0.929 . S
C1924 C1923 1.363 . S
C1924 C1930 1.428 . S
H1925 C1921 0.930 . S
H1926 C1923 0.929 . S
S1927 N1928 1.613 . S
S1927 N1929 1.610 . S
N1928 S1927 1.613 . S
N1928 C1931 1.350 . S
N1929 S1927 1.610 . S
N1929 C1930 1.351 . S
C1930 C1924 1.428 . S
C1930 N1929 1.351 . S
C1930 C1931 1.434 . S
C1931 C1922 1.429 . S
C1931 N1928 1.350 . S
C1931 C1930 1.434 . S
C1932 C1933 1.369 . S
C1932 C1934 1.419 . S
C1932 H1936 0.930 . S
C1933 C1932 1.369 . S
C1933 C1942 1.429 . S
C1934 C1932 1.419 . S
C1934 C1935 1.363 . S
C1934 H1937 0.929 . S
C1935 C1934 1.363 . S
C1935 C1941 1.428 . S
H1936 C1932 0.930 . S
H1937 C1934 0.929 . S
S1938 N1939 1.613 . S
S1938 N1940 1.610 . S
N1939 S1938 1.613 . S
N1939 C1942 1.350 . S
N1940 S1938 1.610 . S
N1940 C1941 1.351 . S
C1941 C1935 1.428 . S
C1941 N1940 1.351 . S
C1941 C1942 1.434 . S
C1942 C1933 1.429 . S
C1942 N1939 1.350 . S
C1942 C1941 1.434 . S
C1943 C1944 1.369 . S
C1943 C1945 1.419 . S
C1943 H1947 0.930 . S
C1944 C1943 1.369 . S
C1944 C1953 1.429 . S
C1945 C1943 1.419 . S
C1945 C1946 1.363 . S
C1945 H1948 0.929 . S
C1946 C1945 1.363 . S
C1946 C1952 1.428 . S
H1947 C1943 0.930 . S
H1948 C1945 0.929 . S
S1949 N1950 1.613 . S
S1949 N1951 1.610 . S
N1950 S1949 1.613 . S
N1950 C1953 1.350 . S
N1951 S1949 1.610 . S
N1951 C1952 1.351 . S
C1952 C1946 1.428 . S
C1952 N1951 1.351 . S
C1952 C1953 1.434 . S
C1953 C1944 1.429 . S
C1953 N1950 1.350 . S
C1953 C1952 1.434 . S
C1954 C1955 1.369 . S
C1954 C1956 1.419 . S
C1954 H1958 0.930 . S
C1955 C1954 1.369 . S
C1955 C1964 1.429 . S
C1956 C1954 1.419 . S
C1956 C1957 1.363 . S
C1956 H1959 0.929 . S
C1957 C1956 1.363 . S
C1957 C1963 1.428 . S
H1958 C1954 0.930 . S
H1959 C1956 0.929 . S
S1960 N1961 1.613 . S
S1960 N1962 1.610 . S
N1961 S1960 1.613 . S
N1961 C1964 1.350 . S
N1962 S1960 1.610 . S
N1962 C1963 1.351 . S
C1963 C1957 1.428 . S
C1963 N1962 1.351 . S
C1963 C1964 1.434 . S
C1964 C1955 1.429 . S
C1964 N1961 1.350 . S
C1964 C1963 1.434 . S
C1965 C1966 1.369 . S
C1965 C1967 1.419 . S
C1965 H1969 0.930 . S
C1966 C1965 1.369 . S
C1966 C1975 1.429 . S
C1967 C1965 1.419 . S
C1967 C1968 1.363 . S
C1967 H1970 0.929 . S
C1968 C1967 1.363 . S
C1968 C1974 1.428 . S
H1969 C1965 0.930 . S
H1970 C1967 0.929 . S
S1971 N1972 1.613 . S
S1971 N1973 1.610 1_455 S
N1972 S1971 1.613 . S
N1972 C1975 1.350 . S
N1973 S1971 1.610 1_655 S
N1973 C1974 1.351 1_655 S
C1974 C1968 1.428 . S
C1974 N1973 1.351 1_455 S
C1974 C1975 1.434 . S
C1975 C1966 1.429 . S
C1975 N1972 1.350 . S
C1975 C1974 1.434 . S
C1976 C1977 1.369 . S
C1976 C1978 1.419 . S
C1976 H1980 0.930 . S
C1977 C1976 1.369 . S
C1977 C1986 1.429 . S
C1978 C1976 1.419 . S
C1978 C1979 1.363 . S
C1978 H1981 0.929 . S
C1979 C1978 1.363 . S
C1979 C1985 1.428 . S
H1980 C1976 0.930 . S
H1981 C1978 0.929 . S
S1982 N1983 1.613 . S
S1982 N1984 1.610 . S
N1983 S1982 1.613 . S
N1983 C1986 1.350 . S
N1984 S1982 1.610 . S
N1984 C1985 1.351 . S
C1985 C1979 1.428 . S
C1985 N1984 1.351 . S
C1985 C1986 1.434 . S
C1986 C1977 1.429 . S
C1986 N1983 1.350 . S
C1986 C1985 1.434 . S
C1987 C1988 1.369 . S
C1987 C1989 1.419 . S
C1987 H1991 0.930 . S
C1988 C1987 1.369 . S
C1988 C1997 1.429 . S
C1989 C1987 1.419 . S
C1989 C1990 1.363 . S
C1989 H1992 0.929 . S
C1990 C1989 1.363 . S
C1990 C1996 1.428 . S
H1991 C1987 0.930 . S
H1992 C1989 0.929 . S
S1993 N1994 1.613 . S
S1993 N1995 1.610 . S
N1994 S1993 1.613 . S
N1994 C1997 1.350 . S
N1995 S1993 1.610 . S
N1995 C1996 1.351 . S
C1996 C1990 1.428 . S
C1996 N1995 1.351 . S
C1996 C1997 1.434 . S
C1997 C1988 1.429 . S
C1997 N1994 1.350 . S
C1997 C1996 1.434 . S
C1998 C1999 1.369 . S
C1998 C2000 1.419 . S
C1998 H2002 0.930 . S
C1999 C1998 1.369 . S
C1999 C2008 1.429 . S
C2000 C1998 1.419 . S
C2000 C2001 1.363 . S
C2000 H2003 0.929 . S
C2001 C2000 1.363 . S
C2001 C2007 1.428 . S
H2002 C1998 0.930 . S
H2003 C2000 0.929 . S
S2004 N2005 1.613 . S
S2004 N2006 1.610 . S
N2005 S2004 1.613 . S
N2005 C2008 1.350 . S
N2006 S2004 1.610 . S
N2006 C2007 1.351 . S
C2007 C2001 1.428 . S
C2007 N2006 1.351 . S
C2007 C2008 1.434 . S
C2008 C1999 1.429 . S
C2008 N2005 1.350 . S
C2008 C2007 1.434 . S
C2009 C2010 1.369 . S
C2009 C2011 1.419 . S
C2009 H2013 0.930 . S
C2010 C2009 1.369 . S
C2010 C2019 1.429 . S
C2011 C2009 1.419 . S
C2011 C2012 1.363 . S
C2011 H2014 0.929 . S
C2012 C2011 1.363 . S
C2012 C2018 1.428 . S
H2013 C2009 0.930 . S
H2014 C2011 0.929 . S
S2015 N2016 1.613 . S
S2015 N2017 1.610 . S
N2016 S2015 1.613 . S
N2016 C2019 1.350 . S
N2017 S2015 1.610 . S
N2017 C2018 1.351 . S
C2018 C2012 1.428 . S
C2018 N2017 1.351 . S
C2018 C2019 1.434 . S
C2019 C2010 1.429 . S
C2019 N2016 1.350 . S
C2019 C2018 1.434 . S
C2020 C2021 1.369 . S
C2020 C2022 1.419 . S
C2020 H2024 0.930 . S
C2021 C2020 1.369 . S
C2021 C2030 1.429 . S
C2022 C2020 1.419 . S
C2022 C2023 1.363 . S
C2022 H2025 0.929 . S
C2023 C2022 1.363 . S
C2023 C2029 1.428 . S
H2024 C2020 0.930 . S
H2025 C2022 0.929 . S
S2026 N2027 1.613 . S
S2026 N2028 1.610 . S
N2027 S2026 1.613 . S
N2027 C2030 1.350 . S
N2028 S2026 1.610 . S
N2028 C2029 1.351 . S
C2029 C2023 1.428 . S
C2029 N2028 1.351 . S
C2029 C2030 1.434 . S
C2030 C2021 1.429 . S
C2030 N2027 1.350 . S
C2030 C2029 1.434 . S
C2031 C2032 1.369 . S
C2031 C2033 1.419 . S
C2031 H2035 0.930 . S
C2032 C2031 1.369 . S
C2032 C2041 1.429 . S
C2033 C2031 1.419 . S
C2033 C2034 1.363 . S
C2033 H2036 0.929 . S
C2034 C2033 1.363 . S
C2034 C2040 1.428 . S
H2035 C2031 0.930 . S
H2036 C2033 0.929 . S
S2037 N2038 1.613 . S
S2037 N2039 1.610 . S
N2038 S2037 1.613 . S
N2038 C2041 1.350 . S
N2039 S2037 1.610 . S
N2039 C2040 1.351 . S
C2040 C2034 1.428 . S
C2040 N2039 1.351 . S
C2040 C2041 1.434 . S
C2041 C2032 1.429 . S
C2041 N2038 1.350 . S
C2041 C2040 1.434 . S
C2042 C2043 1.369 . S
C2042 C2044 1.419 . S
C2042 H2046 0.930 . S
C2043 C2042 1.369 . S
C2043 C2052 1.429 . S
C2044 C2042 1.419 . S
C2044 C2045 1.363 . S
C2044 H2047 0.929 . S
C2045 C2044 1.363 . S
C2045 C2051 1.428 . S
H2046 C2042 0.930 . S
H2047 C2044 0.929 . S
S2048 N2049 1.613 . S
S2048 N2050 1.610 . S
N2049 S2048 1.613 . S
N2049 C2052 1.350 . S
N2050 S2048 1.610 . S
N2050 C2051 1.351 . S
C2051 C2045 1.428 . S
C2051 N2050 1.351 . S
C2051 C2052 1.434 . S
C2052 C2043 1.429 . S
C2052 N2049 1.350 . S
C2052 C2051 1.434 . S
C2053 C2054 1.369 . S
C2053 C2055 1.419 . S
C2053 H2057 0.930 . S
C2054 C2053 1.369 . S
C2054 C2063 1.429 . S
C2055 C2053 1.419 . S
C2055 C2056 1.363 . S
C2055 H2058 0.929 . S
C2056 C2055 1.363 . S
C2056 C2062 1.428 . S
H2057 C2053 0.930 . S
H2058 C2055 0.929 . S
S2059 N2060 1.613 . S
S2059 N2061 1.610 . S
N2060 S2059 1.613 . S
N2060 C2063 1.350 . S
N2061 S2059 1.610 . S
N2061 C2062 1.351 . S
C2062 C2056 1.428 . S
C2062 N2061 1.351 . S
C2062 C2063 1.434 . S
C2063 C2054 1.429 . S
C2063 N2060 1.350 . S
C2063 C2062 1.434 . S
C2064 C2065 1.369 . S
C2064 C2066 1.419 . S
C2064 H2068 0.930 . S
C2065 C2064 1.369 . S
C2065 C2074 1.429 . S
C2066 C2064 1.419 . S
C2066 C2067 1.363 . S
C2066 H2069 0.929 . S
C2067 C2066 1.363 . S
C2067 C2073 1.428 . S
H2068 C2064 0.930 . S
H2069 C2066 0.929 . S
S2070 N2071 1.613 . S
S2070 N2072 1.610 . S
N2071 S2070 1.613 . S
N2071 C2074 1.350 . S
N2072 S2070 1.610 . S
N2072 C2073 1.351 . S
C2073 C2067 1.428 . S
C2073 N2072 1.351 . S
C2073 C2074 1.434 . S
C2074 C2065 1.429 . S
C2074 N2071 1.350 . S
C2074 C2073 1.434 . S
C2075 C2076 1.369 . S
C2075 C2077 1.419 . S
C2075 H2079 0.930 . S
C2076 C2075 1.369 . S
C2076 C2085 1.429 . S
C2077 C2075 1.419 . S
C2077 C2078 1.363 . S
C2077 H2080 0.929 . S
C2078 C2077 1.363 . S
C2078 C2084 1.428 . S
H2079 C2075 0.930 . S
H2080 C2077 0.929 . S
S2081 N2082 1.613 . S
S2081 N2083 1.610 . S
N2082 S2081 1.613 . S
N2082 C2085 1.350 . S
N2083 S2081 1.610 . S
N2083 C2084 1.351 . S
C2084 C2078 1.428 . S
C2084 N2083 1.351 . S
C2084 C2085 1.434 . S
C2085 C2076 1.429 . S
C2085 N2082 1.350 . S
C2085 C2084 1.434 . S
C2086 C2087 1.369 . S
C2086 C2088 1.419 . S
C2086 H2090 0.930 . S
C2087 C2086 1.369 . S
C2087 C2096 1.429 . S
C2088 C2086 1.419 . S
C2088 C2089 1.363 . S
C2088 H2091 0.929 . S
C2089 C2088 1.363 . S
C2089 C2095 1.428 . S
H2090 C2086 0.930 . S
H2091 C2088 0.929 . S
S2092 N2093 1.613 . S
S2092 N2094 1.610 . S
N2093 S2092 1.613 . S
N2093 C2096 1.350 . S
N2094 S2092 1.610 . S
N2094 C2095 1.351 . S
C2095 C2089 1.428 . S
C2095 N2094 1.351 . S
C2095 C2096 1.434 . S
C2096 C2087 1.429 . S
C2096 N2093 1.350 . S
C2096 C2095 1.434 . S
C2097 C2098 1.369 . S
C2097 C2099 1.419 . S
C2097 H2101 0.930 . S
C2098 C2097 1.369 . S
C2098 C2107 1.429 . S
C2099 C2097 1.419 . S
C2099 C2100 1.363 . S
C2099 H2102 0.929 . S
C2100 C2099 1.363 . S
C2100 C2106 1.428 . S
H2101 C2097 0.930 . S
H2102 C2099 0.929 . S
S2103 N2104 1.613 . S
S2103 N2105 1.610 1_655 S
N2104 S2103 1.613 . S
N2104 C2107 1.350 . S
N2105 S2103 1.610 1_455 S
N2105 C2106 1.351 1_455 S
C2106 C2100 1.428 . S
C2106 N2105 1.351 1_655 S
C2106 C2107 1.434 . S
C2107 C2098 1.429 . S
C2107 N2104 1.350 . S
C2107 C2106 1.434 . S
C2108 C2109 1.369 . S
C2108 C2110 1.419 . S
C2108 H2112 0.930 . S
C2109 C2108 1.369 . S
C2109 C2118 1.429 . S
C2110 C2108 1.419 . S
C2110 C2111 1.363 . S
C2110 H2113 0.929 . S
C2111 C2110 1.363 . S
C2111 C2117 1.428 . S
H2112 C2108 0.930 . S
H2113 C2110 0.929 . S
S2114 N2115 1.613 . S
S2114 N2116 1.610 . S
N2115 S2114 1.613 . S
N2115 C2118 1.350 . S
N2116 S2114 1.610 . S
N2116 C2117 1.351 . S
C2117 C2111 1.428 . S
C2117 N2116 1.351 . S
C2117 C2118 1.434 . S
C2118 C2109 1.429 . S
C2118 N2115 1.350 . S
C2118 C2117 1.434 . S
C2119 C2120 1.369 . S
C2119 C2121 1.419 . S
C2119 H2123 0.930 . S
C2120 C2119 1.369 . S
C2120 C2129 1.429 . S
C2121 C2119 1.419 . S
C2121 C2122 1.363 . S
C2121 H2124 0.929 . S
C2122 C2121 1.363 . S
C2122 C2128 1.428 . S
H2123 C2119 0.930 . S
H2124 C2121 0.929 . S
S2125 N2126 1.613 . S
S2125 N2127 1.610 . S
N2126 S2125 1.613 . S
N2126 C2129 1.350 . S
N2127 S2125 1.610 . S
N2127 C2128 1.351 . S
C2128 C2122 1.428 . S
C2128 N2127 1.351 . S
C2128 C2129 1.434 . S
C2129 C2120 1.429 . S
C2129 N2126 1.350 . S
C2129 C2128 1.434 . S
C2130 C2131 1.369 . S
C2130 C2132 1.419 . S
C2130 H2134 0.930 . S
C2131 C2130 1.369 . S
C2131 C2140 1.429 . S
C2132 C2130 1.419 . S
C2132 C2133 1.363 . S
C2132 H2135 0.929 . S
C2133 C2132 1.363 . S
C2133 C2139 1.428 . S
H2134 C2130 0.930 . S
H2135 C2132 0.929 . S
S2136 N2137 1.613 . S
S2136 N2138 1.610 . S
N2137 S2136 1.613 . S
N2137 C2140 1.350 . S
N2138 S2136 1.610 . S
N2138 C2139 1.351 . S
C2139 C2133 1.428 . S
C2139 N2138 1.351 . S
C2139 C2140 1.434 . S
C2140 C2131 1.429 . S
C2140 N2137 1.350 . S
C2140 C2139 1.434 . S
C2141 C2142 1.369 . S
C2141 C2143 1.419 . S
C2141 H2145 0.930 . S
C2142 C2141 1.369 . S
C2142 C2151 1.429 . S
C2143 C2141 1.419 . S
C2143 C2144 1.363 . S
C2143 H2146 0.929 . S
C2144 C2143 1.363 . S
C2144 C2150 1.428 . S
H2145 C2141 0.930 . S
H2146 C2143 0.929 . S
S2147 N2148 1.613 . S
S2147 N2149 1.610 . S
N2148 S2147 1.613 . S
N2148 C2151 1.350 . S
N2149 S2147 1.610 . S
N2149 C2150 1.351 . S
C2150 C2144 1.428 . S
C2150 N2149 1.351 . S
C2150 C2151 1.434 . S
C2151 C2142 1.429 . S
C2151 N2148 1.350 . S
C2151 C2150 1.434 . S
C2152 C2153 1.369 . S
C2152 C2154 1.419 . S
C2152 H2156 0.930 . S
C2153 C2152 1.369 . S
C2153 C2162 1.429 . S
C2154 C2152 1.419 . S
C2154 C2155 1.363 . S
C2154 H2157 0.929 . S
C2155 C2154 1.363 . S
C2155 C2161 1.428 . S
H2156 C2152 0.930 . S
H2157 C2154 0.929 . S
S2158 N2159 1.613 . S
S2158 N2160 1.610 . S
N2159 S2158 1.613 . S
N2159 C2162 1.350 . S
N2160 S2158 1.610 . S
N2160 C2161 1.351 . S
C2161 C2155 1.428 . S
C2161 N2160 1.351 . S
C2161 C2162 1.434 . S
C2162 C2153 1.429 . S
C2162 N2159 1.350 . S
C2162 C2161 1.434 . S
C2163 C2164 1.369 . S
C2163 C2165 1.419 . S
C2163 H2167 0.930 . S
C2164 C2163 1.369 . S
C2164 C2173 1.429 . S
C2165 C2163 1.419 . S
C2165 C2166 1.363 . S
C2165 H2168 0.929 . S
C2166 C2165 1.363 . S
C2166 C2172 1.428 . S
H2167 C2163 0.930 . S
H2168 C2165 0.929 . S
S2169 N2170 1.613 . S
S2169 N2171 1.610 . S
N2170 S2169 1.613 . S
N2170 C2173 1.350 . S
N2171 S2169 1.610 . S
N2171 C2172 1.351 . S
C2172 C2166 1.428 . S
C2172 N2171 1.351 . S
C2172 C2173 1.434 . S
C2173 C2164 1.429 . S
C2173 N2170 1.350 . S
C2173 C2172 1.434 . S
C2174 C2175 1.369 . S
C2174 C2176 1.419 . S
C2174 H2178 0.930 . S
C2175 C2174 1.369 . S
C2175 C2184 1.429 . S
C2176 C2174 1.419 . S
C2176 C2177 1.363 . S
C2176 H2179 0.929 . S
C2177 C2176 1.363 . S
C2177 C2183 1.428 . S
H2178 C2174 0.930 . S
H2179 C2176 0.929 . S
S2180 N2181 1.613 . S
S2180 N2182 1.610 . S
N2181 S2180 1.613 . S
N2181 C2184 1.350 . S
N2182 S2180 1.610 . S
N2182 C2183 1.351 . S
C2183 C2177 1.428 . S
C2183 N2182 1.351 . S
C2183 C2184 1.434 . S
C2184 C2175 1.429 . S
C2184 N2181 1.350 . S
C2184 C2183 1.434 . S
C2185 C2186 1.369 . S
C2185 C2187 1.419 . S
C2185 H2189 0.930 . S
C2186 C2185 1.369 . S
C2186 C2195 1.429 . S
C2187 C2185 1.419 . S
C2187 C2188 1.363 . S
C2187 H2190 0.929 . S
C2188 C2187 1.363 . S
C2188 C2194 1.428 . S
H2189 C2185 0.930 . S
H2190 C2187 0.929 . S
S2191 N2192 1.613 . S
S2191 N2193 1.610 . S
N2192 S2191 1.613 . S
N2192 C2195 1.350 . S
N2193 S2191 1.610 . S
N2193 C2194 1.351 . S
C2194 C2188 1.428 . S
C2194 N2193 1.351 . S
C2194 C2195 1.434 . S
C2195 C2186 1.429 . S
C2195 N2192 1.350 . S
C2195 C2194 1.434 . S
C2196 C2197 1.369 . S
C2196 C2198 1.419 . S
C2196 H2200 0.930 . S
C2197 C2196 1.369 . S
C2197 C2206 1.429 . S
C2198 C2196 1.419 . S
C2198 C2199 1.363 . S
C2198 H2201 0.929 . S
C2199 C2198 1.363 . S
C2199 C2205 1.428 . S
H2200 C2196 0.930 . S
H2201 C2198 0.929 . S
S2202 N2203 1.613 . S
S2202 N2204 1.610 . S
N2203 S2202 1.613 . S
N2203 C2206 1.350 . S
N2204 S2202 1.610 . S
N2204 C2205 1.351 . S
C2205 C2199 1.428 . S
C2205 N2204 1.351 . S
C2205 C2206 1.434 . S
C2206 C2197 1.429 . S
C2206 N2203 1.350 . S
C2206 C2205 1.434 . S
C2207 C2208 1.369 . S
C2207 C2209 1.419 . S
C2207 H2211 0.930 . S
C2208 C2207 1.369 . S
C2208 C2217 1.429 . S
C2209 C2207 1.419 . S
C2209 C2210 1.363 . S
C2209 H2212 0.929 . S
C2210 C2209 1.363 . S
C2210 C2216 1.428 . S
H2211 C2207 0.930 . S
H2212 C2209 0.929 . S
S2213 N2214 1.613 . S
S2213 N2215 1.610 . S
N2214 S2213 1.613 . S
N2214 C2217 1.350 . S
N2215 S2213 1.610 . S
N2215 C2216 1.351 . S
C2216 C2210 1.428 . S
C2216 N2215 1.351 . S
C2216 C2217 1.434 . S
C2217 C2208 1.429 . S
C2217 N2214 1.350 . S
C2217 C2216 1.434 . S
C2218 C2219 1.369 . S
C2218 C2220 1.419 . S
C2218 H2222 0.930 . S
C2219 C2218 1.369 . S
C2219 C2228 1.429 . S
C2220 C2218 1.419 . S
C2220 C2221 1.363 . S
C2220 H2223 0.929 . S
C2221 C2220 1.363 . S
C2221 C2227 1.428 . S
H2222 C2218 0.930 . S
H2223 C2220 0.929 . S
S2224 N2225 1.613 . S
S2224 N2226 1.610 . S
N2225 S2224 1.613 . S
N2225 C2228 1.350 . S
N2226 S2224 1.610 . S
N2226 C2227 1.351 . S
C2227 C2221 1.428 . S
C2227 N2226 1.351 . S
C2227 C2228 1.434 . S
C2228 C2219 1.429 . S
C2228 N2225 1.350 . S
C2228 C2227 1.434 . S
C2229 C2230 1.369 . S
C2229 C2231 1.419 . S
C2229 H2233 0.930 . S
C2230 C2229 1.369 . S
C2230 C2239 1.429 . S
C2231 C2229 1.419 . S
C2231 C2232 1.363 . S
C2231 H2234 0.929 . S
C2232 C2231 1.363 . S
C2232 C2238 1.428 . S
H2233 C2229 0.930 . S
H2234 C2231 0.929 . S
S2235 N2236 1.613 . S
S2235 N2237 1.610 . S
N2236 S2235 1.613 . S
N2236 C2239 1.350 . S
N2237 S2235 1.610 . S
N2237 C2238 1.351 . S
C2238 C2232 1.428 . S
C2238 N2237 1.351 . S
C2238 C2239 1.434 . S
C2239 C2230 1.429 . S
C2239 N2236 1.350 . S
C2239 C2238 1.434 . S
C2240 C2241 1.369 . S
C2240 C2242 1.419 . S
C2240 H2244 0.930 . S
C2241 C2240 1.369 . S
C2241 C2250 1.429 . S
C2242 C2240 1.419 . S
C2242 C2243 1.363 . S
C2242 H2245 0.929 . S
C2243 C2242 1.363 . S
C2243 C2249 1.428 . S
H2244 C2240 0.930 . S
H2245 C2242 0.929 . S
S2246 N2247 1.613 . S
S2246 N2248 1.610 . S
N2247 S2246 1.613 . S
N2247 C2250 1.350 . S
N2248 S2246 1.610 . S
N2248 C2249 1.351 . S
C2249 C2243 1.428 . S
C2249 N2248 1.351 . S
C2249 C2250 1.434 . S
C2250 C2241 1.429 . S
C2250 N2247 1.350 . S
C2250 C2249 1.434 . S
C2251 C2252 1.369 1_455 S
C2251 C2253 1.419 1_565 S
C2251 H2255 0.930 . S
C2252 C2251 1.369 1_655 S
C2252 C2261 1.429 . S
C2253 C2251 1.419 1_545 S
C2253 C2254 1.363 . S
C2253 H2256 0.929 . S
C2254 C2253 1.363 . S
C2254 C2260 1.428 1_455 S
H2255 C2251 0.930 . S
H2256 C2253 0.929 . S
S2257 N2258 1.613 1_545 S
S2257 N2259 1.610 . S
N2258 S2257 1.613 1_565 S
N2258 C2261 1.350 . S
N2259 S2257 1.610 . S
N2259 C2260 1.351 . S
C2260 C2254 1.428 1_655 S
C2260 N2259 1.351 . S
C2260 C2261 1.434 1_545 S
C2261 C2252 1.429 . S
C2261 N2258 1.350 . S
C2261 C2260 1.434 1_565 S
C2262 C2263 1.369 . S
C2262 C2264 1.419 . S
C2262 H2266 0.930 . S
C2263 C2262 1.369 . S
C2263 C2272 1.429 . S
C2264 C2262 1.419 . S
C2264 C2265 1.363 . S
C2264 H2267 0.929 . S
C2265 C2264 1.363 . S
C2265 C2271 1.428 . S
H2266 C2262 0.930 . S
H2267 C2264 0.929 . S
S2268 N2269 1.613 . S
S2268 N2270 1.610 . S
N2269 S2268 1.613 . S
N2269 C2272 1.350 . S
N2270 S2268 1.610 . S
N2270 C2271 1.351 . S
C2271 C2265 1.428 . S
C2271 N2270 1.351 . S
C2271 C2272 1.434 . S
C2272 C2263 1.429 . S
C2272 N2269 1.350 . S
C2272 C2271 1.434 . S
C2273 C2274 1.369 . S
C2273 C2275 1.419 1_545 S
C2273 H2277 0.930 . S
C2274 C2273 1.369 . S
C2274 C2283 1.429 1_554 S
C2275 C2273 1.419 1_565 S
C2275 C2276 1.363 1_554 S
C2275 H2278 0.929 . S
C2276 C2275 1.363 1_556 S
C2276 C2282 1.428 . S
H2277 C2273 0.930 . S
H2278 C2275 0.929 . S
S2279 N2280 1.613 1_565 S
S2279 N2281 1.610 . S
N2280 S2279 1.613 1_545 S
N2280 C2283 1.350 . S
N2281 S2279 1.610 . S
N2281 C2282 1.351 . S
C2282 C2276 1.428 . S
C2282 N2281 1.351 . S
C2282 C2283 1.434 1_565 S
C2283 C2274 1.429 1_556 S
C2283 N2280 1.350 . S
C2283 C2282 1.434 1_545 S
C2284 C2285 1.369 . S
C2284 C2286 1.419 . S
C2284 H2288 0.930 . S
C2285 C2284 1.369 . S
C2285 C2294 1.429 . S
C2286 C2284 1.419 . S
C2286 C2287 1.363 . S
C2286 H2289 0.929 . S
C2287 C2286 1.363 . S
C2287 C2293 1.428 . S
H2288 C2284 0.930 . S
H2289 C2286 0.929 . S
S2290 N2291 1.613 . S
S2290 N2292 1.610 . S
N2291 S2290 1.613 . S
N2291 C2294 1.350 . S
N2292 S2290 1.610 . S
N2292 C2293 1.351 . S
C2293 C2287 1.428 . S
C2293 N2292 1.351 . S
C2293 C2294 1.434 . S
C2294 C2285 1.429 . S
C2294 N2291 1.350 . S
C2294 C2293 1.434 . S
C2295 C2296 1.369 1_545 S
C2295 C2297 1.419 . S
C2295 H2299 0.930 . S
C2296 C2295 1.369 1_565 S
C2296 C2305 1.429 . S
C2297 C2295 1.419 . S
C2297 C2298 1.363 . S
C2297 H2300 0.929 . S
C2298 C2297 1.363 . S
C2298 C2304 1.428 1_545 S
H2299 C2295 0.930 . S
H2300 C2297 0.929 . S
S2301 N2302 1.613 . S
S2301 N2303 1.610 . S
N2302 S2301 1.613 . S
N2302 C2305 1.350 . S
N2303 S2301 1.610 . S
N2303 C2304 1.351 . S
C2304 C2298 1.428 1_565 S
C2304 N2303 1.351 . S
C2304 C2305 1.434 . S
C2305 C2296 1.429 . S
C2305 N2302 1.350 . S
C2305 C2304 1.434 . S
C2306 C2307 1.369 . S
C2306 C2308 1.419 . S
C2306 H2310 0.930 . S
C2307 C2306 1.369 . S
C2307 C2316 1.429 . S
C2308 C2306 1.419 . S
C2308 C2309 1.363 . S
C2308 H2311 0.929 . S
C2309 C2308 1.363 . S
C2309 C2315 1.428 . S
H2310 C2306 0.930 . S
H2311 C2308 0.929 . S
S2312 N2313 1.613 . S
S2312 N2314 1.610 . S
N2313 S2312 1.613 . S
N2313 C2316 1.350 . S
N2314 S2312 1.610 . S
N2314 C2315 1.351 . S
C2315 C2309 1.428 . S
C2315 N2314 1.351 . S
C2315 C2316 1.434 . S
C2316 C2307 1.429 . S
C2316 N2313 1.350 . S
C2316 C2315 1.434 . S
C2317 C2318 1.369 . S
C2317 C2319 1.419 1_645 S
C2317 H2321 0.930 . S
C2318 C2317 1.369 . S
C2318 C2327 1.429 1_556 S
C2319 C2317 1.419 1_465 S
C2319 C2320 1.363 1_556 S
C2319 H2322 0.929 . S
C2320 C2319 1.363 1_554 S
C2320 C2326 1.428 . S
H2321 C2317 0.930 . S
H2322 C2319 0.929 . S
S2323 N2324 1.613 . S
S2323 N2325 1.610 1_645 S
N2324 S2323 1.613 . S
N2324 C2327 1.350 . S
N2325 S2323 1.610 1_465 S
N2325 C2326 1.351 . S
C2326 C2320 1.428 . S
C2326 N2325 1.351 . S
C2326 C2327 1.434 1_465 S
C2327 C2318 1.429 1_554 S
C2327 N2324 1.350 . S
C2327 C2326 1.434 1_645 S
C2328 C2329 1.369 . S
C2328 C2330 1.419 . S
C2328 H2332 0.930 . S
C2329 C2328 1.369 . S
C2329 C2338 1.429 . S
C2330 C2328 1.419 . S
C2330 C2331 1.363 . S
C2330 H2333 0.929 . S
C2331 C2330 1.363 . S
C2331 C2337 1.428 . S
H2332 C2328 0.930 . S
H2333 C2330 0.929 . S
S2334 N2335 1.613 . S
S2334 N2336 1.610 . S
N2335 S2334 1.613 . S
N2335 C2338 1.350 . S
N2336 S2334 1.610 . S
N2336 C2337 1.351 . S
C2337 C2331 1.428 . S
C2337 N2336 1.351 . S
C2337 C2338 1.434 . S
C2338 C2329 1.429 . S
C2338 N2335 1.350 . S
C2338 C2337 1.434 . S
C2339 C2340 1.369 . S
C2339 C2341 1.419 . S
C2339 H2343 0.930 . S
C2340 C2339 1.369 . S
C2340 C2349 1.429 . S
C2341 C2339 1.419 . S
C2341 C2342 1.363 . S
C2341 H2344 0.929 . S
C2342 C2341 1.363 . S
C2342 C2348 1.428 . S
H2343 C2339 0.930 . S
H2344 C2341 0.929 . S
S2345 N2346 1.613 . S
S2345 N2347 1.610 . S
N2346 S2345 1.613 . S
N2346 C2349 1.350 . S
N2347 S2345 1.610 . S
N2347 C2348 1.351 . S
C2348 C2342 1.428 . S
C2348 N2347 1.351 . S
C2348 C2349 1.434 . S
C2349 C2340 1.429 . S
C2349 N2346 1.350 . S
C2349 C2348 1.434 . S
C2350 C2351 1.369 . S
C2350 C2352 1.419 . S
C2350 H2354 0.930 . S
C2351 C2350 1.369 . S
C2351 C2360 1.429 . S
C2352 C2350 1.419 . S
C2352 C2353 1.363 . S
C2352 H2355 0.929 . S
C2353 C2352 1.363 . S
C2353 C2359 1.428 . S
H2354 C2350 0.930 . S
H2355 C2352 0.929 . S
S2356 N2357 1.613 . S
S2356 N2358 1.610 . S
N2357 S2356 1.613 . S
N2357 C2360 1.350 . S
N2358 S2356 1.610 . S
N2358 C2359 1.351 . S
C2359 C2353 1.428 . S
C2359 N2358 1.351 . S
C2359 C2360 1.434 . S
C2360 C2351 1.429 . S
C2360 N2357 1.350 . S
C2360 C2359 1.434 . S
C2361 C2362 1.369 . S
C2361 C2363 1.419 . S
C2361 H2365 0.930 . S
C2362 C2361 1.369 . S
C2362 C2371 1.429 . S
C2363 C2361 1.419 . S
C2363 C2364 1.363 . S
C2363 H2366 0.929 . S
C2364 C2363 1.363 . S
C2364 C2370 1.428 . S
H2365 C2361 0.930 . S
H2366 C2363 0.929 . S
S2367 N2368 1.613 . S
S2367 N2369 1.610 . S
N2368 S2367 1.613 . S
N2368 C2371 1.350 . S
N2369 S2367 1.610 . S
N2369 C2370 1.351 . S
C2370 C2364 1.428 . S
C2370 N2369 1.351 . S
C2370 C2371 1.434 . S
C2371 C2362 1.429 . S
C2371 N2368 1.350 . S
C2371 C2370 1.434 . S
C2372 C2373 1.369 . S
C2372 C2374 1.419 . S
C2372 H2376 0.930 . S
C2373 C2372 1.369 . S
C2373 C2382 1.429 1_554 S
C2374 C2372 1.419 . S
C2374 C2375 1.363 1_554 S
C2374 H2377 0.929 . S
C2375 C2374 1.363 1_556 S
C2375 C2381 1.428 . S
H2376 C2372 0.930 . S
H2377 C2374 0.929 . S
S2378 N2379 1.613 . S
S2378 N2380 1.610 . S
N2379 S2378 1.613 . S
N2379 C2382 1.350 . S
N2380 S2378 1.610 . S
N2380 C2381 1.351 . S
C2381 C2375 1.428 . S
C2381 N2380 1.351 . S
C2381 C2382 1.434 . S
C2382 C2373 1.429 1_556 S
C2382 N2379 1.350 . S
C2382 C2381 1.434 . S
C2383 C2384 1.369 1_455 S
C2383 C2385 1.419 . S
C2383 H2387 0.930 . S
C2384 C2383 1.369 1_655 S
C2384 C2393 1.429 . S
C2385 C2383 1.419 . S
C2385 C2386 1.363 . S
C2385 H2388 0.929 . S
C2386 C2385 1.363 . S
C2386 C2392 1.428 1_455 S
H2387 C2383 0.930 . S
H2388 C2385 0.929 . S
S2389 N2390 1.613 . S
S2389 N2391 1.610 . S
N2390 S2389 1.613 . S
N2390 C2393 1.350 . S
N2391 S2389 1.610 . S
N2391 C2392 1.351 . S
C2392 C2386 1.428 1_655 S
C2392 N2391 1.351 . S
C2392 C2393 1.434 . S
C2393 C2384 1.429 . S
C2393 N2390 1.350 . S
C2393 C2392 1.434 . S
C2394 C2395 1.369 1_655 S
C2394 C2396 1.419 . S
C2394 H2398 0.930 . S
C2395 C2394 1.369 1_455 S
C2395 C2404 1.429 1_556 S
C2396 C2394 1.419 . S
C2396 C2397 1.363 1_556 S
C2396 H2399 0.929 . S
C2397 C2396 1.363 1_554 S
C2397 C2403 1.428 1_655 S
H2398 C2394 0.930 . S
H2399 C2396 0.929 . S
S2400 N2401 1.613 . S
S2400 N2402 1.610 . S
N2401 S2400 1.613 . S
N2401 C2404 1.350 . S
N2402 S2400 1.610 . S
N2402 C2403 1.351 . S
C2403 C2397 1.428 1_455 S
C2403 N2402 1.351 . S
C2403 C2404 1.434 . S
C2404 C2395 1.429 1_554 S
C2404 N2401 1.350 . S
C2404 C2403 1.434 . S
C2405 C2406 1.369 . S
C2405 C2407 1.419 . S
C2405 H2409 0.930 . S
C2406 C2405 1.369 . S
C2406 C2415 1.429 . S
C2407 C2405 1.419 . S
C2407 C2408 1.363 . S
C2407 H2410 0.929 . S
C2408 C2407 1.363 . S
C2408 C2414 1.428 . S
H2409 C2405 0.930 . S
H2410 C2407 0.929 . S
S2411 N2412 1.613 . S
S2411 N2413 1.610 . S
N2412 S2411 1.613 . S
N2412 C2415 1.350 . S
N2413 S2411 1.610 . S
N2413 C2414 1.351 . S
C2414 C2408 1.428 . S
C2414 N2413 1.351 . S
C2414 C2415 1.434 . S
C2415 C2406 1.429 . S
C2415 N2412 1.350 . S
C2415 C2414 1.434 . S
C2416 C2417 1.369 . S
C2416 C2418 1.419 . S
C2416 H2420 0.930 . S
C2417 C2416 1.369 . S
C2417 C2426 1.429 . S
C2418 C2416 1.419 . S
C2418 C2419 1.363 . S
C2418 H2421 0.929 . S
C2419 C2418 1.363 . S
C2419 C2425 1.428 . S
H2420 C2416 0.930 . S
H2421 C2418 0.929 . S
S2422 N2423 1.613 . S
S2422 N2424 1.610 . S
N2423 S2422 1.613 . S
N2423 C2426 1.350 . S
N2424 S2422 1.610 . S
N2424 C2425 1.351 . S
C2425 C2419 1.428 . S
C2425 N2424 1.351 . S
C2425 C2426 1.434 . S
C2426 C2417 1.429 . S
C2426 N2423 1.350 . S
C2426 C2425 1.434 . S
C2427 C2428 1.369 . S
C2427 C2429 1.419 . S
C2427 H2431 0.930 . S
C2428 C2427 1.369 . S
C2428 C2437 1.429 . S
C2429 C2427 1.419 . S
C2429 C2430 1.363 . S
C2429 H2432 0.929 . S
C2430 C2429 1.363 . S
C2430 C2436 1.428 . S
H2431 C2427 0.930 . S
H2432 C2429 0.929 . S
S2433 N2434 1.613 . S
S2433 N2435 1.610 . S
N2434 S2433 1.613 . S
N2434 C2437 1.350 . S
N2435 S2433 1.610 . S
N2435 C2436 1.351 . S
C2436 C2430 1.428 . S
C2436 N2435 1.351 . S
C2436 C2437 1.434 . S
C2437 C2428 1.429 . S
C2437 N2434 1.350 . S
C2437 C2436 1.434 . S
C2438 C2439 1.369 . S
C2438 C2440 1.419 . S
C2438 H2442 0.930 . S
C2439 C2438 1.369 . S
C2439 C2448 1.429 . S
C2440 C2438 1.419 . S
C2440 C2441 1.363 . S
C2440 H2443 0.929 . S
C2441 C2440 1.363 . S
C2441 C2447 1.428 . S
H2442 C2438 0.930 . S
H2443 C2440 0.929 . S
S2444 N2445 1.613 . S
S2444 N2446 1.610 . S
N2445 S2444 1.613 . S
N2445 C2448 1.350 . S
N2446 S2444 1.610 . S
N2446 C2447 1.351 . S
C2447 C2441 1.428 . S
C2447 N2446 1.351 . S
C2447 C2448 1.434 . S
C2448 C2439 1.429 . S
C2448 N2445 1.350 . S
C2448 C2447 1.434 . S
C2449 C2450 1.369 . S
C2449 C2451 1.419 . S
C2449 H2453 0.930 . S
C2450 C2449 1.369 . S
C2450 C2459 1.429 . S
C2451 C2449 1.419 . S
C2451 C2452 1.363 . S
C2451 H2454 0.929 . S
C2452 C2451 1.363 . S
C2452 C2458 1.428 . S
H2453 C2449 0.930 . S
H2454 C2451 0.929 . S
S2455 N2456 1.613 . S
S2455 N2457 1.610 . S
N2456 S2455 1.613 . S
N2456 C2459 1.350 . S
N2457 S2455 1.610 . S
N2457 C2458 1.351 . S
C2458 C2452 1.428 . S
C2458 N2457 1.351 . S
C2458 C2459 1.434 . S
C2459 C2450 1.429 . S
C2459 N2456 1.350 . S
C2459 C2458 1.434 . S
C2460 C2461 1.369 . S
C2460 C2462 1.419 . S
C2460 H2464 0.930 . S
C2461 C2460 1.369 . S
C2461 C2470 1.429 . S
C2462 C2460 1.419 . S
C2462 C2463 1.363 . S
C2462 H2465 0.929 . S
C2463 C2462 1.363 . S
C2463 C2469 1.428 . S
H2464 C2460 0.930 . S
H2465 C2462 0.929 . S
S2466 N2467 1.613 . S
S2466 N2468 1.610 . S
N2467 S2466 1.613 . S
N2467 C2470 1.350 . S
N2468 S2466 1.610 . S
N2468 C2469 1.351 . S
C2469 C2463 1.428 . S
C2469 N2468 1.351 . S
C2469 C2470 1.434 . S
C2470 C2461 1.429 . S
C2470 N2467 1.350 . S
C2470 C2469 1.434 . S
C2471 C2472 1.369 . S
C2471 C2473 1.419 . S
C2471 H2475 0.930 . S
C2472 C2471 1.369 . S
C2472 C2481 1.429 . S
C2473 C2471 1.419 . S
C2473 C2474 1.363 . S
C2473 H2476 0.929 . S
C2474 C2473 1.363 . S
C2474 C2480 1.428 . S
H2475 C2471 0.930 . S
H2476 C2473 0.929 . S
S2477 N2478 1.613 . S
S2477 N2479 1.610 . S
N2478 S2477 1.613 . S
N2478 C2481 1.350 . S
N2479 S2477 1.610 . S
N2479 C2480 1.351 . S
C2480 C2474 1.428 . S
C2480 N2479 1.351 . S
C2480 C2481 1.434 . S
C2481 C2472 1.429 . S
C2481 N2478 1.350 . S
C2481 C2480 1.434 . S
C2482 C2483 1.369 . S
C2482 C2484 1.419 . S
C2482 H2486 0.930 . S
C2483 C2482 1.369 . S
C2483 C2492 1.429 . S
C2484 C2482 1.419 . S
C2484 C2485 1.363 . S
C2484 H2487 0.929 . S
C2485 C2484 1.363 . S
C2485 C2491 1.428 . S
H2486 C2482 0.930 . S
H2487 C2484 0.929 . S
S2488 N2489 1.613 . S
S2488 N2490 1.610 . S
N2489 S2488 1.613 . S
N2489 C2492 1.350 . S
N2490 S2488 1.610 . S
N2490 C2491 1.351 . S
C2491 C2485 1.428 . S
C2491 N2490 1.351 . S
C2491 C2492 1.434 . S
C2492 C2483 1.429 . S
C2492 N2489 1.350 . S
C2492 C2491 1.434 . S
C2493 C2494 1.369 . S
C2493 C2495 1.419 . S
C2493 H2497 0.930 . S
C2494 C2493 1.369 . S
C2494 C2503 1.429 . S
C2495 C2493 1.419 . S
C2495 C2496 1.363 . S
C2495 H2498 0.929 . S
C2496 C2495 1.363 . S
C2496 C2502 1.428 . S
H2497 C2493 0.930 . S
H2498 C2495 0.929 . S
S2499 N2500 1.613 . S
S2499 N2501 1.610 . S
N2500 S2499 1.613 . S
N2500 C2503 1.350 . S
N2501 S2499 1.610 . S
N2501 C2502 1.351 . S
C2502 C2496 1.428 . S
C2502 N2501 1.351 . S
C2502 C2503 1.434 . S
C2503 C2494 1.429 . S
C2503 N2500 1.350 . S
C2503 C2502 1.434 . S
C2504 C2505 1.369 . S
C2504 C2506 1.419 . S
C2504 H2508 0.930 . S
C2505 C2504 1.369 . S
C2505 C2514 1.429 . S
C2506 C2504 1.419 . S
C2506 C2507 1.363 . S
C2506 H2509 0.929 . S
C2507 C2506 1.363 . S
C2507 C2513 1.428 . S
H2508 C2504 0.930 . S
H2509 C2506 0.929 . S
S2510 N2511 1.613 . S
S2510 N2512 1.610 . S
N2511 S2510 1.613 . S
N2511 C2514 1.350 . S
N2512 S2510 1.610 . S
N2512 C2513 1.351 . S
C2513 C2507 1.428 . S
C2513 N2512 1.351 . S
C2513 C2514 1.434 . S
C2514 C2505 1.429 . S
C2514 N2511 1.350 . S
C2514 C2513 1.434 . S
C2515 C2516 1.369 . S
C2515 C2517 1.419 . S
C2515 H2519 0.930 . S
C2516 C2515 1.369 . S
C2516 C2525 1.429 . S
C2517 C2515 1.419 . S
C2517 C2518 1.363 . S
C2517 H2520 0.929 . S
C2518 C2517 1.363 . S
C2518 C2524 1.428 . S
H2519 C2515 0.930 . S
H2520 C2517 0.929 . S
S2521 N2522 1.613 . S
S2521 N2523 1.610 . S
N2522 S2521 1.613 . S
N2522 C2525 1.350 . S
N2523 S2521 1.610 . S
N2523 C2524 1.351 . S
C2524 C2518 1.428 . S
C2524 N2523 1.351 . S
C2524 C2525 1.434 . S
C2525 C2516 1.429 . S
C2525 N2522 1.350 . S
C2525 C2524 1.434 . S
C2526 C2527 1.369 . S
C2526 C2528 1.419 . S
C2526 H2530 0.930 . S
C2527 C2526 1.369 . S
C2527 C2536 1.429 . S
C2528 C2526 1.419 . S
C2528 C2529 1.363 . S
C2528 H2531 0.929 . S
C2529 C2528 1.363 . S
C2529 C2535 1.428 . S
H2530 C2526 0.930 . S
H2531 C2528 0.929 . S
S2532 N2533 1.613 . S
S2532 N2534 1.610 . S
N2533 S2532 1.613 . S
N2533 C2536 1.350 . S
N2534 S2532 1.610 . S
N2534 C2535 1.351 . S
C2535 C2529 1.428 . S
C2535 N2534 1.351 . S
C2535 C2536 1.434 . S
C2536 C2527 1.429 . S
C2536 N2533 1.350 . S
C2536 C2535 1.434 . S
C2537 C2538 1.369 . S
C2537 C2539 1.419 . S
C2537 H2541 0.930 . S
C2538 C2537 1.369 . S
C2538 C2547 1.429 . S
C2539 C2537 1.419 . S
C2539 C2540 1.363 . S
C2539 H2542 0.929 . S
C2540 C2539 1.363 . S
C2540 C2546 1.428 . S
H2541 C2537 0.930 . S
H2542 C2539 0.929 . S
S2543 N2544 1.613 . S
S2543 N2545 1.610 . S
N2544 S2543 1.613 . S
N2544 C2547 1.350 . S
N2545 S2543 1.610 . S
N2545 C2546 1.351 . S
C2546 C2540 1.428 . S
C2546 N2545 1.351 . S
C2546 C2547 1.434 . S
C2547 C2538 1.429 . S
C2547 N2544 1.350 . S
C2547 C2546 1.434 . S
C2548 C2549 1.369 . S
C2548 C2550 1.419 . S
C2548 H2552 0.930 . S
C2549 C2548 1.369 . S
C2549 C2558 1.429 . S
C2550 C2548 1.419 . S
C2550 C2551 1.363 . S
C2550 H2553 0.929 . S
C2551 C2550 1.363 . S
C2551 C2557 1.428 . S
H2552 C2548 0.930 . S
H2553 C2550 0.929 . S
S2554 N2555 1.613 . S
S2554 N2556 1.610 . S
N2555 S2554 1.613 . S
N2555 C2558 1.350 . S
N2556 S2554 1.610 . S
N2556 C2557 1.351 . S
C2557 C2551 1.428 . S
C2557 N2556 1.351 . S
C2557 C2558 1.434 . S
C2558 C2549 1.429 . S
C2558 N2555 1.350 . S
C2558 C2557 1.434 . S
C2559 C2560 1.369 . S
C2559 C2561 1.419 . S
C2559 H2563 0.930 . S
C2560 C2559 1.369 . S
C2560 C2569 1.429 . S
C2561 C2559 1.419 . S
C2561 C2562 1.363 . S
C2561 H2564 0.929 . S
C2562 C2561 1.363 . S
C2562 C2568 1.428 . S
H2563 C2559 0.930 . S
H2564 C2561 0.929 . S
S2565 N2566 1.613 . S
S2565 N2567 1.610 . S
N2566 S2565 1.613 . S
N2566 C2569 1.350 . S
N2567 S2565 1.610 . S
N2567 C2568 1.351 . S
C2568 C2562 1.428 . S
C2568 N2567 1.351 . S
C2568 C2569 1.434 . S
C2569 C2560 1.429 . S
C2569 N2566 1.350 . S
C2569 C2568 1.434 . S
C2570 C2571 1.369 . S
C2570 C2572 1.419 . S
C2570 H2574 0.930 . S
C2571 C2570 1.369 . S
C2571 C2580 1.429 . S
C2572 C2570 1.419 . S
C2572 C2573 1.363 . S
C2572 H2575 0.929 . S
C2573 C2572 1.363 . S
C2573 C2579 1.428 . S
H2574 C2570 0.930 . S
H2575 C2572 0.929 . S
S2576 N2577 1.613 . S
S2576 N2578 1.610 . S
N2577 S2576 1.613 . S
N2577 C2580 1.350 . S
N2578 S2576 1.610 . S
N2578 C2579 1.351 . S
C2579 C2573 1.428 . S
C2579 N2578 1.351 . S
C2579 C2580 1.434 . S
C2580 C2571 1.429 . S
C2580 N2577 1.350 . S
C2580 C2579 1.434 . S
C2581 C2582 1.369 . S
C2581 C2583 1.419 . S
C2581 H2585 0.930 . S
C2582 C2581 1.369 . S
C2582 C2591 1.429 . S
C2583 C2581 1.419 . S
C2583 C2584 1.363 . S
C2583 H2586 0.929 . S
C2584 C2583 1.363 . S
C2584 C2590 1.428 . S
H2585 C2581 0.930 . S
H2586 C2583 0.929 . S
S2587 N2588 1.613 . S
S2587 N2589 1.610 . S
N2588 S2587 1.613 . S
N2588 C2591 1.350 . S
N2589 S2587 1.610 . S
N2589 C2590 1.351 . S
C2590 C2584 1.428 . S
C2590 N2589 1.351 . S
C2590 C2591 1.434 . S
C2591 C2582 1.429 . S
C2591 N2588 1.350 . S
C2591 C2590 1.434 . S
C1889 C583 1.495 . S
C1891 C33 1.525 . S
C1900 C92 1.524 1_455 S
C1902 C1586 1.500 . S
C1911 C701 1.495 . S
C1913 C151 1.525 . S
C1922 C1468 1.500 . S
C1924 C210 1.525 . S
C1933 C269 1.525 . S
C1935 C937 1.499 . S
C1944 C1704 1.500 . S
C1946 C328 1.524 . S
C1955 C387 1.525 . S
C1957 C819 1.500 . S
C1966 C1822 1.494 . S
C1968 C446 1.525 1_455 S
C1977 C111 1.494 . S
C1979 C505 1.525 . S
C1988 C564 1.524 1_655 S
C1990 C1114 1.497 . S
C1999 C229 1.501 . S
C2001 C623 1.525 . S
C2010 C682 1.525 . S
C2012 C996 1.495 . S
C2021 C741 1.525 . S
C2023 C465 1.499 . S
C2032 C1232 1.495 . S
C2034 C800 1.525 . S
C2043 C859 1.524 . S
C2045 C347 1.499 . S
C2054 C1350 1.500 . S
C2056 C918 1.525 1_655 S
C2065 C1527 1.501 . S
C2067 C977 1.524 . S
C2076 C642 1.501 . S
C2078 C1036 1.525 . S
C2087 C1095 1.524 . S
C2089 C1645 1.500 . S
C2098 C524 1.494 . S
C2100 C1154 1.525 1_655 S
C2109 C1881 1.499 . S
C2111 C1213 1.524 . S
C2120 C1272 1.524 1_655 S
C2122 C760 1.499 . S
C2131 C1763 1.501 . S
C2133 C1331 1.525 . S
C2142 C878 1.496 . S
C2144 C1390 1.526 . S
C2153 C1055 1.501 . S
C2155 C1449 1.525 . S
C2164 C1508 1.525 . S
C2166 C170 1.496 . S
C2175 C1567 1.526 . S
C2177 C1173 1.498 . S
C2186 C1626 1.526 1_455 S
C2188 C52 1.496 . S
C2197 C1409 1.494 . S
C2199 C1685 1.525 . S
C2208 C1744 1.525 1_455 S
C2210 C288 1.499 . S
C2219 C1803 1.524 . S
C2221 C1291 1.499 . S
C2230 C1862 1.524 . S
C2232 C406 1.497 . S
C2241 C1421 1.500 . S
C2243 C5 1.507 . S
C2252 C64 1.505 . S
C2254 C536 1.503 . S
C2263 C123 1.506 . S
C2265 C1539 1.503 . S
C2274 C182 1.503 . S
C2276 C654 1.504 . S
C2285 C241 1.509 . S
C2287 C1657 1.500 . S
C2296 C300 1.502 . S
C2298 C772 1.506 . S
C2307 C1775 1.508 . S
C2309 C359 1.501 . S
C2318 C418 1.501 . S
C2320 C890 1.506 . S
C2329 C477 1.504 . S
C2331 C949 1.505 . S
C2340 C595 1.509 . S
C2342 C1067 1.501 . S
C2351 C1185 1.509 . S
C2353 C713 1.501 . S
C2362 C1303 1.508 . S
C2364 C831 1.501 . S
C2373 C1008 1.506 . S
C2375 C1480 1.503 . S
C2384 C1598 1.506 . S
C2386 C1126 1.502 . S
C2395 C1244 1.503 . S
C2397 C1716 1.505 . S
C2406 C1834 1.504 . S
C2408 C1362 1.504 . S
C2417 C1242 1.552 . S
C2419 C3 1.555 . S
C2428 C1301 1.553 . S
C2430 C62 1.552 . S
C2439 C121 1.554 . S
C2441 C1360 1.555 . S
C2450 C1183 1.555 . S
C2452 C180 1.554 . S
C2461 C1124 1.553 . S
C2463 C239 1.552 . S
C2472 C947 1.553 . S
C2474 C298 1.555 . S
C2483 C357 1.552 . S
C2485 C1006 1.554 . S
C2494 C1065 1.553 . S
C2496 C416 1.555 . S
C2505 C1714 1.555 . S
C2507 C475 1.553 . S
C2516 C1773 1.552 . S
C2518 C534 1.554 . S
C2527 C1832 1.555 . S
C2529 C593 1.553 . S
C2538 C652 1.552 . S
C2540 C1655 1.553 . S
C2549 C1596 1.552 . S
C2551 C711 1.554 . S
C2560 C1419 1.552 . S
C2562 C770 1.553 . S
C2571 C1478 1.555 . S
C2573 C829 1.554 . S
C2582 C1537 1.554 . S
C2584 C888 1.555 . S
