# Generated by pormake.
# Topology pcb, (4)-cn, num edge types: 1
# Building blocks:
#     Node 0, Type 0, BuildingBlock: CEKHIL_clean_sbu_0, # of connection points: 4
#     Node 1, Type 0, BuildingBlock: CEKHIL_clean_sbu_0, # of connection points: 4
#     Node 2, Type 0, BuildingBlock: CEKHIL_clean_sbu_0, # of connection points: 4
#     Node 3, Type 0, BuildingBlock: CEKHIL_clean_sbu_0, # of connection points: 4
#     Node 4, Type 0, BuildingBlock: CEKHIL_clean_sbu_0, # of connection points: 4
#     Node 5, Type 0, BuildingBlock: CEKHIL_clean_sbu_0, # of connection points: 4
#     Node 6, Type 0, BuildingBlock: CEKHIL_clean_sbu_0, # of connection points: 4
#     Node 7, Type 0, BuildingBlock: CEKHIL_clean_sbu_0, # of connection points: 4
#     Node 8, Type 0, BuildingBlock: CEKHIL_clean_sbu_0, # of connection points: 4
#     Node 9, Type 0, BuildingBlock: CEKHIL_clean_sbu_0, # of connection points: 4
#     Node 10, Type 0, BuildingBlock: CEKHIL_clean_sbu_0, # of connection points: 4
#     Node 11, Type 0, BuildingBlock: CEKHIL_clean_sbu_0, # of connection points: 4
#     Node 12, Type 0, BuildingBlock: CEKHIL_clean_sbu_0, # of connection points: 4
#     Node 13, Type 0, BuildingBlock: CEKHIL_clean_sbu_0, # of connection points: 4
#     Node 14, Type 0, BuildingBlock: CEKHIL_clean_sbu_0, # of connection points: 4
#     Node 15, Type 0, BuildingBlock: CEKHIL_clean_sbu_0, # of connection points: 4
#     Edge 16, Type (0, 0), BuildingBlock: XUDNAN_clean_linker_2, # of connection points: 2
#     Edge 17, Type (0, 0), BuildingBlock: XUDNAN_clean_linker_2, # of connection points: 2
#     Edge 18, Type (0, 0), BuildingBlock: XUDNAN_clean_linker_2, # of connection points: 2
#     Edge 19, Type (0, 0), BuildingBlock: XUDNAN_clean_linker_2, # of connection points: 2
#     Edge 20, Type (0, 0), BuildingBlock: XUDNAN_clean_linker_2, # of connection points: 2
#     Edge 21, Type (0, 0), BuildingBlock: XUDNAN_clean_linker_2, # of connection points: 2
#     Edge 22, Type (0, 0), BuildingBlock: XUDNAN_clean_linker_2, # of connection points: 2
#     Edge 23, Type (0, 0), BuildingBlock: XUDNAN_clean_linker_2, # of connection points: 2
#     Edge 24, Type (0, 0), BuildingBlock: XUDNAN_clean_linker_2, # of connection points: 2
#     Edge 25, Type (0, 0), BuildingBlock: XUDNAN_clean_linker_2, # of connection points: 2
#     Edge 26, Type (0, 0), BuildingBlock: XUDNAN_clean_linker_2, # of connection points: 2
#     Edge 27, Type (0, 0), BuildingBlock: XUDNAN_clean_linker_2, # of connection points: 2
#     Edge 28, Type (0, 0), BuildingBlock: XUDNAN_clean_linker_2, # of connection points: 2
#     Edge 29, Type (0, 0), BuildingBlock: XUDNAN_clean_linker_2, # of connection points: 2
#     Edge 30, Type (0, 0), BuildingBlock: XUDNAN_clean_linker_2, # of connection points: 2
#     Edge 31, Type (0, 0), BuildingBlock: XUDNAN_clean_linker_2, # of connection points: 2
#     Edge 32, Type (0, 0), BuildingBlock: XUDNAN_clean_linker_2, # of connection points: 2
#     Edge 33, Type (0, 0), BuildingBlock: XUDNAN_clean_linker_2, # of connection points: 2
#     Edge 34, Type (0, 0), BuildingBlock: XUDNAN_clean_linker_2, # of connection points: 2
#     Edge 35, Type (0, 0), BuildingBlock: XUDNAN_clean_linker_2, # of connection points: 2
#     Edge 36, Type (0, 0), BuildingBlock: XUDNAN_clean_linker_2, # of connection points: 2
#     Edge 37, Type (0, 0), BuildingBlock: XUDNAN_clean_linker_2, # of connection points: 2
#     Edge 38, Type (0, 0), BuildingBlock: XUDNAN_clean_linker_2, # of connection points: 2
#     Edge 39, Type (0, 0), BuildingBlock: XUDNAN_clean_linker_2, # of connection points: 2
#     Edge 40, Type (0, 0), BuildingBlock: XUDNAN_clean_linker_2, # of connection points: 2
#     Edge 41, Type (0, 0), BuildingBlock: XUDNAN_clean_linker_2, # of connection points: 2
#     Edge 42, Type (0, 0), BuildingBlock: XUDNAN_clean_linker_2, # of connection points: 2
#     Edge 43, Type (0, 0), BuildingBlock: XUDNAN_clean_linker_2, # of connection points: 2
#     Edge 44, Type (0, 0), BuildingBlock: XUDNAN_clean_linker_2, # of connection points: 2
#     Edge 45, Type (0, 0), BuildingBlock: XUDNAN_clean_linker_2, # of connection points: 2
#     Edge 46, Type (0, 0), BuildingBlock: XUDNAN_clean_linker_2, # of connection points: 2
#     Edge 47, Type (0, 0), BuildingBlock: XUDNAN_clean_linker_2, # of connection points: 2
# Relax obj value: 0.234
# Max RMSD: 0.083
# Mean RMSD: 0.083
data_MOF--net-pcb--node1-CEKHIL_clean_sbu_0--edge1-XUDNAN_clean_linker_2
_symmetry_space_group_name_H-M    P1
_symmetry_Int_Tables_number       1
_symmetry_cell_setting            triclinic
loop_
_symmetry_equiv_pos_as_xyz
'x, y, z'
_cell_length_a     56.534627
_cell_length_b     36.827152
_cell_length_c     36.833009
_cell_angle_alpha  89.985068
_cell_angle_beta   90.002256
_cell_angle_gamma 89.996159
loop_
_atom_site_label
_atom_site_type_symbol
_atom_site_fract_x
_atom_site_fract_y
_atom_site_fract_z
_atom_type_partial_charge
Co0 Co 0.14049 0.19266 0.19547 0.0
O1 O 0.17352 0.18516 0.18656 0.0
O2 O 0.15878 0.23367 0.21382 0.0
C3 C 0.13374 0.13584 0.2166 0.0
O4 O 0.10679 0.20857 0.20905 0.0
Co5 Co 0.1045 0.14465 0.15197 0.0
O6 O 0.08112 0.16894 0.18357 0.0
C7 C 0.13198 0.20209 0.11548 0.0
C8 C 0.17726 0.21638 0.20162 0.0
C9 C 0.08569 0.19626 0.20362 0.0
O10 O 0.13758 0.21639 0.14615 0.0
O11 O 0.12136 0.17155 0.11239 0.0
O12 O 0.14194 0.1606 0.23836 0.0
O13 O 0.13175 0.1456 0.18322 0.0
Co14 Co 0.86992 0.19393 0.19923 0.0
O15 O 0.83643 0.1847 0.20157 0.0
O16 O 0.85732 0.21027 0.2454 0.0
C17 C 0.86784 0.21689 0.14243 0.0
O18 O 0.90461 0.20891 0.20631 0.0
Co19 Co 0.90212 0.15972 0.14031 0.0
O20 O 0.92477 0.19786 0.15499 0.0
C21 C 0.88654 0.116 0.20413 0.0
C22 C 0.83679 0.19959 0.23343 0.0
C23 C 0.92333 0.21184 0.1865 0.0
O24 O 0.87672 0.1438 0.21917 0.0
O25 O 0.89603 0.11693 0.17254 0.0
O26 O 0.86382 0.23789 0.17011 0.0
O27 O 0.87247 0.18351 0.14989 0.0
Co28 Co 0.87073 0.80425 0.19523 0.0
O29 O 0.8381 0.81303 0.18365 0.0
O30 O 0.85145 0.76229 0.20829 0.0
C31 C 0.87645 0.85882 0.22193 0.0
O32 O 0.90367 0.78648 0.21124 0.0
Co33 Co 0.90978 0.85439 0.16232 0.0
O34 O 0.92984 0.83124 0.19963 0.0
C35 C 0.88684 0.79801 0.11673 0.0
C36 C 0.83352 0.78099 0.19629 0.0
C37 C 0.92447 0.80085 0.21386 0.0
O38 O 0.87598 0.78472 0.14449 0.0
O39 O 0.89958 0.82675 0.1182 0.0
O40 O 0.86723 0.83232 0.24041 0.0
O41 O 0.88023 0.85218 0.18812 0.0
Co42 Co 0.13847 0.79679 0.1925 0.0
O43 O 0.17152 0.80829 0.18902 0.0
O44 O 0.15451 0.78574 0.23816 0.0
C45 C 0.13743 0.76745 0.13873 0.0
O46 O 0.10445 0.78133 0.20514 0.0
Co47 Co 0.10347 0.82577 0.1345 0.0
O48 O 0.08205 0.78874 0.15522 0.0
C49 C 0.12182 0.87516 0.19166 0.0
C50 C 0.17368 0.79706 0.22212 0.0
C51 C 0.08491 0.77697 0.18744 0.0
O52 O 0.13174 0.84839 0.20832 0.0
O53 O 0.11129 0.87173 0.16104 0.0
O54 O 0.14392 0.75022 0.16781 0.0
O55 O 0.13316 0.80156 0.14264 0.0
Co56 Co 0.14214 0.79835 0.80462 0.0
O57 O 0.176 0.79637 0.80858 0.0
O58 O 0.15395 0.75331 0.784 0.0
C59 C 0.1408 0.85598 0.78372 0.0
O60 O 0.10652 0.79239 0.79522 0.0
Co61 Co 0.11464 0.8548 0.85193 0.0
O62 O 0.08833 0.84139 0.81906 0.0
C63 C 0.13469 0.789 0.88555 0.0
C64 C 0.17496 0.76518 0.79244 0.0
C65 C 0.08805 0.81249 0.8 0.0
O66 O 0.13895 0.77508 0.85418 0.0
O67 O 0.12728 0.82149 0.89031 0.0
O68 O 0.14496 0.8295 0.76135 0.0
O69 O 0.13974 0.84708 0.8175 0.0
Co70 Co 0.14232 0.19542 0.80373 0.0
O71 O 0.17609 0.18881 0.8013 0.0
O72 O 0.15425 0.21085 0.7567 0.0
C73 C 0.14386 0.22085 0.85947 0.0
O74 O 0.10702 0.2071 0.79675 0.0
Co75 Co 0.11215 0.16057 0.8653 0.0
O76 O 0.08668 0.19249 0.84727 0.0
C77 C 0.1291 0.11587 0.803 0.0
C78 C 0.17517 0.2023 0.76886 0.0
C79 C 0.08791 0.20687 0.81592 0.0
O80 O 0.1372 0.14392 0.78607 0.0
O81 O 0.12039 0.11729 0.83508 0.0
O82 O 0.14701 0.24104 0.83093 0.0
O83 O 0.14047 0.18689 0.85341 0.0
Co84 Co 0.86664 0.19954 0.80178 0.0
O85 O 0.83264 0.20028 0.80477 0.0
O86 O 0.85456 0.24633 0.78604 0.0
C87 C 0.86885 0.14442 0.77508 0.0
O88 O 0.90233 0.20773 0.79429 0.0
Co89 Co 0.89482 0.13901 0.84281 0.0
O90 O 0.92159 0.15773 0.8137 0.0
C91 C 0.87164 0.19854 0.8832 0.0
C92 C 0.83357 0.23324 0.79255 0.0
C93 C 0.92132 0.18848 0.79781 0.0
O94 O 0.86873 0.21696 0.85382 0.0
O95 O 0.87934 0.16584 0.8837 0.0
O96 O 0.86471 0.17294 0.75531 0.0
O97 O 0.86959 0.1499 0.80953 0.0
Co98 Co 0.86614 0.80743 0.80403 0.0
O99 O 0.83216 0.81205 0.80309 0.0
O100 O 0.85386 0.79127 0.75767 0.0
C101 C 0.868 0.78146 0.85958 0.0
O102 O 0.90151 0.79778 0.79545 0.0
Co103 Co 0.89588 0.84716 0.86384 0.0
O104 O 0.92266 0.82035 0.84227 0.0
C105 C 0.87742 0.8882 0.80054 0.0
C106 C 0.83296 0.79875 0.77051 0.0
C107 C 0.92118 0.80306 0.81243 0.0
O108 O 0.86967 0.85898 0.78533 0.0
O109 O 0.88647 0.88891 0.8324 0.0
O110 O 0.86325 0.76159 0.83138 0.0
O111 O 0.86948 0.81582 0.85372 0.0
Co112 Co 0.63799 0.69745 0.7002 0.0
O113 O 0.67086 0.69069 0.6888 0.0
O114 O 0.65558 0.74193 0.70964 0.0
C115 C 0.6343 0.64493 0.73137 0.0
O116 O 0.60453 0.71362 0.71537 0.0
Co117 Co 0.60066 0.64146 0.67231 0.0
O118 O 0.58016 0.66573 0.70836 0.0
C119 C 0.62243 0.69437 0.62145 0.0
C120 C 0.67416 0.72398 0.6989 0.0
C121 C 0.58436 0.6977 0.71988 0.0
O122 O 0.63186 0.71209 0.64799 0.0
O123 O 0.61113 0.66454 0.6258 0.0
O124 O 0.64272 0.67348 0.74753 0.0
O125 O 0.63018 0.64846 0.6972 0.0
Co126 Co 0.37197 0.70075 0.69265 0.0
O127 O 0.33955 0.68765 0.68445 0.0
O128 O 0.35282 0.71326 0.7348 0.0
C129 C 0.37673 0.72695 0.6376 0.0
O130 O 0.4047 0.71835 0.70976 0.0
Co131 Co 0.41125 0.66898 0.64201 0.0
O132 O 0.43118 0.70621 0.66552 0.0
C133 C 0.38604 0.6223 0.69499 0.0
C134 C 0.33501 0.70018 0.71653 0.0
C135 C 0.42551 0.7211 0.69547 0.0
O136 O 0.37807 0.65023 0.71209 0.0
O137 O 0.39751 0.62445 0.66507 0.0
O138 O 0.36745 0.74551 0.66401 0.0
O139 O 0.38128 0.69352 0.64483 0.0
Co140 Co 0.37016 0.30172 0.69135 0.0
O141 O 0.33746 0.30544 0.67768 0.0
O142 O 0.3526 0.25927 0.70819 0.0
C143 C 0.37179 0.35975 0.71142 0.0
O144 O 0.4035 0.28925 0.71025 0.0
Co145 Co 0.40784 0.35326 0.65708 0.0
O146 O 0.42807 0.33557 0.69701 0.0
C147 C 0.38824 0.29105 0.61487 0.0
C148 C 0.33412 0.27452 0.69353 0.0
C149 C 0.42361 0.30572 0.71298 0.0
O150 O 0.37736 0.27824 0.64288 0.0
O151 O 0.39956 0.32121 0.61511 0.0
O152 O 0.36446 0.33428 0.73312 0.0
O153 O 0.37717 0.34941 0.67916 0.0
Co154 Co 0.6378 0.31619 0.70176 0.0
O155 O 0.67043 0.33001 0.69795 0.0
O156 O 0.65569 0.29786 0.7433 0.0
C157 C 0.63591 0.29797 0.64319 0.0
O158 O 0.6045 0.29688 0.71394 0.0
Co159 Co 0.59989 0.3523 0.65241 0.0
O160 O 0.58064 0.30993 0.66684 0.0
C161 C 0.61935 0.39192 0.7163 0.0
C162 C 0.67404 0.31306 0.72819 0.0
C163 C 0.58467 0.29369 0.69671 0.0
O164 O 0.63079 0.36365 0.72717 0.0
O165 O 0.6075 0.39291 0.68664 0.0
O166 O 0.64331 0.27555 0.66796 0.0
O167 O 0.63059 0.33001 0.65446 0.0
Co168 Co 0.64387 0.30815 0.29932 0.0
O169 O 0.67715 0.31151 0.30884 0.0
O170 O 0.65906 0.26144 0.29048 0.0
C171 C 0.64184 0.36006 0.26676 0.0
O172 O 0.6093 0.29581 0.28677 0.0
Co173 Co 0.61102 0.36989 0.32907 0.0
O174 O 0.58729 0.3457 0.29795 0.0
C175 C 0.63246 0.31612 0.37897 0.0
C176 C 0.6786 0.27757 0.30004 0.0
C177 C 0.58959 0.3136 0.28551 0.0
O178 O 0.63839 0.2956 0.35216 0.0
O179 O 0.62361 0.34789 0.37489 0.0
O180 O 0.64851 0.33025 0.25096 0.0
O181 O 0.63866 0.3579 0.30125 0.0
Co182 Co 0.64163 0.68992 0.30024 0.0
O183 O 0.67562 0.68564 0.29779 0.0
O184 O 0.65339 0.71196 0.256 0.0
C185 C 0.64065 0.70852 0.35881 0.0
O186 O 0.60609 0.70052 0.29393 0.0
Co187 Co 0.61181 0.64425 0.35484 0.0
O188 O 0.587 0.68031 0.34354 0.0
C189 C 0.62948 0.61065 0.28676 0.0
C190 C 0.67444 0.70302 0.26722 0.0
C191 C 0.58738 0.69815 0.31393 0.0
O192 O 0.638 0.64108 0.27542 0.0
O193 O 0.61982 0.60651 0.31793 0.0
O194 O 0.64482 0.73186 0.33313 0.0
O195 O 0.63892 0.67521 0.34856 0.0
Co196 Co 0.36626 0.69053 0.30091 0.0
O197 O 0.33231 0.69084 0.30637 0.0
O198 O 0.35341 0.7369 0.2856 0.0
C199 C 0.36812 0.6352 0.27442 0.0
O200 O 0.40152 0.69978 0.29066 0.0
Co201 Co 0.39679 0.63071 0.33924 0.0
O202 O 0.42309 0.65259 0.31154 0.0
C203 C 0.37869 0.69364 0.38127 0.0
C204 C 0.3327 0.72361 0.29352 0.0
C205 C 0.42132 0.68282 0.29498 0.0
O206 O 0.37029 0.7088 0.35247 0.0
O207 O 0.38801 0.66194 0.38149 0.0
O208 O 0.36303 0.66352 0.25489 0.0
O209 O 0.36998 0.64083 0.30876 0.0
Co210 Co 0.37111 0.299 0.30252 0.0
O211 O 0.33715 0.30447 0.30336 0.0
O212 O 0.35766 0.28283 0.25703 0.0
C213 C 0.37378 0.27349 0.35812 0.0
O214 O 0.4061 0.2881 0.29201 0.0
Co215 Co 0.40335 0.3376 0.35938 0.0
O216 O 0.42833 0.30564 0.33968 0.0
C217 C 0.38338 0.3793 0.29754 0.0
C218 C 0.33714 0.29083 0.27088 0.0
C219 C 0.42594 0.28968 0.30927 0.0
O220 O 0.3747 0.35026 0.28326 0.0
O221 O 0.39382 0.3798 0.32841 0.0
O222 O 0.36824 0.25356 0.3303 0.0
O223 O 0.37576 0.30779 0.35193 0.0
H224 H 0.29174 0.30236 0.29504 0.0
H225 H 0.33181 0.26031 0.20371 0.0
H226 H 0.29459 0.24194 0.17391 0.0
H227 H 0.24979 0.23268 0.29841 0.0
H228 H 0.22503 0.26129 0.30994 0.0
H229 H 0.25452 0.27464 0.32257 0.0
H230 H 0.24912 0.33578 0.2888 0.0
H231 H 0.21953 0.32265 0.27612 0.0
H232 H 0.24052 0.3357 0.24167 0.0
H233 H 0.254 0.22238 0.1571 0.0
H234 H 0.21217 0.20413 0.15316 0.0
H235 H 0.19743 0.26019 0.25422 0.0
C236 C 0.29267 0.28989 0.26846 0.0
C237 C 0.31472 0.28286 0.25162 0.0
C238 C 0.31516 0.2661 0.21705 0.0
C239 C 0.2941 0.25562 0.19989 0.0
C240 C 0.27271 0.26236 0.21749 0.0
C241 C 0.27177 0.27936 0.25087 0.0
C242 C 0.2465 0.28157 0.26473 0.0
C243 C 0.24381 0.26133 0.30105 0.0
C244 C 0.23844 0.32129 0.26801 0.0
C245 C 0.23345 0.26221 0.23438 0.0
C246 C 0.24899 0.25158 0.20736 0.0
C247 C 0.24161 0.23106 0.17775 0.0
C248 C 0.21783 0.22072 0.17584 0.0
C249 C 0.20157 0.23105 0.20321 0.0
C250 C 0.2094 0.25261 0.23257 0.0
H251 H 0.69787 0.23152 0.24929 0.0
H252 H 0.71209 0.28509 0.35169 0.0
H253 H 0.7535 0.26396 0.3495 0.0
H254 H 0.73981 0.15303 0.26117 0.0
H255 H 0.74863 0.15449 0.21417 0.0
H256 H 0.71911 0.16783 0.227 0.0
H257 H 0.72529 0.22996 0.19538 0.0
H258 H 0.75482 0.21695 0.18275 0.0
H259 H 0.75004 0.25796 0.20843 0.0
H260 H 0.79428 0.24435 0.33265 0.0
H261 H 0.83162 0.22764 0.30197 0.0
H262 H 0.79155 0.18794 0.20965 0.0
C263 C 0.70953 0.23748 0.27183 0.0
C264 C 0.7018 0.25927 0.30102 0.0
C265 C 0.71772 0.26801 0.32935 0.0
C266 C 0.74124 0.25609 0.32836 0.0
C267 C 0.74865 0.23565 0.29868 0.0
C268 C 0.73329 0.22627 0.27093 0.0
C269 C 0.74645 0.20781 0.24017 0.0
C270 C 0.738 0.16844 0.23536 0.0
C271 C 0.744 0.22947 0.2046 0.0
C272 C 0.77158 0.20916 0.25458 0.0
C273 C 0.77242 0.2249 0.28857 0.0
C274 C 0.79383 0.23141 0.30629 0.0
C275 C 0.81496 0.22193 0.28864 0.0
C276 C 0.81453 0.20627 0.25357 0.0
C277 C 0.79248 0.19936 0.2367 0.0
H278 H 0.81388 0.72906 0.24137 0.0
H279 H 0.79704 0.80445 0.15462 0.0
H280 H 0.75487 0.78846 0.15974 0.0
H281 H 0.76789 0.66022 0.21874 0.0
H282 H 0.76152 0.65104 0.2658 0.0
H283 H 0.79084 0.66486 0.25239 0.0
H284 H 0.78908 0.71814 0.29823 0.0
H285 H 0.75979 0.70459 0.31165 0.0
H286 H 0.76501 0.75016 0.29568 0.0
H287 H 0.71423 0.76825 0.1771 0.0
H288 H 0.6778 0.74611 0.20681 0.0
H289 H 0.72037 0.68494 0.2835 0.0
C290 C 0.80136 0.74145 0.2229 0.0
C291 C 0.80877 0.76777 0.19738 0.0
C292 C 0.79178 0.78413 0.17429 0.0
C293 C 0.76777 0.77515 0.1769 0.0
C294 C 0.7609 0.74976 0.20282 0.0
C295 C 0.77715 0.73305 0.22542 0.0
C296 C 0.76476 0.70883 0.2528 0.0
C297 C 0.77167 0.66886 0.24708 0.0
C298 C 0.76997 0.72118 0.2919 0.0
C299 C 0.73908 0.71538 0.24267 0.0
C300 C 0.73728 0.73863 0.21339 0.0
C301 C 0.7154 0.74972 0.19984 0.0
C302 C 0.69479 0.73701 0.21689 0.0
C303 C 0.69618 0.71374 0.24741 0.0
C304 C 0.71868 0.70255 0.2601 0.0
H305 H 0.28718 0.70016 0.30464 0.0
H306 H 0.32782 0.79246 0.26618 0.0
H307 H 0.29068 0.82424 0.25059 0.0
H308 H 0.24469 0.70155 0.2359 0.0
H309 H 0.22016 0.68874 0.26444 0.0
H310 H 0.2497 0.675 0.27631 0.0
H311 H 0.24503 0.70533 0.33936 0.0
H312 H 0.21543 0.71927 0.32762 0.0
H313 H 0.23681 0.75255 0.34211 0.0
H314 H 0.2498 0.84296 0.23291 0.0
H315 H 0.20798 0.84753 0.21428 0.0
H316 H 0.19319 0.74415 0.26572 0.0
C317 C 0.28828 0.72735 0.29357 0.0
C318 C 0.31046 0.74392 0.28678 0.0
C319 C 0.31109 0.77929 0.27178 0.0
C320 C 0.29006 0.79759 0.26293 0.0
C321 C 0.26853 0.78028 0.2695 0.0
C322 C 0.26746 0.74601 0.28464 0.0
C323 C 0.24211 0.73249 0.28666 0.0
C324 C 0.23899 0.69738 0.2645 0.0
C325 C 0.23439 0.7271 0.3263 0.0
C326 C 0.22912 0.76409 0.26932 0.0
C327 C 0.24473 0.79147 0.2599 0.0
C328 C 0.23736 0.82207 0.2408 0.0
C329 C 0.21358 0.82442 0.23034 0.0
C330 C 0.19733 0.79655 0.2392 0.0
C331 C 0.2051 0.76637 0.25965 0.0
H332 H 0.3144 0.74674 0.7658 0.0
H333 H 0.29998 0.65388 0.6969 0.0
H334 H 0.25778 0.65664 0.71361 0.0
H335 H 0.26981 0.72618 0.83722 0.0
H336 H 0.26199 0.77331 0.84267 0.0
H337 H 0.2916 0.76104 0.8293 0.0
H338 H 0.28795 0.80221 0.77251 0.0
H339 H 0.25835 0.81446 0.7856 0.0
H340 H 0.26376 0.79522 0.74138 0.0
H341 H 0.21658 0.67263 0.73327 0.0
H342 H 0.17943 0.70177 0.75367 0.0
H343 H 0.22035 0.78503 0.80852 0.0
C344 C 0.30243 0.72644 0.75509 0.0
C345 C 0.31046 0.69987 0.73037 0.0
C346 C 0.29419 0.67438 0.71602 0.0
C347 C 0.27019 0.67564 0.72543 0.0
C348 C 0.26265 0.70268 0.74915 0.0
C349 C 0.27826 0.72762 0.76385 0.0
C350 C 0.26522 0.75587 0.78608 0.0
C351 C 0.27259 0.75397 0.8262 0.0
C352 C 0.26905 0.79419 0.77044 0.0
C353 C 0.23989 0.74332 0.78091 0.0
C354 C 0.23879 0.71233 0.75991 0.0
C355 C 0.21722 0.69669 0.7501 0.0
C356 C 0.1962 0.71341 0.76177 0.0
C357 C 0.19695 0.74557 0.78275 0.0
C358 C 0.21915 0.7603 0.79273 0.0
H359 H 0.22078 0.19145 0.79145 0.0
H360 H 0.17946 0.23064 0.70019 0.0
H361 H 0.2164 0.2475 0.66838 0.0
H362 H 0.2626 0.26132 0.7908 0.0
H363 H 0.28739 0.23314 0.80315 0.0
H364 H 0.25799 0.22052 0.81693 0.0
H365 H 0.26306 0.1579 0.78589 0.0
H366 H 0.29254 0.17032 0.77199 0.0
H367 H 0.27122 0.1558 0.73862 0.0
H368 H 0.25727 0.26568 0.64942 0.0
H369 H 0.29912 0.28384 0.64422 0.0
H370 H 0.31438 0.2319 0.74725 0.0
C371 C 0.21947 0.20293 0.76445 0.0
C372 C 0.19718 0.20954 0.74817 0.0
C373 C 0.19629 0.22514 0.71309 0.0
C374 C 0.2172 0.23474 0.69481 0.0
C375 C 0.23885 0.22837 0.71191 0.0
C376 C 0.24014 0.21267 0.74589 0.0
C377 C 0.26552 0.21095 0.7593 0.0
C378 C 0.26854 0.23279 0.79462 0.0
C379 C 0.27355 0.17138 0.76423 0.0
C380 C 0.27831 0.22889 0.72787 0.0
C381 C 0.26256 0.23851 0.70075 0.0
C382 C 0.26979 0.25776 0.67018 0.0
C383 C 0.2936 0.268 0.66752 0.0
C384 C 0.31002 0.25887 0.69511 0.0
C385 C 0.30234 0.23843 0.72535 0.0
H386 H 0.78795 0.21091 0.80398 0.0
H387 H 0.82933 0.30212 0.76475 0.0
H388 H 0.79238 0.33493 0.74999 0.0
H389 H 0.74442 0.21369 0.73638 0.0
H390 H 0.72021 0.20157 0.76584 0.0
H391 H 0.74975 0.18681 0.77649 0.0
H392 H 0.74657 0.21702 0.83981 0.0
H393 H 0.71698 0.23196 0.82932 0.0
H394 H 0.73906 0.26449 0.84306 0.0
H395 H 0.75137 0.3553 0.7345 0.0
H396 H 0.70924 0.36194 0.71867 0.0
H397 H 0.69399 0.25809 0.76902 0.0
C398 C 0.78928 0.23802 0.79277 0.0
C399 C 0.81157 0.25404 0.78561 0.0
C400 C 0.81249 0.28938 0.7706 0.0
C401 C 0.79158 0.30824 0.76222 0.0
C402 C 0.76992 0.29149 0.76929 0.0
C403 C 0.7686 0.25722 0.78435 0.0
C404 C 0.74313 0.24449 0.78733 0.0
C405 C 0.73915 0.20958 0.76518 0.0
C406 C 0.73602 0.23918 0.82726 0.0
C407 C 0.7303 0.27656 0.77065 0.0
C408 C 0.74612 0.30348 0.76075 0.0
C409 C 0.73881 0.33467 0.74262 0.0
C410 C 0.71483 0.33816 0.73372 0.0
C411 C 0.69833 0.31071 0.74299 0.0
C412 C 0.70611 0.27986 0.76239 0.0
H413 H 0.78727 0.81297 0.79117 0.0
H414 H 0.82886 0.76542 0.7043 0.0
H415 H 0.79206 0.74694 0.67316 0.0
H416 H 0.74446 0.74511 0.79551 0.0
H417 H 0.71991 0.77502 0.80446 0.0
H418 H 0.7493 0.78802 0.81787 0.0
H419 H 0.74543 0.84762 0.78097 0.0
H420 H 0.71594 0.83481 0.76743 0.0
H421 H 0.73782 0.84554 0.73348 0.0
H422 H 0.75133 0.72721 0.65546 0.0
H423 H 0.70937 0.70907 0.65135 0.0
H424 H 0.69366 0.77147 0.74815 0.0
C425 C 0.78865 0.79928 0.76524 0.0
C426 C 0.81098 0.79071 0.75009 0.0
C427 C 0.81199 0.77243 0.71633 0.0
C428 C 0.79117 0.76187 0.69843 0.0
C429 C 0.76947 0.77016 0.71443 0.0
C430 C 0.76804 0.78874 0.74692 0.0
C431 C 0.74255 0.79241 0.75938 0.0
C432 C 0.73885 0.77404 0.79649 0.0
C433 C 0.73499 0.83248 0.76036 0.0
C434 C 0.72989 0.77201 0.72936 0.0
C435 C 0.74578 0.75958 0.70363 0.0
C436 C 0.73868 0.73742 0.675 0.0
C437 C 0.71483 0.72722 0.67292 0.0
C438 C 0.69828 0.73939 0.69907 0.0
C439 C 0.70584 0.76267 0.72723 0.0
H440 H 0.16512 0.18395 0.91235 0.0
H441 H 0.12818 0.28471 0.89131 0.0
H442 H 0.1274 0.29747 0.95775 0.0
H443 H 0.13226 0.15735 0.98284 0.0
H444 H 0.15585 0.13641 0.00824 0.0
H445 H 0.15807 0.1401 0.95983 0.0
H446 H 0.19794 0.17437 0.96631 0.0
H447 H 0.1959 0.17063 0.01502 0.0
H448 H 0.19952 0.21456 0.99415 0.0
H449 H 0.12473 0.29251 0.02753 0.0
H450 H 0.11991 0.27017 0.09088 0.0
H451 H 0.15837 0.17252 0.06321 0.0
C452 C 0.15749 0.2093 0.92165 0.0
C453 C 0.14675 0.23344 0.89708 0.0
C454 C 0.13676 0.26617 0.90995 0.0
C455 C 0.13626 0.27352 0.94755 0.0
C456 C 0.14626 0.24814 0.97137 0.0
C457 C 0.15699 0.2169 0.95858 0.0
C458 C 0.1639 0.19149 0.98888 0.0
C459 C 0.15178 0.15419 0.98469 0.0
C460 C 0.19092 0.18756 0.99122 0.0
C461 C 0.15431 0.21219 0.0209 0.0
C462 C 0.14465 0.24523 0.01074 0.0
C463 C 0.13275 0.26714 0.0358 0.0
C464 C 0.13014 0.25439 0.07166 0.0
C465 C 0.13905 0.21992 0.08156 0.0
C466 C 0.1518 0.19926 0.05619 0.0
H467 H 0.85043 0.16489 0.93895 0.0
H468 H 0.88118 0.2679 0.9077 0.0
H469 H 0.87842 0.28903 0.97173 0.0
H470 H 0.81063 0.2005 0.0124 0.0
H471 H 0.81582 0.16053 0.03949 0.0
H472 H 0.816 0.15744 0.99065 0.0
H473 H 0.85795 0.12899 0.99303 0.0
H474 H 0.85805 0.13232 0.04161 0.0
H475 H 0.88143 0.15318 0.01569 0.0
H476 H 0.87792 0.29394 0.04209 0.0
H477 H 0.87926 0.28199 0.10871 0.0
H478 H 0.84924 0.1754 0.09038 0.0
C479 C 0.85593 0.19234 0.9454 0.0
C480 C 0.86597 0.21484 0.91868 0.0
C481 C 0.87315 0.25047 0.92792 0.0
C482 C 0.87168 0.26258 0.96418 0.0
C483 C 0.86257 0.2389 0.99038 0.0
C484 C 0.85445 0.20469 0.98102 0.0
C485 C 0.84765 0.18264 0.01386 0.0
C486 C 0.82093 0.17484 0.01411 0.0
C487 C 0.86214 0.14724 0.01616 0.0
C488 C 0.85434 0.20886 0.0435 0.0
C489 C 0.86247 0.24155 0.02986 0.0
C490 C 0.87116 0.26867 0.05293 0.0
C491 C 0.87188 0.26176 0.09063 0.0
C492 C 0.86441 0.22778 0.10435 0.0
C493 C 0.85509 0.20163 0.08049 0.0
H494 H 0.9028 0.80013 0.90579 0.0
H495 H 0.84073 0.73211 0.8964 0.0
H496 H 0.84212 0.72026 0.96279 0.0
H497 H 0.9321 0.74708 0.98208 0.0
H498 H 0.94314 0.7886 0.00166 0.0
H499 H 0.93987 0.7847 0.95312 0.0
H500 H 0.91377 0.84257 0.95292 0.0
H501 H 0.91662 0.84639 0.00127 0.0
H502 H 0.88764 0.84403 0.98097 0.0
H503 H 0.84607 0.72672 0.03177 0.0
H504 H 0.85333 0.74789 0.09468 0.0
H505 H 0.91368 0.80996 0.05668 0.0
C506 C 0.89005 0.78164 0.9175 0.0
C507 C 0.87178 0.76681 0.89626 0.0
C508 C 0.85512 0.74315 0.91237 0.0
C509 C 0.85576 0.73642 0.95001 0.0
C510 C 0.87353 0.75289 0.97065 0.0
C511 C 0.89072 0.77432 0.95462 0.0
C512 C 0.90655 0.79194 0.98252 0.0
C513 C 0.93192 0.77718 0.97968 0.0
C514 C 0.90608 0.83367 0.97921 0.0
C515 C 0.8947 0.77916 0.01694 0.0
C516 C 0.87595 0.75613 0.00985 0.0
C517 C 0.86109 0.74398 0.03762 0.0
C518 C 0.86532 0.75618 0.07329 0.0
C519 C 0.88407 0.78062 0.08066 0.0
C520 C 0.89923 0.79122 0.05211 0.0
H521 H 0.16894 0.78702 0.08848 0.0
H522 H 0.10904 0.7164 0.10663 0.0
H523 H 0.10738 0.70286 0.04058 0.0
H524 H 0.14839 0.82905 0.01631 0.0
H525 H 0.17579 0.83332 0.99162 0.0
H526 H 0.17629 0.82907 0.04007 0.0
H527 H 0.20377 0.77294 0.03498 0.0
H528 H 0.20347 0.77715 0.98619 0.0
H529 H 0.19499 0.73493 0.00726 0.0
H530 H 0.10725 0.70795 0.97209 0.0
H531 H 0.10794 0.73215 0.90923 0.0
H532 H 0.16771 0.79996 0.93676 0.0
C533 C 0.15622 0.76737 0.07857 0.0
C534 C 0.13945 0.75205 0.1022 0.0
C535 C 0.1224 0.72751 0.08872 0.0
C536 C 0.12138 0.71977 0.05133 0.0
C537 C 0.13776 0.73645 0.02824 0.0
C538 C 0.15511 0.75937 0.04159 0.0
C539 C 0.16841 0.77816 0.01135 0.0
C540 C 0.1671 0.81983 0.01507 0.0
C541 C 0.19419 0.765 0.00986 0.0
C542 C 0.15463 0.76471 0.97891 0.0
C543 C 0.13754 0.73968 0.98888 0.0
C544 C 0.12102 0.72662 0.96386 0.0
C545 C 0.12156 0.74035 0.92823 0.0
C546 C 0.13824 0.76716 0.91839 0.0
C547 C 0.15531 0.77862 0.94366 0.0
H548 H 0.05794 0.23808 0.16272 0.0
H549 H 0.0653 0.19467 0.27104 0.0
H550 H 0.0234 0.20986 0.28381 0.0
H551 H 0.00898 0.30928 0.18348 0.0
H552 H 0.9951 0.29897 0.14065 0.0
H553 H 0.02687 0.29712 0.14483 0.0
H554 H 0.02634 0.23103 0.12088 0.0
H555 H 0.99478 0.23238 0.11712 0.0
H556 H 0.00866 0.19748 0.14406 0.0
H557 H 0.9791 0.2155 0.2792 0.0
H558 H 0.93801 0.20818 0.25737 0.0
H559 H 0.9594 0.24498 0.15066 0.0
C560 C 0.05103 0.23408 0.18987 0.0
C561 C 0.06489 0.21654 0.21639 0.0
C562 C 0.05514 0.20945 0.25096 0.0
C563 C 0.03131 0.21785 0.25827 0.0
C564 C 0.01758 0.23328 0.23067 0.0
C565 C 0.02729 0.24177 0.1972 0.0
C566 C 0.00831 0.25132 0.16976 0.0
C567 C 0.00991 0.29157 0.15906 0.0
C568 C 0.00961 0.22655 0.13603 0.0
C569 C 0.98632 0.24404 0.19198 0.0
C570 C 0.9919 0.23507 0.22745 0.0
C571 C 0.97453 0.22341 0.25179 0.0
C572 C 0.95117 0.21943 0.2392 0.0
C573 C 0.94554 0.22621 0.20236 0.0
C574 C 0.96318 0.24008 0.17906 0.0
H575 H 0.90915 0.90722 0.19962 0.0
H576 H 0.8513 0.89365 0.27539 0.0
H577 H 0.85196 0.9598 0.28816 0.0
H578 H 0.9396 0.98503 0.24882 0.0
H579 H 0.94734 0.0056 0.20603 0.0
H580 H 0.9457 0.95686 0.20991 0.0
H581 H 0.91601 0.95527 0.1563 0.0
H582 H 0.91729 0.00377 0.15253 0.0
H583 H 0.88918 0.98162 0.15907 0.0
H584 H 0.85369 0.0289 0.28204 0.0
H585 H 0.85745 0.0922 0.2597 0.0
H586 H 0.91497 0.05858 0.18942 0.0
C587 C 0.89723 0.91797 0.21994 0.0
C588 C 0.88025 0.89556 0.23663 0.0
C589 C 0.86469 0.91047 0.26274 0.0
C590 C 0.86492 0.94799 0.27005 0.0
C591 C 0.8812 0.96981 0.25163 0.0
C592 C 0.89744 0.95503 0.22769 0.0
C593 C 0.91129 0.98406 0.20808 0.0
C594 C 0.93754 0.98281 0.21887 0.0
C595 C 0.90823 0.98098 0.16658 0.0
C596 C 0.89937 0.0176 0.2229 0.0
C597 C 0.88234 0.00916 0.24848 0.0
C598 C 0.8674 0.03584 0.26275 0.0
C599 C 0.86963 0.07173 0.24992 0.0
C600 C 0.88646 0.08034 0.22277 0.0
C601 C 0.90194 0.05299 0.21024 0.0
H602 H 0.94959 0.7533 0.17491 0.0
H603 H 0.9466 0.80612 0.27941 0.0
H604 H 0.98835 0.78949 0.29077 0.0
H605 H 0.99809 0.68168 0.19752 0.0
H606 H 0.01091 0.68841 0.15321 0.0
H607 H 0.97933 0.69184 0.15927 0.0
H608 H 0.98018 0.75605 0.13068 0.0
H609 H 0.01157 0.75313 0.12499 0.0
H610 H 0.99903 0.79039 0.15023 0.0
H611 H 0.03216 0.78127 0.28404 0.0
H612 H 0.07263 0.78571 0.25899 0.0
H613 H 0.04771 0.74148 0.15703 0.0
C614 C 0.95734 0.75892 0.20121 0.0
C615 C 0.9447 0.77943 0.22703 0.0
C616 C 0.95574 0.78896 0.26009 0.0
C617 C 0.97952 0.77977 0.26658 0.0
C618 C 0.99208 0.76137 0.23954 0.0
C619 C 0.98121 0.75073 0.20754 0.0
C620 C 0.99927 0.73848 0.17968 0.0
C621 C 0.99675 0.69767 0.17198 0.0
C622 C 0.9974 0.76087 0.14438 0.0
C623 C 0.02203 0.7464 0.19987 0.0
C624 C 0.01761 0.75825 0.23485 0.0
C625 C 0.03584 0.7711 0.25706 0.0
C626 C 0.05886 0.77339 0.24268 0.0
C627 C 0.06333 0.7637 0.20614 0.0
C628 C 0.04484 0.74855 0.18522 0.0
H629 H 0.10568 0.08752 0.18212 0.0
H630 H 0.15325 0.09802 0.27372 0.0
H631 H 0.15205 0.0312 0.28257 0.0
H632 H 0.07052 0.00918 0.21796 0.0
H633 H 0.068 0.98993 0.17314 0.0
H634 H 0.06959 0.03848 0.17877 0.0
H635 H 0.10542 0.04051 0.13488 0.0
H636 H 0.10419 0.99209 0.12951 0.0
H637 H 0.13116 0.01332 0.14468 0.0
H638 H 0.15033 0.96194 0.27432 0.0
H639 H 0.14659 0.89863 0.25216 0.0
H640 H 0.09972 0.93597 0.16655 0.0
C641 C 0.11529 0.07593 0.20474 0.0
C642 C 0.1295 0.09779 0.2273 0.0
C643 C 0.14201 0.08166 0.25642 0.0
C644 C 0.14148 0.04376 0.26152 0.0
C645 C 0.12803 0.02271 0.23765 0.0
C646 C 0.11481 0.03849 0.21025 0.0
C647 C 0.10336 0.01032 0.18622 0.0
C648 C 0.07626 0.01209 0.18922 0.0
C649 C 0.11154 0.01431 0.14651 0.0
C650 C 0.11295 0.9761 0.20329 0.0
C651 C 0.12693 0.98348 0.23316 0.0
C652 C 0.13903 0.95588 0.2514 0.0
C653 C 0.13684 0.92 0.23857 0.0
C654 C 0.12283 0.91216 0.20761 0.0
C655 C 0.1105 0.94074 0.19038 0.0
H656 H 0.95297 0.85053 0.7875 0.0
H657 H 0.94102 0.73556 0.80234 0.0
H658 H 0.98328 0.72347 0.78799 0.0
H659 H 1.0007 0.84352 0.7149 0.0
H660 H 0.01624 0.8815 0.73448 0.0
H661 H 0.98441 0.87947 0.73677 0.0
H662 H 0.98646 0.88651 0.80671 0.0
H663 H 0.01812 0.88829 0.80471 0.0
H664 H 1.00381 0.85476 0.8328 0.0
H665 H 0.02849 0.72609 0.78386 0.0
H666 H 0.07067 0.74298 0.79177 0.0
H667 H 0.05205 0.85642 0.77971 0.0
C668 C 0.95908 0.82268 0.78597 0.0
C669 C 0.94384 0.79385 0.79505 0.0
C670 C 0.95241 0.75782 0.79437 0.0
C671 C 0.97638 0.75083 0.78636 0.0
C672 C 0.99131 0.7802 0.77882 0.0
C673 C 0.98278 0.81544 0.77808 0.0
C674 C 1.00255 0.84282 0.77439 0.0
C675 C 1.00087 0.86301 0.73796 0.0
C676 C 1.00274 0.86962 0.80657 0.0
C677 C 0.02374 0.81784 0.77522 0.0
C678 C 0.01708 0.78173 0.77691 0.0
C679 C 0.03385 0.75421 0.78165 0.0
C680 C 0.05781 0.76399 0.78597 0.0
C681 C 0.06461 0.80099 0.78615 0.0
C682 C 0.04739 0.82789 0.77931 0.0
H683 H 0.11169 0.90546 0.81407 0.0
H684 H 0.16352 0.89217 0.72861 0.0
H685 H 0.16276 0.95874 0.71744 0.0
H686 H 0.07808 0.98137 0.76979 0.0
H687 H 0.0726 0.00224 0.81325 0.0
H688 H 0.0749 0.95354 0.80976 0.0
H689 H 0.10784 0.95388 0.85878 0.0
H690 H 0.10583 0.00239 0.86217 0.0
H691 H 0.13384 0.98139 0.85185 0.0
H692 H 0.16082 0.02849 0.72387 0.0
H693 H 0.15636 0.09223 0.74493 0.0
H694 H 0.10404 0.05667 0.82343 0.0
C695 C 0.12239 0.91637 0.79231 0.0
C696 C 0.13763 0.89393 0.77217 0.0
C697 C 0.15152 0.90911 0.74404 0.0
C698 C 0.15121 0.94682 0.7376 0.0
C699 C 0.13642 0.96851 0.7589 0.0
C700 C 0.12187 0.95349 0.78514 0.0
C701 C 0.10877 0.98218 0.80627 0.0
C702 C 0.082 0.97968 0.79934 0.0
C703 C 0.11443 0.97981 0.84715 0.0
C704 C 0.11913 0.01591 0.78936 0.0
C705 C 0.13485 0.00786 0.76178 0.0
C706 C 0.14813 0.03508 0.74485 0.0
C707 C 0.14551 0.07119 0.75696 0.0
C708 C 0.12992 0.07947 0.7859 0.0
C709 C 0.11615 0.05142 0.80127 0.0
H710 H 0.05794 0.16119 0.78318 0.0
H711 H 0.06589 0.27327 0.81568 0.0
H712 H 0.02347 0.28433 0.80194 0.0
H713 H 0.01003 0.17474 0.71172 0.0
H714 H 0.99558 0.1334 0.72568 0.0
H715 H 0.02732 0.13727 0.7287 0.0
H716 H 0.02533 0.12055 0.79697 0.0
H717 H 0.99375 0.1169 0.79426 0.0
H718 H 0.00699 0.14718 0.8269 0.0
H719 H 0.97866 0.27968 0.7951 0.0
H720 H 0.93692 0.25934 0.79926 0.0
H721 H 0.95879 0.14966 0.77331 0.0
C722 C 0.05094 0.18848 0.78551 0.0
C723 C 0.06517 0.21675 0.79914 0.0
C724 C 0.05533 0.25169 0.804 0.0
C725 C 0.03126 0.25808 0.79635 0.0
C726 C 0.01737 0.22917 0.78404 0.0
C727 C 0.02701 0.19505 0.77842 0.0
C728 C 0.00803 0.16712 0.77071 0.0
C729 C 0.01038 0.15227 0.73188 0.0
C730 C 0.00856 0.13616 0.7989 0.0
C731 C 0.98608 0.19027 0.77463 0.0
C732 C 0.99169 0.22619 0.78135 0.0
C733 C 0.97411 0.25178 0.7891 0.0
C734 C 0.95041 0.24006 0.79125 0.0
C735 C 0.94464 0.20298 0.7864 0.0
C736 C 0.96267 0.17826 0.77676 0.0
H737 H 0.90644 0.94545 0.81074 0.0
H738 H 0.84601 0.91059 0.74729 0.0
H739 H 0.84183 0.97324 0.72299 0.0
H740 H 0.88292 0.02357 0.84048 0.0
H741 H 0.90997 0.04947 0.83973 0.0
H742 H 0.91111 0.0011 0.84489 0.0
H743 H 0.93863 0.99648 0.78871 0.0
H744 H 0.93748 0.04512 0.78331 0.0
H745 H 0.92938 0.01589 0.74608 0.0
H746 H 0.84066 0.04251 0.71426 0.0
H747 H 0.84142 0.10919 0.72469 0.0
H748 H 0.90194 0.09612 0.79532 0.0
C749 C 0.89262 0.95066 0.79104 0.0
C750 C 0.87647 0.92327 0.78099 0.0
C751 C 0.85867 0.9312 0.75514 0.0
C752 C 0.85623 0.96667 0.74119 0.0
C753 C 0.872 0.9935 0.75293 0.0
C754 C 0.89001 0.98555 0.77709 0.0
C755 C 0.90286 0.01926 0.78945 0.0
C756 C 0.90161 0.02359 0.83107 0.0
C757 C 0.92862 0.01917 0.77607 0.0
C758 C 0.8885 0.04788 0.77019 0.0
C759 C 0.87118 0.03277 0.74835 0.0
C760 C 0.8545 0.05451 0.73063 0.0
C761 C 0.8551 0.09232 0.73651 0.0
C762 C 0.87192 0.10755 0.76049 0.0
C763 C 0.88917 0.08516 0.77642 0.0
H764 H 0.61642 0.67018 0.4091 0.0
H765 H 0.65749 0.76859 0.39559 0.0
H766 H 0.65521 0.77947 0.46219 0.0
H767 H 0.57759 0.70397 0.48148 0.0
H768 H 0.57701 0.6602 0.50339 0.0
H769 H 0.58032 0.66313 0.45483 0.0
H770 H 0.61879 0.62493 0.45886 0.0
H771 H 0.61575 0.62217 0.50734 0.0
H772 H 0.64254 0.6401 0.48779 0.0
H773 H 0.65175 0.77438 0.53245 0.0
H774 H 0.64568 0.75607 0.59668 0.0
H775 H 0.6057 0.66229 0.56009 0.0
C776 C 0.62462 0.69441 0.41985 0.0
C777 C 0.63716 0.71851 0.39726 0.0
C778 C 0.64764 0.74991 0.41254 0.0
C779 C 0.64647 0.7562 0.45028 0.0
C780 C 0.63438 0.73116 0.47197 0.0
C781 C 0.62333 0.70123 0.45695 0.0
C782 C 0.61223 0.67732 0.48546 0.0
C783 C 0.58518 0.67611 0.48102 0.0
C784 C 0.62298 0.63889 0.48481 0.0
C785 C 0.61927 0.69773 0.51923 0.0
C786 C 0.63197 0.7288 0.51128 0.0
C787 C 0.64149 0.75041 0.53884 0.0
C788 C 0.63799 0.73978 0.57524 0.0
C789 C 0.62511 0.70781 0.58363 0.0
C790 C 0.61547 0.68706 0.55498 0.0
H791 H 0.40854 0.70453 0.58819 0.0
H792 H 0.34896 0.77699 0.60209 0.0
H793 H 0.34657 0.78492 0.53526 0.0
H794 H 0.4342 0.74827 0.50365 0.0
H795 H 0.44195 0.70424 0.48591 0.0
H796 H 0.44238 0.71215 0.53421 0.0
H797 H 0.41407 0.65754 0.54334 0.0
H798 H 0.41316 0.64985 0.49528 0.0
H799 H 0.38604 0.65702 0.51999 0.0
H800 H 0.346 0.77423 0.46634 0.0
H801 H 0.3484 0.74819 0.4042 0.0
H802 H 0.40823 0.68267 0.43793 0.0
C803 C 0.39562 0.72328 0.57726 0.0
C804 C 0.37905 0.74035 0.60008 0.0
C805 C 0.3621 0.7642 0.58494 0.0
C806 C 0.36057 0.76868 0.54702 0.0
C807 C 0.37641 0.7496 0.52498 0.0
C808 C 0.39395 0.72794 0.53981 0.0
C809 C 0.40691 0.70657 0.51107 0.0
C810 C 0.4329 0.71854 0.50856 0.0
C811 C 0.40489 0.66534 0.51784 0.0
C812 C 0.39319 0.71797 0.47785 0.0
C813 C 0.37593 0.74328 0.48596 0.0
C814 C 0.35981 0.75502 0.45963 0.0
C815 C 0.36125 0.74008 0.42445 0.0
C816 C 0.3784 0.71326 0.41633 0.0
C817 C 0.39484 0.70302 0.44326 0.0
H818 H 0.40747 0.29365 0.4057 0.0
H819 H 0.34693 0.22281 0.39386 0.0
H820 H 0.34779 0.21024 0.46013 0.0
H821 H 0.43717 0.24109 0.48168 0.0
H822 H 0.44707 0.28284 0.50219 0.0
H823 H 0.44431 0.27962 0.45353 0.0
H824 H 0.41684 0.336 0.45367 0.0
H825 H 0.41929 0.3392 0.5021 0.0
H826 H 0.39052 0.3356 0.48132 0.0
H827 H 0.35061 0.2166 0.52935 0.0
H828 H 0.35638 0.23845 0.59245 0.0
H829 H 0.41662 0.30198 0.55662 0.0
C830 C 0.39496 0.27442 0.41685 0.0
C831 C 0.37724 0.259 0.39495 0.0
C832 C 0.36089 0.23437 0.41034 0.0
C833 C 0.36124 0.2272 0.44791 0.0
C834 C 0.37847 0.24416 0.4692 0.0
C835 C 0.3954 0.26658 0.45386 0.0
C836 C 0.4106 0.28451 0.48235 0.0
C837 C 0.43631 0.2712 0.47978 0.0
C838 C 0.4092 0.32626 0.47969 0.0
C839 C 0.39875 0.27055 0.5163 0.0
C840 C 0.38045 0.24692 0.50851 0.0
C841 C 0.36533 0.23424 0.53577 0.0
C842 C 0.36873 0.24676 0.57156 0.0
C843 C 0.38696 0.27191 0.57952 0.0
C844 C 0.40257 0.28265 0.5516 0.0
H845 H 0.63788 0.35836 0.43829 0.0
H846 H 0.63472 0.24553 0.40503 0.0
H847 H 0.63692 0.22665 0.46982 0.0
H848 H 0.67851 0.34526 0.51414 0.0
H849 H 0.66407 0.37986 0.54069 0.0
H850 H 0.66433 0.38305 0.4919 0.0
H851 H 0.61851 0.38737 0.49175 0.0
H852 H 0.61807 0.38384 0.54042 0.0
H853 H 0.6014 0.35212 0.51332 0.0
H854 H 0.63728 0.22164 0.54073 0.0
H855 H 0.63614 0.23139 0.6077 0.0
H856 H 0.63785 0.34774 0.59 0.0
C857 C 0.63778 0.32959 0.44442 0.0
C858 C 0.63592 0.30341 0.4167 0.0
C859 C 0.63619 0.26605 0.42596 0.0
C860 C 0.63739 0.25514 0.46264 0.0
C861 C 0.63861 0.28197 0.48942 0.0
C862 C 0.63906 0.31842 0.48041 0.0
C863 C 0.63972 0.34243 0.51347 0.0
C864 C 0.66304 0.3639 0.51514 0.0
C865 C 0.61814 0.36791 0.5148 0.0
C866 C 0.63865 0.31404 0.54282 0.0
C867 C 0.63842 0.27919 0.52889 0.0
C868 C 0.6375 0.24888 0.55176 0.0
C869 C 0.63681 0.25458 0.58965 0.0
C870 C 0.63661 0.29029 0.60389 0.0
C871 C 0.63762 0.32008 0.57999 0.0
H872 H 0.5483 0.67108 0.76024 0.0
H873 H 0.57262 0.76865 0.70653 0.0
H874 H 0.53225 0.79421 0.71015 0.0
H875 H 0.50062 0.6595 0.7135 0.0
H876 H 0.48132 0.64306 0.74884 0.0
H877 H 0.51265 0.63806 0.75348 0.0
H878 H 0.5115 0.67243 0.81478 0.0
H879 H 0.47988 0.67737 0.81045 0.0
H880 H 0.4982 0.71685 0.81716 0.0
H881 H 0.48861 0.79985 0.70164 0.0
H882 H 0.44714 0.78628 0.68519 0.0
H883 H 0.45036 0.68681 0.74705 0.0
C884 C 0.54534 0.69868 0.75113 0.0
C885 C 0.56356 0.71806 0.73344 0.0
C886 C 0.55904 0.75367 0.7209 0.0
C887 C 0.53607 0.7683 0.72273 0.0
C888 C 0.518 0.74732 0.73798 0.0
C889 C 0.52257 0.71356 0.75293 0.0
C890 C 0.49985 0.69379 0.76231 0.0
C891 C 0.49855 0.65646 0.74337 0.0
C892 C 0.4972 0.6899 0.80364 0.0
C893 C 0.48174 0.72009 0.74722 0.0
C894 C 0.49246 0.75132 0.73417 0.0
C895 C 0.47988 0.77642 0.71325 0.0
C896 C 0.45625 0.76868 0.70418 0.0
C897 C 0.44537 0.73634 0.71629 0.0
C898 C 0.45797 0.71267 0.73931 0.0
H899 H 0.37639 0.56457 0.65335 0.0
H900 H 0.38347 0.59683 0.76591 0.0
H901 H 0.37803 0.53234 0.78484 0.0
H902 H 0.33186 0.49394 0.66804 0.0
H903 H 0.34421 0.46599 0.63264 0.0
H904 H 0.34638 0.5147 0.62973 0.0
H905 H 0.39198 0.50941 0.62325 0.0
H906 H 0.38999 0.46084 0.62642 0.0
H907 H 0.40861 0.48553 0.65753 0.0
H908 H 0.37477 0.4611 0.78939 0.0
H909 H 0.37355 0.39417 0.7788 0.0
H910 H 0.3691 0.41368 0.66295 0.0
C911 C 0.37661 0.55823 0.68208 0.0
C912 C 0.38058 0.58541 0.70818 0.0
C913 C 0.38041 0.57619 0.74551 0.0
C914 C 0.37737 0.5397 0.75641 0.0
C915 C 0.37412 0.51327 0.72958 0.0
C916 C 0.37344 0.52254 0.6932 0.0
C917 C 0.3706 0.48991 0.66904 0.0
C918 C 0.34685 0.49122 0.64868 0.0
C919 C 0.39155 0.48622 0.64253 0.0
C920 C 0.37075 0.46033 0.69719 0.0
C921 C 0.37241 0.47382 0.73211 0.0
C922 C 0.37331 0.45046 0.7621 0.0
C923 C 0.37264 0.41259 0.75592 0.0
C924 C 0.37149 0.39887 0.72006 0.0
C925 C 0.37028 0.42325 0.6907 0.0
H926 H 0.55004 0.25423 0.66454 0.0
H927 H 0.57111 0.30013 0.76765 0.0
H928 H 0.5302 0.29332 0.79031 0.0
H929 H 0.50142 0.29945 0.65412 0.0
H930 H 0.48329 0.26459 0.63397 0.0
H931 H 0.51481 0.26197 0.63021 0.0
H932 H 0.51447 0.19806 0.65956 0.0
H933 H 0.48268 0.20032 0.66315 0.0
H934 H 0.50033 0.19143 0.70293 0.0
H935 H 0.48607 0.30005 0.79385 0.0
H936 H 0.44427 0.31426 0.77956 0.0
H937 H 0.45135 0.25991 0.67626 0.0
C938 C 0.54627 0.26079 0.69261 0.0
C939 C 0.56375 0.27725 0.7145 0.0
C940 C 0.55814 0.28664 0.75072 0.0
C941 C 0.53484 0.28305 0.76372 0.0
C942 C 0.51753 0.26908 0.74048 0.0
C943 C 0.52319 0.25699 0.70597 0.0
C944 C 0.50113 0.24802 0.68436 0.0
C945 C 0.50012 0.26983 0.64862 0.0
C946 C 0.49956 0.20701 0.67708 0.0
C947 C 0.48213 0.25998 0.71077 0.0
C948 C 0.49183 0.27138 0.74336 0.0
C949 C 0.47815 0.28959 0.76924 0.0
C950 C 0.45435 0.29741 0.76108 0.0
C951 C 0.44443 0.28662 0.72758 0.0
C952 C 0.45826 0.26653 0.70289 0.0
H953 H 0.59788 0.5991 0.72108 0.0
H954 H 0.66402 0.61045 0.77895 0.0
H955 H 0.66327 0.54468 0.79357 0.0
H956 H 0.57216 0.52242 0.78001 0.0
H957 H 0.55903 0.50226 0.74023 0.0
H958 H 0.56177 0.55093 0.74355 0.0
H959 H 0.58426 0.55178 0.68226 0.0
H960 H 0.58196 0.50339 0.67896 0.0
H961 H 0.61064 0.52469 0.67722 0.0
H962 H 0.66004 0.47609 0.78782 0.0
H963 H 0.6538 0.41359 0.76485 0.0
H964 H 0.58886 0.44855 0.71293 0.0
C965 C 0.6116 0.58805 0.73831 0.0
C966 C 0.63087 0.6096 0.74921 0.0
C967 C 0.64886 0.59431 0.77103 0.0
C968 C 0.64857 0.55699 0.77932 0.0
C969 C 0.62985 0.53586 0.76635 0.0
C970 C 0.61135 0.55122 0.74707 0.0
C971 C 0.59496 0.52268 0.73179 0.0
C972 C 0.57054 0.52469 0.75 0.0
C973 C 0.59287 0.52583 0.69013 0.0
C974 C 0.60803 0.48872 0.74295 0.0
C975 C 0.62783 0.49656 0.76356 0.0
C976 C 0.64418 0.46958 0.7727 0.0
C977 C 0.64052 0.43411 0.75955 0.0
C978 C 0.62084 0.42623 0.73712 0.0
C979 C 0.60401 0.45366 0.73019 0.0
H980 H 0.45366 0.33137 0.26755 0.0
H981 H 0.44885 0.22466 0.31572 0.0
H982 H 0.49096 0.21329 0.30058 0.0
H983 H 0.50079 0.31032 0.19571 0.0
H984 H 0.51458 0.35374 0.20362 0.0
H985 H 0.48297 0.34894 0.20823 0.0
H986 H 0.48544 0.3746 0.27361 0.0
H987 H 0.51687 0.37929 0.26931 0.0
H988 H 0.5047 0.35298 0.30612 0.0
H989 H 0.53522 0.21902 0.29204 0.0
H990 H 0.57631 0.24228 0.29439 0.0
H991 H 0.55213 0.34591 0.25304 0.0
C992 C 0.46121 0.30485 0.27287 0.0
C993 C 0.44797 0.27828 0.29138 0.0
C994 C 0.4586 0.24471 0.30024 0.0
C995 C 0.48251 0.23816 0.29182 0.0
C996 C 0.4955 0.26557 0.27472 0.0
C997 C 0.48506 0.29824 0.2651 0.0
C998 C 0.50337 0.32573 0.2531 0.0
C999 C 0.50024 0.33522 0.21276 0.0
C1000 C 0.50254 0.36012 0.27697 0.0
C1001 C 0.52584 0.30426 0.25927 0.0
C1002 C 0.52104 0.26929 0.27079 0.0
C1003 C 0.53916 0.24602 0.28213 0.0
C1004 C 0.56251 0.25934 0.28319 0.0
C1005 C 0.56741 0.29577 0.2736 0.0
C1006 C 0.54894 0.31775 0.25998 0.0
H1007 H 0.60516 0.40589 0.27297 0.0
H1008 H 0.67356 0.39393 0.22203 0.0
H1009 H 0.67393 0.45982 0.20801 0.0
H1010 H 0.5827 0.48472 0.21287 0.0
H1011 H 0.56818 0.50432 0.25177 0.0
H1012 H 0.5704 0.45566 0.24744 0.0
H1013 H 0.59017 0.45247 0.3108 0.0
H1014 H 0.58838 0.50079 0.31518 0.0
H1015 H 0.61664 0.47848 0.31921 0.0
H1016 H 0.67124 0.52833 0.21487 0.0
H1017 H 0.66514 0.59023 0.23982 0.0
H1018 H 0.59785 0.5561 0.28438 0.0
C1019 C 0.6196 0.41684 0.25715 0.0
C1020 C 0.63914 0.39508 0.2481 0.0
C1021 C 0.65816 0.41024 0.22836 0.0
C1022 C 0.65851 0.44764 0.22043 0.0
C1023 C 0.63943 0.46901 0.23171 0.0
C1024 C 0.62 0.45378 0.24884 0.0
C1025 C 0.60338 0.48246 0.26324 0.0
C1026 C 0.57977 0.48175 0.24258 0.0
C1027 C 0.59946 0.47829 0.30452 0.0
C1028 C 0.61734 0.51624 0.25432 0.0
C1029 C 0.6378 0.50832 0.23531 0.0
C1030 C 0.65491 0.53496 0.22869 0.0
C1031 C 0.65134 0.57007 0.24289 0.0
C1032 C 0.63102 0.57777 0.26392 0.0
C1033 C 0.61347 0.55093 0.26814 0.0
H1034 H 0.55026 0.72032 0.35497 0.0
H1035 H 0.5718 0.704 0.24333 0.0
H1036 H 0.53012 0.71082 0.2236 0.0
H1037 H 0.50278 0.6672 0.35278 0.0
H1038 H 0.48417 0.6941 0.38204 0.0
H1039 H 0.51571 0.69731 0.38589 0.0
H1040 H 0.51356 0.76684 0.3755 0.0
H1041 H 0.48181 0.76387 0.37183 0.0
H1042 H 0.49879 0.78437 0.33582 0.0
H1043 H 0.48521 0.70531 0.21837 0.0
H1044 H 0.44283 0.69034 0.22841 0.0
H1045 H 0.45133 0.7114 0.34311 0.0
C1046 C 0.54634 0.71969 0.32619 0.0
C1047 C 0.56427 0.71187 0.30066 0.0
C1048 C 0.55841 0.7106 0.26331 0.0
C1049 C 0.53474 0.71431 0.2519 0.0
C1050 C 0.51724 0.72002 0.27812 0.0
C1051 C 0.52294 0.72346 0.3145 0.0
C1052 C 0.50102 0.72494 0.33801 0.0
C1053 C 0.50093 0.69405 0.3663 0.0
C1054 C 0.49866 0.76223 0.35636 0.0
C1055 C 0.48205 0.71957 0.30959 0.0
C1056 C 0.49156 0.71749 0.27502 0.0
C1057 C 0.47753 0.70814 0.24513 0.0
C1058 C 0.45347 0.69984 0.25094 0.0
C1059 C 0.44385 0.70089 0.28633 0.0
C1060 C 0.45819 0.71178 0.31564 0.0
H1061 H 0.41158 0.43808 0.30598 0.0
H1062 H 0.34996 0.40046 0.24694 0.0
H1063 H 0.34358 0.4629 0.22351 0.0
H1064 H 0.3877 0.51486 0.33801 0.0
H1065 H 0.41403 0.54229 0.33492 0.0
H1066 H 0.41654 0.49399 0.33967 0.0
H1067 H 0.44188 0.49111 0.28102 0.0
H1068 H 0.43939 0.53968 0.27606 0.0
H1069 H 0.43052 0.5102 0.23945 0.0
H1070 H 0.34039 0.53189 0.21551 0.0
H1071 H 0.33983 0.59849 0.22632 0.0
H1072 H 0.40307 0.5888 0.2917 0.0
C1073 C 0.39706 0.44268 0.28736 0.0
C1074 C 0.38123 0.41449 0.27835 0.0
C1075 C 0.36243 0.42165 0.25396 0.0
C1076 C 0.35872 0.45702 0.24049 0.0
C1077 C 0.37423 0.4846 0.25118 0.0
C1078 C 0.3932 0.47751 0.27381 0.0
C1079 C 0.4057 0.5119 0.28522 0.0
C1080 C 0.40597 0.51598 0.32689 0.0
C1081 C 0.43086 0.5133 0.26949 0.0
C1082 C 0.38995 0.53981 0.26747 0.0
C1083 C 0.37228 0.52381 0.24697 0.0
C1084 C 0.35447 0.54462 0.23081 0.0
C1085 C 0.35431 0.58239 0.23691 0.0
C1086 C 0.37154 0.59851 0.25958 0.0
C1087 C 0.3899 0.5771 0.2739 0.0
loop_
_geom_bond_atom_site_label_1
_geom_bond_atom_site_label_2
_geom_bond_distance
_geom_bond_site_symmetry_2
_ccdc_geom_bond_type
Co0 O1 2.216 . S
Co0 O2 2.091 . S
Co0 O4 2.004 . S
Co0 O10 2.021 . S
Co0 O12 2.137 . S
Co0 O13 2.244 . S
O1 Co0 2.216 . S
O1 C8 1.247 . S
O2 Co0 2.091 . S
O2 C8 1.261 . S
C3 O12 1.247 . S
C3 O13 1.272 . S
O4 Co0 2.004 . S
O4 C9 1.259 . S
Co5 O6 2.061 . S
Co5 O11 2.052 . S
Co5 O13 2.135 . S
O6 Co5 2.061 . S
O6 C9 1.235 . S
C7 O10 1.238 . S
C7 O11 1.241 . S
C8 O1 1.247 . S
C8 O2 1.261 . S
C9 O4 1.259 . S
C9 O6 1.235 . S
O10 Co0 2.021 . S
O10 C7 1.238 . S
O11 Co5 2.052 . S
O11 C7 1.241 . S
O12 Co0 2.137 . S
O12 C3 1.247 . S
O13 Co0 2.244 . S
O13 C3 1.272 . S
O13 Co5 2.135 . S
Co14 O15 2.216 . S
Co14 O16 2.091 . S
Co14 O18 2.004 . S
Co14 O24 2.021 . S
Co14 O26 2.137 . S
Co14 O27 2.244 . S
O15 Co14 2.216 . S
O15 C22 1.247 . S
O16 Co14 2.091 . S
O16 C22 1.261 . S
C17 O26 1.247 . S
C17 O27 1.272 . S
O18 Co14 2.004 . S
O18 C23 1.259 . S
Co19 O20 2.061 . S
Co19 O25 2.052 . S
Co19 O27 2.135 . S
O20 Co19 2.061 . S
O20 C23 1.235 . S
C21 O24 1.238 . S
C21 O25 1.241 . S
C22 O15 1.247 . S
C22 O16 1.261 . S
C23 O18 1.259 . S
C23 O20 1.235 . S
O24 Co14 2.021 . S
O24 C21 1.238 . S
O25 Co19 2.052 . S
O25 C21 1.241 . S
O26 Co14 2.137 . S
O26 C17 1.247 . S
O27 Co14 2.244 . S
O27 C17 1.272 . S
O27 Co19 2.135 . S
Co28 O29 2.216 . S
Co28 O30 2.091 . S
Co28 O32 2.004 . S
Co28 O38 2.021 . S
Co28 O40 2.137 . S
Co28 O41 2.244 . S
O29 Co28 2.216 . S
O29 C36 1.247 . S
O30 Co28 2.091 . S
O30 C36 1.261 . S
C31 O40 1.247 . S
C31 O41 1.272 . S
O32 Co28 2.004 . S
O32 C37 1.259 . S
Co33 O34 2.061 . S
Co33 O39 2.052 . S
Co33 O41 2.135 . S
O34 Co33 2.061 . S
O34 C37 1.235 . S
C35 O38 1.238 . S
C35 O39 1.241 . S
C36 O29 1.247 . S
C36 O30 1.261 . S
C37 O32 1.259 . S
C37 O34 1.235 . S
O38 Co28 2.021 . S
O38 C35 1.238 . S
O39 Co33 2.052 . S
O39 C35 1.241 . S
O40 Co28 2.137 . S
O40 C31 1.247 . S
O41 Co28 2.244 . S
O41 C31 1.272 . S
O41 Co33 2.135 . S
Co42 O43 2.216 . S
Co42 O44 2.091 . S
Co42 O46 2.004 . S
Co42 O52 2.021 . S
Co42 O54 2.137 . S
Co42 O55 2.244 . S
O43 Co42 2.216 . S
O43 C50 1.247 . S
O44 Co42 2.091 . S
O44 C50 1.261 . S
C45 O54 1.247 . S
C45 O55 1.272 . S
O46 Co42 2.004 . S
O46 C51 1.259 . S
Co47 O48 2.061 . S
Co47 O53 2.052 . S
Co47 O55 2.135 . S
O48 Co47 2.061 . S
O48 C51 1.235 . S
C49 O52 1.238 . S
C49 O53 1.241 . S
C50 O43 1.247 . S
C50 O44 1.261 . S
C51 O46 1.259 . S
C51 O48 1.235 . S
O52 Co42 2.021 . S
O52 C49 1.238 . S
O53 Co47 2.052 . S
O53 C49 1.241 . S
O54 Co42 2.137 . S
O54 C45 1.247 . S
O55 Co42 2.244 . S
O55 C45 1.272 . S
O55 Co47 2.135 . S
Co56 O57 2.216 . S
Co56 O58 2.091 . S
Co56 O60 2.004 . S
Co56 O66 2.021 . S
Co56 O68 2.137 . S
Co56 O69 2.244 . S
O57 Co56 2.216 . S
O57 C64 1.247 . S
O58 Co56 2.091 . S
O58 C64 1.261 . S
C59 O68 1.247 . S
C59 O69 1.272 . S
O60 Co56 2.004 . S
O60 C65 1.259 . S
Co61 O62 2.061 . S
Co61 O67 2.052 . S
Co61 O69 2.135 . S
O62 Co61 2.061 . S
O62 C65 1.235 . S
C63 O66 1.238 . S
C63 O67 1.241 . S
C64 O57 1.247 . S
C64 O58 1.261 . S
C65 O60 1.259 . S
C65 O62 1.235 . S
O66 Co56 2.021 . S
O66 C63 1.238 . S
O67 Co61 2.052 . S
O67 C63 1.241 . S
O68 Co56 2.137 . S
O68 C59 1.247 . S
O69 Co56 2.244 . S
O69 C59 1.272 . S
O69 Co61 2.135 . S
Co70 O71 2.216 . S
Co70 O72 2.091 . S
Co70 O74 2.004 . S
Co70 O80 2.021 . S
Co70 O82 2.137 . S
Co70 O83 2.244 . S
O71 Co70 2.216 . S
O71 C78 1.247 . S
O72 Co70 2.091 . S
O72 C78 1.261 . S
C73 O82 1.247 . S
C73 O83 1.272 . S
O74 Co70 2.004 . S
O74 C79 1.259 . S
Co75 O76 2.061 . S
Co75 O81 2.052 . S
Co75 O83 2.135 . S
O76 Co75 2.061 . S
O76 C79 1.235 . S
C77 O80 1.238 . S
C77 O81 1.241 . S
C78 O71 1.247 . S
C78 O72 1.261 . S
C79 O74 1.259 . S
C79 O76 1.235 . S
O80 Co70 2.021 . S
O80 C77 1.238 . S
O81 Co75 2.052 . S
O81 C77 1.241 . S
O82 Co70 2.137 . S
O82 C73 1.247 . S
O83 Co70 2.244 . S
O83 C73 1.272 . S
O83 Co75 2.135 . S
Co84 O85 2.216 . S
Co84 O86 2.091 . S
Co84 O88 2.004 . S
Co84 O94 2.021 . S
Co84 O96 2.137 . S
Co84 O97 2.244 . S
O85 Co84 2.216 . S
O85 C92 1.247 . S
O86 Co84 2.091 . S
O86 C92 1.261 . S
C87 O96 1.247 . S
C87 O97 1.272 . S
O88 Co84 2.004 . S
O88 C93 1.259 . S
Co89 O90 2.061 . S
Co89 O95 2.052 . S
Co89 O97 2.135 . S
O90 Co89 2.061 . S
O90 C93 1.235 . S
C91 O94 1.238 . S
C91 O95 1.241 . S
C92 O85 1.247 . S
C92 O86 1.261 . S
C93 O88 1.259 . S
C93 O90 1.235 . S
O94 Co84 2.021 . S
O94 C91 1.238 . S
O95 Co89 2.052 . S
O95 C91 1.241 . S
O96 Co84 2.137 . S
O96 C87 1.247 . S
O97 Co84 2.244 . S
O97 C87 1.272 . S
O97 Co89 2.135 . S
Co98 O99 2.216 . S
Co98 O100 2.091 . S
Co98 O102 2.004 . S
Co98 O108 2.021 . S
Co98 O110 2.137 . S
Co98 O111 2.244 . S
O99 Co98 2.216 . S
O99 C106 1.247 . S
O100 Co98 2.091 . S
O100 C106 1.261 . S
C101 O110 1.247 . S
C101 O111 1.272 . S
O102 Co98 2.004 . S
O102 C107 1.259 . S
Co103 O104 2.061 . S
Co103 O109 2.052 . S
Co103 O111 2.135 . S
O104 Co103 2.061 . S
O104 C107 1.235 . S
C105 O108 1.238 . S
C105 O109 1.241 . S
C106 O99 1.247 . S
C106 O100 1.261 . S
C107 O102 1.259 . S
C107 O104 1.235 . S
O108 Co98 2.021 . S
O108 C105 1.238 . S
O109 Co103 2.052 . S
O109 C105 1.241 . S
O110 Co98 2.137 . S
O110 C101 1.247 . S
O111 Co98 2.244 . S
O111 C101 1.272 . S
O111 Co103 2.135 . S
Co112 O113 2.216 . S
Co112 O114 2.091 . S
Co112 O116 2.004 . S
Co112 O122 2.021 . S
Co112 O124 2.137 . S
Co112 O125 2.244 . S
O113 Co112 2.216 . S
O113 C120 1.247 . S
O114 Co112 2.091 . S
O114 C120 1.261 . S
C115 O124 1.247 . S
C115 O125 1.272 . S
O116 Co112 2.004 . S
O116 C121 1.259 . S
Co117 O118 2.061 . S
Co117 O123 2.052 . S
Co117 O125 2.135 . S
O118 Co117 2.061 . S
O118 C121 1.235 . S
C119 O122 1.238 . S
C119 O123 1.241 . S
C120 O113 1.247 . S
C120 O114 1.261 . S
C121 O116 1.259 . S
C121 O118 1.235 . S
O122 Co112 2.021 . S
O122 C119 1.238 . S
O123 Co117 2.052 . S
O123 C119 1.241 . S
O124 Co112 2.137 . S
O124 C115 1.247 . S
O125 Co112 2.244 . S
O125 C115 1.272 . S
O125 Co117 2.135 . S
Co126 O127 2.216 . S
Co126 O128 2.091 . S
Co126 O130 2.004 . S
Co126 O136 2.021 . S
Co126 O138 2.137 . S
Co126 O139 2.244 . S
O127 Co126 2.216 . S
O127 C134 1.247 . S
O128 Co126 2.091 . S
O128 C134 1.261 . S
C129 O138 1.247 . S
C129 O139 1.272 . S
O130 Co126 2.004 . S
O130 C135 1.259 . S
Co131 O132 2.061 . S
Co131 O137 2.052 . S
Co131 O139 2.135 . S
O132 Co131 2.061 . S
O132 C135 1.235 . S
C133 O136 1.238 . S
C133 O137 1.241 . S
C134 O127 1.247 . S
C134 O128 1.261 . S
C135 O130 1.259 . S
C135 O132 1.235 . S
O136 Co126 2.021 . S
O136 C133 1.238 . S
O137 Co131 2.052 . S
O137 C133 1.241 . S
O138 Co126 2.137 . S
O138 C129 1.247 . S
O139 Co126 2.244 . S
O139 C129 1.272 . S
O139 Co131 2.135 . S
Co140 O141 2.216 . S
Co140 O142 2.091 . S
Co140 O144 2.004 . S
Co140 O150 2.021 . S
Co140 O152 2.137 . S
Co140 O153 2.244 . S
O141 Co140 2.216 . S
O141 C148 1.247 . S
O142 Co140 2.091 . S
O142 C148 1.261 . S
C143 O152 1.247 . S
C143 O153 1.272 . S
O144 Co140 2.004 . S
O144 C149 1.259 . S
Co145 O146 2.061 . S
Co145 O151 2.052 . S
Co145 O153 2.135 . S
O146 Co145 2.061 . S
O146 C149 1.235 . S
C147 O150 1.238 . S
C147 O151 1.241 . S
C148 O141 1.247 . S
C148 O142 1.261 . S
C149 O144 1.259 . S
C149 O146 1.235 . S
O150 Co140 2.021 . S
O150 C147 1.238 . S
O151 Co145 2.052 . S
O151 C147 1.241 . S
O152 Co140 2.137 . S
O152 C143 1.247 . S
O153 Co140 2.244 . S
O153 C143 1.272 . S
O153 Co145 2.135 . S
Co154 O155 2.216 . S
Co154 O156 2.091 . S
Co154 O158 2.004 . S
Co154 O164 2.021 . S
Co154 O166 2.137 . S
Co154 O167 2.244 . S
O155 Co154 2.216 . S
O155 C162 1.247 . S
O156 Co154 2.091 . S
O156 C162 1.261 . S
C157 O166 1.247 . S
C157 O167 1.272 . S
O158 Co154 2.004 . S
O158 C163 1.259 . S
Co159 O160 2.061 . S
Co159 O165 2.052 . S
Co159 O167 2.135 . S
O160 Co159 2.061 . S
O160 C163 1.235 . S
C161 O164 1.238 . S
C161 O165 1.241 . S
C162 O155 1.247 . S
C162 O156 1.261 . S
C163 O158 1.259 . S
C163 O160 1.235 . S
O164 Co154 2.021 . S
O164 C161 1.238 . S
O165 Co159 2.052 . S
O165 C161 1.241 . S
O166 Co154 2.137 . S
O166 C157 1.247 . S
O167 Co154 2.244 . S
O167 C157 1.272 . S
O167 Co159 2.135 . S
Co168 O169 2.216 . S
Co168 O170 2.091 . S
Co168 O172 2.004 . S
Co168 O178 2.021 . S
Co168 O180 2.137 . S
Co168 O181 2.244 . S
O169 Co168 2.216 . S
O169 C176 1.247 . S
O170 Co168 2.091 . S
O170 C176 1.261 . S
C171 O180 1.247 . S
C171 O181 1.272 . S
O172 Co168 2.004 . S
O172 C177 1.259 . S
Co173 O174 2.061 . S
Co173 O179 2.052 . S
Co173 O181 2.135 . S
O174 Co173 2.061 . S
O174 C177 1.235 . S
C175 O178 1.238 . S
C175 O179 1.241 . S
C176 O169 1.247 . S
C176 O170 1.261 . S
C177 O172 1.259 . S
C177 O174 1.235 . S
O178 Co168 2.021 . S
O178 C175 1.238 . S
O179 Co173 2.052 . S
O179 C175 1.241 . S
O180 Co168 2.137 . S
O180 C171 1.247 . S
O181 Co168 2.244 . S
O181 C171 1.272 . S
O181 Co173 2.135 . S
Co182 O183 2.216 . S
Co182 O184 2.091 . S
Co182 O186 2.004 . S
Co182 O192 2.021 . S
Co182 O194 2.137 . S
Co182 O195 2.244 . S
O183 Co182 2.216 . S
O183 C190 1.247 . S
O184 Co182 2.091 . S
O184 C190 1.261 . S
C185 O194 1.247 . S
C185 O195 1.272 . S
O186 Co182 2.004 . S
O186 C191 1.259 . S
Co187 O188 2.061 . S
Co187 O193 2.052 . S
Co187 O195 2.135 . S
O188 Co187 2.061 . S
O188 C191 1.235 . S
C189 O192 1.238 . S
C189 O193 1.241 . S
C190 O183 1.247 . S
C190 O184 1.261 . S
C191 O186 1.259 . S
C191 O188 1.235 . S
O192 Co182 2.021 . S
O192 C189 1.238 . S
O193 Co187 2.052 . S
O193 C189 1.241 . S
O194 Co182 2.137 . S
O194 C185 1.247 . S
O195 Co182 2.244 . S
O195 C185 1.272 . S
O195 Co187 2.135 . S
Co196 O197 2.216 . S
Co196 O198 2.091 . S
Co196 O200 2.004 . S
Co196 O206 2.021 . S
Co196 O208 2.137 . S
Co196 O209 2.244 . S
O197 Co196 2.216 . S
O197 C204 1.247 . S
O198 Co196 2.091 . S
O198 C204 1.261 . S
C199 O208 1.247 . S
C199 O209 1.272 . S
O200 Co196 2.004 . S
O200 C205 1.259 . S
Co201 O202 2.061 . S
Co201 O207 2.052 . S
Co201 O209 2.135 . S
O202 Co201 2.061 . S
O202 C205 1.235 . S
C203 O206 1.238 . S
C203 O207 1.241 . S
C204 O197 1.247 . S
C204 O198 1.261 . S
C205 O200 1.259 . S
C205 O202 1.235 . S
O206 Co196 2.021 . S
O206 C203 1.238 . S
O207 Co201 2.052 . S
O207 C203 1.241 . S
O208 Co196 2.137 . S
O208 C199 1.247 . S
O209 Co196 2.244 . S
O209 C199 1.272 . S
O209 Co201 2.135 . S
Co210 O211 2.216 . S
Co210 O212 2.091 . S
Co210 O214 2.004 . S
Co210 O220 2.021 . S
Co210 O222 2.137 . S
Co210 O223 2.244 . S
O211 Co210 2.216 . S
O211 C218 1.247 . S
O212 Co210 2.091 . S
O212 C218 1.261 . S
C213 O222 1.247 . S
C213 O223 1.272 . S
O214 Co210 2.004 . S
O214 C219 1.259 . S
Co215 O216 2.061 . S
Co215 O221 2.052 . S
Co215 O223 2.135 . S
O216 Co215 2.061 . S
O216 C219 1.235 . S
C217 O220 1.238 . S
C217 O221 1.241 . S
C218 O211 1.247 . S
C218 O212 1.261 . S
C219 O214 1.259 . S
C219 O216 1.235 . S
O220 Co210 2.021 . S
O220 C217 1.238 . S
O221 Co215 2.052 . S
O221 C217 1.241 . S
O222 Co210 2.137 . S
O222 C213 1.247 . S
O223 Co210 2.244 . S
O223 C213 1.272 . S
O223 Co215 2.135 . S
H224 C236 0.930 . S
H225 C238 0.930 . S
H226 C239 0.930 . S
H227 C243 0.959 . S
H228 C243 0.959 . S
H229 C243 0.961 . S
H230 C244 0.960 . S
H231 C244 0.961 . S
H232 C244 0.959 . S
H233 C247 0.929 . S
H234 C248 0.931 . S
H235 C250 0.930 . S
C236 H224 0.930 . S
C236 C237 1.399 . S
C236 C241 1.399 . S
C237 C236 1.399 . S
C237 C238 1.376 . S
C238 H225 0.930 . S
C238 C237 1.376 . S
C238 C239 1.388 . S
C239 H226 0.930 . S
C239 C238 1.388 . S
C239 C240 1.390 . S
C240 C239 1.390 . S
C240 C241 1.394 . S
C240 C246 1.465 . S
C241 C236 1.399 . S
C241 C240 1.394 . S
C241 C242 1.516 . S
C242 C241 1.516 . S
C242 C243 1.502 . S
C242 C244 1.561 . S
C242 C245 1.526 . S
C243 H227 0.959 . S
C243 H228 0.959 . S
C243 H229 0.961 . S
C243 C242 1.502 . S
C244 H230 0.960 . S
C244 H231 0.961 . S
C244 H232 0.959 . S
C244 C242 1.561 . S
C245 C242 1.526 . S
C245 C246 1.396 . S
C245 C250 1.390 . S
C246 C240 1.465 . S
C246 C245 1.396 . S
C246 C247 1.399 . S
C247 H233 0.929 . S
C247 C246 1.399 . S
C247 C248 1.385 . S
C248 H234 0.931 . S
C248 C247 1.385 . S
C248 C249 1.389 . S
C249 C248 1.389 . S
C249 C250 1.387 . S
C250 H235 0.930 . S
C250 C245 1.390 . S
C250 C249 1.387 . S
H251 C263 0.930 . S
H252 C265 0.930 . S
H253 C266 0.930 . S
H254 C270 0.959 . S
H255 C270 0.959 . S
H256 C270 0.961 . S
H257 C271 0.960 . S
H258 C271 0.961 . S
H259 C271 0.959 . S
H260 C274 0.929 . S
H261 C275 0.931 . S
H262 C277 0.930 . S
C263 H251 0.930 . S
C263 C264 1.399 . S
C263 C268 1.399 . S
C264 C263 1.399 . S
C264 C265 1.376 . S
C265 H252 0.930 . S
C265 C264 1.376 . S
C265 C266 1.388 . S
C266 H253 0.930 . S
C266 C265 1.388 . S
C266 C267 1.390 . S
C267 C266 1.390 . S
C267 C268 1.394 . S
C267 C273 1.465 . S
C268 C263 1.399 . S
C268 C267 1.394 . S
C268 C269 1.516 . S
C269 C268 1.516 . S
C269 C270 1.502 . S
C269 C271 1.561 . S
C269 C272 1.526 . S
C270 H254 0.959 . S
C270 H255 0.959 . S
C270 H256 0.961 . S
C270 C269 1.502 . S
C271 H257 0.960 . S
C271 H258 0.961 . S
C271 H259 0.959 . S
C271 C269 1.561 . S
C272 C269 1.526 . S
C272 C273 1.396 . S
C272 C277 1.390 . S
C273 C267 1.465 . S
C273 C272 1.396 . S
C273 C274 1.399 . S
C274 H260 0.929 . S
C274 C273 1.399 . S
C274 C275 1.385 . S
C275 H261 0.931 . S
C275 C274 1.385 . S
C275 C276 1.389 . S
C276 C275 1.389 . S
C276 C277 1.387 . S
C277 H262 0.930 . S
C277 C272 1.390 . S
C277 C276 1.387 . S
H278 C290 0.930 . S
H279 C292 0.930 . S
H280 C293 0.930 . S
H281 C297 0.959 . S
H282 C297 0.959 . S
H283 C297 0.961 . S
H284 C298 0.960 . S
H285 C298 0.961 . S
H286 C298 0.959 . S
H287 C301 0.929 . S
H288 C302 0.931 . S
H289 C304 0.930 . S
C290 H278 0.930 . S
C290 C291 1.399 . S
C290 C295 1.399 . S
C291 C290 1.399 . S
C291 C292 1.376 . S
C292 H279 0.930 . S
C292 C291 1.376 . S
C292 C293 1.388 . S
C293 H280 0.930 . S
C293 C292 1.388 . S
C293 C294 1.390 . S
C294 C293 1.390 . S
C294 C295 1.394 . S
C294 C300 1.465 . S
C295 C290 1.399 . S
C295 C294 1.394 . S
C295 C296 1.516 . S
C296 C295 1.516 . S
C296 C297 1.502 . S
C296 C298 1.561 . S
C296 C299 1.526 . S
C297 H281 0.959 . S
C297 H282 0.959 . S
C297 H283 0.961 . S
C297 C296 1.502 . S
C298 H284 0.960 . S
C298 H285 0.961 . S
C298 H286 0.959 . S
C298 C296 1.561 . S
C299 C296 1.526 . S
C299 C300 1.396 . S
C299 C304 1.390 . S
C300 C294 1.465 . S
C300 C299 1.396 . S
C300 C301 1.399 . S
C301 H287 0.929 . S
C301 C300 1.399 . S
C301 C302 1.385 . S
C302 H288 0.931 . S
C302 C301 1.385 . S
C302 C303 1.389 . S
C303 C302 1.389 . S
C303 C304 1.387 . S
C304 H289 0.930 . S
C304 C299 1.390 . S
C304 C303 1.387 . S
H305 C317 0.930 . S
H306 C319 0.930 . S
H307 C320 0.930 . S
H308 C324 0.959 . S
H309 C324 0.959 . S
H310 C324 0.961 . S
H311 C325 0.960 . S
H312 C325 0.961 . S
H313 C325 0.959 . S
H314 C328 0.929 . S
H315 C329 0.931 . S
H316 C331 0.930 . S
C317 H305 0.930 . S
C317 C318 1.399 . S
C317 C322 1.399 . S
C318 C317 1.399 . S
C318 C319 1.376 . S
C319 H306 0.930 . S
C319 C318 1.376 . S
C319 C320 1.388 . S
C320 H307 0.930 . S
C320 C319 1.388 . S
C320 C321 1.390 . S
C321 C320 1.390 . S
C321 C322 1.394 . S
C321 C327 1.465 . S
C322 C317 1.399 . S
C322 C321 1.394 . S
C322 C323 1.516 . S
C323 C322 1.516 . S
C323 C324 1.502 . S
C323 C325 1.561 . S
C323 C326 1.526 . S
C324 H308 0.959 . S
C324 H309 0.959 . S
C324 H310 0.961 . S
C324 C323 1.502 . S
C325 H311 0.960 . S
C325 H312 0.961 . S
C325 H313 0.959 . S
C325 C323 1.561 . S
C326 C323 1.526 . S
C326 C327 1.396 . S
C326 C331 1.390 . S
C327 C321 1.465 . S
C327 C326 1.396 . S
C327 C328 1.399 . S
C328 H314 0.929 . S
C328 C327 1.399 . S
C328 C329 1.385 . S
C329 H315 0.931 . S
C329 C328 1.385 . S
C329 C330 1.389 . S
C330 C329 1.389 . S
C330 C331 1.387 . S
C331 H316 0.930 . S
C331 C326 1.390 . S
C331 C330 1.387 . S
H332 C344 0.930 . S
H333 C346 0.930 . S
H334 C347 0.930 . S
H335 C351 0.959 . S
H336 C351 0.959 . S
H337 C351 0.961 . S
H338 C352 0.960 . S
H339 C352 0.961 . S
H340 C352 0.959 . S
H341 C355 0.929 . S
H342 C356 0.931 . S
H343 C358 0.930 . S
C344 H332 0.930 . S
C344 C345 1.399 . S
C344 C349 1.399 . S
C345 C344 1.399 . S
C345 C346 1.376 . S
C346 H333 0.930 . S
C346 C345 1.376 . S
C346 C347 1.388 . S
C347 H334 0.930 . S
C347 C346 1.388 . S
C347 C348 1.390 . S
C348 C347 1.390 . S
C348 C349 1.394 . S
C348 C354 1.465 . S
C349 C344 1.399 . S
C349 C348 1.394 . S
C349 C350 1.516 . S
C350 C349 1.516 . S
C350 C351 1.502 . S
C350 C352 1.561 . S
C350 C353 1.526 . S
C351 H335 0.959 . S
C351 H336 0.959 . S
C351 H337 0.961 . S
C351 C350 1.502 . S
C352 H338 0.960 . S
C352 H339 0.961 . S
C352 H340 0.959 . S
C352 C350 1.561 . S
C353 C350 1.526 . S
C353 C354 1.396 . S
C353 C358 1.390 . S
C354 C348 1.465 . S
C354 C353 1.396 . S
C354 C355 1.399 . S
C355 H341 0.929 . S
C355 C354 1.399 . S
C355 C356 1.385 . S
C356 H342 0.931 . S
C356 C355 1.385 . S
C356 C357 1.389 . S
C357 C356 1.389 . S
C357 C358 1.387 . S
C358 H343 0.930 . S
C358 C353 1.390 . S
C358 C357 1.387 . S
H359 C371 0.930 . S
H360 C373 0.930 . S
H361 C374 0.930 . S
H362 C378 0.959 . S
H363 C378 0.959 . S
H364 C378 0.961 . S
H365 C379 0.960 . S
H366 C379 0.961 . S
H367 C379 0.959 . S
H368 C382 0.929 . S
H369 C383 0.931 . S
H370 C385 0.930 . S
C371 H359 0.930 . S
C371 C372 1.399 . S
C371 C376 1.399 . S
C372 C371 1.399 . S
C372 C373 1.376 . S
C373 H360 0.930 . S
C373 C372 1.376 . S
C373 C374 1.388 . S
C374 H361 0.930 . S
C374 C373 1.388 . S
C374 C375 1.390 . S
C375 C374 1.390 . S
C375 C376 1.394 . S
C375 C381 1.465 . S
C376 C371 1.399 . S
C376 C375 1.394 . S
C376 C377 1.516 . S
C377 C376 1.516 . S
C377 C378 1.502 . S
C377 C379 1.561 . S
C377 C380 1.526 . S
C378 H362 0.959 . S
C378 H363 0.959 . S
C378 H364 0.961 . S
C378 C377 1.502 . S
C379 H365 0.960 . S
C379 H366 0.961 . S
C379 H367 0.959 . S
C379 C377 1.561 . S
C380 C377 1.526 . S
C380 C381 1.396 . S
C380 C385 1.390 . S
C381 C375 1.465 . S
C381 C380 1.396 . S
C381 C382 1.399 . S
C382 H368 0.929 . S
C382 C381 1.399 . S
C382 C383 1.385 . S
C383 H369 0.931 . S
C383 C382 1.385 . S
C383 C384 1.389 . S
C384 C383 1.389 . S
C384 C385 1.387 . S
C385 H370 0.930 . S
C385 C380 1.390 . S
C385 C384 1.387 . S
H386 C398 0.930 . S
H387 C400 0.930 . S
H388 C401 0.930 . S
H389 C405 0.959 . S
H390 C405 0.959 . S
H391 C405 0.961 . S
H392 C406 0.960 . S
H393 C406 0.961 . S
H394 C406 0.959 . S
H395 C409 0.929 . S
H396 C410 0.931 . S
H397 C412 0.930 . S
C398 H386 0.930 . S
C398 C399 1.399 . S
C398 C403 1.399 . S
C399 C398 1.399 . S
C399 C400 1.376 . S
C400 H387 0.930 . S
C400 C399 1.376 . S
C400 C401 1.388 . S
C401 H388 0.930 . S
C401 C400 1.388 . S
C401 C402 1.390 . S
C402 C401 1.390 . S
C402 C403 1.394 . S
C402 C408 1.465 . S
C403 C398 1.399 . S
C403 C402 1.394 . S
C403 C404 1.516 . S
C404 C403 1.516 . S
C404 C405 1.502 . S
C404 C406 1.561 . S
C404 C407 1.526 . S
C405 H389 0.959 . S
C405 H390 0.959 . S
C405 H391 0.961 . S
C405 C404 1.502 . S
C406 H392 0.960 . S
C406 H393 0.961 . S
C406 H394 0.959 . S
C406 C404 1.561 . S
C407 C404 1.526 . S
C407 C408 1.396 . S
C407 C412 1.390 . S
C408 C402 1.465 . S
C408 C407 1.396 . S
C408 C409 1.399 . S
C409 H395 0.929 . S
C409 C408 1.399 . S
C409 C410 1.385 . S
C410 H396 0.931 . S
C410 C409 1.385 . S
C410 C411 1.389 . S
C411 C410 1.389 . S
C411 C412 1.387 . S
C412 H397 0.930 . S
C412 C407 1.390 . S
C412 C411 1.387 . S
H413 C425 0.930 . S
H414 C427 0.930 . S
H415 C428 0.930 . S
H416 C432 0.959 . S
H417 C432 0.959 . S
H418 C432 0.961 . S
H419 C433 0.960 . S
H420 C433 0.961 . S
H421 C433 0.959 . S
H422 C436 0.929 . S
H423 C437 0.931 . S
H424 C439 0.930 . S
C425 H413 0.930 . S
C425 C426 1.399 . S
C425 C430 1.399 . S
C426 C425 1.399 . S
C426 C427 1.376 . S
C427 H414 0.930 . S
C427 C426 1.376 . S
C427 C428 1.388 . S
C428 H415 0.930 . S
C428 C427 1.388 . S
C428 C429 1.390 . S
C429 C428 1.390 . S
C429 C430 1.394 . S
C429 C435 1.465 . S
C430 C425 1.399 . S
C430 C429 1.394 . S
C430 C431 1.516 . S
C431 C430 1.516 . S
C431 C432 1.502 . S
C431 C433 1.561 . S
C431 C434 1.526 . S
C432 H416 0.959 . S
C432 H417 0.959 . S
C432 H418 0.961 . S
C432 C431 1.502 . S
C433 H419 0.960 . S
C433 H420 0.961 . S
C433 H421 0.959 . S
C433 C431 1.561 . S
C434 C431 1.526 . S
C434 C435 1.396 . S
C434 C439 1.390 . S
C435 C429 1.465 . S
C435 C434 1.396 . S
C435 C436 1.399 . S
C436 H422 0.929 . S
C436 C435 1.399 . S
C436 C437 1.385 . S
C437 H423 0.931 . S
C437 C436 1.385 . S
C437 C438 1.389 . S
C438 C437 1.389 . S
C438 C439 1.387 . S
C439 H424 0.930 . S
C439 C434 1.390 . S
C439 C438 1.387 . S
H440 C452 0.930 . S
H441 C454 0.930 . S
H442 C455 0.930 . S
H443 C459 0.959 1_554 S
H444 C459 0.955 1_554 S
H445 C459 0.965 . S
H446 C460 0.960 . S
H447 C460 0.961 1_554 S
H448 C460 0.958 1_554 S
H449 C463 0.929 . S
H450 C464 0.931 . S
H451 C466 0.930 . S
C452 H440 0.930 . S
C452 C453 1.399 . S
C452 C457 1.399 . S
C453 C452 1.399 . S
C453 C454 1.376 . S
C454 H441 0.930 . S
C454 C453 1.376 . S
C454 C455 1.388 . S
C455 H442 0.930 . S
C455 C454 1.388 . S
C455 C456 1.390 . S
C456 C455 1.390 . S
C456 C457 1.394 . S
C456 C462 1.465 1_556 S
C457 C452 1.399 . S
C457 C456 1.394 . S
C457 C458 1.516 . S
C458 C457 1.516 . S
C458 C459 1.502 . S
C458 C460 1.561 . S
C458 C461 1.526 1_556 S
C459 H443 0.959 1_556 S
C459 H444 0.955 1_556 S
C459 H445 0.965 . S
C459 C458 1.502 . S
C460 H446 0.960 . S
C460 H447 0.961 1_556 S
C460 H448 0.958 1_556 S
C460 C458 1.561 . S
C461 C458 1.526 1_554 S
C461 C462 1.396 . S
C461 C466 1.390 . S
C462 C456 1.465 1_554 S
C462 C461 1.396 . S
C462 C463 1.399 . S
C463 H449 0.929 . S
C463 C462 1.399 . S
C463 C464 1.385 . S
C464 H450 0.931 . S
C464 C463 1.385 . S
C464 C465 1.389 . S
C465 C464 1.389 . S
C465 C466 1.387 . S
C466 H451 0.930 . S
C466 C461 1.390 . S
C466 C465 1.387 . S
H467 C479 0.930 . S
H468 C481 0.930 . S
H469 C482 0.930 . S
H470 C486 0.959 . S
H471 C486 0.959 . S
H472 C486 0.961 1_556 S
H473 C487 0.960 1_556 S
H474 C487 0.961 . S
H475 C487 0.959 . S
H476 C490 0.929 . S
H477 C491 0.931 . S
H478 C493 0.930 . S
C479 H467 0.930 . S
C479 C480 1.399 . S
C479 C484 1.399 . S
C480 C479 1.399 . S
C480 C481 1.376 . S
C481 H468 0.930 . S
C481 C480 1.376 . S
C481 C482 1.388 . S
C482 H469 0.930 . S
C482 C481 1.388 . S
C482 C483 1.390 . S
C483 C482 1.390 . S
C483 C484 1.394 . S
C483 C489 1.465 1_556 S
C484 C479 1.399 . S
C484 C483 1.394 . S
C484 C485 1.516 1_556 S
C485 C484 1.516 1_554 S
C485 C486 1.502 . S
C485 C487 1.561 . S
C485 C488 1.526 . S
C486 H470 0.959 . S
C486 H471 0.959 . S
C486 H472 0.961 1_554 S
C486 C485 1.502 . S
C487 H473 0.960 1_554 S
C487 H474 0.961 . S
C487 H475 0.959 . S
C487 C485 1.561 . S
C488 C485 1.526 . S
C488 C489 1.396 . S
C488 C493 1.390 . S
C489 C483 1.465 1_554 S
C489 C488 1.396 . S
C489 C490 1.399 . S
C490 H476 0.929 . S
C490 C489 1.399 . S
C490 C491 1.385 . S
C491 H477 0.931 . S
C491 C490 1.385 . S
C491 C492 1.389 . S
C492 C491 1.389 . S
C492 C493 1.387 . S
C493 H478 0.930 . S
C493 C488 1.390 . S
C493 C492 1.387 . S
H494 C506 0.930 . S
H495 C508 0.930 . S
H496 C509 0.930 . S
H497 C513 0.961 . S
H498 C513 0.959 1_554 S
H499 C513 0.961 . S
H500 C514 0.960 . S
H501 C514 0.961 1_554 S
H502 C514 0.962 . S
H503 C517 0.929 . S
H504 C518 0.931 . S
H505 C520 0.930 . S
C506 H494 0.930 . S
C506 C507 1.399 . S
C506 C511 1.399 . S
C507 C506 1.399 . S
C507 C508 1.376 . S
C508 H495 0.930 . S
C508 C507 1.376 . S
C508 C509 1.388 . S
C509 H496 0.930 . S
C509 C508 1.388 . S
C509 C510 1.390 . S
C510 C509 1.390 . S
C510 C511 1.394 . S
C510 C516 1.465 1_556 S
C511 C506 1.399 . S
C511 C510 1.394 . S
C511 C512 1.516 . S
C512 C511 1.516 . S
C512 C513 1.502 . S
C512 C514 1.561 . S
C512 C515 1.526 1_556 S
C513 H497 0.961 . S
C513 H498 0.959 1_556 S
C513 H499 0.961 . S
C513 C512 1.502 . S
C514 H500 0.960 . S
C514 H501 0.961 1_556 S
C514 H502 0.962 . S
C514 C512 1.561 . S
C515 C512 1.526 1_554 S
C515 C516 1.396 . S
C515 C520 1.390 . S
C516 C510 1.465 1_554 S
C516 C515 1.396 . S
C516 C517 1.399 . S
C517 H503 0.929 . S
C517 C516 1.399 . S
C517 C518 1.385 . S
C518 H504 0.931 . S
C518 C517 1.385 . S
C518 C519 1.389 . S
C519 C518 1.389 . S
C519 C520 1.387 . S
C520 H505 0.930 . S
C520 C515 1.390 . S
C520 C519 1.387 . S
H521 C533 0.930 . S
H522 C535 0.930 . S
H523 C536 0.930 . S
H524 C540 0.961 . S
H525 C540 0.959 1_556 S
H526 C540 0.961 . S
H527 C541 0.960 . S
H528 C541 0.961 1_556 S
H529 C541 0.962 . S
H530 C544 0.929 . S
H531 C545 0.931 . S
H532 C547 0.930 . S
C533 H521 0.930 . S
C533 C534 1.399 . S
C533 C538 1.399 . S
C534 C533 1.399 . S
C534 C535 1.376 . S
C535 H522 0.930 . S
C535 C534 1.376 . S
C535 C536 1.388 . S
C536 H523 0.930 . S
C536 C535 1.388 . S
C536 C537 1.390 . S
C537 C536 1.390 . S
C537 C538 1.394 . S
C537 C543 1.465 1_554 S
C538 C533 1.399 . S
C538 C537 1.394 . S
C538 C539 1.516 . S
C539 C538 1.516 . S
C539 C540 1.502 . S
C539 C541 1.561 . S
C539 C542 1.526 1_554 S
C540 H524 0.961 . S
C540 H525 0.959 1_554 S
C540 H526 0.961 . S
C540 C539 1.502 . S
C541 H527 0.960 . S
C541 H528 0.961 1_554 S
C541 H529 0.962 . S
C541 C539 1.561 . S
C542 C539 1.526 1_556 S
C542 C543 1.396 . S
C542 C547 1.390 . S
C543 C537 1.465 1_556 S
C543 C542 1.396 . S
C543 C544 1.399 . S
C544 H530 0.929 . S
C544 C543 1.399 . S
C544 C545 1.385 . S
C545 H531 0.931 . S
C545 C544 1.385 . S
C545 C546 1.389 . S
C546 C545 1.389 . S
C546 C547 1.387 . S
C547 H532 0.930 . S
C547 C542 1.390 . S
C547 C546 1.387 . S
H548 C560 0.930 . S
H549 C562 0.930 . S
H550 C563 0.930 . S
H551 C567 0.959 . S
H552 C567 0.959 . S
H553 C567 0.961 1_455 S
H554 C568 0.929 1_455 S
H555 C568 0.990 . S
H556 C568 0.962 . S
H557 C571 0.929 . S
H558 C572 0.931 . S
H559 C574 0.930 . S
C560 H548 0.930 . S
C560 C561 1.399 . S
C560 C565 1.399 . S
C561 C560 1.399 . S
C561 C562 1.376 . S
C562 H549 0.930 . S
C562 C561 1.376 . S
C562 C563 1.388 . S
C563 H550 0.930 . S
C563 C562 1.388 . S
C563 C564 1.390 . S
C564 C563 1.390 . S
C564 C565 1.394 . S
C564 C570 1.465 1_455 S
C565 C560 1.399 . S
C565 C564 1.394 . S
C565 C566 1.492 1_455 S
C566 C565 1.492 1_655 S
C566 C567 1.503 . S
C566 C568 1.561 . S
C566 C569 1.549 . S
C567 H551 0.959 . S
C567 H552 0.959 . S
C567 H553 0.961 1_655 S
C567 C566 1.503 . S
C568 H554 0.929 1_655 S
C568 H555 0.990 . S
C568 H556 0.962 . S
C568 C566 1.561 . S
C569 C566 1.549 . S
C569 C570 1.396 . S
C569 C574 1.390 . S
C570 C564 1.465 1_655 S
C570 C569 1.396 . S
C570 C571 1.399 . S
C571 H557 0.929 . S
C571 C570 1.399 . S
C571 C572 1.385 . S
C572 H558 0.931 . S
C572 C571 1.385 . S
C572 C573 1.389 . S
C573 C572 1.389 . S
C573 C574 1.387 . S
C574 H559 0.930 . S
C574 C569 1.390 . S
C574 C573 1.387 . S
H575 C587 0.930 . S
H576 C589 0.930 . S
H577 C590 0.930 . S
H578 C594 0.959 1_545 S
H579 C594 0.950 1_545 S
H580 C594 0.970 . S
H581 C595 0.986 . S
H582 C595 0.937 1_545 S
H583 C595 0.957 1_545 S
H584 C598 0.929 . S
H585 C599 0.931 . S
H586 C601 0.930 . S
C587 H575 0.930 . S
C587 C588 1.399 . S
C587 C592 1.399 . S
C588 C587 1.399 . S
C588 C589 1.376 . S
C589 H576 0.930 . S
C589 C588 1.376 . S
C589 C590 1.388 . S
C590 H577 0.930 . S
C590 C589 1.388 . S
C590 C591 1.390 . S
C591 C590 1.390 . S
C591 C592 1.394 . S
C591 C597 1.465 1_565 S
C592 C587 1.399 . S
C592 C591 1.394 . S
C592 C593 1.516 . S
C593 C592 1.516 . S
C593 C594 1.502 . S
C593 C595 1.562 . S
C593 C596 1.526 1_565 S
C594 H578 0.959 1_565 S
C594 H579 0.950 1_565 S
C594 H580 0.970 . S
C594 C593 1.502 . S
C595 H581 0.986 . S
C595 H582 0.937 1_565 S
C595 H583 0.957 1_565 S
C595 C593 1.562 . S
C596 C593 1.526 1_545 S
C596 C597 1.396 . S
C596 C601 1.390 . S
C597 C591 1.465 1_545 S
C597 C596 1.396 . S
C597 C598 1.399 . S
C598 H584 0.929 . S
C598 C597 1.399 . S
C598 C599 1.385 . S
C599 H585 0.931 . S
C599 C598 1.385 . S
C599 C600 1.389 . S
C600 C599 1.389 . S
C600 C601 1.387 . S
C601 H586 0.930 . S
C601 C596 1.390 . S
C601 C600 1.387 . S
H602 C614 0.930 . S
H603 C616 0.930 . S
H604 C617 0.930 . S
H605 C621 0.964 . S
H606 C621 1.000 . S
H607 C621 0.918 1_655 S
H608 C622 0.960 1_655 S
H609 C622 0.961 . S
H610 C622 0.959 . S
H611 C625 0.929 . S
H612 C626 0.931 . S
H613 C628 0.930 . S
C614 H602 0.930 . S
C614 C615 1.399 . S
C614 C619 1.399 . S
C615 C614 1.399 . S
C615 C616 1.376 . S
C616 H603 0.930 . S
C616 C615 1.376 . S
C616 C617 1.388 . S
C617 H604 0.930 . S
C617 C616 1.388 . S
C617 C618 1.390 . S
C618 C617 1.390 . S
C618 C619 1.394 . S
C618 C624 1.465 1_655 S
C619 C614 1.399 . S
C619 C618 1.394 . S
C619 C620 1.495 1_655 S
C620 C619 1.495 1_455 S
C620 C621 1.502 . S
C620 C622 1.562 . S
C620 C623 1.546 . S
C621 H605 0.964 . S
C621 H606 1.000 . S
C621 H607 0.918 1_455 S
C621 C620 1.502 . S
C622 H608 0.960 1_455 S
C622 H609 0.961 . S
C622 H610 0.959 . S
C622 C620 1.562 . S
C623 C620 1.546 . S
C623 C624 1.396 . S
C623 C628 1.390 . S
C624 C618 1.465 1_455 S
C624 C623 1.396 . S
C624 C625 1.399 . S
C625 H611 0.929 . S
C625 C624 1.399 . S
C625 C626 1.385 . S
C626 H612 0.931 . S
C626 C625 1.385 . S
C626 C627 1.389 . S
C627 C626 1.389 . S
C627 C628 1.387 . S
C628 H613 0.930 . S
C628 C623 1.390 . S
C628 C627 1.387 . S
H629 C641 0.930 . S
H630 C643 0.930 . S
H631 C644 0.930 . S
H632 C648 0.959 1_565 S
H633 C648 0.954 1_565 S
H634 C648 0.966 . S
H635 C649 0.960 . S
H636 C649 0.961 1_565 S
H637 C649 0.958 1_565 S
H638 C652 0.929 . S
H639 C653 0.931 . S
H640 C655 0.930 . S
C641 H629 0.930 . S
C641 C642 1.399 . S
C641 C646 1.399 . S
C642 C641 1.399 . S
C642 C643 1.376 . S
C643 H630 0.930 . S
C643 C642 1.376 . S
C643 C644 1.388 . S
C644 H631 0.930 . S
C644 C643 1.388 . S
C644 C645 1.390 . S
C645 C644 1.390 . S
C645 C646 1.394 . S
C645 C651 1.465 1_545 S
C646 C641 1.399 . S
C646 C645 1.394 . S
C646 C647 1.516 . S
C647 C646 1.516 . S
C647 C648 1.502 . S
C647 C649 1.561 . S
C647 C650 1.526 1_545 S
C648 H632 0.959 1_545 S
C648 H633 0.954 1_545 S
C648 H634 0.966 . S
C648 C647 1.502 . S
C649 H635 0.960 . S
C649 H636 0.961 1_545 S
C649 H637 0.958 1_545 S
C649 C647 1.561 . S
C650 C647 1.526 1_565 S
C650 C651 1.396 . S
C650 C655 1.390 . S
C651 C645 1.465 1_565 S
C651 C650 1.396 . S
C651 C652 1.399 . S
C652 H638 0.929 . S
C652 C651 1.399 . S
C652 C653 1.385 . S
C653 H639 0.931 . S
C653 C652 1.385 . S
C653 C654 1.389 . S
C654 C653 1.389 . S
C654 C655 1.387 . S
C655 H640 0.930 . S
C655 C650 1.390 . S
C655 C654 1.387 . S
H656 C668 0.930 . S
H657 C670 0.930 . S
H658 C671 0.930 . S
H659 C675 0.959 . S
H660 C675 0.959 . S
H661 C675 0.961 1_655 S
H662 C676 0.957 1_655 S
H663 C676 0.964 . S
H664 C676 0.959 . S
H665 C679 0.929 . S
H666 C680 0.931 . S
H667 C682 0.930 . S
C668 H656 0.930 . S
C668 C669 1.399 . S
C668 C673 1.399 . S
C669 C668 1.399 . S
C669 C670 1.376 . S
C670 H657 0.930 . S
C670 C669 1.376 . S
C670 C671 1.388 . S
C671 H658 0.930 . S
C671 C670 1.388 . S
C671 C672 1.390 . S
C672 C671 1.390 . S
C672 C673 1.394 . S
C672 C678 1.465 1_655 S
C673 C668 1.399 . S
C673 C672 1.394 . S
C673 C674 1.503 1_655 S
C674 C673 1.503 1_455 S
C674 C675 1.502 . S
C674 C676 1.561 . S
C674 C677 1.538 . S
C675 H659 0.959 . S
C675 H660 0.959 . S
C675 H661 0.961 1_455 S
C675 C674 1.502 . S
C676 H662 0.957 1_455 S
C676 H663 0.964 . S
C676 H664 0.959 . S
C676 C674 1.561 . S
C677 C674 1.538 . S
C677 C678 1.396 . S
C677 C682 1.390 . S
C678 C672 1.465 1_455 S
C678 C677 1.396 . S
C678 C679 1.399 . S
C679 H665 0.929 . S
C679 C678 1.399 . S
C679 C680 1.385 . S
C680 H666 0.931 . S
C680 C679 1.385 . S
C680 C681 1.389 . S
C681 C680 1.389 . S
C681 C682 1.387 . S
C682 H667 0.930 . S
C682 C677 1.390 . S
C682 C681 1.387 . S
H683 C695 0.930 . S
H684 C697 0.930 . S
H685 C698 0.930 . S
H686 C702 0.959 1_545 S
H687 C702 0.953 1_545 S
H688 C702 0.967 . S
H689 C703 0.960 . S
H690 C703 0.961 1_545 S
H691 C703 0.957 1_545 S
H692 C706 0.929 . S
H693 C707 0.931 . S
H694 C709 0.930 . S
C695 H683 0.930 . S
C695 C696 1.399 . S
C695 C700 1.399 . S
C696 C695 1.399 . S
C696 C697 1.376 . S
C697 H684 0.930 . S
C697 C696 1.376 . S
C697 C698 1.388 . S
C698 H685 0.930 . S
C698 C697 1.388 . S
C698 C699 1.390 . S
C699 C698 1.390 . S
C699 C700 1.394 . S
C699 C705 1.465 1_565 S
C700 C695 1.399 . S
C700 C699 1.394 . S
C700 C701 1.516 . S
C701 C700 1.516 . S
C701 C702 1.502 . S
C701 C703 1.561 . S
C701 C704 1.526 1_565 S
C702 H686 0.959 1_565 S
C702 H687 0.953 1_565 S
C702 H688 0.967 . S
C702 C701 1.502 . S
C703 H689 0.960 . S
C703 H690 0.961 1_565 S
C703 H691 0.957 1_565 S
C703 C701 1.561 . S
C704 C701 1.526 1_545 S
C704 C705 1.396 . S
C704 C709 1.390 . S
C705 C699 1.465 1_545 S
C705 C704 1.396 . S
C705 C706 1.399 . S
C706 H692 0.929 . S
C706 C705 1.399 . S
C706 C707 1.385 . S
C707 H693 0.931 . S
C707 C706 1.385 . S
C707 C708 1.389 . S
C708 C707 1.389 . S
C708 C709 1.387 . S
C709 H694 0.930 . S
C709 C704 1.390 . S
C709 C708 1.387 . S
H710 C722 0.930 . S
H711 C724 0.930 . S
H712 C725 0.930 . S
H713 C729 0.959 . S
H714 C729 0.959 . S
H715 C729 0.961 1_455 S
H716 C730 0.962 1_455 S
H717 C730 0.959 . S
H718 C730 0.959 . S
H719 C733 0.929 . S
H720 C734 0.931 . S
H721 C736 0.930 . S
C722 H710 0.930 . S
C722 C723 1.399 . S
C722 C727 1.399 . S
C723 C722 1.399 . S
C723 C724 1.376 . S
C724 H711 0.930 . S
C724 C723 1.376 . S
C724 C725 1.388 . S
C725 H712 0.930 . S
C725 C724 1.388 . S
C725 C726 1.390 . S
C726 C725 1.390 . S
C726 C727 1.394 . S
C726 C732 1.465 1_455 S
C727 C722 1.399 . S
C727 C726 1.394 . S
C727 C728 1.505 1_455 S
C728 C727 1.505 1_655 S
C728 C729 1.502 . S
C728 C730 1.561 . S
C728 C731 1.536 . S
C729 H713 0.959 . S
C729 H714 0.959 . S
C729 H715 0.961 1_655 S
C729 C728 1.502 . S
C730 H716 0.962 1_655 S
C730 H717 0.959 . S
C730 H718 0.959 . S
C730 C728 1.561 . S
C731 C728 1.536 . S
C731 C732 1.396 . S
C731 C736 1.390 . S
C732 C726 1.465 1_655 S
C732 C731 1.396 . S
C732 C733 1.399 . S
C733 H719 0.929 . S
C733 C732 1.399 . S
C733 C734 1.385 . S
C734 H720 0.931 . S
C734 C733 1.385 . S
C734 C735 1.389 . S
C735 C734 1.389 . S
C735 C736 1.387 . S
C736 H721 0.930 . S
C736 C731 1.390 . S
C736 C735 1.387 . S
H737 C749 0.930 . S
H738 C751 0.930 . S
H739 C752 0.930 . S
H740 C756 0.959 . S
H741 C756 0.959 . S
H742 C756 0.961 1_565 S
H743 C757 0.960 1_565 S
H744 C757 0.961 . S
H745 C757 0.959 . S
H746 C760 0.929 . S
H747 C761 0.931 . S
H748 C763 0.930 . S
C749 H737 0.930 . S
C749 C750 1.399 . S
C749 C754 1.399 . S
C750 C749 1.399 . S
C750 C751 1.376 . S
C751 H738 0.930 . S
C751 C750 1.376 . S
C751 C752 1.388 . S
C752 H739 0.930 . S
C752 C751 1.388 . S
C752 C753 1.390 . S
C753 C752 1.390 . S
C753 C754 1.394 . S
C753 C759 1.465 1_565 S
C754 C749 1.399 . S
C754 C753 1.394 . S
C754 C755 1.516 1_565 S
C755 C754 1.516 1_545 S
C755 C756 1.502 . S
C755 C757 1.561 . S
C755 C758 1.526 . S
C756 H740 0.959 . S
C756 H741 0.959 . S
C756 H742 0.961 1_545 S
C756 C755 1.502 . S
C757 H743 0.960 1_545 S
C757 H744 0.961 . S
C757 H745 0.959 . S
C757 C755 1.561 . S
C758 C755 1.526 . S
C758 C759 1.396 . S
C758 C763 1.390 . S
C759 C753 1.465 1_545 S
C759 C758 1.396 . S
C759 C760 1.399 . S
C760 H746 0.929 . S
C760 C759 1.399 . S
C760 C761 1.385 . S
C761 H747 0.931 . S
C761 C760 1.385 . S
C761 C762 1.389 . S
C762 C761 1.389 . S
C762 C763 1.387 . S
C763 H748 0.930 . S
C763 C758 1.390 . S
C763 C762 1.387 . S
H764 C776 0.930 . S
H765 C778 0.930 . S
H766 C779 0.930 . S
H767 C783 0.959 . S
H768 C783 0.959 . S
H769 C783 0.961 . S
H770 C784 0.960 . S
H771 C784 0.961 . S
H772 C784 0.959 . S
H773 C787 0.929 . S
H774 C788 0.931 . S
H775 C790 0.930 . S
C776 H764 0.930 . S
C776 C777 1.399 . S
C776 C781 1.399 . S
C777 C776 1.399 . S
C777 C778 1.376 . S
C778 H765 0.930 . S
C778 C777 1.376 . S
C778 C779 1.388 . S
C779 H766 0.930 . S
C779 C778 1.388 . S
C779 C780 1.390 . S
C780 C779 1.390 . S
C780 C781 1.394 . S
C780 C786 1.465 . S
C781 C776 1.399 . S
C781 C780 1.394 . S
C781 C782 1.516 . S
C782 C781 1.516 . S
C782 C783 1.502 . S
C782 C784 1.561 . S
C782 C785 1.526 . S
C783 H767 0.959 . S
C783 H768 0.959 . S
C783 H769 0.961 . S
C783 C782 1.502 . S
C784 H770 0.960 . S
C784 H771 0.961 . S
C784 H772 0.959 . S
C784 C782 1.561 . S
C785 C782 1.526 . S
C785 C786 1.396 . S
C785 C790 1.390 . S
C786 C780 1.465 . S
C786 C785 1.396 . S
C786 C787 1.399 . S
C787 H773 0.929 . S
C787 C786 1.399 . S
C787 C788 1.385 . S
C788 H774 0.931 . S
C788 C787 1.385 . S
C788 C789 1.389 . S
C789 C788 1.389 . S
C789 C790 1.387 . S
C790 H775 0.930 . S
C790 C785 1.390 . S
C790 C789 1.387 . S
H791 C803 0.930 . S
H792 C805 0.930 . S
H793 C806 0.930 . S
H794 C810 0.959 . S
H795 C810 0.959 . S
H796 C810 0.961 . S
H797 C811 0.960 . S
H798 C811 0.961 . S
H799 C811 0.959 . S
H800 C814 0.929 . S
H801 C815 0.931 . S
H802 C817 0.930 . S
C803 H791 0.930 . S
C803 C804 1.399 . S
C803 C808 1.399 . S
C804 C803 1.399 . S
C804 C805 1.376 . S
C805 H792 0.930 . S
C805 C804 1.376 . S
C805 C806 1.388 . S
C806 H793 0.930 . S
C806 C805 1.388 . S
C806 C807 1.390 . S
C807 C806 1.390 . S
C807 C808 1.394 . S
C807 C813 1.465 . S
C808 C803 1.399 . S
C808 C807 1.394 . S
C808 C809 1.516 . S
C809 C808 1.516 . S
C809 C810 1.502 . S
C809 C811 1.561 . S
C809 C812 1.526 . S
C810 H794 0.959 . S
C810 H795 0.959 . S
C810 H796 0.961 . S
C810 C809 1.502 . S
C811 H797 0.960 . S
C811 H798 0.961 . S
C811 H799 0.959 . S
C811 C809 1.561 . S
C812 C809 1.526 . S
C812 C813 1.396 . S
C812 C817 1.390 . S
C813 C807 1.465 . S
C813 C812 1.396 . S
C813 C814 1.399 . S
C814 H800 0.929 . S
C814 C813 1.399 . S
C814 C815 1.385 . S
C815 H801 0.931 . S
C815 C814 1.385 . S
C815 C816 1.389 . S
C816 C815 1.389 . S
C816 C817 1.387 . S
C817 H802 0.930 . S
C817 C812 1.390 . S
C817 C816 1.387 . S
H818 C830 0.930 . S
H819 C832 0.930 . S
H820 C833 0.930 . S
H821 C837 0.959 . S
H822 C837 0.959 . S
H823 C837 0.961 . S
H824 C838 0.960 . S
H825 C838 0.961 . S
H826 C838 0.959 . S
H827 C841 0.929 . S
H828 C842 0.931 . S
H829 C844 0.930 . S
C830 H818 0.930 . S
C830 C831 1.399 . S
C830 C835 1.399 . S
C831 C830 1.399 . S
C831 C832 1.376 . S
C832 H819 0.930 . S
C832 C831 1.376 . S
C832 C833 1.388 . S
C833 H820 0.930 . S
C833 C832 1.388 . S
C833 C834 1.390 . S
C834 C833 1.390 . S
C834 C835 1.394 . S
C834 C840 1.465 . S
C835 C830 1.399 . S
C835 C834 1.394 . S
C835 C836 1.516 . S
C836 C835 1.516 . S
C836 C837 1.502 . S
C836 C838 1.561 . S
C836 C839 1.526 . S
C837 H821 0.959 . S
C837 H822 0.959 . S
C837 H823 0.961 . S
C837 C836 1.502 . S
C838 H824 0.960 . S
C838 H825 0.961 . S
C838 H826 0.959 . S
C838 C836 1.561 . S
C839 C836 1.526 . S
C839 C840 1.396 . S
C839 C844 1.390 . S
C840 C834 1.465 . S
C840 C839 1.396 . S
C840 C841 1.399 . S
C841 H827 0.929 . S
C841 C840 1.399 . S
C841 C842 1.385 . S
C842 H828 0.931 . S
C842 C841 1.385 . S
C842 C843 1.389 . S
C843 C842 1.389 . S
C843 C844 1.387 . S
C844 H829 0.930 . S
C844 C839 1.390 . S
C844 C843 1.387 . S
H845 C857 0.930 . S
H846 C859 0.930 . S
H847 C860 0.930 . S
H848 C864 0.959 . S
H849 C864 0.959 . S
H850 C864 0.961 . S
H851 C865 0.960 . S
H852 C865 0.961 . S
H853 C865 0.959 . S
H854 C868 0.929 . S
H855 C869 0.931 . S
H856 C871 0.930 . S
C857 H845 0.930 . S
C857 C858 1.399 . S
C857 C862 1.399 . S
C858 C857 1.399 . S
C858 C859 1.376 . S
C859 H846 0.930 . S
C859 C858 1.376 . S
C859 C860 1.388 . S
C860 H847 0.930 . S
C860 C859 1.388 . S
C860 C861 1.390 . S
C861 C860 1.390 . S
C861 C862 1.394 . S
C861 C867 1.465 . S
C862 C857 1.399 . S
C862 C861 1.394 . S
C862 C863 1.516 . S
C863 C862 1.516 . S
C863 C864 1.502 . S
C863 C865 1.561 . S
C863 C866 1.526 . S
C864 H848 0.959 . S
C864 H849 0.959 . S
C864 H850 0.961 . S
C864 C863 1.502 . S
C865 H851 0.960 . S
C865 H852 0.961 . S
C865 H853 0.959 . S
C865 C863 1.561 . S
C866 C863 1.526 . S
C866 C867 1.396 . S
C866 C871 1.390 . S
C867 C861 1.465 . S
C867 C866 1.396 . S
C867 C868 1.399 . S
C868 H854 0.929 . S
C868 C867 1.399 . S
C868 C869 1.385 . S
C869 H855 0.931 . S
C869 C868 1.385 . S
C869 C870 1.389 . S
C870 C869 1.389 . S
C870 C871 1.387 . S
C871 H856 0.930 . S
C871 C866 1.390 . S
C871 C870 1.387 . S
H872 C884 0.930 . S
H873 C886 0.930 . S
H874 C887 0.930 . S
H875 C891 0.959 . S
H876 C891 0.959 . S
H877 C891 0.961 . S
H878 C892 0.960 . S
H879 C892 0.961 . S
H880 C892 0.959 . S
H881 C895 0.929 . S
H882 C896 0.931 . S
H883 C898 0.930 . S
C884 H872 0.930 . S
C884 C885 1.399 . S
C884 C889 1.399 . S
C885 C884 1.399 . S
C885 C886 1.376 . S
C886 H873 0.930 . S
C886 C885 1.376 . S
C886 C887 1.388 . S
C887 H874 0.930 . S
C887 C886 1.388 . S
C887 C888 1.390 . S
C888 C887 1.390 . S
C888 C889 1.394 . S
C888 C894 1.465 . S
C889 C884 1.399 . S
C889 C888 1.394 . S
C889 C890 1.516 . S
C890 C889 1.516 . S
C890 C891 1.502 . S
C890 C892 1.561 . S
C890 C893 1.526 . S
C891 H875 0.959 . S
C891 H876 0.959 . S
C891 H877 0.961 . S
C891 C890 1.502 . S
C892 H878 0.960 . S
C892 H879 0.961 . S
C892 H880 0.959 . S
C892 C890 1.561 . S
C893 C890 1.526 . S
C893 C894 1.396 . S
C893 C898 1.390 . S
C894 C888 1.465 . S
C894 C893 1.396 . S
C894 C895 1.399 . S
C895 H881 0.929 . S
C895 C894 1.399 . S
C895 C896 1.385 . S
C896 H882 0.931 . S
C896 C895 1.385 . S
C896 C897 1.389 . S
C897 C896 1.389 . S
C897 C898 1.387 . S
C898 H883 0.930 . S
C898 C893 1.390 . S
C898 C897 1.387 . S
H899 C911 0.930 . S
H900 C913 0.930 . S
H901 C914 0.930 . S
H902 C918 0.959 . S
H903 C918 0.959 . S
H904 C918 0.961 . S
H905 C919 0.960 . S
H906 C919 0.961 . S
H907 C919 0.959 . S
H908 C922 0.929 . S
H909 C923 0.931 . S
H910 C925 0.930 . S
C911 H899 0.930 . S
C911 C912 1.399 . S
C911 C916 1.399 . S
C912 C911 1.399 . S
C912 C913 1.376 . S
C913 H900 0.930 . S
C913 C912 1.376 . S
C913 C914 1.388 . S
C914 H901 0.930 . S
C914 C913 1.388 . S
C914 C915 1.390 . S
C915 C914 1.390 . S
C915 C916 1.394 . S
C915 C921 1.465 . S
C916 C911 1.399 . S
C916 C915 1.394 . S
C916 C917 1.516 . S
C917 C916 1.516 . S
C917 C918 1.502 . S
C917 C919 1.561 . S
C917 C920 1.526 . S
C918 H902 0.959 . S
C918 H903 0.959 . S
C918 H904 0.961 . S
C918 C917 1.502 . S
C919 H905 0.960 . S
C919 H906 0.961 . S
C919 H907 0.959 . S
C919 C917 1.561 . S
C920 C917 1.526 . S
C920 C921 1.396 . S
C920 C925 1.390 . S
C921 C915 1.465 . S
C921 C920 1.396 . S
C921 C922 1.399 . S
C922 H908 0.929 . S
C922 C921 1.399 . S
C922 C923 1.385 . S
C923 H909 0.931 . S
C923 C922 1.385 . S
C923 C924 1.389 . S
C924 C923 1.389 . S
C924 C925 1.387 . S
C925 H910 0.930 . S
C925 C920 1.390 . S
C925 C924 1.387 . S
H926 C938 0.930 . S
H927 C940 0.930 . S
H928 C941 0.930 . S
H929 C945 0.959 . S
H930 C945 0.959 . S
H931 C945 0.961 . S
H932 C946 0.960 . S
H933 C946 0.961 . S
H934 C946 0.959 . S
H935 C949 0.929 . S
H936 C950 0.931 . S
H937 C952 0.930 . S
C938 H926 0.930 . S
C938 C939 1.399 . S
C938 C943 1.399 . S
C939 C938 1.399 . S
C939 C940 1.376 . S
C940 H927 0.930 . S
C940 C939 1.376 . S
C940 C941 1.388 . S
C941 H928 0.930 . S
C941 C940 1.388 . S
C941 C942 1.390 . S
C942 C941 1.390 . S
C942 C943 1.394 . S
C942 C948 1.465 . S
C943 C938 1.399 . S
C943 C942 1.394 . S
C943 C944 1.516 . S
C944 C943 1.516 . S
C944 C945 1.502 . S
C944 C946 1.561 . S
C944 C947 1.526 . S
C945 H929 0.959 . S
C945 H930 0.959 . S
C945 H931 0.961 . S
C945 C944 1.502 . S
C946 H932 0.960 . S
C946 H933 0.961 . S
C946 H934 0.959 . S
C946 C944 1.561 . S
C947 C944 1.526 . S
C947 C948 1.396 . S
C947 C952 1.390 . S
C948 C942 1.465 . S
C948 C947 1.396 . S
C948 C949 1.399 . S
C949 H935 0.929 . S
C949 C948 1.399 . S
C949 C950 1.385 . S
C950 H936 0.931 . S
C950 C949 1.385 . S
C950 C951 1.389 . S
C951 C950 1.389 . S
C951 C952 1.387 . S
C952 H937 0.930 . S
C952 C947 1.390 . S
C952 C951 1.387 . S
H953 C965 0.930 . S
H954 C967 0.930 . S
H955 C968 0.930 . S
H956 C972 0.959 . S
H957 C972 0.959 . S
H958 C972 0.961 . S
H959 C973 0.960 . S
H960 C973 0.961 . S
H961 C973 0.959 . S
H962 C976 0.929 . S
H963 C977 0.931 . S
H964 C979 0.930 . S
C965 H953 0.930 . S
C965 C966 1.399 . S
C965 C970 1.399 . S
C966 C965 1.399 . S
C966 C967 1.376 . S
C967 H954 0.930 . S
C967 C966 1.376 . S
C967 C968 1.388 . S
C968 H955 0.930 . S
C968 C967 1.388 . S
C968 C969 1.390 . S
C969 C968 1.390 . S
C969 C970 1.394 . S
C969 C975 1.465 . S
C970 C965 1.399 . S
C970 C969 1.394 . S
C970 C971 1.516 . S
C971 C970 1.516 . S
C971 C972 1.502 . S
C971 C973 1.561 . S
C971 C974 1.526 . S
C972 H956 0.959 . S
C972 H957 0.959 . S
C972 H958 0.961 . S
C972 C971 1.502 . S
C973 H959 0.960 . S
C973 H960 0.961 . S
C973 H961 0.959 . S
C973 C971 1.561 . S
C974 C971 1.526 . S
C974 C975 1.396 . S
C974 C979 1.390 . S
C975 C969 1.465 . S
C975 C974 1.396 . S
C975 C976 1.399 . S
C976 H962 0.929 . S
C976 C975 1.399 . S
C976 C977 1.385 . S
C977 H963 0.931 . S
C977 C976 1.385 . S
C977 C978 1.389 . S
C978 C977 1.389 . S
C978 C979 1.387 . S
C979 H964 0.930 . S
C979 C974 1.390 . S
C979 C978 1.387 . S
H980 C992 0.930 . S
H981 C994 0.930 . S
H982 C995 0.930 . S
H983 C999 0.959 . S
H984 C999 0.959 . S
H985 C999 0.961 . S
H986 C1000 0.960 . S
H987 C1000 0.961 . S
H988 C1000 0.959 . S
H989 C1003 0.929 . S
H990 C1004 0.931 . S
H991 C1006 0.930 . S
C992 H980 0.930 . S
C992 C993 1.399 . S
C992 C997 1.399 . S
C993 C992 1.399 . S
C993 C994 1.376 . S
C994 H981 0.930 . S
C994 C993 1.376 . S
C994 C995 1.388 . S
C995 H982 0.930 . S
C995 C994 1.388 . S
C995 C996 1.390 . S
C996 C995 1.390 . S
C996 C997 1.394 . S
C996 C1002 1.465 . S
C997 C992 1.399 . S
C997 C996 1.394 . S
C997 C998 1.516 . S
C998 C997 1.516 . S
C998 C999 1.502 . S
C998 C1000 1.561 . S
C998 C1001 1.526 . S
C999 H983 0.959 . S
C999 H984 0.959 . S
C999 H985 0.961 . S
C999 C998 1.502 . S
C1000 H986 0.960 . S
C1000 H987 0.961 . S
C1000 H988 0.959 . S
C1000 C998 1.561 . S
C1001 C998 1.526 . S
C1001 C1002 1.396 . S
C1001 C1006 1.390 . S
C1002 C996 1.465 . S
C1002 C1001 1.396 . S
C1002 C1003 1.399 . S
C1003 H989 0.929 . S
C1003 C1002 1.399 . S
C1003 C1004 1.385 . S
C1004 H990 0.931 . S
C1004 C1003 1.385 . S
C1004 C1005 1.389 . S
C1005 C1004 1.389 . S
C1005 C1006 1.387 . S
C1006 H991 0.930 . S
C1006 C1001 1.390 . S
C1006 C1005 1.387 . S
H1007 C1019 0.930 . S
H1008 C1021 0.930 . S
H1009 C1022 0.930 . S
H1010 C1026 0.959 . S
H1011 C1026 0.959 . S
H1012 C1026 0.961 . S
H1013 C1027 0.960 . S
H1014 C1027 0.961 . S
H1015 C1027 0.959 . S
H1016 C1030 0.929 . S
H1017 C1031 0.931 . S
H1018 C1033 0.930 . S
C1019 H1007 0.930 . S
C1019 C1020 1.399 . S
C1019 C1024 1.399 . S
C1020 C1019 1.399 . S
C1020 C1021 1.376 . S
C1021 H1008 0.930 . S
C1021 C1020 1.376 . S
C1021 C1022 1.388 . S
C1022 H1009 0.930 . S
C1022 C1021 1.388 . S
C1022 C1023 1.390 . S
C1023 C1022 1.390 . S
C1023 C1024 1.394 . S
C1023 C1029 1.465 . S
C1024 C1019 1.399 . S
C1024 C1023 1.394 . S
C1024 C1025 1.516 . S
C1025 C1024 1.516 . S
C1025 C1026 1.502 . S
C1025 C1027 1.561 . S
C1025 C1028 1.526 . S
C1026 H1010 0.959 . S
C1026 H1011 0.959 . S
C1026 H1012 0.961 . S
C1026 C1025 1.502 . S
C1027 H1013 0.960 . S
C1027 H1014 0.961 . S
C1027 H1015 0.959 . S
C1027 C1025 1.561 . S
C1028 C1025 1.526 . S
C1028 C1029 1.396 . S
C1028 C1033 1.390 . S
C1029 C1023 1.465 . S
C1029 C1028 1.396 . S
C1029 C1030 1.399 . S
C1030 H1016 0.929 . S
C1030 C1029 1.399 . S
C1030 C1031 1.385 . S
C1031 H1017 0.931 . S
C1031 C1030 1.385 . S
C1031 C1032 1.389 . S
C1032 C1031 1.389 . S
C1032 C1033 1.387 . S
C1033 H1018 0.930 . S
C1033 C1028 1.390 . S
C1033 C1032 1.387 . S
H1034 C1046 0.930 . S
H1035 C1048 0.930 . S
H1036 C1049 0.930 . S
H1037 C1053 0.959 . S
H1038 C1053 0.959 . S
H1039 C1053 0.961 . S
H1040 C1054 0.960 . S
H1041 C1054 0.961 . S
H1042 C1054 0.959 . S
H1043 C1057 0.929 . S
H1044 C1058 0.931 . S
H1045 C1060 0.930 . S
C1046 H1034 0.930 . S
C1046 C1047 1.399 . S
C1046 C1051 1.399 . S
C1047 C1046 1.399 . S
C1047 C1048 1.376 . S
C1048 H1035 0.930 . S
C1048 C1047 1.376 . S
C1048 C1049 1.388 . S
C1049 H1036 0.930 . S
C1049 C1048 1.388 . S
C1049 C1050 1.390 . S
C1050 C1049 1.390 . S
C1050 C1051 1.394 . S
C1050 C1056 1.465 . S
C1051 C1046 1.399 . S
C1051 C1050 1.394 . S
C1051 C1052 1.516 . S
C1052 C1051 1.516 . S
C1052 C1053 1.502 . S
C1052 C1054 1.561 . S
C1052 C1055 1.526 . S
C1053 H1037 0.959 . S
C1053 H1038 0.959 . S
C1053 H1039 0.961 . S
C1053 C1052 1.502 . S
C1054 H1040 0.960 . S
C1054 H1041 0.961 . S
C1054 H1042 0.959 . S
C1054 C1052 1.561 . S
C1055 C1052 1.526 . S
C1055 C1056 1.396 . S
C1055 C1060 1.390 . S
C1056 C1050 1.465 . S
C1056 C1055 1.396 . S
C1056 C1057 1.399 . S
C1057 H1043 0.929 . S
C1057 C1056 1.399 . S
C1057 C1058 1.385 . S
C1058 H1044 0.931 . S
C1058 C1057 1.385 . S
C1058 C1059 1.389 . S
C1059 C1058 1.389 . S
C1059 C1060 1.387 . S
C1060 H1045 0.930 . S
C1060 C1055 1.390 . S
C1060 C1059 1.387 . S
H1061 C1073 0.930 . S
H1062 C1075 0.930 . S
H1063 C1076 0.930 . S
H1064 C1080 0.959 . S
H1065 C1080 0.959 . S
H1066 C1080 0.961 . S
H1067 C1081 0.960 . S
H1068 C1081 0.961 . S
H1069 C1081 0.959 . S
H1070 C1084 0.929 . S
H1071 C1085 0.931 . S
H1072 C1087 0.930 . S
C1073 H1061 0.930 . S
C1073 C1074 1.399 . S
C1073 C1078 1.399 . S
C1074 C1073 1.399 . S
C1074 C1075 1.376 . S
C1075 H1062 0.930 . S
C1075 C1074 1.376 . S
C1075 C1076 1.388 . S
C1076 H1063 0.930 . S
C1076 C1075 1.388 . S
C1076 C1077 1.390 . S
C1077 C1076 1.390 . S
C1077 C1078 1.394 . S
C1077 C1083 1.465 . S
C1078 C1073 1.399 . S
C1078 C1077 1.394 . S
C1078 C1079 1.516 . S
C1079 C1078 1.516 . S
C1079 C1080 1.502 . S
C1079 C1081 1.561 . S
C1079 C1082 1.526 . S
C1080 H1064 0.959 . S
C1080 H1065 0.959 . S
C1080 H1066 0.961 . S
C1080 C1079 1.502 . S
C1081 H1067 0.960 . S
C1081 H1068 0.961 . S
C1081 H1069 0.959 . S
C1081 C1079 1.561 . S
C1082 C1079 1.526 . S
C1082 C1083 1.396 . S
C1082 C1087 1.390 . S
C1083 C1077 1.465 . S
C1083 C1082 1.396 . S
C1083 C1084 1.399 . S
C1084 H1070 0.929 . S
C1084 C1083 1.399 . S
C1084 C1085 1.385 . S
C1085 H1071 0.931 . S
C1085 C1084 1.385 . S
C1085 C1086 1.389 . S
C1086 C1085 1.389 . S
C1086 C1087 1.387 . S
C1087 H1072 0.930 . S
C1087 C1082 1.390 . S
C1087 C1086 1.387 . S
C237 C218 1.273 . S
C249 C8 1.224 . S
C264 C176 1.222 . S
C276 C22 1.277 . S
C291 C36 1.261 . S
C303 C190 1.233 . S
C318 C204 1.272 . S
C330 C50 1.224 . S
C345 C134 1.222 . S
C357 C64 1.277 . S
C372 C78 1.250 . S
C384 C148 1.256 . S
C399 C92 1.254 . S
C411 C162 1.239 . S
C426 C106 1.277 . S
C438 C120 1.222 . S
C453 C73 1.662 . S
C465 C7 1.605 . S
C480 C91 1.575 . S
C492 C17 1.663 . S
C507 C101 1.641 . S
C519 C35 1.517 . S
C534 C45 1.642 . S
C546 C63 1.517 . S
C561 C9 1.243 . S
C573 C23 1.267 . S
C588 C31 1.659 . S
C600 C21 1.605 . S
C615 C37 1.202 . S
C627 C51 1.214 . S
C642 C3 1.662 . S
C654 C49 1.605 . S
C669 C107 1.268 . S
C681 C65 1.286 . S
C696 C59 1.661 . S
C708 C77 1.606 . S
C723 C79 1.271 . S
C735 C93 1.288 . S
C750 C105 1.543 . S
C762 C87 1.638 . S
C777 C185 1.662 . S
C789 C119 1.605 . S
C804 C129 1.660 . S
C816 C203 1.606 . S
C831 C213 1.639 . S
C843 C147 1.518 . S
C858 C175 1.576 . S
C870 C157 1.664 . S
C885 C121 1.212 . S
C897 C135 1.203 . S
C912 C133 1.562 . S
C924 C143 1.661 . S
C939 C163 1.209 . S
C951 C149 1.203 . S
C966 C115 1.660 . S
C978 C161 1.605 . S
C993 C219 1.277 . S
C1005 C177 1.291 . S
C1020 C171 1.660 . S
C1032 C189 1.606 . S
C1047 C191 1.292 . S
C1059 C205 1.293 . S
C1074 C217 1.561 . S
C1086 C199 1.641 . S
