# Generated by pormake.
# Topology zfx, (5)-cn, num edge types: 1
# Building blocks:
#     Node 0, Type 0, BuildingBlock: XOMCOT_clean_sbu_0, # of connection points: 5
#     Node 1, Type 0, BuildingBlock: XOMCOT_clean_sbu_0, # of connection points: 5
#     Node 2, Type 0, BuildingBlock: XOMCOT_clean_sbu_0, # of connection points: 5
#     Node 3, Type 0, BuildingBlock: XOMCOT_clean_sbu_0, # of connection points: 5
#     Node 4, Type 0, BuildingBlock: XOMCOT_clean_sbu_0, # of connection points: 5
#     Node 5, Type 0, BuildingBlock: XOMCOT_clean_sbu_0, # of connection points: 5
#     Node 6, Type 0, BuildingBlock: XOMCOT_clean_sbu_0, # of connection points: 5
#     Node 7, Type 0, BuildingBlock: XOMCOT_clean_sbu_0, # of connection points: 5
#     Node 8, Type 0, BuildingBlock: XOMCOT_clean_sbu_0, # of connection points: 5
#     Node 9, Type 0, BuildingBlock: XOMCOT_clean_sbu_0, # of connection points: 5
#     Node 10, Type 0, BuildingBlock: XOMCOT_clean_sbu_0, # of connection points: 5
#     Node 11, Type 0, BuildingBlock: XOMCOT_clean_sbu_0, # of connection points: 5
#     Node 12, Type 0, BuildingBlock: XOMCOT_clean_sbu_0, # of connection points: 5
#     Node 13, Type 0, BuildingBlock: XOMCOT_clean_sbu_0, # of connection points: 5
#     Node 14, Type 0, BuildingBlock: XOMCOT_clean_sbu_0, # of connection points: 5
#     Node 15, Type 0, BuildingBlock: XOMCOT_clean_sbu_0, # of connection points: 5
#     Edge 16, Type (0, 0), BuildingBlock: CIFDUS_clean_linker_0, # of connection points: 2
#     Edge 17, Type (0, 0), BuildingBlock: CIFDUS_clean_linker_0, # of connection points: 2
#     Edge 18, Type (0, 0), BuildingBlock: CIFDUS_clean_linker_0, # of connection points: 2
#     Edge 19, Type (0, 0), BuildingBlock: CIFDUS_clean_linker_0, # of connection points: 2
#     Edge 20, Type (0, 0), BuildingBlock: CIFDUS_clean_linker_0, # of connection points: 2
#     Edge 21, Type (0, 0), BuildingBlock: CIFDUS_clean_linker_0, # of connection points: 2
#     Edge 22, Type (0, 0), BuildingBlock: CIFDUS_clean_linker_0, # of connection points: 2
#     Edge 23, Type (0, 0), BuildingBlock: CIFDUS_clean_linker_0, # of connection points: 2
#     Edge 24, Type (0, 0), BuildingBlock: CIFDUS_clean_linker_0, # of connection points: 2
#     Edge 25, Type (0, 0), BuildingBlock: CIFDUS_clean_linker_0, # of connection points: 2
#     Edge 26, Type (0, 0), BuildingBlock: CIFDUS_clean_linker_0, # of connection points: 2
#     Edge 27, Type (0, 0), BuildingBlock: CIFDUS_clean_linker_0, # of connection points: 2
#     Edge 28, Type (0, 0), BuildingBlock: CIFDUS_clean_linker_0, # of connection points: 2
#     Edge 29, Type (0, 0), BuildingBlock: CIFDUS_clean_linker_0, # of connection points: 2
#     Edge 30, Type (0, 0), BuildingBlock: CIFDUS_clean_linker_0, # of connection points: 2
#     Edge 31, Type (0, 0), BuildingBlock: CIFDUS_clean_linker_0, # of connection points: 2
#     Edge 32, Type (0, 0), BuildingBlock: CIFDUS_clean_linker_0, # of connection points: 2
#     Edge 33, Type (0, 0), BuildingBlock: CIFDUS_clean_linker_0, # of connection points: 2
#     Edge 34, Type (0, 0), BuildingBlock: CIFDUS_clean_linker_0, # of connection points: 2
#     Edge 35, Type (0, 0), BuildingBlock: CIFDUS_clean_linker_0, # of connection points: 2
#     Edge 36, Type (0, 0), BuildingBlock: CIFDUS_clean_linker_0, # of connection points: 2
#     Edge 37, Type (0, 0), BuildingBlock: CIFDUS_clean_linker_0, # of connection points: 2
#     Edge 38, Type (0, 0), BuildingBlock: CIFDUS_clean_linker_0, # of connection points: 2
#     Edge 39, Type (0, 0), BuildingBlock: CIFDUS_clean_linker_0, # of connection points: 2
#     Edge 40, Type (0, 0), BuildingBlock: CIFDUS_clean_linker_0, # of connection points: 2
#     Edge 41, Type (0, 0), BuildingBlock: CIFDUS_clean_linker_0, # of connection points: 2
#     Edge 42, Type (0, 0), BuildingBlock: CIFDUS_clean_linker_0, # of connection points: 2
#     Edge 43, Type (0, 0), BuildingBlock: CIFDUS_clean_linker_0, # of connection points: 2
#     Edge 44, Type (0, 0), BuildingBlock: CIFDUS_clean_linker_0, # of connection points: 2
#     Edge 45, Type (0, 0), BuildingBlock: CIFDUS_clean_linker_0, # of connection points: 2
#     Edge 46, Type (0, 0), BuildingBlock: CIFDUS_clean_linker_0, # of connection points: 2
#     Edge 47, Type (0, 0), BuildingBlock: CIFDUS_clean_linker_0, # of connection points: 2
#     Edge 48, Type (0, 0), BuildingBlock: CIFDUS_clean_linker_0, # of connection points: 2
#     Edge 49, Type (0, 0), BuildingBlock: CIFDUS_clean_linker_0, # of connection points: 2
#     Edge 50, Type (0, 0), BuildingBlock: CIFDUS_clean_linker_0, # of connection points: 2
#     Edge 51, Type (0, 0), BuildingBlock: CIFDUS_clean_linker_0, # of connection points: 2
#     Edge 52, Type (0, 0), BuildingBlock: CIFDUS_clean_linker_0, # of connection points: 2
#     Edge 53, Type (0, 0), BuildingBlock: CIFDUS_clean_linker_0, # of connection points: 2
#     Edge 54, Type (0, 0), BuildingBlock: CIFDUS_clean_linker_0, # of connection points: 2
#     Edge 55, Type (0, 0), BuildingBlock: CIFDUS_clean_linker_0, # of connection points: 2
# Relax obj value: 0.373
# Max RMSD: 0.229
# Mean RMSD: 0.229
data_MOF--net-zfx--node1-XOMCOT_clean_sbu_0--edge1-CIFDUS_clean_linker_0
_symmetry_space_group_name_H-M    P1
_symmetry_Int_Tables_number       1
_symmetry_cell_setting            triclinic
loop_
_symmetry_equiv_pos_as_xyz
'x, y, z'
_cell_length_a     55.779506
_cell_length_b     55.724858
_cell_length_c     20.91232
_cell_angle_alpha  90.135151
_cell_angle_beta   89.816579
_cell_angle_gamma 89.944648
loop_
_atom_site_label
_atom_site_type_symbol
_atom_site_fract_x
_atom_site_fract_y
_atom_site_fract_z
_atom_type_partial_charge
Co0 Co 0.53664 0.16633 0.41655 0.0
C1 C 0.58082 0.1515 0.48619 0.0
C2 C 0.58203 0.18772 0.4521 0.0
C3 C 0.60371 0.18229 0.47908 0.0
N4 N 0.56763 0.16844 0.45664 0.0
N5 N 0.60304 0.15942 0.50049 0.0
H6 H 0.5745 0.13378 0.49738 0.0
H7 H 0.57716 0.20451 0.42978 0.0
C8 C 0.57409 0.16651 0.31065 0.0
O9 O 0.58637 0.15093 0.3444 0.0
N10 N 0.50621 0.16522 0.3734 0.0
C11 C 0.48904 0.14822 0.37435 0.0
C12 C 0.47417 0.15171 0.32225 0.0
C13 C 0.50137 0.17888 0.32216 0.0
N14 N 0.48231 0.1708 0.28901 0.0
C15 C 0.5328 0.11912 0.46839 0.0
C16 C 0.54773 0.09192 0.36578 0.0
C17 C 0.54326 0.08027 0.42461 0.0
C18 C 0.53492 0.09442 0.4751 0.0
C19 C 0.54513 0.1172 0.36073 0.0
N20 N 0.53889 0.13076 0.41296 0.0
H21 H 0.52717 0.12869 0.51038 0.0
H22 H 0.54819 0.12562 0.31503 0.0
H23 H 0.48839 0.13332 0.40731 0.0
H24 H 0.51271 0.19358 0.3071 0.0
O25 O 0.52107 0.16834 0.49956 0.0
O26 O 0.53008 0.2001 0.44321 0.0
O27 O 0.55304 0.17269 0.32965 0.0
C28 C 0.52145 0.1914 0.49638 0.0
H29 H 0.61832 0.19481 0.48534 0.0
H30 H 0.45976 0.14 0.30729 0.0
H31 H 0.55348 0.08172 0.32437 0.0
H32 H 0.53 0.08653 0.52056 0.0
Co33 Co 0.12415 0.2735 0.68148 0.0
C34 C 0.13915 0.31813 0.74635 0.0
C35 C 0.10302 0.32027 0.71188 0.0
C36 C 0.10881 0.34171 0.74039 0.0
N37 N 0.12223 0.30569 0.71468 0.0
N38 N 0.1316 0.34042 0.76203 0.0
H39 H 0.15623 0.31066 0.76012 0.0
H40 H 0.08599 0.31561 0.69064 0.0
C41 C 0.12007 0.30761 0.56574 0.0
O42 O 0.12902 0.32538 0.59928 0.0
N43 N 0.12562 0.24095 0.64807 0.0
C44 C 0.1255 0.22022 0.68148 0.0
C45 C 0.12274 0.20131 0.63963 0.0
C46 C 0.12329 0.23423 0.58636 0.0
N47 N 0.12139 0.21024 0.57999 0.0
C48 C 0.17093 0.25969 0.7213 0.0
C49 C 0.1974 0.29461 0.66066 0.0
C50 C 0.20915 0.2801 0.70629 0.0
C51 C 0.19544 0.26181 0.73449 0.0
C52 C 0.17287 0.29133 0.64722 0.0
N53 N 0.15953 0.27483 0.67993 0.0
H54 H 0.16092 0.24614 0.74656 0.0
H55 H 0.16471 0.30296 0.6129 0.0
H56 H 0.12622 0.21879 0.73296 0.0
H57 H 0.12141 0.24652 0.54683 0.0
O58 O 0.12038 0.26167 0.76896 0.0
O59 O 0.09032 0.26818 0.70324 0.0
O60 O 0.11929 0.28628 0.58951 0.0
C61 C 0.0974 0.26107 0.75945 0.0
H62 H 0.09651 0.35644 0.74857 0.0
H63 H 0.12091 0.18257 0.65221 0.0
H64 H 0.20665 0.30906 0.63667 0.0
H65 H 0.2033 0.24918 0.76753 0.0
Co66 Co 0.02324 0.86315 0.92656 0.0
C67 C 0.97778 0.87846 0.98795 0.0
C68 C 0.97672 0.84193 0.95527 0.0
C69 C 0.95481 0.84771 0.98083 0.0
N70 N 0.99097 0.86134 0.95885 0.0
N71 N 0.95535 0.87077 1.0012 0.0
H72 H 0.98469 0.89588 1.00102 0.0
H73 H 0.98185 0.82482 0.93493 0.0
C74 C 0.98967 0.85821 0.80902 0.0
O75 O 0.9712 0.86698 0.8403 0.0
N76 N 0.05582 0.86452 0.8936 0.0
C77 C 0.07653 0.86664 0.92656 0.0
C78 C 0.09558 0.86368 0.88509 0.0
C79 C 0.06268 0.86077 0.83256 0.0
N80 N 0.08668 0.86012 0.82613 0.0
C81 C 0.03605 0.90974 0.96962 0.0
C82 C 1.00353 0.93691 0.90222 0.0
C83 C 0.01684 0.94815 0.95114 0.0
C84 C 0.03379 0.93416 0.98322 0.0
C85 C 1.00641 0.9121 0.88981 0.0
N86 N 0.02192 0.89855 0.92528 0.0
H87 H 0.04883 0.89968 0.99715 0.0
H88 H 0.99541 0.90388 0.85382 0.0
H89 H 0.0779 0.86958 0.97742 0.0
H90 H 0.05056 0.85746 0.79355 0.0
O91 O 0.03527 0.85956 1.01341 0.0
O92 O 0.02822 0.82914 0.94893 0.0
O93 O 1.0107 0.85825 0.8346 0.0
C94 C 0.03567 0.83655 1.00457 0.0
H95 H 0.94013 0.83526 0.98727 0.0
H96 H 0.11442 0.86375 0.89736 0.0
H97 H 0.99038 0.94694 0.87528 0.0
H98 H 0.04524 0.94194 0.01949 0.0
Co99 Co 0.42956 0.75843 0.14797 0.0
C100 C 0.41842 0.71908 0.2373 0.0
C101 C 0.43689 0.70623 0.154 0.0
C102 C 0.4305 0.68688 0.19065 0.0
N103 N 0.429 0.72639 0.18288 0.0
N104 N 0.41875 0.69488 0.24312 0.0
H105 H 0.4107 0.73142 0.27159 0.0
H106 H 0.44664 0.70541 0.10934 0.0
C107 C 0.42177 0.73592 1.0152 0.0
O108 O 0.39857 0.73964 0.01862 0.0
N109 N 0.43113 0.7904 0.11016 0.0
C110 C 0.43761 0.81135 0.13787 0.0
C111 C 0.43754 0.82917 0.09232 0.0
C112 C 0.4271 0.79599 0.04836 0.0
N113 N 0.43099 0.81943 0.03594 0.0
C114 C 0.383 0.77991 0.16059 0.0
C115 C 0.35717 0.73797 0.1725 0.0
C116 C 0.34675 0.7594 0.19521 0.0
C117 C 0.35954 0.78067 0.18391 0.0
C118 C 0.38051 0.73812 0.14619 0.0
N119 N 0.39398 0.75874 0.14458 0.0
H120 H 0.39277 0.79651 0.16148 0.0
H121 H 0.38828 0.72115 0.13209 0.0
H122 H 0.44219 0.81378 0.18759 0.0
H123 H 0.42221 0.78308 1.01235 0.0
O124 O 0.43209 0.77168 0.2339 0.0
O125 O 0.46309 0.7616 0.17358 0.0
O126 O 0.43546 0.74358 0.05976 0.0
C127 C 0.45523 0.77005 0.22802 0.0
H128 H 0.43485 0.66841 0.17973 0.0
H129 H 0.44227 0.84777 0.10016 0.0
H130 H 0.34814 0.72095 0.17842 0.0
H131 H 0.35215 0.79799 0.1967 0.0
Co132 Co 0.5323 0.8615 0.60082 0.0
C133 C 0.58036 0.86831 0.54146 0.0
C134 C 0.57496 0.83268 0.57747 0.0
C135 C 0.59811 0.83453 0.55597 0.0
N136 N 0.56396 0.85398 0.56942 0.0
N137 N 0.60167 0.85703 0.53393 0.0
H138 H 0.57674 0.88646 0.52636 0.0
H139 H 0.56696 0.81706 0.59941 0.0
C140 C 0.56581 0.85736 0.71718 0.0
O141 O 0.58475 0.86233 0.68251 0.0
N142 N 0.50043 0.86841 0.63406 0.0
C143 C 0.47892 0.86502 0.606 0.0
C144 C 0.46117 0.86731 0.65177 0.0
C145 C 0.49531 0.87346 0.6957 0.0
N146 N 0.47161 0.87248 0.70821 0.0
C147 C 0.5233 0.90778 0.55096 0.0
C148 C 0.55935 0.93355 0.60886 0.0
C149 C 0.54528 0.94516 0.56209 0.0
C150 C 0.52667 0.93184 0.53461 0.0
C151 C 0.55513 0.90928 0.62464 0.0
N152 N 0.53782 0.89635 0.59381 0.0
H153 H 0.50885 0.89819 0.52817 0.0
H154 H 0.56639 0.90097 0.65976 0.0
H155 H 0.47618 0.85983 0.55675 0.0
H156 H 0.50868 0.87594 0.73232 0.0
O157 O 0.52013 0.85659 0.51454 0.0
O158 O 0.52262 0.82799 0.58677 0.0
O159 O 0.54456 0.85834 0.69342 0.0
C160 C 0.5169 0.83419 0.52869 0.0
H161 H 0.61097 0.81999 0.55438 0.0
H162 H 0.44224 0.86404 0.64477 0.0
H163 H 0.57391 0.94288 0.63223 0.0
H164 H 0.51448 0.93989 0.50064 0.0
Co165 Co 0.43064 0.27807 0.86118 0.0
C166 C 0.42439 0.32822 0.81052 0.0
C167 C 0.45999 0.32018 0.84156 0.0
C168 C 0.45904 0.34392 0.82491 0.0
N169 N 0.43836 0.31011 0.83176 0.0
N170 N 0.4366 0.34908 0.80529 0.0
H171 H 0.40559 0.32665 0.80052 0.0
H172 H 0.47542 0.31098 0.86082 0.0
C173 C 0.42863 0.31069 0.97518 0.0
O174 O 0.41227 0.32255 0.94314 0.0
N175 N 0.42442 0.24653 0.89455 0.0
C176 C 0.40659 0.23098 0.88142 0.0
C177 C 0.4075 0.21251 0.92554 0.0
C178 C 0.43604 0.23727 0.94497 0.0
N179 N 0.4261 0.2166 0.96528 0.0
C180 C 0.38588 0.28618 0.80052 0.0
C181 C 0.3556 0.28331 0.90435 0.0
C182 C 0.34527 0.28518 0.84273 0.0
C183 C 0.36121 0.28645 0.79091 0.0
C184 C 0.38083 0.28252 0.91187 0.0
N185 N 0.39578 0.28452 0.86011 0.0
H186 H 0.39711 0.28728 0.75859 0.0
H187 H 0.38825 0.27961 0.95892 0.0
H188 H 0.39326 0.23344 0.84456 0.0
H189 H 0.4507 0.24632 0.96872 0.0
O190 O 0.4323 0.26555 0.77462 0.0
O191 O 0.46364 0.26766 0.83728 0.0
O192 O 0.43642 0.29071 0.95243 0.0
C193 C 0.45504 0.26228 0.78102 0.0
H194 H 0.47417 0.35606 0.82437 0.0
H195 H 0.39513 0.19762 0.92908 0.0
H196 H 0.34442 0.28208 0.94657 0.0
H197 H 0.35497 0.28681 0.74205 0.0
Co198 Co 0.0206 0.16734 0.12928 0.0
C199 C 0.97809 0.15143 0.05772 0.0
C200 C 0.97321 0.18654 0.09804 0.0
C201 C 0.95272 0.18019 0.06589 0.0
N202 N 0.98902 0.16842 0.09291 0.0
N203 N 0.95576 0.15803 0.04039 0.0
H204 H 0.98657 0.13491 0.04323 0.0
H205 H 0.97648 0.20327 0.12282 0.0
C206 C 0.98439 0.16553 0.23968 0.0
O207 O 0.96999 0.15269 0.20375 0.0
N208 N 0.05233 0.16635 0.16585 0.0
C209 C 0.07329 0.16232 0.13518 0.0
C210 C 0.09182 0.16544 0.17789 0.0
C211 C 0.05835 0.17157 0.22664 0.0
N212 N 0.08226 0.17107 0.23521 0.0
C213 C 0.03135 0.12168 0.07345 0.0
C214 C 1.00799 0.09194 0.15805 0.0
C215 C 0.01717 0.08188 0.10102 0.0
C216 C 0.02962 0.09721 0.05984 0.0
C217 C 1.01014 0.11684 0.17004 0.0
N218 N 0.02058 0.13175 0.12608 0.0
H219 H 0.04105 0.13247 0.03965 0.0
H220 H 1.00339 0.12373 0.21461 0.0
H221 H 0.0751 0.15804 0.08495 0.0
H222 H 0.04572 0.17671 0.26352 0.0
O223 O 0.03392 0.17307 0.04416 0.0
O224 O 0.02507 0.20187 0.11194 0.0
O225 O 1.00565 0.17061 0.21963 0.0
C226 C 0.03351 0.19583 0.05599 0.0
H227 H 0.93747 0.19184 0.05839 0.0
H228 H 0.1108 0.16399 0.1676 0.0
H229 H 0.99885 0.0808 0.19273 0.0
H230 H 0.03816 0.09039 1.01691 0.0
Co231 Co 0.13302 0.76016 0.37193 0.0
C232 C 0.15239 0.72042 0.29589 0.0
C233 C 0.11725 0.71218 0.33131 0.0
C234 C 0.12484 0.69371 0.29255 0.0
N235 N 0.13486 0.72858 0.3347 0.0
N236 N 0.147 0.69892 0.27 0.0
H237 H 0.168 0.73091 0.28337 0.0
H238 H 0.09973 0.71408 0.3531 0.0
C239 C 0.12159 0.72576 0.48591 0.0
O240 O 0.13085 0.70695 0.4572 0.0
N241 N 0.13096 0.79234 0.40847 0.0
C242 C 0.12909 0.81342 0.37696 0.0
C243 C 0.12552 0.8316 0.42037 0.0
C244 C 0.12901 0.79826 0.47093 0.0
N245 N 0.12535 0.82201 0.47934 0.0
C246 C 0.18063 0.77762 0.36473 0.0
C247 C 0.20366 0.73547 0.39643 0.0
C248 C 0.21661 0.75331 0.36382 0.0
C249 C 0.20507 0.77509 0.35152 0.0
C250 C 0.17922 0.73909 0.41101 0.0
N251 N 0.16755 0.7593 0.39071 0.0
H252 H 0.1718 0.79354 0.34747 0.0
H253 H 0.16934 0.72445 0.43148 0.0
H254 H 0.12988 0.81572 0.32584 0.0
H255 H 0.12929 0.78548 0.5096 0.0
O256 O 0.13583 0.77336 0.2867 0.0
O257 O 0.10125 0.76477 0.3323 0.0
O258 O 0.12253 0.74661 0.45945 0.0
C259 C 0.11261 0.77321 0.28251 0.0
H260 H 0.11382 0.67881 0.27713 0.0
H261 H 0.12268 0.85035 0.40931 0.0
H262 H 0.21198 0.71841 0.40747 0.0
H263 H 0.21429 0.78936 0.32641 0.0
Co264 Co 0.92356 0.77068 0.37103 0.0
C265 C 0.90912 0.8129 0.29573 0.0
C266 C 0.94053 0.81984 0.35133 0.0
C267 C 0.93344 0.84082 0.32303 0.0
N268 N 0.92519 0.80236 0.33462 0.0
N269 N 0.91352 0.8366 0.28804 0.0
H270 H 0.89475 0.80324 0.27285 0.0
H271 H 0.956 0.8177 0.38146 0.0
C272 C 0.94773 0.79048 0.486 0.0
O273 O 0.96728 0.78416 0.45525 0.0
N274 N 0.92214 0.73922 0.41092 0.0
C275 C 0.90418 0.72296 0.41366 0.0
C276 C 0.90856 0.70724 0.46321 0.0
C277 C 0.93737 0.73253 0.45741 0.0
N278 N 0.92924 0.71369 0.49142 0.0
C279 C 0.87685 0.761 0.32332 0.0
C280 C 0.85112 0.79382 0.39471 0.0
C281 C 0.83963 0.78196 0.34365 0.0
C282 C 0.85284 0.76504 0.30906 0.0
C283 C 0.87565 0.78939 0.40728 0.0
N284 N 0.88833 0.77323 0.3711 0.0
H285 H 0.8863 0.74809 0.29426 0.0
H286 H 0.88458 0.79974 0.44387 0.0
H287 H 0.88802 0.72317 0.38572 0.0
H288 H 0.95343 0.74227 0.46917 0.0
O289 O 0.92712 0.75642 0.2859 0.0
O290 O 0.95742 0.76466 0.34838 0.0
O291 O 0.9272 0.78603 0.46032 0.0
C292 C 0.95005 0.75614 0.294 0.0
H293 H 0.94316 0.85755 0.32599 0.0
H294 H 0.8964 0.6936 0.48068 0.0
H295 H 0.84153 0.80703 0.42295 0.0
H296 H 0.84471 0.75497 0.27042 0.0
Co297 Co 0.62558 0.26224 0.8715 0.0
C298 C 0.63917 0.22043 0.79404 0.0
C299 C 0.61483 0.21075 0.86914 0.0
C300 C 0.62327 0.19011 0.84101 0.0
N301 N 0.62512 0.22972 0.84023 0.0
N302 N 0.63881 0.19617 0.79407 0.0
H303 H 0.64984 0.23137 0.76218 0.0
H304 H 0.60253 0.21165 0.9091 0.0
C305 C 0.6268 0.24149 1.01011 0.0
O306 O 0.65016 0.24343 1.01493 0.0
N307 N 0.62577 0.29473 0.90569 0.0
C308 C 0.61881 0.31554 0.87843 0.0
C309 C 0.61982 0.33356 0.92374 0.0
C310 C 0.63131 0.30059 0.96638 0.0
N311 N 0.6276 0.32403 0.9792 0.0
C312 C 0.67335 0.2787 0.85493 0.0
C313 C 0.69698 0.2362 0.87913 0.0
C314 C 0.70962 0.25464 0.84791 0.0
C315 C 0.69754 0.27635 0.83788 0.0
C316 C 0.6726 0.23922 0.8951 0.0
N317 N 0.66073 0.26016 0.88158 0.0
H318 H 0.66426 0.29501 0.8413 0.0
H319 H 0.66294 0.22391 0.91348 0.0
H320 H 0.61276 0.31762 0.82976 0.0
H321 H 0.63686 0.28774 1.00165 0.0
O322 O 0.62635 0.27398 0.78387 0.0
O323 O 0.59303 0.26736 0.83793 0.0
O324 O 0.61596 0.24936 0.96026 0.0
C325 C 0.60308 0.27396 0.78435 0.0
H326 H 0.61816 0.17209 0.85433 0.0
H327 H 0.61449 0.35204 0.91674 0.0
H328 H 0.7054 0.219 0.88772 0.0
H329 H 0.7065 0.29128 0.81497 0.0
Co330 Co 0.62604 0.76875 0.15431 0.0
C331 C 0.63702 0.81524 0.21773 0.0
C332 C 0.60039 0.81257 0.18729 0.0
C333 C 0.6041 0.83514 0.21139 0.0
N334 N 0.62115 0.80027 0.19005 0.0
N335 N 0.62721 0.83696 0.23004 0.0
H336 H 0.65517 0.81028 0.22984 0.0
H337 H 0.58383 0.80581 0.16746 0.0
C338 C 0.61859 0.80365 0.04189 0.0
O339 O 0.62629 0.8218 0.07614 0.0
N340 N 0.63043 0.73717 0.1164 0.0
C341 C 0.62292 0.71558 0.13743 0.0
C342 C 0.62412 0.69941 0.08746 0.0
C343 C 0.63679 0.73351 0.05488 0.0
N344 N 0.63246 0.71081 0.03492 0.0
C345 C 0.67316 0.7581 0.19287 0.0
C346 C 0.69781 0.79507 0.13517 0.0
C347 C 0.70963 0.78122 0.18179 0.0
C348 C 0.69709 0.76205 0.20883 0.0
C349 C 0.67345 0.79064 0.12097 0.0
N350 N 0.66106 0.77304 0.15245 0.0
H351 H 0.66406 0.74324 0.21529 0.0
H352 H 0.66463 0.80202 0.08703 0.0
H353 H 0.61542 0.71199 0.1841 0.0
H354 H 0.64311 0.74777 0.02436 0.0
O355 O 0.62409 0.75568 0.24056 0.0
O356 O 0.59289 0.76029 0.17765 0.0
O357 O 0.6197 0.78209 0.06387 0.0
C358 C 0.60112 0.75377 0.23332 0.0
H359 H 0.59043 0.84875 0.2177 0.0
H360 H 0.61731 0.68125 0.08881 0.0
H361 H 0.70699 0.80974 0.11173 0.0
H362 H 0.70566 0.75018 0.24277 0.0
Co363 Co 0.92735 0.26341 0.66879 0.0
C364 C 0.91441 0.2172 0.73022 0.0
C365 C 0.95014 0.2171 0.69232 0.0
C366 C 0.94541 0.19492 0.71784 0.0
N367 N 0.93071 0.2311 0.70041 0.0
N368 N 0.92284 0.19492 0.74185 0.0
H369 H 0.89688 0.22321 0.74426 0.0
H370 H 0.96663 0.22266 0.66944 0.0
C371 C 0.92791 0.22992 0.55277 0.0
O372 O 0.91484 0.21434 0.5844 0.0
N373 N 0.92466 0.29541 0.63476 0.0
C374 C 0.90642 0.31129 0.63819 0.0
C375 C 0.91092 0.32972 0.59562 0.0
C376 C 0.94 0.30446 0.59139 0.0
N377 N 0.9321 0.3253 0.56668 0.0
C378 C 0.8816 0.26589 0.73009 0.0
C379 C 0.85212 0.25303 0.63042 0.0
C380 C 0.84179 0.25696 0.69133 0.0
C381 C 0.85707 0.26389 0.74066 0.0
C382 C 0.87729 0.25507 0.62168 0.0
N383 N 0.89191 0.26076 0.67201 0.0
H384 H 0.89219 0.27091 0.7707 0.0
H385 H 0.88476 0.25222 0.57464 0.0
H386 H 0.89045 0.30923 0.66701 0.0
H387 H 0.9559 0.29508 0.57501 0.0
O388 O 0.93206 0.27602 0.75504 0.0
O389 O 0.96151 0.26964 0.68759 0.0
O390 O 0.93165 0.25084 0.57686 0.0
C391 C 0.95484 0.27677 0.74428 0.0
H392 H 0.95828 0.18047 0.72153 0.0
H393 H 0.89928 0.34477 0.58539 0.0
H394 H 0.84095 0.24817 0.59019 0.0
H395 H 0.85012 0.268 0.78788 0.0
Co396 Co 0.03321 0.6648 0.92675 0.0
C397 C 0.0842 0.66041 0.96156 0.0
C398 C 0.0707 0.69556 0.98313 0.0
C399 C 0.09466 0.69486 0.99747 0.0
N400 N 0.06398 0.67377 0.96168 0.0
N401 N 0.10313 0.67269 0.98429 0.0
H402 H 0.08518 0.64184 0.9467 0.0
H403 H 0.05914 0.71098 0.98893 0.0
C404 C 0.05514 0.68767 0.81459 0.0
O405 O 0.05143 0.70721 0.84833 0.0
N406 N 1.00311 0.65643 0.88838 0.0
C407 C 0.98767 0.6385 0.9014 0.0
C408 C 0.96975 0.63879 0.85565 0.0
C409 C 0.99442 0.66744 0.83644 0.0
N410 N 0.97412 0.65714 0.81517 0.0
C411 C 0.04404 0.6227 0.99741 0.0
C412 C 0.04387 0.5898 0.89856 0.0
C413 C 0.04614 0.58129 0.96183 0.0
C414 C 0.04661 0.59834 1.01112 0.0
C415 C 0.04129 0.61463 0.88672 0.0
N416 N 0.04117 0.63071 0.93615 0.0
H417 H 0.04432 0.63531 0.0367 0.0
H418 H 0.03855 0.62081 0.83831 0.0
H419 H 0.98964 0.62576 0.93999 0.0
H420 H 1.00343 0.68223 0.81316 0.0
O421 O 0.01781 0.66873 1.00999 0.0
O422 O 0.02079 0.69766 0.93923 0.0
O423 O 0.04856 0.66737 0.83797 0.0
C424 C 1.01351 0.69087 0.99561 0.0
H425 H 0.10464 0.70908 0.02062 0.0
H426 H 0.95489 0.6264 0.85211 0.0
H427 H 0.04332 0.57737 0.85874 0.0
H428 H 0.04897 0.59294 0.06042 0.0
Co429 Co 0.52058 0.36474 0.41652 0.0
C430 C 0.47723 0.37596 0.49158 0.0
C431 C 0.46987 0.35101 0.41608 0.0
C432 C 0.44854 0.35759 0.44391 0.0
N433 N 0.48779 0.36282 0.44544 0.0
N434 N 0.45307 0.37348 0.49124 0.0
H435 H 0.48722 0.3873 0.52391 0.0
H436 H 0.47196 0.33867 0.37651 0.0
C437 C 0.5007 0.36536 0.2776 0.0
O438 O 0.50103 0.38885 0.27422 0.0
N439 N 0.55329 0.36608 0.38421 0.0
C440 C 0.57404 0.35925 0.41186 0.0
C441 C 0.59223 0.36074 0.36712 0.0
C442 C 0.55933 0.37204 0.32392 0.0
N443 N 0.58285 0.36868 0.31164 0.0
C444 C 0.53578 0.41324 0.43042 0.0
C445 C 0.49252 0.43562 0.40805 0.0
C446 C 0.51102 0.44914 0.43629 0.0
C447 C 0.53312 0.43763 0.44512 0.0
C448 C 0.49599 0.41114 0.39349 0.0
N449 N 0.51733 0.39989 0.40604 0.0
H450 H 0.55241 0.40474 0.4438 0.0
H451 H 0.48081 0.40099 0.37636 0.0
H452 H 0.57597 0.35285 0.46027 0.0
H453 H 0.54654 0.37753 0.28841 0.0
O454 O 0.53146 0.36599 0.50485 0.0
O455 O 0.52664 0.3324 0.45052 0.0
O456 O 0.50903 0.35464 0.32704 0.0
C457 C 0.53238 0.3427 0.50445 0.0
H458 H 0.43115 0.35069 0.4306 0.0
H459 H 0.6107 0.35551 0.37438 0.0
H460 H 0.47499 0.44344 0.40048 0.0
H461 H 0.5482 0.44715 0.46546 0.0
Co462 Co 0.0362 0.36033 0.1247 0.0
C463 C 0.08672 0.36489 0.0768 0.0
C464 C 0.07728 0.32918 0.10421 0.0
C465 C 0.10118 0.32955 0.08876 0.0
N466 N 0.06799 0.35126 0.09569 0.0
N467 N 0.10723 0.35208 0.07154 0.0
H468 H 0.08588 0.38392 0.06908 0.0
H469 H 0.0675 0.31381 0.12181 0.0
C470 C 0.06824 0.36482 0.2399 0.0
O471 O 0.08109 0.38008 0.20662 0.0
N472 N 1.00493 0.36814 0.15787 0.0
C473 C 0.98849 0.38411 0.13755 0.0
C474 C 0.97027 0.38533 0.18272 0.0
C475 C 0.99655 0.35975 0.21373 0.0
N476 N 0.97572 0.37017 0.23082 0.0
C477 C 0.0456 0.40374 0.05741 0.0
C478 C 0.04168 0.43569 0.15765 0.0
C479 C 0.0443 0.44498 0.09515 0.0
C480 C 0.04636 0.42833 0.0451 0.0
C481 C 0.0408 0.41065 0.16795 0.0
N482 N 0.04326 0.39489 0.11811 0.0
H483 H 0.04682 0.39165 1.01713 0.0
H484 H 0.03731 0.40402 0.21561 0.0
H485 H 0.9901 0.39478 0.0946 0.0
H486 H 1.00585 0.34651 0.24219 0.0
O487 O 0.02333 0.35669 0.0388 0.0
O488 O 0.02484 0.32733 0.10865 0.0
O489 O 0.04877 0.35644 0.21625 0.0
C490 C 0.01907 0.33439 0.05125 0.0
H491 H 0.11285 0.31404 0.08766 0.0
H492 H 0.95488 0.39716 0.18171 0.0
H493 H 0.03988 0.44757 0.19836 0.0
H494 H 0.0476 0.43408 0.99582 0.0
Co495 Co 0.52555 0.66677 0.61793 0.0
C496 C 0.47528 0.66789 0.56671 0.0
C497 C 0.48694 0.70127 0.60647 0.0
C498 C 0.46341 0.70359 0.58895 0.0
N499 N 0.49458 0.67897 0.59186 0.0
N500 N 0.45596 0.68255 0.56385 0.0
H501 H 0.475 0.64943 0.55209 0.0
H502 H 0.49767 0.71492 0.62948 0.0
C503 C 0.49332 0.66699 0.7331 0.0
O504 O 0.47822 0.65406 0.69957 0.0
N505 N 0.55641 0.65613 0.64791 0.0
C506 C 0.5689 0.63597 0.63463 0.0
C507 C 0.58788 0.63444 0.67694 0.0
C508 C 0.56816 0.6668 0.69625 0.0
N509 N 0.58733 0.65399 0.71507 0.0
C510 C 0.51267 0.62435 0.54978 0.0
C511 C 0.51326 0.59222 0.64968 0.0
C512 C 0.51092 0.58313 0.58684 0.0
C513 C 0.51032 0.59988 0.53704 0.0
C514 C 0.51554 0.61717 0.66053 0.0
N515 N 0.51517 0.63303 0.61067 0.0
H516 H 0.51288 0.63642 0.50951 0.0
H517 H 0.5189 0.62353 0.70853 0.0
H518 H 0.56392 0.62272 0.59922 0.0
H519 H 0.56183 0.68289 0.72008 0.0
O520 O 0.53788 0.66995 0.5312 0.0
O521 O 0.53935 0.69882 0.60297 0.0
O522 O 0.51434 0.67119 0.71052 0.0
C523 C 0.54384 0.69181 0.54461 0.0
H524 H 0.45305 0.71996 0.59211 0.0
H525 H 0.6006 0.61983 0.68074 0.0
H526 H 0.51394 0.58017 0.69015 0.0
H527 H 0.50924 0.59419 0.48761 0.0
H528 H 0.56001 0.05766 0.5317 0.0
H529 H 0.53341 0.04261 0.34229 0.0
H530 H 0.53342 0.99958 0.36647 0.0
H531 H 0.53816 0.96649 0.44417 0.0
H532 H 0.56134 0.9827 0.63651 0.0
H533 H 0.56545 0.02484 0.60809 0.0
C534 C 0.55406 0.04507 0.4955 0.0
C535 C 0.54632 0.0537 0.43532 0.0
C536 C 0.55337 0.02042 0.51047 0.0
C537 C 0.53953 0.03676 0.38881 0.0
C538 C 0.53931 1.01208 0.40293 0.0
C539 C 0.54392 0.97916 0.48035 0.0
C540 C 0.54922 0.97099 0.54299 0.0
C541 C 0.54567 1.00374 0.46413 0.0
C542 C 0.55734 0.98798 0.58792 0.0
C543 C 0.55953 1.01228 0.57179 0.0
H544 H 0.31986 0.30433 0.74112 0.0
H545 H 0.30908 0.26478 0.91655 0.0
H546 H 0.26652 0.26135 0.89225 0.0
H547 H 0.23257 0.26788 0.81923 0.0
H548 H 0.24562 0.30123 0.63562 0.0
H549 H 0.28695 0.30827 0.66542 0.0
C550 C 0.30862 0.29438 0.77392 0.0
C551 C 0.31846 0.28456 0.83063 0.0
C552 C 0.28424 0.29125 0.75806 0.0
C553 C 0.30259 0.27287 0.87296 0.0
C554 C 0.27807 0.27062 0.85866 0.0
C555 C 0.24431 0.27626 0.78462 0.0
C556 C 0.23517 0.28398 0.72471 0.0
C557 C 0.26874 0.27939 0.80081 0.0
C558 C 0.25126 0.29546 0.68254 0.0
C559 C 0.27525 0.29935 0.69932 0.0
H560 H 1.00926 0.06154 0.98303 0.0
H561 H 0.01966 0.04279 0.18116 0.0
H562 H 0.01895 1.00022 0.15279 0.0
H563 H 0.01757 0.96822 0.07124 0.0
H564 H 1.00865 0.98694 0.8726 0.0
H565 H 1.00647 0.02943 0.90182 0.0
C566 C 1.01148 0.0482 0.02018 0.0
C567 C 1.01475 0.05567 0.08438 0.0
C568 C 1.01137 0.02362 1.00335 0.0
C569 C 0.01696 0.03786 0.13161 0.0
C570 C 0.01673 1.01341 0.11526 0.0
C571 C 1.01527 0.98154 0.03407 0.0
C572 C 1.01357 0.97413 0.9694 0.0
C573 C 1.01432 1.00607 0.0512 0.0
C574 C 1.00991 0.99185 0.9226 0.0
C575 C 1.00883 1.01625 0.93932 0.0
H576 H 0.30746 0.72838 0.19282 0.0
H577 H 0.33463 0.79106 0.29106 0.0
H578 H 0.29779 0.79429 0.35146 0.0
H579 H 0.25692 0.78057 0.37542 0.0
H580 H 0.23034 0.71623 0.2861 0.0
H581 H 0.26789 0.71204 0.22569 0.0
C582 C 0.30556 0.74264 0.22777 0.0
C583 C 0.32395 0.75995 0.23458 0.0
C584 C 0.28432 0.74402 0.26506 0.0
C585 C 0.32072 0.77806 0.28128 0.0
C586 C 0.29962 0.77979 0.31713 0.0
C587 C 0.25951 0.76544 0.34341 0.0
C588 C 0.24085 0.74872 0.33553 0.0
C589 C 0.28118 0.7631 0.30899 0.0
C590 C 0.24452 0.72919 0.29382 0.0
C591 C 0.26593 0.72692 0.25872 0.0
H592 H 0.82176 0.79005 0.22431 0.0
H593 H 0.79995 0.78345 0.42142 0.0
H594 H 0.75774 0.78423 0.38901 0.0
H595 H 0.72713 0.78315 0.30362 0.0
H596 H 0.74904 0.78994 0.10658 0.0
H597 H 0.79101 0.79288 0.13986 0.0
C598 C 0.80775 0.78902 0.26028 0.0
C599 C 0.81407 0.78645 0.32533 0.0
C600 C 0.78352 0.78933 0.24114 0.0
C601 C 0.79567 0.78553 0.37126 0.0
C602 C 0.77151 0.78578 0.35259 0.0
C603 C 0.74109 0.78543 0.26795 0.0
C604 C 0.73488 0.78604 0.20245 0.0
C605 C 0.76523 0.78709 0.28755 0.0
C606 C 0.7532 0.78946 0.15711 0.0
C607 C 0.77725 0.791 0.17618 0.0
H608 H 0.82039 0.23624 0.79506 0.0
H609 H 0.80366 0.27339 0.62016 0.0
H610 H 0.76133 0.27537 0.65207 0.0
H611 H 0.72947 0.26896 0.73346 0.0
H612 H 0.7469 0.23233 0.90887 0.0
H613 H 0.78843 0.22791 0.87316 0.0
C614 C 0.80749 0.24471 0.76363 0.0
C615 C 0.81541 0.25488 0.70535 0.0
C616 C 0.78326 0.24611 0.78284 0.0
C617 C 0.79822 0.2653 0.66494 0.0
C618 C 0.774 0.26664 0.68358 0.0
C619 C 0.74236 0.26009 0.76407 0.0
C620 C 0.73491 0.25121 0.82437 0.0
C621 C 0.76638 0.25756 0.74308 0.0
C622 C 0.7519 0.23928 0.86239 0.0
C623 C 0.77575 0.23681 0.84201 0.0
H624 H 0.02505 0.55699 0.06114 0.0
H625 H 0.07145 0.54616 0.89813 0.0
H626 H 0.07584 0.50379 0.9264 0.0
H627 H 0.06716 0.46995 0.99837 0.0
H628 H 0.01914 0.48052 0.1586 0.0
H629 H 1.01576 0.52292 0.13196 0.0
C630 C 0.03627 0.54545 0.03187 0.0
C631 C 0.04796 0.55501 0.97745 0.0
C632 C 0.03876 0.52101 0.04851 0.0
C633 C 0.06203 0.53946 0.93976 0.0
C634 C 0.0647 0.51519 0.95627 0.0
C635 C 0.05568 0.48132 0.02736 0.0
C636 C 0.04344 0.47154 0.08081 0.0
C637 C 0.05319 0.50576 1.01063 0.0
C638 C 0.02921 0.48717 0.11804 0.0
C639 C 0.027 0.51154 0.10234 0.0
H640 H 0.52954 0.47151 0.543 0.0
H641 H 0.48375 0.48466 0.38071 0.0
H642 H 0.4781 0.52611 0.41575 0.0
H643 H 0.48719 0.55921 0.49005 0.0
H644 H 0.53509 0.54673 0.64843 0.0
H645 H 0.53845 0.5046 0.61773 0.0
C646 C 0.51851 0.48342 0.51464 0.0
C647 C 0.50727 0.47466 0.4586 0.0
C648 C 0.51554 0.5075 0.53469 0.0
C649 C 0.49253 0.49052 0.4241 0.0
C650 C 0.48937 0.51439 0.44401 0.0
C651 C 0.49854 0.54742 0.51789 0.0
C652 C 0.51096 0.5566 0.57165 0.0
C653 C 0.50095 0.52317 0.49892 0.0
C654 C 0.52499 0.5405 0.60751 0.0
C655 C 0.52716 0.51631 0.58949 0.0
H656 H 0.43821 0.16853 0.23507 0.0
H657 H 0.51153 0.18921 0.19834 0.0
H658 H 0.50063 0.20375 0.09324 0.0
H659 H 0.4703 0.21223 1.01293 0.0
H660 H 0.39675 0.19232 0.0465 0.0
H661 H 0.40775 0.17511 0.15022 0.0
C662 C 0.45176 0.17607 0.20378 0.0
C663 C 0.47554 0.17829 0.22552 0.0
C664 C 0.44537 0.18437 0.14247 0.0
C665 C 0.49295 0.18799 0.18412 0.0
C666 C 0.4868 0.19611 0.12348 0.0
C667 C 0.45667 0.2041 0.04292 0.0
C668 C 0.43274 0.20378 0.02237 0.0
C669 C 0.46305 0.19472 0.10257 0.0
C670 C 0.41534 0.19268 0.06108 0.0
C671 C 0.42161 0.18304 0.12063 0.0
H672 H 0.07114 0.15715 0.35373 0.0
H673 H 0.12098 0.1997 0.24492 0.0
H674 H 0.13903 0.21475 0.34397 0.0
H675 H 0.13817 0.21816 0.4617 0.0
H676 H 0.089 0.17459 0.57011 0.0
H677 H 0.07324 0.15721 0.47133 0.0
C678 C 0.08611 0.16953 0.35209 0.0
C679 C 0.09466 0.17755 0.29269 0.0
C680 C 0.09641 0.17788 0.409 0.0
C681 C 0.11426 0.1933 0.29042 0.0
C682 C 0.12444 0.20197 0.3469 0.0
C683 C 0.12421 0.20465 0.46338 0.0
C684 C 0.11462 0.19772 0.52272 0.0
C685 C 0.11532 0.19474 0.40645 0.0
C686 C 0.09674 0.18002 0.52487 0.0
C687 C 0.08761 0.17024 0.46846 0.0
H688 H 0.14169 0.81258 0.59761 0.0
H689 H 0.0932 0.85782 0.49207 0.0
H690 H 0.07827 0.8753 0.59144 0.0
H691 H 0.07665 0.87538 0.70849 0.0
H692 H 0.12495 0.83061 0.8154 0.0
H693 H 0.1426 0.81542 0.71562 0.0
C694 C 0.12799 0.82638 0.59664 0.0
C695 C 0.11848 0.83383 0.53775 0.0
C696 C 0.11947 0.83638 0.6541 0.0
C697 C 0.10096 0.85196 0.53677 0.0
C698 C 0.09229 0.86185 0.59357 0.0
C699 C 0.09123 0.86249 0.70966 0.0
C700 C 0.09943 0.85393 0.76869 0.0
C701 C 0.1011 0.85387 0.65244 0.0
C702 C 0.11851 0.8375 0.77024 0.0
C703 C 0.12843 0.82871 0.71331 0.0
H704 H 0.45643 0.85842 0.99986 0.0
H705 H 0.40619 0.8056 0.93069 0.0
H706 H 0.41197 0.81985 0.82166 0.0
H707 H 0.43531 0.84366 0.74493 0.0
H708 H 0.48546 0.89641 0.81408 0.0
H709 H 0.47521 0.88626 0.92441 0.0
C710 C 0.44626 0.85037 0.96137 0.0
C711 C 0.43132 0.83055 0.97362 0.0
C712 C 0.44974 0.85859 0.89859 0.0
C713 C 0.41836 0.8204 0.92264 0.0
C714 C 0.42154 0.82863 0.86018 0.0
C715 C 0.44344 0.85346 0.78405 0.0
C716 C 0.46137 0.87054 0.77134 0.0
C717 C 0.4378 0.84718 0.84735 0.0
C718 C 0.47187 0.88293 0.82274 0.0
C719 C 0.46606 0.87709 0.88579 0.0
H720 H 0.57807 0.813 0.75882 0.0
H721 H 0.56483 0.88519 0.82382 0.0
H722 H 0.57993 0.8748 0.9303 0.0
H723 H 0.59945 0.84598 1.00236 0.0
H724 H 0.61142 0.77318 0.93983 0.0
H725 H 0.5943 0.78285 0.83505 0.0
C726 C 0.57794 0.82622 0.79698 0.0
C727 C 0.56996 0.84975 0.78405 0.0
C728 C 0.58683 0.82008 0.85801 0.0
C729 C 0.57039 0.8669 0.83316 0.0
C730 C 0.57927 0.86099 0.89377 0.0
C731 C 0.59837 0.83216 0.96587 0.0
C732 C 0.60731 0.80893 0.97868 0.0
C733 C 0.58801 0.83778 0.90633 0.0
C734 C 0.6051 0.79122 0.93112 0.0
C735 C 0.59521 0.79677 0.87122 0.0
H736 H 0.9467 0.84903 0.74888 0.0
H737 H 0.0231 0.83968 0.72565 0.0
H738 H 0.01651 0.81811 0.62592 0.0
H739 H 0.98949 0.80124 0.54607 0.0
H740 H 0.91294 0.80966 0.56674 0.0
H741 H 0.9192 0.83201 0.66686 0.0
C742 C 0.96198 0.84248 0.72185 0.0
C743 C 0.98551 0.84632 0.7454 0.0
C744 C 0.95801 0.82967 0.66419 0.0
C745 C 1.00488 0.83733 0.70939 0.0
C746 C 1.0011 0.82483 0.65213 0.0
C747 C 0.97401 0.80788 0.57214 0.0
C748 C 0.95066 0.80361 0.54829 0.0
C749 C 0.97778 0.82077 0.62929 0.0
C750 C 0.93106 0.81251 0.58355 0.0
C751 C 0.93469 0.82538 0.64084 0.0
H752 H 0.99009 0.20955 0.30002 0.0
H753 H 0.95646 0.14039 0.32122 0.0
H754 H 0.93598 0.15413 0.4178 0.0
H755 H 0.9262 0.18593 0.49468 0.0
H756 H 0.95833 0.25587 0.47433 0.0
H757 H 0.98032 0.24191 0.3795 0.0
C758 C 0.97863 0.1974 0.32655 0.0
C759 C 0.97512 0.17377 0.30344 0.0
C760 C 0.96619 0.20573 0.38186 0.0
C761 C 0.95969 0.15853 0.3378 0.0
C762 C 0.94781 0.16645 0.39304 0.0
C763 C 0.93789 0.19828 0.46953 0.0
C764 C 0.9403 0.22209 0.49207 0.0
C765 C 0.95061 0.19008 0.41508 0.0
C766 C 0.95582 0.23754 0.45837 0.0
C767 C 0.96856 0.22949 0.40408 0.0
H768 H 0.55522 0.19769 0.21935 0.0
H769 H 0.62084 0.16247 0.27555 0.0
H770 H 0.64249 0.18269 0.19062 0.0
H771 H 0.64366 0.21071 0.10064 0.0
H772 H 0.57847 0.24474 0.03787 0.0
H773 H 0.55612 0.22482 0.12399 0.0
C774 C 0.5742 0.1943 0.21271 0.0
C775 C 0.58617 0.17837 0.25457 0.0
C776 C 0.58684 0.20596 0.16238 0.0
C777 C 0.61088 0.1744 0.24464 0.0
C778 C 0.62345 0.18609 0.19588 0.0
C779 C 0.62457 0.21393 0.10581 0.0
C780 C 0.61294 0.22952 0.06285 0.0
C781 C 0.61172 0.202 0.15466 0.0
C782 C 0.58804 0.23297 0.07011 0.0
C783 C 0.5752 0.22153 0.11953 0.0
H784 H 0.97095 0.70126 0.76624 0.0
H785 H 0.94898 0.62807 0.73498 0.0
H786 H 0.93212 0.63923 0.63092 0.0
H787 H 0.92624 0.66971 0.54553 0.0
H788 H 0.95003 0.74235 0.5793 0.0
H789 H 0.96428 0.73131 0.68459 0.0
C790 C 0.96258 0.68768 0.73661 0.0
C791 C 0.96153 0.66384 0.75789 0.0
C792 C 0.95365 0.69407 0.67666 0.0
C793 C 0.94994 0.6466 0.71977 0.0
C794 C 0.94052 0.65294 0.66004 0.0
C795 C 0.93451 0.68304 0.57616 0.0
C796 C 0.93753 0.70667 0.55381 0.0
C797 C 0.94269 0.67658 0.63743 0.0
C798 C 0.94814 0.72386 0.59417 0.0
C799 C 0.95606 0.71766 0.65488 0.0
H800 H 0.62685 0.66491 0.992 0.0
H801 H 0.63469 0.73803 0.92634 0.0
H802 H 0.62364 0.72605 0.81968 0.0
H803 H 0.60642 0.69608 0.7472 0.0
H804 H 0.59875 0.62297 0.80934 0.0
H805 H 0.61514 0.63357 0.91454 0.0
C806 C 0.62629 0.67827 0.95456 0.0
C807 C 0.63072 0.70263 0.96912 0.0
C808 C 0.61979 0.67126 0.8922 0.0
C809 C 0.63082 0.71931 0.91847 0.0
C810 C 0.62446 0.71249 0.85669 0.0
C811 C 0.60884 0.68245 0.78356 0.0
C812 C 0.60129 0.6589 0.77119 0.0
C813 C 0.61806 0.68874 0.84359 0.0
C814 C 0.60461 0.6412 0.81802 0.0
C815 C 0.61376 0.64733 0.8782 0.0
H816 H 0.60116 0.36201 0.01904 0.0
H817 H 0.65351 0.31024 0.08233 0.0
H818 H 0.6463 0.32181 0.19311 0.0
H819 H 0.62076 0.34215 0.27197 0.0
H820 H 0.56937 0.39488 0.20875 0.0
H821 H 0.58096 0.38767 0.09793 0.0
C822 C 0.61151 0.35369 0.05669 0.0
C823 C 0.62732 0.33473 0.04218 0.0
C824 C 0.60724 0.36038 0.12053 0.0
C825 C 0.64062 0.32431 0.09207 0.0
C826 C 0.63659 0.33098 0.15557 0.0
C827 C 0.61253 0.3526 0.23433 0.0
C828 C 0.59367 0.36851 0.24882 0.0
C829 C 0.61922 0.3483 0.17049 0.0
C830 C 0.58338 0.38193 0.19896 0.0
C831 C 0.59005 0.37788 0.13546 0.0
H832 H 0.90974 0.34426 0.46428 0.0
H833 H 0.97896 0.33373 0.55068 0.0
H834 H 0.99869 0.34921 0.45486 0.0
H835 H 0.99638 0.36215 0.34396 0.0
H836 H 0.92775 0.37089 0.25309 0.0
H837 H 0.90744 0.36031 0.35361 0.0
C838 C 0.92909 0.34591 0.46234 0.0
C839 C 0.94298 0.33783 0.51412 0.0
C840 C 0.94031 0.35429 0.40628 0.0
C841 C 0.96804 0.33971 0.51106 0.0
C842 C 0.97927 0.34851 0.45638 0.0
C843 C 0.97697 0.3617 0.34607 0.0
C844 C 0.96355 0.36678 0.29096 0.0
C845 C 0.96562 0.35519 0.40319 0.0
C846 C 0.93841 0.36695 0.29493 0.0
C847 C 0.92686 0.36077 0.35223 0.0
H848 H 0.06415 0.32085 0.30112 0.0
H849 H 0.09358 0.39198 0.32251 0.0
H850 H 0.11243 0.38035 0.4226 0.0
H851 H 0.12151 0.35027 0.50316 0.0
H852 H 0.09366 0.27843 0.4844 0.0
H853 H 0.07372 0.28986 0.38432 0.0
C854 C 0.07441 0.33384 0.32826 0.0
C855 C 0.07722 0.35741 0.30423 0.0
C856 C 0.08586 0.3268 0.38592 0.0
C857 C 0.09101 0.37382 0.33959 0.0
C858 C 0.10192 0.36714 0.39691 0.0
C859 C 0.11118 0.33694 0.47738 0.0
C860 C 0.10927 0.31341 0.50186 0.0
C861 C 0.09969 0.34368 0.42023 0.0
C862 C 0.0957 0.2966 0.46697 0.0
C863 C 0.08413 0.30321 0.40975 0.0
H864 H 0.46188 0.29299 0.06335 0.0
H865 H 0.42089 0.35628 1.01569 0.0
H866 H 0.43978 0.37835 0.10162 0.0
H867 H 0.46817 0.38069 0.1901 0.0
H868 H 0.50803 0.31783 0.24512 0.0
H869 H 0.48958 0.29497 0.15761 0.0
C870 C 0.45698 0.31154 0.07206 0.0
C871 C 0.43981 0.32274 0.03223 0.0
C872 C 0.46789 0.32446 0.12308 0.0
C873 C 0.43384 0.34689 0.04493 0.0
C874 C 0.44475 0.35973 0.09428 0.0
C875 C 0.47298 0.36201 0.18291 0.0
C876 C 0.48975 0.35118 0.22403 0.0
C877 C 0.46188 0.34883 0.13345 0.0
C878 C 0.49529 0.32676 0.21428 0.0
C879 C 0.48469 0.31364 0.16409 0.0
H880 H 0.46937 0.72847 0.98311 0.0
H881 H 0.39734 0.71232 0.92146 0.0
H882 H 0.4131 0.68896 0.83224 0.0
H883 H 0.44698 0.67319 0.77049 0.0
H884 H 0.51929 0.69022 0.82694 0.0
H885 H 0.50382 0.71289 0.91909 0.0
C886 C 0.4571 0.71989 0.9501 0.0
C887 C 0.43206 0.72233 0.95951 0.0
C888 C 0.46636 0.70645 0.8979 0.0
C889 C 0.4166 0.711 0.91582 0.0
C890 C 0.42562 0.69749 0.86463 0.0
C891 C 0.45948 0.68161 0.80318 0.0
C892 C 0.48437 0.67966 0.79181 0.0
C893 C 0.45043 0.69505 0.85518 0.0
C894 C 0.50009 0.6912 0.83444 0.0
C895 C 0.49121 0.70426 0.88715 0.0
H896 H 0.06546 0.72894 0.75076 0.0
H897 H 0.07259 0.65207 0.7343 0.0
H898 H 0.09405 0.65708 0.63244 0.0
H899 H 0.1112 0.6835 0.54836 0.0
H900 H 0.10261 0.76027 0.56548 0.0
H901 H 0.08158 0.75501 0.66675 0.0
C902 C 0.07164 0.71316 0.72513 0.0
C903 C 0.06736 0.69008 0.75085 0.0
C904 C 0.08391 0.7162 0.66659 0.0
C905 C 0.07549 0.67001 0.71607 0.0
C906 C 0.08786 0.67292 0.65777 0.0
C907 C 0.10484 0.69915 0.57423 0.0
C908 C 0.10892 0.72238 0.54884 0.0
C909 C 0.09228 0.69595 0.63263 0.0
C910 C 0.10015 0.74225 0.58336 0.0
C911 C 0.08796 0.73923 0.64149 0.0
H912 H 0.49185 0.22893 0.77266 0.0
H913 H 0.45004 0.27812 0.6601 0.0
H914 H 0.46858 0.26302 0.56201 0.0
H915 H 0.49398 0.23287 0.5059 0.0
H916 H 0.53323 0.18152 0.61825 0.0
H917 H 0.51888 0.20023 0.71686 0.0
C918 C 0.4872 0.23664 0.72677 0.0
C919 C 0.46959 0.25474 0.72409 0.0
C920 C 0.49741 0.2272 0.66963 0.0
C921 C 0.4635 0.26417 0.66379 0.0
C922 C 0.47408 0.25548 0.60738 0.0
C923 C 0.49973 0.22613 0.55196 0.0
C924 C 0.51475 0.20581 0.55434 0.0
C925 C 0.49067 0.23657 0.60927 0.0
C926 C 0.52164 0.19709 0.61478 0.0
C927 C 0.51339 0.20778 0.67148 0.0
H928 H 0.02793 0.19652 0.92664 0.0
H929 H 0.06325 0.23372 0.08048 0.0
H930 H 0.08584 0.25783 1.00281 0.0
H931 H 0.09807 0.26589 0.89008 0.0
H932 H 0.05963 0.23146 0.73688 0.0
H933 H 0.0357 0.20895 0.81469 0.0
C934 C 0.04028 0.21021 0.94311 0.0
C935 C 0.04398 0.21322 1.00939 0.0
C936 C 0.05282 0.22438 0.89802 0.0
C937 C 0.05993 0.23113 0.02992 0.0
C938 C 0.073 0.2448 0.98538 0.0
C939 C 0.08421 0.2537 0.87386 0.0
C940 C 0.0808 0.25023 0.80755 0.0
C941 C 0.06999 0.24123 0.9192 0.0
C942 C 0.06259 0.23455 0.78741 0.0
C943 C 0.04898 0.22156 0.832 0.0
H944 H 0.07937 0.84062 0.05698 0.0
H945 H 0.01616 0.79653 0.06281 0.0
H946 H 0.03354 0.77296 0.15101 0.0
H947 H 0.0671 0.76596 0.22972 0.0
H948 H 0.13153 0.80831 0.21028 0.0
H949 H 0.11345 0.83127 0.12486 0.0
C950 C 0.06944 0.82573 0.07703 0.0
C951 C 0.04648 0.82045 0.0535 0.0
C952 C 0.07983 0.81197 0.12602 0.0
C953 C 0.03394 0.80092 0.07988 0.0
C954 C 0.04387 0.78753 0.13058 0.0
C955 C 0.07713 0.78017 0.20657 0.0
C956 C 0.10062 0.78556 0.22768 0.0
C957 C 0.06683 0.79302 0.15467 0.0
C958 C 0.11344 0.80377 0.19599 0.0
C959 C 0.10311 0.81701 0.1468 0.0
H960 H 0.4496 0.76882 0.35793 0.0
H961 H 0.49712 0.79423 0.21007 0.0
H962 H 0.52097 0.8157 0.29001 0.0
H963 H 0.52645 0.82991 0.40147 0.0
H964 H 0.48147 0.80147 0.55085 0.0
H965 H 0.45867 0.77841 0.47152 0.0
C966 C 0.46537 0.77881 0.34343 0.0
C967 C 0.47145 0.78008 0.27794 0.0
C968 C 0.47938 0.79068 0.39008 0.0
C969 C 0.49209 0.79287 0.26001 0.0
C970 C 0.50565 0.80529 0.30576 0.0
C971 C 0.51187 0.81837 0.41665 0.0
C972 C 0.50554 0.81752 0.48196 0.0
C973 C 0.49922 0.80472 0.3708 0.0
C974 C 0.48676 0.80234 0.50102 0.0
C975 C 0.47362 0.78928 0.45553 0.0
H976 H 0.60312 0.89357 0.44817 0.0
H977 H 0.64717 0.83897 0.53423 0.0
H978 H 0.66944 0.83434 0.43482 0.0
H979 H 0.66179 0.83256 0.31984 0.0
H980 H 0.61437 0.88404 0.2334 0.0
H981 H 0.60906 0.90411 0.33598 0.0
C982 C 0.61822 0.88137 0.44644 0.0
C983 C 0.6218 0.86465 0.49573 0.0
C984 C 0.63004 0.87794 0.38808 0.0
C985 C 0.64274 0.85055 0.4945 0.0
C986 C 0.65554 0.84791 0.43762 0.0
C987 C 0.65127 0.84888 0.3225 0.0
C988 C 0.63644 0.85544 0.27125 0.0
C989 C 0.64712 0.85927 0.38244 0.0
C990 C 0.62449 0.87765 0.27405 0.0
C991 C 0.62133 0.88905 0.33283 0.0
H992 H 0.92433 0.88351 0.26546 0.0
H993 H 0.87796 0.82661 0.20054 0.0
H994 H 0.87998 0.84202 0.09243 0.0
H995 H 0.90864 0.85911 1.01617 0.0
H996 H 0.96234 0.90863 0.08345 0.0
H997 H 0.94338 0.90982 0.18767 0.0
C998 C 0.91438 0.87456 0.22803 0.0
C999 C 0.90367 0.85212 0.23944 0.0
C1000 C 0.91748 0.88217 0.16495 0.0
C1001 C 0.88839 0.84264 0.19217 0.0
C1002 C 0.88948 0.8515 0.12991 0.0
C1003 C 0.91587 0.87059 0.05327 0.0
C1004 C 0.93826 0.88166 0.04425 0.0
C1005 C 0.90638 0.8692 0.11506 0.0
C1006 C 0.94606 0.89844 0.09017 0.0
C1007 C 0.93526 0.89905 0.15036 0.0
H1008 H 0.93818 0.14953 0.76486 0.0
H1009 H 0.88358 0.20033 0.82118 0.0
H1010 H 0.88294 0.18379 0.92776 0.0
H1011 H 0.90966 0.168 1.01031 0.0
H1012 H 0.96906 0.12278 0.95487 0.0
H1013 H 0.95553 0.12298 0.84529 0.0
C1014 C 0.92578 0.1567 0.8 0.0
C1015 C 0.91311 0.17795 0.78712 0.0
C1016 C 0.92681 0.14832 0.86288 0.0
C1017 C 0.8952 0.18527 0.83082 0.0
C1018 C 0.89477 0.17578 0.8924 0.0
C1019 C 0.91934 0.15772 0.97454 0.0
C1020 C 0.94172 0.14765 0.98955 0.0
C1021 C 0.91256 0.15946 0.91043 0.0
C1022 C 0.95271 0.13236 0.94427 0.0
C1023 C 0.94501 0.13247 0.88096 0.0
H1024 H 0.64927 0.17198 0.52169 0.0
H1025 H 0.59523 0.12148 0.5817 0.0
H1026 H 0.6109 0.12203 0.68924 0.0
H1027 H 0.62615 0.15024 0.768 0.0
H1028 H 0.67525 0.20594 0.71028 0.0
H1029 H 0.67573 0.19003 0.60184 0.0
C1030 C 0.64131 0.16062 0.55799 0.0
C1031 C 0.61947 0.14895 0.54566 0.0
C1032 C 0.64903 0.16276 0.62125 0.0
C1033 C 0.61094 0.13226 0.5908 0.0
C1034 C 0.61984 0.13265 0.65293 0.0
C1035 C 0.63767 0.15851 0.73266 0.0
C1036 C 0.64866 0.1807 0.74533 0.0
C1037 C 0.63668 0.15014 0.66975 0.0
C1038 C 0.66495 0.18995 0.70014 0.0
C1039 C 0.66534 0.18078 0.63807 0.0
H1040 H 0.02143 0.69439 0.12355 0.0
H1041 H 0.97835 0.72392 0.9723 0.0
H1042 H 0.95521 0.74726 0.05088 0.0
H1043 H 0.94547 0.75713 0.16401 0.0
H1044 H 0.99117 0.73066 0.31395 0.0
H1045 H 1.01516 0.70853 0.23494 0.0
C1046 C 1.0071 0.70613 0.10783 0.0
C1047 C 1.00139 0.70718 0.04219 0.0
C1048 C 0.99431 0.71999 0.15325 0.0
C1049 C 0.98307 0.72276 0.02241 0.0
C1050 C 0.96978 0.73603 0.06746 0.0
C1051 C 0.96086 0.74671 0.17924 0.0
C1052 C 0.96636 0.74534 0.24503 0.0
C1053 C 0.97495 0.73447 0.13317 0.0
C1054 C 0.98654 0.73205 0.26382 0.0
C1055 C 1.00019 0.71928 0.21859 0.0
H1056 H 0.60733 0.75711 0.36236 0.0
H1057 H 0.56086 0.72626 0.21998 0.0
H1058 H 0.5388 0.70474 0.30368 0.0
H1059 H 0.53437 0.69264 0.4171 0.0
H1060 H 0.57844 0.72616 0.56058 0.0
H1061 H 0.59966 0.74878 0.47722 0.0
C1062 C 0.59221 0.74585 0.34977 0.0
C1063 C 0.5859 0.74313 0.28476 0.0
C1064 C 0.57927 0.73391 0.39848 0.0
C1065 C 0.56607 0.72873 0.26941 0.0
C1066 C 0.55354 0.71631 0.31734 0.0
C1067 C 0.54851 0.70505 0.43012 0.0
C1068 C 0.55503 0.70748 0.49504 0.0
C1069 C 0.56023 0.71843 0.38194 0.0
C1070 C 0.57309 0.72393 0.51117 0.0
C1071 C 0.58529 0.73679 0.46339 0.0
H1072 H 0.56401 0.30493 0.51125 0.0
H1073 H 0.51996 0.35109 0.62807 0.0
H1074 H 0.53567 0.33227 0.72504 0.0
H1075 H 0.56436 0.30453 0.77781 0.0
H1076 H 0.61179 0.26191 0.66083 0.0
H1077 H 0.59254 0.27711 0.56394 0.0
C1078 C 0.55761 0.31056 0.55795 0.0
C1079 C 0.5406 0.32926 0.56224 0.0
C1080 C 0.56757 0.30031 0.61397 0.0
C1081 C 0.53294 0.33671 0.6233 0.0
C1082 C 0.54198 0.32596 0.6789 0.0
C1083 C 0.57017 0.29831 0.73109 0.0
C1084 C 0.58935 0.28186 0.72673 0.0
C1085 C 0.55963 0.308 0.67508 0.0
C1086 C 0.59704 0.27446 0.66565 0.0
C1087 C 0.58604 0.2832 0.61009 0.0
H1088 H 0.02669 0.33424 0.92246 0.0
H1089 H 0.98528 0.29943 0.06965 0.0
H1090 H 0.96224 0.2779 0.98781 0.0
H1091 H 0.95176 0.27143 0.87368 0.0
H1092 H 0.99554 0.30342 0.72675 0.0
H1093 H 0.01988 0.32335 0.80872 0.0
C1094 C 1.01281 0.32169 0.93661 0.0
C1095 C 1.00755 0.31864 1.00227 0.0
C1096 C 0.99999 0.30896 0.88913 0.0
C1097 C 0.98974 0.30209 0.01972 0.0
C1098 C 0.97647 0.28988 0.97279 0.0
C1099 C 0.96683 0.28255 0.85965 0.0
C1100 C 0.97165 0.28614 0.79395 0.0
C1101 C 0.98109 0.29354 0.90728 0.0
C1102 C 0.99143 0.30032 0.77672 0.0
C1103 C 1.00528 0.31183 0.8237 0.0
H1104 H 0.16479 0.32904 0.8518 0.0
H1105 H 0.1227 0.38799 0.78018 0.0
H1106 H 0.11985 0.40478 0.88751 0.0
H1107 H 0.11378 0.39168 0.99731 0.0
H1108 H 0.15055 0.32895 0.06707 0.0
H1109 H 0.17213 0.32545 0.96626 0.0
C1110 C 0.15584 0.34609 0.85877 0.0
C1111 C 0.14186 0.35604 0.80958 0.0
C1112 C 0.15282 0.35459 0.9212 0.0
C1113 C 0.13208 0.37907 0.81866 0.0
C1114 C 0.13038 0.38864 0.88014 0.0
C1115 C 0.12709 0.37769 0.99181 0.0
C1116 C 0.12847 0.35885 0.03641 0.0
C1117 C 0.13804 0.37481 0.93209 0.0
C1118 C 0.14756 0.34243 0.0308 0.0
C1119 C 0.15992 0.34039 0.973 0.0
H1120 H 0.39864 0.35316 0.72472 0.0
H1121 H 0.45807 0.39324 0.80132 0.0
H1122 H 0.46279 0.41401 0.69981 0.0
H1123 H 0.46106 0.40674 0.58434 0.0
H1124 H 0.406 0.36046 0.50831 0.0
H1125 H 0.38784 0.35738 0.61303 0.0
C1126 C 0.41214 0.36699 0.72044 0.0
C1127 C 0.42981 0.36967 0.76776 0.0
C1128 C 0.41592 0.37737 0.66056 0.0
C1129 C 0.44555 0.38933 0.76328 0.0
C1130 C 0.44831 0.4012 0.70507 0.0
C1131 C 0.4449 0.39623 0.59024 0.0
C1132 C 0.43658 0.38159 0.54007 0.0
C1133 C 0.43556 0.393 0.65172 0.0
C1134 C 0.4141 0.37039 0.54703 0.0
C1135 C 0.40356 0.3686 0.60729 0.0
H1136 H 0.44627 0.64543 0.48315 0.0
H1137 H 0.41558 0.71056 0.56006 0.0
H1138 H 0.39234 0.71581 0.46294 0.0
H1139 H 0.3933 0.70985 0.34697 0.0
H1140 H 0.42961 0.64784 0.26869 0.0
H1141 H 0.43676 0.63287 0.37526 0.0
C1142 C 0.43415 0.66053 0.47999 0.0
C1143 C 0.43465 0.67895 0.52607 0.0
C1144 C 0.42203 0.66422 0.42256 0.0
C1145 C 0.4171 0.69711 0.52292 0.0
C1146 C 0.40371 0.70012 0.46732 0.0
C1147 C 0.40257 0.69294 0.3529 0.0
C1148 C 0.41309 0.68134 0.29992 0.0
C1149 C 0.40818 0.68521 0.41461 0.0
C1150 C 0.42276 0.65821 0.30844 0.0
C1151 C 0.42691 0.64952 0.36977 0.0
H1152 H 0.14307 0.65316 0.22974 0.0
H1153 H 0.17618 0.72068 0.18192 0.0
H1154 H 0.17418 0.71094 0.06941 0.0
H1155 H 0.14648 0.69301 0.99224 0.0
H1156 H 0.1072 0.6295 0.04321 0.0
H1157 H 0.12876 0.62689 0.14364 0.0
C1158 C 0.15067 0.66528 0.19466 0.0
C1159 C 0.15771 0.68842 0.2137 0.0
C1160 C 0.14776 0.66036 0.1295 0.0
C1161 C 0.16925 0.70326 0.1687 0.0
C1162 C 0.168 0.69776 0.10376 0.0
C1163 C 0.14377 0.67785 0.02391 0.0
C1164 C 0.12415 0.66265 1.01331 0.0
C1165 C 0.15464 0.67784 0.08408 0.0
C1166 C 0.1215 0.6422 0.05198 0.0
C1167 C 0.13358 0.64092 0.11018 0.0
loop_
_geom_bond_atom_site_label_1
_geom_bond_atom_site_label_2
_geom_bond_distance
_geom_bond_site_symmetry_2
_ccdc_geom_bond_type
Co0 N4 2.148 . S
Co0 N10 2.128 . S
Co0 N20 2.194 . S
Co0 O25 2.351 . S
Co0 O26 2.155 . S
Co0 O27 2.096 . S
C1 N4 1.301 . S
C1 N5 1.328 . S
C1 H6 0.930 . S
C2 C3 1.333 . S
C2 N4 1.317 . S
C2 H7 0.930 . S
C3 C2 1.333 . S
C3 N5 1.350 . S
C3 H29 0.931 . S
N4 Co0 2.148 . S
N4 C1 1.301 . S
N4 C2 1.317 . S
N5 C1 1.328 . S
N5 C3 1.350 . S
H6 C1 0.930 . S
H7 C2 0.930 . S
C8 O9 1.224 . S
C8 O27 1.247 . S
O9 C8 1.224 . S
N10 Co0 2.128 . S
N10 C11 1.355 . S
N10 C13 1.311 . S
C11 N10 1.355 . S
C11 C12 1.363 . S
C11 H23 0.929 . S
C12 C11 1.363 . S
C12 N14 1.375 . S
C12 H30 0.931 . S
C13 N10 1.311 . S
C13 N14 1.347 . S
C13 H24 0.929 . S
N14 C12 1.375 . S
N14 C13 1.347 . S
C15 C18 1.365 . S
C15 N20 1.328 . S
C15 H21 0.929 . S
C16 C17 1.362 . S
C16 C19 1.378 . S
C16 H31 0.929 . S
C17 C16 1.362 . S
C17 C18 1.366 . S
C18 C15 1.365 . S
C18 C17 1.366 . S
C18 H32 0.930 . S
C19 C16 1.378 . S
C19 N20 1.315 . S
C19 H22 0.930 . S
N20 Co0 2.194 . S
N20 C15 1.328 . S
N20 C19 1.315 . S
H21 C15 0.929 . S
H22 C19 0.930 . S
H23 C11 0.929 . S
H24 C13 0.929 . S
O25 Co0 2.351 . S
O25 C28 1.244 . S
O26 Co0 2.155 . S
O26 C28 1.240 . S
O27 Co0 2.096 . S
O27 C8 1.247 . S
C28 O25 1.244 . S
C28 O26 1.240 . S
H29 C3 0.931 . S
H30 C12 0.931 . S
H31 C16 0.929 . S
H32 C18 0.930 . S
Co33 N37 2.148 . S
Co33 N43 2.128 . S
Co33 N53 2.194 . S
Co33 O58 2.351 . S
Co33 O59 2.155 . S
Co33 O60 2.096 . S
C34 N37 1.301 . S
C34 N38 1.328 . S
C34 H39 0.930 . S
C35 C36 1.333 . S
C35 N37 1.317 . S
C35 H40 0.930 . S
C36 C35 1.333 . S
C36 N38 1.350 . S
C36 H62 0.931 . S
N37 Co33 2.148 . S
N37 C34 1.301 . S
N37 C35 1.317 . S
N38 C34 1.328 . S
N38 C36 1.350 . S
H39 C34 0.930 . S
H40 C35 0.930 . S
C41 O42 1.224 . S
C41 O60 1.247 . S
O42 C41 1.224 . S
N43 Co33 2.128 . S
N43 C44 1.355 . S
N43 C46 1.311 . S
C44 N43 1.355 . S
C44 C45 1.363 . S
C44 H56 0.929 . S
C45 C44 1.363 . S
C45 N47 1.375 . S
C45 H63 0.931 . S
C46 N43 1.311 . S
C46 N47 1.347 . S
C46 H57 0.929 . S
N47 C45 1.375 . S
N47 C46 1.347 . S
C48 C51 1.365 . S
C48 N53 1.328 . S
C48 H54 0.929 . S
C49 C50 1.362 . S
C49 C52 1.378 . S
C49 H64 0.929 . S
C50 C49 1.362 . S
C50 C51 1.366 . S
C51 C48 1.365 . S
C51 C50 1.366 . S
C51 H65 0.930 . S
C52 C49 1.378 . S
C52 N53 1.315 . S
C52 H55 0.930 . S
N53 Co33 2.194 . S
N53 C48 1.328 . S
N53 C52 1.315 . S
H54 C48 0.929 . S
H55 C52 0.930 . S
H56 C44 0.929 . S
H57 C46 0.929 . S
O58 Co33 2.351 . S
O58 C61 1.244 . S
O59 Co33 2.155 . S
O59 C61 1.240 . S
O60 Co33 2.096 . S
O60 C41 1.247 . S
C61 O58 1.244 . S
C61 O59 1.240 . S
H62 C36 0.931 . S
H63 C45 0.931 . S
H64 C49 0.929 . S
H65 C51 0.930 . S
Co66 N70 2.148 1_455 S
Co66 N76 2.128 . S
Co66 N86 2.194 . S
Co66 O91 2.351 . S
Co66 O92 2.155 . S
Co66 O93 2.096 1_455 S
C67 N70 1.301 1_554 S
C67 N71 1.328 . S
C67 H72 0.930 . S
C68 C69 1.333 . S
C68 N70 1.317 . S
C68 H73 0.930 . S
C69 C68 1.333 . S
C69 N71 1.350 1_556 S
C69 H95 0.931 . S
N70 Co66 2.148 1_655 S
N70 C67 1.301 1_556 S
N70 C68 1.317 . S
N71 C67 1.328 . S
N71 C69 1.350 1_554 S
H72 C67 0.930 . S
H73 C68 0.930 . S
C74 O75 1.224 . S
C74 O93 1.247 . S
O75 C74 1.224 . S
N76 Co66 2.128 . S
N76 C77 1.355 . S
N76 C79 1.311 . S
C77 N76 1.355 . S
C77 C78 1.363 . S
C77 H89 0.929 . S
C78 C77 1.363 . S
C78 N80 1.375 . S
C78 H96 0.931 . S
C79 N76 1.311 . S
C79 N80 1.347 . S
C79 H90 0.929 . S
N80 C78 1.375 . S
N80 C79 1.347 . S
C81 C84 1.365 . S
C81 N86 1.328 . S
C81 H87 0.929 . S
C82 C83 1.362 1_655 S
C82 C85 1.378 . S
C82 H97 0.929 . S
C83 C82 1.362 1_455 S
C83 C84 1.366 . S
C84 C81 1.365 . S
C84 C83 1.366 . S
C84 H98 0.930 . S
C85 C82 1.378 . S
C85 N86 1.315 1_655 S
C85 H88 0.930 . S
N86 Co66 2.194 . S
N86 C81 1.328 . S
N86 C85 1.315 1_455 S
H87 C81 0.929 . S
H88 C85 0.930 . S
H89 C77 0.929 . S
H90 C79 0.929 . S
O91 Co66 2.351 . S
O91 C94 1.244 . S
O92 Co66 2.155 . S
O92 C94 1.240 . S
O93 Co66 2.096 1_655 S
O93 C74 1.247 . S
C94 O91 1.244 . S
C94 O92 1.240 . S
H95 C69 0.931 . S
H96 C78 0.931 . S
H97 C82 0.929 . S
H98 C84 0.930 . S
Co99 N103 2.148 . S
Co99 N109 2.128 . S
Co99 N119 2.194 . S
Co99 O124 2.351 . S
Co99 O125 2.155 . S
Co99 O126 2.096 . S
C100 N103 1.301 . S
C100 N104 1.328 . S
C100 H105 0.930 . S
C101 C102 1.333 . S
C101 N103 1.317 . S
C101 H106 0.930 . S
C102 C101 1.333 . S
C102 N104 1.350 . S
C102 H128 0.931 . S
N103 Co99 2.148 . S
N103 C100 1.301 . S
N103 C101 1.317 . S
N104 C100 1.328 . S
N104 C102 1.350 . S
H105 C100 0.930 . S
H106 C101 0.930 . S
C107 O108 1.224 . S
C107 O126 1.247 . S
O108 C107 1.224 . S
N109 Co99 2.128 . S
N109 C110 1.355 . S
N109 C112 1.311 . S
C110 N109 1.355 . S
C110 C111 1.363 . S
C110 H122 0.929 . S
C111 C110 1.363 . S
C111 N113 1.375 1_554 S
C111 H129 0.931 . S
C112 N109 1.311 . S
C112 N113 1.347 1_554 S
C112 H123 0.929 1_554 S
N113 C111 1.375 1_556 S
N113 C112 1.347 1_556 S
C114 C117 1.365 . S
C114 N119 1.328 . S
C114 H120 0.929 . S
C115 C116 1.362 . S
C115 C118 1.378 . S
C115 H130 0.929 . S
C116 C115 1.362 . S
C116 C117 1.366 . S
C117 C114 1.365 . S
C117 C116 1.366 . S
C117 H131 0.930 . S
C118 C115 1.378 . S
C118 N119 1.315 . S
C118 H121 0.930 . S
N119 Co99 2.194 . S
N119 C114 1.328 . S
N119 C118 1.315 . S
H120 C114 0.929 . S
H121 C118 0.930 . S
H122 C110 0.929 . S
H123 C112 0.929 1_556 S
O124 Co99 2.351 . S
O124 C127 1.244 . S
O125 Co99 2.155 . S
O125 C127 1.240 . S
O126 Co99 2.096 . S
O126 C107 1.247 . S
C127 O124 1.244 . S
C127 O125 1.240 . S
H128 C102 0.931 . S
H129 C111 0.931 . S
H130 C115 0.929 . S
H131 C117 0.930 . S
Co132 N136 2.148 . S
Co132 N142 2.128 . S
Co132 N152 2.194 . S
Co132 O157 2.351 . S
Co132 O158 2.155 . S
Co132 O159 2.096 . S
C133 N136 1.301 . S
C133 N137 1.328 . S
C133 H138 0.930 . S
C134 C135 1.333 . S
C134 N136 1.317 . S
C134 H139 0.930 . S
C135 C134 1.333 . S
C135 N137 1.350 . S
C135 H161 0.931 . S
N136 Co132 2.148 . S
N136 C133 1.301 . S
N136 C134 1.317 . S
N137 C133 1.328 . S
N137 C135 1.350 . S
H138 C133 0.930 . S
H139 C134 0.930 . S
C140 O141 1.224 . S
C140 O159 1.247 . S
O141 C140 1.224 . S
N142 Co132 2.128 . S
N142 C143 1.355 . S
N142 C145 1.311 . S
C143 N142 1.355 . S
C143 C144 1.363 . S
C143 H155 0.929 . S
C144 C143 1.363 . S
C144 N146 1.375 . S
C144 H162 0.931 . S
C145 N142 1.311 . S
C145 N146 1.347 . S
C145 H156 0.929 . S
N146 C144 1.375 . S
N146 C145 1.347 . S
C147 C150 1.365 . S
C147 N152 1.328 . S
C147 H153 0.929 . S
C148 C149 1.362 . S
C148 C151 1.378 . S
C148 H163 0.929 . S
C149 C148 1.362 . S
C149 C150 1.366 . S
C150 C147 1.365 . S
C150 C149 1.366 . S
C150 H164 0.930 . S
C151 C148 1.378 . S
C151 N152 1.315 . S
C151 H154 0.930 . S
N152 Co132 2.194 . S
N152 C147 1.328 . S
N152 C151 1.315 . S
H153 C147 0.929 . S
H154 C151 0.930 . S
H155 C143 0.929 . S
H156 C145 0.929 . S
O157 Co132 2.351 . S
O157 C160 1.244 . S
O158 Co132 2.155 . S
O158 C160 1.240 . S
O159 Co132 2.096 . S
O159 C140 1.247 . S
C160 O157 1.244 . S
C160 O158 1.240 . S
H161 C135 0.931 . S
H162 C144 0.931 . S
H163 C148 0.929 . S
H164 C150 0.930 . S
Co165 N169 2.148 . S
Co165 N175 2.128 . S
Co165 N185 2.194 . S
Co165 O190 2.351 . S
Co165 O191 2.155 . S
Co165 O192 2.096 . S
C166 N169 1.301 . S
C166 N170 1.328 . S
C166 H171 0.930 . S
C167 C168 1.333 . S
C167 N169 1.317 . S
C167 H172 0.930 . S
C168 C167 1.333 . S
C168 N170 1.350 . S
C168 H194 0.931 . S
N169 Co165 2.148 . S
N169 C166 1.301 . S
N169 C167 1.317 . S
N170 C166 1.328 . S
N170 C168 1.350 . S
H171 C166 0.930 . S
H172 C167 0.930 . S
C173 O174 1.224 . S
C173 O192 1.247 . S
O174 C173 1.224 . S
N175 Co165 2.128 . S
N175 C176 1.355 . S
N175 C178 1.311 . S
C176 N175 1.355 . S
C176 C177 1.363 . S
C176 H188 0.929 . S
C177 C176 1.363 . S
C177 N179 1.375 1_556 S
C177 H195 0.931 . S
C178 N175 1.311 . S
C178 N179 1.347 1_556 S
C178 H189 0.929 1_556 S
N179 C177 1.375 1_554 S
N179 C178 1.347 1_554 S
C180 C183 1.365 . S
C180 N185 1.328 . S
C180 H186 0.929 . S
C181 C182 1.362 . S
C181 C184 1.378 . S
C181 H196 0.929 . S
C182 C181 1.362 . S
C182 C183 1.366 . S
C183 C180 1.365 . S
C183 C182 1.366 . S
C183 H197 0.930 . S
C184 C181 1.378 . S
C184 N185 1.315 . S
C184 H187 0.930 . S
N185 Co165 2.194 . S
N185 C180 1.328 . S
N185 C184 1.315 . S
H186 C180 0.929 . S
H187 C184 0.930 . S
H188 C176 0.929 . S
H189 C178 0.929 1_554 S
O190 Co165 2.351 . S
O190 C193 1.244 . S
O191 Co165 2.155 . S
O191 C193 1.240 . S
O192 Co165 2.096 . S
O192 C173 1.247 . S
C193 O190 1.244 . S
C193 O191 1.240 . S
H194 C168 0.931 . S
H195 C177 0.931 . S
H196 C181 0.929 . S
H197 C183 0.930 . S
Co198 N202 2.148 1_455 S
Co198 N208 2.128 . S
Co198 N218 2.194 . S
Co198 O223 2.351 . S
Co198 O224 2.155 . S
Co198 O225 2.096 1_455 S
C199 N202 1.301 1_556 S
C199 N203 1.328 . S
C199 H204 0.930 . S
C200 C201 1.333 . S
C200 N202 1.317 . S
C200 H205 0.930 . S
C201 C200 1.333 . S
C201 N203 1.350 1_554 S
C201 H227 0.931 . S
N202 Co198 2.148 1_655 S
N202 C199 1.301 1_554 S
N202 C200 1.317 . S
N203 C199 1.328 . S
N203 C201 1.350 1_556 S
H204 C199 0.930 . S
H205 C200 0.930 . S
C206 O207 1.224 . S
C206 O225 1.247 . S
O207 C206 1.224 . S
N208 Co198 2.128 . S
N208 C209 1.355 . S
N208 C211 1.311 . S
C209 N208 1.355 . S
C209 C210 1.363 . S
C209 H221 0.929 . S
C210 C209 1.363 . S
C210 N212 1.375 . S
C210 H228 0.931 . S
C211 N208 1.311 . S
C211 N212 1.347 . S
C211 H222 0.929 . S
N212 C210 1.375 . S
N212 C211 1.347 . S
C213 C216 1.365 . S
C213 N218 1.328 . S
C213 H219 0.929 . S
C214 C215 1.362 1_655 S
C214 C217 1.378 . S
C214 H229 0.929 . S
C215 C214 1.362 1_455 S
C215 C216 1.366 . S
C216 C213 1.365 . S
C216 C215 1.366 . S
C216 H230 0.930 . S
C217 C214 1.378 . S
C217 N218 1.315 1_655 S
C217 H220 0.930 . S
N218 Co198 2.194 . S
N218 C213 1.328 . S
N218 C217 1.315 1_455 S
H219 C213 0.929 . S
H220 C217 0.930 . S
H221 C209 0.929 . S
H222 C211 0.929 . S
O223 Co198 2.351 . S
O223 C226 1.244 . S
O224 Co198 2.155 . S
O224 C226 1.240 . S
O225 Co198 2.096 1_655 S
O225 C206 1.247 . S
C226 O223 1.244 . S
C226 O224 1.240 . S
H227 C201 0.931 . S
H228 C210 0.931 . S
H229 C214 0.929 . S
H230 C216 0.930 . S
Co231 N235 2.148 . S
Co231 N241 2.128 . S
Co231 N251 2.194 . S
Co231 O256 2.351 . S
Co231 O257 2.155 . S
Co231 O258 2.096 . S
C232 N235 1.301 . S
C232 N236 1.328 . S
C232 H237 0.930 . S
C233 C234 1.333 . S
C233 N235 1.317 . S
C233 H238 0.930 . S
C234 C233 1.333 . S
C234 N236 1.350 . S
C234 H260 0.931 . S
N235 Co231 2.148 . S
N235 C232 1.301 . S
N235 C233 1.317 . S
N236 C232 1.328 . S
N236 C234 1.350 . S
H237 C232 0.930 . S
H238 C233 0.930 . S
C239 O240 1.224 . S
C239 O258 1.247 . S
O240 C239 1.224 . S
N241 Co231 2.128 . S
N241 C242 1.355 . S
N241 C244 1.311 . S
C242 N241 1.355 . S
C242 C243 1.363 . S
C242 H254 0.929 . S
C243 C242 1.363 . S
C243 N245 1.375 . S
C243 H261 0.931 . S
C244 N241 1.311 . S
C244 N245 1.347 . S
C244 H255 0.929 . S
N245 C243 1.375 . S
N245 C244 1.347 . S
C246 C249 1.365 . S
C246 N251 1.328 . S
C246 H252 0.929 . S
C247 C248 1.362 . S
C247 C250 1.378 . S
C247 H262 0.929 . S
C248 C247 1.362 . S
C248 C249 1.366 . S
C249 C246 1.365 . S
C249 C248 1.366 . S
C249 H263 0.930 . S
C250 C247 1.378 . S
C250 N251 1.315 . S
C250 H253 0.930 . S
N251 Co231 2.194 . S
N251 C246 1.328 . S
N251 C250 1.315 . S
H252 C246 0.929 . S
H253 C250 0.930 . S
H254 C242 0.929 . S
H255 C244 0.929 . S
O256 Co231 2.351 . S
O256 C259 1.244 . S
O257 Co231 2.155 . S
O257 C259 1.240 . S
O258 Co231 2.096 . S
O258 C239 1.247 . S
C259 O256 1.244 . S
C259 O257 1.240 . S
H260 C234 0.931 . S
H261 C243 0.931 . S
H262 C247 0.929 . S
H263 C249 0.930 . S
Co264 N268 2.148 . S
Co264 N274 2.128 . S
Co264 N284 2.194 . S
Co264 O289 2.351 . S
Co264 O290 2.155 . S
Co264 O291 2.096 . S
C265 N268 1.301 . S
C265 N269 1.328 . S
C265 H270 0.930 . S
C266 C267 1.333 . S
C266 N268 1.317 . S
C266 H271 0.930 . S
C267 C266 1.333 . S
C267 N269 1.350 . S
C267 H293 0.931 . S
N268 Co264 2.148 . S
N268 C265 1.301 . S
N268 C266 1.317 . S
N269 C265 1.328 . S
N269 C267 1.350 . S
H270 C265 0.930 . S
H271 C266 0.930 . S
C272 O273 1.224 . S
C272 O291 1.247 . S
O273 C272 1.224 . S
N274 Co264 2.128 . S
N274 C275 1.355 . S
N274 C277 1.311 . S
C275 N274 1.355 . S
C275 C276 1.363 . S
C275 H287 0.929 . S
C276 C275 1.363 . S
C276 N278 1.375 . S
C276 H294 0.931 . S
C277 N274 1.311 . S
C277 N278 1.347 . S
C277 H288 0.929 . S
N278 C276 1.375 . S
N278 C277 1.347 . S
C279 C282 1.365 . S
C279 N284 1.328 . S
C279 H285 0.929 . S
C280 C281 1.362 . S
C280 C283 1.378 . S
C280 H295 0.929 . S
C281 C280 1.362 . S
C281 C282 1.366 . S
C282 C279 1.365 . S
C282 C281 1.366 . S
C282 H296 0.930 . S
C283 C280 1.378 . S
C283 N284 1.315 . S
C283 H286 0.930 . S
N284 Co264 2.194 . S
N284 C279 1.328 . S
N284 C283 1.315 . S
H285 C279 0.929 . S
H286 C283 0.930 . S
H287 C275 0.929 . S
H288 C277 0.929 . S
O289 Co264 2.351 . S
O289 C292 1.244 . S
O290 Co264 2.155 . S
O290 C292 1.240 . S
O291 Co264 2.096 . S
O291 C272 1.247 . S
C292 O289 1.244 . S
C292 O290 1.240 . S
H293 C267 0.931 . S
H294 C276 0.931 . S
H295 C280 0.929 . S
H296 C282 0.930 . S
Co297 N301 2.148 . S
Co297 N307 2.128 . S
Co297 N317 2.194 . S
Co297 O322 2.351 . S
Co297 O323 2.155 . S
Co297 O324 2.096 . S
C298 N301 1.301 . S
C298 N302 1.328 . S
C298 H303 0.930 . S
C299 C300 1.333 . S
C299 N301 1.317 . S
C299 H304 0.930 . S
C300 C299 1.333 . S
C300 N302 1.350 . S
C300 H326 0.931 . S
N301 Co297 2.148 . S
N301 C298 1.301 . S
N301 C299 1.317 . S
N302 C298 1.328 . S
N302 C300 1.350 . S
H303 C298 0.930 . S
H304 C299 0.930 . S
C305 O306 1.224 . S
C305 O324 1.247 . S
O306 C305 1.224 . S
N307 Co297 2.128 . S
N307 C308 1.355 . S
N307 C310 1.311 . S
C308 N307 1.355 . S
C308 C309 1.363 . S
C308 H320 0.929 . S
C309 C308 1.363 . S
C309 N311 1.375 1_556 S
C309 H327 0.931 . S
C310 N307 1.311 . S
C310 N311 1.347 1_556 S
C310 H321 0.929 1_556 S
N311 C309 1.375 1_554 S
N311 C310 1.347 1_554 S
C312 C315 1.365 . S
C312 N317 1.328 . S
C312 H318 0.929 . S
C313 C314 1.362 . S
C313 C316 1.378 . S
C313 H328 0.929 . S
C314 C313 1.362 . S
C314 C315 1.366 . S
C315 C312 1.365 . S
C315 C314 1.366 . S
C315 H329 0.930 . S
C316 C313 1.378 . S
C316 N317 1.315 . S
C316 H319 0.930 . S
N317 Co297 2.194 . S
N317 C312 1.328 . S
N317 C316 1.315 . S
H318 C312 0.929 . S
H319 C316 0.930 . S
H320 C308 0.929 . S
H321 C310 0.929 1_554 S
O322 Co297 2.351 . S
O322 C325 1.244 . S
O323 Co297 2.155 . S
O323 C325 1.240 . S
O324 Co297 2.096 . S
O324 C305 1.247 . S
C325 O322 1.244 . S
C325 O323 1.240 . S
H326 C300 0.931 . S
H327 C309 0.931 . S
H328 C313 0.929 . S
H329 C315 0.930 . S
Co330 N334 2.148 . S
Co330 N340 2.128 . S
Co330 N350 2.194 . S
Co330 O355 2.351 . S
Co330 O356 2.155 . S
Co330 O357 2.096 . S
C331 N334 1.301 . S
C331 N335 1.328 . S
C331 H336 0.930 . S
C332 C333 1.333 . S
C332 N334 1.317 . S
C332 H337 0.930 . S
C333 C332 1.333 . S
C333 N335 1.350 . S
C333 H359 0.931 . S
N334 Co330 2.148 . S
N334 C331 1.301 . S
N334 C332 1.317 . S
N335 C331 1.328 . S
N335 C333 1.350 . S
H336 C331 0.930 . S
H337 C332 0.930 . S
C338 O339 1.224 . S
C338 O357 1.247 . S
O339 C338 1.224 . S
N340 Co330 2.128 . S
N340 C341 1.355 . S
N340 C343 1.311 . S
C341 N340 1.355 . S
C341 C342 1.363 . S
C341 H353 0.929 . S
C342 C341 1.363 . S
C342 N344 1.375 1_554 S
C342 H360 0.931 . S
C343 N340 1.311 . S
C343 N344 1.347 1_554 S
C343 H354 0.929 1_554 S
N344 C342 1.375 1_556 S
N344 C343 1.347 1_556 S
C345 C348 1.365 . S
C345 N350 1.328 . S
C345 H351 0.929 . S
C346 C347 1.362 . S
C346 C349 1.378 . S
C346 H361 0.929 . S
C347 C346 1.362 . S
C347 C348 1.366 . S
C348 C345 1.365 . S
C348 C347 1.366 . S
C348 H362 0.930 . S
C349 C346 1.378 . S
C349 N350 1.315 . S
C349 H352 0.930 . S
N350 Co330 2.194 . S
N350 C345 1.328 . S
N350 C349 1.315 . S
H351 C345 0.929 . S
H352 C349 0.930 . S
H353 C341 0.929 . S
H354 C343 0.929 1_556 S
O355 Co330 2.351 . S
O355 C358 1.244 . S
O356 Co330 2.155 . S
O356 C358 1.240 . S
O357 Co330 2.096 . S
O357 C338 1.247 . S
C358 O355 1.244 . S
C358 O356 1.240 . S
H359 C333 0.931 . S
H360 C342 0.931 . S
H361 C346 0.929 . S
H362 C348 0.930 . S
Co363 N367 2.148 . S
Co363 N373 2.128 . S
Co363 N383 2.194 . S
Co363 O388 2.351 . S
Co363 O389 2.155 . S
Co363 O390 2.096 . S
C364 N367 1.301 . S
C364 N368 1.328 . S
C364 H369 0.930 . S
C365 C366 1.333 . S
C365 N367 1.317 . S
C365 H370 0.930 . S
C366 C365 1.333 . S
C366 N368 1.350 . S
C366 H392 0.931 . S
N367 Co363 2.148 . S
N367 C364 1.301 . S
N367 C365 1.317 . S
N368 C364 1.328 . S
N368 C366 1.350 . S
H369 C364 0.930 . S
H370 C365 0.930 . S
C371 O372 1.224 . S
C371 O390 1.247 . S
O372 C371 1.224 . S
N373 Co363 2.128 . S
N373 C374 1.355 . S
N373 C376 1.311 . S
C374 N373 1.355 . S
C374 C375 1.363 . S
C374 H386 0.929 . S
C375 C374 1.363 . S
C375 N377 1.375 . S
C375 H393 0.931 . S
C376 N373 1.311 . S
C376 N377 1.347 . S
C376 H387 0.929 . S
N377 C375 1.375 . S
N377 C376 1.347 . S
C378 C381 1.365 . S
C378 N383 1.328 . S
C378 H384 0.929 . S
C379 C380 1.362 . S
C379 C382 1.378 . S
C379 H394 0.929 . S
C380 C379 1.362 . S
C380 C381 1.366 . S
C381 C378 1.365 . S
C381 C380 1.366 . S
C381 H395 0.930 . S
C382 C379 1.378 . S
C382 N383 1.315 . S
C382 H385 0.930 . S
N383 Co363 2.194 . S
N383 C378 1.328 . S
N383 C382 1.315 . S
H384 C378 0.929 . S
H385 C382 0.930 . S
H386 C374 0.929 . S
H387 C376 0.929 . S
O388 Co363 2.351 . S
O388 C391 1.244 . S
O389 Co363 2.155 . S
O389 C391 1.240 . S
O390 Co363 2.096 . S
O390 C371 1.247 . S
C391 O388 1.244 . S
C391 O389 1.240 . S
H392 C366 0.931 . S
H393 C375 0.931 . S
H394 C379 0.929 . S
H395 C381 0.930 . S
Co396 N400 2.148 . S
Co396 N406 2.128 1_455 S
Co396 N416 2.194 . S
Co396 O421 2.351 1_455 S
Co396 O422 2.155 1_455 S
Co396 O423 2.096 . S
C397 N400 1.301 1_554 S
C397 N401 1.328 . S
C397 H402 0.930 . S
C398 C399 1.333 . S
C398 N400 1.317 . S
C398 H403 0.930 . S
C399 C398 1.333 . S
C399 N401 1.350 1_556 S
C399 H425 0.931 . S
N400 Co396 2.148 . S
N400 C397 1.301 1_556 S
N400 C398 1.317 . S
N401 C397 1.328 . S
N401 C399 1.350 1_554 S
H402 C397 0.930 . S
H403 C398 0.930 . S
C404 O405 1.224 . S
C404 O423 1.247 . S
O405 C404 1.224 . S
N406 Co396 2.128 1_655 S
N406 C407 1.355 . S
N406 C409 1.311 . S
C407 N406 1.355 . S
C407 C408 1.363 . S
C407 H419 0.929 . S
C408 C407 1.363 . S
C408 N410 1.375 . S
C408 H426 0.931 . S
C409 N406 1.311 . S
C409 N410 1.347 . S
C409 H420 0.929 . S
N410 C408 1.375 . S
N410 C409 1.347 . S
C411 C414 1.365 . S
C411 N416 1.328 . S
C411 H417 0.929 1_455 S
C412 C413 1.362 . S
C412 C415 1.378 . S
C412 H427 0.929 . S
C413 C412 1.362 . S
C413 C414 1.366 . S
C414 C411 1.365 . S
C414 C413 1.366 . S
C414 H428 0.930 1_455 S
C415 C412 1.378 . S
C415 N416 1.315 . S
C415 H418 0.930 . S
N416 Co396 2.194 . S
N416 C411 1.328 . S
N416 C415 1.315 . S
H417 C411 0.929 1_655 S
H418 C415 0.930 . S
H419 C407 0.929 . S
H420 C409 0.929 . S
O421 Co396 2.351 1_655 S
O421 C424 1.244 . S
O422 Co396 2.155 1_655 S
O422 C424 1.240 . S
O423 Co396 2.096 . S
O423 C404 1.247 . S
C424 O421 1.244 . S
C424 O422 1.240 . S
H425 C399 0.931 . S
H426 C408 0.931 . S
H427 C412 0.929 . S
H428 C414 0.930 1_655 S
Co429 N433 2.148 . S
Co429 N439 2.128 . S
Co429 N449 2.194 . S
Co429 O454 2.351 . S
Co429 O455 2.155 . S
Co429 O456 2.096 . S
C430 N433 1.301 . S
C430 N434 1.328 . S
C430 H435 0.930 . S
C431 C432 1.333 . S
C431 N433 1.317 . S
C431 H436 0.930 . S
C432 C431 1.333 . S
C432 N434 1.350 . S
C432 H458 0.931 . S
N433 Co429 2.148 . S
N433 C430 1.301 . S
N433 C431 1.317 . S
N434 C430 1.328 . S
N434 C432 1.350 . S
H435 C430 0.930 . S
H436 C431 0.930 . S
C437 O438 1.224 . S
C437 O456 1.247 . S
O438 C437 1.224 . S
N439 Co429 2.128 . S
N439 C440 1.355 . S
N439 C442 1.311 . S
C440 N439 1.355 . S
C440 C441 1.363 . S
C440 H452 0.929 . S
C441 C440 1.363 . S
C441 N443 1.375 . S
C441 H459 0.931 . S
C442 N439 1.311 . S
C442 N443 1.347 . S
C442 H453 0.929 . S
N443 C441 1.375 . S
N443 C442 1.347 . S
C444 C447 1.365 . S
C444 N449 1.328 . S
C444 H450 0.929 . S
C445 C446 1.362 . S
C445 C448 1.378 . S
C445 H460 0.929 . S
C446 C445 1.362 . S
C446 C447 1.366 . S
C447 C444 1.365 . S
C447 C446 1.366 . S
C447 H461 0.930 . S
C448 C445 1.378 . S
C448 N449 1.315 . S
C448 H451 0.930 . S
N449 Co429 2.194 . S
N449 C444 1.328 . S
N449 C448 1.315 . S
H450 C444 0.929 . S
H451 C448 0.930 . S
H452 C440 0.929 . S
H453 C442 0.929 . S
O454 Co429 2.351 . S
O454 C457 1.244 . S
O455 Co429 2.155 . S
O455 C457 1.240 . S
O456 Co429 2.096 . S
O456 C437 1.247 . S
C457 O454 1.244 . S
C457 O455 1.240 . S
H458 C432 0.931 . S
H459 C441 0.931 . S
H460 C445 0.929 . S
H461 C447 0.930 . S
Co462 N466 2.148 . S
Co462 N472 2.128 1_455 S
Co462 N482 2.194 . S
Co462 O487 2.351 1_455 S
Co462 O488 2.155 1_455 S
Co462 O489 2.096 . S
C463 N466 1.301 1_556 S
C463 N467 1.328 . S
C463 H468 0.930 . S
C464 C465 1.333 . S
C464 N466 1.317 . S
C464 H469 0.930 . S
C465 C464 1.333 . S
C465 N467 1.350 1_554 S
C465 H491 0.931 . S
N466 Co462 2.148 . S
N466 C463 1.301 1_554 S
N466 C464 1.317 . S
N467 C463 1.328 . S
N467 C465 1.350 1_556 S
H468 C463 0.930 . S
H469 C464 0.930 . S
C470 O471 1.224 . S
C470 O489 1.247 . S
O471 C470 1.224 . S
N472 Co462 2.128 1_655 S
N472 C473 1.355 . S
N472 C475 1.311 . S
C473 N472 1.355 . S
C473 C474 1.363 . S
C473 H485 0.929 . S
C474 C473 1.363 . S
C474 N476 1.375 . S
C474 H492 0.931 . S
C475 N472 1.311 . S
C475 N476 1.347 . S
C475 H486 0.929 . S
N476 C474 1.375 . S
N476 C475 1.347 . S
C477 C480 1.365 . S
C477 N482 1.328 . S
C477 H483 0.929 1_455 S
C478 C479 1.362 . S
C478 C481 1.378 . S
C478 H493 0.929 . S
C479 C478 1.362 . S
C479 C480 1.366 . S
C480 C477 1.365 . S
C480 C479 1.366 . S
C480 H494 0.930 1_455 S
C481 C478 1.378 . S
C481 N482 1.315 . S
C481 H484 0.930 . S
N482 Co462 2.194 . S
N482 C477 1.328 . S
N482 C481 1.315 . S
H483 C477 0.929 1_655 S
H484 C481 0.930 . S
H485 C473 0.929 . S
H486 C475 0.929 . S
O487 Co462 2.351 1_655 S
O487 C490 1.244 . S
O488 Co462 2.155 1_655 S
O488 C490 1.240 . S
O489 Co462 2.096 . S
O489 C470 1.247 . S
C490 O487 1.244 . S
C490 O488 1.240 . S
H491 C465 0.931 . S
H492 C474 0.931 . S
H493 C478 0.929 . S
H494 C480 0.930 1_655 S
Co495 N499 2.148 . S
Co495 N505 2.128 . S
Co495 N515 2.194 . S
Co495 O520 2.351 . S
Co495 O521 2.155 . S
Co495 O522 2.096 . S
C496 N499 1.301 . S
C496 N500 1.328 . S
C496 H501 0.930 . S
C497 C498 1.333 . S
C497 N499 1.317 . S
C497 H502 0.930 . S
C498 C497 1.333 . S
C498 N500 1.350 . S
C498 H524 0.931 . S
N499 Co495 2.148 . S
N499 C496 1.301 . S
N499 C497 1.317 . S
N500 C496 1.328 . S
N500 C498 1.350 . S
H501 C496 0.930 . S
H502 C497 0.930 . S
C503 O504 1.224 . S
C503 O522 1.247 . S
O504 C503 1.224 . S
N505 Co495 2.128 . S
N505 C506 1.355 . S
N505 C508 1.311 . S
C506 N505 1.355 . S
C506 C507 1.363 . S
C506 H518 0.929 . S
C507 C506 1.363 . S
C507 N509 1.375 . S
C507 H525 0.931 . S
C508 N505 1.311 . S
C508 N509 1.347 . S
C508 H519 0.929 . S
N509 C507 1.375 . S
N509 C508 1.347 . S
C510 C513 1.365 . S
C510 N515 1.328 . S
C510 H516 0.929 . S
C511 C512 1.362 . S
C511 C514 1.378 . S
C511 H526 0.929 . S
C512 C511 1.362 . S
C512 C513 1.366 . S
C513 C510 1.365 . S
C513 C512 1.366 . S
C513 H527 0.930 . S
C514 C511 1.378 . S
C514 N515 1.315 . S
C514 H517 0.930 . S
N515 Co495 2.194 . S
N515 C510 1.328 . S
N515 C514 1.315 . S
H516 C510 0.929 . S
H517 C514 0.930 . S
H518 C506 0.929 . S
H519 C508 0.929 . S
O520 Co495 2.351 . S
O520 C523 1.244 . S
O521 Co495 2.155 . S
O521 C523 1.240 . S
O522 Co495 2.096 . S
O522 C503 1.247 . S
C523 O520 1.244 . S
C523 O521 1.240 . S
H524 C498 0.931 . S
H525 C507 0.931 . S
H526 C511 0.929 . S
H527 C513 0.930 . S
H528 C534 0.930 . S
H529 C537 0.930 . S
H530 C538 0.930 . S
H531 C539 0.930 . S
H532 C542 0.930 . S
H533 C543 0.930 . S
C534 H528 0.930 . S
C534 C535 1.355 . S
C534 C536 1.451 . S
C535 C534 1.355 . S
C535 C537 1.419 . S
C536 C534 1.451 . S
C536 C541 1.421 1_545 S
C536 C543 1.378 1_545 S
C537 H529 0.930 . S
C537 C535 1.419 . S
C537 C538 1.362 . S
C538 H530 0.930 . S
C538 C537 1.362 . S
C538 C541 1.378 1_545 S
C539 H531 0.930 . S
C539 C540 1.355 . S
C539 C541 1.451 . S
C540 C539 1.355 . S
C540 C542 1.419 . S
C541 C536 1.421 1_565 S
C541 C538 1.378 1_565 S
C541 C539 1.451 . S
C542 H532 0.930 . S
C542 C540 1.419 . S
C542 C543 1.362 . S
C543 H533 0.930 . S
C543 C536 1.378 1_565 S
C543 C542 1.362 . S
H544 C550 0.930 . S
H545 C553 0.930 . S
H546 C554 0.930 . S
H547 C555 0.930 . S
H548 C558 0.930 . S
H549 C559 0.930 . S
C550 H544 0.930 . S
C550 C551 1.355 . S
C550 C552 1.415 . S
C551 C550 1.355 . S
C551 C553 1.419 . S
C552 C550 1.415 . S
C552 C557 1.425 . S
C552 C559 1.409 . S
C553 H545 0.930 . S
C553 C551 1.419 . S
C553 C554 1.362 . S
C554 H546 0.930 . S
C554 C553 1.362 . S
C554 C557 1.409 . S
C555 H547 0.930 . S
C555 C556 1.355 . S
C555 C557 1.415 . S
C556 C555 1.355 . S
C556 C558 1.419 . S
C557 C552 1.425 . S
C557 C554 1.409 . S
C557 C555 1.415 . S
C558 H548 0.930 . S
C558 C556 1.419 . S
C558 C559 1.362 . S
C559 H549 0.930 . S
C559 C552 1.409 . S
C559 C558 1.362 . S
H560 C566 0.930 . S
H561 C569 0.930 . S
H562 C570 0.930 1_556 S
H563 C571 0.930 . S
H564 C574 0.930 . S
H565 C575 0.930 1_554 S
C566 H560 0.930 . S
C566 C567 1.355 1_655 S
C566 C568 1.415 . S
C567 C566 1.355 1_455 S
C567 C569 1.419 . S
C568 C566 1.415 . S
C568 C573 1.425 1_644 S
C568 C575 1.409 1_544 S
C569 H561 0.930 . S
C569 C567 1.419 . S
C569 C570 1.362 . S
C570 H562 0.930 1_554 S
C570 C569 1.362 . S
C570 C573 1.409 1_544 S
C571 H563 0.930 . S
C571 C572 1.355 . S
C571 C573 1.415 . S
C572 C571 1.355 . S
C572 C574 1.419 1_455 S
C573 C568 1.425 1_466 S
C573 C570 1.409 1_566 S
C573 C571 1.415 . S
C574 H564 0.930 . S
C574 C572 1.419 1_655 S
C574 C575 1.362 . S
C575 H565 0.930 1_556 S
C575 C568 1.409 1_566 S
C575 C574 1.362 . S
H576 C582 0.930 . S
H577 C585 0.930 . S
H578 C586 0.930 . S
H579 C587 0.930 . S
H580 C590 0.930 . S
H581 C591 0.930 . S
C582 H576 0.930 . S
C582 C583 1.355 . S
C582 C584 1.415 . S
C583 C582 1.355 . S
C583 C585 1.419 . S
C584 C582 1.415 . S
C584 C589 1.425 . S
C584 C591 1.409 . S
C585 H577 0.930 . S
C585 C583 1.419 . S
C585 C586 1.362 . S
C586 H578 0.930 . S
C586 C585 1.362 . S
C586 C589 1.409 . S
C587 H579 0.930 . S
C587 C588 1.355 . S
C587 C589 1.415 . S
C588 C587 1.355 . S
C588 C590 1.419 . S
C589 C584 1.425 . S
C589 C586 1.409 . S
C589 C587 1.415 . S
C590 H580 0.930 . S
C590 C588 1.419 . S
C590 C591 1.362 . S
C591 H581 0.930 . S
C591 C584 1.409 . S
C591 C590 1.362 . S
H592 C598 0.930 . S
H593 C601 0.930 . S
H594 C602 0.930 . S
H595 C603 0.930 . S
H596 C606 0.930 . S
H597 C607 0.930 . S
C598 H592 0.930 . S
C598 C599 1.355 . S
C598 C600 1.415 . S
C599 C598 1.355 . S
C599 C601 1.419 . S
C600 C598 1.415 . S
C600 C605 1.425 . S
C600 C607 1.409 . S
C601 H593 0.930 . S
C601 C599 1.419 . S
C601 C602 1.362 . S
C602 H594 0.930 . S
C602 C601 1.362 . S
C602 C605 1.409 . S
C603 H595 0.930 . S
C603 C604 1.355 . S
C603 C605 1.415 . S
C604 C603 1.355 . S
C604 C606 1.419 . S
C605 C600 1.425 . S
C605 C602 1.409 . S
C605 C603 1.415 . S
C606 H596 0.930 . S
C606 C604 1.419 . S
C606 C607 1.362 . S
C607 H597 0.930 . S
C607 C600 1.409 . S
C607 C606 1.362 . S
H608 C614 0.930 . S
H609 C617 0.930 . S
H610 C618 0.930 . S
H611 C619 0.930 . S
H612 C622 0.930 . S
H613 C623 0.930 . S
C614 H608 0.930 . S
C614 C615 1.355 . S
C614 C616 1.415 . S
C615 C614 1.355 . S
C615 C617 1.419 . S
C616 C614 1.415 . S
C616 C621 1.425 . S
C616 C623 1.409 . S
C617 H609 0.930 . S
C617 C615 1.419 . S
C617 C618 1.362 . S
C618 H610 0.930 . S
C618 C617 1.362 . S
C618 C621 1.409 . S
C619 H611 0.930 . S
C619 C620 1.355 . S
C619 C621 1.415 . S
C620 C619 1.355 . S
C620 C622 1.419 . S
C621 C616 1.425 . S
C621 C618 1.409 . S
C621 C619 1.415 . S
C622 H612 0.930 . S
C622 C620 1.419 . S
C622 C623 1.362 . S
C623 H613 0.930 . S
C623 C616 1.409 . S
C623 C622 1.362 . S
H624 C630 0.892 1_655 S
H625 C633 0.930 . S
H626 C634 0.930 . S
H627 C635 0.930 . S
H628 C638 0.930 . S
H629 C639 0.930 . S
C630 H624 0.892 1_455 S
C630 C631 1.386 . S
C630 C632 1.422 . S
C631 C630 1.386 . S
C631 C633 1.419 . S
C632 C630 1.422 . S
C632 C637 1.425 1_556 S
C632 C639 1.409 1_456 S
C633 H625 0.930 . S
C633 C631 1.419 . S
C633 C634 1.362 . S
C634 H626 0.930 . S
C634 C633 1.362 . S
C634 C637 1.409 1_556 S
C635 H627 0.930 . S
C635 C636 1.355 . S
C635 C637 1.415 . S
C636 C635 1.355 . S
C636 C638 1.419 1_455 S
C637 C632 1.425 1_554 S
C637 C634 1.409 1_554 S
C637 C635 1.415 . S
C638 H628 0.930 . S
C638 C636 1.419 1_655 S
C638 C639 1.362 . S
C639 H629 0.930 . S
C639 C632 1.409 1_654 S
C639 C638 1.362 . S
H640 C646 0.930 . S
H641 C649 0.930 . S
H642 C650 0.930 . S
H643 C651 0.930 . S
H644 C654 0.930 . S
H645 C655 0.930 . S
C646 H640 0.930 . S
C646 C647 1.355 . S
C646 C648 1.415 . S
C647 C646 1.355 . S
C647 C649 1.419 . S
C648 C646 1.415 . S
C648 C653 1.425 . S
C648 C655 1.409 . S
C649 H641 0.930 . S
C649 C647 1.419 . S
C649 C650 1.362 . S
C650 H642 0.930 . S
C650 C649 1.362 . S
C650 C653 1.409 . S
C651 H643 0.930 . S
C651 C652 1.355 . S
C651 C653 1.415 . S
C652 C651 1.355 . S
C652 C654 1.419 . S
C653 C648 1.425 . S
C653 C650 1.409 . S
C653 C651 1.415 . S
C654 H644 0.930 . S
C654 C652 1.419 . S
C654 C655 1.362 . S
C655 H645 0.930 . S
C655 C648 1.409 . S
C655 C654 1.362 . S
H656 C662 0.930 . S
H657 C665 0.930 . S
H658 C666 0.930 . S
H659 C667 0.930 . S
H660 C670 0.930 . S
H661 C671 0.930 . S
C662 H656 0.930 . S
C662 C663 1.355 . S
C662 C664 1.415 . S
C663 C662 1.355 . S
C663 C665 1.419 . S
C664 C662 1.415 . S
C664 C669 1.425 . S
C664 C671 1.409 . S
C665 H657 0.930 . S
C665 C663 1.419 . S
C665 C666 1.362 . S
C666 H658 0.930 . S
C666 C665 1.362 . S
C666 C669 1.409 . S
C667 H659 0.930 . S
C667 C668 1.355 . S
C667 C669 1.415 . S
C668 C667 1.355 . S
C668 C670 1.419 . S
C669 C664 1.425 . S
C669 C666 1.409 . S
C669 C667 1.415 . S
C670 H660 0.930 . S
C670 C668 1.419 . S
C670 C671 1.362 . S
C671 H661 0.930 . S
C671 C664 1.409 . S
C671 C670 1.362 . S
H672 C678 0.930 . S
H673 C681 0.930 . S
H674 C682 0.930 . S
H675 C683 0.930 . S
H676 C686 0.930 . S
H677 C687 0.930 . S
C678 H672 0.930 . S
C678 C679 1.355 . S
C678 C680 1.415 . S
C679 C678 1.355 . S
C679 C681 1.419 . S
C680 C678 1.415 . S
C680 C685 1.425 . S
C680 C687 1.409 . S
C681 H673 0.930 . S
C681 C679 1.419 . S
C681 C682 1.362 . S
C682 H674 0.930 . S
C682 C681 1.362 . S
C682 C685 1.409 . S
C683 H675 0.930 . S
C683 C684 1.355 . S
C683 C685 1.415 . S
C684 C683 1.355 . S
C684 C686 1.419 . S
C685 C680 1.425 . S
C685 C682 1.409 . S
C685 C683 1.415 . S
C686 H676 0.930 . S
C686 C684 1.419 . S
C686 C687 1.362 . S
C687 H677 0.930 . S
C687 C680 1.409 . S
C687 C686 1.362 . S
H688 C694 0.930 . S
H689 C697 0.930 . S
H690 C698 0.930 . S
H691 C699 0.930 . S
H692 C702 0.930 . S
H693 C703 0.930 . S
C694 H688 0.930 . S
C694 C695 1.355 . S
C694 C696 1.415 . S
C695 C694 1.355 . S
C695 C697 1.419 . S
C696 C694 1.415 . S
C696 C701 1.425 . S
C696 C703 1.409 . S
C697 H689 0.930 . S
C697 C695 1.419 . S
C697 C698 1.362 . S
C698 H690 0.930 . S
C698 C697 1.362 . S
C698 C701 1.409 . S
C699 H691 0.930 . S
C699 C700 1.355 . S
C699 C701 1.415 . S
C700 C699 1.355 . S
C700 C702 1.419 . S
C701 C696 1.425 . S
C701 C698 1.409 . S
C701 C699 1.415 . S
C702 H692 0.930 . S
C702 C700 1.419 . S
C702 C703 1.362 . S
C703 H693 0.930 . S
C703 C696 1.409 . S
C703 C702 1.362 . S
H704 C710 0.930 . S
H705 C713 0.930 . S
H706 C714 0.930 . S
H707 C715 0.930 . S
H708 C718 0.930 . S
H709 C719 0.930 . S
C710 H704 0.930 . S
C710 C711 1.355 . S
C710 C712 1.415 . S
C711 C710 1.355 . S
C711 C713 1.419 . S
C712 C710 1.415 . S
C712 C717 1.425 . S
C712 C719 1.409 . S
C713 H705 0.930 . S
C713 C711 1.419 . S
C713 C714 1.362 . S
C714 H706 0.930 . S
C714 C713 1.362 . S
C714 C717 1.409 . S
C715 H707 0.930 . S
C715 C716 1.355 . S
C715 C717 1.415 . S
C716 C715 1.355 . S
C716 C718 1.419 . S
C717 C712 1.425 . S
C717 C714 1.409 . S
C717 C715 1.415 . S
C718 H708 0.930 . S
C718 C716 1.419 . S
C718 C719 1.362 . S
C719 H709 0.930 . S
C719 C712 1.409 . S
C719 C718 1.362 . S
H720 C726 0.930 . S
H721 C729 0.930 . S
H722 C730 0.930 . S
H723 C731 0.930 . S
H724 C734 0.930 . S
H725 C735 0.930 . S
C726 H720 0.930 . S
C726 C727 1.355 . S
C726 C728 1.415 . S
C727 C726 1.355 . S
C727 C729 1.419 . S
C728 C726 1.415 . S
C728 C733 1.425 . S
C728 C735 1.409 . S
C729 H721 0.930 . S
C729 C727 1.419 . S
C729 C730 1.362 . S
C730 H722 0.930 . S
C730 C729 1.362 . S
C730 C733 1.409 . S
C731 H723 0.930 . S
C731 C732 1.355 . S
C731 C733 1.415 . S
C732 C731 1.355 . S
C732 C734 1.419 . S
C733 C728 1.425 . S
C733 C730 1.409 . S
C733 C731 1.415 . S
C734 H724 0.930 . S
C734 C732 1.419 . S
C734 C735 1.362 . S
C735 H725 0.930 . S
C735 C728 1.409 . S
C735 C734 1.362 . S
H736 C742 0.930 . S
H737 C745 0.930 . S
H738 C746 0.930 . S
H739 C747 0.930 . S
H740 C750 0.930 . S
H741 C751 0.930 . S
C742 H736 0.930 . S
C742 C743 1.355 . S
C742 C744 1.415 . S
C743 C742 1.355 . S
C743 C745 1.419 . S
C744 C742 1.415 . S
C744 C749 1.425 . S
C744 C751 1.409 . S
C745 H737 0.930 . S
C745 C743 1.419 . S
C745 C746 1.362 . S
C746 H738 0.930 . S
C746 C745 1.362 . S
C746 C749 1.409 . S
C747 H739 0.930 . S
C747 C748 1.355 . S
C747 C749 1.415 . S
C748 C747 1.355 . S
C748 C750 1.419 . S
C749 C744 1.425 . S
C749 C746 1.409 . S
C749 C747 1.415 . S
C750 H740 0.930 . S
C750 C748 1.419 . S
C750 C751 1.362 . S
C751 H741 0.930 . S
C751 C744 1.409 . S
C751 C750 1.362 . S
H752 C758 0.930 . S
H753 C761 0.930 . S
H754 C762 0.930 . S
H755 C763 0.930 . S
H756 C766 0.930 . S
H757 C767 0.930 . S
C758 H752 0.930 . S
C758 C759 1.355 . S
C758 C760 1.415 . S
C759 C758 1.355 . S
C759 C761 1.419 . S
C760 C758 1.415 . S
C760 C765 1.425 . S
C760 C767 1.409 . S
C761 H753 0.930 . S
C761 C759 1.419 . S
C761 C762 1.362 . S
C762 H754 0.930 . S
C762 C761 1.362 . S
C762 C765 1.409 . S
C763 H755 0.930 . S
C763 C764 1.355 . S
C763 C765 1.415 . S
C764 C763 1.355 . S
C764 C766 1.419 . S
C765 C760 1.425 . S
C765 C762 1.409 . S
C765 C763 1.415 . S
C766 H756 0.930 . S
C766 C764 1.419 . S
C766 C767 1.362 . S
C767 H757 0.930 . S
C767 C760 1.409 . S
C767 C766 1.362 . S
H768 C774 0.930 . S
H769 C777 0.930 . S
H770 C778 0.930 . S
H771 C779 0.930 . S
H772 C782 0.930 1_556 S
H773 C783 0.930 . S
C774 H768 0.930 . S
C774 C775 1.355 . S
C774 C776 1.415 . S
C775 C774 1.355 . S
C775 C777 1.419 . S
C776 C774 1.415 . S
C776 C781 1.425 . S
C776 C783 1.409 . S
C777 H769 0.930 . S
C777 C775 1.419 . S
C777 C778 1.362 . S
C778 H770 0.930 . S
C778 C777 1.362 . S
C778 C781 1.409 . S
C779 H771 0.930 . S
C779 C780 1.355 . S
C779 C781 1.415 . S
C780 C779 1.355 . S
C780 C782 1.419 . S
C781 C776 1.425 . S
C781 C778 1.409 . S
C781 C779 1.415 . S
C782 H772 0.930 1_554 S
C782 C780 1.419 . S
C782 C783 1.362 . S
C783 H773 0.930 . S
C783 C776 1.409 . S
C783 C782 1.362 . S
H784 C790 0.930 . S
H785 C793 0.930 . S
H786 C794 0.930 . S
H787 C795 0.930 . S
H788 C798 0.930 . S
H789 C799 0.930 . S
C790 H784 0.930 . S
C790 C791 1.355 . S
C790 C792 1.415 . S
C791 C790 1.355 . S
C791 C793 1.419 . S
C792 C790 1.415 . S
C792 C797 1.425 . S
C792 C799 1.409 . S
C793 H785 0.930 . S
C793 C791 1.419 . S
C793 C794 1.362 . S
C794 H786 0.930 . S
C794 C793 1.362 . S
C794 C797 1.409 . S
C795 H787 0.930 . S
C795 C796 1.355 . S
C795 C797 1.415 . S
C796 C795 1.355 . S
C796 C798 1.419 . S
C797 C792 1.425 . S
C797 C794 1.409 . S
C797 C795 1.415 . S
C798 H788 0.930 . S
C798 C796 1.419 . S
C798 C799 1.362 . S
C799 H789 0.930 . S
C799 C792 1.409 . S
C799 C798 1.362 . S
H800 C806 0.930 . S
H801 C809 0.930 . S
H802 C810 0.930 . S
H803 C811 0.930 . S
H804 C814 0.930 . S
H805 C815 0.930 . S
C806 H800 0.930 . S
C806 C807 1.355 . S
C806 C808 1.415 . S
C807 C806 1.355 . S
C807 C809 1.419 . S
C808 C806 1.415 . S
C808 C813 1.425 . S
C808 C815 1.409 . S
C809 H801 0.930 . S
C809 C807 1.419 . S
C809 C810 1.362 . S
C810 H802 0.930 . S
C810 C809 1.362 . S
C810 C813 1.409 . S
C811 H803 0.930 . S
C811 C812 1.355 . S
C811 C813 1.415 . S
C812 C811 1.355 . S
C812 C814 1.419 . S
C813 C808 1.425 . S
C813 C810 1.409 . S
C813 C811 1.415 . S
C814 H804 0.930 . S
C814 C812 1.419 . S
C814 C815 1.362 . S
C815 H805 0.930 . S
C815 C808 1.409 . S
C815 C814 1.362 . S
H816 C822 0.930 . S
H817 C825 0.930 . S
H818 C826 0.930 . S
H819 C827 0.930 . S
H820 C830 0.930 . S
H821 C831 0.930 . S
C822 H816 0.930 . S
C822 C823 1.355 . S
C822 C824 1.415 . S
C823 C822 1.355 . S
C823 C825 1.419 . S
C824 C822 1.415 . S
C824 C829 1.425 . S
C824 C831 1.409 . S
C825 H817 0.930 . S
C825 C823 1.419 . S
C825 C826 1.362 . S
C826 H818 0.930 . S
C826 C825 1.362 . S
C826 C829 1.409 . S
C827 H819 0.930 . S
C827 C828 1.355 . S
C827 C829 1.415 . S
C828 C827 1.355 . S
C828 C830 1.419 . S
C829 C824 1.425 . S
C829 C826 1.409 . S
C829 C827 1.415 . S
C830 H820 0.930 . S
C830 C828 1.419 . S
C830 C831 1.362 . S
C831 H821 0.930 . S
C831 C824 1.409 . S
C831 C830 1.362 . S
H832 C838 0.930 . S
H833 C841 0.930 . S
H834 C842 0.930 . S
H835 C843 0.930 . S
H836 C846 0.930 . S
H837 C847 0.930 . S
C838 H832 0.930 . S
C838 C839 1.355 . S
C838 C840 1.415 . S
C839 C838 1.355 . S
C839 C841 1.419 . S
C840 C838 1.415 . S
C840 C845 1.425 . S
C840 C847 1.409 . S
C841 H833 0.930 . S
C841 C839 1.419 . S
C841 C842 1.362 . S
C842 H834 0.930 . S
C842 C841 1.362 . S
C842 C845 1.409 . S
C843 H835 0.930 . S
C843 C844 1.355 . S
C843 C845 1.415 . S
C844 C843 1.355 . S
C844 C846 1.419 . S
C845 C840 1.425 . S
C845 C842 1.409 . S
C845 C843 1.415 . S
C846 H836 0.930 . S
C846 C844 1.419 . S
C846 C847 1.362 . S
C847 H837 0.930 . S
C847 C840 1.409 . S
C847 C846 1.362 . S
H848 C854 0.930 . S
H849 C857 0.930 . S
H850 C858 0.930 . S
H851 C859 0.930 . S
H852 C862 0.930 . S
H853 C863 0.930 . S
C854 H848 0.930 . S
C854 C855 1.355 . S
C854 C856 1.415 . S
C855 C854 1.355 . S
C855 C857 1.419 . S
C856 C854 1.415 . S
C856 C861 1.425 . S
C856 C863 1.409 . S
C857 H849 0.930 . S
C857 C855 1.419 . S
C857 C858 1.362 . S
C858 H850 0.930 . S
C858 C857 1.362 . S
C858 C861 1.409 . S
C859 H851 0.930 . S
C859 C860 1.355 . S
C859 C861 1.415 . S
C860 C859 1.355 . S
C860 C862 1.419 . S
C861 C856 1.425 . S
C861 C858 1.409 . S
C861 C859 1.415 . S
C862 H852 0.930 . S
C862 C860 1.419 . S
C862 C863 1.362 . S
C863 H853 0.930 . S
C863 C856 1.409 . S
C863 C862 1.362 . S
H864 C870 0.930 . S
H865 C873 0.930 1_556 S
H866 C874 0.930 . S
H867 C875 0.930 . S
H868 C878 0.930 . S
H869 C879 0.930 . S
C870 H864 0.930 . S
C870 C871 1.355 . S
C870 C872 1.415 . S
C871 C870 1.355 . S
C871 C873 1.419 . S
C872 C870 1.415 . S
C872 C877 1.425 . S
C872 C879 1.409 . S
C873 H865 0.930 1_554 S
C873 C871 1.419 . S
C873 C874 1.362 . S
C874 H866 0.930 . S
C874 C873 1.362 . S
C874 C877 1.409 . S
C875 H867 0.930 . S
C875 C876 1.355 . S
C875 C877 1.415 . S
C876 C875 1.355 . S
C876 C878 1.419 . S
C877 C872 1.425 . S
C877 C874 1.409 . S
C877 C875 1.415 . S
C878 H868 0.930 . S
C878 C876 1.419 . S
C878 C879 1.362 . S
C879 H869 0.930 . S
C879 C872 1.409 . S
C879 C878 1.362 . S
H880 C886 0.930 . S
H881 C889 0.930 . S
H882 C890 0.930 . S
H883 C891 0.930 . S
H884 C894 0.930 . S
H885 C895 0.930 . S
C886 H880 0.930 . S
C886 C887 1.355 . S
C886 C888 1.415 . S
C887 C886 1.355 . S
C887 C889 1.419 . S
C888 C886 1.415 . S
C888 C893 1.425 . S
C888 C895 1.409 . S
C889 H881 0.930 . S
C889 C887 1.419 . S
C889 C890 1.362 . S
C890 H882 0.930 . S
C890 C889 1.362 . S
C890 C893 1.409 . S
C891 H883 0.930 . S
C891 C892 1.355 . S
C891 C893 1.415 . S
C892 C891 1.355 . S
C892 C894 1.419 . S
C893 C888 1.425 . S
C893 C890 1.409 . S
C893 C891 1.415 . S
C894 H884 0.930 . S
C894 C892 1.419 . S
C894 C895 1.362 . S
C895 H885 0.930 . S
C895 C888 1.409 . S
C895 C894 1.362 . S
H896 C902 0.930 . S
H897 C905 0.930 . S
H898 C906 0.930 . S
H899 C907 0.930 . S
H900 C910 0.930 . S
H901 C911 0.930 . S
C902 H896 0.930 . S
C902 C903 1.355 . S
C902 C904 1.415 . S
C903 C902 1.355 . S
C903 C905 1.419 . S
C904 C902 1.415 . S
C904 C909 1.425 . S
C904 C911 1.409 . S
C905 H897 0.930 . S
C905 C903 1.419 . S
C905 C906 1.362 . S
C906 H898 0.930 . S
C906 C905 1.362 . S
C906 C909 1.409 . S
C907 H899 0.930 . S
C907 C908 1.355 . S
C907 C909 1.415 . S
C908 C907 1.355 . S
C908 C910 1.419 . S
C909 C904 1.425 . S
C909 C906 1.409 . S
C909 C907 1.415 . S
C910 H900 0.930 . S
C910 C908 1.419 . S
C910 C911 1.362 . S
C911 H901 0.930 . S
C911 C904 1.409 . S
C911 C910 1.362 . S
H912 C918 0.930 . S
H913 C921 0.930 . S
H914 C922 0.930 . S
H915 C923 0.930 . S
H916 C926 0.930 . S
H917 C927 0.930 . S
C918 H912 0.930 . S
C918 C919 1.355 . S
C918 C920 1.415 . S
C919 C918 1.355 . S
C919 C921 1.419 . S
C920 C918 1.415 . S
C920 C925 1.425 . S
C920 C927 1.409 . S
C921 H913 0.930 . S
C921 C919 1.419 . S
C921 C922 1.362 . S
C922 H914 0.930 . S
C922 C921 1.362 . S
C922 C925 1.409 . S
C923 H915 0.930 . S
C923 C924 1.355 . S
C923 C925 1.415 . S
C924 C923 1.355 . S
C924 C926 1.419 . S
C925 C920 1.425 . S
C925 C922 1.409 . S
C925 C923 1.415 . S
C926 H916 0.930 . S
C926 C924 1.419 . S
C926 C927 1.362 . S
C927 H917 0.930 . S
C927 C920 1.409 . S
C927 C926 1.362 . S
H928 C934 0.930 . S
H929 C937 0.930 . S
H930 C938 0.930 . S
H931 C939 0.930 . S
H932 C942 0.930 . S
H933 C943 0.930 . S
C934 H928 0.930 . S
C934 C935 1.355 . S
C934 C936 1.415 . S
C935 C934 1.355 . S
C935 C937 1.419 . S
C936 C934 1.415 . S
C936 C941 1.425 . S
C936 C943 1.409 . S
C937 H929 0.930 . S
C937 C935 1.419 . S
C937 C938 1.362 . S
C938 H930 0.930 . S
C938 C937 1.362 . S
C938 C941 1.409 . S
C939 H931 0.930 . S
C939 C940 1.355 . S
C939 C941 1.415 . S
C940 C939 1.355 . S
C940 C942 1.419 . S
C941 C936 1.425 . S
C941 C938 1.409 . S
C941 C939 1.415 . S
C942 H932 0.930 . S
C942 C940 1.419 . S
C942 C943 1.362 . S
C943 H933 0.930 . S
C943 C936 1.409 . S
C943 C942 1.362 . S
H944 C950 0.930 . S
H945 C953 0.930 . S
H946 C954 0.930 . S
H947 C955 0.930 . S
H948 C958 0.930 . S
H949 C959 0.930 . S
C950 H944 0.930 . S
C950 C951 1.355 . S
C950 C952 1.415 . S
C951 C950 1.355 . S
C951 C953 1.419 . S
C952 C950 1.415 . S
C952 C957 1.425 . S
C952 C959 1.409 . S
C953 H945 0.930 . S
C953 C951 1.419 . S
C953 C954 1.362 . S
C954 H946 0.930 . S
C954 C953 1.362 . S
C954 C957 1.409 . S
C955 H947 0.930 . S
C955 C956 1.355 . S
C955 C957 1.415 . S
C956 C955 1.355 . S
C956 C958 1.419 . S
C957 C952 1.425 . S
C957 C954 1.409 . S
C957 C955 1.415 . S
C958 H948 0.930 . S
C958 C956 1.419 . S
C958 C959 1.362 . S
C959 H949 0.930 . S
C959 C952 1.409 . S
C959 C958 1.362 . S
H960 C966 0.930 . S
H961 C969 0.930 . S
H962 C970 0.930 . S
H963 C971 0.930 . S
H964 C974 0.930 . S
H965 C975 0.930 . S
C966 H960 0.930 . S
C966 C967 1.355 . S
C966 C968 1.415 . S
C967 C966 1.355 . S
C967 C969 1.419 . S
C968 C966 1.415 . S
C968 C973 1.425 . S
C968 C975 1.409 . S
C969 H961 0.930 . S
C969 C967 1.419 . S
C969 C970 1.362 . S
C970 H962 0.930 . S
C970 C969 1.362 . S
C970 C973 1.409 . S
C971 H963 0.930 . S
C971 C972 1.355 . S
C971 C973 1.415 . S
C972 C971 1.355 . S
C972 C974 1.419 . S
C973 C968 1.425 . S
C973 C970 1.409 . S
C973 C971 1.415 . S
C974 H964 0.930 . S
C974 C972 1.419 . S
C974 C975 1.362 . S
C975 H965 0.930 . S
C975 C968 1.409 . S
C975 C974 1.362 . S
H976 C982 0.930 . S
H977 C985 0.930 . S
H978 C986 0.930 . S
H979 C987 0.930 . S
H980 C990 0.930 . S
H981 C991 0.930 . S
C982 H976 0.930 . S
C982 C983 1.355 . S
C982 C984 1.415 . S
C983 C982 1.355 . S
C983 C985 1.419 . S
C984 C982 1.415 . S
C984 C989 1.425 . S
C984 C991 1.409 . S
C985 H977 0.930 . S
C985 C983 1.419 . S
C985 C986 1.362 . S
C986 H978 0.930 . S
C986 C985 1.362 . S
C986 C989 1.409 . S
C987 H979 0.930 . S
C987 C988 1.355 . S
C987 C989 1.415 . S
C988 C987 1.355 . S
C988 C990 1.419 . S
C989 C984 1.425 . S
C989 C986 1.409 . S
C989 C987 1.415 . S
C990 H980 0.930 . S
C990 C988 1.419 . S
C990 C991 1.362 . S
C991 H981 0.930 . S
C991 C984 1.409 . S
C991 C990 1.362 . S
H992 C998 0.930 . S
H993 C1001 0.930 . S
H994 C1002 0.930 . S
H995 C1003 0.930 . S
H996 C1006 0.930 . S
H997 C1007 0.930 . S
C998 H992 0.930 . S
C998 C999 1.355 . S
C998 C1000 1.415 . S
C999 C998 1.355 . S
C999 C1001 1.419 . S
C1000 C998 1.415 . S
C1000 C1005 1.425 . S
C1000 C1007 1.409 . S
C1001 H993 0.930 . S
C1001 C999 1.419 . S
C1001 C1002 1.362 . S
C1002 H994 0.930 . S
C1002 C1001 1.362 . S
C1002 C1005 1.409 . S
C1003 H995 0.930 . S
C1003 C1004 1.355 . S
C1003 C1005 1.415 . S
C1004 C1003 1.355 . S
C1004 C1006 1.419 . S
C1005 C1000 1.425 . S
C1005 C1002 1.409 . S
C1005 C1003 1.415 . S
C1006 H996 0.930 . S
C1006 C1004 1.419 . S
C1006 C1007 1.362 . S
C1007 H997 0.930 . S
C1007 C1000 1.409 . S
C1007 C1006 1.362 . S
H1008 C1014 0.930 . S
H1009 C1017 0.930 . S
H1010 C1018 0.930 . S
H1011 C1019 0.930 . S
H1012 C1022 0.930 . S
H1013 C1023 0.930 . S
C1014 H1008 0.930 . S
C1014 C1015 1.355 . S
C1014 C1016 1.415 . S
C1015 C1014 1.355 . S
C1015 C1017 1.419 . S
C1016 C1014 1.415 . S
C1016 C1021 1.425 . S
C1016 C1023 1.409 . S
C1017 H1009 0.930 . S
C1017 C1015 1.419 . S
C1017 C1018 1.362 . S
C1018 H1010 0.930 . S
C1018 C1017 1.362 . S
C1018 C1021 1.409 . S
C1019 H1011 0.930 . S
C1019 C1020 1.355 . S
C1019 C1021 1.415 . S
C1020 C1019 1.355 . S
C1020 C1022 1.419 . S
C1021 C1016 1.425 . S
C1021 C1018 1.409 . S
C1021 C1019 1.415 . S
C1022 H1012 0.930 . S
C1022 C1020 1.419 . S
C1022 C1023 1.362 . S
C1023 H1013 0.930 . S
C1023 C1016 1.409 . S
C1023 C1022 1.362 . S
H1024 C1030 0.930 . S
H1025 C1033 0.930 . S
H1026 C1034 0.930 . S
H1027 C1035 0.930 . S
H1028 C1038 0.930 . S
H1029 C1039 0.930 . S
C1030 H1024 0.930 . S
C1030 C1031 1.355 . S
C1030 C1032 1.415 . S
C1031 C1030 1.355 . S
C1031 C1033 1.419 . S
C1032 C1030 1.415 . S
C1032 C1037 1.425 . S
C1032 C1039 1.409 . S
C1033 H1025 0.930 . S
C1033 C1031 1.419 . S
C1033 C1034 1.362 . S
C1034 H1026 0.930 . S
C1034 C1033 1.362 . S
C1034 C1037 1.409 . S
C1035 H1027 0.930 . S
C1035 C1036 1.355 . S
C1035 C1037 1.415 . S
C1036 C1035 1.355 . S
C1036 C1038 1.419 . S
C1037 C1032 1.425 . S
C1037 C1034 1.409 . S
C1037 C1035 1.415 . S
C1038 H1028 0.930 . S
C1038 C1036 1.419 . S
C1038 C1039 1.362 . S
C1039 H1029 0.930 . S
C1039 C1032 1.409 . S
C1039 C1038 1.362 . S
H1040 C1046 0.930 . S
H1041 C1049 0.930 1_556 S
H1042 C1050 0.930 . S
H1043 C1051 0.930 . S
H1044 C1054 0.930 . S
H1045 C1055 0.930 . S
C1046 H1040 0.930 . S
C1046 C1047 1.355 . S
C1046 C1048 1.415 . S
C1047 C1046 1.355 . S
C1047 C1049 1.419 . S
C1048 C1046 1.415 . S
C1048 C1053 1.425 . S
C1048 C1055 1.409 . S
C1049 H1041 0.930 1_554 S
C1049 C1047 1.419 . S
C1049 C1050 1.362 . S
C1050 H1042 0.930 . S
C1050 C1049 1.362 . S
C1050 C1053 1.409 . S
C1051 H1043 0.930 . S
C1051 C1052 1.355 . S
C1051 C1053 1.415 . S
C1052 C1051 1.355 . S
C1052 C1054 1.419 . S
C1053 C1048 1.425 . S
C1053 C1050 1.409 . S
C1053 C1051 1.415 . S
C1054 H1044 0.930 . S
C1054 C1052 1.419 . S
C1054 C1055 1.362 . S
C1055 H1045 0.930 . S
C1055 C1048 1.409 . S
C1055 C1054 1.362 . S
H1056 C1062 0.930 . S
H1057 C1065 0.930 . S
H1058 C1066 0.930 . S
H1059 C1067 0.930 . S
H1060 C1070 0.930 . S
H1061 C1071 0.930 . S
C1062 H1056 0.930 . S
C1062 C1063 1.355 . S
C1062 C1064 1.415 . S
C1063 C1062 1.355 . S
C1063 C1065 1.419 . S
C1064 C1062 1.415 . S
C1064 C1069 1.425 . S
C1064 C1071 1.409 . S
C1065 H1057 0.930 . S
C1065 C1063 1.419 . S
C1065 C1066 1.362 . S
C1066 H1058 0.930 . S
C1066 C1065 1.362 . S
C1066 C1069 1.409 . S
C1067 H1059 0.930 . S
C1067 C1068 1.355 . S
C1067 C1069 1.415 . S
C1068 C1067 1.355 . S
C1068 C1070 1.419 . S
C1069 C1064 1.425 . S
C1069 C1066 1.409 . S
C1069 C1067 1.415 . S
C1070 H1060 0.930 . S
C1070 C1068 1.419 . S
C1070 C1071 1.362 . S
C1071 H1061 0.930 . S
C1071 C1064 1.409 . S
C1071 C1070 1.362 . S
H1072 C1078 0.930 . S
H1073 C1081 0.930 . S
H1074 C1082 0.930 . S
H1075 C1083 0.930 . S
H1076 C1086 0.930 . S
H1077 C1087 0.930 . S
C1078 H1072 0.930 . S
C1078 C1079 1.355 . S
C1078 C1080 1.415 . S
C1079 C1078 1.355 . S
C1079 C1081 1.419 . S
C1080 C1078 1.415 . S
C1080 C1085 1.425 . S
C1080 C1087 1.409 . S
C1081 H1073 0.930 . S
C1081 C1079 1.419 . S
C1081 C1082 1.362 . S
C1082 H1074 0.930 . S
C1082 C1081 1.362 . S
C1082 C1085 1.409 . S
C1083 H1075 0.930 . S
C1083 C1084 1.355 . S
C1083 C1085 1.415 . S
C1084 C1083 1.355 . S
C1084 C1086 1.419 . S
C1085 C1080 1.425 . S
C1085 C1082 1.409 . S
C1085 C1083 1.415 . S
C1086 H1076 0.930 . S
C1086 C1084 1.419 . S
C1086 C1087 1.362 . S
C1087 H1077 0.930 . S
C1087 C1080 1.409 . S
C1087 C1086 1.362 . S
H1088 C1094 0.930 . S
H1089 C1097 0.930 1_554 S
H1090 C1098 0.930 . S
H1091 C1099 0.930 . S
H1092 C1102 0.930 . S
H1093 C1103 0.930 . S
C1094 H1088 0.930 . S
C1094 C1095 1.355 . S
C1094 C1096 1.415 . S
C1095 C1094 1.355 . S
C1095 C1097 1.419 . S
C1096 C1094 1.415 . S
C1096 C1101 1.425 . S
C1096 C1103 1.409 . S
C1097 H1089 0.930 1_556 S
C1097 C1095 1.419 . S
C1097 C1098 1.362 . S
C1098 H1090 0.930 . S
C1098 C1097 1.362 . S
C1098 C1101 1.409 . S
C1099 H1091 0.930 . S
C1099 C1100 1.355 . S
C1099 C1101 1.415 . S
C1100 C1099 1.355 . S
C1100 C1102 1.419 . S
C1101 C1096 1.425 . S
C1101 C1098 1.409 . S
C1101 C1099 1.415 . S
C1102 H1092 0.930 . S
C1102 C1100 1.419 . S
C1102 C1103 1.362 . S
C1103 H1093 0.930 . S
C1103 C1096 1.409 . S
C1103 C1102 1.362 . S
H1104 C1110 0.930 . S
H1105 C1113 0.930 . S
H1106 C1114 0.930 . S
H1107 C1115 0.930 . S
H1108 C1118 0.930 . S
H1109 C1119 0.930 . S
C1110 H1104 0.930 . S
C1110 C1111 1.355 . S
C1110 C1112 1.415 . S
C1111 C1110 1.355 . S
C1111 C1113 1.419 . S
C1112 C1110 1.415 . S
C1112 C1117 1.425 . S
C1112 C1119 1.409 . S
C1113 H1105 0.930 . S
C1113 C1111 1.419 . S
C1113 C1114 1.362 . S
C1114 H1106 0.930 . S
C1114 C1113 1.362 . S
C1114 C1117 1.409 . S
C1115 H1107 0.930 . S
C1115 C1116 1.355 . S
C1115 C1117 1.415 . S
C1116 C1115 1.355 . S
C1116 C1118 1.419 . S
C1117 C1112 1.425 . S
C1117 C1114 1.409 . S
C1117 C1115 1.415 . S
C1118 H1108 0.930 . S
C1118 C1116 1.419 . S
C1118 C1119 1.362 . S
C1119 H1109 0.930 . S
C1119 C1112 1.409 . S
C1119 C1118 1.362 . S
H1120 C1126 0.930 . S
H1121 C1129 0.930 . S
H1122 C1130 0.930 . S
H1123 C1131 0.930 . S
H1124 C1134 0.930 . S
H1125 C1135 0.930 . S
C1126 H1120 0.930 . S
C1126 C1127 1.355 . S
C1126 C1128 1.415 . S
C1127 C1126 1.355 . S
C1127 C1129 1.419 . S
C1128 C1126 1.415 . S
C1128 C1133 1.425 . S
C1128 C1135 1.409 . S
C1129 H1121 0.930 . S
C1129 C1127 1.419 . S
C1129 C1130 1.362 . S
C1130 H1122 0.930 . S
C1130 C1129 1.362 . S
C1130 C1133 1.409 . S
C1131 H1123 0.930 . S
C1131 C1132 1.355 . S
C1131 C1133 1.415 . S
C1132 C1131 1.355 . S
C1132 C1134 1.419 . S
C1133 C1128 1.425 . S
C1133 C1130 1.409 . S
C1133 C1131 1.415 . S
C1134 H1124 0.930 . S
C1134 C1132 1.419 . S
C1134 C1135 1.362 . S
C1135 H1125 0.930 . S
C1135 C1128 1.409 . S
C1135 C1134 1.362 . S
H1136 C1142 0.930 . S
H1137 C1145 0.930 . S
H1138 C1146 0.930 . S
H1139 C1147 0.930 . S
H1140 C1150 0.930 . S
H1141 C1151 0.930 . S
C1142 H1136 0.930 . S
C1142 C1143 1.355 . S
C1142 C1144 1.415 . S
C1143 C1142 1.355 . S
C1143 C1145 1.419 . S
C1144 C1142 1.415 . S
C1144 C1149 1.425 . S
C1144 C1151 1.409 . S
C1145 H1137 0.930 . S
C1145 C1143 1.419 . S
C1145 C1146 1.362 . S
C1146 H1138 0.930 . S
C1146 C1145 1.362 . S
C1146 C1149 1.409 . S
C1147 H1139 0.930 . S
C1147 C1148 1.355 . S
C1147 C1149 1.415 . S
C1148 C1147 1.355 . S
C1148 C1150 1.419 . S
C1149 C1144 1.425 . S
C1149 C1146 1.409 . S
C1149 C1147 1.415 . S
C1150 H1140 0.930 . S
C1150 C1148 1.419 . S
C1150 C1151 1.362 . S
C1151 H1141 0.930 . S
C1151 C1144 1.409 . S
C1151 C1150 1.362 . S
H1152 C1158 0.930 . S
H1153 C1161 0.930 . S
H1154 C1162 0.930 . S
H1155 C1163 0.930 . S
H1156 C1166 0.930 . S
H1157 C1167 0.930 . S
C1158 H1152 0.930 . S
C1158 C1159 1.355 . S
C1158 C1160 1.415 . S
C1159 C1158 1.355 . S
C1159 C1161 1.419 . S
C1160 C1158 1.415 . S
C1160 C1165 1.425 . S
C1160 C1167 1.409 . S
C1161 H1153 0.930 . S
C1161 C1159 1.419 . S
C1161 C1162 1.362 . S
C1162 H1154 0.930 . S
C1162 C1161 1.362 . S
C1162 C1165 1.409 . S
C1163 H1155 0.930 . S
C1163 C1164 1.355 . S
C1163 C1165 1.415 . S
C1164 C1163 1.355 . S
C1164 C1166 1.419 . S
C1165 C1160 1.425 . S
C1165 C1162 1.409 . S
C1165 C1163 1.415 . S
C1166 H1156 0.930 . S
C1166 C1164 1.419 . S
C1166 C1167 1.362 . S
C1167 H1157 0.930 . S
C1167 C1160 1.409 . S
C1167 C1166 1.362 . S
C535 C17 1.331 . S
C540 C149 1.324 . S
C551 C182 1.373 . S
C556 C50 1.373 . S
C567 C215 1.335 . S
C572 C83 1.328 . S
C583 C116 1.284 . S
C588 C248 1.281 . S
C599 C281 1.373 . S
C604 C347 1.373 . S
C615 C380 1.369 . S
C620 C314 1.371 . S
C631 C413 1.312 . S
C636 C479 1.319 . S
C647 C446 1.372 . S
C652 C512 1.373 . S
C663 N14 1.335 . S
C668 N179 1.349 . S
C679 N212 1.276 . S
C684 N47 1.272 . S
C695 N245 1.273 . S
C700 N80 1.276 . S
C711 N113 1.352 . S
C716 N146 1.339 . S
C727 C140 1.964 . S
C732 C338 1.962 1_556 S
C743 C74 1.963 . S
C748 C272 1.965 . S
C759 C206 1.963 . S
C764 C371 1.963 . S
C775 C8 1.978 . S
C780 C305 1.973 1_554 S
C791 N410 1.316 . S
C796 N278 1.301 . S
C807 N344 1.358 . S
C812 N509 1.366 . S
C823 N311 1.367 . S
C828 N443 1.360 . S
C839 N377 1.308 . S
C844 N476 1.324 . S
C855 C470 1.971 . S
C860 C41 1.966 . S
C871 C173 1.976 1_554 S
C876 C437 1.971 . S
C887 C107 1.969 1_556 S
C892 C503 1.965 . S
C903 C404 1.963 . S
C908 C239 1.964 . S
C919 C193 1.737 . S
C924 C28 1.738 . S
C935 C226 1.744 1_556 S
C940 C61 1.747 . S
C951 C94 1.745 1_554 S
C956 C259 1.747 . S
C967 C127 1.761 . S
C972 C160 1.763 . S
C983 N137 0.586 . S
C988 N335 0.583 . S
C999 N269 0.669 . S
C1004 N71 0.749 . S
C1015 N368 0.801 . S
C1020 N203 0.778 . S
C1031 N5 0.772 . S
C1036 N302 0.801 . S
C1047 C424 1.758 1_554 S
C1052 C292 1.756 . S
C1063 C358 1.764 . S
C1068 C523 1.763 . S
C1079 C457 1.738 . S
C1084 C325 1.740 . S
C1095 C490 1.764 1_556 S
C1100 C391 1.763 . S
C1111 N38 0.673 . S
C1116 N467 0.599 . S
C1127 N170 0.580 . S
C1132 N434 0.591 . S
C1143 N500 0.594 . S
C1148 N104 0.578 . S
C1159 N236 0.789 . S
C1164 N401 0.731 . S
