# Generated by pormake.
# Topology wkt, (7)-cn, num edge types: 1
# Building blocks:
#     Node 0, Type 0, BuildingBlock: NUHQUE_clean_sbu_2, # of connection points: 7
#     Node 1, Type 0, BuildingBlock: NUHQUE_clean_sbu_2, # of connection points: 7
#     Node 2, Type 0, BuildingBlock: NUHQUE_clean_sbu_2, # of connection points: 7
#     Node 3, Type 0, BuildingBlock: NUHQUE_clean_sbu_2, # of connection points: 7
#     Node 4, Type 0, BuildingBlock: NUHQUE_clean_sbu_2, # of connection points: 7
#     Node 5, Type 0, BuildingBlock: NUHQUE_clean_sbu_2, # of connection points: 7
#     Node 6, Type 0, BuildingBlock: NUHQUE_clean_sbu_2, # of connection points: 7
#     Node 7, Type 0, BuildingBlock: NUHQUE_clean_sbu_2, # of connection points: 7
#     Node 8, Type 0, BuildingBlock: NUHQUE_clean_sbu_2, # of connection points: 7
#     Node 9, Type 0, BuildingBlock: NUHQUE_clean_sbu_2, # of connection points: 7
#     Node 10, Type 0, BuildingBlock: NUHQUE_clean_sbu_2, # of connection points: 7
#     Node 11, Type 0, BuildingBlock: NUHQUE_clean_sbu_2, # of connection points: 7
#     Edge 12, Type (0, 0), BuildingBlock: EZIPEK_clean_linker_0, # of connection points: 2
#     Edge 13, Type (0, 0), BuildingBlock: EZIPEK_clean_linker_0, # of connection points: 2
#     Edge 14, Type (0, 0), BuildingBlock: EZIPEK_clean_linker_0, # of connection points: 2
#     Edge 15, Type (0, 0), BuildingBlock: EZIPEK_clean_linker_0, # of connection points: 2
#     Edge 16, Type (0, 0), BuildingBlock: EZIPEK_clean_linker_0, # of connection points: 2
#     Edge 17, Type (0, 0), BuildingBlock: EZIPEK_clean_linker_0, # of connection points: 2
#     Edge 18, Type (0, 0), BuildingBlock: EZIPEK_clean_linker_0, # of connection points: 2
#     Edge 19, Type (0, 0), BuildingBlock: EZIPEK_clean_linker_0, # of connection points: 2
#     Edge 20, Type (0, 0), BuildingBlock: EZIPEK_clean_linker_0, # of connection points: 2
#     Edge 21, Type (0, 0), BuildingBlock: EZIPEK_clean_linker_0, # of connection points: 2
#     Edge 22, Type (0, 0), BuildingBlock: EZIPEK_clean_linker_0, # of connection points: 2
#     Edge 23, Type (0, 0), BuildingBlock: EZIPEK_clean_linker_0, # of connection points: 2
#     Edge 24, Type (0, 0), BuildingBlock: EZIPEK_clean_linker_0, # of connection points: 2
#     Edge 25, Type (0, 0), BuildingBlock: EZIPEK_clean_linker_0, # of connection points: 2
#     Edge 26, Type (0, 0), BuildingBlock: EZIPEK_clean_linker_0, # of connection points: 2
#     Edge 27, Type (0, 0), BuildingBlock: EZIPEK_clean_linker_0, # of connection points: 2
#     Edge 28, Type (0, 0), BuildingBlock: EZIPEK_clean_linker_0, # of connection points: 2
#     Edge 29, Type (0, 0), BuildingBlock: EZIPEK_clean_linker_0, # of connection points: 2
#     Edge 30, Type (0, 0), BuildingBlock: EZIPEK_clean_linker_0, # of connection points: 2
#     Edge 31, Type (0, 0), BuildingBlock: EZIPEK_clean_linker_0, # of connection points: 2
#     Edge 32, Type (0, 0), BuildingBlock: EZIPEK_clean_linker_0, # of connection points: 2
#     Edge 33, Type (0, 0), BuildingBlock: EZIPEK_clean_linker_0, # of connection points: 2
#     Edge 34, Type (0, 0), BuildingBlock: EZIPEK_clean_linker_0, # of connection points: 2
#     Edge 35, Type (0, 0), BuildingBlock: EZIPEK_clean_linker_0, # of connection points: 2
#     Edge 36, Type (0, 0), BuildingBlock: EZIPEK_clean_linker_0, # of connection points: 2
#     Edge 37, Type (0, 0), BuildingBlock: EZIPEK_clean_linker_0, # of connection points: 2
#     Edge 38, Type (0, 0), BuildingBlock: EZIPEK_clean_linker_0, # of connection points: 2
#     Edge 39, Type (0, 0), BuildingBlock: EZIPEK_clean_linker_0, # of connection points: 2
#     Edge 40, Type (0, 0), BuildingBlock: EZIPEK_clean_linker_0, # of connection points: 2
#     Edge 41, Type (0, 0), BuildingBlock: EZIPEK_clean_linker_0, # of connection points: 2
#     Edge 42, Type (0, 0), BuildingBlock: EZIPEK_clean_linker_0, # of connection points: 2
#     Edge 43, Type (0, 0), BuildingBlock: EZIPEK_clean_linker_0, # of connection points: 2
#     Edge 44, Type (0, 0), BuildingBlock: EZIPEK_clean_linker_0, # of connection points: 2
#     Edge 45, Type (0, 0), BuildingBlock: EZIPEK_clean_linker_0, # of connection points: 2
#     Edge 46, Type (0, 0), BuildingBlock: EZIPEK_clean_linker_0, # of connection points: 2
#     Edge 47, Type (0, 0), BuildingBlock: EZIPEK_clean_linker_0, # of connection points: 2
#     Edge 48, Type (0, 0), BuildingBlock: EZIPEK_clean_linker_0, # of connection points: 2
#     Edge 49, Type (0, 0), BuildingBlock: EZIPEK_clean_linker_0, # of connection points: 2
#     Edge 50, Type (0, 0), BuildingBlock: EZIPEK_clean_linker_0, # of connection points: 2
#     Edge 51, Type (0, 0), BuildingBlock: EZIPEK_clean_linker_0, # of connection points: 2
#     Edge 52, Type (0, 0), BuildingBlock: EZIPEK_clean_linker_0, # of connection points: 2
#     Edge 53, Type (0, 0), BuildingBlock: EZIPEK_clean_linker_0, # of connection points: 2
# Relax obj value: 0.312
# Max RMSD: 0.288
# Mean RMSD: 0.288
data_MOF--net-wkt--node1-NUHQUE_clean_sbu_2--edge1-EZIPEK_clean_linker_0
_symmetry_space_group_name_H-M    P1
_symmetry_Int_Tables_number       1
_symmetry_cell_setting            triclinic
loop_
_symmetry_equiv_pos_as_xyz
'x, y, z'
_cell_length_a     23.505916
_cell_length_b     23.683368
_cell_length_c     57.195216
_cell_angle_alpha  90.104378
_cell_angle_beta   89.837881
_cell_angle_gamma 119.68801
loop_
_atom_site_label
_atom_site_type_symbol
_atom_site_fract_x
_atom_site_fract_y
_atom_site_fract_z
_atom_type_partial_charge
O0 O 0.42321 0.50192 0.04764 0.0
Tb1 Tb 0.4702 0.57362 0.01911 0.0
Eu2 Eu 0.40666 0.44983 0.98937 0.0
C3 C 0.38 0.50663 0.06133 0.0
O4 O 0.36003 0.54734 0.05525 0.0
C5 C 0.32605 0.53113 -0.0014 0.0
O6 O 0.44254 0.5009 0.95496 0.0
C7 C 0.35184 0.32537 0.9852 0.0
C8 C 0.47014 0.5644 0.95334 0.0
O9 O 0.47447 0.59902 0.97186 0.0
C10 C 0.56412 0.52342 -5e-05 0.0
C11 C 0.38088 0.28257 0.9879 0.0
C12 C 0.38187 0.25808 0.01006 0.0
C13 C 0.42553 0.23555 0.01524 0.0
C14 C 0.46106 0.22771 -0.00322 0.0
C15 C 0.45534 0.24567 0.97372 0.0
C16 C 0.41668 0.27488 0.96969 0.0
O17 O 0.38288 0.57908 0.00622 0.0
O18 O 0.32264 0.47479 0.99346 0.0
O19 O 0.5164 0.62764 0.05065 0.0
O20 O 0.51104 0.6788 0.02126 0.0
C21 C 0.53031 0.68437 0.04284 0.0
O22 O 0.5092 0.4669 0.00101 0.0
O23 O 0.55705 0.57534 0.00181 0.0
O24 O 0.37145 0.36454 0.96699 0.0
O25 O 0.34864 0.35411 0.00455 0.0
H26 H 0.3536 0.26298 0.02414 0.0
H27 H 0.49438 0.2096 0.0004 0.0
H28 H 0.41599 0.29308 0.95237 0.0
O29 O 0.95695 0.36955 0.21476 0.0
Tb30 Tb 0.94242 0.43647 0.19167 0.0
Eu31 Eu 1.00615 0.37691 0.16245 0.0
C32 C 0.98982 0.38762 0.23476 0.0
O33 O 1.03019 0.44961 0.23861 0.0
C34 C 0.84248 0.29801 0.1684 0.0
O35 O 0.99369 0.40121 0.12584 0.0
C36 C 1.07885 0.32404 0.16653 0.0
C37 C 0.96075 0.43182 0.12259 0.0
O38 O 0.93385 0.44451 0.14048 0.0
C39 C 1.08542 0.53798 0.17039 0.0
C40 C 0.15062 0.3499 0.16867 0.0
C41 C 0.17801 0.35563 0.19091 0.0
C42 C 0.24578 0.38304 0.19397 0.0
C43 C 0.28722 0.40471 0.17406 0.0
C44 C 0.26055 0.39926 0.1514 0.0
C45 C 0.19226 0.37132 0.149 0.0
O46 O 0.85127 0.35575 0.17504 0.0
O47 O 0.89627 0.29347 0.16524 0.0
O48 O 0.93307 0.47349 0.22546 0.0
O49 O 0.87337 0.4716 0.19755 0.0
C50 C 0.88757 0.48623 0.21947 0.0
O51 O 1.08952 0.48506 0.16618 0.0
O52 O 1.02782 0.52906 0.17773 0.0
O53 O 1.05689 0.3311 0.14619 0.0
O54 O 1.05022 0.3348 0.18455 0.0
H55 H 0.1464 0.33913 0.20617 0.0
H56 H 0.33972 0.42663 0.1762 0.0
H57 H 0.17192 0.36793 0.13174 0.0
O58 O 0.63264 0.93166 0.38125 0.0
Tb59 Tb 0.55912 0.90939 0.35342 0.0
Eu60 Eu 0.68523 0.97032 0.32449 0.0
C61 C 0.61788 0.8876 0.39797 0.0
O62 O 0.56389 0.83156 0.39546 0.0
C63 C 0.59872 0.8072 0.33009 0.0
O64 O 0.64665 0.95908 0.28828 0.0
C65 C 0.81078 1.03954 0.32895 0.0
C66 C 0.58279 0.9274 0.28618 0.0
O67 O 0.54627 0.89949 0.30461 0.0
C68 C 0.60292 1.04986 0.33059 0.0
C69 C 0.85612 0.11014 0.33295 0.0
C70 C 0.87033 0.13445 0.35589 0.0
C71 C 0.90866 0.20126 0.36039 0.0
C72 C 0.93341 0.24498 0.3413 0.0
C73 C 0.92027 0.22143 0.31801 0.0
C74 C 0.88253 0.15396 0.31415 0.0
O75 O 0.55143 0.81617 0.33935 0.0
O76 O 0.65571 0.85988 0.325 0.0
O77 O 0.51188 0.91698 0.38508 0.0
O78 O 0.45368 0.84938 0.35927 0.0
C79 C 0.45241 0.87505 0.37929 0.0
O80 O 0.66128 1.05439 0.32918 0.0
O81 O 0.55312 0.99162 0.33579 0.0
O82 O 0.78196 1.02225 0.30837 0.0
O83 O 0.77118 1.00765 0.34647 0.0
H84 H 0.85099 0.10125 0.37058 0.0
H85 H 0.96205 0.29676 0.34453 0.0
H86 H 0.8716 0.13607 0.29634 0.0
O87 O 0.7962 0.62962 0.54864 0.0
Tb88 Tb 0.73826 0.55406 0.5223 0.0
Eu89 Eu 0.80208 0.67733 0.49582 0.0
C90 C 0.76931 0.64728 0.56553 0.0
O91 O 0.70814 0.63356 0.5634 0.0
C92 C 0.88072 0.59466 0.50225 0.0
O93 O 0.79172 0.63219 0.4609 0.0
C94 C 0.85187 0.80107 0.493 0.0
C95 C 0.75473 0.56932 0.45858 0.0
O96 O 0.72676 0.53289 0.4769 0.0
C97 C 0.63996 0.59772 0.50182 0.0
C98 C 0.81896 0.83981 0.49739 0.0
C99 C 0.81038 0.8541 0.52044 0.0
C100 C 0.773 0.88349 0.52586 0.0
C101 C 0.74415 0.90041 0.50734 0.0
C102 C 0.75161 0.88578 0.48374 0.0
C103 C 0.78953 0.85589 0.47917 0.0
O104 O 0.821 0.5451 0.50621 0.0
O105 O 0.88662 0.65352 0.50195 0.0
O106 O 0.68901 0.5074 0.55444 0.0
O107 O 0.70476 0.45128 0.52887 0.0
C108 C 0.68087 0.45064 0.54944 0.0
O109 O 0.69401 0.65527 0.50167 0.0
O110 O 0.64818 0.54728 0.50592 0.0
O111 O 0.8327 0.7636 0.47434 0.0
O112 O 0.85952 0.77225 0.51148 0.0
H113 H 0.83214 0.84123 0.53467 0.0
H114 H 0.71522 0.92337 0.51125 0.0
H115 H 0.79438 0.84335 0.46132 0.0
O116 O 0.216 0.73469 0.71917 0.0
Tb117 Tb 0.23731 0.68597 0.69022 0.0
Eu118 Eu 0.181 0.74214 0.65622 0.0
C119 C 0.26334 0.76868 0.73437 0.0
O120 O 0.32138 0.77584 0.73018 0.0
C121 C 0.34193 0.82577 0.66558 0.0
O122 O 0.20506 0.71931 0.62133 0.0
C123 C 0.10912 0.79547 0.65993 0.0
C124 C 0.24539 0.69622 0.62175 0.0
O125 O 0.27106 0.69331 0.64169 0.0
C126 C 1.09599 0.58243 0.66629 0.0
C127 C 1.03863 0.77093 0.66459 0.0
C128 C 1.01719 0.76439 0.68778 0.0
C129 C 0.95152 0.74168 0.69335 0.0
C130 C 0.90572 0.7262 0.67498 0.0
C131 C 0.92601 0.73098 0.65124 0.0
C132 C 0.99274 0.75336 0.64644 0.0
O133 O 0.33196 0.77218 0.6768 0.0
O134 O 0.28918 0.82677 0.65794 0.0
O135 O 0.25373 0.64298 0.72099 0.0
O136 O 0.2987 0.64062 0.68916 0.0
C137 C 0.29111 0.62412 0.7111 0.0
O138 O 0.09921 0.63358 0.65575 0.0
O139 O 0.14619 0.59308 0.67983 0.0
O140 O 0.12556 0.7822 0.63941 0.0
O141 O 0.14239 0.79018 0.67757 0.0
H142 H 1.05206 0.77736 0.70196 0.0
H143 H 0.85487 0.70972 0.6791 0.0
H144 H 1.00882 0.75718 0.62844 0.0
O145 O 0.57998 0.20033 0.87409 0.0
Tb146 Tb 0.65278 0.21736 0.84694 0.0
Eu147 Eu 0.51943 0.1552 0.82708 0.0
C148 C 0.59623 0.24674 0.88987 0.0
O149 O 0.65124 0.3016 0.88696 0.0
C150 C 0.6074 0.31758 0.83044 0.0
O151 O 0.55183 0.1701 0.78983 0.0
C152 C 0.39387 0.08689 0.83187 0.0
C153 C 0.61464 0.19992 0.78517 0.0
O154 O 0.65748 0.2231 0.8021 0.0
C155 C 0.59862 0.07164 0.82981 0.0
C156 C 0.34774 1.01658 0.83555 0.0
C157 C 0.32855 0.99346 0.85839 0.0
C158 C 0.28851 0.9271 0.86302 0.0
C159 C 0.266 0.88265 0.84414 0.0
C160 C 0.28501 0.90496 0.82091 0.0
C161 C 0.32547 0.97201 0.81688 0.0
O162 O 0.65841 0.30785 0.83188 0.0
O163 O 0.54833 0.26489 0.83219 0.0
O164 O 0.75864 0.27555 0.85189 0.0
O165 O 0.69989 0.21143 0.87858 0.0
C166 C 0.75955 0.25126 0.87221 0.0
O167 O 0.54149 0.06973 0.83175 0.0
O168 O 0.65101 0.13015 0.83081 0.0
O169 O 0.42235 0.10506 0.81126 0.0
O170 O 0.434 0.11684 0.84937 0.0
H171 H 0.34549 1.02734 0.87294 0.0
H172 H 0.23515 0.83118 0.84752 0.0
H173 H 0.34074 0.98906 0.79916 0.0
O174 O 0.64934 0.72624 0.77162 0.0
Tb175 Tb 0.57828 0.68032 0.80062 0.0
Eu176 Eu 0.70353 0.74415 0.82798 0.0
C177 C 0.64379 0.76846 0.75791 0.0
O178 O 0.6023 0.78768 0.7641 0.0
C179 C 0.62245 0.82494 0.81963 0.0
O180 O 0.65724 0.71271 0.86346 0.0
C181 C 0.82895 0.79903 0.82938 0.0
C182 C 0.59391 0.68788 0.86649 0.0
O183 O 0.55656 0.68337 0.8488 0.0
C184 C 0.63055 0.58749 0.81827 0.0
C185 C 0.87165 0.77105 0.8241 0.0
C186 C 0.8884 0.76772 0.80085 0.0
C187 C 0.92177 0.73487 0.79456 0.0
C188 C 0.94123 0.70628 0.81236 0.0
C189 C 0.92424 0.70864 0.83612 0.0
C190 C 0.88968 0.74143 0.84157 0.0
O191 O 0.57284 0.76747 0.81348 0.0
O192 O 0.67981 0.82856 0.82357 0.0
O193 O 0.52267 0.63429 0.76937 0.0
O194 O 0.47202 0.63774 0.79946 0.0
C195 C 0.4656 0.61896 0.77779 0.0
O196 O 0.68703 0.64227 0.81658 0.0
O197 O 0.57788 0.59411 0.81731 0.0
O198 O 0.79268 0.77778 0.8484 0.0
O199 O 0.7971 0.80424 0.81134 0.0
H200 H 0.87385 0.78957 0.78714 0.0
H201 H 0.96768 0.68121 0.80774 0.0
H202 H 0.87532 0.74238 0.85953 0.0
O203 O 0.96532 0.58834 0.93842 0.0
Tb204 Tb 0.94138 0.51381 0.96566 0.0
Eu205 Eu 1.00075 0.64003 0.99318 0.0
C206 C 0.92324 0.57388 0.92095 0.0
O207 O 0.86721 0.51933 0.92236 0.0
C208 C 0.83767 0.55297 0.98609 0.0
O209 O 0.98732 0.60207 0.02965 0.0
C210 C 1.06942 0.76509 0.99161 0.0
C211 C 0.95577 0.53914 0.03311 0.0
O212 O 0.92797 0.49954 0.01545 0.0
C213 C 1.08239 0.56099 0.98692 0.0
C214 C 0.14069 0.81033 0.98864 0.0
C215 C 0.16589 0.83154 0.96615 0.0
C216 C 0.23328 0.86989 0.96218 0.0
C217 C 0.27678 0.8887 0.98138 0.0
C218 C 0.25227 0.86797 0.0043 0.0
C219 C 0.18421 0.82924 0.00765 0.0
O220 O 0.84735 0.50429 0.97961 0.0
O221 O 0.89033 0.6111 0.98933 0.0
O222 O 0.95463 0.4697 0.93439 0.0
O223 O 0.88337 0.40943 0.959 0.0
C224 C 0.91282 0.41007 0.9396 0.0
O225 O 1.08624 0.61863 0.98633 0.0
O226 O 1.02321 0.5103 0.98428 0.0
O227 O 1.05023 0.73287 0.01146 0.0
O228 O 1.03913 0.72904 0.97323 0.0
H229 H 0.13286 0.81733 0.95134 0.0
H230 H 0.32903 0.91828 0.9785 0.0
H231 H 0.16548 0.81262 0.02513 0.0
O232 O 0.41953 0.93055 0.10644 0.0
Tb233 Tb 0.47034 0.91053 0.13503 0.0
Eu234 Eu 0.40493 0.97432 0.16051 0.0
C235 C 0.37861 0.88142 0.09296 0.0
O236 O 0.36316 0.82227 0.09925 0.0
C237 C 0.32672 0.81141 0.15655 0.0
O238 O 0.42672 0.96478 0.19765 0.0
C239 C 0.34899 1.04231 0.1522 0.0
C240 C 0.45768 0.93234 0.2011 0.0
O241 O 0.4697 0.90472 0.18334 0.0
C242 C 0.56818 1.05513 0.15488 0.0
C243 C 0.37691 0.11186 0.14612 0.0
C244 C 0.38295 0.13 0.12249 0.0
C245 C 0.42514 0.1945 0.11546 0.0
C246 C 0.4568 0.24225 0.13293 0.0
C247 C 0.44326 0.22589 0.15672 0.0
C248 C 0.40486 0.16054 0.16322 0.0
O249 O 0.38455 0.81972 0.14971 0.0
O250 O 0.32212 0.86471 0.15976 0.0
O251 O 0.51385 0.89782 0.10344 0.0
O252 O 0.5117 0.84583 0.13379 0.0
C253 C 0.52923 0.85651 0.11195 0.0
O254 O 0.51371 1.05857 0.1569 0.0
O255 O 0.56076 0.9972 0.14958 0.0
O256 O 0.35873 1.0285 0.17365 0.0
O257 O 0.35803 1.00751 0.13616 0.0
H258 H 0.35799 0.09282 0.10931 0.0
H259 H 0.49001 0.29229 0.12809 0.0
H260 H 0.39828 0.14783 0.18161 0.0
O261 O 0.51543 0.36382 0.2576 0.0
Tb262 Tb 0.56631 0.41151 0.28987 0.0
Eu263 Eu 0.5502 0.40534 0.33624 0.0
C264 C 0.52188 0.39436 0.23769 0.0
O265 O 0.55209 0.45812 0.23708 0.0
C266 C 0.5708 0.29123 0.3167 0.0
O267 O 0.59107 0.42222 0.37195 0.0
C268 C 0.42489 0.35297 0.33013 0.0
C269 C 0.65269 0.43706 0.37323 0.0
O270 O 0.68401 0.43702 0.3542 0.0
C271 C 0.57025 0.5359 0.31472 0.0
C272 C 0.37775 0.37463 0.3231 0.0
C273 C 0.36127 0.37437 0.29937 0.0
C274 C 0.31657 0.39448 0.29256 0.0
C275 C 0.2876 0.41477 0.30985 0.0
C276 C 0.30333 0.41485 0.33365 0.0
C277 C 0.3481 0.39466 0.34004 0.0
O278 O 0.55065 0.30925 0.29764 0.0
O279 O 0.58397 0.32961 0.33486 0.0
O280 O 0.64694 0.46468 0.26612 0.0
O281 O 0.66807 0.45043 0.30092 0.0
C282 C 0.69341 0.47498 0.28058 0.0
O283 O 0.59274 0.51513 0.33167 0.0
O284 O 0.54309 0.4936 0.29704 0.0
O285 O 0.45273 0.37085 0.35088 0.0
O286 O 0.46525 0.35497 0.31372 0.0
H287 H 0.38302 0.35837 0.28604 0.0
H288 H 0.25335 0.43067 0.30483 0.0
H289 H 0.3601 0.39517 0.35835 0.0
O290 O 0.25088 0.5154 0.43429 0.0
Tb291 Tb 0.25333 0.58395 0.46072 0.0
Eu292 Eu 0.20546 0.48796 0.49904 0.0
C293 C 0.21944 0.5053 0.41424 0.0
O294 O 0.17885 0.52774 0.41132 0.0
C295 C 0.36223 0.5577 0.48664 0.0
O296 O 0.22582 0.51539 0.53621 0.0
C297 C 0.11908 0.36968 0.48907 0.0
C298 C 0.2734 0.5748 0.53972 0.0
O299 O 0.31148 0.608 0.52225 0.0
C300 C 0.11944 0.55642 0.48693 0.0
C301 C 1.04705 0.32959 0.48613 0.0
C302 C 1.02257 0.30833 0.4636 0.0
C303 C 0.95545 0.26857 0.45949 0.0
C304 C 0.9114 0.24948 0.47866 0.0
C305 C 0.93493 0.27133 0.50165 0.0
C306 C 1.00297 0.31118 0.50507 0.0
O307 O 0.34983 0.60061 0.47595 0.0
O308 O 0.31089 0.50424 0.49464 0.0
O309 O 0.27332 0.64355 0.42983 0.0
O310 O 0.29214 0.68899 0.46306 0.0
C311 C 0.29236 0.69818 0.44063 0.0
O312 O 0.14334 0.53832 0.50434 0.0
O313 O 0.14962 0.56451 0.46652 0.0
O314 O 0.14252 0.388 0.51038 0.0
O315 O 0.15016 0.41483 0.473 0.0
H316 H 1.05637 0.3221 0.44897 0.0
H317 H 0.85944 0.21817 0.47574 0.0
H318 H 1.02134 0.32783 0.52256 0.0
O319 O 0.76108 0.19549 0.60341 0.0
Tb320 Tb 0.7099 0.21007 0.63332 0.0
Eu321 Eu 0.77592 0.1468 0.65612 0.0
C322 C 0.79537 0.24524 0.58913 0.0
O323 O 0.80143 0.30181 0.59467 0.0
C324 C 0.85515 0.30802 0.65142 0.0
O325 O 0.74888 0.16611 0.6917 0.0
C326 C 0.83129 0.07645 0.65884 0.0
C327 C 0.71701 0.19805 0.69465 0.0
O328 O 0.70115 0.2216 0.67677 0.0
C329 C 0.61665 0.06373 0.64905 0.0
C330 C 0.80499 1.00588 0.65477 0.0
C331 C 0.79782 0.98273 0.63182 0.0
C332 C 0.7696 0.91637 0.62685 0.0
C333 C 0.74752 0.87143 0.64567 0.0
C334 C 0.75334 0.89378 0.66913 0.0
C335 C 0.78295 0.96111 0.67333 0.0
O336 O 0.79501 0.29885 0.64922 0.0
O337 O 0.86017 0.25454 0.65008 0.0
O338 O 0.657 0.22088 0.60413 0.0
O339 O 0.66808 0.27348 0.6352 0.0
C340 C 0.6428 0.26127 0.61441 0.0
O341 O 0.67162 1.06184 0.64618 0.0
O342 O 0.62338 0.12249 0.64898 0.0
O343 O 0.80957 0.09277 0.67742 0.0
O344 O 0.8355 0.11105 0.64021 0.0
H345 H 0.81422 1.01672 0.61733 0.0
H346 H 0.72517 0.81986 0.64213 0.0
H347 H 0.78697 0.97841 0.69115 0.0
C348 C 0.47401 0.72621 0.06763 0.0
C349 C 0.53387 0.73437 0.0588 0.0
C350 C 0.59421 0.82325 0.08638 0.0
C351 C 0.53381 0.80916 0.09676 0.0
N352 N 0.41798 0.73443 0.10154 0.0
N353 N 0.65133 0.78507 0.06102 0.0
C354 C 0.47429 0.75645 0.08879 0.0
C355 C 0.59438 0.78125 0.06858 0.0
N356 N 0.4168 0.6906 0.05567 0.0
N357 N 0.65074 0.87681 0.09332 0.0
H358 H 0.65269 0.75658 0.04732 0.0
H359 H 0.69637 0.81388 0.06908 0.0
H360 H 0.65195 0.90645 0.10707 0.0
H361 H 0.69541 0.89337 0.08479 0.0
H362 H 0.37311 0.68881 0.06046 0.0
H363 H 0.41428 0.66891 0.03959 0.0
H364 H 0.37478 0.69202 0.09737 0.0
H365 H 0.41614 0.75399 0.11765 0.0
C366 C 0.78698 0.42517 0.24308 0.0
C367 C 0.84107 0.48591 0.23666 0.0
C368 C 0.80613 0.54141 0.26445 0.0
C369 C 0.75406 0.48018 0.27141 0.0
N370 N 0.70766 0.36388 0.2729 0.0
N371 N 0.90985 0.60063 0.24382 0.0
C372 C 0.74916 0.42213 0.26265 0.0
C373 C 0.85348 0.54382 0.24831 0.0
N374 N 0.76998 0.37055 0.23007 0.0
N375 N 0.80873 0.59677 0.27269 0.0
H376 H 0.94415 0.604 0.23146 0.0
H377 H 0.92439 0.64317 0.2533 0.0
H378 H 0.77611 0.59563 0.28538 0.0
H379 H 0.84119 0.64303 0.26639 0.0
H380 H 0.72651 0.32694 0.23259 0.0
H381 H 0.79651 0.36943 0.21565 0.0
H382 H 0.70641 0.32056 0.26851 0.0
H383 H 0.68007 0.36022 0.28763 0.0
C384 C 0.2908 0.75608 0.40501 0.0
C385 C 0.31443 0.76013 0.42807 0.0
C386 C 0.4059 0.86736 0.41927 0.0
C387 C 0.39536 0.85046 0.39531 0.0
N388 N 0.31648 0.79496 0.36495 0.0
N389 N 0.38349 0.82865 0.45924 0.0
C390 C 0.33341 0.80034 0.38798 0.0
C391 C 0.3678 0.8193 0.43609 0.0
N392 N 0.22807 0.70982 0.39979 0.0
N393 N 0.45062 0.92926 0.42566 0.0
H394 H 0.35204 0.79867 0.47225 0.0
H395 H 0.4273 0.86674 0.46553 0.0
H396 H 0.47421 0.96607 0.4133 0.0
H397 H 0.45819 0.94571 0.44288 0.0
H398 H 0.20628 0.70514 0.38357 0.0
H399 H 0.19594 0.67945 0.41268 0.0
H400 H 0.27521 0.75545 0.35788 0.0
H401 H 0.3441 0.83172 0.35296 0.0
C402 C 0.68878 0.41602 0.58935 0.0
C403 C 0.66075 0.39893 0.56679 0.0
C404 C 0.59751 0.28546 0.5789 0.0
C405 C 0.62601 0.30445 0.60137 0.0
N406 N 0.66858 0.38991 0.63021 0.0
N407 N 0.57767 0.32002 0.54126 0.0
C408 C 0.66074 0.37059 0.60742 0.0
C409 C 0.61135 0.33428 0.56184 0.0
N410 N 0.74555 0.4729 0.59319 0.0
N411 N 0.55876 0.22103 0.57393 0.0
H412 H 0.58689 0.35511 0.52856 0.0
H413 H 0.53762 0.27469 0.53752 0.0
H414 H 0.54404 0.1855 0.58691 0.0
H415 H 0.54259 0.2031 0.55718 0.0
H416 H 0.77031 0.48309 0.6091 0.0
H417 H 0.77169 0.50588 0.57992 0.0
H418 H 0.69239 0.4388 0.63502 0.0
H419 H 0.64346 0.35733 0.64372 0.0
C420 C 0.32442 0.55722 0.73509 0.0
C421 C 0.33961 0.61752 0.72488 0.0
C422 C 0.42375 0.67565 0.75375 0.0
C423 C 0.41466 0.6159 0.76241 0.0
N424 N 0.36193 0.49919 0.76 0.0
N425 N 0.41733 0.73151 0.71978 0.0
C426 C 0.36666 0.55616 0.75264 0.0
C427 C 0.39378 0.67587 0.73265 0.0
N428 N 0.2696 0.50177 0.72824 0.0
N429 N 0.45991 0.73224 0.7658 0.0
H430 H 0.39808 0.73311 0.70359 0.0
H431 H 0.46075 0.77375 0.7239 0.0
H432 H 0.48099 0.73423 0.78197 0.0
H433 H 0.46259 0.77594 0.76098 0.0
H434 H 0.25235 0.45727 0.73666 0.0
H435 H 0.23987 0.50138 0.71463 0.0
H436 H 0.33206 0.45464 0.75195 0.0
H437 H 0.39066 0.49735 0.77354 0.0
C438 C 0.80563 0.24917 0.91109 0.0
C439 C 0.81651 0.27395 0.88801 0.0
C440 C 0.91922 0.36638 0.90054 0.0
C441 C 0.89375 0.35438 0.92359 0.0
N442 N 0.828 0.27393 0.95234 0.0
N443 N 0.89572 0.34273 0.85928 0.0
C444 C 0.84211 0.29184 0.92948 0.0
C445 C 0.87779 0.32805 0.88213 0.0
N446 N 0.76211 0.1851 0.91505 0.0
N447 N 0.98293 0.41236 0.89661 0.0
H448 H 0.87089 0.30995 0.84582 0.0
H449 H 0.93546 0.38646 0.85381 0.0
H450 H 1.01534 0.4357 0.91036 0.0
H451 H 1.00542 0.42154 0.88028 0.0
H452 H 0.75393 0.16309 0.93138 0.0
H453 H 0.73983 0.15246 0.90129 0.0
H454 H 0.78561 0.23256 0.95784 0.0
H455 H 0.85997 0.30065 0.9658 0.0
C456 C 0.48977 0.21334 0.91157 0.0
C457 C 0.5582 0.23716 0.91194 0.0
C458 C 0.56061 0.26654 0.95332 0.0
C459 C 0.49121 0.2372 0.95346 0.0
N460 N 0.3894 0.1646 0.93409 0.0
N461 N 0.65443 0.26739 0.93548 0.0
C462 C 0.45567 0.20445 0.93303 0.0
C463 C 0.59226 0.25764 0.93357 0.0
N464 N 0.45786 0.20399 0.89083 0.0
N465 N 0.59703 0.30617 0.97121 0.0
H466 H 0.67807 0.25806 0.92181 0.0
H467 H 0.67919 0.27719 0.95137 0.0
H468 H 0.57668 0.31771 0.98536 0.0
H469 H 0.64799 0.33357 0.97061 0.0
H470 H 0.40882 0.19184 0.88975 0.0
H471 H 0.48239 0.2161 0.87485 0.0
H472 H 0.36221 0.13569 0.92008 0.0
H473 H 0.36307 0.15513 0.94969 0.0
C474 C 0.33775 0.49464 0.12603 0.0
C475 C 0.30287 0.42649 0.12989 0.0
C476 C 0.3265 0.40913 0.08909 0.0
C477 C 0.36219 0.47741 0.08547 0.0
N478 N 0.41878 0.58399 0.10292 0.0
N479 N 0.27694 0.31965 0.11693 0.0
C480 C 0.37315 0.51965 0.10477 0.0
C481 C 0.30162 0.38401 0.11197 0.0
N482 N 0.33415 0.53571 0.14204 0.0
N483 N 0.31346 0.3683 0.07049 0.0
H484 H 0.25907 0.30034 0.13347 0.0
H485 H 0.27954 0.28685 0.10545 0.0
H486 H 0.33186 0.38501 0.05378 0.0
H487 H 0.28166 0.31837 0.07132 0.0
H488 H 0.35177 0.58492 0.13882 0.0
H489 H 0.3087 0.51988 0.15779 0.0
H490 H 0.43358 0.61617 0.11698 0.0
H491 H 0.44721 0.60345 0.08797 0.0
C492 C 0.891 0.27505 0.28574 0.0
C493 C 0.93965 0.26643 0.29726 0.0
C494 C 1.01874 0.32966 0.26598 0.0
C495 C 0.97098 0.34112 0.2551 0.0
N496 N 0.86429 0.33237 0.25676 0.0
N497 N 1.05157 0.29026 0.29987 0.0
C498 C 0.90768 0.31532 0.26547 0.0
C499 C 1.00414 0.29529 0.28781 0.0
N500 N 0.82813 0.24409 0.29411 0.0
N501 N 1.07736 0.34982 0.25492 0.0
H502 H 1.04205 0.26394 0.31538 0.0
H503 H 0.10104 0.31528 0.29548 0.0
H504 H 1.08901 0.37435 0.23896 0.0
H505 H 0.1125 0.33828 0.26045 0.0
H506 H 0.78822 0.23986 0.28478 0.0
H507 H 0.81479 0.21937 0.31003 0.0
H508 H 0.82167 0.32372 0.26538 0.0
H509 H 0.8729 0.35938 0.2416 0.0
C510 C 0.61834 0.87466 0.44182 0.0
C511 C 0.65489 0.90029 0.42079 0.0
C512 C 0.75547 0.93557 0.44393 0.0
C513 C 0.7179 0.89758 0.46334 0.0
N514 N 0.61086 0.8203 0.47833 0.0
N515 N 0.76063 0.94946 0.40184 0.0
C516 C 0.64853 0.86459 0.46172 0.0
C517 C 0.72433 0.93011 0.42187 0.0
N518 N 0.55484 0.86126 0.44309 0.0
N519 N 0.82101 0.97714 0.44659 0.0
H520 H 0.73978 0.9436 0.38537 0.0
H521 H 0.81068 0.96552 0.4014 0.0
H522 H 0.84482 0.98306 0.46254 0.0
H523 H 0.84988 1.01033 0.43378 0.0
H524 H 0.52778 0.84731 0.45856 0.0
H525 H 0.53226 0.87208 0.42953 0.0
H526 H 0.56045 0.79012 0.47649 0.0
H527 H 0.6304 0.80873 0.49264 0.0
C528 C 0.859 0.73579 0.59051 0.0
C529 C 0.80418 0.67226 0.58856 0.0
C530 C 0.82539 0.64819 0.62854 0.0
C531 C 0.87904 0.71237 0.63086 0.0
N532 N 0.93368 0.82234 0.61636 0.0
N533 N 0.7229 0.57716 0.60927 0.0
C534 C 0.89182 0.75775 0.61249 0.0
C535 C 0.78324 0.63159 0.60873 0.0
N536 N 0.87959 0.77544 0.5714 0.0
N537 N 0.81672 0.60138 0.64435 0.0
H538 H 0.69078 0.56142 0.59519 0.0
H539 H 0.7026 0.55049 0.6245 0.0
H540 H 0.84813 0.6098 0.65835 0.0
H541 H 0.78208 0.5525 0.64227 0.0
H542 H 0.92335 0.8195 0.57083 0.0
H543 H 0.85418 0.76224 0.55565 0.0
H544 H 0.94094 0.85862 0.6045 0.0
H545 H 0.95598 0.84023 0.63251 0.0
C546 C 0.28039 0.77857 0.77776 0.0
C547 C 0.25253 0.79109 0.75774 0.0
C548 C 0.22711 0.86166 0.78215 0.0
C549 C 0.26675 0.85915 0.80047 0.0
N550 N 0.33889 0.8208 0.81404 0.0
N551 N 0.20085 0.84739 0.74071 0.0
C552 C 0.2949 0.81851 0.79795 0.0
C553 C 0.22521 0.83262 0.75996 0.0
N554 N 0.29221 0.72759 0.77761 0.0
N555 N 0.19108 0.89162 0.78608 0.0
H556 H 0.19832 0.82704 0.72432 0.0
H557 H 0.18709 0.88296 0.74064 0.0
H558 H 0.1911 0.9126 0.80215 0.0
H559 H 0.15677 0.89026 0.77429 0.0
H560 H 0.30735 0.71279 0.79235 0.0
H561 H 0.27946 0.69547 0.76356 0.0
H562 H 0.36654 0.79786 0.81157 0.0
H563 H 0.35252 0.85042 0.8288 0.0
C564 C 0.91136 0.60698 0.85661 0.0
C565 C 0.93887 0.67561 0.85596 0.0
C566 C 0.96505 0.68045 0.89801 0.0
C567 C 0.93901 0.61202 0.89844 0.0
N568 N 0.91151 0.51586 0.87569 0.0
N569 N 1.01104 0.77832 0.87431 0.0
C570 C 0.92013 0.57722 0.8769 0.0
C571 C 0.97233 0.71249 0.87612 0.0
N572 N 0.87325 0.56926 0.83865 0.0
N573 N 0.97874 0.7146 0.91842 0.0
H574 H 1.01829 0.80276 0.85845 0.0
H575 H 1.0411 0.80721 0.88781 0.0
H576 H 0.97144 0.69278 0.93475 0.0
H577 H 0.99155 0.76345 0.91916 0.0
H578 H 0.84765 0.51866 0.83926 0.0
H579 H 0.86212 0.58801 0.82404 0.0
H580 H 0.9031 0.49032 0.86004 0.0
H581 H 0.92087 0.49389 0.88981 0.0
C582 C 0.36923 0.86089 0.04947 0.0
C583 C 0.35718 0.89054 0.06913 0.0
C584 C 0.29408 0.92279 0.04346 0.0
C585 C 0.29636 0.88315 0.02519 0.0
N586 N 0.3303 0.8074 0.01207 0.0
N587 N 0.30018 0.94265 0.08522 0.0
C588 C 0.33296 0.8508 0.02843 0.0
C589 C 0.31829 0.9206 0.06615 0.0
N590 N 0.41634 0.84322 0.05074 0.0
N591 N 0.26841 0.96234 0.03912 0.0
H592 H 0.31356 0.93774 0.10207 0.0
H593 H 0.26685 0.9595 0.08456 0.0
H594 H 0.25067 0.96508 0.02269 0.0
H595 H 0.27084 0.99684 0.05101 0.0
H596 H 0.4315 0.82683 0.0364 0.0
H597 H 0.44528 0.85172 0.06552 0.0
H598 H 0.34939 0.77655 0.01484 0.0
H599 H 0.3043 0.79816 -0.00351 0.0
C600 C 0.54667 0.33349 0.20703 0.0
C601 C 0.50514 0.35684 0.21547 0.0
C602 C 0.43141 0.30619 0.18209 0.0
C603 C 0.46878 0.2766 0.17531 0.0
N604 N 0.56042 0.25935 0.18128 0.0
N605 N 0.40767 0.36504 0.21187 0.0
C606 C 0.52631 0.2899 0.18768 0.0
C607 C 0.44779 0.34373 0.20306 0.0
N608 N 0.60655 0.35462 0.21711 0.0
N609 N 0.38023 0.29816 0.16842 0.0
H610 H 0.41852 0.39334 0.22696 0.0
H611 H 0.36192 0.35179 0.20503 0.0
H612 H 0.3656 0.26926 0.15344 0.0
H613 H 0.35478 0.32324 0.17083 0.0
H614 H 0.64229 0.3456 0.21022 0.0
H615 H 0.62295 0.38604 0.23139 0.0
H616 H 0.59802 0.26034 0.19116 0.0
H617 H 0.5489 0.22987 0.16648 0.0
C618 C 0.19562 0.41997 0.38325 0.0
C619 C 0.23964 0.48118 0.39341 0.0
C620 C 0.31695 0.50346 0.36094 0.0
C621 C 0.27677 0.43957 0.35237 0.0
N622 N 0.17942 0.33493 0.35562 0.0
N623 N 0.3458 0.57882 0.39321 0.0
C624 C 0.2162 0.39732 0.36351 0.0
C625 C 0.30132 0.52221 0.38262 0.0
N626 N 0.1342 0.38361 0.39248 0.0
N627 N 0.36927 0.54695 0.34792 0.0
H628 H 0.33622 0.59607 0.40861 0.0
H629 H 0.39427 0.60644 0.38774 0.0
H630 H 0.38221 0.53482 0.33199 0.0
H631 H 0.39623 0.59637 0.35173 0.0
H632 H 1.09717 0.34205 0.38456 0.0
H633 H 0.11885 0.39709 0.40757 0.0
H634 H 0.13845 0.29918 0.36432 0.0
H635 H 0.19193 0.3178 0.34076 0.0
C636 C 0.86546 0.21444 0.56347 0.0
C637 C 0.82124 0.23879 0.56567 0.0
C638 C 0.84667 0.27942 0.52504 0.0
C639 C 0.88971 0.25376 0.52257 0.0
N640 N 0.92628 0.18204 0.53744 0.0
N641 N 0.75511 0.27587 0.546 0.0
C642 C 0.89455 0.21644 0.54119 0.0
C643 C 0.80731 0.2654 0.54561 0.0
N644 N 0.88275 0.19277 0.58282 0.0
N645 N 0.84563 0.32014 0.50836 0.0
H646 H 0.72359 0.26374 0.56032 0.0
H647 H 0.73875 0.28955 0.5313 0.0
H648 H 0.87392 0.33245 0.49319 0.0
H649 H 0.8213 0.34649 0.51059 0.0
H650 H 0.92024 0.18139 0.58286 0.0
H651 H 0.86299 0.19076 0.59933 0.0
H652 H 0.92617 0.14892 0.54942 0.0
H653 H 0.94718 0.18181 0.52134 0.0
C654 C 0.76747 0.84668 0.70718 0.0
C655 C 0.72512 0.84841 0.68976 0.0
C656 C 0.63091 0.77774 0.71465 0.0
C657 C 0.6733 0.78657 0.73373 0.0
N658 N 0.78329 0.83073 0.74821 0.0
N659 N 0.61546 0.82033 0.67826 0.0
C660 C 0.74209 0.8205 0.72992 0.0
C661 C 0.65646 0.81451 0.69374 0.0
N662 N 0.83197 0.86991 0.70188 0.0
N663 N 0.56592 0.73283 0.71635 0.0
H664 H 0.63165 0.84686 0.66279 0.0
H665 H 0.56605 0.80332 0.68172 0.0
H666 H 0.54615 0.70325 0.73099 0.0
H667 H 0.53355 0.71972 0.70235 0.0
H668 H 0.86445 0.86493 0.71287 0.0
H669 H 0.85143 0.88884 0.68545 0.0
H670 H 0.83382 0.86109 0.74732 0.0
H671 H 0.76639 0.81158 0.76481 0.0
C672 C 0.54813 0.58259 0.92063 0.0
C673 C 0.50247 0.59719 0.93133 0.0
C674 C 0.52594 0.67967 0.9015 0.0
C675 C 0.5637 0.65795 0.88907 0.0
N676 N 0.59773 0.57766 0.88435 0.0
N677 N 0.43805 0.65086 0.92925 0.0
C678 C 0.57122 0.60624 0.89792 0.0
C679 C 0.48854 0.64343 0.92104 0.0
N680 N 0.57197 0.54883 0.93251 0.0
N681 N 0.52787 0.73616 0.89524 0.0
H682 H 0.40741 0.62242 0.94273 0.0
H683 H 0.42238 0.67999 0.92104 0.0
H684 H 0.55846 0.76581 0.88196 0.0
H685 H 0.50534 0.757 0.90491 0.0
H686 H 0.6098 0.54211 0.92615 0.0
H687 H 0.55949 0.53456 0.94982 0.0
H688 H 0.59858 0.53576 0.88934 0.0
H689 H 0.61198 0.59149 0.86712 0.0
C690 C 0.8995 0.43504 0.08761 0.0
C691 C 0.9598 0.45814 0.09947 0.0
C692 C 1.0182 0.53111 0.06703 0.0
C693 C 0.9571 0.51273 0.05622 0.0
N694 N 0.83899 0.45657 0.05814 0.0
N695 N 1.07518 0.53589 0.10273 0.0
C696 C 0.89744 0.4672 0.06702 0.0
C697 C 1.01885 0.50838 0.08984 0.0
N698 N 0.84479 0.38098 0.09556 0.0
N699 N 1.07565 0.56769 0.05517 0.0
H700 H 1.07815 0.52016 0.11944 0.0
H701 H 0.11756 0.57802 0.0977 0.0
H702 H 1.07797 0.58448 0.03818 0.0
H703 H 0.12087 0.57594 0.06125 0.0
H704 H 0.8008 0.35812 0.08639 0.0
H705 H 0.8453 0.35518 0.11024 0.0
H706 H 0.79436 0.42886 0.06665 0.0
H707 H 0.83556 0.48048 0.04336 0.0
C708 C 0.53806 0.99133 0.23276 0.0
C709 C 0.48575 0.93263 0.22392 0.0
C710 C 0.50239 0.87031 0.25435 0.0
C711 C 0.55149 0.92935 0.26426 0.0
N712 N 0.60678 1.04703 0.2658 0.0
N713 N 0.40863 0.81867 0.22861 0.0
C714 C 0.56696 0.99024 0.25429 0.0
C715 C 0.46507 0.87273 0.23541 0.0
N716 N 0.56185 1.04772 0.22024 0.0
N717 N 0.49317 0.81203 0.26243 0.0
H718 H 0.37914 0.81965 0.21519 0.0
H719 H 0.38765 0.77483 0.2377 0.0
H720 H 0.5204 0.80821 0.27607 0.0
H721 H 0.46285 0.76782 0.25424 0.0
H722 H 0.60534 0.08983 0.22434 0.0
H723 H 0.54122 1.05135 0.20462 0.0
H724 H 0.61304 0.09193 0.26066 0.0
H725 H 0.62869 1.04913 0.28179 0.0
C726 C 0.69982 0.53805 0.39586 0.0
C727 C 0.69057 0.47483 0.39319 0.0
C728 C 0.74244 0.48334 0.4307 0.0
C729 C 0.73852 0.54026 0.43531 0.0
N730 N 0.70267 0.61607 0.4233 0.0
N731 N 0.70236 0.38547 0.40729 0.0
C732 C 0.71511 0.56681 0.41811 0.0
C733 C 0.71222 0.44693 0.41029 0.0
N734 N 0.69446 0.57068 0.37709 0.0
N735 N 0.77631 0.46534 0.44545 0.0
H736 H 0.68231 0.35873 0.39203 0.0
H737 H 0.71071 0.35988 0.42036 0.0
H738 H 0.80113 0.49262 0.46011 0.0
H739 H 0.78525 0.42727 0.44193 0.0
H740 H 0.70613 0.61923 0.37782 0.0
H741 H 0.68627 0.55163 0.36021 0.0
H742 H 0.67884 0.63153 0.4118 0.0
H743 H 0.70939 0.637 0.43977 0.0
C744 C 0.26782 0.69935 0.57912 0.0
C745 C 0.25583 0.6669 0.60085 0.0
C746 C 0.26951 0.58118 0.58278 0.0
C747 C 0.27174 0.60875 0.56071 0.0
N748 N 0.25374 0.68443 0.53756 0.0
N749 N 0.22705 0.56731 0.62191 0.0
C750 C 0.26586 0.66537 0.55866 0.0
C751 C 0.25195 0.60519 0.60243 0.0
N752 N 0.28214 0.76265 0.5779 0.0
N753 N 0.28419 0.53237 0.58499 0.0
H754 H 0.20746 0.57993 0.636 0.0
H755 H 0.21822 0.51968 0.62282 0.0
H756 H 0.2981 0.51406 0.57082 0.0
H757 H 0.28888 0.51488 0.60117 0.0
H758 H 0.29749 0.78967 0.5625 0.0
H759 H 0.28528 0.79009 0.59257 0.0
H760 H 0.24291 0.72194 0.53594 0.0
H761 H 0.24652 0.65847 0.5221 0.0
C762 C 0.6208 0.13951 0.75068 0.0
C763 C 0.63751 0.19965 0.76145 0.0
C764 C 0.7108 0.25906 0.72912 0.0
C765 C 0.69016 0.19899 0.71763 0.0
N766 N 0.61451 0.08378 0.71468 0.0
N767 N 0.68877 0.31652 0.75975 0.0
C768 C 0.642 0.13964 0.7276 0.0
C769 C 0.67982 0.25956 0.75034 0.0
N770 N 0.58731 0.08244 0.76279 0.0
N771 N 0.76127 0.31505 0.72013 0.0
H772 H 0.66606 0.31841 0.77521 0.0
H773 H 0.71392 0.36118 0.75127 0.0
H774 H 0.7851 0.31633 0.70455 0.0
H775 H 0.78302 0.35929 0.72898 0.0
H776 H 0.58105 1.0383 0.75661 0.0
H777 H 0.57094 0.07969 0.77992 0.0
H778 H 0.57398 1.04067 0.7202 0.0
H779 H 0.62804 0.08228 0.69746 0.0
C780 C 0.44442 0.16811 0.07407 0.0
C781 C 0.43577 0.21021 0.08977 0.0
C782 C 0.44792 0.27929 0.05631 0.0
C783 C 0.438 0.22869 0.04054 0.0
N784 N 0.41642 0.11814 0.03587 0.0
N785 N 0.41383 0.29985 0.09349 0.0
C786 C 0.43385 0.17115 0.04974 0.0
C787 C 0.43382 0.26469 0.08034 0.0
N788 N 0.46417 0.12641 0.08218 0.0
N789 N 0.47044 0.34115 0.0484 0.0
H790 H 0.39485 0.2865 0.11031 0.0
H791 H 0.40827 0.33743 0.08649 0.0
H792 H 0.48491 0.35442 0.03108 0.0
H793 H 0.48183 0.38006 0.05965 0.0
H794 H 0.47498 0.09799 0.07108 0.0
H795 H 0.47723 0.12626 0.09959 0.0
H796 H 0.40777 0.07363 0.04257 0.0
H797 H 0.40399 0.11649 0.01832 0.0
C798 C 0.25967 0.33193 0.25605 0.0
C799 C 0.29967 0.39265 0.26714 0.0
C800 C 0.30627 0.44858 0.23004 0.0
C801 C 0.27071 0.38755 0.21852 0.0
N802 N 0.22587 0.27141 0.2197 0.0
N803 N 0.37122 0.50831 0.2637 0.0
C804 C 0.251 0.32931 0.23134 0.0
C805 C 0.32604 0.45088 0.25382 0.0
N806 N 0.22803 0.27675 0.26926 0.0
N807 N 0.31848 0.50421 0.2187 0.0
H808 H 0.38631 0.51201 0.28105 0.0
H809 H 0.39762 0.55113 0.25421 0.0
H810 H 0.30452 0.50465 0.20145 0.0
H811 H 0.33758 0.54918 0.22696 0.0
H812 H 0.19251 0.23222 0.26254 0.0
H813 H 0.23278 0.27666 0.28738 0.0
H814 H 0.21673 0.22819 0.22766 0.0
H815 H 0.22059 0.26785 0.20156 0.0
C816 C 0.90419 0.27255 0.42069 0.0
C817 C 0.93486 0.24584 0.43477 0.0
C818 C 0.95833 0.20163 0.39938 0.0
C819 C 0.92239 0.22279 0.38553 0.0
N820 N 0.85091 0.26863 0.38387 0.0
N821 N 0.97745 0.17229 0.43795 0.0
C822 C 0.89241 0.25559 0.39643 0.0
C823 C 0.95759 0.20638 0.42418 0.0
N824 N 0.88843 0.31594 0.43023 0.0
N825 N 0.99513 0.17882 0.38876 0.0
H826 H 0.9762 0.17357 0.45618 0.0
H827 H 0.98849 0.13777 0.43138 0.0
H828 H 0.99846 0.17641 0.37062 0.0
H829 H 1.02752 0.16877 0.39779 0.0
H830 H 0.87289 0.34265 0.42034 0.0
H831 H 0.89528 0.32866 0.44788 0.0
H832 H 0.82206 0.28587 0.39142 0.0
H833 H 0.84142 0.25744 0.36616 0.0
C834 C 0.70772 0.85951 0.56402 0.0
C835 C 0.76745 0.89574 0.55142 0.0
C836 C 0.8268 0.92678 0.58875 0.0
C837 C 0.76696 0.89839 0.60142 0.0
N838 N 0.64903 0.84644 0.60045 0.0
N839 N 0.8819 0.97663 0.55249 0.0
C840 C 0.70686 0.86701 0.58888 0.0
C841 C 0.82632 0.93344 0.56409 0.0
N842 N 0.65233 0.81603 0.55252 0.0
N843 N 0.8844 0.94685 0.60036 0.0
H844 H 0.88274 0.98422 0.53449 0.0
H845 H 0.92481 1.00955 0.56103 0.0
H846 H 0.88621 0.94076 0.61837 0.0
H847 H 0.92901 0.96277 0.59183 0.0
H848 H 0.60936 0.78334 0.56112 0.0
H849 H 0.6509 0.80911 0.53449 0.0
H850 H 0.60447 0.82985 0.59188 0.0
H851 H 0.64627 0.8505 0.6185 0.0
C852 C 0.97199 0.79233 0.75692 0.0
C853 C 0.93414 0.73248 0.76884 0.0
C854 C 0.90319 0.67646 0.73068 0.0
C855 C 0.9351 0.73738 0.71894 0.0
N856 N 0.98742 0.85399 0.72141 0.0
N857 N 0.85332 0.61856 0.76664 0.0
C858 C 0.96549 0.79551 0.73231 0.0
C859 C 0.89686 0.67466 0.7556 0.0
N860 N 1.01501 0.84621 0.7692 0.0
N861 N 0.88097 0.62027 0.71818 0.0
H862 H 0.84732 0.61516 0.78473 0.0
H863 H 0.81969 0.57695 0.75772 0.0
H864 H 0.8839 0.61948 0.70001 0.0
H865 H 0.86409 0.57499 0.72599 0.0
H866 H 1.0482 0.8899 0.76127 0.0
H867 H 1.02212 0.84505 0.78717 0.0
H868 H 1.00453 0.89769 0.73042 0.0
H869 H 0.98196 0.85777 0.70347 0.0
C870 C 0.23467 0.9288 0.92561 0.0
C871 C 0.25516 0.88925 0.93739 0.0
C872 C 0.29894 0.87392 0.90019 0.0
C873 C 0.27131 0.90703 0.88808 0.0
N874 N 0.20095 0.95413 0.88898 0.0
N875 N 0.29708 0.81474 0.93505 0.0
C876 C 0.2356 0.93093 0.90076 0.0
C877 C 0.28476 0.85921 0.92446 0.0
N878 N 0.21536 0.9654 0.93827 0.0
N879 N 0.34073 0.85867 0.88882 0.0
H880 H 0.28793 0.80301 0.95273 0.0
H881 H 0.31163 0.78591 0.92591 0.0
H882 H 0.3524 0.86861 0.87117 0.0
H883 H 0.36789 0.84107 0.89735 0.0
H884 H 0.20592 0.99997 0.93077 0.0
H885 H 0.21539 0.96598 0.95652 0.0
H886 H 0.1689 0.96637 0.89718 0.0
H887 H 0.19903 0.95474 0.87076 0.0
C888 C 0.71314 0.50631 0.97418 0.0
C889 C 0.76632 0.54286 0.99005 0.0
C890 C 0.68797 0.56864 0.01188 0.0
C891 C 0.63364 0.52861 -0.00311 0.0
N892 N 0.59592 0.44859 0.96591 0.0
N893 N 0.79498 0.59518 0.02767 0.0
C894 C 0.64682 0.49401 0.97889 0.0
C895 C 0.75094 0.5706 0.00976 0.0
N896 N 0.72626 0.486 0.95355 0.0
N897 N 0.67963 0.60456 0.02884 0.0
H898 H 0.83888 0.59432 0.02768 0.0
H899 H 0.78501 0.60952 0.04366 0.0
H900 H 0.63424 0.59954 0.03309 0.0
H901 H 0.71843 0.64173 0.03797 0.0
H902 H 0.69299 0.46681 0.93982 0.0
H903 H 0.77271 0.49455 0.94908 0.0
H904 H 0.60023 0.41666 0.95448 0.0
H905 H 0.54799 0.43931 0.96752 0.0
C906 C 0.20293 0.72181 0.14908 0.0
C907 C 0.26481 0.74074 0.16014 0.0
C908 C 0.20952 0.62693 0.17756 0.0
C909 C 0.14739 0.60848 0.16683 0.0
N910 N 1.08609 0.64419 0.14358 0.0
N911 N 0.32663 0.70376 0.18256 0.0
C912 C 0.14485 0.65797 0.15307 0.0
C913 C 0.26758 0.69078 0.17359 0.0
N914 N 0.20076 0.76317 0.13292 0.0
N915 N 0.21221 0.58476 0.19323 0.0
H916 H 0.368 0.74972 0.18214 0.0
H917 H 0.33614 0.66848 0.18928 0.0
H918 H 0.172 0.53966 0.1972 0.0
H919 H 0.25207 0.59607 0.20397 0.0
H920 H 0.1612 0.75126 0.12194 0.0
H921 H 0.24121 0.80785 0.1287 0.0
H922 H 1.07654 0.679 0.13644 0.0
H923 H 1.04512 0.59786 0.14384 0.0
C924 C 0.531 0.16515 0.31091 0.0
C925 C 0.57958 0.22893 0.31849 0.0
C926 C 0.63926 0.17432 0.33576 0.0
C927 C 0.594 0.11149 0.3264 0.0
N928 N 0.50183 1.05366 0.30062 0.0
N929 N 0.68924 0.29229 0.33351 0.0
C930 C 0.54131 0.10906 0.31279 0.0
C931 C 0.63608 0.23249 0.32959 0.0
N932 N 0.4728 0.15671 0.30276 0.0
N933 N 0.68407 0.17883 0.35189 0.0
H934 H 0.69072 0.33543 0.32873 0.0
H935 H 0.73439 0.29885 0.33895 0.0
H936 H 0.68673 0.1387 0.35788 0.0
H937 H 0.71333 0.22102 0.36137 0.0
H938 H 0.43235 0.11121 0.29954 0.0
H939 H 0.46289 0.19484 0.30127 0.0
H940 H 0.46794 1.05055 0.28826 0.0
H941 H 0.50751 1.01276 0.30101 0.0
C942 C 0.48517 0.59909 0.47329 0.0
C943 C 0.4346 0.5703 0.49075 0.0
C944 C 0.51745 0.55635 0.51484 0.0
C945 C 0.56934 0.58974 0.49817 0.0
N946 N 0.60136 0.65447 0.46302 0.0
N947 N 0.41294 0.53622 0.53108 0.0
C948 C 0.55264 0.61485 0.47802 0.0
C949 C 0.45378 0.5526 0.5122 0.0
N950 N 0.46842 0.60797 0.45131 0.0
N951 N 0.52882 0.52858 0.53385 0.0
H952 H 0.36857 0.53587 0.53072 0.0
H953 H 0.42616 0.53033 0.54788 0.0
H954 H 0.57495 0.53553 0.53806 0.0
H955 H 0.49167 0.49565 0.54477 0.0
H956 H 0.50023 0.62154 0.43707 0.0
H957 H 0.42065 0.59478 0.44661 0.0
H958 H 0.59484 0.68102 0.44983 0.0
H959 H 0.64971 0.66537 0.46497 0.0
C960 C 0.91765 0.43797 0.64925 0.0
C961 C 0.91717 0.37866 0.65537 0.0
C962 C 1.03681 0.45246 0.66546 0.0
C963 C 1.03412 0.51159 0.66283 0.0
N964 N 0.95742 0.55136 0.65914 0.0
N965 N 0.97849 0.33877 0.67707 0.0
C966 C 0.97033 0.50145 0.65672 0.0
C967 C 0.97745 0.38879 0.66566 0.0
N968 N 0.86948 0.43554 0.63531 0.0
N969 N 1.09614 0.45542 0.66691 0.0
H970 H 0.93665 0.29424 0.6801 0.0
H971 H 1.0191 0.34484 0.68646 0.0
H972 H 0.14047 0.49842 0.66527 0.0
H973 H 0.10099 0.41398 0.66669 0.0
H974 H 0.87072 0.47728 0.62884 0.0
H975 H 0.83358 0.39308 0.62758 0.0
H976 H 0.91068 0.54519 0.65686 0.0
H977 H 0.99025 0.59582 0.66664 0.0
C978 C 0.65458 0.94502 0.80837 0.0
C979 C 0.61431 0.88733 0.82167 0.0
C980 C 0.56146 0.94849 0.83941 0.0
C981 C 0.60375 1.00745 0.82681 0.0
N982 N 0.69183 1.05877 0.79883 0.0
N983 N 0.52726 0.83536 0.84967 0.0
C984 C 0.65067 1.00446 0.8113 0.0
C985 C 0.56657 0.88955 0.83681 0.0
N986 N 0.69393 0.94162 0.79141 0.0
N987 N 0.51658 0.94889 0.85456 0.0
H988 H 0.52711 0.79166 0.84757 0.0
H989 H 0.49593 0.83296 0.86296 0.0
H990 H 0.51838 0.99135 0.86041 0.0
H991 H 0.47718 0.90756 0.86159 0.0
H992 H 0.71909 0.97741 0.77894 0.0
H993 H 0.69754 0.90009 0.78842 0.0
H994 H 0.73404 0.0654 0.79046 0.0
H995 H 0.6849 0.09866 0.79712 0.0
C996 C 0.5837 0.46408 0.80679 0.0
C997 C 0.62644 0.5188 0.82101 0.0
C998 C 0.66257 0.44443 0.8397 0.0
C999 C 0.61568 0.38806 0.82682 0.0
N1000 N 0.53051 0.34806 0.7977 0.0
N1001 N 0.70399 0.55676 0.85269 0.0
C1002 C 0.57584 0.39939 0.81047 0.0
C1003 C 0.66551 0.50754 0.83768 0.0
N1004 N 0.55372 0.4748 0.78823 0.0
N1005 N 0.70532 0.43835 0.85419 0.0
H1006 H 0.70967 0.60312 0.85173 0.0
H1007 H 0.72652 0.55103 0.86741 0.0
H1008 H 0.7026 0.39429 0.85798 0.0
H1009 H 0.74611 0.47733 0.8617 0.0
H1010 H 0.52812 0.44057 0.77532 0.0
H1011 H 0.55969 0.52036 0.78428 0.0
H1012 H 0.49228 0.34855 0.78873 0.0
H1013 H 0.52974 0.30382 0.7965 0.0
C1014 C 0.20573 0.59533 0.97846 0.0
C1015 C 0.1451 0.55345 0.99019 0.0
C1016 C 0.20204 0.49525 0.00663 0.0
C1017 C 0.26392 0.54008 -0.00382 0.0
N1018 N 0.32413 0.64218 0.97569 0.0
N1019 N 1.09258 0.47002 0.01942 0.0
C1020 C 0.26538 0.59297 0.98337 0.0
C1021 C 0.14534 0.50491 0.00517 0.0
N1022 N 0.20606 0.63517 0.96114 0.0
N1023 N 0.19708 0.44317 0.01862 0.0
H1024 H 1.05148 0.47579 0.01956 0.0
H1025 H 1.09189 0.44005 0.03284 0.0
H1026 H 0.23739 0.43808 0.02283 0.0
H1027 H 0.15254 0.40344 0.02354 0.0
H1028 H 0.24582 0.66144 0.95006 0.0
H1029 H 0.16426 0.63635 0.95592 0.0
H1030 H 0.33019 0.68593 0.96922 0.0
H1031 H 0.36798 0.64194 0.9775 0.0
C1032 C 0.75273 0.17514 0.17657 0.0
C1033 C 0.77121 0.23606 0.16518 0.0
C1034 C 0.65688 0.17901 0.14748 0.0
C1035 C 0.63862 0.11782 0.15863 0.0
N1036 N 0.67522 1.05938 0.18299 0.0
N1037 N 0.73186 0.29585 0.14287 0.0
C1038 C 0.68866 0.11684 0.17283 0.0
C1039 C 0.72035 0.23755 0.15166 0.0
N1040 N 0.79466 0.17421 0.19289 0.0
N1041 N 0.61526 0.18042 0.13115 0.0
H1042 H 0.77727 0.33794 0.14375 0.0
H1043 H 0.69542 0.30391 0.13613 0.0
H1044 H 0.5708 0.13982 0.12679 0.0
H1045 H 0.62708 0.21963 0.12013 0.0
H1046 H 0.78326 0.13551 0.2041 0.0
H1047 H 0.83936 0.21492 0.19699 0.0
H1048 H 0.71053 1.05061 0.19034 0.0
H1049 H 0.62856 1.01875 0.18331 0.0
C1050 C 0.56468 0.68677 0.34324 0.0
C1051 C 0.5883 0.73612 0.32544 0.0
C1052 C 0.60017 0.65423 0.29996 0.0
C1053 C 0.5722 0.60375 0.31726 0.0
N1054 N 0.51518 0.57206 0.35408 0.0
N1055 N 0.6178 0.75849 0.28481 0.0
C1056 C 0.55107 0.62053 0.33846 0.0
C1057 C 0.60308 0.71714 0.30329 0.0
N1058 N 0.55843 0.70387 0.36547 0.0
N1059 N 0.62717 0.64353 0.28048 0.0
H1060 H 0.62026 0.80352 0.28626 0.0
H1061 H 0.6216 0.74587 0.26766 0.0
H1062 H 0.62576 0.59947 0.27733 0.0
H1063 H 0.65547 0.6797 0.26847 0.0
H1064 H 0.54911 0.67383 0.37992 0.0
H1065 H 0.5697 0.75087 0.36982 0.0
H1066 H 0.49261 0.57833 0.36876 0.0
H1067 H 0.50161 0.52359 0.35101 0.0
C1068 C 1.00349 0.52363 0.50528 0.0
C1069 C 1.05736 0.56554 0.49035 0.0
C1070 C 0.99108 0.6202 0.48077 0.0
C1071 C 0.94175 0.58426 0.49807 0.0
N1072 N 0.91306 0.50942 0.53034 0.0
N1073 N 0.10419 0.6644 0.46769 0.0
C1074 C 0.95155 0.5381 0.51122 0.0
C1075 C 1.05127 0.61659 0.47916 0.0
N1076 N 0.99943 0.46733 0.51312 0.0
N1077 N 0.97957 0.65598 0.46474 0.0
H1078 H 0.14924 0.66603 0.46685 0.0
H1079 H 0.10555 0.70625 0.46132 0.0
H1080 H 0.93609 0.65759 0.46425 0.0
H1081 H 1.0097 0.67764 0.45029 0.0
H1082 H 0.95923 0.43203 0.52231 0.0
H1083 H 1.03232 0.45212 0.50808 0.0
H1084 H 0.92161 0.48079 0.54204 0.0
H1085 H 0.87739 0.52017 0.53608 0.0
C1086 C 0.42947 0.92656 0.64044 0.0
C1087 C 0.41375 0.88585 0.66087 0.0
C1088 C 0.53453 0.9541 0.67069 0.0
C1089 C 0.54735 1.00052 0.65246 0.0
N1090 N 0.4995 1.03029 0.62098 0.0
N1091 N 0.45575 0.87738 0.69836 0.0
C1092 C 0.49221 0.98667 0.63792 0.0
C1093 C 0.46789 0.90405 0.6766 0.0
N1094 N 0.38644 0.90584 0.62223 0.0
N1095 N 0.58586 0.95712 0.68283 0.0
H1096 H 0.40868 0.84614 0.70423 0.0
H1097 H 0.49099 0.89305 0.7115 0.0
H1098 H 0.63432 0.9927 0.67998 0.0
H1099 H 0.58061 0.92085 0.69439 0.0
H1100 H 0.39705 0.92893 0.60603 0.0
H1101 H 0.34376 0.86101 0.62214 0.0
H1102 H 0.46006 1.02824 0.61196 0.0
H1103 H 0.54446 0.07073 0.61687 0.0
loop_
_geom_bond_atom_site_label_1
_geom_bond_atom_site_label_2
_geom_bond_distance
_geom_bond_site_symmetry_2
_ccdc_geom_bond_type
O0 Tb1 2.292 . S
O0 C3 1.255 . S
Tb1 O0 2.292 . S
Tb1 O17 2.326 . S
Tb1 O19 2.500 . S
Tb1 O20 2.473 . S
Tb1 O23 2.324 . S
Eu2 O6 2.292 . S
Eu2 C7 2.852 . S
Eu2 O18 2.324 1_556 S
Eu2 O22 2.326 1_556 S
Eu2 O24 2.500 . S
Eu2 O25 2.473 1_556 S
C3 O0 1.255 . S
C3 O4 1.247 . S
O4 C3 1.247 . S
C5 O17 1.242 . S
C5 O18 1.258 . S
O6 Eu2 2.292 . S
O6 C8 1.255 . S
C7 Eu2 2.852 . S
C7 C11 1.500 1_556 S
C7 O24 1.273 . S
C7 O25 1.257 1_556 S
C8 O6 1.255 . S
C8 O9 1.247 . S
O9 C8 1.247 . S
C10 O22 1.242 . S
C10 O23 1.258 . S
C11 C7 1.500 1_554 S
C11 C12 1.389 . S
C11 C16 1.385 1_554 S
C12 C11 1.389 . S
C12 C13 1.404 . S
C12 H26 0.929 . S
C13 C12 1.404 . S
C13 C14 1.389 . S
C14 C13 1.389 . S
C14 C15 1.399 1_554 S
C14 H27 0.931 . S
C15 C14 1.399 1_556 S
C15 C16 1.390 . S
C16 C11 1.385 1_556 S
C16 C15 1.390 . S
C16 H28 0.929 . S
O17 Tb1 2.326 . S
O17 C5 1.242 . S
O18 Eu2 2.324 1_554 S
O18 C5 1.258 . S
O19 Tb1 2.500 . S
O19 C21 1.273 . S
O20 Tb1 2.473 . S
O20 C21 1.257 . S
C21 O19 1.273 . S
C21 O20 1.257 . S
O22 Eu2 2.326 1_554 S
O22 C10 1.242 . S
O23 Tb1 2.324 . S
O23 C10 1.258 . S
O24 Eu2 2.500 . S
O24 C7 1.273 . S
O25 Eu2 2.473 1_554 S
O25 C7 1.257 1_554 S
H26 C12 0.929 . S
H27 C14 0.931 . S
H28 C16 0.929 . S
O29 Tb30 2.292 . S
O29 C32 1.255 . S
Tb30 O29 2.292 . S
Tb30 O46 2.326 . S
Tb30 O48 2.500 . S
Tb30 O49 2.473 . S
Tb30 O52 2.324 . S
Eu31 O35 2.292 . S
Eu31 C36 2.852 . S
Eu31 O47 2.324 . S
Eu31 O51 2.326 . S
Eu31 O53 2.500 . S
Eu31 O54 2.473 . S
C32 O29 1.255 . S
C32 O33 1.247 . S
O33 C32 1.247 . S
C34 O46 1.242 . S
C34 O47 1.258 . S
O35 Eu31 2.292 . S
O35 C37 1.255 . S
C36 Eu31 2.852 . S
C36 C40 1.503 1_655 S
C36 O53 1.273 . S
C36 O54 1.257 . S
C37 O35 1.255 . S
C37 O38 1.247 . S
O38 C37 1.247 . S
C39 O51 1.242 . S
C39 O52 1.258 . S
C40 C36 1.503 1_455 S
C40 C41 1.379 . S
C40 C45 1.392 . S
C41 C40 1.379 . S
C41 C42 1.404 . S
C41 H55 0.929 . S
C42 C41 1.404 . S
C42 C43 1.389 . S
C43 C42 1.389 . S
C43 C44 1.399 . S
C43 H56 0.931 . S
C44 C43 1.399 . S
C44 C45 1.390 . S
C45 C40 1.392 . S
C45 C44 1.390 . S
C45 H57 0.929 . S
O46 Tb30 2.326 . S
O46 C34 1.242 . S
O47 Eu31 2.324 . S
O47 C34 1.258 . S
O48 Tb30 2.500 . S
O48 C50 1.273 . S
O49 Tb30 2.473 . S
O49 C50 1.257 . S
C50 O48 1.273 . S
C50 O49 1.257 . S
O51 Eu31 2.326 . S
O51 C39 1.242 . S
O52 Tb30 2.324 . S
O52 C39 1.258 . S
O53 Eu31 2.500 . S
O53 C36 1.273 . S
O54 Eu31 2.473 . S
O54 C36 1.257 . S
H55 C41 0.929 . S
H56 C43 0.931 . S
H57 C45 0.929 . S
O58 Tb59 2.292 . S
O58 C61 1.255 . S
Tb59 O58 2.292 . S
Tb59 O75 2.326 . S
Tb59 O77 2.500 . S
Tb59 O78 2.473 . S
Tb59 O81 2.324 . S
Eu60 O64 2.292 . S
Eu60 C65 2.852 . S
Eu60 O76 2.324 . S
Eu60 O80 2.326 . S
Eu60 O82 2.500 . S
Eu60 O83 2.473 . S
C61 O58 1.255 . S
C61 O62 1.247 . S
O62 C61 1.247 . S
C63 O75 1.242 . S
C63 O76 1.258 . S
O64 Eu60 2.292 . S
O64 C66 1.255 . S
C65 Eu60 2.852 . S
C65 C69 1.503 1_565 S
C65 O82 1.273 . S
C65 O83 1.257 . S
C66 O64 1.255 . S
C66 O67 1.247 . S
O67 C66 1.247 . S
C68 O80 1.242 . S
C68 O81 1.258 . S
C69 C65 1.503 1_545 S
C69 C70 1.379 . S
C69 C74 1.392 . S
C70 C69 1.379 . S
C70 C71 1.404 . S
C70 H84 0.929 . S
C71 C70 1.404 . S
C71 C72 1.389 . S
C72 C71 1.389 . S
C72 C73 1.399 . S
C72 H85 0.931 . S
C73 C72 1.399 . S
C73 C74 1.390 . S
C74 C69 1.392 . S
C74 C73 1.390 . S
C74 H86 0.929 . S
O75 Tb59 2.326 . S
O75 C63 1.242 . S
O76 Eu60 2.324 . S
O76 C63 1.258 . S
O77 Tb59 2.500 . S
O77 C79 1.273 . S
O78 Tb59 2.473 . S
O78 C79 1.257 . S
C79 O77 1.273 . S
C79 O78 1.257 . S
O80 Eu60 2.326 . S
O80 C68 1.242 . S
O81 Tb59 2.324 . S
O81 C68 1.258 . S
O82 Eu60 2.500 . S
O82 C65 1.273 . S
O83 Eu60 2.473 . S
O83 C65 1.257 . S
H84 C70 0.929 . S
H85 C72 0.931 . S
H86 C74 0.929 . S
O87 Tb88 2.292 . S
O87 C90 1.255 . S
Tb88 O87 2.292 . S
Tb88 O104 2.326 . S
Tb88 O106 2.500 . S
Tb88 O107 2.473 . S
Tb88 O110 2.324 . S
Eu89 O93 2.292 . S
Eu89 C94 2.852 . S
Eu89 O105 2.324 . S
Eu89 O109 2.326 . S
Eu89 O111 2.500 . S
Eu89 O112 2.473 . S
C90 O87 1.255 . S
C90 O91 1.247 . S
O91 C90 1.247 . S
C92 O104 1.242 . S
C92 O105 1.258 . S
O93 Eu89 2.292 . S
O93 C95 1.255 . S
C94 Eu89 2.852 . S
C94 C98 1.503 . S
C94 O111 1.273 . S
C94 O112 1.257 . S
C95 O93 1.255 . S
C95 O96 1.247 . S
O96 C95 1.247 . S
C97 O109 1.242 . S
C97 O110 1.258 . S
C98 C94 1.503 . S
C98 C99 1.379 . S
C98 C103 1.392 . S
C99 C98 1.379 . S
C99 C100 1.404 . S
C99 H113 0.929 . S
C100 C99 1.404 . S
C100 C101 1.389 . S
C101 C100 1.389 . S
C101 C102 1.399 . S
C101 H114 0.931 . S
C102 C101 1.399 . S
C102 C103 1.390 . S
C103 C98 1.392 . S
C103 C102 1.390 . S
C103 H115 0.929 . S
O104 Tb88 2.326 . S
O104 C92 1.242 . S
O105 Eu89 2.324 . S
O105 C92 1.258 . S
O106 Tb88 2.500 . S
O106 C108 1.273 . S
O107 Tb88 2.473 . S
O107 C108 1.257 . S
C108 O106 1.273 . S
C108 O107 1.257 . S
O109 Eu89 2.326 . S
O109 C97 1.242 . S
O110 Tb88 2.324 . S
O110 C97 1.258 . S
O111 Eu89 2.500 . S
O111 C94 1.273 . S
O112 Eu89 2.473 . S
O112 C94 1.257 . S
H113 C99 0.929 . S
H114 C101 0.931 . S
H115 C103 0.929 . S
O116 Tb117 2.292 . S
O116 C119 1.255 . S
Tb117 O116 2.292 . S
Tb117 O133 2.326 . S
Tb117 O135 2.500 . S
Tb117 O136 2.473 . S
Tb117 O139 2.324 . S
Eu118 O122 2.292 . S
Eu118 C123 2.852 . S
Eu118 O134 2.324 . S
Eu118 O138 2.326 . S
Eu118 O140 2.500 . S
Eu118 O141 2.473 . S
C119 O116 1.255 . S
C119 O120 1.247 . S
O120 C119 1.247 . S
C121 O133 1.242 . S
C121 O134 1.258 . S
O122 Eu118 2.292 . S
O122 C124 1.255 . S
C123 Eu118 2.852 . S
C123 C127 1.503 1_455 S
C123 O140 1.273 . S
C123 O141 1.257 . S
C124 O122 1.255 . S
C124 O125 1.247 . S
O125 C124 1.247 . S
C126 O138 1.242 . S
C126 O139 1.258 . S
C127 C123 1.503 1_655 S
C127 C128 1.379 . S
C127 C132 1.392 . S
C128 C127 1.379 . S
C128 C129 1.404 . S
C128 H142 0.929 . S
C129 C128 1.404 . S
C129 C130 1.389 . S
C130 C129 1.389 . S
C130 C131 1.399 . S
C130 H143 0.931 . S
C131 C130 1.399 . S
C131 C132 1.390 . S
C132 C127 1.392 . S
C132 C131 1.390 . S
C132 H144 0.929 . S
O133 Tb117 2.326 . S
O133 C121 1.242 . S
O134 Eu118 2.324 . S
O134 C121 1.258 . S
O135 Tb117 2.500 . S
O135 C137 1.273 . S
O136 Tb117 2.473 . S
O136 C137 1.257 . S
C137 O135 1.273 . S
C137 O136 1.257 . S
O138 Eu118 2.326 . S
O138 C126 1.242 . S
O139 Tb117 2.324 . S
O139 C126 1.258 . S
O140 Eu118 2.500 . S
O140 C123 1.273 . S
O141 Eu118 2.473 . S
O141 C123 1.257 . S
H142 C128 0.929 . S
H143 C130 0.931 . S
H144 C132 0.929 . S
O145 Tb146 2.292 . S
O145 C148 1.255 . S
Tb146 O145 2.292 . S
Tb146 O162 2.326 . S
Tb146 O164 2.500 . S
Tb146 O165 2.473 . S
Tb146 O168 2.324 . S
Eu147 O151 2.292 . S
Eu147 C152 2.852 . S
Eu147 O163 2.324 . S
Eu147 O167 2.326 . S
Eu147 O169 2.500 . S
Eu147 O170 2.473 . S
C148 O145 1.255 . S
C148 O149 1.247 . S
O149 C148 1.247 . S
C150 O162 1.242 . S
C150 O163 1.258 . S
O151 Eu147 2.292 . S
O151 C153 1.255 . S
C152 Eu147 2.852 . S
C152 C156 1.503 1_545 S
C152 O169 1.273 . S
C152 O170 1.257 . S
C153 O151 1.255 . S
C153 O154 1.247 . S
O154 C153 1.247 . S
C155 O167 1.242 . S
C155 O168 1.258 . S
C156 C152 1.503 1_565 S
C156 C157 1.379 . S
C156 C161 1.392 . S
C157 C156 1.379 . S
C157 C158 1.404 . S
C157 H171 0.929 . S
C158 C157 1.404 . S
C158 C159 1.389 . S
C159 C158 1.389 . S
C159 C160 1.399 . S
C159 H172 0.931 . S
C160 C159 1.399 . S
C160 C161 1.390 . S
C161 C156 1.392 . S
C161 C160 1.390 . S
C161 H173 0.929 . S
O162 Tb146 2.326 . S
O162 C150 1.242 . S
O163 Eu147 2.324 . S
O163 C150 1.258 . S
O164 Tb146 2.500 . S
O164 C166 1.273 . S
O165 Tb146 2.473 . S
O165 C166 1.257 . S
C166 O164 1.273 . S
C166 O165 1.257 . S
O167 Eu147 2.326 . S
O167 C155 1.242 . S
O168 Tb146 2.324 . S
O168 C155 1.258 . S
O169 Eu147 2.500 . S
O169 C152 1.273 . S
O170 Eu147 2.473 . S
O170 C152 1.257 . S
H171 C157 0.929 . S
H172 C159 0.931 . S
H173 C161 0.929 . S
O174 Tb175 2.292 . S
O174 C177 1.255 . S
Tb175 O174 2.292 . S
Tb175 O191 2.326 . S
Tb175 O193 2.500 . S
Tb175 O194 2.473 . S
Tb175 O197 2.324 . S
Eu176 O180 2.292 . S
Eu176 C181 2.852 . S
Eu176 O192 2.324 . S
Eu176 O196 2.326 . S
Eu176 O198 2.500 . S
Eu176 O199 2.473 . S
C177 O174 1.255 . S
C177 O178 1.247 . S
O178 C177 1.247 . S
C179 O191 1.242 . S
C179 O192 1.258 . S
O180 Eu176 2.292 . S
O180 C182 1.255 . S
C181 Eu176 2.852 . S
C181 C185 1.503 . S
C181 O198 1.273 . S
C181 O199 1.257 . S
C182 O180 1.255 . S
C182 O183 1.247 . S
O183 C182 1.247 . S
C184 O196 1.242 . S
C184 O197 1.258 . S
C185 C181 1.503 . S
C185 C186 1.379 . S
C185 C190 1.392 . S
C186 C185 1.379 . S
C186 C187 1.404 . S
C186 H200 0.929 . S
C187 C186 1.404 . S
C187 C188 1.389 . S
C188 C187 1.389 . S
C188 C189 1.399 . S
C188 H201 0.931 . S
C189 C188 1.399 . S
C189 C190 1.390 . S
C190 C185 1.392 . S
C190 C189 1.390 . S
C190 H202 0.929 . S
O191 Tb175 2.326 . S
O191 C179 1.242 . S
O192 Eu176 2.324 . S
O192 C179 1.258 . S
O193 Tb175 2.500 . S
O193 C195 1.273 . S
O194 Tb175 2.473 . S
O194 C195 1.257 . S
C195 O193 1.273 . S
C195 O194 1.257 . S
O196 Eu176 2.326 . S
O196 C184 1.242 . S
O197 Tb175 2.324 . S
O197 C184 1.258 . S
O198 Eu176 2.500 . S
O198 C181 1.273 . S
O199 Eu176 2.473 . S
O199 C181 1.257 . S
H200 C186 0.929 . S
H201 C188 0.931 . S
H202 C190 0.929 . S
O203 Tb204 2.292 . S
O203 C206 1.255 . S
Tb204 O203 2.292 . S
Tb204 O220 2.326 . S
Tb204 O222 2.500 . S
Tb204 O223 2.473 . S
Tb204 O226 2.324 . S
Eu205 O209 2.292 . S
Eu205 C210 2.852 . S
Eu205 O221 2.324 1_554 S
Eu205 O225 2.326 1_554 S
Eu205 O227 2.500 . S
Eu205 O228 2.473 1_554 S
C206 O203 1.255 . S
C206 O207 1.247 . S
O207 C206 1.247 . S
C208 O220 1.242 . S
C208 O221 1.258 . S
O209 Eu205 2.292 . S
O209 C211 1.255 . S
C210 Eu205 2.852 . S
C210 C214 1.503 1_654 S
C210 O227 1.273 . S
C210 O228 1.257 1_554 S
C211 O209 1.255 . S
C211 O212 1.247 . S
O212 C211 1.247 . S
C213 O225 1.242 . S
C213 O226 1.258 . S
C214 C210 1.503 1_456 S
C214 C215 1.379 . S
C214 C219 1.392 1_556 S
C215 C214 1.379 . S
C215 C216 1.404 . S
C215 H229 0.929 . S
C216 C215 1.404 . S
C216 C217 1.389 . S
C217 C216 1.389 . S
C217 C218 1.399 1_556 S
C217 H230 0.931 . S
C218 C217 1.399 1_554 S
C218 C219 1.390 . S
C219 C214 1.392 1_554 S
C219 C218 1.390 . S
C219 H231 0.929 . S
O220 Tb204 2.326 . S
O220 C208 1.242 . S
O221 Eu205 2.324 1_556 S
O221 C208 1.258 . S
O222 Tb204 2.500 . S
O222 C224 1.273 . S
O223 Tb204 2.473 . S
O223 C224 1.257 . S
C224 O222 1.273 . S
C224 O223 1.257 . S
O225 Eu205 2.326 1_556 S
O225 C213 1.242 . S
O226 Tb204 2.324 . S
O226 C213 1.258 . S
O227 Eu205 2.500 . S
O227 C210 1.273 . S
O228 Eu205 2.473 1_556 S
O228 C210 1.257 1_556 S
H229 C215 0.929 . S
H230 C217 0.931 . S
H231 C219 0.929 . S
O232 Tb233 2.292 . S
O232 C235 1.255 . S
Tb233 O232 2.292 . S
Tb233 O249 2.326 . S
Tb233 O251 2.500 . S
Tb233 O252 2.473 . S
Tb233 O255 2.324 . S
Eu234 O238 2.292 . S
Eu234 C239 2.852 . S
Eu234 O250 2.324 . S
Eu234 O254 2.326 . S
Eu234 O256 2.500 . S
Eu234 O257 2.473 . S
C235 O232 1.255 . S
C235 O236 1.247 . S
O236 C235 1.247 . S
C237 O249 1.242 . S
C237 O250 1.258 . S
O238 Eu234 2.292 . S
O238 C240 1.255 . S
C239 Eu234 2.852 . S
C239 C243 1.503 1_565 S
C239 O256 1.273 . S
C239 O257 1.257 . S
C240 O238 1.255 . S
C240 O241 1.247 . S
O241 C240 1.247 . S
C242 O254 1.242 . S
C242 O255 1.258 . S
C243 C239 1.503 1_545 S
C243 C244 1.379 . S
C243 C248 1.392 . S
C244 C243 1.379 . S
C244 C245 1.404 . S
C244 H258 0.929 . S
C245 C244 1.404 . S
C245 C246 1.389 . S
C246 C245 1.389 . S
C246 C247 1.399 . S
C246 H259 0.931 . S
C247 C246 1.399 . S
C247 C248 1.390 . S
C248 C243 1.392 . S
C248 C247 1.390 . S
C248 H260 0.929 . S
O249 Tb233 2.326 . S
O249 C237 1.242 . S
O250 Eu234 2.324 . S
O250 C237 1.258 . S
O251 Tb233 2.500 . S
O251 C253 1.273 . S
O252 Tb233 2.473 . S
O252 C253 1.257 . S
C253 O251 1.273 . S
C253 O252 1.257 . S
O254 Eu234 2.326 . S
O254 C242 1.242 . S
O255 Tb233 2.324 . S
O255 C242 1.258 . S
O256 Eu234 2.500 . S
O256 C239 1.273 . S
O257 Eu234 2.473 . S
O257 C239 1.257 . S
H258 C244 0.929 . S
H259 C246 0.931 . S
H260 C248 0.929 . S
O261 Tb262 2.292 . S
O261 C264 1.255 . S
Tb262 O261 2.292 . S
Tb262 O278 2.326 . S
Tb262 O280 2.500 . S
Tb262 O281 2.473 . S
Tb262 O284 2.324 . S
Eu263 O267 2.292 . S
Eu263 C268 2.852 . S
Eu263 O279 2.324 . S
Eu263 O283 2.326 . S
Eu263 O285 2.500 . S
Eu263 O286 2.473 . S
C264 O261 1.255 . S
C264 O265 1.247 . S
O265 C264 1.247 . S
C266 O278 1.242 . S
C266 O279 1.258 . S
O267 Eu263 2.292 . S
O267 C269 1.255 . S
C268 Eu263 2.852 . S
C268 C272 1.503 . S
C268 O285 1.273 . S
C268 O286 1.257 . S
C269 O267 1.255 . S
C269 O270 1.247 . S
O270 C269 1.247 . S
C271 O283 1.242 . S
C271 O284 1.258 . S
C272 C268 1.503 . S
C272 C273 1.379 . S
C272 C277 1.392 . S
C273 C272 1.379 . S
C273 C274 1.404 . S
C273 H287 0.929 . S
C274 C273 1.404 . S
C274 C275 1.389 . S
C275 C274 1.389 . S
C275 C276 1.399 . S
C275 H288 0.931 . S
C276 C275 1.399 . S
C276 C277 1.390 . S
C277 C272 1.392 . S
C277 C276 1.390 . S
C277 H289 0.929 . S
O278 Tb262 2.326 . S
O278 C266 1.242 . S
O279 Eu263 2.324 . S
O279 C266 1.258 . S
O280 Tb262 2.500 . S
O280 C282 1.273 . S
O281 Tb262 2.473 . S
O281 C282 1.257 . S
C282 O280 1.273 . S
C282 O281 1.257 . S
O283 Eu263 2.326 . S
O283 C271 1.242 . S
O284 Tb262 2.324 . S
O284 C271 1.258 . S
O285 Eu263 2.500 . S
O285 C268 1.273 . S
O286 Eu263 2.473 . S
O286 C268 1.257 . S
H287 C273 0.929 . S
H288 C275 0.931 . S
H289 C277 0.929 . S
O290 Tb291 2.292 . S
O290 C293 1.255 . S
Tb291 O290 2.292 . S
Tb291 O307 2.326 . S
Tb291 O309 2.500 . S
Tb291 O310 2.473 . S
Tb291 O313 2.324 . S
Eu292 O296 2.292 . S
Eu292 C297 2.852 . S
Eu292 O308 2.324 . S
Eu292 O312 2.326 . S
Eu292 O314 2.500 . S
Eu292 O315 2.473 . S
C293 O290 1.255 . S
C293 O294 1.247 . S
O294 C293 1.247 . S
C295 O307 1.242 . S
C295 O308 1.258 . S
O296 Eu292 2.292 . S
O296 C298 1.255 . S
C297 Eu292 2.852 . S
C297 C301 1.503 1_455 S
C297 O314 1.273 . S
C297 O315 1.257 . S
C298 O296 1.255 . S
C298 O299 1.247 . S
O299 C298 1.247 . S
C300 O312 1.242 . S
C300 O313 1.258 . S
C301 C297 1.503 1_655 S
C301 C302 1.379 . S
C301 C306 1.392 . S
C302 C301 1.379 . S
C302 C303 1.404 . S
C302 H316 0.929 . S
C303 C302 1.404 . S
C303 C304 1.389 . S
C304 C303 1.389 . S
C304 C305 1.399 . S
C304 H317 0.931 . S
C305 C304 1.399 . S
C305 C306 1.390 . S
C306 C301 1.392 . S
C306 C305 1.390 . S
C306 H318 0.929 . S
O307 Tb291 2.326 . S
O307 C295 1.242 . S
O308 Eu292 2.324 . S
O308 C295 1.258 . S
O309 Tb291 2.500 . S
O309 C311 1.273 . S
O310 Tb291 2.473 . S
O310 C311 1.257 . S
C311 O309 1.273 . S
C311 O310 1.257 . S
O312 Eu292 2.326 . S
O312 C300 1.242 . S
O313 Tb291 2.324 . S
O313 C300 1.258 . S
O314 Eu292 2.500 . S
O314 C297 1.273 . S
O315 Eu292 2.473 . S
O315 C297 1.257 . S
H316 C302 0.929 . S
H317 C304 0.931 . S
H318 C306 0.929 . S
O319 Tb320 2.292 . S
O319 C322 1.255 . S
Tb320 O319 2.292 . S
Tb320 O336 2.326 . S
Tb320 O338 2.500 . S
Tb320 O339 2.473 . S
Tb320 O342 2.324 . S
Eu321 O325 2.292 . S
Eu321 C326 2.852 . S
Eu321 O337 2.324 . S
Eu321 O341 2.326 . S
Eu321 O343 2.500 . S
Eu321 O344 2.473 . S
C322 O319 1.255 . S
C322 O323 1.247 . S
O323 C322 1.247 . S
C324 O336 1.242 . S
C324 O337 1.258 . S
O325 Eu321 2.292 . S
O325 C327 1.255 . S
C326 Eu321 2.852 . S
C326 C330 1.503 1_545 S
C326 O343 1.273 . S
C326 O344 1.257 . S
C327 O325 1.255 . S
C327 O328 1.247 . S
O328 C327 1.247 . S
C329 O341 1.242 . S
C329 O342 1.258 . S
C330 C326 1.503 1_565 S
C330 C331 1.379 . S
C330 C335 1.392 . S
C331 C330 1.379 . S
C331 C332 1.404 . S
C331 H345 0.929 . S
C332 C331 1.404 . S
C332 C333 1.389 . S
C333 C332 1.389 . S
C333 C334 1.399 . S
C333 H346 0.931 . S
C334 C333 1.399 . S
C334 C335 1.390 . S
C335 C330 1.392 . S
C335 C334 1.390 . S
C335 H347 0.929 . S
O336 Tb320 2.326 . S
O336 C324 1.242 . S
O337 Eu321 2.324 . S
O337 C324 1.258 . S
O338 Tb320 2.500 . S
O338 C340 1.273 . S
O339 Tb320 2.473 . S
O339 C340 1.257 . S
C340 O338 1.273 . S
C340 O339 1.257 . S
O341 Eu321 2.326 . S
O341 C329 1.242 . S
O342 Tb320 2.324 . S
O342 C329 1.258 . S
O343 Eu321 2.500 . S
O343 C326 1.273 . S
O344 Eu321 2.473 . S
O344 C326 1.257 . S
H345 C331 0.929 . S
H346 C333 0.931 . S
H347 C335 0.929 . S
C348 C349 1.363 . S
C348 C354 1.379 . S
C348 N356 1.356 . S
C349 C348 1.363 . S
C349 C355 1.363 . S
C350 C351 1.363 . S
C350 C355 1.379 . S
C350 N357 1.356 . S
C351 C350 1.363 . S
C351 C354 1.363 . S
N352 C354 1.356 . S
N352 H364 0.984 . S
N352 H365 0.985 . S
N353 C355 1.356 . S
N353 H358 0.984 . S
N353 H359 0.985 . S
C354 C348 1.379 . S
C354 C351 1.363 . S
C354 N352 1.356 . S
C355 C349 1.363 . S
C355 C350 1.379 . S
C355 N353 1.356 . S
N356 C348 1.356 . S
N356 H362 0.984 . S
N356 H363 0.984 . S
N357 C350 1.356 . S
N357 H360 0.984 . S
N357 H361 0.985 . S
H358 N353 0.984 . S
H359 N353 0.985 . S
H360 N357 0.984 . S
H361 N357 0.985 . S
H362 N356 0.984 . S
H363 N356 0.984 . S
H364 N352 0.984 . S
H365 N352 0.985 . S
C366 C367 1.363 . S
C366 C372 1.379 . S
C366 N374 1.356 . S
C367 C366 1.363 . S
C367 C373 1.363 . S
C368 C369 1.363 . S
C368 C373 1.379 . S
C368 N375 1.356 . S
C369 C368 1.363 . S
C369 C372 1.363 . S
N370 C372 1.356 . S
N370 H382 0.984 . S
N370 H383 0.985 . S
N371 C373 1.356 . S
N371 H376 0.984 . S
N371 H377 0.985 . S
C372 C366 1.379 . S
C372 C369 1.363 . S
C372 N370 1.356 . S
C373 C367 1.363 . S
C373 C368 1.379 . S
C373 N371 1.356 . S
N374 C366 1.356 . S
N374 H380 0.984 . S
N374 H381 0.984 . S
N375 C368 1.356 . S
N375 H378 0.984 . S
N375 H379 0.985 . S
H376 N371 0.984 . S
H377 N371 0.985 . S
H378 N375 0.984 . S
H379 N375 0.985 . S
H380 N374 0.984 . S
H381 N374 0.984 . S
H382 N370 0.984 . S
H383 N370 0.985 . S
C384 C385 1.363 . S
C384 C390 1.379 . S
C384 N392 1.356 . S
C385 C384 1.363 . S
C385 C391 1.363 . S
C386 C387 1.363 . S
C386 C391 1.379 . S
C386 N393 1.356 . S
C387 C386 1.363 . S
C387 C390 1.363 . S
N388 C390 1.356 . S
N388 H400 0.984 . S
N388 H401 0.985 . S
N389 C391 1.356 . S
N389 H394 0.984 . S
N389 H395 0.985 . S
C390 C384 1.379 . S
C390 C387 1.363 . S
C390 N388 1.356 . S
C391 C385 1.363 . S
C391 C386 1.379 . S
C391 N389 1.356 . S
N392 C384 1.356 . S
N392 H398 0.984 . S
N392 H399 0.984 . S
N393 C386 1.356 . S
N393 H396 0.984 . S
N393 H397 0.985 . S
H394 N389 0.984 . S
H395 N389 0.985 . S
H396 N393 0.984 . S
H397 N393 0.985 . S
H398 N392 0.984 . S
H399 N392 0.984 . S
H400 N388 0.984 . S
H401 N388 0.985 . S
C402 C403 1.363 . S
C402 C408 1.379 . S
C402 N410 1.356 . S
C403 C402 1.363 . S
C403 C409 1.363 . S
C404 C405 1.363 . S
C404 C409 1.379 . S
C404 N411 1.356 . S
C405 C404 1.363 . S
C405 C408 1.363 . S
N406 C408 1.356 . S
N406 H418 0.984 . S
N406 H419 0.985 . S
N407 C409 1.356 . S
N407 H412 0.984 . S
N407 H413 0.985 . S
C408 C402 1.379 . S
C408 C405 1.363 . S
C408 N406 1.356 . S
C409 C403 1.363 . S
C409 C404 1.379 . S
C409 N407 1.356 . S
N410 C402 1.356 . S
N410 H416 0.984 . S
N410 H417 0.984 . S
N411 C404 1.356 . S
N411 H414 0.984 . S
N411 H415 0.985 . S
H412 N407 0.984 . S
H413 N407 0.985 . S
H414 N411 0.984 . S
H415 N411 0.985 . S
H416 N410 0.984 . S
H417 N410 0.984 . S
H418 N406 0.984 . S
H419 N406 0.985 . S
C420 C421 1.363 . S
C420 C426 1.379 . S
C420 N428 1.356 . S
C421 C420 1.363 . S
C421 C427 1.363 . S
C422 C423 1.363 . S
C422 C427 1.379 . S
C422 N429 1.356 . S
C423 C422 1.363 . S
C423 C426 1.363 . S
N424 C426 1.356 . S
N424 H436 0.984 . S
N424 H437 0.985 . S
N425 C427 1.356 . S
N425 H430 0.984 . S
N425 H431 0.985 . S
C426 C420 1.379 . S
C426 C423 1.363 . S
C426 N424 1.356 . S
C427 C421 1.363 . S
C427 C422 1.379 . S
C427 N425 1.356 . S
N428 C420 1.356 . S
N428 H434 0.984 . S
N428 H435 0.984 . S
N429 C422 1.356 . S
N429 H432 0.984 . S
N429 H433 0.985 . S
H430 N425 0.984 . S
H431 N425 0.985 . S
H432 N429 0.984 . S
H433 N429 0.985 . S
H434 N428 0.984 . S
H435 N428 0.984 . S
H436 N424 0.984 . S
H437 N424 0.985 . S
C438 C439 1.363 . S
C438 C444 1.379 . S
C438 N446 1.356 . S
C439 C438 1.363 . S
C439 C445 1.363 . S
C440 C441 1.363 . S
C440 C445 1.379 . S
C440 N447 1.356 . S
C441 C440 1.363 . S
C441 C444 1.363 . S
N442 C444 1.356 . S
N442 H454 0.984 . S
N442 H455 0.985 . S
N443 C445 1.356 . S
N443 H448 0.984 . S
N443 H449 0.985 . S
C444 C438 1.379 . S
C444 C441 1.363 . S
C444 N442 1.356 . S
C445 C439 1.363 . S
C445 C440 1.379 . S
C445 N443 1.356 . S
N446 C438 1.356 . S
N446 H452 0.984 . S
N446 H453 0.984 . S
N447 C440 1.356 . S
N447 H450 0.984 . S
N447 H451 0.985 . S
H448 N443 0.984 . S
H449 N443 0.985 . S
H450 N447 0.984 . S
H451 N447 0.985 . S
H452 N446 0.984 . S
H453 N446 0.984 . S
H454 N442 0.984 . S
H455 N442 0.985 . S
C456 C457 1.363 . S
C456 C462 1.379 . S
C456 N464 1.356 . S
C457 C456 1.363 . S
C457 C463 1.363 . S
C458 C459 1.363 . S
C458 C463 1.379 . S
C458 N465 1.356 . S
C459 C458 1.363 . S
C459 C462 1.363 . S
N460 C462 1.356 . S
N460 H472 0.984 . S
N460 H473 0.985 1_556 S
N461 C463 1.356 . S
N461 H466 0.984 . S
N461 H467 0.985 . S
C462 C456 1.379 . S
C462 C459 1.363 . S
C462 N460 1.356 . S
C463 C457 1.363 . S
C463 C458 1.379 . S
C463 N461 1.356 . S
N464 C456 1.356 . S
N464 H470 0.984 . S
N464 H471 0.984 . S
N465 C458 1.356 . S
N465 H468 0.984 1_556 S
N465 H469 0.985 . S
H466 N461 0.984 . S
H467 N461 0.985 . S
H468 N465 0.984 1_554 S
H469 N465 0.985 . S
H470 N464 0.984 . S
H471 N464 0.984 . S
H472 N460 0.984 . S
H473 N460 0.985 1_554 S
C474 C475 1.363 . S
C474 C480 1.379 . S
C474 N482 1.356 . S
C475 C474 1.363 . S
C475 C481 1.363 . S
C476 C477 1.363 . S
C476 C481 1.379 . S
C476 N483 1.356 . S
C477 C476 1.363 . S
C477 C480 1.363 . S
N478 C480 1.356 . S
N478 H490 0.984 . S
N478 H491 0.985 . S
N479 C481 1.356 . S
N479 H484 0.984 . S
N479 H485 0.985 . S
C480 C474 1.379 . S
C480 C477 1.363 . S
C480 N478 1.356 . S
C481 C475 1.363 . S
C481 C476 1.379 . S
C481 N479 1.356 . S
N482 C474 1.356 . S
N482 H488 0.984 . S
N482 H489 0.984 . S
N483 C476 1.356 . S
N483 H486 0.984 . S
N483 H487 0.985 . S
H484 N479 0.984 . S
H485 N479 0.985 . S
H486 N483 0.984 . S
H487 N483 0.985 . S
H488 N482 0.984 . S
H489 N482 0.984 . S
H490 N478 0.984 . S
H491 N478 0.985 . S
C492 C493 1.363 . S
C492 C498 1.379 . S
C492 N500 1.356 . S
C493 C492 1.363 . S
C493 C499 1.363 . S
C494 C495 1.363 . S
C494 C499 1.379 . S
C494 N501 1.356 . S
C495 C494 1.363 . S
C495 C498 1.363 . S
N496 C498 1.356 . S
N496 H508 0.984 . S
N496 H509 0.985 . S
N497 C499 1.356 . S
N497 H502 0.984 . S
N497 H503 0.985 . S
C498 C492 1.379 . S
C498 C495 1.363 . S
C498 N496 1.356 . S
C499 C493 1.363 . S
C499 C494 1.379 . S
C499 N497 1.356 . S
N500 C492 1.356 . S
N500 H506 0.984 . S
N500 H507 0.984 . S
N501 C494 1.356 . S
N501 H504 0.984 . S
N501 H505 0.985 . S
H502 N497 0.984 . S
H503 N497 0.985 . S
H504 N501 0.984 . S
H505 N501 0.985 . S
H506 N500 0.984 . S
H507 N500 0.984 . S
H508 N496 0.984 . S
H509 N496 0.985 . S
C510 C511 1.363 . S
C510 C516 1.379 . S
C510 N518 1.356 . S
C511 C510 1.363 . S
C511 C517 1.363 . S
C512 C513 1.363 . S
C512 C517 1.379 . S
C512 N519 1.356 . S
C513 C512 1.363 . S
C513 C516 1.363 . S
N514 C516 1.356 . S
N514 H526 0.984 . S
N514 H527 0.985 . S
N515 C517 1.356 . S
N515 H520 0.984 . S
N515 H521 0.985 . S
C516 C510 1.379 . S
C516 C513 1.363 . S
C516 N514 1.356 . S
C517 C511 1.363 . S
C517 C512 1.379 . S
C517 N515 1.356 . S
N518 C510 1.356 . S
N518 H524 0.984 . S
N518 H525 0.984 . S
N519 C512 1.356 . S
N519 H522 0.984 . S
N519 H523 0.985 . S
H520 N515 0.984 . S
H521 N515 0.985 . S
H522 N519 0.984 . S
H523 N519 0.985 . S
H524 N518 0.984 . S
H525 N518 0.984 . S
H526 N514 0.984 . S
H527 N514 0.985 . S
C528 C529 1.363 . S
C528 C534 1.379 . S
C528 N536 1.356 . S
C529 C528 1.363 . S
C529 C535 1.363 . S
C530 C531 1.363 . S
C530 C535 1.379 . S
C530 N537 1.356 . S
C531 C530 1.363 . S
C531 C534 1.363 . S
N532 C534 1.356 . S
N532 H544 0.984 . S
N532 H545 0.985 . S
N533 C535 1.356 . S
N533 H538 0.984 . S
N533 H539 0.985 . S
C534 C528 1.379 . S
C534 C531 1.363 . S
C534 N532 1.356 . S
C535 C529 1.363 . S
C535 C530 1.379 . S
C535 N533 1.356 . S
N536 C528 1.356 . S
N536 H542 0.984 . S
N536 H543 0.984 . S
N537 C530 1.356 . S
N537 H540 0.984 . S
N537 H541 0.985 . S
H538 N533 0.984 . S
H539 N533 0.985 . S
H540 N537 0.984 . S
H541 N537 0.985 . S
H542 N536 0.984 . S
H543 N536 0.984 . S
H544 N532 0.984 . S
H545 N532 0.985 . S
C546 C547 1.363 . S
C546 C552 1.379 . S
C546 N554 1.356 . S
C547 C546 1.363 . S
C547 C553 1.363 . S
C548 C549 1.363 . S
C548 C553 1.379 . S
C548 N555 1.356 . S
C549 C548 1.363 . S
C549 C552 1.363 . S
N550 C552 1.356 . S
N550 H562 0.984 . S
N550 H563 0.985 . S
N551 C553 1.356 . S
N551 H556 0.984 . S
N551 H557 0.985 . S
C552 C546 1.379 . S
C552 C549 1.363 . S
C552 N550 1.356 . S
C553 C547 1.363 . S
C553 C548 1.379 . S
C553 N551 1.356 . S
N554 C546 1.356 . S
N554 H560 0.984 . S
N554 H561 0.984 . S
N555 C548 1.356 . S
N555 H558 0.984 . S
N555 H559 0.985 . S
H556 N551 0.984 . S
H557 N551 0.985 . S
H558 N555 0.984 . S
H559 N555 0.985 . S
H560 N554 0.984 . S
H561 N554 0.984 . S
H562 N550 0.984 . S
H563 N550 0.985 . S
C564 C565 1.363 . S
C564 C570 1.379 . S
C564 N572 1.356 . S
C565 C564 1.363 . S
C565 C571 1.363 . S
C566 C567 1.363 . S
C566 C571 1.379 . S
C566 N573 1.356 . S
C567 C566 1.363 . S
C567 C570 1.363 . S
N568 C570 1.356 . S
N568 H580 0.984 . S
N568 H581 0.985 . S
N569 C571 1.356 . S
N569 H574 0.984 . S
N569 H575 0.985 . S
C570 C564 1.379 . S
C570 C567 1.363 . S
C570 N568 1.356 . S
C571 C565 1.363 . S
C571 C566 1.379 . S
C571 N569 1.356 . S
N572 C564 1.356 . S
N572 H578 0.984 . S
N572 H579 0.984 . S
N573 C566 1.356 . S
N573 H576 0.984 . S
N573 H577 0.985 . S
H574 N569 0.984 . S
H575 N569 0.985 . S
H576 N573 0.984 . S
H577 N573 0.985 . S
H578 N572 0.984 . S
H579 N572 0.984 . S
H580 N568 0.984 . S
H581 N568 0.985 . S
C582 C583 1.363 . S
C582 C588 1.379 . S
C582 N590 1.356 . S
C583 C582 1.363 . S
C583 C589 1.363 . S
C584 C585 1.363 . S
C584 C589 1.379 . S
C584 N591 1.356 . S
C585 C584 1.363 . S
C585 C588 1.363 . S
N586 C588 1.356 . S
N586 H598 0.984 . S
N586 H599 0.985 1_554 S
N587 C589 1.356 . S
N587 H592 0.984 . S
N587 H593 0.985 . S
C588 C582 1.379 . S
C588 C585 1.363 . S
C588 N586 1.356 . S
C589 C583 1.363 . S
C589 C584 1.379 . S
C589 N587 1.356 . S
N590 C582 1.356 . S
N590 H596 0.984 . S
N590 H597 0.984 . S
N591 C584 1.356 . S
N591 H594 0.984 1_554 S
N591 H595 0.985 . S
H592 N587 0.984 . S
H593 N587 0.985 . S
H594 N591 0.984 1_556 S
H595 N591 0.985 . S
H596 N590 0.984 . S
H597 N590 0.984 . S
H598 N586 0.984 . S
H599 N586 0.985 1_556 S
C600 C601 1.363 . S
C600 C606 1.379 . S
C600 N608 1.356 . S
C601 C600 1.363 . S
C601 C607 1.363 . S
C602 C603 1.363 . S
C602 C607 1.379 . S
C602 N609 1.356 . S
C603 C602 1.363 . S
C603 C606 1.363 . S
N604 C606 1.356 . S
N604 H616 0.984 . S
N604 H617 0.985 . S
N605 C607 1.356 . S
N605 H610 0.984 . S
N605 H611 0.985 . S
C606 C600 1.379 . S
C606 C603 1.363 . S
C606 N604 1.356 . S
C607 C601 1.363 . S
C607 C602 1.379 . S
C607 N605 1.356 . S
N608 C600 1.356 . S
N608 H614 0.984 . S
N608 H615 0.984 . S
N609 C602 1.356 . S
N609 H612 0.984 . S
N609 H613 0.985 . S
H610 N605 0.984 . S
H611 N605 0.985 . S
H612 N609 0.984 . S
H613 N609 0.985 . S
H614 N608 0.984 . S
H615 N608 0.984 . S
H616 N604 0.984 . S
H617 N604 0.985 . S
C618 C619 1.363 . S
C618 C624 1.379 . S
C618 N626 1.356 . S
C619 C618 1.363 . S
C619 C625 1.363 . S
C620 C621 1.363 . S
C620 C625 1.379 . S
C620 N627 1.356 . S
C621 C620 1.363 . S
C621 C624 1.363 . S
N622 C624 1.356 . S
N622 H634 0.984 . S
N622 H635 0.985 . S
N623 C625 1.356 . S
N623 H628 0.984 . S
N623 H629 0.985 . S
C624 C618 1.379 . S
C624 C621 1.363 . S
C624 N622 1.356 . S
C625 C619 1.363 . S
C625 C620 1.379 . S
C625 N623 1.356 . S
N626 C618 1.356 . S
N626 H632 0.984 . S
N626 H633 0.984 . S
N627 C620 1.356 . S
N627 H630 0.984 . S
N627 H631 0.985 . S
H628 N623 0.984 . S
H629 N623 0.985 . S
H630 N627 0.984 . S
H631 N627 0.985 . S
H632 N626 0.984 . S
H633 N626 0.984 . S
H634 N622 0.984 . S
H635 N622 0.985 . S
C636 C637 1.363 . S
C636 C642 1.379 . S
C636 N644 1.356 . S
C637 C636 1.363 . S
C637 C643 1.363 . S
C638 C639 1.363 . S
C638 C643 1.379 . S
C638 N645 1.356 . S
C639 C638 1.363 . S
C639 C642 1.363 . S
N640 C642 1.356 . S
N640 H652 0.984 . S
N640 H653 0.985 . S
N641 C643 1.356 . S
N641 H646 0.984 . S
N641 H647 0.985 . S
C642 C636 1.379 . S
C642 C639 1.363 . S
C642 N640 1.356 . S
C643 C637 1.363 . S
C643 C638 1.379 . S
C643 N641 1.356 . S
N644 C636 1.356 . S
N644 H650 0.984 . S
N644 H651 0.984 . S
N645 C638 1.356 . S
N645 H648 0.984 . S
N645 H649 0.985 . S
H646 N641 0.984 . S
H647 N641 0.985 . S
H648 N645 0.984 . S
H649 N645 0.985 . S
H650 N644 0.984 . S
H651 N644 0.984 . S
H652 N640 0.984 . S
H653 N640 0.985 . S
C654 C655 1.363 . S
C654 C660 1.379 . S
C654 N662 1.356 . S
C655 C654 1.363 . S
C655 C661 1.363 . S
C656 C657 1.363 . S
C656 C661 1.379 . S
C656 N663 1.356 . S
C657 C656 1.363 . S
C657 C660 1.363 . S
N658 C660 1.356 . S
N658 H670 0.984 . S
N658 H671 0.985 . S
N659 C661 1.356 . S
N659 H664 0.984 . S
N659 H665 0.985 . S
C660 C654 1.379 . S
C660 C657 1.363 . S
C660 N658 1.356 . S
C661 C655 1.363 . S
C661 C656 1.379 . S
C661 N659 1.356 . S
N662 C654 1.356 . S
N662 H668 0.984 . S
N662 H669 0.984 . S
N663 C656 1.356 . S
N663 H666 0.984 . S
N663 H667 0.985 . S
H664 N659 0.984 . S
H665 N659 0.985 . S
H666 N663 0.984 . S
H667 N663 0.985 . S
H668 N662 0.984 . S
H669 N662 0.984 . S
H670 N658 0.984 . S
H671 N658 0.985 . S
C672 C673 1.363 . S
C672 C678 1.379 . S
C672 N680 1.356 . S
C673 C672 1.363 . S
C673 C679 1.363 . S
C674 C675 1.363 . S
C674 C679 1.379 . S
C674 N681 1.356 . S
C675 C674 1.363 . S
C675 C678 1.363 . S
N676 C678 1.356 . S
N676 H688 0.984 . S
N676 H689 0.985 . S
N677 C679 1.356 . S
N677 H682 0.984 . S
N677 H683 0.985 . S
C678 C672 1.379 . S
C678 C675 1.363 . S
C678 N676 1.356 . S
C679 C673 1.363 . S
C679 C674 1.379 . S
C679 N677 1.356 . S
N680 C672 1.356 . S
N680 H686 0.984 . S
N680 H687 0.984 . S
N681 C674 1.356 . S
N681 H684 0.984 . S
N681 H685 0.985 . S
H682 N677 0.984 . S
H683 N677 0.985 . S
H684 N681 0.984 . S
H685 N681 0.985 . S
H686 N680 0.984 . S
H687 N680 0.984 . S
H688 N676 0.984 . S
H689 N676 0.985 . S
C690 C691 1.363 . S
C690 C696 1.379 . S
C690 N698 1.356 . S
C691 C690 1.363 . S
C691 C697 1.363 . S
C692 C693 1.363 . S
C692 C697 1.379 . S
C692 N699 1.356 . S
C693 C692 1.363 . S
C693 C696 1.363 . S
N694 C696 1.356 . S
N694 H706 0.984 . S
N694 H707 0.985 . S
N695 C697 1.356 . S
N695 H700 0.984 . S
N695 H701 0.985 . S
C696 C690 1.379 . S
C696 C693 1.363 . S
C696 N694 1.356 . S
C697 C691 1.363 . S
C697 C692 1.379 . S
C697 N695 1.356 . S
N698 C690 1.356 . S
N698 H704 0.984 . S
N698 H705 0.984 . S
N699 C692 1.356 . S
N699 H702 0.984 . S
N699 H703 0.985 . S
H700 N695 0.984 . S
H701 N695 0.985 . S
H702 N699 0.984 . S
H703 N699 0.985 . S
H704 N698 0.984 . S
H705 N698 0.984 . S
H706 N694 0.984 . S
H707 N694 0.985 . S
C708 C709 1.363 . S
C708 C714 1.379 . S
C708 N716 1.363 . S
C709 C708 1.363 . S
C709 C715 1.363 . S
C710 C711 1.363 . S
C710 C715 1.379 . S
C710 N717 1.356 . S
C711 C710 1.363 . S
C711 C714 1.363 . S
N712 C714 1.365 . S
N712 H724 0.973 1_565 S
N712 H725 0.987 . S
N713 C715 1.356 . S
N713 H718 0.984 . S
N713 H719 0.985 . S
C714 C708 1.379 . S
C714 C711 1.363 . S
C714 N712 1.365 . S
C715 C709 1.363 . S
C715 C710 1.379 . S
C715 N713 1.356 . S
N716 C708 1.363 . S
N716 H722 0.973 1_565 S
N716 H723 0.989 . S
N717 C710 1.356 . S
N717 H720 0.984 . S
N717 H721 0.985 . S
H718 N713 0.984 . S
H719 N713 0.985 . S
H720 N717 0.984 . S
H721 N717 0.985 . S
H722 N716 0.973 1_545 S
H723 N716 0.989 . S
H724 N712 0.973 1_545 S
H725 N712 0.987 . S
C726 C727 1.363 . S
C726 C732 1.379 . S
C726 N734 1.356 . S
C727 C726 1.363 . S
C727 C733 1.363 . S
C728 C729 1.363 . S
C728 C733 1.379 . S
C728 N735 1.356 . S
C729 C728 1.363 . S
C729 C732 1.363 . S
N730 C732 1.356 . S
N730 H742 0.984 . S
N730 H743 0.985 . S
N731 C733 1.356 . S
N731 H736 0.984 . S
N731 H737 0.985 . S
C732 C726 1.379 . S
C732 C729 1.363 . S
C732 N730 1.356 . S
C733 C727 1.363 . S
C733 C728 1.379 . S
C733 N731 1.356 . S
N734 C726 1.356 . S
N734 H740 0.984 . S
N734 H741 0.984 . S
N735 C728 1.356 . S
N735 H738 0.984 . S
N735 H739 0.985 . S
H736 N731 0.984 . S
H737 N731 0.985 . S
H738 N735 0.984 . S
H739 N735 0.985 . S
H740 N734 0.984 . S
H741 N734 0.984 . S
H742 N730 0.984 . S
H743 N730 0.985 . S
C744 C745 1.363 . S
C744 C750 1.379 . S
C744 N752 1.356 . S
C745 C744 1.363 . S
C745 C751 1.363 . S
C746 C747 1.363 . S
C746 C751 1.379 . S
C746 N753 1.356 . S
C747 C746 1.363 . S
C747 C750 1.363 . S
N748 C750 1.356 . S
N748 H760 0.984 . S
N748 H761 0.985 . S
N749 C751 1.356 . S
N749 H754 0.984 . S
N749 H755 0.985 . S
C750 C744 1.379 . S
C750 C747 1.363 . S
C750 N748 1.356 . S
C751 C745 1.363 . S
C751 C746 1.379 . S
C751 N749 1.356 . S
N752 C744 1.356 . S
N752 H758 0.984 . S
N752 H759 0.984 . S
N753 C746 1.356 . S
N753 H756 0.984 . S
N753 H757 0.985 . S
H754 N749 0.984 . S
H755 N749 0.985 . S
H756 N753 0.984 . S
H757 N753 0.985 . S
H758 N752 0.984 . S
H759 N752 0.984 . S
H760 N748 0.984 . S
H761 N748 0.985 . S
C762 C763 1.363 . S
C762 C768 1.379 . S
C762 N770 1.356 1_545 S
C763 C762 1.363 . S
C763 C769 1.363 . S
C764 C765 1.363 . S
C764 C769 1.379 . S
C764 N771 1.356 . S
C765 C764 1.363 . S
C765 C768 1.363 . S
N766 C768 1.356 1_565 S
N766 H778 0.984 . S
N766 H779 0.985 . S
N767 C769 1.356 . S
N767 H772 0.984 . S
N767 H773 0.985 . S
C768 C762 1.379 . S
C768 C765 1.363 . S
C768 N766 1.356 1_545 S
C769 C763 1.363 . S
C769 C764 1.379 . S
C769 N767 1.356 . S
N770 C762 1.356 1_565 S
N770 H776 0.984 . S
N770 H777 0.984 . S
N771 C764 1.356 . S
N771 H774 0.984 . S
N771 H775 0.985 . S
H772 N767 0.984 . S
H773 N767 0.985 . S
H774 N771 0.984 . S
H775 N771 0.985 . S
H776 N770 0.984 . S
H777 N770 0.984 . S
H778 N766 0.984 . S
H779 N766 0.985 . S
C780 C781 1.363 . S
C780 C786 1.379 . S
C780 N788 1.356 . S
C781 C780 1.363 . S
C781 C787 1.363 . S
C782 C783 1.363 . S
C782 C787 1.379 . S
C782 N789 1.356 . S
C783 C782 1.363 . S
C783 C786 1.363 . S
N784 C786 1.356 . S
N784 H796 0.984 . S
N784 H797 0.985 . S
N785 C787 1.356 . S
N785 H790 0.984 . S
N785 H791 0.985 . S
C786 C780 1.379 . S
C786 C783 1.363 . S
C786 N784 1.356 . S
C787 C781 1.363 . S
C787 C782 1.379 . S
C787 N785 1.356 . S
N788 C780 1.356 . S
N788 H794 0.984 . S
N788 H795 0.984 . S
N789 C782 1.356 . S
N789 H792 0.984 . S
N789 H793 0.985 . S
H790 N785 0.984 . S
H791 N785 0.985 . S
H792 N789 0.984 . S
H793 N789 0.985 . S
H794 N788 0.984 . S
H795 N788 0.984 . S
H796 N784 0.984 . S
H797 N784 0.985 . S
C798 C799 1.363 . S
C798 C804 1.379 . S
C798 N806 1.356 . S
C799 C798 1.363 . S
C799 C805 1.363 . S
C800 C801 1.363 . S
C800 C805 1.379 . S
C800 N807 1.356 . S
C801 C800 1.363 . S
C801 C804 1.363 . S
N802 C804 1.356 . S
N802 H814 0.984 . S
N802 H815 0.985 . S
N803 C805 1.356 . S
N803 H808 0.984 . S
N803 H809 0.985 . S
C804 C798 1.379 . S
C804 C801 1.363 . S
C804 N802 1.356 . S
C805 C799 1.363 . S
C805 C800 1.379 . S
C805 N803 1.356 . S
N806 C798 1.356 . S
N806 H812 0.984 . S
N806 H813 0.984 . S
N807 C800 1.356 . S
N807 H810 0.984 . S
N807 H811 0.985 . S
H808 N803 0.984 . S
H809 N803 0.985 . S
H810 N807 0.984 . S
H811 N807 0.985 . S
H812 N806 0.984 . S
H813 N806 0.984 . S
H814 N802 0.984 . S
H815 N802 0.985 . S
C816 C817 1.363 . S
C816 C822 1.379 . S
C816 N824 1.356 . S
C817 C816 1.363 . S
C817 C823 1.363 . S
C818 C819 1.363 . S
C818 C823 1.379 . S
C818 N825 1.356 . S
C819 C818 1.363 . S
C819 C822 1.363 . S
N820 C822 1.356 . S
N820 H832 0.984 . S
N820 H833 0.985 . S
N821 C823 1.356 . S
N821 H826 0.984 . S
N821 H827 0.985 . S
C822 C816 1.379 . S
C822 C819 1.363 . S
C822 N820 1.356 . S
C823 C817 1.363 . S
C823 C818 1.379 . S
C823 N821 1.356 . S
N824 C816 1.356 . S
N824 H830 0.984 . S
N824 H831 0.984 . S
N825 C818 1.356 . S
N825 H828 0.984 . S
N825 H829 0.985 . S
H826 N821 0.984 . S
H827 N821 0.985 . S
H828 N825 0.984 . S
H829 N825 0.985 . S
H830 N824 0.984 . S
H831 N824 0.984 . S
H832 N820 0.984 . S
H833 N820 0.985 . S
C834 C835 1.363 . S
C834 C840 1.379 . S
C834 N842 1.356 . S
C835 C834 1.363 . S
C835 C841 1.363 . S
C836 C837 1.363 . S
C836 C841 1.379 . S
C836 N843 1.356 . S
C837 C836 1.363 . S
C837 C840 1.363 . S
N838 C840 1.356 . S
N838 H850 0.984 . S
N838 H851 0.985 . S
N839 C841 1.356 . S
N839 H844 0.984 . S
N839 H845 0.985 . S
C840 C834 1.379 . S
C840 C837 1.363 . S
C840 N838 1.356 . S
C841 C835 1.363 . S
C841 C836 1.379 . S
C841 N839 1.356 . S
N842 C834 1.356 . S
N842 H848 0.984 . S
N842 H849 0.984 . S
N843 C836 1.356 . S
N843 H846 0.984 . S
N843 H847 0.985 . S
H844 N839 0.984 . S
H845 N839 0.985 . S
H846 N843 0.984 . S
H847 N843 0.985 . S
H848 N842 0.984 . S
H849 N842 0.984 . S
H850 N838 0.984 . S
H851 N838 0.985 . S
C852 C853 1.363 . S
C852 C858 1.379 . S
C852 N860 1.356 . S
C853 C852 1.363 . S
C853 C859 1.363 . S
C854 C855 1.363 . S
C854 C859 1.379 . S
C854 N861 1.356 . S
C855 C854 1.363 . S
C855 C858 1.363 . S
N856 C858 1.356 . S
N856 H868 0.984 . S
N856 H869 0.985 . S
N857 C859 1.356 . S
N857 H862 0.984 . S
N857 H863 0.985 . S
C858 C852 1.379 . S
C858 C855 1.363 . S
C858 N856 1.356 . S
C859 C853 1.363 . S
C859 C854 1.379 . S
C859 N857 1.356 . S
N860 C852 1.356 . S
N860 H866 0.984 . S
N860 H867 0.984 . S
N861 C854 1.356 . S
N861 H864 0.984 . S
N861 H865 0.985 . S
H862 N857 0.984 . S
H863 N857 0.985 . S
H864 N861 0.984 . S
H865 N861 0.985 . S
H866 N860 0.984 . S
H867 N860 0.984 . S
H868 N856 0.984 . S
H869 N856 0.985 . S
C870 C871 1.363 . S
C870 C876 1.379 . S
C870 N878 1.356 . S
C871 C870 1.363 . S
C871 C877 1.363 . S
C872 C873 1.363 . S
C872 C877 1.379 . S
C872 N879 1.356 . S
C873 C872 1.363 . S
C873 C876 1.363 . S
N874 C876 1.356 . S
N874 H886 0.984 . S
N874 H887 0.985 . S
N875 C877 1.356 . S
N875 H880 0.984 . S
N875 H881 0.985 . S
C876 C870 1.379 . S
C876 C873 1.363 . S
C876 N874 1.356 . S
C877 C871 1.363 . S
C877 C872 1.379 . S
C877 N875 1.356 . S
N878 C870 1.356 . S
N878 H884 0.984 . S
N878 H885 0.984 . S
N879 C872 1.356 . S
N879 H882 0.984 . S
N879 H883 0.985 . S
H880 N875 0.984 . S
H881 N875 0.985 . S
H882 N879 0.984 . S
H883 N879 0.985 . S
H884 N878 0.984 . S
H885 N878 0.984 . S
H886 N874 0.984 . S
H887 N874 0.985 . S
C888 C889 1.363 . S
C888 C894 1.379 . S
C888 N896 1.356 . S
C889 C888 1.363 . S
C889 C895 1.363 1_556 S
C890 C891 1.363 . S
C890 C895 1.379 . S
C890 N897 1.356 . S
C891 C890 1.363 . S
C891 C894 1.363 1_554 S
N892 C894 1.356 . S
N892 H904 0.984 . S
N892 H905 0.985 . S
N893 C895 1.356 . S
N893 H898 0.984 . S
N893 H899 0.985 . S
C894 C888 1.379 . S
C894 C891 1.363 1_556 S
C894 N892 1.356 . S
C895 C889 1.363 1_554 S
C895 C890 1.379 . S
C895 N893 1.356 . S
N896 C888 1.356 . S
N896 H902 0.984 . S
N896 H903 0.984 . S
N897 C890 1.356 . S
N897 H900 0.984 . S
N897 H901 0.985 . S
H898 N893 0.984 . S
H899 N893 0.985 . S
H900 N897 0.984 . S
H901 N897 0.985 . S
H902 N896 0.984 . S
H903 N896 0.984 . S
H904 N892 0.984 . S
H905 N892 0.985 . S
C906 C907 1.363 . S
C906 C912 1.379 . S
C906 N914 1.356 . S
C907 C906 1.363 . S
C907 C913 1.363 . S
C908 C909 1.363 . S
C908 C913 1.379 . S
C908 N915 1.356 . S
C909 C908 1.363 . S
C909 C912 1.363 . S
N910 C912 1.357 . S
N910 H922 0.984 1_455 S
N910 H923 0.984 1_455 S
N911 C913 1.356 . S
N911 H916 0.984 . S
N911 H917 0.985 . S
C912 C906 1.379 . S
C912 C909 1.363 . S
C912 N910 1.357 . S
C913 C907 1.363 . S
C913 C908 1.379 . S
C913 N911 1.356 . S
N914 C906 1.356 . S
N914 H920 0.984 . S
N914 H921 0.984 . S
N915 C908 1.356 . S
N915 H918 0.984 . S
N915 H919 0.985 . S
H916 N911 0.984 . S
H917 N911 0.985 . S
H918 N915 0.984 . S
H919 N915 0.985 . S
H920 N914 0.984 . S
H921 N914 0.984 . S
H922 N910 0.984 1_655 S
H923 N910 0.984 1_655 S
C924 C925 1.363 . S
C924 C930 1.379 . S
C924 N932 1.356 . S
C925 C924 1.363 . S
C925 C931 1.363 . S
C926 C927 1.363 . S
C926 C931 1.379 . S
C926 N933 1.356 . S
C927 C926 1.363 . S
C927 C930 1.363 . S
N928 C930 1.351 1_565 S
N928 H940 0.985 . S
N928 H941 0.989 . S
N929 C931 1.356 . S
N929 H934 0.984 . S
N929 H935 0.985 . S
C930 C924 1.379 . S
C930 C927 1.363 . S
C930 N928 1.351 1_545 S
C931 C925 1.363 . S
C931 C926 1.379 . S
C931 N929 1.356 . S
N932 C924 1.356 . S
N932 H938 0.984 . S
N932 H939 0.984 . S
N933 C926 1.356 . S
N933 H936 0.984 . S
N933 H937 0.985 . S
H934 N929 0.984 . S
H935 N929 0.985 . S
H936 N933 0.984 . S
H937 N933 0.985 . S
H938 N932 0.984 . S
H939 N932 0.984 . S
H940 N928 0.985 . S
H941 N928 0.989 . S
C942 C943 1.363 . S
C942 C948 1.379 . S
C942 N950 1.356 . S
C943 C942 1.363 . S
C943 C949 1.363 . S
C944 C945 1.363 . S
C944 C949 1.379 . S
C944 N951 1.356 . S
C945 C944 1.363 . S
C945 C948 1.363 . S
N946 C948 1.356 . S
N946 H958 0.984 . S
N946 H959 0.985 . S
N947 C949 1.356 . S
N947 H952 0.984 . S
N947 H953 0.985 . S
C948 C942 1.379 . S
C948 C945 1.363 . S
C948 N946 1.356 . S
C949 C943 1.363 . S
C949 C944 1.379 . S
C949 N947 1.356 . S
N950 C942 1.356 . S
N950 H956 0.984 . S
N950 H957 0.984 . S
N951 C944 1.356 . S
N951 H954 0.984 . S
N951 H955 0.985 . S
H952 N947 0.984 . S
H953 N947 0.985 . S
H954 N951 0.984 . S
H955 N951 0.985 . S
H956 N950 0.984 . S
H957 N950 0.984 . S
H958 N946 0.984 . S
H959 N946 0.985 . S
C960 C961 1.363 . S
C960 C966 1.379 . S
C960 N968 1.356 . S
C961 C960 1.363 . S
C961 C967 1.363 . S
C962 C963 1.363 . S
C962 C967 1.379 . S
C962 N969 1.356 . S
C963 C962 1.363 . S
C963 C966 1.363 . S
N964 C966 1.356 . S
N964 H976 0.984 . S
N964 H977 0.985 . S
N965 C967 1.356 . S
N965 H970 0.984 . S
N965 H971 0.985 . S
C966 C960 1.379 . S
C966 C963 1.363 . S
C966 N964 1.356 . S
C967 C961 1.363 . S
C967 C962 1.379 . S
C967 N965 1.356 . S
N968 C960 1.356 . S
N968 H974 0.984 . S
N968 H975 0.984 . S
N969 C962 1.356 . S
N969 H972 0.984 . S
N969 H973 0.985 . S
H970 N965 0.984 . S
H971 N965 0.985 . S
H972 N969 0.984 . S
H973 N969 0.985 . S
H974 N968 0.984 . S
H975 N968 0.984 . S
H976 N964 0.984 . S
H977 N964 0.985 . S
C978 C979 1.363 . S
C978 C984 1.379 . S
C978 N986 1.356 . S
C979 C978 1.363 . S
C979 C985 1.363 . S
C980 C981 1.363 . S
C980 C985 1.379 . S
C980 N987 1.356 . S
C981 C980 1.363 . S
C981 C984 1.363 . S
N982 C984 1.356 . S
N982 H994 0.984 1_565 S
N982 H995 0.985 1_565 S
N983 C985 1.356 . S
N983 H988 0.984 . S
N983 H989 0.985 . S
C984 C978 1.379 . S
C984 C981 1.363 . S
C984 N982 1.356 . S
C985 C979 1.363 . S
C985 C980 1.379 . S
C985 N983 1.356 . S
N986 C978 1.356 . S
N986 H992 0.984 . S
N986 H993 0.984 . S
N987 C980 1.356 . S
N987 H990 0.984 . S
N987 H991 0.985 . S
H988 N983 0.984 . S
H989 N983 0.985 . S
H990 N987 0.984 . S
H991 N987 0.985 . S
H992 N986 0.984 . S
H993 N986 0.984 . S
H994 N982 0.984 1_545 S
H995 N982 0.985 1_545 S
C996 C997 1.363 . S
C996 C1002 1.379 . S
C996 N1004 1.356 . S
C997 C996 1.363 . S
C997 C1003 1.363 . S
C998 C999 1.363 . S
C998 C1003 1.379 . S
C998 N1005 1.356 . S
C999 C998 1.363 . S
C999 C1002 1.363 . S
N1000 C1002 1.356 . S
N1000 H1012 0.984 . S
N1000 H1013 0.985 . S
N1001 C1003 1.356 . S
N1001 H1006 0.984 . S
N1001 H1007 0.985 . S
C1002 C996 1.379 . S
C1002 C999 1.363 . S
C1002 N1000 1.356 . S
C1003 C997 1.363 . S
C1003 C998 1.379 . S
C1003 N1001 1.356 . S
N1004 C996 1.356 . S
N1004 H1010 0.984 . S
N1004 H1011 0.984 . S
N1005 C998 1.356 . S
N1005 H1008 0.984 . S
N1005 H1009 0.985 . S
H1006 N1001 0.984 . S
H1007 N1001 0.985 . S
H1008 N1005 0.984 . S
H1009 N1005 0.985 . S
H1010 N1004 0.984 . S
H1011 N1004 0.984 . S
H1012 N1000 0.984 . S
H1013 N1000 0.985 . S
C1014 C1015 1.363 . S
C1014 C1020 1.379 . S
C1014 N1022 1.356 . S
C1015 C1014 1.363 . S
C1015 C1021 1.363 1_556 S
C1016 C1017 1.363 . S
C1016 C1021 1.379 . S
C1016 N1023 1.356 . S
C1017 C1016 1.363 . S
C1017 C1020 1.363 1_554 S
N1018 C1020 1.356 . S
N1018 H1030 0.984 . S
N1018 H1031 0.985 1_556 S
N1019 C1021 1.356 1_655 S
N1019 H1024 0.984 1_554 S
N1019 H1025 0.985 . S
C1020 C1014 1.379 . S
C1020 C1017 1.363 1_556 S
C1020 N1018 1.356 . S
C1021 C1015 1.363 1_554 S
C1021 C1016 1.379 . S
C1021 N1019 1.356 1_455 S
N1022 C1014 1.356 . S
N1022 H1028 0.984 . S
N1022 H1029 0.984 . S
N1023 C1016 1.356 . S
N1023 H1026 0.984 . S
N1023 H1027 0.985 . S
H1024 N1019 0.984 1_556 S
H1025 N1019 0.985 . S
H1026 N1023 0.984 . S
H1027 N1023 0.985 . S
H1028 N1022 0.984 . S
H1029 N1022 0.984 . S
H1030 N1018 0.984 . S
H1031 N1018 0.985 1_554 S
C1032 C1033 1.363 . S
C1032 C1038 1.379 . S
C1032 N1040 1.356 . S
C1033 C1032 1.363 . S
C1033 C1039 1.363 . S
C1034 C1035 1.363 . S
C1034 C1039 1.379 . S
C1034 N1041 1.356 . S
C1035 C1034 1.363 . S
C1035 C1038 1.363 . S
N1036 C1038 1.352 1_565 S
N1036 H1048 0.989 . S
N1036 H1049 0.985 . S
N1037 C1039 1.356 . S
N1037 H1042 0.984 . S
N1037 H1043 0.985 . S
C1038 C1032 1.379 . S
C1038 C1035 1.363 . S
C1038 N1036 1.352 1_545 S
C1039 C1033 1.363 . S
C1039 C1034 1.379 . S
C1039 N1037 1.356 . S
N1040 C1032 1.356 . S
N1040 H1046 0.984 . S
N1040 H1047 0.984 . S
N1041 C1034 1.356 . S
N1041 H1044 0.984 . S
N1041 H1045 0.985 . S
H1042 N1037 0.984 . S
H1043 N1037 0.985 . S
H1044 N1041 0.984 . S
H1045 N1041 0.985 . S
H1046 N1040 0.984 . S
H1047 N1040 0.984 . S
H1048 N1036 0.989 . S
H1049 N1036 0.985 . S
C1050 C1051 1.363 . S
C1050 C1056 1.379 . S
C1050 N1058 1.356 . S
C1051 C1050 1.363 . S
C1051 C1057 1.363 . S
C1052 C1053 1.363 . S
C1052 C1057 1.379 . S
C1052 N1059 1.356 . S
C1053 C1052 1.363 . S
C1053 C1056 1.363 . S
N1054 C1056 1.356 . S
N1054 H1066 0.984 . S
N1054 H1067 0.985 . S
N1055 C1057 1.356 . S
N1055 H1060 0.984 . S
N1055 H1061 0.985 . S
C1056 C1050 1.379 . S
C1056 C1053 1.363 . S
C1056 N1054 1.356 . S
C1057 C1051 1.363 . S
C1057 C1052 1.379 . S
C1057 N1055 1.356 . S
N1058 C1050 1.356 . S
N1058 H1064 0.984 . S
N1058 H1065 0.984 . S
N1059 C1052 1.356 . S
N1059 H1062 0.984 . S
N1059 H1063 0.985 . S
H1060 N1055 0.984 . S
H1061 N1055 0.985 . S
H1062 N1059 0.984 . S
H1063 N1059 0.985 . S
H1064 N1058 0.984 . S
H1065 N1058 0.984 . S
H1066 N1054 0.984 . S
H1067 N1054 0.985 . S
C1068 C1069 1.363 . S
C1068 C1074 1.379 . S
C1068 N1076 1.356 . S
C1069 C1068 1.363 . S
C1069 C1075 1.363 . S
C1070 C1071 1.363 . S
C1070 C1075 1.379 . S
C1070 N1077 1.356 . S
C1071 C1070 1.363 . S
C1071 C1074 1.363 . S
N1072 C1074 1.356 . S
N1072 H1084 0.984 . S
N1072 H1085 0.985 . S
N1073 C1075 1.357 . S
N1073 H1078 0.983 1_655 S
N1073 H1079 0.984 1_655 S
C1074 C1068 1.379 . S
C1074 C1071 1.363 . S
C1074 N1072 1.356 . S
C1075 C1069 1.363 . S
C1075 C1070 1.379 . S
C1075 N1073 1.357 . S
N1076 C1068 1.356 . S
N1076 H1082 0.984 . S
N1076 H1083 0.984 . S
N1077 C1070 1.356 . S
N1077 H1080 0.984 . S
N1077 H1081 0.985 . S
H1078 N1073 0.983 1_455 S
H1079 N1073 0.984 1_455 S
H1080 N1077 0.984 . S
H1081 N1077 0.985 . S
H1082 N1076 0.984 . S
H1083 N1076 0.984 . S
H1084 N1072 0.984 . S
H1085 N1072 0.985 . S
C1086 C1087 1.363 . S
C1086 C1092 1.379 . S
C1086 N1094 1.356 . S
C1087 C1086 1.363 . S
C1087 C1093 1.363 . S
C1088 C1089 1.363 . S
C1088 C1093 1.379 . S
C1088 N1095 1.356 . S
C1089 C1088 1.363 . S
C1089 C1092 1.363 . S
N1090 C1092 1.356 . S
N1090 H1102 0.984 . S
N1090 H1103 0.985 1_565 S
N1091 C1093 1.356 . S
N1091 H1096 0.984 . S
N1091 H1097 0.985 . S
C1092 C1086 1.379 . S
C1092 C1089 1.363 . S
C1092 N1090 1.356 . S
C1093 C1087 1.363 . S
C1093 C1088 1.379 . S
C1093 N1091 1.356 . S
N1094 C1086 1.356 . S
N1094 H1100 0.984 . S
N1094 H1101 0.984 . S
N1095 C1088 1.356 . S
N1095 H1098 0.984 . S
N1095 H1099 0.985 . S
H1096 N1091 0.984 . S
H1097 N1091 0.985 . S
H1098 N1095 0.984 . S
H1099 N1095 0.985 . S
H1100 N1094 0.984 . S
H1101 N1094 0.984 . S
H1102 N1090 0.984 . S
H1103 N1090 0.985 1_545 S
C349 C21 1.395 . S
C351 C253 1.395 . S
C367 C50 1.395 . S
C369 C282 1.395 . S
C385 C311 1.395 . S
C387 C79 1.395 . S
C403 C108 1.395 . S
C405 C340 1.395 . S
C421 C137 1.395 . S
C423 C195 1.395 . S
C439 C166 1.395 . S
C441 C224 1.395 . S
C457 C148 0.811 . S
C459 C15 0.805 . S
C475 C44 0.805 . S
C477 C3 0.811 . S
C493 C73 0.805 . S
C495 C32 0.811 . S
C511 C61 0.811 . S
C513 C102 0.805 . S
C529 C90 0.811 . S
C531 C131 0.805 . S
C547 C119 0.811 . S
C549 C160 0.805 . S
C565 C189 0.805 . S
C567 C206 0.811 . S
C583 C235 0.811 . S
C585 C218 0.805 . S
C601 C264 0.811 . S
C603 C247 0.805 . S
C619 C293 0.811 . S
C621 C276 0.805 . S
C637 C322 0.811 . S
C639 C305 0.805 . S
C655 C334 0.805 . S
C657 C177 0.811 . S
C673 C8 0.838 . S
C675 C182 0.838 . S
C691 C37 0.838 . S
C693 C211 0.838 . S
C709 C240 0.838 . S
C711 C66 0.838 . S
C727 C269 0.838 . S
C729 C95 0.838 . S
C745 C124 0.838 . S
C747 C298 0.838 . S
C763 C153 0.838 . S
C765 C327 0.838 . S
C781 C245 1.947 . S
C783 C13 1.947 . S
C799 C274 1.947 . S
C801 C42 1.947 . S
C817 C303 1.947 . S
C819 C71 1.947 . S
C835 C100 1.947 . S
C837 C332 1.947 . S
C853 C187 1.947 . S
C855 C129 1.947 . S
C871 C216 1.947 . S
C873 C158 1.947 . S
C889 C208 3.125 . S
C891 C10 3.266 . S
C907 C237 3.125 . S
C909 C39 3.266 1_455 S
C925 C266 3.126 . S
C927 C68 3.267 1_545 S
C943 C295 3.126 . S
C945 C97 3.267 . S
C961 C324 3.125 . S
C963 C126 3.266 1_655 S
C979 C179 3.125 . S
C981 C155 3.266 1_565 S
C997 C184 3.267 . S
C999 C150 3.126 . S
C1015 C213 3.267 1_455 S
C1017 C5 3.126 . S
C1033 C34 3.125 . S
C1035 C242 3.266 1_545 S
C1051 C63 3.125 . S
C1053 C271 3.266 . S
C1069 C300 3.266 1_655 S
C1071 C92 3.125 . S
C1087 C121 3.125 . S
C1089 C329 3.266 1_565 S
