# Generated by pormake.
# Topology vcb, (5)-cn, num edge types: 1
# Building blocks:
#     Node 0, Type 0, BuildingBlock: XOMCOT_clean_sbu_1, # of connection points: 5
#     Node 1, Type 0, BuildingBlock: XOMCOT_clean_sbu_1, # of connection points: 5
#     Node 2, Type 0, BuildingBlock: XOMCOT_clean_sbu_1, # of connection points: 5
#     Node 3, Type 0, BuildingBlock: XOMCOT_clean_sbu_1, # of connection points: 5
#     Node 4, Type 0, BuildingBlock: XOMCOT_clean_sbu_1, # of connection points: 5
#     Node 5, Type 0, BuildingBlock: XOMCOT_clean_sbu_1, # of connection points: 5
#     Node 6, Type 0, BuildingBlock: XOMCOT_clean_sbu_1, # of connection points: 5
#     Node 7, Type 0, BuildingBlock: XOMCOT_clean_sbu_1, # of connection points: 5
#     Node 8, Type 0, BuildingBlock: XOMCOT_clean_sbu_1, # of connection points: 5
#     Node 9, Type 0, BuildingBlock: XOMCOT_clean_sbu_1, # of connection points: 5
#     Node 10, Type 0, BuildingBlock: XOMCOT_clean_sbu_1, # of connection points: 5
#     Node 11, Type 0, BuildingBlock: XOMCOT_clean_sbu_1, # of connection points: 5
#     Node 12, Type 0, BuildingBlock: XOMCOT_clean_sbu_1, # of connection points: 5
#     Node 13, Type 0, BuildingBlock: XOMCOT_clean_sbu_1, # of connection points: 5
#     Node 14, Type 0, BuildingBlock: XOMCOT_clean_sbu_1, # of connection points: 5
#     Node 15, Type 0, BuildingBlock: XOMCOT_clean_sbu_1, # of connection points: 5
#     Node 16, Type 0, BuildingBlock: XOMCOT_clean_sbu_1, # of connection points: 5
#     Node 17, Type 0, BuildingBlock: XOMCOT_clean_sbu_1, # of connection points: 5
#     Node 18, Type 0, BuildingBlock: XOMCOT_clean_sbu_1, # of connection points: 5
#     Node 19, Type 0, BuildingBlock: XOMCOT_clean_sbu_1, # of connection points: 5
#     Node 20, Type 0, BuildingBlock: XOMCOT_clean_sbu_1, # of connection points: 5
#     Node 21, Type 0, BuildingBlock: XOMCOT_clean_sbu_1, # of connection points: 5
#     Node 22, Type 0, BuildingBlock: XOMCOT_clean_sbu_1, # of connection points: 5
#     Node 23, Type 0, BuildingBlock: XOMCOT_clean_sbu_1, # of connection points: 5
#     Node 24, Type 0, BuildingBlock: XOMCOT_clean_sbu_1, # of connection points: 5
#     Node 25, Type 0, BuildingBlock: XOMCOT_clean_sbu_1, # of connection points: 5
#     Node 26, Type 0, BuildingBlock: XOMCOT_clean_sbu_1, # of connection points: 5
#     Node 27, Type 0, BuildingBlock: XOMCOT_clean_sbu_1, # of connection points: 5
#     Node 28, Type 0, BuildingBlock: XOMCOT_clean_sbu_1, # of connection points: 5
#     Node 29, Type 0, BuildingBlock: XOMCOT_clean_sbu_1, # of connection points: 5
#     Node 30, Type 0, BuildingBlock: XOMCOT_clean_sbu_1, # of connection points: 5
#     Node 31, Type 0, BuildingBlock: XOMCOT_clean_sbu_1, # of connection points: 5
#     Edge 32, Type (0, 0), BuildingBlock: UVAHIK_clean_linker_0, # of connection points: 2
#     Edge 33, Type (0, 0), BuildingBlock: UVAHIK_clean_linker_0, # of connection points: 2
#     Edge 34, Type (0, 0), BuildingBlock: UVAHIK_clean_linker_0, # of connection points: 2
#     Edge 35, Type (0, 0), BuildingBlock: UVAHIK_clean_linker_0, # of connection points: 2
#     Edge 36, Type (0, 0), BuildingBlock: UVAHIK_clean_linker_0, # of connection points: 2
#     Edge 37, Type (0, 0), BuildingBlock: UVAHIK_clean_linker_0, # of connection points: 2
#     Edge 38, Type (0, 0), BuildingBlock: UVAHIK_clean_linker_0, # of connection points: 2
#     Edge 39, Type (0, 0), BuildingBlock: UVAHIK_clean_linker_0, # of connection points: 2
#     Edge 40, Type (0, 0), BuildingBlock: UVAHIK_clean_linker_0, # of connection points: 2
#     Edge 41, Type (0, 0), BuildingBlock: UVAHIK_clean_linker_0, # of connection points: 2
#     Edge 42, Type (0, 0), BuildingBlock: UVAHIK_clean_linker_0, # of connection points: 2
#     Edge 43, Type (0, 0), BuildingBlock: UVAHIK_clean_linker_0, # of connection points: 2
#     Edge 44, Type (0, 0), BuildingBlock: UVAHIK_clean_linker_0, # of connection points: 2
#     Edge 45, Type (0, 0), BuildingBlock: UVAHIK_clean_linker_0, # of connection points: 2
#     Edge 46, Type (0, 0), BuildingBlock: UVAHIK_clean_linker_0, # of connection points: 2
#     Edge 47, Type (0, 0), BuildingBlock: UVAHIK_clean_linker_0, # of connection points: 2
#     Edge 48, Type (0, 0), BuildingBlock: UVAHIK_clean_linker_0, # of connection points: 2
#     Edge 49, Type (0, 0), BuildingBlock: UVAHIK_clean_linker_0, # of connection points: 2
#     Edge 50, Type (0, 0), BuildingBlock: UVAHIK_clean_linker_0, # of connection points: 2
#     Edge 51, Type (0, 0), BuildingBlock: UVAHIK_clean_linker_0, # of connection points: 2
#     Edge 52, Type (0, 0), BuildingBlock: UVAHIK_clean_linker_0, # of connection points: 2
#     Edge 53, Type (0, 0), BuildingBlock: UVAHIK_clean_linker_0, # of connection points: 2
#     Edge 54, Type (0, 0), BuildingBlock: UVAHIK_clean_linker_0, # of connection points: 2
#     Edge 55, Type (0, 0), BuildingBlock: UVAHIK_clean_linker_0, # of connection points: 2
#     Edge 56, Type (0, 0), BuildingBlock: UVAHIK_clean_linker_0, # of connection points: 2
#     Edge 57, Type (0, 0), BuildingBlock: UVAHIK_clean_linker_0, # of connection points: 2
#     Edge 58, Type (0, 0), BuildingBlock: UVAHIK_clean_linker_0, # of connection points: 2
#     Edge 59, Type (0, 0), BuildingBlock: UVAHIK_clean_linker_0, # of connection points: 2
#     Edge 60, Type (0, 0), BuildingBlock: UVAHIK_clean_linker_0, # of connection points: 2
#     Edge 61, Type (0, 0), BuildingBlock: UVAHIK_clean_linker_0, # of connection points: 2
#     Edge 62, Type (0, 0), BuildingBlock: UVAHIK_clean_linker_0, # of connection points: 2
#     Edge 63, Type (0, 0), BuildingBlock: UVAHIK_clean_linker_0, # of connection points: 2
#     Edge 64, Type (0, 0), BuildingBlock: UVAHIK_clean_linker_0, # of connection points: 2
#     Edge 65, Type (0, 0), BuildingBlock: UVAHIK_clean_linker_0, # of connection points: 2
#     Edge 66, Type (0, 0), BuildingBlock: UVAHIK_clean_linker_0, # of connection points: 2
#     Edge 67, Type (0, 0), BuildingBlock: UVAHIK_clean_linker_0, # of connection points: 2
#     Edge 68, Type (0, 0), BuildingBlock: UVAHIK_clean_linker_0, # of connection points: 2
#     Edge 69, Type (0, 0), BuildingBlock: UVAHIK_clean_linker_0, # of connection points: 2
#     Edge 70, Type (0, 0), BuildingBlock: UVAHIK_clean_linker_0, # of connection points: 2
#     Edge 71, Type (0, 0), BuildingBlock: UVAHIK_clean_linker_0, # of connection points: 2
#     Edge 72, Type (0, 0), BuildingBlock: UVAHIK_clean_linker_0, # of connection points: 2
#     Edge 73, Type (0, 0), BuildingBlock: UVAHIK_clean_linker_0, # of connection points: 2
#     Edge 74, Type (0, 0), BuildingBlock: UVAHIK_clean_linker_0, # of connection points: 2
#     Edge 75, Type (0, 0), BuildingBlock: UVAHIK_clean_linker_0, # of connection points: 2
#     Edge 76, Type (0, 0), BuildingBlock: UVAHIK_clean_linker_0, # of connection points: 2
#     Edge 77, Type (0, 0), BuildingBlock: UVAHIK_clean_linker_0, # of connection points: 2
#     Edge 78, Type (0, 0), BuildingBlock: UVAHIK_clean_linker_0, # of connection points: 2
#     Edge 79, Type (0, 0), BuildingBlock: UVAHIK_clean_linker_0, # of connection points: 2
#     Edge 80, Type (0, 0), BuildingBlock: UVAHIK_clean_linker_0, # of connection points: 2
#     Edge 81, Type (0, 0), BuildingBlock: UVAHIK_clean_linker_0, # of connection points: 2
#     Edge 82, Type (0, 0), BuildingBlock: UVAHIK_clean_linker_0, # of connection points: 2
#     Edge 83, Type (0, 0), BuildingBlock: UVAHIK_clean_linker_0, # of connection points: 2
#     Edge 84, Type (0, 0), BuildingBlock: UVAHIK_clean_linker_0, # of connection points: 2
#     Edge 85, Type (0, 0), BuildingBlock: UVAHIK_clean_linker_0, # of connection points: 2
#     Edge 86, Type (0, 0), BuildingBlock: UVAHIK_clean_linker_0, # of connection points: 2
#     Edge 87, Type (0, 0), BuildingBlock: UVAHIK_clean_linker_0, # of connection points: 2
#     Edge 88, Type (0, 0), BuildingBlock: UVAHIK_clean_linker_0, # of connection points: 2
#     Edge 89, Type (0, 0), BuildingBlock: UVAHIK_clean_linker_0, # of connection points: 2
#     Edge 90, Type (0, 0), BuildingBlock: UVAHIK_clean_linker_0, # of connection points: 2
#     Edge 91, Type (0, 0), BuildingBlock: UVAHIK_clean_linker_0, # of connection points: 2
#     Edge 92, Type (0, 0), BuildingBlock: UVAHIK_clean_linker_0, # of connection points: 2
#     Edge 93, Type (0, 0), BuildingBlock: UVAHIK_clean_linker_0, # of connection points: 2
#     Edge 94, Type (0, 0), BuildingBlock: UVAHIK_clean_linker_0, # of connection points: 2
#     Edge 95, Type (0, 0), BuildingBlock: UVAHIK_clean_linker_0, # of connection points: 2
#     Edge 96, Type (0, 0), BuildingBlock: UVAHIK_clean_linker_0, # of connection points: 2
#     Edge 97, Type (0, 0), BuildingBlock: UVAHIK_clean_linker_0, # of connection points: 2
#     Edge 98, Type (0, 0), BuildingBlock: UVAHIK_clean_linker_0, # of connection points: 2
#     Edge 99, Type (0, 0), BuildingBlock: UVAHIK_clean_linker_0, # of connection points: 2
#     Edge 100, Type (0, 0), BuildingBlock: UVAHIK_clean_linker_0, # of connection points: 2
#     Edge 101, Type (0, 0), BuildingBlock: UVAHIK_clean_linker_0, # of connection points: 2
#     Edge 102, Type (0, 0), BuildingBlock: UVAHIK_clean_linker_0, # of connection points: 2
#     Edge 103, Type (0, 0), BuildingBlock: UVAHIK_clean_linker_0, # of connection points: 2
#     Edge 104, Type (0, 0), BuildingBlock: UVAHIK_clean_linker_0, # of connection points: 2
#     Edge 105, Type (0, 0), BuildingBlock: UVAHIK_clean_linker_0, # of connection points: 2
#     Edge 106, Type (0, 0), BuildingBlock: UVAHIK_clean_linker_0, # of connection points: 2
#     Edge 107, Type (0, 0), BuildingBlock: UVAHIK_clean_linker_0, # of connection points: 2
#     Edge 108, Type (0, 0), BuildingBlock: UVAHIK_clean_linker_0, # of connection points: 2
#     Edge 109, Type (0, 0), BuildingBlock: UVAHIK_clean_linker_0, # of connection points: 2
#     Edge 110, Type (0, 0), BuildingBlock: UVAHIK_clean_linker_0, # of connection points: 2
#     Edge 111, Type (0, 0), BuildingBlock: UVAHIK_clean_linker_0, # of connection points: 2
# Relax obj value: 0.117
# Max RMSD: 0.140
# Mean RMSD: 0.139
data_MOF--net-vcb--node1-XOMCOT_clean_sbu_1--edge1-UVAHIK_clean_linker_0
_symmetry_space_group_name_H-M    P1
_symmetry_Int_Tables_number       1
_symmetry_cell_setting            triclinic
loop_
_symmetry_equiv_pos_as_xyz
'x, y, z'
_cell_length_a     85.077487
_cell_length_b     118.61786
_cell_length_c     34.446731
_cell_angle_alpha  90.022348
_cell_angle_beta   90.039751
_cell_angle_gamma 89.978436
loop_
_atom_site_label
_atom_site_type_symbol
_atom_site_fract_x
_atom_site_fract_y
_atom_site_fract_z
_atom_type_partial_charge
C0 C 0.99576 0.07368 0.33664 0.0
C1 C 0.98003 0.07144 0.33152 0.0
N2 N 0.97168 0.07966 0.34899 0.0
N3 N 0.99738 0.08326 0.3573 0.0
C4 C 0.9825 0.08677 0.36411 0.0
H5 H 1.00544 0.06845 0.32711 0.0
Co6 Co 1.01649 0.0889 0.37587 0.0
C7 C 1.00625 0.10785 0.42396 0.0
O8 O 1.01454 0.11475 0.40228 0.0
N9 N 0.03567 0.09451 0.3952 0.0
C10 C 0.05369 0.10003 0.43791 0.0
C11 C 0.03922 0.09514 0.43338 0.0
C12 C 0.04836 0.09893 0.377 0.0
N13 N 0.05944 0.10244 0.40251 0.0
O14 O 1.01529 0.10085 0.33913 0.0
H15 H 0.03164 0.09234 0.45664 0.0
H16 H 0.04933 0.09983 0.34584 0.0
O17 O 1.0056 0.09742 0.41529 0.0
C18 C 0.01986 0.09678 0.30683 0.0
O19 O 0.02503 0.08634 0.306 0.0
N20 N 1.01806 0.07654 0.40849 0.0
C21 C 0.01956 0.0552 0.44133 0.0
C22 C 1.00762 0.06275 0.45215 0.0
C23 C 1.00703 0.07344 0.43517 0.0
C24 C 0.0301 0.06951 0.39897 0.0
C25 C 0.03118 0.05885 0.4154 0.0
H26 H 0.99719 0.07889 0.44153 0.0
H27 H 0.03849 0.07204 0.37705 0.0
H28 H 0.97961 0.09409 0.3814 0.0
H29 H 0.97514 0.06421 0.31664 0.0
H30 H 0.05957 0.10167 0.46522 0.0
H31 H 0.9983 0.0602 0.47164 0.0
H32 H 0.0407 0.05334 0.40667 0.0
C33 C 0.28293 0.15658 0.30788 0.0
C34 C 0.29895 0.15618 0.30369 0.0
N35 N 0.30534 0.15345 0.33822 0.0
N36 N 0.27913 0.1541 0.34484 0.0
C37 C 0.29305 0.1521 0.36269 0.0
H38 H 0.27458 0.15902 0.28574 0.0
Co39 Co 0.25863 0.15567 0.36273 0.0
C40 C 0.25814 0.14762 0.44314 0.0
O41 O 0.24934 0.1564 0.45146 0.0
N42 N 0.23729 0.15733 0.37958 0.0
C43 C 0.21391 0.16408 0.39753 0.0
C44 C 0.2294 0.16669 0.39088 0.0
C45 C 0.22615 0.14914 0.37996 0.0
N46 N 0.21184 0.15304 0.39033 0.0
O47 O 0.25297 0.14281 0.33268 0.0
H48 H 0.23429 0.17501 0.39406 0.0
H49 H 0.22843 0.14044 0.37234 0.0
O50 O 0.26314 0.14618 0.4084 0.0
C51 C 0.24592 0.1459 0.30178 0.0
O52 O 0.24179 0.15654 0.29835 0.0
N53 N 0.26482 0.16901 0.38722 0.0
C54 C 0.27601 0.19041 0.40594 0.0
C55 C 0.28011 0.18103 0.42861 0.0
C56 C 0.27465 0.17034 0.4183 0.0
C57 C 0.26139 0.17795 0.36393 0.0
C58 C 0.26653 0.18874 0.37317 0.0
H59 H 0.27897 0.16318 0.43435 0.0
H60 H 0.25451 0.17663 0.33789 0.0
H61 H 0.29424 0.15037 0.39338 0.0
H62 H 0.30544 0.15809 0.27749 0.0
H63 H 0.20476 0.16997 0.40563 0.0
H64 H 0.28792 0.18188 0.45328 0.0
H65 H 0.26306 0.19571 0.35474 0.0
C66 C 1.0105 0.16765 0.90237 0.0
C67 C 0.99478 0.16973 0.90851 0.0
N68 N 0.98637 0.16166 0.89035 0.0
N69 N 1.01206 0.15831 0.88046 0.0
C70 C 0.99716 0.1548 0.87382 0.0
H71 H 0.02018 0.17283 0.91216 0.0
Co72 Co 0.03119 0.15309 0.86072 0.0
C73 C 0.02187 0.1326 0.81864 0.0
O74 O 0.03236 0.12659 0.83756 0.0
N75 N 0.05051 0.14797 0.84042 0.0
C76 C 0.06907 0.14358 0.79751 0.0
C77 C 0.05376 0.14697 0.80219 0.0
C78 C 0.06409 0.14505 0.85843 0.0
N79 N 0.07558 0.14237 0.83288 0.0
O80 O 0.03184 0.1421 0.90083 0.0
H81 H 0.04551 0.14868 0.77902 0.0
H82 H 0.06567 0.14511 0.88957 0.0
O83 O 0.02026 0.14303 0.82622 0.0
C84 C 0.03745 0.14668 0.93127 0.0
O85 O 0.04308 0.15697 0.92854 0.0
N86 N 0.03067 0.16455 0.82414 0.0
C87 C 0.02862 0.18475 0.78375 0.0
C88 C 1.018 0.17597 0.77614 0.0
C89 C 1.01917 0.1659 0.79688 0.0
C90 C 0.04148 0.17277 0.83073 0.0
C91 C 0.04074 0.18294 0.81066 0.0
H92 H 1.0103 0.15952 0.79254 0.0
H93 H 0.05022 0.17164 0.85323 0.0
H94 H 0.99421 0.14766 0.8557 0.0
H95 H 0.98994 0.17675 0.92461 0.0
H96 H 0.07491 0.14199 0.77013 0.0
H97 H 1.0085 0.17704 0.75553 0.0
H98 H 0.04899 0.18955 0.81801 0.0
C99 C 0.29998 0.07467 0.90992 0.0
C100 C 0.3159 0.07469 0.90423 0.0
N101 N 0.31897 0.08052 0.87167 0.0
N102 N 0.2929 0.08042 0.88102 0.0
C103 C 0.30484 0.08398 0.85804 0.0
H104 H 0.29387 0.07027 0.93286 0.0
Co105 Co 0.271 0.08052 0.87712 0.0
C106 C 0.26333 0.08616 0.79655 0.0
O107 O 0.2526 0.0782 0.79795 0.0
N108 N 0.24855 0.08058 0.87516 0.0
C109 C 0.22324 0.07624 0.88266 0.0
C110 C 0.2383 0.07215 0.88285 0.0
C111 C 0.23919 0.08977 0.87041 0.0
N112 N 0.22377 0.08734 0.87505 0.0
O113 O 0.27032 0.09456 0.90381 0.0
H114 H 0.24121 0.06354 0.88942 0.0
H115 H 0.24365 0.09817 0.86508 0.0
O116 O 0.27189 0.08814 0.82638 0.0
C117 C 0.26932 0.09193 0.93956 0.0
O118 O 0.26842 0.08123 0.94904 0.0
N119 N 0.27234 0.06611 0.85515 0.0
C120 C 0.27599 0.04349 0.8362 0.0
C121 C 0.28037 0.05188 0.80972 0.0
C122 C 0.27875 0.06322 0.82012 0.0
C123 C 0.26963 0.05802 0.88233 0.0
C124 C 0.27088 0.04665 0.87317 0.0
H125 H 0.28311 0.06957 0.80046 0.0
H126 H 0.26639 0.06044 0.91152 0.0
H127 H 0.30322 0.08846 0.83096 0.0
H128 H 0.32459 0.07047 0.92206 0.0
H129 H 0.21267 0.07142 0.88818 0.0
H130 H 0.28499 0.04971 0.7814 0.0
H131 H 0.26814 0.0404 0.89505 0.0
C132 C 0.04151 0.92035 0.65724 0.0
C133 C 0.05719 0.92258 0.66329 0.0
N134 N 0.06569 0.91432 0.64644 0.0
N135 N 0.04012 0.91076 0.63654 0.0
C136 C 0.05502 0.90723 0.63072 0.0
H137 H 0.03173 0.92553 0.66642 0.0
Co138 Co 0.02134 0.90476 0.61782 0.0
C139 C 0.03363 0.88673 0.56724 0.0
O140 O 0.02717 0.879 0.58936 0.0
N141 N 1.00248 0.89881 0.59858 0.0
C142 C 0.98378 0.89433 0.55633 0.0
C143 C 0.99901 0.89786 0.56046 0.0
C144 C 0.98912 0.89578 0.61716 0.0
N145 N 0.97753 0.89307 0.59194 0.0
O146 O 0.02353 0.89246 0.65288 0.0
H147 H 1.00688 0.90002 0.53697 0.0
H148 H 0.98766 0.89606 0.64834 0.0
O149 O 0.03254 0.89709 0.57664 0.0
C150 C 1.01893 0.89606 0.68581 0.0
O151 O 1.01294 0.90627 0.68785 0.0
N152 N 1.01874 0.91742 0.58688 0.0
C153 C 1.01519 0.93871 0.55447 0.0
C154 C 0.02793 0.93183 0.5439 0.0
C155 C 0.02956 0.92119 0.56072 0.0
C156 C 1.00607 0.92384 0.59659 0.0
C157 C 1.00397 0.93447 0.58039 0.0
H158 H 0.03998 0.91632 0.5546 0.0
H159 H 0.99788 0.92085 0.61827 0.0
H160 H 0.05804 0.89983 0.61395 0.0
H161 H 0.06195 0.92979 0.67855 0.0
H162 H 0.97767 0.89298 0.52915 0.0
H163 H 0.03702 0.93489 0.52462 0.0
H164 H 0.99391 0.93947 0.58909 0.0
C165 C 0.75809 0.82312 0.63725 0.0
C166 C 0.74267 0.82001 0.64272 0.0
N167 N 0.73334 0.82839 0.6296 0.0
N168 N 0.75853 0.83341 0.62078 0.0
C169 C 0.7433 0.83643 0.61668 0.0
H170 H 0.76836 0.81814 0.6442 0.0
Co171 Co 0.77666 0.84094 0.60529 0.0
C172 C 0.76372 0.86133 0.56811 0.0
O173 O 0.77227 0.86792 0.59038 0.0
N174 N 0.79493 0.84842 0.58923 0.0
C175 C 0.81232 0.85663 0.55046 0.0
C176 C 0.79793 0.85151 0.55225 0.0
C177 C 0.80786 0.85159 0.60936 0.0
N178 N 0.81859 0.85672 0.58637 0.0
O179 O 0.77449 0.85084 0.64838 0.0
H180 H 0.79016 0.85005 0.5279 0.0
H181 H 0.80938 0.85021 0.64017 0.0
O182 O 0.76435 0.85068 0.57245 0.0
C183 C 0.77978 0.84605 0.67879 0.0
O184 O 0.78646 0.83611 0.67525 0.0
N185 N 0.77916 0.83061 0.56536 0.0
C186 C 0.78387 0.81277 0.51423 0.0
C187 C 0.77172 0.82058 0.5079 0.0
C188 C 0.76943 0.8294 0.53413 0.0
C189 C 0.79122 0.8233 0.57154 0.0
C190 C 0.79381 0.81432 0.54633 0.0
H191 H 0.75957 0.83498 0.52985 0.0
H192 H 0.79856 0.82428 0.59698 0.0
H193 H 0.73955 0.84423 0.60339 0.0
H194 H 0.73869 0.81216 0.65528 0.0
H195 H 0.81791 0.8598 0.52446 0.0
H196 H 0.7638 0.81974 0.48344 0.0
H197 H 0.80309 0.80838 0.55304 0.0
C198 C 0.03077 0.81932 0.09843 0.0
C199 C 0.0463 0.81646 0.09286 0.0
N200 N 0.05534 0.82515 0.1047 0.0
N201 N 0.03 0.82974 0.11392 0.0
C202 C 0.04513 0.83311 0.11703 0.0
H203 H 0.02067 0.81407 0.09231 0.0
Co204 Co 1.01175 0.83725 0.12944 0.0
C205 C 0.02635 0.85615 0.17266 0.0
O206 O 0.02111 0.86354 0.1474 0.0
N207 N 0.9935 0.84486 0.14558 0.0
C208 C 0.9762 0.8529 0.18511 0.0
C209 C 0.99031 0.8474 0.18297 0.0
C210 C 0.98091 0.84875 0.1255 0.0
N211 N 0.97026 0.85379 0.14901 0.0
O212 O 1.01524 0.8481 0.08969 0.0
H213 H 0.99775 0.84527 0.20738 0.0
H214 H 0.97961 0.84799 0.09436 0.0
O215 O 0.02369 0.84568 0.16747 0.0
C216 C 1.01027 0.8437 0.05825 0.0
O217 O 1.00314 0.83388 0.06015 0.0
N218 N 1.00785 0.82592 0.16538 0.0
C219 C 1.00197 0.80644 0.20763 0.0
C220 C 1.0153 0.813 0.21553 0.0
C221 C 1.01815 0.82269 0.19364 0.0
C222 C 0.99463 0.81981 0.15803 0.0
C223 C 0.99142 0.81004 0.17897 0.0
H224 H 0.02906 0.82717 0.1978 0.0
H225 H 0.98687 0.82231 0.1347 0.0
H226 H 0.04862 0.84112 0.12925 0.0
H227 H 0.05057 0.80857 0.08115 0.0
H228 H 0.97055 0.8558 0.21143 0.0
H229 H 0.02392 0.81032 0.23678 0.0
H230 H 0.98104 0.80516 0.17198 0.0
C231 C 0.74723 0.91999 0.08303 0.0
C232 C 0.73145 0.92206 0.0782 0.0
N233 N 0.72331 0.91403 0.09723 0.0
N234 N 0.7491 0.91069 0.10502 0.0
C235 C 0.73431 0.90719 0.11298 0.0
H236 H 0.75677 0.92515 0.07235 0.0
Co237 Co 0.7685 0.90557 0.12332 0.0
C238 C 0.75953 0.88628 0.17163 0.0
O239 O 0.76868 0.87967 0.15097 0.0
N240 N 0.78807 0.90057 0.14211 0.0
C241 C 0.80726 0.89679 0.1839 0.0
C242 C 0.7919 0.90008 0.18013 0.0
C243 C 0.80138 0.89749 0.12326 0.0
N244 N 0.81326 0.89519 0.14818 0.0
O245 O 0.76788 0.89363 0.08648 0.0
H246 H 0.78405 0.90216 0.20375 0.0
H247 H 0.80251 0.89726 0.092 0.0
O248 O 0.75815 0.89664 0.16251 0.0
C249 C 0.77241 0.89762 0.05406 0.0
O250 O 0.7775 0.90808 0.05301 0.0
N251 N 0.76936 0.91791 0.15636 0.0
C252 C 0.76968 0.93897 0.19167 0.0
C253 C 0.75839 0.9309 0.20215 0.0
C254 C 0.75839 0.92038 0.18398 0.0
C255 C 0.78071 0.92549 0.14675 0.0
C256 C 0.78118 0.93605 0.1643 0.0
H257 H 0.74908 0.91451 0.19055 0.0
H258 H 0.78899 0.9235 0.12395 0.0
H259 H 0.73163 0.90008 0.1315 0.0
H260 H 0.72637 0.92906 0.0624 0.0
H261 H 0.81356 0.89566 0.21095 0.0
H262 H 0.74931 0.93285 0.22314 0.0
H263 H 0.7899 0.9421 0.15479 0.0
C264 C 0.99096 0.57446 0.86101 0.0
C265 C 0.97517 0.57268 0.85514 0.0
N266 N 0.96734 0.58206 0.86576 0.0
N267 N 0.99313 0.5849 0.87545 0.0
C268 C 0.97853 0.58939 0.87772 0.0
H269 H 1.00027 0.56841 0.85609 0.0
Co270 Co 1.01261 0.59051 0.89153 0.0
C271 C 1.00402 0.61144 0.93138 0.0
O272 O 1.01255 0.61714 0.90638 0.0
N273 N 0.03221 0.5961 0.9083 0.0
C274 C 0.05067 0.60229 0.94866 0.0
C275 C 0.03589 0.59782 0.94599 0.0
C276 C 0.04516 0.59948 0.88853 0.0
N277 N 0.05653 0.6034 0.91257 0.0
O278 O 1.01227 0.60105 0.84979 0.0
H279 H 0.02818 0.59605 0.9702 0.0
H280 H 0.04611 0.59932 0.85721 0.0
O281 O 1.00236 0.60084 0.92701 0.0
C282 C 1.01604 0.59588 0.81874 0.0
O283 O 0.01965 0.58512 0.82087 0.0
N284 N 1.0134 0.57944 0.92958 0.0
C285 C 1.01527 0.56057 0.97728 0.0
C286 C 1.00385 0.56891 0.98394 0.0
C287 C 1.00299 0.57826 0.95939 0.0
C288 C 0.02468 0.57155 0.92296 0.0
C289 C 0.02587 0.56206 0.9465 0.0
H290 H 0.99365 0.58429 0.96356 0.0
H291 H 0.03251 0.57249 0.89843 0.0
H292 H 0.97606 0.59767 0.88938 0.0
H293 H 0.96984 0.565 0.84437 0.0
H294 H 0.05671 0.60449 0.97528 0.0
H295 H 0.99542 0.5681 0.00731 0.0
H296 H 0.03459 0.55573 0.93946 0.0
C297 C 0.28004 0.66423 0.81352 0.0
C298 C 0.29571 0.66513 0.80386 0.0
N299 N 0.30378 0.65713 0.8233 0.0
N300 N 0.27822 0.65572 0.83898 0.0
C301 C 0.29283 0.65149 0.84409 0.0
H302 H 0.2706 0.66958 0.80337 0.0
Co303 Co 0.25941 0.65148 0.86254 0.0
C304 C 0.26998 0.63362 0.91492 0.0
O305 O 0.26013 0.62658 0.89828 0.0
N306 N 0.24037 0.64725 0.88654 0.0
C307 C 0.22252 0.64457 0.93275 0.0
C308 C 0.23772 0.64773 0.92515 0.0
C309 C 0.2265 0.64378 0.87127 0.0
N310 N 0.21542 0.64211 0.89885 0.0
O311 O 0.25921 0.63844 0.83106 0.0
H312 H 0.2463 0.65034 0.94655 0.0
H313 H 0.22437 0.64276 0.84056 0.0
O314 O 0.27089 0.64376 0.90295 0.0
C315 C 0.25239 0.64036 0.79893 0.0
O316 O 0.24557 0.65018 0.79349 0.0
N317 N 0.25952 0.66483 0.89065 0.0
C318 C 0.25998 0.68667 0.91982 0.0
C319 C 0.27162 0.67889 0.93059 0.0
C320 C 0.27125 0.66798 0.91544 0.0
C321 C 0.24792 0.67217 0.88061 0.0
C322 C 0.24784 0.68312 0.89511 0.0
H323 H 0.28078 0.66229 0.92211 0.0
H324 H 0.23895 0.66958 0.86018 0.0
H325 H 0.29542 0.64442 0.86282 0.0
H326 H 0.30079 0.67144 0.78498 0.0
H327 H 0.21716 0.64408 0.96118 0.0
H328 H 0.28136 0.68135 0.949 0.0
H329 H 0.23857 0.68884 0.88634 0.0
C330 C 1.00785 0.66168 0.44009 0.0
C331 C 0.99179 0.66155 0.44359 0.0
N332 N 0.98566 0.65744 0.41044 0.0
N333 N 1.01193 0.65772 0.40486 0.0
C334 C 0.99812 0.6551 0.38737 0.0
H335 H 1.01606 0.66489 0.46136 0.0
Co336 Co 0.03279 0.65828 0.38877 0.0
C337 C 0.03396 0.65098 0.30745 0.0
O338 O 0.04467 0.65881 0.30261 0.0
N339 N 0.05457 0.65892 0.37429 0.0
C340 C 0.07871 0.66454 0.35795 0.0
C341 C 0.06368 0.66798 0.36613 0.0
C342 C 0.06464 0.65005 0.37125 0.0
N343 N 0.07935 0.65327 0.36128 0.0
O344 O 0.03669 0.64489 0.41781 0.0
H345 H 0.05993 0.67664 0.36548 0.0
H346 H 0.06123 0.64137 0.37578 0.0
O347 O 0.02783 0.64957 0.34114 0.0
C348 C 0.04287 0.6478 0.45003 0.0
O349 O 0.04718 0.65838 0.45435 0.0
N350 N 0.02825 0.6721 0.36489 0.0
C351 C 1.01902 0.69392 0.34479 0.0
C352 C 1.01401 0.68461 0.32288 0.0
C353 C 1.01853 0.67375 0.33381 0.0
C354 C 0.03238 0.68098 0.38782 0.0
C355 C 0.02832 0.69197 0.37774 0.0
H356 H 1.01345 0.66674 0.31835 0.0
H357 H 0.03897 0.67948 0.41418 0.0
H358 H 0.99715 0.65214 0.35774 0.0
H359 H 0.98509 0.6645 0.46829 0.0
H360 H 0.08852 0.66996 0.35072 0.0
H361 H 1.00616 0.68564 0.29838 0.0
H362 H 0.03243 0.69883 0.39579 0.0
C363 C 0.29443 0.57575 0.39234 0.0
C364 C 0.31001 0.57344 0.39971 0.0
N365 N 0.31887 0.58133 0.38199 0.0
N366 N 0.29343 0.58503 0.36994 0.0
C367 C 0.3085 0.5883 0.36439 0.0
H368 H 0.28446 0.57081 0.40174 0.0
Co369 Co 0.27471 0.59064 0.34912 0.0
C370 C 0.28563 0.61038 0.30639 0.0
O371 O 0.27655 0.6168 0.3279 0.0
N372 N 0.25574 0.59626 0.32764 0.0
C373 C 0.23832 0.60181 0.28334 0.0
C374 C 0.25313 0.59756 0.28921 0.0
C375 C 0.24212 0.59965 0.3445 0.0
N376 N 0.23137 0.60315 0.31813 0.0
O377 O 0.27477 0.60206 0.38756 0.0
H378 H 0.26152 0.59551 0.26669 0.0
H379 H 0.24011 0.59971 0.37545 0.0
O380 O 0.28632 0.59982 0.31297 0.0
C381 C 0.2674 0.59818 0.41676 0.0
O382 O 0.26096 0.58814 0.41436 0.0
N383 N 0.27431 0.57869 0.31455 0.0
C384 C 0.2745 0.55755 0.27995 0.0
C385 C 0.28619 0.56548 0.27091 0.0
C386 C 0.28594 0.57606 0.28881 0.0
C387 C 0.26245 0.57132 0.32203 0.0
C388 C 0.26222 0.56074 0.30473 0.0
H389 H 0.2956 0.5818 0.28399 0.0
H390 H 0.25355 0.57347 0.34321 0.0
H391 H 0.31189 0.59537 0.34643 0.0
H392 H 0.31446 0.56641 0.41645 0.0
H393 H 0.233 0.60361 0.25548 0.0
H394 H 0.29596 0.56328 0.25224 0.0
H395 H 0.25288 0.55492 0.31206 0.0
C396 C 0.04017 0.41342 0.17604 0.0
C397 C 0.05625 0.41408 0.175 0.0
N398 N 0.06128 0.40962 0.14128 0.0
N399 N 0.03491 0.40855 0.14316 0.0
C400 C 0.0481 0.40624 0.12247 0.0
H401 H 0.0327 0.4167 0.19877 0.0
Co402 Co 1.01338 0.40771 0.13225 0.0
C403 C 1.01113 0.40228 0.04933 0.0
O404 O 1.00008 0.40995 0.04637 0.0
N405 N 0.99101 0.40691 0.12227 0.0
C406 C 0.9661 0.4114 0.10871 0.0
C407 C 0.98118 0.41532 0.11126 0.0
C408 C 0.98126 0.39786 0.12584 0.0
N409 N 0.96603 0.40042 0.11815 0.0
O410 O 1.01268 0.39352 0.15825 0.0
H411 H 0.98451 0.42381 0.10379 0.0
H412 H 0.98518 0.38956 0.13448 0.0
O413 O 1.01768 0.4004 0.08214 0.0
C414 C 1.00934 0.39608 0.19324 0.0
O415 O 1.00525 0.40653 0.20101 0.0
N416 N 1.01478 0.42228 0.11204 0.0
C417 C 1.0169 0.44518 0.09583 0.0
C418 C 0.02392 0.43725 0.07108 0.0
C419 C 0.02299 0.42578 0.08016 0.0
C420 C 1.00929 0.42997 0.13812 0.0
C421 C 1.00982 0.44144 0.13013 0.0
H422 H 0.02913 0.41981 0.062 0.0
H423 H 1.004 0.4271 0.16489 0.0
H424 H 0.04804 0.40271 0.0935 0.0
H425 H 0.0637 0.41778 0.1971 0.0
H426 H 0.95598 0.41627 0.09967 0.0
H427 H 0.02998 0.43987 0.04497 0.0
H428 H 1.00483 0.44734 0.15072 0.0
C429 C 0.75074 0.32694 0.16486 0.0
C430 C 0.73469 0.32675 0.16901 0.0
N431 N 0.72818 0.3312 0.13683 0.0
N432 N 0.75444 0.33142 0.13013 0.0
C433 C 0.74042 0.33408 0.11375 0.0
H434 H 0.75923 0.32361 0.18524 0.0
Co435 Co 0.77517 0.33148 0.11234 0.0
C436 C 0.77248 0.33549 0.02824 0.0
O437 O 0.78135 0.32662 0.02234 0.0
N438 N 0.79696 0.33155 0.09524 0.0
C439 C 0.82062 0.32638 0.07319 0.0
C440 C 0.80521 0.32324 0.07747 0.0
C441 C 0.80795 0.33974 0.10077 0.0
N442 N 0.82248 0.33675 0.08828 0.0
O443 O 0.77766 0.34591 0.13529 0.0
H444 H 0.80052 0.31531 0.06747 0.0
H445 H 0.80554 0.34771 0.1146 0.0
O446 O 0.76881 0.33843 0.06283 0.0
C447 C 0.78384 0.34459 0.16865 0.0
O448 O 0.78883 0.33453 0.17882 0.0
N449 N 0.77202 0.31673 0.09483 0.0
C450 C 0.7659 0.29388 0.08367 0.0
C451 C 0.75748 0.3021 0.06298 0.0
C452 C 0.76052 0.31349 0.06948 0.0
C453 C 0.77955 0.3089 0.117 0.0
C454 C 0.777 0.29742 0.11119 0.0
H455 H 0.75326 0.31967 0.05505 0.0
H456 H 0.7877 0.31162 0.13922 0.0
H457 H 0.73913 0.33743 0.0847 0.0
H458 H 0.72827 0.32336 0.19348 0.0
H459 H 0.82973 0.32134 0.0598 0.0
H460 H 0.74828 0.29977 0.04276 0.0
H461 H 0.78371 0.29142 0.1281 0.0
C462 C 0.03801 0.31748 0.60662 0.0
C463 C 0.05353 0.31545 0.59829 0.0
N464 N 0.06134 0.32532 0.59918 0.0
N465 N 0.03597 0.32857 0.61365 0.0
C466 C 0.05024 0.3332 0.6067 0.0
H467 H 0.02892 0.31116 0.60915 0.0
Co468 Co 1.01706 0.33493 0.63178 0.0
C469 C 0.04056 0.3474 0.68663 0.0
O470 O 0.05329 0.34133 0.68127 0.0
N471 N 0.99804 0.34118 0.64975 0.0
C472 C 0.98026 0.34751 0.69168 0.0
C473 C 0.99488 0.34283 0.68773 0.0
C474 C 0.98493 0.34479 0.63109 0.0
N475 N 0.97397 0.34879 0.6561 0.0
O476 O 1.01819 0.34588 0.59145 0.0
H477 H 1.00273 0.34069 0.71132 0.0
H478 H 0.98348 0.34463 0.5999 0.0
O479 O 0.02784 0.34498 0.6686 0.0
C480 C 1.01256 0.34109 0.56134 0.0
O481 O 1.00688 0.33083 0.56504 0.0
N482 N 1.01525 0.3234 0.66844 0.0
C483 C 1.01344 0.30261 0.70534 0.0
C484 C 0.02494 0.31048 0.71619 0.0
C485 C 0.02569 0.32085 0.6972 0.0
C486 C 1.00334 0.31618 0.6595 0.0
C487 C 1.00217 0.30574 0.67769 0.0
H488 H 0.03528 0.32637 0.70402 0.0
H489 H 0.99536 0.31823 0.63609 0.0
H490 H 0.05265 0.34211 0.60956 0.0
H491 H 0.05876 0.30724 0.59363 0.0
H492 H 0.97458 0.34964 0.71882 0.0
H493 H 0.03378 0.30841 0.73767 0.0
H494 H 0.99323 0.29988 0.66801 0.0
C495 C 0.75006 0.40924 0.5529 0.0
C496 C 0.73393 0.4096 0.55191 0.0
N497 N 0.72846 0.40591 0.5863 0.0
N498 N 0.7548 0.40541 0.58779 0.0
C499 C 0.74135 0.40334 0.60757 0.0
H500 H 0.75791 0.41205 0.53019 0.0
Co501 Co 0.77587 0.4056 0.60184 0.0
C502 C 0.77809 0.39667 0.6811 0.0
O503 O 0.78873 0.40445 0.68789 0.0
N504 N 0.7978 0.40587 0.61467 0.0
C505 C 0.82228 0.41114 0.62924 0.0
C506 C 0.80719 0.41478 0.62288 0.0
C507 C 0.80773 0.39689 0.61595 0.0
N508 N 0.82264 0.3999 0.62475 0.0
O509 O 0.77914 0.39269 0.57005 0.0
H510 H 0.80363 0.42347 0.62441 0.0
H511 H 0.80407 0.38828 0.61084 0.0
O512 O 0.77163 0.39604 0.64753 0.0
C513 C 0.78629 0.39539 0.53894 0.0
O514 O 0.79149 0.40575 0.5349 0.0
N515 N 0.772 0.41899 0.62887 0.0
C516 C 0.76652 0.4406 0.65713 0.0
C517 C 0.76145 0.43113 0.67799 0.0
C518 C 0.76393 0.42037 0.66283 0.0
C519 C 0.77563 0.42811 0.60664 0.0
C520 C 0.77336 0.439 0.62055 0.0
H521 H 0.75898 0.41329 0.67811 0.0
H522 H 0.78085 0.42687 0.57833 0.0
H523 H 0.74098 0.40065 0.63758 0.0
H524 H 0.72676 0.4126 0.52809 0.0
H525 H 0.83231 0.41641 0.6359 0.0
H526 H 0.75537 0.43204 0.70545 0.0
H527 H 0.77725 0.44607 0.60315 0.0
C528 C 0.50787 0.07159 0.8114 0.0
C529 C 0.49226 0.07014 0.80219 0.0
N530 N 0.48398 0.07866 0.81811 0.0
N531 N 0.50946 0.08095 0.83319 0.0
C532 C 0.49473 0.08515 0.83652 0.0
H533 H 0.51745 0.06607 0.80338 0.0
Co534 Co 0.52839 0.08587 0.8546 0.0
C535 C 0.51798 0.10506 0.90198 0.0
O536 O 0.52682 0.11183 0.88119 0.0
N537 N 0.54755 0.09078 0.87644 0.0
C538 C 0.56568 0.09454 0.9211 0.0
C539 C 0.55041 0.09131 0.91496 0.0
C540 C 0.56136 0.09377 0.85971 0.0
N541 N 0.57261 0.09606 0.88637 0.0
O542 O 0.52855 0.09793 0.81828 0.0
H543 H 0.54196 0.08928 0.93733 0.0
H544 H 0.56332 0.09394 0.82871 0.0
O545 O 0.51719 0.09463 0.8932 0.0
C546 C 0.53476 0.09418 0.78722 0.0
O547 O 0.54057 0.0839 0.78749 0.0
N548 N 0.52852 0.07333 0.88696 0.0
C549 C 0.52806 0.05207 0.92099 0.0
C550 C 0.51621 0.05996 0.92923 0.0
C551 C 0.5166 0.07056 0.91165 0.0
C552 C 0.54038 0.06593 0.8796 0.0
C553 C 0.54047 0.05529 0.89661 0.0
H554 H 0.50684 0.07624 0.91599 0.0
H555 H 0.54949 0.06815 0.85909 0.0
H556 H 0.49186 0.09261 0.85314 0.0
H557 H 0.4874 0.06331 0.78519 0.0
H558 H 0.57126 0.09568 0.94907 0.0
H559 H 0.50626 0.05774 0.94728 0.0
H560 H 0.54993 0.0495 0.88975 0.0
C561 C 0.79351 0.16719 0.84631 0.0
C562 C 0.80909 0.16996 0.84146 0.0
N563 N 0.81796 0.16125 0.85386 0.0
N564 N 0.7925 0.15679 0.86179 0.0
C565 C 0.80758 0.15335 0.86576 0.0
H566 H 0.78352 0.17251 0.83978 0.0
Co567 Co 0.77389 0.14965 0.877 0.0
C568 C 0.78621 0.13044 0.92138 0.0
O569 O 0.77867 0.12333 0.89878 0.0
N570 N 0.75523 0.1425 0.89293 0.0
C571 C 0.73725 0.13518 0.93228 0.0
C572 C 0.75163 0.14033 0.93036 0.0
C573 C 0.74263 0.13874 0.87257 0.0
N574 N 0.73156 0.13414 0.89598 0.0
O575 O 0.77688 0.13866 0.83753 0.0
H576 H 0.75896 0.14247 0.95494 0.0
H577 H 0.74162 0.13931 0.84132 0.0
O578 O 0.78545 0.14097 0.91464 0.0
C579 C 0.77288 0.14307 0.80532 0.0
O580 O 0.76734 0.15342 0.80533 0.0
N581 N 0.77042 0.16102 0.91298 0.0
C582 C 0.76432 0.18025 0.95644 0.0
C583 C 0.77737 0.17345 0.96504 0.0
C584 C 0.78029 0.16383 0.94269 0.0
C585 C 0.75754 0.16738 0.90479 0.0
C586 C 0.75416 0.17697 0.92644 0.0
H587 H 0.7908 0.15897 0.94816 0.0
H588 H 0.75007 0.16513 0.88059 0.0
H589 H 0.8109 0.14534 0.87838 0.0
H590 H 0.81352 0.17782 0.82988 0.0
H591 H 0.73127 0.13265 0.95859 0.0
H592 H 0.78564 0.17581 0.98752 0.0
H593 H 0.74388 0.18192 0.9191 0.0
C594 C 0.49417 0.1711 0.3776 0.0
C595 C 0.47884 0.17248 0.38906 0.0
N596 N 0.47159 0.1624 0.38726 0.0
N597 N 0.49659 0.16024 0.36757 0.0
C598 C 0.48281 0.15505 0.37571 0.0
H599 H 0.50284 0.17772 0.37535 0.0
Co600 Co 0.51538 0.15453 0.34641 0.0
C601 C 0.49131 0.14435 0.28848 0.0
O602 O 0.47889 0.15027 0.29832 0.0
N603 N 0.5343 0.14888 0.32569 0.0
C604 C 0.55201 0.14356 0.28198 0.0
C605 C 0.53732 0.14805 0.28734 0.0
C606 C 0.5475 0.14494 0.34312 0.0
N607 N 0.55844 0.14156 0.31705 0.0
O608 O 0.51448 0.14231 0.38222 0.0
H609 H 0.52936 0.15063 0.26453 0.0
H610 H 0.54904 0.14445 0.37422 0.0
O611 O 0.5044 0.14582 0.3061 0.0
C612 C 0.52073 0.14629 0.41296 0.0
O613 O 0.52597 0.15672 0.4122 0.0
N614 N 0.51714 0.16723 0.31446 0.0
C615 C 0.51939 0.18904 0.28529 0.0
C616 C 0.5076 0.18172 0.27212 0.0
C617 C 0.50664 0.17081 0.28716 0.0
C618 C 0.52923 0.174 0.32579 0.0
C619 C 0.53063 0.18493 0.31145 0.0
H620 H 0.4969 0.16566 0.27852 0.0
H621 H 0.53727 0.17114 0.34804 0.0
H622 H 0.48073 0.14616 0.37067 0.0
H623 H 0.47328 0.18039 0.39663 0.0
H624 H 0.55762 0.14208 0.25425 0.0
H625 H 0.49876 0.18455 0.25167 0.0
H626 H 0.53981 0.19033 0.32282 0.0
C627 C 0.77929 0.07305 0.39838 0.0
C628 C 0.79485 0.07076 0.40598 0.0
N629 N 0.80367 0.0791 0.39074 0.0
N630 N 0.77826 0.08277 0.37834 0.0
C631 C 0.79329 0.08631 0.37445 0.0
H632 H 0.76936 0.06779 0.40587 0.0
Co633 Co 0.75976 0.08865 0.35729 0.0
C634 C 0.77143 0.1086 0.31566 0.0
O635 O 0.76156 0.11517 0.33434 0.0
N636 N 0.74113 0.09448 0.33562 0.0
C637 C 0.72379 0.09968 0.29081 0.0
C638 C 0.73883 0.096 0.29719 0.0
C639 C 0.7272 0.0973 0.35207 0.0
N640 N 0.71641 0.10046 0.32528 0.0
O641 O 0.75961 0.09978 0.39686 0.0
H642 H 0.74753 0.09438 0.27498 0.0
H643 H 0.72484 0.09673 0.38285 0.0
O644 O 0.77183 0.0981 0.3231 0.0
C645 C 0.75351 0.09545 0.42711 0.0
O646 O 0.74727 0.08534 0.42429 0.0
N647 N 0.75966 0.07706 0.32116 0.0
C648 C 0.76013 0.05674 0.28104 0.0
C649 C 0.77167 0.06495 0.27413 0.0
C650 C 0.77129 0.07508 0.29474 0.0
C651 C 0.74802 0.0694 0.3271 0.0
C652 C 0.74796 0.05919 0.30717 0.0
H653 H 0.7808 0.081 0.29097 0.0
H654 H 0.73917 0.071 0.34896 0.0
H655 H 0.79666 0.09377 0.35847 0.0
H656 H 0.79932 0.06342 0.42106 0.0
H657 H 0.71868 0.10165 0.26284 0.0
H658 H 0.78124 0.06339 0.25413 0.0
H659 H 0.739 0.05302 0.31401 0.0
C660 C 0.53171 0.92024 0.16236 0.0
C661 C 0.54741 0.9225 0.16818 0.0
N662 N 0.5559 0.91419 0.1516 0.0
N663 N 0.53029 0.91058 0.14205 0.0
C664 C 0.54522 0.90703 0.13627 0.0
H665 H 0.52194 0.92548 0.17117 0.0
Co666 Co 0.5114 0.90481 0.12295 0.0
C667 C 0.52211 0.88495 0.07961 0.0
O668 O 0.51306 0.87853 0.10117 0.0
N669 N 0.49235 0.89907 0.10322 0.0
C670 C 0.47426 0.89417 0.05985 0.0
C671 C 0.48939 0.89781 0.06495 0.0
C672 C 0.47873 0.89611 0.1209 0.0
N673 N 0.46749 0.89314 0.09498 0.0
O674 O 0.51209 0.89348 0.16207 0.0
H675 H 0.49768 0.89961 0.04198 0.0
H676 H 0.4769 0.89645 0.15194 0.0
O677 O 0.52275 0.89552 0.08618 0.0
C678 C 0.50649 0.89771 0.19312 0.0
O679 O 0.5001 0.90779 0.19123 0.0
N680 N 0.51049 0.91666 0.08776 0.0
C681 C 0.51012 0.93745 0.05048 0.0
C682 C 0.52193 0.92952 0.04227 0.0
C683 C 0.52195 0.91914 0.06143 0.0
C684 C 0.49857 0.92403 0.09484 0.0
C685 C 0.49805 0.93443 0.07618 0.0
H686 H 0.53169 0.91346 0.05696 0.0
H687 H 0.48981 0.92202 0.11651 0.0
H688 H 0.54827 0.89964 0.11954 0.0
H689 H 0.55218 0.9298 0.1829 0.0
H690 H 0.46865 0.89242 0.03228 0.0
H691 H 0.5316 0.93158 0.02309 0.0
H692 H 0.4886 0.94022 0.08299 0.0
C693 C 0.24821 0.81998 0.14744 0.0
C694 C 0.23257 0.81756 0.15305 0.0
N695 N 0.22392 0.82565 0.13568 0.0
N696 N 0.24949 0.82954 0.12664 0.0
C697 C 0.2345 0.83286 0.12013 0.0
H698 H 0.25806 0.81494 0.1571 0.0
Co699 Co 0.26847 0.83554 0.10887 0.0
C700 C 0.25793 0.8544 0.06038 0.0
O701 O 0.26625 0.86141 0.0816 0.0
N702 N 0.28759 0.84151 0.0906 0.0
C703 C 0.30593 0.84724 0.04922 0.0
C704 C 0.29144 0.84232 0.05269 0.0
C705 C 0.30013 0.84587 0.10973 0.0
N706 N 0.31141 0.84953 0.08505 0.0
O707 O 0.26663 0.84742 0.14575 0.0
H708 H 0.2841 0.83954 0.02889 0.0
H709 H 0.30087 0.84654 0.14099 0.0
O710 O 0.25747 0.84399 0.06936 0.0
C711 C 0.27112 0.84356 0.17841 0.0
O712 O 0.27679 0.83326 0.17982 0.0
N713 N 0.2706 0.82329 0.07575 0.0
C714 C 0.27297 0.80234 0.04011 0.0
C715 C 0.26084 0.80981 0.02995 0.0
C716 C 0.25981 0.82027 0.04832 0.0
C717 C 0.28276 0.81633 0.08495 0.0
C718 C 0.28427 0.80585 0.06718 0.0
H719 H 0.24984 0.82562 0.04219 0.0
H720 H 0.29097 0.81877 0.10743 0.0
H721 H 0.23138 0.84018 0.10309 0.0
H722 H 0.22796 0.81035 0.16851 0.0
H723 H 0.31206 0.8489 0.02228 0.0
H724 H 0.25171 0.80735 0.00973 0.0
H725 H 0.29391 0.8004 0.07555 0.0
C726 C 0.54056 0.81937 0.60763 0.0
C727 C 0.55585 0.81659 0.59912 0.0
N728 N 0.56489 0.8258 0.6042 0.0
N729 N 0.53985 0.83028 0.61864 0.0
C730 C 0.5548 0.83404 0.61489 0.0
H731 H 0.53069 0.81369 0.60581 0.0
Co732 Co 0.52211 0.83877 0.63404 0.0
C733 C 0.54523 0.8426 0.69943 0.0
O734 O 0.55154 0.83255 0.69532 0.0
N735 N 0.50459 0.84717 0.64879 0.0
C736 C 0.48733 0.8564 0.68511 0.0
C737 C 0.50139 0.85079 0.68508 0.0
C738 C 0.49213 0.85054 0.62729 0.0
N739 N 0.48148 0.85628 0.64878 0.0
O740 O 0.52836 0.85051 0.59942 0.0
H741 H 0.50853 0.84917 0.7104 0.0
H742 H 0.49086 0.84876 0.59663 0.0
O743 O 0.53403 0.84566 0.67694 0.0
C744 C 0.52526 0.84724 0.565 0.0
O745 O 0.51879 0.83728 0.56006 0.0
N746 N 0.51472 0.82686 0.66459 0.0
C747 C 0.50184 0.8073 0.69586 0.0
C748 C 0.51047 0.81475 0.71931 0.0
C749 C 0.51663 0.82462 0.70321 0.0
C750 C 0.50523 0.82022 0.64246 0.0
C751 C 0.49881 0.81034 0.6573 0.0
H752 H 0.52275 0.83033 0.72212 0.0
H753 H 0.50311 0.82245 0.61246 0.0
H754 H 0.55827 0.84258 0.62188 0.0
H755 H 0.55995 0.80836 0.59015 0.0
H756 H 0.48156 0.85992 0.71035 0.0
H757 H 0.5128 0.81284 0.7495 0.0
H758 H 0.49176 0.80504 0.63853 0.0
C759 C 0.258 0.91693 0.59354 0.0
C760 C 0.24252 0.91995 0.58838 0.0
N761 N 0.23338 0.91161 0.6024 0.0
N762 N 0.25864 0.90675 0.61076 0.0
C763 C 0.24347 0.90368 0.61557 0.0
H764 H 0.26816 0.92196 0.58614 0.0
Co765 Co 0.27707 0.89973 0.62702 0.0
C766 C 0.26518 0.87896 0.66379 0.0
O767 O 0.2744 0.87264 0.64228 0.0
N768 N 0.2957 0.8929 0.64379 0.0
C769 C 0.31414 0.88651 0.68384 0.0
C770 C 0.29879 0.88989 0.68085 0.0
C771 C 0.30942 0.89124 0.6247 0.0
N772 N 0.32082 0.88739 0.64859 0.0
O773 O 0.27576 0.88978 0.58391 0.0
H774 H 0.29056 0.89054 0.70466 0.0
H775 H 0.31126 0.89337 0.59452 0.0
O776 O 0.26513 0.88961 0.65923 0.0
C777 C 0.28105 0.89462 0.55364 0.0
O778 O 0.28735 0.90469 0.55729 0.0
N779 N 0.2787 0.91013 0.667 0.0
C780 C 0.28159 0.9284 0.71711 0.0
C781 C 0.27076 0.91975 0.72485 0.0
C782 C 0.26934 0.91073 0.6991 0.0
C783 C 0.28965 0.91819 0.65972 0.0
C784 C 0.29128 0.92742 0.68431 0.0
H785 H 0.26039 0.90448 0.7045 0.0
H786 H 0.29673 0.91764 0.63371 0.0
H787 H 0.23984 0.89599 0.62979 0.0
H788 H 0.23835 0.92773 0.57563 0.0
H789 H 0.32008 0.88387 0.71011 0.0
H790 H 0.26313 0.92009 0.74997 0.0
H791 H 0.29954 0.93398 0.67648 0.0
C792 C 0.5113 0.5716 0.34166 0.0
C793 C 0.49549 0.56981 0.3362 0.0
N794 N 0.4875 0.57816 0.35395 0.0
N795 N 0.51336 0.58103 0.36283 0.0
C796 C 0.49864 0.58492 0.36963 0.0
H797 H 0.52072 0.5662 0.33177 0.0
Co798 Co 0.53296 0.58598 0.38061 0.0
C799 C 0.52448 0.6056 0.42758 0.0
O800 O 0.53307 0.61194 0.40465 0.0
N801 N 0.55276 0.59088 0.39885 0.0
C802 C 0.57241 0.59444 0.43973 0.0
C803 C 0.55706 0.591 0.43662 0.0
C804 C 0.56573 0.59441 0.37955 0.0
N805 N 0.57787 0.59659 0.40385 0.0
O806 O 0.53244 0.59776 0.34297 0.0
H807 H 0.54952 0.58862 0.46052 0.0
H808 H 0.56644 0.59516 0.34831 0.0
O809 O 0.52299 0.59513 0.42019 0.0
C810 C 0.53725 0.5935 0.31113 0.0
O811 O 0.54245 0.58306 0.31152 0.0
N812 N 0.53373 0.57369 0.41384 0.0
C813 C 0.53308 0.55222 0.44591 0.0
C814 C 0.52189 0.56032 0.45688 0.0
C815 C 0.52238 0.57106 0.4403 0.0
C816 C 0.54513 0.56613 0.40439 0.0
C817 C 0.54516 0.55538 0.42048 0.0
H818 H 0.51301 0.57693 0.44651 0.0
H819 H 0.55378 0.56827 0.38259 0.0
H820 H 0.4961 0.59229 0.38704 0.0
H821 H 0.49028 0.56281 0.32064 0.0
H822 H 0.57901 0.5954 0.4664 0.0
H823 H 0.51224 0.55817 0.47598 0.0
H824 H 0.55414 0.54944 0.41166 0.0
C825 C 0.79934 0.66814 0.32354 0.0
C826 C 0.81542 0.66764 0.32507 0.0
N827 N 0.81949 0.66071 0.35422 0.0
N828 N 0.7932 0.66164 0.35186 0.0
C829 C 0.80584 0.65713 0.37017 0.0
H830 H 0.79252 0.67324 0.30373 0.0
Co831 Co 0.77148 0.66135 0.36014 0.0
C832 C 0.76676 0.65631 0.44225 0.0
O833 O 0.75634 0.66448 0.44259 0.0
N834 N 0.74902 0.66106 0.36685 0.0
C835 C 0.72357 0.66556 0.37077 0.0
C836 C 0.73862 0.66967 0.36996 0.0
C837 C 0.73972 0.65173 0.36665 0.0
N838 N 0.72423 0.65427 0.36847 0.0
O839 O 0.7704 0.64721 0.33426 0.0
H840 H 0.74138 0.6785 0.37191 0.0
H841 H 0.74415 0.64322 0.36415 0.0
O842 O 0.77415 0.65397 0.41089 0.0
C843 C 0.76889 0.64975 0.29855 0.0
O844 O 0.76771 0.66043 0.28888 0.0
N845 N 0.77326 0.67588 0.38093 0.0
C846 C 0.7785 0.69857 0.39667 0.0
C847 C 0.78422 0.69024 0.42189 0.0
C848 C 0.78173 0.67888 0.41306 0.0
C849 C 0.76884 0.68387 0.35472 0.0
C850 C 0.77089 0.69527 0.36251 0.0
H851 H 0.78716 0.67257 0.43124 0.0
H852 H 0.76359 0.68133 0.32748 0.0
H853 H 0.80511 0.65175 0.39545 0.0
H854 H 0.82356 0.67222 0.30677 0.0
H855 H 0.71292 0.67051 0.37307 0.0
H856 H 0.79067 0.69249 0.44787 0.0
H857 H 0.76693 0.70144 0.3415 0.0
C858 C 0.48806 0.66039 0.92657 0.0
C859 C 0.47224 0.65828 0.92477 0.0
N860 N 0.46865 0.65507 0.88835 0.0
N861 N 0.49459 0.65843 0.89158 0.0
C862 C 0.48242 0.65525 0.86865 0.0
H863 H 0.49435 0.66344 0.95172 0.0
Co864 Co 0.5159 0.66095 0.88244 0.0
C865 C 0.52264 0.65371 0.80286 0.0
O866 O 0.53163 0.66269 0.80065 0.0
N867 N 0.53785 0.66347 0.8751 0.0
C868 C 0.56213 0.67047 0.8724 0.0
C869 C 0.54644 0.67305 0.8762 0.0
C870 C 0.54874 0.65519 0.87102 0.0
N871 N 0.5636 0.6592 0.86919 0.0
O872 O 0.52083 0.6482 0.91432 0.0
H873 H 0.54191 0.68143 0.88044 0.0
H874 H 0.54572 0.64635 0.86937 0.0
O875 O 0.51523 0.65165 0.83454 0.0
C876 C 0.52443 0.65228 0.94746 0.0
O877 O 0.52523 0.6633 0.95095 0.0
N878 N 0.51035 0.67416 0.85581 0.0
C879 C 0.49963 0.69515 0.83065 0.0
C880 C 0.4974 0.68551 0.80772 0.0
C881 C 0.50252 0.67503 0.82125 0.0
C882 C 0.51169 0.68333 0.87935 0.0
C883 C 0.50677 0.69394 0.86707 0.0
H884 H 0.49956 0.66767 0.80445 0.0
H885 H 0.51658 0.68237 0.90815 0.0
H886 H 0.48357 0.65321 0.83817 0.0
H887 H 0.4639 0.65944 0.94816 0.0
H888 H 0.57171 0.67645 0.8733 0.0
H889 H 0.49132 0.686 0.78015 0.0
H890 H 0.5086 0.70111 0.88599 0.0
C891 C 0.77683 0.58193 0.92268 0.0
C892 C 0.79285 0.58138 0.92653 0.0
N893 N 0.79942 0.58571 0.89428 0.0
N894 N 0.7732 0.58657 0.88816 0.0
C895 C 0.78725 0.58889 0.87141 0.0
H896 H 0.7683 0.57877 0.94322 0.0
Co897 Co 0.75238 0.5871 0.87187 0.0
C898 C 0.7518 0.59718 0.79423 0.0
O899 O 0.74097 0.58974 0.78525 0.0
N900 N 0.73066 0.5875 0.85708 0.0
C901 C 0.70598 0.58277 0.84251 0.0
C902 C 0.72108 0.5789 0.8466 0.0
C903 C 0.7209 0.59656 0.85861 0.0
N904 N 0.7058 0.59387 0.8504 0.0
O905 O 0.74912 0.59953 0.90583 0.0
H906 H 0.72449 0.57025 0.84237 0.0
H907 H 0.72467 0.60491 0.86714 0.0
O908 O 0.75777 0.59724 0.82841 0.0
C909 C 0.74232 0.59616 0.93669 0.0
O910 O 0.73705 0.58575 0.93792 0.0
N911 N 0.75618 0.57407 0.84285 0.0
C912 C 0.76212 0.55274 0.81278 0.0
C913 C 0.76763 0.56238 0.79362 0.0
C914 C 0.76493 0.57299 0.80978 0.0
C915 C 0.7519 0.56475 0.86329 0.0
C916 C 0.75442 0.554 0.84843 0.0
H917 H 0.77033 0.58019 0.79619 0.0
H918 H 0.74612 0.56572 0.89106 0.0
H919 H 0.78855 0.59228 0.84242 0.0
H920 H 0.79921 0.57787 0.95093 0.0
H921 H 0.69585 0.57773 0.83469 0.0
H922 H 0.7743 0.5617 0.76695 0.0
H923 H 0.75016 0.54677 0.86448 0.0
C924 C 0.53829 0.41822 0.65001 0.0
C925 C 0.55401 0.42019 0.65659 0.0
N926 N 0.56222 0.41119 0.64393 0.0
N927 N 0.53658 0.40807 0.63294 0.0
C928 C 0.55135 0.40392 0.63003 0.0
H929 H 0.52872 0.42395 0.65621 0.0
Co930 Co 0.51763 0.40209 0.6145 0.0
C931 C 0.52885 0.38334 0.56652 0.0
O932 O 0.52047 0.37623 0.58717 0.0
N933 N 0.49864 0.3961 0.59548 0.0
C934 C 0.48062 0.39031 0.55326 0.0
C935 C 0.49514 0.39515 0.55738 0.0
C936 C 0.48586 0.39191 0.61404 0.0
N937 N 0.47476 0.38823 0.58884 0.0
O938 O 0.51936 0.39023 0.65113 0.0
H939 H 0.50272 0.3978 0.53392 0.0
H940 H 0.48479 0.39142 0.64529 0.0
O941 O 0.52894 0.39376 0.57539 0.0
C942 C 0.51485 0.39423 0.68355 0.0
O943 O 0.50927 0.40457 0.68443 0.0
N944 N 0.51557 0.41438 0.58156 0.0
C945 C 0.51355 0.43564 0.5482 0.0
C946 C 0.52568 0.42822 0.53765 0.0
C947 C 0.52653 0.41758 0.55487 0.0
C948 C 0.50331 0.42124 0.59074 0.0
C949 C 0.50197 0.43188 0.57408 0.0
H950 H 0.53655 0.41228 0.54876 0.0
H951 H 0.49495 0.41865 0.61264 0.0
H952 H 0.55417 0.39593 0.61658 0.0
H953 H 0.55903 0.42772 0.66929 0.0
H954 H 0.47471 0.3886 0.52604 0.0
H955 H 0.535 0.43086 0.51827 0.0
H956 H 0.49232 0.43729 0.58267 0.0
C957 C 0.25096 0.31793 0.62311 0.0
C958 C 0.23543 0.31641 0.63275 0.0
N959 N 0.22851 0.3266 0.63549 0.0
N960 N 0.25389 0.32904 0.61905 0.0
C961 C 0.24013 0.33411 0.6284 0.0
H962 H 0.25937 0.31127 0.61804 0.0
Co963 Co 0.27293 0.33571 0.60278 0.0
C964 C 0.24916 0.34524 0.54484 0.0
O965 O 0.23851 0.33739 0.55041 0.0
N966 N 0.29198 0.34228 0.58682 0.0
C967 C 0.31085 0.34793 0.54675 0.0
C968 C 0.29564 0.34424 0.5493 0.0
C969 C 0.30529 0.34486 0.60666 0.0
N970 N 0.31698 0.34828 0.58274 0.0
O971 O 0.27027 0.34707 0.64123 0.0
H972 H 0.28797 0.3426 0.52495 0.0
H973 H 0.30664 0.34376 0.63766 0.0
O974 O 0.26215 0.34496 0.56357 0.0
C975 C 0.27548 0.34259 0.67232 0.0
O976 O 0.28131 0.33234 0.67025 0.0
N977 N 0.2766 0.32385 0.5683 0.0
C978 C 0.28432 0.30376 0.53132 0.0
C979 C 0.27348 0.31122 0.5145 0.0
C980 C 0.26976 0.32129 0.53352 0.0
C981 C 0.2877 0.31694 0.58391 0.0
C982 C 0.29176 0.30687 0.56594 0.0
H983 H 0.26125 0.32677 0.52039 0.0
H984 H 0.29312 0.31914 0.61128 0.0
H985 H 0.23847 0.34316 0.62772 0.0
H986 H 0.22952 0.30836 0.63524 0.0
H987 H 0.31705 0.35 0.52025 0.0
H988 H 0.26748 0.30911 0.48773 0.0
H989 H 0.30042 0.30145 0.57952 0.0
C990 C 0.53613 0.3219 0.09897 0.0
C991 C 0.55178 0.3197 0.09237 0.0
N992 N 0.56021 0.3288 0.1032 0.0
N993 N 0.53463 0.33232 0.11412 0.0
C994 C 0.5495 0.33637 0.11598 0.0
H995 H 0.52646 0.31616 0.09411 0.0
Co996 Co 0.51564 0.33846 0.13179 0.0
C997 C 0.52634 0.35904 0.17112 0.0
O998 O 0.51684 0.36524 0.14992 0.0
N999 N 0.49649 0.34457 0.14996 0.0
C1000 C 0.47823 0.35047 0.19138 0.0
C1001 C 0.49339 0.34672 0.18768 0.0
C1002 C 0.4829 0.34711 0.13121 0.0
N1003 N 0.47155 0.35069 0.15593 0.0
O1004 O 0.51613 0.34892 0.09028 0.0
H1005 H 0.50161 0.34547 0.21125 0.0
H1006 H 0.4812 0.34606 0.1003 0.0
O1007 O 0.52703 0.34844 0.16563 0.0
C1008 C 0.5109 0.34389 0.06027 0.0
O1009 O 0.50535 0.33361 0.06422 0.0
N1010 N 0.51486 0.32746 0.17007 0.0
C1011 C 0.51445 0.30775 0.21366 0.0
C1012 C 0.52624 0.31585 0.21958 0.0
C1013 C 0.52627 0.32569 0.1973 0.0
C1014 C 0.50301 0.3199 0.16499 0.0
C1015 C 0.5025 0.31003 0.18671 0.0
H1016 H 0.53594 0.33152 0.20035 0.0
H1017 H 0.49437 0.3213 0.14246 0.0
H1018 H 0.55251 0.34453 0.12793 0.0
H1019 H 0.55661 0.31195 0.08088 0.0
H1020 H 0.47256 0.35288 0.21825 0.0
H1021 H 0.53568 0.31439 0.24007 0.0
H1022 H 0.49338 0.30391 0.18056 0.0
C1023 C 0.25031 0.4228 0.07644 0.0
C1024 C 0.23489 0.42443 0.06607 0.0
N1025 N 0.22708 0.41463 0.07055 0.0
N1026 N 0.25231 0.41206 0.08829 0.0
C1027 C 0.23812 0.40715 0.08229 0.0
H1028 H 0.25936 0.42919 0.07676 0.0
Co1029 Co 0.2711 0.40621 0.10951 0.0
C1030 C 0.24696 0.39751 0.16991 0.0
O1031 O 0.23492 0.40383 0.16019 0.0
N1032 N 0.29005 0.4004 0.13041 0.0
C1033 C 0.30785 0.39582 0.17501 0.0
C1034 C 0.29339 0.40055 0.16872 0.0
C1035 C 0.30293 0.39562 0.11386 0.0
N1036 N 0.3139 0.39266 0.14058 0.0
O1037 O 0.26915 0.39351 0.07637 0.0
H1038 H 0.28583 0.40406 0.19087 0.0
H1039 H 0.30424 0.39425 0.083 0.0
O1040 O 0.26002 0.39837 0.15173 0.0
C1041 C 0.27552 0.39656 0.04462 0.0
O1042 O 0.28197 0.40662 0.04286 0.0
N1043 N 0.2738 0.41933 0.13893 0.0
C1044 C 0.27879 0.44093 0.16807 0.0
C1045 C 0.26637 0.43428 0.18194 0.0
C1046 C 0.26403 0.42348 0.16688 0.0
C1047 C 0.28624 0.42553 0.1261 0.0
C1048 C 0.28902 0.43632 0.14043 0.0
H1049 H 0.25397 0.41882 0.17647 0.0
H1050 H 0.29373 0.42219 0.10347 0.0
H1051 H 0.23568 0.39842 0.08914 0.0
H1052 H 0.22971 0.43238 0.05738 0.0
H1053 H 0.31362 0.39498 0.20288 0.0
H1054 H 0.25804 0.43758 0.20282 0.0
H1055 H 0.29886 0.4411 0.12922 0.0
C1056 C 0.99177 0.10417 0.4859 0.0
C1057 C 1.00102 0.11141 0.46305 0.0
C1058 C 0.98938 0.10643 0.52527 0.0
C1059 C 0.99806 0.10813 0.61035 0.0
H1060 H 0.99653 0.13829 0.65343 0.0
C1061 C 0.02094 0.11897 0.76319 0.0
C1062 C 1.01429 0.1281 0.78325 0.0
C1063 C 1.01563 0.11615 0.72601 0.0
C1064 C 0.99666 0.12978 0.64209 0.0
H1065 H 1.01412 0.12709 0.46304 0.0
H1066 H 1.01016 0.13095 0.53161 0.0
H1067 H 0.99299 0.13561 0.58402 0.0
H1068 H 0.99596 0.1408 0.78165 0.0
H1069 H 0.98643 0.13571 0.7173 0.0
H1070 H 1.00175 0.10231 0.66844 0.0
C1071 C 1.00459 0.12357 0.51919 0.0
C1072 C 0.99484 0.12826 0.60211 0.0
C1073 C 1.00691 0.12135 0.47977 0.0
C1074 C 1.00148 0.13382 0.76664 0.0
C1075 C 0.99608 0.13094 0.72965 0.0
C1076 C 0.9998 0.10965 0.65037 0.0
C1077 C 0.99623 0.11596 0.54271 0.0
C1078 C 0.99592 0.11745 0.58561 0.0
C1079 C 1.00345 0.12234 0.70829 0.0
C1080 C 0.99952 0.12051 0.66663 0.0
H1081 H 0.98688 0.09651 0.47374 0.0
H1082 H 0.98258 0.10052 0.54233 0.0
H1083 H 0.99911 0.09969 0.59868 0.0
H1084 H 0.03088 0.11444 0.77515 0.0
H1085 H 0.0217 0.10954 0.71036 0.0
C1086 C 0.26564 0.1452 0.5123 0.0
C1087 C 0.26349 0.14039 0.47539 0.0
C1088 C 0.2691 0.13845 0.54432 0.0
C1089 C 0.26075 0.11094 0.58229 0.0
H1090 H 0.2916 0.11841 0.66116 0.0
C1091 C 0.26342 0.08573 0.72435 0.0
C1092 C 0.26658 0.09162 0.75886 0.0
C1093 C 0.26563 0.09085 0.68832 0.0
C1094 C 0.2828 0.11627 0.63969 0.0
H1095 H 0.26376 0.12482 0.44263 0.0
H1096 H 0.26935 0.11285 0.49938 0.0
H1097 H 0.29132 0.12876 0.59986 0.0
H1098 H 0.27488 0.10739 0.78284 0.0
H1099 H 0.278 0.11663 0.71984 0.0
H1100 H 0.2515 0.09899 0.6224 0.0
C1101 C 0.26853 0.12189 0.50318 0.0
C1102 C 0.28276 0.12213 0.60442 0.0
C1103 C 0.2654 0.12871 0.4708 0.0
C1104 C 0.27236 0.10267 0.75663 0.0
C1105 C 0.27425 0.10791 0.72043 0.0
C1106 C 0.2606 0.10521 0.61771 0.0
C1107 C 0.27019 0.12671 0.54033 0.0
C1108 C 0.27163 0.1196 0.57556 0.0
C1109 C 0.27069 0.10211 0.68573 0.0
C1110 C 0.27152 0.10786 0.64715 0.0
H1111 H 0.26436 0.1542 0.51659 0.0
H1112 H 0.27018 0.14239 0.57259 0.0
H1113 H 0.25185 0.10896 0.56083 0.0
H1114 H 0.25925 0.07711 0.72515 0.0
H1115 H 0.26323 0.08595 0.66247 0.0
C1116 C 0.04369 0.89233 0.50167 0.0
C1117 C 0.03926 0.88378 0.52777 0.0
C1118 C 0.04647 0.88987 0.46263 0.0
C1119 C 0.05393 0.86705 0.3921 0.0
H1120 H 0.02917 0.88557 0.32229 0.0
C1121 C 0.03565 0.85205 0.24014 0.0
C1122 C 0.03296 0.85992 0.21035 0.0
C1123 C 0.03987 0.85558 0.27734 0.0
C1124 C 0.03648 0.88045 0.34105 0.0
H1125 H 0.03539 0.86579 0.53367 0.0
H1126 H 0.04038 0.86149 0.46543 0.0
H1127 H 0.03068 0.89045 0.39071 0.0
H1128 H 0.03356 0.8777 0.1959 0.0
H1129 H 0.04135 0.88389 0.26075 0.0
H1130 H 0.05965 0.85698 0.34252 0.0
C1131 C 0.04162 0.87011 0.47529 0.0
C1132 C 0.03729 0.88324 0.3804 0.0
C1133 C 0.03871 0.87259 0.51438 0.0
C1134 C 0.03542 0.87141 0.21822 0.0
C1135 C 0.03978 0.87496 0.25551 0.0
C1136 C 0.05327 0.86432 0.35261 0.0
C1137 C 0.04505 0.87879 0.4488 0.0
C1138 C 0.04574 0.87644 0.40649 0.0
C1139 C 0.04167 0.8671 0.28582 0.0
C1140 C 0.04422 0.87083 0.3267 0.0
H1141 H 0.04438 0.90103 0.51091 0.0
H1142 H 0.04931 0.8967 0.44299 0.0
H1143 H 0.06069 0.86173 0.41148 0.0
H1144 H 0.03386 0.84314 0.23535 0.0
H1145 H 0.04096 0.84926 0.29985 0.0
C1146 C 0.76259 0.87544 0.51426 0.0
C1147 C 0.75656 0.86572 0.53206 0.0
C1148 C 0.75836 0.87814 0.47613 0.0
C1149 C 0.74488 0.86365 0.38744 0.0
H1150 H 0.74546 0.89392 0.34527 0.0
C1151 C 0.74301 0.88927 0.23086 0.0
C1152 C 0.7537 0.88255 0.21 0.0
C1153 C 0.73958 0.88687 0.26967 0.0
C1154 C 0.74497 0.88541 0.35649 0.0
H1155 H 0.74027 0.8518 0.52545 0.0
H1156 H 0.73251 0.8567 0.45945 0.0
H1157 H 0.74543 0.89124 0.41529 0.0
H1158 H 0.76847 0.86768 0.21288 0.0
H1159 H 0.76272 0.86359 0.28053 0.0
H1160 H 0.74438 0.85782 0.32869 0.0
C1161 C 0.74091 0.86203 0.47429 0.0
C1162 C 0.74517 0.88387 0.39674 0.0
C1163 C 0.74526 0.85927 0.51223 0.0
C1164 C 0.76015 0.873 0.22806 0.0
C1165 C 0.7568 0.87064 0.26694 0.0
C1166 C 0.74458 0.86519 0.34724 0.0
C1167 C 0.74789 0.87123 0.45519 0.0
C1168 C 0.74551 0.87297 0.41273 0.0
C1169 C 0.74682 0.87772 0.28856 0.0
C1170 C 0.74502 0.87608 0.3312 0.0
H1171 H 0.7714 0.88053 0.52871 0.0
H1172 H 0.76409 0.88524 0.46236 0.0
H1173 H 0.74531 0.85512 0.39855 0.0
H1174 H 0.73767 0.89661 0.2176 0.0
H1175 H 0.73157 0.89235 0.28515 0.0
C1176 C 1.01431 0.63826 0.27356 0.0
C1177 C 0.02731 0.64559 0.27218 0.0
C1178 C 1.00753 0.6342 0.239 0.0
C1179 C 1.00239 0.64211 0.13762 0.0
H1180 H 1.00227 0.61042 0.11037 0.0
C1181 C 1.00653 0.62694 0.98033 0.0
C1182 C 1.00002 0.61653 0.96948 0.0
C1183 C 1.0055 0.63071 0.01869 0.0
C1184 C 1.00182 0.61929 0.1177 0.0
H1185 H 0.04362 0.65407 0.23332 0.0
H1186 H 0.0317 0.64723 0.17409 0.0
H1187 H 1.00859 0.61612 0.17683 0.0
H1188 H 0.98613 0.60238 0.98977 0.0
H1189 H 0.98418 0.60903 0.05661 0.0
H1190 H 0.99604 0.6454 0.07864 0.0
C1191 C 0.02669 0.64466 0.20162 0.0
C1192 C 1.00546 0.62252 0.15579 0.0
C1193 C 0.03356 0.64853 0.23575 0.0
C1194 C 0.99149 0.61036 -0.00273 0.0
C1195 C 0.99043 0.61414 0.03567 0.0
C1196 C 0.9986 0.63889 0.09976 0.0
C1197 C 1.01351 0.63761 0.20278 0.0
C1198 C 1.00635 0.63398 0.16562 0.0
C1199 C 0.99784 0.6242 0.04714 0.0
C1200 C 0.99888 0.62747 0.08888 0.0
H1201 H 1.00922 0.63584 0.30114 0.0
H1202 H 0.99741 0.62869 0.24051 0.0
H1203 H 1.00287 0.651 0.14466 0.0
H1204 H 1.01322 0.63191 0.95978 0.0
H1205 H 1.01151 0.63844 0.02639 0.0
C1206 C 0.28973 0.63746 0.96717 0.0
C1207 C 0.27808 0.63044 0.95127 0.0
C1208 C 0.29587 0.63528 0.00406 0.0
C1209 C 0.29655 0.63402 0.09189 0.0
H1210 H 0.29896 0.60387 0.13465 0.0
C1211 C 0.28541 0.62442 0.2524 0.0
C1212 C 0.29181 0.61465 0.26912 0.0
C1213 C 0.28856 0.6271 0.2137 0.0
C1214 C 0.29871 0.61237 0.12323 0.0
H1215 H 0.2643 0.61532 0.96074 0.0
H1216 H 0.27467 0.61166 0.0252 0.0
H1217 H 0.29612 0.60635 0.06507 0.0
H1218 H 0.3078 0.60067 0.2598 0.0
H1219 H 0.31368 0.60554 0.19261 0.0
H1220 H 0.29917 0.64004 0.15009 0.0
C1221 C 0.27932 0.61875 0.0091 0.0
C1222 C 0.29683 0.61378 0.08326 0.0
C1223 C 0.27328 0.62088 0.97212 0.0
C1224 C 0.3025 0.60817 0.24748 0.0
C1225 C 0.30579 0.61092 0.20889 0.0
C1226 C 0.29859 0.63261 0.13185 0.0
C1227 C 0.29042 0.62607 0.02594 0.0
C1228 C 0.29515 0.62461 0.06724 0.0
C1229 C 0.29833 0.62014 0.19102 0.0
C1230 C 0.29914 0.62176 0.1482 0.0
H1231 H 0.29383 0.64481 0.95154 0.0
H1232 H 0.30463 0.64097 0.01579 0.0
H1233 H 0.29524 0.6425 0.0807 0.0
H1234 H 0.2771 0.62958 0.26827 0.0
H1235 H 0.28247 0.63422 0.20099 0.0
C1236 C 1.01853 0.4042 0.98012 0.0
C1237 C 1.01751 0.3974 0.01332 0.0
C1238 C 0.02331 0.39966 0.94474 0.0
C1239 C 0.04062 0.37404 0.89808 0.0
H1240 H 1.01923 0.38615 0.80782 0.0
C1241 C 0.02582 0.36079 0.72958 0.0
C1242 C 0.03993 0.35532 0.71992 0.0
C1243 C 0.02446 0.36678 0.7643 0.0
C1244 C 0.02523 0.38257 0.83266 0.0
H1245 H 0.02114 0.38063 0.03622 0.0
H1246 H 0.02875 0.37243 0.9737 0.0
H1247 H 1.01411 0.39415 0.87108 0.0
H1248 H 0.06412 0.35266 0.73782 0.0
H1249 H 0.06197 0.36356 0.79748 0.0
H1250 H 0.0509 0.36194 0.85972 0.0
C1251 C 0.02628 0.38137 0.97509 0.0
C1252 C 0.02251 0.38731 0.8691 0.0
C1253 C 0.02185 0.38602 0.0109 0.0
C1254 C 0.05299 0.35665 0.74455 0.0
C1255 C 0.0517 0.3628 0.77906 0.0
C1256 C 0.04314 0.36915 0.86162 0.0
C1257 C 0.02678 0.38811 0.94134 0.0
C1258 C 0.03013 0.38312 0.90241 0.0
C1259 C 0.03729 0.36769 0.78994 0.0
C1260 C 0.03539 0.37331 0.82842 0.0
H1261 H 1.01554 0.41308 0.98146 0.0
H1262 H 0.02408 0.40524 0.91994 0.0
H1263 H 0.04687 0.37066 0.92285 0.0
H1264 H 1.01561 0.36013 0.71101 0.0
H1265 H 1.01311 0.37032 0.7716 0.0
C1266 C 0.76529 0.35329 0.99326 0.0
C1267 C 0.76627 0.3415 -0.00591 0.0
C1268 C 0.76201 0.35888 0.95832 0.0
C1269 C 0.76529 0.35373 0.85238 0.0
H1270 H 0.7468 0.38353 0.84559 0.0
C1271 C 0.76509 0.37947 0.7094 0.0
C1272 C 0.77209 0.39009 0.71432 0.0
C1273 C 0.76055 0.37313 0.74192 0.0
C1274 C 0.75188 0.37516 0.84704 0.0
H1275 H 0.76318 0.32622 0.96046 0.0
H1276 H 0.75669 0.33586 0.90027 0.0
H1277 H 0.74539 0.37311 0.90666 0.0
H1278 H 0.77898 0.4027 0.75676 0.0
H1279 H 0.77095 0.39177 0.81289 0.0
H1280 H 0.77197 0.35589 0.79293 0.0
C1281 C 0.75916 0.34089 0.92578 0.0
C1282 C 0.75118 0.36922 0.88208 0.0
C1283 C 0.76276 0.33536 0.96035 0.0
C1284 C 0.7738 0.39447 0.75201 0.0
C1285 C 0.76903 0.38827 0.78422 0.0
C1286 C 0.76581 0.35962 0.81729 0.0
C1287 C 0.75936 0.35273 0.92383 0.0
C1288 C 0.75825 0.35854 0.88552 0.0
C1289 C 0.76262 0.37746 0.77965 0.0
C1290 C 0.7595 0.37051 0.81456 0.0
H1291 H 0.76801 0.35819 0.01894 0.0
H1292 H 0.76239 0.368 0.95801 0.0
H1293 H 0.77113 0.34564 0.85387 0.0
H1294 H 0.7636 0.37593 0.68065 0.0
H1295 H 0.75562 0.3648 0.73764 0.0
C1296 C 0.5044 0.13181 0.23943 0.0
C1297 C 0.4912 0.13807 0.25124 0.0
C1298 C 0.50521 0.12729 0.20197 0.0
C1299 C 0.50095 0.11465 0.12538 0.0
H1300 H 0.48893 0.13502 0.04238 0.0
C1301 C 0.50388 0.10131 0.96459 0.0
C1302 C 0.51136 0.10896 0.93948 0.0
C1303 C 0.49951 0.10456 0.00205 0.0
C1304 C 0.49233 0.12924 0.06523 0.0
H1305 H 0.4681 0.14392 0.23349 0.0
H1306 H 0.46951 0.13598 0.16834 0.0
H1307 H 0.48506 0.14066 0.10988 0.0
H1308 H 0.51938 0.12624 0.93357 0.0
H1309 H 0.51168 0.13193 -0.00109 0.0
H1310 H 0.50859 0.10335 0.08075 0.0
C1311 C 0.47933 0.13473 0.18788 0.0
C1312 C 0.48997 0.13242 0.10389 0.0
C1313 C 0.47849 0.1392 0.22538 0.0
C1314 C 0.51366 0.12011 0.95211 0.0
C1315 C 0.5092 0.12339 0.98956 0.0
C1316 C 0.50321 0.11144 0.08672 0.0
C1317 C 0.49284 0.12895 0.17546 0.0
C1318 C 0.49441 0.12521 0.13443 0.0
C1319 C 0.5024 0.11558 0.01524 0.0
C1320 C 0.49908 0.11875 0.0562 0.0
H1321 H 0.51435 0.1307 0.25869 0.0
H1322 H 0.51581 0.12291 0.19326 0.0
H1323 H 0.5044 0.10889 0.14823 0.0
H1324 H 0.50181 0.09267 0.95583 0.0
H1325 H 0.49406 0.0984 0.02093 0.0
C1326 C 0.79189 0.1063 0.26435 0.0
C1327 C 0.77952 0.11263 0.28037 0.0
C1328 C 0.79758 0.10875 0.22728 0.0
C1329 C 0.79718 0.10938 0.13966 0.0
H1330 H 0.79637 0.13919 0.09383 0.0
C1331 C 0.78618 0.11698 0.9772 0.0
C1332 C 0.7921 0.12679 0.95972 0.0
C1333 C 0.78894 0.11487 0.01654 0.0
C1334 C 0.79699 0.1308 0.10613 0.0
H1335 H 0.76408 0.12691 0.27116 0.0
H1336 H 0.77373 0.13105 0.20625 0.0
H1337 H 0.79395 0.13717 0.16376 0.0
H1338 H 0.80679 0.14149 0.96859 0.0
H1339 H 0.812 0.13764 0.0369 0.0
H1340 H 0.80024 0.10302 0.08203 0.0
C1341 C 0.77925 0.1243 0.22241 0.0
C1342 C 0.79536 0.12964 0.1463 0.0
C1343 C 0.77367 0.12192 0.25967 0.0
C1344 C 0.80189 0.13394 0.98146 0.0
C1345 C 0.80478 0.13177 0.02068 0.0
C1346 C 0.79893 0.11055 0.09953 0.0
C1347 C 0.79093 0.11751 0.20524 0.0
C1348 C 0.79499 0.1189 0.16346 0.0
C1349 C 0.79782 0.12245 0.0391 0.0
C1350 C 0.7984 0.12125 0.08212 0.0
H1351 H 0.79678 0.09918 0.27989 0.0
H1352 H 0.80685 0.10352 0.2154 0.0
H1353 H 0.79681 0.10095 0.15169 0.0
H1354 H 0.77852 0.11134 0.96128 0.0
H1355 H 0.78326 0.10765 0.02971 0.0
C1356 C 0.53947 0.88711 0.02127 0.0
C1357 C 0.52931 0.88041 0.0437 0.0
C1358 C 0.54466 0.88341 0.98492 0.0
C1359 C 0.54713 0.85809 0.92104 0.0
H1360 H 0.5459 0.88019 0.83815 0.0
C1361 C 0.53912 0.85848 0.74523 0.0
C1362 C 0.54822 0.84898 0.73575 0.0
C1363 C 0.53983 0.86318 0.78245 0.0
C1364 C 0.54628 0.8739 0.86092 0.0
H1365 H 0.51717 0.86435 0.04617 0.0
H1366 H 0.52601 0.85797 0.98273 0.0
H1367 H 0.54125 0.88613 0.90482 0.0
H1368 H 0.56631 0.83763 0.75692 0.0
H1369 H 0.56787 0.84601 0.82132 0.0
H1370 H 0.5513 0.84576 0.87702 0.0
C1371 C 0.53016 0.86603 0.99332 0.0
C1372 C 0.54381 0.87733 0.89929 0.0
C1373 C 0.52503 0.86972 0.02973 0.0
C1374 C 0.55895 0.84485 0.76336 0.0
C1375 C 0.55975 0.84959 0.80047 0.0
C1376 C 0.54952 0.85465 0.88268 0.0
C1377 C 0.53979 0.87292 0.97009 0.0
C1378 C 0.54394 0.86944 0.92979 0.0
C1379 C 0.5498 0.85856 0.81094 0.0
C1380 C 0.54887 0.86248 0.85201 0.0
H1381 H 0.54314 0.89535 0.03136 0.0
H1382 H 0.55232 0.88884 0.96819 0.0
H1383 H 0.54754 0.8518 0.9438 0.0
H1384 H 0.53086 0.86199 0.72455 0.0
H1385 H 0.53193 0.87005 0.78939 0.0
C1386 C 0.24598 0.88046 0.7183 0.0
C1387 C 0.25793 0.87439 0.69945 0.0
C1388 C 0.24137 0.8776 0.75595 0.0
C1389 C 0.24624 0.85602 0.83423 0.0
H1390 H 0.24247 0.88206 0.90169 0.0
C1391 C 0.25803 0.86767 0.00392 0.0
C1392 C 0.25222 0.85785 0.02156 0.0
C1393 C 0.255 0.86986 0.96475 0.0
C1394 C 0.24351 0.87469 0.88331 0.0
H1395 H 0.27374 0.86014 0.70424 0.0
H1396 H 0.26599 0.85527 0.77012 0.0
H1397 H 0.24416 0.88472 0.83191 0.0
H1398 H 0.2376 0.84309 0.01282 0.0
H1399 H 0.232 0.84703 0.94476 0.0
H1400 H 0.24664 0.84604 0.88586 0.0
C1401 C 0.25994 0.86214 0.75578 0.0
C1402 C 0.24425 0.8762 0.84312 0.0
C1403 C 0.26443 0.86493 0.71792 0.0
C1404 C 0.24243 0.85066 -8e-05 0.0
C1405 C 0.2393 0.85288 0.96081 0.0
C1406 C 0.24563 0.85451 0.87446 0.0
C1407 C 0.24874 0.86868 0.77578 0.0
C1408 C 0.24595 0.8669 0.81806 0.0
C1409 C 0.24595 0.86232 0.9424 0.0
C1410 C 0.2446 0.86385 0.89958 0.0
H1411 H 0.24063 0.88772 0.70455 0.0
H1412 H 0.23242 0.88264 0.77002 0.0
H1413 H 0.24733 0.84865 0.81585 0.0
H1414 H 0.26567 0.87336 0.0197 0.0
H1415 H 0.26047 0.87715 0.95157 0.0
C1416 C 0.52512 0.65171 0.73125 0.0
C1417 C 0.51942 0.64738 0.76655 0.0
C1418 C 0.52178 0.64639 0.69623 0.0
C1419 C 0.51362 0.61975 0.65073 0.0
H1420 H 0.50059 0.63869 0.56466 0.0
C1421 C 0.51163 0.60302 0.4927 0.0
C1422 C 0.51881 0.61013 0.4652 0.0
C1423 C 0.50809 0.60698 0.52998 0.0
C1424 C 0.50424 0.63327 0.58831 0.0
H1425 H 0.50591 0.63387 0.79262 0.0
H1426 H 0.50039 0.62427 0.73054 0.0
H1427 H 0.50113 0.6464 0.63026 0.0
H1428 H 0.52725 0.62712 0.45496 0.0
H1429 H 0.5212 0.63398 0.5197 0.0
H1430 H 0.51754 0.60679 0.6085 0.0
C1431 C 0.50731 0.63193 0.73052 0.0
C1432 C 0.50446 0.63767 0.62589 0.0
C1433 C 0.51046 0.63741 0.76592 0.0
C1434 C 0.52172 0.62141 0.47532 0.0
C1435 C 0.51816 0.62536 0.5125 0.0
C1436 C 0.51349 0.61535 0.61296 0.0
C1437 C 0.51279 0.6365 0.69533 0.0
C1438 C 0.50964 0.63108 0.65729 0.0
C1439 C 0.51156 0.61816 0.54055 0.0
C1440 C 0.5093 0.62219 0.58114 0.0
H1441 H 0.53206 0.65935 0.73037 0.0
H1442 H 0.5264 0.64999 0.66968 0.0
H1443 H 0.51775 0.61452 0.67439 0.0
H1444 H 0.50916 0.59429 0.48588 0.0
H1445 H 0.50284 0.60125 0.55069 0.0
C1446 C 0.76391 0.61494 0.76778 0.0
C1447 C 0.7588 0.6038 0.7624 0.0
C1448 C 0.76888 0.62136 0.73582 0.0
C1449 C 0.7825 0.61947 0.63404 0.0
H1450 H 0.75815 0.64665 0.6177 0.0
C1451 C 0.77401 0.63934 0.48192 0.0
C1452 C 0.77089 0.65092 0.47944 0.0
C1453 C 0.77583 0.63419 0.5183 0.0
C1454 C 0.7654 0.63926 0.62193 0.0
H1455 H 0.75588 0.59037 0.72027 0.0
H1456 H 0.76482 0.60142 0.66509 0.0
H1457 H 0.75637 0.63682 0.67934 0.0
H1458 H 0.76851 0.66639 0.51236 0.0
H1459 H 0.7725 0.65762 0.5753 0.0
H1460 H 0.79148 0.62182 0.57658 0.0
C1461 C 0.76485 0.60528 0.6936 0.0
C1462 C 0.76433 0.63361 0.65742 0.0
C1463 C 0.75959 0.59899 0.72517 0.0
C1464 C 0.77061 0.65738 0.51357 0.0
C1465 C 0.77279 0.65232 0.5497 0.0
C1466 C 0.78377 0.62521 0.59867 0.0
C1467 C 0.76921 0.6166 0.69835 0.0
C1468 C 0.77256 0.62352 0.66349 0.0
C1469 C 0.77489 0.64059 0.55279 0.0
C1470 C 0.77494 0.63505 0.59175 0.0
H1471 H 0.76342 0.61882 0.79624 0.0
H1472 H 0.7722 0.63008 0.7402 0.0
H1473 H 0.78903 0.61172 0.63809 0.0
H1474 H 0.77424 0.63419 0.45594 0.0
H1475 H 0.77728 0.62513 0.51933 0.0
C1476 C 0.52664 0.37302 0.22545 0.0
C1477 C 0.53334 0.36361 0.20707 0.0
C1478 C 0.53095 0.37583 0.26341 0.0
C1479 C 0.54629 0.36178 0.35094 0.0
H1480 H 0.54305 0.39186 0.39404 0.0
C1481 C 0.54542 0.38715 0.50805 0.0
C1482 C 0.53529 0.37991 0.52845 0.0
C1483 C 0.54932 0.38495 0.46939 0.0
C1484 C 0.54431 0.38341 0.38256 0.0
H1485 H 0.55086 0.35042 0.21246 0.0
H1486 H 0.55875 0.35553 0.27818 0.0
H1487 H 0.54317 0.38934 0.32397 0.0
H1488 H 0.52205 0.36433 0.52502 0.0
H1489 H 0.52856 0.36059 0.45754 0.0
H1490 H 0.54746 0.35584 0.40949 0.0
C1491 C 0.54977 0.36051 0.26391 0.0
C1492 C 0.54416 0.38196 0.34229 0.0
C1493 C 0.54534 0.35763 0.22614 0.0
C1494 C 0.52992 0.37006 0.51017 0.0
C1495 C 0.53372 0.3679 0.4714 0.0
C1496 C 0.54657 0.36323 0.39118 0.0
C1497 C 0.54218 0.36936 0.2836 0.0
C1498 C 0.54471 0.3711 0.32598 0.0
C1499 C 0.54309 0.37549 0.45018 0.0
C1500 C 0.54513 0.37404 0.40754 0.0
H1501 H 0.51731 0.37775 0.21158 0.0
H1502 H 0.52474 0.38263 0.27766 0.0
H1503 H 0.54659 0.35327 0.33957 0.0
H1504 H 0.54993 0.39474 0.52155 0.0
H1505 H 0.55685 0.39084 0.45422 0.0
C1506 C 0.26068 0.35857 0.4961 0.0
C1507 C 0.24757 0.35273 0.51069 0.0
C1508 C 0.25994 0.3639 0.45999 0.0
C1509 C 0.2349 0.37651 0.38729 0.0
H1510 H 0.26385 0.36401 0.31173 0.0
C1511 C 0.25997 0.38652 0.22314 0.0
C1512 C 0.24623 0.39095 0.20643 0.0
C1513 C 0.25962 0.38168 0.26005 0.0
C1514 C 0.25585 0.36777 0.33247 0.0
H1515 H 0.22298 0.34882 0.50047 0.0
H1516 H 0.2216 0.35853 0.43793 0.0
H1517 H 0.26447 0.3573 0.37851 0.0
H1518 H 0.22109 0.39295 0.21423 0.0
H1519 H 0.22029 0.38394 0.27759 0.0
H1520 H 0.22665 0.38732 0.34208 0.0
C1521 C 0.23252 0.35869 0.45414 0.0
C1522 C 0.25619 0.36387 0.37068 0.0
C1523 C 0.23335 0.35314 0.48987 0.0
C1524 C 0.23195 0.38978 0.22649 0.0
C1525 C 0.23153 0.38471 0.26311 0.0
C1526 C 0.23478 0.38061 0.34923 0.0
C1527 C 0.24596 0.36377 0.43839 0.0
C1528 C 0.24572 0.3682 0.39835 0.0
C1529 C 0.24543 0.38085 0.28086 0.0
C1530 C 0.24525 0.37628 0.32122 0.0
H1531 H 0.27172 0.35863 0.51165 0.0
H1532 H 0.27039 0.36791 0.44851 0.0
H1533 H 0.22674 0.37997 0.40829 0.0
H1534 H 0.27114 0.38712 0.20836 0.0
H1535 H 0.27063 0.37893 0.27266 0.0
C1536 C 0.08365 0.10481 0.36324 0.0
C1537 C 0.07417 0.108 0.39478 0.0
C1538 C 0.09858 0.10963 0.35821 0.0
C1539 C 0.12242 0.13444 0.38568 0.0
H1540 H 0.15848 0.11482 0.37219 0.0
C1541 C 0.18487 0.15045 0.41515 0.0
C1542 C 0.19704 0.1471 0.39016 0.0
C1543 C 0.17006 0.14541 0.41294 0.0
C1544 C 0.14854 0.12045 0.3754 0.0
H1545 H 0.07253 0.11907 0.44463 0.0
H1546 H 0.09834 0.12752 0.43579 0.0
H1547 H 0.13195 0.10687 0.37084 0.0
H1548 H 0.20325 0.13564 0.3436 0.0
H1549 H 0.17731 0.12685 0.33949 0.0
H1550 H 0.13882 0.14801 0.39036 0.0
C1551 C 0.09439 0.12127 0.41503 0.0
C1552 C 0.13334 0.11588 0.37457 0.0
C1553 C 0.07965 0.11636 0.4203 0.0
C1554 C 0.19417 0.13833 0.36355 0.0
C1555 C 0.17928 0.13331 0.36117 0.0
C1556 C 0.13755 0.139 0.38629 0.0
C1557 C 0.10412 0.11789 0.38424 0.0
C1558 C 0.12013 0.12281 0.38051 0.0
C1559 C 0.16696 0.13692 0.38545 0.0
C1560 C 0.15084 0.13204 0.38201 0.0
H1561 H 0.07972 0.09834 0.34329 0.0
H1562 H 0.1058 0.10691 0.33408 0.0
H1563 H 0.11248 0.14002 0.38968 0.0
H1564 H 0.18678 0.15703 0.43641 0.0
H1565 H 0.16101 0.1482 0.43285 0.0
C1566 C 0.10368 0.14163 0.81506 0.0
C1567 C 0.0915 0.13884 0.84086 0.0
C1568 C 0.11892 0.13757 0.8209 0.0
C1569 C 0.14504 0.1237 0.89394 0.0
H1570 H 0.16793 0.11414 0.8023 0.0
C1571 C 0.1976 0.09297 0.899 0.0
C1572 C 0.21048 0.0949 0.87434 0.0
C1573 C 0.18414 0.09968 0.8967 0.0
C1574 C 0.16182 0.11692 0.82815 0.0
H1575 H 0.08583 0.12978 0.89351 0.0
H1576 H 0.11238 0.12242 0.90343 0.0
H1577 H 0.14234 0.12308 0.79518 0.0
H1578 H 0.2195 0.10556 0.82855 0.0
H1579 H 0.19579 0.11733 0.82416 0.0
H1580 H 0.16438 0.11713 0.92685 0.0
C1581 C 0.11026 0.12795 0.87898 0.0
C1582 C 0.1471 0.12208 0.82413 0.0
C1583 C 0.09501 0.13214 0.87332 0.0
C1584 C 0.20977 0.10391 0.84796 0.0
C1585 C 0.19616 0.11057 0.84529 0.0
C1586 C 0.15971 0.11845 0.89795 0.0
C1587 C 0.12239 0.13048 0.85252 0.0
C1588 C 0.13842 0.12546 0.85697 0.0
C1589 C 0.18313 0.10845 0.86942 0.0
C1590 C 0.1682 0.1149 0.86512 0.0
H1591 H 0.1014 0.14696 0.79019 0.0
H1592 H 0.12798 0.13996 0.80043 0.0
H1593 H 0.1389 0.12636 0.91988 0.0
H1594 H 0.19787 0.08618 0.91997 0.0
H1595 H 0.1743 0.09775 0.91548 0.0
C1596 C 0.84306 0.8561 0.62574 0.0
C1597 C 0.83385 0.86112 0.59651 0.0
C1598 C 0.85867 0.85956 0.63159 0.0
C1599 C 0.89082 0.87154 0.57525 0.0
H1600 H 0.91105 0.87907 0.6728 0.0
C1601 C 0.94951 0.89409 0.57512 0.0
C1602 C 0.9614 0.89024 0.60003 0.0
C1603 C 0.93407 0.89046 0.57968 0.0
C1604 C 0.90559 0.87685 0.64544 0.0
H1605 H 0.8333 0.87431 0.55304 0.0
H1606 H 0.86035 0.88023 0.56295 0.0
H1607 H 0.88351 0.87274 0.67242 0.0
H1608 H 0.96636 0.88003 0.65061 0.0
H1609 H 0.9391 0.87346 0.6585 0.0
H1610 H 0.91261 0.87554 0.54802 0.0
C1611 C 0.8557 0.87348 0.58075 0.0
C1612 C 0.88986 0.87325 0.64524 0.0
C1613 C 0.84022 0.87007 0.57501 0.0
C1614 C 0.95738 0.8831 0.63102 0.0
C1615 C 0.94181 0.87936 0.63548 0.0
C1616 C 0.90642 0.87505 0.57545 0.0
C1617 C 0.86525 0.86805 0.60823 0.0
C1618 C 0.88224 0.87085 0.60996 0.0
C1619 C 0.93009 0.88278 0.60911 0.0
C1620 C 0.9139 0.87805 0.61035 0.0
H1621 H 0.83846 0.84918 0.64273 0.0
H1622 H 0.86579 0.85524 0.65303 0.0
H1623 H 0.88537 0.86947 0.54771 0.0
H1624 H 0.95221 0.89983 0.55161 0.0
H1625 H 0.92526 0.89354 0.5596 0.0
C1626 C 0.94569 0.85443 0.10991 0.0
C1627 C 0.95537 0.8589 0.13925 0.0
C1628 C 0.9303 0.85851 0.10478 0.0
C1629 C 0.89936 0.87185 0.16289 0.0
H1630 H 0.87871 0.87921 0.06575 0.0
C1631 C 0.84146 0.89573 0.16398 0.0
C1632 C 0.82926 0.89201 0.13968 0.0
C1633 C 0.85674 0.89175 0.15911 0.0
C1634 C 0.88428 0.87706 0.09304 0.0
H1635 H 0.95705 0.87176 0.1837 0.0
H1636 H 0.93048 0.87883 0.17482 0.0
H1637 H 0.90586 0.87206 0.06531 0.0
H1638 H 0.82367 0.88163 0.08987 0.0
H1639 H 0.85061 0.87449 0.08145 0.0
H1640 H 0.87805 0.87672 0.19084 0.0
C1641 C 0.93451 0.872 0.15645 0.0
C1642 C 0.8998 0.87298 0.09277 0.0
C1643 C 0.94974 0.86795 0.16155 0.0
C1644 C 0.83287 0.88463 0.10899 0.0
C1645 C 0.84827 0.88055 0.10422 0.0
C1646 C 0.88396 0.87585 0.16316 0.0
C1647 C 0.92441 0.8671 0.12892 0.0
C1648 C 0.9076 0.87058 0.12784 0.0
C1649 C 0.86029 0.88385 0.12998 0.0
C1650 C 0.87631 0.87877 0.1284 0.0
H1651 H 0.94972 0.84743 0.09234 0.0
H1652 H 0.92279 0.85459 0.08325 0.0
H1653 H 0.90487 0.86978 0.19034 0.0
H1654 H 0.83911 0.90163 0.18725 0.0
H1655 H 0.86578 0.89474 0.17874 0.0
C1656 C 0.18782 0.64201 0.92094 0.0
C1657 C 0.19926 0.63863 0.89391 0.0
C1658 C 0.17241 0.63808 0.91825 0.0
C1659 C 0.14299 0.62487 0.85346 0.0
H1660 H 0.12397 0.61658 0.95165 0.0
C1661 C 0.08069 0.60383 0.87196 0.0
C1662 C 0.07176 0.60801 0.90316 0.0
C1663 C 0.09628 0.60744 0.86644 0.0
C1664 C 0.12904 0.61893 0.92397 0.0
H1665 H 0.20325 0.62876 0.84191 0.0
H1666 H 0.17614 0.62181 0.83723 0.0
H1667 H 0.15107 0.62296 0.95023 0.0
H1668 H 0.07168 0.61994 0.95082 0.0
H1669 H 0.09857 0.62619 0.9413 0.0
H1670 H 0.12071 0.62077 0.82742 0.0
C1671 C 0.17919 0.62756 0.86047 0.0
C1672 C 0.1446 0.62261 0.92316 0.0
C1673 C 0.19471 0.63153 0.86314 0.0
C1674 C 0.07839 0.61632 0.92719 0.0
C1675 C 0.09382 0.6199 0.92173 0.0
C1676 C 0.12732 0.62113 0.85428 0.0
C1677 C 0.16794 0.63062 0.88851 0.0
C1678 C 0.1517 0.62588 0.88809 0.0
C1679 C 0.10313 0.61529 0.89205 0.0
C1680 C 0.12008 0.61837 0.88974 0.0
H1681 H 0.19079 0.6477 0.94439 0.0
H1682 H 0.16397 0.64088 0.93973 0.0
H1683 H 0.14811 0.62731 0.82595 0.0
H1684 H 0.07589 0.59742 0.85299 0.0
H1685 H 0.10316 0.60375 0.84324 0.0
C1686 C 0.09621 0.63711 0.3802 0.0
C1687 C 0.09315 0.64638 0.35592 0.0
C1688 C 0.11042 0.63114 0.37703 0.0
C1689 C 0.14328 0.62546 0.30965 0.0
H1690 H 0.16831 0.62054 0.40222 0.0
C1691 C 0.20902 0.61521 0.29884 0.0
C1692 C 0.21572 0.60748 0.32493 0.0
C1693 C 0.19364 0.61907 0.30394 0.0
C1694 C 0.1614 0.62167 0.37612 0.0
H1695 H 0.10221 0.65636 0.30837 0.0
H1696 H 0.12678 0.64593 0.30243 0.0
H1697 H 0.14179 0.62834 0.40797 0.0
H1698 H 0.21152 0.59785 0.37732 0.0
H1699 H 0.18449 0.60449 0.38612 0.0
H1700 H 0.16271 0.61883 0.27766 0.0
C1701 C 0.11833 0.64328 0.32408 0.0
C1702 C 0.14618 0.62615 0.37944 0.0
C1703 C 0.10431 0.64931 0.32763 0.0
C1704 C 0.20673 0.60386 0.35684 0.0
C1705 C 0.19124 0.60768 0.36185 0.0
C1706 C 0.15838 0.62092 0.30633 0.0
C1707 C 0.12167 0.63421 0.34902 0.0
C1708 C 0.13709 0.62831 0.34615 0.0
C1709 C 0.18442 0.61524 0.33516 0.0
C1710 C 0.16782 0.6192 0.33941 0.0
H1711 H 0.08786 0.63472 0.40244 0.0
H1712 H 0.11262 0.62415 0.39652 0.0
H1713 H 0.13647 0.62684 0.28349 0.0
H1714 H 0.21571 0.61837 0.27447 0.0
H1715 H 0.18903 0.62514 0.2834 0.0
C1716 C 0.93735 0.39799 0.12638 0.0
C1717 C 0.95227 0.39325 0.11962 0.0
C1718 C 0.92379 0.39138 0.12523 0.0
C1719 C 0.90828 0.36447 0.08621 0.0
H1720 H 0.87325 0.37119 0.15442 0.0
C1721 C 0.85168 0.33726 0.09011 0.0
C1722 C 0.83713 0.34291 0.09237 0.0
C1723 C 0.86587 0.3431 0.09439 0.0
C1724 C 0.88285 0.36927 0.13489 0.0
H1725 H 0.96454 0.37764 0.1074 0.0
H1726 H 0.94078 0.36596 0.10612 0.0
H1727 H 0.8979 0.38141 0.16192 0.0
H1728 H 0.82639 0.35933 0.10076 0.0
H1729 H 0.85112 0.36948 0.10859 0.0
H1730 H 0.89319 0.35228 0.05933 0.0
C1731 C 0.93961 0.37491 0.11167 0.0
C1732 C 0.89703 0.37513 0.13919 0.0
C1733 C 0.95327 0.38157 0.11282 0.0
C1734 C 0.83725 0.35462 0.09924 0.0
C1735 C 0.85147 0.36046 0.10375 0.0
C1736 C 0.89411 0.35856 0.08206 0.0
C1737 C 0.92465 0.37976 0.11753 0.0
C1738 C 0.90991 0.37291 0.11464 0.0
C1739 C 0.86598 0.35477 0.10132 0.0
C1740 C 0.88116 0.36095 0.10612 0.0
H1741 H 0.93609 0.40689 0.13241 0.0
H1742 H 0.91255 0.39548 0.12945 0.0
H1743 H 0.91781 0.36262 0.06638 0.0
H1744 H 0.85222 0.32825 0.08571 0.0
H1745 H 0.87678 0.33841 0.09298 0.0
C1746 C 0.95237 0.36176 0.67263 0.0
C1747 C 0.95866 0.35349 0.64792 0.0
C1748 C 0.93702 0.36562 0.66773 0.0
C1749 C 0.90375 0.36756 0.59909 0.0
H1750 H 0.8803 0.37247 0.69417 0.0
C1751 C 0.83879 0.38373 0.60244 0.0
C1752 C 0.83639 0.39285 0.62786 0.0
C1753 C 0.8529 0.37758 0.60355 0.0
C1754 C 0.88668 0.37116 0.66734 0.0
H1755 H 0.95392 0.3431 0.59757 0.0
H1756 H 0.92683 0.34987 0.58887 0.0
H1757 H 0.90661 0.36447 0.69726 0.0
H1758 H 0.84655 0.4024 0.67516 0.0
H1759 H 0.87095 0.39169 0.67746 0.0
H1760 H 0.88369 0.3744 0.56934 0.0
C1761 C 0.9339 0.35336 0.6121 0.0
C1762 C 0.9018 0.36661 0.66909 0.0
C1763 C 0.9494 0.3495 0.617 0.0
C1764 C 0.84812 0.39547 0.65508 0.0
C1765 C 0.86205 0.38927 0.65655 0.0
C1766 C 0.88851 0.37209 0.59734 0.0
C1767 C 0.92743 0.3613 0.63802 0.0
C1768 C 0.91072 0.36504 0.63513 0.0
C1769 C 0.86471 0.38033 0.63058 0.0
C1770 C 0.87998 0.3742 0.63157 0.0
H1771 H 0.95932 0.36522 0.69612 0.0
H1772 H 0.93264 0.37199 0.68748 0.0
H1773 H 0.91029 0.36647 0.57239 0.0
H1774 H 0.82998 0.3816 0.58096 0.0
H1775 H 0.85458 0.3707 0.58329 0.0
C1776 C 0.60036 0.09577 0.9069 0.0
C1777 C 0.58883 0.09914 0.88013 0.0
C1778 C 0.61584 0.09947 0.90338 0.0
C1779 C 0.6451 0.11241 0.83727 0.0
H1780 H 0.66473 0.12059 0.93492 0.0
C1781 C 0.70736 0.13371 0.8554 0.0
C1782 C 0.71649 0.12935 0.886 0.0
C1783 C 0.69182 0.13 0.8498 0.0
C1784 C 0.65948 0.11827 0.90739 0.0
H1785 H 0.58468 0.10871 0.8276 0.0
H1786 H 0.61193 0.11536 0.82152 0.0
H1787 H 0.63758 0.11435 0.93429 0.0
H1788 H 0.71696 0.11703 0.93238 0.0
H1789 H 0.69011 0.11063 0.92279 0.0
H1790 H 0.66726 0.11648 0.81059 0.0
C1791 C 0.60892 0.10976 0.84519 0.0
C1792 C 0.64389 0.11466 0.90702 0.0
C1793 C 0.59333 0.10597 0.84864 0.0
C1794 C 0.71011 0.12076 0.90922 0.0
C1795 C 0.69471 0.11709 0.90372 0.0
C1796 C 0.6608 0.11611 0.83764 0.0
C1797 C 0.62028 0.10676 0.8731 0.0
C1798 C 0.63657 0.11142 0.87215 0.0
C1799 C 0.6852 0.12189 0.87478 0.0
C1800 C 0.66824 0.11883 0.8729 0.0
H1801 H 0.59738 0.09028 0.93089 0.0
H1802 H 0.62435 0.09669 0.92474 0.0
H1803 H 0.63981 0.10999 0.8099 0.0
H1804 H 0.71196 0.14034 0.83707 0.0
H1805 H 0.68477 0.13383 0.82718 0.0
C1806 C 0.68906 0.10151 0.30194 0.0
C1807 C 0.70023 0.10375 0.33099 0.0
C1808 C 0.67373 0.10555 0.30508 0.0
C1809 C 0.64373 0.11694 0.37193 0.0
H1810 H 0.6269 0.12935 0.27638 0.0
C1811 C 0.58247 0.13954 0.35772 0.0
C1812 C 0.57382 0.13681 0.32415 0.0
C1813 C 0.59792 0.13558 0.3625 0.0
C1814 C 0.63135 0.12584 0.30327 0.0
H1815 H 0.70381 0.11157 0.38711 0.0
H1816 H 0.67679 0.11874 0.39266 0.0
H1817 H 0.65371 0.12233 0.27789 0.0
H1818 H 0.57429 0.12712 0.27077 0.0
H1819 H 0.60098 0.12032 0.27895 0.0
H1820 H 0.62113 0.12049 0.3971 0.0
C1821 C 0.68 0.11381 0.36742 0.0
C1822 C 0.64674 0.1218 0.30413 0.0
C1823 C 0.69546 0.10971 0.36428 0.0
C1824 C 0.58073 0.12966 0.29642 0.0
C1825 C 0.59606 0.12574 0.30114 0.0
C1826 C 0.62822 0.12103 0.37107 0.0
C1827 C 0.66908 0.11199 0.33733 0.0
C1828 C 0.65304 0.11707 0.33816 0.0
C1829 C 0.605 0.12883 0.33376 0.0
C1830 C 0.62177 0.12529 0.33642 0.0
H1831 H 0.69222 0.09669 0.27643 0.0
H1832 H 0.66551 0.1037 0.28189 0.0
H1833 H 0.64824 0.11335 0.39861 0.0
H1834 H 0.57752 0.14504 0.3796 0.0
H1835 H 0.60451 0.13811 0.38797 0.0
C1836 C 0.33275 0.86259 0.06756 0.0
C1837 C 0.32627 0.85483 0.09382 0.0
C1838 C 0.34783 0.86688 0.07314 0.0
C1839 C 0.38015 0.87114 0.14309 0.0
H1840 H 0.40512 0.87151 0.04896 0.0
C1841 C 0.44721 0.88331 0.13438 0.0
C1842 C 0.45141 0.88984 0.10193 0.0
C1843 C 0.43185 0.87905 0.13805 0.0
C1844 C 0.3983 0.87156 0.07549 0.0
H1845 H 0.33029 0.84592 0.1478 0.0
H1846 H 0.35693 0.85345 0.15766 0.0
H1847 H 0.37856 0.86408 0.04719 0.0
H1848 H 0.4425 0.89781 0.04978 0.0
H1849 H 0.41597 0.89053 0.05617 0.0
H1850 H 0.40011 0.87873 0.17119 0.0
C1851 C 0.35021 0.85619 0.13268 0.0
C1852 C 0.38304 0.8673 0.07448 0.0
C1853 C 0.33498 0.85189 0.12707 0.0
C1854 C 0.43977 0.89255 0.07454 0.0
C1855 C 0.42454 0.88836 0.07821 0.0
C1856 C 0.39554 0.87544 0.14411 0.0
C1857 C 0.35695 0.8635 0.10513 0.0
C1858 C 0.37362 0.86726 0.10797 0.0
C1859 C 0.42048 0.88129 0.10934 0.0
C1860 C 0.40464 0.87593 0.11004 0.0
H1861 H 0.3262 0.86527 0.04223 0.0
H1862 H 0.35248 0.87274 0.05193 0.0
H1863 H 0.37319 0.8712 0.1694 0.0
H1864 H 0.45595 0.88109 0.15592 0.0
H1865 H 0.42907 0.87364 0.16242 0.0
C1866 C 0.45714 0.85534 0.60905 0.0
C1867 C 0.46639 0.86072 0.63741 0.0
C1868 C 0.44148 0.85868 0.60305 0.0
C1869 C 0.40952 0.86979 0.66 0.0
H1870 H 0.38812 0.87795 0.56462 0.0
C1871 C 0.34858 0.88914 0.66685 0.0
C1872 C 0.33717 0.88558 0.64014 0.0
C1873 C 0.36435 0.88642 0.66144 0.0
C1874 C 0.39389 0.87555 0.59139 0.0
H1875 H 0.46701 0.87447 0.67884 0.0
H1876 H 0.43981 0.88012 0.66888 0.0
H1877 H 0.41601 0.87247 0.56286 0.0
H1878 H 0.33328 0.87684 0.58591 0.0
H1879 H 0.36106 0.87173 0.5767 0.0
H1880 H 0.3877 0.87256 0.68874 0.0
C1881 C 0.44452 0.87324 0.65175 0.0
C1882 C 0.40983 0.87244 0.59034 0.0
C1883 C 0.46006 0.86997 0.65754 0.0
C1884 C 0.34192 0.87966 0.60685 0.0
C1885 C 0.35779 0.87677 0.60163 0.0
C1886 C 0.39369 0.87274 0.66102 0.0
C1887 C 0.43492 0.8674 0.62545 0.0
C1888 C 0.41783 0.8698 0.62485 0.0
C1889 C 0.36913 0.87987 0.6295 0.0
C1890 C 0.38574 0.87594 0.62696 0.0
H1891 H 0.46169 0.84819 0.59313 0.0
H1892 H 0.43427 0.85405 0.58259 0.0
H1893 H 0.41534 0.86754 0.68691 0.0
H1894 H 0.34523 0.89393 0.6923 0.0
H1895 H 0.37278 0.8893 0.68281 0.0
C1896 C 0.60645 0.59663 0.41592 0.0
C1897 C 0.59347 0.60047 0.39444 0.0
C1898 C 0.62145 0.60104 0.40946 0.0
C1899 C 0.64498 0.61893 0.34117 0.0
H1900 H 0.67099 0.6234 0.43242 0.0
C1901 C 0.6971 0.65013 0.34755 0.0
C1902 C 0.71092 0.64675 0.36671 0.0
C1903 C 0.68374 0.64329 0.34781 0.0
C1904 C 0.66398 0.62206 0.40656 0.0
H1905 H 0.58606 0.61178 0.34877 0.0
H1906 H 0.61216 0.61984 0.33813 0.0
H1907 H 0.64575 0.61395 0.43867 0.0
H1908 H 0.72167 0.63345 0.40049 0.0
H1909 H 0.6981 0.62148 0.40156 0.0
H1910 H 0.66307 0.62754 0.30954 0.0
C1911 C 0.61089 0.61319 0.35942 0.0
C1912 C 0.64947 0.6166 0.41005 0.0
C1913 C 0.59589 0.60861 0.36551 0.0
C1914 C 0.7112 0.63623 0.38541 0.0
C1915 C 0.6977 0.62944 0.38621 0.0
C1916 C 0.65942 0.62452 0.3378 0.0
C1917 C 0.62387 0.60959 0.38176 0.0
C1918 C 0.63968 0.61501 0.37746 0.0
C1919 C 0.68377 0.63295 0.36766 0.0
C1920 C 0.66903 0.62622 0.37052 0.0
H1921 H 0.60496 0.59021 0.43795 0.0
H1922 H 0.63113 0.59778 0.4265 0.0
H1923 H 0.63799 0.6177 0.31525 0.0
H1924 H 0.6966 0.65813 0.33252 0.0
H1925 H 0.67319 0.64628 0.33351 0.0
C1926 C 0.57868 0.64143 0.87742 0.0
C1927 C 0.57808 0.65283 0.86632 0.0
C1928 C 0.5928 0.63539 0.87571 0.0
C1929 C 0.63276 0.63578 0.8317 0.0
H1930 H 0.64199 0.61432 0.91345 0.0
C1931 C 0.69291 0.6126 0.84518 0.0
C1932 C 0.69205 0.60097 0.85294 0.0
C1933 C 0.67939 0.61936 0.8472 0.0
C1934 C 0.63955 0.62023 0.89024 0.0
H1935 H 0.59201 0.66669 0.8438 0.0
H1936 H 0.61662 0.65628 0.84184 0.0
H1937 H 0.61767 0.62513 0.91571 0.0
H1938 H 0.67637 0.58744 0.86998 0.0
H1939 H 0.65295 0.59914 0.87323 0.0
H1940 H 0.65476 0.63087 0.80642 0.0
C1941 C 0.60612 0.65195 0.85148 0.0
C1942 C 0.62556 0.62641 0.89145 0.0
C1943 C 0.59199 0.65798 0.85307 0.0
C1944 C 0.67744 0.59632 0.86326 0.0
C1945 C 0.66401 0.60306 0.86559 0.0
C1946 C 0.64682 0.62963 0.83061 0.0
C1947 C 0.60675 0.64058 0.86297 0.0
C1948 C 0.62188 0.6342 0.86201 0.0
C1949 C 0.66479 0.61465 0.85752 0.0
C1950 C 0.6503 0.62169 0.85967 0.0
H1951 H 0.56831 0.63716 0.88809 0.0
H1952 H 0.59275 0.6266 0.88425 0.0
H1953 H 0.63027 0.6416 0.80826 0.0
H1954 H 0.70397 0.61642 0.837 0.0
H1955 H 0.6804 0.62828 0.84106 0.0
C1956 C 0.45058 0.38644 0.629 0.0
C1957 C 0.45969 0.38314 0.59684 0.0
C1958 C 0.43513 0.38242 0.63342 0.0
C1959 C 0.40287 0.37181 0.57243 0.0
H1960 H 0.38364 0.36093 0.66732 0.0
C1961 C 0.34507 0.34803 0.56592 0.0
C1962 C 0.33308 0.35101 0.59197 0.0
C1963 C 0.36042 0.35179 0.57151 0.0
C1964 C 0.38882 0.36407 0.64072 0.0
H1965 H 0.46022 0.37234 0.54614 0.0
H1966 H 0.43356 0.36538 0.55378 0.0
H1967 H 0.4109 0.36787 0.66838 0.0
H1968 H 0.32797 0.35974 0.64566 0.0
H1969 H 0.35508 0.36648 0.65551 0.0
H1970 H 0.38108 0.36808 0.54457 0.0
C1971 C 0.43808 0.37129 0.57502 0.0
C1972 C 0.40441 0.36803 0.64133 0.0
C1973 C 0.45338 0.37528 0.57062 0.0
C1974 C 0.337 0.35734 0.62513 0.0
C1975 C 0.35248 0.36118 0.6307 0.0
C1976 C 0.38743 0.36791 0.57183 0.0
C1977 C 0.42857 0.37505 0.60575 0.0
C1978 C 0.4117 0.37169 0.6069 0.0
C1979 C 0.36425 0.35871 0.60323 0.0
C1980 C 0.3803 0.36372 0.60568 0.0
H1981 H 0.45514 0.39249 0.64966 0.0
H1982 H 0.4281 0.38546 0.65746 0.0
H1983 H 0.40797 0.37487 0.54561 0.0
H1984 H 0.3425 0.34292 0.54065 0.0
H1985 H 0.36926 0.34943 0.55041 0.0
C1986 C 0.33542 0.38054 0.16434 0.0
C1987 C 0.32906 0.38738 0.13494 0.0
C1988 C 0.35072 0.37638 0.16165 0.0
C1989 C 0.38418 0.37061 0.09615 0.0
H1990 H 0.40784 0.37307 0.19203 0.0
C1991 C 0.4513 0.35928 0.11277 0.0
C1992 C 0.45547 0.35386 0.14764 0.0
C1993 C 0.4359 0.36332 0.10709 0.0
C1994 C 0.40139 0.3722 0.16506 0.0
H1995 H 0.33365 0.39473 0.07853 0.0
H1996 H 0.36064 0.3874 0.07371 0.0
H1997 H 0.38108 0.38011 0.18924 0.0
H1998 H 0.44641 0.34768 0.20242 0.0
H1999 H 0.41985 0.35457 0.19259 0.0
H2000 H 0.4047 0.3626 0.07221 0.0
C2001 C 0.35365 0.38529 0.09894 0.0
C2002 C 0.38601 0.37626 0.16345 0.0
C2003 C 0.3382 0.38948 0.10166 0.0
C2004 C 0.44374 0.35209 0.17571 0.0
C2005 C 0.42848 0.35606 0.17005 0.0
C2006 C 0.39969 0.36651 0.09778 0.0
C2007 C 0.36022 0.37893 0.12946 0.0
C2008 C 0.37704 0.37532 0.1293 0.0
C2009 C 0.4244 0.36199 0.13616 0.0
C2010 C 0.40837 0.36705 0.13258 0.0
H2011 H 0.32859 0.3785 0.18988 0.0
H2012 H 0.3552 0.37125 0.18519 0.0
H2013 H 0.37761 0.36977 0.06937 0.0
H2014 H 0.46007 0.36078 0.09061 0.0
H2015 H 0.43317 0.36783 0.08061 0.0
C2016 C 1.01812 0.95356 0.50311 0.0
C2017 C 1.01436 0.95058 0.54145 0.0
C2018 C 1.01811 0.96487 0.49178 0.0
C2019 C 1.00347 0.99302 0.52007 0.0
H2020 H 0.03831 0.00371 0.45761 0.0
C2021 C 1.01515 0.04035 0.49218 0.0
C2022 C 1.01913 0.04327 0.45392 0.0
C2023 C 1.01442 0.02902 0.50324 0.0
C2024 C 0.02844 0.00083 0.47477 0.0
H2025 H 1.00782 0.95711 0.59806 0.0
H2026 H 1.00777 0.97677 0.57829 0.0
H2027 H 0.0368 0.98383 0.47495 0.0
H2028 H 0.02498 0.03663 0.39698 0.0
H2029 H 0.02382 0.01697 0.41632 0.0
H2030 H 0.99516 0.01006 0.51997 0.0
C2031 C 1.01043 0.97038 0.55679 0.0
C2032 C 0.02754 0.98944 0.48459 0.0
C2033 C 1.01044 0.95911 0.56808 0.0
C2034 C 0.02228 0.03467 0.42695 0.0
C2035 C 0.02158 0.02339 0.43798 0.0
C2036 C 1.00437 0.00442 0.51027 0.0
C2037 C 1.01438 0.97339 0.51862 0.0
C2038 C 1.01505 0.98542 0.50732 0.0
C2039 C 1.01766 0.02044 0.4762 0.0
C2040 C 1.01686 0.00842 0.48748 0.0
H2041 H 0.02105 0.94716 0.48189 0.0
H2042 H 0.021 0.96694 0.46201 0.0
H2043 H 0.99361 0.99014 0.53727 0.0
H2044 H 1.01274 0.0468 0.51361 0.0
H2045 H 1.0115 0.02698 0.53301 0.0
C2046 C 0.28598 0.20951 0.3868 0.0
C2047 C 0.28156 0.20188 0.41609 0.0
C2048 C 0.28979 0.22063 0.396 0.0
C2049 C 0.3009 0.23952 0.47628 0.0
H2050 H 0.27731 0.26208 0.41915 0.0
C2051 C 0.28756 0.283 0.53919 0.0
C2052 C 0.28712 0.29244 0.51461 0.0
C2053 C 0.28974 0.27224 0.52403 0.0
C2054 C 0.28426 0.25594 0.43486 0.0
H2055 H 0.27829 0.19984 0.47813 0.0
H2056 H 0.28513 0.21924 0.49422 0.0
H2057 H 0.27647 0.24246 0.39836 0.0
H2058 H 0.28882 0.29805 0.4549 0.0
H2059 H 0.29272 0.27912 0.42816 0.0
H2060 H 0.30846 0.25295 0.51324 0.0
C2061 C 0.28569 0.21658 0.46416 0.0
C2062 C 0.28376 0.2447 0.42299 0.0
C2063 C 0.28177 0.20547 0.45495 0.0
C2064 C 0.289 0.2909 0.47445 0.0
C2065 C 0.29124 0.28009 0.45921 0.0
C2066 C 0.3015 0.25078 0.48799 0.0
C2067 C 0.28942 0.22431 0.4347 0.0
C2068 C 0.29173 0.23635 0.44421 0.0
C2069 C 0.29156 0.27064 0.48389 0.0
C2070 C 0.29282 0.25905 0.46808 0.0
H2071 H 0.2863 0.20693 0.35665 0.0
H2072 H 0.29283 0.2264 0.37281 0.0
H2073 H 0.30734 0.23327 0.49277 0.0
H2074 H 0.28581 0.28389 0.57019 0.0
H2075 H 0.28951 0.26513 0.54375 0.0
C2076 C 0.0291 0.28523 0.71855 0.0
C2077 C 1.01447 0.29074 0.71836 0.0
C2078 C 0.03 0.27366 0.72504 0.0
C2079 C 1.00858 0.24922 0.7636 0.0
H2080 H 0.03557 0.23243 0.69352 0.0
C2081 C 1.01093 0.20087 0.76703 0.0
C2082 C 0.02609 0.19616 0.76747 0.0
C2083 C 1.00874 0.21219 0.75746 0.0
C2084 C 0.02806 0.23701 0.71344 0.0
H2085 H 0.9894 0.28853 0.7267 0.0
H2086 H 0.99099 0.26822 0.73789 0.0
H2087 H 0.03344 0.25284 0.68695 0.0
H2088 H 0.05072 0.19942 0.75597 0.0
H2089 H 0.04696 0.21924 0.73983 0.0
H2090 H 1.00335 0.23341 0.79042 0.0
C2091 C 1.00174 0.27289 0.73304 0.0
C2092 C 0.02687 0.24869 0.70976 0.0
C2093 C 1.00082 0.28449 0.72646 0.0
C2094 C 0.03892 0.20285 0.75623 0.0
C2095 C 0.03674 0.21418 0.74669 0.0
C2096 C 1.00979 0.23753 0.76733 0.0
C2097 C 1.01631 0.26733 0.73147 0.0
C2098 C 1.01724 0.25492 0.73504 0.0
C2099 C 0.02168 0.21903 0.74817 0.0
C2100 C 0.01964 0.23132 0.74247 0.0
H2101 H 0.03981 0.28976 0.71188 0.0
H2102 H 0.04142 0.26962 0.7243 0.0
H2103 H 1.00117 0.25382 0.78366 0.0
H2104 H 1.00081 0.19597 0.77594 0.0
H2105 H 0.99697 0.21566 0.75828 0.0
C2106 C 0.29572 0.94504 0.74589 0.0
C2107 C 0.28171 0.93894 0.74043 0.0
C2108 C 0.29538 0.95587 0.76168 0.0
C2109 C 0.26765 0.97956 0.77128 0.0
H2110 H 0.3014 0.99317 0.83076 0.0
C2111 C 0.26398 0.02438 0.8336 0.0
C2112 C 0.27688 0.03143 0.82605 0.0
C2113 C 0.26481 0.0129 0.82547 0.0
C2114 C 0.29196 0.98945 0.81398 0.0
H2115 H 0.25647 0.9392 0.75012 0.0
H2116 H 0.25604 0.95774 0.77962 0.0
H2117 H 0.30221 0.97299 0.81633 0.0
H2118 H 0.30077 0.03208 0.80446 0.0
H2119 H 0.30227 0.01182 0.79033 0.0
H2120 H 0.25733 0.99599 0.76939 0.0
C2121 C 0.26723 0.95433 0.77031 0.0
C2122 C 0.2924 0.97792 0.80569 0.0
C2123 C 0.26753 0.94358 0.75396 0.0
C2124 C 0.29064 0.0268 0.8102 0.0
C2125 C 0.29155 0.01525 0.80252 0.0
C2126 C 0.26712 0.99102 0.77997 0.0
C2127 C 0.28104 0.96078 0.7729 0.0
C2128 C 0.28028 0.97285 0.78407 0.0
C2129 C 0.27861 0.00823 0.81003 0.0
C2130 C 0.27929 0.99607 0.80118 0.0
H2131 H 0.3069 0.94161 0.73663 0.0
H2132 H 0.30626 0.96058 0.76323 0.0
H2133 H 0.25832 0.97603 0.75369 0.0
H2134 H 0.25323 0.02779 0.84571 0.0
H2135 H 0.25471 0.00764 0.83166 0.0
C2136 C 0.79568 0.71485 0.41506 0.0
C2137 C 0.78082 0.71067 0.40485 0.0
C2138 C 0.79791 0.72641 0.42066 0.0
C2139 C 0.77917 0.75414 0.4005 0.0
H2140 H 0.80461 0.76427 0.48714 0.0
C2141 C 0.7718 0.79672 0.47752 0.0
C2142 C 0.78534 0.80249 0.48993 0.0
C2143 C 0.77304 0.78622 0.45959 0.0
C2144 C 0.79771 0.76158 0.46239 0.0
H2145 H 0.75656 0.71512 0.39346 0.0
H2146 H 0.76026 0.73521 0.4044 0.0
H2147 H 0.80329 0.74424 0.47203 0.0
H2148 H 0.81086 0.8021 0.49055 0.0
H2149 H 0.81294 0.78354 0.46017 0.0
H2150 H 0.77299 0.77149 0.3923 0.0
C2151 C 0.77035 0.72969 0.40686 0.0
C2152 C 0.79695 0.7501 0.4537 0.0
C2153 C 0.76818 0.71818 0.40091 0.0
C2154 C 0.80018 0.79777 0.48211 0.0
C2155 C 0.80141 0.78719 0.46459 0.0
C2156 C 0.77981 0.7656 0.40947 0.0
C2157 C 0.78526 0.73396 0.41648 0.0
C2158 C 0.78739 0.74623 0.42319 0.0
C2159 C 0.78782 0.78122 0.45403 0.0
C2160 C 0.78884 0.76939 0.44095 0.0
H2161 H 0.80565 0.70922 0.41779 0.0
H2162 H 0.80958 0.72944 0.42768 0.0
H2163 H 0.77199 0.75146 0.37621 0.0
H2164 H 0.76018 0.8 0.48355 0.0
H2165 H 0.76238 0.78173 0.45211 0.0
C2166 C 1.0131 0.70872 0.29467 0.0
C2167 C 1.01428 0.70557 0.33394 0.0
C2168 C 1.00912 0.71974 0.28448 0.0
C2169 C 1.01243 0.74841 0.31844 0.0
H2170 H 0.98107 0.75512 0.24003 0.0
C2171 C 1.00203 0.79394 0.26633 0.0
C2172 C 0.99999 0.79529 0.22618 0.0
C2173 C 1.00131 0.78321 0.28302 0.0
C2174 C 0.98996 0.75339 0.26175 0.0
H2175 H 1.01157 0.71154 0.39324 0.0
H2176 H 1.00525 0.73089 0.37521 0.0
H2177 H 0.98471 0.73572 0.26186 0.0
H2178 H 0.99561 0.78658 0.17194 0.0
H2179 H 0.9948 0.7679 0.20059 0.0
H2180 H 1.01835 0.7659 0.31706 0.0
C2181 C 1.00741 0.72476 0.3525 0.0
C2182 C 0.99196 0.7423 0.27431 0.0
C2183 C 1.01116 0.7137 0.36272 0.0
C2184 C 0.99695 0.78579 0.2031 0.0
C2185 C 0.99643 0.77508 0.21962 0.0
C2186 C 1.0106 0.75948 0.30547 0.0
C2187 C 1.00644 0.72788 0.31331 0.0
C2188 C 1.00336 0.73971 0.30236 0.0
C2189 C 0.99876 0.77362 0.25973 0.0
C2190 C 0.99952 0.76209 0.27648 0.0
H2191 H 1.01563 0.70275 0.27172 0.0
H2192 H 1.00861 0.722 0.25403 0.0
H2193 H 0.02139 0.74659 0.33989 0.0
H2194 H 1.00428 0.80117 0.28475 0.0
H2195 H 1.0029 0.78243 0.31409 0.0
C2196 C 0.75402 0.9563 0.20612 0.0
C2197 C 0.7686 0.95073 0.20581 0.0
C2198 C 0.75317 0.96779 0.21442 0.0
C2199 C 0.77488 0.99148 0.25806 0.0
H2200 H 0.74914 0.00967 0.18927 0.0
C2201 C 0.77632 0.03978 0.26476 0.0
C2202 C 0.76164 0.04522 0.26479 0.0
C2203 C 0.77748 0.0284 0.25492 0.0
C2204 C 0.75628 0.00469 0.20889 0.0
H2205 H 0.79361 0.95268 0.21573 0.0
H2206 H 0.79216 0.97281 0.23003 0.0
H2207 H 0.7502 0.98928 0.18034 0.0
H2208 H 0.73682 0.04317 0.25236 0.0
H2209 H 0.7388 0.02323 0.23581 0.0
H2210 H 0.78089 0.00686 0.28679 0.0
C2211 C 0.78138 0.96828 0.22392 0.0
C2212 C 0.75685 0.99303 0.20386 0.0
C2213 C 0.78224 0.95679 0.2155 0.0
C2214 C 0.74826 0.03917 0.25298 0.0
C2215 C 0.74942 0.02778 0.2432 0.0
C2216 C 0.77429 0.00314 0.26314 0.0
C2217 C 0.76688 0.97394 0.22266 0.0
C2218 C 0.76613 0.9863 0.22845 0.0
C2219 C 0.76399 0.02221 0.24499 0.0
C2220 C 0.76498 0.00988 0.23862 0.0
H2221 H 0.74332 0.95189 0.19833 0.0
H2222 H 0.74181 0.97191 0.21379 0.0
H2223 H 0.782 0.9865 0.2777 0.0
H2224 H 0.78684 0.04416 0.27409 0.0
H2225 H 0.78891 0.02438 0.25594 0.0
C2226 C 1.00285 0.46352 0.08965 0.0
C2227 C 1.01685 0.45732 0.08634 0.0
C2228 C 1.00266 0.47503 0.08156 0.0
C2229 C 0.02748 0.50008 0.07692 0.0
H2230 H 0.99512 0.51154 0.00813 0.0
C2231 C 0.02963 0.5444 0.00818 0.0
C2232 C 1.01539 0.5499 -0.00023 0.0
C2233 C 0.02967 0.53355 0.0238 0.0
C2234 C 1.00405 0.50855 0.02805 0.0
H2235 H 0.04164 0.45822 0.07235 0.0
H2236 H 0.04133 0.47848 0.05824 0.0
H2237 H 0.99561 0.4916 0.02438 0.0
H2238 H 0.98998 0.54852 0.00355 0.0
H2239 H 0.99006 0.52986 0.03249 0.0
H2240 H 0.03587 0.51704 0.0809 0.0
C2241 C 0.03054 0.4744 0.06715 0.0
C2242 C 1.00438 0.49711 0.0371 0.0
C2243 C 0.03068 0.46282 0.07482 0.0
C2244 C 1.00119 0.54459 0.00979 0.0
C2245 C 1.00123 0.53379 0.02583 0.0
C2246 C 0.02707 0.51158 0.06819 0.0
C2247 C 1.0165 0.48058 0.07036 0.0
C2248 C 1.01615 0.49275 0.06138 0.0
C2249 C 1.01544 0.52799 0.0318 0.0
C2250 C 1.0154 0.51594 0.04342 0.0
H2251 H 0.99201 0.45944 0.09825 0.0
H2252 H 0.99172 0.47962 0.08444 0.0
H2253 H 0.03657 0.49692 0.09611 0.0
H2254 H 0.04079 0.54834 0.00153 0.0
H2255 H 0.04084 0.52934 0.02788 0.0
C2256 C 0.26564 0.70148 0.97 0.0
C2257 C 0.26108 0.69862 0.93205 0.0
C2258 C 0.26722 0.71277 0.98082 0.0
C2259 C 0.25525 0.74154 0.95299 0.0
H2260 H 0.29108 0.75048 0.01548 0.0
C2261 C 0.26906 0.78818 0.98664 0.0
C2262 C 0.27303 0.79059 0.02537 0.0
C2263 C 0.26825 0.77702 0.97378 0.0
C2264 C 0.28095 0.74809 -0.00176 0.0
H2265 H 0.25483 0.70536 0.87553 0.0
H2266 H 0.25754 0.72503 0.89446 0.0
H2267 H 0.28796 0.73078 -0.00326 0.0
H2268 H 0.27907 0.78318 0.08104 0.0
H2269 H 0.27775 0.76379 0.05856 0.0
H2270 H 0.2482 0.75885 0.95468 0.0
C2271 C 0.25964 0.71856 0.91603 0.0
C2272 C 0.27915 0.73681 0.98761 0.0
C2273 C 0.25806 0.70729 0.90523 0.0
C2274 C 0.27633 0.78163 0.05079 0.0
C2275 C 0.27555 0.77051 0.03795 0.0
C2276 C 0.25705 0.75282 0.96362 0.0
C2277 C 0.2643 0.72143 0.95388 0.0
C2278 C 0.26624 0.73341 0.96503 0.0
C2279 C 0.27139 0.76807 -0.0006 0.0
C2280 C 0.26988 0.7562 0.98653 0.0
H2281 H 0.2679 0.69499 0.99139 0.0
H2282 H 0.27062 0.71473 0.01037 0.0
H2283 H 0.24507 0.73915 0.93596 0.0
H2284 H 0.26659 0.79491 0.96631 0.0
H2285 H 0.26519 0.77539 0.94377 0.0
C2286 C 0.28 0.54295 0.22874 0.0
C2287 C 0.27582 0.54569 0.26704 0.0
C2288 C 0.28107 0.53165 0.21723 0.0
C2289 C 0.26732 0.50331 0.24546 0.0
H2290 H 0.30134 0.49267 0.18015 0.0
C2291 C 0.27762 0.45611 0.21879 0.0
C2292 C 0.28035 0.45288 0.18014 0.0
C2293 C 0.27798 0.46747 0.22934 0.0
C2294 C 0.29172 0.49555 0.19818 0.0
H2295 H 0.27027 0.5388 0.32375 0.0
H2296 H 0.27216 0.51923 0.30381 0.0
H2297 H 0.29994 0.51262 0.19767 0.0
H2298 H 0.28572 0.45905 0.12231 0.0
H2299 H 0.28645 0.47885 0.14085 0.0
H2300 H 0.25909 0.4863 0.24609 0.0
C2301 C 0.27418 0.52573 0.28234 0.0
C2302 C 0.29089 0.50696 0.20809 0.0
C2303 C 0.27308 0.53696 0.29375 0.0
C2304 C 0.28383 0.46123 0.15248 0.0
C2305 C 0.28422 0.47258 0.16305 0.0
C2306 C 0.26817 0.49193 0.23565 0.0
C2307 C 0.27804 0.52294 0.24391 0.0
C2308 C 0.27873 0.51094 0.23203 0.0
C2309 C 0.28108 0.47583 0.20146 0.0
C2310 C 0.2804 0.48792 0.21207 0.0
H2311 H 0.28216 0.54952 0.20759 0.0
H2312 H 0.28397 0.52975 0.18734 0.0
H2313 H 0.25764 0.50616 0.26334 0.0
H2314 H 0.27513 0.44985 0.24085 0.0
H2315 H 0.27576 0.46972 0.25932 0.0
C2316 C 0.76419 0.19235 0.01647 0.0
C2317 C 0.76193 0.1912 0.97624 0.0
C2318 C 0.76226 0.20286 0.03438 0.0
C2319 C 0.74493 0.23117 0.01801 0.0
H2320 H 0.77761 0.24154 0.08796 0.0
C2321 C 0.76006 0.27773 0.03902 0.0
C2322 C 0.76302 0.2817 0.07678 0.0
C2323 C 0.75776 0.26627 0.03219 0.0
C2324 C 0.76825 0.23869 0.06902 0.0
H2325 H 0.75627 0.20018 0.92316 0.0
H2326 H 0.75296 0.21836 0.95414 0.0
H2327 H 0.77747 0.22191 0.06646 0.0
H2328 H 0.76544 0.27669 0.13716 0.0
H2329 H 0.76187 0.25658 0.12481 0.0
H2330 H 0.73617 0.24808 0.01916 0.0
C2331 C 0.75579 0.21116 0.97215 0.0
C2332 C 0.76815 0.22746 0.05677 0.0
C2333 C 0.75771 0.20072 0.95435 0.0
C2334 C 0.76348 0.27391 0.1076 0.0
C2335 C 0.76135 0.26241 0.10066 0.0
C2336 C 0.74511 0.24239 0.03002 0.0
C2337 C 0.75804 0.21236 0.01232 0.0
C2338 C 0.75676 0.22368 0.03021 0.0
C2339 C 0.7585 0.2585 0.06287 0.0
C2340 C 0.75702 0.24632 0.05474 0.0
H2341 H 0.76737 0.18514 0.03408 0.0
H2342 H 0.76402 0.20353 0.06544 0.0
H2343 H 0.7358 0.22844 -0.00179 0.0
H2344 H 0.75989 0.28345 0.01451 0.0
H2345 H 0.75585 0.26345 0.00265 0.0
C2346 C 0.76862 0.53226 0.81931 0.0
C2347 C 0.76424 0.5414 0.79575 0.0
C2348 C 0.76935 0.5214 0.80395 0.0
C2349 C 0.7716 0.50548 0.7122 0.0
H2350 H 0.75297 0.48152 0.77346 0.0
C2351 C 0.76057 0.46118 0.64992 0.0
C2352 C 0.76499 0.45207 0.67359 0.0
C2353 C 0.76021 0.4721 0.66489 0.0
C2354 C 0.75833 0.48811 0.75619 0.0
H2355 H 0.75754 0.54642 0.73754 0.0
H2356 H 0.75877 0.5274 0.71064 0.0
H2357 H 0.75368 0.50065 0.79923 0.0
H2358 H 0.77232 0.44722 0.73155 0.0
H2359 H 0.77161 0.4663 0.75775 0.0
H2360 H 0.7762 0.49292 0.66911 0.0
C2361 C 0.76179 0.52866 0.74088 0.0
C2362 C 0.75878 0.49905 0.77096 0.0
C2363 C 0.76109 0.53953 0.75625 0.0
C2364 C 0.76866 0.45406 0.71276 0.0
C2365 C 0.76828 0.46498 0.72773 0.0
C2366 C 0.77114 0.49454 0.69741 0.0
C2367 C 0.76569 0.51946 0.76474 0.0
C2368 C 0.76544 0.50784 0.74914 0.0
C2369 C 0.76423 0.47412 0.70382 0.0
C2370 C 0.7645 0.48575 0.71928 0.0
H2371 H 0.77138 0.5335 0.84972 0.0
H2372 H 0.7727 0.5145 0.82283 0.0
H2373 H 0.77697 0.51207 0.69494 0.0
H2374 H 0.75742 0.45987 0.61978 0.0
H2375 H 0.75677 0.47897 0.64599 0.0
C2376 C 0.52164 0.03789 0.97281 0.0
C2377 C 0.52684 0.04028 0.935 0.0
C2378 C 0.51987 0.02673 0.98508 0.0
C2379 C 0.53197 -0.00244 0.96215 0.0
H2380 H 0.49494 0.98948 0.02148 0.0
C2381 C 0.51604 0.95129 -0.00289 0.0
C2382 C 0.51112 0.94913 0.03533 0.0
C2383 C 0.51765 0.96238 0.98389 0.0
C2384 C 0.5054 0.99163 0.00519 0.0
H2385 H 0.534 0.03283 0.88022 0.0
H2386 H 0.53097 0.01343 0.90165 0.0
H2387 H 0.49879 0.00899 0.0014 0.0
H2388 H 0.50432 0.95694 0.08981 0.0
H2389 H 0.507 0.97618 0.06671 0.0
H2390 H 0.53859 0.98018 0.96601 0.0
C2391 C 0.52854 0.02016 0.92207 0.0
C2392 C 0.50763 0.0028 -0.00621 0.0
C2393 C 0.53031 0.03129 0.90983 0.0
C2394 C 0.50776 0.95829 0.05991 0.0
C2395 C 0.50934 0.96934 0.04671 0.0
C2396 C 0.52974 0.98637 0.97354 0.0
C2397 C 0.52323 0.01775 0.95975 0.0
C2398 C 0.52096 0.0059 0.97223 0.0
C2399 C 0.51436 0.97151 0.00864 0.0
C2400 C 0.51646 0.9833 -0.00471 0.0
H2401 H 0.51901 0.04465 0.99296 0.0
H2402 H 0.51596 0.02514 0.01449 0.0
H2403 H 0.54246 -0.0003 0.94596 0.0
H2404 H 0.51861 0.94442 0.9774 0.0
H2405 H 0.52137 0.9638 0.95424 0.0
C2406 C 0.50466 0.2071 0.27697 0.0
C2407 C 0.51897 0.2012 0.27557 0.0
C2408 C 0.50431 0.21877 0.27212 0.0
C2409 C 0.52951 0.24393 0.28025 0.0
H2410 H 0.49595 0.2582 0.22203 0.0
C2411 C 0.52992 0.2906 0.23181 0.0
C2412 C 0.51551 0.29641 0.23152 0.0
C2413 C 0.53049 0.2792 0.24186 0.0
C2414 C 0.50526 0.25435 0.23891 0.0
H2415 H 0.54409 0.20285 0.2667 0.0
H2416 H 0.54347 0.22328 0.25767 0.0
H2417 H 0.49679 0.23774 0.22701 0.0
H2418 H 0.49065 0.2951 0.24449 0.0
H2419 H 0.49166 0.27518 0.26214 0.0
H2420 H 0.53808 0.26059 0.29158 0.0
C2421 C 0.53255 0.21888 0.26327 0.0
C2422 C 0.50577 0.24262 0.24165 0.0
C2423 C 0.5329 0.20719 0.26822 0.0
C2424 C 0.50187 0.29078 0.24386 0.0
C2425 C 0.50244 0.27939 0.25385 0.0
C2426 C 0.52903 0.25567 0.27738 0.0
C2427 C 0.51827 0.22481 0.26568 0.0
C2428 C 0.51791 0.23727 0.26231 0.0
C2429 C 0.51667 0.2734 0.25175 0.0
C2430 C 0.51689 0.261 0.25668 0.0
H2431 H 0.49376 0.20276 0.2834 0.0
H2432 H 0.49315 0.2231 0.2747 0.0
H2433 H 0.53887 0.24006 0.29693 0.0
H2434 H 0.5406 0.29465 0.22197 0.0
H2435 H 0.54161 0.2748 0.23971 0.0
C2436 C 0.49721 0.70969 0.77825 0.0
C2437 C 0.49458 0.70643 0.8169 0.0
C2438 C 0.49381 0.72066 0.7662 0.0
C2439 C 0.49171 0.74914 0.80517 0.0
H2440 H 0.47559 0.75644 0.70291 0.0
C2441 C 0.49088 0.79486 0.74842 0.0
C2442 C 0.4968 0.79614 0.7106 0.0
C2443 C 0.48706 0.78416 0.76258 0.0
C2444 C 0.48012 0.75453 0.73156 0.0
H2445 H 0.48535 0.71188 0.87255 0.0
H2446 H 0.47961 0.73109 0.85154 0.0
H2447 H 0.47517 0.73692 0.72534 0.0
H2448 H 0.50336 0.78722 0.65804 0.0
H2449 H 0.49682 0.76866 0.68267 0.0
H2450 H 0.49729 0.76663 0.81086 0.0
C2451 C 0.4845 0.72519 0.83078 0.0
C2452 C 0.47986 0.74337 0.74437 0.0
C2453 C 0.48785 0.71422 0.8428 0.0
C2454 C 0.49853 0.78655 0.68704 0.0
C2455 C 0.49475 0.77589 0.70116 0.0
C2456 C 0.49203 0.76029 0.79231 0.0
C2457 C 0.48773 0.72858 0.79256 0.0
C2458 C 0.486 0.74053 0.78093 0.0
C2459 C 0.48913 0.77455 0.7392 0.0
C2460 C 0.48662 0.76306 0.75496 0.0
H2461 H 0.50252 0.70392 0.75771 0.0
H2462 H 0.49661 0.72307 0.73668 0.0
H2463 H 0.49669 0.74719 0.83333 0.0
H2464 H 0.48925 0.80212 0.76708 0.0
H2465 H 0.48262 0.7834 0.79192 0.0
C2466 C 0.52657 0.53727 0.49514 0.0
C2467 C 0.53128 0.54025 0.45743 0.0
C2468 C 0.52432 0.52595 0.50496 0.0
C2469 C 0.53476 0.49714 0.4741 0.0
H2470 H 0.49808 0.48843 0.53369 0.0
C2471 C 0.51823 0.45056 0.49773 0.0
C2472 C 0.51388 0.44759 0.5357 0.0
C2473 C 0.51961 0.46189 0.48722 0.0
C2474 C 0.50844 0.49074 0.51727 0.0
H2475 H 0.53688 0.53371 0.40019 0.0
H2476 H 0.53308 0.51406 0.41739 0.0
H2477 H 0.5025 0.50828 0.51865 0.0
H2478 H 0.50766 0.45418 0.59247 0.0
H2479 H 0.51001 0.47387 0.5741 0.0
H2480 H 0.54077 0.47963 0.47285 0.0
C2481 C 0.53144 0.52042 0.43959 0.0
C2482 C 0.51099 0.50211 0.50878 0.0
C2483 C 0.53366 0.53169 0.4298 0.0
C2484 C 0.5107 0.45618 0.56272 0.0
C2485 C 0.51207 0.46748 0.55224 0.0
C2486 C 0.53223 0.48579 0.48261 0.0
C2487 C 0.52672 0.51742 0.47722 0.0
C2488 C 0.52417 0.50541 0.48709 0.0
C2489 C 0.5167 0.47046 0.51451 0.0
C2490 C 0.51905 0.48247 0.5043 0.0
H2491 H 0.52472 0.54368 0.51708 0.0
H2492 H 0.52083 0.52386 0.53432 0.0
H2493 H 0.54515 0.49945 0.45777 0.0
H2494 H 0.52062 0.44412 0.47621 0.0
H2495 H 0.52299 0.46395 0.45775 0.0
C2496 C 0.94704 0.09053 0.35822 0.0
C2497 C 0.95482 0.08014 0.35372 0.0
C2498 C 0.93071 0.09092 0.36338 0.0
C2499 C 0.89721 0.07352 0.39575 0.0
H2500 H 0.87173 0.09487 0.33822 0.0
C2501 C 0.82969 0.06976 0.38933 0.0
C2502 C 0.82062 0.07966 0.38901 0.0
C2503 C 0.84607 0.07025 0.38643 0.0
C2504 C 0.87867 0.08896 0.35499 0.0
H2505 H 0.95148 0.06203 0.35168 0.0
H2506 H 0.9231 0.06272 0.3604 0.0
H2507 H 0.90026 0.09503 0.33063 0.0
H2508 H 0.82177 0.09789 0.38612 0.0
H2509 H 0.85038 0.09878 0.38155 0.0
H2510 H 0.87574 0.06747 0.42033 0.0
C2511 C 0.92961 0.07057 0.36004 0.0
C2512 C 0.89504 0.08905 0.35056 0.0
C2513 C 0.94588 0.07018 0.35457 0.0
C2514 C 0.82838 0.0901 0.38599 0.0
C2515 C 0.8448 0.0906 0.38329 0.0
C2516 C 0.88088 0.07348 0.40038 0.0
C2517 C 0.92182 0.08093 0.36458 0.0
C2518 C 0.90448 0.08124 0.37056 0.0
C2519 C 0.85387 0.08067 0.38335 0.0
C2520 C 0.87135 0.08111 0.37973 0.0
H2521 H 0.95356 0.09836 0.35745 0.0
H2522 H 0.92507 0.09904 0.367 0.0
H2523 H 0.90417 0.06753 0.41213 0.0
H2524 H 0.82412 0.06157 0.39087 0.0
H2525 H 0.85259 0.06241 0.38577 0.0
C2526 C 0.4485 0.15013 0.40022 0.0
C2527 C 0.45483 0.1605 0.38802 0.0
C2528 C 0.43223 0.14817 0.39818 0.0
C2529 C 0.39839 0.15601 0.34069 0.0
H2530 H 0.37165 0.14882 0.42836 0.0
C2531 C 0.33191 0.16121 0.32896 0.0
C2532 C 0.32189 0.15348 0.34737 0.0
C2533 C 0.34804 0.16108 0.33603 0.0
C2534 C 0.37897 0.15063 0.40342 0.0
H2535 H 0.44903 0.17687 0.3639 0.0
H2536 H 0.4209 0.17339 0.35986 0.0
H2537 H 0.40024 0.15002 0.43725 0.0
H2538 H 0.32087 0.13972 0.38846 0.0
H2539 H 0.34935 0.13925 0.40032 0.0
H2540 H 0.37749 0.15651 0.30652 0.0
C2541 C 0.42845 0.16685 0.37147 0.0
C2542 C 0.39532 0.15133 0.4086 0.0
C2543 C 0.44456 0.16887 0.37413 0.0
C2544 C 0.32835 0.14577 0.3739 0.0
C2545 C 0.34464 0.14553 0.38069 0.0
C2546 C 0.38218 0.15515 0.33538 0.0
C2547 C 0.42213 0.15647 0.38308 0.0
C2548 C 0.4051 0.15432 0.37743 0.0
C2549 C 0.35473 0.1531 0.36135 0.0
C2550 C 0.37216 0.15278 0.36685 0.0
H2551 H 0.45615 0.14355 0.41105 0.0
H2552 H 0.42761 0.14008 0.40721 0.0
H2553 H 0.40572 0.15816 0.31605 0.0
H2554 H 0.32723 0.16745 0.30917 0.0
H2555 H 0.35527 0.1673 0.32159 0.0
C2556 C 0.96183 0.15074 0.87999 0.0
C2557 C 0.96946 0.1611 0.88646 0.0
C2558 C 0.94545 0.15028 0.87562 0.0
C2559 C 0.91128 0.16805 0.84963 0.0
H2560 H 0.88677 0.14496 0.90132 0.0
C2561 C 0.84376 0.17078 0.85956 0.0
C2562 C 0.83493 0.16081 0.85621 0.0
C2563 C 0.86015 0.1704 0.86223 0.0
C2564 C 0.89344 0.15138 0.88622 0.0
H2565 H 0.96576 0.17909 0.8929 0.0
H2566 H 0.93735 0.17827 0.88572 0.0
H2567 H 0.91537 0.14499 0.90775 0.0
H2568 H 0.83655 0.1426 0.85268 0.0
H2569 H 0.86518 0.14194 0.85703 0.0
H2570 H 0.88946 0.17444 0.82798 0.0
C2571 C 0.944 0.17051 0.88384 0.0
C2572 C 0.90985 0.15139 0.88996 0.0
C2573 C 0.96031 0.17096 0.88844 0.0
C2574 C 0.84295 0.15043 0.85565 0.0
C2575 C 0.85939 0.15006 0.8582 0.0
C2576 C 0.89492 0.168 0.84576 0.0
C2577 C 0.93635 0.16017 0.87726 0.0
C2578 C 0.91895 0.15981 0.87205 0.0
C2579 C 0.86822 0.16005 0.86149 0.0
C2580 C 0.88574 0.15975 0.86434 0.0
H2581 H 0.96849 0.14298 0.87859 0.0
H2582 H 0.93995 0.14219 0.87036 0.0
H2583 H 0.91795 0.17452 0.83482 0.0
H2584 H 0.83801 0.1789 0.86088 0.0
H2585 H 0.86649 0.17826 0.86555 0.0
C2586 C 0.34371 0.07193 0.85022 0.0
C2587 C 0.33423 0.08155 0.85414 0.0
C2588 C 0.35938 0.07289 0.83876 0.0
C2589 C 0.39257 0.09203 0.84489 0.0
H2590 H 0.41218 0.07065 0.77484 0.0
C2591 C 0.46024 0.09083 0.82043 0.0
C2592 C 0.4671 0.08008 0.81753 0.0
C2593 C 0.44384 0.09211 0.81998 0.0
C2594 C 0.40694 0.07664 0.79476 0.0
H2595 H 0.33346 0.09967 0.84839 0.0
H2596 H 0.36122 0.10145 0.82876 0.0
H2597 H 0.38366 0.07101 0.78115 0.0
H2598 H 0.46204 0.06222 0.81288 0.0
H2599 H 0.43368 0.06439 0.81272 0.0
H2600 H 0.41586 0.09733 0.85987 0.0
C2601 C 0.35641 0.09315 0.8343 0.0
C2602 C 0.39057 0.07688 0.79813 0.0
C2603 C 0.34056 0.09215 0.84514 0.0
C2604 C 0.45719 0.07065 0.81436 0.0
C2605 C 0.44086 0.07191 0.81416 0.0
C2606 C 0.409 0.09172 0.84178 0.0
C2607 C 0.36604 0.08352 0.83153 0.0
C2608 C 0.38321 0.08441 0.82384 0.0
C2609 C 0.43392 0.08265 0.81683 0.0
C2610 C 0.41643 0.08383 0.81733 0.0
H2611 H 0.33905 0.06368 0.85714 0.0
H2612 H 0.36649 0.06532 0.83732 0.0
H2613 H 0.38725 0.09785 0.86524 0.0
H2614 H 0.46753 0.09828 0.82252 0.0
H2615 H 0.43896 0.10053 0.8217 0.0
C2616 C 0.20805 0.92173 0.60784 0.0
C2617 C 0.21646 0.91155 0.6054 0.0
C2618 C 0.1917 0.92171 0.61165 0.0
C2619 C 0.15836 0.90364 0.64152 0.0
H2620 H 0.13365 0.92621 0.58753 0.0
C2621 C 0.09016 0.90326 0.63825 0.0
C2622 C 0.08257 0.9137 0.64299 0.0
C2623 C 0.10649 0.90271 0.63363 0.0
C2624 C 0.14039 0.91992 0.60309 0.0
H2625 H 0.21418 0.89335 0.6044 0.0
H2626 H 0.18561 0.8933 0.61077 0.0
H2627 H 0.16204 0.9257 0.5787 0.0
H2628 H 0.08626 0.93177 0.64644 0.0
H2629 H 0.11468 0.9308 0.63887 0.0
H2630 H 0.13662 0.89785 0.66578 0.0
C2631 C 0.19171 0.90131 0.6104 0.0
C2632 C 0.15668 0.91963 0.59806 0.0
C2633 C 0.20809 0.90134 0.60669 0.0
C2634 C 0.09171 0.92357 0.64329 0.0
C2635 C 0.108 0.92303 0.63846 0.0
C2636 C 0.14204 0.90391 0.64645 0.0
C2637 C 0.18331 0.9115 0.613 0.0
C2638 C 0.1659 0.91154 0.61742 0.0
C2639 C 0.11558 0.91261 0.63338 0.0
C2640 C 0.13288 0.91211 0.62751 0.0
H2641 H 0.21412 0.92974 0.60767 0.0
H2642 H 0.18567 0.92971 0.61431 0.0
H2643 H 0.1651 0.8974 0.6573 0.0
H2644 H 0.08349 0.89549 0.63825 0.0
H2645 H 0.11195 0.89455 0.62955 0.0
C2646 C 0.70783 0.81832 0.62788 0.0
C2647 C 0.71636 0.82848 0.62762 0.0
C2648 C 0.69144 0.81838 0.62517 0.0
C2649 C 0.65794 0.83567 0.59237 0.0
H2650 H 0.63374 0.81545 0.65745 0.0
C2651 C 0.58972 0.83676 0.60026 0.0
C2652 C 0.58188 0.82635 0.60337 0.0
C2653 C 0.60615 0.83731 0.60237 0.0
C2654 C 0.64032 0.82105 0.63868 0.0
H2655 H 0.71413 0.84669 0.62494 0.0
H2656 H 0.68555 0.84676 0.61989 0.0
H2657 H 0.66225 0.81588 0.66337 0.0
H2658 H 0.58543 0.80833 0.61051 0.0
H2659 H 0.61385 0.80928 0.61295 0.0
H2660 H 0.63598 0.84077 0.56746 0.0
C2661 C 0.69162 0.83874 0.62177 0.0
C2662 C 0.65667 0.82131 0.64216 0.0
C2663 C 0.70803 0.8387 0.62465 0.0
C2664 C 0.59094 0.8165 0.60764 0.0
C2665 C 0.60731 0.81705 0.60963 0.0
C2666 C 0.64156 0.83538 0.58879 0.0
C2667 C 0.68313 0.82858 0.62201 0.0
C2668 C 0.66569 0.82857 0.6189 0.0
C2669 C 0.61513 0.82747 0.6076 0.0
C2670 C 0.63254 0.82801 0.61173 0.0
H2671 H 0.71378 0.81028 0.62942 0.0
H2672 H 0.68528 0.81039 0.62484 0.0
H2673 H 0.66458 0.84127 0.57374 0.0
H2674 H 0.58321 0.84451 0.59648 0.0
H2675 H 0.61177 0.84549 0.60086 0.0
C2676 C 0.19807 0.81608 0.13433 0.0
C2677 C 0.20698 0.82604 0.1324 0.0
C2678 C 0.18169 0.81638 0.13122 0.0
C2679 C 0.14855 0.83411 0.09694 0.0
H2680 H 0.12396 0.81405 0.16176 0.0
C2681 C 0.08033 0.83593 0.10554 0.0
C2682 C 0.07231 0.82556 0.10637 0.0
C2683 C 0.09675 0.83632 0.10835 0.0
C2684 C 0.13065 0.81963 0.14315 0.0
H2685 H 0.20552 0.84418 0.12577 0.0
H2686 H 0.17689 0.84474 0.12058 0.0
H2687 H 0.15246 0.81424 0.16781 0.0
H2688 H 0.07541 0.80746 0.11087 0.0
H2689 H 0.10395 0.80812 0.11525 0.0
H2690 H 0.12663 0.8395 0.07242 0.0
C2691 C 0.18263 0.83665 0.12399 0.0
C2692 C 0.14702 0.81974 0.1466 0.0
C2693 C 0.19906 0.83634 0.12701 0.0
C2694 C 0.08115 0.81559 0.10975 0.0
C2695 C 0.09754 0.81598 0.11274 0.0
C2696 C 0.13213 0.83402 0.09357 0.0
C2697 C 0.17373 0.82667 0.1262 0.0
C2698 C 0.15622 0.8269 0.12332 0.0
C2699 C 0.10555 0.82635 0.1123 0.0
C2700 C 0.12299 0.82671 0.11642 0.0
H2701 H 0.20374 0.80797 0.13761 0.0
H2702 H 0.17529 0.8085 0.13221 0.0
H2703 H 0.15525 0.83964 0.07822 0.0
H2704 H 0.07392 0.84377 0.10257 0.0
H2705 H 0.10252 0.84445 0.10815 0.0
C2706 C 0.69884 0.90315 0.10841 0.0
C2707 C 0.70649 0.91351 0.10245 0.0
C2708 C 0.6825 0.90272 0.1134 0.0
C2709 C 0.64626 0.91973 0.09703 0.0
H2710 H 0.62764 0.89905 0.171 0.0
C2711 C 0.58173 0.92362 0.14591 0.0
C2712 C 0.57278 0.91367 0.14753 0.0
C2713 C 0.59799 0.92318 0.14032 0.0
C2714 C 0.63266 0.9048 0.14997 0.0
H2715 H 0.70297 0.93157 0.09838 0.0
H2716 H 0.67469 0.93087 0.10756 0.0
H2717 H 0.65609 0.89904 0.16131 0.0
H2718 H 0.574 0.89544 0.14543 0.0
H2719 H 0.60248 0.89466 0.13574 0.0
H2720 H 0.62287 0.92562 0.08623 0.0
C2721 C 0.68117 0.92301 0.10727 0.0
C2722 C 0.64897 0.90478 0.14431 0.0
C2723 C 0.69744 0.92343 0.10203 0.0
C2724 C 0.58054 0.90325 0.14401 0.0
C2725 C 0.59686 0.9028 0.13877 0.0
C2726 C 0.63001 0.91981 0.1029 0.0
C2727 C 0.67343 0.91266 0.1128 0.0
C2728 C 0.65601 0.91232 0.11797 0.0
C2729 C 0.60575 0.91277 0.13649 0.0
C2730 C 0.62302 0.9124 0.12963 0.0
H2731 H 0.70545 0.89536 0.10857 0.0
H2732 H 0.67695 0.89458 0.11712 0.0
H2733 H 0.65116 0.92548 0.07584 0.0
H2734 H 0.57613 0.93179 0.14809 0.0
H2735 H 0.60452 0.93101 0.13911 0.0
C2736 C 0.94344 0.59399 0.86041 0.0
C2737 C 0.95049 0.58344 0.86727 0.0
C2738 C 0.92702 0.59518 0.86164 0.0
C2739 C 0.89203 0.58238 0.90515 0.0
H2740 H 0.86829 0.59603 0.82129 0.0
C2741 C 0.82546 0.57675 0.89755 0.0
C2742 C 0.81602 0.58584 0.88583 0.0
C2743 C 0.84175 0.57715 0.89331 0.0
C2744 C 0.87473 0.59234 0.84523 0.0
H2745 H 0.94587 0.56597 0.88153 0.0
H2746 H 0.9174 0.56806 0.88417 0.0
H2747 H 0.89709 0.59582 0.81871 0.0
H2748 H 0.81615 0.60233 0.85915 0.0
H2749 H 0.84489 0.60322 0.85238 0.0
H2750 H 0.86997 0.57901 0.93216 0.0
C2751 C 0.9245 0.57539 0.87752 0.0
C2752 C 0.89123 0.59221 0.84369 0.0
C2753 C 0.94081 0.57417 0.87569 0.0
C2754 C 0.82319 0.59521 0.86832 0.0
C2755 C 0.83963 0.59569 0.86448 0.0
C2756 C 0.87564 0.58261 0.90692 0.0
C2757 C 0.9174 0.58589 0.87055 0.0
C2758 C 0.90002 0.58701 0.8733 0.0
C2759 C 0.84915 0.58674 0.87775 0.0
C2760 C 0.86671 0.58735 0.8766 0.0
H2761 H 0.95061 0.60126 0.85364 0.0
H2762 H 0.92187 0.60338 0.85629 0.0
H2763 H 0.89849 0.57851 0.92876 0.0
H2764 H 0.82021 0.56932 0.91038 0.0
H2765 H 0.84856 0.56993 0.90263 0.0
C2766 C 0.32797 0.65034 0.85597 0.0
C2767 C 0.32062 0.65545 0.82388 0.0
C2768 C 0.3443 0.64907 0.85723 0.0
C2769 C 0.38095 0.66088 0.81689 0.0
H2770 H 0.39959 0.63429 0.86348 0.0
C2771 C 0.44843 0.65629 0.83663 0.0
C2772 C 0.45303 0.65285 0.87398 0.0
C2773 C 0.43266 0.65541 0.82498 0.0
C2774 C 0.39458 0.64178 0.85046 0.0
H2775 H 0.32485 0.663 0.7675 0.0
H2776 H 0.35336 0.66082 0.7698 0.0
H2777 H 0.37123 0.63515 0.85382 0.0
H2778 H 0.44498 0.64522 0.92747 0.0
H2779 H 0.41764 0.6437 0.90744 0.0
H2780 H 0.4043 0.6676 0.81434 0.0
C2781 C 0.34645 0.65791 0.7942 0.0
C2782 C 0.3783 0.64229 0.845 0.0
C2783 C 0.33008 0.65916 0.79291 0.0
C2784 C 0.44174 0.64804 0.89866 0.0
C2785 C 0.42609 0.64708 0.887 0.0
C2786 C 0.39726 0.66037 0.82235 0.0
C2787 C 0.35378 0.65289 0.82648 0.0
C2788 C 0.37124 0.65194 0.82889 0.0
C2789 C 0.42126 0.65095 0.85032 0.0
C2790 C 0.40424 0.65091 0.83997 0.0
H2791 H 0.32117 0.64756 0.8807 0.0
H2792 H 0.34954 0.64536 0.88289 0.0
H2793 H 0.37592 0.66848 0.80472 0.0
H2794 H 0.45686 0.66009 0.8171 0.0
H2795 H 0.42935 0.65838 0.7964 0.0
C2796 C 0.9626 0.64772 0.38168 0.0
C2797 C 0.96917 0.65704 0.40099 0.0
C2798 C 0.94629 0.64712 0.37539 0.0
C2799 C 0.91121 0.66495 0.36623 0.0
H2800 H 0.88718 0.63919 0.40196 0.0
C2801 C 0.84445 0.66809 0.37867 0.0
C2802 C 0.83533 0.65886 0.36704 0.0
C2803 C 0.86065 0.66699 0.38374 0.0
C2804 C 0.89371 0.64639 0.39133 0.0
H2805 H 0.96402 0.67317 0.42748 0.0
H2806 H 0.93578 0.67227 0.4158 0.0
H2807 H 0.91597 0.63882 0.40548 0.0
H2808 H 0.83573 0.64116 0.35244 0.0
H2809 H 0.86431 0.63914 0.36064 0.0
H2810 H 0.88926 0.67253 0.35156 0.0
C2811 C 0.9431 0.66537 0.40594 0.0
C2812 C 0.9102 0.64616 0.39333 0.0
C2813 C 0.95924 0.66586 0.41282 0.0
C2814 C 0.84258 0.64833 0.36206 0.0
C2815 C 0.85892 0.64723 0.36664 0.0
C2816 C 0.89483 0.66514 0.36384 0.0
C2817 C 0.93639 0.65596 0.38749 0.0
C2818 C 0.91909 0.65554 0.38151 0.0
C2819 C 0.86824 0.65664 0.37644 0.0
C2820 C 0.88579 0.65598 0.37719 0.0
H2821 H 0.97002 0.64081 0.37247 0.0
H2822 H 0.94143 0.6398 0.36093 0.0
H2823 H 0.91776 0.67223 0.35633 0.0
H2824 H 0.83903 0.67628 0.38247 0.0
H2825 H 0.86729 0.67435 0.39243 0.0
C2826 C 0.34463 0.57162 0.38123 0.0
C2827 C 0.33583 0.58165 0.37962 0.0
C2828 C 0.36101 0.57184 0.37801 0.0
C2829 C 0.3958 0.58999 0.38994 0.0
H2830 H 0.41578 0.5678 0.32367 0.0
C2831 C 0.46329 0.58971 0.3607 0.0
C2832 C 0.47062 0.57913 0.35741 0.0
C2833 C 0.44685 0.59055 0.36299 0.0
C2834 C 0.41046 0.57397 0.34274 0.0
H2835 H 0.33746 0.5998 0.37402 0.0
H2836 H 0.36617 0.60019 0.36856 0.0
H2837 H 0.38727 0.56826 0.32877 0.0
H2838 H 0.46641 0.56112 0.35568 0.0
H2839 H 0.43801 0.56253 0.36031 0.0
H2840 H 0.41903 0.59558 0.40453 0.0
C2841 C 0.36032 0.59216 0.37228 0.0
C2842 C 0.39407 0.57425 0.34555 0.0
C2843 C 0.34388 0.59193 0.37509 0.0
C2844 C 0.46116 0.56941 0.35727 0.0
C2845 C 0.44481 0.57024 0.35985 0.0
C2846 C 0.41225 0.58966 0.38739 0.0
C2847 C 0.36907 0.58209 0.3734 0.0
C2848 C 0.38653 0.58219 0.36943 0.0
C2849 C 0.43737 0.58081 0.36232 0.0
C2850 C 0.41983 0.58157 0.36403 0.0
H2851 H 0.33884 0.56355 0.38425 0.0
H2852 H 0.36739 0.56394 0.37938 0.0
H2853 H 0.39035 0.59617 0.40881 0.0
H2854 H 0.47023 0.59736 0.36064 0.0
H2855 H 0.44159 0.59885 0.36449 0.0
C2856 C 0.08728 0.41864 0.13684 0.0
C2857 C 0.07735 0.40955 0.12784 0.0
C2858 C 0.10322 0.41833 0.12744 0.0
C2859 C 0.13369 0.40355 0.06858 0.0
H2860 H 0.16128 0.41722 0.14491 0.0
C2861 C 0.20309 0.40267 0.06514 0.0
C2862 C 0.21017 0.41324 0.07167 0.0
C2863 C 0.18675 0.4013 0.06936 0.0
C2864 C 0.15374 0.4134 0.12323 0.0
H2865 H 0.07625 0.39315 0.10052 0.0
H2866 H 0.10442 0.39244 0.08458 0.0
H2867 H 0.1332 0.41642 0.15713 0.0
H2868 H 0.20544 0.43061 0.08779 0.0
H2869 H 0.17729 0.4282 0.0951 0.0
H2870 H 0.1546 0.40042 0.03507 0.0
C2871 C 0.09977 0.39989 0.09864 0.0
C2872 C 0.13758 0.41299 0.13009 0.0
C2873 C 0.08365 0.40027 0.10775 0.0
C2874 C 0.20048 0.42239 0.0819 0.0
C2875 C 0.18431 0.42099 0.08656 0.0
C2876 C 0.14999 0.40386 0.06189 0.0
C2877 C 0.10984 0.40883 0.10918 0.0
C2878 C 0.12723 0.40833 0.1025 0.0
C2879 C 0.17725 0.41042 0.08087 0.0
C2880 C 0.16014 0.40902 0.08881 0.0
H2881 H 0.08269 0.42601 0.1515 0.0
H2882 H 0.11039 0.42555 0.13484 0.0
H2883 H 0.12612 0.3999 0.04663 0.0
H2884 H 0.21019 0.39547 0.05712 0.0
H2885 H 0.18163 0.39304 0.06485 0.0
C2886 C 0.58458 0.34023 0.09785 0.0
C2887 C 0.57715 0.32978 0.1037 0.0
C2888 C 0.60105 0.34103 0.09768 0.0
C2889 C 0.6372 0.32304 0.08989 0.0
H2890 H 0.6582 0.34917 0.13336 0.0
C2891 C 0.70186 0.32253 0.13927 0.0
C2892 C 0.71161 0.33151 0.12793 0.0
C2893 C 0.68569 0.32286 0.13227 0.0
C2894 C 0.65248 0.34188 0.1207 0.0
H2895 H 0.58121 0.31208 0.11547 0.0
H2896 H 0.60966 0.31347 0.11633 0.0
H2897 H 0.62949 0.34874 0.12998 0.0
H2898 H 0.71207 0.34786 0.10023 0.0
H2899 H 0.68349 0.3486 0.08867 0.0
H2900 H 0.66021 0.31602 0.08222 0.0
C2901 C 0.60294 0.32103 0.11035 0.0
C2902 C 0.63601 0.34163 0.11865 0.0
C2903 C 0.58654 0.32021 0.11004 0.0
C2904 C 0.70481 0.34082 0.1091 0.0
C2905 C 0.6885 0.34126 0.10275 0.0
C2906 C 0.65361 0.32324 0.09247 0.0
C2907 C 0.61049 0.33142 0.1038 0.0
C2908 C 0.6281 0.33211 0.10376 0.0
C2909 C 0.67878 0.33226 0.11427 0.0
C2910 C 0.66144 0.33259 0.10836 0.0
H2911 H 0.57766 0.34773 0.09264 0.0
H2912 H 0.60635 0.34916 0.09211 0.0
H2913 H 0.63168 0.3157 0.07717 0.0
H2914 H 0.70679 0.3152 0.15351 0.0
H2915 H 0.67852 0.31583 0.1417 0.0
C2916 C 0.20501 0.33822 0.62007 0.0
C2917 C 0.21179 0.3287 0.6379 0.0
C2918 C 0.18864 0.33947 0.61823 0.0
C2919 C 0.15116 0.32826 0.65951 0.0
H2920 H 0.13319 0.33817 0.56177 0.0
C2921 C 0.08761 0.31807 0.61696 0.0
C2922 C 0.0782 0.32672 0.60139 0.0
C2923 C 0.10373 0.31959 0.62218 0.0
C2924 C 0.13803 0.33553 0.5894 0.0
H2925 H 0.20656 0.31335 0.66942 0.0
H2926 H 0.17819 0.31537 0.66554 0.0
H2927 H 0.16167 0.33867 0.57103 0.0
H2928 H 0.07856 0.34371 0.57841 0.0
H2929 H 0.10701 0.34633 0.58708 0.0
H2930 H 0.12756 0.32474 0.67732 0.0
C2931 C 0.18545 0.32195 0.65323 0.0
C2932 C 0.15436 0.33584 0.59482 0.0
C2933 C 0.20178 0.32072 0.65512 0.0
C2934 C 0.08546 0.3369 0.5905 0.0
C2935 C 0.10173 0.33838 0.59534 0.0
C2936 C 0.13489 0.32786 0.65397 0.0
C2937 C 0.17862 0.33125 0.63421 0.0
C2938 C 0.16117 0.332 0.62971 0.0
C2939 C 0.11099 0.32978 0.61179 0.0
C2940 C 0.12815 0.33128 0.61861 0.0
H2941 H 0.21231 0.3445 0.60618 0.0
H2942 H 0.18384 0.34681 0.60383 0.0
H2943 H 0.15589 0.32549 0.6871 0.0
H2944 H 0.08246 0.31019 0.62633 0.0
H2945 H 0.11055 0.31275 0.63447 0.0
C2946 C 0.58632 0.39946 0.64677 0.0
C2947 C 0.5791 0.41005 0.64254 0.0
C2948 C 0.60273 0.39843 0.64536 0.0
C2949 C 0.63959 0.41577 0.64984 0.0
H2950 H 0.65853 0.38954 0.6016 0.0
C2951 C 0.70251 0.4151 0.5883 0.0
C2952 C 0.71228 0.40602 0.59856 0.0
C2953 C 0.68662 0.41512 0.59842 0.0
C2954 C 0.65339 0.39685 0.61558 0.0
H2955 H 0.58341 0.42779 0.63236 0.0
H2956 H 0.6118 0.42601 0.62856 0.0
H2957 H 0.63001 0.39047 0.60914 0.0
H2958 H 0.71315 0.38987 0.62757 0.0
H2959 H 0.68499 0.38972 0.64447 0.0
H2960 H 0.66299 0.42235 0.65435 0.0
C2961 C 0.60497 0.41851 0.63449 0.0
C2962 C 0.63703 0.39739 0.62005 0.0
C2963 C 0.58863 0.41955 0.63648 0.0
C2964 C 0.70585 0.39697 0.61951 0.0
C2965 C 0.68979 0.39687 0.62893 0.0
C2966 C 0.65588 0.4153 0.64476 0.0
C2967 C 0.61232 0.40795 0.63913 0.0
C2968 C 0.62985 0.40695 0.63672 0.0
C2969 C 0.68004 0.40595 0.61842 0.0
C2970 C 0.66293 0.4059 0.62716 0.0
H2971 H 0.57927 0.39201 0.65178 0.0
H2972 H 0.60788 0.39018 0.64961 0.0
H2973 H 0.63464 0.42314 0.66383 0.0
H2974 H 0.70722 0.42221 0.57243 0.0
H2975 H 0.67938 0.4222 0.58976 0.0
C2976 C 1.0168 0.09711 0.23545 0.0
C2977 C 1.01889 0.10311 0.27021 0.0
C2978 C 1.01721 0.10264 0.19987 0.0
C2979 C 0.03543 0.12629 0.15262 0.0
H2980 H 1.00576 0.12008 0.06975 0.0
C2981 C 0.04014 0.14763 0.00312 0.0
C2982 C 0.03601 0.1414 0.96992 0.0
C2983 C 0.03758 0.14328 0.04013 0.0
C2984 C 1.01427 0.12178 0.09239 0.0
H2985 H 0.02264 0.11962 0.29539 0.0
H2986 H 0.02377 0.12939 0.23238 0.0
H2987 H 1.00098 0.11258 0.13464 0.0
H2988 H 0.02638 0.12557 0.94948 0.0
H2989 H 0.02237 0.11775 0.01442 0.0
H2990 H 0.04908 0.1351 0.11037 0.0
C2991 C 0.02168 0.12039 0.23302 0.0
C2992 C 1.01144 0.11758 0.12961 0.0
C2993 C 0.02096 0.11484 0.26891 0.0
C2994 C 0.02965 0.13056 0.97453 0.0
C2995 C 0.02722 0.12615 0.01174 0.0
C2996 C 0.03837 0.13038 0.11532 0.0
C2997 C 0.01996 0.11428 0.19821 0.0
C2998 C 0.02205 0.11974 0.15997 0.0
C2999 C 0.03099 0.13252 0.04499 0.0
C3000 C 0.02787 0.12813 0.08467 0.0
H3001 H 1.01506 0.08806 0.23569 0.0
H3002 H 1.01599 0.09773 0.17353 0.0
H3003 H 0.04394 0.1279 0.17538 0.0
H3004 H 0.04498 0.15604 0.00068 0.0
H3005 H 0.0404 0.14851 0.06493 0.0
C3006 C 0.25895 0.10942 0.971 0.0
C3007 C 0.26942 0.10029 0.97089 0.0
C3008 C 0.25659 0.11561 0.00521 0.0
C3009 C 0.27288 0.12075 0.10371 0.0
H3010 H 0.22921 0.12311 0.13486 0.0
C3011 C 0.25645 0.13001 0.26179 0.0
C3012 C 0.24547 0.13871 0.26691 0.0
C3013 C 0.25856 0.12515 0.22516 0.0
C3014 C 0.24145 0.12259 0.12646 0.0
H3015 H 0.28635 0.09085 0.00471 0.0
H3016 H 0.28255 0.10169 0.06379 0.0
H3017 H 0.23569 0.11685 0.06923 0.0
H3018 H 0.22717 0.14849 0.23882 0.0
H3019 H 0.23078 0.14001 0.17516 0.0
H3020 H 0.27868 0.12635 0.16094 0.0
C3021 C 0.27611 0.10414 0.038 0.0
C3022 C 0.24516 0.11909 0.08879 0.0
C3023 C 0.27827 0.09791 0.00423 0.0
C3024 C 0.23578 0.14182 0.23564 0.0
C3025 C 0.23783 0.13695 0.19916 0.0
C3026 C 0.26919 0.12422 0.1413 0.0
C3027 C 0.26487 0.1128 0.03931 0.0
C3028 C 0.26092 0.11799 0.07722 0.0
C3029 C 0.24965 0.12888 0.19317 0.0
C3030 C 0.25344 0.12503 0.15327 0.0
H3031 H 0.25187 0.11127 0.94563 0.0
H3032 H 0.24794 0.1223 0.0054 0.0
H3033 H 0.28514 0.12008 0.09547 0.0
H3034 H 0.26412 0.12747 0.28535 0.0
H3035 H 0.26756 0.11878 0.22154 0.0
C3036 C 1.01192 0.84195 0.98655 0.0
C3037 C 1.01337 0.84873 0.01983 0.0
C3038 C 1.01462 0.8464 0.94978 0.0
C3039 C 0.03219 0.87073 0.8979 0.0
H3040 H 1.00425 0.86101 0.81527 0.0
C3041 C 0.02207 0.89552 0.75727 0.0
C3042 C 0.02122 0.88963 0.72195 0.0
C3043 C 0.02342 0.88976 0.79227 0.0
C3044 C 1.01232 0.86365 0.83787 0.0
H3045 H 1.01898 0.86546 0.04081 0.0
H3046 H 0.0232 0.87343 0.97603 0.0
H3047 H 1.00156 0.8529 0.8798 0.0
H3048 H 0.02149 0.87309 0.6953 0.0
H3049 H 0.02345 0.86287 0.75729 0.0
H3050 H 0.04243 0.88186 0.85597 0.0
C3051 C 0.02029 0.86458 0.97854 0.0
C3052 C 1.01079 0.85902 0.87492 0.0
C3053 C 1.01777 0.86006 0.01561 0.0
C3054 C 0.0221 0.87781 0.72218 0.0
C3055 C 0.02318 0.872 0.75752 0.0
C3056 C 0.03359 0.87544 0.86089 0.0
C3057 C 1.01862 0.8578 0.94515 0.0
C3058 C 0.02062 0.86256 0.90551 0.0
C3059 C 0.02374 0.87795 0.79287 0.0
C3060 C 0.02356 0.87202 0.83066 0.0
H3061 H 1.0088 0.83312 0.98882 0.0
H3062 H 1.01361 0.84085 0.92494 0.0
H3063 H 0.04014 0.8735 0.92052 0.0
H3064 H 0.02157 0.90465 0.75798 0.0
H3065 H 0.02364 0.89456 0.81904 0.0
C3066 C 0.77323 0.86226 0.72288 0.0
C3067 C 0.77767 0.85096 0.71781 0.0
C3068 C 0.77134 0.86669 0.76027 0.0
C3069 C 0.78219 0.86106 0.86305 0.0
H3070 H 0.75014 0.88346 0.88423 0.0
C3071 C 0.77054 0.87942 0.01684 0.0
C3072 C 0.77105 0.89125 0.01748 0.0
C3073 C 0.76989 0.87367 0.9813 0.0
C3074 C 0.7591 0.87717 0.87868 0.0
H3075 H 0.7832 0.83536 0.74778 0.0
H3076 H 0.77948 0.84293 0.81244 0.0
H3077 H 0.752 0.87518 0.81951 0.0
H3078 H 0.77071 0.90635 0.98185 0.0
H3079 H 0.76936 0.89636 0.92041 0.0
H3080 H 0.78921 0.86307 0.92241 0.0
C3081 C 0.7779 0.84851 0.78788 0.0
C3082 C 0.76026 0.8725 0.84156 0.0
C3083 C 0.77997 0.84415 0.75068 0.0
C3084 C 0.77046 0.89722 0.98228 0.0
C3085 C 0.76954 0.89151 0.94706 0.0
C3086 C 0.7809 0.86563 0.90027 0.0
C3087 C 0.77368 0.85985 0.79324 0.0
C3088 C 0.77198 0.86451 0.83312 0.0
C3089 C 0.7694 0.8797 0.94615 0.0
C3090 C 0.76951 0.87386 0.90823 0.0
H3091 H 0.7714 0.8677 0.69803 0.0
H3092 H 0.76829 0.87551 0.76331 0.0
H3093 H 0.79152 0.85505 0.85753 0.0
H3094 H 0.77098 0.87464 0.04361 0.0
H3095 H 0.76978 0.86454 0.98124 0.0
C3096 C 0.02128 0.61279 0.77709 0.0
C3097 C 1.01665 0.6015 0.7807 0.0
C3098 C 0.02372 0.61746 0.74024 0.0
C3099 C 0.0311 0.60863 0.63786 0.0
H3100 H 0.02388 0.64029 0.61673 0.0
C3101 C 0.03362 0.63045 0.48526 0.0
C3102 C 0.04243 0.64047 0.48467 0.0
C3103 C 0.03087 0.62486 0.52048 0.0
C3104 C 0.02597 0.63142 0.62235 0.0
H3105 H 1.00997 0.58644 0.74915 0.0
H3106 H 1.01339 0.59469 0.68523 0.0
H3107 H 1.01708 0.63263 0.68019 0.0
H3108 H 0.05622 0.65201 0.51994 0.0
H3109 H 0.05122 0.64236 0.58088 0.0
H3110 H 0.03963 0.60747 0.57934 0.0
C3111 C 1.01586 0.59985 0.71043 0.0
C3112 C 0.02217 0.62705 0.65876 0.0
C3113 C 1.01375 0.59514 0.7471 0.0
C3114 C 0.04922 0.64438 0.51939 0.0
C3115 C 0.04632 0.6389 0.55438 0.0
C3116 C 0.03465 0.61298 0.6012 0.0
C3117 C 0.02128 0.61098 0.70642 0.0
C3118 C 0.02482 0.61561 0.66718 0.0
C3119 C 0.03676 0.6293 0.55543 0.0
C3120 C 0.03229 0.62444 0.59334 0.0
H3121 H 0.02371 0.61782 0.80266 0.0
H3122 H 0.02805 0.62603 0.73841 0.0
H3123 H 0.03361 0.59982 0.64338 0.0
H3124 H 0.02822 0.62725 0.459 0.0
H3125 H 0.02349 0.61742 0.52068 0.0
C3126 C 0.26905 0.62824 0.75685 0.0
C3127 C 0.25423 0.63276 0.76577 0.0
C3128 C 0.27165 0.62323 0.72068 0.0
C3129 C 0.25331 0.60995 0.63756 0.0
H3130 H 0.282 0.62706 0.57284 0.0
C3131 C 0.25213 0.60433 0.47366 0.0
C3132 C 0.26643 0.60428 0.45359 0.0
C3133 C 0.25151 0.60792 0.5121 0.0
C3134 C 0.27417 0.62205 0.59058 0.0
H3135 H 0.23033 0.63505 0.74571 0.0
H3136 H 0.23468 0.62579 0.68316 0.0
H3137 H 0.27991 0.63139 0.64201 0.0
H3138 H 0.29122 0.60819 0.45678 0.0
H3139 H 0.29035 0.61415 0.52481 0.0
H3140 H 0.24765 0.60047 0.58688 0.0
C3141 C 0.24429 0.62627 0.70375 0.0
C3142 C 0.273 0.62453 0.63014 0.0
C3143 C 0.2418 0.63153 0.73938 0.0
C3144 C 0.28002 0.60835 0.47177 0.0
C3145 C 0.2795 0.61171 0.51071 0.0
C3146 C 0.25468 0.60732 0.59827 0.0
C3147 C 0.25935 0.62244 0.69365 0.0
C3148 C 0.26231 0.61865 0.65363 0.0
C3149 C 0.26529 0.61119 0.53165 0.0
C3150 C 0.2648 0.61355 0.57402 0.0
H3151 H 0.27884 0.62928 0.77667 0.0
H3152 H 0.28334 0.62032 0.71328 0.0
H3153 H 0.24504 0.6053 0.65532 0.0
H3154 H 0.24149 0.60125 0.45995 0.0
H3155 H 0.24026 0.6078 0.52678 0.0
C3156 C 0.02011 0.35681 0.51585 0.0
C3157 C 1.0129 0.34634 0.52242 0.0
C3158 C 0.02085 0.36127 0.47821 0.0
C3159 C 1.00232 0.35882 0.381 0.0
H3160 H 0.03996 0.37423 0.3465 0.0
C3161 C 1.00838 0.37705 0.22549 0.0
C3162 C 1.01257 0.38848 0.22599 0.0
C3163 C 1.00995 0.37054 0.25931 0.0
C3164 C 0.02939 0.36991 0.35573 0.0
H3165 H 1.00074 0.33238 0.49468 0.0
H3166 H 1.00223 0.34003 0.42968 0.0
H3167 H 0.03908 0.36612 0.4116 0.0
H3168 H 0.02257 0.40192 0.2608 0.0
H3169 H 0.02552 0.39063 0.31903 0.0
H3170 H 0.99258 0.36275 0.32525 0.0
C3171 C 1.00712 0.34491 0.45337 0.0
C3172 C 0.02884 0.36535 0.3931 0.0
C3173 C 1.00635 0.34049 0.49077 0.0
C3174 C 1.01911 0.39313 0.25981 0.0
C3175 C 0.02094 0.38664 0.29309 0.0
C3176 C 1.00291 0.36333 0.34356 0.0
C3177 C 1.0144 0.35533 0.44653 0.0
C3178 C 1.0152 0.35991 0.4064 0.0
C3179 C 1.01608 0.37535 0.29356 0.0
C3180 C 1.01635 0.36909 0.3308 0.0
H3181 H 0.02526 0.3615 0.53964 0.0
H3182 H 0.02638 0.3694 0.47397 0.0
H3183 H 0.99156 0.35479 0.39043 0.0
H3184 H 1.00328 0.37332 0.19968 0.0
H3185 H 1.00616 0.36182 0.25894 0.0
C3186 C 0.76973 0.35795 0.21148 0.0
C3187 C 0.78399 0.35356 0.19777 0.0
C3188 C 0.76929 0.36374 0.24685 0.0
C3189 C 0.79232 0.37845 0.32037 0.0
H3190 H 0.76731 0.36225 0.39619 0.0
C3191 C 0.8001 0.38765 0.4818 0.0
C3192 C 0.78659 0.38796 0.50496 0.0
C3193 C 0.79951 0.38307 0.44456 0.0
C3194 C 0.77416 0.36701 0.37541 0.0
H3195 H 0.809 0.35226 0.2081 0.0
H3196 H 0.80838 0.36289 0.26898 0.0
H3197 H 0.76589 0.35699 0.32779 0.0
H3198 H 0.76201 0.38345 0.50853 0.0
H3199 H 0.76071 0.37576 0.44286 0.0
H3200 H 0.80039 0.38866 0.36729 0.0
C3201 C 0.79757 0.36178 0.2528 0.0
C3202 C 0.77331 0.36399 0.33624 0.0
C3203 C 0.79794 0.35576 0.21803 0.0
C3204 C 0.77265 0.38309 0.49129 0.0
C3205 C 0.77193 0.37873 0.45358 0.0
C3206 C 0.79295 0.38162 0.35936 0.0
C3207 C 0.78316 0.36538 0.26827 0.0
C3208 C 0.78256 0.36959 0.30856 0.0
C3209 C 0.78524 0.37903 0.42926 0.0
C3210 C 0.78412 0.3758 0.38756 0.0
H3211 H 0.75881 0.3561 0.19658 0.0
H3212 H 0.75807 0.36646 0.25835 0.0
H3213 H 0.79953 0.38288 0.29943 0.0
H3214 H 0.81098 0.3914 0.49192 0.0
H3215 H 0.81014 0.38309 0.4273 0.0
C3216 C 0.54373 0.09679 0.71931 0.0
C3217 C 0.53429 0.10045 0.75028 0.0
C3218 C 0.54228 0.10164 0.6827 0.0
C3219 C 0.51463 0.11696 0.62034 0.0
H3220 H 0.55206 0.12313 0.55977 0.0
C3221 C 0.51309 0.13034 0.45744 0.0
C3222 C 0.52258 0.13971 0.44899 0.0
C3223 C 0.51433 0.12496 0.4936 0.0
C3224 C 0.54149 0.12145 0.57631 0.0
H3225 H 0.51614 0.11225 0.76748 0.0
H3226 H 0.51368 0.1209 0.703 0.0
H3227 H 0.55466 0.11596 0.62562 0.0
H3228 H 0.54109 0.15056 0.47104 0.0
H3229 H 0.54326 0.14124 0.53328 0.0
H3230 H 0.5015 0.1227 0.57092 0.0
C3231 C 0.5221 0.11416 0.70722 0.0
C3232 C 0.54297 0.11729 0.61396 0.0
C3233 C 0.52363 0.10932 0.74416 0.0
C3234 C 0.53356 0.14339 0.47669 0.0
C3235 C 0.53489 0.138 0.51235 0.0
C3236 C 0.51314 0.12111 0.58246 0.0
C3237 C 0.53133 0.11027 0.67606 0.0
C3238 C 0.52958 0.11503 0.63647 0.0
C3239 C 0.52523 0.12879 0.52141 0.0
C3240 C 0.52658 0.12348 0.56022 0.0
H3241 H 0.55207 0.08997 0.72309 0.0
H3242 H 0.54945 0.09838 0.65927 0.0
H3243 H 0.50409 0.11516 0.63684 0.0
H3244 H 0.50447 0.12739 0.43663 0.0
H3245 H 0.5068 0.11782 0.49982 0.0
C3246 C 0.77675 0.14332 0.73414 0.0
C3247 C 0.77431 0.13706 0.76818 0.0
C3248 C 0.77633 0.1381 0.69797 0.0
C3249 C 0.75696 0.11529 0.6488 0.0
H3250 H 0.78665 0.12119 0.56586 0.0
C3251 C 0.75085 0.09452 0.49892 0.0
C3252 C 0.75525 0.10067 0.46579 0.0
C3253 C 0.75371 0.09875 0.53595 0.0
C3254 C 0.77813 0.1196 0.58853 0.0
H3255 H 0.77001 0.1204 0.79153 0.0
H3256 H 0.76886 0.11119 0.72758 0.0
H3257 H 0.79196 0.12828 0.63114 0.0
H3258 H 0.76568 0.11625 0.4455 0.0
H3259 H 0.77019 0.1239 0.51053 0.0
H3260 H 0.74277 0.10704 0.60631 0.0
C3261 C 0.77125 0.12015 0.72918 0.0
C3262 C 0.78127 0.12355 0.62595 0.0
C3263 C 0.77199 0.12537 0.76562 0.0
C3264 C 0.76218 0.11132 0.4705 0.0
C3265 C 0.7649 0.11563 0.50776 0.0
C3266 C 0.75371 0.11147 0.61134 0.0
C3267 C 0.77318 0.12653 0.69507 0.0
C3268 C 0.77068 0.12145 0.65636 0.0
C3269 C 0.76086 0.10933 0.54094 0.0
C3270 C 0.76424 0.11358 0.58068 0.0
H3271 H 0.77866 0.15235 0.73542 0.0
H3272 H 0.77773 0.14322 0.67216 0.0
H3273 H 0.74845 0.11377 0.67161 0.0
H3274 H 0.74558 0.08625 0.4964 0.0
H3275 H 0.75068 0.09356 0.56067 0.0
C3276 C 0.53299 0.84873 0.49607 0.0
C3277 C 0.52846 0.85416 0.53051 0.0
C3278 C 0.53311 0.85456 0.46097 0.0
C3279 C 0.51157 0.87683 0.41361 0.0
H3280 H 0.54223 0.87311 0.33131 0.0
C3281 C 0.5039 0.89817 0.26506 0.0
C3282 C 0.50882 0.8924 0.23155 0.0
C3283 C 0.50719 0.89394 0.30187 0.0
C3284 C 0.53346 0.87411 0.35382 0.0
H3285 H 0.52124 0.87001 0.55597 0.0
H3286 H 0.52119 0.88028 0.49396 0.0
H3287 H 0.5479 0.86584 0.39619 0.0
H3288 H 0.52077 0.87748 0.21044 0.0
H3289 H 0.52613 0.86982 0.27512 0.0
H3290 H 0.49683 0.88466 0.3713 0.0
C3291 C 0.52474 0.87151 0.49434 0.0
C3292 C 0.53679 0.87004 0.39105 0.0
C3293 C 0.52489 0.8657 0.52976 0.0
C3294 C 0.51681 0.88211 0.23572 0.0
C3295 C 0.52002 0.8778 0.27278 0.0
C3296 C 0.50817 0.88078 0.37637 0.0
C3297 C 0.52844 0.86589 0.45949 0.0
C3298 C 0.52583 0.87131 0.42125 0.0
C3299 C 0.51536 0.88373 0.30633 0.0
C3300 C 0.51904 0.87943 0.34592 0.0
H3301 H 0.5358 0.83982 0.49602 0.0
H3302 H 0.5359 0.84998 0.43464 0.0
H3303 H 0.50275 0.8777 0.43609 0.0
H3304 H 0.49779 0.90617 0.26302 0.0
H3305 H 0.50364 0.89885 0.32689 0.0
C3306 C 0.2817 0.89649 0.48171 0.0
C3307 C 0.27902 0.88973 0.51454 0.0
C3308 C 0.27935 0.89223 0.44448 0.0
C3309 C 0.25991 0.86896 0.39092 0.0
H3310 H 0.28899 0.8775 0.30934 0.0
C3311 C 0.26822 0.84403 0.24992 0.0
C3312 C 0.26939 0.84997 0.21477 0.0
C3313 C 0.26744 0.84976 0.2851 0.0
C3314 C 0.28063 0.8752 0.33168 0.0
H3315 H 0.27188 0.87316 0.53415 0.0
H3316 H 0.26827 0.86551 0.46881 0.0
H3317 H 0.29219 0.88533 0.37427 0.0
H3318 H 0.27035 0.86655 0.1886 0.0
H3319 H 0.26939 0.8767 0.25091 0.0
H3320 H 0.24881 0.85844 0.3484 0.0
C3321 C 0.27183 0.87423 0.47193 0.0
C3322 C 0.28245 0.87966 0.36893 0.0
C3323 C 0.27402 0.87856 0.50936 0.0
C3324 C 0.26944 0.8618 0.21536 0.0
C3325 C 0.26895 0.86757 0.25086 0.0
C3326 C 0.25821 0.86441 0.35376 0.0
C3327 C 0.27444 0.88104 0.43903 0.0
C3328 C 0.2722 0.87651 0.39913 0.0
C3329 C 0.26803 0.86157 0.28602 0.0
C3330 C 0.26866 0.8674 0.32394 0.0
H3331 H 0.28539 0.90519 0.48468 0.0
H3332 H 0.28118 0.89778 0.41997 0.0
H3333 H 0.2516 0.86653 0.4132 0.0
H3334 H 0.26803 0.8349 0.25032 0.0
H3335 H 0.26691 0.84493 0.31175 0.0
C3336 C 0.52642 0.65069 0.0191 0.0
C3337 C 0.52605 0.64528 0.98275 0.0
C3338 C 0.52722 0.64448 0.05324 0.0
C3339 C 0.54034 0.61822 0.09514 0.0
H3340 H 0.5115 0.62595 0.17828 0.0
C3341 C 0.53901 0.5936 0.23906 0.0
C3342 C 0.53619 0.59954 0.27369 0.0
C3343 C 0.53756 0.59889 0.20316 0.0
C3344 C 0.51979 0.62379 0.15562 0.0
H3345 H 0.52653 0.62907 0.95375 0.0
H3346 H 0.52832 0.61808 0.01428 0.0
H3347 H 0.50907 0.6352 0.11538 0.0
H3348 H 0.52981 0.61577 0.29785 0.0
H3349 H 0.52769 0.6252 0.23484 0.0
H3350 H 0.55143 0.6071 0.13555 0.0
C3351 C 0.52782 0.62719 0.01584 0.0
C3352 C 0.5183 0.62902 0.1195 0.0
C3353 C 0.52679 0.63345 0.98134 0.0
C3354 C 0.53202 0.61097 0.27164 0.0
C3355 C 0.53071 0.61633 0.23552 0.0
C3356 C 0.54195 0.61307 0.13143 0.0
C3357 C 0.52785 0.63269 0.05208 0.0
C3358 C 0.52863 0.62635 0.08903 0.0
C3359 C 0.5334 0.61032 0.20081 0.0
C3360 C 0.53174 0.61584 0.16221 0.0
H3361 H 0.52586 0.65978 0.02142 0.0
H3362 H 0.52747 0.64893 0.08071 0.0
H3363 H 0.54858 0.61613 0.07227 0.0
H3364 H 0.54211 0.58474 0.23949 0.0
H3365 H 0.53942 0.59392 0.17718 0.0
C3366 C 0.77732 0.64383 0.23341 0.0
C3367 C 0.769 0.64133 0.26743 0.0
C3368 C 0.77519 0.63738 0.20012 0.0
C3369 C 0.74462 0.62141 0.15214 0.0
H3370 H 0.77765 0.61491 0.07785 0.0
C3371 C 0.73395 0.59918 0.00502 0.0
C3372 C 0.74293 0.60271 0.97304 0.0
C3373 C 0.73662 0.6037 0.04179 0.0
C3374 C 0.76828 0.6168 0.09812 0.0
H3375 H 0.7525 0.6299 0.29445 0.0
H3376 H 0.74859 0.61848 0.2355 0.0
H3377 H 0.78453 0.62139 0.14286 0.0
H3378 H 0.76108 0.61426 0.95392 0.0
H3379 H 0.76559 0.62235 0.01828 0.0
H3380 H 0.72836 0.61702 0.10716 0.0
C3381 C 0.75681 0.62545 0.23479 0.0
C3382 C 0.77223 0.6204 0.13544 0.0
C3383 C 0.75914 0.63187 0.2685 0.0
C3384 C 0.75396 0.61139 0.97803 0.0
C3385 C 0.75668 0.61591 0.01495 0.0
C3386 C 0.74066 0.61781 0.11477 0.0
C3387 C 0.76453 0.62836 0.20002 0.0
C3388 C 0.76044 0.62292 0.16264 0.0
C3389 C 0.74835 0.61186 0.04738 0.0
C3390 C 0.75245 0.61563 0.08717 0.0
H3391 H 0.78496 0.65113 0.23203 0.0
H3392 H 0.78118 0.63991 0.17379 0.0
H3393 H 0.73527 0.62346 0.17227 0.0
H3394 H 0.72532 0.59252 0.00202 0.0
H3395 H 0.73004 0.60038 0.06614 0.0
C3396 C 0.51634 0.36016 0.01562 0.0
C3397 C 0.51223 0.34882 0.02112 0.0
C3398 C 0.51787 0.36451 0.97806 0.0
C3399 C 0.5067 0.35852 0.87588 0.0
H3400 H 0.53874 0.38077 0.85301 0.0
C3401 C 0.51755 0.37622 0.72127 0.0
C3402 C 0.51679 0.38804 0.72022 0.0
C3403 C 0.51857 0.37061 0.75696 0.0
C3404 C 0.52979 0.37451 0.85905 0.0
H3405 H 0.50678 0.33309 0.99175 0.0
H3406 H 0.50987 0.34055 0.92681 0.0
H3407 H 0.53707 0.37277 0.91817 0.0
H3408 H 0.5172 0.40328 0.75515 0.0
H3409 H 0.51922 0.39352 0.81692 0.0
H3410 H 0.49949 0.36029 0.8166 0.0
C3411 C 0.51149 0.3462 0.95118 0.0
C3412 C 0.52873 0.37001 0.89639 0.0
C3413 C 0.50978 0.34191 0.98853 0.0
C3414 C 0.51762 0.39415 0.7551 0.0
C3415 C 0.51892 0.38858 0.79047 0.0
C3416 C 0.50789 0.36292 0.83845 0.0
C3417 C 0.51549 0.35756 0.9454 0.0
C3418 C 0.51702 0.36208 0.9054 0.0
C3419 C 0.51922 0.37678 0.79181 0.0
C3420 C 0.51928 0.37108 0.8299 0.0
H3421 H 0.51828 0.36566 0.04026 0.0
H3422 H 0.52075 0.37334 0.97465 0.0
H3423 H 0.49738 0.35255 0.88189 0.0
H3424 H 0.51694 0.37134 0.69471 0.0
H3425 H 0.5188 0.36148 0.75739 0.0
C3426 C 0.26662 0.35838 0.71624 0.0
C3427 C 0.27487 0.34826 0.71045 0.0
C3428 C 0.26594 0.36326 0.75331 0.0
C3429 C 0.28761 0.36371 0.8456 0.0
H3430 H 0.24898 0.37517 0.89051 0.0
C3431 C 0.28696 0.39148 0.981 0.0
C3432 C 0.2756 0.38943 0.00964 0.0
C3433 C 0.28646 0.38579 0.94573 0.0
C3434 C 0.2598 0.37188 0.8784 0.0
H3435 H 0.28883 0.33532 0.73893 0.0
H3436 H 0.28761 0.34375 0.80274 0.0
H3437 H 0.24867 0.36706 0.82494 0.0
H3438 H 0.2549 0.3797 0.02432 0.0
H3439 H 0.25397 0.36963 0.96186 0.0
H3440 H 0.29876 0.36844 0.89872 0.0
C3441 C 0.28177 0.348 0.7789 0.0
C3442 C 0.25966 0.3674 0.84078 0.0
C3443 C 0.2824 0.34314 0.74223 0.0
C3444 C 0.26386 0.38135 0.00274 0.0
C3445 C 0.26325 0.3757 0.967 0.0
C3446 C 0.28775 0.3682 0.88294 0.0
C3447 C 0.27362 0.35812 0.7849 0.0
C3448 C 0.27359 0.36327 0.82408 0.0
C3449 C 0.27451 0.37795 0.93812 0.0
C3450 C 0.27389 0.37239 0.89967 0.0
H3451 H 0.26064 0.36247 0.6923 0.0
H3452 H 0.25964 0.37112 0.75717 0.0
H3453 H 0.29855 0.36067 0.8334 0.0
H3454 H 0.29616 0.39766 0.98555 0.0
H3455 H 0.2952 0.38778 0.92394 0.0
loop_
_geom_bond_atom_site_label_1
_geom_bond_atom_site_label_2
_geom_bond_distance
_geom_bond_site_symmetry_2
_ccdc_geom_bond_type
C0 C1 1.351 . S
C0 N3 1.368 . S
C0 H5 0.931 . S
C1 C0 1.351 . S
C1 N2 1.373 . S
C1 H29 0.930 . S
N2 C1 1.373 . S
N2 C4 1.340 . S
N3 C0 1.368 . S
N3 C4 1.321 . S
N3 Co6 2.195 . S
C4 N2 1.340 . S
C4 N3 1.321 . S
C4 H28 0.930 . S
H5 C0 0.931 . S
Co6 N3 2.195 . S
Co6 N9 2.060 1_655 S
Co6 O14 2.054 . S
Co6 O17 2.049 . S
Co6 N20 2.136 1_655 S
C7 O8 1.227 . S
C7 O17 1.265 . S
O8 C7 1.227 . S
N9 Co6 2.060 1_455 S
N9 C11 1.375 . S
N9 C12 1.313 . S
C10 C11 1.338 . S
C10 N13 1.377 . S
C10 H30 0.930 . S
C11 N9 1.375 . S
C11 C10 1.338 . S
C11 H15 0.931 . S
C12 N9 1.313 . S
C12 N13 1.344 . S
C12 H16 0.930 . S
N13 C10 1.377 . S
N13 C12 1.344 . S
O14 Co6 2.054 . S
O14 C18 1.249 1_655 S
H15 C11 0.931 . S
H16 C12 0.930 . S
O17 Co6 2.049 . S
O17 C7 1.265 . S
C18 O14 1.249 1_455 S
C18 O19 1.227 . S
O19 C18 1.227 . S
N20 Co6 2.136 1_455 S
N20 C23 1.346 1_455 S
N20 C24 1.345 . S
C21 C22 1.387 1_455 S
C21 C25 1.391 . S
C22 C21 1.387 1_655 S
C22 C23 1.369 . S
C22 H31 0.929 . S
C23 N20 1.346 1_655 S
C23 C22 1.369 . S
C23 H26 0.928 . S
C24 N20 1.345 . S
C24 C25 1.371 . S
C24 H27 0.931 . S
C25 C21 1.391 . S
C25 C24 1.371 . S
C25 H32 0.930 . S
H26 C23 0.928 . S
H27 C24 0.931 . S
H28 C4 0.930 . S
H29 C1 0.930 . S
H30 C10 0.930 . S
H31 C22 0.929 . S
H32 C25 0.930 . S
C33 C34 1.351 . S
C33 N36 1.368 . S
C33 H38 0.931 . S
C34 C33 1.351 . S
C34 N35 1.373 . S
C34 H62 0.930 . S
N35 C34 1.373 . S
N35 C37 1.340 . S
N36 C33 1.368 . S
N36 C37 1.321 . S
N36 Co39 2.135 . S
C37 N35 1.340 . S
C37 N36 1.321 . S
C37 H61 0.930 . S
H38 C33 0.931 . S
Co39 N36 2.135 . S
Co39 N42 2.121 . S
Co39 O47 2.055 . S
Co39 O50 2.039 . S
Co39 N53 2.140 . S
C40 O41 1.227 . S
C40 O50 1.265 . S
O41 C40 1.227 . S
N42 Co39 2.121 . S
N42 C44 1.375 . S
N42 C45 1.313 . S
C43 C44 1.338 . S
C43 N46 1.377 . S
C43 H63 0.930 . S
C44 N42 1.375 . S
C44 C43 1.338 . S
C44 H48 0.931 . S
C45 N42 1.313 . S
C45 N46 1.344 . S
C45 H49 0.930 . S
N46 C43 1.377 . S
N46 C45 1.344 . S
O47 Co39 2.055 . S
O47 C51 1.253 . S
H48 C44 0.931 . S
H49 C45 0.930 . S
O50 Co39 2.039 . S
O50 C40 1.265 . S
C51 O47 1.253 . S
C51 O52 1.227 . S
O52 C51 1.227 . S
N53 Co39 2.140 . S
N53 C56 1.346 . S
N53 C57 1.345 . S
C54 C55 1.387 . S
C54 C58 1.391 . S
C55 C54 1.387 . S
C55 C56 1.369 . S
C55 H64 0.929 . S
C56 N53 1.346 . S
C56 C55 1.369 . S
C56 H59 0.928 . S
C57 N53 1.345 . S
C57 C58 1.371 . S
C57 H60 0.931 . S
C58 C54 1.391 . S
C58 C57 1.371 . S
C58 H65 0.930 . S
H59 C56 0.928 . S
H60 C57 0.931 . S
H61 C37 0.930 . S
H62 C34 0.930 . S
H63 C43 0.930 . S
H64 C55 0.929 . S
H65 C58 0.930 . S
C66 C67 1.351 . S
C66 N69 1.368 . S
C66 H71 0.931 . S
C67 C66 1.351 . S
C67 N68 1.373 . S
C67 H95 0.930 . S
N68 C67 1.373 . S
N68 C70 1.340 . S
N69 C66 1.368 . S
N69 C70 1.321 . S
N69 Co72 2.195 . S
C70 N68 1.340 . S
C70 N69 1.321 . S
C70 H94 0.930 . S
H71 C66 0.931 . S
Co72 N69 2.195 . S
Co72 N75 2.060 1_655 S
Co72 O80 2.054 . S
Co72 O83 2.049 . S
Co72 N86 2.136 1_655 S
C73 O74 1.227 . S
C73 O83 1.265 . S
O74 C73 1.227 . S
N75 Co72 2.060 1_455 S
N75 C77 1.375 . S
N75 C78 1.313 . S
C76 C77 1.338 . S
C76 N79 1.377 . S
C76 H96 0.930 . S
C77 N75 1.375 . S
C77 C76 1.338 . S
C77 H81 0.931 . S
C78 N75 1.313 . S
C78 N79 1.344 . S
C78 H82 0.930 . S
N79 C76 1.377 . S
N79 C78 1.344 . S
O80 Co72 2.054 . S
O80 C84 1.249 1_655 S
H81 C77 0.931 . S
H82 C78 0.930 . S
O83 Co72 2.049 . S
O83 C73 1.265 . S
C84 O80 1.249 1_455 S
C84 O85 1.227 . S
O85 C84 1.227 . S
N86 Co72 2.136 1_455 S
N86 C89 1.346 1_455 S
N86 C90 1.345 . S
C87 C88 1.387 1_455 S
C87 C91 1.391 . S
C88 C87 1.387 1_655 S
C88 C89 1.369 . S
C88 H97 0.929 . S
C89 N86 1.346 1_655 S
C89 C88 1.369 . S
C89 H92 0.928 . S
C90 N86 1.345 . S
C90 C91 1.371 . S
C90 H93 0.931 . S
C91 C87 1.391 . S
C91 C90 1.371 . S
C91 H98 0.930 . S
H92 C89 0.928 . S
H93 C90 0.931 . S
H94 C70 0.930 . S
H95 C67 0.930 . S
H96 C76 0.930 . S
H97 C88 0.929 . S
H98 C91 0.930 . S
C99 C100 1.351 . S
C99 N102 1.368 . S
C99 H104 0.931 . S
C100 C99 1.351 . S
C100 N101 1.373 . S
C100 H128 0.930 . S
N101 C100 1.373 . S
N101 C103 1.340 . S
N102 C99 1.368 . S
N102 C103 1.321 . S
N102 Co105 2.135 . S
C103 N101 1.340 . S
C103 N102 1.321 . S
C103 H127 0.930 . S
H104 C99 0.931 . S
Co105 N102 2.135 . S
Co105 N108 2.121 . S
Co105 O113 2.055 . S
Co105 O116 2.039 . S
Co105 N119 2.140 . S
C106 O107 1.227 . S
C106 O116 1.265 . S
O107 C106 1.227 . S
N108 Co105 2.121 . S
N108 C110 1.375 . S
N108 C111 1.313 . S
C109 C110 1.338 . S
C109 N112 1.377 . S
C109 H129 0.930 . S
C110 N108 1.375 . S
C110 C109 1.338 . S
C110 H114 0.931 . S
C111 N108 1.313 . S
C111 N112 1.344 . S
C111 H115 0.930 . S
N112 C109 1.377 . S
N112 C111 1.344 . S
O113 Co105 2.055 . S
O113 C117 1.253 . S
H114 C110 0.931 . S
H115 C111 0.930 . S
O116 Co105 2.039 . S
O116 C106 1.265 . S
C117 O113 1.253 . S
C117 O118 1.227 . S
O118 C117 1.227 . S
N119 Co105 2.140 . S
N119 C122 1.346 . S
N119 C123 1.345 . S
C120 C121 1.387 . S
C120 C124 1.391 . S
C121 C120 1.387 . S
C121 C122 1.369 . S
C121 H130 0.929 . S
C122 N119 1.346 . S
C122 C121 1.369 . S
C122 H125 0.928 . S
C123 N119 1.345 . S
C123 C124 1.371 . S
C123 H126 0.931 . S
C124 C120 1.391 . S
C124 C123 1.371 . S
C124 H131 0.930 . S
H125 C122 0.928 . S
H126 C123 0.931 . S
H127 C103 0.930 . S
H128 C100 0.930 . S
H129 C109 0.930 . S
H130 C121 0.929 . S
H131 C124 0.930 . S
C132 C133 1.351 . S
C132 N135 1.368 . S
C132 H137 0.931 . S
C133 C132 1.351 . S
C133 N134 1.373 . S
C133 H161 0.930 . S
N134 C133 1.373 . S
N134 C136 1.340 . S
N135 C132 1.368 . S
N135 C136 1.321 . S
N135 Co138 2.195 . S
C136 N134 1.340 . S
C136 N135 1.321 . S
C136 H160 0.930 . S
H137 C132 0.931 . S
Co138 N135 2.195 . S
Co138 N141 2.060 1_455 S
Co138 O146 2.054 . S
Co138 O149 2.049 . S
Co138 N152 2.136 1_455 S
C139 O140 1.227 . S
C139 O149 1.265 . S
O140 C139 1.227 . S
N141 Co138 2.060 1_655 S
N141 C143 1.375 . S
N141 C144 1.313 . S
C142 C143 1.338 . S
C142 N145 1.377 . S
C142 H162 0.930 . S
C143 N141 1.375 . S
C143 C142 1.338 . S
C143 H147 0.931 . S
C144 N141 1.313 . S
C144 N145 1.344 . S
C144 H148 0.930 . S
N145 C142 1.377 . S
N145 C144 1.344 . S
O146 Co138 2.054 . S
O146 C150 1.249 1_455 S
H147 C143 0.931 . S
H148 C144 0.930 . S
O149 Co138 2.049 . S
O149 C139 1.265 . S
C150 O146 1.249 1_655 S
C150 O151 1.227 . S
O151 C150 1.227 . S
N152 Co138 2.136 1_655 S
N152 C155 1.346 1_655 S
N152 C156 1.345 . S
C153 C154 1.387 1_655 S
C153 C157 1.391 . S
C154 C153 1.387 1_455 S
C154 C155 1.369 . S
C154 H163 0.929 . S
C155 N152 1.346 1_455 S
C155 C154 1.369 . S
C155 H158 0.928 . S
C156 N152 1.345 . S
C156 C157 1.371 . S
C156 H159 0.931 . S
C157 C153 1.391 . S
C157 C156 1.371 . S
C157 H164 0.930 . S
H158 C155 0.928 . S
H159 C156 0.931 . S
H160 C136 0.930 . S
H161 C133 0.930 . S
H162 C142 0.930 . S
H163 C154 0.929 . S
H164 C157 0.930 . S
C165 C166 1.351 . S
C165 N168 1.368 . S
C165 H170 0.931 . S
C166 C165 1.351 . S
C166 N167 1.373 . S
C166 H194 0.930 . S
N167 C166 1.373 . S
N167 C169 1.340 . S
N168 C165 1.368 . S
N168 C169 1.321 . S
N168 Co171 2.135 . S
C169 N167 1.340 . S
C169 N168 1.321 . S
C169 H193 0.930 . S
H170 C165 0.931 . S
Co171 N168 2.135 . S
Co171 N174 2.121 . S
Co171 O179 2.055 . S
Co171 O182 2.039 . S
Co171 N185 2.140 . S
C172 O173 1.227 . S
C172 O182 1.265 . S
O173 C172 1.227 . S
N174 Co171 2.121 . S
N174 C176 1.375 . S
N174 C177 1.313 . S
C175 C176 1.338 . S
C175 N178 1.377 . S
C175 H195 0.930 . S
C176 N174 1.375 . S
C176 C175 1.338 . S
C176 H180 0.931 . S
C177 N174 1.313 . S
C177 N178 1.344 . S
C177 H181 0.930 . S
N178 C175 1.377 . S
N178 C177 1.344 . S
O179 Co171 2.055 . S
O179 C183 1.253 . S
H180 C176 0.931 . S
H181 C177 0.930 . S
O182 Co171 2.039 . S
O182 C172 1.265 . S
C183 O179 1.253 . S
C183 O184 1.227 . S
O184 C183 1.227 . S
N185 Co171 2.140 . S
N185 C188 1.346 . S
N185 C189 1.345 . S
C186 C187 1.387 . S
C186 C190 1.391 . S
C187 C186 1.387 . S
C187 C188 1.369 . S
C187 H196 0.929 . S
C188 N185 1.346 . S
C188 C187 1.369 . S
C188 H191 0.928 . S
C189 N185 1.345 . S
C189 C190 1.371 . S
C189 H192 0.931 . S
C190 C186 1.391 . S
C190 C189 1.371 . S
C190 H197 0.930 . S
H191 C188 0.928 . S
H192 C189 0.931 . S
H193 C169 0.930 . S
H194 C166 0.930 . S
H195 C175 0.930 . S
H196 C187 0.929 . S
H197 C190 0.930 . S
C198 C199 1.351 . S
C198 N201 1.368 . S
C198 H203 0.931 . S
C199 C198 1.351 . S
C199 N200 1.373 . S
C199 H227 0.930 . S
N200 C199 1.373 . S
N200 C202 1.340 . S
N201 C198 1.368 . S
N201 C202 1.321 . S
N201 Co204 2.195 . S
C202 N200 1.340 . S
C202 N201 1.321 . S
C202 H226 0.930 . S
H203 C198 0.931 . S
Co204 N201 2.195 . S
Co204 N207 2.060 1_455 S
Co204 O212 2.054 . S
Co204 O215 2.049 . S
Co204 N218 2.136 1_455 S
C205 O206 1.227 . S
C205 O215 1.265 . S
O206 C205 1.227 . S
N207 Co204 2.060 1_655 S
N207 C209 1.375 . S
N207 C210 1.313 . S
C208 C209 1.338 . S
C208 N211 1.377 . S
C208 H228 0.930 . S
C209 N207 1.375 . S
C209 C208 1.338 . S
C209 H213 0.931 . S
C210 N207 1.313 . S
C210 N211 1.344 . S
C210 H214 0.930 . S
N211 C208 1.377 . S
N211 C210 1.344 . S
O212 Co204 2.054 . S
O212 C216 1.249 1_455 S
H213 C209 0.931 . S
H214 C210 0.930 . S
O215 Co204 2.049 . S
O215 C205 1.265 . S
C216 O212 1.249 1_655 S
C216 O217 1.227 . S
O217 C216 1.227 . S
N218 Co204 2.136 1_655 S
N218 C221 1.346 1_655 S
N218 C222 1.345 . S
C219 C220 1.387 1_655 S
C219 C223 1.391 . S
C220 C219 1.387 1_455 S
C220 C221 1.369 . S
C220 H229 0.929 . S
C221 N218 1.346 1_455 S
C221 C220 1.369 . S
C221 H224 0.928 . S
C222 N218 1.345 . S
C222 C223 1.371 . S
C222 H225 0.931 . S
C223 C219 1.391 . S
C223 C222 1.371 . S
C223 H230 0.930 . S
H224 C221 0.928 . S
H225 C222 0.931 . S
H226 C202 0.930 . S
H227 C199 0.930 . S
H228 C208 0.930 . S
H229 C220 0.929 . S
H230 C223 0.930 . S
C231 C232 1.351 . S
C231 N234 1.368 . S
C231 H236 0.931 . S
C232 C231 1.351 . S
C232 N233 1.373 . S
C232 H260 0.930 . S
N233 C232 1.373 . S
N233 C235 1.340 . S
N234 C231 1.368 . S
N234 C235 1.321 . S
N234 Co237 2.135 . S
C235 N233 1.340 . S
C235 N234 1.321 . S
C235 H259 0.930 . S
H236 C231 0.931 . S
Co237 N234 2.135 . S
Co237 N240 2.121 . S
Co237 O245 2.055 . S
Co237 O248 2.039 . S
Co237 N251 2.140 . S
C238 O239 1.227 . S
C238 O248 1.265 . S
O239 C238 1.227 . S
N240 Co237 2.121 . S
N240 C242 1.375 . S
N240 C243 1.313 . S
C241 C242 1.338 . S
C241 N244 1.377 . S
C241 H261 0.930 . S
C242 N240 1.375 . S
C242 C241 1.338 . S
C242 H246 0.931 . S
C243 N240 1.313 . S
C243 N244 1.344 . S
C243 H247 0.930 . S
N244 C241 1.377 . S
N244 C243 1.344 . S
O245 Co237 2.055 . S
O245 C249 1.253 . S
H246 C242 0.931 . S
H247 C243 0.930 . S
O248 Co237 2.039 . S
O248 C238 1.265 . S
C249 O245 1.253 . S
C249 O250 1.227 . S
O250 C249 1.227 . S
N251 Co237 2.140 . S
N251 C254 1.346 . S
N251 C255 1.345 . S
C252 C253 1.387 . S
C252 C256 1.391 . S
C253 C252 1.387 . S
C253 C254 1.369 . S
C253 H262 0.929 . S
C254 N251 1.346 . S
C254 C253 1.369 . S
C254 H257 0.928 . S
C255 N251 1.345 . S
C255 C256 1.371 . S
C255 H258 0.931 . S
C256 C252 1.391 . S
C256 C255 1.371 . S
C256 H263 0.930 . S
H257 C254 0.928 . S
H258 C255 0.931 . S
H259 C235 0.930 . S
H260 C232 0.930 . S
H261 C241 0.930 . S
H262 C253 0.929 . S
H263 C256 0.930 . S
C264 C265 1.351 . S
C264 N267 1.368 . S
C264 H269 0.931 . S
C265 C264 1.351 . S
C265 N266 1.373 . S
C265 H293 0.930 . S
N266 C265 1.373 . S
N266 C268 1.340 . S
N267 C264 1.368 . S
N267 C268 1.321 . S
N267 Co270 2.195 . S
C268 N266 1.340 . S
C268 N267 1.321 . S
C268 H292 0.930 . S
H269 C264 0.931 . S
Co270 N267 2.195 . S
Co270 N273 2.060 1_655 S
Co270 O278 2.054 . S
Co270 O281 2.049 . S
Co270 N284 2.136 1_655 S
C271 O272 1.227 . S
C271 O281 1.265 . S
O272 C271 1.227 . S
N273 Co270 2.060 1_455 S
N273 C275 1.375 . S
N273 C276 1.313 . S
C274 C275 1.338 . S
C274 N277 1.377 . S
C274 H294 0.930 . S
C275 N273 1.375 . S
C275 C274 1.338 . S
C275 H279 0.931 . S
C276 N273 1.313 . S
C276 N277 1.344 . S
C276 H280 0.930 . S
N277 C274 1.377 . S
N277 C276 1.344 . S
O278 Co270 2.054 . S
O278 C282 1.249 1_655 S
H279 C275 0.931 . S
H280 C276 0.930 . S
O281 Co270 2.049 . S
O281 C271 1.265 . S
C282 O278 1.249 1_455 S
C282 O283 1.227 . S
O283 C282 1.227 . S
N284 Co270 2.136 1_455 S
N284 C287 1.346 1_455 S
N284 C288 1.345 . S
C285 C286 1.387 1_455 S
C285 C289 1.391 . S
C286 C285 1.387 1_655 S
C286 C287 1.369 . S
C286 H295 0.929 . S
C287 N284 1.346 1_655 S
C287 C286 1.369 . S
C287 H290 0.928 . S
C288 N284 1.345 . S
C288 C289 1.371 . S
C288 H291 0.931 . S
C289 C285 1.391 . S
C289 C288 1.371 . S
C289 H296 0.930 . S
H290 C287 0.928 . S
H291 C288 0.931 . S
H292 C268 0.930 . S
H293 C265 0.930 . S
H294 C274 0.930 . S
H295 C286 0.929 . S
H296 C289 0.930 . S
C297 C298 1.351 . S
C297 N300 1.368 . S
C297 H302 0.931 . S
C298 C297 1.351 . S
C298 N299 1.373 . S
C298 H326 0.930 . S
N299 C298 1.373 . S
N299 C301 1.340 . S
N300 C297 1.368 . S
N300 C301 1.321 . S
N300 Co303 2.135 . S
C301 N299 1.340 . S
C301 N300 1.321 . S
C301 H325 0.930 . S
H302 C297 0.931 . S
Co303 N300 2.135 . S
Co303 N306 2.121 . S
Co303 O311 2.055 . S
Co303 O314 2.039 . S
Co303 N317 2.140 . S
C304 O305 1.227 . S
C304 O314 1.265 . S
O305 C304 1.227 . S
N306 Co303 2.121 . S
N306 C308 1.375 . S
N306 C309 1.313 . S
C307 C308 1.338 . S
C307 N310 1.377 . S
C307 H327 0.930 . S
C308 N306 1.375 . S
C308 C307 1.338 . S
C308 H312 0.931 . S
C309 N306 1.313 . S
C309 N310 1.344 . S
C309 H313 0.930 . S
N310 C307 1.377 . S
N310 C309 1.344 . S
O311 Co303 2.055 . S
O311 C315 1.253 . S
H312 C308 0.931 . S
H313 C309 0.930 . S
O314 Co303 2.039 . S
O314 C304 1.265 . S
C315 O311 1.253 . S
C315 O316 1.227 . S
O316 C315 1.227 . S
N317 Co303 2.140 . S
N317 C320 1.346 . S
N317 C321 1.345 . S
C318 C319 1.387 . S
C318 C322 1.391 . S
C319 C318 1.387 . S
C319 C320 1.369 . S
C319 H328 0.929 . S
C320 N317 1.346 . S
C320 C319 1.369 . S
C320 H323 0.928 . S
C321 N317 1.345 . S
C321 C322 1.371 . S
C321 H324 0.931 . S
C322 C318 1.391 . S
C322 C321 1.371 . S
C322 H329 0.930 . S
H323 C320 0.928 . S
H324 C321 0.931 . S
H325 C301 0.930 . S
H326 C298 0.930 . S
H327 C307 0.930 . S
H328 C319 0.929 . S
H329 C322 0.930 . S
C330 C331 1.351 . S
C330 N333 1.368 . S
C330 H335 0.931 . S
C331 C330 1.351 . S
C331 N332 1.373 . S
C331 H359 0.930 . S
N332 C331 1.373 . S
N332 C334 1.340 . S
N333 C330 1.368 . S
N333 C334 1.321 . S
N333 Co336 2.195 . S
C334 N332 1.340 . S
C334 N333 1.321 . S
C334 H358 0.930 . S
H335 C330 0.931 . S
Co336 N333 2.195 . S
Co336 N339 2.060 1_655 S
Co336 O344 2.054 . S
Co336 O347 2.049 . S
Co336 N350 2.136 1_655 S
C337 O338 1.227 . S
C337 O347 1.265 . S
O338 C337 1.227 . S
N339 Co336 2.060 1_455 S
N339 C341 1.375 . S
N339 C342 1.313 . S
C340 C341 1.338 . S
C340 N343 1.377 . S
C340 H360 0.930 . S
C341 N339 1.375 . S
C341 C340 1.338 . S
C341 H345 0.931 . S
C342 N339 1.313 . S
C342 N343 1.344 . S
C342 H346 0.930 . S
N343 C340 1.377 . S
N343 C342 1.344 . S
O344 Co336 2.054 . S
O344 C348 1.249 1_655 S
H345 C341 0.931 . S
H346 C342 0.930 . S
O347 Co336 2.049 . S
O347 C337 1.265 . S
C348 O344 1.249 1_455 S
C348 O349 1.227 . S
O349 C348 1.227 . S
N350 Co336 2.136 1_455 S
N350 C353 1.346 1_455 S
N350 C354 1.345 . S
C351 C352 1.387 1_455 S
C351 C355 1.391 . S
C352 C351 1.387 1_655 S
C352 C353 1.369 . S
C352 H361 0.929 . S
C353 N350 1.346 1_655 S
C353 C352 1.369 . S
C353 H356 0.928 . S
C354 N350 1.345 . S
C354 C355 1.371 . S
C354 H357 0.931 . S
C355 C351 1.391 . S
C355 C354 1.371 . S
C355 H362 0.930 . S
H356 C353 0.928 . S
H357 C354 0.931 . S
H358 C334 0.930 . S
H359 C331 0.930 . S
H360 C340 0.930 . S
H361 C352 0.929 . S
H362 C355 0.930 . S
C363 C364 1.351 . S
C363 N366 1.368 . S
C363 H368 0.931 . S
C364 C363 1.351 . S
C364 N365 1.373 . S
C364 H392 0.930 . S
N365 C364 1.373 . S
N365 C367 1.340 . S
N366 C363 1.368 . S
N366 C367 1.321 . S
N366 Co369 2.135 . S
C367 N365 1.340 . S
C367 N366 1.321 . S
C367 H391 0.930 . S
H368 C363 0.931 . S
Co369 N366 2.135 . S
Co369 N372 2.121 . S
Co369 O377 2.055 . S
Co369 O380 2.039 . S
Co369 N383 2.140 . S
C370 O371 1.227 . S
C370 O380 1.265 . S
O371 C370 1.227 . S
N372 Co369 2.121 . S
N372 C374 1.375 . S
N372 C375 1.313 . S
C373 C374 1.338 . S
C373 N376 1.377 . S
C373 H393 0.930 . S
C374 N372 1.375 . S
C374 C373 1.338 . S
C374 H378 0.931 . S
C375 N372 1.313 . S
C375 N376 1.344 . S
C375 H379 0.930 . S
N376 C373 1.377 . S
N376 C375 1.344 . S
O377 Co369 2.055 . S
O377 C381 1.253 . S
H378 C374 0.931 . S
H379 C375 0.930 . S
O380 Co369 2.039 . S
O380 C370 1.265 . S
C381 O377 1.253 . S
C381 O382 1.227 . S
O382 C381 1.227 . S
N383 Co369 2.140 . S
N383 C386 1.346 . S
N383 C387 1.345 . S
C384 C385 1.387 . S
C384 C388 1.391 . S
C385 C384 1.387 . S
C385 C386 1.369 . S
C385 H394 0.929 . S
C386 N383 1.346 . S
C386 C385 1.369 . S
C386 H389 0.928 . S
C387 N383 1.345 . S
C387 C388 1.371 . S
C387 H390 0.931 . S
C388 C384 1.391 . S
C388 C387 1.371 . S
C388 H395 0.930 . S
H389 C386 0.928 . S
H390 C387 0.931 . S
H391 C367 0.930 . S
H392 C364 0.930 . S
H393 C373 0.930 . S
H394 C385 0.929 . S
H395 C388 0.930 . S
C396 C397 1.351 . S
C396 N399 1.368 . S
C396 H401 0.931 . S
C397 C396 1.351 . S
C397 N398 1.373 . S
C397 H425 0.930 . S
N398 C397 1.373 . S
N398 C400 1.340 . S
N399 C396 1.368 . S
N399 C400 1.321 . S
N399 Co402 2.195 . S
C400 N398 1.340 . S
C400 N399 1.321 . S
C400 H424 0.930 . S
H401 C396 0.931 . S
Co402 N399 2.195 . S
Co402 N405 2.060 1_455 S
Co402 O410 2.054 . S
Co402 O413 2.049 . S
Co402 N416 2.136 1_455 S
C403 O404 1.227 . S
C403 O413 1.265 . S
O404 C403 1.227 . S
N405 Co402 2.060 1_655 S
N405 C407 1.375 . S
N405 C408 1.313 . S
C406 C407 1.338 . S
C406 N409 1.377 . S
C406 H426 0.930 . S
C407 N405 1.375 . S
C407 C406 1.338 . S
C407 H411 0.931 . S
C408 N405 1.313 . S
C408 N409 1.344 . S
C408 H412 0.930 . S
N409 C406 1.377 . S
N409 C408 1.344 . S
O410 Co402 2.054 . S
O410 C414 1.249 1_455 S
H411 C407 0.931 . S
H412 C408 0.930 . S
O413 Co402 2.049 . S
O413 C403 1.265 . S
C414 O410 1.249 1_655 S
C414 O415 1.227 . S
O415 C414 1.227 . S
N416 Co402 2.136 1_655 S
N416 C419 1.346 1_655 S
N416 C420 1.345 . S
C417 C418 1.387 1_655 S
C417 C421 1.391 . S
C418 C417 1.387 1_455 S
C418 C419 1.369 . S
C418 H427 0.929 . S
C419 N416 1.346 1_455 S
C419 C418 1.369 . S
C419 H422 0.928 . S
C420 N416 1.345 . S
C420 C421 1.371 . S
C420 H423 0.931 . S
C421 C417 1.391 . S
C421 C420 1.371 . S
C421 H428 0.930 . S
H422 C419 0.928 . S
H423 C420 0.931 . S
H424 C400 0.930 . S
H425 C397 0.930 . S
H426 C406 0.930 . S
H427 C418 0.929 . S
H428 C421 0.930 . S
C429 C430 1.351 . S
C429 N432 1.368 . S
C429 H434 0.931 . S
C430 C429 1.351 . S
C430 N431 1.373 . S
C430 H458 0.930 . S
N431 C430 1.373 . S
N431 C433 1.340 . S
N432 C429 1.368 . S
N432 C433 1.321 . S
N432 Co435 2.135 . S
C433 N431 1.340 . S
C433 N432 1.321 . S
C433 H457 0.930 . S
H434 C429 0.931 . S
Co435 N432 2.135 . S
Co435 N438 2.121 . S
Co435 O443 2.055 . S
Co435 O446 2.039 . S
Co435 N449 2.140 . S
C436 O437 1.227 . S
C436 O446 1.265 . S
O437 C436 1.227 . S
N438 Co435 2.121 . S
N438 C440 1.375 . S
N438 C441 1.313 . S
C439 C440 1.338 . S
C439 N442 1.377 . S
C439 H459 0.930 . S
C440 N438 1.375 . S
C440 C439 1.338 . S
C440 H444 0.931 . S
C441 N438 1.313 . S
C441 N442 1.344 . S
C441 H445 0.930 . S
N442 C439 1.377 . S
N442 C441 1.344 . S
O443 Co435 2.055 . S
O443 C447 1.253 . S
H444 C440 0.931 . S
H445 C441 0.930 . S
O446 Co435 2.039 . S
O446 C436 1.265 . S
C447 O443 1.253 . S
C447 O448 1.227 . S
O448 C447 1.227 . S
N449 Co435 2.140 . S
N449 C452 1.346 . S
N449 C453 1.345 . S
C450 C451 1.387 . S
C450 C454 1.391 . S
C451 C450 1.387 . S
C451 C452 1.369 . S
C451 H460 0.929 . S
C452 N449 1.346 . S
C452 C451 1.369 . S
C452 H455 0.928 . S
C453 N449 1.345 . S
C453 C454 1.371 . S
C453 H456 0.931 . S
C454 C450 1.391 . S
C454 C453 1.371 . S
C454 H461 0.930 . S
H455 C452 0.928 . S
H456 C453 0.931 . S
H457 C433 0.930 . S
H458 C430 0.930 . S
H459 C439 0.930 . S
H460 C451 0.929 . S
H461 C454 0.930 . S
C462 C463 1.351 . S
C462 N465 1.368 . S
C462 H467 0.931 . S
C463 C462 1.351 . S
C463 N464 1.373 . S
C463 H491 0.930 . S
N464 C463 1.373 . S
N464 C466 1.340 . S
N465 C462 1.368 . S
N465 C466 1.321 . S
N465 Co468 2.195 . S
C466 N464 1.340 . S
C466 N465 1.321 . S
C466 H490 0.930 . S
H467 C462 0.931 . S
Co468 N465 2.195 . S
Co468 N471 2.060 1_455 S
Co468 O476 2.054 . S
Co468 O479 2.049 . S
Co468 N482 2.136 1_455 S
C469 O470 1.227 . S
C469 O479 1.265 . S
O470 C469 1.227 . S
N471 Co468 2.060 1_655 S
N471 C473 1.375 . S
N471 C474 1.313 . S
C472 C473 1.338 . S
C472 N475 1.377 . S
C472 H492 0.930 . S
C473 N471 1.375 . S
C473 C472 1.338 . S
C473 H477 0.931 . S
C474 N471 1.313 . S
C474 N475 1.344 . S
C474 H478 0.930 . S
N475 C472 1.377 . S
N475 C474 1.344 . S
O476 Co468 2.054 . S
O476 C480 1.249 1_455 S
H477 C473 0.931 . S
H478 C474 0.930 . S
O479 Co468 2.049 . S
O479 C469 1.265 . S
C480 O476 1.249 1_655 S
C480 O481 1.227 . S
O481 C480 1.227 . S
N482 Co468 2.136 1_655 S
N482 C485 1.346 1_655 S
N482 C486 1.345 . S
C483 C484 1.387 1_655 S
C483 C487 1.391 . S
C484 C483 1.387 1_455 S
C484 C485 1.369 . S
C484 H493 0.929 . S
C485 N482 1.346 1_455 S
C485 C484 1.369 . S
C485 H488 0.928 . S
C486 N482 1.345 . S
C486 C487 1.371 . S
C486 H489 0.931 . S
C487 C483 1.391 . S
C487 C486 1.371 . S
C487 H494 0.930 . S
H488 C485 0.928 . S
H489 C486 0.931 . S
H490 C466 0.930 . S
H491 C463 0.930 . S
H492 C472 0.930 . S
H493 C484 0.929 . S
H494 C487 0.930 . S
C495 C496 1.351 . S
C495 N498 1.368 . S
C495 H500 0.931 . S
C496 C495 1.351 . S
C496 N497 1.373 . S
C496 H524 0.930 . S
N497 C496 1.373 . S
N497 C499 1.340 . S
N498 C495 1.368 . S
N498 C499 1.321 . S
N498 Co501 2.135 . S
C499 N497 1.340 . S
C499 N498 1.321 . S
C499 H523 0.930 . S
H500 C495 0.931 . S
Co501 N498 2.135 . S
Co501 N504 2.121 . S
Co501 O509 2.055 . S
Co501 O512 2.039 . S
Co501 N515 2.140 . S
C502 O503 1.227 . S
C502 O512 1.265 . S
O503 C502 1.227 . S
N504 Co501 2.121 . S
N504 C506 1.375 . S
N504 C507 1.313 . S
C505 C506 1.338 . S
C505 N508 1.377 . S
C505 H525 0.930 . S
C506 N504 1.375 . S
C506 C505 1.338 . S
C506 H510 0.931 . S
C507 N504 1.313 . S
C507 N508 1.344 . S
C507 H511 0.930 . S
N508 C505 1.377 . S
N508 C507 1.344 . S
O509 Co501 2.055 . S
O509 C513 1.253 . S
H510 C506 0.931 . S
H511 C507 0.930 . S
O512 Co501 2.039 . S
O512 C502 1.265 . S
C513 O509 1.253 . S
C513 O514 1.227 . S
O514 C513 1.227 . S
N515 Co501 2.140 . S
N515 C518 1.346 . S
N515 C519 1.345 . S
C516 C517 1.387 . S
C516 C520 1.391 . S
C517 C516 1.387 . S
C517 C518 1.369 . S
C517 H526 0.929 . S
C518 N515 1.346 . S
C518 C517 1.369 . S
C518 H521 0.928 . S
C519 N515 1.345 . S
C519 C520 1.371 . S
C519 H522 0.931 . S
C520 C516 1.391 . S
C520 C519 1.371 . S
C520 H527 0.930 . S
H521 C518 0.928 . S
H522 C519 0.931 . S
H523 C499 0.930 . S
H524 C496 0.930 . S
H525 C505 0.930 . S
H526 C517 0.929 . S
H527 C520 0.930 . S
C528 C529 1.351 . S
C528 N531 1.368 . S
C528 H533 0.931 . S
C529 C528 1.351 . S
C529 N530 1.373 . S
C529 H557 0.930 . S
N530 C529 1.373 . S
N530 C532 1.340 . S
N531 C528 1.368 . S
N531 C532 1.321 . S
N531 Co534 2.135 . S
C532 N530 1.340 . S
C532 N531 1.321 . S
C532 H556 0.930 . S
H533 C528 0.931 . S
Co534 N531 2.135 . S
Co534 N537 2.121 . S
Co534 O542 2.055 . S
Co534 O545 2.039 . S
Co534 N548 2.140 . S
C535 O536 1.227 . S
C535 O545 1.265 . S
O536 C535 1.227 . S
N537 Co534 2.121 . S
N537 C539 1.375 . S
N537 C540 1.313 . S
C538 C539 1.338 . S
C538 N541 1.377 . S
C538 H558 0.930 . S
C539 N537 1.375 . S
C539 C538 1.338 . S
C539 H543 0.931 . S
C540 N537 1.313 . S
C540 N541 1.344 . S
C540 H544 0.930 . S
N541 C538 1.377 . S
N541 C540 1.344 . S
O542 Co534 2.055 . S
O542 C546 1.253 . S
H543 C539 0.931 . S
H544 C540 0.930 . S
O545 Co534 2.039 . S
O545 C535 1.265 . S
C546 O542 1.253 . S
C546 O547 1.227 . S
O547 C546 1.227 . S
N548 Co534 2.140 . S
N548 C551 1.346 . S
N548 C552 1.345 . S
C549 C550 1.387 . S
C549 C553 1.391 . S
C550 C549 1.387 . S
C550 C551 1.369 . S
C550 H559 0.929 . S
C551 N548 1.346 . S
C551 C550 1.369 . S
C551 H554 0.928 . S
C552 N548 1.345 . S
C552 C553 1.371 . S
C552 H555 0.931 . S
C553 C549 1.391 . S
C553 C552 1.371 . S
C553 H560 0.930 . S
H554 C551 0.928 . S
H555 C552 0.931 . S
H556 C532 0.930 . S
H557 C529 0.930 . S
H558 C538 0.930 . S
H559 C550 0.929 . S
H560 C553 0.930 . S
C561 C562 1.351 . S
C561 N564 1.368 . S
C561 H566 0.931 . S
C562 C561 1.351 . S
C562 N563 1.373 . S
C562 H590 0.930 . S
N563 C562 1.373 . S
N563 C565 1.340 . S
N564 C561 1.368 . S
N564 C565 1.321 . S
N564 Co567 2.135 . S
C565 N563 1.340 . S
C565 N564 1.321 . S
C565 H589 0.930 . S
H566 C561 0.931 . S
Co567 N564 2.135 . S
Co567 N570 2.121 . S
Co567 O575 2.055 . S
Co567 O578 2.039 . S
Co567 N581 2.140 . S
C568 O569 1.227 . S
C568 O578 1.265 . S
O569 C568 1.227 . S
N570 Co567 2.121 . S
N570 C572 1.375 . S
N570 C573 1.313 . S
C571 C572 1.338 . S
C571 N574 1.377 . S
C571 H591 0.930 . S
C572 N570 1.375 . S
C572 C571 1.338 . S
C572 H576 0.931 . S
C573 N570 1.313 . S
C573 N574 1.344 . S
C573 H577 0.930 . S
N574 C571 1.377 . S
N574 C573 1.344 . S
O575 Co567 2.055 . S
O575 C579 1.253 . S
H576 C572 0.931 . S
H577 C573 0.930 . S
O578 Co567 2.039 . S
O578 C568 1.265 . S
C579 O575 1.253 . S
C579 O580 1.227 . S
O580 C579 1.227 . S
N581 Co567 2.140 . S
N581 C584 1.346 . S
N581 C585 1.345 . S
C582 C583 1.387 . S
C582 C586 1.391 . S
C583 C582 1.387 . S
C583 C584 1.369 . S
C583 H592 0.929 . S
C584 N581 1.346 . S
C584 C583 1.369 . S
C584 H587 0.928 . S
C585 N581 1.345 . S
C585 C586 1.371 . S
C585 H588 0.931 . S
C586 C582 1.391 . S
C586 C585 1.371 . S
C586 H593 0.930 . S
H587 C584 0.928 . S
H588 C585 0.931 . S
H589 C565 0.930 . S
H590 C562 0.930 . S
H591 C571 0.930 . S
H592 C583 0.929 . S
H593 C586 0.930 . S
C594 C595 1.351 . S
C594 N597 1.368 . S
C594 H599 0.931 . S
C595 C594 1.351 . S
C595 N596 1.373 . S
C595 H623 0.930 . S
N596 C595 1.373 . S
N596 C598 1.340 . S
N597 C594 1.368 . S
N597 C598 1.321 . S
N597 Co600 2.135 . S
C598 N596 1.340 . S
C598 N597 1.321 . S
C598 H622 0.930 . S
H599 C594 0.931 . S
Co600 N597 2.135 . S
Co600 N603 2.121 . S
Co600 O608 2.055 . S
Co600 O611 2.039 . S
Co600 N614 2.140 . S
C601 O602 1.227 . S
C601 O611 1.265 . S
O602 C601 1.227 . S
N603 Co600 2.121 . S
N603 C605 1.375 . S
N603 C606 1.313 . S
C604 C605 1.338 . S
C604 N607 1.377 . S
C604 H624 0.930 . S
C605 N603 1.375 . S
C605 C604 1.338 . S
C605 H609 0.931 . S
C606 N603 1.313 . S
C606 N607 1.344 . S
C606 H610 0.930 . S
N607 C604 1.377 . S
N607 C606 1.344 . S
O608 Co600 2.055 . S
O608 C612 1.253 . S
H609 C605 0.931 . S
H610 C606 0.930 . S
O611 Co600 2.039 . S
O611 C601 1.265 . S
C612 O608 1.253 . S
C612 O613 1.227 . S
O613 C612 1.227 . S
N614 Co600 2.140 . S
N614 C617 1.346 . S
N614 C618 1.345 . S
C615 C616 1.387 . S
C615 C619 1.391 . S
C616 C615 1.387 . S
C616 C617 1.369 . S
C616 H625 0.929 . S
C617 N614 1.346 . S
C617 C616 1.369 . S
C617 H620 0.928 . S
C618 N614 1.345 . S
C618 C619 1.371 . S
C618 H621 0.931 . S
C619 C615 1.391 . S
C619 C618 1.371 . S
C619 H626 0.930 . S
H620 C617 0.928 . S
H621 C618 0.931 . S
H622 C598 0.930 . S
H623 C595 0.930 . S
H624 C604 0.930 . S
H625 C616 0.929 . S
H626 C619 0.930 . S
C627 C628 1.351 . S
C627 N630 1.368 . S
C627 H632 0.931 . S
C628 C627 1.351 . S
C628 N629 1.373 . S
C628 H656 0.930 . S
N629 C628 1.373 . S
N629 C631 1.340 . S
N630 C627 1.368 . S
N630 C631 1.321 . S
N630 Co633 2.135 . S
C631 N629 1.340 . S
C631 N630 1.321 . S
C631 H655 0.930 . S
H632 C627 0.931 . S
Co633 N630 2.135 . S
Co633 N636 2.121 . S
Co633 O641 2.055 . S
Co633 O644 2.039 . S
Co633 N647 2.140 . S
C634 O635 1.227 . S
C634 O644 1.265 . S
O635 C634 1.227 . S
N636 Co633 2.121 . S
N636 C638 1.375 . S
N636 C639 1.313 . S
C637 C638 1.338 . S
C637 N640 1.377 . S
C637 H657 0.930 . S
C638 N636 1.375 . S
C638 C637 1.338 . S
C638 H642 0.931 . S
C639 N636 1.313 . S
C639 N640 1.344 . S
C639 H643 0.930 . S
N640 C637 1.377 . S
N640 C639 1.344 . S
O641 Co633 2.055 . S
O641 C645 1.253 . S
H642 C638 0.931 . S
H643 C639 0.930 . S
O644 Co633 2.039 . S
O644 C634 1.265 . S
C645 O641 1.253 . S
C645 O646 1.227 . S
O646 C645 1.227 . S
N647 Co633 2.140 . S
N647 C650 1.346 . S
N647 C651 1.345 . S
C648 C649 1.387 . S
C648 C652 1.391 . S
C649 C648 1.387 . S
C649 C650 1.369 . S
C649 H658 0.929 . S
C650 N647 1.346 . S
C650 C649 1.369 . S
C650 H653 0.928 . S
C651 N647 1.345 . S
C651 C652 1.371 . S
C651 H654 0.931 . S
C652 C648 1.391 . S
C652 C651 1.371 . S
C652 H659 0.930 . S
H653 C650 0.928 . S
H654 C651 0.931 . S
H655 C631 0.930 . S
H656 C628 0.930 . S
H657 C637 0.930 . S
H658 C649 0.929 . S
H659 C652 0.930 . S
C660 C661 1.351 . S
C660 N663 1.368 . S
C660 H665 0.931 . S
C661 C660 1.351 . S
C661 N662 1.373 . S
C661 H689 0.930 . S
N662 C661 1.373 . S
N662 C664 1.340 . S
N663 C660 1.368 . S
N663 C664 1.321 . S
N663 Co666 2.135 . S
C664 N662 1.340 . S
C664 N663 1.321 . S
C664 H688 0.930 . S
H665 C660 0.931 . S
Co666 N663 2.135 . S
Co666 N669 2.121 . S
Co666 O674 2.055 . S
Co666 O677 2.039 . S
Co666 N680 2.140 . S
C667 O668 1.227 . S
C667 O677 1.265 . S
O668 C667 1.227 . S
N669 Co666 2.121 . S
N669 C671 1.375 . S
N669 C672 1.313 . S
C670 C671 1.338 . S
C670 N673 1.377 . S
C670 H690 0.930 . S
C671 N669 1.375 . S
C671 C670 1.338 . S
C671 H675 0.931 . S
C672 N669 1.313 . S
C672 N673 1.344 . S
C672 H676 0.930 . S
N673 C670 1.377 . S
N673 C672 1.344 . S
O674 Co666 2.055 . S
O674 C678 1.253 . S
H675 C671 0.931 . S
H676 C672 0.930 . S
O677 Co666 2.039 . S
O677 C667 1.265 . S
C678 O674 1.253 . S
C678 O679 1.227 . S
O679 C678 1.227 . S
N680 Co666 2.140 . S
N680 C683 1.346 . S
N680 C684 1.345 . S
C681 C682 1.387 . S
C681 C685 1.391 . S
C682 C681 1.387 . S
C682 C683 1.369 . S
C682 H691 0.929 . S
C683 N680 1.346 . S
C683 C682 1.369 . S
C683 H686 0.928 . S
C684 N680 1.345 . S
C684 C685 1.371 . S
C684 H687 0.931 . S
C685 C681 1.391 . S
C685 C684 1.371 . S
C685 H692 0.930 . S
H686 C683 0.928 . S
H687 C684 0.931 . S
H688 C664 0.930 . S
H689 C661 0.930 . S
H690 C670 0.930 . S
H691 C682 0.929 . S
H692 C685 0.930 . S
C693 C694 1.351 . S
C693 N696 1.368 . S
C693 H698 0.931 . S
C694 C693 1.351 . S
C694 N695 1.373 . S
C694 H722 0.930 . S
N695 C694 1.373 . S
N695 C697 1.340 . S
N696 C693 1.368 . S
N696 C697 1.321 . S
N696 Co699 2.135 . S
C697 N695 1.340 . S
C697 N696 1.321 . S
C697 H721 0.930 . S
H698 C693 0.931 . S
Co699 N696 2.135 . S
Co699 N702 2.121 . S
Co699 O707 2.055 . S
Co699 O710 2.039 . S
Co699 N713 2.140 . S
C700 O701 1.227 . S
C700 O710 1.265 . S
O701 C700 1.227 . S
N702 Co699 2.121 . S
N702 C704 1.375 . S
N702 C705 1.313 . S
C703 C704 1.338 . S
C703 N706 1.377 . S
C703 H723 0.930 . S
C704 N702 1.375 . S
C704 C703 1.338 . S
C704 H708 0.931 . S
C705 N702 1.313 . S
C705 N706 1.344 . S
C705 H709 0.930 . S
N706 C703 1.377 . S
N706 C705 1.344 . S
O707 Co699 2.055 . S
O707 C711 1.253 . S
H708 C704 0.931 . S
H709 C705 0.930 . S
O710 Co699 2.039 . S
O710 C700 1.265 . S
C711 O707 1.253 . S
C711 O712 1.227 . S
O712 C711 1.227 . S
N713 Co699 2.140 . S
N713 C716 1.346 . S
N713 C717 1.345 . S
C714 C715 1.387 . S
C714 C718 1.391 . S
C715 C714 1.387 . S
C715 C716 1.369 . S
C715 H724 0.929 . S
C716 N713 1.346 . S
C716 C715 1.369 . S
C716 H719 0.928 . S
C717 N713 1.345 . S
C717 C718 1.371 . S
C717 H720 0.931 . S
C718 C714 1.391 . S
C718 C717 1.371 . S
C718 H725 0.930 . S
H719 C716 0.928 . S
H720 C717 0.931 . S
H721 C697 0.930 . S
H722 C694 0.930 . S
H723 C703 0.930 . S
H724 C715 0.929 . S
H725 C718 0.930 . S
C726 C727 1.351 . S
C726 N729 1.368 . S
C726 H731 0.931 . S
C727 C726 1.351 . S
C727 N728 1.373 . S
C727 H755 0.930 . S
N728 C727 1.373 . S
N728 C730 1.340 . S
N729 C726 1.368 . S
N729 C730 1.321 . S
N729 Co732 2.135 . S
C730 N728 1.340 . S
C730 N729 1.321 . S
C730 H754 0.930 . S
H731 C726 0.931 . S
Co732 N729 2.135 . S
Co732 N735 2.121 . S
Co732 O740 2.055 . S
Co732 O743 2.039 . S
Co732 N746 2.140 . S
C733 O734 1.227 . S
C733 O743 1.265 . S
O734 C733 1.227 . S
N735 Co732 2.121 . S
N735 C737 1.375 . S
N735 C738 1.313 . S
C736 C737 1.338 . S
C736 N739 1.377 . S
C736 H756 0.930 . S
C737 N735 1.375 . S
C737 C736 1.338 . S
C737 H741 0.931 . S
C738 N735 1.313 . S
C738 N739 1.344 . S
C738 H742 0.930 . S
N739 C736 1.377 . S
N739 C738 1.344 . S
O740 Co732 2.055 . S
O740 C744 1.253 . S
H741 C737 0.931 . S
H742 C738 0.930 . S
O743 Co732 2.039 . S
O743 C733 1.265 . S
C744 O740 1.253 . S
C744 O745 1.227 . S
O745 C744 1.227 . S
N746 Co732 2.140 . S
N746 C749 1.346 . S
N746 C750 1.345 . S
C747 C748 1.387 . S
C747 C751 1.391 . S
C748 C747 1.387 . S
C748 C749 1.369 . S
C748 H757 0.929 . S
C749 N746 1.346 . S
C749 C748 1.369 . S
C749 H752 0.928 . S
C750 N746 1.345 . S
C750 C751 1.371 . S
C750 H753 0.931 . S
C751 C747 1.391 . S
C751 C750 1.371 . S
C751 H758 0.930 . S
H752 C749 0.928 . S
H753 C750 0.931 . S
H754 C730 0.930 . S
H755 C727 0.930 . S
H756 C736 0.930 . S
H757 C748 0.929 . S
H758 C751 0.930 . S
C759 C760 1.351 . S
C759 N762 1.368 . S
C759 H764 0.931 . S
C760 C759 1.351 . S
C760 N761 1.373 . S
C760 H788 0.930 . S
N761 C760 1.373 . S
N761 C763 1.340 . S
N762 C759 1.368 . S
N762 C763 1.321 . S
N762 Co765 2.135 . S
C763 N761 1.340 . S
C763 N762 1.321 . S
C763 H787 0.930 . S
H764 C759 0.931 . S
Co765 N762 2.135 . S
Co765 N768 2.121 . S
Co765 O773 2.055 . S
Co765 O776 2.039 . S
Co765 N779 2.140 . S
C766 O767 1.227 . S
C766 O776 1.265 . S
O767 C766 1.227 . S
N768 Co765 2.121 . S
N768 C770 1.375 . S
N768 C771 1.313 . S
C769 C770 1.338 . S
C769 N772 1.377 . S
C769 H789 0.930 . S
C770 N768 1.375 . S
C770 C769 1.338 . S
C770 H774 0.931 . S
C771 N768 1.313 . S
C771 N772 1.344 . S
C771 H775 0.930 . S
N772 C769 1.377 . S
N772 C771 1.344 . S
O773 Co765 2.055 . S
O773 C777 1.253 . S
H774 C770 0.931 . S
H775 C771 0.930 . S
O776 Co765 2.039 . S
O776 C766 1.265 . S
C777 O773 1.253 . S
C777 O778 1.227 . S
O778 C777 1.227 . S
N779 Co765 2.140 . S
N779 C782 1.346 . S
N779 C783 1.345 . S
C780 C781 1.387 . S
C780 C784 1.391 . S
C781 C780 1.387 . S
C781 C782 1.369 . S
C781 H790 0.929 . S
C782 N779 1.346 . S
C782 C781 1.369 . S
C782 H785 0.928 . S
C783 N779 1.345 . S
C783 C784 1.371 . S
C783 H786 0.931 . S
C784 C780 1.391 . S
C784 C783 1.371 . S
C784 H791 0.930 . S
H785 C782 0.928 . S
H786 C783 0.931 . S
H787 C763 0.930 . S
H788 C760 0.930 . S
H789 C769 0.930 . S
H790 C781 0.929 . S
H791 C784 0.930 . S
C792 C793 1.351 . S
C792 N795 1.368 . S
C792 H797 0.931 . S
C793 C792 1.351 . S
C793 N794 1.373 . S
C793 H821 0.930 . S
N794 C793 1.373 . S
N794 C796 1.340 . S
N795 C792 1.368 . S
N795 C796 1.321 . S
N795 Co798 2.135 . S
C796 N794 1.340 . S
C796 N795 1.321 . S
C796 H820 0.930 . S
H797 C792 0.931 . S
Co798 N795 2.135 . S
Co798 N801 2.121 . S
Co798 O806 2.055 . S
Co798 O809 2.039 . S
Co798 N812 2.140 . S
C799 O800 1.227 . S
C799 O809 1.265 . S
O800 C799 1.227 . S
N801 Co798 2.121 . S
N801 C803 1.375 . S
N801 C804 1.313 . S
C802 C803 1.338 . S
C802 N805 1.377 . S
C802 H822 0.930 . S
C803 N801 1.375 . S
C803 C802 1.338 . S
C803 H807 0.931 . S
C804 N801 1.313 . S
C804 N805 1.344 . S
C804 H808 0.930 . S
N805 C802 1.377 . S
N805 C804 1.344 . S
O806 Co798 2.055 . S
O806 C810 1.253 . S
H807 C803 0.931 . S
H808 C804 0.930 . S
O809 Co798 2.039 . S
O809 C799 1.265 . S
C810 O806 1.253 . S
C810 O811 1.227 . S
O811 C810 1.227 . S
N812 Co798 2.140 . S
N812 C815 1.346 . S
N812 C816 1.345 . S
C813 C814 1.387 . S
C813 C817 1.391 . S
C814 C813 1.387 . S
C814 C815 1.369 . S
C814 H823 0.929 . S
C815 N812 1.346 . S
C815 C814 1.369 . S
C815 H818 0.928 . S
C816 N812 1.345 . S
C816 C817 1.371 . S
C816 H819 0.931 . S
C817 C813 1.391 . S
C817 C816 1.371 . S
C817 H824 0.930 . S
H818 C815 0.928 . S
H819 C816 0.931 . S
H820 C796 0.930 . S
H821 C793 0.930 . S
H822 C802 0.930 . S
H823 C814 0.929 . S
H824 C817 0.930 . S
C825 C826 1.351 . S
C825 N828 1.368 . S
C825 H830 0.931 . S
C826 C825 1.351 . S
C826 N827 1.373 . S
C826 H854 0.930 . S
N827 C826 1.373 . S
N827 C829 1.340 . S
N828 C825 1.368 . S
N828 C829 1.321 . S
N828 Co831 2.135 . S
C829 N827 1.340 . S
C829 N828 1.321 . S
C829 H853 0.930 . S
H830 C825 0.931 . S
Co831 N828 2.135 . S
Co831 N834 2.121 . S
Co831 O839 2.055 . S
Co831 O842 2.039 . S
Co831 N845 2.140 . S
C832 O833 1.227 . S
C832 O842 1.265 . S
O833 C832 1.227 . S
N834 Co831 2.121 . S
N834 C836 1.375 . S
N834 C837 1.313 . S
C835 C836 1.338 . S
C835 N838 1.377 . S
C835 H855 0.930 . S
C836 N834 1.375 . S
C836 C835 1.338 . S
C836 H840 0.931 . S
C837 N834 1.313 . S
C837 N838 1.344 . S
C837 H841 0.930 . S
N838 C835 1.377 . S
N838 C837 1.344 . S
O839 Co831 2.055 . S
O839 C843 1.253 . S
H840 C836 0.931 . S
H841 C837 0.930 . S
O842 Co831 2.039 . S
O842 C832 1.265 . S
C843 O839 1.253 . S
C843 O844 1.227 . S
O844 C843 1.227 . S
N845 Co831 2.140 . S
N845 C848 1.346 . S
N845 C849 1.345 . S
C846 C847 1.387 . S
C846 C850 1.391 . S
C847 C846 1.387 . S
C847 C848 1.369 . S
C847 H856 0.929 . S
C848 N845 1.346 . S
C848 C847 1.369 . S
C848 H851 0.928 . S
C849 N845 1.345 . S
C849 C850 1.371 . S
C849 H852 0.931 . S
C850 C846 1.391 . S
C850 C849 1.371 . S
C850 H857 0.930 . S
H851 C848 0.928 . S
H852 C849 0.931 . S
H853 C829 0.930 . S
H854 C826 0.930 . S
H855 C835 0.930 . S
H856 C847 0.929 . S
H857 C850 0.930 . S
C858 C859 1.351 . S
C858 N861 1.368 . S
C858 H863 0.931 . S
C859 C858 1.351 . S
C859 N860 1.373 . S
C859 H887 0.930 . S
N860 C859 1.373 . S
N860 C862 1.340 . S
N861 C858 1.368 . S
N861 C862 1.321 . S
N861 Co864 2.135 . S
C862 N860 1.340 . S
C862 N861 1.321 . S
C862 H886 0.930 . S
H863 C858 0.931 . S
Co864 N861 2.135 . S
Co864 N867 2.121 . S
Co864 O872 2.055 . S
Co864 O875 2.039 . S
Co864 N878 2.140 . S
C865 O866 1.227 . S
C865 O875 1.265 . S
O866 C865 1.227 . S
N867 Co864 2.121 . S
N867 C869 1.375 . S
N867 C870 1.313 . S
C868 C869 1.338 . S
C868 N871 1.377 . S
C868 H888 0.930 . S
C869 N867 1.375 . S
C869 C868 1.338 . S
C869 H873 0.931 . S
C870 N867 1.313 . S
C870 N871 1.344 . S
C870 H874 0.930 . S
N871 C868 1.377 . S
N871 C870 1.344 . S
O872 Co864 2.055 . S
O872 C876 1.253 . S
H873 C869 0.931 . S
H874 C870 0.930 . S
O875 Co864 2.039 . S
O875 C865 1.265 . S
C876 O872 1.253 . S
C876 O877 1.227 . S
O877 C876 1.227 . S
N878 Co864 2.140 . S
N878 C881 1.346 . S
N878 C882 1.345 . S
C879 C880 1.387 . S
C879 C883 1.391 . S
C880 C879 1.387 . S
C880 C881 1.369 . S
C880 H889 0.929 . S
C881 N878 1.346 . S
C881 C880 1.369 . S
C881 H884 0.928 . S
C882 N878 1.345 . S
C882 C883 1.371 . S
C882 H885 0.931 . S
C883 C879 1.391 . S
C883 C882 1.371 . S
C883 H890 0.930 . S
H884 C881 0.928 . S
H885 C882 0.931 . S
H886 C862 0.930 . S
H887 C859 0.930 . S
H888 C868 0.930 . S
H889 C880 0.929 . S
H890 C883 0.930 . S
C891 C892 1.351 . S
C891 N894 1.368 . S
C891 H896 0.931 . S
C892 C891 1.351 . S
C892 N893 1.373 . S
C892 H920 0.930 . S
N893 C892 1.373 . S
N893 C895 1.340 . S
N894 C891 1.368 . S
N894 C895 1.321 . S
N894 Co897 2.135 . S
C895 N893 1.340 . S
C895 N894 1.321 . S
C895 H919 0.930 . S
H896 C891 0.931 . S
Co897 N894 2.135 . S
Co897 N900 2.121 . S
Co897 O905 2.055 . S
Co897 O908 2.039 . S
Co897 N911 2.140 . S
C898 O899 1.227 . S
C898 O908 1.265 . S
O899 C898 1.227 . S
N900 Co897 2.121 . S
N900 C902 1.375 . S
N900 C903 1.313 . S
C901 C902 1.338 . S
C901 N904 1.377 . S
C901 H921 0.930 . S
C902 N900 1.375 . S
C902 C901 1.338 . S
C902 H906 0.931 . S
C903 N900 1.313 . S
C903 N904 1.344 . S
C903 H907 0.930 . S
N904 C901 1.377 . S
N904 C903 1.344 . S
O905 Co897 2.055 . S
O905 C909 1.253 . S
H906 C902 0.931 . S
H907 C903 0.930 . S
O908 Co897 2.039 . S
O908 C898 1.265 . S
C909 O905 1.253 . S
C909 O910 1.227 . S
O910 C909 1.227 . S
N911 Co897 2.140 . S
N911 C914 1.346 . S
N911 C915 1.345 . S
C912 C913 1.387 . S
C912 C916 1.391 . S
C913 C912 1.387 . S
C913 C914 1.369 . S
C913 H922 0.929 . S
C914 N911 1.346 . S
C914 C913 1.369 . S
C914 H917 0.928 . S
C915 N911 1.345 . S
C915 C916 1.371 . S
C915 H918 0.931 . S
C916 C912 1.391 . S
C916 C915 1.371 . S
C916 H923 0.930 . S
H917 C914 0.928 . S
H918 C915 0.931 . S
H919 C895 0.930 . S
H920 C892 0.930 . S
H921 C901 0.930 . S
H922 C913 0.929 . S
H923 C916 0.930 . S
C924 C925 1.351 . S
C924 N927 1.368 . S
C924 H929 0.931 . S
C925 C924 1.351 . S
C925 N926 1.373 . S
C925 H953 0.930 . S
N926 C925 1.373 . S
N926 C928 1.340 . S
N927 C924 1.368 . S
N927 C928 1.321 . S
N927 Co930 2.135 . S
C928 N926 1.340 . S
C928 N927 1.321 . S
C928 H952 0.930 . S
H929 C924 0.931 . S
Co930 N927 2.135 . S
Co930 N933 2.121 . S
Co930 O938 2.055 . S
Co930 O941 2.039 . S
Co930 N944 2.140 . S
C931 O932 1.227 . S
C931 O941 1.265 . S
O932 C931 1.227 . S
N933 Co930 2.121 . S
N933 C935 1.375 . S
N933 C936 1.313 . S
C934 C935 1.338 . S
C934 N937 1.377 . S
C934 H954 0.930 . S
C935 N933 1.375 . S
C935 C934 1.338 . S
C935 H939 0.931 . S
C936 N933 1.313 . S
C936 N937 1.344 . S
C936 H940 0.930 . S
N937 C934 1.377 . S
N937 C936 1.344 . S
O938 Co930 2.055 . S
O938 C942 1.253 . S
H939 C935 0.931 . S
H940 C936 0.930 . S
O941 Co930 2.039 . S
O941 C931 1.265 . S
C942 O938 1.253 . S
C942 O943 1.227 . S
O943 C942 1.227 . S
N944 Co930 2.140 . S
N944 C947 1.346 . S
N944 C948 1.345 . S
C945 C946 1.387 . S
C945 C949 1.391 . S
C946 C945 1.387 . S
C946 C947 1.369 . S
C946 H955 0.929 . S
C947 N944 1.346 . S
C947 C946 1.369 . S
C947 H950 0.928 . S
C948 N944 1.345 . S
C948 C949 1.371 . S
C948 H951 0.931 . S
C949 C945 1.391 . S
C949 C948 1.371 . S
C949 H956 0.930 . S
H950 C947 0.928 . S
H951 C948 0.931 . S
H952 C928 0.930 . S
H953 C925 0.930 . S
H954 C934 0.930 . S
H955 C946 0.929 . S
H956 C949 0.930 . S
C957 C958 1.351 . S
C957 N960 1.368 . S
C957 H962 0.931 . S
C958 C957 1.351 . S
C958 N959 1.373 . S
C958 H986 0.930 . S
N959 C958 1.373 . S
N959 C961 1.340 . S
N960 C957 1.368 . S
N960 C961 1.321 . S
N960 Co963 2.135 . S
C961 N959 1.340 . S
C961 N960 1.321 . S
C961 H985 0.930 . S
H962 C957 0.931 . S
Co963 N960 2.135 . S
Co963 N966 2.121 . S
Co963 O971 2.055 . S
Co963 O974 2.039 . S
Co963 N977 2.140 . S
C964 O965 1.227 . S
C964 O974 1.265 . S
O965 C964 1.227 . S
N966 Co963 2.121 . S
N966 C968 1.375 . S
N966 C969 1.313 . S
C967 C968 1.338 . S
C967 N970 1.377 . S
C967 H987 0.930 . S
C968 N966 1.375 . S
C968 C967 1.338 . S
C968 H972 0.931 . S
C969 N966 1.313 . S
C969 N970 1.344 . S
C969 H973 0.930 . S
N970 C967 1.377 . S
N970 C969 1.344 . S
O971 Co963 2.055 . S
O971 C975 1.253 . S
H972 C968 0.931 . S
H973 C969 0.930 . S
O974 Co963 2.039 . S
O974 C964 1.265 . S
C975 O971 1.253 . S
C975 O976 1.227 . S
O976 C975 1.227 . S
N977 Co963 2.140 . S
N977 C980 1.346 . S
N977 C981 1.345 . S
C978 C979 1.387 . S
C978 C982 1.391 . S
C979 C978 1.387 . S
C979 C980 1.369 . S
C979 H988 0.929 . S
C980 N977 1.346 . S
C980 C979 1.369 . S
C980 H983 0.928 . S
C981 N977 1.345 . S
C981 C982 1.371 . S
C981 H984 0.931 . S
C982 C978 1.391 . S
C982 C981 1.371 . S
C982 H989 0.930 . S
H983 C980 0.928 . S
H984 C981 0.931 . S
H985 C961 0.930 . S
H986 C958 0.930 . S
H987 C967 0.930 . S
H988 C979 0.929 . S
H989 C982 0.930 . S
C990 C991 1.351 . S
C990 N993 1.368 . S
C990 H995 0.931 . S
C991 C990 1.351 . S
C991 N992 1.373 . S
C991 H1019 0.930 . S
N992 C991 1.373 . S
N992 C994 1.340 . S
N993 C990 1.368 . S
N993 C994 1.321 . S
N993 Co996 2.135 . S
C994 N992 1.340 . S
C994 N993 1.321 . S
C994 H1018 0.930 . S
H995 C990 0.931 . S
Co996 N993 2.135 . S
Co996 N999 2.121 . S
Co996 O1004 2.055 . S
Co996 O1007 2.039 . S
Co996 N1010 2.140 . S
C997 O998 1.227 . S
C997 O1007 1.265 . S
O998 C997 1.227 . S
N999 Co996 2.121 . S
N999 C1001 1.375 . S
N999 C1002 1.313 . S
C1000 C1001 1.338 . S
C1000 N1003 1.377 . S
C1000 H1020 0.930 . S
C1001 N999 1.375 . S
C1001 C1000 1.338 . S
C1001 H1005 0.931 . S
C1002 N999 1.313 . S
C1002 N1003 1.344 . S
C1002 H1006 0.930 . S
N1003 C1000 1.377 . S
N1003 C1002 1.344 . S
O1004 Co996 2.055 . S
O1004 C1008 1.253 . S
H1005 C1001 0.931 . S
H1006 C1002 0.930 . S
O1007 Co996 2.039 . S
O1007 C997 1.265 . S
C1008 O1004 1.253 . S
C1008 O1009 1.227 . S
O1009 C1008 1.227 . S
N1010 Co996 2.140 . S
N1010 C1013 1.346 . S
N1010 C1014 1.345 . S
C1011 C1012 1.387 . S
C1011 C1015 1.391 . S
C1012 C1011 1.387 . S
C1012 C1013 1.369 . S
C1012 H1021 0.929 . S
C1013 N1010 1.346 . S
C1013 C1012 1.369 . S
C1013 H1016 0.928 . S
C1014 N1010 1.345 . S
C1014 C1015 1.371 . S
C1014 H1017 0.931 . S
C1015 C1011 1.391 . S
C1015 C1014 1.371 . S
C1015 H1022 0.930 . S
H1016 C1013 0.928 . S
H1017 C1014 0.931 . S
H1018 C994 0.930 . S
H1019 C991 0.930 . S
H1020 C1000 0.930 . S
H1021 C1012 0.929 . S
H1022 C1015 0.930 . S
C1023 C1024 1.351 . S
C1023 N1026 1.368 . S
C1023 H1028 0.931 . S
C1024 C1023 1.351 . S
C1024 N1025 1.373 . S
C1024 H1052 0.930 . S
N1025 C1024 1.373 . S
N1025 C1027 1.340 . S
N1026 C1023 1.368 . S
N1026 C1027 1.321 . S
N1026 Co1029 2.135 . S
C1027 N1025 1.340 . S
C1027 N1026 1.321 . S
C1027 H1051 0.930 . S
H1028 C1023 0.931 . S
Co1029 N1026 2.135 . S
Co1029 N1032 2.121 . S
Co1029 O1037 2.055 . S
Co1029 O1040 2.039 . S
Co1029 N1043 2.140 . S
C1030 O1031 1.227 . S
C1030 O1040 1.265 . S
O1031 C1030 1.227 . S
N1032 Co1029 2.121 . S
N1032 C1034 1.375 . S
N1032 C1035 1.313 . S
C1033 C1034 1.338 . S
C1033 N1036 1.377 . S
C1033 H1053 0.930 . S
C1034 N1032 1.375 . S
C1034 C1033 1.338 . S
C1034 H1038 0.931 . S
C1035 N1032 1.313 . S
C1035 N1036 1.344 . S
C1035 H1039 0.930 . S
N1036 C1033 1.377 . S
N1036 C1035 1.344 . S
O1037 Co1029 2.055 . S
O1037 C1041 1.253 . S
H1038 C1034 0.931 . S
H1039 C1035 0.930 . S
O1040 Co1029 2.039 . S
O1040 C1030 1.265 . S
C1041 O1037 1.253 . S
C1041 O1042 1.227 . S
O1042 C1041 1.227 . S
N1043 Co1029 2.140 . S
N1043 C1046 1.346 . S
N1043 C1047 1.345 . S
C1044 C1045 1.387 . S
C1044 C1048 1.391 . S
C1045 C1044 1.387 . S
C1045 C1046 1.369 . S
C1045 H1054 0.929 . S
C1046 N1043 1.346 . S
C1046 C1045 1.369 . S
C1046 H1049 0.928 . S
C1047 N1043 1.345 . S
C1047 C1048 1.371 . S
C1047 H1050 0.931 . S
C1048 C1044 1.391 . S
C1048 C1047 1.371 . S
C1048 H1055 0.930 . S
H1049 C1046 0.928 . S
H1050 C1047 0.931 . S
H1051 C1027 0.930 . S
H1052 C1024 0.930 . S
H1053 C1033 0.930 . S
H1054 C1045 0.929 . S
H1055 C1048 0.930 . S
C1056 C1057 1.349 . S
C1056 C1058 1.327 . S
C1056 H1081 0.950 . S
C1057 C1056 1.349 . S
C1057 C1073 1.349 1_655 S
C1058 C1056 1.327 . S
C1058 C1077 1.429 . S
C1058 H1082 0.950 . S
C1059 C1076 1.574 . S
C1059 C1078 1.368 1_455 S
C1059 H1083 0.949 . S
H1060 C1064 0.949 . S
C1061 C1062 1.349 1_455 S
C1061 C1063 1.327 . S
C1061 H1084 0.950 . S
C1062 C1061 1.349 1_655 S
C1062 C1074 1.349 . S
C1063 C1061 1.327 . S
C1063 C1079 1.429 1_455 S
C1063 H1085 0.950 . S
C1064 H1060 0.949 . S
C1064 C1072 1.574 . S
C1064 C1080 1.368 . S
H1065 C1073 0.950 . S
H1066 C1071 0.950 . S
H1067 C1072 0.949 . S
H1068 C1074 0.950 . S
H1069 C1075 0.950 . S
H1070 C1076 0.949 . S
C1071 H1066 0.950 . S
C1071 C1073 1.327 . S
C1071 C1077 1.429 1_455 S
C1072 C1064 1.574 . S
C1072 H1067 0.949 . S
C1072 C1078 1.368 . S
C1073 C1057 1.349 1_455 S
C1073 H1065 0.950 . S
C1073 C1071 1.327 . S
C1074 C1062 1.349 . S
C1074 H1068 0.950 . S
C1074 C1075 1.327 . S
C1075 H1069 0.950 . S
C1075 C1074 1.327 . S
C1075 C1079 1.429 . S
C1076 C1059 1.574 . S
C1076 H1070 0.949 . S
C1076 C1080 1.368 1_455 S
C1077 C1058 1.429 . S
C1077 C1071 1.429 1_655 S
C1077 C1078 1.523 . S
C1078 C1059 1.368 1_655 S
C1078 C1072 1.368 . S
C1078 C1077 1.523 . S
C1079 C1063 1.429 1_655 S
C1079 C1075 1.429 . S
C1079 C1080 1.523 . S
C1080 C1064 1.368 . S
C1080 C1076 1.368 1_655 S
C1080 C1079 1.523 . S
H1081 C1056 0.950 . S
H1082 C1058 0.950 . S
H1083 C1059 0.949 . S
H1084 C1061 0.950 . S
H1085 C1063 0.950 . S
C1086 C1087 1.349 . S
C1086 C1088 1.327 . S
C1086 H1111 0.950 . S
C1087 C1086 1.349 . S
C1087 C1103 1.349 . S
C1088 C1086 1.327 . S
C1088 C1107 1.429 . S
C1088 H1112 0.950 . S
C1089 C1106 1.574 . S
C1089 C1108 1.368 . S
C1089 H1113 0.949 . S
H1090 C1094 0.949 . S
C1091 C1092 1.349 . S
C1091 C1093 1.327 . S
C1091 H1114 0.950 . S
C1092 C1091 1.349 . S
C1092 C1104 1.349 . S
C1093 C1091 1.327 . S
C1093 C1109 1.429 . S
C1093 H1115 0.950 . S
C1094 H1090 0.949 . S
C1094 C1102 1.574 . S
C1094 C1110 1.368 . S
H1095 C1103 0.950 . S
H1096 C1101 0.950 . S
H1097 C1102 0.949 . S
H1098 C1104 0.950 . S
H1099 C1105 0.950 . S
H1100 C1106 0.949 . S
C1101 H1096 0.950 . S
C1101 C1103 1.327 . S
C1101 C1107 1.429 . S
C1102 C1094 1.574 . S
C1102 H1097 0.949 . S
C1102 C1108 1.368 . S
C1103 C1087 1.349 . S
C1103 H1095 0.950 . S
C1103 C1101 1.327 . S
C1104 C1092 1.349 . S
C1104 H1098 0.950 . S
C1104 C1105 1.327 . S
C1105 H1099 0.950 . S
C1105 C1104 1.327 . S
C1105 C1109 1.429 . S
C1106 C1089 1.574 . S
C1106 H1100 0.949 . S
C1106 C1110 1.368 . S
C1107 C1088 1.429 . S
C1107 C1101 1.429 . S
C1107 C1108 1.523 . S
C1108 C1089 1.368 . S
C1108 C1102 1.368 . S
C1108 C1107 1.523 . S
C1109 C1093 1.429 . S
C1109 C1105 1.429 . S
C1109 C1110 1.523 . S
C1110 C1094 1.368 . S
C1110 C1106 1.368 . S
C1110 C1109 1.523 . S
H1111 C1086 0.950 . S
H1112 C1088 0.950 . S
H1113 C1089 0.949 . S
H1114 C1091 0.950 . S
H1115 C1093 0.950 . S
C1116 C1117 1.349 . S
C1116 C1118 1.327 . S
C1116 H1141 0.950 . S
C1117 C1116 1.349 . S
C1117 C1133 1.349 . S
C1118 C1116 1.327 . S
C1118 C1137 1.429 . S
C1118 H1142 0.950 . S
C1119 C1136 1.574 . S
C1119 C1138 1.368 . S
C1119 H1143 0.949 . S
H1120 C1124 0.949 . S
C1121 C1122 1.349 . S
C1121 C1123 1.327 . S
C1121 H1144 0.953 . S
C1122 C1121 1.349 . S
C1122 C1134 1.349 . S
C1123 C1121 1.327 . S
C1123 C1139 1.429 . S
C1123 H1145 0.950 . S
C1124 H1120 0.949 . S
C1124 C1132 1.574 . S
C1124 C1140 1.368 . S
H1125 C1133 0.953 . S
H1126 C1131 0.950 . S
H1127 C1132 0.949 . S
H1128 C1134 0.950 . S
H1129 C1135 0.950 . S
H1130 C1136 0.949 . S
C1131 H1126 0.950 . S
C1131 C1133 1.327 . S
C1131 C1137 1.429 . S
C1132 C1124 1.574 . S
C1132 H1127 0.949 . S
C1132 C1138 1.368 . S
C1133 C1117 1.349 . S
C1133 H1125 0.953 . S
C1133 C1131 1.327 . S
C1134 C1122 1.349 . S
C1134 H1128 0.950 . S
C1134 C1135 1.327 . S
C1135 H1129 0.950 . S
C1135 C1134 1.327 . S
C1135 C1139 1.429 . S
C1136 C1119 1.574 . S
C1136 H1130 0.949 . S
C1136 C1140 1.368 . S
C1137 C1118 1.429 . S
C1137 C1131 1.429 . S
C1137 C1138 1.523 . S
C1138 C1119 1.368 . S
C1138 C1132 1.368 . S
C1138 C1137 1.523 . S
C1139 C1123 1.429 . S
C1139 C1135 1.429 . S
C1139 C1140 1.523 . S
C1140 C1124 1.368 . S
C1140 C1136 1.368 . S
C1140 C1139 1.523 . S
H1141 C1116 0.950 . S
H1142 C1118 0.950 . S
H1143 C1119 0.949 . S
H1144 C1121 0.953 . S
H1145 C1123 0.950 . S
C1146 C1147 1.349 . S
C1146 C1148 1.327 . S
C1146 H1171 0.950 . S
C1147 C1146 1.349 . S
C1147 C1163 1.349 . S
C1148 C1146 1.327 . S
C1148 C1167 1.429 . S
C1148 H1172 0.950 . S
C1149 C1166 1.574 . S
C1149 C1168 1.368 . S
C1149 H1173 0.949 . S
H1150 C1154 0.949 . S
C1151 C1152 1.349 . S
C1151 C1153 1.327 . S
C1151 H1174 0.950 . S
C1152 C1151 1.349 . S
C1152 C1164 1.349 . S
C1153 C1151 1.327 . S
C1153 C1169 1.429 . S
C1153 H1175 0.950 . S
C1154 H1150 0.949 . S
C1154 C1162 1.574 . S
C1154 C1170 1.368 . S
H1155 C1163 0.950 . S
H1156 C1161 0.950 . S
H1157 C1162 0.949 . S
H1158 C1164 0.950 . S
H1159 C1165 0.950 . S
H1160 C1166 0.949 . S
C1161 H1156 0.950 . S
C1161 C1163 1.327 . S
C1161 C1167 1.429 . S
C1162 C1154 1.574 . S
C1162 H1157 0.949 . S
C1162 C1168 1.368 . S
C1163 C1147 1.349 . S
C1163 H1155 0.950 . S
C1163 C1161 1.327 . S
C1164 C1152 1.349 . S
C1164 H1158 0.950 . S
C1164 C1165 1.327 . S
C1165 H1159 0.950 . S
C1165 C1164 1.327 . S
C1165 C1169 1.429 . S
C1166 C1149 1.574 . S
C1166 H1160 0.949 . S
C1166 C1170 1.368 . S
C1167 C1148 1.429 . S
C1167 C1161 1.429 . S
C1167 C1168 1.523 . S
C1168 C1149 1.368 . S
C1168 C1162 1.368 . S
C1168 C1167 1.523 . S
C1169 C1153 1.429 . S
C1169 C1165 1.429 . S
C1169 C1170 1.523 . S
C1170 C1154 1.368 . S
C1170 C1166 1.368 . S
C1170 C1169 1.523 . S
H1171 C1146 0.950 . S
H1172 C1148 0.950 . S
H1173 C1149 0.949 . S
H1174 C1151 0.950 . S
H1175 C1153 0.950 . S
C1176 C1177 1.349 . S
C1176 C1178 1.327 . S
C1176 H1201 0.950 . S
C1177 C1176 1.349 . S
C1177 C1193 1.331 1_655 S
C1178 C1176 1.327 . S
C1178 C1197 1.429 . S
C1178 H1202 0.950 . S
C1179 C1196 1.574 . S
C1179 C1198 1.368 1_455 S
C1179 H1203 0.949 . S
H1180 C1184 0.949 . S
C1181 C1182 1.331 1_455 S
C1181 C1183 1.327 1_556 S
C1181 H1204 0.968 . S
C1182 C1181 1.331 1_655 S
C1182 C1194 1.349 1_556 S
C1183 C1181 1.327 1_554 S
C1183 C1199 1.406 1_455 S
C1183 H1205 0.976 . S
C1184 H1180 0.949 . S
C1184 C1192 1.574 . S
C1184 C1200 1.368 . S
H1185 C1193 0.968 . S
H1186 C1191 0.976 . S
H1187 C1192 0.949 . S
H1188 C1194 0.950 1_556 S
H1189 C1195 0.950 . S
H1190 C1196 0.949 . S
C1191 H1186 0.976 . S
C1191 C1193 1.327 . S
C1191 C1197 1.406 1_455 S
C1192 C1184 1.574 . S
C1192 H1187 0.949 . S
C1192 C1198 1.368 . S
C1193 C1177 1.331 1_455 S
C1193 H1185 0.968 . S
C1193 C1191 1.327 . S
C1194 C1182 1.349 1_554 S
C1194 H1188 0.950 1_554 S
C1194 C1195 1.327 . S
C1195 H1189 0.950 . S
C1195 C1194 1.327 . S
C1195 C1199 1.429 . S
C1196 C1179 1.574 . S
C1196 H1190 0.949 . S
C1196 C1200 1.368 1_455 S
C1197 C1178 1.429 . S
C1197 C1191 1.406 1_655 S
C1197 C1198 1.523 . S
C1198 C1179 1.368 1_655 S
C1198 C1192 1.368 . S
C1198 C1197 1.523 . S
C1199 C1183 1.406 1_655 S
C1199 C1195 1.429 . S
C1199 C1200 1.523 . S
C1200 C1184 1.368 . S
C1200 C1196 1.368 1_655 S
C1200 C1199 1.523 . S
H1201 C1176 0.950 . S
H1202 C1178 0.950 . S
H1203 C1179 0.949 . S
H1204 C1181 0.968 . S
H1205 C1183 0.976 . S
C1206 C1207 1.349 . S
C1206 C1208 1.327 1_556 S
C1206 H1231 0.950 . S
C1207 C1206 1.349 . S
C1207 C1223 1.349 . S
C1208 C1206 1.327 1_554 S
C1208 C1227 1.429 . S
C1208 H1232 0.950 . S
C1209 C1226 1.574 . S
C1209 C1228 1.368 . S
C1209 H1233 0.949 . S
H1210 C1214 0.949 . S
C1211 C1212 1.349 . S
C1211 C1213 1.327 . S
C1211 H1234 0.950 . S
C1212 C1211 1.349 . S
C1212 C1224 1.349 . S
C1213 C1211 1.327 . S
C1213 C1229 1.429 . S
C1213 H1235 0.950 . S
C1214 H1210 0.949 . S
C1214 C1222 1.574 . S
C1214 C1230 1.368 . S
H1215 C1223 0.950 . S
H1216 C1221 0.950 . S
H1217 C1222 0.949 . S
H1218 C1224 0.950 . S
H1219 C1225 0.950 . S
H1220 C1226 0.949 . S
C1221 H1216 0.950 . S
C1221 C1223 1.327 1_554 S
C1221 C1227 1.429 . S
C1222 C1214 1.574 . S
C1222 H1217 0.949 . S
C1222 C1228 1.368 . S
C1223 C1207 1.349 . S
C1223 H1215 0.950 . S
C1223 C1221 1.327 1_556 S
C1224 C1212 1.349 . S
C1224 H1218 0.950 . S
C1224 C1225 1.327 . S
C1225 H1219 0.950 . S
C1225 C1224 1.327 . S
C1225 C1229 1.429 . S
C1226 C1209 1.574 . S
C1226 H1220 0.949 . S
C1226 C1230 1.368 . S
C1227 C1208 1.429 . S
C1227 C1221 1.429 . S
C1227 C1228 1.523 . S
C1228 C1209 1.368 . S
C1228 C1222 1.368 . S
C1228 C1227 1.523 . S
C1229 C1213 1.429 . S
C1229 C1225 1.429 . S
C1229 C1230 1.523 . S
C1230 C1214 1.368 . S
C1230 C1226 1.368 . S
C1230 C1229 1.523 . S
H1231 C1206 0.950 . S
H1232 C1208 0.950 . S
H1233 C1209 0.949 . S
H1234 C1211 0.950 . S
H1235 C1213 0.950 . S
C1236 C1237 1.349 1_556 S
C1236 C1238 1.327 . S
C1236 H1261 0.950 1_556 S
C1237 C1236 1.349 1_554 S
C1237 C1253 1.349 . S
C1238 C1236 1.327 . S
C1238 C1257 1.429 . S
C1238 H1262 0.950 . S
C1239 C1256 1.574 . S
C1239 C1258 1.385 . S
C1239 H1263 0.935 1_455 S
H1240 C1244 0.949 . S
C1241 C1242 1.349 . S
C1241 C1243 1.330 . S
C1241 H1264 0.950 1_455 S
C1242 C1241 1.349 . S
C1242 C1254 1.349 . S
C1243 C1241 1.330 . S
C1243 C1259 1.453 . S
C1243 H1265 0.928 1_455 S
C1244 H1240 0.949 . S
C1244 C1252 1.574 . S
C1244 C1260 1.368 . S
H1245 C1253 0.950 1_655 S
H1246 C1251 0.928 1_655 S
H1247 C1252 0.949 . S
H1248 C1254 0.950 . S
H1249 C1255 0.950 . S
H1250 C1256 0.935 1_655 S
C1251 H1246 0.928 1_455 S
C1251 C1253 1.330 1_556 S
C1251 C1257 1.452 . S
C1252 C1244 1.574 . S
C1252 H1247 0.949 . S
C1252 C1258 1.368 . S
C1253 C1237 1.349 . S
C1253 H1245 0.950 1_455 S
C1253 C1251 1.330 1_554 S
C1254 C1242 1.349 . S
C1254 H1248 0.950 . S
C1254 C1255 1.327 . S
C1255 H1249 0.950 . S
C1255 C1254 1.327 . S
C1255 C1259 1.429 . S
C1256 C1239 1.574 . S
C1256 H1250 0.935 1_455 S
C1256 C1260 1.385 . S
C1257 C1238 1.429 . S
C1257 C1251 1.452 . S
C1257 C1258 1.523 . S
C1258 C1239 1.385 . S
C1258 C1252 1.368 . S
C1258 C1257 1.523 . S
C1259 C1243 1.453 . S
C1259 C1255 1.429 . S
C1259 C1260 1.523 . S
C1260 C1244 1.368 . S
C1260 C1256 1.385 . S
C1260 C1259 1.523 . S
H1261 C1236 0.950 1_554 S
H1262 C1238 0.950 . S
H1263 C1239 0.935 1_655 S
H1264 C1241 0.950 1_655 S
H1265 C1243 0.928 1_655 S
C1266 C1267 1.349 . S
C1266 C1268 1.327 1_554 S
C1266 H1291 0.950 . S
C1267 C1266 1.349 . S
C1267 C1283 1.340 1_554 S
C1268 C1266 1.327 1_556 S
C1268 C1287 1.429 . S
C1268 H1292 0.950 . S
C1269 C1286 1.574 . S
C1269 C1288 1.368 . S
C1269 H1293 0.949 . S
H1270 C1274 0.949 . S
C1271 C1272 1.349 . S
C1271 C1273 1.327 . S
C1271 H1294 0.950 . S
C1272 C1271 1.349 . S
C1272 C1284 1.349 . S
C1273 C1271 1.327 . S
C1273 C1289 1.429 . S
C1273 H1295 0.950 . S
C1274 H1270 0.949 . S
C1274 C1282 1.574 . S
C1274 C1290 1.368 . S
H1275 C1283 0.947 1_554 S
H1276 C1281 0.950 . S
H1277 C1282 0.949 . S
H1278 C1284 0.950 . S
H1279 C1285 0.950 . S
H1280 C1286 0.949 . S
C1281 H1276 0.950 . S
C1281 C1283 1.339 . S
C1281 C1287 1.429 . S
C1282 C1274 1.574 . S
C1282 H1277 0.949 . S
C1282 C1288 1.368 . S
C1283 C1267 1.340 1_556 S
C1283 H1275 0.947 1_556 S
C1283 C1281 1.339 . S
C1284 C1272 1.349 . S
C1284 H1278 0.950 . S
C1284 C1285 1.327 . S
C1285 H1279 0.950 . S
C1285 C1284 1.327 . S
C1285 C1289 1.429 . S
C1286 C1269 1.574 . S
C1286 H1280 0.949 . S
C1286 C1290 1.368 . S
C1287 C1268 1.429 . S
C1287 C1281 1.429 . S
C1287 C1288 1.523 . S
C1288 C1269 1.368 . S
C1288 C1282 1.368 . S
C1288 C1287 1.523 . S
C1289 C1273 1.429 . S
C1289 C1285 1.429 . S
C1289 C1290 1.523 . S
C1290 C1274 1.368 . S
C1290 C1286 1.368 . S
C1290 C1289 1.523 . S
H1291 C1266 0.950 . S
H1292 C1268 0.950 . S
H1293 C1269 0.949 . S
H1294 C1271 0.950 . S
H1295 C1273 0.950 . S
C1296 C1297 1.349 . S
C1296 C1298 1.327 . S
C1296 H1321 0.950 . S
C1297 C1296 1.349 . S
C1297 C1313 1.349 . S
C1298 C1296 1.327 . S
C1298 C1317 1.429 . S
C1298 H1322 0.950 . S
C1299 C1316 1.574 . S
C1299 C1318 1.368 . S
C1299 H1323 0.949 . S
H1300 C1304 0.949 . S
C1301 C1302 1.349 1_554 S
C1301 C1303 1.327 . S
C1301 H1324 0.950 1_554 S
C1302 C1301 1.349 1_556 S
C1302 C1314 1.349 . S
C1303 C1301 1.327 . S
C1303 C1319 1.429 . S
C1303 H1325 0.950 . S
C1304 H1300 0.949 . S
C1304 C1312 1.574 . S
C1304 C1320 1.368 . S
H1305 C1313 0.950 . S
H1306 C1311 0.950 . S
H1307 C1312 0.949 . S
H1308 C1314 0.950 . S
H1309 C1315 0.950 . S
H1310 C1316 0.949 . S
C1311 H1306 0.950 . S
C1311 C1313 1.327 . S
C1311 C1317 1.429 . S
C1312 C1304 1.574 . S
C1312 H1307 0.949 . S
C1312 C1318 1.368 . S
C1313 C1297 1.349 . S
C1313 H1305 0.950 . S
C1313 C1311 1.327 . S
C1314 C1302 1.349 . S
C1314 H1308 0.950 . S
C1314 C1315 1.327 1_556 S
C1315 H1309 0.950 . S
C1315 C1314 1.327 1_554 S
C1315 C1319 1.429 . S
C1316 C1299 1.574 . S
C1316 H1310 0.949 . S
C1316 C1320 1.368 . S
C1317 C1298 1.429 . S
C1317 C1311 1.429 . S
C1317 C1318 1.523 . S
C1318 C1299 1.368 . S
C1318 C1312 1.368 . S
C1318 C1317 1.523 . S
C1319 C1303 1.429 . S
C1319 C1315 1.429 . S
C1319 C1320 1.523 . S
C1320 C1304 1.368 . S
C1320 C1316 1.368 . S
C1320 C1319 1.523 . S
H1321 C1296 0.950 . S
H1322 C1298 0.950 . S
H1323 C1299 0.949 . S
H1324 C1301 0.950 1_556 S
H1325 C1303 0.950 . S
C1326 C1327 1.349 . S
C1326 C1328 1.327 . S
C1326 H1351 0.950 . S
C1327 C1326 1.349 . S
C1327 C1343 1.349 . S
C1328 C1326 1.327 . S
C1328 C1347 1.429 . S
C1328 H1352 0.950 . S
C1329 C1346 1.574 . S
C1329 C1348 1.368 . S
C1329 H1353 0.949 . S
H1330 C1334 0.949 . S
C1331 C1332 1.349 . S
C1331 C1333 1.327 1_556 S
C1331 H1354 0.950 . S
C1332 C1331 1.349 . S
C1332 C1344 1.327 1_556 S
C1333 C1331 1.327 1_554 S
C1333 C1349 1.429 . S
C1333 H1355 0.950 . S
C1334 H1330 0.949 . S
C1334 C1342 1.574 . S
C1334 C1350 1.368 . S
H1335 C1343 0.950 . S
H1336 C1341 0.950 . S
H1337 C1342 0.949 . S
H1338 C1344 0.944 1_556 S
H1339 C1345 0.950 . S
H1340 C1346 0.949 . S
C1341 H1336 0.950 . S
C1341 C1343 1.327 . S
C1341 C1347 1.429 . S
C1342 C1334 1.574 . S
C1342 H1337 0.949 . S
C1342 C1348 1.368 . S
C1343 C1327 1.349 . S
C1343 H1335 0.950 . S
C1343 C1341 1.327 . S
C1344 C1332 1.327 1_554 S
C1344 H1338 0.944 1_554 S
C1344 C1345 1.355 . S
C1345 H1339 0.950 . S
C1345 C1344 1.355 . S
C1345 C1349 1.429 . S
C1346 C1329 1.574 . S
C1346 H1340 0.949 . S
C1346 C1350 1.368 . S
C1347 C1328 1.429 . S
C1347 C1341 1.429 . S
C1347 C1348 1.523 . S
C1348 C1329 1.368 . S
C1348 C1342 1.368 . S
C1348 C1347 1.523 . S
C1349 C1333 1.429 . S
C1349 C1345 1.429 . S
C1349 C1350 1.523 . S
C1350 C1334 1.368 . S
C1350 C1346 1.368 . S
C1350 C1349 1.523 . S
H1351 C1326 0.950 . S
H1352 C1328 0.950 . S
H1353 C1329 0.949 . S
H1354 C1331 0.950 . S
H1355 C1333 0.950 . S
C1356 C1357 1.349 1_556 S
C1356 C1358 1.327 . S
C1356 H1381 0.950 1_556 S
C1357 C1356 1.349 1_554 S
C1357 C1373 1.349 . S
C1358 C1356 1.327 . S
C1358 C1377 1.429 . S
C1358 H1382 0.950 . S
C1359 C1376 1.574 . S
C1359 C1378 1.368 . S
C1359 H1383 0.949 . S
H1360 C1364 0.949 . S
C1361 C1362 1.349 . S
C1361 C1363 1.327 . S
C1361 H1384 0.950 . S
C1362 C1361 1.349 . S
C1362 C1374 1.349 . S
C1363 C1361 1.327 . S
C1363 C1379 1.429 . S
C1363 H1385 0.950 . S
C1364 H1360 0.949 . S
C1364 C1372 1.574 . S
C1364 C1380 1.368 . S
H1365 C1373 0.950 . S
H1366 C1371 0.950 . S
H1367 C1372 0.949 . S
H1368 C1374 0.950 . S
H1369 C1375 0.950 . S
H1370 C1376 0.949 . S
C1371 H1366 0.950 . S
C1371 C1373 1.327 1_556 S
C1371 C1377 1.429 . S
C1372 C1364 1.574 . S
C1372 H1367 0.949 . S
C1372 C1378 1.368 . S
C1373 C1357 1.349 . S
C1373 H1365 0.950 . S
C1373 C1371 1.327 1_554 S
C1374 C1362 1.349 . S
C1374 H1368 0.950 . S
C1374 C1375 1.327 . S
C1375 H1369 0.950 . S
C1375 C1374 1.327 . S
C1375 C1379 1.429 . S
C1376 C1359 1.574 . S
C1376 H1370 0.949 . S
C1376 C1380 1.368 . S
C1377 C1358 1.429 . S
C1377 C1371 1.429 . S
C1377 C1378 1.523 . S
C1378 C1359 1.368 . S
C1378 C1372 1.368 . S
C1378 C1377 1.523 . S
C1379 C1363 1.429 . S
C1379 C1375 1.429 . S
C1379 C1380 1.523 . S
C1380 C1364 1.368 . S
C1380 C1376 1.368 . S
C1380 C1379 1.523 . S
H1381 C1356 0.950 1_554 S
H1382 C1358 0.950 . S
H1383 C1359 0.949 . S
H1384 C1361 0.950 . S
H1385 C1363 0.950 . S
C1386 C1387 1.349 . S
C1386 C1388 1.327 . S
C1386 H1411 0.950 . S
C1387 C1386 1.349 . S
C1387 C1403 1.349 . S
C1388 C1386 1.327 . S
C1388 C1407 1.429 . S
C1388 H1412 0.950 . S
C1389 C1406 1.574 . S
C1389 C1408 1.368 . S
C1389 H1413 0.949 . S
H1390 C1394 0.949 . S
C1391 C1392 1.349 . S
C1391 C1393 1.327 1_554 S
C1391 H1414 0.950 . S
C1392 C1391 1.349 . S
C1392 C1404 1.349 . S
C1393 C1391 1.327 1_556 S
C1393 C1409 1.429 . S
C1393 H1415 0.950 . S
C1394 H1390 0.949 . S
C1394 C1402 1.574 . S
C1394 C1410 1.368 . S
H1395 C1403 0.950 . S
H1396 C1401 0.950 . S
H1397 C1402 0.949 . S
H1398 C1404 0.950 . S
H1399 C1405 0.950 . S
H1400 C1406 0.949 . S
C1401 H1396 0.950 . S
C1401 C1403 1.327 . S
C1401 C1407 1.429 . S
C1402 C1394 1.574 . S
C1402 H1397 0.949 . S
C1402 C1408 1.368 . S
C1403 C1387 1.349 . S
C1403 H1395 0.950 . S
C1403 C1401 1.327 . S
C1404 C1392 1.349 . S
C1404 H1398 0.950 . S
C1404 C1405 1.327 1_554 S
C1405 H1399 0.950 . S
C1405 C1404 1.327 1_556 S
C1405 C1409 1.429 . S
C1406 C1389 1.574 . S
C1406 H1400 0.949 . S
C1406 C1410 1.368 . S
C1407 C1388 1.429 . S
C1407 C1401 1.429 . S
C1407 C1408 1.523 . S
C1408 C1389 1.368 . S
C1408 C1402 1.368 . S
C1408 C1407 1.523 . S
C1409 C1393 1.429 . S
C1409 C1405 1.429 . S
C1409 C1410 1.523 . S
C1410 C1394 1.368 . S
C1410 C1406 1.368 . S
C1410 C1409 1.523 . S
H1411 C1386 0.950 . S
H1412 C1388 0.950 . S
H1413 C1389 0.949 . S
H1414 C1391 0.950 . S
H1415 C1393 0.950 . S
C1416 C1417 1.349 . S
C1416 C1418 1.327 . S
C1416 H1441 0.950 . S
C1417 C1416 1.349 . S
C1417 C1433 1.349 . S
C1418 C1416 1.327 . S
C1418 C1437 1.429 . S
C1418 H1442 0.950 . S
C1419 C1436 1.574 . S
C1419 C1438 1.368 . S
C1419 H1443 0.949 . S
H1420 C1424 0.949 . S
C1421 C1422 1.349 . S
C1421 C1423 1.327 . S
C1421 H1444 0.950 . S
C1422 C1421 1.349 . S
C1422 C1434 1.349 . S
C1423 C1421 1.327 . S
C1423 C1439 1.429 . S
C1423 H1445 0.950 . S
C1424 H1420 0.949 . S
C1424 C1432 1.574 . S
C1424 C1440 1.368 . S
H1425 C1433 0.950 . S
H1426 C1431 0.950 . S
H1427 C1432 0.949 . S
H1428 C1434 0.950 . S
H1429 C1435 0.950 . S
H1430 C1436 0.949 . S
C1431 H1426 0.950 . S
C1431 C1433 1.327 . S
C1431 C1437 1.429 . S
C1432 C1424 1.574 . S
C1432 H1427 0.949 . S
C1432 C1438 1.368 . S
C1433 C1417 1.349 . S
C1433 H1425 0.950 . S
C1433 C1431 1.327 . S
C1434 C1422 1.349 . S
C1434 H1428 0.950 . S
C1434 C1435 1.327 . S
C1435 H1429 0.950 . S
C1435 C1434 1.327 . S
C1435 C1439 1.429 . S
C1436 C1419 1.574 . S
C1436 H1430 0.949 . S
C1436 C1440 1.368 . S
C1437 C1418 1.429 . S
C1437 C1431 1.429 . S
C1437 C1438 1.523 . S
C1438 C1419 1.368 . S
C1438 C1432 1.368 . S
C1438 C1437 1.523 . S
C1439 C1423 1.429 . S
C1439 C1435 1.429 . S
C1439 C1440 1.523 . S
C1440 C1424 1.368 . S
C1440 C1436 1.368 . S
C1440 C1439 1.523 . S
H1441 C1416 0.950 . S
H1442 C1418 0.950 . S
H1443 C1419 0.949 . S
H1444 C1421 0.950 . S
H1445 C1423 0.950 . S
C1446 C1447 1.349 . S
C1446 C1448 1.327 . S
C1446 H1471 0.950 . S
C1447 C1446 1.349 . S
C1447 C1463 1.349 . S
C1448 C1446 1.327 . S
C1448 C1467 1.429 . S
C1448 H1472 0.950 . S
C1449 C1466 1.574 . S
C1449 C1468 1.368 . S
C1449 H1473 0.949 . S
H1450 C1454 0.949 . S
C1451 C1452 1.349 . S
C1451 C1453 1.327 . S
C1451 H1474 0.950 . S
C1452 C1451 1.349 . S
C1452 C1464 1.349 . S
C1453 C1451 1.327 . S
C1453 C1469 1.429 . S
C1453 H1475 0.950 . S
C1454 H1450 0.949 . S
C1454 C1462 1.574 . S
C1454 C1470 1.368 . S
H1455 C1463 0.950 . S
H1456 C1461 0.950 . S
H1457 C1462 0.949 . S
H1458 C1464 0.950 . S
H1459 C1465 0.950 . S
H1460 C1466 0.949 . S
C1461 H1456 0.950 . S
C1461 C1463 1.327 . S
C1461 C1467 1.429 . S
C1462 C1454 1.574 . S
C1462 H1457 0.949 . S
C1462 C1468 1.368 . S
C1463 C1447 1.349 . S
C1463 H1455 0.950 . S
C1463 C1461 1.327 . S
C1464 C1452 1.349 . S
C1464 H1458 0.950 . S
C1464 C1465 1.327 . S
C1465 H1459 0.950 . S
C1465 C1464 1.327 . S
C1465 C1469 1.429 . S
C1466 C1449 1.574 . S
C1466 H1460 0.949 . S
C1466 C1470 1.368 . S
C1467 C1448 1.429 . S
C1467 C1461 1.429 . S
C1467 C1468 1.523 . S
C1468 C1449 1.368 . S
C1468 C1462 1.368 . S
C1468 C1467 1.523 . S
C1469 C1453 1.429 . S
C1469 C1465 1.429 . S
C1469 C1470 1.523 . S
C1470 C1454 1.368 . S
C1470 C1466 1.368 . S
C1470 C1469 1.523 . S
H1471 C1446 0.950 . S
H1472 C1448 0.950 . S
H1473 C1449 0.949 . S
H1474 C1451 0.950 . S
H1475 C1453 0.950 . S
C1476 C1477 1.349 . S
C1476 C1478 1.327 . S
C1476 H1501 0.950 . S
C1477 C1476 1.349 . S
C1477 C1493 1.349 . S
C1478 C1476 1.327 . S
C1478 C1497 1.429 . S
C1478 H1502 0.950 . S
C1479 C1496 1.574 . S
C1479 C1498 1.368 . S
C1479 H1503 0.949 . S
H1480 C1484 0.949 . S
C1481 C1482 1.349 . S
C1481 C1483 1.327 . S
C1481 H1504 0.950 . S
C1482 C1481 1.349 . S
C1482 C1494 1.349 . S
C1483 C1481 1.327 . S
C1483 C1499 1.429 . S
C1483 H1505 0.950 . S
C1484 H1480 0.949 . S
C1484 C1492 1.574 . S
C1484 C1500 1.368 . S
H1485 C1493 0.950 . S
H1486 C1491 0.950 . S
H1487 C1492 0.949 . S
H1488 C1494 0.950 . S
H1489 C1495 0.950 . S
H1490 C1496 0.949 . S
C1491 H1486 0.950 . S
C1491 C1493 1.327 . S
C1491 C1497 1.429 . S
C1492 C1484 1.574 . S
C1492 H1487 0.949 . S
C1492 C1498 1.368 . S
C1493 C1477 1.349 . S
C1493 H1485 0.950 . S
C1493 C1491 1.327 . S
C1494 C1482 1.349 . S
C1494 H1488 0.950 . S
C1494 C1495 1.327 . S
C1495 H1489 0.950 . S
C1495 C1494 1.327 . S
C1495 C1499 1.429 . S
C1496 C1479 1.574 . S
C1496 H1490 0.949 . S
C1496 C1500 1.368 . S
C1497 C1478 1.429 . S
C1497 C1491 1.429 . S
C1497 C1498 1.523 . S
C1498 C1479 1.368 . S
C1498 C1492 1.368 . S
C1498 C1497 1.523 . S
C1499 C1483 1.429 . S
C1499 C1495 1.429 . S
C1499 C1500 1.523 . S
C1500 C1484 1.368 . S
C1500 C1496 1.368 . S
C1500 C1499 1.523 . S
H1501 C1476 0.950 . S
H1502 C1478 0.950 . S
H1503 C1479 0.949 . S
H1504 C1481 0.950 . S
H1505 C1483 0.950 . S
C1506 C1507 1.349 . S
C1506 C1508 1.327 . S
C1506 H1531 0.950 . S
C1507 C1506 1.349 . S
C1507 C1523 1.349 . S
C1508 C1506 1.327 . S
C1508 C1527 1.429 . S
C1508 H1532 0.950 . S
C1509 C1526 1.574 . S
C1509 C1528 1.368 . S
C1509 H1533 0.949 . S
H1510 C1514 0.949 . S
C1511 C1512 1.349 . S
C1511 C1513 1.327 . S
C1511 H1534 0.950 . S
C1512 C1511 1.349 . S
C1512 C1524 1.349 . S
C1513 C1511 1.327 . S
C1513 C1529 1.429 . S
C1513 H1535 0.950 . S
C1514 H1510 0.949 . S
C1514 C1522 1.574 . S
C1514 C1530 1.368 . S
H1515 C1523 0.950 . S
H1516 C1521 0.950 . S
H1517 C1522 0.949 . S
H1518 C1524 0.950 . S
H1519 C1525 0.950 . S
H1520 C1526 0.949 . S
C1521 H1516 0.950 . S
C1521 C1523 1.327 . S
C1521 C1527 1.429 . S
C1522 C1514 1.574 . S
C1522 H1517 0.949 . S
C1522 C1528 1.368 . S
C1523 C1507 1.349 . S
C1523 H1515 0.950 . S
C1523 C1521 1.327 . S
C1524 C1512 1.349 . S
C1524 H1518 0.950 . S
C1524 C1525 1.327 . S
C1525 H1519 0.950 . S
C1525 C1524 1.327 . S
C1525 C1529 1.429 . S
C1526 C1509 1.574 . S
C1526 H1520 0.949 . S
C1526 C1530 1.368 . S
C1527 C1508 1.429 . S
C1527 C1521 1.429 . S
C1527 C1528 1.523 . S
C1528 C1509 1.368 . S
C1528 C1522 1.368 . S
C1528 C1527 1.523 . S
C1529 C1513 1.429 . S
C1529 C1525 1.429 . S
C1529 C1530 1.523 . S
C1530 C1514 1.368 . S
C1530 C1526 1.368 . S
C1530 C1529 1.523 . S
H1531 C1506 0.950 . S
H1532 C1508 0.950 . S
H1533 C1509 0.949 . S
H1534 C1511 0.950 . S
H1535 C1513 0.950 . S
C1536 C1537 1.349 . S
C1536 C1538 1.327 . S
C1536 H1561 0.950 . S
C1537 C1536 1.349 . S
C1537 C1553 1.349 . S
C1538 C1536 1.327 . S
C1538 C1557 1.429 . S
C1538 H1562 0.950 . S
C1539 C1556 1.574 . S
C1539 C1558 1.368 . S
C1539 H1563 0.949 . S
H1540 C1544 0.949 . S
C1541 C1542 1.349 . S
C1541 C1543 1.327 . S
C1541 H1564 0.950 . S
C1542 C1541 1.349 . S
C1542 C1554 1.349 . S
C1543 C1541 1.327 . S
C1543 C1559 1.429 . S
C1543 H1565 0.950 . S
C1544 H1540 0.949 . S
C1544 C1552 1.574 . S
C1544 C1560 1.368 . S
H1545 C1553 0.950 . S
H1546 C1551 0.950 . S
H1547 C1552 0.949 . S
H1548 C1554 0.950 . S
H1549 C1555 0.950 . S
H1550 C1556 0.949 . S
C1551 H1546 0.950 . S
C1551 C1553 1.327 . S
C1551 C1557 1.429 . S
C1552 C1544 1.574 . S
C1552 H1547 0.949 . S
C1552 C1558 1.368 . S
C1553 C1537 1.349 . S
C1553 H1545 0.950 . S
C1553 C1551 1.327 . S
C1554 C1542 1.349 . S
C1554 H1548 0.950 . S
C1554 C1555 1.327 . S
C1555 H1549 0.950 . S
C1555 C1554 1.327 . S
C1555 C1559 1.429 . S
C1556 C1539 1.574 . S
C1556 H1550 0.949 . S
C1556 C1560 1.368 . S
C1557 C1538 1.429 . S
C1557 C1551 1.429 . S
C1557 C1558 1.523 . S
C1558 C1539 1.368 . S
C1558 C1552 1.368 . S
C1558 C1557 1.523 . S
C1559 C1543 1.429 . S
C1559 C1555 1.429 . S
C1559 C1560 1.523 . S
C1560 C1544 1.368 . S
C1560 C1556 1.368 . S
C1560 C1559 1.523 . S
H1561 C1536 0.950 . S
H1562 C1538 0.950 . S
H1563 C1539 0.949 . S
H1564 C1541 0.950 . S
H1565 C1543 0.950 . S
C1566 C1567 1.349 . S
C1566 C1568 1.327 . S
C1566 H1591 0.950 . S
C1567 C1566 1.349 . S
C1567 C1583 1.349 . S
C1568 C1566 1.327 . S
C1568 C1587 1.429 . S
C1568 H1592 0.950 . S
C1569 C1586 1.574 . S
C1569 C1588 1.368 . S
C1569 H1593 0.949 . S
H1570 C1574 0.949 . S
C1571 C1572 1.349 . S
C1571 C1573 1.327 . S
C1571 H1594 0.950 . S
C1572 C1571 1.349 . S
C1572 C1584 1.349 . S
C1573 C1571 1.327 . S
C1573 C1589 1.429 . S
C1573 H1595 0.950 . S
C1574 H1570 0.949 . S
C1574 C1582 1.574 . S
C1574 C1590 1.368 . S
H1575 C1583 0.950 . S
H1576 C1581 0.950 . S
H1577 C1582 0.949 . S
H1578 C1584 0.950 . S
H1579 C1585 0.950 . S
H1580 C1586 0.949 . S
C1581 H1576 0.950 . S
C1581 C1583 1.327 . S
C1581 C1587 1.429 . S
C1582 C1574 1.574 . S
C1582 H1577 0.949 . S
C1582 C1588 1.368 . S
C1583 C1567 1.349 . S
C1583 H1575 0.950 . S
C1583 C1581 1.327 . S
C1584 C1572 1.349 . S
C1584 H1578 0.950 . S
C1584 C1585 1.327 . S
C1585 H1579 0.950 . S
C1585 C1584 1.327 . S
C1585 C1589 1.429 . S
C1586 C1569 1.574 . S
C1586 H1580 0.949 . S
C1586 C1590 1.368 . S
C1587 C1568 1.429 . S
C1587 C1581 1.429 . S
C1587 C1588 1.523 . S
C1588 C1569 1.368 . S
C1588 C1582 1.368 . S
C1588 C1587 1.523 . S
C1589 C1573 1.429 . S
C1589 C1585 1.429 . S
C1589 C1590 1.523 . S
C1590 C1574 1.368 . S
C1590 C1586 1.368 . S
C1590 C1589 1.523 . S
H1591 C1566 0.950 . S
H1592 C1568 0.950 . S
H1593 C1569 0.949 . S
H1594 C1571 0.950 . S
H1595 C1573 0.950 . S
C1596 C1597 1.349 . S
C1596 C1598 1.327 . S
C1596 H1621 0.950 . S
C1597 C1596 1.349 . S
C1597 C1613 1.349 . S
C1598 C1596 1.327 . S
C1598 C1617 1.429 . S
C1598 H1622 0.950 . S
C1599 C1616 1.574 . S
C1599 C1618 1.368 . S
C1599 H1623 0.949 . S
H1600 C1604 0.949 . S
C1601 C1602 1.349 . S
C1601 C1603 1.327 . S
C1601 H1624 0.950 . S
C1602 C1601 1.349 . S
C1602 C1614 1.349 . S
C1603 C1601 1.327 . S
C1603 C1619 1.429 . S
C1603 H1625 0.950 . S
C1604 H1600 0.949 . S
C1604 C1612 1.574 . S
C1604 C1620 1.368 . S
H1605 C1613 0.950 . S
H1606 C1611 0.950 . S
H1607 C1612 0.949 . S
H1608 C1614 0.950 . S
H1609 C1615 0.950 . S
H1610 C1616 0.949 . S
C1611 H1606 0.950 . S
C1611 C1613 1.327 . S
C1611 C1617 1.429 . S
C1612 C1604 1.574 . S
C1612 H1607 0.949 . S
C1612 C1618 1.368 . S
C1613 C1597 1.349 . S
C1613 H1605 0.950 . S
C1613 C1611 1.327 . S
C1614 C1602 1.349 . S
C1614 H1608 0.950 . S
C1614 C1615 1.327 . S
C1615 H1609 0.950 . S
C1615 C1614 1.327 . S
C1615 C1619 1.429 . S
C1616 C1599 1.574 . S
C1616 H1610 0.949 . S
C1616 C1620 1.368 . S
C1617 C1598 1.429 . S
C1617 C1611 1.429 . S
C1617 C1618 1.523 . S
C1618 C1599 1.368 . S
C1618 C1612 1.368 . S
C1618 C1617 1.523 . S
C1619 C1603 1.429 . S
C1619 C1615 1.429 . S
C1619 C1620 1.523 . S
C1620 C1604 1.368 . S
C1620 C1616 1.368 . S
C1620 C1619 1.523 . S
H1621 C1596 0.950 . S
H1622 C1598 0.950 . S
H1623 C1599 0.949 . S
H1624 C1601 0.950 . S
H1625 C1603 0.950 . S
C1626 C1627 1.349 . S
C1626 C1628 1.327 . S
C1626 H1651 0.950 . S
C1627 C1626 1.349 . S
C1627 C1643 1.349 . S
C1628 C1626 1.327 . S
C1628 C1647 1.429 . S
C1628 H1652 0.950 . S
C1629 C1646 1.574 . S
C1629 C1648 1.368 . S
C1629 H1653 0.949 . S
H1630 C1634 0.949 . S
C1631 C1632 1.349 . S
C1631 C1633 1.327 . S
C1631 H1654 0.950 . S
C1632 C1631 1.349 . S
C1632 C1644 1.349 . S
C1633 C1631 1.327 . S
C1633 C1649 1.429 . S
C1633 H1655 0.950 . S
C1634 H1630 0.949 . S
C1634 C1642 1.574 . S
C1634 C1650 1.368 . S
H1635 C1643 0.950 . S
H1636 C1641 0.950 . S
H1637 C1642 0.949 . S
H1638 C1644 0.950 . S
H1639 C1645 0.950 . S
H1640 C1646 0.949 . S
C1641 H1636 0.950 . S
C1641 C1643 1.327 . S
C1641 C1647 1.429 . S
C1642 C1634 1.574 . S
C1642 H1637 0.949 . S
C1642 C1648 1.368 . S
C1643 C1627 1.349 . S
C1643 H1635 0.950 . S
C1643 C1641 1.327 . S
C1644 C1632 1.349 . S
C1644 H1638 0.950 . S
C1644 C1645 1.327 . S
C1645 H1639 0.950 . S
C1645 C1644 1.327 . S
C1645 C1649 1.429 . S
C1646 C1629 1.574 . S
C1646 H1640 0.949 . S
C1646 C1650 1.368 . S
C1647 C1628 1.429 . S
C1647 C1641 1.429 . S
C1647 C1648 1.523 . S
C1648 C1629 1.368 . S
C1648 C1642 1.368 . S
C1648 C1647 1.523 . S
C1649 C1633 1.429 . S
C1649 C1645 1.429 . S
C1649 C1650 1.523 . S
C1650 C1634 1.368 . S
C1650 C1646 1.368 . S
C1650 C1649 1.523 . S
H1651 C1626 0.950 . S
H1652 C1628 0.950 . S
H1653 C1629 0.949 . S
H1654 C1631 0.950 . S
H1655 C1633 0.950 . S
C1656 C1657 1.349 . S
C1656 C1658 1.327 . S
C1656 H1681 0.950 . S
C1657 C1656 1.349 . S
C1657 C1673 1.349 . S
C1658 C1656 1.327 . S
C1658 C1677 1.429 . S
C1658 H1682 0.950 . S
C1659 C1676 1.574 . S
C1659 C1678 1.368 . S
C1659 H1683 0.949 . S
H1660 C1664 0.949 . S
C1661 C1662 1.349 . S
C1661 C1663 1.327 . S
C1661 H1684 0.950 . S
C1662 C1661 1.349 . S
C1662 C1674 1.349 . S
C1663 C1661 1.327 . S
C1663 C1679 1.429 . S
C1663 H1685 0.950 . S
C1664 H1660 0.949 . S
C1664 C1672 1.574 . S
C1664 C1680 1.368 . S
H1665 C1673 0.950 . S
H1666 C1671 0.950 . S
H1667 C1672 0.949 . S
H1668 C1674 0.950 . S
H1669 C1675 0.950 . S
H1670 C1676 0.949 . S
C1671 H1666 0.950 . S
C1671 C1673 1.327 . S
C1671 C1677 1.429 . S
C1672 C1664 1.574 . S
C1672 H1667 0.949 . S
C1672 C1678 1.368 . S
C1673 C1657 1.349 . S
C1673 H1665 0.950 . S
C1673 C1671 1.327 . S
C1674 C1662 1.349 . S
C1674 H1668 0.950 . S
C1674 C1675 1.327 . S
C1675 H1669 0.950 . S
C1675 C1674 1.327 . S
C1675 C1679 1.429 . S
C1676 C1659 1.574 . S
C1676 H1670 0.949 . S
C1676 C1680 1.368 . S
C1677 C1658 1.429 . S
C1677 C1671 1.429 . S
C1677 C1678 1.523 . S
C1678 C1659 1.368 . S
C1678 C1672 1.368 . S
C1678 C1677 1.523 . S
C1679 C1663 1.429 . S
C1679 C1675 1.429 . S
C1679 C1680 1.523 . S
C1680 C1664 1.368 . S
C1680 C1676 1.368 . S
C1680 C1679 1.523 . S
H1681 C1656 0.950 . S
H1682 C1658 0.950 . S
H1683 C1659 0.949 . S
H1684 C1661 0.950 . S
H1685 C1663 0.950 . S
C1686 C1687 1.349 . S
C1686 C1688 1.327 . S
C1686 H1711 0.950 . S
C1687 C1686 1.349 . S
C1687 C1703 1.349 . S
C1688 C1686 1.327 . S
C1688 C1707 1.429 . S
C1688 H1712 0.950 . S
C1689 C1706 1.574 . S
C1689 C1708 1.368 . S
C1689 H1713 0.949 . S
H1690 C1694 0.949 . S
C1691 C1692 1.349 . S
C1691 C1693 1.327 . S
C1691 H1714 0.950 . S
C1692 C1691 1.349 . S
C1692 C1704 1.349 . S
C1693 C1691 1.327 . S
C1693 C1709 1.429 . S
C1693 H1715 0.950 . S
C1694 H1690 0.949 . S
C1694 C1702 1.574 . S
C1694 C1710 1.368 . S
H1695 C1703 0.950 . S
H1696 C1701 0.950 . S
H1697 C1702 0.949 . S
H1698 C1704 0.950 . S
H1699 C1705 0.950 . S
H1700 C1706 0.949 . S
C1701 H1696 0.950 . S
C1701 C1703 1.327 . S
C1701 C1707 1.429 . S
C1702 C1694 1.574 . S
C1702 H1697 0.949 . S
C1702 C1708 1.368 . S
C1703 C1687 1.349 . S
C1703 H1695 0.950 . S
C1703 C1701 1.327 . S
C1704 C1692 1.349 . S
C1704 H1698 0.950 . S
C1704 C1705 1.327 . S
C1705 H1699 0.950 . S
C1705 C1704 1.327 . S
C1705 C1709 1.429 . S
C1706 C1689 1.574 . S
C1706 H1700 0.949 . S
C1706 C1710 1.368 . S
C1707 C1688 1.429 . S
C1707 C1701 1.429 . S
C1707 C1708 1.523 . S
C1708 C1689 1.368 . S
C1708 C1702 1.368 . S
C1708 C1707 1.523 . S
C1709 C1693 1.429 . S
C1709 C1705 1.429 . S
C1709 C1710 1.523 . S
C1710 C1694 1.368 . S
C1710 C1706 1.368 . S
C1710 C1709 1.523 . S
H1711 C1686 0.950 . S
H1712 C1688 0.950 . S
H1713 C1689 0.949 . S
H1714 C1691 0.950 . S
H1715 C1693 0.950 . S
C1716 C1717 1.349 . S
C1716 C1718 1.327 . S
C1716 H1741 0.950 . S
C1717 C1716 1.349 . S
C1717 C1733 1.349 . S
C1718 C1716 1.327 . S
C1718 C1737 1.429 . S
C1718 H1742 0.950 . S
C1719 C1736 1.574 . S
C1719 C1738 1.368 . S
C1719 H1743 0.949 . S
H1720 C1724 0.949 . S
C1721 C1722 1.349 . S
C1721 C1723 1.327 . S
C1721 H1744 0.950 . S
C1722 C1721 1.349 . S
C1722 C1734 1.349 . S
C1723 C1721 1.327 . S
C1723 C1739 1.429 . S
C1723 H1745 0.950 . S
C1724 H1720 0.949 . S
C1724 C1732 1.574 . S
C1724 C1740 1.368 . S
H1725 C1733 0.950 . S
H1726 C1731 0.950 . S
H1727 C1732 0.949 . S
H1728 C1734 0.950 . S
H1729 C1735 0.950 . S
H1730 C1736 0.949 . S
C1731 H1726 0.950 . S
C1731 C1733 1.327 . S
C1731 C1737 1.429 . S
C1732 C1724 1.574 . S
C1732 H1727 0.949 . S
C1732 C1738 1.368 . S
C1733 C1717 1.349 . S
C1733 H1725 0.950 . S
C1733 C1731 1.327 . S
C1734 C1722 1.349 . S
C1734 H1728 0.950 . S
C1734 C1735 1.327 . S
C1735 H1729 0.950 . S
C1735 C1734 1.327 . S
C1735 C1739 1.429 . S
C1736 C1719 1.574 . S
C1736 H1730 0.949 . S
C1736 C1740 1.368 . S
C1737 C1718 1.429 . S
C1737 C1731 1.429 . S
C1737 C1738 1.523 . S
C1738 C1719 1.368 . S
C1738 C1732 1.368 . S
C1738 C1737 1.523 . S
C1739 C1723 1.429 . S
C1739 C1735 1.429 . S
C1739 C1740 1.523 . S
C1740 C1724 1.368 . S
C1740 C1736 1.368 . S
C1740 C1739 1.523 . S
H1741 C1716 0.950 . S
H1742 C1718 0.950 . S
H1743 C1719 0.949 . S
H1744 C1721 0.950 . S
H1745 C1723 0.950 . S
C1746 C1747 1.349 . S
C1746 C1748 1.327 . S
C1746 H1771 0.950 . S
C1747 C1746 1.349 . S
C1747 C1763 1.349 . S
C1748 C1746 1.327 . S
C1748 C1767 1.429 . S
C1748 H1772 0.950 . S
C1749 C1766 1.574 . S
C1749 C1768 1.368 . S
C1749 H1773 0.949 . S
H1750 C1754 0.949 . S
C1751 C1752 1.349 . S
C1751 C1753 1.327 . S
C1751 H1774 0.950 . S
C1752 C1751 1.349 . S
C1752 C1764 1.349 . S
C1753 C1751 1.327 . S
C1753 C1769 1.429 . S
C1753 H1775 0.950 . S
C1754 H1750 0.949 . S
C1754 C1762 1.574 . S
C1754 C1770 1.368 . S
H1755 C1763 0.950 . S
H1756 C1761 0.950 . S
H1757 C1762 0.949 . S
H1758 C1764 0.950 . S
H1759 C1765 0.950 . S
H1760 C1766 0.949 . S
C1761 H1756 0.950 . S
C1761 C1763 1.327 . S
C1761 C1767 1.429 . S
C1762 C1754 1.574 . S
C1762 H1757 0.949 . S
C1762 C1768 1.368 . S
C1763 C1747 1.349 . S
C1763 H1755 0.950 . S
C1763 C1761 1.327 . S
C1764 C1752 1.349 . S
C1764 H1758 0.950 . S
C1764 C1765 1.327 . S
C1765 H1759 0.950 . S
C1765 C1764 1.327 . S
C1765 C1769 1.429 . S
C1766 C1749 1.574 . S
C1766 H1760 0.949 . S
C1766 C1770 1.368 . S
C1767 C1748 1.429 . S
C1767 C1761 1.429 . S
C1767 C1768 1.523 . S
C1768 C1749 1.368 . S
C1768 C1762 1.368 . S
C1768 C1767 1.523 . S
C1769 C1753 1.429 . S
C1769 C1765 1.429 . S
C1769 C1770 1.523 . S
C1770 C1754 1.368 . S
C1770 C1766 1.368 . S
C1770 C1769 1.523 . S
H1771 C1746 0.950 . S
H1772 C1748 0.950 . S
H1773 C1749 0.949 . S
H1774 C1751 0.950 . S
H1775 C1753 0.950 . S
C1776 C1777 1.349 . S
C1776 C1778 1.327 . S
C1776 H1801 0.950 . S
C1777 C1776 1.349 . S
C1777 C1793 1.349 . S
C1778 C1776 1.327 . S
C1778 C1797 1.429 . S
C1778 H1802 0.950 . S
C1779 C1796 1.574 . S
C1779 C1798 1.368 . S
C1779 H1803 0.949 . S
H1780 C1784 0.949 . S
C1781 C1782 1.349 . S
C1781 C1783 1.327 . S
C1781 H1804 0.950 . S
C1782 C1781 1.349 . S
C1782 C1794 1.349 . S
C1783 C1781 1.327 . S
C1783 C1799 1.429 . S
C1783 H1805 0.950 . S
C1784 H1780 0.949 . S
C1784 C1792 1.574 . S
C1784 C1800 1.368 . S
H1785 C1793 0.950 . S
H1786 C1791 0.950 . S
H1787 C1792 0.949 . S
H1788 C1794 0.950 . S
H1789 C1795 0.950 . S
H1790 C1796 0.949 . S
C1791 H1786 0.950 . S
C1791 C1793 1.327 . S
C1791 C1797 1.429 . S
C1792 C1784 1.574 . S
C1792 H1787 0.949 . S
C1792 C1798 1.368 . S
C1793 C1777 1.349 . S
C1793 H1785 0.950 . S
C1793 C1791 1.327 . S
C1794 C1782 1.349 . S
C1794 H1788 0.950 . S
C1794 C1795 1.327 . S
C1795 H1789 0.950 . S
C1795 C1794 1.327 . S
C1795 C1799 1.429 . S
C1796 C1779 1.574 . S
C1796 H1790 0.949 . S
C1796 C1800 1.368 . S
C1797 C1778 1.429 . S
C1797 C1791 1.429 . S
C1797 C1798 1.523 . S
C1798 C1779 1.368 . S
C1798 C1792 1.368 . S
C1798 C1797 1.523 . S
C1799 C1783 1.429 . S
C1799 C1795 1.429 . S
C1799 C1800 1.523 . S
C1800 C1784 1.368 . S
C1800 C1796 1.368 . S
C1800 C1799 1.523 . S
H1801 C1776 0.950 . S
H1802 C1778 0.950 . S
H1803 C1779 0.949 . S
H1804 C1781 0.950 . S
H1805 C1783 0.950 . S
C1806 C1807 1.349 . S
C1806 C1808 1.327 . S
C1806 H1831 0.950 . S
C1807 C1806 1.349 . S
C1807 C1823 1.349 . S
C1808 C1806 1.327 . S
C1808 C1827 1.429 . S
C1808 H1832 0.950 . S
C1809 C1826 1.574 . S
C1809 C1828 1.368 . S
C1809 H1833 0.949 . S
H1810 C1814 0.949 . S
C1811 C1812 1.349 . S
C1811 C1813 1.327 . S
C1811 H1834 0.950 . S
C1812 C1811 1.349 . S
C1812 C1824 1.349 . S
C1813 C1811 1.327 . S
C1813 C1829 1.429 . S
C1813 H1835 0.950 . S
C1814 H1810 0.949 . S
C1814 C1822 1.574 . S
C1814 C1830 1.368 . S
H1815 C1823 0.950 . S
H1816 C1821 0.950 . S
H1817 C1822 0.949 . S
H1818 C1824 0.950 . S
H1819 C1825 0.950 . S
H1820 C1826 0.949 . S
C1821 H1816 0.950 . S
C1821 C1823 1.327 . S
C1821 C1827 1.429 . S
C1822 C1814 1.574 . S
C1822 H1817 0.949 . S
C1822 C1828 1.368 . S
C1823 C1807 1.349 . S
C1823 H1815 0.950 . S
C1823 C1821 1.327 . S
C1824 C1812 1.349 . S
C1824 H1818 0.950 . S
C1824 C1825 1.327 . S
C1825 H1819 0.950 . S
C1825 C1824 1.327 . S
C1825 C1829 1.429 . S
C1826 C1809 1.574 . S
C1826 H1820 0.949 . S
C1826 C1830 1.368 . S
C1827 C1808 1.429 . S
C1827 C1821 1.429 . S
C1827 C1828 1.523 . S
C1828 C1809 1.368 . S
C1828 C1822 1.368 . S
C1828 C1827 1.523 . S
C1829 C1813 1.429 . S
C1829 C1825 1.429 . S
C1829 C1830 1.523 . S
C1830 C1814 1.368 . S
C1830 C1826 1.368 . S
C1830 C1829 1.523 . S
H1831 C1806 0.950 . S
H1832 C1808 0.950 . S
H1833 C1809 0.949 . S
H1834 C1811 0.950 . S
H1835 C1813 0.950 . S
C1836 C1837 1.349 . S
C1836 C1838 1.327 . S
C1836 H1861 0.950 . S
C1837 C1836 1.349 . S
C1837 C1853 1.349 . S
C1838 C1836 1.327 . S
C1838 C1857 1.429 . S
C1838 H1862 0.950 . S
C1839 C1856 1.574 . S
C1839 C1858 1.368 . S
C1839 H1863 0.949 . S
H1840 C1844 0.949 . S
C1841 C1842 1.349 . S
C1841 C1843 1.327 . S
C1841 H1864 0.950 . S
C1842 C1841 1.349 . S
C1842 C1854 1.349 . S
C1843 C1841 1.327 . S
C1843 C1859 1.429 . S
C1843 H1865 0.950 . S
C1844 H1840 0.949 . S
C1844 C1852 1.574 . S
C1844 C1860 1.368 . S
H1845 C1853 0.950 . S
H1846 C1851 0.950 . S
H1847 C1852 0.949 . S
H1848 C1854 0.950 . S
H1849 C1855 0.950 . S
H1850 C1856 0.949 . S
C1851 H1846 0.950 . S
C1851 C1853 1.327 . S
C1851 C1857 1.429 . S
C1852 C1844 1.574 . S
C1852 H1847 0.949 . S
C1852 C1858 1.368 . S
C1853 C1837 1.349 . S
C1853 H1845 0.950 . S
C1853 C1851 1.327 . S
C1854 C1842 1.349 . S
C1854 H1848 0.950 . S
C1854 C1855 1.327 . S
C1855 H1849 0.950 . S
C1855 C1854 1.327 . S
C1855 C1859 1.429 . S
C1856 C1839 1.574 . S
C1856 H1850 0.949 . S
C1856 C1860 1.368 . S
C1857 C1838 1.429 . S
C1857 C1851 1.429 . S
C1857 C1858 1.523 . S
C1858 C1839 1.368 . S
C1858 C1852 1.368 . S
C1858 C1857 1.523 . S
C1859 C1843 1.429 . S
C1859 C1855 1.429 . S
C1859 C1860 1.523 . S
C1860 C1844 1.368 . S
C1860 C1856 1.368 . S
C1860 C1859 1.523 . S
H1861 C1836 0.950 . S
H1862 C1838 0.950 . S
H1863 C1839 0.949 . S
H1864 C1841 0.950 . S
H1865 C1843 0.950 . S
C1866 C1867 1.349 . S
C1866 C1868 1.327 . S
C1866 H1891 0.950 . S
C1867 C1866 1.349 . S
C1867 C1883 1.349 . S
C1868 C1866 1.327 . S
C1868 C1887 1.429 . S
C1868 H1892 0.950 . S
C1869 C1886 1.574 . S
C1869 C1888 1.368 . S
C1869 H1893 0.949 . S
H1870 C1874 0.949 . S
C1871 C1872 1.349 . S
C1871 C1873 1.327 . S
C1871 H1894 0.950 . S
C1872 C1871 1.349 . S
C1872 C1884 1.349 . S
C1873 C1871 1.327 . S
C1873 C1889 1.429 . S
C1873 H1895 0.950 . S
C1874 H1870 0.949 . S
C1874 C1882 1.574 . S
C1874 C1890 1.368 . S
H1875 C1883 0.950 . S
H1876 C1881 0.950 . S
H1877 C1882 0.949 . S
H1878 C1884 0.950 . S
H1879 C1885 0.950 . S
H1880 C1886 0.949 . S
C1881 H1876 0.950 . S
C1881 C1883 1.327 . S
C1881 C1887 1.429 . S
C1882 C1874 1.574 . S
C1882 H1877 0.949 . S
C1882 C1888 1.368 . S
C1883 C1867 1.349 . S
C1883 H1875 0.950 . S
C1883 C1881 1.327 . S
C1884 C1872 1.349 . S
C1884 H1878 0.950 . S
C1884 C1885 1.327 . S
C1885 H1879 0.950 . S
C1885 C1884 1.327 . S
C1885 C1889 1.429 . S
C1886 C1869 1.574 . S
C1886 H1880 0.949 . S
C1886 C1890 1.368 . S
C1887 C1868 1.429 . S
C1887 C1881 1.429 . S
C1887 C1888 1.523 . S
C1888 C1869 1.368 . S
C1888 C1882 1.368 . S
C1888 C1887 1.523 . S
C1889 C1873 1.429 . S
C1889 C1885 1.429 . S
C1889 C1890 1.523 . S
C1890 C1874 1.368 . S
C1890 C1886 1.368 . S
C1890 C1889 1.523 . S
H1891 C1866 0.950 . S
H1892 C1868 0.950 . S
H1893 C1869 0.949 . S
H1894 C1871 0.950 . S
H1895 C1873 0.950 . S
C1896 C1897 1.349 . S
C1896 C1898 1.327 . S
C1896 H1921 0.950 . S
C1897 C1896 1.349 . S
C1897 C1913 1.349 . S
C1898 C1896 1.327 . S
C1898 C1917 1.429 . S
C1898 H1922 0.950 . S
C1899 C1916 1.574 . S
C1899 C1918 1.368 . S
C1899 H1923 0.949 . S
H1900 C1904 0.949 . S
C1901 C1902 1.349 . S
C1901 C1903 1.327 . S
C1901 H1924 0.950 . S
C1902 C1901 1.349 . S
C1902 C1914 1.349 . S
C1903 C1901 1.327 . S
C1903 C1919 1.429 . S
C1903 H1925 0.950 . S
C1904 H1900 0.949 . S
C1904 C1912 1.574 . S
C1904 C1920 1.368 . S
H1905 C1913 0.950 . S
H1906 C1911 0.950 . S
H1907 C1912 0.949 . S
H1908 C1914 0.950 . S
H1909 C1915 0.950 . S
H1910 C1916 0.949 . S
C1911 H1906 0.950 . S
C1911 C1913 1.327 . S
C1911 C1917 1.429 . S
C1912 C1904 1.574 . S
C1912 H1907 0.949 . S
C1912 C1918 1.368 . S
C1913 C1897 1.349 . S
C1913 H1905 0.950 . S
C1913 C1911 1.327 . S
C1914 C1902 1.349 . S
C1914 H1908 0.950 . S
C1914 C1915 1.327 . S
C1915 H1909 0.950 . S
C1915 C1914 1.327 . S
C1915 C1919 1.429 . S
C1916 C1899 1.574 . S
C1916 H1910 0.949 . S
C1916 C1920 1.368 . S
C1917 C1898 1.429 . S
C1917 C1911 1.429 . S
C1917 C1918 1.523 . S
C1918 C1899 1.368 . S
C1918 C1912 1.368 . S
C1918 C1917 1.523 . S
C1919 C1903 1.429 . S
C1919 C1915 1.429 . S
C1919 C1920 1.523 . S
C1920 C1904 1.368 . S
C1920 C1916 1.368 . S
C1920 C1919 1.523 . S
H1921 C1896 0.950 . S
H1922 C1898 0.950 . S
H1923 C1899 0.949 . S
H1924 C1901 0.950 . S
H1925 C1903 0.950 . S
C1926 C1927 1.349 . S
C1926 C1928 1.327 . S
C1926 H1951 0.950 . S
C1927 C1926 1.349 . S
C1927 C1943 1.349 . S
C1928 C1926 1.327 . S
C1928 C1947 1.429 . S
C1928 H1952 0.950 . S
C1929 C1946 1.574 . S
C1929 C1948 1.368 . S
C1929 H1953 0.949 . S
H1930 C1934 0.949 . S
C1931 C1932 1.349 . S
C1931 C1933 1.327 . S
C1931 H1954 0.950 . S
C1932 C1931 1.349 . S
C1932 C1944 1.349 . S
C1933 C1931 1.327 . S
C1933 C1949 1.429 . S
C1933 H1955 0.950 . S
C1934 H1930 0.949 . S
C1934 C1942 1.574 . S
C1934 C1950 1.368 . S
H1935 C1943 0.950 . S
H1936 C1941 0.950 . S
H1937 C1942 0.949 . S
H1938 C1944 0.950 . S
H1939 C1945 0.950 . S
H1940 C1946 0.949 . S
C1941 H1936 0.950 . S
C1941 C1943 1.327 . S
C1941 C1947 1.429 . S
C1942 C1934 1.574 . S
C1942 H1937 0.949 . S
C1942 C1948 1.368 . S
C1943 C1927 1.349 . S
C1943 H1935 0.950 . S
C1943 C1941 1.327 . S
C1944 C1932 1.349 . S
C1944 H1938 0.950 . S
C1944 C1945 1.327 . S
C1945 H1939 0.950 . S
C1945 C1944 1.327 . S
C1945 C1949 1.429 . S
C1946 C1929 1.574 . S
C1946 H1940 0.949 . S
C1946 C1950 1.368 . S
C1947 C1928 1.429 . S
C1947 C1941 1.429 . S
C1947 C1948 1.523 . S
C1948 C1929 1.368 . S
C1948 C1942 1.368 . S
C1948 C1947 1.523 . S
C1949 C1933 1.429 . S
C1949 C1945 1.429 . S
C1949 C1950 1.523 . S
C1950 C1934 1.368 . S
C1950 C1946 1.368 . S
C1950 C1949 1.523 . S
H1951 C1926 0.950 . S
H1952 C1928 0.950 . S
H1953 C1929 0.949 . S
H1954 C1931 0.950 . S
H1955 C1933 0.950 . S
C1956 C1957 1.349 . S
C1956 C1958 1.327 . S
C1956 H1981 0.950 . S
C1957 C1956 1.349 . S
C1957 C1973 1.349 . S
C1958 C1956 1.327 . S
C1958 C1977 1.429 . S
C1958 H1982 0.950 . S
C1959 C1976 1.574 . S
C1959 C1978 1.368 . S
C1959 H1983 0.949 . S
H1960 C1964 0.949 . S
C1961 C1962 1.349 . S
C1961 C1963 1.327 . S
C1961 H1984 0.950 . S
C1962 C1961 1.349 . S
C1962 C1974 1.349 . S
C1963 C1961 1.327 . S
C1963 C1979 1.429 . S
C1963 H1985 0.950 . S
C1964 H1960 0.949 . S
C1964 C1972 1.574 . S
C1964 C1980 1.368 . S
H1965 C1973 0.950 . S
H1966 C1971 0.950 . S
H1967 C1972 0.949 . S
H1968 C1974 0.950 . S
H1969 C1975 0.950 . S
H1970 C1976 0.949 . S
C1971 H1966 0.950 . S
C1971 C1973 1.327 . S
C1971 C1977 1.429 . S
C1972 C1964 1.574 . S
C1972 H1967 0.949 . S
C1972 C1978 1.368 . S
C1973 C1957 1.349 . S
C1973 H1965 0.950 . S
C1973 C1971 1.327 . S
C1974 C1962 1.349 . S
C1974 H1968 0.950 . S
C1974 C1975 1.327 . S
C1975 H1969 0.950 . S
C1975 C1974 1.327 . S
C1975 C1979 1.429 . S
C1976 C1959 1.574 . S
C1976 H1970 0.949 . S
C1976 C1980 1.368 . S
C1977 C1958 1.429 . S
C1977 C1971 1.429 . S
C1977 C1978 1.523 . S
C1978 C1959 1.368 . S
C1978 C1972 1.368 . S
C1978 C1977 1.523 . S
C1979 C1963 1.429 . S
C1979 C1975 1.429 . S
C1979 C1980 1.523 . S
C1980 C1964 1.368 . S
C1980 C1976 1.368 . S
C1980 C1979 1.523 . S
H1981 C1956 0.950 . S
H1982 C1958 0.950 . S
H1983 C1959 0.949 . S
H1984 C1961 0.950 . S
H1985 C1963 0.950 . S
C1986 C1987 1.349 . S
C1986 C1988 1.327 . S
C1986 H2011 0.950 . S
C1987 C1986 1.349 . S
C1987 C2003 1.349 . S
C1988 C1986 1.327 . S
C1988 C2007 1.429 . S
C1988 H2012 0.950 . S
C1989 C2006 1.574 . S
C1989 C2008 1.368 . S
C1989 H2013 0.949 . S
H1990 C1994 0.949 . S
C1991 C1992 1.349 . S
C1991 C1993 1.327 . S
C1991 H2014 0.950 . S
C1992 C1991 1.349 . S
C1992 C2004 1.349 . S
C1993 C1991 1.327 . S
C1993 C2009 1.429 . S
C1993 H2015 0.950 . S
C1994 H1990 0.949 . S
C1994 C2002 1.574 . S
C1994 C2010 1.368 . S
H1995 C2003 0.950 . S
H1996 C2001 0.950 . S
H1997 C2002 0.949 . S
H1998 C2004 0.950 . S
H1999 C2005 0.950 . S
H2000 C2006 0.949 . S
C2001 H1996 0.950 . S
C2001 C2003 1.327 . S
C2001 C2007 1.429 . S
C2002 C1994 1.574 . S
C2002 H1997 0.949 . S
C2002 C2008 1.368 . S
C2003 C1987 1.349 . S
C2003 H1995 0.950 . S
C2003 C2001 1.327 . S
C2004 C1992 1.349 . S
C2004 H1998 0.950 . S
C2004 C2005 1.327 . S
C2005 H1999 0.950 . S
C2005 C2004 1.327 . S
C2005 C2009 1.429 . S
C2006 C1989 1.574 . S
C2006 H2000 0.949 . S
C2006 C2010 1.368 . S
C2007 C1988 1.429 . S
C2007 C2001 1.429 . S
C2007 C2008 1.523 . S
C2008 C1989 1.368 . S
C2008 C2002 1.368 . S
C2008 C2007 1.523 . S
C2009 C1993 1.429 . S
C2009 C2005 1.429 . S
C2009 C2010 1.523 . S
C2010 C1994 1.368 . S
C2010 C2006 1.368 . S
C2010 C2009 1.523 . S
H2011 C1986 0.950 . S
H2012 C1988 0.950 . S
H2013 C1989 0.949 . S
H2014 C1991 0.950 . S
H2015 C1993 0.950 . S
C2016 C2017 1.349 . S
C2016 C2018 1.334 . S
C2016 H2041 0.959 . S
C2017 C2016 1.349 . S
C2017 C2033 1.349 . S
C2018 C2016 1.334 . S
C2018 C2037 1.436 . S
C2018 H2042 0.937 1_655 S
C2019 C2036 1.483 1_565 S
C2019 C2038 1.449 . S
C2019 H2043 0.965 . S
H2020 C2024 0.965 . S
C2021 C2022 1.349 . S
C2021 C2023 1.332 . S
C2021 H2044 0.956 . S
C2022 C2021 1.349 . S
C2022 C2034 1.349 . S
C2023 C2021 1.332 . S
C2023 C2039 1.434 . S
C2023 H2045 0.943 1_455 S
C2024 H2020 0.965 . S
C2024 C2032 1.483 1_545 S
C2024 C2040 1.458 . S
H2025 C2033 0.950 . S
H2026 C2031 0.950 . S
H2027 C2032 0.949 . S
H2028 C2034 0.950 . S
H2029 C2035 0.950 . S
H2030 C2036 0.949 . S
C2031 H2026 0.950 . S
C2031 C2033 1.327 . S
C2031 C2037 1.429 . S
C2032 C2024 1.483 1_565 S
C2032 H2027 0.949 . S
C2032 C2038 1.368 1_455 S
C2033 C2017 1.349 . S
C2033 H2025 0.950 . S
C2033 C2031 1.327 . S
C2034 C2022 1.349 . S
C2034 H2028 0.950 . S
C2034 C2035 1.327 . S
C2035 H2029 0.950 . S
C2035 C2034 1.327 . S
C2035 C2039 1.429 . S
C2036 C2019 1.483 1_545 S
C2036 H2030 0.949 . S
C2036 C2040 1.359 1_655 S
C2037 C2018 1.436 . S
C2037 C2031 1.429 . S
C2037 C2038 1.523 . S
C2038 C2019 1.449 . S
C2038 C2032 1.368 1_655 S
C2038 C2037 1.523 . S
C2039 C2023 1.434 . S
C2039 C2035 1.429 . S
C2039 C2040 1.529 . S
C2040 C2024 1.458 . S
C2040 C2036 1.359 1_455 S
C2040 C2039 1.529 . S
H2041 C2016 0.959 . S
H2042 C2018 0.937 1_455 S
H2043 C2019 0.965 . S
H2044 C2021 0.956 . S
H2045 C2023 0.943 1_655 S
C2046 C2047 1.349 . S
C2046 C2048 1.327 . S
C2046 H2071 0.950 . S
C2047 C2046 1.349 . S
C2047 C2063 1.349 . S
C2048 C2046 1.327 . S
C2048 C2067 1.429 . S
C2048 H2072 0.950 . S
C2049 C2066 1.574 . S
C2049 C2068 1.368 . S
C2049 H2073 0.949 . S
H2050 C2054 0.949 . S
C2051 C2052 1.349 . S
C2051 C2053 1.327 . S
C2051 H2074 0.950 . S
C2052 C2051 1.349 . S
C2052 C2064 1.349 . S
C2053 C2051 1.327 . S
C2053 C2069 1.429 . S
C2053 H2075 0.950 . S
C2054 H2050 0.949 . S
C2054 C2062 1.574 . S
C2054 C2070 1.368 . S
H2055 C2063 0.950 . S
H2056 C2061 0.950 . S
H2057 C2062 0.949 . S
H2058 C2064 0.950 . S
H2059 C2065 0.950 . S
H2060 C2066 0.949 . S
C2061 H2056 0.950 . S
C2061 C2063 1.327 . S
C2061 C2067 1.429 . S
C2062 C2054 1.574 . S
C2062 H2057 0.949 . S
C2062 C2068 1.368 . S
C2063 C2047 1.349 . S
C2063 H2055 0.950 . S
C2063 C2061 1.327 . S
C2064 C2052 1.349 . S
C2064 H2058 0.950 . S
C2064 C2065 1.327 . S
C2065 H2059 0.950 . S
C2065 C2064 1.327 . S
C2065 C2069 1.429 . S
C2066 C2049 1.574 . S
C2066 H2060 0.949 . S
C2066 C2070 1.368 . S
C2067 C2048 1.429 . S
C2067 C2061 1.429 . S
C2067 C2068 1.523 . S
C2068 C2049 1.368 . S
C2068 C2062 1.368 . S
C2068 C2067 1.523 . S
C2069 C2053 1.429 . S
C2069 C2065 1.429 . S
C2069 C2070 1.523 . S
C2070 C2054 1.368 . S
C2070 C2066 1.368 . S
C2070 C2069 1.523 . S
H2071 C2046 0.950 . S
H2072 C2048 0.950 . S
H2073 C2049 0.949 . S
H2074 C2051 0.950 . S
H2075 C2053 0.950 . S
C2076 C2077 1.349 1_455 S
C2076 C2078 1.327 . S
C2076 H2101 0.950 . S
C2077 C2076 1.349 1_655 S
C2077 C2093 1.349 . S
C2078 C2076 1.327 . S
C2078 C2097 1.429 1_455 S
C2078 H2102 0.950 . S
C2079 C2096 1.574 . S
C2079 C2098 1.368 . S
C2079 H2103 0.949 . S
H2080 C2084 0.949 . S
C2081 C2082 1.349 1_655 S
C2081 C2083 1.327 . S
C2081 H2104 0.950 . S
C2082 C2081 1.349 1_455 S
C2082 C2094 1.349 . S
C2083 C2081 1.327 . S
C2083 C2099 1.429 1_655 S
C2083 H2105 0.950 . S
C2084 H2080 0.949 . S
C2084 C2092 1.574 . S
C2084 C2100 1.407 . S
H2085 C2093 0.950 . S
H2086 C2091 0.950 . S
H2087 C2092 0.949 . S
H2088 C2094 0.950 . S
H2089 C2095 0.950 . S
H2090 C2096 0.949 . S
C2091 H2086 0.950 . S
C2091 C2093 1.327 . S
C2091 C2097 1.429 . S
C2092 C2084 1.574 . S
C2092 H2087 0.949 . S
C2092 C2098 1.368 1_455 S
C2093 C2077 1.349 . S
C2093 H2085 0.950 . S
C2093 C2091 1.327 . S
C2094 C2082 1.349 . S
C2094 H2088 0.950 . S
C2094 C2095 1.327 . S
C2095 H2089 0.950 . S
C2095 C2094 1.327 . S
C2095 C2099 1.429 . S
C2096 C2079 1.574 . S
C2096 H2090 0.949 . S
C2096 C2100 1.328 1_655 S
C2097 C2078 1.429 1_655 S
C2097 C2091 1.429 . S
C2097 C2098 1.523 . S
C2098 C2079 1.368 . S
C2098 C2092 1.368 1_655 S
C2098 C2097 1.523 . S
C2099 C2083 1.429 1_455 S
C2099 C2095 1.429 . S
C2099 C2100 1.529 . S
C2100 C2084 1.407 . S
C2100 C2096 1.328 1_455 S
C2100 C2099 1.529 . S
H2101 C2076 0.950 . S
H2102 C2078 0.950 . S
H2103 C2079 0.949 . S
H2104 C2081 0.950 . S
H2105 C2083 0.950 . S
C2106 C2107 1.349 . S
C2106 C2108 1.327 . S
C2106 H2131 0.950 . S
C2107 C2106 1.349 . S
C2107 C2123 1.349 . S
C2108 C2106 1.327 . S
C2108 C2127 1.429 . S
C2108 H2132 0.950 . S
C2109 C2126 1.574 1_565 S
C2109 C2128 1.368 . S
C2109 H2133 0.949 . S
H2110 C2114 0.949 . S
C2111 C2112 1.349 . S
C2111 C2113 1.327 . S
C2111 H2134 0.950 . S
C2112 C2111 1.349 . S
C2112 C2124 1.349 . S
C2113 C2111 1.327 . S
C2113 C2129 1.429 . S
C2113 H2135 0.950 . S
C2114 H2110 0.949 . S
C2114 C2122 1.574 1_545 S
C2114 C2130 1.368 . S
H2115 C2123 0.950 . S
H2116 C2121 0.950 . S
H2117 C2122 0.949 . S
H2118 C2124 0.950 . S
H2119 C2125 0.950 . S
H2120 C2126 0.949 . S
C2121 H2116 0.950 . S
C2121 C2123 1.327 . S
C2121 C2127 1.429 . S
C2122 C2114 1.574 1_565 S
C2122 H2117 0.949 . S
C2122 C2128 1.368 . S
C2123 C2107 1.349 . S
C2123 H2115 0.950 . S
C2123 C2121 1.327 . S
C2124 C2112 1.349 . S
C2124 H2118 0.950 . S
C2124 C2125 1.327 . S
C2125 H2119 0.950 . S
C2125 C2124 1.327 . S
C2125 C2129 1.429 . S
C2126 C2109 1.574 1_545 S
C2126 H2120 0.949 . S
C2126 C2130 1.368 . S
C2127 C2108 1.429 . S
C2127 C2121 1.429 . S
C2127 C2128 1.523 . S
C2128 C2109 1.368 . S
C2128 C2122 1.368 . S
C2128 C2127 1.523 . S
C2129 C2113 1.429 . S
C2129 C2125 1.429 . S
C2129 C2130 1.523 . S
C2130 C2114 1.368 . S
C2130 C2126 1.368 . S
C2130 C2129 1.523 . S
H2131 C2106 0.950 . S
H2132 C2108 0.950 . S
H2133 C2109 0.949 . S
H2134 C2111 0.950 . S
H2135 C2113 0.950 . S
C2136 C2137 1.349 . S
C2136 C2138 1.327 . S
C2136 H2161 0.950 . S
C2137 C2136 1.349 . S
C2137 C2153 1.349 . S
C2138 C2136 1.327 . S
C2138 C2157 1.429 . S
C2138 H2162 0.950 . S
C2139 C2156 1.574 . S
C2139 C2158 1.368 . S
C2139 H2163 0.949 . S
H2140 C2144 0.949 . S
C2141 C2142 1.349 . S
C2141 C2143 1.327 . S
C2141 H2164 0.950 . S
C2142 C2141 1.349 . S
C2142 C2154 1.349 . S
C2143 C2141 1.327 . S
C2143 C2159 1.429 . S
C2143 H2165 0.950 . S
C2144 H2140 0.949 . S
C2144 C2152 1.574 . S
C2144 C2160 1.368 . S
H2145 C2153 0.950 . S
H2146 C2151 0.950 . S
H2147 C2152 0.949 . S
H2148 C2154 0.950 . S
H2149 C2155 0.950 . S
H2150 C2156 0.949 . S
C2151 H2146 0.950 . S
C2151 C2153 1.327 . S
C2151 C2157 1.429 . S
C2152 C2144 1.574 . S
C2152 H2147 0.949 . S
C2152 C2158 1.368 . S
C2153 C2137 1.349 . S
C2153 H2145 0.950 . S
C2153 C2151 1.327 . S
C2154 C2142 1.349 . S
C2154 H2148 0.950 . S
C2154 C2155 1.327 . S
C2155 H2149 0.950 . S
C2155 C2154 1.327 . S
C2155 C2159 1.429 . S
C2156 C2139 1.574 . S
C2156 H2150 0.949 . S
C2156 C2160 1.368 . S
C2157 C2138 1.429 . S
C2157 C2151 1.429 . S
C2157 C2158 1.523 . S
C2158 C2139 1.368 . S
C2158 C2152 1.368 . S
C2158 C2157 1.523 . S
C2159 C2143 1.429 . S
C2159 C2155 1.429 . S
C2159 C2160 1.523 . S
C2160 C2144 1.368 . S
C2160 C2156 1.368 . S
C2160 C2159 1.523 . S
H2161 C2136 0.950 . S
H2162 C2138 0.950 . S
H2163 C2139 0.949 . S
H2164 C2141 0.950 . S
H2165 C2143 0.950 . S
C2166 C2167 1.349 1_655 S
C2166 C2168 1.327 . S
C2166 H2191 0.950 . S
C2167 C2166 1.349 1_455 S
C2167 C2183 1.349 . S
C2168 C2166 1.327 . S
C2168 C2187 1.429 1_655 S
C2168 H2192 0.950 . S
C2169 C2186 1.574 . S
C2169 C2188 1.368 . S
C2169 H2193 0.949 . S
H2170 C2174 0.949 . S
C2171 C2172 1.349 1_455 S
C2171 C2173 1.327 . S
C2171 H2194 0.950 . S
C2172 C2171 1.349 1_655 S
C2172 C2184 1.349 . S
C2173 C2171 1.327 . S
C2173 C2189 1.429 1_455 S
C2173 H2195 0.950 . S
C2174 H2170 0.949 . S
C2174 C2182 1.574 . S
C2174 C2190 1.406 . S
H2175 C2183 0.950 . S
H2176 C2181 0.950 . S
H2177 C2182 0.949 . S
H2178 C2184 0.950 . S
H2179 C2185 0.950 . S
H2180 C2186 0.949 . S
C2181 H2176 0.950 . S
C2181 C2183 1.327 . S
C2181 C2187 1.429 . S
C2182 C2174 1.574 . S
C2182 H2177 0.949 . S
C2182 C2188 1.368 1_655 S
C2183 C2167 1.349 . S
C2183 H2175 0.950 . S
C2183 C2181 1.327 . S
C2184 C2172 1.349 . S
C2184 H2178 0.950 . S
C2184 C2185 1.327 . S
C2185 H2179 0.950 . S
C2185 C2184 1.327 . S
C2185 C2189 1.429 . S
C2186 C2169 1.574 . S
C2186 H2180 0.949 . S
C2186 C2190 1.330 1_455 S
C2187 C2168 1.429 1_455 S
C2187 C2181 1.429 . S
C2187 C2188 1.523 . S
C2188 C2169 1.368 . S
C2188 C2182 1.368 1_455 S
C2188 C2187 1.523 . S
C2189 C2173 1.429 1_655 S
C2189 C2185 1.429 . S
C2189 C2190 1.529 . S
C2190 C2174 1.406 . S
C2190 C2186 1.330 1_655 S
C2190 C2189 1.529 . S
H2191 C2166 0.950 . S
H2192 C2168 0.950 . S
H2193 C2169 0.949 . S
H2194 C2171 0.950 . S
H2195 C2173 0.950 . S
C2196 C2197 1.349 . S
C2196 C2198 1.327 . S
C2196 H2221 0.950 . S
C2197 C2196 1.349 . S
C2197 C2213 1.349 . S
C2198 C2196 1.327 . S
C2198 C2217 1.429 . S
C2198 H2222 0.950 . S
C2199 C2216 1.574 1_565 S
C2199 C2218 1.368 . S
C2199 H2223 0.949 . S
H2200 C2204 0.949 . S
C2201 C2202 1.349 . S
C2201 C2203 1.327 . S
C2201 H2224 0.950 . S
C2202 C2201 1.349 . S
C2202 C2214 1.349 . S
C2203 C2201 1.327 . S
C2203 C2219 1.429 . S
C2203 H2225 0.950 . S
C2204 H2200 0.949 . S
C2204 C2212 1.574 1_545 S
C2204 C2220 1.368 . S
H2205 C2213 0.950 . S
H2206 C2211 0.950 . S
H2207 C2212 0.949 . S
H2208 C2214 0.950 . S
H2209 C2215 0.950 . S
H2210 C2216 0.949 . S
C2211 H2206 0.950 . S
C2211 C2213 1.327 . S
C2211 C2217 1.429 . S
C2212 C2204 1.574 1_565 S
C2212 H2207 0.949 . S
C2212 C2218 1.368 . S
C2213 C2197 1.349 . S
C2213 H2205 0.950 . S
C2213 C2211 1.327 . S
C2214 C2202 1.349 . S
C2214 H2208 0.950 . S
C2214 C2215 1.327 . S
C2215 H2209 0.950 . S
C2215 C2214 1.327 . S
C2215 C2219 1.429 . S
C2216 C2199 1.574 1_545 S
C2216 H2210 0.949 . S
C2216 C2220 1.368 . S
C2217 C2198 1.429 . S
C2217 C2211 1.429 . S
C2217 C2218 1.523 . S
C2218 C2199 1.368 . S
C2218 C2212 1.368 . S
C2218 C2217 1.523 . S
C2219 C2203 1.429 . S
C2219 C2215 1.429 . S
C2219 C2220 1.523 . S
C2220 C2204 1.368 . S
C2220 C2216 1.368 . S
C2220 C2219 1.523 . S
H2221 C2196 0.950 . S
H2222 C2198 0.950 . S
H2223 C2199 0.949 . S
H2224 C2201 0.950 . S
H2225 C2203 0.950 . S
C2226 C2227 1.349 . S
C2226 C2228 1.327 . S
C2226 H2251 0.950 . S
C2227 C2226 1.349 . S
C2227 C2243 1.349 1_655 S
C2228 C2226 1.327 . S
C2228 C2247 1.429 . S
C2228 H2252 0.950 1_554 S
C2229 C2246 1.574 . S
C2229 C2248 1.368 1_455 S
C2229 H2253 0.949 . S
H2230 C2234 0.949 . S
C2231 C2232 1.349 . S
C2231 C2233 1.327 . S
C2231 H2254 0.950 . S
C2232 C2231 1.349 . S
C2232 C2244 1.349 1_455 S
C2233 C2231 1.327 . S
C2233 C2249 1.429 . S
C2233 H2255 0.950 1_556 S
C2234 H2230 0.949 . S
C2234 C2242 1.574 . S
C2234 C2250 1.331 1_655 S
H2235 C2243 0.950 . S
H2236 C2241 0.950 . S
H2237 C2242 0.949 . S
H2238 C2244 0.950 . S
H2239 C2245 0.950 . S
H2240 C2246 0.949 . S
C2241 H2236 0.950 . S
C2241 C2243 1.327 . S
C2241 C2247 1.429 1_455 S
C2242 C2234 1.574 . S
C2242 H2237 0.949 . S
C2242 C2248 1.368 1_556 S
C2243 C2227 1.349 1_455 S
C2243 H2235 0.950 . S
C2243 C2241 1.327 . S
C2244 C2232 1.349 1_655 S
C2244 H2238 0.950 . S
C2244 C2245 1.327 . S
C2245 H2239 0.950 . S
C2245 C2244 1.327 . S
C2245 C2249 1.429 1_655 S
C2246 C2229 1.574 . S
C2246 H2240 0.949 . S
C2246 C2250 1.404 1_554 S
C2247 C2228 1.429 . S
C2247 C2241 1.429 1_655 S
C2247 C2248 1.523 . S
C2248 C2229 1.368 1_655 S
C2248 C2242 1.368 1_554 S
C2248 C2247 1.523 . S
C2249 C2233 1.429 . S
C2249 C2245 1.429 1_455 S
C2249 C2250 1.529 . S
C2250 C2234 1.331 1_455 S
C2250 C2246 1.404 1_556 S
C2250 C2249 1.529 . S
H2251 C2226 0.950 . S
H2252 C2228 0.950 1_556 S
H2253 C2229 0.949 . S
H2254 C2231 0.950 . S
H2255 C2233 0.950 1_554 S
C2256 C2257 1.349 . S
C2256 C2258 1.327 . S
C2256 H2281 0.950 . S
C2257 C2256 1.349 . S
C2257 C2273 1.349 . S
C2258 C2256 1.327 . S
C2258 C2277 1.429 . S
C2258 H2282 0.950 1_556 S
C2259 C2276 1.574 . S
C2259 C2278 1.368 . S
C2259 H2283 0.949 . S
H2260 C2264 0.949 . S
C2261 C2262 1.349 . S
C2261 C2263 1.327 . S
C2261 H2284 0.950 . S
C2262 C2261 1.349 . S
C2262 C2274 1.349 . S
C2263 C2261 1.327 . S
C2263 C2279 1.429 . S
C2263 H2285 0.950 1_554 S
C2264 H2260 0.949 . S
C2264 C2272 1.574 . S
C2264 C2280 1.368 . S
H2265 C2273 0.950 . S
H2266 C2271 0.950 . S
H2267 C2272 0.949 . S
H2268 C2274 0.950 . S
H2269 C2275 0.950 . S
H2270 C2276 0.949 . S
C2271 H2266 0.950 . S
C2271 C2273 1.327 . S
C2271 C2277 1.429 . S
C2272 C2264 1.574 . S
C2272 H2267 0.949 . S
C2272 C2278 1.368 1_554 S
C2273 C2257 1.349 . S
C2273 H2265 0.950 . S
C2273 C2271 1.327 . S
C2274 C2262 1.349 . S
C2274 H2268 0.950 . S
C2274 C2275 1.327 . S
C2275 H2269 0.950 . S
C2275 C2274 1.327 . S
C2275 C2279 1.429 . S
C2276 C2259 1.574 . S
C2276 H2270 0.949 . S
C2276 C2280 1.368 1_556 S
C2277 C2258 1.429 . S
C2277 C2271 1.429 . S
C2277 C2278 1.523 . S
C2278 C2259 1.368 . S
C2278 C2272 1.368 1_556 S
C2278 C2277 1.523 . S
C2279 C2263 1.429 . S
C2279 C2275 1.429 . S
C2279 C2280 1.523 . S
C2280 C2264 1.368 . S
C2280 C2276 1.368 1_554 S
C2280 C2279 1.523 . S
H2281 C2256 0.950 . S
H2282 C2258 0.950 1_554 S
H2283 C2259 0.949 . S
H2284 C2261 0.950 . S
H2285 C2263 0.950 1_556 S
C2286 C2287 1.349 . S
C2286 C2288 1.327 . S
C2286 H2311 0.950 . S
C2287 C2286 1.349 . S
C2287 C2303 1.349 . S
C2288 C2286 1.327 . S
C2288 C2307 1.429 . S
C2288 H2312 0.950 . S
C2289 C2306 1.574 . S
C2289 C2308 1.368 . S
C2289 H2313 0.949 . S
H2290 C2294 0.949 . S
C2291 C2292 1.349 . S
C2291 C2293 1.327 . S
C2291 H2314 0.950 . S
C2292 C2291 1.349 . S
C2292 C2304 1.349 . S
C2293 C2291 1.327 . S
C2293 C2309 1.429 . S
C2293 H2315 0.950 . S
C2294 H2290 0.949 . S
C2294 C2302 1.574 . S
C2294 C2310 1.368 . S
H2295 C2303 0.950 . S
H2296 C2301 0.950 . S
H2297 C2302 0.949 . S
H2298 C2304 0.950 . S
H2299 C2305 0.950 . S
H2300 C2306 0.949 . S
C2301 H2296 0.950 . S
C2301 C2303 1.327 . S
C2301 C2307 1.429 . S
C2302 C2294 1.574 . S
C2302 H2297 0.949 . S
C2302 C2308 1.368 . S
C2303 C2287 1.349 . S
C2303 H2295 0.950 . S
C2303 C2301 1.327 . S
C2304 C2292 1.349 . S
C2304 H2298 0.950 . S
C2304 C2305 1.327 . S
C2305 H2299 0.950 . S
C2305 C2304 1.327 . S
C2305 C2309 1.429 . S
C2306 C2289 1.574 . S
C2306 H2300 0.949 . S
C2306 C2310 1.368 . S
C2307 C2288 1.429 . S
C2307 C2301 1.429 . S
C2307 C2308 1.523 . S
C2308 C2289 1.368 . S
C2308 C2302 1.368 . S
C2308 C2307 1.523 . S
C2309 C2293 1.429 . S
C2309 C2305 1.429 . S
C2309 C2310 1.523 . S
C2310 C2294 1.368 . S
C2310 C2306 1.368 . S
C2310 C2309 1.523 . S
H2311 C2286 0.950 . S
H2312 C2288 0.950 . S
H2313 C2289 0.949 . S
H2314 C2291 0.950 . S
H2315 C2293 0.950 . S
C2316 C2317 1.349 . S
C2316 C2318 1.327 . S
C2316 H2341 0.950 . S
C2317 C2316 1.349 . S
C2317 C2333 1.349 . S
C2318 C2316 1.327 . S
C2318 C2337 1.429 . S
C2318 H2342 0.950 . S
C2319 C2336 1.574 . S
C2319 C2338 1.368 . S
C2319 H2343 0.949 . S
H2320 C2324 0.949 . S
C2321 C2322 1.349 . S
C2321 C2323 1.327 . S
C2321 H2344 0.950 . S
C2322 C2321 1.349 . S
C2322 C2334 1.349 . S
C2323 C2321 1.327 . S
C2323 C2339 1.429 . S
C2323 H2345 0.950 . S
C2324 H2320 0.949 . S
C2324 C2332 1.574 . S
C2324 C2340 1.368 . S
H2325 C2333 0.950 . S
H2326 C2331 0.950 . S
H2327 C2332 0.949 . S
H2328 C2334 0.950 . S
H2329 C2335 0.950 . S
H2330 C2336 0.949 . S
C2331 H2326 0.950 . S
C2331 C2333 1.327 . S
C2331 C2337 1.429 . S
C2332 C2324 1.574 . S
C2332 H2327 0.949 . S
C2332 C2338 1.368 1_554 S
C2333 C2317 1.349 . S
C2333 H2325 0.950 . S
C2333 C2331 1.327 . S
C2334 C2322 1.349 . S
C2334 H2328 0.950 . S
C2334 C2335 1.327 . S
C2335 H2329 0.950 . S
C2335 C2334 1.327 . S
C2335 C2339 1.429 . S
C2336 C2319 1.574 . S
C2336 H2330 0.949 . S
C2336 C2340 1.368 1_556 S
C2337 C2318 1.429 . S
C2337 C2331 1.429 . S
C2337 C2338 1.523 . S
C2338 C2319 1.368 . S
C2338 C2332 1.368 1_556 S
C2338 C2337 1.523 . S
C2339 C2323 1.429 . S
C2339 C2335 1.429 . S
C2339 C2340 1.523 . S
C2340 C2324 1.368 . S
C2340 C2336 1.368 1_554 S
C2340 C2339 1.523 . S
H2341 C2316 0.950 . S
H2342 C2318 0.950 . S
H2343 C2319 0.949 . S
H2344 C2321 0.950 . S
H2345 C2323 0.950 . S
C2346 C2347 1.349 . S
C2346 C2348 1.327 . S
C2346 H2371 0.950 . S
C2347 C2346 1.349 . S
C2347 C2363 1.349 . S
C2348 C2346 1.327 . S
C2348 C2367 1.429 . S
C2348 H2372 0.950 . S
C2349 C2366 1.574 . S
C2349 C2368 1.368 . S
C2349 H2373 0.949 . S
H2350 C2354 0.949 . S
C2351 C2352 1.349 . S
C2351 C2353 1.327 . S
C2351 H2374 0.950 . S
C2352 C2351 1.349 . S
C2352 C2364 1.349 . S
C2353 C2351 1.327 . S
C2353 C2369 1.429 . S
C2353 H2375 0.950 . S
C2354 H2350 0.949 . S
C2354 C2362 1.574 . S
C2354 C2370 1.368 . S
H2355 C2363 0.950 . S
H2356 C2361 0.950 . S
H2357 C2362 0.949 . S
H2358 C2364 0.950 . S
H2359 C2365 0.950 . S
H2360 C2366 0.949 . S
C2361 H2356 0.950 . S
C2361 C2363 1.327 . S
C2361 C2367 1.429 . S
C2362 C2354 1.574 . S
C2362 H2357 0.949 . S
C2362 C2368 1.368 . S
C2363 C2347 1.349 . S
C2363 H2355 0.950 . S
C2363 C2361 1.327 . S
C2364 C2352 1.349 . S
C2364 H2358 0.950 . S
C2364 C2365 1.327 . S
C2365 H2359 0.950 . S
C2365 C2364 1.327 . S
C2365 C2369 1.429 . S
C2366 C2349 1.574 . S
C2366 H2360 0.949 . S
C2366 C2370 1.368 . S
C2367 C2348 1.429 . S
C2367 C2361 1.429 . S
C2367 C2368 1.523 . S
C2368 C2349 1.368 . S
C2368 C2362 1.368 . S
C2368 C2367 1.523 . S
C2369 C2353 1.429 . S
C2369 C2365 1.429 . S
C2369 C2370 1.523 . S
C2370 C2354 1.368 . S
C2370 C2366 1.368 . S
C2370 C2369 1.523 . S
H2371 C2346 0.950 . S
H2372 C2348 0.950 . S
H2373 C2349 0.949 . S
H2374 C2351 0.950 . S
H2375 C2353 0.950 . S
C2376 C2377 1.349 . S
C2376 C2378 1.327 . S
C2376 H2401 0.950 . S
C2377 C2376 1.349 . S
C2377 C2393 1.349 . S
C2378 C2376 1.327 . S
C2378 C2397 1.429 . S
C2378 H2402 0.950 1_556 S
C2379 C2396 1.574 1_545 S
C2379 C2398 1.368 . S
C2379 H2403 0.949 . S
H2380 C2384 0.949 . S
C2381 C2382 1.349 . S
C2381 C2383 1.327 . S
C2381 H2404 0.950 . S
C2382 C2381 1.349 . S
C2382 C2394 1.349 . S
C2383 C2381 1.327 . S
C2383 C2399 1.429 . S
C2383 H2405 0.950 1_554 S
C2384 H2380 0.949 . S
C2384 C2392 1.574 1_565 S
C2384 C2400 1.368 . S
H2385 C2393 0.950 . S
H2386 C2391 0.950 . S
H2387 C2392 0.949 . S
H2388 C2394 0.950 . S
H2389 C2395 0.950 . S
H2390 C2396 0.949 . S
C2391 H2386 0.950 . S
C2391 C2393 1.327 . S
C2391 C2397 1.429 . S
C2392 C2384 1.574 1_545 S
C2392 H2387 0.949 . S
C2392 C2398 1.368 1_554 S
C2393 C2377 1.349 . S
C2393 H2385 0.950 . S
C2393 C2391 1.327 . S
C2394 C2382 1.349 . S
C2394 H2388 0.950 . S
C2394 C2395 1.327 . S
C2395 H2389 0.950 . S
C2395 C2394 1.327 . S
C2395 C2399 1.429 . S
C2396 C2379 1.574 1_565 S
C2396 H2390 0.949 . S
C2396 C2400 1.368 1_556 S
C2397 C2378 1.429 . S
C2397 C2391 1.429 . S
C2397 C2398 1.523 . S
C2398 C2379 1.368 . S
C2398 C2392 1.368 1_556 S
C2398 C2397 1.523 . S
C2399 C2383 1.429 . S
C2399 C2395 1.429 . S
C2399 C2400 1.523 . S
C2400 C2384 1.368 . S
C2400 C2396 1.368 1_554 S
C2400 C2399 1.523 . S
H2401 C2376 0.950 . S
H2402 C2378 0.950 1_554 S
H2403 C2379 0.949 . S
H2404 C2381 0.950 . S
H2405 C2383 0.950 1_556 S
C2406 C2407 1.349 . S
C2406 C2408 1.327 . S
C2406 H2431 0.950 . S
C2407 C2406 1.349 . S
C2407 C2423 1.349 . S
C2408 C2406 1.327 . S
C2408 C2427 1.429 . S
C2408 H2432 0.950 . S
C2409 C2426 1.574 . S
C2409 C2428 1.368 . S
C2409 H2433 0.949 . S
H2410 C2414 0.949 . S
C2411 C2412 1.349 . S
C2411 C2413 1.327 . S
C2411 H2434 0.950 . S
C2412 C2411 1.349 . S
C2412 C2424 1.349 . S
C2413 C2411 1.327 . S
C2413 C2429 1.429 . S
C2413 H2435 0.950 . S
C2414 H2410 0.949 . S
C2414 C2422 1.574 . S
C2414 C2430 1.368 . S
H2415 C2423 0.950 . S
H2416 C2421 0.950 . S
H2417 C2422 0.949 . S
H2418 C2424 0.950 . S
H2419 C2425 0.950 . S
H2420 C2426 0.949 . S
C2421 H2416 0.950 . S
C2421 C2423 1.327 . S
C2421 C2427 1.429 . S
C2422 C2414 1.574 . S
C2422 H2417 0.949 . S
C2422 C2428 1.368 . S
C2423 C2407 1.349 . S
C2423 H2415 0.950 . S
C2423 C2421 1.327 . S
C2424 C2412 1.349 . S
C2424 H2418 0.950 . S
C2424 C2425 1.327 . S
C2425 H2419 0.950 . S
C2425 C2424 1.327 . S
C2425 C2429 1.429 . S
C2426 C2409 1.574 . S
C2426 H2420 0.949 . S
C2426 C2430 1.368 . S
C2427 C2408 1.429 . S
C2427 C2421 1.429 . S
C2427 C2428 1.523 . S
C2428 C2409 1.368 . S
C2428 C2422 1.368 . S
C2428 C2427 1.523 . S
C2429 C2413 1.429 . S
C2429 C2425 1.429 . S
C2429 C2430 1.523 . S
C2430 C2414 1.368 . S
C2430 C2426 1.368 . S
C2430 C2429 1.523 . S
H2431 C2406 0.950 . S
H2432 C2408 0.950 . S
H2433 C2409 0.949 . S
H2434 C2411 0.950 . S
H2435 C2413 0.950 . S
C2436 C2437 1.349 . S
C2436 C2438 1.327 . S
C2436 H2461 0.950 . S
C2437 C2436 1.349 . S
C2437 C2453 1.349 . S
C2438 C2436 1.327 . S
C2438 C2457 1.429 . S
C2438 H2462 0.950 . S
C2439 C2456 1.574 . S
C2439 C2458 1.368 . S
C2439 H2463 0.949 . S
H2440 C2444 0.949 . S
C2441 C2442 1.349 . S
C2441 C2443 1.327 . S
C2441 H2464 0.950 . S
C2442 C2441 1.349 . S
C2442 C2454 1.349 . S
C2443 C2441 1.327 . S
C2443 C2459 1.429 . S
C2443 H2465 0.950 . S
C2444 H2440 0.949 . S
C2444 C2452 1.574 . S
C2444 C2460 1.368 . S
H2445 C2453 0.950 . S
H2446 C2451 0.950 . S
H2447 C2452 0.949 . S
H2448 C2454 0.950 . S
H2449 C2455 0.950 . S
H2450 C2456 0.949 . S
C2451 H2446 0.950 . S
C2451 C2453 1.327 . S
C2451 C2457 1.429 . S
C2452 C2444 1.574 . S
C2452 H2447 0.949 . S
C2452 C2458 1.368 . S
C2453 C2437 1.349 . S
C2453 H2445 0.950 . S
C2453 C2451 1.327 . S
C2454 C2442 1.349 . S
C2454 H2448 0.950 . S
C2454 C2455 1.327 . S
C2455 H2449 0.950 . S
C2455 C2454 1.327 . S
C2455 C2459 1.429 . S
C2456 C2439 1.574 . S
C2456 H2450 0.949 . S
C2456 C2460 1.368 . S
C2457 C2438 1.429 . S
C2457 C2451 1.429 . S
C2457 C2458 1.523 . S
C2458 C2439 1.368 . S
C2458 C2452 1.368 . S
C2458 C2457 1.523 . S
C2459 C2443 1.429 . S
C2459 C2455 1.429 . S
C2459 C2460 1.523 . S
C2460 C2444 1.368 . S
C2460 C2456 1.368 . S
C2460 C2459 1.523 . S
H2461 C2436 0.950 . S
H2462 C2438 0.950 . S
H2463 C2439 0.949 . S
H2464 C2441 0.950 . S
H2465 C2443 0.950 . S
C2466 C2467 1.349 . S
C2466 C2468 1.327 . S
C2466 H2491 0.950 . S
C2467 C2466 1.349 . S
C2467 C2483 1.349 . S
C2468 C2466 1.327 . S
C2468 C2487 1.429 . S
C2468 H2492 0.950 . S
C2469 C2486 1.574 . S
C2469 C2488 1.368 . S
C2469 H2493 0.949 . S
H2470 C2474 0.949 . S
C2471 C2472 1.349 . S
C2471 C2473 1.327 . S
C2471 H2494 0.950 . S
C2472 C2471 1.349 . S
C2472 C2484 1.349 . S
C2473 C2471 1.327 . S
C2473 C2489 1.429 . S
C2473 H2495 0.950 . S
C2474 H2470 0.949 . S
C2474 C2482 1.574 . S
C2474 C2490 1.368 . S
H2475 C2483 0.950 . S
H2476 C2481 0.950 . S
H2477 C2482 0.949 . S
H2478 C2484 0.950 . S
H2479 C2485 0.950 . S
H2480 C2486 0.949 . S
C2481 H2476 0.950 . S
C2481 C2483 1.327 . S
C2481 C2487 1.429 . S
C2482 C2474 1.574 . S
C2482 H2477 0.949 . S
C2482 C2488 1.368 . S
C2483 C2467 1.349 . S
C2483 H2475 0.950 . S
C2483 C2481 1.327 . S
C2484 C2472 1.349 . S
C2484 H2478 0.950 . S
C2484 C2485 1.327 . S
C2485 H2479 0.950 . S
C2485 C2484 1.327 . S
C2485 C2489 1.429 . S
C2486 C2469 1.574 . S
C2486 H2480 0.949 . S
C2486 C2490 1.368 . S
C2487 C2468 1.429 . S
C2487 C2481 1.429 . S
C2487 C2488 1.523 . S
C2488 C2469 1.368 . S
C2488 C2482 1.368 . S
C2488 C2487 1.523 . S
C2489 C2473 1.429 . S
C2489 C2485 1.429 . S
C2489 C2490 1.523 . S
C2490 C2474 1.368 . S
C2490 C2486 1.368 . S
C2490 C2489 1.523 . S
H2491 C2466 0.950 . S
H2492 C2468 0.950 . S
H2493 C2469 0.949 . S
H2494 C2471 0.950 . S
H2495 C2473 0.950 . S
C2496 C2497 1.349 . S
C2496 C2498 1.327 . S
C2496 H2521 0.950 . S
C2497 C2496 1.349 . S
C2497 C2513 1.349 . S
C2498 C2496 1.327 . S
C2498 C2517 1.429 . S
C2498 H2522 0.950 . S
C2499 C2516 1.574 . S
C2499 C2518 1.368 . S
C2499 H2523 0.949 . S
H2500 C2504 0.949 . S
C2501 C2502 1.349 . S
C2501 C2503 1.327 . S
C2501 H2524 0.950 . S
C2502 C2501 1.349 . S
C2502 C2514 1.349 . S
C2503 C2501 1.327 . S
C2503 C2519 1.429 . S
C2503 H2525 0.950 . S
C2504 H2500 0.949 . S
C2504 C2512 1.574 . S
C2504 C2520 1.368 . S
H2505 C2513 0.950 . S
H2506 C2511 0.950 . S
H2507 C2512 0.949 . S
H2508 C2514 0.950 . S
H2509 C2515 0.950 . S
H2510 C2516 0.949 . S
C2511 H2506 0.950 . S
C2511 C2513 1.327 . S
C2511 C2517 1.429 . S
C2512 C2504 1.574 . S
C2512 H2507 0.949 . S
C2512 C2518 1.368 . S
C2513 C2497 1.349 . S
C2513 H2505 0.950 . S
C2513 C2511 1.327 . S
C2514 C2502 1.349 . S
C2514 H2508 0.950 . S
C2514 C2515 1.327 . S
C2515 H2509 0.950 . S
C2515 C2514 1.327 . S
C2515 C2519 1.429 . S
C2516 C2499 1.574 . S
C2516 H2510 0.949 . S
C2516 C2520 1.368 . S
C2517 C2498 1.429 . S
C2517 C2511 1.429 . S
C2517 C2518 1.523 . S
C2518 C2499 1.368 . S
C2518 C2512 1.368 . S
C2518 C2517 1.523 . S
C2519 C2503 1.429 . S
C2519 C2515 1.429 . S
C2519 C2520 1.523 . S
C2520 C2504 1.368 . S
C2520 C2516 1.368 . S
C2520 C2519 1.523 . S
H2521 C2496 0.950 . S
H2522 C2498 0.950 . S
H2523 C2499 0.949 . S
H2524 C2501 0.950 . S
H2525 C2503 0.950 . S
C2526 C2527 1.349 . S
C2526 C2528 1.327 . S
C2526 H2551 0.950 . S
C2527 C2526 1.349 . S
C2527 C2543 1.349 . S
C2528 C2526 1.327 . S
C2528 C2547 1.429 . S
C2528 H2552 0.950 . S
C2529 C2546 1.574 . S
C2529 C2548 1.368 . S
C2529 H2553 0.949 . S
H2530 C2534 0.949 . S
C2531 C2532 1.349 . S
C2531 C2533 1.327 . S
C2531 H2554 0.950 . S
C2532 C2531 1.349 . S
C2532 C2544 1.349 . S
C2533 C2531 1.327 . S
C2533 C2549 1.429 . S
C2533 H2555 0.950 . S
C2534 H2530 0.949 . S
C2534 C2542 1.574 . S
C2534 C2550 1.368 . S
H2535 C2543 0.950 . S
H2536 C2541 0.950 . S
H2537 C2542 0.949 . S
H2538 C2544 0.950 . S
H2539 C2545 0.950 . S
H2540 C2546 0.949 . S
C2541 H2536 0.950 . S
C2541 C2543 1.327 . S
C2541 C2547 1.429 . S
C2542 C2534 1.574 . S
C2542 H2537 0.949 . S
C2542 C2548 1.368 . S
C2543 C2527 1.349 . S
C2543 H2535 0.950 . S
C2543 C2541 1.327 . S
C2544 C2532 1.349 . S
C2544 H2538 0.950 . S
C2544 C2545 1.327 . S
C2545 H2539 0.950 . S
C2545 C2544 1.327 . S
C2545 C2549 1.429 . S
C2546 C2529 1.574 . S
C2546 H2540 0.949 . S
C2546 C2550 1.368 . S
C2547 C2528 1.429 . S
C2547 C2541 1.429 . S
C2547 C2548 1.523 . S
C2548 C2529 1.368 . S
C2548 C2542 1.368 . S
C2548 C2547 1.523 . S
C2549 C2533 1.429 . S
C2549 C2545 1.429 . S
C2549 C2550 1.523 . S
C2550 C2534 1.368 . S
C2550 C2546 1.368 . S
C2550 C2549 1.523 . S
H2551 C2526 0.950 . S
H2552 C2528 0.950 . S
H2553 C2529 0.949 . S
H2554 C2531 0.950 . S
H2555 C2533 0.950 . S
C2556 C2557 1.349 . S
C2556 C2558 1.327 . S
C2556 H2581 0.950 . S
C2557 C2556 1.349 . S
C2557 C2573 1.349 . S
C2558 C2556 1.327 . S
C2558 C2577 1.429 . S
C2558 H2582 0.950 . S
C2559 C2576 1.574 . S
C2559 C2578 1.368 . S
C2559 H2583 0.949 . S
H2560 C2564 0.949 . S
C2561 C2562 1.349 . S
C2561 C2563 1.327 . S
C2561 H2584 0.950 . S
C2562 C2561 1.349 . S
C2562 C2574 1.349 . S
C2563 C2561 1.327 . S
C2563 C2579 1.429 . S
C2563 H2585 0.950 . S
C2564 H2560 0.949 . S
C2564 C2572 1.574 . S
C2564 C2580 1.368 . S
H2565 C2573 0.950 . S
H2566 C2571 0.950 . S
H2567 C2572 0.949 . S
H2568 C2574 0.950 . S
H2569 C2575 0.950 . S
H2570 C2576 0.949 . S
C2571 H2566 0.950 . S
C2571 C2573 1.327 . S
C2571 C2577 1.429 . S
C2572 C2564 1.574 . S
C2572 H2567 0.949 . S
C2572 C2578 1.368 . S
C2573 C2557 1.349 . S
C2573 H2565 0.950 . S
C2573 C2571 1.327 . S
C2574 C2562 1.349 . S
C2574 H2568 0.950 . S
C2574 C2575 1.327 . S
C2575 H2569 0.950 . S
C2575 C2574 1.327 . S
C2575 C2579 1.429 . S
C2576 C2559 1.574 . S
C2576 H2570 0.949 . S
C2576 C2580 1.368 . S
C2577 C2558 1.429 . S
C2577 C2571 1.429 . S
C2577 C2578 1.523 . S
C2578 C2559 1.368 . S
C2578 C2572 1.368 . S
C2578 C2577 1.523 . S
C2579 C2563 1.429 . S
C2579 C2575 1.429 . S
C2579 C2580 1.523 . S
C2580 C2564 1.368 . S
C2580 C2576 1.368 . S
C2580 C2579 1.523 . S
H2581 C2556 0.950 . S
H2582 C2558 0.950 . S
H2583 C2559 0.949 . S
H2584 C2561 0.950 . S
H2585 C2563 0.950 . S
C2586 C2587 1.349 . S
C2586 C2588 1.327 . S
C2586 H2611 0.950 . S
C2587 C2586 1.349 . S
C2587 C2603 1.349 . S
C2588 C2586 1.327 . S
C2588 C2607 1.429 . S
C2588 H2612 0.950 . S
C2589 C2606 1.574 . S
C2589 C2608 1.368 . S
C2589 H2613 0.949 . S
H2590 C2594 0.949 . S
C2591 C2592 1.349 . S
C2591 C2593 1.327 . S
C2591 H2614 0.950 . S
C2592 C2591 1.349 . S
C2592 C2604 1.349 . S
C2593 C2591 1.327 . S
C2593 C2609 1.429 . S
C2593 H2615 0.950 . S
C2594 H2590 0.949 . S
C2594 C2602 1.574 . S
C2594 C2610 1.368 . S
H2595 C2603 0.950 . S
H2596 C2601 0.950 . S
H2597 C2602 0.949 . S
H2598 C2604 0.950 . S
H2599 C2605 0.950 . S
H2600 C2606 0.949 . S
C2601 H2596 0.950 . S
C2601 C2603 1.327 . S
C2601 C2607 1.429 . S
C2602 C2594 1.574 . S
C2602 H2597 0.949 . S
C2602 C2608 1.368 . S
C2603 C2587 1.349 . S
C2603 H2595 0.950 . S
C2603 C2601 1.327 . S
C2604 C2592 1.349 . S
C2604 H2598 0.950 . S
C2604 C2605 1.327 . S
C2605 H2599 0.950 . S
C2605 C2604 1.327 . S
C2605 C2609 1.429 . S
C2606 C2589 1.574 . S
C2606 H2600 0.949 . S
C2606 C2610 1.368 . S
C2607 C2588 1.429 . S
C2607 C2601 1.429 . S
C2607 C2608 1.523 . S
C2608 C2589 1.368 . S
C2608 C2602 1.368 . S
C2608 C2607 1.523 . S
C2609 C2593 1.429 . S
C2609 C2605 1.429 . S
C2609 C2610 1.523 . S
C2610 C2594 1.368 . S
C2610 C2606 1.368 . S
C2610 C2609 1.523 . S
H2611 C2586 0.950 . S
H2612 C2588 0.950 . S
H2613 C2589 0.949 . S
H2614 C2591 0.950 . S
H2615 C2593 0.950 . S
C2616 C2617 1.349 . S
C2616 C2618 1.327 . S
C2616 H2641 0.950 . S
C2617 C2616 1.349 . S
C2617 C2633 1.349 . S
C2618 C2616 1.327 . S
C2618 C2637 1.429 . S
C2618 H2642 0.950 . S
C2619 C2636 1.574 . S
C2619 C2638 1.368 . S
C2619 H2643 0.949 . S
H2620 C2624 0.949 . S
C2621 C2622 1.349 . S
C2621 C2623 1.327 . S
C2621 H2644 0.950 . S
C2622 C2621 1.349 . S
C2622 C2634 1.349 . S
C2623 C2621 1.327 . S
C2623 C2639 1.429 . S
C2623 H2645 0.950 . S
C2624 H2620 0.949 . S
C2624 C2632 1.574 . S
C2624 C2640 1.368 . S
H2625 C2633 0.950 . S
H2626 C2631 0.950 . S
H2627 C2632 0.949 . S
H2628 C2634 0.950 . S
H2629 C2635 0.950 . S
H2630 C2636 0.949 . S
C2631 H2626 0.950 . S
C2631 C2633 1.327 . S
C2631 C2637 1.429 . S
C2632 C2624 1.574 . S
C2632 H2627 0.949 . S
C2632 C2638 1.368 . S
C2633 C2617 1.349 . S
C2633 H2625 0.950 . S
C2633 C2631 1.327 . S
C2634 C2622 1.349 . S
C2634 H2628 0.950 . S
C2634 C2635 1.327 . S
C2635 H2629 0.950 . S
C2635 C2634 1.327 . S
C2635 C2639 1.429 . S
C2636 C2619 1.574 . S
C2636 H2630 0.949 . S
C2636 C2640 1.368 . S
C2637 C2618 1.429 . S
C2637 C2631 1.429 . S
C2637 C2638 1.523 . S
C2638 C2619 1.368 . S
C2638 C2632 1.368 . S
C2638 C2637 1.523 . S
C2639 C2623 1.429 . S
C2639 C2635 1.429 . S
C2639 C2640 1.523 . S
C2640 C2624 1.368 . S
C2640 C2636 1.368 . S
C2640 C2639 1.523 . S
H2641 C2616 0.950 . S
H2642 C2618 0.950 . S
H2643 C2619 0.949 . S
H2644 C2621 0.950 . S
H2645 C2623 0.950 . S
C2646 C2647 1.349 . S
C2646 C2648 1.327 . S
C2646 H2671 0.950 . S
C2647 C2646 1.349 . S
C2647 C2663 1.349 . S
C2648 C2646 1.327 . S
C2648 C2667 1.429 . S
C2648 H2672 0.950 . S
C2649 C2666 1.574 . S
C2649 C2668 1.368 . S
C2649 H2673 0.949 . S
H2650 C2654 0.949 . S
C2651 C2652 1.349 . S
C2651 C2653 1.327 . S
C2651 H2674 0.950 . S
C2652 C2651 1.349 . S
C2652 C2664 1.349 . S
C2653 C2651 1.327 . S
C2653 C2669 1.429 . S
C2653 H2675 0.950 . S
C2654 H2650 0.949 . S
C2654 C2662 1.574 . S
C2654 C2670 1.368 . S
H2655 C2663 0.950 . S
H2656 C2661 0.950 . S
H2657 C2662 0.949 . S
H2658 C2664 0.950 . S
H2659 C2665 0.950 . S
H2660 C2666 0.949 . S
C2661 H2656 0.950 . S
C2661 C2663 1.327 . S
C2661 C2667 1.429 . S
C2662 C2654 1.574 . S
C2662 H2657 0.949 . S
C2662 C2668 1.368 . S
C2663 C2647 1.349 . S
C2663 H2655 0.950 . S
C2663 C2661 1.327 . S
C2664 C2652 1.349 . S
C2664 H2658 0.950 . S
C2664 C2665 1.327 . S
C2665 H2659 0.950 . S
C2665 C2664 1.327 . S
C2665 C2669 1.429 . S
C2666 C2649 1.574 . S
C2666 H2660 0.949 . S
C2666 C2670 1.368 . S
C2667 C2648 1.429 . S
C2667 C2661 1.429 . S
C2667 C2668 1.523 . S
C2668 C2649 1.368 . S
C2668 C2662 1.368 . S
C2668 C2667 1.523 . S
C2669 C2653 1.429 . S
C2669 C2665 1.429 . S
C2669 C2670 1.523 . S
C2670 C2654 1.368 . S
C2670 C2666 1.368 . S
C2670 C2669 1.523 . S
H2671 C2646 0.950 . S
H2672 C2648 0.950 . S
H2673 C2649 0.949 . S
H2674 C2651 0.950 . S
H2675 C2653 0.950 . S
C2676 C2677 1.349 . S
C2676 C2678 1.327 . S
C2676 H2701 0.950 . S
C2677 C2676 1.349 . S
C2677 C2693 1.349 . S
C2678 C2676 1.327 . S
C2678 C2697 1.429 . S
C2678 H2702 0.950 . S
C2679 C2696 1.574 . S
C2679 C2698 1.368 . S
C2679 H2703 0.949 . S
H2680 C2684 0.949 . S
C2681 C2682 1.349 . S
C2681 C2683 1.327 . S
C2681 H2704 0.950 . S
C2682 C2681 1.349 . S
C2682 C2694 1.349 . S
C2683 C2681 1.327 . S
C2683 C2699 1.429 . S
C2683 H2705 0.950 . S
C2684 H2680 0.949 . S
C2684 C2692 1.574 . S
C2684 C2700 1.368 . S
H2685 C2693 0.950 . S
H2686 C2691 0.950 . S
H2687 C2692 0.949 . S
H2688 C2694 0.950 . S
H2689 C2695 0.950 . S
H2690 C2696 0.949 . S
C2691 H2686 0.950 . S
C2691 C2693 1.327 . S
C2691 C2697 1.429 . S
C2692 C2684 1.574 . S
C2692 H2687 0.949 . S
C2692 C2698 1.368 . S
C2693 C2677 1.349 . S
C2693 H2685 0.950 . S
C2693 C2691 1.327 . S
C2694 C2682 1.349 . S
C2694 H2688 0.950 . S
C2694 C2695 1.327 . S
C2695 H2689 0.950 . S
C2695 C2694 1.327 . S
C2695 C2699 1.429 . S
C2696 C2679 1.574 . S
C2696 H2690 0.949 . S
C2696 C2700 1.368 . S
C2697 C2678 1.429 . S
C2697 C2691 1.429 . S
C2697 C2698 1.523 . S
C2698 C2679 1.368 . S
C2698 C2692 1.368 . S
C2698 C2697 1.523 . S
C2699 C2683 1.429 . S
C2699 C2695 1.429 . S
C2699 C2700 1.523 . S
C2700 C2684 1.368 . S
C2700 C2696 1.368 . S
C2700 C2699 1.523 . S
H2701 C2676 0.950 . S
H2702 C2678 0.950 . S
H2703 C2679 0.949 . S
H2704 C2681 0.950 . S
H2705 C2683 0.950 . S
C2706 C2707 1.349 . S
C2706 C2708 1.327 . S
C2706 H2731 0.950 . S
C2707 C2706 1.349 . S
C2707 C2723 1.349 . S
C2708 C2706 1.327 . S
C2708 C2727 1.429 . S
C2708 H2732 0.950 . S
C2709 C2726 1.574 . S
C2709 C2728 1.368 . S
C2709 H2733 0.949 . S
H2710 C2714 0.949 . S
C2711 C2712 1.349 . S
C2711 C2713 1.327 . S
C2711 H2734 0.950 . S
C2712 C2711 1.349 . S
C2712 C2724 1.349 . S
C2713 C2711 1.327 . S
C2713 C2729 1.429 . S
C2713 H2735 0.950 . S
C2714 H2710 0.949 . S
C2714 C2722 1.574 . S
C2714 C2730 1.368 . S
H2715 C2723 0.950 . S
H2716 C2721 0.950 . S
H2717 C2722 0.949 . S
H2718 C2724 0.950 . S
H2719 C2725 0.950 . S
H2720 C2726 0.949 . S
C2721 H2716 0.950 . S
C2721 C2723 1.327 . S
C2721 C2727 1.429 . S
C2722 C2714 1.574 . S
C2722 H2717 0.949 . S
C2722 C2728 1.368 . S
C2723 C2707 1.349 . S
C2723 H2715 0.950 . S
C2723 C2721 1.327 . S
C2724 C2712 1.349 . S
C2724 H2718 0.950 . S
C2724 C2725 1.327 . S
C2725 H2719 0.950 . S
C2725 C2724 1.327 . S
C2725 C2729 1.429 . S
C2726 C2709 1.574 . S
C2726 H2720 0.949 . S
C2726 C2730 1.368 . S
C2727 C2708 1.429 . S
C2727 C2721 1.429 . S
C2727 C2728 1.523 . S
C2728 C2709 1.368 . S
C2728 C2722 1.368 . S
C2728 C2727 1.523 . S
C2729 C2713 1.429 . S
C2729 C2725 1.429 . S
C2729 C2730 1.523 . S
C2730 C2714 1.368 . S
C2730 C2726 1.368 . S
C2730 C2729 1.523 . S
H2731 C2706 0.950 . S
H2732 C2708 0.950 . S
H2733 C2709 0.949 . S
H2734 C2711 0.950 . S
H2735 C2713 0.950 . S
C2736 C2737 1.349 . S
C2736 C2738 1.327 . S
C2736 H2761 0.950 . S
C2737 C2736 1.349 . S
C2737 C2753 1.349 . S
C2738 C2736 1.327 . S
C2738 C2757 1.429 . S
C2738 H2762 0.950 . S
C2739 C2756 1.574 . S
C2739 C2758 1.368 . S
C2739 H2763 0.949 . S
H2740 C2744 0.949 . S
C2741 C2742 1.349 . S
C2741 C2743 1.327 . S
C2741 H2764 0.950 . S
C2742 C2741 1.349 . S
C2742 C2754 1.349 . S
C2743 C2741 1.327 . S
C2743 C2759 1.429 . S
C2743 H2765 0.950 . S
C2744 H2740 0.949 . S
C2744 C2752 1.574 . S
C2744 C2760 1.368 . S
H2745 C2753 0.950 . S
H2746 C2751 0.950 . S
H2747 C2752 0.949 . S
H2748 C2754 0.950 . S
H2749 C2755 0.950 . S
H2750 C2756 0.949 . S
C2751 H2746 0.950 . S
C2751 C2753 1.327 . S
C2751 C2757 1.429 . S
C2752 C2744 1.574 . S
C2752 H2747 0.949 . S
C2752 C2758 1.368 . S
C2753 C2737 1.349 . S
C2753 H2745 0.950 . S
C2753 C2751 1.327 . S
C2754 C2742 1.349 . S
C2754 H2748 0.950 . S
C2754 C2755 1.327 . S
C2755 H2749 0.950 . S
C2755 C2754 1.327 . S
C2755 C2759 1.429 . S
C2756 C2739 1.574 . S
C2756 H2750 0.949 . S
C2756 C2760 1.368 . S
C2757 C2738 1.429 . S
C2757 C2751 1.429 . S
C2757 C2758 1.523 . S
C2758 C2739 1.368 . S
C2758 C2752 1.368 . S
C2758 C2757 1.523 . S
C2759 C2743 1.429 . S
C2759 C2755 1.429 . S
C2759 C2760 1.523 . S
C2760 C2744 1.368 . S
C2760 C2756 1.368 . S
C2760 C2759 1.523 . S
H2761 C2736 0.950 . S
H2762 C2738 0.950 . S
H2763 C2739 0.949 . S
H2764 C2741 0.950 . S
H2765 C2743 0.950 . S
C2766 C2767 1.349 . S
C2766 C2768 1.327 . S
C2766 H2791 0.950 . S
C2767 C2766 1.349 . S
C2767 C2783 1.349 . S
C2768 C2766 1.327 . S
C2768 C2787 1.429 . S
C2768 H2792 0.950 . S
C2769 C2786 1.574 . S
C2769 C2788 1.368 . S
C2769 H2793 0.949 . S
H2770 C2774 0.949 . S
C2771 C2772 1.349 . S
C2771 C2773 1.327 . S
C2771 H2794 0.950 . S
C2772 C2771 1.349 . S
C2772 C2784 1.349 . S
C2773 C2771 1.327 . S
C2773 C2789 1.429 . S
C2773 H2795 0.950 . S
C2774 H2770 0.949 . S
C2774 C2782 1.574 . S
C2774 C2790 1.368 . S
H2775 C2783 0.950 . S
H2776 C2781 0.950 . S
H2777 C2782 0.949 . S
H2778 C2784 0.950 . S
H2779 C2785 0.950 . S
H2780 C2786 0.949 . S
C2781 H2776 0.950 . S
C2781 C2783 1.327 . S
C2781 C2787 1.429 . S
C2782 C2774 1.574 . S
C2782 H2777 0.949 . S
C2782 C2788 1.368 . S
C2783 C2767 1.349 . S
C2783 H2775 0.950 . S
C2783 C2781 1.327 . S
C2784 C2772 1.349 . S
C2784 H2778 0.950 . S
C2784 C2785 1.327 . S
C2785 H2779 0.950 . S
C2785 C2784 1.327 . S
C2785 C2789 1.429 . S
C2786 C2769 1.574 . S
C2786 H2780 0.949 . S
C2786 C2790 1.368 . S
C2787 C2768 1.429 . S
C2787 C2781 1.429 . S
C2787 C2788 1.523 . S
C2788 C2769 1.368 . S
C2788 C2782 1.368 . S
C2788 C2787 1.523 . S
C2789 C2773 1.429 . S
C2789 C2785 1.429 . S
C2789 C2790 1.523 . S
C2790 C2774 1.368 . S
C2790 C2786 1.368 . S
C2790 C2789 1.523 . S
H2791 C2766 0.950 . S
H2792 C2768 0.950 . S
H2793 C2769 0.949 . S
H2794 C2771 0.950 . S
H2795 C2773 0.950 . S
C2796 C2797 1.349 . S
C2796 C2798 1.327 . S
C2796 H2821 0.950 . S
C2797 C2796 1.349 . S
C2797 C2813 1.349 . S
C2798 C2796 1.327 . S
C2798 C2817 1.429 . S
C2798 H2822 0.950 . S
C2799 C2816 1.574 . S
C2799 C2818 1.368 . S
C2799 H2823 0.949 . S
H2800 C2804 0.949 . S
C2801 C2802 1.349 . S
C2801 C2803 1.327 . S
C2801 H2824 0.950 . S
C2802 C2801 1.349 . S
C2802 C2814 1.349 . S
C2803 C2801 1.327 . S
C2803 C2819 1.429 . S
C2803 H2825 0.950 . S
C2804 H2800 0.949 . S
C2804 C2812 1.574 . S
C2804 C2820 1.368 . S
H2805 C2813 0.950 . S
H2806 C2811 0.950 . S
H2807 C2812 0.949 . S
H2808 C2814 0.950 . S
H2809 C2815 0.950 . S
H2810 C2816 0.949 . S
C2811 H2806 0.950 . S
C2811 C2813 1.327 . S
C2811 C2817 1.429 . S
C2812 C2804 1.574 . S
C2812 H2807 0.949 . S
C2812 C2818 1.368 . S
C2813 C2797 1.349 . S
C2813 H2805 0.950 . S
C2813 C2811 1.327 . S
C2814 C2802 1.349 . S
C2814 H2808 0.950 . S
C2814 C2815 1.327 . S
C2815 H2809 0.950 . S
C2815 C2814 1.327 . S
C2815 C2819 1.429 . S
C2816 C2799 1.574 . S
C2816 H2810 0.949 . S
C2816 C2820 1.368 . S
C2817 C2798 1.429 . S
C2817 C2811 1.429 . S
C2817 C2818 1.523 . S
C2818 C2799 1.368 . S
C2818 C2812 1.368 . S
C2818 C2817 1.523 . S
C2819 C2803 1.429 . S
C2819 C2815 1.429 . S
C2819 C2820 1.523 . S
C2820 C2804 1.368 . S
C2820 C2816 1.368 . S
C2820 C2819 1.523 . S
H2821 C2796 0.950 . S
H2822 C2798 0.950 . S
H2823 C2799 0.949 . S
H2824 C2801 0.950 . S
H2825 C2803 0.950 . S
C2826 C2827 1.349 . S
C2826 C2828 1.327 . S
C2826 H2851 0.950 . S
C2827 C2826 1.349 . S
C2827 C2843 1.349 . S
C2828 C2826 1.327 . S
C2828 C2847 1.429 . S
C2828 H2852 0.950 . S
C2829 C2846 1.574 . S
C2829 C2848 1.368 . S
C2829 H2853 0.949 . S
H2830 C2834 0.949 . S
C2831 C2832 1.349 . S
C2831 C2833 1.327 . S
C2831 H2854 0.950 . S
C2832 C2831 1.349 . S
C2832 C2844 1.349 . S
C2833 C2831 1.327 . S
C2833 C2849 1.429 . S
C2833 H2855 0.950 . S
C2834 H2830 0.949 . S
C2834 C2842 1.574 . S
C2834 C2850 1.368 . S
H2835 C2843 0.950 . S
H2836 C2841 0.950 . S
H2837 C2842 0.949 . S
H2838 C2844 0.950 . S
H2839 C2845 0.950 . S
H2840 C2846 0.949 . S
C2841 H2836 0.950 . S
C2841 C2843 1.327 . S
C2841 C2847 1.429 . S
C2842 C2834 1.574 . S
C2842 H2837 0.949 . S
C2842 C2848 1.368 . S
C2843 C2827 1.349 . S
C2843 H2835 0.950 . S
C2843 C2841 1.327 . S
C2844 C2832 1.349 . S
C2844 H2838 0.950 . S
C2844 C2845 1.327 . S
C2845 H2839 0.950 . S
C2845 C2844 1.327 . S
C2845 C2849 1.429 . S
C2846 C2829 1.574 . S
C2846 H2840 0.949 . S
C2846 C2850 1.368 . S
C2847 C2828 1.429 . S
C2847 C2841 1.429 . S
C2847 C2848 1.523 . S
C2848 C2829 1.368 . S
C2848 C2842 1.368 . S
C2848 C2847 1.523 . S
C2849 C2833 1.429 . S
C2849 C2845 1.429 . S
C2849 C2850 1.523 . S
C2850 C2834 1.368 . S
C2850 C2846 1.368 . S
C2850 C2849 1.523 . S
H2851 C2826 0.950 . S
H2852 C2828 0.950 . S
H2853 C2829 0.949 . S
H2854 C2831 0.950 . S
H2855 C2833 0.950 . S
C2856 C2857 1.349 . S
C2856 C2858 1.327 . S
C2856 H2881 0.950 . S
C2857 C2856 1.349 . S
C2857 C2873 1.349 . S
C2858 C2856 1.327 . S
C2858 C2877 1.429 . S
C2858 H2882 0.950 . S
C2859 C2876 1.574 . S
C2859 C2878 1.368 . S
C2859 H2883 0.949 . S
H2860 C2864 0.949 . S
C2861 C2862 1.349 . S
C2861 C2863 1.327 . S
C2861 H2884 0.950 . S
C2862 C2861 1.349 . S
C2862 C2874 1.349 . S
C2863 C2861 1.327 . S
C2863 C2879 1.429 . S
C2863 H2885 0.950 . S
C2864 H2860 0.949 . S
C2864 C2872 1.574 . S
C2864 C2880 1.368 . S
H2865 C2873 0.950 . S
H2866 C2871 0.950 . S
H2867 C2872 0.949 . S
H2868 C2874 0.950 . S
H2869 C2875 0.950 . S
H2870 C2876 0.949 . S
C2871 H2866 0.950 . S
C2871 C2873 1.327 . S
C2871 C2877 1.429 . S
C2872 C2864 1.574 . S
C2872 H2867 0.949 . S
C2872 C2878 1.368 . S
C2873 C2857 1.349 . S
C2873 H2865 0.950 . S
C2873 C2871 1.327 . S
C2874 C2862 1.349 . S
C2874 H2868 0.950 . S
C2874 C2875 1.327 . S
C2875 H2869 0.950 . S
C2875 C2874 1.327 . S
C2875 C2879 1.429 . S
C2876 C2859 1.574 . S
C2876 H2870 0.949 . S
C2876 C2880 1.368 . S
C2877 C2858 1.429 . S
C2877 C2871 1.429 . S
C2877 C2878 1.523 . S
C2878 C2859 1.368 . S
C2878 C2872 1.368 . S
C2878 C2877 1.523 . S
C2879 C2863 1.429 . S
C2879 C2875 1.429 . S
C2879 C2880 1.523 . S
C2880 C2864 1.368 . S
C2880 C2876 1.368 . S
C2880 C2879 1.523 . S
H2881 C2856 0.950 . S
H2882 C2858 0.950 . S
H2883 C2859 0.949 . S
H2884 C2861 0.950 . S
H2885 C2863 0.950 . S
C2886 C2887 1.349 . S
C2886 C2888 1.327 . S
C2886 H2911 0.950 . S
C2887 C2886 1.349 . S
C2887 C2903 1.349 . S
C2888 C2886 1.327 . S
C2888 C2907 1.429 . S
C2888 H2912 0.950 . S
C2889 C2906 1.574 . S
C2889 C2908 1.368 . S
C2889 H2913 0.949 . S
H2890 C2894 0.949 . S
C2891 C2892 1.349 . S
C2891 C2893 1.327 . S
C2891 H2914 0.950 . S
C2892 C2891 1.349 . S
C2892 C2904 1.349 . S
C2893 C2891 1.327 . S
C2893 C2909 1.429 . S
C2893 H2915 0.950 . S
C2894 H2890 0.949 . S
C2894 C2902 1.574 . S
C2894 C2910 1.368 . S
H2895 C2903 0.950 . S
H2896 C2901 0.950 . S
H2897 C2902 0.949 . S
H2898 C2904 0.950 . S
H2899 C2905 0.950 . S
H2900 C2906 0.949 . S
C2901 H2896 0.950 . S
C2901 C2903 1.327 . S
C2901 C2907 1.429 . S
C2902 C2894 1.574 . S
C2902 H2897 0.949 . S
C2902 C2908 1.368 . S
C2903 C2887 1.349 . S
C2903 H2895 0.950 . S
C2903 C2901 1.327 . S
C2904 C2892 1.349 . S
C2904 H2898 0.950 . S
C2904 C2905 1.327 . S
C2905 H2899 0.950 . S
C2905 C2904 1.327 . S
C2905 C2909 1.429 . S
C2906 C2889 1.574 . S
C2906 H2900 0.949 . S
C2906 C2910 1.368 . S
C2907 C2888 1.429 . S
C2907 C2901 1.429 . S
C2907 C2908 1.523 . S
C2908 C2889 1.368 . S
C2908 C2902 1.368 . S
C2908 C2907 1.523 . S
C2909 C2893 1.429 . S
C2909 C2905 1.429 . S
C2909 C2910 1.523 . S
C2910 C2894 1.368 . S
C2910 C2906 1.368 . S
C2910 C2909 1.523 . S
H2911 C2886 0.950 . S
H2912 C2888 0.950 . S
H2913 C2889 0.949 . S
H2914 C2891 0.950 . S
H2915 C2893 0.950 . S
C2916 C2917 1.349 . S
C2916 C2918 1.327 . S
C2916 H2941 0.950 . S
C2917 C2916 1.349 . S
C2917 C2933 1.349 . S
C2918 C2916 1.327 . S
C2918 C2937 1.429 . S
C2918 H2942 0.950 . S
C2919 C2936 1.574 . S
C2919 C2938 1.368 . S
C2919 H2943 0.949 . S
H2920 C2924 0.949 . S
C2921 C2922 1.349 . S
C2921 C2923 1.327 . S
C2921 H2944 0.950 . S
C2922 C2921 1.349 . S
C2922 C2934 1.349 . S
C2923 C2921 1.327 . S
C2923 C2939 1.429 . S
C2923 H2945 0.950 . S
C2924 H2920 0.949 . S
C2924 C2932 1.574 . S
C2924 C2940 1.368 . S
H2925 C2933 0.950 . S
H2926 C2931 0.950 . S
H2927 C2932 0.949 . S
H2928 C2934 0.950 . S
H2929 C2935 0.950 . S
H2930 C2936 0.949 . S
C2931 H2926 0.950 . S
C2931 C2933 1.327 . S
C2931 C2937 1.429 . S
C2932 C2924 1.574 . S
C2932 H2927 0.949 . S
C2932 C2938 1.368 . S
C2933 C2917 1.349 . S
C2933 H2925 0.950 . S
C2933 C2931 1.327 . S
C2934 C2922 1.349 . S
C2934 H2928 0.950 . S
C2934 C2935 1.327 . S
C2935 H2929 0.950 . S
C2935 C2934 1.327 . S
C2935 C2939 1.429 . S
C2936 C2919 1.574 . S
C2936 H2930 0.949 . S
C2936 C2940 1.368 . S
C2937 C2918 1.429 . S
C2937 C2931 1.429 . S
C2937 C2938 1.523 . S
C2938 C2919 1.368 . S
C2938 C2932 1.368 . S
C2938 C2937 1.523 . S
C2939 C2923 1.429 . S
C2939 C2935 1.429 . S
C2939 C2940 1.523 . S
C2940 C2924 1.368 . S
C2940 C2936 1.368 . S
C2940 C2939 1.523 . S
H2941 C2916 0.950 . S
H2942 C2918 0.950 . S
H2943 C2919 0.949 . S
H2944 C2921 0.950 . S
H2945 C2923 0.950 . S
C2946 C2947 1.349 . S
C2946 C2948 1.327 . S
C2946 H2971 0.950 . S
C2947 C2946 1.349 . S
C2947 C2963 1.349 . S
C2948 C2946 1.327 . S
C2948 C2967 1.429 . S
C2948 H2972 0.950 . S
C2949 C2966 1.574 . S
C2949 C2968 1.368 . S
C2949 H2973 0.949 . S
H2950 C2954 0.949 . S
C2951 C2952 1.349 . S
C2951 C2953 1.327 . S
C2951 H2974 0.950 . S
C2952 C2951 1.349 . S
C2952 C2964 1.349 . S
C2953 C2951 1.327 . S
C2953 C2969 1.429 . S
C2953 H2975 0.950 . S
C2954 H2950 0.949 . S
C2954 C2962 1.574 . S
C2954 C2970 1.368 . S
H2955 C2963 0.950 . S
H2956 C2961 0.950 . S
H2957 C2962 0.949 . S
H2958 C2964 0.950 . S
H2959 C2965 0.950 . S
H2960 C2966 0.949 . S
C2961 H2956 0.950 . S
C2961 C2963 1.327 . S
C2961 C2967 1.429 . S
C2962 C2954 1.574 . S
C2962 H2957 0.949 . S
C2962 C2968 1.368 . S
C2963 C2947 1.349 . S
C2963 H2955 0.950 . S
C2963 C2961 1.327 . S
C2964 C2952 1.349 . S
C2964 H2958 0.950 . S
C2964 C2965 1.327 . S
C2965 H2959 0.950 . S
C2965 C2964 1.327 . S
C2965 C2969 1.429 . S
C2966 C2949 1.574 . S
C2966 H2960 0.949 . S
C2966 C2970 1.368 . S
C2967 C2948 1.429 . S
C2967 C2961 1.429 . S
C2967 C2968 1.523 . S
C2968 C2949 1.368 . S
C2968 C2962 1.368 . S
C2968 C2967 1.523 . S
C2969 C2953 1.429 . S
C2969 C2965 1.429 . S
C2969 C2970 1.523 . S
C2970 C2954 1.368 . S
C2970 C2966 1.368 . S
C2970 C2969 1.523 . S
H2971 C2946 0.950 . S
H2972 C2948 0.950 . S
H2973 C2949 0.949 . S
H2974 C2951 0.950 . S
H2975 C2953 0.950 . S
C2976 C2977 1.349 1_655 S
C2976 C2978 1.327 . S
C2976 H3001 0.950 . S
C2977 C2976 1.349 1_455 S
C2977 C2993 1.349 . S
C2978 C2976 1.327 . S
C2978 C2997 1.429 1_655 S
C2978 H3002 0.950 . S
C2979 C2996 1.574 . S
C2979 C2998 1.368 . S
C2979 H3003 0.949 . S
H2980 C2984 0.949 . S
C2981 C2982 1.349 1_554 S
C2981 C2983 1.327 . S
C2981 H3004 0.951 . S
C2982 C2981 1.349 1_556 S
C2982 C2994 1.349 1_455 S
C2983 C2981 1.327 . S
C2983 C2999 1.429 . S
C2983 H3005 0.950 . S
C2984 H2980 0.949 . S
C2984 C2992 1.574 . S
C2984 C3000 1.368 1_655 S
H2985 C2993 0.950 . S
H2986 C2991 0.950 . S
H2987 C2992 0.949 . S
H2988 C2994 0.950 . S
H2989 C2995 0.950 . S
H2990 C2996 0.949 . S
C2991 H2986 0.950 . S
C2991 C2993 1.327 . S
C2991 C2997 1.429 . S
C2992 C2984 1.574 . S
C2992 H2987 0.949 . S
C2992 C2998 1.368 1_655 S
C2993 C2977 1.349 . S
C2993 H2985 0.950 . S
C2993 C2991 1.327 . S
C2994 C2982 1.349 1_655 S
C2994 H2988 0.950 . S
C2994 C2995 1.327 1_556 S
C2995 H2989 0.950 . S
C2995 C2994 1.327 1_554 S
C2995 C2999 1.429 1_655 S
C2996 C2979 1.574 . S
C2996 H2990 0.949 . S
C2996 C3000 1.368 . S
C2997 C2978 1.429 1_455 S
C2997 C2991 1.429 . S
C2997 C2998 1.523 . S
C2998 C2979 1.368 . S
C2998 C2992 1.368 1_455 S
C2998 C2997 1.523 . S
C2999 C2983 1.429 . S
C2999 C2995 1.429 1_455 S
C2999 C3000 1.523 . S
C3000 C2984 1.368 1_455 S
C3000 C2996 1.368 . S
C3000 C2999 1.523 . S
H3001 C2976 0.950 . S
H3002 C2978 0.950 . S
H3003 C2979 0.949 . S
H3004 C2981 0.951 . S
H3005 C2983 0.950 . S
C3006 C3007 1.349 . S
C3006 C3008 1.327 1_556 S
C3006 H3031 0.950 . S
C3007 C3006 1.349 . S
C3007 C3023 1.339 1_556 S
C3008 C3006 1.327 1_554 S
C3008 C3027 1.429 . S
C3008 H3032 0.950 . S
C3009 C3026 1.574 . S
C3009 C3028 1.368 . S
C3009 H3033 0.949 . S
H3010 C3014 0.949 . S
C3011 C3012 1.349 . S
C3011 C3013 1.327 . S
C3011 H3034 0.950 . S
C3012 C3011 1.349 . S
C3012 C3024 1.349 . S
C3013 C3011 1.327 . S
C3013 C3029 1.429 . S
C3013 H3035 0.950 . S
C3014 H3010 0.949 . S
C3014 C3022 1.574 . S
C3014 C3030 1.368 . S
H3015 C3023 0.946 1_556 S
H3016 C3021 0.950 . S
H3017 C3022 0.949 . S
H3018 C3024 0.950 . S
H3019 C3025 0.950 . S
H3020 C3026 0.949 . S
C3021 H3016 0.950 . S
C3021 C3023 1.341 . S
C3021 C3027 1.429 . S
C3022 C3014 1.574 . S
C3022 H3017 0.949 . S
C3022 C3028 1.368 . S
C3023 C3007 1.339 1_554 S
C3023 H3015 0.946 1_554 S
C3023 C3021 1.341 . S
C3024 C3012 1.349 . S
C3024 H3018 0.950 . S
C3024 C3025 1.327 . S
C3025 H3019 0.950 . S
C3025 C3024 1.327 . S
C3025 C3029 1.429 . S
C3026 C3009 1.574 . S
C3026 H3020 0.949 . S
C3026 C3030 1.368 . S
C3027 C3008 1.429 . S
C3027 C3021 1.429 . S
C3027 C3028 1.523 . S
C3028 C3009 1.368 . S
C3028 C3022 1.368 . S
C3028 C3027 1.523 . S
C3029 C3013 1.429 . S
C3029 C3025 1.429 . S
C3029 C3030 1.523 . S
C3030 C3014 1.368 . S
C3030 C3026 1.368 . S
C3030 C3029 1.523 . S
H3031 C3006 0.950 . S
H3032 C3008 0.950 . S
H3033 C3009 0.949 . S
H3034 C3011 0.950 . S
H3035 C3013 0.950 . S
C3036 C3037 1.349 1_556 S
C3036 C3038 1.327 . S
C3036 H3061 0.950 . S
C3037 C3036 1.349 1_554 S
C3037 C3053 1.349 1_655 S
C3038 C3036 1.327 . S
C3038 C3057 1.429 . S
C3038 H3062 0.950 . S
C3039 C3056 1.574 . S
C3039 C3058 1.368 1_455 S
C3039 H3063 0.949 . S
H3040 C3044 0.949 . S
C3041 C3042 1.349 1_455 S
C3041 C3043 1.327 . S
C3041 H3064 0.950 . S
C3042 C3041 1.349 1_655 S
C3042 C3054 1.349 . S
C3043 C3041 1.327 . S
C3043 C3059 1.429 1_455 S
C3043 H3065 0.950 . S
C3044 H3040 0.949 . S
C3044 C3052 1.574 . S
C3044 C3060 1.368 . S
H3045 C3053 0.950 . S
H3046 C3051 0.950 . S
H3047 C3052 0.949 . S
H3048 C3054 0.950 . S
H3049 C3055 0.950 . S
H3050 C3056 0.949 . S
C3051 H3046 0.950 . S
C3051 C3053 1.327 1_556 S
C3051 C3057 1.429 1_455 S
C3052 C3044 1.574 . S
C3052 H3047 0.949 . S
C3052 C3058 1.368 . S
C3053 C3037 1.349 1_455 S
C3053 H3045 0.950 . S
C3053 C3051 1.327 1_554 S
C3054 C3042 1.349 . S
C3054 H3048 0.950 . S
C3054 C3055 1.327 . S
C3055 H3049 0.950 . S
C3055 C3054 1.327 . S
C3055 C3059 1.429 . S
C3056 C3039 1.574 . S
C3056 H3050 0.949 . S
C3056 C3060 1.368 1_455 S
C3057 C3038 1.429 . S
C3057 C3051 1.429 1_655 S
C3057 C3058 1.523 . S
C3058 C3039 1.368 1_655 S
C3058 C3052 1.368 . S
C3058 C3057 1.523 . S
C3059 C3043 1.429 1_655 S
C3059 C3055 1.429 . S
C3059 C3060 1.523 . S
C3060 C3044 1.368 . S
C3060 C3056 1.368 1_655 S
C3060 C3059 1.523 . S
H3061 C3036 0.950 . S
H3062 C3038 0.950 . S
H3063 C3039 0.949 . S
H3064 C3041 0.950 . S
H3065 C3043 0.950 . S
C3066 C3067 1.349 . S
C3066 C3068 1.327 . S
C3066 H3091 0.950 . S
C3067 C3066 1.349 . S
C3067 C3083 1.349 . S
C3068 C3066 1.327 . S
C3068 C3087 1.429 . S
C3068 H3092 0.950 . S
C3069 C3086 1.574 . S
C3069 C3088 1.368 . S
C3069 H3093 0.949 . S
H3070 C3074 0.949 . S
C3071 C3072 1.349 . S
C3071 C3073 1.327 1_554 S
C3071 H3094 0.950 . S
C3072 C3071 1.349 . S
C3072 C3084 1.349 1_554 S
C3073 C3071 1.327 1_556 S
C3073 C3089 1.429 . S
C3073 H3095 0.950 . S
C3074 H3070 0.949 . S
C3074 C3082 1.574 . S
C3074 C3090 1.368 . S
H3075 C3083 0.950 . S
H3076 C3081 0.950 . S
H3077 C3082 0.949 . S
H3078 C3084 0.950 . S
H3079 C3085 0.950 . S
H3080 C3086 0.949 . S
C3081 H3076 0.950 . S
C3081 C3083 1.327 . S
C3081 C3087 1.429 . S
C3082 C3074 1.574 . S
C3082 H3077 0.949 . S
C3082 C3088 1.368 . S
C3083 C3067 1.349 . S
C3083 H3075 0.950 . S
C3083 C3081 1.327 . S
C3084 C3072 1.349 1_556 S
C3084 H3078 0.950 . S
C3084 C3085 1.327 . S
C3085 H3079 0.950 . S
C3085 C3084 1.327 . S
C3085 C3089 1.429 . S
C3086 C3069 1.574 . S
C3086 H3080 0.949 . S
C3086 C3090 1.368 . S
C3087 C3068 1.429 . S
C3087 C3081 1.429 . S
C3087 C3088 1.523 . S
C3088 C3069 1.368 . S
C3088 C3082 1.368 . S
C3088 C3087 1.523 . S
C3089 C3073 1.429 . S
C3089 C3085 1.429 . S
C3089 C3090 1.523 . S
C3090 C3074 1.368 . S
C3090 C3086 1.368 . S
C3090 C3089 1.523 . S
H3091 C3066 0.950 . S
H3092 C3068 0.950 . S
H3093 C3069 0.949 . S
H3094 C3071 0.950 . S
H3095 C3073 0.950 . S
C3096 C3097 1.349 . S
C3096 C3098 1.327 . S
C3096 H3121 0.950 . S
C3097 C3096 1.349 . S
C3097 C3113 1.349 . S
C3098 C3096 1.327 . S
C3098 C3117 1.429 . S
C3098 H3122 0.950 . S
C3099 C3116 1.574 . S
C3099 C3118 1.368 . S
C3099 H3123 0.949 . S
H3100 C3104 0.949 . S
C3101 C3102 1.349 . S
C3101 C3103 1.327 . S
C3101 H3124 0.950 . S
C3102 C3101 1.349 . S
C3102 C3114 1.349 . S
C3103 C3101 1.327 . S
C3103 C3119 1.429 . S
C3103 H3125 0.950 . S
C3104 H3100 0.949 . S
C3104 C3112 1.574 . S
C3104 C3120 1.368 . S
H3105 C3113 0.950 . S
H3106 C3111 0.950 . S
H3107 C3112 0.949 . S
H3108 C3114 0.950 . S
H3109 C3115 0.950 . S
H3110 C3116 0.949 . S
C3111 H3106 0.950 . S
C3111 C3113 1.327 . S
C3111 C3117 1.429 . S
C3112 C3104 1.574 . S
C3112 H3107 0.949 . S
C3112 C3118 1.368 . S
C3113 C3097 1.349 . S
C3113 H3105 0.950 . S
C3113 C3111 1.327 . S
C3114 C3102 1.349 . S
C3114 H3108 0.950 . S
C3114 C3115 1.327 . S
C3115 H3109 0.950 . S
C3115 C3114 1.327 . S
C3115 C3119 1.429 . S
C3116 C3099 1.574 . S
C3116 H3110 0.949 . S
C3116 C3120 1.368 . S
C3117 C3098 1.429 . S
C3117 C3111 1.429 . S
C3117 C3118 1.523 . S
C3118 C3099 1.368 . S
C3118 C3112 1.368 . S
C3118 C3117 1.523 . S
C3119 C3103 1.429 . S
C3119 C3115 1.429 . S
C3119 C3120 1.523 . S
C3120 C3104 1.368 . S
C3120 C3116 1.368 . S
C3120 C3119 1.523 . S
H3121 C3096 0.950 . S
H3122 C3098 0.950 . S
H3123 C3099 0.949 . S
H3124 C3101 0.950 . S
H3125 C3103 0.950 . S
C3126 C3127 1.349 . S
C3126 C3128 1.327 . S
C3126 H3151 0.950 . S
C3127 C3126 1.349 . S
C3127 C3143 1.349 . S
C3128 C3126 1.327 . S
C3128 C3147 1.429 . S
C3128 H3152 0.950 . S
C3129 C3146 1.574 . S
C3129 C3148 1.368 . S
C3129 H3153 0.949 . S
H3130 C3134 0.949 . S
C3131 C3132 1.349 . S
C3131 C3133 1.327 . S
C3131 H3154 0.950 . S
C3132 C3131 1.349 . S
C3132 C3144 1.349 . S
C3133 C3131 1.327 . S
C3133 C3149 1.429 . S
C3133 H3155 0.950 . S
C3134 H3130 0.949 . S
C3134 C3142 1.574 . S
C3134 C3150 1.368 . S
H3135 C3143 0.950 . S
H3136 C3141 0.950 . S
H3137 C3142 0.949 . S
H3138 C3144 0.950 . S
H3139 C3145 0.950 . S
H3140 C3146 0.949 . S
C3141 H3136 0.950 . S
C3141 C3143 1.327 . S
C3141 C3147 1.429 . S
C3142 C3134 1.574 . S
C3142 H3137 0.949 . S
C3142 C3148 1.368 . S
C3143 C3127 1.349 . S
C3143 H3135 0.950 . S
C3143 C3141 1.327 . S
C3144 C3132 1.349 . S
C3144 H3138 0.950 . S
C3144 C3145 1.327 . S
C3145 H3139 0.950 . S
C3145 C3144 1.327 . S
C3145 C3149 1.429 . S
C3146 C3129 1.574 . S
C3146 H3140 0.949 . S
C3146 C3150 1.368 . S
C3147 C3128 1.429 . S
C3147 C3141 1.429 . S
C3147 C3148 1.523 . S
C3148 C3129 1.368 . S
C3148 C3142 1.368 . S
C3148 C3147 1.523 . S
C3149 C3133 1.429 . S
C3149 C3145 1.429 . S
C3149 C3150 1.523 . S
C3150 C3134 1.368 . S
C3150 C3146 1.368 . S
C3150 C3149 1.523 . S
H3151 C3126 0.950 . S
H3152 C3128 0.950 . S
H3153 C3129 0.949 . S
H3154 C3131 0.950 . S
H3155 C3133 0.950 . S
C3156 C3157 1.349 1_455 S
C3156 C3158 1.327 . S
C3156 H3181 0.950 . S
C3157 C3156 1.349 1_655 S
C3157 C3173 1.349 . S
C3158 C3156 1.327 . S
C3158 C3177 1.429 1_455 S
C3158 H3182 0.950 . S
C3159 C3176 1.574 . S
C3159 C3178 1.368 . S
C3159 H3183 0.949 . S
H3160 C3164 0.949 . S
C3161 C3162 1.349 . S
C3161 C3163 1.327 . S
C3161 H3184 0.950 . S
C3162 C3161 1.349 . S
C3162 C3174 1.349 1_655 S
C3163 C3161 1.327 . S
C3163 C3179 1.429 . S
C3163 H3185 0.950 . S
C3164 H3160 0.949 . S
C3164 C3172 1.574 . S
C3164 C3180 1.368 1_455 S
H3165 C3173 0.950 . S
H3166 C3171 0.950 . S
H3167 C3172 0.949 . S
H3168 C3174 0.950 . S
H3169 C3175 0.950 . S
H3170 C3176 0.949 . S
C3171 H3166 0.950 . S
C3171 C3173 1.327 . S
C3171 C3177 1.429 . S
C3172 C3164 1.574 . S
C3172 H3167 0.949 . S
C3172 C3178 1.368 1_455 S
C3173 C3157 1.349 . S
C3173 H3165 0.950 . S
C3173 C3171 1.327 . S
C3174 C3162 1.349 1_455 S
C3174 H3168 0.950 . S
C3174 C3175 1.327 . S
C3175 H3169 0.950 . S
C3175 C3174 1.327 . S
C3175 C3179 1.429 1_455 S
C3176 C3159 1.574 . S
C3176 H3170 0.949 . S
C3176 C3180 1.368 . S
C3177 C3158 1.429 1_655 S
C3177 C3171 1.429 . S
C3177 C3178 1.523 . S
C3178 C3159 1.368 . S
C3178 C3172 1.368 1_655 S
C3178 C3177 1.523 . S
C3179 C3163 1.429 . S
C3179 C3175 1.429 1_655 S
C3179 C3180 1.523 . S
C3180 C3164 1.368 1_655 S
C3180 C3176 1.368 . S
C3180 C3179 1.523 . S
H3181 C3156 0.950 . S
H3182 C3158 0.950 . S
H3183 C3159 0.949 . S
H3184 C3161 0.950 . S
H3185 C3163 0.950 . S
C3186 C3187 1.349 . S
C3186 C3188 1.327 . S
C3186 H3211 0.950 . S
C3187 C3186 1.349 . S
C3187 C3203 1.349 . S
C3188 C3186 1.327 . S
C3188 C3207 1.429 . S
C3188 H3212 0.950 . S
C3189 C3206 1.574 . S
C3189 C3208 1.368 . S
C3189 H3213 0.949 . S
H3190 C3194 0.949 . S
C3191 C3192 1.349 . S
C3191 C3193 1.327 . S
C3191 H3214 0.950 . S
C3192 C3191 1.349 . S
C3192 C3204 1.349 . S
C3193 C3191 1.327 . S
C3193 C3209 1.429 . S
C3193 H3215 0.950 . S
C3194 H3190 0.949 . S
C3194 C3202 1.574 . S
C3194 C3210 1.368 . S
H3195 C3203 0.950 . S
H3196 C3201 0.950 . S
H3197 C3202 0.949 . S
H3198 C3204 0.950 . S
H3199 C3205 0.950 . S
H3200 C3206 0.949 . S
C3201 H3196 0.950 . S
C3201 C3203 1.327 . S
C3201 C3207 1.429 . S
C3202 C3194 1.574 . S
C3202 H3197 0.949 . S
C3202 C3208 1.368 . S
C3203 C3187 1.349 . S
C3203 H3195 0.950 . S
C3203 C3201 1.327 . S
C3204 C3192 1.349 . S
C3204 H3198 0.950 . S
C3204 C3205 1.327 . S
C3205 H3199 0.950 . S
C3205 C3204 1.327 . S
C3205 C3209 1.429 . S
C3206 C3189 1.574 . S
C3206 H3200 0.949 . S
C3206 C3210 1.368 . S
C3207 C3188 1.429 . S
C3207 C3201 1.429 . S
C3207 C3208 1.523 . S
C3208 C3189 1.368 . S
C3208 C3202 1.368 . S
C3208 C3207 1.523 . S
C3209 C3193 1.429 . S
C3209 C3205 1.429 . S
C3209 C3210 1.523 . S
C3210 C3194 1.368 . S
C3210 C3206 1.368 . S
C3210 C3209 1.523 . S
H3211 C3186 0.950 . S
H3212 C3188 0.950 . S
H3213 C3189 0.949 . S
H3214 C3191 0.950 . S
H3215 C3193 0.950 . S
C3216 C3217 1.349 . S
C3216 C3218 1.327 . S
C3216 H3241 0.950 . S
C3217 C3216 1.349 . S
C3217 C3233 1.349 . S
C3218 C3216 1.327 . S
C3218 C3237 1.429 . S
C3218 H3242 0.950 . S
C3219 C3236 1.574 . S
C3219 C3238 1.368 . S
C3219 H3243 0.949 . S
H3220 C3224 0.949 . S
C3221 C3222 1.349 . S
C3221 C3223 1.327 . S
C3221 H3244 0.950 . S
C3222 C3221 1.349 . S
C3222 C3234 1.349 . S
C3223 C3221 1.327 . S
C3223 C3239 1.429 . S
C3223 H3245 0.950 . S
C3224 H3220 0.949 . S
C3224 C3232 1.574 . S
C3224 C3240 1.368 . S
H3225 C3233 0.950 . S
H3226 C3231 0.950 . S
H3227 C3232 0.949 . S
H3228 C3234 0.950 . S
H3229 C3235 0.950 . S
H3230 C3236 0.949 . S
C3231 H3226 0.950 . S
C3231 C3233 1.327 . S
C3231 C3237 1.429 . S
C3232 C3224 1.574 . S
C3232 H3227 0.949 . S
C3232 C3238 1.368 . S
C3233 C3217 1.349 . S
C3233 H3225 0.950 . S
C3233 C3231 1.327 . S
C3234 C3222 1.349 . S
C3234 H3228 0.950 . S
C3234 C3235 1.327 . S
C3235 H3229 0.950 . S
C3235 C3234 1.327 . S
C3235 C3239 1.429 . S
C3236 C3219 1.574 . S
C3236 H3230 0.949 . S
C3236 C3240 1.368 . S
C3237 C3218 1.429 . S
C3237 C3231 1.429 . S
C3237 C3238 1.523 . S
C3238 C3219 1.368 . S
C3238 C3232 1.368 . S
C3238 C3237 1.523 . S
C3239 C3223 1.429 . S
C3239 C3235 1.429 . S
C3239 C3240 1.523 . S
C3240 C3224 1.368 . S
C3240 C3236 1.368 . S
C3240 C3239 1.523 . S
H3241 C3216 0.950 . S
H3242 C3218 0.950 . S
H3243 C3219 0.949 . S
H3244 C3221 0.950 . S
H3245 C3223 0.950 . S
C3246 C3247 1.349 . S
C3246 C3248 1.327 . S
C3246 H3271 0.950 . S
C3247 C3246 1.349 . S
C3247 C3263 1.349 . S
C3248 C3246 1.327 . S
C3248 C3267 1.429 . S
C3248 H3272 0.950 . S
C3249 C3266 1.574 . S
C3249 C3268 1.368 . S
C3249 H3273 0.949 . S
H3250 C3254 0.949 . S
C3251 C3252 1.349 . S
C3251 C3253 1.327 . S
C3251 H3274 0.950 . S
C3252 C3251 1.349 . S
C3252 C3264 1.349 . S
C3253 C3251 1.327 . S
C3253 C3269 1.429 . S
C3253 H3275 0.950 . S
C3254 H3250 0.949 . S
C3254 C3262 1.574 . S
C3254 C3270 1.368 . S
H3255 C3263 0.950 . S
H3256 C3261 0.950 . S
H3257 C3262 0.949 . S
H3258 C3264 0.950 . S
H3259 C3265 0.950 . S
H3260 C3266 0.949 . S
C3261 H3256 0.950 . S
C3261 C3263 1.327 . S
C3261 C3267 1.429 . S
C3262 C3254 1.574 . S
C3262 H3257 0.949 . S
C3262 C3268 1.368 . S
C3263 C3247 1.349 . S
C3263 H3255 0.950 . S
C3263 C3261 1.327 . S
C3264 C3252 1.349 . S
C3264 H3258 0.950 . S
C3264 C3265 1.327 . S
C3265 H3259 0.950 . S
C3265 C3264 1.327 . S
C3265 C3269 1.429 . S
C3266 C3249 1.574 . S
C3266 H3260 0.949 . S
C3266 C3270 1.368 . S
C3267 C3248 1.429 . S
C3267 C3261 1.429 . S
C3267 C3268 1.523 . S
C3268 C3249 1.368 . S
C3268 C3262 1.368 . S
C3268 C3267 1.523 . S
C3269 C3253 1.429 . S
C3269 C3265 1.429 . S
C3269 C3270 1.523 . S
C3270 C3254 1.368 . S
C3270 C3266 1.368 . S
C3270 C3269 1.523 . S
H3271 C3246 0.950 . S
H3272 C3248 0.950 . S
H3273 C3249 0.949 . S
H3274 C3251 0.950 . S
H3275 C3253 0.950 . S
C3276 C3277 1.349 . S
C3276 C3278 1.327 . S
C3276 H3301 0.950 . S
C3277 C3276 1.349 . S
C3277 C3293 1.349 . S
C3278 C3276 1.327 . S
C3278 C3297 1.429 . S
C3278 H3302 0.950 . S
C3279 C3296 1.574 . S
C3279 C3298 1.368 . S
C3279 H3303 0.949 . S
H3280 C3284 0.949 . S
C3281 C3282 1.349 . S
C3281 C3283 1.327 . S
C3281 H3304 0.950 . S
C3282 C3281 1.349 . S
C3282 C3294 1.349 . S
C3283 C3281 1.327 . S
C3283 C3299 1.429 . S
C3283 H3305 0.950 . S
C3284 H3280 0.949 . S
C3284 C3292 1.574 . S
C3284 C3300 1.368 . S
H3285 C3293 0.950 . S
H3286 C3291 0.950 . S
H3287 C3292 0.949 . S
H3288 C3294 0.950 . S
H3289 C3295 0.950 . S
H3290 C3296 0.949 . S
C3291 H3286 0.950 . S
C3291 C3293 1.327 . S
C3291 C3297 1.429 . S
C3292 C3284 1.574 . S
C3292 H3287 0.949 . S
C3292 C3298 1.368 . S
C3293 C3277 1.349 . S
C3293 H3285 0.950 . S
C3293 C3291 1.327 . S
C3294 C3282 1.349 . S
C3294 H3288 0.950 . S
C3294 C3295 1.327 . S
C3295 H3289 0.950 . S
C3295 C3294 1.327 . S
C3295 C3299 1.429 . S
C3296 C3279 1.574 . S
C3296 H3290 0.949 . S
C3296 C3300 1.368 . S
C3297 C3278 1.429 . S
C3297 C3291 1.429 . S
C3297 C3298 1.523 . S
C3298 C3279 1.368 . S
C3298 C3292 1.368 . S
C3298 C3297 1.523 . S
C3299 C3283 1.429 . S
C3299 C3295 1.429 . S
C3299 C3300 1.523 . S
C3300 C3284 1.368 . S
C3300 C3296 1.368 . S
C3300 C3299 1.523 . S
H3301 C3276 0.950 . S
H3302 C3278 0.950 . S
H3303 C3279 0.949 . S
H3304 C3281 0.950 . S
H3305 C3283 0.950 . S
C3306 C3307 1.349 . S
C3306 C3308 1.327 . S
C3306 H3331 0.950 . S
C3307 C3306 1.349 . S
C3307 C3323 1.349 . S
C3308 C3306 1.327 . S
C3308 C3327 1.429 . S
C3308 H3332 0.950 . S
C3309 C3326 1.574 . S
C3309 C3328 1.368 . S
C3309 H3333 0.949 . S
H3310 C3314 0.949 . S
C3311 C3312 1.349 . S
C3311 C3313 1.327 . S
C3311 H3334 0.950 . S
C3312 C3311 1.349 . S
C3312 C3324 1.349 . S
C3313 C3311 1.327 . S
C3313 C3329 1.429 . S
C3313 H3335 0.950 . S
C3314 H3310 0.949 . S
C3314 C3322 1.574 . S
C3314 C3330 1.368 . S
H3315 C3323 0.950 . S
H3316 C3321 0.950 . S
H3317 C3322 0.949 . S
H3318 C3324 0.950 . S
H3319 C3325 0.950 . S
H3320 C3326 0.949 . S
C3321 H3316 0.950 . S
C3321 C3323 1.327 . S
C3321 C3327 1.429 . S
C3322 C3314 1.574 . S
C3322 H3317 0.949 . S
C3322 C3328 1.368 . S
C3323 C3307 1.349 . S
C3323 H3315 0.950 . S
C3323 C3321 1.327 . S
C3324 C3312 1.349 . S
C3324 H3318 0.950 . S
C3324 C3325 1.327 . S
C3325 H3319 0.950 . S
C3325 C3324 1.327 . S
C3325 C3329 1.429 . S
C3326 C3309 1.574 . S
C3326 H3320 0.949 . S
C3326 C3330 1.368 . S
C3327 C3308 1.429 . S
C3327 C3321 1.429 . S
C3327 C3328 1.523 . S
C3328 C3309 1.368 . S
C3328 C3322 1.368 . S
C3328 C3327 1.523 . S
C3329 C3313 1.429 . S
C3329 C3325 1.429 . S
C3329 C3330 1.523 . S
C3330 C3314 1.368 . S
C3330 C3326 1.368 . S
C3330 C3329 1.523 . S
H3331 C3306 0.950 . S
H3332 C3308 0.950 . S
H3333 C3309 0.949 . S
H3334 C3311 0.950 . S
H3335 C3313 0.950 . S
C3336 C3337 1.349 1_554 S
C3336 C3338 1.327 . S
C3336 H3361 0.950 . S
C3337 C3336 1.349 1_556 S
C3337 C3353 1.349 . S
C3338 C3336 1.327 . S
C3338 C3357 1.429 . S
C3338 H3362 0.950 . S
C3339 C3356 1.574 . S
C3339 C3358 1.368 . S
C3339 H3363 0.949 . S
H3340 C3344 0.949 . S
C3341 C3342 1.349 . S
C3341 C3343 1.327 . S
C3341 H3364 0.950 . S
C3342 C3341 1.349 . S
C3342 C3354 1.349 . S
C3343 C3341 1.327 . S
C3343 C3359 1.429 . S
C3343 H3365 0.950 . S
C3344 H3340 0.949 . S
C3344 C3352 1.574 . S
C3344 C3360 1.368 . S
H3345 C3353 0.950 . S
H3346 C3351 0.950 . S
H3347 C3352 0.949 . S
H3348 C3354 0.950 . S
H3349 C3355 0.950 . S
H3350 C3356 0.949 . S
C3351 H3346 0.950 . S
C3351 C3353 1.327 1_554 S
C3351 C3357 1.429 . S
C3352 C3344 1.574 . S
C3352 H3347 0.949 . S
C3352 C3358 1.368 . S
C3353 C3337 1.349 . S
C3353 H3345 0.950 . S
C3353 C3351 1.327 1_556 S
C3354 C3342 1.349 . S
C3354 H3348 0.950 . S
C3354 C3355 1.327 . S
C3355 H3349 0.950 . S
C3355 C3354 1.327 . S
C3355 C3359 1.429 . S
C3356 C3339 1.574 . S
C3356 H3350 0.949 . S
C3356 C3360 1.368 . S
C3357 C3338 1.429 . S
C3357 C3351 1.429 . S
C3357 C3358 1.523 . S
C3358 C3339 1.368 . S
C3358 C3352 1.368 . S
C3358 C3357 1.523 . S
C3359 C3343 1.429 . S
C3359 C3355 1.429 . S
C3359 C3360 1.523 . S
C3360 C3344 1.368 . S
C3360 C3356 1.368 . S
C3360 C3359 1.523 . S
H3361 C3336 0.950 . S
H3362 C3338 0.950 . S
H3363 C3339 0.949 . S
H3364 C3341 0.950 . S
H3365 C3343 0.950 . S
C3366 C3367 1.349 . S
C3366 C3368 1.327 . S
C3366 H3391 0.950 . S
C3367 C3366 1.349 . S
C3367 C3383 1.349 . S
C3368 C3366 1.327 . S
C3368 C3387 1.429 . S
C3368 H3392 0.950 . S
C3369 C3386 1.574 . S
C3369 C3388 1.368 . S
C3369 H3393 0.949 . S
H3370 C3374 0.949 . S
C3371 C3372 1.349 1_554 S
C3371 C3373 1.327 . S
C3371 H3394 0.950 1_554 S
C3372 C3371 1.349 1_556 S
C3372 C3384 1.349 . S
C3373 C3371 1.327 . S
C3373 C3389 1.429 . S
C3373 H3395 0.950 . S
C3374 H3370 0.949 . S
C3374 C3382 1.574 . S
C3374 C3390 1.368 . S
H3375 C3383 0.950 . S
H3376 C3381 0.950 . S
H3377 C3382 0.949 . S
H3378 C3384 0.950 . S
H3379 C3385 0.950 . S
H3380 C3386 0.949 . S
C3381 H3376 0.950 . S
C3381 C3383 1.327 . S
C3381 C3387 1.429 . S
C3382 C3374 1.574 . S
C3382 H3377 0.949 . S
C3382 C3388 1.368 . S
C3383 C3367 1.349 . S
C3383 H3375 0.950 . S
C3383 C3381 1.327 . S
C3384 C3372 1.349 . S
C3384 H3378 0.950 . S
C3384 C3385 1.327 1_556 S
C3385 H3379 0.950 . S
C3385 C3384 1.327 1_554 S
C3385 C3389 1.429 . S
C3386 C3369 1.574 . S
C3386 H3380 0.949 . S
C3386 C3390 1.368 . S
C3387 C3368 1.429 . S
C3387 C3381 1.429 . S
C3387 C3388 1.523 . S
C3388 C3369 1.368 . S
C3388 C3382 1.368 . S
C3388 C3387 1.523 . S
C3389 C3373 1.429 . S
C3389 C3385 1.429 . S
C3389 C3390 1.523 . S
C3390 C3374 1.368 . S
C3390 C3386 1.368 . S
C3390 C3389 1.523 . S
H3391 C3366 0.950 . S
H3392 C3368 0.950 . S
H3393 C3369 0.949 . S
H3394 C3371 0.950 1_556 S
H3395 C3373 0.950 . S
C3396 C3397 1.349 . S
C3396 C3398 1.327 1_554 S
C3396 H3421 0.950 . S
C3397 C3396 1.349 . S
C3397 C3413 1.349 1_554 S
C3398 C3396 1.327 1_556 S
C3398 C3417 1.429 . S
C3398 H3422 0.950 . S
C3399 C3416 1.574 . S
C3399 C3418 1.368 . S
C3399 H3423 0.949 . S
H3400 C3404 0.949 . S
C3401 C3402 1.349 . S
C3401 C3403 1.327 . S
C3401 H3424 0.950 . S
C3402 C3401 1.349 . S
C3402 C3414 1.349 . S
C3403 C3401 1.327 . S
C3403 C3419 1.429 . S
C3403 H3425 0.950 . S
C3404 H3400 0.949 . S
C3404 C3412 1.574 . S
C3404 C3420 1.368 . S
H3405 C3413 0.946 1_554 S
H3406 C3411 0.950 . S
H3407 C3412 0.949 . S
H3408 C3414 0.950 . S
H3409 C3415 0.950 . S
H3410 C3416 0.949 . S
C3411 H3406 0.950 . S
C3411 C3413 1.327 . S
C3411 C3417 1.429 . S
C3412 C3404 1.574 . S
C3412 H3407 0.949 . S
C3412 C3418 1.368 . S
C3413 C3397 1.349 1_556 S
C3413 H3405 0.946 1_556 S
C3413 C3411 1.327 . S
C3414 C3402 1.349 . S
C3414 H3408 0.950 . S
C3414 C3415 1.327 . S
C3415 H3409 0.950 . S
C3415 C3414 1.327 . S
C3415 C3419 1.429 . S
C3416 C3399 1.574 . S
C3416 H3410 0.949 . S
C3416 C3420 1.368 . S
C3417 C3398 1.429 . S
C3417 C3411 1.429 . S
C3417 C3418 1.523 . S
C3418 C3399 1.368 . S
C3418 C3412 1.368 . S
C3418 C3417 1.523 . S
C3419 C3403 1.429 . S
C3419 C3415 1.429 . S
C3419 C3420 1.523 . S
C3420 C3404 1.368 . S
C3420 C3416 1.368 . S
C3420 C3419 1.523 . S
H3421 C3396 0.950 . S
H3422 C3398 0.950 . S
H3423 C3399 0.949 . S
H3424 C3401 0.950 . S
H3425 C3403 0.950 . S
C3426 C3427 1.349 . S
C3426 C3428 1.327 . S
C3426 H3451 0.950 . S
C3427 C3426 1.349 . S
C3427 C3443 1.349 . S
C3428 C3426 1.327 . S
C3428 C3447 1.429 . S
C3428 H3452 0.950 . S
C3429 C3446 1.574 . S
C3429 C3448 1.368 . S
C3429 H3453 0.949 . S
H3430 C3434 0.949 . S
C3431 C3432 1.349 . S
C3431 C3433 1.327 1_554 S
C3431 H3454 0.950 . S
C3432 C3431 1.349 . S
C3432 C3444 1.349 . S
C3433 C3431 1.327 1_556 S
C3433 C3449 1.429 . S
C3433 H3455 0.950 . S
C3434 H3430 0.949 . S
C3434 C3442 1.574 . S
C3434 C3450 1.368 . S
H3435 C3443 0.950 . S
H3436 C3441 0.950 . S
H3437 C3442 0.949 . S
H3438 C3444 0.950 . S
H3439 C3445 0.950 . S
H3440 C3446 0.949 . S
C3441 H3436 0.950 . S
C3441 C3443 1.327 . S
C3441 C3447 1.429 . S
C3442 C3434 1.574 . S
C3442 H3437 0.949 . S
C3442 C3448 1.368 . S
C3443 C3427 1.349 . S
C3443 H3435 0.950 . S
C3443 C3441 1.327 . S
C3444 C3432 1.349 . S
C3444 H3438 0.950 . S
C3444 C3445 1.327 1_554 S
C3445 H3439 0.950 . S
C3445 C3444 1.327 1_556 S
C3445 C3449 1.429 . S
C3446 C3429 1.574 . S
C3446 H3440 0.949 . S
C3446 C3450 1.368 . S
C3447 C3428 1.429 . S
C3447 C3441 1.429 . S
C3447 C3448 1.523 . S
C3448 C3429 1.368 . S
C3448 C3442 1.368 . S
C3448 C3447 1.523 . S
C3449 C3433 1.429 . S
C3449 C3445 1.429 . S
C3449 C3450 1.523 . S
C3450 C3434 1.368 . S
C3450 C3446 1.368 . S
C3450 C3449 1.523 . S
H3451 C3426 0.950 . S
H3452 C3428 0.950 . S
H3453 C3429 0.949 . S
H3454 C3431 0.950 . S
H3455 C3433 0.950 . S
C1057 C7 0.528 . S
C1062 C73 0.528 . S
C1087 C40 0.526 . S
C1092 C106 0.526 . S
C1117 C139 0.528 . S
C1122 C205 0.528 . S
C1147 C172 0.526 . S
C1152 C238 0.526 . S
C1177 C337 0.528 . S
C1182 C271 0.528 . S
C1207 C304 0.526 . S
C1212 C370 0.526 . S
C1237 C403 0.528 . S
C1242 C469 0.528 . S
C1267 C436 0.526 . S
C1272 C502 0.526 . S
C1297 C601 0.527 . S
C1302 C535 0.527 . S
C1327 C634 0.526 . S
C1332 C568 0.526 . S
C1357 C667 0.527 . S
C1362 C733 0.527 . S
C1387 C766 0.526 . S
C1392 C700 0.526 . S
C1417 C865 0.527 . S
C1422 C799 0.527 . S
C1447 C898 0.526 . S
C1452 C832 0.526 . S
C1477 C997 0.527 . S
C1482 C931 0.527 . S
C1507 C964 0.526 . S
C1512 C1030 0.526 . S
C1537 N13 1.905 . S
C1542 N46 1.897 . S
C1567 N79 1.905 . S
C1572 N112 1.897 . S
C1597 N178 1.905 . S
C1602 N145 1.896 . S
C1627 N211 1.905 . S
C1632 N244 1.897 . S
C1657 N310 1.905 . S
C1662 N277 1.896 . S
C1687 N343 1.905 . S
C1692 N376 1.897 . S
C1717 N409 1.905 . S
C1722 N442 1.897 . S
C1747 N475 1.905 . S
C1752 N508 1.897 . S
C1777 N541 1.907 . S
C1782 N574 1.907 . S
C1807 N640 1.907 . S
C1812 N607 1.907 . S
C1837 N706 1.907 . S
C1842 N673 1.907 . S
C1867 N739 1.907 . S
C1872 N772 1.907 . S
C1897 N805 1.907 . S
C1902 N838 1.907 . S
C1927 N871 1.907 . S
C1932 N904 1.907 . S
C1957 N937 1.907 . S
C1962 N970 1.907 . S
C1987 N1036 1.907 . S
C1992 N1003 1.907 . S
C2017 C153 1.626 . S
C2022 C21 1.626 . S
C2047 C54 1.626 . S
C2052 C978 1.626 . S
C2077 C483 1.626 . S
C2082 C87 1.626 . S
C2107 C780 1.627 . S
C2112 C120 1.627 . S
C2137 C846 1.626 . S
C2142 C186 1.626 . S
C2167 C351 1.626 . S
C2172 C219 1.626 . S
C2197 C252 1.627 . S
C2202 C648 1.627 . S
C2227 C417 1.626 . S
C2232 C285 1.626 . S
C2257 C318 1.626 . S
C2262 C714 1.626 . S
C2287 C384 1.627 . S
C2292 C1044 1.627 . S
C2317 C582 1.626 . S
C2322 C450 1.626 . S
C2347 C912 1.627 . S
C2352 C516 1.627 . S
C2377 C549 1.626 . S
C2382 C681 1.626 . S
C2407 C615 1.626 . S
C2412 C1011 1.626 . S
C2437 C879 1.626 . S
C2442 C747 1.626 . S
C2467 C813 1.626 . S
C2472 C945 1.626 . S
C2497 N2 1.169 . S
C2502 N629 1.177 . S
C2527 N596 1.166 . S
C2532 N35 1.166 . S
C2557 N68 1.169 . S
C2562 N563 1.177 . S
C2587 N101 1.166 . S
C2592 N530 1.166 . S
C2617 N761 1.169 . S
C2622 N134 1.177 . S
C2647 N167 1.166 . S
C2652 N728 1.166 . S
C2677 N695 1.169 . S
C2682 N200 1.177 . S
C2707 N233 1.166 . S
C2712 N662 1.166 . S
C2737 N266 1.169 . S
C2742 N893 1.177 . S
C2767 N299 1.166 . S
C2772 N860 1.166 . S
C2797 N332 1.169 . S
C2802 N827 1.177 . S
C2827 N365 1.166 . S
C2832 N794 1.166 . S
C2857 N398 1.169 . S
C2862 N1025 1.177 . S
C2887 N992 1.166 . S
C2892 N431 1.166 . S
C2917 N959 1.169 . S
C2922 N464 1.177 . S
C2947 N926 1.166 . S
C2952 N497 1.166 . S
C2977 C18 1.212 . S
C2982 C84 1.212 . S
C3007 C117 1.212 . S
C3012 C51 1.212 . S
C3037 C216 1.212 . S
C3042 C150 1.212 . S
C3067 C183 1.212 . S
C3072 C249 1.212 . S
C3097 C282 1.212 . S
C3102 C348 1.212 . S
C3127 C315 1.212 . S
C3132 C381 1.212 . S
C3157 C480 1.212 . S
C3162 C414 1.212 . S
C3187 C447 1.212 . S
C3192 C513 1.212 . S
C3217 C546 1.213 . S
C3222 C612 1.213 . S
C3247 C579 1.212 . S
C3252 C645 1.212 . S
C3277 C744 1.213 . S
C3282 C678 1.213 . S
C3307 C777 1.212 . S
C3312 C711 1.212 . S
C3337 C876 1.213 . S
C3342 C810 1.213 . S
C3367 C843 1.212 . S
C3372 C909 1.212 . S
C3397 C1008 1.213 . S
C3402 C942 1.213 . S
C3427 C975 1.212 . S
C3432 C1041 1.212 . S
