# Generated by pormake.
# Topology sow, (4)-cn, num edge types: 1
# Building blocks:
#     Node 0, Type 0, BuildingBlock: ESEHIV_clean_sbu_0, # of connection points: 4
#     Node 1, Type 0, BuildingBlock: ESEHIV_clean_sbu_0, # of connection points: 4
#     Node 2, Type 0, BuildingBlock: ESEHIV_clean_sbu_0, # of connection points: 4
#     Node 3, Type 0, BuildingBlock: ESEHIV_clean_sbu_0, # of connection points: 4
#     Node 4, Type 0, BuildingBlock: ESEHIV_clean_sbu_0, # of connection points: 4
#     Node 5, Type 0, BuildingBlock: ESEHIV_clean_sbu_0, # of connection points: 4
#     Node 6, Type 0, BuildingBlock: ESEHIV_clean_sbu_0, # of connection points: 4
#     Node 7, Type 0, BuildingBlock: ESEHIV_clean_sbu_0, # of connection points: 4
#     Edge 8, Type (0, 0), BuildingBlock: XUDNAN_clean_linker_2, # of connection points: 2
#     Edge 9, Type (0, 0), BuildingBlock: XUDNAN_clean_linker_2, # of connection points: 2
#     Edge 10, Type (0, 0), BuildingBlock: XUDNAN_clean_linker_2, # of connection points: 2
#     Edge 11, Type (0, 0), BuildingBlock: XUDNAN_clean_linker_2, # of connection points: 2
#     Edge 12, Type (0, 0), BuildingBlock: XUDNAN_clean_linker_2, # of connection points: 2
#     Edge 13, Type (0, 0), BuildingBlock: XUDNAN_clean_linker_2, # of connection points: 2
#     Edge 14, Type (0, 0), BuildingBlock: XUDNAN_clean_linker_2, # of connection points: 2
#     Edge 15, Type (0, 0), BuildingBlock: XUDNAN_clean_linker_2, # of connection points: 2
#     Edge 16, Type (0, 0), BuildingBlock: XUDNAN_clean_linker_2, # of connection points: 2
#     Edge 17, Type (0, 0), BuildingBlock: XUDNAN_clean_linker_2, # of connection points: 2
#     Edge 18, Type (0, 0), BuildingBlock: XUDNAN_clean_linker_2, # of connection points: 2
#     Edge 19, Type (0, 0), BuildingBlock: XUDNAN_clean_linker_2, # of connection points: 2
#     Edge 20, Type (0, 0), BuildingBlock: XUDNAN_clean_linker_2, # of connection points: 2
#     Edge 21, Type (0, 0), BuildingBlock: XUDNAN_clean_linker_2, # of connection points: 2
#     Edge 22, Type (0, 0), BuildingBlock: XUDNAN_clean_linker_2, # of connection points: 2
#     Edge 23, Type (0, 0), BuildingBlock: XUDNAN_clean_linker_2, # of connection points: 2
# Relax obj value: 0.066
# Max RMSD: 0.215
# Mean RMSD: 0.187
data_MOF--net-sow--node1-ESEHIV_clean_sbu_0--edge1-XUDNAN_clean_linker_2
_symmetry_space_group_name_H-M    P1
_symmetry_Int_Tables_number       1
_symmetry_cell_setting            triclinic
loop_
_symmetry_equiv_pos_as_xyz
'x, y, z'
_cell_length_a     48.222929
_cell_length_b     19.153347
_cell_length_c     22.386438
_cell_angle_alpha  88.966045
_cell_angle_beta   90.907162
_cell_angle_gamma 89.320675
loop_
_atom_site_label
_atom_site_type_symbol
_atom_site_fract_x
_atom_site_fract_y
_atom_site_fract_z
_atom_type_partial_charge
Cu0 Cu 0.16657 0.23928 0.19106 0.0
N1 N 0.18316 0.29355 0.25119 0.0
N2 N 0.21528 0.31973 0.32062 0.0
C3 C 0.21011 0.28783 0.26837 0.0
C4 C 0.19067 0.34626 0.33733 0.0
C5 C 0.17102 0.33111 0.29414 0.0
O6 O 0.19605 0.21302 0.13618 0.0
C7 C 0.12516 0.18504 0.25828 0.0
O8 O 0.11912 0.2519 0.2562 0.0
H9 H 0.22526 0.25673 0.24515 0.0
H10 H 0.14921 0.34407 0.29583 0.0
N11 N 0.13861 0.2832 0.14371 0.0
N12 N 0.10015 0.28113 0.08608 0.0
C13 C 0.12351 0.24682 0.10407 0.0
C14 C 0.1245 0.34361 0.15053 0.0
C15 C 0.10062 0.34223 0.1152 0.0
C16 C 0.2098 0.26432 0.11523 0.0
O17 O 0.20304 0.32776 0.13158 0.0
H18 H 0.12837 0.19338 0.09276 0.0
H19 H 0.12992 0.3831 0.18247 0.0
O20 O 0.14693 0.16327 0.2322 0.0
H21 H 0.18708 0.37328 0.37854 0.0
H22 H 0.08435 0.38164 0.11312 0.0
Cu23 Cu 0.41295 0.33912 0.69271 0.0
N24 N 0.39498 0.34046 0.76711 0.0
N25 N 0.36553 0.325 0.84291 0.0
C26 C 0.37112 0.31092 0.78521 0.0
C27 C 0.38669 0.36497 0.86173 0.0
C28 C 0.40469 0.37425 0.81518 0.0
O29 O 0.38775 0.32994 0.62331 0.0
C30 C 0.45117 0.22942 0.73487 0.0
O31 O 0.43354 0.21511 0.77736 0.0
H32 H 0.35782 0.28069 0.75683 0.0
H33 H 0.4237 0.40362 0.81627 0.0
N34 N 0.42992 0.42528 0.68101 0.0
N35 N 0.46122 0.50314 0.65063 0.0
C36 C 0.45425 0.43504 0.65355 0.0
C37 C 0.42102 0.48928 0.69608 0.0
C38 C 0.44032 0.53744 0.67754 0.0
C39 C 0.36783 0.28772 0.61566 0.0
O40 O 0.36301 0.23916 0.65609 0.0
H41 H 0.46664 0.39265 0.63641 0.0
H42 H 0.40179 0.50014 0.71855 0.0
O43 O 0.44456 0.27407 0.69403 0.0
H44 H 0.38925 0.38527 0.90624 0.0
H45 H 0.43872 0.59342 0.68248 0.0
Cu46 Cu 0.65912 0.11485 0.89438 0.0
N47 N 0.67859 0.1722 0.84145 0.0
N48 N 0.70801 0.20191 0.76921 0.0
C49 C 0.6916 0.15152 0.79176 0.0
C50 C 0.70528 0.25633 0.80617 0.0
C51 C 0.68709 0.23787 0.85064 0.0
O52 O 0.68119 0.10439 0.96801 0.0
C53 C 0.63193 0.00375 0.8282 0.0
O54 O 0.63101 0.93802 0.81267 0.0
H55 H 0.69033 0.09918 0.77452 0.0
H56 H 0.68151 0.26881 0.88867 0.0
N57 N 0.62467 0.15101 0.91611 0.0
N58 N 0.58705 0.21685 0.93123 0.0
C59 C 0.61325 0.21554 0.91052 0.0
C60 C 0.60532 0.11137 0.94233 0.0
C61 C 0.58207 0.15149 0.95116 0.0
C62 C 0.70399 0.07036 0.97334 0.0
O63 O 0.71373 0.0376 0.92691 0.0
H64 H 0.6237 0.26012 0.89132 0.0
H65 H 0.60797 0.05653 0.95366 0.0
O66 O 0.653 0.02427 0.85827 0.0
H67 H 0.71618 0.30524 0.80216 0.0
H68 H 0.56315 0.13445 0.97204 0.0
Cu69 Cu 0.89864 0.10132 0.40418 0.0
N70 N 0.88395 0.12238 0.3286 0.0
N71 N 0.85269 0.1347 0.2545 0.0
C72 C 0.85682 0.12797 0.31405 0.0
C73 C 0.87822 0.13323 0.23065 0.0
C74 C 0.89751 0.12617 0.27662 0.0
O75 O 0.86858 0.11201 0.46058 0.0
C76 C 0.95087 0.13085 0.45255 0.0
O77 O 0.94338 0.08911 0.49649 0.0
H78 H 0.84037 0.12188 0.34606 0.0
H79 H 0.91974 0.12046 0.27234 0.0
N80 N 0.91173 0.00954 0.4051 0.0
N81 N 0.94725 0.93345 0.40719 0.0
C82 C 0.93639 -0.00775 0.38188 0.0
C83 C 0.90613 0.95852 0.44496 0.0
C84 C 0.92799 0.91127 0.44621 0.0
C85 C 0.86495 0.15908 0.49919 0.0
O86 O 0.88428 0.20556 0.50839 0.0
H87 H 0.94781 0.02743 0.35331 0.0
H88 H 0.88907 0.95981 0.47573 0.0
O89 O 0.93221 0.15481 0.41643 0.0
H90 H 0.88251 0.13374 0.18332 0.0
H91 H 0.9305 0.86744 0.47708 0.0
Cu92 Cu 0.90363 0.92315 0.91524 0.0
N93 N 0.92383 0.84016 0.90828 0.0
N94 N 0.94865 0.75502 0.86713 0.0
C95 C 0.93476 0.81592 0.85768 0.0
C96 C 0.94638 0.74049 0.92606 0.0
C97 C 0.93096 0.79305 0.95131 0.0
O98 O 0.93096 -0.00198 0.90988 0.0
C99 C 0.86096 0.86854 0.84831 0.0
O100 O 0.86703 0.81588 0.88481 0.0
H101 H 0.93303 0.8434 0.81509 0.0
H102 H 0.92546 0.79674 0.99777 0.0
N103 N 0.88611 0.92236 0.98891 0.0
N104 N 0.85323 0.91822 0.05779 0.0
C105 C 0.85862 0.92032 0.99891 0.0
C106 C 0.89843 0.92138 0.04321 0.0
C107 C 0.87818 0.91916 0.08583 0.0
C108 C 0.93294 0.05007 0.94445 0.0
O109 O 0.91325 0.06196 0.98297 0.0
H110 H 0.84295 0.92134 0.96381 0.0
H111 H 0.92061 0.92222 0.0511 0.0
O112 O 0.87488 0.92452 0.85278 0.0
H113 H 0.95514 0.69509 0.94921 0.0
H114 H 0.88171 0.91822 0.13364 0.0
Cu115 Cu 0.64817 0.87013 0.43518 0.0
N116 N 0.61923 0.92922 0.40947 0.0
N117 N 0.5786 0.95707 0.36491 0.0
C118 C 0.59569 0.90513 0.38493 0.0
C119 C 0.5922 0.01658 0.37736 0.0
C120 C 0.61734 -0.00082 0.40457 0.0
O121 O 0.6302 0.78467 0.46128 0.0
C122 C 0.69202 0.89854 0.35824 0.0
O123 O 0.69698 0.94705 0.39756 0.0
H124 H 0.59193 0.85004 0.37952 0.0
H125 H 0.6334 0.03492 0.41776 0.0
N126 N 0.66868 0.90508 0.49989 0.0
N127 N 0.70132 0.91024 0.5719 0.0
C128 C 0.68995 0.87151 0.5282 0.0
C129 C 0.66636 0.96707 0.52692 0.0
C130 C 0.68655 0.97055 0.57115 0.0
C131 C 0.61348 0.79089 0.50445 0.0
O132 O 0.61136 0.85175 0.53029 0.0
H133 H 0.69722 0.82007 0.51611 0.0
H134 H 0.65107 0.00697 0.51554 0.0
O135 O 0.67198 0.85692 0.36644 0.0
H136 H 0.58488 0.069 0.36667 0.0
H137 H 0.68981 0.01361 0.60103 0.0
Cu138 Cu 0.39116 0.61677 0.05866 0.0
N139 N 0.39817 0.70406 0.09071 0.0
N140 N 0.41942 0.79124 0.13718 0.0
C141 C 0.42061 0.72307 0.12277 0.0
C142 C 0.39527 0.81583 0.11326 0.0
C143 C 0.38218 0.76185 0.08477 0.0
O144 O 0.42588 0.56571 0.05221 0.0
C145 C 0.36133 0.575 0.16238 0.0
O146 O 0.37931 0.61269 0.19197 0.0
H147 H 0.43774 0.68798 0.13401 0.0
H148 H 0.36252 0.76457 0.06087 0.0
N149 N 0.37589 0.62932 0.98228 0.0
N150 N 0.34454 0.64483 0.90862 0.0
C151 C 0.34895 0.6405 0.96832 0.0
C152 C 0.38904 0.62649 0.92983 0.0
C153 C 0.36973 0.63586 0.88423 0.0
C154 C 0.42747 0.50878 0.02403 0.0
O155 O 0.40464 0.48087 1.00294 0.0
H156 H 0.33289 0.64411 1.0014 0.0
H157 H 0.4111 0.61779 0.92514 0.0
O158 O 0.36399 0.56794 0.10633 0.0
H159 H 0.38757 0.86894 0.11629 0.0
H160 H 0.37398 0.6369 0.83689 0.0
Cu161 Cu 0.15632 0.62612 0.53821 0.0
N162 N 0.13154 0.57219 0.5813 0.0
N163 N 0.09258 0.55076 0.63046 0.0
C164 C 0.10449 0.58812 0.58643 0.0
C165 C 0.11295 0.50911 0.65372 0.0
C166 C 0.13702 0.52234 0.62307 0.0
O167 O 0.1352 0.70937 0.51473 0.0
C168 C 0.18243 0.67687 0.63977 0.0
O169 O 0.15695 0.69746 0.65072 0.0
H170 H 0.09439 0.63096 0.56215 0.0
H171 H 0.15746 0.5011 0.63345 0.0
N172 N 0.16794 0.5775 0.47165 0.0
N173 N 0.19363 0.53811 0.39664 0.0
C174 C 0.19317 0.57683 0.44668 0.0
C175 C 0.15184 0.53808 0.4367 0.0
C176 C 0.1675 0.51397 0.39043 0.0
C177 C 0.13332 0.73578 0.46227 0.0
O178 O 0.1496 0.71247 0.42039 0.0
H179 H 0.21049 0.60589 0.46416 0.0
H180 H 0.13006 0.52863 0.44394 0.0
O181 O 0.18727 0.64659 0.59088 0.0
H182 H 0.11097 0.47463 0.69223 0.0
H183 H 0.15991 0.48146 0.35491 0.0
H184 H 0.34278 0.39022 0.93796 0.0
H185 H 0.33479 0.20808 0.82687 0.0
H186 H 0.29501 0.16902 0.88679 0.0
H187 H 0.32632 0.30239 0.07648 0.0
H188 H 0.3071 0.37456 0.10621 0.0
H189 H 0.33511 0.39063 0.05553 0.0
H190 H 0.30306 0.46142 0.98327 0.0
H191 H 0.27488 0.44954 0.03405 0.0
H192 H 0.27104 0.42388 0.95729 0.0
H193 H 0.2558 0.14933 0.96124 0.0
H194 H 0.21908 0.15645 0.03756 0.0
H195 H 0.25284 0.3526 0.09722 0.0
C196 C 0.33289 0.34177 0.92641 0.0
C197 C 0.34207 0.30224 0.87754 0.0
C198 C 0.32807 0.23973 0.8636 0.0
C199 C 0.30554 0.21682 0.89772 0.0
C200 C 0.29713 0.25699 0.94571 0.0
C201 C 0.31034 0.31838 0.95975 0.0
C202 C 0.29708 0.35287 1.01272 0.0
C203 C 0.31764 0.3553 0.06585 0.0
C204 C 0.28584 0.42625 0.99578 0.0
C205 C 0.27384 0.30242 0.02533 0.0
C206 C 0.27445 0.24664 0.9871 0.0
C207 C 0.25513 0.19296 0.99125 0.0
C208 C 0.23442 0.19717 0.03487 0.0
C209 C 0.23298 0.25518 0.07305 0.0
C210 C 0.25321 0.30783 0.06833 0.0
H211 H 0.22191 0.30466 0.44078 0.0
H212 H 0.26693 0.33366 0.27649 0.0
H213 H 0.31131 0.33148 0.33404 0.0
H214 H 0.26652 0.40811 0.5359 0.0
H215 H 0.26359 0.34962 0.59941 0.0
H216 H 0.23557 0.35751 0.54541 0.0
H217 H 0.23751 0.22388 0.52936 0.0
H218 H 0.26552 0.21544 0.58322 0.0
H219 H 0.26978 0.18315 0.50874 0.0
H220 H 0.35081 0.33108 0.41169 0.0
H221 H 0.38215 0.31809 0.50031 0.0
H222 H 0.31129 0.2783 0.61203 0.0
C223 C 0.24112 0.31138 0.4171 0.0
C224 C 0.24106 0.31974 0.35423 0.0
C225 C 0.26661 0.32685 0.32459 0.0
C226 C 0.29185 0.32597 0.35697 0.0
C227 C 0.29121 0.31747 0.41902 0.0
C228 C 0.26647 0.30946 0.44864 0.0
C229 C 0.27143 0.29718 0.51506 0.0
C230 C 0.25851 0.35664 0.55107 0.0
C231 C 0.26041 0.22566 0.53526 0.0
C232 C 0.30283 0.29884 0.51834 0.0
C233 C 0.31386 0.31227 0.46272 0.0
C234 C 0.34238 0.31957 0.45524 0.0
C235 C 0.36001 0.31222 0.50574 0.0
C236 C 0.34916 0.29595 0.56265 0.0
C237 C 0.32019 0.28924 0.56879 0.0
H238 H 0.84305 0.05527 0.16037 0.0
H239 H 0.80409 0.19969 0.27808 0.0
H240 H 0.75873 0.1779 0.22929 0.0
H241 H 0.82978 0.04347 0.05941 0.0
H242 H 0.80095 0.09732 0.04996 0.0
H243 H 0.80245 0.02263 1.00738 0.0
H244 H 0.81888 0.8159 0.14363 0.0
H245 H 0.79265 0.80073 0.09669 0.0
H246 H 0.78634 0.81213 0.16793 0.0
H247 H 0.7208 0.15445 0.1641 0.0
H248 H 0.69163 0.14171 0.07444 0.0
H249 H 0.7531 0.00344 1.00079 0.0
C250 C 0.82428 0.07794 0.17772 0.0
C251 C 0.82658 0.12661 0.22369 0.0
C252 C 0.80262 0.1614 0.24322 0.0
C253 C 0.7768 0.1479 0.21673 0.0
C254 C 0.77486 0.09459 0.1749 0.0
C255 C 0.79782 0.05638 0.15711 0.0
C256 C 0.79089 -0.00141 0.10729 0.0
C257 C 0.80692 0.04078 0.0533 0.0
C258 C 0.798 0.84035 0.13181 0.0
C259 C 0.7607 0.0344 0.09263 0.0
C260 C 0.75192 0.08034 0.13571 0.0
C261 C 0.72702 0.11811 0.13024 0.0
C262 C 0.71074 0.1116 0.07847 0.0
C263 C 0.72002 0.0707 0.03082 0.0
C264 C 0.7453 0.03302 0.03782 0.0
H265 H 0.7602 0.25326 0.76113 0.0
H266 H 0.69803 0.13547 0.66569 0.0
H267 H 0.73048 0.11986 0.58224 0.0
H268 H 0.79099 0.3387 0.62852 0.0
H269 H 0.82572 0.3321 0.6592 0.0
H270 H 0.79664 0.34041 0.70827 0.0
H271 H 0.81235 0.22743 0.76498 0.0
H272 H 0.84137 0.21853 0.716 0.0
H273 H 0.81721 0.14817 0.72416 0.0
H274 H 0.7708 0.10798 0.5139 0.0
H275 H 0.81598 0.1014 0.46424 0.0
H276 H 0.85263 0.22715 0.60353 0.0
C277 C 0.75329 0.22536 0.72211 0.0
C278 C 0.72652 0.19598 0.71951 0.0
C279 C 0.71843 0.15829 0.66843 0.0
C280 C 0.73667 0.1495 0.62081 0.0
C281 C 0.76308 0.17812 0.62517 0.0
C282 C 0.77142 0.21527 0.67452 0.0
C283 C 0.80151 0.23683 0.66965 0.0
C284 C 0.80384 0.31676 0.66619 0.0
C285 C 0.81914 0.20587 0.72178 0.0
C286 C 0.80905 0.20414 0.61075 0.0
C287 C 0.78643 0.17148 0.58547 0.0
C288 C 0.78852 0.13446 0.5327 0.0
C289 C 0.81439 0.13046 0.50514 0.0
C290 C 0.83791 0.16382 0.5299 0.0
C291 C 0.83503 0.20162 0.58323 0.0
H292 H 0.84309 0.93675 0.18988 0.0
H293 H 0.79636 0.89346 0.99647 0.0
H294 H 0.7449 0.88716 0.05697 0.0
H295 H 0.79479 0.80943 0.26748 0.0
H296 H 0.79671 0.85187 0.33784 0.0
H297 H 0.82413 0.86334 0.28502 0.0
H298 H 0.81575 0.00167 0.29084 0.0
H299 H 0.79132 0.9778 0.347 0.0
H300 H 0.77998 0.03215 0.28601 0.0
H301 H 0.70493 0.88886 0.15181 0.0
H302 H 0.67561 0.87839 0.24174 0.0
H303 H 0.74742 0.91192 0.35514 0.0
C304 C 0.8245 0.93299 0.16258 0.0
C305 C 0.82657 0.91899 0.08548 0.0
C306 C 0.79561 0.90416 0.04369 0.0
C307 C 0.76362 0.90166 0.08072 0.0
C308 C 0.76293 0.91736 0.15758 0.0
C309 C 0.79246 0.93116 0.1973 0.0
C310 C 0.78607 0.92269 0.26263 0.0
C311 C 0.80132 0.85809 0.28956 0.0
C312 C 0.79379 -0.01241 0.29831 0.0
C313 C 0.75462 0.91156 0.26055 0.0
C314 C 0.74233 0.90664 0.20331 0.0
C315 C 0.71412 0.89312 0.196 0.0
C316 C 0.69768 0.88678 0.24716 0.0
C317 C 0.70946 0.89498 0.30479 0.0
C318 C 0.7381 0.90641 0.31114 0.0
H319 H 0.73915 -0.00347 0.62286 0.0
H320 H 0.7154 0.77953 0.61083 0.0
H321 H 0.75434 0.74549 0.67852 0.0
H322 H 0.79075 0.0361 0.62561 0.0
H323 H 0.814 0.96225 0.62638 0.0
H324 H 0.82025 0.03354 0.6761 0.0
H325 H 0.75919 0.05713 0.71769 0.0
H326 H 0.78875 0.04998 0.76753 0.0
H327 H 0.75957 -0.00664 0.77771 0.0
H328 H 0.79506 0.73526 0.74903 0.0
H329 H 0.83527 0.74876 0.8167 0.0
H330 H 0.83354 0.97269 0.78249 0.0
C331 C 0.74202 0.94199 0.63484 0.0
C332 C 0.72416 0.89071 0.61149 0.0
C333 C 0.72894 0.81964 0.62752 0.0
C334 C 0.75093 0.79984 0.66621 0.0
C335 C 0.76812 0.85167 0.68829 0.0
C336 C 0.76403 0.92124 0.67309 0.0
C337 C 0.78589 0.96627 0.70234 0.0
C338 C 0.80384 0.00172 0.65486 0.0
C339 C 0.77256 0.01986 0.74378 0.0
C340 C 0.8025 0.91148 0.73747 0.0
C341 C 0.79193 0.84567 0.72843 0.0
C342 C 0.80354 0.78653 0.7563 0.0
C343 C 0.82641 0.79486 0.79474 0.0
C344 C 0.83763 0.86182 0.80496 0.0
C345 C 0.82558 0.92081 0.77539 0.0
H346 H 0.32995 0.60165 0.79737 0.0
H347 H 0.29995 0.71617 0.94935 0.0
H348 H 0.25544 0.73848 0.89614 0.0
H349 H 0.29855 0.71243 0.68303 0.0
H350 H 0.29005 0.64131 0.63463 0.0
H351 H 0.31956 0.6339 0.68479 0.0
H352 H 0.29978 0.52012 0.73068 0.0
H353 H 0.27027 0.52701 0.68052 0.0
H354 H 0.26518 0.52074 0.76003 0.0
H355 H 0.2144 0.74907 0.8264 0.0
H356 H 0.17888 0.74392 0.74617 0.0
H357 H 0.23565 0.62328 0.63883 0.0
C358 C 0.31412 0.63191 0.81926 0.0
C359 C 0.31849 0.65727 0.87757 0.0
C360 C 0.29701 0.69557 0.90505 0.0
C361 C 0.27171 0.7089 0.87501 0.0
C362 C 0.26817 0.68343 0.81754 0.0
C363 C 0.28871 0.64548 0.79 0.0
C364 C 0.27941 0.6231 0.72832 0.0
C365 C 0.298 0.65459 0.67983 0.0
C366 C 0.27861 0.543 0.7247 0.0
C367 C 0.25049 0.65489 0.72534 0.0
C368 C 0.24444 0.68945 0.77729 0.0
C369 C 0.21889 0.72225 0.78546 0.0
C370 C 0.19886 0.7191 0.73955 0.0
C371 C 0.20448 0.68344 0.68607 0.0
C372 C 0.23077 0.6514 0.67893 0.0
H373 H 0.34699 0.58746 0.28032 0.0
H374 H 0.31789 0.50664 0.11086 0.0
H375 H 0.27336 0.4764 0.15641 0.0
H376 H 0.31075 0.46089 0.3783 0.0
H377 H 0.30194 0.52528 0.43266 0.0
H378 H 0.33334 0.5334 0.39051 0.0
H379 H 0.31877 0.65647 0.35301 0.0
H380 H 0.28758 0.65092 0.39574 0.0
H381 H 0.28546 0.66964 0.31659 0.0
H382 H 0.22993 0.47258 0.2146 0.0
H383 H 0.19134 0.48859 0.28295 0.0
H384 H 0.24862 0.56545 0.41779 0.0
C385 C 0.33154 0.5617 0.2532 0.0
C386 C 0.3361 0.54884 0.19206 0.0
C387 C 0.31509 0.51627 0.1579 0.0
C388 C 0.28966 0.49893 0.18339 0.0
C389 C 0.28556 0.51408 0.24325 0.0
C390 C 0.30599 0.54401 0.27801 0.0
C391 C 0.29539 0.56025 0.33976 0.0
C392 C 0.31128 0.51739 0.38818 0.0
C393 C 0.29689 0.63898 0.35194 0.0
C394 C 0.26558 0.53672 0.33353 0.0
C395 C 0.26042 0.51011 0.27759 0.0
C396 C 0.23387 0.49163 0.25912 0.0
C397 C 0.21197 0.50082 0.2987 0.0
C398 C 0.21663 0.52722 0.35682 0.0
C399 C 0.24403 0.54469 0.37422 0.0
H400 H 0.07276 0.17161 0.22129 0.0
H401 H 0.1305 0.10613 0.36146 0.0
H402 H 0.09107 0.07365 0.42593 0.0
H403 H 0.02989 0.25968 0.30646 0.0
H404 H 0.998 0.23792 0.26842 0.0
H405 H 0.03014 0.23591 0.22899 0.0
H406 H 1.02261 0.10381 0.20216 0.0
H407 H 0.98947 0.11086 0.23822 0.0
H408 H 1.01391 0.04312 0.26083 0.0
H409 H 0.04467 0.06956 0.4807 0.0
H410 H 0.99692 0.08652 0.51739 0.0
H411 H 0.97095 0.16479 0.34198 0.0
C412 C 0.07703 0.14637 0.26424 0.0
C413 C 0.10453 0.13915 0.28588 0.0
C414 C 0.10956 0.1094 0.34334 0.0
C415 C 0.08723 0.09176 0.38044 0.0
C416 C 0.06016 0.10438 0.35915 0.0
C417 C 0.05508 0.12971 0.30172 0.0
C418 C 1.02471 0.14761 0.2915 0.0
C419 C 1.02045 0.22483 0.27275 0.0
C420 C 1.01186 0.09848 0.24545 0.0
C421 C 1.01363 0.13304 0.35311 0.0
C422 C 0.03409 0.1062 0.39125 0.0
C423 C 0.02855 0.09011 0.4509 0.0
C424 C 1.00142 0.1007 0.47154 0.0
C425 C 0.98021 0.12839 0.43302 0.0
C426 C 0.98668 0.14495 0.37312 0.0
H427 H 0.47111 0.10708 0.78784 0.0
H428 H 0.49739 0.29585 0.69607 0.0
H429 H 0.54636 0.26128 0.71339 0.0
H430 H 0.52485 0.09594 0.89953 0.0
H431 H 0.52931 0.00273 0.89598 0.0
H432 H 0.49614 0.04246 0.87753 0.0
H433 H 0.49631 -0.01604 0.77427 0.0
H434 H 0.52934 0.94349 0.79263 0.0
H435 H 0.52537 -0.00334 0.72573 0.0
H436 H 0.59281 0.20795 0.74336 0.0
H437 H 0.63298 0.13371 0.77504 0.0
H438 H 0.577 0.97666 0.84226 0.0
C439 C 0.4872 0.14078 0.77104 0.0
C440 C 0.48037 0.20408 0.74038 0.0
C441 C 0.50205 0.24671 0.71898 0.0
C442 C 0.52997 0.22784 0.7291 0.0
C443 C 0.53603 0.16548 0.75984 0.0
C444 C 0.51528 0.1219 0.77955 0.0
C445 C 0.52749 0.05596 0.80859 0.0
C446 C 0.51894 0.04892 0.87429 0.0
C447 C 0.51913 -0.0088 0.77318 0.0
C448 C 0.55828 0.07005 0.80326 0.0
C449 C 0.56277 0.13374 0.77537 0.0
C450 C 0.58951 0.15802 0.76533 0.0
C451 C 0.61224 0.11585 0.78384 0.0
C452 C 0.6081 0.05025 0.81204 0.0
C453 C 0.58073 0.027 0.82126 0.0
H454 H 0.07919 0.55022 0.74775 0.0
H455 H 0.04603 0.58897 0.56905 0.0
H456 H 1.00254 0.63435 0.61147 0.0
H457 H 1.01173 0.50361 0.8196 0.0
H458 H 1.02119 0.54766 0.88728 0.0
H459 H 0.04763 0.5074 0.84292 0.0
H460 H 0.07339 0.62519 0.83672 0.0
H461 H 0.04697 0.66596 0.88038 0.0
H462 H 0.05524 0.70176 0.80788 0.0
H463 H 0.9657 0.68968 0.6726 0.0
H464 H 0.93745 0.74837 0.74827 0.0
H465 H 0.99478 0.67469 0.88738 0.0
C466 C 0.06235 0.56563 0.71764 0.0
C467 C 0.0658 0.56549 0.65511 0.0
C468 C 0.04368 0.58854 0.61707 0.0
C469 C 1.01891 0.61412 0.64077 0.0
C470 C 1.01654 0.6159 0.70266 0.0
C471 C 0.03754 0.59164 0.74065 0.0
C472 C 0.03089 0.60573 0.80528 0.0
C473 C 0.02766 0.537 0.84086 0.0
C474 C 0.05293 0.65245 0.83422 0.0
C475 C 1.00335 0.64387 0.79752 0.0
C476 C 0.99528 0.64842 0.73805 0.0
C477 C 0.97157 0.68552 0.7194 0.0
C478 C 0.9558 0.71922 0.76262 0.0
C479 C 0.96386 0.716 0.82374 0.0
C480 C 0.98776 0.67689 0.84124 0.0
H481 H 0.45465 0.742 0.22446 0.0
H482 H 0.43124 0.92855 0.12224 0.0
H483 H 0.46784 -0.0057 0.17443 0.0
H484 H 0.47112 0.83023 0.36397 0.0
H485 H 0.49991 0.77238 0.38208 0.0
H486 H 0.47087 0.7413 0.33894 0.0
H487 H 0.50415 0.70382 0.25521 0.0
H488 H 0.53323 0.7348 0.29808 0.0
H489 H 0.5271 0.76728 0.2229 0.0
H490 H 0.50931 0.03733 0.23296 0.0
H491 H 0.5516 0.05454 0.29384 0.0
H492 H 0.54636 0.84081 0.36086 0.0
C493 C 0.4572 0.7967 0.21315 0.0
C494 C 0.44009 0.83015 0.16923 0.0
C495 C 0.44389 0.90205 0.15618 0.0
C496 C 0.46468 0.93976 0.18546 0.0
C497 C 0.48132 0.90503 0.2282 0.0
C498 C 0.47765 0.83522 0.24235 0.0
C499 C 0.49866 0.80976 0.28902 0.0
C500 C 0.48428 0.7871 0.34693 0.0
C501 C 0.51686 0.75043 0.26483 0.0
C502 C 0.51515 0.87567 0.29779 0.0
C503 C 0.50479 0.93014 0.26257 0.0
C504 C 0.51741 -0.00477 0.26129 0.0
C505 C 0.54145 0.00459 0.29637 0.0
C506 C 0.55268 0.94913 0.33238 0.0
C507 C 0.53883 0.88432 0.33354 0.0
H508 H 0.04428 0.29587 0.10171 0.0
H509 H 0.10596 0.19933 0.9902 0.0
H510 H 0.06891 0.13998 0.93384 0.0
H511 H 1.00134 0.14997 0.11503 0.0
H512 H 0.96919 0.19871 0.11314 0.0
H513 H 1.00037 0.23928 0.13954 0.0
H514 H 0.9927 0.33885 0.06052 0.0
H515 H 0.96177 0.29694 0.03349 0.0
H516 H 0.98927 0.31738 0.98269 0.0
H517 H 1.02585 0.08297 0.8954 0.0
H518 H 0.98022 0.02871 0.88037 0.0
H519 H 0.94581 0.16033 1.01734 0.0
C520 C 0.04984 0.2638 0.06434 0.0
C521 C 0.07804 0.25274 0.04987 0.0
C522 C 0.08455 0.20856 1.00189 0.0
C523 C 0.06362 0.17494 0.96947 0.0
C524 C 0.0361 0.18584 0.98541 0.0
C525 C 0.0291 0.22926 0.03166 0.0
C526 C 0.99806 0.22759 0.04245 0.0
C527 C 0.99191 0.20241 0.1064 0.0
C528 C 0.98466 0.29948 0.02897 0.0
C529 C 0.98896 0.17439 0.99682 0.0
C530 C 1.01116 0.15207 0.96359 0.0
C531 C 1.00825 0.10061 0.92074 0.0
C532 C 0.98217 0.07002 0.91252 0.0
C533 C 0.95925 0.09013 0.94749 0.0
C534 C 0.96275 0.1441 0.98939 0.0
H535 H 0.57422 0.79373 0.59111 0.0
H536 H 0.60887 0.66027 0.45576 0.0
H537 H 0.5743 0.57003 0.48045 0.0
H538 H 0.55825 0.65643 0.69893 0.0
H539 H 0.52654 0.69858 0.72128 0.0
H540 H 0.55498 0.75028 0.69497 0.0
H541 H 0.52259 0.80821 0.61452 0.0
H542 H 0.49409 0.75639 0.64018 0.0
H543 H 0.50397 0.75403 0.56291 0.0
H544 H 0.53429 0.49669 0.51751 0.0
H545 H 0.49292 0.44598 0.56388 0.0
H546 H 0.48498 0.62823 0.67514 0.0
C547 C 0.57484 0.74524 0.567 0.0
C548 C 0.59439 0.734 0.5216 0.0
C549 C 0.59422 0.66995 0.49093 0.0
C550 C 0.57463 0.61846 0.5046 0.0
C551 C 0.5554 0.63182 0.54908 0.0
C552 C 0.55548 0.6936 0.57994 0.0
C553 C 0.53216 0.69635 0.62444 0.0
C554 C 0.54368 0.70064 0.68871 0.0
C555 C 0.51202 0.75735 0.60959 0.0
C556 C 0.51873 0.62662 0.61355 0.0
C557 C 0.53247 0.59001 0.57011 0.0
C558 C 0.52354 0.52473 0.55192 0.0
C559 C 0.50003 0.49616 0.57884 0.0
C560 C 0.48556 0.53277 0.62355 0.0
C561 C 0.49526 0.59892 0.64089 0.0
H562 H 0.43831 0.38428 0.96967 0.0
H563 H 0.47876 0.56295 0.04795 0.0
H564 H 0.52445 0.51277 0.02297 0.0
H565 H 0.48698 0.2573 0.02402 0.0
H566 H 0.4851 0.20466 0.95814 0.0
H567 H 0.45571 0.2572 0.97874 0.0
H568 H 0.45556 0.31552 0.87411 0.0
H569 H 0.48567 0.26546 0.85378 0.0
H570 H 0.48612 0.35939 0.84808 0.0
H571 H 0.56609 0.44089 0.99175 0.0
H572 H 0.59976 0.34752 0.96606 0.0
H573 H 0.53196 0.21697 0.90949 0.0
C574 C 0.45674 0.41309 0.98136 0.0
C575 C 0.45491 0.47765 1.01069 0.0
C576 C 0.47961 0.51335 0.02553 0.0
C577 C 0.50567 0.48551 1.01117 0.0
C578 C 0.50673 0.42193 0.98196 0.0
C579 C 0.4829 0.38593 0.96767 0.0
C580 C 0.48972 0.31667 0.93959 0.0
C581 C 0.47874 0.25536 0.97741 0.0
C582 C 0.47859 0.3143 0.875 0.0
C583 C 0.52107 0.31871 0.94135 0.0
C584 C 0.53057 0.38026 0.96501 0.0
C585 C 0.55886 0.39267 0.97281 0.0
C586 C 0.57784 0.33978 0.95776 0.0
C587 C 0.56833 0.2753 0.93608 0.0
C588 C 0.53966 0.2657 0.92635 0.0
H589 H 0.08837 0.76565 0.53087 0.0
H590 H 0.1236 0.80861 0.35699 0.0
H591 H 0.0804 0.871 0.3258 0.0
H592 H 1.02321 0.72423 0.48061 0.0
H593 H 1.00451 0.76371 0.54065 0.0
H594 H 0.03956 0.73315 0.553 0.0
H595 H 0.05419 0.85554 0.58816 0.0
H596 H 1.01901 0.88639 0.577 0.0
H597 H 0.04702 0.93093 0.54074 0.0
H598 H 0.03157 0.91864 0.31058 0.0
H599 H 0.98162 0.94894 0.31319 0.0
H600 H 0.97849 0.87126 0.49617 0.0
C601 C 0.08737 0.78973 0.48674 0.0
C602 C 0.10948 0.78248 0.44644 0.0
C603 C 0.10701 0.81372 0.38872 0.0
C604 C 0.08255 0.84927 0.37061 0.0
C605 C 0.06077 0.85305 0.41074 0.0
C606 C 0.06307 0.82464 0.46782 0.0
C607 C 0.03602 0.83096 0.50086 0.0
C608 C 1.02519 0.75872 0.51984 0.0
C609 C 0.03926 0.87882 0.55488 0.0
C610 C 1.01778 0.8648 0.45267 0.0
C611 C 0.03253 0.8784 0.4014 0.0
C612 C 1.01989 0.90857 0.35064 0.0
C613 C 0.99151 0.92545 0.35249 0.0
C614 C 0.97597 0.91177 0.40457 0.0
C615 C 0.98949 0.8811 0.4552 0.0
loop_
_geom_bond_atom_site_label_1
_geom_bond_atom_site_label_2
_geom_bond_distance
_geom_bond_site_symmetry_2
_ccdc_geom_bond_type
Cu0 N1 1.999 . S
Cu0 O6 1.974 . S
Cu0 N11 1.985 . S
Cu0 O20 1.959 . S
N1 Cu0 1.999 . S
N1 C3 1.263 . S
N1 C5 1.389 . S
N2 C3 1.358 . S
N2 C4 1.400 . S
C3 N1 1.263 . S
C3 N2 1.358 . S
C3 H9 0.930 . S
C4 N2 1.400 . S
C4 C5 1.351 . S
C4 H21 0.930 . S
C5 N1 1.389 . S
C5 C4 1.351 . S
C5 H10 0.930 . S
O6 Cu0 1.974 . S
O6 C16 1.282 . S
C7 O8 1.261 . S
C7 O20 1.251 . S
O8 C7 1.261 . S
H9 C3 0.930 . S
H10 C5 0.930 . S
N11 Cu0 1.985 . S
N11 C13 1.335 . S
N11 C14 1.390 . S
N12 C13 1.345 . S
N12 C15 1.325 1_554 S
C13 N11 1.335 . S
C13 N12 1.345 . S
C13 H18 0.930 . S
C14 N11 1.390 . S
C14 C15 1.337 1_554 S
C14 H19 0.930 . S
C15 N12 1.325 1_556 S
C15 C14 1.337 1_556 S
C15 H22 0.948 . S
C16 O6 1.282 . S
C16 O17 1.216 . S
O17 C16 1.216 . S
H18 C13 0.930 . S
H19 C14 0.930 . S
O20 Cu0 1.959 . S
O20 C7 1.251 . S
H21 C4 0.930 . S
H22 C15 0.948 . S
Cu23 N24 1.999 . S
Cu23 O29 1.974 . S
Cu23 N34 1.985 . S
Cu23 O43 1.959 . S
N24 Cu23 1.999 . S
N24 C26 1.263 . S
N24 C28 1.389 . S
N25 C26 1.358 . S
N25 C27 1.400 . S
C26 N24 1.263 . S
C26 N25 1.358 . S
C26 H32 0.930 . S
C27 N25 1.400 . S
C27 C28 1.351 . S
C27 H44 0.930 . S
C28 N24 1.389 . S
C28 C27 1.351 . S
C28 H33 0.930 . S
O29 Cu23 1.974 . S
O29 C39 1.282 . S
C30 O31 1.261 . S
C30 O43 1.251 . S
O31 C30 1.261 . S
H32 C26 0.930 . S
H33 C28 0.930 . S
N34 Cu23 1.985 . S
N34 C36 1.335 . S
N34 C37 1.390 . S
N35 C36 1.345 . S
N35 C38 1.336 . S
C36 N34 1.335 . S
C36 N35 1.345 . S
C36 H41 0.930 . S
C37 N34 1.390 . S
C37 C38 1.346 . S
C37 H42 0.930 . S
C38 N35 1.336 . S
C38 C37 1.346 . S
C38 H45 0.929 . S
C39 O29 1.282 . S
C39 O40 1.216 . S
O40 C39 1.216 . S
H41 C36 0.930 . S
H42 C37 0.930 . S
O43 Cu23 1.959 . S
O43 C30 1.251 . S
H44 C27 0.930 . S
H45 C38 0.929 . S
Cu46 N47 1.999 . S
Cu46 O52 1.974 . S
Cu46 N57 1.985 . S
Cu46 O66 1.959 . S
N47 Cu46 1.999 . S
N47 C49 1.263 . S
N47 C51 1.389 . S
N48 C49 1.358 . S
N48 C50 1.400 . S
C49 N47 1.263 . S
C49 N48 1.358 . S
C49 H55 0.930 . S
C50 N48 1.400 . S
C50 C51 1.351 . S
C50 H67 0.930 . S
C51 N47 1.389 . S
C51 C50 1.351 . S
C51 H56 0.930 . S
O52 Cu46 1.974 . S
O52 C62 1.282 . S
C53 O54 1.261 . S
C53 O66 1.251 . S
O54 C53 1.261 . S
H55 C49 0.930 . S
H56 C51 0.930 . S
N57 Cu46 1.985 . S
N57 C59 1.335 . S
N57 C60 1.390 . S
N58 C59 1.345 . S
N58 C61 1.324 1_556 S
C59 N57 1.335 . S
C59 N58 1.345 . S
C59 H64 0.930 . S
C60 N57 1.390 . S
C60 C61 1.337 1_556 S
C60 H65 0.930 . S
C61 N58 1.324 1_554 S
C61 C60 1.337 1_554 S
C61 H68 0.948 . S
C62 O52 1.282 . S
C62 O63 1.216 . S
O63 C62 1.216 . S
H64 C59 0.930 . S
H65 C60 0.930 . S
O66 Cu46 1.959 . S
O66 C53 1.251 . S
H67 C50 0.930 . S
H68 C61 0.948 . S
Cu69 N70 1.999 . S
Cu69 O75 1.974 . S
Cu69 N80 1.985 . S
Cu69 O89 1.959 . S
N70 Cu69 1.999 . S
N70 C72 1.263 . S
N70 C74 1.389 . S
N71 C72 1.358 . S
N71 C73 1.400 . S
C72 N70 1.263 . S
C72 N71 1.358 . S
C72 H78 0.930 . S
C73 N71 1.400 . S
C73 C74 1.351 . S
C73 H90 0.930 . S
C74 N70 1.389 . S
C74 C73 1.351 . S
C74 H79 0.930 . S
O75 Cu69 1.974 . S
O75 C85 1.282 . S
C76 O77 1.261 . S
C76 O89 1.251 . S
O77 C76 1.261 . S
H78 C72 0.930 . S
H79 C74 0.930 . S
N80 Cu69 1.985 . S
N80 C82 1.335 . S
N80 C83 1.390 . S
N81 C82 1.345 1_565 S
N81 C84 1.336 1_565 S
C82 N80 1.335 . S
C82 N81 1.345 1_545 S
C82 H87 0.930 . S
C83 N80 1.390 . S
C83 C84 1.346 . S
C83 H88 0.930 . S
C84 N81 1.336 1_545 S
C84 C83 1.346 . S
C84 H91 0.929 . S
C85 O75 1.282 . S
C85 O86 1.216 . S
O86 C85 1.216 . S
H87 C82 0.930 . S
H88 C83 0.930 . S
O89 Cu69 1.959 . S
O89 C76 1.251 . S
H90 C73 0.930 . S
H91 C84 0.929 . S
Cu92 N93 1.999 . S
Cu92 O98 1.974 . S
Cu92 N103 1.985 . S
Cu92 O112 1.959 . S
N93 Cu92 1.999 . S
N93 C95 1.263 . S
N93 C97 1.389 . S
N94 C95 1.358 . S
N94 C96 1.400 . S
C95 N93 1.263 . S
C95 N94 1.358 . S
C95 H101 0.930 . S
C96 N94 1.400 . S
C96 C97 1.351 . S
C96 H113 0.930 . S
C97 N93 1.389 . S
C97 C96 1.351 . S
C97 H102 0.930 . S
O98 Cu92 1.974 . S
O98 C108 1.282 1_565 S
C99 O100 1.261 1_565 S
C99 O112 1.251 . S
O100 C99 1.261 1_545 S
H101 C95 0.930 . S
H102 C97 0.930 . S
N103 Cu92 1.985 . S
N103 C105 1.335 . S
N103 C106 1.390 1_566 S
N104 C105 1.345 1_544 S
N104 C107 1.336 . S
C105 N103 1.335 . S
C105 N104 1.345 1_566 S
C105 H110 0.930 . S
C106 N103 1.390 1_544 S
C106 C107 1.346 . S
C106 H111 0.930 . S
C107 N104 1.336 . S
C107 C106 1.346 . S
C107 H114 0.929 . S
C108 O98 1.282 1_545 S
C108 O109 1.216 . S
O109 C108 1.216 . S
H110 C105 0.930 . S
H111 C106 0.930 . S
O112 Cu92 1.959 . S
O112 C99 1.251 . S
H113 C96 0.930 . S
H114 C107 0.929 . S
Cu115 N116 1.999 . S
Cu115 O121 1.974 . S
Cu115 N126 1.985 . S
Cu115 O135 1.959 . S
N116 Cu115 1.999 . S
N116 C118 1.263 . S
N116 C120 1.389 . S
N117 C118 1.358 . S
N117 C119 1.400 . S
C118 N116 1.263 . S
C118 N117 1.358 . S
C118 H124 0.930 . S
C119 N117 1.400 . S
C119 C120 1.351 . S
C119 H136 0.930 . S
C120 N116 1.389 . S
C120 C119 1.351 . S
C120 H125 0.930 1_565 S
O121 Cu115 1.974 . S
O121 C131 1.282 . S
C122 O123 1.261 . S
C122 O135 1.251 . S
O123 C122 1.261 . S
H124 C118 0.930 . S
H125 C120 0.930 1_545 S
N126 Cu115 1.985 . S
N126 C128 1.335 . S
N126 C129 1.390 . S
N127 C128 1.345 . S
N127 C130 1.336 . S
C128 N126 1.335 . S
C128 N127 1.345 . S
C128 H133 0.930 1_565 S
C129 N126 1.390 . S
C129 C130 1.346 . S
C129 H134 0.930 . S
C130 N127 1.336 . S
C130 C129 1.346 . S
C130 H137 0.929 . S
C131 O121 1.282 . S
C131 O132 1.216 . S
O132 C131 1.216 . S
H133 C128 0.930 1_545 S
H134 C129 0.930 . S
O135 Cu115 1.959 . S
O135 C122 1.251 . S
H136 C119 0.930 . S
H137 C130 0.929 . S
Cu138 N139 1.999 . S
Cu138 O144 1.974 . S
Cu138 N149 1.985 . S
Cu138 O158 1.959 . S
N139 Cu138 1.999 . S
N139 C141 1.263 . S
N139 C143 1.389 . S
N140 C141 1.358 . S
N140 C142 1.400 . S
C141 N139 1.263 . S
C141 N140 1.358 . S
C141 H147 0.930 . S
C142 N140 1.400 . S
C142 C143 1.351 . S
C142 H159 0.930 . S
C143 N139 1.389 . S
C143 C142 1.351 . S
C143 H148 0.930 . S
O144 Cu138 1.974 . S
O144 C154 1.282 . S
C145 O146 1.261 . S
C145 O158 1.251 . S
O146 C145 1.261 . S
H147 C141 0.930 . S
H148 C143 0.930 . S
N149 Cu138 1.985 . S
N149 C151 1.335 . S
N149 C152 1.390 1_554 S
N150 C151 1.345 1_556 S
N150 C153 1.336 . S
C151 N149 1.335 . S
C151 N150 1.345 1_554 S
C151 H156 0.930 . S
C152 N149 1.390 1_556 S
C152 C153 1.346 . S
C152 H157 0.930 . S
C153 N150 1.336 . S
C153 C152 1.346 . S
C153 H160 0.929 . S
C154 O144 1.282 . S
C154 O155 1.216 . S
O155 C154 1.216 . S
H156 C151 0.930 . S
H157 C152 0.930 . S
O158 Cu138 1.959 . S
O158 C145 1.251 . S
H159 C142 0.930 . S
H160 C153 0.929 . S
Cu161 N162 1.999 . S
Cu161 O167 1.974 . S
Cu161 N172 1.985 . S
Cu161 O181 1.959 . S
N162 Cu161 1.999 . S
N162 C164 1.263 . S
N162 C166 1.389 . S
N163 C164 1.358 . S
N163 C165 1.400 . S
C164 N162 1.263 . S
C164 N163 1.358 . S
C164 H170 0.930 . S
C165 N163 1.400 . S
C165 C166 1.351 . S
C165 H182 0.930 . S
C166 N162 1.389 . S
C166 C165 1.351 . S
C166 H171 0.930 . S
O167 Cu161 1.974 . S
O167 C177 1.282 . S
C168 O169 1.261 . S
C168 O181 1.251 . S
O169 C168 1.261 . S
H170 C164 0.930 . S
H171 C166 0.930 . S
N172 Cu161 1.985 . S
N172 C174 1.335 . S
N172 C175 1.390 . S
N173 C174 1.345 . S
N173 C176 1.336 . S
C174 N172 1.335 . S
C174 N173 1.345 . S
C174 H179 0.930 . S
C175 N172 1.390 . S
C175 C176 1.346 . S
C175 H180 0.930 . S
C176 N173 1.336 . S
C176 C175 1.346 . S
C176 H183 0.929 . S
C177 O167 1.282 . S
C177 O178 1.216 . S
O178 C177 1.216 . S
H179 C174 0.930 . S
H180 C175 0.930 . S
O181 Cu161 1.959 . S
O181 C168 1.251 . S
H182 C165 0.930 . S
H183 C176 0.929 . S
H184 C196 0.930 . S
H185 C198 0.930 . S
H186 C199 0.930 . S
H187 C203 0.959 . S
H188 C203 0.959 . S
H189 C203 0.961 . S
H190 C204 0.960 . S
H191 C204 0.961 . S
H192 C204 0.959 . S
H193 C207 0.929 . S
H194 C208 0.931 1_554 S
H195 C210 0.930 1_554 S
C196 H184 0.930 . S
C196 C197 1.399 . S
C196 C201 1.399 . S
C197 C196 1.399 . S
C197 C198 1.376 . S
C198 H185 0.930 . S
C198 C197 1.376 . S
C198 C199 1.388 . S
C199 H186 0.930 . S
C199 C198 1.388 . S
C199 C200 1.390 . S
C200 C199 1.390 . S
C200 C201 1.394 . S
C200 C206 1.465 . S
C201 C196 1.399 . S
C201 C200 1.394 . S
C201 C202 1.516 . S
C202 C201 1.516 . S
C202 C203 1.502 . S
C202 C204 1.561 . S
C202 C205 1.526 . S
C203 H187 0.959 . S
C203 H188 0.959 . S
C203 H189 0.961 . S
C203 C202 1.502 . S
C204 H190 0.960 . S
C204 H191 0.961 . S
C204 H192 0.959 . S
C204 C202 1.561 . S
C205 C202 1.526 . S
C205 C206 1.396 . S
C205 C210 1.390 . S
C206 C200 1.465 . S
C206 C205 1.396 . S
C206 C207 1.399 . S
C207 H193 0.929 . S
C207 C206 1.399 . S
C207 C208 1.385 . S
C208 H194 0.931 1_556 S
C208 C207 1.385 . S
C208 C209 1.389 1_556 S
C209 C208 1.389 1_554 S
C209 C210 1.387 1_554 S
C210 H195 0.930 1_556 S
C210 C205 1.390 . S
C210 C209 1.387 1_556 S
H211 C223 0.930 . S
H212 C225 0.930 . S
H213 C226 0.930 . S
H214 C230 0.959 . S
H215 C230 0.959 . S
H216 C230 0.961 . S
H217 C231 0.960 . S
H218 C231 0.961 . S
H219 C231 0.959 . S
H220 C234 0.929 . S
H221 C235 0.931 . S
H222 C237 0.930 . S
C223 H211 0.930 . S
C223 C224 1.399 . S
C223 C228 1.399 . S
C224 C223 1.399 . S
C224 C225 1.376 . S
C225 H212 0.930 . S
C225 C224 1.376 . S
C225 C226 1.388 . S
C226 H213 0.930 . S
C226 C225 1.388 . S
C226 C227 1.390 . S
C227 C226 1.390 . S
C227 C228 1.394 . S
C227 C233 1.465 . S
C228 C223 1.399 . S
C228 C227 1.394 . S
C228 C229 1.516 . S
C229 C228 1.516 . S
C229 C230 1.502 . S
C229 C231 1.561 . S
C229 C232 1.526 . S
C230 H214 0.959 . S
C230 H215 0.959 . S
C230 H216 0.961 . S
C230 C229 1.502 . S
C231 H217 0.960 . S
C231 H218 0.961 . S
C231 H219 0.959 . S
C231 C229 1.561 . S
C232 C229 1.526 . S
C232 C233 1.396 . S
C232 C237 1.390 . S
C233 C227 1.465 . S
C233 C232 1.396 . S
C233 C234 1.399 . S
C234 H220 0.929 . S
C234 C233 1.399 . S
C234 C235 1.385 . S
C235 H221 0.931 . S
C235 C234 1.385 . S
C235 C236 1.389 . S
C236 C235 1.389 . S
C236 C237 1.387 . S
C237 H222 0.930 . S
C237 C232 1.390 . S
C237 C236 1.387 . S
H238 C250 0.930 . S
H239 C252 0.930 . S
H240 C253 0.930 . S
H241 C257 0.959 . S
H242 C257 0.959 1_565 S
H243 C257 0.961 . S
H244 C258 0.960 . S
H245 C258 0.961 . S
H246 C258 0.959 1_545 S
H247 C261 0.929 . S
H248 C262 0.931 1_556 S
H249 C264 0.930 1_556 S
C250 H238 0.930 . S
C250 C251 1.399 . S
C250 C255 1.399 . S
C251 C250 1.399 . S
C251 C252 1.376 . S
C252 H239 0.930 . S
C252 C251 1.376 . S
C252 C253 1.388 . S
C253 H240 0.930 . S
C253 C252 1.388 . S
C253 C254 1.390 . S
C254 C253 1.390 . S
C254 C255 1.394 . S
C254 C260 1.465 . S
C255 C250 1.399 . S
C255 C254 1.394 . S
C255 C256 1.516 . S
C256 C255 1.516 . S
C256 C257 1.502 . S
C256 C258 1.561 1_545 S
C256 C259 1.526 . S
C257 H241 0.959 . S
C257 H242 0.959 1_545 S
C257 H243 0.961 . S
C257 C256 1.502 . S
C258 H244 0.960 . S
C258 H245 0.961 . S
C258 H246 0.959 1_565 S
C258 C256 1.561 1_565 S
C259 C256 1.526 . S
C259 C260 1.396 . S
C259 C264 1.390 . S
C260 C254 1.465 . S
C260 C259 1.396 . S
C260 C261 1.399 . S
C261 H247 0.929 . S
C261 C260 1.399 . S
C261 C262 1.385 . S
C262 H248 0.931 1_554 S
C262 C261 1.385 . S
C262 C263 1.389 1_554 S
C263 C262 1.389 1_556 S
C263 C264 1.387 1_556 S
C264 H249 0.930 1_554 S
C264 C259 1.390 . S
C264 C263 1.387 1_554 S
H265 C277 0.930 . S
H266 C279 0.930 . S
H267 C280 0.930 1_565 S
H268 C284 0.959 . S
H269 C284 0.959 . S
H270 C284 0.961 . S
H271 C285 0.960 . S
H272 C285 0.961 . S
H273 C285 0.959 . S
H274 C288 0.929 1_565 S
H275 C289 0.931 1_565 S
H276 C291 0.930 . S
C277 H265 0.930 . S
C277 C278 1.399 . S
C277 C282 1.399 . S
C278 C277 1.399 . S
C278 C279 1.376 . S
C279 H266 0.930 . S
C279 C278 1.376 . S
C279 C280 1.388 . S
C280 H267 0.930 1_545 S
C280 C279 1.388 . S
C280 C281 1.390 . S
C281 C280 1.390 . S
C281 C282 1.394 . S
C281 C287 1.465 . S
C282 C277 1.399 . S
C282 C281 1.394 . S
C282 C283 1.516 . S
C283 C282 1.516 . S
C283 C284 1.502 . S
C283 C285 1.561 . S
C283 C286 1.526 . S
C284 H268 0.959 . S
C284 H269 0.959 . S
C284 H270 0.961 . S
C284 C283 1.502 . S
C285 H271 0.960 . S
C285 H272 0.961 . S
C285 H273 0.959 . S
C285 C283 1.561 . S
C286 C283 1.526 . S
C286 C287 1.396 . S
C286 C291 1.390 . S
C287 C281 1.465 . S
C287 C286 1.396 . S
C287 C288 1.399 . S
C288 H274 0.929 1_545 S
C288 C287 1.399 . S
C288 C289 1.385 . S
C289 H275 0.931 1_545 S
C289 C288 1.385 . S
C289 C290 1.389 . S
C290 C289 1.389 . S
C290 C291 1.387 . S
C291 H276 0.930 . S
C291 C286 1.390 . S
C291 C290 1.387 . S
H292 C304 0.930 . S
H293 C306 0.930 . S
H294 C307 0.930 . S
H295 C311 0.959 . S
H296 C311 0.959 . S
H297 C311 0.961 . S
H298 C312 0.960 . S
H299 C312 0.961 . S
H300 C312 0.959 . S
H301 C315 0.929 1_545 S
H302 C316 0.931 . S
H303 C318 0.930 . S
C304 H292 0.930 . S
C304 C305 1.399 . S
C304 C309 1.399 . S
C305 C304 1.399 . S
C305 C306 1.376 . S
C306 H293 0.930 . S
C306 C305 1.376 . S
C306 C307 1.388 . S
C307 H294 0.930 . S
C307 C306 1.388 . S
C307 C308 1.390 . S
C308 C307 1.390 . S
C308 C309 1.394 . S
C308 C314 1.465 1_545 S
C309 C304 1.399 . S
C309 C308 1.394 . S
C309 C310 1.516 1_545 S
C310 C309 1.516 1_565 S
C310 C311 1.502 . S
C310 C312 1.561 1_565 S
C310 C313 1.526 . S
C311 H295 0.959 . S
C311 H296 0.959 . S
C311 H297 0.961 . S
C311 C310 1.502 . S
C312 H298 0.960 . S
C312 H299 0.961 . S
C312 H300 0.959 . S
C312 C310 1.561 1_545 S
C313 C310 1.526 . S
C313 C314 1.396 . S
C313 C318 1.390 . S
C314 C308 1.465 1_565 S
C314 C313 1.396 . S
C314 C315 1.399 . S
C315 H301 0.929 1_565 S
C315 C314 1.399 . S
C315 C316 1.385 . S
C316 H302 0.931 . S
C316 C315 1.385 . S
C316 C317 1.389 . S
C317 C316 1.389 . S
C317 C318 1.387 . S
C318 H303 0.930 . S
C318 C313 1.390 . S
C318 C317 1.387 . S
H319 C331 0.930 . S
H320 C333 0.930 . S
H321 C334 0.930 . S
H322 C338 0.959 . S
H323 C338 0.959 . S
H324 C338 0.961 . S
H325 C339 0.960 . S
H326 C339 0.961 . S
H327 C339 0.959 . S
H328 C342 0.929 . S
H329 C343 0.931 . S
H330 C345 0.930 . S
C331 H319 0.930 . S
C331 C332 1.399 1_545 S
C331 C336 1.399 . S
C332 C331 1.399 1_565 S
C332 C333 1.376 . S
C333 H320 0.930 . S
C333 C332 1.376 . S
C333 C334 1.388 . S
C334 H321 0.930 . S
C334 C333 1.388 . S
C334 C335 1.390 . S
C335 C334 1.390 . S
C335 C336 1.394 1_565 S
C335 C341 1.465 . S
C336 C331 1.399 . S
C336 C335 1.394 1_545 S
C336 C337 1.516 . S
C337 C336 1.516 . S
C337 C338 1.502 . S
C337 C339 1.561 . S
C337 C340 1.526 . S
C338 H322 0.959 . S
C338 H323 0.959 . S
C338 H324 0.961 . S
C338 C337 1.502 . S
C339 H325 0.960 . S
C339 H326 0.961 . S
C339 H327 0.959 . S
C339 C337 1.561 . S
C340 C337 1.526 . S
C340 C341 1.396 1_545 S
C340 C345 1.390 . S
C341 C335 1.465 . S
C341 C340 1.396 1_565 S
C341 C342 1.399 . S
C342 H328 0.929 . S
C342 C341 1.399 . S
C342 C343 1.385 . S
C343 H329 0.931 . S
C343 C342 1.385 . S
C343 C344 1.389 . S
C344 C343 1.389 . S
C344 C345 1.387 1_565 S
C345 H330 0.930 . S
C345 C340 1.390 . S
C345 C344 1.387 1_545 S
H346 C358 0.930 . S
H347 C360 0.930 . S
H348 C361 0.930 . S
H349 C365 0.959 . S
H350 C365 0.959 . S
H351 C365 0.961 . S
H352 C366 0.960 . S
H353 C366 0.961 . S
H354 C366 0.959 . S
H355 C369 0.929 . S
H356 C370 0.931 . S
H357 C372 0.930 . S
C358 H346 0.930 . S
C358 C359 1.399 . S
C358 C363 1.399 . S
C359 C358 1.399 . S
C359 C360 1.376 . S
C360 H347 0.930 . S
C360 C359 1.376 . S
C360 C361 1.388 . S
C361 H348 0.930 . S
C361 C360 1.388 . S
C361 C362 1.390 . S
C362 C361 1.390 . S
C362 C363 1.394 . S
C362 C368 1.465 . S
C363 C358 1.399 . S
C363 C362 1.394 . S
C363 C364 1.516 . S
C364 C363 1.516 . S
C364 C365 1.502 . S
C364 C366 1.561 . S
C364 C367 1.526 . S
C365 H349 0.959 . S
C365 H350 0.959 . S
C365 H351 0.961 . S
C365 C364 1.502 . S
C366 H352 0.960 . S
C366 H353 0.961 . S
C366 H354 0.959 . S
C366 C364 1.561 . S
C367 C364 1.526 . S
C367 C368 1.396 . S
C367 C372 1.390 . S
C368 C362 1.465 . S
C368 C367 1.396 . S
C368 C369 1.399 . S
C369 H355 0.929 . S
C369 C368 1.399 . S
C369 C370 1.385 . S
C370 H356 0.931 . S
C370 C369 1.385 . S
C370 C371 1.389 . S
C371 C370 1.389 . S
C371 C372 1.387 . S
C372 H357 0.930 . S
C372 C367 1.390 . S
C372 C371 1.387 . S
H373 C385 0.930 . S
H374 C387 0.930 . S
H375 C388 0.930 . S
H376 C392 0.959 . S
H377 C392 0.959 . S
H378 C392 0.961 . S
H379 C393 0.960 . S
H380 C393 0.961 . S
H381 C393 0.959 . S
H382 C396 0.929 . S
H383 C397 0.931 . S
H384 C399 0.930 . S
C385 H373 0.930 . S
C385 C386 1.399 . S
C385 C390 1.399 . S
C386 C385 1.399 . S
C386 C387 1.376 . S
C387 H374 0.930 . S
C387 C386 1.376 . S
C387 C388 1.388 . S
C388 H375 0.930 . S
C388 C387 1.388 . S
C388 C389 1.390 . S
C389 C388 1.390 . S
C389 C390 1.394 . S
C389 C395 1.465 . S
C390 C385 1.399 . S
C390 C389 1.394 . S
C390 C391 1.516 . S
C391 C390 1.516 . S
C391 C392 1.502 . S
C391 C393 1.561 . S
C391 C394 1.526 . S
C392 H376 0.959 . S
C392 H377 0.959 . S
C392 H378 0.961 . S
C392 C391 1.502 . S
C393 H379 0.960 . S
C393 H380 0.961 . S
C393 H381 0.959 . S
C393 C391 1.561 . S
C394 C391 1.526 . S
C394 C395 1.396 . S
C394 C399 1.390 . S
C395 C389 1.465 . S
C395 C394 1.396 . S
C395 C396 1.399 . S
C396 H382 0.929 . S
C396 C395 1.399 . S
C396 C397 1.385 . S
C397 H383 0.931 . S
C397 C396 1.385 . S
C397 C398 1.389 . S
C398 C397 1.389 . S
C398 C399 1.387 . S
C399 H384 0.930 . S
C399 C394 1.390 . S
C399 C398 1.387 . S
H400 C412 0.930 . S
H401 C414 0.930 . S
H402 C415 0.930 . S
H403 C419 0.959 . S
H404 C419 0.959 . S
H405 C419 0.961 1_455 S
H406 C420 0.960 . S
H407 C420 0.961 . S
H408 C420 0.959 . S
H409 C423 0.929 . S
H410 C424 0.931 . S
H411 C426 0.930 . S
C412 H400 0.930 . S
C412 C413 1.399 . S
C412 C417 1.399 . S
C413 C412 1.399 . S
C413 C414 1.376 . S
C414 H401 0.930 . S
C414 C413 1.376 . S
C414 C415 1.388 . S
C415 H402 0.930 . S
C415 C414 1.388 . S
C415 C416 1.390 . S
C416 C415 1.390 . S
C416 C417 1.394 . S
C416 C422 1.465 1_455 S
C417 C412 1.399 . S
C417 C416 1.394 . S
C417 C418 1.516 . S
C418 C417 1.516 . S
C418 C419 1.502 1_455 S
C418 C420 1.561 . S
C418 C421 1.526 1_455 S
C419 H403 0.959 . S
C419 H404 0.959 . S
C419 H405 0.961 1_655 S
C419 C418 1.502 1_655 S
C420 H406 0.960 . S
C420 H407 0.961 . S
C420 H408 0.959 . S
C420 C418 1.561 . S
C421 C418 1.526 1_655 S
C421 C422 1.396 . S
C421 C426 1.390 . S
C422 C416 1.465 1_655 S
C422 C421 1.396 . S
C422 C423 1.399 . S
C423 H409 0.929 . S
C423 C422 1.399 . S
C423 C424 1.385 . S
C424 H410 0.931 . S
C424 C423 1.385 . S
C424 C425 1.389 . S
C425 C424 1.389 . S
C425 C426 1.387 . S
C426 H411 0.930 . S
C426 C421 1.390 . S
C426 C425 1.387 . S
H427 C439 0.930 . S
H428 C441 0.930 . S
H429 C442 0.930 . S
H430 C446 0.959 . S
H431 C446 0.959 . S
H432 C446 0.961 . S
H433 C447 0.960 . S
H434 C447 0.961 . S
H435 C447 0.959 . S
H436 C450 0.929 . S
H437 C451 0.931 . S
H438 C453 0.930 . S
C439 H427 0.930 . S
C439 C440 1.399 . S
C439 C444 1.399 . S
C440 C439 1.399 . S
C440 C441 1.376 . S
C441 H428 0.930 . S
C441 C440 1.376 . S
C441 C442 1.388 . S
C442 H429 0.930 . S
C442 C441 1.388 . S
C442 C443 1.390 . S
C443 C442 1.390 . S
C443 C444 1.394 . S
C443 C449 1.465 . S
C444 C439 1.399 . S
C444 C443 1.394 . S
C444 C445 1.516 . S
C445 C444 1.516 . S
C445 C446 1.502 . S
C445 C447 1.561 . S
C445 C448 1.526 . S
C446 H430 0.959 . S
C446 H431 0.959 . S
C446 H432 0.961 . S
C446 C445 1.502 . S
C447 H433 0.960 . S
C447 H434 0.961 . S
C447 H435 0.959 . S
C447 C445 1.561 . S
C448 C445 1.526 . S
C448 C449 1.396 . S
C448 C453 1.390 . S
C449 C443 1.465 . S
C449 C448 1.396 . S
C449 C450 1.399 . S
C450 H436 0.929 . S
C450 C449 1.399 . S
C450 C451 1.385 . S
C451 H437 0.931 . S
C451 C450 1.385 . S
C451 C452 1.389 . S
C452 C451 1.389 . S
C452 C453 1.387 . S
C453 H438 0.930 . S
C453 C448 1.390 . S
C453 C452 1.387 . S
H454 C466 0.930 . S
H455 C468 0.930 . S
H456 C469 0.930 . S
H457 C473 0.959 . S
H458 C473 0.959 . S
H459 C473 0.961 . S
H460 C474 0.960 . S
H461 C474 0.961 1_655 S
H462 C474 0.959 . S
H463 C477 0.929 . S
H464 C478 0.931 . S
H465 C480 0.930 . S
C466 H454 0.930 . S
C466 C467 1.399 . S
C466 C471 1.399 . S
C467 C466 1.399 . S
C467 C468 1.376 . S
C468 H455 0.930 . S
C468 C467 1.376 . S
C468 C469 1.388 . S
C469 H456 0.930 . S
C469 C468 1.388 . S
C469 C470 1.390 . S
C470 C469 1.390 . S
C470 C471 1.394 . S
C470 C476 1.465 1_455 S
C471 C466 1.399 . S
C471 C470 1.394 . S
C471 C472 1.516 1_455 S
C472 C471 1.516 1_655 S
C472 C473 1.502 . S
C472 C474 1.561 1_655 S
C472 C475 1.526 . S
C473 H457 0.959 . S
C473 H458 0.959 . S
C473 H459 0.961 . S
C473 C472 1.502 . S
C474 H460 0.960 . S
C474 H461 0.961 1_455 S
C474 H462 0.959 . S
C474 C472 1.561 1_455 S
C475 C472 1.526 . S
C475 C476 1.396 . S
C475 C480 1.390 . S
C476 C470 1.465 1_655 S
C476 C475 1.396 . S
C476 C477 1.399 . S
C477 H463 0.929 . S
C477 C476 1.399 . S
C477 C478 1.385 . S
C478 H464 0.931 . S
C478 C477 1.385 . S
C478 C479 1.389 . S
C479 C478 1.389 . S
C479 C480 1.387 . S
C480 H465 0.930 . S
C480 C475 1.390 . S
C480 C479 1.387 . S
H481 C493 0.930 . S
H482 C495 0.930 . S
H483 C496 0.930 . S
H484 C500 0.959 . S
H485 C500 0.959 . S
H486 C500 0.961 . S
H487 C501 0.960 . S
H488 C501 0.961 . S
H489 C501 0.959 . S
H490 C504 0.929 . S
H491 C505 0.931 . S
H492 C507 0.930 . S
C493 H481 0.930 . S
C493 C494 1.399 . S
C493 C498 1.399 . S
C494 C493 1.399 . S
C494 C495 1.376 . S
C495 H482 0.930 . S
C495 C494 1.376 . S
C495 C496 1.388 . S
C496 H483 0.930 . S
C496 C495 1.388 . S
C496 C497 1.390 . S
C497 C496 1.390 . S
C497 C498 1.394 . S
C497 C503 1.465 . S
C498 C493 1.399 . S
C498 C497 1.394 . S
C498 C499 1.516 . S
C499 C498 1.516 . S
C499 C500 1.502 . S
C499 C501 1.561 . S
C499 C502 1.526 . S
C500 H484 0.959 . S
C500 H485 0.959 . S
C500 H486 0.961 . S
C500 C499 1.502 . S
C501 H487 0.960 . S
C501 H488 0.961 . S
C501 H489 0.959 . S
C501 C499 1.561 . S
C502 C499 1.526 . S
C502 C503 1.396 . S
C502 C507 1.390 . S
C503 C497 1.465 . S
C503 C502 1.396 . S
C503 C504 1.399 . S
C504 H490 0.929 . S
C504 C503 1.399 . S
C504 C505 1.385 . S
C505 H491 0.931 . S
C505 C504 1.385 . S
C505 C506 1.389 . S
C506 C505 1.389 . S
C506 C507 1.387 . S
C507 H492 0.930 . S
C507 C502 1.390 . S
C507 C506 1.387 . S
H508 C520 0.930 . S
H509 C522 0.930 . S
H510 C523 0.931 . S
H511 C527 0.959 . S
H512 C527 0.959 . S
H513 C527 0.961 . S
H514 C528 0.960 . S
H515 C528 0.961 . S
H516 C528 0.959 . S
H517 C531 0.929 1_565 S
H518 C532 0.931 1_565 S
H519 C534 0.930 1_554 S
C520 H508 0.930 . S
C520 C521 1.399 . S
C520 C525 1.399 . S
C521 C520 1.399 . S
C521 C522 1.376 . S
C522 H509 0.930 . S
C522 C521 1.376 . S
C522 C523 1.387 1_554 S
C523 H510 0.931 . S
C523 C522 1.387 1_556 S
C523 C524 1.390 1_556 S
C524 C523 1.390 1_554 S
C524 C525 1.397 . S
C524 C530 1.464 1_454 S
C525 C520 1.399 . S
C525 C524 1.397 . S
C525 C526 1.516 1_455 S
C526 C525 1.516 1_655 S
C526 C527 1.502 . S
C526 C528 1.561 1_554 S
C526 C529 1.527 . S
C527 H511 0.959 . S
C527 H512 0.959 . S
C527 H513 0.961 . S
C527 C526 1.502 . S
C528 H514 0.960 . S
C528 H515 0.961 . S
C528 H516 0.959 . S
C528 C526 1.561 1_556 S
C529 C526 1.527 . S
C529 C530 1.395 1_554 S
C529 C534 1.389 1_554 S
C530 C524 1.464 1_656 S
C530 C529 1.395 1_556 S
C530 C531 1.399 . S
C531 H517 0.929 1_545 S
C531 C530 1.399 . S
C531 C532 1.385 . S
C532 H518 0.931 1_545 S
C532 C531 1.385 . S
C532 C533 1.389 . S
C533 C532 1.389 . S
C533 C534 1.387 . S
C534 H519 0.930 1_556 S
C534 C529 1.389 1_556 S
C534 C533 1.387 . S
H535 C547 0.930 . S
H536 C549 0.930 . S
H537 C550 0.930 . S
H538 C554 0.959 . S
H539 C554 0.959 . S
H540 C554 0.961 . S
H541 C555 0.960 . S
H542 C555 0.961 . S
H543 C555 0.959 . S
H544 C558 0.929 . S
H545 C559 0.931 . S
H546 C561 0.930 . S
C547 H535 0.930 . S
C547 C548 1.399 . S
C547 C552 1.399 . S
C548 C547 1.399 . S
C548 C549 1.376 . S
C549 H536 0.930 . S
C549 C548 1.376 . S
C549 C550 1.388 . S
C550 H537 0.930 . S
C550 C549 1.388 . S
C550 C551 1.390 . S
C551 C550 1.390 . S
C551 C552 1.394 . S
C551 C557 1.465 . S
C552 C547 1.399 . S
C552 C551 1.394 . S
C552 C553 1.516 . S
C553 C552 1.516 . S
C553 C554 1.502 . S
C553 C555 1.561 . S
C553 C556 1.526 . S
C554 H538 0.959 . S
C554 H539 0.959 . S
C554 H540 0.961 . S
C554 C553 1.502 . S
C555 H541 0.960 . S
C555 H542 0.961 . S
C555 H543 0.959 . S
C555 C553 1.561 . S
C556 C553 1.526 . S
C556 C557 1.396 . S
C556 C561 1.390 . S
C557 C551 1.465 . S
C557 C556 1.396 . S
C557 C558 1.399 . S
C558 H544 0.929 . S
C558 C557 1.399 . S
C558 C559 1.385 . S
C559 H545 0.931 . S
C559 C558 1.385 . S
C559 C560 1.389 . S
C560 C559 1.389 . S
C560 C561 1.387 . S
C561 H546 0.930 . S
C561 C556 1.390 . S
C561 C560 1.387 . S
H562 C574 0.930 . S
H563 C576 0.930 . S
H564 C577 0.930 . S
H565 C581 0.959 . S
H566 C581 0.959 . S
H567 C581 0.961 . S
H568 C582 0.960 . S
H569 C582 0.961 . S
H570 C582 0.959 . S
H571 C585 0.929 . S
H572 C586 0.931 . S
H573 C588 0.930 . S
C574 H562 0.930 . S
C574 C575 1.399 1_556 S
C574 C579 1.399 . S
C575 C574 1.399 1_554 S
C575 C576 1.376 . S
C576 H563 0.930 . S
C576 C575 1.376 . S
C576 C577 1.388 . S
C577 H564 0.930 . S
C577 C576 1.388 . S
C577 C578 1.390 . S
C578 C577 1.390 . S
C578 C579 1.394 1_554 S
C578 C584 1.465 . S
C579 C574 1.399 . S
C579 C578 1.394 1_556 S
C579 C580 1.516 . S
C580 C579 1.516 . S
C580 C581 1.502 . S
C580 C582 1.561 . S
C580 C583 1.526 . S
C581 H565 0.959 . S
C581 H566 0.959 . S
C581 H567 0.961 . S
C581 C580 1.502 . S
C582 H568 0.960 . S
C582 H569 0.961 . S
C582 H570 0.959 . S
C582 C580 1.561 . S
C583 C580 1.526 . S
C583 C584 1.396 1_556 S
C583 C588 1.390 . S
C584 C578 1.465 . S
C584 C583 1.396 1_554 S
C584 C585 1.399 . S
C585 H571 0.929 . S
C585 C584 1.399 . S
C585 C586 1.385 . S
C586 H572 0.931 . S
C586 C585 1.385 . S
C586 C587 1.389 1_554 S
C587 C586 1.389 1_556 S
C587 C588 1.387 . S
C588 H573 0.930 . S
C588 C583 1.390 . S
C588 C587 1.387 . S
H589 C601 0.930 . S
H590 C603 0.930 . S
H591 C604 0.930 . S
H592 C608 0.959 . S
H593 C608 0.959 . S
H594 C608 0.961 . S
H595 C609 0.960 . S
H596 C609 0.961 . S
H597 C609 0.959 . S
H598 C612 0.929 . S
H599 C613 0.931 . S
H600 C615 0.930 . S
C601 H589 0.930 . S
C601 C602 1.399 . S
C601 C606 1.399 . S
C602 C601 1.399 . S
C602 C603 1.376 . S
C603 H590 0.930 . S
C603 C602 1.376 . S
C603 C604 1.388 . S
C604 H591 0.930 . S
C604 C603 1.388 . S
C604 C605 1.390 . S
C605 C604 1.390 . S
C605 C606 1.394 . S
C605 C611 1.465 . S
C606 C601 1.399 . S
C606 C605 1.394 . S
C606 C607 1.516 . S
C607 C606 1.516 . S
C607 C608 1.502 1_455 S
C607 C609 1.561 . S
C607 C610 1.526 1_455 S
C608 H592 0.959 . S
C608 H593 0.959 . S
C608 H594 0.961 . S
C608 C607 1.502 1_655 S
C609 H595 0.960 . S
C609 H596 0.961 . S
C609 H597 0.959 . S
C609 C607 1.561 . S
C610 C607 1.526 1_655 S
C610 C611 1.396 1_655 S
C610 C615 1.390 . S
C611 C605 1.465 . S
C611 C610 1.396 1_455 S
C611 C612 1.399 . S
C612 H598 0.929 . S
C612 C611 1.399 . S
C612 C613 1.385 1_455 S
C613 H599 0.931 . S
C613 C612 1.385 1_655 S
C613 C614 1.389 . S
C614 C613 1.389 . S
C614 C615 1.387 . S
C615 H600 0.930 . S
C615 C610 1.390 . S
C615 C614 1.387 . S
C197 N25 1.967 . S
C209 C16 2.083 . S
C224 N2 1.874 . S
C236 C39 1.902 . S
C251 N71 1.966 . S
C263 C62 2.081 . S
C278 N48 1.872 . S
C290 C85 1.898 . S
C305 N104 1.939 . S
C317 C122 1.938 . S
C332 N127 1.752 . S
C344 C99 1.893 . S
C359 N150 1.930 . S
C371 C168 1.929 . S
C386 C145 1.868 . S
C398 N173 1.806 . S
C413 C7 1.343 . S
C425 C76 1.295 . S
C440 C30 1.360 . S
C452 C53 1.276 . S
C467 N163 1.277 . S
C479 N94 1.218 . S
C494 N140 1.135 . S
C506 N117 1.300 . S
C521 N12 1.366 . S
C533 C108 1.334 . S
C548 C131 1.450 . S
C560 N35 1.517 . S
C575 C154 1.313 . S
C587 N58 1.373 . S
C602 C177 1.462 . S
C614 N81 1.527 . S
