# Generated by pormake.
# Topology whk, (6)-cn, num edge types: 1
# Building blocks:
#     Node 0, Type 0, BuildingBlock: VOLQOD_clean_sbu_1, # of connection points: 6
#     Node 1, Type 0, BuildingBlock: VOLQOD_clean_sbu_1, # of connection points: 6
#     Node 2, Type 0, BuildingBlock: VOLQOD_clean_sbu_1, # of connection points: 6
#     Node 3, Type 0, BuildingBlock: VOLQOD_clean_sbu_1, # of connection points: 6
#     Node 4, Type 0, BuildingBlock: VOLQOD_clean_sbu_1, # of connection points: 6
#     Node 5, Type 0, BuildingBlock: VOLQOD_clean_sbu_1, # of connection points: 6
#     Node 6, Type 0, BuildingBlock: VOLQOD_clean_sbu_1, # of connection points: 6
#     Node 7, Type 0, BuildingBlock: VOLQOD_clean_sbu_1, # of connection points: 6
#     Node 8, Type 0, BuildingBlock: VOLQOD_clean_sbu_1, # of connection points: 6
#     Node 9, Type 0, BuildingBlock: VOLQOD_clean_sbu_1, # of connection points: 6
#     Node 10, Type 0, BuildingBlock: VOLQOD_clean_sbu_1, # of connection points: 6
#     Node 11, Type 0, BuildingBlock: VOLQOD_clean_sbu_1, # of connection points: 6
#     Node 12, Type 0, BuildingBlock: VOLQOD_clean_sbu_1, # of connection points: 6
#     Node 13, Type 0, BuildingBlock: VOLQOD_clean_sbu_1, # of connection points: 6
#     Node 14, Type 0, BuildingBlock: VOLQOD_clean_sbu_1, # of connection points: 6
#     Node 15, Type 0, BuildingBlock: VOLQOD_clean_sbu_1, # of connection points: 6
#     Edge 16, Type (0, 0), BuildingBlock: UVAHIK_clean_linker_0, # of connection points: 2
#     Edge 17, Type (0, 0), BuildingBlock: UVAHIK_clean_linker_0, # of connection points: 2
#     Edge 18, Type (0, 0), BuildingBlock: UVAHIK_clean_linker_0, # of connection points: 2
#     Edge 19, Type (0, 0), BuildingBlock: UVAHIK_clean_linker_0, # of connection points: 2
#     Edge 20, Type (0, 0), BuildingBlock: UVAHIK_clean_linker_0, # of connection points: 2
#     Edge 21, Type (0, 0), BuildingBlock: UVAHIK_clean_linker_0, # of connection points: 2
#     Edge 22, Type (0, 0), BuildingBlock: UVAHIK_clean_linker_0, # of connection points: 2
#     Edge 23, Type (0, 0), BuildingBlock: UVAHIK_clean_linker_0, # of connection points: 2
#     Edge 24, Type (0, 0), BuildingBlock: UVAHIK_clean_linker_0, # of connection points: 2
#     Edge 25, Type (0, 0), BuildingBlock: UVAHIK_clean_linker_0, # of connection points: 2
#     Edge 26, Type (0, 0), BuildingBlock: UVAHIK_clean_linker_0, # of connection points: 2
#     Edge 27, Type (0, 0), BuildingBlock: UVAHIK_clean_linker_0, # of connection points: 2
#     Edge 28, Type (0, 0), BuildingBlock: UVAHIK_clean_linker_0, # of connection points: 2
#     Edge 29, Type (0, 0), BuildingBlock: UVAHIK_clean_linker_0, # of connection points: 2
#     Edge 30, Type (0, 0), BuildingBlock: UVAHIK_clean_linker_0, # of connection points: 2
#     Edge 31, Type (0, 0), BuildingBlock: UVAHIK_clean_linker_0, # of connection points: 2
#     Edge 32, Type (0, 0), BuildingBlock: UVAHIK_clean_linker_0, # of connection points: 2
#     Edge 33, Type (0, 0), BuildingBlock: UVAHIK_clean_linker_0, # of connection points: 2
#     Edge 34, Type (0, 0), BuildingBlock: UVAHIK_clean_linker_0, # of connection points: 2
#     Edge 35, Type (0, 0), BuildingBlock: UVAHIK_clean_linker_0, # of connection points: 2
#     Edge 36, Type (0, 0), BuildingBlock: UVAHIK_clean_linker_0, # of connection points: 2
#     Edge 37, Type (0, 0), BuildingBlock: UVAHIK_clean_linker_0, # of connection points: 2
#     Edge 38, Type (0, 0), BuildingBlock: UVAHIK_clean_linker_0, # of connection points: 2
#     Edge 39, Type (0, 0), BuildingBlock: UVAHIK_clean_linker_0, # of connection points: 2
#     Edge 40, Type (0, 0), BuildingBlock: UVAHIK_clean_linker_0, # of connection points: 2
#     Edge 41, Type (0, 0), BuildingBlock: UVAHIK_clean_linker_0, # of connection points: 2
#     Edge 42, Type (0, 0), BuildingBlock: UVAHIK_clean_linker_0, # of connection points: 2
#     Edge 43, Type (0, 0), BuildingBlock: UVAHIK_clean_linker_0, # of connection points: 2
#     Edge 44, Type (0, 0), BuildingBlock: UVAHIK_clean_linker_0, # of connection points: 2
#     Edge 45, Type (0, 0), BuildingBlock: UVAHIK_clean_linker_0, # of connection points: 2
#     Edge 46, Type (0, 0), BuildingBlock: UVAHIK_clean_linker_0, # of connection points: 2
#     Edge 47, Type (0, 0), BuildingBlock: UVAHIK_clean_linker_0, # of connection points: 2
#     Edge 48, Type (0, 0), BuildingBlock: UVAHIK_clean_linker_0, # of connection points: 2
#     Edge 49, Type (0, 0), BuildingBlock: UVAHIK_clean_linker_0, # of connection points: 2
#     Edge 50, Type (0, 0), BuildingBlock: UVAHIK_clean_linker_0, # of connection points: 2
#     Edge 51, Type (0, 0), BuildingBlock: UVAHIK_clean_linker_0, # of connection points: 2
#     Edge 52, Type (0, 0), BuildingBlock: UVAHIK_clean_linker_0, # of connection points: 2
#     Edge 53, Type (0, 0), BuildingBlock: UVAHIK_clean_linker_0, # of connection points: 2
#     Edge 54, Type (0, 0), BuildingBlock: UVAHIK_clean_linker_0, # of connection points: 2
#     Edge 55, Type (0, 0), BuildingBlock: UVAHIK_clean_linker_0, # of connection points: 2
#     Edge 56, Type (0, 0), BuildingBlock: UVAHIK_clean_linker_0, # of connection points: 2
#     Edge 57, Type (0, 0), BuildingBlock: UVAHIK_clean_linker_0, # of connection points: 2
#     Edge 58, Type (0, 0), BuildingBlock: UVAHIK_clean_linker_0, # of connection points: 2
#     Edge 59, Type (0, 0), BuildingBlock: UVAHIK_clean_linker_0, # of connection points: 2
#     Edge 60, Type (0, 0), BuildingBlock: UVAHIK_clean_linker_0, # of connection points: 2
#     Edge 61, Type (0, 0), BuildingBlock: UVAHIK_clean_linker_0, # of connection points: 2
#     Edge 62, Type (0, 0), BuildingBlock: UVAHIK_clean_linker_0, # of connection points: 2
#     Edge 63, Type (0, 0), BuildingBlock: UVAHIK_clean_linker_0, # of connection points: 2
# Relax obj value: 0.405
# Max RMSD: 0.245
# Mean RMSD: 0.241
data_MOF--net-whk--node1-VOLQOD_clean_sbu_1--edge1-UVAHIK_clean_linker_0
_symmetry_space_group_name_H-M    P1
_symmetry_Int_Tables_number       1
_symmetry_cell_setting            triclinic
loop_
_symmetry_equiv_pos_as_xyz
'x, y, z'
_cell_length_a     46.702494
_cell_length_b     46.704002
_cell_length_c     69.656241
_cell_angle_alpha  90.058474
_cell_angle_beta   90.070727
_cell_angle_gamma 89.927399
loop_
_atom_site_label
_atom_site_type_symbol
_atom_site_fract_x
_atom_site_fract_y
_atom_site_fract_z
_atom_type_partial_charge
O0 O 0.55213 0.21097 0.4156 0.0
Zn1 Zn 0.55035 0.1955 0.38894 0.0
O2 O 0.54472 0.15456 0.38946 0.0
Zn3 Zn 0.57762 0.13566 0.37796 0.0
Zn4 Zn 0.53877 0.1415 0.41594 0.0
Zn5 Zn 0.51147 0.14636 0.3739 0.0
O6 O 0.56613 0.11213 0.35487 0.0
O7 O 0.5226 0.12895 0.34852 0.0
O8 O 0.58538 0.20662 0.37451 0.0
O9 O 0.60539 0.16476 0.36767 0.0
O10 O 0.59902 0.11246 0.39774 0.0
O11 O 0.57261 0.11709 0.42412 0.0
O12 O 0.50201 0.11801 0.41795 0.0
O13 O 0.51736 0.21578 0.37713 0.0
O14 O 0.48778 0.11781 0.38741 0.0
O15 O 0.48635 0.18139 0.37012 0.0
C16 C 0.54499 0.20147 0.43204 0.0
C17 C 0.54442 0.11411 0.34381 0.0
C18 C 0.59477 0.10752 0.41551 0.0
C19 C 0.60536 0.19199 0.36695 0.0
C20 C 0.48522 0.10941 0.40467 0.0
C21 C 0.4929 0.20777 0.3713 0.0
O22 O 0.53763 0.1754 0.43439 0.0
O23 O 0.29234 0.57138 0.42445 0.0
Zn24 Zn 0.30139 0.56877 0.39638 0.0
O25 O 0.33787 0.55072 0.39245 0.0
Zn26 Zn 0.36517 0.57882 0.3835 0.0
Zn27 Zn 0.34995 0.53381 0.4166 0.0
Zn28 Zn 0.33371 0.5217 0.37314 0.0
O29 O 0.38486 0.56525 0.35929 0.0
O30 O 0.35279 0.5337 0.34872 0.0
O31 O 0.29923 0.60703 0.38346 0.0
O32 O 0.34471 0.615 0.37579 0.0
O33 O 0.39199 0.58988 0.40494 0.0
O34 O 0.37997 0.55976 0.42829 0.0
O35 O 0.36514 0.49311 0.41262 0.0
O36 O 0.27031 0.54423 0.38595 0.0
O37 O 0.35479 0.48717 0.38165 0.0
O38 O 0.29225 0.51013 0.36941 0.0
C39 C 0.29732 0.55288 0.43748 0.0
C40 C 0.37492 0.54916 0.34604 0.0
C41 C 0.39445 0.58106 0.42219 0.0
C42 C 0.3186 0.62276 0.37617 0.0
C43 C 0.36565 0.47818 0.39726 0.0
C44 C 0.26941 0.52157 0.37585 0.0
O45 O 0.31682 0.53394 0.43543 0.0
O46 O 0.91972 0.28639 0.42375 0.0
Zn47 Zn 0.92106 0.29583 0.39574 0.0
O48 O 0.93996 0.33174 0.39162 0.0
Zn49 Zn 0.91272 0.35916 0.3817 0.0
Zn50 Zn 0.95487 0.34508 0.41596 0.0
Zn51 Zn 0.97042 0.32655 0.37329 0.0
O52 O 0.92913 0.37969 0.35885 0.0
O53 O 0.96063 0.34724 0.34861 0.0
O54 O 0.88248 0.2949 0.38347 0.0
O55 O 0.8779 0.33879 0.37168 0.0
O56 O 0.89861 0.3853 0.40285 0.0
O57 O 0.92709 0.37377 0.42723 0.0
O58 O 0.99434 0.36263 0.41226 0.0
O59 O 0.94343 0.26391 0.38414 0.0
O60 O 0.0055 0.34557 0.38337 0.0
O61 O 0.9799 0.28452 0.36917 0.0
C62 C 0.9381 0.29186 0.43679 0.0
C63 C 0.94586 0.36994 0.34592 0.0
C64 C 0.90587 0.38773 0.42043 0.0
C65 C 0.86861 0.3134 0.3738 0.0
C66 C 0.01198 0.35962 0.39842 0.0
C67 C 0.96636 0.26218 0.37441 0.0
O68 O 0.95632 0.312 0.43483 0.0
O69 O 0.14387 0.95193 0.35149 0.0
Zn70 Zn 0.17311 0.94689 0.3724 0.0
O71 O 0.15457 0.94069 0.39703 0.0
Zn72 Zn 0.16012 0.97317 0.41386 0.0
Zn73 Zn 0.11384 0.93395 0.3929 0.0
Zn74 Zn 0.17288 0.90919 0.40953 0.0
O75 O 0.17474 0.96295 0.44045 0.0
O76 O 0.19516 0.92175 0.43257 0.0
O77 O 0.20127 0.97964 0.37433 0.0
O78 O 0.1916 -0.00291 0.40327 0.0
O79 O 0.12476 -0.00308 0.41455 0.0
O80 O 0.09162 0.96983 0.40054 0.0
O81 O 0.10083 0.89814 0.4078 0.0
O82 O 0.19617 0.91223 0.36454 0.0
O83 O 0.14298 0.88179 0.41798 0.0
O84 O 0.1996 0.88849 0.39204 0.0
C85 C 0.11919 0.94051 0.34978 0.0
C86 C 0.19206 0.94259 0.44416 0.0
C87 C 0.09925 0.99324 0.40855 0.0
C88 C 0.20625 -0.00269 0.3879 0.0
C89 C 0.11588 0.87946 0.41671 0.0
C90 C 0.20597 0.89156 0.37444 0.0
O91 O 0.10638 0.92947 0.3642 0.0
O92 O 0.03939 0.84976 0.15212 0.0
Zn93 Zn 0.04508 0.82203 0.13034 0.0
O94 O 0.05369 0.84219 0.10656 0.0
Zn95 Zn 0.02344 0.83689 0.08784 0.0
Zn96 Zn 0.05785 0.88268 0.11225 0.0
Zn97 Zn 0.08794 0.82691 0.09529 0.0
O98 O 0.03705 0.82265 0.06196 0.0
O99 O 0.07918 0.80541 0.07101 0.0
O100 O 0.01131 0.79545 0.12677 0.0
O101 O -0.00187 0.80545 0.09689 0.0
O102 O -0.00108 0.87182 0.08611 0.0
O103 O 0.02129 0.90324 0.10481 0.0
O104 O 0.09234 0.89893 0.09795 0.0
O105 O 0.07857 0.79745 0.13847 0.0
O106 O 0.11485 0.85889 0.08907 0.0
O107 O 0.10725 0.79965 0.11306 0.0
C108 C 0.05036 0.87442 0.15487 0.0
C109 C 0.05903 0.8072 0.05874 0.0
C110 C 3e-05 0.89616 0.09433 0.0
C111 C 0.99529 0.79102 0.11223 0.0
C112 C 0.11361 0.88608 0.09027 0.0
C113 C 0.1013 0.79021 0.12968 0.0
O114 O 0.06169 0.88849 0.14112 0.0
O115 O 0.6483 0.04226 0.15214 0.0
Zn116 Zn 0.67769 0.04869 0.13173 0.0
O117 O 0.65997 0.05055 0.10651 0.0
Zn118 Zn 0.67031 0.01668 0.09205 0.0
Zn119 Zn 0.61851 0.05283 0.10947 0.0
Zn120 Zn 0.67447 0.08354 0.0931 0.0
O121 O 0.68447 0.02595 0.06541 0.0
O122 O 0.69409 0.07228 0.06852 0.0
O123 O 0.70937 0.01926 0.1325 0.0
O124 O 0.70375 -0.00246 0.10444 0.0
O125 O 0.63765 0.98904 0.09175 0.0
O126 O 0.60067 0.01497 0.10189 0.0
O127 O 0.60204 0.08628 0.09402 0.0
O128 O 0.69672 0.08585 0.13822 0.0
O129 O 0.64201 0.10951 0.08616 0.0
O130 O 0.70164 0.10603 0.10954 0.0
C131 C 0.62195 0.04932 0.15281 0.0
C132 C 0.69517 0.04908 0.05891 0.0
C133 C 0.61121 0.99135 0.09596 0.0
C134 C 0.71722 0.00071 0.12017 0.0
C135 C 0.61483 0.10774 0.08659 0.0
C136 C 0.70668 0.10544 0.12749 0.0
O137 O 0.6084 0.05707 0.13774 0.0
O138 O 0.42542 0.70778 0.07723 0.0
Zn139 Zn 0.42342 0.69604 0.10486 0.0
O140 O 0.44091 0.65896 0.1083 0.0
Zn141 Zn 0.41258 0.63175 0.11716 0.0
Zn142 Zn 0.45744 0.64559 0.08419 0.0
Zn143 Zn 0.46999 0.66265 0.1278 0.0
O144 O 0.42603 0.61148 0.14104 0.0
O145 O 0.45805 0.64269 0.15205 0.0
O146 O 0.38371 0.69737 0.11569 0.0
O147 O 0.37656 0.65231 0.12479 0.0
O148 O 0.40111 0.60476 0.096 0.0
O149 O 0.43102 0.61597 0.07241 0.0
O150 O 0.49756 0.62888 0.0887 0.0
O151 O 0.4456 0.7265 0.11819 0.0
O152 O 0.5046 0.64216 0.11899 0.0
O153 O 0.48125 0.70386 0.13271 0.0
C154 C 0.44249 0.70057 0.06378 0.0
C155 C 0.44231 0.62068 0.15441 0.0
C156 C 0.40968 0.6018 0.07875 0.0
C157 C 0.36822 0.67816 0.12339 0.0
C158 C 0.51313 0.62971 0.1038 0.0
C159 C 0.46843 0.72692 0.12809 0.0
O160 O 0.45838 0.67837 0.06508 0.0
O161 O 0.7964 0.42068 0.0765 0.0
Zn162 Zn 0.80656 0.42481 0.10436 0.0
O163 O 0.84415 0.44108 0.10717 0.0
Zn164 Zn 0.87047 0.41252 0.11681 0.0
Zn165 Zn 0.85647 0.45544 0.08236 0.0
Zn166 Zn 0.84207 0.47154 0.12562 0.0
O167 O 0.8907 0.42627 0.14075 0.0
O168 O 0.86044 0.46005 0.15059 0.0
O169 O 0.80324 0.38761 0.11844 0.0
O170 O 0.8487 0.37783 0.12537 0.0
O171 O 0.89713 0.39931 0.09589 0.0
O172 O 0.8858 0.42788 0.0715 0.0
O173 O 0.87324 0.49564 0.08492 0.0
O174 O 0.7769 0.45157 0.11445 0.0
O175 O 0.86478 0.50403 0.11585 0.0
O176 O 0.8015 0.48611 0.12878 0.0
C177 C 0.80233 0.43741 0.0626 0.0
C178 C 0.88165 0.44343 0.15367 0.0
C179 C 0.8999 0.40682 0.0784 0.0
C180 C 0.82226 0.37136 0.12571 0.0
C181 C 0.87531 0.51149 0.09981 0.0
C182 C 0.77779 0.47533 0.12334 0.0
O183 O 0.82307 0.45513 0.06366 0.0
O184 O 0.41375 0.78955 0.58064 0.0
Zn185 Zn 0.4204 0.80019 0.60797 0.0
O186 O 0.43792 0.83706 0.61029 0.0
Zn187 Zn 0.41086 0.86364 0.62167 0.0
Zn188 Zn 0.44899 0.84942 0.5847 0.0
Zn189 Zn 0.4707 0.83352 0.62707 0.0
O190 O 0.42847 0.88427 0.64415 0.0
O191 O 0.46374 0.85442 0.65205 0.0
O192 O 0.38477 0.79755 0.62334 0.0
O193 O 0.37743 0.84225 0.63298 0.0
O194 O 0.39512 0.89052 0.60153 0.0
O195 O 0.42093 0.8795 0.57574 0.0
O196 O 0.48933 0.86582 0.5853 0.0
O197 O 0.4466 0.76982 0.61716 0.0
O198 O 0.50357 0.85256 0.61451 0.0
O199 O 0.48271 0.79229 0.63117 0.0
C200 C 0.42878 0.79505 0.56586 0.0
C201 C 0.44769 0.87582 0.6559 0.0
C202 C 0.40091 0.89374 0.58378 0.0
C203 C 0.3703 0.81596 0.63266 0.0
C204 C 0.5084 0.86447 0.59842 0.0
C205 C 0.47048 0.76924 0.62585 0.0
O206 O 0.44621 0.81611 0.56569 0.0
O207 O 0.70536 0.41989 0.58066 0.0
Zn208 Zn 0.69296 0.42366 0.60796 0.0
O209 O 0.6551 0.43905 0.61031 0.0
Zn210 Zn 0.62972 0.40951 0.62016 0.0
Zn211 Zn 0.64283 0.45176 0.58496 0.0
Zn212 Zn 0.65639 0.47039 0.62854 0.0
O213 O 0.60646 0.42441 0.64245 0.0
O214 O 0.63349 0.46082 0.65224 0.0
O215 O 0.69705 0.38761 0.62259 0.0
O216 O 0.65263 0.3768 0.63134 0.0
O217 O 0.60507 0.39372 0.5988 0.0
O218 O 0.61348 0.42394 0.57479 0.0
O219 O 0.6259 0.49192 0.58663 0.0
O220 O 0.7213 0.44989 0.61933 0.0
O221 O 0.63801 0.50415 0.61649 0.0
O222 O 0.69674 0.4827 0.6353 0.0
C223 C 0.69857 0.43463 0.56596 0.0
C224 C 0.61285 0.4434 0.65492 0.0
C225 C 0.601 0.40185 0.58153 0.0
C226 C 0.6794 0.37168 0.63138 0.0
C227 C 0.62674 0.51006 0.60034 0.0
C228 C 0.72048 0.472 0.62989 0.0
O229 O 0.67624 0.45047 0.56593 0.0
O230 O 0.07389 0.68617 0.56977 0.0
Zn231 Zn 0.0685 0.68485 0.59827 0.0
O232 O 0.05389 0.64898 0.60665 0.0
Zn233 Zn 0.08442 0.62787 0.61862 0.0
Zn234 Zn 0.03977 0.62959 0.58398 0.0
Zn235 Zn 0.0245 0.65553 0.62552 0.0
O236 O 0.07002 0.60782 0.64216 0.0
O237 O 0.03518 0.63754 0.65107 0.0
O238 O 0.10354 0.69511 0.61279 0.0
O239 O 0.11506 0.65493 0.62801 0.0
O240 O 0.10139 0.60052 0.59949 0.0
O241 O 0.06852 0.5991 0.57633 0.0
O242 O 0.00037 0.61298 0.58926 0.0
O243 O 0.04077 0.71545 0.60451 0.0
O244 O 0.98969 0.63514 0.6167 0.0
O245 O 0.01343 0.69741 0.62753 0.0
C246 C 0.05636 0.67678 0.55724 0.0
C247 C 0.05196 0.61656 0.65459 0.0
C248 C 0.09239 0.59093 0.58344 0.0
C249 C 0.11928 0.68133 0.62446 0.0
C250 C 0.98291 0.61878 0.60282 0.0
C251 C 0.02107 0.71827 0.61693 0.0
O252 O 0.03811 0.65741 0.56135 0.0
O253 O 0.79795 0.07624 0.5708 0.0
Zn254 Zn 0.80194 0.07014 0.59912 0.0
O255 O 0.83762 0.05273 0.60564 0.0
Zn256 Zn 0.8618 0.08103 0.61736 0.0
Zn257 Zn 0.85407 0.03861 0.58195 0.0
Zn258 Zn 0.83139 0.02279 0.62423 0.0
O259 O 0.88208 0.06468 0.6402 0.0
O260 O 0.85011 0.0325 0.64981 0.0
O261 O 0.79577 0.10593 0.61396 0.0
O262 O 0.83791 0.11336 0.62781 0.0
O263 O 0.88927 0.09662 0.59788 0.0
O264 O 0.88584 0.06542 0.57382 0.0
O265 O 0.86916 -0.00167 0.58594 0.0
O266 O 0.77034 0.04401 0.60622 0.0
O267 O 0.85125 0.98793 0.61472 0.0
O268 O 0.78935 0.01242 0.62632 0.0
C269 C 0.80533 0.05899 0.55752 0.0
C270 C 0.87243 0.04762 0.65291 0.0
C271 C 0.89675 0.08788 0.58129 0.0
C272 C 0.81181 0.12022 0.62518 0.0
C273 C 0.86544 0.98094 0.59985 0.0
C274 C 0.76784 0.02257 0.6173 0.0
O275 O 0.82432 0.03976 0.5604 0.0
O276 O 0.91981 0.20431 0.92067 0.0
Zn277 Zn 0.92491 0.19446 0.89303 0.0
O278 O 0.94023 0.15681 0.88957 0.0
Zn279 Zn 0.91097 0.1326 0.87846 0.0
Zn280 Zn 0.95187 0.14243 0.91465 0.0
Zn281 Zn 0.972 0.15939 0.87182 0.0
O282 O 0.92638 0.11081 0.85586 0.0
O283 O 0.9632 0.13803 0.84716 0.0
O284 O 0.88963 0.2002 0.87769 0.0
O285 O 0.8788 0.1564 0.86758 0.0
O286 O 0.89435 0.10671 0.89859 0.0
O287 O 0.92284 0.11323 0.92382 0.0
O288 O 0.99186 0.12504 0.91292 0.0
O289 O 0.95224 0.22352 0.88391 0.0
O290 O 0.00508 0.13999 0.88385 0.0
O291 O 0.98518 0.20025 0.86724 0.0
C292 C 0.93523 0.19709 0.93496 0.0
C293 C 0.94571 0.11763 0.84379 0.0
C294 C 0.90108 0.10151 0.91599 0.0
C295 C 0.87386 0.18317 0.86817 0.0
C296 C 0.01045 0.12725 0.89957 0.0
C297 C 0.97485 0.22349 0.87385 0.0
O298 O 0.95136 0.175 0.93428 0.0
O299 O 0.29216 0.93031 0.92741 0.0
Zn300 Zn 0.30042 0.9301 0.89933 0.0
O301 O 0.33868 0.94225 0.89355 0.0
Zn302 Zn 0.35963 0.91041 0.88242 0.0
Zn303 Zn 0.35712 0.95447 0.91735 0.0
Zn304 Zn 0.33649 0.97282 0.87466 0.0
O305 O 0.38144 0.92314 0.85912 0.0
O306 O 0.35724 0.96195 0.85018 0.0
O307 O 0.29129 0.89324 0.88671 0.0
O308 O 0.3322 0.88012 0.87303 0.0
O309 O 0.38619 0.89279 0.90191 0.0
O310 O 0.38663 0.92518 0.92531 0.0
O311 O 0.37495 0.99382 0.91383 0.0
O312 O 0.27229 0.95694 0.88849 0.0
O313 O 0.357 0.00629 0.88537 0.0
O314 O 0.29589 0.98643 0.86936 0.0
C315 C 0.3042 0.94325 0.94133 0.0
C316 C 0.37618 0.94283 0.84696 0.0
C317 C 0.39509 0.90145 0.91822 0.0
C318 C 0.30559 0.87642 0.87605 0.0
C319 C 0.37154 0.01199 0.90033 0.0
C320 C 0.27258 0.97764 0.87675 0.0
O321 O 0.32848 0.9554 0.9394 0.0
O322 O 0.56986 0.29691 0.92752 0.0
Zn323 Zn 0.56908 0.30589 0.89953 0.0
O324 O 0.55336 0.34327 0.8945 0.0
Zn325 Zn 0.58219 0.36672 0.88217 0.0
Zn326 Zn 0.54177 0.36069 0.91879 0.0
Zn327 Zn 0.52143 0.33919 0.87695 0.0
O328 O 0.56648 0.38698 0.85888 0.0
O329 O 0.52931 0.35921 0.85182 0.0
O330 O 0.60681 0.30029 0.8868 0.0
O331 O 0.61381 0.34181 0.87209 0.0
O332 O 0.59987 0.39381 0.90131 0.0
O333 O 0.57055 0.3909 0.92636 0.0
O334 O 0.50183 0.37776 0.91625 0.0
O335 O 0.54403 0.27578 0.88884 0.0
O336 O 0.48788 0.35863 0.88844 0.0
O337 O 0.50993 0.29799 0.87254 0.0
C338 C 0.55638 0.30749 0.94174 0.0
C339 C 0.54662 0.37925 0.84741 0.0
C340 C 0.59279 0.40112 0.91829 0.0
C341 C 0.62115 0.31606 0.87548 0.0
C342 C 0.48283 0.37346 0.90337 0.0
C343 C 0.52155 0.27506 0.87862 0.0
O344 O 0.54272 0.3311 0.94038 0.0
O345 O 0.20363 0.57544 0.92223 0.0
Zn346 Zn 0.19157 0.57188 0.89484 0.0
O347 O 0.15477 0.55406 0.89226 0.0
Zn348 Zn 0.12773 0.58152 0.88181 0.0
Zn349 Zn 0.14276 0.54137 0.91758 0.0
Zn350 Zn 0.15813 0.52236 0.87458 0.0
O351 O 0.10605 0.56501 0.85937 0.0
O352 O 0.13564 0.53015 0.85037 0.0
O353 O 0.19331 0.6089 0.88098 0.0
O354 O 0.14877 0.61523 0.8707 0.0
O355 O 0.10214 0.59681 0.90279 0.0
O356 O 0.11366 0.56953 0.92781 0.0
O357 O 0.12623 0.50104 0.91598 0.0
O358 O 0.22175 0.54739 0.88358 0.0
O359 O 0.14086 0.48824 0.88675 0.0
O360 O 0.19928 0.51185 0.86892 0.0
C361 C 0.19806 0.55932 0.93648 0.0
C362 C 0.11408 0.54628 0.84716 0.0
C363 C 0.09964 0.59032 0.9205 0.0
C364 C 0.17481 0.62312 0.87157 0.0
C365 C 0.12871 0.48248 0.90261 0.0
C366 C 0.22231 0.52436 0.87391 0.0
O367 O 0.17657 0.54243 0.93623 0.0
C368 C 0.56913 0.08377 0.31915 0.0
C369 C 0.54544 0.10052 0.32458 0.0
C370 C 0.57152 0.07336 0.30041 0.0
C371 C 0.54931 0.09113 0.25154 0.0
H372 H 0.5837 0.01774 0.23934 0.0
C373 C 0.62186 0.03976 0.18815 0.0
C374 C 0.60739 0.04963 0.17171 0.0
C375 C 0.60928 0.04189 0.20624 0.0
C376 C 0.57409 0.03832 0.24252 0.0
H377 H 0.50502 0.11831 0.31475 0.0
H378 H 0.5093 0.10007 0.28205 0.0
H379 H 0.57055 0.02863 0.27246 0.0
H380 H 0.56777 0.06849 0.16139 0.0
H381 H 0.54573 0.07211 0.19311 0.0
H382 H 0.5538 0.10129 0.22176 0.0
C383 C 0.52612 0.09528 0.29227 0.0
C384 C 0.56656 0.04454 0.26148 0.0
C385 C 0.52365 0.10561 0.31104 0.0
C386 C 0.57958 0.06081 0.17376 0.0
C387 C 0.56699 0.063 0.19193 0.0
C388 C 0.5569 0.08494 0.23259 0.0
C389 C 0.55035 0.07949 0.28666 0.0
C390 C 0.55474 0.07129 0.26627 0.0
C391 C 0.58189 0.05392 0.20841 0.0
C392 C 0.57007 0.05876 0.22794 0.0
H393 H 0.58627 0.07935 0.32919 0.0
H394 H 0.59061 0.06152 0.29651 0.0
H395 H 0.54053 0.11206 0.25478 0.0
H396 H 0.64325 0.03094 0.18714 0.0
H397 H 0.62155 0.03506 0.21863 0.0
C398 C 0.4561 0.61867 0.18914 0.0
C399 C 0.44172 0.60648 0.17338 0.0
C400 C 0.45328 0.60688 0.20744 0.0
C401 C 0.45172 0.57221 0.24428 0.0
H402 H 0.37366 0.55278 0.25788 0.0
C403 C 0.40923 0.56985 0.3221 0.0
C404 C 0.38828 0.54944 0.3268 0.0
C405 C 0.41952 0.57194 0.30332 0.0
C406 C 0.39569 0.55756 0.25427 0.0
H407 H 0.41451 0.57131 0.16432 0.0
H408 H 0.40996 0.55054 0.19623 0.0
H409 H 0.38498 0.56491 0.2249 0.0
H410 H 0.36312 0.51399 0.31573 0.0
H411 H 0.38126 0.51753 0.28309 0.0
H412 H 0.46208 0.56574 0.27395 0.0
C413 C 0.4229 0.56958 0.19448 0.0
C414 C 0.40221 0.5645 0.23532 0.0
C415 C 0.4256 0.58145 0.17618 0.0
C416 C 0.37896 0.53023 0.31255 0.0
C417 C 0.38929 0.53228 0.29383 0.0
C418 C 0.44517 0.56531 0.2633 0.0
C419 C 0.43614 0.58257 0.21039 0.0
C420 C 0.43019 0.57234 0.23014 0.0
C421 C 0.40911 0.55362 0.2889 0.0
C422 C 0.41698 0.55832 0.26853 0.0
H423 H 0.46875 0.63792 0.18749 0.0
H424 H 0.46352 0.6176 0.21941 0.0
H425 H 0.47357 0.57779 0.24069 0.0
H426 H 0.41692 0.58493 0.33274 0.0
H427 H 0.43463 0.58876 0.29994 0.0
C428 C 0.93143 0.40987 0.32393 0.0
C429 C 0.94643 0.38413 0.32691 0.0
C430 C 0.92916 0.42158 0.30556 0.0
C431 C 0.95736 0.41718 0.25571 0.0
H432 H 0.87999 0.43976 0.24222 0.0
C433 C 0.91519 0.42172 0.17779 0.0
C434 C 0.89478 0.44273 0.17304 0.0
C435 C 0.92525 0.41916 0.19661 0.0
C436 C 0.90186 0.4341 0.24578 0.0
H437 H 0.97209 0.35135 0.31303 0.0
H438 H 0.96769 0.37151 0.28095 0.0
H439 H 0.89111 0.42724 0.27519 0.0
H440 H 0.87029 0.47863 0.18414 0.0
H441 H 0.88809 0.47431 0.21688 0.0
H442 H 0.96777 0.42329 0.22603 0.0
C443 C 0.95794 0.38283 0.29285 0.0
C444 C 0.90825 0.42691 0.26473 0.0
C445 C 0.96031 0.37115 0.31125 0.0
C446 C 0.88575 0.46199 0.18733 0.0
C447 C 0.89586 0.45946 0.20613 0.0
C448 C 0.95093 0.42437 0.23669 0.0
C449 C 0.94173 0.40778 0.28972 0.0
C450 C 0.93596 0.41798 0.26989 0.0
C451 C 0.91519 0.43758 0.21108 0.0
C452 C 0.92299 0.43253 0.23148 0.0
H453 H 0.92076 0.42064 0.3357 0.0
H454 H 0.917 0.44114 0.30369 0.0
H455 H 0.979 0.41073 0.25927 0.0
H456 H 0.92266 0.40656 0.16713 0.0
H457 H 0.93994 0.40191 0.19998 0.0
C458 C 0.08207 0.92119 0.32703 0.0
C459 C 0.10618 0.93851 0.33037 0.0
C460 C 0.07166 0.91718 0.30837 0.0
C461 C 0.07423 0.94603 0.25879 0.0
H462 H 0.06048 0.86719 0.24405 0.0
C463 C 0.06968 0.90871 0.17953 0.0
C464 C 0.05142 0.88589 0.17473 0.0
C465 C 0.07274 0.91745 0.19865 0.0
C466 C 0.06367 0.88941 0.24794 0.0
H467 H 0.13741 0.96623 0.31674 0.0
H468 H 0.11926 0.9592 0.28432 0.0
H469 H 0.0716 0.87854 0.27729 0.0
H470 H 0.02081 0.85545 0.18618 0.0
H471 H 0.0256 0.8711 0.21933 0.0
H472 H 0.06658 0.95686 0.22935 0.0
C473 C 0.10835 0.94877 0.29611 0.0
C474 C 0.07009 0.8959 0.26704 0.0
C475 C 0.11887 0.95264 0.31472 0.0
C476 C 0.03535 0.87287 0.18937 0.0
C477 C 0.03822 0.88175 0.20843 0.0
C478 C 0.06765 0.93956 0.23966 0.0
C479 C 0.08497 0.93057 0.29266 0.0
C480 C 0.07579 0.92422 0.27266 0.0
C481 C 0.05743 0.90371 0.2134 0.0
C482 C 0.06261 0.9111 0.23394 0.0
H483 H 0.07171 0.91004 0.33874 0.0
H484 H 0.05339 0.90328 0.3062 0.0
H485 H 0.07821 0.96812 0.26271 0.0
H486 H 0.08243 0.91916 0.16862 0.0
H487 H 0.08794 0.93424 0.20194 0.0
C488 C 0.41508 0.92425 0.8256 0.0
C489 C 0.39132 0.94232 0.8283 0.0
C490 C 0.42768 0.92148 0.80753 0.0
C491 C 0.42975 0.95247 0.75825 0.0
H492 H 0.44499 0.87378 0.74366 0.0
C493 C 0.43077 0.9119 0.68004 0.0
C494 C 0.44951 0.88948 0.67507 0.0
C495 C 0.42964 0.9221 0.69888 0.0
C496 C 0.44144 0.89596 0.74756 0.0
H497 H 0.363 0.97265 0.81427 0.0
H498 H 0.38451 0.96727 0.78263 0.0
H499 H 0.43188 0.88475 0.77653 0.0
H500 H 0.48317 0.86162 0.68577 0.0
H501 H 0.48123 0.87957 0.71862 0.0
H502 H 0.43828 0.96335 0.72891 0.0
C503 C 0.39373 0.95557 0.79455 0.0
C504 C 0.43391 0.90228 0.76646 0.0
C505 C 0.38126 0.95853 0.81269 0.0
C506 C 0.46828 0.87871 0.68912 0.0
C507 C 0.4671 0.8889 0.70797 0.0
C508 C 0.4372 0.9461 0.73927 0.0
C509 C 0.41668 0.9365 0.79167 0.0
C510 C 0.4275 0.93054 0.77199 0.0
C511 C 0.44719 0.91012 0.71318 0.0
C512 C 0.44267 0.91769 0.73366 0.0
H513 H 0.42364 0.91175 0.83738 0.0
H514 H 0.44571 0.90708 0.80591 0.0
H515 H 0.42538 0.97452 0.7621 0.0
H516 H 0.41611 0.92082 0.66958 0.0
H517 H 0.41391 0.93832 0.70244 0.0
C518 C 0.52542 0.38193 0.81435 0.0
C519 C 0.54506 0.39225 0.82802 0.0
C520 C 0.52625 0.39171 0.7954 0.0
C521 C 0.55579 0.44793 0.76348 0.0
H522 H 0.55759 0.3867 0.72587 0.0
C523 C 0.60826 0.45967 0.68909 0.0
C524 C 0.59763 0.44355 0.67359 0.0
C525 C 0.59627 0.45695 0.70736 0.0
C526 C 0.55651 0.40422 0.73605 0.0
H527 H 0.5799 0.42219 0.8327 0.0
H528 H 0.5814 0.43908 0.79965 0.0
H529 H 0.54628 0.37584 0.75908 0.0
H530 H 0.56474 0.41342 0.66489 0.0
H531 H 0.54344 0.40917 0.69666 0.0
H532 H 0.56663 0.47624 0.74044 0.0
C533 C 0.56529 0.42351 0.8036 0.0
C534 C 0.55005 0.39795 0.75514 0.0
C535 C 0.56453 0.41367 0.82254 0.0
C536 C 0.57369 0.4259 0.67656 0.0
C537 C 0.56156 0.42334 0.69481 0.0
C538 C 0.5621 0.45426 0.74431 0.0
C539 C 0.54664 0.41211 0.78972 0.0
C540 C 0.55018 0.41962 0.76914 0.0
C541 C 0.57322 0.4382 0.71055 0.0
C542 C 0.56313 0.43236 0.73043 0.0
H543 H 0.50998 0.36558 0.81808 0.0
H544 H 0.51134 0.38281 0.78508 0.0
H545 H 0.55569 0.46514 0.77391 0.0
H546 H 0.62668 0.47349 0.68733 0.0
H547 H 0.60604 0.46851 0.71915 0.0
C548 C 0.03697 0.61561 0.68919 0.0
C549 C 0.05163 0.60288 0.67376 0.0
C550 C 0.03903 0.60405 0.70766 0.0
C551 C 0.08825 0.56021 0.73657 0.0
H552 H 0.02722 0.56296 0.77422 0.0
C553 C 0.109 0.52554 0.81412 0.0
C554 C 0.09994 0.54528 0.82811 0.0
C555 C 0.09882 0.52737 0.79529 0.0
C556 C 0.04446 0.56208 0.76385 0.0
H557 H 0.07848 0.56699 0.66543 0.0
H558 H 0.08162 0.54664 0.69749 0.0
H559 H 0.01722 0.57592 0.74087 0.0
H560 H 0.07156 0.58124 0.83353 0.0
H561 H 0.05414 0.58462 0.80068 0.0
H562 H 0.11567 0.54713 0.75949 0.0
C563 C 0.06913 0.56595 0.69544 0.0
C564 C 0.03876 0.56954 0.74477 0.0
C565 C 0.06724 0.57759 0.67703 0.0
C566 C 0.0791 0.56574 0.82312 0.0
C567 C 0.06896 0.56759 0.80428 0.0
C568 C 0.09392 0.55272 0.75557 0.0
C569 C 0.05565 0.57942 0.71106 0.0
C570 C 0.06072 0.5691 0.73097 0.0
C571 C 0.07938 0.54899 0.79002 0.0
C572 C 0.07223 0.55397 0.76951 0.0
H573 H 0.02474 0.63509 0.68716 0.0
H574 H 0.02859 0.61513 0.71939 0.0
H575 H 0.10582 0.56014 0.72644 0.0
H576 H 0.12479 0.50929 0.8175 0.0
H577 H 0.10684 0.51237 0.78471 0.0
C578 C 0.91275 0.06123 0.67474 0.0
C579 C 0.8865 0.04708 0.67198 0.0
C580 C 0.92463 0.06372 0.69306 0.0
C581 C 0.91997 0.03756 0.74331 0.0
H582 H 0.94488 0.11466 0.75544 0.0
C583 C 0.92521 0.08251 0.8203 0.0
C584 C 0.94608 0.10314 0.82484 0.0
C585 C 0.92304 0.07151 0.80171 0.0
C586 C 0.93862 0.09285 0.75226 0.0
H587 H 0.8529 0.02317 0.68622 0.0
H588 H 0.87342 0.02795 0.7183 0.0
H589 H 0.93156 0.10275 0.72273 0.0
H590 H 0.98229 0.12691 0.81365 0.0
H591 H 0.9787 0.1074 0.78125 0.0
H592 H 0.92633 0.02799 0.77309 0.0
C593 C 0.88497 0.03686 0.70623 0.0
C594 C 0.93092 0.086 0.73346 0.0
C595 C 0.87311 0.03424 0.68785 0.0
C596 C 0.96577 0.11127 0.81061 0.0
C597 C 0.96364 0.1002 0.79201 0.0
C598 C 0.92772 0.04441 0.76217 0.0
C599 C 0.91049 0.05226 0.70909 0.0
C600 C 0.92108 0.05842 0.72879 0.0
C601 C 0.94175 0.08079 0.78722 0.0
C602 C 0.93669 0.07229 0.76692 0.0
H603 H 0.92388 0.07104 0.6628 0.0
H604 H 0.94461 0.07521 0.69471 0.0
H605 H 0.91283 0.01601 0.74012 0.0
H606 H 0.90973 0.07564 0.8309 0.0
H607 H 0.90577 0.0568 0.79851 0.0
C608 C 0.45239 0.0704 0.39541 0.0
C609 C 0.4605 0.09113 0.40895 0.0
C610 C 0.42526 0.0582 0.39606 0.0
C611 C 0.35331 0.07886 0.4097 0.0
H612 H 0.33488 0.00151 0.39367 0.0
C613 C 0.23797 0.03438 0.40254 0.0
C614 C 0.23272 0.01464 0.38768 0.0
C615 C 0.26544 0.04521 0.40556 0.0
C616 C 0.33973 0.02328 0.39794 0.0
H617 H 0.44764 0.11402 0.43456 0.0
H618 H 0.39971 0.09254 0.43576 0.0
H619 H 0.38426 0.0138 0.40145 0.0
H620 H 0.25162 0.99295 0.36321 0.0
H621 H 0.2995 0.01231 0.36829 0.0
H622 H 0.30879 0.08841 0.4059 0.0
C623 C 0.41442 0.08586 0.42461 0.0
C624 C 0.36795 0.03023 0.40256 0.0
C625 C 0.44188 0.09786 0.42408 0.0
C626 C 0.25494 0.00799 0.37485 0.0
C627 C 0.28246 0.01878 0.3779 0.0
C628 C 0.32504 0.07189 0.40508 0.0
C629 C 0.40554 0.06672 0.41016 0.0
C630 C 0.37513 0.05821 0.40818 0.0
C631 C 0.2882 0.03653 0.39376 0.0
C632 C 0.31806 0.04415 0.39883 0.0
H633 H 0.46644 0.06497 0.38358 0.0
H634 H 0.41905 0.0437 0.38465 0.0
H635 H 0.35826 0.10074 0.41366 0.0
H636 H 0.22127 0.04012 0.41262 0.0
H637 H 0.26916 0.05892 0.41786 0.0
C638 C 0.39586 0.4422 0.38101 0.0
C639 C 0.37892 0.44964 0.39685 0.0
C640 C 0.40455 0.414 0.37822 0.0
C641 C 0.41074 0.34278 0.40134 0.0
H642 H 0.41421 0.31817 0.34813 0.0
C643 C 0.44534 0.2286 0.37915 0.0
C644 C 0.47104 0.23006 0.36876 0.0
C645 C 0.42836 0.2531 0.38139 0.0
C646 C 0.41302 0.3247 0.36304 0.0
H647 H 0.35841 0.43391 0.42258 0.0
H648 H 0.37304 0.38398 0.41751 0.0
H649 H 0.39673 0.366 0.35583 0.0
H650 H 0.49825 0.25718 0.35146 0.0
H651 H 0.46787 0.29957 0.35453 0.0
H652 H 0.42705 0.30113 0.40837 0.0
C653 C 0.38007 0.40008 0.4074 0.0
C654 C 0.40338 0.35218 0.3675 0.0
C655 C 0.37177 0.42862 0.41038 0.0
C656 C 0.47833 0.25555 0.35934 0.0
C657 C 0.46102 0.27974 0.36115 0.0
C658 C 0.41996 0.31505 0.39687 0.0
C659 C 0.39591 0.39235 0.39096 0.0
C660 C 0.40306 0.36195 0.38664 0.0
C661 C 0.43656 0.27902 0.37283 0.0
C662 C 0.4219 0.30612 0.37766 0.0
H663 H 0.40177 0.45816 0.37045 0.0
H664 H 0.41762 0.40912 0.36581 0.0
H665 H 0.41089 0.34955 0.41621 0.0
H666 H 0.43961 0.20926 0.38681 0.0
H667 H 0.40955 0.25213 0.39045 0.0
C668 C 0.06251 0.36349 0.38744 0.0
C669 C 0.04003 0.3741 0.39882 0.0
C670 C 0.08781 0.37897 0.3854 0.0
C671 C 0.11346 0.45214 0.3853 0.0
H672 H 0.18901 0.41771 0.38722 0.0
C673 C 0.21697 0.51857 0.38238 0.0
C674 C 0.24163 0.50656 0.37404 0.0
C675 C 0.19188 0.50265 0.38402 0.0
C676 C 0.16805 0.42755 0.38627 0.0
H677 H 0.02676 0.40869 0.41758 0.0
H678 H 0.07116 0.43609 0.41382 0.0
H679 H 0.14705 0.38888 0.39489 0.0
H680 H 0.25858 0.46901 0.35963 0.0
H681 H 0.21435 0.44142 0.36196 0.0
H682 H 0.13419 0.4906 0.37629 0.0
C683 C 0.06904 0.41573 0.40651 0.0
C684 C 0.14407 0.41109 0.39085 0.0
C685 C 0.0438 0.39997 0.40879 0.0
C686 C 0.24003 0.47886 0.36622 0.0
C687 C 0.21477 0.46294 0.36775 0.0
C688 C 0.13739 0.46853 0.38052 0.0
C689 C 0.09103 0.40557 0.39451 0.0
C690 C 0.11658 0.42327 0.39049 0.0
C691 C 0.19068 0.47437 0.37719 0.0
C692 C 0.16501 0.45648 0.38104 0.0
H693 H 0.06024 0.34352 0.37965 0.0
H694 H 0.10435 0.37071 0.37601 0.0
H695 H 0.09243 0.46189 0.38455 0.0
H696 H 0.21735 0.53988 0.38853 0.0
H697 H 0.17391 0.51212 0.39151 0.0
C698 C 0.05332 0.01741 0.39867 0.0
C699 C 0.07987 0.01841 0.4082 0.0
C700 C 0.03792 0.04264 0.39515 0.0
C701 C 0.03604 0.12089 0.40725 0.0
H702 H 0.00095 0.12774 0.35695 0.0
C703 C 0.0088 0.22974 0.37391 0.0
C704 C 0.97913 0.23353 0.37189 0.0
C705 C 0.02016 0.20231 0.37656 0.0
C706 C 0.01072 0.12599 0.37101 0.0
H707 H 0.11006 0.04659 0.42255 0.0
H708 H 0.08402 0.09008 0.41598 0.0
H709 H 0.02059 0.08162 0.36721 0.0
H710 H 0.93835 0.21169 0.36938 0.0
H711 H 0.95849 0.1636 0.37322 0.0
H712 H 0.02721 0.16563 0.4106 0.0
C713 C 0.07459 0.07001 0.41144 0.0
C714 C 0.02166 0.09956 0.37703 0.0
C715 C 0.08974 0.04491 0.41513 0.0
C716 C 0.96133 0.20931 0.37089 0.0
C717 C 0.97278 0.18185 0.37309 0.0
C718 C 0.0257 0.14734 0.40106 0.0
C719 C 0.04884 0.06938 0.40097 0.0
C720 C 0.03475 0.09672 0.39518 0.0
C721 C 0.00209 0.17829 0.37673 0.0
C722 C 0.01321 0.15016 0.38285 0.0
H723 H 0.04502 -0.00264 0.3932 0.0
H724 H 0.01784 0.04122 0.38743 0.0
H725 H 0.04522 0.11949 0.4215 0.0
H726 H 0.02295 0.24805 0.37493 0.0
H727 H 0.04288 0.19993 0.37929 0.0
C728 C 0.96965 0.93471 0.10892 0.0
C729 C 0.9737 0.91382 0.0946 0.0
C730 C 0.94234 0.94584 0.11248 0.0
C731 C 0.868 0.9225 0.10834 0.0
H732 H 0.84829 0.0011 0.12044 0.0
C733 C 0.75243 0.96371 0.10968 0.0
C734 C 0.74492 0.98573 0.12249 0.0
C735 C 0.78052 0.9537 0.10881 0.0
C736 C 0.85358 0.97895 0.11746 0.0
H737 H 0.95289 0.89059 0.07147 0.0
H738 H 0.90552 0.91031 0.07752 0.0
H739 H 0.89765 0.98897 0.11201 0.0
H740 H 0.76057 0.01304 0.14543 0.0
H741 H 0.80972 0.99516 0.14407 0.0
H742 H 0.82412 0.91236 0.11372 0.0
C743 C 0.92326 0.91744 0.08634 0.0
C744 C 0.88178 0.97209 0.1125 0.0
C745 C 0.95046 0.90634 0.08278 0.0
C746 C 0.76567 0.99606 0.13539 0.0
C747 C 0.79389 0.98607 0.13447 0.0
C748 C 0.83992 0.92931 0.11337 0.0
C749 C 0.9187 0.93628 0.10176 0.0
C750 C 0.88912 0.94388 0.10754 0.0
C751 C 0.80178 0.96543 0.12074 0.0
C752 C 0.83226 0.95768 0.11766 0.0
H753 H 0.98709 0.94095 0.11828 0.0
H754 H 0.93945 0.96045 0.1244 0.0
H755 H 0.8732 0.90041 0.10509 0.0
H756 H 0.73695 0.95521 0.09959 0.0
H757 H 0.78587 0.93791 0.09799 0.0
C758 C 0.51196 0.75744 0.13173 0.0
C759 C 0.48202 0.75495 0.13156 0.0
C760 C 0.52483 0.78435 0.1302 0.0
C761 C 0.50769 0.85628 0.11117 0.0
H762 H 0.58293 0.87484 0.1311 0.0
C763 C 0.56453 0.96637 0.10212 0.0
C764 C 0.5936 0.96504 0.09691 0.0
C765 C 0.54944 0.94134 0.10643 0.0
C766 C 0.56194 0.86982 0.12538 0.0
H767 H 0.44207 0.77861 0.13156 0.0
H768 H 0.46446 0.82558 0.12982 0.0
H769 H 0.5594 0.83086 0.14137 0.0
H770 H 0.62907 0.93616 0.09108 0.0
H771 H 0.60273 0.89273 0.0987 0.0
H772 H 0.51028 0.89557 0.09538 0.0
C773 C 0.47807 0.80681 0.1303 0.0
C774 C 0.54847 0.84464 0.13123 0.0
C775 C 0.46523 0.77992 0.13151 0.0
C776 C 0.60676 0.93805 0.0951 0.0
C777 C 0.59179 0.91315 0.09963 0.0
C778 C 0.52103 0.88165 0.10552 0.0
C779 C 0.50798 0.8093 0.12876 0.0
C780 C 0.52133 0.83732 0.124 0.0
C781 C 0.56325 0.91462 0.1058 0.0
C782 C 0.54846 0.88841 0.11234 0.0
H783 H 0.52542 0.73853 0.1316 0.0
H784 H 0.54791 0.78534 0.12895 0.0
H785 H 0.48706 0.85114 0.10497 0.0
H786 H 0.55374 0.98679 0.10364 0.0
H787 H 0.52739 0.94299 0.11111 0.0
C788 C 0.55434 0.60353 0.08809 0.0
C789 C 0.54142 0.61533 0.10451 0.0
C790 C 0.58106 0.5899 0.08947 0.0
C791 C 0.64403 0.5831 0.12214 0.0
H792 H 0.65725 0.51211 0.09475 0.0
C793 C 0.72447 0.47851 0.12257 0.0
C794 C 0.75107 0.49215 0.12477 0.0
C795 C 0.69946 0.49455 0.12038 0.0
C796 C 0.65378 0.53177 0.10267 0.0
H797 H 0.54638 0.62161 0.13529 0.0
H798 H 0.59191 0.59758 0.13766 0.0
H799 H 0.61291 0.53844 0.08947 0.0
H800 H 0.77219 0.53332 0.12713 0.0
H801 H 0.72861 0.56139 0.12298 0.0
H802 H 0.6842 0.57582 0.13603 0.0
C803 C 0.58209 0.59944 0.12362 0.0
C804 C 0.62855 0.54712 0.09937 0.0
C805 C 0.55571 0.6131 0.12225 0.0
C806 C 0.75197 0.52218 0.12565 0.0
C807 C 0.72695 0.53827 0.12323 0.0
C808 C 0.6691 0.56763 0.12558 0.0
C809 C 0.59522 0.58776 0.10729 0.0
C810 C 0.62317 0.57276 0.10929 0.0
C811 C 0.70048 0.52463 0.1201 0.0
C812 C 0.67415 0.54158 0.11607 0.0
H813 H 0.54391 0.60491 0.07423 0.0
H814 H 0.5907 0.58123 0.07658 0.0
H815 H 0.64084 0.60305 0.12978 0.0
H816 H 0.72307 0.45537 0.12197 0.0
H817 H 0.67936 0.48331 0.11859 0.0
C818 C 0.97483 0.74687 0.12739 0.0
C819 C 0.9756 0.76624 0.11198 0.0
C820 C 0.96021 0.72091 0.12559 0.0
C821 C 0.9404 0.66943 0.0886 0.0
H822 H 0.8964 0.63404 0.12926 0.0
C823 C 0.88832 0.55653 0.0822 0.0
C824 C 0.88916 0.53977 0.09891 0.0
C825 C 0.89761 0.58505 0.08273 0.0
C826 C 0.90886 0.64354 0.11782 0.0
H827 H 0.95983 0.77442 0.08311 0.0
H828 H 0.93447 0.72919 0.08009 0.0
H829 H 0.91273 0.68328 0.13295 0.0
H830 H 0.90227 0.53877 0.1288 0.0
H831 H 0.91917 0.58781 0.12954 0.0
H832 H 0.93725 0.62942 0.07369 0.0
C833 C 0.94551 0.73392 0.0934 0.0
C834 C 0.91808 0.67175 0.11994 0.0
C835 C 0.95993 0.7599 0.09522 0.0
C836 C 0.90094 0.55136 0.11576 0.0
C837 C 0.91039 0.57955 0.11624 0.0
C838 C 0.93133 0.6411 0.08653 0.0
C839 C 0.94621 0.71384 0.10835 0.0
C840 C 0.93427 0.68483 0.10547 0.0
C841 C 0.90804 0.59701 0.09994 0.0
C842 C 0.91591 0.6277 0.10128 0.0
H843 H 0.98661 0.75109 0.14048 0.0
H844 H 0.96115 0.70574 0.13733 0.0
H845 H 0.95314 0.67893 0.07729 0.0
H846 H 0.87921 0.5481 0.06905 0.0
H847 H 0.89559 0.598 0.06991 0.0
C848 C 0.71619 0.01992 0.60845 0.0
C849 C 0.73992 0.00774 0.61786 0.0
C850 C 0.691 0.0044 0.6061 0.0
C851 C 0.66574 0.93009 0.60363 0.0
H852 H 0.59055 0.96534 0.6057 0.0
C853 C 0.53944 0.90337 0.58515 0.0
C854 C 0.53653 0.87805 0.59581 0.0
C855 C 0.56514 0.91872 0.58578 0.0
C856 C 0.61146 0.95537 0.60475 0.0
H857 H 0.75519 0.9703 0.63319 0.0
H858 H 0.71075 0.94331 0.62943 0.0
H859 H 0.6328 0.99366 0.61356 0.0
H860 H 0.55855 0.84775 0.61424 0.0
H861 H 0.6033 0.87422 0.6151 0.0
H862 H 0.6442 0.89161 0.59523 0.0
C863 C 0.712 0.9647 0.62349 0.0
C864 C 0.63563 0.97151 0.60935 0.0
C865 C 0.73733 0.98025 0.62582 0.0
C866 C 0.5602 0.86734 0.60599 0.0
C867 C 0.58587 0.8824 0.6064 0.0
C868 C 0.64154 0.91391 0.59915 0.0
C869 C 0.68883 0.97637 0.61318 0.0
C870 C 0.66304 0.95902 0.60891 0.0
C871 C 0.58833 0.90866 0.5968 0.0
C872 C 0.61417 0.92637 0.59975 0.0
H873 H 0.71738 0.04111 0.6022 0.0
H874 H 0.67367 0.01397 0.59798 0.0
H875 H 0.68659 0.92 0.60274 0.0
H876 H 0.52145 0.91209 0.57725 0.0
H877 H 0.56665 0.93883 0.57811 0.0
C878 C 0.62545 0.56183 0.60802 0.0
C879 C 0.61335 0.5384 0.59833 0.0
C880 C 0.61061 0.58761 0.60942 0.0
C881 C 0.53817 0.61307 0.61317 0.0
H882 H 0.5715 0.68853 0.60719 0.0
C883 C 0.47229 0.71657 0.62023 0.0
C884 C 0.48571 0.74152 0.62708 0.0
C885 C 0.48788 0.69144 0.6176 0.0
C886 C 0.56204 0.66761 0.60926 0.0
H887 H 0.57701 0.52374 0.5817 0.0
H888 H 0.55057 0.56906 0.58444 0.0
H889 H 0.59908 0.64625 0.59806 0.0
H890 H 0.52559 0.75898 0.63795 0.0
H891 H 0.55269 0.71463 0.63396 0.0
H892 H 0.50152 0.6341 0.62493 0.0
C893 C 0.57165 0.56735 0.59084 0.0
C894 C 0.57772 0.64347 0.60381 0.0
C895 C 0.5868 0.5416 0.58914 0.0
C896 C 0.51464 0.74018 0.63255 0.0
C897 C 0.53024 0.71486 0.63004 0.0
C898 C 0.52261 0.63715 0.61883 0.0
C899 C 0.58319 0.59029 0.60141 0.0
C900 C 0.56589 0.61601 0.60569 0.0
C901 C 0.51722 0.69049 0.62196 0.0
C902 C 0.53434 0.66474 0.61692 0.0
H903 H 0.64597 0.55984 0.61519 0.0
H904 H 0.61991 0.6049 0.61772 0.0
H905 H 0.52882 0.59206 0.61515 0.0
H906 H 0.44999 0.71675 0.61593 0.0
H907 H 0.47714 0.67323 0.61122 0.0
C908 C 0.93182 0.62029 0.61234 0.0
C909 C 0.95441 0.60553 0.60341 0.0
C910 C 0.90585 0.60665 0.61579 0.0
C911 C 0.87783 0.5366 0.6263 0.0
H912 H 0.80355 0.56979 0.615 0.0
C913 C 0.77364 0.47275 0.62976 0.0
C914 C 0.74773 0.48688 0.63372 0.0
C915 C 0.79923 0.48789 0.62905 0.0
C916 C 0.8241 0.56053 0.61866 0.0
H917 H 0.96741 0.56544 0.59039 0.0
H918 H 0.92175 0.54124 0.59673 0.0
H919 H 0.84694 0.59491 0.60531 0.0
H920 H 0.72865 0.52748 0.64178 0.0
H921 H 0.77375 0.55401 0.64103 0.0
H922 H 0.85525 0.50248 0.63994 0.0
C923 C 0.9243 0.56341 0.60098 0.0
C924 C 0.84889 0.57476 0.61289 0.0
C925 C 0.95022 0.57727 0.59721 0.0
C926 C 0.74827 0.51606 0.63859 0.0
C927 C 0.77403 0.53128 0.63795 0.0
C928 C 0.85308 0.52255 0.63229 0.0
C929 C 0.90217 0.57788 0.61064 0.0
C930 C 0.87591 0.5627 0.61643 0.0
C931 C 0.79959 0.51753 0.63243 0.0
C932 C 0.82591 0.53413 0.62829 0.0
H933 H 0.93453 0.64217 0.61719 0.0
H934 H 0.88913 0.61821 0.6233 0.0
H935 H 0.8985 0.52723 0.62956 0.0
H936 H 0.774 0.45019 0.62613 0.0
H937 H 0.81838 0.47659 0.62463 0.0
C938 C 0.86895 0.93099 0.61202 0.0
C939 C 0.87894 0.95241 0.59955 0.0
C940 C 0.88346 0.90505 0.61365 0.0
C941 C 0.95499 0.87552 0.60903 0.0
H942 H 0.91681 0.80188 0.61137 0.0
C943 C 0.01618 0.76928 0.60715 0.0
C944 C 0.00599 0.74604 0.61796 0.0
C945 C 0.00075 0.79472 0.6062 0.0
C946 C 0.9277 0.82234 0.61108 0.0
H947 H 0.91127 0.96308 0.57844 0.0
H948 H 0.93688 0.91751 0.58138 0.0
H949 H 0.88883 0.84515 0.60532 0.0
H950 H 0.97215 0.7317 0.63694 0.0
H951 H 0.94522 0.77662 0.63552 0.0
H952 H 0.99379 0.85293 0.61501 0.0
C953 C 0.91784 0.92102 0.58994 0.0
C954 C 0.91173 0.84703 0.60747 0.0
C955 C 0.9031 0.94694 0.58815 0.0
C956 C 0.98052 0.74921 0.62846 0.0
C957 C 0.965 0.77481 0.62751 0.0
C958 C 0.97093 0.8509 0.61278 0.0
C959 C 0.9084 0.90009 0.60296 0.0
C960 C 0.92528 0.87379 0.60626 0.0
C961 C 0.97478 0.79765 0.61611 0.0
C962 C 0.9575 0.82401 0.61367 0.0
H963 H 0.85024 0.93452 0.6209 0.0
H964 H 0.87582 0.88935 0.62386 0.0
H965 H 0.96586 0.89599 0.60859 0.0
H966 H 0.03579 0.76766 0.59892 0.0
H967 H 0.00871 0.81172 0.5971 0.0
C968 C 0.0626 0.12861 0.89368 0.0
C969 C 0.03893 0.11428 0.90151 0.0
C970 C 0.08876 0.11464 0.89167 0.0
C971 C 0.11573 0.04384 0.88224 0.0
H972 H 0.19028 0.07625 0.89357 0.0
C973 C 0.21955 0.97905 0.87797 0.0
C974 C 0.24537 0.99291 0.8735 0.0
C975 C 0.19412 0.99443 0.8792 0.0
C976 C 0.16964 0.06718 0.88995 0.0
H977 H 0.02414 0.07477 0.91431 0.0
H978 H 0.0702 0.0499 0.91053 0.0
H979 H 0.14704 0.10193 0.90319 0.0
H980 H 0.26448 0.03331 0.86524 0.0
H981 H 0.21958 0.06034 0.86696 0.0
H982 H 0.13806 0.00942 0.86864 0.0
C983 C 0.06837 0.07202 0.90603 0.0
C984 C 0.14494 0.08171 0.89568 0.0
C985 C 0.04221 0.08625 0.90836 0.0
C986 C 0.24488 0.02211 0.86874 0.0
C987 C 0.21927 0.0376 0.86997 0.0
C988 C 0.14038 0.02947 0.87631 0.0
C989 C 0.09158 0.08592 0.89718 0.0
C990 C 0.11781 0.07001 0.89204 0.0
C991 C 0.19383 0.02406 0.87587 0.0
C992 C 0.16764 0.04081 0.88028 0.0
H993 H 0.0605 0.15029 0.88832 0.0
H994 H 0.10626 0.12578 0.88474 0.0
H995 H 0.09501 0.03473 0.87884 0.0
H996 H 0.21921 0.95647 0.88154 0.0
H997 H 0.17506 0.9833 0.8839 0.0
C998 C 0.41254 0.04369 0.9094 0.0
C999 C 0.38529 0.04024 0.90124 0.0
C1000 C 0.42721 0.06957 0.90717 0.0
C1001 C 0.41829 0.14568 0.8954 0.0
H1002 H 0.49422 0.13925 0.87332 0.0
C1003 C 0.47868 0.24549 0.86984 0.0
C1004 C 0.50728 0.24714 0.87599 0.0
C1005 C 0.46382 0.21959 0.87103 0.0
C1006 C 0.47314 0.14143 0.87962 0.0
H1007 H 0.35112 0.06138 0.88557 0.0
H1008 H 0.37644 0.10657 0.88205 0.0
H1009 H 0.46823 0.09604 0.88232 0.0
H1010 H 0.54338 0.22249 0.88674 0.0
H1011 H 0.51748 0.17784 0.88911 0.0
H1012 H 0.42326 0.191 0.89309 0.0
C1013 C 0.38662 0.08937 0.88996 0.0
C1014 C 0.45837 0.1167 0.88485 0.0
C1015 C 0.37222 0.06349 0.8919 0.0
C1016 C 0.52126 0.22203 0.88203 0.0
C1017 C 0.50644 0.19629 0.88328 0.0
C1018 C 0.43316 0.17042 0.89035 0.0
C1019 C 0.41453 0.09238 0.89709 0.0
C1020 C 0.43083 0.11864 0.89277 0.0
C1021 C 0.47731 0.19496 0.87838 0.0
C1022 C 0.46078 0.16858 0.88242 0.0
H1023 H 0.42306 0.02599 0.91658 0.0
H1024 H 0.44868 0.07156 0.91293 0.0
H1025 H 0.39707 0.14767 0.90153 0.0
H1026 H 0.46737 0.26444 0.86503 0.0
H1027 H 0.44152 0.21906 0.86675 0.0
C1028 C 0.45188 0.41572 0.91066 0.0
C1029 C 0.4546 0.38721 0.9046 0.0
C1030 C 0.42621 0.4305 0.90759 0.0
C1031 C 0.36365 0.42765 0.87513 0.0
H1032 H 0.33329 0.48643 0.90872 0.0
C1033 C 0.25187 0.48067 0.86727 0.0
C1034 C 0.25028 0.5101 0.87134 0.0
C1035 C 0.27776 0.46598 0.86951 0.0
C1036 C 0.34176 0.47026 0.89911 0.0
H1037 H 0.43231 0.35091 0.89228 0.0
H1038 H 0.38725 0.37617 0.88773 0.0
H1039 H 0.37537 0.45922 0.91865 0.0
H1040 H 0.2751 0.54774 0.87904 0.0
H1041 H 0.32008 0.52209 0.88285 0.0
H1042 H 0.32962 0.43842 0.85577 0.0
C1043 C 0.40508 0.38759 0.89408 0.0
C1044 C 0.36581 0.45468 0.90481 0.0
C1045 C 0.43075 0.37304 0.89687 0.0
C1046 C 0.27551 0.52497 0.87606 0.0
C1047 C 0.30124 0.5103 0.87837 0.0
C1048 C 0.33945 0.44306 0.86952 0.0
C1049 C 0.40287 0.4168 0.89864 0.0
C1050 C 0.37701 0.43316 0.89289 0.0
C1051 C 0.30234 0.48054 0.87587 0.0
C1052 C 0.32835 0.46455 0.88144 0.0
H1053 H 0.47011 0.42712 0.91651 0.0
H1054 H 0.42522 0.45302 0.91123 0.0
H1055 H 0.37211 0.41166 0.86539 0.0
H1056 H 0.23282 0.46863 0.86361 0.0
H1057 H 0.27812 0.443 0.86745 0.0
C1058 C 0.13073 0.43039 0.89636 0.0
C1059 C 0.1163 0.45376 0.90456 0.0
C1060 C 0.11705 0.40411 0.89427 0.0
C1061 C 0.05198 0.36282 0.9073 0.0
H1062 H 0.06515 0.32727 0.85766 0.0
C1063 C 0.97758 0.27628 0.87813 0.0
C1064 C 0.99089 0.25063 0.8724 0.0
C1065 C 0.99366 0.30095 0.88111 0.0
C1066 C 0.06146 0.33685 0.87161 0.0
H1067 H 0.07697 0.46785 0.91796 0.0
H1068 H 0.05249 0.42197 0.91386 0.0
H1069 H 0.09231 0.36971 0.86674 0.0
H1070 H 0.03118 0.23137 0.86381 0.0
H1071 H 0.05936 0.27497 0.86875 0.0
H1072 H 0.02048 0.3303 0.91184 0.0
C1073 C 0.0746 0.42373 0.90936 0.0
C1074 C 0.07711 0.36105 0.87691 0.0
C1075 C 0.08856 0.45 0.91176 0.0
C1076 C 0.02032 0.2508 0.8682 0.0
C1077 C 0.03645 0.27568 0.8711 0.0
C1078 C 0.03614 0.3388 0.90191 0.0
C1079 C 0.08841 0.40081 0.89997 0.0
C1080 C 0.07252 0.37437 0.89481 0.0
C1081 C 0.02336 0.3006 0.87829 0.0
C1082 C 0.04063 0.32572 0.88397 0.0
H1083 H 0.1523 0.43278 0.89087 0.0
H1084 H 0.12862 0.38668 0.88754 0.0
H1085 H 0.04819 0.37226 0.92128 0.0
H1086 H 0.95487 0.277 0.88125 0.0
H1087 H 0.98298 0.3201 0.88622 0.0
C1088 C 0.65541 0.19269 0.35436 0.0
C1089 C 0.62953 0.20707 0.35788 0.0
C1090 C 0.67934 0.20778 0.34801 0.0
C1091 C 0.70855 0.27985 0.35217 0.0
H1092 H 0.77209 0.24508 0.32496 0.0
C1093 C 0.8221 0.3257 0.35783 0.0
C1094 C 0.84139 0.30495 0.36468 0.0
C1095 C 0.79567 0.31746 0.35021 0.0
C1096 C 0.7544 0.25522 0.33237 0.0
H1097 H 0.60762 0.24797 0.35587 0.0
H1098 H 0.64928 0.2742 0.34443 0.0
H1099 H 0.7246 0.22338 0.32296 0.0
H1100 H 0.84889 0.25932 0.3679 0.0
H1101 H 0.80288 0.24506 0.35475 0.0
H1102 H 0.73855 0.31091 0.36227 0.0
C1103 C 0.65131 0.25144 0.34708 0.0
C1104 C 0.72729 0.24278 0.33131 0.0
C1105 C 0.62747 0.23641 0.35363 0.0
C1106 C 0.83435 0.27584 0.36295 0.0
C1107 C 0.80815 0.26763 0.35516 0.0
C1108 C 0.73557 0.29239 0.3531 0.0
C1109 C 0.67778 0.2375 0.34487 0.0
C1110 C 0.70441 0.25419 0.34196 0.0
C1111 C 0.78833 0.28835 0.34908 0.0
C1112 C 0.75898 0.27941 0.34396 0.0
H1113 H 0.65763 0.17006 0.35742 0.0
H1114 H 0.69945 0.19638 0.34671 0.0
H1115 H 0.69154 0.28911 0.36072 0.0
H1116 H 0.82703 0.34831 0.35887 0.0
H1117 H 0.7807 0.33382 0.34561 0.0
C1118 C 0.32832 0.67452 0.3707 0.0
C1119 C 0.31057 0.65068 0.36806 0.0
C1120 C 0.31963 0.70149 0.36431 0.0
C1121 C 0.30135 0.75709 0.34638 0.0
H1122 H 0.2202 0.77232 0.35215 0.0
C1123 C 0.21558 0.85706 0.3479 0.0
C1124 C 0.22389 0.86959 0.36535 0.0
C1125 C 0.22926 0.83222 0.34138 0.0
C1126 C 0.24283 0.76826 0.35002 0.0
H1127 H 0.27101 0.63553 0.35546 0.0
H1128 H 0.25657 0.68212 0.34313 0.0
H1129 H 0.23748 0.72356 0.35431 0.0
H1130 H 0.25423 0.86794 0.38886 0.0
H1131 H 0.27888 0.8252 0.37708 0.0
H1132 H 0.30648 0.80266 0.34423 0.0
C1133 C 0.27649 0.68059 0.35102 0.0
C1134 C 0.25286 0.74021 0.35119 0.0
C1135 C 0.28478 0.65382 0.35797 0.0
C1136 C 0.24751 0.85852 0.37536 0.0
C1137 C 0.26168 0.83427 0.36858 0.0
C1138 C 0.29131 0.78528 0.34574 0.0
C1139 C 0.29334 0.70503 0.35461 0.0
C1140 C 0.2824 0.73425 0.35002 0.0
C1141 C 0.25194 0.82032 0.35197 0.0
C1142 C 0.26207 0.79104 0.34805 0.0
H1143 H 0.34833 0.67255 0.37849 0.0
H1144 H 0.33306 0.71964 0.36775 0.0
H1145 H 0.32411 0.7534 0.34481 0.0
H1146 H 0.19725 0.8652 0.34006 0.0
H1147 H 0.22131 0.82154 0.32864 0.0
C1148 C 0.31654 0.66834 0.12907 0.0
C1149 C 0.34033 0.68622 0.13146 0.0
C1150 C 0.28978 0.67667 0.13605 0.0
C1151 C 0.23507 0.69377 0.15563 0.0
H1152 H 0.2186 0.77488 0.15133 0.0
C1153 C 0.135 0.77951 0.15636 0.0
C1154 C 0.12216 0.77137 0.13899 0.0
C1155 C 0.15966 0.76539 0.16275 0.0
C1156 C 0.22303 0.75225 0.15309 0.0
H1157 H 0.3557 0.72566 0.1441 0.0
H1158 H 0.30956 0.73947 0.15743 0.0
H1159 H 0.26734 0.75828 0.14765 0.0
H1160 H 0.12288 0.74102 0.1155 0.0
H1161 H 0.1653 0.71559 0.12705 0.0
H1162 H 0.18972 0.68801 0.15889 0.0
C1163 C 0.31089 0.71975 0.1493 0.0
C1164 C 0.25109 0.7426 0.15102 0.0
C1165 C 0.3374 0.71184 0.14175 0.0
C1166 C 0.13253 0.74747 0.12899 0.0
C1167 C 0.1566 0.73288 0.13564 0.0
C1168 C 0.20683 0.70344 0.15716 0.0
C1169 C 0.28648 0.70269 0.14611 0.0
C1170 C 0.25743 0.71312 0.15161 0.0
C1171 C 0.17107 0.74256 0.15207 0.0
C1172 C 0.2006 0.73268 0.15538 0.0
H1173 H 0.31841 0.64842 0.12117 0.0
H1174 H 0.27161 0.66313 0.13287 0.0
H1175 H 0.23911 0.67102 0.15679 0.0
H1176 H 0.12738 0.79812 0.16413 0.0
H1177 H 0.17075 0.77331 0.17534 0.0
C1178 C 0.7877 0.34245 0.14473 0.0
C1179 C 0.81352 0.34426 0.13457 0.0
C1180 C 0.77872 0.31632 0.15231 0.0
C1181 C 0.75343 0.25748 0.15229 0.0
H1182 H 0.8053 0.19355 0.15983 0.0
C1183 C 0.74594 0.14112 0.12571 0.0
C1184 C 0.72343 0.12873 0.13607 0.0
C1185 C 0.75989 0.16524 0.13283 0.0
C1186 C 0.79061 0.21136 0.15819 0.0
H1187 H 0.85072 0.32078 0.12478 0.0
H1188 H 0.83426 0.27482 0.13659 0.0
H1189 H 0.82404 0.24237 0.16017 0.0
H1190 H 0.69839 0.13086 0.16223 0.0
H1191 H 0.72197 0.17438 0.17421 0.0
H1192 H 0.72015 0.22619 0.15021 0.0
C1193 C 0.82133 0.29352 0.13962 0.0
C1194 C 0.80128 0.23927 0.15809 0.0
C1195 C 0.83068 0.31983 0.13258 0.0
C1196 C 0.71581 0.14008 0.15404 0.0
C1197 C 0.72925 0.16477 0.16091 0.0
C1198 C 0.74273 0.22968 0.15294 0.0
C1199 C 0.79493 0.29126 0.14928 0.0
C1200 C 0.78303 0.26259 0.15409 0.0
C1201 C 0.75105 0.17768 0.15017 0.0
C1202 C 0.76142 0.20644 0.15502 0.0
H1203 H 0.7744 0.36124 0.14676 0.0
H1204 H 0.75872 0.31571 0.16013 0.0
H1205 H 0.7386 0.27458 0.14893 0.0
H1206 H 0.75225 0.13258 0.11187 0.0
H1207 H 0.77641 0.17523 0.12422 0.0
C1208 C 0.13744 0.72621 0.63908 0.0
C1209 C 0.14161 0.6971 0.6349 0.0
C1210 C 0.15896 0.74205 0.64793 0.0
C1211 C 0.23168 0.73689 0.67014 0.0
H1212 H 0.24355 0.80731 0.64184 0.0
C1213 C 0.33965 0.77702 0.64571 0.0
C1214 C 0.34445 0.8064 0.64293 0.0
C1215 C 0.31382 0.76743 0.65326 0.0
C1216 C 0.2403 0.78822 0.65038 0.0
H1217 H 0.17065 0.66118 0.63762 0.0
H1218 H 0.20916 0.68921 0.65208 0.0
H1219 H 0.19853 0.78242 0.63887 0.0
H1220 H 0.32697 0.84896 0.64739 0.0
H1221 H 0.28139 0.83205 0.66036 0.0
H1222 H 0.27468 0.74188 0.68038 0.0
C1223 C 0.18897 0.69971 0.64907 0.0
C1224 C 0.21437 0.77382 0.64866 0.0
C1225 C 0.1671 0.68368 0.64058 0.0
C1226 C 0.32372 0.82615 0.64915 0.0
C1227 C 0.2977 0.81651 0.65661 0.0
C1228 C 0.25779 0.75126 0.67176 0.0
C1229 C 0.18539 0.72928 0.65236 0.0
C1230 C 0.21022 0.74732 0.65782 0.0
C1231 C 0.29217 0.78702 0.6581 0.0
C1232 C 0.26275 0.77635 0.66115 0.0
H1233 H 0.1176 0.73687 0.63531 0.0
H1234 H 0.15521 0.76457 0.65071 0.0
H1235 H 0.22888 0.71688 0.67776 0.0
H1236 H 0.35542 0.76127 0.64136 0.0
H1237 H 0.31012 0.74457 0.65401 0.0
C1238 C 0.7698 0.14972 0.63494 0.0
C1239 C 0.79943 0.14466 0.63573 0.0
C1240 C 0.75793 0.17336 0.64415 0.0
C1241 C 0.73578 0.22188 0.66852 0.0
H1242 H 0.77392 0.29041 0.65062 0.0
C1243 C 0.71743 0.35007 0.6515 0.0
C1244 C 0.69082 0.34739 0.64232 0.0
C1245 C 0.73048 0.32633 0.65982 0.0
C1246 C 0.76319 0.27174 0.65635 0.0
H1247 H 0.83969 0.15952 0.64772 0.0
H1248 H 0.81885 0.20132 0.66362 0.0
H1249 H 0.79865 0.24509 0.64912 0.0
H1250 H 0.6558 0.31868 0.63583 0.0
H1251 H 0.67928 0.27655 0.64935 0.0
H1252 H 0.69964 0.24855 0.67473 0.0
C1253 C 0.80491 0.18687 0.65583 0.0
C1254 C 0.77749 0.24564 0.65547 0.0
C1255 C 0.81681 0.16306 0.64666 0.0
C1256 C 0.67645 0.3211 0.64274 0.0
C1257 C 0.68983 0.29709 0.65068 0.0
C1258 C 0.72147 0.2481 0.66951 0.0
C1259 C 0.77543 0.19254 0.65431 0.0
C1260 C 0.7634 0.22028 0.66058 0.0
C1261 C 0.71752 0.29927 0.65862 0.0
C1262 C 0.73453 0.27308 0.6625 0.0
H1263 H 0.75572 0.13578 0.62686 0.0
H1264 H 0.73523 0.1774 0.64243 0.0
H1265 H 0.72464 0.20262 0.67287 0.0
H1266 H 0.72856 0.37042 0.65176 0.0
H1267 H 0.75142 0.32889 0.66629 0.0
C1268 C 0.82344 0.18073 0.85653 0.0
C1269 C 0.84964 0.19521 0.85746 0.0
C1270 C 0.79938 0.19444 0.84894 0.0
C1271 C 0.77366 0.26805 0.84513 0.0
H1272 H 0.70452 0.2298 0.82814 0.0
C1273 C 0.66452 0.32118 0.85464 0.0
C1274 C 0.64612 0.30376 0.86549 0.0
C1275 C 0.68856 0.30941 0.84571 0.0
C1276 C 0.72378 0.24086 0.83262 0.0
H1277 H 0.87249 0.23363 0.84926 0.0
H1278 H 0.83087 0.25712 0.83524 0.0
H1279 H 0.75056 0.20516 0.82555 0.0
H1280 H 0.63759 0.26013 0.87459 0.0
H1281 H 0.67966 0.23982 0.85933 0.0
H1282 H 0.74689 0.30311 0.85306 0.0
C1283 C 0.8284 0.23579 0.84109 0.0
C1284 C 0.75008 0.22675 0.83123 0.0
C1285 C 0.85221 0.22238 0.8491 0.0
C1286 C 0.65153 0.27421 0.86655 0.0
C1287 C 0.6754 0.26246 0.85753 0.0
C1288 C 0.7475 0.28218 0.84636 0.0
C1289 C 0.8014 0.22261 0.84184 0.0
C1290 C 0.77508 0.23966 0.8384 0.0
C1291 C 0.69444 0.28002 0.84736 0.0
C1292 C 0.72218 0.26816 0.84104 0.0
H1293 H 0.82111 0.15964 0.86281 0.0
H1294 H 0.77892 0.18368 0.84992 0.0
H1295 H 0.79232 0.27865 0.85102 0.0
H1296 H 0.66074 0.34399 0.8534 0.0
H1297 H 0.70295 0.32338 0.83793 0.0
C1298 C 0.30385 0.82773 0.86114 0.0
C1299 C 0.29018 0.85345 0.86601 0.0
C1300 C 0.28819 0.80542 0.85288 0.0
C1301 C 0.21436 0.77964 0.85289 0.0
H1302 H 0.24768 0.71809 0.82295 0.0
C1303 C 0.164 0.66922 0.85465 0.0
C1304 C 0.18406 0.64919 0.86145 0.0
C1305 C 0.17324 0.69511 0.84678 0.0
C1306 C 0.23791 0.73531 0.83106 0.0
H1307 H 0.25036 0.8773 0.8644 0.0
H1308 H 0.2233 0.83881 0.84948 0.0
H1309 H 0.27204 0.76431 0.82466 0.0
H1310 H 0.22939 0.63939 0.86381 0.0
H1311 H 0.24537 0.68449 0.85047 0.0
H1312 H 0.18114 0.75039 0.86018 0.0
C1313 C 0.24573 0.83531 0.85268 0.0
C1314 C 0.25191 0.76166 0.83214 0.0
C1315 C 0.2612 0.85731 0.86127 0.0
C1316 C 0.21339 0.65461 0.859 0.0
C1317 C 0.22258 0.6803 0.85105 0.0
C1318 C 0.20034 0.75345 0.85171 0.0
C1319 C 0.25874 0.80874 0.84904 0.0
C1320 C 0.241 0.78359 0.84388 0.0
C1321 C 0.20263 0.7012 0.84545 0.0
C1322 C 0.21275 0.73058 0.84163 0.0
H1323 H 0.32626 0.8244 0.86451 0.0
H1324 H 0.29884 0.78512 0.85049 0.0
H1325 H 0.20539 0.79589 0.86221 0.0
H1326 H 0.14123 0.66545 0.85614 0.0
H1327 H 0.15744 0.71087 0.84249 0.0
C1328 C 0.64536 0.09026 0.41923 0.0
C1329 C 0.61765 0.09335 0.42689 0.0
C1330 C 0.6681 0.08127 0.43084 0.0
C1331 C 0.68724 0.04702 0.47688 0.0
H1332 H 0.75151 0.09959 0.47655 0.0
C1333 C 0.785 0.03551 0.52806 0.0
C1334 C 0.78972 0.06033 0.53905 0.0
C1335 C 0.76682 0.03633 0.51204 0.0
C1336 C 0.73385 0.08457 0.47666 0.0
H1337 H 0.59184 0.08756 0.45247 0.0
H1338 H 0.63151 0.07151 0.47263 0.0
H1339 H 0.71326 0.10501 0.45286 0.0
H1340 H 0.78037 0.10569 0.54135 0.0
H1341 H 0.74941 0.10726 0.51316 0.0
H1342 H 0.70759 0.02708 0.50106 0.0
C1343 C 0.63561 0.0762 0.45766 0.0
C1344 C 0.71205 0.08754 0.46305 0.0
C1345 C 0.61291 0.08552 0.44612 0.0
C1346 C 0.77709 0.08621 0.53318 0.0
C1347 C 0.75946 0.08714 0.517 0.0
C1348 C 0.7093 0.04378 0.49034 0.0
C1349 C 0.66358 0.0748 0.45029 0.0
C1350 C 0.6882 0.06921 0.46327 0.0
C1351 C 0.75364 0.06212 0.50651 0.0
C1352 C 0.73246 0.06296 0.49064 0.0
H1353 H 0.64983 0.09606 0.40449 0.0
H1354 H 0.68939 0.08012 0.42474 0.0
H1355 H 0.66917 0.03252 0.47732 0.0
H1356 H 0.7943 0.01523 0.53234 0.0
H1357 H 0.76274 0.01677 0.50414 0.0
C1358 C 0.44175 0.77999 0.53209 0.0
C1359 C 0.42745 0.77472 0.54949 0.0
C1360 C 0.44134 0.75955 0.51729 0.0
C1361 C 0.40132 0.69454 0.5016 0.0
H1362 H 0.46875 0.67867 0.47089 0.0
C1363 C 0.40677 0.59392 0.45608 0.0
C1364 C 0.40969 0.59937 0.43632 0.0
C1365 C 0.41379 0.61493 0.46955 0.0
C1366 C 0.44982 0.68298 0.47939 0.0
H1367 H 0.40188 0.74355 0.565 0.0
H1368 H 0.40185 0.70817 0.53979 0.0
H1369 H 0.46979 0.71761 0.4946 0.0
H1370 H 0.42542 0.63003 0.41542 0.0
H1371 H 0.43807 0.66654 0.43912 0.0
H1372 H 0.38163 0.65958 0.48684 0.0
C1373 C 0.41266 0.72827 0.53715 0.0
C1374 C 0.45028 0.70538 0.49284 0.0
C1375 C 0.41281 0.74866 0.55173 0.0
C1376 C 0.42268 0.62516 0.43051 0.0
C1377 C 0.42997 0.64611 0.44406 0.0
C1378 C 0.40105 0.67203 0.48847 0.0
C1379 C 0.42676 0.73339 0.51968 0.0
C1380 C 0.42611 0.71117 0.5043 0.0
C1381 C 0.42423 0.64167 0.4636 0.0
C1382 C 0.42534 0.66578 0.47741 0.0
H1383 H 0.45331 0.79981 0.52992 0.0
H1384 H 0.45224 0.76431 0.50396 0.0
H1385 H 0.382 0.69884 0.50968 0.0
H1386 H 0.39709 0.57427 0.46114 0.0
H1387 H 0.40958 0.61086 0.48459 0.0
C1388 C 0.89212 0.40285 0.45372 0.0
C1389 C 0.88677 0.40348 0.43386 0.0
C1390 C 0.87163 0.41278 0.46674 0.0
C1391 C 0.79345 0.42331 0.47039 0.0
H1392 H 0.81374 0.45382 0.52036 0.0
C1393 C 0.71066 0.44651 0.53152 0.0
C1394 C 0.71845 0.43461 0.54933 0.0
C1395 C 0.73028 0.44705 0.51626 0.0
C1396 C 0.80774 0.44536 0.50644 0.0
H1397 H 0.85632 0.41701 0.41211 0.0
H1398 H 0.82086 0.43495 0.43483 0.0
H1399 H 0.85044 0.44913 0.4957 0.0
H1400 H 0.75308 0.41405 0.56501 0.0
H1401 H 0.78697 0.41529 0.53865 0.0
H1402 H 0.75071 0.41934 0.48138 0.0
C1403 C 0.84065 0.42608 0.44036 0.0
C1404 C 0.82878 0.44257 0.49231 0.0
C1405 C 0.86114 0.41603 0.42731 0.0
C1406 C 0.74621 0.42331 0.55151 0.0
C1407 C 0.76581 0.42423 0.53644 0.0
C1408 C 0.77231 0.42638 0.48451 0.0
C1409 C 0.84528 0.42382 0.46026 0.0
C1410 C 0.82212 0.43072 0.47428 0.0
C1411 C 0.75817 0.43619 0.51869 0.0
C1412 C 0.77944 0.43666 0.50284 0.0
H1413 H 0.91155 0.39332 0.45934 0.0
H1414 H 0.87594 0.41036 0.48193 0.0
H1415 H 0.78751 0.41382 0.45678 0.0
H1416 H 0.68947 0.45539 0.52937 0.0
H1417 H 0.72384 0.45637 0.50269 0.0
C1418 C 0.08236 0.69967 0.53014 0.0
C1419 C 0.05644 0.69018 0.53806 0.0
C1420 C 0.08255 0.71528 0.51308 0.0
C1421 C 0.04325 0.76819 0.48758 0.0
H1422 H 0.09523 0.75072 0.44582 0.0
C1423 C 0.07282 0.85251 0.4294 0.0
C1424 C 0.10247 0.85429 0.42608 0.0
C1425 C 0.06137 0.8292 0.43959 0.0
C1426 C 0.08057 0.75596 0.45734 0.0
H1427 H 0.01038 0.68921 0.5343 0.0
H1428 H 0.01068 0.71767 0.50458 0.0
H1429 H 0.08633 0.71496 0.4706 0.0
H1430 H 0.14307 0.83234 0.43026 0.0
H1431 H 0.12349 0.79273 0.44797 0.0
H1432 H 0.0392 0.81 0.47521 0.0
C1433 C 0.0308 0.71242 0.51149 0.0
C1434 C 0.07537 0.73539 0.47143 0.0
C1435 C 0.03067 0.69607 0.52836 0.0
C1436 C 0.12015 0.8319 0.43258 0.0
C1437 C 0.10881 0.80883 0.44261 0.0
C1438 C 0.0488 0.78901 0.4736 0.0
C1439 C 0.05677 0.72232 0.50382 0.0
C1440 C 0.05744 0.74166 0.487 0.0
C1441 C 0.07935 0.80719 0.44644 0.0
C1442 C 0.06846 0.78352 0.45875 0.0
H1443 H 0.1025 0.69545 0.53735 0.0
H1444 H 0.10282 0.7229 0.50754 0.0
H1445 H 0.02943 0.77354 0.49954 0.0
H1446 H 0.05861 0.86937 0.42456 0.0
H1447 H 0.03854 0.82854 0.44224 0.0
C1448 C 0.25869 0.9466 0.95973 0.0
C1449 C 0.28874 0.94501 0.95976 0.0
C1450 C 0.2435 0.94708 0.97695 0.0
C1451 C 0.24394 0.91747 0.02349 0.0
H1452 H 0.18603 0.97398 0.03613 0.0
C1453 C 0.16532 0.89462 0.08438 0.0
C1454 C 0.13675 0.9025 0.08116 0.0
C1455 C 0.1872 0.90593 0.07304 0.0
C1456 C 0.20189 0.95783 0.03278 0.0
H1457 H 0.32653 0.94304 0.97777 0.0
H1458 H 0.29961 0.94249 0.00814 0.0
H1459 H 0.21814 0.98219 0.00905 0.0
H1460 H 0.10846 0.92901 0.06419 0.0
H1461 H 0.14619 0.9476 0.04358 0.0
H1462 H 0.22659 0.89181 0.04584 0.0
C1463 C 0.28806 0.94402 0.99468 0.0
C1464 C 0.22046 0.96275 0.01738 0.0
C1465 C 0.30338 0.94433 0.97739 0.0
C1466 C 0.13045 0.92293 0.06706 0.0
C1467 C 0.15223 0.93362 0.05529 0.0
C1468 C 0.22499 0.9122 0.03856 0.0
C1469 C 0.25799 0.94532 0.99454 0.0
C1470 C 0.2413 0.94238 0.01245 0.0
C1471 C 0.18085 0.92456 0.05771 0.0
C1472 C 0.20327 0.93204 0.04324 0.0
H1473 H 0.24689 0.94737 0.94633 0.0
H1474 H 0.22031 0.94779 0.9765 0.0
H1475 H 0.25961 0.90128 0.01974 0.0
H1476 H 0.17064 0.87895 0.09528 0.0
H1477 H 0.20895 0.89914 0.07589 0.0
C1478 C 0.57922 0.12488 0.06244 0.0
C1479 C 0.59848 0.1309 0.07734 0.0
C1480 C 0.56868 0.14704 0.05086 0.0
C1481 C 0.58849 0.22151 0.0367 0.0
H1482 H 0.51991 0.21489 0.00564 0.0
C1483 C 0.55537 0.30383 0.97778 0.0
C1484 C 0.55529 0.29062 0.95965 0.0
C1485 C 0.55608 0.28714 0.99451 0.0
C1486 C 0.53895 0.21713 0.01441 0.0
H1487 H 0.62016 0.16458 0.09293 0.0
H1488 H 0.60022 0.20341 0.07382 0.0
H1489 H 0.52822 0.18091 0.03169 0.0
H1490 H 0.55445 0.24982 0.94475 0.0
H1491 H 0.55471 0.22088 0.97389 0.0
H1492 H 0.5989 0.25793 0.01935 0.0
C1493 C 0.59424 0.18167 0.07025 0.0
C1494 C 0.54394 0.1975 0.02921 0.0
C1495 C 0.60538 0.15948 0.08142 0.0
C1496 C 0.55477 0.26057 0.95854 0.0
C1497 C 0.55467 0.244 0.97519 0.0
C1498 C 0.58313 0.24148 0.0222 0.0
C1499 C 0.57674 0.17574 0.05425 0.0
C1500 C 0.56922 0.19886 0.04024 0.0
C1501 C 0.55576 0.25708 0.9933 0.0
C1502 C 0.55873 0.239 0.01061 0.0
H1503 H 0.57393 0.10292 0.05889 0.0
H1504 H 0.55559 0.14133 0.03862 0.0
H1505 H 0.60851 0.22317 0.04445 0.0
H1506 H 0.55581 0.32695 0.97899 0.0
H1507 H 0.55705 0.29763 0.00837 0.0
C1508 C 0.21257 0.54429 0.96993 0.0
C1509 C 0.21871 0.55868 0.95268 0.0
C1510 C 0.23314 0.54273 0.9846 0.0
C1511 C 0.31095 0.54652 0.99256 0.0
H1512 H 0.29253 0.57141 0.04417 0.0
C1513 C 0.39609 0.58783 0.04521 0.0
C1514 C 0.39161 0.58537 0.06509 0.0
C1515 C 0.37567 0.57768 0.0322 0.0
C1516 C 0.29801 0.56372 0.02997 0.0
H1517 H 0.25136 0.58273 0.93743 0.0
H1518 H 0.28688 0.57977 0.96278 0.0
H1519 H 0.25449 0.56709 0.02031 0.0
H1520 H 0.36324 0.56801 0.08681 0.0
H1521 H 0.32802 0.54966 0.06409 0.0
H1522 H 0.35444 0.54344 0.00201 0.0
C1523 C 0.26629 0.56963 0.96497 0.0
C1524 C 0.27616 0.56136 0.01629 0.0
C1525 C 0.24575 0.57154 0.9505 0.0
C1526 C 0.36728 0.57053 0.0716 0.0
C1527 C 0.34692 0.56022 0.05857 0.0
C1528 C 0.33274 0.5486 0.00626 0.0
C1529 C 0.26033 0.55509 0.98211 0.0
C1530 C 0.28257 0.55357 0.99732 0.0
C1531 C 0.35035 0.56459 0.03873 0.0
C1532 C 0.32671 0.55805 0.025 0.0
H1533 H 0.19198 0.53413 0.97205 0.0
H1534 H 0.228 0.53144 0.99772 0.0
H1535 H 0.31641 0.54 0.97809 0.0
H1536 H 0.41452 0.59915 0.03965 0.0
H1537 H 0.37903 0.58169 0.01707 0.0
C1538 C 0.91502 0.39264 0.04523 0.0
C1539 C 0.91612 0.38792 0.06514 0.0
C1540 C 0.92485 0.37182 0.03243 0.0
C1541 C 0.93439 0.29362 0.03011 0.0
H1542 H 0.96154 0.31132 0.97892 0.0
C1543 C 0.95026 0.20896 0.96889 0.0
C1544 C 0.93639 0.21671 0.95171 0.0
C1545 C 0.95278 0.22872 0.98399 0.0
C1546 C 0.9541 0.30605 0.99321 0.0
H1547 H 0.93075 0.3585 0.08719 0.0
H1548 H 0.94849 0.32246 0.06482 0.0
H1549 H 0.95976 0.349 0.00316 0.0
H1550 H 0.91414 0.2513 0.93707 0.0
H1551 H 0.91882 0.28543 0.96315 0.0
H1552 H 0.92839 0.25066 0.0199 0.0
C1553 C 0.93928 0.34197 0.05911 0.0
C1554 C 0.95297 0.32764 0.00708 0.0
C1555 C 0.92933 0.36278 0.07195 0.0
C1556 C 0.92489 0.24446 0.95007 0.0
C1557 C 0.92779 0.26419 0.96495 0.0
C1558 C 0.93582 0.27193 0.01626 0.0
C1559 C 0.93623 0.34579 0.03919 0.0
C1560 C 0.94218 0.32194 0.02553 0.0
C1561 C 0.94195 0.25667 0.98198 0.0
C1562 C 0.94479 0.2782 0.99751 0.0
H1563 H 0.90502 0.41171 0.03944 0.0
H1564 H 0.92187 0.3755 0.01721 0.0
H1565 H 0.92567 0.28844 0.04408 0.0
H1566 H 0.95937 0.18778 0.9706 0.0
H1567 H 0.9637 0.2224 0.99704 0.0
C1568 C 0.35756 0.92514 0.57954 0.0
C1569 C 0.38174 0.91152 0.57165 0.0
C1570 C 0.33688 0.93761 0.5676 0.0
C1571 C 0.32198 0.95747 0.51644 0.0
H1572 H 0.2441 0.93569 0.52908 0.0
C1573 C 0.23715 0.92888 0.4609 0.0
C1574 C 0.21131 0.94437 0.46102 0.0
C1575 C 0.25677 0.93176 0.47584 0.0
C1576 C 0.26566 0.94243 0.52556 0.0
H1577 H 0.40398 0.90207 0.54504 0.0
H1578 H 0.36798 0.92305 0.52438 0.0
H1579 H 0.28207 0.92953 0.55288 0.0
H1580 H 0.18555 0.9746 0.47718 0.0
H1581 H 0.21981 0.97867 0.50397 0.0
H1582 H 0.3057 0.96817 0.48857 0.0
C1583 C 0.36496 0.92457 0.53976 0.0
C1584 C 0.28745 0.93901 0.53918 0.0
C1585 C 0.38564 0.91228 0.55166 0.0
C1586 C 0.20526 0.96238 0.47672 0.0
C1587 C 0.22478 0.96476 0.49198 0.0
C1588 C 0.3003 0.96044 0.50277 0.0
C1589 C 0.3399 0.93669 0.54752 0.0
C1590 C 0.31608 0.94553 0.53454 0.0
C1591 C 0.25086 0.94977 0.49144 0.0
C1592 C 0.27217 0.95212 0.50703 0.0
H1593 H 0.35395 0.92515 0.5949 0.0
H1594 H 0.31812 0.94721 0.57409 0.0
H1595 H 0.3436 0.9634 0.51251 0.0
H1596 H 0.24263 0.91499 0.44899 0.0
H1597 H 0.27663 0.91976 0.47524 0.0
C1598 C 0.57906 0.39243 0.54936 0.0
C1599 C 0.58482 0.38317 0.56817 0.0
C1600 C 0.56923 0.37318 0.53552 0.0
C1601 C 0.54038 0.30024 0.52695 0.0
H1602 H 0.5849 0.30627 0.48018 0.0
C1603 C 0.54389 0.21201 0.46756 0.0
C1604 C 0.54506 0.22167 0.44846 0.0
C1605 C 0.5455 0.23157 0.48282 0.0
C1606 C 0.57193 0.30446 0.49301 0.0
H1607 H 0.58249 0.34686 0.58754 0.0
H1608 H 0.56556 0.31319 0.56326 0.0
H1609 H 0.59149 0.34131 0.50549 0.0
H1610 H 0.54728 0.25954 0.43044 0.0
H1611 H 0.54955 0.29329 0.45682 0.0
H1612 H 0.52103 0.26304 0.51431 0.0
C1613 C 0.56859 0.33538 0.55926 0.0
C1614 C 0.57569 0.32463 0.50753 0.0
C1615 C 0.57836 0.35471 0.57317 0.0
C1616 C 0.54684 0.25125 0.44496 0.0
C1617 C 0.54823 0.27067 0.46011 0.0
C1618 C 0.53653 0.27999 0.5123 0.0
C1619 C 0.56503 0.34419 0.54012 0.0
C1620 C 0.55989 0.3229 0.52463 0.0
C1621 C 0.54817 0.2611 0.47922 0.0
C1622 C 0.55218 0.28201 0.49511 0.0
H1623 H 0.58342 0.41428 0.54506 0.0
H1624 H 0.566 0.38076 0.52098 0.0
H1625 H 0.52791 0.29835 0.53998 0.0
H1626 H 0.54245 0.18936 0.47072 0.0
H1627 H 0.54553 0.2235 0.49739 0.0
C1628 C 0.25961 0.57516 0.45805 0.0
C1629 C 0.27849 0.5523 0.45456 0.0
C1630 C 0.2397 0.57368 0.4729 0.0
C1631 C 0.2212 0.53613 0.51781 0.0
H1632 H 0.14624 0.56768 0.50647 0.0
C1633 C 0.10258 0.56182 0.55396 0.0
C1634 C 0.11207 0.57373 0.57137 0.0
C1635 C 0.12227 0.55138 0.54057 0.0
C1636 C 0.1668 0.55819 0.50986 0.0
H1637 H 0.29188 0.5103 0.4644 0.0
H1638 H 0.25672 0.5076 0.49032 0.0
H1639 H 0.18215 0.56568 0.48146 0.0
H1640 H 0.14955 0.58162 0.58907 0.0
H1641 H 0.18374 0.5643 0.56561 0.0
H1642 H 0.20561 0.5285 0.54626 0.0
C1643 C 0.25754 0.52676 0.4816 0.0
C1644 C 0.18762 0.55754 0.49555 0.0
C1645 C 0.27766 0.5283 0.46674 0.0
C1646 C 0.14146 0.57271 0.57577 0.0
C1647 C 0.16115 0.5626 0.56229 0.0
C1648 C 0.20023 0.53663 0.53216 0.0
C1649 C 0.23796 0.54922 0.48458 0.0
C1650 C 0.2153 0.54724 0.49947 0.0
C1651 C 0.15188 0.55296 0.54419 0.0
C1652 C 0.17295 0.54828 0.52847 0.0
H1653 H 0.25987 0.59412 0.44911 0.0
H1654 H 0.22547 0.59171 0.47513 0.0
H1655 H 0.2423 0.52801 0.52129 0.0
H1656 H 0.08006 0.56189 0.55024 0.0
H1657 H 0.11432 0.54333 0.52699 0.0
C1658 C 0.91786 0.13569 0.57376 0.0
C1659 C 0.91502 0.10648 0.56926 0.0
C1660 C 0.92919 0.15477 0.56036 0.0
C1661 C 0.95656 0.19267 0.5303 0.0
H1662 H 0.92644 0.17602 0.47964 0.0
C1663 C 0.96386 0.27148 0.46543 0.0
C1664 C 0.93932 0.27282 0.45373 0.0
C1665 C 0.96592 0.25095 0.48003 0.0
C1666 C 0.93493 0.18107 0.49372 0.0
H1667 H 0.92493 0.07385 0.54813 0.0
H1668 H 0.94578 0.10695 0.52504 0.0
H1669 H 0.92375 0.13993 0.50444 0.0
H1670 H 0.8971 0.25481 0.4489 0.0
H1671 H 0.9004 0.21978 0.47447 0.0
H1672 H 0.96602 0.23465 0.51962 0.0
C1673 C 0.93815 0.11535 0.53859 0.0
C1674 C 0.93389 0.16012 0.50791 0.0
C1675 C 0.92638 0.09632 0.55188 0.0
C1676 C 0.91647 0.25413 0.45746 0.0
C1677 C 0.91846 0.23385 0.47204 0.0
C1678 C 0.9574 0.21379 0.51606 0.0
C1679 C 0.93832 0.145 0.54226 0.0
C1680 C 0.94402 0.16582 0.52655 0.0
C1681 C 0.94345 0.23152 0.48319 0.0
C1682 C 0.94579 0.20846 0.49778 0.0
H1683 H 0.90938 0.14425 0.58705 0.0
H1684 H 0.92879 0.1774 0.56372 0.0
H1685 H 0.96497 0.19767 0.5444 0.0
H1686 H 0.98186 0.28556 0.46287 0.0
H1687 H 0.98545 0.2497 0.48839 0.0
C1688 C 0.88637 0.08061 0.94768 0.0
C1689 C 0.88096 0.08473 0.928 0.0
C1690 C 0.86509 0.06968 0.95972 0.0
C1691 C 0.81787 0.03799 0.98144 0.0
H1692 H 0.74577 0.07822 0.97488 0.0
C1693 C 0.72221 0.02274 0.03326 0.0
C1694 C 0.71142 0.04862 0.04068 0.0
C1695 C 0.74072 0.02282 0.01747 0.0
C1696 C 0.7657 0.06667 0.97682 0.0
H1697 H 0.84959 0.07841 0.90534 0.0
H1698 H 0.8126 0.0594 0.92637 0.0
H1699 H 0.78373 0.08428 0.95123 0.0
H1700 H 0.71049 0.09469 0.03677 0.0
H1701 H 0.74238 0.09474 0.00913 0.0
H1702 H 0.80007 0.02121 0.00744 0.0
C1703 C 0.83318 0.06501 0.9325 0.0
C1704 C 0.78735 0.06992 0.96319 0.0
C1705 C 0.85448 0.07578 0.92044 0.0
C1706 C 0.71846 0.0744 0.03144 0.0
C1707 C 0.73663 0.07442 0.01554 0.0
C1708 C 0.79607 0.03452 0.995 0.0
C1709 C 0.83793 0.06273 0.95235 0.0
C1710 C 0.8139 0.05612 0.96556 0.0
C1711 C 0.74842 0.04871 0.00863 0.0
C1712 C 0.77002 0.04938 0.99304 0.0
H1713 H 0.90653 0.08716 0.95399 0.0
H1714 H 0.86937 0.0683 0.97498 0.0
H1715 H 0.83804 0.02697 0.98358 0.0
H1716 H 0.71729 0.00253 0.0401 0.0
H1717 H 0.74936 0.00268 0.01235 0.0
C1718 C 0.41737 0.88842 0.94971 0.0
C1719 C 0.4125 0.8819 0.93028 0.0
C1720 C 0.42899 0.86797 0.96207 0.0
C1721 C 0.43338 0.78959 0.96682 0.0
H1722 H 0.47414 0.80959 0.01346 0.0
C1723 C 0.45555 0.70943 0.02926 0.0
C1724 C 0.44491 0.71956 0.04688 0.0
C1725 C 0.45758 0.72783 0.01344 0.0
C1726 C 0.46295 0.80367 0.00041 0.0
H1727 H 0.41829 0.84947 0.90828 0.0
H1728 H 0.43929 0.81401 0.92979 0.0
H1729 H 0.4692 0.84497 0.98791 0.0
H1730 H 0.4288 0.75701 0.06188 0.0
H1731 H 0.43282 0.789 0.03448 0.0
H1732 H 0.42688 0.74835 0.97959 0.0
C1733 C 0.43333 0.8347 0.93558 0.0
C1734 C 0.45997 0.82394 0.98582 0.0
C1735 C 0.42147 0.85512 0.92322 0.0
C1736 C 0.43686 0.74847 0.04847 0.0
C1737 C 0.43942 0.76688 0.03284 0.0
C1738 C 0.43671 0.76919 0.98133 0.0
C1739 C 0.43633 0.84053 0.9553 0.0
C1740 C 0.44421 0.81752 0.96914 0.0
C1741 C 0.44967 0.75676 0.01516 0.0
C1742 C 0.45065 0.7764 0.99852 0.0
H1743 H 0.41075 0.9088 0.95569 0.0
H1744 H 0.43062 0.87324 0.97718 0.0
H1745 H 0.42083 0.78389 0.95431 0.0
H1746 H 0.4619 0.68725 0.02763 0.0
H1747 H 0.46548 0.71955 0.99991 0.0
C1748 C 0.76377 0.41495 0.04282 0.0
C1749 C 0.78326 0.43746 0.0456 0.0
C1750 C 0.7437 0.41608 0.02801 0.0
C1751 C 0.72506 0.45228 0.98238 0.0
H1752 H 0.64986 0.42251 0.99469 0.0
C1753 C 0.60469 0.42942 0.94778 0.0
C1754 C 0.61324 0.41779 0.93009 0.0
C1755 C 0.62509 0.43917 0.96094 0.0
C1756 C 0.67049 0.4315 0.99101 0.0
H1757 H 0.79755 0.47844 0.03458 0.0
H1758 H 0.76205 0.48063 0.0088 0.0
H1759 H 0.68636 0.42426 0.01933 0.0
H1760 H 0.64978 0.40945 0.9117 0.0
H1761 H 0.68528 0.42548 0.93478 0.0
H1762 H 0.70887 0.45989 0.95404 0.0
C1763 C 0.76254 0.46195 0.018 0.0
C1764 C 0.69168 0.43197 0.00511 0.0
C1765 C 0.78286 0.46071 0.03278 0.0
C1766 C 0.64244 0.41829 0.92521 0.0
C1767 C 0.66288 0.42761 0.93848 0.0
C1768 C 0.70371 0.45201 0.96823 0.0
C1769 C 0.74234 0.43988 0.01569 0.0
C1770 C 0.71942 0.44169 0.00088 0.0
C1771 C 0.65453 0.43702 0.95684 0.0
C1772 C 0.67629 0.44107 0.97228 0.0
H1773 H 0.76371 0.39655 0.05227 0.0
H1774 H 0.72903 0.3983 0.02632 0.0
H1775 H 0.7462 0.45993 0.97862 0.0
H1776 H 0.58231 0.42969 0.95187 0.0
H1777 H 0.6178 0.44713 0.9747 0.0
C1778 C 0.07805 0.76421 0.04168 0.0
C1779 C 0.05955 0.788 0.04179 0.0
C1780 C 0.07622 0.74366 0.02721 0.0
C1781 C 0.06039 0.72907 0.97849 0.0
H1782 H 0.04359 0.65181 0.99548 0.0
C1783 C 0.06919 0.63398 0.92608 0.0
C1784 C 0.08373 0.60996 0.93343 0.0
C1785 C 0.05907 0.6554 0.93842 0.0
C1786 C 0.04846 0.67318 0.99046 0.0
H1787 H 0.02548 0.80948 0.02622 0.0
H1788 H 0.02314 0.77372 0.00032 0.0
H1789 H 0.04169 0.69134 0.01837 0.0
H1790 H 0.09732 0.58883 0.95965 0.0
H1791 H 0.0805 0.62614 0.98093 0.0
H1792 H 0.06921 0.71094 0.95093 0.0
C1793 C 0.03861 0.77101 0.01178 0.0
C1794 C 0.04715 0.6958 0.00356 0.0
C1795 C 0.04002 0.79141 0.02654 0.0
C1796 C 0.08623 0.60699 0.95343 0.0
C1797 C 0.07638 0.62846 0.96572 0.0
C1798 C 0.06222 0.70635 0.96542 0.0
C1799 C 0.05626 0.74667 0.01231 0.0
C1800 C 0.05373 0.72377 0.99778 0.0
C1801 C 0.06342 0.65338 0.95837 0.0
C1802 C 0.05703 0.67798 0.97137 0.0
H1803 H 0.09326 0.76077 0.05321 0.0
H1804 H 0.09021 0.72515 0.02777 0.0
H1805 H 0.06568 0.75052 0.97379 0.0
H1806 H 0.06668 0.63688 0.91075 0.0
H1807 H 0.04863 0.67396 0.93225 0.0
loop_
_geom_bond_atom_site_label_1
_geom_bond_atom_site_label_2
_geom_bond_distance
_geom_bond_site_symmetry_2
_ccdc_geom_bond_type
O0 Zn1 1.953 . S
O0 C16 1.225 . S
Zn1 O0 1.953 . S
Zn1 O2 1.949 . S
Zn1 O8 1.919 . S
Zn1 O13 1.924 . S
O2 Zn1 1.949 . S
O2 Zn3 1.923 . S
O2 Zn4 1.950 . S
O2 Zn5 1.945 . S
Zn3 O2 1.923 . S
Zn3 O6 1.933 . S
Zn3 O9 1.941 . S
Zn3 O10 1.965 . S
Zn4 O2 1.950 . S
Zn4 O11 1.938 . S
Zn4 O12 1.906 . S
Zn4 O22 1.953 . S
Zn5 O2 1.945 . S
Zn5 O7 1.932 . S
Zn5 O14 1.977 . S
Zn5 O15 1.910 . S
O6 Zn3 1.933 . S
O6 C17 1.226 . S
O7 Zn5 1.932 . S
O7 C17 1.307 . S
O8 Zn1 1.919 . S
O8 C19 1.253 . S
O9 Zn3 1.941 . S
O9 C19 1.283 . S
O10 Zn3 1.965 . S
O10 C18 1.303 . S
O11 Zn4 1.938 . S
O11 C18 1.247 . S
O12 Zn4 1.906 . S
O12 C20 1.304 . S
O13 Zn1 1.924 . S
O13 C21 1.311 . S
O14 Zn5 1.977 . S
O14 C20 1.272 . S
O15 Zn5 1.910 . S
O15 C21 1.231 . S
C16 O0 1.225 . S
C16 O22 1.298 . S
C17 O6 1.226 . S
C17 O7 1.307 . S
C18 O10 1.303 . S
C18 O11 1.247 . S
C19 O8 1.253 . S
C19 O9 1.283 . S
C20 O12 1.304 . S
C20 O14 1.272 . S
C21 O13 1.311 . S
C21 O15 1.231 . S
O22 Zn4 1.953 . S
O22 C16 1.298 . S
O23 Zn24 1.953 . S
O23 C39 1.225 . S
Zn24 O23 1.953 . S
Zn24 O25 1.949 . S
Zn24 O31 1.919 . S
Zn24 O36 1.924 . S
O25 Zn24 1.949 . S
O25 Zn26 1.923 . S
O25 Zn27 1.950 . S
O25 Zn28 1.945 . S
Zn26 O25 1.923 . S
Zn26 O29 1.933 . S
Zn26 O32 1.941 . S
Zn26 O33 1.965 . S
Zn27 O25 1.950 . S
Zn27 O34 1.938 . S
Zn27 O35 1.906 . S
Zn27 O45 1.953 . S
Zn28 O25 1.945 . S
Zn28 O30 1.932 . S
Zn28 O37 1.977 . S
Zn28 O38 1.910 . S
O29 Zn26 1.933 . S
O29 C40 1.226 . S
O30 Zn28 1.932 . S
O30 C40 1.307 . S
O31 Zn24 1.919 . S
O31 C42 1.253 . S
O32 Zn26 1.941 . S
O32 C42 1.283 . S
O33 Zn26 1.965 . S
O33 C41 1.303 . S
O34 Zn27 1.938 . S
O34 C41 1.247 . S
O35 Zn27 1.906 . S
O35 C43 1.304 . S
O36 Zn24 1.924 . S
O36 C44 1.311 . S
O37 Zn28 1.977 . S
O37 C43 1.272 . S
O38 Zn28 1.910 . S
O38 C44 1.231 . S
C39 O23 1.225 . S
C39 O45 1.298 . S
C40 O29 1.226 . S
C40 O30 1.307 . S
C41 O33 1.303 . S
C41 O34 1.247 . S
C42 O31 1.253 . S
C42 O32 1.283 . S
C43 O35 1.304 . S
C43 O37 1.272 . S
C44 O36 1.311 . S
C44 O38 1.231 . S
O45 Zn27 1.953 . S
O45 C39 1.298 . S
O46 Zn47 1.953 . S
O46 C62 1.225 . S
Zn47 O46 1.953 . S
Zn47 O48 1.949 . S
Zn47 O54 1.919 . S
Zn47 O59 1.924 . S
O48 Zn47 1.949 . S
O48 Zn49 1.923 . S
O48 Zn50 1.950 . S
O48 Zn51 1.945 . S
Zn49 O48 1.923 . S
Zn49 O52 1.933 . S
Zn49 O55 1.941 . S
Zn49 O56 1.965 . S
Zn50 O48 1.950 . S
Zn50 O57 1.938 . S
Zn50 O58 1.906 . S
Zn50 O68 1.953 . S
Zn51 O48 1.945 . S
Zn51 O53 1.932 . S
Zn51 O60 1.977 . S
Zn51 O61 1.910 . S
O52 Zn49 1.933 . S
O52 C63 1.226 . S
O53 Zn51 1.932 . S
O53 C63 1.307 . S
O54 Zn47 1.919 . S
O54 C65 1.253 . S
O55 Zn49 1.941 . S
O55 C65 1.283 . S
O56 Zn49 1.965 . S
O56 C64 1.303 . S
O57 Zn50 1.938 . S
O57 C64 1.247 . S
O58 Zn50 1.906 . S
O58 C66 1.304 1_655 S
O59 Zn47 1.924 . S
O59 C67 1.311 . S
O60 Zn51 1.977 . S
O60 C66 1.272 1_655 S
O61 Zn51 1.910 . S
O61 C67 1.231 . S
C62 O46 1.225 . S
C62 O68 1.298 . S
C63 O52 1.226 . S
C63 O53 1.307 . S
C64 O56 1.303 . S
C64 O57 1.247 . S
C65 O54 1.253 . S
C65 O55 1.283 . S
C66 O58 1.304 1_455 S
C66 O60 1.272 1_455 S
C67 O59 1.311 . S
C67 O61 1.231 . S
O68 Zn50 1.953 . S
O68 C62 1.298 . S
O69 Zn70 1.953 . S
O69 C85 1.225 . S
Zn70 O69 1.953 . S
Zn70 O71 1.949 . S
Zn70 O77 1.919 . S
Zn70 O82 1.924 . S
O71 Zn70 1.949 . S
O71 Zn72 1.923 . S
O71 Zn73 1.950 . S
O71 Zn74 1.945 . S
Zn72 O71 1.923 . S
Zn72 O75 1.933 . S
Zn72 O78 1.941 . S
Zn72 O79 1.965 . S
Zn73 O71 1.950 . S
Zn73 O80 1.938 . S
Zn73 O81 1.906 . S
Zn73 O91 1.953 . S
Zn74 O71 1.945 . S
Zn74 O76 1.932 . S
Zn74 O83 1.977 . S
Zn74 O84 1.910 . S
O75 Zn72 1.933 . S
O75 C86 1.226 . S
O76 Zn74 1.932 . S
O76 C86 1.307 . S
O77 Zn70 1.919 . S
O77 C88 1.253 . S
O78 Zn72 1.941 . S
O78 C88 1.283 . S
O79 Zn72 1.965 . S
O79 C87 1.303 . S
O80 Zn73 1.938 . S
O80 C87 1.247 . S
O81 Zn73 1.906 . S
O81 C89 1.304 . S
O82 Zn70 1.924 . S
O82 C90 1.311 . S
O83 Zn74 1.977 . S
O83 C89 1.272 . S
O84 Zn74 1.910 . S
O84 C90 1.231 . S
C85 O69 1.225 . S
C85 O91 1.298 . S
C86 O75 1.226 . S
C86 O76 1.307 . S
C87 O79 1.303 . S
C87 O80 1.247 . S
C88 O77 1.253 . S
C88 O78 1.283 . S
C89 O81 1.304 . S
C89 O83 1.272 . S
C90 O82 1.311 . S
C90 O84 1.231 . S
O91 Zn73 1.953 . S
O91 C85 1.298 . S
O92 Zn93 1.953 . S
O92 C108 1.225 . S
Zn93 O92 1.953 . S
Zn93 O94 1.949 . S
Zn93 O100 1.919 . S
Zn93 O105 1.924 . S
O94 Zn93 1.949 . S
O94 Zn95 1.923 . S
O94 Zn96 1.950 . S
O94 Zn97 1.945 . S
Zn95 O94 1.923 . S
Zn95 O98 1.933 . S
Zn95 O101 1.941 . S
Zn95 O102 1.965 . S
Zn96 O94 1.950 . S
Zn96 O103 1.938 . S
Zn96 O104 1.906 . S
Zn96 O114 1.953 . S
Zn97 O94 1.945 . S
Zn97 O99 1.932 . S
Zn97 O106 1.977 . S
Zn97 O107 1.910 . S
O98 Zn95 1.933 . S
O98 C109 1.226 . S
O99 Zn97 1.932 . S
O99 C109 1.307 . S
O100 Zn93 1.919 . S
O100 C111 1.253 . S
O101 Zn95 1.941 . S
O101 C111 1.283 . S
O102 Zn95 1.965 . S
O102 C110 1.303 . S
O103 Zn96 1.938 . S
O103 C110 1.247 . S
O104 Zn96 1.906 . S
O104 C112 1.304 . S
O105 Zn93 1.924 . S
O105 C113 1.311 . S
O106 Zn97 1.977 . S
O106 C112 1.272 . S
O107 Zn97 1.910 . S
O107 C113 1.231 . S
C108 O92 1.225 . S
C108 O114 1.298 . S
C109 O98 1.226 . S
C109 O99 1.307 . S
C110 O102 1.303 . S
C110 O103 1.247 . S
C111 O100 1.253 . S
C111 O101 1.283 . S
C112 O104 1.304 . S
C112 O106 1.272 . S
C113 O105 1.311 . S
C113 O107 1.231 . S
O114 Zn96 1.953 . S
O114 C108 1.298 . S
O115 Zn116 1.953 . S
O115 C131 1.225 . S
Zn116 O115 1.953 . S
Zn116 O117 1.949 . S
Zn116 O123 1.919 . S
Zn116 O128 1.924 . S
O117 Zn116 1.949 . S
O117 Zn118 1.923 . S
O117 Zn119 1.950 . S
O117 Zn120 1.945 . S
Zn118 O117 1.923 . S
Zn118 O121 1.933 . S
Zn118 O124 1.941 . S
Zn118 O125 1.965 . S
Zn119 O117 1.950 . S
Zn119 O126 1.938 . S
Zn119 O127 1.906 . S
Zn119 O137 1.953 . S
Zn120 O117 1.945 . S
Zn120 O122 1.932 . S
Zn120 O129 1.977 . S
Zn120 O130 1.910 . S
O121 Zn118 1.933 . S
O121 C132 1.226 . S
O122 Zn120 1.932 . S
O122 C132 1.307 . S
O123 Zn116 1.919 . S
O123 C134 1.253 . S
O124 Zn118 1.941 . S
O124 C134 1.283 . S
O125 Zn118 1.965 . S
O125 C133 1.303 . S
O126 Zn119 1.938 . S
O126 C133 1.247 . S
O127 Zn119 1.906 . S
O127 C135 1.304 . S
O128 Zn116 1.924 . S
O128 C136 1.311 . S
O129 Zn120 1.977 . S
O129 C135 1.272 . S
O130 Zn120 1.910 . S
O130 C136 1.231 . S
C131 O115 1.225 . S
C131 O137 1.298 . S
C132 O121 1.226 . S
C132 O122 1.307 . S
C133 O125 1.303 . S
C133 O126 1.247 . S
C134 O123 1.253 . S
C134 O124 1.283 . S
C135 O127 1.304 . S
C135 O129 1.272 . S
C136 O128 1.311 . S
C136 O130 1.231 . S
O137 Zn119 1.953 . S
O137 C131 1.298 . S
O138 Zn139 1.953 . S
O138 C154 1.225 . S
Zn139 O138 1.953 . S
Zn139 O140 1.949 . S
Zn139 O146 1.919 . S
Zn139 O151 1.924 . S
O140 Zn139 1.949 . S
O140 Zn141 1.923 . S
O140 Zn142 1.950 . S
O140 Zn143 1.945 . S
Zn141 O140 1.923 . S
Zn141 O144 1.933 . S
Zn141 O147 1.941 . S
Zn141 O148 1.965 . S
Zn142 O140 1.950 . S
Zn142 O149 1.938 . S
Zn142 O150 1.906 . S
Zn142 O160 1.953 . S
Zn143 O140 1.945 . S
Zn143 O145 1.932 . S
Zn143 O152 1.977 . S
Zn143 O153 1.910 . S
O144 Zn141 1.933 . S
O144 C155 1.226 . S
O145 Zn143 1.932 . S
O145 C155 1.307 . S
O146 Zn139 1.919 . S
O146 C157 1.253 . S
O147 Zn141 1.941 . S
O147 C157 1.283 . S
O148 Zn141 1.965 . S
O148 C156 1.303 . S
O149 Zn142 1.938 . S
O149 C156 1.247 . S
O150 Zn142 1.906 . S
O150 C158 1.304 . S
O151 Zn139 1.924 . S
O151 C159 1.311 . S
O152 Zn143 1.977 . S
O152 C158 1.272 . S
O153 Zn143 1.910 . S
O153 C159 1.231 . S
C154 O138 1.225 . S
C154 O160 1.298 . S
C155 O144 1.226 . S
C155 O145 1.307 . S
C156 O148 1.303 . S
C156 O149 1.247 . S
C157 O146 1.253 . S
C157 O147 1.283 . S
C158 O150 1.304 . S
C158 O152 1.272 . S
C159 O151 1.311 . S
C159 O153 1.231 . S
O160 Zn142 1.953 . S
O160 C154 1.298 . S
O161 Zn162 1.953 . S
O161 C177 1.225 . S
Zn162 O161 1.953 . S
Zn162 O163 1.949 . S
Zn162 O169 1.919 . S
Zn162 O174 1.924 . S
O163 Zn162 1.949 . S
O163 Zn164 1.923 . S
O163 Zn165 1.950 . S
O163 Zn166 1.945 . S
Zn164 O163 1.923 . S
Zn164 O167 1.933 . S
Zn164 O170 1.941 . S
Zn164 O171 1.965 . S
Zn165 O163 1.950 . S
Zn165 O172 1.938 . S
Zn165 O173 1.906 . S
Zn165 O183 1.953 . S
Zn166 O163 1.945 . S
Zn166 O168 1.932 . S
Zn166 O175 1.977 . S
Zn166 O176 1.910 . S
O167 Zn164 1.933 . S
O167 C178 1.226 . S
O168 Zn166 1.932 . S
O168 C178 1.307 . S
O169 Zn162 1.919 . S
O169 C180 1.253 . S
O170 Zn164 1.941 . S
O170 C180 1.283 . S
O171 Zn164 1.965 . S
O171 C179 1.303 . S
O172 Zn165 1.938 . S
O172 C179 1.247 . S
O173 Zn165 1.906 . S
O173 C181 1.304 . S
O174 Zn162 1.924 . S
O174 C182 1.311 . S
O175 Zn166 1.977 . S
O175 C181 1.272 . S
O176 Zn166 1.910 . S
O176 C182 1.231 . S
C177 O161 1.225 . S
C177 O183 1.298 . S
C178 O167 1.226 . S
C178 O168 1.307 . S
C179 O171 1.303 . S
C179 O172 1.247 . S
C180 O169 1.253 . S
C180 O170 1.283 . S
C181 O173 1.304 . S
C181 O175 1.272 . S
C182 O174 1.311 . S
C182 O176 1.231 . S
O183 Zn165 1.953 . S
O183 C177 1.298 . S
O184 Zn185 1.953 . S
O184 C200 1.225 . S
Zn185 O184 1.953 . S
Zn185 O186 1.949 . S
Zn185 O192 1.919 . S
Zn185 O197 1.924 . S
O186 Zn185 1.949 . S
O186 Zn187 1.923 . S
O186 Zn188 1.950 . S
O186 Zn189 1.945 . S
Zn187 O186 1.923 . S
Zn187 O190 1.933 . S
Zn187 O193 1.941 . S
Zn187 O194 1.965 . S
Zn188 O186 1.950 . S
Zn188 O195 1.938 . S
Zn188 O196 1.906 . S
Zn188 O206 1.953 . S
Zn189 O186 1.945 . S
Zn189 O191 1.932 . S
Zn189 O198 1.977 . S
Zn189 O199 1.910 . S
O190 Zn187 1.933 . S
O190 C201 1.226 . S
O191 Zn189 1.932 . S
O191 C201 1.307 . S
O192 Zn185 1.919 . S
O192 C203 1.253 . S
O193 Zn187 1.941 . S
O193 C203 1.283 . S
O194 Zn187 1.965 . S
O194 C202 1.303 . S
O195 Zn188 1.938 . S
O195 C202 1.247 . S
O196 Zn188 1.906 . S
O196 C204 1.304 . S
O197 Zn185 1.924 . S
O197 C205 1.311 . S
O198 Zn189 1.977 . S
O198 C204 1.272 . S
O199 Zn189 1.910 . S
O199 C205 1.231 . S
C200 O184 1.225 . S
C200 O206 1.298 . S
C201 O190 1.226 . S
C201 O191 1.307 . S
C202 O194 1.303 . S
C202 O195 1.247 . S
C203 O192 1.253 . S
C203 O193 1.283 . S
C204 O196 1.304 . S
C204 O198 1.272 . S
C205 O197 1.311 . S
C205 O199 1.231 . S
O206 Zn188 1.953 . S
O206 C200 1.298 . S
O207 Zn208 1.953 . S
O207 C223 1.225 . S
Zn208 O207 1.953 . S
Zn208 O209 1.949 . S
Zn208 O215 1.919 . S
Zn208 O220 1.924 . S
O209 Zn208 1.949 . S
O209 Zn210 1.923 . S
O209 Zn211 1.950 . S
O209 Zn212 1.945 . S
Zn210 O209 1.923 . S
Zn210 O213 1.933 . S
Zn210 O216 1.941 . S
Zn210 O217 1.965 . S
Zn211 O209 1.950 . S
Zn211 O218 1.938 . S
Zn211 O219 1.906 . S
Zn211 O229 1.953 . S
Zn212 O209 1.945 . S
Zn212 O214 1.932 . S
Zn212 O221 1.977 . S
Zn212 O222 1.910 . S
O213 Zn210 1.933 . S
O213 C224 1.226 . S
O214 Zn212 1.932 . S
O214 C224 1.307 . S
O215 Zn208 1.919 . S
O215 C226 1.253 . S
O216 Zn210 1.941 . S
O216 C226 1.283 . S
O217 Zn210 1.965 . S
O217 C225 1.303 . S
O218 Zn211 1.938 . S
O218 C225 1.247 . S
O219 Zn211 1.906 . S
O219 C227 1.304 . S
O220 Zn208 1.924 . S
O220 C228 1.311 . S
O221 Zn212 1.977 . S
O221 C227 1.272 . S
O222 Zn212 1.910 . S
O222 C228 1.231 . S
C223 O207 1.225 . S
C223 O229 1.298 . S
C224 O213 1.226 . S
C224 O214 1.307 . S
C225 O217 1.303 . S
C225 O218 1.247 . S
C226 O215 1.253 . S
C226 O216 1.283 . S
C227 O219 1.304 . S
C227 O221 1.272 . S
C228 O220 1.311 . S
C228 O222 1.231 . S
O229 Zn211 1.953 . S
O229 C223 1.298 . S
O230 Zn231 1.953 . S
O230 C246 1.225 . S
Zn231 O230 1.953 . S
Zn231 O232 1.949 . S
Zn231 O238 1.919 . S
Zn231 O243 1.924 . S
O232 Zn231 1.949 . S
O232 Zn233 1.923 . S
O232 Zn234 1.950 . S
O232 Zn235 1.945 . S
Zn233 O232 1.923 . S
Zn233 O236 1.933 . S
Zn233 O239 1.941 . S
Zn233 O240 1.965 . S
Zn234 O232 1.950 . S
Zn234 O241 1.938 . S
Zn234 O242 1.906 . S
Zn234 O252 1.953 . S
Zn235 O232 1.945 . S
Zn235 O237 1.932 . S
Zn235 O244 1.977 . S
Zn235 O245 1.910 . S
O236 Zn233 1.933 . S
O236 C247 1.226 . S
O237 Zn235 1.932 . S
O237 C247 1.307 . S
O238 Zn231 1.919 . S
O238 C249 1.253 . S
O239 Zn233 1.941 . S
O239 C249 1.283 . S
O240 Zn233 1.965 . S
O240 C248 1.303 . S
O241 Zn234 1.938 . S
O241 C248 1.247 . S
O242 Zn234 1.906 . S
O242 C250 1.304 1_455 S
O243 Zn231 1.924 . S
O243 C251 1.311 . S
O244 Zn235 1.977 . S
O244 C250 1.272 1_455 S
O245 Zn235 1.910 . S
O245 C251 1.231 . S
C246 O230 1.225 . S
C246 O252 1.298 . S
C247 O236 1.226 . S
C247 O237 1.307 . S
C248 O240 1.303 . S
C248 O241 1.247 . S
C249 O238 1.253 . S
C249 O239 1.283 . S
C250 O242 1.304 1_655 S
C250 O244 1.272 1_655 S
C251 O243 1.311 . S
C251 O245 1.231 . S
O252 Zn234 1.953 . S
O252 C246 1.298 . S
O253 Zn254 1.953 . S
O253 C269 1.225 . S
Zn254 O253 1.953 . S
Zn254 O255 1.949 . S
Zn254 O261 1.919 . S
Zn254 O266 1.924 . S
O255 Zn254 1.949 . S
O255 Zn256 1.923 . S
O255 Zn257 1.950 . S
O255 Zn258 1.945 . S
Zn256 O255 1.923 . S
Zn256 O259 1.933 . S
Zn256 O262 1.941 . S
Zn256 O263 1.965 . S
Zn257 O255 1.950 . S
Zn257 O264 1.938 . S
Zn257 O265 1.906 . S
Zn257 O275 1.953 . S
Zn258 O255 1.945 . S
Zn258 O260 1.932 . S
Zn258 O267 1.977 . S
Zn258 O268 1.910 . S
O259 Zn256 1.933 . S
O259 C270 1.226 . S
O260 Zn258 1.932 . S
O260 C270 1.307 . S
O261 Zn254 1.919 . S
O261 C272 1.253 . S
O262 Zn256 1.941 . S
O262 C272 1.283 . S
O263 Zn256 1.965 . S
O263 C271 1.303 . S
O264 Zn257 1.938 . S
O264 C271 1.247 . S
O265 Zn257 1.906 . S
O265 C273 1.286 1_545 S
O266 Zn254 1.924 . S
O266 C274 1.311 . S
O267 Zn258 1.977 . S
O267 C273 1.267 1_545 S
O268 Zn258 1.910 . S
O268 C274 1.231 . S
C269 O253 1.225 . S
C269 O275 1.298 . S
C270 O259 1.226 . S
C270 O260 1.307 . S
C271 O263 1.303 . S
C271 O264 1.247 . S
C272 O261 1.253 . S
C272 O262 1.283 . S
C273 O265 1.286 1_565 S
C273 O267 1.267 1_565 S
C274 O266 1.311 . S
C274 O268 1.231 . S
O275 Zn257 1.953 . S
O275 C269 1.298 . S
O276 Zn277 1.953 . S
O276 C292 1.225 . S
Zn277 O276 1.953 . S
Zn277 O278 1.949 . S
Zn277 O284 1.919 . S
Zn277 O289 1.924 . S
O278 Zn277 1.949 . S
O278 Zn279 1.923 . S
O278 Zn280 1.950 . S
O278 Zn281 1.945 . S
Zn279 O278 1.923 . S
Zn279 O282 1.933 . S
Zn279 O285 1.941 . S
Zn279 O286 1.965 . S
Zn280 O278 1.950 . S
Zn280 O287 1.938 . S
Zn280 O288 1.906 . S
Zn280 O298 1.953 . S
Zn281 O278 1.945 . S
Zn281 O283 1.932 . S
Zn281 O290 1.977 . S
Zn281 O291 1.910 . S
O282 Zn279 1.933 . S
O282 C293 1.226 . S
O283 Zn281 1.932 . S
O283 C293 1.307 . S
O284 Zn277 1.919 . S
O284 C295 1.253 . S
O285 Zn279 1.941 . S
O285 C295 1.283 . S
O286 Zn279 1.965 . S
O286 C294 1.303 . S
O287 Zn280 1.938 . S
O287 C294 1.247 . S
O288 Zn280 1.906 . S
O288 C296 1.304 1_655 S
O289 Zn277 1.924 . S
O289 C297 1.311 . S
O290 Zn281 1.977 . S
O290 C296 1.272 1_655 S
O291 Zn281 1.910 . S
O291 C297 1.231 . S
C292 O276 1.225 . S
C292 O298 1.298 . S
C293 O282 1.226 . S
C293 O283 1.307 . S
C294 O286 1.303 . S
C294 O287 1.247 . S
C295 O284 1.253 . S
C295 O285 1.283 . S
C296 O288 1.304 1_455 S
C296 O290 1.272 1_455 S
C297 O289 1.311 . S
C297 O291 1.231 . S
O298 Zn280 1.953 . S
O298 C292 1.298 . S
O299 Zn300 1.953 . S
O299 C315 1.225 . S
Zn300 O299 1.953 . S
Zn300 O301 1.949 . S
Zn300 O307 1.919 . S
Zn300 O312 1.924 . S
O301 Zn300 1.949 . S
O301 Zn302 1.923 . S
O301 Zn303 1.950 . S
O301 Zn304 1.945 . S
Zn302 O301 1.923 . S
Zn302 O305 1.933 . S
Zn302 O308 1.941 . S
Zn302 O309 1.965 . S
Zn303 O301 1.950 . S
Zn303 O310 1.938 . S
Zn303 O311 1.906 . S
Zn303 O321 1.953 . S
Zn304 O301 1.945 . S
Zn304 O306 1.932 . S
Zn304 O313 1.977 . S
Zn304 O314 1.910 . S
O305 Zn302 1.933 . S
O305 C316 1.226 . S
O306 Zn304 1.932 . S
O306 C316 1.307 . S
O307 Zn300 1.919 . S
O307 C318 1.253 . S
O308 Zn302 1.941 . S
O308 C318 1.283 . S
O309 Zn302 1.965 . S
O309 C317 1.303 . S
O310 Zn303 1.938 . S
O310 C317 1.247 . S
O311 Zn303 1.906 . S
O311 C319 1.304 1_565 S
O312 Zn300 1.924 . S
O312 C320 1.311 . S
O313 Zn304 1.977 . S
O313 C319 1.272 1_565 S
O314 Zn304 1.910 . S
O314 C320 1.231 . S
C315 O299 1.225 . S
C315 O321 1.298 . S
C316 O305 1.226 . S
C316 O306 1.307 . S
C317 O309 1.303 . S
C317 O310 1.247 . S
C318 O307 1.253 . S
C318 O308 1.283 . S
C319 O311 1.304 1_545 S
C319 O313 1.272 1_545 S
C320 O312 1.311 . S
C320 O314 1.231 . S
O321 Zn303 1.953 . S
O321 C315 1.298 . S
O322 Zn323 1.953 . S
O322 C338 1.225 . S
Zn323 O322 1.953 . S
Zn323 O324 1.949 . S
Zn323 O330 1.919 . S
Zn323 O335 1.924 . S
O324 Zn323 1.949 . S
O324 Zn325 1.923 . S
O324 Zn326 1.950 . S
O324 Zn327 1.945 . S
Zn325 O324 1.923 . S
Zn325 O328 1.933 . S
Zn325 O331 1.941 . S
Zn325 O332 1.965 . S
Zn326 O324 1.950 . S
Zn326 O333 1.938 . S
Zn326 O334 1.906 . S
Zn326 O344 1.953 . S
Zn327 O324 1.945 . S
Zn327 O329 1.932 . S
Zn327 O336 1.977 . S
Zn327 O337 1.910 . S
O328 Zn325 1.933 . S
O328 C339 1.226 . S
O329 Zn327 1.932 . S
O329 C339 1.307 . S
O330 Zn323 1.919 . S
O330 C341 1.253 . S
O331 Zn325 1.941 . S
O331 C341 1.283 . S
O332 Zn325 1.965 . S
O332 C340 1.303 . S
O333 Zn326 1.938 . S
O333 C340 1.247 . S
O334 Zn326 1.906 . S
O334 C342 1.304 . S
O335 Zn323 1.924 . S
O335 C343 1.311 . S
O336 Zn327 1.977 . S
O336 C342 1.272 . S
O337 Zn327 1.910 . S
O337 C343 1.231 . S
C338 O322 1.225 . S
C338 O344 1.298 . S
C339 O328 1.226 . S
C339 O329 1.307 . S
C340 O332 1.303 . S
C340 O333 1.247 . S
C341 O330 1.253 . S
C341 O331 1.283 . S
C342 O334 1.304 . S
C342 O336 1.272 . S
C343 O335 1.311 . S
C343 O337 1.231 . S
O344 Zn326 1.953 . S
O344 C338 1.298 . S
O345 Zn346 1.953 . S
O345 C361 1.225 . S
Zn346 O345 1.953 . S
Zn346 O347 1.949 . S
Zn346 O353 1.919 . S
Zn346 O358 1.924 . S
O347 Zn346 1.949 . S
O347 Zn348 1.923 . S
O347 Zn349 1.950 . S
O347 Zn350 1.945 . S
Zn348 O347 1.923 . S
Zn348 O351 1.933 . S
Zn348 O354 1.941 . S
Zn348 O355 1.965 . S
Zn349 O347 1.950 . S
Zn349 O356 1.938 . S
Zn349 O357 1.906 . S
Zn349 O367 1.953 . S
Zn350 O347 1.945 . S
Zn350 O352 1.932 . S
Zn350 O359 1.977 . S
Zn350 O360 1.910 . S
O351 Zn348 1.933 . S
O351 C362 1.226 . S
O352 Zn350 1.932 . S
O352 C362 1.307 . S
O353 Zn346 1.919 . S
O353 C364 1.253 . S
O354 Zn348 1.941 . S
O354 C364 1.283 . S
O355 Zn348 1.965 . S
O355 C363 1.303 . S
O356 Zn349 1.938 . S
O356 C363 1.247 . S
O357 Zn349 1.906 . S
O357 C365 1.304 . S
O358 Zn346 1.924 . S
O358 C366 1.311 . S
O359 Zn350 1.977 . S
O359 C365 1.272 . S
O360 Zn350 1.910 . S
O360 C366 1.231 . S
C361 O345 1.225 . S
C361 O367 1.298 . S
C362 O351 1.226 . S
C362 O352 1.307 . S
C363 O355 1.303 . S
C363 O356 1.247 . S
C364 O353 1.253 . S
C364 O354 1.283 . S
C365 O357 1.304 . S
C365 O359 1.272 . S
C366 O358 1.311 . S
C366 O360 1.231 . S
O367 Zn349 1.953 . S
O367 C361 1.298 . S
C368 C369 1.349 . S
C368 C370 1.327 . S
C368 H393 0.950 . S
C369 C368 1.349 . S
C369 C385 1.349 . S
C370 C368 1.327 . S
C370 C389 1.429 . S
C370 H394 0.950 . S
C371 C388 1.574 . S
C371 C390 1.368 . S
C371 H395 0.949 . S
H372 C376 0.949 . S
C373 C374 1.349 . S
C373 C375 1.327 . S
C373 H396 0.950 . S
C374 C373 1.349 . S
C374 C386 1.349 . S
C375 C373 1.327 . S
C375 C391 1.429 . S
C375 H397 0.950 . S
C376 H372 0.949 . S
C376 C384 1.574 . S
C376 C392 1.368 . S
H377 C385 0.950 . S
H378 C383 0.950 . S
H379 C384 0.949 . S
H380 C386 0.950 . S
H381 C387 0.950 . S
H382 C388 0.949 . S
C383 H378 0.950 . S
C383 C385 1.327 . S
C383 C389 1.429 . S
C384 C376 1.574 . S
C384 H379 0.949 . S
C384 C390 1.368 . S
C385 C369 1.349 . S
C385 H377 0.950 . S
C385 C383 1.327 . S
C386 C374 1.349 . S
C386 H380 0.950 . S
C386 C387 1.327 . S
C387 H381 0.950 . S
C387 C386 1.327 . S
C387 C391 1.429 . S
C388 C371 1.574 . S
C388 H382 0.949 . S
C388 C392 1.368 . S
C389 C370 1.429 . S
C389 C383 1.429 . S
C389 C390 1.523 . S
C390 C371 1.368 . S
C390 C384 1.368 . S
C390 C389 1.523 . S
C391 C375 1.429 . S
C391 C387 1.429 . S
C391 C392 1.523 . S
C392 C376 1.368 . S
C392 C388 1.368 . S
C392 C391 1.523 . S
H393 C368 0.950 . S
H394 C370 0.950 . S
H395 C371 0.949 . S
H396 C373 0.950 . S
H397 C375 0.950 . S
C398 C399 1.349 . S
C398 C400 1.327 . S
C398 H423 0.950 . S
C399 C398 1.349 . S
C399 C415 1.349 . S
C400 C398 1.327 . S
C400 C419 1.429 . S
C400 H424 0.950 . S
C401 C418 1.574 . S
C401 C420 1.368 . S
C401 H425 0.949 . S
H402 C406 0.949 . S
C403 C404 1.349 . S
C403 C405 1.327 . S
C403 H426 0.950 . S
C404 C403 1.349 . S
C404 C416 1.349 . S
C405 C403 1.327 . S
C405 C421 1.429 . S
C405 H427 0.950 . S
C406 H402 0.949 . S
C406 C414 1.574 . S
C406 C422 1.368 . S
H407 C415 0.950 . S
H408 C413 0.950 . S
H409 C414 0.949 . S
H410 C416 0.950 . S
H411 C417 0.950 . S
H412 C418 0.949 . S
C413 H408 0.950 . S
C413 C415 1.327 . S
C413 C419 1.429 . S
C414 C406 1.574 . S
C414 H409 0.949 . S
C414 C420 1.368 . S
C415 C399 1.349 . S
C415 H407 0.950 . S
C415 C413 1.327 . S
C416 C404 1.349 . S
C416 H410 0.950 . S
C416 C417 1.327 . S
C417 H411 0.950 . S
C417 C416 1.327 . S
C417 C421 1.429 . S
C418 C401 1.574 . S
C418 H412 0.949 . S
C418 C422 1.368 . S
C419 C400 1.429 . S
C419 C413 1.429 . S
C419 C420 1.523 . S
C420 C401 1.368 . S
C420 C414 1.368 . S
C420 C419 1.523 . S
C421 C405 1.429 . S
C421 C417 1.429 . S
C421 C422 1.523 . S
C422 C406 1.368 . S
C422 C418 1.368 . S
C422 C421 1.523 . S
H423 C398 0.950 . S
H424 C400 0.950 . S
H425 C401 0.949 . S
H426 C403 0.950 . S
H427 C405 0.950 . S
C428 C429 1.349 . S
C428 C430 1.327 . S
C428 H453 0.950 . S
C429 C428 1.349 . S
C429 C445 1.349 . S
C430 C428 1.327 . S
C430 C449 1.429 . S
C430 H454 0.950 . S
C431 C448 1.574 . S
C431 C450 1.368 . S
C431 H455 0.949 . S
H432 C436 0.949 . S
C433 C434 1.349 . S
C433 C435 1.327 . S
C433 H456 0.950 . S
C434 C433 1.349 . S
C434 C446 1.349 . S
C435 C433 1.327 . S
C435 C451 1.429 . S
C435 H457 0.950 . S
C436 H432 0.949 . S
C436 C444 1.574 . S
C436 C452 1.368 . S
H437 C445 0.950 . S
H438 C443 0.950 . S
H439 C444 0.949 . S
H440 C446 0.950 . S
H441 C447 0.950 . S
H442 C448 0.949 . S
C443 H438 0.950 . S
C443 C445 1.327 . S
C443 C449 1.429 . S
C444 C436 1.574 . S
C444 H439 0.949 . S
C444 C450 1.368 . S
C445 C429 1.349 . S
C445 H437 0.950 . S
C445 C443 1.327 . S
C446 C434 1.349 . S
C446 H440 0.950 . S
C446 C447 1.327 . S
C447 H441 0.950 . S
C447 C446 1.327 . S
C447 C451 1.429 . S
C448 C431 1.574 . S
C448 H442 0.949 . S
C448 C452 1.368 . S
C449 C430 1.429 . S
C449 C443 1.429 . S
C449 C450 1.523 . S
C450 C431 1.368 . S
C450 C444 1.368 . S
C450 C449 1.523 . S
C451 C435 1.429 . S
C451 C447 1.429 . S
C451 C452 1.523 . S
C452 C436 1.368 . S
C452 C448 1.368 . S
C452 C451 1.523 . S
H453 C428 0.950 . S
H454 C430 0.950 . S
H455 C431 0.949 . S
H456 C433 0.950 . S
H457 C435 0.950 . S
C458 C459 1.349 . S
C458 C460 1.327 . S
C458 H483 0.950 . S
C459 C458 1.349 . S
C459 C475 1.349 . S
C460 C458 1.327 . S
C460 C479 1.429 . S
C460 H484 0.950 . S
C461 C478 1.574 . S
C461 C480 1.368 . S
C461 H485 0.949 . S
H462 C466 0.949 . S
C463 C464 1.349 . S
C463 C465 1.327 . S
C463 H486 0.950 . S
C464 C463 1.349 . S
C464 C476 1.349 . S
C465 C463 1.327 . S
C465 C481 1.429 . S
C465 H487 0.950 . S
C466 H462 0.949 . S
C466 C474 1.574 . S
C466 C482 1.368 . S
H467 C475 0.950 . S
H468 C473 0.950 . S
H469 C474 0.949 . S
H470 C476 0.950 . S
H471 C477 0.950 . S
H472 C478 0.949 . S
C473 H468 0.950 . S
C473 C475 1.327 . S
C473 C479 1.429 . S
C474 C466 1.574 . S
C474 H469 0.949 . S
C474 C480 1.368 . S
C475 C459 1.349 . S
C475 H467 0.950 . S
C475 C473 1.327 . S
C476 C464 1.349 . S
C476 H470 0.950 . S
C476 C477 1.327 . S
C477 H471 0.950 . S
C477 C476 1.327 . S
C477 C481 1.429 . S
C478 C461 1.574 . S
C478 H472 0.949 . S
C478 C482 1.368 . S
C479 C460 1.429 . S
C479 C473 1.429 . S
C479 C480 1.523 . S
C480 C461 1.368 . S
C480 C474 1.368 . S
C480 C479 1.523 . S
C481 C465 1.429 . S
C481 C477 1.429 . S
C481 C482 1.523 . S
C482 C466 1.368 . S
C482 C478 1.368 . S
C482 C481 1.523 . S
H483 C458 0.950 . S
H484 C460 0.950 . S
H485 C461 0.949 . S
H486 C463 0.950 . S
H487 C465 0.950 . S
C488 C489 1.349 . S
C488 C490 1.327 . S
C488 H513 0.950 . S
C489 C488 1.349 . S
C489 C505 1.349 . S
C490 C488 1.327 . S
C490 C509 1.429 . S
C490 H514 0.950 . S
C491 C508 1.574 . S
C491 C510 1.368 . S
C491 H515 0.949 . S
H492 C496 0.949 . S
C493 C494 1.349 . S
C493 C495 1.327 . S
C493 H516 0.950 . S
C494 C493 1.349 . S
C494 C506 1.349 . S
C495 C493 1.327 . S
C495 C511 1.429 . S
C495 H517 0.950 . S
C496 H492 0.949 . S
C496 C504 1.574 . S
C496 C512 1.368 . S
H497 C505 0.950 . S
H498 C503 0.950 . S
H499 C504 0.949 . S
H500 C506 0.950 . S
H501 C507 0.950 . S
H502 C508 0.949 . S
C503 H498 0.950 . S
C503 C505 1.327 . S
C503 C509 1.429 . S
C504 C496 1.574 . S
C504 H499 0.949 . S
C504 C510 1.368 . S
C505 C489 1.349 . S
C505 H497 0.950 . S
C505 C503 1.327 . S
C506 C494 1.349 . S
C506 H500 0.950 . S
C506 C507 1.327 . S
C507 H501 0.950 . S
C507 C506 1.327 . S
C507 C511 1.429 . S
C508 C491 1.574 . S
C508 H502 0.949 . S
C508 C512 1.368 . S
C509 C490 1.429 . S
C509 C503 1.429 . S
C509 C510 1.523 . S
C510 C491 1.368 . S
C510 C504 1.368 . S
C510 C509 1.523 . S
C511 C495 1.429 . S
C511 C507 1.429 . S
C511 C512 1.523 . S
C512 C496 1.368 . S
C512 C508 1.368 . S
C512 C511 1.523 . S
H513 C488 0.950 . S
H514 C490 0.950 . S
H515 C491 0.949 . S
H516 C493 0.950 . S
H517 C495 0.950 . S
C518 C519 1.349 . S
C518 C520 1.327 . S
C518 H543 0.950 . S
C519 C518 1.349 . S
C519 C535 1.349 . S
C520 C518 1.327 . S
C520 C539 1.429 . S
C520 H544 0.950 . S
C521 C538 1.574 . S
C521 C540 1.368 . S
C521 H545 0.949 . S
H522 C526 0.949 . S
C523 C524 1.349 . S
C523 C525 1.327 . S
C523 H546 0.950 . S
C524 C523 1.349 . S
C524 C536 1.349 . S
C525 C523 1.327 . S
C525 C541 1.429 . S
C525 H547 0.950 . S
C526 H522 0.949 . S
C526 C534 1.574 . S
C526 C542 1.368 . S
H527 C535 0.950 . S
H528 C533 0.950 . S
H529 C534 0.949 . S
H530 C536 0.950 . S
H531 C537 0.950 . S
H532 C538 0.949 . S
C533 H528 0.950 . S
C533 C535 1.327 . S
C533 C539 1.429 . S
C534 C526 1.574 . S
C534 H529 0.949 . S
C534 C540 1.368 . S
C535 C519 1.349 . S
C535 H527 0.950 . S
C535 C533 1.327 . S
C536 C524 1.349 . S
C536 H530 0.950 . S
C536 C537 1.327 . S
C537 H531 0.950 . S
C537 C536 1.327 . S
C537 C541 1.429 . S
C538 C521 1.574 . S
C538 H532 0.949 . S
C538 C542 1.368 . S
C539 C520 1.429 . S
C539 C533 1.429 . S
C539 C540 1.523 . S
C540 C521 1.368 . S
C540 C534 1.368 . S
C540 C539 1.523 . S
C541 C525 1.429 . S
C541 C537 1.429 . S
C541 C542 1.523 . S
C542 C526 1.368 . S
C542 C538 1.368 . S
C542 C541 1.523 . S
H543 C518 0.950 . S
H544 C520 0.950 . S
H545 C521 0.949 . S
H546 C523 0.950 . S
H547 C525 0.950 . S
C548 C549 1.349 . S
C548 C550 1.327 . S
C548 H573 0.950 . S
C549 C548 1.349 . S
C549 C565 1.349 . S
C550 C548 1.327 . S
C550 C569 1.429 . S
C550 H574 0.950 . S
C551 C568 1.574 . S
C551 C570 1.368 . S
C551 H575 0.949 . S
H552 C556 0.949 . S
C553 C554 1.349 . S
C553 C555 1.327 . S
C553 H576 0.950 . S
C554 C553 1.349 . S
C554 C566 1.349 . S
C555 C553 1.327 . S
C555 C571 1.429 . S
C555 H577 0.950 . S
C556 H552 0.949 . S
C556 C564 1.574 . S
C556 C572 1.368 . S
H557 C565 0.950 . S
H558 C563 0.950 . S
H559 C564 0.949 . S
H560 C566 0.950 . S
H561 C567 0.950 . S
H562 C568 0.949 . S
C563 H558 0.950 . S
C563 C565 1.327 . S
C563 C569 1.429 . S
C564 C556 1.574 . S
C564 H559 0.949 . S
C564 C570 1.368 . S
C565 C549 1.349 . S
C565 H557 0.950 . S
C565 C563 1.327 . S
C566 C554 1.349 . S
C566 H560 0.950 . S
C566 C567 1.327 . S
C567 H561 0.950 . S
C567 C566 1.327 . S
C567 C571 1.429 . S
C568 C551 1.574 . S
C568 H562 0.949 . S
C568 C572 1.368 . S
C569 C550 1.429 . S
C569 C563 1.429 . S
C569 C570 1.523 . S
C570 C551 1.368 . S
C570 C564 1.368 . S
C570 C569 1.523 . S
C571 C555 1.429 . S
C571 C567 1.429 . S
C571 C572 1.523 . S
C572 C556 1.368 . S
C572 C568 1.368 . S
C572 C571 1.523 . S
H573 C548 0.950 . S
H574 C550 0.950 . S
H575 C551 0.949 . S
H576 C553 0.950 . S
H577 C555 0.950 . S
C578 C579 1.349 . S
C578 C580 1.327 . S
C578 H603 0.950 . S
C579 C578 1.349 . S
C579 C595 1.349 . S
C580 C578 1.327 . S
C580 C599 1.429 . S
C580 H604 0.950 . S
C581 C598 1.574 . S
C581 C600 1.368 . S
C581 H605 0.949 . S
H582 C586 0.949 . S
C583 C584 1.349 . S
C583 C585 1.327 . S
C583 H606 0.950 . S
C584 C583 1.349 . S
C584 C596 1.349 . S
C585 C583 1.327 . S
C585 C601 1.429 . S
C585 H607 0.950 . S
C586 H582 0.949 . S
C586 C594 1.574 . S
C586 C602 1.368 . S
H587 C595 0.950 . S
H588 C593 0.950 . S
H589 C594 0.949 . S
H590 C596 0.950 . S
H591 C597 0.950 . S
H592 C598 0.949 . S
C593 H588 0.950 . S
C593 C595 1.327 . S
C593 C599 1.429 . S
C594 C586 1.574 . S
C594 H589 0.949 . S
C594 C600 1.368 . S
C595 C579 1.349 . S
C595 H587 0.950 . S
C595 C593 1.327 . S
C596 C584 1.349 . S
C596 H590 0.950 . S
C596 C597 1.327 . S
C597 H591 0.950 . S
C597 C596 1.327 . S
C597 C601 1.429 . S
C598 C581 1.574 . S
C598 H592 0.949 . S
C598 C602 1.368 . S
C599 C580 1.429 . S
C599 C593 1.429 . S
C599 C600 1.523 . S
C600 C581 1.368 . S
C600 C594 1.368 . S
C600 C599 1.523 . S
C601 C585 1.429 . S
C601 C597 1.429 . S
C601 C602 1.523 . S
C602 C586 1.368 . S
C602 C598 1.368 . S
C602 C601 1.523 . S
H603 C578 0.950 . S
H604 C580 0.950 . S
H605 C581 0.949 . S
H606 C583 0.950 . S
H607 C585 0.950 . S
C608 C609 1.349 . S
C608 C610 1.327 . S
C608 H633 0.950 . S
C609 C608 1.349 . S
C609 C625 1.349 . S
C610 C608 1.327 . S
C610 C629 1.429 . S
C610 H634 0.950 . S
C611 C628 1.574 . S
C611 C630 1.368 . S
C611 H635 0.949 . S
H612 C616 0.949 . S
C613 C614 1.349 1_545 S
C613 C615 1.327 . S
C613 H636 0.950 . S
C614 C613 1.349 1_565 S
C614 C626 1.349 . S
C615 C613 1.327 . S
C615 C631 1.429 . S
C615 H637 0.950 . S
C616 H612 0.949 . S
C616 C624 1.574 . S
C616 C632 1.368 . S
H617 C625 0.950 . S
H618 C623 0.950 . S
H619 C624 0.949 . S
H620 C626 0.950 . S
H621 C627 0.950 . S
H622 C628 0.949 . S
C623 H618 0.950 . S
C623 C625 1.327 . S
C623 C629 1.429 . S
C624 C616 1.574 . S
C624 H619 0.949 . S
C624 C630 1.368 . S
C625 C609 1.349 . S
C625 H617 0.950 . S
C625 C623 1.327 . S
C626 C614 1.349 . S
C626 H620 0.950 . S
C626 C627 1.327 1_565 S
C627 H621 0.950 . S
C627 C626 1.327 1_545 S
C627 C631 1.429 . S
C628 C611 1.574 . S
C628 H622 0.949 . S
C628 C632 1.368 . S
C629 C610 1.429 . S
C629 C623 1.429 . S
C629 C630 1.523 . S
C630 C611 1.368 . S
C630 C624 1.368 . S
C630 C629 1.523 . S
C631 C615 1.429 . S
C631 C627 1.429 . S
C631 C632 1.523 . S
C632 C616 1.368 . S
C632 C628 1.368 . S
C632 C631 1.523 . S
H633 C608 0.950 . S
H634 C610 0.950 . S
H635 C611 0.949 . S
H636 C613 0.950 . S
H637 C615 0.950 . S
C638 C639 1.349 . S
C638 C640 1.327 . S
C638 H663 0.950 . S
C639 C638 1.349 . S
C639 C655 1.349 . S
C640 C638 1.327 . S
C640 C659 1.429 . S
C640 H664 0.950 . S
C641 C658 1.574 . S
C641 C660 1.368 . S
C641 H665 0.949 . S
H642 C646 0.949 . S
C643 C644 1.349 . S
C643 C645 1.327 . S
C643 H666 0.950 . S
C644 C643 1.349 . S
C644 C656 1.349 . S
C645 C643 1.327 . S
C645 C661 1.429 . S
C645 H667 0.950 . S
C646 H642 0.949 . S
C646 C654 1.574 . S
C646 C662 1.368 . S
H647 C655 0.950 . S
H648 C653 0.950 . S
H649 C654 0.949 . S
H650 C656 0.950 . S
H651 C657 0.950 . S
H652 C658 0.949 . S
C653 H648 0.950 . S
C653 C655 1.327 . S
C653 C659 1.429 . S
C654 C646 1.574 . S
C654 H649 0.949 . S
C654 C660 1.368 . S
C655 C639 1.349 . S
C655 H647 0.950 . S
C655 C653 1.327 . S
C656 C644 1.349 . S
C656 H650 0.950 . S
C656 C657 1.327 . S
C657 H651 0.950 . S
C657 C656 1.327 . S
C657 C661 1.429 . S
C658 C641 1.574 . S
C658 H652 0.949 . S
C658 C662 1.368 . S
C659 C640 1.429 . S
C659 C653 1.429 . S
C659 C660 1.523 . S
C660 C641 1.368 . S
C660 C654 1.368 . S
C660 C659 1.523 . S
C661 C645 1.429 . S
C661 C657 1.429 . S
C661 C662 1.523 . S
C662 C646 1.368 . S
C662 C658 1.368 . S
C662 C661 1.523 . S
H663 C638 0.950 . S
H664 C640 0.950 . S
H665 C641 0.949 . S
H666 C643 0.950 . S
H667 C645 0.950 . S
C668 C669 1.349 . S
C668 C670 1.327 . S
C668 H693 0.950 . S
C669 C668 1.349 . S
C669 C685 1.349 . S
C670 C668 1.327 . S
C670 C689 1.429 . S
C670 H694 0.950 . S
C671 C688 1.574 . S
C671 C690 1.368 . S
C671 H695 0.949 . S
H672 C676 0.949 . S
C673 C674 1.349 . S
C673 C675 1.327 . S
C673 H696 0.950 . S
C674 C673 1.349 . S
C674 C686 1.349 . S
C675 C673 1.327 . S
C675 C691 1.429 . S
C675 H697 0.950 . S
C676 H672 0.949 . S
C676 C684 1.574 . S
C676 C692 1.368 . S
H677 C685 0.950 . S
H678 C683 0.950 . S
H679 C684 0.949 . S
H680 C686 0.950 . S
H681 C687 0.950 . S
H682 C688 0.949 . S
C683 H678 0.950 . S
C683 C685 1.327 . S
C683 C689 1.429 . S
C684 C676 1.574 . S
C684 H679 0.949 . S
C684 C690 1.368 . S
C685 C669 1.349 . S
C685 H677 0.950 . S
C685 C683 1.327 . S
C686 C674 1.349 . S
C686 H680 0.950 . S
C686 C687 1.327 . S
C687 H681 0.950 . S
C687 C686 1.327 . S
C687 C691 1.429 . S
C688 C671 1.574 . S
C688 H682 0.949 . S
C688 C692 1.368 . S
C689 C670 1.429 . S
C689 C683 1.429 . S
C689 C690 1.523 . S
C690 C671 1.368 . S
C690 C684 1.368 . S
C690 C689 1.523 . S
C691 C675 1.429 . S
C691 C687 1.429 . S
C691 C692 1.523 . S
C692 C676 1.368 . S
C692 C688 1.368 . S
C692 C691 1.523 . S
H693 C668 0.950 . S
H694 C670 0.950 . S
H695 C671 0.949 . S
H696 C673 0.950 . S
H697 C675 0.950 . S
C698 C699 1.349 . S
C698 C700 1.327 . S
C698 H723 0.950 . S
C699 C698 1.349 . S
C699 C715 1.349 . S
C700 C698 1.327 . S
C700 C719 1.429 . S
C700 H724 0.950 . S
C701 C718 1.574 . S
C701 C720 1.368 . S
C701 H725 0.949 . S
H702 C706 0.949 . S
C703 C704 1.349 1_455 S
C703 C705 1.327 . S
C703 H726 0.950 . S
C704 C703 1.349 1_655 S
C704 C716 1.349 . S
C705 C703 1.327 . S
C705 C721 1.429 . S
C705 H727 0.950 . S
C706 H702 0.949 . S
C706 C714 1.574 . S
C706 C722 1.368 . S
H707 C715 0.950 . S
H708 C713 0.950 . S
H709 C714 0.949 . S
H710 C716 0.950 . S
H711 C717 0.950 . S
H712 C718 0.949 . S
C713 H708 0.950 . S
C713 C715 1.327 . S
C713 C719 1.429 . S
C714 C706 1.574 . S
C714 H709 0.949 . S
C714 C720 1.368 . S
C715 C699 1.349 . S
C715 H707 0.950 . S
C715 C713 1.327 . S
C716 C704 1.349 . S
C716 H710 0.950 . S
C716 C717 1.327 1_655 S
C717 H711 0.950 . S
C717 C716 1.327 1_455 S
C717 C721 1.429 . S
C718 C701 1.574 . S
C718 H712 0.949 . S
C718 C722 1.368 . S
C719 C700 1.429 . S
C719 C713 1.429 . S
C719 C720 1.523 . S
C720 C701 1.368 . S
C720 C714 1.368 . S
C720 C719 1.523 . S
C721 C705 1.429 . S
C721 C717 1.429 . S
C721 C722 1.523 . S
C722 C706 1.368 . S
C722 C718 1.368 . S
C722 C721 1.523 . S
H723 C698 0.950 . S
H724 C700 0.950 . S
H725 C701 0.949 . S
H726 C703 0.950 . S
H727 C705 0.950 . S
C728 C729 1.349 . S
C728 C730 1.327 . S
C728 H753 0.950 . S
C729 C728 1.349 . S
C729 C745 1.349 . S
C730 C728 1.327 . S
C730 C749 1.429 . S
C730 H754 0.950 . S
C731 C748 1.574 . S
C731 C750 1.368 . S
C731 H755 0.949 . S
H732 C736 0.949 . S
C733 C734 1.349 1_565 S
C733 C735 1.327 . S
C733 H756 0.950 . S
C734 C733 1.349 1_545 S
C734 C746 1.349 . S
C735 C733 1.327 . S
C735 C751 1.429 . S
C735 H757 0.950 . S
C736 H732 0.949 . S
C736 C744 1.574 . S
C736 C752 1.368 . S
H737 C745 0.950 . S
H738 C743 0.950 . S
H739 C744 0.949 . S
H740 C746 0.950 . S
H741 C747 0.950 . S
H742 C748 0.949 . S
C743 H738 0.950 . S
C743 C745 1.327 . S
C743 C749 1.429 . S
C744 C736 1.574 . S
C744 H739 0.949 . S
C744 C750 1.368 . S
C745 C729 1.349 . S
C745 H737 0.950 . S
C745 C743 1.327 . S
C746 C734 1.349 . S
C746 H740 0.950 . S
C746 C747 1.327 1_545 S
C747 H741 0.950 . S
C747 C746 1.327 1_565 S
C747 C751 1.429 . S
C748 C731 1.574 . S
C748 H742 0.949 . S
C748 C752 1.368 . S
C749 C730 1.429 . S
C749 C743 1.429 . S
C749 C750 1.523 . S
C750 C731 1.368 . S
C750 C744 1.368 . S
C750 C749 1.523 . S
C751 C735 1.429 . S
C751 C747 1.429 . S
C751 C752 1.523 . S
C752 C736 1.368 . S
C752 C748 1.368 . S
C752 C751 1.523 . S
H753 C728 0.950 . S
H754 C730 0.950 . S
H755 C731 0.949 . S
H756 C733 0.950 . S
H757 C735 0.950 . S
C758 C759 1.349 . S
C758 C760 1.327 . S
C758 H783 0.950 . S
C759 C758 1.349 . S
C759 C775 1.349 . S
C760 C758 1.327 . S
C760 C779 1.429 . S
C760 H784 0.950 . S
C761 C778 1.574 . S
C761 C780 1.368 . S
C761 H785 0.949 . S
H762 C766 0.949 . S
C763 C764 1.349 . S
C763 C765 1.327 . S
C763 H786 0.950 . S
C764 C763 1.349 . S
C764 C776 1.349 . S
C765 C763 1.327 . S
C765 C781 1.429 . S
C765 H787 0.950 . S
C766 H762 0.949 . S
C766 C774 1.574 . S
C766 C782 1.368 . S
H767 C775 0.950 . S
H768 C773 0.950 . S
H769 C774 0.949 . S
H770 C776 0.950 . S
H771 C777 0.950 . S
H772 C778 0.949 . S
C773 H768 0.950 . S
C773 C775 1.327 . S
C773 C779 1.429 . S
C774 C766 1.574 . S
C774 H769 0.949 . S
C774 C780 1.368 . S
C775 C759 1.349 . S
C775 H767 0.950 . S
C775 C773 1.327 . S
C776 C764 1.349 . S
C776 H770 0.950 . S
C776 C777 1.327 . S
C777 H771 0.950 . S
C777 C776 1.327 . S
C777 C781 1.429 . S
C778 C761 1.574 . S
C778 H772 0.949 . S
C778 C782 1.368 . S
C779 C760 1.429 . S
C779 C773 1.429 . S
C779 C780 1.523 . S
C780 C761 1.368 . S
C780 C774 1.368 . S
C780 C779 1.523 . S
C781 C765 1.429 . S
C781 C777 1.429 . S
C781 C782 1.523 . S
C782 C766 1.368 . S
C782 C778 1.368 . S
C782 C781 1.523 . S
H783 C758 0.950 . S
H784 C760 0.950 . S
H785 C761 0.949 . S
H786 C763 0.950 . S
H787 C765 0.950 . S
C788 C789 1.349 . S
C788 C790 1.327 . S
C788 H813 0.950 . S
C789 C788 1.349 . S
C789 C805 1.349 . S
C790 C788 1.327 . S
C790 C809 1.429 . S
C790 H814 0.950 . S
C791 C808 1.574 . S
C791 C810 1.368 . S
C791 H815 0.949 . S
H792 C796 0.949 . S
C793 C794 1.349 . S
C793 C795 1.327 . S
C793 H816 0.950 . S
C794 C793 1.349 . S
C794 C806 1.349 . S
C795 C793 1.327 . S
C795 C811 1.429 . S
C795 H817 0.950 . S
C796 H792 0.949 . S
C796 C804 1.574 . S
C796 C812 1.368 . S
H797 C805 0.950 . S
H798 C803 0.950 . S
H799 C804 0.949 . S
H800 C806 0.950 . S
H801 C807 0.950 . S
H802 C808 0.949 . S
C803 H798 0.950 . S
C803 C805 1.327 . S
C803 C809 1.429 . S
C804 C796 1.574 . S
C804 H799 0.949 . S
C804 C810 1.368 . S
C805 C789 1.349 . S
C805 H797 0.950 . S
C805 C803 1.327 . S
C806 C794 1.349 . S
C806 H800 0.950 . S
C806 C807 1.327 . S
C807 H801 0.950 . S
C807 C806 1.327 . S
C807 C811 1.429 . S
C808 C791 1.574 . S
C808 H802 0.949 . S
C808 C812 1.368 . S
C809 C790 1.429 . S
C809 C803 1.429 . S
C809 C810 1.523 . S
C810 C791 1.368 . S
C810 C804 1.368 . S
C810 C809 1.523 . S
C811 C795 1.429 . S
C811 C807 1.429 . S
C811 C812 1.523 . S
C812 C796 1.368 . S
C812 C808 1.368 . S
C812 C811 1.523 . S
H813 C788 0.950 . S
H814 C790 0.950 . S
H815 C791 0.949 . S
H816 C793 0.950 . S
H817 C795 0.950 . S
C818 C819 1.349 1_655 S
C818 C820 1.327 . S
C818 H843 0.950 . S
C819 C818 1.349 1_455 S
C819 C835 1.349 . S
C820 C818 1.327 . S
C820 C839 1.429 . S
C820 H844 0.950 . S
C821 C838 1.574 . S
C821 C840 1.368 . S
C821 H845 0.949 . S
H822 C826 0.949 . S
C823 C824 1.349 . S
C823 C825 1.327 . S
C823 H846 0.950 . S
C824 C823 1.349 . S
C824 C836 1.349 . S
C825 C823 1.327 . S
C825 C841 1.429 . S
C825 H847 0.950 . S
C826 H822 0.949 . S
C826 C834 1.574 . S
C826 C842 1.368 . S
H827 C835 0.950 . S
H828 C833 0.950 . S
H829 C834 0.949 . S
H830 C836 0.950 . S
H831 C837 0.950 . S
H832 C838 0.949 . S
C833 H828 0.950 . S
C833 C835 1.327 1_655 S
C833 C839 1.429 . S
C834 C826 1.574 . S
C834 H829 0.949 . S
C834 C840 1.368 . S
C835 C819 1.349 . S
C835 H827 0.950 . S
C835 C833 1.327 1_455 S
C836 C824 1.349 . S
C836 H830 0.950 . S
C836 C837 1.327 . S
C837 H831 0.950 . S
C837 C836 1.327 . S
C837 C841 1.429 . S
C838 C821 1.574 . S
C838 H832 0.949 . S
C838 C842 1.368 . S
C839 C820 1.429 . S
C839 C833 1.429 . S
C839 C840 1.523 . S
C840 C821 1.368 . S
C840 C834 1.368 . S
C840 C839 1.523 . S
C841 C825 1.429 . S
C841 C837 1.429 . S
C841 C842 1.523 . S
C842 C826 1.368 . S
C842 C838 1.368 . S
C842 C841 1.523 . S
H843 C818 0.950 . S
H844 C820 0.950 . S
H845 C821 0.949 . S
H846 C823 0.950 . S
H847 C825 0.950 . S
C848 C849 1.349 . S
C848 C850 1.327 1_545 S
C848 H873 0.950 . S
C849 C848 1.349 . S
C849 C865 1.349 1_545 S
C850 C848 1.327 1_565 S
C850 C869 1.429 . S
C850 H874 0.950 1_565 S
C851 C868 1.574 . S
C851 C870 1.368 . S
C851 H875 0.949 . S
H852 C856 0.949 . S
C853 C854 1.349 . S
C853 C855 1.327 . S
C853 H876 0.950 . S
C854 C853 1.349 . S
C854 C866 1.349 . S
C855 C853 1.327 . S
C855 C871 1.429 . S
C855 H877 0.950 . S
C856 H852 0.949 . S
C856 C864 1.574 . S
C856 C872 1.368 . S
H857 C865 0.950 . S
H858 C863 0.950 . S
H859 C864 0.949 . S
H860 C866 0.950 . S
H861 C867 0.950 . S
H862 C868 0.949 . S
C863 H858 0.950 . S
C863 C865 1.327 . S
C863 C869 1.429 . S
C864 C856 1.574 . S
C864 H859 0.949 . S
C864 C870 1.368 . S
C865 C849 1.349 1_565 S
C865 H857 0.950 . S
C865 C863 1.327 . S
C866 C854 1.349 . S
C866 H860 0.950 . S
C866 C867 1.327 . S
C867 H861 0.950 . S
C867 C866 1.327 . S
C867 C871 1.429 . S
C868 C851 1.574 . S
C868 H862 0.949 . S
C868 C872 1.368 . S
C869 C850 1.429 . S
C869 C863 1.429 . S
C869 C870 1.523 . S
C870 C851 1.368 . S
C870 C864 1.368 . S
C870 C869 1.523 . S
C871 C855 1.429 . S
C871 C867 1.429 . S
C871 C872 1.523 . S
C872 C856 1.368 . S
C872 C868 1.368 . S
C872 C871 1.523 . S
H873 C848 0.950 . S
H874 C850 0.950 1_545 S
H875 C851 0.949 . S
H876 C853 0.950 . S
H877 C855 0.950 . S
C878 C879 1.349 . S
C878 C880 1.327 . S
C878 H903 0.950 . S
C879 C878 1.349 . S
C879 C895 1.349 . S
C880 C878 1.327 . S
C880 C899 1.429 . S
C880 H904 0.950 . S
C881 C898 1.574 . S
C881 C900 1.368 . S
C881 H905 0.949 . S
H882 C886 0.949 . S
C883 C884 1.349 . S
C883 C885 1.327 . S
C883 H906 0.950 . S
C884 C883 1.349 . S
C884 C896 1.349 . S
C885 C883 1.327 . S
C885 C901 1.429 . S
C885 H907 0.950 . S
C886 H882 0.949 . S
C886 C894 1.574 . S
C886 C902 1.368 . S
H887 C895 0.950 . S
H888 C893 0.950 . S
H889 C894 0.949 . S
H890 C896 0.950 . S
H891 C897 0.950 . S
H892 C898 0.949 . S
C893 H888 0.950 . S
C893 C895 1.327 . S
C893 C899 1.429 . S
C894 C886 1.574 . S
C894 H889 0.949 . S
C894 C900 1.368 . S
C895 C879 1.349 . S
C895 H887 0.950 . S
C895 C893 1.327 . S
C896 C884 1.349 . S
C896 H890 0.950 . S
C896 C897 1.327 . S
C897 H891 0.950 . S
C897 C896 1.327 . S
C897 C901 1.429 . S
C898 C881 1.574 . S
C898 H892 0.949 . S
C898 C902 1.368 . S
C899 C880 1.429 . S
C899 C893 1.429 . S
C899 C900 1.523 . S
C900 C881 1.368 . S
C900 C894 1.368 . S
C900 C899 1.523 . S
C901 C885 1.429 . S
C901 C897 1.429 . S
C901 C902 1.523 . S
C902 C886 1.368 . S
C902 C898 1.368 . S
C902 C901 1.523 . S
H903 C878 0.950 . S
H904 C880 0.950 . S
H905 C881 0.949 . S
H906 C883 0.950 . S
H907 C885 0.950 . S
C908 C909 1.349 . S
C908 C910 1.327 . S
C908 H933 0.950 . S
C909 C908 1.349 . S
C909 C925 1.349 . S
C910 C908 1.327 . S
C910 C929 1.429 . S
C910 H934 0.950 . S
C911 C928 1.574 . S
C911 C930 1.368 . S
C911 H935 0.949 . S
H912 C916 0.949 . S
C913 C914 1.349 . S
C913 C915 1.327 . S
C913 H936 0.950 . S
C914 C913 1.349 . S
C914 C926 1.349 . S
C915 C913 1.327 . S
C915 C931 1.429 . S
C915 H937 0.950 . S
C916 H912 0.949 . S
C916 C924 1.574 . S
C916 C932 1.368 . S
H917 C925 0.950 . S
H918 C923 0.950 . S
H919 C924 0.949 . S
H920 C926 0.950 . S
H921 C927 0.950 . S
H922 C928 0.949 . S
C923 H918 0.950 . S
C923 C925 1.327 . S
C923 C929 1.429 . S
C924 C916 1.574 . S
C924 H919 0.949 . S
C924 C930 1.368 . S
C925 C909 1.349 . S
C925 H917 0.950 . S
C925 C923 1.327 . S
C926 C914 1.349 . S
C926 H920 0.950 . S
C926 C927 1.327 . S
C927 H921 0.950 . S
C927 C926 1.327 . S
C927 C931 1.429 . S
C928 C911 1.574 . S
C928 H922 0.949 . S
C928 C932 1.368 . S
C929 C910 1.429 . S
C929 C923 1.429 . S
C929 C930 1.523 . S
C930 C911 1.368 . S
C930 C924 1.368 . S
C930 C929 1.523 . S
C931 C915 1.429 . S
C931 C927 1.429 . S
C931 C932 1.523 . S
C932 C916 1.368 . S
C932 C928 1.368 . S
C932 C931 1.523 . S
H933 C908 0.950 . S
H934 C910 0.950 . S
H935 C911 0.949 . S
H936 C913 0.950 . S
H937 C915 0.950 . S
C938 C939 1.349 . S
C938 C940 1.327 . S
C938 H963 0.950 . S
C939 C938 1.349 . S
C939 C955 1.349 . S
C940 C938 1.327 . S
C940 C959 1.429 . S
C940 H964 0.950 . S
C941 C958 1.574 . S
C941 C960 1.368 . S
C941 H965 0.949 . S
H942 C946 0.949 . S
C943 C944 1.349 . S
C943 C945 1.327 1_455 S
C943 H966 0.950 . S
C944 C943 1.349 . S
C944 C956 1.349 1_455 S
C945 C943 1.327 1_655 S
C945 C961 1.429 . S
C945 H967 0.952 . S
C946 H942 0.949 . S
C946 C954 1.574 . S
C946 C962 1.368 . S
H947 C955 0.950 . S
H948 C953 0.950 . S
H949 C954 0.949 . S
H950 C956 0.950 . S
H951 C957 0.950 . S
H952 C958 0.949 . S
C953 H948 0.950 . S
C953 C955 1.327 . S
C953 C959 1.429 . S
C954 C946 1.574 . S
C954 H949 0.949 . S
C954 C960 1.368 . S
C955 C939 1.349 . S
C955 H947 0.950 . S
C955 C953 1.327 . S
C956 C944 1.349 1_655 S
C956 H950 0.950 . S
C956 C957 1.327 . S
C957 H951 0.950 . S
C957 C956 1.327 . S
C957 C961 1.429 . S
C958 C941 1.574 . S
C958 H952 0.949 . S
C958 C962 1.368 . S
C959 C940 1.429 . S
C959 C953 1.429 . S
C959 C960 1.523 . S
C960 C941 1.368 . S
C960 C954 1.368 . S
C960 C959 1.523 . S
C961 C945 1.429 . S
C961 C957 1.429 . S
C961 C962 1.523 . S
C962 C946 1.368 . S
C962 C958 1.368 . S
C962 C961 1.523 . S
H963 C938 0.950 . S
H964 C940 0.950 . S
H965 C941 0.949 . S
H966 C943 0.950 . S
H967 C945 0.952 . S
C968 C969 1.349 . S
C968 C970 1.327 . S
C968 H993 0.950 . S
C969 C968 1.349 . S
C969 C985 1.349 . S
C970 C968 1.327 . S
C970 C989 1.429 . S
C970 H994 0.950 . S
C971 C988 1.574 . S
C971 C990 1.368 . S
C971 H995 0.949 . S
H972 C976 0.949 . S
C973 C974 1.349 . S
C973 C975 1.327 1_565 S
C973 H996 0.950 . S
C974 C973 1.349 . S
C974 C986 1.349 1_565 S
C975 C973 1.327 1_545 S
C975 C991 1.429 . S
C975 H997 0.950 1_545 S
C976 H972 0.949 . S
C976 C984 1.574 . S
C976 C992 1.368 . S
H977 C985 0.950 . S
H978 C983 0.950 . S
H979 C984 0.949 . S
H980 C986 0.950 . S
H981 C987 0.950 . S
H982 C988 0.949 . S
C983 H978 0.950 . S
C983 C985 1.327 . S
C983 C989 1.429 . S
C984 C976 1.574 . S
C984 H979 0.949 . S
C984 C990 1.368 . S
C985 C969 1.349 . S
C985 H977 0.950 . S
C985 C983 1.327 . S
C986 C974 1.349 1_545 S
C986 H980 0.950 . S
C986 C987 1.327 . S
C987 H981 0.950 . S
C987 C986 1.327 . S
C987 C991 1.429 . S
C988 C971 1.574 . S
C988 H982 0.949 . S
C988 C992 1.368 . S
C989 C970 1.429 . S
C989 C983 1.429 . S
C989 C990 1.523 . S
C990 C971 1.368 . S
C990 C984 1.368 . S
C990 C989 1.523 . S
C991 C975 1.429 . S
C991 C987 1.429 . S
C991 C992 1.523 . S
C992 C976 1.368 . S
C992 C988 1.368 . S
C992 C991 1.523 . S
H993 C968 0.950 . S
H994 C970 0.950 . S
H995 C971 0.949 . S
H996 C973 0.950 . S
H997 C975 0.950 1_565 S
C998 C999 1.349 . S
C998 C1000 1.327 . S
C998 H1023 0.950 . S
C999 C998 1.349 . S
C999 C1015 1.349 . S
C1000 C998 1.327 . S
C1000 C1019 1.429 . S
C1000 H1024 0.950 . S
C1001 C1018 1.574 . S
C1001 C1020 1.368 . S
C1001 H1025 0.949 . S
H1002 C1006 0.949 . S
C1003 C1004 1.349 . S
C1003 C1005 1.327 . S
C1003 H1026 0.950 . S
C1004 C1003 1.349 . S
C1004 C1016 1.349 . S
C1005 C1003 1.327 . S
C1005 C1021 1.429 . S
C1005 H1027 0.950 . S
C1006 H1002 0.949 . S
C1006 C1014 1.574 . S
C1006 C1022 1.368 . S
H1007 C1015 0.950 . S
H1008 C1013 0.950 . S
H1009 C1014 0.949 . S
H1010 C1016 0.950 . S
H1011 C1017 0.950 . S
H1012 C1018 0.949 . S
C1013 H1008 0.950 . S
C1013 C1015 1.327 . S
C1013 C1019 1.429 . S
C1014 C1006 1.574 . S
C1014 H1009 0.949 . S
C1014 C1020 1.368 . S
C1015 C999 1.349 . S
C1015 H1007 0.950 . S
C1015 C1013 1.327 . S
C1016 C1004 1.349 . S
C1016 H1010 0.950 . S
C1016 C1017 1.327 . S
C1017 H1011 0.950 . S
C1017 C1016 1.327 . S
C1017 C1021 1.429 . S
C1018 C1001 1.574 . S
C1018 H1012 0.949 . S
C1018 C1022 1.368 . S
C1019 C1000 1.429 . S
C1019 C1013 1.429 . S
C1019 C1020 1.523 . S
C1020 C1001 1.368 . S
C1020 C1014 1.368 . S
C1020 C1019 1.523 . S
C1021 C1005 1.429 . S
C1021 C1017 1.429 . S
C1021 C1022 1.523 . S
C1022 C1006 1.368 . S
C1022 C1018 1.368 . S
C1022 C1021 1.523 . S
H1023 C998 0.950 . S
H1024 C1000 0.950 . S
H1025 C1001 0.949 . S
H1026 C1003 0.950 . S
H1027 C1005 0.950 . S
C1028 C1029 1.349 . S
C1028 C1030 1.327 . S
C1028 H1053 0.950 . S
C1029 C1028 1.349 . S
C1029 C1045 1.349 . S
C1030 C1028 1.327 . S
C1030 C1049 1.429 . S
C1030 H1054 0.950 . S
C1031 C1048 1.574 . S
C1031 C1050 1.368 . S
C1031 H1055 0.949 . S
H1032 C1036 0.949 . S
C1033 C1034 1.349 . S
C1033 C1035 1.327 . S
C1033 H1056 0.950 . S
C1034 C1033 1.349 . S
C1034 C1046 1.349 . S
C1035 C1033 1.327 . S
C1035 C1051 1.429 . S
C1035 H1057 0.950 . S
C1036 H1032 0.949 . S
C1036 C1044 1.574 . S
C1036 C1052 1.368 . S
H1037 C1045 0.950 . S
H1038 C1043 0.950 . S
H1039 C1044 0.949 . S
H1040 C1046 0.950 . S
H1041 C1047 0.950 . S
H1042 C1048 0.949 . S
C1043 H1038 0.950 . S
C1043 C1045 1.327 . S
C1043 C1049 1.429 . S
C1044 C1036 1.574 . S
C1044 H1039 0.949 . S
C1044 C1050 1.368 . S
C1045 C1029 1.349 . S
C1045 H1037 0.950 . S
C1045 C1043 1.327 . S
C1046 C1034 1.349 . S
C1046 H1040 0.950 . S
C1046 C1047 1.327 . S
C1047 H1041 0.950 . S
C1047 C1046 1.327 . S
C1047 C1051 1.429 . S
C1048 C1031 1.574 . S
C1048 H1042 0.949 . S
C1048 C1052 1.368 . S
C1049 C1030 1.429 . S
C1049 C1043 1.429 . S
C1049 C1050 1.523 . S
C1050 C1031 1.368 . S
C1050 C1044 1.368 . S
C1050 C1049 1.523 . S
C1051 C1035 1.429 . S
C1051 C1047 1.429 . S
C1051 C1052 1.523 . S
C1052 C1036 1.368 . S
C1052 C1048 1.368 . S
C1052 C1051 1.523 . S
H1053 C1028 0.950 . S
H1054 C1030 0.950 . S
H1055 C1031 0.949 . S
H1056 C1033 0.950 . S
H1057 C1035 0.950 . S
C1058 C1059 1.349 . S
C1058 C1060 1.327 . S
C1058 H1083 0.950 . S
C1059 C1058 1.349 . S
C1059 C1075 1.349 . S
C1060 C1058 1.327 . S
C1060 C1079 1.429 . S
C1060 H1084 0.950 . S
C1061 C1078 1.574 . S
C1061 C1080 1.368 . S
C1061 H1085 0.949 . S
H1062 C1066 0.949 . S
C1063 C1064 1.349 . S
C1063 C1065 1.327 1_655 S
C1063 H1086 0.950 . S
C1064 C1063 1.349 . S
C1064 C1076 1.349 1_655 S
C1065 C1063 1.327 1_455 S
C1065 C1081 1.429 . S
C1065 H1087 0.950 . S
C1066 H1062 0.949 . S
C1066 C1074 1.574 . S
C1066 C1082 1.368 . S
H1067 C1075 0.950 . S
H1068 C1073 0.950 . S
H1069 C1074 0.949 . S
H1070 C1076 0.950 . S
H1071 C1077 0.950 . S
H1072 C1078 0.949 . S
C1073 H1068 0.950 . S
C1073 C1075 1.327 . S
C1073 C1079 1.429 . S
C1074 C1066 1.574 . S
C1074 H1069 0.949 . S
C1074 C1080 1.368 . S
C1075 C1059 1.349 . S
C1075 H1067 0.950 . S
C1075 C1073 1.327 . S
C1076 C1064 1.349 1_455 S
C1076 H1070 0.950 . S
C1076 C1077 1.327 . S
C1077 H1071 0.950 . S
C1077 C1076 1.327 . S
C1077 C1081 1.429 . S
C1078 C1061 1.574 . S
C1078 H1072 0.949 . S
C1078 C1082 1.368 . S
C1079 C1060 1.429 . S
C1079 C1073 1.429 . S
C1079 C1080 1.523 . S
C1080 C1061 1.368 . S
C1080 C1074 1.368 . S
C1080 C1079 1.523 . S
C1081 C1065 1.429 . S
C1081 C1077 1.429 . S
C1081 C1082 1.523 . S
C1082 C1066 1.368 . S
C1082 C1078 1.368 . S
C1082 C1081 1.523 . S
H1083 C1058 0.950 . S
H1084 C1060 0.950 . S
H1085 C1061 0.949 . S
H1086 C1063 0.950 . S
H1087 C1065 0.950 . S
C1088 C1089 1.349 . S
C1088 C1090 1.327 . S
C1088 H1113 0.950 . S
C1089 C1088 1.349 . S
C1089 C1105 1.349 . S
C1090 C1088 1.327 . S
C1090 C1109 1.429 . S
C1090 H1114 0.950 . S
C1091 C1108 1.574 . S
C1091 C1110 1.368 . S
C1091 H1115 0.949 . S
H1092 C1096 0.949 . S
C1093 C1094 1.349 . S
C1093 C1095 1.327 . S
C1093 H1116 0.950 . S
C1094 C1093 1.349 . S
C1094 C1106 1.349 . S
C1095 C1093 1.327 . S
C1095 C1111 1.429 . S
C1095 H1117 0.950 . S
C1096 H1092 0.949 . S
C1096 C1104 1.574 . S
C1096 C1112 1.368 . S
H1097 C1105 0.950 . S
H1098 C1103 0.950 . S
H1099 C1104 0.949 . S
H1100 C1106 0.950 . S
H1101 C1107 0.950 . S
H1102 C1108 0.949 . S
C1103 H1098 0.950 . S
C1103 C1105 1.327 . S
C1103 C1109 1.429 . S
C1104 C1096 1.574 . S
C1104 H1099 0.949 . S
C1104 C1110 1.368 . S
C1105 C1089 1.349 . S
C1105 H1097 0.950 . S
C1105 C1103 1.327 . S
C1106 C1094 1.349 . S
C1106 H1100 0.950 . S
C1106 C1107 1.327 . S
C1107 H1101 0.950 . S
C1107 C1106 1.327 . S
C1107 C1111 1.429 . S
C1108 C1091 1.574 . S
C1108 H1102 0.949 . S
C1108 C1112 1.368 . S
C1109 C1090 1.429 . S
C1109 C1103 1.429 . S
C1109 C1110 1.523 . S
C1110 C1091 1.368 . S
C1110 C1104 1.368 . S
C1110 C1109 1.523 . S
C1111 C1095 1.429 . S
C1111 C1107 1.429 . S
C1111 C1112 1.523 . S
C1112 C1096 1.368 . S
C1112 C1108 1.368 . S
C1112 C1111 1.523 . S
H1113 C1088 0.950 . S
H1114 C1090 0.950 . S
H1115 C1091 0.949 . S
H1116 C1093 0.950 . S
H1117 C1095 0.950 . S
C1118 C1119 1.349 . S
C1118 C1120 1.327 . S
C1118 H1143 0.950 . S
C1119 C1118 1.349 . S
C1119 C1135 1.349 . S
C1120 C1118 1.327 . S
C1120 C1139 1.429 . S
C1120 H1144 0.950 . S
C1121 C1138 1.574 . S
C1121 C1140 1.368 . S
C1121 H1145 0.949 . S
H1122 C1126 0.949 . S
C1123 C1124 1.349 . S
C1123 C1125 1.327 . S
C1123 H1146 0.950 . S
C1124 C1123 1.349 . S
C1124 C1136 1.349 . S
C1125 C1123 1.327 . S
C1125 C1141 1.429 . S
C1125 H1147 0.950 . S
C1126 H1122 0.949 . S
C1126 C1134 1.574 . S
C1126 C1142 1.368 . S
H1127 C1135 0.950 . S
H1128 C1133 0.950 . S
H1129 C1134 0.949 . S
H1130 C1136 0.950 . S
H1131 C1137 0.950 . S
H1132 C1138 0.949 . S
C1133 H1128 0.950 . S
C1133 C1135 1.327 . S
C1133 C1139 1.429 . S
C1134 C1126 1.574 . S
C1134 H1129 0.949 . S
C1134 C1140 1.368 . S
C1135 C1119 1.349 . S
C1135 H1127 0.950 . S
C1135 C1133 1.327 . S
C1136 C1124 1.349 . S
C1136 H1130 0.950 . S
C1136 C1137 1.327 . S
C1137 H1131 0.950 . S
C1137 C1136 1.327 . S
C1137 C1141 1.429 . S
C1138 C1121 1.574 . S
C1138 H1132 0.949 . S
C1138 C1142 1.368 . S
C1139 C1120 1.429 . S
C1139 C1133 1.429 . S
C1139 C1140 1.523 . S
C1140 C1121 1.368 . S
C1140 C1134 1.368 . S
C1140 C1139 1.523 . S
C1141 C1125 1.429 . S
C1141 C1137 1.429 . S
C1141 C1142 1.523 . S
C1142 C1126 1.368 . S
C1142 C1138 1.368 . S
C1142 C1141 1.523 . S
H1143 C1118 0.950 . S
H1144 C1120 0.950 . S
H1145 C1121 0.949 . S
H1146 C1123 0.950 . S
H1147 C1125 0.950 . S
C1148 C1149 1.349 . S
C1148 C1150 1.327 . S
C1148 H1173 0.950 . S
C1149 C1148 1.349 . S
C1149 C1165 1.349 . S
C1150 C1148 1.327 . S
C1150 C1169 1.429 . S
C1150 H1174 0.950 . S
C1151 C1168 1.574 . S
C1151 C1170 1.368 . S
C1151 H1175 0.949 . S
H1152 C1156 0.949 . S
C1153 C1154 1.349 . S
C1153 C1155 1.327 . S
C1153 H1176 0.950 . S
C1154 C1153 1.349 . S
C1154 C1166 1.349 . S
C1155 C1153 1.327 . S
C1155 C1171 1.429 . S
C1155 H1177 0.950 . S
C1156 H1152 0.949 . S
C1156 C1164 1.574 . S
C1156 C1172 1.368 . S
H1157 C1165 0.950 . S
H1158 C1163 0.950 . S
H1159 C1164 0.949 . S
H1160 C1166 0.950 . S
H1161 C1167 0.950 . S
H1162 C1168 0.949 . S
C1163 H1158 0.950 . S
C1163 C1165 1.327 . S
C1163 C1169 1.429 . S
C1164 C1156 1.574 . S
C1164 H1159 0.949 . S
C1164 C1170 1.368 . S
C1165 C1149 1.349 . S
C1165 H1157 0.950 . S
C1165 C1163 1.327 . S
C1166 C1154 1.349 . S
C1166 H1160 0.950 . S
C1166 C1167 1.327 . S
C1167 H1161 0.950 . S
C1167 C1166 1.327 . S
C1167 C1171 1.429 . S
C1168 C1151 1.574 . S
C1168 H1162 0.949 . S
C1168 C1172 1.368 . S
C1169 C1150 1.429 . S
C1169 C1163 1.429 . S
C1169 C1170 1.523 . S
C1170 C1151 1.368 . S
C1170 C1164 1.368 . S
C1170 C1169 1.523 . S
C1171 C1155 1.429 . S
C1171 C1167 1.429 . S
C1171 C1172 1.523 . S
C1172 C1156 1.368 . S
C1172 C1168 1.368 . S
C1172 C1171 1.523 . S
H1173 C1148 0.950 . S
H1174 C1150 0.950 . S
H1175 C1151 0.949 . S
H1176 C1153 0.950 . S
H1177 C1155 0.950 . S
C1178 C1179 1.349 . S
C1178 C1180 1.327 . S
C1178 H1203 0.950 . S
C1179 C1178 1.349 . S
C1179 C1195 1.349 . S
C1180 C1178 1.327 . S
C1180 C1199 1.429 . S
C1180 H1204 0.950 . S
C1181 C1198 1.574 . S
C1181 C1200 1.368 . S
C1181 H1205 0.949 . S
H1182 C1186 0.949 . S
C1183 C1184 1.349 . S
C1183 C1185 1.327 . S
C1183 H1206 0.950 . S
C1184 C1183 1.349 . S
C1184 C1196 1.349 . S
C1185 C1183 1.327 . S
C1185 C1201 1.429 . S
C1185 H1207 0.950 . S
C1186 H1182 0.949 . S
C1186 C1194 1.574 . S
C1186 C1202 1.368 . S
H1187 C1195 0.950 . S
H1188 C1193 0.950 . S
H1189 C1194 0.949 . S
H1190 C1196 0.950 . S
H1191 C1197 0.950 . S
H1192 C1198 0.949 . S
C1193 H1188 0.950 . S
C1193 C1195 1.327 . S
C1193 C1199 1.429 . S
C1194 C1186 1.574 . S
C1194 H1189 0.949 . S
C1194 C1200 1.368 . S
C1195 C1179 1.349 . S
C1195 H1187 0.950 . S
C1195 C1193 1.327 . S
C1196 C1184 1.349 . S
C1196 H1190 0.950 . S
C1196 C1197 1.327 . S
C1197 H1191 0.950 . S
C1197 C1196 1.327 . S
C1197 C1201 1.429 . S
C1198 C1181 1.574 . S
C1198 H1192 0.949 . S
C1198 C1202 1.368 . S
C1199 C1180 1.429 . S
C1199 C1193 1.429 . S
C1199 C1200 1.523 . S
C1200 C1181 1.368 . S
C1200 C1194 1.368 . S
C1200 C1199 1.523 . S
C1201 C1185 1.429 . S
C1201 C1197 1.429 . S
C1201 C1202 1.523 . S
C1202 C1186 1.368 . S
C1202 C1198 1.368 . S
C1202 C1201 1.523 . S
H1203 C1178 0.950 . S
H1204 C1180 0.950 . S
H1205 C1181 0.949 . S
H1206 C1183 0.950 . S
H1207 C1185 0.950 . S
C1208 C1209 1.349 . S
C1208 C1210 1.327 . S
C1208 H1233 0.950 . S
C1209 C1208 1.349 . S
C1209 C1225 1.349 . S
C1210 C1208 1.327 . S
C1210 C1229 1.429 . S
C1210 H1234 0.950 . S
C1211 C1228 1.574 . S
C1211 C1230 1.368 . S
C1211 H1235 0.949 . S
H1212 C1216 0.949 . S
C1213 C1214 1.349 . S
C1213 C1215 1.327 . S
C1213 H1236 0.950 . S
C1214 C1213 1.349 . S
C1214 C1226 1.349 . S
C1215 C1213 1.327 . S
C1215 C1231 1.429 . S
C1215 H1237 0.950 . S
C1216 H1212 0.949 . S
C1216 C1224 1.574 . S
C1216 C1232 1.368 . S
H1217 C1225 0.950 . S
H1218 C1223 0.950 . S
H1219 C1224 0.949 . S
H1220 C1226 0.950 . S
H1221 C1227 0.950 . S
H1222 C1228 0.949 . S
C1223 H1218 0.950 . S
C1223 C1225 1.327 . S
C1223 C1229 1.429 . S
C1224 C1216 1.574 . S
C1224 H1219 0.949 . S
C1224 C1230 1.368 . S
C1225 C1209 1.349 . S
C1225 H1217 0.950 . S
C1225 C1223 1.327 . S
C1226 C1214 1.349 . S
C1226 H1220 0.950 . S
C1226 C1227 1.327 . S
C1227 H1221 0.950 . S
C1227 C1226 1.327 . S
C1227 C1231 1.429 . S
C1228 C1211 1.574 . S
C1228 H1222 0.949 . S
C1228 C1232 1.368 . S
C1229 C1210 1.429 . S
C1229 C1223 1.429 . S
C1229 C1230 1.523 . S
C1230 C1211 1.368 . S
C1230 C1224 1.368 . S
C1230 C1229 1.523 . S
C1231 C1215 1.429 . S
C1231 C1227 1.429 . S
C1231 C1232 1.523 . S
C1232 C1216 1.368 . S
C1232 C1228 1.368 . S
C1232 C1231 1.523 . S
H1233 C1208 0.950 . S
H1234 C1210 0.950 . S
H1235 C1211 0.949 . S
H1236 C1213 0.950 . S
H1237 C1215 0.950 . S
C1238 C1239 1.349 . S
C1238 C1240 1.327 . S
C1238 H1263 0.950 . S
C1239 C1238 1.349 . S
C1239 C1255 1.349 . S
C1240 C1238 1.327 . S
C1240 C1259 1.429 . S
C1240 H1264 0.950 . S
C1241 C1258 1.574 . S
C1241 C1260 1.368 . S
C1241 H1265 0.949 . S
H1242 C1246 0.949 . S
C1243 C1244 1.349 . S
C1243 C1245 1.327 . S
C1243 H1266 0.950 . S
C1244 C1243 1.349 . S
C1244 C1256 1.349 . S
C1245 C1243 1.327 . S
C1245 C1261 1.429 . S
C1245 H1267 0.950 . S
C1246 H1242 0.949 . S
C1246 C1254 1.574 . S
C1246 C1262 1.368 . S
H1247 C1255 0.950 . S
H1248 C1253 0.950 . S
H1249 C1254 0.949 . S
H1250 C1256 0.950 . S
H1251 C1257 0.950 . S
H1252 C1258 0.949 . S
C1253 H1248 0.950 . S
C1253 C1255 1.327 . S
C1253 C1259 1.429 . S
C1254 C1246 1.574 . S
C1254 H1249 0.949 . S
C1254 C1260 1.368 . S
C1255 C1239 1.349 . S
C1255 H1247 0.950 . S
C1255 C1253 1.327 . S
C1256 C1244 1.349 . S
C1256 H1250 0.950 . S
C1256 C1257 1.327 . S
C1257 H1251 0.950 . S
C1257 C1256 1.327 . S
C1257 C1261 1.429 . S
C1258 C1241 1.574 . S
C1258 H1252 0.949 . S
C1258 C1262 1.368 . S
C1259 C1240 1.429 . S
C1259 C1253 1.429 . S
C1259 C1260 1.523 . S
C1260 C1241 1.368 . S
C1260 C1254 1.368 . S
C1260 C1259 1.523 . S
C1261 C1245 1.429 . S
C1261 C1257 1.429 . S
C1261 C1262 1.523 . S
C1262 C1246 1.368 . S
C1262 C1258 1.368 . S
C1262 C1261 1.523 . S
H1263 C1238 0.950 . S
H1264 C1240 0.950 . S
H1265 C1241 0.949 . S
H1266 C1243 0.950 . S
H1267 C1245 0.950 . S
C1268 C1269 1.349 . S
C1268 C1270 1.327 . S
C1268 H1293 0.950 . S
C1269 C1268 1.349 . S
C1269 C1285 1.349 . S
C1270 C1268 1.327 . S
C1270 C1289 1.429 . S
C1270 H1294 0.950 . S
C1271 C1288 1.574 . S
C1271 C1290 1.368 . S
C1271 H1295 0.949 . S
H1272 C1276 0.949 . S
C1273 C1274 1.349 . S
C1273 C1275 1.327 . S
C1273 H1296 0.950 . S
C1274 C1273 1.349 . S
C1274 C1286 1.349 . S
C1275 C1273 1.327 . S
C1275 C1291 1.429 . S
C1275 H1297 0.950 . S
C1276 H1272 0.949 . S
C1276 C1284 1.574 . S
C1276 C1292 1.368 . S
H1277 C1285 0.950 . S
H1278 C1283 0.950 . S
H1279 C1284 0.949 . S
H1280 C1286 0.950 . S
H1281 C1287 0.950 . S
H1282 C1288 0.949 . S
C1283 H1278 0.950 . S
C1283 C1285 1.327 . S
C1283 C1289 1.429 . S
C1284 C1276 1.574 . S
C1284 H1279 0.949 . S
C1284 C1290 1.368 . S
C1285 C1269 1.349 . S
C1285 H1277 0.950 . S
C1285 C1283 1.327 . S
C1286 C1274 1.349 . S
C1286 H1280 0.950 . S
C1286 C1287 1.327 . S
C1287 H1281 0.950 . S
C1287 C1286 1.327 . S
C1287 C1291 1.429 . S
C1288 C1271 1.574 . S
C1288 H1282 0.949 . S
C1288 C1292 1.368 . S
C1289 C1270 1.429 . S
C1289 C1283 1.429 . S
C1289 C1290 1.523 . S
C1290 C1271 1.368 . S
C1290 C1284 1.368 . S
C1290 C1289 1.523 . S
C1291 C1275 1.429 . S
C1291 C1287 1.429 . S
C1291 C1292 1.523 . S
C1292 C1276 1.368 . S
C1292 C1288 1.368 . S
C1292 C1291 1.523 . S
H1293 C1268 0.950 . S
H1294 C1270 0.950 . S
H1295 C1271 0.949 . S
H1296 C1273 0.950 . S
H1297 C1275 0.950 . S
C1298 C1299 1.349 . S
C1298 C1300 1.327 . S
C1298 H1323 0.950 . S
C1299 C1298 1.349 . S
C1299 C1315 1.349 . S
C1300 C1298 1.327 . S
C1300 C1319 1.429 . S
C1300 H1324 0.950 . S
C1301 C1318 1.574 . S
C1301 C1320 1.368 . S
C1301 H1325 0.949 . S
H1302 C1306 0.949 . S
C1303 C1304 1.349 . S
C1303 C1305 1.327 . S
C1303 H1326 0.950 . S
C1304 C1303 1.349 . S
C1304 C1316 1.349 . S
C1305 C1303 1.327 . S
C1305 C1321 1.429 . S
C1305 H1327 0.950 . S
C1306 H1302 0.949 . S
C1306 C1314 1.574 . S
C1306 C1322 1.368 . S
H1307 C1315 0.950 . S
H1308 C1313 0.950 . S
H1309 C1314 0.949 . S
H1310 C1316 0.950 . S
H1311 C1317 0.950 . S
H1312 C1318 0.949 . S
C1313 H1308 0.950 . S
C1313 C1315 1.327 . S
C1313 C1319 1.429 . S
C1314 C1306 1.574 . S
C1314 H1309 0.949 . S
C1314 C1320 1.368 . S
C1315 C1299 1.349 . S
C1315 H1307 0.950 . S
C1315 C1313 1.327 . S
C1316 C1304 1.349 . S
C1316 H1310 0.950 . S
C1316 C1317 1.327 . S
C1317 H1311 0.950 . S
C1317 C1316 1.327 . S
C1317 C1321 1.429 . S
C1318 C1301 1.574 . S
C1318 H1312 0.949 . S
C1318 C1322 1.368 . S
C1319 C1300 1.429 . S
C1319 C1313 1.429 . S
C1319 C1320 1.523 . S
C1320 C1301 1.368 . S
C1320 C1314 1.368 . S
C1320 C1319 1.523 . S
C1321 C1305 1.429 . S
C1321 C1317 1.429 . S
C1321 C1322 1.523 . S
C1322 C1306 1.368 . S
C1322 C1318 1.368 . S
C1322 C1321 1.523 . S
H1323 C1298 0.950 . S
H1324 C1300 0.950 . S
H1325 C1301 0.949 . S
H1326 C1303 0.950 . S
H1327 C1305 0.950 . S
C1328 C1329 1.349 . S
C1328 C1330 1.327 . S
C1328 H1353 0.950 . S
C1329 C1328 1.349 . S
C1329 C1345 1.349 . S
C1330 C1328 1.327 . S
C1330 C1349 1.429 . S
C1330 H1354 0.950 . S
C1331 C1348 1.574 . S
C1331 C1350 1.368 . S
C1331 H1355 0.949 . S
H1332 C1336 0.949 . S
C1333 C1334 1.349 . S
C1333 C1335 1.327 . S
C1333 H1356 0.950 . S
C1334 C1333 1.349 . S
C1334 C1346 1.349 . S
C1335 C1333 1.327 . S
C1335 C1351 1.429 . S
C1335 H1357 0.950 . S
C1336 H1332 0.949 . S
C1336 C1344 1.574 . S
C1336 C1352 1.368 . S
H1337 C1345 0.950 . S
H1338 C1343 0.950 . S
H1339 C1344 0.949 . S
H1340 C1346 0.950 . S
H1341 C1347 0.950 . S
H1342 C1348 0.949 . S
C1343 H1338 0.950 . S
C1343 C1345 1.327 . S
C1343 C1349 1.429 . S
C1344 C1336 1.574 . S
C1344 H1339 0.949 . S
C1344 C1350 1.368 . S
C1345 C1329 1.349 . S
C1345 H1337 0.950 . S
C1345 C1343 1.327 . S
C1346 C1334 1.349 . S
C1346 H1340 0.950 . S
C1346 C1347 1.327 . S
C1347 H1341 0.950 . S
C1347 C1346 1.327 . S
C1347 C1351 1.429 . S
C1348 C1331 1.574 . S
C1348 H1342 0.949 . S
C1348 C1352 1.368 . S
C1349 C1330 1.429 . S
C1349 C1343 1.429 . S
C1349 C1350 1.523 . S
C1350 C1331 1.368 . S
C1350 C1344 1.368 . S
C1350 C1349 1.523 . S
C1351 C1335 1.429 . S
C1351 C1347 1.429 . S
C1351 C1352 1.523 . S
C1352 C1336 1.368 . S
C1352 C1348 1.368 . S
C1352 C1351 1.523 . S
H1353 C1328 0.950 . S
H1354 C1330 0.950 . S
H1355 C1331 0.949 . S
H1356 C1333 0.950 . S
H1357 C1335 0.950 . S
C1358 C1359 1.349 . S
C1358 C1360 1.327 . S
C1358 H1383 0.950 . S
C1359 C1358 1.349 . S
C1359 C1375 1.349 . S
C1360 C1358 1.327 . S
C1360 C1379 1.429 . S
C1360 H1384 0.950 . S
C1361 C1378 1.574 . S
C1361 C1380 1.368 . S
C1361 H1385 0.949 . S
H1362 C1366 0.949 . S
C1363 C1364 1.349 . S
C1363 C1365 1.327 . S
C1363 H1386 0.950 . S
C1364 C1363 1.349 . S
C1364 C1376 1.349 . S
C1365 C1363 1.327 . S
C1365 C1381 1.429 . S
C1365 H1387 0.950 . S
C1366 H1362 0.949 . S
C1366 C1374 1.574 . S
C1366 C1382 1.368 . S
H1367 C1375 0.950 . S
H1368 C1373 0.950 . S
H1369 C1374 0.949 . S
H1370 C1376 0.950 . S
H1371 C1377 0.950 . S
H1372 C1378 0.949 . S
C1373 H1368 0.950 . S
C1373 C1375 1.327 . S
C1373 C1379 1.429 . S
C1374 C1366 1.574 . S
C1374 H1369 0.949 . S
C1374 C1380 1.368 . S
C1375 C1359 1.349 . S
C1375 H1367 0.950 . S
C1375 C1373 1.327 . S
C1376 C1364 1.349 . S
C1376 H1370 0.950 . S
C1376 C1377 1.327 . S
C1377 H1371 0.950 . S
C1377 C1376 1.327 . S
C1377 C1381 1.429 . S
C1378 C1361 1.574 . S
C1378 H1372 0.949 . S
C1378 C1382 1.368 . S
C1379 C1360 1.429 . S
C1379 C1373 1.429 . S
C1379 C1380 1.523 . S
C1380 C1361 1.368 . S
C1380 C1374 1.368 . S
C1380 C1379 1.523 . S
C1381 C1365 1.429 . S
C1381 C1377 1.429 . S
C1381 C1382 1.523 . S
C1382 C1366 1.368 . S
C1382 C1378 1.368 . S
C1382 C1381 1.523 . S
H1383 C1358 0.950 . S
H1384 C1360 0.950 . S
H1385 C1361 0.949 . S
H1386 C1363 0.950 . S
H1387 C1365 0.950 . S
C1388 C1389 1.349 . S
C1388 C1390 1.327 . S
C1388 H1413 0.950 . S
C1389 C1388 1.349 . S
C1389 C1405 1.349 . S
C1390 C1388 1.327 . S
C1390 C1409 1.429 . S
C1390 H1414 0.950 . S
C1391 C1408 1.574 . S
C1391 C1410 1.368 . S
C1391 H1415 0.949 . S
H1392 C1396 0.949 . S
C1393 C1394 1.349 . S
C1393 C1395 1.327 . S
C1393 H1416 0.950 . S
C1394 C1393 1.349 . S
C1394 C1406 1.349 . S
C1395 C1393 1.327 . S
C1395 C1411 1.429 . S
C1395 H1417 0.950 . S
C1396 H1392 0.949 . S
C1396 C1404 1.574 . S
C1396 C1412 1.368 . S
H1397 C1405 0.950 . S
H1398 C1403 0.950 . S
H1399 C1404 0.949 . S
H1400 C1406 0.950 . S
H1401 C1407 0.950 . S
H1402 C1408 0.949 . S
C1403 H1398 0.950 . S
C1403 C1405 1.327 . S
C1403 C1409 1.429 . S
C1404 C1396 1.574 . S
C1404 H1399 0.949 . S
C1404 C1410 1.368 . S
C1405 C1389 1.349 . S
C1405 H1397 0.950 . S
C1405 C1403 1.327 . S
C1406 C1394 1.349 . S
C1406 H1400 0.950 . S
C1406 C1407 1.327 . S
C1407 H1401 0.950 . S
C1407 C1406 1.327 . S
C1407 C1411 1.429 . S
C1408 C1391 1.574 . S
C1408 H1402 0.949 . S
C1408 C1412 1.368 . S
C1409 C1390 1.429 . S
C1409 C1403 1.429 . S
C1409 C1410 1.523 . S
C1410 C1391 1.368 . S
C1410 C1404 1.368 . S
C1410 C1409 1.523 . S
C1411 C1395 1.429 . S
C1411 C1407 1.429 . S
C1411 C1412 1.523 . S
C1412 C1396 1.368 . S
C1412 C1408 1.368 . S
C1412 C1411 1.523 . S
H1413 C1388 0.950 . S
H1414 C1390 0.950 . S
H1415 C1391 0.949 . S
H1416 C1393 0.950 . S
H1417 C1395 0.950 . S
C1418 C1419 1.349 . S
C1418 C1420 1.327 . S
C1418 H1443 0.950 . S
C1419 C1418 1.349 . S
C1419 C1435 1.349 . S
C1420 C1418 1.327 . S
C1420 C1439 1.429 . S
C1420 H1444 0.950 . S
C1421 C1438 1.574 . S
C1421 C1440 1.368 . S
C1421 H1445 0.949 . S
H1422 C1426 0.949 . S
C1423 C1424 1.349 . S
C1423 C1425 1.327 . S
C1423 H1446 0.950 . S
C1424 C1423 1.349 . S
C1424 C1436 1.349 . S
C1425 C1423 1.327 . S
C1425 C1441 1.429 . S
C1425 H1447 0.950 . S
C1426 H1422 0.949 . S
C1426 C1434 1.574 . S
C1426 C1442 1.368 . S
H1427 C1435 0.950 . S
H1428 C1433 0.950 . S
H1429 C1434 0.949 . S
H1430 C1436 0.950 . S
H1431 C1437 0.950 . S
H1432 C1438 0.949 . S
C1433 H1428 0.950 . S
C1433 C1435 1.327 . S
C1433 C1439 1.429 . S
C1434 C1426 1.574 . S
C1434 H1429 0.949 . S
C1434 C1440 1.368 . S
C1435 C1419 1.349 . S
C1435 H1427 0.950 . S
C1435 C1433 1.327 . S
C1436 C1424 1.349 . S
C1436 H1430 0.950 . S
C1436 C1437 1.327 . S
C1437 H1431 0.950 . S
C1437 C1436 1.327 . S
C1437 C1441 1.429 . S
C1438 C1421 1.574 . S
C1438 H1432 0.949 . S
C1438 C1442 1.368 . S
C1439 C1420 1.429 . S
C1439 C1433 1.429 . S
C1439 C1440 1.523 . S
C1440 C1421 1.368 . S
C1440 C1434 1.368 . S
C1440 C1439 1.523 . S
C1441 C1425 1.429 . S
C1441 C1437 1.429 . S
C1441 C1442 1.523 . S
C1442 C1426 1.368 . S
C1442 C1438 1.368 . S
C1442 C1441 1.523 . S
H1443 C1418 0.950 . S
H1444 C1420 0.950 . S
H1445 C1421 0.949 . S
H1446 C1423 0.950 . S
H1447 C1425 0.950 . S
C1448 C1449 1.349 . S
C1448 C1450 1.327 . S
C1448 H1473 0.950 . S
C1449 C1448 1.349 . S
C1449 C1465 1.349 . S
C1450 C1448 1.327 . S
C1450 C1469 1.429 . S
C1450 H1474 0.950 . S
C1451 C1468 1.574 . S
C1451 C1470 1.368 1_554 S
C1451 H1475 0.949 . S
H1452 C1456 0.949 . S
C1453 C1454 1.349 . S
C1453 C1455 1.327 . S
C1453 H1476 0.950 . S
C1454 C1453 1.349 . S
C1454 C1466 1.349 . S
C1455 C1453 1.327 . S
C1455 C1471 1.429 . S
C1455 H1477 0.950 . S
C1456 H1452 0.949 . S
C1456 C1464 1.574 1_554 S
C1456 C1472 1.368 . S
H1457 C1465 0.950 . S
H1458 C1463 0.950 . S
H1459 C1464 0.949 . S
H1460 C1466 0.950 . S
H1461 C1467 0.950 . S
H1462 C1468 0.949 . S
C1463 H1458 0.950 . S
C1463 C1465 1.327 . S
C1463 C1469 1.429 . S
C1464 C1456 1.574 1_556 S
C1464 H1459 0.949 . S
C1464 C1470 1.368 . S
C1465 C1449 1.349 . S
C1465 H1457 0.950 . S
C1465 C1463 1.327 . S
C1466 C1454 1.349 . S
C1466 H1460 0.950 . S
C1466 C1467 1.327 . S
C1467 H1461 0.950 . S
C1467 C1466 1.327 . S
C1467 C1471 1.429 . S
C1468 C1451 1.574 . S
C1468 H1462 0.949 . S
C1468 C1472 1.368 . S
C1469 C1450 1.429 . S
C1469 C1463 1.429 . S
C1469 C1470 1.523 . S
C1470 C1451 1.368 1_556 S
C1470 C1464 1.368 . S
C1470 C1469 1.523 . S
C1471 C1455 1.429 . S
C1471 C1467 1.429 . S
C1471 C1472 1.523 . S
C1472 C1456 1.368 . S
C1472 C1468 1.368 . S
C1472 C1471 1.523 . S
H1473 C1448 0.950 . S
H1474 C1450 0.950 . S
H1475 C1451 0.949 . S
H1476 C1453 0.950 . S
H1477 C1455 0.950 . S
C1478 C1479 1.349 . S
C1478 C1480 1.327 . S
C1478 H1503 0.950 . S
C1479 C1478 1.349 . S
C1479 C1495 1.349 . S
C1480 C1478 1.327 . S
C1480 C1499 1.429 . S
C1480 H1504 0.950 . S
C1481 C1498 1.574 . S
C1481 C1500 1.368 . S
C1481 H1505 0.949 . S
H1482 C1486 0.949 . S
C1483 C1484 1.349 . S
C1483 C1485 1.327 . S
C1483 H1506 0.950 . S
C1484 C1483 1.349 . S
C1484 C1496 1.349 . S
C1485 C1483 1.327 . S
C1485 C1501 1.429 . S
C1485 H1507 0.950 . S
C1486 H1482 0.949 . S
C1486 C1494 1.574 1_556 S
C1486 C1502 1.368 . S
H1487 C1495 0.950 . S
H1488 C1493 0.950 . S
H1489 C1494 0.949 . S
H1490 C1496 0.950 . S
H1491 C1497 0.950 . S
H1492 C1498 0.949 . S
C1493 H1488 0.950 . S
C1493 C1495 1.327 . S
C1493 C1499 1.429 . S
C1494 C1486 1.574 1_554 S
C1494 H1489 0.949 . S
C1494 C1500 1.368 . S
C1495 C1479 1.349 . S
C1495 H1487 0.950 . S
C1495 C1493 1.327 . S
C1496 C1484 1.349 . S
C1496 H1490 0.950 . S
C1496 C1497 1.327 . S
C1497 H1491 0.950 . S
C1497 C1496 1.327 . S
C1497 C1501 1.429 . S
C1498 C1481 1.574 . S
C1498 H1492 0.949 . S
C1498 C1502 1.368 1_554 S
C1499 C1480 1.429 . S
C1499 C1493 1.429 . S
C1499 C1500 1.523 . S
C1500 C1481 1.368 . S
C1500 C1494 1.368 . S
C1500 C1499 1.523 . S
C1501 C1485 1.429 . S
C1501 C1497 1.429 . S
C1501 C1502 1.523 . S
C1502 C1486 1.368 . S
C1502 C1498 1.368 1_556 S
C1502 C1501 1.523 . S
H1503 C1478 0.950 . S
H1504 C1480 0.950 . S
H1505 C1481 0.949 . S
H1506 C1483 0.950 . S
H1507 C1485 0.950 . S
C1508 C1509 1.349 . S
C1508 C1510 1.327 . S
C1508 H1533 0.950 . S
C1509 C1508 1.349 . S
C1509 C1525 1.349 . S
C1510 C1508 1.327 . S
C1510 C1529 1.429 . S
C1510 H1534 0.950 . S
C1511 C1528 1.574 1_556 S
C1511 C1530 1.368 . S
C1511 H1535 0.949 . S
H1512 C1516 0.949 . S
C1513 C1514 1.349 . S
C1513 C1515 1.327 . S
C1513 H1536 0.950 . S
C1514 C1513 1.349 . S
C1514 C1526 1.349 . S
C1515 C1513 1.327 . S
C1515 C1531 1.429 . S
C1515 H1537 0.950 . S
C1516 H1512 0.949 . S
C1516 C1524 1.574 . S
C1516 C1532 1.368 . S
H1517 C1525 0.950 . S
H1518 C1523 0.950 . S
H1519 C1524 0.949 . S
H1520 C1526 0.950 . S
H1521 C1527 0.950 . S
H1522 C1528 0.949 . S
C1523 H1518 0.950 . S
C1523 C1525 1.327 . S
C1523 C1529 1.429 . S
C1524 C1516 1.574 . S
C1524 H1519 0.949 . S
C1524 C1530 1.368 1_554 S
C1525 C1509 1.349 . S
C1525 H1517 0.950 . S
C1525 C1523 1.327 . S
C1526 C1514 1.349 . S
C1526 H1520 0.950 . S
C1526 C1527 1.327 . S
C1527 H1521 0.950 . S
C1527 C1526 1.327 . S
C1527 C1531 1.429 . S
C1528 C1511 1.574 1_554 S
C1528 H1522 0.949 . S
C1528 C1532 1.368 . S
C1529 C1510 1.429 . S
C1529 C1523 1.429 . S
C1529 C1530 1.523 . S
C1530 C1511 1.368 . S
C1530 C1524 1.368 1_556 S
C1530 C1529 1.523 . S
C1531 C1515 1.429 . S
C1531 C1527 1.429 . S
C1531 C1532 1.523 . S
C1532 C1516 1.368 . S
C1532 C1528 1.368 . S
C1532 C1531 1.523 . S
H1533 C1508 0.950 . S
H1534 C1510 0.950 . S
H1535 C1511 0.949 . S
H1536 C1513 0.950 . S
H1537 C1515 0.950 . S
C1538 C1539 1.349 . S
C1538 C1540 1.327 . S
C1538 H1563 0.950 . S
C1539 C1538 1.349 . S
C1539 C1555 1.349 . S
C1540 C1538 1.327 . S
C1540 C1559 1.429 . S
C1540 H1564 0.950 . S
C1541 C1558 1.574 . S
C1541 C1560 1.368 . S
C1541 H1565 0.949 . S
H1542 C1546 0.949 . S
C1543 C1544 1.349 . S
C1543 C1545 1.327 . S
C1543 H1566 0.950 . S
C1544 C1543 1.349 . S
C1544 C1556 1.349 . S
C1545 C1543 1.327 . S
C1545 C1561 1.429 . S
C1545 H1567 0.950 . S
C1546 H1542 0.949 . S
C1546 C1554 1.574 1_556 S
C1546 C1562 1.368 . S
H1547 C1555 0.950 . S
H1548 C1553 0.950 . S
H1549 C1554 0.949 . S
H1550 C1556 0.950 . S
H1551 C1557 0.950 . S
H1552 C1558 0.949 . S
C1553 H1548 0.950 . S
C1553 C1555 1.327 . S
C1553 C1559 1.429 . S
C1554 C1546 1.574 1_554 S
C1554 H1549 0.949 . S
C1554 C1560 1.368 . S
C1555 C1539 1.349 . S
C1555 H1547 0.950 . S
C1555 C1553 1.327 . S
C1556 C1544 1.349 . S
C1556 H1550 0.950 . S
C1556 C1557 1.327 . S
C1557 H1551 0.950 . S
C1557 C1556 1.327 . S
C1557 C1561 1.429 . S
C1558 C1541 1.574 . S
C1558 H1552 0.949 . S
C1558 C1562 1.368 1_554 S
C1559 C1540 1.429 . S
C1559 C1553 1.429 . S
C1559 C1560 1.523 . S
C1560 C1541 1.368 . S
C1560 C1554 1.368 . S
C1560 C1559 1.523 . S
C1561 C1545 1.429 . S
C1561 C1557 1.429 . S
C1561 C1562 1.523 . S
C1562 C1546 1.368 . S
C1562 C1558 1.368 1_556 S
C1562 C1561 1.523 . S
H1563 C1538 0.950 . S
H1564 C1540 0.950 . S
H1565 C1541 0.949 . S
H1566 C1543 0.950 . S
H1567 C1545 0.950 . S
C1568 C1569 1.349 . S
C1568 C1570 1.327 . S
C1568 H1593 0.950 . S
C1569 C1568 1.349 . S
C1569 C1585 1.349 . S
C1570 C1568 1.327 . S
C1570 C1589 1.429 . S
C1570 H1594 0.950 . S
C1571 C1588 1.574 . S
C1571 C1590 1.368 . S
C1571 H1595 0.949 . S
H1572 C1576 0.949 . S
C1573 C1574 1.349 . S
C1573 C1575 1.327 . S
C1573 H1596 0.950 . S
C1574 C1573 1.349 . S
C1574 C1586 1.349 . S
C1575 C1573 1.327 . S
C1575 C1591 1.429 . S
C1575 H1597 0.950 . S
C1576 H1572 0.949 . S
C1576 C1584 1.574 . S
C1576 C1592 1.368 . S
H1577 C1585 0.950 . S
H1578 C1583 0.950 . S
H1579 C1584 0.949 . S
H1580 C1586 0.950 . S
H1581 C1587 0.950 . S
H1582 C1588 0.949 . S
C1583 H1578 0.950 . S
C1583 C1585 1.327 . S
C1583 C1589 1.429 . S
C1584 C1576 1.574 . S
C1584 H1579 0.949 . S
C1584 C1590 1.368 . S
C1585 C1569 1.349 . S
C1585 H1577 0.950 . S
C1585 C1583 1.327 . S
C1586 C1574 1.349 . S
C1586 H1580 0.950 . S
C1586 C1587 1.327 . S
C1587 H1581 0.950 . S
C1587 C1586 1.327 . S
C1587 C1591 1.429 . S
C1588 C1571 1.574 . S
C1588 H1582 0.949 . S
C1588 C1592 1.368 . S
C1589 C1570 1.429 . S
C1589 C1583 1.429 . S
C1589 C1590 1.523 . S
C1590 C1571 1.368 . S
C1590 C1584 1.368 . S
C1590 C1589 1.523 . S
C1591 C1575 1.429 . S
C1591 C1587 1.429 . S
C1591 C1592 1.523 . S
C1592 C1576 1.368 . S
C1592 C1588 1.368 . S
C1592 C1591 1.523 . S
H1593 C1568 0.950 . S
H1594 C1570 0.950 . S
H1595 C1571 0.949 . S
H1596 C1573 0.950 . S
H1597 C1575 0.950 . S
C1598 C1599 1.349 . S
C1598 C1600 1.327 . S
C1598 H1623 0.950 . S
C1599 C1598 1.349 . S
C1599 C1615 1.349 . S
C1600 C1598 1.327 . S
C1600 C1619 1.429 . S
C1600 H1624 0.950 . S
C1601 C1618 1.574 . S
C1601 C1620 1.368 . S
C1601 H1625 0.949 . S
H1602 C1606 0.949 . S
C1603 C1604 1.349 . S
C1603 C1605 1.327 . S
C1603 H1626 0.950 . S
C1604 C1603 1.349 . S
C1604 C1616 1.349 . S
C1605 C1603 1.327 . S
C1605 C1621 1.429 . S
C1605 H1627 0.950 . S
C1606 H1602 0.949 . S
C1606 C1614 1.574 . S
C1606 C1622 1.368 . S
H1607 C1615 0.950 . S
H1608 C1613 0.950 . S
H1609 C1614 0.949 . S
H1610 C1616 0.950 . S
H1611 C1617 0.950 . S
H1612 C1618 0.949 . S
C1613 H1608 0.950 . S
C1613 C1615 1.327 . S
C1613 C1619 1.429 . S
C1614 C1606 1.574 . S
C1614 H1609 0.949 . S
C1614 C1620 1.368 . S
C1615 C1599 1.349 . S
C1615 H1607 0.950 . S
C1615 C1613 1.327 . S
C1616 C1604 1.349 . S
C1616 H1610 0.950 . S
C1616 C1617 1.327 . S
C1617 H1611 0.950 . S
C1617 C1616 1.327 . S
C1617 C1621 1.429 . S
C1618 C1601 1.574 . S
C1618 H1612 0.949 . S
C1618 C1622 1.368 . S
C1619 C1600 1.429 . S
C1619 C1613 1.429 . S
C1619 C1620 1.523 . S
C1620 C1601 1.368 . S
C1620 C1614 1.368 . S
C1620 C1619 1.523 . S
C1621 C1605 1.429 . S
C1621 C1617 1.429 . S
C1621 C1622 1.523 . S
C1622 C1606 1.368 . S
C1622 C1618 1.368 . S
C1622 C1621 1.523 . S
H1623 C1598 0.950 . S
H1624 C1600 0.950 . S
H1625 C1601 0.949 . S
H1626 C1603 0.950 . S
H1627 C1605 0.950 . S
C1628 C1629 1.349 . S
C1628 C1630 1.327 . S
C1628 H1653 0.950 . S
C1629 C1628 1.349 . S
C1629 C1645 1.349 . S
C1630 C1628 1.327 . S
C1630 C1649 1.429 . S
C1630 H1654 0.950 . S
C1631 C1648 1.574 . S
C1631 C1650 1.368 . S
C1631 H1655 0.949 . S
H1632 C1636 0.949 . S
C1633 C1634 1.349 . S
C1633 C1635 1.327 . S
C1633 H1656 0.950 . S
C1634 C1633 1.349 . S
C1634 C1646 1.349 . S
C1635 C1633 1.327 . S
C1635 C1651 1.429 . S
C1635 H1657 0.950 . S
C1636 H1632 0.949 . S
C1636 C1644 1.574 . S
C1636 C1652 1.368 . S
H1637 C1645 0.950 . S
H1638 C1643 0.950 . S
H1639 C1644 0.949 . S
H1640 C1646 0.950 . S
H1641 C1647 0.950 . S
H1642 C1648 0.949 . S
C1643 H1638 0.950 . S
C1643 C1645 1.327 . S
C1643 C1649 1.429 . S
C1644 C1636 1.574 . S
C1644 H1639 0.949 . S
C1644 C1650 1.368 . S
C1645 C1629 1.349 . S
C1645 H1637 0.950 . S
C1645 C1643 1.327 . S
C1646 C1634 1.349 . S
C1646 H1640 0.950 . S
C1646 C1647 1.327 . S
C1647 H1641 0.950 . S
C1647 C1646 1.327 . S
C1647 C1651 1.429 . S
C1648 C1631 1.574 . S
C1648 H1642 0.949 . S
C1648 C1652 1.368 . S
C1649 C1630 1.429 . S
C1649 C1643 1.429 . S
C1649 C1650 1.523 . S
C1650 C1631 1.368 . S
C1650 C1644 1.368 . S
C1650 C1649 1.523 . S
C1651 C1635 1.429 . S
C1651 C1647 1.429 . S
C1651 C1652 1.523 . S
C1652 C1636 1.368 . S
C1652 C1648 1.368 . S
C1652 C1651 1.523 . S
H1653 C1628 0.950 . S
H1654 C1630 0.950 . S
H1655 C1631 0.949 . S
H1656 C1633 0.950 . S
H1657 C1635 0.950 . S
C1658 C1659 1.349 . S
C1658 C1660 1.327 . S
C1658 H1683 0.950 . S
C1659 C1658 1.349 . S
C1659 C1675 1.349 . S
C1660 C1658 1.327 . S
C1660 C1679 1.429 . S
C1660 H1684 0.950 . S
C1661 C1678 1.574 . S
C1661 C1680 1.368 . S
C1661 H1685 0.949 . S
H1662 C1666 0.949 . S
C1663 C1664 1.349 . S
C1663 C1665 1.327 . S
C1663 H1686 0.950 . S
C1664 C1663 1.349 . S
C1664 C1676 1.349 . S
C1665 C1663 1.327 . S
C1665 C1681 1.429 . S
C1665 H1687 0.950 . S
C1666 H1662 0.949 . S
C1666 C1674 1.574 . S
C1666 C1682 1.368 . S
H1667 C1675 0.950 . S
H1668 C1673 0.950 . S
H1669 C1674 0.949 . S
H1670 C1676 0.950 . S
H1671 C1677 0.950 . S
H1672 C1678 0.949 . S
C1673 H1668 0.950 . S
C1673 C1675 1.327 . S
C1673 C1679 1.429 . S
C1674 C1666 1.574 . S
C1674 H1669 0.949 . S
C1674 C1680 1.368 . S
C1675 C1659 1.349 . S
C1675 H1667 0.950 . S
C1675 C1673 1.327 . S
C1676 C1664 1.349 . S
C1676 H1670 0.950 . S
C1676 C1677 1.327 . S
C1677 H1671 0.950 . S
C1677 C1676 1.327 . S
C1677 C1681 1.429 . S
C1678 C1661 1.574 . S
C1678 H1672 0.949 . S
C1678 C1682 1.368 . S
C1679 C1660 1.429 . S
C1679 C1673 1.429 . S
C1679 C1680 1.523 . S
C1680 C1661 1.368 . S
C1680 C1674 1.368 . S
C1680 C1679 1.523 . S
C1681 C1665 1.429 . S
C1681 C1677 1.429 . S
C1681 C1682 1.523 . S
C1682 C1666 1.368 . S
C1682 C1678 1.368 . S
C1682 C1681 1.523 . S
H1683 C1658 0.950 . S
H1684 C1660 0.950 . S
H1685 C1661 0.949 . S
H1686 C1663 0.950 . S
H1687 C1665 0.950 . S
C1688 C1689 1.349 . S
C1688 C1690 1.327 . S
C1688 H1713 0.950 . S
C1689 C1688 1.349 . S
C1689 C1705 1.349 . S
C1690 C1688 1.327 . S
C1690 C1709 1.429 . S
C1690 H1714 0.950 . S
C1691 C1708 1.574 . S
C1691 C1710 1.368 . S
C1691 H1715 0.949 . S
H1692 C1696 0.949 . S
C1693 C1694 1.349 . S
C1693 C1695 1.327 . S
C1693 H1716 0.950 . S
C1694 C1693 1.349 . S
C1694 C1706 1.349 . S
C1695 C1693 1.327 . S
C1695 C1711 1.429 . S
C1695 H1717 0.950 . S
C1696 H1692 0.949 . S
C1696 C1704 1.574 1_554 S
C1696 C1712 1.368 . S
H1697 C1705 0.950 . S
H1698 C1703 0.950 . S
H1699 C1704 0.949 . S
H1700 C1706 0.950 . S
H1701 C1707 0.950 . S
H1702 C1708 0.949 . S
C1703 H1698 0.950 . S
C1703 C1705 1.327 . S
C1703 C1709 1.429 . S
C1704 C1696 1.574 1_556 S
C1704 H1699 0.949 . S
C1704 C1710 1.368 . S
C1705 C1689 1.349 . S
C1705 H1697 0.950 . S
C1705 C1703 1.327 . S
C1706 C1694 1.349 . S
C1706 H1700 0.950 . S
C1706 C1707 1.327 . S
C1707 H1701 0.950 . S
C1707 C1706 1.327 . S
C1707 C1711 1.429 . S
C1708 C1691 1.574 . S
C1708 H1702 0.949 . S
C1708 C1712 1.368 1_556 S
C1709 C1690 1.429 . S
C1709 C1703 1.429 . S
C1709 C1710 1.523 . S
C1710 C1691 1.368 . S
C1710 C1704 1.368 . S
C1710 C1709 1.523 . S
C1711 C1695 1.429 . S
C1711 C1707 1.429 . S
C1711 C1712 1.523 . S
C1712 C1696 1.368 . S
C1712 C1708 1.368 1_554 S
C1712 C1711 1.523 . S
H1713 C1688 0.950 . S
H1714 C1690 0.950 . S
H1715 C1691 0.949 . S
H1716 C1693 0.950 . S
H1717 C1695 0.950 . S
C1718 C1719 1.349 . S
C1718 C1720 1.327 . S
C1718 H1743 0.950 . S
C1719 C1718 1.349 . S
C1719 C1735 1.349 . S
C1720 C1718 1.327 . S
C1720 C1739 1.429 . S
C1720 H1744 0.950 . S
C1721 C1738 1.574 . S
C1721 C1740 1.368 . S
C1721 H1745 0.949 . S
H1722 C1726 0.949 . S
C1723 C1724 1.349 . S
C1723 C1725 1.327 . S
C1723 H1746 0.950 . S
C1724 C1723 1.349 . S
C1724 C1736 1.349 . S
C1725 C1723 1.327 . S
C1725 C1741 1.429 . S
C1725 H1747 0.950 . S
C1726 H1722 0.949 . S
C1726 C1734 1.574 1_554 S
C1726 C1742 1.368 . S
H1727 C1735 0.950 . S
H1728 C1733 0.950 . S
H1729 C1734 0.949 . S
H1730 C1736 0.950 . S
H1731 C1737 0.950 . S
H1732 C1738 0.949 . S
C1733 H1728 0.950 . S
C1733 C1735 1.327 . S
C1733 C1739 1.429 . S
C1734 C1726 1.574 1_556 S
C1734 H1729 0.949 . S
C1734 C1740 1.368 . S
C1735 C1719 1.349 . S
C1735 H1727 0.950 . S
C1735 C1733 1.327 . S
C1736 C1724 1.349 . S
C1736 H1730 0.950 . S
C1736 C1737 1.327 . S
C1737 H1731 0.950 . S
C1737 C1736 1.327 . S
C1737 C1741 1.429 . S
C1738 C1721 1.574 . S
C1738 H1732 0.949 . S
C1738 C1742 1.368 1_556 S
C1739 C1720 1.429 . S
C1739 C1733 1.429 . S
C1739 C1740 1.523 . S
C1740 C1721 1.368 . S
C1740 C1734 1.368 . S
C1740 C1739 1.523 . S
C1741 C1725 1.429 . S
C1741 C1737 1.429 . S
C1741 C1742 1.523 . S
C1742 C1726 1.368 . S
C1742 C1738 1.368 1_554 S
C1742 C1741 1.523 . S
H1743 C1718 0.950 . S
H1744 C1720 0.950 . S
H1745 C1721 0.949 . S
H1746 C1723 0.950 . S
H1747 C1725 0.950 . S
C1748 C1749 1.349 . S
C1748 C1750 1.327 . S
C1748 H1773 0.950 . S
C1749 C1748 1.349 . S
C1749 C1765 1.349 . S
C1750 C1748 1.327 . S
C1750 C1769 1.429 . S
C1750 H1774 0.950 . S
C1751 C1768 1.574 . S
C1751 C1770 1.368 1_556 S
C1751 H1775 0.952 . S
H1752 C1756 0.949 . S
C1753 C1754 1.349 . S
C1753 C1755 1.327 . S
C1753 H1776 0.950 . S
C1754 C1753 1.349 . S
C1754 C1766 1.349 . S
C1755 C1753 1.327 . S
C1755 C1771 1.429 . S
C1755 H1777 0.950 . S
C1756 H1752 0.949 . S
C1756 C1764 1.574 1_556 S
C1756 C1772 1.368 . S
H1757 C1765 0.950 . S
H1758 C1763 0.950 . S
H1759 C1764 0.949 . S
H1760 C1766 0.950 . S
H1761 C1767 0.950 . S
H1762 C1768 0.949 . S
C1763 H1758 0.950 . S
C1763 C1765 1.327 . S
C1763 C1769 1.429 . S
C1764 C1756 1.574 1_554 S
C1764 H1759 0.949 . S
C1764 C1770 1.368 . S
C1765 C1749 1.349 . S
C1765 H1757 0.950 . S
C1765 C1763 1.327 . S
C1766 C1754 1.349 . S
C1766 H1760 0.950 . S
C1766 C1767 1.327 . S
C1767 H1761 0.950 . S
C1767 C1766 1.327 . S
C1767 C1771 1.429 . S
C1768 C1751 1.574 . S
C1768 H1762 0.949 . S
C1768 C1772 1.368 . S
C1769 C1750 1.429 . S
C1769 C1763 1.429 . S
C1769 C1770 1.523 . S
C1770 C1751 1.368 1_554 S
C1770 C1764 1.368 . S
C1770 C1769 1.523 . S
C1771 C1755 1.429 . S
C1771 C1767 1.429 . S
C1771 C1772 1.523 . S
C1772 C1756 1.368 . S
C1772 C1768 1.368 . S
C1772 C1771 1.523 . S
H1773 C1748 0.950 . S
H1774 C1750 0.950 . S
H1775 C1751 0.952 . S
H1776 C1753 0.950 . S
H1777 C1755 0.950 . S
C1778 C1779 1.349 . S
C1778 C1780 1.327 . S
C1778 H1803 0.950 . S
C1779 C1778 1.349 . S
C1779 C1795 1.349 . S
C1780 C1778 1.327 . S
C1780 C1799 1.429 . S
C1780 H1804 0.950 . S
C1781 C1798 1.574 . S
C1781 C1800 1.368 1_556 S
C1781 H1805 0.949 . S
H1782 C1786 0.949 . S
C1783 C1784 1.349 . S
C1783 C1785 1.327 . S
C1783 H1806 0.950 . S
C1784 C1783 1.349 . S
C1784 C1796 1.349 . S
C1785 C1783 1.327 . S
C1785 C1801 1.429 . S
C1785 H1807 0.950 . S
C1786 H1782 0.949 . S
C1786 C1794 1.574 1_556 S
C1786 C1802 1.368 . S
H1787 C1795 0.950 . S
H1788 C1793 0.950 . S
H1789 C1794 0.949 . S
H1790 C1796 0.950 . S
H1791 C1797 0.950 . S
H1792 C1798 0.949 . S
C1793 H1788 0.950 . S
C1793 C1795 1.327 . S
C1793 C1799 1.429 . S
C1794 C1786 1.574 1_554 S
C1794 H1789 0.949 . S
C1794 C1800 1.368 . S
C1795 C1779 1.349 . S
C1795 H1787 0.950 . S
C1795 C1793 1.327 . S
C1796 C1784 1.349 . S
C1796 H1790 0.950 . S
C1796 C1797 1.327 . S
C1797 H1791 0.950 . S
C1797 C1796 1.327 . S
C1797 C1801 1.429 . S
C1798 C1781 1.574 . S
C1798 H1792 0.949 . S
C1798 C1802 1.368 . S
C1799 C1780 1.429 . S
C1799 C1793 1.429 . S
C1799 C1800 1.523 . S
C1800 C1781 1.368 1_554 S
C1800 C1794 1.368 . S
C1800 C1799 1.523 . S
C1801 C1785 1.429 . S
C1801 C1797 1.429 . S
C1801 C1802 1.523 . S
C1802 C1786 1.368 . S
C1802 C1798 1.368 . S
C1802 C1801 1.523 . S
H1803 C1778 0.950 . S
H1804 C1780 0.950 . S
H1805 C1781 0.949 . S
H1806 C1783 0.950 . S
H1807 C1785 0.950 . S
C369 C17 1.718 . S
C374 C131 1.708 . S
C399 C155 1.675 . S
C404 C40 1.675 . S
C429 C63 1.683 . S
C434 C178 1.682 . S
C459 C85 1.738 . S
C464 C108 1.738 . S
C489 C316 1.715 . S
C494 C201 1.715 . S
C519 C339 1.713 . S
C524 C224 1.713 . S
C549 C247 1.716 . S
C554 C362 1.716 . S
C579 C270 1.708 . S
C584 C293 1.708 . S
C609 C20 1.517 . S
C614 C88 1.517 . S
C639 C43 1.481 . S
C644 C21 1.489 . S
C669 C66 1.497 . S
C674 C44 1.505 . S
C699 C87 1.524 1_545 S
C704 C67 1.538 . S
C729 C110 1.553 1_655 S
C734 C134 1.559 . S
C759 C159 1.548 . S
C764 C133 1.533 1_565 S
C789 C158 1.483 . S
C794 C182 1.491 . S
C819 C111 1.508 . S
C824 C181 1.508 . S
C849 C274 1.496 . S
C854 C204 1.488 . S
C879 C227 1.488 . S
C884 C205 1.497 . S
C909 C250 1.488 . S
C914 C228 1.496 . S
C939 C273 1.514 . S
C944 C251 1.495 . S
C969 C296 1.482 . S
C974 C320 1.490 . S
C999 C319 1.479 . S
C1004 C343 1.487 . S
C1029 C342 1.479 . S
C1034 C366 1.487 . S
C1059 C365 1.482 . S
C1064 C297 1.491 . S
C1089 C19 0.470 . S
C1094 C65 0.471 . S
C1119 C42 0.462 . S
C1124 C90 0.366 . S
C1149 C157 0.466 . S
C1154 C113 0.371 . S
C1179 C180 0.464 . S
C1184 C136 0.370 . S
C1209 C249 0.470 . S
C1214 C203 0.470 . S
C1239 C272 0.467 . S
C1244 C226 0.466 . S
C1269 C295 0.469 . S
C1274 C341 0.469 . S
C1299 C318 0.469 . S
C1304 C364 0.469 . S
C1329 C18 1.061 . S
C1334 C269 1.037 . S
C1359 C200 1.018 . S
C1364 C41 1.041 . S
C1389 C64 1.061 . S
C1394 C223 1.037 . S
C1419 C246 0.996 . S
C1424 C89 0.998 . S
C1449 C315 1.003 . S
C1454 C112 1.005 . S
C1479 C135 1.002 . S
C1484 C338 1.001 . S
C1509 C361 1.035 . S
C1514 C156 1.059 . S
C1539 C179 1.049 . S
C1544 C292 1.026 . S
C1569 C202 1.025 . S
C1574 C86 1.012 . S
C1599 C225 1.048 . S
C1604 C16 1.024 . S
C1629 C39 1.034 . S
C1634 C248 1.058 . S
C1659 C271 1.051 . S
C1664 C62 1.028 . S
C1689 C294 1.023 . S
C1694 C132 1.010 . S
C1719 C317 1.061 . S
C1724 C154 1.037 . S
C1749 C177 1.030 . S
C1754 C340 1.054 . S
C1779 C109 1.004 . S
C1784 C363 1.017 . S
