# Generated by pormake.
# Topology snz, (6)-cn, num edge types: 1
# Building blocks:
#     Node 0, Type 0, BuildingBlock: NUHQIS_clean_sbu_0, # of connection points: 6
#     Node 1, Type 0, BuildingBlock: NUHQIS_clean_sbu_0, # of connection points: 6
#     Node 2, Type 0, BuildingBlock: NUHQIS_clean_sbu_0, # of connection points: 6
#     Node 3, Type 0, BuildingBlock: NUHQIS_clean_sbu_0, # of connection points: 6
#     Node 4, Type 0, BuildingBlock: NUHQIS_clean_sbu_0, # of connection points: 6
#     Node 5, Type 0, BuildingBlock: NUHQIS_clean_sbu_0, # of connection points: 6
#     Node 6, Type 0, BuildingBlock: NUHQIS_clean_sbu_0, # of connection points: 6
#     Node 7, Type 0, BuildingBlock: NUHQIS_clean_sbu_0, # of connection points: 6
#     Node 8, Type 0, BuildingBlock: NUHQIS_clean_sbu_0, # of connection points: 6
#     Edge 9, Type (0, 0), BuildingBlock: XIVTED_clean_linker_0, # of connection points: 2
#     Edge 10, Type (0, 0), BuildingBlock: XIVTED_clean_linker_0, # of connection points: 2
#     Edge 11, Type (0, 0), BuildingBlock: XIVTED_clean_linker_0, # of connection points: 2
#     Edge 12, Type (0, 0), BuildingBlock: XIVTED_clean_linker_0, # of connection points: 2
#     Edge 13, Type (0, 0), BuildingBlock: XIVTED_clean_linker_0, # of connection points: 2
#     Edge 14, Type (0, 0), BuildingBlock: XIVTED_clean_linker_0, # of connection points: 2
#     Edge 15, Type (0, 0), BuildingBlock: XIVTED_clean_linker_0, # of connection points: 2
#     Edge 16, Type (0, 0), BuildingBlock: XIVTED_clean_linker_0, # of connection points: 2
#     Edge 17, Type (0, 0), BuildingBlock: XIVTED_clean_linker_0, # of connection points: 2
#     Edge 18, Type (0, 0), BuildingBlock: XIVTED_clean_linker_0, # of connection points: 2
#     Edge 19, Type (0, 0), BuildingBlock: XIVTED_clean_linker_0, # of connection points: 2
#     Edge 20, Type (0, 0), BuildingBlock: XIVTED_clean_linker_0, # of connection points: 2
#     Edge 21, Type (0, 0), BuildingBlock: XIVTED_clean_linker_0, # of connection points: 2
#     Edge 22, Type (0, 0), BuildingBlock: XIVTED_clean_linker_0, # of connection points: 2
#     Edge 23, Type (0, 0), BuildingBlock: XIVTED_clean_linker_0, # of connection points: 2
#     Edge 24, Type (0, 0), BuildingBlock: XIVTED_clean_linker_0, # of connection points: 2
#     Edge 25, Type (0, 0), BuildingBlock: XIVTED_clean_linker_0, # of connection points: 2
#     Edge 26, Type (0, 0), BuildingBlock: XIVTED_clean_linker_0, # of connection points: 2
#     Edge 27, Type (0, 0), BuildingBlock: XIVTED_clean_linker_0, # of connection points: 2
#     Edge 28, Type (0, 0), BuildingBlock: XIVTED_clean_linker_0, # of connection points: 2
#     Edge 29, Type (0, 0), BuildingBlock: XIVTED_clean_linker_0, # of connection points: 2
#     Edge 30, Type (0, 0), BuildingBlock: XIVTED_clean_linker_0, # of connection points: 2
#     Edge 31, Type (0, 0), BuildingBlock: XIVTED_clean_linker_0, # of connection points: 2
#     Edge 32, Type (0, 0), BuildingBlock: XIVTED_clean_linker_0, # of connection points: 2
#     Edge 33, Type (0, 0), BuildingBlock: XIVTED_clean_linker_0, # of connection points: 2
#     Edge 34, Type (0, 0), BuildingBlock: XIVTED_clean_linker_0, # of connection points: 2
#     Edge 35, Type (0, 0), BuildingBlock: XIVTED_clean_linker_0, # of connection points: 2
# Relax obj value: 0.396
# Max RMSD: 0.228
# Mean RMSD: 0.150
data_MOF--net-snz--node1-NUHQIS_clean_sbu_0--edge1-XIVTED_clean_linker_0
_symmetry_space_group_name_H-M    P1
_symmetry_Int_Tables_number       1
_symmetry_cell_setting            triclinic
loop_
_symmetry_equiv_pos_as_xyz
'x, y, z'
_cell_length_a     68.545901
_cell_length_b     54.36319
_cell_length_c     15.655526
_cell_angle_alpha  97.131913
_cell_angle_beta   96.55514
_cell_angle_gamma 120.89234
loop_
_atom_site_label
_atom_site_type_symbol
_atom_site_fract_x
_atom_site_fract_y
_atom_site_fract_z
_atom_type_partial_charge
Tb0 Tb 0.13266 0.50231 0.29767 0.0
Eu1 Eu 0.08757 0.50979 0.27804 0.0
C2 C 0.11246 0.5085 0.1131 0.0
C3 C 0.13914 0.56583 0.31414 0.0
C4 C 0.17294 0.47726 0.36402 0.0
C5 C 0.20179 0.46595 0.41395 0.0
C6 C 0.19565 0.48331 0.3737 0.0
C7 C 0.15636 0.45356 0.39527 0.0
C8 C 0.16247 0.43609 0.43541 0.0
C9 C 0.1853 0.44209 0.44544 0.0
C10 C 0.16705 0.49619 0.32251 0.0
O11 O 0.11829 0.49057 0.41507 0.0
O12 O 0.10087 0.51683 0.42348 0.0
O13 O 0.073 0.46211 0.27705 0.0
O14 O 0.10248 0.45845 0.2341 0.0
C15 C 0.10989 0.50357 0.46087 0.0
O16 O 0.07063 0.53162 0.32721 0.0
O17 O 0.05217 0.49518 0.21421 0.0
O18 O 0.09343 0.50335 0.13995 0.0
O19 O 0.13087 0.51336 0.16768 0.0
O20 O 0.14697 0.54975 0.34074 0.0
O21 O 0.11765 0.55373 0.27158 0.0
C22 C 0.08061 0.44638 0.24132 0.0
O23 O 0.15077 0.48352 0.25145 0.0
O24 O 0.16462 0.51443 0.37532 0.0
C25 C 0.04313 0.53193 0.22079 0.0
C26 C 1.02437 0.56144 0.14271 0.0
C27 C 0.0477 0.57698 0.18798 0.0
C28 C 0.05704 0.56234 0.22638 0.0
C29 C 1.01994 0.51639 0.17503 0.0
C30 C 1.01065 0.53095 0.13611 0.0
C31 C 0.05205 0.51609 0.26453 0.0
H32 H 0.21941 0.471 0.41918 0.0
H33 H 0.20869 0.5015 0.34998 0.0
H34 H 0.13874 0.44865 0.38885 0.0
H35 H 0.14938 0.41813 0.45963 0.0
H36 H 0.05876 0.60042 0.19325 0.0
H37 H 0.07506 0.57487 0.26091 0.0
H38 H 1.00888 0.49296 0.17027 0.0
H39 H 0.99256 0.51842 0.10249 0.0
Tb40 Tb 0.63227 0.52286 1.06987 0.0
Eu41 Eu 0.58578 0.52746 1.04968 0.0
C42 C 0.60951 0.52371 0.23457 0.0
C43 C 0.5812 0.46504 1.03056 0.0
C44 C 0.69171 0.53642 1.06214 0.0
C45 C 0.72606 0.53671 1.03552 0.0
C46 C 0.7041 0.5225 1.05664 0.0
C47 C 0.70158 0.56487 1.04628 0.0
C48 C 0.72364 0.5792 1.02539 0.0
C49 C 0.73613 0.56522 1.01945 0.0
C50 C 0.66857 0.5207 1.08419 0.0
O51 O 0.62902 0.53335 0.94008 0.0
O52 O 0.59064 0.51942 0.91068 0.0
O53 O 0.61519 0.57234 1.04442 0.0
O54 O 0.6453 0.56971 0.11332 0.0
C55 C 0.61004 0.5262 0.88439 0.0
O56 O 0.54942 0.50956 0.99105 0.0
O57 O 0.56835 0.5496 1.09138 0.0
O58 O 0.59913 0.53515 0.19512 0.0
O59 O 0.61974 0.51273 0.1917 0.0
O60 O 0.60284 0.47727 1.02016 0.0
O61 O 0.57293 0.48085 1.05876 0.0
C62 C 0.63683 0.58512 1.0867 0.0
O63 O 0.66452 0.53507 0.14514 0.0
O64 O 0.6509 0.50572 1.01804 0.0
C65 C 0.52989 0.51534 1.09786 0.0
C66 C 0.49573 0.49042 0.1993 0.0
C67 C 0.49347 0.50543 0.13541 0.0
C68 C 0.51047 0.51783 1.08514 0.0
C69 C 0.53214 0.50026 0.16097 0.0
C70 C 0.51525 0.48793 0.21115 0.0
C71 C 0.54797 0.52832 1.04621 0.0
H72 H 0.73527 0.52543 1.03276 0.0
H73 H 0.69679 0.50056 1.06883 0.0
H74 H 0.69221 0.57594 1.04979 0.0
H75 H 0.73075 0.60101 1.01249 0.0
H76 H 0.47877 0.50798 0.12521 0.0
H77 H 0.50849 0.52943 1.03673 0.0
H78 H 0.547 0.49801 0.17139 0.0
H79 H 0.51738 0.47614 0.25859 0.0
Tb80 Tb 0.58531 0.06144 0.88014 0.0
Eu81 Eu 0.63764 0.12225 0.92745 0.0
C82 C 0.61102 0.08796 0.72794 0.0
C83 C 0.62918 0.05755 0.90951 0.0
C84 C 0.52689 1.00457 0.90385 0.0
C85 C 0.48981 0.96529 0.92393 0.0
C86 C 0.50656 0.97682 0.87246 0.0
C87 C 0.53025 1.02085 0.98707 0.0
C88 C 0.51356 1.00932 1.03873 0.0
C89 C 0.49316 0.98132 1.00797 0.0
C90 C 0.54494 1.01589 0.85135 0.0
O91 O 0.59696 0.06954 1.0229 0.0
O92 O 0.62548 0.11887 1.05734 0.0
O93 O 0.61136 0.13605 0.89729 0.0
O94 O 0.58095 0.0967 0.93396 0.0
C95 C 0.61104 0.09438 1.08124 0.0
O96 O 0.66591 0.15914 0.8861 0.0
O97 O 0.67195 0.15129 1.01524 0.0
O98 O 0.63088 0.10083 0.78481 0.0
O99 O 0.59115 0.07527 0.75442 0.0
O100 O 0.60887 0.04679 0.85791 0.0
O101 O 0.64138 0.0849 0.95299 0.0
C102 C 0.59014 0.12259 0.91373 0.0
O103 O 0.54958 0.03992 0.82587 0.0
O104 O 0.56384 1.01689 0.88236 0.0
C105 C 0.7035 0.16734 0.94068 0.0
C106 C 0.74565 0.17104 0.9167 0.0
C107 C 0.74408 0.18387 0.99757 0.0
C108 C 0.72335 0.18208 1.00922 0.0
C109 C 0.70492 0.15431 0.85998 0.0
C110 C 0.72567 0.15622 0.84813 0.0
C111 C 0.68151 0.16528 0.95521 0.0
H112 H 0.47448 0.94353 0.89867 0.0
H113 H 0.50377 0.96389 0.8086 0.0
H114 H 0.54588 0.04237 1.01231 0.0
H115 H 0.51657 0.02241 0.10256 0.0
H116 H 0.75901 0.19576 1.05181 0.0
H117 H 0.72285 0.19229 1.07221 0.0
H118 H 0.68993 0.14246 0.80591 0.0
H119 H 0.72592 0.14564 0.78529 0.0
Tb120 Tb 0.78259 0.86539 0.29272 0.0
Eu121 Eu 0.73643 0.87042 0.26957 0.0
C122 C 0.76193 0.87176 0.10976 0.0
C123 C 0.78858 0.92718 0.33386 0.0
C124 C 0.82784 0.84722 0.35089 0.0
C125 C 0.85796 0.83636 0.3745 0.0
C126 C 0.84865 0.85067 0.33434 0.0
C127 C 0.81632 0.82924 0.40808 0.0
C128 C 0.82565 0.81488 0.44847 0.0
C129 C 0.84662 0.81832 0.43219 0.0
C130 C 0.81838 0.86225 0.30663 0.0
O131 O 0.77637 0.86964 0.42691 0.0
O132 O 0.73848 0.85811 0.40183 0.0
O133 O 0.72349 0.82229 0.22395 0.0
O134 O 0.75432 0.82112 0.29311 0.0
C135 C 0.75721 0.86343 0.455 0.0
O136 O 0.71633 0.88835 0.31468 0.0
O137 O 0.70309 0.85769 0.18967 0.0
O138 O 0.75217 0.88369 0.15102 0.0
O139 O 0.77094 0.85903 0.15078 0.0
O140 O 0.79584 0.91163 0.29375 0.0
O141 O 0.7669 0.91486 0.34256 0.0
C142 C 0.73267 0.80759 0.24969 0.0
O143 O 0.79979 0.84562 0.24492 0.0
O144 O 0.81691 0.88193 0.35698 0.0
C145 C 0.69401 0.8942 0.2018 0.0
C146 C 0.68131 0.92946 0.12313 0.0
C147 C 0.66498 0.90549 0.15469 0.0
C148 C 0.6713 0.88807 0.19363 0.0
C149 C 0.71039 0.91794 0.17016 0.0
C150 C 0.70411 0.93544 0.13131 0.0
C151 C 0.70029 0.87555 0.24275 0.0
H152 H 0.8739 0.83911 0.35932 0.0
H153 H 0.85765 0.86435 0.28986 0.0
H154 H 0.80018 0.82635 0.42141 0.0
H155 H 0.8166 0.80138 0.4932 0.0
H156 H 0.64739 0.90046 0.15075 0.0
H157 H 0.65843 0.86983 0.21773 0.0
H158 H 0.728 0.92291 0.17547 0.0
H159 H 0.71706 0.95347 0.10687 0.0
Tb160 Tb 0.28235 0.8478 0.52039 0.0
Eu161 Eu 0.23485 0.84966 0.50321 0.0
C162 C 0.25841 0.8454 0.68609 0.0
C163 C 0.23346 0.78833 0.47989 0.0
C164 C 0.33833 0.86409 0.47431 0.0
C165 C 0.37539 0.87606 0.43878 0.0
C166 C 0.35843 0.86306 0.48871 0.0
C167 C 0.33542 0.87838 0.40989 0.0
C168 C 0.35229 0.8913 0.35996 0.0
C169 C 0.37246 0.89022 0.37347 0.0
C170 C 0.32027 0.85023 0.52551 0.0
O171 O 0.26962 0.83996 0.37874 0.0
O172 O 0.24778 0.86077 0.37784 0.0
O173 O 0.26516 0.8961 0.56347 0.0
O174 O 0.29282 0.89217 0.50606 0.0
C175 C 0.25882 0.85063 0.33717 0.0
O176 O 0.20059 0.83594 0.42855 0.0
O177 O 0.21437 0.86576 0.55569 0.0
O178 O 0.23879 0.83716 0.63329 0.0
O179 O 0.27777 0.85417 0.65666 0.0
O180 O 0.25537 0.80273 0.52146 0.0
O181 O 0.22335 0.80219 0.45613 0.0
C182 C 0.28594 0.90836 0.54475 0.0
O183 O 0.31769 0.86823 0.57893 0.0
O184 O 0.30031 0.82813 0.48026 0.0
C185 C 0.17345 0.83323 0.51403 0.0
C186 C 0.12937 0.80342 0.55941 0.0
C187 C 0.13243 0.81648 0.48582 0.0
C188 C 0.15425 0.83126 0.46354 0.0
C189 C 0.17047 0.81981 0.58664 0.0
C190 C 0.14865 0.80512 0.60926 0.0
C191 C 0.19642 0.84979 0.49073 0.0
H192 H 0.3906 0.87458 0.45027 0.0
H193 H 0.36093 0.85208 0.53813 0.0
H194 H 0.32003 0.87951 0.39813 0.0
H195 H 0.34961 0.90239 0.31129 0.0
H196 H 0.11807 0.81591 0.44656 0.0
H197 H 0.15619 0.84148 0.40729 0.0
H198 H 0.18502 0.82086 0.6262 0.0
H199 H 0.14687 0.79499 0.66561 0.0
Tb200 Tb 0.23188 0.25395 0.65356 0.0
Eu201 Eu 0.28433 0.31417 0.70049 0.0
C202 C 0.2569 0.28004 0.49833 0.0
C203 C 0.27749 0.25102 0.66168 0.0
C204 C 0.16812 0.21008 0.6462 0.0
C205 C 0.12712 0.18082 0.65389 0.0
C206 C 0.14771 0.18274 0.63957 0.0
C207 C 0.16755 0.23556 0.668 0.0
C208 C 0.14695 0.23369 0.68203 0.0
C209 C 0.12632 0.20626 0.67508 0.0
C210 C 0.18968 0.21178 0.62873 0.0
O211 O 0.23832 0.27426 0.79256 0.0
O212 O 0.27794 0.29868 0.82803 0.0
O213 O 0.25975 0.32892 0.72331 0.0
O214 O 0.22767 0.28977 0.62911 0.0
C215 C 0.25774 0.28581 0.85153 0.0
O216 O 0.32171 0.33705 0.7527 0.0
O217 O 0.30708 0.36063 0.70166 0.0
O218 O 0.27143 0.30525 0.55401 0.0
O219 O 0.24286 0.25605 0.52582 0.0
O220 O 0.25649 0.23927 0.6801 0.0
O221 O 0.28821 0.27725 0.64407 0.0
C222 C 0.23924 0.3172 0.67224 0.0
O223 O 0.19898 0.22622 0.56925 0.0
O224 O 0.20559 0.21844 0.69704 0.0
C225 C 0.344 0.37368 0.67737 0.0
C226 C 0.37767 0.39876 0.57414 0.0
C227 C 0.38139 0.4133 0.66094 0.0
C228 C 0.36467 0.40086 0.712 0.0
C229 C 0.34026 0.35889 0.59128 0.0
C230 C 0.35693 0.37133 0.54006 0.0
C231 C 0.32605 0.36137 0.72984 0.0
H232 H 0.11168 0.15928 0.64666 0.0
H233 H 0.14762 0.16274 0.62258 0.0
H234 H 0.18305 0.25698 0.67398 0.0
H235 H 0.1473 0.25384 0.69937 0.0
H236 H 0.39701 0.4346 0.68887 0.0
H237 H 0.36775 0.41263 0.77817 0.0
H238 H 0.32436 0.33783 0.56357 0.0
H239 H 0.35364 0.35936 0.47398 0.0
Tb240 Tb 0.43649 0.19011 0.69987 0.0
Eu241 Eu 0.43166 0.18614 0.89641 0.0
C242 C 0.46567 0.24592 0.84742 0.0
C243 C 0.46711 0.17384 0.81989 0.0
C244 C 0.46357 0.23588 0.55537 0.0
C245 C 0.50065 0.27388 0.5315 0.0
C246 C 0.48379 0.24419 0.52285 0.0
C247 C 0.4606 0.25789 0.59714 0.0
C248 C 0.47751 0.28755 0.60631 0.0
C249 C 0.49777 0.29597 0.57362 0.0
C250 C 0.44776 0.20496 0.55974 0.0
O251 O 0.41475 0.14238 0.6885 0.0
O252 O 0.4023 0.14124 0.8201 0.0
O253 O 0.40779 0.20094 0.84505 0.0
O254 O 0.40236 0.18426 0.69796 0.0
C255 C 0.40089 0.128 0.74081 0.0
O256 O 0.44085 0.17853 1.02482 0.0
O257 O 0.4209 0.19877 1.0114 0.0
O258 O 0.46524 0.22847 0.89816 0.0
O259 O 0.45022 0.23453 0.77392 0.0
O260 O 0.46701 0.19014 0.76441 0.0
O261 O 0.45091 0.16389 0.86613 0.0
C262 C 0.39627 0.19426 0.76396 0.0
O263 O 0.45731 0.19429 0.60673 0.0
O264 O 0.4277 0.19809 0.57752 0.0
C265 C 0.45489 0.22414 0.11988 0.0
C266 C 0.49001 0.28393 0.18683 0.0
C267 C 0.46764 0.2721 0.20576 0.0
C268 C 0.45026 0.24258 0.17234 0.0
C269 C 0.47749 0.23561 0.10399 0.0
C270 C 0.49481 0.26512 0.13696 0.0
C271 C 0.43542 0.19606 1.06454 0.0
H272 H 0.51567 0.27944 0.50281 0.0
H273 H 0.48669 0.22772 0.49187 0.0
H274 H 0.44537 0.25227 0.62443 0.0
H275 H 0.47464 0.30387 0.63858 0.0
H276 H 0.46348 0.28562 0.24676 0.0
H277 H 0.43293 0.23447 0.18428 0.0
H278 H 0.48158 0.22218 1.0622 0.0
H279 H 0.51181 0.2733 0.12162 0.0
Tb280 Tb 0.9345 0.1705 0.86474 0.0
Eu281 Eu 0.93452 0.2009 0.70345 0.0
C282 C 0.90603 0.13283 0.68142 0.0
C283 C 0.97636 0.19265 0.76165 0.0
C284 C 0.90938 0.10887 0.97166 0.0
C285 C 0.88701 0.05534 0.94076 0.0
C286 C 0.90723 0.08199 0.94063 0.0
C287 C 0.89059 0.10854 0.99989 0.0
C288 C 0.87052 0.08203 1.00085 0.0
C289 C 0.86855 0.05493 0.9732 0.0
C290 C 0.93036 0.13676 0.96663 0.0
O291 O 0.96167 0.21686 0.91975 0.0
O292 O 0.95098 0.23846 0.82178 0.0
O293 O 0.90129 0.1899 0.7493 0.0
O294 O 0.9084 0.18133 0.88563 0.0
C295 C 0.96312 0.24027 0.89669 0.0
O296 O 0.94943 0.22248 0.5975 0.0
O297 O 0.91381 0.20743 0.6026 0.0
O298 O 0.92254 0.15344 0.65168 0.0
O299 O 0.90408 0.13905 0.76187 0.0
O300 O 0.96211 0.17237 0.80046 0.0
O301 O 0.9709 0.2102 0.73134 0.0
C302 C 0.89578 0.18549 0.82612 0.0
O303 O 0.93758 0.13594 0.8936 0.0
O304 O 0.93094 0.1611 0.99066 0.0
C305 C 0.92009 0.18921 0.4734 0.0
C306 C 0.89389 0.13013 0.37937 0.0
C307 C 0.88505 0.14845 0.37437 0.0
C308 C 0.89794 0.17761 0.42164 0.0
C309 C 0.93 0.1721 0.46927 0.0
C310 C 0.91699 0.14292 0.42443 0.0
C311 C 0.92876 0.21287 0.552 0.0
H312 H 0.88622 0.03513 0.91843 0.0
H313 H 0.92129 0.08158 0.91662 0.0
H314 H 0.89143 0.12878 1.02264 0.0
H315 H 0.85716 0.08319 1.0283 0.0
H316 H 0.86781 0.1401 0.33701 0.0
H317 H 0.88981 0.19024 0.42384 0.0
H318 H 0.94699 0.18012 0.50867 0.0
H319 H 0.92485 0.13021 0.43091 0.0
Tb320 Tb 0.921 0.66267 0.70751 0.0
Eu321 Eu 0.94469 0.71623 0.88256 0.0
C322 C 0.95088 0.66037 0.87066 0.0
C323 C 0.89246 0.66218 0.85025 0.0
C324 C 0.877 0.61664 0.51116 0.0
C325 C 0.85921 0.61717 0.36907 0.0
C326 C 0.8753 0.6136 0.42012 0.0
C327 C 0.86044 0.61957 0.54882 0.0
C328 C 0.84413 0.62279 0.49759 0.0
C329 C 0.84449 0.62387 0.40837 0.0
C330 C 0.8989 0.62424 0.56718 0.0
O331 O 0.9057 0.68881 0.69346 0.0
O332 O 0.93725 0.73276 0.76627 0.0
O333 O 0.97534 0.72222 0.82927 0.0
O334 O 0.95578 0.69496 0.68849 0.0
C335 C 0.91753 0.71749 0.7089 0.0
O336 O 0.96078 0.7627 0.94196 0.0
O337 O 0.95193 0.73103 1.02489 0.0
O338 O 0.9499 0.68087 0.92099 0.0
O339 O 0.94341 0.65293 0.78478 0.0
O340 O 0.89842 0.64676 0.80128 0.0
O341 O 0.90607 0.69076 0.87366 0.0
C342 C 0.97523 0.71386 0.74675 0.0
O343 O 0.91614 0.65078 0.57059 0.0
O344 O 0.89788 0.61817 0.64516 0.0
C345 C 0.94208 0.76574 1.05719 0.0
C346 C 0.90429 0.76072 0.12629 0.0
C347 C 0.92477 0.76748 0.18261 0.0
C348 C 0.94348 0.76991 0.14821 0.0
C349 C 0.92289 0.76256 1.00189 0.0
C350 C 0.90425 0.76034 1.03629 0.0
C351 C 0.95711 0.75739 1.01954 0.0
H352 H 0.86026 0.61786 0.30088 0.0
H353 H 0.88798 0.6115 0.38989 0.0
H354 H 0.86138 0.62203 0.6192 0.0
H355 H 0.83267 0.62706 0.52977 0.0
H356 H 0.92553 0.76775 0.25219 0.0
H357 H 0.95802 0.77215 0.19188 0.0
H358 H 0.92131 0.75913 0.93112 0.0
H359 H 0.88898 0.75571 0.99125 0.0
H360 H 0.08259 0.51196 0.98984 0.0
H361 H 0.13431 0.48854 0.57354 0.0
H362 H 0.14286 0.5051 1.01668 0.0
H363 H 0.08714 0.51881 0.56877 0.0
H364 H 0.13575 0.49029 0.73207 0.0
H365 H 0.08219 0.51053 0.83312 0.0
C366 C 0.09581 0.51018 0.96303 0.0
C367 C 0.11282 0.5087 1.01748 0.0
C368 C 0.12509 0.49654 0.69623 0.0
C369 C 0.11228 0.50675 0.8358 0.0
C370 C 0.12416 0.49542 0.60545 0.0
C371 C 0.11056 0.50352 0.55698 0.0
C372 C 0.11209 0.50547 0.73919 0.0
C373 C 0.09792 0.51239 0.60275 0.0
C374 C 0.09557 0.50941 0.8731 0.0
C375 C 0.12947 0.50647 0.97788 0.0
N376 N 0.09892 0.51299 0.69055 0.0
N377 N 0.1287 0.50538 0.88967 0.0
H378 H 0.64357 0.52916 0.79578 0.0
H379 H 0.5815 0.53129 0.3323 0.0
H380 H 0.57757 0.52252 0.75352 0.0
H381 H 0.637 0.51503 0.35548 0.0
H382 H 0.58172 0.53171 0.48866 0.0
H383 H 0.64345 0.52777 0.63834 0.0
C384 C 0.62908 0.52752 0.75373 0.0
C385 C 0.61055 0.52599 0.78876 0.0
C386 C 0.59385 0.528 0.45975 0.0
C387 C 0.61039 0.52449 0.60749 0.0
C388 C 0.59379 0.52783 0.37015 0.0
C389 C 0.6093 0.52317 0.32996 0.0
C390 C 0.60973 0.52385 0.51094 0.0
C391 C 0.62468 0.51863 0.38313 0.0
C392 C 0.629 0.5266 0.66355 0.0
C393 C 0.59224 0.52373 0.73017 0.0
N394 N 0.62461 0.51928 0.4707 0.0
N395 N 0.59269 0.52319 0.64306 0.0
H396 H 0.64808 0.12146 0.65332 0.0
H397 H 0.57711 0.05312 0.15289 0.0
H398 H 0.57445 0.05664 0.58347 0.0
H399 H 0.64386 0.13456 0.22884 0.0
H400 H 0.57692 0.05158 0.30838 0.0
H401 H 0.64802 0.12379 0.49795 0.0
C402 C 0.63188 0.10756 0.60547 0.0
C403 C 0.61122 0.08875 0.63239 0.0
C404 C 0.5916 0.06985 0.29124 0.0
C405 C 0.61111 0.09133 0.45278 0.0
C406 C 0.59177 0.07076 0.2021 0.0
C407 C 0.61055 0.09407 0.17685 0.0
C408 C 0.61052 0.09214 0.35675 0.0
C409 C 0.62895 0.11623 0.24456 0.0
C410 C 0.63186 0.10905 0.51651 0.0
C411 C 0.59082 0.07149 0.56651 0.0
N412 N 0.62854 0.1146 0.33093 0.0
N413 N 0.59131 0.07308 0.48021 0.0
H414 H 0.72588 0.86458 0.54909 0.0
H415 H 0.78682 0.85823 1.00852 0.0
H416 H 0.7886 0.86313 0.58144 0.0
H417 H 0.73672 0.88386 0.99041 0.0
H418 H 0.78556 0.85589 0.85053 0.0
H419 H 0.7272 0.86716 0.70738 0.0
C420 C 0.73986 0.8646 0.5891 0.0
C421 C 0.75715 0.86361 0.551 0.0
C422 C 0.77488 0.86211 0.88105 0.0
C423 C 0.75872 0.86654 0.73362 0.0
C424 C 0.77556 0.86343 0.97156 0.0
C425 C 0.76189 0.87132 1.01368 0.0
C426 C 0.76016 0.8683 0.83101 0.0
C427 C 0.74767 0.8778 0.96145 0.0
C428 C 0.74066 0.86624 0.67986 0.0
C429 C 0.77489 0.86392 0.60723 0.0
N430 N 0.74708 0.87597 0.87321 0.0
N431 N 0.77515 0.86523 0.69509 0.0
H432 H 0.29273 0.85165 0.81491 0.0
H433 H 0.23057 0.85767 0.21555 0.0
H434 H 0.22505 0.84039 0.77812 0.0
H435 H 0.28723 0.84356 0.23933 0.0
H436 H 0.23047 0.85624 1.05819 0.0
H437 H 0.29307 0.85324 0.97253 0.0
C438 C 0.27792 0.84948 0.83968 0.0
C439 C 0.2588 0.84578 0.78231 0.0
C440 C 0.24293 0.85346 1.09783 0.0
C441 C 0.25922 0.84795 0.96401 0.0
C442 C 0.24307 0.8544 0.188 0.0
C443 C 0.25888 0.85064 0.2414 0.0
C444 C 0.25893 0.84915 1.06026 0.0
C445 C 0.27459 0.84639 0.20115 0.0
C446 C 0.27812 0.85036 0.9299 0.0
C447 C 0.24015 0.84312 0.8191 0.0
N448 N 0.27428 0.84588 0.11355 0.0
N449 N 0.2409 0.84442 0.90716 0.0
H450 H 0.21983 0.25252 0.92368 0.0
H451 H 0.29101 0.31942 0.42414 0.0
H452 H 0.29372 0.31573 0.99716 0.0
H453 H 0.22308 0.23972 0.35184 0.0
H454 H 0.29094 0.32035 0.26876 0.0
H455 H 0.21927 0.2497 1.07903 0.0
C456 C 0.23594 0.26595 0.97227 0.0
C457 C 0.25687 0.28448 0.94649 0.0
C458 C 0.27603 0.30256 0.28647 0.0
C459 C 0.25628 0.28134 0.12557 0.0
C460 C 0.27602 0.302 0.37569 0.0
C461 C 0.257 0.27941 0.40209 0.0
C462 C 0.25674 0.28062 0.22166 0.0
C463 C 0.23818 0.25749 0.33515 0.0
C464 C 0.23559 0.26417 1.06111 0.0
C465 C 0.27714 0.30112 1.01313 0.0
N466 N 0.23845 0.25877 0.24836 0.0
N467 N 0.2763 0.29926 1.09897 0.0
H468 H 0.54582 0.32734 0.59641 0.0
H469 H 0.53666 0.30695 0.25035 0.0
H470 H 0.48771 0.33787 0.54601 0.0
H471 H 0.48739 0.33341 0.21248 0.0
H472 H 0.56098 0.34968 0.36733 0.0
H473 H 0.56616 0.36419 0.5115 0.0
C474 C 0.53745 0.33774 0.56872 0.0
C475 C 0.51397 0.32704 0.56931 0.0
C476 C 0.545 0.34665 0.33346 0.0
C477 C 0.53599 0.36638 0.46543 0.0
C478 C 0.53103 0.322 0.26531 0.0
C479 C 0.50869 0.31488 0.22774 0.0
C480 C 0.53536 0.36212 0.36891 0.0
C481 C 0.50342 0.33648 0.24625 0.0
C482 C 0.54902 0.35875 0.51967 0.0
C483 C 0.50501 0.34337 0.54027 0.0
N484 N 0.51635 0.35887 0.31764 0.0
N485 N 0.51584 0.36186 0.48701 0.0
H486 H 0.90803 0.09254 0.32256 0.0
H487 H 0.82243 0.03651 0.98068 0.0
H488 H 0.84579 0.09258 0.34691 0.0
H489 H 0.86987 1.00764 1.02114 0.0
H490 H 0.81264 0.02667 0.12194 0.0
H491 H 0.88449 0.04257 0.24536 0.0
C492 C 0.88941 0.08227 0.31296 0.0
C493 C 0.8792 0.09799 0.33872 0.0
C494 C 0.82457 1.02127 1.0988 0.0
C495 C 0.85159 0.04005 0.24105 0.0
C496 C 0.83027 0.02705 1.01761 0.0
C497 C 0.85011 0.02802 0.99766 0.0
C498 C 0.8395 1.0175 0.15738 0.0
C499 C 0.85697 1.01166 1.04089 0.0
C500 C 0.87572 0.05318 0.26794 0.0
C501 C 0.85472 0.08237 0.32341 0.0
N502 N 0.85212 1.00765 0.1216 0.0
N503 N 0.84178 0.05469 0.27274 0.0
H504 H 0.83936 0.66859 0.48131 0.0
H505 H 0.89598 0.77565 0.28749 0.0
H506 H 0.82648 0.61383 0.23073 0.0
H507 H 0.86135 0.71414 1.03751 0.0
H508 H 0.86612 0.74118 0.35474 0.0
H509 H 0.83951 0.7048 0.4056 0.0
C510 C 0.83602 0.66368 0.41018 0.0
C511 C 0.83453 0.63879 0.36292 0.0
C512 C 0.86433 0.73536 0.2845 0.0
C513 C 0.83624 0.68151 0.27634 0.0
C514 C 0.88166 0.75524 0.24601 0.0
C515 C 0.88203 0.74716 0.15779 0.0
C516 C 0.8474 0.70709 0.23426 0.0
C517 C 0.86244 0.721 0.10661 0.0
C518 C 0.83656 0.68488 0.36691 0.0
C519 C 0.82927 0.63355 0.2706 0.0
N520 N 0.8464 0.70147 0.14621 0.0
N521 N 0.83118 0.65522 0.23046 0.0
H522 H 0.26119 0.37727 0.72196 0.0
H523 H 0.1599 0.38209 0.42698 0.0
H524 H 0.19649 0.30007 0.57751 0.0
H525 H 0.2259 0.45947 0.55978 0.0
H526 H 0.17175 0.35191 0.49189 0.0
H527 H 0.24725 0.40781 0.67436 0.0
C528 C 0.24394 0.36668 0.68123 0.0
C529 C 0.23008 0.33598 0.65344 0.0
C530 C 0.18362 0.37551 0.50716 0.0
C531 C 0.21407 0.37093 0.59789 0.0
C532 C 0.1768 0.39281 0.47044 0.0
C533 C 0.19193 0.42345 0.48742 0.0
C534 C 0.20576 0.38884 0.56165 0.0
C535 C 0.21377 0.43594 0.5435 0.0
C536 C 0.23604 0.38417 0.65365 0.0
C537 C 0.2079 0.32361 0.60029 0.0
N538 N 0.22002 0.41863 0.5783 0.0
N539 N 0.20067 0.34109 0.57397 0.0
H540 H 0.68263 0.62094 0.17553 0.0
H541 H 0.68712 0.77118 0.16065 0.0
H542 H 0.62507 0.62461 1.04955 0.0
H543 H 0.74527 0.76864 0.28646 0.0
H544 H 0.66429 0.71757 0.12026 0.0
H545 H 0.70594 0.67472 0.2161 0.0
C546 C 0.67486 0.63296 0.15605 0.0
C547 C 0.65173 0.61796 0.1089 0.0
C548 C 0.68203 0.72869 0.1568 0.0
C549 C 0.67846 0.67989 0.15578 0.0
C550 C 0.69513 0.75943 0.18015 0.0
C551 C 0.71827 0.77473 0.2273 0.0
C552 C 0.69201 0.7128 0.18046 0.0
C553 C 0.72754 0.75799 0.25028 0.0
C554 C 0.68822 0.66376 0.17945 0.0
C555 C 0.64276 0.63498 1.08577 0.0
N556 N 0.71444 0.72806 0.22665 0.0
N557 N 0.65607 0.66486 0.10947 0.0
H558 H 0.50073 0.98408 0.18606 0.0
H559 H 0.36527 0.88889 0.19653 0.0
H560 H 0.44556 0.94958 0.95698 0.0
H561 H 0.42011 0.92212 0.42596 0.0
H562 H 0.39451 0.91163 0.10849 0.0
H563 H 0.47159 0.96244 0.27566 0.0
C564 C 0.48249 0.97214 0.15462 0.0
C565 C 0.47562 0.96866 1.06366 0.0
C566 C 0.40018 0.91397 0.17808 0.0
C567 C 0.44211 0.94349 0.16595 0.0
C568 C 0.38347 0.90111 0.22859 0.0
C569 C 0.3902 0.90363 0.31901 0.0
C570 C 0.42389 0.92957 0.21801 0.0
C571 C 0.41409 0.91931 0.35639 0.0
C572 C 0.46586 0.95961 0.2058 0.0
C573 C 0.45171 0.95253 1.02653 0.0
N574 N 0.43005 0.93172 0.30581 0.0
N575 N 0.43586 0.94058 1.07774 0.0
H576 H 0.59227 0.16456 0.82191 0.0
H577 H 0.47218 0.14107 0.93009 0.0
H578 H 0.55283 0.1086 0.98941 0.0
H579 H 0.50623 0.19329 0.74581 0.0
H580 H 0.50328 0.13176 0.95696 0.0
H581 H 0.56332 0.17865 0.7994 0.0
C582 C 0.57783 0.15562 0.85515 0.0
C583 C 0.57515 0.13531 0.90778 0.0
C584 C 0.50409 0.14529 0.91055 0.0
C585 C 0.5417 0.15108 0.88137 0.0
C586 C 0.48618 0.15063 0.89497 0.0
C587 C 0.48631 0.16798 0.83517 0.0
C588 C 0.52264 0.15733 0.86639 0.0
C589 C 0.50521 0.17971 0.79226 0.0
C590 C 0.56117 0.16348 0.84163 0.0
C591 C 0.55578 0.12422 0.94799 0.0
N592 N 0.52253 0.17418 0.80859 0.0
N593 N 0.53998 0.13213 0.93383 0.0
H594 H 0.96091 0.28945 0.90896 0.0
H595 H 0.08856 0.40204 0.19418 0.0
H596 H 1.00354 0.2589 1.01462 0.0
H597 H 0.03332 0.41854 0.1924 0.0
H598 H 0.05971 0.35106 0.11607 0.0
H599 H 0.98921 0.33861 0.99879 0.0
C600 C 0.9762 0.29304 0.95121 0.0
C601 C 0.97975 0.26989 0.95437 0.0
C602 C 0.05395 0.36584 0.13357 0.0
C603 C 1.01256 0.32647 1.05652 0.0
C604 C 0.0704 0.39495 0.17805 0.0
C605 C 0.06342 0.41472 0.20045 0.0
C606 C 0.03042 0.35658 0.10926 0.0
C607 C 0.03959 0.40418 0.17736 0.0
C608 C 0.99233 0.32112 1.00271 0.0
C609 C 0.99996 0.27598 1.01059 0.0
N610 N 1.02407 0.37608 0.13234 0.0
N611 N 1.01571 0.30371 1.05865 0.0
H612 H 0.85698 0.60423 0.79853 0.0
H613 H 0.77212 0.62299 1.07552 0.0
H614 H 0.87603 0.68619 0.96343 0.0
H615 H 0.75343 0.54131 0.90981 0.0
H616 H 0.81028 0.64656 1.03603 0.0
H617 H 0.81921 0.5807 0.84073 0.0
C618 C 0.85328 0.61728 0.84393 0.0
C619 C 0.86973 0.64728 0.87734 0.0
C620 C 0.79785 0.62347 1.00848 0.0
C621 C 0.82636 0.62044 0.92579 0.0
C622 C 0.77597 0.61003 1.03051 0.0
C623 C 0.75946 0.58007 0.99599 0.0
C624 C 0.80333 0.6069 0.95134 0.0
C625 C 0.76564 0.56434 0.93901 0.0
C626 C 0.83166 0.60382 0.86788 0.0
C627 C 0.86385 0.66305 0.93569 0.0
N628 N 0.78701 0.57792 0.91849 0.0
N629 N 0.84268 0.64947 0.95795 0.0
H630 H 0.9512 0.61268 0.79287 0.0
H631 H 0.02948 0.61356 0.21503 0.0
H632 H 0.97459 0.67407 1.04091 0.0
H633 H 0.99602 0.54446 0.98095 0.0
H634 H 1.01166 0.63794 0.14995 0.0
H635 H 0.96935 0.58909 0.85881 0.0
C636 C 0.96013 0.62123 0.86132 0.0
C637 C 0.96134 0.64546 0.91137 0.0
C638 C 1.00821 0.61744 0.11289 0.0
C639 C 0.98231 0.61846 0.98736 0.0
C640 C 1.01851 0.60363 0.1497 0.0
C641 C 1.0142 0.57691 0.10336 0.0
C642 C 0.99365 0.60457 1.0288 0.0
C643 C 0.99961 0.56485 1.01942 0.0
C644 C 0.97048 0.60767 0.89897 0.0
C645 C 0.97313 0.65542 0.99983 0.0
N646 N 0.98991 0.57878 0.98483 0.0
N647 N 0.98323 0.64194 1.03493 0.0
H648 H 0.59139 0.42177 1.02208 0.0
H649 H 0.46223 0.29009 0.79542 0.0
H650 H 0.53382 0.43384 0.981 0.0
H651 H 0.50867 0.27532 0.95848 0.0
H652 H 0.49066 0.34313 0.84048 0.0
H653 H 0.56363 0.36821 0.97851 0.0
C654 C 0.57298 0.41323 1.00389 0.0
C655 C 0.56498 0.43244 1.00572 0.0
C656 C 0.49461 0.32828 0.86658 0.0
C657 C 0.53322 0.37127 0.95399 0.0
C658 C 0.47843 0.29799 0.84057 0.0
C659 C 0.48297 0.27818 0.87374 0.0
C660 C 0.51578 0.33901 0.92493 0.0
C661 C 0.50432 0.28979 0.9322 0.0
C662 C 0.55716 0.38268 0.97932 0.0
C663 C 0.54085 0.42 0.98138 0.0
N664 N 0.51999 0.31938 0.95549 0.0
N665 N 0.52593 0.39037 0.95583 0.0
H666 H 0.87673 0.17572 0.97498 0.0
H667 H 0.76484 0.17861 0.76875 0.0
H668 H 0.86486 0.19151 0.71643 0.0
H669 H 0.77788 0.16878 1.03468 0.0
H670 H 0.80095 0.18215 0.74845 0.0
H671 H 0.84063 0.17232 0.99838 0.0
C672 C 0.86666 0.17859 0.92317 0.0
C673 C 0.8741 0.18401 0.84355 0.0
C674 C 0.79597 0.17922 0.81137 0.0
C675 C 0.8324 0.17993 0.86993 0.0
C676 C 0.77514 0.17698 0.82292 0.0
C677 C 0.76798 0.1733 0.90366 0.0
C678 C 0.81001 0.17767 0.88076 0.0
C679 C 0.78261 0.17194 0.97152 0.0
C680 C 0.84597 0.1766 0.93661 0.0
C681 C 0.86005 0.18736 0.779 0.0
N682 N 0.80276 0.17403 0.9585 0.0
N683 N 0.84004 0.18523 0.79353 0.0
H684 H 0.60593 0.9973 0.85965 0.0
H685 H 0.70694 0.98946 0.14386 0.0
H686 H 0.67187 0.0733 1.00016 0.0
H687 H 0.64042 0.91277 1.01191 0.0
H688 H 0.6953 1.0202 1.08212 0.0
H689 H 0.6192 0.96576 0.9043 0.0
C690 C 0.62329 1.0074 0.89885 0.0
C691 C 0.63774 0.03805 0.92643 0.0
C692 C 0.68325 0.99663 1.0663 0.0
C693 C 0.65296 1.00203 0.97854 0.0
C694 C 0.68996 0.97901 1.10121 0.0
C695 C 0.67465 0.94839 1.08341 0.0
C696 C 0.66103 0.98368 1.01291 0.0
C697 C 0.6527 0.93627 1.02864 0.0
C698 C 0.63081 0.98935 0.92474 0.0
C699 C 0.66003 0.04981 0.97764 0.0
N700 N 0.64655 0.95391 0.99558 0.0
N701 N 0.66687 0.03183 1.00229 0.0
H702 H 0.18803 0.75101 0.39208 0.0
H703 H 0.18476 0.60152 0.40735 0.0
H704 H 0.2473 0.75021 0.51491 0.0
H705 H 0.12807 0.60549 0.27391 0.0
H706 H 0.20807 0.65544 0.44875 0.0
H707 H 0.16597 0.69756 0.35127 0.0
C708 C 0.19647 0.73967 0.41084 0.0
C709 C 0.21969 0.75544 0.45728 0.0
C710 C 0.19054 0.64446 0.41019 0.0
C711 C 0.19423 0.69353 0.40995 0.0
C712 C 0.17721 0.61362 0.3863 0.0
C713 C 0.1543 0.59866 0.33682 0.0
C714 C 0.18095 0.66062 0.38478 0.0
C715 C 0.14557 0.61577 0.31192 0.0
C716 C 0.18379 0.70898 0.3872 0.0
C717 C 0.22949 0.73916 0.47928 0.0
N718 N 0.15881 0.64559 0.33623 0.0
N719 N 0.21675 0.7092 0.4555 0.0
H720 H 0.44815 0.46085 0.14766 0.0
H721 H 0.42521 0.42863 0.62422 0.0
H722 H 0.50269 0.49028 0.37524 0.0
H723 H 0.37028 0.39989 0.39876 0.0
H724 H 0.45379 0.45147 0.53368 0.0
H725 H 0.41931 0.43876 0.23829 0.0
C726 C 0.45408 0.46285 0.21677 0.0
C727 C 0.47792 0.47741 0.25371 0.0
C728 C 0.43548 0.44016 0.50392 0.0
C729 C 0.44496 0.45186 0.35774 0.0
C730 C 0.41914 0.42723 0.55577 0.0
C731 C 0.39526 0.41232 0.51923 0.0
C732 C 0.42798 0.43828 0.41465 0.0
C733 C 0.38847 0.41083 0.4296 0.0
C734 C 0.4376 0.45006 0.26838 0.0
C735 C 0.48453 0.47892 0.34348 0.0
N736 N 0.40473 0.42367 0.38049 0.0
N737 N 0.46817 0.46632 0.39226 0.0
H738 H 0.93852 0.77631 0.71262 0.0
H739 H 0.82386 0.76217 0.46057 0.0
H740 H 0.87385 0.69326 0.60982 0.0
H741 H 0.89243 0.84007 0.50122 0.0
H742 H 0.84107 0.73784 0.52975 0.0
H743 H 0.92121 0.80098 0.64643 0.0
C744 C 0.9207 0.76325 0.67596 0.0
C745 C 0.90762 0.73267 0.66667 0.0
C746 C 0.85234 0.76015 0.52263 0.0
C747 C 0.88765 0.76081 0.59151 0.0
C748 C 0.84251 0.77419 0.48412 0.0
C749 C 0.85671 0.80322 0.47475 0.0
C750 C 0.87656 0.77516 0.55169 0.0
C751 C 0.88082 0.81755 0.50571 0.0
C752 C 0.91084 0.77735 0.63813 0.0
C753 C 0.8846 0.71687 0.61841 0.0
N754 N 0.88997 0.80338 0.54272 0.0
N755 N 0.87531 0.73113 0.58302 0.0
H756 H 0.36367 0.09269 0.81189 0.0
H757 H 0.32683 0.94214 0.49106 0.0
H758 H 0.39776 0.08939 0.59943 0.0
H759 H 0.28253 0.94936 0.65379 0.0
H760 H 0.3542 0.99534 0.53593 0.0
H761 H 0.33528 0.03989 0.76173 0.0
C762 C 0.36526 0.08094 0.75471 0.0
C763 C 0.38328 0.09576 0.71004 0.0
C764 C 0.33844 0.98534 0.56153 0.0
C765 C 0.35065 0.03482 0.65231 0.0
C766 C 0.32276 0.95487 0.53598 0.0
C767 C 0.30219 0.94103 0.56839 0.0
C768 C 0.33384 1.00233 0.62117 0.0
C769 C 0.29803 0.95892 0.62659 0.0
C770 C 0.34892 0.05071 0.7259 0.0
C771 C 0.38421 0.0791 0.63603 0.0
N772 N 0.31373 0.98848 0.65147 0.0
N773 N 0.36828 0.04963 0.60997 0.0
H774 H 1.01009 0.23137 0.68262 0.0
H775 H 0.09241 0.16744 0.75432 0.0
H776 H 0.99377 0.1595 0.81192 0.0
H777 H 0.10919 0.24023 0.6288 0.0
H778 H 0.05632 0.16403 0.77504 0.0
H779 H 0.04626 0.23485 0.66231 0.0
C780 C 1.01405 0.21629 0.7069 0.0
C781 C 0.99865 0.19508 0.74919 0.0
C782 C 0.06789 0.18077 0.74298 0.0
C783 C 0.04042 0.19899 0.72581 0.0
C784 C 0.08855 0.18265 0.73054 0.0
C785 C 0.10414 0.20416 0.68942 0.0
C786 C 0.06247 0.20047 0.71405 0.0
C787 C 0.09806 0.2235 0.6618 0.0
C788 C 0.0348 0.21831 0.6952 0.0
C789 C 1.00496 0.17622 0.77896 0.0
N790 N 0.07782 0.22114 0.67439 0.0
N791 N 1.02524 0.17861 0.76669 0.0
H792 H 0.37101 0.20088 0.88015 0.0
H793 H 0.30663 0.25136 0.55619 0.0
H794 H 0.37645 0.19887 0.60804 0.0
H795 H 0.28028 0.21887 0.78151 0.0
H796 H 0.33367 0.23482 0.57781 0.0
H797 H 0.33971 0.21037 0.85089 0.0
C798 C 0.36563 0.20235 0.81416 0.0
C799 C 0.37654 0.19902 0.74655 0.0
C800 C 0.32179 0.23089 0.62196 0.0
C801 C 0.34068 0.21032 0.71282 0.0
C802 C 0.30624 0.24026 0.60946 0.0
C803 C 0.29087 0.23622 0.66641 0.0
C804 C 0.32265 0.21803 0.69368 0.0
C805 C 0.29148 0.22202 0.73503 0.0
C806 C 0.34765 0.20765 0.79747 0.0
C807 C 0.36862 0.20113 0.66236 0.0
N808 N 0.30731 0.21385 0.74751 0.0
N809 N 0.35147 0.20693 0.64827 0.0
H810 H 0.78072 0.96488 0.4351 0.0
H811 H 0.91312 0.10178 0.54939 0.0
H812 H 0.83516 0.96202 0.32939 0.0
H813 H 0.86031 0.09647 0.68536 0.0
H814 H 0.88466 0.05234 0.45977 0.0
H815 H 0.80907 1.01516 0.51485 0.0
C816 C 0.79859 0.97484 0.42786 0.0
C817 C 0.80546 0.95889 0.37546 0.0
C818 C 0.87922 0.06216 0.50833 0.0
C819 C 0.83831 1.01691 0.46801 0.0
C820 C 0.89545 0.0904 0.55935 0.0
C821 C 0.88903 0.10335 0.62445 0.0
C822 C 0.85622 0.04706 0.52079 0.0
C823 C 0.86602 0.08733 0.63592 0.0
C824 C 0.81485 1.00363 0.47399 0.0
C825 C 0.82899 0.97328 0.36915 0.0
N826 N 0.85046 0.06022 0.58433 0.0
N827 N 0.84454 1.00136 0.41501 0.0
H828 H 1.01888 0.75059 0.84977 0.0
H829 H 0.08585 0.76751 0.45236 0.0
H830 H 0.98354 0.7061 0.58017 0.0
H831 H 0.12023 0.80609 0.72539 0.0
H832 H 0.04825 0.74523 0.49649 0.0
H833 H 0.056 0.77137 0.80408 0.0
C834 C 1.01886 0.74516 0.78081 0.0
C835 C 0.99791 0.72653 0.71877 0.0
C836 C 0.06402 0.7585 0.54674 0.0
C837 C 0.04071 0.75045 0.66581 0.0
C838 C 0.08552 0.77136 0.52158 0.0
C839 C 0.10632 0.78877 0.58521 0.0
C840 C 0.06323 0.76317 0.63625 0.0
C841 C 0.10474 0.79259 0.67402 0.0
C842 C 0.04016 0.75705 0.75478 0.0
C843 C 0.99918 0.72033 0.63041 0.0
N844 N 0.08362 0.78002 0.69674 0.0
N845 N 1.02019 0.73231 0.60657 0.0
loop_
_geom_bond_atom_site_label_1
_geom_bond_atom_site_label_2
_geom_bond_distance
_geom_bond_site_symmetry_2
_ccdc_geom_bond_type
Tb0 C10 2.825 . S
Tb0 O11 2.347 . S
Tb0 O14 2.366 . S
Tb0 O19 2.418 1_554 S
Tb0 O20 2.384 . S
Tb0 O23 2.479 . S
Tb0 O24 2.471 . S
Eu1 O12 2.418 . S
Eu1 O13 2.384 . S
Eu1 O16 2.479 1_455 S
Eu1 O17 2.471 1_554 S
Eu1 O18 2.347 1_554 S
Eu1 O21 2.366 . S
Eu1 C31 2.825 1_455 S
C2 O18 1.259 . S
C2 O19 1.265 . S
C3 O20 1.255 . S
C3 O21 1.265 . S
C4 C6 1.380 . S
C4 C7 1.374 . S
C4 C10 1.507 . S
C5 C6 1.384 . S
C5 C9 1.387 . S
C5 H32 0.930 . S
C6 C4 1.380 . S
C6 C5 1.384 . S
C6 H33 0.931 . S
C7 C4 1.374 . S
C7 C8 1.390 . S
C7 H34 0.930 . S
C8 C7 1.390 . S
C8 C9 1.391 . S
C8 H35 0.930 . S
C9 C5 1.387 . S
C9 C8 1.391 . S
C10 Tb0 2.825 . S
C10 C4 1.507 . S
C10 O23 1.238 . S
C10 O24 1.247 . S
O11 Tb0 2.347 . S
O11 C15 1.259 . S
O12 Eu1 2.418 . S
O12 C15 1.265 . S
O13 Eu1 2.384 . S
O13 C22 1.255 . S
O14 Tb0 2.366 . S
O14 C22 1.265 . S
C15 O11 1.259 . S
C15 O12 1.265 . S
O16 Eu1 2.479 1_655 S
O16 C31 1.238 . S
O17 Eu1 2.471 1_556 S
O17 C31 1.247 1_456 S
O18 Eu1 2.347 1_556 S
O18 C2 1.259 . S
O19 Tb0 2.418 1_556 S
O19 C2 1.265 . S
O20 Tb0 2.384 . S
O20 C3 1.255 . S
O21 Eu1 2.366 . S
O21 C3 1.265 . S
C22 O13 1.255 . S
C22 O14 1.265 . S
O23 Tb0 2.479 . S
O23 C10 1.238 . S
O24 Tb0 2.471 . S
O24 C10 1.247 . S
C25 C28 1.380 . S
C25 C29 1.374 1_554 S
C25 C31 1.507 . S
C26 C27 1.387 1_556 S
C26 C30 1.391 . S
C27 C26 1.387 1_554 S
C27 C28 1.384 . S
C27 H36 0.930 . S
C28 C25 1.380 . S
C28 C27 1.384 . S
C28 H37 0.931 . S
C29 C25 1.374 1_556 S
C29 C30 1.390 . S
C29 H38 0.930 1_655 S
C30 C26 1.391 . S
C30 C29 1.390 . S
C30 H39 0.930 . S
C31 Eu1 2.825 1_655 S
C31 O16 1.238 . S
C31 O17 1.247 1_654 S
C31 C25 1.507 . S
H32 C5 0.930 . S
H33 C6 0.931 . S
H34 C7 0.930 . S
H35 C8 0.930 . S
H36 C27 0.930 . S
H37 C28 0.931 . S
H38 C29 0.930 1_455 S
H39 C30 0.930 . S
Tb40 C50 2.825 . S
Tb40 O51 2.347 . S
Tb40 O54 2.366 . S
Tb40 O59 2.418 . S
Tb40 O60 2.384 . S
Tb40 O63 2.479 . S
Tb40 O64 2.471 . S
Eu41 O52 2.418 1_554 S
Eu41 O53 2.384 . S
Eu41 O56 2.479 . S
Eu41 O57 2.471 . S
Eu41 O58 2.347 . S
Eu41 O61 2.366 . S
Eu41 C71 2.825 . S
C42 O58 1.259 . S
C42 O59 1.265 . S
C43 O60 1.255 . S
C43 O61 1.265 . S
C44 C46 1.380 . S
C44 C47 1.374 . S
C44 C50 1.507 . S
C45 C46 1.384 . S
C45 C49 1.387 . S
C45 H72 0.930 . S
C46 C44 1.380 . S
C46 C45 1.384 . S
C46 H73 0.931 . S
C47 C44 1.374 . S
C47 C48 1.390 . S
C47 H74 0.930 . S
C48 C47 1.390 . S
C48 C49 1.391 . S
C48 H75 0.930 . S
C49 C45 1.387 . S
C49 C48 1.391 . S
C50 Tb40 2.825 . S
C50 C44 1.507 . S
C50 O63 1.238 . S
C50 O64 1.247 . S
O51 Tb40 2.347 . S
O51 C55 1.259 1_554 S
O52 Eu41 2.418 1_556 S
O52 C55 1.265 . S
O53 Eu41 2.384 . S
O53 C62 1.255 . S
O54 Tb40 2.366 . S
O54 C62 1.265 . S
C55 O51 1.259 1_556 S
C55 O52 1.265 . S
O56 Eu41 2.479 . S
O56 C71 1.238 . S
O57 Eu41 2.471 . S
O57 C71 1.247 . S
O58 Eu41 2.347 . S
O58 C42 1.259 . S
O59 Tb40 2.418 . S
O59 C42 1.265 . S
O60 Tb40 2.384 . S
O60 C43 1.255 . S
O61 Eu41 2.366 . S
O61 C43 1.265 . S
C62 O53 1.255 . S
C62 O54 1.265 . S
O63 Tb40 2.479 . S
O63 C50 1.238 . S
O64 Tb40 2.471 . S
O64 C50 1.247 . S
C65 C68 1.380 . S
C65 C69 1.374 . S
C65 C71 1.507 . S
C66 C67 1.387 . S
C66 C70 1.391 . S
C67 C66 1.387 . S
C67 C68 1.384 . S
C67 H76 0.930 . S
C68 C65 1.380 . S
C68 C67 1.384 . S
C68 H77 0.931 . S
C69 C65 1.374 . S
C69 C70 1.390 . S
C69 H78 0.930 . S
C70 C66 1.391 . S
C70 C69 1.390 . S
C70 H79 0.930 . S
C71 Eu41 2.825 . S
C71 O56 1.238 . S
C71 O57 1.247 . S
C71 C65 1.507 . S
H72 C45 0.930 . S
H73 C46 0.931 . S
H74 C47 0.930 . S
H75 C48 0.930 . S
H76 C67 0.930 . S
H77 C68 0.931 . S
H78 C69 0.930 . S
H79 C70 0.930 . S
Tb80 C90 2.825 . S
Tb80 O91 2.347 . S
Tb80 O94 2.366 . S
Tb80 O99 2.418 1_554 S
Tb80 O100 2.384 . S
Tb80 O103 2.479 . S
Tb80 O104 2.471 . S
Eu81 O92 2.418 . S
Eu81 O93 2.384 . S
Eu81 O96 2.479 . S
Eu81 O97 2.471 . S
Eu81 O98 2.347 . S
Eu81 O101 2.366 . S
Eu81 C111 2.825 . S
C82 O98 1.259 1_556 S
C82 O99 1.265 . S
C83 O100 1.255 . S
C83 O101 1.265 . S
C84 C86 1.380 . S
C84 C87 1.374 . S
C84 C90 1.507 . S
C85 C86 1.384 . S
C85 C89 1.387 . S
C85 H112 0.930 1_545 S
C86 C84 1.380 . S
C86 C85 1.384 . S
C86 H113 0.931 . S
C87 C84 1.374 . S
C87 C88 1.390 . S
C87 H114 0.930 . S
C88 C87 1.390 . S
C88 C89 1.391 . S
C88 H115 0.930 . S
C89 C85 1.387 . S
C89 C88 1.391 . S
C90 Tb80 2.825 . S
C90 C84 1.507 . S
C90 O103 1.238 . S
C90 O104 1.247 . S
O91 Tb80 2.347 . S
O91 C95 1.259 . S
O92 Eu81 2.418 . S
O92 C95 1.265 . S
O93 Eu81 2.384 . S
O93 C102 1.255 . S
O94 Tb80 2.366 . S
O94 C102 1.265 . S
C95 O91 1.259 . S
C95 O92 1.265 . S
O96 Eu81 2.479 . S
O96 C111 1.238 . S
O97 Eu81 2.471 . S
O97 C111 1.247 . S
O98 Eu81 2.347 . S
O98 C82 1.259 1_554 S
O99 Tb80 2.418 1_556 S
O99 C82 1.265 . S
O100 Tb80 2.384 . S
O100 C83 1.255 . S
O101 Eu81 2.366 . S
O101 C83 1.265 . S
C102 O93 1.255 . S
C102 O94 1.265 . S
O103 Tb80 2.479 . S
O103 C90 1.238 . S
O104 Tb80 2.471 . S
O104 C90 1.247 . S
C105 C108 1.380 . S
C105 C109 1.374 . S
C105 C111 1.507 . S
C106 C107 1.387 . S
C106 C110 1.391 . S
C107 C106 1.387 . S
C107 C108 1.384 . S
C107 H116 0.930 . S
C108 C105 1.380 . S
C108 C107 1.384 . S
C108 H117 0.931 . S
C109 C105 1.374 . S
C109 C110 1.390 . S
C109 H118 0.930 . S
C110 C106 1.391 . S
C110 C109 1.390 . S
C110 H119 0.930 . S
C111 Eu81 2.825 . S
C111 O96 1.238 . S
C111 O97 1.247 . S
C111 C105 1.507 . S
H112 C85 0.930 1_565 S
H113 C86 0.931 . S
H114 C87 0.930 . S
H115 C88 0.930 . S
H116 C107 0.930 . S
H117 C108 0.931 . S
H118 C109 0.930 . S
H119 C110 0.930 . S
Tb120 C130 2.825 . S
Tb120 O131 2.347 . S
Tb120 O134 2.366 . S
Tb120 O139 2.418 . S
Tb120 O140 2.384 . S
Tb120 O143 2.479 . S
Tb120 O144 2.471 . S
Eu121 O132 2.418 . S
Eu121 O133 2.384 . S
Eu121 O136 2.479 . S
Eu121 O137 2.471 . S
Eu121 O138 2.347 . S
Eu121 O141 2.366 . S
Eu121 C151 2.825 . S
C122 O138 1.259 . S
C122 O139 1.265 . S
C123 O140 1.255 . S
C123 O141 1.265 . S
C124 C126 1.380 . S
C124 C127 1.374 . S
C124 C130 1.507 . S
C125 C126 1.384 . S
C125 C129 1.387 . S
C125 H152 0.930 . S
C126 C124 1.380 . S
C126 C125 1.384 . S
C126 H153 0.931 . S
C127 C124 1.374 . S
C127 C128 1.390 . S
C127 H154 0.930 . S
C128 C127 1.390 . S
C128 C129 1.391 . S
C128 H155 0.930 . S
C129 C125 1.387 . S
C129 C128 1.391 . S
C130 Tb120 2.825 . S
C130 C124 1.507 . S
C130 O143 1.238 . S
C130 O144 1.247 . S
O131 Tb120 2.347 . S
O131 C135 1.259 . S
O132 Eu121 2.418 . S
O132 C135 1.265 . S
O133 Eu121 2.384 . S
O133 C142 1.255 . S
O134 Tb120 2.366 . S
O134 C142 1.265 . S
C135 O131 1.259 . S
C135 O132 1.265 . S
O136 Eu121 2.479 . S
O136 C151 1.238 . S
O137 Eu121 2.471 . S
O137 C151 1.247 . S
O138 Eu121 2.347 . S
O138 C122 1.259 . S
O139 Tb120 2.418 . S
O139 C122 1.265 . S
O140 Tb120 2.384 . S
O140 C123 1.255 . S
O141 Eu121 2.366 . S
O141 C123 1.265 . S
C142 O133 1.255 . S
C142 O134 1.265 . S
O143 Tb120 2.479 . S
O143 C130 1.238 . S
O144 Tb120 2.471 . S
O144 C130 1.247 . S
C145 C148 1.380 . S
C145 C149 1.374 . S
C145 C151 1.507 . S
C146 C147 1.387 . S
C146 C150 1.391 . S
C147 C146 1.387 . S
C147 C148 1.384 . S
C147 H156 0.930 . S
C148 C145 1.380 . S
C148 C147 1.384 . S
C148 H157 0.931 . S
C149 C145 1.374 . S
C149 C150 1.390 . S
C149 H158 0.930 . S
C150 C146 1.391 . S
C150 C149 1.390 . S
C150 H159 0.930 . S
C151 Eu121 2.825 . S
C151 O136 1.238 . S
C151 O137 1.247 . S
C151 C145 1.507 . S
H152 C125 0.930 . S
H153 C126 0.931 . S
H154 C127 0.930 . S
H155 C128 0.930 . S
H156 C147 0.930 . S
H157 C148 0.931 . S
H158 C149 0.930 . S
H159 C150 0.930 . S
Tb160 C170 2.825 . S
Tb160 O171 2.347 . S
Tb160 O174 2.366 . S
Tb160 O179 2.418 . S
Tb160 O180 2.384 . S
Tb160 O183 2.479 . S
Tb160 O184 2.471 . S
Eu161 O172 2.418 . S
Eu161 O173 2.384 . S
Eu161 O176 2.479 . S
Eu161 O177 2.471 . S
Eu161 O178 2.347 . S
Eu161 O181 2.366 . S
Eu161 C191 2.825 . S
C162 O178 1.259 . S
C162 O179 1.265 . S
C163 O180 1.255 . S
C163 O181 1.265 . S
C164 C166 1.380 . S
C164 C167 1.374 . S
C164 C170 1.507 . S
C165 C166 1.384 . S
C165 C169 1.387 . S
C165 H192 0.930 . S
C166 C164 1.380 . S
C166 C165 1.384 . S
C166 H193 0.931 . S
C167 C164 1.374 . S
C167 C168 1.390 . S
C167 H194 0.930 . S
C168 C167 1.390 . S
C168 C169 1.391 . S
C168 H195 0.930 . S
C169 C165 1.387 . S
C169 C168 1.391 . S
C170 Tb160 2.825 . S
C170 C164 1.507 . S
C170 O183 1.238 . S
C170 O184 1.247 . S
O171 Tb160 2.347 . S
O171 C175 1.259 . S
O172 Eu161 2.418 . S
O172 C175 1.265 . S
O173 Eu161 2.384 . S
O173 C182 1.255 . S
O174 Tb160 2.366 . S
O174 C182 1.265 . S
C175 O171 1.259 . S
C175 O172 1.265 . S
O176 Eu161 2.479 . S
O176 C191 1.238 . S
O177 Eu161 2.471 . S
O177 C191 1.247 . S
O178 Eu161 2.347 . S
O178 C162 1.259 . S
O179 Tb160 2.418 . S
O179 C162 1.265 . S
O180 Tb160 2.384 . S
O180 C163 1.255 . S
O181 Eu161 2.366 . S
O181 C163 1.265 . S
C182 O173 1.255 . S
C182 O174 1.265 . S
O183 Tb160 2.479 . S
O183 C170 1.238 . S
O184 Tb160 2.471 . S
O184 C170 1.247 . S
C185 C188 1.380 . S
C185 C189 1.374 . S
C185 C191 1.507 . S
C186 C187 1.387 . S
C186 C190 1.391 . S
C187 C186 1.387 . S
C187 C188 1.384 . S
C187 H196 0.930 . S
C188 C185 1.380 . S
C188 C187 1.384 . S
C188 H197 0.931 . S
C189 C185 1.374 . S
C189 C190 1.390 . S
C189 H198 0.930 . S
C190 C186 1.391 . S
C190 C189 1.390 . S
C190 H199 0.930 . S
C191 Eu161 2.825 . S
C191 O176 1.238 . S
C191 O177 1.247 . S
C191 C185 1.507 . S
H192 C165 0.930 . S
H193 C166 0.931 . S
H194 C167 0.930 . S
H195 C168 0.930 . S
H196 C187 0.930 . S
H197 C188 0.931 . S
H198 C189 0.930 . S
H199 C190 0.930 . S
Tb200 C210 2.825 . S
Tb200 O211 2.347 . S
Tb200 O214 2.366 . S
Tb200 O219 2.418 . S
Tb200 O220 2.384 . S
Tb200 O223 2.479 . S
Tb200 O224 2.471 . S
Eu201 O212 2.418 . S
Eu201 O213 2.384 . S
Eu201 O216 2.479 . S
Eu201 O217 2.471 . S
Eu201 O218 2.347 . S
Eu201 O221 2.366 . S
Eu201 C231 2.825 . S
C202 O218 1.259 . S
C202 O219 1.265 . S
C203 O220 1.255 . S
C203 O221 1.265 . S
C204 C206 1.380 . S
C204 C207 1.374 . S
C204 C210 1.507 . S
C205 C206 1.384 . S
C205 C209 1.387 . S
C205 H232 0.930 . S
C206 C204 1.380 . S
C206 C205 1.384 . S
C206 H233 0.931 . S
C207 C204 1.374 . S
C207 C208 1.390 . S
C207 H234 0.930 . S
C208 C207 1.390 . S
C208 C209 1.391 . S
C208 H235 0.930 . S
C209 C205 1.387 . S
C209 C208 1.391 . S
C210 Tb200 2.825 . S
C210 C204 1.507 . S
C210 O223 1.238 . S
C210 O224 1.247 . S
O211 Tb200 2.347 . S
O211 C215 1.259 . S
O212 Eu201 2.418 . S
O212 C215 1.265 . S
O213 Eu201 2.384 . S
O213 C222 1.255 . S
O214 Tb200 2.366 . S
O214 C222 1.265 . S
C215 O211 1.259 . S
C215 O212 1.265 . S
O216 Eu201 2.479 . S
O216 C231 1.238 . S
O217 Eu201 2.471 . S
O217 C231 1.247 . S
O218 Eu201 2.347 . S
O218 C202 1.259 . S
O219 Tb200 2.418 . S
O219 C202 1.265 . S
O220 Tb200 2.384 . S
O220 C203 1.255 . S
O221 Eu201 2.366 . S
O221 C203 1.265 . S
C222 O213 1.255 . S
C222 O214 1.265 . S
O223 Tb200 2.479 . S
O223 C210 1.238 . S
O224 Tb200 2.471 . S
O224 C210 1.247 . S
C225 C228 1.380 . S
C225 C229 1.374 . S
C225 C231 1.507 . S
C226 C227 1.387 . S
C226 C230 1.391 . S
C227 C226 1.387 . S
C227 C228 1.384 . S
C227 H236 0.930 . S
C228 C225 1.380 . S
C228 C227 1.384 . S
C228 H237 0.931 . S
C229 C225 1.374 . S
C229 C230 1.390 . S
C229 H238 0.930 . S
C230 C226 1.391 . S
C230 C229 1.390 . S
C230 H239 0.930 . S
C231 Eu201 2.825 . S
C231 O216 1.238 . S
C231 O217 1.247 . S
C231 C225 1.507 . S
H232 C205 0.930 . S
H233 C206 0.931 . S
H234 C207 0.930 . S
H235 C208 0.930 . S
H236 C227 0.930 . S
H237 C228 0.931 . S
H238 C229 0.930 . S
H239 C230 0.930 . S
Tb240 C250 2.825 . S
Tb240 O251 2.347 . S
Tb240 O254 2.366 . S
Tb240 O259 2.418 . S
Tb240 O260 2.384 . S
Tb240 O263 2.479 . S
Tb240 O264 2.471 . S
Eu241 O252 2.418 . S
Eu241 O253 2.384 . S
Eu241 O256 2.479 . S
Eu241 O257 2.471 . S
Eu241 O258 2.347 . S
Eu241 O261 2.366 . S
Eu241 C271 2.825 . S
C242 O258 1.259 . S
C242 O259 1.265 . S
C243 O260 1.255 . S
C243 O261 1.265 . S
C244 C246 1.380 . S
C244 C247 1.374 . S
C244 C250 1.507 . S
C245 C246 1.384 . S
C245 C249 1.387 . S
C245 H272 0.930 . S
C246 C244 1.380 . S
C246 C245 1.384 . S
C246 H273 0.931 . S
C247 C244 1.374 . S
C247 C248 1.390 . S
C247 H274 0.930 . S
C248 C247 1.390 . S
C248 C249 1.391 . S
C248 H275 0.930 . S
C249 C245 1.387 . S
C249 C248 1.391 . S
C250 Tb240 2.825 . S
C250 C244 1.507 . S
C250 O263 1.238 . S
C250 O264 1.247 . S
O251 Tb240 2.347 . S
O251 C255 1.259 . S
O252 Eu241 2.418 . S
O252 C255 1.265 . S
O253 Eu241 2.384 . S
O253 C262 1.255 . S
O254 Tb240 2.366 . S
O254 C262 1.265 . S
C255 O251 1.259 . S
C255 O252 1.265 . S
O256 Eu241 2.479 . S
O256 C271 1.238 . S
O257 Eu241 2.471 . S
O257 C271 1.247 . S
O258 Eu241 2.347 . S
O258 C242 1.259 . S
O259 Tb240 2.418 . S
O259 C242 1.265 . S
O260 Tb240 2.384 . S
O260 C243 1.255 . S
O261 Eu241 2.366 . S
O261 C243 1.265 . S
C262 O253 1.255 . S
C262 O254 1.265 . S
O263 Tb240 2.479 . S
O263 C250 1.238 . S
O264 Tb240 2.471 . S
O264 C250 1.247 . S
C265 C268 1.380 1_556 S
C265 C269 1.374 1_556 S
C265 C271 1.507 . S
C266 C267 1.387 . S
C266 C270 1.391 . S
C267 C266 1.387 . S
C267 C268 1.384 . S
C267 H276 0.930 . S
C268 C265 1.380 1_554 S
C268 C267 1.384 . S
C268 H277 0.931 1_554 S
C269 C265 1.374 1_554 S
C269 C270 1.390 . S
C269 H278 0.930 . S
C270 C266 1.391 . S
C270 C269 1.390 . S
C270 H279 0.930 . S
C271 Eu241 2.825 . S
C271 O256 1.238 . S
C271 O257 1.247 . S
C271 C265 1.507 . S
H272 C245 0.930 . S
H273 C246 0.931 . S
H274 C247 0.930 . S
H275 C248 0.930 . S
H276 C267 0.930 . S
H277 C268 0.931 1_556 S
H278 C269 0.930 . S
H279 C270 0.930 . S
Tb280 C290 2.825 . S
Tb280 O291 2.347 . S
Tb280 O294 2.366 . S
Tb280 O299 2.418 . S
Tb280 O300 2.384 . S
Tb280 O303 2.479 . S
Tb280 O304 2.471 . S
Eu281 O292 2.418 . S
Eu281 O293 2.384 . S
Eu281 O296 2.479 . S
Eu281 O297 2.471 . S
Eu281 O298 2.347 . S
Eu281 O301 2.366 . S
Eu281 C311 2.825 . S
C282 O298 1.259 . S
C282 O299 1.265 . S
C283 O300 1.255 . S
C283 O301 1.265 . S
C284 C286 1.380 1_556 S
C284 C287 1.374 1_556 S
C284 C290 1.507 . S
C285 C286 1.384 . S
C285 C289 1.387 . S
C285 H312 0.930 . S
C286 C284 1.380 1_554 S
C286 C285 1.384 . S
C286 H313 0.931 1_554 S
C287 C284 1.374 1_554 S
C287 C288 1.390 . S
C287 H314 0.930 . S
C288 C287 1.390 . S
C288 C289 1.391 . S
C288 H315 0.930 . S
C289 C285 1.387 . S
C289 C288 1.391 . S
C290 Tb280 2.825 . S
C290 C284 1.507 . S
C290 O303 1.238 . S
C290 O304 1.247 . S
O291 Tb280 2.347 . S
O291 C295 1.259 . S
O292 Eu281 2.418 . S
O292 C295 1.265 . S
O293 Eu281 2.384 . S
O293 C302 1.255 . S
O294 Tb280 2.366 . S
O294 C302 1.265 . S
C295 O291 1.259 . S
C295 O292 1.265 . S
O296 Eu281 2.479 . S
O296 C311 1.238 . S
O297 Eu281 2.471 . S
O297 C311 1.247 . S
O298 Eu281 2.347 . S
O298 C282 1.259 . S
O299 Tb280 2.418 . S
O299 C282 1.265 . S
O300 Tb280 2.384 . S
O300 C283 1.255 . S
O301 Eu281 2.366 . S
O301 C283 1.265 . S
C302 O293 1.255 . S
C302 O294 1.265 . S
O303 Tb280 2.479 . S
O303 C290 1.238 . S
O304 Tb280 2.471 . S
O304 C290 1.247 . S
C305 C308 1.380 . S
C305 C309 1.374 . S
C305 C311 1.507 . S
C306 C307 1.387 . S
C306 C310 1.391 . S
C307 C306 1.387 . S
C307 C308 1.384 . S
C307 H316 0.930 . S
C308 C305 1.380 . S
C308 C307 1.384 . S
C308 H317 0.931 . S
C309 C305 1.374 . S
C309 C310 1.390 . S
C309 H318 0.930 . S
C310 C306 1.391 . S
C310 C309 1.390 . S
C310 H319 0.930 . S
C311 Eu281 2.825 . S
C311 O296 1.238 . S
C311 O297 1.247 . S
C311 C305 1.507 . S
H312 C285 0.930 . S
H313 C286 0.931 1_556 S
H314 C287 0.930 . S
H315 C288 0.930 . S
H316 C307 0.930 . S
H317 C308 0.931 . S
H318 C309 0.930 . S
H319 C310 0.930 . S
Tb320 C330 2.825 . S
Tb320 O331 2.347 . S
Tb320 O334 2.366 . S
Tb320 O339 2.418 . S
Tb320 O340 2.384 . S
Tb320 O343 2.479 . S
Tb320 O344 2.471 . S
Eu321 O332 2.418 . S
Eu321 O333 2.384 . S
Eu321 O336 2.479 . S
Eu321 O337 2.471 . S
Eu321 O338 2.347 . S
Eu321 O341 2.366 . S
Eu321 C351 2.825 . S
C322 O338 1.259 . S
C322 O339 1.265 . S
C323 O340 1.255 . S
C323 O341 1.265 . S
C324 C326 1.380 . S
C324 C327 1.374 . S
C324 C330 1.507 . S
C325 C326 1.384 . S
C325 C329 1.387 . S
C325 H352 0.930 . S
C326 C324 1.380 . S
C326 C325 1.384 . S
C326 H353 0.931 . S
C327 C324 1.374 . S
C327 C328 1.390 . S
C327 H354 0.930 . S
C328 C327 1.390 . S
C328 C329 1.391 . S
C328 H355 0.930 . S
C329 C325 1.387 . S
C329 C328 1.391 . S
C330 Tb320 2.825 . S
C330 C324 1.507 . S
C330 O343 1.238 . S
C330 O344 1.247 . S
O331 Tb320 2.347 . S
O331 C335 1.259 . S
O332 Eu321 2.418 . S
O332 C335 1.265 . S
O333 Eu321 2.384 . S
O333 C342 1.255 . S
O334 Tb320 2.366 . S
O334 C342 1.265 . S
C335 O331 1.259 . S
C335 O332 1.265 . S
O336 Eu321 2.479 . S
O336 C351 1.238 . S
O337 Eu321 2.471 . S
O337 C351 1.247 . S
O338 Eu321 2.347 . S
O338 C322 1.259 . S
O339 Tb320 2.418 . S
O339 C322 1.265 . S
O340 Tb320 2.384 . S
O340 C323 1.255 . S
O341 Eu321 2.366 . S
O341 C323 1.265 . S
C342 O333 1.255 . S
C342 O334 1.265 . S
O343 Tb320 2.479 . S
O343 C330 1.238 . S
O344 Tb320 2.471 . S
O344 C330 1.247 . S
C345 C348 1.380 . S
C345 C349 1.374 . S
C345 C351 1.507 1_554 S
C346 C347 1.387 . S
C346 C350 1.391 . S
C347 C346 1.387 . S
C347 C348 1.384 . S
C347 H356 0.930 . S
C348 C345 1.380 . S
C348 C347 1.384 . S
C348 H357 0.931 . S
C349 C345 1.374 . S
C349 C350 1.390 . S
C349 H358 0.930 . S
C350 C346 1.391 . S
C350 C349 1.390 . S
C350 H359 0.930 . S
C351 Eu321 2.825 . S
C351 O336 1.238 . S
C351 O337 1.247 . S
C351 C345 1.507 1_556 S
H352 C325 0.930 . S
H353 C326 0.931 . S
H354 C327 0.930 . S
H355 C328 0.930 . S
H356 C347 0.930 . S
H357 C348 0.931 . S
H358 C349 0.930 . S
H359 C350 0.930 . S
H360 C366 0.930 . S
H361 C370 0.930 . S
H362 C375 0.929 . S
H363 C373 0.929 . S
H364 C368 0.929 . S
H365 C374 0.929 . S
C366 H360 0.930 . S
C366 C367 1.367 . S
C366 C374 1.378 . S
C367 C366 1.367 . S
C367 C375 1.433 . S
C368 H364 0.929 . S
C368 C370 1.378 . S
C368 C372 1.350 . S
C369 C372 1.463 . S
C369 C374 1.350 . S
C369 N377 1.427 . S
C370 H361 0.930 . S
C370 C368 1.378 . S
C370 C371 1.367 . S
C371 C370 1.367 . S
C371 C373 1.433 . S
C372 C368 1.350 . S
C372 C369 1.463 . S
C372 N376 1.427 . S
C373 H363 0.929 . S
C373 C371 1.433 . S
C373 N376 1.384 . S
C374 H365 0.929 . S
C374 C366 1.378 . S
C374 C369 1.350 . S
C375 H362 0.929 . S
C375 C367 1.433 . S
C375 N377 1.384 . S
N376 C372 1.427 . S
N376 C373 1.384 . S
N377 C369 1.427 . S
N377 C375 1.384 . S
H378 C384 0.930 . S
H379 C388 0.930 . S
H380 C393 0.929 . S
H381 C391 0.929 . S
H382 C386 0.929 . S
H383 C392 0.929 . S
C384 H378 0.930 . S
C384 C385 1.367 . S
C384 C392 1.378 . S
C385 C384 1.367 . S
C385 C393 1.433 . S
C386 H382 0.929 . S
C386 C388 1.378 . S
C386 C390 1.350 . S
C387 C390 1.463 . S
C387 C392 1.350 . S
C387 N395 1.427 . S
C388 H379 0.930 . S
C388 C386 1.378 . S
C388 C389 1.367 . S
C389 C388 1.367 . S
C389 C391 1.433 . S
C390 C386 1.350 . S
C390 C387 1.463 . S
C390 N394 1.427 . S
C391 H381 0.929 . S
C391 C389 1.433 . S
C391 N394 1.384 . S
C392 H383 0.929 . S
C392 C384 1.378 . S
C392 C387 1.350 . S
C393 H380 0.929 . S
C393 C385 1.433 . S
C393 N395 1.384 . S
N394 C390 1.427 . S
N394 C391 1.384 . S
N395 C387 1.427 . S
N395 C393 1.384 . S
H396 C402 0.930 . S
H397 C406 0.930 . S
H398 C411 0.929 . S
H399 C409 0.929 . S
H400 C404 0.929 . S
H401 C410 0.929 . S
C402 H396 0.930 . S
C402 C403 1.367 . S
C402 C410 1.378 . S
C403 C402 1.367 . S
C403 C411 1.433 . S
C404 H400 0.929 . S
C404 C406 1.378 . S
C404 C408 1.350 . S
C405 C408 1.463 . S
C405 C410 1.350 . S
C405 N413 1.427 . S
C406 H397 0.930 . S
C406 C404 1.378 . S
C406 C407 1.367 . S
C407 C406 1.367 . S
C407 C409 1.433 . S
C408 C404 1.350 . S
C408 C405 1.463 . S
C408 N412 1.427 . S
C409 H399 0.929 . S
C409 C407 1.433 . S
C409 N412 1.384 . S
C410 H401 0.929 . S
C410 C402 1.378 . S
C410 C405 1.350 . S
C411 H398 0.929 . S
C411 C403 1.433 . S
C411 N413 1.384 . S
N412 C408 1.427 . S
N412 C409 1.384 . S
N413 C405 1.427 . S
N413 C411 1.384 . S
H414 C420 0.930 . S
H415 C424 0.930 . S
H416 C429 0.929 . S
H417 C427 0.929 1_554 S
H418 C422 0.929 . S
H419 C428 0.929 . S
C420 H414 0.930 . S
C420 C421 1.367 . S
C420 C428 1.378 . S
C421 C420 1.367 . S
C421 C429 1.433 . S
C422 H418 0.929 . S
C422 C424 1.378 . S
C422 C426 1.350 . S
C423 C426 1.463 . S
C423 C428 1.350 . S
C423 N431 1.427 . S
C424 H415 0.930 . S
C424 C422 1.378 . S
C424 C425 1.367 1_556 S
C425 C424 1.367 1_554 S
C425 C427 1.433 1_554 S
C426 C422 1.350 . S
C426 C423 1.463 . S
C426 N430 1.427 . S
C427 H417 0.929 1_556 S
C427 C425 1.433 1_556 S
C427 N430 1.384 . S
C428 H419 0.929 . S
C428 C420 1.378 . S
C428 C423 1.350 . S
C429 H416 0.929 . S
C429 C421 1.433 . S
C429 N431 1.384 . S
N430 C426 1.427 . S
N430 C427 1.384 . S
N431 C423 1.427 . S
N431 C429 1.384 . S
H432 C438 0.930 . S
H433 C442 0.930 . S
H434 C447 0.929 . S
H435 C445 0.929 . S
H436 C440 0.929 . S
H437 C446 0.929 . S
C438 H432 0.930 . S
C438 C439 1.367 . S
C438 C446 1.378 . S
C439 C438 1.367 . S
C439 C447 1.433 . S
C440 H436 0.929 . S
C440 C442 1.378 . S
C440 C444 1.350 . S
C441 C444 1.463 . S
C441 C446 1.350 . S
C441 N449 1.427 . S
C442 H433 0.930 . S
C442 C440 1.378 . S
C442 C443 1.367 . S
C443 C442 1.367 . S
C443 C445 1.433 . S
C444 C440 1.350 . S
C444 C441 1.463 . S
C444 N448 1.427 . S
C445 H435 0.929 . S
C445 C443 1.433 . S
C445 N448 1.384 . S
C446 H437 0.929 . S
C446 C438 1.378 . S
C446 C441 1.350 . S
C447 H434 0.929 . S
C447 C439 1.433 . S
C447 N449 1.384 . S
N448 C444 1.427 . S
N448 C445 1.384 . S
N449 C441 1.427 . S
N449 C447 1.384 . S
H450 C456 0.930 . S
H451 C460 0.930 . S
H452 C465 0.929 . S
H453 C463 0.929 . S
H454 C458 0.929 . S
H455 C464 0.929 . S
C456 H450 0.930 . S
C456 C457 1.367 . S
C456 C464 1.378 . S
C457 C456 1.367 . S
C457 C465 1.433 . S
C458 H454 0.929 . S
C458 C460 1.378 . S
C458 C462 1.350 . S
C459 C462 1.463 . S
C459 C464 1.350 . S
C459 N467 1.427 . S
C460 H451 0.930 . S
C460 C458 1.378 . S
C460 C461 1.367 . S
C461 C460 1.367 . S
C461 C463 1.433 . S
C462 C458 1.350 . S
C462 C459 1.463 . S
C462 N466 1.427 . S
C463 H453 0.929 . S
C463 C461 1.433 . S
C463 N466 1.384 . S
C464 H455 0.929 . S
C464 C456 1.378 . S
C464 C459 1.350 . S
C465 H452 0.929 . S
C465 C457 1.433 . S
C465 N467 1.384 . S
N466 C462 1.427 . S
N466 C463 1.384 . S
N467 C459 1.427 . S
N467 C465 1.384 . S
H468 C474 0.930 . S
H469 C478 0.930 . S
H470 C483 0.929 . S
H471 C481 0.929 . S
H472 C476 0.929 . S
H473 C482 0.929 . S
C474 H468 0.930 . S
C474 C475 1.367 . S
C474 C482 1.378 . S
C475 C474 1.367 . S
C475 C483 1.433 . S
C476 H472 0.929 . S
C476 C478 1.378 . S
C476 C480 1.350 . S
C477 C480 1.463 . S
C477 C482 1.350 . S
C477 N485 1.427 . S
C478 H469 0.930 . S
C478 C476 1.378 . S
C478 C479 1.367 . S
C479 C478 1.367 . S
C479 C481 1.433 . S
C480 C476 1.350 . S
C480 C477 1.463 . S
C480 N484 1.427 . S
C481 H471 0.929 . S
C481 C479 1.433 . S
C481 N484 1.384 . S
C482 H473 0.929 . S
C482 C474 1.378 . S
C482 C477 1.350 . S
C483 H470 0.929 . S
C483 C475 1.433 . S
C483 N485 1.384 . S
N484 C480 1.427 . S
N484 C481 1.384 . S
N485 C477 1.427 . S
N485 C483 1.384 . S
H486 C492 0.930 . S
H487 C496 0.930 . S
H488 C501 0.929 . S
H489 C499 0.929 . S
H490 C494 0.929 . S
H491 C500 0.929 . S
C492 H486 0.930 . S
C492 C493 1.367 . S
C492 C500 1.378 . S
C493 C492 1.367 . S
C493 C501 1.433 . S
C494 H490 0.929 . S
C494 C496 1.378 . S
C494 C498 1.350 . S
C495 C498 1.463 . S
C495 C500 1.350 . S
C495 N503 1.427 . S
C496 H487 0.930 . S
C496 C494 1.378 . S
C496 C497 1.367 . S
C497 C496 1.367 . S
C497 C499 1.433 . S
C498 C494 1.350 . S
C498 C495 1.463 . S
C498 N502 1.427 . S
C499 H489 0.929 . S
C499 C497 1.433 . S
C499 N502 1.384 . S
C500 H491 0.929 . S
C500 C492 1.378 . S
C500 C495 1.350 . S
C501 H488 0.929 . S
C501 C493 1.433 . S
C501 N503 1.384 . S
N502 C498 1.427 . S
N502 C499 1.384 . S
N503 C495 1.427 . S
N503 C501 1.384 . S
H504 C510 0.930 . S
H505 C514 0.930 . S
H506 C519 0.929 . S
H507 C517 0.929 . S
H508 C512 0.929 . S
H509 C518 0.929 . S
C510 H504 0.930 . S
C510 C511 1.367 . S
C510 C518 1.378 . S
C511 C510 1.367 . S
C511 C519 1.433 . S
C512 H508 0.929 . S
C512 C514 1.378 . S
C512 C516 1.350 . S
C513 C516 1.463 . S
C513 C518 1.350 . S
C513 N521 1.427 . S
C514 H505 0.930 . S
C514 C512 1.378 . S
C514 C515 1.367 . S
C515 C514 1.367 . S
C515 C517 1.433 . S
C516 C512 1.350 . S
C516 C513 1.463 . S
C516 N520 1.427 . S
C517 H507 0.929 . S
C517 C515 1.433 . S
C517 N520 1.384 . S
C518 H509 0.929 . S
C518 C510 1.378 . S
C518 C513 1.350 . S
C519 H506 0.929 . S
C519 C511 1.433 . S
C519 N521 1.384 . S
N520 C516 1.427 . S
N520 C517 1.384 . S
N521 C513 1.427 . S
N521 C519 1.384 . S
H522 C528 0.930 . S
H523 C532 0.930 . S
H524 C537 0.929 . S
H525 C535 0.929 . S
H526 C530 0.929 . S
H527 C536 0.929 . S
C528 H522 0.930 . S
C528 C529 1.367 . S
C528 C536 1.378 . S
C529 C528 1.367 . S
C529 C537 1.433 . S
C530 H526 0.929 . S
C530 C532 1.378 . S
C530 C534 1.350 . S
C531 C534 1.463 . S
C531 C536 1.350 . S
C531 N539 1.427 . S
C532 H523 0.930 . S
C532 C530 1.378 . S
C532 C533 1.367 . S
C533 C532 1.367 . S
C533 C535 1.433 . S
C534 C530 1.350 . S
C534 C531 1.463 . S
C534 N538 1.427 . S
C535 H525 0.929 . S
C535 C533 1.433 . S
C535 N538 1.384 . S
C536 H527 0.929 . S
C536 C528 1.378 . S
C536 C531 1.350 . S
C537 H524 0.929 . S
C537 C529 1.433 . S
C537 N539 1.384 . S
N538 C534 1.427 . S
N538 C535 1.384 . S
N539 C531 1.427 . S
N539 C537 1.384 . S
H540 C546 0.930 . S
H541 C550 0.930 . S
H542 C555 0.929 . S
H543 C553 0.929 . S
H544 C548 0.929 . S
H545 C554 0.929 . S
C546 H540 0.930 . S
C546 C547 1.367 . S
C546 C554 1.378 . S
C547 C546 1.367 . S
C547 C555 1.433 . S
C548 H544 0.929 . S
C548 C550 1.378 . S
C548 C552 1.350 . S
C549 C552 1.463 . S
C549 C554 1.350 . S
C549 N557 1.427 . S
C550 H541 0.930 . S
C550 C548 1.378 . S
C550 C551 1.367 . S
C551 C550 1.367 . S
C551 C553 1.433 . S
C552 C548 1.350 . S
C552 C549 1.463 . S
C552 N556 1.427 . S
C553 H543 0.929 . S
C553 C551 1.433 . S
C553 N556 1.384 . S
C554 H545 0.929 . S
C554 C546 1.378 . S
C554 C549 1.350 . S
C555 H542 0.929 . S
C555 C547 1.433 . S
C555 N557 1.384 . S
N556 C552 1.427 . S
N556 C553 1.384 . S
N557 C549 1.427 . S
N557 C555 1.384 . S
H558 C564 0.930 . S
H559 C568 0.930 . S
H560 C573 0.929 . S
H561 C571 0.929 . S
H562 C566 0.929 . S
H563 C572 0.929 . S
C564 H558 0.930 . S
C564 C565 1.367 . S
C564 C572 1.378 . S
C565 C564 1.367 . S
C565 C573 1.433 1_545 S
C566 H562 0.929 . S
C566 C568 1.378 . S
C566 C570 1.350 . S
C567 C570 1.463 . S
C567 C572 1.350 1_565 S
C567 N575 1.427 . S
C568 H559 0.930 . S
C568 C566 1.378 . S
C568 C569 1.367 . S
C569 C568 1.367 . S
C569 C571 1.433 . S
C570 C566 1.350 . S
C570 C567 1.463 . S
C570 N574 1.427 . S
C571 H561 0.929 . S
C571 C569 1.433 . S
C571 N574 1.384 . S
C572 H563 0.929 . S
C572 C564 1.378 . S
C572 C567 1.350 1_545 S
C573 H560 0.929 . S
C573 C565 1.433 1_565 S
C573 N575 1.384 . S
N574 C570 1.427 . S
N574 C571 1.384 . S
N575 C567 1.427 . S
N575 C573 1.384 . S
H576 C582 0.930 . S
H577 C586 0.930 . S
H578 C591 0.929 . S
H579 C589 0.929 . S
H580 C584 0.929 1_554 S
H581 C590 0.929 . S
C582 H576 0.930 . S
C582 C583 1.367 1_556 S
C582 C590 1.378 . S
C583 C582 1.367 1_554 S
C583 C591 1.433 . S
C584 H580 0.929 1_556 S
C584 C586 1.378 . S
C584 C588 1.350 . S
C585 C588 1.463 . S
C585 C590 1.350 . S
C585 N593 1.427 1_556 S
C586 H577 0.930 . S
C586 C584 1.378 . S
C586 C587 1.367 . S
C587 C586 1.367 . S
C587 C589 1.433 . S
C588 C584 1.350 . S
C588 C585 1.463 . S
C588 N592 1.427 . S
C589 H579 0.929 . S
C589 C587 1.433 . S
C589 N592 1.384 . S
C590 H581 0.929 . S
C590 C582 1.378 . S
C590 C585 1.350 . S
C591 H578 0.929 . S
C591 C583 1.433 . S
C591 N593 1.384 . S
N592 C588 1.427 . S
N592 C589 1.384 . S
N593 C585 1.427 1_554 S
N593 C591 1.384 . S
H594 C600 0.930 . S
H595 C604 0.930 1_554 S
H596 C609 0.929 . S
H597 C607 0.929 . S
H598 C602 0.883 1_455 S
H599 C608 0.929 . S
C600 H594 0.930 . S
C600 C601 1.367 . S
C600 C608 1.378 . S
C601 C600 1.367 . S
C601 C609 1.433 . S
C602 H598 0.883 1_655 S
C602 C604 1.378 1_655 S
C602 C606 1.397 . S
C603 C606 1.463 . S
C603 C608 1.350 . S
C603 N611 1.427 . S
C604 H595 0.930 1_556 S
C604 C602 1.378 1_455 S
C604 C605 1.367 . S
C605 C604 1.367 . S
C605 C607 1.433 1_455 S
C606 C602 1.397 . S
C606 C603 1.463 . S
C606 N610 1.427 . S
C607 H597 0.929 . S
C607 C605 1.433 1_655 S
C607 N610 1.384 . S
C608 H599 0.929 . S
C608 C600 1.378 . S
C608 C603 1.350 . S
C609 H596 0.929 . S
C609 C601 1.433 . S
C609 N611 1.384 . S
N610 C606 1.427 . S
N610 C607 1.384 . S
N611 C603 1.427 . S
N611 C609 1.384 . S
H612 C618 0.930 . S
H613 C622 0.930 . S
H614 C627 0.929 . S
H615 C625 0.929 . S
H616 C620 0.929 . S
H617 C626 0.929 . S
C618 H612 0.930 . S
C618 C619 1.367 . S
C618 C626 1.378 . S
C619 C618 1.367 . S
C619 C627 1.433 . S
C620 H616 0.929 . S
C620 C622 1.378 1_556 S
C620 C624 1.350 . S
C621 C624 1.463 . S
C621 C626 1.350 . S
C621 N629 1.427 . S
C622 H613 0.930 . S
C622 C620 1.378 1_554 S
C622 C623 1.367 . S
C623 C622 1.367 . S
C623 C625 1.433 . S
C624 C620 1.350 . S
C624 C621 1.463 . S
C624 N628 1.427 . S
C625 H615 0.929 . S
C625 C623 1.433 . S
C625 N628 1.384 1_554 S
C626 H617 0.929 . S
C626 C618 1.378 . S
C626 C621 1.350 . S
C627 H614 0.929 . S
C627 C619 1.433 . S
C627 N629 1.384 . S
N628 C624 1.427 . S
N628 C625 1.384 1_556 S
N629 C621 1.427 . S
N629 C627 1.384 . S
H630 C636 0.930 . S
H631 C640 0.930 1_554 S
H632 C645 0.929 . S
H633 C643 0.929 . S
H634 C638 0.929 . S
H635 C644 0.929 . S
C636 H630 0.930 . S
C636 C637 1.367 . S
C636 C644 1.378 . S
C637 C636 1.367 . S
C637 C645 1.433 . S
C638 H634 0.929 . S
C638 C640 1.378 . S
C638 C642 1.350 . S
C639 C642 1.463 . S
C639 C644 1.350 . S
C639 N647 1.427 . S
C640 H631 0.930 1_556 S
C640 C638 1.378 . S
C640 C641 1.367 . S
C641 C640 1.367 . S
C641 C643 1.433 . S
C642 C638 1.350 . S
C642 C639 1.463 . S
C642 N646 1.427 . S
C643 H633 0.929 . S
C643 C641 1.433 . S
C643 N646 1.384 . S
C644 H635 0.929 . S
C644 C636 1.378 . S
C644 C639 1.350 . S
C645 H632 0.929 . S
C645 C637 1.433 . S
C645 N647 1.384 . S
N646 C642 1.427 . S
N646 C643 1.384 . S
N647 C639 1.427 . S
N647 C645 1.384 . S
H648 C654 0.930 . S
H649 C658 0.930 . S
H650 C663 0.929 . S
H651 C661 0.929 . S
H652 C656 0.929 . S
H653 C662 0.929 1_554 S
C654 H648 0.930 . S
C654 C655 1.367 . S
C654 C662 1.378 1_554 S
C655 C654 1.367 . S
C655 C663 1.433 1_554 S
C656 H652 0.929 . S
C656 C658 1.378 . S
C656 C660 1.350 . S
C657 C660 1.463 . S
C657 C662 1.350 . S
C657 N665 1.427 . S
C658 H649 0.930 . S
C658 C656 1.378 . S
C658 C659 1.367 . S
C659 C658 1.367 . S
C659 C661 1.433 . S
C660 C656 1.350 . S
C660 C657 1.463 . S
C660 N664 1.427 . S
C661 H651 0.929 . S
C661 C659 1.433 . S
C661 N664 1.384 . S
C662 H653 0.929 1_556 S
C662 C654 1.378 1_556 S
C662 C657 1.350 . S
C663 H650 0.929 . S
C663 C655 1.433 1_556 S
C663 N665 1.384 . S
N664 C660 1.427 . S
N664 C661 1.384 . S
N665 C657 1.427 . S
N665 C663 1.384 . S
H666 C672 0.930 . S
H667 C676 0.930 . S
H668 C681 0.929 . S
H669 C679 0.929 . S
H670 C674 0.929 . S
H671 C680 0.929 . S
C672 H666 0.930 . S
C672 C673 1.367 . S
C672 C680 1.378 . S
C673 C672 1.367 . S
C673 C681 1.433 . S
C674 H670 0.929 . S
C674 C676 1.378 . S
C674 C678 1.350 . S
C675 C678 1.463 . S
C675 C680 1.350 . S
C675 N683 1.427 . S
C676 H667 0.930 . S
C676 C674 1.378 . S
C676 C677 1.367 1_556 S
C677 C676 1.367 1_554 S
C677 C679 1.433 . S
C678 C674 1.350 . S
C678 C675 1.463 . S
C678 N682 1.427 1_556 S
C679 H669 0.929 . S
C679 C677 1.433 . S
C679 N682 1.384 . S
C680 H671 0.929 . S
C680 C672 1.378 . S
C680 C675 1.350 . S
C681 H668 0.929 . S
C681 C673 1.433 . S
C681 N683 1.384 . S
N682 C678 1.427 1_554 S
N682 C679 1.384 . S
N683 C675 1.427 . S
N683 C681 1.384 . S
H684 C690 0.930 . S
H685 C694 0.930 . S
H686 C699 0.929 . S
H687 C697 0.929 . S
H688 C692 0.929 . S
H689 C698 0.929 1_565 S
C690 H684 0.930 . S
C690 C691 1.367 . S
C690 C698 1.378 . S
C691 C690 1.367 . S
C691 C699 1.433 . S
C692 H688 0.929 . S
C692 C694 1.378 . S
C692 C696 1.350 . S
C693 C696 1.463 . S
C693 C698 1.350 . S
C693 N701 1.427 . S
C694 H685 0.930 . S
C694 C692 1.378 . S
C694 C695 1.367 1_545 S
C695 C694 1.367 1_565 S
C695 C697 1.433 . S
C696 C692 1.350 . S
C696 C693 1.463 . S
C696 N700 1.427 1_545 S
C697 H687 0.929 . S
C697 C695 1.433 . S
C697 N700 1.384 . S
C698 H689 0.929 1_545 S
C698 C690 1.378 . S
C698 C693 1.350 . S
C699 H686 0.929 . S
C699 C691 1.433 . S
C699 N701 1.384 . S
N700 C696 1.427 1_565 S
N700 C697 1.384 . S
N701 C693 1.427 . S
N701 C699 1.384 . S
H702 C708 0.930 . S
H703 C712 0.930 . S
H704 C717 0.929 . S
H705 C715 0.929 . S
H706 C710 0.929 . S
H707 C716 0.929 . S
C708 H702 0.930 . S
C708 C709 1.367 . S
C708 C716 1.378 . S
C709 C708 1.367 . S
C709 C717 1.433 . S
C710 H706 0.929 . S
C710 C712 1.378 . S
C710 C714 1.350 . S
C711 C714 1.463 . S
C711 C716 1.350 . S
C711 N719 1.427 . S
C712 H703 0.930 . S
C712 C710 1.378 . S
C712 C713 1.367 . S
C713 C712 1.367 . S
C713 C715 1.433 . S
C714 C710 1.350 . S
C714 C711 1.463 . S
C714 N718 1.427 . S
C715 H705 0.929 . S
C715 C713 1.433 . S
C715 N718 1.384 . S
C716 H707 0.929 . S
C716 C708 1.378 . S
C716 C711 1.350 . S
C717 H704 0.929 . S
C717 C709 1.433 . S
C717 N719 1.384 . S
N718 C714 1.427 . S
N718 C715 1.384 . S
N719 C711 1.427 . S
N719 C717 1.384 . S
H720 C726 0.930 . S
H721 C730 0.930 . S
H722 C735 0.929 . S
H723 C733 0.929 . S
H724 C728 0.929 . S
H725 C734 0.929 . S
C726 H720 0.930 . S
C726 C727 1.367 . S
C726 C734 1.378 . S
C727 C726 1.367 . S
C727 C735 1.433 . S
C728 H724 0.929 . S
C728 C730 1.378 . S
C728 C732 1.350 . S
C729 C732 1.463 . S
C729 C734 1.350 . S
C729 N737 1.427 . S
C730 H721 0.930 . S
C730 C728 1.378 . S
C730 C731 1.367 . S
C731 C730 1.367 . S
C731 C733 1.433 . S
C732 C728 1.350 . S
C732 C729 1.463 . S
C732 N736 1.427 . S
C733 H723 0.929 . S
C733 C731 1.433 . S
C733 N736 1.384 . S
C734 H725 0.929 . S
C734 C726 1.378 . S
C734 C729 1.350 . S
C735 H722 0.929 . S
C735 C727 1.433 . S
C735 N737 1.384 . S
N736 C732 1.427 . S
N736 C733 1.384 . S
N737 C729 1.427 . S
N737 C735 1.384 . S
H738 C744 0.930 . S
H739 C748 0.930 . S
H740 C753 0.929 . S
H741 C751 0.929 . S
H742 C746 0.929 . S
H743 C752 0.929 . S
C744 H738 0.930 . S
C744 C745 1.367 . S
C744 C752 1.378 . S
C745 C744 1.367 . S
C745 C753 1.433 . S
C746 H742 0.929 . S
C746 C748 1.378 . S
C746 C750 1.350 . S
C747 C750 1.463 . S
C747 C752 1.350 . S
C747 N755 1.427 . S
C748 H739 0.930 . S
C748 C746 1.378 . S
C748 C749 1.367 . S
C749 C748 1.367 . S
C749 C751 1.433 . S
C750 C746 1.350 . S
C750 C747 1.463 . S
C750 N754 1.427 . S
C751 H741 0.929 . S
C751 C749 1.433 . S
C751 N754 1.384 . S
C752 H743 0.929 . S
C752 C744 1.378 . S
C752 C747 1.350 . S
C753 H740 0.929 . S
C753 C745 1.433 . S
C753 N755 1.384 . S
N754 C750 1.427 . S
N754 C751 1.384 . S
N755 C747 1.427 . S
N755 C753 1.384 . S
H756 C762 0.930 . S
H757 C766 0.930 . S
H758 C771 0.929 . S
H759 C769 0.929 . S
H760 C764 0.929 . S
H761 C770 0.929 . S
C762 H756 0.930 . S
C762 C763 1.367 . S
C762 C770 1.378 . S
C763 C762 1.367 . S
C763 C771 1.433 . S
C764 H760 0.929 . S
C764 C766 1.378 . S
C764 C768 1.350 . S
C765 C768 1.463 1_545 S
C765 C770 1.350 . S
C765 N773 1.427 . S
C766 H757 0.930 . S
C766 C764 1.378 . S
C766 C767 1.367 . S
C767 C766 1.367 . S
C767 C769 1.433 . S
C768 C764 1.350 . S
C768 C765 1.463 1_565 S
C768 N772 1.427 . S
C769 H759 0.929 . S
C769 C767 1.433 . S
C769 N772 1.384 . S
C770 H761 0.929 . S
C770 C762 1.378 . S
C770 C765 1.350 . S
C771 H758 0.929 . S
C771 C763 1.433 . S
C771 N773 1.384 . S
N772 C768 1.427 . S
N772 C769 1.384 . S
N773 C765 1.427 . S
N773 C771 1.384 . S
H774 C780 0.930 . S
H775 C784 0.930 1_655 S
H776 C789 0.929 . S
H777 C787 0.929 . S
H778 C782 0.929 . S
H779 C788 0.897 1_455 S
C780 H774 0.930 . S
C780 C781 1.367 . S
C780 C788 1.418 . S
C781 C780 1.367 . S
C781 C789 1.433 . S
C782 H778 0.929 . S
C782 C784 1.378 1_655 S
C782 C786 1.350 1_655 S
C783 C786 1.463 1_655 S
C783 C788 1.343 . S
C783 N791 1.427 . S
C784 H775 0.930 1_455 S
C784 C782 1.378 1_455 S
C784 C785 1.367 . S
C785 C784 1.367 . S
C785 C787 1.433 . S
C786 C782 1.350 1_455 S
C786 C783 1.463 1_455 S
C786 N790 1.427 . S
C787 H777 0.929 . S
C787 C785 1.433 . S
C787 N790 1.384 . S
C788 H779 0.897 1_655 S
C788 C780 1.418 . S
C788 C783 1.343 . S
C789 H776 0.929 . S
C789 C781 1.433 . S
C789 N791 1.384 . S
N790 C786 1.427 . S
N790 C787 1.384 . S
N791 C783 1.427 . S
N791 C789 1.384 . S
H792 C798 0.930 . S
H793 C802 0.930 . S
H794 C807 0.929 . S
H795 C805 0.929 . S
H796 C800 0.929 . S
H797 C806 0.929 . S
C798 H792 0.930 . S
C798 C799 1.367 . S
C798 C806 1.378 . S
C799 C798 1.367 . S
C799 C807 1.433 . S
C800 H796 0.929 . S
C800 C802 1.378 . S
C800 C804 1.350 . S
C801 C804 1.463 . S
C801 C806 1.350 . S
C801 N809 1.427 . S
C802 H793 0.930 . S
C802 C800 1.378 . S
C802 C803 1.367 . S
C803 C802 1.367 . S
C803 C805 1.433 . S
C804 C800 1.350 . S
C804 C801 1.463 . S
C804 N808 1.427 . S
C805 H795 0.929 . S
C805 C803 1.433 . S
C805 N808 1.384 . S
C806 H797 0.929 . S
C806 C798 1.378 . S
C806 C801 1.350 . S
C807 H794 0.929 . S
C807 C799 1.433 . S
C807 N809 1.384 . S
N808 C804 1.427 . S
N808 C805 1.384 . S
N809 C801 1.427 . S
N809 C807 1.384 . S
H810 C816 0.930 . S
H811 C820 0.930 . S
H812 C825 0.929 . S
H813 C823 0.929 . S
H814 C818 0.929 . S
H815 C824 0.929 . S
C816 H810 0.930 . S
C816 C817 1.367 . S
C816 C824 1.378 . S
C817 C816 1.367 . S
C817 C825 1.433 . S
C818 H814 0.929 . S
C818 C820 1.378 . S
C818 C822 1.350 . S
C819 C822 1.463 . S
C819 C824 1.350 1_545 S
C819 N827 1.429 . S
C820 H811 0.930 . S
C820 C818 1.378 . S
C820 C821 1.367 . S
C821 C820 1.367 . S
C821 C823 1.433 . S
C822 C818 1.350 . S
C822 C819 1.463 . S
C822 N826 1.427 . S
C823 H813 0.929 . S
C823 C821 1.433 . S
C823 N826 1.384 . S
C824 H815 0.929 . S
C824 C816 1.378 . S
C824 C819 1.350 1_565 S
C825 H812 0.929 . S
C825 C817 1.433 . S
C825 N827 1.373 1_565 S
N826 C822 1.427 . S
N826 C823 1.384 . S
N827 C819 1.429 . S
N827 C825 1.373 1_545 S
H828 C834 0.930 . S
H829 C838 0.935 1_655 S
H830 C843 0.929 . S
H831 C841 0.929 . S
H832 C836 0.929 . S
H833 C842 0.929 1_455 S
C834 H828 0.930 . S
C834 C835 1.367 . S
C834 C842 1.378 . S
C835 C834 1.367 . S
C835 C843 1.433 . S
C836 H832 0.929 . S
C836 C838 1.378 1_655 S
C836 C840 1.350 1_655 S
C837 C840 1.462 1_655 S
C837 C842 1.350 . S
C837 N845 1.427 . S
C838 H829 0.935 1_455 S
C838 C836 1.378 1_455 S
C838 C839 1.367 . S
C839 C838 1.367 . S
C839 C841 1.433 . S
C840 C836 1.350 1_455 S
C840 C837 1.462 1_455 S
C840 N844 1.427 . S
C841 H831 0.929 . S
C841 C839 1.433 . S
C841 N844 1.384 . S
C842 H833 0.929 1_655 S
C842 C834 1.378 . S
C842 C837 1.350 . S
C843 H830 0.929 . S
C843 C835 1.433 . S
C843 N845 1.384 . S
N844 C840 1.427 . S
N844 C841 1.384 . S
N845 C837 1.427 . S
N845 C843 1.384 . S
C367 C2 3.442 . S
C371 C15 3.442 . S
C385 C55 3.505 . S
C389 C42 3.505 . S
C403 C82 3.534 . S
C407 C95 3.534 . S
C421 C135 3.441 . S
C425 C122 3.441 . S
C439 C162 3.504 . S
C443 C175 3.504 1_556 S
C457 C215 3.535 . S
C461 C202 3.535 1_556 S
C475 C249 2.528 . S
C479 C266 2.528 . S
C493 C306 2.874 . S
C497 C289 2.874 . S
C511 C329 2.073 . S
C515 C346 2.073 . S
C529 C222 1.706 . S
C533 C9 1.701 . S
C547 C62 2.665 . S
C551 C142 2.682 . S
C565 C89 1.121 . S
C569 C169 1.134 . S
C583 C102 2.997 . S
C587 C243 3.057 . S
C601 C295 1.263 . S
C605 C22 1.256 1_556 S
C619 C323 1.806 . S
C623 C49 1.723 . S
C637 C322 0.856 . S
C641 C26 0.844 . S
C655 C43 2.259 . S
C659 C242 2.256 . S
C673 C302 2.702 . S
C677 C106 2.611 . S
C691 C83 1.705 . S
C695 C146 1.701 . S
C709 C163 2.664 . S
C713 C3 2.682 . S
C727 C66 1.141 . S
C731 C226 1.124 . S
C745 C335 0.855 . S
C749 C129 0.840 . S
C763 C255 2.251 . S
C767 C182 2.255 . S
C781 C283 2.707 . S
C785 C209 2.620 . S
C799 C262 3.055 . S
C803 C203 3.000 . S
C817 C123 1.247 . S
C821 C282 1.267 . S
C835 C342 1.809 . S
C839 C186 1.730 . S
