# Generated by pormake.
# Topology wkl, (6)-cn, num edge types: 1
# Building blocks:
#     Node 0, Type 0, BuildingBlock: IZENUY_clean_sbu_0, # of connection points: 6
#     Node 1, Type 0, BuildingBlock: IZENUY_clean_sbu_0, # of connection points: 6
#     Node 2, Type 0, BuildingBlock: IZENUY_clean_sbu_0, # of connection points: 6
#     Node 3, Type 0, BuildingBlock: IZENUY_clean_sbu_0, # of connection points: 6
#     Node 4, Type 0, BuildingBlock: IZENUY_clean_sbu_0, # of connection points: 6
#     Node 5, Type 0, BuildingBlock: IZENUY_clean_sbu_0, # of connection points: 6
#     Node 6, Type 0, BuildingBlock: IZENUY_clean_sbu_0, # of connection points: 6
#     Node 7, Type 0, BuildingBlock: IZENUY_clean_sbu_0, # of connection points: 6
#     Node 8, Type 0, BuildingBlock: IZENUY_clean_sbu_0, # of connection points: 6
#     Node 9, Type 0, BuildingBlock: IZENUY_clean_sbu_0, # of connection points: 6
#     Node 10, Type 0, BuildingBlock: IZENUY_clean_sbu_0, # of connection points: 6
#     Node 11, Type 0, BuildingBlock: IZENUY_clean_sbu_0, # of connection points: 6
#     Edge 12, Type (0, 0), BuildingBlock: UVAHIK_clean_linker_0, # of connection points: 2
#     Edge 13, Type (0, 0), BuildingBlock: UVAHIK_clean_linker_0, # of connection points: 2
#     Edge 14, Type (0, 0), BuildingBlock: UVAHIK_clean_linker_0, # of connection points: 2
#     Edge 15, Type (0, 0), BuildingBlock: UVAHIK_clean_linker_0, # of connection points: 2
#     Edge 16, Type (0, 0), BuildingBlock: UVAHIK_clean_linker_0, # of connection points: 2
#     Edge 17, Type (0, 0), BuildingBlock: UVAHIK_clean_linker_0, # of connection points: 2
#     Edge 18, Type (0, 0), BuildingBlock: UVAHIK_clean_linker_0, # of connection points: 2
#     Edge 19, Type (0, 0), BuildingBlock: UVAHIK_clean_linker_0, # of connection points: 2
#     Edge 20, Type (0, 0), BuildingBlock: UVAHIK_clean_linker_0, # of connection points: 2
#     Edge 21, Type (0, 0), BuildingBlock: UVAHIK_clean_linker_0, # of connection points: 2
#     Edge 22, Type (0, 0), BuildingBlock: UVAHIK_clean_linker_0, # of connection points: 2
#     Edge 23, Type (0, 0), BuildingBlock: UVAHIK_clean_linker_0, # of connection points: 2
#     Edge 24, Type (0, 0), BuildingBlock: UVAHIK_clean_linker_0, # of connection points: 2
#     Edge 25, Type (0, 0), BuildingBlock: UVAHIK_clean_linker_0, # of connection points: 2
#     Edge 26, Type (0, 0), BuildingBlock: UVAHIK_clean_linker_0, # of connection points: 2
#     Edge 27, Type (0, 0), BuildingBlock: UVAHIK_clean_linker_0, # of connection points: 2
#     Edge 28, Type (0, 0), BuildingBlock: UVAHIK_clean_linker_0, # of connection points: 2
#     Edge 29, Type (0, 0), BuildingBlock: UVAHIK_clean_linker_0, # of connection points: 2
#     Edge 30, Type (0, 0), BuildingBlock: UVAHIK_clean_linker_0, # of connection points: 2
#     Edge 31, Type (0, 0), BuildingBlock: UVAHIK_clean_linker_0, # of connection points: 2
#     Edge 32, Type (0, 0), BuildingBlock: UVAHIK_clean_linker_0, # of connection points: 2
#     Edge 33, Type (0, 0), BuildingBlock: UVAHIK_clean_linker_0, # of connection points: 2
#     Edge 34, Type (0, 0), BuildingBlock: UVAHIK_clean_linker_0, # of connection points: 2
#     Edge 35, Type (0, 0), BuildingBlock: UVAHIK_clean_linker_0, # of connection points: 2
#     Edge 36, Type (0, 0), BuildingBlock: UVAHIK_clean_linker_0, # of connection points: 2
#     Edge 37, Type (0, 0), BuildingBlock: UVAHIK_clean_linker_0, # of connection points: 2
#     Edge 38, Type (0, 0), BuildingBlock: UVAHIK_clean_linker_0, # of connection points: 2
#     Edge 39, Type (0, 0), BuildingBlock: UVAHIK_clean_linker_0, # of connection points: 2
#     Edge 40, Type (0, 0), BuildingBlock: UVAHIK_clean_linker_0, # of connection points: 2
#     Edge 41, Type (0, 0), BuildingBlock: UVAHIK_clean_linker_0, # of connection points: 2
#     Edge 42, Type (0, 0), BuildingBlock: UVAHIK_clean_linker_0, # of connection points: 2
#     Edge 43, Type (0, 0), BuildingBlock: UVAHIK_clean_linker_0, # of connection points: 2
#     Edge 44, Type (0, 0), BuildingBlock: UVAHIK_clean_linker_0, # of connection points: 2
#     Edge 45, Type (0, 0), BuildingBlock: UVAHIK_clean_linker_0, # of connection points: 2
#     Edge 46, Type (0, 0), BuildingBlock: UVAHIK_clean_linker_0, # of connection points: 2
#     Edge 47, Type (0, 0), BuildingBlock: UVAHIK_clean_linker_0, # of connection points: 2
# Relax obj value: 0.387
# Max RMSD: 0.287
# Mean RMSD: 0.287
data_MOF--net-wkl--node1-IZENUY_clean_sbu_0--edge1-UVAHIK_clean_linker_0
_symmetry_space_group_name_H-M    P1
_symmetry_Int_Tables_number       1
_symmetry_cell_setting            triclinic
loop_
_symmetry_equiv_pos_as_xyz
'x, y, z'
_cell_length_a     91.002028
_cell_length_b     91.00816
_cell_length_c     19.410798
_cell_angle_alpha  90.006476
_cell_angle_beta   89.9956
_cell_angle_gamma 120.0143
loop_
_atom_site_label
_atom_site_type_symbol
_atom_site_fract_x
_atom_site_fract_y
_atom_site_fract_z
_atom_type_partial_charge
Fe0 Fe 0.46917 0.1088 0.05984 0.0
Fe1 Fe 0.48212 0.13903 0.96137 0.0
O2 O 0.46564 0.1232 0.01181 0.0
Fe3 Fe 0.44551 0.12174 0.01376 0.0
O4 O 0.44718 0.12566 0.1057 0.0
O5 O 0.45485 0.10685 0.13065 0.0
O6 O 0.48622 0.12582 0.10848 0.0
C7 C 0.49942 0.1376 0.08092 0.0
C8 C 0.43732 0.08748 0.01192 0.0
O9 O 0.49933 0.14152 0.01839 0.0
C10 C 0.45315 0.12778 0.87747 0.0
O11 O 0.4841 0.10822 0.99766 0.0
O12 O 0.48372 0.12329 0.90988 0.0
O13 O 0.43339 0.09863 0.0264 0.0
O14 O 0.45254 0.09092 0.01395 0.0
C15 C 0.4685 0.15709 0.01521 0.0
O16 O 0.4679 0.13928 0.89477 0.0
O17 O 0.44287 0.11772 0.92164 0.0
C18 C 0.48673 0.11222 0.93449 0.0
O19 O 0.48156 0.1557 0.00998 0.0
O20 O 0.45394 0.1446 0.00202 0.0
C21 C 0.44957 0.11677 0.14922 0.0
Fe22 Fe 0.32161 0.4452 0.18215 0.0
Fe23 Fe 0.35825 0.46781 0.23033 0.0
O24 O 0.34052 0.46518 0.18324 0.0
Fe25 Fe 0.34172 0.48249 0.13722 0.0
O26 O 0.32439 0.48158 0.18647 0.0
O27 O 0.30749 0.45408 0.17485 0.0
O28 O 0.31936 0.44565 0.27516 0.0
C29 C 0.33064 0.44731 0.3174 0.0
C30 C 0.32366 0.45471 0.04733 0.0
O31 O 0.34568 0.45245 0.29735 0.0
C32 C 0.37319 0.48745 0.11021 0.0
O33 O 0.33239 0.43273 0.18949 0.0
O34 O 0.35939 0.45182 0.17903 0.0
O35 O 0.32746 0.46938 0.06811 0.0
O36 O 0.32278 0.44365 0.08909 0.0
C37 C 0.35986 0.49775 0.26037 0.0
O38 O 0.37408 0.48371 0.17225 0.0
O39 O 0.35924 0.48461 0.08495 0.0
C40 C 0.34748 0.43667 0.17453 0.0
O41 O 0.35821 0.4841 0.28422 0.0
O42 O 0.35627 0.4987 0.19808 0.0
C43 C 0.30983 0.46862 0.19038 0.0
Fe44 Fe 0.88994 0.35893 0.39509 0.0
Fe45 Fe 0.85783 0.3419 0.30684 0.0
O46 O 0.87445 0.34101 0.3501 0.0
Fe47 Fe 0.87565 0.32217 0.34848 0.0
O48 O 0.87355 0.3202 0.44167 0.0
O49 O 0.89331 0.34656 0.4615 0.0
O50 O 0.87414 0.35899 0.45148 0.0
C51 C 0.86167 0.36021 0.43069 0.0
C52 C 0.90992 0.34808 0.33654 0.0
O53 O 0.85643 0.3564 0.36916 0.0
C54 C 0.86734 0.32405 0.2147 0.0
O55 O 0.88929 0.37457 0.33755 0.0
O56 O 0.87263 0.35936 0.25293 0.0
O57 O 0.89895 0.33308 0.35329 0.0
O58 O 0.90663 0.35995 0.34107 0.0
C59 C 0.84054 0.31013 0.36159 0.0
O60 O 0.85641 0.32764 0.23701 0.0
O61 O 0.87774 0.3232 0.25527 0.0
C62 C 0.88402 0.3734 0.27638 0.0
O63 O 0.84195 0.3246 0.35777 0.0
O64 O 0.85263 0.30787 0.34361 0.0
C65 C 0.88334 0.33166 0.48296 0.0
Fe66 Fe 0.54801 0.8753 0.51503 0.0
Fe67 Fe 0.52393 0.88662 0.57278 0.0
O68 O 0.52766 0.87329 0.51843 0.0
Fe69 Fe 0.51093 0.85788 0.46749 0.0
O70 O 0.5122 0.8409 0.51015 0.0
O71 O 0.53989 0.85258 0.49981 0.0
O72 O 0.5474 0.8707 0.6065 0.0
C73 C 0.54515 0.87901 0.65321 0.0
C74 C 0.53938 0.87004 0.37921 0.0
O75 O 0.53909 0.8885 0.63932 0.0
C76 C 0.50535 0.88436 0.45202 0.0
O77 O 0.55969 0.89838 0.53014 0.0
O78 O 0.53977 0.90531 0.52879 0.0
O79 O 0.52471 0.85852 0.39705 0.0
O80 O 0.54984 0.87996 0.42323 0.0
C81 C 0.49443 0.85709 0.59261 0.0
O82 O 0.50813 0.88726 0.51592 0.0
O83 O 0.50872 0.87408 0.42201 0.0
C84 C 0.55516 0.90941 0.52379 0.0
O85 O 0.50775 0.86863 0.62036 0.0
O86 O 0.49401 0.85434 0.52849 0.0
C87 C 0.52546 0.83979 0.51228 0.0
Fe88 Fe 0.65275 0.51487 0.63239 0.0
Fe89 Fe 0.67283 0.5519 0.67989 0.0
O90 O 0.65416 0.53179 0.68211 0.0
Fe91 Fe 0.63691 0.52866 0.734 0.0
O92 O 0.63781 0.51223 0.7836 0.0
O93 O 0.63892 0.49822 0.69346 0.0
O94 O 0.67068 0.5158 0.6769 0.0
C95 C 0.68516 0.52891 0.67947 0.0
C96 C 0.6209 0.50969 0.61347 0.0
O97 O 0.68709 0.54339 0.66604 0.0
C98 C 0.64665 0.55998 0.68234 0.0
O99 O 0.66627 0.52848 0.56231 0.0
O100 O 0.67047 0.55386 0.58789 0.0
O101 O 0.62057 0.51296 0.67667 0.0
O102 O 0.63463 0.51283 0.5849 0.0
C103 C 0.66547 0.54908 0.817 0.0
O104 O 0.66192 0.56405 0.69372 0.0
O105 O 0.63492 0.54477 0.68722 0.0
C106 C 0.66972 0.54324 0.54417 0.0
O107 O 0.6762 0.55098 0.77162 0.0
O108 O 0.65013 0.54377 0.80107 0.0
C109 C 0.63599 0.49877 0.75695 0.0
Fe110 Fe 0.11983 0.67288 0.8605 0.0
Fe111 Fe 0.10749 0.63654 0.90838 0.0
O112 O 0.12172 0.65446 0.85979 0.0
Fe113 Fe 0.13772 0.65394 0.81018 0.0
O114 O 0.15422 0.67158 0.85749 0.0
O115 O 0.14264 0.68767 0.84932 0.0
O116 O 0.12355 0.67536 0.95273 0.0
C117 C 0.11451 0.66407 0.99593 0.0
C118 C 0.12602 0.67099 0.72427 0.0
O119 O 0.1048 0.64887 0.97725 0.0
C120 C 0.11143 0.62214 0.78533 0.0
O121 O 0.09663 0.6614 0.87166 0.0
O122 O 0.08962 0.63467 0.86061 0.0
O123 O 0.13761 0.66789 0.74185 0.0
O124 O 0.11602 0.67133 0.76841 0.0
C125 C 0.13679 0.63631 0.93268 0.0
O126 O 0.10761 0.62094 0.8486 0.0
O127 O 0.12214 0.6362 0.75968 0.0
C128 C 0.08581 0.64619 0.85689 0.0
O129 O 0.12463 0.63733 0.95862 0.0
O130 O 0.14066 0.63985 0.86967 0.0
C131 C 0.15533 0.6859 0.86215 0.0
Fe132 Fe 0.87413 0.54982 0.832 0.0
Fe133 Fe 0.88705 0.52617 0.7855 0.0
O134 O 0.87216 0.52945 0.83086 0.0
Fe135 Fe 0.85531 0.51235 0.87507 0.0
O136 O 0.83977 0.51413 0.82341 0.0
O137 O 0.85117 0.5417 0.83645 0.0
O138 O 0.87206 0.54974 0.7388 0.0
C139 C 0.88143 0.54749 0.69724 0.0
C140 C 0.86556 0.54001 0.9659 0.0
O141 O 0.8908 0.54181 0.71821 0.0
C142 C 0.88102 0.50643 0.90625 0.0
O143 O 0.89748 0.56157 0.82728 0.0
O144 O 0.90422 0.54165 0.83774 0.0
O145 O 0.85426 0.52565 0.94376 0.0
O146 O 0.87625 0.55097 0.9252 0.0
C147 C 0.85832 0.49691 0.75257 0.0
O148 O 0.88597 0.50986 0.84436 0.0
O149 O 0.86991 0.50952 0.92948 0.0
C150 C 0.90821 0.55702 0.84164 0.0
O151 O 0.87074 0.51045 0.73045 0.0
O152 O 0.85338 0.49591 0.81434 0.0
C153 C 0.83884 0.52745 0.81849 0.0
Fe154 Fe 0.32272 0.87571 0.99479 0.0
Fe155 Fe 0.3595 0.88817 0.95298 0.0
O156 O 0.34122 0.87403 -0.00012 0.0
Fe157 Fe 0.34142 0.85827 0.05236 0.0
O158 O 0.3244 0.84155 0.00308 0.0
O159 O 0.30804 0.8529 0.00615 0.0
O160 O 0.32102 0.87174 0.90268 0.0
C161 C 0.33263 0.88068 0.86041 0.0
C162 C 0.32348 0.86993 0.13226 0.0
O163 O 0.34772 0.89038 0.88058 0.0
C164 C 0.37281 0.88487 0.0804 0.0
O165 O 0.33407 0.89881 0.98204 0.0
O166 O 0.3608 0.90625 0.99754 0.0
O167 O 0.32663 0.85827 0.11674 0.0
O168 O 0.3235 0.87982 0.0867 0.0
C169 C 0.3604 0.859 0.93488 0.0
O170 O 0.37455 0.88849 0.01682 0.0
O171 O 0.35855 0.87413 0.10462 0.0
C172 C 0.34912 0.90985 0.99768 0.0
O173 O 0.35937 0.87087 0.90592 0.0
O174 O 0.35631 0.85545 0.99762 0.0
C175 C 0.31014 0.84039 0.99417 0.0
Fe176 Fe 0.44608 0.32352 0.16665 0.0
Fe177 Fe 0.46951 0.36062 0.12545 0.0
O178 O 0.46617 0.34228 0.1697 0.0
Fe179 Fe 0.48289 0.34267 0.2175 0.0
O180 O 0.48235 0.326 0.1648 0.0
O181 O 0.45474 0.30918 0.17255 0.0
O182 O 0.4473 0.3222 0.07362 0.0
C183 C 0.4497 0.33397 0.03265 0.0
C184 C 0.45433 0.324 0.30223 0.0
O185 O 0.45503 0.34892 0.05448 0.0
C186 C 0.48743 0.37372 0.25074 0.0
O187 O 0.43385 0.33449 0.1594 0.0
O188 O 0.45292 0.36133 0.17424 0.0
O189 O 0.46898 0.32749 0.28255 0.0
O190 O 0.44374 0.32384 0.25973 0.0
C191 C 0.49974 0.36243 0.09963 0.0
O192 O 0.48463 0.37558 0.18836 0.0
O193 O 0.48446 0.35946 0.27301 0.0
C194 C 0.43771 0.34947 0.17566 0.0
O195 O 0.48643 0.36118 0.07393 0.0
O196 O 0.49988 0.358 0.16133 0.0
C197 C 0.46932 0.31162 0.15693 0.0
Fe198 Fe 0.12178 0.44796 0.33872 0.0
Fe199 Fe 0.10832 0.47082 0.28802 0.0
O200 O 0.12298 0.46797 0.33741 0.0
Fe201 Fe 0.13883 0.48502 0.38565 0.0
O202 O 0.15553 0.48416 0.33842 0.0
O203 O 0.14466 0.45666 0.3502 0.0
O204 O 0.12557 0.44894 0.24671 0.0
C205 C 0.11648 0.45081 0.20246 0.0
C206 C 0.12799 0.45679 0.47402 0.0
O207 O 0.10631 0.45585 0.21993 0.0
C208 C 0.11193 0.48968 0.40959 0.0
O209 O 0.09866 0.43555 0.32682 0.0
O210 O 0.09064 0.45453 0.33618 0.0
O211 O 0.13927 0.4715 0.45505 0.0
O212 O 0.11796 0.44606 0.43097 0.0
C213 C 0.1371 0.50085 0.26203 0.0
O214 O 0.10781 0.48635 0.3468 0.0
O215 O 0.12307 0.487 0.43572 0.0
C216 C 0.08736 0.43937 0.33983 0.0
O217 O 0.12509 0.48739 0.23706 0.0
O218 O 0.14117 0.50157 0.32491 0.0
C219 C 0.15695 0.47111 0.33436 0.0
Fe220 Fe 0.67223 0.12063 0.50268 0.0
Fe221 Fe 0.63549 0.10745 0.45763 0.0
O222 O 0.65372 0.12243 0.50254 0.0
Fe223 Fe 0.65346 0.13919 0.54758 0.0
O224 O 0.67071 0.15492 0.4958 0.0
O225 O 0.68693 0.14357 0.50775 0.0
O226 O 0.67405 0.12281 0.40952 0.0
C227 C 0.66238 0.11344 0.36814 0.0
C228 C 0.67116 0.12901 0.63704 0.0
O229 O 0.64735 0.10397 0.38939 0.0
C230 C 0.62198 0.11312 0.57984 0.0
O231 O 0.66084 0.09732 0.49751 0.0
O232 O 0.63413 0.09033 0.50932 0.0
O233 O 0.66799 0.14027 0.61549 0.0
O234 O 0.6714 0.11838 0.5959 0.0
C235 C 0.63465 0.13614 0.4264 0.0
O236 O 0.62033 0.1082 0.51785 0.0
O237 O 0.63617 0.1245 0.60224 0.0
C238 C 0.64572 0.08665 0.51418 0.0
O239 O 0.63566 0.12374 0.40323 0.0
O240 O 0.63873 0.141 0.4881 0.0
C241 C 0.68503 0.15598 0.49126 0.0
Fe242 Fe 0.54958 0.6746 0.66915 0.0
Fe243 Fe 0.5263 0.63751 0.62746 0.0
O244 O 0.52951 0.6558 0.67172 0.0
Fe245 Fe 0.51268 0.65533 0.71896 0.0
O246 O 0.51327 0.67199 0.6661 0.0
O247 O 0.54085 0.68889 0.67458 0.0
O248 O 0.54851 0.67595 0.57608 0.0
C249 C 0.54621 0.66421 0.53513 0.0
C250 C 0.54108 0.674 0.8045 0.0
O251 O 0.54094 0.64927 0.55699 0.0
C252 C 0.50802 0.62425 0.75198 0.0
O253 O 0.56187 0.66366 0.66251 0.0
O254 O 0.54278 0.63681 0.67702 0.0
O255 O 0.52644 0.67049 0.7844 0.0
O256 O 0.55176 0.67426 0.76229 0.0
C257 C 0.49607 0.63557 0.60069 0.0
O258 O 0.51105 0.6225 0.68978 0.0
O259 O 0.51102 0.6385 0.7745 0.0
C260 C 0.55797 0.64871 0.67916 0.0
O261 O 0.50947 0.63695 0.5753 0.0
O262 O 0.49583 0.64002 0.66228 0.0
C263 C 0.52629 0.68638 0.65822 0.0
C264 C 0.45383 0.14165 0.76622 0.0
C265 C 0.44793 0.12677 0.8051 0.0
C266 C 0.45067 0.1408 0.69561 0.0
C267 C 0.42692 0.11071 0.55121 0.0
H268 H 0.46444 0.14483 0.44373 0.0
C269 C 0.44201 0.10377 0.26663 0.0
C270 C 0.44557 0.1174 0.22247 0.0
C271 C 0.43944 0.10486 0.33695 0.0
C272 C 0.45377 0.13535 0.47312 0.0
H273 H 0.43371 0.09933 0.80182 0.0
H274 H 0.42894 0.0977 0.67771 0.0
H275 H 0.46537 0.14687 0.56845 0.0
H276 H 0.4489 0.14269 0.21686 0.0
H277 H 0.44493 0.14477 0.34054 0.0
H278 H 0.41601 0.09868 0.4546 0.0
C279 C 0.4355 0.1101 0.70163 0.0
C280 C 0.45421 0.13653 0.54479 0.0
C281 C 0.43828 0.11098 0.77278 0.0
C282 C 0.44613 0.13198 0.24968 0.0
C283 C 0.4439 0.13319 0.32027 0.0
C284 C 0.42669 0.10935 0.47936 0.0
C285 C 0.44199 0.12502 0.66177 0.0
C286 C 0.44084 0.12419 0.58505 0.0
C287 C 0.44071 0.11971 0.36451 0.0
C288 C 0.44016 0.12163 0.43988 0.0
H289 H 0.46113 0.15399 0.79033 0.0
H290 H 0.45539 0.15257 0.66741 0.0
H291 H 0.41625 0.10111 0.58009 0.0
H292 H 0.44142 0.09235 0.24698 0.0
H293 H 0.43713 0.09436 0.37024 0.0
C294 C 0.32149 0.46342 0.92766 0.0
C295 C 0.32006 0.45073 0.97313 0.0
C296 C 0.31994 0.46062 0.85686 0.0
C297 C 0.30465 0.42932 0.7185 0.0
H298 H 0.34344 0.46433 0.61945 0.0
C299 C 0.31085 0.4396 0.41891 0.0
C300 C 0.32659 0.44316 0.39121 0.0
C301 C 0.30814 0.43784 0.49028 0.0
C302 C 0.33255 0.45442 0.64639 0.0
H303 H 0.31495 0.42479 0.97978 0.0
H304 H 0.31216 0.41989 0.8549 0.0
H305 H 0.34174 0.46646 0.74383 0.0
H306 H 0.35136 0.44651 0.41644 0.0
H307 H 0.34661 0.44358 0.53992 0.0
H308 H 0.29546 0.41741 0.61989 0.0
C309 C 0.31451 0.432 0.87484 0.0
C310 C 0.33152 0.45571 0.71744 0.0
C311 C 0.31618 0.43484 0.94613 0.0
C312 C 0.33915 0.44399 0.43587 0.0
C313 C 0.33647 0.44232 0.50671 0.0
C314 C 0.30556 0.42815 0.64674 0.0
C315 C 0.31683 0.44505 0.82965 0.0
C316 C 0.31759 0.44321 0.75423 0.0
C317 C 0.32114 0.43971 0.53477 0.0
C318 C 0.31962 0.44067 0.61029 0.0
H319 H 0.32434 0.47578 0.94644 0.0
H320 H 0.3216 0.47082 0.82309 0.0
H321 H 0.29376 0.41956 0.7459 0.0
H322 H 0.30091 0.43886 0.38585 0.0
H323 H 0.29622 0.43588 0.51085 0.0
C324 C 0.89442 0.34098 0.60211 0.0
C325 C 0.88332 0.32799 0.55732 0.0
C326 C 0.89313 0.33852 0.67316 0.0
C327 C 0.87662 0.30745 0.81339 0.0
H328 H 0.87351 0.34314 0.90991 0.0
C329 C 0.87948 0.31673 0.11238 0.0
C330 C 0.86768 0.32083 0.14006 0.0
C331 C 0.88074 0.31542 0.04096 0.0
C332 C 0.87429 0.33303 0.88369 0.0
H333 H 0.86276 0.30188 0.55218 0.0
H334 H 0.86059 0.29758 0.67729 0.0
H335 H 0.87772 0.34501 0.78571 0.0
H336 H 0.84747 0.326 0.11432 0.0
H337 H 0.8498 0.32382 0.99053 0.0
H338 H 0.87325 0.29556 0.91236 0.0
C339 C 0.87026 0.30966 0.65677 0.0
C340 C 0.87684 0.33418 0.81272 0.0
C341 C 0.87148 0.31215 0.58527 0.0
C342 C 0.85677 0.32292 0.09498 0.0
C343 C 0.85812 0.32173 0.02394 0.0
C344 C 0.87427 0.30641 0.88499 0.0
C345 C 0.88077 0.323 0.7013 0.0
C346 C 0.87805 0.32143 0.7768 0.0
C347 C 0.87034 0.31833 0.99613 0.0
C348 C 0.87298 0.31917 0.92061 0.0
H349 H 0.90379 0.35331 0.58253 0.0
H350 H 0.90154 0.34894 0.70635 0.0
H351 H 0.87755 0.29748 0.78679 0.0
H352 H 0.88806 0.31502 0.14568 0.0
H353 H 0.89033 0.31285 0.02071 0.0
C354 C 0.55482 0.88616 0.27356 0.0
C355 C 0.54458 0.87063 0.30688 0.0
C356 C 0.55802 0.88655 0.20278 0.0
C357 C 0.53993 0.85947 0.04676 0.0
H358 H 0.57964 0.89602 0.95859 0.0
C359 C 0.54856 0.86322 0.7518 0.0
C360 C 0.54999 0.87822 0.72505 0.0
C361 C 0.55086 0.86185 0.82234 0.0
C362 C 0.56856 0.88567 0.98276 0.0
H363 H 0.53067 0.84333 0.29425 0.0
H364 H 0.537 0.84389 0.17237 0.0
H365 H 0.57826 0.89416 0.08429 0.0
H366 H 0.55602 0.90388 0.74978 0.0
H367 H 0.56046 0.9016 0.87244 0.0
H368 H 0.53034 0.85099 0.94503 0.0
C369 C 0.54192 0.85585 0.19929 0.0
C370 C 0.56766 0.88467 0.05474 0.0
C371 C 0.53838 0.8555 0.26938 0.0
C372 C 0.55475 0.89213 0.76916 0.0
C373 C 0.5574 0.89088 0.8392 0.0
C374 C 0.54099 0.8603 0.97502 0.0
C375 C 0.55133 0.87139 0.16436 0.0
C376 C 0.55316 0.87173 0.08782 0.0
C377 C 0.55502 0.87559 0.86676 0.0
C378 C 0.55515 0.87358 0.94237 0.0
H379 H 0.55968 0.898 0.30147 0.0
H380 H 0.56514 0.89879 0.17793 0.0
H381 H 0.52836 0.84954 0.06972 0.0
H382 H 0.54484 0.85229 0.7189 0.0
H383 H 0.54897 0.84992 0.84253 0.0
C384 C 0.66151 0.55811 0.93364 0.0
C385 C 0.67076 0.55349 0.88944 0.0
C386 C 0.66528 0.56056 0.00385 0.0
C387 C 0.67924 0.54393 0.13937 0.0
H388 H 0.68386 0.58166 0.24881 0.0
C389 C 0.68265 0.54172 0.43343 0.0
C390 C 0.67413 0.54826 0.47163 0.0
C391 C 0.68555 0.5451 0.36312 0.0
C392 C 0.6824 0.57093 0.21921 0.0
H393 H 0.6915 0.54828 0.88342 0.0
H394 H 0.69776 0.55205 0.00717 0.0
H395 H 0.68291 0.5829 0.12318 0.0
H396 H 0.6623 0.56377 0.46729 0.0
H397 H 0.66646 0.56895 0.34354 0.0
H398 H 0.6775 0.53134 0.23401 0.0
C399 C 0.68777 0.554 0.98696 0.0
C400 C 0.68202 0.57174 0.14729 0.0
C401 C 0.68423 0.55191 0.91635 0.0
C402 C 0.66898 0.55866 0.43882 0.0
C403 C 0.67148 0.56169 0.36791 0.0
C404 C 0.67926 0.54295 0.21109 0.0
C405 C 0.67815 0.5581 0.03137 0.0
C406 C 0.68031 0.55818 0.10688 0.0
C407 C 0.67954 0.55468 0.32879 0.0
C408 C 0.6807 0.55637 0.2522 0.0
H409 H 0.65111 0.5595 0.91416 0.0
H410 H 0.65761 0.56358 0.03717 0.0
H411 H 0.67761 0.53318 0.1093 0.0
H412 H 0.68697 0.53385 0.45789 0.0
H413 H 0.69228 0.53992 0.3356 0.0
C414 C 0.10869 0.67096 0.6243 0.0
C415 C 0.12446 0.67452 0.65126 0.0
C416 C 0.1068 0.67248 0.55364 0.0
C417 C 0.12882 0.69199 0.39336 0.0
H418 H 0.09646 0.64958 0.30684 0.0
C419 C 0.12961 0.68057 0.10093 0.0
C420 C 0.11452 0.66861 0.06872 0.0
C421 C 0.12997 0.68329 0.17199 0.0
C422 C 0.10525 0.66169 0.32974 0.0
H423 H 0.15081 0.68332 0.6263 0.0
H424 H 0.14757 0.68641 0.50295 0.0
H425 H 0.09849 0.6514 0.43153 0.0
H426 H 0.08774 0.651 0.0838 0.0
H427 H 0.08803 0.65645 0.20658 0.0
H428 H 0.13546 0.70245 0.29195 0.0
C429 C 0.13668 0.68229 0.53647 0.0
C430 C 0.10646 0.66266 0.4014 0.0
C431 C 0.13849 0.68042 0.60684 0.0
C432 C 0.0996 0.66012 0.10778 0.0
C433 C 0.09983 0.66316 0.17833 0.0
C434 C 0.12737 0.69115 0.32152 0.0
C435 C 0.12074 0.67796 0.50912 0.0
C436 C 0.11842 0.67771 0.43374 0.0
C437 C 0.11513 0.67438 0.21195 0.0
C438 C 0.11576 0.67589 0.28859 0.0
H439 H 0.09765 0.66631 0.65734 0.0
H440 H 0.09439 0.66907 0.53351 0.0
H441 H 0.1381 0.70375 0.41742 0.0
H442 H 0.14131 0.68719 0.0718 0.0
H443 H 0.14205 0.69185 0.19572 0.0
C444 C 0.8545 0.53109 0.08542 0.0
C445 C 0.86599 0.54375 0.04041 0.0
C446 C 0.85589 0.53366 0.15643 0.0
C447 C 0.87353 0.565 0.29557 0.0
H448 H 0.87452 0.52847 0.39454 0.0
C449 C 0.8703 0.55612 0.59536 0.0
C450 C 0.88155 0.55128 0.62295 0.0
C451 C 0.86916 0.55757 0.52391 0.0
C452 C 0.87433 0.5388 0.36762 0.0
H453 H 0.88745 0.56939 0.03488 0.0
H454 H 0.88978 0.57387 0.15984 0.0
H455 H 0.87032 0.52639 0.27034 0.0
H456 H 0.90112 0.54516 0.59717 0.0
H457 H 0.89901 0.54759 0.47348 0.0
H458 H 0.8775 0.57733 0.39389 0.0
C459 C 0.87972 0.56198 0.13954 0.0
C460 C 0.87178 0.53755 0.29665 0.0
C461 C 0.87842 0.55937 0.06812 0.0
C462 C 0.89219 0.54875 0.57788 0.0
C463 C 0.89098 0.5501 0.5069 0.0
C464 C 0.87588 0.56617 0.36718 0.0
C465 C 0.86873 0.54896 0.18431 0.0
C466 C 0.87136 0.55061 0.25984 0.0
C467 C 0.87917 0.55408 0.47909 0.0
C468 C 0.87643 0.55311 0.40365 0.0
H469 H 0.84471 0.51894 0.06605 0.0
H470 H 0.84711 0.52349 0.1898 0.0
H471 H 0.87322 0.57522 0.26827 0.0
H472 H 0.86194 0.55817 0.62867 0.0
H473 H 0.85991 0.56061 0.50363 0.0
C474 C 0.33762 0.89573 0.74815 0.0
C475 C 0.32848 0.88087 0.78714 0.0
C476 C 0.33453 0.89576 0.67775 0.0
C477 C 0.3049 0.86959 0.53593 0.0
H478 H 0.34452 0.89697 0.42276 0.0
C479 C 0.31301 0.85767 0.24902 0.0
C480 C 0.31975 0.87176 0.20468 0.0
C481 C 0.31146 0.85968 0.31946 0.0
C482 C 0.3333 0.88945 0.45379 0.0
H483 H 0.30878 0.85446 0.78384 0.0
H484 H 0.30399 0.85415 0.66013 0.0
H485 H 0.34717 0.89862 0.54734 0.0
H486 H 0.32969 0.8989 0.19865 0.0
H487 H 0.32747 0.90248 0.32275 0.0
H488 H 0.29142 0.85963 0.44095 0.0
C489 C 0.31313 0.866 0.68391 0.0
C490 C 0.33476 0.89043 0.52541 0.0
C491 C 0.31594 0.86611 0.75482 0.0
C492 C 0.32436 0.88782 0.23168 0.0
C493 C 0.32315 0.88988 0.30249 0.0
C494 C 0.30355 0.86837 0.46409 0.0
C495 C 0.32256 0.88079 0.64414 0.0
C496 C 0.32062 0.88042 0.56767 0.0
C497 C 0.31695 0.87586 0.34702 0.0
C498 C 0.31777 0.87822 0.42254 0.0
H499 H 0.3472 0.90736 0.77213 0.0
H500 H 0.3417 0.90753 0.64968 0.0
H501 H 0.29364 0.86193 0.56641 0.0
H502 H 0.30932 0.84514 0.22948 0.0
H503 H 0.30676 0.8487 0.35289 0.0
C504 C 0.44971 0.34394 0.91286 0.0
C505 C 0.44604 0.33048 0.95821 0.0
C506 C 0.44789 0.34125 0.84199 0.0
C507 C 0.42839 0.30999 0.70403 0.0
H508 H 0.4691 0.34097 0.6032 0.0
C509 C 0.43512 0.31898 0.40381 0.0
C510 C 0.44998 0.32021 0.37606 0.0
C511 C 0.43248 0.31778 0.47526 0.0
C512 C 0.45766 0.3322 0.63065 0.0
H513 H 0.43678 0.30343 0.96455 0.0
H514 H 0.43352 0.29874 0.83971 0.0
H515 H 0.46816 0.34386 0.72752 0.0
H516 H 0.47311 0.31994 0.40134 0.0
H517 H 0.46852 0.31797 0.52493 0.0
H518 H 0.41792 0.29844 0.60602 0.0
C519 C 0.43781 0.31136 0.85971 0.0
C520 C 0.45707 0.33393 0.70167 0.0
C521 C 0.43976 0.31408 0.93101 0.0
C522 C 0.46162 0.31924 0.4208 0.0
C523 C 0.45903 0.31812 0.49171 0.0
C524 C 0.42889 0.3084 0.63232 0.0
C525 C 0.44227 0.32503 0.81461 0.0
C526 C 0.44247 0.32286 0.73912 0.0
C527 C 0.44471 0.31788 0.51978 0.0
C528 C 0.44361 0.31943 0.59524 0.0
H529 H 0.45448 0.35673 0.93183 0.0
H530 H 0.45124 0.35197 0.80831 0.0
H531 H 0.41698 0.30134 0.7319 0.0
H532 H 0.4259 0.31968 0.37071 0.0
H533 H 0.42135 0.31765 0.49584 0.0
C534 C 0.10361 0.44247 0.08518 0.0
C535 C 0.11739 0.44678 0.12952 0.0
C536 C 0.10501 0.44025 0.01478 0.0
C537 C 0.13563 0.45701 0.87976 0.0
H538 H 0.10326 0.41891 0.76982 0.0
C539 C 0.14227 0.45894 0.58601 0.0
C540 C 0.12731 0.45203 0.54693 0.0
C541 C 0.14162 0.45574 0.65655 0.0
C542 C 0.11232 0.42975 0.79954 0.0
H543 H 0.14327 0.45173 0.13551 0.0
H544 H 0.14587 0.44838 0.01162 0.0
H545 H 0.10068 0.41775 0.89532 0.0
H546 H 0.09999 0.4361 0.55006 0.0
H547 H 0.09865 0.43124 0.67399 0.0
H548 H 0.14665 0.46962 0.78533 0.0
C549 C 0.13395 0.44648 0.03182 0.0
C550 C 0.11089 0.42898 0.87139 0.0
C551 C 0.13243 0.44834 0.10251 0.0
C552 C 0.11171 0.44148 0.57917 0.0
C553 C 0.11099 0.43863 0.65023 0.0
C554 C 0.13685 0.45795 0.8081 0.0
C555 C 0.12032 0.44264 0.98735 0.0
C556 C 0.12249 0.44265 0.91194 0.0
C557 C 0.12594 0.44597 0.69017 0.0
C558 C 0.12515 0.44438 0.76679 0.0
H559 H 0.09184 0.44112 0.10471 0.0
H560 H 0.09438 0.43741 0.98132 0.0
H561 H 0.14456 0.46783 0.91003 0.0
H562 H 0.15449 0.46694 0.56204 0.0
H563 H 0.15345 0.46118 0.6848 0.0
C564 C 0.67719 0.11576 0.73917 0.0
C565 C 0.67461 0.12857 0.71137 0.0
C566 C 0.6785 0.11446 0.8106 0.0
C567 C 0.66277 0.12345 0.96729 0.0
H568 H 0.69576 0.11619 0.06534 0.0
C569 C 0.6527 0.10302 0.24856 0.0
C570 C 0.66598 0.11333 0.29378 0.0
C571 C 0.6553 0.10419 0.17761 0.0
C572 C 0.68652 0.11824 0.03839 0.0
H573 H 0.67229 0.15059 0.73677 0.0
H574 H 0.67444 0.14819 0.86046 0.0
H575 H 0.69814 0.12037 0.93964 0.0
H576 H 0.69271 0.13233 0.29979 0.0
H577 H 0.69726 0.13427 0.1748 0.0
H578 H 0.65103 0.12123 0.06499 0.0
C579 C 0.67533 0.1391 0.8272 0.0
C580 C 0.68782 0.12053 0.96675 0.0
C581 C 0.67413 0.14047 0.75622 0.0
C582 C 0.6822 0.12423 0.26636 0.0
C583 C 0.68483 0.12531 0.19495 0.0
C584 C 0.66135 0.12095 0.03828 0.0
C585 C 0.6771 0.12586 0.85522 0.0
C586 C 0.67599 0.12326 0.93075 0.0
C587 C 0.67126 0.11562 0.15 0.0
C588 C 0.67317 0.11831 0.07458 0.0
H589 H 0.67764 0.10642 0.70604 0.0
H590 H 0.6798 0.1041 0.83104 0.0
H591 H 0.65337 0.12535 0.94075 0.0
H592 H 0.64007 0.09438 0.2677 0.0
H593 H 0.64468 0.09641 0.14406 0.0
C594 C 0.55584 0.68405 0.43339 0.0
C595 C 0.54986 0.6677 0.46069 0.0
C596 C 0.55769 0.68674 0.36206 0.0
C597 C 0.53857 0.66389 0.20427 0.0
H598 H 0.57721 0.69992 0.10818 0.0
C599 C 0.53342 0.67822 0.9233 0.0
C600 C 0.5453 0.67771 0.87847 0.0
C601 C 0.536 0.67932 0.99423 0.0
C602 C 0.56638 0.68981 0.13459 0.0
H603 H 0.54186 0.64154 0.43448 0.0
H604 H 0.54495 0.64626 0.3109 0.0
H605 H 0.57836 0.6971 0.23399 0.0
H606 H 0.56974 0.67901 0.87302 0.0
H607 H 0.57426 0.68102 0.99813 0.0
H608 H 0.52649 0.6566 0.10595 0.0
C609 C 0.54813 0.65695 0.34451 0.0
C610 C 0.567 0.68826 0.20627 0.0
C611 C 0.5464 0.65429 0.41542 0.0
C612 C 0.56034 0.67935 0.90618 0.0
C613 C 0.56296 0.68054 0.97763 0.0
C614 C 0.53787 0.66557 0.13326 0.0
C615 C 0.55343 0.6731 0.31703 0.0
C616 C 0.5531 0.6752 0.24154 0.0
C617 C 0.55053 0.68001 0.02223 0.0
C618 C 0.55173 0.67853 0.09768 0.0
H619 H 0.55865 0.69466 0.46686 0.0
H620 H 0.56174 0.6993 0.34199 0.0
H621 H 0.52762 0.65381 0.23024 0.0
H622 H 0.52178 0.67717 0.90389 0.0
H623 H 0.52634 0.67913 0.02751 0.0
C624 C 0.40814 0.06341 0.03559 0.0
C625 C 0.42393 0.06969 0.00278 0.0
C626 C 0.39622 0.0461 0.03325 0.0
C627 C 0.38305 0.00667 0.93987 0.0
H628 H 0.37268 0.98459 0.11858 0.0
C629 C 0.34402 0.93387 0.973 0.0
C630 C 0.35361 0.9277 0.00594 0.0
C631 C 0.3493 0.95115 0.97513 0.0
C632 C 0.37528 0.99064 0.06849 0.0
H633 H 0.43931 0.06312 0.9387 0.0
H634 H 0.41824 0.03291 0.93311 0.0
H635 H 0.38783 0.01564 0.11185 0.0
H636 H 0.37562 0.93445 0.06987 0.0
H637 H 0.3846 0.96464 0.07499 0.0
H638 H 0.37093 0.98168 0.8965 0.0
C639 C 0.4152 0.04135 0.96112 0.0
C640 C 0.38383 0.00832 0.06462 0.0
C641 C 0.42726 0.05856 0.96469 0.0
C642 C 0.36807 0.93893 0.04375 0.0
C643 C 0.37314 0.95613 0.04707 0.0
C644 C 0.37422 0.98899 0.94375 0.0
C645 C 0.39976 0.03493 0.99665 0.0
C646 C 0.38821 0.01645 0.00028 0.0
C647 C 0.36399 0.96241 0.01159 0.0
C648 C 0.37072 0.98087 0.00807 0.0
H649 H 0.40531 0.07174 0.06552 0.0
H650 H 0.38437 0.04136 0.06105 0.0
H651 H 0.38634 0.01273 0.88977 0.0
H652 H 0.33284 0.92548 0.94329 0.0
H653 H 0.3421 0.95578 0.94739 0.0
C654 C 0.42737 0.36839 0.22039 0.0
C655 C 0.42418 0.35372 0.18429 0.0
C656 C 0.41519 0.37342 0.22219 0.0
C657 C 0.38367 0.37389 0.11529 0.0
H658 H 0.36988 0.3882 0.2794 0.0
C659 C 0.36644 0.42664 0.12793 0.0
C660 C 0.35179 0.42324 0.16477 0.0
C661 C 0.37174 0.41468 0.12576 0.0
C662 C 0.37343 0.38401 0.23328 0.0
H663 H 0.40561 0.3325 0.12353 0.0
H664 H 0.3845 0.34166 0.12503 0.0
H665 H 0.38595 0.3733 0.29064 0.0
H666 H 0.33088 0.40453 0.22632 0.0
H667 H 0.34055 0.38379 0.22427 0.0
H668 H 0.37212 0.38558 0.0579 0.0
C669 C 0.39634 0.34907 0.15257 0.0
C670 C 0.38265 0.3756 0.23972 0.0
C671 C 0.40837 0.34384 0.15198 0.0
C672 C 0.34218 0.40742 0.19726 0.0
C673 C 0.3477 0.39561 0.19636 0.0
C674 C 0.37475 0.3826 0.10884 0.0
C675 C 0.39977 0.36402 0.18686 0.0
C676 C 0.38809 0.37075 0.18076 0.0
C677 C 0.36267 0.39928 0.16152 0.0
C678 C 0.36983 0.38798 0.16778 0.0
H679 H 0.43943 0.37618 0.24592 0.0
H680 H 0.41814 0.38508 0.24851 0.0
H681 H 0.38789 0.37038 0.06914 0.0
H682 H 0.37402 0.43873 0.1023 0.0
H683 H 0.3834 0.41781 0.09902 0.0
C684 C 0.06382 0.41005 0.31461 0.0
C685 C 0.06956 0.42582 0.34693 0.0
C686 C 0.04656 0.39796 0.31415 0.0
C687 C 0.00617 0.38382 0.39969 0.0
H688 H 0.98581 0.37352 0.21756 0.0
C689 C 0.93401 0.34289 0.35726 0.0
C690 C 0.92766 0.35246 0.32552 0.0
C691 C 0.95138 0.34853 0.35574 0.0
C692 C 0.99139 0.37609 0.26857 0.0
H693 H 0.06201 0.44099 0.40726 0.0
H694 H 0.03183 0.41958 0.40818 0.0
H695 H 0.01679 0.38956 0.22929 0.0
H696 H 0.93415 0.37469 0.26348 0.0
H697 H 0.96449 0.38428 0.25919 0.0
H698 H 0.98078 0.37071 0.43901 0.0
C699 C 0.04069 0.41671 0.38263 0.0
C700 C 0.00902 0.38517 0.27529 0.0
C701 C 0.05789 0.42896 0.38179 0.0
C702 C 0.93876 0.36714 0.28857 0.0
C703 C 0.95606 0.37257 0.28581 0.0
C704 C 0.98855 0.37444 0.39297 0.0
C705 C 0.03487 0.4013 0.34746 0.0
C706 C 0.0165 0.38948 0.34089 0.0
C707 C 0.96254 0.36357 0.32105 0.0
C708 C 0.98104 0.37092 0.32738 0.0
H709 H 0.07256 0.40736 0.28706 0.0
H710 H 0.04229 0.38613 0.28672 0.0
H711 H 0.01173 0.38705 0.4507 0.0
H712 H 0.92572 0.33156 0.38636 0.0
H713 H 0.95616 0.34143 0.38323 0.0
C714 C 0.58544 0.93308 0.51511 0.0
C715 C 0.56808 0.92764 0.52315 0.0
C716 C 0.59762 0.95031 0.52111 0.0
C717 C 0.60404 0.98876 0.60487 0.0
H718 H 0.63376 0.01441 0.45393 0.0
C719 C 0.62492 0.05791 0.55802 0.0
C720 C 0.64103 0.06901 0.53062 0.0
C721 C 0.6197 0.04084 0.56792 0.0
C722 C 0.62588 0.0074 0.49733 0.0
H723 H 0.54991 0.93607 0.54178 0.0
H724 H 0.57109 0.96587 0.55296 0.0
H725 H 0.61754 0.98339 0.44795 0.0
H726 H 0.66459 0.0711 0.49483 0.0
H727 H 0.65532 0.04104 0.51193 0.0
H728 H 0.6118 0.01262 0.65336 0.0
C729 C 0.57526 0.95683 0.54246 0.0
C730 C 0.6166 0.98968 0.49373 0.0
C731 C 0.56314 0.93977 0.53549 0.0
C732 C 0.65208 0.06282 0.51586 0.0
C733 C 0.64677 0.04563 0.52537 0.0
C734 C 0.61338 0.0064 0.60874 0.0
C735 C 0.59258 0.96221 0.53639 0.0
C736 C 0.60507 0.98033 0.54616 0.0
C737 C 0.63043 0.03445 0.55059 0.0
C738 C 0.62379 0.01592 0.55361 0.0
H739 H 0.58962 0.92403 0.50532 0.0
H740 H 0.61094 0.95427 0.51573 0.0
H741 H 0.59539 0.98173 0.64637 0.0
H742 H 0.61615 0.06231 0.57034 0.0
H743 H 0.60693 0.03251 0.58647 0.0
C744 C 0.62722 0.56984 0.63995 0.0
C745 C 0.64212 0.57331 0.6748 0.0
C746 C 0.62206 0.58191 0.63816 0.0
C747 C 0.62146 0.61352 0.74296 0.0
H748 H 0.60724 0.62696 0.57762 0.0
C749 C 0.56817 0.62996 0.72681 0.0
C750 C 0.57146 0.64448 0.68933 0.0
C751 C 0.58029 0.62487 0.72994 0.0
C752 C 0.6114 0.62352 0.62408 0.0
H753 H 0.66355 0.59215 0.73377 0.0
H754 H 0.65412 0.61309 0.73253 0.0
H755 H 0.62241 0.61114 0.56773 0.0
H756 H 0.59015 0.66541 0.62768 0.0
H757 H 0.61114 0.6561 0.63144 0.0
H758 H 0.60944 0.62491 0.79934 0.0
C759 C 0.64666 0.60114 0.70579 0.0
C760 C 0.61997 0.61445 0.61841 0.0
C761 C 0.65204 0.58921 0.70626 0.0
C762 C 0.58731 0.65419 0.65715 0.0
C763 C 0.59929 0.64887 0.65906 0.0
C764 C 0.61258 0.6223 0.74865 0.0
C765 C 0.63154 0.59748 0.67236 0.0
C766 C 0.62477 0.60913 0.67781 0.0
C767 C 0.59573 0.63404 0.69458 0.0
C768 C 0.60723 0.62707 0.68924 0.0
H769 H 0.6194 0.55769 0.61512 0.0
H770 H 0.61027 0.5788 0.61258 0.0
H771 H 0.62494 0.60939 0.78941 0.0
H772 H 0.55608 0.62232 0.7523 0.0
H773 H 0.57725 0.61329 0.75716 0.0
C774 C 0.0566 0.62506 0.8188 0.0
C775 C 0.06799 0.64136 0.84362 0.0
C776 C 0.03949 0.61986 0.81078 0.0
C777 C 0.00652 0.627 0.88078 0.0
H778 H 0.98026 0.5958 0.73451 0.0
C779 C 0.93176 0.58738 0.84952 0.0
C780 C 0.92635 0.56992 0.84912 0.0
C781 C 0.94909 0.59943 0.84711 0.0
C782 C 0.98747 0.60469 0.77511 0.0
H783 H 0.07049 0.66526 0.8773 0.0
H784 H 0.04035 0.65604 0.86343 0.0
H785 H 0.01115 0.61174 0.72649 0.0
H786 H 0.93493 0.5515 0.84973 0.0
H787 H 0.96493 0.5725 0.84432 0.0
H788 H 0.98262 0.61936 0.93013 0.0
C789 C 0.04476 0.64732 0.85054 0.0
C790 C 0.0051 0.61373 0.77075 0.0
C791 C 0.06199 0.65258 0.8582 0.0
C792 C 0.93859 0.56481 0.84959 0.0
C793 C 0.95577 0.57679 0.84623 0.0
C794 C 0.98879 0.61802 0.8848 0.0
C795 C 0.03333 0.63083 0.8274 0.0
C796 C 0.01483 0.62438 0.82497 0.0
C797 C 0.96112 0.59413 0.8434 0.0
C798 C 0.97926 0.60631 0.83325 0.0
H799 H 0.06083 0.61614 0.80672 0.0
H800 H 0.03097 0.60698 0.7939 0.0
H801 H 0.0137 0.63507 0.92347 0.0
H802 H 0.92263 0.59171 0.84952 0.0
H803 H 0.95306 0.61281 0.84535 0.0
C804 C 0.50065 0.09465 0.92063 0.0
C805 C 0.49634 0.10626 0.89282 0.0
C806 C 0.51178 0.09088 0.88572 0.0
C807 C 0.53342 0.09562 0.71793 0.0
H808 H 0.56956 0.09819 0.83248 0.0
C809 C 0.60743 0.11561 0.68511 0.0
C810 C 0.6066 0.10752 0.62239 0.0
C811 C 0.59259 0.11176 0.72072 0.0
C812 C 0.55955 0.09742 0.7998 0.0
H813 H 0.49949 0.12218 0.80441 0.0
H814 H 0.51906 0.11582 0.74417 0.0
H815 H 0.54535 0.09812 0.8861 0.0
H816 H 0.58964 0.0882 0.55035 0.0
H817 H 0.56381 0.08134 0.61307 0.0
H818 H 0.54809 0.0959 0.63148 0.0
C819 C 0.51376 0.1095 0.79268 0.0
C820 C 0.54556 0.09716 0.83054 0.0
C821 C 0.50259 0.11323 0.82746 0.0
C822 C 0.59071 0.09483 0.59809 0.0
C823 C 0.57589 0.09094 0.63383 0.0
C824 C 0.54744 0.09593 0.68719 0.0
C825 C 0.51884 0.09864 0.82229 0.0
C826 C 0.53251 0.09665 0.78988 0.0
C827 C 0.57663 0.09968 0.6946 0.0
C828 C 0.56085 0.09722 0.72773 0.0
H829 H 0.4959 0.08889 0.97054 0.0
H830 H 0.5152 0.08221 0.90927 0.0
H831 H 0.52348 0.09501 0.68523 0.0
H832 H 0.61947 0.12541 0.70539 0.0
H833 H 0.59362 0.11885 0.76704 0.0
C834 C 0.38917 0.50104 0.00145 0.0
C835 C 0.38912 0.49856 0.07293 0.0
C836 C 0.40401 0.51312 0.9684 0.0
C837 C 0.43974 0.55389 0.99806 0.0
H838 H 0.46176 0.54584 0.84357 0.0
C839 C 0.49695 0.60968 0.86546 0.0
C840 C 0.49759 0.60888 0.79343 0.0
C841 C 0.48574 0.59529 0.90326 0.0
C842 C 0.45567 0.54837 0.88612 0.0
H843 H 0.40468 0.50644 0.16542 0.0
H844 H 0.43031 0.52777 0.10775 0.0
H845 H 0.43756 0.5219 0.89935 0.0
H846 H 0.48724 0.59237 0.70447 0.0
H847 H 0.46729 0.56772 0.76932 0.0
H848 H 0.45689 0.58029 0.98308 0.0
C849 C 0.41896 0.52022 0.07748 0.0
C850 C 0.44189 0.53463 0.91813 0.0
C851 C 0.40429 0.50797 0.11022 0.0
C852 C 0.48717 0.59336 0.76009 0.0
C853 C 0.47576 0.57912 0.79754 0.0
C854 C 0.45323 0.56766 0.96519 0.0
C855 C 0.41886 0.52307 0.00664 0.0
C856 C 0.4338 0.53734 0.97404 0.0
C857 C 0.47469 0.57992 0.86959 0.0
C858 C 0.46131 0.56512 0.9083 0.0
H859 H 0.37768 0.49395 0.97147 0.0
H860 H 0.40371 0.51522 0.91361 0.0
H861 H 0.43355 0.55622 0.04094 0.0
H862 H 0.50494 0.62147 0.89246 0.0
H863 H 0.48559 0.59632 0.95878 0.0
C864 C 0.88518 0.49581 0.01934 0.0
C865 C 0.88585 0.49585 0.94715 0.0
C866 C 0.88843 0.48471 0.05739 0.0
C867 C 0.90416 0.45374 0.04048 0.0
H868 H 0.87627 0.43401 0.20277 0.0
C869 C 0.88591 0.38861 0.1661 0.0
C870 C 0.88872 0.38909 0.23748 0.0
C871 C 0.88859 0.40321 0.13129 0.0
C872 C 0.88424 0.43954 0.15785 0.0
H873 H 0.89065 0.48451 0.858 0.0
H874 H 0.89544 0.46463 0.92356 0.0
H875 H 0.87512 0.45677 0.14198 0.0
H876 H 0.89702 0.40533 0.32791 0.0
H877 H 0.90119 0.4306 0.26719 0.0
H878 H 0.91235 0.43553 0.05488 0.0
C879 C 0.89306 0.47352 0.95155 0.0
C880 C 0.88372 0.4527 0.12318 0.0
C881 C 0.8902 0.48488 0.91372 0.0
C882 C 0.8948 0.40455 0.27286 0.0
C883 C 0.89713 0.419 0.23834 0.0
C884 C 0.90436 0.44029 0.0744 0.0
C885 C 0.89201 0.4731 0.02393 0.0
C886 C 0.89358 0.45993 0.06365 0.0
C887 C 0.89379 0.41837 0.1676 0.0
C888 C 0.89434 0.43307 0.13312 0.0
H889 H 0.88201 0.50428 0.04636 0.0
H890 H 0.88792 0.4851 0.11303 0.0
H891 H 0.91222 0.45918 0.99582 0.0
H892 H 0.88127 0.37688 0.13755 0.0
H893 H 0.88587 0.40246 0.07665 0.0
C894 C 0.48541 0.89568 0.45453 0.0
C895 C 0.49498 0.89031 0.41612 0.0
C896 C 0.47389 0.89923 0.42187 0.0
C897 C 0.46146 0.90983 0.25925 0.0
H898 H 0.41529 0.88071 0.32239 0.0
C899 C 0.40376 0.8953 0.09203 0.0
C900 C 0.38811 0.89065 0.1233 0.0
C901 C 0.41785 0.89872 0.13197 0.0
C902 C 0.42809 0.88931 0.30497 0.0
H903 H 0.50078 0.88549 0.31306 0.0
H904 H 0.48077 0.89207 0.25572 0.0
H905 H 0.43865 0.88097 0.38399 0.0
H906 H 0.37519 0.88707 0.22087 0.0
H907 H 0.40003 0.89384 0.29109 0.0
H908 H 0.45104 0.91836 0.18062 0.0
C909 C 0.48216 0.89335 0.31118 0.0
C910 C 0.44147 0.88934 0.34015 0.0
C911 C 0.4935 0.88951 0.34397 0.0
C912 C 0.38707 0.89043 0.19545 0.0
C913 C 0.40129 0.8942 0.23557 0.0
C914 C 0.4481 0.91007 0.22475 0.0
C915 C 0.47195 0.89779 0.35012 0.0
C916 C 0.4582 0.89931 0.31672 0.0
C917 C 0.41674 0.8979 0.20429 0.0
C918 C 0.43118 0.89948 0.24611 0.0
H919 H 0.48623 0.89642 0.51022 0.0
H920 H 0.46618 0.90269 0.45281 0.0
H921 H 0.47432 0.91773 0.24072 0.0
H922 H 0.40494 0.89547 0.03645 0.0
H923 H 0.42936 0.90121 0.10569 0.0
C924 C 0.60403 0.49693 0.50576 0.0
C925 C 0.60467 0.49877 0.57775 0.0
C926 C 0.589 0.48498 0.47351 0.0
C927 C 0.55367 0.44367 0.50343 0.0
H928 H 0.53175 0.45191 0.3491 0.0
C929 C 0.49766 0.38789 0.36545 0.0
C930 C 0.49739 0.38898 0.2934 0.0
C931 C 0.50841 0.4022 0.40462 0.0
C932 C 0.53781 0.44933 0.39166 0.0
H933 H 0.58992 0.48996 0.67213 0.0
H934 H 0.56392 0.46885 0.61571 0.0
H935 H 0.55562 0.47582 0.40657 0.0
H936 H 0.50789 0.40596 0.20588 0.0
H937 H 0.52707 0.43052 0.27317 0.0
H938 H 0.53686 0.41727 0.4866 0.0
C939 C 0.57498 0.47677 0.58445 0.0
C940 C 0.55139 0.46305 0.42468 0.0
C941 C 0.58985 0.4889 0.61652 0.0
C942 C 0.50769 0.40473 0.26144 0.0
C943 C 0.51865 0.4189 0.3003 0.0
C944 C 0.54037 0.42994 0.46958 0.0
C945 C 0.57452 0.47452 0.51293 0.0
C946 C 0.55949 0.46029 0.4804 0.0
C947 C 0.51937 0.41781 0.37238 0.0
C948 C 0.53237 0.43255 0.41262 0.0
H949 H 0.61524 0.50439 0.47463 0.0
H950 H 0.58891 0.48335 0.41819 0.0
H951 H 0.55988 0.44126 0.54602 0.0
H952 H 0.48973 0.37593 0.39143 0.0
H953 H 0.50829 0.40093 0.4601 0.0
C954 C 0.09935 0.50855 0.41311 0.0
C955 C 0.10604 0.49972 0.44852 0.0
C956 C 0.09591 0.5199 0.448 0.0
C957 C 0.0879 0.53292 0.61445 0.0
H958 H 0.11464 0.57879 0.54441 0.0
C959 C 0.10224 0.5914 0.7775 0.0
C960 C 0.10583 0.60657 0.74458 0.0
C961 C 0.09899 0.57714 0.73891 0.0
C962 C 0.1067 0.56606 0.56395 0.0
H963 H 0.1133 0.495 0.54894 0.0
H964 H 0.10692 0.51468 0.61026 0.0
H965 H 0.11421 0.55545 0.4822 0.0
H966 H 0.10769 0.61847 0.64588 0.0
H967 H 0.10112 0.59333 0.57824 0.0
H968 H 0.08013 0.54339 0.6957 0.0
C969 C 0.10452 0.51287 0.55537 0.0
C970 C 0.10658 0.55269 0.52837 0.0
C971 C 0.10825 0.5017 0.52027 0.0
C972 C 0.10517 0.60696 0.67245 0.0
C973 C 0.10153 0.59258 0.6338 0.0
C974 C 0.08771 0.54627 0.64942 0.0
C975 C 0.09879 0.52239 0.5191 0.0
C976 C 0.09744 0.53608 0.55397 0.0
C977 C 0.0989 0.57762 0.66644 0.0
C978 C 0.09742 0.56309 0.62543 0.0
H979 H 0.09749 0.50732 0.35784 0.0
H980 H 0.09144 0.52708 0.41912 0.0
H981 H 0.08067 0.52016 0.63477 0.0
H982 H 0.10278 0.59077 0.83312 0.0
H983 H 0.09733 0.56604 0.76617 0.0
C984 C 0.45586 0.17572 0.02942 0.0
C985 C 0.47031 0.17391 0.02813 0.0
C986 C 0.45745 0.19162 0.03875 0.0
C987 C 0.48564 0.2342 0.10691 0.0
H988 H 0.45736 0.24572 0.996 0.0
C989 C 0.48719 0.29845 0.13046 0.0
C990 C 0.47112 0.29703 0.13561 0.0
C991 C 0.48866 0.28439 0.11199 0.0
C992 C 0.4653 0.24266 0.02745 0.0
H993 H 0.49777 0.18736 0.03714 0.0
H994 H 0.50052 0.21525 0.05337 0.0
H995 H 0.45708 0.21919 0.9748 0.0
H996 H 0.44403 0.27988 0.12401 0.0
H997 H 0.44661 0.25546 0.0922 0.0
H998 H 0.49362 0.25759 0.16036 0.0
C999 C 0.48797 0.20429 0.04722 0.0
C1000 C 0.46512 0.22748 0.01541 0.0
C1001 C 0.48639 0.18834 0.03771 0.0
C1002 C 0.4566 0.28139 0.1208 0.0
C1003 C 0.45807 0.26742 0.102 0.0
C1004 C 0.48583 0.24943 0.11895 0.0
C1005 C 0.47352 0.20609 0.04711 0.0
C1006 C 0.475 0.22292 0.056 0.0
C1007 C 0.47409 0.26874 0.09771 0.0
C1008 C 0.47537 0.25361 0.08027 0.0
H1009 H 0.44327 0.16486 0.02276 0.0
H1010 H 0.44605 0.19257 0.03987 0.0
H1011 H 0.4933 0.23096 0.13923 0.0
H1012 H 0.49863 0.31035 0.14139 0.0
H1013 H 0.50117 0.28576 0.1086 0.0
C1014 C 0.18813 0.48873 0.3098 0.0
C1015 C 0.17342 0.47272 0.3159 0.0
C1016 C 0.20364 0.49002 0.29242 0.0
C1017 C 0.22155 0.46615 0.20966 0.0
H1018 H 0.26171 0.49431 0.31884 0.0
C1019 C 0.27869 0.45623 0.20771 0.0
C1020 C 0.295 0.47059 0.20519 0.0
C1021 C 0.26451 0.45797 0.21846 0.0
C1022 C 0.25067 0.48659 0.28726 0.0
H1023 H 0.1634 0.44554 0.30785 0.0
H1024 H 0.19037 0.44783 0.27778 0.0
H1025 H 0.23555 0.4949 0.34105 0.0
H1026 H 0.30925 0.49807 0.21363 0.0
H1027 H 0.28432 0.50108 0.2322 0.0
H1028 H 0.23648 0.45764 0.15647 0.0
C1029 C 0.18992 0.45937 0.28601 0.0
C1030 C 0.23573 0.48694 0.29994 0.0
C1031 C 0.1745 0.45807 0.30379 0.0
C1032 C 0.29684 0.48674 0.21514 0.0
C1033 C 0.2826 0.48848 0.22599 0.0
C1034 C 0.23644 0.46583 0.19693 0.0
C1035 C 0.20464 0.47533 0.28013 0.0
C1036 C 0.22094 0.47643 0.26222 0.0
C1037 C 0.26628 0.47411 0.22693 0.0
C1038 C 0.25104 0.47574 0.23661 0.0
H1039 H 0.18769 0.50025 0.31872 0.0
H1040 H 0.21481 0.50248 0.28787 0.0
H1041 H 0.21041 0.45817 0.17893 0.0
H1042 H 0.27681 0.44359 0.20089 0.0
H1043 H 0.25211 0.44663 0.22042 0.0
C1044 C 0.71618 0.17374 0.4712 0.0
C1045 C 0.7002 0.17251 0.47591 0.0
C1046 C 0.73075 0.18942 0.46143 0.0
C1047 C 0.74626 0.2329 0.40091 0.0
H1048 H 0.78592 0.24217 0.50857 0.0
C1049 C 0.80952 0.29684 0.38848 0.0
C1050 C 0.82408 0.29533 0.38071 0.0
C1051 C 0.79389 0.28262 0.40441 0.0
C1052 C 0.77496 0.23973 0.478 0.0
H1053 H 0.68692 0.18675 0.47184 0.0
H1054 H 0.71252 0.21427 0.455 0.0
H1055 H 0.75933 0.21575 0.52644 0.0
H1056 H 0.83373 0.27783 0.38497 0.0
H1057 H 0.80651 0.25311 0.4125 0.0
H1058 H 0.76204 0.25686 0.35191 0.0
C1059 C 0.71369 0.20302 0.45877 0.0
C1060 C 0.75977 0.22461 0.4881 0.0
C1061 C 0.69905 0.18728 0.46858 0.0
C1062 C 0.82275 0.27942 0.39036 0.0
C1063 C 0.80719 0.26527 0.40664 0.0
C1064 C 0.7615 0.24808 0.39085 0.0
C1065 C 0.72969 0.20425 0.45617 0.0
C1066 C 0.74536 0.22089 0.44873 0.0
C1067 C 0.7926 0.26671 0.41348 0.0
C1068 C 0.77606 0.25146 0.42842 0.0
H1069 H 0.7175 0.16259 0.47586 0.0
H1070 H 0.74288 0.18993 0.45806 0.0
H1071 H 0.73537 0.23032 0.3696 0.0
H1072 H 0.81014 0.30895 0.38151 0.0
H1073 H 0.78284 0.28408 0.40993 0.0
C1074 C 0.53858 0.82145 0.52166 0.0
C1075 C 0.52399 0.82302 0.52229 0.0
C1076 C 0.53726 0.80563 0.53009 0.0
C1077 C 0.50954 0.76316 0.60062 0.0
H1078 H 0.53816 0.7517 0.49183 0.0
C1079 C 0.50839 0.69933 0.62905 0.0
C1080 C 0.52449 0.70086 0.63546 0.0
C1081 C 0.50688 0.71325 0.60895 0.0
C1082 C 0.53012 0.75476 0.52264 0.0
H1083 H 0.49654 0.8092 0.53264 0.0
H1084 H 0.49427 0.78151 0.54703 0.0
H1085 H 0.53814 0.77802 0.46863 0.0
H1086 H 0.55158 0.71805 0.62423 0.0
H1087 H 0.54892 0.74228 0.5896 0.0
H1088 H 0.50174 0.73999 0.65536 0.0
C1089 C 0.50672 0.79257 0.5404 0.0
C1090 C 0.53013 0.76982 0.50949 0.0
C1091 C 0.50804 0.80842 0.53192 0.0
C1092 C 0.53899 0.71647 0.62015 0.0
C1093 C 0.53747 0.73032 0.59971 0.0
C1094 C 0.5095 0.74806 0.6137 0.0
C1095 C 0.52132 0.79103 0.53935 0.0
C1096 C 0.52011 0.77434 0.54927 0.0
C1097 C 0.52142 0.72888 0.59429 0.0
C1098 C 0.52006 0.74391 0.57574 0.0
H1099 H 0.55106 0.83245 0.51474 0.0
H1100 H 0.54877 0.80488 0.53034 0.0
H1101 H 0.50179 0.76639 0.63248 0.0
H1102 H 0.49696 0.68744 0.64024 0.0
H1103 H 0.49435 0.7118 0.60469 0.0
C1104 C 0.82178 0.541 0.78653 0.0
C1105 C 0.82266 0.52621 0.79765 0.0
C1106 C 0.80647 0.53992 0.76799 0.0
C1107 C 0.76059 0.51207 0.77976 0.0
H1108 H 0.75967 0.54218 0.64056 0.0
C1109 C 0.69892 0.51125 0.69842 0.0
C1110 C 0.70032 0.52727 0.69082 0.0
C1111 C 0.71343 0.50989 0.70735 0.0
C1112 C 0.75976 0.53376 0.67985 0.0
H1113 H 0.80822 0.49866 0.79712 0.0
H1114 H 0.78142 0.49683 0.76489 0.0
H1115 H 0.78597 0.54203 0.6626 0.0
H1116 H 0.71801 0.55441 0.68806 0.0
H1117 H 0.74317 0.55201 0.70443 0.0
H1118 H 0.73445 0.50408 0.79806 0.0
C1119 C 0.79259 0.50923 0.77097 0.0
C1120 C 0.77479 0.53367 0.69235 0.0
C1121 C 0.80794 0.5103 0.78914 0.0
C1122 C 0.71648 0.54186 0.69316 0.0
C1123 C 0.73092 0.5405 0.70208 0.0
C1124 C 0.74553 0.5122 0.76737 0.0
C1125 C 0.79172 0.52403 0.76039 0.0
C1126 C 0.77542 0.52304 0.74322 0.0
C1127 C 0.72958 0.52451 0.7088 0.0
C1128 C 0.74506 0.52327 0.71814 0.0
H1129 H 0.83289 0.55345 0.79241 0.0
H1130 H 0.80611 0.55154 0.76093 0.0
H1131 H 0.76077 0.50385 0.81969 0.0
H1132 H 0.68665 0.49976 0.69687 0.0
H1133 H 0.71203 0.49739 0.71209 0.0
C1134 C 0.1737 0.71728 0.87444 0.0
C1135 C 0.17205 0.70109 0.87452 0.0
C1136 C 0.18954 0.73172 0.88339 0.0
C1137 C 0.23212 0.74657 0.95271 0.0
H1138 H 0.24367 0.78593 0.83888 0.0
C1139 C 0.29657 0.80912 0.97198 0.0
C1140 C 0.29534 0.82391 0.97532 0.0
C1141 C 0.28239 0.79356 0.95501 0.0
C1142 C 0.24059 0.77505 0.87117 0.0
H1143 H 0.18571 0.68732 0.8854 0.0
H1144 H 0.21346 0.71266 0.90089 0.0
H1145 H 0.21711 0.75961 0.81888 0.0
H1146 H 0.27836 0.834 0.96238 0.0
H1147 H 0.25369 0.80691 0.93328 0.0
H1148 H 0.25554 0.76217 0.0057 0.0
C1149 C 0.20244 0.71411 0.89405 0.0
C1150 C 0.22539 0.76001 0.85981 0.0
C1151 C 0.18656 0.69963 0.88494 0.0
C1152 C 0.27973 0.82285 0.9605 0.0
C1153 C 0.26562 0.80735 0.94326 0.0
C1154 C 0.24736 0.76165 0.96406 0.0
C1155 C 0.20408 0.73029 0.89273 0.0
C1156 C 0.22085 0.74574 0.90135 0.0
C1157 C 0.26679 0.79255 0.94052 0.0
C1158 C 0.25155 0.77611 0.92426 0.0
H1159 H 0.16277 0.71886 0.867 0.0
H1160 H 0.19039 0.74402 0.88347 0.0
H1161 H 0.22889 0.73578 0.98576 0.0
H1162 H 0.30845 0.80954 0.98291 0.0
H1163 H 0.28364 0.78234 0.95279 0.0
C1164 C 0.53092 0.15048 0.07761 0.0
C1165 C 0.51589 0.14402 0.11645 0.0
C1166 C 0.54609 0.15381 0.10884 0.0
C1167 C 0.56994 0.16254 0.26737 0.0
H1168 H 0.58519 0.13252 0.19726 0.0
C1169 C 0.61517 0.14794 0.42118 0.0
C1170 C 0.62509 0.14242 0.38659 0.0
C1171 C 0.60407 0.15144 0.38471 0.0
C1172 C 0.58151 0.14137 0.21661 0.0
H1173 H 0.50525 0.13716 0.21923 0.0
H1174 H 0.53206 0.14351 0.27423 0.0
H1175 H 0.56184 0.13347 0.14105 0.0
H1176 H 0.63211 0.13738 0.28651 0.0
H1177 H 0.61351 0.14451 0.22208 0.0
H1178 H 0.58976 0.17081 0.34206 0.0
C1179 C 0.53191 0.14575 0.21948 0.0
C1180 C 0.568 0.14177 0.18454 0.0
C1181 C 0.51661 0.14207 0.18801 0.0
C1182 C 0.62447 0.14146 0.31444 0.0
C1183 C 0.61366 0.14539 0.2777 0.0
C1184 C 0.58376 0.16247 0.2986 0.0
C1185 C 0.54661 0.15112 0.17967 0.0
C1186 C 0.56191 0.15211 0.21041 0.0
C1187 C 0.60287 0.14988 0.31248 0.0
C1188 C 0.58951 0.15159 0.2746 0.0
H1189 H 0.5308 0.15207 0.02234 0.0
H1190 H 0.55731 0.15796 0.07729 0.0
H1191 H 0.56547 0.17069 0.28781 0.0
H1192 H 0.61526 0.14864 0.47692 0.0
H1193 H 0.59585 0.15456 0.41384 0.0
C1194 C 0.37985 0.5289 0.26457 0.0
C1195 C 0.36977 0.51359 0.2998 0.0
C1196 C 0.39119 0.54351 0.30035 0.0
C1197 C 0.41416 0.55626 0.46719 0.0
H1198 H 0.43023 0.60149 0.39429 0.0
C1199 C 0.46464 0.61672 0.60318 0.0
C1200 C 0.47976 0.62506 0.56478 0.0
C1201 C 0.44956 0.60464 0.57217 0.0
C1202 C 0.42577 0.58891 0.41513 0.0
H1203 H 0.3628 0.50177 0.40035 0.0
H1204 H 0.3819 0.52756 0.46367 0.0
H1205 H 0.40567 0.57725 0.34167 0.0
H1206 H 0.4907 0.62808 0.46292 0.0
H1207 H 0.46402 0.60719 0.40811 0.0
H1208 H 0.43409 0.56816 0.54169 0.0
C1209 C 0.38162 0.52816 0.40802 0.0
C1210 C 0.41179 0.57498 0.38489 0.0
C1211 C 0.37054 0.5134 0.37194 0.0
C1212 C 0.47926 0.62183 0.49375 0.0
C1213 C 0.46404 0.60996 0.46241 0.0
C1214 C 0.42784 0.57022 0.4983 0.0
C1215 C 0.39249 0.54331 0.37253 0.0
C1216 C 0.40602 0.5584 0.40954 0.0
C1217 C 0.44923 0.60095 0.50194 0.0
C1218 C 0.43393 0.58658 0.47174 0.0
H1219 H 0.37969 0.52941 0.20882 0.0
H1220 H 0.39949 0.55472 0.27072 0.0
H1221 H 0.41045 0.54376 0.487 0.0
H1222 H 0.46459 0.61884 0.65808 0.0
H1223 H 0.43825 0.59781 0.60345 0.0
C1224 C 0.86353 0.37668 0.5368 0.0
C1225 C 0.85559 0.36955 0.47363 0.0
C1226 C 0.8602 0.38819 0.57092 0.0
C1227 C 0.83221 0.4064 0.58404 0.0
H1228 H 0.87436 0.44841 0.61636 0.0
C1229 C 0.85987 0.48187 0.64743 0.0
C1230 C 0.85241 0.4812 0.71168 0.0
C1231 C 0.85719 0.46701 0.61547 0.0
C1232 C 0.86249 0.43679 0.60729 0.0
H1233 H 0.83673 0.3677 0.40024 0.0
H1234 H 0.8309 0.38782 0.46039 0.0
H1235 H 0.87517 0.42369 0.57363 0.0
H1236 H 0.83495 0.46428 0.78924 0.0
H1237 H 0.8302 0.43826 0.73261 0.0
H1238 H 0.81959 0.41971 0.61851 0.0
C1239 C 0.83977 0.38454 0.48299 0.0
C1240 C 0.86295 0.42259 0.58369 0.0
C1241 C 0.84318 0.37309 0.44846 0.0
C1242 C 0.84099 0.46525 0.74005 0.0
C1243 C 0.83822 0.45034 0.70765 0.0
C1244 C 0.83175 0.42062 0.60886 0.0
C1245 C 0.84876 0.39269 0.543 0.0
C1246 C 0.84785 0.40728 0.57161 0.0
C1247 C 0.84688 0.45118 0.64663 0.0
C1248 C 0.84691 0.43598 0.61995 0.0
H1249 H 0.873 0.37409 0.55817 0.0
H1250 H 0.86712 0.39414 0.61774 0.0
H1251 H 0.8204 0.39472 0.57495 0.0
H1252 H 0.86856 0.49391 0.62359 0.0
H1253 H 0.86381 0.46794 0.56781 0.0
C1254 C 0.37768 0.84467 0.94003 0.0
C1255 C 0.3699 0.85183 0.9004 0.0
C1256 C 0.38889 0.84034 0.90957 0.0
C1257 C 0.40337 0.83093 0.74929 0.0
H1258 H 0.44857 0.85744 0.82608 0.0
C1259 C 0.4632 0.84562 0.59629 0.0
C1260 C 0.47834 0.84993 0.63124 0.0
C1261 C 0.44849 0.84172 0.63288 0.0
C1262 C 0.43601 0.84951 0.80481 0.0
H1263 H 0.36684 0.85894 0.79704 0.0
H1264 H 0.38622 0.85096 0.74348 0.0
H1265 H 0.42481 0.85753 0.88233 0.0
H1266 H 0.48967 0.8522 0.73157 0.0
H1267 H 0.46374 0.84441 0.79577 0.0
H1268 H 0.41442 0.8227 0.67212 0.0
C1269 C 0.3837 0.84889 0.79823 0.0
C1270 C 0.42241 0.8497 0.83698 0.0
C1271 C 0.3727 0.85352 0.8289 0.0
C1272 C 0.47819 0.84909 0.70342 0.0
C1273 C 0.46335 0.84478 0.7401 0.0
C1274 C 0.41694 0.83042 0.71782 0.0
C1275 C 0.39227 0.84276 0.83874 0.0
C1276 C 0.40606 0.84074 0.80864 0.0
C1277 C 0.44846 0.84168 0.7054 0.0
C1278 C 0.43356 0.84009 0.74408 0.0
H1279 H 0.37583 0.84322 0.99528 0.0
H1280 H 0.39535 0.8356 0.94171 0.0
H1281 H 0.39082 0.82382 0.72689 0.0
H1282 H 0.46295 0.8463 0.54061 0.0
H1283 H 0.43746 0.83968 0.60395 0.0
C1284 C 0.61566 0.46767 0.75963 0.0
C1285 C 0.62641 0.48271 0.79534 0.0
C1286 C 0.60443 0.45298 0.79535 0.0
C1287 C 0.58311 0.44014 0.96555 0.0
H1288 H 0.56444 0.39504 0.88742 0.0
C1289 C 0.53129 0.38058 0.10136 0.0
C1290 C 0.51608 0.37261 0.0634 0.0
C1291 C 0.54648 0.3923 0.06989 0.0
C1292 C 0.56964 0.40758 0.90977 0.0
H1293 H 0.63477 0.49391 0.89634 0.0
H1294 H 0.61589 0.46799 0.95922 0.0
H1295 H 0.58911 0.41891 0.83352 0.0
H1296 H 0.50508 0.36982 0.96181 0.0
H1297 H 0.5319 0.39008 0.90628 0.0
H1298 H 0.56377 0.42861 0.04253 0.0
C1299 C 0.61553 0.46767 0.90348 0.0
C1300 C 0.58368 0.4213 0.87881 0.0
C1301 C 0.6265 0.48251 0.86759 0.0
C1302 C 0.51658 0.37581 0.99235 0.0
C1303 C 0.53189 0.38732 0.96057 0.0
C1304 C 0.56936 0.42638 0.99726 0.0
C1305 C 0.60391 0.45285 0.86783 0.0
C1306 C 0.59038 0.43786 0.90535 0.0
C1307 C 0.54683 0.39599 -0.00037 0.0
C1308 C 0.56232 0.41007 0.9689 0.0
H1309 H 0.61517 0.46748 0.70384 0.0
H1310 H 0.59557 0.44203 0.76568 0.0
H1311 H 0.58754 0.45265 0.98695 0.0
H1312 H 0.53136 0.37845 0.15624 0.0
H1313 H 0.55788 0.39884 0.10086 0.0
C1314 C 0.13725 0.51692 0.15702 0.0
C1315 C 0.14419 0.51674 0.22148 0.0
C1316 C 0.14199 0.53226 0.12378 0.0
C1317 C 0.15702 0.5662 0.05205 0.0
H1318 H 0.15809 0.60058 0.17338 0.0
C1319 C 0.15629 0.62435 0.9415 0.0
C1320 C 0.14416 0.62758 0.97196 0.0
C1321 C 0.16116 0.61375 0.97399 0.0
C1322 C 0.15787 0.59114 0.13875 0.0
H1323 H 0.16259 0.53247 0.29887 0.0
H1324 H 0.17108 0.55922 0.24016 0.0
H1325 H 0.15753 0.57571 0.22233 0.0
H1326 H 0.12856 0.62315 0.0628 0.0
H1327 H 0.13679 0.6045 0.11858 0.0
H1328 H 0.15616 0.58106 0.96859 0.0
C1329 C 0.16164 0.54752 0.2162 0.0
C1330 C 0.15777 0.57696 0.16681 0.0
C1331 C 0.15683 0.53217 0.24966 0.0
C1332 C 0.13787 0.62087 0.03763 0.0
C1333 C 0.14269 0.61024 0.06994 0.0
C1334 C 0.15701 0.58034 0.02401 0.0
C1335 C 0.15389 0.54778 0.15393 0.0
C1336 C 0.15683 0.56407 0.12383 0.0
C1337 C 0.15402 0.60614 0.03761 0.0
C1338 C 0.15692 0.59272 0.06709 0.0
H1339 H 0.12753 0.50528 0.13365 0.0
H1340 H 0.13562 0.53196 0.07626 0.0
H1341 H 0.15657 0.55665 0.01745 0.0
H1342 H 0.16153 0.62945 0.89124 0.0
H1343 H 0.17016 0.61111 0.94829 0.0
loop_
_geom_bond_atom_site_label_1
_geom_bond_atom_site_label_2
_geom_bond_distance
_geom_bond_site_symmetry_2
_ccdc_geom_bond_type
Fe0 O2 1.918 . S
Fe0 O5 1.997 . S
Fe0 O6 2.002 . S
Fe0 O11 1.976 1_554 S
Fe0 O14 1.996 . S
Fe1 O2 1.918 1_556 S
Fe1 O9 1.997 1_556 S
Fe1 O12 1.996 . S
Fe1 O16 1.976 . S
Fe1 O19 2.002 1_556 S
O2 Fe0 1.918 . S
O2 Fe1 1.918 1_554 S
O2 Fe3 1.918 . S
Fe3 O2 1.918 . S
Fe3 O4 2.002 . S
Fe3 O13 1.976 . S
Fe3 O17 1.996 1_554 S
Fe3 O20 1.997 . S
O4 Fe3 2.002 . S
O4 C21 1.295 . S
O5 Fe0 1.997 . S
O5 C21 1.235 . S
O6 Fe0 2.002 . S
O6 C7 1.295 . S
C7 O6 1.295 . S
C7 O9 1.235 . S
C8 O13 1.287 . S
C8 O14 1.255 . S
O9 Fe1 1.997 1_554 S
O9 C7 1.235 . S
C10 O16 1.287 . S
C10 O17 1.255 . S
O11 Fe0 1.976 1_556 S
O11 C18 1.287 . S
O12 Fe1 1.996 . S
O12 C18 1.255 . S
O13 Fe3 1.976 . S
O13 C8 1.287 . S
O14 Fe0 1.996 . S
O14 C8 1.255 . S
C15 O19 1.295 . S
C15 O20 1.235 . S
O16 Fe1 1.976 . S
O16 C10 1.287 . S
O17 Fe3 1.996 1_556 S
O17 C10 1.255 . S
C18 O11 1.287 . S
C18 O12 1.255 . S
O19 Fe1 2.002 1_554 S
O19 C15 1.295 . S
O20 Fe3 1.997 . S
O20 C15 1.235 . S
C21 O4 1.295 . S
C21 O5 1.235 . S
Fe22 O24 1.918 . S
Fe22 O27 1.997 . S
Fe22 O28 2.002 . S
Fe22 O33 1.976 . S
Fe22 O36 1.996 . S
Fe23 O24 1.918 . S
Fe23 O31 1.997 . S
Fe23 O34 1.996 . S
Fe23 O38 1.976 . S
Fe23 O41 2.002 . S
O24 Fe22 1.918 . S
O24 Fe23 1.918 . S
O24 Fe25 1.918 . S
Fe25 O24 1.918 . S
Fe25 O26 2.002 . S
Fe25 O35 1.976 . S
Fe25 O39 1.996 . S
Fe25 O42 1.997 . S
O26 Fe25 2.002 . S
O26 C43 1.295 . S
O27 Fe22 1.997 . S
O27 C43 1.235 . S
O28 Fe22 2.002 . S
O28 C29 1.295 . S
C29 O28 1.295 . S
C29 O31 1.235 . S
C30 O35 1.287 . S
C30 O36 1.255 . S
O31 Fe23 1.997 . S
O31 C29 1.235 . S
C32 O38 1.287 . S
C32 O39 1.255 . S
O33 Fe22 1.976 . S
O33 C40 1.287 . S
O34 Fe23 1.996 . S
O34 C40 1.255 . S
O35 Fe25 1.976 . S
O35 C30 1.287 . S
O36 Fe22 1.996 . S
O36 C30 1.255 . S
C37 O41 1.295 . S
C37 O42 1.235 . S
O38 Fe23 1.976 . S
O38 C32 1.287 . S
O39 Fe25 1.996 . S
O39 C32 1.255 . S
C40 O33 1.287 . S
C40 O34 1.255 . S
O41 Fe23 2.002 . S
O41 C37 1.295 . S
O42 Fe25 1.997 . S
O42 C37 1.235 . S
C43 O26 1.295 . S
C43 O27 1.235 . S
Fe44 O46 1.918 . S
Fe44 O49 1.997 . S
Fe44 O50 2.002 . S
Fe44 O55 1.976 . S
Fe44 O58 1.996 . S
Fe45 O46 1.918 . S
Fe45 O53 1.997 . S
Fe45 O56 1.996 . S
Fe45 O60 1.976 . S
Fe45 O63 2.002 . S
O46 Fe44 1.918 . S
O46 Fe45 1.918 . S
O46 Fe47 1.918 . S
Fe47 O46 1.918 . S
Fe47 O48 2.002 . S
Fe47 O57 1.976 . S
Fe47 O61 1.996 . S
Fe47 O64 1.997 . S
O48 Fe47 2.002 . S
O48 C65 1.295 . S
O49 Fe44 1.997 . S
O49 C65 1.235 . S
O50 Fe44 2.002 . S
O50 C51 1.295 . S
C51 O50 1.295 . S
C51 O53 1.235 . S
C52 O57 1.287 . S
C52 O58 1.255 . S
O53 Fe45 1.997 . S
O53 C51 1.235 . S
C54 O60 1.287 . S
C54 O61 1.255 . S
O55 Fe44 1.976 . S
O55 C62 1.287 . S
O56 Fe45 1.996 . S
O56 C62 1.255 . S
O57 Fe47 1.976 . S
O57 C52 1.287 . S
O58 Fe44 1.996 . S
O58 C52 1.255 . S
C59 O63 1.295 . S
C59 O64 1.235 . S
O60 Fe45 1.976 . S
O60 C54 1.287 . S
O61 Fe47 1.996 . S
O61 C54 1.255 . S
C62 O55 1.287 . S
C62 O56 1.255 . S
O63 Fe45 2.002 . S
O63 C59 1.295 . S
O64 Fe47 1.997 . S
O64 C59 1.235 . S
C65 O48 1.295 . S
C65 O49 1.235 . S
Fe66 O68 1.918 . S
Fe66 O71 1.997 . S
Fe66 O72 2.002 . S
Fe66 O77 1.976 . S
Fe66 O80 1.996 . S
Fe67 O68 1.918 . S
Fe67 O75 1.997 . S
Fe67 O78 1.996 . S
Fe67 O82 1.976 . S
Fe67 O85 2.002 . S
O68 Fe66 1.918 . S
O68 Fe67 1.918 . S
O68 Fe69 1.918 . S
Fe69 O68 1.918 . S
Fe69 O70 2.002 . S
Fe69 O79 1.976 . S
Fe69 O83 1.996 . S
Fe69 O86 1.997 . S
O70 Fe69 2.002 . S
O70 C87 1.295 . S
O71 Fe66 1.997 . S
O71 C87 1.235 . S
O72 Fe66 2.002 . S
O72 C73 1.295 . S
C73 O72 1.295 . S
C73 O75 1.235 . S
C74 O79 1.287 . S
C74 O80 1.255 . S
O75 Fe67 1.997 . S
O75 C73 1.235 . S
C76 O82 1.287 . S
C76 O83 1.255 . S
O77 Fe66 1.976 . S
O77 C84 1.287 . S
O78 Fe67 1.996 . S
O78 C84 1.255 . S
O79 Fe69 1.976 . S
O79 C74 1.287 . S
O80 Fe66 1.996 . S
O80 C74 1.255 . S
C81 O85 1.295 . S
C81 O86 1.235 . S
O82 Fe67 1.976 . S
O82 C76 1.287 . S
O83 Fe69 1.996 . S
O83 C76 1.255 . S
C84 O77 1.287 . S
C84 O78 1.255 . S
O85 Fe67 2.002 . S
O85 C81 1.295 . S
O86 Fe69 1.997 . S
O86 C81 1.235 . S
C87 O70 1.295 . S
C87 O71 1.235 . S
Fe88 O90 1.918 . S
Fe88 O93 1.997 . S
Fe88 O94 2.002 . S
Fe88 O99 1.976 . S
Fe88 O102 1.996 . S
Fe89 O90 1.918 . S
Fe89 O97 1.997 . S
Fe89 O100 1.996 . S
Fe89 O104 1.976 . S
Fe89 O107 2.002 . S
O90 Fe88 1.918 . S
O90 Fe89 1.918 . S
O90 Fe91 1.918 . S
Fe91 O90 1.918 . S
Fe91 O92 2.002 . S
Fe91 O101 1.976 . S
Fe91 O105 1.996 . S
Fe91 O108 1.997 . S
O92 Fe91 2.002 . S
O92 C109 1.295 . S
O93 Fe88 1.997 . S
O93 C109 1.235 . S
O94 Fe88 2.002 . S
O94 C95 1.295 . S
C95 O94 1.295 . S
C95 O97 1.235 . S
C96 O101 1.287 . S
C96 O102 1.255 . S
O97 Fe89 1.997 . S
O97 C95 1.235 . S
C98 O104 1.287 . S
C98 O105 1.255 . S
O99 Fe88 1.976 . S
O99 C106 1.287 . S
O100 Fe89 1.996 . S
O100 C106 1.255 . S
O101 Fe91 1.976 . S
O101 C96 1.287 . S
O102 Fe88 1.996 . S
O102 C96 1.255 . S
C103 O107 1.295 . S
C103 O108 1.235 . S
O104 Fe89 1.976 . S
O104 C98 1.287 . S
O105 Fe91 1.996 . S
O105 C98 1.255 . S
C106 O99 1.287 . S
C106 O100 1.255 . S
O107 Fe89 2.002 . S
O107 C103 1.295 . S
O108 Fe91 1.997 . S
O108 C103 1.235 . S
C109 O92 1.295 . S
C109 O93 1.235 . S
Fe110 O112 1.918 . S
Fe110 O115 1.997 . S
Fe110 O116 2.002 . S
Fe110 O121 1.976 . S
Fe110 O124 1.996 . S
Fe111 O112 1.918 . S
Fe111 O119 1.997 . S
Fe111 O122 1.996 . S
Fe111 O126 1.976 . S
Fe111 O129 2.002 . S
O112 Fe110 1.918 . S
O112 Fe111 1.918 . S
O112 Fe113 1.918 . S
Fe113 O112 1.918 . S
Fe113 O114 2.002 . S
Fe113 O123 1.976 . S
Fe113 O127 1.996 . S
Fe113 O130 1.997 . S
O114 Fe113 2.002 . S
O114 C131 1.295 . S
O115 Fe110 1.997 . S
O115 C131 1.235 . S
O116 Fe110 2.002 . S
O116 C117 1.295 1_556 S
C117 O116 1.295 1_554 S
C117 O119 1.235 1_554 S
C118 O123 1.287 . S
C118 O124 1.255 . S
O119 Fe111 1.997 . S
O119 C117 1.235 1_556 S
C120 O126 1.287 . S
C120 O127 1.255 . S
O121 Fe110 1.976 . S
O121 C128 1.287 . S
O122 Fe111 1.996 . S
O122 C128 1.255 . S
O123 Fe113 1.976 . S
O123 C118 1.287 . S
O124 Fe110 1.996 . S
O124 C118 1.255 . S
C125 O129 1.295 . S
C125 O130 1.235 . S
O126 Fe111 1.976 . S
O126 C120 1.287 . S
O127 Fe113 1.996 . S
O127 C120 1.255 . S
C128 O121 1.287 . S
C128 O122 1.255 . S
O129 Fe111 2.002 . S
O129 C125 1.295 . S
O130 Fe113 1.997 . S
O130 C125 1.235 . S
C131 O114 1.295 . S
C131 O115 1.235 . S
Fe132 O134 1.918 . S
Fe132 O137 1.997 . S
Fe132 O138 2.002 . S
Fe132 O143 1.976 . S
Fe132 O146 1.996 . S
Fe133 O134 1.918 . S
Fe133 O141 1.997 . S
Fe133 O144 1.996 . S
Fe133 O148 1.976 . S
Fe133 O151 2.002 . S
O134 Fe132 1.918 . S
O134 Fe133 1.918 . S
O134 Fe135 1.918 . S
Fe135 O134 1.918 . S
Fe135 O136 2.002 . S
Fe135 O145 1.976 . S
Fe135 O149 1.996 . S
Fe135 O152 1.997 . S
O136 Fe135 2.002 . S
O136 C153 1.295 . S
O137 Fe132 1.997 . S
O137 C153 1.235 . S
O138 Fe132 2.002 . S
O138 C139 1.295 . S
C139 O138 1.295 . S
C139 O141 1.235 . S
C140 O145 1.287 . S
C140 O146 1.255 . S
O141 Fe133 1.997 . S
O141 C139 1.235 . S
C142 O148 1.287 . S
C142 O149 1.255 . S
O143 Fe132 1.976 . S
O143 C150 1.287 . S
O144 Fe133 1.996 . S
O144 C150 1.255 . S
O145 Fe135 1.976 . S
O145 C140 1.287 . S
O146 Fe132 1.996 . S
O146 C140 1.255 . S
C147 O151 1.295 . S
C147 O152 1.235 . S
O148 Fe133 1.976 . S
O148 C142 1.287 . S
O149 Fe135 1.996 . S
O149 C142 1.255 . S
C150 O143 1.287 . S
C150 O144 1.255 . S
O151 Fe133 2.002 . S
O151 C147 1.295 . S
O152 Fe135 1.997 . S
O152 C147 1.235 . S
C153 O136 1.295 . S
C153 O137 1.235 . S
Fe154 O156 1.918 . S
Fe154 O159 1.995 1_554 S
Fe154 O160 1.993 1_554 S
Fe154 O165 1.977 . S
Fe154 O168 2.005 . S
Fe155 O156 1.918 1_556 S
Fe155 O163 1.997 . S
Fe155 O166 1.996 . S
Fe155 O170 1.976 1_556 S
Fe155 O173 2.002 . S
O156 Fe154 1.918 . S
O156 Fe155 1.918 1_554 S
O156 Fe157 1.918 . S
Fe157 O156 1.918 . S
Fe157 O158 2.002 . S
Fe157 O167 1.976 . S
Fe157 O171 1.996 . S
Fe157 O174 1.997 1_554 S
O158 Fe157 2.002 . S
O158 C175 1.295 1_554 S
O159 Fe154 1.995 1_556 S
O159 C175 1.235 . S
O160 Fe154 1.993 1_556 S
O160 C161 1.295 . S
C161 O160 1.295 . S
C161 O163 1.235 . S
C162 O167 1.287 . S
C162 O168 1.255 . S
O163 Fe155 1.997 . S
O163 C161 1.235 . S
C164 O170 1.287 . S
C164 O171 1.255 . S
O165 Fe154 1.977 . S
O165 C172 1.287 . S
O166 Fe155 1.996 . S
O166 C172 1.255 1_556 S
O167 Fe157 1.976 . S
O167 C162 1.287 . S
O168 Fe154 2.005 . S
O168 C162 1.255 . S
C169 O173 1.295 . S
C169 O174 1.235 . S
O170 Fe155 1.976 1_554 S
O170 C164 1.287 . S
O171 Fe157 1.996 . S
O171 C164 1.255 . S
C172 O165 1.287 . S
C172 O166 1.255 1_554 S
O173 Fe155 2.002 . S
O173 C169 1.295 . S
O174 Fe157 1.997 1_556 S
O174 C169 1.235 . S
C175 O158 1.295 1_556 S
C175 O159 1.235 . S
Fe176 O178 1.918 . S
Fe176 O181 1.997 . S
Fe176 O182 2.002 . S
Fe176 O187 1.976 . S
Fe176 O190 1.996 . S
Fe177 O178 1.918 . S
Fe177 O185 1.997 . S
Fe177 O188 1.996 . S
Fe177 O192 1.976 . S
Fe177 O195 2.002 . S
O178 Fe176 1.918 . S
O178 Fe177 1.918 . S
O178 Fe179 1.918 . S
Fe179 O178 1.918 . S
Fe179 O180 2.002 . S
Fe179 O189 1.976 . S
Fe179 O193 1.996 . S
Fe179 O196 1.997 . S
O180 Fe179 2.002 . S
O180 C197 1.295 . S
O181 Fe176 1.997 . S
O181 C197 1.235 . S
O182 Fe176 2.002 . S
O182 C183 1.295 . S
C183 O182 1.295 . S
C183 O185 1.235 . S
C184 O189 1.287 . S
C184 O190 1.255 . S
O185 Fe177 1.997 . S
O185 C183 1.235 . S
C186 O192 1.287 . S
C186 O193 1.255 . S
O187 Fe176 1.976 . S
O187 C194 1.287 . S
O188 Fe177 1.996 . S
O188 C194 1.255 . S
O189 Fe179 1.976 . S
O189 C184 1.287 . S
O190 Fe176 1.996 . S
O190 C184 1.255 . S
C191 O195 1.295 . S
C191 O196 1.235 . S
O192 Fe177 1.976 . S
O192 C186 1.287 . S
O193 Fe179 1.996 . S
O193 C186 1.255 . S
C194 O187 1.287 . S
C194 O188 1.255 . S
O195 Fe177 2.002 . S
O195 C191 1.295 . S
O196 Fe179 1.997 . S
O196 C191 1.235 . S
C197 O180 1.295 . S
C197 O181 1.235 . S
Fe198 O200 1.918 . S
Fe198 O203 1.997 . S
Fe198 O204 2.002 . S
Fe198 O209 1.976 . S
Fe198 O212 1.996 . S
Fe199 O200 1.918 . S
Fe199 O207 1.997 . S
Fe199 O210 1.996 . S
Fe199 O214 1.976 . S
Fe199 O217 2.002 . S
O200 Fe198 1.918 . S
O200 Fe199 1.918 . S
O200 Fe201 1.918 . S
Fe201 O200 1.918 . S
Fe201 O202 2.002 . S
Fe201 O211 1.976 . S
Fe201 O215 1.996 . S
Fe201 O218 1.997 . S
O202 Fe201 2.002 . S
O202 C219 1.295 . S
O203 Fe198 1.997 . S
O203 C219 1.235 . S
O204 Fe198 2.002 . S
O204 C205 1.295 . S
C205 O204 1.295 . S
C205 O207 1.235 . S
C206 O211 1.287 . S
C206 O212 1.255 . S
O207 Fe199 1.997 . S
O207 C205 1.235 . S
C208 O214 1.287 . S
C208 O215 1.255 . S
O209 Fe198 1.976 . S
O209 C216 1.287 . S
O210 Fe199 1.996 . S
O210 C216 1.255 . S
O211 Fe201 1.976 . S
O211 C206 1.287 . S
O212 Fe198 1.996 . S
O212 C206 1.255 . S
C213 O217 1.295 . S
C213 O218 1.235 . S
O214 Fe199 1.976 . S
O214 C208 1.287 . S
O215 Fe201 1.996 . S
O215 C208 1.255 . S
C216 O209 1.287 . S
C216 O210 1.255 . S
O217 Fe199 2.002 . S
O217 C213 1.295 . S
O218 Fe201 1.997 . S
O218 C213 1.235 . S
C219 O202 1.295 . S
C219 O203 1.235 . S
Fe220 O222 1.918 . S
Fe220 O225 1.997 . S
Fe220 O226 2.002 . S
Fe220 O231 1.976 . S
Fe220 O234 1.996 . S
Fe221 O222 1.918 . S
Fe221 O229 1.997 . S
Fe221 O232 1.996 . S
Fe221 O236 1.976 . S
Fe221 O239 2.002 . S
O222 Fe220 1.918 . S
O222 Fe221 1.918 . S
O222 Fe223 1.918 . S
Fe223 O222 1.918 . S
Fe223 O224 2.002 . S
Fe223 O233 1.976 . S
Fe223 O237 1.996 . S
Fe223 O240 1.997 . S
O224 Fe223 2.002 . S
O224 C241 1.295 . S
O225 Fe220 1.997 . S
O225 C241 1.235 . S
O226 Fe220 2.002 . S
O226 C227 1.295 . S
C227 O226 1.295 . S
C227 O229 1.235 . S
C228 O233 1.287 . S
C228 O234 1.255 . S
O229 Fe221 1.997 . S
O229 C227 1.235 . S
C230 O236 1.287 . S
C230 O237 1.255 . S
O231 Fe220 1.976 . S
O231 C238 1.287 . S
O232 Fe221 1.996 . S
O232 C238 1.255 . S
O233 Fe223 1.976 . S
O233 C228 1.287 . S
O234 Fe220 1.996 . S
O234 C228 1.255 . S
C235 O239 1.295 . S
C235 O240 1.235 . S
O236 Fe221 1.976 . S
O236 C230 1.287 . S
O237 Fe223 1.996 . S
O237 C230 1.255 . S
C238 O231 1.287 . S
C238 O232 1.255 . S
O239 Fe221 2.002 . S
O239 C235 1.295 . S
O240 Fe223 1.997 . S
O240 C235 1.235 . S
C241 O224 1.295 . S
C241 O225 1.235 . S
Fe242 O244 1.918 . S
Fe242 O247 1.997 . S
Fe242 O248 2.002 . S
Fe242 O253 1.976 . S
Fe242 O256 1.996 . S
Fe243 O244 1.918 . S
Fe243 O251 1.997 . S
Fe243 O254 1.996 . S
Fe243 O258 1.976 . S
Fe243 O261 2.002 . S
O244 Fe242 1.918 . S
O244 Fe243 1.918 . S
O244 Fe245 1.918 . S
Fe245 O244 1.918 . S
Fe245 O246 2.002 . S
Fe245 O255 1.976 . S
Fe245 O259 1.996 . S
Fe245 O262 1.997 . S
O246 Fe245 2.002 . S
O246 C263 1.295 . S
O247 Fe242 1.997 . S
O247 C263 1.235 . S
O248 Fe242 2.002 . S
O248 C249 1.295 . S
C249 O248 1.295 . S
C249 O251 1.235 . S
C250 O255 1.287 . S
C250 O256 1.255 . S
O251 Fe243 1.997 . S
O251 C249 1.235 . S
C252 O258 1.287 . S
C252 O259 1.255 . S
O253 Fe242 1.976 . S
O253 C260 1.287 . S
O254 Fe243 1.996 . S
O254 C260 1.255 . S
O255 Fe245 1.976 . S
O255 C250 1.287 . S
O256 Fe242 1.996 . S
O256 C250 1.255 . S
C257 O261 1.295 . S
C257 O262 1.235 . S
O258 Fe243 1.976 . S
O258 C252 1.287 . S
O259 Fe245 1.996 . S
O259 C252 1.255 . S
C260 O253 1.287 . S
C260 O254 1.255 . S
O261 Fe243 2.002 . S
O261 C257 1.295 . S
O262 Fe245 1.997 . S
O262 C257 1.235 . S
C263 O246 1.295 . S
C263 O247 1.235 . S
C264 C265 1.349 . S
C264 C266 1.327 . S
C264 H289 0.950 . S
C265 C264 1.349 . S
C265 C281 1.349 . S
C266 C264 1.327 . S
C266 C285 1.429 . S
C266 H290 0.950 . S
C267 C284 1.574 . S
C267 C286 1.368 . S
C267 H291 0.949 . S
H268 C272 0.949 . S
C269 C270 1.349 . S
C269 C271 1.327 . S
C269 H292 0.950 . S
C270 C269 1.349 . S
C270 C282 1.349 . S
C271 C269 1.327 . S
C271 C287 1.429 . S
C271 H293 0.950 . S
C272 H268 0.949 . S
C272 C280 1.574 . S
C272 C288 1.368 . S
H273 C281 0.950 . S
H274 C279 0.950 . S
H275 C280 0.949 . S
H276 C282 0.950 . S
H277 C283 0.950 . S
H278 C284 0.949 . S
C279 H274 0.950 . S
C279 C281 1.327 . S
C279 C285 1.429 . S
C280 C272 1.574 . S
C280 H275 0.949 . S
C280 C286 1.368 . S
C281 C265 1.349 . S
C281 H273 0.950 . S
C281 C279 1.327 . S
C282 C270 1.349 . S
C282 H276 0.950 . S
C282 C283 1.327 . S
C283 H277 0.950 . S
C283 C282 1.327 . S
C283 C287 1.429 . S
C284 C267 1.574 . S
C284 H278 0.949 . S
C284 C288 1.368 . S
C285 C266 1.429 . S
C285 C279 1.429 . S
C285 C286 1.523 . S
C286 C267 1.368 . S
C286 C280 1.368 . S
C286 C285 1.523 . S
C287 C271 1.429 . S
C287 C283 1.429 . S
C287 C288 1.523 . S
C288 C272 1.368 . S
C288 C284 1.368 . S
C288 C287 1.523 . S
H289 C264 0.950 . S
H290 C266 0.950 . S
H291 C267 0.949 . S
H292 C269 0.950 . S
H293 C271 0.950 . S
C294 C295 1.349 . S
C294 C296 1.327 . S
C294 H319 0.950 . S
C295 C294 1.349 . S
C295 C311 1.349 . S
C296 C294 1.327 . S
C296 C315 1.429 . S
C296 H320 0.950 . S
C297 C314 1.574 . S
C297 C316 1.368 . S
C297 H321 0.949 . S
H298 C302 0.949 . S
C299 C300 1.349 . S
C299 C301 1.327 . S
C299 H322 0.950 . S
C300 C299 1.349 . S
C300 C312 1.349 . S
C301 C299 1.327 . S
C301 C317 1.429 . S
C301 H323 0.950 . S
C302 H298 0.949 . S
C302 C310 1.574 . S
C302 C318 1.368 . S
H303 C311 0.950 . S
H304 C309 0.950 . S
H305 C310 0.949 . S
H306 C312 0.950 . S
H307 C313 0.950 . S
H308 C314 0.949 . S
C309 H304 0.950 . S
C309 C311 1.327 . S
C309 C315 1.429 . S
C310 C302 1.574 . S
C310 H305 0.949 . S
C310 C316 1.368 . S
C311 C295 1.349 . S
C311 H303 0.950 . S
C311 C309 1.327 . S
C312 C300 1.349 . S
C312 H306 0.950 . S
C312 C313 1.327 . S
C313 H307 0.950 . S
C313 C312 1.327 . S
C313 C317 1.429 . S
C314 C297 1.574 . S
C314 H308 0.949 . S
C314 C318 1.368 . S
C315 C296 1.429 . S
C315 C309 1.429 . S
C315 C316 1.523 . S
C316 C297 1.368 . S
C316 C310 1.368 . S
C316 C315 1.523 . S
C317 C301 1.429 . S
C317 C313 1.429 . S
C317 C318 1.523 . S
C318 C302 1.368 . S
C318 C314 1.368 . S
C318 C317 1.523 . S
H319 C294 0.950 . S
H320 C296 0.950 . S
H321 C297 0.949 . S
H322 C299 0.950 . S
H323 C301 0.950 . S
C324 C325 1.349 . S
C324 C326 1.327 . S
C324 H349 0.950 . S
C325 C324 1.349 . S
C325 C341 1.349 . S
C326 C324 1.327 . S
C326 C345 1.429 . S
C326 H350 0.950 . S
C327 C344 1.574 . S
C327 C346 1.368 . S
C327 H351 0.949 . S
H328 C332 0.949 . S
C329 C330 1.349 . S
C329 C331 1.327 . S
C329 H352 0.950 . S
C330 C329 1.349 . S
C330 C342 1.349 . S
C331 C329 1.327 . S
C331 C347 1.429 . S
C331 H353 0.950 . S
C332 H328 0.949 . S
C332 C340 1.574 . S
C332 C348 1.368 . S
H333 C341 0.950 . S
H334 C339 0.950 . S
H335 C340 0.949 . S
H336 C342 0.950 . S
H337 C343 0.950 . S
H338 C344 0.949 . S
C339 H334 0.950 . S
C339 C341 1.327 . S
C339 C345 1.429 . S
C340 C332 1.574 . S
C340 H335 0.949 . S
C340 C346 1.368 . S
C341 C325 1.349 . S
C341 H333 0.950 . S
C341 C339 1.327 . S
C342 C330 1.349 . S
C342 H336 0.950 . S
C342 C343 1.327 . S
C343 H337 0.950 . S
C343 C342 1.327 . S
C343 C347 1.429 . S
C344 C327 1.574 . S
C344 H338 0.949 . S
C344 C348 1.368 . S
C345 C326 1.429 . S
C345 C339 1.429 . S
C345 C346 1.523 . S
C346 C327 1.368 . S
C346 C340 1.368 . S
C346 C345 1.523 . S
C347 C331 1.429 . S
C347 C343 1.429 . S
C347 C348 1.523 1_554 S
C348 C332 1.368 . S
C348 C344 1.368 . S
C348 C347 1.523 1_556 S
H349 C324 0.950 . S
H350 C326 0.950 . S
H351 C327 0.949 . S
H352 C329 0.950 . S
H353 C331 0.950 . S
C354 C355 1.349 . S
C354 C356 1.327 . S
C354 H379 0.950 . S
C355 C354 1.349 . S
C355 C371 1.349 . S
C356 C354 1.327 . S
C356 C375 1.429 . S
C356 H380 0.950 . S
C357 C374 1.574 1_554 S
C357 C376 1.368 . S
C357 H381 0.949 . S
H358 C362 0.949 . S
C359 C360 1.349 . S
C359 C361 1.327 . S
C359 H382 0.950 . S
C360 C359 1.349 . S
C360 C372 1.349 . S
C361 C359 1.327 . S
C361 C377 1.429 . S
C361 H383 0.950 . S
C362 H358 0.949 . S
C362 C370 1.574 1_556 S
C362 C378 1.368 . S
H363 C371 0.950 . S
H364 C369 0.950 . S
H365 C370 0.949 . S
H366 C372 0.950 . S
H367 C373 0.950 . S
H368 C374 0.949 . S
C369 H364 0.950 . S
C369 C371 1.327 . S
C369 C375 1.429 . S
C370 C362 1.574 1_554 S
C370 H365 0.949 . S
C370 C376 1.368 . S
C371 C355 1.349 . S
C371 H363 0.950 . S
C371 C369 1.327 . S
C372 C360 1.349 . S
C372 H366 0.950 . S
C372 C373 1.327 . S
C373 H367 0.950 . S
C373 C372 1.327 . S
C373 C377 1.429 . S
C374 C357 1.574 1_556 S
C374 H368 0.949 . S
C374 C378 1.368 . S
C375 C356 1.429 . S
C375 C369 1.429 . S
C375 C376 1.523 . S
C376 C357 1.368 . S
C376 C370 1.368 . S
C376 C375 1.523 . S
C377 C361 1.429 . S
C377 C373 1.429 . S
C377 C378 1.523 . S
C378 C362 1.368 . S
C378 C374 1.368 . S
C378 C377 1.523 . S
H379 C354 0.950 . S
H380 C356 0.950 . S
H381 C357 0.949 . S
H382 C359 0.950 . S
H383 C361 0.950 . S
C384 C385 1.349 . S
C384 C386 1.327 1_556 S
C384 H409 0.950 . S
C385 C384 1.349 . S
C385 C401 1.349 . S
C386 C384 1.327 1_554 S
C386 C405 1.429 . S
C386 H410 0.950 . S
C387 C404 1.574 . S
C387 C406 1.368 . S
C387 H411 0.949 . S
H388 C392 0.949 . S
C389 C390 1.349 . S
C389 C391 1.327 . S
C389 H412 0.950 . S
C390 C389 1.349 . S
C390 C402 1.349 . S
C391 C389 1.327 . S
C391 C407 1.429 . S
C391 H413 0.950 . S
C392 H388 0.949 . S
C392 C400 1.574 . S
C392 C408 1.368 . S
H393 C401 0.950 . S
H394 C399 0.950 1_554 S
H395 C400 0.949 . S
H396 C402 0.950 . S
H397 C403 0.950 . S
H398 C404 0.949 . S
C399 H394 0.950 1_556 S
C399 C401 1.327 . S
C399 C405 1.429 1_556 S
C400 C392 1.574 . S
C400 H395 0.949 . S
C400 C406 1.368 . S
C401 C385 1.349 . S
C401 H393 0.950 . S
C401 C399 1.327 . S
C402 C390 1.349 . S
C402 H396 0.950 . S
C402 C403 1.327 . S
C403 H397 0.950 . S
C403 C402 1.327 . S
C403 C407 1.429 . S
C404 C387 1.574 . S
C404 H398 0.949 . S
C404 C408 1.368 . S
C405 C386 1.429 . S
C405 C399 1.429 1_554 S
C405 C406 1.523 . S
C406 C387 1.368 . S
C406 C400 1.368 . S
C406 C405 1.523 . S
C407 C391 1.429 . S
C407 C403 1.429 . S
C407 C408 1.523 . S
C408 C392 1.368 . S
C408 C404 1.368 . S
C408 C407 1.523 . S
H409 C384 0.950 . S
H410 C386 0.950 . S
H411 C387 0.949 . S
H412 C389 0.950 . S
H413 C391 0.950 . S
C414 C415 1.349 . S
C414 C416 1.327 . S
C414 H439 0.950 . S
C415 C414 1.349 . S
C415 C431 1.349 . S
C416 C414 1.327 . S
C416 C435 1.429 . S
C416 H440 0.950 . S
C417 C434 1.574 . S
C417 C436 1.368 . S
C417 H441 0.949 . S
H418 C422 0.949 . S
C419 C420 1.349 . S
C419 C421 1.327 . S
C419 H442 0.950 . S
C420 C419 1.349 . S
C420 C432 1.349 . S
C421 C419 1.327 . S
C421 C437 1.429 . S
C421 H443 0.950 . S
C422 H418 0.949 . S
C422 C430 1.574 . S
C422 C438 1.368 . S
H423 C431 0.950 . S
H424 C429 0.950 . S
H425 C430 0.949 . S
H426 C432 0.950 . S
H427 C433 0.950 . S
H428 C434 0.949 . S
C429 H424 0.950 . S
C429 C431 1.327 . S
C429 C435 1.429 . S
C430 C422 1.574 . S
C430 H425 0.949 . S
C430 C436 1.368 . S
C431 C415 1.349 . S
C431 H423 0.950 . S
C431 C429 1.327 . S
C432 C420 1.349 . S
C432 H426 0.950 . S
C432 C433 1.327 . S
C433 H427 0.950 . S
C433 C432 1.327 . S
C433 C437 1.429 . S
C434 C417 1.574 . S
C434 H428 0.949 . S
C434 C438 1.368 . S
C435 C416 1.429 . S
C435 C429 1.429 . S
C435 C436 1.523 . S
C436 C417 1.368 . S
C436 C430 1.368 . S
C436 C435 1.523 . S
C437 C421 1.429 . S
C437 C433 1.429 . S
C437 C438 1.523 . S
C438 C422 1.368 . S
C438 C434 1.368 . S
C438 C437 1.523 . S
H439 C414 0.950 . S
H440 C416 0.950 . S
H441 C417 0.949 . S
H442 C419 0.950 . S
H443 C421 0.950 . S
C444 C445 1.349 . S
C444 C446 1.327 . S
C444 H469 0.950 . S
C445 C444 1.349 . S
C445 C461 1.349 . S
C446 C444 1.327 . S
C446 C465 1.429 . S
C446 H470 0.950 . S
C447 C464 1.574 . S
C447 C466 1.368 . S
C447 H471 0.949 . S
H448 C452 0.949 . S
C449 C450 1.349 . S
C449 C451 1.327 . S
C449 H472 0.950 . S
C450 C449 1.349 . S
C450 C462 1.349 . S
C451 C449 1.327 . S
C451 C467 1.429 . S
C451 H473 0.950 . S
C452 H448 0.949 . S
C452 C460 1.574 . S
C452 C468 1.368 . S
H453 C461 0.950 . S
H454 C459 0.950 . S
H455 C460 0.949 . S
H456 C462 0.950 . S
H457 C463 0.950 . S
H458 C464 0.949 . S
C459 H454 0.950 . S
C459 C461 1.327 . S
C459 C465 1.429 . S
C460 C452 1.574 . S
C460 H455 0.949 . S
C460 C466 1.368 . S
C461 C445 1.349 . S
C461 H453 0.950 . S
C461 C459 1.327 . S
C462 C450 1.349 . S
C462 H456 0.950 . S
C462 C463 1.327 . S
C463 H457 0.950 . S
C463 C462 1.327 . S
C463 C467 1.429 . S
C464 C447 1.574 . S
C464 H458 0.949 . S
C464 C468 1.368 . S
C465 C446 1.429 . S
C465 C459 1.429 . S
C465 C466 1.523 . S
C466 C447 1.368 . S
C466 C460 1.368 . S
C466 C465 1.523 . S
C467 C451 1.429 . S
C467 C463 1.429 . S
C467 C468 1.523 . S
C468 C452 1.368 . S
C468 C464 1.368 . S
C468 C467 1.523 . S
H469 C444 0.950 . S
H470 C446 0.950 . S
H471 C447 0.949 . S
H472 C449 0.950 . S
H473 C451 0.950 . S
C474 C475 1.349 . S
C474 C476 1.327 . S
C474 H499 0.950 . S
C475 C474 1.349 . S
C475 C491 1.349 . S
C476 C474 1.327 . S
C476 C495 1.429 . S
C476 H500 0.950 . S
C477 C494 1.574 . S
C477 C496 1.368 . S
C477 H501 0.949 . S
H478 C482 0.949 . S
C479 C480 1.349 . S
C479 C481 1.327 . S
C479 H502 0.950 . S
C480 C479 1.349 . S
C480 C492 1.349 . S
C481 C479 1.327 . S
C481 C497 1.429 . S
C481 H503 0.950 . S
C482 H478 0.949 . S
C482 C490 1.574 . S
C482 C498 1.368 . S
H483 C491 0.950 . S
H484 C489 0.950 . S
H485 C490 0.949 . S
H486 C492 0.950 . S
H487 C493 0.950 . S
H488 C494 0.949 . S
C489 H484 0.950 . S
C489 C491 1.327 . S
C489 C495 1.429 . S
C490 C482 1.574 . S
C490 H485 0.949 . S
C490 C496 1.368 . S
C491 C475 1.349 . S
C491 H483 0.950 . S
C491 C489 1.327 . S
C492 C480 1.349 . S
C492 H486 0.950 . S
C492 C493 1.327 . S
C493 H487 0.950 . S
C493 C492 1.327 . S
C493 C497 1.429 . S
C494 C477 1.574 . S
C494 H488 0.949 . S
C494 C498 1.368 . S
C495 C476 1.429 . S
C495 C489 1.429 . S
C495 C496 1.523 . S
C496 C477 1.368 . S
C496 C490 1.368 . S
C496 C495 1.523 . S
C497 C481 1.429 . S
C497 C493 1.429 . S
C497 C498 1.523 . S
C498 C482 1.368 . S
C498 C494 1.368 . S
C498 C497 1.523 . S
H499 C474 0.950 . S
H500 C476 0.950 . S
H501 C477 0.949 . S
H502 C479 0.950 . S
H503 C481 0.950 . S
C504 C505 1.349 . S
C504 C506 1.327 . S
C504 H529 0.950 . S
C505 C504 1.349 . S
C505 C521 1.349 . S
C506 C504 1.327 . S
C506 C525 1.429 . S
C506 H530 0.950 . S
C507 C524 1.574 . S
C507 C526 1.368 . S
C507 H531 0.949 . S
H508 C512 0.949 . S
C509 C510 1.349 . S
C509 C511 1.327 . S
C509 H532 0.950 . S
C510 C509 1.349 . S
C510 C522 1.349 . S
C511 C509 1.327 . S
C511 C527 1.429 . S
C511 H533 0.950 . S
C512 H508 0.949 . S
C512 C520 1.574 . S
C512 C528 1.368 . S
H513 C521 0.950 . S
H514 C519 0.950 . S
H515 C520 0.949 . S
H516 C522 0.950 . S
H517 C523 0.950 . S
H518 C524 0.949 . S
C519 H514 0.950 . S
C519 C521 1.327 . S
C519 C525 1.429 . S
C520 C512 1.574 . S
C520 H515 0.949 . S
C520 C526 1.368 . S
C521 C505 1.349 . S
C521 H513 0.950 . S
C521 C519 1.327 . S
C522 C510 1.349 . S
C522 H516 0.950 . S
C522 C523 1.327 . S
C523 H517 0.950 . S
C523 C522 1.327 . S
C523 C527 1.429 . S
C524 C507 1.574 . S
C524 H518 0.949 . S
C524 C528 1.368 . S
C525 C506 1.429 . S
C525 C519 1.429 . S
C525 C526 1.523 . S
C526 C507 1.368 . S
C526 C520 1.368 . S
C526 C525 1.523 . S
C527 C511 1.429 . S
C527 C523 1.429 . S
C527 C528 1.523 . S
C528 C512 1.368 . S
C528 C524 1.368 . S
C528 C527 1.523 . S
H529 C504 0.950 . S
H530 C506 0.950 . S
H531 C507 0.949 . S
H532 C509 0.950 . S
H533 C511 0.950 . S
C534 C535 1.349 . S
C534 C536 1.327 . S
C534 H559 0.950 . S
C535 C534 1.349 . S
C535 C551 1.349 . S
C536 C534 1.327 . S
C536 C555 1.429 1_554 S
C536 H560 0.950 1_554 S
C537 C554 1.574 . S
C537 C556 1.368 . S
C537 H561 0.949 . S
H538 C542 0.949 . S
C539 C540 1.349 . S
C539 C541 1.327 . S
C539 H562 0.950 . S
C540 C539 1.349 . S
C540 C552 1.349 . S
C541 C539 1.327 . S
C541 C557 1.429 . S
C541 H563 0.950 . S
C542 H538 0.949 . S
C542 C550 1.574 . S
C542 C558 1.368 . S
H543 C551 0.950 . S
H544 C549 0.950 . S
H545 C550 0.949 . S
H546 C552 0.950 . S
H547 C553 0.950 . S
H548 C554 0.949 . S
C549 H544 0.950 . S
C549 C551 1.327 . S
C549 C555 1.429 1_554 S
C550 C542 1.574 . S
C550 H545 0.949 . S
C550 C556 1.368 . S
C551 C535 1.349 . S
C551 H543 0.950 . S
C551 C549 1.327 . S
C552 C540 1.349 . S
C552 H546 0.950 . S
C552 C553 1.327 . S
C553 H547 0.950 . S
C553 C552 1.327 . S
C553 C557 1.429 . S
C554 C537 1.574 . S
C554 H548 0.949 . S
C554 C558 1.368 . S
C555 C536 1.429 1_556 S
C555 C549 1.429 1_556 S
C555 C556 1.523 . S
C556 C537 1.368 . S
C556 C550 1.368 . S
C556 C555 1.523 . S
C557 C541 1.429 . S
C557 C553 1.429 . S
C557 C558 1.523 . S
C558 C542 1.368 . S
C558 C554 1.368 . S
C558 C557 1.523 . S
H559 C534 0.950 . S
H560 C536 0.950 1_556 S
H561 C537 0.949 . S
H562 C539 0.950 . S
H563 C541 0.950 . S
C564 C565 1.349 . S
C564 C566 1.327 . S
C564 H589 0.950 . S
C565 C564 1.349 . S
C565 C581 1.349 . S
C566 C564 1.327 . S
C566 C585 1.429 . S
C566 H590 0.950 . S
C567 C584 1.574 1_556 S
C567 C586 1.368 . S
C567 H591 0.949 . S
H568 C572 0.949 . S
C569 C570 1.349 . S
C569 C571 1.327 . S
C569 H592 0.950 . S
C570 C569 1.349 . S
C570 C582 1.349 . S
C571 C569 1.327 . S
C571 C587 1.429 . S
C571 H593 0.950 . S
C572 H568 0.949 . S
C572 C580 1.574 1_554 S
C572 C588 1.368 . S
H573 C581 0.950 . S
H574 C579 0.950 . S
H575 C580 0.949 . S
H576 C582 0.950 . S
H577 C583 0.950 . S
H578 C584 0.949 . S
C579 H574 0.950 . S
C579 C581 1.327 . S
C579 C585 1.429 . S
C580 C572 1.574 1_556 S
C580 H575 0.949 . S
C580 C586 1.368 . S
C581 C565 1.349 . S
C581 H573 0.950 . S
C581 C579 1.327 . S
C582 C570 1.349 . S
C582 H576 0.950 . S
C582 C583 1.327 . S
C583 H577 0.950 . S
C583 C582 1.327 . S
C583 C587 1.429 . S
C584 C567 1.574 1_554 S
C584 H578 0.949 . S
C584 C588 1.368 . S
C585 C566 1.429 . S
C585 C579 1.429 . S
C585 C586 1.523 . S
C586 C567 1.368 . S
C586 C580 1.368 . S
C586 C585 1.523 . S
C587 C571 1.429 . S
C587 C583 1.429 . S
C587 C588 1.523 . S
C588 C572 1.368 . S
C588 C584 1.368 . S
C588 C587 1.523 . S
H589 C564 0.950 . S
H590 C566 0.950 . S
H591 C567 0.949 . S
H592 C569 0.950 . S
H593 C571 0.950 . S
C594 C595 1.349 . S
C594 C596 1.327 . S
C594 H619 0.950 . S
C595 C594 1.349 . S
C595 C611 1.349 . S
C596 C594 1.327 . S
C596 C615 1.429 . S
C596 H620 0.950 . S
C597 C614 1.574 . S
C597 C616 1.368 . S
C597 H621 0.949 . S
H598 C602 0.949 . S
C599 C600 1.349 . S
C599 C601 1.327 . S
C599 H622 0.950 . S
C600 C599 1.349 . S
C600 C612 1.349 . S
C601 C599 1.327 . S
C601 C617 1.429 1_556 S
C601 H623 0.950 1_556 S
C602 H598 0.949 . S
C602 C610 1.574 . S
C602 C618 1.368 . S
H603 C611 0.950 . S
H604 C609 0.950 . S
H605 C610 0.949 . S
H606 C612 0.950 . S
H607 C613 0.950 1_554 S
H608 C614 0.949 . S
C609 H604 0.950 . S
C609 C611 1.327 . S
C609 C615 1.429 . S
C610 C602 1.574 . S
C610 H605 0.949 . S
C610 C616 1.368 . S
C611 C595 1.349 . S
C611 H603 0.950 . S
C611 C609 1.327 . S
C612 C600 1.349 . S
C612 H606 0.950 . S
C612 C613 1.327 . S
C613 H607 0.950 1_556 S
C613 C612 1.327 . S
C613 C617 1.429 1_556 S
C614 C597 1.574 . S
C614 H608 0.949 . S
C614 C618 1.368 . S
C615 C596 1.429 . S
C615 C609 1.429 . S
C615 C616 1.523 . S
C616 C597 1.368 . S
C616 C610 1.368 . S
C616 C615 1.523 . S
C617 C601 1.429 1_554 S
C617 C613 1.429 1_554 S
C617 C618 1.523 . S
C618 C602 1.368 . S
C618 C614 1.368 . S
C618 C617 1.523 . S
H619 C594 0.950 . S
H620 C596 0.950 . S
H621 C597 0.949 . S
H622 C599 0.950 . S
H623 C601 0.950 1_554 S
C624 C625 1.349 . S
C624 C626 1.327 . S
C624 H649 0.950 . S
C625 C624 1.349 . S
C625 C641 1.349 1_554 S
C626 C624 1.327 . S
C626 C645 1.429 . S
C626 H650 0.950 . S
C627 C644 1.574 1_545 S
C627 C646 1.368 1_556 S
C627 H651 0.949 . S
H628 C632 0.949 . S
C629 C630 1.349 1_556 S
C629 C631 1.327 . S
C629 H652 0.950 . S
C630 C629 1.349 1_554 S
C630 C642 1.349 . S
C631 C629 1.327 . S
C631 C647 1.429 1_556 S
C631 H653 0.950 . S
C632 H628 0.949 . S
C632 C640 1.574 1_565 S
C632 C648 1.368 . S
H633 C641 0.950 . S
H634 C639 0.950 . S
H635 C640 0.949 . S
H636 C642 0.950 . S
H637 C643 0.950 . S
H638 C644 0.949 . S
C639 H634 0.950 . S
C639 C641 1.327 . S
C639 C645 1.429 1_556 S
C640 C632 1.574 1_545 S
C640 H635 0.949 . S
C640 C646 1.368 . S
C641 C625 1.349 1_556 S
C641 H633 0.950 . S
C641 C639 1.327 . S
C642 C630 1.349 . S
C642 H636 0.950 . S
C642 C643 1.327 . S
C643 H637 0.950 . S
C643 C642 1.327 . S
C643 C647 1.429 . S
C644 C627 1.574 1_565 S
C644 H638 0.949 . S
C644 C648 1.368 1_556 S
C645 C626 1.429 . S
C645 C639 1.429 1_554 S
C645 C646 1.523 . S
C646 C627 1.368 1_554 S
C646 C640 1.368 . S
C646 C645 1.523 . S
C647 C631 1.429 1_554 S
C647 C643 1.429 . S
C647 C648 1.523 . S
C648 C632 1.368 . S
C648 C644 1.368 1_554 S
C648 C647 1.523 . S
H649 C624 0.950 . S
H650 C626 0.950 . S
H651 C627 0.949 . S
H652 C629 0.950 . S
H653 C631 0.950 . S
C654 C655 1.349 . S
C654 C656 1.327 . S
C654 H679 0.950 . S
C655 C654 1.349 . S
C655 C671 1.349 . S
C656 C654 1.327 . S
C656 C675 1.429 . S
C656 H680 0.950 . S
C657 C674 1.574 . S
C657 C676 1.368 . S
C657 H681 0.949 . S
H658 C662 0.949 . S
C659 C660 1.349 . S
C659 C661 1.327 . S
C659 H682 0.950 . S
C660 C659 1.349 . S
C660 C672 1.349 . S
C661 C659 1.327 . S
C661 C677 1.429 . S
C661 H683 0.950 . S
C662 H658 0.949 . S
C662 C670 1.574 . S
C662 C678 1.368 . S
H663 C671 0.950 . S
H664 C669 0.950 . S
H665 C670 0.949 . S
H666 C672 0.950 . S
H667 C673 0.950 . S
H668 C674 0.949 . S
C669 H664 0.950 . S
C669 C671 1.327 . S
C669 C675 1.429 . S
C670 C662 1.574 . S
C670 H665 0.949 . S
C670 C676 1.368 . S
C671 C655 1.349 . S
C671 H663 0.950 . S
C671 C669 1.327 . S
C672 C660 1.349 . S
C672 H666 0.950 . S
C672 C673 1.327 . S
C673 H667 0.950 . S
C673 C672 1.327 . S
C673 C677 1.429 . S
C674 C657 1.574 . S
C674 H668 0.949 . S
C674 C678 1.368 . S
C675 C656 1.429 . S
C675 C669 1.429 . S
C675 C676 1.523 . S
C676 C657 1.368 . S
C676 C670 1.368 . S
C676 C675 1.523 . S
C677 C661 1.429 . S
C677 C673 1.429 . S
C677 C678 1.523 . S
C678 C662 1.368 . S
C678 C674 1.368 . S
C678 C677 1.523 . S
H679 C654 0.950 . S
H680 C656 0.950 . S
H681 C657 0.949 . S
H682 C659 0.950 . S
H683 C661 0.950 . S
C684 C685 1.349 . S
C684 C686 1.327 . S
C684 H709 0.950 . S
C685 C684 1.349 . S
C685 C701 1.349 . S
C686 C684 1.327 . S
C686 C705 1.429 . S
C686 H710 0.950 . S
C687 C704 1.574 1_455 S
C687 C706 1.368 . S
C687 H711 0.949 . S
H688 C692 0.949 . S
C689 C690 1.349 . S
C689 C691 1.327 . S
C689 H712 0.950 . S
C690 C689 1.349 . S
C690 C702 1.349 . S
C691 C689 1.327 . S
C691 C707 1.429 . S
C691 H713 0.950 . S
C692 H688 0.949 . S
C692 C700 1.574 1_655 S
C692 C708 1.368 . S
H693 C701 0.950 . S
H694 C699 0.950 . S
H695 C700 0.949 . S
H696 C702 0.950 . S
H697 C703 0.950 . S
H698 C704 0.949 . S
C699 H694 0.950 . S
C699 C701 1.327 . S
C699 C705 1.429 . S
C700 C692 1.574 1_455 S
C700 H695 0.949 . S
C700 C706 1.368 . S
C701 C685 1.349 . S
C701 H693 0.950 . S
C701 C699 1.327 . S
C702 C690 1.349 . S
C702 H696 0.950 . S
C702 C703 1.327 . S
C703 H697 0.950 . S
C703 C702 1.327 . S
C703 C707 1.429 . S
C704 C687 1.574 1_655 S
C704 H698 0.949 . S
C704 C708 1.368 . S
C705 C686 1.429 . S
C705 C699 1.429 . S
C705 C706 1.523 . S
C706 C687 1.368 . S
C706 C700 1.368 . S
C706 C705 1.523 . S
C707 C691 1.429 . S
C707 C703 1.429 . S
C707 C708 1.523 . S
C708 C692 1.368 . S
C708 C704 1.368 . S
C708 C707 1.523 . S
H709 C684 0.950 . S
H710 C686 0.950 . S
H711 C687 0.949 . S
H712 C689 0.950 . S
H713 C691 0.950 . S
C714 C715 1.349 . S
C714 C716 1.327 . S
C714 H739 0.950 . S
C715 C714 1.349 . S
C715 C731 1.349 . S
C716 C714 1.327 . S
C716 C735 1.429 . S
C716 H740 0.950 . S
C717 C734 1.574 1_565 S
C717 C736 1.368 . S
C717 H741 0.949 . S
H718 C722 0.949 . S
C719 C720 1.349 . S
C719 C721 1.327 . S
C719 H742 0.950 . S
C720 C719 1.349 . S
C720 C732 1.349 . S
C721 C719 1.327 . S
C721 C737 1.429 . S
C721 H743 0.950 . S
C722 H718 0.949 . S
C722 C730 1.574 1_545 S
C722 C738 1.368 . S
H723 C731 0.950 . S
H724 C729 0.950 . S
H725 C730 0.949 . S
H726 C732 0.950 . S
H727 C733 0.950 . S
H728 C734 0.949 . S
C729 H724 0.950 . S
C729 C731 1.327 . S
C729 C735 1.429 . S
C730 C722 1.574 1_565 S
C730 H725 0.949 . S
C730 C736 1.368 . S
C731 C715 1.349 . S
C731 H723 0.950 . S
C731 C729 1.327 . S
C732 C720 1.349 . S
C732 H726 0.950 . S
C732 C733 1.327 . S
C733 H727 0.950 . S
C733 C732 1.327 . S
C733 C737 1.429 . S
C734 C717 1.574 1_545 S
C734 H728 0.949 . S
C734 C738 1.368 . S
C735 C716 1.429 . S
C735 C729 1.429 . S
C735 C736 1.523 . S
C736 C717 1.368 . S
C736 C730 1.368 . S
C736 C735 1.523 . S
C737 C721 1.429 . S
C737 C733 1.429 . S
C737 C738 1.523 . S
C738 C722 1.368 . S
C738 C734 1.368 . S
C738 C737 1.523 . S
H739 C714 0.950 . S
H740 C716 0.950 . S
H741 C717 0.949 . S
H742 C719 0.950 . S
H743 C721 0.950 . S
C744 C745 1.349 . S
C744 C746 1.327 . S
C744 H769 0.950 . S
C745 C744 1.349 . S
C745 C761 1.349 . S
C746 C744 1.327 . S
C746 C765 1.429 . S
C746 H770 0.950 . S
C747 C764 1.574 . S
C747 C766 1.368 . S
C747 H771 0.949 . S
H748 C752 0.949 . S
C749 C750 1.349 . S
C749 C751 1.327 . S
C749 H772 0.950 . S
C750 C749 1.349 . S
C750 C762 1.349 . S
C751 C749 1.327 . S
C751 C767 1.429 . S
C751 H773 0.950 . S
C752 H748 0.949 . S
C752 C760 1.574 . S
C752 C768 1.368 . S
H753 C761 0.950 . S
H754 C759 0.950 . S
H755 C760 0.949 . S
H756 C762 0.950 . S
H757 C763 0.950 . S
H758 C764 0.949 . S
C759 H754 0.950 . S
C759 C761 1.327 . S
C759 C765 1.429 . S
C760 C752 1.574 . S
C760 H755 0.949 . S
C760 C766 1.368 . S
C761 C745 1.349 . S
C761 H753 0.950 . S
C761 C759 1.327 . S
C762 C750 1.349 . S
C762 H756 0.950 . S
C762 C763 1.327 . S
C763 H757 0.950 . S
C763 C762 1.327 . S
C763 C767 1.429 . S
C764 C747 1.574 . S
C764 H758 0.949 . S
C764 C768 1.368 . S
C765 C746 1.429 . S
C765 C759 1.429 . S
C765 C766 1.523 . S
C766 C747 1.368 . S
C766 C760 1.368 . S
C766 C765 1.523 . S
C767 C751 1.429 . S
C767 C763 1.429 . S
C767 C768 1.523 . S
C768 C752 1.368 . S
C768 C764 1.368 . S
C768 C767 1.523 . S
H769 C744 0.950 . S
H770 C746 0.950 . S
H771 C747 0.949 . S
H772 C749 0.950 . S
H773 C751 0.950 . S
C774 C775 1.349 . S
C774 C776 1.327 . S
C774 H799 0.950 . S
C775 C774 1.349 . S
C775 C791 1.349 . S
C776 C774 1.327 . S
C776 C795 1.429 . S
C776 H800 0.950 . S
C777 C794 1.574 1_455 S
C777 C796 1.368 . S
C777 H801 0.949 . S
H778 C782 0.949 . S
C779 C780 1.349 . S
C779 C781 1.327 . S
C779 H802 0.950 . S
C780 C779 1.349 . S
C780 C792 1.349 . S
C781 C779 1.327 . S
C781 C797 1.429 . S
C781 H803 0.950 . S
C782 H778 0.949 . S
C782 C790 1.574 1_655 S
C782 C798 1.368 . S
H783 C791 0.950 . S
H784 C789 0.950 . S
H785 C790 0.949 . S
H786 C792 0.950 . S
H787 C793 0.950 . S
H788 C794 0.949 . S
C789 H784 0.950 . S
C789 C791 1.327 . S
C789 C795 1.429 . S
C790 C782 1.574 1_455 S
C790 H785 0.949 . S
C790 C796 1.368 . S
C791 C775 1.349 . S
C791 H783 0.950 . S
C791 C789 1.327 . S
C792 C780 1.349 . S
C792 H786 0.950 . S
C792 C793 1.327 . S
C793 H787 0.950 . S
C793 C792 1.327 . S
C793 C797 1.429 . S
C794 C777 1.574 1_655 S
C794 H788 0.949 . S
C794 C798 1.368 . S
C795 C776 1.429 . S
C795 C789 1.429 . S
C795 C796 1.523 . S
C796 C777 1.368 . S
C796 C790 1.368 . S
C796 C795 1.523 . S
C797 C781 1.429 . S
C797 C793 1.429 . S
C797 C798 1.523 . S
C798 C782 1.368 . S
C798 C794 1.368 . S
C798 C797 1.523 . S
H799 C774 0.950 . S
H800 C776 0.950 . S
H801 C777 0.949 . S
H802 C779 0.950 . S
H803 C781 0.950 . S
C804 C805 1.349 . S
C804 C806 1.327 . S
C804 H829 0.950 . S
C805 C804 1.349 . S
C805 C821 1.349 . S
C806 C804 1.327 . S
C806 C825 1.429 . S
C806 H830 0.950 . S
C807 C824 1.574 . S
C807 C826 1.368 . S
C807 H831 0.949 . S
H808 C812 0.949 . S
C809 C810 1.349 . S
C809 C811 1.327 . S
C809 H832 0.950 . S
C810 C809 1.349 . S
C810 C822 1.349 . S
C811 C809 1.327 . S
C811 C827 1.429 . S
C811 H833 0.950 . S
C812 H808 0.949 . S
C812 C820 1.574 . S
C812 C828 1.368 . S
H813 C821 0.950 . S
H814 C819 0.950 . S
H815 C820 0.949 . S
H816 C822 0.950 . S
H817 C823 0.950 . S
H818 C824 0.949 . S
C819 H814 0.950 . S
C819 C821 1.327 . S
C819 C825 1.429 . S
C820 C812 1.574 . S
C820 H815 0.949 . S
C820 C826 1.368 . S
C821 C805 1.349 . S
C821 H813 0.950 . S
C821 C819 1.327 . S
C822 C810 1.349 . S
C822 H816 0.950 . S
C822 C823 1.327 . S
C823 H817 0.950 . S
C823 C822 1.327 . S
C823 C827 1.429 . S
C824 C807 1.574 . S
C824 H818 0.949 . S
C824 C828 1.368 . S
C825 C806 1.429 . S
C825 C819 1.429 . S
C825 C826 1.523 . S
C826 C807 1.368 . S
C826 C820 1.368 . S
C826 C825 1.523 . S
C827 C811 1.429 . S
C827 C823 1.429 . S
C827 C828 1.523 . S
C828 C812 1.368 . S
C828 C824 1.368 . S
C828 C827 1.523 . S
H829 C804 0.950 . S
H830 C806 0.950 . S
H831 C807 0.949 . S
H832 C809 0.950 . S
H833 C811 0.950 . S
C834 C835 1.349 . S
C834 C836 1.327 1_554 S
C834 H859 0.950 1_554 S
C835 C834 1.349 . S
C835 C851 1.349 . S
C836 C834 1.327 1_556 S
C836 C855 1.429 1_556 S
C836 H860 0.950 . S
C837 C854 1.574 . S
C837 C856 1.368 . S
C837 H861 0.949 1_556 S
H838 C842 0.949 . S
C839 C840 1.349 . S
C839 C841 1.327 . S
C839 H862 0.950 . S
C840 C839 1.349 . S
C840 C852 1.349 . S
C841 C839 1.327 . S
C841 C857 1.429 . S
C841 H863 0.950 . S
C842 H838 0.949 . S
C842 C850 1.574 . S
C842 C858 1.368 . S
H843 C851 0.950 . S
H844 C849 0.950 . S
H845 C850 0.949 . S
H846 C852 0.950 . S
H847 C853 0.950 . S
H848 C854 0.949 . S
C849 H844 0.950 . S
C849 C851 1.327 . S
C849 C855 1.429 . S
C850 C842 1.574 . S
C850 H845 0.949 . S
C850 C856 1.368 . S
C851 C835 1.349 . S
C851 H843 0.950 . S
C851 C849 1.327 . S
C852 C840 1.349 . S
C852 H846 0.950 . S
C852 C853 1.327 . S
C853 H847 0.950 . S
C853 C852 1.327 . S
C853 C857 1.429 . S
C854 C837 1.574 . S
C854 H848 0.949 . S
C854 C858 1.368 . S
C855 C836 1.429 1_554 S
C855 C849 1.429 . S
C855 C856 1.523 1_554 S
C856 C837 1.368 . S
C856 C850 1.368 . S
C856 C855 1.523 1_556 S
C857 C841 1.429 . S
C857 C853 1.429 . S
C857 C858 1.523 . S
C858 C842 1.368 . S
C858 C854 1.368 . S
C858 C857 1.523 . S
H859 C834 0.950 1_556 S
H860 C836 0.950 . S
H861 C837 0.949 1_554 S
H862 C839 0.950 . S
H863 C841 0.950 . S
C864 C865 1.349 1_554 S
C864 C866 1.327 . S
C864 H889 0.950 . S
C865 C864 1.349 1_556 S
C865 C881 1.349 . S
C866 C864 1.327 . S
C866 C885 1.429 . S
C866 H890 0.950 . S
C867 C884 1.574 . S
C867 C886 1.368 . S
C867 H891 0.949 1_554 S
H868 C872 0.949 . S
C869 C870 1.349 . S
C869 C871 1.327 . S
C869 H892 0.950 . S
C870 C869 1.349 . S
C870 C882 1.349 . S
C871 C869 1.327 . S
C871 C887 1.429 . S
C871 H893 0.950 . S
C872 H868 0.949 . S
C872 C880 1.574 . S
C872 C888 1.368 . S
H873 C881 0.950 . S
H874 C879 0.950 . S
H875 C880 0.949 . S
H876 C882 0.950 . S
H877 C883 0.950 . S
H878 C884 0.949 . S
C879 H874 0.950 . S
C879 C881 1.327 . S
C879 C885 1.429 1_556 S
C880 C872 1.574 . S
C880 H875 0.949 . S
C880 C886 1.368 . S
C881 C865 1.349 . S
C881 H873 0.950 . S
C881 C879 1.327 . S
C882 C870 1.349 . S
C882 H876 0.950 . S
C882 C883 1.327 . S
C883 H877 0.950 . S
C883 C882 1.327 . S
C883 C887 1.429 . S
C884 C867 1.574 . S
C884 H878 0.949 . S
C884 C888 1.368 . S
C885 C866 1.429 . S
C885 C879 1.429 1_554 S
C885 C886 1.523 . S
C886 C867 1.368 . S
C886 C880 1.368 . S
C886 C885 1.523 . S
C887 C871 1.429 . S
C887 C883 1.429 . S
C887 C888 1.523 . S
C888 C872 1.368 . S
C888 C884 1.368 . S
C888 C887 1.523 . S
H889 C864 0.950 . S
H890 C866 0.950 . S
H891 C867 0.949 1_556 S
H892 C869 0.950 . S
H893 C871 0.950 . S
C894 C895 1.349 . S
C894 C896 1.327 . S
C894 H919 0.950 . S
C895 C894 1.349 . S
C895 C911 1.349 . S
C896 C894 1.327 . S
C896 C915 1.429 . S
C896 H920 0.950 . S
C897 C914 1.574 . S
C897 C916 1.368 . S
C897 H921 0.949 . S
H898 C902 0.949 . S
C899 C900 1.349 . S
C899 C901 1.327 . S
C899 H922 0.950 . S
C900 C899 1.349 . S
C900 C912 1.349 . S
C901 C899 1.327 . S
C901 C917 1.429 . S
C901 H923 0.950 . S
C902 H898 0.949 . S
C902 C910 1.574 . S
C902 C918 1.368 . S
H903 C911 0.950 . S
H904 C909 0.950 . S
H905 C910 0.949 . S
H906 C912 0.950 . S
H907 C913 0.950 . S
H908 C914 0.949 . S
C909 H904 0.950 . S
C909 C911 1.327 . S
C909 C915 1.429 . S
C910 C902 1.574 . S
C910 H905 0.949 . S
C910 C916 1.368 . S
C911 C895 1.349 . S
C911 H903 0.950 . S
C911 C909 1.327 . S
C912 C900 1.349 . S
C912 H906 0.950 . S
C912 C913 1.327 . S
C913 H907 0.950 . S
C913 C912 1.327 . S
C913 C917 1.429 . S
C914 C897 1.574 . S
C914 H908 0.949 . S
C914 C918 1.368 . S
C915 C896 1.429 . S
C915 C909 1.429 . S
C915 C916 1.523 . S
C916 C897 1.368 . S
C916 C910 1.368 . S
C916 C915 1.523 . S
C917 C901 1.429 . S
C917 C913 1.429 . S
C917 C918 1.523 . S
C918 C902 1.368 . S
C918 C914 1.368 . S
C918 C917 1.523 . S
H919 C894 0.950 . S
H920 C896 0.950 . S
H921 C897 0.949 . S
H922 C899 0.950 . S
H923 C901 0.950 . S
C924 C925 1.349 . S
C924 C926 1.327 . S
C924 H949 0.950 . S
C925 C924 1.349 . S
C925 C941 1.349 . S
C926 C924 1.327 . S
C926 C945 1.429 . S
C926 H950 0.950 . S
C927 C944 1.574 . S
C927 C946 1.368 . S
C927 H951 0.949 . S
H928 C932 0.949 . S
C929 C930 1.349 . S
C929 C931 1.327 . S
C929 H952 0.950 . S
C930 C929 1.349 . S
C930 C942 1.349 . S
C931 C929 1.327 . S
C931 C947 1.429 . S
C931 H953 0.950 . S
C932 H928 0.949 . S
C932 C940 1.574 . S
C932 C948 1.368 . S
H933 C941 0.950 . S
H934 C939 0.950 . S
H935 C940 0.949 . S
H936 C942 0.950 . S
H937 C943 0.950 . S
H938 C944 0.949 . S
C939 H934 0.950 . S
C939 C941 1.327 . S
C939 C945 1.429 . S
C940 C932 1.574 . S
C940 H935 0.949 . S
C940 C946 1.368 . S
C941 C925 1.349 . S
C941 H933 0.950 . S
C941 C939 1.327 . S
C942 C930 1.349 . S
C942 H936 0.950 . S
C942 C943 1.327 . S
C943 H937 0.950 . S
C943 C942 1.327 . S
C943 C947 1.429 . S
C944 C927 1.574 . S
C944 H938 0.949 . S
C944 C948 1.368 . S
C945 C926 1.429 . S
C945 C939 1.429 . S
C945 C946 1.523 . S
C946 C927 1.368 . S
C946 C940 1.368 . S
C946 C945 1.523 . S
C947 C931 1.429 . S
C947 C943 1.429 . S
C947 C948 1.523 . S
C948 C932 1.368 . S
C948 C944 1.368 . S
C948 C947 1.523 . S
H949 C924 0.950 . S
H950 C926 0.950 . S
H951 C927 0.949 . S
H952 C929 0.950 . S
H953 C931 0.950 . S
C954 C955 1.349 . S
C954 C956 1.327 . S
C954 H979 0.950 . S
C955 C954 1.349 . S
C955 C971 1.349 . S
C956 C954 1.327 . S
C956 C975 1.429 . S
C956 H980 0.950 . S
C957 C974 1.574 . S
C957 C976 1.368 . S
C957 H981 0.949 . S
H958 C962 0.949 . S
C959 C960 1.349 . S
C959 C961 1.327 . S
C959 H982 0.950 . S
C960 C959 1.349 . S
C960 C972 1.349 . S
C961 C959 1.327 . S
C961 C977 1.429 . S
C961 H983 0.950 . S
C962 H958 0.949 . S
C962 C970 1.574 . S
C962 C978 1.368 . S
H963 C971 0.950 . S
H964 C969 0.950 . S
H965 C970 0.949 . S
H966 C972 0.950 . S
H967 C973 0.950 . S
H968 C974 0.949 . S
C969 H964 0.950 . S
C969 C971 1.327 . S
C969 C975 1.429 . S
C970 C962 1.574 . S
C970 H965 0.949 . S
C970 C976 1.368 . S
C971 C955 1.349 . S
C971 H963 0.950 . S
C971 C969 1.327 . S
C972 C960 1.349 . S
C972 H966 0.950 . S
C972 C973 1.327 . S
C973 H967 0.950 . S
C973 C972 1.327 . S
C973 C977 1.429 . S
C974 C957 1.574 . S
C974 H968 0.949 . S
C974 C978 1.368 . S
C975 C956 1.429 . S
C975 C969 1.429 . S
C975 C976 1.523 . S
C976 C957 1.368 . S
C976 C970 1.368 . S
C976 C975 1.523 . S
C977 C961 1.429 . S
C977 C973 1.429 . S
C977 C978 1.523 . S
C978 C962 1.368 . S
C978 C974 1.368 . S
C978 C977 1.523 . S
H979 C954 0.950 . S
H980 C956 0.950 . S
H981 C957 0.949 . S
H982 C959 0.950 . S
H983 C961 0.950 . S
C984 C985 1.349 1_556 S
C984 C986 1.327 1_556 S
C984 H1009 0.950 . S
C985 C984 1.349 1_554 S
C985 C1001 1.349 . S
C986 C984 1.327 1_554 S
C986 C1005 1.429 . S
C986 H1010 0.950 1_554 S
C987 C1004 1.574 . S
C987 C1006 1.368 . S
C987 H1011 0.949 . S
H988 C992 0.949 . S
C989 C990 1.349 . S
C989 C991 1.327 . S
C989 H1012 0.950 . S
C990 C989 1.349 . S
C990 C1002 1.349 . S
C991 C989 1.327 . S
C991 C1007 1.429 . S
C991 H1013 0.950 . S
C992 H988 0.949 . S
C992 C1000 1.574 . S
C992 C1008 1.368 . S
H993 C1001 0.950 . S
H994 C999 0.950 . S
H995 C1000 0.949 1_556 S
H996 C1002 0.950 . S
H997 C1003 0.950 . S
H998 C1004 0.949 . S
C999 H994 0.950 . S
C999 C1001 1.327 . S
C999 C1005 1.429 . S
C1000 C992 1.574 . S
C1000 H995 0.949 1_554 S
C1000 C1006 1.368 . S
C1001 C985 1.349 . S
C1001 H993 0.950 . S
C1001 C999 1.327 . S
C1002 C990 1.349 . S
C1002 H996 0.950 . S
C1002 C1003 1.327 . S
C1003 H997 0.950 . S
C1003 C1002 1.327 . S
C1003 C1007 1.429 . S
C1004 C987 1.574 . S
C1004 H998 0.949 . S
C1004 C1008 1.368 . S
C1005 C986 1.429 . S
C1005 C999 1.429 . S
C1005 C1006 1.523 . S
C1006 C987 1.368 . S
C1006 C1000 1.368 . S
C1006 C1005 1.523 . S
C1007 C991 1.429 . S
C1007 C1003 1.429 . S
C1007 C1008 1.523 . S
C1008 C992 1.368 . S
C1008 C1004 1.368 . S
C1008 C1007 1.523 . S
H1009 C984 0.950 . S
H1010 C986 0.950 1_556 S
H1011 C987 0.949 . S
H1012 C989 0.950 . S
H1013 C991 0.950 . S
C1014 C1015 1.349 . S
C1014 C1016 1.327 . S
C1014 H1039 0.950 . S
C1015 C1014 1.349 . S
C1015 C1031 1.349 . S
C1016 C1014 1.327 . S
C1016 C1035 1.429 . S
C1016 H1040 0.950 . S
C1017 C1034 1.574 . S
C1017 C1036 1.368 . S
C1017 H1041 0.949 . S
H1018 C1022 0.949 . S
C1019 C1020 1.349 . S
C1019 C1021 1.327 . S
C1019 H1042 0.950 . S
C1020 C1019 1.349 . S
C1020 C1032 1.349 . S
C1021 C1019 1.327 . S
C1021 C1037 1.429 . S
C1021 H1043 0.950 . S
C1022 H1018 0.949 . S
C1022 C1030 1.574 . S
C1022 C1038 1.368 . S
H1023 C1031 0.950 . S
H1024 C1029 0.950 . S
H1025 C1030 0.949 . S
H1026 C1032 0.950 . S
H1027 C1033 0.950 . S
H1028 C1034 0.949 . S
C1029 H1024 0.950 . S
C1029 C1031 1.327 . S
C1029 C1035 1.429 . S
C1030 C1022 1.574 . S
C1030 H1025 0.949 . S
C1030 C1036 1.368 . S
C1031 C1015 1.349 . S
C1031 H1023 0.950 . S
C1031 C1029 1.327 . S
C1032 C1020 1.349 . S
C1032 H1026 0.950 . S
C1032 C1033 1.327 . S
C1033 H1027 0.950 . S
C1033 C1032 1.327 . S
C1033 C1037 1.429 . S
C1034 C1017 1.574 . S
C1034 H1028 0.949 . S
C1034 C1038 1.368 . S
C1035 C1016 1.429 . S
C1035 C1029 1.429 . S
C1035 C1036 1.523 . S
C1036 C1017 1.368 . S
C1036 C1030 1.368 . S
C1036 C1035 1.523 . S
C1037 C1021 1.429 . S
C1037 C1033 1.429 . S
C1037 C1038 1.523 . S
C1038 C1022 1.368 . S
C1038 C1034 1.368 . S
C1038 C1037 1.523 . S
H1039 C1014 0.950 . S
H1040 C1016 0.950 . S
H1041 C1017 0.949 . S
H1042 C1019 0.950 . S
H1043 C1021 0.950 . S
C1044 C1045 1.349 . S
C1044 C1046 1.327 . S
C1044 H1069 0.950 . S
C1045 C1044 1.349 . S
C1045 C1061 1.349 . S
C1046 C1044 1.327 . S
C1046 C1065 1.429 . S
C1046 H1070 0.950 . S
C1047 C1064 1.574 . S
C1047 C1066 1.368 . S
C1047 H1071 0.949 . S
H1048 C1052 0.949 . S
C1049 C1050 1.349 . S
C1049 C1051 1.327 . S
C1049 H1072 0.950 . S
C1050 C1049 1.349 . S
C1050 C1062 1.349 . S
C1051 C1049 1.327 . S
C1051 C1067 1.429 . S
C1051 H1073 0.950 . S
C1052 H1048 0.949 . S
C1052 C1060 1.574 . S
C1052 C1068 1.368 . S
H1053 C1061 0.950 . S
H1054 C1059 0.950 . S
H1055 C1060 0.949 . S
H1056 C1062 0.950 . S
H1057 C1063 0.950 . S
H1058 C1064 0.949 . S
C1059 H1054 0.950 . S
C1059 C1061 1.327 . S
C1059 C1065 1.429 . S
C1060 C1052 1.574 . S
C1060 H1055 0.949 . S
C1060 C1066 1.368 . S
C1061 C1045 1.349 . S
C1061 H1053 0.950 . S
C1061 C1059 1.327 . S
C1062 C1050 1.349 . S
C1062 H1056 0.950 . S
C1062 C1063 1.327 . S
C1063 H1057 0.950 . S
C1063 C1062 1.327 . S
C1063 C1067 1.429 . S
C1064 C1047 1.574 . S
C1064 H1058 0.949 . S
C1064 C1068 1.368 . S
C1065 C1046 1.429 . S
C1065 C1059 1.429 . S
C1065 C1066 1.523 . S
C1066 C1047 1.368 . S
C1066 C1060 1.368 . S
C1066 C1065 1.523 . S
C1067 C1051 1.429 . S
C1067 C1063 1.429 . S
C1067 C1068 1.523 . S
C1068 C1052 1.368 . S
C1068 C1064 1.368 . S
C1068 C1067 1.523 . S
H1069 C1044 0.950 . S
H1070 C1046 0.950 . S
H1071 C1047 0.949 . S
H1072 C1049 0.950 . S
H1073 C1051 0.950 . S
C1074 C1075 1.349 . S
C1074 C1076 1.327 . S
C1074 H1099 0.950 . S
C1075 C1074 1.349 . S
C1075 C1091 1.349 . S
C1076 C1074 1.327 . S
C1076 C1095 1.429 . S
C1076 H1100 0.950 . S
C1077 C1094 1.574 . S
C1077 C1096 1.368 . S
C1077 H1101 0.949 . S
H1078 C1082 0.949 . S
C1079 C1080 1.349 . S
C1079 C1081 1.327 . S
C1079 H1102 0.950 . S
C1080 C1079 1.349 . S
C1080 C1092 1.349 . S
C1081 C1079 1.327 . S
C1081 C1097 1.429 . S
C1081 H1103 0.950 . S
C1082 H1078 0.949 . S
C1082 C1090 1.574 . S
C1082 C1098 1.368 . S
H1083 C1091 0.950 . S
H1084 C1089 0.950 . S
H1085 C1090 0.949 . S
H1086 C1092 0.950 . S
H1087 C1093 0.950 . S
H1088 C1094 0.949 . S
C1089 H1084 0.950 . S
C1089 C1091 1.327 . S
C1089 C1095 1.429 . S
C1090 C1082 1.574 . S
C1090 H1085 0.949 . S
C1090 C1096 1.368 . S
C1091 C1075 1.349 . S
C1091 H1083 0.950 . S
C1091 C1089 1.327 . S
C1092 C1080 1.349 . S
C1092 H1086 0.950 . S
C1092 C1093 1.327 . S
C1093 H1087 0.950 . S
C1093 C1092 1.327 . S
C1093 C1097 1.429 . S
C1094 C1077 1.574 . S
C1094 H1088 0.949 . S
C1094 C1098 1.368 . S
C1095 C1076 1.429 . S
C1095 C1089 1.429 . S
C1095 C1096 1.523 . S
C1096 C1077 1.368 . S
C1096 C1090 1.368 . S
C1096 C1095 1.523 . S
C1097 C1081 1.429 . S
C1097 C1093 1.429 . S
C1097 C1098 1.523 . S
C1098 C1082 1.368 . S
C1098 C1094 1.368 . S
C1098 C1097 1.523 . S
H1099 C1074 0.950 . S
H1100 C1076 0.950 . S
H1101 C1077 0.949 . S
H1102 C1079 0.950 . S
H1103 C1081 0.950 . S
C1104 C1105 1.349 . S
C1104 C1106 1.327 . S
C1104 H1129 0.950 . S
C1105 C1104 1.349 . S
C1105 C1121 1.349 . S
C1106 C1104 1.327 . S
C1106 C1125 1.429 . S
C1106 H1130 0.950 . S
C1107 C1124 1.574 . S
C1107 C1126 1.368 . S
C1107 H1131 0.949 . S
H1108 C1112 0.949 . S
C1109 C1110 1.349 . S
C1109 C1111 1.327 . S
C1109 H1132 0.950 . S
C1110 C1109 1.349 . S
C1110 C1122 1.349 . S
C1111 C1109 1.327 . S
C1111 C1127 1.429 . S
C1111 H1133 0.950 . S
C1112 H1108 0.949 . S
C1112 C1120 1.574 . S
C1112 C1128 1.368 . S
H1113 C1121 0.950 . S
H1114 C1119 0.950 . S
H1115 C1120 0.949 . S
H1116 C1122 0.950 . S
H1117 C1123 0.950 . S
H1118 C1124 0.949 . S
C1119 H1114 0.950 . S
C1119 C1121 1.327 . S
C1119 C1125 1.429 . S
C1120 C1112 1.574 . S
C1120 H1115 0.949 . S
C1120 C1126 1.368 . S
C1121 C1105 1.349 . S
C1121 H1113 0.950 . S
C1121 C1119 1.327 . S
C1122 C1110 1.349 . S
C1122 H1116 0.950 . S
C1122 C1123 1.327 . S
C1123 H1117 0.950 . S
C1123 C1122 1.327 . S
C1123 C1127 1.429 . S
C1124 C1107 1.574 . S
C1124 H1118 0.949 . S
C1124 C1128 1.368 . S
C1125 C1106 1.429 . S
C1125 C1119 1.429 . S
C1125 C1126 1.523 . S
C1126 C1107 1.368 . S
C1126 C1120 1.368 . S
C1126 C1125 1.523 . S
C1127 C1111 1.429 . S
C1127 C1123 1.429 . S
C1127 C1128 1.523 . S
C1128 C1112 1.368 . S
C1128 C1124 1.368 . S
C1128 C1127 1.523 . S
H1129 C1104 0.950 . S
H1130 C1106 0.950 . S
H1131 C1107 0.949 . S
H1132 C1109 0.950 . S
H1133 C1111 0.950 . S
C1134 C1135 1.349 . S
C1134 C1136 1.327 . S
C1134 H1159 0.950 . S
C1135 C1134 1.349 . S
C1135 C1151 1.349 . S
C1136 C1134 1.327 . S
C1136 C1155 1.429 . S
C1136 H1160 0.950 . S
C1137 C1154 1.574 . S
C1137 C1156 1.368 . S
C1137 H1161 0.948 . S
H1138 C1142 0.949 . S
C1139 C1140 1.349 1_554 S
C1139 C1141 1.327 . S
C1139 H1162 0.950 . S
C1140 C1139 1.349 1_556 S
C1140 C1152 1.349 . S
C1141 C1139 1.327 . S
C1141 C1157 1.429 1_554 S
C1141 H1163 0.950 . S
C1142 H1138 0.949 . S
C1142 C1150 1.574 . S
C1142 C1158 1.368 . S
H1143 C1151 0.950 . S
H1144 C1149 0.950 . S
H1145 C1150 0.949 . S
H1146 C1152 0.950 . S
H1147 C1153 0.950 . S
H1148 C1154 0.949 1_554 S
C1149 H1144 0.950 . S
C1149 C1151 1.327 . S
C1149 C1155 1.429 . S
C1150 C1142 1.574 . S
C1150 H1145 0.949 . S
C1150 C1156 1.368 . S
C1151 C1135 1.349 . S
C1151 H1143 0.950 . S
C1151 C1149 1.327 . S
C1152 C1140 1.349 . S
C1152 H1146 0.950 . S
C1152 C1153 1.327 . S
C1153 H1147 0.950 . S
C1153 C1152 1.327 . S
C1153 C1157 1.429 . S
C1154 C1137 1.574 . S
C1154 H1148 0.949 1_556 S
C1154 C1158 1.368 . S
C1155 C1136 1.429 . S
C1155 C1149 1.429 . S
C1155 C1156 1.523 . S
C1156 C1137 1.368 . S
C1156 C1150 1.368 . S
C1156 C1155 1.523 . S
C1157 C1141 1.429 1_556 S
C1157 C1153 1.429 . S
C1157 C1158 1.523 . S
C1158 C1142 1.368 . S
C1158 C1154 1.368 . S
C1158 C1157 1.523 . S
H1159 C1134 0.950 . S
H1160 C1136 0.950 . S
H1161 C1137 0.948 . S
H1162 C1139 0.950 . S
H1163 C1141 0.950 . S
C1164 C1165 1.349 . S
C1164 C1166 1.327 . S
C1164 H1189 0.950 . S
C1165 C1164 1.349 . S
C1165 C1181 1.349 . S
C1166 C1164 1.327 . S
C1166 C1185 1.429 . S
C1166 H1190 0.950 . S
C1167 C1184 1.574 . S
C1167 C1186 1.368 . S
C1167 H1191 0.949 . S
H1168 C1172 0.949 . S
C1169 C1170 1.349 . S
C1169 C1171 1.327 . S
C1169 H1192 0.950 . S
C1170 C1169 1.349 . S
C1170 C1182 1.349 . S
C1171 C1169 1.327 . S
C1171 C1187 1.429 . S
C1171 H1193 0.950 . S
C1172 H1168 0.949 . S
C1172 C1180 1.574 . S
C1172 C1188 1.368 . S
H1173 C1181 0.950 . S
H1174 C1179 0.950 . S
H1175 C1180 0.949 . S
H1176 C1182 0.950 . S
H1177 C1183 0.950 . S
H1178 C1184 0.949 . S
C1179 H1174 0.950 . S
C1179 C1181 1.327 . S
C1179 C1185 1.429 . S
C1180 C1172 1.574 . S
C1180 H1175 0.949 . S
C1180 C1186 1.368 . S
C1181 C1165 1.349 . S
C1181 H1173 0.950 . S
C1181 C1179 1.327 . S
C1182 C1170 1.349 . S
C1182 H1176 0.950 . S
C1182 C1183 1.327 . S
C1183 H1177 0.950 . S
C1183 C1182 1.327 . S
C1183 C1187 1.429 . S
C1184 C1167 1.574 . S
C1184 H1178 0.949 . S
C1184 C1188 1.368 . S
C1185 C1166 1.429 . S
C1185 C1179 1.429 . S
C1185 C1186 1.523 . S
C1186 C1167 1.368 . S
C1186 C1180 1.368 . S
C1186 C1185 1.523 . S
C1187 C1171 1.429 . S
C1187 C1183 1.429 . S
C1187 C1188 1.523 . S
C1188 C1172 1.368 . S
C1188 C1184 1.368 . S
C1188 C1187 1.523 . S
H1189 C1164 0.950 . S
H1190 C1166 0.950 . S
H1191 C1167 0.949 . S
H1192 C1169 0.950 . S
H1193 C1171 0.950 . S
C1194 C1195 1.349 . S
C1194 C1196 1.327 . S
C1194 H1219 0.950 . S
C1195 C1194 1.349 . S
C1195 C1211 1.349 . S
C1196 C1194 1.327 . S
C1196 C1215 1.429 . S
C1196 H1220 0.950 . S
C1197 C1214 1.574 . S
C1197 C1216 1.368 . S
C1197 H1221 0.949 . S
H1198 C1202 0.949 . S
C1199 C1200 1.349 . S
C1199 C1201 1.327 . S
C1199 H1222 0.950 . S
C1200 C1199 1.349 . S
C1200 C1212 1.349 . S
C1201 C1199 1.327 . S
C1201 C1217 1.429 . S
C1201 H1223 0.950 . S
C1202 H1198 0.949 . S
C1202 C1210 1.574 . S
C1202 C1218 1.368 . S
H1203 C1211 0.950 . S
H1204 C1209 0.950 . S
H1205 C1210 0.949 . S
H1206 C1212 0.950 . S
H1207 C1213 0.950 . S
H1208 C1214 0.949 . S
C1209 H1204 0.950 . S
C1209 C1211 1.327 . S
C1209 C1215 1.429 . S
C1210 C1202 1.574 . S
C1210 H1205 0.949 . S
C1210 C1216 1.368 . S
C1211 C1195 1.349 . S
C1211 H1203 0.950 . S
C1211 C1209 1.327 . S
C1212 C1200 1.349 . S
C1212 H1206 0.950 . S
C1212 C1213 1.327 . S
C1213 H1207 0.950 . S
C1213 C1212 1.327 . S
C1213 C1217 1.429 . S
C1214 C1197 1.574 . S
C1214 H1208 0.949 . S
C1214 C1218 1.368 . S
C1215 C1196 1.429 . S
C1215 C1209 1.429 . S
C1215 C1216 1.523 . S
C1216 C1197 1.368 . S
C1216 C1210 1.368 . S
C1216 C1215 1.523 . S
C1217 C1201 1.429 . S
C1217 C1213 1.429 . S
C1217 C1218 1.523 . S
C1218 C1202 1.368 . S
C1218 C1214 1.368 . S
C1218 C1217 1.523 . S
H1219 C1194 0.950 . S
H1220 C1196 0.950 . S
H1221 C1197 0.949 . S
H1222 C1199 0.950 . S
H1223 C1201 0.950 . S
C1224 C1225 1.349 . S
C1224 C1226 1.327 . S
C1224 H1249 0.950 . S
C1225 C1224 1.349 . S
C1225 C1241 1.349 . S
C1226 C1224 1.327 . S
C1226 C1245 1.429 . S
C1226 H1250 0.950 . S
C1227 C1244 1.574 . S
C1227 C1246 1.368 . S
C1227 H1251 0.949 . S
H1228 C1232 0.949 . S
C1229 C1230 1.349 . S
C1229 C1231 1.327 . S
C1229 H1252 0.950 . S
C1230 C1229 1.349 . S
C1230 C1242 1.349 . S
C1231 C1229 1.327 . S
C1231 C1247 1.429 . S
C1231 H1253 0.950 . S
C1232 H1228 0.949 . S
C1232 C1240 1.574 . S
C1232 C1248 1.368 . S
H1233 C1241 0.950 . S
H1234 C1239 0.950 . S
H1235 C1240 0.949 . S
H1236 C1242 0.950 . S
H1237 C1243 0.950 . S
H1238 C1244 0.949 . S
C1239 H1234 0.950 . S
C1239 C1241 1.327 . S
C1239 C1245 1.429 . S
C1240 C1232 1.574 . S
C1240 H1235 0.949 . S
C1240 C1246 1.368 . S
C1241 C1225 1.349 . S
C1241 H1233 0.950 . S
C1241 C1239 1.327 . S
C1242 C1230 1.349 . S
C1242 H1236 0.950 . S
C1242 C1243 1.327 . S
C1243 H1237 0.950 . S
C1243 C1242 1.327 . S
C1243 C1247 1.429 . S
C1244 C1227 1.574 . S
C1244 H1238 0.949 . S
C1244 C1248 1.368 . S
C1245 C1226 1.429 . S
C1245 C1239 1.429 . S
C1245 C1246 1.523 . S
C1246 C1227 1.368 . S
C1246 C1240 1.368 . S
C1246 C1245 1.523 . S
C1247 C1231 1.429 . S
C1247 C1243 1.429 . S
C1247 C1248 1.523 . S
C1248 C1232 1.368 . S
C1248 C1244 1.368 . S
C1248 C1247 1.523 . S
H1249 C1224 0.950 . S
H1250 C1226 0.950 . S
H1251 C1227 0.949 . S
H1252 C1229 0.950 . S
H1253 C1231 0.950 . S
C1254 C1255 1.349 . S
C1254 C1256 1.327 . S
C1254 H1279 0.950 . S
C1255 C1254 1.349 . S
C1255 C1271 1.349 . S
C1256 C1254 1.327 . S
C1256 C1275 1.429 . S
C1256 H1280 0.950 . S
C1257 C1274 1.574 . S
C1257 C1276 1.368 . S
C1257 H1281 0.949 . S
H1258 C1262 0.949 . S
C1259 C1260 1.349 . S
C1259 C1261 1.327 . S
C1259 H1282 0.950 . S
C1260 C1259 1.349 . S
C1260 C1272 1.349 . S
C1261 C1259 1.327 . S
C1261 C1277 1.429 . S
C1261 H1283 0.950 . S
C1262 H1258 0.949 . S
C1262 C1270 1.574 . S
C1262 C1278 1.368 . S
H1263 C1271 0.950 . S
H1264 C1269 0.950 . S
H1265 C1270 0.949 . S
H1266 C1272 0.950 . S
H1267 C1273 0.950 . S
H1268 C1274 0.949 . S
C1269 H1264 0.950 . S
C1269 C1271 1.327 . S
C1269 C1275 1.429 . S
C1270 C1262 1.574 . S
C1270 H1265 0.949 . S
C1270 C1276 1.368 . S
C1271 C1255 1.349 . S
C1271 H1263 0.950 . S
C1271 C1269 1.327 . S
C1272 C1260 1.349 . S
C1272 H1266 0.950 . S
C1272 C1273 1.327 . S
C1273 H1267 0.950 . S
C1273 C1272 1.327 . S
C1273 C1277 1.429 . S
C1274 C1257 1.574 . S
C1274 H1268 0.949 . S
C1274 C1278 1.368 . S
C1275 C1256 1.429 . S
C1275 C1269 1.429 . S
C1275 C1276 1.523 . S
C1276 C1257 1.368 . S
C1276 C1270 1.368 . S
C1276 C1275 1.523 . S
C1277 C1261 1.429 . S
C1277 C1273 1.429 . S
C1277 C1278 1.523 . S
C1278 C1262 1.368 . S
C1278 C1274 1.368 . S
C1278 C1277 1.523 . S
H1279 C1254 0.950 . S
H1280 C1256 0.950 . S
H1281 C1257 0.949 . S
H1282 C1259 0.950 . S
H1283 C1261 0.950 . S
C1284 C1285 1.349 . S
C1284 C1286 1.327 . S
C1284 H1309 0.950 . S
C1285 C1284 1.349 . S
C1285 C1301 1.349 . S
C1286 C1284 1.327 . S
C1286 C1305 1.429 . S
C1286 H1310 0.950 . S
C1287 C1304 1.574 . S
C1287 C1306 1.368 . S
C1287 H1311 0.949 . S
H1288 C1292 0.949 . S
C1289 C1290 1.349 . S
C1289 C1291 1.327 . S
C1289 H1312 0.950 . S
C1290 C1289 1.349 . S
C1290 C1302 1.349 . S
C1291 C1289 1.327 . S
C1291 C1307 1.429 1_554 S
C1291 H1313 0.950 . S
C1292 H1288 0.949 . S
C1292 C1300 1.574 . S
C1292 C1308 1.368 . S
H1293 C1301 0.950 . S
H1294 C1299 0.950 . S
H1295 C1300 0.949 . S
H1296 C1302 0.950 . S
H1297 C1303 0.950 . S
H1298 C1304 0.944 1_554 S
C1299 H1294 0.950 . S
C1299 C1301 1.327 . S
C1299 C1305 1.429 . S
C1300 C1292 1.574 . S
C1300 H1295 0.949 . S
C1300 C1306 1.368 . S
C1301 C1285 1.349 . S
C1301 H1293 0.950 . S
C1301 C1299 1.327 . S
C1302 C1290 1.349 . S
C1302 H1296 0.950 . S
C1302 C1303 1.327 1_554 S
C1303 H1297 0.950 . S
C1303 C1302 1.327 1_556 S
C1303 C1307 1.429 . S
C1304 C1287 1.574 . S
C1304 H1298 0.944 1_556 S
C1304 C1308 1.368 . S
C1305 C1286 1.429 . S
C1305 C1299 1.429 . S
C1305 C1306 1.523 . S
C1306 C1287 1.368 . S
C1306 C1300 1.368 . S
C1306 C1305 1.523 . S
C1307 C1291 1.429 1_556 S
C1307 C1303 1.429 . S
C1307 C1308 1.523 . S
C1308 C1292 1.368 . S
C1308 C1304 1.368 . S
C1308 C1307 1.523 . S
H1309 C1284 0.950 . S
H1310 C1286 0.950 . S
H1311 C1287 0.949 . S
H1312 C1289 0.950 . S
H1313 C1291 0.950 . S
C1314 C1315 1.349 . S
C1314 C1316 1.327 . S
C1314 H1339 0.950 . S
C1315 C1314 1.349 . S
C1315 C1331 1.349 . S
C1316 C1314 1.327 . S
C1316 C1335 1.429 . S
C1316 H1340 0.950 . S
C1317 C1334 1.574 . S
C1317 C1336 1.368 . S
C1317 H1341 0.949 . S
H1318 C1322 0.949 . S
C1319 C1320 1.349 . S
C1319 C1321 1.327 1_556 S
C1319 H1342 0.950 . S
C1320 C1319 1.349 . S
C1320 C1332 1.349 . S
C1321 C1319 1.327 1_554 S
C1321 C1337 1.429 . S
C1321 H1343 0.950 . S
C1322 H1318 0.949 . S
C1322 C1330 1.574 . S
C1322 C1338 1.368 . S
H1323 C1331 0.950 . S
H1324 C1329 0.950 . S
H1325 C1330 0.949 . S
H1326 C1332 0.950 . S
H1327 C1333 0.950 . S
H1328 C1334 0.949 . S
C1329 H1324 0.950 . S
C1329 C1331 1.327 . S
C1329 C1335 1.429 . S
C1330 C1322 1.574 . S
C1330 H1325 0.949 . S
C1330 C1336 1.368 . S
C1331 C1315 1.349 . S
C1331 H1323 0.950 . S
C1331 C1329 1.327 . S
C1332 C1320 1.349 . S
C1332 H1326 0.950 . S
C1332 C1333 1.327 1_556 S
C1333 H1327 0.950 . S
C1333 C1332 1.327 1_554 S
C1333 C1337 1.429 . S
C1334 C1317 1.574 . S
C1334 H1328 0.949 . S
C1334 C1338 1.368 . S
C1335 C1316 1.429 . S
C1335 C1329 1.429 . S
C1335 C1336 1.523 . S
C1336 C1317 1.368 . S
C1336 C1330 1.368 . S
C1336 C1335 1.523 . S
C1337 C1321 1.429 . S
C1337 C1333 1.429 . S
C1337 C1338 1.523 . S
C1338 C1322 1.368 . S
C1338 C1334 1.368 . S
C1338 C1337 1.523 . S
H1339 C1314 0.950 . S
H1340 C1316 0.950 . S
H1341 C1317 0.949 . S
H1342 C1319 0.950 . S
H1343 C1321 0.950 . S
C265 C10 1.297 . S
C270 C21 1.319 . S
C295 C30 1.297 1_556 S
C300 C29 1.319 . S
C325 C65 1.319 . S
C330 C54 1.297 . S
C355 C74 1.297 . S
C360 C73 1.319 . S
C385 C103 1.319 . S
C390 C106 1.297 . S
C415 C118 1.297 . S
C420 C117 1.319 . S
C445 C140 1.297 1_554 S
C450 C139 1.319 . S
C475 C161 1.319 . S
C480 C162 1.297 . S
C505 C183 1.319 1_556 S
C510 C184 1.297 . S
C535 C205 1.319 . S
C540 C206 1.297 . S
C565 C228 1.297 . S
C570 C227 1.319 . S
C595 C249 1.319 . S
C600 C250 1.297 . S
C625 C8 1.391 . S
C630 C172 1.391 . S
C655 C194 1.391 . S
C660 C40 1.391 . S
C685 C216 1.391 . S
C690 C52 1.391 . S
C715 C84 1.391 . S
C720 C238 1.391 . S
C745 C98 1.390 . S
C750 C260 1.390 . S
C775 C128 1.391 . S
C780 C150 1.391 . S
C805 C18 1.029 . S
C810 C230 1.029 . S
C835 C32 1.029 . S
C840 C252 1.029 . S
C865 C142 1.029 . S
C870 C62 1.029 . S
C895 C76 1.029 . S
C900 C164 1.029 . S
C925 C96 1.029 . S
C930 C186 1.029 . S
C955 C208 1.029 . S
C960 C120 1.029 . S
C985 C15 1.042 . S
C990 C197 1.042 . S
C1015 C219 1.041 . S
C1020 C43 1.041 . S
C1045 C241 1.043 . S
C1050 C59 1.043 . S
C1075 C87 1.042 . S
C1080 C263 1.042 . S
C1105 C153 1.041 . S
C1110 C95 1.041 . S
C1135 C131 1.043 . S
C1140 C175 1.043 . S
C1165 C7 1.212 . S
C1170 C235 1.212 . S
C1195 C37 1.211 . S
C1200 C257 1.211 . S
C1225 C51 1.212 . S
C1230 C147 1.212 . S
C1255 C169 1.212 . S
C1260 C81 1.212 . S
C1285 C109 1.211 . S
C1290 C191 1.211 . S
C1315 C213 1.211 . S
C1320 C125 1.211 . S
