# Generated by pormake.
# Topology nfa, (4)-cn, num edge types: 1
# Building blocks:
#     Node 0, Type 0, BuildingBlock: KOZSID_clean_sbu_0, # of connection points: 4
#     Node 1, Type 0, BuildingBlock: KOZSID_clean_sbu_0, # of connection points: 4
#     Node 2, Type 0, BuildingBlock: KOZSID_clean_sbu_0, # of connection points: 4
#     Node 3, Type 0, BuildingBlock: KOZSID_clean_sbu_0, # of connection points: 4
#     Node 4, Type 0, BuildingBlock: KOZSID_clean_sbu_0, # of connection points: 4
#     Node 5, Type 0, BuildingBlock: KOZSID_clean_sbu_0, # of connection points: 4
#     Node 6, Type 0, BuildingBlock: KOZSID_clean_sbu_0, # of connection points: 4
#     Node 7, Type 0, BuildingBlock: KOZSID_clean_sbu_0, # of connection points: 4
#     Node 8, Type 0, BuildingBlock: KOZSID_clean_sbu_0, # of connection points: 4
#     Node 9, Type 0, BuildingBlock: KOZSID_clean_sbu_0, # of connection points: 4
#     Node 10, Type 0, BuildingBlock: KOZSID_clean_sbu_0, # of connection points: 4
#     Node 11, Type 0, BuildingBlock: KOZSID_clean_sbu_0, # of connection points: 4
#     Node 12, Type 0, BuildingBlock: KOZSID_clean_sbu_0, # of connection points: 4
#     Node 13, Type 0, BuildingBlock: KOZSID_clean_sbu_0, # of connection points: 4
#     Node 14, Type 0, BuildingBlock: KOZSID_clean_sbu_0, # of connection points: 4
#     Node 15, Type 0, BuildingBlock: KOZSID_clean_sbu_0, # of connection points: 4
#     Node 16, Type 0, BuildingBlock: KOZSID_clean_sbu_0, # of connection points: 4
#     Node 17, Type 0, BuildingBlock: KOZSID_clean_sbu_0, # of connection points: 4
#     Node 18, Type 0, BuildingBlock: KOZSID_clean_sbu_0, # of connection points: 4
#     Node 19, Type 0, BuildingBlock: KOZSID_clean_sbu_0, # of connection points: 4
#     Node 20, Type 0, BuildingBlock: KOZSID_clean_sbu_0, # of connection points: 4
#     Node 21, Type 0, BuildingBlock: KOZSID_clean_sbu_0, # of connection points: 4
#     Node 22, Type 0, BuildingBlock: KOZSID_clean_sbu_0, # of connection points: 4
#     Node 23, Type 0, BuildingBlock: KOZSID_clean_sbu_0, # of connection points: 4
#     Edge 24, Type (0, 0), BuildingBlock: XIVTED_clean_linker_0, # of connection points: 2
#     Edge 25, Type (0, 0), BuildingBlock: XIVTED_clean_linker_0, # of connection points: 2
#     Edge 26, Type (0, 0), BuildingBlock: XIVTED_clean_linker_0, # of connection points: 2
#     Edge 27, Type (0, 0), BuildingBlock: XIVTED_clean_linker_0, # of connection points: 2
#     Edge 28, Type (0, 0), BuildingBlock: XIVTED_clean_linker_0, # of connection points: 2
#     Edge 29, Type (0, 0), BuildingBlock: XIVTED_clean_linker_0, # of connection points: 2
#     Edge 30, Type (0, 0), BuildingBlock: XIVTED_clean_linker_0, # of connection points: 2
#     Edge 31, Type (0, 0), BuildingBlock: XIVTED_clean_linker_0, # of connection points: 2
#     Edge 32, Type (0, 0), BuildingBlock: XIVTED_clean_linker_0, # of connection points: 2
#     Edge 33, Type (0, 0), BuildingBlock: XIVTED_clean_linker_0, # of connection points: 2
#     Edge 34, Type (0, 0), BuildingBlock: XIVTED_clean_linker_0, # of connection points: 2
#     Edge 35, Type (0, 0), BuildingBlock: XIVTED_clean_linker_0, # of connection points: 2
#     Edge 36, Type (0, 0), BuildingBlock: XIVTED_clean_linker_0, # of connection points: 2
#     Edge 37, Type (0, 0), BuildingBlock: XIVTED_clean_linker_0, # of connection points: 2
#     Edge 38, Type (0, 0), BuildingBlock: XIVTED_clean_linker_0, # of connection points: 2
#     Edge 39, Type (0, 0), BuildingBlock: XIVTED_clean_linker_0, # of connection points: 2
#     Edge 40, Type (0, 0), BuildingBlock: XIVTED_clean_linker_0, # of connection points: 2
#     Edge 41, Type (0, 0), BuildingBlock: XIVTED_clean_linker_0, # of connection points: 2
#     Edge 42, Type (0, 0), BuildingBlock: XIVTED_clean_linker_0, # of connection points: 2
#     Edge 43, Type (0, 0), BuildingBlock: XIVTED_clean_linker_0, # of connection points: 2
#     Edge 44, Type (0, 0), BuildingBlock: XIVTED_clean_linker_0, # of connection points: 2
#     Edge 45, Type (0, 0), BuildingBlock: XIVTED_clean_linker_0, # of connection points: 2
#     Edge 46, Type (0, 0), BuildingBlock: XIVTED_clean_linker_0, # of connection points: 2
#     Edge 47, Type (0, 0), BuildingBlock: XIVTED_clean_linker_0, # of connection points: 2
#     Edge 48, Type (0, 0), BuildingBlock: XIVTED_clean_linker_0, # of connection points: 2
#     Edge 49, Type (0, 0), BuildingBlock: XIVTED_clean_linker_0, # of connection points: 2
#     Edge 50, Type (0, 0), BuildingBlock: XIVTED_clean_linker_0, # of connection points: 2
#     Edge 51, Type (0, 0), BuildingBlock: XIVTED_clean_linker_0, # of connection points: 2
#     Edge 52, Type (0, 0), BuildingBlock: XIVTED_clean_linker_0, # of connection points: 2
#     Edge 53, Type (0, 0), BuildingBlock: XIVTED_clean_linker_0, # of connection points: 2
#     Edge 54, Type (0, 0), BuildingBlock: XIVTED_clean_linker_0, # of connection points: 2
#     Edge 55, Type (0, 0), BuildingBlock: XIVTED_clean_linker_0, # of connection points: 2
#     Edge 56, Type (0, 0), BuildingBlock: XIVTED_clean_linker_0, # of connection points: 2
#     Edge 57, Type (0, 0), BuildingBlock: XIVTED_clean_linker_0, # of connection points: 2
#     Edge 58, Type (0, 0), BuildingBlock: XIVTED_clean_linker_0, # of connection points: 2
#     Edge 59, Type (0, 0), BuildingBlock: XIVTED_clean_linker_0, # of connection points: 2
#     Edge 60, Type (0, 0), BuildingBlock: XIVTED_clean_linker_0, # of connection points: 2
#     Edge 61, Type (0, 0), BuildingBlock: XIVTED_clean_linker_0, # of connection points: 2
#     Edge 62, Type (0, 0), BuildingBlock: XIVTED_clean_linker_0, # of connection points: 2
#     Edge 63, Type (0, 0), BuildingBlock: XIVTED_clean_linker_0, # of connection points: 2
#     Edge 64, Type (0, 0), BuildingBlock: XIVTED_clean_linker_0, # of connection points: 2
#     Edge 65, Type (0, 0), BuildingBlock: XIVTED_clean_linker_0, # of connection points: 2
#     Edge 66, Type (0, 0), BuildingBlock: XIVTED_clean_linker_0, # of connection points: 2
#     Edge 67, Type (0, 0), BuildingBlock: XIVTED_clean_linker_0, # of connection points: 2
#     Edge 68, Type (0, 0), BuildingBlock: XIVTED_clean_linker_0, # of connection points: 2
#     Edge 69, Type (0, 0), BuildingBlock: XIVTED_clean_linker_0, # of connection points: 2
#     Edge 70, Type (0, 0), BuildingBlock: XIVTED_clean_linker_0, # of connection points: 2
#     Edge 71, Type (0, 0), BuildingBlock: XIVTED_clean_linker_0, # of connection points: 2
# Relax obj value: 0.045
# Max RMSD: 0.140
# Mean RMSD: 0.108
data_MOF--net-nfa--node1-KOZSID_clean_sbu_0--edge1-XIVTED_clean_linker_0
_symmetry_space_group_name_H-M    P1
_symmetry_Int_Tables_number       1
_symmetry_cell_setting            triclinic
loop_
_symmetry_equiv_pos_as_xyz
'x, y, z'
_cell_length_a     49.510284
_cell_length_b     50.526595
_cell_length_c     51.429329
_cell_angle_alpha  89.032281
_cell_angle_beta   87.908597
_cell_angle_gamma 86.829941
loop_
_atom_site_label
_atom_site_type_symbol
_atom_site_fract_x
_atom_site_fract_y
_atom_site_fract_z
_atom_type_partial_charge
C0 C 0.05672 0.36827 0.36051 0.0
C1 C 0.03111 0.37348 0.37175 0.0
C2 C 0.03298 0.39452 0.38774 0.0
C3 C 0.0595 0.40096 0.3853 0.0
N4 N 0.07452 0.38579 0.36815 0.0
Co5 Co 0.11446 0.38681 0.36044 0.0
N6 N 0.11771 0.41674 0.38512 0.0
C7 C 0.09738 0.42932 0.39917 0.0
C8 C 0.10546 0.45007 0.41327 0.0
C9 C 0.13246 0.45127 0.40737 0.0
C10 C 0.13927 0.43114 0.38989 0.0
N11 N 0.15464 0.38681 0.35379 0.0
C12 C 0.17294 0.40347 0.3622 0.0
C13 C 0.19881 0.39671 0.3522 0.0
C14 C 0.19674 0.37517 0.33694 0.0
C15 C 0.16986 0.37003 0.33832 0.0
N16 N 0.11094 0.35794 0.33462 0.0
C17 C 0.13085 0.34706 0.31888 0.0
C18 C 0.12264 0.32718 0.30373 0.0
C19 C 0.09597 0.32492 0.31048 0.0
C20 C 0.08938 0.3437 0.32942 0.0
N21 N 0.10854 0.41358 0.3323 0.0
C22 C 0.10336 0.45494 0.2951 0.0
C23 C 0.12339 0.4345 0.29205 0.0
C24 C 0.12546 0.41408 0.31062 0.0
C25 C 0.0853 0.45365 0.31651 0.0
C26 C 0.08824 0.43303 0.3347 0.0
N27 N 0.12019 0.36007 0.38868 0.0
C28 C 0.13216 0.31501 0.40227 0.0
C29 C 0.12086 0.31969 0.4272 0.0
C30 C 0.11082 0.34542 0.43287 0.0
C31 C 0.11055 0.36505 0.41352 0.0
C32 C 0.13197 0.33542 0.38357 0.0
H33 H 0.10185 0.38391 0.41908 0.0
H34 H 0.14083 0.33056 0.36493 0.0
H35 H 0.14127 0.39921 0.30728 0.0
H36 H 0.07406 0.43357 0.35073 0.0
C37 C 0.07098 0.42096 0.3989 0.0
C38 C 0.06341 0.34559 0.34382 0.0
C39 C 0.1663 0.42705 0.3778 0.0
C40 C 0.15777 0.35267 0.32208 0.0
H41 H 0.01312 0.36272 0.36911 0.0
H42 H 0.01706 0.40368 0.4001 0.0
H43 H 0.09312 0.46298 0.42605 0.0
H44 H 0.14558 0.4656 0.4148 0.0
H45 H 0.21719 0.40685 0.35461 0.0
H46 H 0.21265 0.36544 0.325 0.0
H47 H 0.13499 0.31465 0.29061 0.0
H48 H 0.08333 0.31018 0.30312 0.0
H49 H 0.13793 0.43456 0.2758 0.0
H50 H 0.06895 0.46857 0.3194 0.0
H51 H 0.14037 0.29551 0.39678 0.0
H52 H 0.1028 0.35048 0.45213 0.0
C53 C 0.8854 0.80169 0.61574 0.0
C54 C 0.87922 0.77635 0.62389 0.0
C55 C 0.85838 0.77928 0.64193 0.0
C56 C 0.85307 0.80613 0.6437 0.0
N57 N 0.86874 0.82048 0.62733 0.0
Co58 Co 0.86983 0.86 0.62517 0.0
N59 N 0.84073 0.86459 0.65321 0.0
C60 C 0.82802 0.84525 0.66647 0.0
C61 C 0.80681 0.85457 0.68226 0.0
C62 C 0.8053 0.88138 0.67819 0.0
C63 C 0.82589 0.88686 0.66021 0.0
N64 N 0.87159 0.89943 0.62365 0.0
C65 C 0.85467 0.9182 0.6348 0.0
C66 C 0.86229 0.94356 0.62843 0.0
C67 C 0.88444 0.94065 0.61187 0.0
C68 C 0.88904 0.91378 0.60921 0.0
N69 N 0.89806 0.85565 0.59636 0.0
C70 C 0.90995 0.87519 0.58259 0.0
C71 C 0.9292 0.86604 0.56465 0.0
C72 C 0.93009 0.83912 0.56751 0.0
C73 C 0.91119 0.83334 0.58712 0.0
N74 N 0.84129 0.86203 0.59914 0.0
C75 C 0.79906 0.86742 0.56398 0.0
C76 C 0.82178 0.88254 0.56094 0.0
C77 C 0.84246 0.87957 0.5786 0.0
C78 C 0.79806 0.84924 0.5847 0.0
C79 C 0.81927 0.84682 0.60185 0.0
N80 N 0.89849 0.85788 0.65127 0.0
C81 C 0.94477 0.86387 0.66234 0.0
C82 C 0.94122 0.85006 0.68587 0.0
C83 C 0.9156 0.84096 0.6921 0.0
C84 C 0.89477 0.84495 0.67466 0.0
C85 C 0.92328 0.86781 0.64569 0.0
H86 H 0.87597 0.83708 0.68046 0.0
H87 H 0.92749 0.87852 0.62819 0.0
H88 H 0.85907 0.89188 0.57538 0.0
H89 H 0.81722 0.83276 0.61735 0.0
C90 C 0.83458 0.8185 0.66145 0.0
C91 C 0.90865 0.80696 0.59862 0.0
C92 C 0.82919 0.91289 0.64828 0.0
C93 C 0.9058 0.90172 0.58986 0.0
H94 H 0.88942 0.75778 0.61804 0.0
H95 H 0.84893 0.76375 0.65311 0.0
H96 H 0.79309 0.8431 0.69414 0.0
H97 H 0.79003 0.89508 0.68664 0.0
H98 H 0.85181 0.96212 0.63387 0.0
H99 H 0.89461 0.95625 0.60145 0.0
H100 H 0.9423 0.87761 0.55218 0.0
H101 H 0.94413 0.82555 0.55719 0.0
H102 H 0.82378 0.89652 0.54488 0.0
H103 H 0.7808 0.83718 0.58798 0.0
H104 H 0.9642 0.87122 0.65637 0.0
H105 H 0.91149 0.83076 0.71039 0.0
C106 C 0.45728 0.59267 0.91236 0.0
C107 C 0.47781 0.57809 0.92458 0.0
C108 C 0.46549 0.56009 0.9405 0.0
C109 C 0.43826 0.56484 0.93711 0.0
N110 N 0.43256 0.5843 0.91943 0.0
Co111 Co 0.39601 0.5999 0.91007 0.0
N112 N 0.37775 0.5773 0.93697 0.0
C113 C 0.3896 0.55988 0.95389 0.0
C114 C 0.37139 0.54625 0.9689 0.0
C115 C 0.3465 0.55507 0.96063 0.0
C116 C 0.35107 0.57367 0.94108 0.0
N117 N 0.35961 0.61561 0.90069 0.0
C118 C 0.33485 0.60865 0.90919 0.0
C119 C 0.31436 0.6239 0.89758 0.0
C120 C 0.32672 0.64081 0.88054 0.0
C121 C 0.35391 0.63484 0.88277 0.0
N122 N 0.41419 0.62248 0.88322 0.0
C123 C 0.40246 0.63974 0.86608 0.0
C124 C 0.42076 0.65296 0.85078 0.0
C125 C 0.44556 0.64413 0.8592 0.0
C126 C 0.44083 0.626 0.87916 0.0
N127 N 0.39296 0.5717 0.88393 0.0
C128 C 0.38856 0.53164 0.84688 0.0
C129 C 0.38139 0.55814 0.84097 0.0
C130 C 0.38375 0.57764 0.85958 0.0
C131 C 0.39767 0.52553 0.87177 0.0
C132 C 0.39958 0.54563 0.88984 0.0
N133 N 0.39898 0.62806 0.93622 0.0
C134 C 0.39164 0.67372 0.94949 0.0
C135 C 0.40153 0.66766 0.97416 0.0
C136 C 0.41088 0.64146 0.97907 0.0
C137 C 0.40918 0.62218 0.96016 0.0
C138 C 0.3909 0.65391 0.93091 0.0
H139 H 0.41626 0.60262 0.96541 0.0
H140 H 0.38361 0.66 0.91241 0.0
H141 H 0.37795 0.59738 0.85379 0.0
H142 H 0.40633 0.53954 0.9085 0.0
C143 C 0.41767 0.55445 0.95294 0.0
C144 C 0.46164 0.61618 0.89658 0.0
C145 C 0.32991 0.5852 0.9249 0.0
C146 C 0.37443 0.64521 0.86688 0.0
H147 H 0.49929 0.58107 0.92307 0.0
H148 H 0.47513 0.54643 0.95418 0.0
H149 H 0.37572 0.53071 0.98314 0.0
H150 H 0.32727 0.54785 0.9674 0.0
H151 H 0.29276 0.62192 0.90021 0.0
H152 H 0.31703 0.65482 0.86721 0.0
H153 H 0.41653 0.66832 0.83634 0.0
H154 H 0.46488 0.65136 0.85265 0.0
H155 H 0.37439 0.56395 0.82189 0.0
H156 H 0.40302 0.50523 0.87747 0.0
H157 H 0.38397 0.69356 0.94448 0.0
H158 H 0.41958 0.63564 0.99745 0.0
C159 C 0.60215 0.19172 0.12431 0.0
C160 C 0.61114 0.21563 0.13252 0.0
C161 C 0.63172 0.20953 0.14891 0.0
C162 C 0.63417 0.18237 0.14967 0.0
N163 N 0.61667 0.17076 0.1344 0.0
Co164 Co 0.61283 0.13183 0.1299 0.0
N165 N 0.64128 0.12282 0.1558 0.0
C166 C 0.65437 0.13983 0.17027 0.0
C167 C 0.67334 0.12756 0.18583 0.0
C168 C 0.67278 0.10122 0.18051 0.0
C169 C 0.65352 0.09903 0.16186 0.0
N170 N 0.60939 0.09282 0.12514 0.0
C171 C 0.62539 0.07202 0.13359 0.0
C172 C 0.61737 0.04818 0.12417 0.0
C173 C 0.59582 0.05416 0.10898 0.0
C174 C 0.59201 0.08118 0.1098 0.0
N175 N 0.58412 0.14084 0.10416 0.0
C176 C 0.57001 0.12365 0.09088 0.0
C177 C 0.55069 0.13565 0.07561 0.0
C178 C 0.55216 0.1621 0.07971 0.0
C179 C 0.57251 0.16472 0.09725 0.0
N180 N 0.64114 0.13154 0.10151 0.0
C181 C 0.68164 0.13065 0.06144 0.0
C182 C 0.65709 0.11893 0.05821 0.0
C183 C 0.6373 0.11959 0.07831 0.0
C184 C 0.68557 0.14271 0.08515 0.0
C185 C 0.66527 0.1429 0.10474 0.0
N186 N 0.58444 0.13223 0.15836 0.0
C187 C 0.54042 0.12031 0.17541 0.0
C188 C 0.54315 0.13512 0.19777 0.0
C189 C 0.56706 0.14815 0.20019 0.0
C190 C 0.58722 0.14642 0.1805 0.0
C191 C 0.56111 0.11915 0.15613 0.0
H192 H 0.60477 0.15693 0.18363 0.0
H193 H 0.55757 0.1078 0.1395 0.0
H194 H 0.61908 0.11027 0.07463 0.0
H195 H 0.66966 0.1522 0.12239 0.0
C196 C 0.65085 0.16724 0.1663 0.0
C197 C 0.57859 0.18997 0.10842 0.0
C198 C 0.64967 0.07445 0.14846 0.0
C199 C 0.57432 0.0963 0.09426 0.0
H200 H 0.60303 0.23538 0.12775 0.0
H201 H 0.64285 0.22323 0.15975 0.0
H202 H 0.68699 0.13679 0.19845 0.0
H203 H 0.68594 0.0855 0.18842 0.0
H204 H 0.6266 0.02852 0.12697 0.0
H205 H 0.58513 0.04057 0.09759 0.0
H206 H 0.5366 0.12624 0.06361 0.0
H207 H 0.53908 0.17753 0.0713 0.0
H208 H 0.65293 0.10955 0.04011 0.0
H209 H 0.70441 0.15169 0.0888 0.0
H210 H 0.52218 0.11001 0.17249 0.0
H211 H 0.57041 0.15951 0.21734 0.0
C212 C 0.10958 0.63091 0.17138 0.0
C213 C 0.11899 0.64095 0.19406 0.0
C214 C 0.13934 0.65701 0.1867 0.0
C215 C 0.14119 0.65579 0.16006 0.0
N216 N 0.12272 0.64046 0.15 0.0
Co217 Co 0.11905 0.63127 0.11259 0.0
N218 N 0.15265 0.6496 0.10224 0.0
C219 C 0.16963 0.6612 0.11805 0.0
C220 C 0.19076 0.67254 0.10489 0.0
C221 C 0.18661 0.66846 0.07916 0.0
C222 C 0.16308 0.65491 0.0782 0.0
N223 N 0.11498 0.62263 0.07509 0.0
C224 C 0.12857 0.63165 0.05369 0.0
C225 C 0.11818 0.62252 0.03099 0.0
C226 C 0.09694 0.60764 0.03833 0.0
C227 C 0.09547 0.60862 0.06494 0.0
N228 N 0.08588 0.61229 0.12312 0.0
C229 C 0.06933 0.59986 0.10757 0.0
C230 C 0.04934 0.587 0.12096 0.0
C231 C 0.05399 0.59074 0.14662 0.0
C232 C 0.07655 0.60573 0.14726 0.0
N233 N 0.09694 0.66481 0.10721 0.0
C234 C 0.06487 0.71228 0.10129 0.0
C235 C 0.05599 0.68815 0.09299 0.0
C236 C 0.07225 0.66489 0.09599 0.0
C237 C 0.09046 0.71232 0.11183 0.0
C238 C 0.10599 0.68861 0.11458 0.0
N239 N 0.14117 0.59782 0.1181 0.0
C240 C 0.1501 0.5508 0.11136 0.0
C241 C 0.17219 0.55046 0.12753 0.0
C242 C 0.17848 0.57415 0.13881 0.0
C243 C 0.16296 0.59736 0.13379 0.0
C244 C 0.13484 0.57452 0.10708 0.0
H245 H 0.16904 0.61466 0.14292 0.0
H246 H 0.11793 0.57349 0.09497 0.0
H247 H 0.0643 0.64722 0.08926 0.0
H248 H 0.12523 0.69013 0.12277 0.0
C249 C 0.16302 0.66434 0.14459 0.0
C250 C 0.09084 0.60979 0.17089 0.0
C251 C 0.14928 0.65105 0.05417 0.0
C252 C 0.07474 0.59854 0.08075 0.0
H253 H 0.11285 0.63606 0.21388 0.0
H254 H 0.15255 0.66674 0.19937 0.0
H255 H 0.20634 0.68385 0.11291 0.0
H256 H 0.19853 0.67594 0.06286 0.0
H257 H 0.12447 0.62687 0.01112 0.0
H258 H 0.08341 0.59828 0.02571 0.0
H259 H 0.03419 0.57507 0.11305 0.0
H260 H 0.04311 0.58216 0.16306 0.0
H261 H 0.03625 0.68699 0.0848 0.0
H262 H 0.09857 0.73058 0.118 0.0
H263 H 0.14443 0.53282 0.1023 0.0
H264 H 0.19572 0.57497 0.1511 0.0
C265 C 0.65126 0.89804 0.41302 0.0
C266 C 0.6382 0.91204 0.43328 0.0
C267 C 0.61897 0.92869 0.42239 0.0
C268 C 0.62133 0.92392 0.39623 0.0
N269 N 0.64066 0.9049 0.38981 0.0
Co270 Co 0.65166 0.89252 0.35399 0.0
N271 N 0.62262 0.91599 0.33815 0.0
C272 C 0.60459 0.933 0.35042 0.0
C273 C 0.58532 0.9441 0.33442 0.0
C274 C 0.59082 0.93268 0.31076 0.0
C275 C 0.61324 0.91544 0.31381 0.0
N276 N 0.6632 0.8811 0.318 0.0
C277 C 0.64988 0.88473 0.29562 0.0
C278 C 0.66392 0.87264 0.27484 0.0
C279 C 0.68664 0.86023 0.28471 0.0
C280 C 0.6851 0.86545 0.31084 0.0
N281 N 0.67986 0.86793 0.36969 0.0
C282 C 0.69766 0.85108 0.35682 0.0
C283 C 0.71449 0.83655 0.37284 0.0
C284 C 0.70711 0.84467 0.39737 0.0
C285 C 0.68604 0.8638 0.39492 0.0
N286 N 0.62585 0.86386 0.35687 0.0
C287 C 0.58801 0.82421 0.35905 0.0
C288 C 0.61282 0.82018 0.3455 0.0
C289 C 0.63152 0.83998 0.345 0.0
C290 C 0.58264 0.84815 0.37186 0.0
C291 C 0.60154 0.86767 0.37029 0.0
N292 N 0.67766 0.92136 0.35138 0.0
C293 C 0.7237 0.93549 0.34786 0.0
C294 C 0.71503 0.96145 0.35412 0.0
C295 C 0.68728 0.96725 0.35768 0.0
C296 C 0.66916 0.94719 0.35607 0.0
C297 C 0.70485 0.91595 0.34658 0.0
H298 H 0.64843 0.95315 0.3592 0.0
H299 H 0.71293 0.89653 0.34224 0.0
H300 H 0.65035 0.83568 0.3347 0.0
H301 H 0.59579 0.88589 0.37964 0.0
C302 C 0.60491 0.93607 0.37738 0.0
C303 C 0.67401 0.87895 0.41678 0.0
C304 C 0.62223 0.8958 0.29459 0.0
C305 C 0.69983 0.85125 0.32963 0.0
H306 H 0.64229 0.91045 0.45379 0.0
H307 H 0.60489 0.94256 0.43236 0.0
H308 H 0.56832 0.95757 0.33972 0.0
H309 H 0.57881 0.93534 0.29363 0.0
H310 H 0.65769 0.87146 0.255 0.0
H311 H 0.70121 0.84704 0.27448 0.0
H312 H 0.73084 0.82243 0.36729 0.0
H313 H 0.71681 0.83782 0.41493 0.0
H314 H 0.61787 0.80174 0.33555 0.0
H315 H 0.56355 0.85214 0.38242 0.0
H316 H 0.74503 0.93001 0.34483 0.0
H317 H 0.67948 0.98724 0.36189 0.0
C318 C 0.36191 0.37334 0.71024 0.0
C319 C 0.35051 0.36545 0.73397 0.0
C320 C 0.33426 0.34534 0.72892 0.0
C321 C 0.33671 0.34209 0.70251 0.0
N322 N 0.35398 0.35856 0.69042 0.0
Co323 Co 0.36241 0.36168 0.65202 0.0
N324 N 0.33629 0.33417 0.64422 0.0
C325 C 0.32018 0.32133 0.66148 0.0
C326 C 0.30523 0.30278 0.65038 0.0
C327 C 0.31261 0.3034 0.62456 0.0
C328 C 0.3318 0.3223 0.62144 0.0
N329 N 0.3708 0.36483 0.6136 0.0
C330 C 0.36293 0.35005 0.59374 0.0
C331 C 0.37469 0.35785 0.5701 0.0
C332 C 0.39077 0.37804 0.57523 0.0
C333 C 0.38806 0.38135 0.60158 0.0
N334 N 0.3886 0.38915 0.65985 0.0
C335 C 0.40459 0.40206 0.64256 0.0
C336 C 0.41955 0.42065 0.65359 0.0
C337 C 0.41234 0.41994 0.67943 0.0
C338 C 0.39335 0.40084 0.68266 0.0
N339 N 0.3916 0.33323 0.65464 0.0
C340 C 0.43044 0.29014 0.65371 0.0
C341 C 0.4353 0.31384 0.64032 0.0
C342 C 0.41589 0.33502 0.64125 0.0
C343 C 0.40628 0.28894 0.6685 0.0
C344 C 0.38734 0.31043 0.66862 0.0
N345 N 0.33314 0.39005 0.64936 0.0
C346 C 0.31709 0.43359 0.63438 0.0
C347 C 0.29256 0.43165 0.64853 0.0
C348 C 0.28866 0.40822 0.66269 0.0
C349 C 0.30883 0.38782 0.66257 0.0
C350 C 0.33695 0.41285 0.63521 0.0
H351 H 0.30435 0.3706 0.67367 0.0
H352 H 0.35531 0.41583 0.6244 0.0
H353 H 0.42075 0.35242 0.63051 0.0
H354 H 0.36919 0.30787 0.67982 0.0
C355 C 0.32135 0.32544 0.68824 0.0
C356 C 0.37896 0.39586 0.70735 0.0
C357 C 0.34624 0.32719 0.59674 0.0
C358 C 0.40337 0.39795 0.61587 0.0
H359 H 0.35311 0.37392 0.75285 0.0
H360 H 0.32139 0.33503 0.74271 0.0
H361 H 0.29139 0.28964 0.66005 0.0
H362 H 0.30534 0.29082 0.60978 0.0
H363 H 0.37273 0.34927 0.55119 0.0
H364 H 0.40383 0.38825 0.56154 0.0
H365 H 0.43323 0.4339 0.64385 0.0
H366 H 0.41957 0.43268 0.69407 0.0
H367 H 0.45364 0.31592 0.62852 0.0
H368 H 0.40179 0.27142 0.67991 0.0
H369 H 0.32107 0.451 0.62259 0.0
H370 H 0.27033 0.40564 0.67436 0.0
C371 C 0.85002 0.11613 0.92059 0.0
C372 C 0.85665 0.10272 0.94347 0.0
C373 C 0.88109 0.08958 0.93877 0.0
C374 C 0.88802 0.09579 0.91346 0.0
N375 N 0.8696 0.11227 0.90169 0.0
Co376 Co 0.87167 0.12633 0.86493 0.0
N377 N 0.9071 0.10598 0.85768 0.0
C378 C 0.92077 0.08963 0.87437 0.0
C379 C 0.94503 0.07935 0.86435 0.0
C380 C 0.94717 0.08983 0.83983 0.0
C381 C 0.92385 0.10586 0.83619 0.0
N382 N 0.87389 0.1406 0.82826 0.0
C383 C 0.89365 0.13704 0.80948 0.0
C384 C 0.88706 0.15061 0.78666 0.0
C385 C 0.86261 0.1637 0.79135 0.0
C386 C 0.85557 0.1573 0.81658 0.0
N387 N 0.83614 0.1465 0.87211 0.0
C388 C 0.82217 0.16243 0.85529 0.0
C389 C 0.79802 0.17287 0.86545 0.0
C390 C 0.79627 0.16289 0.8902 0.0
C391 C 0.81964 0.14695 0.89377 0.0
N392 N 0.89141 0.15678 0.87646 0.0
C393 C 0.92476 0.19856 0.88528 0.0
C394 C 0.90099 0.20293 0.87173 0.0
C395 C 0.8846 0.18194 0.86775 0.0
C396 C 0.93039 0.17351 0.89622 0.0
C397 C 0.91346 0.15306 0.8917 0.0
N398 N 0.852 0.09584 0.85324 0.0
C399 C 0.8161 0.07847 0.82915 0.0
C400 C 0.82139 0.0532 0.83976 0.0
C401 C 0.84301 0.0494 0.85637 0.0
C402 C 0.85801 0.07078 0.86267 0.0
C403 C 0.8315 0.09932 0.83611 0.0
H404 H 0.87398 0.06662 0.87563 0.0
H405 H 0.82611 0.11811 0.82768 0.0
H406 H 0.86707 0.18638 0.85681 0.0
H407 H 0.91922 0.13424 0.89992 0.0
C408 C 0.9112 0.08572 0.89994 0.0
C409 C 0.82474 0.13195 0.91774 0.0
C410 C 0.9191 0.12142 0.81241 0.0
C411 C 0.83203 0.16681 0.82989 0.0
H412 H 0.84492 0.10229 0.96163 0.0
H413 H 0.89231 0.07676 0.95211 0.0
H414 H 0.9598 0.0664 0.87401 0.0
H415 H 0.96433 0.08648 0.82645 0.0
H416 H 0.89879 0.15115 0.76851 0.0
H417 H 0.85138 0.17652 0.77802 0.0
H418 H 0.78325 0.18588 0.85586 0.0
H419 H 0.77947 0.16664 0.90394 0.0
H420 H 0.89545 0.22229 0.86354 0.0
H421 H 0.94854 0.16927 0.90704 0.0
H422 H 0.7999 0.08229 0.81576 0.0
H423 H 0.84781 0.03023 0.8653 0.0
C424 C 0.29841 0.11598 0.41281 0.0
C425 C 0.27164 0.12281 0.40738 0.0
C426 C 0.27209 0.13837 0.38543 0.0
C427 C 0.29899 0.13997 0.37862 0.0
N428 N 0.31571 0.12603 0.39468 0.0
Co429 Co 0.35623 0.12273 0.39188 0.0
N430 N 0.35707 0.14803 0.3614 0.0
C431 C 0.33575 0.16187 0.35115 0.0
C432 C 0.34257 0.17688 0.32969 0.0
C433 C 0.36979 0.17196 0.32572 0.0
C434 C 0.37801 0.15416 0.34508 0.0
N435 N 0.39672 0.11862 0.38838 0.0
C436 C 0.41365 0.12701 0.36906 0.0
C437 C 0.44032 0.11842 0.373 0.0
C438 C 0.44016 0.1034 0.39528 0.0
C439 C 0.41352 0.10371 0.40359 0.0
N440 N 0.3555 0.09815 0.42295 0.0
C441 C 0.37714 0.0863 0.43467 0.0
C442 C 0.37059 0.07237 0.45686 0.0
C443 C 0.34317 0.07592 0.45986 0.0
C444 C 0.33448 0.09172 0.43908 0.0
N445 N 0.35414 0.09253 0.36794 0.0
C446 C 0.35443 0.05086 0.33201 0.0
C447 C 0.36854 0.048 0.35505 0.0
C448 C 0.36817 0.06888 0.37254 0.0
C449 C 0.3395 0.07473 0.32771 0.0
C450 C 0.33954 0.09505 0.34581 0.0
N451 N 0.35822 0.15298 0.41596 0.0
C452 C 0.37741 0.17231 0.45339 0.0
C453 C 0.35712 0.1927 0.45413 0.0
C454 C 0.33815 0.19348 0.43461 0.0
C455 C 0.3392 0.17377 0.41579 0.0
C456 C 0.37757 0.15288 0.43436 0.0
H457 H 0.32399 0.17548 0.40167 0.0
H458 H 0.39333 0.13775 0.43528 0.0
H459 H 0.37968 0.06554 0.3895 0.0
H460 H 0.32798 0.11282 0.34121 0.0
C461 C 0.30926 0.15685 0.35932 0.0
C462 C 0.3064 0.10152 0.43634 0.0
C463 C 0.40522 0.14171 0.34588 0.0
C464 C 0.40346 0.08932 0.42485 0.0
H465 H 0.2537 0.11779 0.41866 0.0
H466 H 0.25493 0.14828 0.37622 0.0
H467 H 0.3291 0.18866 0.31741 0.0
H468 H 0.38194 0.17965 0.3097 0.0
H469 H 0.45791 0.12204 0.3606 0.0
H470 H 0.45728 0.0928 0.40393 0.0
H471 H 0.38421 0.06157 0.46974 0.0
H472 H 0.33118 0.0683 0.476 0.0
H473 H 0.37995 0.02972 0.35966 0.0
H474 H 0.32837 0.0781 0.31011 0.0
H475 H 0.39311 0.17115 0.46754 0.0
H476 H 0.32195 0.20877 0.43421 0.0
C477 C 0.17937 0.1092 0.61213 0.0
C478 C 0.2035 0.12059 0.61704 0.0
C479 C 0.1983 0.13697 0.63766 0.0
C480 C 0.17142 0.1346 0.64412 0.0
N481 N 0.15931 0.11712 0.62936 0.0
Co482 Co 0.12002 0.10937 0.63041 0.0
N483 N 0.11164 0.13516 0.65932 0.0
C484 C 0.12946 0.14983 0.67128 0.0
C485 C 0.11839 0.16374 0.69204 0.0
C486 C 0.09205 0.15713 0.69389 0.0
C487 C 0.08847 0.13967 0.67387 0.0
N488 N 0.0806 0.10239 0.63069 0.0
C489 C 0.06012 0.11119 0.64704 0.0
C490 C 0.03553 0.10188 0.6402 0.0
C491 C 0.04085 0.08594 0.61927 0.0
C492 C 0.06821 0.08662 0.6144 0.0
N493 N 0.12854 0.08272 0.60235 0.0
C494 C 0.11108 0.06668 0.59171 0.0
C495 C 0.12258 0.05117 0.57225 0.0
C496 C 0.14883 0.05804 0.56997 0.0
C497 C 0.15185 0.07743 0.58831 0.0
N498 N 0.12611 0.08107 0.65706 0.0
C499 C 0.13129 0.04305 0.69756 0.0
C500 C 0.11499 0.03898 0.67651 0.0
C501 C 0.11268 0.05809 0.65666 0.0
C502 C 0.14553 0.06616 0.69752 0.0
C503 C 0.14286 0.08458 0.67719 0.0
N504 N 0.11401 0.13774 0.60373 0.0
C505 C 0.10298 0.15112 0.55983 0.0
C506 C 0.11123 0.17658 0.564 0.0
C507 C 0.11994 0.18266 0.58854 0.0
C508 C 0.12134 0.16305 0.60793 0.0
C509 C 0.10409 0.13225 0.57997 0.0
H510 H 0.12899 0.16878 0.62592 0.0
H511 H 0.09723 0.11326 0.57566 0.0
H512 H 0.09962 0.05402 0.64138 0.0
H513 H 0.15416 0.10176 0.6785 0.0
C514 C 0.15676 0.14914 0.66326 0.0
C515 C 0.17613 0.09235 0.58985 0.0
C516 C 0.06331 0.12657 0.67036 0.0
C517 C 0.08328 0.06994 0.59729 0.0
H518 H 0.22264 0.11789 0.60629 0.0
H519 H 0.21222 0.1497 0.64638 0.0
H520 H 0.12851 0.17643 0.70487 0.0
H521 H 0.07748 0.16387 0.70883 0.0
H522 H 0.01598 0.10543 0.65001 0.0
H523 H 0.02668 0.07421 0.6096 0.0
H524 H 0.11265 0.03775 0.56001 0.0
H525 H 0.16355 0.05052 0.55552 0.0
H526 H 0.10397 0.02114 0.67529 0.0
H527 H 0.15823 0.07051 0.71344 0.0
H528 H 0.09568 0.14581 0.54111 0.0
H529 H 0.1265 0.20225 0.59252 0.0
C530 C 0.12826 0.912 0.86786 0.0
C531 C 0.10922 0.93244 0.87366 0.0
C532 C 0.09294 0.9234 0.89347 0.0
C533 C 0.10298 0.8981 0.89861 0.0
N534 N 0.12505 0.8906 0.88367 0.0
Co535 Co 0.14495 0.85492 0.88331 0.0
N536 N 0.12009 0.84106 0.91139 0.0
C537 C 0.09914 0.85453 0.92378 0.0
C538 C 0.08625 0.83995 0.94266 0.0
C539 C 0.10015 0.81588 0.94278 0.0
C540 C 0.12087 0.81727 0.92394 0.0
N541 N 0.16419 0.81892 0.88217 0.0
C542 C 0.16058 0.79711 0.89734 0.0
C543 C 0.17891 0.77638 0.8904 0.0
C544 C 0.19459 0.78541 0.87018 0.0
C545 C 0.18515 0.81105 0.86599 0.0
N546 N 0.17052 0.86913 0.85598 0.0
C547 C 0.19245 0.85612 0.8448 0.0
C548 C 0.2058 0.87082 0.82634 0.0
C549 C 0.19137 0.89456 0.82541 0.0
C550 C 0.16996 0.89297 0.8435 0.0
N551 N 0.16912 0.86591 0.91059 0.0
C552 C 0.20271 0.87855 0.95109 0.0
C553 C 0.21296 0.86377 0.92986 0.0
C554 C 0.19599 0.85781 0.90998 0.0
C555 C 0.17553 0.88751 0.95133 0.0
C556 C 0.15924 0.88105 0.93104 0.0
N557 N 0.12072 0.84401 0.85603 0.0
C558 C 0.11405 0.83092 0.81182 0.0
C559 C 0.08605 0.83404 0.81571 0.0
C560 C 0.07562 0.84107 0.84031 0.0
C561 C 0.09316 0.84607 0.85998 0.0
C562 C 0.13091 0.83558 0.83225 0.0
H563 H 0.08385 0.85229 0.87796 0.0
H564 H 0.1521 0.83279 0.82813 0.0
H565 H 0.20499 0.8462 0.89456 0.0
H566 H 0.13866 0.88826 0.93255 0.0
C567 C 0.09188 0.88077 0.91697 0.0
C568 C 0.1483 0.91355 0.84653 0.0
C569 C 0.14144 0.79586 0.91952 0.0
C570 C 0.19784 0.82913 0.84954 0.0
H571 H 0.10706 0.9517 0.8642 0.0
H572 H 0.07555 0.93383 0.90268 0.0
H573 H 0.06898 0.84615 0.95504 0.0
H574 H 0.09579 0.7993 0.95556 0.0
H575 H 0.18148 0.75701 0.89949 0.0
H576 H 0.21172 0.77496 0.86056 0.0
H577 H 0.22314 0.86455 0.81408 0.0
H578 H 0.19563 0.91071 0.81211 0.0
H579 H 0.23383 0.85609 0.92889 0.0
H580 H 0.16674 0.89939 0.96715 0.0
H581 H 0.1229 0.8252 0.79302 0.0
H582 H 0.05398 0.84388 0.84407 0.0
C583 C 0.39065 0.90827 0.1792 0.0
C584 C 0.40632 0.93011 0.17552 0.0
C585 C 0.42835 0.92205 0.16024 0.0
C586 C 0.42485 0.89592 0.15523 0.0
N587 N 0.40172 0.88712 0.16603 0.0
Co588 Co 0.38929 0.85055 0.16363 0.0
N589 N 0.4148 0.84246 0.13376 0.0
C590 C 0.43685 0.85571 0.12689 0.0
C591 C 0.4508 0.84526 0.10555 0.0
C592 C 0.43664 0.82406 0.09862 0.0
C593 C 0.41471 0.82287 0.11614 0.0
N594 N 0.37733 0.81382 0.16132 0.0
C595 C 0.38015 0.79673 0.14126 0.0
C596 C 0.36736 0.7735 0.14731 0.0
C597 C 0.35683 0.77601 0.17221 0.0
C598 C 0.36341 0.80064 0.17988 0.0
N599 N 0.36354 0.85865 0.19339 0.0
C600 C 0.35084 0.84067 0.20833 0.0
C601 C 0.33467 0.85188 0.22785 0.0
C602 C 0.33767 0.87858 0.22533 0.0
C603 C 0.3556 0.8822 0.20431 0.0
N604 N 0.36185 0.86295 0.13941 0.0
C605 C 0.32435 0.87696 0.10154 0.0
C606 C 0.3173 0.86073 0.12283 0.0
C607 C 0.33629 0.85409 0.14161 0.0
C608 C 0.3502 0.88698 0.10035 0.0
C609 C 0.36862 0.87966 0.11935 0.0
N610 N 0.41703 0.83821 0.18771 0.0
C611 C 0.44333 0.84708 0.22454 0.0
C612 C 0.46273 0.82732 0.21692 0.0
C613 C 0.45782 0.81165 0.19562 0.0
C614 C 0.43448 0.8171 0.18156 0.0
C615 C 0.42077 0.85232 0.2096 0.0
H616 H 0.43136 0.80516 0.16486 0.0
H617 H 0.40729 0.86887 0.215 0.0
H618 H 0.33053 0.84115 0.15747 0.0
H619 H 0.38859 0.88701 0.11738 0.0
C620 C 0.44093 0.88017 0.13796 0.0
C621 C 0.36759 0.90758 0.19799 0.0
C622 C 0.3956 0.80169 0.11687 0.0
C623 C 0.35218 0.81393 0.20165 0.0
H624 H 0.4026 0.94965 0.18366 0.0
H625 H 0.44469 0.93396 0.15325 0.0
H626 H 0.46853 0.85271 0.0956 0.0
H627 H 0.44196 0.81089 0.08264 0.0
H628 H 0.36538 0.75662 0.13503 0.0
H629 H 0.34448 0.76216 0.18281 0.0
H630 H 0.32197 0.8419 0.24204 0.0
H631 H 0.32838 0.89359 0.23806 0.0
H632 H 0.29766 0.85232 0.12453 0.0
H633 H 0.35639 0.90005 0.08459 0.0
H634 H 0.44655 0.85979 0.24078 0.0
H635 H 0.47238 0.79607 0.18931 0.0
C636 C 0.32194 0.38645 0.15735 0.0
C637 C 0.30126 0.37697 0.1732 0.0
C638 C 0.30631 0.3502 0.17542 0.0
C639 C 0.32965 0.34494 0.1608 0.0
N640 N 0.3402 0.36684 0.14994 0.0
Co641 Co 0.37253 0.36845 0.12538 0.0
N642 N 0.3773 0.32886 0.12487 0.0
C643 C 0.36156 0.31118 0.13724 0.0
C644 C 0.37062 0.2853 0.13376 0.0
C645 C 0.39387 0.28657 0.1188 0.0
C646 C 0.39766 0.31325 0.11412 0.0
N647 N 0.40489 0.37008 0.10086 0.0
C648 C 0.42279 0.3504 0.09279 0.0
C649 C 0.44357 0.36009 0.07715 0.0
C650 C 0.43887 0.38692 0.07562 0.0
C651 C 0.41567 0.39208 0.09043 0.0
N652 N 0.36764 0.40805 0.12582 0.0
C653 C 0.38337 0.42579 0.11357 0.0
C654 C 0.37374 0.4516 0.11636 0.0
C655 C 0.35006 0.45019 0.13066 0.0
C656 C 0.34668 0.4235 0.13569 0.0
N657 N 0.39686 0.36889 0.15532 0.0
C658 C 0.43386 0.36701 0.19595 0.0
C659 C 0.43599 0.3853 0.17539 0.0
C660 C 0.41741 0.38596 0.15556 0.0
C661 C 0.41248 0.35006 0.19606 0.0
C662 C 0.3944 0.35132 0.17577 0.0
N663 N 0.3482 0.36804 0.09552 0.0
C664 C 0.3325 0.38719 0.05497 0.0
C665 C 0.31051 0.37096 0.05554 0.0
C666 C 0.30825 0.35266 0.07608 0.0
C667 C 0.3272 0.35147 0.09559 0.0
C668 C 0.35093 0.38539 0.07494 0.0
H669 H 0.32407 0.33735 0.11083 0.0
H670 H 0.36698 0.39856 0.07351 0.0
H671 H 0.42043 0.40018 0.14042 0.0
H672 H 0.37881 0.33765 0.17693 0.0
C673 C 0.34001 0.31958 0.15399 0.0
C674 C 0.32207 0.41361 0.14761 0.0
C675 C 0.42212 0.32286 0.1015 0.0
C676 C 0.40516 0.41742 0.09712 0.0
H677 H 0.28371 0.38807 0.18131 0.0
H678 H 0.29361 0.33609 0.1852 0.0
H679 H 0.36204 0.2677 0.14211 0.0
H680 H 0.40717 0.26986 0.11288 0.0
H681 H 0.46094 0.34912 0.06857 0.0
H682 H 0.4516 0.40109 0.06596 0.0
H683 H 0.38214 0.46921 0.10782 0.0
H684 H 0.33619 0.46675 0.13578 0.0
H685 H 0.45233 0.3987 0.17413 0.0
H686 H 0.40958 0.33583 0.21177 0.0
H687 H 0.33555 0.40131 0.03921 0.0
H688 H 0.2915 0.33975 0.07759 0.0
C689 C 0.92049 0.88511 0.09268 0.0
C690 C 0.94078 0.89427 0.07611 0.0
C691 C 0.93051 0.91713 0.06487 0.0
C692 C 0.90471 0.92068 0.07527 0.0
N693 N 0.89787 0.9015 0.09258 0.0
Co694 Co 0.86255 0.89922 0.11273 0.0
N695 N 0.84668 0.93149 0.09441 0.0
C696 C 0.85842 0.94539 0.07475 0.0
C697 C 0.84219 0.96595 0.06539 0.0
C698 C 0.81876 0.96535 0.08013 0.0
C699 C 0.82223 0.94457 0.09795 0.0
N700 N 0.82763 0.89762 0.13366 0.0
C701 C 0.80579 0.91506 0.13485 0.0
C702 C 0.78708 0.90782 0.15413 0.0
C703 C 0.7973 0.88496 0.1653 0.0
C704 C 0.8217 0.87969 0.15256 0.0
N705 N 0.87803 0.86625 0.1302 0.0
C706 C 0.86535 0.85087 0.14808 0.0
C707 C 0.88042 0.82865 0.15543 0.0
C708 C 0.90409 0.82965 0.14118 0.0
C709 C 0.90213 0.85268 0.12603 0.0
N710 N 0.87647 0.92162 0.13995 0.0
C711 C 0.89257 0.95516 0.17911 0.0
C712 C 0.88521 0.92936 0.18504 0.0
C713 C 0.87713 0.91314 0.16537 0.0
C714 C 0.89268 0.96343 0.15304 0.0
C715 C 0.88495 0.94642 0.13395 0.0
N716 N 0.84868 0.87681 0.08549 0.0
C717 C 0.82673 0.83761 0.07296 0.0
C718 C 0.8354 0.84134 0.04709 0.0
C719 C 0.84909 0.86402 0.0405 0.0
C720 C 0.85536 0.88138 0.0598 0.0
C721 C 0.83351 0.85555 0.09175 0.0
H722 H 0.86634 0.89792 0.05348 0.0
H723 H 0.82695 0.85138 0.11128 0.0
H724 H 0.87115 0.89398 0.17132 0.0
H725 H 0.88551 0.95403 0.11454 0.0
C726 C 0.88557 0.94018 0.06722 0.0
C727 C 0.92344 0.86042 0.10759 0.0
C728 C 0.80237 0.93903 0.11874 0.0
C729 C 0.83959 0.85826 0.15813 0.0
H730 H 0.96076 0.88509 0.07223 0.0
H731 H 0.9404 0.92928 0.05026 0.0
H732 H 0.84709 0.98016 0.0502 0.0
H733 H 0.80135 0.97911 0.07839 0.0
H734 H 0.7682 0.91814 0.16 0.0
H735 H 0.78826 0.87379 0.18118 0.0
H736 H 0.87481 0.81347 0.16939 0.0
H737 H 0.92079 0.81493 0.14174 0.0
H738 H 0.88539 0.92165 0.20481 0.0
H739 H 0.89788 0.98327 0.14727 0.0
H740 H 0.81592 0.82032 0.07888 0.0
H741 H 0.85563 0.86801 0.02054 0.0
C742 C 0.14873 0.60278 0.65722 0.0
C743 C 0.16646 0.60738 0.67671 0.0
C744 C 0.16621 0.63422 0.67949 0.0
C745 C 0.1484 0.64439 0.66162 0.0
N746 N 0.13663 0.62562 0.64813 0.0
Co747 Co 0.11155 0.63141 0.6186 0.0
N748 N 0.11308 0.67085 0.62084 0.0
C749 C 0.12717 0.68455 0.63765 0.0
C750 C 0.122 0.71148 0.63603 0.0
C751 C 0.10278 0.7151 0.61773 0.0
C752 C 0.09742 0.69009 0.60926 0.0
N753 N 0.08732 0.63719 0.58842 0.0
C754 C 0.07493 0.65992 0.57946 0.0
C755 C 0.05864 0.65528 0.5588 0.0
C756 C 0.06033 0.62855 0.55504 0.0
C757 C 0.07742 0.61844 0.57354 0.0
N758 N 0.10909 0.59201 0.61702 0.0
C759 C 0.09378 0.57862 0.60103 0.0
C760 C 0.09705 0.55164 0.60381 0.0
C761 C 0.11598 0.54753 0.62227 0.0
C762 C 0.12319 0.57239 0.62979 0.0
N763 N 0.07955 0.63365 0.6429 0.0
C764 C 0.03192 0.64589 0.67275 0.0
C765 C 0.03137 0.6304 0.65055 0.0
C766 C 0.05532 0.62437 0.63612 0.0
C767 C 0.05695 0.65355 0.68069 0.0
C768 C 0.08032 0.64715 0.6657 0.0
N769 N 0.1435 0.62951 0.59413 0.0
C770 C 0.16788 0.61023 0.55684 0.0
C771 C 0.18921 0.6268 0.55979 0.0
C772 C 0.18728 0.6446 0.58032 0.0
C773 C 0.16458 0.64551 0.59715 0.0
C774 C 0.14538 0.61196 0.57402 0.0
H775 H 0.16462 0.65939 0.61241 0.0
H776 H 0.12983 0.59882 0.57066 0.0
H777 H 0.0536 0.61292 0.61909 0.0
H778 H 0.09861 0.65405 0.67259 0.0
C779 C 0.14329 0.67139 0.65613 0.0
C780 C 0.14557 0.57657 0.64671 0.0
C781 C 0.07533 0.68534 0.59234 0.0
C782 C 0.08024 0.59168 0.58073 0.0
H783 H 0.17892 0.59282 0.68717 0.0
H784 H 0.17831 0.64505 0.69234 0.0
H785 H 0.13018 0.72654 0.64771 0.0
H786 H 0.09282 0.73383 0.61209 0.0
H787 H 0.04565 0.66937 0.54843 0.0
H788 H 0.04879 0.61764 0.54176 0.0
H789 H 0.08811 0.53672 0.59251 0.0
H790 H 0.1244 0.52834 0.62836 0.0
H791 H 0.01248 0.6237 0.64379 0.0
H792 H 0.05855 0.66472 0.69831 0.0
H793 H 0.16854 0.5958 0.54146 0.0
H794 H 0.20301 0.65821 0.58326 0.0
C795 C 0.67457 0.80314 0.90195 0.0
C796 C 0.6947 0.78308 0.89958 0.0
C797 C 0.69862 0.7786 0.87354 0.0
C798 C 0.68064 0.7961 0.86163 0.0
N799 N 0.66621 0.81213 0.87848 0.0
Co800 Co 0.63525 0.8378 0.87051 0.0
N801 N 0.63779 0.82864 0.83271 0.0
C802 C 0.65567 0.81111 0.82085 0.0
C803 C 0.65421 0.81136 0.79425 0.0
C804 C 0.63487 0.83082 0.78877 0.0
C805 C 0.62564 0.8412 0.81244 0.0
N806 N 0.60354 0.86261 0.86284 0.0
C807 C 0.59372 0.87056 0.83962 0.0
C808 C 0.57177 0.88868 0.84261 0.0
C809 C 0.56811 0.89283 0.8687 0.0
C810 C 0.58793 0.87706 0.88009 0.0
N811 N 0.63346 0.84785 0.90805 0.0
C812 C 0.61702 0.86693 0.91936 0.0
C813 C 0.61993 0.86849 0.94566 0.0
C814 C 0.6387 0.8487 0.95157 0.0
C815 C 0.64619 0.83612 0.9284 0.0
N816 N 0.66026 0.86638 0.86279 0.0
C817 C 0.69489 0.90719 0.84961 0.0
C818 C 0.67044 0.91256 0.86343 0.0
C819 C 0.65355 0.89203 0.86974 0.0
C820 C 0.70169 0.88107 0.84254 0.0
C821 C 0.68431 0.86116 0.84936 0.0
N822 N 0.6104 0.80909 0.87829 0.0
C823 C 0.57525 0.79049 0.90559 0.0
C824 C 0.57976 0.76591 0.89371 0.0
C825 C 0.59913 0.76365 0.87335 0.0
C826 C 0.61409 0.78525 0.86606 0.0
C827 C 0.59049 0.81174 0.89745 0.0
H828 H 0.6288 0.78195 0.85074 0.0
H829 H 0.58615 0.82995 0.90731 0.0
H830 H 0.63514 0.89742 0.88016 0.0
H831 H 0.69073 0.84176 0.84331 0.0
C832 C 0.67501 0.79635 0.83512 0.0
C833 C 0.66169 0.81075 0.92681 0.0
C834 C 0.6072 0.86455 0.81463 0.0
C835 C 0.59558 0.87913 0.90585 0.0
H836 H 0.7044 0.77197 0.91518 0.0
H837 H 0.71186 0.76338 0.86449 0.0
H838 H 0.66665 0.79974 0.78043 0.0
H839 H 0.62898 0.83748 0.76957 0.0
H840 H 0.56061 0.89904 0.8275 0.0
H841 H 0.55401 0.90712 0.87806 0.0
H842 H 0.60822 0.88107 0.95924 0.0
H843 H 0.64473 0.84336 0.97101 0.0
H844 H 0.66446 0.93245 0.86972 0.0
H845 H 0.72026 0.87595 0.83153 0.0
H846 H 0.56037 0.79331 0.9214 0.0
H847 H 0.60278 0.7453 0.86288 0.0
C848 C 0.94289 0.17425 0.37606 0.0
C849 C 0.96677 0.16965 0.38922 0.0
C850 C 0.96123 0.15269 0.40953 0.0
C851 C 0.93448 0.14758 0.40754 0.0
N852 N 0.92297 0.15987 0.3869 0.0
Co853 Co 0.88489 0.1574 0.37688 0.0
N854 N 0.88021 0.12579 0.39967 0.0
C855 C 0.89567 0.11787 0.4196 0.0
C856 C 0.88765 0.09473 0.43117 0.0
C857 C 0.86584 0.08772 0.41757 0.0
C858 C 0.86181 0.10707 0.39845 0.0
N859 N 0.84681 0.15479 0.36714 0.0
C860 C 0.83133 0.13359 0.36869 0.0
C861 C 0.80577 0.13985 0.35939 0.0
C862 C 0.80548 0.16601 0.35165 0.0
C863 C 0.83077 0.17417 0.35669 0.0
N864 N 0.88923 0.18908 0.35398 0.0
C865 C 0.86882 0.20459 0.34429 0.0
C866 C 0.87759 0.22578 0.33 0.0
C867 C 0.90521 0.22383 0.33115 0.0
C868 C 0.91185 0.2014 0.34615 0.0
N869 N 0.89677 0.13431 0.34828 0.0
C870 C 0.90748 0.0966 0.30985 0.0
C871 C 0.89137 0.11959 0.30471 0.0
C872 C 0.88616 0.13819 0.32426 0.0
C873 C 0.91943 0.09361 0.33399 0.0
C874 C 0.91407 0.11285 0.35283 0.0
N875 N 0.87297 0.18036 0.4057 0.0
C876 C 0.87934 0.21881 0.43104 0.0
C877 C 0.85887 0.21165 0.44876 0.0
C878 C 0.84508 0.18884 0.44432 0.0
C879 C 0.85217 0.17364 0.42238 0.0
C880 C 0.88621 0.20284 0.40985 0.0
H881 H 0.84124 0.15617 0.41919 0.0
H882 H 0.90272 0.20849 0.39722 0.0
H883 H 0.87262 0.1551 0.32032 0.0
H884 H 0.923 0.10972 0.37148 0.0
C885 C 0.92054 0.12909 0.42271 0.0
C886 C 0.93905 0.19519 0.35604 0.0
C887 C 0.84008 0.10785 0.37986 0.0
C888 C 0.84196 0.19727 0.34691 0.0
H889 H 0.98598 0.17837 0.38509 0.0
H890 H 0.97517 0.14475 0.42379 0.0
H891 H 0.89746 0.08343 0.44657 0.0
H892 H 0.85449 0.07023 0.42107 0.0
H893 H 0.78924 0.12684 0.35812 0.0
H894 H 0.7893 0.17722 0.34214 0.0
H895 H 0.86541 0.24084 0.3199 0.0
H896 H 0.91871 0.23801 0.32274 0.0
H897 H 0.8817 0.12248 0.28624 0.0
H898 H 0.93224 0.07618 0.33851 0.0
H899 H 0.89073 0.23614 0.43408 0.0
H900 H 0.82911 0.18277 0.45771 0.0
C901 C 0.5632 0.11174 0.62786 0.0
C902 C 0.54057 0.10752 0.61364 0.0
C903 C 0.54752 0.08688 0.59752 0.0
C904 C 0.57394 0.07985 0.60261 0.0
N905 N 0.58413 0.09429 0.62149 0.0
Co906 Co 0.62272 0.09321 0.63226 0.0
N907 N 0.63346 0.06389 0.60745 0.0
C908 C 0.61708 0.05176 0.59145 0.0
C909 C 0.62939 0.03033 0.579 0.0
C910 C 0.65496 0.02812 0.58813 0.0
C911 C 0.65684 0.04862 0.60552 0.0
N912 N 0.66142 0.09322 0.64208 0.0
C913 C 0.68255 0.07629 0.63539 0.0
C914 C 0.7063 0.08337 0.64627 0.0
C915 C 0.69968 0.1051 0.66109 0.0
C916 C 0.67243 0.11013 0.65824 0.0
N917 N 0.61186 0.12128 0.65822 0.0
C918 C 0.62786 0.13191 0.6756 0.0
C919 C 0.61455 0.1506 0.69109 0.0
C920 C 0.58864 0.15235 0.68277 0.0
C921 C 0.58776 0.13474 0.66243 0.0
N922 N 0.61569 0.06571 0.65922 0.0
C923 C 0.61178 0.02248 0.6942 0.0
C924 C 0.62737 0.04379 0.69973 0.0
C925 C 0.62894 0.06509 0.68217 0.0
C926 C 0.59706 0.0239 0.6715 0.0
C927 C 0.59916 0.04558 0.65451 0.0
N928 N 0.62984 0.1207 0.60511 0.0
C929 C 0.64018 0.16566 0.59313 0.0
C930 C 0.63545 0.16097 0.56708 0.0
C931 C 0.62867 0.13567 0.56021 0.0
C932 C 0.62583 0.11605 0.57937 0.0
C933 C 0.63766 0.1453 0.61163 0.0
H934 H 0.61989 0.09746 0.57282 0.0
H935 H 0.64183 0.15012 0.63111 0.0
H936 H 0.64151 0.08053 0.68727 0.0
H937 H 0.58784 0.04524 0.6373 0.0
C938 C 0.58991 0.06028 0.58957 0.0
C939 C 0.56456 0.13357 0.64594 0.0
C940 C 0.68042 0.05189 0.62113 0.0
C941 C 0.65593 0.127 0.67403 0.0
H942 H 0.52125 0.11861 0.61423 0.0
H943 H 0.53505 0.07853 0.58323 0.0
H944 H 0.6205 0.01724 0.56565 0.0
H945 H 0.6701 0.01264 0.58313 0.0
H946 H 0.72602 0.07303 0.64471 0.0
H947 H 0.71278 0.11493 0.6738 0.0
H948 H 0.62304 0.16262 0.70564 0.0
H949 H 0.57255 0.16599 0.68994 0.0
H950 H 0.63856 0.044 0.71742 0.0
H951 H 0.58468 0.00793 0.66629 0.0
H952 H 0.64587 0.18495 0.5992 0.0
H953 H 0.62472 0.13124 0.54021 0.0
C954 C 0.14316 0.40327 0.92611 0.0
C955 C 0.13614 0.41386 0.95032 0.0
C956 C 0.11263 0.42884 0.94752 0.0
C957 C 0.10662 0.42653 0.92189 0.0
N958 N 0.1246 0.41056 0.90822 0.0
Co959 Co 0.12458 0.40325 0.86999 0.0
N960 N 0.08992 0.42525 0.86588 0.0
C961 C 0.07508 0.43821 0.88479 0.0
C962 C 0.05129 0.45003 0.87646 0.0
C963 C 0.05054 0.44374 0.8508 0.0
C964 C 0.07405 0.42843 0.845 0.0
N965 N 0.12525 0.39698 0.83155 0.0
C966 C 0.10661 0.40398 0.81368 0.0
C967 C 0.11489 0.3954 0.789 0.0
C968 C 0.13948 0.38221 0.79145 0.0
C969 C 0.1448 0.38348 0.81734 0.0
N970 N 0.15847 0.38012 0.87428 0.0
C971 C 0.17249 0.36617 0.8555 0.0
C972 C 0.19502 0.35227 0.86416 0.0
C973 C 0.19558 0.35777 0.88999 0.0
C974 C 0.17321 0.37478 0.89565 0.0
N975 N 0.10294 0.37197 0.87646 0.0
C976 C 0.06884 0.32965 0.8827 0.0
C977 C 0.09012 0.32868 0.86411 0.0
C978 C 0.10697 0.34985 0.86147 0.0
C979 C 0.06563 0.35156 0.89886 0.0
C980 C 0.08276 0.37236 0.8954 0.0
N981 N 0.14633 0.43464 0.86381 0.0
C982 C 0.19008 0.45191 0.8541 0.0
C983 C 0.18232 0.47525 0.86719 0.0
C984 C 0.15536 0.47916 0.87576 0.0
C985 C 0.13777 0.45879 0.87372 0.0
C986 C 0.17173 0.43212 0.85233 0.0
H987 H 0.11774 0.46273 0.88138 0.0
H988 H 0.17901 0.4145 0.84273 0.0
H989 H 0.12277 0.34811 0.84686 0.0
H990 H 0.0788 0.38881 0.90787 0.0
C991 C 0.08393 0.43856 0.91025 0.0
C992 C 0.16791 0.38685 0.92104 0.0
C993 C 0.08003 0.41676 0.81959 0.0
C994 C 0.16577 0.36901 0.82944 0.0
H995 H 0.14704 0.4112 0.96813 0.0
H996 H 0.10134 0.44018 0.96236 0.0
H997 H 0.03605 0.46142 0.88781 0.0
H998 H 0.03435 0.44939 0.83789 0.0
H999 H 0.10386 0.39752 0.77124 0.0
H1000 H 0.15137 0.37173 0.7764 0.0
H1001 H 0.20991 0.34045 0.85282 0.0
H1002 H 0.21124 0.35073 0.90293 0.0
H1003 H 0.09354 0.31182 0.85144 0.0
H1004 H 0.04927 0.35319 0.91342 0.0
H1005 H 0.21066 0.44812 0.84666 0.0
H1006 H 0.14811 0.49743 0.88502 0.0
C1007 C 0.36973 0.62703 0.43145 0.0
C1008 C 0.38074 0.61467 0.45323 0.0
C1009 C 0.40144 0.59782 0.44436 0.0
C1010 C 0.40181 0.60081 0.41781 0.0
N1011 N 0.38303 0.61908 0.40924 0.0
Co1012 Co 0.37474 0.62839 0.37218 0.0
N1013 N 0.40198 0.60067 0.35899 0.0
C1014 C 0.41712 0.58306 0.37317 0.0
C1015 C 0.43499 0.56742 0.35835 0.0
C1016 C 0.43153 0.57606 0.33331 0.0
C1017 C 0.41173 0.59655 0.33441 0.0
N1018 N 0.3666 0.63785 0.33514 0.0
C1019 C 0.38009 0.63014 0.31294 0.0
C1020 C 0.36915 0.64272 0.29121 0.0
C1021 C 0.34837 0.65942 0.30008 0.0
C1022 C 0.34788 0.6562 0.32659 0.0
N1023 N 0.3474 0.65603 0.38536 0.0
C1024 C 0.33187 0.67329 0.37119 0.0
C1025 C 0.31409 0.68903 0.386 0.0
C1026 C 0.31802 0.68081 0.41107 0.0
C1027 C 0.33799 0.66046 0.40998 0.0
N1028 N 0.40327 0.65466 0.3711 0.0
C1029 C 0.44447 0.69111 0.36799 0.0
C1030 C 0.41909 0.69754 0.35794 0.0
C1031 C 0.39888 0.67927 0.35988 0.0
C1032 C 0.44891 0.66617 0.37961 0.0
C1033 C 0.4283 0.64834 0.38076 0.0
N1034 N 0.3462 0.60205 0.37326 0.0
C1035 C 0.30124 0.58945 0.36336 0.0
C1036 C 0.30528 0.56496 0.37619 0.0
C1037 C 0.33026 0.55958 0.3876 0.0
C1038 C 0.35026 0.57802 0.38565 0.0
C1039 C 0.32163 0.60759 0.36237 0.0
H1040 H 0.36876 0.57239 0.3946 0.0
H1041 H 0.31695 0.62601 0.35277 0.0
H1042 H 0.37991 0.68546 0.35205 0.0
H1043 H 0.43322 0.62947 0.38933 0.0
C1044 C 0.41675 0.58425 0.40035 0.0
C1045 C 0.34487 0.64375 0.43231 0.0
C1046 C 0.40509 0.61351 0.31216 0.0
C1047 C 0.3325 0.67232 0.34404 0.0
H1048 H 0.37377 0.61663 0.4733 0.0
H1049 H 0.41363 0.58388 0.4558 0.0
H1050 H 0.4499 0.55263 0.36507 0.0
H1051 H 0.44317 0.56912 0.3163 0.0
H1052 H 0.3761 0.64108 0.27112 0.0
H1053 H 0.33616 0.67339 0.28869 0.0
H1054 H 0.29909 0.70373 0.37928 0.0
H1055 H 0.30659 0.68793 0.42814 0.0
H1056 H 0.41468 0.71677 0.34895 0.0
H1057 H 0.46839 0.66021 0.38741 0.0
H1058 H 0.28253 0.59469 0.3538 0.0
H1059 H 0.33449 0.54131 0.39834 0.0
C1060 C 0.78851 0.61961 0.85737 0.0
C1061 C 0.7609 0.62239 0.85379 0.0
C1062 C 0.75716 0.6416 0.83503 0.0
C1063 C 0.78265 0.64944 0.82843 0.0
N1064 N 0.80245 0.63573 0.84121 0.0
Co1065 Co 0.8419 0.6425 0.84059 0.0
N1066 N 0.83641 0.67334 0.81603 0.0
C1067 C 0.81292 0.68273 0.8058 0.0
C1068 C 0.81625 0.70236 0.78736 0.0
C1069 C 0.84357 0.70505 0.78515 0.0
C1070 C 0.8552 0.68695 0.80252 0.0
N1071 N 0.88114 0.64992 0.84092 0.0
C1072 C 0.89503 0.66732 0.82621 0.0
C1073 C 0.92222 0.66621 0.832 0.0
C1074 C 0.92568 0.64682 0.85064 0.0
C1075 C 0.90051 0.63728 0.85514 0.0
N1076 N 0.84764 0.61101 0.86426 0.0
C1077 C 0.87142 0.60037 0.87283 0.0
C1078 C 0.86841 0.57935 0.88974 0.0
C1079 C 0.84108 0.57694 0.89261 0.0
C1080 C 0.82905 0.59669 0.8772 0.0
N1081 N 0.84897 0.61928 0.81013 0.0
C1082 C 0.86098 0.58895 0.76532 0.0
C1083 C 0.87904 0.58897 0.78554 0.0
C1084 C 0.8726 0.60396 0.80761 0.0
C1085 C 0.83665 0.6042 0.76804 0.0
C1086 C 0.83113 0.61913 0.79039 0.0
N1087 N 0.83506 0.66581 0.87098 0.0
C1088 C 0.84709 0.67895 0.91372 0.0
C1089 C 0.82892 0.701 0.91274 0.0
C1090 C 0.81262 0.70432 0.89122 0.0
C1091 C 0.81598 0.68654 0.87066 0.0
C1092 C 0.84976 0.66174 0.89287 0.0
H1093 H 0.80329 0.69023 0.85457 0.0
H1094 H 0.8642 0.64553 0.89481 0.0
H1095 H 0.88733 0.6031 0.82218 0.0
H1096 H 0.8124 0.63053 0.79113 0.0
C1097 C 0.78852 0.67104 0.81219 0.0
C1098 C 0.80029 0.60406 0.87853 0.0
C1099 C 0.88421 0.68143 0.80366 0.0
C1100 C 0.89528 0.6138 0.86887 0.0
H1101 H 0.74514 0.61248 0.86463 0.0
H1102 H 0.73807 0.6499 0.82811 0.0
H1103 H 0.80081 0.71251 0.77594 0.0
H1104 H 0.85395 0.71797 0.77159 0.0
H1105 H 0.93816 0.67706 0.82257 0.0
H1106 H 0.94462 0.6393 0.85854 0.0
H1107 H 0.88404 0.56847 0.90034 0.0
H1108 H 0.8311 0.56337 0.90578 0.0
H1109 H 0.89832 0.57778 0.78429 0.0
H1110 H 0.82173 0.60446 0.75315 0.0
H1111 H 0.85966 0.67525 0.93035 0.0
H1112 H 0.79815 0.72112 0.88975 0.0
C1113 C 0.61484 0.56914 0.12502 0.0
C1114 C 0.60183 0.54663 0.11861 0.0
C1115 C 0.58619 0.55349 0.09799 0.0
C1116 C 0.59055 0.57966 0.09299 0.0
N1117 N 0.6084 0.58986 0.10891 0.0
Co1118 Co 0.61968 0.62741 0.10931 0.0
N1119 N 0.59626 0.63768 0.07936 0.0
C1120 C 0.5798 0.62205 0.06679 0.0
C1121 C 0.56765 0.63435 0.04594 0.0
C1122 C 0.57754 0.65904 0.04466 0.0
C1123 C 0.59524 0.66031 0.06483 0.0
N1124 N 0.6305 0.66509 0.10999 0.0
C1125 C 0.62588 0.6852 0.09266 0.0
C1126 C 0.63844 0.70785 0.09962 0.0
C1127 C 0.65168 0.70171 0.12187 0.0
C1128 C 0.64668 0.67577 0.12718 0.0
N1129 N 0.6437 0.61705 0.13879 0.0
C1130 C 0.65993 0.6329 0.15135 0.0
C1131 C 0.67368 0.62036 0.17106 0.0
C1132 C 0.66559 0.59502 0.17134 0.0
C1133 C 0.6473 0.59354 0.15161 0.0
N1134 N 0.64992 0.61868 0.08414 0.0
C1135 C 0.69072 0.61024 0.04526 0.0
C1136 C 0.69507 0.62564 0.06688 0.0
C1137 C 0.6746 0.62937 0.08612 0.0
C1138 C 0.66604 0.59839 0.04395 0.0
C1139 C 0.64612 0.60284 0.0634 0.0
N1140 N 0.58924 0.63605 0.13454 0.0
C1141 C 0.57267 0.65152 0.17678 0.0
C1142 C 0.54728 0.64169 0.17297 0.0
C1143 C 0.54295 0.6303 0.14904 0.0
C1144 C 0.56385 0.62801 0.13025 0.0
C1145 C 0.59319 0.64852 0.15746 0.0
H1146 H 0.55903 0.61891 0.11273 0.0
H1147 H 0.61219 0.65593 0.16179 0.0
H1148 H 0.67894 0.6414 0.10213 0.0
H1149 H 0.62756 0.5938 0.06081 0.0
C1150 C 0.57791 0.59531 0.07375 0.0
C1151 C 0.63249 0.56999 0.14703 0.0
C1152 C 0.6121 0.68266 0.06826 0.0
C1153 C 0.66021 0.65993 0.14554 0.0
H1154 H 0.60325 0.52734 0.1281 0.0
H1155 H 0.57291 0.54099 0.08808 0.0
H1156 H 0.55415 0.62597 0.0326 0.0
H1157 H 0.57306 0.67411 0.02999 0.0
H1158 H 0.63925 0.72656 0.08927 0.0
H1159 H 0.66485 0.71415 0.13199 0.0
H1160 H 0.68726 0.62888 0.18424 0.0
H1161 H 0.67187 0.57965 0.18507 0.0
H1162 H 0.71408 0.63494 0.06883 0.0
H1163 H 0.66161 0.58654 0.02743 0.0
H1164 H 0.57692 0.66116 0.19471 0.0
H1165 H 0.52382 0.62211 0.14498 0.0
C1166 C 0.6965 0.36808 0.37315 0.0
C1167 C 0.72092 0.35527 0.36545 0.0
C1168 C 0.71551 0.33918 0.34546 0.0
C1169 C 0.68822 0.34309 0.34214 0.0
N1170 N 0.67595 0.36118 0.35838 0.0
Co1171 Co 0.63621 0.37109 0.36196 0.0
N1172 N 0.62778 0.34584 0.33398 0.0
C1173 C 0.64572 0.33014 0.31996 0.0
C1174 C 0.6343 0.31674 0.30061 0.0
C1175 C 0.60754 0.3248 0.30189 0.0
C1176 C 0.60414 0.3426 0.32219 0.0
N1177 N 0.59644 0.3803 0.36624 0.0
C1178 C 0.57569 0.37293 0.35204 0.0
C1179 C 0.55099 0.38386 0.36147 0.0
C1180 C 0.55644 0.3993 0.38195 0.0
C1181 C 0.58401 0.39679 0.38394 0.0
N1182 N 0.64467 0.3971 0.38918 0.0
C1183 C 0.6269 0.41394 0.40207 0.0
C1184 C 0.63864 0.42898 0.42001 0.0
C1185 C 0.66542 0.42097 0.41883 0.0
C1186 C 0.66847 0.4014 0.40016 0.0
N1187 N 0.63943 0.39925 0.33485 0.0
C1188 C 0.63925 0.43691 0.29379 0.0
C1189 C 0.62423 0.4418 0.31691 0.0
C1190 C 0.62466 0.42291 0.33703 0.0
C1191 C 0.65525 0.41331 0.29205 0.0
C1192 C 0.65515 0.39499 0.31268 0.0
N1193 N 0.63297 0.34283 0.38906 0.0
C1194 C 0.6225 0.32943 0.43352 0.0
C1195 C 0.63232 0.30344 0.42866 0.0
C1196 C 0.64176 0.29743 0.40338 0.0
C1197 C 0.64203 0.31723 0.38413 0.0
C1198 C 0.62277 0.34855 0.41359 0.0
H1199 H 0.64995 0.31132 0.3655 0.0
H1200 H 0.61501 0.36791 0.41866 0.0
H1201 H 0.61249 0.42769 0.35398 0.0
H1202 H 0.6675 0.37728 0.30996 0.0
C1203 C 0.67337 0.3294 0.32468 0.0
C1204 C 0.69365 0.38567 0.39534 0.0
C1205 C 0.57858 0.35731 0.32844 0.0
C1206 C 0.59902 0.41243 0.39955 0.0
H1207 H 0.74046 0.35696 0.37387 0.0
H1208 H 0.72964 0.3257 0.33506 0.0
H1209 H 0.64439 0.30342 0.28664 0.0
H1210 H 0.59249 0.31882 0.28879 0.0
H1211 H 0.53124 0.38167 0.35367 0.0
H1212 H 0.54217 0.41193 0.39316 0.0
H1213 H 0.62868 0.44302 0.43337 0.0
H1214 H 0.68071 0.42793 0.43115 0.0
H1215 H 0.61204 0.46009 0.31951 0.0
H1216 H 0.66722 0.40851 0.27454 0.0
H1217 H 0.61514 0.33531 0.45276 0.0
H1218 H 0.64895 0.27749 0.39829 0.0
C1219 C 0.89393 0.45173 0.603 0.0
C1220 C 0.91063 0.46934 0.59038 0.0
C1221 C 0.92859 0.45446 0.57512 0.0
C1222 C 0.92186 0.42873 0.57942 0.0
N1223 N 0.90024 0.42638 0.59602 0.0
Co1224 Co 0.88512 0.39283 0.61007 0.0
N1225 N 0.91286 0.37072 0.58964 0.0
C1226 C 0.93293 0.37919 0.57356 0.0
C1227 C 0.94696 0.35907 0.56041 0.0
C1228 C 0.93448 0.33656 0.56791 0.0
C1229 C 0.91366 0.34437 0.58531 0.0
N1230 N 0.87061 0.35929 0.62473 0.0
C1231 C 0.87637 0.33404 0.61722 0.0
C1232 C 0.86111 0.31625 0.63135 0.0
C1233 C 0.84454 0.33099 0.64806 0.0
C1234 C 0.85064 0.35681 0.64309 0.0
N1235 N 0.85671 0.41474 0.62977 0.0
C1236 C 0.83617 0.40599 0.6451 0.0
C1237 C 0.82 0.42602 0.65606 0.0
C1238 C 0.83122 0.44886 0.6476 0.0
C1239 C 0.85369 0.44135 0.63197 0.0
N1240 N 0.86064 0.39183 0.58041 0.0
C1241 C 0.82623 0.38948 0.53809 0.0
C1242 C 0.81748 0.38221 0.56321 0.0
C1243 C 0.83482 0.38362 0.58393 0.0
C1244 C 0.85249 0.39801 0.53455 0.0
C1245 C 0.86923 0.39894 0.55576 0.0
N1246 N 0.90967 0.39406 0.6398 0.0
C1247 C 0.91662 0.39589 0.68611 0.0
C1248 C 0.9441 0.39999 0.68165 0.0
C1249 C 0.95411 0.40041 0.65594 0.0
C1250 C 0.93677 0.39737 0.63556 0.0
C1251 C 0.89991 0.39301 0.66508 0.0
H1252 H 0.94582 0.39808 0.61654 0.0
H1253 H 0.87911 0.39039 0.6698 0.0
H1254 H 0.82693 0.37784 0.6026 0.0
H1255 H 0.88915 0.40514 0.55165 0.0
C1256 C 0.93629 0.4063 0.56942 0.0
C1257 C 0.87373 0.45971 0.62293 0.0
C1258 C 0.89276 0.32692 0.59421 0.0
C1259 C 0.83469 0.37902 0.65135 0.0
H1260 H 0.91028 0.49062 0.59266 0.0
H1261 H 0.94519 0.46146 0.56308 0.0
H1262 H 0.96325 0.36076 0.54596 0.0
H1263 H 0.93905 0.31687 0.56041 0.0
H1264 H 0.86082 0.29508 0.62868 0.0
H1265 H 0.8285 0.32391 0.66077 0.0
H1266 H 0.803 0.42422 0.66969 0.0
H1267 H 0.82454 0.46872 0.65338 0.0
H1268 H 0.79719 0.37577 0.567 0.0
H1269 H 0.86035 0.40349 0.5154 0.0
H1270 H 0.90786 0.3955 0.70571 0.0
H1271 H 0.97537 0.40296 0.65146 0.0
H1272 H 0.08026 0.31293 0.46415 0.0
H1273 H 0.13566 0.1719 0.5158 0.0
H1274 H 0.15624 0.27634 0.43526 0.0
H1275 H 0.08771 0.22664 0.56433 0.0
H1276 H 0.13778 0.20634 0.48156 0.0
H1277 H 0.07739 0.27778 0.49696 0.0
C1278 C 0.09651 0.29771 0.46477 0.0
C1279 C 0.11876 0.29795 0.44697 0.0
C1280 C 0.12676 0.21072 0.4997 0.0
C1281 C 0.11494 0.25708 0.48409 0.0
C1282 C 0.12538 0.19111 0.51907 0.0
C1283 C 0.11148 0.19659 0.54278 0.0
C1284 C 0.11369 0.23571 0.50397 0.0
C1285 C 0.09871 0.22178 0.5463 0.0
C1286 C 0.09469 0.27754 0.48342 0.0
C1287 C 0.13859 0.27699 0.44831 0.0
N1288 N 0.09998 0.24041 0.52702 0.0
N1289 N 0.13618 0.25735 0.46653 0.0
H1290 H 0.95233 0.80642 0.71729 0.0
H1291 H 0.08963 0.85858 0.76831 0.0
H1292 H 0.98249 0.88256 0.69512 0.0
H1293 H 0.0405 0.80595 0.81404 0.0
H1294 H 0.05578 0.86024 0.73464 0.0
H1295 H 0.98946 0.79959 0.74715 0.0
C1296 C 0.9666 0.82177 0.71871 0.0
C1297 C 0.96403 0.84523 0.70369 0.0
C1298 C 0.05259 0.84811 0.75194 0.0
C1299 C 0.00701 0.83701 0.73721 0.0
C1300 C 0.07195 0.84697 0.77098 0.0
C1301 C 0.06769 0.83218 0.79392 0.0
C1302 C 0.02904 0.83409 0.75577 0.0
C1303 C 0.04433 0.81774 0.79665 0.0
C1304 C 0.98789 0.8177 0.73561 0.0
C1305 C 0.98371 0.864 0.70592 0.0
N1306 N 0.02579 0.81908 0.77778 0.0
N1307 N 0.00436 0.85946 0.72234 0.0
H1308 H 0.41456 0.74988 0.11922 0.0
H1309 H 0.40785 0.72161 0.96844 0.0
H1310 H 0.38185 0.80929 0.06624 0.0
H1311 H 0.39519 0.66098 0.0273 0.0
H1312 H 0.40646 0.75469 0.0027 0.0
H1313 H 0.41646 0.71746 0.08415 0.0
C1314 C 0.40751 0.75595 0.10022 0.0
C1315 C 0.39713 0.78193 0.0957 0.0
C1316 C 0.40404 0.73409 0.00795 0.0
C1317 C 0.40034 0.74543 0.05539 0.0
C1318 C 0.40466 0.71513 0.98842 0.0
C1319 C 0.40161 0.68821 0.99475 0.0
C1320 C 0.40092 0.72608 0.03407 0.0
C1321 C 0.39824 0.68123 0.02124 0.0
C1322 C 0.40872 0.73755 0.08025 0.0
C1323 C 0.3894 0.78922 0.07051 0.0
N1324 N 0.39815 0.69998 0.03986 0.0
N1325 N 0.39117 0.77104 0.05119 0.0
H1326 H 0.41808 0.10033 0.31399 0.0
H1327 H 0.52524 0.1787 0.22597 0.0
H1328 H 0.43414 0.18215 0.32528 0.0
H1329 H 0.51127 0.09586 0.21679 0.0
H1330 H 0.49051 0.18099 0.26095 0.0
H1331 H 0.45048 0.09892 0.27674 0.0
C1332 C 0.42837 0.11804 0.30836 0.0
C1333 C 0.42349 0.14143 0.32237 0.0
C1334 C 0.49499 0.16232 0.25126 0.0
C1335 C 0.46063 0.14004 0.28015 0.0
C1336 C 0.51494 0.16095 0.23136 0.0
C1337 C 0.52136 0.13699 0.21848 0.0
C1338 C 0.48128 0.13957 0.25843 0.0
C1339 C 0.50689 0.1148 0.22598 0.0
C1340 C 0.44685 0.11726 0.28721 0.0
C1341 C 0.43732 0.16385 0.31467 0.0
N1342 N 0.48764 0.11661 0.24551 0.0
N1343 N 0.45534 0.1626 0.29407 0.0
H1344 H 0.15446 0.80017 0.97004 0.0
H1345 H 0.16661 0.64633 0.00298 0.0
H1346 H 0.13457 0.74289 0.9136 0.0
H1347 H 0.13504 0.70327 0.05939 0.0
H1348 H 0.16549 0.68159 0.96933 0.0
H1349 H 0.15793 0.76457 0.00306 0.0
C1350 C 0.15103 0.78002 0.96466 0.0
C1351 C 0.14443 0.77423 0.9392 0.0
C1352 C 0.15881 0.68623 0.98911 0.0
C1353 C 0.14878 0.73371 0.9764 0.0
C1354 C 0.15932 0.66622 0.00816 0.0
C1355 C 0.15031 0.67195 0.03369 0.0
C1356 C 0.15005 0.71214 0.99598 0.0
C1357 C 0.14197 0.69814 0.0398 0.0
C1358 C 0.15298 0.75984 0.98339 0.0
C1359 C 0.14004 0.74793 0.93303 0.0
N1360 N 0.14211 0.71736 0.02106 0.0
N1361 N 0.14251 0.72849 0.95151 0.0
H1362 H 0.61499 0.88791 0.24256 0.0
H1363 H 0.47382 0.82381 0.26854 0.0
H1364 H 0.58203 0.86969 0.31901 0.0
H1365 H 0.51189 0.83034 0.19215 0.0
H1366 H 0.5162 0.83468 0.28772 0.0
H1367 H 0.57989 0.86265 0.2236 0.0
C1368 C 0.60071 0.87809 0.25534 0.0
C1369 C 0.60159 0.88042 0.28238 0.0
C1370 C 0.51551 0.83324 0.26677 0.0
C1371 C 0.56118 0.85207 0.26102 0.0
C1372 C 0.49138 0.82688 0.25589 0.0
C1373 C 0.48944 0.8264 0.2288 0.0
C1374 C 0.53757 0.83978 0.25037 0.0
C1375 C 0.51267 0.83048 0.21316 0.0
C1376 C 0.58064 0.86376 0.24457 0.0
C1377 C 0.58212 0.86811 0.2981 0.0
N1378 N 0.53568 0.83756 0.22415 0.0
N1379 N 0.56263 0.85459 0.28722 0.0
H1380 H 0.3234 0.33241 0.54908 0.0
H1381 H 0.36849 0.18463 0.50567 0.0
H1382 H 0.36908 0.27699 0.59717 0.0
H1383 H 0.34143 0.24592 0.45153 0.0
H1384 H 0.36526 0.21704 0.54038 0.0
H1385 H 0.32564 0.29967 0.51415 0.0
C1386 C 0.33386 0.31328 0.55218 0.0
C1387 C 0.34633 0.30733 0.57575 0.0
C1388 C 0.36008 0.22341 0.52089 0.0
C1389 C 0.34877 0.26981 0.53628 0.0
C1390 C 0.3621 0.20493 0.50095 0.0
C1391 C 0.35539 0.21247 0.47544 0.0
C1392 C 0.35104 0.24967 0.51548 0.0
C1393 C 0.34653 0.23901 0.47086 0.0
C1394 C 0.33518 0.29465 0.53232 0.0
C1395 C 0.35935 0.28225 0.57913 0.0
N1396 N 0.34459 0.25662 0.49066 0.0
N1397 N 0.36027 0.26439 0.5596 0.0
H1398 H 0.0311 0.16853 0.68879 0.0
H1399 H 0.93846 0.08051 0.78168 0.0
H1400 H 0.04665 0.08431 0.69888 0.0
H1401 H 0.94746 0.16344 0.79511 0.0
H1402 H 0.97376 0.08174 0.7469 0.0
H1403 H 0.99582 0.1675 0.72364 0.0
C1404 C 0.02713 0.1499 0.69853 0.0
C1405 C 0.04194 0.12655 0.69142 0.0
C1406 C 0.96805 0.09964 0.75751 0.0
C1407 C 0.00139 0.12503 0.73052 0.0
C1408 C 0.94799 0.09892 0.77726 0.0
C1409 C 0.94038 0.12185 0.79127 0.0
C1410 C 0.98012 0.1236 0.75142 0.0
C1411 C 0.95295 0.14536 0.78471 0.0
C1412 C 0.00704 0.14928 0.71829 0.0
C1413 C 0.03571 0.10274 0.70406 0.0
N1414 N 0.97216 0.14569 0.76515 0.0
N1415 N 0.01582 0.10255 0.72297 0.0
H1416 H 0.19214 0.53146 0.1735 0.0
H1417 H 0.29277 0.42273 0.1046 0.0
H1418 H 0.19178 0.51411 0.09167 0.0
H1419 H 0.294 0.44126 0.18595 0.0
H1420 H 0.25228 0.45251 0.10037 0.0
H1421 H 0.22565 0.49475 0.1795 0.0
C1422 C 0.199 0.51977 0.15683 0.0
C1423 C 0.18947 0.52604 0.13198 0.0
C1424 C 0.26118 0.4499 0.11922 0.0
C1425 C 0.22785 0.48403 0.13867 0.0
C1426 C 0.28419 0.43296 0.12159 0.0
C1427 C 0.29641 0.42976 0.14563 0.0
C1428 C 0.25055 0.46383 0.14106 0.0
C1429 C 0.2849 0.44332 0.16715 0.0
C1430 C 0.21808 0.49878 0.16027 0.0
C1431 C 0.1986 0.50993 0.11115 0.0
N1432 N 0.26264 0.45994 0.16433 0.0
N1433 N 0.21753 0.48985 0.11491 0.0
H1434 H 0.83547 0.0004 0.83265 0.0
H1435 H 0.68212 0.95837 0.83383 0.0
H1436 H 0.76625 0.0563 0.83652 0.0
H1437 H 0.7502 0.90452 0.85092 0.0
H1438 H 0.71325 0.99385 0.82634 0.0
H1439 H 0.8048 0.96429 0.83054 0.0
C1440 C 0.81385 0.0051 0.8329 0.0
C1441 C 0.80342 0.0314 0.83509 0.0
C1442 C 0.72133 0.9742 0.83156 0.0
C1443 C 0.76831 0.99025 0.83244 0.0
C1444 C 0.70359 0.954 0.836 0.0
C1445 C 0.71353 0.9285 0.84329 0.0
C1446 C 0.74921 0.96883 0.83435 0.0
C1447 C 0.74162 0.9238 0.84516 0.0
C1448 C 0.79639 0.98451 0.83161 0.0
C1449 C 0.77524 0.03637 0.83469 0.0
N1450 N 0.75846 0.94383 0.84087 0.0
N1451 N 0.75866 0.01596 0.83363 0.0
H1452 H 0.79993 0.092 0.4131 0.0
H1453 H 0.76092 0.97151 0.32455 0.0
H1454 H 0.84146 0.07257 0.34033 0.0
H1455 H 0.71401 0.99848 0.39233 0.0
H1456 H 0.79265 0.00613 0.33132 0.0
H1457 H 0.77019 0.05549 0.40727 0.0
C1458 C 0.80282 0.07977 0.396 0.0
C1459 C 0.82309 0.08492 0.37724 0.0
C1460 C 0.77539 0.00446 0.34469 0.0
C1461 C 0.7892 0.04345 0.37019 0.0
C1462 C 0.75735 0.98463 0.3409 0.0
C1463 C 0.73466 0.98219 0.3578 0.0
C1464 C 0.77084 0.02183 0.36565 0.0
C1465 C 0.73095 -0.00011 0.37855 0.0
C1466 C 0.78585 0.05906 0.39259 0.0
C1467 C 0.82603 0.06893 0.35524 0.0
N1468 N 0.74883 0.01889 0.38189 0.0
N1469 N 0.80924 0.04884 0.35228 0.0
H1470 H 0.69927 0.0819 0.12625 0.0
H1471 H 0.74806 0.93218 0.11609 0.0
H1472 H 0.6526 0.02239 0.16502 0.0
H1473 H 0.80506 0.99039 0.13326 0.0
H1474 H 0.71072 0.9652 0.12547 0.0
H1475 H 0.73719 0.04882 0.12039 0.0
C1476 C 0.69708 0.06183 0.13347 0.0
C1477 C 0.67274 0.05457 0.14565 0.0
C1478 C 0.73143 0.9706 0.12728 0.0
C1479 C 0.71547 0.01688 0.1386 0.0
C1480 C 0.75261 0.95189 0.12196 0.0
C1481 C 0.77949 0.95863 0.12427 0.0
C1482 C 0.73733 0.99637 0.13403 0.0
C1483 C 0.78452 0.98452 0.1314 0.0
C1484 C 0.71861 0.04309 0.13015 0.0
C1485 C 0.67083 0.02845 0.15487 0.0
N1486 N 0.76359 0.00262 0.13579 0.0
N1487 N 0.69182 0.01033 0.15079 0.0
H1488 H 0.14386 0.52858 0.6722 0.0
H1489 H 0.29928 0.48551 0.6457 0.0
H1490 H 0.19741 0.5778 0.62762 0.0
H1491 H 0.23709 0.4287 0.65208 0.0
H1492 H 0.26402 0.52131 0.6464 0.0
H1493 H 0.18009 0.49332 0.67332 0.0
C1494 C 0.1633 0.53187 0.66269 0.0
C1495 C 0.16766 0.55572 0.64935 0.0
C1496 C 0.25823 0.50095 0.64767 0.0
C1497 C 0.20913 0.51611 0.65109 0.0
C1498 C 0.27832 0.48043 0.64707 0.0
C1499 C 0.27134 0.45382 0.64879 0.0
C1500 C 0.23097 0.49493 0.65049 0.0
C1501 C 0.24368 0.44876 0.65121 0.0
C1502 C 0.18388 0.51187 0.66333 0.0
C1503 C 0.19332 0.55947 0.63789 0.0
N1504 N 0.22456 0.4691 0.65213 0.0
N1505 N 0.21316 0.53983 0.639 0.0
H1506 H 0.21514 0.42346 0.40138 0.0
H1507 H 0.24958 0.57399 0.37783 0.0
H1508 H 0.16227 0.47791 0.35912 0.0
H1509 H 0.31166 0.51032 0.37778 0.0
H1510 H 0.21523 0.54102 0.37922 0.0
H1511 H 0.24879 0.45745 0.40198 0.0
C1512 C 0.21069 0.44262 0.39228 0.0
C1513 C 0.18626 0.44786 0.37974 0.0
C1514 C 0.23642 0.53442 0.37896 0.0
C1515 C 0.22405 0.48685 0.38097 0.0
C1516 C 0.25615 0.55321 0.37796 0.0
C1517 C 0.28385 0.54516 0.37759 0.0
C1518 C 0.24432 0.50736 0.38015 0.0
C1519 C 0.29074 0.51775 0.37856 0.0
C1520 C 0.22979 0.46193 0.39261 0.0
C1521 C 0.18106 0.47313 0.36874 0.0
N1522 N 0.27116 0.49991 0.37993 0.0
N1523 N 0.19981 0.49177 0.36962 0.0
H1524 H 0.28289 0.57592 0.95214 0.0
H1525 H 0.22563 0.49194 0.8375 0.0
H1526 H 0.32719 0.55822 0.88032 0.0
H1527 H 0.18581 0.50063 0.91324 0.0
H1528 H 0.26152 0.51909 0.85169 0.0
H1529 H 0.24554 0.55053 0.93741 0.0
C1530 C 0.28469 0.56643 0.93338 0.0
C1531 C 0.30789 0.56878 0.9174 0.0
C1532 C 0.24482 0.51518 0.86514 0.0
C1533 C 0.26561 0.54036 0.90025 0.0
C1534 C 0.22436 0.49968 0.85704 0.0
C1535 C 0.20269 0.49401 0.87419 0.0
C1536 C 0.24361 0.52503 0.89056 0.0
C1537 C 0.2019 0.50483 0.89921 0.0
C1538 C 0.26347 0.55212 0.9249 0.0
C1539 C 0.30947 0.55661 0.89311 0.0
N1540 N 0.22213 0.51972 0.90668 0.0
N1541 N 0.28855 0.5429 0.88522 0.0
H1542 H 0.6767 0.80941 0.97775 0.0
H1543 H 0.63719 0.66911 0.02201 0.0
H1544 H 0.63681 0.76453 0.92134 0.0
H1545 H 0.60036 0.73615 0.06329 0.0
H1546 H 0.65012 0.69917 0.98594 0.0
H1547 H 0.66296 0.77759 0.01179 0.0
C1548 C 0.66497 0.79294 0.9726 0.0
C1549 C 0.65699 0.79001 0.947 0.0
C1550 C 0.63924 0.70713 0.00298 0.0
C1551 C 0.64269 0.75315 0.98521 0.0
C1552 C 0.63184 0.69014 0.0234 0.0
C1553 C 0.61827 0.7004 0.04576 0.0
C1554 C 0.63354 0.73446 0.0054 0.0
C1555 C 0.61151 0.72768 0.04665 0.0
C1556 C 0.65736 0.77481 0.99189 0.0
C1557 C 0.64302 0.76757 0.94099 0.0
N1558 N 0.61971 0.74393 0.02695 0.0
N1559 N 0.6363 0.74986 0.96001 0.0
H1560 H 0.56142 0.40023 0.2998 0.0
H1561 H 0.45522 0.32244 0.22085 0.0
H1562 H 0.54573 0.31828 0.31482 0.0
H1563 H 0.45897 0.40765 0.21848 0.0
H1564 H 0.48937 0.32006 0.25402 0.0
H1565 H 0.5252 0.40299 0.26841 0.0
C1566 C 0.55025 0.38284 0.29638 0.0
C1567 C 0.55657 0.35894 0.30954 0.0
C1568 C 0.48263 0.33928 0.2463 0.0
C1569 C 0.51528 0.3618 0.27383 0.0
C1570 C 0.46298 0.3407 0.22745 0.0
C1571 C 0.45411 0.3653 0.21674 0.0
C1572 C 0.49371 0.36261 0.25447 0.0
C1573 C 0.46543 0.38819 0.22578 0.0
C1574 C 0.52961 0.38439 0.27856 0.0
C1575 C 0.54155 0.33695 0.30472 0.0
N1576 N 0.48467 0.38627 0.24401 0.0
N1577 N 0.52167 0.33885 0.28711 0.0
H1578 H 0.86672 0.34171 0.5507 0.0
H1579 H 0.86016 0.19414 0.49918 0.0
H1580 H 0.89383 0.27258 0.59458 0.0
H1581 H 0.84734 0.26472 0.45201 0.0
H1582 H 0.8624 0.2219 0.53769 0.0
H1583 H 0.85004 0.31321 0.51769 0.0
C1584 C 0.86892 0.32044 0.55336 0.0
C1585 C 0.88167 0.30934 0.57511 0.0
C1586 C 0.85858 0.23126 0.51899 0.0
C1587 C 0.86302 0.27652 0.5375 0.0
C1588 C 0.85705 0.21545 0.49713 0.0
C1589 C 0.85381 0.22731 0.47252 0.0
C1590 C 0.85674 0.259 0.51604 0.0
C1591 C 0.85012 0.25494 0.47069 0.0
C1592 C 0.85942 0.30416 0.5346 0.0
C1593 C 0.8841 0.28172 0.57792 0.0
N1594 N 0.85197 0.26988 0.49213 0.0
N1595 N 0.87504 0.26615 0.55913 0.0
H1596 H 0.88271 0.64626 0.76475 0.0
H1597 H 0.01842 0.69419 0.69428 0.0
H1598 H 0.92358 0.71463 0.78791 0.0
H1599 H 0.98787 0.61667 0.68481 0.0
H1600 H 0.97871 0.70636 0.72199 0.0
H1601 H 0.91563 0.63996 0.72835 0.0
C1602 C 0.89841 0.6602 0.76176 0.0
C1603 C 0.90083 0.68079 0.77925 0.0
C1604 C 0.98063 0.68676 0.7137 0.0
C1605 C 0.93849 0.67376 0.73808 0.0
C1606 C 0.00336 0.67972 0.69804 0.0
C1607 C 0.00674 0.65417 0.68764 0.0
C1608 C 0.96105 0.66817 0.71896 0.0
C1609 C 0.98614 0.63655 0.69244 0.0
C1610 C 0.91722 0.65657 0.74114 0.0
C1611 C 0.92132 0.69846 0.77476 0.0
N1612 N 0.96428 0.6438 0.70796 0.0
N1613 N 0.93961 0.6944 0.75469 0.0
H1614 H 0.59592 0.29733 0.46988 0.0
H1615 H 0.66212 0.15971 0.51962 0.0
H1616 H 0.67038 0.26244 0.43583 0.0
H1617 H 0.61125 0.21079 0.56942 0.0
H1618 H 0.66201 0.19487 0.48617 0.0
H1619 H 0.59788 0.26355 0.50437 0.0
C1620 C 0.61279 0.28276 0.46967 0.0
C1621 C 0.63301 0.28286 0.44976 0.0
C1622 C 0.65101 0.19842 0.50448 0.0
C1623 C 0.63495 0.24374 0.48898 0.0
C1624 C 0.65099 0.17838 0.52348 0.0
C1625 C 0.63671 0.18245 0.54725 0.0
C1626 C 0.63622 0.2225 0.50914 0.0
C1627 C 0.6227 0.207 0.5514 0.0
C1628 C 0.6138 0.2634 0.48934 0.0
C1629 C 0.65402 0.26297 0.45038 0.0
N1630 N 0.6226 0.22605 0.53242 0.0
N1631 N 0.65435 0.24415 0.46956 0.0
H1632 H 0.07409 0.44772 0.77599 0.0
H1633 H 0.94574 0.37357 0.72878 0.0
H1634 H 0.03756 0.38484 0.81976 0.0
H1635 H 0.98396 0.43526 0.6843 0.0
H1636 H 0.97728 0.37917 0.76357 0.0
H1637 H 0.03951 0.44519 0.74325 0.0
C1638 C 0.05861 0.43349 0.77864 0.0
C1639 C 0.05853 0.41636 0.8003 0.0
C1640 C 0.97871 0.39153 0.74623 0.0
C1641 C 0.01906 0.41321 0.76321 0.0
C1642 C 0.96061 0.38844 0.72641 0.0
C1643 C 0.96231 0.40383 0.70348 0.0
C1644 C 0.99864 0.4102 0.74315 0.0
C1645 C 0.98219 0.42262 0.70142 0.0
C1646 C 0.03893 0.43199 0.76003 0.0
C1647 C 0.03816 0.39828 0.80315 0.0
N1648 N -0.00041 0.42522 0.72093 0.0
N1649 N 0.01926 0.39708 0.78474 0.0
H1650 H 0.87259 0.72182 0.93317 0.0
H1651 H 0.79056 0.81374 0.03691 0.0
H1652 H 0.78527 0.72664 0.93818 0.0
H1653 H 0.87419 0.82181 0.013 0.0
H1654 H 0.78772 0.77904 0.0042 0.0
H1655 H 0.87318 0.7555 0.96625 0.0
C1656 C 0.8535 0.72986 0.94144 0.0
C1657 C 0.82885 0.72133 0.93308 0.0
C1658 C 0.80659 0.78858 0.00612 0.0
C1659 C 0.82933 0.76028 0.97084 0.0
C1660 C 0.80824 0.80822 0.02477 0.0
C1661 C 0.83257 0.82075 0.02744 0.0
C1662 C 0.82957 0.78129 0.99047 0.0
C1663 C 0.85492 0.81297 0.01129 0.0
C1664 C 0.85383 0.74927 0.96019 0.0
C1665 C 0.80469 0.73281 0.94408 0.0
N1666 N 0.85288 0.79371 0.99361 0.0
N1667 N 0.80551 0.75171 0.96256 0.0
H1668 H 0.45326 0.63507 0.31907 0.0
H1669 H 0.49202 0.64781 0.16858 0.0
H1670 H 0.40542 0.6028 0.26012 0.0
H1671 H 0.55356 0.63534 0.2257 0.0
H1672 H 0.45741 0.64142 0.20278 0.0
H1673 H 0.4883 0.64446 0.28557 0.0
C1674 C 0.45023 0.63002 0.29902 0.0
C1675 C 0.42645 0.61851 0.29208 0.0
C1676 C 0.47853 0.64024 0.20773 0.0
C1677 C 0.4658 0.62955 0.25399 0.0
C1678 C 0.49835 0.64378 0.18825 0.0
C1679 C 0.52591 0.64166 0.19408 0.0
C1680 C 0.48623 0.63507 0.23333 0.0
C1681 C 0.53266 0.63734 0.2202 0.0
C1682 C 0.47008 0.6354 0.28003 0.0
C1683 C 0.4233 0.61221 0.26601 0.0
N1684 N 0.51293 0.63413 0.23888 0.0
N1685 N 0.44268 0.61806 0.24778 0.0
H1686 H 0.80578 0.92643 0.60279 0.0
H1687 H 0.69036 0.02454 0.66598 0.0
H1688 H 0.79973 0.94229 0.68491 0.0
H1689 H 0.71702 0.02976 0.58546 0.0
H1690 H 0.72565 0.98933 0.67312 0.0
H1691 H 0.76833 0.95927 0.59576 0.0
C1692 C 0.79632 0.93674 0.61934 0.0
C1693 C 0.80548 0.93159 0.64447 0.0
C1694 C 0.72368 0.99808 0.65387 0.0
C1695 C 0.76287 0.96902 0.63668 0.0
C1696 C 0.70359 0.01803 0.6498 0.0
C1697 C 0.70077 0.02967 0.62505 0.0
C1698 C 0.74089 0.98967 0.63296 0.0
C1699 C 0.71838 0.02087 0.6047 0.0
C1700 C 0.77508 0.95547 0.61534 0.0
C1701 C 0.79282 0.94546 0.66532 0.0
N1702 N 0.73768 0.00127 0.60907 0.0
N1703 N 0.77204 0.96355 0.66098 0.0
H1704 H 0.07269 0.60906 0.22186 0.0
H1705 H 0.11198 0.45466 0.24199 0.0
H1706 H 0.11341 0.56049 0.16282 0.0
H1707 H 0.09089 0.50729 0.30578 0.0
H1708 H 0.10952 0.49263 0.21203 0.0
H1709 H 0.07599 0.57132 0.25256 0.0
C1710 C 0.08253 0.59047 0.21554 0.0
C1711 C 0.09305 0.58773 0.19006 0.0
C1712 C 0.10545 0.49585 0.2326 0.0
C1713 C 0.09645 0.54461 0.22452 0.0
C1714 C 0.10697 0.47418 0.24975 0.0
C1715 C 0.10161 0.47772 0.27649 0.0
C1716 C 0.09836 0.52124 0.24221 0.0
C1717 C 0.09473 0.50349 0.2853 0.0
C1718 C 0.08433 0.56897 0.23293 0.0
C1719 C 0.10514 0.56323 0.18244 0.0
N1720 N 0.09325 0.52424 0.2682 0.0
N1721 N 0.10647 0.54255 0.19959 0.0
H1722 H 0.77766 0.91313 0.54157 0.0
H1723 H 0.67675 0.8389 0.4531 0.0
H1724 H 0.76974 0.82842 0.54407 0.0
H1725 H 0.70279 0.91756 0.43655 0.0
H1726 H 0.70396 0.83688 0.49219 0.0
H1727 H 0.74357 0.91711 0.50839 0.0
C1728 C 0.76878 0.89536 0.53514 0.0
C1729 C 0.77688 0.87035 0.54536 0.0
C1730 C 0.70353 0.85466 0.48012 0.0
C1731 C 0.73754 0.87486 0.50773 0.0
C1732 C 0.68803 0.85579 0.45798 0.0
C1733 C 0.68796 0.87829 0.44173 0.0
C1734 C 0.71876 0.87631 0.48601 0.0
C1735 C 0.70259 0.89984 0.4487 0.0
C1736 C 0.74921 0.89768 0.51632 0.0
C1737 C 0.76407 0.84811 0.53684 0.0
N1738 N 0.71757 0.89828 0.4703 0.0
N1739 N 0.74514 0.85087 0.51839 0.0
H1740 H 0.42468 0.48966 0.8366 0.0
H1741 H 0.34032 0.43381 0.7211 0.0
H1742 H 0.34853 0.52571 0.81215 0.0
H1743 H 0.41898 0.40131 0.74178 0.0
H1744 H 0.34187 0.4664 0.75582 0.0
H1745 H 0.42189 0.45578 0.8036 0.0
C1746 C 0.40727 0.49036 0.82442 0.0
C1747 C 0.38683 0.51063 0.82716 0.0
C1748 C 0.35881 0.45216 0.75284 0.0
C1749 C 0.38362 0.47195 0.78909 0.0
C1750 C 0.35787 0.43362 0.7331 0.0
C1751 C 0.37961 0.41515 0.72872 0.0
C1752 C 0.38165 0.45209 0.76832 0.0
C1753 C 0.40192 0.41543 0.74466 0.0
C1754 C 0.40577 0.47108 0.80546 0.0
C1755 C 0.36494 0.51069 0.81053 0.0
N1756 N 0.40241 0.43368 0.76376 0.0
N1757 N 0.36391 0.49167 0.79224 0.0
H1758 H 0.81005 0.17202 0.95113 0.0
H1759 H 0.69754 0.09008 0.02845 0.0
H1760 H 0.79235 0.09216 0.93263 0.0
H1761 H 0.71432 0.17063 0.04611 0.0
H1762 H 0.73229 0.09031 0.99349 0.0
H1763 H 0.7753 0.17181 0.98643 0.0
C1764 C 0.79872 0.15449 0.9546 0.0
C1765 C 0.80378 0.13212 0.93912 0.0
C1766 C 0.72839 0.10794 0.00502 0.0
C1767 C 0.76426 0.13155 0.97925 0.0
C1768 C 0.70842 0.10787 0.0249 0.0
C1769 C 0.70292 0.13039 0.04026 0.0
C1770 C 0.743 0.1307 0.00035 0.0
C1771 C 0.71805 0.15271 0.03501 0.0
C1772 C 0.77896 0.15431 0.97468 0.0
C1773 C 0.78884 0.10977 0.94425 0.0
N1774 N 0.73734 0.15231 0.0155 0.0
N1775 N 0.7697 0.11004 0.9639 0.0
H1776 H 0.28507 0.05687 0.45768 0.0
H1777 H 0.18445 0.13486 0.55817 0.0
H1778 H 0.28264 0.14179 0.46492 0.0
H1779 H 0.21151 0.05326 0.57047 0.0
H1780 H 0.21596 0.13726 0.52033 0.0
H1781 H 0.2533 0.05434 0.49541 0.0
C1782 C 0.2778 0.07493 0.46732 0.0
C1783 C 0.28659 0.09953 0.45859 0.0
C1784 C 0.21501 0.11882 0.53129 0.0
C1785 C 0.25011 0.09693 0.50113 0.0
C1786 C 0.19709 0.11748 0.55279 0.0
C1787 C 0.19537 0.09377 0.56711 0.0
C1788 C 0.23108 0.0962 0.52399 0.0
C1789 C 0.21211 0.07176 0.55959 0.0
C1790 C 0.25977 0.07351 0.48876 0.0
C1791 C 0.27635 0.12247 0.47129 0.0
N1792 N 0.22918 0.07343 0.53837 0.0
N1793 N 0.25858 0.12064 0.49193 0.0
H1794 H 0.09103 0.01356 0.71943 0.0
H1795 H 0.17974 0.95538 0.83584 0.0
H1796 H 0.17551 0.02859 0.72646 0.0
H1797 H 0.10874 0.9185 0.81125 0.0
H1798 H 0.17517 0.98756 0.79971 0.0
H1799 H 0.09425 0.98282 0.7565 0.0
C1800 C 0.11032 0.01029 0.72856 0.0
C1801 C 0.13305 0.02376 0.71968 0.0
C1802 C 0.16057 0.97246 0.80225 0.0
C1803 C 0.13658 0.98912 0.76258 0.0
C1804 C 0.16314 0.95426 0.82282 0.0
C1805 C 0.14476 0.9343 0.82608 0.0
C1806 C 0.1392 0.97083 0.7852 0.0
C1807 C 0.12335 0.93364 0.80909 0.0
C1808 C 0.11205 0.99287 0.74985 0.0
C1809 C 0.15731 0.01908 0.73279 0.0
N1810 N 0.12114 0.95166 0.78927 0.0
N1811 N 0.1584 0.00224 0.75362 0.0
H1812 H 0.26889 0.88547 0.10421 0.0
H1813 H 0.25605 0.89075 0.94955 0.0
H1814 H 0.33705 0.87955 0.04933 0.0
H1815 H 0.18886 0.87746 0.00321 0.0
H1816 H 0.28523 0.89444 0.98642 0.0
H1817 H 0.2385 0.88997 0.06774 0.0
C1818 C 0.27749 0.8852 0.08454 0.0
C1819 C 0.30561 0.88198 0.07989 0.0
C1820 C 0.26406 0.89088 0.99012 0.0
C1821 C 0.27097 0.88746 0.03814 0.0
C1822 C 0.24741 0.88867 0.96908 0.0
C1823 C 0.22002 0.88347 0.97326 0.0
C1824 C 0.25327 0.88792 0.01556 0.0
C1825 C 0.2098 0.88162 -0.00097 0.0
C1826 C 0.26014 0.88789 0.06376 0.0
C1827 C 0.31559 0.88232 0.05397 0.0
N1828 N 0.22648 0.88365 0.01921 0.0
N1829 N 0.2983 0.88486 0.03411 0.0
H1830 H 0.39823 0.0179 0.31804 0.0
H1831 H 0.32536 0.94465 0.20515 0.0
H1832 H 0.31429 0.03504 0.30075 0.0
H1833 H 0.40239 0.91823 0.23541 0.0
H1834 H 0.32129 0.97972 0.23805 0.0
H1835 H 0.40066 0.98302 0.28586 0.0
C1836 C 0.38019 0.0142 0.30769 0.0
C1837 C 0.35595 0.02942 0.31236 0.0
C1838 C 0.33907 0.96625 0.23747 0.0
C1839 C 0.3588 0.9896 0.27488 0.0
C1840 C 0.34137 0.94637 0.21873 0.0
C1841 C 0.36434 0.92893 0.21757 0.0
C1842 C 0.35999 0.96857 0.25496 0.0
C1843 C 0.38451 0.93159 0.23561 0.0
C1844 C 0.38166 0.99433 0.28914 0.0
C1845 C 0.3335 0.02404 0.29769 0.0
N1846 N 0.38193 0.95111 0.25347 0.0
N1847 N 0.33547 0.0046 0.2796 0.0
H1848 H 0.54701 0.20907 0.14874 0.0
H1849 H 0.45074 0.30061 0.06007 0.0
H1850 H 0.56404 0.22153 0.06685 0.0
H1851 H 0.44993 0.30597 0.14361 0.0
H1852 H 0.49144 0.27058 0.06166 0.0
H1853 H 0.51058 0.24386 0.14723 0.0
C1854 C 0.54311 0.2194 0.1305 0.0
C1855 C 0.55812 0.21245 0.10782 0.0
C1856 C 0.48252 0.27853 0.07962 0.0
C1857 C 0.51653 0.25183 0.10577 0.0
C1858 C 0.45941 0.2956 0.07867 0.0
C1859 C 0.44736 0.30575 0.10172 0.0
C1860 C 0.49322 0.2713 0.10383 0.0
C1861 C 0.45886 0.29848 0.12545 0.0
C1862 C 0.52239 0.23917 0.1296 0.0
C1863 C 0.55255 0.22628 0.08463 0.0
N1864 N 0.4811 0.28155 0.12593 0.0
N1865 N 0.53192 0.24517 0.0841 0.0
H1866 H 0.9412 0.23014 0.84509 0.0
H1867 H 0.04731 0.30529 0.9261 0.0
H1868 H 0.95433 0.21323 0.92635 0.0
H1869 H 0.04458 0.30765 0.84231 0.0
H1870 H 0.01142 0.27372 0.92759 0.0
H1871 H 0.97657 0.26175 0.84488 0.0
C1872 C 0.9513 0.23337 0.86301 0.0
C1873 C 0.94477 0.21916 0.88582 0.0
C1874 C 0.01883 0.28104 0.9089 0.0
C1875 C 0.98567 0.25494 0.88558 0.0
C1876 C 0.03922 0.29904 0.90805 0.0
C1877 C 0.04889 0.30898 0.88404 0.0
C1878 C 0.00791 0.27324 0.8856 0.0
C1879 C 0.03792 0.30019 0.8612 0.0
C1880 C 0.9717 0.2512 0.8628 0.0
C1881 C 0.9589 0.22371 0.90833 0.0
N1882 N 0.01789 0.28294 0.86255 0.0
N1883 N 0.97874 0.24127 0.90767 0.0
H1884 H 0.05853 0.75172 0.13726 0.0
H1885 H 0.9351 0.82776 0.0667 0.0
H1886 H 0.03061 0.72911 0.06266 0.0
H1887 H 0.966 0.85187 0.13928 0.0
H1888 H 0.97245 0.79385 0.06271 0.0
H1889 H 0.02743 0.79075 0.13633 0.0
C1890 C 0.04613 0.75511 0.12049 0.0
C1891 C 0.04715 0.73696 0.10005 0.0
C1892 C 0.97129 0.80673 0.07937 0.0
C1893 C 0.011 0.78154 0.0991 0.0
C1894 C 0.9501 0.82606 0.08155 0.0
C1895 C 0.9477 0.84232 0.10336 0.0
C1896 C 0.99 0.80367 0.09927 0.0
C1897 C 0.96734 0.83952 0.12223 0.0
C1898 C 0.02821 0.77738 0.12005 0.0
C1899 C 0.03019 0.74228 0.07906 0.0
N1900 N 0.98759 0.82036 0.11988 0.0
N1901 N 0.0127 0.76399 0.07921 0.0
H1902 H 0.47678 0.70495 0.40694 0.0
H1903 H 0.56791 0.79875 0.31799 0.0
H1904 H 0.4614 0.72088 0.32601 0.0
H1905 H 0.56169 0.80361 0.40163 0.0
H1906 H 0.53305 0.76592 0.31969 0.0
H1907 H 0.51233 0.73679 0.40453 0.0
C1908 C 0.481 0.71508 0.38863 0.0
C1909 C 0.46612 0.71033 0.36665 0.0
C1910 C 0.53937 0.77415 0.33765 0.0
C1911 C 0.5068 0.7467 0.36372 0.0
C1912 C 0.55934 0.7927 0.3367 0.0
C1913 C 0.56765 0.80378 0.35972 0.0
C1914 C 0.52802 0.76634 0.36183 0.0
C1915 C 0.55572 0.79558 0.38345 0.0
C1916 C 0.50117 0.73334 0.3873 0.0
C1917 C 0.47225 0.72417 0.34346 0.0
N1918 N 0.53662 0.77725 0.38391 0.0
N1919 N 0.49224 0.74165 0.34255 0.0
H1920 H 0.04203 0.6956 0.63448 0.0
H1921 H 0.92959 0.77924 0.55649 0.0
H1922 H 0.05305 0.71589 0.55321 0.0
H1923 H 0.9404 0.79027 0.63828 0.0
H1924 H 0.97048 0.7493 0.55486 0.0
H1925 H 0.00042 0.72439 0.63642 0.0
C1926 C 0.03558 0.70616 0.61707 0.0
C1927 C 0.05059 0.70325 0.59357 0.0
C1928 C 0.96386 0.75829 0.57314 0.0
C1929 C 0.00319 0.73571 0.5955 0.0
C1930 C 0.94064 0.77527 0.57405 0.0
C1931 C 0.93212 0.78743 0.59743 0.0
C1932 C 0.97814 0.75303 0.59592 0.0
C1933 C 0.94659 0.78131 0.61987 0.0
C1934 C 0.01193 0.72249 0.61817 0.0
C1935 C 0.04162 0.7173 0.57153 0.0
N1936 N 0.96895 0.76449 0.61859 0.0
N1937 N 0.01831 0.7328 0.57295 0.0
H1938 H 0.03454 0.32637 0.30427 0.0
H1939 H 0.95339 0.22729 0.3945 0.0
H1940 H 0.0513 0.31389 0.38531 0.0
H1941 H 0.9686 0.21168 0.31301 0.0
H1942 H 0.98446 0.26331 0.39122 0.0
H1943 H 0.00538 0.28841 0.30654 0.0
C1944 C 0.03216 0.31548 0.32245 0.0
C1945 C 0.04551 0.32288 0.34456 0.0
C1946 C 0.9812 0.25188 0.37409 0.0
C1947 C 0.01187 0.28025 0.34749 0.0
C1948 C 0.96359 0.23132 0.37597 0.0
C1949 C 0.95891 0.21629 0.35407 0.0
C1950 C 0.9937 0.25796 0.34998 0.0
C1951 C 0.97201 0.2227 0.33035 0.0
C1952 C 0.01559 0.29393 0.32374 0.0
C1953 C 0.04138 0.30863 0.36785 0.0
N1954 N 0.98872 0.24325 0.32884 0.0
N1955 N 0.0248 0.28808 0.36876 0.0
H1956 H 0.51616 0.61339 0.88573 0.0
H1957 H 0.52604 0.76584 0.9088 0.0
H1958 H 0.45213 0.66137 0.92346 0.0
H1959 H 0.59722 0.71348 0.89683 0.0
H1960 H 0.49927 0.72737 0.91686 0.0
H1961 H 0.54727 0.6488 0.89191 0.0
C1962 C 0.50895 0.63117 0.89586 0.0
C1963 C 0.4818 0.63477 0.90408 0.0
C1964 C 0.52083 0.72429 0.91281 0.0
C1965 C 0.5166 0.67528 0.91065 0.0
C1966 C 0.53617 0.74629 0.90829 0.0
C1967 C 0.56387 0.74291 0.90165 0.0
C1968 C 0.53316 0.69871 0.9103 0.0
C1969 C 0.57577 0.71701 0.90108 0.0
C1970 C 0.52656 0.65136 0.89934 0.0
C1971 C 0.47304 0.65813 0.91682 0.0
N1972 N 0.56026 0.69587 0.90492 0.0
N1973 N 0.49032 0.67773 0.9194 0.0
H1974 H 0.56803 0.88123 0.78095 0.0
H1975 H 0.65425 0.99818 0.71976 0.0
H1976 H 0.64889 0.89578 0.8031 0.0
H1977 H 0.56896 0.99199 0.70781 0.0
H1978 H 0.65375 0.95863 0.74761 0.0
H1979 H 0.56925 0.91926 0.75059 0.0
C1980 C 0.58608 0.89241 0.77918 0.0
C1981 C 0.60833 0.8857 0.79444 0.0
C1982 C 0.63513 0.96593 0.73891 0.0
C1983 C 0.60999 0.92894 0.76007 0.0
C1984 C 0.63534 0.98866 0.72315 0.0
C1985 C 0.61156 0.9986 0.71151 0.0
C1986 C 0.611 0.95287 0.74302 0.0
C1987 C 0.58784 0.98496 0.71615 0.0
C1988 C 0.58678 0.91408 0.76199 0.0
C1989 C 0.63137 0.9005 0.79152 0.0
N1990 N 0.58817 0.96282 0.73154 0.0
N1991 N 0.63158 0.92153 0.77473 0.0
H1992 H 0.1827 0.34275 0.94972 0.0
H1993 H 0.28984 0.41638 0.03178 0.0
H1994 H 0.19988 0.42478 0.93776 0.0
H1995 H 0.28358 0.33146 0.03311 0.0
H1996 H 0.25536 0.42026 -0.00098 0.0
H1997 H 0.2177 0.33858 0.98241 0.0
C1998 C 0.19394 0.35983 0.95408 0.0
C1999 C 0.18869 0.38407 0.94114 0.0
C2000 C 0.26158 0.40077 0.00643 0.0
C2001 C 0.22843 0.37967 0.97839 0.0
C2002 C 0.28143 0.3985 0.02505 0.0
C2003 C 0.28978 0.37352 0.03525 0.0
C2004 C 0.24978 0.37793 0.99798 0.0
C2005 C 0.27759 0.35115 0.02612 0.0
C2006 C 0.21387 0.3575 0.97264 0.0
C2007 C 0.20351 0.40576 0.94742 0.0
N2008 N 0.25821 0.35389 0.00806 0.0
N2009 N 0.22272 0.40307 0.96564 0.0
H2010 H 0.92162 0.099 0.25793 0.0
H2011 H 0.86999 0.95834 0.22864 0.0
H2012 H 0.89772 0.0449 0.31922 0.0
H2013 H 0.92864 0.99493 0.17728 0.0
H2014 H 0.87749 0.99114 0.26134 0.0
H2015 H 0.9216 0.06271 0.22673 0.0
C2016 C 0.9166 0.07942 0.26477 0.0
C2017 C 0.90974 0.07478 0.29107 0.0
C2018 C 0.88888 0.99179 0.24297 0.0
C2019 C 0.90928 0.03359 0.25574 0.0
C2020 C 0.88477 0.97294 0.22429 0.0
C2021 C 0.8986 0.9738 0.19996 0.0
C2022 C 0.90655 0.012 0.23721 0.0
C2023 C 0.91701 0.99375 0.19544 0.0
C2024 C 0.9167 0.05877 0.24708 0.0
C2025 C 0.90338 0.04914 0.2991 0.0
N2026 N 0.92021 0.01227 0.21377 0.0
N2027 N 0.90298 0.02954 0.28143 0.0
H2028 H 0.19009 0.61938 0.50701 0.0
H2029 H 0.34309 0.65715 0.48372 0.0
H2030 H 0.24254 0.633 0.5702 0.0
H2031 H 0.29807 0.6199 0.42567 0.0
H2032 H 0.30589 0.65042 0.51567 0.0
H2033 H 0.22893 0.62099 0.47661 0.0
C2034 C 0.20979 0.62239 0.51458 0.0
C2035 C 0.21295 0.62619 0.54126 0.0
C2036 C 0.30426 0.6435 0.49601 0.0
C2037 C 0.25743 0.62865 0.5064 0.0
C2038 C 0.32544 0.64729 0.4779 0.0
C2039 C 0.32348 0.63884 0.45232 0.0
C2040 C 0.28093 0.63157 0.4882 0.0
C2041 C 0.30015 0.62661 0.44535 0.0
C2042 C 0.23195 0.62346 0.49716 0.0
C2043 C 0.23899 0.63051 0.54977 0.0
N2044 N 0.27966 0.62345 0.46319 0.0
N2045 N 0.26018 0.63182 0.53237 0.0
H2046 H 0.70685 0.56574 0.0179 0.0
H2047 H 0.79044 0.64621 0.90982 0.0
H2048 H 0.7198 0.64929 0.02229 0.0
H2049 H 0.77799 0.56277 0.90506 0.0
H2050 H 0.76679 0.64716 0.95244 0.0
H2051 H 0.73552 0.56342 0.97821 0.0
C2052 C 0.71591 0.58356 0.01059 0.0
C2053 C 0.71081 0.60779 0.02329 0.0
C2054 C 0.76927 0.62858 0.9422 0.0
C2055 C 0.74353 0.60531 0.97789 0.0
C2056 C 0.78265 0.6281 0.91792 0.0
C2057 C 0.78597 0.60439 0.9042 0.0
C2058 C 0.75903 0.60516 0.95271 0.0
C2059 C 0.77574 0.58137 0.91526 0.0
C2060 C 0.73229 0.58222 0.98797 0.0
C2061 C 0.72336 0.63017 0.01323 0.0
N2062 N 0.7626 0.58232 0.93893 0.0
N2063 N 0.73895 0.62844 0.99098 0.0
H2064 H 0.59465 0.46583 0.27674 0.0
H2065 H 0.67354 0.53309 0.15628 0.0
H2066 H 0.68017 0.4512 0.25964 0.0
H2067 H 0.59256 0.55802 0.18219 0.0
H2068 H 0.67506 0.49952 0.19138 0.0
H2069 H 0.59237 0.49688 0.23993 0.0
C2070 C 0.61301 0.46928 0.26539 0.0
C2071 C 0.63769 0.45595 0.27146 0.0
C2072 C 0.6569 0.51223 0.18935 0.0
C2073 C 0.63506 0.49117 0.22889 0.0
C2074 C 0.65604 0.53122 0.16932 0.0
C2075 C 0.63295 0.54819 0.16666 0.0
C2076 C 0.63442 0.51019 0.20663 0.0
C2077 C 0.6107 0.54518 0.18381 0.0
C2078 C 0.61164 0.48688 0.24424 0.0
C2079 C 0.66065 0.46079 0.25559 0.0
N2080 N 0.61199 0.52658 0.20317 0.0
N2081 N 0.65878 0.47801 0.23506 0.0
H2082 H 0.81954 0.42548 0.49801 0.0
H2083 H 0.70417 0.3472 0.43162 0.0
H2084 H 0.79163 0.35084 0.52726 0.0
H2085 H 0.73091 0.42239 0.4033 0.0
H2086 H 0.73777 0.34701 0.46557 0.0
H2087 H 0.78896 0.42363 0.46194 0.0
C2088 C 0.80711 0.40859 0.49675 0.0
C2089 C 0.80808 0.38833 0.51578 0.0
C2090 C 0.73642 0.36353 0.45191 0.0
C2091 C 0.77279 0.3862 0.47459 0.0
C2092 C 0.71733 0.36357 0.43258 0.0
C2093 C 0.71491 0.38489 0.41495 0.0
C2094 C 0.75314 0.38501 0.45353 0.0
C2095 C 0.73226 0.40569 0.41674 0.0
C2096 C 0.78954 0.40762 0.47621 0.0
C2097 C 0.79124 0.36711 0.51329 0.0
N2098 N 0.75061 0.4053 0.4358 0.0
N2099 N 0.77428 0.36662 0.49311 0.0
H2100 H 0.8496 0.60097 0.71435 0.0
H2101 H 0.90678 0.45932 0.66348 0.0
H2102 H 0.88664 0.53955 0.76289 0.0
H2103 H 0.85066 0.51003 0.62091 0.0
H2104 H 0.90842 0.49356 0.69645 0.0
H2105 H 0.85761 0.57221 0.67671 0.0
C2106 C 0.85942 0.58149 0.71713 0.0
C2107 C 0.8672 0.57259 0.74193 0.0
C2108 C 0.89606 0.49742 0.67972 0.0
C2109 C 0.87692 0.53994 0.69888 0.0
C2110 C 0.8953 0.47802 0.66091 0.0
C2111 C 0.87856 0.48215 0.63975 0.0
C2112 C 0.87982 0.52097 0.67728 0.0
C2113 C 0.86382 0.50641 0.6371 0.0
C2114 C 0.86416 0.5652 0.6956 0.0
C2115 C 0.88049 0.54743 0.74419 0.0
N2116 N 0.86457 0.52494 0.65587 0.0
N2117 N 0.88479 0.53196 0.72298 0.0
H2118 H 0.57309 0.18417 0.63043 0.0
H2119 H 0.41944 0.23743 0.65285 0.0
H2120 H 0.51085 0.13482 0.66106 0.0
H2121 H 0.48623 0.28908 0.65016 0.0
H2122 H 0.45171 0.19922 0.65049 0.0
H2123 H 0.54048 0.22256 0.63177 0.0
C2124 C 0.55243 0.1815 0.63725 0.0
C2125 C 0.54441 0.15643 0.64542 0.0
C2126 C 0.45926 0.21894 0.65047 0.0
C2127 C 0.50716 0.19997 0.64701 0.0
C2128 C 0.44086 0.24083 0.652 0.0
C2129 C 0.45002 0.26669 0.65194 0.0
C2130 C 0.48709 0.22281 0.64852 0.0
C2131 C 0.47809 0.26965 0.64998 0.0
C2132 C 0.53392 0.20333 0.6381 0.0
C2133 C 0.51758 0.15384 0.65428 0.0
N2134 N 0.49561 0.24799 0.64831 0.0
N2135 N 0.49983 0.17536 0.65475 0.0
loop_
_geom_bond_atom_site_label_1
_geom_bond_atom_site_label_2
_geom_bond_distance
_geom_bond_site_symmetry_2
_ccdc_geom_bond_type
C0 C1 1.443 . S
C0 N4 1.376 . S
C0 C38 1.389 . S
C1 C0 1.443 . S
C1 C2 1.340 . S
C1 H41 0.951 . S
C2 C1 1.340 . S
C2 C3 1.439 . S
C2 H42 0.950 . S
C3 C2 1.439 . S
C3 N4 1.374 . S
C3 C37 1.395 . S
N4 C0 1.376 . S
N4 C3 1.374 . S
N4 Co5 2.008 . S
Co5 N4 2.008 . S
Co5 N6 1.995 . S
Co5 N11 2.008 . S
Co5 N16 1.995 . S
Co5 N21 2.282 . S
Co5 N27 2.282 . S
N6 Co5 1.995 . S
N6 C7 1.376 . S
N6 C10 1.383 . S
C7 N6 1.376 . S
C7 C8 1.446 . S
C7 C37 1.391 . S
C8 C7 1.446 . S
C8 C9 1.339 . S
C8 H43 0.949 . S
C9 C8 1.339 . S
C9 C10 1.439 . S
C9 H44 0.950 . S
C10 N6 1.383 . S
C10 C9 1.439 . S
C10 C39 1.392 . S
N11 Co5 2.008 . S
N11 C12 1.376 . S
N11 C15 1.374 . S
C12 N11 1.376 . S
C12 C13 1.443 . S
C12 C39 1.389 . S
C13 C12 1.443 . S
C13 C14 1.340 . S
C13 H45 0.951 . S
C14 C13 1.340 . S
C14 C15 1.439 . S
C14 H46 0.950 . S
C15 N11 1.374 . S
C15 C14 1.439 . S
C15 C40 1.395 . S
N16 Co5 1.995 . S
N16 C17 1.376 . S
N16 C20 1.383 . S
C17 N16 1.376 . S
C17 C18 1.446 . S
C17 C40 1.391 . S
C18 C17 1.446 . S
C18 C19 1.339 . S
C18 H47 0.949 . S
C19 C18 1.339 . S
C19 C20 1.439 . S
C19 H48 0.950 . S
C20 N16 1.383 . S
C20 C19 1.439 . S
C20 C38 1.392 . S
N21 Co5 2.282 . S
N21 C24 1.332 . S
N21 C26 1.332 . S
C22 C23 1.386 . S
C22 C25 1.388 . S
C23 C22 1.386 . S
C23 C24 1.382 . S
C23 H49 0.950 . S
C24 N21 1.332 . S
C24 C23 1.382 . S
C24 H35 0.952 . S
C25 C22 1.388 . S
C25 C26 1.382 . S
C25 H50 0.950 . S
C26 N21 1.332 . S
C26 C25 1.382 . S
C26 H36 0.948 . S
N27 Co5 2.282 . S
N27 C31 1.332 . S
N27 C32 1.332 . S
C28 C29 1.388 . S
C28 C32 1.382 . S
C28 H51 0.950 . S
C29 C28 1.388 . S
C29 C30 1.386 . S
C30 C29 1.386 . S
C30 C31 1.382 . S
C30 H52 0.950 . S
C31 N27 1.332 . S
C31 C30 1.382 . S
C31 H33 0.952 . S
C32 N27 1.332 . S
C32 C28 1.382 . S
C32 H34 0.948 . S
H33 C31 0.952 . S
H34 C32 0.948 . S
H35 C24 0.952 . S
H36 C26 0.948 . S
C37 C3 1.395 . S
C37 C7 1.391 . S
C38 C0 1.389 . S
C38 C20 1.392 . S
C39 C10 1.392 . S
C39 C12 1.389 . S
C40 C15 1.395 . S
C40 C17 1.391 . S
H41 C1 0.951 . S
H42 C2 0.950 . S
H43 C8 0.949 . S
H44 C9 0.950 . S
H45 C13 0.951 . S
H46 C14 0.950 . S
H47 C18 0.949 . S
H48 C19 0.950 . S
H49 C23 0.950 . S
H50 C25 0.950 . S
H51 C28 0.950 . S
H52 C30 0.950 . S
C53 C54 1.443 . S
C53 N57 1.376 . S
C53 C91 1.389 . S
C54 C53 1.443 . S
C54 C55 1.340 . S
C54 H94 0.951 . S
C55 C54 1.340 . S
C55 C56 1.439 . S
C55 H95 0.950 . S
C56 C55 1.439 . S
C56 N57 1.374 . S
C56 C90 1.395 . S
N57 C53 1.376 . S
N57 C56 1.374 . S
N57 Co58 2.008 . S
Co58 N57 2.008 . S
Co58 N59 1.995 . S
Co58 N64 2.008 . S
Co58 N69 1.995 . S
Co58 N74 2.282 . S
Co58 N80 2.282 . S
N59 Co58 1.995 . S
N59 C60 1.376 . S
N59 C63 1.383 . S
C60 N59 1.376 . S
C60 C61 1.446 . S
C60 C90 1.391 . S
C61 C60 1.446 . S
C61 C62 1.339 . S
C61 H96 0.949 . S
C62 C61 1.339 . S
C62 C63 1.439 . S
C62 H97 0.950 . S
C63 N59 1.383 . S
C63 C62 1.439 . S
C63 C92 1.392 . S
N64 Co58 2.008 . S
N64 C65 1.376 . S
N64 C68 1.374 . S
C65 N64 1.376 . S
C65 C66 1.443 . S
C65 C92 1.389 . S
C66 C65 1.443 . S
C66 C67 1.340 . S
C66 H98 0.951 . S
C67 C66 1.340 . S
C67 C68 1.439 . S
C67 H99 0.950 . S
C68 N64 1.374 . S
C68 C67 1.439 . S
C68 C93 1.395 . S
N69 Co58 1.995 . S
N69 C70 1.376 . S
N69 C73 1.383 . S
C70 N69 1.376 . S
C70 C71 1.446 . S
C70 C93 1.391 . S
C71 C70 1.446 . S
C71 C72 1.339 . S
C71 H100 0.949 . S
C72 C71 1.339 . S
C72 C73 1.439 . S
C72 H101 0.950 . S
C73 N69 1.383 . S
C73 C72 1.439 . S
C73 C91 1.392 . S
N74 Co58 2.282 . S
N74 C77 1.332 . S
N74 C79 1.332 . S
C75 C76 1.386 . S
C75 C78 1.388 . S
C76 C75 1.386 . S
C76 C77 1.382 . S
C76 H102 0.950 . S
C77 N74 1.332 . S
C77 C76 1.382 . S
C77 H88 0.952 . S
C78 C75 1.388 . S
C78 C79 1.382 . S
C78 H103 0.950 . S
C79 N74 1.332 . S
C79 C78 1.382 . S
C79 H89 0.948 . S
N80 Co58 2.282 . S
N80 C84 1.332 . S
N80 C85 1.332 . S
C81 C82 1.388 . S
C81 C85 1.382 . S
C81 H104 0.950 . S
C82 C81 1.388 . S
C82 C83 1.386 . S
C83 C82 1.386 . S
C83 C84 1.382 . S
C83 H105 0.950 . S
C84 N80 1.332 . S
C84 C83 1.382 . S
C84 H86 0.952 . S
C85 N80 1.332 . S
C85 C81 1.382 . S
C85 H87 0.948 . S
H86 C84 0.952 . S
H87 C85 0.948 . S
H88 C77 0.952 . S
H89 C79 0.948 . S
C90 C56 1.395 . S
C90 C60 1.391 . S
C91 C53 1.389 . S
C91 C73 1.392 . S
C92 C63 1.392 . S
C92 C65 1.389 . S
C93 C68 1.395 . S
C93 C70 1.391 . S
H94 C54 0.951 . S
H95 C55 0.950 . S
H96 C61 0.949 . S
H97 C62 0.950 . S
H98 C66 0.951 . S
H99 C67 0.950 . S
H100 C71 0.949 . S
H101 C72 0.950 . S
H102 C76 0.950 . S
H103 C78 0.950 . S
H104 C81 0.950 . S
H105 C83 0.950 . S
C106 C107 1.443 . S
C106 N110 1.376 . S
C106 C144 1.389 . S
C107 C106 1.443 . S
C107 C108 1.340 . S
C107 H147 0.951 . S
C108 C107 1.340 . S
C108 C109 1.439 . S
C108 H148 0.950 . S
C109 C108 1.439 . S
C109 N110 1.374 . S
C109 C143 1.395 . S
N110 C106 1.376 . S
N110 C109 1.374 . S
N110 Co111 2.008 . S
Co111 N110 2.008 . S
Co111 N112 1.995 . S
Co111 N117 2.008 . S
Co111 N122 1.995 . S
Co111 N127 2.282 . S
Co111 N133 2.282 . S
N112 Co111 1.995 . S
N112 C113 1.376 . S
N112 C116 1.383 . S
C113 N112 1.376 . S
C113 C114 1.446 . S
C113 C143 1.391 . S
C114 C113 1.446 . S
C114 C115 1.339 . S
C114 H149 0.949 . S
C115 C114 1.339 . S
C115 C116 1.439 . S
C115 H150 0.950 . S
C116 N112 1.383 . S
C116 C115 1.439 . S
C116 C145 1.392 . S
N117 Co111 2.008 . S
N117 C118 1.376 . S
N117 C121 1.374 . S
C118 N117 1.376 . S
C118 C119 1.443 . S
C118 C145 1.389 . S
C119 C118 1.443 . S
C119 C120 1.340 . S
C119 H151 0.951 . S
C120 C119 1.340 . S
C120 C121 1.439 . S
C120 H152 0.950 . S
C121 N117 1.374 . S
C121 C120 1.439 . S
C121 C146 1.395 . S
N122 Co111 1.995 . S
N122 C123 1.376 . S
N122 C126 1.383 . S
C123 N122 1.376 . S
C123 C124 1.446 . S
C123 C146 1.391 . S
C124 C123 1.446 . S
C124 C125 1.339 . S
C124 H153 0.949 . S
C125 C124 1.339 . S
C125 C126 1.439 . S
C125 H154 0.950 . S
C126 N122 1.383 . S
C126 C125 1.439 . S
C126 C144 1.392 . S
N127 Co111 2.282 . S
N127 C130 1.332 . S
N127 C132 1.332 . S
C128 C129 1.386 . S
C128 C131 1.388 . S
C129 C128 1.386 . S
C129 C130 1.382 . S
C129 H155 0.950 . S
C130 N127 1.332 . S
C130 C129 1.382 . S
C130 H141 0.952 . S
C131 C128 1.388 . S
C131 C132 1.382 . S
C131 H156 0.950 . S
C132 N127 1.332 . S
C132 C131 1.382 . S
C132 H142 0.948 . S
N133 Co111 2.282 . S
N133 C137 1.332 . S
N133 C138 1.332 . S
C134 C135 1.388 . S
C134 C138 1.382 . S
C134 H157 0.950 . S
C135 C134 1.388 . S
C135 C136 1.386 . S
C136 C135 1.386 . S
C136 C137 1.382 . S
C136 H158 0.950 . S
C137 N133 1.332 . S
C137 C136 1.382 . S
C137 H139 0.952 . S
C138 N133 1.332 . S
C138 C134 1.382 . S
C138 H140 0.948 . S
H139 C137 0.952 . S
H140 C138 0.948 . S
H141 C130 0.952 . S
H142 C132 0.948 . S
C143 C109 1.395 . S
C143 C113 1.391 . S
C144 C106 1.389 . S
C144 C126 1.392 . S
C145 C116 1.392 . S
C145 C118 1.389 . S
C146 C121 1.395 . S
C146 C123 1.391 . S
H147 C107 0.951 . S
H148 C108 0.950 . S
H149 C114 0.949 . S
H150 C115 0.950 . S
H151 C119 0.951 . S
H152 C120 0.950 . S
H153 C124 0.949 . S
H154 C125 0.950 . S
H155 C129 0.950 . S
H156 C131 0.950 . S
H157 C134 0.950 . S
H158 C136 0.950 . S
C159 C160 1.443 . S
C159 N163 1.376 . S
C159 C197 1.389 . S
C160 C159 1.443 . S
C160 C161 1.340 . S
C160 H200 0.951 . S
C161 C160 1.340 . S
C161 C162 1.439 . S
C161 H201 0.950 . S
C162 C161 1.439 . S
C162 N163 1.374 . S
C162 C196 1.395 . S
N163 C159 1.376 . S
N163 C162 1.374 . S
N163 Co164 2.008 . S
Co164 N163 2.008 . S
Co164 N165 1.995 . S
Co164 N170 2.008 . S
Co164 N175 1.995 . S
Co164 N180 2.282 . S
Co164 N186 2.282 . S
N165 Co164 1.995 . S
N165 C166 1.376 . S
N165 C169 1.383 . S
C166 N165 1.376 . S
C166 C167 1.446 . S
C166 C196 1.391 . S
C167 C166 1.446 . S
C167 C168 1.339 . S
C167 H202 0.949 . S
C168 C167 1.339 . S
C168 C169 1.439 . S
C168 H203 0.950 . S
C169 N165 1.383 . S
C169 C168 1.439 . S
C169 C198 1.392 . S
N170 Co164 2.008 . S
N170 C171 1.376 . S
N170 C174 1.374 . S
C171 N170 1.376 . S
C171 C172 1.443 . S
C171 C198 1.389 . S
C172 C171 1.443 . S
C172 C173 1.340 . S
C172 H204 0.951 . S
C173 C172 1.340 . S
C173 C174 1.439 . S
C173 H205 0.950 . S
C174 N170 1.374 . S
C174 C173 1.439 . S
C174 C199 1.395 . S
N175 Co164 1.995 . S
N175 C176 1.376 . S
N175 C179 1.383 . S
C176 N175 1.376 . S
C176 C177 1.446 . S
C176 C199 1.391 . S
C177 C176 1.446 . S
C177 C178 1.339 . S
C177 H206 0.949 . S
C178 C177 1.339 . S
C178 C179 1.439 . S
C178 H207 0.950 . S
C179 N175 1.383 . S
C179 C178 1.439 . S
C179 C197 1.392 . S
N180 Co164 2.282 . S
N180 C183 1.332 . S
N180 C185 1.332 . S
C181 C182 1.386 . S
C181 C184 1.388 . S
C182 C181 1.386 . S
C182 C183 1.382 . S
C182 H208 0.950 . S
C183 N180 1.332 . S
C183 C182 1.382 . S
C183 H194 0.952 . S
C184 C181 1.388 . S
C184 C185 1.382 . S
C184 H209 0.950 . S
C185 N180 1.332 . S
C185 C184 1.382 . S
C185 H195 0.948 . S
N186 Co164 2.282 . S
N186 C190 1.332 . S
N186 C191 1.332 . S
C187 C188 1.388 . S
C187 C191 1.382 . S
C187 H210 0.950 . S
C188 C187 1.388 . S
C188 C189 1.386 . S
C189 C188 1.386 . S
C189 C190 1.382 . S
C189 H211 0.950 . S
C190 N186 1.332 . S
C190 C189 1.382 . S
C190 H192 0.952 . S
C191 N186 1.332 . S
C191 C187 1.382 . S
C191 H193 0.948 . S
H192 C190 0.952 . S
H193 C191 0.948 . S
H194 C183 0.952 . S
H195 C185 0.948 . S
C196 C162 1.395 . S
C196 C166 1.391 . S
C197 C159 1.389 . S
C197 C179 1.392 . S
C198 C169 1.392 . S
C198 C171 1.389 . S
C199 C174 1.395 . S
C199 C176 1.391 . S
H200 C160 0.951 . S
H201 C161 0.950 . S
H202 C167 0.949 . S
H203 C168 0.950 . S
H204 C172 0.951 . S
H205 C173 0.950 . S
H206 C177 0.949 . S
H207 C178 0.950 . S
H208 C182 0.950 . S
H209 C184 0.950 . S
H210 C187 0.950 . S
H211 C189 0.950 . S
C212 C213 1.443 . S
C212 N216 1.376 . S
C212 C250 1.389 . S
C213 C212 1.443 . S
C213 C214 1.340 . S
C213 H253 0.951 . S
C214 C213 1.340 . S
C214 C215 1.439 . S
C214 H254 0.950 . S
C215 C214 1.439 . S
C215 N216 1.374 . S
C215 C249 1.395 . S
N216 C212 1.376 . S
N216 C215 1.374 . S
N216 Co217 2.008 . S
Co217 N216 2.008 . S
Co217 N218 1.995 . S
Co217 N223 2.008 . S
Co217 N228 1.995 . S
Co217 N233 2.282 . S
Co217 N239 2.282 . S
N218 Co217 1.995 . S
N218 C219 1.376 . S
N218 C222 1.383 . S
C219 N218 1.376 . S
C219 C220 1.446 . S
C219 C249 1.391 . S
C220 C219 1.446 . S
C220 C221 1.339 . S
C220 H255 0.949 . S
C221 C220 1.339 . S
C221 C222 1.439 . S
C221 H256 0.950 . S
C222 N218 1.383 . S
C222 C221 1.439 . S
C222 C251 1.392 . S
N223 Co217 2.008 . S
N223 C224 1.376 . S
N223 C227 1.374 . S
C224 N223 1.376 . S
C224 C225 1.443 . S
C224 C251 1.389 . S
C225 C224 1.443 . S
C225 C226 1.340 . S
C225 H257 0.951 . S
C226 C225 1.340 . S
C226 C227 1.439 . S
C226 H258 0.950 . S
C227 N223 1.374 . S
C227 C226 1.439 . S
C227 C252 1.395 . S
N228 Co217 1.995 . S
N228 C229 1.376 . S
N228 C232 1.383 . S
C229 N228 1.376 . S
C229 C230 1.446 . S
C229 C252 1.391 . S
C230 C229 1.446 . S
C230 C231 1.339 . S
C230 H259 0.949 . S
C231 C230 1.339 . S
C231 C232 1.439 . S
C231 H260 0.950 . S
C232 N228 1.383 . S
C232 C231 1.439 . S
C232 C250 1.392 . S
N233 Co217 2.282 . S
N233 C236 1.332 . S
N233 C238 1.332 . S
C234 C235 1.386 . S
C234 C237 1.388 . S
C235 C234 1.386 . S
C235 C236 1.382 . S
C235 H261 0.950 . S
C236 N233 1.332 . S
C236 C235 1.382 . S
C236 H247 0.952 . S
C237 C234 1.388 . S
C237 C238 1.382 . S
C237 H262 0.950 . S
C238 N233 1.332 . S
C238 C237 1.382 . S
C238 H248 0.948 . S
N239 Co217 2.282 . S
N239 C243 1.332 . S
N239 C244 1.332 . S
C240 C241 1.388 . S
C240 C244 1.382 . S
C240 H263 0.950 . S
C241 C240 1.388 . S
C241 C242 1.386 . S
C242 C241 1.386 . S
C242 C243 1.382 . S
C242 H264 0.950 . S
C243 N239 1.332 . S
C243 C242 1.382 . S
C243 H245 0.952 . S
C244 N239 1.332 . S
C244 C240 1.382 . S
C244 H246 0.948 . S
H245 C243 0.952 . S
H246 C244 0.948 . S
H247 C236 0.952 . S
H248 C238 0.948 . S
C249 C215 1.395 . S
C249 C219 1.391 . S
C250 C212 1.389 . S
C250 C232 1.392 . S
C251 C222 1.392 . S
C251 C224 1.389 . S
C252 C227 1.395 . S
C252 C229 1.391 . S
H253 C213 0.951 . S
H254 C214 0.950 . S
H255 C220 0.949 . S
H256 C221 0.950 . S
H257 C225 0.951 . S
H258 C226 0.950 . S
H259 C230 0.949 . S
H260 C231 0.950 . S
H261 C235 0.950 . S
H262 C237 0.950 . S
H263 C240 0.950 . S
H264 C242 0.950 . S
C265 C266 1.443 . S
C265 N269 1.376 . S
C265 C303 1.389 . S
C266 C265 1.443 . S
C266 C267 1.340 . S
C266 H306 0.951 . S
C267 C266 1.340 . S
C267 C268 1.439 . S
C267 H307 0.950 . S
C268 C267 1.439 . S
C268 N269 1.374 . S
C268 C302 1.395 . S
N269 C265 1.376 . S
N269 C268 1.374 . S
N269 Co270 2.008 . S
Co270 N269 2.008 . S
Co270 N271 1.995 . S
Co270 N276 2.008 . S
Co270 N281 1.995 . S
Co270 N286 2.282 . S
Co270 N292 2.282 . S
N271 Co270 1.995 . S
N271 C272 1.376 . S
N271 C275 1.383 . S
C272 N271 1.376 . S
C272 C273 1.446 . S
C272 C302 1.391 . S
C273 C272 1.446 . S
C273 C274 1.339 . S
C273 H308 0.949 . S
C274 C273 1.339 . S
C274 C275 1.439 . S
C274 H309 0.950 . S
C275 N271 1.383 . S
C275 C274 1.439 . S
C275 C304 1.392 . S
N276 Co270 2.008 . S
N276 C277 1.376 . S
N276 C280 1.374 . S
C277 N276 1.376 . S
C277 C278 1.443 . S
C277 C304 1.389 . S
C278 C277 1.443 . S
C278 C279 1.340 . S
C278 H310 0.951 . S
C279 C278 1.340 . S
C279 C280 1.439 . S
C279 H311 0.950 . S
C280 N276 1.374 . S
C280 C279 1.439 . S
C280 C305 1.395 . S
N281 Co270 1.995 . S
N281 C282 1.376 . S
N281 C285 1.383 . S
C282 N281 1.376 . S
C282 C283 1.446 . S
C282 C305 1.391 . S
C283 C282 1.446 . S
C283 C284 1.339 . S
C283 H312 0.949 . S
C284 C283 1.339 . S
C284 C285 1.439 . S
C284 H313 0.950 . S
C285 N281 1.383 . S
C285 C284 1.439 . S
C285 C303 1.392 . S
N286 Co270 2.282 . S
N286 C289 1.332 . S
N286 C291 1.332 . S
C287 C288 1.386 . S
C287 C290 1.388 . S
C288 C287 1.386 . S
C288 C289 1.382 . S
C288 H314 0.950 . S
C289 N286 1.332 . S
C289 C288 1.382 . S
C289 H300 0.952 . S
C290 C287 1.388 . S
C290 C291 1.382 . S
C290 H315 0.950 . S
C291 N286 1.332 . S
C291 C290 1.382 . S
C291 H301 0.948 . S
N292 Co270 2.282 . S
N292 C296 1.332 . S
N292 C297 1.332 . S
C293 C294 1.388 . S
C293 C297 1.382 . S
C293 H316 0.950 . S
C294 C293 1.388 . S
C294 C295 1.386 . S
C295 C294 1.386 . S
C295 C296 1.382 . S
C295 H317 0.950 . S
C296 N292 1.332 . S
C296 C295 1.382 . S
C296 H298 0.952 . S
C297 N292 1.332 . S
C297 C293 1.382 . S
C297 H299 0.948 . S
H298 C296 0.952 . S
H299 C297 0.948 . S
H300 C289 0.952 . S
H301 C291 0.948 . S
C302 C268 1.395 . S
C302 C272 1.391 . S
C303 C265 1.389 . S
C303 C285 1.392 . S
C304 C275 1.392 . S
C304 C277 1.389 . S
C305 C280 1.395 . S
C305 C282 1.391 . S
H306 C266 0.951 . S
H307 C267 0.950 . S
H308 C273 0.949 . S
H309 C274 0.950 . S
H310 C278 0.951 . S
H311 C279 0.950 . S
H312 C283 0.949 . S
H313 C284 0.950 . S
H314 C288 0.950 . S
H315 C290 0.950 . S
H316 C293 0.950 . S
H317 C295 0.950 . S
C318 C319 1.443 . S
C318 N322 1.376 . S
C318 C356 1.389 . S
C319 C318 1.443 . S
C319 C320 1.340 . S
C319 H359 0.951 . S
C320 C319 1.340 . S
C320 C321 1.439 . S
C320 H360 0.950 . S
C321 C320 1.439 . S
C321 N322 1.374 . S
C321 C355 1.395 . S
N322 C318 1.376 . S
N322 C321 1.374 . S
N322 Co323 2.008 . S
Co323 N322 2.008 . S
Co323 N324 1.995 . S
Co323 N329 2.008 . S
Co323 N334 1.995 . S
Co323 N339 2.282 . S
Co323 N345 2.282 . S
N324 Co323 1.995 . S
N324 C325 1.376 . S
N324 C328 1.383 . S
C325 N324 1.376 . S
C325 C326 1.446 . S
C325 C355 1.391 . S
C326 C325 1.446 . S
C326 C327 1.339 . S
C326 H361 0.949 . S
C327 C326 1.339 . S
C327 C328 1.439 . S
C327 H362 0.950 . S
C328 N324 1.383 . S
C328 C327 1.439 . S
C328 C357 1.392 . S
N329 Co323 2.008 . S
N329 C330 1.376 . S
N329 C333 1.374 . S
C330 N329 1.376 . S
C330 C331 1.443 . S
C330 C357 1.389 . S
C331 C330 1.443 . S
C331 C332 1.340 . S
C331 H363 0.951 . S
C332 C331 1.340 . S
C332 C333 1.439 . S
C332 H364 0.950 . S
C333 N329 1.374 . S
C333 C332 1.439 . S
C333 C358 1.395 . S
N334 Co323 1.995 . S
N334 C335 1.376 . S
N334 C338 1.383 . S
C335 N334 1.376 . S
C335 C336 1.446 . S
C335 C358 1.391 . S
C336 C335 1.446 . S
C336 C337 1.339 . S
C336 H365 0.949 . S
C337 C336 1.339 . S
C337 C338 1.439 . S
C337 H366 0.950 . S
C338 N334 1.383 . S
C338 C337 1.439 . S
C338 C356 1.392 . S
N339 Co323 2.282 . S
N339 C342 1.332 . S
N339 C344 1.332 . S
C340 C341 1.386 . S
C340 C343 1.388 . S
C341 C340 1.386 . S
C341 C342 1.382 . S
C341 H367 0.950 . S
C342 N339 1.332 . S
C342 C341 1.382 . S
C342 H353 0.952 . S
C343 C340 1.388 . S
C343 C344 1.382 . S
C343 H368 0.950 . S
C344 N339 1.332 . S
C344 C343 1.382 . S
C344 H354 0.948 . S
N345 Co323 2.282 . S
N345 C349 1.332 . S
N345 C350 1.332 . S
C346 C347 1.388 . S
C346 C350 1.382 . S
C346 H369 0.950 . S
C347 C346 1.388 . S
C347 C348 1.386 . S
C348 C347 1.386 . S
C348 C349 1.382 . S
C348 H370 0.950 . S
C349 N345 1.332 . S
C349 C348 1.382 . S
C349 H351 0.952 . S
C350 N345 1.332 . S
C350 C346 1.382 . S
C350 H352 0.948 . S
H351 C349 0.952 . S
H352 C350 0.948 . S
H353 C342 0.952 . S
H354 C344 0.948 . S
C355 C321 1.395 . S
C355 C325 1.391 . S
C356 C318 1.389 . S
C356 C338 1.392 . S
C357 C328 1.392 . S
C357 C330 1.389 . S
C358 C333 1.395 . S
C358 C335 1.391 . S
H359 C319 0.951 . S
H360 C320 0.950 . S
H361 C326 0.949 . S
H362 C327 0.950 . S
H363 C331 0.951 . S
H364 C332 0.950 . S
H365 C336 0.949 . S
H366 C337 0.950 . S
H367 C341 0.950 . S
H368 C343 0.950 . S
H369 C346 0.950 . S
H370 C348 0.950 . S
C371 C372 1.443 . S
C371 N375 1.376 . S
C371 C409 1.389 . S
C372 C371 1.443 . S
C372 C373 1.340 . S
C372 H412 0.951 . S
C373 C372 1.340 . S
C373 C374 1.439 . S
C373 H413 0.950 . S
C374 C373 1.439 . S
C374 N375 1.374 . S
C374 C408 1.395 . S
N375 C371 1.376 . S
N375 C374 1.374 . S
N375 Co376 2.008 . S
Co376 N375 2.008 . S
Co376 N377 1.995 . S
Co376 N382 2.008 . S
Co376 N387 1.995 . S
Co376 N392 2.282 . S
Co376 N398 2.282 . S
N377 Co376 1.995 . S
N377 C378 1.376 . S
N377 C381 1.383 . S
C378 N377 1.376 . S
C378 C379 1.446 . S
C378 C408 1.391 . S
C379 C378 1.446 . S
C379 C380 1.339 . S
C379 H414 0.949 . S
C380 C379 1.339 . S
C380 C381 1.439 . S
C380 H415 0.950 . S
C381 N377 1.383 . S
C381 C380 1.439 . S
C381 C410 1.392 . S
N382 Co376 2.008 . S
N382 C383 1.376 . S
N382 C386 1.374 . S
C383 N382 1.376 . S
C383 C384 1.443 . S
C383 C410 1.389 . S
C384 C383 1.443 . S
C384 C385 1.340 . S
C384 H416 0.951 . S
C385 C384 1.340 . S
C385 C386 1.439 . S
C385 H417 0.950 . S
C386 N382 1.374 . S
C386 C385 1.439 . S
C386 C411 1.395 . S
N387 Co376 1.995 . S
N387 C388 1.376 . S
N387 C391 1.383 . S
C388 N387 1.376 . S
C388 C389 1.446 . S
C388 C411 1.391 . S
C389 C388 1.446 . S
C389 C390 1.339 . S
C389 H418 0.949 . S
C390 C389 1.339 . S
C390 C391 1.439 . S
C390 H419 0.950 . S
C391 N387 1.383 . S
C391 C390 1.439 . S
C391 C409 1.392 . S
N392 Co376 2.282 . S
N392 C395 1.332 . S
N392 C397 1.332 . S
C393 C394 1.386 . S
C393 C396 1.388 . S
C394 C393 1.386 . S
C394 C395 1.382 . S
C394 H420 0.950 . S
C395 N392 1.332 . S
C395 C394 1.382 . S
C395 H406 0.952 . S
C396 C393 1.388 . S
C396 C397 1.382 . S
C396 H421 0.950 . S
C397 N392 1.332 . S
C397 C396 1.382 . S
C397 H407 0.948 . S
N398 Co376 2.282 . S
N398 C402 1.332 . S
N398 C403 1.332 . S
C399 C400 1.388 . S
C399 C403 1.382 . S
C399 H422 0.950 . S
C400 C399 1.388 . S
C400 C401 1.386 . S
C401 C400 1.386 . S
C401 C402 1.382 . S
C401 H423 0.950 . S
C402 N398 1.332 . S
C402 C401 1.382 . S
C402 H404 0.952 . S
C403 N398 1.332 . S
C403 C399 1.382 . S
C403 H405 0.948 . S
H404 C402 0.952 . S
H405 C403 0.948 . S
H406 C395 0.952 . S
H407 C397 0.948 . S
C408 C374 1.395 . S
C408 C378 1.391 . S
C409 C371 1.389 . S
C409 C391 1.392 . S
C410 C381 1.392 . S
C410 C383 1.389 . S
C411 C386 1.395 . S
C411 C388 1.391 . S
H412 C372 0.951 . S
H413 C373 0.950 . S
H414 C379 0.949 . S
H415 C380 0.950 . S
H416 C384 0.951 . S
H417 C385 0.950 . S
H418 C389 0.949 . S
H419 C390 0.950 . S
H420 C394 0.950 . S
H421 C396 0.950 . S
H422 C399 0.950 . S
H423 C401 0.950 . S
C424 C425 1.443 . S
C424 N428 1.376 . S
C424 C462 1.389 . S
C425 C424 1.443 . S
C425 C426 1.340 . S
C425 H465 0.951 . S
C426 C425 1.340 . S
C426 C427 1.439 . S
C426 H466 0.950 . S
C427 C426 1.439 . S
C427 N428 1.374 . S
C427 C461 1.395 . S
N428 C424 1.376 . S
N428 C427 1.374 . S
N428 Co429 2.008 . S
Co429 N428 2.008 . S
Co429 N430 1.995 . S
Co429 N435 2.008 . S
Co429 N440 1.995 . S
Co429 N445 2.282 . S
Co429 N451 2.282 . S
N430 Co429 1.995 . S
N430 C431 1.376 . S
N430 C434 1.383 . S
C431 N430 1.376 . S
C431 C432 1.446 . S
C431 C461 1.391 . S
C432 C431 1.446 . S
C432 C433 1.339 . S
C432 H467 0.949 . S
C433 C432 1.339 . S
C433 C434 1.439 . S
C433 H468 0.950 . S
C434 N430 1.383 . S
C434 C433 1.439 . S
C434 C463 1.392 . S
N435 Co429 2.008 . S
N435 C436 1.376 . S
N435 C439 1.374 . S
C436 N435 1.376 . S
C436 C437 1.443 . S
C436 C463 1.389 . S
C437 C436 1.443 . S
C437 C438 1.340 . S
C437 H469 0.951 . S
C438 C437 1.340 . S
C438 C439 1.439 . S
C438 H470 0.950 . S
C439 N435 1.374 . S
C439 C438 1.439 . S
C439 C464 1.395 . S
N440 Co429 1.995 . S
N440 C441 1.376 . S
N440 C444 1.383 . S
C441 N440 1.376 . S
C441 C442 1.446 . S
C441 C464 1.391 . S
C442 C441 1.446 . S
C442 C443 1.339 . S
C442 H471 0.949 . S
C443 C442 1.339 . S
C443 C444 1.439 . S
C443 H472 0.950 . S
C444 N440 1.383 . S
C444 C443 1.439 . S
C444 C462 1.392 . S
N445 Co429 2.282 . S
N445 C448 1.332 . S
N445 C450 1.332 . S
C446 C447 1.386 . S
C446 C449 1.388 . S
C447 C446 1.386 . S
C447 C448 1.382 . S
C447 H473 0.950 . S
C448 N445 1.332 . S
C448 C447 1.382 . S
C448 H459 0.952 . S
C449 C446 1.388 . S
C449 C450 1.382 . S
C449 H474 0.950 . S
C450 N445 1.332 . S
C450 C449 1.382 . S
C450 H460 0.948 . S
N451 Co429 2.282 . S
N451 C455 1.332 . S
N451 C456 1.332 . S
C452 C453 1.388 . S
C452 C456 1.382 . S
C452 H475 0.950 . S
C453 C452 1.388 . S
C453 C454 1.386 . S
C454 C453 1.386 . S
C454 C455 1.382 . S
C454 H476 0.950 . S
C455 N451 1.332 . S
C455 C454 1.382 . S
C455 H457 0.952 . S
C456 N451 1.332 . S
C456 C452 1.382 . S
C456 H458 0.948 . S
H457 C455 0.952 . S
H458 C456 0.948 . S
H459 C448 0.952 . S
H460 C450 0.948 . S
C461 C427 1.395 . S
C461 C431 1.391 . S
C462 C424 1.389 . S
C462 C444 1.392 . S
C463 C434 1.392 . S
C463 C436 1.389 . S
C464 C439 1.395 . S
C464 C441 1.391 . S
H465 C425 0.951 . S
H466 C426 0.950 . S
H467 C432 0.949 . S
H468 C433 0.950 . S
H469 C437 0.951 . S
H470 C438 0.950 . S
H471 C442 0.949 . S
H472 C443 0.950 . S
H473 C447 0.950 . S
H474 C449 0.950 . S
H475 C452 0.950 . S
H476 C454 0.950 . S
C477 C478 1.443 . S
C477 N481 1.376 . S
C477 C515 1.389 . S
C478 C477 1.443 . S
C478 C479 1.340 . S
C478 H518 0.951 . S
C479 C478 1.340 . S
C479 C480 1.439 . S
C479 H519 0.950 . S
C480 C479 1.439 . S
C480 N481 1.374 . S
C480 C514 1.395 . S
N481 C477 1.376 . S
N481 C480 1.374 . S
N481 Co482 2.008 . S
Co482 N481 2.008 . S
Co482 N483 1.995 . S
Co482 N488 2.008 . S
Co482 N493 1.995 . S
Co482 N498 2.282 . S
Co482 N504 2.282 . S
N483 Co482 1.995 . S
N483 C484 1.376 . S
N483 C487 1.383 . S
C484 N483 1.376 . S
C484 C485 1.446 . S
C484 C514 1.391 . S
C485 C484 1.446 . S
C485 C486 1.339 . S
C485 H520 0.949 . S
C486 C485 1.339 . S
C486 C487 1.439 . S
C486 H521 0.950 . S
C487 N483 1.383 . S
C487 C486 1.439 . S
C487 C516 1.392 . S
N488 Co482 2.008 . S
N488 C489 1.376 . S
N488 C492 1.374 . S
C489 N488 1.376 . S
C489 C490 1.443 . S
C489 C516 1.389 . S
C490 C489 1.443 . S
C490 C491 1.340 . S
C490 H522 0.951 . S
C491 C490 1.340 . S
C491 C492 1.439 . S
C491 H523 0.950 . S
C492 N488 1.374 . S
C492 C491 1.439 . S
C492 C517 1.395 . S
N493 Co482 1.995 . S
N493 C494 1.376 . S
N493 C497 1.383 . S
C494 N493 1.376 . S
C494 C495 1.446 . S
C494 C517 1.391 . S
C495 C494 1.446 . S
C495 C496 1.339 . S
C495 H524 0.949 . S
C496 C495 1.339 . S
C496 C497 1.439 . S
C496 H525 0.950 . S
C497 N493 1.383 . S
C497 C496 1.439 . S
C497 C515 1.392 . S
N498 Co482 2.282 . S
N498 C501 1.332 . S
N498 C503 1.332 . S
C499 C500 1.386 . S
C499 C502 1.388 . S
C500 C499 1.386 . S
C500 C501 1.382 . S
C500 H526 0.950 . S
C501 N498 1.332 . S
C501 C500 1.382 . S
C501 H512 0.952 . S
C502 C499 1.388 . S
C502 C503 1.382 . S
C502 H527 0.950 . S
C503 N498 1.332 . S
C503 C502 1.382 . S
C503 H513 0.948 . S
N504 Co482 2.282 . S
N504 C508 1.332 . S
N504 C509 1.332 . S
C505 C506 1.388 . S
C505 C509 1.382 . S
C505 H528 0.950 . S
C506 C505 1.388 . S
C506 C507 1.386 . S
C507 C506 1.386 . S
C507 C508 1.382 . S
C507 H529 0.950 . S
C508 N504 1.332 . S
C508 C507 1.382 . S
C508 H510 0.952 . S
C509 N504 1.332 . S
C509 C505 1.382 . S
C509 H511 0.948 . S
H510 C508 0.952 . S
H511 C509 0.948 . S
H512 C501 0.952 . S
H513 C503 0.948 . S
C514 C480 1.395 . S
C514 C484 1.391 . S
C515 C477 1.389 . S
C515 C497 1.392 . S
C516 C487 1.392 . S
C516 C489 1.389 . S
C517 C492 1.395 . S
C517 C494 1.391 . S
H518 C478 0.951 . S
H519 C479 0.950 . S
H520 C485 0.949 . S
H521 C486 0.950 . S
H522 C490 0.951 . S
H523 C491 0.950 . S
H524 C495 0.949 . S
H525 C496 0.950 . S
H526 C500 0.950 . S
H527 C502 0.950 . S
H528 C505 0.950 . S
H529 C507 0.950 . S
C530 C531 1.443 . S
C530 N534 1.376 . S
C530 C568 1.389 . S
C531 C530 1.443 . S
C531 C532 1.340 . S
C531 H571 0.951 . S
C532 C531 1.340 . S
C532 C533 1.439 . S
C532 H572 0.950 . S
C533 C532 1.439 . S
C533 N534 1.374 . S
C533 C567 1.395 . S
N534 C530 1.376 . S
N534 C533 1.374 . S
N534 Co535 2.008 . S
Co535 N534 2.008 . S
Co535 N536 1.995 . S
Co535 N541 2.008 . S
Co535 N546 1.995 . S
Co535 N551 2.282 . S
Co535 N557 2.282 . S
N536 Co535 1.995 . S
N536 C537 1.376 . S
N536 C540 1.383 . S
C537 N536 1.376 . S
C537 C538 1.446 . S
C537 C567 1.391 . S
C538 C537 1.446 . S
C538 C539 1.339 . S
C538 H573 0.949 . S
C539 C538 1.339 . S
C539 C540 1.439 . S
C539 H574 0.950 . S
C540 N536 1.383 . S
C540 C539 1.439 . S
C540 C569 1.392 . S
N541 Co535 2.008 . S
N541 C542 1.376 . S
N541 C545 1.374 . S
C542 N541 1.376 . S
C542 C543 1.443 . S
C542 C569 1.389 . S
C543 C542 1.443 . S
C543 C544 1.340 . S
C543 H575 0.951 . S
C544 C543 1.340 . S
C544 C545 1.439 . S
C544 H576 0.950 . S
C545 N541 1.374 . S
C545 C544 1.439 . S
C545 C570 1.395 . S
N546 Co535 1.995 . S
N546 C547 1.376 . S
N546 C550 1.383 . S
C547 N546 1.376 . S
C547 C548 1.446 . S
C547 C570 1.391 . S
C548 C547 1.446 . S
C548 C549 1.339 . S
C548 H577 0.949 . S
C549 C548 1.339 . S
C549 C550 1.439 . S
C549 H578 0.950 . S
C550 N546 1.383 . S
C550 C549 1.439 . S
C550 C568 1.392 . S
N551 Co535 2.282 . S
N551 C554 1.332 . S
N551 C556 1.332 . S
C552 C553 1.386 . S
C552 C555 1.388 . S
C553 C552 1.386 . S
C553 C554 1.382 . S
C553 H579 0.950 . S
C554 N551 1.332 . S
C554 C553 1.382 . S
C554 H565 0.952 . S
C555 C552 1.388 . S
C555 C556 1.382 . S
C555 H580 0.950 . S
C556 N551 1.332 . S
C556 C555 1.382 . S
C556 H566 0.948 . S
N557 Co535 2.282 . S
N557 C561 1.332 . S
N557 C562 1.332 . S
C558 C559 1.388 . S
C558 C562 1.382 . S
C558 H581 0.950 . S
C559 C558 1.388 . S
C559 C560 1.386 . S
C560 C559 1.386 . S
C560 C561 1.382 . S
C560 H582 0.950 . S
C561 N557 1.332 . S
C561 C560 1.382 . S
C561 H563 0.952 . S
C562 N557 1.332 . S
C562 C558 1.382 . S
C562 H564 0.948 . S
H563 C561 0.952 . S
H564 C562 0.948 . S
H565 C554 0.952 . S
H566 C556 0.948 . S
C567 C533 1.395 . S
C567 C537 1.391 . S
C568 C530 1.389 . S
C568 C550 1.392 . S
C569 C540 1.392 . S
C569 C542 1.389 . S
C570 C545 1.395 . S
C570 C547 1.391 . S
H571 C531 0.951 . S
H572 C532 0.950 . S
H573 C538 0.949 . S
H574 C539 0.950 . S
H575 C543 0.951 . S
H576 C544 0.950 . S
H577 C548 0.949 . S
H578 C549 0.950 . S
H579 C553 0.950 . S
H580 C555 0.950 . S
H581 C558 0.950 . S
H582 C560 0.950 . S
C583 C584 1.443 . S
C583 N587 1.376 . S
C583 C621 1.389 . S
C584 C583 1.443 . S
C584 C585 1.340 . S
C584 H624 0.951 . S
C585 C584 1.340 . S
C585 C586 1.439 . S
C585 H625 0.950 . S
C586 C585 1.439 . S
C586 N587 1.374 . S
C586 C620 1.395 . S
N587 C583 1.376 . S
N587 C586 1.374 . S
N587 Co588 2.008 . S
Co588 N587 2.008 . S
Co588 N589 1.995 . S
Co588 N594 2.008 . S
Co588 N599 1.995 . S
Co588 N604 2.282 . S
Co588 N610 2.282 . S
N589 Co588 1.995 . S
N589 C590 1.376 . S
N589 C593 1.383 . S
C590 N589 1.376 . S
C590 C591 1.446 . S
C590 C620 1.391 . S
C591 C590 1.446 . S
C591 C592 1.339 . S
C591 H626 0.949 . S
C592 C591 1.339 . S
C592 C593 1.439 . S
C592 H627 0.950 . S
C593 N589 1.383 . S
C593 C592 1.439 . S
C593 C622 1.392 . S
N594 Co588 2.008 . S
N594 C595 1.376 . S
N594 C598 1.374 . S
C595 N594 1.376 . S
C595 C596 1.443 . S
C595 C622 1.389 . S
C596 C595 1.443 . S
C596 C597 1.340 . S
C596 H628 0.951 . S
C597 C596 1.340 . S
C597 C598 1.439 . S
C597 H629 0.950 . S
C598 N594 1.374 . S
C598 C597 1.439 . S
C598 C623 1.395 . S
N599 Co588 1.995 . S
N599 C600 1.376 . S
N599 C603 1.383 . S
C600 N599 1.376 . S
C600 C601 1.446 . S
C600 C623 1.391 . S
C601 C600 1.446 . S
C601 C602 1.339 . S
C601 H630 0.949 . S
C602 C601 1.339 . S
C602 C603 1.439 . S
C602 H631 0.950 . S
C603 N599 1.383 . S
C603 C602 1.439 . S
C603 C621 1.392 . S
N604 Co588 2.282 . S
N604 C607 1.332 . S
N604 C609 1.332 . S
C605 C606 1.386 . S
C605 C608 1.388 . S
C606 C605 1.386 . S
C606 C607 1.382 . S
C606 H632 0.950 . S
C607 N604 1.332 . S
C607 C606 1.382 . S
C607 H618 0.952 . S
C608 C605 1.388 . S
C608 C609 1.382 . S
C608 H633 0.950 . S
C609 N604 1.332 . S
C609 C608 1.382 . S
C609 H619 0.948 . S
N610 Co588 2.282 . S
N610 C614 1.332 . S
N610 C615 1.332 . S
C611 C612 1.388 . S
C611 C615 1.382 . S
C611 H634 0.950 . S
C612 C611 1.388 . S
C612 C613 1.386 . S
C613 C612 1.386 . S
C613 C614 1.382 . S
C613 H635 0.950 . S
C614 N610 1.332 . S
C614 C613 1.382 . S
C614 H616 0.952 . S
C615 N610 1.332 . S
C615 C611 1.382 . S
C615 H617 0.948 . S
H616 C614 0.952 . S
H617 C615 0.948 . S
H618 C607 0.952 . S
H619 C609 0.948 . S
C620 C586 1.395 . S
C620 C590 1.391 . S
C621 C583 1.389 . S
C621 C603 1.392 . S
C622 C593 1.392 . S
C622 C595 1.389 . S
C623 C598 1.395 . S
C623 C600 1.391 . S
H624 C584 0.951 . S
H625 C585 0.950 . S
H626 C591 0.949 . S
H627 C592 0.950 . S
H628 C596 0.951 . S
H629 C597 0.950 . S
H630 C601 0.949 . S
H631 C602 0.950 . S
H632 C606 0.950 . S
H633 C608 0.950 . S
H634 C611 0.950 . S
H635 C613 0.950 . S
C636 C637 1.443 . S
C636 N640 1.376 . S
C636 C674 1.389 . S
C637 C636 1.443 . S
C637 C638 1.340 . S
C637 H677 0.951 . S
C638 C637 1.340 . S
C638 C639 1.439 . S
C638 H678 0.950 . S
C639 C638 1.439 . S
C639 N640 1.374 . S
C639 C673 1.395 . S
N640 C636 1.376 . S
N640 C639 1.374 . S
N640 Co641 2.008 . S
Co641 N640 2.008 . S
Co641 N642 1.995 . S
Co641 N647 2.008 . S
Co641 N652 1.995 . S
Co641 N657 2.282 . S
Co641 N663 2.282 . S
N642 Co641 1.995 . S
N642 C643 1.376 . S
N642 C646 1.383 . S
C643 N642 1.376 . S
C643 C644 1.446 . S
C643 C673 1.391 . S
C644 C643 1.446 . S
C644 C645 1.339 . S
C644 H679 0.949 . S
C645 C644 1.339 . S
C645 C646 1.439 . S
C645 H680 0.950 . S
C646 N642 1.383 . S
C646 C645 1.439 . S
C646 C675 1.392 . S
N647 Co641 2.008 . S
N647 C648 1.376 . S
N647 C651 1.374 . S
C648 N647 1.376 . S
C648 C649 1.443 . S
C648 C675 1.389 . S
C649 C648 1.443 . S
C649 C650 1.340 . S
C649 H681 0.951 . S
C650 C649 1.340 . S
C650 C651 1.439 . S
C650 H682 0.950 . S
C651 N647 1.374 . S
C651 C650 1.439 . S
C651 C676 1.395 . S
N652 Co641 1.995 . S
N652 C653 1.376 . S
N652 C656 1.383 . S
C653 N652 1.376 . S
C653 C654 1.446 . S
C653 C676 1.391 . S
C654 C653 1.446 . S
C654 C655 1.339 . S
C654 H683 0.949 . S
C655 C654 1.339 . S
C655 C656 1.439 . S
C655 H684 0.950 . S
C656 N652 1.383 . S
C656 C655 1.439 . S
C656 C674 1.392 . S
N657 Co641 2.282 . S
N657 C660 1.332 . S
N657 C662 1.332 . S
C658 C659 1.386 . S
C658 C661 1.388 . S
C659 C658 1.386 . S
C659 C660 1.382 . S
C659 H685 0.950 . S
C660 N657 1.332 . S
C660 C659 1.382 . S
C660 H671 0.952 . S
C661 C658 1.388 . S
C661 C662 1.382 . S
C661 H686 0.950 . S
C662 N657 1.332 . S
C662 C661 1.382 . S
C662 H672 0.948 . S
N663 Co641 2.282 . S
N663 C667 1.332 . S
N663 C668 1.332 . S
C664 C665 1.388 . S
C664 C668 1.382 . S
C664 H687 0.950 . S
C665 C664 1.388 . S
C665 C666 1.386 . S
C666 C665 1.386 . S
C666 C667 1.382 . S
C666 H688 0.950 . S
C667 N663 1.332 . S
C667 C666 1.382 . S
C667 H669 0.952 . S
C668 N663 1.332 . S
C668 C664 1.382 . S
C668 H670 0.948 . S
H669 C667 0.952 . S
H670 C668 0.948 . S
H671 C660 0.952 . S
H672 C662 0.948 . S
C673 C639 1.395 . S
C673 C643 1.391 . S
C674 C636 1.389 . S
C674 C656 1.392 . S
C675 C646 1.392 . S
C675 C648 1.389 . S
C676 C651 1.395 . S
C676 C653 1.391 . S
H677 C637 0.951 . S
H678 C638 0.950 . S
H679 C644 0.949 . S
H680 C645 0.950 . S
H681 C649 0.951 . S
H682 C650 0.950 . S
H683 C654 0.949 . S
H684 C655 0.950 . S
H685 C659 0.950 . S
H686 C661 0.950 . S
H687 C664 0.950 . S
H688 C666 0.950 . S
C689 C690 1.443 . S
C689 N693 1.376 . S
C689 C727 1.389 . S
C690 C689 1.443 . S
C690 C691 1.340 . S
C690 H730 0.951 . S
C691 C690 1.340 . S
C691 C692 1.439 . S
C691 H731 0.950 . S
C692 C691 1.439 . S
C692 N693 1.374 . S
C692 C726 1.395 . S
N693 C689 1.376 . S
N693 C692 1.374 . S
N693 Co694 2.008 . S
Co694 N693 2.008 . S
Co694 N695 1.995 . S
Co694 N700 2.008 . S
Co694 N705 1.995 . S
Co694 N710 2.282 . S
Co694 N716 2.282 . S
N695 Co694 1.995 . S
N695 C696 1.376 . S
N695 C699 1.383 . S
C696 N695 1.376 . S
C696 C697 1.446 . S
C696 C726 1.391 . S
C697 C696 1.446 . S
C697 C698 1.339 . S
C697 H732 0.949 . S
C698 C697 1.339 . S
C698 C699 1.439 . S
C698 H733 0.950 . S
C699 N695 1.383 . S
C699 C698 1.439 . S
C699 C728 1.392 . S
N700 Co694 2.008 . S
N700 C701 1.376 . S
N700 C704 1.374 . S
C701 N700 1.376 . S
C701 C702 1.443 . S
C701 C728 1.389 . S
C702 C701 1.443 . S
C702 C703 1.340 . S
C702 H734 0.951 . S
C703 C702 1.340 . S
C703 C704 1.439 . S
C703 H735 0.950 . S
C704 N700 1.374 . S
C704 C703 1.439 . S
C704 C729 1.395 . S
N705 Co694 1.995 . S
N705 C706 1.376 . S
N705 C709 1.383 . S
C706 N705 1.376 . S
C706 C707 1.446 . S
C706 C729 1.391 . S
C707 C706 1.446 . S
C707 C708 1.339 . S
C707 H736 0.949 . S
C708 C707 1.339 . S
C708 C709 1.439 . S
C708 H737 0.950 . S
C709 N705 1.383 . S
C709 C708 1.439 . S
C709 C727 1.392 . S
N710 Co694 2.282 . S
N710 C713 1.332 . S
N710 C715 1.332 . S
C711 C712 1.386 . S
C711 C714 1.388 . S
C712 C711 1.386 . S
C712 C713 1.382 . S
C712 H738 0.950 . S
C713 N710 1.332 . S
C713 C712 1.382 . S
C713 H724 0.952 . S
C714 C711 1.388 . S
C714 C715 1.382 . S
C714 H739 0.950 . S
C715 N710 1.332 . S
C715 C714 1.382 . S
C715 H725 0.948 . S
N716 Co694 2.282 . S
N716 C720 1.332 . S
N716 C721 1.332 . S
C717 C718 1.388 . S
C717 C721 1.382 . S
C717 H740 0.950 . S
C718 C717 1.388 . S
C718 C719 1.386 . S
C719 C718 1.386 . S
C719 C720 1.382 . S
C719 H741 0.950 . S
C720 N716 1.332 . S
C720 C719 1.382 . S
C720 H722 0.952 . S
C721 N716 1.332 . S
C721 C717 1.382 . S
C721 H723 0.948 . S
H722 C720 0.952 . S
H723 C721 0.948 . S
H724 C713 0.952 . S
H725 C715 0.948 . S
C726 C692 1.395 . S
C726 C696 1.391 . S
C727 C689 1.389 . S
C727 C709 1.392 . S
C728 C699 1.392 . S
C728 C701 1.389 . S
C729 C704 1.395 . S
C729 C706 1.391 . S
H730 C690 0.951 . S
H731 C691 0.950 . S
H732 C697 0.949 . S
H733 C698 0.950 . S
H734 C702 0.951 . S
H735 C703 0.950 . S
H736 C707 0.949 . S
H737 C708 0.950 . S
H738 C712 0.950 . S
H739 C714 0.950 . S
H740 C717 0.950 . S
H741 C719 0.950 . S
C742 C743 1.443 . S
C742 N746 1.376 . S
C742 C780 1.389 . S
C743 C742 1.443 . S
C743 C744 1.340 . S
C743 H783 0.951 . S
C744 C743 1.340 . S
C744 C745 1.439 . S
C744 H784 0.950 . S
C745 C744 1.439 . S
C745 N746 1.374 . S
C745 C779 1.395 . S
N746 C742 1.376 . S
N746 C745 1.374 . S
N746 Co747 2.008 . S
Co747 N746 2.008 . S
Co747 N748 1.995 . S
Co747 N753 2.008 . S
Co747 N758 1.995 . S
Co747 N763 2.282 . S
Co747 N769 2.282 . S
N748 Co747 1.995 . S
N748 C749 1.376 . S
N748 C752 1.383 . S
C749 N748 1.376 . S
C749 C750 1.446 . S
C749 C779 1.391 . S
C750 C749 1.446 . S
C750 C751 1.339 . S
C750 H785 0.949 . S
C751 C750 1.339 . S
C751 C752 1.439 . S
C751 H786 0.950 . S
C752 N748 1.383 . S
C752 C751 1.439 . S
C752 C781 1.392 . S
N753 Co747 2.008 . S
N753 C754 1.376 . S
N753 C757 1.374 . S
C754 N753 1.376 . S
C754 C755 1.443 . S
C754 C781 1.389 . S
C755 C754 1.443 . S
C755 C756 1.340 . S
C755 H787 0.951 . S
C756 C755 1.340 . S
C756 C757 1.439 . S
C756 H788 0.950 . S
C757 N753 1.374 . S
C757 C756 1.439 . S
C757 C782 1.395 . S
N758 Co747 1.995 . S
N758 C759 1.376 . S
N758 C762 1.383 . S
C759 N758 1.376 . S
C759 C760 1.446 . S
C759 C782 1.391 . S
C760 C759 1.446 . S
C760 C761 1.339 . S
C760 H789 0.949 . S
C761 C760 1.339 . S
C761 C762 1.439 . S
C761 H790 0.950 . S
C762 N758 1.383 . S
C762 C761 1.439 . S
C762 C780 1.392 . S
N763 Co747 2.282 . S
N763 C766 1.332 . S
N763 C768 1.332 . S
C764 C765 1.386 . S
C764 C767 1.388 . S
C765 C764 1.386 . S
C765 C766 1.382 . S
C765 H791 0.950 . S
C766 N763 1.332 . S
C766 C765 1.382 . S
C766 H777 0.952 . S
C767 C764 1.388 . S
C767 C768 1.382 . S
C767 H792 0.950 . S
C768 N763 1.332 . S
C768 C767 1.382 . S
C768 H778 0.948 . S
N769 Co747 2.282 . S
N769 C773 1.332 . S
N769 C774 1.332 . S
C770 C771 1.388 . S
C770 C774 1.382 . S
C770 H793 0.950 . S
C771 C770 1.388 . S
C771 C772 1.386 . S
C772 C771 1.386 . S
C772 C773 1.382 . S
C772 H794 0.950 . S
C773 N769 1.332 . S
C773 C772 1.382 . S
C773 H775 0.952 . S
C774 N769 1.332 . S
C774 C770 1.382 . S
C774 H776 0.948 . S
H775 C773 0.952 . S
H776 C774 0.948 . S
H777 C766 0.952 . S
H778 C768 0.948 . S
C779 C745 1.395 . S
C779 C749 1.391 . S
C780 C742 1.389 . S
C780 C762 1.392 . S
C781 C752 1.392 . S
C781 C754 1.389 . S
C782 C757 1.395 . S
C782 C759 1.391 . S
H783 C743 0.951 . S
H784 C744 0.950 . S
H785 C750 0.949 . S
H786 C751 0.950 . S
H787 C755 0.951 . S
H788 C756 0.950 . S
H789 C760 0.949 . S
H790 C761 0.950 . S
H791 C765 0.950 . S
H792 C767 0.950 . S
H793 C770 0.950 . S
H794 C772 0.950 . S
C795 C796 1.443 . S
C795 N799 1.376 . S
C795 C833 1.389 . S
C796 C795 1.443 . S
C796 C797 1.340 . S
C796 H836 0.951 . S
C797 C796 1.340 . S
C797 C798 1.439 . S
C797 H837 0.950 . S
C798 C797 1.439 . S
C798 N799 1.374 . S
C798 C832 1.395 . S
N799 C795 1.376 . S
N799 C798 1.374 . S
N799 Co800 2.008 . S
Co800 N799 2.008 . S
Co800 N801 1.995 . S
Co800 N806 2.008 . S
Co800 N811 1.995 . S
Co800 N816 2.282 . S
Co800 N822 2.282 . S
N801 Co800 1.995 . S
N801 C802 1.376 . S
N801 C805 1.383 . S
C802 N801 1.376 . S
C802 C803 1.446 . S
C802 C832 1.391 . S
C803 C802 1.446 . S
C803 C804 1.339 . S
C803 H838 0.949 . S
C804 C803 1.339 . S
C804 C805 1.439 . S
C804 H839 0.950 . S
C805 N801 1.383 . S
C805 C804 1.439 . S
C805 C834 1.392 . S
N806 Co800 2.008 . S
N806 C807 1.376 . S
N806 C810 1.374 . S
C807 N806 1.376 . S
C807 C808 1.443 . S
C807 C834 1.389 . S
C808 C807 1.443 . S
C808 C809 1.340 . S
C808 H840 0.951 . S
C809 C808 1.340 . S
C809 C810 1.439 . S
C809 H841 0.950 . S
C810 N806 1.374 . S
C810 C809 1.439 . S
C810 C835 1.395 . S
N811 Co800 1.995 . S
N811 C812 1.376 . S
N811 C815 1.383 . S
C812 N811 1.376 . S
C812 C813 1.446 . S
C812 C835 1.391 . S
C813 C812 1.446 . S
C813 C814 1.339 . S
C813 H842 0.949 . S
C814 C813 1.339 . S
C814 C815 1.439 . S
C814 H843 0.950 . S
C815 N811 1.383 . S
C815 C814 1.439 . S
C815 C833 1.392 . S
N816 Co800 2.282 . S
N816 C819 1.332 . S
N816 C821 1.332 . S
C817 C818 1.386 . S
C817 C820 1.388 . S
C818 C817 1.386 . S
C818 C819 1.382 . S
C818 H844 0.950 . S
C819 N816 1.332 . S
C819 C818 1.382 . S
C819 H830 0.952 . S
C820 C817 1.388 . S
C820 C821 1.382 . S
C820 H845 0.950 . S
C821 N816 1.332 . S
C821 C820 1.382 . S
C821 H831 0.948 . S
N822 Co800 2.282 . S
N822 C826 1.332 . S
N822 C827 1.332 . S
C823 C824 1.388 . S
C823 C827 1.382 . S
C823 H846 0.950 . S
C824 C823 1.388 . S
C824 C825 1.386 . S
C825 C824 1.386 . S
C825 C826 1.382 . S
C825 H847 0.950 . S
C826 N822 1.332 . S
C826 C825 1.382 . S
C826 H828 0.952 . S
C827 N822 1.332 . S
C827 C823 1.382 . S
C827 H829 0.948 . S
H828 C826 0.952 . S
H829 C827 0.948 . S
H830 C819 0.952 . S
H831 C821 0.948 . S
C832 C798 1.395 . S
C832 C802 1.391 . S
C833 C795 1.389 . S
C833 C815 1.392 . S
C834 C805 1.392 . S
C834 C807 1.389 . S
C835 C810 1.395 . S
C835 C812 1.391 . S
H836 C796 0.951 . S
H837 C797 0.950 . S
H838 C803 0.949 . S
H839 C804 0.950 . S
H840 C808 0.951 . S
H841 C809 0.950 . S
H842 C813 0.949 . S
H843 C814 0.950 . S
H844 C818 0.950 . S
H845 C820 0.950 . S
H846 C823 0.950 . S
H847 C825 0.950 . S
C848 C849 1.443 . S
C848 N852 1.376 . S
C848 C886 1.389 . S
C849 C848 1.443 . S
C849 C850 1.340 . S
C849 H889 0.951 . S
C850 C849 1.340 . S
C850 C851 1.439 . S
C850 H890 0.950 . S
C851 C850 1.439 . S
C851 N852 1.374 . S
C851 C885 1.395 . S
N852 C848 1.376 . S
N852 C851 1.374 . S
N852 Co853 2.008 . S
Co853 N852 2.008 . S
Co853 N854 1.995 . S
Co853 N859 2.008 . S
Co853 N864 1.995 . S
Co853 N869 2.282 . S
Co853 N875 2.282 . S
N854 Co853 1.995 . S
N854 C855 1.376 . S
N854 C858 1.383 . S
C855 N854 1.376 . S
C855 C856 1.446 . S
C855 C885 1.391 . S
C856 C855 1.446 . S
C856 C857 1.339 . S
C856 H891 0.949 . S
C857 C856 1.339 . S
C857 C858 1.439 . S
C857 H892 0.950 . S
C858 N854 1.383 . S
C858 C857 1.439 . S
C858 C887 1.392 . S
N859 Co853 2.008 . S
N859 C860 1.376 . S
N859 C863 1.374 . S
C860 N859 1.376 . S
C860 C861 1.443 . S
C860 C887 1.389 . S
C861 C860 1.443 . S
C861 C862 1.340 . S
C861 H893 0.951 . S
C862 C861 1.340 . S
C862 C863 1.439 . S
C862 H894 0.950 . S
C863 N859 1.374 . S
C863 C862 1.439 . S
C863 C888 1.395 . S
N864 Co853 1.995 . S
N864 C865 1.376 . S
N864 C868 1.383 . S
C865 N864 1.376 . S
C865 C866 1.446 . S
C865 C888 1.391 . S
C866 C865 1.446 . S
C866 C867 1.339 . S
C866 H895 0.949 . S
C867 C866 1.339 . S
C867 C868 1.439 . S
C867 H896 0.950 . S
C868 N864 1.383 . S
C868 C867 1.439 . S
C868 C886 1.392 . S
N869 Co853 2.282 . S
N869 C872 1.332 . S
N869 C874 1.332 . S
C870 C871 1.386 . S
C870 C873 1.388 . S
C871 C870 1.386 . S
C871 C872 1.382 . S
C871 H897 0.950 . S
C872 N869 1.332 . S
C872 C871 1.382 . S
C872 H883 0.952 . S
C873 C870 1.388 . S
C873 C874 1.382 . S
C873 H898 0.950 . S
C874 N869 1.332 . S
C874 C873 1.382 . S
C874 H884 0.948 . S
N875 Co853 2.282 . S
N875 C879 1.332 . S
N875 C880 1.332 . S
C876 C877 1.388 . S
C876 C880 1.382 . S
C876 H899 0.950 . S
C877 C876 1.388 . S
C877 C878 1.386 . S
C878 C877 1.386 . S
C878 C879 1.382 . S
C878 H900 0.950 . S
C879 N875 1.332 . S
C879 C878 1.382 . S
C879 H881 0.952 . S
C880 N875 1.332 . S
C880 C876 1.382 . S
C880 H882 0.948 . S
H881 C879 0.952 . S
H882 C880 0.948 . S
H883 C872 0.952 . S
H884 C874 0.948 . S
C885 C851 1.395 . S
C885 C855 1.391 . S
C886 C848 1.389 . S
C886 C868 1.392 . S
C887 C858 1.392 . S
C887 C860 1.389 . S
C888 C863 1.395 . S
C888 C865 1.391 . S
H889 C849 0.951 . S
H890 C850 0.950 . S
H891 C856 0.949 . S
H892 C857 0.950 . S
H893 C861 0.951 . S
H894 C862 0.950 . S
H895 C866 0.949 . S
H896 C867 0.950 . S
H897 C871 0.950 . S
H898 C873 0.950 . S
H899 C876 0.950 . S
H900 C878 0.950 . S
C901 C902 1.443 . S
C901 N905 1.376 . S
C901 C939 1.389 . S
C902 C901 1.443 . S
C902 C903 1.340 . S
C902 H942 0.951 . S
C903 C902 1.340 . S
C903 C904 1.439 . S
C903 H943 0.950 . S
C904 C903 1.439 . S
C904 N905 1.374 . S
C904 C938 1.395 . S
N905 C901 1.376 . S
N905 C904 1.374 . S
N905 Co906 2.008 . S
Co906 N905 2.008 . S
Co906 N907 1.995 . S
Co906 N912 2.008 . S
Co906 N917 1.995 . S
Co906 N922 2.282 . S
Co906 N928 2.282 . S
N907 Co906 1.995 . S
N907 C908 1.376 . S
N907 C911 1.383 . S
C908 N907 1.376 . S
C908 C909 1.446 . S
C908 C938 1.391 . S
C909 C908 1.446 . S
C909 C910 1.339 . S
C909 H944 0.949 . S
C910 C909 1.339 . S
C910 C911 1.439 . S
C910 H945 0.950 . S
C911 N907 1.383 . S
C911 C910 1.439 . S
C911 C940 1.392 . S
N912 Co906 2.008 . S
N912 C913 1.376 . S
N912 C916 1.374 . S
C913 N912 1.376 . S
C913 C914 1.443 . S
C913 C940 1.389 . S
C914 C913 1.443 . S
C914 C915 1.340 . S
C914 H946 0.951 . S
C915 C914 1.340 . S
C915 C916 1.439 . S
C915 H947 0.950 . S
C916 N912 1.374 . S
C916 C915 1.439 . S
C916 C941 1.395 . S
N917 Co906 1.995 . S
N917 C918 1.376 . S
N917 C921 1.383 . S
C918 N917 1.376 . S
C918 C919 1.446 . S
C918 C941 1.391 . S
C919 C918 1.446 . S
C919 C920 1.339 . S
C919 H948 0.949 . S
C920 C919 1.339 . S
C920 C921 1.439 . S
C920 H949 0.950 . S
C921 N917 1.383 . S
C921 C920 1.439 . S
C921 C939 1.392 . S
N922 Co906 2.282 . S
N922 C925 1.332 . S
N922 C927 1.332 . S
C923 C924 1.386 . S
C923 C926 1.388 . S
C924 C923 1.386 . S
C924 C925 1.382 . S
C924 H950 0.950 . S
C925 N922 1.332 . S
C925 C924 1.382 . S
C925 H936 0.952 . S
C926 C923 1.388 . S
C926 C927 1.382 . S
C926 H951 0.950 . S
C927 N922 1.332 . S
C927 C926 1.382 . S
C927 H937 0.948 . S
N928 Co906 2.282 . S
N928 C932 1.332 . S
N928 C933 1.332 . S
C929 C930 1.388 . S
C929 C933 1.382 . S
C929 H952 0.950 . S
C930 C929 1.388 . S
C930 C931 1.386 . S
C931 C930 1.386 . S
C931 C932 1.382 . S
C931 H953 0.950 . S
C932 N928 1.332 . S
C932 C931 1.382 . S
C932 H934 0.952 . S
C933 N928 1.332 . S
C933 C929 1.382 . S
C933 H935 0.948 . S
H934 C932 0.952 . S
H935 C933 0.948 . S
H936 C925 0.952 . S
H937 C927 0.948 . S
C938 C904 1.395 . S
C938 C908 1.391 . S
C939 C901 1.389 . S
C939 C921 1.392 . S
C940 C911 1.392 . S
C940 C913 1.389 . S
C941 C916 1.395 . S
C941 C918 1.391 . S
H942 C902 0.951 . S
H943 C903 0.950 . S
H944 C909 0.949 . S
H945 C910 0.950 . S
H946 C914 0.951 . S
H947 C915 0.950 . S
H948 C919 0.949 . S
H949 C920 0.950 . S
H950 C924 0.950 . S
H951 C926 0.950 . S
H952 C929 0.950 . S
H953 C931 0.950 . S
C954 C955 1.443 . S
C954 N958 1.376 . S
C954 C992 1.389 . S
C955 C954 1.443 . S
C955 C956 1.340 . S
C955 H995 0.951 . S
C956 C955 1.340 . S
C956 C957 1.439 . S
C956 H996 0.950 . S
C957 C956 1.439 . S
C957 N958 1.374 . S
C957 C991 1.395 . S
N958 C954 1.376 . S
N958 C957 1.374 . S
N958 Co959 2.008 . S
Co959 N958 2.008 . S
Co959 N960 1.995 . S
Co959 N965 2.008 . S
Co959 N970 1.995 . S
Co959 N975 2.282 . S
Co959 N981 2.282 . S
N960 Co959 1.995 . S
N960 C961 1.376 . S
N960 C964 1.383 . S
C961 N960 1.376 . S
C961 C962 1.446 . S
C961 C991 1.391 . S
C962 C961 1.446 . S
C962 C963 1.339 . S
C962 H997 0.949 . S
C963 C962 1.339 . S
C963 C964 1.439 . S
C963 H998 0.950 . S
C964 N960 1.383 . S
C964 C963 1.439 . S
C964 C993 1.392 . S
N965 Co959 2.008 . S
N965 C966 1.376 . S
N965 C969 1.374 . S
C966 N965 1.376 . S
C966 C967 1.443 . S
C966 C993 1.389 . S
C967 C966 1.443 . S
C967 C968 1.340 . S
C967 H999 0.951 . S
C968 C967 1.340 . S
C968 C969 1.439 . S
C968 H1000 0.950 . S
C969 N965 1.374 . S
C969 C968 1.439 . S
C969 C994 1.395 . S
N970 Co959 1.995 . S
N970 C971 1.376 . S
N970 C974 1.383 . S
C971 N970 1.376 . S
C971 C972 1.446 . S
C971 C994 1.391 . S
C972 C971 1.446 . S
C972 C973 1.339 . S
C972 H1001 0.949 . S
C973 C972 1.339 . S
C973 C974 1.439 . S
C973 H1002 0.950 . S
C974 N970 1.383 . S
C974 C973 1.439 . S
C974 C992 1.392 . S
N975 Co959 2.282 . S
N975 C978 1.332 . S
N975 C980 1.332 . S
C976 C977 1.386 . S
C976 C979 1.388 . S
C977 C976 1.386 . S
C977 C978 1.382 . S
C977 H1003 0.950 . S
C978 N975 1.332 . S
C978 C977 1.382 . S
C978 H989 0.952 . S
C979 C976 1.388 . S
C979 C980 1.382 . S
C979 H1004 0.950 . S
C980 N975 1.332 . S
C980 C979 1.382 . S
C980 H990 0.948 . S
N981 Co959 2.282 . S
N981 C985 1.332 . S
N981 C986 1.332 . S
C982 C983 1.388 . S
C982 C986 1.382 . S
C982 H1005 0.950 . S
C983 C982 1.388 . S
C983 C984 1.386 . S
C984 C983 1.386 . S
C984 C985 1.382 . S
C984 H1006 0.950 . S
C985 N981 1.332 . S
C985 C984 1.382 . S
C985 H987 0.952 . S
C986 N981 1.332 . S
C986 C982 1.382 . S
C986 H988 0.948 . S
H987 C985 0.952 . S
H988 C986 0.948 . S
H989 C978 0.952 . S
H990 C980 0.948 . S
C991 C957 1.395 . S
C991 C961 1.391 . S
C992 C954 1.389 . S
C992 C974 1.392 . S
C993 C964 1.392 . S
C993 C966 1.389 . S
C994 C969 1.395 . S
C994 C971 1.391 . S
H995 C955 0.951 . S
H996 C956 0.950 . S
H997 C962 0.949 . S
H998 C963 0.950 . S
H999 C967 0.951 . S
H1000 C968 0.950 . S
H1001 C972 0.949 . S
H1002 C973 0.950 . S
H1003 C977 0.950 . S
H1004 C979 0.950 . S
H1005 C982 0.950 . S
H1006 C984 0.950 . S
C1007 C1008 1.443 . S
C1007 N1011 1.376 . S
C1007 C1045 1.389 . S
C1008 C1007 1.443 . S
C1008 C1009 1.340 . S
C1008 H1048 0.951 . S
C1009 C1008 1.340 . S
C1009 C1010 1.439 . S
C1009 H1049 0.950 . S
C1010 C1009 1.439 . S
C1010 N1011 1.374 . S
C1010 C1044 1.395 . S
N1011 C1007 1.376 . S
N1011 C1010 1.374 . S
N1011 Co1012 2.008 . S
Co1012 N1011 2.008 . S
Co1012 N1013 1.995 . S
Co1012 N1018 2.008 . S
Co1012 N1023 1.995 . S
Co1012 N1028 2.282 . S
Co1012 N1034 2.282 . S
N1013 Co1012 1.995 . S
N1013 C1014 1.376 . S
N1013 C1017 1.383 . S
C1014 N1013 1.376 . S
C1014 C1015 1.446 . S
C1014 C1044 1.391 . S
C1015 C1014 1.446 . S
C1015 C1016 1.339 . S
C1015 H1050 0.949 . S
C1016 C1015 1.339 . S
C1016 C1017 1.439 . S
C1016 H1051 0.950 . S
C1017 N1013 1.383 . S
C1017 C1016 1.439 . S
C1017 C1046 1.392 . S
N1018 Co1012 2.008 . S
N1018 C1019 1.376 . S
N1018 C1022 1.374 . S
C1019 N1018 1.376 . S
C1019 C1020 1.443 . S
C1019 C1046 1.389 . S
C1020 C1019 1.443 . S
C1020 C1021 1.340 . S
C1020 H1052 0.951 . S
C1021 C1020 1.340 . S
C1021 C1022 1.439 . S
C1021 H1053 0.950 . S
C1022 N1018 1.374 . S
C1022 C1021 1.439 . S
C1022 C1047 1.395 . S
N1023 Co1012 1.995 . S
N1023 C1024 1.376 . S
N1023 C1027 1.383 . S
C1024 N1023 1.376 . S
C1024 C1025 1.446 . S
C1024 C1047 1.391 . S
C1025 C1024 1.446 . S
C1025 C1026 1.339 . S
C1025 H1054 0.949 . S
C1026 C1025 1.339 . S
C1026 C1027 1.439 . S
C1026 H1055 0.950 . S
C1027 N1023 1.383 . S
C1027 C1026 1.439 . S
C1027 C1045 1.392 . S
N1028 Co1012 2.282 . S
N1028 C1031 1.332 . S
N1028 C1033 1.332 . S
C1029 C1030 1.386 . S
C1029 C1032 1.388 . S
C1030 C1029 1.386 . S
C1030 C1031 1.382 . S
C1030 H1056 0.950 . S
C1031 N1028 1.332 . S
C1031 C1030 1.382 . S
C1031 H1042 0.952 . S
C1032 C1029 1.388 . S
C1032 C1033 1.382 . S
C1032 H1057 0.950 . S
C1033 N1028 1.332 . S
C1033 C1032 1.382 . S
C1033 H1043 0.948 . S
N1034 Co1012 2.282 . S
N1034 C1038 1.332 . S
N1034 C1039 1.332 . S
C1035 C1036 1.388 . S
C1035 C1039 1.382 . S
C1035 H1058 0.950 . S
C1036 C1035 1.388 . S
C1036 C1037 1.386 . S
C1037 C1036 1.386 . S
C1037 C1038 1.382 . S
C1037 H1059 0.950 . S
C1038 N1034 1.332 . S
C1038 C1037 1.382 . S
C1038 H1040 0.952 . S
C1039 N1034 1.332 . S
C1039 C1035 1.382 . S
C1039 H1041 0.948 . S
H1040 C1038 0.952 . S
H1041 C1039 0.948 . S
H1042 C1031 0.952 . S
H1043 C1033 0.948 . S
C1044 C1010 1.395 . S
C1044 C1014 1.391 . S
C1045 C1007 1.389 . S
C1045 C1027 1.392 . S
C1046 C1017 1.392 . S
C1046 C1019 1.389 . S
C1047 C1022 1.395 . S
C1047 C1024 1.391 . S
H1048 C1008 0.951 . S
H1049 C1009 0.950 . S
H1050 C1015 0.949 . S
H1051 C1016 0.950 . S
H1052 C1020 0.951 . S
H1053 C1021 0.950 . S
H1054 C1025 0.949 . S
H1055 C1026 0.950 . S
H1056 C1030 0.950 . S
H1057 C1032 0.950 . S
H1058 C1035 0.950 . S
H1059 C1037 0.950 . S
C1060 C1061 1.443 . S
C1060 N1064 1.376 . S
C1060 C1098 1.389 . S
C1061 C1060 1.443 . S
C1061 C1062 1.340 . S
C1061 H1101 0.951 . S
C1062 C1061 1.340 . S
C1062 C1063 1.439 . S
C1062 H1102 0.950 . S
C1063 C1062 1.439 . S
C1063 N1064 1.374 . S
C1063 C1097 1.395 . S
N1064 C1060 1.376 . S
N1064 C1063 1.374 . S
N1064 Co1065 2.008 . S
Co1065 N1064 2.008 . S
Co1065 N1066 1.995 . S
Co1065 N1071 2.008 . S
Co1065 N1076 1.995 . S
Co1065 N1081 2.282 . S
Co1065 N1087 2.282 . S
N1066 Co1065 1.995 . S
N1066 C1067 1.376 . S
N1066 C1070 1.383 . S
C1067 N1066 1.376 . S
C1067 C1068 1.446 . S
C1067 C1097 1.391 . S
C1068 C1067 1.446 . S
C1068 C1069 1.339 . S
C1068 H1103 0.949 . S
C1069 C1068 1.339 . S
C1069 C1070 1.439 . S
C1069 H1104 0.950 . S
C1070 N1066 1.383 . S
C1070 C1069 1.439 . S
C1070 C1099 1.392 . S
N1071 Co1065 2.008 . S
N1071 C1072 1.376 . S
N1071 C1075 1.374 . S
C1072 N1071 1.376 . S
C1072 C1073 1.443 . S
C1072 C1099 1.389 . S
C1073 C1072 1.443 . S
C1073 C1074 1.340 . S
C1073 H1105 0.951 . S
C1074 C1073 1.340 . S
C1074 C1075 1.439 . S
C1074 H1106 0.950 . S
C1075 N1071 1.374 . S
C1075 C1074 1.439 . S
C1075 C1100 1.395 . S
N1076 Co1065 1.995 . S
N1076 C1077 1.376 . S
N1076 C1080 1.383 . S
C1077 N1076 1.376 . S
C1077 C1078 1.446 . S
C1077 C1100 1.391 . S
C1078 C1077 1.446 . S
C1078 C1079 1.339 . S
C1078 H1107 0.949 . S
C1079 C1078 1.339 . S
C1079 C1080 1.439 . S
C1079 H1108 0.950 . S
C1080 N1076 1.383 . S
C1080 C1079 1.439 . S
C1080 C1098 1.392 . S
N1081 Co1065 2.282 . S
N1081 C1084 1.332 . S
N1081 C1086 1.332 . S
C1082 C1083 1.386 . S
C1082 C1085 1.388 . S
C1083 C1082 1.386 . S
C1083 C1084 1.382 . S
C1083 H1109 0.950 . S
C1084 N1081 1.332 . S
C1084 C1083 1.382 . S
C1084 H1095 0.952 . S
C1085 C1082 1.388 . S
C1085 C1086 1.382 . S
C1085 H1110 0.950 . S
C1086 N1081 1.332 . S
C1086 C1085 1.382 . S
C1086 H1096 0.948 . S
N1087 Co1065 2.282 . S
N1087 C1091 1.332 . S
N1087 C1092 1.332 . S
C1088 C1089 1.388 . S
C1088 C1092 1.382 . S
C1088 H1111 0.950 . S
C1089 C1088 1.388 . S
C1089 C1090 1.386 . S
C1090 C1089 1.386 . S
C1090 C1091 1.382 . S
C1090 H1112 0.950 . S
C1091 N1087 1.332 . S
C1091 C1090 1.382 . S
C1091 H1093 0.952 . S
C1092 N1087 1.332 . S
C1092 C1088 1.382 . S
C1092 H1094 0.948 . S
H1093 C1091 0.952 . S
H1094 C1092 0.948 . S
H1095 C1084 0.952 . S
H1096 C1086 0.948 . S
C1097 C1063 1.395 . S
C1097 C1067 1.391 . S
C1098 C1060 1.389 . S
C1098 C1080 1.392 . S
C1099 C1070 1.392 . S
C1099 C1072 1.389 . S
C1100 C1075 1.395 . S
C1100 C1077 1.391 . S
H1101 C1061 0.951 . S
H1102 C1062 0.950 . S
H1103 C1068 0.949 . S
H1104 C1069 0.950 . S
H1105 C1073 0.951 . S
H1106 C1074 0.950 . S
H1107 C1078 0.949 . S
H1108 C1079 0.950 . S
H1109 C1083 0.950 . S
H1110 C1085 0.950 . S
H1111 C1088 0.950 . S
H1112 C1090 0.950 . S
C1113 C1114 1.443 . S
C1113 N1117 1.376 . S
C1113 C1151 1.389 . S
C1114 C1113 1.443 . S
C1114 C1115 1.340 . S
C1114 H1154 0.951 . S
C1115 C1114 1.340 . S
C1115 C1116 1.439 . S
C1115 H1155 0.950 . S
C1116 C1115 1.439 . S
C1116 N1117 1.374 . S
C1116 C1150 1.395 . S
N1117 C1113 1.376 . S
N1117 C1116 1.374 . S
N1117 Co1118 2.008 . S
Co1118 N1117 2.008 . S
Co1118 N1119 1.995 . S
Co1118 N1124 2.008 . S
Co1118 N1129 1.995 . S
Co1118 N1134 2.282 . S
Co1118 N1140 2.282 . S
N1119 Co1118 1.995 . S
N1119 C1120 1.376 . S
N1119 C1123 1.383 . S
C1120 N1119 1.376 . S
C1120 C1121 1.446 . S
C1120 C1150 1.391 . S
C1121 C1120 1.446 . S
C1121 C1122 1.339 . S
C1121 H1156 0.949 . S
C1122 C1121 1.339 . S
C1122 C1123 1.439 . S
C1122 H1157 0.950 . S
C1123 N1119 1.383 . S
C1123 C1122 1.439 . S
C1123 C1152 1.392 . S
N1124 Co1118 2.008 . S
N1124 C1125 1.376 . S
N1124 C1128 1.374 . S
C1125 N1124 1.376 . S
C1125 C1126 1.443 . S
C1125 C1152 1.389 . S
C1126 C1125 1.443 . S
C1126 C1127 1.340 . S
C1126 H1158 0.951 . S
C1127 C1126 1.340 . S
C1127 C1128 1.439 . S
C1127 H1159 0.950 . S
C1128 N1124 1.374 . S
C1128 C1127 1.439 . S
C1128 C1153 1.395 . S
N1129 Co1118 1.995 . S
N1129 C1130 1.376 . S
N1129 C1133 1.383 . S
C1130 N1129 1.376 . S
C1130 C1131 1.446 . S
C1130 C1153 1.391 . S
C1131 C1130 1.446 . S
C1131 C1132 1.339 . S
C1131 H1160 0.949 . S
C1132 C1131 1.339 . S
C1132 C1133 1.439 . S
C1132 H1161 0.950 . S
C1133 N1129 1.383 . S
C1133 C1132 1.439 . S
C1133 C1151 1.392 . S
N1134 Co1118 2.282 . S
N1134 C1137 1.332 . S
N1134 C1139 1.332 . S
C1135 C1136 1.386 . S
C1135 C1138 1.388 . S
C1136 C1135 1.386 . S
C1136 C1137 1.382 . S
C1136 H1162 0.950 . S
C1137 N1134 1.332 . S
C1137 C1136 1.382 . S
C1137 H1148 0.952 . S
C1138 C1135 1.388 . S
C1138 C1139 1.382 . S
C1138 H1163 0.950 . S
C1139 N1134 1.332 . S
C1139 C1138 1.382 . S
C1139 H1149 0.948 . S
N1140 Co1118 2.282 . S
N1140 C1144 1.332 . S
N1140 C1145 1.332 . S
C1141 C1142 1.388 . S
C1141 C1145 1.382 . S
C1141 H1164 0.950 . S
C1142 C1141 1.388 . S
C1142 C1143 1.386 . S
C1143 C1142 1.386 . S
C1143 C1144 1.382 . S
C1143 H1165 0.950 . S
C1144 N1140 1.332 . S
C1144 C1143 1.382 . S
C1144 H1146 0.952 . S
C1145 N1140 1.332 . S
C1145 C1141 1.382 . S
C1145 H1147 0.948 . S
H1146 C1144 0.952 . S
H1147 C1145 0.948 . S
H1148 C1137 0.952 . S
H1149 C1139 0.948 . S
C1150 C1116 1.395 . S
C1150 C1120 1.391 . S
C1151 C1113 1.389 . S
C1151 C1133 1.392 . S
C1152 C1123 1.392 . S
C1152 C1125 1.389 . S
C1153 C1128 1.395 . S
C1153 C1130 1.391 . S
H1154 C1114 0.951 . S
H1155 C1115 0.950 . S
H1156 C1121 0.949 . S
H1157 C1122 0.950 . S
H1158 C1126 0.951 . S
H1159 C1127 0.950 . S
H1160 C1131 0.949 . S
H1161 C1132 0.950 . S
H1162 C1136 0.950 . S
H1163 C1138 0.950 . S
H1164 C1141 0.950 . S
H1165 C1143 0.950 . S
C1166 C1167 1.443 . S
C1166 N1170 1.376 . S
C1166 C1204 1.389 . S
C1167 C1166 1.443 . S
C1167 C1168 1.340 . S
C1167 H1207 0.951 . S
C1168 C1167 1.340 . S
C1168 C1169 1.439 . S
C1168 H1208 0.950 . S
C1169 C1168 1.439 . S
C1169 N1170 1.374 . S
C1169 C1203 1.395 . S
N1170 C1166 1.376 . S
N1170 C1169 1.374 . S
N1170 Co1171 2.008 . S
Co1171 N1170 2.008 . S
Co1171 N1172 1.995 . S
Co1171 N1177 2.008 . S
Co1171 N1182 1.995 . S
Co1171 N1187 2.282 . S
Co1171 N1193 2.282 . S
N1172 Co1171 1.995 . S
N1172 C1173 1.376 . S
N1172 C1176 1.383 . S
C1173 N1172 1.376 . S
C1173 C1174 1.446 . S
C1173 C1203 1.391 . S
C1174 C1173 1.446 . S
C1174 C1175 1.339 . S
C1174 H1209 0.949 . S
C1175 C1174 1.339 . S
C1175 C1176 1.439 . S
C1175 H1210 0.950 . S
C1176 N1172 1.383 . S
C1176 C1175 1.439 . S
C1176 C1205 1.392 . S
N1177 Co1171 2.008 . S
N1177 C1178 1.376 . S
N1177 C1181 1.374 . S
C1178 N1177 1.376 . S
C1178 C1179 1.443 . S
C1178 C1205 1.389 . S
C1179 C1178 1.443 . S
C1179 C1180 1.340 . S
C1179 H1211 0.951 . S
C1180 C1179 1.340 . S
C1180 C1181 1.439 . S
C1180 H1212 0.950 . S
C1181 N1177 1.374 . S
C1181 C1180 1.439 . S
C1181 C1206 1.395 . S
N1182 Co1171 1.995 . S
N1182 C1183 1.376 . S
N1182 C1186 1.383 . S
C1183 N1182 1.376 . S
C1183 C1184 1.446 . S
C1183 C1206 1.391 . S
C1184 C1183 1.446 . S
C1184 C1185 1.339 . S
C1184 H1213 0.949 . S
C1185 C1184 1.339 . S
C1185 C1186 1.439 . S
C1185 H1214 0.950 . S
C1186 N1182 1.383 . S
C1186 C1185 1.439 . S
C1186 C1204 1.392 . S
N1187 Co1171 2.282 . S
N1187 C1190 1.332 . S
N1187 C1192 1.332 . S
C1188 C1189 1.386 . S
C1188 C1191 1.388 . S
C1189 C1188 1.386 . S
C1189 C1190 1.382 . S
C1189 H1215 0.950 . S
C1190 N1187 1.332 . S
C1190 C1189 1.382 . S
C1190 H1201 0.952 . S
C1191 C1188 1.388 . S
C1191 C1192 1.382 . S
C1191 H1216 0.950 . S
C1192 N1187 1.332 . S
C1192 C1191 1.382 . S
C1192 H1202 0.948 . S
N1193 Co1171 2.282 . S
N1193 C1197 1.332 . S
N1193 C1198 1.332 . S
C1194 C1195 1.388 . S
C1194 C1198 1.382 . S
C1194 H1217 0.950 . S
C1195 C1194 1.388 . S
C1195 C1196 1.386 . S
C1196 C1195 1.386 . S
C1196 C1197 1.382 . S
C1196 H1218 0.950 . S
C1197 N1193 1.332 . S
C1197 C1196 1.382 . S
C1197 H1199 0.952 . S
C1198 N1193 1.332 . S
C1198 C1194 1.382 . S
C1198 H1200 0.948 . S
H1199 C1197 0.952 . S
H1200 C1198 0.948 . S
H1201 C1190 0.952 . S
H1202 C1192 0.948 . S
C1203 C1169 1.395 . S
C1203 C1173 1.391 . S
C1204 C1166 1.389 . S
C1204 C1186 1.392 . S
C1205 C1176 1.392 . S
C1205 C1178 1.389 . S
C1206 C1181 1.395 . S
C1206 C1183 1.391 . S
H1207 C1167 0.951 . S
H1208 C1168 0.950 . S
H1209 C1174 0.949 . S
H1210 C1175 0.950 . S
H1211 C1179 0.951 . S
H1212 C1180 0.950 . S
H1213 C1184 0.949 . S
H1214 C1185 0.950 . S
H1215 C1189 0.950 . S
H1216 C1191 0.950 . S
H1217 C1194 0.950 . S
H1218 C1196 0.950 . S
C1219 C1220 1.443 . S
C1219 N1223 1.376 . S
C1219 C1257 1.389 . S
C1220 C1219 1.443 . S
C1220 C1221 1.340 . S
C1220 H1260 0.951 . S
C1221 C1220 1.340 . S
C1221 C1222 1.439 . S
C1221 H1261 0.950 . S
C1222 C1221 1.439 . S
C1222 N1223 1.374 . S
C1222 C1256 1.395 . S
N1223 C1219 1.376 . S
N1223 C1222 1.374 . S
N1223 Co1224 2.008 . S
Co1224 N1223 2.008 . S
Co1224 N1225 1.995 . S
Co1224 N1230 2.008 . S
Co1224 N1235 1.995 . S
Co1224 N1240 2.282 . S
Co1224 N1246 2.282 . S
N1225 Co1224 1.995 . S
N1225 C1226 1.376 . S
N1225 C1229 1.383 . S
C1226 N1225 1.376 . S
C1226 C1227 1.446 . S
C1226 C1256 1.391 . S
C1227 C1226 1.446 . S
C1227 C1228 1.339 . S
C1227 H1262 0.949 . S
C1228 C1227 1.339 . S
C1228 C1229 1.439 . S
C1228 H1263 0.950 . S
C1229 N1225 1.383 . S
C1229 C1228 1.439 . S
C1229 C1258 1.392 . S
N1230 Co1224 2.008 . S
N1230 C1231 1.376 . S
N1230 C1234 1.374 . S
C1231 N1230 1.376 . S
C1231 C1232 1.443 . S
C1231 C1258 1.389 . S
C1232 C1231 1.443 . S
C1232 C1233 1.340 . S
C1232 H1264 0.951 . S
C1233 C1232 1.340 . S
C1233 C1234 1.439 . S
C1233 H1265 0.950 . S
C1234 N1230 1.374 . S
C1234 C1233 1.439 . S
C1234 C1259 1.395 . S
N1235 Co1224 1.995 . S
N1235 C1236 1.376 . S
N1235 C1239 1.383 . S
C1236 N1235 1.376 . S
C1236 C1237 1.446 . S
C1236 C1259 1.391 . S
C1237 C1236 1.446 . S
C1237 C1238 1.339 . S
C1237 H1266 0.949 . S
C1238 C1237 1.339 . S
C1238 C1239 1.439 . S
C1238 H1267 0.950 . S
C1239 N1235 1.383 . S
C1239 C1238 1.439 . S
C1239 C1257 1.392 . S
N1240 Co1224 2.282 . S
N1240 C1243 1.332 . S
N1240 C1245 1.332 . S
C1241 C1242 1.386 . S
C1241 C1244 1.388 . S
C1242 C1241 1.386 . S
C1242 C1243 1.382 . S
C1242 H1268 0.950 . S
C1243 N1240 1.332 . S
C1243 C1242 1.382 . S
C1243 H1254 0.952 . S
C1244 C1241 1.388 . S
C1244 C1245 1.382 . S
C1244 H1269 0.950 . S
C1245 N1240 1.332 . S
C1245 C1244 1.382 . S
C1245 H1255 0.948 . S
N1246 Co1224 2.282 . S
N1246 C1250 1.332 . S
N1246 C1251 1.332 . S
C1247 C1248 1.388 . S
C1247 C1251 1.382 . S
C1247 H1270 0.950 . S
C1248 C1247 1.388 . S
C1248 C1249 1.386 . S
C1249 C1248 1.386 . S
C1249 C1250 1.382 . S
C1249 H1271 0.950 . S
C1250 N1246 1.332 . S
C1250 C1249 1.382 . S
C1250 H1252 0.952 . S
C1251 N1246 1.332 . S
C1251 C1247 1.382 . S
C1251 H1253 0.948 . S
H1252 C1250 0.952 . S
H1253 C1251 0.948 . S
H1254 C1243 0.952 . S
H1255 C1245 0.948 . S
C1256 C1222 1.395 . S
C1256 C1226 1.391 . S
C1257 C1219 1.389 . S
C1257 C1239 1.392 . S
C1258 C1229 1.392 . S
C1258 C1231 1.389 . S
C1259 C1234 1.395 . S
C1259 C1236 1.391 . S
H1260 C1220 0.951 . S
H1261 C1221 0.950 . S
H1262 C1227 0.949 . S
H1263 C1228 0.950 . S
H1264 C1232 0.951 . S
H1265 C1233 0.950 . S
H1266 C1237 0.949 . S
H1267 C1238 0.950 . S
H1268 C1242 0.950 . S
H1269 C1244 0.950 . S
H1270 C1247 0.950 . S
H1271 C1249 0.950 . S
H1272 C1278 0.930 . S
H1273 C1282 0.930 . S
H1274 C1287 0.929 . S
H1275 C1285 0.929 . S
H1276 C1280 0.929 . S
H1277 C1286 0.929 . S
C1278 H1272 0.930 . S
C1278 C1279 1.367 . S
C1278 C1286 1.378 . S
C1279 C1278 1.367 . S
C1279 C1287 1.433 . S
C1280 H1276 0.929 . S
C1280 C1282 1.378 . S
C1280 C1284 1.350 . S
C1281 C1284 1.463 . S
C1281 C1286 1.350 . S
C1281 N1289 1.427 . S
C1282 H1273 0.930 . S
C1282 C1280 1.378 . S
C1282 C1283 1.367 . S
C1283 C1282 1.367 . S
C1283 C1285 1.433 . S
C1284 C1280 1.350 . S
C1284 C1281 1.463 . S
C1284 N1288 1.427 . S
C1285 H1275 0.929 . S
C1285 C1283 1.433 . S
C1285 N1288 1.384 . S
C1286 H1277 0.929 . S
C1286 C1278 1.378 . S
C1286 C1281 1.350 . S
C1287 H1274 0.929 . S
C1287 C1279 1.433 . S
C1287 N1289 1.384 . S
N1288 C1284 1.427 . S
N1288 C1285 1.384 . S
N1289 C1281 1.427 . S
N1289 C1287 1.384 . S
H1290 C1296 0.930 . S
H1291 C1300 0.930 . S
H1292 C1305 0.929 . S
H1293 C1303 0.929 . S
H1294 C1298 0.929 . S
H1295 C1304 0.929 . S
C1296 H1290 0.930 . S
C1296 C1297 1.367 . S
C1296 C1304 1.378 . S
C1297 C1296 1.367 . S
C1297 C1305 1.433 . S
C1298 H1294 0.929 . S
C1298 C1300 1.378 . S
C1298 C1302 1.350 . S
C1299 C1302 1.463 1_655 S
C1299 C1304 1.350 . S
C1299 N1307 1.427 . S
C1300 H1291 0.930 . S
C1300 C1298 1.378 . S
C1300 C1301 1.367 . S
C1301 C1300 1.367 . S
C1301 C1303 1.433 . S
C1302 C1298 1.350 . S
C1302 C1299 1.463 1_455 S
C1302 N1306 1.423 1_455 S
C1303 H1293 0.929 . S
C1303 C1301 1.433 . S
C1303 N1306 1.371 1_455 S
C1304 H1295 0.929 . S
C1304 C1296 1.378 . S
C1304 C1299 1.350 . S
C1305 H1292 0.929 . S
C1305 C1297 1.433 . S
C1305 N1307 1.384 . S
N1306 C1302 1.423 1_655 S
N1306 C1303 1.371 1_655 S
N1307 C1299 1.427 . S
N1307 C1305 1.384 . S
H1308 C1314 0.930 . S
H1309 C1318 0.930 . S
H1310 C1323 0.929 . S
H1311 C1321 0.929 . S
H1312 C1316 0.943 . S
H1313 C1322 0.929 . S
C1314 H1308 0.930 . S
C1314 C1315 1.367 . S
C1314 C1322 1.378 . S
C1315 C1314 1.367 . S
C1315 C1323 1.433 . S
C1316 H1312 0.943 . S
C1316 C1318 1.409 . S
C1316 C1320 1.306 1_556 S
C1317 C1320 1.463 . S
C1317 C1322 1.350 . S
C1317 N1325 1.427 . S
C1318 H1309 0.930 . S
C1318 C1316 1.409 . S
C1318 C1319 1.367 . S
C1319 C1318 1.367 . S
C1319 C1321 1.433 1_556 S
C1320 C1316 1.306 1_554 S
C1320 C1317 1.463 . S
C1320 N1324 1.427 . S
C1321 H1311 0.929 . S
C1321 C1319 1.433 1_554 S
C1321 N1324 1.384 . S
C1322 H1313 0.929 . S
C1322 C1314 1.378 . S
C1322 C1317 1.350 . S
C1323 H1310 0.929 . S
C1323 C1315 1.433 . S
C1323 N1325 1.384 . S
N1324 C1320 1.427 . S
N1324 C1321 1.384 . S
N1325 C1317 1.427 . S
N1325 C1323 1.384 . S
H1326 C1332 0.930 . S
H1327 C1336 0.930 . S
H1328 C1341 0.929 . S
H1329 C1339 0.929 . S
H1330 C1334 0.929 . S
H1331 C1340 0.929 . S
C1332 H1326 0.930 . S
C1332 C1333 1.367 . S
C1332 C1340 1.378 . S
C1333 C1332 1.367 . S
C1333 C1341 1.433 . S
C1334 H1330 0.929 . S
C1334 C1336 1.378 . S
C1334 C1338 1.350 . S
C1335 C1338 1.463 . S
C1335 C1340 1.350 . S
C1335 N1343 1.427 . S
C1336 H1327 0.930 . S
C1336 C1334 1.378 . S
C1336 C1337 1.367 . S
C1337 C1336 1.367 . S
C1337 C1339 1.433 . S
C1338 C1334 1.350 . S
C1338 C1335 1.463 . S
C1338 N1342 1.427 . S
C1339 H1329 0.929 . S
C1339 C1337 1.433 . S
C1339 N1342 1.384 . S
C1340 H1331 0.929 . S
C1340 C1332 1.378 . S
C1340 C1335 1.350 . S
C1341 H1328 0.929 . S
C1341 C1333 1.433 . S
C1341 N1343 1.384 . S
N1342 C1338 1.427 . S
N1342 C1339 1.384 . S
N1343 C1335 1.427 . S
N1343 C1341 1.384 . S
H1344 C1350 0.930 . S
H1345 C1354 0.930 . S
H1346 C1359 0.929 . S
H1347 C1357 0.929 . S
H1348 C1352 0.929 1_556 S
H1349 C1358 0.929 1_554 S
C1350 H1344 0.930 . S
C1350 C1351 1.367 . S
C1350 C1358 1.378 . S
C1351 C1350 1.367 . S
C1351 C1359 1.433 . S
C1352 H1348 0.929 1_554 S
C1352 C1354 1.378 . S
C1352 C1356 1.350 . S
C1353 C1356 1.463 1_556 S
C1353 C1358 1.350 . S
C1353 N1361 1.427 . S
C1354 H1345 0.930 . S
C1354 C1352 1.378 . S
C1354 C1355 1.367 . S
C1355 C1354 1.367 . S
C1355 C1357 1.433 . S
C1356 C1352 1.350 . S
C1356 C1353 1.463 1_554 S
C1356 N1360 1.427 . S
C1357 H1347 0.929 . S
C1357 C1355 1.433 . S
C1357 N1360 1.384 . S
C1358 H1349 0.929 1_556 S
C1358 C1350 1.378 . S
C1358 C1353 1.350 . S
C1359 H1346 0.929 . S
C1359 C1351 1.433 . S
C1359 N1361 1.384 . S
N1360 C1356 1.427 . S
N1360 C1357 1.384 . S
N1361 C1353 1.427 . S
N1361 C1359 1.384 . S
H1362 C1368 0.930 . S
H1363 C1372 0.930 . S
H1364 C1377 0.929 . S
H1365 C1375 0.929 . S
H1366 C1370 0.929 . S
H1367 C1376 0.929 . S
C1368 H1362 0.930 . S
C1368 C1369 1.367 . S
C1368 C1376 1.378 . S
C1369 C1368 1.367 . S
C1369 C1377 1.433 . S
C1370 H1366 0.929 . S
C1370 C1372 1.378 . S
C1370 C1374 1.350 . S
C1371 C1374 1.463 . S
C1371 C1376 1.350 . S
C1371 N1379 1.427 . S
C1372 H1363 0.930 . S
C1372 C1370 1.378 . S
C1372 C1373 1.367 . S
C1373 C1372 1.367 . S
C1373 C1375 1.433 . S
C1374 C1370 1.350 . S
C1374 C1371 1.463 . S
C1374 N1378 1.427 . S
C1375 H1365 0.929 . S
C1375 C1373 1.433 . S
C1375 N1378 1.384 . S
C1376 H1367 0.929 . S
C1376 C1368 1.378 . S
C1376 C1371 1.350 . S
C1377 H1364 0.929 . S
C1377 C1369 1.433 . S
C1377 N1379 1.384 . S
N1378 C1374 1.427 . S
N1378 C1375 1.384 . S
N1379 C1371 1.427 . S
N1379 C1377 1.384 . S
H1380 C1386 0.930 . S
H1381 C1390 0.930 . S
H1382 C1395 0.929 . S
H1383 C1393 0.929 . S
H1384 C1388 0.929 . S
H1385 C1394 0.929 . S
C1386 H1380 0.930 . S
C1386 C1387 1.367 . S
C1386 C1394 1.378 . S
C1387 C1386 1.367 . S
C1387 C1395 1.433 . S
C1388 H1384 0.929 . S
C1388 C1390 1.378 . S
C1388 C1392 1.350 . S
C1389 C1392 1.463 . S
C1389 C1394 1.350 . S
C1389 N1397 1.427 . S
C1390 H1381 0.930 . S
C1390 C1388 1.378 . S
C1390 C1391 1.367 . S
C1391 C1390 1.367 . S
C1391 C1393 1.433 . S
C1392 C1388 1.350 . S
C1392 C1389 1.463 . S
C1392 N1396 1.427 . S
C1393 H1383 0.929 . S
C1393 C1391 1.433 . S
C1393 N1396 1.384 . S
C1394 H1385 0.929 . S
C1394 C1386 1.378 . S
C1394 C1389 1.350 . S
C1395 H1382 0.929 . S
C1395 C1387 1.433 . S
C1395 N1397 1.384 . S
N1396 C1392 1.427 . S
N1396 C1393 1.384 . S
N1397 C1389 1.427 . S
N1397 C1395 1.384 . S
H1398 C1404 0.930 . S
H1399 C1408 0.930 . S
H1400 C1413 0.929 . S
H1401 C1411 0.929 . S
H1402 C1406 0.929 1_455 S
H1403 C1412 0.929 . S
C1404 H1398 0.930 . S
C1404 C1405 1.367 . S
C1404 C1412 1.378 . S
C1405 C1404 1.367 . S
C1405 C1413 1.433 . S
C1406 H1402 0.929 1_655 S
C1406 C1408 1.378 . S
C1406 C1410 1.350 . S
C1407 C1410 1.463 1_455 S
C1407 C1412 1.350 . S
C1407 N1415 1.427 . S
C1408 H1399 0.930 . S
C1408 C1406 1.378 . S
C1408 C1409 1.367 . S
C1409 C1408 1.367 . S
C1409 C1411 1.433 . S
C1410 C1406 1.350 . S
C1410 C1407 1.463 1_655 S
C1410 N1414 1.427 . S
C1411 H1401 0.929 . S
C1411 C1409 1.433 . S
C1411 N1414 1.384 . S
C1412 H1403 0.929 . S
C1412 C1404 1.378 . S
C1412 C1407 1.350 . S
C1413 H1400 0.929 . S
C1413 C1405 1.433 . S
C1413 N1415 1.384 . S
N1414 C1410 1.427 . S
N1414 C1411 1.384 . S
N1415 C1407 1.427 . S
N1415 C1413 1.384 . S
H1416 C1422 0.930 . S
H1417 C1426 0.930 . S
H1418 C1431 0.929 . S
H1419 C1429 0.929 . S
H1420 C1424 0.929 . S
H1421 C1430 0.929 . S
C1422 H1416 0.930 . S
C1422 C1423 1.367 . S
C1422 C1430 1.378 . S
C1423 C1422 1.367 . S
C1423 C1431 1.433 . S
C1424 H1420 0.929 . S
C1424 C1426 1.378 . S
C1424 C1428 1.350 . S
C1425 C1428 1.463 . S
C1425 C1430 1.350 . S
C1425 N1433 1.427 . S
C1426 H1417 0.930 . S
C1426 C1424 1.378 . S
C1426 C1427 1.367 . S
C1427 C1426 1.367 . S
C1427 C1429 1.433 . S
C1428 C1424 1.350 . S
C1428 C1425 1.463 . S
C1428 N1432 1.427 . S
C1429 H1419 0.929 . S
C1429 C1427 1.433 . S
C1429 N1432 1.384 . S
C1430 H1421 0.929 . S
C1430 C1422 1.378 . S
C1430 C1425 1.350 . S
C1431 H1418 0.929 . S
C1431 C1423 1.433 . S
C1431 N1433 1.384 . S
N1432 C1428 1.427 . S
N1432 C1429 1.384 . S
N1433 C1425 1.427 . S
N1433 C1431 1.384 . S
H1434 C1440 0.930 1_565 S
H1435 C1444 0.930 . S
H1436 C1449 0.929 . S
H1437 C1447 0.929 . S
H1438 C1442 0.929 . S
H1439 C1448 0.929 . S
C1440 H1434 0.930 1_545 S
C1440 C1441 1.367 . S
C1440 C1448 1.378 1_545 S
C1441 C1440 1.367 . S
C1441 C1449 1.433 . S
C1442 H1438 0.929 . S
C1442 C1444 1.378 . S
C1442 C1446 1.350 . S
C1443 C1446 1.463 . S
C1443 C1448 1.350 . S
C1443 N1451 1.427 1_565 S
C1444 H1435 0.930 . S
C1444 C1442 1.378 . S
C1444 C1445 1.367 . S
C1445 C1444 1.367 . S
C1445 C1447 1.433 . S
C1446 C1442 1.350 . S
C1446 C1443 1.463 . S
C1446 N1450 1.427 . S
C1447 H1437 0.929 . S
C1447 C1445 1.433 . S
C1447 N1450 1.384 . S
C1448 H1439 0.929 . S
C1448 C1440 1.378 1_565 S
C1448 C1443 1.350 . S
C1449 H1436 0.929 . S
C1449 C1441 1.433 . S
C1449 N1451 1.384 . S
N1450 C1446 1.427 . S
N1450 C1447 1.384 . S
N1451 C1443 1.427 1_545 S
N1451 C1449 1.384 . S
H1452 C1458 0.930 . S
H1453 C1462 0.933 . S
H1454 C1467 0.929 . S
H1455 C1465 0.929 . S
H1456 C1460 0.929 . S
H1457 C1466 0.929 . S
C1458 H1452 0.930 . S
C1458 C1459 1.367 . S
C1458 C1466 1.378 . S
C1459 C1458 1.367 . S
C1459 C1467 1.433 . S
C1460 H1456 0.929 . S
C1460 C1462 1.372 1_545 S
C1460 C1464 1.350 . S
C1461 C1464 1.463 . S
C1461 C1466 1.350 . S
C1461 N1469 1.427 . S
C1462 H1453 0.933 . S
C1462 C1460 1.372 1_565 S
C1462 C1463 1.370 . S
C1463 C1462 1.370 . S
C1463 C1465 1.433 . S
C1464 C1460 1.350 . S
C1464 C1461 1.463 . S
C1464 N1468 1.427 . S
C1465 H1455 0.929 . S
C1465 C1463 1.433 . S
C1465 N1468 1.384 1_565 S
C1466 H1457 0.929 . S
C1466 C1458 1.378 . S
C1466 C1461 1.350 . S
C1467 H1454 0.929 . S
C1467 C1459 1.433 . S
C1467 N1469 1.384 . S
N1468 C1464 1.427 . S
N1468 C1465 1.384 1_545 S
N1469 C1461 1.427 . S
N1469 C1467 1.384 . S
H1470 C1476 0.930 . S
H1471 C1480 0.930 . S
H1472 C1485 0.929 . S
H1473 C1483 0.929 . S
H1474 C1478 0.929 . S
H1475 C1484 0.929 . S
C1476 H1470 0.930 . S
C1476 C1477 1.367 . S
C1476 C1484 1.378 . S
C1477 C1476 1.367 . S
C1477 C1485 1.433 . S
C1478 H1474 0.929 . S
C1478 C1480 1.378 . S
C1478 C1482 1.350 1_565 S
C1479 C1482 1.463 . S
C1479 C1484 1.350 . S
C1479 N1487 1.427 . S
C1480 H1471 0.930 . S
C1480 C1478 1.378 . S
C1480 C1481 1.367 . S
C1481 C1480 1.367 . S
C1481 C1483 1.433 . S
C1482 C1478 1.350 1_545 S
C1482 C1479 1.463 . S
C1482 N1486 1.427 . S
C1483 H1473 0.929 . S
C1483 C1481 1.433 . S
C1483 N1486 1.384 1_565 S
C1484 H1475 0.929 . S
C1484 C1476 1.378 . S
C1484 C1479 1.350 . S
C1485 H1472 0.929 . S
C1485 C1477 1.433 . S
C1485 N1487 1.384 . S
N1486 C1482 1.427 . S
N1486 C1483 1.384 1_545 S
N1487 C1479 1.427 . S
N1487 C1485 1.384 . S
H1488 C1494 0.930 . S
H1489 C1498 0.930 . S
H1490 C1503 0.929 . S
H1491 C1501 0.929 . S
H1492 C1496 0.929 . S
H1493 C1502 0.929 . S
C1494 H1488 0.930 . S
C1494 C1495 1.367 . S
C1494 C1502 1.378 . S
C1495 C1494 1.367 . S
C1495 C1503 1.433 . S
C1496 H1492 0.929 . S
C1496 C1498 1.378 . S
C1496 C1500 1.350 . S
C1497 C1500 1.463 . S
C1497 C1502 1.350 . S
C1497 N1505 1.427 . S
C1498 H1489 0.930 . S
C1498 C1496 1.378 . S
C1498 C1499 1.367 . S
C1499 C1498 1.367 . S
C1499 C1501 1.433 . S
C1500 C1496 1.350 . S
C1500 C1497 1.463 . S
C1500 N1504 1.427 . S
C1501 H1491 0.929 . S
C1501 C1499 1.433 . S
C1501 N1504 1.384 . S
C1502 H1493 0.929 . S
C1502 C1494 1.378 . S
C1502 C1497 1.350 . S
C1503 H1490 0.929 . S
C1503 C1495 1.433 . S
C1503 N1505 1.384 . S
N1504 C1500 1.427 . S
N1504 C1501 1.384 . S
N1505 C1497 1.427 . S
N1505 C1503 1.384 . S
H1506 C1512 0.930 . S
H1507 C1516 0.930 . S
H1508 C1521 0.929 . S
H1509 C1519 0.929 . S
H1510 C1514 0.929 . S
H1511 C1520 0.929 . S
C1512 H1506 0.930 . S
C1512 C1513 1.367 . S
C1512 C1520 1.378 . S
C1513 C1512 1.367 . S
C1513 C1521 1.433 . S
C1514 H1510 0.929 . S
C1514 C1516 1.378 . S
C1514 C1518 1.350 . S
C1515 C1518 1.463 . S
C1515 C1520 1.350 . S
C1515 N1523 1.427 . S
C1516 H1507 0.930 . S
C1516 C1514 1.378 . S
C1516 C1517 1.367 . S
C1517 C1516 1.367 . S
C1517 C1519 1.433 . S
C1518 C1514 1.350 . S
C1518 C1515 1.463 . S
C1518 N1522 1.427 . S
C1519 H1509 0.929 . S
C1519 C1517 1.433 . S
C1519 N1522 1.384 . S
C1520 H1511 0.929 . S
C1520 C1512 1.378 . S
C1520 C1515 1.350 . S
C1521 H1508 0.929 . S
C1521 C1513 1.433 . S
C1521 N1523 1.384 . S
N1522 C1518 1.427 . S
N1522 C1519 1.384 . S
N1523 C1515 1.427 . S
N1523 C1521 1.384 . S
H1524 C1530 0.930 . S
H1525 C1534 0.930 . S
H1526 C1539 0.929 . S
H1527 C1537 0.929 . S
H1528 C1532 0.929 . S
H1529 C1538 0.929 . S
C1530 H1524 0.930 . S
C1530 C1531 1.367 . S
C1530 C1538 1.378 . S
C1531 C1530 1.367 . S
C1531 C1539 1.433 . S
C1532 H1528 0.929 . S
C1532 C1534 1.378 . S
C1532 C1536 1.350 . S
C1533 C1536 1.463 . S
C1533 C1538 1.350 . S
C1533 N1541 1.427 . S
C1534 H1525 0.930 . S
C1534 C1532 1.378 . S
C1534 C1535 1.367 . S
C1535 C1534 1.367 . S
C1535 C1537 1.433 . S
C1536 C1532 1.350 . S
C1536 C1533 1.463 . S
C1536 N1540 1.427 . S
C1537 H1527 0.929 . S
C1537 C1535 1.433 . S
C1537 N1540 1.384 . S
C1538 H1529 0.929 . S
C1538 C1530 1.378 . S
C1538 C1533 1.350 . S
C1539 H1526 0.929 . S
C1539 C1531 1.433 . S
C1539 N1541 1.384 . S
N1540 C1536 1.427 . S
N1540 C1537 1.384 . S
N1541 C1533 1.427 . S
N1541 C1539 1.384 . S
H1542 C1548 0.930 . S
H1543 C1552 0.930 . S
H1544 C1557 0.929 . S
H1545 C1555 0.929 . S
H1546 C1550 0.929 1_556 S
H1547 C1556 0.929 1_554 S
C1548 H1542 0.930 . S
C1548 C1549 1.367 . S
C1548 C1556 1.378 . S
C1549 C1548 1.367 . S
C1549 C1557 1.433 . S
C1550 H1546 0.929 1_554 S
C1550 C1552 1.378 . S
C1550 C1554 1.350 . S
C1551 C1554 1.463 1_556 S
C1551 C1556 1.350 . S
C1551 N1559 1.427 . S
C1552 H1543 0.930 . S
C1552 C1550 1.378 . S
C1552 C1553 1.367 . S
C1553 C1552 1.367 . S
C1553 C1555 1.433 . S
C1554 C1550 1.350 . S
C1554 C1551 1.463 1_554 S
C1554 N1558 1.427 . S
C1555 H1545 0.929 . S
C1555 C1553 1.433 . S
C1555 N1558 1.384 . S
C1556 H1547 0.929 1_556 S
C1556 C1548 1.378 . S
C1556 C1551 1.350 . S
C1557 H1544 0.929 . S
C1557 C1549 1.433 . S
C1557 N1559 1.384 . S
N1558 C1554 1.427 . S
N1558 C1555 1.384 . S
N1559 C1551 1.427 . S
N1559 C1557 1.384 . S
H1560 C1566 0.930 . S
H1561 C1570 0.930 . S
H1562 C1575 0.929 . S
H1563 C1573 0.929 . S
H1564 C1568 0.929 . S
H1565 C1574 0.929 . S
C1566 H1560 0.930 . S
C1566 C1567 1.367 . S
C1566 C1574 1.378 . S
C1567 C1566 1.367 . S
C1567 C1575 1.433 . S
C1568 H1564 0.929 . S
C1568 C1570 1.378 . S
C1568 C1572 1.350 . S
C1569 C1572 1.463 . S
C1569 C1574 1.350 . S
C1569 N1577 1.427 . S
C1570 H1561 0.930 . S
C1570 C1568 1.378 . S
C1570 C1571 1.367 . S
C1571 C1570 1.367 . S
C1571 C1573 1.433 . S
C1572 C1568 1.350 . S
C1572 C1569 1.463 . S
C1572 N1576 1.427 . S
C1573 H1563 0.929 . S
C1573 C1571 1.433 . S
C1573 N1576 1.384 . S
C1574 H1565 0.929 . S
C1574 C1566 1.378 . S
C1574 C1569 1.350 . S
C1575 H1562 0.929 . S
C1575 C1567 1.433 . S
C1575 N1577 1.384 . S
N1576 C1572 1.427 . S
N1576 C1573 1.384 . S
N1577 C1569 1.427 . S
N1577 C1575 1.384 . S
H1578 C1584 0.930 . S
H1579 C1588 0.930 . S
H1580 C1593 0.929 . S
H1581 C1591 0.929 . S
H1582 C1586 0.929 . S
H1583 C1592 0.929 . S
C1584 H1578 0.930 . S
C1584 C1585 1.367 . S
C1584 C1592 1.378 . S
C1585 C1584 1.367 . S
C1585 C1593 1.433 . S
C1586 H1582 0.929 . S
C1586 C1588 1.378 . S
C1586 C1590 1.350 . S
C1587 C1590 1.463 . S
C1587 C1592 1.350 . S
C1587 N1595 1.427 . S
C1588 H1579 0.930 . S
C1588 C1586 1.378 . S
C1588 C1589 1.367 . S
C1589 C1588 1.367 . S
C1589 C1591 1.433 . S
C1590 C1586 1.350 . S
C1590 C1587 1.463 . S
C1590 N1594 1.427 . S
C1591 H1581 0.929 . S
C1591 C1589 1.433 . S
C1591 N1594 1.384 . S
C1592 H1583 0.929 . S
C1592 C1584 1.378 . S
C1592 C1587 1.350 . S
C1593 H1580 0.929 . S
C1593 C1585 1.433 . S
C1593 N1595 1.384 . S
N1594 C1590 1.427 . S
N1594 C1591 1.384 . S
N1595 C1587 1.427 . S
N1595 C1593 1.384 . S
H1596 C1602 0.930 . S
H1597 C1606 0.930 . S
H1598 C1611 0.929 . S
H1599 C1609 0.929 . S
H1600 C1604 0.929 . S
H1601 C1610 0.929 . S
C1602 H1596 0.930 . S
C1602 C1603 1.367 . S
C1602 C1610 1.378 . S
C1603 C1602 1.367 . S
C1603 C1611 1.433 . S
C1604 H1600 0.929 . S
C1604 C1606 1.378 1_655 S
C1604 C1608 1.350 . S
C1605 C1608 1.463 . S
C1605 C1610 1.350 . S
C1605 N1613 1.427 . S
C1606 H1597 0.930 . S
C1606 C1604 1.378 1_455 S
C1606 C1607 1.367 . S
C1607 C1606 1.367 . S
C1607 C1609 1.433 . S
C1608 C1604 1.350 . S
C1608 C1605 1.463 . S
C1608 N1612 1.427 . S
C1609 H1599 0.929 . S
C1609 C1607 1.433 . S
C1609 N1612 1.384 1_455 S
C1610 H1601 0.929 . S
C1610 C1602 1.378 . S
C1610 C1605 1.350 . S
C1611 H1598 0.929 . S
C1611 C1603 1.433 . S
C1611 N1613 1.384 . S
N1612 C1608 1.427 . S
N1612 C1609 1.384 1_655 S
N1613 C1605 1.427 . S
N1613 C1611 1.384 . S
H1614 C1620 0.930 . S
H1615 C1624 0.930 . S
H1616 C1629 0.929 . S
H1617 C1627 0.929 . S
H1618 C1622 0.929 . S
H1619 C1628 0.929 . S
C1620 H1614 0.930 . S
C1620 C1621 1.367 . S
C1620 C1628 1.378 . S
C1621 C1620 1.367 . S
C1621 C1629 1.433 . S
C1622 H1618 0.929 . S
C1622 C1624 1.378 . S
C1622 C1626 1.350 . S
C1623 C1626 1.463 . S
C1623 C1628 1.350 . S
C1623 N1631 1.427 . S
C1624 H1615 0.930 . S
C1624 C1622 1.378 . S
C1624 C1625 1.367 . S
C1625 C1624 1.367 . S
C1625 C1627 1.433 . S
C1626 C1622 1.350 . S
C1626 C1623 1.463 . S
C1626 N1630 1.427 . S
C1627 H1617 0.929 . S
C1627 C1625 1.433 . S
C1627 N1630 1.384 . S
C1628 H1619 0.929 . S
C1628 C1620 1.378 . S
C1628 C1623 1.350 . S
C1629 H1616 0.929 . S
C1629 C1621 1.433 . S
C1629 N1631 1.384 . S
N1630 C1626 1.427 . S
N1630 C1627 1.384 . S
N1631 C1623 1.427 . S
N1631 C1629 1.384 . S
H1632 C1638 0.930 . S
H1633 C1642 0.930 . S
H1634 C1647 0.929 . S
H1635 C1645 0.929 . S
H1636 C1640 0.929 . S
H1637 C1646 0.929 . S
C1638 H1632 0.930 . S
C1638 C1639 1.367 . S
C1638 C1646 1.378 . S
C1639 C1638 1.367 . S
C1639 C1647 1.433 . S
C1640 H1636 0.929 . S
C1640 C1642 1.378 . S
C1640 C1644 1.350 1_655 S
C1641 C1644 1.463 . S
C1641 C1646 1.350 . S
C1641 N1649 1.427 . S
C1642 H1633 0.930 . S
C1642 C1640 1.378 . S
C1642 C1643 1.367 . S
C1643 C1642 1.367 . S
C1643 C1645 1.430 1_655 S
C1644 C1640 1.350 1_455 S
C1644 C1641 1.463 . S
C1644 N1648 1.427 . S
C1645 H1635 0.929 . S
C1645 C1643 1.430 1_455 S
C1645 N1648 1.387 . S
C1646 H1637 0.929 . S
C1646 C1638 1.378 . S
C1646 C1641 1.350 . S
C1647 H1634 0.929 . S
C1647 C1639 1.433 . S
C1647 N1649 1.384 . S
N1648 C1644 1.427 . S
N1648 C1645 1.387 . S
N1649 C1641 1.427 . S
N1649 C1647 1.384 . S
H1650 C1656 0.930 . S
H1651 C1660 0.930 . S
H1652 C1665 0.929 . S
H1653 C1663 0.929 . S
H1654 C1658 0.933 . S
H1655 C1664 0.929 . S
C1656 H1650 0.930 . S
C1656 C1657 1.367 . S
C1656 C1664 1.378 . S
C1657 C1656 1.367 . S
C1657 C1665 1.433 . S
C1658 H1654 0.933 . S
C1658 C1660 1.371 1_556 S
C1658 C1662 1.352 . S
C1659 C1662 1.463 . S
C1659 C1664 1.350 . S
C1659 N1667 1.427 . S
C1660 H1651 0.930 . S
C1660 C1658 1.371 1_554 S
C1660 C1661 1.367 . S
C1661 C1660 1.367 . S
C1661 C1663 1.433 . S
C1662 C1658 1.352 . S
C1662 C1659 1.463 . S
C1662 N1666 1.427 1_556 S
C1663 H1653 0.929 . S
C1663 C1661 1.433 . S
C1663 N1666 1.384 . S
C1664 H1655 0.929 . S
C1664 C1656 1.378 . S
C1664 C1659 1.350 . S
C1665 H1652 0.929 . S
C1665 C1657 1.433 . S
C1665 N1667 1.384 . S
N1666 C1662 1.427 1_554 S
N1666 C1663 1.384 . S
N1667 C1659 1.427 . S
N1667 C1665 1.384 . S
H1668 C1674 0.930 . S
H1669 C1678 0.930 . S
H1670 C1683 0.929 . S
H1671 C1681 0.929 . S
H1672 C1676 0.929 . S
H1673 C1682 0.929 . S
C1674 H1668 0.930 . S
C1674 C1675 1.367 . S
C1674 C1682 1.378 . S
C1675 C1674 1.367 . S
C1675 C1683 1.433 . S
C1676 H1672 0.929 . S
C1676 C1678 1.378 . S
C1676 C1680 1.350 . S
C1677 C1680 1.463 . S
C1677 C1682 1.350 . S
C1677 N1685 1.427 . S
C1678 H1669 0.930 . S
C1678 C1676 1.378 . S
C1678 C1679 1.367 . S
C1679 C1678 1.367 . S
C1679 C1681 1.433 . S
C1680 C1676 1.350 . S
C1680 C1677 1.463 . S
C1680 N1684 1.427 . S
C1681 H1671 0.929 . S
C1681 C1679 1.433 . S
C1681 N1684 1.384 . S
C1682 H1673 0.929 . S
C1682 C1674 1.378 . S
C1682 C1677 1.350 . S
C1683 H1670 0.929 . S
C1683 C1675 1.433 . S
C1683 N1685 1.384 . S
N1684 C1680 1.427 . S
N1684 C1681 1.384 . S
N1685 C1677 1.427 . S
N1685 C1683 1.384 . S
H1686 C1692 0.930 . S
H1687 C1696 0.930 . S
H1688 C1701 0.929 . S
H1689 C1699 0.929 . S
H1690 C1694 0.929 . S
H1691 C1700 0.929 . S
C1692 H1686 0.930 . S
C1692 C1693 1.367 . S
C1692 C1700 1.378 . S
C1693 C1692 1.367 . S
C1693 C1701 1.433 . S
C1694 H1690 0.929 . S
C1694 C1696 1.378 1_565 S
C1694 C1698 1.350 . S
C1695 C1698 1.463 . S
C1695 C1700 1.350 . S
C1695 N1703 1.427 . S
C1696 H1687 0.930 . S
C1696 C1694 1.378 1_545 S
C1696 C1697 1.367 . S
C1697 C1696 1.367 . S
C1697 C1699 1.433 . S
C1698 C1694 1.350 . S
C1698 C1695 1.463 . S
C1698 N1702 1.427 1_565 S
C1699 H1689 0.929 . S
C1699 C1697 1.433 . S
C1699 N1702 1.384 . S
C1700 H1691 0.929 . S
C1700 C1692 1.378 . S
C1700 C1695 1.350 . S
C1701 H1688 0.929 . S
C1701 C1693 1.433 . S
C1701 N1703 1.384 . S
N1702 C1698 1.427 1_545 S
N1702 C1699 1.384 . S
N1703 C1695 1.427 . S
N1703 C1701 1.384 . S
H1704 C1710 0.930 . S
H1705 C1714 0.930 . S
H1706 C1719 0.929 . S
H1707 C1717 0.929 . S
H1708 C1712 0.929 . S
H1709 C1718 0.929 . S
C1710 H1704 0.930 . S
C1710 C1711 1.367 . S
C1710 C1718 1.378 . S
C1711 C1710 1.367 . S
C1711 C1719 1.433 . S
C1712 H1708 0.929 . S
C1712 C1714 1.378 . S
C1712 C1716 1.350 . S
C1713 C1716 1.463 . S
C1713 C1718 1.350 . S
C1713 N1721 1.427 . S
C1714 H1705 0.930 . S
C1714 C1712 1.378 . S
C1714 C1715 1.367 . S
C1715 C1714 1.367 . S
C1715 C1717 1.433 . S
C1716 C1712 1.350 . S
C1716 C1713 1.463 . S
C1716 N1720 1.427 . S
C1717 H1707 0.929 . S
C1717 C1715 1.433 . S
C1717 N1720 1.384 . S
C1718 H1709 0.929 . S
C1718 C1710 1.378 . S
C1718 C1713 1.350 . S
C1719 H1706 0.929 . S
C1719 C1711 1.433 . S
C1719 N1721 1.384 . S
N1720 C1716 1.427 . S
N1720 C1717 1.384 . S
N1721 C1713 1.427 . S
N1721 C1719 1.384 . S
H1722 C1728 0.930 . S
H1723 C1732 0.930 . S
H1724 C1737 0.929 . S
H1725 C1735 0.929 . S
H1726 C1730 0.929 . S
H1727 C1736 0.929 . S
C1728 H1722 0.930 . S
C1728 C1729 1.367 . S
C1728 C1736 1.378 . S
C1729 C1728 1.367 . S
C1729 C1737 1.433 . S
C1730 H1726 0.929 . S
C1730 C1732 1.378 . S
C1730 C1734 1.350 . S
C1731 C1734 1.463 . S
C1731 C1736 1.350 . S
C1731 N1739 1.427 . S
C1732 H1723 0.930 . S
C1732 C1730 1.378 . S
C1732 C1733 1.367 . S
C1733 C1732 1.367 . S
C1733 C1735 1.433 . S
C1734 C1730 1.350 . S
C1734 C1731 1.463 . S
C1734 N1738 1.427 . S
C1735 H1725 0.929 . S
C1735 C1733 1.433 . S
C1735 N1738 1.384 . S
C1736 H1727 0.929 . S
C1736 C1728 1.378 . S
C1736 C1731 1.350 . S
C1737 H1724 0.929 . S
C1737 C1729 1.433 . S
C1737 N1739 1.384 . S
N1738 C1734 1.427 . S
N1738 C1735 1.384 . S
N1739 C1731 1.427 . S
N1739 C1737 1.384 . S
H1740 C1746 0.930 . S
H1741 C1750 0.930 . S
H1742 C1755 0.929 . S
H1743 C1753 0.929 . S
H1744 C1748 0.929 . S
H1745 C1754 0.929 . S
C1746 H1740 0.930 . S
C1746 C1747 1.367 . S
C1746 C1754 1.378 . S
C1747 C1746 1.367 . S
C1747 C1755 1.433 . S
C1748 H1744 0.929 . S
C1748 C1750 1.378 . S
C1748 C1752 1.350 . S
C1749 C1752 1.463 . S
C1749 C1754 1.350 . S
C1749 N1757 1.427 . S
C1750 H1741 0.930 . S
C1750 C1748 1.378 . S
C1750 C1751 1.367 . S
C1751 C1750 1.367 . S
C1751 C1753 1.433 . S
C1752 C1748 1.350 . S
C1752 C1749 1.463 . S
C1752 N1756 1.427 . S
C1753 H1743 0.929 . S
C1753 C1751 1.433 . S
C1753 N1756 1.384 . S
C1754 H1745 0.929 . S
C1754 C1746 1.378 . S
C1754 C1749 1.350 . S
C1755 H1742 0.929 . S
C1755 C1747 1.433 . S
C1755 N1757 1.384 . S
N1756 C1752 1.427 . S
N1756 C1753 1.384 . S
N1757 C1749 1.427 . S
N1757 C1755 1.384 . S
H1758 C1764 0.930 . S
H1759 C1768 0.930 . S
H1760 C1773 0.929 . S
H1761 C1771 0.929 . S
H1762 C1766 0.929 1_556 S
H1763 C1772 0.929 . S
C1764 H1758 0.930 . S
C1764 C1765 1.367 . S
C1764 C1772 1.378 . S
C1765 C1764 1.367 . S
C1765 C1773 1.433 . S
C1766 H1762 0.929 1_554 S
C1766 C1768 1.378 . S
C1766 C1770 1.350 1_554 S
C1767 C1770 1.463 . S
C1767 C1772 1.350 . S
C1767 N1775 1.427 . S
C1768 H1759 0.930 . S
C1768 C1766 1.378 . S
C1768 C1769 1.367 . S
C1769 C1768 1.367 . S
C1769 C1771 1.433 . S
C1770 C1766 1.350 1_556 S
C1770 C1767 1.463 . S
C1770 N1774 1.427 1_556 S
C1771 H1761 0.929 . S
C1771 C1769 1.433 . S
C1771 N1774 1.384 . S
C1772 H1763 0.929 . S
C1772 C1764 1.378 . S
C1772 C1767 1.350 . S
C1773 H1760 0.929 . S
C1773 C1765 1.433 . S
C1773 N1775 1.384 . S
N1774 C1770 1.427 1_554 S
N1774 C1771 1.384 . S
N1775 C1767 1.427 . S
N1775 C1773 1.384 . S
H1776 C1782 0.930 . S
H1777 C1786 0.930 . S
H1778 C1791 0.929 . S
H1779 C1789 0.929 . S
H1780 C1784 0.929 . S
H1781 C1790 0.929 . S
C1782 H1776 0.930 . S
C1782 C1783 1.367 . S
C1782 C1790 1.378 . S
C1783 C1782 1.367 . S
C1783 C1791 1.433 . S
C1784 H1780 0.929 . S
C1784 C1786 1.378 . S
C1784 C1788 1.350 . S
C1785 C1788 1.463 . S
C1785 C1790 1.350 . S
C1785 N1793 1.427 . S
C1786 H1777 0.930 . S
C1786 C1784 1.378 . S
C1786 C1787 1.367 . S
C1787 C1786 1.367 . S
C1787 C1789 1.433 . S
C1788 C1784 1.350 . S
C1788 C1785 1.463 . S
C1788 N1792 1.427 . S
C1789 H1779 0.929 . S
C1789 C1787 1.433 . S
C1789 N1792 1.384 . S
C1790 H1781 0.929 . S
C1790 C1782 1.378 . S
C1790 C1785 1.350 . S
C1791 H1778 0.929 . S
C1791 C1783 1.433 . S
C1791 N1793 1.384 . S
N1792 C1788 1.427 . S
N1792 C1789 1.384 . S
N1793 C1785 1.427 . S
N1793 C1791 1.384 . S
H1794 C1800 0.930 . S
H1795 C1804 0.930 . S
H1796 C1809 0.929 . S
H1797 C1807 0.929 . S
H1798 C1802 0.929 . S
H1799 C1808 0.935 . S
C1800 H1794 0.930 . S
C1800 C1801 1.367 . S
C1800 C1808 1.399 . S
C1801 C1800 1.367 . S
C1801 C1809 1.433 1_545 S
C1802 H1798 0.929 . S
C1802 C1804 1.378 . S
C1802 C1806 1.350 . S
C1803 C1806 1.463 . S
C1803 C1808 1.323 1_565 S
C1803 N1811 1.427 . S
C1804 H1795 0.930 . S
C1804 C1802 1.378 . S
C1804 C1805 1.367 . S
C1805 C1804 1.367 . S
C1805 C1807 1.433 . S
C1806 C1802 1.350 . S
C1806 C1803 1.463 . S
C1806 N1810 1.427 . S
C1807 H1797 0.929 . S
C1807 C1805 1.433 . S
C1807 N1810 1.384 . S
C1808 H1799 0.935 . S
C1808 C1800 1.399 . S
C1808 C1803 1.323 1_545 S
C1809 H1796 0.929 . S
C1809 C1801 1.433 1_565 S
C1809 N1811 1.384 . S
N1810 C1806 1.427 . S
N1810 C1807 1.384 . S
N1811 C1803 1.427 . S
N1811 C1809 1.384 . S
H1812 C1818 0.930 . S
H1813 C1822 0.930 . S
H1814 C1827 0.929 . S
H1815 C1825 0.929 . S
H1816 C1820 0.929 . S
H1817 C1826 0.929 . S
C1818 H1812 0.930 . S
C1818 C1819 1.367 . S
C1818 C1826 1.378 . S
C1819 C1818 1.367 . S
C1819 C1827 1.433 . S
C1820 H1816 0.929 . S
C1820 C1822 1.378 . S
C1820 C1824 1.350 1_556 S
C1821 C1824 1.463 . S
C1821 C1826 1.350 . S
C1821 N1829 1.427 . S
C1822 H1813 0.930 . S
C1822 C1820 1.378 . S
C1822 C1823 1.367 . S
C1823 C1822 1.367 . S
C1823 C1825 1.433 . S
C1824 C1820 1.350 1_554 S
C1824 C1821 1.463 . S
C1824 N1828 1.427 . S
C1825 H1815 0.929 . S
C1825 C1823 1.433 . S
C1825 N1828 1.384 1_556 S
C1826 H1817 0.929 . S
C1826 C1818 1.378 . S
C1826 C1821 1.350 . S
C1827 H1814 0.929 . S
C1827 C1819 1.433 . S
C1827 N1829 1.384 . S
N1828 C1824 1.427 . S
N1828 C1825 1.384 1_554 S
N1829 C1821 1.427 . S
N1829 C1827 1.384 . S
H1830 C1836 0.930 . S
H1831 C1840 0.930 . S
H1832 C1845 0.929 . S
H1833 C1843 0.929 . S
H1834 C1838 0.929 . S
H1835 C1844 0.929 . S
C1836 H1830 0.930 . S
C1836 C1837 1.367 1_565 S
C1836 C1844 1.378 . S
C1837 C1836 1.367 1_545 S
C1837 C1845 1.433 . S
C1838 H1834 0.929 . S
C1838 C1840 1.378 . S
C1838 C1842 1.350 . S
C1839 C1842 1.463 . S
C1839 C1844 1.350 . S
C1839 N1847 1.427 1_565 S
C1840 H1831 0.930 . S
C1840 C1838 1.378 . S
C1840 C1841 1.367 . S
C1841 C1840 1.367 . S
C1841 C1843 1.433 . S
C1842 C1838 1.350 . S
C1842 C1839 1.463 . S
C1842 N1846 1.427 . S
C1843 H1833 0.929 . S
C1843 C1841 1.433 . S
C1843 N1846 1.384 . S
C1844 H1835 0.929 . S
C1844 C1836 1.378 . S
C1844 C1839 1.350 . S
C1845 H1832 0.929 . S
C1845 C1837 1.433 . S
C1845 N1847 1.384 . S
N1846 C1842 1.427 . S
N1846 C1843 1.384 . S
N1847 C1839 1.427 1_545 S
N1847 C1845 1.384 . S
H1848 C1854 0.930 . S
H1849 C1858 0.930 . S
H1850 C1863 0.929 . S
H1851 C1861 0.929 . S
H1852 C1856 0.929 . S
H1853 C1862 0.929 . S
C1854 H1848 0.930 . S
C1854 C1855 1.367 . S
C1854 C1862 1.378 . S
C1855 C1854 1.367 . S
C1855 C1863 1.433 . S
C1856 H1852 0.929 . S
C1856 C1858 1.378 . S
C1856 C1860 1.350 . S
C1857 C1860 1.463 . S
C1857 C1862 1.350 . S
C1857 N1865 1.427 . S
C1858 H1849 0.930 . S
C1858 C1856 1.378 . S
C1858 C1859 1.367 . S
C1859 C1858 1.367 . S
C1859 C1861 1.433 . S
C1860 C1856 1.350 . S
C1860 C1857 1.463 . S
C1860 N1864 1.427 . S
C1861 H1851 0.929 . S
C1861 C1859 1.433 . S
C1861 N1864 1.384 . S
C1862 H1853 0.929 . S
C1862 C1854 1.378 . S
C1862 C1857 1.350 . S
C1863 H1850 0.929 . S
C1863 C1855 1.433 . S
C1863 N1865 1.384 . S
N1864 C1860 1.427 . S
N1864 C1861 1.384 . S
N1865 C1857 1.427 . S
N1865 C1863 1.384 . S
H1866 C1872 0.930 . S
H1867 C1876 0.930 . S
H1868 C1881 0.929 . S
H1869 C1879 0.929 . S
H1870 C1874 0.929 . S
H1871 C1880 0.929 . S
C1872 H1866 0.930 . S
C1872 C1873 1.367 . S
C1872 C1880 1.378 . S
C1873 C1872 1.367 . S
C1873 C1881 1.433 . S
C1874 H1870 0.929 . S
C1874 C1876 1.378 . S
C1874 C1878 1.350 . S
C1875 C1878 1.463 1_655 S
C1875 C1880 1.350 . S
C1875 N1883 1.427 . S
C1876 H1867 0.930 . S
C1876 C1874 1.378 . S
C1876 C1877 1.367 . S
C1877 C1876 1.367 . S
C1877 C1879 1.433 . S
C1878 C1874 1.350 . S
C1878 C1875 1.463 1_455 S
C1878 N1882 1.427 . S
C1879 H1869 0.929 . S
C1879 C1877 1.433 . S
C1879 N1882 1.384 . S
C1880 H1871 0.929 . S
C1880 C1872 1.378 . S
C1880 C1875 1.350 . S
C1881 H1868 0.929 . S
C1881 C1873 1.433 . S
C1881 N1883 1.384 . S
N1882 C1878 1.427 . S
N1882 C1879 1.384 . S
N1883 C1875 1.427 . S
N1883 C1881 1.384 . S
H1884 C1890 0.934 . S
H1885 C1894 0.930 . S
H1886 C1899 0.929 . S
H1887 C1897 0.929 . S
H1888 C1892 0.929 . S
H1889 C1898 0.929 . S
C1890 H1884 0.934 . S
C1890 C1891 1.367 . S
C1890 C1898 1.378 1_455 S
C1891 C1890 1.367 . S
C1891 C1899 1.433 . S
C1892 H1888 0.929 . S
C1892 C1894 1.378 . S
C1892 C1896 1.350 . S
C1893 C1896 1.463 . S
C1893 C1898 1.350 . S
C1893 N1901 1.427 1_655 S
C1894 H1885 0.930 . S
C1894 C1892 1.378 . S
C1894 C1895 1.367 . S
C1895 C1894 1.367 . S
C1895 C1897 1.433 . S
C1896 C1892 1.350 . S
C1896 C1893 1.463 . S
C1896 N1900 1.427 . S
C1897 H1887 0.929 . S
C1897 C1895 1.433 . S
C1897 N1900 1.384 . S
C1898 H1889 0.929 . S
C1898 C1890 1.378 1_655 S
C1898 C1893 1.350 . S
C1899 H1886 0.929 . S
C1899 C1891 1.433 . S
C1899 N1901 1.384 . S
N1900 C1896 1.427 . S
N1900 C1897 1.384 . S
N1901 C1893 1.427 1_455 S
N1901 C1899 1.384 . S
H1902 C1908 0.930 . S
H1903 C1912 0.930 . S
H1904 C1917 0.929 . S
H1905 C1915 0.929 . S
H1906 C1910 0.929 . S
H1907 C1916 0.929 . S
C1908 H1902 0.930 . S
C1908 C1909 1.367 . S
C1908 C1916 1.378 . S
C1909 C1908 1.367 . S
C1909 C1917 1.433 . S
C1910 H1906 0.929 . S
C1910 C1912 1.378 . S
C1910 C1914 1.350 . S
C1911 C1914 1.463 . S
C1911 C1916 1.350 . S
C1911 N1919 1.427 . S
C1912 H1903 0.930 . S
C1912 C1910 1.378 . S
C1912 C1913 1.367 . S
C1913 C1912 1.367 . S
C1913 C1915 1.433 . S
C1914 C1910 1.350 . S
C1914 C1911 1.463 . S
C1914 N1918 1.427 . S
C1915 H1905 0.929 . S
C1915 C1913 1.433 . S
C1915 N1918 1.384 . S
C1916 H1907 0.929 . S
C1916 C1908 1.378 . S
C1916 C1911 1.350 . S
C1917 H1904 0.929 . S
C1917 C1909 1.433 . S
C1917 N1919 1.384 . S
N1918 C1914 1.427 . S
N1918 C1915 1.384 . S
N1919 C1911 1.427 . S
N1919 C1917 1.384 . S
H1920 C1926 0.930 . S
H1921 C1930 0.930 . S
H1922 C1935 0.929 . S
H1923 C1933 0.929 . S
H1924 C1928 0.929 . S
H1925 C1934 0.929 . S
C1926 H1920 0.930 . S
C1926 C1927 1.367 . S
C1926 C1934 1.378 . S
C1927 C1926 1.367 . S
C1927 C1935 1.433 . S
C1928 H1924 0.929 . S
C1928 C1930 1.378 . S
C1928 C1932 1.350 . S
C1929 C1932 1.463 1_455 S
C1929 C1934 1.350 . S
C1929 N1937 1.427 . S
C1930 H1921 0.930 . S
C1930 C1928 1.378 . S
C1930 C1931 1.367 . S
C1931 C1930 1.367 . S
C1931 C1933 1.433 . S
C1932 C1928 1.350 . S
C1932 C1929 1.463 1_655 S
C1932 N1936 1.427 . S
C1933 H1923 0.929 . S
C1933 C1931 1.433 . S
C1933 N1936 1.384 . S
C1934 H1925 0.929 . S
C1934 C1926 1.378 . S
C1934 C1929 1.350 . S
C1935 H1922 0.929 . S
C1935 C1927 1.433 . S
C1935 N1937 1.384 . S
N1936 C1932 1.427 . S
N1936 C1933 1.384 . S
N1937 C1929 1.427 . S
N1937 C1935 1.384 . S
H1938 C1944 0.930 . S
H1939 C1948 0.930 . S
H1940 C1953 0.929 . S
H1941 C1951 0.929 . S
H1942 C1946 0.929 . S
H1943 C1952 0.929 1_655 S
C1944 H1938 0.930 . S
C1944 C1945 1.367 . S
C1944 C1952 1.378 . S
C1945 C1944 1.367 . S
C1945 C1953 1.433 . S
C1946 H1942 0.929 . S
C1946 C1948 1.378 . S
C1946 C1950 1.350 . S
C1947 C1950 1.463 1_455 S
C1947 C1952 1.350 . S
C1947 N1955 1.427 . S
C1948 H1939 0.930 . S
C1948 C1946 1.378 . S
C1948 C1949 1.367 . S
C1949 C1948 1.367 . S
C1949 C1951 1.433 . S
C1950 C1946 1.350 . S
C1950 C1947 1.463 1_655 S
C1950 N1954 1.427 . S
C1951 H1941 0.929 . S
C1951 C1949 1.433 . S
C1951 N1954 1.384 . S
C1952 H1943 0.929 1_455 S
C1952 C1944 1.378 . S
C1952 C1947 1.350 . S
C1953 H1940 0.929 . S
C1953 C1945 1.433 . S
C1953 N1955 1.384 . S
N1954 C1950 1.427 . S
N1954 C1951 1.384 . S
N1955 C1947 1.427 . S
N1955 C1953 1.384 . S
H1956 C1962 0.930 . S
H1957 C1966 0.930 . S
H1958 C1971 0.929 . S
H1959 C1969 0.929 . S
H1960 C1964 0.929 . S
H1961 C1970 0.929 . S
C1962 H1956 0.930 . S
C1962 C1963 1.367 . S
C1962 C1970 1.378 . S
C1963 C1962 1.367 . S
C1963 C1971 1.433 . S
C1964 H1960 0.929 . S
C1964 C1966 1.378 . S
C1964 C1968 1.350 . S
C1965 C1968 1.463 . S
C1965 C1970 1.350 . S
C1965 N1973 1.427 . S
C1966 H1957 0.930 . S
C1966 C1964 1.378 . S
C1966 C1967 1.367 . S
C1967 C1966 1.367 . S
C1967 C1969 1.433 . S
C1968 C1964 1.350 . S
C1968 C1965 1.463 . S
C1968 N1972 1.427 . S
C1969 H1959 0.929 . S
C1969 C1967 1.433 . S
C1969 N1972 1.384 . S
C1970 H1961 0.929 . S
C1970 C1962 1.378 . S
C1970 C1965 1.350 . S
C1971 H1958 0.929 . S
C1971 C1963 1.433 . S
C1971 N1973 1.384 . S
N1972 C1968 1.427 . S
N1972 C1969 1.384 . S
N1973 C1965 1.427 . S
N1973 C1971 1.384 . S
H1974 C1980 0.930 . S
H1975 C1984 0.930 . S
H1976 C1989 0.929 . S
H1977 C1987 0.929 . S
H1978 C1982 0.929 . S
H1979 C1988 0.929 . S
C1980 H1974 0.930 . S
C1980 C1981 1.367 . S
C1980 C1988 1.378 . S
C1981 C1980 1.367 . S
C1981 C1989 1.433 . S
C1982 H1978 0.929 . S
C1982 C1984 1.378 1_565 S
C1982 C1986 1.350 . S
C1983 C1986 1.463 . S
C1983 C1988 1.350 . S
C1983 N1991 1.427 . S
C1984 H1975 0.930 . S
C1984 C1982 1.378 1_545 S
C1984 C1985 1.367 . S
C1985 C1984 1.367 . S
C1985 C1987 1.433 . S
C1986 C1982 1.350 . S
C1986 C1983 1.463 . S
C1986 N1990 1.427 . S
C1987 H1977 0.929 . S
C1987 C1985 1.433 . S
C1987 N1990 1.384 1_545 S
C1988 H1979 0.929 . S
C1988 C1980 1.378 . S
C1988 C1983 1.350 . S
C1989 H1976 0.929 . S
C1989 C1981 1.433 . S
C1989 N1991 1.384 . S
N1990 C1986 1.427 . S
N1990 C1987 1.384 1_565 S
N1991 C1983 1.427 . S
N1991 C1989 1.384 . S
H1992 C1998 0.930 . S
H1993 C2002 0.930 . S
H1994 C2007 0.929 . S
H1995 C2005 0.929 . S
H1996 C2000 0.929 . S
H1997 C2006 0.929 . S
C1998 H1992 0.930 . S
C1998 C1999 1.367 . S
C1998 C2006 1.378 . S
C1999 C1998 1.367 . S
C1999 C2007 1.433 . S
C2000 H1996 0.929 . S
C2000 C2002 1.378 . S
C2000 C2004 1.350 1_554 S
C2001 C2004 1.463 . S
C2001 C2006 1.350 . S
C2001 N2009 1.427 . S
C2002 H1993 0.930 . S
C2002 C2000 1.378 . S
C2002 C2003 1.367 . S
C2003 C2002 1.367 . S
C2003 C2005 1.433 . S
C2004 C2000 1.350 1_556 S
C2004 C2001 1.463 . S
C2004 N2008 1.427 . S
C2005 H1995 0.929 . S
C2005 C2003 1.433 . S
C2005 N2008 1.384 1_554 S
C2006 H1997 0.929 . S
C2006 C1998 1.378 . S
C2006 C2001 1.350 . S
C2007 H1994 0.929 . S
C2007 C1999 1.433 . S
C2007 N2009 1.384 . S
N2008 C2004 1.427 . S
N2008 C2005 1.384 1_556 S
N2009 C2001 1.427 . S
N2009 C2007 1.384 . S
H2010 C2016 0.930 . S
H2011 C2020 0.930 . S
H2012 C2025 0.929 . S
H2013 C2023 0.929 . S
H2014 C2018 0.929 . S
H2015 C2024 0.929 . S
C2016 H2010 0.930 . S
C2016 C2017 1.367 . S
C2016 C2024 1.378 . S
C2017 C2016 1.367 . S
C2017 C2025 1.433 . S
C2018 H2014 0.929 . S
C2018 C2020 1.378 . S
C2018 C2022 1.350 1_565 S
C2019 C2022 1.463 . S
C2019 C2024 1.350 . S
C2019 N2027 1.427 . S
C2020 H2011 0.930 . S
C2020 C2018 1.378 . S
C2020 C2021 1.367 . S
C2021 C2020 1.367 . S
C2021 C2023 1.433 . S
C2022 C2018 1.350 1_545 S
C2022 C2019 1.463 . S
C2022 N2026 1.427 . S
C2023 H2013 0.929 . S
C2023 C2021 1.433 . S
C2023 N2026 1.384 1_565 S
C2024 H2015 0.929 . S
C2024 C2016 1.378 . S
C2024 C2019 1.350 . S
C2025 H2012 0.929 . S
C2025 C2017 1.433 . S
C2025 N2027 1.384 . S
N2026 C2022 1.427 . S
N2026 C2023 1.384 1_545 S
N2027 C2019 1.427 . S
N2027 C2025 1.384 . S
H2028 C2034 0.930 . S
H2029 C2038 0.930 . S
H2030 C2043 0.929 . S
H2031 C2041 0.929 . S
H2032 C2036 0.929 . S
H2033 C2042 0.929 . S
C2034 H2028 0.930 . S
C2034 C2035 1.367 . S
C2034 C2042 1.378 . S
C2035 C2034 1.367 . S
C2035 C2043 1.433 . S
C2036 H2032 0.929 . S
C2036 C2038 1.378 . S
C2036 C2040 1.350 . S
C2037 C2040 1.463 . S
C2037 C2042 1.350 . S
C2037 N2045 1.427 . S
C2038 H2029 0.930 . S
C2038 C2036 1.378 . S
C2038 C2039 1.367 . S
C2039 C2038 1.367 . S
C2039 C2041 1.433 . S
C2040 C2036 1.350 . S
C2040 C2037 1.463 . S
C2040 N2044 1.427 . S
C2041 H2031 0.929 . S
C2041 C2039 1.433 . S
C2041 N2044 1.384 . S
C2042 H2033 0.929 . S
C2042 C2034 1.378 . S
C2042 C2037 1.350 . S
C2043 H2030 0.929 . S
C2043 C2035 1.433 . S
C2043 N2045 1.384 . S
N2044 C2040 1.427 . S
N2044 C2041 1.384 . S
N2045 C2037 1.427 . S
N2045 C2043 1.384 . S
H2046 C2052 0.930 . S
H2047 C2056 0.930 . S
H2048 C2061 0.929 . S
H2049 C2059 0.929 . S
H2050 C2054 0.929 . S
H2051 C2060 0.929 . S
C2052 H2046 0.930 . S
C2052 C2053 1.367 . S
C2052 C2060 1.378 1_554 S
C2053 C2052 1.367 . S
C2053 C2061 1.433 . S
C2054 H2050 0.929 . S
C2054 C2056 1.378 . S
C2054 C2058 1.350 . S
C2055 C2058 1.463 . S
C2055 C2060 1.350 . S
C2055 N2063 1.427 . S
C2056 H2047 0.930 . S
C2056 C2054 1.378 . S
C2056 C2057 1.367 . S
C2057 C2056 1.367 . S
C2057 C2059 1.433 . S
C2058 C2054 1.350 . S
C2058 C2055 1.463 . S
C2058 N2062 1.427 . S
C2059 H2049 0.929 . S
C2059 C2057 1.433 . S
C2059 N2062 1.384 . S
C2060 H2051 0.929 . S
C2060 C2052 1.378 1_556 S
C2060 C2055 1.350 . S
C2061 H2048 0.929 . S
C2061 C2053 1.433 . S
C2061 N2063 1.384 1_554 S
N2062 C2058 1.427 . S
N2062 C2059 1.384 . S
N2063 C2055 1.427 . S
N2063 C2061 1.384 1_556 S
H2064 C2070 0.930 . S
H2065 C2074 0.930 . S
H2066 C2079 0.929 . S
H2067 C2077 0.929 . S
H2068 C2072 0.929 . S
H2069 C2078 0.929 . S
C2070 H2064 0.930 . S
C2070 C2071 1.367 . S
C2070 C2078 1.378 . S
C2071 C2070 1.367 . S
C2071 C2079 1.433 . S
C2072 H2068 0.929 . S
C2072 C2074 1.378 . S
C2072 C2076 1.350 . S
C2073 C2076 1.463 . S
C2073 C2078 1.350 . S
C2073 N2081 1.427 . S
C2074 H2065 0.930 . S
C2074 C2072 1.378 . S
C2074 C2075 1.367 . S
C2075 C2074 1.367 . S
C2075 C2077 1.433 . S
C2076 C2072 1.350 . S
C2076 C2073 1.463 . S
C2076 N2080 1.427 . S
C2077 H2067 0.929 . S
C2077 C2075 1.433 . S
C2077 N2080 1.384 . S
C2078 H2069 0.929 . S
C2078 C2070 1.378 . S
C2078 C2073 1.350 . S
C2079 H2066 0.929 . S
C2079 C2071 1.433 . S
C2079 N2081 1.384 . S
N2080 C2076 1.427 . S
N2080 C2077 1.384 . S
N2081 C2073 1.427 . S
N2081 C2079 1.384 . S
H2082 C2088 0.930 . S
H2083 C2092 0.930 . S
H2084 C2097 0.929 . S
H2085 C2095 0.929 . S
H2086 C2090 0.929 . S
H2087 C2096 0.929 . S
C2088 H2082 0.930 . S
C2088 C2089 1.367 . S
C2088 C2096 1.378 . S
C2089 C2088 1.367 . S
C2089 C2097 1.433 . S
C2090 H2086 0.929 . S
C2090 C2092 1.378 . S
C2090 C2094 1.350 . S
C2091 C2094 1.463 . S
C2091 C2096 1.350 . S
C2091 N2099 1.427 . S
C2092 H2083 0.930 . S
C2092 C2090 1.378 . S
C2092 C2093 1.367 . S
C2093 C2092 1.367 . S
C2093 C2095 1.433 . S
C2094 C2090 1.350 . S
C2094 C2091 1.463 . S
C2094 N2098 1.427 . S
C2095 H2085 0.929 . S
C2095 C2093 1.433 . S
C2095 N2098 1.384 . S
C2096 H2087 0.929 . S
C2096 C2088 1.378 . S
C2096 C2091 1.350 . S
C2097 H2084 0.929 . S
C2097 C2089 1.433 . S
C2097 N2099 1.384 . S
N2098 C2094 1.427 . S
N2098 C2095 1.384 . S
N2099 C2091 1.427 . S
N2099 C2097 1.384 . S
H2100 C2106 0.930 . S
H2101 C2110 0.930 . S
H2102 C2115 0.929 . S
H2103 C2113 0.929 . S
H2104 C2108 0.929 . S
H2105 C2114 0.929 . S
C2106 H2100 0.930 . S
C2106 C2107 1.367 . S
C2106 C2114 1.378 . S
C2107 C2106 1.367 . S
C2107 C2115 1.433 . S
C2108 H2104 0.929 . S
C2108 C2110 1.378 . S
C2108 C2112 1.350 . S
C2109 C2112 1.463 . S
C2109 C2114 1.350 . S
C2109 N2117 1.427 . S
C2110 H2101 0.930 . S
C2110 C2108 1.378 . S
C2110 C2111 1.367 . S
C2111 C2110 1.367 . S
C2111 C2113 1.433 . S
C2112 C2108 1.350 . S
C2112 C2109 1.463 . S
C2112 N2116 1.427 . S
C2113 H2103 0.929 . S
C2113 C2111 1.433 . S
C2113 N2116 1.384 . S
C2114 H2105 0.929 . S
C2114 C2106 1.378 . S
C2114 C2109 1.350 . S
C2115 H2102 0.929 . S
C2115 C2107 1.433 . S
C2115 N2117 1.384 . S
N2116 C2112 1.427 . S
N2116 C2113 1.384 . S
N2117 C2109 1.427 . S
N2117 C2115 1.384 . S
H2118 C2124 0.930 . S
H2119 C2128 0.930 . S
H2120 C2133 0.929 . S
H2121 C2131 0.929 . S
H2122 C2126 0.929 . S
H2123 C2132 0.929 . S
C2124 H2118 0.930 . S
C2124 C2125 1.367 . S
C2124 C2132 1.378 . S
C2125 C2124 1.367 . S
C2125 C2133 1.433 . S
C2126 H2122 0.929 . S
C2126 C2128 1.378 . S
C2126 C2130 1.350 . S
C2127 C2130 1.463 . S
C2127 C2132 1.350 . S
C2127 N2135 1.427 . S
C2128 H2119 0.930 . S
C2128 C2126 1.378 . S
C2128 C2129 1.367 . S
C2129 C2128 1.367 . S
C2129 C2131 1.433 . S
C2130 C2126 1.350 . S
C2130 C2127 1.463 . S
C2130 N2134 1.427 . S
C2131 H2121 0.929 . S
C2131 C2129 1.433 . S
C2131 N2134 1.384 . S
C2132 H2123 0.929 . S
C2132 C2124 1.378 . S
C2132 C2127 1.350 . S
C2133 H2120 0.929 . S
C2133 C2125 1.433 . S
C2133 N2135 1.384 . S
N2134 C2130 1.427 . S
N2134 C2131 1.384 . S
N2135 C2127 1.427 . S
N2135 C2133 1.384 . S
C1279 C29 1.410 . S
C1283 C506 1.408 . S
C1297 C82 1.198 . S
C1301 C559 1.195 . S
C1315 C622 1.704 . S
C1319 C135 1.707 . S
C1333 C463 1.668 . S
C1337 C188 1.669 . S
C1351 C569 1.497 . S
C1355 C251 1.497 . S
C1369 C304 1.271 . S
C1373 C612 1.274 . S
C1387 C357 1.585 . S
C1391 C453 1.584 . S
C1405 C516 1.738 . S
C1409 C410 1.738 . S
C1423 C241 1.503 . S
C1427 C674 1.505 . S
C1441 C400 1.240 . S
C1445 C817 1.238 . S
C1459 C887 1.692 . S
C1463 C294 1.695 . S
C1477 C198 1.521 . S
C1481 C728 1.522 . S
C1495 C780 1.579 . S
C1499 C347 1.579 . S
C1513 C39 1.615 . S
C1517 C1036 1.613 . S
C1531 C145 1.262 . S
C1535 C983 1.262 . S
C1549 C833 1.455 . S
C1553 C1152 1.450 . S
C1567 C1205 1.571 . S
C1571 C658 1.572 . S
C1585 C1258 1.225 . S
C1589 C877 1.230 . S
C1603 C1099 1.245 . S
C1607 C764 1.247 . S
C1621 C1195 1.467 . S
C1625 C930 1.467 . S
C1639 C993 1.721 . S
C1643 C1248 1.722 . S
C1657 C1089 1.239 . S
C1661 C718 1.240 . S
C1675 C1046 1.369 . S
C1679 C1142 1.369 . S
C1693 C92 1.546 . S
C1697 C940 1.546 . S
C1711 C250 1.151 . S
C1715 C22 1.146 . S
C1729 C75 0.894 . S
C1733 C303 0.898 . S
C1747 C128 1.325 . S
C1751 C356 1.330 . S
C1765 C409 1.330 . S
C1769 C181 1.322 . S
C1783 C462 1.413 . S
C1787 C515 1.408 . S
C1801 C499 1.131 . S
C1805 C568 1.138 . S
C1819 C605 0.893 . S
C1823 C552 0.892 . S
C1837 C446 1.265 . S
C1841 C621 1.272 . S
C1855 C197 1.204 . S
C1859 C675 1.203 . S
C1873 C393 0.909 . S
C1877 C976 0.910 . S
C1891 C234 1.237 . S
C1895 C727 1.238 . S
C1909 C1029 1.209 . S
C1913 C287 1.204 . S
C1927 C781 1.183 . S
C1931 C91 1.186 . S
C1945 C38 1.267 . S
C1949 C886 1.267 . S
C1963 C144 0.827 . S
C1967 C824 0.825 . S
C1981 C834 1.131 . S
C1985 C923 1.130 . S
C1999 C992 1.208 . S
C2003 C665 1.201 . S
C2017 C870 0.887 . S
C2021 C711 0.887 . S
C2035 C771 1.003 . S
C2039 C1045 1.005 . S
C2053 C1135 0.989 . S
C2057 C1098 0.988 . S
C2071 C1188 1.132 . S
C2075 C1151 1.138 . S
C2089 C1241 1.335 . S
C2093 C1204 1.340 . S
C2107 C1082 0.924 . S
C2111 C1257 0.927 . S
C2125 C939 1.216 . S
C2129 C340 1.213 . S
