# Generated by pormake.
# Topology reo-e, (6)-cn, num edge types: 1
# Building blocks:
#     Node 0, Type 0, BuildingBlock: OJICUG_clean_sbu_0, # of connection points: 6
#     Node 1, Type 0, BuildingBlock: OJICUG_clean_sbu_0, # of connection points: 6
#     Node 2, Type 0, BuildingBlock: OJICUG_clean_sbu_0, # of connection points: 6
#     Node 3, Type 0, BuildingBlock: OJICUG_clean_sbu_0, # of connection points: 6
#     Node 4, Type 0, BuildingBlock: OJICUG_clean_sbu_0, # of connection points: 6
#     Node 5, Type 0, BuildingBlock: OJICUG_clean_sbu_0, # of connection points: 6
#     Node 6, Type 0, BuildingBlock: OJICUG_clean_sbu_0, # of connection points: 6
#     Node 7, Type 0, BuildingBlock: OJICUG_clean_sbu_0, # of connection points: 6
#     Node 8, Type 0, BuildingBlock: OJICUG_clean_sbu_0, # of connection points: 6
#     Node 9, Type 0, BuildingBlock: OJICUG_clean_sbu_0, # of connection points: 6
#     Node 10, Type 0, BuildingBlock: OJICUG_clean_sbu_0, # of connection points: 6
#     Node 11, Type 0, BuildingBlock: OJICUG_clean_sbu_0, # of connection points: 6
#     Edge 12, Type (0, 0), BuildingBlock: AJUNOK_clean_linker_0, # of connection points: 2
#     Edge 13, Type (0, 0), BuildingBlock: AJUNOK_clean_linker_0, # of connection points: 2
#     Edge 14, Type (0, 0), BuildingBlock: AJUNOK_clean_linker_0, # of connection points: 2
#     Edge 15, Type (0, 0), BuildingBlock: AJUNOK_clean_linker_0, # of connection points: 2
#     Edge 16, Type (0, 0), BuildingBlock: AJUNOK_clean_linker_0, # of connection points: 2
#     Edge 17, Type (0, 0), BuildingBlock: AJUNOK_clean_linker_0, # of connection points: 2
#     Edge 18, Type (0, 0), BuildingBlock: AJUNOK_clean_linker_0, # of connection points: 2
#     Edge 19, Type (0, 0), BuildingBlock: AJUNOK_clean_linker_0, # of connection points: 2
#     Edge 20, Type (0, 0), BuildingBlock: AJUNOK_clean_linker_0, # of connection points: 2
#     Edge 21, Type (0, 0), BuildingBlock: AJUNOK_clean_linker_0, # of connection points: 2
#     Edge 22, Type (0, 0), BuildingBlock: AJUNOK_clean_linker_0, # of connection points: 2
#     Edge 23, Type (0, 0), BuildingBlock: AJUNOK_clean_linker_0, # of connection points: 2
#     Edge 24, Type (0, 0), BuildingBlock: AJUNOK_clean_linker_0, # of connection points: 2
#     Edge 25, Type (0, 0), BuildingBlock: AJUNOK_clean_linker_0, # of connection points: 2
#     Edge 26, Type (0, 0), BuildingBlock: AJUNOK_clean_linker_0, # of connection points: 2
#     Edge 27, Type (0, 0), BuildingBlock: AJUNOK_clean_linker_0, # of connection points: 2
#     Edge 28, Type (0, 0), BuildingBlock: AJUNOK_clean_linker_0, # of connection points: 2
#     Edge 29, Type (0, 0), BuildingBlock: AJUNOK_clean_linker_0, # of connection points: 2
#     Edge 30, Type (0, 0), BuildingBlock: AJUNOK_clean_linker_0, # of connection points: 2
#     Edge 31, Type (0, 0), BuildingBlock: AJUNOK_clean_linker_0, # of connection points: 2
#     Edge 32, Type (0, 0), BuildingBlock: AJUNOK_clean_linker_0, # of connection points: 2
#     Edge 33, Type (0, 0), BuildingBlock: AJUNOK_clean_linker_0, # of connection points: 2
#     Edge 34, Type (0, 0), BuildingBlock: AJUNOK_clean_linker_0, # of connection points: 2
#     Edge 35, Type (0, 0), BuildingBlock: AJUNOK_clean_linker_0, # of connection points: 2
#     Edge 36, Type (0, 0), BuildingBlock: AJUNOK_clean_linker_0, # of connection points: 2
#     Edge 37, Type (0, 0), BuildingBlock: AJUNOK_clean_linker_0, # of connection points: 2
#     Edge 38, Type (0, 0), BuildingBlock: AJUNOK_clean_linker_0, # of connection points: 2
#     Edge 39, Type (0, 0), BuildingBlock: AJUNOK_clean_linker_0, # of connection points: 2
#     Edge 40, Type (0, 0), BuildingBlock: AJUNOK_clean_linker_0, # of connection points: 2
#     Edge 41, Type (0, 0), BuildingBlock: AJUNOK_clean_linker_0, # of connection points: 2
#     Edge 42, Type (0, 0), BuildingBlock: AJUNOK_clean_linker_0, # of connection points: 2
#     Edge 43, Type (0, 0), BuildingBlock: AJUNOK_clean_linker_0, # of connection points: 2
#     Edge 44, Type (0, 0), BuildingBlock: AJUNOK_clean_linker_0, # of connection points: 2
#     Edge 45, Type (0, 0), BuildingBlock: AJUNOK_clean_linker_0, # of connection points: 2
#     Edge 46, Type (0, 0), BuildingBlock: AJUNOK_clean_linker_0, # of connection points: 2
#     Edge 47, Type (0, 0), BuildingBlock: AJUNOK_clean_linker_0, # of connection points: 2
# Relax obj value: 0.131
# Max RMSD: 0.142
# Mean RMSD: 0.142
data_MOF--net-reo-e--node1-OJICUG_clean_sbu_0--edge1-AJUNOK_clean_linker_0
_symmetry_space_group_name_H-M    P1
_symmetry_Int_Tables_number       1
_symmetry_cell_setting            triclinic
loop_
_symmetry_equiv_pos_as_xyz
'x, y, z'
_cell_length_a     30.362942
_cell_length_b     30.382078
_cell_length_c     30.375833
_cell_angle_alpha  90.062119
_cell_angle_beta   90.053719
_cell_angle_gamma 89.908724
loop_
_atom_site_label
_atom_site_type_symbol
_atom_site_fract_x
_atom_site_fract_y
_atom_site_fract_z
_atom_type_partial_charge
Sc0 Sc 0.17634 0.17627 0.43436 0.0
Sc1 Sc 0.24777 0.24571 0.49315 0.0
Sc2 Sc 0.17732 0.17437 0.55088 0.0
O3 O 0.20047 0.19872 0.49282 0.0
C4 C 0.08944 0.18168 0.49326 0.0
C5 C 0.18711 0.27832 0.41333 0.0
C6 C 0.18683 0.27684 0.57292 0.0
C7 C 0.27901 0.18535 0.41299 0.0
C8 C 0.18177 0.08791 0.49099 0.0
C9 C 0.27953 0.18417 0.57258 0.0
O10 O 0.10901 0.18064 0.45628 0.0
O11 O 0.21554 0.28457 0.44343 0.0
O12 O 0.17093 0.23884 0.58043 0.0
O13 O 0.24096 0.16962 0.40526 0.0
O14 O 0.1812 0.10706 0.52826 0.0
O15 O 0.28607 0.21279 0.54283 0.0
O16 O 0.18059 0.10885 0.45484 0.0
O17 O 0.28639 0.21244 0.44404 0.0
O18 O 0.24208 0.16676 0.57926 0.0
O19 O 0.16938 0.24108 0.40666 0.0
O20 O 0.10985 0.17965 0.52975 0.0
O21 O 0.21425 0.28415 0.54222 0.0
Sc22 Sc 0.80998 0.17414 0.55144 0.0
Sc23 Sc 0.74048 0.24626 0.49339 0.0
Sc24 Sc 0.81008 0.17452 0.43495 0.0
O25 O 0.78689 0.19828 0.49325 0.0
C26 C 0.89749 0.18007 0.49363 0.0
C27 C 0.80151 0.27694 0.57303 0.0
C28 C 0.80118 0.27674 0.41304 0.0
C29 C 0.70801 0.18534 0.57291 0.0
C30 C 0.80341 0.08697 0.49257 0.0
C31 C 0.70742 0.18579 0.41406 0.0
O32 O 0.87728 0.17922 0.53023 0.0
O33 O 0.77468 0.28463 0.54187 0.0
O34 O 0.8181 0.23901 0.40652 0.0
O35 O 0.74509 0.16691 0.57915 0.0
O36 O 0.80429 0.10726 0.45604 0.0
O37 O 0.70104 0.21336 0.44489 0.0
O38 O 0.80588 0.10669 0.52944 0.0
O39 O 0.70202 0.21446 0.54348 0.0
O40 O 0.74504 0.16897 0.40633 0.0
O41 O 0.81653 0.23863 0.581 0.0
O42 O 0.8777 0.17786 0.45674 0.0
O43 O 0.77313 0.28391 0.44326 0.0
Sc44 Sc 0.80788 0.80804 0.55185 0.0
Sc45 Sc 0.73796 0.73683 0.49328 0.0
Sc46 Sc 0.80922 0.80707 0.43531 0.0
O47 O 0.78508 0.784 0.49348 0.0
C48 C 0.80212 0.89498 0.49278 0.0
C49 C 0.70552 0.79812 0.57249 0.0
C50 C 0.70659 0.79726 0.4134 0.0
C51 C 0.79845 0.70542 0.5733 0.0
C52 C 0.89613 0.80253 0.49476 0.0
C53 C 0.7995 0.70479 0.41396 0.0
O54 O 0.80367 0.8754 0.52976 0.0
O55 O 0.69918 0.76953 0.54263 0.0
O56 O 0.74458 0.81317 0.40578 0.0
O57 O 0.81442 0.74337 0.58104 0.0
O58 O 0.87671 0.80349 0.45763 0.0
O59 O 0.77085 0.69843 0.44375 0.0
O60 O 0.87537 0.80345 0.53105 0.0
O61 O 0.77114 0.69827 0.54241 0.0
O62 O 0.81704 0.74217 0.40739 0.0
O63 O 0.74297 0.81533 0.5797 0.0
O64 O 0.80371 0.87455 0.45627 0.0
O65 O 0.6994 0.77001 0.44422 0.0
Sc66 Sc 0.17504 0.80712 0.43405 0.0
Sc67 Sc 0.24795 0.73873 0.49259 0.0
Sc68 Sc 0.17717 0.80972 0.55049 0.0
O69 O 0.20003 0.78523 0.49237 0.0
C70 C 0.18103 0.89584 0.49063 0.0
C71 C 0.27778 0.79885 0.41197 0.0
C72 C 0.27958 0.8004 0.5717 0.0
C73 C 0.18691 0.70489 0.41364 0.0
C74 C 0.08859 0.80278 0.49373 0.0
C75 C 0.18764 0.70749 0.57277 0.0
O76 O 0.17877 0.87479 0.45451 0.0
O77 O 0.28561 0.77191 0.44296 0.0
O78 O 0.24183 0.81699 0.5789 0.0
O79 O 0.16872 0.74194 0.40667 0.0
O80 O 0.10968 0.80528 0.52976 0.0
O81 O 0.2155 0.70047 0.54232 0.0
O82 O 0.10769 0.80237 0.45646 0.0
O83 O 0.2156 0.69923 0.44359 0.0
O84 O 0.17066 0.7452 0.57959 0.0
O85 O 0.23948 0.81423 0.40439 0.0
O86 O 0.18142 0.8768 0.52791 0.0
O87 O 0.28651 0.77229 0.54152 0.0
Sc88 Sc 0.43468 0.17453 0.17578 0.0
Sc89 Sc 0.49234 0.24613 0.24654 0.0
Sc90 Sc 0.55124 0.17438 0.17772 0.0
O91 O 0.4927 0.19832 0.19998 0.0
C92 C 0.49309 0.0872 0.18376 0.0
C93 C 0.41252 0.18543 0.27802 0.0
C94 C 0.57191 0.18576 0.28003 0.0
C95 C 0.41315 0.27708 0.1844 0.0
C96 C 0.49426 0.17898 0.08923 0.0
C97 C 0.57285 0.27677 0.1863 0.0
O98 O 0.45625 0.10701 0.18096 0.0
O99 O 0.44269 0.21357 0.2848 0.0
O100 O 0.57925 0.16842 0.24266 0.0
O101 O 0.40592 0.23917 0.16813 0.0
O102 O 0.53043 0.1777 0.11023 0.0
O103 O 0.5421 0.28419 0.21372 0.0
O104 O 0.45701 0.17843 0.1084 0.0
O105 O 0.44332 0.28424 0.21251 0.0
O106 O 0.57989 0.23881 0.17011 0.0
O107 O 0.40547 0.16831 0.2404 0.0
O108 O 0.52972 0.10732 0.18312 0.0
O109 O 0.54138 0.21378 0.28616 0.0
Sc110 Sc 0.80915 0.54937 0.17662 0.0
Sc111 Sc 0.73926 0.49034 0.24709 0.0
Sc112 Sc 0.81019 0.4329 0.17571 0.0
O113 O 0.78622 0.49085 0.19977 0.0
C114 C 0.80323 0.49164 0.08879 0.0
C115 C 0.70664 0.57029 0.18691 0.0
C116 C 0.70792 0.41072 0.18589 0.0
C117 C 0.79956 0.57029 0.27917 0.0
C118 C 0.89711 0.49168 0.18227 0.0
C119 C 0.80068 0.41068 0.27801 0.0
O120 O 0.80444 0.52818 0.10917 0.0
O121 O 0.70025 0.53968 0.21467 0.0
O122 O 0.74559 0.404 0.16886 0.0
O123 O 0.81606 0.57769 0.24145 0.0
O124 O 0.87754 0.45475 0.18026 0.0
O125 O 0.77265 0.44096 0.28512 0.0
O126 O 0.87667 0.52821 0.18109 0.0
O127 O 0.77199 0.53959 0.28589 0.0
O128 O 0.81746 0.40398 0.24024 0.0
O129 O 0.74419 0.57763 0.16998 0.0
O130 O 0.8053 0.45473 0.10839 0.0
O131 O 0.70098 0.441 0.21395 0.0
Sc132 Sc 0.43455 0.80869 0.17557 0.0
Sc133 Sc 0.49188 0.73786 0.24716 0.0
Sc134 Sc 0.55116 0.80758 0.17669 0.0
O135 O 0.49251 0.78476 0.1998 0.0
C136 C 0.49363 0.80202 0.08869 0.0
C137 C 0.41242 0.70659 0.18544 0.0
C138 C 0.57185 0.70511 0.18695 0.0
C139 C 0.41213 0.79922 0.2779 0.0
C140 C 0.49336 0.89546 0.18258 0.0
C141 C 0.57199 0.79796 0.27925 0.0
O142 O 0.45667 0.80419 0.10825 0.0
O143 O 0.44236 0.69973 0.21392 0.0
O144 O 0.57928 0.74262 0.17003 0.0
O145 O 0.40501 0.81553 0.23999 0.0
O146 O 0.52994 0.87507 0.18124 0.0
O147 O 0.54127 0.77044 0.28604 0.0
O148 O 0.4564 0.87592 0.18061 0.0
O149 O 0.44258 0.77145 0.28522 0.0
O150 O 0.57961 0.81434 0.24151 0.0
O151 O 0.40594 0.74416 0.16819 0.0
O152 O 0.53013 0.80299 0.10916 0.0
O153 O 0.54119 0.69876 0.21469 0.0
Sc154 Sc 0.17649 0.43317 0.17512 0.0
Sc155 Sc 0.24858 0.49105 0.24515 0.0
Sc156 Sc 0.17636 0.5496 0.17652 0.0
O157 O 0.20048 0.49123 0.19886 0.0
C158 C 0.18043 0.49212 0.08831 0.0
C159 C 0.27928 0.41165 0.18345 0.0
C160 C 0.27878 0.57142 0.18461 0.0
C161 C 0.18803 0.41135 0.27727 0.0
C162 C 0.08909 0.49165 0.18306 0.0
C163 C 0.18818 0.57032 0.27883 0.0
O164 O 0.18049 0.45495 0.10759 0.0
O165 O 0.28673 0.44232 0.2109 0.0
O166 O 0.24082 0.57818 0.16825 0.0
O167 O 0.17007 0.40475 0.24 0.0
O168 O 0.10925 0.52823 0.18259 0.0
O169 O 0.21611 0.53974 0.285 0.0
O170 O 0.10892 0.45485 0.18002 0.0
O171 O 0.2166 0.44124 0.28351 0.0
O172 O 0.17098 0.57778 0.24143 0.0
O173 O 0.24114 0.40408 0.1678 0.0
O174 O 0.17902 0.52838 0.10913 0.0
O175 O 0.28623 0.54096 0.21229 0.0
Sc176 Sc 0.43381 0.80677 0.80978 0.0
Sc177 Sc 0.49209 0.73741 0.73776 0.0
Sc178 Sc 0.55039 0.80795 0.80868 0.0
O179 O 0.49211 0.78409 0.78545 0.0
C180 C 0.49108 0.89488 0.80455 0.0
C181 C 0.4124 0.79853 0.70704 0.0
C182 C 0.57122 0.79881 0.70617 0.0
C183 C 0.41304 0.70458 0.79868 0.0
C184 C 0.49306 0.80068 0.89663 0.0
C185 C 0.57199 0.70543 0.79806 0.0
O186 O 0.45481 0.87413 0.80597 0.0
O187 O 0.44295 0.77091 0.6997 0.0
O188 O 0.57851 0.81556 0.74386 0.0
O189 O 0.40577 0.74191 0.81619 0.0
O190 O 0.52949 0.80273 0.87617 0.0
O191 O 0.54131 0.69875 0.77041 0.0
O192 O 0.45599 0.80183 0.87709 0.0
O193 O 0.44296 0.69841 0.77016 0.0
O194 O 0.57938 0.74313 0.81478 0.0
O195 O 0.40471 0.81422 0.74514 0.0
O196 O 0.52824 0.87546 0.80502 0.0
O197 O 0.54122 0.77053 0.69945 0.0
Sc198 Sc 0.17576 0.43368 0.80916 0.0
Sc199 Sc 0.24637 0.49117 0.73753 0.0
Sc200 Sc 0.17676 0.55012 0.80841 0.0
O201 O 0.19957 0.49161 0.78505 0.0
C202 C 0.08878 0.49268 0.80357 0.0
C203 C 0.18514 0.41169 0.70658 0.0
C204 C 0.18642 0.57179 0.70618 0.0
C205 C 0.27804 0.41168 0.79886 0.0
C206 C 0.18124 0.4926 0.89621 0.0
C207 C 0.27926 0.57036 0.7983 0.0
O208 O 0.1082 0.45552 0.80441 0.0
O209 O 0.21255 0.44234 0.69924 0.0
O210 O 0.1697 0.5787 0.74389 0.0
O211 O 0.24061 0.40525 0.81648 0.0
O212 O 0.1811 0.52894 0.87562 0.0
O213 O 0.28575 0.5399 0.77035 0.0
O214 O 0.17977 0.45556 0.87672 0.0
O215 O 0.28449 0.4414 0.77019 0.0
O216 O 0.24165 0.57811 0.815 0.0
O217 O 0.16917 0.4043 0.74459 0.0
O218 O 0.10946 0.52898 0.80447 0.0
O219 O 0.21399 0.54107 0.69912 0.0
Sc220 Sc 0.43488 0.17582 0.81028 0.0
Sc221 Sc 0.49317 0.24561 0.73894 0.0
Sc222 Sc 0.55137 0.17361 0.80847 0.0
O223 O 0.49315 0.19832 0.78594 0.0
C224 C 0.49463 0.18001 0.89688 0.0
C225 C 0.41363 0.27796 0.80006 0.0
C226 C 0.57344 0.27623 0.79932 0.0
C227 C 0.41322 0.18529 0.70756 0.0
C228 C 0.49151 0.08724 0.80394 0.0
C229 C 0.57254 0.18427 0.70643 0.0
O230 O 0.4574 0.17964 0.87761 0.0
O231 O 0.44344 0.28421 0.77142 0.0
O232 O 0.58117 0.23804 0.81479 0.0
O233 O 0.40542 0.1696 0.74562 0.0
O234 O 0.52878 0.10634 0.80449 0.0
O235 O 0.5429 0.21321 0.70034 0.0
O236 O 0.45539 0.10831 0.80547 0.0
O237 O 0.4442 0.21238 0.70028 0.0
O238 O 0.57889 0.16615 0.74357 0.0
O239 O 0.40716 0.24069 0.8178 0.0
O240 O 0.53083 0.17838 0.87598 0.0
O241 O 0.54224 0.28387 0.77248 0.0
Sc242 Sc 0.80819 0.54929 0.80941 0.0
Sc243 Sc 0.73892 0.49014 0.73829 0.0
Sc244 Sc 0.81012 0.43275 0.80972 0.0
O245 O 0.7858 0.49069 0.78581 0.0
C246 C 0.89662 0.49229 0.80492 0.0
C247 C 0.79898 0.57049 0.70691 0.0
C248 C 0.80117 0.41103 0.70728 0.0
C249 C 0.70581 0.56987 0.79864 0.0
C250 C 0.80239 0.49135 0.8969 0.0
C251 C 0.70791 0.41024 0.79917 0.0
O252 O 0.87567 0.5285 0.80577 0.0
O253 O 0.77152 0.53975 0.69981 0.0
O254 O 0.81776 0.404 0.7451 0.0
O255 O 0.74329 0.5772 0.8157 0.0
O256 O 0.80489 0.45446 0.87719 0.0
O257 O 0.70083 0.44053 0.77121 0.0
O258 O 0.80323 0.5279 0.87664 0.0
O259 O 0.69946 0.5393 0.77074 0.0
O260 O 0.74566 0.40328 0.81605 0.0
O261 O 0.81528 0.57797 0.74478 0.0
O262 O 0.87747 0.45509 0.80579 0.0
O263 O 0.77282 0.44102 0.70019 0.0
C264 C 0.19944 0.35563 0.38817 0.0
C265 C 0.17859 0.31477 0.38174 0.0
C266 C 0.19974 0.3877 0.35522 0.0
C267 C 0.17922 0.38048 0.31423 0.0
H268 H 0.21762 0.36231 0.41812 0.0
H269 H 0.21811 0.41762 0.36142 0.0
S270 S 0.11263 0.28256 0.28371 0.0
N271 N 0.13131 0.27141 0.33351 0.0
N272 N 0.13197 0.33179 0.27149 0.0
C273 C 0.15482 0.34143 0.30876 0.0
C274 C 0.15448 0.30862 0.3425 0.0
C275 C 0.5973 0.19962 0.35709 0.0
C276 C 0.6031 0.17724 0.31691 0.0
C277 C 0.63005 0.19963 0.38944 0.0
C278 C 0.67026 0.17728 0.38319 0.0
H279 H 0.56808 0.21926 0.36299 0.0
H280 H 0.62443 0.21929 0.41867 0.0
S281 S 0.69819 0.10563 0.28798 0.0
N282 N 0.64938 0.12621 0.27566 0.0
N283 N 0.71109 0.12631 0.33657 0.0
C284 C 0.67489 0.15131 0.34499 0.0
C285 C 0.64133 0.15126 0.31188 0.0
C286 C 0.78828 0.62698 0.38964 0.0
C287 C 0.80854 0.66806 0.38274 0.0
C288 C 0.78826 0.59448 0.35704 0.0
C289 C 0.80851 0.60146 0.31595 0.0
H290 H 0.77028 0.62043 0.41968 0.0
H291 H 0.77021 0.56446 0.36354 0.0
S292 S 0.87414 0.69966 0.2845 0.0
N293 N 0.8553 0.71131 0.33412 0.0
N294 N 0.85533 0.65007 0.27279 0.0
C295 C 0.83254 0.6407 0.31011 0.0
C296 C 0.83254 0.67398 0.34347 0.0
C297 C 0.30395 0.81976 0.33663 0.0
C298 C 0.3139 0.80831 0.38044 0.0
C299 C 0.33665 0.81987 0.30402 0.0
C300 C 0.38052 0.80852 0.314 0.0
H301 H 0.27022 0.82598 0.32676 0.0
H302 H 0.32681 0.82616 0.27032 0.0
S303 S 0.42545 0.78558 0.42538 0.0
N304 N 0.37208 0.79233 0.43329 0.0
N305 N 0.43338 0.79246 0.37208 0.0
C306 C 0.39158 0.80094 0.35836 0.0
C307 C 0.35834 0.80086 0.39154 0.0
C308 C 0.197 0.62913 0.59612 0.0
C309 C 0.17854 0.67095 0.60406 0.0
C310 C 0.19662 0.59628 0.62831 0.0
C311 C 0.17777 0.60367 0.67 0.0
H312 H 0.21382 0.62213 0.56546 0.0
H313 H 0.2132 0.56554 0.62096 0.0
S314 S 0.11769 0.70458 0.70476 0.0
N315 N 0.13535 0.71582 0.65466 0.0
N316 N 0.1346 0.65402 0.71524 0.0
C317 C 0.15567 0.64393 0.67706 0.0
C318 C 0.15607 0.67754 0.64412 0.0
C319 C 0.30593 0.16292 0.64771 0.0
C320 C 0.31577 0.1752 0.60413 0.0
C321 C 0.33842 0.16327 0.68056 0.0
C322 C 0.38199 0.17589 0.67108 0.0
H323 H 0.27235 0.15568 0.65725 0.0
H324 H 0.32857 0.15624 0.71409 0.0
S325 S 0.42672 0.2014 0.56022 0.0
N326 N 0.37359 0.19345 0.55189 0.0
N327 N 0.43465 0.19398 0.61348 0.0
C328 C 0.39306 0.18429 0.62685 0.0
C329 C 0.35997 0.18399 0.59345 0.0
C330 C 0.82287 0.33601 0.68086 0.0
C331 C 0.81083 0.37968 0.67105 0.0
C332 C 0.82295 0.30336 0.64818 0.0
C333 C 0.81101 0.31318 0.60447 0.0
H334 H 0.8295 0.32623 0.71451 0.0
H335 H 0.82966 0.26974 0.65797 0.0
S336 S 0.7867 0.42441 0.55992 0.0
N337 N 0.7938 0.43238 0.61322 0.0
N338 N 0.79405 0.37117 0.55182 0.0
C339 C 0.80301 0.35751 0.5935 0.0
C340 C 0.80288 0.3907 0.62676 0.0
C341 C 0.67835 0.82121 0.64674 0.0
C342 C 0.66895 0.80753 0.60344 0.0
C343 C 0.64564 0.82147 0.67927 0.0
C344 C 0.60231 0.80807 0.66972 0.0
H345 H 0.71177 0.82909 0.6564 0.0
H346 H 0.65519 0.8295 0.71269 0.0
S347 S 0.55855 0.77907 0.55923 0.0
N348 N 0.61165 0.78733 0.55115 0.0
N349 N 0.5502 0.78787 0.61222 0.0
C350 C 0.5916 0.79836 0.62565 0.0
C351 C 0.6249 0.79807 0.59255 0.0
C352 C 0.33765 0.16399 0.30494 0.0
C353 C 0.38129 0.17635 0.31445 0.0
C354 C 0.3052 0.16394 0.33777 0.0
C355 C 0.31518 0.17625 0.38138 0.0
H356 H 0.32773 0.15694 0.2714 0.0
H357 H 0.27158 0.15685 0.3282 0.0
S358 S 0.42645 0.2019 0.42521 0.0
N359 N 0.43418 0.19435 0.37195 0.0
N360 N 0.37331 0.19422 0.43359 0.0
C361 C 0.35949 0.18478 0.39206 0.0
C362 C 0.39249 0.18485 0.35863 0.0
C363 C 0.7921 0.38733 0.35643 0.0
C364 C 0.80998 0.37924 0.31442 0.0
C365 C 0.79224 0.35495 0.3891 0.0
C366 C 0.81026 0.31293 0.38135 0.0
H367 H 0.77585 0.41826 0.36369 0.0
H368 H 0.77609 0.36244 0.42001 0.0
S369 S 0.86866 0.27752 0.27978 0.0
N370 N 0.85181 0.32804 0.26895 0.0
N371 N 0.8521 0.26711 0.33043 0.0
C372 C 0.83188 0.30567 0.3409 0.0
C373 C 0.83173 0.3388 0.30747 0.0
C374 C 0.64696 0.81948 0.30601 0.0
C375 C 0.60341 0.80687 0.31565 0.0
C376 C 0.6797 0.8193 0.33861 0.0
C377 C 0.67014 0.80654 0.3821 0.0
H378 H 0.6566 0.8269 0.27251 0.0
H379 H 0.71322 0.82659 0.3289 0.0
S380 S 0.55927 0.78027 0.42643 0.0
N381 N 0.55107 0.78825 0.3733 0.0
N382 N 0.61247 0.78799 0.43452 0.0
C383 C 0.62592 0.79783 0.39299 0.0
C384 C 0.59261 0.79797 0.35981 0.0
C385 C 0.20091 0.62765 0.38884 0.0
C386 C 0.17864 0.66786 0.3826 0.0
C387 C 0.2013 0.59516 0.35623 0.0
C388 C 0.17942 0.60129 0.31581 0.0
H389 H 0.22016 0.62184 0.41831 0.0
H390 H 0.22084 0.56589 0.36215 0.0
S391 S 0.10866 0.6968 0.28638 0.0
N392 N 0.12856 0.7092 0.33542 0.0
N393 N 0.12921 0.64801 0.27409 0.0
C394 C 0.1536 0.63957 0.31068 0.0
C395 C 0.15322 0.67283 0.34405 0.0
C396 C 0.30562 0.82177 0.64688 0.0
C397 C 0.31569 0.80953 0.6033 0.0
C398 C 0.33793 0.82125 0.67987 0.0
C399 C 0.38151 0.80851 0.67051 0.0
H400 H 0.27199 0.82901 0.65633 0.0
H401 H 0.32791 0.82814 0.7134 0.0
S402 S 0.4269 0.7834 0.55974 0.0
N403 N 0.3738 0.79145 0.55119 0.0
N404 N 0.43453 0.79061 0.61308 0.0
C405 C 0.39285 0.80032 0.62629 0.0
C406 C 0.35996 0.80079 0.59273 0.0
C407 C 0.16492 0.30352 0.64784 0.0
C408 C 0.17718 0.31316 0.60421 0.0
C409 C 0.16438 0.33634 0.68034 0.0
C410 C 0.17608 0.38005 0.67042 0.0
H411 H 0.15835 0.26991 0.6577 0.0
H412 H 0.15749 0.32671 0.71395 0.0
S413 S 0.20106 0.4242 0.55928 0.0
N414 N 0.19428 0.37087 0.55144 0.0
N415 N 0.19326 0.43248 0.61242 0.0
C416 C 0.18441 0.39084 0.62614 0.0
C417 C 0.18497 0.35744 0.59309 0.0
C418 C 0.5971 0.19593 0.62881 0.0
C419 C 0.60398 0.17561 0.66989 0.0
C420 C 0.62992 0.1963 0.59658 0.0
C421 C 0.67117 0.17635 0.60387 0.0
H422 H 0.56687 0.21367 0.62207 0.0
H423 H 0.62343 0.21429 0.56647 0.0
S424 S 0.70304 0.11139 0.70254 0.0
N425 N 0.65301 0.12952 0.71365 0.0
N426 N 0.71476 0.13023 0.65299 0.0
C427 C 0.6771 0.15242 0.64318 0.0
C428 C 0.64353 0.15204 0.67616 0.0
C429 C 0.82013 0.64568 0.68069 0.0
C430 C 0.8079 0.60208 0.67074 0.0
C431 C 0.82001 0.67849 0.64824 0.0
C432 C 0.80767 0.66896 0.60456 0.0
H433 H 0.82722 0.65527 0.71431 0.0
H434 H 0.827 0.71201 0.65816 0.0
S435 S 0.78234 0.55813 0.55952 0.0
N436 N 0.78999 0.54983 0.61268 0.0
N437 N 0.78982 0.61136 0.55174 0.0
C438 C 0.79927 0.62475 0.59341 0.0
C439 C 0.79937 0.59137 0.62645 0.0
C440 C 0.33824 0.30371 0.16232 0.0
C441 C 0.3819 0.31339 0.17461 0.0
C442 C 0.30566 0.33648 0.16204 0.0
C443 C 0.31551 0.38017 0.17401 0.0
H444 H 0.32842 0.2701 0.15565 0.0
H445 H 0.27202 0.3268 0.15517 0.0
S446 S 0.42671 0.42441 0.19901 0.0
N447 N 0.43464 0.37111 0.19193 0.0
N448 N 0.3735 0.43264 0.19134 0.0
C449 C 0.35983 0.39101 0.18227 0.0
C450 C 0.39297 0.35766 0.18259 0.0
C451 C 0.30637 0.64455 0.82151 0.0
C452 C 0.31582 0.60139 0.80741 0.0
C453 C 0.3389 0.6772 0.82161 0.0
C454 C 0.38212 0.66794 0.80762 0.0
H455 H 0.27301 0.65403 0.82991 0.0
H456 H 0.32929 0.7105 0.83008 0.0
S457 S 0.42612 0.55795 0.77718 0.0
N458 N 0.37317 0.54953 0.78608 0.0
N459 N 0.43428 0.61089 0.78626 0.0
C460 C 0.39293 0.62403 0.79739 0.0
C461 C 0.35981 0.59078 0.79729 0.0
C462 C 0.35622 0.38798 0.78846 0.0
C463 C 0.31487 0.38065 0.8081 0.0
C464 C 0.38905 0.35569 0.7888 0.0
C465 C 0.38214 0.31451 0.80882 0.0
H466 H 0.36278 0.41817 0.77068 0.0
H467 H 0.41932 0.36248 0.77124 0.0
S468 S 0.28301 0.28185 0.87259 0.0
N469 N 0.27126 0.33147 0.85387 0.0
N470 N 0.33307 0.27069 0.85458 0.0
C471 C 0.34254 0.30823 0.83221 0.0
C472 C 0.30893 0.34127 0.83183 0.0
C473 C 0.68154 0.33505 0.82018 0.0
C474 C 0.67171 0.37876 0.80828 0.0
C475 C 0.64884 0.30247 0.82026 0.0
C476 C 0.60506 0.31237 0.80847 0.0
H477 H 0.7152 0.32523 0.82684 0.0
H478 H 0.65862 0.26883 0.82696 0.0
S479 S 0.5605 0.42364 0.78406 0.0
N480 N 0.61381 0.43151 0.79118 0.0
N481 N 0.55242 0.37044 0.79142 0.0
C482 C 0.59412 0.3567 0.80039 0.0
C483 C 0.62739 0.38982 0.80026 0.0
C484 C 0.62837 0.59486 0.78606 0.0
C485 C 0.66908 0.60119 0.80731 0.0
C486 C 0.59608 0.62767 0.7859 0.0
C487 C 0.60294 0.66845 0.80694 0.0
H488 H 0.62199 0.56514 0.76739 0.0
H489 H 0.56634 0.62159 0.76715 0.0
S490 S 0.69989 0.69811 0.87548 0.0
N491 N 0.71162 0.64872 0.85604 0.0
N492 N 0.65082 0.71054 0.85561 0.0
C493 C 0.64172 0.67368 0.8319 0.0
C494 C 0.67477 0.64006 0.83213 0.0
C495 C 0.59669 0.62774 0.20003 0.0
C496 C 0.60297 0.66817 0.1783 0.0
C497 C 0.62925 0.59518 0.20002 0.0
C498 C 0.6697 0.60142 0.17829 0.0
H499 H 0.56724 0.62178 0.21919 0.0
H500 H 0.62326 0.56574 0.21918 0.0
S501 S 0.69902 0.6974 0.10849 0.0
N502 N 0.65005 0.70977 0.12858 0.0
N503 N 0.71138 0.64845 0.12858 0.0
C504 C 0.67484 0.63992 0.15293 0.0
C505 C 0.64149 0.67327 0.15294 0.0
C506 C 0.38934 0.62808 0.1936 0.0
C507 C 0.38108 0.67016 0.17601 0.0
C508 C 0.35704 0.59534 0.1933 0.0
C509 C 0.31492 0.60313 0.17547 0.0
H510 H 0.42034 0.62082 0.20971 0.0
H511 H 0.36465 0.56436 0.20924 0.0
S512 S 0.27909 0.70494 0.11781 0.0
N513 N 0.32964 0.71577 0.1346 0.0
N514 N 0.26885 0.65417 0.13407 0.0
C515 C 0.30751 0.64366 0.15411 0.0
C516 C 0.34057 0.67715 0.15439 0.0
C517 C 0.59688 0.35496 0.19521 0.0
C518 C 0.60452 0.31296 0.1771 0.0
C519 C 0.62955 0.38733 0.1951 0.0
C520 C 0.67144 0.37928 0.17688 0.0
H521 H 0.56609 0.36243 0.21161 0.0
H522 H 0.62239 0.41824 0.21143 0.0
S523 S 0.70565 0.27767 0.11779 0.0
N524 N 0.65513 0.26723 0.13477 0.0
N525 N 0.7166 0.32815 0.13463 0.0
C526 C 0.67824 0.33887 0.15506 0.0
C527 C 0.64481 0.30574 0.15516 0.0
C528 C 0.19214 0.96874 0.52781 0.0
C529 C 0.18238 0.94473 0.48934 0.0
C530 C 0.19231 0.01486 0.52792 0.0
C531 C 0.18277 0.03902 0.48955 0.0
H532 H 0.19965 0.95187 0.55831 0.0
H533 H 0.19995 0.03162 0.55847 0.0
S534 S 0.15424 -0.00787 0.38005 0.0
N535 N 0.1625 0.94885 0.41172 0.0
N536 N 0.16282 0.03526 0.41191 0.0
C537 C 0.17319 0.01545 0.4507 0.0
C538 C 0.173 0.96847 0.45059 0.0
C539 C 0.01653 0.17206 0.45588 0.0
C540 C 0.04059 0.18379 0.49375 0.0
C541 C 0.9704 0.17157 0.45599 0.0
C542 C 0.94633 0.18281 0.49397 0.0
H543 H 0.03339 0.16224 0.42602 0.0
H544 H 0.95358 0.16145 0.4262 0.0
S545 S -0.00656 0.22044 0.60052 0.0
N546 N 0.03675 0.20997 0.56943 0.0
N547 N 0.95016 0.20911 0.56966 0.0
C548 C 0.96994 0.19591 0.53173 0.0
C549 C 0.01697 0.19639 0.53161 0.0
C550 C 0.81182 0.01403 0.53014 0.0
C551 C 0.8006 0.03813 0.49218 0.0
C552 C 0.81146 0.96792 0.5302 0.0
C553 C 0.79988 0.94385 0.49229 0.0
H554 H 0.82186 0.03082 0.55998 0.0
H555 H 0.82128 0.95108 0.56007 0.0
S556 S 0.76333 0.99106 0.38549 0.0
N557 N 0.77447 0.03431 0.41643 0.0
N558 N 0.77384 0.94776 0.41654 0.0
C559 C 0.78728 0.9675 0.45443 0.0
C560 C 0.78763 0.01452 0.45437 0.0
C561 C 0.01524 0.7927 0.45675 0.0
C562 C 0.0396 0.80142 0.49526 0.0
C563 C 0.96905 0.79267 0.457 0.0
C564 C 0.94513 0.80133 0.49577 0.0
H565 H 0.03189 0.78594 0.42595 0.0
H566 H 0.95204 0.78586 0.42639 0.0
S567 S -0.00706 0.82681 0.60563 0.0
N568 N 0.036 0.81926 0.57343 0.0
N569 N 0.94955 0.81922 0.57385 0.0
C570 C 0.96905 0.80983 0.53465 0.0
C571 C 0.01609 0.80987 0.53441 0.0
C572 C 0.4567 0.18749 0.96992 0.0
C573 C 0.49585 0.18118 0.94586 0.0
C574 C 0.45659 0.18713 0.01606 0.0
C575 C 0.49561 0.18045 0.04027 0.0
H576 H 0.42566 0.19258 0.95308 0.0
H577 H 0.42547 0.192 0.0328 0.0
S578 S 0.60728 0.16229 -0.00672 0.0
N579 N 0.57497 0.16815 0.95002 0.0
N580 N 0.57475 0.16748 0.03642 0.0
C581 C 0.53515 0.1745 0.01665 0.0
C582 C 0.53527 0.17487 0.96964 0.0
C583 C 0.81202 0.45406 0.96978 0.0
C584 C 0.79994 0.49179 0.94574 0.0
C585 C 0.8123 0.45417 0.01588 0.0
C586 C 0.80052 0.492 0.03997 0.0
H587 H 0.8223 0.42433 0.95294 0.0
H588 H 0.82274 0.4245 0.03269 0.0
S589 S 0.76173 0.5981 -0.00704 0.0
N590 N 0.77275 0.56717 0.94965 0.0
N591 N 0.7733 0.56735 0.03622 0.0
C592 C 0.78704 0.5296 0.0164 0.0
C593 C 0.78674 0.5295 0.96938 0.0
C594 C 0.45591 0.81014 0.01572 0.0
C595 C 0.49407 0.79935 0.03981 0.0
C596 C 0.45573 0.8097 0.96961 0.0
C597 C 0.49371 0.79848 0.9455 0.0
H598 H 0.42598 0.81985 0.03253 0.0
H599 H 0.4257 0.81916 0.9528 0.0
S600 S 0.60112 0.76322 -0.00739 0.0
N601 N 0.57016 0.7741 0.03591 0.0
N602 N 0.56981 0.77331 0.94933 0.0
C603 C 0.53181 0.78636 0.96912 0.0
C604 C 0.53199 0.78679 0.01616 0.0
C605 C 0.19264 0.45541 0.96909 0.0
C606 C 0.18189 0.49359 0.94511 0.0
C607 C 0.19237 0.45529 0.01525 0.0
C608 C 0.1813 0.49332 0.0394 0.0
H609 H 0.20144 0.42528 0.95212 0.0
H610 H 0.20101 0.42505 0.03206 0.0
S611 S 0.14863 0.60154 -0.00758 0.0
N612 N 0.15867 0.57027 0.94916 0.0
N613 N 0.15816 0.57005 0.03558 0.0
C614 C 0.17039 0.53175 0.01581 0.0
C615 C 0.17068 0.53188 0.96883 0.0
C616 C 0.01624 0.45424 0.17342 0.0
C617 C 0.04023 0.49196 0.18562 0.0
C618 C 0.97011 0.4543 0.17311 0.0
C619 C 0.94595 0.49208 0.18496 0.0
H620 H 0.03314 0.42457 0.16307 0.0
H621 H 0.95335 0.42465 0.16258 0.0
S622 S -0.00722 0.59809 0.2241 0.0
N623 N 0.03617 0.56724 0.21303 0.0
N624 N 0.94957 0.56733 0.21241 0.0
C625 C 0.96946 0.52965 0.19858 0.0
C626 C 0.0165 0.52959 0.19892 0.0
C627 C 0.96967 0.4553 0.7934 0.0
C628 C 0.94553 0.49357 0.80368 0.0
C629 C 0.01583 0.45541 0.79298 0.0
C630 C 0.03985 0.4938 0.80281 0.0
H631 H 0.95284 0.42487 0.78557 0.0
H632 H 0.03275 0.42505 0.78488 0.0
S633 S -0.00746 0.6026 0.83332 0.0
N634 N 0.94936 0.57086 0.82478 0.0
N635 N 0.03581 0.57108 0.82398 0.0
C636 C 0.01613 0.53238 0.81307 0.0
C637 C 0.96913 0.53226 0.81351 0.0
C638 C 0.52924 0.01395 0.79681 0.0
C639 C 0.49014 0.03827 0.80263 0.0
C640 C 0.52915 0.96782 0.79704 0.0
C641 C 0.48994 0.94386 0.80309 0.0
H642 H 0.56044 0.03061 0.79223 0.0
H643 H 0.56024 0.9509 0.79259 0.0
S644 S 0.37827 0.99157 0.81971 0.0
N645 N 0.41085 0.03461 0.81446 0.0
N646 N 0.41067 0.94823 0.81489 0.0
C647 C 0.45045 0.96774 0.80853 0.0
C648 C 0.45053 0.01475 0.8083 0.0
C649 C 0.45595 0.96834 0.17328 0.0
C650 C 0.4937 0.94423 0.18538 0.0
C651 C 0.45582 0.01443 0.17368 0.0
C652 C 0.49343 0.03841 0.18623 0.0
H653 H 0.42639 0.95157 0.16247 0.0
H654 H 0.4262 0.03131 0.16312 0.0
S655 S 0.59937 0.9911 0.22546 0.0
N656 N 0.56876 0.94788 0.21342 0.0
N657 N 0.56853 0.03443 0.21424 0.0
C658 C 0.53101 0.01473 0.19978 0.0
C659 C 0.53115 0.96774 0.19933 0.0
loop_
_geom_bond_atom_site_label_1
_geom_bond_atom_site_label_2
_geom_bond_distance
_geom_bond_site_symmetry_2
_ccdc_geom_bond_type
Sc0 O3 2.025 . S
Sc0 O10 2.105 . S
Sc0 O13 2.105 . S
Sc0 O16 2.105 . S
Sc0 O19 2.105 . S
Sc1 O3 2.025 . S
Sc1 O11 2.105 . S
Sc1 O15 2.105 . S
Sc1 O17 2.105 . S
Sc1 O21 2.105 . S
Sc2 O3 2.025 . S
Sc2 O12 2.105 . S
Sc2 O14 2.105 . S
Sc2 O18 2.105 . S
Sc2 O20 2.105 . S
O3 Sc0 2.025 . S
O3 Sc1 2.025 . S
O3 Sc2 2.025 . S
C4 O10 1.268 . S
C4 O20 1.268 . S
C5 O11 1.268 . S
C5 O19 1.268 . S
C6 O12 1.268 . S
C6 O21 1.268 . S
C7 O13 1.268 . S
C7 O17 1.268 . S
C8 O14 1.268 . S
C8 O16 1.268 . S
C9 O15 1.268 . S
C9 O18 1.268 . S
O10 Sc0 2.105 . S
O10 C4 1.268 . S
O11 Sc1 2.105 . S
O11 C5 1.268 . S
O12 Sc2 2.105 . S
O12 C6 1.268 . S
O13 Sc0 2.105 . S
O13 C7 1.268 . S
O14 Sc2 2.105 . S
O14 C8 1.268 . S
O15 Sc1 2.105 . S
O15 C9 1.268 . S
O16 Sc0 2.105 . S
O16 C8 1.268 . S
O17 Sc1 2.105 . S
O17 C7 1.268 . S
O18 Sc2 2.105 . S
O18 C9 1.268 . S
O19 Sc0 2.105 . S
O19 C5 1.268 . S
O20 Sc2 2.105 . S
O20 C4 1.268 . S
O21 Sc1 2.105 . S
O21 C6 1.268 . S
Sc22 O25 2.025 . S
Sc22 O32 2.105 . S
Sc22 O35 2.105 . S
Sc22 O38 2.105 . S
Sc22 O41 2.105 . S
Sc23 O25 2.025 . S
Sc23 O33 2.105 . S
Sc23 O37 2.105 . S
Sc23 O39 2.105 . S
Sc23 O43 2.105 . S
Sc24 O25 2.025 . S
Sc24 O34 2.105 . S
Sc24 O36 2.105 . S
Sc24 O40 2.105 . S
Sc24 O42 2.105 . S
O25 Sc22 2.025 . S
O25 Sc23 2.025 . S
O25 Sc24 2.025 . S
C26 O32 1.268 . S
C26 O42 1.268 . S
C27 O33 1.268 . S
C27 O41 1.268 . S
C28 O34 1.268 . S
C28 O43 1.268 . S
C29 O35 1.268 . S
C29 O39 1.268 . S
C30 O36 1.268 . S
C30 O38 1.268 . S
C31 O37 1.268 . S
C31 O40 1.268 . S
O32 Sc22 2.105 . S
O32 C26 1.268 . S
O33 Sc23 2.105 . S
O33 C27 1.268 . S
O34 Sc24 2.105 . S
O34 C28 1.268 . S
O35 Sc22 2.105 . S
O35 C29 1.268 . S
O36 Sc24 2.105 . S
O36 C30 1.268 . S
O37 Sc23 2.105 . S
O37 C31 1.268 . S
O38 Sc22 2.105 . S
O38 C30 1.268 . S
O39 Sc23 2.105 . S
O39 C29 1.268 . S
O40 Sc24 2.105 . S
O40 C31 1.268 . S
O41 Sc22 2.105 . S
O41 C27 1.268 . S
O42 Sc24 2.105 . S
O42 C26 1.268 . S
O43 Sc23 2.105 . S
O43 C28 1.268 . S
Sc44 O47 2.025 . S
Sc44 O54 2.105 . S
Sc44 O57 2.105 . S
Sc44 O60 2.105 . S
Sc44 O63 2.105 . S
Sc45 O47 2.025 . S
Sc45 O55 2.105 . S
Sc45 O59 2.105 . S
Sc45 O61 2.105 . S
Sc45 O65 2.105 . S
Sc46 O47 2.025 . S
Sc46 O56 2.105 . S
Sc46 O58 2.105 . S
Sc46 O62 2.105 . S
Sc46 O64 2.105 . S
O47 Sc44 2.025 . S
O47 Sc45 2.025 . S
O47 Sc46 2.025 . S
C48 O54 1.268 . S
C48 O64 1.268 . S
C49 O55 1.268 . S
C49 O63 1.268 . S
C50 O56 1.268 . S
C50 O65 1.268 . S
C51 O57 1.268 . S
C51 O61 1.268 . S
C52 O58 1.268 . S
C52 O60 1.268 . S
C53 O59 1.268 . S
C53 O62 1.268 . S
O54 Sc44 2.105 . S
O54 C48 1.268 . S
O55 Sc45 2.105 . S
O55 C49 1.268 . S
O56 Sc46 2.105 . S
O56 C50 1.268 . S
O57 Sc44 2.105 . S
O57 C51 1.268 . S
O58 Sc46 2.105 . S
O58 C52 1.268 . S
O59 Sc45 2.105 . S
O59 C53 1.268 . S
O60 Sc44 2.105 . S
O60 C52 1.268 . S
O61 Sc45 2.105 . S
O61 C51 1.268 . S
O62 Sc46 2.105 . S
O62 C53 1.268 . S
O63 Sc44 2.105 . S
O63 C49 1.268 . S
O64 Sc46 2.105 . S
O64 C48 1.268 . S
O65 Sc45 2.105 . S
O65 C50 1.268 . S
Sc66 O69 2.025 . S
Sc66 O76 2.105 . S
Sc66 O79 2.105 . S
Sc66 O82 2.105 . S
Sc66 O85 2.105 . S
Sc67 O69 2.025 . S
Sc67 O77 2.105 . S
Sc67 O81 2.105 . S
Sc67 O83 2.105 . S
Sc67 O87 2.105 . S
Sc68 O69 2.025 . S
Sc68 O78 2.105 . S
Sc68 O80 2.105 . S
Sc68 O84 2.105 . S
Sc68 O86 2.105 . S
O69 Sc66 2.025 . S
O69 Sc67 2.025 . S
O69 Sc68 2.025 . S
C70 O76 1.268 . S
C70 O86 1.268 . S
C71 O77 1.268 . S
C71 O85 1.268 . S
C72 O78 1.268 . S
C72 O87 1.268 . S
C73 O79 1.268 . S
C73 O83 1.268 . S
C74 O80 1.268 . S
C74 O82 1.268 . S
C75 O81 1.268 . S
C75 O84 1.268 . S
O76 Sc66 2.105 . S
O76 C70 1.268 . S
O77 Sc67 2.105 . S
O77 C71 1.268 . S
O78 Sc68 2.105 . S
O78 C72 1.268 . S
O79 Sc66 2.105 . S
O79 C73 1.268 . S
O80 Sc68 2.105 . S
O80 C74 1.268 . S
O81 Sc67 2.105 . S
O81 C75 1.268 . S
O82 Sc66 2.105 . S
O82 C74 1.268 . S
O83 Sc67 2.105 . S
O83 C73 1.268 . S
O84 Sc68 2.105 . S
O84 C75 1.268 . S
O85 Sc66 2.105 . S
O85 C71 1.268 . S
O86 Sc68 2.105 . S
O86 C70 1.268 . S
O87 Sc67 2.105 . S
O87 C72 1.268 . S
Sc88 O91 2.025 . S
Sc88 O98 2.105 . S
Sc88 O101 2.105 . S
Sc88 O104 2.105 . S
Sc88 O107 2.105 . S
Sc89 O91 2.025 . S
Sc89 O99 2.105 . S
Sc89 O103 2.105 . S
Sc89 O105 2.105 . S
Sc89 O109 2.105 . S
Sc90 O91 2.025 . S
Sc90 O100 2.105 . S
Sc90 O102 2.105 . S
Sc90 O106 2.105 . S
Sc90 O108 2.105 . S
O91 Sc88 2.025 . S
O91 Sc89 2.025 . S
O91 Sc90 2.025 . S
C92 O98 1.268 . S
C92 O108 1.268 . S
C93 O99 1.268 . S
C93 O107 1.268 . S
C94 O100 1.268 . S
C94 O109 1.268 . S
C95 O101 1.268 . S
C95 O105 1.268 . S
C96 O102 1.268 . S
C96 O104 1.268 . S
C97 O103 1.268 . S
C97 O106 1.268 . S
O98 Sc88 2.105 . S
O98 C92 1.268 . S
O99 Sc89 2.105 . S
O99 C93 1.268 . S
O100 Sc90 2.105 . S
O100 C94 1.268 . S
O101 Sc88 2.105 . S
O101 C95 1.268 . S
O102 Sc90 2.105 . S
O102 C96 1.268 . S
O103 Sc89 2.105 . S
O103 C97 1.268 . S
O104 Sc88 2.105 . S
O104 C96 1.268 . S
O105 Sc89 2.105 . S
O105 C95 1.268 . S
O106 Sc90 2.105 . S
O106 C97 1.268 . S
O107 Sc88 2.105 . S
O107 C93 1.268 . S
O108 Sc90 2.105 . S
O108 C92 1.268 . S
O109 Sc89 2.105 . S
O109 C94 1.268 . S
Sc110 O113 2.025 . S
Sc110 O120 2.105 . S
Sc110 O123 2.105 . S
Sc110 O126 2.105 . S
Sc110 O129 2.105 . S
Sc111 O113 2.025 . S
Sc111 O121 2.105 . S
Sc111 O125 2.105 . S
Sc111 O127 2.105 . S
Sc111 O131 2.105 . S
Sc112 O113 2.025 . S
Sc112 O122 2.105 . S
Sc112 O124 2.105 . S
Sc112 O128 2.105 . S
Sc112 O130 2.105 . S
O113 Sc110 2.025 . S
O113 Sc111 2.025 . S
O113 Sc112 2.025 . S
C114 O120 1.268 . S
C114 O130 1.268 . S
C115 O121 1.268 . S
C115 O129 1.268 . S
C116 O122 1.268 . S
C116 O131 1.268 . S
C117 O123 1.268 . S
C117 O127 1.268 . S
C118 O124 1.268 . S
C118 O126 1.268 . S
C119 O125 1.268 . S
C119 O128 1.268 . S
O120 Sc110 2.105 . S
O120 C114 1.268 . S
O121 Sc111 2.105 . S
O121 C115 1.268 . S
O122 Sc112 2.105 . S
O122 C116 1.268 . S
O123 Sc110 2.105 . S
O123 C117 1.268 . S
O124 Sc112 2.105 . S
O124 C118 1.268 . S
O125 Sc111 2.105 . S
O125 C119 1.268 . S
O126 Sc110 2.105 . S
O126 C118 1.268 . S
O127 Sc111 2.105 . S
O127 C117 1.268 . S
O128 Sc112 2.105 . S
O128 C119 1.268 . S
O129 Sc110 2.105 . S
O129 C115 1.268 . S
O130 Sc112 2.105 . S
O130 C114 1.268 . S
O131 Sc111 2.105 . S
O131 C116 1.268 . S
Sc132 O135 2.025 . S
Sc132 O142 2.105 . S
Sc132 O145 2.105 . S
Sc132 O148 2.105 . S
Sc132 O151 2.105 . S
Sc133 O135 2.025 . S
Sc133 O143 2.105 . S
Sc133 O147 2.105 . S
Sc133 O149 2.105 . S
Sc133 O153 2.105 . S
Sc134 O135 2.025 . S
Sc134 O144 2.105 . S
Sc134 O146 2.105 . S
Sc134 O150 2.105 . S
Sc134 O152 2.105 . S
O135 Sc132 2.025 . S
O135 Sc133 2.025 . S
O135 Sc134 2.025 . S
C136 O142 1.268 . S
C136 O152 1.268 . S
C137 O143 1.268 . S
C137 O151 1.268 . S
C138 O144 1.268 . S
C138 O153 1.268 . S
C139 O145 1.268 . S
C139 O149 1.268 . S
C140 O146 1.268 . S
C140 O148 1.268 . S
C141 O147 1.268 . S
C141 O150 1.268 . S
O142 Sc132 2.105 . S
O142 C136 1.268 . S
O143 Sc133 2.105 . S
O143 C137 1.268 . S
O144 Sc134 2.105 . S
O144 C138 1.268 . S
O145 Sc132 2.105 . S
O145 C139 1.268 . S
O146 Sc134 2.105 . S
O146 C140 1.268 . S
O147 Sc133 2.105 . S
O147 C141 1.268 . S
O148 Sc132 2.105 . S
O148 C140 1.268 . S
O149 Sc133 2.105 . S
O149 C139 1.268 . S
O150 Sc134 2.105 . S
O150 C141 1.268 . S
O151 Sc132 2.105 . S
O151 C137 1.268 . S
O152 Sc134 2.105 . S
O152 C136 1.268 . S
O153 Sc133 2.105 . S
O153 C138 1.268 . S
Sc154 O157 2.025 . S
Sc154 O164 2.105 . S
Sc154 O167 2.105 . S
Sc154 O170 2.105 . S
Sc154 O173 2.105 . S
Sc155 O157 2.025 . S
Sc155 O165 2.105 . S
Sc155 O169 2.105 . S
Sc155 O171 2.105 . S
Sc155 O175 2.105 . S
Sc156 O157 2.025 . S
Sc156 O166 2.105 . S
Sc156 O168 2.105 . S
Sc156 O172 2.105 . S
Sc156 O174 2.105 . S
O157 Sc154 2.025 . S
O157 Sc155 2.025 . S
O157 Sc156 2.025 . S
C158 O164 1.268 . S
C158 O174 1.268 . S
C159 O165 1.268 . S
C159 O173 1.268 . S
C160 O166 1.268 . S
C160 O175 1.268 . S
C161 O167 1.268 . S
C161 O171 1.268 . S
C162 O168 1.268 . S
C162 O170 1.268 . S
C163 O169 1.268 . S
C163 O172 1.268 . S
O164 Sc154 2.105 . S
O164 C158 1.268 . S
O165 Sc155 2.105 . S
O165 C159 1.268 . S
O166 Sc156 2.105 . S
O166 C160 1.268 . S
O167 Sc154 2.105 . S
O167 C161 1.268 . S
O168 Sc156 2.105 . S
O168 C162 1.268 . S
O169 Sc155 2.105 . S
O169 C163 1.268 . S
O170 Sc154 2.105 . S
O170 C162 1.268 . S
O171 Sc155 2.105 . S
O171 C161 1.268 . S
O172 Sc156 2.105 . S
O172 C163 1.268 . S
O173 Sc154 2.105 . S
O173 C159 1.268 . S
O174 Sc156 2.105 . S
O174 C158 1.268 . S
O175 Sc155 2.105 . S
O175 C160 1.268 . S
Sc176 O179 2.025 . S
Sc176 O186 2.105 . S
Sc176 O189 2.105 . S
Sc176 O192 2.105 . S
Sc176 O195 2.105 . S
Sc177 O179 2.025 . S
Sc177 O187 2.105 . S
Sc177 O191 2.105 . S
Sc177 O193 2.105 . S
Sc177 O197 2.105 . S
Sc178 O179 2.025 . S
Sc178 O188 2.105 . S
Sc178 O190 2.105 . S
Sc178 O194 2.105 . S
Sc178 O196 2.105 . S
O179 Sc176 2.025 . S
O179 Sc177 2.025 . S
O179 Sc178 2.025 . S
C180 O186 1.268 . S
C180 O196 1.268 . S
C181 O187 1.268 . S
C181 O195 1.268 . S
C182 O188 1.268 . S
C182 O197 1.268 . S
C183 O189 1.268 . S
C183 O193 1.268 . S
C184 O190 1.268 . S
C184 O192 1.268 . S
C185 O191 1.268 . S
C185 O194 1.268 . S
O186 Sc176 2.105 . S
O186 C180 1.268 . S
O187 Sc177 2.105 . S
O187 C181 1.268 . S
O188 Sc178 2.105 . S
O188 C182 1.268 . S
O189 Sc176 2.105 . S
O189 C183 1.268 . S
O190 Sc178 2.105 . S
O190 C184 1.268 . S
O191 Sc177 2.105 . S
O191 C185 1.268 . S
O192 Sc176 2.105 . S
O192 C184 1.268 . S
O193 Sc177 2.105 . S
O193 C183 1.268 . S
O194 Sc178 2.105 . S
O194 C185 1.268 . S
O195 Sc176 2.105 . S
O195 C181 1.268 . S
O196 Sc178 2.105 . S
O196 C180 1.268 . S
O197 Sc177 2.105 . S
O197 C182 1.268 . S
Sc198 O201 2.025 . S
Sc198 O208 2.105 . S
Sc198 O211 2.105 . S
Sc198 O214 2.105 . S
Sc198 O217 2.105 . S
Sc199 O201 2.025 . S
Sc199 O209 2.105 . S
Sc199 O213 2.105 . S
Sc199 O215 2.105 . S
Sc199 O219 2.105 . S
Sc200 O201 2.025 . S
Sc200 O210 2.105 . S
Sc200 O212 2.105 . S
Sc200 O216 2.105 . S
Sc200 O218 2.105 . S
O201 Sc198 2.025 . S
O201 Sc199 2.025 . S
O201 Sc200 2.025 . S
C202 O208 1.268 . S
C202 O218 1.268 . S
C203 O209 1.268 . S
C203 O217 1.268 . S
C204 O210 1.268 . S
C204 O219 1.268 . S
C205 O211 1.268 . S
C205 O215 1.268 . S
C206 O212 1.268 . S
C206 O214 1.268 . S
C207 O213 1.268 . S
C207 O216 1.268 . S
O208 Sc198 2.105 . S
O208 C202 1.268 . S
O209 Sc199 2.105 . S
O209 C203 1.268 . S
O210 Sc200 2.105 . S
O210 C204 1.268 . S
O211 Sc198 2.105 . S
O211 C205 1.268 . S
O212 Sc200 2.105 . S
O212 C206 1.268 . S
O213 Sc199 2.105 . S
O213 C207 1.268 . S
O214 Sc198 2.105 . S
O214 C206 1.268 . S
O215 Sc199 2.105 . S
O215 C205 1.268 . S
O216 Sc200 2.105 . S
O216 C207 1.268 . S
O217 Sc198 2.105 . S
O217 C203 1.268 . S
O218 Sc200 2.105 . S
O218 C202 1.268 . S
O219 Sc199 2.105 . S
O219 C204 1.268 . S
Sc220 O223 2.025 . S
Sc220 O230 2.105 . S
Sc220 O233 2.105 . S
Sc220 O236 2.105 . S
Sc220 O239 2.105 . S
Sc221 O223 2.025 . S
Sc221 O231 2.105 . S
Sc221 O235 2.105 . S
Sc221 O237 2.105 . S
Sc221 O241 2.105 . S
Sc222 O223 2.025 . S
Sc222 O232 2.105 . S
Sc222 O234 2.105 . S
Sc222 O238 2.105 . S
Sc222 O240 2.105 . S
O223 Sc220 2.025 . S
O223 Sc221 2.025 . S
O223 Sc222 2.025 . S
C224 O230 1.268 . S
C224 O240 1.268 . S
C225 O231 1.268 . S
C225 O239 1.268 . S
C226 O232 1.268 . S
C226 O241 1.268 . S
C227 O233 1.268 . S
C227 O237 1.268 . S
C228 O234 1.268 . S
C228 O236 1.268 . S
C229 O235 1.268 . S
C229 O238 1.268 . S
O230 Sc220 2.105 . S
O230 C224 1.268 . S
O231 Sc221 2.105 . S
O231 C225 1.268 . S
O232 Sc222 2.105 . S
O232 C226 1.268 . S
O233 Sc220 2.105 . S
O233 C227 1.268 . S
O234 Sc222 2.105 . S
O234 C228 1.268 . S
O235 Sc221 2.105 . S
O235 C229 1.268 . S
O236 Sc220 2.105 . S
O236 C228 1.268 . S
O237 Sc221 2.105 . S
O237 C227 1.268 . S
O238 Sc222 2.105 . S
O238 C229 1.268 . S
O239 Sc220 2.105 . S
O239 C225 1.268 . S
O240 Sc222 2.105 . S
O240 C224 1.268 . S
O241 Sc221 2.105 . S
O241 C226 1.268 . S
Sc242 O245 2.025 . S
Sc242 O252 2.105 . S
Sc242 O255 2.105 . S
Sc242 O258 2.105 . S
Sc242 O261 2.105 . S
Sc243 O245 2.025 . S
Sc243 O253 2.105 . S
Sc243 O257 2.105 . S
Sc243 O259 2.105 . S
Sc243 O263 2.105 . S
Sc244 O245 2.025 . S
Sc244 O254 2.105 . S
Sc244 O256 2.105 . S
Sc244 O260 2.105 . S
Sc244 O262 2.105 . S
O245 Sc242 2.025 . S
O245 Sc243 2.025 . S
O245 Sc244 2.025 . S
C246 O252 1.268 . S
C246 O262 1.268 . S
C247 O253 1.268 . S
C247 O261 1.268 . S
C248 O254 1.268 . S
C248 O263 1.268 . S
C249 O255 1.268 . S
C249 O259 1.268 . S
C250 O256 1.268 . S
C250 O258 1.268 . S
C251 O257 1.268 . S
C251 O260 1.268 . S
O252 Sc242 2.105 . S
O252 C246 1.268 . S
O253 Sc243 2.105 . S
O253 C247 1.268 . S
O254 Sc244 2.105 . S
O254 C248 1.268 . S
O255 Sc242 2.105 . S
O255 C249 1.268 . S
O256 Sc244 2.105 . S
O256 C250 1.268 . S
O257 Sc243 2.105 . S
O257 C251 1.268 . S
O258 Sc242 2.105 . S
O258 C250 1.268 . S
O259 Sc243 2.105 . S
O259 C249 1.268 . S
O260 Sc244 2.105 . S
O260 C251 1.268 . S
O261 Sc242 2.105 . S
O261 C247 1.268 . S
O262 Sc244 2.105 . S
O262 C246 1.268 . S
O263 Sc243 2.105 . S
O263 C248 1.268 . S
C264 C265 1.369 . S
C264 C266 1.419 . S
C264 H268 0.930 . S
C265 C264 1.369 . S
C265 C274 1.429 . S
C266 C264 1.419 . S
C266 C267 1.363 . S
C266 H269 0.929 . S
C267 C266 1.363 . S
C267 C273 1.428 . S
H268 C264 0.930 . S
H269 C266 0.929 . S
S270 N271 1.613 . S
S270 N272 1.610 . S
N271 S270 1.613 . S
N271 C274 1.350 . S
N272 S270 1.610 . S
N272 C273 1.351 . S
C273 C267 1.428 . S
C273 N272 1.351 . S
C273 C274 1.434 . S
C274 C265 1.429 . S
C274 N271 1.350 . S
C274 C273 1.434 . S
C275 C276 1.369 . S
C275 C277 1.419 . S
C275 H279 0.930 . S
C276 C275 1.369 . S
C276 C285 1.429 . S
C277 C275 1.419 . S
C277 C278 1.363 . S
C277 H280 0.929 . S
C278 C277 1.363 . S
C278 C284 1.428 . S
H279 C275 0.930 . S
H280 C277 0.929 . S
S281 N282 1.613 . S
S281 N283 1.610 . S
N282 S281 1.613 . S
N282 C285 1.350 . S
N283 S281 1.610 . S
N283 C284 1.351 . S
C284 C278 1.428 . S
C284 N283 1.351 . S
C284 C285 1.434 . S
C285 C276 1.429 . S
C285 N282 1.350 . S
C285 C284 1.434 . S
C286 C287 1.369 . S
C286 C288 1.419 . S
C286 H290 0.930 . S
C287 C286 1.369 . S
C287 C296 1.429 . S
C288 C286 1.419 . S
C288 C289 1.363 . S
C288 H291 0.929 . S
C289 C288 1.363 . S
C289 C295 1.428 . S
H290 C286 0.930 . S
H291 C288 0.929 . S
S292 N293 1.613 . S
S292 N294 1.610 . S
N293 S292 1.613 . S
N293 C296 1.350 . S
N294 S292 1.610 . S
N294 C295 1.351 . S
C295 C289 1.428 . S
C295 N294 1.351 . S
C295 C296 1.434 . S
C296 C287 1.429 . S
C296 N293 1.350 . S
C296 C295 1.434 . S
C297 C298 1.369 . S
C297 C299 1.419 . S
C297 H301 0.930 . S
C298 C297 1.369 . S
C298 C307 1.429 . S
C299 C297 1.419 . S
C299 C300 1.363 . S
C299 H302 0.929 . S
C300 C299 1.363 . S
C300 C306 1.428 . S
H301 C297 0.930 . S
H302 C299 0.929 . S
S303 N304 1.613 . S
S303 N305 1.610 . S
N304 S303 1.613 . S
N304 C307 1.350 . S
N305 S303 1.610 . S
N305 C306 1.351 . S
C306 C300 1.428 . S
C306 N305 1.351 . S
C306 C307 1.434 . S
C307 C298 1.429 . S
C307 N304 1.350 . S
C307 C306 1.434 . S
C308 C309 1.369 . S
C308 C310 1.419 . S
C308 H312 0.930 . S
C309 C308 1.369 . S
C309 C318 1.429 . S
C310 C308 1.419 . S
C310 C311 1.363 . S
C310 H313 0.929 . S
C311 C310 1.363 . S
C311 C317 1.428 . S
H312 C308 0.930 . S
H313 C310 0.929 . S
S314 N315 1.613 . S
S314 N316 1.610 . S
N315 S314 1.613 . S
N315 C318 1.350 . S
N316 S314 1.610 . S
N316 C317 1.351 . S
C317 C311 1.428 . S
C317 N316 1.351 . S
C317 C318 1.434 . S
C318 C309 1.429 . S
C318 N315 1.350 . S
C318 C317 1.434 . S
C319 C320 1.369 . S
C319 C321 1.419 . S
C319 H323 0.930 . S
C320 C319 1.369 . S
C320 C329 1.429 . S
C321 C319 1.419 . S
C321 C322 1.363 . S
C321 H324 0.929 . S
C322 C321 1.363 . S
C322 C328 1.428 . S
H323 C319 0.930 . S
H324 C321 0.929 . S
S325 N326 1.613 . S
S325 N327 1.610 . S
N326 S325 1.613 . S
N326 C329 1.350 . S
N327 S325 1.610 . S
N327 C328 1.351 . S
C328 C322 1.428 . S
C328 N327 1.351 . S
C328 C329 1.434 . S
C329 C320 1.429 . S
C329 N326 1.350 . S
C329 C328 1.434 . S
C330 C331 1.369 . S
C330 C332 1.419 . S
C330 H334 0.930 . S
C331 C330 1.369 . S
C331 C340 1.429 . S
C332 C330 1.419 . S
C332 C333 1.363 . S
C332 H335 0.929 . S
C333 C332 1.363 . S
C333 C339 1.428 . S
H334 C330 0.930 . S
H335 C332 0.929 . S
S336 N337 1.613 . S
S336 N338 1.610 . S
N337 S336 1.613 . S
N337 C340 1.350 . S
N338 S336 1.610 . S
N338 C339 1.351 . S
C339 C333 1.428 . S
C339 N338 1.351 . S
C339 C340 1.434 . S
C340 C331 1.429 . S
C340 N337 1.350 . S
C340 C339 1.434 . S
C341 C342 1.369 . S
C341 C343 1.419 . S
C341 H345 0.930 . S
C342 C341 1.369 . S
C342 C351 1.429 . S
C343 C341 1.419 . S
C343 C344 1.363 . S
C343 H346 0.929 . S
C344 C343 1.363 . S
C344 C350 1.428 . S
H345 C341 0.930 . S
H346 C343 0.929 . S
S347 N348 1.613 . S
S347 N349 1.610 . S
N348 S347 1.613 . S
N348 C351 1.350 . S
N349 S347 1.610 . S
N349 C350 1.351 . S
C350 C344 1.428 . S
C350 N349 1.351 . S
C350 C351 1.434 . S
C351 C342 1.429 . S
C351 N348 1.350 . S
C351 C350 1.434 . S
C352 C353 1.369 . S
C352 C354 1.419 . S
C352 H356 0.930 . S
C353 C352 1.369 . S
C353 C362 1.429 . S
C354 C352 1.419 . S
C354 C355 1.363 . S
C354 H357 0.929 . S
C355 C354 1.363 . S
C355 C361 1.428 . S
H356 C352 0.930 . S
H357 C354 0.929 . S
S358 N359 1.613 . S
S358 N360 1.610 . S
N359 S358 1.613 . S
N359 C362 1.350 . S
N360 S358 1.610 . S
N360 C361 1.351 . S
C361 C355 1.428 . S
C361 N360 1.351 . S
C361 C362 1.434 . S
C362 C353 1.429 . S
C362 N359 1.350 . S
C362 C361 1.434 . S
C363 C364 1.369 . S
C363 C365 1.419 . S
C363 H367 0.930 . S
C364 C363 1.369 . S
C364 C373 1.429 . S
C365 C363 1.419 . S
C365 C366 1.363 . S
C365 H368 0.929 . S
C366 C365 1.363 . S
C366 C372 1.428 . S
H367 C363 0.930 . S
H368 C365 0.929 . S
S369 N370 1.613 . S
S369 N371 1.610 . S
N370 S369 1.613 . S
N370 C373 1.350 . S
N371 S369 1.610 . S
N371 C372 1.351 . S
C372 C366 1.428 . S
C372 N371 1.351 . S
C372 C373 1.434 . S
C373 C364 1.429 . S
C373 N370 1.350 . S
C373 C372 1.434 . S
C374 C375 1.369 . S
C374 C376 1.419 . S
C374 H378 0.930 . S
C375 C374 1.369 . S
C375 C384 1.429 . S
C376 C374 1.419 . S
C376 C377 1.363 . S
C376 H379 0.929 . S
C377 C376 1.363 . S
C377 C383 1.428 . S
H378 C374 0.930 . S
H379 C376 0.929 . S
S380 N381 1.613 . S
S380 N382 1.610 . S
N381 S380 1.613 . S
N381 C384 1.350 . S
N382 S380 1.610 . S
N382 C383 1.351 . S
C383 C377 1.428 . S
C383 N382 1.351 . S
C383 C384 1.434 . S
C384 C375 1.429 . S
C384 N381 1.350 . S
C384 C383 1.434 . S
C385 C386 1.369 . S
C385 C387 1.419 . S
C385 H389 0.930 . S
C386 C385 1.369 . S
C386 C395 1.429 . S
C387 C385 1.419 . S
C387 C388 1.363 . S
C387 H390 0.929 . S
C388 C387 1.363 . S
C388 C394 1.428 . S
H389 C385 0.930 . S
H390 C387 0.929 . S
S391 N392 1.613 . S
S391 N393 1.610 . S
N392 S391 1.613 . S
N392 C395 1.350 . S
N393 S391 1.610 . S
N393 C394 1.351 . S
C394 C388 1.428 . S
C394 N393 1.351 . S
C394 C395 1.434 . S
C395 C386 1.429 . S
C395 N392 1.350 . S
C395 C394 1.434 . S
C396 C397 1.369 . S
C396 C398 1.419 . S
C396 H400 0.930 . S
C397 C396 1.369 . S
C397 C406 1.429 . S
C398 C396 1.419 . S
C398 C399 1.363 . S
C398 H401 0.929 . S
C399 C398 1.363 . S
C399 C405 1.428 . S
H400 C396 0.930 . S
H401 C398 0.929 . S
S402 N403 1.613 . S
S402 N404 1.610 . S
N403 S402 1.613 . S
N403 C406 1.350 . S
N404 S402 1.610 . S
N404 C405 1.351 . S
C405 C399 1.428 . S
C405 N404 1.351 . S
C405 C406 1.434 . S
C406 C397 1.429 . S
C406 N403 1.350 . S
C406 C405 1.434 . S
C407 C408 1.369 . S
C407 C409 1.419 . S
C407 H411 0.930 . S
C408 C407 1.369 . S
C408 C417 1.429 . S
C409 C407 1.419 . S
C409 C410 1.363 . S
C409 H412 0.929 . S
C410 C409 1.363 . S
C410 C416 1.428 . S
H411 C407 0.930 . S
H412 C409 0.929 . S
S413 N414 1.613 . S
S413 N415 1.610 . S
N414 S413 1.613 . S
N414 C417 1.350 . S
N415 S413 1.610 . S
N415 C416 1.351 . S
C416 C410 1.428 . S
C416 N415 1.351 . S
C416 C417 1.434 . S
C417 C408 1.429 . S
C417 N414 1.350 . S
C417 C416 1.434 . S
C418 C419 1.369 . S
C418 C420 1.419 . S
C418 H422 0.930 . S
C419 C418 1.369 . S
C419 C428 1.429 . S
C420 C418 1.419 . S
C420 C421 1.363 . S
C420 H423 0.929 . S
C421 C420 1.363 . S
C421 C427 1.428 . S
H422 C418 0.930 . S
H423 C420 0.929 . S
S424 N425 1.613 . S
S424 N426 1.610 . S
N425 S424 1.613 . S
N425 C428 1.350 . S
N426 S424 1.610 . S
N426 C427 1.351 . S
C427 C421 1.428 . S
C427 N426 1.351 . S
C427 C428 1.434 . S
C428 C419 1.429 . S
C428 N425 1.350 . S
C428 C427 1.434 . S
C429 C430 1.369 . S
C429 C431 1.419 . S
C429 H433 0.930 . S
C430 C429 1.369 . S
C430 C439 1.429 . S
C431 C429 1.419 . S
C431 C432 1.363 . S
C431 H434 0.929 . S
C432 C431 1.363 . S
C432 C438 1.428 . S
H433 C429 0.930 . S
H434 C431 0.929 . S
S435 N436 1.613 . S
S435 N437 1.610 . S
N436 S435 1.613 . S
N436 C439 1.350 . S
N437 S435 1.610 . S
N437 C438 1.351 . S
C438 C432 1.428 . S
C438 N437 1.351 . S
C438 C439 1.434 . S
C439 C430 1.429 . S
C439 N436 1.350 . S
C439 C438 1.434 . S
C440 C441 1.369 . S
C440 C442 1.419 . S
C440 H444 0.930 . S
C441 C440 1.369 . S
C441 C450 1.429 . S
C442 C440 1.419 . S
C442 C443 1.363 . S
C442 H445 0.929 . S
C443 C442 1.363 . S
C443 C449 1.428 . S
H444 C440 0.930 . S
H445 C442 0.929 . S
S446 N447 1.613 . S
S446 N448 1.610 . S
N447 S446 1.613 . S
N447 C450 1.350 . S
N448 S446 1.610 . S
N448 C449 1.351 . S
C449 C443 1.428 . S
C449 N448 1.351 . S
C449 C450 1.434 . S
C450 C441 1.429 . S
C450 N447 1.350 . S
C450 C449 1.434 . S
C451 C452 1.369 . S
C451 C453 1.419 . S
C451 H455 0.930 . S
C452 C451 1.369 . S
C452 C461 1.429 . S
C453 C451 1.419 . S
C453 C454 1.363 . S
C453 H456 0.929 . S
C454 C453 1.363 . S
C454 C460 1.428 . S
H455 C451 0.930 . S
H456 C453 0.929 . S
S457 N458 1.613 . S
S457 N459 1.610 . S
N458 S457 1.613 . S
N458 C461 1.350 . S
N459 S457 1.610 . S
N459 C460 1.351 . S
C460 C454 1.428 . S
C460 N459 1.351 . S
C460 C461 1.434 . S
C461 C452 1.429 . S
C461 N458 1.350 . S
C461 C460 1.434 . S
C462 C463 1.369 . S
C462 C464 1.419 . S
C462 H466 0.930 . S
C463 C462 1.369 . S
C463 C472 1.429 . S
C464 C462 1.419 . S
C464 C465 1.363 . S
C464 H467 0.929 . S
C465 C464 1.363 . S
C465 C471 1.428 . S
H466 C462 0.930 . S
H467 C464 0.929 . S
S468 N469 1.613 . S
S468 N470 1.610 . S
N469 S468 1.613 . S
N469 C472 1.350 . S
N470 S468 1.610 . S
N470 C471 1.351 . S
C471 C465 1.428 . S
C471 N470 1.351 . S
C471 C472 1.434 . S
C472 C463 1.429 . S
C472 N469 1.350 . S
C472 C471 1.434 . S
C473 C474 1.369 . S
C473 C475 1.419 . S
C473 H477 0.930 . S
C474 C473 1.369 . S
C474 C483 1.429 . S
C475 C473 1.419 . S
C475 C476 1.363 . S
C475 H478 0.929 . S
C476 C475 1.363 . S
C476 C482 1.428 . S
H477 C473 0.930 . S
H478 C475 0.929 . S
S479 N480 1.613 . S
S479 N481 1.610 . S
N480 S479 1.613 . S
N480 C483 1.350 . S
N481 S479 1.610 . S
N481 C482 1.351 . S
C482 C476 1.428 . S
C482 N481 1.351 . S
C482 C483 1.434 . S
C483 C474 1.429 . S
C483 N480 1.350 . S
C483 C482 1.434 . S
C484 C485 1.369 . S
C484 C486 1.419 . S
C484 H488 0.930 . S
C485 C484 1.369 . S
C485 C494 1.429 . S
C486 C484 1.419 . S
C486 C487 1.363 . S
C486 H489 0.929 . S
C487 C486 1.363 . S
C487 C493 1.428 . S
H488 C484 0.930 . S
H489 C486 0.929 . S
S490 N491 1.613 . S
S490 N492 1.610 . S
N491 S490 1.613 . S
N491 C494 1.350 . S
N492 S490 1.610 . S
N492 C493 1.351 . S
C493 C487 1.428 . S
C493 N492 1.351 . S
C493 C494 1.434 . S
C494 C485 1.429 . S
C494 N491 1.350 . S
C494 C493 1.434 . S
C495 C496 1.369 . S
C495 C497 1.419 . S
C495 H499 0.930 . S
C496 C495 1.369 . S
C496 C505 1.429 . S
C497 C495 1.419 . S
C497 C498 1.363 . S
C497 H500 0.929 . S
C498 C497 1.363 . S
C498 C504 1.428 . S
H499 C495 0.930 . S
H500 C497 0.929 . S
S501 N502 1.613 . S
S501 N503 1.610 . S
N502 S501 1.613 . S
N502 C505 1.350 . S
N503 S501 1.610 . S
N503 C504 1.351 . S
C504 C498 1.428 . S
C504 N503 1.351 . S
C504 C505 1.434 . S
C505 C496 1.429 . S
C505 N502 1.350 . S
C505 C504 1.434 . S
C506 C507 1.369 . S
C506 C508 1.419 . S
C506 H510 0.930 . S
C507 C506 1.369 . S
C507 C516 1.429 . S
C508 C506 1.419 . S
C508 C509 1.363 . S
C508 H511 0.929 . S
C509 C508 1.363 . S
C509 C515 1.428 . S
H510 C506 0.930 . S
H511 C508 0.929 . S
S512 N513 1.613 . S
S512 N514 1.610 . S
N513 S512 1.613 . S
N513 C516 1.350 . S
N514 S512 1.610 . S
N514 C515 1.351 . S
C515 C509 1.428 . S
C515 N514 1.351 . S
C515 C516 1.434 . S
C516 C507 1.429 . S
C516 N513 1.350 . S
C516 C515 1.434 . S
C517 C518 1.369 . S
C517 C519 1.419 . S
C517 H521 0.930 . S
C518 C517 1.369 . S
C518 C527 1.429 . S
C519 C517 1.419 . S
C519 C520 1.363 . S
C519 H522 0.929 . S
C520 C519 1.363 . S
C520 C526 1.428 . S
H521 C517 0.930 . S
H522 C519 0.929 . S
S523 N524 1.613 . S
S523 N525 1.610 . S
N524 S523 1.613 . S
N524 C527 1.350 . S
N525 S523 1.610 . S
N525 C526 1.351 . S
C526 C520 1.428 . S
C526 N525 1.351 . S
C526 C527 1.434 . S
C527 C518 1.429 . S
C527 N524 1.350 . S
C527 C526 1.434 . S
C528 C529 1.369 . S
C528 C530 1.419 1_565 S
C528 H532 0.930 . S
C529 C528 1.369 . S
C529 C538 1.429 . S
C530 C528 1.419 1_545 S
C530 C531 1.363 . S
C530 H533 0.929 . S
C531 C530 1.363 . S
C531 C537 1.428 . S
H532 C528 0.930 . S
H533 C530 0.929 . S
S534 N535 1.615 1_545 S
S534 N536 1.609 . S
N535 S534 1.615 1_565 S
N535 C538 1.350 . S
N536 S534 1.609 . S
N536 C537 1.351 . S
C537 C531 1.428 . S
C537 N536 1.351 . S
C537 C538 1.434 1_545 S
C538 C529 1.429 . S
C538 N535 1.350 . S
C538 C537 1.434 1_565 S
C539 C540 1.369 . S
C539 C541 1.419 1_455 S
C539 H543 0.930 . S
C540 C539 1.369 . S
C540 C549 1.429 . S
C541 C539 1.419 1_655 S
C541 C542 1.363 . S
C541 H544 0.929 . S
C542 C541 1.363 . S
C542 C548 1.428 . S
H543 C539 0.930 . S
H544 C541 0.929 . S
S545 N546 1.615 1_655 S
S545 N547 1.609 . S
N546 S545 1.615 1_455 S
N546 C549 1.350 . S
N547 S545 1.609 . S
N547 C548 1.351 . S
C548 C542 1.428 . S
C548 N547 1.351 . S
C548 C549 1.434 1_655 S
C549 C540 1.429 . S
C549 N546 1.350 . S
C549 C548 1.434 1_455 S
C550 C551 1.369 . S
C550 C552 1.419 1_545 S
C550 H554 0.930 . S
C551 C550 1.369 . S
C551 C560 1.429 . S
C552 C550 1.419 1_565 S
C552 C553 1.363 . S
C552 H555 0.929 . S
C553 C552 1.363 . S
C553 C559 1.428 . S
H554 C550 0.930 . S
H555 C552 0.929 . S
S556 N557 1.615 1_565 S
S556 N558 1.609 . S
N557 S556 1.615 1_545 S
N557 C560 1.350 . S
N558 S556 1.609 . S
N558 C559 1.351 . S
C559 C553 1.428 . S
C559 N558 1.351 . S
C559 C560 1.434 1_565 S
C560 C551 1.429 . S
C560 N557 1.350 . S
C560 C559 1.434 1_545 S
C561 C562 1.369 . S
C561 C563 1.419 1_455 S
C561 H565 0.930 . S
C562 C561 1.369 . S
C562 C571 1.429 . S
C563 C561 1.419 1_655 S
C563 C564 1.363 . S
C563 H566 0.929 . S
C564 C563 1.363 . S
C564 C570 1.428 . S
H565 C561 0.930 . S
H566 C563 0.929 . S
S567 N568 1.615 1_655 S
S567 N569 1.609 . S
N568 S567 1.615 1_455 S
N568 C571 1.350 . S
N569 S567 1.609 . S
N569 C570 1.351 . S
C570 C564 1.428 . S
C570 N569 1.351 . S
C570 C571 1.434 1_655 S
C571 C562 1.429 . S
C571 N568 1.350 . S
C571 C570 1.434 1_455 S
C572 C573 1.369 . S
C572 C574 1.419 1_556 S
C572 H576 0.930 . S
C573 C572 1.369 . S
C573 C582 1.429 . S
C574 C572 1.419 1_554 S
C574 C575 1.363 . S
C574 H577 0.929 . S
C575 C574 1.363 . S
C575 C581 1.428 . S
H576 C572 0.930 . S
H577 C574 0.929 . S
S578 N579 1.615 1_554 S
S578 N580 1.609 . S
N579 S578 1.615 1_556 S
N579 C582 1.350 . S
N580 S578 1.609 . S
N580 C581 1.351 . S
C581 C575 1.428 . S
C581 N580 1.351 . S
C581 C582 1.434 1_554 S
C582 C573 1.429 . S
C582 N579 1.350 . S
C582 C581 1.434 1_556 S
C583 C584 1.369 . S
C583 C585 1.419 1_556 S
C583 H587 0.930 . S
C584 C583 1.369 . S
C584 C593 1.429 . S
C585 C583 1.419 1_554 S
C585 C586 1.363 . S
C585 H588 0.929 . S
C586 C585 1.363 . S
C586 C592 1.428 . S
H587 C583 0.930 . S
H588 C585 0.929 . S
S589 N590 1.615 1_554 S
S589 N591 1.609 . S
N590 S589 1.615 1_556 S
N590 C593 1.350 . S
N591 S589 1.609 . S
N591 C592 1.351 . S
C592 C586 1.428 . S
C592 N591 1.351 . S
C592 C593 1.434 1_554 S
C593 C584 1.429 . S
C593 N590 1.350 . S
C593 C592 1.434 1_556 S
C594 C595 1.369 . S
C594 C596 1.419 1_554 S
C594 H598 0.930 . S
C595 C594 1.369 . S
C595 C604 1.429 . S
C596 C594 1.419 1_556 S
C596 C597 1.363 . S
C596 H599 0.929 . S
C597 C596 1.363 . S
C597 C603 1.428 . S
H598 C594 0.930 . S
H599 C596 0.929 . S
S600 N601 1.615 1_556 S
S600 N602 1.609 . S
N601 S600 1.615 1_554 S
N601 C604 1.350 . S
N602 S600 1.609 . S
N602 C603 1.351 . S
C603 C597 1.428 . S
C603 N602 1.351 . S
C603 C604 1.434 1_556 S
C604 C595 1.429 . S
C604 N601 1.350 . S
C604 C603 1.434 1_554 S
C605 C606 1.369 . S
C605 C607 1.419 1_556 S
C605 H609 0.930 . S
C606 C605 1.369 . S
C606 C615 1.429 . S
C607 C605 1.419 1_554 S
C607 C608 1.363 . S
C607 H610 0.929 . S
C608 C607 1.363 . S
C608 C614 1.428 . S
H609 C605 0.930 . S
H610 C607 0.929 . S
S611 N612 1.615 1_554 S
S611 N613 1.609 . S
N612 S611 1.615 1_556 S
N612 C615 1.350 . S
N613 S611 1.609 . S
N613 C614 1.351 . S
C614 C608 1.428 . S
C614 N613 1.351 . S
C614 C615 1.434 1_554 S
C615 C606 1.429 . S
C615 N612 1.350 . S
C615 C614 1.434 1_556 S
C616 C617 1.369 . S
C616 C618 1.419 1_455 S
C616 H620 0.930 . S
C617 C616 1.369 . S
C617 C626 1.429 . S
C618 C616 1.419 1_655 S
C618 C619 1.363 . S
C618 H621 0.929 . S
C619 C618 1.363 . S
C619 C625 1.428 . S
H620 C616 0.930 . S
H621 C618 0.929 . S
S622 N623 1.615 1_655 S
S622 N624 1.609 . S
N623 S622 1.615 1_455 S
N623 C626 1.350 . S
N624 S622 1.609 . S
N624 C625 1.351 . S
C625 C619 1.428 . S
C625 N624 1.351 . S
C625 C626 1.434 1_655 S
C626 C617 1.429 . S
C626 N623 1.350 . S
C626 C625 1.434 1_455 S
C627 C628 1.369 . S
C627 C629 1.419 1_655 S
C627 H631 0.930 . S
C628 C627 1.369 . S
C628 C637 1.429 . S
C629 C627 1.419 1_455 S
C629 C630 1.363 . S
C629 H632 0.929 . S
C630 C629 1.363 . S
C630 C636 1.428 . S
H631 C627 0.930 . S
H632 C629 0.929 . S
S633 N634 1.615 1_455 S
S633 N635 1.609 . S
N634 S633 1.615 1_655 S
N634 C637 1.350 . S
N635 S633 1.609 . S
N635 C636 1.351 . S
C636 C630 1.428 . S
C636 N635 1.351 . S
C636 C637 1.434 1_455 S
C637 C628 1.429 . S
C637 N634 1.350 . S
C637 C636 1.434 1_655 S
C638 C639 1.369 . S
C638 C640 1.419 1_545 S
C638 H642 0.930 . S
C639 C638 1.369 . S
C639 C648 1.429 . S
C640 C638 1.419 1_565 S
C640 C641 1.363 . S
C640 H643 0.929 . S
C641 C640 1.363 . S
C641 C647 1.428 . S
H642 C638 0.930 . S
H643 C640 0.929 . S
S644 N645 1.615 1_565 S
S644 N646 1.609 . S
N645 S644 1.615 1_545 S
N645 C648 1.350 . S
N646 S644 1.609 . S
N646 C647 1.351 . S
C647 C641 1.428 . S
C647 N646 1.351 . S
C647 C648 1.434 1_565 S
C648 C639 1.429 . S
C648 N645 1.350 . S
C648 C647 1.434 1_545 S
C649 C650 1.369 . S
C649 C651 1.419 1_565 S
C649 H653 0.930 . S
C650 C649 1.369 . S
C650 C659 1.429 . S
C651 C649 1.419 1_545 S
C651 C652 1.363 . S
C651 H654 0.929 . S
C652 C651 1.363 . S
C652 C658 1.428 . S
H653 C649 0.930 . S
H654 C651 0.929 . S
S655 N656 1.615 1_545 S
S655 N657 1.609 . S
N656 S655 1.615 1_565 S
N656 C659 1.350 . S
N657 S655 1.609 . S
N657 C658 1.351 . S
C658 C652 1.428 . S
C658 N657 1.351 . S
C658 C659 1.434 1_545 S
C659 C650 1.429 . S
C659 N656 1.350 . S
C659 C658 1.434 1_565 S
C265 C5 1.452 . S
C267 C161 1.453 . S
C276 C94 1.458 . S
C278 C31 1.457 . S
C287 C53 1.456 . S
C289 C117 1.456 . S
C298 C71 1.455 . S
C300 C139 1.455 . S
C309 C75 1.451 . S
C311 C204 1.452 . S
C320 C9 1.460 . S
C322 C227 1.459 . S
C331 C248 1.457 . S
C333 C27 1.457 . S
C342 C49 1.457 . S
C344 C182 1.456 . S
C353 C93 1.460 . S
C355 C7 1.459 . S
C364 C119 1.451 . S
C366 C28 1.453 . S
C375 C141 1.458 . S
C377 C50 1.457 . S
C386 C73 1.452 . S
C388 C163 1.453 . S
C397 C72 1.451 . S
C399 C181 1.452 . S
C408 C6 1.453 . S
C410 C203 1.454 . S
C419 C229 1.451 . S
C421 C29 1.452 . S
C430 C247 1.460 . S
C432 C51 1.459 . S
C441 C95 1.456 . S
C443 C159 1.456 . S
C452 C207 1.459 . S
C454 C183 1.458 . S
C463 C205 1.457 . S
C465 C225 1.456 . S
C474 C251 1.456 . S
C476 C226 1.456 . S
C485 C249 1.452 . S
C487 C185 1.452 . S
C496 C138 1.453 . S
C498 C115 1.453 . S
C507 C137 1.451 . S
C509 C160 1.452 . S
C518 C97 1.451 . S
C520 C116 1.452 . S
C529 C70 1.530 . S
C531 C8 1.530 . S
C540 C4 1.533 . S
C542 C26 1.533 . S
C551 C30 1.533 . S
C553 C48 1.533 . S
C562 C74 1.529 . S
C564 C52 1.530 . S
C573 C224 1.529 . S
C575 C96 1.530 . S
C584 C250 1.532 . S
C586 C114 1.532 . S
C595 C136 1.533 . S
C597 C184 1.533 . S
C606 C206 1.530 . S
C608 C158 1.531 . S
C617 C162 1.533 . S
C619 C118 1.533 . S
C628 C246 1.530 . S
C630 C202 1.530 . S
C639 C228 1.529 . S
C641 C180 1.530 . S
C650 C140 1.534 . S
C652 C92 1.533 . S
