# Generated by pormake.
# Topology lcv-f, (3)-cn, num edge types: 1
# Building blocks:
#     Node 0, Type 0, BuildingBlock: WUSLED_clean_sbu_0, # of connection points: 3
#     Node 1, Type 0, BuildingBlock: WUSLED_clean_sbu_0, # of connection points: 3
#     Node 2, Type 0, BuildingBlock: WUSLED_clean_sbu_0, # of connection points: 3
#     Node 3, Type 0, BuildingBlock: WUSLED_clean_sbu_0, # of connection points: 3
#     Node 4, Type 0, BuildingBlock: WUSLED_clean_sbu_0, # of connection points: 3
#     Node 5, Type 0, BuildingBlock: WUSLED_clean_sbu_0, # of connection points: 3
#     Node 6, Type 0, BuildingBlock: WUSLED_clean_sbu_0, # of connection points: 3
#     Node 7, Type 0, BuildingBlock: WUSLED_clean_sbu_0, # of connection points: 3
#     Node 8, Type 0, BuildingBlock: WUSLED_clean_sbu_0, # of connection points: 3
#     Node 9, Type 0, BuildingBlock: WUSLED_clean_sbu_0, # of connection points: 3
#     Node 10, Type 0, BuildingBlock: WUSLED_clean_sbu_0, # of connection points: 3
#     Node 11, Type 0, BuildingBlock: WUSLED_clean_sbu_0, # of connection points: 3
#     Node 12, Type 0, BuildingBlock: WUSLED_clean_sbu_0, # of connection points: 3
#     Node 13, Type 0, BuildingBlock: WUSLED_clean_sbu_0, # of connection points: 3
#     Node 14, Type 0, BuildingBlock: WUSLED_clean_sbu_0, # of connection points: 3
#     Node 15, Type 0, BuildingBlock: WUSLED_clean_sbu_0, # of connection points: 3
#     Node 16, Type 0, BuildingBlock: WUSLED_clean_sbu_0, # of connection points: 3
#     Node 17, Type 0, BuildingBlock: WUSLED_clean_sbu_0, # of connection points: 3
#     Node 18, Type 0, BuildingBlock: WUSLED_clean_sbu_0, # of connection points: 3
#     Node 19, Type 0, BuildingBlock: WUSLED_clean_sbu_0, # of connection points: 3
#     Node 20, Type 0, BuildingBlock: WUSLED_clean_sbu_0, # of connection points: 3
#     Node 21, Type 0, BuildingBlock: WUSLED_clean_sbu_0, # of connection points: 3
#     Node 22, Type 0, BuildingBlock: WUSLED_clean_sbu_0, # of connection points: 3
#     Node 23, Type 0, BuildingBlock: WUSLED_clean_sbu_0, # of connection points: 3
#     Node 24, Type 0, BuildingBlock: WUSLED_clean_sbu_0, # of connection points: 3
#     Node 25, Type 0, BuildingBlock: WUSLED_clean_sbu_0, # of connection points: 3
#     Node 26, Type 0, BuildingBlock: WUSLED_clean_sbu_0, # of connection points: 3
#     Node 27, Type 0, BuildingBlock: WUSLED_clean_sbu_0, # of connection points: 3
#     Node 28, Type 0, BuildingBlock: WUSLED_clean_sbu_0, # of connection points: 3
#     Node 29, Type 0, BuildingBlock: WUSLED_clean_sbu_0, # of connection points: 3
#     Node 30, Type 0, BuildingBlock: WUSLED_clean_sbu_0, # of connection points: 3
#     Node 31, Type 0, BuildingBlock: WUSLED_clean_sbu_0, # of connection points: 3
#     Node 32, Type 0, BuildingBlock: WUSLED_clean_sbu_0, # of connection points: 3
#     Node 33, Type 0, BuildingBlock: WUSLED_clean_sbu_0, # of connection points: 3
#     Node 34, Type 0, BuildingBlock: WUSLED_clean_sbu_0, # of connection points: 3
#     Node 35, Type 0, BuildingBlock: WUSLED_clean_sbu_0, # of connection points: 3
#     Node 36, Type 0, BuildingBlock: WUSLED_clean_sbu_0, # of connection points: 3
#     Node 37, Type 0, BuildingBlock: WUSLED_clean_sbu_0, # of connection points: 3
#     Node 38, Type 0, BuildingBlock: WUSLED_clean_sbu_0, # of connection points: 3
#     Node 39, Type 0, BuildingBlock: WUSLED_clean_sbu_0, # of connection points: 3
#     Node 40, Type 0, BuildingBlock: WUSLED_clean_sbu_0, # of connection points: 3
#     Node 41, Type 0, BuildingBlock: WUSLED_clean_sbu_0, # of connection points: 3
#     Node 42, Type 0, BuildingBlock: WUSLED_clean_sbu_0, # of connection points: 3
#     Node 43, Type 0, BuildingBlock: WUSLED_clean_sbu_0, # of connection points: 3
#     Node 44, Type 0, BuildingBlock: WUSLED_clean_sbu_0, # of connection points: 3
#     Node 45, Type 0, BuildingBlock: WUSLED_clean_sbu_0, # of connection points: 3
#     Node 46, Type 0, BuildingBlock: WUSLED_clean_sbu_0, # of connection points: 3
#     Node 47, Type 0, BuildingBlock: WUSLED_clean_sbu_0, # of connection points: 3
#     Edge 48, Type (0, 0), BuildingBlock: AJUNOK_clean_linker_0, # of connection points: 2
#     Edge 49, Type (0, 0), BuildingBlock: AJUNOK_clean_linker_0, # of connection points: 2
#     Edge 50, Type (0, 0), BuildingBlock: AJUNOK_clean_linker_0, # of connection points: 2
#     Edge 51, Type (0, 0), BuildingBlock: AJUNOK_clean_linker_0, # of connection points: 2
#     Edge 52, Type (0, 0), BuildingBlock: AJUNOK_clean_linker_0, # of connection points: 2
#     Edge 53, Type (0, 0), BuildingBlock: AJUNOK_clean_linker_0, # of connection points: 2
#     Edge 54, Type (0, 0), BuildingBlock: AJUNOK_clean_linker_0, # of connection points: 2
#     Edge 55, Type (0, 0), BuildingBlock: AJUNOK_clean_linker_0, # of connection points: 2
#     Edge 56, Type (0, 0), BuildingBlock: AJUNOK_clean_linker_0, # of connection points: 2
#     Edge 57, Type (0, 0), BuildingBlock: AJUNOK_clean_linker_0, # of connection points: 2
#     Edge 58, Type (0, 0), BuildingBlock: AJUNOK_clean_linker_0, # of connection points: 2
#     Edge 59, Type (0, 0), BuildingBlock: AJUNOK_clean_linker_0, # of connection points: 2
#     Edge 60, Type (0, 0), BuildingBlock: AJUNOK_clean_linker_0, # of connection points: 2
#     Edge 61, Type (0, 0), BuildingBlock: AJUNOK_clean_linker_0, # of connection points: 2
#     Edge 62, Type (0, 0), BuildingBlock: AJUNOK_clean_linker_0, # of connection points: 2
#     Edge 63, Type (0, 0), BuildingBlock: AJUNOK_clean_linker_0, # of connection points: 2
#     Edge 64, Type (0, 0), BuildingBlock: AJUNOK_clean_linker_0, # of connection points: 2
#     Edge 65, Type (0, 0), BuildingBlock: AJUNOK_clean_linker_0, # of connection points: 2
#     Edge 66, Type (0, 0), BuildingBlock: AJUNOK_clean_linker_0, # of connection points: 2
#     Edge 67, Type (0, 0), BuildingBlock: AJUNOK_clean_linker_0, # of connection points: 2
#     Edge 68, Type (0, 0), BuildingBlock: AJUNOK_clean_linker_0, # of connection points: 2
#     Edge 69, Type (0, 0), BuildingBlock: AJUNOK_clean_linker_0, # of connection points: 2
#     Edge 70, Type (0, 0), BuildingBlock: AJUNOK_clean_linker_0, # of connection points: 2
#     Edge 71, Type (0, 0), BuildingBlock: AJUNOK_clean_linker_0, # of connection points: 2
#     Edge 72, Type (0, 0), BuildingBlock: AJUNOK_clean_linker_0, # of connection points: 2
#     Edge 73, Type (0, 0), BuildingBlock: AJUNOK_clean_linker_0, # of connection points: 2
#     Edge 74, Type (0, 0), BuildingBlock: AJUNOK_clean_linker_0, # of connection points: 2
#     Edge 75, Type (0, 0), BuildingBlock: AJUNOK_clean_linker_0, # of connection points: 2
#     Edge 76, Type (0, 0), BuildingBlock: AJUNOK_clean_linker_0, # of connection points: 2
#     Edge 77, Type (0, 0), BuildingBlock: AJUNOK_clean_linker_0, # of connection points: 2
#     Edge 78, Type (0, 0), BuildingBlock: AJUNOK_clean_linker_0, # of connection points: 2
#     Edge 79, Type (0, 0), BuildingBlock: AJUNOK_clean_linker_0, # of connection points: 2
#     Edge 80, Type (0, 0), BuildingBlock: AJUNOK_clean_linker_0, # of connection points: 2
#     Edge 81, Type (0, 0), BuildingBlock: AJUNOK_clean_linker_0, # of connection points: 2
#     Edge 82, Type (0, 0), BuildingBlock: AJUNOK_clean_linker_0, # of connection points: 2
#     Edge 83, Type (0, 0), BuildingBlock: AJUNOK_clean_linker_0, # of connection points: 2
#     Edge 84, Type (0, 0), BuildingBlock: AJUNOK_clean_linker_0, # of connection points: 2
#     Edge 85, Type (0, 0), BuildingBlock: AJUNOK_clean_linker_0, # of connection points: 2
#     Edge 86, Type (0, 0), BuildingBlock: AJUNOK_clean_linker_0, # of connection points: 2
#     Edge 87, Type (0, 0), BuildingBlock: AJUNOK_clean_linker_0, # of connection points: 2
#     Edge 88, Type (0, 0), BuildingBlock: AJUNOK_clean_linker_0, # of connection points: 2
#     Edge 89, Type (0, 0), BuildingBlock: AJUNOK_clean_linker_0, # of connection points: 2
#     Edge 90, Type (0, 0), BuildingBlock: AJUNOK_clean_linker_0, # of connection points: 2
#     Edge 91, Type (0, 0), BuildingBlock: AJUNOK_clean_linker_0, # of connection points: 2
#     Edge 92, Type (0, 0), BuildingBlock: AJUNOK_clean_linker_0, # of connection points: 2
#     Edge 93, Type (0, 0), BuildingBlock: AJUNOK_clean_linker_0, # of connection points: 2
#     Edge 94, Type (0, 0), BuildingBlock: AJUNOK_clean_linker_0, # of connection points: 2
#     Edge 95, Type (0, 0), BuildingBlock: AJUNOK_clean_linker_0, # of connection points: 2
#     Edge 96, Type (0, 0), BuildingBlock: AJUNOK_clean_linker_0, # of connection points: 2
#     Edge 97, Type (0, 0), BuildingBlock: AJUNOK_clean_linker_0, # of connection points: 2
#     Edge 98, Type (0, 0), BuildingBlock: AJUNOK_clean_linker_0, # of connection points: 2
#     Edge 99, Type (0, 0), BuildingBlock: AJUNOK_clean_linker_0, # of connection points: 2
#     Edge 100, Type (0, 0), BuildingBlock: AJUNOK_clean_linker_0, # of connection points: 2
#     Edge 101, Type (0, 0), BuildingBlock: AJUNOK_clean_linker_0, # of connection points: 2
#     Edge 102, Type (0, 0), BuildingBlock: AJUNOK_clean_linker_0, # of connection points: 2
#     Edge 103, Type (0, 0), BuildingBlock: AJUNOK_clean_linker_0, # of connection points: 2
#     Edge 104, Type (0, 0), BuildingBlock: AJUNOK_clean_linker_0, # of connection points: 2
#     Edge 105, Type (0, 0), BuildingBlock: AJUNOK_clean_linker_0, # of connection points: 2
#     Edge 106, Type (0, 0), BuildingBlock: AJUNOK_clean_linker_0, # of connection points: 2
#     Edge 107, Type (0, 0), BuildingBlock: AJUNOK_clean_linker_0, # of connection points: 2
#     Edge 108, Type (0, 0), BuildingBlock: AJUNOK_clean_linker_0, # of connection points: 2
#     Edge 109, Type (0, 0), BuildingBlock: AJUNOK_clean_linker_0, # of connection points: 2
#     Edge 110, Type (0, 0), BuildingBlock: AJUNOK_clean_linker_0, # of connection points: 2
#     Edge 111, Type (0, 0), BuildingBlock: AJUNOK_clean_linker_0, # of connection points: 2
#     Edge 112, Type (0, 0), BuildingBlock: AJUNOK_clean_linker_0, # of connection points: 2
#     Edge 113, Type (0, 0), BuildingBlock: AJUNOK_clean_linker_0, # of connection points: 2
#     Edge 114, Type (0, 0), BuildingBlock: AJUNOK_clean_linker_0, # of connection points: 2
#     Edge 115, Type (0, 0), BuildingBlock: AJUNOK_clean_linker_0, # of connection points: 2
#     Edge 116, Type (0, 0), BuildingBlock: AJUNOK_clean_linker_0, # of connection points: 2
#     Edge 117, Type (0, 0), BuildingBlock: AJUNOK_clean_linker_0, # of connection points: 2
#     Edge 118, Type (0, 0), BuildingBlock: AJUNOK_clean_linker_0, # of connection points: 2
#     Edge 119, Type (0, 0), BuildingBlock: AJUNOK_clean_linker_0, # of connection points: 2
# Relax obj value: 0.173
# Max RMSD: 0.161
# Mean RMSD: 0.107
data_MOF--net-lcv-f--node1-WUSLED_clean_sbu_0--edge1-AJUNOK_clean_linker_0
_symmetry_space_group_name_H-M    P1
_symmetry_Int_Tables_number       1
_symmetry_cell_setting            triclinic
loop_
_symmetry_equiv_pos_as_xyz
'x, y, z'
_cell_length_a     109.582
_cell_length_b     109.50035
_cell_length_c     109.57711
_cell_angle_alpha  80.878275
_cell_angle_beta   80.839555
_cell_angle_gamma 80.846476
loop_
_atom_site_label
_atom_site_type_symbol
_atom_site_fract_x
_atom_site_fract_y
_atom_site_fract_z
_atom_type_partial_charge
C0 C 0.15742 0.14262 0.39539 0.0
C1 C 0.1674 0.13289 0.39631 0.0
C2 C 0.15353 0.11778 0.39531 0.0
C3 C 0.16544 0.12051 0.39632 0.0
C4 C 0.1436 0.12759 0.39465 0.0
C5 C 0.14556 0.13985 0.39462 0.0
U6 U 0.17423 0.1723 0.39267 0.0
O7 O 0.1683 0.19036 0.38159 0.0
O8 O 0.16702 0.18887 0.40223 0.0
C9 C 0.16507 0.19589 0.39164 0.0
C10 C 0.15873 0.15583 0.395 0.0
C11 C 0.16019 0.20926 0.39099 0.0
C12 C 0.14259 0.22586 0.3903 0.0
C13 C 0.14727 0.21314 0.39232 0.0
C14 C 0.1637 0.23096 0.38591 0.0
C15 C 0.15077 0.23484 0.38688 0.0
C16 C 0.16838 0.21824 0.38798 0.0
C17 C 0.21176 0.16149 0.38884 0.0
C18 C 0.23286 0.16667 0.38633 0.0
C19 C 0.22946 0.1457 0.38464 0.0
C20 C 0.21659 0.1492 0.38699 0.0
C21 C 0.23771 0.15443 0.38409 0.0
C22 C 0.21993 0.17018 0.38867 0.0
C23 C 0.19823 0.16531 0.39021 0.0
O24 O 0.16265 0.15911 0.40458 0.0
O25 O 0.16323 0.16163 0.3842 0.0
O26 O 0.19206 0.16792 0.38057 0.0
O27 O 0.19157 0.1664 0.40118 0.0
H28 H 0.17664 0.13488 0.39692 0.0
H29 H 0.17325 0.11311 0.39689 0.0
H30 H 0.13426 0.12578 0.39422 0.0
H31 H 0.13773 0.14723 0.39398 0.0
H32 H 0.13259 0.22867 0.39091 0.0
H33 H 0.14081 0.20632 0.39452 0.0
H34 H 0.17016 0.23774 0.38316 0.0
H35 H 0.17838 0.2154 0.38684 0.0
H36 H 0.23903 0.17359 0.38584 0.0
H37 H 0.233 0.13619 0.38302 0.0
H38 H 0.2104 0.14238 0.3871 0.0
H39 H 0.2163 0.17974 0.39003 0.0
C40 C 0.18406 0.82357 0.74125 0.0
C41 C 0.1969 0.81928 0.73914 0.0
C42 C 0.19925 0.82391 0.75959 0.0
C43 C 0.20446 0.81939 0.74831 0.0
C44 C 0.1864 0.82799 0.76169 0.0
C45 C 0.17888 0.82778 0.75262 0.0
U46 U 0.17798 0.8252 0.70735 0.0
O47 O 0.16321 0.81809 0.70007 0.0
O48 O 0.16418 0.83826 0.69752 0.0
C49 C 0.15817 0.82936 0.69577 0.0
C50 C 0.17587 0.82448 0.73164 0.0
C51 C 0.14442 0.83206 0.69716 0.0
C52 C 0.12371 0.8354 0.7092 0.0
C53 C 0.13676 0.83238 0.70874 0.0
C54 C 0.12603 0.83791 0.68664 0.0
C55 C 0.1182 0.8381 0.69811 0.0
C56 C 0.13891 0.83484 0.6862 0.0
C57 C 0.2089 0.82306 0.68298 0.0
C58 C 0.21307 0.82477 0.66032 0.0
C59 C 0.22992 0.82439 0.67229 0.0
C60 C 0.22159 0.8232 0.68328 0.0
C61 C 0.22579 0.8254 0.66063 0.0
C62 C 0.20464 0.82369 0.67144 0.0
C63 C 0.20065 0.82285 0.69498 0.0
O64 O 0.17547 0.8349 0.72382 0.0
O65 O 0.17633 0.81451 0.7262 0.0
O66 O 0.19434 0.81337 0.69881 0.0
O67 O 0.19448 0.83357 0.69776 0.0
H68 H 0.20109 0.81609 0.73035 0.0
H69 H 0.21438 0.8163 0.74646 0.0
H70 H 0.1822 0.83148 0.77033 0.0
H71 H 0.169 0.83115 0.75439 0.0
H72 H 0.11794 0.83552 0.71818 0.0
H73 H 0.14085 0.83035 0.71733 0.0
H74 H 0.12222 0.84035 0.67791 0.0
H75 H 0.14465 0.8348 0.67718 0.0
H76 H 0.20961 0.82524 0.65152 0.0
H77 H 0.23956 0.82497 0.67294 0.0
H78 H 0.22505 0.82274 0.6921 0.0
H79 H 0.19486 0.82353 0.67102 0.0
C80 C 0.66421 0.88605 0.82578 0.0
C81 C 0.65925 0.89791 0.82026 0.0
C82 C 0.67069 0.90786 0.83236 0.0
C83 C 0.66244 0.90874 0.82357 0.0
C84 C 0.67601 0.89603 0.83748 0.0
C85 C 0.67276 0.88522 0.83423 0.0
U86 U 0.64489 0.86899 0.80949 0.0
O87 O 0.64832 0.8502 0.8035 0.0
O88 O 0.63228 0.85515 0.81753 0.0
C89 C 0.63841 0.84663 0.8108 0.0
C90 C 0.65983 0.87454 0.82372 0.0
C91 C 0.63856 0.83333 0.81623 0.0
C92 C 0.63928 0.81631 0.83354 0.0
C93 C 0.64105 0.82866 0.82841 0.0
C94 C 0.63264 0.81326 0.81437 0.0
C95 C 0.63489 0.80848 0.82662 0.0
C96 C 0.63457 0.82543 0.80924 0.0
C97 C 0.62686 0.89196 0.78469 0.0
C98 C 0.60775 0.89129 0.77637 0.0
C99 C 0.61809 0.90976 0.77109 0.0
C100 C 0.6275 0.90391 0.77806 0.0
C101 C 0.60791 0.90367 0.77035 0.0
C102 C 0.6171 0.8855 0.78358 0.0
C103 C 0.63547 0.88757 0.79396 0.0
O104 O 0.64789 0.87398 0.82731 0.0
O105 O 0.66387 0.87058 0.81288 0.0
O106 O 0.64576 0.88016 0.79077 0.0
O107 O 0.63038 0.88476 0.80555 0.0
H108 H 0.6526 0.89878 0.81372 0.0
H109 H 0.65822 0.9178 0.81954 0.0
H110 H 0.68232 0.89515 0.84434 0.0
H111 H 0.67665 0.87618 0.83863 0.0
H112 H 0.64112 0.81299 0.843 0.0
H113 H 0.64402 0.83461 0.83406 0.0
H114 H 0.6288 0.80782 0.80885 0.0
H115 H 0.63238 0.82889 0.7999 0.0
H116 H 0.60011 0.88627 0.77593 0.0
H117 H 0.61843 0.91939 0.76702 0.0
H118 H 0.63489 0.90908 0.77893 0.0
H119 H 0.61642 0.87627 0.7887 0.0
C120 C 0.39759 0.32522 0.96976 0.0
C121 C 0.38926 0.31752 0.97698 0.0
C122 C 0.38457 0.33175 0.99274 0.0
C123 C 0.38274 0.32082 0.98837 0.0
C124 C 0.39287 0.33938 0.98533 0.0
C125 C 0.39917 0.33621 0.97394 0.0
U126 U 0.41216 0.30442 0.94369 0.0
O127 O 0.4197 0.31054 0.92407 0.0
O128 O 0.43216 0.30018 0.93729 0.0
C129 C 0.43105 0.30524 0.92577 0.0
C130 C 0.40574 0.32175 0.95845 0.0
C131 C 0.44194 0.31018 0.91816 0.0
C132 C 0.45908 0.32252 0.9147 0.0
C133 C 0.44755 0.3197 0.92131 0.0
C134 C 0.45928 0.30646 0.90181 0.0
C135 C 0.46518 0.31577 0.90499 0.0
C136 C 0.44777 0.3038 0.90823 0.0
C137 C 0.39529 0.27319 0.94983 0.0
C138 C 0.39459 0.25268 0.94442 0.0
C139 C 0.38564 0.25778 0.96501 0.0
C140 C 0.38887 0.26979 0.96167 0.0
C141 C 0.38891 0.24902 0.95657 0.0
C142 C 0.39777 0.26476 0.94106 0.0
C143 C 0.40139 0.28441 0.94755 0.0
O144 O 0.41461 0.31233 0.96018 0.0
O145 O 0.40055 0.32191 0.94838 0.0
O146 O 0.4107 0.28536 0.95339 0.0
O147 O 0.3975 0.29434 0.93999 0.0
H148 H 0.388 0.30892 0.97394 0.0
H149 H 0.3764 0.31473 0.99383 0.0
H150 H 0.39495 0.34758 0.98852 0.0
H151 H 0.40569 0.34216 0.96858 0.0
H152 H 0.46338 0.32975 0.9174 0.0
H153 H 0.44324 0.32462 0.92907 0.0
H154 H 0.46381 0.30073 0.89475 0.0
H155 H 0.44369 0.29626 0.90582 0.0
H156 H 0.39734 0.24597 0.93788 0.0
H157 H 0.38136 0.25505 0.97446 0.0
H158 H 0.38704 0.27617 0.96857 0.0
H159 H 0.40293 0.26721 0.93193 0.0
C160 C 0.13465 0.04333 0.39926 0.0
C161 C 0.14714 0.0447 0.39954 0.0
C162 C 0.14191 0.06738 0.3964 0.0
C163 C 0.15073 0.05664 0.39816 0.0
C164 C 0.12948 0.06591 0.39595 0.0
C165 C 0.12592 0.05402 0.39732 0.0
U166 U 0.13993 0.00763 0.40026 0.0
O167 O 0.13309 0.99312 0.41476 0.0
O168 O 0.12785 0.99499 0.39594 0.0
C169 C 0.12675 0.98904 0.40739 0.0
C170 C 0.13028 0.03098 0.40169 0.0
C171 C 0.11444 0.98548 0.41298 0.0
C172 C 0.0953 0.98796 0.42757 0.0
C173 C 0.10589 0.99277 0.42079 0.0
C174 C 0.1015 0.96879 0.41848 0.0
C175 C 0.09314 0.97577 0.42674 0.0
C176 C 0.11196 0.97363 0.41163 0.0
C177 C 0.17454 0.99356 0.38974 0.0
C178 C 0.18545 0.97245 0.39333 0.0
C179 C 0.19669 0.98933 0.38273 0.0
C180 C 0.18567 0.99762 0.38364 0.0
C181 C 0.19682 0.9767 0.38782 0.0
C182 C 0.17436 0.98088 0.39439 0.0
C183 C 0.16383 1.0032 0.3921 0.0
O184 O 0.13027 0.02548 0.39186 0.0
O185 O 0.13436 0.02331 0.41112 0.0
O186 O 0.15939 1.004 0.40385 0.0
O187 O 0.15518 0.005 0.38472 0.0
H188 H 0.15405 0.03655 0.40103 0.0
H189 H 0.16038 0.05747 0.3985 0.0
H190 H 0.12239 0.07397 0.3949 0.0
H191 H 0.11623 0.05317 0.39715 0.0
H192 H 0.089 0.99364 0.43377 0.0
H193 H 0.10763 1.00193 0.422 0.0
H194 H 0.1004 0.95928 0.4178 0.0
H195 H 0.11852 0.96781 0.40575 0.0
H196 H 0.18516 0.96273 0.39706 0.0
H197 H 0.20524 0.99299 0.37856 0.0
H198 H 0.18597 0.00739 0.38005 0.0
H199 H 0.1658 0.97759 0.39913 0.0
C200 C 0.24674 0.83054 0.81295 0.0
C201 C 0.24668 0.8389 0.80182 0.0
C202 C 0.23 0.8294 0.79639 0.0
C203 C 0.23828 0.83836 0.79359 0.0
C204 C 0.22969 0.82157 0.80784 0.0
C205 C 0.23801 0.82214 0.81604 0.0
U206 U 0.27501 0.84013 0.82456 0.0
O207 O 0.28085 0.83514 0.84327 0.0
O208 O 0.29261 0.82757 0.82685 0.0
C209 C 0.29103 0.82817 0.83888 0.0
C210 C 0.25675 0.82905 0.82069 0.0
C211 C 0.29939 0.82055 0.84716 0.0
C212 C 0.30563 0.80105 0.85994 0.0
C213 C 0.29649 0.80919 0.854 0.0
C214 C 0.32032 0.8159 0.85277 0.0
C215 C 0.3177 0.80422 0.85913 0.0
C216 C 0.31122 0.82397 0.84682 0.0
C217 C 0.28413 0.87304 0.80751 0.0
C218 C 0.30221 0.88394 0.80491 0.0
C219 C 0.28573 0.89142 0.79212 0.0
C220 C 0.2791 0.88193 0.79835 0.0
C221 C 0.29755 0.89236 0.79502 0.0
C222 C 0.29561 0.87419 0.81101 0.0
C223 C 0.27754 0.86218 0.81189 0.0
O224 O 0.26811 0.82738 0.81467 0.0
O225 O 0.25548 0.8364 0.82933 0.0
O226 O 0.2717 0.86072 0.82337 0.0
O227 O 0.28246 0.85167 0.80764 0.0
H228 H 0.25343 0.84541 0.79926 0.0
H229 H 0.23864 0.84453 0.78481 0.0
H230 H 0.22322 0.81477 0.81031 0.0
H231 H 0.23798 0.81562 0.82459 0.0
H232 H 0.30341 0.79209 0.8648 0.0
H233 H 0.28741 0.80637 0.85425 0.0
H234 H 0.32959 0.8185 0.85182 0.0
H235 H 0.31362 0.83266 0.84143 0.0
H236 H 0.3111 0.88464 0.80768 0.0
H237 H 0.28185 0.89759 0.78453 0.0
H238 H 0.27025 0.88114 0.79551 0.0
H239 H 0.29961 0.86741 0.81812 0.0
C240 C 0.68137 0.97716 0.8553 0.0
C241 C 0.67677 0.96803 0.86464 0.0
C242 C 0.67878 0.95354 0.84929 0.0
C243 C 0.67556 0.95628 0.86167 0.0
C244 C 0.68356 0.9627 0.84011 0.0
C245 C 0.68485 0.97432 0.84309 0.0
U246 U 0.67316 0.00847 0.87012 0.0
O247 O 0.68633 0.02082 0.87307 0.0
O248 O 0.67314 0.02712 0.85912 0.0
C249 C 0.68222 0.02959 0.86444 0.0
C250 C 0.68287 0.98974 0.85765 0.0
C251 C 0.68639 0.04197 0.86175 0.0
C252 C 0.70169 0.05525 0.85091 0.0
C253 C 0.69817 0.04334 0.85489 0.0
C254 C 0.68187 0.06446 0.8611 0.0
C255 C 0.69344 0.06592 0.85378 0.0
C256 C 0.67834 0.05258 0.86502 0.0
C257 C 0.64203 0.0064 0.89545 0.0
C258 C 0.62493 0.0175 0.90799 0.0
C259 C 0.62292 0.99736 0.90254 0.0
C260 C 0.63505 0.99658 0.89616 0.0
C261 C 0.61762 0.00806 0.90809 0.0
C262 C 0.6371 0.01663 0.90175 0.0
C263 C 0.65323 0.00717 0.88634 0.0
O264 O 0.67461 0.99893 0.85365 0.0
O265 O 0.68613 0.99097 0.8684 0.0
O266 O 0.65265 0.01042 0.87437 0.0
O267 O 0.66448 1.00421 0.88963 0.0
H268 H 0.67413 0.96996 0.87417 0.0
H269 H 0.67218 0.94935 0.86908 0.0
H270 H 0.68606 0.96102 0.8305 0.0
H271 H 0.68849 0.9812 0.83575 0.0
H272 H 0.7106 0.05616 0.84519 0.0
H273 H 0.70445 0.03522 0.85221 0.0
H274 H 0.67538 0.07258 0.86342 0.0
H275 H 0.6692 0.05171 0.87029 0.0
H276 H 0.62099 0.02584 0.91216 0.0
H277 H 0.61738 0.99006 0.90233 0.0
H278 H 0.6387 0.9887 0.89116 0.0
H279 H 0.64235 0.02435 0.90112 0.0
C280 C 0.35065 0.34761 0.06658 0.0
C281 C 0.36194 0.33953 0.06528 0.0
C282 C 0.36256 0.34316 0.04259 0.0
C283 C 0.36789 0.33735 0.05332 0.0
C284 C 0.3512 0.35113 0.04411 0.0
C285 C 0.34543 0.35341 0.05594 0.0
U286 U 0.33951 0.3425 0.10275 0.0
O287 O 0.33119 0.35738 0.11424 0.0
O288 O 0.31954 0.34378 0.1106 0.0
C289 C 0.32021 0.35347 0.11604 0.0
C290 C 0.34346 0.34995 0.07868 0.0
C291 C 0.30904 0.36055 0.12224 0.0
C292 C 0.29108 0.3767 0.12158 0.0
C293 C 0.30282 0.37146 0.11616 0.0
C294 C 0.29204 0.36062 0.13946 0.0
C295 C 0.28545 0.37112 0.13312 0.0
C296 C 0.3037 0.35535 0.13402 0.0
C297 C 0.35905 0.31244 0.12072 0.0
C298 C 0.35901 0.29927 0.14079 0.0
C299 C 0.37296 0.29285 0.12278 0.0
C300 C 0.36852 0.30382 0.11557 0.0
C301 C 0.36807 0.29025 0.13542 0.0
C302 C 0.35442 0.31026 0.13345 0.0
C303 C 0.35386 0.32292 0.11205 0.0
O304 O 0.3358 0.34193 0.0838 0.0
O305 O 0.34901 0.35398 0.08676 0.0
O306 O 0.3559 0.33439 0.1123 0.0
O307 O 0.34361 0.32212 0.1076 0.0
H308 H 0.36607 0.33487 0.07344 0.0
H309 H 0.37662 0.33113 0.05247 0.0
H310 H 0.34652 0.35537 0.03618 0.0
H311 H 0.33663 0.35955 0.05679 0.0
H312 H 0.28619 0.38487 0.11657 0.0
H313 H 0.30676 0.37559 0.10703 0.0
H314 H 0.28789 0.3561 0.14833 0.0
H315 H 0.30835 0.34688 0.13878 0.0
H316 H 0.35529 0.29773 0.15059 0.0
H317 H 0.37984 0.28614 0.11827 0.0
H318 H 0.3722 0.30535 0.10575 0.0
H319 H 0.34714 0.31686 0.13761 0.0
C320 C 0.39392 0.15842 0.14285 0.0
C321 C 0.39395 0.16851 0.13317 0.0
C322 C 0.39391 0.15431 0.11806 0.0
C323 C 0.394 0.16644 0.12082 0.0
C324 C 0.39419 0.1443 0.12781 0.0
C325 C 0.39414 0.14636 0.14003 0.0
U326 U 0.39104 0.17494 0.1729 0.0
O327 O 0.40031 0.16767 0.18961 0.0
O328 O 0.37977 0.16842 0.19065 0.0
C329 C 0.38969 0.16543 0.19641 0.0
C330 C 0.39326 0.15982 0.15608 0.0
C331 C 0.38893 0.16007 0.20968 0.0
C332 C 0.38232 0.14418 0.22649 0.0
C333 C 0.38379 0.14897 0.21381 0.0
C334 C 0.39117 0.16153 0.23113 0.0
C335 C 0.3859 0.15044 0.23534 0.0
C336 C 0.39277 0.16626 0.21839 0.0
C337 C 0.38766 0.21267 0.16343 0.0
C338 C 0.37803 0.23305 0.16869 0.0
C339 C 0.3905 0.23127 0.14855 0.0
C340 C 0.393 0.21834 0.15188 0.0
C341 C 0.38274 0.23876 0.15681 0.0
C342 C 0.38032 0.2201 0.1719 0.0
C343 C 0.38918 0.19901 0.1663 0.0
O344 O 0.40289 0.16332 0.15968 0.0
O345 O 0.38246 0.16463 0.16165 0.0
O346 O 0.3794 0.19305 0.16929 0.0
O347 O 0.40009 0.19209 0.16694 0.0
H348 H 0.39378 0.17791 0.13518 0.0
H349 H 0.39383 0.17433 0.11347 0.0
H350 H 0.39448 0.13482 0.12598 0.0
H351 H 0.39418 0.13846 0.14738 0.0
H352 H 0.37792 0.13582 0.22941 0.0
H353 H 0.38072 0.1441 0.20724 0.0
H354 H 0.39397 0.16661 0.2377 0.0
H355 H 0.39669 0.1749 0.21538 0.0
H356 H 0.37239 0.23857 0.17544 0.0
H357 H 0.39426 0.23533 0.13932 0.0
H358 H 0.3987 0.21273 0.14524 0.0
H359 H 0.37624 0.21587 0.18093 0.0
C360 C 0.32449 0.97261 0.39513 0.0
C361 C 0.31513 0.98183 0.39079 0.0
C362 C 0.3307 0.99572 0.38232 0.0
C363 C 0.31822 0.99331 0.38442 0.0
C364 C 0.34003 0.98625 0.38629 0.0
C365 C 0.33694 0.97482 0.39262 0.0
U366 U 0.3048 0.94638 0.41216 0.0
O367 O 0.31215 0.92714 0.41974 0.0
O368 O 0.3028 0.94079 0.43253 0.0
C369 C 0.30871 0.92956 0.43127 0.0
C370 C 0.3216 0.96141 0.40376 0.0
C371 C 0.31009 0.91994 0.44208 0.0
C372 C 0.32181 0.91046 0.459 0.0
C373 C 0.32104 0.91812 0.44759 0.0
C374 C 0.3009 0.90582 0.45913 0.0
C375 C 0.31166 0.90437 0.46502 0.0
C376 C 0.30009 0.91361 0.44778 0.0
C377 C 0.27204 0.95083 0.39808 0.0
C378 C 0.25256 0.94305 0.39777 0.0
C379 C 0.25536 0.96422 0.38852 0.0
C380 C 0.26742 0.96228 0.39166 0.0
C381 C 0.24767 0.95476 0.39187 0.0
C382 C 0.2647 0.9411 0.40087 0.0
C383 C 0.28392 0.94966 0.40291 0.0
O384 O 0.31274 0.96325 0.41313 0.0
O385 O 0.32144 0.95113 0.39905 0.0
O386 O 0.2936 0.94186 0.3989 0.0
O387 O 0.28536 0.95568 0.41193 0.0
H388 H 0.30543 0.98034 0.39278 0.0
H389 H 0.31079 1.00049 0.38166 0.0
H390 H 0.34971 0.98778 0.38473 0.0
H391 H 0.34427 0.96786 0.396 0.0
H392 H 0.33011 0.90983 0.46339 0.0
H393 H 0.32879 0.92311 0.44337 0.0
H394 H 0.29295 0.9012 0.46349 0.0
H395 H 0.29153 0.915 0.44367 0.0
H396 H 0.2469 0.93554 0.40029 0.0
H397 H 0.25183 0.97336 0.38406 0.0
H398 H 0.27298 0.96988 0.38949 0.0
H399 H 0.26816 0.9322 0.40587 0.0
C400 C 0.35901 0.93627 0.67282 0.0
C401 C 0.35083 0.92741 0.67736 0.0
C402 C 0.34914 0.92468 0.65608 0.0
C403 C 0.34592 0.92168 0.66905 0.0
C404 C 0.35705 0.93382 0.65163 0.0
C405 C 0.36193 0.93954 0.65993 0.0
U406 U 0.36127 0.944 0.70514 0.0
O407 O 0.37751 0.94186 0.71505 0.0
O408 O 0.36693 0.9605 0.71087 0.0
C409 C 0.37646 0.95385 0.71582 0.0
C410 C 0.36507 0.94178 0.6813 0.0
C411 C 0.38814 0.95933 0.71424 0.0
C412 C 0.40999 0.9598 0.70575 0.0
C413 C 0.39839 0.9561 0.70535 0.0
C414 C 0.40108 0.97027 0.72364 0.0
C415 C 0.41155 0.96666 0.71512 0.0
C416 C 0.38951 0.96673 0.72312 0.0
C417 C 0.33558 0.93297 0.73165 0.0
C418 C 0.33629 0.92617 0.75377 0.0
C419 C 0.31709 0.92702 0.74515 0.0
C420 C 0.32293 0.93155 0.73343 0.0
C421 C 0.32382 0.92385 0.75536 0.0
C422 C 0.34217 0.93064 0.74196 0.0
C423 C 0.34185 0.93517 0.71877 0.0
O424 O 0.35875 0.95176 0.68572 0.0
O425 O 0.37045 0.93377 0.68975 0.0
O426 O 0.3527 0.92834 0.71626 0.0
O427 O 0.34144 0.9468 0.71334 0.0
H428 H 0.34839 0.92483 0.68731 0.0
H429 H 0.3396 0.9149 0.67275 0.0
H430 H 0.35971 0.93632 0.6417 0.0
H431 H 0.36821 0.94637 0.65627 0.0
H432 H 0.41784 0.95693 0.69899 0.0
H433 H 0.39755 0.95034 0.69843 0.0
H434 H 0.40192 0.97522 0.7312 0.0
H435 H 0.38175 0.96919 0.73016 0.0
H436 H 0.34162 0.92405 0.76154 0.0
H437 H 0.3075 0.9253 0.74605 0.0
H438 H 0.31771 0.93326 0.72556 0.0
H439 H 0.35195 0.93174 0.74078 0.0
C440 C 0.49275 0.02088 0.88067 0.0
C441 C 0.50478 0.01599 0.87551 0.0
C442 C 0.49643 0.01181 0.85748 0.0
C443 C 0.50661 0.0115 0.86395 0.0
C444 C 0.48451 0.01696 0.86264 0.0
C445 C 0.48269 0.02135 0.87414 0.0
U446 U 0.50321 0.0274 0.91048 0.0
O447 O 0.49812 0.0438 0.92038 0.0
O448 O 0.49375 0.02546 0.92991 0.0
C449 C 0.49283 0.03748 0.93052 0.0
C450 C 0.49032 0.02565 0.89277 0.0
C451 C 0.48101 0.04355 0.93688 0.0
C452 C 0.46288 0.05966 0.93724 0.0
C453 C 0.47278 0.05261 0.93052 0.0
C454 C 0.4689 0.0482 0.95661 0.0
C455 C 0.46111 0.05781 0.95038 0.0
C456 C 0.47875 0.0412 0.94993 0.0
C457 C 0.53924 0.01647 0.91144 0.0
C458 C 0.55516 0.02252 0.92149 0.0
C459 C 0.56048 0.006 0.90844 0.0
C460 C 0.54815 0.0074 0.90624 0.0
C461 C 0.56412 0.01368 0.91587 0.0
C462 C 0.5427 0.02388 0.91933 0.0
C463 C 0.52702 0.01871 0.90706 0.0
O464 O 0.49122 0.0172 0.90266 0.0
O465 O 0.49539 0.03562 0.89328 0.0
O466 O 0.52254 0.03032 0.9033 0.0
O467 O 0.51849 0.01184 0.91286 0.0
H468 H 0.51269 0.0156 0.88044 0.0
H469 H 0.5159 0.00762 0.86017 0.0
H470 H 0.47653 0.01769 0.85773 0.0
H471 H 0.47338 0.02519 0.87793 0.0
H472 H 0.457 0.06697 0.93217 0.0
H473 H 0.47431 0.0546 0.92044 0.0
H474 H 0.4676 0.04633 0.96671 0.0
H475 H 0.48495 0.03425 0.95503 0.0
H476 H 0.5579 0.02861 0.92716 0.0
H477 H 0.56732 0.99928 0.90387 0.0
H478 H 0.54567 1.00171 0.90001 0.0
H479 H 0.53594 0.03101 0.92336 0.0
C480 C 0.32426 0.89068 0.60023 0.0
C481 C 0.32021 0.88638 0.61275 0.0
C482 C 0.33198 0.90074 0.61935 0.0
C483 C 0.32406 0.89142 0.62228 0.0
C484 C 0.33604 0.90482 0.60678 0.0
C485 C 0.3322 0.89985 0.59735 0.0
U486 U 0.30738 0.87244 0.58089 0.0
O487 O 0.30096 0.88121 0.56304 0.0
O488 O 0.31676 0.86567 0.56332 0.0
C489 C 0.30969 0.87414 0.55667 0.0
C490 C 0.32056 0.88611 0.58971 0.0
C491 C 0.3108 0.87508 0.54303 0.0
C492 C 0.32247 0.88124 0.5228 0.0
C493 C 0.32194 0.87795 0.53572 0.0
C494 C 0.30096 0.87784 0.52426 0.0
C495 C 0.31193 0.88137 0.51689 0.0
C496 C 0.30035 0.87488 0.53722 0.0
C497 C 0.28283 0.85161 0.60352 0.0
C498 C 0.26259 0.84426 0.60735 0.0
C499 C 0.27543 0.84109 0.62393 0.0
C500 C 0.28474 0.84672 0.61578 0.0
C501 C 0.26408 0.84004 0.61993 0.0
C502 C 0.27179 0.8502 0.5993 0.0
C503 C 0.29186 0.85908 0.59556 0.0
O504 O 0.3245 0.87444 0.58806 0.0
O505 O 0.30925 0.89015 0.58696 0.0
O506 O 0.28847 0.87067 0.59076 0.0
O507 O 0.3036 0.85453 0.59243 0.0
H508 H 0.31405 0.87929 0.6151 0.0
H509 H 0.32064 0.88823 0.6319 0.0
H510 H 0.34224 0.91186 0.60422 0.0
H511 H 0.33543 0.90322 0.58771 0.0
H512 H 0.33095 0.88431 0.51759 0.0
H513 H 0.33002 0.87843 0.5401 0.0
H514 H 0.2927 0.87772 0.52005 0.0
H515 H 0.29162 0.87281 0.54274 0.0
H516 H 0.25424 0.84319 0.60376 0.0
H517 H 0.27693 0.83802 0.63353 0.0
H518 H 0.2932 0.84778 0.61922 0.0
H519 H 0.2702 0.85383 0.58981 0.0
C520 C 0.49748 0.98977 0.78529 0.0
C521 C 0.5087 0.98641 0.79045 0.0
C522 C 0.49931 0.99666 0.80853 0.0
C523 C 0.50963 0.98991 0.80202 0.0
C524 C 0.48833 1.00033 0.80307 0.0
C525 C 0.48743 0.99691 0.79157 0.0
U526 U 0.50769 0.9716 0.75711 0.0
O527 O 0.49695 0.95989 0.74963 0.0
O528 O 0.50286 0.97674 0.73799 0.0
C529 C 0.49643 0.96737 0.73903 0.0
C530 C 0.49558 0.9855 0.77377 0.0
C531 C 0.48413 0.97011 0.73457 0.0
C532 C 0.46158 0.97594 0.73789 0.0
C533 C 0.47328 0.97496 0.74192 0.0
C534 C 0.47154 0.96771 0.71897 0.0
C535 C 0.46057 0.97206 0.72646 0.0
C536 C 0.48317 0.96676 0.72298 0.0
C537 C 0.54243 0.95379 0.75637 0.0
C538 C 0.55378 0.93371 0.75176 0.0
C539 C 0.56434 0.94849 0.75894 0.0
C540 C 0.55338 0.95695 0.7594 0.0
C541 C 0.56453 0.93669 0.75546 0.0
C542 C 0.54276 0.94225 0.75216 0.0
C543 C 0.53069 0.96181 0.75991 0.0
O544 O 0.50205 0.99007 0.76336 0.0
O545 O 0.495 0.97351 0.77455 0.0
O546 O 0.52091 0.95634 0.765 0.0
O547 O 0.52797 0.97257 0.75298 0.0
H548 H 0.51657 0.98087 0.7857 0.0
H549 H 0.51819 0.987 0.80609 0.0
H550 H 0.48031 0.00567 0.80784 0.0
H551 H 0.47874 0.99961 0.7877 0.0
H552 H 0.45329 0.97917 0.74396 0.0
H553 H 0.47382 0.97756 0.75094 0.0
H554 H 0.4711 0.96474 0.7101 0.0
H555 H 0.49142 0.963 0.71717 0.0
H556 H 0.55376 0.92459 0.74913 0.0
H557 H 0.57247 0.95089 0.76201 0.0
H558 H 0.55327 0.96572 0.76285 0.0
H559 H 0.53439 0.93958 0.74987 0.0
C560 C 0.39778 0.13522 0.04368 0.0
C561 C 0.39743 0.14781 0.04508 0.0
C562 C 0.39491 0.14244 0.06775 0.0
C563 C 0.39603 0.15139 0.05703 0.0
C564 C 0.39514 0.12988 0.06623 0.0
C565 C 0.39649 0.12634 0.05434 0.0
U566 U 0.39837 0.14069 0.00806 0.0
O567 O 0.4129 0.13426 0.99334 0.0
O568 O 0.39426 0.12854 0.99538 0.0
C569 C 0.40563 0.1278 0.98926 0.0
C570 C 0.40019 0.13092 0.0313 0.0
C571 C 0.41147 0.11565 0.98547 0.0
C572 C 0.42461 0.09565 0.98878 0.0
C573 C 0.41771 0.10627 0.99345 0.0
C574 C 0.41874 0.10354 0.96831 0.0
C575 C 0.42559 0.09439 0.97602 0.0
C576 C 0.41175 0.11401 0.97301 0.0
C577 C 0.38724 0.17509 0.99408 0.0
C578 C 0.39339 0.18727 0.97411 0.0
C579 C 0.37826 0.19677 0.98974 0.0
C580 C 0.37901 0.18547 0.99766 0.0
C581 C 0.38569 0.19783 0.97809 0.0
C582 C 0.39415 0.17589 0.98208 0.0
C583 C 0.38972 0.16449 1.00381 0.0
O584 O 0.39034 0.13073 0.0259 0.0
O585 O 0.40946 0.13525 0.02356 0.0
O586 O 0.40151 0.16027 1.00465 0.0
O587 O 0.38252 0.15566 0.00565 0.0
H588 H 0.39841 0.15483 0.03696 0.0
H589 H 0.39585 0.16114 0.05788 0.0
H590 H 0.39463 0.12269 0.07424 0.0
H591 H 0.39683 0.11658 0.05345 0.0
H592 H 0.42943 0.08858 0.99509 0.0
H593 H 0.41754 0.10733 1.00314 0.0
H594 H 0.41927 0.10295 0.95847 0.0
H595 H 0.407 0.12116 0.96671 0.0
H596 H 0.39935 0.18803 0.96522 0.0
H597 H 0.37247 0.20489 0.99304 0.0
H598 H 0.37372 0.18505 0.00692 0.0
H599 H 0.40063 0.16799 0.97919 0.0
C600 C 0.34814 0.06885 0.34931 0.0
C601 C 0.33695 0.06759 0.35738 0.0
C602 C 0.34318 0.04515 0.36146 0.0
C603 C 0.33446 0.05578 0.36338 0.0
C604 C 0.35455 0.0465 0.3538 0.0
C605 C 0.357 0.05827 0.34775 0.0
U606 U 0.34018 0.10427 0.34101 0.0
O607 O 0.35234 0.11861 0.33286 0.0
O608 O 0.3375 0.1154 0.32286 0.0
C609 C 0.34675 0.12172 0.32281 0.0
C610 C 0.35031 0.08082 0.34159 0.0
C611 C 0.3543 0.12489 0.3106 0.0
C612 C 0.37335 0.12348 0.29565 0.0
C613 C 0.3667 0.11951 0.30734 0.0
C614 C 0.3553 0.13809 0.29053 0.0
C615 C 0.36768 0.13284 0.28708 0.0
C616 C 0.34875 0.1342 0.3021 0.0
C617 C 0.31201 0.11988 0.36252 0.0
C618 C 0.29568 0.13691 0.35754 0.0
C619 C 0.29556 0.12645 0.37876 0.0
C620 C 0.3066 0.11885 0.37505 0.0
C621 C 0.28976 0.1353 0.36996 0.0
C622 C 0.30671 0.12925 0.35383 0.0
C623 C 0.32172 0.10981 0.35858 0.0
O624 O 0.34143 0.08595 0.33488 0.0
O625 O 0.35458 0.08891 0.34693 0.0
O626 O 0.33338 0.11073 0.35935 0.0
O627 O 0.32034 0.10543 0.34847 0.0
H628 H 0.32998 0.07565 0.3587 0.0
H629 H 0.32562 0.05488 0.36925 0.0
H630 H 0.36134 0.03838 0.35217 0.0
H631 H 0.36565 0.05906 0.34153 0.0
H632 H 0.38296 0.11937 0.29344 0.0
H633 H 0.37124 0.11238 0.3138 0.0
H634 H 0.35054 0.14517 0.28417 0.0
H635 H 0.33923 0.13853 0.30443 0.0
H636 H 0.29144 0.1437 0.35058 0.0
H637 H 0.29115 0.1248 0.38832 0.0
H638 H 0.31048 0.11159 0.38186 0.0
H639 H 0.31072 0.13018 0.34409 0.0
C640 C 0.14124 0.39386 0.15934 0.0
C641 C 0.13192 0.39175 0.16952 0.0
C642 C 0.11628 0.39453 0.15531 0.0
C643 C 0.1195 0.39213 0.16752 0.0
C644 C 0.1257 0.39672 0.14525 0.0
C645 C 0.138 0.39642 0.14725 0.0
U646 U 0.17083 0.3917 0.17618 0.0
O647 O 0.189 0.38067 0.17102 0.0
O648 O 0.18728 0.40141 0.16853 0.0
C649 C 0.19447 0.39072 0.16735 0.0
C650 C 0.1545 0.39321 0.16065 0.0
C651 C 0.20794 0.38978 0.16288 0.0
C652 C 0.22497 0.39408 0.14638 0.0
C653 C 0.21229 0.396 0.15118 0.0
C654 C 0.22917 0.38017 0.16518 0.0
C655 C 0.23352 0.38593 0.15322 0.0
C656 C 0.21648 0.382 0.16992 0.0
C657 C 0.16031 0.38899 0.2137 0.0
C658 C 0.16466 0.3795 0.23443 0.0
C659 C 0.14461 0.3918 0.23165 0.0
C660 C 0.14849 0.39424 0.21884 0.0
C661 C 0.15255 0.38417 0.2395 0.0
C662 C 0.16848 0.38179 0.22156 0.0
C663 C 0.16365 0.39023 0.2001 0.0
O664 O 0.15798 0.40304 0.1639 0.0
O665 O 0.16007 0.38257 0.16581 0.0
O666 O 0.16693 0.3803 0.19437 0.0
O667 O 0.16418 0.40107 0.19302 0.0
H668 H 0.13425 0.38981 0.17895 0.0
H669 H 0.11243 0.39067 0.17551 0.0
H670 H 0.12361 0.3985 0.13574 0.0
H671 H 0.14507 0.39804 0.13928 0.0
H672 H 0.22806 0.39886 0.13725 0.0
H673 H 0.20582 0.40204 0.1456 0.0
H674 H 0.2355 0.37384 0.17068 0.0
H675 H 0.21329 0.37715 0.17899 0.0
H676 H 0.17092 0.37359 0.24031 0.0
H677 H 0.13527 0.3956 0.23538 0.0
H678 H 0.14208 0.3998 0.21289 0.0
H679 H 0.17766 0.37769 0.21771 0.0
C680 C 0.67008 0.35978 0.93551 0.0
C681 C 0.67409 0.35026 0.92795 0.0
C682 C 0.65266 0.35041 0.92425 0.0
C683 C 0.66542 0.34558 0.92238 0.0
C684 C 0.64873 0.35958 0.93222 0.0
C685 C 0.65735 0.36423 0.93773 0.0
U686 U 0.70278 0.36212 0.94297 0.0
O687 O 0.71249 0.37856 0.94075 0.0
O688 O 0.70844 0.36795 0.95941 0.0
C689 C 0.71344 0.37744 0.9527 0.0
C690 C 0.67891 0.36572 0.94073 0.0
C691 C 0.71242 0.38904 0.95823 0.0
C692 C 0.70367 0.41061 0.96016 0.0
C693 C 0.70299 0.39914 0.95627 0.0
C694 C 0.72301 0.40185 0.96816 0.0
C695 C 0.71385 0.41218 0.96594 0.0
C696 C 0.72222 0.39042 0.96446 0.0
C697 C 0.72927 0.33602 0.93231 0.0
C698 C 0.75181 0.33547 0.92862 0.0
C699 C 0.74246 0.31803 0.92488 0.0
C700 C 0.73067 0.3241 0.92882 0.0
C701 C 0.75316 0.32375 0.92442 0.0
C702 C 0.7399 0.34163 0.93247 0.0
C703 C 0.71652 0.34261 0.9344 0.0
O704 O 0.68338 0.35952 0.95072 0.0
O705 O 0.68737 0.37092 0.93257 0.0
O706 O 0.71423 0.35345 0.92749 0.0
O707 O 0.711 0.34233 0.94598 0.0
H708 H 0.6839 0.34667 0.92614 0.0
H709 H 0.66871 0.33847 0.91634 0.0
H710 H 0.63894 0.36326 0.93411 0.0
H711 H 0.65407 0.3715 0.9436 0.0
H712 H 0.69641 0.41835 0.95835 0.0
H713 H 0.69537 0.39829 0.9514 0.0
H714 H 0.7312 0.40272 0.97215 0.0
H715 H 0.72968 0.38278 0.96591 0.0
H716 H 0.7599 0.34 0.92862 0.0
H717 H 0.7431 0.30909 0.9216 0.0
H718 H 0.72256 0.31966 0.92859 0.0
H719 H 0.73897 0.35086 0.93518 0.0
C720 C 0.97193 0.39626 0.32737 0.0
C721 C 0.97844 0.38721 0.32007 0.0
C722 C 0.99485 0.38295 0.33347 0.0
C723 C 0.98983 0.38052 0.32317 0.0
C724 C 0.9881 0.39178 0.34084 0.0
C725 C 0.97675 0.39832 0.33783 0.0
U726 U 0.94602 0.41187 0.30674 0.0
O727 O 0.92672 0.42006 0.31332 0.0
O728 O 0.9406 0.43227 0.3033 0.0
C729 C 0.92914 0.43141 0.30879 0.0
C730 C 0.96081 0.4047 0.32394 0.0
C731 C 0.92019 0.44263 0.31105 0.0
C732 C 0.91322 0.46106 0.32147 0.0
C733 C 0.92064 0.44942 0.32076 0.0
C734 C 0.90431 0.45879 0.30325 0.0
C735 C 0.9053 0.46612 0.31243 0.0
C736 C 0.91177 0.44725 0.30251 0.0
C737 C 0.94857 0.39783 0.27463 0.0
C738 C 0.94606 0.40569 0.25303 0.0
C739 C 0.95574 0.38445 0.25848 0.0
C740 C 0.95388 0.3862 0.27102 0.0
C741 C 0.95224 0.39431 0.24936 0.0
C742 C 0.94422 0.40746 0.26563 0.0
C743 C 0.95014 0.40005 0.28715 0.0
O744 O 0.96281 0.41349 0.31452 0.0
O745 O 0.95049 0.39991 0.32412 0.0
O746 O 0.94183 0.39718 0.29683 0.0
O747 O 0.95561 0.40968 0.28794 0.0
H748 H 0.9749 0.38559 0.31186 0.0
H749 H 0.99493 0.37382 0.31728 0.0
H750 H 0.9917 0.39377 0.34886 0.0
H751 H 0.97189 0.40532 0.34352 0.0
H752 H 0.9142 0.46637 0.3287 0.0
H753 H 0.92707 0.44599 0.32748 0.0
H754 H 0.89797 0.46208 0.29643 0.0
H755 H 0.91124 0.44208 0.295 0.0
H756 H 0.94346 0.41345 0.24607 0.0
H757 H 0.96075 0.3757 0.25581 0.0
H758 H 0.95747 0.37872 0.2778 0.0
H759 H 0.94022 0.41654 0.26821 0.0
C760 C 0.88504 0.82527 0.66622 0.0
C761 C 0.89665 0.81791 0.66361 0.0
C762 C 0.90691 0.83197 0.67257 0.0
C763 C 0.90751 0.82122 0.66682 0.0
C764 C 0.89521 0.839 0.67551 0.0
C765 C 0.88442 0.83566 0.67239 0.0
U766 U 0.86802 0.80934 0.64635 0.0
O767 O 0.8491 0.80364 0.64957 0.0
O768 O 0.85428 0.81789 0.63377 0.0
C769 C 0.84572 0.81109 0.63965 0.0
C770 C 0.87363 0.82307 0.66176 0.0
C771 C 0.83239 0.81603 0.639 0.0
C772 C 0.81381 0.83148 0.64198 0.0
C773 C 0.82604 0.82649 0.64443 0.0
C774 C 0.81418 0.8154 0.62909 0.0
C775 C 0.80792 0.82618 0.63394 0.0
C776 C 0.82621 0.81043 0.63157 0.0
C777 C 0.89236 0.78542 0.62777 0.0
C778 C 0.89175 0.77285 0.61152 0.0
C779 C 0.91159 0.7755 0.61711 0.0
C780 C 0.90538 0.78276 0.62612 0.0
C781 C 0.90491 0.77051 0.6096 0.0
C782 C 0.88549 0.7803 0.62055 0.0
C783 C 0.88678 0.79433 0.63647 0.0
O784 O 0.87295 0.82702 0.6499 0.0
O785 O 0.86984 0.8121 0.66548 0.0
O786 O 0.87918 0.79065 0.64645 0.0
O787 O 0.88383 0.80599 0.63167 0.0
H788 H 0.89738 0.80989 0.65876 0.0
H789 H 0.91641 0.8157 0.66431 0.0
H790 H 0.89444 0.84727 0.67999 0.0
H791 H 0.87558 0.84147 0.67446 0.0
H792 H 0.80921 0.83979 0.64587 0.0
H793 H 0.83062 0.831 0.65018 0.0
H794 H 0.80987 0.811 0.623 0.0
H795 H 0.83089 0.80236 0.62729 0.0
H796 H 0.88635 0.76917 0.60584 0.0
H797 H 0.92169 0.77433 0.61565 0.0
H798 H 0.91083 0.78674 0.63153 0.0
H799 H 0.8754 0.78232 0.62167 0.0
C800 C 0.06778 0.34789 0.35054 0.0
C801 C 0.06671 0.3578 0.34073 0.0
C802 C 0.04401 0.35999 0.34552 0.0
C803 C 0.05489 0.36385 0.33828 0.0
C804 C 0.04521 0.35041 0.35561 0.0
C805 C 0.05698 0.34441 0.35806 0.0
U806 U 0.10325 0.34016 0.34225 0.0
O807 O 0.11783 0.33268 0.35432 0.0
O808 O 0.11461 0.32203 0.33998 0.0
C809 C 0.1211 0.32249 0.34896 0.0
C810 C 0.0799 0.34044 0.35259 0.0
C811 C 0.12475 0.31058 0.35673 0.0
C812 C 0.12056 0.29279 0.37249 0.0
C813 C 0.11662 0.30475 0.36633 0.0
C814 C 0.14075 0.29273 0.35975 0.0
C815 C 0.13262 0.28656 0.36903 0.0
C816 C 0.13686 0.30455 0.3537 0.0
C817 C 0.11773 0.36227 0.31362 0.0
C818 C 0.13605 0.35855 0.29824 0.0
C819 C 0.122 0.37797 0.2958 0.0
C820 C 0.11471 0.3741 0.30695 0.0
C821 C 0.13251 0.37009 0.29119 0.0
C822 C 0.12866 0.35462 0.30943 0.0
C823 C 0.1082 0.35768 0.32356 0.0
O824 O 0.08505 0.33369 0.34376 0.0
O825 O 0.08792 0.34605 0.35666 0.0
O826 O 0.10917 0.35868 0.33516 0.0
O827 O 0.10438 0.34724 0.32231 0.0
H828 H 0.07496 0.36061 0.33479 0.0
H829 H 0.05423 0.37124 0.33048 0.0
H830 H 0.03702 0.34744 0.36153 0.0
H831 H 0.05763 0.33683 0.36569 0.0
H832 H 0.11404 0.28823 0.37954 0.0
H833 H 0.1072 0.30925 0.3688 0.0
H834 H 0.15012 0.28828 0.35696 0.0
H835 H 0.14329 0.30889 0.34635 0.0
H836 H 0.14404 0.35228 0.29469 0.0
H837 H 0.11903 0.38681 0.29039 0.0
H838 H 0.10625 0.38006 0.30997 0.0
H839 H 0.13107 0.34539 0.3144 0.0
C840 C 0.41608 0.7098 0.84431 0.0
C841 C 0.42869 0.70848 0.8391 0.0
C842 C 0.4241 0.69627 0.82403 0.0
C843 C 0.43267 0.70175 0.82901 0.0
C844 C 0.41165 0.69711 0.82973 0.0
C845 C 0.4077 0.7038 0.83978 0.0
U846 U 0.4138 0.73086 0.87091 0.0
O847 O 0.40431 0.75007 0.8701 0.0
O848 O 0.39665 0.7354 0.88389 0.0
C849 C 0.39528 0.74721 0.879 0.0
C850 C 0.41084 0.71873 0.85305 0.0
C851 C 0.38264 0.75313 0.87692 0.0
C852 C 0.36756 0.76274 0.86305 0.0
C853 C 0.37884 0.75524 0.86504 0.0
C854 C 0.36348 0.7655 0.88489 0.0
C855 C 0.35994 0.76824 0.87289 0.0
C856 C 0.37476 0.75806 0.88686 0.0
C857 C 0.44742 0.72358 0.88231 0.0
C858 C 0.46416 0.72233 0.89474 0.0
C859 C 0.46877 0.71667 0.87383 0.0
C860 C 0.45607 0.71927 0.87254 0.0
C861 C 0.47297 0.71849 0.88483 0.0
C862 C 0.45151 0.72488 0.89346 0.0
C863 C 0.4344 0.72842 0.88084 0.0
O864 O 0.40839 0.71438 0.86494 0.0
O865 O 0.41504 0.72958 0.85099 0.0
O866 O 0.43223 0.73627 0.87078 0.0
O867 O 0.42565 0.72127 0.88509 0.0
H868 H 0.43527 0.71316 0.84241 0.0
H869 H 0.44228 0.70148 0.82464 0.0
H870 H 0.40487 0.69296 0.82612 0.0
H871 H 0.39791 0.70481 0.84364 0.0
H872 H 0.36505 0.76467 0.85369 0.0
H873 H 0.38481 0.75152 0.85723 0.0
H874 H 0.35765 0.76931 0.89273 0.0
H875 H 0.37755 0.75651 0.8961 0.0
H876 H 0.46705 0.72352 0.90343 0.0
H877 H 0.47537 0.71371 0.86604 0.0
H878 H 0.45307 0.71833 0.86382 0.0
H879 H 0.44494 0.72828 0.90107 0.0
C880 C 0.98779 0.78632 0.49763 0.0
C881 C 0.98528 0.79103 0.50911 0.0
C882 C 0.99611 0.80883 0.4999 0.0
C883 C 0.98941 0.80226 0.51023 0.0
C884 C 0.99837 0.80408 0.48844 0.0
C885 C 0.99433 0.79292 0.48736 0.0
U886 U 0.97032 0.75768 0.50824 0.0
O887 O 0.95844 0.74987 0.49794 0.0
O888 O 0.97577 0.73866 0.50318 0.0
C889 C 0.9661 0.7394 0.49724 0.0
C890 C 0.98354 0.77476 0.4958 0.0
C891 C 0.96829 0.7347 0.48506 0.0
C892 C 0.97685 0.73564 0.46304 0.0
C893 C 0.97608 0.73981 0.47469 0.0
C894 C 0.96242 0.72103 0.47222 0.0
C895 C 0.9698 0.72636 0.46165 0.0
C896 C 0.96167 0.72516 0.48375 0.0
C897 C 0.95328 0.75609 0.54327 0.0
C898 C 0.93311 0.75235 0.55502 0.0
C899 C 0.94923 0.75711 0.56555 0.0
C900 C 0.95732 0.75768 0.55434 0.0
C901 C 0.93691 0.75475 0.56599 0.0
C902 C 0.94121 0.75305 0.54372 0.0
C903 C 0.96101 0.76009 0.53145 0.0
O904 O 0.98849 0.76436 0.502 0.0
O905 O 0.9715 0.77533 0.49568 0.0
O906 O 0.95526 0.76521 0.52186 0.0
O907 O 0.97188 0.75348 0.52841 0.0
H908 H 0.98015 0.78606 0.51714 0.0
H909 H 0.98749 0.80573 0.51916 0.0
H910 H 1.00315 0.80909 0.48021 0.0
H911 H 0.99622 0.78949 0.47841 0.0
H912 H 0.9825 0.74005 0.45505 0.0
H913 H 0.98125 0.74723 0.4755 0.0
H914 H 0.95698 0.7138 0.47152 0.0
H915 H 0.95564 0.72108 0.49164 0.0
H916 H 0.92369 0.75047 0.55507 0.0
H917 H 0.95241 0.75937 0.57368 0.0
H918 H 0.9665 0.76025 0.55418 0.0
H919 H 0.93784 0.75188 0.53527 0.0
C920 C 0.81166 0.24858 0.83137 0.0
C921 C 0.79926 0.25059 0.83715 0.0
C922 C 0.79497 0.2319 0.83009 0.0
C923 C 0.79096 0.24232 0.83648 0.0
C924 C 0.80761 0.22951 0.82511 0.0
C925 C 0.81584 0.23784 0.82565 0.0
U926 U 0.82399 0.27647 0.84071 0.0
O927 O 0.84302 0.28169 0.83617 0.0
O928 O 0.82706 0.2939 0.8282 0.0
C929 C 0.8391 0.29177 0.82877 0.0
C930 C 0.81992 0.25822 0.82969 0.0
C931 C 0.84758 0.30043 0.82208 0.0
C932 C 0.86317 0.30553 0.80438 0.0
C933 C 0.85674 0.29669 0.81241 0.0
C934 C 0.85182 0.32178 0.81609 0.0
C935 C 0.8606 0.31821 0.80601 0.0
C936 C 0.84531 0.31297 0.82401 0.0
C937 C 0.80543 0.28554 0.87329 0.0
C938 C 0.80458 0.30084 0.88733 0.0
C939 C 0.78798 0.28808 0.88967 0.0
C940 C 0.79417 0.28209 0.87974 0.0
C941 C 0.79295 0.29768 0.8935 0.0
C942 C 0.81078 0.29483 0.87719 0.0
C943 C 0.8106 0.27941 0.86228 0.0
O944 O 0.81447 0.26977 0.82753 0.0
O945 O 0.82837 0.2568 0.83727 0.0
O946 O 0.82205 0.27345 0.86131 0.0
O947 O 0.80679 0.28437 0.85159 0.0
H948 H 0.79584 0.25884 0.84165 0.0
H949 H 0.7813 0.24441 0.84047 0.0
H950 H 0.81111 0.22132 0.82054 0.0
H951 H 0.8254 0.23612 0.8212 0.0
H952 H 0.86984 0.30254 0.79666 0.0
H953 H 0.85845 0.28706 0.81066 0.0
H954 H 0.84943 0.33151 0.81742 0.0
H955 H 0.83812 0.31603 0.83132 0.0
H956 H 0.80877 0.30804 0.8902 0.0
H957 H 0.77899 0.28551 0.89403 0.0
H958 H 0.78991 0.27493 0.87684 0.0
H959 H 0.81954 0.29756 0.87231 0.0
C960 C 0.74742 0.45312 0.68034 0.0
C961 C 0.75663 0.45758 0.67099 0.0
C962 C 0.77246 0.4425 0.6802 0.0
C963 C 0.7691 0.45233 0.67097 0.0
C964 C 0.76313 0.43734 0.68886 0.0
C965 C 0.75066 0.44268 0.68895 0.0
U966 U 0.72386 0.47904 0.66815 0.0
O967 O 0.70328 0.48251 0.67108 0.0
O968 O 0.71422 0.49555 0.6764 0.0
C969 C 0.70308 0.49274 0.67605 0.0
C970 C 0.73498 0.46041 0.68221 0.0
C971 C 0.69369 0.49517 0.6869 0.0
C972 C 0.68284 0.48964 0.70775 0.0
C973 C 0.69169 0.48638 0.69758 0.0
C974 C 0.67816 0.51036 0.69658 0.0
C975 C 0.67608 0.50178 0.70742 0.0
C976 C 0.68678 0.50707 0.68647 0.0
C977 C 0.73563 0.49468 0.63493 0.0
C978 C 0.72931 0.51592 0.62578 0.0
C979 C 0.74728 0.50347 0.61575 0.0
C980 C 0.74526 0.49339 0.62497 0.0
C981 C 0.73967 0.515 0.61639 0.0
C982 C 0.72737 0.50584 0.6351 0.0
C983 C 0.7358 0.48503 0.64581 0.0
O984 O 0.73521 0.47217 0.68317 0.0
O985 O 0.72699 0.45887 0.675 0.0
O986 O 0.72704 0.47773 0.64796 0.0
O987 O 0.73818 0.48867 0.65592 0.0
H988 H 0.75429 0.46563 0.66423 0.0
H989 H 0.77621 0.45643 0.66424 0.0
H990 H 0.76558 0.42982 0.69612 0.0
H991 H 0.74366 0.43915 0.69623 0.0
H992 H 0.6813 0.48266 0.7158 0.0
H993 H 0.69694 0.4771 0.69808 0.0
H994 H 0.67333 0.51983 0.69599 0.0
H995 H 0.68823 0.51399 0.67832 0.0
H996 H 0.72314 0.52464 0.6263 0.0
H997 H 0.75534 0.5025 0.60865 0.0
H998 H 0.75174 0.48482 0.62476 0.0
H999 H 0.71988 0.50697 0.64276 0.0
C1000 C 0.78446 0.49821 0.98924 0.0
C1001 C 0.79009 0.50903 0.98485 0.0
C1002 C 0.80726 0.50068 0.99682 0.0
C1003 C 0.8014 0.51029 0.98867 0.0
C1004 C 0.8014 0.49001 1.00128 0.0
C1005 C 0.79012 0.48882 0.99755 0.0
U1006 U 0.75616 0.50814 0.9713 0.0
O1007 O 0.74864 0.4974 0.95964 0.0
O1008 O 0.73708 0.50321 0.97657 0.0
C1009 C 0.73811 0.49678 0.96721 0.0
C1010 C 0.77301 0.49609 0.985 0.0
C1011 C 0.73375 0.48442 0.97001 0.0
C1012 C 0.73767 0.46173 0.97431 0.0
C1013 C 0.74173 0.47342 0.97334 0.0
C1014 C 0.71751 0.47196 0.96916 0.0
C1015 C 0.72557 0.46089 0.97196 0.0
C1016 C 0.72156 0.48359 0.96822 0.0
C1017 C 0.75459 0.54286 0.95354 0.0
C1018 C 0.75207 0.55407 0.93288 0.0
C1019 C 0.75475 0.5653 0.94938 0.0
C1020 C 0.75522 0.5542 0.95765 0.0
C1021 C 0.75356 0.5653 0.93681 0.0
C1022 C 0.75259 0.54291 0.94118 0.0
C1023 C 0.75862 0.53125 0.96158 0.0
O1024 O 0.76254 0.50237 0.98968 0.0
O1025 O 0.77374 0.49562 0.97299 0.0
O1026 O 0.76389 0.5215 0.95612 0.0
O1027 O 0.75187 0.52841 0.97241 0.0
H1028 H 0.78579 0.51642 0.97843 0.0
H1029 H 0.80553 0.51875 0.98528 0.0
H1030 H 0.80568 0.48239 0.00747 0.0
H1031 H 0.78591 0.4804 1.001 0.0
H1032 H 0.74417 0.45337 0.97631 0.0
H1033 H 0.75121 0.47386 0.97473 0.0
H1034 H 0.70813 0.47162 0.96739 0.0
H1035 H 0.71526 0.49196 0.96565 0.0
H1036 H 0.75111 0.55382 0.92324 0.0
H1037 H 0.75619 0.57372 0.95266 0.0
H1038 H 0.75697 0.55435 0.96708 0.0
H1039 H 0.75216 0.53427 0.93774 0.0
C1040 C 0.89062 0.59596 0.32636 0.0
C1041 C 0.88605 0.60842 0.32223 0.0
C1042 C 0.90018 0.61574 0.33378 0.0
C1043 C 0.89081 0.61825 0.32591 0.0
C1044 C 0.90455 0.60324 0.33793 0.0
C1045 C 0.89983 0.59349 0.33425 0.0
U1046 U 0.87168 0.58071 0.30735 0.0
O1047 O 0.87765 0.56421 0.29764 0.0
O1048 O 0.86227 0.56389 0.31318 0.0
C1049 C 0.86942 0.55772 0.30472 0.0
C1050 C 0.88631 0.58526 0.32245 0.0
C1051 C 0.87348 0.54422 0.30814 0.0
C1052 C 0.88666 0.52654 0.31807 0.0
C1053 C 0.88234 0.53945 0.3163 0.0
C1054 C 0.87307 0.52316 0.3039 0.0
C1055 C 0.8823 0.51834 0.31158 0.0
C1056 C 0.86874 0.53592 0.30222 0.0
C1057 C 0.85194 0.60672 0.28534 0.0
C1058 C 0.84226 0.60851 0.26647 0.0
C1059 C 0.84224 0.62686 0.2762 0.0
C1060 C 0.84844 0.61954 0.28554 0.0
C1061 C 0.83922 0.62155 0.2664 0.0
C1062 C 0.84869 0.60114 0.27583 0.0
C1063 C 0.86003 0.60013 0.29454 0.0
O1064 O 0.87453 0.58385 0.32601 0.0
O1065 O 0.89027 0.58322 0.3109 0.0
O1066 O 0.8711 0.59453 0.29047 0.0
O1067 O 0.855 0.59484 0.3054 0.0
H1068 H 0.87896 0.61052 0.31607 0.0
H1069 H 0.88738 0.62777 0.32237 0.0
H1070 H 0.91164 0.60096 0.34408 0.0
H1071 H 0.90346 0.58395 0.33754 0.0
H1072 H 0.89379 0.52305 0.32404 0.0
H1073 H 0.88613 0.54569 0.32098 0.0
H1074 H 0.86943 0.51706 0.29891 0.0
H1075 H 0.86189 0.53938 0.29593 0.0
H1076 H 0.83982 0.60402 0.25925 0.0
H1077 H 0.84026 0.63684 0.27644 0.0
H1078 H 0.85095 0.62404 0.29273 0.0
H1079 H 0.85134 0.59123 0.27549 0.0
C1080 C 0.67624 0.85172 0.6048 0.0
C1081 C 0.66868 0.85805 0.59589 0.0
C1082 C 0.65184 0.84587 0.60537 0.0
C1083 C 0.65652 0.85523 0.59624 0.0
C1084 C 0.65947 0.83978 0.61431 0.0
C1085 C 0.67144 0.8427 0.61404 0.0
U1086 U 0.70752 0.86244 0.58864 0.0
O1087 O 0.72156 0.8707 0.59604 0.0
O1088 O 0.72648 0.85238 0.58938 0.0
C1089 C 0.73026 0.86114 0.5942 0.0
C1090 C 0.68931 0.85371 0.60457 0.0
C1091 C 0.73961 0.85729 0.60301 0.0
C1092 C 0.75 0.84207 0.61827 0.0
C1093 C 0.7396 0.84646 0.61188 0.0
C1094 C 0.76021 0.85948 0.60738 0.0
C1095 C 0.76062 0.84831 0.61572 0.0
C1096 C 0.74986 0.86389 0.60114 0.0
C1097 C 0.70575 0.87713 0.55324 0.0
C1098 C 0.72084 0.87996 0.53456 0.0
C1099 C 0.69872 0.88472 0.53314 0.0
C1100 C 0.69612 0.88157 0.54602 0.0
C1101 C 0.71111 0.88376 0.52717 0.0
C1102 C 0.71818 0.87656 0.54752 0.0
C1103 C 0.70213 0.87173 0.56624 0.0
O1104 O 0.69772 0.8467 0.59782 0.0
O1105 O 0.69159 0.8653 0.60347 0.0
O1106 O 0.70138 0.87865 0.57516 0.0
O1107 O 0.70616 0.85988 0.56947 0.0
H1108 H 0.67219 0.86508 0.58865 0.0
H1109 H 0.65084 0.86038 0.5894 0.0
H1110 H 0.65633 0.83244 0.62139 0.0
H1111 H 0.67712 0.83768 0.62096 0.0
H1112 H 0.75004 0.83344 0.62465 0.0
H1113 H 0.73183 0.84114 0.61347 0.0
H1114 H 0.76815 0.8646 0.60532 0.0
H1115 H 0.75015 0.87221 0.59433 0.0
H1116 H 0.73049 0.8792 0.53028 0.0
H1117 H 0.69095 0.88715 0.52785 0.0
H1118 H 0.68645 0.88193 0.55027 0.0
H1119 H 0.72576 0.87309 0.55295 0.0
C1120 C 0.84253 0.42212 0.70726 0.0
C1121 C 0.84178 0.43261 0.69816 0.0
C1122 C 0.82187 0.42809 0.69427 0.0
C1123 C 0.83155 0.43554 0.69162 0.0
C1124 C 0.8231 0.41713 0.70289 0.0
C1125 C 0.83337 0.41419 0.70939 0.0
U1126 U 0.869 0.41572 0.73016 0.0
O1127 O 0.86362 0.40379 0.74766 0.0
O1128 O 0.8784 0.39623 0.73327 0.0
C1129 C 0.87189 0.3944 0.74441 0.0
C1130 C 0.85227 0.4203 0.71521 0.0
C1131 C 0.87233 0.38217 0.75208 0.0
C1132 C 0.86259 0.364 0.76164 0.0
C1133 C 0.86248 0.37516 0.75344 0.0
C1134 C 0.8825 0.36672 0.76705 0.0
C1135 C 0.87251 0.35974 0.76868 0.0
C1136 C 0.88239 0.37787 0.7588 0.0
C1137 C 0.88374 0.44637 0.72761 0.0
C1138 C 0.89141 0.46497 0.73115 0.0
C1139 C 0.87933 0.46603 0.71422 0.0
C1140 C 0.87825 0.45328 0.71746 0.0
C1141 C 0.88577 0.472 0.72118 0.0
C1142 C 0.89045 0.45227 0.73428 0.0
C1143 C 0.8822 0.43322 0.73206 0.0
O1144 O 0.86381 0.41551 0.71153 0.0
O1145 O 0.84969 0.42251 0.72685 0.0
O1146 O 0.87174 0.43134 0.7393 0.0
O1147 O 0.88571 0.42517 0.72403 0.0
H1148 H 0.84886 0.43877 0.69644 0.0
H1149 H 0.83103 0.44384 0.68479 0.0
H1150 H 0.81579 0.41123 0.70514 0.0
H1151 H 0.8339 0.40603 0.71642 0.0
H1152 H 0.85469 0.35891 0.76277 0.0
H1153 H 0.8546 0.37841 0.74837 0.0
H1154 H 0.89036 0.36361 0.77216 0.0
H1155 H 0.89005 0.38326 0.75785 0.0
H1156 H 0.89643 0.46935 0.73662 0.0
H1157 H 0.87481 0.47132 0.70656 0.0
H1158 H 0.87297 0.44889 0.71225 0.0
H1159 H 0.89473 0.44708 0.74214 0.0
C1160 C 0.87955 0.49391 0.02092 0.0
C1161 C 0.87556 0.50542 0.01403 0.0
C1162 C 0.85604 0.49812 0.01247 0.0
C1163 C 0.86386 0.50751 0.00982 0.0
C1164 C 0.86016 0.48666 0.01933 0.0
C1165 C 0.87179 0.48459 0.0235 0.0
U1166 U 0.90941 0.5042 0.02737 0.0
O1167 O 0.91909 0.49948 0.04394 0.0
O1168 O 0.92875 0.49453 0.02584 0.0
C1169 C 0.92933 0.49419 0.03779 0.0
C1170 C 0.89165 0.49135 0.02569 0.0
C1171 C 0.93596 0.48287 0.04432 0.0
C1172 C 0.93702 0.46193 0.05602 0.0
C1173 C 0.93064 0.47184 0.04862 0.0
C1174 C 0.95415 0.47386 0.05439 0.0
C1175 C 0.94869 0.46304 0.05928 0.0
C1176 C 0.94784 0.48365 0.04705 0.0
C1177 C 0.91137 0.53993 0.01627 0.0
C1178 C 0.91853 0.55685 0.02389 0.0
C1179 C 0.91149 0.56018 1.0036 0.0
C1180 C 0.90935 0.5478 0.0052 0.0
C1181 C 0.91589 0.56493 0.01301 0.0
C1182 C 0.91627 0.54441 0.02553 0.0
C1183 C 0.90638 0.52797 0.0184 0.0
O1184 O 0.90158 0.49212 0.01728 0.0
O1185 O 0.89215 0.49648 0.03563 0.0
O1186 O 0.90225 0.52363 0.02995 0.0
O1187 O 0.91204 0.51927 0.01166 0.0
H1188 H 0.88143 0.51277 0.01201 0.0
H1189 H 0.86085 0.5165 1.00469 0.0
H1190 H 0.85439 0.47922 0.02143 0.0
H1191 H 0.87472 0.47567 0.02879 0.0
H1192 H 0.93262 0.45366 0.05964 0.0
H1193 H 0.92146 0.47105 0.04658 0.0
H1194 H 0.96322 0.47489 0.05652 0.0
H1195 H 0.95213 0.49205 0.04379 0.0
H1196 H 0.9219 0.56028 0.0313 0.0
H1197 H 0.90895 0.5662 0.9953 0.0
H1198 H 0.90538 0.54457 0.99804 0.0
H1199 H 0.91783 0.5385 0.0342 0.0
C1200 C 0.93458 0.67093 0.36013 0.0
C1201 C 0.9255 0.67529 0.35215 0.0
C1202 C 0.92324 0.65385 0.35027 0.0
C1203 C 0.9199 0.66682 0.34724 0.0
C1204 C 0.93256 0.6496 0.35801 0.0
C1205 C 0.93816 0.65805 0.36286 0.0
U1206 U 0.94183 0.70347 0.36292 0.0
O1207 O 0.9398 0.71306 0.37939 0.0
O1208 O 0.95831 0.70942 0.36841 0.0
C1209 C 0.95173 0.71413 0.37813 0.0
C1210 C 0.94003 0.67949 0.36621 0.0
C1211 C 0.95744 0.71271 0.38969 0.0
C1212 C 0.95771 0.70487 0.41171 0.0
C1213 C 0.95409 0.7041 0.40016 0.0
C1214 C 0.9687 0.72228 0.40225 0.0
C1215 C 0.96477 0.71419 0.41291 0.0
C1216 C 0.96504 0.72155 0.39076 0.0
C1217 C 0.92896 0.72941 0.33705 0.0
C1218 C 0.9302 0.75163 0.33146 0.0
C1219 C 0.91626 0.74183 0.32222 0.0
C1220 C 0.92012 0.73041 0.32895 0.0
C1221 C 0.92121 0.75259 0.32335 0.0
C1222 C 0.93406 0.74006 0.33833 0.0
C1223 C 0.9322 0.717 0.34393 0.0
O1224 O 0.94981 0.68422 0.35982 0.0
O1225 O 0.932 0.68771 0.37191 0.0
O1226 O 0.9257 0.71445 0.35494 0.0
O1227 O 0.94403 0.71218 0.34328 0.0
H1228 H 0.92265 0.68522 0.34984 0.0
H1229 H 0.91299 0.67043 0.34105 0.0
H1230 H 0.93534 0.6397 0.36058 0.0
H1231 H 0.94514 0.65449 0.36898 0.0
H1232 H 0.95456 0.69854 0.41982 0.0
H1233 H 0.94819 0.69723 0.39957 0.0
H1234 H 0.97398 0.72964 0.40296 0.0
H1235 H 0.9676 0.72836 0.38283 0.0
H1236 H 0.93429 0.75975 0.33242 0.0
H1237 H 0.90917 0.74225 0.31625 0.0
H1238 H 0.91606 0.7223 0.32789 0.0
H1239 H 0.94093 0.73942 0.34458 0.0
C1240 C 0.58628 0.80929 0.61408 0.0
C1241 C 0.59654 0.80643 0.60507 0.0
C1242 C 0.60588 0.82409 0.60887 0.0
C1243 C 0.60628 0.81377 0.6025 0.0
C1244 C 0.59533 0.82711 0.61752 0.0
C1245 C 0.58566 0.81979 0.62009 0.0
U1246 U 0.56535 0.78374 0.61266 0.0
O1247 O 0.56049 0.7695 0.62841 0.0
O1248 O 0.54569 0.78361 0.62129 0.0
C1249 C 0.54856 0.77394 0.62959 0.0
C1250 C 0.57668 0.80099 0.61849 0.0
C1251 C 0.53953 0.76504 0.63407 0.0
C1252 C 0.5224 0.75946 0.64992 0.0
C1253 C 0.5299 0.76824 0.64354 0.0
C1254 C 0.53356 0.74417 0.63696 0.0
C1255 C 0.52441 0.7472 0.64701 0.0
C1256 C 0.54115 0.75303 0.63057 0.0
C1257 C 0.57485 0.77194 0.57876 0.0
C1258 C 0.57757 0.75515 0.56616 0.0
C1259 C 0.5865 0.7742 0.55805 0.0
C1260 C 0.58147 0.77914 0.56901 0.0
C1261 C 0.58482 0.76208 0.55668 0.0
C1262 C 0.57269 0.76003 0.57723 0.0
C1263 C 0.57147 0.77627 0.59092 0.0
O1264 O 0.56634 0.80357 0.61339 0.0
O1265 O 0.58061 0.78898 0.62063 0.0
O1266 O 0.57693 0.77079 0.60059 0.0
O1267 O 0.56267 0.7857 0.59286 0.0
H1268 H 0.59723 0.7983 0.60039 0.0
H1269 H 0.61438 0.81099 0.59598 0.0
H1270 H 0.59466 0.83501 0.62254 0.0
H1271 H 0.57784 0.82212 0.62712 0.0
H1272 H 0.51526 0.76215 0.65741 0.0
H1273 H 0.52853 0.77744 0.64643 0.0
H1274 H 0.53528 0.7348 0.63449 0.0
H1275 H 0.54858 0.75034 0.62332 0.0
H1276 H 0.5763 0.74572 0.5653 0.0
H1277 H 0.59214 0.77963 0.55082 0.0
H1278 H 0.58328 0.78832 0.57013 0.0
H1279 H 0.56763 0.75437 0.58476 0.0
C1280 C 0.67979 0.75083 0.45393 0.0
C1281 C 0.67153 0.76055 0.45896 0.0
C1282 C 0.67994 0.77562 0.44231 0.0
C1283 C 0.67168 0.77288 0.45323 0.0
C1284 C 0.68749 0.76579 0.4368 0.0
C1285 C 0.68744 0.75347 0.4426 0.0
U1286 U 0.66744 0.72652 0.47924 0.0
O1287 O 0.67077 0.70592 0.48223 0.0
O1288 O 0.67547 0.71665 0.4958 0.0
C1289 C 0.67535 0.70557 0.4927 0.0
C1290 C 0.68157 0.73831 0.46116 0.0
C1291 C 0.68597 0.69603 0.49555 0.0
C1292 C 0.7063 0.6839 0.49045 0.0
C1293 C 0.69653 0.69311 0.48686 0.0
C1294 C 0.69504 0.6807 0.51131 0.0
C1295 C 0.7056 0.67751 0.50273 0.0
C1296 C 0.68534 0.68973 0.50773 0.0
C1297 C 0.63393 0.7371 0.49479 0.0
C1298 C 0.62556 0.73212 0.51653 0.0
C1299 C 0.61358 0.74726 0.5028 0.0
C1300 C 0.62299 0.74527 0.49285 0.0
C1301 C 0.61503 0.74108 0.51482 0.0
C1302 C 0.63497 0.73013 0.50656 0.0
C1303 C 0.6448 0.73785 0.48517 0.0
O1304 O 0.68219 0.73833 0.47303 0.0
O1305 O 0.67466 0.73022 0.4592 0.0
O1306 O 0.64731 0.72932 0.47759 0.0
O1307 O 0.65474 0.74046 0.48898 0.0
H1308 H 0.66547 0.75869 0.46767 0.0
H1309 H 0.66575 0.78032 0.45762 0.0
H1310 H 0.69404 0.76769 0.42845 0.0
H1311 H 0.69385 0.74609 0.43859 0.0
H1312 H 0.71436 0.68175 0.48364 0.0
H1313 H 0.69723 0.69794 0.4774 0.0
H1314 H 0.69435 0.67643 0.52097 0.0
H1315 H 0.67734 0.69193 0.5146 0.0
H1316 H 0.62684 0.72725 0.52574 0.0
H1317 H 0.60566 0.75434 0.50129 0.0
H1318 H 0.62212 0.75079 0.48383 0.0
H1319 H 0.6434 0.72383 0.50823 0.0
C1320 C 0.85234 0.60388 0.67724 0.0
C1321 C 0.85129 0.59285 0.67265 0.0
C1322 C 0.84607 0.60491 0.65295 0.0
C1323 C 0.84813 0.59337 0.66062 0.0
C1324 C 0.84792 0.61577 0.65737 0.0
C1325 C 0.85097 0.61525 0.66937 0.0
U1326 U 0.8613 0.58806 0.70917 0.0
O1327 O 0.8689 0.59533 0.7237 0.0
O1328 O 0.85051 0.58879 0.72787 0.0
C1329 C 0.85916 0.59335 0.7321 0.0
C1330 C 0.85357 0.60401 0.69048 0.0
C1331 C 0.85514 0.60176 0.74178 0.0
C1332 C 0.84522 0.62123 0.74943 0.0
C1333 C 0.84937 0.61416 0.73947 0.0
C1334 C 0.85259 0.60359 0.76392 0.0
C1335 C 0.84661 0.61594 0.76187 0.0
C1336 C 0.85681 0.59667 0.75405 0.0
C1337 C 0.87514 0.55228 0.70676 0.0
C1338 C 0.88304 0.5339 0.72032 0.0
C1339 C 0.87827 0.53185 0.69998 0.0
C1340 C 0.87486 0.5447 0.69771 0.0
C1341 C 0.8824 0.52619 0.7113 0.0
C1342 C 0.87936 0.54688 0.7181 0.0
C1343 C 0.87027 0.56556 0.70388 0.0
O1344 O 0.84617 0.5975 0.69871 0.0
O1345 O 0.86495 0.60285 0.69334 0.0
O1346 O 0.87743 0.57413 0.70385 0.0
O1347 O 0.85837 0.56906 0.70739 0.0
H1348 H 0.85233 0.58393 0.67856 0.0
H1349 H 0.84663 0.58483 0.65764 0.0
H1350 H 0.84661 0.62479 0.65168 0.0
H1351 H 0.85179 0.62386 0.67269 0.0
H1352 H 0.84097 0.6308 0.74737 0.0
H1353 H 0.84801 0.61832 0.73005 0.0
H1354 H 0.85374 0.59906 0.77327 0.0
H1355 H 0.8612 0.58712 0.75607 0.0
H1356 H 0.88619 0.52989 0.72915 0.0
H1357 H 0.87706 0.52633 0.693 0.0
H1358 H 0.87153 0.5487 0.68894 0.0
H1359 H 0.87962 0.55261 0.72523 0.0
C1360 C 0.85381 0.68297 0.9775 0.0
C1361 C 0.86231 0.67562 0.96971 0.0
C1362 C 0.84807 0.67991 0.95396 0.0
C1363 C 0.8595 0.67419 0.95798 0.0
C1364 C 0.83983 0.68754 0.9617 0.0
C1365 C 0.84269 0.68904 0.97331 0.0
U1366 U 0.86793 0.67393 0.00901 0.0
O1367 O 0.87083 0.68677 0.02172 0.0
O1368 O 0.85688 0.67354 0.02767 0.0
C1369 C 0.86224 0.68248 0.0304 0.0
C1370 C 0.85577 0.68423 0.99024 0.0
C1371 C 0.85934 0.68659 0.04282 0.0
C1372 C 0.85013 0.70258 0.05596 0.0
C1373 C 0.85358 0.6988 0.0441 0.0
C1374 C 0.8585 0.68204 0.06532 0.0
C1375 C 0.85248 0.6942 0.06674 0.0
C1376 C 0.86183 0.67826 0.05349 0.0
C1377 C 0.89319 0.64281 0.00604 0.0
C1378 C 0.90761 0.6264 0.0157 0.0
C1379 C 0.89908 0.62332 0.99749 0.0
C1380 C 0.89245 0.63532 0.99704 0.0
C1381 C 0.90639 0.61861 0.00707 0.0
C1382 C 0.9011 0.63848 0.01513 0.0
C1383 C 0.88419 0.65405 0.00729 0.0
O1384 O 0.85164 0.67576 0.99915 0.0
O1385 O 0.86647 0.68735 0.9918 0.0
O1386 O 0.87219 0.65347 0.01029 0.0
O1387 O 0.88752 0.66531 0.00481 0.0
H1388 H 0.871 0.6709 0.97274 0.0
H1389 H 0.86624 0.66854 0.95211 0.0
H1390 H 0.83095 0.69204 0.95898 0.0
H1391 H 0.836 0.69476 0.97918 0.0
H1392 H 0.84571 0.71206 0.05667 0.0
H1393 H 0.85157 0.70535 0.03592 0.0
H1394 H 0.86038 0.67532 0.07341 0.0
H1395 H 0.86627 0.66879 0.0527 0.0
H1396 H 0.91316 0.62295 0.02319 0.0
H1397 H 0.8978 0.61742 0.99086 0.0
H1398 H 0.88623 0.63851 0.99007 0.0
H1399 H 0.90161 0.64413 0.02226 0.0
C1400 C 0.82653 0.81318 0.25173 0.0
C1401 C 0.83681 0.80413 0.24903 0.0
C1402 C 0.82599 0.79704 0.23418 0.0
C1403 C 0.83656 0.79615 0.24028 0.0
C1404 C 0.81583 0.80628 0.23686 0.0
C1405 C 0.81617 0.81431 0.24545 0.0
U1406 U 0.84006 0.82333 0.27811 0.0
O1407 O 0.83771 0.84167 0.28486 0.0
O1408 O 0.83123 0.82538 0.2972 0.0
C1409 C 0.83214 0.83735 0.29588 0.0
C1410 C 0.82585 0.82081 0.26178 0.0
C1411 C 0.82151 0.84539 0.30182 0.0
C1412 C 0.79964 0.84922 0.31061 0.0
C1413 C 0.80911 0.8432 0.30253 0.0
C1414 C 0.81476 0.8602 0.31664 0.0
C1415 C 0.80247 0.85746 0.31807 0.0
C1416 C 0.82416 0.85422 0.30861 0.0
C1417 C 0.87301 0.80708 0.28455 0.0
C1418 C 0.88121 0.79828 0.30387 0.0
C1419 C 0.89485 0.79844 0.28416 0.0
C1420 C 0.88494 0.80451 0.27794 0.0
C1421 C 0.89296 0.79474 0.29713 0.0
C1422 C 0.87133 0.80448 0.29763 0.0
C1423 C 0.86232 0.81027 0.2775 0.0
O1424 O 0.82526 0.81455 0.27307 0.0
O1425 O 0.83339 0.82936 0.25986 0.0
O1426 O 0.86035 0.82171 0.27164 0.0
O1427 O 0.85205 0.80582 0.28288 0.0
H1428 H 0.84488 0.80306 0.25387 0.0
H1429 H 0.84456 0.78918 0.2384 0.0
H1430 H 0.80738 0.80701 0.2327 0.0
H1431 H 0.8081 0.82115 0.24755 0.0
H1432 H 0.7903 0.84679 0.31161 0.0
H1433 H 0.80687 0.83635 0.29741 0.0
H1434 H 0.81721 0.8666 0.32215 0.0
H1435 H 0.83367 0.85599 0.30823 0.0
H1436 H 0.87934 0.7954 0.31382 0.0
H1437 H 0.90381 0.79595 0.27873 0.0
H1438 H 0.88642 0.80644 0.26784 0.0
H1439 H 0.86218 0.8064 0.30295 0.0
C1440 C 0.82409 0.665 0.88661 0.0
C1441 C 0.82018 0.65837 0.89827 0.0
C1442 C 0.83071 0.67099 0.90866 0.0
C1443 C 0.82344 0.66136 0.9092 0.0
C1444 C 0.83395 0.67807 0.89705 0.0
C1445 C 0.8307 0.67506 0.88613 0.0
U1446 U 0.80832 0.6458 0.86912 0.0
O1447 O 0.80231 0.64919 0.85035 0.0
O1448 O 0.8165 0.63328 0.85522 0.0
C1449 C 0.80972 0.63936 0.84673 0.0
C1450 C 0.82227 0.66089 0.87486 0.0
C1451 C 0.81515 0.63957 0.83341 0.0
C1452 C 0.83249 0.6403 0.81641 0.0
C1453 C 0.82734 0.64207 0.82875 0.0
C1454 C 0.81333 0.63368 0.81331 0.0
C1455 C 0.8256 0.63591 0.80856 0.0
C1456 C 0.80818 0.6356 0.82549 0.0
C1457 C 0.78385 0.62764 0.89278 0.0
C1458 C 0.77362 0.60974 0.89191 0.0
C1459 C 0.77174 0.61821 0.91134 0.0
C1460 C 0.77888 0.62742 0.90537 0.0
C1461 C 0.76915 0.6091 0.90478 0.0
C1462 C 0.78101 0.6189 0.88595 0.0
C1463 C 0.79304 0.63621 0.88782 0.0
O1464 O 0.82609 0.64903 0.874 0.0
O1465 O 0.81143 0.66486 0.87088 0.0
O1466 O 0.78966 0.6464 0.88036 0.0
O1467 O 0.80461 0.63115 0.88485 0.0
H1468 H 0.81495 0.65063 0.8989 0.0
H1469 H 0.82049 0.65596 0.91804 0.0
H1470 H 0.83948 0.68558 0.89634 0.0
H1471 H 0.83375 0.68033 0.87724 0.0
H1472 H 0.84197 0.64213 0.81311 0.0
H1473 H 0.83297 0.64503 0.83472 0.0
H1474 H 0.80782 0.62987 0.80785 0.0
H1475 H 0.79884 0.63339 0.82893 0.0
H1476 H 0.77177 0.60289 0.88656 0.0
H1477 H 0.76893 0.61783 0.92131 0.0
H1478 H 0.7811 0.63402 0.91081 0.0
H1479 H 0.78484 0.61891 0.87621 0.0
C1480 C 0.82252 0.74182 0.18661 0.0
C1481 C 0.819 0.73931 0.19956 0.0
C1482 C 0.82255 0.76021 0.20203 0.0
C1483 C 0.81897 0.74846 0.2072 0.0
C1484 C 0.82613 0.76255 0.18906 0.0
C1485 C 0.826 0.7535 0.18146 0.0
U1486 U 0.82375 0.70817 0.17941 0.0
O1487 O 0.81648 0.70184 0.16415 0.0
O1488 O 0.83662 0.69863 0.16525 0.0
C1489 C 0.82768 0.69744 0.15902 0.0
C1490 C 0.82326 0.7324 0.17821 0.0
C1491 C 0.83059 0.69911 0.14525 0.0
C1492 C 0.83051 0.71104 0.12443 0.0
C1493 C 0.82732 0.71032 0.13749 0.0
C1494 C 0.84007 0.68946 0.12689 0.0
C1495 C 0.83702 0.70059 0.11901 0.0
C1496 C 0.83692 0.68876 0.13979 0.0
C1497 C 0.82211 0.68309 0.21013 0.0
C1498 C 0.8218 0.66063 0.21518 0.0
C1499 C 0.82519 0.67255 0.23085 0.0
C1500 C 0.82416 0.68341 0.22234 0.0
C1501 C 0.82414 0.66097 0.22743 0.0
C1502 C 0.82082 0.67165 0.20655 0.0
C1503 C 0.82174 0.69504 0.20171 0.0
O1504 O 0.83361 0.72449 0.17752 0.0
O1505 O 0.81321 0.72712 0.17858 0.0
O1506 O 0.81215 0.69895 0.19557 0.0
O1507 O 0.83238 0.69802 0.19555 0.0
H1508 H 0.81638 0.73029 0.20374 0.0
H1509 H 0.81617 0.74635 0.21715 0.0
H1510 H 0.8294 0.77126 0.18477 0.0
H1511 H 0.8289 0.75555 0.17152 0.0
H1512 H 0.82811 0.71979 0.11861 0.0
H1513 H 0.82241 0.71846 0.14151 0.0
H1514 H 0.84491 0.6812 0.12306 0.0
H1515 H 0.83946 0.68001 0.14556 0.0
H1516 H 0.82073 0.65191 0.21228 0.0
H1517 H 0.82716 0.67321 0.24008 0.0
H1518 H 0.8252 0.69214 0.22529 0.0
H1519 H 0.81917 0.67121 0.19715 0.0
C1520 C 0.71111 0.84293 0.41582 0.0
C1521 C 0.70205 0.84357 0.42637 0.0
C1522 C 0.69668 0.82336 0.42393 0.0
C1523 C 0.69485 0.8338 0.43041 0.0
C1524 C 0.70576 0.82295 0.41336 0.0
C1525 C 0.7128 0.83267 0.40931 0.0
U1526 U 0.73009 0.87128 0.41391 0.0
O1527 O 0.74918 0.87139 0.40425 0.0
O1528 O 0.73389 0.88427 0.3966 0.0
C1529 C 0.7459 0.8801 0.39524 0.0
C1530 C 0.71915 0.85257 0.41101 0.0
C1531 C 0.75225 0.87823 0.38269 0.0
C1532 C 0.75565 0.86822 0.3639 0.0
C1533 C 0.74836 0.87065 0.37525 0.0
C1534 C 0.77051 0.88107 0.36738 0.0
C1535 C 0.76694 0.87323 0.36003 0.0
C1536 C 0.76323 0.88355 0.37857 0.0
C1537 C 0.72404 0.88248 0.44783 0.0
C1538 C 0.7289 0.89008 0.46589 0.0
C1539 C 0.71097 0.87913 0.46781 0.0
C1540 C 0.71364 0.87776 0.45509 0.0
C1541 C 0.71872 0.88516 0.47327 0.0
C1542 C 0.7315 0.88879 0.45327 0.0
C1543 C 0.72794 0.88081 0.4347 0.0
O1544 O 0.71394 0.86427 0.40912 0.0
O1545 O 0.73009 0.85108 0.41492 0.0
O1546 O 0.73619 0.87115 0.43209 0.0
O1547 O 0.72017 0.88469 0.42645 0.0
H1548 H 0.70063 0.85148 0.43149 0.0
H1549 H 0.68795 0.83434 0.43864 0.0
H1550 H 0.70779 0.81489 0.40842 0.0
H1551 H 0.7198 0.83204 0.40116 0.0
H1552 H 0.75278 0.86203 0.35845 0.0
H1553 H 0.73995 0.86636 0.37836 0.0
H1554 H 0.77913 0.88507 0.3646 0.0
H1555 H 0.7664 0.88936 0.38423 0.0
H1556 H 0.73498 0.89471 0.46996 0.0
H1557 H 0.70311 0.87521 0.47345 0.0
H1558 H 0.70779 0.87285 0.45103 0.0
H1559 H 0.73955 0.8925 0.44776 0.0
C1560 C 0.80882 0.6148 0.58745 0.0
C1561 C 0.81055 0.60276 0.59418 0.0
C1562 C 0.8231 0.61006 0.6074 0.0
C1563 C 0.81772 0.60039 0.60409 0.0
C1564 C 0.82159 0.62193 0.60034 0.0
C1565 C 0.81456 0.62424 0.59049 0.0
U1566 U 0.78331 0.61235 0.56657 0.0
O1567 O 0.76915 0.62836 0.56212 0.0
O1568 O 0.78259 0.62095 0.54698 0.0
C1569 C 0.77326 0.62952 0.55013 0.0
C1570 C 0.80058 0.61838 0.57774 0.0
C1571 C 0.76411 0.63448 0.54149 0.0
C1572 C 0.75372 0.65304 0.53011 0.0
C1573 C 0.76269 0.64737 0.53765 0.0
C1574 C 0.74763 0.63285 0.52958 0.0
C1575 C 0.74593 0.64594 0.52603 0.0
C1576 C 0.75658 0.62717 0.53737 0.0
C1577 C 0.77108 0.57868 0.57644 0.0
C1578 C 0.75437 0.56614 0.57826 0.0
C1579 C 0.77242 0.55837 0.58894 0.0
C1580 C 0.77765 0.56918 0.58395 0.0
C1581 C 0.76063 0.55693 0.58635 0.0
C1582 C 0.75956 0.57705 0.57337 0.0
C1583 C 0.77562 0.59074 0.57297 0.0
O1584 O 0.80318 0.61279 0.56768 0.0
O1585 O 0.78858 0.6206 0.58163 0.0
O1586 O 0.77038 0.60048 0.57844 0.0
O1587 O 0.78493 0.59254 0.56399 0.0
H1588 H 0.80613 0.59535 0.59199 0.0
H1589 H 0.81863 0.59118 0.60947 0.0
H1590 H 0.82565 0.62953 0.60263 0.0
H1591 H 0.81332 0.63359 0.58541 0.0
H1592 H 0.75266 0.6631 0.5278 0.0
H1593 H 0.7684 0.65318 0.54076 0.0
H1594 H 0.74209 0.62699 0.52635 0.0
H1595 H 0.75757 0.61716 0.54021 0.0
H1596 H 0.7452 0.56521 0.57631 0.0
H1597 H 0.77728 0.55136 0.59528 0.0
H1598 H 0.78652 0.57039 0.58645 0.0
H1599 H 0.75439 0.58439 0.56761 0.0
C1600 C 0.45296 0.6823 0.74971 0.0
C1601 C 0.45374 0.67148 0.75852 0.0
C1602 C 0.44107 0.6831 0.77441 0.0
C1603 C 0.44771 0.67184 0.77078 0.0
C1604 C 0.43994 0.6937 0.76534 0.0
C1605 C 0.44579 0.69327 0.75313 0.0
U1606 U 0.47893 0.6682 0.72651 0.0
O1607 O 0.4815 0.6702 0.7059 0.0
O1608 O 0.49492 0.67643 0.71567 0.0
C1609 C 0.4915 0.67574 0.70487 0.0
C1610 C 0.46058 0.68286 0.73739 0.0
C1611 C 0.49257 0.68687 0.69545 0.0
C1612 C 0.49173 0.70936 0.68995 0.0
C1613 C 0.48838 0.69899 0.69837 0.0
C1614 C 0.50284 0.69561 0.67537 0.0
C1615 C 0.49945 0.70773 0.67858 0.0
C1616 C 0.49943 0.68529 0.68374 0.0
C1617 C 0.4945 0.63507 0.73992 0.0
C1618 C 0.51244 0.62139 0.73147 0.0
C1619 C 0.50439 0.61803 0.75348 0.0
C1620 C 0.49508 0.62808 0.7517 0.0
C1621 C 0.51325 0.61458 0.74343 0.0
C1622 C 0.50312 0.63164 0.72972 0.0
C1623 C 0.48534 0.64636 0.7392 0.0
O1624 O 0.47239 0.68357 0.73755 0.0
O1625 O 0.45884 0.6751 0.73001 0.0
O1626 O 0.47773 0.64801 0.73075 0.0
O1627 O 0.48936 0.65663 0.74066 0.0
H1628 H 0.45927 0.6629 0.75603 0.0
H1629 H 0.44847 0.66341 0.77742 0.0
H1630 H 0.43501 0.70255 0.76779 0.0
H1631 H 0.44517 0.70172 0.74647 0.0
H1632 H 0.4887 0.71861 0.69255 0.0
H1633 H 0.48302 0.70042 0.70736 0.0
H1634 H 0.50877 0.69403 0.66671 0.0
H1635 H 0.50277 0.67601 0.68132 0.0
H1636 H 0.51919 0.61898 0.72357 0.0
H1637 H 0.50498 0.61337 0.76289 0.0
H1638 H 0.48857 0.63073 0.75969 0.0
H1639 H 0.50284 0.63703 0.72056 0.0
C1640 C 0.97507 0.85905 0.68035 0.0
C1641 C 0.97037 0.86115 0.6689 0.0
C1642 C 0.95225 0.85094 0.67862 0.0
C1643 C 0.95897 0.85722 0.66808 0.0
C1644 C 0.95683 0.84928 0.69011 0.0
C1645 C 0.96811 0.8533 0.69095 0.0
U1646 U 0.0092 0.86988 0.6763 0.0
O1647 O 0.01866 0.87047 0.69258 0.0
O1648 O 0.02434 0.85521 0.68123 0.0
C1649 C 0.02645 0.8603 0.69062 0.0
C1650 C 0.98777 0.86117 0.68146 0.0
C1651 C 0.0397 0.8601 0.69189 0.0
C1652 C 0.05602 0.8542 0.70529 0.0
C1653 C 0.04337 0.85697 0.70383 0.0
C1654 C 0.06158 0.85831 0.68289 0.0
C1655 C 0.06524 0.85442 0.6948 0.0
C1656 C 0.04892 0.86111 0.68143 0.0
C1657 C 0.01114 0.89393 0.64553 0.0
C1658 C 0.01782 0.90676 0.62619 0.0
C1659 C 0.99867 0.89767 0.6286 0.0
C1660 C 1.00046 0.89233 0.64077 0.0
C1661 C 0.00771 0.90435 0.62096 0.0
C1662 C 0.01949 0.9016 0.63839 0.0
C1663 C 0.01497 0.88642 0.65696 0.0
O1664 O 0.99716 0.85654 0.67373 0.0
O1665 O 0.98966 0.87116 0.68577 0.0
O1666 O 0.01727 0.8743 0.65678 0.0
O1667 O 0.00935 0.88956 0.66776 0.0
H1668 H 0.97565 0.86549 0.66059 0.0
H1669 H 0.95564 0.85866 0.6591 0.0
H1670 H 0.95175 0.84475 0.69845 0.0
H1671 H 0.97162 0.85152 0.69986 0.0
H1672 H 0.05856 0.85125 0.71456 0.0
H1673 H 0.03641 0.85605 0.71201 0.0
H1674 H 0.06851 0.8588 0.67466 0.0
H1675 H 0.04633 0.86351 0.67212 0.0
H1676 H 0.02492 0.91186 0.62059 0.0
H1677 H 0.99056 0.896 0.62493 0.0
H1678 H 0.99389 0.88647 0.6462 0.0
H1679 H 0.02779 0.90293 0.64196 0.0
C1680 C 0.60345 0.67718 0.8528 0.0
C1681 C 0.59215 0.6723 0.85387 0.0
C1682 C 0.60339 0.65294 0.84696 0.0
C1683 C 0.59213 0.66024 0.85103 0.0
C1684 C 0.61468 0.65766 0.84659 0.0
C1685 C 0.61469 0.66964 0.84948 0.0
U1686 U 0.58794 0.70872 0.8626 0.0
O1687 O 0.59546 0.72314 0.87011 0.0
O1688 O 0.58805 0.72763 0.85216 0.0
C1689 C 0.59299 0.73171 0.86064 0.0
C1690 C 0.60375 0.69037 0.85402 0.0
C1691 C 0.60124 0.74147 0.85642 0.0
C1692 C 0.6205 0.74927 0.84617 0.0
C1693 C 0.61355 0.73924 0.85042 0.0
C1694 C 0.60292 0.76365 0.85388 0.0
C1695 C 0.61518 0.76168 0.84769 0.0
C1696 C 0.59611 0.75371 0.8582 0.0
C1697 C 0.55285 0.70736 0.87807 0.0
C1698 C 0.53341 0.72152 0.87753 0.0
C1699 C 0.53339 0.7006 0.88875 0.0
C1700 C 0.54631 0.69829 0.88564 0.0
C1701 C 0.52675 0.71209 0.88439 0.0
C1702 C 0.5464 0.71916 0.87435 0.0
C1703 C 0.56572 0.70327 0.87259 0.0
O1704 O 0.59683 0.69861 0.84702 0.0
O1705 O 0.60308 0.69307 0.8654 0.0
O1706 O 0.57482 0.70277 0.87923 0.0
O1707 O 0.56877 0.70683 0.86062 0.0
H1708 H 0.58335 0.67793 0.85654 0.0
H1709 H 0.5833 0.65676 0.85176 0.0
H1710 H 0.62351 0.65232 0.84348 0.0
H1711 H 0.62349 0.67322 0.84863 0.0
H1712 H 0.63003 0.74727 0.84176 0.0
H1713 H 0.61774 0.72984 0.84898 0.0
H1714 H 0.59836 0.77298 0.85513 0.0
H1715 H 0.58663 0.75566 0.86277 0.0
H1716 H 0.52851 0.73042 0.87391 0.0
H1717 H 0.52852 0.6932 0.89411 0.0
H1718 H 0.55112 0.6891 0.88854 0.0
H1719 H 0.55126 0.72626 0.8684 0.0
C1720 C 0.5951 0.32585 0.89189 0.0
C1721 C 0.60739 0.31987 0.88943 0.0
C1722 C 0.61473 0.33383 0.90117 0.0
C1723 C 0.61715 0.32384 0.89406 0.0
C1724 C 0.60236 0.33965 0.90361 0.0
C1725 C 0.59271 0.33577 0.89894 0.0
U1726 U 0.57972 0.30714 0.87276 0.0
O1727 O 0.56319 0.29744 0.87862 0.0
O1728 O 0.56287 0.31324 0.86352 0.0
C1729 C 0.55663 0.30481 0.87062 0.0
C1730 C 0.58442 0.32186 0.88768 0.0
C1731 C 0.5433 0.30859 0.87506 0.0
C1732 C 0.52614 0.32138 0.88616 0.0
C1733 C 0.53898 0.31856 0.88199 0.0
C1734 C 0.52194 0.30441 0.87645 0.0
C1735 C 0.51747 0.31432 0.88341 0.0
C1736 C 0.53466 0.30163 0.87231 0.0
C1737 C 0.6055 0.28562 0.85222 0.0
C1738 C 0.60924 0.26495 0.84563 0.0
C1739 C 0.62538 0.2784 0.84055 0.0
C1740 C 0.61744 0.2877 0.84631 0.0
C1741 C 0.62156 0.26677 0.84051 0.0
C1742 C 0.60127 0.27431 0.85156 0.0
C1743 C 0.59898 0.29462 0.86058 0.0
O1744 O 0.58276 0.3257 0.876 0.0
O1745 O 0.58258 0.31021 0.89139 0.0
O1746 O 0.59351 0.29031 0.87163 0.0
O1747 O 0.5937 0.30563 0.85588 0.0
H1748 H 0.60942 0.31216 0.88401 0.0
H1749 H 0.62657 0.31916 0.89202 0.0
H1750 H 0.60006 0.34709 0.90936 0.0
H1751 H 0.58328 0.34042 0.90103 0.0
H1752 H 0.52299 0.32906 0.89155 0.0
H1753 H 0.54549 0.32406 0.88424 0.0
H1754 H 0.51564 0.29854 0.87446 0.0
H1755 H 0.53779 0.29386 0.86705 0.0
H1756 H 0.60609 0.25603 0.8458 0.0
H1757 H 0.63477 0.2801 0.83661 0.0
H1758 H 0.62093 0.29631 0.84678 0.0
H1759 H 0.59211 0.27247 0.85615 0.0
C1760 C 0.61522 0.58792 0.80902 0.0
C1761 C 0.60269 0.59208 0.81325 0.0
C1762 C 0.60921 0.60761 0.82372 0.0
C1763 C 0.59972 0.6018 0.82064 0.0
C1764 C 0.6217 0.60318 0.81958 0.0
C1765 C 0.62465 0.59345 0.81236 0.0
U1766 U 0.61089 0.56777 0.78421 0.0
O1767 O 0.62519 0.56326 0.76842 0.0
O1768 O 0.61859 0.54808 0.78262 0.0
C1769 C 0.62644 0.55128 0.77265 0.0
C1770 C 0.619 0.5781 0.80089 0.0
C1771 C 0.63216 0.54217 0.76419 0.0
C1772 C 0.65136 0.53098 0.75473 0.0
C1773 C 0.64514 0.53905 0.76303 0.0
C1774 C 0.6316 0.52868 0.74873 0.0
C1775 C 0.64471 0.52562 0.74748 0.0
C1776 C 0.62535 0.53692 0.75704 0.0
C1777 C 0.57733 0.57613 0.77305 0.0
C1778 C 0.56787 0.58034 0.75398 0.0
C1779 C 0.55497 0.58189 0.77395 0.0
C1780 C 0.5655 0.57828 0.77996 0.0
C1781 C 0.55607 0.58327 0.76088 0.0
C1782 C 0.57847 0.57682 0.76003 0.0
C1783 C 0.58808 0.57566 0.77961 0.0
O1784 O 0.61347 0.56802 0.80371 0.0
O1785 O 0.62067 0.58206 0.78888 0.0
O1786 O 0.5978 0.58074 0.77356 0.0
O1787 O 0.59081 0.56593 0.78792 0.0
H1788 H 0.59526 0.58789 0.8108 0.0
H1789 H 0.59001 0.60475 0.82393 0.0
H1790 H 0.62926 0.60747 0.82162 0.0
H1791 H 0.63436 0.59036 0.80917 0.0
H1792 H 0.66145 0.52932 0.7537 0.0
H1793 H 0.65056 0.54313 0.76839 0.0
H1794 H 0.6262 0.52477 0.74323 0.0
H1795 H 0.61531 0.53929 0.75777 0.0
H1796 H 0.56895 0.58135 0.74388 0.0
H1797 H 0.5461 0.58442 0.77953 0.0
H1798 H 0.56447 0.57802 0.79 0.0
H1799 H 0.58757 0.5753 0.75452 0.0
C1800 C 0.04189 0.39849 0.13591 0.0
C1801 C 0.04341 0.39588 0.1486 0.0
C1802 C 0.06591 0.39597 0.14316 0.0
C1803 C 0.05534 0.39464 0.1522 0.0
C1804 C 0.06429 0.39833 0.13049 0.0
C1805 C 0.05242 0.39957 0.12693 0.0
U1806 U 0.0061 0.39946 0.14147 0.0
O1807 O 0.99163 0.41396 0.13456 0.0
O1808 O 0.99349 0.39513 0.12933 0.0
C1809 C 0.98759 0.4066 0.12817 0.0
C1810 C 0.02947 0.40078 0.13173 0.0
C1811 C 0.98415 0.41222 0.1158 0.0
C1812 C 0.98605 0.4279 0.09745 0.0
C1813 C 0.99101 0.42082 0.10781 0.0
C1814 C 0.96777 0.41725 0.10244 0.0
C1815 C 0.9742 0.42645 0.09492 0.0
C1816 C 0.9727 0.41023 0.1128 0.0
C1817 C 0.9917 0.38954 0.17612 0.0
C1818 C 0.97177 0.39619 0.18815 0.0
C1819 C 0.98734 0.38137 0.19803 0.0
C1820 C 0.99523 0.38165 0.18671 0.0
C1821 C 0.97573 0.38892 0.19893 0.0
C1822 C 0.97974 0.39653 0.17676 0.0
C1823 C 1.00148 0.39161 0.16543 0.0
O1824 O 0.02395 0.39091 0.13196 0.0
O1825 O 0.02184 0.41025 0.1358 0.0
O1826 O 1.00252 0.40328 0.16084 0.0
O1827 O 1.00328 0.38408 0.15689 0.0
H1828 H 0.03537 0.39507 0.1557 0.0
H1829 H 0.05623 0.39303 0.16204 0.0
H1830 H 0.07222 0.3993 0.1233 0.0
H1831 H 0.05144 0.40158 0.1171 0.0
H1832 H 0.99117 0.43495 0.09176 0.0
H1833 H 0.99985 0.42255 0.10994 0.0
H1834 H 0.95859 0.41604 0.10075 0.0
H1835 H 0.96722 0.40371 0.11889 0.0
H1836 H 0.96289 0.4022 0.18873 0.0
H1837 H 0.99062 0.37583 0.20628 0.0
H1838 H 0.00445 0.37628 0.18642 0.0
H1839 H 0.97688 0.40275 0.16869 0.0
C1840 C 0.74007 0.186 0.82301 0.0
C1841 C 0.73636 0.19809 0.82624 0.0
C1842 C 0.75807 0.20152 0.82358 0.0
C1843 C 0.74532 0.20577 0.8266 0.0
C1844 C 0.76171 0.18965 0.81986 0.0
C1845 C 0.75277 0.18194 0.81961 0.0
U1846 U 0.70682 0.1784 0.82475 0.0
O1847 O 0.70011 0.16324 0.8177 0.0
O1848 O 0.69726 0.16441 0.83784 0.0
C1849 C 0.69578 0.15822 0.82896 0.0
C1850 C 0.73103 0.17714 0.82408 0.0
C1851 C 0.69732 0.14446 0.8318 0.0
C1852 C 0.70945 0.12368 0.83324 0.0
C1853 C 0.70889 0.13677 0.83044 0.0
C1854 C 0.68702 0.12606 0.83894 0.0
C1855 C 0.69845 0.1182 0.83735 0.0
C1856 C 0.68648 0.13897 0.83613 0.0
C1857 C 0.6823 0.20951 0.82208 0.0
C1858 C 0.65972 0.21465 0.82663 0.0
C1859 C 0.6728 0.23112 0.82173 0.0
C1860 C 0.68334 0.22227 0.8201 0.0
C1861 C 0.66092 0.22744 0.82535 0.0
C1862 C 0.6704 0.20569 0.82508 0.0
C1863 C 0.69405 0.20085 0.82214 0.0
O1864 O 0.72316 0.17652 0.83447 0.0
O1865 O 0.72576 0.17712 0.81412 0.0
O1866 O 0.69803 0.19449 0.81273 0.0
O1867 O 0.69668 0.19479 0.83295 0.0
H1868 H 0.72658 0.20142 0.82886 0.0
H1869 H 0.74232 0.21494 0.82943 0.0
H1870 H 0.7715 0.18615 0.81758 0.0
H1871 H 0.7558 0.17264 0.81712 0.0
H1872 H 0.7184 0.11786 0.83201 0.0
H1873 H 0.71741 0.14084 0.82717 0.0
H1874 H 0.67842 0.12222 0.84246 0.0
H1875 H 0.67748 0.14473 0.83737 0.0
H1876 H 0.65066 0.21157 0.8295 0.0
H1877 H 0.674 0.24089 0.82062 0.0
H1878 H 0.69243 0.2254 0.8178 0.0
H1879 H 0.66942 0.19585 0.82669 0.0
C1880 C 0.01942 0.88127 0.49458 0.0
C1881 C 0.01433 0.87608 0.50652 0.0
C1882 C 0.01165 0.85747 0.49817 0.0
C1883 C 0.01041 0.86424 0.50829 0.0
C1884 C 0.01646 0.8629 0.48624 0.0
C1885 C 0.02033 0.87465 0.48449 0.0
U1886 U 0.02597 0.91113 0.50514 0.0
O1887 O 0.04248 0.92086 0.49999 0.0
O1888 O 0.02423 0.93051 0.49552 0.0
C1889 C 0.03624 0.93105 0.49469 0.0
C1890 C 0.02412 0.8934 0.49228 0.0
C1891 C 0.04241 0.93737 0.48294 0.0
C1892 C 0.05694 0.93729 0.46362 0.0
C1893 C 0.04983 0.93085 0.4737 0.0
C1894 C 0.04888 0.95677 0.47166 0.0
C1895 C 0.05675 0.95031 0.46266 0.0
C1896 C 0.0418 0.95038 0.48164 0.0
C1897 C 0.01491 0.91264 0.54119 0.0
C1898 C 0.02258 0.91624 0.55979 0.0
C1899 C 1.00113 0.91279 0.56085 0.0
C1900 C 1.00308 0.91191 0.54812 0.0
C1901 C 0.01099 0.91442 0.56689 0.0
C1902 C 0.02456 0.9153 0.54699 0.0
C1903 C 0.01723 0.90809 0.52896 0.0
O1904 O 0.01567 0.90329 0.49324 0.0
O1905 O 0.03409 0.89386 0.49737 0.0
O1906 O 0.02879 0.90407 0.52452 0.0
O1907 O 0.01038 0.91374 0.52035 0.0
H1908 H 0.01353 0.8811 0.51444 0.0
H1909 H 0.0067 0.86026 0.51757 0.0
H1910 H 0.01726 0.85802 0.47823 0.0
H1911 H 0.02415 0.87854 0.47522 0.0
H1912 H 0.06302 0.93201 0.45692 0.0
H1913 H 0.0505 0.92079 0.47453 0.0
H1914 H 0.04844 0.96679 0.47115 0.0
H1915 H 0.03617 0.95559 0.48866 0.0
H1916 H 0.03033 0.91746 0.5643 0.0
H1917 H 0.99211 0.91141 0.56614 0.0
H1918 H 0.99553 0.90976 0.54389 0.0
H1919 H 0.03381 0.91584 0.54186 0.0
C1920 C 0.15543 0.09493 0.40385 0.0
C1921 C 0.15128 0.1048 0.39493 0.0
C1922 C 0.15259 0.08281 0.40411 0.0
C1923 C 0.14551 0.0801 0.39546 0.0
H1924 H 0.1606 0.09666 0.41089 0.0
H1925 H 0.15567 0.07559 0.41136 0.0
S1926 S 0.1337 0.10235 0.36935 0.0
N1927 N 0.14062 0.11082 0.37663 0.0
N1928 N 0.13529 0.08812 0.37713 0.0
C1929 C 0.14167 0.08981 0.38626 0.0
C1930 C 0.14456 0.10212 0.38599 0.0
C1931 C 0.20701 0.83668 0.77291 0.0
C1932 C 0.2072 0.82502 0.76898 0.0
C1933 C 0.21444 0.83806 0.78176 0.0
C1934 C 0.22214 0.82778 0.78712 0.0
H1935 H 0.20117 0.84483 0.769 0.0
H1936 H 0.21409 0.84721 0.7845 0.0
S1937 S 0.22577 0.79523 0.7802 0.0
N1938 N 0.21557 0.80301 0.77121 0.0
N1939 N 0.22952 0.80556 0.78791 0.0
C1940 C 0.22232 0.81605 0.78336 0.0
C1941 C 0.21487 0.81468 0.77425 0.0
C1942 C 0.68595 0.93531 0.83716 0.0
C1943 C 0.67689 0.94141 0.84569 0.0
C1944 C 0.684 0.92438 0.83294 0.0
C1945 C 0.67289 0.9192 0.83702 0.0
H1946 H 0.69463 0.93901 0.83368 0.0
H1947 H 0.69115 0.92004 0.82634 0.0
S1948 S 0.64637 0.9311 0.85938 0.0
N1949 N 0.65641 0.94115 0.85806 0.0
N1950 N 0.65293 0.92057 0.85023 0.0
C1951 C 0.66388 0.925 0.84564 0.0
C1952 C 0.66584 0.93608 0.84997 0.0
C1953 C 0.37307 0.32823 0.02768 0.0
C1954 C 0.36841 0.34055 0.02985 0.0
C1955 C 0.37805 0.32545 0.01566 0.0
C1956 C 0.37851 0.33486 0.00528 0.0
H1957 H 0.37274 0.32062 0.0353 0.0
H1958 H 0.38174 0.31586 0.01454 0.0
S1959 S 0.3674 0.36865 0.00589 0.0
N1960 N 0.36488 0.36231 0.0206 0.0
N1961 N 0.37345 0.35699 0.99797 0.0
C1962 C 0.37375 0.34721 0.00731 0.0
C1963 C 0.36889 0.35006 0.01957 0.0
C1964 C 0.40175 0.15682 0.09505 0.0
C1965 C 0.39347 0.15193 0.10514 0.0
C1966 C 0.40199 0.15392 0.08296 0.0
C1967 C 0.39394 0.14605 0.08048 0.0
H1968 H 0.40834 0.16263 0.09658 0.0
H1969 H 0.40879 0.1576 0.07556 0.0
S1970 S 0.36949 0.13209 0.10341 0.0
N1971 N 0.37634 0.13968 0.11165 0.0
N1972 N 0.37675 0.1343 0.089 0.0
C1973 C 0.38533 0.14147 0.09042 0.0
C1974 C 0.3851 0.1444 0.10271 0.0
C1975 C 0.34185 0.01408 0.38225 0.0
C1976 C 0.33397 0.00826 0.37667 0.0
C1977 C 0.34485 0.02603 0.37729 0.0
C1978 C 0.34003 0.03257 0.36663 0.0
H1979 H 0.34556 0.00944 0.39064 0.0
H1980 H 0.35088 0.03022 0.38187 0.0
S1981 S 0.31999 0.02126 0.3479 0.0
N1982 N 0.32214 0.00976 0.3594 0.0
N1983 N 0.32764 0.03231 0.35027 0.0
C1984 C 0.33237 0.02685 0.36085 0.0
C1985 C 0.32936 0.01468 0.36583 0.0
C1986 C 0.33539 0.91962 0.62788 0.0
C1987 C 0.33591 0.90655 0.62918 0.0
C1988 C 0.33956 0.92539 0.63666 0.0
C1989 C 0.34439 0.91833 0.64714 0.0
H1990 H 0.33168 0.92546 0.62 0.0
H1991 H 0.33893 0.93547 0.63527 0.0
S1992 S 0.3486 0.8838 0.65442 0.0
N1993 N 0.34215 0.8867 0.64145 0.0
N1994 N 0.34999 0.89755 0.65802 0.0
C1995 C 0.34501 0.90526 0.64854 0.0
C1996 C 0.34077 0.89938 0.63956 0.0
C1997 C 0.50745 0.01019 0.83565 0.0
C1998 C 0.49803 0.0068 0.84539 0.0
C1999 C 0.50819 0.0065 0.82379 0.0
C2000 C 0.4995 0.99936 0.82132 0.0
H2001 H 0.51399 0.01611 0.83707 0.0
H2002 H 0.51528 0.00963 0.81641 0.0
S2003 S 0.4743 0.98656 0.84402 0.0
N2004 N 0.4808 0.99469 0.85205 0.0
N2005 N 0.48205 0.98803 0.82979 0.0
C2006 C 0.49047 0.99544 0.83111 0.0
C2007 C 0.48977 0.99908 0.84313 0.0
C2008 C 0.09814 0.40435 0.14406 0.0
C2009 C 0.1032 0.39488 0.15286 0.0
C2010 C 0.08612 0.40464 0.14108 0.0
C2011 C 0.07856 0.39548 0.14679 0.0
H2012 H 0.10351 0.41168 0.13944 0.0
H2013 H 0.08267 0.41218 0.13429 0.0
S2014 S 0.0876 0.36824 0.16988 0.0
N2015 N 0.09985 0.37581 0.16687 0.0
N2016 N 0.0772 0.3764 0.16134 0.0
C2017 C 0.08347 0.38595 0.1556 0.0
C2018 C 0.09577 0.38564 0.15861 0.0
C2019 C 0.6429 0.33347 0.91783 0.0
C2020 C 0.64345 0.34625 0.9177 0.0
C2021 C 0.63379 0.32949 0.91224 0.0
C2022 C 0.62492 0.33814 0.90625 0.0
H2023 H 0.64935 0.3265 0.92259 0.0
H2024 H 0.63348 0.31957 0.91292 0.0
S2025 S 0.62345 0.37263 0.90187 0.0
N2026 N 0.63503 0.36749 0.91013 0.0
N2027 N 0.61809 0.36006 0.89953 0.0
C2028 C 0.62572 0.35093 0.90564 0.0
C2029 C 0.63492 0.35496 0.91137 0.0
C2030 C 0.01636 0.38418 0.33775 0.0
C2031 C 0.00736 0.37684 0.33634 0.0
C2032 C 0.02822 0.3787 0.34062 0.0
C2033 C 0.03145 0.36566 0.34238 0.0
H2034 H 0.01425 0.39427 0.33653 0.0
H2035 H 0.03485 0.38471 0.34162 0.0
S2036 S 0.01118 0.34231 0.33992 0.0
N2037 N 1.00243 0.3559 0.33705 0.0
N2038 N 0.0247 0.34555 0.34243 0.0
C2039 C 0.0225 0.35822 0.34105 0.0
C2040 C 0.01048 0.36382 0.33801 0.0
C2041 C 0.93116 0.85359 0.67158 0.0
C2042 C 0.94064 0.84593 0.67756 0.0
C2043 C 0.92027 0.84902 0.67022 0.0
C2044 C 0.91845 0.83655 0.67462 0.0
H2045 H 0.93217 0.86322 0.66795 0.0
H2046 H 0.91329 0.85526 0.66544 0.0
S2047 S 0.94023 0.81273 0.69131 0.0
N2048 N 0.94737 0.82529 0.68818 0.0
N2049 N 0.92688 0.81673 0.68559 0.0
C2050 C 0.92778 0.82881 0.68074 0.0
C2051 C 0.93884 0.8335 0.68224 0.0
C2052 C 0.42439 0.69164 0.79047 0.0
C2053 C 0.436 0.68434 0.78766 0.0
C2054 C 0.42037 0.69496 0.80241 0.0
C2055 C 0.42775 0.69104 0.81208 0.0
H2056 H 0.41855 0.69522 0.78325 0.0
H2057 H 0.41168 0.70116 0.8039 0.0
S2058 S 0.45793 0.67024 0.81025 0.0
N2059 N 0.45428 0.67234 0.79595 0.0
N2060 N 0.44639 0.67822 0.81855 0.0
C2061 C 0.43891 0.68301 0.80969 0.0
C2062 C 0.44309 0.6797 0.79747 0.0
C2063 C 0.99255 0.83041 0.50614 0.0
C2064 C 1.00062 0.82073 0.50079 0.0
C2065 C 0.99629 0.84219 0.50571 0.0
C2066 C 0.00821 0.84467 0.49987 0.0
H2067 H 0.98312 0.82903 0.51025 0.0
H2068 H 0.98966 0.84953 0.50952 0.0
S2069 S 0.03344 0.82197 0.48623 0.0
N2070 N 0.02153 0.81404 0.49081 0.0
N2071 N 0.02846 0.83614 0.48987 0.0
C2072 C 0.01654 0.83489 0.49509 0.0
C2073 C 0.01278 0.82293 0.49558 0.0
C2074 C 0.76768 0.21319 0.83652 0.0
C2075 C 0.7676 0.2092 0.82497 0.0
C2076 C 0.77667 0.22034 0.83816 0.0
C2077 C 0.78585 0.22387 0.82826 0.0
H2078 H 0.7608 0.21065 0.8444 0.0
H2079 H 0.77646 0.22308 0.84727 0.0
S2080 S 0.7891 0.21636 0.79592 0.0
N2081 N 0.7772 0.20944 0.80342 0.0
N2082 N 0.79387 0.22326 0.80629 0.0
C2083 C 0.78577 0.22 0.81661 0.0
C2084 C 0.77671 0.21258 0.81502 0.0
C2085 C 0.79176 0.42701 0.68175 0.0
C2086 C 0.7856 0.4392 0.68227 0.0
C2087 C 0.80383 0.42362 0.68502 0.0
C2088 C 0.80997 0.43227 0.68912 0.0
H2089 H 0.78715 0.42003 0.67902 0.0
H2090 H 0.80825 0.41409 0.68463 0.0
S2091 S 0.79727 0.46521 0.69267 0.0
N2092 N 0.78625 0.45987 0.68724 0.0
N2093 N 0.80869 0.45348 0.69381 0.0
C2094 C 0.80386 0.44454 0.68953 0.0
C2095 C 0.7917 0.44799 0.68604 0.0
C2096 C 0.83317 0.49683 0.01694 0.0
C2097 C 0.8435 0.50012 0.00837 0.0
C2098 C 0.82142 0.49753 0.0132 0.0
C2099 C 0.81951 0.50146 1.0007 0.0
H2100 H 0.8342 0.49357 0.02663 0.0
H2101 H 0.8138 0.4948 0.02016 0.0
S2102 S 0.84354 0.51111 0.97459 0.0
N2103 N 0.85106 0.50762 0.98687 0.0
N2104 N 0.82899 0.50876 0.97974 0.0
C2105 C 0.8297 0.50506 0.99207 0.0
C2106 C 0.84168 0.50442 0.99593 0.0
C2107 C 0.91878 0.62496 0.33704 0.0
C2108 C 0.90574 0.62596 0.33748 0.0
C2109 C 0.92431 0.63409 0.34097 0.0
C2110 C 0.91708 0.64465 0.34554 0.0
H2111 H 0.92479 0.61705 0.33357 0.0
H2112 H 0.93438 0.63286 0.3404 0.0
S2113 S 0.88252 0.65143 0.34924 0.0
N2114 N 0.88572 0.6382 0.34321 0.0
N2115 N 0.89611 0.65535 0.35064 0.0
C2116 C 0.90404 0.6458 0.34601 0.0
C2117 C 0.89839 0.63648 0.34198 0.0
C2118 C 0.63195 0.839 0.61726 0.0
C2119 C 0.63927 0.84198 0.60568 0.0
C2120 C 0.62104 0.83357 0.61812 0.0
C2121 C 0.61684 0.83099 0.60744 0.0
H2122 H 0.63484 0.84057 0.62582 0.0
H2123 H 0.61612 0.83098 0.62732 0.0
S2124 S 0.63146 0.83854 0.57475 0.0
N2125 N 0.64088 0.8428 0.58317 0.0
N2126 N 0.62005 0.83311 0.58482 0.0
C2127 C 0.6236 0.8346 0.59575 0.0
C2128 C 0.63483 0.84003 0.59486 0.0
C2129 C 0.68535 0.79588 0.44588 0.0
C2130 C 0.68203 0.78867 0.43771 0.0
C2131 C 0.68938 0.80748 0.44146 0.0
C2132 C 0.69014 0.81233 0.42873 0.0
H2133 H 0.68552 0.79222 0.45564 0.0
H2134 H 0.6926 0.81233 0.44796 0.0
S2135 S 0.68028 0.79804 0.404 0.0
N2136 N 0.67837 0.78772 0.41665 0.0
N2137 N 0.68551 0.80978 0.40835 0.0
C2138 C 0.68593 0.8056 0.42065 0.0
C2139 C 0.68201 0.7937 0.42513 0.0
C2140 C 0.82538 0.61673 0.62757 0.0
C2141 C 0.8293 0.60833 0.61881 0.0
C2142 C 0.83093 0.61555 0.63843 0.0
C2143 C 0.84075 0.60596 0.64101 0.0
H2144 H 0.81777 0.62421 0.62612 0.0
H2145 H 0.82728 0.6221 0.64498 0.0
S2146 S 0.85527 0.58222 0.62042 0.0
N2147 N 0.84401 0.59049 0.61303 0.0
N2148 N 0.85468 0.58834 0.63338 0.0
C2149 C 0.84494 0.59761 0.63218 0.0
C2150 C 0.83917 0.59878 0.62112 0.0
C2151 C 0.83423 0.68533 0.92329 0.0
C2152 C 0.83545 0.67321 0.92005 0.0
C2153 C 0.83851 0.68746 0.93412 0.0
C2154 C 0.84432 0.67759 0.94206 0.0
H2155 H 0.82974 0.69319 0.91754 0.0
H2156 H 0.83725 0.69693 0.93627 0.0
S2157 S 0.85023 0.64422 0.93741 0.0
N2158 N 0.84337 0.65133 0.92535 0.0
N2159 N 0.85109 0.65525 0.94577 0.0
C2160 C 0.84577 0.66548 0.93877 0.0
C2161 C 0.8414 0.66332 0.92779 0.0
C2162 C 0.82926 0.77513 0.22896 0.0
C2163 C 0.82525 0.78793 0.22564 0.0
C2164 C 0.82824 0.76627 0.22136 0.0
C2165 C 0.8231 0.7698 0.21014 0.0
H2166 H 0.83309 0.77188 0.23761 0.0
H2167 H 0.83165 0.75658 0.22427 0.0
S2168 S 0.81112 0.80213 0.19717 0.0
N2169 N 0.81619 0.80371 0.21014 0.0
N2170 N 0.81364 0.78702 0.19624 0.0
C2171 C 0.81896 0.78257 0.20673 0.0
C2172 C 0.82016 0.79161 0.21439 0.0
C2173 C 0.61376 0.61963 0.83984 0.0
C2174 C 0.60637 0.61859 0.83074 0.0
C2175 C 0.6124 0.63054 0.84542 0.0
C2176 C 0.60353 0.64087 0.84221 0.0
H2177 H 0.62086 0.61203 0.84252 0.0
H2178 H 0.61852 0.63097 0.85215 0.0
S2179 S 0.58164 0.64289 0.81915 0.0
N2180 N 0.58968 0.62882 0.81897 0.0
N2181 N 0.58704 0.64923 0.82953 0.0
C2182 C 0.59576 0.63978 0.83349 0.0
C2183 C 0.59719 0.62869 0.82775 0.0
C2184 C 0.26773 0.14107 0.36575 0.0
C2185 C 0.27684 0.14151 0.37331 0.0
C2186 C 0.25518 0.14558 0.3692 0.0
C2187 C 0.25123 0.15079 0.38032 0.0
H2188 H 0.27023 0.13676 0.35728 0.0
H2189 H 0.24846 0.14478 0.3632 0.0
S2190 S 0.27136 0.15484 0.40311 0.0
N2191 N 0.28108 0.14809 0.39222 0.0
N2192 N 0.25738 0.15663 0.39869 0.0
C2193 C 0.26023 0.15171 0.3878 0.0
C2194 C 0.27305 0.14701 0.38433 0.0
C2195 C 0.2471 0.82165 0.64826 0.0
C2196 C 0.23478 0.8279 0.64905 0.0
C2197 C 0.25634 0.82523 0.63852 0.0
C2198 C 0.25371 0.83524 0.62912 0.0
H2199 H 0.24973 0.81411 0.65543 0.0
H2200 H 0.26571 0.82026 0.63853 0.0
S2201 S 0.22274 0.85423 0.62645 0.0
N2202 N 0.22032 0.84419 0.6392 0.0
N2203 N 0.23763 0.85099 0.62097 0.0
C2204 C 0.24128 0.84117 0.62946 0.0
C2205 C 0.23185 0.83749 0.63938 0.0
C2206 C 0.57423 0.91749 0.76758 0.0
C2207 C 0.57537 0.92707 0.75751 0.0
C2208 C 0.58475 0.90954 0.77125 0.0
C2209 C 0.59681 0.9108 0.76488 0.0
H2210 H 0.56522 0.91656 0.77311 0.0
H2211 H 0.58343 0.90283 0.77957 0.0
S2212 S 0.60435 0.93343 0.73663 0.0
N2213 N 0.58914 0.93687 0.74056 0.0
N2214 N 0.60893 0.92154 0.74694 0.0
C2215 C 0.59791 0.91989 0.75423 0.0
C2216 C 0.58719 0.92813 0.75068 0.0
C2217 C 0.37933 0.21651 0.9628 0.0
C2218 C 0.38722 0.2104 0.97149 0.0
C2219 C 0.38005 0.22903 0.95764 0.0
C2220 C 0.38852 0.23571 0.96124 0.0
H2221 H 0.37245 0.21167 0.96022 0.0
H2222 H 0.37377 0.2336 0.95109 0.0
S2223 S 0.41142 0.22365 0.98322 0.0
N2224 N 0.40395 0.21172 0.98307 0.0
N2225 N 0.40521 0.23521 0.97351 0.0
C2226 C 0.39658 0.22957 0.96969 0.0
C2227 C 0.39593 0.2169 0.9748 0.0
C2228 C 0.21853 0.9697 0.37793 0.0
C2229 C 0.20906 0.96857 0.38821 0.0
C2230 C 0.2309 0.96446 0.37892 0.0
C2231 C 0.2343 0.95776 0.39019 0.0
H2232 H 0.21646 0.97519 0.36919 0.0
H2233 H 0.23796 0.96612 0.37095 0.0
S2234 S 0.21295 0.95087 0.41948 0.0
N2235 N 0.20386 0.95936 0.40976 0.0
N2236 N 0.22709 0.94933 0.41152 0.0
C2237 C 0.22481 0.95571 0.40025 0.0
C2238 C 0.2122 0.96115 0.39928 0.0
C2239 C 0.30579 0.92074 0.77221 0.0
C2240 C 0.31813 0.91688 0.76708 0.0
C2241 C 0.29949 0.91317 0.78191 0.0
C2242 C 0.30522 0.90132 0.78677 0.0
H2243 H 0.30081 0.92953 0.76841 0.0
H2244 H 0.28988 0.91643 0.78531 0.0
S2245 S 0.33766 0.88713 0.77686 0.0
N2246 N 0.33608 0.90076 0.76795 0.0
N2247 N 0.32421 0.88639 0.78596 0.0
C2248 C 0.31778 0.89764 0.78212 0.0
C2249 C 0.32422 0.90543 0.77232 0.0
C2250 C 0.58391 0.02234 0.90831 0.0
C2251 C 0.57753 0.01334 0.91623 0.0
C2252 C 0.59696 0.02084 0.90626 0.0
C2253 C 0.60402 0.01028 0.91205 0.0
H2254 H 0.57878 0.03022 0.90314 0.0
H2255 H 0.60154 0.02767 0.8996 0.0
S2256 S 0.59163 0.98489 0.93476 0.0
N2257 N 0.57906 0.99411 0.93066 0.0
N2258 N 0.60371 0.99131 0.92688 0.0
C2259 C 0.59773 1.00155 0.92048 0.0
C2260 C 0.58444 1.00309 0.92256 0.0
C2261 C 0.38792 0.25965 0.14581 0.0
C2262 C 0.37906 0.25231 0.15269 0.0
C2263 C 0.3844 0.27209 0.14081 0.0
C2264 C 0.37186 0.27773 0.14243 0.0
H2265 H 0.39765 0.2557 0.14413 0.0
H2266 H 0.39155 0.27727 0.13541 0.0
S2267 S 0.34504 0.26255 0.15967 0.0
N2268 N 0.35719 0.25164 0.16092 0.0
N2269 N 0.35061 0.27495 0.15152 0.0
C2270 C 0.36298 0.27059 0.14959 0.0
C2271 C 0.36656 0.25793 0.15469 0.0
C2272 C 0.14911 0.3787 0.27504 0.0
C2273 C 0.13819 0.37303 0.27812 0.0
C2274 C 0.15389 0.38219 0.26247 0.0
C2275 C 0.14777 0.38022 0.25273 0.0
H2276 H 0.15384 0.38059 0.28234 0.0
H2277 H 0.16225 0.38667 0.26037 0.0
S2278 S 0.11933 0.36497 0.25614 0.0
N2279 N 0.12174 0.36513 0.2706 0.0
N2280 N 0.13067 0.37162 0.24708 0.0
C2281 C 0.137 0.37434 0.2558 0.0
C2282 C 0.13221 0.37077 0.26848 0.0
C2283 C 0.76861 0.30474 0.92097 0.0
C2284 C 0.76534 0.31775 0.91847 0.0
C2285 C 0.77835 0.29841 0.91349 0.0
C2286 C 0.7852 0.30481 0.90316 0.0
H2287 H 0.76318 0.29931 0.92839 0.0
H2288 H 0.78009 0.28832 0.91542 0.0
S2289 S 0.78152 0.33909 0.89367 0.0
N2290 N 0.77064 0.33698 0.90578 0.0
N2291 N 0.78892 0.32505 0.89167 0.0
C2292 C 0.78275 0.31792 0.90122 0.0
C2293 C 0.77282 0.32439 0.90888 0.0
C2294 C 0.95265 0.38654 0.22883 0.0
C2295 C 0.95746 0.39358 0.23617 0.0
C2296 C 0.95833 0.38529 0.21653 0.0
C2297 C 0.96905 0.39086 0.21142 0.0
H2298 H 0.94457 0.38192 0.23265 0.0
H2299 H 0.95451 0.37973 0.21111 0.0
S2300 S 0.98542 0.40971 0.22707 0.0
N2301 N 0.97358 0.40591 0.23757 0.0
N2302 N 0.9843 0.40342 0.21463 0.0
C2303 C 0.9739 0.39784 0.21873 0.0
C2304 C 0.96809 0.39922 0.23108 0.0
C2305 C 0.91615 0.76388 0.57642 0.0
C2306 C 0.92778 0.75644 0.57743 0.0
C2307 C 0.90836 0.76766 0.58699 0.0
C2308 C 0.91187 0.76416 0.599 0.0
H2309 H 0.9134 0.7675 0.56733 0.0
H2310 H 0.89992 0.77406 0.58564 0.0
S2311 S 0.94011 0.74263 0.60693 0.0
N2312 N 0.94152 0.7442 0.59156 0.0
N2313 N 0.92685 0.75123 0.61143 0.0
C2314 C 0.92296 0.75586 0.60022 0.0
C2315 C 0.93091 0.75204 0.58946 0.0
C2316 C 0.49414 0.70595 0.8821 0.0
C2317 C 0.48652 0.7167 0.88578 0.0
C2318 C 0.50707 0.7044 0.88209 0.0
C2319 C 0.51292 0.71357 0.88568 0.0
H2320 H 0.49009 0.69874 0.87907 0.0
H2321 H 0.51259 0.69612 0.87886 0.0
S2322 S 0.49713 0.74302 0.89692 0.0
N2323 N 0.48572 0.73643 0.89363 0.0
N2324 N 0.51006 0.73338 0.89374 0.0
C2325 C 0.50539 0.72417 0.88975 0.0
C2326 C 0.49219 0.72575 0.8898 0.0
C2327 C 0.75269 0.53644 0.58819 0.0
C2328 C 0.7542 0.54678 0.59362 0.0
C2329 C 0.74755 0.52628 0.59551 0.0
C2330 C 0.74366 0.52629 0.60841 0.0
H2331 H 0.75582 0.53607 0.57835 0.0
H2332 H 0.7468 0.51829 0.59112 0.0
S2333 S 0.74571 0.55142 0.62676 0.0
N2334 N 0.75133 0.55665 0.61234 0.0
N2335 N 0.74184 0.53758 0.62617 0.0
C2336 C 0.74495 0.53676 0.61379 0.0
C2337 C 0.75019 0.54701 0.60636 0.0
C2338 C 0.76835 0.58604 0.90923 0.0
C2339 C 0.76326 0.59817 0.91174 0.0
C2340 C 0.76458 0.57546 0.91697 0.0
C2341 C 0.75563 0.57656 0.92761 0.0
H2342 H 0.77585 0.58465 0.90164 0.0
H2343 H 0.76926 0.56636 0.91502 0.0
S2344 S 0.73784 0.60602 0.93719 0.0
N2345 N 0.74748 0.61056 0.9247 0.0
N2346 N 0.74071 0.59063 0.93946 0.0
C2347 C 0.7499 0.58857 0.92982 0.0
C2348 C 0.75362 0.59937 0.92184 0.0
C2349 C 0.82099 0.64981 0.24931 0.0
C2350 C 0.82609 0.64949 0.23671 0.0
C2351 C 0.82463 0.64029 0.25871 0.0
C2352 C 0.83358 0.62999 0.25599 0.0
H2353 H 0.81446 0.65776 0.25201 0.0
H2354 H 0.82071 0.64128 0.26828 0.0
S2355 S 0.8486 0.62384 0.22432 0.0
N2356 N 0.83962 0.63735 0.22188 0.0
N2357 N 0.84653 0.61949 0.23954 0.0
C2358 C 0.83804 0.62906 0.24333 0.0
C2359 C 0.83429 0.63879 0.23371 0.0
C2360 C 0.72433 0.87676 0.49438 0.0
C2361 C 0.71691 0.88545 0.48685 0.0
C2362 C 0.72271 0.87661 0.50734 0.0
C2363 C 0.71369 0.88526 0.51325 0.0
H2364 H 0.73126 0.86984 0.49022 0.0
H2365 H 0.72827 0.86933 0.51278 0.0
S2366 S 0.69318 0.91109 0.49717 0.0
N2367 N 0.70103 0.90354 0.48582 0.0
N2368 N 0.69818 0.90367 0.51016 0.0
C2369 C 0.70665 0.89443 0.50563 0.0
C2370 C 0.70822 0.89444 0.49244 0.0
C2371 C 0.88118 0.49311 0.72813 0.0
C2372 C 0.88597 0.48568 0.71865 0.0
C2373 C 0.88054 0.50615 0.72583 0.0
C2374 C 0.88485 0.51227 0.71399 0.0
H2375 H 0.87747 0.48883 0.73729 0.0
H2376 H 0.87613 0.51146 0.73326 0.0
S2377 S 0.90031 0.49666 0.68669 0.0
N2378 N 0.89623 0.4851 0.69742 0.0
N2379 N 0.8957 0.50954 0.69318 0.0
C2380 C 0.89042 0.50479 0.70467 0.0
C2381 C 0.89081 0.49153 0.70697 0.0
C2382 C 0.91021 0.58497 0.02206 0.0
C2383 C 0.91603 0.57859 0.01203 0.0
C2384 C 0.90787 0.59802 0.02058 0.0
C2385 C 0.9112 0.60515 0.00903 0.0
H2386 H 0.90671 0.57985 0.03087 0.0
H2387 H 0.9027 0.60252 0.02833 0.0
S2388 S 0.92874 0.59313 0.98063 0.0
N2389 N 0.92671 0.58048 0.99073 0.0
N2390 N 0.92204 0.60506 0.98793 0.0
C2391 C 0.91782 0.59897 0.99923 0.0
C2392 C 0.92031 0.58568 1.00074 0.0
C2393 C 0.91471 0.76476 0.30365 0.0
C2394 C 0.91649 0.76461 0.31612 0.0
C2395 C 0.90774 0.77491 0.29735 0.0
C2396 C 0.90237 0.78543 0.30317 0.0
H2397 H 0.91819 0.75667 0.29893 0.0
H2398 H 0.90593 0.77412 0.28809 0.0
S2399 S 0.90624 0.79072 0.33483 0.0
N2400 N 0.91357 0.77649 0.33355 0.0
N2401 N 0.90086 0.79586 0.32144 0.0
C2402 C 0.90501 0.78588 0.31522 0.0
C2403 C 0.91203 0.77544 0.32173 0.0
C2404 C 0.61241 0.74955 0.53487 0.0
C2405 C 0.60689 0.74554 0.52576 0.0
C2406 C 0.60512 0.75482 0.54486 0.0
C2407 C 0.59205 0.75617 0.54615 0.0
H2408 H 0.62246 0.74892 0.53411 0.0
H2409 H 0.60974 0.75792 0.55163 0.0
S2410 S 0.573 0.74702 0.52498 0.0
N2411 N 0.58757 0.74322 0.51865 0.0
N2412 N 0.5738 0.75299 0.53773 0.0
C2413 C 0.58636 0.75203 0.53727 0.0
C2414 C 0.59381 0.74679 0.52695 0.0
C2415 C 0.54663 0.59978 0.74535 0.0
C2416 C 0.54524 0.58941 0.75459 0.0
C2417 C 0.53621 0.6074 0.7411 0.0
C2418 C 0.52404 0.60492 0.74591 0.0
H2419 H 0.55576 0.60254 0.74199 0.0
H2420 H 0.53771 0.61577 0.73463 0.0
S2421 S 0.51555 0.57752 0.76844 0.0
N2422 N 0.53091 0.57608 0.76716 0.0
N2423 N 0.51131 0.5903 0.75904 0.0
C2424 C 0.5226 0.59398 0.75437 0.0
C2425 C 0.5332 0.58626 0.75875 0.0
C2426 C 0.01163 0.92126 0.58762 0.0
C2427 C 0.00966 0.91218 0.58068 0.0
C2428 C 0.01058 0.91888 0.60071 0.0
C2429 C 0.00762 0.90732 0.60725 0.0
H2430 H 0.01398 0.93022 0.5829 0.0
H2431 H 0.01218 0.9261 0.60574 0.0
S2432 S 1.00291 0.8801 0.59309 0.0
N2433 N 0.00531 0.89107 0.58112 0.0
N2434 N 0.00367 0.88646 0.60557 0.0
C2435 C 0.00584 0.89816 0.6003 0.0
C2436 C 0.0068 0.90061 0.58707 0.0
C2437 C 0.65172 0.24439 0.83808 0.0
C2438 C 0.6503 0.23692 0.82923 0.0
C2439 C 0.64231 0.25385 0.84169 0.0
C2440 C 0.63103 0.25629 0.8366 0.0
H2441 H 0.66024 0.24291 0.84229 0.0
H2442 H 0.64388 0.2593 0.84858 0.0
S2443 S 0.62279 0.23974 0.81271 0.0
N2444 N 0.63684 0.23272 0.81524 0.0
N2445 N 0.61903 0.25062 0.82205 0.0
C2446 C 0.62939 0.24885 0.82779 0.0
C2447 C 0.63905 0.23914 0.8241 0.0
C2448 C 0.14683 0.25246 0.37003 0.0
C2449 C 0.14591 0.24802 0.38283 0.0
C2450 C 0.14227 0.26483 0.36576 0.0
C2451 C 0.13666 0.27331 0.37411 0.0
H2452 H 0.15108 0.24628 0.36326 0.0
H2453 H 0.14314 0.26777 0.35579 0.0
S2454 S 0.1324 0.26626 0.40864 0.0
N2455 N 0.13914 0.25291 0.40387 0.0
N2456 N 0.1307 0.27633 0.39588 0.0
C2457 C 0.13566 0.26895 0.38698 0.0
C2458 C 0.14027 0.25627 0.39132 0.0
C2459 C 0.08467 0.85429 0.70456 0.0
C2460 C 0.07856 0.84975 0.69618 0.0
C2461 C 0.09739 0.85019 0.70551 0.0
C2462 C 0.10441 0.84133 0.6982 0.0
H2463 H 0.07969 0.86131 0.71014 0.0
H2464 H 0.10185 0.85431 0.71169 0.0
S2465 S 0.0921 0.82497 0.67657 0.0
N2466 N 0.08008 0.8349 0.68158 0.0
N2467 N 0.10376 0.82705 0.68352 0.0
C2468 C 0.09815 0.83623 0.69036 0.0
C2469 C 0.0853 0.84047 0.68931 0.0
C2470 C 0.62047 0.78287 0.84961 0.0
C2471 C 0.62192 0.77277 0.84269 0.0
C2472 C 0.62513 0.79411 0.84457 0.0
C2473 C 0.63159 0.79581 0.83239 0.0
H2474 H 0.61538 0.78222 0.85896 0.0
H2475 H 0.62317 0.80171 0.85014 0.0
S2476 S 0.63947 0.77184 0.81086 0.0
N2477 N 0.63115 0.76503 0.82321 0.0
N2478 N 0.64047 0.78585 0.81405 0.0
C2479 C 0.63382 0.78554 0.82564 0.0
C2480 C 0.62892 0.77412 0.83072 0.0
C2481 C 0.50002 0.31792 0.90097 0.0
C2482 C 0.5039 0.31666 0.8883 0.0
C2483 C 0.48739 0.3183 0.90617 0.0
C2484 C 0.47812 0.31748 0.89889 0.0
H2485 H 0.50686 0.31797 0.90708 0.0
H2486 H 0.485 0.31857 0.91611 0.0
S2487 S 0.48309 0.31642 0.86474 0.0
N2488 N 0.49722 0.31621 0.86828 0.0
N2489 N 0.47356 0.31707 0.87797 0.0
C2490 C 0.48179 0.3171 0.88603 0.0
C2491 C 0.49462 0.31664 0.88077 0.0
C2492 C 0.08119 0.97138 0.44811 0.0
C2493 C 0.08305 0.96988 0.43539 0.0
C2494 C 0.07257 0.96516 0.45673 0.0
C2495 C 0.06545 0.9571 0.45306 0.0
H2496 H 0.08672 0.97711 0.45155 0.0
H2497 H 0.07174 0.96642 0.46644 0.0
S2498 S 0.06573 0.95092 0.42071 0.0
N2499 N 0.07627 0.96045 0.41941 0.0
N2500 N 0.06019 0.94863 0.43569 0.0
C2501 C 0.06696 0.95573 0.44035 0.0
C2502 C 0.0757 0.96215 0.43151 0.0
C2503 C 0.33009 0.783 0.85989 0.0
C2504 C 0.32787 0.7949 0.86374 0.0
C2505 C 0.3403 0.77433 0.86314 0.0
C2506 C 0.34863 0.77721 0.87044 0.0
H2507 H 0.32411 0.78049 0.85398 0.0
H2508 H 0.34176 0.76535 0.85979 0.0
S2509 S 0.34643 0.80686 0.88355 0.0
N2510 N 0.3344 0.80893 0.87574 0.0
N2511 N 0.35369 0.7927 0.8818 0.0
C2512 C 0.34628 0.78896 0.87468 0.0
C2513 C 0.33591 0.7978 0.8713 0.0
C2514 C 0.70538 0.08416 0.85198 0.0
C2515 C 0.6961 0.07863 0.84821 0.0
C2516 C 0.70657 0.09687 0.84798 0.0
C2517 C 0.69854 0.10438 0.84006 0.0
H2518 H 0.71134 0.0788 0.85849 0.0
H2519 H 0.7134 0.10096 0.85156 0.0
S2520 S 0.6741 0.0936 0.82615 0.0
N2521 N 0.67972 0.08115 0.83521 0.0
N2522 N 0.68206 0.10479 0.82749 0.0
C2523 C 0.68982 0.09862 0.83564 0.0
C2524 C 0.68858 0.08582 0.83977 0.0
C2525 C 0.25655 0.38255 0.15481 0.0
C2526 C 0.24681 0.38285 0.14772 0.0
C2527 C 0.26906 0.37887 0.15004 0.0
C2528 C 0.27229 0.37549 0.13797 0.0
H2529 H 0.25447 0.38512 0.16414 0.0
H2530 H 0.27626 0.37868 0.15583 0.0
S2531 S 0.25042 0.37396 0.11592 0.0
N2532 N 0.24135 0.37889 0.1282 0.0
N2533 N 0.26481 0.37221 0.11924 0.0
C2534 C 0.26269 0.37577 0.13081 0.0
C2535 C 0.24998 0.37941 0.13566 0.0
C2536 C 0.37707 0.15426 0.25722 0.0
C2537 C 0.38315 0.14591 0.24896 0.0
C2538 C 0.37273 0.15 0.26968 0.0
C2539 C 0.37424 0.13718 0.27445 0.0
H2540 H 0.37511 0.16413 0.2539 0.0
H2541 H 0.36779 0.1568 0.27554 0.0
S2542 S 0.39111 0.11167 0.25708 0.0
N2543 N 0.3918 0.1244 0.2468 0.0
N2544 N 0.38328 0.11632 0.27008 0.0
C2545 C 0.38099 0.12882 0.26648 0.0
C2546 C 0.38548 0.13319 0.25379 0.0
C2547 C 0.30138 0.89976 0.48701 0.0
C2548 C 0.31179 0.89757 0.47791 0.0
C2549 C 0.30146 0.89427 0.49944 0.0
C2550 C 0.31192 0.88628 0.50337 0.0
H2551 H 0.29323 0.90613 0.48462 0.0
H2552 H 0.29336 0.8967 0.50611 0.0
S2553 S 0.34111 0.87648 0.48292 0.0
N2554 N 0.33256 0.88622 0.47348 0.0
N2555 N 0.33266 0.87572 0.49683 0.0
C2556 C 0.32226 0.88368 0.49427 0.0
C2557 C 0.32221 0.88936 0.48158 0.0
C2558 C 0.43427 0.95914 0.71607 0.0
C2559 C 0.42422 0.96887 0.71689 0.0
C2560 C 0.44598 0.96041 0.71893 0.0
C2561 C 0.44818 0.97143 0.7228 0.0
H2562 H 0.43298 0.95026 0.71366 0.0
H2563 H 0.45328 0.95249 0.7185 0.0
S2564 S 0.42553 1.00026 0.72497 0.0
N2565 N 0.41763 0.99037 0.72073 0.0
N2566 N 0.43963 0.99264 0.72629 0.0
C2567 C 0.43837 0.98139 0.72326 0.0
C2568 C 0.42643 0.98014 0.72026 0.0
C2569 C 0.43953 0.06958 0.9549 0.0
C2570 C 0.45186 0.06646 0.95758 0.0
C2571 C 0.43095 0.07823 0.96122 0.0
C2572 C 0.43439 0.08421 0.97041 0.0
H2573 H 0.43649 0.06533 0.94783 0.0
H2574 H 0.42157 0.08036 0.95878 0.0
S2575 S 0.4658 0.07976 0.98036 0.0
N2576 N 0.46716 0.07024 0.96983 0.0
N2577 N 0.4512 0.08658 0.98149 0.0
C2578 C 0.44669 0.08109 0.97319 0.0
C2579 C 0.45538 0.07223 0.96682 0.0
C2580 C 0.7163 0.44696 0.96095 0.0
C2581 C 0.72169 0.44859 0.97132 0.0
C2582 C 0.71338 0.4353 0.95955 0.0
C2583 C 0.71563 0.42475 0.96849 0.0
H2584 H 0.71476 0.45467 0.9536 0.0
H2585 H 0.70979 0.43447 0.9511 0.0
S2586 S 0.72784 0.42449 0.99827 0.0
N2587 N 0.72806 0.43897 0.99125 0.0
N2588 N 0.72233 0.41709 0.98879 0.0
C2589 C 0.72044 0.4264 0.97921 0.0
C2590 C 0.72353 0.43828 0.98058 0.0
C2591 C 0.89352 0.48419 0.3232 0.0
C2592 C 0.89887 0.4793 0.31208 0.0
C2593 C 0.88825 0.49682 0.32308 0.0
C2594 C 0.88799 0.505 0.31182 0.0
H2595 H 0.89341 0.47823 0.33209 0.0
H2596 H 0.88425 0.50017 0.33183 0.0
S2597 S 0.90128 0.49729 0.28025 0.0
N2598 N 0.90403 0.48406 0.28955 0.0
N2599 N 0.89384 0.5075 0.28938 0.0
C2600 C 0.89324 0.50026 0.30068 0.0
C2601 C 0.89872 0.4875 0.30079 0.0
C2602 C 0.7848 0.8345 0.63785 0.0
C2603 C 0.79588 0.83229 0.62952 0.0
C2604 C 0.77333 0.83951 0.63344 0.0
C2605 C 0.7726 0.8427 0.62056 0.0
H2606 H 0.78496 0.83211 0.6478 0.0
H2607 H 0.76502 0.841 0.64013 0.0
S2608 S 0.79894 0.8389 0.595 0.0
N2609 N 0.80532 0.83385 0.60785 0.0
N2610 N 0.784 0.84317 0.59964 0.0
C2611 C 0.78365 0.84061 0.61223 0.0
C2612 C 0.7952 0.83546 0.61668 0.0
C2613 C 0.95608 0.71928 0.43421 0.0
C2614 C 0.96658 0.71656 0.42542 0.0
C2615 C 0.95729 0.72243 0.44581 0.0
C2616 C 0.96907 0.72292 0.44918 0.0
H2617 H 0.9468 0.71926 0.43198 0.0
H2618 H 0.94887 0.72472 0.45214 0.0
S2619 S 0.99957 0.7156 0.42978 0.0
N2620 N 0.98918 0.71404 0.42094 0.0
N2621 N 0.99153 0.71969 0.44294 0.0
C2622 C 0.97969 0.72 0.44053 0.0
C2623 C 0.97843 0.71688 0.42863 0.0
C2624 C 0.86486 0.32782 0.78381 0.0
C2625 C 0.86585 0.32787 0.79643 0.0
C2626 C 0.86784 0.33783 0.77476 0.0
C2627 C 0.87188 0.34832 0.77798 0.0
H2628 H 0.86112 0.32029 0.78097 0.0
H2629 H 0.86648 0.33758 0.76523 0.0
S2630 S 0.87779 0.35212 0.8095 0.0
N2631 N 0.87256 0.33851 0.81149 0.0
N2632 N 0.87794 0.35753 0.79453 0.0
C2633 C 0.87375 0.34809 0.79043 0.0
C2634 C 0.87073 0.33785 0.79965 0.0
C2635 C 0.65607 0.51399 0.7162 0.0
C2636 C 0.66718 0.50596 0.71828 0.0
C2637 C 0.64853 0.5198 0.7258 0.0
C2638 C 0.65165 0.51773 0.73799 0.0
H2639 H 0.65337 0.51615 0.70693 0.0
H2640 H 0.64051 0.52643 0.7235 0.0
S2641 S 0.67862 0.49609 0.74893 0.0
N2642 N 0.68031 0.49547 0.7338 0.0
N2643 N 0.66571 0.50578 0.75199 0.0
C2644 C 0.6622 0.509 0.74043 0.0
C2645 C 0.67002 0.50323 0.73059 0.0
C2646 C 0.96362 0.43197 0.07551 0.0
C2647 C 0.9678 0.43566 0.0857 0.0
C2648 C 0.95729 0.44079 0.067 0.0
C2649 C 0.95487 0.45353 0.06849 0.0
H2650 H 0.96536 0.42226 0.07406 0.0
H2651 H 0.95444 0.43766 0.05913 0.0
S2652 S 0.96247 0.46751 0.09458 0.0
N2653 N 0.96819 0.45262 0.09733 0.0
N2654 N 0.95621 0.46908 0.08158 0.0
C2655 C 0.95867 0.45717 0.07889 0.0
C2656 C 0.96515 0.44826 0.08743 0.0
C2657 C 0.51173 0.72938 0.64993 0.0
C2658 C 0.51763 0.73746 0.65511 0.0
C2659 C 0.50554 0.72001 0.65756 0.0
C2660 C 0.50504 0.71837 0.67064 0.0
H2661 H 0.51189 0.73033 0.63992 0.0
H2662 H 0.50118 0.71397 0.65317 0.0
S2663 S 0.5199 0.7364 0.6887 0.0
N2664 N 0.52309 0.74277 0.67407 0.0
N2665 N 0.51158 0.7252 0.68831 0.0
C2666 C 0.51097 0.72634 0.67589 0.0
C2667 C 0.51724 0.73585 0.66815 0.0
C2668 C 0.72843 0.67069 0.50408 0.0
C2669 C 0.71605 0.66813 0.50703 0.0
C2670 C 0.73812 0.66303 0.50969 0.0
C2671 C 0.73586 0.65254 0.51862 0.0
H2672 H 0.73058 0.67901 0.49784 0.0
H2673 H 0.74743 0.66561 0.50729 0.0
S2674 S 0.7053 0.64083 0.52825 0.0
N2675 N 0.70233 0.65342 0.51815 0.0
N2676 N 0.72032 0.63951 0.5293 0.0
C2677 C 0.72363 0.64948 0.52108 0.0
C2678 C 0.7138 0.65716 0.51517 0.0
C2679 C 0.84855 0.62126 0.78305 0.0
C2680 C 0.84168 0.62279 0.77291 0.0
C2681 C 0.84353 0.62599 0.79427 0.0
C2682 C 0.83139 0.63259 0.79591 0.0
H2683 H 0.85784 0.61604 0.78245 0.0
H2684 H 0.84904 0.62397 0.80189 0.0
S2685 S 0.81004 0.64075 0.77182 0.0
N2686 N 0.82234 0.6323 0.76507 0.0
N2687 N 0.81318 0.64168 0.78585 0.0
C2688 C 0.82471 0.6349 0.7856 0.0
C2689 C 0.82978 0.62995 0.7742 0.0
C2690 C 0.85702 0.69429 0.0884 0.0
C2691 C 0.84869 0.69781 0.07953 0.0
C2692 C 0.85329 0.69581 0.10096 0.0
C2693 C 0.84105 0.70097 0.10527 0.0
H2694 H 0.86646 0.68999 0.08568 0.0
H2695 H 0.86 0.69261 0.10744 0.0
S2696 S 0.8158 0.71255 0.08575 0.0
N2697 N 0.82777 0.70737 0.07583 0.0
N2698 N 0.82077 0.71027 0.0995 0.0
C2699 C 0.83278 0.70517 0.09642 0.0
C2700 C 0.8366 0.70359 0.08355 0.0
C2701 C 0.78811 0.8647 0.35043 0.0
C2702 C 0.77566 0.8695 0.34902 0.0
C2703 C 0.79666 0.86102 0.34034 0.0
C2704 C 0.79315 0.86203 0.32837 0.0
H2705 H 0.79123 0.86359 0.35949 0.0
H2706 H 0.80605 0.85709 0.34202 0.0
S2707 S 0.76196 0.87514 0.31951 0.0
N2708 N 0.76037 0.87576 0.33465 0.0
N2709 N 0.77654 0.86895 0.31554 0.0
C2710 C 0.78078 0.86706 0.32676 0.0
C2711 C 0.77202 0.87076 0.33711 0.0
loop_
_geom_bond_atom_site_label_1
_geom_bond_atom_site_label_2
_geom_bond_distance
_geom_bond_site_symmetry_2
_ccdc_geom_bond_type
C0 C1 1.264 . S
C0 C5 1.479 . S
C0 C10 1.465 . S
C1 C0 1.264 . S
C1 C3 1.339 . S
C1 H28 0.931 . S
C2 C3 1.395 . S
C2 C4 1.320 . S
C3 C1 1.339 . S
C3 C2 1.395 . S
C3 H29 0.929 . S
C4 C2 1.320 . S
C4 C5 1.405 . S
C4 H30 0.930 . S
C5 C0 1.479 . S
C5 C4 1.405 . S
C5 H31 0.931 . S
U6 O7 2.454 . S
U6 O8 2.458 . S
U6 C9 2.984 . S
U6 C10 2.847 . S
U6 C23 2.882 . S
U6 O24 2.441 . S
U6 O25 2.420 . S
U6 O26 2.455 . S
U6 O27 2.449 . S
O7 U6 2.454 . S
O7 C9 1.353 . S
O8 U6 2.458 . S
O8 C9 1.286 . S
C9 U6 2.984 . S
C9 O7 1.353 . S
C9 O8 1.286 . S
C9 C11 1.363 . S
C10 C0 1.465 . S
C10 U6 2.847 . S
C10 O24 1.249 . S
C10 O25 1.202 . S
C11 C9 1.363 . S
C11 C13 1.408 . S
C11 C16 1.342 . S
C12 C13 1.310 . S
C12 C15 1.461 . S
C12 H32 0.932 . S
C13 C11 1.408 . S
C13 C12 1.310 . S
C13 H33 0.930 . S
C14 C15 1.474 . S
C14 C16 1.285 . S
C14 H34 0.929 . S
C15 C12 1.461 . S
C15 C14 1.474 . S
C16 C11 1.342 . S
C16 C14 1.285 . S
C16 H35 0.930 . S
C17 C20 1.424 . S
C17 C22 1.245 . S
C17 C23 1.428 . S
C18 C21 1.260 . S
C18 C22 1.477 . S
C18 H36 0.932 . S
C19 C20 1.384 . S
C19 C21 1.479 . S
C19 H37 0.929 . S
C20 C17 1.424 . S
C20 C19 1.384 . S
C20 H38 0.928 . S
C21 C18 1.260 . S
C21 C19 1.479 . S
C22 C17 1.245 . S
C22 C18 1.477 . S
C22 H39 0.932 . S
C23 U6 2.882 . S
C23 C17 1.428 . S
C23 O26 1.301 . S
C23 O27 1.282 . S
O24 U6 2.441 . S
O24 C10 1.249 . S
O25 U6 2.420 . S
O25 C10 1.202 . S
O26 U6 2.455 . S
O26 C23 1.301 . S
O27 U6 2.449 . S
O27 C23 1.282 . S
H28 C1 0.931 . S
H29 C3 0.929 . S
H30 C4 0.930 . S
H31 C5 0.931 . S
H32 C12 0.932 . S
H33 C13 0.930 . S
H34 C14 0.929 . S
H35 C16 0.930 . S
H36 C18 0.932 . S
H37 C19 0.929 . S
H38 C20 0.928 . S
H39 C22 0.932 . S
C40 C41 1.264 . S
C40 C45 1.479 . S
C40 C50 1.465 . S
C41 C40 1.264 . S
C41 C43 1.339 . S
C41 H68 0.931 . S
C42 C43 1.395 . S
C42 C44 1.320 . S
C43 C41 1.339 . S
C43 C42 1.395 . S
C43 H69 0.929 . S
C44 C42 1.320 . S
C44 C45 1.405 . S
C44 H70 0.930 . S
C45 C40 1.479 . S
C45 C44 1.405 . S
C45 H71 0.931 . S
U46 O47 2.454 . S
U46 O48 2.458 . S
U46 C49 2.984 . S
U46 C50 2.847 . S
U46 C63 2.882 . S
U46 O64 2.441 . S
U46 O65 2.420 . S
U46 O66 2.455 . S
U46 O67 2.449 . S
O47 U46 2.454 . S
O47 C49 1.353 . S
O48 U46 2.458 . S
O48 C49 1.286 . S
C49 U46 2.984 . S
C49 O47 1.353 . S
C49 O48 1.286 . S
C49 C51 1.363 . S
C50 C40 1.465 . S
C50 U46 2.847 . S
C50 O64 1.249 . S
C50 O65 1.202 . S
C51 C49 1.363 . S
C51 C53 1.408 . S
C51 C56 1.342 . S
C52 C53 1.310 . S
C52 C55 1.461 . S
C52 H72 0.932 . S
C53 C51 1.408 . S
C53 C52 1.310 . S
C53 H73 0.930 . S
C54 C55 1.474 . S
C54 C56 1.285 . S
C54 H74 0.929 . S
C55 C52 1.461 . S
C55 C54 1.474 . S
C56 C51 1.342 . S
C56 C54 1.285 . S
C56 H75 0.930 . S
C57 C60 1.424 . S
C57 C62 1.245 . S
C57 C63 1.428 . S
C58 C61 1.260 . S
C58 C62 1.477 . S
C58 H76 0.932 . S
C59 C60 1.384 . S
C59 C61 1.479 . S
C59 H77 0.929 . S
C60 C57 1.424 . S
C60 C59 1.384 . S
C60 H78 0.928 . S
C61 C58 1.260 . S
C61 C59 1.479 . S
C62 C57 1.245 . S
C62 C58 1.477 . S
C62 H79 0.932 . S
C63 U46 2.882 . S
C63 C57 1.428 . S
C63 O66 1.301 . S
C63 O67 1.282 . S
O64 U46 2.441 . S
O64 C50 1.249 . S
O65 U46 2.420 . S
O65 C50 1.202 . S
O66 U46 2.455 . S
O66 C63 1.301 . S
O67 U46 2.449 . S
O67 C63 1.282 . S
H68 C41 0.931 . S
H69 C43 0.929 . S
H70 C44 0.930 . S
H71 C45 0.931 . S
H72 C52 0.932 . S
H73 C53 0.930 . S
H74 C54 0.929 . S
H75 C56 0.930 . S
H76 C58 0.932 . S
H77 C59 0.929 . S
H78 C60 0.928 . S
H79 C62 0.932 . S
C80 C81 1.264 . S
C80 C85 1.479 . S
C80 C90 1.465 . S
C81 C80 1.264 . S
C81 C83 1.339 . S
C81 H108 0.931 . S
C82 C83 1.395 . S
C82 C84 1.320 . S
C83 C81 1.339 . S
C83 C82 1.395 . S
C83 H109 0.929 . S
C84 C82 1.320 . S
C84 C85 1.405 . S
C84 H110 0.930 . S
C85 C80 1.479 . S
C85 C84 1.405 . S
C85 H111 0.931 . S
U86 O87 2.454 . S
U86 O88 2.458 . S
U86 C89 2.984 . S
U86 C90 2.847 . S
U86 C103 2.882 . S
U86 O104 2.441 . S
U86 O105 2.420 . S
U86 O106 2.455 . S
U86 O107 2.449 . S
O87 U86 2.454 . S
O87 C89 1.353 . S
O88 U86 2.458 . S
O88 C89 1.286 . S
C89 U86 2.984 . S
C89 O87 1.353 . S
C89 O88 1.286 . S
C89 C91 1.363 . S
C90 C80 1.465 . S
C90 U86 2.847 . S
C90 O104 1.249 . S
C90 O105 1.202 . S
C91 C89 1.363 . S
C91 C93 1.408 . S
C91 C96 1.342 . S
C92 C93 1.310 . S
C92 C95 1.461 . S
C92 H112 0.932 . S
C93 C91 1.408 . S
C93 C92 1.310 . S
C93 H113 0.930 . S
C94 C95 1.474 . S
C94 C96 1.285 . S
C94 H114 0.929 . S
C95 C92 1.461 . S
C95 C94 1.474 . S
C96 C91 1.342 . S
C96 C94 1.285 . S
C96 H115 0.930 . S
C97 C100 1.424 . S
C97 C102 1.245 . S
C97 C103 1.428 . S
C98 C101 1.260 . S
C98 C102 1.477 . S
C98 H116 0.932 . S
C99 C100 1.384 . S
C99 C101 1.479 . S
C99 H117 0.929 . S
C100 C97 1.424 . S
C100 C99 1.384 . S
C100 H118 0.928 . S
C101 C98 1.260 . S
C101 C99 1.479 . S
C102 C97 1.245 . S
C102 C98 1.477 . S
C102 H119 0.932 . S
C103 U86 2.882 . S
C103 C97 1.428 . S
C103 O106 1.301 . S
C103 O107 1.282 . S
O104 U86 2.441 . S
O104 C90 1.249 . S
O105 U86 2.420 . S
O105 C90 1.202 . S
O106 U86 2.455 . S
O106 C103 1.301 . S
O107 U86 2.449 . S
O107 C103 1.282 . S
H108 C81 0.931 . S
H109 C83 0.929 . S
H110 C84 0.930 . S
H111 C85 0.931 . S
H112 C92 0.932 . S
H113 C93 0.930 . S
H114 C94 0.929 . S
H115 C96 0.930 . S
H116 C98 0.932 . S
H117 C99 0.929 . S
H118 C100 0.928 . S
H119 C102 0.932 . S
C120 C121 1.264 . S
C120 C125 1.479 . S
C120 C130 1.465 . S
C121 C120 1.264 . S
C121 C123 1.339 . S
C121 H148 0.931 . S
C122 C123 1.395 . S
C122 C124 1.320 . S
C123 C121 1.339 . S
C123 C122 1.395 . S
C123 H149 0.929 . S
C124 C122 1.320 . S
C124 C125 1.405 . S
C124 H150 0.930 . S
C125 C120 1.479 . S
C125 C124 1.405 . S
C125 H151 0.931 . S
U126 O127 2.454 . S
U126 O128 2.458 . S
U126 C129 2.984 . S
U126 C130 2.847 . S
U126 C143 2.882 . S
U126 O144 2.441 . S
U126 O145 2.420 . S
U126 O146 2.455 . S
U126 O147 2.449 . S
O127 U126 2.454 . S
O127 C129 1.353 . S
O128 U126 2.458 . S
O128 C129 1.286 . S
C129 U126 2.984 . S
C129 O127 1.353 . S
C129 O128 1.286 . S
C129 C131 1.363 . S
C130 C120 1.465 . S
C130 U126 2.847 . S
C130 O144 1.249 . S
C130 O145 1.202 . S
C131 C129 1.363 . S
C131 C133 1.408 . S
C131 C136 1.342 . S
C132 C133 1.310 . S
C132 C135 1.461 . S
C132 H152 0.932 . S
C133 C131 1.408 . S
C133 C132 1.310 . S
C133 H153 0.930 . S
C134 C135 1.474 . S
C134 C136 1.285 . S
C134 H154 0.929 . S
C135 C132 1.461 . S
C135 C134 1.474 . S
C136 C131 1.342 . S
C136 C134 1.285 . S
C136 H155 0.930 . S
C137 C140 1.424 . S
C137 C142 1.245 . S
C137 C143 1.428 . S
C138 C141 1.260 . S
C138 C142 1.477 . S
C138 H156 0.932 . S
C139 C140 1.384 . S
C139 C141 1.479 . S
C139 H157 0.929 . S
C140 C137 1.424 . S
C140 C139 1.384 . S
C140 H158 0.928 . S
C141 C138 1.260 . S
C141 C139 1.479 . S
C142 C137 1.245 . S
C142 C138 1.477 . S
C142 H159 0.932 . S
C143 U126 2.882 . S
C143 C137 1.428 . S
C143 O146 1.301 . S
C143 O147 1.282 . S
O144 U126 2.441 . S
O144 C130 1.249 . S
O145 U126 2.420 . S
O145 C130 1.202 . S
O146 U126 2.455 . S
O146 C143 1.301 . S
O147 U126 2.449 . S
O147 C143 1.282 . S
H148 C121 0.931 . S
H149 C123 0.929 . S
H150 C124 0.930 . S
H151 C125 0.931 . S
H152 C132 0.932 . S
H153 C133 0.930 . S
H154 C134 0.929 . S
H155 C136 0.930 . S
H156 C138 0.932 . S
H157 C139 0.929 . S
H158 C140 0.928 . S
H159 C142 0.932 . S
C160 C161 1.264 . S
C160 C165 1.479 . S
C160 C170 1.465 . S
C161 C160 1.264 . S
C161 C163 1.339 . S
C161 H188 0.931 . S
C162 C163 1.395 . S
C162 C164 1.320 . S
C163 C161 1.339 . S
C163 C162 1.395 . S
C163 H189 0.929 . S
C164 C162 1.320 . S
C164 C165 1.405 . S
C164 H190 0.930 . S
C165 C160 1.479 . S
C165 C164 1.405 . S
C165 H191 0.931 . S
U166 O167 2.445 1_545 S
U166 O168 2.403 1_545 S
U166 C169 2.948 1_545 S
U166 C170 2.909 . S
U166 C183 2.855 1_545 S
U166 O184 2.495 . S
U166 O185 2.480 . S
U166 O186 2.406 1_545 S
U166 O187 2.450 1_545 S
O167 U166 2.445 1_565 S
O167 C169 1.346 . S
O168 U166 2.403 1_565 S
O168 C169 1.286 . S
C169 U166 2.948 1_565 S
C169 O167 1.346 . S
C169 O168 1.286 . S
C169 C171 1.363 . S
C170 C160 1.465 . S
C170 U166 2.909 . S
C170 O184 1.249 . S
C170 O185 1.202 . S
C171 C169 1.363 . S
C171 C173 1.408 . S
C171 C176 1.342 . S
C172 C173 1.310 . S
C172 C175 1.461 . S
C172 H192 0.932 . S
C173 C171 1.408 . S
C173 C172 1.310 . S
C173 H193 0.930 . S
C174 C175 1.474 . S
C174 C176 1.285 . S
C174 H194 0.929 . S
C175 C172 1.461 . S
C175 C174 1.474 . S
C176 C171 1.342 . S
C176 C174 1.285 . S
C176 H195 0.930 . S
C177 C180 1.424 . S
C177 C182 1.245 . S
C177 C183 1.428 . S
C178 C181 1.260 . S
C178 C182 1.477 . S
C178 H196 0.932 . S
C179 C180 1.384 . S
C179 C181 1.479 . S
C179 H197 0.929 . S
C180 C177 1.424 . S
C180 C179 1.384 . S
C180 H198 0.928 . S
C181 C178 1.260 . S
C181 C179 1.479 . S
C182 C177 1.245 . S
C182 C178 1.477 . S
C182 H199 0.932 . S
C183 U166 2.855 1_565 S
C183 C177 1.428 . S
C183 O186 1.301 . S
C183 O187 1.282 . S
O184 U166 2.495 . S
O184 C170 1.249 . S
O185 U166 2.480 . S
O185 C170 1.202 . S
O186 U166 2.406 1_565 S
O186 C183 1.301 . S
O187 U166 2.450 1_565 S
O187 C183 1.282 . S
H188 C161 0.931 . S
H189 C163 0.929 . S
H190 C164 0.930 . S
H191 C165 0.931 . S
H192 C172 0.932 . S
H193 C173 0.930 . S
H194 C174 0.929 . S
H195 C176 0.930 . S
H196 C178 0.932 . S
H197 C179 0.929 . S
H198 C180 0.928 . S
H199 C182 0.932 . S
C200 C201 1.264 . S
C200 C205 1.479 . S
C200 C210 1.465 . S
C201 C200 1.264 . S
C201 C203 1.339 . S
C201 H228 0.931 . S
C202 C203 1.395 . S
C202 C204 1.320 . S
C203 C201 1.339 . S
C203 C202 1.395 . S
C203 H229 0.929 . S
C204 C202 1.320 . S
C204 C205 1.405 . S
C204 H230 0.930 . S
C205 C200 1.479 . S
C205 C204 1.405 . S
C205 H231 0.931 . S
U206 O207 2.454 . S
U206 O208 2.458 . S
U206 C209 2.984 . S
U206 C210 2.847 . S
U206 C223 2.882 . S
U206 O224 2.441 . S
U206 O225 2.420 . S
U206 O226 2.455 . S
U206 O227 2.449 . S
O207 U206 2.454 . S
O207 C209 1.353 . S
O208 U206 2.458 . S
O208 C209 1.286 . S
C209 U206 2.984 . S
C209 O207 1.353 . S
C209 O208 1.286 . S
C209 C211 1.363 . S
C210 C200 1.465 . S
C210 U206 2.847 . S
C210 O224 1.249 . S
C210 O225 1.202 . S
C211 C209 1.363 . S
C211 C213 1.408 . S
C211 C216 1.342 . S
C212 C213 1.310 . S
C212 C215 1.461 . S
C212 H232 0.932 . S
C213 C211 1.408 . S
C213 C212 1.310 . S
C213 H233 0.930 . S
C214 C215 1.474 . S
C214 C216 1.285 . S
C214 H234 0.929 . S
C215 C212 1.461 . S
C215 C214 1.474 . S
C216 C211 1.342 . S
C216 C214 1.285 . S
C216 H235 0.930 . S
C217 C220 1.424 . S
C217 C222 1.245 . S
C217 C223 1.428 . S
C218 C221 1.260 . S
C218 C222 1.477 . S
C218 H236 0.932 . S
C219 C220 1.384 . S
C219 C221 1.479 . S
C219 H237 0.929 . S
C220 C217 1.424 . S
C220 C219 1.384 . S
C220 H238 0.928 . S
C221 C218 1.260 . S
C221 C219 1.479 . S
C222 C217 1.245 . S
C222 C218 1.477 . S
C222 H239 0.932 . S
C223 U206 2.882 . S
C223 C217 1.428 . S
C223 O226 1.301 . S
C223 O227 1.282 . S
O224 U206 2.441 . S
O224 C210 1.249 . S
O225 U206 2.420 . S
O225 C210 1.202 . S
O226 U206 2.455 . S
O226 C223 1.301 . S
O227 U206 2.449 . S
O227 C223 1.282 . S
H228 C201 0.931 . S
H229 C203 0.929 . S
H230 C204 0.930 . S
H231 C205 0.931 . S
H232 C212 0.932 . S
H233 C213 0.930 . S
H234 C214 0.929 . S
H235 C216 0.930 . S
H236 C218 0.932 . S
H237 C219 0.929 . S
H238 C220 0.928 . S
H239 C222 0.932 . S
C240 C241 1.264 . S
C240 C245 1.479 . S
C240 C250 1.465 . S
C241 C240 1.264 . S
C241 C243 1.339 . S
C241 H268 0.931 . S
C242 C243 1.395 . S
C242 C244 1.320 . S
C243 C241 1.339 . S
C243 C242 1.395 . S
C243 H269 0.929 . S
C244 C242 1.320 . S
C244 C245 1.405 . S
C244 H270 0.930 . S
C245 C240 1.479 . S
C245 C244 1.405 . S
C245 H271 0.931 . S
U246 O247 2.454 1_565 S
U246 O248 2.458 1_565 S
U246 C249 2.984 1_565 S
U246 C250 2.847 . S
U246 C263 2.885 . S
U246 O264 2.441 . S
U246 O265 2.420 . S
U246 O266 2.455 1_565 S
U246 O267 2.449 . S
O247 U246 2.454 1_545 S
O247 C249 1.353 . S
O248 U246 2.458 1_545 S
O248 C249 1.286 . S
C249 U246 2.984 1_545 S
C249 O247 1.353 . S
C249 O248 1.286 . S
C249 C251 1.363 . S
C250 C240 1.465 . S
C250 U246 2.847 . S
C250 O264 1.249 . S
C250 O265 1.202 . S
C251 C249 1.363 . S
C251 C253 1.408 . S
C251 C256 1.342 . S
C252 C253 1.310 . S
C252 C255 1.461 . S
C252 H272 0.932 . S
C253 C251 1.408 . S
C253 C252 1.310 . S
C253 H273 0.930 . S
C254 C255 1.474 . S
C254 C256 1.285 . S
C254 H274 0.929 . S
C255 C252 1.461 . S
C255 C254 1.474 . S
C256 C251 1.342 . S
C256 C254 1.285 . S
C256 H275 0.930 . S
C257 C260 1.351 1_545 S
C257 C262 1.321 . S
C257 C263 1.428 1_545 S
C258 C261 1.260 . S
C258 C262 1.477 . S
C258 H276 0.932 . S
C259 C260 1.384 . S
C259 C261 1.479 1_565 S
C259 H277 0.929 . S
C260 C257 1.351 1_565 S
C260 C259 1.384 . S
C260 H278 0.928 . S
C261 C258 1.260 . S
C261 C259 1.479 1_545 S
C262 C257 1.321 . S
C262 C258 1.477 . S
C262 H279 0.932 . S
C263 U246 2.885 . S
C263 C257 1.428 1_565 S
C263 O266 1.238 1_565 S
C263 O267 1.349 . S
O264 U246 2.441 . S
O264 C250 1.249 . S
O265 U246 2.420 . S
O265 C250 1.202 . S
O266 U246 2.455 1_545 S
O266 C263 1.238 1_545 S
O267 U246 2.449 . S
O267 C263 1.349 . S
H268 C241 0.931 . S
H269 C243 0.929 . S
H270 C244 0.930 . S
H271 C245 0.931 . S
H272 C252 0.932 . S
H273 C253 0.930 . S
H274 C254 0.929 . S
H275 C256 0.930 . S
H276 C258 0.932 . S
H277 C259 0.929 . S
H278 C260 0.928 . S
H279 C262 0.932 . S
C280 C281 1.264 . S
C280 C285 1.479 . S
C280 C290 1.465 . S
C281 C280 1.264 . S
C281 C283 1.339 . S
C281 H308 0.931 . S
C282 C283 1.395 . S
C282 C284 1.320 . S
C283 C281 1.339 . S
C283 C282 1.395 . S
C283 H309 0.929 . S
C284 C282 1.320 . S
C284 C285 1.405 . S
C284 H310 0.930 . S
C285 C280 1.479 . S
C285 C284 1.405 . S
C285 H311 0.931 . S
U286 O287 2.454 . S
U286 O288 2.458 . S
U286 C289 2.984 . S
U286 C290 2.847 . S
U286 C303 2.882 . S
U286 O304 2.441 . S
U286 O305 2.420 . S
U286 O306 2.455 . S
U286 O307 2.449 . S
O287 U286 2.454 . S
O287 C289 1.353 . S
O288 U286 2.458 . S
O288 C289 1.286 . S
C289 U286 2.984 . S
C289 O287 1.353 . S
C289 O288 1.286 . S
C289 C291 1.363 . S
C290 C280 1.465 . S
C290 U286 2.847 . S
C290 O304 1.249 . S
C290 O305 1.202 . S
C291 C289 1.363 . S
C291 C293 1.408 . S
C291 C296 1.342 . S
C292 C293 1.310 . S
C292 C295 1.461 . S
C292 H312 0.932 . S
C293 C291 1.408 . S
C293 C292 1.310 . S
C293 H313 0.930 . S
C294 C295 1.474 . S
C294 C296 1.285 . S
C294 H314 0.929 . S
C295 C292 1.461 . S
C295 C294 1.474 . S
C296 C291 1.342 . S
C296 C294 1.285 . S
C296 H315 0.930 . S
C297 C300 1.424 . S
C297 C302 1.245 . S
C297 C303 1.428 . S
C298 C301 1.260 . S
C298 C302 1.477 . S
C298 H316 0.932 . S
C299 C300 1.384 . S
C299 C301 1.479 . S
C299 H317 0.929 . S
C300 C297 1.424 . S
C300 C299 1.384 . S
C300 H318 0.928 . S
C301 C298 1.260 . S
C301 C299 1.479 . S
C302 C297 1.245 . S
C302 C298 1.477 . S
C302 H319 0.932 . S
C303 U286 2.882 . S
C303 C297 1.428 . S
C303 O306 1.301 . S
C303 O307 1.282 . S
O304 U286 2.441 . S
O304 C290 1.249 . S
O305 U286 2.420 . S
O305 C290 1.202 . S
O306 U286 2.455 . S
O306 C303 1.301 . S
O307 U286 2.449 . S
O307 C303 1.282 . S
H308 C281 0.931 . S
H309 C283 0.929 . S
H310 C284 0.930 . S
H311 C285 0.931 . S
H312 C292 0.932 . S
H313 C293 0.930 . S
H314 C294 0.929 . S
H315 C296 0.930 . S
H316 C298 0.932 . S
H317 C299 0.929 . S
H318 C300 0.928 . S
H319 C302 0.932 . S
C320 C321 1.264 . S
C320 C325 1.479 . S
C320 C330 1.465 . S
C321 C320 1.264 . S
C321 C323 1.339 . S
C321 H348 0.931 . S
C322 C323 1.395 . S
C322 C324 1.320 . S
C323 C321 1.339 . S
C323 C322 1.395 . S
C323 H349 0.929 . S
C324 C322 1.320 . S
C324 C325 1.405 . S
C324 H350 0.930 . S
C325 C320 1.479 . S
C325 C324 1.405 . S
C325 H351 0.931 . S
U326 O327 2.454 . S
U326 O328 2.458 . S
U326 C329 2.984 . S
U326 C330 2.847 . S
U326 C343 2.882 . S
U326 O344 2.441 . S
U326 O345 2.420 . S
U326 O346 2.455 . S
U326 O347 2.449 . S
O327 U326 2.454 . S
O327 C329 1.353 . S
O328 U326 2.458 . S
O328 C329 1.286 . S
C329 U326 2.984 . S
C329 O327 1.353 . S
C329 O328 1.286 . S
C329 C331 1.363 . S
C330 C320 1.465 . S
C330 U326 2.847 . S
C330 O344 1.249 . S
C330 O345 1.202 . S
C331 C329 1.363 . S
C331 C333 1.408 . S
C331 C336 1.342 . S
C332 C333 1.310 . S
C332 C335 1.461 . S
C332 H352 0.932 . S
C333 C331 1.408 . S
C333 C332 1.310 . S
C333 H353 0.930 . S
C334 C335 1.474 . S
C334 C336 1.285 . S
C334 H354 0.929 . S
C335 C332 1.461 . S
C335 C334 1.474 . S
C336 C331 1.342 . S
C336 C334 1.285 . S
C336 H355 0.930 . S
C337 C340 1.424 . S
C337 C342 1.245 . S
C337 C343 1.428 . S
C338 C341 1.260 . S
C338 C342 1.477 . S
C338 H356 0.932 . S
C339 C340 1.384 . S
C339 C341 1.479 . S
C339 H357 0.929 . S
C340 C337 1.424 . S
C340 C339 1.384 . S
C340 H358 0.928 . S
C341 C338 1.260 . S
C341 C339 1.479 . S
C342 C337 1.245 . S
C342 C338 1.477 . S
C342 H359 0.932 . S
C343 U326 2.882 . S
C343 C337 1.428 . S
C343 O346 1.301 . S
C343 O347 1.282 . S
O344 U326 2.441 . S
O344 C330 1.249 . S
O345 U326 2.420 . S
O345 C330 1.202 . S
O346 U326 2.455 . S
O346 C343 1.301 . S
O347 U326 2.449 . S
O347 C343 1.282 . S
H348 C321 0.931 . S
H349 C323 0.929 . S
H350 C324 0.930 . S
H351 C325 0.931 . S
H352 C332 0.932 . S
H353 C333 0.930 . S
H354 C334 0.929 . S
H355 C336 0.930 . S
H356 C338 0.932 . S
H357 C339 0.929 . S
H358 C340 0.928 . S
H359 C342 0.932 . S
C360 C361 1.264 . S
C360 C365 1.479 . S
C360 C370 1.465 . S
C361 C360 1.264 . S
C361 C363 1.339 . S
C361 H388 0.931 . S
C362 C363 1.395 . S
C362 C364 1.320 . S
C363 C361 1.339 . S
C363 C362 1.395 . S
C363 H389 0.929 . S
C364 C362 1.320 . S
C364 C365 1.405 . S
C364 H390 0.930 . S
C365 C360 1.479 . S
C365 C364 1.405 . S
C365 H391 0.931 . S
U366 O367 2.454 . S
U366 O368 2.458 . S
U366 C369 2.984 . S
U366 C370 2.847 . S
U366 C383 2.882 . S
U366 O384 2.441 . S
U366 O385 2.420 . S
U366 O386 2.455 . S
U366 O387 2.449 . S
O367 U366 2.454 . S
O367 C369 1.353 . S
O368 U366 2.458 . S
O368 C369 1.286 . S
C369 U366 2.984 . S
C369 O367 1.353 . S
C369 O368 1.286 . S
C369 C371 1.363 . S
C370 C360 1.465 . S
C370 U366 2.847 . S
C370 O384 1.249 . S
C370 O385 1.202 . S
C371 C369 1.363 . S
C371 C373 1.408 . S
C371 C376 1.342 . S
C372 C373 1.310 . S
C372 C375 1.461 . S
C372 H392 0.932 . S
C373 C371 1.408 . S
C373 C372 1.310 . S
C373 H393 0.930 . S
C374 C375 1.474 . S
C374 C376 1.285 . S
C374 H394 0.929 . S
C375 C372 1.461 . S
C375 C374 1.474 . S
C376 C371 1.342 . S
C376 C374 1.285 . S
C376 H395 0.930 . S
C377 C380 1.424 . S
C377 C382 1.245 . S
C377 C383 1.428 . S
C378 C381 1.260 . S
C378 C382 1.477 . S
C378 H396 0.932 . S
C379 C380 1.384 . S
C379 C381 1.479 . S
C379 H397 0.929 . S
C380 C377 1.424 . S
C380 C379 1.384 . S
C380 H398 0.928 . S
C381 C378 1.260 . S
C381 C379 1.479 . S
C382 C377 1.245 . S
C382 C378 1.477 . S
C382 H399 0.932 . S
C383 U366 2.882 . S
C383 C377 1.428 . S
C383 O386 1.301 . S
C383 O387 1.282 . S
O384 U366 2.441 . S
O384 C370 1.249 . S
O385 U366 2.420 . S
O385 C370 1.202 . S
O386 U366 2.455 . S
O386 C383 1.301 . S
O387 U366 2.449 . S
O387 C383 1.282 . S
H388 C361 0.931 . S
H389 C363 0.929 . S
H390 C364 0.930 . S
H391 C365 0.931 . S
H392 C372 0.932 . S
H393 C373 0.930 . S
H394 C374 0.929 . S
H395 C376 0.930 . S
H396 C378 0.932 . S
H397 C379 0.929 . S
H398 C380 0.928 . S
H399 C382 0.932 . S
C400 C401 1.264 . S
C400 C405 1.479 . S
C400 C410 1.465 . S
C401 C400 1.264 . S
C401 C403 1.339 . S
C401 H428 0.931 . S
C402 C403 1.395 . S
C402 C404 1.320 . S
C403 C401 1.339 . S
C403 C402 1.395 . S
C403 H429 0.929 . S
C404 C402 1.320 . S
C404 C405 1.405 . S
C404 H430 0.930 . S
C405 C400 1.479 . S
C405 C404 1.405 . S
C405 H431 0.931 . S
U406 O407 2.454 . S
U406 O408 2.458 . S
U406 C409 2.984 . S
U406 C410 2.847 . S
U406 C423 2.882 . S
U406 O424 2.441 . S
U406 O425 2.420 . S
U406 O426 2.455 . S
U406 O427 2.449 . S
O407 U406 2.454 . S
O407 C409 1.353 . S
O408 U406 2.458 . S
O408 C409 1.286 . S
C409 U406 2.984 . S
C409 O407 1.353 . S
C409 O408 1.286 . S
C409 C411 1.363 . S
C410 C400 1.465 . S
C410 U406 2.847 . S
C410 O424 1.249 . S
C410 O425 1.202 . S
C411 C409 1.363 . S
C411 C413 1.408 . S
C411 C416 1.342 . S
C412 C413 1.310 . S
C412 C415 1.461 . S
C412 H432 0.932 . S
C413 C411 1.408 . S
C413 C412 1.310 . S
C413 H433 0.930 . S
C414 C415 1.474 . S
C414 C416 1.285 . S
C414 H434 0.929 . S
C415 C412 1.461 . S
C415 C414 1.474 . S
C416 C411 1.342 . S
C416 C414 1.285 . S
C416 H435 0.930 . S
C417 C420 1.424 . S
C417 C422 1.245 . S
C417 C423 1.428 . S
C418 C421 1.260 . S
C418 C422 1.477 . S
C418 H436 0.932 . S
C419 C420 1.384 . S
C419 C421 1.479 . S
C419 H437 0.929 . S
C420 C417 1.424 . S
C420 C419 1.384 . S
C420 H438 0.928 . S
C421 C418 1.260 . S
C421 C419 1.479 . S
C422 C417 1.245 . S
C422 C418 1.477 . S
C422 H439 0.932 . S
C423 U406 2.882 . S
C423 C417 1.428 . S
C423 O426 1.301 . S
C423 O427 1.282 . S
O424 U406 2.441 . S
O424 C410 1.249 . S
O425 U406 2.420 . S
O425 C410 1.202 . S
O426 U406 2.455 . S
O426 C423 1.301 . S
O427 U406 2.449 . S
O427 C423 1.282 . S
H428 C401 0.931 . S
H429 C403 0.929 . S
H430 C404 0.930 . S
H431 C405 0.931 . S
H432 C412 0.932 . S
H433 C413 0.930 . S
H434 C414 0.929 . S
H435 C416 0.930 . S
H436 C418 0.932 . S
H437 C419 0.929 . S
H438 C420 0.928 . S
H439 C422 0.932 . S
C440 C441 1.264 . S
C440 C445 1.479 . S
C440 C450 1.465 . S
C441 C440 1.264 . S
C441 C443 1.339 1_545 S
C441 H468 0.931 . S
C442 C443 1.395 . S
C442 C444 1.320 1_565 S
C443 C441 1.339 1_565 S
C443 C442 1.395 . S
C443 H469 0.929 . S
C444 C442 1.320 1_545 S
C444 C445 1.405 . S
C444 H470 0.930 . S
C445 C440 1.479 . S
C445 C444 1.405 . S
C445 H471 0.931 . S
U446 O447 2.454 . S
U446 O448 2.458 . S
U446 C449 2.984 . S
U446 C450 2.847 . S
U446 C463 2.882 . S
U446 O464 2.441 . S
U446 O465 2.420 . S
U446 O466 2.455 . S
U446 O467 2.449 . S
O447 U446 2.454 . S
O447 C449 1.353 . S
O448 U446 2.458 . S
O448 C449 1.286 . S
C449 U446 2.984 . S
C449 O447 1.353 . S
C449 O448 1.286 . S
C449 C451 1.363 . S
C450 C440 1.465 . S
C450 U446 2.847 . S
C450 O464 1.249 . S
C450 O465 1.202 . S
C451 C449 1.363 . S
C451 C453 1.408 . S
C451 C456 1.342 . S
C452 C453 1.310 . S
C452 C455 1.461 . S
C452 H472 0.932 . S
C453 C451 1.408 . S
C453 C452 1.310 . S
C453 H473 0.930 . S
C454 C455 1.474 . S
C454 C456 1.285 . S
C454 H474 0.929 . S
C455 C452 1.461 . S
C455 C454 1.474 . S
C456 C451 1.342 . S
C456 C454 1.285 . S
C456 H475 0.930 . S
C457 C460 1.424 . S
C457 C462 1.245 . S
C457 C463 1.428 . S
C458 C461 1.260 . S
C458 C462 1.477 . S
C458 H476 0.932 . S
C459 C460 1.384 . S
C459 C461 1.479 . S
C459 H477 0.948 . S
C460 C457 1.424 . S
C460 C459 1.384 . S
C460 H478 0.928 . S
C461 C458 1.260 . S
C461 C459 1.479 . S
C462 C457 1.245 . S
C462 C458 1.477 . S
C462 H479 0.932 . S
C463 U446 2.882 . S
C463 C457 1.428 . S
C463 O466 1.301 . S
C463 O467 1.282 . S
O464 U446 2.441 . S
O464 C450 1.249 . S
O465 U446 2.420 . S
O465 C450 1.202 . S
O466 U446 2.455 . S
O466 C463 1.301 . S
O467 U446 2.449 . S
O467 C463 1.282 . S
H468 C441 0.931 . S
H469 C443 0.929 . S
H470 C444 0.930 . S
H471 C445 0.931 . S
H472 C452 0.932 . S
H473 C453 0.930 . S
H474 C454 0.929 . S
H475 C456 0.930 . S
H476 C458 0.932 . S
H477 C459 0.948 . S
H478 C460 0.928 . S
H479 C462 0.932 . S
C480 C481 1.264 . S
C480 C485 1.479 . S
C480 C490 1.465 . S
C481 C480 1.264 . S
C481 C483 1.339 . S
C481 H508 0.931 . S
C482 C483 1.395 . S
C482 C484 1.320 . S
C483 C481 1.339 . S
C483 C482 1.395 . S
C483 H509 0.929 . S
C484 C482 1.320 . S
C484 C485 1.405 . S
C484 H510 0.930 . S
C485 C480 1.479 . S
C485 C484 1.405 . S
C485 H511 0.931 . S
U486 O487 2.454 . S
U486 O488 2.458 . S
U486 C489 2.984 . S
U486 C490 2.847 . S
U486 C503 2.882 . S
U486 O504 2.441 . S
U486 O505 2.420 . S
U486 O506 2.455 . S
U486 O507 2.449 . S
O487 U486 2.454 . S
O487 C489 1.353 . S
O488 U486 2.458 . S
O488 C489 1.286 . S
C489 U486 2.984 . S
C489 O487 1.353 . S
C489 O488 1.286 . S
C489 C491 1.363 . S
C490 C480 1.465 . S
C490 U486 2.847 . S
C490 O504 1.249 . S
C490 O505 1.202 . S
C491 C489 1.363 . S
C491 C493 1.408 . S
C491 C496 1.342 . S
C492 C493 1.310 . S
C492 C495 1.461 . S
C492 H512 0.932 . S
C493 C491 1.408 . S
C493 C492 1.310 . S
C493 H513 0.930 . S
C494 C495 1.474 . S
C494 C496 1.285 . S
C494 H514 0.929 . S
C495 C492 1.461 . S
C495 C494 1.474 . S
C496 C491 1.342 . S
C496 C494 1.285 . S
C496 H515 0.930 . S
C497 C500 1.424 . S
C497 C502 1.245 . S
C497 C503 1.428 . S
C498 C501 1.260 . S
C498 C502 1.477 . S
C498 H516 0.932 . S
C499 C500 1.384 . S
C499 C501 1.479 . S
C499 H517 0.929 . S
C500 C497 1.424 . S
C500 C499 1.384 . S
C500 H518 0.928 . S
C501 C498 1.260 . S
C501 C499 1.479 . S
C502 C497 1.245 . S
C502 C498 1.477 . S
C502 H519 0.932 . S
C503 U486 2.882 . S
C503 C497 1.428 . S
C503 O506 1.301 . S
C503 O507 1.282 . S
O504 U486 2.441 . S
O504 C490 1.249 . S
O505 U486 2.420 . S
O505 C490 1.202 . S
O506 U486 2.455 . S
O506 C503 1.301 . S
O507 U486 2.449 . S
O507 C503 1.282 . S
H508 C481 0.931 . S
H509 C483 0.929 . S
H510 C484 0.930 . S
H511 C485 0.931 . S
H512 C492 0.932 . S
H513 C493 0.930 . S
H514 C494 0.929 . S
H515 C496 0.930 . S
H516 C498 0.932 . S
H517 C499 0.929 . S
H518 C500 0.928 . S
H519 C502 0.932 . S
C520 C521 1.264 . S
C520 C525 1.479 1_565 S
C520 C530 1.465 . S
C521 C520 1.264 . S
C521 C523 1.371 . S
C521 H548 0.931 . S
C522 C523 1.367 1_545 S
C522 C524 1.320 . S
C523 C521 1.371 . S
C523 C522 1.367 1_565 S
C523 H549 0.925 . S
C524 C522 1.320 . S
C524 C525 1.405 . S
C524 H550 0.930 . S
C525 C520 1.479 1_545 S
C525 C524 1.405 . S
C525 H551 0.931 . S
U526 O527 2.454 . S
U526 O528 2.458 . S
U526 C529 2.984 . S
U526 C530 2.847 . S
U526 C543 2.882 . S
U526 O544 2.441 . S
U526 O545 2.420 . S
U526 O546 2.455 . S
U526 O547 2.449 . S
O527 U526 2.454 . S
O527 C529 1.353 . S
O528 U526 2.458 . S
O528 C529 1.286 . S
C529 U526 2.984 . S
C529 O527 1.353 . S
C529 O528 1.286 . S
C529 C531 1.363 . S
C530 C520 1.465 . S
C530 U526 2.847 . S
C530 O544 1.249 . S
C530 O545 1.202 . S
C531 C529 1.363 . S
C531 C533 1.408 . S
C531 C536 1.342 . S
C532 C533 1.310 . S
C532 C535 1.461 . S
C532 H552 0.932 . S
C533 C531 1.408 . S
C533 C532 1.310 . S
C533 H553 0.930 . S
C534 C535 1.474 . S
C534 C536 1.285 . S
C534 H554 0.929 . S
C535 C532 1.461 . S
C535 C534 1.474 . S
C536 C531 1.342 . S
C536 C534 1.285 . S
C536 H555 0.930 . S
C537 C540 1.424 . S
C537 C542 1.245 . S
C537 C543 1.428 . S
C538 C541 1.260 . S
C538 C542 1.477 . S
C538 H556 0.932 . S
C539 C540 1.384 . S
C539 C541 1.479 . S
C539 H557 0.929 . S
C540 C537 1.424 . S
C540 C539 1.384 . S
C540 H558 0.928 . S
C541 C538 1.260 . S
C541 C539 1.479 . S
C542 C537 1.245 . S
C542 C538 1.477 . S
C542 H559 0.932 . S
C543 U526 2.882 . S
C543 C537 1.428 . S
C543 O546 1.301 . S
C543 O547 1.282 . S
O544 U526 2.441 . S
O544 C530 1.249 . S
O545 U526 2.420 . S
O545 C530 1.202 . S
O546 U526 2.455 . S
O546 C543 1.301 . S
O547 U526 2.449 . S
O547 C543 1.282 . S
H548 C521 0.931 . S
H549 C523 0.925 . S
H550 C524 0.930 . S
H551 C525 0.931 . S
H552 C532 0.932 . S
H553 C533 0.930 . S
H554 C534 0.929 . S
H555 C536 0.930 . S
H556 C538 0.932 . S
H557 C539 0.929 . S
H558 C540 0.928 . S
H559 C542 0.932 . S
C560 C561 1.264 . S
C560 C565 1.479 . S
C560 C570 1.465 . S
C561 C560 1.264 . S
C561 C563 1.339 . S
C561 H588 0.931 . S
C562 C563 1.395 . S
C562 C564 1.320 . S
C563 C561 1.339 . S
C563 C562 1.395 . S
C563 H589 0.929 . S
C564 C562 1.320 . S
C564 C565 1.405 . S
C564 H590 0.930 . S
C565 C560 1.479 . S
C565 C564 1.405 . S
C565 H591 0.931 . S
U566 O567 2.445 1_554 S
U566 O568 2.403 1_554 S
U566 C569 2.948 1_554 S
U566 C570 2.909 . S
U566 C583 2.855 1_554 S
U566 O584 2.495 . S
U566 O585 2.480 . S
U566 O586 2.406 1_554 S
U566 O587 2.450 1_554 S
O567 U566 2.445 1_556 S
O567 C569 1.346 . S
O568 U566 2.403 1_556 S
O568 C569 1.286 . S
C569 U566 2.948 1_556 S
C569 O567 1.346 . S
C569 O568 1.286 . S
C569 C571 1.363 . S
C570 C560 1.465 . S
C570 U566 2.909 . S
C570 O584 1.249 . S
C570 O585 1.202 . S
C571 C569 1.363 . S
C571 C573 1.408 . S
C571 C576 1.342 . S
C572 C573 1.310 . S
C572 C575 1.461 . S
C572 H592 0.932 . S
C573 C571 1.408 . S
C573 C572 1.310 . S
C573 H593 0.930 . S
C574 C575 1.474 . S
C574 C576 1.285 . S
C574 H594 0.929 . S
C575 C572 1.461 . S
C575 C574 1.474 . S
C576 C571 1.342 . S
C576 C574 1.285 . S
C576 H595 0.930 . S
C577 C580 1.424 . S
C577 C582 1.245 . S
C577 C583 1.428 . S
C578 C581 1.260 . S
C578 C582 1.477 . S
C578 H596 0.932 . S
C579 C580 1.384 . S
C579 C581 1.479 . S
C579 H597 0.929 . S
C580 C577 1.424 . S
C580 C579 1.384 . S
C580 H598 0.928 . S
C581 C578 1.260 . S
C581 C579 1.479 . S
C582 C577 1.245 . S
C582 C578 1.477 . S
C582 H599 0.932 . S
C583 U566 2.855 1_556 S
C583 C577 1.428 . S
C583 O586 1.301 . S
C583 O587 1.282 . S
O584 U566 2.495 . S
O584 C570 1.249 . S
O585 U566 2.480 . S
O585 C570 1.202 . S
O586 U566 2.406 1_556 S
O586 C583 1.301 . S
O587 U566 2.450 1_556 S
O587 C583 1.282 . S
H588 C561 0.931 . S
H589 C563 0.929 . S
H590 C564 0.930 . S
H591 C565 0.931 . S
H592 C572 0.932 . S
H593 C573 0.930 . S
H594 C574 0.929 . S
H595 C576 0.930 . S
H596 C578 0.932 . S
H597 C579 0.929 . S
H598 C580 0.928 . S
H599 C582 0.932 . S
C600 C601 1.264 . S
C600 C605 1.479 . S
C600 C610 1.465 . S
C601 C600 1.264 . S
C601 C603 1.339 . S
C601 H628 0.931 . S
C602 C603 1.395 . S
C602 C604 1.320 . S
C603 C601 1.339 . S
C603 C602 1.395 . S
C603 H629 0.929 . S
C604 C602 1.320 . S
C604 C605 1.405 . S
C604 H630 0.930 . S
C605 C600 1.479 . S
C605 C604 1.405 . S
C605 H631 0.931 . S
U606 O607 2.454 . S
U606 O608 2.458 . S
U606 C609 2.984 . S
U606 C610 2.847 . S
U606 C623 2.882 . S
U606 O624 2.441 . S
U606 O625 2.420 . S
U606 O626 2.455 . S
U606 O627 2.449 . S
O607 U606 2.454 . S
O607 C609 1.353 . S
O608 U606 2.458 . S
O608 C609 1.286 . S
C609 U606 2.984 . S
C609 O607 1.353 . S
C609 O608 1.286 . S
C609 C611 1.363 . S
C610 C600 1.465 . S
C610 U606 2.847 . S
C610 O624 1.249 . S
C610 O625 1.202 . S
C611 C609 1.363 . S
C611 C613 1.408 . S
C611 C616 1.342 . S
C612 C613 1.310 . S
C612 C615 1.461 . S
C612 H632 0.932 . S
C613 C611 1.408 . S
C613 C612 1.310 . S
C613 H633 0.930 . S
C614 C615 1.474 . S
C614 C616 1.285 . S
C614 H634 0.929 . S
C615 C612 1.461 . S
C615 C614 1.474 . S
C616 C611 1.342 . S
C616 C614 1.285 . S
C616 H635 0.930 . S
C617 C620 1.424 . S
C617 C622 1.245 . S
C617 C623 1.428 . S
C618 C621 1.260 . S
C618 C622 1.477 . S
C618 H636 0.932 . S
C619 C620 1.384 . S
C619 C621 1.479 . S
C619 H637 0.929 . S
C620 C617 1.424 . S
C620 C619 1.384 . S
C620 H638 0.928 . S
C621 C618 1.260 . S
C621 C619 1.479 . S
C622 C617 1.245 . S
C622 C618 1.477 . S
C622 H639 0.932 . S
C623 U606 2.882 . S
C623 C617 1.428 . S
C623 O626 1.301 . S
C623 O627 1.282 . S
O624 U606 2.441 . S
O624 C610 1.249 . S
O625 U606 2.420 . S
O625 C610 1.202 . S
O626 U606 2.455 . S
O626 C623 1.301 . S
O627 U606 2.449 . S
O627 C623 1.282 . S
H628 C601 0.931 . S
H629 C603 0.929 . S
H630 C604 0.930 . S
H631 C605 0.931 . S
H632 C612 0.932 . S
H633 C613 0.930 . S
H634 C614 0.929 . S
H635 C616 0.930 . S
H636 C618 0.932 . S
H637 C619 0.929 . S
H638 C620 0.928 . S
H639 C622 0.932 . S
C640 C641 1.264 . S
C640 C645 1.479 . S
C640 C650 1.465 . S
C641 C640 1.264 . S
C641 C643 1.339 . S
C641 H668 0.931 . S
C642 C643 1.395 . S
C642 C644 1.320 . S
C643 C641 1.339 . S
C643 C642 1.395 . S
C643 H669 0.929 . S
C644 C642 1.320 . S
C644 C645 1.405 . S
C644 H670 0.930 . S
C645 C640 1.479 . S
C645 C644 1.405 . S
C645 H671 0.931 . S
U646 O647 2.454 . S
U646 O648 2.458 . S
U646 C649 2.984 . S
U646 C650 2.847 . S
U646 C663 2.882 . S
U646 O664 2.441 . S
U646 O665 2.420 . S
U646 O666 2.455 . S
U646 O667 2.449 . S
O647 U646 2.454 . S
O647 C649 1.353 . S
O648 U646 2.458 . S
O648 C649 1.286 . S
C649 U646 2.984 . S
C649 O647 1.353 . S
C649 O648 1.286 . S
C649 C651 1.363 . S
C650 C640 1.465 . S
C650 U646 2.847 . S
C650 O664 1.249 . S
C650 O665 1.202 . S
C651 C649 1.363 . S
C651 C653 1.408 . S
C651 C656 1.342 . S
C652 C653 1.310 . S
C652 C655 1.461 . S
C652 H672 0.932 . S
C653 C651 1.408 . S
C653 C652 1.310 . S
C653 H673 0.930 . S
C654 C655 1.474 . S
C654 C656 1.285 . S
C654 H674 0.929 . S
C655 C652 1.461 . S
C655 C654 1.474 . S
C656 C651 1.342 . S
C656 C654 1.285 . S
C656 H675 0.930 . S
C657 C660 1.424 . S
C657 C662 1.245 . S
C657 C663 1.428 . S
C658 C661 1.260 . S
C658 C662 1.477 . S
C658 H676 0.932 . S
C659 C660 1.384 . S
C659 C661 1.479 . S
C659 H677 0.929 . S
C660 C657 1.424 . S
C660 C659 1.384 . S
C660 H678 0.928 . S
C661 C658 1.260 . S
C661 C659 1.479 . S
C662 C657 1.245 . S
C662 C658 1.477 . S
C662 H679 0.932 . S
C663 U646 2.882 . S
C663 C657 1.428 . S
C663 O666 1.301 . S
C663 O667 1.282 . S
O664 U646 2.441 . S
O664 C650 1.249 . S
O665 U646 2.420 . S
O665 C650 1.202 . S
O666 U646 2.455 . S
O666 C663 1.301 . S
O667 U646 2.449 . S
O667 C663 1.282 . S
H668 C641 0.931 . S
H669 C643 0.929 . S
H670 C644 0.930 . S
H671 C645 0.931 . S
H672 C652 0.932 . S
H673 C653 0.930 . S
H674 C654 0.929 . S
H675 C656 0.930 . S
H676 C658 0.932 . S
H677 C659 0.929 . S
H678 C660 0.928 . S
H679 C662 0.932 . S
C680 C681 1.264 . S
C680 C685 1.479 . S
C680 C690 1.465 . S
C681 C680 1.264 . S
C681 C683 1.339 . S
C681 H708 0.931 . S
C682 C683 1.395 . S
C682 C684 1.320 . S
C683 C681 1.339 . S
C683 C682 1.395 . S
C683 H709 0.929 . S
C684 C682 1.320 . S
C684 C685 1.405 . S
C684 H710 0.930 . S
C685 C680 1.479 . S
C685 C684 1.405 . S
C685 H711 0.931 . S
U686 O687 2.454 . S
U686 O688 2.458 . S
U686 C689 2.984 . S
U686 C690 2.847 . S
U686 C703 2.882 . S
U686 O704 2.441 . S
U686 O705 2.420 . S
U686 O706 2.455 . S
U686 O707 2.449 . S
O687 U686 2.454 . S
O687 C689 1.353 . S
O688 U686 2.458 . S
O688 C689 1.286 . S
C689 U686 2.984 . S
C689 O687 1.353 . S
C689 O688 1.286 . S
C689 C691 1.363 . S
C690 C680 1.465 . S
C690 U686 2.847 . S
C690 O704 1.249 . S
C690 O705 1.202 . S
C691 C689 1.363 . S
C691 C693 1.408 . S
C691 C696 1.342 . S
C692 C693 1.310 . S
C692 C695 1.461 . S
C692 H712 0.932 . S
C693 C691 1.408 . S
C693 C692 1.310 . S
C693 H713 0.930 . S
C694 C695 1.474 . S
C694 C696 1.285 . S
C694 H714 0.929 . S
C695 C692 1.461 . S
C695 C694 1.474 . S
C696 C691 1.342 . S
C696 C694 1.285 . S
C696 H715 0.930 . S
C697 C700 1.424 . S
C697 C702 1.245 . S
C697 C703 1.428 . S
C698 C701 1.260 . S
C698 C702 1.477 . S
C698 H716 0.932 . S
C699 C700 1.384 . S
C699 C701 1.479 . S
C699 H717 0.929 . S
C700 C697 1.424 . S
C700 C699 1.384 . S
C700 H718 0.928 . S
C701 C698 1.260 . S
C701 C699 1.479 . S
C702 C697 1.245 . S
C702 C698 1.477 . S
C702 H719 0.932 . S
C703 U686 2.882 . S
C703 C697 1.428 . S
C703 O706 1.301 . S
C703 O707 1.282 . S
O704 U686 2.441 . S
O704 C690 1.249 . S
O705 U686 2.420 . S
O705 C690 1.202 . S
O706 U686 2.455 . S
O706 C703 1.301 . S
O707 U686 2.449 . S
O707 C703 1.282 . S
H708 C681 0.931 . S
H709 C683 0.929 . S
H710 C684 0.930 . S
H711 C685 0.931 . S
H712 C692 0.932 . S
H713 C693 0.930 . S
H714 C694 0.929 . S
H715 C696 0.930 . S
H716 C698 0.932 . S
H717 C699 0.929 . S
H718 C700 0.928 . S
H719 C702 0.932 . S
C720 C721 1.264 . S
C720 C725 1.479 . S
C720 C730 1.465 . S
C721 C720 1.264 . S
C721 C723 1.339 . S
C721 H748 0.931 . S
C722 C723 1.395 . S
C722 C724 1.320 . S
C723 C721 1.339 . S
C723 C722 1.395 . S
C723 H749 0.929 . S
C724 C722 1.320 . S
C724 C725 1.405 . S
C724 H750 0.930 . S
C725 C720 1.479 . S
C725 C724 1.405 . S
C725 H751 0.931 . S
U726 O727 2.454 . S
U726 O728 2.458 . S
U726 C729 2.984 . S
U726 C730 2.847 . S
U726 C743 2.882 . S
U726 O744 2.441 . S
U726 O745 2.420 . S
U726 O746 2.455 . S
U726 O747 2.449 . S
O727 U726 2.454 . S
O727 C729 1.353 . S
O728 U726 2.458 . S
O728 C729 1.286 . S
C729 U726 2.984 . S
C729 O727 1.353 . S
C729 O728 1.286 . S
C729 C731 1.363 . S
C730 C720 1.465 . S
C730 U726 2.847 . S
C730 O744 1.249 . S
C730 O745 1.202 . S
C731 C729 1.363 . S
C731 C733 1.408 . S
C731 C736 1.342 . S
C732 C733 1.310 . S
C732 C735 1.461 . S
C732 H752 0.932 . S
C733 C731 1.408 . S
C733 C732 1.310 . S
C733 H753 0.930 . S
C734 C735 1.474 . S
C734 C736 1.285 . S
C734 H754 0.929 . S
C735 C732 1.461 . S
C735 C734 1.474 . S
C736 C731 1.342 . S
C736 C734 1.285 . S
C736 H755 0.930 . S
C737 C740 1.424 . S
C737 C742 1.245 . S
C737 C743 1.428 . S
C738 C741 1.260 . S
C738 C742 1.477 . S
C738 H756 0.932 . S
C739 C740 1.384 . S
C739 C741 1.479 . S
C739 H757 0.929 . S
C740 C737 1.424 . S
C740 C739 1.384 . S
C740 H758 0.928 . S
C741 C738 1.260 . S
C741 C739 1.479 . S
C742 C737 1.245 . S
C742 C738 1.477 . S
C742 H759 0.932 . S
C743 U726 2.882 . S
C743 C737 1.428 . S
C743 O746 1.301 . S
C743 O747 1.282 . S
O744 U726 2.441 . S
O744 C730 1.249 . S
O745 U726 2.420 . S
O745 C730 1.202 . S
O746 U726 2.455 . S
O746 C743 1.301 . S
O747 U726 2.449 . S
O747 C743 1.282 . S
H748 C721 0.931 . S
H749 C723 0.929 . S
H750 C724 0.930 . S
H751 C725 0.931 . S
H752 C732 0.932 . S
H753 C733 0.930 . S
H754 C734 0.929 . S
H755 C736 0.930 . S
H756 C738 0.932 . S
H757 C739 0.929 . S
H758 C740 0.928 . S
H759 C742 0.932 . S
C760 C761 1.264 . S
C760 C765 1.479 . S
C760 C770 1.465 . S
C761 C760 1.264 . S
C761 C763 1.339 . S
C761 H788 0.931 . S
C762 C763 1.395 . S
C762 C764 1.320 . S
C763 C761 1.339 . S
C763 C762 1.395 . S
C763 H789 0.929 . S
C764 C762 1.320 . S
C764 C765 1.405 . S
C764 H790 0.930 . S
C765 C760 1.479 . S
C765 C764 1.405 . S
C765 H791 0.931 . S
U766 O767 2.454 . S
U766 O768 2.458 . S
U766 C769 2.984 . S
U766 C770 2.847 . S
U766 C783 2.882 . S
U766 O784 2.441 . S
U766 O785 2.420 . S
U766 O786 2.455 . S
U766 O787 2.449 . S
O767 U766 2.454 . S
O767 C769 1.353 . S
O768 U766 2.458 . S
O768 C769 1.286 . S
C769 U766 2.984 . S
C769 O767 1.353 . S
C769 O768 1.286 . S
C769 C771 1.363 . S
C770 C760 1.465 . S
C770 U766 2.847 . S
C770 O784 1.249 . S
C770 O785 1.202 . S
C771 C769 1.363 . S
C771 C773 1.408 . S
C771 C776 1.342 . S
C772 C773 1.310 . S
C772 C775 1.461 . S
C772 H792 0.932 . S
C773 C771 1.408 . S
C773 C772 1.310 . S
C773 H793 0.930 . S
C774 C775 1.474 . S
C774 C776 1.285 . S
C774 H794 0.929 . S
C775 C772 1.461 . S
C775 C774 1.474 . S
C776 C771 1.342 . S
C776 C774 1.285 . S
C776 H795 0.930 . S
C777 C780 1.424 . S
C777 C782 1.245 . S
C777 C783 1.428 . S
C778 C781 1.260 . S
C778 C782 1.477 . S
C778 H796 0.932 . S
C779 C780 1.384 . S
C779 C781 1.479 . S
C779 H797 0.929 . S
C780 C777 1.424 . S
C780 C779 1.384 . S
C780 H798 0.928 . S
C781 C778 1.260 . S
C781 C779 1.479 . S
C782 C777 1.245 . S
C782 C778 1.477 . S
C782 H799 0.932 . S
C783 U766 2.882 . S
C783 C777 1.428 . S
C783 O786 1.301 . S
C783 O787 1.282 . S
O784 U766 2.441 . S
O784 C770 1.249 . S
O785 U766 2.420 . S
O785 C770 1.202 . S
O786 U766 2.455 . S
O786 C783 1.301 . S
O787 U766 2.449 . S
O787 C783 1.282 . S
H788 C761 0.931 . S
H789 C763 0.929 . S
H790 C764 0.930 . S
H791 C765 0.931 . S
H792 C772 0.932 . S
H793 C773 0.930 . S
H794 C774 0.929 . S
H795 C776 0.930 . S
H796 C778 0.932 . S
H797 C779 0.929 . S
H798 C780 0.928 . S
H799 C782 0.932 . S
C800 C801 1.264 . S
C800 C805 1.479 . S
C800 C810 1.465 . S
C801 C800 1.264 . S
C801 C803 1.339 . S
C801 H828 0.931 . S
C802 C803 1.395 . S
C802 C804 1.320 . S
C803 C801 1.339 . S
C803 C802 1.395 . S
C803 H829 0.929 . S
C804 C802 1.320 . S
C804 C805 1.405 . S
C804 H830 0.930 . S
C805 C800 1.479 . S
C805 C804 1.405 . S
C805 H831 0.931 . S
U806 O807 2.454 . S
U806 O808 2.458 . S
U806 C809 2.984 . S
U806 C810 2.847 . S
U806 C823 2.882 . S
U806 O824 2.441 . S
U806 O825 2.420 . S
U806 O826 2.455 . S
U806 O827 2.449 . S
O807 U806 2.454 . S
O807 C809 1.353 . S
O808 U806 2.458 . S
O808 C809 1.286 . S
C809 U806 2.984 . S
C809 O807 1.353 . S
C809 O808 1.286 . S
C809 C811 1.363 . S
C810 C800 1.465 . S
C810 U806 2.847 . S
C810 O824 1.249 . S
C810 O825 1.202 . S
C811 C809 1.363 . S
C811 C813 1.408 . S
C811 C816 1.342 . S
C812 C813 1.310 . S
C812 C815 1.461 . S
C812 H832 0.932 . S
C813 C811 1.408 . S
C813 C812 1.310 . S
C813 H833 0.930 . S
C814 C815 1.474 . S
C814 C816 1.285 . S
C814 H834 0.929 . S
C815 C812 1.461 . S
C815 C814 1.474 . S
C816 C811 1.342 . S
C816 C814 1.285 . S
C816 H835 0.930 . S
C817 C820 1.424 . S
C817 C822 1.245 . S
C817 C823 1.428 . S
C818 C821 1.260 . S
C818 C822 1.477 . S
C818 H836 0.932 . S
C819 C820 1.384 . S
C819 C821 1.479 . S
C819 H837 0.929 . S
C820 C817 1.424 . S
C820 C819 1.384 . S
C820 H838 0.928 . S
C821 C818 1.260 . S
C821 C819 1.479 . S
C822 C817 1.245 . S
C822 C818 1.477 . S
C822 H839 0.932 . S
C823 U806 2.882 . S
C823 C817 1.428 . S
C823 O826 1.301 . S
C823 O827 1.282 . S
O824 U806 2.441 . S
O824 C810 1.249 . S
O825 U806 2.420 . S
O825 C810 1.202 . S
O826 U806 2.455 . S
O826 C823 1.301 . S
O827 U806 2.449 . S
O827 C823 1.282 . S
H828 C801 0.931 . S
H829 C803 0.929 . S
H830 C804 0.930 . S
H831 C805 0.931 . S
H832 C812 0.932 . S
H833 C813 0.930 . S
H834 C814 0.929 . S
H835 C816 0.930 . S
H836 C818 0.932 . S
H837 C819 0.929 . S
H838 C820 0.928 . S
H839 C822 0.932 . S
C840 C841 1.264 . S
C840 C845 1.479 . S
C840 C850 1.465 . S
C841 C840 1.264 . S
C841 C843 1.339 . S
C841 H868 0.931 . S
C842 C843 1.395 . S
C842 C844 1.320 . S
C843 C841 1.339 . S
C843 C842 1.395 . S
C843 H869 0.929 . S
C844 C842 1.320 . S
C844 C845 1.405 . S
C844 H870 0.930 . S
C845 C840 1.479 . S
C845 C844 1.405 . S
C845 H871 0.931 . S
U846 O847 2.454 . S
U846 O848 2.458 . S
U846 C849 2.984 . S
U846 C850 2.847 . S
U846 C863 2.882 . S
U846 O864 2.441 . S
U846 O865 2.420 . S
U846 O866 2.455 . S
U846 O867 2.449 . S
O847 U846 2.454 . S
O847 C849 1.353 . S
O848 U846 2.458 . S
O848 C849 1.286 . S
C849 U846 2.984 . S
C849 O847 1.353 . S
C849 O848 1.286 . S
C849 C851 1.363 . S
C850 C840 1.465 . S
C850 U846 2.847 . S
C850 O864 1.249 . S
C850 O865 1.202 . S
C851 C849 1.363 . S
C851 C853 1.408 . S
C851 C856 1.342 . S
C852 C853 1.310 . S
C852 C855 1.461 . S
C852 H872 0.932 . S
C853 C851 1.408 . S
C853 C852 1.310 . S
C853 H873 0.930 . S
C854 C855 1.474 . S
C854 C856 1.285 . S
C854 H874 0.929 . S
C855 C852 1.461 . S
C855 C854 1.474 . S
C856 C851 1.342 . S
C856 C854 1.285 . S
C856 H875 0.930 . S
C857 C860 1.424 . S
C857 C862 1.245 . S
C857 C863 1.428 . S
C858 C861 1.260 . S
C858 C862 1.477 . S
C858 H876 0.932 . S
C859 C860 1.384 . S
C859 C861 1.479 . S
C859 H877 0.929 . S
C860 C857 1.424 . S
C860 C859 1.384 . S
C860 H878 0.928 . S
C861 C858 1.260 . S
C861 C859 1.479 . S
C862 C857 1.245 . S
C862 C858 1.477 . S
C862 H879 0.932 . S
C863 U846 2.882 . S
C863 C857 1.428 . S
C863 O866 1.301 . S
C863 O867 1.282 . S
O864 U846 2.441 . S
O864 C850 1.249 . S
O865 U846 2.420 . S
O865 C850 1.202 . S
O866 U846 2.455 . S
O866 C863 1.301 . S
O867 U846 2.449 . S
O867 C863 1.282 . S
H868 C841 0.931 . S
H869 C843 0.929 . S
H870 C844 0.930 . S
H871 C845 0.931 . S
H872 C852 0.932 . S
H873 C853 0.930 . S
H874 C854 0.929 . S
H875 C856 0.930 . S
H876 C858 0.932 . S
H877 C859 0.929 . S
H878 C860 0.928 . S
H879 C862 0.932 . S
C880 C881 1.264 . S
C880 C885 1.479 1_655 S
C880 C890 1.465 . S
C881 C880 1.264 . S
C881 C883 1.371 . S
C881 H908 0.931 . S
C882 C883 1.367 1_455 S
C882 C884 1.320 . S
C883 C881 1.371 . S
C883 C882 1.367 1_655 S
C883 H909 0.925 . S
C884 C882 1.320 . S
C884 C885 1.405 . S
C884 H910 0.930 . S
C885 C880 1.479 1_455 S
C885 C884 1.405 . S
C885 H911 0.931 . S
U886 O887 2.454 . S
U886 O888 2.458 . S
U886 C889 2.984 . S
U886 C890 2.847 . S
U886 C903 2.882 . S
U886 O904 2.441 . S
U886 O905 2.420 . S
U886 O906 2.455 . S
U886 O907 2.449 . S
O887 U886 2.454 . S
O887 C889 1.353 . S
O888 U886 2.458 . S
O888 C889 1.286 . S
C889 U886 2.984 . S
C889 O887 1.353 . S
C889 O888 1.286 . S
C889 C891 1.363 . S
C890 C880 1.465 . S
C890 U886 2.847 . S
C890 O904 1.249 . S
C890 O905 1.202 . S
C891 C889 1.363 . S
C891 C893 1.408 . S
C891 C896 1.342 . S
C892 C893 1.310 . S
C892 C895 1.461 . S
C892 H912 0.932 . S
C893 C891 1.408 . S
C893 C892 1.310 . S
C893 H913 0.930 . S
C894 C895 1.474 . S
C894 C896 1.285 . S
C894 H914 0.929 . S
C895 C892 1.461 . S
C895 C894 1.474 . S
C896 C891 1.342 . S
C896 C894 1.285 . S
C896 H915 0.930 . S
C897 C900 1.424 . S
C897 C902 1.245 . S
C897 C903 1.428 . S
C898 C901 1.260 . S
C898 C902 1.477 . S
C898 H916 0.932 . S
C899 C900 1.384 . S
C899 C901 1.479 . S
C899 H917 0.929 . S
C900 C897 1.424 . S
C900 C899 1.384 . S
C900 H918 0.928 . S
C901 C898 1.260 . S
C901 C899 1.479 . S
C902 C897 1.245 . S
C902 C898 1.477 . S
C902 H919 0.932 . S
C903 U886 2.882 . S
C903 C897 1.428 . S
C903 O906 1.301 . S
C903 O907 1.282 . S
O904 U886 2.441 . S
O904 C890 1.249 . S
O905 U886 2.420 . S
O905 C890 1.202 . S
O906 U886 2.455 . S
O906 C903 1.301 . S
O907 U886 2.449 . S
O907 C903 1.282 . S
H908 C881 0.931 . S
H909 C883 0.925 . S
H910 C884 0.930 . S
H911 C885 0.931 . S
H912 C892 0.932 . S
H913 C893 0.930 . S
H914 C894 0.929 . S
H915 C896 0.930 . S
H916 C898 0.932 . S
H917 C899 0.929 . S
H918 C900 0.928 . S
H919 C902 0.932 . S
C920 C921 1.264 . S
C920 C925 1.479 . S
C920 C930 1.465 . S
C921 C920 1.264 . S
C921 C923 1.339 . S
C921 H948 0.931 . S
C922 C923 1.395 . S
C922 C924 1.320 . S
C923 C921 1.339 . S
C923 C922 1.395 . S
C923 H949 0.929 . S
C924 C922 1.320 . S
C924 C925 1.405 . S
C924 H950 0.930 . S
C925 C920 1.479 . S
C925 C924 1.405 . S
C925 H951 0.931 . S
U926 O927 2.454 . S
U926 O928 2.458 . S
U926 C929 2.984 . S
U926 C930 2.847 . S
U926 C943 2.882 . S
U926 O944 2.441 . S
U926 O945 2.420 . S
U926 O946 2.455 . S
U926 O947 2.449 . S
O927 U926 2.454 . S
O927 C929 1.353 . S
O928 U926 2.458 . S
O928 C929 1.286 . S
C929 U926 2.984 . S
C929 O927 1.353 . S
C929 O928 1.286 . S
C929 C931 1.363 . S
C930 C920 1.465 . S
C930 U926 2.847 . S
C930 O944 1.249 . S
C930 O945 1.202 . S
C931 C929 1.363 . S
C931 C933 1.408 . S
C931 C936 1.342 . S
C932 C933 1.310 . S
C932 C935 1.461 . S
C932 H952 0.932 . S
C933 C931 1.408 . S
C933 C932 1.310 . S
C933 H953 0.930 . S
C934 C935 1.474 . S
C934 C936 1.285 . S
C934 H954 0.929 . S
C935 C932 1.461 . S
C935 C934 1.474 . S
C936 C931 1.342 . S
C936 C934 1.285 . S
C936 H955 0.930 . S
C937 C940 1.424 . S
C937 C942 1.245 . S
C937 C943 1.428 . S
C938 C941 1.260 . S
C938 C942 1.477 . S
C938 H956 0.932 . S
C939 C940 1.384 . S
C939 C941 1.479 . S
C939 H957 0.929 . S
C940 C937 1.424 . S
C940 C939 1.384 . S
C940 H958 0.928 . S
C941 C938 1.260 . S
C941 C939 1.479 . S
C942 C937 1.245 . S
C942 C938 1.477 . S
C942 H959 0.932 . S
C943 U926 2.882 . S
C943 C937 1.428 . S
C943 O946 1.301 . S
C943 O947 1.282 . S
O944 U926 2.441 . S
O944 C930 1.249 . S
O945 U926 2.420 . S
O945 C930 1.202 . S
O946 U926 2.455 . S
O946 C943 1.301 . S
O947 U926 2.449 . S
O947 C943 1.282 . S
H948 C921 0.931 . S
H949 C923 0.929 . S
H950 C924 0.930 . S
H951 C925 0.931 . S
H952 C932 0.932 . S
H953 C933 0.930 . S
H954 C934 0.929 . S
H955 C936 0.930 . S
H956 C938 0.932 . S
H957 C939 0.929 . S
H958 C940 0.928 . S
H959 C942 0.932 . S
C960 C961 1.264 . S
C960 C965 1.479 . S
C960 C970 1.465 . S
C961 C960 1.264 . S
C961 C963 1.339 . S
C961 H988 0.931 . S
C962 C963 1.395 . S
C962 C964 1.320 . S
C963 C961 1.339 . S
C963 C962 1.395 . S
C963 H989 0.929 . S
C964 C962 1.320 . S
C964 C965 1.405 . S
C964 H990 0.930 . S
C965 C960 1.479 . S
C965 C964 1.405 . S
C965 H991 0.931 . S
U966 O967 2.454 . S
U966 O968 2.458 . S
U966 C969 2.984 . S
U966 C970 2.847 . S
U966 C983 2.882 . S
U966 O984 2.441 . S
U966 O985 2.420 . S
U966 O986 2.455 . S
U966 O987 2.449 . S
O967 U966 2.454 . S
O967 C969 1.353 . S
O968 U966 2.458 . S
O968 C969 1.286 . S
C969 U966 2.984 . S
C969 O967 1.353 . S
C969 O968 1.286 . S
C969 C971 1.363 . S
C970 C960 1.465 . S
C970 U966 2.847 . S
C970 O984 1.249 . S
C970 O985 1.202 . S
C971 C969 1.363 . S
C971 C973 1.408 . S
C971 C976 1.342 . S
C972 C973 1.310 . S
C972 C975 1.461 . S
C972 H992 0.932 . S
C973 C971 1.408 . S
C973 C972 1.310 . S
C973 H993 0.930 . S
C974 C975 1.474 . S
C974 C976 1.285 . S
C974 H994 0.929 . S
C975 C972 1.461 . S
C975 C974 1.474 . S
C976 C971 1.342 . S
C976 C974 1.285 . S
C976 H995 0.930 . S
C977 C980 1.424 . S
C977 C982 1.245 . S
C977 C983 1.428 . S
C978 C981 1.260 . S
C978 C982 1.477 . S
C978 H996 0.932 . S
C979 C980 1.384 . S
C979 C981 1.479 . S
C979 H997 0.929 . S
C980 C977 1.424 . S
C980 C979 1.384 . S
C980 H998 0.928 . S
C981 C978 1.260 . S
C981 C979 1.479 . S
C982 C977 1.245 . S
C982 C978 1.477 . S
C982 H999 0.932 . S
C983 U966 2.882 . S
C983 C977 1.428 . S
C983 O986 1.301 . S
C983 O987 1.282 . S
O984 U966 2.441 . S
O984 C970 1.249 . S
O985 U966 2.420 . S
O985 C970 1.202 . S
O986 U966 2.455 . S
O986 C983 1.301 . S
O987 U966 2.449 . S
O987 C983 1.282 . S
H988 C961 0.931 . S
H989 C963 0.929 . S
H990 C964 0.930 . S
H991 C965 0.931 . S
H992 C972 0.932 . S
H993 C973 0.930 . S
H994 C974 0.929 . S
H995 C976 0.930 . S
H996 C978 0.932 . S
H997 C979 0.929 . S
H998 C980 0.928 . S
H999 C982 0.932 . S
C1000 C1001 1.264 . S
C1000 C1005 1.479 1_556 S
C1000 C1010 1.465 . S
C1001 C1000 1.264 . S
C1001 C1003 1.371 . S
C1001 H1028 0.931 . S
C1002 C1003 1.367 1_554 S
C1002 C1004 1.320 . S
C1003 C1001 1.371 . S
C1003 C1002 1.367 1_556 S
C1003 H1029 0.925 . S
C1004 C1002 1.320 . S
C1004 C1005 1.405 . S
C1004 H1030 0.930 . S
C1005 C1000 1.479 1_554 S
C1005 C1004 1.405 . S
C1005 H1031 0.931 . S
U1006 O1007 2.454 . S
U1006 O1008 2.458 . S
U1006 C1009 2.984 . S
U1006 C1010 2.847 . S
U1006 C1023 2.882 . S
U1006 O1024 2.441 . S
U1006 O1025 2.420 . S
U1006 O1026 2.455 . S
U1006 O1027 2.449 . S
O1007 U1006 2.454 . S
O1007 C1009 1.353 . S
O1008 U1006 2.458 . S
O1008 C1009 1.286 . S
C1009 U1006 2.984 . S
C1009 O1007 1.353 . S
C1009 O1008 1.286 . S
C1009 C1011 1.363 . S
C1010 C1000 1.465 . S
C1010 U1006 2.847 . S
C1010 O1024 1.249 . S
C1010 O1025 1.202 . S
C1011 C1009 1.363 . S
C1011 C1013 1.408 . S
C1011 C1016 1.342 . S
C1012 C1013 1.310 . S
C1012 C1015 1.461 . S
C1012 H1032 0.932 . S
C1013 C1011 1.408 . S
C1013 C1012 1.310 . S
C1013 H1033 0.930 . S
C1014 C1015 1.474 . S
C1014 C1016 1.285 . S
C1014 H1034 0.929 . S
C1015 C1012 1.461 . S
C1015 C1014 1.474 . S
C1016 C1011 1.342 . S
C1016 C1014 1.285 . S
C1016 H1035 0.930 . S
C1017 C1020 1.424 . S
C1017 C1022 1.245 . S
C1017 C1023 1.428 . S
C1018 C1021 1.260 . S
C1018 C1022 1.477 . S
C1018 H1036 0.932 . S
C1019 C1020 1.384 . S
C1019 C1021 1.479 . S
C1019 H1037 0.929 . S
C1020 C1017 1.424 . S
C1020 C1019 1.384 . S
C1020 H1038 0.928 . S
C1021 C1018 1.260 . S
C1021 C1019 1.479 . S
C1022 C1017 1.245 . S
C1022 C1018 1.477 . S
C1022 H1039 0.932 . S
C1023 U1006 2.882 . S
C1023 C1017 1.428 . S
C1023 O1026 1.301 . S
C1023 O1027 1.282 . S
O1024 U1006 2.441 . S
O1024 C1010 1.249 . S
O1025 U1006 2.420 . S
O1025 C1010 1.202 . S
O1026 U1006 2.455 . S
O1026 C1023 1.301 . S
O1027 U1006 2.449 . S
O1027 C1023 1.282 . S
H1028 C1001 0.931 . S
H1029 C1003 0.925 . S
H1030 C1004 0.930 . S
H1031 C1005 0.931 . S
H1032 C1012 0.932 . S
H1033 C1013 0.930 . S
H1034 C1014 0.929 . S
H1035 C1016 0.930 . S
H1036 C1018 0.932 . S
H1037 C1019 0.929 . S
H1038 C1020 0.928 . S
H1039 C1022 0.932 . S
C1040 C1041 1.264 . S
C1040 C1045 1.479 . S
C1040 C1050 1.465 . S
C1041 C1040 1.264 . S
C1041 C1043 1.339 . S
C1041 H1068 0.931 . S
C1042 C1043 1.395 . S
C1042 C1044 1.320 . S
C1043 C1041 1.339 . S
C1043 C1042 1.395 . S
C1043 H1069 0.929 . S
C1044 C1042 1.320 . S
C1044 C1045 1.405 . S
C1044 H1070 0.930 . S
C1045 C1040 1.479 . S
C1045 C1044 1.405 . S
C1045 H1071 0.931 . S
U1046 O1047 2.454 . S
U1046 O1048 2.458 . S
U1046 C1049 2.984 . S
U1046 C1050 2.847 . S
U1046 C1063 2.882 . S
U1046 O1064 2.441 . S
U1046 O1065 2.420 . S
U1046 O1066 2.455 . S
U1046 O1067 2.449 . S
O1047 U1046 2.454 . S
O1047 C1049 1.353 . S
O1048 U1046 2.458 . S
O1048 C1049 1.286 . S
C1049 U1046 2.984 . S
C1049 O1047 1.353 . S
C1049 O1048 1.286 . S
C1049 C1051 1.363 . S
C1050 C1040 1.465 . S
C1050 U1046 2.847 . S
C1050 O1064 1.249 . S
C1050 O1065 1.202 . S
C1051 C1049 1.363 . S
C1051 C1053 1.408 . S
C1051 C1056 1.342 . S
C1052 C1053 1.310 . S
C1052 C1055 1.461 . S
C1052 H1072 0.932 . S
C1053 C1051 1.408 . S
C1053 C1052 1.310 . S
C1053 H1073 0.930 . S
C1054 C1055 1.474 . S
C1054 C1056 1.285 . S
C1054 H1074 0.929 . S
C1055 C1052 1.461 . S
C1055 C1054 1.474 . S
C1056 C1051 1.342 . S
C1056 C1054 1.285 . S
C1056 H1075 0.930 . S
C1057 C1060 1.424 . S
C1057 C1062 1.245 . S
C1057 C1063 1.428 . S
C1058 C1061 1.260 . S
C1058 C1062 1.477 . S
C1058 H1076 0.932 . S
C1059 C1060 1.384 . S
C1059 C1061 1.479 . S
C1059 H1077 0.929 . S
C1060 C1057 1.424 . S
C1060 C1059 1.384 . S
C1060 H1078 0.928 . S
C1061 C1058 1.260 . S
C1061 C1059 1.479 . S
C1062 C1057 1.245 . S
C1062 C1058 1.477 . S
C1062 H1079 0.932 . S
C1063 U1046 2.882 . S
C1063 C1057 1.428 . S
C1063 O1066 1.301 . S
C1063 O1067 1.282 . S
O1064 U1046 2.441 . S
O1064 C1050 1.249 . S
O1065 U1046 2.420 . S
O1065 C1050 1.202 . S
O1066 U1046 2.455 . S
O1066 C1063 1.301 . S
O1067 U1046 2.449 . S
O1067 C1063 1.282 . S
H1068 C1041 0.931 . S
H1069 C1043 0.929 . S
H1070 C1044 0.930 . S
H1071 C1045 0.931 . S
H1072 C1052 0.932 . S
H1073 C1053 0.930 . S
H1074 C1054 0.929 . S
H1075 C1056 0.930 . S
H1076 C1058 0.932 . S
H1077 C1059 0.929 . S
H1078 C1060 0.928 . S
H1079 C1062 0.932 . S
C1080 C1081 1.264 . S
C1080 C1085 1.479 . S
C1080 C1090 1.465 . S
C1081 C1080 1.264 . S
C1081 C1083 1.339 . S
C1081 H1108 0.931 . S
C1082 C1083 1.395 . S
C1082 C1084 1.320 . S
C1083 C1081 1.339 . S
C1083 C1082 1.395 . S
C1083 H1109 0.929 . S
C1084 C1082 1.320 . S
C1084 C1085 1.405 . S
C1084 H1110 0.930 . S
C1085 C1080 1.479 . S
C1085 C1084 1.405 . S
C1085 H1111 0.931 . S
U1086 O1087 2.454 . S
U1086 O1088 2.458 . S
U1086 C1089 2.984 . S
U1086 C1090 2.847 . S
U1086 C1103 2.882 . S
U1086 O1104 2.441 . S
U1086 O1105 2.420 . S
U1086 O1106 2.455 . S
U1086 O1107 2.449 . S
O1087 U1086 2.454 . S
O1087 C1089 1.353 . S
O1088 U1086 2.458 . S
O1088 C1089 1.286 . S
C1089 U1086 2.984 . S
C1089 O1087 1.353 . S
C1089 O1088 1.286 . S
C1089 C1091 1.363 . S
C1090 C1080 1.465 . S
C1090 U1086 2.847 . S
C1090 O1104 1.249 . S
C1090 O1105 1.202 . S
C1091 C1089 1.363 . S
C1091 C1093 1.408 . S
C1091 C1096 1.342 . S
C1092 C1093 1.310 . S
C1092 C1095 1.461 . S
C1092 H1112 0.932 . S
C1093 C1091 1.408 . S
C1093 C1092 1.310 . S
C1093 H1113 0.930 . S
C1094 C1095 1.474 . S
C1094 C1096 1.285 . S
C1094 H1114 0.929 . S
C1095 C1092 1.461 . S
C1095 C1094 1.474 . S
C1096 C1091 1.342 . S
C1096 C1094 1.285 . S
C1096 H1115 0.930 . S
C1097 C1100 1.424 . S
C1097 C1102 1.245 . S
C1097 C1103 1.428 . S
C1098 C1101 1.260 . S
C1098 C1102 1.477 . S
C1098 H1116 0.932 . S
C1099 C1100 1.384 . S
C1099 C1101 1.479 . S
C1099 H1117 0.929 . S
C1100 C1097 1.424 . S
C1100 C1099 1.384 . S
C1100 H1118 0.928 . S
C1101 C1098 1.260 . S
C1101 C1099 1.479 . S
C1102 C1097 1.245 . S
C1102 C1098 1.477 . S
C1102 H1119 0.932 . S
C1103 U1086 2.882 . S
C1103 C1097 1.428 . S
C1103 O1106 1.301 . S
C1103 O1107 1.282 . S
O1104 U1086 2.441 . S
O1104 C1090 1.249 . S
O1105 U1086 2.420 . S
O1105 C1090 1.202 . S
O1106 U1086 2.455 . S
O1106 C1103 1.301 . S
O1107 U1086 2.449 . S
O1107 C1103 1.282 . S
H1108 C1081 0.931 . S
H1109 C1083 0.929 . S
H1110 C1084 0.930 . S
H1111 C1085 0.931 . S
H1112 C1092 0.932 . S
H1113 C1093 0.930 . S
H1114 C1094 0.929 . S
H1115 C1096 0.930 . S
H1116 C1098 0.932 . S
H1117 C1099 0.929 . S
H1118 C1100 0.928 . S
H1119 C1102 0.932 . S
C1120 C1121 1.264 . S
C1120 C1125 1.479 . S
C1120 C1130 1.465 . S
C1121 C1120 1.264 . S
C1121 C1123 1.339 . S
C1121 H1148 0.931 . S
C1122 C1123 1.395 . S
C1122 C1124 1.320 . S
C1123 C1121 1.339 . S
C1123 C1122 1.395 . S
C1123 H1149 0.929 . S
C1124 C1122 1.320 . S
C1124 C1125 1.405 . S
C1124 H1150 0.930 . S
C1125 C1120 1.479 . S
C1125 C1124 1.405 . S
C1125 H1151 0.931 . S
U1126 O1127 2.454 . S
U1126 O1128 2.458 . S
U1126 C1129 2.984 . S
U1126 C1130 2.847 . S
U1126 C1143 2.882 . S
U1126 O1144 2.441 . S
U1126 O1145 2.420 . S
U1126 O1146 2.455 . S
U1126 O1147 2.449 . S
O1127 U1126 2.454 . S
O1127 C1129 1.353 . S
O1128 U1126 2.458 . S
O1128 C1129 1.286 . S
C1129 U1126 2.984 . S
C1129 O1127 1.353 . S
C1129 O1128 1.286 . S
C1129 C1131 1.363 . S
C1130 C1120 1.465 . S
C1130 U1126 2.847 . S
C1130 O1144 1.249 . S
C1130 O1145 1.202 . S
C1131 C1129 1.363 . S
C1131 C1133 1.408 . S
C1131 C1136 1.342 . S
C1132 C1133 1.310 . S
C1132 C1135 1.461 . S
C1132 H1152 0.932 . S
C1133 C1131 1.408 . S
C1133 C1132 1.310 . S
C1133 H1153 0.930 . S
C1134 C1135 1.474 . S
C1134 C1136 1.285 . S
C1134 H1154 0.929 . S
C1135 C1132 1.461 . S
C1135 C1134 1.474 . S
C1136 C1131 1.342 . S
C1136 C1134 1.285 . S
C1136 H1155 0.930 . S
C1137 C1140 1.424 . S
C1137 C1142 1.245 . S
C1137 C1143 1.428 . S
C1138 C1141 1.260 . S
C1138 C1142 1.477 . S
C1138 H1156 0.932 . S
C1139 C1140 1.384 . S
C1139 C1141 1.479 . S
C1139 H1157 0.929 . S
C1140 C1137 1.424 . S
C1140 C1139 1.384 . S
C1140 H1158 0.928 . S
C1141 C1138 1.260 . S
C1141 C1139 1.479 . S
C1142 C1137 1.245 . S
C1142 C1138 1.477 . S
C1142 H1159 0.932 . S
C1143 U1126 2.882 . S
C1143 C1137 1.428 . S
C1143 O1146 1.301 . S
C1143 O1147 1.282 . S
O1144 U1126 2.441 . S
O1144 C1130 1.249 . S
O1145 U1126 2.420 . S
O1145 C1130 1.202 . S
O1146 U1126 2.455 . S
O1146 C1143 1.301 . S
O1147 U1126 2.449 . S
O1147 C1143 1.282 . S
H1148 C1121 0.931 . S
H1149 C1123 0.929 . S
H1150 C1124 0.930 . S
H1151 C1125 0.931 . S
H1152 C1132 0.932 . S
H1153 C1133 0.930 . S
H1154 C1134 0.929 . S
H1155 C1136 0.930 . S
H1156 C1138 0.932 . S
H1157 C1139 0.929 . S
H1158 C1140 0.928 . S
H1159 C1142 0.932 . S
C1160 C1161 1.264 . S
C1160 C1165 1.479 . S
C1160 C1170 1.465 . S
C1161 C1160 1.264 . S
C1161 C1163 1.339 1_554 S
C1161 H1188 0.931 . S
C1162 C1163 1.395 . S
C1162 C1164 1.320 1_556 S
C1163 C1161 1.339 1_556 S
C1163 C1162 1.395 . S
C1163 H1189 0.929 . S
C1164 C1162 1.320 1_554 S
C1164 C1165 1.405 . S
C1164 H1190 0.930 . S
C1165 C1160 1.479 . S
C1165 C1164 1.405 . S
C1165 H1191 0.931 . S
U1166 O1167 2.454 . S
U1166 O1168 2.458 . S
U1166 C1169 2.984 . S
U1166 C1170 2.847 . S
U1166 C1183 2.882 . S
U1166 O1184 2.441 . S
U1166 O1185 2.420 . S
U1166 O1186 2.455 . S
U1166 O1187 2.449 . S
O1167 U1166 2.454 . S
O1167 C1169 1.353 . S
O1168 U1166 2.458 . S
O1168 C1169 1.286 . S
C1169 U1166 2.984 . S
C1169 O1167 1.353 . S
C1169 O1168 1.286 . S
C1169 C1171 1.363 . S
C1170 C1160 1.465 . S
C1170 U1166 2.847 . S
C1170 O1184 1.249 . S
C1170 O1185 1.202 . S
C1171 C1169 1.363 . S
C1171 C1173 1.408 . S
C1171 C1176 1.342 . S
C1172 C1173 1.310 . S
C1172 C1175 1.461 . S
C1172 H1192 0.932 . S
C1173 C1171 1.408 . S
C1173 C1172 1.310 . S
C1173 H1193 0.930 . S
C1174 C1175 1.474 . S
C1174 C1176 1.285 . S
C1174 H1194 0.929 . S
C1175 C1172 1.461 . S
C1175 C1174 1.474 . S
C1176 C1171 1.342 . S
C1176 C1174 1.285 . S
C1176 H1195 0.930 . S
C1177 C1180 1.424 . S
C1177 C1182 1.245 . S
C1177 C1183 1.428 . S
C1178 C1181 1.260 . S
C1178 C1182 1.477 . S
C1178 H1196 0.932 . S
C1179 C1180 1.384 . S
C1179 C1181 1.479 . S
C1179 H1197 0.948 . S
C1180 C1177 1.424 . S
C1180 C1179 1.384 . S
C1180 H1198 0.928 . S
C1181 C1178 1.260 . S
C1181 C1179 1.479 . S
C1182 C1177 1.245 . S
C1182 C1178 1.477 . S
C1182 H1199 0.932 . S
C1183 U1166 2.882 . S
C1183 C1177 1.428 . S
C1183 O1186 1.301 . S
C1183 O1187 1.282 . S
O1184 U1166 2.441 . S
O1184 C1170 1.249 . S
O1185 U1166 2.420 . S
O1185 C1170 1.202 . S
O1186 U1166 2.455 . S
O1186 C1183 1.301 . S
O1187 U1166 2.449 . S
O1187 C1183 1.282 . S
H1188 C1161 0.931 . S
H1189 C1163 0.929 . S
H1190 C1164 0.930 . S
H1191 C1165 0.931 . S
H1192 C1172 0.932 . S
H1193 C1173 0.930 . S
H1194 C1174 0.929 . S
H1195 C1176 0.930 . S
H1196 C1178 0.932 . S
H1197 C1179 0.948 . S
H1198 C1180 0.928 . S
H1199 C1182 0.932 . S
C1200 C1201 1.264 . S
C1200 C1205 1.479 . S
C1200 C1210 1.465 . S
C1201 C1200 1.264 . S
C1201 C1203 1.339 . S
C1201 H1228 0.931 . S
C1202 C1203 1.395 . S
C1202 C1204 1.320 . S
C1203 C1201 1.339 . S
C1203 C1202 1.395 . S
C1203 H1229 0.929 . S
C1204 C1202 1.320 . S
C1204 C1205 1.405 . S
C1204 H1230 0.930 . S
C1205 C1200 1.479 . S
C1205 C1204 1.405 . S
C1205 H1231 0.931 . S
U1206 O1207 2.454 . S
U1206 O1208 2.458 . S
U1206 C1209 2.984 . S
U1206 C1210 2.847 . S
U1206 C1223 2.882 . S
U1206 O1224 2.441 . S
U1206 O1225 2.420 . S
U1206 O1226 2.455 . S
U1206 O1227 2.449 . S
O1207 U1206 2.454 . S
O1207 C1209 1.353 . S
O1208 U1206 2.458 . S
O1208 C1209 1.286 . S
C1209 U1206 2.984 . S
C1209 O1207 1.353 . S
C1209 O1208 1.286 . S
C1209 C1211 1.363 . S
C1210 C1200 1.465 . S
C1210 U1206 2.847 . S
C1210 O1224 1.249 . S
C1210 O1225 1.202 . S
C1211 C1209 1.363 . S
C1211 C1213 1.408 . S
C1211 C1216 1.342 . S
C1212 C1213 1.310 . S
C1212 C1215 1.461 . S
C1212 H1232 0.932 . S
C1213 C1211 1.408 . S
C1213 C1212 1.310 . S
C1213 H1233 0.930 . S
C1214 C1215 1.474 . S
C1214 C1216 1.285 . S
C1214 H1234 0.929 . S
C1215 C1212 1.461 . S
C1215 C1214 1.474 . S
C1216 C1211 1.342 . S
C1216 C1214 1.285 . S
C1216 H1235 0.930 . S
C1217 C1220 1.424 . S
C1217 C1222 1.245 . S
C1217 C1223 1.428 . S
C1218 C1221 1.260 . S
C1218 C1222 1.477 . S
C1218 H1236 0.932 . S
C1219 C1220 1.384 . S
C1219 C1221 1.479 . S
C1219 H1237 0.929 . S
C1220 C1217 1.424 . S
C1220 C1219 1.384 . S
C1220 H1238 0.928 . S
C1221 C1218 1.260 . S
C1221 C1219 1.479 . S
C1222 C1217 1.245 . S
C1222 C1218 1.477 . S
C1222 H1239 0.932 . S
C1223 U1206 2.882 . S
C1223 C1217 1.428 . S
C1223 O1226 1.301 . S
C1223 O1227 1.282 . S
O1224 U1206 2.441 . S
O1224 C1210 1.249 . S
O1225 U1206 2.420 . S
O1225 C1210 1.202 . S
O1226 U1206 2.455 . S
O1226 C1223 1.301 . S
O1227 U1206 2.449 . S
O1227 C1223 1.282 . S
H1228 C1201 0.931 . S
H1229 C1203 0.929 . S
H1230 C1204 0.930 . S
H1231 C1205 0.931 . S
H1232 C1212 0.932 . S
H1233 C1213 0.930 . S
H1234 C1214 0.929 . S
H1235 C1216 0.930 . S
H1236 C1218 0.932 . S
H1237 C1219 0.929 . S
H1238 C1220 0.928 . S
H1239 C1222 0.932 . S
C1240 C1241 1.264 . S
C1240 C1245 1.479 . S
C1240 C1250 1.465 . S
C1241 C1240 1.264 . S
C1241 C1243 1.339 . S
C1241 H1268 0.931 . S
C1242 C1243 1.395 . S
C1242 C1244 1.320 . S
C1243 C1241 1.339 . S
C1243 C1242 1.395 . S
C1243 H1269 0.929 . S
C1244 C1242 1.320 . S
C1244 C1245 1.405 . S
C1244 H1270 0.930 . S
C1245 C1240 1.479 . S
C1245 C1244 1.405 . S
C1245 H1271 0.931 . S
U1246 O1247 2.454 . S
U1246 O1248 2.458 . S
U1246 C1249 2.984 . S
U1246 C1250 2.847 . S
U1246 C1263 2.882 . S
U1246 O1264 2.441 . S
U1246 O1265 2.420 . S
U1246 O1266 2.455 . S
U1246 O1267 2.449 . S
O1247 U1246 2.454 . S
O1247 C1249 1.353 . S
O1248 U1246 2.458 . S
O1248 C1249 1.286 . S
C1249 U1246 2.984 . S
C1249 O1247 1.353 . S
C1249 O1248 1.286 . S
C1249 C1251 1.363 . S
C1250 C1240 1.465 . S
C1250 U1246 2.847 . S
C1250 O1264 1.249 . S
C1250 O1265 1.202 . S
C1251 C1249 1.363 . S
C1251 C1253 1.408 . S
C1251 C1256 1.342 . S
C1252 C1253 1.310 . S
C1252 C1255 1.461 . S
C1252 H1272 0.932 . S
C1253 C1251 1.408 . S
C1253 C1252 1.310 . S
C1253 H1273 0.930 . S
C1254 C1255 1.474 . S
C1254 C1256 1.285 . S
C1254 H1274 0.929 . S
C1255 C1252 1.461 . S
C1255 C1254 1.474 . S
C1256 C1251 1.342 . S
C1256 C1254 1.285 . S
C1256 H1275 0.930 . S
C1257 C1260 1.424 . S
C1257 C1262 1.245 . S
C1257 C1263 1.428 . S
C1258 C1261 1.260 . S
C1258 C1262 1.477 . S
C1258 H1276 0.932 . S
C1259 C1260 1.384 . S
C1259 C1261 1.479 . S
C1259 H1277 0.929 . S
C1260 C1257 1.424 . S
C1260 C1259 1.384 . S
C1260 H1278 0.928 . S
C1261 C1258 1.260 . S
C1261 C1259 1.479 . S
C1262 C1257 1.245 . S
C1262 C1258 1.477 . S
C1262 H1279 0.932 . S
C1263 U1246 2.882 . S
C1263 C1257 1.428 . S
C1263 O1266 1.301 . S
C1263 O1267 1.282 . S
O1264 U1246 2.441 . S
O1264 C1250 1.249 . S
O1265 U1246 2.420 . S
O1265 C1250 1.202 . S
O1266 U1246 2.455 . S
O1266 C1263 1.301 . S
O1267 U1246 2.449 . S
O1267 C1263 1.282 . S
H1268 C1241 0.931 . S
H1269 C1243 0.929 . S
H1270 C1244 0.930 . S
H1271 C1245 0.931 . S
H1272 C1252 0.932 . S
H1273 C1253 0.930 . S
H1274 C1254 0.929 . S
H1275 C1256 0.930 . S
H1276 C1258 0.932 . S
H1277 C1259 0.929 . S
H1278 C1260 0.928 . S
H1279 C1262 0.932 . S
C1280 C1281 1.264 . S
C1280 C1285 1.479 . S
C1280 C1290 1.465 . S
C1281 C1280 1.264 . S
C1281 C1283 1.339 . S
C1281 H1308 0.931 . S
C1282 C1283 1.395 . S
C1282 C1284 1.320 . S
C1283 C1281 1.339 . S
C1283 C1282 1.395 . S
C1283 H1309 0.929 . S
C1284 C1282 1.320 . S
C1284 C1285 1.405 . S
C1284 H1310 0.930 . S
C1285 C1280 1.479 . S
C1285 C1284 1.405 . S
C1285 H1311 0.931 . S
U1286 O1287 2.454 . S
U1286 O1288 2.458 . S
U1286 C1289 2.984 . S
U1286 C1290 2.847 . S
U1286 C1303 2.882 . S
U1286 O1304 2.441 . S
U1286 O1305 2.420 . S
U1286 O1306 2.455 . S
U1286 O1307 2.449 . S
O1287 U1286 2.454 . S
O1287 C1289 1.353 . S
O1288 U1286 2.458 . S
O1288 C1289 1.286 . S
C1289 U1286 2.984 . S
C1289 O1287 1.353 . S
C1289 O1288 1.286 . S
C1289 C1291 1.363 . S
C1290 C1280 1.465 . S
C1290 U1286 2.847 . S
C1290 O1304 1.249 . S
C1290 O1305 1.202 . S
C1291 C1289 1.363 . S
C1291 C1293 1.408 . S
C1291 C1296 1.342 . S
C1292 C1293 1.310 . S
C1292 C1295 1.461 . S
C1292 H1312 0.932 . S
C1293 C1291 1.408 . S
C1293 C1292 1.310 . S
C1293 H1313 0.930 . S
C1294 C1295 1.474 . S
C1294 C1296 1.285 . S
C1294 H1314 0.929 . S
C1295 C1292 1.461 . S
C1295 C1294 1.474 . S
C1296 C1291 1.342 . S
C1296 C1294 1.285 . S
C1296 H1315 0.930 . S
C1297 C1300 1.424 . S
C1297 C1302 1.245 . S
C1297 C1303 1.428 . S
C1298 C1301 1.260 . S
C1298 C1302 1.477 . S
C1298 H1316 0.932 . S
C1299 C1300 1.384 . S
C1299 C1301 1.479 . S
C1299 H1317 0.929 . S
C1300 C1297 1.424 . S
C1300 C1299 1.384 . S
C1300 H1318 0.928 . S
C1301 C1298 1.260 . S
C1301 C1299 1.479 . S
C1302 C1297 1.245 . S
C1302 C1298 1.477 . S
C1302 H1319 0.932 . S
C1303 U1286 2.882 . S
C1303 C1297 1.428 . S
C1303 O1306 1.301 . S
C1303 O1307 1.282 . S
O1304 U1286 2.441 . S
O1304 C1290 1.249 . S
O1305 U1286 2.420 . S
O1305 C1290 1.202 . S
O1306 U1286 2.455 . S
O1306 C1303 1.301 . S
O1307 U1286 2.449 . S
O1307 C1303 1.282 . S
H1308 C1281 0.931 . S
H1309 C1283 0.929 . S
H1310 C1284 0.930 . S
H1311 C1285 0.931 . S
H1312 C1292 0.932 . S
H1313 C1293 0.930 . S
H1314 C1294 0.929 . S
H1315 C1296 0.930 . S
H1316 C1298 0.932 . S
H1317 C1299 0.929 . S
H1318 C1300 0.928 . S
H1319 C1302 0.932 . S
C1320 C1321 1.264 . S
C1320 C1325 1.479 . S
C1320 C1330 1.465 . S
C1321 C1320 1.264 . S
C1321 C1323 1.339 . S
C1321 H1348 0.931 . S
C1322 C1323 1.395 . S
C1322 C1324 1.320 . S
C1323 C1321 1.339 . S
C1323 C1322 1.395 . S
C1323 H1349 0.929 . S
C1324 C1322 1.320 . S
C1324 C1325 1.405 . S
C1324 H1350 0.930 . S
C1325 C1320 1.479 . S
C1325 C1324 1.405 . S
C1325 H1351 0.931 . S
U1326 O1327 2.454 . S
U1326 O1328 2.458 . S
U1326 C1329 2.984 . S
U1326 C1330 2.847 . S
U1326 C1343 2.882 . S
U1326 O1344 2.441 . S
U1326 O1345 2.420 . S
U1326 O1346 2.455 . S
U1326 O1347 2.449 . S
O1327 U1326 2.454 . S
O1327 C1329 1.353 . S
O1328 U1326 2.458 . S
O1328 C1329 1.286 . S
C1329 U1326 2.984 . S
C1329 O1327 1.353 . S
C1329 O1328 1.286 . S
C1329 C1331 1.363 . S
C1330 C1320 1.465 . S
C1330 U1326 2.847 . S
C1330 O1344 1.249 . S
C1330 O1345 1.202 . S
C1331 C1329 1.363 . S
C1331 C1333 1.408 . S
C1331 C1336 1.342 . S
C1332 C1333 1.310 . S
C1332 C1335 1.461 . S
C1332 H1352 0.932 . S
C1333 C1331 1.408 . S
C1333 C1332 1.310 . S
C1333 H1353 0.930 . S
C1334 C1335 1.474 . S
C1334 C1336 1.285 . S
C1334 H1354 0.929 . S
C1335 C1332 1.461 . S
C1335 C1334 1.474 . S
C1336 C1331 1.342 . S
C1336 C1334 1.285 . S
C1336 H1355 0.930 . S
C1337 C1340 1.424 . S
C1337 C1342 1.245 . S
C1337 C1343 1.428 . S
C1338 C1341 1.260 . S
C1338 C1342 1.477 . S
C1338 H1356 0.932 . S
C1339 C1340 1.384 . S
C1339 C1341 1.479 . S
C1339 H1357 0.929 . S
C1340 C1337 1.424 . S
C1340 C1339 1.384 . S
C1340 H1358 0.928 . S
C1341 C1338 1.260 . S
C1341 C1339 1.479 . S
C1342 C1337 1.245 . S
C1342 C1338 1.477 . S
C1342 H1359 0.932 . S
C1343 U1326 2.882 . S
C1343 C1337 1.428 . S
C1343 O1346 1.301 . S
C1343 O1347 1.282 . S
O1344 U1326 2.441 . S
O1344 C1330 1.249 . S
O1345 U1326 2.420 . S
O1345 C1330 1.202 . S
O1346 U1326 2.455 . S
O1346 C1343 1.301 . S
O1347 U1326 2.449 . S
O1347 C1343 1.282 . S
H1348 C1321 0.931 . S
H1349 C1323 0.929 . S
H1350 C1324 0.930 . S
H1351 C1325 0.931 . S
H1352 C1332 0.932 . S
H1353 C1333 0.930 . S
H1354 C1334 0.929 . S
H1355 C1336 0.930 . S
H1356 C1338 0.932 . S
H1357 C1339 0.929 . S
H1358 C1340 0.928 . S
H1359 C1342 0.932 . S
C1360 C1361 1.264 . S
C1360 C1365 1.479 . S
C1360 C1370 1.465 . S
C1361 C1360 1.264 . S
C1361 C1363 1.339 . S
C1361 H1388 0.931 . S
C1362 C1363 1.395 . S
C1362 C1364 1.320 . S
C1363 C1361 1.339 . S
C1363 C1362 1.395 . S
C1363 H1389 0.929 . S
C1364 C1362 1.320 . S
C1364 C1365 1.405 . S
C1364 H1390 0.930 . S
C1365 C1360 1.479 . S
C1365 C1364 1.405 . S
C1365 H1391 0.931 . S
U1366 O1367 2.454 1_556 S
U1366 O1368 2.458 1_556 S
U1366 C1369 2.984 1_556 S
U1366 C1370 2.847 . S
U1366 C1383 2.885 . S
U1366 O1384 2.441 . S
U1366 O1385 2.420 . S
U1366 O1386 2.455 1_556 S
U1366 O1387 2.449 . S
O1367 U1366 2.454 1_554 S
O1367 C1369 1.353 . S
O1368 U1366 2.458 1_554 S
O1368 C1369 1.286 . S
C1369 U1366 2.984 1_554 S
C1369 O1367 1.353 . S
C1369 O1368 1.286 . S
C1369 C1371 1.363 . S
C1370 C1360 1.465 . S
C1370 U1366 2.847 . S
C1370 O1384 1.249 . S
C1370 O1385 1.202 . S
C1371 C1369 1.363 . S
C1371 C1373 1.408 . S
C1371 C1376 1.342 . S
C1372 C1373 1.310 . S
C1372 C1375 1.461 . S
C1372 H1392 0.932 . S
C1373 C1371 1.408 . S
C1373 C1372 1.310 . S
C1373 H1393 0.930 . S
C1374 C1375 1.474 . S
C1374 C1376 1.285 . S
C1374 H1394 0.929 . S
C1375 C1372 1.461 . S
C1375 C1374 1.474 . S
C1376 C1371 1.342 . S
C1376 C1374 1.285 . S
C1376 H1395 0.930 . S
C1377 C1380 1.351 1_554 S
C1377 C1382 1.321 . S
C1377 C1383 1.428 1_554 S
C1378 C1381 1.260 . S
C1378 C1382 1.477 . S
C1378 H1396 0.932 . S
C1379 C1380 1.384 . S
C1379 C1381 1.479 1_556 S
C1379 H1397 0.929 . S
C1380 C1377 1.351 1_556 S
C1380 C1379 1.384 . S
C1380 H1398 0.928 . S
C1381 C1378 1.260 . S
C1381 C1379 1.479 1_554 S
C1382 C1377 1.321 . S
C1382 C1378 1.477 . S
C1382 H1399 0.932 . S
C1383 U1366 2.885 . S
C1383 C1377 1.428 1_556 S
C1383 O1386 1.238 1_556 S
C1383 O1387 1.349 . S
O1384 U1366 2.441 . S
O1384 C1370 1.249 . S
O1385 U1366 2.420 . S
O1385 C1370 1.202 . S
O1386 U1366 2.455 1_554 S
O1386 C1383 1.238 1_554 S
O1387 U1366 2.449 . S
O1387 C1383 1.349 . S
H1388 C1361 0.931 . S
H1389 C1363 0.929 . S
H1390 C1364 0.930 . S
H1391 C1365 0.931 . S
H1392 C1372 0.932 . S
H1393 C1373 0.930 . S
H1394 C1374 0.929 . S
H1395 C1376 0.930 . S
H1396 C1378 0.932 . S
H1397 C1379 0.929 . S
H1398 C1380 0.928 . S
H1399 C1382 0.932 . S
C1400 C1401 1.264 . S
C1400 C1405 1.479 . S
C1400 C1410 1.465 . S
C1401 C1400 1.264 . S
C1401 C1403 1.339 . S
C1401 H1428 0.931 . S
C1402 C1403 1.395 . S
C1402 C1404 1.320 . S
C1403 C1401 1.339 . S
C1403 C1402 1.395 . S
C1403 H1429 0.929 . S
C1404 C1402 1.320 . S
C1404 C1405 1.405 . S
C1404 H1430 0.930 . S
C1405 C1400 1.479 . S
C1405 C1404 1.405 . S
C1405 H1431 0.931 . S
U1406 O1407 2.454 . S
U1406 O1408 2.458 . S
U1406 C1409 2.984 . S
U1406 C1410 2.847 . S
U1406 C1423 2.882 . S
U1406 O1424 2.441 . S
U1406 O1425 2.420 . S
U1406 O1426 2.455 . S
U1406 O1427 2.449 . S
O1407 U1406 2.454 . S
O1407 C1409 1.353 . S
O1408 U1406 2.458 . S
O1408 C1409 1.286 . S
C1409 U1406 2.984 . S
C1409 O1407 1.353 . S
C1409 O1408 1.286 . S
C1409 C1411 1.363 . S
C1410 C1400 1.465 . S
C1410 U1406 2.847 . S
C1410 O1424 1.249 . S
C1410 O1425 1.202 . S
C1411 C1409 1.363 . S
C1411 C1413 1.408 . S
C1411 C1416 1.342 . S
C1412 C1413 1.310 . S
C1412 C1415 1.461 . S
C1412 H1432 0.932 . S
C1413 C1411 1.408 . S
C1413 C1412 1.310 . S
C1413 H1433 0.930 . S
C1414 C1415 1.474 . S
C1414 C1416 1.285 . S
C1414 H1434 0.929 . S
C1415 C1412 1.461 . S
C1415 C1414 1.474 . S
C1416 C1411 1.342 . S
C1416 C1414 1.285 . S
C1416 H1435 0.930 . S
C1417 C1420 1.424 . S
C1417 C1422 1.245 . S
C1417 C1423 1.428 . S
C1418 C1421 1.260 . S
C1418 C1422 1.477 . S
C1418 H1436 0.932 . S
C1419 C1420 1.384 . S
C1419 C1421 1.479 . S
C1419 H1437 0.929 . S
C1420 C1417 1.424 . S
C1420 C1419 1.384 . S
C1420 H1438 0.928 . S
C1421 C1418 1.260 . S
C1421 C1419 1.479 . S
C1422 C1417 1.245 . S
C1422 C1418 1.477 . S
C1422 H1439 0.932 . S
C1423 U1406 2.882 . S
C1423 C1417 1.428 . S
C1423 O1426 1.301 . S
C1423 O1427 1.282 . S
O1424 U1406 2.441 . S
O1424 C1410 1.249 . S
O1425 U1406 2.420 . S
O1425 C1410 1.202 . S
O1426 U1406 2.455 . S
O1426 C1423 1.301 . S
O1427 U1406 2.449 . S
O1427 C1423 1.282 . S
H1428 C1401 0.931 . S
H1429 C1403 0.929 . S
H1430 C1404 0.930 . S
H1431 C1405 0.931 . S
H1432 C1412 0.932 . S
H1433 C1413 0.930 . S
H1434 C1414 0.929 . S
H1435 C1416 0.930 . S
H1436 C1418 0.932 . S
H1437 C1419 0.929 . S
H1438 C1420 0.928 . S
H1439 C1422 0.932 . S
C1440 C1441 1.264 . S
C1440 C1445 1.479 . S
C1440 C1450 1.465 . S
C1441 C1440 1.264 . S
C1441 C1443 1.339 . S
C1441 H1468 0.931 . S
C1442 C1443 1.395 . S
C1442 C1444 1.320 . S
C1443 C1441 1.339 . S
C1443 C1442 1.395 . S
C1443 H1469 0.929 . S
C1444 C1442 1.320 . S
C1444 C1445 1.405 . S
C1444 H1470 0.930 . S
C1445 C1440 1.479 . S
C1445 C1444 1.405 . S
C1445 H1471 0.931 . S
U1446 O1447 2.454 . S
U1446 O1448 2.458 . S
U1446 C1449 2.984 . S
U1446 C1450 2.847 . S
U1446 C1463 2.882 . S
U1446 O1464 2.441 . S
U1446 O1465 2.420 . S
U1446 O1466 2.455 . S
U1446 O1467 2.449 . S
O1447 U1446 2.454 . S
O1447 C1449 1.353 . S
O1448 U1446 2.458 . S
O1448 C1449 1.286 . S
C1449 U1446 2.984 . S
C1449 O1447 1.353 . S
C1449 O1448 1.286 . S
C1449 C1451 1.363 . S
C1450 C1440 1.465 . S
C1450 U1446 2.847 . S
C1450 O1464 1.249 . S
C1450 O1465 1.202 . S
C1451 C1449 1.363 . S
C1451 C1453 1.408 . S
C1451 C1456 1.342 . S
C1452 C1453 1.310 . S
C1452 C1455 1.461 . S
C1452 H1472 0.932 . S
C1453 C1451 1.408 . S
C1453 C1452 1.310 . S
C1453 H1473 0.930 . S
C1454 C1455 1.474 . S
C1454 C1456 1.285 . S
C1454 H1474 0.929 . S
C1455 C1452 1.461 . S
C1455 C1454 1.474 . S
C1456 C1451 1.342 . S
C1456 C1454 1.285 . S
C1456 H1475 0.930 . S
C1457 C1460 1.424 . S
C1457 C1462 1.245 . S
C1457 C1463 1.428 . S
C1458 C1461 1.260 . S
C1458 C1462 1.477 . S
C1458 H1476 0.932 . S
C1459 C1460 1.384 . S
C1459 C1461 1.479 . S
C1459 H1477 0.929 . S
C1460 C1457 1.424 . S
C1460 C1459 1.384 . S
C1460 H1478 0.928 . S
C1461 C1458 1.260 . S
C1461 C1459 1.479 . S
C1462 C1457 1.245 . S
C1462 C1458 1.477 . S
C1462 H1479 0.932 . S
C1463 U1446 2.882 . S
C1463 C1457 1.428 . S
C1463 O1466 1.301 . S
C1463 O1467 1.282 . S
O1464 U1446 2.441 . S
O1464 C1450 1.249 . S
O1465 U1446 2.420 . S
O1465 C1450 1.202 . S
O1466 U1446 2.455 . S
O1466 C1463 1.301 . S
O1467 U1446 2.449 . S
O1467 C1463 1.282 . S
H1468 C1441 0.931 . S
H1469 C1443 0.929 . S
H1470 C1444 0.930 . S
H1471 C1445 0.931 . S
H1472 C1452 0.932 . S
H1473 C1453 0.930 . S
H1474 C1454 0.929 . S
H1475 C1456 0.930 . S
H1476 C1458 0.932 . S
H1477 C1459 0.929 . S
H1478 C1460 0.928 . S
H1479 C1462 0.932 . S
C1480 C1481 1.264 . S
C1480 C1485 1.479 . S
C1480 C1490 1.465 . S
C1481 C1480 1.264 . S
C1481 C1483 1.339 . S
C1481 H1508 0.931 . S
C1482 C1483 1.395 . S
C1482 C1484 1.320 . S
C1483 C1481 1.339 . S
C1483 C1482 1.395 . S
C1483 H1509 0.929 . S
C1484 C1482 1.320 . S
C1484 C1485 1.405 . S
C1484 H1510 0.930 . S
C1485 C1480 1.479 . S
C1485 C1484 1.405 . S
C1485 H1511 0.931 . S
U1486 O1487 2.454 . S
U1486 O1488 2.458 . S
U1486 C1489 2.984 . S
U1486 C1490 2.847 . S
U1486 C1503 2.882 . S
U1486 O1504 2.441 . S
U1486 O1505 2.420 . S
U1486 O1506 2.455 . S
U1486 O1507 2.449 . S
O1487 U1486 2.454 . S
O1487 C1489 1.353 . S
O1488 U1486 2.458 . S
O1488 C1489 1.286 . S
C1489 U1486 2.984 . S
C1489 O1487 1.353 . S
C1489 O1488 1.286 . S
C1489 C1491 1.363 . S
C1490 C1480 1.465 . S
C1490 U1486 2.847 . S
C1490 O1504 1.249 . S
C1490 O1505 1.202 . S
C1491 C1489 1.363 . S
C1491 C1493 1.408 . S
C1491 C1496 1.342 . S
C1492 C1493 1.310 . S
C1492 C1495 1.461 . S
C1492 H1512 0.932 . S
C1493 C1491 1.408 . S
C1493 C1492 1.310 . S
C1493 H1513 0.930 . S
C1494 C1495 1.474 . S
C1494 C1496 1.285 . S
C1494 H1514 0.929 . S
C1495 C1492 1.461 . S
C1495 C1494 1.474 . S
C1496 C1491 1.342 . S
C1496 C1494 1.285 . S
C1496 H1515 0.930 . S
C1497 C1500 1.424 . S
C1497 C1502 1.245 . S
C1497 C1503 1.428 . S
C1498 C1501 1.260 . S
C1498 C1502 1.477 . S
C1498 H1516 0.932 . S
C1499 C1500 1.384 . S
C1499 C1501 1.479 . S
C1499 H1517 0.929 . S
C1500 C1497 1.424 . S
C1500 C1499 1.384 . S
C1500 H1518 0.928 . S
C1501 C1498 1.260 . S
C1501 C1499 1.479 . S
C1502 C1497 1.245 . S
C1502 C1498 1.477 . S
C1502 H1519 0.932 . S
C1503 U1486 2.882 . S
C1503 C1497 1.428 . S
C1503 O1506 1.301 . S
C1503 O1507 1.282 . S
O1504 U1486 2.441 . S
O1504 C1490 1.249 . S
O1505 U1486 2.420 . S
O1505 C1490 1.202 . S
O1506 U1486 2.455 . S
O1506 C1503 1.301 . S
O1507 U1486 2.449 . S
O1507 C1503 1.282 . S
H1508 C1481 0.931 . S
H1509 C1483 0.929 . S
H1510 C1484 0.930 . S
H1511 C1485 0.931 . S
H1512 C1492 0.932 . S
H1513 C1493 0.930 . S
H1514 C1494 0.929 . S
H1515 C1496 0.930 . S
H1516 C1498 0.932 . S
H1517 C1499 0.929 . S
H1518 C1500 0.928 . S
H1519 C1502 0.932 . S
C1520 C1521 1.264 . S
C1520 C1525 1.479 . S
C1520 C1530 1.465 . S
C1521 C1520 1.264 . S
C1521 C1523 1.339 . S
C1521 H1548 0.931 . S
C1522 C1523 1.395 . S
C1522 C1524 1.320 . S
C1523 C1521 1.339 . S
C1523 C1522 1.395 . S
C1523 H1549 0.929 . S
C1524 C1522 1.320 . S
C1524 C1525 1.405 . S
C1524 H1550 0.930 . S
C1525 C1520 1.479 . S
C1525 C1524 1.405 . S
C1525 H1551 0.931 . S
U1526 O1527 2.454 . S
U1526 O1528 2.458 . S
U1526 C1529 2.984 . S
U1526 C1530 2.847 . S
U1526 C1543 2.882 . S
U1526 O1544 2.441 . S
U1526 O1545 2.420 . S
U1526 O1546 2.455 . S
U1526 O1547 2.449 . S
O1527 U1526 2.454 . S
O1527 C1529 1.353 . S
O1528 U1526 2.458 . S
O1528 C1529 1.286 . S
C1529 U1526 2.984 . S
C1529 O1527 1.353 . S
C1529 O1528 1.286 . S
C1529 C1531 1.363 . S
C1530 C1520 1.465 . S
C1530 U1526 2.847 . S
C1530 O1544 1.249 . S
C1530 O1545 1.202 . S
C1531 C1529 1.363 . S
C1531 C1533 1.408 . S
C1531 C1536 1.342 . S
C1532 C1533 1.310 . S
C1532 C1535 1.461 . S
C1532 H1552 0.932 . S
C1533 C1531 1.408 . S
C1533 C1532 1.310 . S
C1533 H1553 0.930 . S
C1534 C1535 1.474 . S
C1534 C1536 1.285 . S
C1534 H1554 0.929 . S
C1535 C1532 1.461 . S
C1535 C1534 1.474 . S
C1536 C1531 1.342 . S
C1536 C1534 1.285 . S
C1536 H1555 0.930 . S
C1537 C1540 1.424 . S
C1537 C1542 1.245 . S
C1537 C1543 1.428 . S
C1538 C1541 1.260 . S
C1538 C1542 1.477 . S
C1538 H1556 0.932 . S
C1539 C1540 1.384 . S
C1539 C1541 1.479 . S
C1539 H1557 0.929 . S
C1540 C1537 1.424 . S
C1540 C1539 1.384 . S
C1540 H1558 0.928 . S
C1541 C1538 1.260 . S
C1541 C1539 1.479 . S
C1542 C1537 1.245 . S
C1542 C1538 1.477 . S
C1542 H1559 0.932 . S
C1543 U1526 2.882 . S
C1543 C1537 1.428 . S
C1543 O1546 1.301 . S
C1543 O1547 1.282 . S
O1544 U1526 2.441 . S
O1544 C1530 1.249 . S
O1545 U1526 2.420 . S
O1545 C1530 1.202 . S
O1546 U1526 2.455 . S
O1546 C1543 1.301 . S
O1547 U1526 2.449 . S
O1547 C1543 1.282 . S
H1548 C1521 0.931 . S
H1549 C1523 0.929 . S
H1550 C1524 0.930 . S
H1551 C1525 0.931 . S
H1552 C1532 0.932 . S
H1553 C1533 0.930 . S
H1554 C1534 0.929 . S
H1555 C1536 0.930 . S
H1556 C1538 0.932 . S
H1557 C1539 0.929 . S
H1558 C1540 0.928 . S
H1559 C1542 0.932 . S
C1560 C1561 1.264 . S
C1560 C1565 1.479 . S
C1560 C1570 1.465 . S
C1561 C1560 1.264 . S
C1561 C1563 1.339 . S
C1561 H1588 0.931 . S
C1562 C1563 1.395 . S
C1562 C1564 1.320 . S
C1563 C1561 1.339 . S
C1563 C1562 1.395 . S
C1563 H1589 0.929 . S
C1564 C1562 1.320 . S
C1564 C1565 1.405 . S
C1564 H1590 0.930 . S
C1565 C1560 1.479 . S
C1565 C1564 1.405 . S
C1565 H1591 0.931 . S
U1566 O1567 2.454 . S
U1566 O1568 2.458 . S
U1566 C1569 2.984 . S
U1566 C1570 2.847 . S
U1566 C1583 2.882 . S
U1566 O1584 2.441 . S
U1566 O1585 2.420 . S
U1566 O1586 2.455 . S
U1566 O1587 2.449 . S
O1567 U1566 2.454 . S
O1567 C1569 1.353 . S
O1568 U1566 2.458 . S
O1568 C1569 1.286 . S
C1569 U1566 2.984 . S
C1569 O1567 1.353 . S
C1569 O1568 1.286 . S
C1569 C1571 1.363 . S
C1570 C1560 1.465 . S
C1570 U1566 2.847 . S
C1570 O1584 1.249 . S
C1570 O1585 1.202 . S
C1571 C1569 1.363 . S
C1571 C1573 1.408 . S
C1571 C1576 1.342 . S
C1572 C1573 1.310 . S
C1572 C1575 1.461 . S
C1572 H1592 0.932 . S
C1573 C1571 1.408 . S
C1573 C1572 1.310 . S
C1573 H1593 0.930 . S
C1574 C1575 1.474 . S
C1574 C1576 1.285 . S
C1574 H1594 0.929 . S
C1575 C1572 1.461 . S
C1575 C1574 1.474 . S
C1576 C1571 1.342 . S
C1576 C1574 1.285 . S
C1576 H1595 0.930 . S
C1577 C1580 1.424 . S
C1577 C1582 1.245 . S
C1577 C1583 1.428 . S
C1578 C1581 1.260 . S
C1578 C1582 1.477 . S
C1578 H1596 0.932 . S
C1579 C1580 1.384 . S
C1579 C1581 1.479 . S
C1579 H1597 0.929 . S
C1580 C1577 1.424 . S
C1580 C1579 1.384 . S
C1580 H1598 0.928 . S
C1581 C1578 1.260 . S
C1581 C1579 1.479 . S
C1582 C1577 1.245 . S
C1582 C1578 1.477 . S
C1582 H1599 0.932 . S
C1583 U1566 2.882 . S
C1583 C1577 1.428 . S
C1583 O1586 1.301 . S
C1583 O1587 1.282 . S
O1584 U1566 2.441 . S
O1584 C1570 1.249 . S
O1585 U1566 2.420 . S
O1585 C1570 1.202 . S
O1586 U1566 2.455 . S
O1586 C1583 1.301 . S
O1587 U1566 2.449 . S
O1587 C1583 1.282 . S
H1588 C1561 0.931 . S
H1589 C1563 0.929 . S
H1590 C1564 0.930 . S
H1591 C1565 0.931 . S
H1592 C1572 0.932 . S
H1593 C1573 0.930 . S
H1594 C1574 0.929 . S
H1595 C1576 0.930 . S
H1596 C1578 0.932 . S
H1597 C1579 0.929 . S
H1598 C1580 0.928 . S
H1599 C1582 0.932 . S
C1600 C1601 1.264 . S
C1600 C1605 1.479 . S
C1600 C1610 1.465 . S
C1601 C1600 1.264 . S
C1601 C1603 1.339 . S
C1601 H1628 0.931 . S
C1602 C1603 1.395 . S
C1602 C1604 1.320 . S
C1603 C1601 1.339 . S
C1603 C1602 1.395 . S
C1603 H1629 0.929 . S
C1604 C1602 1.320 . S
C1604 C1605 1.405 . S
C1604 H1630 0.930 . S
C1605 C1600 1.479 . S
C1605 C1604 1.405 . S
C1605 H1631 0.931 . S
U1606 O1607 2.454 . S
U1606 O1608 2.458 . S
U1606 C1609 2.984 . S
U1606 C1610 2.847 . S
U1606 C1623 2.882 . S
U1606 O1624 2.441 . S
U1606 O1625 2.420 . S
U1606 O1626 2.455 . S
U1606 O1627 2.449 . S
O1607 U1606 2.454 . S
O1607 C1609 1.353 . S
O1608 U1606 2.458 . S
O1608 C1609 1.286 . S
C1609 U1606 2.984 . S
C1609 O1607 1.353 . S
C1609 O1608 1.286 . S
C1609 C1611 1.363 . S
C1610 C1600 1.465 . S
C1610 U1606 2.847 . S
C1610 O1624 1.249 . S
C1610 O1625 1.202 . S
C1611 C1609 1.363 . S
C1611 C1613 1.408 . S
C1611 C1616 1.342 . S
C1612 C1613 1.310 . S
C1612 C1615 1.461 . S
C1612 H1632 0.932 . S
C1613 C1611 1.408 . S
C1613 C1612 1.310 . S
C1613 H1633 0.930 . S
C1614 C1615 1.474 . S
C1614 C1616 1.285 . S
C1614 H1634 0.929 . S
C1615 C1612 1.461 . S
C1615 C1614 1.474 . S
C1616 C1611 1.342 . S
C1616 C1614 1.285 . S
C1616 H1635 0.930 . S
C1617 C1620 1.424 . S
C1617 C1622 1.245 . S
C1617 C1623 1.428 . S
C1618 C1621 1.260 . S
C1618 C1622 1.477 . S
C1618 H1636 0.932 . S
C1619 C1620 1.384 . S
C1619 C1621 1.479 . S
C1619 H1637 0.929 . S
C1620 C1617 1.424 . S
C1620 C1619 1.384 . S
C1620 H1638 0.928 . S
C1621 C1618 1.260 . S
C1621 C1619 1.479 . S
C1622 C1617 1.245 . S
C1622 C1618 1.477 . S
C1622 H1639 0.932 . S
C1623 U1606 2.882 . S
C1623 C1617 1.428 . S
C1623 O1626 1.301 . S
C1623 O1627 1.282 . S
O1624 U1606 2.441 . S
O1624 C1610 1.249 . S
O1625 U1606 2.420 . S
O1625 C1610 1.202 . S
O1626 U1606 2.455 . S
O1626 C1623 1.301 . S
O1627 U1606 2.449 . S
O1627 C1623 1.282 . S
H1628 C1601 0.931 . S
H1629 C1603 0.929 . S
H1630 C1604 0.930 . S
H1631 C1605 0.931 . S
H1632 C1612 0.932 . S
H1633 C1613 0.930 . S
H1634 C1614 0.929 . S
H1635 C1616 0.930 . S
H1636 C1618 0.932 . S
H1637 C1619 0.929 . S
H1638 C1620 0.928 . S
H1639 C1622 0.932 . S
C1640 C1641 1.264 . S
C1640 C1645 1.479 . S
C1640 C1650 1.465 . S
C1641 C1640 1.264 . S
C1641 C1643 1.339 . S
C1641 H1668 0.931 . S
C1642 C1643 1.395 . S
C1642 C1644 1.320 . S
C1643 C1641 1.339 . S
C1643 C1642 1.395 . S
C1643 H1669 0.929 . S
C1644 C1642 1.320 . S
C1644 C1645 1.405 . S
C1644 H1670 0.930 . S
C1645 C1640 1.479 . S
C1645 C1644 1.405 . S
C1645 H1671 0.931 . S
U1646 O1647 2.454 1_655 S
U1646 O1648 2.458 1_655 S
U1646 C1649 2.984 1_655 S
U1646 C1650 2.847 . S
U1646 C1663 2.885 . S
U1646 O1664 2.441 . S
U1646 O1665 2.420 . S
U1646 O1666 2.455 1_655 S
U1646 O1667 2.449 . S
O1647 U1646 2.454 1_455 S
O1647 C1649 1.353 . S
O1648 U1646 2.458 1_455 S
O1648 C1649 1.286 . S
C1649 U1646 2.984 1_455 S
C1649 O1647 1.353 . S
C1649 O1648 1.286 . S
C1649 C1651 1.363 . S
C1650 C1640 1.465 . S
C1650 U1646 2.847 . S
C1650 O1664 1.249 . S
C1650 O1665 1.202 . S
C1651 C1649 1.363 . S
C1651 C1653 1.408 . S
C1651 C1656 1.342 . S
C1652 C1653 1.310 . S
C1652 C1655 1.461 . S
C1652 H1672 0.932 . S
C1653 C1651 1.408 . S
C1653 C1652 1.310 . S
C1653 H1673 0.930 . S
C1654 C1655 1.474 . S
C1654 C1656 1.285 . S
C1654 H1674 0.929 . S
C1655 C1652 1.461 . S
C1655 C1654 1.474 . S
C1656 C1651 1.342 . S
C1656 C1654 1.285 . S
C1656 H1675 0.930 . S
C1657 C1660 1.351 1_455 S
C1657 C1662 1.321 . S
C1657 C1663 1.428 1_455 S
C1658 C1661 1.260 . S
C1658 C1662 1.477 . S
C1658 H1676 0.932 . S
C1659 C1660 1.384 . S
C1659 C1661 1.479 1_655 S
C1659 H1677 0.929 . S
C1660 C1657 1.351 1_655 S
C1660 C1659 1.384 . S
C1660 H1678 0.928 . S
C1661 C1658 1.260 . S
C1661 C1659 1.479 1_455 S
C1662 C1657 1.321 . S
C1662 C1658 1.477 . S
C1662 H1679 0.932 . S
C1663 U1646 2.885 . S
C1663 C1657 1.428 1_655 S
C1663 O1666 1.238 1_655 S
C1663 O1667 1.349 . S
O1664 U1646 2.441 . S
O1664 C1650 1.249 . S
O1665 U1646 2.420 . S
O1665 C1650 1.202 . S
O1666 U1646 2.455 1_455 S
O1666 C1663 1.238 1_455 S
O1667 U1646 2.449 . S
O1667 C1663 1.349 . S
H1668 C1641 0.931 . S
H1669 C1643 0.929 . S
H1670 C1644 0.930 . S
H1671 C1645 0.931 . S
H1672 C1652 0.932 . S
H1673 C1653 0.930 . S
H1674 C1654 0.929 . S
H1675 C1656 0.930 . S
H1676 C1658 0.932 . S
H1677 C1659 0.929 . S
H1678 C1660 0.928 . S
H1679 C1662 0.932 . S
C1680 C1681 1.264 . S
C1680 C1685 1.479 . S
C1680 C1690 1.465 . S
C1681 C1680 1.264 . S
C1681 C1683 1.339 . S
C1681 H1708 0.931 . S
C1682 C1683 1.395 . S
C1682 C1684 1.320 . S
C1683 C1681 1.339 . S
C1683 C1682 1.395 . S
C1683 H1709 0.929 . S
C1684 C1682 1.320 . S
C1684 C1685 1.405 . S
C1684 H1710 0.930 . S
C1685 C1680 1.479 . S
C1685 C1684 1.405 . S
C1685 H1711 0.931 . S
U1686 O1687 2.454 . S
U1686 O1688 2.458 . S
U1686 C1689 2.984 . S
U1686 C1690 2.847 . S
U1686 C1703 2.882 . S
U1686 O1704 2.441 . S
U1686 O1705 2.420 . S
U1686 O1706 2.455 . S
U1686 O1707 2.449 . S
O1687 U1686 2.454 . S
O1687 C1689 1.353 . S
O1688 U1686 2.458 . S
O1688 C1689 1.286 . S
C1689 U1686 2.984 . S
C1689 O1687 1.353 . S
C1689 O1688 1.286 . S
C1689 C1691 1.363 . S
C1690 C1680 1.465 . S
C1690 U1686 2.847 . S
C1690 O1704 1.249 . S
C1690 O1705 1.202 . S
C1691 C1689 1.363 . S
C1691 C1693 1.408 . S
C1691 C1696 1.342 . S
C1692 C1693 1.310 . S
C1692 C1695 1.461 . S
C1692 H1712 0.932 . S
C1693 C1691 1.408 . S
C1693 C1692 1.310 . S
C1693 H1713 0.930 . S
C1694 C1695 1.474 . S
C1694 C1696 1.285 . S
C1694 H1714 0.929 . S
C1695 C1692 1.461 . S
C1695 C1694 1.474 . S
C1696 C1691 1.342 . S
C1696 C1694 1.285 . S
C1696 H1715 0.930 . S
C1697 C1700 1.424 . S
C1697 C1702 1.245 . S
C1697 C1703 1.428 . S
C1698 C1701 1.260 . S
C1698 C1702 1.477 . S
C1698 H1716 0.932 . S
C1699 C1700 1.384 . S
C1699 C1701 1.479 . S
C1699 H1717 0.929 . S
C1700 C1697 1.424 . S
C1700 C1699 1.384 . S
C1700 H1718 0.928 . S
C1701 C1698 1.260 . S
C1701 C1699 1.479 . S
C1702 C1697 1.245 . S
C1702 C1698 1.477 . S
C1702 H1719 0.932 . S
C1703 U1686 2.882 . S
C1703 C1697 1.428 . S
C1703 O1706 1.301 . S
C1703 O1707 1.282 . S
O1704 U1686 2.441 . S
O1704 C1690 1.249 . S
O1705 U1686 2.420 . S
O1705 C1690 1.202 . S
O1706 U1686 2.455 . S
O1706 C1703 1.301 . S
O1707 U1686 2.449 . S
O1707 C1703 1.282 . S
H1708 C1681 0.931 . S
H1709 C1683 0.929 . S
H1710 C1684 0.930 . S
H1711 C1685 0.931 . S
H1712 C1692 0.932 . S
H1713 C1693 0.930 . S
H1714 C1694 0.929 . S
H1715 C1696 0.930 . S
H1716 C1698 0.932 . S
H1717 C1699 0.929 . S
H1718 C1700 0.928 . S
H1719 C1702 0.932 . S
C1720 C1721 1.264 . S
C1720 C1725 1.479 . S
C1720 C1730 1.465 . S
C1721 C1720 1.264 . S
C1721 C1723 1.339 . S
C1721 H1748 0.931 . S
C1722 C1723 1.395 . S
C1722 C1724 1.320 . S
C1723 C1721 1.339 . S
C1723 C1722 1.395 . S
C1723 H1749 0.929 . S
C1724 C1722 1.320 . S
C1724 C1725 1.405 . S
C1724 H1750 0.930 . S
C1725 C1720 1.479 . S
C1725 C1724 1.405 . S
C1725 H1751 0.931 . S
U1726 O1727 2.454 . S
U1726 O1728 2.458 . S
U1726 C1729 2.984 . S
U1726 C1730 2.847 . S
U1726 C1743 2.882 . S
U1726 O1744 2.441 . S
U1726 O1745 2.420 . S
U1726 O1746 2.455 . S
U1726 O1747 2.449 . S
O1727 U1726 2.454 . S
O1727 C1729 1.353 . S
O1728 U1726 2.458 . S
O1728 C1729 1.286 . S
C1729 U1726 2.984 . S
C1729 O1727 1.353 . S
C1729 O1728 1.286 . S
C1729 C1731 1.363 . S
C1730 C1720 1.465 . S
C1730 U1726 2.847 . S
C1730 O1744 1.249 . S
C1730 O1745 1.202 . S
C1731 C1729 1.363 . S
C1731 C1733 1.408 . S
C1731 C1736 1.342 . S
C1732 C1733 1.310 . S
C1732 C1735 1.461 . S
C1732 H1752 0.932 . S
C1733 C1731 1.408 . S
C1733 C1732 1.310 . S
C1733 H1753 0.930 . S
C1734 C1735 1.474 . S
C1734 C1736 1.285 . S
C1734 H1754 0.929 . S
C1735 C1732 1.461 . S
C1735 C1734 1.474 . S
C1736 C1731 1.342 . S
C1736 C1734 1.285 . S
C1736 H1755 0.930 . S
C1737 C1740 1.424 . S
C1737 C1742 1.245 . S
C1737 C1743 1.428 . S
C1738 C1741 1.260 . S
C1738 C1742 1.477 . S
C1738 H1756 0.932 . S
C1739 C1740 1.384 . S
C1739 C1741 1.479 . S
C1739 H1757 0.929 . S
C1740 C1737 1.424 . S
C1740 C1739 1.384 . S
C1740 H1758 0.928 . S
C1741 C1738 1.260 . S
C1741 C1739 1.479 . S
C1742 C1737 1.245 . S
C1742 C1738 1.477 . S
C1742 H1759 0.932 . S
C1743 U1726 2.882 . S
C1743 C1737 1.428 . S
C1743 O1746 1.301 . S
C1743 O1747 1.282 . S
O1744 U1726 2.441 . S
O1744 C1730 1.249 . S
O1745 U1726 2.420 . S
O1745 C1730 1.202 . S
O1746 U1726 2.455 . S
O1746 C1743 1.301 . S
O1747 U1726 2.449 . S
O1747 C1743 1.282 . S
H1748 C1721 0.931 . S
H1749 C1723 0.929 . S
H1750 C1724 0.930 . S
H1751 C1725 0.931 . S
H1752 C1732 0.932 . S
H1753 C1733 0.930 . S
H1754 C1734 0.929 . S
H1755 C1736 0.930 . S
H1756 C1738 0.932 . S
H1757 C1739 0.929 . S
H1758 C1740 0.928 . S
H1759 C1742 0.932 . S
C1760 C1761 1.264 . S
C1760 C1765 1.479 . S
C1760 C1770 1.465 . S
C1761 C1760 1.264 . S
C1761 C1763 1.339 . S
C1761 H1788 0.931 . S
C1762 C1763 1.395 . S
C1762 C1764 1.320 . S
C1763 C1761 1.339 . S
C1763 C1762 1.395 . S
C1763 H1789 0.929 . S
C1764 C1762 1.320 . S
C1764 C1765 1.405 . S
C1764 H1790 0.930 . S
C1765 C1760 1.479 . S
C1765 C1764 1.405 . S
C1765 H1791 0.931 . S
U1766 O1767 2.454 . S
U1766 O1768 2.458 . S
U1766 C1769 2.984 . S
U1766 C1770 2.847 . S
U1766 C1783 2.882 . S
U1766 O1784 2.441 . S
U1766 O1785 2.420 . S
U1766 O1786 2.455 . S
U1766 O1787 2.449 . S
O1767 U1766 2.454 . S
O1767 C1769 1.353 . S
O1768 U1766 2.458 . S
O1768 C1769 1.286 . S
C1769 U1766 2.984 . S
C1769 O1767 1.353 . S
C1769 O1768 1.286 . S
C1769 C1771 1.363 . S
C1770 C1760 1.465 . S
C1770 U1766 2.847 . S
C1770 O1784 1.249 . S
C1770 O1785 1.202 . S
C1771 C1769 1.363 . S
C1771 C1773 1.408 . S
C1771 C1776 1.342 . S
C1772 C1773 1.310 . S
C1772 C1775 1.461 . S
C1772 H1792 0.932 . S
C1773 C1771 1.408 . S
C1773 C1772 1.310 . S
C1773 H1793 0.930 . S
C1774 C1775 1.474 . S
C1774 C1776 1.285 . S
C1774 H1794 0.929 . S
C1775 C1772 1.461 . S
C1775 C1774 1.474 . S
C1776 C1771 1.342 . S
C1776 C1774 1.285 . S
C1776 H1795 0.930 . S
C1777 C1780 1.424 . S
C1777 C1782 1.245 . S
C1777 C1783 1.428 . S
C1778 C1781 1.260 . S
C1778 C1782 1.477 . S
C1778 H1796 0.932 . S
C1779 C1780 1.384 . S
C1779 C1781 1.479 . S
C1779 H1797 0.929 . S
C1780 C1777 1.424 . S
C1780 C1779 1.384 . S
C1780 H1798 0.928 . S
C1781 C1778 1.260 . S
C1781 C1779 1.479 . S
C1782 C1777 1.245 . S
C1782 C1778 1.477 . S
C1782 H1799 0.932 . S
C1783 U1766 2.882 . S
C1783 C1777 1.428 . S
C1783 O1786 1.301 . S
C1783 O1787 1.282 . S
O1784 U1766 2.441 . S
O1784 C1770 1.249 . S
O1785 U1766 2.420 . S
O1785 C1770 1.202 . S
O1786 U1766 2.455 . S
O1786 C1783 1.301 . S
O1787 U1766 2.449 . S
O1787 C1783 1.282 . S
H1788 C1761 0.931 . S
H1789 C1763 0.929 . S
H1790 C1764 0.930 . S
H1791 C1765 0.931 . S
H1792 C1772 0.932 . S
H1793 C1773 0.930 . S
H1794 C1774 0.929 . S
H1795 C1776 0.930 . S
H1796 C1778 0.932 . S
H1797 C1779 0.929 . S
H1798 C1780 0.928 . S
H1799 C1782 0.932 . S
C1800 C1801 1.264 . S
C1800 C1805 1.479 . S
C1800 C1810 1.465 . S
C1801 C1800 1.264 . S
C1801 C1803 1.339 . S
C1801 H1828 0.931 . S
C1802 C1803 1.395 . S
C1802 C1804 1.320 . S
C1803 C1801 1.339 . S
C1803 C1802 1.395 . S
C1803 H1829 0.929 . S
C1804 C1802 1.320 . S
C1804 C1805 1.405 . S
C1804 H1830 0.930 . S
C1805 C1800 1.479 . S
C1805 C1804 1.405 . S
C1805 H1831 0.931 . S
U1806 O1807 2.445 1_455 S
U1806 O1808 2.403 1_455 S
U1806 C1809 2.948 1_455 S
U1806 C1810 2.909 . S
U1806 C1823 2.855 1_455 S
U1806 O1824 2.495 . S
U1806 O1825 2.480 . S
U1806 O1826 2.406 1_455 S
U1806 O1827 2.450 1_455 S
O1807 U1806 2.445 1_655 S
O1807 C1809 1.346 . S
O1808 U1806 2.403 1_655 S
O1808 C1809 1.286 . S
C1809 U1806 2.948 1_655 S
C1809 O1807 1.346 . S
C1809 O1808 1.286 . S
C1809 C1811 1.363 . S
C1810 C1800 1.465 . S
C1810 U1806 2.909 . S
C1810 O1824 1.249 . S
C1810 O1825 1.202 . S
C1811 C1809 1.363 . S
C1811 C1813 1.408 . S
C1811 C1816 1.342 . S
C1812 C1813 1.310 . S
C1812 C1815 1.461 . S
C1812 H1832 0.932 . S
C1813 C1811 1.408 . S
C1813 C1812 1.310 . S
C1813 H1833 0.930 . S
C1814 C1815 1.474 . S
C1814 C1816 1.285 . S
C1814 H1834 0.929 . S
C1815 C1812 1.461 . S
C1815 C1814 1.474 . S
C1816 C1811 1.342 . S
C1816 C1814 1.285 . S
C1816 H1835 0.930 . S
C1817 C1820 1.424 . S
C1817 C1822 1.245 . S
C1817 C1823 1.428 . S
C1818 C1821 1.260 . S
C1818 C1822 1.477 . S
C1818 H1836 0.932 . S
C1819 C1820 1.384 . S
C1819 C1821 1.479 . S
C1819 H1837 0.929 . S
C1820 C1817 1.424 . S
C1820 C1819 1.384 . S
C1820 H1838 0.928 . S
C1821 C1818 1.260 . S
C1821 C1819 1.479 . S
C1822 C1817 1.245 . S
C1822 C1818 1.477 . S
C1822 H1839 0.932 . S
C1823 U1806 2.855 1_655 S
C1823 C1817 1.428 . S
C1823 O1826 1.301 . S
C1823 O1827 1.282 . S
O1824 U1806 2.495 . S
O1824 C1810 1.249 . S
O1825 U1806 2.480 . S
O1825 C1810 1.202 . S
O1826 U1806 2.406 1_655 S
O1826 C1823 1.301 . S
O1827 U1806 2.450 1_655 S
O1827 C1823 1.282 . S
H1828 C1801 0.931 . S
H1829 C1803 0.929 . S
H1830 C1804 0.930 . S
H1831 C1805 0.931 . S
H1832 C1812 0.932 . S
H1833 C1813 0.930 . S
H1834 C1814 0.929 . S
H1835 C1816 0.930 . S
H1836 C1818 0.932 . S
H1837 C1819 0.929 . S
H1838 C1820 0.928 . S
H1839 C1822 0.932 . S
C1840 C1841 1.264 . S
C1840 C1845 1.479 . S
C1840 C1850 1.465 . S
C1841 C1840 1.264 . S
C1841 C1843 1.339 . S
C1841 H1868 0.931 . S
C1842 C1843 1.395 . S
C1842 C1844 1.320 . S
C1843 C1841 1.339 . S
C1843 C1842 1.395 . S
C1843 H1869 0.929 . S
C1844 C1842 1.320 . S
C1844 C1845 1.405 . S
C1844 H1870 0.930 . S
C1845 C1840 1.479 . S
C1845 C1844 1.405 . S
C1845 H1871 0.931 . S
U1846 O1847 2.454 . S
U1846 O1848 2.458 . S
U1846 C1849 2.984 . S
U1846 C1850 2.847 . S
U1846 C1863 2.882 . S
U1846 O1864 2.441 . S
U1846 O1865 2.420 . S
U1846 O1866 2.455 . S
U1846 O1867 2.449 . S
O1847 U1846 2.454 . S
O1847 C1849 1.353 . S
O1848 U1846 2.458 . S
O1848 C1849 1.286 . S
C1849 U1846 2.984 . S
C1849 O1847 1.353 . S
C1849 O1848 1.286 . S
C1849 C1851 1.363 . S
C1850 C1840 1.465 . S
C1850 U1846 2.847 . S
C1850 O1864 1.249 . S
C1850 O1865 1.202 . S
C1851 C1849 1.363 . S
C1851 C1853 1.408 . S
C1851 C1856 1.342 . S
C1852 C1853 1.310 . S
C1852 C1855 1.461 . S
C1852 H1872 0.932 . S
C1853 C1851 1.408 . S
C1853 C1852 1.310 . S
C1853 H1873 0.930 . S
C1854 C1855 1.474 . S
C1854 C1856 1.285 . S
C1854 H1874 0.929 . S
C1855 C1852 1.461 . S
C1855 C1854 1.474 . S
C1856 C1851 1.342 . S
C1856 C1854 1.285 . S
C1856 H1875 0.930 . S
C1857 C1860 1.424 . S
C1857 C1862 1.245 . S
C1857 C1863 1.428 . S
C1858 C1861 1.260 . S
C1858 C1862 1.477 . S
C1858 H1876 0.932 . S
C1859 C1860 1.384 . S
C1859 C1861 1.479 . S
C1859 H1877 0.929 . S
C1860 C1857 1.424 . S
C1860 C1859 1.384 . S
C1860 H1878 0.928 . S
C1861 C1858 1.260 . S
C1861 C1859 1.479 . S
C1862 C1857 1.245 . S
C1862 C1858 1.477 . S
C1862 H1879 0.932 . S
C1863 U1846 2.882 . S
C1863 C1857 1.428 . S
C1863 O1866 1.301 . S
C1863 O1867 1.282 . S
O1864 U1846 2.441 . S
O1864 C1850 1.249 . S
O1865 U1846 2.420 . S
O1865 C1850 1.202 . S
O1866 U1846 2.455 . S
O1866 C1863 1.301 . S
O1867 U1846 2.449 . S
O1867 C1863 1.282 . S
H1868 C1841 0.931 . S
H1869 C1843 0.929 . S
H1870 C1844 0.930 . S
H1871 C1845 0.931 . S
H1872 C1852 0.932 . S
H1873 C1853 0.930 . S
H1874 C1854 0.929 . S
H1875 C1856 0.930 . S
H1876 C1858 0.932 . S
H1877 C1859 0.929 . S
H1878 C1860 0.928 . S
H1879 C1862 0.932 . S
C1880 C1881 1.264 . S
C1880 C1885 1.479 . S
C1880 C1890 1.465 . S
C1881 C1880 1.264 . S
C1881 C1883 1.339 1_455 S
C1881 H1908 0.931 . S
C1882 C1883 1.395 . S
C1882 C1884 1.320 1_655 S
C1883 C1881 1.339 1_655 S
C1883 C1882 1.395 . S
C1883 H1909 0.929 . S
C1884 C1882 1.320 1_455 S
C1884 C1885 1.405 . S
C1884 H1910 0.930 . S
C1885 C1880 1.479 . S
C1885 C1884 1.405 . S
C1885 H1911 0.931 . S
U1886 O1887 2.454 . S
U1886 O1888 2.458 . S
U1886 C1889 2.984 . S
U1886 C1890 2.847 . S
U1886 C1903 2.882 . S
U1886 O1904 2.441 . S
U1886 O1905 2.420 . S
U1886 O1906 2.455 . S
U1886 O1907 2.449 . S
O1887 U1886 2.454 . S
O1887 C1889 1.353 . S
O1888 U1886 2.458 . S
O1888 C1889 1.286 . S
C1889 U1886 2.984 . S
C1889 O1887 1.353 . S
C1889 O1888 1.286 . S
C1889 C1891 1.363 . S
C1890 C1880 1.465 . S
C1890 U1886 2.847 . S
C1890 O1904 1.249 . S
C1890 O1905 1.202 . S
C1891 C1889 1.363 . S
C1891 C1893 1.408 . S
C1891 C1896 1.342 . S
C1892 C1893 1.310 . S
C1892 C1895 1.461 . S
C1892 H1912 0.932 . S
C1893 C1891 1.408 . S
C1893 C1892 1.310 . S
C1893 H1913 0.930 . S
C1894 C1895 1.474 . S
C1894 C1896 1.285 . S
C1894 H1914 0.929 . S
C1895 C1892 1.461 . S
C1895 C1894 1.474 . S
C1896 C1891 1.342 . S
C1896 C1894 1.285 . S
C1896 H1915 0.930 . S
C1897 C1900 1.424 . S
C1897 C1902 1.245 . S
C1897 C1903 1.428 . S
C1898 C1901 1.260 . S
C1898 C1902 1.477 . S
C1898 H1916 0.932 . S
C1899 C1900 1.384 . S
C1899 C1901 1.479 . S
C1899 H1917 0.948 . S
C1900 C1897 1.424 . S
C1900 C1899 1.384 . S
C1900 H1918 0.928 . S
C1901 C1898 1.260 . S
C1901 C1899 1.479 . S
C1902 C1897 1.245 . S
C1902 C1898 1.477 . S
C1902 H1919 0.932 . S
C1903 U1886 2.882 . S
C1903 C1897 1.428 . S
C1903 O1906 1.301 . S
C1903 O1907 1.282 . S
O1904 U1886 2.441 . S
O1904 C1890 1.249 . S
O1905 U1886 2.420 . S
O1905 C1890 1.202 . S
O1906 U1886 2.455 . S
O1906 C1903 1.301 . S
O1907 U1886 2.449 . S
O1907 C1903 1.282 . S
H1908 C1881 0.931 . S
H1909 C1883 0.929 . S
H1910 C1884 0.930 . S
H1911 C1885 0.931 . S
H1912 C1892 0.932 . S
H1913 C1893 0.930 . S
H1914 C1894 0.929 . S
H1915 C1896 0.930 . S
H1916 C1898 0.932 . S
H1917 C1899 0.948 . S
H1918 C1900 0.928 . S
H1919 C1902 0.932 . S
C1920 C1921 1.369 . S
C1920 C1922 1.419 . S
C1920 H1924 0.930 . S
C1921 C1920 1.369 . S
C1921 C1930 1.429 . S
C1922 C1920 1.419 . S
C1922 C1923 1.363 . S
C1922 H1925 0.929 . S
C1923 C1922 1.363 . S
C1923 C1929 1.428 . S
H1924 C1920 0.930 . S
H1925 C1922 0.929 . S
S1926 N1927 1.613 . S
S1926 N1928 1.610 . S
N1927 S1926 1.613 . S
N1927 C1930 1.350 . S
N1928 S1926 1.610 . S
N1928 C1929 1.351 . S
C1929 C1923 1.428 . S
C1929 N1928 1.351 . S
C1929 C1930 1.434 . S
C1930 C1921 1.429 . S
C1930 N1927 1.350 . S
C1930 C1929 1.434 . S
C1931 C1932 1.369 . S
C1931 C1933 1.419 . S
C1931 H1935 0.930 . S
C1932 C1931 1.369 . S
C1932 C1941 1.429 . S
C1933 C1931 1.419 . S
C1933 C1934 1.363 . S
C1933 H1936 0.929 . S
C1934 C1933 1.363 . S
C1934 C1940 1.428 . S
H1935 C1931 0.930 . S
H1936 C1933 0.929 . S
S1937 N1938 1.613 . S
S1937 N1939 1.610 . S
N1938 S1937 1.613 . S
N1938 C1941 1.350 . S
N1939 S1937 1.610 . S
N1939 C1940 1.351 . S
C1940 C1934 1.428 . S
C1940 N1939 1.351 . S
C1940 C1941 1.434 . S
C1941 C1932 1.429 . S
C1941 N1938 1.350 . S
C1941 C1940 1.434 . S
C1942 C1943 1.369 . S
C1942 C1944 1.419 . S
C1942 H1946 0.930 . S
C1943 C1942 1.369 . S
C1943 C1952 1.429 . S
C1944 C1942 1.419 . S
C1944 C1945 1.363 . S
C1944 H1947 0.929 . S
C1945 C1944 1.363 . S
C1945 C1951 1.428 . S
H1946 C1942 0.930 . S
H1947 C1944 0.929 . S
S1948 N1949 1.613 . S
S1948 N1950 1.610 . S
N1949 S1948 1.613 . S
N1949 C1952 1.350 . S
N1950 S1948 1.610 . S
N1950 C1951 1.351 . S
C1951 C1945 1.428 . S
C1951 N1950 1.351 . S
C1951 C1952 1.434 . S
C1952 C1943 1.429 . S
C1952 N1949 1.350 . S
C1952 C1951 1.434 . S
C1953 C1954 1.369 . S
C1953 C1955 1.419 . S
C1953 H1957 0.930 . S
C1954 C1953 1.369 . S
C1954 C1963 1.429 . S
C1955 C1953 1.419 . S
C1955 C1956 1.363 1_554 S
C1955 H1958 0.929 . S
C1956 C1955 1.363 1_556 S
C1956 C1962 1.427 . S
H1957 C1953 0.930 . S
H1958 C1955 0.929 . S
S1959 N1960 1.654 . S
S1959 N1961 1.579 1_554 S
N1960 S1959 1.654 . S
N1960 C1963 1.350 . S
N1961 S1959 1.579 1_556 S
N1961 C1962 1.349 . S
C1962 C1956 1.427 . S
C1962 N1961 1.349 . S
C1962 C1963 1.437 1_556 S
C1963 C1954 1.429 . S
C1963 N1960 1.350 . S
C1963 C1962 1.437 1_554 S
C1964 C1965 1.369 . S
C1964 C1966 1.419 . S
C1964 H1968 0.930 . S
C1965 C1964 1.369 . S
C1965 C1974 1.429 . S
C1966 C1964 1.419 . S
C1966 C1967 1.363 . S
C1966 H1969 0.929 . S
C1967 C1966 1.363 . S
C1967 C1973 1.428 . S
H1968 C1964 0.930 . S
H1969 C1966 0.929 . S
S1970 N1971 1.613 . S
S1970 N1972 1.610 . S
N1971 S1970 1.613 . S
N1971 C1974 1.350 . S
N1972 S1970 1.610 . S
N1972 C1973 1.351 . S
C1973 C1967 1.428 . S
C1973 N1972 1.351 . S
C1973 C1974 1.434 . S
C1974 C1965 1.429 . S
C1974 N1971 1.350 . S
C1974 C1973 1.434 . S
C1975 C1976 1.369 . S
C1975 C1977 1.419 1_565 S
C1975 H1979 0.930 . S
C1976 C1975 1.369 . S
C1976 C1985 1.429 1_565 S
C1977 C1975 1.419 1_545 S
C1977 C1978 1.363 . S
C1977 H1980 0.929 . S
C1978 C1977 1.363 . S
C1978 C1984 1.428 . S
H1979 C1975 0.930 . S
H1980 C1977 0.929 . S
S1981 N1982 1.613 . S
S1981 N1983 1.610 . S
N1982 S1981 1.613 . S
N1982 C1985 1.350 . S
N1983 S1981 1.610 . S
N1983 C1984 1.351 . S
C1984 C1978 1.428 . S
C1984 N1983 1.351 . S
C1984 C1985 1.434 . S
C1985 C1976 1.429 1_545 S
C1985 N1982 1.350 . S
C1985 C1984 1.434 . S
C1986 C1987 1.369 . S
C1986 C1988 1.419 . S
C1986 H1990 0.930 . S
C1987 C1986 1.369 . S
C1987 C1996 1.429 . S
C1988 C1986 1.419 . S
C1988 C1989 1.363 . S
C1988 H1991 0.929 . S
C1989 C1988 1.363 . S
C1989 C1995 1.428 . S
H1990 C1986 0.930 . S
H1991 C1988 0.929 . S
S1992 N1993 1.613 . S
S1992 N1994 1.610 . S
N1993 S1992 1.613 . S
N1993 C1996 1.350 . S
N1994 S1992 1.610 . S
N1994 C1995 1.351 . S
C1995 C1989 1.428 . S
C1995 N1994 1.351 . S
C1995 C1996 1.434 . S
C1996 C1987 1.429 . S
C1996 N1993 1.350 . S
C1996 C1995 1.434 . S
C1997 C1998 1.369 1_545 S
C1997 C1999 1.419 . S
C1997 H2001 0.930 . S
C1998 C1997 1.369 1_565 S
C1998 C2007 1.429 . S
C1999 C1997 1.419 . S
C1999 C2000 1.363 . S
C1999 H2002 0.929 . S
C2000 C1999 1.363 . S
C2000 C2006 1.428 1_545 S
H2001 C1997 0.930 . S
H2002 C1999 0.929 . S
S2003 N2004 1.613 . S
S2003 N2005 1.610 . S
N2004 S2003 1.613 . S
N2004 C2007 1.350 . S
N2005 S2003 1.610 . S
N2005 C2006 1.351 . S
C2006 C2000 1.428 1_565 S
C2006 N2005 1.351 . S
C2006 C2007 1.434 . S
C2007 C1998 1.429 . S
C2007 N2004 1.350 . S
C2007 C2006 1.434 . S
C2008 C2009 1.369 . S
C2008 C2010 1.419 . S
C2008 H2012 0.930 . S
C2009 C2008 1.369 . S
C2009 C2018 1.429 . S
C2010 C2008 1.419 . S
C2010 C2011 1.363 . S
C2010 H2013 0.929 . S
C2011 C2010 1.363 . S
C2011 C2017 1.428 . S
H2012 C2008 0.930 . S
H2013 C2010 0.929 . S
S2014 N2015 1.613 . S
S2014 N2016 1.610 . S
N2015 S2014 1.613 . S
N2015 C2018 1.350 . S
N2016 S2014 1.610 . S
N2016 C2017 1.351 . S
C2017 C2011 1.428 . S
C2017 N2016 1.351 . S
C2017 C2018 1.434 . S
C2018 C2009 1.429 . S
C2018 N2015 1.350 . S
C2018 C2017 1.434 . S
C2019 C2020 1.369 . S
C2019 C2021 1.419 . S
C2019 H2023 0.930 . S
C2020 C2019 1.369 . S
C2020 C2029 1.429 . S
C2021 C2019 1.419 . S
C2021 C2022 1.363 . S
C2021 H2024 0.929 . S
C2022 C2021 1.363 . S
C2022 C2028 1.428 . S
H2023 C2019 0.930 . S
H2024 C2021 0.929 . S
S2025 N2026 1.613 . S
S2025 N2027 1.610 . S
N2026 S2025 1.613 . S
N2026 C2029 1.350 . S
N2027 S2025 1.610 . S
N2027 C2028 1.351 . S
C2028 C2022 1.428 . S
C2028 N2027 1.351 . S
C2028 C2029 1.434 . S
C2029 C2020 1.429 . S
C2029 N2026 1.350 . S
C2029 C2028 1.434 . S
C2030 C2031 1.387 . S
C2030 C2032 1.373 1_655 S
C2030 H2034 0.961 . S
C2031 C2030 1.387 . S
C2031 C2040 1.429 1_655 S
C2032 C2030 1.373 1_455 S
C2032 C2033 1.363 . S
C2032 H2035 0.929 . S
C2033 C2032 1.363 . S
C2033 C2039 1.428 . S
H2034 C2030 0.961 . S
H2035 C2032 0.929 . S
S2036 N2037 1.613 . S
S2036 N2038 1.610 . S
N2037 S2036 1.613 . S
N2037 C2040 1.350 . S
N2038 S2036 1.610 . S
N2038 C2039 1.351 . S
C2039 C2033 1.428 . S
C2039 N2038 1.351 . S
C2039 C2040 1.434 . S
C2040 C2031 1.429 1_455 S
C2040 N2037 1.350 . S
C2040 C2039 1.434 . S
C2041 C2042 1.369 . S
C2041 C2043 1.419 . S
C2041 H2045 0.930 . S
C2042 C2041 1.369 . S
C2042 C2051 1.429 . S
C2043 C2041 1.419 . S
C2043 C2044 1.363 . S
C2043 H2046 0.929 . S
C2044 C2043 1.363 . S
C2044 C2050 1.428 . S
H2045 C2041 0.930 . S
H2046 C2043 0.929 . S
S2047 N2048 1.613 . S
S2047 N2049 1.610 . S
N2048 S2047 1.613 . S
N2048 C2051 1.350 . S
N2049 S2047 1.610 . S
N2049 C2050 1.351 . S
C2050 C2044 1.428 . S
C2050 N2049 1.351 . S
C2050 C2051 1.434 . S
C2051 C2042 1.429 . S
C2051 N2048 1.350 . S
C2051 C2050 1.434 . S
C2052 C2053 1.369 . S
C2052 C2054 1.419 . S
C2052 H2056 0.930 . S
C2053 C2052 1.369 . S
C2053 C2062 1.429 . S
C2054 C2052 1.419 . S
C2054 C2055 1.363 . S
C2054 H2057 0.929 . S
C2055 C2054 1.363 . S
C2055 C2061 1.428 . S
H2056 C2052 0.930 . S
H2057 C2054 0.929 . S
S2058 N2059 1.613 . S
S2058 N2060 1.610 . S
N2059 S2058 1.613 . S
N2059 C2062 1.350 . S
N2060 S2058 1.610 . S
N2060 C2061 1.351 . S
C2061 C2055 1.428 . S
C2061 N2060 1.351 . S
C2061 C2062 1.434 . S
C2062 C2053 1.429 . S
C2062 N2059 1.350 . S
C2062 C2061 1.434 . S
C2063 C2064 1.369 1_655 S
C2063 C2065 1.419 . S
C2063 H2067 0.930 . S
C2064 C2063 1.369 1_455 S
C2064 C2073 1.429 . S
C2065 C2063 1.419 . S
C2065 C2066 1.363 . S
C2065 H2068 0.929 . S
C2066 C2065 1.363 . S
C2066 C2072 1.428 1_655 S
H2067 C2063 0.930 . S
H2068 C2065 0.929 . S
S2069 N2070 1.613 . S
S2069 N2071 1.610 . S
N2070 S2069 1.613 . S
N2070 C2073 1.350 . S
N2071 S2069 1.610 . S
N2071 C2072 1.351 . S
C2072 C2066 1.428 1_455 S
C2072 N2071 1.351 . S
C2072 C2073 1.434 . S
C2073 C2064 1.429 . S
C2073 N2070 1.350 . S
C2073 C2072 1.434 . S
C2074 C2075 1.369 . S
C2074 C2076 1.419 . S
C2074 H2078 0.930 . S
C2075 C2074 1.369 . S
C2075 C2084 1.429 . S
C2076 C2074 1.419 . S
C2076 C2077 1.363 . S
C2076 H2079 0.929 . S
C2077 C2076 1.363 . S
C2077 C2083 1.428 . S
H2078 C2074 0.930 . S
H2079 C2076 0.929 . S
S2080 N2081 1.613 . S
S2080 N2082 1.610 . S
N2081 S2080 1.613 . S
N2081 C2084 1.350 . S
N2082 S2080 1.610 . S
N2082 C2083 1.351 . S
C2083 C2077 1.428 . S
C2083 N2082 1.351 . S
C2083 C2084 1.434 . S
C2084 C2075 1.429 . S
C2084 N2081 1.350 . S
C2084 C2083 1.434 . S
C2085 C2086 1.369 . S
C2085 C2087 1.419 . S
C2085 H2089 0.930 . S
C2086 C2085 1.369 . S
C2086 C2095 1.429 . S
C2087 C2085 1.419 . S
C2087 C2088 1.363 . S
C2087 H2090 0.929 . S
C2088 C2087 1.363 . S
C2088 C2094 1.428 . S
H2089 C2085 0.930 . S
H2090 C2087 0.929 . S
S2091 N2092 1.613 . S
S2091 N2093 1.610 . S
N2092 S2091 1.613 . S
N2092 C2095 1.350 . S
N2093 S2091 1.610 . S
N2093 C2094 1.351 . S
C2094 C2088 1.428 . S
C2094 N2093 1.351 . S
C2094 C2095 1.434 . S
C2095 C2086 1.429 . S
C2095 N2092 1.350 . S
C2095 C2094 1.434 . S
C2096 C2097 1.369 1_554 S
C2096 C2098 1.419 . S
C2096 H2100 0.930 . S
C2097 C2096 1.369 1_556 S
C2097 C2106 1.429 . S
C2098 C2096 1.419 . S
C2098 C2099 1.363 . S
C2098 H2101 0.929 . S
C2099 C2098 1.363 . S
C2099 C2105 1.428 1_554 S
H2100 C2096 0.930 . S
H2101 C2098 0.929 . S
S2102 N2103 1.613 . S
S2102 N2104 1.610 . S
N2103 S2102 1.613 . S
N2103 C2106 1.350 . S
N2104 S2102 1.610 . S
N2104 C2105 1.351 . S
C2105 C2099 1.428 1_556 S
C2105 N2104 1.351 . S
C2105 C2106 1.434 . S
C2106 C2097 1.429 . S
C2106 N2103 1.350 . S
C2106 C2105 1.434 . S
C2107 C2108 1.369 . S
C2107 C2109 1.419 . S
C2107 H2111 0.930 . S
C2108 C2107 1.369 . S
C2108 C2117 1.429 . S
C2109 C2107 1.419 . S
C2109 C2110 1.363 . S
C2109 H2112 0.929 . S
C2110 C2109 1.363 . S
C2110 C2116 1.428 . S
H2111 C2107 0.930 . S
H2112 C2109 0.929 . S
S2113 N2114 1.613 . S
S2113 N2115 1.610 . S
N2114 S2113 1.613 . S
N2114 C2117 1.350 . S
N2115 S2113 1.610 . S
N2115 C2116 1.351 . S
C2116 C2110 1.428 . S
C2116 N2115 1.351 . S
C2116 C2117 1.434 . S
C2117 C2108 1.429 . S
C2117 N2114 1.350 . S
C2117 C2116 1.434 . S
C2118 C2119 1.369 . S
C2118 C2120 1.419 . S
C2118 H2122 0.930 . S
C2119 C2118 1.369 . S
C2119 C2128 1.429 . S
C2120 C2118 1.419 . S
C2120 C2121 1.363 . S
C2120 H2123 0.929 . S
C2121 C2120 1.363 . S
C2121 C2127 1.428 . S
H2122 C2118 0.930 . S
H2123 C2120 0.929 . S
S2124 N2125 1.613 . S
S2124 N2126 1.610 . S
N2125 S2124 1.613 . S
N2125 C2128 1.350 . S
N2126 S2124 1.610 . S
N2126 C2127 1.351 . S
C2127 C2121 1.428 . S
C2127 N2126 1.351 . S
C2127 C2128 1.434 . S
C2128 C2119 1.429 . S
C2128 N2125 1.350 . S
C2128 C2127 1.434 . S
C2129 C2130 1.369 . S
C2129 C2131 1.419 . S
C2129 H2133 0.930 . S
C2130 C2129 1.369 . S
C2130 C2139 1.429 . S
C2131 C2129 1.419 . S
C2131 C2132 1.363 . S
C2131 H2134 0.929 . S
C2132 C2131 1.363 . S
C2132 C2138 1.428 . S
H2133 C2129 0.930 . S
H2134 C2131 0.929 . S
S2135 N2136 1.613 . S
S2135 N2137 1.610 . S
N2136 S2135 1.613 . S
N2136 C2139 1.350 . S
N2137 S2135 1.610 . S
N2137 C2138 1.351 . S
C2138 C2132 1.428 . S
C2138 N2137 1.351 . S
C2138 C2139 1.434 . S
C2139 C2130 1.429 . S
C2139 N2136 1.350 . S
C2139 C2138 1.434 . S
C2140 C2141 1.369 . S
C2140 C2142 1.419 . S
C2140 H2144 0.930 . S
C2141 C2140 1.369 . S
C2141 C2150 1.429 . S
C2142 C2140 1.419 . S
C2142 C2143 1.363 . S
C2142 H2145 0.929 . S
C2143 C2142 1.363 . S
C2143 C2149 1.428 . S
H2144 C2140 0.930 . S
H2145 C2142 0.929 . S
S2146 N2147 1.613 . S
S2146 N2148 1.610 . S
N2147 S2146 1.613 . S
N2147 C2150 1.350 . S
N2148 S2146 1.610 . S
N2148 C2149 1.351 . S
C2149 C2143 1.428 . S
C2149 N2148 1.351 . S
C2149 C2150 1.434 . S
C2150 C2141 1.429 . S
C2150 N2147 1.350 . S
C2150 C2149 1.434 . S
C2151 C2152 1.369 . S
C2151 C2153 1.419 . S
C2151 H2155 0.930 . S
C2152 C2151 1.369 . S
C2152 C2161 1.429 . S
C2153 C2151 1.419 . S
C2153 C2154 1.363 . S
C2153 H2156 0.929 . S
C2154 C2153 1.363 . S
C2154 C2160 1.428 . S
H2155 C2151 0.930 . S
H2156 C2153 0.929 . S
S2157 N2158 1.613 . S
S2157 N2159 1.610 . S
N2158 S2157 1.613 . S
N2158 C2161 1.350 . S
N2159 S2157 1.610 . S
N2159 C2160 1.351 . S
C2160 C2154 1.428 . S
C2160 N2159 1.351 . S
C2160 C2161 1.434 . S
C2161 C2152 1.429 . S
C2161 N2158 1.350 . S
C2161 C2160 1.434 . S
C2162 C2163 1.369 . S
C2162 C2164 1.419 . S
C2162 H2166 0.930 . S
C2163 C2162 1.369 . S
C2163 C2172 1.429 . S
C2164 C2162 1.419 . S
C2164 C2165 1.363 . S
C2164 H2167 0.929 . S
C2165 C2164 1.363 . S
C2165 C2171 1.428 . S
H2166 C2162 0.930 . S
H2167 C2164 0.929 . S
S2168 N2169 1.613 . S
S2168 N2170 1.610 . S
N2169 S2168 1.613 . S
N2169 C2172 1.350 . S
N2170 S2168 1.610 . S
N2170 C2171 1.351 . S
C2171 C2165 1.428 . S
C2171 N2170 1.351 . S
C2171 C2172 1.434 . S
C2172 C2163 1.429 . S
C2172 N2169 1.350 . S
C2172 C2171 1.434 . S
C2173 C2174 1.369 . S
C2173 C2175 1.419 . S
C2173 H2177 0.930 . S
C2174 C2173 1.369 . S
C2174 C2183 1.429 . S
C2175 C2173 1.419 . S
C2175 C2176 1.363 . S
C2175 H2178 0.929 . S
C2176 C2175 1.363 . S
C2176 C2182 1.428 . S
H2177 C2173 0.930 . S
H2178 C2175 0.929 . S
S2179 N2180 1.613 . S
S2179 N2181 1.610 . S
N2180 S2179 1.613 . S
N2180 C2183 1.350 . S
N2181 S2179 1.610 . S
N2181 C2182 1.351 . S
C2182 C2176 1.428 . S
C2182 N2181 1.351 . S
C2182 C2183 1.434 . S
C2183 C2174 1.429 . S
C2183 N2180 1.350 . S
C2183 C2182 1.434 . S
C2184 C2185 1.369 . S
C2184 C2186 1.419 . S
C2184 H2188 0.930 . S
C2185 C2184 1.369 . S
C2185 C2194 1.429 . S
C2186 C2184 1.419 . S
C2186 C2187 1.363 . S
C2186 H2189 0.929 . S
C2187 C2186 1.363 . S
C2187 C2193 1.428 . S
H2188 C2184 0.930 . S
H2189 C2186 0.929 . S
S2190 N2191 1.613 . S
S2190 N2192 1.610 . S
N2191 S2190 1.613 . S
N2191 C2194 1.350 . S
N2192 S2190 1.610 . S
N2192 C2193 1.351 . S
C2193 C2187 1.428 . S
C2193 N2192 1.351 . S
C2193 C2194 1.434 . S
C2194 C2185 1.429 . S
C2194 N2191 1.350 . S
C2194 C2193 1.434 . S
C2195 C2196 1.369 . S
C2195 C2197 1.419 . S
C2195 H2199 0.930 . S
C2196 C2195 1.369 . S
C2196 C2205 1.429 . S
C2197 C2195 1.419 . S
C2197 C2198 1.363 . S
C2197 H2200 0.929 . S
C2198 C2197 1.363 . S
C2198 C2204 1.428 . S
H2199 C2195 0.930 . S
H2200 C2197 0.929 . S
S2201 N2202 1.613 . S
S2201 N2203 1.610 . S
N2202 S2201 1.613 . S
N2202 C2205 1.350 . S
N2203 S2201 1.610 . S
N2203 C2204 1.351 . S
C2204 C2198 1.428 . S
C2204 N2203 1.351 . S
C2204 C2205 1.434 . S
C2205 C2196 1.429 . S
C2205 N2202 1.350 . S
C2205 C2204 1.434 . S
C2206 C2207 1.369 . S
C2206 C2208 1.419 . S
C2206 H2210 0.930 . S
C2207 C2206 1.369 . S
C2207 C2216 1.429 . S
C2208 C2206 1.419 . S
C2208 C2209 1.363 . S
C2208 H2211 0.929 . S
C2209 C2208 1.363 . S
C2209 C2215 1.428 . S
H2210 C2206 0.930 . S
H2211 C2208 0.929 . S
S2212 N2213 1.613 . S
S2212 N2214 1.610 . S
N2213 S2212 1.613 . S
N2213 C2216 1.350 . S
N2214 S2212 1.610 . S
N2214 C2215 1.351 . S
C2215 C2209 1.428 . S
C2215 N2214 1.351 . S
C2215 C2216 1.434 . S
C2216 C2207 1.429 . S
C2216 N2213 1.350 . S
C2216 C2215 1.434 . S
C2217 C2218 1.369 . S
C2217 C2219 1.419 . S
C2217 H2221 0.930 . S
C2218 C2217 1.369 . S
C2218 C2227 1.429 . S
C2219 C2217 1.419 . S
C2219 C2220 1.363 . S
C2219 H2222 0.929 . S
C2220 C2219 1.363 . S
C2220 C2226 1.428 . S
H2221 C2217 0.930 . S
H2222 C2219 0.929 . S
S2223 N2224 1.613 . S
S2223 N2225 1.610 . S
N2224 S2223 1.613 . S
N2224 C2227 1.350 . S
N2225 S2223 1.610 . S
N2225 C2226 1.351 . S
C2226 C2220 1.428 . S
C2226 N2225 1.351 . S
C2226 C2227 1.434 . S
C2227 C2218 1.429 . S
C2227 N2224 1.350 . S
C2227 C2226 1.434 . S
C2228 C2229 1.369 . S
C2228 C2230 1.419 . S
C2228 H2232 0.930 . S
C2229 C2228 1.369 . S
C2229 C2238 1.429 . S
C2230 C2228 1.419 . S
C2230 C2231 1.363 . S
C2230 H2233 0.929 . S
C2231 C2230 1.363 . S
C2231 C2237 1.428 . S
H2232 C2228 0.930 . S
H2233 C2230 0.929 . S
S2234 N2235 1.613 . S
S2234 N2236 1.610 . S
N2235 S2234 1.613 . S
N2235 C2238 1.350 . S
N2236 S2234 1.610 . S
N2236 C2237 1.351 . S
C2237 C2231 1.428 . S
C2237 N2236 1.351 . S
C2237 C2238 1.434 . S
C2238 C2229 1.429 . S
C2238 N2235 1.350 . S
C2238 C2237 1.434 . S
C2239 C2240 1.369 . S
C2239 C2241 1.419 . S
C2239 H2243 0.930 . S
C2240 C2239 1.369 . S
C2240 C2249 1.429 . S
C2241 C2239 1.419 . S
C2241 C2242 1.363 . S
C2241 H2244 0.929 . S
C2242 C2241 1.363 . S
C2242 C2248 1.428 . S
H2243 C2239 0.930 . S
H2244 C2241 0.929 . S
S2245 N2246 1.613 . S
S2245 N2247 1.610 . S
N2246 S2245 1.613 . S
N2246 C2249 1.350 . S
N2247 S2245 1.610 . S
N2247 C2248 1.351 . S
C2248 C2242 1.428 . S
C2248 N2247 1.351 . S
C2248 C2249 1.434 . S
C2249 C2240 1.429 . S
C2249 N2246 1.350 . S
C2249 C2248 1.434 . S
C2250 C2251 1.369 . S
C2250 C2252 1.419 . S
C2250 H2254 0.930 . S
C2251 C2250 1.369 . S
C2251 C2260 1.429 1_545 S
C2252 C2250 1.419 . S
C2252 C2253 1.363 . S
C2252 H2255 0.929 . S
C2253 C2252 1.363 . S
C2253 C2259 1.428 1_545 S
H2254 C2250 0.930 . S
H2255 C2252 0.929 . S
S2256 N2257 1.613 . S
S2256 N2258 1.610 . S
N2257 S2256 1.613 . S
N2257 C2260 1.350 . S
N2258 S2256 1.610 . S
N2258 C2259 1.351 . S
C2259 C2253 1.428 1_565 S
C2259 N2258 1.351 . S
C2259 C2260 1.434 . S
C2260 C2251 1.429 1_565 S
C2260 N2257 1.350 . S
C2260 C2259 1.434 . S
C2261 C2262 1.369 . S
C2261 C2263 1.419 . S
C2261 H2265 0.930 . S
C2262 C2261 1.369 . S
C2262 C2271 1.429 . S
C2263 C2261 1.419 . S
C2263 C2264 1.363 . S
C2263 H2266 0.929 . S
C2264 C2263 1.363 . S
C2264 C2270 1.428 . S
H2265 C2261 0.930 . S
H2266 C2263 0.929 . S
S2267 N2268 1.613 . S
S2267 N2269 1.610 . S
N2268 S2267 1.613 . S
N2268 C2271 1.350 . S
N2269 S2267 1.610 . S
N2269 C2270 1.351 . S
C2270 C2264 1.428 . S
C2270 N2269 1.351 . S
C2270 C2271 1.434 . S
C2271 C2262 1.429 . S
C2271 N2268 1.350 . S
C2271 C2270 1.434 . S
C2272 C2273 1.369 . S
C2272 C2274 1.419 . S
C2272 H2276 0.930 . S
C2273 C2272 1.369 . S
C2273 C2282 1.429 . S
C2274 C2272 1.419 . S
C2274 C2275 1.363 . S
C2274 H2277 0.929 . S
C2275 C2274 1.363 . S
C2275 C2281 1.428 . S
H2276 C2272 0.930 . S
H2277 C2274 0.929 . S
S2278 N2279 1.613 . S
S2278 N2280 1.610 . S
N2279 S2278 1.613 . S
N2279 C2282 1.350 . S
N2280 S2278 1.610 . S
N2280 C2281 1.351 . S
C2281 C2275 1.428 . S
C2281 N2280 1.351 . S
C2281 C2282 1.434 . S
C2282 C2273 1.429 . S
C2282 N2279 1.350 . S
C2282 C2281 1.434 . S
C2283 C2284 1.369 . S
C2283 C2285 1.419 . S
C2283 H2287 0.930 . S
C2284 C2283 1.369 . S
C2284 C2293 1.429 . S
C2285 C2283 1.419 . S
C2285 C2286 1.363 . S
C2285 H2288 0.929 . S
C2286 C2285 1.363 . S
C2286 C2292 1.428 . S
H2287 C2283 0.930 . S
H2288 C2285 0.929 . S
S2289 N2290 1.613 . S
S2289 N2291 1.610 . S
N2290 S2289 1.613 . S
N2290 C2293 1.350 . S
N2291 S2289 1.610 . S
N2291 C2292 1.351 . S
C2292 C2286 1.428 . S
C2292 N2291 1.351 . S
C2292 C2293 1.434 . S
C2293 C2284 1.429 . S
C2293 N2290 1.350 . S
C2293 C2292 1.434 . S
C2294 C2295 1.369 . S
C2294 C2296 1.419 . S
C2294 H2298 0.930 . S
C2295 C2294 1.369 . S
C2295 C2304 1.429 . S
C2296 C2294 1.419 . S
C2296 C2297 1.363 . S
C2296 H2299 0.929 . S
C2297 C2296 1.363 . S
C2297 C2303 1.428 . S
H2298 C2294 0.930 . S
H2299 C2296 0.929 . S
S2300 N2301 1.613 . S
S2300 N2302 1.610 . S
N2301 S2300 1.613 . S
N2301 C2304 1.350 . S
N2302 S2300 1.610 . S
N2302 C2303 1.351 . S
C2303 C2297 1.428 . S
C2303 N2302 1.351 . S
C2303 C2304 1.434 . S
C2304 C2295 1.429 . S
C2304 N2301 1.350 . S
C2304 C2303 1.434 . S
C2305 C2306 1.369 . S
C2305 C2307 1.419 . S
C2305 H2309 0.930 . S
C2306 C2305 1.369 . S
C2306 C2315 1.429 . S
C2307 C2305 1.419 . S
C2307 C2308 1.363 . S
C2307 H2310 0.929 . S
C2308 C2307 1.363 . S
C2308 C2314 1.428 . S
H2309 C2305 0.930 . S
H2310 C2307 0.929 . S
S2311 N2312 1.613 . S
S2311 N2313 1.610 . S
N2312 S2311 1.613 . S
N2312 C2315 1.350 . S
N2313 S2311 1.610 . S
N2313 C2314 1.351 . S
C2314 C2308 1.428 . S
C2314 N2313 1.351 . S
C2314 C2315 1.434 . S
C2315 C2306 1.429 . S
C2315 N2312 1.350 . S
C2315 C2314 1.434 . S
C2316 C2317 1.369 . S
C2316 C2318 1.419 . S
C2316 H2320 0.930 . S
C2317 C2316 1.369 . S
C2317 C2326 1.429 . S
C2318 C2316 1.419 . S
C2318 C2319 1.363 . S
C2318 H2321 0.929 . S
C2319 C2318 1.363 . S
C2319 C2325 1.428 . S
H2320 C2316 0.930 . S
H2321 C2318 0.929 . S
S2322 N2323 1.613 . S
S2322 N2324 1.610 . S
N2323 S2322 1.613 . S
N2323 C2326 1.350 . S
N2324 S2322 1.610 . S
N2324 C2325 1.351 . S
C2325 C2319 1.428 . S
C2325 N2324 1.351 . S
C2325 C2326 1.434 . S
C2326 C2317 1.429 . S
C2326 N2323 1.350 . S
C2326 C2325 1.434 . S
C2327 C2328 1.369 . S
C2327 C2329 1.419 . S
C2327 H2331 0.930 . S
C2328 C2327 1.369 . S
C2328 C2337 1.429 . S
C2329 C2327 1.419 . S
C2329 C2330 1.363 . S
C2329 H2332 0.929 . S
C2330 C2329 1.363 . S
C2330 C2336 1.428 . S
H2331 C2327 0.930 . S
H2332 C2329 0.929 . S
S2333 N2334 1.613 . S
S2333 N2335 1.610 . S
N2334 S2333 1.613 . S
N2334 C2337 1.350 . S
N2335 S2333 1.610 . S
N2335 C2336 1.351 . S
C2336 C2330 1.428 . S
C2336 N2335 1.351 . S
C2336 C2337 1.434 . S
C2337 C2328 1.429 . S
C2337 N2334 1.350 . S
C2337 C2336 1.434 . S
C2338 C2339 1.369 . S
C2338 C2340 1.419 . S
C2338 H2342 0.930 . S
C2339 C2338 1.369 . S
C2339 C2348 1.429 . S
C2340 C2338 1.419 . S
C2340 C2341 1.363 . S
C2340 H2343 0.929 . S
C2341 C2340 1.363 . S
C2341 C2347 1.428 . S
H2342 C2338 0.930 . S
H2343 C2340 0.929 . S
S2344 N2345 1.613 . S
S2344 N2346 1.610 . S
N2345 S2344 1.613 . S
N2345 C2348 1.350 . S
N2346 S2344 1.610 . S
N2346 C2347 1.351 . S
C2347 C2341 1.428 . S
C2347 N2346 1.351 . S
C2347 C2348 1.434 . S
C2348 C2339 1.429 . S
C2348 N2345 1.350 . S
C2348 C2347 1.434 . S
C2349 C2350 1.369 . S
C2349 C2351 1.419 . S
C2349 H2353 0.930 . S
C2350 C2349 1.369 . S
C2350 C2359 1.429 . S
C2351 C2349 1.419 . S
C2351 C2352 1.363 . S
C2351 H2354 0.929 . S
C2352 C2351 1.363 . S
C2352 C2358 1.428 . S
H2353 C2349 0.930 . S
H2354 C2351 0.929 . S
S2355 N2356 1.613 . S
S2355 N2357 1.610 . S
N2356 S2355 1.613 . S
N2356 C2359 1.350 . S
N2357 S2355 1.610 . S
N2357 C2358 1.351 . S
C2358 C2352 1.428 . S
C2358 N2357 1.351 . S
C2358 C2359 1.434 . S
C2359 C2350 1.429 . S
C2359 N2356 1.350 . S
C2359 C2358 1.434 . S
C2360 C2361 1.369 . S
C2360 C2362 1.419 . S
C2360 H2364 0.930 . S
C2361 C2360 1.369 . S
C2361 C2370 1.429 . S
C2362 C2360 1.419 . S
C2362 C2363 1.363 . S
C2362 H2365 0.929 . S
C2363 C2362 1.363 . S
C2363 C2369 1.428 . S
H2364 C2360 0.930 . S
H2365 C2362 0.929 . S
S2366 N2367 1.613 . S
S2366 N2368 1.610 . S
N2367 S2366 1.613 . S
N2367 C2370 1.350 . S
N2368 S2366 1.610 . S
N2368 C2369 1.351 . S
C2369 C2363 1.428 . S
C2369 N2368 1.351 . S
C2369 C2370 1.434 . S
C2370 C2361 1.429 . S
C2370 N2367 1.350 . S
C2370 C2369 1.434 . S
C2371 C2372 1.369 . S
C2371 C2373 1.419 . S
C2371 H2375 0.930 . S
C2372 C2371 1.369 . S
C2372 C2381 1.429 . S
C2373 C2371 1.419 . S
C2373 C2374 1.363 . S
C2373 H2376 0.929 . S
C2374 C2373 1.363 . S
C2374 C2380 1.428 . S
H2375 C2371 0.930 . S
H2376 C2373 0.929 . S
S2377 N2378 1.613 . S
S2377 N2379 1.610 . S
N2378 S2377 1.613 . S
N2378 C2381 1.350 . S
N2379 S2377 1.610 . S
N2379 C2380 1.351 . S
C2380 C2374 1.428 . S
C2380 N2379 1.351 . S
C2380 C2381 1.434 . S
C2381 C2372 1.429 . S
C2381 N2378 1.350 . S
C2381 C2380 1.434 . S
C2382 C2383 1.369 . S
C2382 C2384 1.419 . S
C2382 H2386 0.930 . S
C2383 C2382 1.369 . S
C2383 C2392 1.429 1_554 S
C2384 C2382 1.419 . S
C2384 C2385 1.363 . S
C2384 H2387 0.929 . S
C2385 C2384 1.363 . S
C2385 C2391 1.428 1_554 S
H2386 C2382 0.930 . S
H2387 C2384 0.929 . S
S2388 N2389 1.613 . S
S2388 N2390 1.610 . S
N2389 S2388 1.613 . S
N2389 C2392 1.350 . S
N2390 S2388 1.610 . S
N2390 C2391 1.351 . S
C2391 C2385 1.428 1_556 S
C2391 N2390 1.351 . S
C2391 C2392 1.434 . S
C2392 C2383 1.429 1_556 S
C2392 N2389 1.350 . S
C2392 C2391 1.434 . S
C2393 C2394 1.369 . S
C2393 C2395 1.419 . S
C2393 H2397 0.930 . S
C2394 C2393 1.369 . S
C2394 C2403 1.429 . S
C2395 C2393 1.419 . S
C2395 C2396 1.363 . S
C2395 H2398 0.929 . S
C2396 C2395 1.363 . S
C2396 C2402 1.428 . S
H2397 C2393 0.930 . S
H2398 C2395 0.929 . S
S2399 N2400 1.613 . S
S2399 N2401 1.610 . S
N2400 S2399 1.613 . S
N2400 C2403 1.350 . S
N2401 S2399 1.610 . S
N2401 C2402 1.351 . S
C2402 C2396 1.428 . S
C2402 N2401 1.351 . S
C2402 C2403 1.434 . S
C2403 C2394 1.429 . S
C2403 N2400 1.350 . S
C2403 C2402 1.434 . S
C2404 C2405 1.369 . S
C2404 C2406 1.419 . S
C2404 H2408 0.930 . S
C2405 C2404 1.369 . S
C2405 C2414 1.429 . S
C2406 C2404 1.419 . S
C2406 C2407 1.363 . S
C2406 H2409 0.929 . S
C2407 C2406 1.363 . S
C2407 C2413 1.428 . S
H2408 C2404 0.930 . S
H2409 C2406 0.929 . S
S2410 N2411 1.613 . S
S2410 N2412 1.610 . S
N2411 S2410 1.613 . S
N2411 C2414 1.350 . S
N2412 S2410 1.610 . S
N2412 C2413 1.351 . S
C2413 C2407 1.428 . S
C2413 N2412 1.351 . S
C2413 C2414 1.434 . S
C2414 C2405 1.429 . S
C2414 N2411 1.350 . S
C2414 C2413 1.434 . S
C2415 C2416 1.369 . S
C2415 C2417 1.419 . S
C2415 H2419 0.930 . S
C2416 C2415 1.369 . S
C2416 C2425 1.429 . S
C2417 C2415 1.419 . S
C2417 C2418 1.363 . S
C2417 H2420 0.929 . S
C2418 C2417 1.363 . S
C2418 C2424 1.428 . S
H2419 C2415 0.930 . S
H2420 C2417 0.929 . S
S2421 N2422 1.613 . S
S2421 N2423 1.610 . S
N2422 S2421 1.613 . S
N2422 C2425 1.350 . S
N2423 S2421 1.610 . S
N2423 C2424 1.351 . S
C2424 C2418 1.428 . S
C2424 N2423 1.351 . S
C2424 C2425 1.434 . S
C2425 C2416 1.429 . S
C2425 N2422 1.350 . S
C2425 C2424 1.434 . S
C2426 C2427 1.369 . S
C2426 C2428 1.419 . S
C2426 H2430 0.930 . S
C2427 C2426 1.369 . S
C2427 C2436 1.429 . S
C2428 C2426 1.419 . S
C2428 C2429 1.363 . S
C2428 H2431 0.929 . S
C2429 C2428 1.363 . S
C2429 C2435 1.428 . S
H2430 C2426 0.930 . S
H2431 C2428 0.929 . S
S2432 N2433 1.621 . S
S2432 N2434 1.637 . S
N2433 S2432 1.621 . S
N2433 C2436 1.325 1_655 S
N2434 S2432 1.637 . S
N2434 C2435 1.335 1_655 S
C2435 C2429 1.428 . S
C2435 N2434 1.335 1_455 S
C2435 C2436 1.434 . S
C2436 C2427 1.429 . S
C2436 N2433 1.325 1_455 S
C2436 C2435 1.434 . S
C2437 C2438 1.369 . S
C2437 C2439 1.419 . S
C2437 H2441 0.930 . S
C2438 C2437 1.369 . S
C2438 C2447 1.429 . S
C2439 C2437 1.419 . S
C2439 C2440 1.363 . S
C2439 H2442 0.929 . S
C2440 C2439 1.363 . S
C2440 C2446 1.428 . S
H2441 C2437 0.930 . S
H2442 C2439 0.929 . S
S2443 N2444 1.613 . S
S2443 N2445 1.610 . S
N2444 S2443 1.613 . S
N2444 C2447 1.350 . S
N2445 S2443 1.610 . S
N2445 C2446 1.351 . S
C2446 C2440 1.428 . S
C2446 N2445 1.351 . S
C2446 C2447 1.434 . S
C2447 C2438 1.429 . S
C2447 N2444 1.350 . S
C2447 C2446 1.434 . S
C2448 C2449 1.369 . S
C2448 C2450 1.419 . S
C2448 H2452 0.930 . S
C2449 C2448 1.369 . S
C2449 C2458 1.429 . S
C2450 C2448 1.419 . S
C2450 C2451 1.363 . S
C2450 H2453 0.929 . S
C2451 C2450 1.363 . S
C2451 C2457 1.428 . S
H2452 C2448 0.930 . S
H2453 C2450 0.929 . S
S2454 N2455 1.613 . S
S2454 N2456 1.610 . S
N2455 S2454 1.613 . S
N2455 C2458 1.350 . S
N2456 S2454 1.610 . S
N2456 C2457 1.351 . S
C2457 C2451 1.428 . S
C2457 N2456 1.351 . S
C2457 C2458 1.434 . S
C2458 C2449 1.429 . S
C2458 N2455 1.350 . S
C2458 C2457 1.434 . S
C2459 C2460 1.369 . S
C2459 C2461 1.419 . S
C2459 H2463 0.930 . S
C2460 C2459 1.369 . S
C2460 C2469 1.429 . S
C2461 C2459 1.419 . S
C2461 C2462 1.363 . S
C2461 H2464 0.929 . S
C2462 C2461 1.363 . S
C2462 C2468 1.428 . S
H2463 C2459 0.930 . S
H2464 C2461 0.929 . S
S2465 N2466 1.613 . S
S2465 N2467 1.610 . S
N2466 S2465 1.613 . S
N2466 C2469 1.350 . S
N2467 S2465 1.610 . S
N2467 C2468 1.351 . S
C2468 C2462 1.428 . S
C2468 N2467 1.351 . S
C2468 C2469 1.434 . S
C2469 C2460 1.429 . S
C2469 N2466 1.350 . S
C2469 C2468 1.434 . S
C2470 C2471 1.369 . S
C2470 C2472 1.419 . S
C2470 H2474 0.930 . S
C2471 C2470 1.369 . S
C2471 C2480 1.429 . S
C2472 C2470 1.419 . S
C2472 C2473 1.363 . S
C2472 H2475 0.929 . S
C2473 C2472 1.363 . S
C2473 C2479 1.428 . S
H2474 C2470 0.930 . S
H2475 C2472 0.929 . S
S2476 N2477 1.613 . S
S2476 N2478 1.610 . S
N2477 S2476 1.613 . S
N2477 C2480 1.350 . S
N2478 S2476 1.610 . S
N2478 C2479 1.351 . S
C2479 C2473 1.428 . S
C2479 N2478 1.351 . S
C2479 C2480 1.434 . S
C2480 C2471 1.429 . S
C2480 N2477 1.350 . S
C2480 C2479 1.434 . S
C2481 C2482 1.369 . S
C2481 C2483 1.419 . S
C2481 H2485 0.930 . S
C2482 C2481 1.369 . S
C2482 C2491 1.429 . S
C2483 C2481 1.419 . S
C2483 C2484 1.363 . S
C2483 H2486 0.929 . S
C2484 C2483 1.363 . S
C2484 C2490 1.428 . S
H2485 C2481 0.930 . S
H2486 C2483 0.929 . S
S2487 N2488 1.613 . S
S2487 N2489 1.610 . S
N2488 S2487 1.613 . S
N2488 C2491 1.350 . S
N2489 S2487 1.610 . S
N2489 C2490 1.351 . S
C2490 C2484 1.428 . S
C2490 N2489 1.351 . S
C2490 C2491 1.434 . S
C2491 C2482 1.429 . S
C2491 N2488 1.350 . S
C2491 C2490 1.434 . S
C2492 C2493 1.369 . S
C2492 C2494 1.419 . S
C2492 H2496 0.930 . S
C2493 C2492 1.369 . S
C2493 C2502 1.429 . S
C2494 C2492 1.419 . S
C2494 C2495 1.363 . S
C2494 H2497 0.929 . S
C2495 C2494 1.363 . S
C2495 C2501 1.428 . S
H2496 C2492 0.930 . S
H2497 C2494 0.929 . S
S2498 N2499 1.613 . S
S2498 N2500 1.610 . S
N2499 S2498 1.613 . S
N2499 C2502 1.350 . S
N2500 S2498 1.610 . S
N2500 C2501 1.351 . S
C2501 C2495 1.428 . S
C2501 N2500 1.351 . S
C2501 C2502 1.434 . S
C2502 C2493 1.429 . S
C2502 N2499 1.350 . S
C2502 C2501 1.434 . S
C2503 C2504 1.369 . S
C2503 C2505 1.419 . S
C2503 H2507 0.930 . S
C2504 C2503 1.369 . S
C2504 C2513 1.429 . S
C2505 C2503 1.419 . S
C2505 C2506 1.363 . S
C2505 H2508 0.929 . S
C2506 C2505 1.363 . S
C2506 C2512 1.428 . S
H2507 C2503 0.930 . S
H2508 C2505 0.929 . S
S2509 N2510 1.613 . S
S2509 N2511 1.610 . S
N2510 S2509 1.613 . S
N2510 C2513 1.350 . S
N2511 S2509 1.610 . S
N2511 C2512 1.351 . S
C2512 C2506 1.428 . S
C2512 N2511 1.351 . S
C2512 C2513 1.434 . S
C2513 C2504 1.429 . S
C2513 N2510 1.350 . S
C2513 C2512 1.434 . S
C2514 C2515 1.369 . S
C2514 C2516 1.419 . S
C2514 H2518 0.930 . S
C2515 C2514 1.369 . S
C2515 C2524 1.429 . S
C2516 C2514 1.419 . S
C2516 C2517 1.363 . S
C2516 H2519 0.929 . S
C2517 C2516 1.363 . S
C2517 C2523 1.428 . S
H2518 C2514 0.930 . S
H2519 C2516 0.929 . S
S2520 N2521 1.613 . S
S2520 N2522 1.610 . S
N2521 S2520 1.613 . S
N2521 C2524 1.350 . S
N2522 S2520 1.610 . S
N2522 C2523 1.351 . S
C2523 C2517 1.428 . S
C2523 N2522 1.351 . S
C2523 C2524 1.434 . S
C2524 C2515 1.429 . S
C2524 N2521 1.350 . S
C2524 C2523 1.434 . S
C2525 C2526 1.369 . S
C2525 C2527 1.419 . S
C2525 H2529 0.930 . S
C2526 C2525 1.369 . S
C2526 C2535 1.429 . S
C2527 C2525 1.419 . S
C2527 C2528 1.363 . S
C2527 H2530 0.929 . S
C2528 C2527 1.363 . S
C2528 C2534 1.428 . S
H2529 C2525 0.930 . S
H2530 C2527 0.929 . S
S2531 N2532 1.613 . S
S2531 N2533 1.610 . S
N2532 S2531 1.613 . S
N2532 C2535 1.350 . S
N2533 S2531 1.610 . S
N2533 C2534 1.351 . S
C2534 C2528 1.428 . S
C2534 N2533 1.351 . S
C2534 C2535 1.434 . S
C2535 C2526 1.429 . S
C2535 N2532 1.350 . S
C2535 C2534 1.434 . S
C2536 C2537 1.369 . S
C2536 C2538 1.419 . S
C2536 H2540 0.930 . S
C2537 C2536 1.369 . S
C2537 C2546 1.429 . S
C2538 C2536 1.419 . S
C2538 C2539 1.363 . S
C2538 H2541 0.929 . S
C2539 C2538 1.363 . S
C2539 C2545 1.428 . S
H2540 C2536 0.930 . S
H2541 C2538 0.929 . S
S2542 N2543 1.613 . S
S2542 N2544 1.610 . S
N2543 S2542 1.613 . S
N2543 C2546 1.350 . S
N2544 S2542 1.610 . S
N2544 C2545 1.351 . S
C2545 C2539 1.428 . S
C2545 N2544 1.351 . S
C2545 C2546 1.434 . S
C2546 C2537 1.429 . S
C2546 N2543 1.350 . S
C2546 C2545 1.434 . S
C2547 C2548 1.369 . S
C2547 C2549 1.419 . S
C2547 H2551 0.930 . S
C2548 C2547 1.369 . S
C2548 C2557 1.429 . S
C2549 C2547 1.419 . S
C2549 C2550 1.363 . S
C2549 H2552 0.929 . S
C2550 C2549 1.363 . S
C2550 C2556 1.428 . S
H2551 C2547 0.930 . S
H2552 C2549 0.929 . S
S2553 N2554 1.613 . S
S2553 N2555 1.610 . S
N2554 S2553 1.613 . S
N2554 C2557 1.350 . S
N2555 S2553 1.610 . S
N2555 C2556 1.351 . S
C2556 C2550 1.428 . S
C2556 N2555 1.351 . S
C2556 C2557 1.434 . S
C2557 C2548 1.429 . S
C2557 N2554 1.350 . S
C2557 C2556 1.434 . S
C2558 C2559 1.369 . S
C2558 C2560 1.419 . S
C2558 H2562 0.930 . S
C2559 C2558 1.369 . S
C2559 C2568 1.429 . S
C2560 C2558 1.419 . S
C2560 C2561 1.363 . S
C2560 H2563 0.929 . S
C2561 C2560 1.363 . S
C2561 C2567 1.428 . S
H2562 C2558 0.930 . S
H2563 C2560 0.929 . S
S2564 N2565 1.613 . S
S2564 N2566 1.610 1_545 S
N2565 S2564 1.613 . S
N2565 C2568 1.350 1_545 S
N2566 S2564 1.610 1_565 S
N2566 C2567 1.351 . S
C2567 C2561 1.428 . S
C2567 N2566 1.351 . S
C2567 C2568 1.434 . S
C2568 C2559 1.429 . S
C2568 N2565 1.350 1_565 S
C2568 C2567 1.434 . S
C2569 C2570 1.369 . S
C2569 C2571 1.419 . S
C2569 H2573 0.930 . S
C2570 C2569 1.369 . S
C2570 C2579 1.429 . S
C2571 C2569 1.419 . S
C2571 C2572 1.363 . S
C2571 H2574 0.929 . S
C2572 C2571 1.363 . S
C2572 C2578 1.428 . S
H2573 C2569 0.930 . S
H2574 C2571 0.929 . S
S2575 N2576 1.613 . S
S2575 N2577 1.610 . S
N2576 S2575 1.613 . S
N2576 C2579 1.350 . S
N2577 S2575 1.610 . S
N2577 C2578 1.351 . S
C2578 C2572 1.428 . S
C2578 N2577 1.351 . S
C2578 C2579 1.434 . S
C2579 C2570 1.429 . S
C2579 N2576 1.350 . S
C2579 C2578 1.434 . S
C2580 C2581 1.369 . S
C2580 C2582 1.419 . S
C2580 H2584 0.930 . S
C2581 C2580 1.369 . S
C2581 C2590 1.429 . S
C2582 C2580 1.419 . S
C2582 C2583 1.363 . S
C2582 H2585 0.929 . S
C2583 C2582 1.363 . S
C2583 C2589 1.428 . S
H2584 C2580 0.930 . S
H2585 C2582 0.929 . S
S2586 N2587 1.613 1_554 S
S2586 N2588 1.610 1_554 S
N2587 S2586 1.613 1_556 S
N2587 C2590 1.350 . S
N2588 S2586 1.610 1_556 S
N2588 C2589 1.351 . S
C2589 C2583 1.428 . S
C2589 N2588 1.351 . S
C2589 C2590 1.434 . S
C2590 C2581 1.429 . S
C2590 N2587 1.350 . S
C2590 C2589 1.434 . S
C2591 C2592 1.369 . S
C2591 C2593 1.419 . S
C2591 H2595 0.930 . S
C2592 C2591 1.369 . S
C2592 C2601 1.429 . S
C2593 C2591 1.419 . S
C2593 C2594 1.363 . S
C2593 H2596 0.929 . S
C2594 C2593 1.363 . S
C2594 C2600 1.428 . S
H2595 C2591 0.930 . S
H2596 C2593 0.929 . S
S2597 N2598 1.613 . S
S2597 N2599 1.610 . S
N2598 S2597 1.613 . S
N2598 C2601 1.350 . S
N2599 S2597 1.610 . S
N2599 C2600 1.351 . S
C2600 C2594 1.428 . S
C2600 N2599 1.351 . S
C2600 C2601 1.434 . S
C2601 C2592 1.429 . S
C2601 N2598 1.350 . S
C2601 C2600 1.434 . S
C2602 C2603 1.369 . S
C2602 C2604 1.419 . S
C2602 H2606 0.930 . S
C2603 C2602 1.369 . S
C2603 C2612 1.429 . S
C2604 C2602 1.419 . S
C2604 C2605 1.363 . S
C2604 H2607 0.929 . S
C2605 C2604 1.363 . S
C2605 C2611 1.428 . S
H2606 C2602 0.930 . S
H2607 C2604 0.929 . S
S2608 N2609 1.613 . S
S2608 N2610 1.610 . S
N2609 S2608 1.613 . S
N2609 C2612 1.350 . S
N2610 S2608 1.610 . S
N2610 C2611 1.351 . S
C2611 C2605 1.428 . S
C2611 N2610 1.351 . S
C2611 C2612 1.434 . S
C2612 C2603 1.429 . S
C2612 N2609 1.350 . S
C2612 C2611 1.434 . S
C2613 C2614 1.369 . S
C2613 C2615 1.419 . S
C2613 H2617 0.930 . S
C2614 C2613 1.369 . S
C2614 C2623 1.429 . S
C2615 C2613 1.419 . S
C2615 C2616 1.363 . S
C2615 H2618 0.929 . S
C2616 C2615 1.363 . S
C2616 C2622 1.428 . S
H2617 C2613 0.930 . S
H2618 C2615 0.929 . S
S2619 N2620 1.613 . S
S2619 N2621 1.610 1_455 S
N2620 S2619 1.613 . S
N2620 C2623 1.350 1_455 S
N2621 S2619 1.610 1_655 S
N2621 C2622 1.351 . S
C2622 C2616 1.428 . S
C2622 N2621 1.351 . S
C2622 C2623 1.434 . S
C2623 C2614 1.429 . S
C2623 N2620 1.350 1_655 S
C2623 C2622 1.434 . S
C2624 C2625 1.369 . S
C2624 C2626 1.419 . S
C2624 H2628 0.930 . S
C2625 C2624 1.369 . S
C2625 C2634 1.429 . S
C2626 C2624 1.419 . S
C2626 C2627 1.363 . S
C2626 H2629 0.929 . S
C2627 C2626 1.363 . S
C2627 C2633 1.428 . S
H2628 C2624 0.930 . S
H2629 C2626 0.929 . S
S2630 N2631 1.613 . S
S2630 N2632 1.610 . S
N2631 S2630 1.613 . S
N2631 C2634 1.350 . S
N2632 S2630 1.610 . S
N2632 C2633 1.351 . S
C2633 C2627 1.428 . S
C2633 N2632 1.351 . S
C2633 C2634 1.434 . S
C2634 C2625 1.429 . S
C2634 N2631 1.350 . S
C2634 C2633 1.434 . S
C2635 C2636 1.369 . S
C2635 C2637 1.419 . S
C2635 H2639 0.930 . S
C2636 C2635 1.369 . S
C2636 C2645 1.429 . S
C2637 C2635 1.419 . S
C2637 C2638 1.363 . S
C2637 H2640 0.929 . S
C2638 C2637 1.363 . S
C2638 C2644 1.428 . S
H2639 C2635 0.930 . S
H2640 C2637 0.929 . S
S2641 N2642 1.613 . S
S2641 N2643 1.610 . S
N2642 S2641 1.613 . S
N2642 C2645 1.350 . S
N2643 S2641 1.610 . S
N2643 C2644 1.351 . S
C2644 C2638 1.428 . S
C2644 N2643 1.351 . S
C2644 C2645 1.434 . S
C2645 C2636 1.429 . S
C2645 N2642 1.350 . S
C2645 C2644 1.434 . S
C2646 C2647 1.369 . S
C2646 C2648 1.419 . S
C2646 H2650 0.930 . S
C2647 C2646 1.369 . S
C2647 C2656 1.429 . S
C2648 C2646 1.419 . S
C2648 C2649 1.363 . S
C2648 H2651 0.929 . S
C2649 C2648 1.363 . S
C2649 C2655 1.428 . S
H2650 C2646 0.930 . S
H2651 C2648 0.929 . S
S2652 N2653 1.613 . S
S2652 N2654 1.610 . S
N2653 S2652 1.613 . S
N2653 C2656 1.350 . S
N2654 S2652 1.610 . S
N2654 C2655 1.351 . S
C2655 C2649 1.428 . S
C2655 N2654 1.351 . S
C2655 C2656 1.434 . S
C2656 C2647 1.429 . S
C2656 N2653 1.350 . S
C2656 C2655 1.434 . S
C2657 C2658 1.369 . S
C2657 C2659 1.419 . S
C2657 H2661 0.930 . S
C2658 C2657 1.369 . S
C2658 C2667 1.429 . S
C2659 C2657 1.419 . S
C2659 C2660 1.363 . S
C2659 H2662 0.929 . S
C2660 C2659 1.363 . S
C2660 C2666 1.428 . S
H2661 C2657 0.930 . S
H2662 C2659 0.929 . S
S2663 N2664 1.613 . S
S2663 N2665 1.610 . S
N2664 S2663 1.613 . S
N2664 C2667 1.350 . S
N2665 S2663 1.610 . S
N2665 C2666 1.351 . S
C2666 C2660 1.428 . S
C2666 N2665 1.351 . S
C2666 C2667 1.434 . S
C2667 C2658 1.429 . S
C2667 N2664 1.350 . S
C2667 C2666 1.434 . S
C2668 C2669 1.369 . S
C2668 C2670 1.419 . S
C2668 H2672 0.930 . S
C2669 C2668 1.369 . S
C2669 C2678 1.429 . S
C2670 C2668 1.419 . S
C2670 C2671 1.363 . S
C2670 H2673 0.929 . S
C2671 C2670 1.363 . S
C2671 C2677 1.428 . S
H2672 C2668 0.930 . S
H2673 C2670 0.929 . S
S2674 N2675 1.613 . S
S2674 N2676 1.610 . S
N2675 S2674 1.613 . S
N2675 C2678 1.350 . S
N2676 S2674 1.610 . S
N2676 C2677 1.351 . S
C2677 C2671 1.428 . S
C2677 N2676 1.351 . S
C2677 C2678 1.434 . S
C2678 C2669 1.429 . S
C2678 N2675 1.350 . S
C2678 C2677 1.434 . S
C2679 C2680 1.369 . S
C2679 C2681 1.419 . S
C2679 H2683 0.930 . S
C2680 C2679 1.369 . S
C2680 C2689 1.429 . S
C2681 C2679 1.419 . S
C2681 C2682 1.363 . S
C2681 H2684 0.929 . S
C2682 C2681 1.363 . S
C2682 C2688 1.428 . S
H2683 C2679 0.930 . S
H2684 C2681 0.929 . S
S2685 N2686 1.613 . S
S2685 N2687 1.610 . S
N2686 S2685 1.613 . S
N2686 C2689 1.350 . S
N2687 S2685 1.610 . S
N2687 C2688 1.351 . S
C2688 C2682 1.428 . S
C2688 N2687 1.351 . S
C2688 C2689 1.434 . S
C2689 C2680 1.429 . S
C2689 N2686 1.350 . S
C2689 C2688 1.434 . S
C2690 C2691 1.369 . S
C2690 C2692 1.419 . S
C2690 H2694 0.930 . S
C2691 C2690 1.369 . S
C2691 C2700 1.429 . S
C2692 C2690 1.419 . S
C2692 C2693 1.363 . S
C2692 H2695 0.929 . S
C2693 C2692 1.363 . S
C2693 C2699 1.428 . S
H2694 C2690 0.930 . S
H2695 C2692 0.929 . S
S2696 N2697 1.613 . S
S2696 N2698 1.610 . S
N2697 S2696 1.613 . S
N2697 C2700 1.350 . S
N2698 S2696 1.610 . S
N2698 C2699 1.351 . S
C2699 C2693 1.428 . S
C2699 N2698 1.351 . S
C2699 C2700 1.434 . S
C2700 C2691 1.429 . S
C2700 N2697 1.350 . S
C2700 C2699 1.434 . S
C2701 C2702 1.369 . S
C2701 C2703 1.419 . S
C2701 H2705 0.930 . S
C2702 C2701 1.369 . S
C2702 C2711 1.429 . S
C2703 C2701 1.419 . S
C2703 C2704 1.363 . S
C2703 H2706 0.929 . S
C2704 C2703 1.363 . S
C2704 C2710 1.428 . S
H2705 C2701 0.930 . S
H2706 C2703 0.929 . S
S2707 N2708 1.613 . S
S2707 N2709 1.610 . S
N2708 S2707 1.613 . S
N2708 C2711 1.350 . S
N2709 S2707 1.610 . S
N2709 C2710 1.351 . S
C2710 C2704 1.428 . S
C2710 N2709 1.351 . S
C2710 C2711 1.434 . S
C2711 C2702 1.429 . S
C2711 N2708 1.350 . S
C2711 C2710 1.434 . S
C1921 C2 2.246 . S
C1923 C162 2.227 . S
C1932 C42 2.678 . S
C1934 C202 2.626 . S
C1943 C242 2.732 . S
C1945 C82 2.743 . S
C1954 C282 2.489 . S
C1956 C122 2.472 . S
C1965 C322 2.246 . S
C1967 C562 2.227 . S
C1976 C362 2.472 . S
C1978 C602 2.488 . S
C1987 C482 2.169 . S
C1989 C402 2.140 . S
C1998 C442 2.007 . S
C2000 C522 1.957 . S
C2009 C642 2.245 . S
C2011 C1802 2.227 . S
C2020 C682 2.142 . S
C2022 C1722 2.168 . S
C2031 C722 2.473 . S
C2033 C802 2.488 . S
C2042 C1642 2.730 . S
C2044 C762 2.746 . S
C2053 C1602 2.112 . S
C2055 C842 2.015 . S
C2064 C882 1.968 . S
C2066 C1882 1.997 . S
C2075 C1842 2.677 . S
C2077 C922 2.627 . S
C2086 C962 2.111 . S
C2088 C1122 2.012 . S
C2097 C1162 2.005 . S
C2099 C1002 1.959 . S
C2108 C1042 2.169 . S
C2110 C1202 2.140 . S
C2119 C1082 2.450 . S
C2121 C1242 2.337 . S
C2130 C1282 2.118 . S
C2132 C1522 2.011 . S
C2141 C1562 2.337 . S
C2143 C1322 2.450 . S
C2152 C1442 2.735 . S
C2154 C1362 2.739 . S
C2163 C1402 2.628 . S
C2165 C1482 2.676 . S
C2174 C1762 2.333 . S
C2176 C1682 2.451 . S
C2185 C621 1.858 . S
C2187 C21 1.853 . S
C2196 C61 2.164 . S
C2198 C501 2.095 . S
C2207 C541 1.887 . S
C2209 C101 1.945 . S
C2218 C581 1.898 . S
C2220 C141 1.929 . S
C2229 C181 1.897 . S
C2231 C381 1.932 . S
C2240 C421 2.051 . S
C2242 C221 2.024 . S
C2251 C461 1.643 . S
C2253 C261 1.614 . S
C2262 C341 1.847 . S
C2264 C301 1.857 . S
C2273 C821 1.856 . S
C2275 C661 1.848 . S
C2284 C701 2.050 . S
C2286 C941 2.026 . S
C2295 C741 1.932 . S
C2297 C1821 1.893 . S
C2306 C901 1.886 . S
C2308 C781 1.944 . S
C2317 C861 2.261 . S
C2319 C1701 2.463 . S
C2328 C1581 1.680 . S
C2330 C981 1.701 . S
C2339 C1461 1.943 . S
C2341 C1021 1.885 . S
C2350 C1501 2.164 . S
C2352 C1061 2.096 . S
C2361 C1541 2.266 . S
C2363 C1101 2.463 . S
C2372 C1141 2.263 . S
C2374 C1341 2.462 . S
C2383 C1181 1.644 . S
C2385 C1381 1.613 . S
C2394 C1221 2.050 . S
C2396 C1421 2.027 . S
C2405 C1301 1.705 . S
C2407 C1261 1.685 . S
C2416 C1781 1.687 . S
C2418 C1621 1.703 . S
C2427 C1901 1.642 . S
C2429 C1661 1.608 . S
C2438 C1861 2.163 . S
C2440 C1741 2.099 . S
C2449 C15 2.009 . S
C2451 C815 1.952 . S
C2460 C1655 2.943 . S
C2462 C55 3.006 . S
C2471 C1695 3.092 . S
C2473 C95 3.072 . S
C2482 C1735 2.135 . S
C2484 C135 2.061 . S
C2493 C175 1.432 . S
C2495 C1895 1.490 . S
C2504 C215 2.286 . S
C2506 C855 2.302 . S
C2515 C255 2.943 . S
C2517 C1855 3.006 . S
C2526 C655 2.009 . S
C2528 C295 1.947 . S
C2537 C335 2.011 . S
C2539 C615 1.948 . S
C2548 C375 2.063 . S
C2550 C495 2.135 . S
C2559 C415 1.597 . S
C2561 C535 1.608 . S
C2570 C455 1.500 . S
C2572 C575 1.417 . S
C2581 C1015 1.604 . S
C2583 C695 1.595 . S
C2592 C735 2.056 . S
C2594 C1055 2.134 . S
C2603 C775 3.067 . S
C2605 C1095 3.094 . S
C2614 C1215 1.595 . S
C2616 C895 1.610 . S
C2625 C935 2.285 . S
C2627 C1135 2.301 . S
C2636 C975 2.619 . S
C2638 C1775 2.677 . S
C2647 C1815 1.421 . S
C2649 C1175 1.492 . S
C2658 C1255 2.676 . S
C2660 C1615 2.618 . S
C2669 C1295 2.620 . S
C2671 C1575 2.673 . S
C2680 C1335 3.092 . S
C2682 C1455 3.072 . S
C2691 C1375 2.946 . S
C2693 C1495 3.005 . S
C2702 C1535 2.302 . S
C2704 C1415 2.285 . S
