# Generated by pormake.
# Topology unp, (4)-cn, num edge types: 1
# Building blocks:
#     Node 0, Type 0, BuildingBlock: TATPOV_clean_sbu_0, # of connection points: 4
#     Node 1, Type 0, BuildingBlock: TATPOV_clean_sbu_0, # of connection points: 4
#     Node 2, Type 0, BuildingBlock: TATPOV_clean_sbu_0, # of connection points: 4
#     Node 3, Type 0, BuildingBlock: TATPOV_clean_sbu_0, # of connection points: 4
#     Node 4, Type 0, BuildingBlock: TATPOV_clean_sbu_0, # of connection points: 4
#     Node 5, Type 0, BuildingBlock: TATPOV_clean_sbu_0, # of connection points: 4
#     Node 6, Type 0, BuildingBlock: TATPOV_clean_sbu_0, # of connection points: 4
#     Node 7, Type 0, BuildingBlock: TATPOV_clean_sbu_0, # of connection points: 4
#     Node 8, Type 0, BuildingBlock: TATPOV_clean_sbu_0, # of connection points: 4
#     Node 9, Type 0, BuildingBlock: TATPOV_clean_sbu_0, # of connection points: 4
#     Node 10, Type 0, BuildingBlock: TATPOV_clean_sbu_0, # of connection points: 4
#     Node 11, Type 0, BuildingBlock: TATPOV_clean_sbu_0, # of connection points: 4
#     Node 12, Type 0, BuildingBlock: TATPOV_clean_sbu_0, # of connection points: 4
#     Node 13, Type 0, BuildingBlock: TATPOV_clean_sbu_0, # of connection points: 4
#     Node 14, Type 0, BuildingBlock: TATPOV_clean_sbu_0, # of connection points: 4
#     Node 15, Type 0, BuildingBlock: TATPOV_clean_sbu_0, # of connection points: 4
#     Node 16, Type 0, BuildingBlock: TATPOV_clean_sbu_0, # of connection points: 4
#     Node 17, Type 0, BuildingBlock: TATPOV_clean_sbu_0, # of connection points: 4
#     Edge 18, Type (0, 0), BuildingBlock: XUDNAN_clean_linker_2, # of connection points: 2
#     Edge 19, Type (0, 0), BuildingBlock: XUDNAN_clean_linker_2, # of connection points: 2
#     Edge 20, Type (0, 0), BuildingBlock: XUDNAN_clean_linker_2, # of connection points: 2
#     Edge 21, Type (0, 0), BuildingBlock: XUDNAN_clean_linker_2, # of connection points: 2
#     Edge 22, Type (0, 0), BuildingBlock: XUDNAN_clean_linker_2, # of connection points: 2
#     Edge 23, Type (0, 0), BuildingBlock: XUDNAN_clean_linker_2, # of connection points: 2
#     Edge 24, Type (0, 0), BuildingBlock: XUDNAN_clean_linker_2, # of connection points: 2
#     Edge 25, Type (0, 0), BuildingBlock: XUDNAN_clean_linker_2, # of connection points: 2
#     Edge 26, Type (0, 0), BuildingBlock: XUDNAN_clean_linker_2, # of connection points: 2
#     Edge 27, Type (0, 0), BuildingBlock: XUDNAN_clean_linker_2, # of connection points: 2
#     Edge 28, Type (0, 0), BuildingBlock: XUDNAN_clean_linker_2, # of connection points: 2
#     Edge 29, Type (0, 0), BuildingBlock: XUDNAN_clean_linker_2, # of connection points: 2
#     Edge 30, Type (0, 0), BuildingBlock: XUDNAN_clean_linker_2, # of connection points: 2
#     Edge 31, Type (0, 0), BuildingBlock: XUDNAN_clean_linker_2, # of connection points: 2
#     Edge 32, Type (0, 0), BuildingBlock: XUDNAN_clean_linker_2, # of connection points: 2
#     Edge 33, Type (0, 0), BuildingBlock: XUDNAN_clean_linker_2, # of connection points: 2
#     Edge 34, Type (0, 0), BuildingBlock: XUDNAN_clean_linker_2, # of connection points: 2
#     Edge 35, Type (0, 0), BuildingBlock: XUDNAN_clean_linker_2, # of connection points: 2
#     Edge 36, Type (0, 0), BuildingBlock: XUDNAN_clean_linker_2, # of connection points: 2
#     Edge 37, Type (0, 0), BuildingBlock: XUDNAN_clean_linker_2, # of connection points: 2
#     Edge 38, Type (0, 0), BuildingBlock: XUDNAN_clean_linker_2, # of connection points: 2
#     Edge 39, Type (0, 0), BuildingBlock: XUDNAN_clean_linker_2, # of connection points: 2
#     Edge 40, Type (0, 0), BuildingBlock: XUDNAN_clean_linker_2, # of connection points: 2
#     Edge 41, Type (0, 0), BuildingBlock: XUDNAN_clean_linker_2, # of connection points: 2
#     Edge 42, Type (0, 0), BuildingBlock: XUDNAN_clean_linker_2, # of connection points: 2
#     Edge 43, Type (0, 0), BuildingBlock: XUDNAN_clean_linker_2, # of connection points: 2
#     Edge 44, Type (0, 0), BuildingBlock: XUDNAN_clean_linker_2, # of connection points: 2
#     Edge 45, Type (0, 0), BuildingBlock: XUDNAN_clean_linker_2, # of connection points: 2
#     Edge 46, Type (0, 0), BuildingBlock: XUDNAN_clean_linker_2, # of connection points: 2
#     Edge 47, Type (0, 0), BuildingBlock: XUDNAN_clean_linker_2, # of connection points: 2
#     Edge 48, Type (0, 0), BuildingBlock: XUDNAN_clean_linker_2, # of connection points: 2
#     Edge 49, Type (0, 0), BuildingBlock: XUDNAN_clean_linker_2, # of connection points: 2
#     Edge 50, Type (0, 0), BuildingBlock: XUDNAN_clean_linker_2, # of connection points: 2
#     Edge 51, Type (0, 0), BuildingBlock: XUDNAN_clean_linker_2, # of connection points: 2
#     Edge 52, Type (0, 0), BuildingBlock: XUDNAN_clean_linker_2, # of connection points: 2
#     Edge 53, Type (0, 0), BuildingBlock: XUDNAN_clean_linker_2, # of connection points: 2
# Relax obj value: 0.364
# Max RMSD: 0.176
# Mean RMSD: 0.176
data_MOF--net-unp--node1-TATPOV_clean_sbu_0--edge1-XUDNAN_clean_linker_2
_symmetry_space_group_name_H-M    P1
_symmetry_Int_Tables_number       1
_symmetry_cell_setting            triclinic
loop_
_symmetry_equiv_pos_as_xyz
'x, y, z'
_cell_length_a     46.385092
_cell_length_b     46.373419
_cell_length_c     67.129405
_cell_angle_alpha  89.784158
_cell_angle_beta   89.921772
_cell_angle_gamma 120.21802
loop_
_atom_site_label
_atom_site_type_symbol
_atom_site_fract_x
_atom_site_fract_y
_atom_site_fract_z
_atom_type_partial_charge
Zn0 Zn 0.14214 0.16198 0.09087 0.0
Zn1 Zn 0.18943 0.17162 0.11412 0.0
O2 O 0.17082 0.12159 0.10846 0.0
O3 O 0.12861 0.11313 0.08955 0.0
O4 O 0.22865 0.18465 0.13245 0.0
O5 O 0.17018 0.19372 0.07019 0.0
O6 O 0.21246 0.20336 0.08942 0.0
C7 C 0.14502 0.10187 0.09844 0.0
C8 C 0.12915 0.17875 0.12781 0.0
O9 O 0.15448 0.17584 0.1318 0.0
O10 O 0.11976 0.17685 0.10999 0.0
C11 C 0.2375 0.20797 0.14508 0.0
O12 O 0.22032 0.22335 0.14653 0.0
C13 C 0.20113 0.20916 0.0735 0.0
Zn14 Zn 0.88916 0.97774 0.10186 0.0
Zn15 Zn 0.84414 -0.00722 0.11345 0.0
O16 O 0.88765 0.02888 0.12697 0.0
O17 O 0.92374 0.01299 0.11944 0.0
O18 O 0.81128 0.00672 0.12165 0.0
O19 O 0.88377 0.98685 0.07314 0.0
O20 O 0.84298 -0.00505 0.08256 0.0
C21 C 0.9167 0.03252 0.12852 0.0
C22 C 0.83465 0.92417 0.12291 0.0
O23 O 0.82458 0.94494 0.12507 0.0
O24 O 0.86085 0.93193 0.11307 0.0
C25 C 0.79515 -0.0026 0.13796 0.0
O26 O 0.79942 0.97735 0.1499 0.0
C27 C 0.86066 -0.00731 0.06874 0.0
Zn28 Zn 0.93645 0.81055 0.07267 0.0
Zn29 Zn 0.95754 0.78594 0.10032 0.0
O30 O 0.91252 0.78072 0.11057 0.0
O31 O 0.8936 0.79804 0.0861 0.0
O32 O 0.96753 0.75955 0.12054 0.0
O33 O 0.93638 0.78056 0.05183 0.0
O34 O 0.95767 0.76174 0.07415 0.0
C35 C 0.88999 0.78574 0.10337 0.0
C36 C -0.00058 0.8597 0.0909 0.0
O37 O -0.00397 0.8351 0.10136 0.0
O38 O 0.97764 0.85521 0.07798 0.0
C39 C 0.95116 0.74828 0.13669 0.0
O40 O 0.92954 0.75725 0.14194 0.0
C41 C 0.94771 0.76175 0.05646 0.0
Zn42 Zn 0.11659 0.18008 0.92985 0.0
Zn43 Zn 0.16065 0.20117 0.90142 0.0
O44 O 0.1221 0.20841 0.89144 0.0
O45 O 0.08707 0.19393 0.91654 0.0
O46 O 0.19588 0.22675 0.88068 0.0
O47 O 0.14875 0.20959 0.9504 0.0
O48 O 0.18725 0.2237 0.92729 0.0
C49 C 0.09517 0.20482 0.89893 0.0
C50 C 0.12538 0.12788 0.91069 0.0
O51 O 0.14697 0.15156 0.89979 0.0
O52 O 0.11013 0.13406 0.92422 0.0
C53 C 0.19181 0.22259 0.86198 0.0
O54 O 0.16385 0.19767 0.85514 0.0
C55 C 0.17906 0.22544 0.94519 0.0
Zn56 Zn 0.89381 0.01258 0.88712 0.0
Zn57 Zn 0.83457 0.00358 0.87911 0.0
O58 O 0.83702 0.96488 0.86491 0.0
O59 O 0.88838 0.97563 0.86969 0.0
O60 O 0.78742 -0.0087 0.87195 0.0
O61 O 0.88241 0.00542 0.91638 0.0
O62 O 0.83397 0.00133 0.91003 0.0
C63 C 0.85998 0.95787 0.86196 0.0
C64 C 0.89748 0.06945 0.86813 0.0
O65 O 0.8657 0.05188 0.86807 0.0
O66 O 0.91483 0.05819 0.87563 0.0
C67 C 0.77772 0.00978 0.86385 0.0
O68 O 0.79951 0.04125 0.86015 0.0
C69 C 0.85503 0.00201 0.92252 0.0
Zn70 Zn 0.94567 0.8258 0.91075 0.0
Zn71 Zn 0.98117 0.81394 0.88575 0.0
O72 O 0.01424 0.86392 0.88981 0.0
O73 O 0.98411 0.87396 0.91101 0.0
O74 O 0.00358 0.79665 0.86752 0.0
O75 O 0.94181 0.79286 0.93098 0.0
O76 O 0.97474 0.78482 0.91107 0.0
C77 C 0.01051 0.88427 0.90072 0.0
C78 C 0.91335 0.80711 0.87391 0.0
O79 O 0.94049 0.80803 0.86926 0.0
O80 O 0.90819 0.8121 0.89171 0.0
C81 C -0.01209 0.76504 0.8659 0.0
O82 O 0.9588 0.74767 0.87478 0.0
C83 C 0.95812 0.77844 0.92723 0.0
Zn84 Zn 0.75257 0.51458 0.40738 0.0
Zn85 Zn 0.7956 0.51579 0.43307 0.0
O86 O 0.7711 0.46539 0.43012 0.0
O87 O 0.73255 0.46376 0.41015 0.0
O88 O 0.83397 0.52962 0.45196 0.0
O89 O 0.78628 0.54015 0.38571 0.0
O90 O 0.82084 0.53835 0.40721 0.0
C91 C 0.7443 0.44875 0.42021 0.0
C92 C 0.74129 0.53441 0.44377 0.0
O93 O 0.76371 0.52712 0.44787 0.0
O94 O 0.73416 0.53582 0.42573 0.0
C95 C 0.8532 0.56107 0.45302 0.0
O96 O 0.84536 0.58055 0.443 0.0
C97 C 0.81538 0.54641 0.39008 0.0
Zn98 Zn 0.52319 0.30023 0.46908 0.0
Zn99 Zn 0.47368 0.31224 0.47017 0.0
O100 O 0.51519 0.35555 0.48007 0.0
O101 O 0.55643 0.34513 0.47989 0.0
O102 O 0.43739 0.32344 0.47326 0.0
O103 O 0.51462 0.29263 0.43905 0.0
O104 O 0.47496 0.30546 0.44035 0.0
C105 C 0.5458 0.36501 0.48311 0.0
C106 C 0.46835 0.24928 0.48996 0.0
O107 O 0.45538 0.26649 0.48424 0.0
O108 O 0.49921 0.26053 0.4872 0.0
C109 C 0.43435 0.33508 0.48973 0.0
O110 O 0.45393 0.33776 0.5046 0.0
C111 C 0.49252 0.29656 0.43038 0.0
Zn112 Zn 0.52279 0.16484 0.38519 0.0
Zn113 Zn 0.55188 0.13559 0.402 0.0
O114 O 0.50752 0.12146 0.41672 0.0
O115 O 0.47867 0.13823 0.39936 0.0
O116 O 0.56496 0.10518 0.41585 0.0
O117 O 0.53062 0.15349 0.35777 0.0
O118 O 0.55444 0.12782 0.37174 0.0
C119 C 0.48101 0.12285 0.41429 0.0
C120 C 0.58478 0.20977 0.40638 0.0
O121 O 0.58681 0.18364 0.4091 0.0
O122 O 0.55967 0.20775 0.39752 0.0
C123 C 0.57722 0.11207 0.43328 0.0
O124 O 0.58441 0.14078 0.44121 0.0
C125 C 0.54593 0.13748 0.35612 0.0
Zn126 Zn 0.85228 0.43845 0.25075 0.0
Zn127 Zn 0.85296 0.48359 0.22719 0.0
O128 O 0.80253 0.45771 0.22934 0.0
O129 O 0.80124 0.41766 0.24787 0.0
O130 O 0.86687 0.5238 0.20964 0.0
O131 O 0.87715 0.46978 0.27327 0.0
O132 O 0.87302 0.50592 0.25406 0.0
C133 C 0.78604 0.42981 0.23837 0.0
C134 C 0.87389 0.43164 0.21411 0.0
O135 O 0.86586 0.45386 0.21106 0.0
O136 O 0.87489 0.42262 0.23177 0.0
C137 C 0.89707 0.53882 0.20374 0.0
O138 O 0.91611 0.52638 0.20847 0.0
C139 C 0.88154 0.4987 0.27051 0.0
Zn140 Zn 0.50166 0.19953 0.26382 0.0
Zn141 Zn 0.47262 0.22938 0.24699 0.0
O142 O 0.45976 0.18617 0.23138 0.0
O143 O 0.47706 0.15703 0.24803 0.0
O144 O 0.44265 0.24418 0.2342 0.0
O145 O 0.48723 0.20374 0.29122 0.0
O146 O 0.46255 0.22849 0.27716 0.0
C147 C 0.46194 0.15998 0.23321 0.0
C148 C 0.54724 0.26397 0.24452 0.0
O149 O 0.52094 0.26536 0.24105 0.0
O150 O 0.54509 0.23853 0.25313 0.0
C151 C 0.43643 0.23959 0.21566 0.0
O152 O 0.45215 0.22829 0.20479 0.0
C153 C 0.47061 0.21845 0.29278 0.0
Zn154 Zn 0.64436 0.21278 0.18305 0.0
Zn155 Zn 0.65849 0.16462 0.18082 0.0
O156 O 0.70192 0.20729 0.17193 0.0
O157 O 0.6898 0.24736 0.17335 0.0
O158 O 0.66983 0.1285 0.17753 0.0
O159 O 0.63465 0.20141 0.21277 0.0
O160 O 0.64942 0.16325 0.21059 0.0
C161 C 0.71056 0.23792 0.16976 0.0
C162 C 0.59636 0.15933 0.16015 0.0
O163 O 0.61392 0.1467 0.16572 0.0
O164 O 0.60623 0.18961 0.16396 0.0
C165 C 0.68473 0.12692 0.16205 0.0
O166 O 0.69223 0.14901 0.14774 0.0
C167 C 0.63894 0.1791 0.22091 0.0
Zn168 Zn 0.50007 0.78874 0.73803 0.0
Zn169 Zn 0.52409 0.83118 0.7668 0.0
O170 O 0.52922 0.7904 0.77525 0.0
O171 O 0.51159 0.75637 0.74973 0.0
O172 O 0.5522 0.86709 0.78683 0.0
O173 O 0.52816 0.81948 0.71654 0.0
O174 O 0.54378 0.85733 0.74002 0.0
C175 C 0.52353 0.7632 0.76711 0.0
C176 C 0.45111 0.80052 0.75909 0.0
O177 O 0.47533 0.81966 0.77037 0.0
O178 O 0.45586 0.78567 0.74471 0.0
C179 C 0.56288 0.86163 0.80304 0.0
O180 O 0.55297 0.83074 0.80836 0.0
C181 C 0.54424 0.84961 0.72185 0.0
Zn182 Zn 0.16037 0.62781 0.73915 0.0
Zn183 Zn 0.13732 0.64659 0.76857 0.0
O184 O 0.18698 0.68398 0.76929 0.0
O185 O 0.2057 0.66796 0.74398 0.0
O186 O 0.11462 0.65831 0.78992 0.0
O187 O 0.13063 0.63037 0.71906 0.0
O188 O 0.11062 0.64677 0.74352 0.0
C189 C 0.21094 0.68829 0.75795 0.0
C190 C 0.13655 0.57964 0.77009 0.0
O191 O 0.13179 0.60155 0.77849 0.0
O192 O 0.1475 0.58429 0.75241 0.0
C193 C 0.11711 0.68687 0.7905 0.0
O194 O 0.1367 0.70992 0.77764 0.0
C195 C 0.11088 0.63965 0.72523 0.0
Zn196 Zn 0.33196 0.55032 0.76774 0.0
Zn197 Zn 0.32787 0.49267 0.77397 0.0
O198 O 0.28432 0.48812 0.78629 0.0
O199 O 0.28967 0.53768 0.78191 0.0
O200 O 0.32042 0.44669 0.77971 0.0
O201 O 0.33244 0.54379 0.73812 0.0
O202 O 0.32989 0.49565 0.74318 0.0
C203 C 0.27336 0.5082 0.78854 0.0
C204 C 0.38772 0.5575 0.78947 0.0
O205 O 0.37359 0.52596 0.78718 0.0
O206 O 0.37449 0.57355 0.78268 0.0
C207 C 0.32067 0.43788 0.79763 0.0
O208 O 0.3286 0.46002 0.81184 0.0
C209 C 0.3316 0.51797 0.73127 0.0
Zn210 Zn 0.47927 0.8199 0.56895 0.0
Zn211 Zn 0.50199 0.86715 0.54614 0.0
O212 O 0.45073 0.84943 0.5434 0.0
O213 O 0.43367 0.80068 0.55757 0.0
O214 O 0.52422 0.90905 0.52938 0.0
O215 O 0.49016 0.84552 0.59414 0.0
O216 O 0.52395 0.88598 0.57402 0.0
C217 C 0.42723 0.82003 0.54772 0.0
C218 C 0.5177 0.81132 0.54065 0.0
O219 O 0.51443 0.83448 0.5326 0.0
O220 O 0.5089 0.8034 0.55861 0.0
C221 C 0.51825 0.91141 0.51116 0.0
O222 O 0.49595 0.88468 0.5017 0.0
C223 C 0.51413 0.87486 0.59163 0.0
Zn224 Zn 0.14475 0.62376 0.57453 0.0
Zn225 Zn 0.11496 0.63891 0.54959 0.0
O226 O 0.11661 0.59748 0.53941 0.0
O227 O 0.12507 0.57589 0.56627 0.0
O228 O 0.08326 0.64175 0.53037 0.0
O229 O 0.12747 0.63584 0.5982 0.0
O230 O 0.09274 0.63809 0.57686 0.0
C231 C 0.1187 0.57395 0.54787 0.0
C232 C 0.18846 0.68156 0.55026 0.0
O233 O 0.1615 0.68063 0.54523 0.0
O234 O 0.18735 0.65881 0.56132 0.0
C235 C 0.05488 0.61534 0.52914 0.0
O236 O 0.04913 0.58915 0.53982 0.0
C237 C 0.10247 0.63899 0.59471 0.0
Zn238 Zn 0.34372 0.58295 0.55316 0.0
Zn239 Zn 0.34607 0.53063 0.54079 0.0
O240 O 0.38831 0.57072 0.52787 0.0
O241 O 0.38781 0.61401 0.54094 0.0
O242 O 0.34982 0.4914 0.53173 0.0
O243 O 0.34114 0.56838 0.58173 0.0
O244 O 0.34683 0.52654 0.57147 0.0
C245 C 0.40153 0.60217 0.53004 0.0
C246 C 0.28735 0.53993 0.5294 0.0
O247 O 0.30012 0.52121 0.53026 0.0
O248 O 0.30214 0.56856 0.53725 0.0
C249 C 0.33833 0.47644 0.51531 0.0
O250 O 0.32249 0.48637 0.50345 0.0
C251 C 0.34384 0.54312 0.58563 0.0
H252 H 0.40372 0.21266 0.18079 0.0
H253 H 0.40559 0.27183 0.23123 0.0
H254 H 0.35606 0.27221 0.2179 0.0
H255 H 0.37534 0.25032 0.14342 0.0
H256 H 0.34912 0.21107 0.13121 0.0
H257 H 0.38638 0.21818 0.14383 0.0
H258 H 0.35127 0.16486 0.16508 0.0
H259 H 0.31389 0.15772 0.15266 0.0
H260 H 0.31649 0.16074 0.17943 0.0
H261 H 0.30501 0.26425 0.19955 0.0
H262 H 0.25581 0.24758 0.17818 0.0
H263 H 0.28623 0.1914 0.1407 0.0
C264 C 0.39414 0.22626 0.18886 0.0
C265 C 0.4087 0.24252 0.20696 0.0
C266 C 0.39492 0.25937 0.21728 0.0
C267 C 0.36683 0.25974 0.20982 0.0
C268 C 0.35273 0.24293 0.1921 0.0
C269 C 0.36592 0.22648 0.18178 0.0
C270 C 0.345 0.20866 0.16375 0.0
C271 C 0.36517 0.22292 0.14441 0.0
C272 C 0.33082 0.17075 0.16534 0.0
C273 C 0.31775 0.21735 0.16562 0.0
C274 C 0.32282 0.23743 0.18194 0.0
C275 C 0.30084 0.24858 0.18672 0.0
C276 C 0.27296 0.23897 0.17449 0.0
C277 C 0.26709 0.21808 0.15782 0.0
C278 C 0.28989 0.20722 0.1534 0.0
H279 H 0.78814 0.04618 0.11937 0.0
H280 H 0.7527 0.97831 0.17001 0.0
H281 H 0.71788 0.00194 0.18063 0.0
H282 H 0.79535 0.1159 0.14485 0.0
H283 H 0.78203 0.13109 0.12411 0.0
H284 H 0.80217 0.10716 0.11969 0.0
H285 H 0.75172 0.0651 0.09861 0.0
H286 H 0.73142 0.08895 0.10294 0.0
H287 H 0.71041 0.04521 0.10931 0.0
H288 H 0.68936 0.035 0.18669 0.0
H289 H 0.66948 0.07533 0.18792 0.0
H290 H 0.72389 0.12163 0.13335 0.0
C291 C 0.77275 0.03595 0.13256 0.0
C292 C 0.77304 0.01031 0.14383 0.0
C293 C 0.75284 -0.00207 0.16113 0.0
C294 C 0.73293 0.01114 0.16726 0.0
C295 C 0.73352 0.03666 0.15592 0.0
C296 C 0.75288 0.04891 0.13893 0.0
C297 C 0.7503 0.0775 0.12991 0.0
C298 C 0.78449 0.10982 0.12964 0.0
C299 C 0.73504 0.06864 0.10895 0.0
C300 C 0.72672 0.07965 0.14462 0.0
C301 C 0.7172 0.05578 0.15945 0.0
C302 C 0.69644 0.05365 0.17509 0.0
C303 C 0.68534 0.07671 0.17566 0.0
C304 C 0.69507 0.10159 0.16071 0.0
C305 C 0.71578 0.10276 0.14492 0.0
H306 H 0.87079 0.57997 0.19988 0.0
H307 H 0.95596 0.57031 0.18315 0.0
H308 H 0.98094 0.62466 0.16571 0.0
H309 H 0.8654 0.6179 0.15472 0.0
H310 H 0.85425 0.64546 0.16697 0.0
H311 H 0.84344 0.60596 0.1782 0.0
H312 H 0.87437 0.63642 0.21042 0.0
H313 H 0.88556 0.67606 0.19919 0.0
H314 H 0.91756 0.66885 0.20899 0.0
H315 H -0.00452 0.67903 0.14888 0.0
H316 H -0.00179 0.72918 0.1339 0.0
H317 H 0.90488 0.70431 0.16309 0.0
C318 C 0.89463 0.58921 0.19248 0.0
C319 C 0.91137 0.57085 0.19279 0.0
C320 C 0.94269 0.58397 0.1831 0.0
C321 C 0.95711 0.61484 0.17319 0.0
C322 C 0.94008 0.63245 0.1733 0.0
C323 C 0.90958 0.62016 0.18274 0.0
C324 C 0.89637 0.64393 0.1806 0.0
C325 C 0.86289 0.62732 0.16945 0.0
C326 C 0.8933 0.65709 0.20101 0.0
C327 C 0.92394 0.67124 0.1682 0.0
C328 C 0.94897 0.6642 0.16416 0.0
C329 C 0.97621 0.68499 0.15212 0.0
C330 C 0.97757 0.71342 0.1437 0.0
C331 C 0.95196 0.72083 0.14748 0.0
C332 C 0.92518 0.6997 0.16019 0.0
H333 H 0.31714 0.41092 0.83451 0.0
H334 H 0.29293 0.38416 0.7724 0.0
H335 H 0.26322 0.32449 0.78177 0.0
H336 H 0.32643 0.33777 0.84886 0.0
H337 H 0.30777 0.3346 0.87293 0.0
H338 H 0.33162 0.37474 0.86093 0.0
H339 H 0.28111 0.38395 0.86401 0.0
H340 H 0.25714 0.34393 0.8759 0.0
H341 H 0.24145 0.35341 0.85377 0.0
H342 H 0.2287 0.26848 0.79851 0.0
H343 H 0.19408 0.22114 0.82111 0.0
H344 H 0.24244 0.28463 0.87202 0.0
C345 C 0.3064 0.39254 0.82279 0.0
C346 C 0.30743 0.40226 0.80272 0.0
C347 C 0.29265 0.37736 0.78788 0.0
C348 C 0.27574 0.34336 0.79306 0.0
C349 C 0.27425 0.33466 0.81309 0.0
C350 C 0.2896 0.35857 0.82769 0.0
C351 C 0.28198 0.34298 0.84827 0.0
C352 C 0.31385 0.34781 0.85834 0.0
C353 C 0.26437 0.35689 0.86123 0.0
C354 C 0.25875 0.30675 0.84305 0.0
C355 C 0.25486 0.30232 0.82268 0.0
C356 C 0.23214 0.27152 0.81447 0.0
C357 C 0.21252 0.24477 0.82741 0.0
C358 C 0.21573 0.24905 0.84833 0.0
C359 C 0.23979 0.28029 0.85611 0.0
H360 H 0.72763 0.94471 0.86763 0.0
H361 H 0.74917 0.04051 0.84344 0.0
H362 H 0.69299 0.01377 0.82844 0.0
H363 H 0.6873 0.89795 0.82629 0.0
H364 H 0.65656 0.86178 0.83982 0.0
H365 H 0.69635 0.88918 0.85095 0.0
H366 H 0.66682 0.89738 0.88139 0.0
H367 H 0.62681 0.86987 0.87034 0.0
H368 H 0.6374 0.91146 0.87755 0.0
H369 H 0.63726 0.97534 0.81269 0.0
H370 H 0.58681 0.92864 0.79766 0.0
H371 H 0.60172 0.85829 0.83259 0.0
C372 C 0.72034 0.96028 0.85956 0.0
C373 C 0.74284 -0.00523 0.85677 0.0
C374 C 0.73236 0.01408 0.84588 0.0
C375 C 0.70045 -0.00088 0.83733 0.0
C376 C 0.6792 0.96489 0.83998 0.0
C377 C 0.68865 0.94578 0.85098 0.0
C378 C 0.66233 0.90913 0.85032 0.0
C379 C 0.67649 0.88831 0.8413 0.0
C380 C 0.64746 0.89621 0.87114 0.0
C381 C 0.63708 0.91041 0.83665 0.0
C382 C 0.64703 0.94281 0.83102 0.0
C383 C 0.62895 0.94993 0.81726 0.0
C384 C 0.60034 0.92322 0.80878 0.0
C385 C 0.59015 0.88979 0.81403 0.0
C386 C 0.60847 0.88354 0.82849 0.0
H387 H 0.11949 0.74628 0.79807 0.0
H388 H 0.06572 0.64089 0.81356 0.0
H389 H 0.02705 0.64975 0.83435 0.0
H390 H 0.11176 0.7761 0.84685 0.0
H391 H 0.10679 0.80935 0.83665 0.0
H392 H 0.1308 0.79491 0.8233 0.0
H393 H 0.09346 0.78374 0.7923 0.0
H394 H 0.06917 0.79789 0.8056 0.0
H395 H 0.04891 0.75695 0.7946 0.0
H396 H -0.00754 0.66906 0.85185 0.0
H397 H 0.96651 0.69854 0.86734 0.0
H398 H 0.04357 0.79198 0.84163 0.0
C399 C 0.09975 0.72511 0.80596 0.0
C400 C 0.09561 0.69287 0.80415 0.0
C401 C 0.06948 0.66584 0.81474 0.0
C402 C 0.0473 0.67058 0.82655 0.0
C403 C 0.05176 0.70254 0.82776 0.0
C404 C 0.07753 0.72945 0.81797 0.0
C405 C 0.07672 0.76122 0.82189 0.0
C406 C 0.1084 0.78691 0.83283 0.0
C407 C 0.07176 0.77579 0.80244 0.0
C408 C 0.04625 0.74785 0.83524 0.0
C409 C 0.03217 0.7139 0.83832 0.0
C410 C 0.00338 0.69569 0.84969 0.0
C411 C -0.01124 0.71268 0.85835 0.0
C412 C 0.00306 0.7476 0.85575 0.0
C413 C 0.03216 0.76533 0.84397 0.0
H414 H 0.87683 0.52862 0.4764 0.0
H415 H 0.90186 0.62673 0.45436 0.0
H416 H 0.95629 0.65129 0.47121 0.0
H417 H 0.91553 0.55613 0.52474 0.0
H418 H 0.93 0.52662 0.52561 0.0
H419 H 0.89278 0.51681 0.51196 0.0
H420 H 0.91819 0.50656 0.48023 0.0
H421 H 0.95556 0.51653 0.49375 0.0
H422 H 0.95818 0.53899 0.47121 0.0
H423 H 0.00884 0.66507 0.48954 0.0
H424 H 0.05454 0.66728 0.50963 0.0
H425 H -0.00526 0.5605 0.5202 0.0
C426 C 0.89367 0.55529 0.4752 0.0
C427 C 0.88506 0.57572 0.46404 0.0
C428 C 0.90784 0.61053 0.46285 0.0
C429 C 0.93888 0.62475 0.47233 0.0
C430 C 0.94673 0.60388 0.48304 0.0
C431 C 0.92472 0.56995 0.48466 0.0
C432 C 0.93926 0.55313 0.49714 0.0
C433 C 0.91814 0.53725 0.51598 0.0
C434 C 0.94302 0.52728 0.48484 0.0
C435 C 0.97292 0.58289 0.50219 0.0
C436 C 0.97681 0.61191 0.49385 0.0
C437 C 0.00604 0.64252 0.49623 0.0
C438 C 0.03188 0.64352 0.50761 0.0
C439 C 0.02819 0.61412 0.51653 0.0
C440 C -0.0017 0.58347 0.51366 0.0
H441 H 0.37426 0.45357 0.53537 0.0
H442 H 0.31733 0.43885 0.48128 0.0
H443 H 0.33142 0.39666 0.47017 0.0
H444 H 0.44027 0.44993 0.51317 0.0
H445 H 0.44666 0.42842 0.53359 0.0
H446 H 0.42909 0.45461 0.53819 0.0
H447 H 0.37772 0.40503 0.55517 0.0
H448 H 0.39519 0.37863 0.55062 0.0
H449 H 0.35392 0.36643 0.54182 0.0
H450 H 0.35585 0.35981 0.46371 0.0
H451 H 0.38903 0.33167 0.46226 0.0
H452 H 0.42958 0.37064 0.52071 0.0
C453 C 0.36425 0.44112 0.52133 0.0
C454 C 0.34461 0.44947 0.50921 0.0
C455 C 0.33236 0.43282 0.49084 0.0
C456 C 0.34015 0.40875 0.48443 0.0
C457 C 0.36003 0.40152 0.49662 0.0
C458 C 0.37179 0.41713 0.51472 0.0
C459 C 0.39444 0.40656 0.52445 0.0
C460 C 0.42969 0.43667 0.52752 0.0
C461 C 0.37941 0.38806 0.54418 0.0
C462 C 0.3943 0.38318 0.50877 0.0
C463 C 0.37405 0.38031 0.49291 0.0
C464 C 0.37145 0.36154 0.47614 0.0
C465 C 0.39043 0.34569 0.47545 0.0
C466 C 0.41181 0.34885 0.4914 0.0
C467 C 0.41321 0.3674 0.50837 0.0
H468 H 0.54442 0.04446 0.42709 0.0
H469 H 0.6115 0.12128 0.46795 0.0
H470 H 0.6077 0.07782 0.49096 0.0
H471 H 0.49036 -0.00909 0.46319 0.0
H472 H 0.48187 0.95274 0.45116 0.0
H473 H 0.49366 0.98958 0.43648 0.0
H474 H 0.54281 0.98563 0.4211 0.0
H475 H 0.531 0.94853 0.43563 0.0
H476 H 0.5728 0.98367 0.43726 0.0
H477 H 0.59229 0.02646 0.51094 0.0
H478 H 0.56641 0.97078 0.52662 0.0
H479 H 0.50819 0.92703 0.47314 0.0
C480 C 0.55908 0.05217 0.44061 0.0
C481 C 0.57854 0.08629 0.44565 0.0
C482 C 0.5966 0.09531 0.46373 0.0
C483 C 0.59464 0.0708 0.47688 0.0
C484 C 0.5745 0.03738 0.47173 0.0
C485 C 0.55713 0.028 0.45399 0.0
C486 C 0.53499 0.99041 0.45282 0.0
C487 C 0.49804 0.98034 0.4508 0.0
C488 C 0.54607 0.97623 0.43569 0.0
C489 C 0.54194 0.98018 0.47289 0.0
C490 C 0.56513 0.00764 0.48344 0.0
C491 C 0.57441 0.00473 0.50273 0.0
C492 C 0.55946 0.97295 0.51153 0.0
C493 C 0.53527 0.94445 0.50112 0.0
C494 C 0.52676 0.94823 0.48145 0.0
H495 H 0.10174 0.12709 0.15283 0.0
H496 H 0.09743 0.21391 0.13409 0.0
H497 H 0.03848 0.18672 0.14426 0.0
H498 H 0.0408 0.07731 0.1284 0.0
H499 H 0.02177 0.04118 0.14451 0.0
H500 H 0.06505 0.07106 0.14712 0.0
H501 H 0.05667 0.07993 0.18419 0.0
H502 H 0.01304 0.049 0.18199 0.0
H503 H 0.02527 0.09003 0.19122 0.0
H504 H 0.97873 0.14528 0.14377 0.0
H505 H 0.92655 0.09559 0.13287 0.0
H506 H 0.96779 0.03297 0.14816 0.0
C507 C 0.08895 0.14123 0.15253 0.0
C508 C 0.10406 0.1727 0.14314 0.0
C509 C 0.08642 0.19011 0.14179 0.0
C510 C 0.05273 0.1746 0.14741 0.0
C511 C 0.03704 0.14158 0.15415 0.0
C512 C 0.05484 0.1252 0.1571 0.0
C513 C 0.03159 0.0878 0.15896 0.0
C514 C 0.04032 0.06828 0.14384 0.0
C515 C 0.03164 0.076 0.18037 0.0
C516 C -0.00142 0.08542 0.15421 0.0
C517 C 0.00182 0.11667 0.15261 0.0
C518 C 0.97566 0.1207 0.14563 0.0
C519 C 0.94609 0.09236 0.1394 0.0
C520 C 0.94339 0.06063 0.13968 0.0
C521 C 0.96933 0.05706 0.14799 0.0
H522 H 0.79309 0.86805 0.10397 0.0
H523 H 0.84169 0.90647 0.1602 0.0
H524 H 0.83977 0.85355 0.16732 0.0
H525 H 0.7503 0.76896 0.12022 0.0
H526 H 0.75797 0.76082 0.09511 0.0
H527 H 0.74459 0.79064 0.09964 0.0
H528 H 0.79556 0.83496 0.07986 0.0
H529 H 0.80918 0.80589 0.07553 0.0
H530 H 0.83696 0.84508 0.08743 0.0
H531 H 0.85729 0.81338 0.16139 0.0
H532 H 0.88976 0.79268 0.14384 0.0
H533 H 0.83086 0.77698 0.09091 0.0
C534 C 0.80055 0.8638 0.11845 0.0
C535 C 0.81694 0.89065 0.13168 0.0
C536 C 0.82817 0.88567 0.15017 0.0
C537 C 0.82729 0.85558 0.15423 0.0
C538 C 0.81494 0.83074 0.13968 0.0
C539 C 0.80042 0.83401 0.12235 0.0
C540 C 0.79686 0.80859 0.10694 0.0
C541 C 0.76026 0.78059 0.1054 0.0
C542 C 0.81055 0.82466 0.08629 0.0
C543 C 0.81767 0.79563 0.11657 0.0
C544 C 0.82575 0.80669 0.13603 0.0
C545 C 0.85013 0.80356 0.14648 0.0
C546 C 0.86859 0.7917 0.13639 0.0
C547 C 0.86287 0.78366 0.11597 0.0
C548 C 0.83535 0.78292 0.10658 0.0
H549 H 0.0956 0.05566 0.075 0.0
H550 H 0.1642 0.06534 0.12186 0.0
H551 H 0.13686 0.00367 0.12396 0.0
H552 H 0.02482 0.98882 0.0958 0.0
H553 H 0.00716 0.96881 0.0724 0.0
H554 H 0.03446 0.01329 0.07327 0.0
H555 H 0.07311 0.00943 0.04678 0.0
H556 H 0.04575 0.96489 0.04567 0.0
H557 H 0.08941 0.98191 0.05103 0.0
H558 H 0.09751 0.93984 0.12269 0.0
H559 H 0.05208 0.88146 0.11736 0.0
H560 H 0.01092 0.91605 0.0713 0.0
C561 C 0.10538 0.04497 0.08549 0.0
C562 C 0.13212 0.06539 0.09823 0.0
C563 C 0.14391 0.05021 0.11182 0.0
C564 C 0.12846 0.0152 0.11315 0.0
C565 C 0.1015 -0.00419 0.10067 0.0
C566 C 0.09039 0.01034 0.08697 0.0
C567 C 0.06006 0.9845 0.0759 0.0
C568 C 0.02986 0.98914 0.07958 0.0
C569 C 0.06754 0.98523 0.05352 0.0
C570 C 0.05531 0.95303 0.0857 0.0
C571 C 0.07939 0.95979 0.09991 0.0
C572 C 0.0788 0.93432 0.11143 0.0
C573 C 0.05288 0.90125 0.10833 0.0
C574 C 0.02793 0.89404 0.09387 0.0
C575 C 0.02961 0.92046 0.08239 0.0
H576 H 0.01206 0.93208 0.925 0.0
H577 H 0.06533 0.9185 0.87611 0.0
H578 H 0.10349 0.97971 0.87439 0.0
H579 H 0.01391 0.00319 0.90613 0.0
H580 H 0.0192 0.02284 0.93002 0.0
H581 H -0.00163 0.9781 0.92841 0.0
H582 H 0.04027 0.97717 0.95357 0.0
H583 H 0.06117 0.02197 0.95534 0.0
H584 H 0.08441 0.00187 0.94861 0.0
H585 H 0.133 0.04367 0.87655 0.0
H586 H 0.1514 0.10311 0.88294 0.0
H587 H 0.07825 0.07273 0.93056 0.0
C588 C 0.03202 0.9418 0.91409 0.0
C589 C 0.0357 0.92041 0.90071 0.0
C590 C 0.06211 0.93435 0.88661 0.0
C591 C 0.08388 0.9691 0.88551 0.0
C592 C 0.07904 0.98949 0.89871 0.0
C593 C 0.05386 0.97618 0.91283 0.0
C594 C 0.05274 0.00315 0.92478 0.0
C595 C 0.01907 0.00173 0.92216 0.0
C596 C 0.0601 0.0009 0.94688 0.0
C597 C 0.08084 0.03387 0.91497 0.0
C598 C 0.09592 0.02569 0.90002 0.0
C599 C 0.12157 0.05028 0.88839 0.0
C600 C 0.13185 0.08398 0.89211 0.0
C601 C 0.11643 0.09271 0.90731 0.0
C602 C 0.09084 0.06711 0.91892 0.0
H603 H 0.0412 0.20798 0.91135 0.0
H604 H 0.09107 0.20282 0.85814 0.0
H605 H 0.03945 0.18391 0.83908 0.0
H606 H 0.97821 0.13816 0.90909 0.0
H607 H 0.9462 0.14662 0.91741 0.0
H608 H -0.01151 0.17425 0.92414 0.0
H609 H -0.01441 0.22377 0.90844 0.0
H610 H 0.94276 0.19583 0.90155 0.0
H611 H 0.97279 0.22168 0.8829 0.0
H612 H 0.98192 0.14552 0.82995 0.0
H613 H 0.92806 0.09332 0.83259 0.0
H614 H 0.91171 0.12217 0.89057 0.0
C615 C 0.0416 0.20465 0.89542 0.0
C616 C 0.06993 0.20655 0.88627 0.0
C617 C 0.06974 0.20176 0.86548 0.0
C618 C 0.04036 0.19101 0.8545 0.0
C619 C 0.01158 0.1858 0.86442 0.0
C620 C 0.01227 0.19347 0.88442 0.0
C621 C 0.97726 0.17893 0.89279 0.0
C622 C 0.9723 0.15824 0.91193 0.0
C623 C 0.96912 0.20671 0.89664 0.0
C624 C 0.95704 0.15742 0.87546 0.0
C625 C 0.97704 0.1633 0.85879 0.0
C626 C 0.96571 0.1417 0.84251 0.0
C627 C 0.93481 0.1121 0.844 0.0
C628 C 0.91564 0.10441 0.86161 0.0
C629 C 0.92553 0.12854 0.87668 0.0
H630 H 0.93511 0.85061 0.84367 0.0
H631 H 0.84552 0.77441 0.87233 0.0
H632 H 0.81428 0.80018 0.85923 0.0
H633 H 0.93247 0.90978 0.8612 0.0
H634 H 0.94742 0.93953 0.84094 0.0
H635 H 0.958 0.90755 0.84164 0.0
H636 H 0.93254 0.88715 0.80673 0.0
H637 H 0.92232 0.91988 0.80567 0.0
H638 H 0.89029 0.87709 0.80184 0.0
H639 H 0.7992 0.84319 0.85576 0.0
H640 H 0.80274 0.897 0.86296 0.0
H641 H 0.90313 0.94936 0.83923 0.0
C642 C 0.90832 0.83805 0.84569 0.0
C643 C 0.8925 0.81038 0.85862 0.0
C644 C 0.85782 0.79522 0.86204 0.0
C645 C 0.83994 0.80992 0.85468 0.0
C646 C 0.85718 0.83994 0.84411 0.0
C647 C 0.89069 0.85357 0.83923 0.0
C648 C 0.90593 0.88983 0.83295 0.0
C649 C 0.93774 0.91295 0.84493 0.0
C650 C 0.91318 0.8937 0.81046 0.0
C651 C 0.87744 0.8957 0.83789 0.0
C652 C 0.84883 0.86623 0.84301 0.0
C653 C 0.82103 0.86622 0.85113 0.0
C654 C 0.8232 0.89693 0.85521 0.0
C655 C 0.85327 0.9271 0.85163 0.0
C656 C 0.87982 0.92642 0.84184 0.0
H657 H 0.72917 0.4989 0.47782 0.0
H658 H 0.69463 0.55435 0.4431 0.0
H659 H 0.64018 0.52436 0.46012 0.0
H660 H 0.66787 0.42859 0.46775 0.0
H661 H 0.66304 0.40676 0.49091 0.0
H662 H 0.70258 0.44194 0.48455 0.0
H663 H 0.70325 0.47134 0.51739 0.0
H664 H 0.66364 0.43564 0.52419 0.0
H665 H 0.66845 0.4767 0.52369 0.0
H666 H 0.5862 0.47752 0.47147 0.0
H667 H 0.53982 0.41952 0.47456 0.0
H668 H 0.60753 0.39026 0.49927 0.0
C669 C 0.71091 0.50633 0.47477 0.0
C670 C 0.71619 0.52906 0.4592 0.0
C671 C 0.69128 0.53731 0.45513 0.0
C672 C 0.66016 0.52025 0.46476 0.0
C673 C 0.65432 0.49498 0.47837 0.0
C674 C 0.67933 0.48836 0.48359 0.0
C675 C 0.66517 0.45501 0.49421 0.0
C676 C 0.67523 0.43176 0.4837 0.0
C677 C 0.67575 0.45998 0.51618 0.0
C678 C 0.62822 0.44237 0.49231 0.0
C679 C 0.62241 0.46641 0.48411 0.0
C680 C 0.59041 0.45888 0.47844 0.0
C681 C 0.56413 0.42578 0.48023 0.0
C682 C 0.57021 0.40047 0.48712 0.0
C683 C 0.60225 0.40929 0.49416 0.0
H684 H 0.48652 0.20645 0.50512 0.0
H685 H 0.40269 0.20979 0.47983 0.0
H686 H 0.38208 0.1545 0.46549 0.0
H687 H 0.51234 0.19023 0.46966 0.0
H688 H 0.52337 0.1599 0.4778 0.0
H689 H 0.52036 0.18656 0.49561 0.0
H690 H 0.4772 0.13563 0.51594 0.0
H691 H 0.48044 0.10839 0.49808 0.0
H692 H 0.44024 0.10332 0.50405 0.0
H693 H 0.38841 0.12095 0.4406 0.0
H694 H 0.41651 0.10988 0.41317 0.0
H695 H 0.49463 0.12219 0.45331 0.0
C696 C 0.46254 0.19421 0.49778 0.0
C697 C 0.44692 0.21275 0.49295 0.0
C698 C 0.41545 0.19633 0.48354 0.0
C699 C 0.40356 0.16468 0.47521 0.0
C700 C 0.42287 0.14944 0.47698 0.0
C701 C 0.45095 0.16285 0.48903 0.0
C702 C 0.47165 0.14649 0.4849 0.0
C703 C 0.50905 0.17236 0.48175 0.0
C704 C 0.46708 0.12199 0.50174 0.0
C705 C 0.45506 0.12767 0.46599 0.0
C706 C 0.42573 0.12788 0.46236 0.0
C707 C 0.41039 0.11925 0.44369 0.0
C708 C 0.42659 0.11304 0.42807 0.0
C709 C 0.45772 0.11521 0.4312 0.0
C710 C 0.47046 0.11969 0.45072 0.0
H711 H 0.67933 0.40743 0.41001 0.0
H712 H 0.76668 0.40661 0.43233 0.0
H713 H 0.73458 0.34476 0.43312 0.0
H714 H 0.61854 0.33724 0.43963 0.0
H715 H 0.58785 0.32209 0.42007 0.0
H716 H 0.61759 0.36605 0.42192 0.0
H717 H 0.63638 0.36645 0.38542 0.0
H718 H 0.60659 0.32259 0.38354 0.0
H719 H 0.65002 0.33779 0.37824 0.0
H720 H 0.69293 0.28237 0.4296 0.0
H721 H 0.64579 0.22579 0.42237 0.0
H722 H 0.58612 0.26917 0.40394 0.0
C723 C 0.69182 0.39433 0.41506 0.0
C724 C 0.72561 0.41182 0.42095 0.0
C725 C 0.74082 0.39368 0.42771 0.0
C726 C 0.72278 0.35859 0.42824 0.0
C727 C 0.68948 0.34214 0.42224 0.0
C728 C 0.67415 0.35953 0.41592 0.0
C729 C 0.63828 0.33625 0.41006 0.0
C730 C 0.61415 0.34067 0.42374 0.0
C731 C 0.6325 0.34106 0.38801 0.0
C732 C 0.63597 0.30296 0.41357 0.0
C733 C 0.6656 0.3067 0.42067 0.0
C734 C 0.66954 0.2792 0.4242 0.0
C735 C 0.64262 0.24716 0.42007 0.0
C736 C 0.61227 0.243 0.41248 0.0
C737 C 0.60896 0.27137 0.4096 0.0
H738 H 0.73428 0.30072 0.1554 0.0
H739 H 0.76613 0.23341 0.17747 0.0
H740 H 0.82331 0.28082 0.18139 0.0
H741 H 0.82098 0.36686 0.13229 0.0
H742 H 0.81342 0.39968 0.14 0.0
H743 H 0.77917 0.36013 0.13197 0.0
H744 H 0.74831 0.35459 0.16525 0.0
H745 H 0.78209 0.39377 0.17323 0.0
H746 H 0.76903 0.35709 0.18844 0.0
H747 H 0.86866 0.3344 0.19393 0.0
H748 H 0.89644 0.38711 0.21261 0.0
H749 H 0.83914 0.4219 0.1801 0.0
C750 C 0.75376 0.29586 0.16008 0.0
C751 C 0.74585 0.26353 0.16617 0.0
C752 C 0.77171 0.25795 0.17252 0.0
C753 C 0.80435 0.28483 0.17476 0.0
C754 C 0.81091 0.31695 0.17007 0.0
C755 C 0.78643 0.32243 0.16228 0.0
C756 C 0.79773 0.35928 0.16178 0.0
C757 C 0.80316 0.37225 0.14022 0.0
C758 C 0.77285 0.36656 0.17285 0.0
C759 C 0.83066 0.37334 0.17265 0.0
C760 C 0.83845 0.34873 0.17672 0.0
C761 C 0.86366 0.35416 0.19016 0.0
C762 C 0.87947 0.38431 0.20071 0.0
C763 C 0.87003 0.40866 0.19774 0.0
C764 C 0.84747 0.40411 0.18233 0.0
H765 H 0.74523 0.36395 0.24758 0.0
H766 H 0.74349 0.45134 0.22585 0.0
H767 H 0.6819 0.41788 0.22336 0.0
H768 H 0.67927 0.3043 0.21583 0.0
H769 H 0.6628 0.27207 0.23467 0.0
H770 H 0.70658 0.3029 0.2344 0.0
H771 H 0.70231 0.31849 0.27094 0.0
H772 H 0.65862 0.28759 0.27127 0.0
H773 H 0.67192 0.33033 0.27731 0.0
H774 H 0.61976 0.37458 0.22458 0.0
H775 H 0.5632 0.32573 0.2295 0.0
H776 H 0.60729 0.26719 0.24904 0.0
C777 C 0.73197 0.37619 0.24235 0.0
C778 C 0.74916 0.41036 0.23706 0.0
C779 C 0.73082 0.42521 0.23004 0.0
C780 C 0.69587 0.40639 0.22854 0.0
C781 C 0.67974 0.3727 0.23388 0.0
C782 C 0.69729 0.35776 0.24055 0.0
C783 C 0.67428 0.32127 0.24544 0.0
C784 C 0.68115 0.29882 0.23176 0.0
C785 C 0.67694 0.31401 0.26755 0.0
C786 C 0.64092 0.31812 0.2409 0.0
C787 C 0.64443 0.34791 0.23417 0.0
C788 C 0.61677 0.35108 0.22971 0.0
C789 C 0.58474 0.32318 0.23252 0.0
C790 C 0.58072 0.2926 0.23973 0.0
C791 C 0.60935 0.29014 0.24359 0.0
H792 H 0.46279 0.17641 0.19457 0.0
H793 H 0.45036 0.09592 0.2329 0.0
H794 H 0.46437 0.07107 0.20503 0.0
H795 H 0.45029 0.12679 0.14219 0.0
H796 H 0.48262 0.16554 0.13171 0.0
H797 H 0.45268 0.16552 0.14891 0.0
H798 H 0.50091 0.20802 0.17089 0.0
H799 H 0.5305 0.20809 0.15402 0.0
H800 H 0.53155 0.19807 0.17993 0.0
H801 H 0.50096 0.06855 0.18069 0.0
H802 H 0.55793 0.09253 0.16806 0.0
H803 H 0.55348 0.17696 0.14443 0.0
C804 C 0.46087 0.15237 0.19659 0.0
C805 C 0.4556 0.13812 0.2158 0.0
C806 C 0.45414 0.10717 0.21825 0.0
C807 C 0.46201 0.09281 0.20235 0.0
C808 C 0.47162 0.10982 0.18412 0.0
C809 C 0.47039 0.13881 0.18102 0.0
C810 C 0.49082 0.1577 0.16286 0.0
C811 C 0.46772 0.15362 0.14538 0.0
C812 C 0.51488 0.19508 0.16725 0.0
C813 C 0.509 0.13874 0.15887 0.0
C814 C 0.49521 0.10941 0.16994 0.0
C815 C 0.51142 0.091 0.17167 0.0
C816 C 0.54403 0.10483 0.16431 0.0
C817 C 0.56037 0.13725 0.15592 0.0
C818 C 0.54131 0.15225 0.15099 0.0
H819 H 0.26147 0.71461 0.73108 0.0
H820 H 0.23902 0.7218 0.79293 0.0
H821 H 0.2994 0.75906 0.79946 0.0
H822 H 0.32837 0.70581 0.73917 0.0
H823 H 0.35235 0.72977 0.71791 0.0
H824 H 0.30767 0.70964 0.71746 0.0
H825 H 0.31129 0.76624 0.70984 0.0
H826 H 0.35619 0.78662 0.71008 0.0
H827 H 0.33501 0.80126 0.72604 0.0
H828 H 0.36352 0.78855 0.79988 0.0
H829 H 0.42323 0.80694 0.79402 0.0
H830 H 0.40148 0.7791 0.73194 0.0
C831 C 0.26911 0.72475 0.7459 0.0
C832 C 0.24562 0.71537 0.76149 0.0
C833 C 0.25662 0.72898 0.78071 0.0
C834 C 0.29087 0.75011 0.78454 0.0
C835 C 0.31357 0.75775 0.76891 0.0
C836 C 0.3029 0.74578 0.74989 0.0
C837 C 0.33184 0.75462 0.736 0.0
C838 C 0.32993 0.72309 0.72714 0.0
C839 C 0.33369 0.77862 0.71952 0.0
C840 C 0.36055 0.77193 0.75033 0.0
C841 C 0.34984 0.77424 0.76918 0.0
C842 C 0.37215 0.78736 0.78508 0.0
C843 C 0.406 0.79776 0.78164 0.0
C844 C 0.41693 0.79436 0.76254 0.0
C845 C 0.39391 0.78202 0.74671 0.0
H846 H 0.21673 0.47555 0.76803 0.0
H847 H 0.25685 0.52113 0.82482 0.0
H848 H 0.207 0.52567 0.83127 0.0
H849 H 0.20068 0.52868 0.75278 0.0
H850 H 0.16215 0.50374 0.73953 0.0
H851 H 0.18961 0.48789 0.74353 0.0
H852 H 0.14237 0.43547 0.76094 0.0
H853 H 0.11429 0.45114 0.75676 0.0
H854 H 0.12006 0.43996 0.78158 0.0
H855 H 0.16717 0.54456 0.82633 0.0
H856 H 0.14513 0.57724 0.81029 0.0
H857 H 0.13029 0.5223 0.75569 0.0
C858 C 0.21343 0.48396 0.78243 0.0
C859 C 0.23974 0.49697 0.79623 0.0
C860 C 0.23624 0.50996 0.81444 0.0
C861 C 0.20795 0.51269 0.81815 0.0
C862 C 0.18358 0.50259 0.80338 0.0
C863 C 0.18574 0.48777 0.78594 0.0
C864 C 0.16177 0.48711 0.77035 0.0
C865 C 0.17966 0.50285 0.75043 0.0
C866 C 0.1329 0.45129 0.76724 0.0
C867 C 0.14955 0.50802 0.78062 0.0
C868 C 0.16069 0.51495 0.80009 0.0
C869 C 0.15737 0.53842 0.81135 0.0
C870 C 0.14472 0.55693 0.80212 0.0
C871 C 0.13624 0.55232 0.78171 0.0
C872 C 0.13639 0.52596 0.77138 0.0
H873 H 0.52813 0.7111 0.75282 0.0
H874 H 0.5172 0.75368 0.80753 0.0
H875 H 0.49627 0.69956 0.82444 0.0
H876 H 0.45823 0.64689 0.75219 0.0
H877 H 0.46834 0.6166 0.74285 0.0
H878 H 0.4958 0.65983 0.73788 0.0
H879 H 0.54463 0.65625 0.7539 0.0
H880 H 0.51692 0.61248 0.75899 0.0
H881 H 0.54055 0.64031 0.77891 0.0
H882 H 0.45712 0.64061 0.83088 0.0
H883 H 0.40674 0.58587 0.82588 0.0
H884 H 0.44326 0.578 0.76826 0.0
C885 C 0.52315 0.70934 0.76867 0.0
C886 C 0.52411 0.7364 0.77884 0.0
C887 C 0.51702 0.7334 0.79947 0.0
C888 C 0.50505 0.70258 0.80922 0.0
C889 C 0.5011 0.67524 0.79825 0.0
C890 C 0.51101 0.67865 0.77848 0.0
C891 C 0.49805 0.64488 0.76877 0.0
C892 C 0.47894 0.64191 0.74933 0.0
C893 C 0.52675 0.63808 0.76493 0.0
C894 C 0.47524 0.62219 0.78512 0.0
C895 C 0.47861 0.63996 0.80239 0.0
C896 C 0.45532 0.62609 0.81788 0.0
C897 C 0.42677 0.59473 0.81504 0.0
C898 C 0.4219 0.57751 0.79694 0.0
C899 C 0.44754 0.59021 0.78256 0.0
H900 H 0.53791 0.76916 0.55366 0.0
H901 H 0.5056 0.79831 0.50081 0.0
H902 H 0.48861 0.74384 0.48579 0.0
H903 H 0.55341 0.70031 0.52682 0.0
H904 H 0.53731 0.67492 0.54894 0.0
H905 H 0.56259 0.71968 0.55099 0.0
H906 H 0.51587 0.72037 0.57165 0.0
H907 H 0.49064 0.67623 0.56954 0.0
H908 H 0.47451 0.70243 0.56126 0.0
H909 H 0.45454 0.68343 0.48296 0.0
H910 H 0.40994 0.62705 0.49256 0.0
H911 H 0.46152 0.63361 0.54723 0.0
C912 C 0.52923 0.76465 0.53841 0.0
C913 C 0.52275 0.78766 0.52848 0.0
C914 C 0.51106 0.78117 0.50866 0.0
C915 C 0.50123 0.75006 0.50002 0.0
C916 C 0.50382 0.726 0.51125 0.0
C917 C 0.51865 0.73339 0.52988 0.0
C918 C 0.51153 0.70189 0.54097 0.0
C919 C 0.54309 0.69904 0.54198 0.0
C920 C 0.49723 0.70016 0.56204 0.0
C921 C 0.48603 0.67569 0.5272 0.0
C922 C 0.48349 0.68987 0.50954 0.0
C923 C 0.4573 0.67181 0.49626 0.0
C924 C 0.43204 0.63963 0.50175 0.0
C925 C 0.43309 0.62601 0.52036 0.0
C926 C 0.46128 0.64331 0.53258 0.0
H927 H 0.24171 0.67504 0.54224 0.0
H928 H 0.21002 0.74834 0.54372 0.0
H929 H 0.26871 0.79344 0.53804 0.0
H930 H 0.31139 0.71774 0.56972 0.0
H931 H 0.33642 0.70467 0.5562 0.0
H932 H 0.29184 0.67872 0.55646 0.0
H933 H 0.29083 0.67932 0.51788 0.0
H934 H 0.33564 0.70515 0.51744 0.0
H935 H 0.31024 0.71861 0.50469 0.0
H936 H 0.33302 0.83078 0.53746 0.0
H937 H 0.39419 0.85524 0.54193 0.0
H938 H 0.38106 0.75591 0.54071 0.0
C939 C 0.24697 0.70054 0.54087 0.0
C940 C 0.22152 0.70835 0.54344 0.0
C941 C 0.22924 0.74191 0.54159 0.0
C942 C 0.26248 0.7676 0.5384 0.0
C943 C 0.28733 0.75906 0.5367 0.0
C944 C 0.27963 0.72612 0.53758 0.0
C945 C 0.31051 0.72307 0.53723 0.0
C946 C 0.31265 0.70502 0.55602 0.0
C947 C 0.31188 0.70551 0.51817 0.0
C948 C 0.33708 0.75949 0.53708 0.0
C949 C 0.32356 0.7801 0.53637 0.0
C950 C 0.34379 0.8148 0.53765 0.0
C951 C 0.37847 0.82852 0.54015 0.0
C952 C 0.39223 0.80743 0.54171 0.0
C953 C 0.37124 0.77268 0.53957 0.0
H954 H 0.26648 0.57337 0.50622 0.0
H955 H 0.23198 0.48019 0.53774 0.0
H956 H 0.17422 0.46941 0.53632 0.0
H957 H 0.22772 0.60104 0.53055 0.0
H958 H 0.21602 0.61984 0.51099 0.0
H959 H 0.25079 0.61386 0.50744 0.0
H960 H 0.22389 0.5798 0.47548 0.0
H961 H 0.18871 0.58587 0.47888 0.0
H962 H 0.18218 0.5443 0.47642 0.0
H963 H 0.1285 0.48009 0.5435 0.0
H964 H 0.09868 0.50841 0.55521 0.0
H965 H 0.1582 0.59139 0.51572 0.0
C966 C 0.24629 0.54975 0.51164 0.0
C967 C 0.25333 0.52749 0.52193 0.0
C968 C 0.22685 0.49719 0.52944 0.0
C969 C 0.19396 0.49096 0.52872 0.0
C970 C 0.188 0.51481 0.51989 0.0
C971 C 0.21337 0.54311 0.51076 0.0
C972 C 0.20204 0.5676 0.50538 0.0
C973 C 0.22549 0.60256 0.51414 0.0
C974 C 0.19901 0.56948 0.48269 0.0
C975 C 0.16795 0.55076 0.51519 0.0
C976 C 0.15982 0.51985 0.52301 0.0
C977 C 0.13358 0.50333 0.53661 0.0
C978 C 0.11665 0.51951 0.54319 0.0
C979 C 0.12561 0.55157 0.53589 0.0
C980 C 0.14992 0.56619 0.52076 0.0
H981 H 0.19437 0.25656 0.0552 0.0
H982 H 0.25328 0.20834 0.05504 0.0
H983 H 0.27022 0.22661 0.02025 0.0
H984 H 0.15605 0.22606 0.01606 0.0
H985 H 0.1535 0.26058 0.00559 0.0
H986 H 0.1593 0.25909 0.03175 0.0
H987 H 0.21298 0.31703 0.03034 0.0
H988 H 0.20706 0.31905 0.00393 0.0
H989 H 0.24594 0.32446 0.01316 0.0
H990 H 0.26389 0.23136 0.98397 0.0
H991 H 0.23492 0.22128 0.95168 0.0
H992 H 0.17758 0.26393 0.97461 0.0
C993 C 0.21273 0.25203 0.04815 0.0
C994 C 0.22293 0.23157 0.05767 0.0
C995 C 0.24595 0.22477 0.04809 0.0
C996 C 0.25552 0.23498 0.02825 0.0
C997 C 0.24217 0.25228 0.01842 0.0
C998 C 0.22183 0.26155 0.02832 0.0
C999 C 0.20431 0.27276 0.01387 0.0
C1000 C 0.16608 0.25342 0.017 0.0
C1001 C 0.21843 0.31057 0.01542 0.0
C1002 C 0.21426 0.2641 -0.00567 0.0
C1003 C 0.2376 0.25416 -0.00291 0.0
C1004 C 0.24657 0.2402 0.98155 0.0
C1005 C 0.23006 0.23459 0.9632 0.0
C1006 C 0.20431 0.24214 0.96081 0.0
C1007 C 0.19771 0.25865 0.97614 0.0
H1008 H 0.89291 -0.00249 0.95211 0.0
H1009 H 0.80277 0.00199 0.94229 0.0
H1010 H 0.79425 0.00089 0.97882 0.0
H1011 H 0.86267 0.94141 0.99395 0.0
H1012 H 0.90242 0.96163 0.00642 0.0
H1013 H 0.90077 0.96254 0.97964 0.0
H1014 H 0.9358 0.02716 0.98013 0.0
H1015 H 0.93739 0.02648 0.00691 0.0
H1016 H 0.92149 0.05022 -0.00539 0.0
H1017 H 0.79681 0.00042 0.01702 0.0
H1018 H 0.8088 -0.00187 0.05277 0.0
H1019 H 0.89706 -0.00632 0.03644 0.0
C1020 C 0.87126 -0.00182 0.95755 0.0
C1021 C 0.84852 -0.00012 0.94429 0.0
C1022 C 0.82051 0.00061 0.95214 0.0
C1023 C 0.81553 9e-05 0.97287 0.0
C1024 C 0.83872 -0.00127 0.98549 0.0
C1025 C 0.86591 -0.00241 0.97805 0.0
C1026 C 0.88723 -0.00394 -0.00544 0.0
C1027 C 0.88832 0.96347 0.99358 0.0
C1028 C 0.92256 0.02681 -0.00599 0.0
C1029 C 0.86789 -0.00344 0.01256 0.0
C1030 C 0.84003 -0.00179 0.00713 0.0
C1031 C 0.81854 -0.00095 0.02139 0.0
C1032 C 0.8256 -0.00217 0.04167 0.0
C1033 C 0.85384 -0.00431 0.04746 0.0
C1034 C 0.87522 -0.00475 0.03259 0.0
H1035 H 0.90717 0.73367 0.94966 0.0
H1036 H 0.01328 0.77744 0.94055 0.0
H1037 H 0.01836 0.75732 0.97375 0.0
H1038 H 0.90856 0.76115 0.99193 0.0
H1039 H 0.87304 0.72603 0.00348 0.0
H1040 H 0.8752 0.72983 0.97703 0.0
H1041 H 0.86893 0.67131 0.97401 0.0
H1042 H 0.86661 0.66726 0.00079 0.0
H1043 H 0.89713 0.66198 0.98716 0.0
H1044 H 0.01535 0.75217 0.01035 0.0
H1045 H 0.00465 0.76301 0.04477 0.0
H1046 H 0.9003 0.72145 0.03106 0.0
C1047 C 0.93104 0.73712 0.95431 0.0
C1048 C 0.95976 0.75683 0.94275 0.0
C1049 C -0.00909 0.76182 0.94915 0.0
C1050 C -0.00606 0.75042 0.96802 0.0
C1051 C 0.96544 0.73345 0.97999 0.0
C1052 C 0.93426 0.72589 0.97307 0.0
C1053 C 0.9088 0.71393 0.98976 0.0
C1054 C 0.89044 0.73399 0.9906 0.0
C1055 C 0.88391 0.67639 0.98781 0.0
C1056 C 0.93139 0.72071 0.00748 0.0
C1057 C 0.96364 0.73016 0.00159 0.0
C1058 C -0.00999 0.74352 0.01519 0.0
C1059 C 0.98377 0.74949 0.03479 0.0
C1060 C 0.95156 0.74257 0.04038 0.0
C1061 C 0.92486 0.726 0.02703 0.0
H1062 H 0.85408 0.53643 0.27916 0.0
H1063 H 0.92415 0.50832 0.30124 0.0
H1064 H 0.92598 0.53444 0.33359 0.0
H1065 H 0.88122 0.61441 0.31212 0.0
H1066 H 0.83815 0.60284 0.31546 0.0
H1067 H 0.85178 0.59398 0.29227 0.0
H1068 H 0.80642 0.53166 0.29587 0.0
H1069 H 0.7929 0.5402 0.31896 0.0
H1070 H 0.80537 0.50914 0.31809 0.0
H1071 H 0.91082 0.55119 0.36494 0.0
H1072 H 0.87629 0.55075 0.39287 0.0
H1073 H 0.81185 0.56345 0.35139 0.0
C1074 C 0.87125 0.53756 0.29047 0.0
C1075 C 0.88965 0.52122 0.28765 0.0
C1076 C 0.91043 0.52137 0.30306 0.0
C1077 C 0.91169 0.5363 0.32142 0.0
C1078 C 0.89171 0.55058 0.32419 0.0
C1079 C 0.87182 0.55132 0.30907 0.0
C1080 C 0.84709 0.56085 0.31692 0.0
C1081 C 0.85505 0.59506 0.30871 0.0
C1082 C 0.81084 0.53384 0.3122 0.0
C1083 C 0.85429 0.56269 0.33901 0.0
C1084 C 0.88117 0.55831 0.34279 0.0
C1085 C 0.89021 0.55534 0.36215 0.0
C1086 C 0.87033 0.55506 0.37796 0.0
C1087 C 0.84117 0.55684 0.37431 0.0
C1088 C 0.83414 0.56238 0.35466 0.0
H1089 H 0.49716 0.2133 0.32796 0.0
H1090 H 0.43288 0.24691 0.30277 0.0
H1091 H 0.43063 0.27005 0.33553 0.0
H1092 H 0.4596 0.19211 0.3777 0.0
H1093 H 0.49932 0.20725 0.38971 0.0
H1094 H 0.4929 0.19043 0.3649 0.0
H1095 H 0.54421 0.24502 0.35252 0.0
H1096 H 0.55066 0.26254 0.37706 0.0
H1097 H 0.54575 0.28428 0.35626 0.0
H1098 H 0.438 0.29197 0.37087 0.0
H1099 H 0.4531 0.30958 0.40584 0.0
H1100 H 0.51495 0.26385 0.40673 0.0
C1101 C 0.48193 0.22482 0.32936 0.0
C1102 C 0.46494 0.22803 0.3128 0.0
C1103 C 0.44589 0.24393 0.31527 0.0
C1104 C 0.44456 0.25723 0.3338 0.0
C1105 C 0.46252 0.25452 0.34964 0.0
C1106 C 0.48067 0.23852 0.34759 0.0
C1107 C 0.4993 0.24048 0.36648 0.0
C1108 C 0.48704 0.20548 0.37521 0.0
C1109 C 0.53722 0.2592 0.36284 0.0
C1110 C 0.48912 0.26041 0.37949 0.0
C1111 C 0.46767 0.26806 0.36961 0.0
C1112 C 0.45473 0.28607 0.37874 0.0
C1113 C 0.46354 0.29604 0.39859 0.0
C1114 C 0.48533 0.28825 0.40902 0.0
C1115 C 0.49847 0.27048 0.39917 0.0
H1116 H 0.54304 0.16717 0.32161 0.0
H1117 H 0.57815 0.10337 0.34575 0.0
H1118 H 0.60567 0.10652 0.31351 0.0
H1119 H 0.52893 0.13586 0.27061 0.0
H1120 H 0.54358 0.17669 0.26004 0.0
H1121 H 0.52396 0.1665 0.28425 0.0
H1122 H 0.57573 0.21762 0.29915 0.0
H1123 H 0.59595 0.22786 0.2752 0.0
H1124 H 0.61628 0.22167 0.29624 0.0
H1125 H 0.63156 0.11917 0.27881 0.0
H1126 H 0.65219 0.1388 0.24462 0.0
H1127 H 0.60225 0.19674 0.24462 0.0
C1128 C 0.55584 0.15316 0.32008 0.0
C1129 C 0.55817 0.13475 0.33621 0.0
C1130 C 0.57578 0.1174 0.33356 0.0
C1131 C 0.59158 0.11915 0.31533 0.0
C1132 C 0.58965 0.13849 0.29998 0.0
C1133 C 0.57203 0.155 0.30218 0.0
C1134 C 0.57507 0.17554 0.2839 0.0
C1135 C 0.54084 0.16288 0.27413 0.0
C1136 C 0.59176 0.21287 0.28895 0.0
C1137 C 0.59746 0.16832 0.27105 0.0
C1138 C 0.60541 0.14669 0.28048 0.0
C1139 C 0.62544 0.13609 0.27132 0.0
C1140 C 0.63713 0.14747 0.25192 0.0
C1141 C 0.62901 0.16946 0.24196 0.0
C1142 C 0.60921 0.18022 0.25185 0.0
H1143 H 0.48782 0.88576 0.62453 0.0
H1144 H 0.58046 0.90197 0.59907 0.0
H1145 H 0.60575 0.91354 0.6326 0.0
H1146 H 0.52851 0.94768 0.66942 0.0
H1147 H 0.49382 0.91959 0.68496 0.0
H1148 H 0.48731 0.92414 0.65892 0.0
H1149 H 0.46015 0.86025 0.65449 0.0
H1150 H 0.4668 0.85553 0.68023 0.0
H1151 H 0.48333 0.8401 0.66142 0.0
H1152 H 0.61315 0.90317 0.66808 0.0
H1153 H 0.60352 0.87755 0.70164 0.0
H1154 H 0.50852 0.87333 0.705 0.0
C1155 C 0.51406 0.89384 0.626 0.0
C1156 C 0.53244 0.89352 0.60938 0.0
C1157 C 0.56633 0.90296 0.61165 0.0
C1158 C 0.5808 0.90944 0.63068 0.0
C1159 C 0.56126 0.9073 0.64711 0.0
C1160 C 0.52886 0.90085 0.64484 0.0
C1161 C 0.51128 0.89465 0.66475 0.0
C1162 C 0.50487 0.92323 0.66981 0.0
C1163 C 0.47853 0.86062 0.66523 0.0
C1164 C 0.53744 0.895 0.67835 0.0
C1165 C 0.56648 0.90314 0.66804 0.0
C1166 C 0.59135 0.89848 0.67657 0.0
C1167 C 0.58583 0.88402 0.69566 0.0
C1168 C 0.55595 0.87494 0.70603 0.0
C1169 C 0.53229 0.88185 0.69764 0.0
H1170 H 0.12864 0.69125 0.61925 0.0
H1171 H 0.04047 0.59562 0.60918 0.0
H1172 H 0.0223 0.59493 0.6439 0.0
H1173 H 0.15065 0.67452 0.65974 0.0
H1174 H 0.16558 0.71328 0.67292 0.0
H1175 H 0.16425 0.7131 0.64636 0.0
H1176 H 0.12743 0.74042 0.64706 0.0
H1177 H 0.1288 0.74085 0.67392 0.0
H1178 H 0.0892 0.72134 0.66129 0.0
H1179 H 0.02486 0.59476 0.68049 0.0
H1180 H 0.04726 0.59581 0.714 0.0
H1181 H 0.13251 0.69267 0.70142 0.0
C1182 C 0.10445 0.67137 0.62414 0.0
C1183 C 0.08553 0.64387 0.6117 0.0
C1184 C 0.0547 0.61732 0.61846 0.0
C1185 C 0.0443 0.6168 0.63819 0.0
C1186 C 0.0648 0.6433 0.65073 0.0
C1187 C 0.0939 0.67068 0.64375 0.0
C1188 C 0.11497 0.69257 0.66069 0.0
C1189 C 0.1509 0.69862 0.65987 0.0
C1190 C 0.11509 0.72576 0.66074 0.0
C1191 C 0.09554 0.6711 0.67832 0.0
C1192 C 0.06588 0.64349 0.67239 0.0
C1193 C 0.04712 0.61696 0.68547 0.0
C1194 C 0.05987 0.61773 0.70455 0.0
C1195 C 0.09096 0.64486 0.71028 0.0
C1196 C 0.10793 0.67252 0.69749 0.0
H1197 H 0.34093 0.5755 0.61875 0.0
H1198 H 0.34461 0.4878 0.60027 0.0
H1199 H 0.34168 0.47102 0.63565 0.0
H1200 H 0.39158 0.59313 0.66233 0.0
H1201 H 0.36764 0.60677 0.67651 0.0
H1202 H 0.37026 0.61147 0.64983 0.0
H1203 H 0.30568 0.57821 0.64763 0.0
H1204 H 0.30286 0.57331 0.6743 0.0
H1205 H 0.2829 0.53708 0.65855 0.0
H1206 H 0.3375 0.46389 0.6737 0.0
H1207 H 0.33376 0.46789 0.71034 0.0
H1208 H 0.33307 0.56054 0.70261 0.0
C1209 C 0.34119 0.55275 0.62204 0.0
C1210 C 0.34297 0.53295 0.6067 0.0
C1211 C 0.34329 0.50341 0.61177 0.0
C1212 C 0.3416 0.49366 0.63182 0.0
C1213 C 0.33966 0.51377 0.64656 0.0
C1214 C 0.33957 0.54276 0.64183 0.0
C1215 C 0.33734 0.56018 0.66024 0.0
C1216 C 0.36857 0.59494 0.66235 0.0
C1217 C 0.30529 0.5623 0.66017 0.0
C1218 C 0.33609 0.53648 0.67616 0.0
C1219 C 0.33741 0.5098 0.66809 0.0
C1220 C 0.33649 0.48473 0.68013 0.0
C1221 C 0.33432 0.48718 0.70092 0.0
C1222 C 0.33314 0.51452 0.70939 0.0
C1223 C 0.33396 0.5393 0.69671 0.0
loop_
_geom_bond_atom_site_label_1
_geom_bond_atom_site_label_2
_geom_bond_distance
_geom_bond_site_symmetry_2
_ccdc_geom_bond_type
Zn0 O3 2.031 . S
Zn0 O5 2.049 . S
Zn0 O10 2.067 . S
Zn1 O2 1.962 . S
Zn1 O4 1.986 . S
Zn1 O6 1.996 . S
Zn1 O9 1.943 . S
O2 Zn1 1.962 . S
O2 C7 1.254 . S
O3 Zn0 2.031 . S
O3 C7 1.269 . S
O4 Zn1 1.986 . S
O4 C11 1.262 . S
O5 Zn0 2.049 . S
O5 C13 1.260 . S
O6 Zn1 1.996 . S
O6 C13 1.257 . S
C7 O2 1.254 . S
C7 O3 1.269 . S
C8 O9 1.249 . S
C8 O10 1.270 . S
O9 Zn1 1.943 . S
O9 C8 1.249 . S
O10 Zn0 2.067 . S
O10 C8 1.270 . S
C11 O4 1.262 . S
C11 O12 1.232 . S
O12 C11 1.232 . S
C13 O5 1.260 . S
C13 O6 1.257 . S
Zn14 O17 2.031 1_565 S
Zn14 O19 2.049 . S
Zn14 O24 2.067 . S
Zn15 O16 1.962 . S
Zn15 O18 1.986 . S
Zn15 O20 1.996 . S
Zn15 O23 1.943 1_545 S
O16 Zn15 1.962 . S
O16 C21 1.254 . S
O17 Zn14 2.031 1_545 S
O17 C21 1.269 . S
O18 Zn15 1.986 . S
O18 C25 1.262 . S
O19 Zn14 2.049 . S
O19 C27 1.260 . S
O20 Zn15 1.996 . S
O20 C27 1.257 1_545 S
C21 O16 1.254 . S
C21 O17 1.269 . S
C22 O23 1.249 . S
C22 O24 1.270 . S
O23 Zn15 1.943 1_565 S
O23 C22 1.249 . S
O24 Zn14 2.067 . S
O24 C22 1.270 . S
C25 O18 1.262 . S
C25 O26 1.232 . S
O26 C25 1.232 . S
C27 O19 1.260 . S
C27 O20 1.257 1_565 S
Zn28 O31 2.031 1_455 S
Zn28 O33 2.049 . S
Zn28 O38 2.067 . S
Zn29 O30 1.962 . S
Zn29 O32 1.986 . S
Zn29 O34 1.996 . S
Zn29 O37 1.943 1_655 S
O30 Zn29 1.962 . S
O30 C35 1.254 . S
O31 Zn28 2.031 1_655 S
O31 C35 1.269 . S
O32 Zn29 1.986 . S
O32 C39 1.262 . S
O33 Zn28 2.049 . S
O33 C41 1.260 . S
O34 Zn29 1.996 . S
O34 C41 1.257 1_655 S
C35 O30 1.254 . S
C35 O31 1.269 . S
C36 O37 1.249 . S
C36 O38 1.270 . S
O37 Zn29 1.943 1_455 S
O37 C36 1.249 . S
O38 Zn28 2.067 . S
O38 C36 1.270 . S
C39 O32 1.262 . S
C39 O40 1.232 . S
O40 C39 1.232 . S
C41 O33 1.260 . S
C41 O34 1.257 1_455 S
Zn42 O45 2.031 . S
Zn42 O47 2.049 . S
Zn42 O52 2.067 . S
Zn43 O44 1.962 . S
Zn43 O46 1.986 . S
Zn43 O48 1.996 . S
Zn43 O51 1.943 . S
O44 Zn43 1.962 . S
O44 C49 1.254 . S
O45 Zn42 2.031 . S
O45 C49 1.269 . S
O46 Zn43 1.986 . S
O46 C53 1.262 . S
O47 Zn42 2.049 . S
O47 C55 1.260 . S
O48 Zn43 1.996 . S
O48 C55 1.257 . S
C49 O44 1.254 . S
C49 O45 1.269 . S
C50 O51 1.249 . S
C50 O52 1.270 . S
O51 Zn43 1.943 . S
O51 C50 1.249 . S
O52 Zn42 2.067 . S
O52 C50 1.270 . S
C53 O46 1.262 . S
C53 O54 1.232 . S
O54 C53 1.232 . S
C55 O47 1.260 . S
C55 O48 1.257 . S
Zn56 O59 2.031 1_545 S
Zn56 O61 2.049 . S
Zn56 O66 2.067 . S
Zn57 O58 1.962 . S
Zn57 O60 1.986 . S
Zn57 O62 1.996 . S
Zn57 O65 1.943 1_565 S
O58 Zn57 1.962 . S
O58 C63 1.254 . S
O59 Zn56 2.031 1_565 S
O59 C63 1.269 . S
O60 Zn57 1.986 . S
O60 C67 1.262 . S
O61 Zn56 2.049 . S
O61 C69 1.260 . S
O62 Zn57 1.996 . S
O62 C69 1.257 1_565 S
C63 O58 1.254 . S
C63 O59 1.269 . S
C64 O65 1.249 . S
C64 O66 1.270 . S
O65 Zn57 1.943 1_545 S
O65 C64 1.249 . S
O66 Zn56 2.067 . S
O66 C64 1.270 . S
C67 O60 1.262 . S
C67 O68 1.232 . S
O68 C67 1.232 . S
C69 O61 1.260 . S
C69 O62 1.257 1_545 S
Zn70 O73 2.031 1_655 S
Zn70 O75 2.049 . S
Zn70 O80 2.067 . S
Zn71 O72 1.962 . S
Zn71 O74 1.986 . S
Zn71 O76 1.996 . S
Zn71 O79 1.943 1_455 S
O72 Zn71 1.962 . S
O72 C77 1.254 . S
O73 Zn70 2.031 1_455 S
O73 C77 1.269 . S
O74 Zn71 1.986 . S
O74 C81 1.262 . S
O75 Zn70 2.049 . S
O75 C83 1.260 . S
O76 Zn71 1.996 . S
O76 C83 1.257 1_455 S
C77 O72 1.254 . S
C77 O73 1.269 . S
C78 O79 1.249 . S
C78 O80 1.270 . S
O79 Zn71 1.943 1_655 S
O79 C78 1.249 . S
O80 Zn70 2.067 . S
O80 C78 1.270 . S
C81 O74 1.262 . S
C81 O82 1.232 . S
O82 C81 1.232 . S
C83 O75 1.260 . S
C83 O76 1.257 1_655 S
Zn84 O87 2.031 . S
Zn84 O89 2.049 . S
Zn84 O94 2.067 . S
Zn85 O86 1.962 . S
Zn85 O88 1.986 . S
Zn85 O90 1.996 . S
Zn85 O93 1.943 . S
O86 Zn85 1.962 . S
O86 C91 1.254 . S
O87 Zn84 2.031 . S
O87 C91 1.269 . S
O88 Zn85 1.986 . S
O88 C95 1.262 . S
O89 Zn84 2.049 . S
O89 C97 1.260 . S
O90 Zn85 1.996 . S
O90 C97 1.257 . S
C91 O86 1.254 . S
C91 O87 1.269 . S
C92 O93 1.249 . S
C92 O94 1.270 . S
O93 Zn85 1.943 . S
O93 C92 1.249 . S
O94 Zn84 2.067 . S
O94 C92 1.270 . S
C95 O88 1.262 . S
C95 O96 1.232 . S
O96 C95 1.232 . S
C97 O89 1.260 . S
C97 O90 1.257 . S
Zn98 O101 2.031 . S
Zn98 O103 2.049 . S
Zn98 O108 2.067 . S
Zn99 O100 1.962 . S
Zn99 O102 1.986 . S
Zn99 O104 1.996 . S
Zn99 O107 1.943 . S
O100 Zn99 1.962 . S
O100 C105 1.254 . S
O101 Zn98 2.031 . S
O101 C105 1.269 . S
O102 Zn99 1.986 . S
O102 C109 1.262 . S
O103 Zn98 2.049 . S
O103 C111 1.260 . S
O104 Zn99 1.996 . S
O104 C111 1.257 . S
C105 O100 1.254 . S
C105 O101 1.269 . S
C106 O107 1.249 . S
C106 O108 1.270 . S
O107 Zn99 1.943 . S
O107 C106 1.249 . S
O108 Zn98 2.067 . S
O108 C106 1.270 . S
C109 O102 1.262 . S
C109 O110 1.232 . S
O110 C109 1.232 . S
C111 O103 1.260 . S
C111 O104 1.257 . S
Zn112 O115 2.031 . S
Zn112 O117 2.049 . S
Zn112 O122 2.067 . S
Zn113 O114 1.962 . S
Zn113 O116 1.986 . S
Zn113 O118 1.996 . S
Zn113 O121 1.943 . S
O114 Zn113 1.962 . S
O114 C119 1.254 . S
O115 Zn112 2.031 . S
O115 C119 1.269 . S
O116 Zn113 1.986 . S
O116 C123 1.262 . S
O117 Zn112 2.049 . S
O117 C125 1.260 . S
O118 Zn113 1.996 . S
O118 C125 1.257 . S
C119 O114 1.254 . S
C119 O115 1.269 . S
C120 O121 1.249 . S
C120 O122 1.270 . S
O121 Zn113 1.943 . S
O121 C120 1.249 . S
O122 Zn112 2.067 . S
O122 C120 1.270 . S
C123 O116 1.262 . S
C123 O124 1.232 . S
O124 C123 1.232 . S
C125 O117 1.260 . S
C125 O118 1.257 . S
Zn126 O129 2.031 . S
Zn126 O131 2.049 . S
Zn126 O136 2.067 . S
Zn127 O128 1.962 . S
Zn127 O130 1.986 . S
Zn127 O132 1.996 . S
Zn127 O135 1.943 . S
O128 Zn127 1.962 . S
O128 C133 1.254 . S
O129 Zn126 2.031 . S
O129 C133 1.269 . S
O130 Zn127 1.986 . S
O130 C137 1.262 . S
O131 Zn126 2.049 . S
O131 C139 1.260 . S
O132 Zn127 1.996 . S
O132 C139 1.257 . S
C133 O128 1.254 . S
C133 O129 1.269 . S
C134 O135 1.249 . S
C134 O136 1.270 . S
O135 Zn127 1.943 . S
O135 C134 1.249 . S
O136 Zn126 2.067 . S
O136 C134 1.270 . S
C137 O130 1.262 . S
C137 O138 1.232 . S
O138 C137 1.232 . S
C139 O131 1.260 . S
C139 O132 1.257 . S
Zn140 O143 2.031 . S
Zn140 O145 2.049 . S
Zn140 O150 2.067 . S
Zn141 O142 1.962 . S
Zn141 O144 1.986 . S
Zn141 O146 1.996 . S
Zn141 O149 1.943 . S
O142 Zn141 1.962 . S
O142 C147 1.254 . S
O143 Zn140 2.031 . S
O143 C147 1.269 . S
O144 Zn141 1.986 . S
O144 C151 1.262 . S
O145 Zn140 2.049 . S
O145 C153 1.260 . S
O146 Zn141 1.996 . S
O146 C153 1.257 . S
C147 O142 1.254 . S
C147 O143 1.269 . S
C148 O149 1.249 . S
C148 O150 1.270 . S
O149 Zn141 1.943 . S
O149 C148 1.249 . S
O150 Zn140 2.067 . S
O150 C148 1.270 . S
C151 O144 1.262 . S
C151 O152 1.232 . S
O152 C151 1.232 . S
C153 O145 1.260 . S
C153 O146 1.257 . S
Zn154 O157 2.031 . S
Zn154 O159 2.049 . S
Zn154 O164 2.067 . S
Zn155 O156 1.962 . S
Zn155 O158 1.986 . S
Zn155 O160 1.996 . S
Zn155 O163 1.943 . S
O156 Zn155 1.962 . S
O156 C161 1.254 . S
O157 Zn154 2.031 . S
O157 C161 1.269 . S
O158 Zn155 1.986 . S
O158 C165 1.262 . S
O159 Zn154 2.049 . S
O159 C167 1.260 . S
O160 Zn155 1.996 . S
O160 C167 1.257 . S
C161 O156 1.254 . S
C161 O157 1.269 . S
C162 O163 1.249 . S
C162 O164 1.270 . S
O163 Zn155 1.943 . S
O163 C162 1.249 . S
O164 Zn154 2.067 . S
O164 C162 1.270 . S
C165 O158 1.262 . S
C165 O166 1.232 . S
O166 C165 1.232 . S
C167 O159 1.260 . S
C167 O160 1.257 . S
Zn168 O171 2.031 . S
Zn168 O173 2.049 . S
Zn168 O178 2.067 . S
Zn169 O170 1.962 . S
Zn169 O172 1.986 . S
Zn169 O174 1.996 . S
Zn169 O177 1.943 . S
O170 Zn169 1.962 . S
O170 C175 1.254 . S
O171 Zn168 2.031 . S
O171 C175 1.269 . S
O172 Zn169 1.986 . S
O172 C179 1.262 . S
O173 Zn168 2.049 . S
O173 C181 1.260 . S
O174 Zn169 1.996 . S
O174 C181 1.257 . S
C175 O170 1.254 . S
C175 O171 1.269 . S
C176 O177 1.249 . S
C176 O178 1.270 . S
O177 Zn169 1.943 . S
O177 C176 1.249 . S
O178 Zn168 2.067 . S
O178 C176 1.270 . S
C179 O172 1.262 . S
C179 O180 1.232 . S
O180 C179 1.232 . S
C181 O173 1.260 . S
C181 O174 1.257 . S
Zn182 O185 2.031 . S
Zn182 O187 2.049 . S
Zn182 O192 2.067 . S
Zn183 O184 1.962 . S
Zn183 O186 1.986 . S
Zn183 O188 1.996 . S
Zn183 O191 1.943 . S
O184 Zn183 1.962 . S
O184 C189 1.254 . S
O185 Zn182 2.031 . S
O185 C189 1.269 . S
O186 Zn183 1.986 . S
O186 C193 1.262 . S
O187 Zn182 2.049 . S
O187 C195 1.260 . S
O188 Zn183 1.996 . S
O188 C195 1.257 . S
C189 O184 1.254 . S
C189 O185 1.269 . S
C190 O191 1.249 . S
C190 O192 1.270 . S
O191 Zn183 1.943 . S
O191 C190 1.249 . S
O192 Zn182 2.067 . S
O192 C190 1.270 . S
C193 O186 1.262 . S
C193 O194 1.232 . S
O194 C193 1.232 . S
C195 O187 1.260 . S
C195 O188 1.257 . S
Zn196 O199 2.031 . S
Zn196 O201 2.049 . S
Zn196 O206 2.067 . S
Zn197 O198 1.962 . S
Zn197 O200 1.986 . S
Zn197 O202 1.996 . S
Zn197 O205 1.943 . S
O198 Zn197 1.962 . S
O198 C203 1.254 . S
O199 Zn196 2.031 . S
O199 C203 1.269 . S
O200 Zn197 1.986 . S
O200 C207 1.262 . S
O201 Zn196 2.049 . S
O201 C209 1.260 . S
O202 Zn197 1.996 . S
O202 C209 1.257 . S
C203 O198 1.254 . S
C203 O199 1.269 . S
C204 O205 1.249 . S
C204 O206 1.270 . S
O205 Zn197 1.943 . S
O205 C204 1.249 . S
O206 Zn196 2.067 . S
O206 C204 1.270 . S
C207 O200 1.262 . S
C207 O208 1.232 . S
O208 C207 1.232 . S
C209 O201 1.260 . S
C209 O202 1.257 . S
Zn210 O213 2.031 . S
Zn210 O215 2.049 . S
Zn210 O220 2.067 . S
Zn211 O212 1.962 . S
Zn211 O214 1.986 . S
Zn211 O216 1.996 . S
Zn211 O219 1.943 . S
O212 Zn211 1.962 . S
O212 C217 1.254 . S
O213 Zn210 2.031 . S
O213 C217 1.269 . S
O214 Zn211 1.986 . S
O214 C221 1.262 . S
O215 Zn210 2.049 . S
O215 C223 1.260 . S
O216 Zn211 1.996 . S
O216 C223 1.257 . S
C217 O212 1.254 . S
C217 O213 1.269 . S
C218 O219 1.249 . S
C218 O220 1.270 . S
O219 Zn211 1.943 . S
O219 C218 1.249 . S
O220 Zn210 2.067 . S
O220 C218 1.270 . S
C221 O214 1.262 . S
C221 O222 1.232 . S
O222 C221 1.232 . S
C223 O215 1.260 . S
C223 O216 1.257 . S
Zn224 O227 2.031 . S
Zn224 O229 2.049 . S
Zn224 O234 2.067 . S
Zn225 O226 1.962 . S
Zn225 O228 1.986 . S
Zn225 O230 1.996 . S
Zn225 O233 1.943 . S
O226 Zn225 1.962 . S
O226 C231 1.254 . S
O227 Zn224 2.031 . S
O227 C231 1.269 . S
O228 Zn225 1.986 . S
O228 C235 1.262 . S
O229 Zn224 2.049 . S
O229 C237 1.260 . S
O230 Zn225 1.996 . S
O230 C237 1.257 . S
C231 O226 1.254 . S
C231 O227 1.269 . S
C232 O233 1.249 . S
C232 O234 1.270 . S
O233 Zn225 1.943 . S
O233 C232 1.249 . S
O234 Zn224 2.067 . S
O234 C232 1.270 . S
C235 O228 1.262 . S
C235 O236 1.232 . S
O236 C235 1.232 . S
C237 O229 1.260 . S
C237 O230 1.257 . S
Zn238 O241 2.031 . S
Zn238 O243 2.049 . S
Zn238 O248 2.067 . S
Zn239 O240 1.962 . S
Zn239 O242 1.986 . S
Zn239 O244 1.996 . S
Zn239 O247 1.943 . S
O240 Zn239 1.962 . S
O240 C245 1.254 . S
O241 Zn238 2.031 . S
O241 C245 1.269 . S
O242 Zn239 1.986 . S
O242 C249 1.262 . S
O243 Zn238 2.049 . S
O243 C251 1.260 . S
O244 Zn239 1.996 . S
O244 C251 1.257 . S
C245 O240 1.254 . S
C245 O241 1.269 . S
C246 O247 1.249 . S
C246 O248 1.270 . S
O247 Zn239 1.943 . S
O247 C246 1.249 . S
O248 Zn238 2.067 . S
O248 C246 1.270 . S
C249 O242 1.262 . S
C249 O250 1.232 . S
O250 C249 1.232 . S
C251 O243 1.260 . S
C251 O244 1.257 . S
H252 C264 0.930 . S
H253 C266 0.930 . S
H254 C267 0.930 . S
H255 C271 0.959 . S
H256 C271 0.959 . S
H257 C271 0.961 . S
H258 C272 0.960 . S
H259 C272 0.961 . S
H260 C272 0.959 . S
H261 C275 0.929 . S
H262 C276 0.931 . S
H263 C278 0.930 . S
C264 H252 0.930 . S
C264 C265 1.399 . S
C264 C269 1.399 . S
C265 C264 1.399 . S
C265 C266 1.376 . S
C266 H253 0.930 . S
C266 C265 1.376 . S
C266 C267 1.388 . S
C267 H254 0.930 . S
C267 C266 1.388 . S
C267 C268 1.390 . S
C268 C267 1.390 . S
C268 C269 1.394 . S
C268 C274 1.465 . S
C269 C264 1.399 . S
C269 C268 1.394 . S
C269 C270 1.516 . S
C270 C269 1.516 . S
C270 C271 1.502 . S
C270 C272 1.561 . S
C270 C273 1.526 . S
C271 H255 0.959 . S
C271 H256 0.959 . S
C271 H257 0.961 . S
C271 C270 1.502 . S
C272 H258 0.960 . S
C272 H259 0.961 . S
C272 H260 0.959 . S
C272 C270 1.561 . S
C273 C270 1.526 . S
C273 C274 1.396 . S
C273 C278 1.390 . S
C274 C268 1.465 . S
C274 C273 1.396 . S
C274 C275 1.399 . S
C275 H261 0.929 . S
C275 C274 1.399 . S
C275 C276 1.385 . S
C276 H262 0.931 . S
C276 C275 1.385 . S
C276 C277 1.389 . S
C277 C276 1.389 . S
C277 C278 1.387 . S
C278 H263 0.930 . S
C278 C273 1.390 . S
C278 C277 1.387 . S
H279 C291 0.930 . S
H280 C293 0.930 1_565 S
H281 C294 0.930 . S
H282 C298 0.959 . S
H283 C298 0.959 . S
H284 C298 0.961 . S
H285 C299 0.960 . S
H286 C299 0.961 . S
H287 C299 0.959 . S
H288 C302 0.929 . S
H289 C303 0.931 . S
H290 C305 0.930 . S
C291 H279 0.930 . S
C291 C292 1.399 . S
C291 C296 1.399 . S
C292 C291 1.399 . S
C292 C293 1.376 . S
C293 H280 0.930 1_545 S
C293 C292 1.376 . S
C293 C294 1.388 . S
C294 H281 0.930 . S
C294 C293 1.388 . S
C294 C295 1.390 . S
C295 C294 1.390 . S
C295 C296 1.394 . S
C295 C301 1.465 . S
C296 C291 1.399 . S
C296 C295 1.394 . S
C296 C297 1.516 . S
C297 C296 1.516 . S
C297 C298 1.502 . S
C297 C299 1.561 . S
C297 C300 1.526 . S
C298 H282 0.959 . S
C298 H283 0.959 . S
C298 H284 0.961 . S
C298 C297 1.502 . S
C299 H285 0.960 . S
C299 H286 0.961 . S
C299 H287 0.959 . S
C299 C297 1.561 . S
C300 C297 1.526 . S
C300 C301 1.396 . S
C300 C305 1.390 . S
C301 C295 1.465 . S
C301 C300 1.396 . S
C301 C302 1.399 . S
C302 H288 0.929 . S
C302 C301 1.399 . S
C302 C303 1.385 . S
C303 H289 0.931 . S
C303 C302 1.385 . S
C303 C304 1.389 . S
C304 C303 1.389 . S
C304 C305 1.387 . S
C305 H290 0.930 . S
C305 C300 1.390 . S
C305 C304 1.387 . S
H306 C318 0.930 . S
H307 C320 0.930 . S
H308 C321 0.930 . S
H309 C325 0.959 . S
H310 C325 0.959 . S
H311 C325 0.961 . S
H312 C326 0.960 . S
H313 C326 0.961 . S
H314 C326 0.959 . S
H315 C329 0.929 . S
H316 C330 0.931 . S
H317 C332 0.930 . S
C318 H306 0.930 . S
C318 C319 1.399 . S
C318 C323 1.399 . S
C319 C318 1.399 . S
C319 C320 1.376 . S
C320 H307 0.930 . S
C320 C319 1.376 . S
C320 C321 1.388 . S
C321 H308 0.930 . S
C321 C320 1.388 . S
C321 C322 1.390 . S
C322 C321 1.390 . S
C322 C323 1.394 . S
C322 C328 1.465 . S
C323 C318 1.399 . S
C323 C322 1.394 . S
C323 C324 1.516 . S
C324 C323 1.516 . S
C324 C325 1.502 . S
C324 C326 1.561 . S
C324 C327 1.526 . S
C325 H309 0.959 . S
C325 H310 0.959 . S
C325 H311 0.961 . S
C325 C324 1.502 . S
C326 H312 0.960 . S
C326 H313 0.961 . S
C326 H314 0.959 . S
C326 C324 1.561 . S
C327 C324 1.526 . S
C327 C328 1.396 . S
C327 C332 1.390 . S
C328 C322 1.465 . S
C328 C327 1.396 . S
C328 C329 1.399 . S
C329 H315 0.929 . S
C329 C328 1.399 . S
C329 C330 1.385 . S
C330 H316 0.931 . S
C330 C329 1.385 . S
C330 C331 1.389 . S
C331 C330 1.389 . S
C331 C332 1.387 . S
C332 H317 0.930 . S
C332 C327 1.390 . S
C332 C331 1.387 . S
H333 C345 0.930 . S
H334 C347 0.930 . S
H335 C348 0.930 . S
H336 C352 0.959 . S
H337 C352 0.959 . S
H338 C352 0.961 . S
H339 C353 0.960 . S
H340 C353 0.961 . S
H341 C353 0.959 . S
H342 C356 0.929 . S
H343 C357 0.931 . S
H344 C359 0.930 . S
C345 H333 0.930 . S
C345 C346 1.399 . S
C345 C350 1.399 . S
C346 C345 1.399 . S
C346 C347 1.376 . S
C347 H334 0.930 . S
C347 C346 1.376 . S
C347 C348 1.388 . S
C348 H335 0.930 . S
C348 C347 1.388 . S
C348 C349 1.390 . S
C349 C348 1.390 . S
C349 C350 1.394 . S
C349 C355 1.465 . S
C350 C345 1.399 . S
C350 C349 1.394 . S
C350 C351 1.516 . S
C351 C350 1.516 . S
C351 C352 1.502 . S
C351 C353 1.561 . S
C351 C354 1.526 . S
C352 H336 0.959 . S
C352 H337 0.959 . S
C352 H338 0.961 . S
C352 C351 1.502 . S
C353 H339 0.960 . S
C353 H340 0.961 . S
C353 H341 0.959 . S
C353 C351 1.561 . S
C354 C351 1.526 . S
C354 C355 1.396 . S
C354 C359 1.390 . S
C355 C349 1.465 . S
C355 C354 1.396 . S
C355 C356 1.399 . S
C356 H342 0.929 . S
C356 C355 1.399 . S
C356 C357 1.385 . S
C357 H343 0.931 . S
C357 C356 1.385 . S
C357 C358 1.389 . S
C358 C357 1.389 . S
C358 C359 1.387 . S
C359 H344 0.930 . S
C359 C354 1.390 . S
C359 C358 1.387 . S
H360 C372 0.930 . S
H361 C374 0.930 1_545 S
H362 C375 0.930 . S
H363 C379 0.959 . S
H364 C379 0.959 . S
H365 C379 0.961 . S
H366 C380 0.960 . S
H367 C380 0.961 . S
H368 C380 0.959 . S
H369 C383 0.929 . S
H370 C384 0.931 . S
H371 C386 0.930 . S
C372 H360 0.930 . S
C372 C373 1.399 . S
C372 C377 1.399 . S
C373 C372 1.399 . S
C373 C374 1.376 . S
C374 H361 0.930 1_565 S
C374 C373 1.376 . S
C374 C375 1.388 . S
C375 H362 0.930 . S
C375 C374 1.388 . S
C375 C376 1.390 . S
C376 C375 1.390 . S
C376 C377 1.394 . S
C376 C382 1.465 . S
C377 C372 1.399 . S
C377 C376 1.394 . S
C377 C378 1.516 . S
C378 C377 1.516 . S
C378 C379 1.502 . S
C378 C380 1.561 . S
C378 C381 1.526 . S
C379 H363 0.959 . S
C379 H364 0.959 . S
C379 H365 0.961 . S
C379 C378 1.502 . S
C380 H366 0.960 . S
C380 H367 0.961 . S
C380 H368 0.959 . S
C380 C378 1.561 . S
C381 C378 1.526 . S
C381 C382 1.396 . S
C381 C386 1.390 . S
C382 C376 1.465 . S
C382 C381 1.396 . S
C382 C383 1.399 . S
C383 H369 0.929 . S
C383 C382 1.399 . S
C383 C384 1.385 . S
C384 H370 0.931 . S
C384 C383 1.385 . S
C384 C385 1.389 . S
C385 C384 1.389 . S
C385 C386 1.387 . S
C386 H371 0.930 . S
C386 C381 1.390 . S
C386 C385 1.387 . S
H387 C399 0.930 . S
H388 C401 0.930 . S
H389 C402 0.930 . S
H390 C406 0.959 . S
H391 C406 0.959 . S
H392 C406 0.961 . S
H393 C407 0.960 . S
H394 C407 0.961 . S
H395 C407 0.959 . S
H396 C410 0.929 1_655 S
H397 C411 0.935 . S
H398 C413 0.930 . S
C399 H387 0.930 . S
C399 C400 1.399 . S
C399 C404 1.399 . S
C400 C399 1.399 . S
C400 C401 1.376 . S
C401 H388 0.930 . S
C401 C400 1.376 . S
C401 C402 1.388 . S
C402 H389 0.930 . S
C402 C401 1.388 . S
C402 C403 1.390 . S
C403 C402 1.390 . S
C403 C404 1.394 . S
C403 C409 1.465 . S
C404 C399 1.399 . S
C404 C403 1.394 . S
C404 C405 1.516 . S
C405 C404 1.516 . S
C405 C406 1.502 . S
C405 C407 1.561 . S
C405 C408 1.526 . S
C406 H390 0.959 . S
C406 H391 0.959 . S
C406 H392 0.961 . S
C406 C405 1.502 . S
C407 H393 0.960 . S
C407 H394 0.961 . S
C407 H395 0.959 . S
C407 C405 1.561 . S
C408 C405 1.526 . S
C408 C409 1.396 . S
C408 C413 1.390 . S
C409 C403 1.465 . S
C409 C408 1.396 . S
C409 C410 1.399 . S
C410 H396 0.929 1_455 S
C410 C409 1.399 . S
C410 C411 1.382 1_455 S
C411 H397 0.935 . S
C411 C410 1.382 1_655 S
C411 C412 1.388 1_655 S
C412 C411 1.388 1_455 S
C412 C413 1.387 . S
C413 H398 0.930 . S
C413 C408 1.390 . S
C413 C412 1.387 . S
H414 C426 0.930 . S
H415 C428 0.930 . S
H416 C429 0.930 . S
H417 C433 0.959 . S
H418 C433 0.959 . S
H419 C433 0.961 . S
H420 C434 0.960 . S
H421 C434 0.961 . S
H422 C434 0.959 . S
H423 C437 0.929 . S
H424 C438 0.931 . S
H425 C440 0.930 . S
C426 H414 0.930 . S
C426 C427 1.399 . S
C426 C431 1.399 . S
C427 C426 1.399 . S
C427 C428 1.376 . S
C428 H415 0.930 . S
C428 C427 1.376 . S
C428 C429 1.388 . S
C429 H416 0.930 . S
C429 C428 1.388 . S
C429 C430 1.390 . S
C430 C429 1.390 . S
C430 C431 1.394 . S
C430 C436 1.465 1_655 S
C431 C426 1.399 . S
C431 C430 1.394 . S
C431 C432 1.516 1_655 S
C432 C431 1.516 1_455 S
C432 C433 1.502 . S
C432 C434 1.561 . S
C432 C435 1.526 . S
C433 H417 0.959 . S
C433 H418 0.959 . S
C433 H419 0.961 . S
C433 C432 1.502 . S
C434 H420 0.960 . S
C434 H421 0.961 . S
C434 H422 0.959 . S
C434 C432 1.561 . S
C435 C432 1.526 . S
C435 C436 1.396 . S
C435 C440 1.390 . S
C436 C430 1.465 1_455 S
C436 C435 1.396 . S
C436 C437 1.399 . S
C437 H423 0.929 . S
C437 C436 1.399 . S
C437 C438 1.385 . S
C438 H424 0.931 . S
C438 C437 1.385 . S
C438 C439 1.389 . S
C439 C438 1.389 . S
C439 C440 1.387 . S
C440 H425 0.930 . S
C440 C435 1.390 . S
C440 C439 1.387 . S
H441 C453 0.930 . S
H442 C455 0.930 . S
H443 C456 0.930 . S
H444 C460 0.959 . S
H445 C460 0.959 . S
H446 C460 0.961 . S
H447 C461 0.960 . S
H448 C461 0.961 . S
H449 C461 0.959 . S
H450 C464 0.929 . S
H451 C465 0.931 . S
H452 C467 0.930 . S
C453 H441 0.930 . S
C453 C454 1.399 . S
C453 C458 1.399 . S
C454 C453 1.399 . S
C454 C455 1.376 . S
C455 H442 0.930 . S
C455 C454 1.376 . S
C455 C456 1.388 . S
C456 H443 0.930 . S
C456 C455 1.388 . S
C456 C457 1.390 . S
C457 C456 1.390 . S
C457 C458 1.394 . S
C457 C463 1.465 . S
C458 C453 1.399 . S
C458 C457 1.394 . S
C458 C459 1.516 . S
C459 C458 1.516 . S
C459 C460 1.502 . S
C459 C461 1.561 . S
C459 C462 1.526 . S
C460 H444 0.959 . S
C460 H445 0.959 . S
C460 H446 0.961 . S
C460 C459 1.502 . S
C461 H447 0.960 . S
C461 H448 0.961 . S
C461 H449 0.959 . S
C461 C459 1.561 . S
C462 C459 1.526 . S
C462 C463 1.396 . S
C462 C467 1.390 . S
C463 C457 1.465 . S
C463 C462 1.396 . S
C463 C464 1.399 . S
C464 H450 0.929 . S
C464 C463 1.399 . S
C464 C465 1.385 . S
C465 H451 0.931 . S
C465 C464 1.385 . S
C465 C466 1.389 . S
C466 C465 1.389 . S
C466 C467 1.387 . S
C467 H452 0.930 . S
C467 C462 1.390 . S
C467 C466 1.387 . S
H468 C480 0.930 . S
H469 C482 0.930 . S
H470 C483 0.930 . S
H471 C487 0.959 . S
H472 C487 0.959 . S
H473 C487 0.961 . S
H474 C488 0.960 . S
H475 C488 0.961 . S
H476 C488 0.959 . S
H477 C491 0.929 . S
H478 C492 0.931 . S
H479 C494 0.930 . S
C480 H468 0.930 . S
C480 C481 1.399 . S
C480 C485 1.399 . S
C481 C480 1.399 . S
C481 C482 1.376 . S
C482 H469 0.930 . S
C482 C481 1.376 . S
C482 C483 1.388 . S
C483 H470 0.930 . S
C483 C482 1.388 . S
C483 C484 1.390 . S
C484 C483 1.390 . S
C484 C485 1.394 . S
C484 C490 1.465 1_545 S
C485 C480 1.399 . S
C485 C484 1.394 . S
C485 C486 1.516 1_545 S
C486 C485 1.516 1_565 S
C486 C487 1.502 . S
C486 C488 1.561 . S
C486 C489 1.526 . S
C487 H471 0.959 . S
C487 H472 0.959 . S
C487 H473 0.961 . S
C487 C486 1.502 . S
C488 H474 0.960 . S
C488 H475 0.961 . S
C488 H476 0.959 . S
C488 C486 1.561 . S
C489 C486 1.526 . S
C489 C490 1.396 . S
C489 C494 1.390 . S
C490 C484 1.465 1_565 S
C490 C489 1.396 . S
C490 C491 1.399 . S
C491 H477 0.929 . S
C491 C490 1.399 . S
C491 C492 1.385 . S
C492 H478 0.931 . S
C492 C491 1.385 . S
C492 C493 1.389 . S
C493 C492 1.389 . S
C493 C494 1.387 . S
C494 H479 0.930 . S
C494 C489 1.390 . S
C494 C493 1.387 . S
H495 C507 0.930 . S
H496 C509 0.930 . S
H497 C510 0.930 . S
H498 C514 0.959 . S
H499 C514 0.959 1_655 S
H500 C514 0.961 . S
H501 C515 0.960 . S
H502 C515 0.961 1_655 S
H503 C515 0.959 . S
H504 C518 0.929 . S
H505 C519 0.931 . S
H506 C521 0.930 . S
C507 H495 0.930 . S
C507 C508 1.399 . S
C507 C512 1.399 . S
C508 C507 1.399 . S
C508 C509 1.376 . S
C509 H496 0.930 . S
C509 C508 1.376 . S
C509 C510 1.388 . S
C510 H497 0.930 . S
C510 C509 1.388 . S
C510 C511 1.390 . S
C511 C510 1.390 . S
C511 C512 1.394 . S
C511 C517 1.465 1_455 S
C512 C507 1.399 . S
C512 C511 1.394 . S
C512 C513 1.516 . S
C513 C512 1.516 . S
C513 C514 1.502 . S
C513 C515 1.561 . S
C513 C516 1.526 1_455 S
C514 H498 0.959 . S
C514 H499 0.959 1_455 S
C514 H500 0.961 . S
C514 C513 1.502 . S
C515 H501 0.960 . S
C515 H502 0.961 1_455 S
C515 H503 0.959 . S
C515 C513 1.561 . S
C516 C513 1.526 1_655 S
C516 C517 1.396 . S
C516 C521 1.390 . S
C517 C511 1.465 1_655 S
C517 C516 1.396 . S
C517 C518 1.399 . S
C518 H504 0.929 . S
C518 C517 1.399 . S
C518 C519 1.385 . S
C519 H505 0.931 . S
C519 C518 1.385 . S
C519 C520 1.389 . S
C520 C519 1.389 . S
C520 C521 1.387 . S
C521 H506 0.930 . S
C521 C516 1.390 . S
C521 C520 1.387 . S
H522 C534 0.930 . S
H523 C536 0.930 . S
H524 C537 0.930 . S
H525 C541 0.959 . S
H526 C541 0.959 . S
H527 C541 0.961 . S
H528 C542 0.960 . S
H529 C542 0.961 . S
H530 C542 0.959 . S
H531 C545 0.929 . S
H532 C546 0.931 . S
H533 C548 0.930 . S
C534 H522 0.930 . S
C534 C535 1.399 . S
C534 C539 1.399 . S
C535 C534 1.399 . S
C535 C536 1.376 . S
C536 H523 0.930 . S
C536 C535 1.376 . S
C536 C537 1.388 . S
C537 H524 0.930 . S
C537 C536 1.388 . S
C537 C538 1.390 . S
C538 C537 1.390 . S
C538 C539 1.394 . S
C538 C544 1.465 . S
C539 C534 1.399 . S
C539 C538 1.394 . S
C539 C540 1.516 . S
C540 C539 1.516 . S
C540 C541 1.502 . S
C540 C542 1.561 . S
C540 C543 1.526 . S
C541 H525 0.959 . S
C541 H526 0.959 . S
C541 H527 0.961 . S
C541 C540 1.502 . S
C542 H528 0.960 . S
C542 H529 0.961 . S
C542 H530 0.959 . S
C542 C540 1.561 . S
C543 C540 1.526 . S
C543 C544 1.396 . S
C543 C548 1.390 . S
C544 C538 1.465 . S
C544 C543 1.396 . S
C544 C545 1.399 . S
C545 H531 0.929 . S
C545 C544 1.399 . S
C545 C546 1.385 . S
C546 H532 0.931 . S
C546 C545 1.385 . S
C546 C547 1.389 . S
C547 C546 1.389 . S
C547 C548 1.387 . S
C548 H533 0.930 . S
C548 C543 1.390 . S
C548 C547 1.387 . S
H549 C561 0.930 . S
H550 C563 0.930 . S
H551 C564 0.930 . S
H552 C568 0.959 . S
H553 C568 0.959 . S
H554 C568 0.961 1_545 S
H555 C569 0.960 1_545 S
H556 C569 0.961 . S
H557 C569 0.959 . S
H558 C572 0.929 . S
H559 C573 0.931 . S
H560 C575 0.930 . S
C561 H549 0.930 . S
C561 C562 1.399 . S
C561 C566 1.399 . S
C562 C561 1.399 . S
C562 C563 1.376 . S
C563 H550 0.930 . S
C563 C562 1.376 . S
C563 C564 1.388 . S
C564 H551 0.930 . S
C564 C563 1.388 . S
C564 C565 1.390 . S
C565 C564 1.390 . S
C565 C566 1.394 . S
C565 C571 1.465 1_545 S
C566 C561 1.399 . S
C566 C565 1.394 . S
C566 C567 1.516 1_545 S
C567 C566 1.516 1_565 S
C567 C568 1.502 . S
C567 C569 1.561 . S
C567 C570 1.526 . S
C568 H552 0.959 . S
C568 H553 0.959 . S
C568 H554 0.961 1_565 S
C568 C567 1.502 . S
C569 H555 0.960 1_565 S
C569 H556 0.961 . S
C569 H557 0.959 . S
C569 C567 1.561 . S
C570 C567 1.526 . S
C570 C571 1.396 . S
C570 C575 1.390 . S
C571 C565 1.465 1_565 S
C571 C570 1.396 . S
C571 C572 1.399 . S
C572 H558 0.929 . S
C572 C571 1.399 . S
C572 C573 1.385 . S
C573 H559 0.931 . S
C573 C572 1.385 . S
C573 C574 1.389 . S
C574 C573 1.389 . S
C574 C575 1.387 . S
C575 H560 0.930 . S
C575 C570 1.390 . S
C575 C574 1.387 . S
H576 C588 0.930 . S
H577 C590 0.930 . S
H578 C591 0.930 . S
H579 C595 0.959 . S
H580 C595 0.959 . S
H581 C595 0.961 1_565 S
H582 C596 0.960 1_565 S
H583 C596 0.961 . S
H584 C596 0.959 . S
H585 C599 0.929 . S
H586 C600 0.931 . S
H587 C602 0.930 . S
C588 H576 0.930 . S
C588 C589 1.399 . S
C588 C593 1.399 . S
C589 C588 1.399 . S
C589 C590 1.376 . S
C590 H577 0.930 . S
C590 C589 1.376 . S
C590 C591 1.388 . S
C591 H578 0.930 . S
C591 C590 1.388 . S
C591 C592 1.390 . S
C592 C591 1.390 . S
C592 C593 1.394 . S
C592 C598 1.465 1_565 S
C593 C588 1.399 . S
C593 C592 1.394 . S
C593 C594 1.516 1_565 S
C594 C593 1.516 1_545 S
C594 C595 1.502 . S
C594 C596 1.561 . S
C594 C597 1.526 . S
C595 H579 0.959 . S
C595 H580 0.959 . S
C595 H581 0.961 1_545 S
C595 C594 1.502 . S
C596 H582 0.960 1_545 S
C596 H583 0.961 . S
C596 H584 0.959 . S
C596 C594 1.561 . S
C597 C594 1.526 . S
C597 C598 1.396 . S
C597 C602 1.390 . S
C598 C592 1.465 1_545 S
C598 C597 1.396 . S
C598 C599 1.399 . S
C599 H585 0.929 . S
C599 C598 1.399 . S
C599 C600 1.385 . S
C600 H586 0.931 . S
C600 C599 1.385 . S
C600 C601 1.389 . S
C601 C600 1.389 . S
C601 C602 1.387 . S
C602 H587 0.930 . S
C602 C597 1.390 . S
C602 C601 1.387 . S
H603 C615 0.930 . S
H604 C617 0.930 . S
H605 C618 0.930 . S
H606 C622 0.959 . S
H607 C622 0.959 . S
H608 C622 0.961 1_455 S
H609 C623 0.960 1_455 S
H610 C623 0.961 . S
H611 C623 0.959 . S
H612 C626 0.929 . S
H613 C627 0.931 . S
H614 C629 0.930 . S
C615 H603 0.930 . S
C615 C616 1.399 . S
C615 C620 1.399 . S
C616 C615 1.399 . S
C616 C617 1.376 . S
C617 H604 0.930 . S
C617 C616 1.376 . S
C617 C618 1.388 . S
C618 H605 0.930 . S
C618 C617 1.388 . S
C618 C619 1.390 . S
C619 C618 1.390 . S
C619 C620 1.394 . S
C619 C625 1.465 1_455 S
C620 C615 1.399 . S
C620 C619 1.394 . S
C620 C621 1.516 1_455 S
C621 C620 1.516 1_655 S
C621 C622 1.502 . S
C621 C623 1.561 . S
C621 C624 1.526 . S
C622 H606 0.959 . S
C622 H607 0.959 . S
C622 H608 0.961 1_655 S
C622 C621 1.502 . S
C623 H609 0.960 1_655 S
C623 H610 0.961 . S
C623 H611 0.959 . S
C623 C621 1.561 . S
C624 C621 1.526 . S
C624 C625 1.396 . S
C624 C629 1.390 . S
C625 C619 1.465 1_655 S
C625 C624 1.396 . S
C625 C626 1.399 . S
C626 H612 0.929 . S
C626 C625 1.399 . S
C626 C627 1.385 . S
C627 H613 0.931 . S
C627 C626 1.385 . S
C627 C628 1.389 . S
C628 C627 1.389 . S
C628 C629 1.387 . S
C629 H614 0.930 . S
C629 C624 1.390 . S
C629 C628 1.387 . S
H630 C642 0.930 . S
H631 C644 0.930 . S
H632 C645 0.930 . S
H633 C649 0.959 . S
H634 C649 0.959 . S
H635 C649 0.961 . S
H636 C650 0.960 . S
H637 C650 0.961 . S
H638 C650 0.959 . S
H639 C653 0.929 . S
H640 C654 0.931 . S
H641 C656 0.930 . S
C642 H630 0.930 . S
C642 C643 1.399 . S
C642 C647 1.399 . S
C643 C642 1.399 . S
C643 C644 1.376 . S
C644 H631 0.930 . S
C644 C643 1.376 . S
C644 C645 1.388 . S
C645 H632 0.930 . S
C645 C644 1.388 . S
C645 C646 1.390 . S
C646 C645 1.390 . S
C646 C647 1.394 . S
C646 C652 1.465 . S
C647 C642 1.399 . S
C647 C646 1.394 . S
C647 C648 1.516 . S
C648 C647 1.516 . S
C648 C649 1.502 . S
C648 C650 1.561 . S
C648 C651 1.526 . S
C649 H633 0.959 . S
C649 H634 0.959 . S
C649 H635 0.961 . S
C649 C648 1.502 . S
C650 H636 0.960 . S
C650 H637 0.961 . S
C650 H638 0.959 . S
C650 C648 1.561 . S
C651 C648 1.526 . S
C651 C652 1.396 . S
C651 C656 1.390 . S
C652 C646 1.465 . S
C652 C651 1.396 . S
C652 C653 1.399 . S
C653 H639 0.929 . S
C653 C652 1.399 . S
C653 C654 1.385 . S
C654 H640 0.931 . S
C654 C653 1.385 . S
C654 C655 1.389 . S
C655 C654 1.389 . S
C655 C656 1.387 . S
C656 H641 0.930 . S
C656 C651 1.390 . S
C656 C655 1.387 . S
H657 C669 0.930 . S
H658 C671 0.930 . S
H659 C672 0.930 . S
H660 C676 0.959 . S
H661 C676 0.959 . S
H662 C676 0.961 . S
H663 C677 0.960 . S
H664 C677 0.961 . S
H665 C677 0.959 . S
H666 C680 0.929 . S
H667 C681 0.931 . S
H668 C683 0.930 . S
C669 H657 0.930 . S
C669 C670 1.399 . S
C669 C674 1.399 . S
C670 C669 1.399 . S
C670 C671 1.376 . S
C671 H658 0.930 . S
C671 C670 1.376 . S
C671 C672 1.388 . S
C672 H659 0.930 . S
C672 C671 1.388 . S
C672 C673 1.390 . S
C673 C672 1.390 . S
C673 C674 1.394 . S
C673 C679 1.465 . S
C674 C669 1.399 . S
C674 C673 1.394 . S
C674 C675 1.516 . S
C675 C674 1.516 . S
C675 C676 1.502 . S
C675 C677 1.561 . S
C675 C678 1.526 . S
C676 H660 0.959 . S
C676 H661 0.959 . S
C676 H662 0.961 . S
C676 C675 1.502 . S
C677 H663 0.960 . S
C677 H664 0.961 . S
C677 H665 0.959 . S
C677 C675 1.561 . S
C678 C675 1.526 . S
C678 C679 1.396 . S
C678 C683 1.390 . S
C679 C673 1.465 . S
C679 C678 1.396 . S
C679 C680 1.399 . S
C680 H666 0.929 . S
C680 C679 1.399 . S
C680 C681 1.385 . S
C681 H667 0.931 . S
C681 C680 1.385 . S
C681 C682 1.389 . S
C682 C681 1.389 . S
C682 C683 1.387 . S
C683 H668 0.930 . S
C683 C678 1.390 . S
C683 C682 1.387 . S
H684 C696 0.930 . S
H685 C698 0.930 . S
H686 C699 0.930 . S
H687 C703 0.959 . S
H688 C703 0.959 . S
H689 C703 0.961 . S
H690 C704 0.960 . S
H691 C704 0.961 . S
H692 C704 0.959 . S
H693 C707 0.929 . S
H694 C708 0.931 . S
H695 C710 0.930 . S
C696 H684 0.930 . S
C696 C697 1.399 . S
C696 C701 1.399 . S
C697 C696 1.399 . S
C697 C698 1.376 . S
C698 H685 0.930 . S
C698 C697 1.376 . S
C698 C699 1.388 . S
C699 H686 0.930 . S
C699 C698 1.388 . S
C699 C700 1.390 . S
C700 C699 1.390 . S
C700 C701 1.394 . S
C700 C706 1.465 . S
C701 C696 1.399 . S
C701 C700 1.394 . S
C701 C702 1.516 . S
C702 C701 1.516 . S
C702 C703 1.502 . S
C702 C704 1.561 . S
C702 C705 1.526 . S
C703 H687 0.959 . S
C703 H688 0.959 . S
C703 H689 0.961 . S
C703 C702 1.502 . S
C704 H690 0.960 . S
C704 H691 0.961 . S
C704 H692 0.959 . S
C704 C702 1.561 . S
C705 C702 1.526 . S
C705 C706 1.396 . S
C705 C710 1.390 . S
C706 C700 1.465 . S
C706 C705 1.396 . S
C706 C707 1.399 . S
C707 H693 0.929 . S
C707 C706 1.399 . S
C707 C708 1.385 . S
C708 H694 0.931 . S
C708 C707 1.385 . S
C708 C709 1.389 . S
C709 C708 1.389 . S
C709 C710 1.387 . S
C710 H695 0.930 . S
C710 C705 1.390 . S
C710 C709 1.387 . S
H711 C723 0.930 . S
H712 C725 0.930 . S
H713 C726 0.930 . S
H714 C730 0.959 . S
H715 C730 0.959 . S
H716 C730 0.961 . S
H717 C731 0.960 . S
H718 C731 0.961 . S
H719 C731 0.959 . S
H720 C734 0.929 . S
H721 C735 0.931 . S
H722 C737 0.930 . S
C723 H711 0.930 . S
C723 C724 1.399 . S
C723 C728 1.399 . S
C724 C723 1.399 . S
C724 C725 1.376 . S
C725 H712 0.930 . S
C725 C724 1.376 . S
C725 C726 1.388 . S
C726 H713 0.930 . S
C726 C725 1.388 . S
C726 C727 1.390 . S
C727 C726 1.390 . S
C727 C728 1.394 . S
C727 C733 1.465 . S
C728 C723 1.399 . S
C728 C727 1.394 . S
C728 C729 1.516 . S
C729 C728 1.516 . S
C729 C730 1.502 . S
C729 C731 1.561 . S
C729 C732 1.526 . S
C730 H714 0.959 . S
C730 H715 0.959 . S
C730 H716 0.961 . S
C730 C729 1.502 . S
C731 H717 0.960 . S
C731 H718 0.961 . S
C731 H719 0.959 . S
C731 C729 1.561 . S
C732 C729 1.526 . S
C732 C733 1.396 . S
C732 C737 1.390 . S
C733 C727 1.465 . S
C733 C732 1.396 . S
C733 C734 1.399 . S
C734 H720 0.929 . S
C734 C733 1.399 . S
C734 C735 1.385 . S
C735 H721 0.931 . S
C735 C734 1.385 . S
C735 C736 1.389 . S
C736 C735 1.389 . S
C736 C737 1.387 . S
C737 H722 0.930 . S
C737 C732 1.390 . S
C737 C736 1.387 . S
H738 C750 0.930 . S
H739 C752 0.930 . S
H740 C753 0.930 . S
H741 C757 0.959 . S
H742 C757 0.959 . S
H743 C757 0.961 . S
H744 C758 0.960 . S
H745 C758 0.961 . S
H746 C758 0.959 . S
H747 C761 0.929 . S
H748 C762 0.931 . S
H749 C764 0.930 . S
C750 H738 0.930 . S
C750 C751 1.399 . S
C750 C755 1.399 . S
C751 C750 1.399 . S
C751 C752 1.376 . S
C752 H739 0.930 . S
C752 C751 1.376 . S
C752 C753 1.388 . S
C753 H740 0.930 . S
C753 C752 1.388 . S
C753 C754 1.390 . S
C754 C753 1.390 . S
C754 C755 1.394 . S
C754 C760 1.465 . S
C755 C750 1.399 . S
C755 C754 1.394 . S
C755 C756 1.516 . S
C756 C755 1.516 . S
C756 C757 1.502 . S
C756 C758 1.561 . S
C756 C759 1.526 . S
C757 H741 0.959 . S
C757 H742 0.959 . S
C757 H743 0.961 . S
C757 C756 1.502 . S
C758 H744 0.960 . S
C758 H745 0.961 . S
C758 H746 0.959 . S
C758 C756 1.561 . S
C759 C756 1.526 . S
C759 C760 1.396 . S
C759 C764 1.390 . S
C760 C754 1.465 . S
C760 C759 1.396 . S
C760 C761 1.399 . S
C761 H747 0.929 . S
C761 C760 1.399 . S
C761 C762 1.385 . S
C762 H748 0.931 . S
C762 C761 1.385 . S
C762 C763 1.389 . S
C763 C762 1.389 . S
C763 C764 1.387 . S
C764 H749 0.930 . S
C764 C759 1.390 . S
C764 C763 1.387 . S
H765 C777 0.930 . S
H766 C779 0.930 . S
H767 C780 0.930 . S
H768 C784 0.959 . S
H769 C784 0.959 . S
H770 C784 0.961 . S
H771 C785 0.960 . S
H772 C785 0.961 . S
H773 C785 0.959 . S
H774 C788 0.929 . S
H775 C789 0.931 . S
H776 C791 0.930 . S
C777 H765 0.930 . S
C777 C778 1.399 . S
C777 C782 1.399 . S
C778 C777 1.399 . S
C778 C779 1.376 . S
C779 H766 0.930 . S
C779 C778 1.376 . S
C779 C780 1.388 . S
C780 H767 0.930 . S
C780 C779 1.388 . S
C780 C781 1.390 . S
C781 C780 1.390 . S
C781 C782 1.394 . S
C781 C787 1.465 . S
C782 C777 1.399 . S
C782 C781 1.394 . S
C782 C783 1.516 . S
C783 C782 1.516 . S
C783 C784 1.502 . S
C783 C785 1.561 . S
C783 C786 1.526 . S
C784 H768 0.959 . S
C784 H769 0.959 . S
C784 H770 0.961 . S
C784 C783 1.502 . S
C785 H771 0.960 . S
C785 H772 0.961 . S
C785 H773 0.959 . S
C785 C783 1.561 . S
C786 C783 1.526 . S
C786 C787 1.396 . S
C786 C791 1.390 . S
C787 C781 1.465 . S
C787 C786 1.396 . S
C787 C788 1.399 . S
C788 H774 0.929 . S
C788 C787 1.399 . S
C788 C789 1.385 . S
C789 H775 0.931 . S
C789 C788 1.385 . S
C789 C790 1.389 . S
C790 C789 1.389 . S
C790 C791 1.387 . S
C791 H776 0.930 . S
C791 C786 1.390 . S
C791 C790 1.387 . S
H792 C804 0.930 . S
H793 C806 0.930 . S
H794 C807 0.930 . S
H795 C811 0.959 . S
H796 C811 0.959 . S
H797 C811 0.961 . S
H798 C812 0.960 . S
H799 C812 0.961 . S
H800 C812 0.959 . S
H801 C815 0.929 . S
H802 C816 0.931 . S
H803 C818 0.930 . S
C804 H792 0.930 . S
C804 C805 1.399 . S
C804 C809 1.399 . S
C805 C804 1.399 . S
C805 C806 1.376 . S
C806 H793 0.930 . S
C806 C805 1.376 . S
C806 C807 1.388 . S
C807 H794 0.930 . S
C807 C806 1.388 . S
C807 C808 1.390 . S
C808 C807 1.390 . S
C808 C809 1.394 . S
C808 C814 1.465 . S
C809 C804 1.399 . S
C809 C808 1.394 . S
C809 C810 1.516 . S
C810 C809 1.516 . S
C810 C811 1.502 . S
C810 C812 1.561 . S
C810 C813 1.526 . S
C811 H795 0.959 . S
C811 H796 0.959 . S
C811 H797 0.961 . S
C811 C810 1.502 . S
C812 H798 0.960 . S
C812 H799 0.961 . S
C812 H800 0.959 . S
C812 C810 1.561 . S
C813 C810 1.526 . S
C813 C814 1.396 . S
C813 C818 1.390 . S
C814 C808 1.465 . S
C814 C813 1.396 . S
C814 C815 1.399 . S
C815 H801 0.929 . S
C815 C814 1.399 . S
C815 C816 1.385 . S
C816 H802 0.931 . S
C816 C815 1.385 . S
C816 C817 1.389 . S
C817 C816 1.389 . S
C817 C818 1.387 . S
C818 H803 0.930 . S
C818 C813 1.390 . S
C818 C817 1.387 . S
H819 C831 0.930 . S
H820 C833 0.930 . S
H821 C834 0.930 . S
H822 C838 0.959 . S
H823 C838 0.959 . S
H824 C838 0.961 . S
H825 C839 0.960 . S
H826 C839 0.961 . S
H827 C839 0.959 . S
H828 C842 0.929 . S
H829 C843 0.931 . S
H830 C845 0.930 . S
C831 H819 0.930 . S
C831 C832 1.399 . S
C831 C836 1.399 . S
C832 C831 1.399 . S
C832 C833 1.376 . S
C833 H820 0.930 . S
C833 C832 1.376 . S
C833 C834 1.388 . S
C834 H821 0.930 . S
C834 C833 1.388 . S
C834 C835 1.390 . S
C835 C834 1.390 . S
C835 C836 1.394 . S
C835 C841 1.465 . S
C836 C831 1.399 . S
C836 C835 1.394 . S
C836 C837 1.516 . S
C837 C836 1.516 . S
C837 C838 1.502 . S
C837 C839 1.561 . S
C837 C840 1.526 . S
C838 H822 0.959 . S
C838 H823 0.959 . S
C838 H824 0.961 . S
C838 C837 1.502 . S
C839 H825 0.960 . S
C839 H826 0.961 . S
C839 H827 0.959 . S
C839 C837 1.561 . S
C840 C837 1.526 . S
C840 C841 1.396 . S
C840 C845 1.390 . S
C841 C835 1.465 . S
C841 C840 1.396 . S
C841 C842 1.399 . S
C842 H828 0.929 . S
C842 C841 1.399 . S
C842 C843 1.385 . S
C843 H829 0.931 . S
C843 C842 1.385 . S
C843 C844 1.389 . S
C844 C843 1.389 . S
C844 C845 1.387 . S
C845 H830 0.930 . S
C845 C840 1.390 . S
C845 C844 1.387 . S
H846 C858 0.930 . S
H847 C860 0.930 . S
H848 C861 0.930 . S
H849 C865 0.959 . S
H850 C865 0.959 . S
H851 C865 0.961 . S
H852 C866 0.960 . S
H853 C866 0.961 . S
H854 C866 0.959 . S
H855 C869 0.929 . S
H856 C870 0.931 . S
H857 C872 0.930 . S
C858 H846 0.930 . S
C858 C859 1.399 . S
C858 C863 1.399 . S
C859 C858 1.399 . S
C859 C860 1.376 . S
C860 H847 0.930 . S
C860 C859 1.376 . S
C860 C861 1.388 . S
C861 H848 0.930 . S
C861 C860 1.388 . S
C861 C862 1.390 . S
C862 C861 1.390 . S
C862 C863 1.394 . S
C862 C868 1.465 . S
C863 C858 1.399 . S
C863 C862 1.394 . S
C863 C864 1.516 . S
C864 C863 1.516 . S
C864 C865 1.502 . S
C864 C866 1.561 . S
C864 C867 1.526 . S
C865 H849 0.959 . S
C865 H850 0.959 . S
C865 H851 0.961 . S
C865 C864 1.502 . S
C866 H852 0.960 . S
C866 H853 0.961 . S
C866 H854 0.959 . S
C866 C864 1.561 . S
C867 C864 1.526 . S
C867 C868 1.396 . S
C867 C872 1.390 . S
C868 C862 1.465 . S
C868 C867 1.396 . S
C868 C869 1.399 . S
C869 H855 0.929 . S
C869 C868 1.399 . S
C869 C870 1.385 . S
C870 H856 0.931 . S
C870 C869 1.385 . S
C870 C871 1.389 . S
C871 C870 1.389 . S
C871 C872 1.387 . S
C872 H857 0.930 . S
C872 C867 1.390 . S
C872 C871 1.387 . S
H873 C885 0.930 . S
H874 C887 0.930 . S
H875 C888 0.930 . S
H876 C892 0.959 . S
H877 C892 0.959 . S
H878 C892 0.961 . S
H879 C893 0.960 . S
H880 C893 0.961 . S
H881 C893 0.959 . S
H882 C896 0.929 . S
H883 C897 0.931 . S
H884 C899 0.930 . S
C885 H873 0.930 . S
C885 C886 1.399 . S
C885 C890 1.399 . S
C886 C885 1.399 . S
C886 C887 1.376 . S
C887 H874 0.930 . S
C887 C886 1.376 . S
C887 C888 1.388 . S
C888 H875 0.930 . S
C888 C887 1.388 . S
C888 C889 1.390 . S
C889 C888 1.390 . S
C889 C890 1.394 . S
C889 C895 1.465 . S
C890 C885 1.399 . S
C890 C889 1.394 . S
C890 C891 1.516 . S
C891 C890 1.516 . S
C891 C892 1.502 . S
C891 C893 1.561 . S
C891 C894 1.526 . S
C892 H876 0.959 . S
C892 H877 0.959 . S
C892 H878 0.961 . S
C892 C891 1.502 . S
C893 H879 0.960 . S
C893 H880 0.961 . S
C893 H881 0.959 . S
C893 C891 1.561 . S
C894 C891 1.526 . S
C894 C895 1.396 . S
C894 C899 1.390 . S
C895 C889 1.465 . S
C895 C894 1.396 . S
C895 C896 1.399 . S
C896 H882 0.929 . S
C896 C895 1.399 . S
C896 C897 1.385 . S
C897 H883 0.931 . S
C897 C896 1.385 . S
C897 C898 1.389 . S
C898 C897 1.389 . S
C898 C899 1.387 . S
C899 H884 0.930 . S
C899 C894 1.390 . S
C899 C898 1.387 . S
H900 C912 0.930 . S
H901 C914 0.930 . S
H902 C915 0.930 . S
H903 C919 0.959 . S
H904 C919 0.959 . S
H905 C919 0.961 . S
H906 C920 0.960 . S
H907 C920 0.961 . S
H908 C920 0.959 . S
H909 C923 0.929 . S
H910 C924 0.931 . S
H911 C926 0.930 . S
C912 H900 0.930 . S
C912 C913 1.399 . S
C912 C917 1.399 . S
C913 C912 1.399 . S
C913 C914 1.376 . S
C914 H901 0.930 . S
C914 C913 1.376 . S
C914 C915 1.388 . S
C915 H902 0.930 . S
C915 C914 1.388 . S
C915 C916 1.390 . S
C916 C915 1.390 . S
C916 C917 1.394 . S
C916 C922 1.465 . S
C917 C912 1.399 . S
C917 C916 1.394 . S
C917 C918 1.516 . S
C918 C917 1.516 . S
C918 C919 1.502 . S
C918 C920 1.561 . S
C918 C921 1.526 . S
C919 H903 0.959 . S
C919 H904 0.959 . S
C919 H905 0.961 . S
C919 C918 1.502 . S
C920 H906 0.960 . S
C920 H907 0.961 . S
C920 H908 0.959 . S
C920 C918 1.561 . S
C921 C918 1.526 . S
C921 C922 1.396 . S
C921 C926 1.390 . S
C922 C916 1.465 . S
C922 C921 1.396 . S
C922 C923 1.399 . S
C923 H909 0.929 . S
C923 C922 1.399 . S
C923 C924 1.385 . S
C924 H910 0.931 . S
C924 C923 1.385 . S
C924 C925 1.389 . S
C925 C924 1.389 . S
C925 C926 1.387 . S
C926 H911 0.930 . S
C926 C921 1.390 . S
C926 C925 1.387 . S
H927 C939 0.930 . S
H928 C941 0.930 . S
H929 C942 0.930 . S
H930 C946 0.959 . S
H931 C946 0.959 . S
H932 C946 0.961 . S
H933 C947 0.960 . S
H934 C947 0.961 . S
H935 C947 0.959 . S
H936 C950 0.929 . S
H937 C951 0.931 . S
H938 C953 0.930 . S
C939 H927 0.930 . S
C939 C940 1.399 . S
C939 C944 1.399 . S
C940 C939 1.399 . S
C940 C941 1.376 . S
C941 H928 0.930 . S
C941 C940 1.376 . S
C941 C942 1.388 . S
C942 H929 0.930 . S
C942 C941 1.388 . S
C942 C943 1.390 . S
C943 C942 1.390 . S
C943 C944 1.394 . S
C943 C949 1.465 . S
C944 C939 1.399 . S
C944 C943 1.394 . S
C944 C945 1.516 . S
C945 C944 1.516 . S
C945 C946 1.502 . S
C945 C947 1.561 . S
C945 C948 1.526 . S
C946 H930 0.959 . S
C946 H931 0.959 . S
C946 H932 0.961 . S
C946 C945 1.502 . S
C947 H933 0.960 . S
C947 H934 0.961 . S
C947 H935 0.959 . S
C947 C945 1.561 . S
C948 C945 1.526 . S
C948 C949 1.396 . S
C948 C953 1.390 . S
C949 C943 1.465 . S
C949 C948 1.396 . S
C949 C950 1.399 . S
C950 H936 0.929 . S
C950 C949 1.399 . S
C950 C951 1.385 . S
C951 H937 0.931 . S
C951 C950 1.385 . S
C951 C952 1.389 . S
C952 C951 1.389 . S
C952 C953 1.387 . S
C953 H938 0.930 . S
C953 C948 1.390 . S
C953 C952 1.387 . S
H954 C966 0.930 . S
H955 C968 0.930 . S
H956 C969 0.930 . S
H957 C973 0.959 . S
H958 C973 0.959 . S
H959 C973 0.961 . S
H960 C974 0.960 . S
H961 C974 0.961 . S
H962 C974 0.959 . S
H963 C977 0.929 . S
H964 C978 0.931 . S
H965 C980 0.930 . S
C966 H954 0.930 . S
C966 C967 1.399 . S
C966 C971 1.399 . S
C967 C966 1.399 . S
C967 C968 1.376 . S
C968 H955 0.930 . S
C968 C967 1.376 . S
C968 C969 1.388 . S
C969 H956 0.930 . S
C969 C968 1.388 . S
C969 C970 1.390 . S
C970 C969 1.390 . S
C970 C971 1.394 . S
C970 C976 1.465 . S
C971 C966 1.399 . S
C971 C970 1.394 . S
C971 C972 1.516 . S
C972 C971 1.516 . S
C972 C973 1.502 . S
C972 C974 1.561 . S
C972 C975 1.526 . S
C973 H957 0.959 . S
C973 H958 0.959 . S
C973 H959 0.961 . S
C973 C972 1.502 . S
C974 H960 0.960 . S
C974 H961 0.961 . S
C974 H962 0.959 . S
C974 C972 1.561 . S
C975 C972 1.526 . S
C975 C976 1.396 . S
C975 C980 1.390 . S
C976 C970 1.465 . S
C976 C975 1.396 . S
C976 C977 1.399 . S
C977 H963 0.929 . S
C977 C976 1.399 . S
C977 C978 1.385 . S
C978 H964 0.931 . S
C978 C977 1.385 . S
C978 C979 1.389 . S
C979 C978 1.389 . S
C979 C980 1.387 . S
C980 H965 0.930 . S
C980 C975 1.390 . S
C980 C979 1.387 . S
H981 C993 0.930 . S
H982 C995 0.930 . S
H983 C996 0.930 . S
H984 C1000 0.959 . S
H985 C1000 0.959 . S
H986 C1000 0.961 1_554 S
H987 C1001 0.921 1_554 S
H988 C1001 0.999 . S
H989 C1001 0.961 . S
H990 C1004 0.929 . S
H991 C1005 0.931 . S
H992 C1007 0.930 . S
C993 H981 0.930 . S
C993 C994 1.399 . S
C993 C998 1.399 . S
C994 C993 1.399 . S
C994 C995 1.376 . S
C995 H982 0.930 . S
C995 C994 1.376 . S
C995 C996 1.388 . S
C996 H983 0.930 . S
C996 C995 1.388 . S
C996 C997 1.390 . S
C997 C996 1.390 . S
C997 C998 1.394 . S
C997 C1003 1.465 1_554 S
C998 C993 1.399 . S
C998 C997 1.394 . S
C998 C999 1.516 1_554 S
C999 C998 1.516 1_556 S
C999 C1000 1.502 . S
C999 C1001 1.562 . S
C999 C1002 1.526 . S
C1000 H984 0.959 . S
C1000 H985 0.959 . S
C1000 H986 0.961 1_556 S
C1000 C999 1.502 . S
C1001 H987 0.921 1_556 S
C1001 H988 0.999 . S
C1001 H989 0.961 . S
C1001 C999 1.562 . S
C1002 C999 1.526 . S
C1002 C1003 1.396 . S
C1002 C1007 1.390 . S
C1003 C997 1.465 1_556 S
C1003 C1002 1.396 . S
C1003 C1004 1.399 . S
C1004 H990 0.929 . S
C1004 C1003 1.399 . S
C1004 C1005 1.385 . S
C1005 H991 0.931 . S
C1005 C1004 1.385 . S
C1005 C1006 1.389 . S
C1006 C1005 1.389 . S
C1006 C1007 1.387 . S
C1007 H992 0.930 . S
C1007 C1002 1.390 . S
C1007 C1006 1.387 . S
H1008 C1020 0.930 . S
H1009 C1022 0.930 . S
H1010 C1023 0.930 . S
H1011 C1027 0.957 1_554 S
H1012 C1027 0.959 1_554 S
H1013 C1027 0.961 . S
H1014 C1028 0.960 . S
H1015 C1028 0.961 1_554 S
H1016 C1028 0.965 . S
H1017 C1031 0.929 . S
H1018 C1032 0.931 . S
H1019 C1034 0.930 . S
C1020 H1008 0.930 . S
C1020 C1021 1.399 1_565 S
C1020 C1025 1.399 . S
C1021 C1020 1.399 1_545 S
C1021 C1022 1.376 . S
C1022 H1009 0.930 . S
C1022 C1021 1.376 . S
C1022 C1023 1.388 . S
C1023 H1010 0.930 . S
C1023 C1022 1.388 . S
C1023 C1024 1.390 . S
C1024 C1023 1.390 . S
C1024 C1025 1.394 1_545 S
C1024 C1030 1.465 1_556 S
C1025 C1020 1.399 . S
C1025 C1024 1.394 1_565 S
C1025 C1026 1.516 . S
C1026 C1025 1.516 . S
C1026 C1027 1.502 . S
C1026 C1028 1.561 . S
C1026 C1029 1.526 1_556 S
C1027 H1011 0.957 1_556 S
C1027 H1012 0.959 1_556 S
C1027 H1013 0.961 . S
C1027 C1026 1.502 . S
C1028 H1014 0.960 . S
C1028 H1015 0.961 1_556 S
C1028 H1016 0.965 . S
C1028 C1026 1.561 . S
C1029 C1026 1.526 1_554 S
C1029 C1030 1.396 1_565 S
C1029 C1034 1.390 . S
C1030 C1024 1.465 1_554 S
C1030 C1029 1.396 1_545 S
C1030 C1031 1.399 . S
C1031 H1017 0.929 . S
C1031 C1030 1.399 . S
C1031 C1032 1.385 . S
C1032 H1018 0.931 . S
C1032 C1031 1.385 . S
C1032 C1033 1.389 1_545 S
C1033 C1032 1.389 1_565 S
C1033 C1034 1.387 . S
C1034 H1019 0.930 . S
C1034 C1029 1.390 . S
C1034 C1033 1.387 . S
H1035 C1047 0.930 . S
H1036 C1049 0.930 . S
H1037 C1050 0.930 . S
H1038 C1054 0.959 . S
H1039 C1054 0.959 . S
H1040 C1054 0.961 1_556 S
H1041 C1055 0.917 1_556 S
H1042 C1055 1.003 . S
H1043 C1055 0.938 1_455 S
H1044 C1058 0.929 . S
H1045 C1059 0.931 . S
H1046 C1061 0.930 . S
C1047 H1035 0.930 . S
C1047 C1048 1.399 . S
C1047 C1052 1.399 . S
C1048 C1047 1.399 . S
C1048 C1049 1.376 1_655 S
C1049 H1036 0.930 . S
C1049 C1048 1.376 1_455 S
C1049 C1050 1.388 . S
C1050 H1037 0.930 . S
C1050 C1049 1.388 . S
C1050 C1051 1.390 . S
C1051 C1050 1.390 . S
C1051 C1052 1.394 1_455 S
C1051 C1057 1.465 1_556 S
C1052 C1047 1.399 . S
C1052 C1051 1.394 1_655 S
C1052 C1053 1.516 1_556 S
C1053 C1052 1.516 1_554 S
C1053 C1054 1.502 . S
C1053 C1055 1.563 . S
C1053 C1056 1.526 . S
C1054 H1038 0.959 . S
C1054 H1039 0.959 . S
C1054 H1040 0.961 1_554 S
C1054 C1053 1.502 . S
C1055 H1041 0.917 1_554 S
C1055 H1042 1.003 . S
C1055 H1043 0.938 1_655 S
C1055 C1053 1.563 . S
C1056 C1053 1.526 . S
C1056 C1057 1.396 1_655 S
C1056 C1061 1.390 . S
C1057 C1051 1.465 1_554 S
C1057 C1056 1.396 1_455 S
C1057 C1058 1.399 . S
C1058 H1044 0.929 . S
C1058 C1057 1.399 . S
C1058 C1059 1.385 . S
C1059 H1045 0.931 . S
C1059 C1058 1.385 . S
C1059 C1060 1.389 . S
C1060 C1059 1.389 . S
C1060 C1061 1.387 1_455 S
C1061 H1046 0.930 . S
C1061 C1056 1.390 . S
C1061 C1060 1.387 1_655 S
H1062 C1074 0.930 . S
H1063 C1076 0.930 . S
H1064 C1077 0.930 . S
H1065 C1081 0.959 . S
H1066 C1081 0.959 . S
H1067 C1081 0.961 . S
H1068 C1082 0.960 . S
H1069 C1082 0.961 . S
H1070 C1082 0.959 . S
H1071 C1085 0.929 . S
H1072 C1086 0.931 . S
H1073 C1088 0.930 . S
C1074 H1062 0.930 . S
C1074 C1075 1.399 . S
C1074 C1079 1.399 . S
C1075 C1074 1.399 . S
C1075 C1076 1.376 . S
C1076 H1063 0.930 . S
C1076 C1075 1.376 . S
C1076 C1077 1.388 . S
C1077 H1064 0.930 . S
C1077 C1076 1.388 . S
C1077 C1078 1.390 . S
C1078 C1077 1.390 . S
C1078 C1079 1.394 . S
C1078 C1084 1.465 . S
C1079 C1074 1.399 . S
C1079 C1078 1.394 . S
C1079 C1080 1.516 . S
C1080 C1079 1.516 . S
C1080 C1081 1.502 . S
C1080 C1082 1.561 . S
C1080 C1083 1.526 . S
C1081 H1065 0.959 . S
C1081 H1066 0.959 . S
C1081 H1067 0.961 . S
C1081 C1080 1.502 . S
C1082 H1068 0.960 . S
C1082 H1069 0.961 . S
C1082 H1070 0.959 . S
C1082 C1080 1.561 . S
C1083 C1080 1.526 . S
C1083 C1084 1.396 . S
C1083 C1088 1.390 . S
C1084 C1078 1.465 . S
C1084 C1083 1.396 . S
C1084 C1085 1.399 . S
C1085 H1071 0.929 . S
C1085 C1084 1.399 . S
C1085 C1086 1.385 . S
C1086 H1072 0.931 . S
C1086 C1085 1.385 . S
C1086 C1087 1.389 . S
C1087 C1086 1.389 . S
C1087 C1088 1.387 . S
C1088 H1073 0.930 . S
C1088 C1083 1.390 . S
C1088 C1087 1.387 . S
H1089 C1101 0.930 . S
H1090 C1103 0.930 . S
H1091 C1104 0.930 . S
H1092 C1108 0.959 . S
H1093 C1108 0.959 . S
H1094 C1108 0.961 . S
H1095 C1109 0.960 . S
H1096 C1109 0.961 . S
H1097 C1109 0.959 . S
H1098 C1112 0.929 . S
H1099 C1113 0.931 . S
H1100 C1115 0.930 . S
C1101 H1089 0.930 . S
C1101 C1102 1.399 . S
C1101 C1106 1.399 . S
C1102 C1101 1.399 . S
C1102 C1103 1.376 . S
C1103 H1090 0.930 . S
C1103 C1102 1.376 . S
C1103 C1104 1.388 . S
C1104 H1091 0.930 . S
C1104 C1103 1.388 . S
C1104 C1105 1.390 . S
C1105 C1104 1.390 . S
C1105 C1106 1.394 . S
C1105 C1111 1.465 . S
C1106 C1101 1.399 . S
C1106 C1105 1.394 . S
C1106 C1107 1.516 . S
C1107 C1106 1.516 . S
C1107 C1108 1.502 . S
C1107 C1109 1.561 . S
C1107 C1110 1.526 . S
C1108 H1092 0.959 . S
C1108 H1093 0.959 . S
C1108 H1094 0.961 . S
C1108 C1107 1.502 . S
C1109 H1095 0.960 . S
C1109 H1096 0.961 . S
C1109 H1097 0.959 . S
C1109 C1107 1.561 . S
C1110 C1107 1.526 . S
C1110 C1111 1.396 . S
C1110 C1115 1.390 . S
C1111 C1105 1.465 . S
C1111 C1110 1.396 . S
C1111 C1112 1.399 . S
C1112 H1098 0.929 . S
C1112 C1111 1.399 . S
C1112 C1113 1.385 . S
C1113 H1099 0.931 . S
C1113 C1112 1.385 . S
C1113 C1114 1.389 . S
C1114 C1113 1.389 . S
C1114 C1115 1.387 . S
C1115 H1100 0.930 . S
C1115 C1110 1.390 . S
C1115 C1114 1.387 . S
H1116 C1128 0.930 . S
H1117 C1130 0.930 . S
H1118 C1131 0.930 . S
H1119 C1135 0.959 . S
H1120 C1135 0.959 . S
H1121 C1135 0.961 . S
H1122 C1136 0.960 . S
H1123 C1136 0.961 . S
H1124 C1136 0.959 . S
H1125 C1139 0.929 . S
H1126 C1140 0.931 . S
H1127 C1142 0.930 . S
C1128 H1116 0.930 . S
C1128 C1129 1.399 . S
C1128 C1133 1.399 . S
C1129 C1128 1.399 . S
C1129 C1130 1.376 . S
C1130 H1117 0.930 . S
C1130 C1129 1.376 . S
C1130 C1131 1.388 . S
C1131 H1118 0.930 . S
C1131 C1130 1.388 . S
C1131 C1132 1.390 . S
C1132 C1131 1.390 . S
C1132 C1133 1.394 . S
C1132 C1138 1.465 . S
C1133 C1128 1.399 . S
C1133 C1132 1.394 . S
C1133 C1134 1.516 . S
C1134 C1133 1.516 . S
C1134 C1135 1.502 . S
C1134 C1136 1.561 . S
C1134 C1137 1.526 . S
C1135 H1119 0.959 . S
C1135 H1120 0.959 . S
C1135 H1121 0.961 . S
C1135 C1134 1.502 . S
C1136 H1122 0.960 . S
C1136 H1123 0.961 . S
C1136 H1124 0.959 . S
C1136 C1134 1.561 . S
C1137 C1134 1.526 . S
C1137 C1138 1.396 . S
C1137 C1142 1.390 . S
C1138 C1132 1.465 . S
C1138 C1137 1.396 . S
C1138 C1139 1.399 . S
C1139 H1125 0.929 . S
C1139 C1138 1.399 . S
C1139 C1140 1.385 . S
C1140 H1126 0.931 . S
C1140 C1139 1.385 . S
C1140 C1141 1.389 . S
C1141 C1140 1.389 . S
C1141 C1142 1.387 . S
C1142 H1127 0.930 . S
C1142 C1137 1.390 . S
C1142 C1141 1.387 . S
H1143 C1155 0.930 . S
H1144 C1157 0.930 . S
H1145 C1158 0.930 . S
H1146 C1162 0.959 . S
H1147 C1162 0.959 . S
H1148 C1162 0.961 . S
H1149 C1163 0.960 . S
H1150 C1163 0.961 . S
H1151 C1163 0.959 . S
H1152 C1166 0.929 . S
H1153 C1167 0.931 . S
H1154 C1169 0.930 . S
C1155 H1143 0.930 . S
C1155 C1156 1.399 . S
C1155 C1160 1.399 . S
C1156 C1155 1.399 . S
C1156 C1157 1.376 . S
C1157 H1144 0.930 . S
C1157 C1156 1.376 . S
C1157 C1158 1.388 . S
C1158 H1145 0.930 . S
C1158 C1157 1.388 . S
C1158 C1159 1.390 . S
C1159 C1158 1.390 . S
C1159 C1160 1.394 . S
C1159 C1165 1.465 . S
C1160 C1155 1.399 . S
C1160 C1159 1.394 . S
C1160 C1161 1.516 . S
C1161 C1160 1.516 . S
C1161 C1162 1.502 . S
C1161 C1163 1.561 . S
C1161 C1164 1.526 . S
C1162 H1146 0.959 . S
C1162 H1147 0.959 . S
C1162 H1148 0.961 . S
C1162 C1161 1.502 . S
C1163 H1149 0.960 . S
C1163 H1150 0.961 . S
C1163 H1151 0.959 . S
C1163 C1161 1.561 . S
C1164 C1161 1.526 . S
C1164 C1165 1.396 . S
C1164 C1169 1.390 . S
C1165 C1159 1.465 . S
C1165 C1164 1.396 . S
C1165 C1166 1.399 . S
C1166 H1152 0.929 . S
C1166 C1165 1.399 . S
C1166 C1167 1.385 . S
C1167 H1153 0.931 . S
C1167 C1166 1.385 . S
C1167 C1168 1.389 . S
C1168 C1167 1.389 . S
C1168 C1169 1.387 . S
C1169 H1154 0.930 . S
C1169 C1164 1.390 . S
C1169 C1168 1.387 . S
H1170 C1182 0.930 . S
H1171 C1184 0.930 . S
H1172 C1185 0.930 . S
H1173 C1189 0.959 . S
H1174 C1189 0.959 . S
H1175 C1189 0.961 . S
H1176 C1190 0.960 . S
H1177 C1190 0.961 . S
H1178 C1190 0.959 . S
H1179 C1193 0.929 . S
H1180 C1194 0.931 . S
H1181 C1196 0.930 . S
C1182 H1170 0.930 . S
C1182 C1183 1.399 . S
C1182 C1187 1.399 . S
C1183 C1182 1.399 . S
C1183 C1184 1.376 . S
C1184 H1171 0.930 . S
C1184 C1183 1.376 . S
C1184 C1185 1.388 . S
C1185 H1172 0.930 . S
C1185 C1184 1.388 . S
C1185 C1186 1.390 . S
C1186 C1185 1.390 . S
C1186 C1187 1.394 . S
C1186 C1192 1.465 . S
C1187 C1182 1.399 . S
C1187 C1186 1.394 . S
C1187 C1188 1.516 . S
C1188 C1187 1.516 . S
C1188 C1189 1.502 . S
C1188 C1190 1.561 . S
C1188 C1191 1.526 . S
C1189 H1173 0.959 . S
C1189 H1174 0.959 . S
C1189 H1175 0.961 . S
C1189 C1188 1.502 . S
C1190 H1176 0.960 . S
C1190 H1177 0.961 . S
C1190 H1178 0.959 . S
C1190 C1188 1.561 . S
C1191 C1188 1.526 . S
C1191 C1192 1.396 . S
C1191 C1196 1.390 . S
C1192 C1186 1.465 . S
C1192 C1191 1.396 . S
C1192 C1193 1.399 . S
C1193 H1179 0.929 . S
C1193 C1192 1.399 . S
C1193 C1194 1.385 . S
C1194 H1180 0.931 . S
C1194 C1193 1.385 . S
C1194 C1195 1.389 . S
C1195 C1194 1.389 . S
C1195 C1196 1.387 . S
C1196 H1181 0.930 . S
C1196 C1191 1.390 . S
C1196 C1195 1.387 . S
H1197 C1209 0.930 . S
H1198 C1211 0.930 . S
H1199 C1212 0.930 . S
H1200 C1216 0.959 . S
H1201 C1216 0.959 . S
H1202 C1216 0.961 . S
H1203 C1217 0.960 . S
H1204 C1217 0.961 . S
H1205 C1217 0.959 . S
H1206 C1220 0.929 . S
H1207 C1221 0.931 . S
H1208 C1223 0.930 . S
C1209 H1197 0.930 . S
C1209 C1210 1.399 . S
C1209 C1214 1.399 . S
C1210 C1209 1.399 . S
C1210 C1211 1.376 . S
C1211 H1198 0.930 . S
C1211 C1210 1.376 . S
C1211 C1212 1.388 . S
C1212 H1199 0.930 . S
C1212 C1211 1.388 . S
C1212 C1213 1.390 . S
C1213 C1212 1.390 . S
C1213 C1214 1.394 . S
C1213 C1219 1.465 . S
C1214 C1209 1.399 . S
C1214 C1213 1.394 . S
C1214 C1215 1.516 . S
C1215 C1214 1.516 . S
C1215 C1216 1.502 . S
C1215 C1217 1.561 . S
C1215 C1218 1.526 . S
C1216 H1200 0.959 . S
C1216 H1201 0.959 . S
C1216 H1202 0.961 . S
C1216 C1215 1.502 . S
C1217 H1203 0.960 . S
C1217 H1204 0.961 . S
C1217 H1205 0.959 . S
C1217 C1215 1.561 . S
C1218 C1215 1.526 . S
C1218 C1219 1.396 . S
C1218 C1223 1.390 . S
C1219 C1213 1.465 . S
C1219 C1218 1.396 . S
C1219 C1220 1.399 . S
C1220 H1206 0.929 . S
C1220 C1219 1.399 . S
C1220 C1221 1.385 . S
C1221 H1207 0.931 . S
C1221 C1220 1.385 . S
C1221 C1222 1.389 . S
C1222 C1221 1.389 . S
C1222 C1223 1.387 . S
C1223 H1208 0.930 . S
C1223 C1218 1.390 . S
C1223 C1222 1.387 . S
C265 C151 1.025 . S
C277 C11 1.058 . S
C292 C25 1.088 . S
C304 C165 1.061 . S
C319 C137 1.081 . S
C331 C39 1.050 . S
C346 C207 1.014 . S
C358 C53 1.038 . S
C373 C67 1.092 . S
C385 C179 1.070 . S
C400 C193 1.060 . S
C412 C81 1.087 . S
C427 C95 1.091 . S
C439 C235 1.068 . S
C454 C249 1.092 . S
C466 C109 1.069 . S
C481 C123 1.090 . S
C493 C221 1.065 . S
C508 C8 0.904 . S
C520 C21 0.952 . S
C535 C22 0.887 . S
C547 C35 0.978 . S
C562 C7 1.018 . S
C574 C36 1.007 . S
C589 C77 1.018 . S
C601 C50 1.007 . S
C616 C49 1.018 . S
C628 C64 1.007 . S
C643 C78 0.953 . S
C655 C63 0.973 . S
C670 C92 0.894 . S
C682 C105 0.948 . S
C697 C106 0.855 . S
C709 C119 0.935 . S
C724 C91 1.017 . S
C736 C120 1.008 . S
C751 C161 0.931 . S
C763 C134 0.824 . S
C778 C133 1.011 . S
C790 C148 1.007 . S
C805 C147 1.007 . S
C817 C162 1.003 . S
C832 C189 1.019 . S
C844 C176 1.002 . S
C859 C203 0.966 . S
C871 C190 0.866 . S
C886 C175 1.019 . S
C898 C204 1.001 . S
C913 C218 0.929 . S
C925 C245 0.997 . S
C940 C232 0.889 . S
C952 C217 0.946 . S
C967 C246 0.912 . S
C979 C231 0.954 . S
C994 C13 1.314 . S
C1006 C55 1.315 . S
C1021 C69 1.299 . S
C1033 C27 1.300 . S
C1048 C83 1.317 . S
C1060 C41 1.317 . S
C1075 C139 1.271 . S
C1087 C97 1.273 . S
C1102 C153 1.307 . S
C1114 C111 1.308 . S
C1129 C125 1.279 . S
C1141 C167 1.281 . S
C1156 C223 1.272 . S
C1168 C181 1.273 . S
C1183 C237 1.387 . S
C1195 C195 1.386 . S
C1210 C251 1.332 . S
C1222 C209 1.333 . S
