# Generated by pormake.
# Topology ume, (4)-cn, num edge types: 1
# Building blocks:
#     Node 0, Type 0, BuildingBlock: KOZSID_clean_sbu_0, # of connection points: 4
#     Node 1, Type 0, BuildingBlock: KOZSID_clean_sbu_0, # of connection points: 4
#     Node 2, Type 0, BuildingBlock: KOZSID_clean_sbu_0, # of connection points: 4
#     Node 3, Type 0, BuildingBlock: KOZSID_clean_sbu_0, # of connection points: 4
#     Node 4, Type 0, BuildingBlock: KOZSID_clean_sbu_0, # of connection points: 4
#     Node 5, Type 0, BuildingBlock: KOZSID_clean_sbu_0, # of connection points: 4
#     Node 6, Type 0, BuildingBlock: KOZSID_clean_sbu_0, # of connection points: 4
#     Node 7, Type 0, BuildingBlock: KOZSID_clean_sbu_0, # of connection points: 4
#     Node 8, Type 0, BuildingBlock: KOZSID_clean_sbu_0, # of connection points: 4
#     Node 9, Type 0, BuildingBlock: KOZSID_clean_sbu_0, # of connection points: 4
#     Node 10, Type 0, BuildingBlock: KOZSID_clean_sbu_0, # of connection points: 4
#     Node 11, Type 0, BuildingBlock: KOZSID_clean_sbu_0, # of connection points: 4
#     Node 12, Type 0, BuildingBlock: KOZSID_clean_sbu_0, # of connection points: 4
#     Node 13, Type 0, BuildingBlock: KOZSID_clean_sbu_0, # of connection points: 4
#     Node 14, Type 0, BuildingBlock: KOZSID_clean_sbu_0, # of connection points: 4
#     Node 15, Type 0, BuildingBlock: KOZSID_clean_sbu_0, # of connection points: 4
#     Edge 16, Type (0, 0), BuildingBlock: XIVTED_clean_linker_0, # of connection points: 2
#     Edge 17, Type (0, 0), BuildingBlock: XIVTED_clean_linker_0, # of connection points: 2
#     Edge 18, Type (0, 0), BuildingBlock: XIVTED_clean_linker_0, # of connection points: 2
#     Edge 19, Type (0, 0), BuildingBlock: XIVTED_clean_linker_0, # of connection points: 2
#     Edge 20, Type (0, 0), BuildingBlock: XIVTED_clean_linker_0, # of connection points: 2
#     Edge 21, Type (0, 0), BuildingBlock: XIVTED_clean_linker_0, # of connection points: 2
#     Edge 22, Type (0, 0), BuildingBlock: XIVTED_clean_linker_0, # of connection points: 2
#     Edge 23, Type (0, 0), BuildingBlock: XIVTED_clean_linker_0, # of connection points: 2
#     Edge 24, Type (0, 0), BuildingBlock: XIVTED_clean_linker_0, # of connection points: 2
#     Edge 25, Type (0, 0), BuildingBlock: XIVTED_clean_linker_0, # of connection points: 2
#     Edge 26, Type (0, 0), BuildingBlock: XIVTED_clean_linker_0, # of connection points: 2
#     Edge 27, Type (0, 0), BuildingBlock: XIVTED_clean_linker_0, # of connection points: 2
#     Edge 28, Type (0, 0), BuildingBlock: XIVTED_clean_linker_0, # of connection points: 2
#     Edge 29, Type (0, 0), BuildingBlock: XIVTED_clean_linker_0, # of connection points: 2
#     Edge 30, Type (0, 0), BuildingBlock: XIVTED_clean_linker_0, # of connection points: 2
#     Edge 31, Type (0, 0), BuildingBlock: XIVTED_clean_linker_0, # of connection points: 2
#     Edge 32, Type (0, 0), BuildingBlock: XIVTED_clean_linker_0, # of connection points: 2
#     Edge 33, Type (0, 0), BuildingBlock: XIVTED_clean_linker_0, # of connection points: 2
#     Edge 34, Type (0, 0), BuildingBlock: XIVTED_clean_linker_0, # of connection points: 2
#     Edge 35, Type (0, 0), BuildingBlock: XIVTED_clean_linker_0, # of connection points: 2
#     Edge 36, Type (0, 0), BuildingBlock: XIVTED_clean_linker_0, # of connection points: 2
#     Edge 37, Type (0, 0), BuildingBlock: XIVTED_clean_linker_0, # of connection points: 2
#     Edge 38, Type (0, 0), BuildingBlock: XIVTED_clean_linker_0, # of connection points: 2
#     Edge 39, Type (0, 0), BuildingBlock: XIVTED_clean_linker_0, # of connection points: 2
#     Edge 40, Type (0, 0), BuildingBlock: XIVTED_clean_linker_0, # of connection points: 2
#     Edge 41, Type (0, 0), BuildingBlock: XIVTED_clean_linker_0, # of connection points: 2
#     Edge 42, Type (0, 0), BuildingBlock: XIVTED_clean_linker_0, # of connection points: 2
#     Edge 43, Type (0, 0), BuildingBlock: XIVTED_clean_linker_0, # of connection points: 2
#     Edge 44, Type (0, 0), BuildingBlock: XIVTED_clean_linker_0, # of connection points: 2
#     Edge 45, Type (0, 0), BuildingBlock: XIVTED_clean_linker_0, # of connection points: 2
#     Edge 46, Type (0, 0), BuildingBlock: XIVTED_clean_linker_0, # of connection points: 2
#     Edge 47, Type (0, 0), BuildingBlock: XIVTED_clean_linker_0, # of connection points: 2
# Relax obj value: 0.054
# Max RMSD: 0.244
# Mean RMSD: 0.214
data_MOF--net-ume--node1-KOZSID_clean_sbu_0--edge1-XIVTED_clean_linker_0
_symmetry_space_group_name_H-M    P1
_symmetry_Int_Tables_number       1
_symmetry_cell_setting            triclinic
loop_
_symmetry_equiv_pos_as_xyz
'x, y, z'
_cell_length_a     32.388689
_cell_length_b     38.365473
_cell_length_c     134.06639
_cell_angle_alpha  89.919809
_cell_angle_beta   89.883105
_cell_angle_gamma 90.159451
loop_
_atom_site_label
_atom_site_type_symbol
_atom_site_fract_x
_atom_site_fract_y
_atom_site_fract_z
_atom_type_partial_charge
C0 C 0.33791 0.08054 0.31761 0.0
C1 C 0.35628 0.11242 0.3197 0.0
C2 C 0.32913 0.13774 0.31662 0.0
C3 C 0.29575 0.12002 0.31282 0.0
N4 N 0.30023 0.08521 0.31343 0.0
Co5 Co 0.26044 0.05037 0.30833 0.0
N6 N 0.21471 0.08467 0.30789 0.0
C7 C 0.21904 0.11952 0.30788 0.0
C8 C 0.18163 0.13643 0.30772 0.0
C9 C 0.15215 0.11048 0.30761 0.0
C10 C 0.17323 0.0791 0.30772 0.0
N11 N 0.22068 0.01557 0.30309 0.0
C12 C 0.17887 0.01573 0.30322 0.0
C13 C 0.16311 0.98563 0.29889 0.0
C14 C 0.1963 0.9663 0.29585 0.0
C15 C 0.23035 0.98542 0.29853 0.0
N16 N 0.30512 0.01532 0.30879 0.0
C17 C 0.30571 0.98475 0.30385 0.0
C18 C 0.34028 0.9654 0.30578 0.0
C19 C 0.36308 0.98516 0.31223 0.0
C20 C 0.34112 0.01581 0.31386 0.0
N21 N 0.24544 0.03874 0.32225 0.0
C22 C 0.23924 0.02641 0.34303 0.0
C23 C 0.24488 0.99877 0.33626 0.0
C24 C 0.24746 1.00543 0.32591 0.0
C25 C 0.2351 0.05999 0.33903 0.0
C26 C 0.23823 0.06551 0.32875 0.0
N27 N 0.27745 0.0637 0.29454 0.0
C28 C 0.33326 0.08093 0.28346 0.0
C29 C 0.30563 0.09462 0.27647 0.0
C30 C 0.26317 0.09109 0.27857 0.0
C31 C 0.24976 0.07508 0.28754 0.0
C32 C 0.31879 0.06604 0.29236 0.0
H33 H 0.21699 0.07305 0.28894 0.0
H34 H 0.34166 0.05794 0.29768 0.0
H35 H 0.25258 0.98382 0.32091 0.0
H36 H 0.23679 0.09201 0.32615 0.0
C37 C 0.25775 0.13462 0.30993 0.0
C38 C 0.35823 0.04653 0.31896 0.0
C39 C 0.15349 0.04451 0.30698 0.0
C40 C 0.27066 0.97273 0.29887 0.0
H41 H 0.3863 0.11685 0.323 0.0
H42 H 0.3329 0.16567 0.31731 0.0
H43 H 0.17628 0.16423 0.3081 0.0
H44 H 0.11904 0.11415 0.30745 0.0
H45 H 0.13109 0.97811 0.29808 0.0
H46 H 0.19563 0.94049 0.2926 0.0
H47 H 0.34751 0.93957 0.30306 0.0
H48 H 0.393 0.9781 0.31517 0.0
H49 H 0.24767 0.97223 0.33893 0.0
H50 H 0.23131 0.08242 0.34383 0.0
H51 H 0.36628 0.08313 0.2823 0.0
H52 H 0.24044 0.10081 0.27336 0.0
C53 C 0.95816 0.77508 0.54583 0.0
C54 C 0.98822 0.77173 0.53853 0.0
C55 C 0.02128 0.75525 0.54294 0.0
C56 C 0.00964 0.74932 0.55267 0.0
N57 N 0.9714 0.76107 0.5546 0.0
Co58 Co 0.94343 0.75954 0.56777 0.0
N59 N 0.99597 0.75304 0.57514 0.0
C60 C 0.03142 0.7416 0.57105 0.0
C61 C 0.06241 0.73808 0.57796 0.0
C62 C 0.04513 0.74746 0.58695 0.0
C63 C 0.00437 0.75622 0.58504 0.0
N64 N 0.91464 0.759 0.58087 0.0
C65 C 0.92972 0.76304 0.59024 0.0
C66 C 0.89831 0.76007 0.59727 0.0
C67 C 0.86263 0.75358 0.59212 0.0
C68 C 0.87408 0.75295 0.58227 0.0
N69 N 0.89077 0.76535 0.56041 0.0
C70 C 0.85289 0.75797 0.56398 0.0
C71 C 0.82204 0.76593 0.55737 0.0
C72 C 0.84171 0.77919 0.54913 0.0
C73 C 0.88376 0.77829 0.55114 0.0
N74 N 0.93887 0.70804 0.56689 0.0
C75 C 0.95582 0.63578 0.56542 0.0
C76 C 0.9545 0.65276 0.57467 0.0
C77 C 0.94623 0.68846 0.57524 0.0
C78 C 0.94442 0.65542 0.55697 0.0
C79 C 0.93567 0.69134 0.55789 0.0
N80 N 0.95038 0.81027 0.56868 0.0
C81 C 0.92549 0.86862 0.57167 0.0
C82 C 0.96478 0.88255 0.5695 0.0
C83 C 0.99644 0.85931 0.56711 0.0
C84 C 0.98864 0.82375 0.56671 0.0
C85 C 0.91891 0.83231 0.5712 0.0
H86 H 0.01403 0.80716 0.56475 0.0
H87 H 0.88854 0.82205 0.57282 0.0
H88 H 0.94854 0.70042 0.58247 0.0
H89 H 0.92869 0.70596 0.55121 0.0
C90 C 0.03572 0.73951 0.56059 0.0
C91 C 0.91629 0.78915 0.54408 0.0
C92 C 0.9738 0.76504 0.59283 0.0
C93 C 0.84712 0.75148 0.57415 0.0
H94 H 0.98639 0.78029 0.53084 0.0
H95 H 0.05093 0.74979 0.53955 0.0
H96 H 0.0941 0.73053 0.57661 0.0
H97 H 0.0606 0.74751 0.5941 0.0
H98 H 0.90099 0.7615 0.60531 0.0
H99 H 0.83192 0.75042 0.59519 0.0
H100 H 0.78905 0.76449 0.55862 0.0
H101 H 0.82648 0.789 0.54254 0.0
H102 H 0.96124 0.63885 0.58151 0.0
H103 H 0.94428 0.64371 0.54964 0.0
H104 H 0.89998 0.88557 0.57356 0.0
H105 H 0.02755 0.8684 0.56564 0.0
C106 C 0.171 0.43907 0.81793 0.0
C107 C 0.15264 0.40725 0.82014 0.0
C108 C 0.18012 0.38185 0.81728 0.0
C109 C 0.21367 0.39946 0.81349 0.0
N110 N 0.20899 0.43428 0.81389 0.0
Co111 Co 0.24894 0.46896 0.80869 0.0
N112 N 0.29488 0.43483 0.80857 0.0
C113 C 0.29072 0.39996 0.80874 0.0
C114 C 0.32822 0.38318 0.80877 0.0
C115 C 0.35758 0.40923 0.80857 0.0
C116 C 0.33635 0.44054 0.80846 0.0
N117 N 0.28884 0.50361 0.80336 0.0
C118 C 0.33064 0.50363 0.80359 0.0
C119 C 0.34648 0.53356 0.79914 0.0
C120 C 0.31338 0.55257 0.79592 0.0
C121 C 0.27928 0.53345 0.79862 0.0
N122 N 0.20403 0.50385 0.80883 0.0
C123 C 0.20359 0.53412 0.80372 0.0
C124 C 0.16882 0.55346 0.80544 0.0
C125 C 0.14572 0.534 0.81195 0.0
C126 C 0.16771 0.50353 0.81381 0.0
N127 N 0.26303 0.48144 0.82258 0.0
C128 C 0.26864 0.49483 0.84331 0.0
C129 C 0.26289 0.5221 0.8364 0.0
C130 C 0.26061 0.51492 0.82608 0.0
C131 C 0.27303 0.46108 0.83947 0.0
C132 C 0.27016 0.45503 0.82923 0.0
N133 N 0.2329 0.45467 0.79494 0.0
C134 C 0.17797 0.436 0.78387 0.0
C135 C 0.20618 0.42165 0.7771 0.0
C136 C 0.24846 0.42571 0.77928 0.0
C137 C 0.26114 0.44278 0.78812 0.0
C138 C 0.19173 0.45194 0.79266 0.0
H139 H 0.2938 0.44515 0.7896 0.0
H140 H 0.16846 0.46047 0.79783 0.0
H141 H 0.25549 0.53624 0.82097 0.0
H142 H 0.27182 0.42841 0.82677 0.0
C143 C 0.25194 0.38484 0.81078 0.0
C144 C 0.15046 0.47308 0.81905 0.0
C145 C 0.35598 0.47515 0.80755 0.0
C146 C 0.23889 0.54599 0.79877 0.0
H147 H 0.12242 0.4029 0.82338 0.0
H148 H 0.17643 0.35396 0.81812 0.0
H149 H 0.33367 0.35543 0.80931 0.0
H150 H 0.39071 0.40566 0.8085 0.0
H151 H 0.3785 0.54119 0.79838 0.0
H152 H 0.31409 0.5782 0.79254 0.0
H153 H 0.16164 0.57911 0.80256 0.0
H154 H 0.1156 0.54114 0.81478 0.0
H155 H 0.25985 0.54875 0.83894 0.0
H156 H 0.27688 0.43891 0.84438 0.0
H157 H 0.14505 0.43348 0.78263 0.0
H158 H 0.27162 0.41555 0.77424 0.0
C159 C 0.54368 0.7443 0.04592 0.0
C160 C 0.51224 0.74581 0.03892 0.0
C161 C 0.47946 0.76231 0.04345 0.0
C162 C 0.49232 0.76978 0.05298 0.0
N163 N 0.53109 0.75893 0.05468 0.0
Co164 Co 0.56009 0.76115 0.06772 0.0
N165 N 0.50812 0.76746 0.07538 0.0
C166 C 0.47208 0.77813 0.07144 0.0
C167 C 0.44153 0.78143 0.07849 0.0
C168 C 0.4597 0.77279 0.08742 0.0
C169 C 0.50059 0.76476 0.08534 0.0
N170 N 0.59004 0.76238 0.08063 0.0
C171 C 0.57587 0.75886 0.09012 0.0
C172 C 0.60794 0.76275 0.09692 0.0
C173 C 0.643 0.76931 0.09149 0.0
C174 C 0.63062 0.7691 0.08172 0.0
N175 N 0.61208 0.75563 0.06008 0.0
C176 C 0.64999 0.76449 0.06328 0.0
C177 C 0.6802 0.75817 0.05631 0.0
C178 C 0.65997 0.74433 0.04825 0.0
C179 C 0.61843 0.74275 0.05079 0.0
N180 N 0.56396 0.81262 0.06663 0.0
C181 C 0.54683 0.88476 0.06501 0.0
C182 C 0.5488 0.86809 0.07432 0.0
C183 C 0.55715 0.83243 0.07495 0.0
C184 C 0.5576 0.86491 0.05657 0.0
C185 C 0.56643 0.82903 0.05755 0.0
N186 N 0.55393 0.7104 0.06883 0.0
C187 C 0.58019 0.65229 0.07153 0.0
C188 C 0.5409 0.63795 0.06966 0.0
C189 C 0.50853 0.66085 0.06761 0.0
C190 C 0.51565 0.6965 0.06719 0.0
C191 C 0.58608 0.6887 0.07106 0.0
H192 H 0.48975 0.71278 0.06544 0.0
H193 H 0.61647 0.69931 0.07242 0.0
H194 H 0.55542 0.82071 0.08223 0.0
H195 H 0.57293 0.81421 0.05089 0.0
C196 C 0.46683 0.77954 0.06101 0.0
C197 C 0.58572 0.73033 0.04408 0.0
C198 C 0.532 0.75716 0.09303 0.0
C199 C 0.65671 0.77125 0.0734 0.0
H200 H 0.51242 0.73561 0.03142 0.0
H201 H 0.44905 0.76637 0.04033 0.0
H202 H 0.40954 0.78828 0.07728 0.0
H203 H 0.44465 0.77272 0.09463 0.0
H204 H 0.60606 0.76217 0.10497 0.0
H205 H 0.67388 0.77337 0.09434 0.0
H206 H 0.7132 0.76144 0.05717 0.0
H207 H 0.67418 0.7361 0.04134 0.0
H208 H 0.54249 0.8822 0.08114 0.0
H209 H 0.5572 0.87643 0.0492 0.0
H210 H 0.60622 0.6356 0.07316 0.0
H211 H 0.47741 0.6514 0.06638 0.0
C212 C 0.33802 0.44184 0.9443 0.0
C213 C 0.35657 0.41008 0.94225 0.0
C214 C 0.32946 0.38458 0.94533 0.0
C215 C 0.29592 0.40207 0.94911 0.0
N216 N 0.30027 0.4369 0.94848 0.0
Co217 Co 0.2601 0.47149 0.95348 0.0
N218 N 0.21451 0.43684 0.95391 0.0
C219 C 0.21901 0.40202 0.95397 0.0
C220 C 0.18167 0.38482 0.95411 0.0
C221 C 0.15206 0.41054 0.95416 0.0
C222 C 0.173 0.44209 0.95402 0.0
N223 N 0.21999 0.50606 0.95862 0.0
C224 C 0.17819 0.50556 0.95845 0.0
C225 C 0.16212 0.53554 0.96275 0.0
C226 C 0.19511 0.55518 0.9658 0.0
C227 C 0.22936 0.53633 0.96316 0.0
N228 N 0.30465 0.5069 0.95303 0.0
C229 C 0.30494 0.53749 0.95795 0.0
C230 C 0.33958 0.55703 0.95609 0.0
C231 C 0.36274 0.53736 0.94969 0.0
C232 C 0.34088 0.50661 0.94801 0.0
N233 N 0.2457 0.48274 0.93951 0.0
C234 C 0.24539 0.49399 0.91867 0.0
C235 C 0.24808 0.52213 0.92537 0.0
C236 C 0.24811 0.51596 0.93577 0.0
C237 C 0.23938 0.46069 0.92272 0.0
C238 C 0.23947 0.4557 0.93304 0.0
N239 N 0.27668 0.45848 0.9673 0.0
C240 C 0.33229 0.44171 0.97842 0.0
C241 C 0.30456 0.42765 0.98538 0.0
C242 C 0.26213 0.43078 0.98324 0.0
C243 C 0.24886 0.44676 0.97428 0.0
C244 C 0.31797 0.45654 0.96952 0.0
H245 H 0.21613 0.44845 0.97284 0.0
H246 H 0.34095 0.46487 0.96423 0.0
H247 H 0.25226 0.53778 0.94074 0.0
H248 H 0.23704 0.42933 0.93571 0.0
C249 C 0.25787 0.38721 0.95198 0.0
C250 C 0.3582 0.47601 0.94291 0.0
C251 C 0.15307 0.47653 0.95469 0.0
C252 C 0.26964 0.5493 0.96288 0.0
H253 H 0.38666 0.40584 0.93895 0.0
H254 H 0.33334 0.35667 0.94465 0.0
H255 H 0.17647 0.35697 0.95376 0.0
H256 H 0.11896 0.4066 0.95429 0.0
H257 H 0.13003 0.54275 0.96354 0.0
H258 H 0.19421 0.58099 0.96904 0.0
H259 H 0.34666 0.5829 0.95882 0.0
H260 H 0.39281 0.54457 0.94681 0.0
H261 H 0.25235 0.54845 0.92261 0.0
H262 H 0.23604 0.43819 0.91791 0.0
H263 H 0.36528 0.43982 0.97959 0.0
H264 H 0.23932 0.42076 0.98843 0.0
C265 C 0.54716 0.77768 0.21487 0.0
C266 C 0.51676 0.77523 0.22213 0.0
C267 C 0.48338 0.75904 0.21774 0.0
C268 C 0.49516 0.75239 0.20806 0.0
N269 N 0.53379 0.76342 0.20614 0.0
Co270 Co 0.5622 0.76036 0.19305 0.0
N271 N 0.50976 0.75393 0.18562 0.0
C272 C 0.47384 0.74337 0.18972 0.0
C273 C 0.44298 0.73985 0.18276 0.0
C274 C 0.46083 0.74833 0.17375 0.0
C275 C 0.50175 0.7566 0.17569 0.0
N276 N 0.59139 0.75823 0.18002 0.0
C277 C 0.57671 0.76174 0.1706 0.0
C278 C 0.60822 0.75777 0.16364 0.0
C279 C 0.64356 0.75119 0.16891 0.0
C280 C 0.63182 0.7515 0.17874 0.0
N281 N 0.61478 0.76607 0.20048 0.0
C282 C 0.65259 0.75793 0.19702 0.0
C283 C 0.68344 0.76595 0.20364 0.0
C284 C 0.66387 0.78002 0.21175 0.0
C285 C 0.62185 0.77949 0.20969 0.0
N286 N 0.56559 0.70896 0.19436 0.0
C287 C 0.55266 0.63622 0.19629 0.0
C288 C 0.55177 0.65267 0.18695 0.0
C289 C 0.55813 0.68864 0.18616 0.0
C290 C 0.56231 0.65694 0.20462 0.0
C291 C 0.56928 0.69307 0.20348 0.0
N292 N 0.55666 0.81106 0.19169 0.0
C293 C 0.58375 0.86852 0.18824 0.0
C294 C 0.54437 0.88313 0.1896 0.0
C295 C 0.51176 0.86096 0.19214 0.0
C296 C 0.51856 0.82539 0.19322 0.0
C297 C 0.58917 0.83226 0.18923 0.0
H298 H 0.49259 0.80952 0.19533 0.0
H299 H 0.61944 0.82135 0.18799 0.0
H300 H 0.55475 0.7001 0.17888 0.0
H301 H 0.57602 0.70835 0.21004 0.0
C302 C 0.46911 0.74228 0.20017 0.0
C303 C 0.58941 0.79105 0.21665 0.0
C304 C 0.53281 0.76448 0.16793 0.0
C305 C 0.65849 0.75045 0.18692 0.0
H306 H 0.51862 0.78412 0.22977 0.0
H307 H 0.45351 0.75417 0.2211 0.0
H308 H 0.41103 0.73294 0.18409 0.0
H309 H 0.44562 0.74813 0.16657 0.0
H310 H 0.60579 0.75871 0.1556 0.0
H311 H 0.67429 0.74741 0.16591 0.0
H312 H 0.71642 0.76396 0.20245 0.0
H313 H 0.67917 0.79006 0.2183 0.0
H314 H 0.54423 0.63812 0.18028 0.0
H315 H 0.5641 0.64542 0.21198 0.0
H316 H 0.60989 0.88485 0.1863 0.0
H317 H 0.48106 0.87112 0.19348 0.0
C318 C 0.16884 0.08134 0.44402 0.0
C319 C 0.15064 0.11325 0.44197 0.0
C320 C 0.17793 0.13853 0.44508 0.0
C321 C 0.21121 0.12075 0.44886 0.0
N322 N 0.20654 0.08596 0.44821 0.0
Co323 Co 0.24621 0.05101 0.45323 0.0
N324 N 0.29214 0.08531 0.45367 0.0
C325 C 0.28802 0.12017 0.45373 0.0
C326 C 0.32554 0.13708 0.45387 0.0
C327 C 0.35487 0.11114 0.45392 0.0
C328 C 0.3336 0.07975 0.45379 0.0
N329 N 0.28583 0.01609 0.45839 0.0
C330 C 0.32764 0.01627 0.45823 0.0
C331 C 0.34328 0.98608 0.46251 0.0
C332 C 0.31001 0.96668 0.46555 0.0
C333 C 0.27604 0.98584 0.46292 0.0
N334 N 0.20133 0.01594 0.45276 0.0
C335 C 0.20061 0.98527 0.45766 0.0
C336 C 0.16591 0.96593 0.45572 0.0
C337 C 0.14319 0.98583 0.4493 0.0
C338 C 0.16531 0.01653 0.44769 0.0
N339 N 0.26083 0.03978 0.43927 0.0
C340 C 0.26145 0.02861 0.41843 0.0
C341 C 0.25843 1.00046 0.42514 0.0
C342 C 0.25825 1.00659 0.43554 0.0
C343 C 0.26765 0.06186 0.42246 0.0
C344 C 0.26739 0.06682 0.43278 0.0
N345 N 0.22941 0.064 0.46705 0.0
C346 C 0.17367 0.08083 0.47816 0.0
C347 C 0.20133 0.09462 0.48514 0.0
C348 C 0.24378 0.09136 0.48301 0.0
C349 C 0.25715 0.07549 0.47404 0.0
C350 C 0.18809 0.06612 0.46925 0.0
H351 H 0.2899 0.07366 0.47261 0.0
H352 H 0.16517 0.058 0.46395 0.0
H353 H 0.25384 0.98477 0.44052 0.0
H354 H 0.26999 0.09316 0.43544 0.0
C355 C 0.24936 0.1353 0.45173 0.0
C356 C 0.14841 0.04733 0.4426 0.0
C357 C 0.35314 0.04515 0.45447 0.0
C358 C 0.23565 0.97315 0.4626 0.0
H359 H 0.12067 0.11774 0.43866 0.0
H360 H 0.17434 0.16647 0.4444 0.0
H361 H 0.33104 0.16489 0.45351 0.0
H362 H 0.388 0.11483 0.45405 0.0
H363 H 0.37526 0.97856 0.46328 0.0
H364 H 0.31057 0.94079 0.46877 0.0
H365 H 0.15856 0.94003 0.45842 0.0
H366 H 0.11322 0.97882 0.44635 0.0
H367 H 0.25401 0.97418 0.4224 0.0
H368 H 0.27127 0.08437 0.41765 0.0
H369 H 0.14066 0.08284 0.47933 0.0
H370 H 0.26654 0.10118 0.48821 0.0
C371 C 0.95617 0.74854 0.71463 0.0
C372 C 0.98633 0.75134 0.72191 0.0
C373 C 0.01963 0.76777 0.71752 0.0
C374 C 0.00804 0.77423 0.70782 0.0
N375 N 0.9696 0.76285 0.7059 0.0
Co376 Co 0.94157 0.76535 0.69276 0.0
N377 N 0.99418 0.77191 0.68537 0.0
C378 C 0.02985 0.78286 0.68946 0.0
C379 C 0.06087 0.78658 0.68253 0.0
C380 C 0.04339 0.77783 0.67352 0.0
C381 C 1.00253 0.7692 0.67545 0.0
N382 N 0.91277 0.76688 0.6797 0.0
C383 C 0.92778 0.7633 0.6703 0.0
C384 C 0.89638 0.76663 0.66332 0.0
C385 C 0.86079 0.77298 0.66854 0.0
C386 C 0.87226 0.77312 0.67838 0.0
N387 N 0.88886 0.75944 0.70017 0.0
C388 C 0.85106 0.76717 0.69668 0.0
C389 C 0.82013 0.75905 0.7033 0.0
C390 C 0.83965 0.74532 0.71146 0.0
C391 C 0.88171 0.74608 0.70941 0.0
N392 N 0.93773 0.81684 0.6939 0.0
C393 C 0.95081 0.88963 0.69567 0.0
C394 C 0.95121 0.87314 0.68635 0.0
C395 C 0.94493 0.83708 0.68564 0.0
C396 C 0.94138 0.869 0.70406 0.0
C397 C 0.9342 0.83289 0.70299 0.0
N398 N 0.94757 0.7146 0.6916 0.0
C399 C 0.9212 0.65659 0.68857 0.0
C400 C 0.96012 0.64213 0.69068 0.0
C401 C 0.99243 0.66496 0.693 0.0
C402 C 0.98555 0.70063 0.69345 0.0
C403 C 0.91554 0.69299 0.68909 0.0
H404 H 0.01135 0.71688 0.69539 0.0
H405 H 0.88539 0.70363 0.68755 0.0
H406 H 0.94817 0.82551 0.67838 0.0
H407 H 0.92756 0.81773 0.7096 0.0
C408 C 0.03423 0.78431 0.69992 0.0
C409 C 0.91408 0.73471 0.71639 0.0
C410 C 0.97181 0.76112 0.66765 0.0
C411 C 0.84535 0.77421 0.68654 0.0
H412 H 0.98439 0.74246 0.72956 0.0
H413 H 0.04937 0.77289 0.72089 0.0
H414 H 0.09268 0.79386 0.68387 0.0
H415 H 0.05879 0.77815 0.66635 0.0
H416 H 0.89903 0.76543 0.65527 0.0
H417 H 0.83008 0.7763 0.66551 0.0
H418 H 0.78716 0.76074 0.7021 0.0
H419 H 0.82436 0.7353 0.71804 0.0
H420 H 0.95842 0.88772 0.67964 0.0
H421 H 0.93996 0.8806 0.71141 0.0
H422 H 0.89525 0.63998 0.68672 0.0
H423 H 0.02331 0.65542 0.69442 0.0
C424 C 0.84092 0.58149 0.81697 0.0
C425 C 0.85966 0.61323 0.81904 0.0
C426 C 0.83253 0.63877 0.81609 0.0
C427 C 0.79879 0.62131 0.81238 0.0
N428 N 0.80304 0.58647 0.81292 0.0
Co429 Co 0.76259 0.55192 0.80797 0.0
N430 N 0.71709 0.58644 0.80778 0.0
C431 C 0.72167 0.62127 0.80778 0.0
C432 C 0.68435 0.63834 0.8078 0.0
C433 C 0.65468 0.61253 0.80779 0.0
C434 C 0.67557 0.58105 0.80779 0.0
N435 N 0.72222 0.51739 0.80289 0.0
C436 C 0.68045 0.51775 0.80322 0.0
C437 C 0.66407 0.48806 0.79881 0.0
C438 C 0.69687 0.46865 0.79556 0.0
C439 C 0.7313 0.48741 0.79819 0.0
N440 N 0.80703 0.51664 0.80818 0.0
C441 C 0.80707 0.48625 0.80316 0.0
C442 C 0.84174 0.46675 0.80485 0.0
C443 C 0.86516 0.48625 0.81125 0.0
C444 C 0.84343 0.51686 0.81309 0.0
N445 N 0.74868 0.54024 0.82197 0.0
C446 C 0.74766 0.52818 0.84278 0.0
C447 C 0.75019 0.5003 0.83599 0.0
C448 C 0.75063 0.50688 0.82561 0.0
C449 C 0.74241 0.56168 0.83884 0.0
C450 C 0.74284 0.56708 0.82853 0.0
N451 N 0.77861 0.56541 0.79412 0.0
C452 C 0.83368 0.58289 0.78285 0.0
C453 C 0.80561 0.59697 0.77601 0.0
C454 C 0.76329 0.59345 0.77829 0.0
C455 C 0.75047 0.57713 0.78727 0.0
C456 C 0.81979 0.56768 0.79176 0.0
H457 H 0.7178 0.57517 0.78881 0.0
H458 H 0.84301 0.55931 0.79695 0.0
H459 H 0.75456 0.48524 0.82056 0.0
H460 H 0.74078 0.59355 0.82594 0.0
C461 C 0.76066 0.63615 0.80967 0.0
C462 C 0.86095 0.54731 0.81824 0.0
C463 C 0.65561 0.5465 0.80719 0.0
C464 C 0.77157 0.47453 0.79829 0.0
H465 H 0.88987 0.61745 0.82226 0.0
H466 H 0.83654 0.66666 0.81682 0.0
H467 H 0.67922 0.66616 0.80822 0.0
H468 H 0.62159 0.61636 0.80779 0.0
H469 H 0.63187 0.481 0.79805 0.0
H470 H 0.69573 0.44306 0.79218 0.0
H471 H 0.84867 0.44102 0.80201 0.0
H472 H 0.89532 0.47902 0.81401 0.0
H473 H 0.7539 0.47384 0.83865 0.0
H474 H 0.73921 0.58401 0.84371 0.0
H475 H 0.86662 0.58504 0.78156 0.0
H476 H 0.74021 0.60343 0.77321 0.0
C477 C 0.45921 0.27891 0.04642 0.0
C478 C 0.48925 0.27644 0.03908 0.0
C479 C 0.52262 0.26005 0.04337 0.0
C480 C 0.5112 0.2533 0.05307 0.0
N481 N 0.4728 0.26448 0.0551 0.0
Co482 Co 0.4449 0.26115 0.06827 0.0
N483 N 0.49757 0.25418 0.07555 0.0
C484 C 0.53316 0.24357 0.07135 0.0
C485 C 0.56425 0.23956 0.07821 0.0
C486 C 0.54691 0.24776 0.08729 0.0
C487 C 0.50605 0.25638 0.08547 0.0
N488 N 0.41624 0.25875 0.08137 0.0
C489 C 0.43139 0.26183 0.09076 0.0
C490 C 0.40007 0.25801 0.09779 0.0
C491 C 0.36439 0.25189 0.0926 0.0
C492 C 0.37574 0.25235 0.08274 0.0
N493 N 0.39208 0.26739 0.06098 0.0
C494 C 0.3543 0.25939 0.06452 0.0
C495 C 0.32329 0.2676 0.05798 0.0
C496 C 0.34272 0.28165 0.04982 0.0
C497 C 0.38481 0.28097 0.0518 0.0
N498 N 0.44072 0.20984 0.06686 0.0
C499 C 0.45328 0.13726 0.06468 0.0
C500 C 0.45466 0.15325 0.07406 0.0
C501 C 0.44844 0.18917 0.07499 0.0
C502 C 0.44313 0.15833 0.05644 0.0
C503 C 0.43637 0.19437 0.05772 0.0
N504 N 0.45121 0.31174 0.06971 0.0
C505 C 0.42509 0.36922 0.07333 0.0
C506 C 0.46465 0.38361 0.07194 0.0
C507 C 0.49686 0.36136 0.06929 0.0
C508 C 0.48948 0.3259 0.06814 0.0
C509 C 0.4191 0.33304 0.07228 0.0
H510 H 0.51513 0.30995 0.06594 0.0
H511 H 0.3887 0.32227 0.07355 0.0
H512 H 0.45222 0.20031 0.08228 0.0
H513 H 0.42934 0.20993 0.05122 0.0
C514 C 0.53743 0.2428 0.06088 0.0
C515 C 0.41706 0.29245 0.04475 0.0
C516 C 0.47545 0.264 0.09334 0.0
C517 C 0.3487 0.25171 0.07463 0.0
H518 H 0.48715 0.28543 0.03144 0.0
H519 H 0.55226 0.25506 0.03992 0.0
H520 H 0.59603 0.23247 0.07678 0.0
H521 H 0.5624 0.24711 0.09443 0.0
H522 H 0.40282 0.25875 0.10583 0.0
H523 H 0.33371 0.24833 0.09566 0.0
H524 H 0.29033 0.26568 0.05923 0.0
H525 H 0.32736 0.29175 0.04328 0.0
H526 H 0.46258 0.13843 0.08066 0.0
H527 H 0.44089 0.14717 0.04905 0.0
H528 H 0.39926 0.38566 0.07534 0.0
H529 H 0.52767 0.3714 0.06793 0.0
C530 C 0.66835 0.93963 0.3173 0.0
C531 C 0.64976 0.90781 0.3194 0.0
C532 C 0.67685 0.88238 0.31636 0.0
C533 C 0.71043 0.89997 0.31257 0.0
N534 N 0.70612 0.9348 0.31315 0.0
Co535 Co 0.74627 0.9695 0.30808 0.0
N536 N 0.7918 0.93502 0.30769 0.0
C537 C 0.78728 0.90018 0.30767 0.0
C538 C 0.82462 0.88315 0.30755 0.0
C539 C 0.85424 0.90899 0.30747 0.0
C540 C 0.83331 0.94045 0.30757 0.0
N541 N 0.78639 1.00416 0.30288 0.0
C542 C 0.82817 1.00382 0.30308 0.0
C543 C 0.84436 0.0336 0.29864 0.0
C544 C 0.81142 0.05305 0.29551 0.0
C545 C 0.7771 0.03423 0.29824 0.0
N546 N 0.70179 1.00473 0.30846 0.0
C547 C 0.70153 0.03522 0.30346 0.0
C548 C 0.66688 0.05463 0.30527 0.0
C549 C 0.64369 0.03497 0.31171 0.0
C550 C 0.66553 1.00434 0.31346 0.0
N551 N 0.76086 0.98099 0.32202 0.0
C552 C 0.76747 0.99312 0.34279 0.0
C553 C 0.76171 0.02083 0.33603 0.0
C554 C 0.75894 0.01427 0.32568 0.0
C555 C 0.77128 0.95956 0.33878 0.0
C556 C 0.76792 0.95412 0.32851 0.0
N557 N 0.72968 0.95628 0.29428 0.0
C558 C 0.67429 0.93883 0.28317 0.0
C559 C 0.7022 0.92511 0.27622 0.0
C560 C 0.74458 0.92887 0.27836 0.0
C561 C 0.75764 0.94498 0.28731 0.0
C562 C 0.68843 0.95387 0.29206 0.0
H563 H 0.79035 0.94709 0.28875 0.0
H564 H 0.66537 0.96199 0.29734 0.0
H565 H 0.75387 0.03593 0.32069 0.0
H566 H 0.7692 0.92764 0.32592 0.0
C567 C 0.74842 0.88522 0.3097 0.0
C568 C 0.64815 0.97372 0.31861 0.0
C569 C 0.85317 0.97502 0.30695 0.0
C570 C 0.73683 0.04707 0.29849 0.0
H571 H 0.61962 0.90347 0.32269 0.0
H572 H 0.6729 0.85447 0.31707 0.0
H573 H 0.82981 0.85532 0.30794 0.0
H574 H 0.88734 0.9052 0.30737 0.0
H575 H 0.87653 0.04068 0.29778 0.0
H576 H 0.81241 0.07872 0.29216 0.0
H577 H 0.65979 0.08039 0.30247 0.0
H578 H 0.61358 0.04207 0.31455 0.0
H579 H 0.7591 0.04735 0.33871 0.0
H580 H 0.77512 0.93708 0.34358 0.0
H581 H 0.64132 0.93648 0.282 0.0
H582 H 0.76755 0.91918 0.27319 0.0
C583 C 0.04594 0.24193 0.54642 0.0
C584 C 0.01565 0.24428 0.53917 0.0
C585 C 0.98213 0.26016 0.54358 0.0
C586 C 0.99373 0.26676 0.55327 0.0
N587 N 0.03236 0.25595 0.55516 0.0
Co588 Co 0.06059 0.25914 0.56825 0.0
N589 N 0.00807 0.26494 0.5757 0.0
C590 C 0.97212 0.27523 0.57164 0.0
C591 C 0.94106 0.27774 0.57861 0.0
C592 C 0.95881 0.26884 0.58758 0.0
C593 C 0.99992 0.2614 0.58561 0.0
N594 N 0.08958 0.26148 0.58125 0.0
C595 C 0.07485 0.25737 0.59066 0.0
C596 C 0.10613 0.26207 0.59762 0.0
C597 C 0.14139 0.26954 0.59236 0.0
C598 C 0.12983 0.26907 0.58252 0.0
N599 N 0.11327 0.25398 0.56081 0.0
C600 C 0.15093 0.26269 0.56424 0.0
C601 C 0.18192 0.25513 0.5576 0.0
C602 C 0.16257 0.2408 0.5495 0.0
C603 C 0.12055 0.24069 0.5516 0.0
N604 N 0.06364 0.31058 0.56695 0.0
C605 C 0.05004 0.38316 0.56495 0.0
C606 C 0.04876 0.36675 0.57429 0.0
C607 C 0.05549 0.33084 0.57513 0.0
C608 C 0.06053 0.36249 0.55666 0.0
C609 C 0.06778 0.32646 0.55784 0.0
N610 N 0.05533 0.2084 0.56958 0.0
C611 C 0.08237 0.15117 0.57315 0.0
C612 C 0.04298 0.13639 0.57183 0.0
C613 C 0.01046 0.1583 0.56921 0.0
C614 C 0.01729 0.19383 0.56804 0.0
C615 C 0.08781 0.18744 0.57209 0.0
H616 H 0.99136 0.2095 0.56588 0.0
H617 H 0.11803 0.19856 0.57332 0.0
H618 H 0.05183 0.31931 0.5824 0.0
H619 H 0.07506 0.31122 0.55131 0.0
C620 C 0.96751 0.27651 0.56119 0.0
C621 C 0.08828 0.22887 0.54463 0.0
C622 C 0.03101 0.25316 0.59332 0.0
C623 C 0.15662 0.27047 0.57433 0.0
H624 H 0.01765 0.23552 0.53152 0.0
H625 H 0.95229 0.26486 0.54023 0.0
H626 H 0.90898 0.28408 0.5773 0.0
H627 H 0.94333 0.26808 0.59473 0.0
H628 H 0.10362 0.26099 0.60566 0.0
H629 H 0.17198 0.27392 0.59535 0.0
H630 H 0.21486 0.25769 0.55875 0.0
H631 H 0.17797 0.23111 0.54291 0.0
H632 H 0.04059 0.38123 0.58094 0.0
H633 H 0.06271 0.37395 0.54929 0.0
H634 H 0.10843 0.13498 0.57513 0.0
H635 H 0.97977 0.14795 0.56791 0.0
C636 C 0.83772 0.94003 0.44381 0.0
C637 C 0.85612 0.90823 0.44172 0.0
C638 C 0.82882 0.88278 0.44475 0.0
C639 C 0.79532 0.90033 0.44852 0.0
N640 N 0.79987 0.93516 0.44794 0.0
Co641 Co 0.75985 0.96982 0.45297 0.0
N642 N 0.71408 0.93534 0.45332 0.0
C643 C 0.71837 0.9005 0.45334 0.0
C644 C 0.68094 0.88345 0.45345 0.0
C645 C 0.65147 0.90928 0.45353 0.0
C646 C 0.67259 0.94075 0.45344 0.0
N647 N 0.71988 1.00445 0.45813 0.0
C648 C 0.67809 1.00408 0.45793 0.0
C649 C 0.66207 0.03382 0.46237 0.0
C650 C 0.69511 0.05328 0.46549 0.0
C651 C 0.72932 0.03449 0.46277 0.0
N652 N 0.80455 1.00508 0.4526 0.0
C653 C 0.80493 0.03556 0.45758 0.0
C654 C 0.83969 0.05501 0.45578 0.0
C655 C 0.86283 0.03539 0.44936 0.0
C656 C 0.84085 1.00474 0.44762 0.0
N657 N 0.74563 0.98138 0.43901 0.0
C658 C 0.74474 0.99321 0.41819 0.0
C659 C 0.7476 0.02116 0.42495 0.0
C660 C 0.74793 0.01469 0.43533 0.0
C661 C 0.73901 0.95978 0.42217 0.0
C662 C 0.73938 0.95449 0.43248 0.0
N663 N 0.77621 0.95649 0.46679 0.0
C664 C 0.83153 0.93893 0.47788 0.0
C665 C 0.80359 0.92485 0.48479 0.0
C666 C 0.76121 0.92851 0.48265 0.0
C667 C 0.74821 0.94485 0.47372 0.0
C668 C 0.81745 0.95419 0.46902 0.0
H669 H 0.71551 0.94686 0.47228 0.0
H670 H 0.84056 0.96253 0.46376 0.0
H671 H 0.75214 0.03638 0.44036 0.0
H672 H 0.73701 0.92806 0.4351 0.0
C673 C 0.75717 0.88556 0.45134 0.0
C674 C 0.85815 0.97414 0.44251 0.0
C675 C 0.65291 0.9753 0.45407 0.0
C676 C 0.76966 0.04736 0.46253 0.0
H677 H 0.88625 0.90393 0.43845 0.0
H678 H 0.83257 0.85487 0.44403 0.0
H679 H 0.67558 0.85563 0.45306 0.0
H680 H 0.61835 0.90547 0.45363 0.0
H681 H 0.62994 0.04088 0.46322 0.0
H682 H 0.69427 0.07891 0.46884 0.0
H683 H 0.84689 0.08078 0.45857 0.0
H684 H 0.893 0.04254 0.44653 0.0
H685 H 0.75167 0.04756 0.42226 0.0
H686 H 0.73552 0.93741 0.41732 0.0
H687 H 0.8645 0.93667 0.47906 0.0
H688 H 0.73821 0.91855 0.4878 0.0
C689 C 0.04519 0.28443 0.71566 0.0
C690 C 0.01404 0.29453 0.72214 0.0
C691 C 0.97904 0.29808 0.71656 0.0
C692 C 0.99058 0.28977 0.70701 0.0
N693 N 0.03048 0.2802 0.70618 0.0
Co694 Co 0.0594 0.26858 0.69333 0.0
N695 N 0.00687 0.26926 0.68541 0.0
C696 C 0.97002 0.28065 0.68873 0.0
C697 C 0.93935 0.27882 0.68171 0.0
C698 C 0.95797 0.26588 0.67333 0.0
C699 C 0.99915 0.26064 0.67571 0.0
N700 N 0.08868 0.2575 0.68052 0.0
C701 C 0.07395 0.24987 0.67127 0.0
C702 C 0.10599 0.24478 0.66451 0.0
C703 C 0.14188 0.2493 0.66964 0.0
C704 C 0.12992 0.25701 0.67918 0.0
N705 N 0.11217 0.26788 0.70125 0.0
C706 C 0.15046 0.26493 0.69738 0.0
C707 C 0.18131 0.26619 0.70432 0.0
C708 C 0.1617 0.27102 0.71321 0.0
C709 C 0.11964 0.2724 0.71119 0.0
N710 N 0.05087 0.21796 0.69583 0.0
C711 C 0.03295 0.1456 0.69684 0.0
C712 C 0.07303 0.15767 0.69469 0.0
C713 C 0.08126 0.19382 0.69417 0.0
C714 C 1.00282 0.17065 0.69894 0.0
C715 C 0.0124 0.20624 0.6985 0.0
N716 N 0.06606 0.3191 0.6907 0.0
C717 C 0.0691 0.37727 0.6975 0.0
C718 C 0.05258 0.39137 0.68872 0.0
C719 C 0.04689 0.36878 0.68062 0.0
C720 C 0.05424 0.33297 0.68173 0.0
C721 C 0.07611 0.34145 0.69826 0.0
H722 H 0.04827 0.31651 0.67542 0.0
H723 H 0.08757 0.33204 0.70521 0.0
H724 H 0.11196 0.20205 0.69216 0.0
H725 H 0.98788 0.22413 0.70005 0.0
C726 C 0.96475 0.29023 0.69869 0.0
C727 C 0.08899 0.28352 0.71867 0.0
C728 C 0.03034 0.25028 0.66829 0.0
C729 C 0.15651 0.2609 0.6872 0.0
H730 H 0.01681 0.30014 0.73002 0.0
H731 H 0.94894 0.3064 0.71913 0.0
H732 H 0.90718 0.28575 0.68259 0.0
H733 H 0.94312 0.2614 0.66622 0.0
H734 H 0.10386 0.23902 0.65664 0.0
H735 H 0.17301 0.24687 0.66678 0.0
H736 H 0.21427 0.26461 0.70305 0.0
H737 H 0.17716 0.27469 0.72026 0.0
H738 H 0.09752 0.13938 0.69305 0.0
H739 H 0.97162 0.16283 0.70085 0.0
H740 H 0.07461 0.39333 0.70399 0.0
H741 H 0.03581 0.37844 0.67352 0.0
C742 C 0.66973 0.5824 0.94316 0.0
C743 C 0.65211 0.61441 0.94094 0.0
C744 C 0.6795 0.63954 0.94408 0.0
C745 C 0.71227 0.6216 0.94805 0.0
N746 N 0.70721 0.58683 0.94749 0.0
Co747 Co 0.74602 0.55171 0.95282 0.0
N748 N 0.79222 0.58568 0.95346 0.0
C749 C 0.78844 0.62056 0.95347 0.0
C750 C 0.82611 0.63721 0.95378 0.0
C751 C 0.85517 0.61106 0.954 0.0
C752 C 0.83359 0.57983 0.95378 0.0
N753 N 0.78488 0.51663 0.95822 0.0
C754 C 0.82668 0.5165 0.9582 0.0
C755 C 0.8418 0.48651 0.96269 0.0
C756 C 0.80814 0.46742 0.96567 0.0
C757 C 0.7745 0.48665 0.96281 0.0
N758 N 0.70074 0.51705 0.95228 0.0
C759 C 0.69937 0.48657 0.95728 0.0
C760 C 0.6645 0.46751 0.95532 0.0
C761 C 0.64234 0.48738 0.94877 0.0
C762 C 0.66494 0.51781 0.94713 0.0
N763 N 0.7617 0.53994 0.93896 0.0
C764 C 0.7689 0.52778 0.91819 0.0
C765 C 0.76185 0.50017 0.92493 0.0
C766 C 0.75881 0.50673 0.93528 0.0
C767 C 0.77387 0.56121 0.92223 0.0
C768 C 0.77021 0.56666 0.9325 0.0
N769 N 0.72834 0.56519 0.96652 0.0
C770 C 0.67263 0.5859 0.97705 0.0
C771 C 0.70025 0.59714 0.98441 0.0
C772 C 0.74246 0.58997 0.98284 0.0
C773 C 0.75585 0.5741 0.97386 0.0
C774 C 0.68704 0.56995 0.96833 0.0
H775 H 0.78854 0.57023 0.9727 0.0
H776 H 0.66436 0.56292 0.96284 0.0
H777 H 0.75265 0.48516 0.94024 0.0
H778 H 0.77231 0.59309 0.93511 0.0
C779 C 0.7502 0.63593 0.95117 0.0
C780 C 0.64863 0.54858 0.9419 0.0
C781 C 0.85267 0.54505 0.95446 0.0
C782 C 0.73397 0.4743 0.96239 0.0
H783 H 0.62235 0.61906 0.93754 0.0
H784 H 0.67624 0.66749 0.94336 0.0
H785 H 0.83193 0.66497 0.95341 0.0
H786 H 0.88832 0.61451 0.95426 0.0
H787 H 0.87372 0.47903 0.96367 0.0
H788 H 0.80825 0.44172 0.96901 0.0
H789 H 0.65664 0.4418 0.95808 0.0
H790 H 0.61239 0.48054 0.94578 0.0
H791 H 0.75837 0.47373 0.92224 0.0
H792 H 0.77876 0.58363 0.91746 0.0
H793 H 0.63972 0.58984 0.97794 0.0
H794 H 0.76517 0.59782 0.98831 0.0
C795 C 0.45971 0.244 0.21515 0.0
C796 C 0.48969 0.24732 0.22245 0.0
C797 C 0.52289 0.26385 0.21805 0.0
C798 C 0.51143 0.26982 0.20831 0.0
N799 N 0.47317 0.25805 0.20638 0.0
Co800 Co 0.44531 0.25993 0.19322 0.0
N801 N 0.49796 0.26682 0.18585 0.0
C802 C 0.53343 0.27816 0.18996 0.0
C803 C 0.5645 0.28205 0.18305 0.0
C804 C 0.54727 0.27301 0.17404 0.0
C805 C 0.50646 0.26409 0.17594 0.0
N806 N 0.41666 0.26088 0.18013 0.0
C807 C 0.43185 0.25731 0.17074 0.0
C808 C 0.40051 0.26042 0.16373 0.0
C809 C 0.36478 0.26652 0.16891 0.0
C810 C 0.37611 0.2668 0.17876 0.0
N811 N 0.39254 0.25375 0.20058 0.0
C812 C 0.3547 0.2611 0.19704 0.0
C813 C 0.32376 0.25303 0.20367 0.0
C814 C 0.34331 0.23973 0.21188 0.0
C815 C 0.38538 0.2407 0.20985 0.0
N816 N 0.44084 0.31135 0.19426 0.0
C817 C 0.45724 0.38366 0.19603 0.0
C818 C 0.45666 0.36707 0.18671 0.0
C819 C 0.44861 0.33133 0.18599 0.0
C820 C 0.4455 0.36355 0.20437 0.0
C821 C 0.43705 0.32762 0.20331 0.0
N822 N 0.45207 0.20924 0.19216 0.0
C823 C 0.42673 0.15096 0.18914 0.0
C824 C 0.46598 0.13694 0.19117 0.0
C825 C 0.49785 0.16016 0.19352 0.0
C826 C 0.49028 0.19572 0.19403 0.0
C827 C 0.42041 0.18725 0.18967 0.0
H828 H 0.51579 0.21228 0.19599 0.0
H829 H 0.39008 0.19753 0.18814 0.0
H830 H 0.45131 0.31968 0.17873 0.0
H831 H 0.42977 0.31266 0.20992 0.0
C832 C 0.53763 0.27992 0.20042 0.0
C833 C 0.41775 0.22992 0.2169 0.0
C834 C 0.47594 0.25562 0.16813 0.0
C835 C 0.34906 0.26789 0.18689 0.0
H836 H 0.48768 0.23874 0.23013 0.0
H837 H 0.5525 0.26936 0.22143 0.0
H838 H 0.5962 0.28963 0.18441 0.0
H839 H 0.5628 0.27332 0.16688 0.0
H840 H 0.40328 0.25933 0.15569 0.0
H841 H 0.3341 0.26968 0.16586 0.0
H842 H 0.29079 0.2545 0.20244 0.0
H843 H 0.32805 0.22991 0.21849 0.0
H844 H 0.46375 0.38134 0.17994 0.0
H845 H 0.44482 0.37495 0.21175 0.0
H846 H 0.40101 0.13409 0.18729 0.0
H847 H 0.52896 0.15107 0.19488 0.0
H848 H 0.91007 0.9685 0.292 0.0
H849 H 0.10596 0.03249 0.32358 0.0
H850 H 0.89937 0.99543 0.32304 0.0
H851 H 0.09761 0.0431 0.29169 0.0
H852 H 0.03308 0.01368 0.32404 0.0
H853 H 0.98247 0.98792 0.2922 0.0
C854 C 0.92341 0.97768 0.29892 0.0
C855 C 0.899 0.97987 0.30755 0.0
C856 C 0.04705 0.02052 0.31696 0.0
C857 C 0.98162 1.00288 0.30783 0.0
C858 C 0.08846 0.03155 0.31671 0.0
C859 C 0.10763 0.03964 0.3076 0.0
C860 C 0.0249 0.01685 0.30799 0.0
C861 C 0.08382 0.03739 0.29888 0.0
C862 C 0.9645 0.98924 0.29901 0.0
C863 C 0.91741 0.99282 0.31627 0.0
N864 N 0.044 0.02582 0.29927 0.0
N865 N 0.95759 1.00378 0.3162 0.0
H866 H 0.01625 0.60407 0.5766 0.0
H867 H 1.00283 0.4158 0.55049 0.0
H868 H 0.93189 0.58237 0.55249 0.0
H869 H 0.07139 0.43752 0.57732 0.0
H870 H 0.98076 0.4771 0.55001 0.0
H871 H 0.03995 0.54409 0.57597 0.0
C872 C 1.00221 0.58672 0.57121 0.0
C873 C 0.97118 0.5987 0.56472 0.0
C874 C 1.00076 0.46845 0.55597 0.0
C875 C 0.99955 0.529 0.5638 0.0
C876 C 0.01369 0.43344 0.55622 0.0
C877 C 0.03901 0.42113 0.56399 0.0
C878 C 0.01346 0.49162 0.56351 0.0
C879 C 0.05151 0.44541 0.57125 0.0
C880 C 0.01618 0.55227 0.57081 0.0
C881 C 0.95577 0.57469 0.55767 0.0
N882 N 0.03868 0.47919 0.57082 0.0
N883 N 0.96996 0.5411 0.55743 0.0
H884 H 0.59842 0.55311 0.79235 0.0
H885 H 0.40297 0.48824 0.82413 0.0
H886 H 0.60971 0.52591 0.82337 0.0
H887 H 0.41231 0.47599 0.79231 0.0
H888 H 0.47565 0.50763 0.82453 0.0
H889 H 0.52622 0.53319 0.79267 0.0
C890 C 0.58524 0.5438 0.79929 0.0
C891 C 0.60979 0.54165 0.80788 0.0
C892 C 0.46195 0.50029 0.81748 0.0
C893 C 0.52738 0.51807 0.80829 0.0
C894 C 0.42065 0.48893 0.81727 0.0
C895 C 0.40181 0.48021 0.80819 0.0
C896 C 0.48428 0.5037 0.80851 0.0
C897 C 0.42585 0.48217 0.79947 0.0
C898 C 0.54426 0.53195 0.79945 0.0
C899 C 0.59156 0.5285 0.81663 0.0
N900 N 0.46552 0.49411 0.79982 0.0
N901 N 0.55148 0.51727 0.81663 0.0
H902 H 0.50067 0.10493 0.05019 0.0
H903 H 0.48656 0.91638 0.07626 0.0
H904 H 0.43094 0.08264 0.07689 0.0
H905 H 0.57051 0.93803 0.05197 0.0
H906 H 0.4628 0.97634 0.07562 0.0
H907 H 0.52248 0.04357 0.04964 0.0
C908 C 0.48948 0.08714 0.05587 0.0
C909 C 0.46395 0.09928 0.06363 0.0
C910 C 0.48648 0.96815 0.07042 0.0
C911 C 0.4892 0.02878 0.06307 0.0
C912 C 0.50047 0.93373 0.07083 0.0
C913 C 0.5314 0.92177 0.06428 0.0
C914 C 0.50304 0.99141 0.06336 0.0
C915 C 0.5467 0.94573 0.05718 0.0
C916 C 0.50227 0.05211 0.05559 0.0
C917 C 0.45101 0.07485 0.07083 0.0
N918 N 0.53254 0.97932 0.05694 0.0
N919 N 0.46373 0.04106 0.07038 0.0
H920 H 0.10624 0.4894 0.93809 0.0
H921 H 0.90833 0.54916 0.96972 0.0
H922 H 0.09651 0.47651 0.9699 0.0
H923 H 0.9001 0.52646 0.93837 0.0
H924 H 0.98065 0.52987 0.96958 0.0
H925 H 0.03335 0.50775 0.93762 0.0
C926 C 0.08842 0.48972 0.94494 0.0
C927 C 0.1072 0.48106 0.95403 0.0
C928 C 0.96324 0.52941 0.9627 0.0
C929 C 0.0244 0.50335 0.95363 0.0
C930 C 0.92217 0.54086 0.96276 0.0
C931 C 0.89846 0.53982 0.95402 0.0
C932 C 0.98106 0.51703 0.9538 0.0
C933 C 0.91756 0.5281 0.94523 0.0
C934 C 0.04699 0.50049 0.94468 0.0
C935 C 0.08301 0.48259 0.96272 0.0
N936 N 0.9577 0.51722 0.94533 0.0
N937 N 0.04316 0.4939 0.96233 0.0
H938 H 0.43151 0.43606 0.20902 0.0
H939 H 0.5769 0.58257 0.18406 0.0
H940 H 0.5181 0.41671 0.18516 0.0
H941 H 0.50388 0.60259 0.21035 0.0
H942 H 0.55469 0.52176 0.1845 0.0
H943 H 0.45654 0.49658 0.20985 0.0
C944 C 0.45578 0.4443 0.20397 0.0
C945 C 0.47208 0.42088 0.19691 0.0
C946 C 0.54358 0.53928 0.19023 0.0
C947 C 0.50085 0.49063 0.1978 0.0
C948 C 0.55624 0.5742 0.18996 0.0
C949 C 0.54221 0.59808 0.19715 0.0
C950 C 0.51623 0.52767 0.1977 0.0
C951 C 0.51582 0.58523 0.20468 0.0
C952 C 0.46999 0.47901 0.20444 0.0
C953 C 0.50348 0.43361 0.19056 0.0
N954 N 0.50345 0.55109 0.20472 0.0
N955 N 0.51654 0.46732 0.19114 0.0
H956 H 0.40024 0.03346 0.4378 0.0
H957 H 0.59618 0.96832 0.46907 0.0
H958 H 0.40936 0.04337 0.46969 0.0
H959 H 0.60657 0.99616 0.43807 0.0
H960 H 0.52395 0.98786 0.46897 0.0
H961 H 0.47294 0.01454 0.43723 0.0
C962 C 0.41788 0.03235 0.44465 0.0
C963 C 0.39897 0.04028 0.45379 0.0
C964 C 0.54181 0.98934 0.46215 0.0
C965 C 0.4815 0.01734 0.45327 0.0
C966 C 0.58281 0.97771 0.46218 0.0
C967 C 0.60709 0.98012 0.45352 0.0
C968 C 0.52466 1.00328 0.45337 0.0
C969 C 0.58863 0.99337 0.44484 0.0
C970 C 0.45919 0.02125 0.44434 0.0
C971 C 0.42295 0.0378 0.46248 0.0
N972 N 0.54854 1.00438 0.44497 0.0
N973 N 0.46266 0.02616 0.46202 0.0
H974 H 0.96561 0.1152 0.68803 0.0
H975 H 0.0035 0.92188 0.70898 0.0
H976 H 0.07389 0.08895 0.70506 0.0
H977 H 0.92382 0.94431 0.68409 0.0
H978 H 0.0246 0.98359 0.70931 0.0
H979 H 0.94532 0.05371 0.68804 0.0
C980 C 0.98514 0.09652 0.69181 0.0
C981 C 0.02155 0.10754 0.69658 0.0
C982 C 1.00242 0.975 0.70379 0.0
C983 C 0.99808 0.03647 0.69668 0.0
C984 C 0.99005 0.9398 0.70366 0.0
C985 C 0.96171 0.92768 0.6965 0.0
C986 C 0.98586 0.99861 0.69683 0.0
C987 C 0.94586 0.95223 0.68971 0.0
C988 C 0.97356 0.06129 0.69178 0.0
C989 C 0.04572 0.08179 0.70124 0.0
N990 N 0.95793 0.98632 0.69008 0.0
N991 N 0.03342 0.04761 0.70125 0.0
H992 H 0.58478 0.95743 0.30645 0.0
H993 H 0.3943 0.0244 0.33634 0.0
H994 H 0.61134 0.9979 0.33569 0.0
H995 H 0.42208 0.06077 0.30666 0.0
H996 H 0.46603 1.0032 0.33786 0.0
H997 H 0.51396 0.97922 0.30792 0.0
C998 C 0.57504 0.96957 0.31335 0.0
C999 C 0.60348 0.97557 0.32102 0.0
C1000 C 0.45652 0.01666 0.33114 0.0
C1001 C 0.52329 1.00114 0.32265 0.0
C1002 C 0.41602 0.02913 0.33033 0.0
C1003 C 0.40281 0.0448 0.32143 0.0
C1004 C 0.48296 0.01892 0.32287 0.0
C1005 C 0.43149 0.04937 0.31369 0.0
C1006 C 0.53505 0.98253 0.31411 0.0
C1007 C 0.58988 0.99239 0.32972 0.0
N1008 N 0.46995 0.03575 0.3145 0.0
N1009 N 0.55055 1.00484 0.33031 0.0
H1010 H 0.01383 0.91995 0.55667 0.0
H1011 H 0.98254 0.10455 0.5828 0.0
H1012 H 0.93701 0.9326 0.58275 0.0
H1013 H 0.08363 0.08208 0.56289 0.0
H1014 H 0.96254 0.0429 0.58245 0.0
H1015 H 0.03542 0.98057 0.55806 0.0
C1016 C 1.0015 0.93542 0.56273 0.0
C1017 C 0.97397 0.92075 0.56971 0.0
C1018 C 0.98934 0.05134 0.57824 0.0
C1019 C 0.99838 0.99088 0.57124 0.0
C1020 C 1.00083 0.08647 0.57845 0.0
C1021 C 0.03482 0.0984 0.57286 0.0
C1022 C 0.01158 0.02794 0.57227 0.0
C1023 C 0.05745 0.07393 0.56736 0.0
C1024 C 0.01391 0.97014 0.5635 0.0
C1025 C 0.95817 0.94266 0.57718 0.0
N1026 N 0.04515 0.03995 0.56711 0.0
N1027 N 0.97066 0.97659 0.57777 0.0
H1028 H 0.11397 0.49584 0.83632 0.0
H1029 H 0.92494 0.56305 0.80613 0.0
H1030 H 0.08685 0.45851 0.80677 0.0
H1031 H 0.89693 0.52295 0.8354 0.0
H1032 H 0.99553 0.5408 0.80772 0.0
H1033 H 0.04229 0.51731 0.83772 0.0
C1034 C 0.0924 0.49096 0.83031 0.0
C1035 C 0.10579 0.47493 0.82148 0.0
C1036 C 0.97417 0.53768 0.81389 0.0
C1037 C 0.0257 0.50112 0.82277 0.0
C1038 C 0.93432 0.5509 0.81306 0.0
C1039 C 0.90554 0.54515 0.8207 0.0
C1040 C 0.98546 0.51908 0.82247 0.0
C1041 C 0.91866 0.52828 0.82944 0.0
C1042 C 0.05192 0.50358 0.83106 0.0
C1043 C 0.0773 0.47018 0.81375 0.0
N1044 N 0.95787 0.51561 0.8301 0.0
N1045 N 0.03887 0.48396 0.81448 0.0
H1046 H 0.49146 0.60068 0.05699 0.0
H1047 H 0.52645 0.41522 0.08247 0.0
H1048 H 0.57069 0.58756 0.08256 0.0
H1049 H 0.42337 0.43815 0.06329 0.0
H1050 H 0.54631 0.47691 0.08208 0.0
H1051 H 0.4708 0.53981 0.05832 0.0
C1052 C 0.50454 0.58503 0.06292 0.0
C1053 C 0.53243 0.59964 0.06979 0.0
C1054 C 0.51913 0.46854 0.07803 0.0
C1055 C 0.50906 0.52924 0.07125 0.0
C1056 C 0.50774 0.43338 0.07826 0.0
C1057 C 0.47319 0.42157 0.07289 0.0
C1058 C 0.49622 0.49208 0.07226 0.0
C1059 C 0.45 0.44618 0.06759 0.0
C1060 C 0.49264 0.55018 0.06366 0.0
C1061 C 0.54919 0.57754 0.07709 0.0
N1062 N 0.46218 0.48018 0.06732 0.0
N1063 N 0.53717 0.54347 0.07765 0.0
H1064 H 0.42193 0.46051 0.95503 0.0
H1065 H 0.612 0.52605 0.92464 0.0
H1066 H 0.39456 0.4999 0.92569 0.0
H1067 H 0.58511 0.56414 0.95413 0.0
H1068 H 0.53998 0.50511 0.92328 0.0
H1069 H 0.49275 0.48252 0.95336 0.0
C1070 C 0.43148 0.47247 0.94807 0.0
C1071 C 0.40283 0.47808 0.94043 0.0
C1072 C 0.54975 0.51891 0.92991 0.0
C1073 C 0.48302 0.5039 0.93857 0.0
C1074 C 0.59042 0.53124 0.93063 0.0
C1075 C 0.60399 0.54728 0.93944 0.0
C1076 C 0.52346 0.5217 0.9382 0.0
C1077 C 0.57546 0.55244 0.94717 0.0
C1078 C 0.47147 0.48556 0.94719 0.0
C1079 C 0.41619 0.49468 0.93165 0.0
N1080 N 0.53681 0.53893 0.94647 0.0
N1081 N 0.45553 0.50724 0.93094 0.0
H1082 H 0.58735 0.93722 0.19808 0.0
H1083 H 0.43589 0.08708 0.17815 0.0
H1084 H 0.48249 0.91552 0.17931 0.0
H1085 H 0.51655 0.09917 0.20351 0.0
H1086 H 0.4564 0.02561 0.17708 0.0
H1087 H 0.56774 0.99898 0.19829 0.0
C1088 C 0.56062 0.94556 0.19387 0.0
C1089 C 0.53645 0.92121 0.1887 0.0
C1090 C 0.46955 0.04183 0.18287 0.0
C1091 C 0.51349 0.9917 0.18898 0.0
C1092 C 0.45758 0.07687 0.18354 0.0
C1093 C 0.47481 0.09869 0.19085 0.0
C1094 C 0.49916 0.02852 0.18952 0.0
C1095 C 0.50314 0.08382 0.19758 0.0
C1096 C 0.54915 0.98072 0.19407 0.0
C1097 C 0.50178 0.93343 0.18346 0.0
N1098 N 0.51458 0.04991 0.1967 0.0
N1099 N 0.49131 0.96774 0.18374 0.0
H1100 H 0.92111 0.95775 0.45476 0.0
H1101 H 0.11269 0.02541 0.42517 0.0
H1102 H 0.89554 0.99846 0.42547 0.0
H1103 H 0.0843 0.06125 0.45482 0.0
H1104 H 0.04092 1.00409 0.42353 0.0
H1105 H 0.99208 0.97963 0.45339 0.0
C1106 C 0.9311 0.96996 0.44787 0.0
C1107 C 0.90289 0.97601 0.44016 0.0
C1108 C 0.05031 0.01746 0.43027 0.0
C1109 C 0.98325 1.00169 0.43865 0.0
C1110 C 0.09084 0.03 0.43115 0.0
C1111 C 0.10388 0.04556 0.44007 0.0
C1112 C 0.02367 0.01954 0.4385 0.0
C1113 C 0.07503 0.04995 0.44777 0.0
C1114 C 0.97117 0.98297 0.44717 0.0
C1115 C 0.91681 0.99292 0.43148 0.0
N1116 N 0.03653 0.03626 0.4469 0.0
N1117 N 0.95622 1.00542 0.43095 0.0
H1118 H 0.08906 0.44825 0.69767 0.0
H1119 H 0.93191 0.59202 0.67744 0.0
H1120 H 0.98608 0.42038 0.67885 0.0
H1121 H 0.00722 0.60453 0.70371 0.0
H1122 H 0.95355 0.53059 0.67655 0.0
H1123 H 0.06352 0.50781 0.69831 0.0
C1124 C 0.06102 0.45449 0.69367 0.0
C1125 C 0.03959 0.4288 0.68829 0.0
C1126 C 0.96512 0.54688 0.68251 0.0
C1127 C 0.01031 0.49773 0.68888 0.0
C1128 C 0.95256 0.58186 0.68307 0.0
C1129 C 0.96827 0.60378 0.69056 0.0
C1130 C 0.99378 0.53389 0.68945 0.0
C1131 C 0.99512 0.58906 0.69764 0.0
C1132 C 0.04647 0.48867 0.69403 0.0
C1133 C 0.00399 0.43916 0.68304 0.0
N1134 N 0.00726 0.55534 0.69684 0.0
N1135 N 0.99045 0.47277 0.68347 0.0
H1136 H 0.28671 0.98173 0.3546 0.0
H1137 H 0.21462 0.06904 0.4061 0.0
H1138 H 0.19157 0.05972 0.35712 0.0
H1139 H 0.2941 0.97912 0.40546 0.0
H1140 H 0.20711 0.06539 0.38806 0.0
H1141 H 0.29033 0.979 0.37291 0.0
C1142 C 0.26619 0.99796 0.35895 0.0
C1143 C 0.23906 0.02129 0.35419 0.0
C1144 C 0.22616 0.0463 0.39181 0.0
C1145 C 0.24359 0.01862 0.37526 0.0
C1146 C 0.23068 0.04849 0.40216 0.0
C1147 C 0.25545 0.0246 0.40737 0.0
C1148 C 0.24673 0.0201 0.38644 0.0
C1149 C 0.27469 0.99812 0.40179 0.0
C1150 C 0.2685 0.99652 0.36944 0.0
C1151 C 0.21365 0.04186 0.36034 0.0
N1152 N 0.27025 0.99677 0.39164 0.0
N1153 N 0.21676 0.04019 0.37046 0.0
H1154 H 0.97559 0.82123 0.60538 0.0
H1155 H 0.98073 0.70523 0.65513 0.0
H1156 H 0.99405 0.71022 0.60502 0.0
H1157 H 0.9857 0.81729 0.65546 0.0
H1158 H 0.9884 0.70631 0.63687 0.0
H1159 H 0.98202 0.82067 0.62365 0.0
C1160 C 0.98203 0.79687 0.60915 0.0
C1161 C 0.98514 0.76585 0.60367 0.0
C1162 C 0.9885 0.7307 0.64092 0.0
C1163 C 0.99118 0.76466 0.62465 0.0
C1164 C 0.98437 0.73002 0.65135 0.0
C1165 C 0.9833 0.76117 0.65681 0.0
C1166 C 0.99081 0.76284 0.63586 0.0
C1167 C 0.98709 0.79268 0.65153 0.0
C1168 C 0.98542 0.79646 0.61959 0.0
C1169 C 0.9923 0.7348 0.60896 0.0
N1170 N 0.99032 0.79273 0.64138 0.0
N1171 N 0.99473 0.73494 0.61912 0.0
H1172 H 0.22039 0.53939 0.85473 0.0
H1173 H 0.29327 0.4541 0.90644 0.0
H1174 H 0.31691 0.46274 0.85746 0.0
H1175 H 0.21223 0.54299 0.90561 0.0
H1176 H 0.3011 0.45762 0.8884 0.0
H1177 H 0.21655 0.54262 0.87305 0.0
C1178 C 0.24117 0.52358 0.85913 0.0
C1179 C 0.26874 0.50045 0.85443 0.0
C1180 C 0.28165 0.47653 0.8921 0.0
C1181 C 0.26398 0.50367 0.8755 0.0
C1182 C 0.27696 0.4744 0.90245 0.0
C1183 C 0.25164 0.49803 0.90762 0.0
C1184 C 0.2607 0.50237 0.88668 0.0
C1185 C 0.23206 0.5242 0.90198 0.0
C1186 C 0.23873 0.52529 0.86962 0.0
C1187 C 0.2945 0.48042 0.86064 0.0
N1188 N 0.23666 0.52547 0.89182 0.0
N1189 N 0.29126 0.48233 0.87075 0.0
H1190 H 0.50475 0.81312 0.10389 0.0
H1191 H 0.53069 0.82114 0.15558 0.0
H1192 H 0.53818 0.7052 0.10707 0.0
H1193 H 0.5138 0.70991 0.15553 0.0
H1194 H 0.52465 0.82156 0.13739 0.0
H1195 H 0.4972 0.81742 0.12203 0.0
C1196 C 0.50989 0.79017 0.10843 0.0
C1197 C 0.52158 0.75864 0.10396 0.0
C1198 C 0.5209 0.79707 0.14129 0.0
C1199 C 0.51508 0.76364 0.1249 0.0
C1200 C 0.5244 0.79692 0.15172 0.0
C1201 C 0.5217 0.7656 0.15708 0.0
C1202 C 0.51513 0.76547 0.1361 0.0
C1203 C 0.51507 0.73472 0.15168 0.0
C1204 C 0.50633 0.79274 0.11884 0.0
C1205 C 0.52867 0.72988 0.11022 0.0
N1206 N 0.5124 0.73539 0.14152 0.0
N1207 N 0.52538 0.73307 0.12033 0.0
H1208 H 0.71312 0.47841 0.85544 0.0
H1209 H 0.81924 0.56009 0.90443 0.0
H1210 H 0.79455 0.56748 0.85546 0.0
H1211 H 0.72075 0.48443 0.90632 0.0
H1212 H 0.81553 0.55743 0.8863 0.0
H1213 H 0.72023 0.47472 0.87374 0.0
C1214 C 0.73269 0.49701 0.85926 0.0
C1215 C 0.75287 0.52355 0.85385 0.0
C1216 C 0.79473 0.54125 0.89064 0.0
C1217 C 0.76135 0.51937 0.87482 0.0
C1218 C 0.79675 0.54282 0.90106 0.0
C1219 C 0.76988 0.52283 0.90704 0.0
C1220 C 0.76572 0.51939 0.88599 0.0
C1221 C 0.74223 0.50029 0.90209 0.0
C1222 C 0.73658 0.495 0.86972 0.0
C1223 C 0.77776 0.54694 0.85926 0.0
N1224 N 0.74067 0.49935 0.89189 0.0
N1225 N 0.78122 0.5443 0.86935 0.0
H1226 H 0.47845 0.20021 0.1553 0.0
H1227 H 0.48352 0.31923 0.10613 0.0
H1228 H 0.49587 0.31137 0.15621 0.0
H1229 H 0.49017 0.2073 0.10524 0.0
H1230 H 0.49081 0.31714 0.12439 0.0
H1231 H 0.48539 0.20194 0.13703 0.0
C1232 C 0.48475 0.22487 0.15164 0.0
C1233 C 0.48742 0.25558 0.15727 0.0
C1234 C 0.49139 0.29301 0.12021 0.0
C1235 C 0.49406 0.25811 0.13631 0.0
C1236 C 0.48749 0.29427 0.10978 0.0
C1237 C 0.487 0.26345 0.10417 0.0
C1238 C 0.49402 0.2606 0.12512 0.0
C1239 C 0.49115 0.23168 0.10929 0.0
C1240 C 0.48844 0.22594 0.14121 0.0
C1241 C 0.49444 0.28703 0.15215 0.0
N1242 N 0.49412 0.23105 0.11945 0.0
N1243 N 0.49717 0.28753 0.14198 0.0
H1244 H 0.81653 0.96006 0.35657 0.0
H1245 H 0.71143 0.04325 0.40551 0.0
H1246 H 0.72036 0.03732 0.35463 0.0
H1247 H 0.79099 0.95334 0.40552 0.0
H1248 H 0.71902 0.04682 0.3872 0.0
H1249 H 0.81252 0.96282 0.37469 0.0
C1250 C 0.7945 0.97771 0.35993 0.0
C1251 C 0.76835 0.99812 0.35394 0.0
C1252 C 0.73484 0.02639 0.39124 0.0
C1253 C 0.76382 1.00166 0.37499 0.0
C1254 C 0.73068 0.02443 0.4017 0.0
C1255 C 0.75019 0.99769 0.40711 0.0
C1256 C 0.75921 1.00174 0.38615 0.0
C1257 C 0.77469 0.97403 0.40171 0.0
C1258 C 0.79231 0.97933 0.37034 0.0
C1259 C 0.74127 0.02112 0.35887 0.0
N1260 N 0.77842 0.97662 0.39162 0.0
N1261 N 0.73951 0.02209 0.36907 0.0
H1262 H 0.0071 0.30424 0.65612 0.0
H1263 H 0.03859 0.1961 0.60541 0.0
H1264 H 0.03273 0.19425 0.65552 0.0
H1265 H 1.00188 0.30378 0.60599 0.0
H1266 H 0.03204 0.19379 0.62367 0.0
H1267 H 1.0003 0.3038 0.63786 0.0
C1268 C 0.01046 0.27984 0.65214 0.0
C1269 C 0.02012 0.24917 0.65735 0.0
C1270 C 0.02469 0.21781 0.61982 0.0
C1271 C 0.01337 0.2485 0.63637 0.0
C1272 C 0.02815 0.21902 0.60939 0.0
C1273 C 0.01992 0.24995 0.60416 0.0
C1274 C 0.01353 0.24796 0.62515 0.0
C1275 C 0.00763 0.2792 0.60971 0.0
C1276 C 0.00685 0.27961 0.6417 0.0
C1277 C 0.02493 0.2184 0.6518 0.0
N1278 N 0.00508 0.27757 0.61987 0.0
N1279 N 0.02184 0.21889 0.64164 0.0
H1280 H 0.36881 0.07529 0.2638 0.0
H1281 H 0.37441 0.25523 0.23301 0.0
H1282 H 0.2803 0.15742 0.26837 0.0
H1283 H 0.43328 0.16199 0.22235 0.0
H1284 H 0.34666 0.22223 0.24728 0.0
H1285 H 0.39834 0.10825 0.24978 0.0
C1286 C 0.35543 0.10022 0.26186 0.0
C1287 C 0.32175 0.11339 0.26734 0.0
C1288 C 0.36582 0.20895 0.24187 0.0
C1289 C 0.35622 0.15184 0.25125 0.0
C1290 C 0.38194 0.22786 0.23376 0.0
C1291 C 0.406 0.21132 0.22642 0.0
C1292 C 0.37431 0.17314 0.24283 0.0
C1293 C 0.41488 0.1758 0.22781 0.0
C1294 C 0.37237 0.11905 0.25382 0.0
C1295 C 0.30585 0.1459 0.26435 0.0
N1296 N 0.39906 0.15794 0.23581 0.0
N1297 N 0.32336 0.16402 0.25662 0.0
H1298 H 0.77604 0.86237 0.49273 0.0
H1299 H 0.93463 0.85679 0.53882 0.0
H1300 H 0.86777 0.94223 0.49745 0.0
H1301 H 0.8712 0.76577 0.52797 0.0
H1302 H 0.90779 0.89019 0.52452 0.0
H1303 H 0.80573 0.82897 0.50662 0.0
C1304 C 0.80209 0.87315 0.49674 0.0
C1305 C 0.81924 0.90536 0.49383 0.0
C1306 C 0.89991 0.86286 0.52522 0.0
C1307 C 0.8538 0.86686 0.50985 0.0
C1308 C 0.91548 0.84373 0.53336 0.0
C1309 C 0.90498 0.80847 0.53465 0.0
C1310 C 0.87311 0.84678 0.51833 0.0
C1311 C 0.87985 0.79296 0.52733 0.0
C1312 C 0.81935 0.85384 0.50463 0.0
C1313 C 0.85352 0.91751 0.49931 0.0
N1314 N 0.86443 0.8122 0.5196 0.0
N1315 N 0.86943 0.89846 0.50703 0.0
H1316 H 0.07825 0.35304 0.72298 0.0
H1317 H 0.23252 0.35801 0.76982 0.0
H1318 H 0.13314 0.26007 0.73507 0.0
H1319 H 0.14393 0.43908 0.764 0.0
H1320 H 0.20292 0.32392 0.75601 0.0
H1321 H 0.10676 0.38658 0.73696 0.0
C1322 C 0.09606 0.33959 0.72861 0.0
C1323 C 0.10339 0.30358 0.72777 0.0
C1324 C 0.19003 0.34921 0.75774 0.0
C1325 C 0.13721 0.34225 0.7438 0.0
C1326 C 0.20721 0.36889 0.76558 0.0
C1327 C 0.19086 0.40165 0.76814 0.0
C1328 C 0.15656 0.36248 0.75224 0.0
C1329 C 0.15753 0.41397 0.76239 0.0
C1330 C 0.11253 0.35883 0.73659 0.0
C1331 C 0.12693 0.28776 0.73534 0.0
N1332 N 0.14176 0.3946 0.75474 0.0
N1333 N 0.1433 0.30715 0.74294 0.0
H1334 H 0.7218 0.59045 1.00438 0.0
H1335 H 0.57778 0.74671 0.02396 0.0
H1336 H 0.64222 0.64941 0.98496 0.0
H1337 H 0.6253 0.6674 0.04354 0.0
H1338 H 0.60496 0.71424 1.00961 0.0
H1339 H 0.69238 0.62164 1.01877 0.0
C1340 C 0.69839 0.61006 1.00311 0.0
C1341 C 0.68444 0.61696 0.99337 0.0
C1342 C 0.60898 0.70363 1.01703 0.0
C1343 C 0.6505 0.65309 1.00992 0.0
C1344 C 0.59283 0.72196 0.02524 0.0
C1345 C 0.59783 0.70923 0.03501 0.0
C1346 C 0.63145 0.67265 1.01853 0.0
C1347 C 0.61994 0.6779 0.03615 0.0
C1348 C 0.68134 0.62772 1.01136 0.0
C1349 C 0.65371 0.64269 0.99229 0.0
N1350 N 0.63601 0.66088 0.02808 0.0
N1351 N 0.63805 0.65975 1.00039 0.0
H1352 H 0.37373 0.26705 0.02866 0.0
H1353 H 0.36733 0.44741 0.99808 0.0
H1354 H 0.43212 0.36063 0.03936 0.0
H1355 H 0.27949 0.36449 0.9934 0.0
H1356 H 0.39686 0.41451 1.01206 0.0
H1357 H 0.34582 0.30001 1.01445 0.0
C1358 C 0.3811 0.2945 0.02794 0.0
C1359 C 0.40508 0.31114 0.03527 0.0
C1360 C 0.37102 0.40353 1.00801 0.0
C1361 C 0.37321 0.34927 1.01893 0.0
C1362 C 0.35409 0.42232 1.0 0.0
C1363 C 0.3206 0.40891 0.9945 0.0
C1364 C 0.35508 0.37054 1.01054 0.0
C1365 C 0.30488 0.3762 0.99744 0.0
C1366 C 0.36489 0.31339 1.01986 0.0
C1367 C 0.41378 0.34675 0.03391 0.0
N1368 N 0.32239 0.35812 1.00515 0.0
N1369 N 0.39788 0.36458 0.02595 0.0
H1370 H 0.72957 0.86296 0.26819 0.0
H1371 H 0.57195 0.85873 0.2219 0.0
H1372 H 0.63818 0.94279 0.26358 0.0
H1373 H 0.63396 0.76726 0.23279 0.0
H1374 H 0.59881 0.89176 0.23628 0.0
H1375 H 0.69993 0.83 0.25421 0.0
C1376 C 0.7036 0.87382 0.26418 0.0
C1377 C 0.68653 0.90589 0.26715 0.0
C1378 C 0.6064 0.86441 0.23557 0.0
C1379 C 0.65205 0.86791 0.25102 0.0
C1380 C 0.59083 0.84551 0.22738 0.0
C1381 C 0.60095 0.81023 0.22608 0.0
C1382 C 0.63279 0.84809 0.24249 0.0
C1383 C 0.62567 0.79448 0.23344 0.0
C1384 C 0.68638 0.85477 0.25624 0.0
C1385 C 0.65235 0.91816 0.26167 0.0
N1386 N 0.6411 0.81351 0.2412 0.0
N1387 N 0.63649 0.89937 0.2539 0.0
H1388 H 0.13848 0.07461 0.49786 0.0
H1389 H 0.13103 0.25463 0.52843 0.0
H1390 H 0.22626 0.15768 0.49318 0.0
H1391 H 0.07379 0.16061 0.53931 0.0
H1392 H 0.1591 0.22188 0.5142 0.0
H1393 H 0.1088 0.10726 0.51187 0.0
C1394 C 0.15167 0.09968 0.49979 0.0
C1395 C 0.1852 0.1132 0.49428 0.0
C1396 C 0.14024 0.20836 0.51965 0.0
C1397 C 0.15052 0.1513 0.51035 0.0
C1398 C 0.12395 0.22713 0.52775 0.0
C1399 C 0.10027 0.21031 0.53514 0.0
C1400 C 0.13228 0.17243 0.51876 0.0
C1401 C 0.0919 0.17463 0.53381 0.0
C1402 C 0.13465 0.11833 0.50782 0.0
C1403 C 0.20084 0.14589 0.49723 0.0
N1404 N 0.10786 0.15693 0.52583 0.0
N1405 N 0.18323 0.16383 0.50496 0.0
H1406 H 0.87021 0.75907 0.73257 0.0
H1407 H 0.86839 0.57845 0.76311 0.0
H1408 H 0.93061 0.66678 0.72173 0.0
H1409 H 0.77932 0.65983 0.76811 0.0
H1410 H 0.89684 0.61194 0.74906 0.0
H1411 H 0.84331 0.72549 0.74682 0.0
C1412 C 0.87818 0.73177 0.73325 0.0
C1413 C 0.90242 0.71568 0.72587 0.0
C1414 C 0.87098 0.62247 0.7532 0.0
C1415 C 0.87178 0.67684 0.74229 0.0
C1416 C 0.85467 0.60333 0.76126 0.0
C1417 C 0.82114 0.61611 0.76687 0.0
C1418 C 0.85436 0.65519 0.75073 0.0
C1419 C 0.80477 0.64858 0.76399 0.0
C1420 C 0.86258 0.71253 0.74137 0.0
C1421 C 0.912 0.68026 0.72722 0.0
N1422 N 0.82167 0.667 0.75623 0.0
N1423 N 0.89668 0.66208 0.73522 0.0
loop_
_geom_bond_atom_site_label_1
_geom_bond_atom_site_label_2
_geom_bond_distance
_geom_bond_site_symmetry_2
_ccdc_geom_bond_type
C0 C1 1.443 . S
C0 N4 1.376 . S
C0 C38 1.389 . S
C1 C0 1.443 . S
C1 C2 1.340 . S
C1 H41 0.951 . S
C2 C1 1.340 . S
C2 C3 1.439 . S
C2 H42 0.950 . S
C3 C2 1.439 . S
C3 N4 1.374 . S
C3 C37 1.395 . S
N4 C0 1.376 . S
N4 C3 1.374 . S
N4 Co5 2.008 . S
Co5 N4 2.008 . S
Co5 N6 1.995 . S
Co5 N11 2.008 . S
Co5 N16 1.995 . S
Co5 N21 2.282 . S
Co5 N27 2.282 . S
N6 Co5 1.995 . S
N6 C7 1.376 . S
N6 C10 1.383 . S
C7 N6 1.376 . S
C7 C8 1.446 . S
C7 C37 1.391 . S
C8 C7 1.446 . S
C8 C9 1.339 . S
C8 H43 0.949 . S
C9 C8 1.339 . S
C9 C10 1.439 . S
C9 H44 0.950 . S
C10 N6 1.383 . S
C10 C9 1.439 . S
C10 C39 1.392 . S
N11 Co5 2.008 . S
N11 C12 1.376 . S
N11 C15 1.374 1_545 S
C12 N11 1.376 . S
C12 C13 1.443 1_545 S
C12 C39 1.389 . S
C13 C12 1.443 1_565 S
C13 C14 1.340 . S
C13 H45 0.951 . S
C14 C13 1.340 . S
C14 C15 1.439 . S
C14 H46 0.950 . S
C15 N11 1.374 1_565 S
C15 C14 1.439 . S
C15 C40 1.395 . S
N16 Co5 1.995 . S
N16 C17 1.376 1_545 S
N16 C20 1.383 . S
C17 N16 1.376 1_565 S
C17 C18 1.446 . S
C17 C40 1.391 . S
C18 C17 1.446 . S
C18 C19 1.339 . S
C18 H47 0.949 . S
C19 C18 1.339 . S
C19 C20 1.439 1_565 S
C19 H48 0.950 . S
C20 N16 1.383 . S
C20 C19 1.439 1_545 S
C20 C38 1.392 . S
N21 Co5 2.282 . S
N21 C24 1.332 . S
N21 C26 1.332 . S
C22 C23 1.386 . S
C22 C25 1.388 . S
C23 C22 1.386 . S
C23 C24 1.382 . S
C23 H49 0.950 1_545 S
C24 N21 1.332 . S
C24 C23 1.382 . S
C24 H35 0.952 1_545 S
C25 C22 1.388 . S
C25 C26 1.382 . S
C25 H50 0.950 . S
C26 N21 1.332 . S
C26 C25 1.382 . S
C26 H36 0.948 . S
N27 Co5 2.282 . S
N27 C31 1.332 . S
N27 C32 1.332 . S
C28 C29 1.388 . S
C28 C32 1.382 . S
C28 H51 0.950 . S
C29 C28 1.388 . S
C29 C30 1.386 . S
C30 C29 1.386 . S
C30 C31 1.382 . S
C30 H52 0.950 . S
C31 N27 1.332 . S
C31 C30 1.382 . S
C31 H33 0.952 . S
C32 N27 1.332 . S
C32 C28 1.382 . S
C32 H34 0.948 . S
H33 C31 0.952 . S
H34 C32 0.948 . S
H35 C24 0.952 1_565 S
H36 C26 0.948 . S
C37 C3 1.395 . S
C37 C7 1.391 . S
C38 C0 1.389 . S
C38 C20 1.392 . S
C39 C10 1.392 . S
C39 C12 1.389 . S
C40 C15 1.395 . S
C40 C17 1.391 . S
H41 C1 0.951 . S
H42 C2 0.950 . S
H43 C8 0.949 . S
H44 C9 0.950 . S
H45 C13 0.951 . S
H46 C14 0.950 . S
H47 C18 0.949 . S
H48 C19 0.950 . S
H49 C23 0.950 1_565 S
H50 C25 0.950 . S
H51 C28 0.950 . S
H52 C30 0.950 . S
C53 C54 1.443 1_655 S
C53 N57 1.376 . S
C53 C91 1.389 . S
C54 C53 1.443 1_455 S
C54 C55 1.340 . S
C54 H94 0.951 . S
C55 C54 1.340 . S
C55 C56 1.439 . S
C55 H95 0.950 . S
C56 C55 1.439 . S
C56 N57 1.374 1_455 S
C56 C90 1.395 . S
N57 C53 1.376 . S
N57 C56 1.374 1_655 S
N57 Co58 2.008 . S
Co58 N57 2.008 . S
Co58 N59 1.995 1_655 S
Co58 N64 2.008 . S
Co58 N69 1.995 . S
Co58 N74 2.282 . S
Co58 N80 2.282 . S
N59 Co58 1.995 1_455 S
N59 C60 1.376 . S
N59 C63 1.383 . S
C60 N59 1.376 . S
C60 C61 1.446 . S
C60 C90 1.391 . S
C61 C60 1.446 . S
C61 C62 1.339 . S
C61 H96 0.949 . S
C62 C61 1.339 . S
C62 C63 1.439 . S
C62 H97 0.950 . S
C63 N59 1.383 . S
C63 C62 1.439 . S
C63 C92 1.392 1_455 S
N64 Co58 2.008 . S
N64 C65 1.376 . S
N64 C68 1.374 . S
C65 N64 1.376 . S
C65 C66 1.443 . S
C65 C92 1.389 . S
C66 C65 1.443 . S
C66 C67 1.340 . S
C66 H98 0.951 . S
C67 C66 1.340 . S
C67 C68 1.439 . S
C67 H99 0.950 . S
C68 N64 1.374 . S
C68 C67 1.439 . S
C68 C93 1.395 . S
N69 Co58 1.995 . S
N69 C70 1.376 . S
N69 C73 1.383 . S
C70 N69 1.376 . S
C70 C71 1.446 . S
C70 C93 1.391 . S
C71 C70 1.446 . S
C71 C72 1.339 . S
C71 H100 0.949 . S
C72 C71 1.339 . S
C72 C73 1.439 . S
C72 H101 0.950 . S
C73 N69 1.383 . S
C73 C72 1.439 . S
C73 C91 1.392 . S
N74 Co58 2.282 . S
N74 C77 1.332 . S
N74 C79 1.332 . S
C75 C76 1.386 . S
C75 C78 1.388 . S
C76 C75 1.386 . S
C76 C77 1.382 . S
C76 H102 0.950 . S
C77 N74 1.332 . S
C77 C76 1.382 . S
C77 H88 0.952 . S
C78 C75 1.388 . S
C78 C79 1.382 . S
C78 H103 0.950 1_655 S
C79 N74 1.332 . S
C79 C78 1.382 . S
C79 H89 0.948 1_655 S
N80 Co58 2.282 . S
N80 C84 1.332 . S
N80 C85 1.332 . S
C81 C82 1.388 . S
C81 C85 1.382 . S
C81 H104 0.950 . S
C82 C81 1.388 . S
C82 C83 1.386 . S
C83 C82 1.386 . S
C83 C84 1.382 . S
C83 H105 0.950 1_655 S
C84 N80 1.332 . S
C84 C83 1.382 . S
C84 H86 0.952 1_655 S
C85 N80 1.332 . S
C85 C81 1.382 . S
C85 H87 0.948 . S
H86 C84 0.952 1_455 S
H87 C85 0.948 . S
H88 C77 0.952 . S
H89 C79 0.948 1_455 S
C90 C56 1.395 . S
C90 C60 1.391 . S
C91 C53 1.389 . S
C91 C73 1.392 . S
C92 C63 1.392 1_655 S
C92 C65 1.389 . S
C93 C68 1.395 . S
C93 C70 1.391 . S
H94 C54 0.951 . S
H95 C55 0.950 . S
H96 C61 0.949 . S
H97 C62 0.950 . S
H98 C66 0.951 . S
H99 C67 0.950 . S
H100 C71 0.949 . S
H101 C72 0.950 . S
H102 C76 0.950 . S
H103 C78 0.950 1_455 S
H104 C81 0.950 . S
H105 C83 0.950 1_455 S
C106 C107 1.443 . S
C106 N110 1.376 . S
C106 C144 1.389 . S
C107 C106 1.443 . S
C107 C108 1.340 . S
C107 H147 0.951 . S
C108 C107 1.340 . S
C108 C109 1.439 . S
C108 H148 0.950 . S
C109 C108 1.439 . S
C109 N110 1.374 . S
C109 C143 1.395 . S
N110 C106 1.376 . S
N110 C109 1.374 . S
N110 Co111 2.008 . S
Co111 N110 2.008 . S
Co111 N112 1.995 . S
Co111 N117 2.008 . S
Co111 N122 1.995 . S
Co111 N127 2.282 . S
Co111 N133 2.282 . S
N112 Co111 1.995 . S
N112 C113 1.376 . S
N112 C116 1.383 . S
C113 N112 1.376 . S
C113 C114 1.446 . S
C113 C143 1.391 . S
C114 C113 1.446 . S
C114 C115 1.339 . S
C114 H149 0.949 . S
C115 C114 1.339 . S
C115 C116 1.439 . S
C115 H150 0.950 . S
C116 N112 1.383 . S
C116 C115 1.439 . S
C116 C145 1.392 . S
N117 Co111 2.008 . S
N117 C118 1.376 . S
N117 C121 1.374 . S
C118 N117 1.376 . S
C118 C119 1.443 . S
C118 C145 1.389 . S
C119 C118 1.443 . S
C119 C120 1.340 . S
C119 H151 0.951 . S
C120 C119 1.340 . S
C120 C121 1.439 . S
C120 H152 0.950 . S
C121 N117 1.374 . S
C121 C120 1.439 . S
C121 C146 1.395 . S
N122 Co111 1.995 . S
N122 C123 1.376 . S
N122 C126 1.383 . S
C123 N122 1.376 . S
C123 C124 1.446 . S
C123 C146 1.391 . S
C124 C123 1.446 . S
C124 C125 1.339 . S
C124 H153 0.949 . S
C125 C124 1.339 . S
C125 C126 1.439 . S
C125 H154 0.950 . S
C126 N122 1.383 . S
C126 C125 1.439 . S
C126 C144 1.392 . S
N127 Co111 2.282 . S
N127 C130 1.332 . S
N127 C132 1.332 . S
C128 C129 1.386 . S
C128 C131 1.388 . S
C129 C128 1.386 . S
C129 C130 1.382 . S
C129 H155 0.950 . S
C130 N127 1.332 . S
C130 C129 1.382 . S
C130 H141 0.952 . S
C131 C128 1.388 . S
C131 C132 1.382 . S
C131 H156 0.950 . S
C132 N127 1.332 . S
C132 C131 1.382 . S
C132 H142 0.948 . S
N133 Co111 2.282 . S
N133 C137 1.332 . S
N133 C138 1.332 . S
C134 C135 1.388 . S
C134 C138 1.382 . S
C134 H157 0.950 . S
C135 C134 1.388 . S
C135 C136 1.386 . S
C136 C135 1.386 . S
C136 C137 1.382 . S
C136 H158 0.950 . S
C137 N133 1.332 . S
C137 C136 1.382 . S
C137 H139 0.952 . S
C138 N133 1.332 . S
C138 C134 1.382 . S
C138 H140 0.948 . S
H139 C137 0.952 . S
H140 C138 0.948 . S
H141 C130 0.952 . S
H142 C132 0.948 . S
C143 C109 1.395 . S
C143 C113 1.391 . S
C144 C106 1.389 . S
C144 C126 1.392 . S
C145 C116 1.392 . S
C145 C118 1.389 . S
C146 C121 1.395 . S
C146 C123 1.391 . S
H147 C107 0.951 . S
H148 C108 0.950 . S
H149 C114 0.949 . S
H150 C115 0.950 . S
H151 C119 0.951 . S
H152 C120 0.950 . S
H153 C124 0.949 . S
H154 C125 0.950 . S
H155 C129 0.950 . S
H156 C131 0.950 . S
H157 C134 0.950 . S
H158 C136 0.950 . S
C159 C160 1.443 . S
C159 N163 1.376 . S
C159 C197 1.389 . S
C160 C159 1.443 . S
C160 C161 1.340 . S
C160 H200 0.951 . S
C161 C160 1.340 . S
C161 C162 1.439 . S
C161 H201 0.950 . S
C162 C161 1.439 . S
C162 N163 1.374 . S
C162 C196 1.395 . S
N163 C159 1.376 . S
N163 C162 1.374 . S
N163 Co164 2.008 . S
Co164 N163 2.008 . S
Co164 N165 1.995 . S
Co164 N170 2.008 . S
Co164 N175 1.995 . S
Co164 N180 2.282 . S
Co164 N186 2.282 . S
N165 Co164 1.995 . S
N165 C166 1.376 . S
N165 C169 1.383 . S
C166 N165 1.376 . S
C166 C167 1.446 . S
C166 C196 1.391 . S
C167 C166 1.446 . S
C167 C168 1.339 . S
C167 H202 0.949 . S
C168 C167 1.339 . S
C168 C169 1.439 . S
C168 H203 0.950 . S
C169 N165 1.383 . S
C169 C168 1.439 . S
C169 C198 1.392 . S
N170 Co164 2.008 . S
N170 C171 1.376 . S
N170 C174 1.374 . S
C171 N170 1.376 . S
C171 C172 1.443 . S
C171 C198 1.389 . S
C172 C171 1.443 . S
C172 C173 1.340 . S
C172 H204 0.951 . S
C173 C172 1.340 . S
C173 C174 1.439 . S
C173 H205 0.950 . S
C174 N170 1.374 . S
C174 C173 1.439 . S
C174 C199 1.395 . S
N175 Co164 1.995 . S
N175 C176 1.376 . S
N175 C179 1.383 . S
C176 N175 1.376 . S
C176 C177 1.446 . S
C176 C199 1.391 . S
C177 C176 1.446 . S
C177 C178 1.339 . S
C177 H206 0.949 . S
C178 C177 1.339 . S
C178 C179 1.439 . S
C178 H207 0.950 . S
C179 N175 1.383 . S
C179 C178 1.439 . S
C179 C197 1.392 . S
N180 Co164 2.282 . S
N180 C183 1.332 . S
N180 C185 1.332 . S
C181 C182 1.386 . S
C181 C184 1.388 . S
C182 C181 1.386 . S
C182 C183 1.382 . S
C182 H208 0.950 . S
C183 N180 1.332 . S
C183 C182 1.382 . S
C183 H194 0.952 . S
C184 C181 1.388 . S
C184 C185 1.382 . S
C184 H209 0.950 . S
C185 N180 1.332 . S
C185 C184 1.382 . S
C185 H195 0.948 . S
N186 Co164 2.282 . S
N186 C190 1.332 . S
N186 C191 1.332 . S
C187 C188 1.388 . S
C187 C191 1.382 . S
C187 H210 0.950 . S
C188 C187 1.388 . S
C188 C189 1.386 . S
C189 C188 1.386 . S
C189 C190 1.382 . S
C189 H211 0.950 . S
C190 N186 1.332 . S
C190 C189 1.382 . S
C190 H192 0.952 . S
C191 N186 1.332 . S
C191 C187 1.382 . S
C191 H193 0.948 . S
H192 C190 0.952 . S
H193 C191 0.948 . S
H194 C183 0.952 . S
H195 C185 0.948 . S
C196 C162 1.395 . S
C196 C166 1.391 . S
C197 C159 1.389 . S
C197 C179 1.392 . S
C198 C169 1.392 . S
C198 C171 1.389 . S
C199 C174 1.395 . S
C199 C176 1.391 . S
H200 C160 0.951 . S
H201 C161 0.950 . S
H202 C167 0.949 . S
H203 C168 0.950 . S
H204 C172 0.951 . S
H205 C173 0.950 . S
H206 C177 0.949 . S
H207 C178 0.950 . S
H208 C182 0.950 . S
H209 C184 0.950 . S
H210 C187 0.950 . S
H211 C189 0.950 . S
C212 C213 1.443 . S
C212 N216 1.376 . S
C212 C250 1.389 . S
C213 C212 1.443 . S
C213 C214 1.340 . S
C213 H253 0.951 . S
C214 C213 1.340 . S
C214 C215 1.439 . S
C214 H254 0.950 . S
C215 C214 1.439 . S
C215 N216 1.374 . S
C215 C249 1.395 . S
N216 C212 1.376 . S
N216 C215 1.374 . S
N216 Co217 2.008 . S
Co217 N216 2.008 . S
Co217 N218 1.995 . S
Co217 N223 2.008 . S
Co217 N228 1.995 . S
Co217 N233 2.282 . S
Co217 N239 2.282 . S
N218 Co217 1.995 . S
N218 C219 1.376 . S
N218 C222 1.383 . S
C219 N218 1.376 . S
C219 C220 1.446 . S
C219 C249 1.391 . S
C220 C219 1.446 . S
C220 C221 1.339 . S
C220 H255 0.949 . S
C221 C220 1.339 . S
C221 C222 1.439 . S
C221 H256 0.950 . S
C222 N218 1.383 . S
C222 C221 1.439 . S
C222 C251 1.392 . S
N223 Co217 2.008 . S
N223 C224 1.376 . S
N223 C227 1.374 . S
C224 N223 1.376 . S
C224 C225 1.443 . S
C224 C251 1.389 . S
C225 C224 1.443 . S
C225 C226 1.340 . S
C225 H257 0.951 . S
C226 C225 1.340 . S
C226 C227 1.439 . S
C226 H258 0.950 . S
C227 N223 1.374 . S
C227 C226 1.439 . S
C227 C252 1.395 . S
N228 Co217 1.995 . S
N228 C229 1.376 . S
N228 C232 1.383 . S
C229 N228 1.376 . S
C229 C230 1.446 . S
C229 C252 1.391 . S
C230 C229 1.446 . S
C230 C231 1.339 . S
C230 H259 0.949 . S
C231 C230 1.339 . S
C231 C232 1.439 . S
C231 H260 0.950 . S
C232 N228 1.383 . S
C232 C231 1.439 . S
C232 C250 1.392 . S
N233 Co217 2.282 . S
N233 C236 1.332 . S
N233 C238 1.332 . S
C234 C235 1.386 . S
C234 C237 1.388 . S
C235 C234 1.386 . S
C235 C236 1.382 . S
C235 H261 0.950 . S
C236 N233 1.332 . S
C236 C235 1.382 . S
C236 H247 0.952 . S
C237 C234 1.388 . S
C237 C238 1.382 . S
C237 H262 0.950 . S
C238 N233 1.332 . S
C238 C237 1.382 . S
C238 H248 0.948 . S
N239 Co217 2.282 . S
N239 C243 1.332 . S
N239 C244 1.332 . S
C240 C241 1.388 . S
C240 C244 1.382 . S
C240 H263 0.950 . S
C241 C240 1.388 . S
C241 C242 1.386 . S
C242 C241 1.386 . S
C242 C243 1.382 . S
C242 H264 0.950 . S
C243 N239 1.332 . S
C243 C242 1.382 . S
C243 H245 0.952 . S
C244 N239 1.332 . S
C244 C240 1.382 . S
C244 H246 0.948 . S
H245 C243 0.952 . S
H246 C244 0.948 . S
H247 C236 0.952 . S
H248 C238 0.948 . S
C249 C215 1.395 . S
C249 C219 1.391 . S
C250 C212 1.389 . S
C250 C232 1.392 . S
C251 C222 1.392 . S
C251 C224 1.389 . S
C252 C227 1.395 . S
C252 C229 1.391 . S
H253 C213 0.951 . S
H254 C214 0.950 . S
H255 C220 0.949 . S
H256 C221 0.950 . S
H257 C225 0.951 . S
H258 C226 0.950 . S
H259 C230 0.949 . S
H260 C231 0.950 . S
H261 C235 0.950 . S
H262 C237 0.950 . S
H263 C240 0.950 . S
H264 C242 0.950 . S
C265 C266 1.443 . S
C265 N269 1.376 . S
C265 C303 1.389 . S
C266 C265 1.443 . S
C266 C267 1.340 . S
C266 H306 0.951 . S
C267 C266 1.340 . S
C267 C268 1.439 . S
C267 H307 0.950 . S
C268 C267 1.439 . S
C268 N269 1.374 . S
C268 C302 1.395 . S
N269 C265 1.376 . S
N269 C268 1.374 . S
N269 Co270 2.008 . S
Co270 N269 2.008 . S
Co270 N271 1.995 . S
Co270 N276 2.008 . S
Co270 N281 1.995 . S
Co270 N286 2.282 . S
Co270 N292 2.282 . S
N271 Co270 1.995 . S
N271 C272 1.376 . S
N271 C275 1.383 . S
C272 N271 1.376 . S
C272 C273 1.446 . S
C272 C302 1.391 . S
C273 C272 1.446 . S
C273 C274 1.339 . S
C273 H308 0.949 . S
C274 C273 1.339 . S
C274 C275 1.439 . S
C274 H309 0.950 . S
C275 N271 1.383 . S
C275 C274 1.439 . S
C275 C304 1.392 . S
N276 Co270 2.008 . S
N276 C277 1.376 . S
N276 C280 1.374 . S
C277 N276 1.376 . S
C277 C278 1.443 . S
C277 C304 1.389 . S
C278 C277 1.443 . S
C278 C279 1.340 . S
C278 H310 0.951 . S
C279 C278 1.340 . S
C279 C280 1.439 . S
C279 H311 0.950 . S
C280 N276 1.374 . S
C280 C279 1.439 . S
C280 C305 1.395 . S
N281 Co270 1.995 . S
N281 C282 1.376 . S
N281 C285 1.383 . S
C282 N281 1.376 . S
C282 C283 1.446 . S
C282 C305 1.391 . S
C283 C282 1.446 . S
C283 C284 1.339 . S
C283 H312 0.949 . S
C284 C283 1.339 . S
C284 C285 1.439 . S
C284 H313 0.950 . S
C285 N281 1.383 . S
C285 C284 1.439 . S
C285 C303 1.392 . S
N286 Co270 2.282 . S
N286 C289 1.332 . S
N286 C291 1.332 . S
C287 C288 1.386 . S
C287 C290 1.388 . S
C288 C287 1.386 . S
C288 C289 1.382 . S
C288 H314 0.950 . S
C289 N286 1.332 . S
C289 C288 1.382 . S
C289 H300 0.952 . S
C290 C287 1.388 . S
C290 C291 1.382 . S
C290 H315 0.950 . S
C291 N286 1.332 . S
C291 C290 1.382 . S
C291 H301 0.948 . S
N292 Co270 2.282 . S
N292 C296 1.332 . S
N292 C297 1.332 . S
C293 C294 1.388 . S
C293 C297 1.382 . S
C293 H316 0.950 . S
C294 C293 1.388 . S
C294 C295 1.386 . S
C295 C294 1.386 . S
C295 C296 1.382 . S
C295 H317 0.950 . S
C296 N292 1.332 . S
C296 C295 1.382 . S
C296 H298 0.952 . S
C297 N292 1.332 . S
C297 C293 1.382 . S
C297 H299 0.948 . S
H298 C296 0.952 . S
H299 C297 0.948 . S
H300 C289 0.952 . S
H301 C291 0.948 . S
C302 C268 1.395 . S
C302 C272 1.391 . S
C303 C265 1.389 . S
C303 C285 1.392 . S
C304 C275 1.392 . S
C304 C277 1.389 . S
C305 C280 1.395 . S
C305 C282 1.391 . S
H306 C266 0.951 . S
H307 C267 0.950 . S
H308 C273 0.949 . S
H309 C274 0.950 . S
H310 C278 0.951 . S
H311 C279 0.950 . S
H312 C283 0.949 . S
H313 C284 0.950 . S
H314 C288 0.950 . S
H315 C290 0.950 . S
H316 C293 0.950 . S
H317 C295 0.950 . S
C318 C319 1.443 . S
C318 N322 1.376 . S
C318 C356 1.389 . S
C319 C318 1.443 . S
C319 C320 1.340 . S
C319 H359 0.951 . S
C320 C319 1.340 . S
C320 C321 1.439 . S
C320 H360 0.950 . S
C321 C320 1.439 . S
C321 N322 1.374 . S
C321 C355 1.395 . S
N322 C318 1.376 . S
N322 C321 1.374 . S
N322 Co323 2.008 . S
Co323 N322 2.008 . S
Co323 N324 1.995 . S
Co323 N329 2.008 . S
Co323 N334 1.995 . S
Co323 N339 2.282 . S
Co323 N345 2.282 . S
N324 Co323 1.995 . S
N324 C325 1.376 . S
N324 C328 1.383 . S
C325 N324 1.376 . S
C325 C326 1.446 . S
C325 C355 1.391 . S
C326 C325 1.446 . S
C326 C327 1.339 . S
C326 H361 0.949 . S
C327 C326 1.339 . S
C327 C328 1.439 . S
C327 H362 0.950 . S
C328 N324 1.383 . S
C328 C327 1.439 . S
C328 C357 1.392 . S
N329 Co323 2.008 . S
N329 C330 1.376 . S
N329 C333 1.374 1_545 S
C330 N329 1.376 . S
C330 C331 1.443 1_545 S
C330 C357 1.389 . S
C331 C330 1.443 1_565 S
C331 C332 1.340 . S
C331 H363 0.951 . S
C332 C331 1.340 . S
C332 C333 1.439 . S
C332 H364 0.950 . S
C333 N329 1.374 1_565 S
C333 C332 1.439 . S
C333 C358 1.395 . S
N334 Co323 1.995 . S
N334 C335 1.376 1_545 S
N334 C338 1.383 . S
C335 N334 1.376 1_565 S
C335 C336 1.446 . S
C335 C358 1.391 . S
C336 C335 1.446 . S
C336 C337 1.339 . S
C336 H365 0.949 . S
C337 C336 1.339 . S
C337 C338 1.439 1_565 S
C337 H366 0.950 . S
C338 N334 1.383 . S
C338 C337 1.439 1_545 S
C338 C356 1.392 . S
N339 Co323 2.282 . S
N339 C342 1.332 . S
N339 C344 1.332 . S
C340 C341 1.386 . S
C340 C343 1.388 . S
C341 C340 1.386 . S
C341 C342 1.382 . S
C341 H367 0.950 1_545 S
C342 N339 1.332 . S
C342 C341 1.382 . S
C342 H353 0.952 1_545 S
C343 C340 1.388 . S
C343 C344 1.382 . S
C343 H368 0.950 . S
C344 N339 1.332 . S
C344 C343 1.382 . S
C344 H354 0.948 . S
N345 Co323 2.282 . S
N345 C349 1.332 . S
N345 C350 1.332 . S
C346 C347 1.388 . S
C346 C350 1.382 . S
C346 H369 0.950 . S
C347 C346 1.388 . S
C347 C348 1.386 . S
C348 C347 1.386 . S
C348 C349 1.382 . S
C348 H370 0.950 . S
C349 N345 1.332 . S
C349 C348 1.382 . S
C349 H351 0.952 . S
C350 N345 1.332 . S
C350 C346 1.382 . S
C350 H352 0.948 . S
H351 C349 0.952 . S
H352 C350 0.948 . S
H353 C342 0.952 1_565 S
H354 C344 0.948 . S
C355 C321 1.395 . S
C355 C325 1.391 . S
C356 C318 1.389 . S
C356 C338 1.392 . S
C357 C328 1.392 . S
C357 C330 1.389 . S
C358 C333 1.395 . S
C358 C335 1.391 . S
H359 C319 0.951 . S
H360 C320 0.950 . S
H361 C326 0.949 . S
H362 C327 0.950 . S
H363 C331 0.951 . S
H364 C332 0.950 . S
H365 C336 0.949 . S
H366 C337 0.950 . S
H367 C341 0.950 1_565 S
H368 C343 0.950 . S
H369 C346 0.950 . S
H370 C348 0.950 . S
C371 C372 1.443 1_655 S
C371 N375 1.376 . S
C371 C409 1.389 . S
C372 C371 1.443 1_455 S
C372 C373 1.340 . S
C372 H412 0.951 . S
C373 C372 1.340 . S
C373 C374 1.439 . S
C373 H413 0.950 . S
C374 C373 1.439 . S
C374 N375 1.374 1_455 S
C374 C408 1.395 . S
N375 C371 1.376 . S
N375 C374 1.374 1_655 S
N375 Co376 2.008 . S
Co376 N375 2.008 . S
Co376 N377 1.995 1_655 S
Co376 N382 2.008 . S
Co376 N387 1.995 . S
Co376 N392 2.282 . S
Co376 N398 2.282 . S
N377 Co376 1.995 1_455 S
N377 C378 1.376 . S
N377 C381 1.383 . S
C378 N377 1.376 . S
C378 C379 1.446 . S
C378 C408 1.391 . S
C379 C378 1.446 . S
C379 C380 1.339 . S
C379 H414 0.949 . S
C380 C379 1.339 . S
C380 C381 1.439 . S
C380 H415 0.950 . S
C381 N377 1.383 . S
C381 C380 1.439 . S
C381 C410 1.392 1_455 S
N382 Co376 2.008 . S
N382 C383 1.376 . S
N382 C386 1.374 . S
C383 N382 1.376 . S
C383 C384 1.443 . S
C383 C410 1.389 . S
C384 C383 1.443 . S
C384 C385 1.340 . S
C384 H416 0.951 . S
C385 C384 1.340 . S
C385 C386 1.439 . S
C385 H417 0.950 . S
C386 N382 1.374 . S
C386 C385 1.439 . S
C386 C411 1.395 . S
N387 Co376 1.995 . S
N387 C388 1.376 . S
N387 C391 1.383 . S
C388 N387 1.376 . S
C388 C389 1.446 . S
C388 C411 1.391 . S
C389 C388 1.446 . S
C389 C390 1.339 . S
C389 H418 0.949 . S
C390 C389 1.339 . S
C390 C391 1.439 . S
C390 H419 0.950 . S
C391 N387 1.383 . S
C391 C390 1.439 . S
C391 C409 1.392 . S
N392 Co376 2.282 . S
N392 C395 1.332 . S
N392 C397 1.332 . S
C393 C394 1.386 . S
C393 C396 1.388 . S
C394 C393 1.386 . S
C394 C395 1.382 . S
C394 H420 0.950 . S
C395 N392 1.332 . S
C395 C394 1.382 . S
C395 H406 0.952 . S
C396 C393 1.388 . S
C396 C397 1.382 . S
C396 H421 0.950 1_655 S
C397 N392 1.332 . S
C397 C396 1.382 . S
C397 H407 0.948 1_655 S
N398 Co376 2.282 . S
N398 C402 1.332 . S
N398 C403 1.332 . S
C399 C400 1.388 . S
C399 C403 1.382 . S
C399 H422 0.950 . S
C400 C399 1.388 . S
C400 C401 1.386 . S
C401 C400 1.386 . S
C401 C402 1.382 . S
C401 H423 0.950 1_655 S
C402 N398 1.332 . S
C402 C401 1.382 . S
C402 H404 0.952 1_655 S
C403 N398 1.332 . S
C403 C399 1.382 . S
C403 H405 0.948 . S
H404 C402 0.952 1_455 S
H405 C403 0.948 . S
H406 C395 0.952 . S
H407 C397 0.948 1_455 S
C408 C374 1.395 . S
C408 C378 1.391 . S
C409 C371 1.389 . S
C409 C391 1.392 . S
C410 C381 1.392 1_655 S
C410 C383 1.389 . S
C411 C386 1.395 . S
C411 C388 1.391 . S
H412 C372 0.951 . S
H413 C373 0.950 . S
H414 C379 0.949 . S
H415 C380 0.950 . S
H416 C384 0.951 . S
H417 C385 0.950 . S
H418 C389 0.949 . S
H419 C390 0.950 . S
H420 C394 0.950 . S
H421 C396 0.950 1_455 S
H422 C399 0.950 . S
H423 C401 0.950 1_455 S
C424 C425 1.443 . S
C424 N428 1.376 . S
C424 C462 1.389 . S
C425 C424 1.443 . S
C425 C426 1.340 . S
C425 H465 0.951 . S
C426 C425 1.340 . S
C426 C427 1.439 . S
C426 H466 0.950 . S
C427 C426 1.439 . S
C427 N428 1.374 . S
C427 C461 1.395 . S
N428 C424 1.376 . S
N428 C427 1.374 . S
N428 Co429 2.008 . S
Co429 N428 2.008 . S
Co429 N430 1.995 . S
Co429 N435 2.008 . S
Co429 N440 1.995 . S
Co429 N445 2.282 . S
Co429 N451 2.282 . S
N430 Co429 1.995 . S
N430 C431 1.376 . S
N430 C434 1.383 . S
C431 N430 1.376 . S
C431 C432 1.446 . S
C431 C461 1.391 . S
C432 C431 1.446 . S
C432 C433 1.339 . S
C432 H467 0.949 . S
C433 C432 1.339 . S
C433 C434 1.439 . S
C433 H468 0.950 . S
C434 N430 1.383 . S
C434 C433 1.439 . S
C434 C463 1.392 . S
N435 Co429 2.008 . S
N435 C436 1.376 . S
N435 C439 1.374 . S
C436 N435 1.376 . S
C436 C437 1.443 . S
C436 C463 1.389 . S
C437 C436 1.443 . S
C437 C438 1.340 . S
C437 H469 0.951 . S
C438 C437 1.340 . S
C438 C439 1.439 . S
C438 H470 0.950 . S
C439 N435 1.374 . S
C439 C438 1.439 . S
C439 C464 1.395 . S
N440 Co429 1.995 . S
N440 C441 1.376 . S
N440 C444 1.383 . S
C441 N440 1.376 . S
C441 C442 1.446 . S
C441 C464 1.391 . S
C442 C441 1.446 . S
C442 C443 1.339 . S
C442 H471 0.949 . S
C443 C442 1.339 . S
C443 C444 1.439 . S
C443 H472 0.950 . S
C444 N440 1.383 . S
C444 C443 1.439 . S
C444 C462 1.392 . S
N445 Co429 2.282 . S
N445 C448 1.332 . S
N445 C450 1.332 . S
C446 C447 1.386 . S
C446 C449 1.388 . S
C447 C446 1.386 . S
C447 C448 1.382 . S
C447 H473 0.950 . S
C448 N445 1.332 . S
C448 C447 1.382 . S
C448 H459 0.952 . S
C449 C446 1.388 . S
C449 C450 1.382 . S
C449 H474 0.950 . S
C450 N445 1.332 . S
C450 C449 1.382 . S
C450 H460 0.948 . S
N451 Co429 2.282 . S
N451 C455 1.332 . S
N451 C456 1.332 . S
C452 C453 1.388 . S
C452 C456 1.382 . S
C452 H475 0.950 . S
C453 C452 1.388 . S
C453 C454 1.386 . S
C454 C453 1.386 . S
C454 C455 1.382 . S
C454 H476 0.950 . S
C455 N451 1.332 . S
C455 C454 1.382 . S
C455 H457 0.952 . S
C456 N451 1.332 . S
C456 C452 1.382 . S
C456 H458 0.948 . S
H457 C455 0.952 . S
H458 C456 0.948 . S
H459 C448 0.952 . S
H460 C450 0.948 . S
C461 C427 1.395 . S
C461 C431 1.391 . S
C462 C424 1.389 . S
C462 C444 1.392 . S
C463 C434 1.392 . S
C463 C436 1.389 . S
C464 C439 1.395 . S
C464 C441 1.391 . S
H465 C425 0.951 . S
H466 C426 0.950 . S
H467 C432 0.949 . S
H468 C433 0.950 . S
H469 C437 0.951 . S
H470 C438 0.950 . S
H471 C442 0.949 . S
H472 C443 0.950 . S
H473 C447 0.950 . S
H474 C449 0.950 . S
H475 C452 0.950 . S
H476 C454 0.950 . S
C477 C478 1.443 . S
C477 N481 1.376 . S
C477 C515 1.389 . S
C478 C477 1.443 . S
C478 C479 1.340 . S
C478 H518 0.951 . S
C479 C478 1.340 . S
C479 C480 1.439 . S
C479 H519 0.950 . S
C480 C479 1.439 . S
C480 N481 1.374 . S
C480 C514 1.395 . S
N481 C477 1.376 . S
N481 C480 1.374 . S
N481 Co482 2.008 . S
Co482 N481 2.008 . S
Co482 N483 1.995 . S
Co482 N488 2.008 . S
Co482 N493 1.995 . S
Co482 N498 2.282 . S
Co482 N504 2.282 . S
N483 Co482 1.995 . S
N483 C484 1.376 . S
N483 C487 1.383 . S
C484 N483 1.376 . S
C484 C485 1.446 . S
C484 C514 1.391 . S
C485 C484 1.446 . S
C485 C486 1.339 . S
C485 H520 0.949 . S
C486 C485 1.339 . S
C486 C487 1.439 . S
C486 H521 0.950 . S
C487 N483 1.383 . S
C487 C486 1.439 . S
C487 C516 1.392 . S
N488 Co482 2.008 . S
N488 C489 1.376 . S
N488 C492 1.374 . S
C489 N488 1.376 . S
C489 C490 1.443 . S
C489 C516 1.389 . S
C490 C489 1.443 . S
C490 C491 1.340 . S
C490 H522 0.951 . S
C491 C490 1.340 . S
C491 C492 1.439 . S
C491 H523 0.950 . S
C492 N488 1.374 . S
C492 C491 1.439 . S
C492 C517 1.395 . S
N493 Co482 1.995 . S
N493 C494 1.376 . S
N493 C497 1.383 . S
C494 N493 1.376 . S
C494 C495 1.446 . S
C494 C517 1.391 . S
C495 C494 1.446 . S
C495 C496 1.339 . S
C495 H524 0.949 . S
C496 C495 1.339 . S
C496 C497 1.439 . S
C496 H525 0.950 . S
C497 N493 1.383 . S
C497 C496 1.439 . S
C497 C515 1.392 . S
N498 Co482 2.282 . S
N498 C501 1.332 . S
N498 C503 1.332 . S
C499 C500 1.386 . S
C499 C502 1.388 . S
C500 C499 1.386 . S
C500 C501 1.382 . S
C500 H526 0.950 . S
C501 N498 1.332 . S
C501 C500 1.382 . S
C501 H512 0.952 . S
C502 C499 1.388 . S
C502 C503 1.382 . S
C502 H527 0.950 . S
C503 N498 1.332 . S
C503 C502 1.382 . S
C503 H513 0.948 . S
N504 Co482 2.282 . S
N504 C508 1.332 . S
N504 C509 1.332 . S
C505 C506 1.388 . S
C505 C509 1.382 . S
C505 H528 0.950 . S
C506 C505 1.388 . S
C506 C507 1.386 . S
C507 C506 1.386 . S
C507 C508 1.382 . S
C507 H529 0.950 . S
C508 N504 1.332 . S
C508 C507 1.382 . S
C508 H510 0.952 . S
C509 N504 1.332 . S
C509 C505 1.382 . S
C509 H511 0.948 . S
H510 C508 0.952 . S
H511 C509 0.948 . S
H512 C501 0.952 . S
H513 C503 0.948 . S
C514 C480 1.395 . S
C514 C484 1.391 . S
C515 C477 1.389 . S
C515 C497 1.392 . S
C516 C487 1.392 . S
C516 C489 1.389 . S
C517 C492 1.395 . S
C517 C494 1.391 . S
H518 C478 0.951 . S
H519 C479 0.950 . S
H520 C485 0.949 . S
H521 C486 0.950 . S
H522 C490 0.951 . S
H523 C491 0.950 . S
H524 C495 0.949 . S
H525 C496 0.950 . S
H526 C500 0.950 . S
H527 C502 0.950 . S
H528 C505 0.950 . S
H529 C507 0.950 . S
C530 C531 1.443 . S
C530 N534 1.376 . S
C530 C568 1.389 . S
C531 C530 1.443 . S
C531 C532 1.340 . S
C531 H571 0.951 . S
C532 C531 1.340 . S
C532 C533 1.439 . S
C532 H572 0.950 . S
C533 C532 1.439 . S
C533 N534 1.374 . S
C533 C567 1.395 . S
N534 C530 1.376 . S
N534 C533 1.374 . S
N534 Co535 2.008 . S
Co535 N534 2.008 . S
Co535 N536 1.995 . S
Co535 N541 2.008 . S
Co535 N546 1.995 . S
Co535 N551 2.282 . S
Co535 N557 2.282 . S
N536 Co535 1.995 . S
N536 C537 1.376 . S
N536 C540 1.383 . S
C537 N536 1.376 . S
C537 C538 1.446 . S
C537 C567 1.391 . S
C538 C537 1.446 . S
C538 C539 1.339 . S
C538 H573 0.949 . S
C539 C538 1.339 . S
C539 C540 1.439 . S
C539 H574 0.950 . S
C540 N536 1.383 . S
C540 C539 1.439 . S
C540 C569 1.392 . S
N541 Co535 2.008 . S
N541 C542 1.376 . S
N541 C545 1.374 1_565 S
C542 N541 1.376 . S
C542 C543 1.443 1_565 S
C542 C569 1.389 . S
C543 C542 1.443 1_545 S
C543 C544 1.340 . S
C543 H575 0.951 . S
C544 C543 1.340 . S
C544 C545 1.439 . S
C544 H576 0.950 . S
C545 N541 1.374 1_545 S
C545 C544 1.439 . S
C545 C570 1.395 . S
N546 Co535 1.995 . S
N546 C547 1.376 1_565 S
N546 C550 1.383 . S
C547 N546 1.376 1_545 S
C547 C548 1.446 . S
C547 C570 1.391 . S
C548 C547 1.446 . S
C548 C549 1.339 . S
C548 H577 0.949 . S
C549 C548 1.339 . S
C549 C550 1.439 1_545 S
C549 H578 0.950 . S
C550 N546 1.383 . S
C550 C549 1.439 1_565 S
C550 C568 1.392 . S
N551 Co535 2.282 . S
N551 C554 1.332 . S
N551 C556 1.332 . S
C552 C553 1.386 . S
C552 C555 1.388 . S
C553 C552 1.386 . S
C553 C554 1.382 . S
C553 H579 0.950 1_565 S
C554 N551 1.332 . S
C554 C553 1.382 . S
C554 H565 0.952 1_565 S
C555 C552 1.388 . S
C555 C556 1.382 . S
C555 H580 0.950 . S
C556 N551 1.332 . S
C556 C555 1.382 . S
C556 H566 0.948 . S
N557 Co535 2.282 . S
N557 C561 1.332 . S
N557 C562 1.332 . S
C558 C559 1.388 . S
C558 C562 1.382 . S
C558 H581 0.950 . S
C559 C558 1.388 . S
C559 C560 1.386 . S
C560 C559 1.386 . S
C560 C561 1.382 . S
C560 H582 0.950 . S
C561 N557 1.332 . S
C561 C560 1.382 . S
C561 H563 0.952 . S
C562 N557 1.332 . S
C562 C558 1.382 . S
C562 H564 0.948 . S
H563 C561 0.952 . S
H564 C562 0.948 . S
H565 C554 0.952 1_545 S
H566 C556 0.948 . S
C567 C533 1.395 . S
C567 C537 1.391 . S
C568 C530 1.389 . S
C568 C550 1.392 . S
C569 C540 1.392 . S
C569 C542 1.389 . S
C570 C545 1.395 . S
C570 C547 1.391 . S
H571 C531 0.951 . S
H572 C532 0.950 . S
H573 C538 0.949 . S
H574 C539 0.950 . S
H575 C543 0.951 . S
H576 C544 0.950 . S
H577 C548 0.949 . S
H578 C549 0.950 . S
H579 C553 0.950 1_545 S
H580 C555 0.950 . S
H581 C558 0.950 . S
H582 C560 0.950 . S
C583 C584 1.443 1_455 S
C583 N587 1.376 . S
C583 C621 1.389 . S
C584 C583 1.443 1_655 S
C584 C585 1.340 . S
C584 H624 0.951 . S
C585 C584 1.340 . S
C585 C586 1.439 . S
C585 H625 0.950 . S
C586 C585 1.439 . S
C586 N587 1.374 1_655 S
C586 C620 1.395 . S
N587 C583 1.376 . S
N587 C586 1.374 1_455 S
N587 Co588 2.008 . S
Co588 N587 2.008 . S
Co588 N589 1.995 1_455 S
Co588 N594 2.008 . S
Co588 N599 1.995 . S
Co588 N604 2.282 . S
Co588 N610 2.282 . S
N589 Co588 1.995 1_655 S
N589 C590 1.376 . S
N589 C593 1.383 . S
C590 N589 1.376 . S
C590 C591 1.446 . S
C590 C620 1.391 . S
C591 C590 1.446 . S
C591 C592 1.339 . S
C591 H626 0.949 . S
C592 C591 1.339 . S
C592 C593 1.439 . S
C592 H627 0.950 . S
C593 N589 1.383 . S
C593 C592 1.439 . S
C593 C622 1.392 1_655 S
N594 Co588 2.008 . S
N594 C595 1.376 . S
N594 C598 1.374 . S
C595 N594 1.376 . S
C595 C596 1.443 . S
C595 C622 1.389 . S
C596 C595 1.443 . S
C596 C597 1.340 . S
C596 H628 0.951 . S
C597 C596 1.340 . S
C597 C598 1.439 . S
C597 H629 0.950 . S
C598 N594 1.374 . S
C598 C597 1.439 . S
C598 C623 1.395 . S
N599 Co588 1.995 . S
N599 C600 1.376 . S
N599 C603 1.383 . S
C600 N599 1.376 . S
C600 C601 1.446 . S
C600 C623 1.391 . S
C601 C600 1.446 . S
C601 C602 1.339 . S
C601 H630 0.949 . S
C602 C601 1.339 . S
C602 C603 1.439 . S
C602 H631 0.950 . S
C603 N599 1.383 . S
C603 C602 1.439 . S
C603 C621 1.392 . S
N604 Co588 2.282 . S
N604 C607 1.332 . S
N604 C609 1.332 . S
C605 C606 1.386 . S
C605 C608 1.388 . S
C606 C605 1.386 . S
C606 C607 1.382 . S
C606 H632 0.950 . S
C607 N604 1.332 . S
C607 C606 1.382 . S
C607 H618 0.952 . S
C608 C605 1.388 . S
C608 C609 1.382 . S
C608 H633 0.950 1_455 S
C609 N604 1.332 . S
C609 C608 1.382 . S
C609 H619 0.948 1_455 S
N610 Co588 2.282 . S
N610 C614 1.332 . S
N610 C615 1.332 . S
C611 C612 1.388 . S
C611 C615 1.382 . S
C611 H634 0.950 . S
C612 C611 1.388 . S
C612 C613 1.386 . S
C613 C612 1.386 . S
C613 C614 1.382 . S
C613 H635 0.950 1_455 S
C614 N610 1.332 . S
C614 C613 1.382 . S
C614 H616 0.952 1_455 S
C615 N610 1.332 . S
C615 C611 1.382 . S
C615 H617 0.948 . S
H616 C614 0.952 1_655 S
H617 C615 0.948 . S
H618 C607 0.952 . S
H619 C609 0.948 1_655 S
C620 C586 1.395 . S
C620 C590 1.391 . S
C621 C583 1.389 . S
C621 C603 1.392 . S
C622 C593 1.392 1_455 S
C622 C595 1.389 . S
C623 C598 1.395 . S
C623 C600 1.391 . S
H624 C584 0.951 . S
H625 C585 0.950 . S
H626 C591 0.949 . S
H627 C592 0.950 . S
H628 C596 0.951 . S
H629 C597 0.950 . S
H630 C601 0.949 . S
H631 C602 0.950 . S
H632 C606 0.950 . S
H633 C608 0.950 1_655 S
H634 C611 0.950 . S
H635 C613 0.950 1_655 S
C636 C637 1.443 . S
C636 N640 1.376 . S
C636 C674 1.389 . S
C637 C636 1.443 . S
C637 C638 1.340 . S
C637 H677 0.951 . S
C638 C637 1.340 . S
C638 C639 1.439 . S
C638 H678 0.950 . S
C639 C638 1.439 . S
C639 N640 1.374 . S
C639 C673 1.395 . S
N640 C636 1.376 . S
N640 C639 1.374 . S
N640 Co641 2.008 . S
Co641 N640 2.008 . S
Co641 N642 1.995 . S
Co641 N647 2.008 . S
Co641 N652 1.995 . S
Co641 N657 2.282 . S
Co641 N663 2.282 . S
N642 Co641 1.995 . S
N642 C643 1.376 . S
N642 C646 1.383 . S
C643 N642 1.376 . S
C643 C644 1.446 . S
C643 C673 1.391 . S
C644 C643 1.446 . S
C644 C645 1.339 . S
C644 H679 0.949 . S
C645 C644 1.339 . S
C645 C646 1.439 . S
C645 H680 0.950 . S
C646 N642 1.383 . S
C646 C645 1.439 . S
C646 C675 1.392 . S
N647 Co641 2.008 . S
N647 C648 1.376 . S
N647 C651 1.374 1_565 S
C648 N647 1.376 . S
C648 C649 1.443 1_565 S
C648 C675 1.389 . S
C649 C648 1.443 1_545 S
C649 C650 1.340 . S
C649 H681 0.951 . S
C650 C649 1.340 . S
C650 C651 1.439 . S
C650 H682 0.950 . S
C651 N647 1.374 1_545 S
C651 C650 1.439 . S
C651 C676 1.395 . S
N652 Co641 1.995 . S
N652 C653 1.376 1_565 S
N652 C656 1.383 . S
C653 N652 1.376 1_545 S
C653 C654 1.446 . S
C653 C676 1.391 . S
C654 C653 1.446 . S
C654 C655 1.339 . S
C654 H683 0.949 . S
C655 C654 1.339 . S
C655 C656 1.439 1_545 S
C655 H684 0.950 . S
C656 N652 1.383 . S
C656 C655 1.439 1_565 S
C656 C674 1.392 . S
N657 Co641 2.282 . S
N657 C660 1.332 . S
N657 C662 1.332 . S
C658 C659 1.386 . S
C658 C661 1.388 . S
C659 C658 1.386 . S
C659 C660 1.382 . S
C659 H685 0.950 1_565 S
C660 N657 1.332 . S
C660 C659 1.382 . S
C660 H671 0.952 1_565 S
C661 C658 1.388 . S
C661 C662 1.382 . S
C661 H686 0.950 . S
C662 N657 1.332 . S
C662 C661 1.382 . S
C662 H672 0.948 . S
N663 Co641 2.282 . S
N663 C667 1.332 . S
N663 C668 1.332 . S
C664 C665 1.388 . S
C664 C668 1.382 . S
C664 H687 0.950 . S
C665 C664 1.388 . S
C665 C666 1.386 . S
C666 C665 1.386 . S
C666 C667 1.382 . S
C666 H688 0.950 . S
C667 N663 1.332 . S
C667 C666 1.382 . S
C667 H669 0.952 . S
C668 N663 1.332 . S
C668 C664 1.382 . S
C668 H670 0.948 . S
H669 C667 0.952 . S
H670 C668 0.948 . S
H671 C660 0.952 1_545 S
H672 C662 0.948 . S
C673 C639 1.395 . S
C673 C643 1.391 . S
C674 C636 1.389 . S
C674 C656 1.392 . S
C675 C646 1.392 . S
C675 C648 1.389 . S
C676 C651 1.395 . S
C676 C653 1.391 . S
H677 C637 0.951 . S
H678 C638 0.950 . S
H679 C644 0.949 . S
H680 C645 0.950 . S
H681 C649 0.951 . S
H682 C650 0.950 . S
H683 C654 0.949 . S
H684 C655 0.950 . S
H685 C659 0.950 1_545 S
H686 C661 0.950 . S
H687 C664 0.950 . S
H688 C666 0.950 . S
C689 C690 1.443 1_455 S
C689 N693 1.376 . S
C689 C727 1.389 . S
C690 C689 1.443 1_655 S
C690 C691 1.340 . S
C690 H730 0.951 . S
C691 C690 1.340 . S
C691 C692 1.439 . S
C691 H731 0.950 . S
C692 C691 1.439 . S
C692 N693 1.374 1_655 S
C692 C726 1.395 . S
N693 C689 1.376 . S
N693 C692 1.374 1_455 S
N693 Co694 2.008 . S
Co694 N693 2.008 . S
Co694 N695 1.995 1_455 S
Co694 N700 2.008 . S
Co694 N705 1.995 . S
Co694 N710 2.282 . S
Co694 N716 2.282 . S
N695 Co694 1.995 1_655 S
N695 C696 1.376 . S
N695 C699 1.383 . S
C696 N695 1.376 . S
C696 C697 1.446 . S
C696 C726 1.391 . S
C697 C696 1.446 . S
C697 C698 1.339 . S
C697 H732 0.949 . S
C698 C697 1.339 . S
C698 C699 1.439 . S
C698 H733 0.950 . S
C699 N695 1.383 . S
C699 C698 1.439 . S
C699 C728 1.392 1_655 S
N700 Co694 2.008 . S
N700 C701 1.376 . S
N700 C704 1.374 . S
C701 N700 1.376 . S
C701 C702 1.443 . S
C701 C728 1.389 . S
C702 C701 1.443 . S
C702 C703 1.340 . S
C702 H734 0.951 . S
C703 C702 1.340 . S
C703 C704 1.439 . S
C703 H735 0.950 . S
C704 N700 1.374 . S
C704 C703 1.439 . S
C704 C729 1.395 . S
N705 Co694 1.995 . S
N705 C706 1.376 . S
N705 C709 1.383 . S
C706 N705 1.376 . S
C706 C707 1.446 . S
C706 C729 1.391 . S
C707 C706 1.446 . S
C707 C708 1.339 . S
C707 H736 0.949 . S
C708 C707 1.339 . S
C708 C709 1.439 . S
C708 H737 0.950 . S
C709 N705 1.383 . S
C709 C708 1.439 . S
C709 C727 1.392 . S
N710 Co694 2.282 . S
N710 C713 1.332 . S
N710 C715 1.332 . S
C711 C712 1.386 . S
C711 C714 1.388 . S
C712 C711 1.386 . S
C712 C713 1.382 . S
C712 H738 0.950 . S
C713 N710 1.332 . S
C713 C712 1.382 . S
C713 H724 0.952 . S
C714 C711 1.388 . S
C714 C715 1.382 . S
C714 H739 0.950 1_455 S
C715 N710 1.332 . S
C715 C714 1.382 . S
C715 H725 0.948 1_455 S
N716 Co694 2.282 . S
N716 C720 1.332 . S
N716 C721 1.332 . S
C717 C718 1.388 . S
C717 C721 1.382 . S
C717 H740 0.950 . S
C718 C717 1.388 . S
C718 C719 1.386 . S
C719 C718 1.386 . S
C719 C720 1.382 . S
C719 H741 0.950 1_455 S
C720 N716 1.332 . S
C720 C719 1.382 . S
C720 H722 0.952 1_455 S
C721 N716 1.332 . S
C721 C717 1.382 . S
C721 H723 0.948 . S
H722 C720 0.952 1_655 S
H723 C721 0.948 . S
H724 C713 0.952 . S
H725 C715 0.948 1_655 S
C726 C692 1.395 . S
C726 C696 1.391 . S
C727 C689 1.389 . S
C727 C709 1.392 . S
C728 C699 1.392 1_455 S
C728 C701 1.389 . S
C729 C704 1.395 . S
C729 C706 1.391 . S
H730 C690 0.951 . S
H731 C691 0.950 . S
H732 C697 0.949 . S
H733 C698 0.950 . S
H734 C702 0.951 . S
H735 C703 0.950 . S
H736 C707 0.949 . S
H737 C708 0.950 . S
H738 C712 0.950 . S
H739 C714 0.950 1_655 S
H740 C717 0.950 . S
H741 C719 0.950 1_655 S
C742 C743 1.443 . S
C742 N746 1.376 . S
C742 C780 1.389 . S
C743 C742 1.443 . S
C743 C744 1.340 . S
C743 H783 0.951 . S
C744 C743 1.340 . S
C744 C745 1.439 . S
C744 H784 0.950 . S
C745 C744 1.439 . S
C745 N746 1.374 . S
C745 C779 1.395 . S
N746 C742 1.376 . S
N746 C745 1.374 . S
N746 Co747 2.008 . S
Co747 N746 2.008 . S
Co747 N748 1.995 . S
Co747 N753 2.008 . S
Co747 N758 1.995 . S
Co747 N763 2.282 . S
Co747 N769 2.282 . S
N748 Co747 1.995 . S
N748 C749 1.376 . S
N748 C752 1.383 . S
C749 N748 1.376 . S
C749 C750 1.446 . S
C749 C779 1.391 . S
C750 C749 1.446 . S
C750 C751 1.339 . S
C750 H785 0.949 . S
C751 C750 1.339 . S
C751 C752 1.439 . S
C751 H786 0.950 . S
C752 N748 1.383 . S
C752 C751 1.439 . S
C752 C781 1.392 . S
N753 Co747 2.008 . S
N753 C754 1.376 . S
N753 C757 1.374 . S
C754 N753 1.376 . S
C754 C755 1.443 . S
C754 C781 1.389 . S
C755 C754 1.443 . S
C755 C756 1.340 . S
C755 H787 0.951 . S
C756 C755 1.340 . S
C756 C757 1.439 . S
C756 H788 0.950 . S
C757 N753 1.374 . S
C757 C756 1.439 . S
C757 C782 1.395 . S
N758 Co747 1.995 . S
N758 C759 1.376 . S
N758 C762 1.383 . S
C759 N758 1.376 . S
C759 C760 1.446 . S
C759 C782 1.391 . S
C760 C759 1.446 . S
C760 C761 1.339 . S
C760 H789 0.949 . S
C761 C760 1.339 . S
C761 C762 1.439 . S
C761 H790 0.950 . S
C762 N758 1.383 . S
C762 C761 1.439 . S
C762 C780 1.392 . S
N763 Co747 2.282 . S
N763 C766 1.332 . S
N763 C768 1.332 . S
C764 C765 1.386 . S
C764 C767 1.388 . S
C765 C764 1.386 . S
C765 C766 1.382 . S
C765 H791 0.950 . S
C766 N763 1.332 . S
C766 C765 1.382 . S
C766 H777 0.952 . S
C767 C764 1.388 . S
C767 C768 1.382 . S
C767 H792 0.950 . S
C768 N763 1.332 . S
C768 C767 1.382 . S
C768 H778 0.948 . S
N769 Co747 2.282 . S
N769 C773 1.332 . S
N769 C774 1.332 . S
C770 C771 1.388 . S
C770 C774 1.382 . S
C770 H793 0.950 . S
C771 C770 1.388 . S
C771 C772 1.386 . S
C772 C771 1.386 . S
C772 C773 1.382 . S
C772 H794 0.950 . S
C773 N769 1.332 . S
C773 C772 1.382 . S
C773 H775 0.952 . S
C774 N769 1.332 . S
C774 C770 1.382 . S
C774 H776 0.948 . S
H775 C773 0.952 . S
H776 C774 0.948 . S
H777 C766 0.952 . S
H778 C768 0.948 . S
C779 C745 1.395 . S
C779 C749 1.391 . S
C780 C742 1.389 . S
C780 C762 1.392 . S
C781 C752 1.392 . S
C781 C754 1.389 . S
C782 C757 1.395 . S
C782 C759 1.391 . S
H783 C743 0.951 . S
H784 C744 0.950 . S
H785 C750 0.949 . S
H786 C751 0.950 . S
H787 C755 0.951 . S
H788 C756 0.950 . S
H789 C760 0.949 . S
H790 C761 0.950 . S
H791 C765 0.950 . S
H792 C767 0.950 . S
H793 C770 0.950 . S
H794 C772 0.950 . S
C795 C796 1.443 . S
C795 N799 1.376 . S
C795 C833 1.389 . S
C796 C795 1.443 . S
C796 C797 1.340 . S
C796 H836 0.951 . S
C797 C796 1.340 . S
C797 C798 1.439 . S
C797 H837 0.950 . S
C798 C797 1.439 . S
C798 N799 1.374 . S
C798 C832 1.395 . S
N799 C795 1.376 . S
N799 C798 1.374 . S
N799 Co800 2.008 . S
Co800 N799 2.008 . S
Co800 N801 1.995 . S
Co800 N806 2.008 . S
Co800 N811 1.995 . S
Co800 N816 2.282 . S
Co800 N822 2.282 . S
N801 Co800 1.995 . S
N801 C802 1.376 . S
N801 C805 1.383 . S
C802 N801 1.376 . S
C802 C803 1.446 . S
C802 C832 1.391 . S
C803 C802 1.446 . S
C803 C804 1.339 . S
C803 H838 0.949 . S
C804 C803 1.339 . S
C804 C805 1.439 . S
C804 H839 0.950 . S
C805 N801 1.383 . S
C805 C804 1.439 . S
C805 C834 1.392 . S
N806 Co800 2.008 . S
N806 C807 1.376 . S
N806 C810 1.374 . S
C807 N806 1.376 . S
C807 C808 1.443 . S
C807 C834 1.389 . S
C808 C807 1.443 . S
C808 C809 1.340 . S
C808 H840 0.951 . S
C809 C808 1.340 . S
C809 C810 1.439 . S
C809 H841 0.950 . S
C810 N806 1.374 . S
C810 C809 1.439 . S
C810 C835 1.395 . S
N811 Co800 1.995 . S
N811 C812 1.376 . S
N811 C815 1.383 . S
C812 N811 1.376 . S
C812 C813 1.446 . S
C812 C835 1.391 . S
C813 C812 1.446 . S
C813 C814 1.339 . S
C813 H842 0.949 . S
C814 C813 1.339 . S
C814 C815 1.439 . S
C814 H843 0.950 . S
C815 N811 1.383 . S
C815 C814 1.439 . S
C815 C833 1.392 . S
N816 Co800 2.282 . S
N816 C819 1.332 . S
N816 C821 1.332 . S
C817 C818 1.386 . S
C817 C820 1.388 . S
C818 C817 1.386 . S
C818 C819 1.382 . S
C818 H844 0.950 . S
C819 N816 1.332 . S
C819 C818 1.382 . S
C819 H830 0.952 . S
C820 C817 1.388 . S
C820 C821 1.382 . S
C820 H845 0.950 . S
C821 N816 1.332 . S
C821 C820 1.382 . S
C821 H831 0.948 . S
N822 Co800 2.282 . S
N822 C826 1.332 . S
N822 C827 1.332 . S
C823 C824 1.388 . S
C823 C827 1.382 . S
C823 H846 0.950 . S
C824 C823 1.388 . S
C824 C825 1.386 . S
C825 C824 1.386 . S
C825 C826 1.382 . S
C825 H847 0.950 . S
C826 N822 1.332 . S
C826 C825 1.382 . S
C826 H828 0.952 . S
C827 N822 1.332 . S
C827 C823 1.382 . S
C827 H829 0.948 . S
H828 C826 0.952 . S
H829 C827 0.948 . S
H830 C819 0.952 . S
H831 C821 0.948 . S
C832 C798 1.395 . S
C832 C802 1.391 . S
C833 C795 1.389 . S
C833 C815 1.392 . S
C834 C805 1.392 . S
C834 C807 1.389 . S
C835 C810 1.395 . S
C835 C812 1.391 . S
H836 C796 0.951 . S
H837 C797 0.950 . S
H838 C803 0.949 . S
H839 C804 0.950 . S
H840 C808 0.951 . S
H841 C809 0.950 . S
H842 C813 0.949 . S
H843 C814 0.950 . S
H844 C818 0.950 . S
H845 C820 0.950 . S
H846 C823 0.950 . S
H847 C825 0.950 . S
H848 C854 0.930 . S
H849 C858 0.930 . S
H850 C863 0.929 . S
H851 C861 0.929 . S
H852 C856 0.929 . S
H853 C862 0.929 . S
C854 H848 0.930 . S
C854 C855 1.367 . S
C854 C862 1.378 . S
C855 C854 1.367 . S
C855 C863 1.433 . S
C856 H852 0.929 . S
C856 C858 1.378 . S
C856 C860 1.350 . S
C857 C860 1.463 1_665 S
C857 C862 1.350 . S
C857 N865 1.427 . S
C858 H849 0.930 . S
C858 C856 1.378 . S
C858 C859 1.367 . S
C859 C858 1.367 . S
C859 C861 1.433 . S
C860 C856 1.350 . S
C860 C857 1.463 1_445 S
C860 N864 1.427 . S
C861 H851 0.929 . S
C861 C859 1.433 . S
C861 N864 1.384 . S
C862 H853 0.929 . S
C862 C854 1.378 . S
C862 C857 1.350 . S
C863 H850 0.929 . S
C863 C855 1.433 . S
C863 N865 1.384 . S
N864 C860 1.427 . S
N864 C861 1.384 . S
N865 C857 1.427 . S
N865 C863 1.384 . S
H866 C872 0.930 . S
H867 C876 0.930 . S
H868 C881 0.929 . S
H869 C879 0.929 . S
H870 C874 0.929 . S
H871 C880 0.929 . S
C872 H866 0.930 . S
C872 C873 1.367 1_455 S
C872 C880 1.378 . S
C873 C872 1.367 1_655 S
C873 C881 1.433 . S
C874 H870 0.929 . S
C874 C876 1.378 . S
C874 C878 1.350 1_655 S
C875 C878 1.463 1_655 S
C875 C880 1.350 1_655 S
C875 N883 1.427 . S
C876 H867 0.930 . S
C876 C874 1.378 . S
C876 C877 1.367 1_655 S
C877 C876 1.367 1_455 S
C877 C879 1.433 . S
C878 C874 1.350 1_455 S
C878 C875 1.463 1_455 S
C878 N882 1.427 . S
C879 H869 0.929 . S
C879 C877 1.433 . S
C879 N882 1.384 . S
C880 H871 0.929 . S
C880 C872 1.378 . S
C880 C875 1.350 1_455 S
C881 H868 0.929 . S
C881 C873 1.433 . S
C881 N883 1.384 . S
N882 C878 1.427 . S
N882 C879 1.384 . S
N883 C875 1.427 . S
N883 C881 1.384 . S
H884 C890 0.930 . S
H885 C894 0.930 . S
H886 C899 0.929 . S
H887 C897 0.929 . S
H888 C892 0.929 . S
H889 C898 0.929 . S
C890 H884 0.930 . S
C890 C891 1.367 . S
C890 C898 1.378 . S
C891 C890 1.367 . S
C891 C899 1.433 . S
C892 H888 0.929 . S
C892 C894 1.378 . S
C892 C896 1.350 . S
C893 C896 1.463 . S
C893 C898 1.350 . S
C893 N901 1.427 . S
C894 H885 0.930 . S
C894 C892 1.378 . S
C894 C895 1.367 . S
C895 C894 1.367 . S
C895 C897 1.433 . S
C896 C892 1.350 . S
C896 C893 1.463 . S
C896 N900 1.427 . S
C897 H887 0.929 . S
C897 C895 1.433 . S
C897 N900 1.384 . S
C898 H889 0.929 . S
C898 C890 1.378 . S
C898 C893 1.350 . S
C899 H886 0.929 . S
C899 C891 1.433 . S
C899 N901 1.384 . S
N900 C896 1.427 . S
N900 C897 1.384 . S
N901 C893 1.427 . S
N901 C899 1.384 . S
H902 C908 0.930 . S
H903 C912 0.930 . S
H904 C917 0.929 . S
H905 C915 0.929 . S
H906 C910 0.929 . S
H907 C916 0.929 . S
C908 H902 0.930 . S
C908 C909 1.367 . S
C908 C916 1.378 . S
C909 C908 1.367 . S
C909 C917 1.433 . S
C910 H906 0.929 . S
C910 C912 1.378 . S
C910 C914 1.350 . S
C911 C914 1.463 1_545 S
C911 C916 1.350 . S
C911 N919 1.427 . S
C912 H903 0.930 . S
C912 C910 1.378 . S
C912 C913 1.367 . S
C913 C912 1.367 . S
C913 C915 1.433 . S
C914 C910 1.350 . S
C914 C911 1.463 1_565 S
C914 N918 1.427 . S
C915 H905 0.929 . S
C915 C913 1.433 . S
C915 N918 1.384 . S
C916 H907 0.929 . S
C916 C908 1.378 . S
C916 C911 1.350 . S
C917 H904 0.929 . S
C917 C909 1.433 . S
C917 N919 1.384 . S
N918 C914 1.427 . S
N918 C915 1.384 . S
N919 C911 1.427 . S
N919 C917 1.384 . S
H920 C926 0.930 . S
H921 C930 0.930 . S
H922 C935 0.929 . S
H923 C933 0.929 . S
H924 C928 0.929 . S
H925 C934 0.929 . S
C926 H920 0.930 . S
C926 C927 1.367 . S
C926 C934 1.378 . S
C927 C926 1.367 . S
C927 C935 1.433 . S
C928 H924 0.929 . S
C928 C930 1.378 . S
C928 C932 1.350 . S
C929 C932 1.463 1_455 S
C929 C934 1.350 . S
C929 N937 1.427 . S
C930 H921 0.930 . S
C930 C928 1.378 . S
C930 C931 1.367 . S
C931 C930 1.367 . S
C931 C933 1.433 . S
C932 C928 1.350 . S
C932 C929 1.463 1_655 S
C932 N936 1.427 . S
C933 H923 0.929 . S
C933 C931 1.433 . S
C933 N936 1.384 . S
C934 H925 0.929 . S
C934 C926 1.378 . S
C934 C929 1.350 . S
C935 H922 0.929 . S
C935 C927 1.433 . S
C935 N937 1.384 . S
N936 C932 1.427 . S
N936 C933 1.384 . S
N937 C929 1.427 . S
N937 C935 1.384 . S
H938 C944 0.930 . S
H939 C948 0.930 . S
H940 C953 0.929 . S
H941 C951 0.929 . S
H942 C946 0.929 . S
H943 C952 0.929 . S
C944 H938 0.930 . S
C944 C945 1.367 . S
C944 C952 1.378 . S
C945 C944 1.367 . S
C945 C953 1.433 . S
C946 H942 0.929 . S
C946 C948 1.378 . S
C946 C950 1.350 . S
C947 C950 1.463 . S
C947 C952 1.350 . S
C947 N955 1.427 . S
C948 H939 0.930 . S
C948 C946 1.378 . S
C948 C949 1.367 . S
C949 C948 1.367 . S
C949 C951 1.433 . S
C950 C946 1.350 . S
C950 C947 1.463 . S
C950 N954 1.427 . S
C951 H941 0.929 . S
C951 C949 1.433 . S
C951 N954 1.384 . S
C952 H943 0.929 . S
C952 C944 1.378 . S
C952 C947 1.350 . S
C953 H940 0.929 . S
C953 C945 1.433 . S
C953 N955 1.384 . S
N954 C950 1.427 . S
N954 C951 1.384 . S
N955 C947 1.427 . S
N955 C953 1.384 . S
H956 C962 0.923 1_565 S
H957 C966 0.923 1_545 S
H958 C971 0.929 . S
H959 C969 0.929 . S
H960 C964 0.929 . S
H961 C970 0.929 . S
C962 H956 0.923 1_545 S
C962 C963 1.367 . S
C962 C970 1.378 1_545 S
C963 C962 1.367 . S
C963 C971 1.433 . S
C964 H960 0.929 . S
C964 C966 1.378 1_545 S
C964 C968 1.350 1_545 S
C965 C968 1.463 1_545 S
C965 C970 1.350 1_545 S
C965 N973 1.427 . S
C966 H957 0.923 1_565 S
C966 C964 1.378 1_565 S
C966 C967 1.367 . S
C967 C966 1.367 . S
C967 C969 1.433 . S
C968 C964 1.350 1_565 S
C968 C965 1.463 1_565 S
C968 N972 1.427 . S
C969 H959 0.929 . S
C969 C967 1.433 . S
C969 N972 1.384 . S
C970 H961 0.929 . S
C970 C962 1.378 1_565 S
C970 C965 1.350 1_565 S
C971 H958 0.929 . S
C971 C963 1.433 . S
C971 N973 1.384 . S
N972 C968 1.427 . S
N972 C969 1.384 . S
N973 C965 1.427 . S
N973 C971 1.384 . S
H974 C980 0.930 . S
H975 C984 0.930 . S
H976 C989 0.929 . S
H977 C987 0.929 . S
H978 C982 0.929 . S
H979 C988 0.929 . S
C980 H974 0.930 . S
C980 C981 1.367 1_655 S
C980 C988 1.378 . S
C981 C980 1.367 1_455 S
C981 C989 1.433 . S
C982 H978 0.929 . S
C982 C984 1.378 . S
C982 C986 1.350 1_455 S
C983 C986 1.463 1_445 S
C983 C988 1.350 1_455 S
C983 N991 1.427 . S
C984 H975 0.930 . S
C984 C982 1.378 . S
C984 C985 1.367 1_455 S
C985 C984 1.367 1_655 S
C985 C987 1.433 . S
C986 C982 1.350 1_655 S
C986 C983 1.463 1_665 S
C986 N990 1.427 . S
C987 H977 0.929 . S
C987 C985 1.433 . S
C987 N990 1.384 . S
C988 H979 0.929 . S
C988 C980 1.378 . S
C988 C983 1.350 1_655 S
C989 H976 0.929 . S
C989 C981 1.433 . S
C989 N991 1.384 . S
N990 C986 1.427 . S
N990 C987 1.384 . S
N991 C983 1.427 . S
N991 C989 1.384 . S
H992 C998 0.930 . S
H993 C1002 0.930 . S
H994 C1007 0.929 . S
H995 C1005 0.929 . S
H996 C1000 0.929 . S
H997 C1006 0.929 . S
C998 H992 0.930 . S
C998 C999 1.367 . S
C998 C1006 1.378 . S
C999 C998 1.367 . S
C999 C1007 1.433 . S
C1000 H996 0.929 . S
C1000 C1002 1.378 . S
C1000 C1004 1.350 . S
C1001 C1004 1.463 1_565 S
C1001 C1006 1.350 . S
C1001 N1009 1.427 . S
C1002 H993 0.930 . S
C1002 C1000 1.378 . S
C1002 C1003 1.367 . S
C1003 C1002 1.367 . S
C1003 C1005 1.433 . S
C1004 C1000 1.350 . S
C1004 C1001 1.463 1_545 S
C1004 N1008 1.427 . S
C1005 H995 0.929 . S
C1005 C1003 1.433 . S
C1005 N1008 1.384 . S
C1006 H997 0.929 . S
C1006 C998 1.378 . S
C1006 C1001 1.350 . S
C1007 H994 0.929 . S
C1007 C999 1.433 . S
C1007 N1009 1.384 . S
N1008 C1004 1.427 . S
N1008 C1005 1.384 . S
N1009 C1001 1.427 . S
N1009 C1007 1.384 . S
H1010 C1016 0.930 . S
H1011 C1020 0.930 . S
H1012 C1025 0.929 . S
H1013 C1023 0.929 . S
H1014 C1018 0.929 1_655 S
H1015 C1024 0.929 1_455 S
C1016 H1010 0.930 . S
C1016 C1017 1.367 . S
C1016 C1024 1.378 . S
C1017 C1016 1.367 . S
C1017 C1025 1.433 . S
C1018 H1014 0.929 1_455 S
C1018 C1020 1.378 . S
C1018 C1022 1.350 . S
C1019 C1022 1.463 1_665 S
C1019 C1024 1.350 . S
C1019 N1027 1.427 . S
C1020 H1011 0.930 . S
C1020 C1018 1.378 . S
C1020 C1021 1.367 . S
C1021 C1020 1.367 . S
C1021 C1023 1.433 . S
C1022 C1018 1.350 . S
C1022 C1019 1.463 1_445 S
C1022 N1026 1.427 . S
C1023 H1013 0.929 . S
C1023 C1021 1.433 . S
C1023 N1026 1.384 . S
C1024 H1015 0.929 1_655 S
C1024 C1016 1.378 . S
C1024 C1019 1.350 . S
C1025 H1012 0.929 . S
C1025 C1017 1.433 . S
C1025 N1027 1.384 . S
N1026 C1022 1.427 . S
N1026 C1023 1.384 . S
N1027 C1019 1.427 . S
N1027 C1025 1.384 . S
H1028 C1034 0.930 . S
H1029 C1038 0.930 . S
H1030 C1043 0.929 . S
H1031 C1041 0.929 . S
H1032 C1036 0.929 . S
H1033 C1042 0.929 . S
C1034 H1028 0.930 . S
C1034 C1035 1.367 . S
C1034 C1042 1.378 . S
C1035 C1034 1.367 . S
C1035 C1043 1.433 . S
C1036 H1032 0.929 . S
C1036 C1038 1.378 . S
C1036 C1040 1.350 . S
C1037 C1040 1.463 1_455 S
C1037 C1042 1.350 . S
C1037 N1045 1.427 . S
C1038 H1029 0.930 . S
C1038 C1036 1.378 . S
C1038 C1039 1.367 . S
C1039 C1038 1.367 . S
C1039 C1041 1.433 . S
C1040 C1036 1.350 . S
C1040 C1037 1.463 1_655 S
C1040 N1044 1.427 . S
C1041 H1031 0.929 . S
C1041 C1039 1.433 . S
C1041 N1044 1.384 . S
C1042 H1033 0.929 . S
C1042 C1034 1.378 . S
C1042 C1037 1.350 . S
C1043 H1030 0.929 . S
C1043 C1035 1.433 . S
C1043 N1045 1.384 . S
N1044 C1040 1.427 . S
N1044 C1041 1.384 . S
N1045 C1037 1.427 . S
N1045 C1043 1.384 . S
H1046 C1052 0.930 . S
H1047 C1056 0.930 . S
H1048 C1061 0.929 . S
H1049 C1059 0.929 . S
H1050 C1054 0.929 . S
H1051 C1060 0.929 . S
C1052 H1046 0.930 . S
C1052 C1053 1.367 . S
C1052 C1060 1.378 . S
C1053 C1052 1.367 . S
C1053 C1061 1.433 . S
C1054 H1050 0.929 . S
C1054 C1056 1.378 . S
C1054 C1058 1.350 . S
C1055 C1058 1.463 . S
C1055 C1060 1.350 . S
C1055 N1063 1.427 . S
C1056 H1047 0.930 . S
C1056 C1054 1.378 . S
C1056 C1057 1.367 . S
C1057 C1056 1.367 . S
C1057 C1059 1.433 . S
C1058 C1054 1.350 . S
C1058 C1055 1.463 . S
C1058 N1062 1.427 . S
C1059 H1049 0.929 . S
C1059 C1057 1.433 . S
C1059 N1062 1.384 . S
C1060 H1051 0.929 . S
C1060 C1052 1.378 . S
C1060 C1055 1.350 . S
C1061 H1048 0.929 . S
C1061 C1053 1.433 . S
C1061 N1063 1.384 . S
N1062 C1058 1.427 . S
N1062 C1059 1.384 . S
N1063 C1055 1.427 . S
N1063 C1061 1.384 . S
H1064 C1070 0.930 . S
H1065 C1074 0.930 . S
H1066 C1079 0.929 . S
H1067 C1077 0.929 . S
H1068 C1072 0.929 . S
H1069 C1078 0.929 . S
C1070 H1064 0.930 . S
C1070 C1071 1.367 . S
C1070 C1078 1.378 . S
C1071 C1070 1.367 . S
C1071 C1079 1.433 . S
C1072 H1068 0.929 . S
C1072 C1074 1.378 . S
C1072 C1076 1.350 . S
C1073 C1076 1.463 . S
C1073 C1078 1.350 . S
C1073 N1081 1.427 . S
C1074 H1065 0.930 . S
C1074 C1072 1.378 . S
C1074 C1075 1.367 . S
C1075 C1074 1.367 . S
C1075 C1077 1.433 . S
C1076 C1072 1.350 . S
C1076 C1073 1.463 . S
C1076 N1080 1.427 . S
C1077 H1067 0.929 . S
C1077 C1075 1.433 . S
C1077 N1080 1.384 . S
C1078 H1069 0.929 . S
C1078 C1070 1.378 . S
C1078 C1073 1.350 . S
C1079 H1066 0.929 . S
C1079 C1071 1.433 . S
C1079 N1081 1.384 . S
N1080 C1076 1.427 . S
N1080 C1077 1.384 . S
N1081 C1073 1.427 . S
N1081 C1079 1.384 . S
H1082 C1088 0.930 . S
H1083 C1092 0.930 . S
H1084 C1097 0.929 . S
H1085 C1095 0.929 . S
H1086 C1090 0.929 . S
H1087 C1096 0.929 . S
C1088 H1082 0.930 . S
C1088 C1089 1.367 . S
C1088 C1096 1.378 . S
C1089 C1088 1.367 . S
C1089 C1097 1.433 . S
C1090 H1086 0.929 . S
C1090 C1092 1.378 . S
C1090 C1094 1.350 . S
C1091 C1094 1.463 1_565 S
C1091 C1096 1.350 . S
C1091 N1099 1.427 . S
C1092 H1083 0.930 . S
C1092 C1090 1.378 . S
C1092 C1093 1.367 . S
C1093 C1092 1.367 . S
C1093 C1095 1.433 . S
C1094 C1090 1.350 . S
C1094 C1091 1.463 1_545 S
C1094 N1098 1.427 . S
C1095 H1085 0.929 . S
C1095 C1093 1.433 . S
C1095 N1098 1.384 . S
C1096 H1087 0.929 . S
C1096 C1088 1.378 . S
C1096 C1091 1.350 . S
C1097 H1084 0.929 . S
C1097 C1089 1.433 . S
C1097 N1099 1.384 . S
N1098 C1094 1.427 . S
N1098 C1095 1.384 . S
N1099 C1091 1.427 . S
N1099 C1097 1.384 . S
H1100 C1106 0.930 . S
H1101 C1110 0.930 . S
H1102 C1115 0.929 . S
H1103 C1113 0.929 . S
H1104 C1108 0.929 . S
H1105 C1114 0.929 . S
C1106 H1100 0.930 . S
C1106 C1107 1.367 . S
C1106 C1114 1.378 1_565 S
C1107 C1106 1.367 . S
C1107 C1115 1.433 . S
C1108 H1104 0.929 . S
C1108 C1110 1.378 1_565 S
C1108 C1112 1.350 1_565 S
C1109 C1112 1.463 1_665 S
C1109 C1114 1.350 1_565 S
C1109 N1117 1.427 . S
C1110 H1101 0.930 . S
C1110 C1108 1.378 1_545 S
C1110 C1111 1.367 . S
C1111 C1110 1.367 . S
C1111 C1113 1.433 . S
C1112 C1108 1.350 1_545 S
C1112 C1109 1.463 1_445 S
C1112 N1116 1.427 . S
C1113 H1103 0.929 . S
C1113 C1111 1.433 . S
C1113 N1116 1.384 . S
C1114 H1105 0.929 . S
C1114 C1106 1.378 1_545 S
C1114 C1109 1.350 1_545 S
C1115 H1102 0.929 . S
C1115 C1107 1.433 . S
C1115 N1117 1.384 . S
N1116 C1112 1.427 . S
N1116 C1113 1.384 . S
N1117 C1109 1.427 . S
N1117 C1115 1.384 . S
H1118 C1124 0.930 . S
H1119 C1128 0.930 . S
H1120 C1133 0.929 . S
H1121 C1131 0.929 . S
H1122 C1126 0.929 . S
H1123 C1132 0.929 . S
C1124 H1118 0.930 . S
C1124 C1125 1.367 . S
C1124 C1132 1.378 . S
C1125 C1124 1.367 . S
C1125 C1133 1.433 1_455 S
C1126 H1122 0.929 . S
C1126 C1128 1.378 . S
C1126 C1130 1.350 . S
C1127 C1130 1.463 1_455 S
C1127 C1132 1.350 . S
C1127 N1135 1.427 1_455 S
C1128 H1119 0.930 . S
C1128 C1126 1.378 . S
C1128 C1129 1.367 . S
C1129 C1128 1.367 . S
C1129 C1131 1.433 1_655 S
C1130 C1126 1.350 . S
C1130 C1127 1.463 1_655 S
C1130 N1134 1.427 1_655 S
C1131 H1121 0.929 . S
C1131 C1129 1.433 1_455 S
C1131 N1134 1.384 . S
C1132 H1123 0.929 . S
C1132 C1124 1.378 . S
C1132 C1127 1.350 . S
C1133 H1120 0.929 . S
C1133 C1125 1.433 1_655 S
C1133 N1135 1.384 . S
N1134 C1130 1.427 1_455 S
N1134 C1131 1.384 . S
N1135 C1127 1.427 1_655 S
N1135 C1133 1.384 . S
H1136 C1142 0.930 1_565 S
H1137 C1146 0.930 . S
H1138 C1151 0.929 . S
H1139 C1149 0.929 1_565 S
H1140 C1144 0.929 . S
H1141 C1150 0.929 1_565 S
C1142 H1136 0.930 1_545 S
C1142 C1143 1.367 . S
C1142 C1150 1.378 . S
C1143 C1142 1.367 . S
C1143 C1151 1.433 . S
C1144 H1140 0.929 . S
C1144 C1146 1.378 . S
C1144 C1148 1.350 . S
C1145 C1148 1.463 . S
C1145 C1150 1.350 . S
C1145 N1153 1.427 . S
C1146 H1137 0.930 . S
C1146 C1144 1.378 . S
C1146 C1147 1.367 . S
C1147 C1146 1.367 . S
C1147 C1149 1.433 . S
C1148 C1144 1.350 . S
C1148 C1145 1.463 . S
C1148 N1152 1.427 . S
C1149 H1139 0.929 1_545 S
C1149 C1147 1.433 . S
C1149 N1152 1.384 . S
C1150 H1141 0.929 1_545 S
C1150 C1142 1.378 . S
C1150 C1145 1.350 . S
C1151 H1138 0.929 . S
C1151 C1143 1.433 . S
C1151 N1153 1.384 . S
N1152 C1148 1.427 . S
N1152 C1149 1.384 . S
N1153 C1145 1.427 . S
N1153 C1151 1.384 . S
H1154 C1160 0.930 . S
H1155 C1164 0.930 1_455 S
H1156 C1169 0.929 1_455 S
H1157 C1167 0.929 . S
H1158 C1162 0.929 1_455 S
H1159 C1168 0.929 . S
C1160 H1154 0.930 . S
C1160 C1161 1.367 . S
C1160 C1168 1.378 . S
C1161 C1160 1.367 . S
C1161 C1169 1.433 . S
C1162 H1158 0.929 1_655 S
C1162 C1164 1.378 . S
C1162 C1166 1.350 . S
C1163 C1166 1.463 . S
C1163 C1168 1.350 . S
C1163 N1171 1.427 . S
C1164 H1155 0.930 1_655 S
C1164 C1162 1.378 . S
C1164 C1165 1.367 . S
C1165 C1164 1.367 . S
C1165 C1167 1.433 . S
C1166 C1162 1.350 . S
C1166 C1163 1.463 . S
C1166 N1170 1.427 . S
C1167 H1157 0.929 . S
C1167 C1165 1.433 . S
C1167 N1170 1.384 . S
C1168 H1159 0.929 . S
C1168 C1160 1.378 . S
C1168 C1163 1.350 . S
C1169 H1156 0.929 1_655 S
C1169 C1161 1.433 . S
C1169 N1171 1.384 . S
N1170 C1166 1.427 . S
N1170 C1167 1.384 . S
N1171 C1163 1.427 . S
N1171 C1169 1.384 . S
H1172 C1178 0.930 . S
H1173 C1182 0.930 . S
H1174 C1187 0.929 . S
H1175 C1185 0.929 . S
H1176 C1180 0.929 . S
H1177 C1186 0.929 . S
C1178 H1172 0.930 . S
C1178 C1179 1.367 . S
C1178 C1186 1.378 . S
C1179 C1178 1.367 . S
C1179 C1187 1.433 . S
C1180 H1176 0.929 . S
C1180 C1182 1.378 . S
C1180 C1184 1.350 . S
C1181 C1184 1.463 . S
C1181 C1186 1.350 . S
C1181 N1189 1.427 . S
C1182 H1173 0.930 . S
C1182 C1180 1.378 . S
C1182 C1183 1.367 . S
C1183 C1182 1.367 . S
C1183 C1185 1.433 . S
C1184 C1180 1.350 . S
C1184 C1181 1.463 . S
C1184 N1188 1.427 . S
C1185 H1175 0.929 . S
C1185 C1183 1.433 . S
C1185 N1188 1.384 . S
C1186 H1177 0.929 . S
C1186 C1178 1.378 . S
C1186 C1181 1.350 . S
C1187 H1174 0.929 . S
C1187 C1179 1.433 . S
C1187 N1189 1.384 . S
N1188 C1184 1.427 . S
N1188 C1185 1.384 . S
N1189 C1181 1.427 . S
N1189 C1187 1.384 . S
H1190 C1196 0.930 . S
H1191 C1200 0.930 . S
H1192 C1205 0.929 . S
H1193 C1203 0.929 . S
H1194 C1198 0.929 . S
H1195 C1204 0.929 . S
C1196 H1190 0.930 . S
C1196 C1197 1.367 . S
C1196 C1204 1.378 . S
C1197 C1196 1.367 . S
C1197 C1205 1.433 . S
C1198 H1194 0.929 . S
C1198 C1200 1.378 . S
C1198 C1202 1.350 . S
C1199 C1202 1.463 . S
C1199 C1204 1.350 . S
C1199 N1207 1.427 . S
C1200 H1191 0.930 . S
C1200 C1198 1.378 . S
C1200 C1201 1.367 . S
C1201 C1200 1.367 . S
C1201 C1203 1.433 . S
C1202 C1198 1.350 . S
C1202 C1199 1.463 . S
C1202 N1206 1.427 . S
C1203 H1193 0.929 . S
C1203 C1201 1.433 . S
C1203 N1206 1.384 . S
C1204 H1195 0.929 . S
C1204 C1196 1.378 . S
C1204 C1199 1.350 . S
C1205 H1192 0.929 . S
C1205 C1197 1.433 . S
C1205 N1207 1.384 . S
N1206 C1202 1.427 . S
N1206 C1203 1.384 . S
N1207 C1199 1.427 . S
N1207 C1205 1.384 . S
H1208 C1214 0.930 . S
H1209 C1218 0.930 . S
H1210 C1223 0.929 . S
H1211 C1221 0.929 . S
H1212 C1216 0.929 . S
H1213 C1222 0.929 . S
C1214 H1208 0.930 . S
C1214 C1215 1.367 . S
C1214 C1222 1.378 . S
C1215 C1214 1.367 . S
C1215 C1223 1.433 . S
C1216 H1212 0.929 . S
C1216 C1218 1.378 . S
C1216 C1220 1.350 . S
C1217 C1220 1.463 . S
C1217 C1222 1.350 . S
C1217 N1225 1.427 . S
C1218 H1209 0.930 . S
C1218 C1216 1.378 . S
C1218 C1219 1.367 . S
C1219 C1218 1.367 . S
C1219 C1221 1.433 . S
C1220 C1216 1.350 . S
C1220 C1217 1.463 . S
C1220 N1224 1.427 . S
C1221 H1211 0.929 . S
C1221 C1219 1.433 . S
C1221 N1224 1.384 . S
C1222 H1213 0.929 . S
C1222 C1214 1.378 . S
C1222 C1217 1.350 . S
C1223 H1210 0.929 . S
C1223 C1215 1.433 . S
C1223 N1225 1.384 . S
N1224 C1220 1.427 . S
N1224 C1221 1.384 . S
N1225 C1217 1.427 . S
N1225 C1223 1.384 . S
H1226 C1232 0.930 . S
H1227 C1236 0.930 . S
H1228 C1241 0.929 . S
H1229 C1239 0.929 . S
H1230 C1234 0.929 . S
H1231 C1240 0.929 . S
C1232 H1226 0.930 . S
C1232 C1233 1.367 . S
C1232 C1240 1.378 . S
C1233 C1232 1.367 . S
C1233 C1241 1.433 . S
C1234 H1230 0.929 . S
C1234 C1236 1.378 . S
C1234 C1238 1.350 . S
C1235 C1238 1.463 . S
C1235 C1240 1.350 . S
C1235 N1243 1.427 . S
C1236 H1227 0.930 . S
C1236 C1234 1.378 . S
C1236 C1237 1.367 . S
C1237 C1236 1.367 . S
C1237 C1239 1.433 . S
C1238 C1234 1.350 . S
C1238 C1235 1.463 . S
C1238 N1242 1.427 . S
C1239 H1229 0.929 . S
C1239 C1237 1.433 . S
C1239 N1242 1.384 . S
C1240 H1231 0.929 . S
C1240 C1232 1.378 . S
C1240 C1235 1.350 . S
C1241 H1228 0.929 . S
C1241 C1233 1.433 . S
C1241 N1243 1.384 . S
N1242 C1238 1.427 . S
N1242 C1239 1.384 . S
N1243 C1235 1.427 . S
N1243 C1241 1.384 . S
H1244 C1250 0.930 . S
H1245 C1254 0.930 1_545 S
H1246 C1259 0.929 1_545 S
H1247 C1257 0.929 . S
H1248 C1252 0.929 1_545 S
H1249 C1258 0.929 . S
C1250 H1244 0.930 . S
C1250 C1251 1.367 . S
C1250 C1258 1.378 . S
C1251 C1250 1.367 . S
C1251 C1259 1.433 . S
C1252 H1248 0.929 1_565 S
C1252 C1254 1.378 . S
C1252 C1256 1.350 . S
C1253 C1256 1.463 . S
C1253 C1258 1.350 . S
C1253 N1261 1.427 . S
C1254 H1245 0.930 1_565 S
C1254 C1252 1.378 . S
C1254 C1255 1.367 . S
C1255 C1254 1.367 . S
C1255 C1257 1.433 . S
C1256 C1252 1.350 . S
C1256 C1253 1.463 . S
C1256 N1260 1.427 . S
C1257 H1247 0.929 . S
C1257 C1255 1.433 . S
C1257 N1260 1.384 . S
C1258 H1249 0.929 . S
C1258 C1250 1.378 . S
C1258 C1253 1.350 . S
C1259 H1246 0.929 1_565 S
C1259 C1251 1.433 . S
C1259 N1261 1.384 . S
N1260 C1256 1.427 . S
N1260 C1257 1.384 . S
N1261 C1253 1.427 . S
N1261 C1259 1.384 . S
H1262 C1268 0.930 . S
H1263 C1272 0.930 1_655 S
H1264 C1277 0.929 1_655 S
H1265 C1275 0.929 . S
H1266 C1270 0.929 1_655 S
H1267 C1276 0.929 . S
C1268 H1262 0.930 . S
C1268 C1269 1.367 . S
C1268 C1276 1.378 . S
C1269 C1268 1.367 . S
C1269 C1277 1.433 . S
C1270 H1266 0.929 1_455 S
C1270 C1272 1.378 . S
C1270 C1274 1.350 . S
C1271 C1274 1.463 . S
C1271 C1276 1.350 . S
C1271 N1279 1.427 . S
C1272 H1263 0.930 1_455 S
C1272 C1270 1.378 . S
C1272 C1273 1.367 . S
C1273 C1272 1.367 . S
C1273 C1275 1.433 . S
C1274 C1270 1.350 . S
C1274 C1271 1.463 . S
C1274 N1278 1.427 . S
C1275 H1265 0.929 . S
C1275 C1273 1.433 . S
C1275 N1278 1.384 . S
C1276 H1267 0.929 . S
C1276 C1268 1.378 . S
C1276 C1271 1.350 . S
C1277 H1264 0.929 1_455 S
C1277 C1269 1.433 . S
C1277 N1279 1.384 . S
N1278 C1274 1.427 . S
N1278 C1275 1.384 . S
N1279 C1271 1.427 . S
N1279 C1277 1.384 . S
H1280 C1286 0.930 . S
H1281 C1290 0.930 . S
H1282 C1295 0.929 . S
H1283 C1293 0.929 . S
H1284 C1288 0.929 . S
H1285 C1294 0.929 . S
C1286 H1280 0.930 . S
C1286 C1287 1.367 . S
C1286 C1294 1.378 . S
C1287 C1286 1.367 . S
C1287 C1295 1.433 . S
C1288 H1284 0.929 . S
C1288 C1290 1.378 . S
C1288 C1292 1.350 . S
C1289 C1292 1.463 . S
C1289 C1294 1.350 . S
C1289 N1297 1.427 . S
C1290 H1281 0.930 . S
C1290 C1288 1.378 . S
C1290 C1291 1.367 . S
C1291 C1290 1.367 . S
C1291 C1293 1.433 . S
C1292 C1288 1.350 . S
C1292 C1289 1.463 . S
C1292 N1296 1.427 . S
C1293 H1283 0.929 . S
C1293 C1291 1.433 . S
C1293 N1296 1.384 . S
C1294 H1285 0.929 . S
C1294 C1286 1.378 . S
C1294 C1289 1.350 . S
C1295 H1282 0.929 . S
C1295 C1287 1.433 . S
C1295 N1297 1.384 . S
N1296 C1292 1.427 . S
N1296 C1293 1.384 . S
N1297 C1289 1.427 . S
N1297 C1295 1.384 . S
H1298 C1304 0.930 . S
H1299 C1308 0.930 . S
H1300 C1313 0.929 . S
H1301 C1311 0.929 . S
H1302 C1306 0.929 . S
H1303 C1312 0.929 . S
C1304 H1298 0.930 . S
C1304 C1305 1.367 . S
C1304 C1312 1.378 . S
C1305 C1304 1.367 . S
C1305 C1313 1.433 . S
C1306 H1302 0.929 . S
C1306 C1308 1.378 . S
C1306 C1310 1.350 . S
C1307 C1310 1.463 . S
C1307 C1312 1.350 . S
C1307 N1315 1.427 . S
C1308 H1299 0.930 . S
C1308 C1306 1.378 . S
C1308 C1309 1.367 . S
C1309 C1308 1.367 . S
C1309 C1311 1.433 . S
C1310 C1306 1.350 . S
C1310 C1307 1.463 . S
C1310 N1314 1.427 . S
C1311 H1301 0.929 . S
C1311 C1309 1.433 . S
C1311 N1314 1.384 . S
C1312 H1303 0.929 . S
C1312 C1304 1.378 . S
C1312 C1307 1.350 . S
C1313 H1300 0.929 . S
C1313 C1305 1.433 . S
C1313 N1315 1.384 . S
N1314 C1310 1.427 . S
N1314 C1311 1.384 . S
N1315 C1307 1.427 . S
N1315 C1313 1.384 . S
H1316 C1322 0.930 . S
H1317 C1326 0.930 . S
H1318 C1331 0.929 . S
H1319 C1329 0.929 . S
H1320 C1324 0.929 . S
H1321 C1330 0.929 . S
C1322 H1316 0.930 . S
C1322 C1323 1.367 . S
C1322 C1330 1.378 . S
C1323 C1322 1.367 . S
C1323 C1331 1.433 . S
C1324 H1320 0.929 . S
C1324 C1326 1.378 . S
C1324 C1328 1.350 . S
C1325 C1328 1.463 . S
C1325 C1330 1.350 . S
C1325 N1333 1.427 . S
C1326 H1317 0.930 . S
C1326 C1324 1.378 . S
C1326 C1327 1.367 . S
C1327 C1326 1.367 . S
C1327 C1329 1.433 . S
C1328 C1324 1.350 . S
C1328 C1325 1.463 . S
C1328 N1332 1.427 . S
C1329 H1319 0.929 . S
C1329 C1327 1.433 . S
C1329 N1332 1.384 . S
C1330 H1321 0.929 . S
C1330 C1322 1.378 . S
C1330 C1325 1.350 . S
C1331 H1318 0.929 . S
C1331 C1323 1.433 . S
C1331 N1333 1.384 . S
N1332 C1328 1.427 . S
N1332 C1329 1.384 . S
N1333 C1325 1.427 . S
N1333 C1331 1.384 . S
H1334 C1340 0.930 . S
H1335 C1344 0.930 . S
H1336 C1349 0.929 . S
H1337 C1347 0.929 . S
H1338 C1342 0.936 . S
H1339 C1348 0.929 . S
C1340 H1334 0.930 . S
C1340 C1341 1.367 . S
C1340 C1348 1.378 . S
C1341 C1340 1.367 . S
C1341 C1349 1.433 . S
C1342 H1338 0.936 . S
C1342 C1344 1.371 1_556 S
C1342 C1346 1.348 1_556 S
C1343 C1346 1.437 1_556 S
C1343 C1348 1.350 . S
C1343 N1351 1.427 . S
C1344 H1335 0.930 . S
C1344 C1342 1.371 1_554 S
C1344 C1345 1.367 . S
C1345 C1344 1.367 . S
C1345 C1347 1.433 . S
C1346 C1342 1.348 1_554 S
C1346 C1343 1.437 1_554 S
C1346 N1350 1.456 . S
C1347 H1337 0.929 . S
C1347 C1345 1.433 . S
C1347 N1350 1.384 . S
C1348 H1339 0.929 . S
C1348 C1340 1.378 . S
C1348 C1343 1.350 . S
C1349 H1336 0.929 . S
C1349 C1341 1.433 . S
C1349 N1351 1.384 . S
N1350 C1346 1.456 . S
N1350 C1347 1.384 . S
N1351 C1343 1.427 . S
N1351 C1349 1.384 . S
H1352 C1358 0.930 . S
H1353 C1362 0.930 . S
H1354 C1367 0.929 . S
H1355 C1365 0.929 . S
H1356 C1360 0.953 . S
H1357 C1366 1.008 . S
C1358 H1352 0.930 . S
C1358 C1359 1.367 . S
C1358 C1366 1.311 1_554 S
C1359 C1358 1.367 . S
C1359 C1367 1.433 . S
C1360 H1356 0.953 . S
C1360 C1362 1.378 . S
C1360 C1364 1.350 . S
C1361 C1364 1.438 1_554 S
C1361 C1366 1.341 1_554 S
C1361 N1369 1.456 . S
C1362 H1353 0.930 . S
C1362 C1360 1.378 . S
C1362 C1363 1.367 . S
C1363 C1362 1.367 . S
C1363 C1365 1.433 . S
C1364 C1360 1.350 . S
C1364 C1361 1.438 1_556 S
C1364 N1368 1.427 . S
C1365 H1355 0.929 . S
C1365 C1363 1.433 . S
C1365 N1368 1.384 . S
C1366 H1357 1.008 . S
C1366 C1358 1.311 1_556 S
C1366 C1361 1.341 1_556 S
C1367 H1354 0.929 . S
C1367 C1359 1.433 . S
C1367 N1369 1.384 . S
N1368 C1364 1.427 . S
N1368 C1365 1.384 . S
N1369 C1361 1.456 . S
N1369 C1367 1.384 . S
H1370 C1376 0.930 . S
H1371 C1380 0.930 . S
H1372 C1385 0.929 . S
H1373 C1383 0.929 . S
H1374 C1378 0.929 . S
H1375 C1384 0.929 . S
C1376 H1370 0.930 . S
C1376 C1377 1.367 . S
C1376 C1384 1.378 . S
C1377 C1376 1.367 . S
C1377 C1385 1.433 . S
C1378 H1374 0.929 . S
C1378 C1380 1.378 . S
C1378 C1382 1.350 . S
C1379 C1382 1.463 . S
C1379 C1384 1.350 . S
C1379 N1387 1.427 . S
C1380 H1371 0.930 . S
C1380 C1378 1.378 . S
C1380 C1381 1.367 . S
C1381 C1380 1.367 . S
C1381 C1383 1.433 . S
C1382 C1378 1.350 . S
C1382 C1379 1.463 . S
C1382 N1386 1.427 . S
C1383 H1373 0.929 . S
C1383 C1381 1.433 . S
C1383 N1386 1.384 . S
C1384 H1375 0.929 . S
C1384 C1376 1.378 . S
C1384 C1379 1.350 . S
C1385 H1372 0.929 . S
C1385 C1377 1.433 . S
C1385 N1387 1.384 . S
N1386 C1382 1.427 . S
N1386 C1383 1.384 . S
N1387 C1379 1.427 . S
N1387 C1385 1.384 . S
H1388 C1394 0.930 . S
H1389 C1398 0.930 . S
H1390 C1403 0.929 . S
H1391 C1401 0.929 . S
H1392 C1396 0.929 . S
H1393 C1402 0.929 . S
C1394 H1388 0.930 . S
C1394 C1395 1.367 . S
C1394 C1402 1.378 . S
C1395 C1394 1.367 . S
C1395 C1403 1.433 . S
C1396 H1392 0.929 . S
C1396 C1398 1.378 . S
C1396 C1400 1.350 . S
C1397 C1400 1.463 . S
C1397 C1402 1.350 . S
C1397 N1405 1.427 . S
C1398 H1389 0.930 . S
C1398 C1396 1.378 . S
C1398 C1399 1.367 . S
C1399 C1398 1.367 . S
C1399 C1401 1.433 . S
C1400 C1396 1.350 . S
C1400 C1397 1.463 . S
C1400 N1404 1.427 . S
C1401 H1391 0.929 . S
C1401 C1399 1.433 . S
C1401 N1404 1.384 . S
C1402 H1393 0.929 . S
C1402 C1394 1.378 . S
C1402 C1397 1.350 . S
C1403 H1390 0.929 . S
C1403 C1395 1.433 . S
C1403 N1405 1.384 . S
N1404 C1400 1.427 . S
N1404 C1401 1.384 . S
N1405 C1397 1.427 . S
N1405 C1403 1.384 . S
H1406 C1412 0.930 . S
H1407 C1416 0.930 . S
H1408 C1421 0.929 . S
H1409 C1419 0.929 . S
H1410 C1414 0.929 . S
H1411 C1420 0.929 . S
C1412 H1406 0.930 . S
C1412 C1413 1.367 . S
C1412 C1420 1.378 . S
C1413 C1412 1.367 . S
C1413 C1421 1.433 . S
C1414 H1410 0.929 . S
C1414 C1416 1.378 . S
C1414 C1418 1.350 . S
C1415 C1418 1.463 . S
C1415 C1420 1.350 . S
C1415 N1423 1.427 . S
C1416 H1407 0.930 . S
C1416 C1414 1.378 . S
C1416 C1417 1.367 . S
C1417 C1416 1.367 . S
C1417 C1419 1.433 . S
C1418 C1414 1.350 . S
C1418 C1415 1.463 . S
C1418 N1422 1.427 . S
C1419 H1409 0.929 . S
C1419 C1417 1.433 . S
C1419 N1422 1.384 . S
C1420 H1411 0.929 . S
C1420 C1412 1.378 . S
C1420 C1415 1.350 . S
C1421 H1408 0.929 . S
C1421 C1413 1.433 . S
C1421 N1423 1.384 . S
N1422 C1418 1.427 . S
N1422 C1419 1.384 . S
N1423 C1415 1.427 . S
N1423 C1421 1.384 . S
C855 C569 2.381 . S
C859 C39 2.383 . S
C873 C75 2.126 . S
C877 C605 2.125 . S
C891 C463 2.379 . S
C895 C145 2.380 . S
C909 C499 2.126 . S
C913 C181 2.127 . S
C927 C251 2.384 . S
C931 C781 2.382 . S
C945 C817 2.127 . S
C949 C287 2.129 . S
C963 C357 2.380 . S
C967 C675 2.378 . S
C981 C711 2.125 . S
C985 C393 2.124 . S
C999 C568 1.286 . S
C1003 C38 1.283 . S
C1017 C82 0.999 . S
C1021 C612 0.996 . S
C1035 C144 1.277 . S
C1039 C462 1.280 . S
C1053 C188 0.993 . S
C1057 C506 0.991 . S
C1071 C250 1.289 . S
C1075 C780 1.288 . S
C1089 C294 1.007 . S
C1093 C824 1.006 . S
C1107 C674 1.275 . S
C1111 C356 1.274 . S
C1125 C718 1.007 . S
C1129 C400 1.007 . S
C1143 C22 1.911 . S
C1147 C340 1.908 . S
C1161 C92 1.812 . S
C1165 C410 1.815 . S
C1179 C128 1.914 . S
C1183 C234 1.910 . S
C1197 C198 1.820 . S
C1201 C304 1.816 . S
C1215 C446 1.919 . S
C1219 C764 1.917 . S
C1233 C834 1.812 . S
C1237 C516 1.814 . S
C1251 C552 1.915 . S
C1255 C658 1.918 . S
C1269 C728 1.812 . S
C1273 C622 1.814 . S
C1287 C29 1.904 . S
C1291 C833 1.909 . S
C1305 C665 1.896 . S
C1309 C91 1.905 . S
C1323 C727 1.903 . S
C1327 C135 1.895 . S
C1341 C771 1.902 . S
C1345 C197 1.910 . S
C1359 C515 1.910 . S
C1363 C241 1.904 . S
C1377 C559 1.895 . S
C1381 C303 1.903 . S
C1395 C347 1.903 . S
C1399 C621 1.911 . S
C1413 C409 1.909 . S
C1417 C453 1.903 . S
