# Generated by pormake.
# Topology fnl, (5)-cn, num edge types: 1
# Building blocks:
#     Node 0, Type 0, BuildingBlock: XOMCOT_clean_sbu_0, # of connection points: 5
#     Node 1, Type 0, BuildingBlock: XOMCOT_clean_sbu_0, # of connection points: 5
#     Node 2, Type 0, BuildingBlock: XOMCOT_clean_sbu_0, # of connection points: 5
#     Node 3, Type 0, BuildingBlock: XOMCOT_clean_sbu_0, # of connection points: 5
#     Node 4, Type 0, BuildingBlock: XOMCOT_clean_sbu_0, # of connection points: 5
#     Node 5, Type 0, BuildingBlock: XOMCOT_clean_sbu_0, # of connection points: 5
#     Node 6, Type 0, BuildingBlock: XOMCOT_clean_sbu_0, # of connection points: 5
#     Node 7, Type 0, BuildingBlock: XOMCOT_clean_sbu_0, # of connection points: 5
#     Node 8, Type 0, BuildingBlock: XOMCOT_clean_sbu_0, # of connection points: 5
#     Node 9, Type 0, BuildingBlock: XOMCOT_clean_sbu_0, # of connection points: 5
#     Node 10, Type 0, BuildingBlock: XOMCOT_clean_sbu_0, # of connection points: 5
#     Node 11, Type 0, BuildingBlock: XOMCOT_clean_sbu_0, # of connection points: 5
#     Node 12, Type 0, BuildingBlock: XOMCOT_clean_sbu_0, # of connection points: 5
#     Node 13, Type 0, BuildingBlock: XOMCOT_clean_sbu_0, # of connection points: 5
#     Node 14, Type 0, BuildingBlock: XOMCOT_clean_sbu_0, # of connection points: 5
#     Node 15, Type 0, BuildingBlock: XOMCOT_clean_sbu_0, # of connection points: 5
#     Edge 16, Type (0, 0), BuildingBlock: XUDNAN_clean_linker_2, # of connection points: 2
#     Edge 17, Type (0, 0), BuildingBlock: XUDNAN_clean_linker_2, # of connection points: 2
#     Edge 18, Type (0, 0), BuildingBlock: XUDNAN_clean_linker_2, # of connection points: 2
#     Edge 19, Type (0, 0), BuildingBlock: XUDNAN_clean_linker_2, # of connection points: 2
#     Edge 20, Type (0, 0), BuildingBlock: XUDNAN_clean_linker_2, # of connection points: 2
#     Edge 21, Type (0, 0), BuildingBlock: XUDNAN_clean_linker_2, # of connection points: 2
#     Edge 22, Type (0, 0), BuildingBlock: XUDNAN_clean_linker_2, # of connection points: 2
#     Edge 23, Type (0, 0), BuildingBlock: XUDNAN_clean_linker_2, # of connection points: 2
#     Edge 24, Type (0, 0), BuildingBlock: XUDNAN_clean_linker_2, # of connection points: 2
#     Edge 25, Type (0, 0), BuildingBlock: XUDNAN_clean_linker_2, # of connection points: 2
#     Edge 26, Type (0, 0), BuildingBlock: XUDNAN_clean_linker_2, # of connection points: 2
#     Edge 27, Type (0, 0), BuildingBlock: XUDNAN_clean_linker_2, # of connection points: 2
#     Edge 28, Type (0, 0), BuildingBlock: XUDNAN_clean_linker_2, # of connection points: 2
#     Edge 29, Type (0, 0), BuildingBlock: XUDNAN_clean_linker_2, # of connection points: 2
#     Edge 30, Type (0, 0), BuildingBlock: XUDNAN_clean_linker_2, # of connection points: 2
#     Edge 31, Type (0, 0), BuildingBlock: XUDNAN_clean_linker_2, # of connection points: 2
#     Edge 32, Type (0, 0), BuildingBlock: XUDNAN_clean_linker_2, # of connection points: 2
#     Edge 33, Type (0, 0), BuildingBlock: XUDNAN_clean_linker_2, # of connection points: 2
#     Edge 34, Type (0, 0), BuildingBlock: XUDNAN_clean_linker_2, # of connection points: 2
#     Edge 35, Type (0, 0), BuildingBlock: XUDNAN_clean_linker_2, # of connection points: 2
#     Edge 36, Type (0, 0), BuildingBlock: XUDNAN_clean_linker_2, # of connection points: 2
#     Edge 37, Type (0, 0), BuildingBlock: XUDNAN_clean_linker_2, # of connection points: 2
#     Edge 38, Type (0, 0), BuildingBlock: XUDNAN_clean_linker_2, # of connection points: 2
#     Edge 39, Type (0, 0), BuildingBlock: XUDNAN_clean_linker_2, # of connection points: 2
#     Edge 40, Type (0, 0), BuildingBlock: XUDNAN_clean_linker_2, # of connection points: 2
#     Edge 41, Type (0, 0), BuildingBlock: XUDNAN_clean_linker_2, # of connection points: 2
#     Edge 42, Type (0, 0), BuildingBlock: XUDNAN_clean_linker_2, # of connection points: 2
#     Edge 43, Type (0, 0), BuildingBlock: XUDNAN_clean_linker_2, # of connection points: 2
#     Edge 44, Type (0, 0), BuildingBlock: XUDNAN_clean_linker_2, # of connection points: 2
#     Edge 45, Type (0, 0), BuildingBlock: XUDNAN_clean_linker_2, # of connection points: 2
#     Edge 46, Type (0, 0), BuildingBlock: XUDNAN_clean_linker_2, # of connection points: 2
#     Edge 47, Type (0, 0), BuildingBlock: XUDNAN_clean_linker_2, # of connection points: 2
#     Edge 48, Type (0, 0), BuildingBlock: XUDNAN_clean_linker_2, # of connection points: 2
#     Edge 49, Type (0, 0), BuildingBlock: XUDNAN_clean_linker_2, # of connection points: 2
#     Edge 50, Type (0, 0), BuildingBlock: XUDNAN_clean_linker_2, # of connection points: 2
#     Edge 51, Type (0, 0), BuildingBlock: XUDNAN_clean_linker_2, # of connection points: 2
#     Edge 52, Type (0, 0), BuildingBlock: XUDNAN_clean_linker_2, # of connection points: 2
#     Edge 53, Type (0, 0), BuildingBlock: XUDNAN_clean_linker_2, # of connection points: 2
#     Edge 54, Type (0, 0), BuildingBlock: XUDNAN_clean_linker_2, # of connection points: 2
#     Edge 55, Type (0, 0), BuildingBlock: XUDNAN_clean_linker_2, # of connection points: 2
# Relax obj value: 0.530
# Max RMSD: 0.271
# Mean RMSD: 0.271
data_MOF--net-fnl--node1-XOMCOT_clean_sbu_0--edge1-XUDNAN_clean_linker_2
_symmetry_space_group_name_H-M    P1
_symmetry_Int_Tables_number       1
_symmetry_cell_setting            triclinic
loop_
_symmetry_equiv_pos_as_xyz
'x, y, z'
_cell_length_a     34.333638
_cell_length_b     34.266372
_cell_length_c     95.153749
_cell_angle_alpha  90.009415
_cell_angle_beta   89.963269
_cell_angle_gamma 90.040434
loop_
_atom_site_label
_atom_site_type_symbol
_atom_site_fract_x
_atom_site_fract_y
_atom_site_fract_z
_atom_type_partial_charge
Co0 Co 0.02915 0.04034 0.07905 0.0
C1 C 0.0199 0.12535 0.07923 0.0
C2 C 0.07773 0.10963 0.08533 0.0
C3 C 0.07561 0.14984 0.08436 0.0
N4 N 0.04239 0.09444 0.08236 0.0
N5 N 0.03917 0.15935 0.08038 0.0
H6 H 0.99052 0.12333 0.07549 0.0
H7 H 0.10364 0.09268 0.08741 0.0
C8 C 0.07038 0.03721 0.10712 0.0
O9 O 0.05174 0.0685 0.11142 0.0
N10 N 0.01585 0.98699 0.07543 0.0
C11 C 0.98076 0.9735 0.07148 0.0
C12 C 0.98322 0.93382 0.06989 0.0
C13 C 0.03938 0.95575 0.07601 0.0
N14 N 0.02016 0.92255 0.0727 0.0
C15 C 0.95038 0.0623 0.08547 0.0
C16 C 0.94351 0.019 0.10977 0.0
C17 C 0.91049 0.03822 0.10454 0.0
C18 C 0.91455 0.06072 0.09236 0.0
C19 C 0.97895 0.02178 0.10265 0.0
N20 N 0.98252 0.04396 0.09078 0.0
H21 H 0.9511 0.07575 0.07527 0.0
H22 H 0.00241 0.00335 0.10615 0.0
H23 H 0.95514 0.99127 0.06987 0.0
H24 H 0.06993 0.95771 0.07864 0.0
O25 O 0.00706 0.0541 0.06098 0.0
O26 O 0.06871 0.038 0.06476 0.0
O27 O 0.0634 0.02277 0.09503 0.0
C28 C 0.04167 0.04769 0.05588 0.0
H29 H 0.0994 0.17022 0.08574 0.0
H30 H 0.95928 0.915 0.06698 0.0
H31 H 0.9415 -0.00042 0.11872 0.0
H32 H 0.88975 0.07536 0.08771 0.0
Co33 Co 0.2583 0.80054 0.32686 0.0
C34 C 0.17517 0.82224 0.32947 0.0
C35 C 0.20847 0.8673 0.31951 0.0
C36 C 0.16988 0.87839 0.31962 0.0
N37 N 0.21167 0.83206 0.32574 0.0
N38 N 0.14911 0.84976 0.32581 0.0
H39 H 0.16737 0.7956 0.33471 0.0
H40 H 0.23243 0.88342 0.31494 0.0
C41 C 0.27002 0.86797 0.34618 0.0
O42 O 0.23324 0.86525 0.34983 0.0
N43 N 0.30419 0.76847 0.32756 0.0
C44 C 0.30427 0.72925 0.32852 0.0
C45 C 0.34196 0.71636 0.32809 0.0
C46 C 0.34177 0.77903 0.32635 0.0
N47 N 0.36558 0.74757 0.32662 0.0
C48 C 0.21568 0.7423 0.34198 0.0
C49 C 0.26096 0.74705 0.36586 0.0
C50 C 0.23923 0.71306 0.36348 0.0
C51 C 0.21438 0.71204 0.35181 0.0
C52 C 0.26145 0.77654 0.35582 0.0
N53 N 0.24042 0.77326 0.34368 0.0
H54 H 0.20002 0.73843 0.33224 0.0
H55 H 0.28298 0.79903 0.35715 0.0
H56 H 0.27867 0.71102 0.32918 0.0
H57 H 0.3512 0.80886 0.32483 0.0
O58 O 0.23763 0.76621 0.31248 0.0
O59 O 0.27327 0.81919 0.3086 0.0
O60 O 0.28537 0.84288 0.33793 0.0
C61 C 0.25466 0.78935 0.30353 0.0
H62 H 0.15793 0.90466 0.31502 0.0
H63 H 0.35107 0.6862 0.32872 0.0
H64 H 0.2813 0.74904 0.37453 0.0
H65 H 0.19691 0.68645 0.34959 0.0
Co66 Co 0.50939 0.04565 0.56367 0.0
C67 C 0.51714 0.96127 0.56843 0.0
C68 C 0.45891 0.97997 0.57267 0.0
C69 C 0.46041 0.93974 0.57383 0.0
N70 N 0.49483 0.99341 0.56951 0.0
N71 N 0.49713 0.92825 0.57099 0.0
H72 H 0.54709 0.96148 0.56523 0.0
H73 H 0.43315 0.99797 0.57352 0.0
C74 C 0.47361 0.05668 0.59204 0.0
O75 O 0.49286 0.0256 0.59618 0.0
N76 N 0.52477 0.0967 0.55734 0.0
C77 C 0.55784 0.1036 0.55015 0.0
C78 C 0.56056 0.14269 0.5475 0.0
C79 C 0.50764 0.13179 0.55904 0.0
N80 N 0.52904 0.16049 0.55303 0.0
C81 C 0.58871 0.02395 0.57018 0.0
C82 C 0.5964 0.07159 0.5934 0.0
C83 C 0.62772 0.04824 0.58934 0.0
C84 C 0.62413 0.02472 0.57744 0.0
C85 C 0.56185 0.07027 0.58577 0.0
N86 N 0.55721 0.04473 0.57484 0.0
H87 H 0.58738 0.00791 0.56045 0.0
H88 H 0.53971 0.09131 0.58835 0.0
H89 H 0.57902 0.08169 0.54726 0.0
H90 H 0.48044 0.1362 0.56456 0.0
O91 O 0.52893 0.02456 0.54617 0.0
O92 O 0.46834 0.04453 0.54989 0.0
O93 O 0.47769 0.06926 0.57948 0.0
C94 C 0.49411 0.03061 0.54123 0.0
H95 H 0.43611 0.92043 0.57588 0.0
H96 H 0.58474 0.15703 0.54233 0.0
H97 H 0.59915 0.09183 0.6021 0.0
H98 H 0.64867 0.00796 0.5736 0.0
Co99 Co 0.26673 0.27084 0.82132 0.0
C100 C 0.34883 0.26033 0.8307 0.0
C101 C 0.32864 0.21031 0.81939 0.0
C102 C 0.36777 0.20547 0.82228 0.0
N103 N 0.31675 0.24509 0.82454 0.0
N104 N 0.3802 0.23701 0.82944 0.0
H105 H 0.35 0.2883 0.83583 0.0
H106 H 0.31066 0.19025 0.8135 0.0
C107 C 0.25678 0.22765 0.84865 0.0
O108 O 0.29393 0.23246 0.85134 0.0
N109 N 0.21812 0.2973 0.81775 0.0
C110 C 0.21501 0.33498 0.81387 0.0
C111 C 0.1768 0.34311 0.8111 0.0
C112 C 0.18163 0.28273 0.81713 0.0
N113 N 0.15578 0.31027 0.81301 0.0
C114 C 0.30619 0.34264 0.82667 0.0
C115 C 0.26548 0.36111 0.8508 0.0
C116 C 0.28765 0.38988 0.84413 0.0
C117 C 0.30918 0.38025 0.8322 0.0
C118 C 0.26258 0.32418 0.8448 0.0
N119 N 0.28208 0.3155 0.83268 0.0
H120 H 0.32134 0.33611 0.81701 0.0
H121 H 0.24168 0.30429 0.84924 0.0
H122 H 0.239 0.3551 0.8127 0.0
H123 H 0.17451 0.25246 0.81912 0.0
O124 O 0.28498 0.2885 0.80317 0.0
O125 O 0.2537 0.23291 0.80713 0.0
O126 O 0.24164 0.24246 0.83762 0.0
C127 C 0.26955 0.25672 0.79816 0.0
H128 H 0.3858 0.18108 0.81914 0.0
H129 H 0.16549 0.3711 0.80779 0.0
H130 H 0.24755 0.36824 0.85982 0.0
H131 H 0.32594 0.40222 0.82667 0.0
Co132 Co 0.02938 0.04374 0.93008 0.0
C133 C 0.02114 0.95979 0.92534 0.0
C134 C 0.08024 0.9778 0.92185 0.0
C135 C 0.07737 0.93816 0.91928 0.0
N136 N 0.04485 0.99112 0.92559 0.0
N137 N 0.04005 0.92712 0.92139 0.0
H138 H 0.99058 0.96084 0.92806 0.0
H139 H 0.10611 0.99565 0.92091 0.0
C140 C 0.05866 0.09328 0.90598 0.0
O141 O 0.02551 0.1124 0.90562 0.0
N142 N 0.01323 0.09639 0.93497 0.0
C143 C 0.97891 0.10664 0.94083 0.0
C144 C 0.98019 0.14523 0.94453 0.0
C145 C 0.0354 0.12902 0.93559 0.0
N146 N 0.01561 0.15929 0.94123 0.0
C147 C 0.94848 0.03014 0.92443 0.0
C148 C 0.95357 0.03057 0.8955 0.0
C149 C 0.91668 0.02845 0.90182 0.0
C150 C 0.9146 0.02664 0.91649 0.0
C151 C 0.9868 0.03365 0.90389 0.0
N152 N 0.98371 0.03656 0.91816 0.0
H153 H 0.94618 0.02749 0.93568 0.0
H154 H 0.01484 0.03365 0.8988 0.0
H155 H 0.95491 0.08743 0.94305 0.0
H156 H 0.06565 0.13033 0.93242 0.0
O157 O 0.00846 0.02578 0.94785 0.0
O158 O 0.06888 0.04655 0.94437 0.0
O159 O 0.06301 0.06422 0.91427 0.0
C160 C 0.04259 0.03381 0.95306 0.0
H161 H 0.10064 0.91918 0.91579 0.0
H162 H 0.95689 0.16166 0.9494 0.0
H163 H 0.95685 0.03115 0.88419 0.0
H164 H 0.88695 0.02304 0.92182 0.0
Co165 Co 0.27177 0.80248 0.17774 0.0
C166 C 0.35628 0.8021 0.18215 0.0
C167 C 0.34124 0.84841 0.16816 0.0
C168 C 0.38116 0.84412 0.16815 0.0
N169 N 0.32545 0.82085 0.17655 0.0
N170 N 0.39044 0.81421 0.17672 0.0
H171 H 0.35367 0.77781 0.18928 0.0
H172 H 0.3255 0.86921 0.16191 0.0
C173 C 0.25416 0.85965 0.15372 0.0
O174 O 0.27627 0.84103 0.14466 0.0
N175 N 0.21917 0.78355 0.17919 0.0
C176 C 0.20865 0.74579 0.18007 0.0
C177 C 0.16886 0.7435 0.1792 0.0
C178 C 0.18585 0.80385 0.17805 0.0
N179 N 0.15448 0.78002 0.17788 0.0
C180 C 0.30783 0.74162 0.16183 0.0
C181 C 0.24934 0.73465 0.14211 0.0
C182 C 0.27757 0.70522 0.14308 0.0
C183 C 0.30793 0.7098 0.15272 0.0
C184 C 0.2503 0.76601 0.15144 0.0
N185 N 0.27893 0.769 0.16137 0.0
H186 H 0.32907 0.74179 0.17011 0.0
H187 H 0.22602 0.78604 0.15144 0.0
H188 H 0.22869 0.72149 0.1806 0.0
H189 H 0.18482 0.83526 0.17712 0.0
O190 O 0.28578 0.76507 0.19199 0.0
O191 O 0.26688 0.82599 0.19607 0.0
O192 O 0.25206 0.84862 0.16653 0.0
C193 C 0.27723 0.79215 0.20105 0.0
H194 H 0.4013 0.85988 0.16149 0.0
H195 H 0.15218 0.71674 0.17897 0.0
H196 H 0.2247 0.73179 0.13508 0.0
H197 H 0.33007 0.68753 0.15389 0.0
Co198 Co 0.49564 0.05285 0.41541 0.0
C199 C 0.48737 0.13983 0.41631 0.0
C200 C 0.43263 0.10988 0.41511 0.0
C201 C 0.42548 0.14921 0.41614 0.0
N202 N 0.47143 0.10394 0.41504 0.0
N203 N 0.45992 0.16803 0.41694 0.0
H204 H 0.51809 0.14542 0.41737 0.0
H205 H 0.41096 0.08699 0.41461 0.0
C206 C 0.45008 0.05441 0.3884 0.0
O207 O 0.45831 0.0915 0.38658 0.0
N208 N 0.51852 0.00151 0.41602 0.0
C209 C 0.5564 0.99171 0.4172 0.0
C210 C 0.55895 0.95182 0.41878 0.0
C211 C 0.49863 0.96777 0.41698 0.0
N212 N 0.52256 0.93696 0.41876 0.0
C213 C 0.56869 0.0903 0.41037 0.0
C214 C 0.58109 0.0585 0.3841 0.0
C215 C 0.61209 0.07624 0.39114 0.0
C216 C 0.60546 0.09344 0.4042 0.0
C217 C 0.54504 0.05523 0.39073 0.0
N218 N 0.53923 0.07035 0.40387 0.0
H219 H 0.56528 0.10068 0.421 0.0
H220 H 0.52367 0.03681 0.38581 0.0
H221 H 0.58043 0.01207 0.41752 0.0
H222 H 0.46715 0.96608 0.41689 0.0
O223 O 0.51674 0.06354 0.43387 0.0
O224 O 0.45887 0.03729 0.42969 0.0
O225 O 0.46388 0.03549 0.3988 0.0
C226 C 0.48458 0.04881 0.43881 0.0
H227 H 0.39704 0.16277 0.41638 0.0
H228 H 0.58534 0.93536 0.42067 0.0
H229 H 0.58583 0.04351 0.37421 0.0
H230 H 0.62926 0.10614 0.41012 0.0
Co231 Co 0.27648 0.27372 0.67305 0.0
C232 C 0.19343 0.26518 0.66793 0.0
C233 C 0.22195 0.2102 0.66538 0.0
C234 C 0.18207 0.20401 0.66552 0.0
N235 N 0.2289 0.24879 0.66685 0.0
N236 N 0.16454 0.23882 0.66722 0.0
H237 H 0.1885 0.29507 0.67091 0.0
H238 H 0.24416 0.18783 0.66561 0.0
C239 C 0.30156 0.22906 0.64699 0.0
O240 O 0.2696 0.23841 0.6402 0.0
N241 N 0.32279 0.29971 0.67958 0.0
C242 C 0.32313 0.33576 0.68519 0.0
C243 C 0.36075 0.34584 0.68822 0.0
C244 C 0.36027 0.28806 0.67933 0.0
N245 N 0.38423 0.3159 0.68459 0.0
C246 C 0.24377 0.34705 0.66459 0.0
C247 C 0.28965 0.35775 0.64109 0.0
C248 C 0.26485 0.38776 0.6454 0.0
C249 C 0.24162 0.38226 0.65726 0.0
C250 C 0.29166 0.32342 0.64891 0.0
N251 N 0.26824 0.31777 0.66037 0.0
H252 H 0.22768 0.34473 0.67428 0.0
H253 H 0.31423 0.30304 0.64622 0.0
H254 H 0.29772 0.35381 0.68681 0.0
H255 H 0.36964 0.25996 0.67542 0.0
O256 O 0.24965 0.29264 0.68969 0.0
O257 O 0.28068 0.23611 0.68795 0.0
O258 O 0.30842 0.24286 0.6592 0.0
C259 C 0.26093 0.26035 0.69562 0.0
H260 H 0.16744 0.17603 0.66584 0.0
H261 H 0.36998 0.37367 0.69242 0.0
H262 H 0.30943 0.36196 0.63234 0.0
H263 H 0.22332 0.40559 0.66119 0.0
Co264 Co 0.78161 0.30633 0.67378 0.0
C265 C 0.86817 0.30753 0.67188 0.0
C266 C 0.84451 0.36352 0.67717 0.0
C267 C 0.88444 0.36553 0.6782 0.0
N268 N 0.83421 0.32707 0.67324 0.0
N269 N 0.89907 0.33029 0.67485 0.0
H270 H 0.87072 0.2768 0.66975 0.0
H271 H 0.82427 0.38663 0.67973 0.0
C272 C 0.78181 0.36457 0.6499 0.0
O273 O 0.81945 0.36061 0.64796 0.0
N274 N 0.72946 0.28587 0.67466 0.0
C275 C 0.71847 0.24809 0.67503 0.0
C276 C 0.67855 0.24643 0.67609 0.0
C277 C 0.69638 0.30667 0.67572 0.0
N278 N 0.6649 0.28325 0.67659 0.0
C279 C 0.81213 0.23223 0.66509 0.0
C280 C 0.77865 0.2326 0.63873 0.0
C281 C 0.79502 0.19778 0.64374 0.0
C282 C 0.81334 0.19839 0.6569 0.0
C283 C 0.77845 0.26584 0.64715 0.0
N284 N 0.79433 0.26534 0.66031 0.0
H285 H 0.8235 0.23102 0.67566 0.0
H286 H 0.76223 0.29053 0.64339 0.0
H287 H 0.73797 0.22338 0.6749 0.0
H288 H 0.69543 0.33824 0.67602 0.0
O289 O 0.7935 0.28018 0.69145 0.0
O290 O 0.7702 0.34021 0.68925 0.0
O291 O 0.76363 0.34373 0.65886 0.0
C292 C 0.78174 0.31233 0.69744 0.0
H293 H 0.90133 0.39041 0.68166 0.0
H294 H 0.66104 0.22027 0.67702 0.0
H295 H 0.76301 0.23357 0.62886 0.0
H296 H 0.82652 0.17232 0.66122 0.0
Co297 Co 0.76606 0.75626 0.17517 0.0
C298 C 0.68194 0.74243 0.17207 0.0
C299 C 0.71412 0.68922 0.17011 0.0
C300 C 0.67492 0.6807 0.16913 0.0
N301 N 0.71832 0.7281 0.17173 0.0
N302 N 0.65491 0.7144 0.17032 0.0
H303 H 0.67495 0.7723 0.17438 0.0
H304 H 0.73786 0.6685 0.16988 0.0
C305 C 0.77758 0.71749 0.14738 0.0
O306 O 0.74243 0.72932 0.14397 0.0
N307 N 0.81305 0.78486 0.17889 0.0
C308 C 0.8142 0.82127 0.18427 0.0
C309 C 0.85169 0.8349 0.18352 0.0
C310 C 0.84982 0.77652 0.17506 0.0
N311 N 0.87385 0.80679 0.17772 0.0
C312 C 0.72569 0.82727 0.16804 0.0
C313 C 0.7679 0.84255 0.14397 0.0
C314 C 0.74246 0.8709 0.14909 0.0
C315 C 0.72097 0.86314 0.16122 0.0
C316 C 0.77263 0.80781 0.15129 0.0
N317 N 0.75087 0.79961 0.16298 0.0
H318 H 0.71153 0.82339 0.17805 0.0
H319 H 0.79654 0.78951 0.14815 0.0
H320 H 0.7892 0.83735 0.18803 0.0
H321 H 0.85859 0.74967 0.16997 0.0
O322 O 0.74529 0.77502 0.19279 0.0
O323 O 0.77829 0.71992 0.19005 0.0
O324 O 0.79213 0.72667 0.15931 0.0
C325 C 0.7605 0.74402 0.19844 0.0
H326 H 0.66222 0.65202 0.16783 0.0
H327 H 0.86191 0.86326 0.18693 0.0
H328 H 0.78667 0.84869 0.13507 0.0
H329 H 0.70256 0.88538 0.16584 0.0
Co330 Co 0.76371 0.28866 0.82277 0.0
C331 C 0.67929 0.29524 0.82717 0.0
C332 C 0.70896 0.34783 0.83323 0.0
C333 C 0.66996 0.35172 0.83639 0.0
N334 N 0.71466 0.3123 0.82756 0.0
N335 N 0.65144 0.31856 0.83261 0.0
H336 H 0.67433 0.26575 0.82353 0.0
H337 H 0.73167 0.36898 0.83524 0.0
C338 C 0.81808 0.30497 0.8467 0.0
O339 O 0.83071 0.2689 0.84568 0.0
N340 N 0.81331 0.26508 0.81778 0.0
C341 C 0.82341 0.22703 0.81679 0.0
C342 C 0.86262 0.22455 0.81392 0.0
C343 C 0.84636 0.28505 0.8151 0.0
N344 N 0.87678 0.26102 0.81287 0.0
C345 C 0.73555 0.21076 0.8271 0.0
C346 C 0.74818 0.20823 0.85568 0.0
C347 C 0.74176 0.17295 0.84843 0.0
C348 C 0.73168 0.17534 0.83416 0.0
C349 C 0.74998 0.24328 0.84824 0.0
N350 N 0.74879 0.24323 0.83392 0.0
H351 H 0.73087 0.21111 0.81589 0.0
H352 H 0.75436 0.26993 0.85403 0.0
H353 H 0.80444 0.20236 0.81817 0.0
H354 H 0.84843 0.31657 0.81537 0.0
O355 O 0.74323 0.27263 0.80473 0.0
O356 O 0.77292 0.32885 0.809 0.0
O357 O 0.78966 0.31663 0.83909 0.0
C358 C 0.75663 0.30557 0.79996 0.0
H359 H 0.65639 0.37685 0.84124 0.0
H360 H 0.87945 0.19806 0.8127 0.0
H361 H 0.75449 0.20906 0.8668 0.0
H362 H 0.72353 0.1497 0.82821 0.0
Co363 Co 0.76052 0.78407 0.32357 0.0
C364 C 0.8443 0.79066 0.32519 0.0
C365 C 0.82582 0.73637 0.33429 0.0
C366 C 0.8655 0.7404 0.33629 0.0
N367 N 0.81291 0.76814 0.3274 0.0
N368 N 0.87668 0.77485 0.3307 0.0
H369 H 0.84308 0.8188 0.32006 0.0
H370 H 0.80756 0.71288 0.33807 0.0
C371 C 0.71698 0.77121 0.35016 0.0
O372 O 0.70358 0.80688 0.34863 0.0
N373 N 0.70753 0.7998 0.31941 0.0
C374 C 0.69377 0.83322 0.31373 0.0
C375 C 0.65399 0.83058 0.31256 0.0
C376 C 0.67603 0.7767 0.32092 0.0
N377 N 0.64309 0.79508 0.3171 0.0
C378 C 0.77311 0.86681 0.32611 0.0
C379 C 0.78811 0.86747 0.35455 0.0
C380 C 0.78204 0.90325 0.34767 0.0
C381 C 0.77664 0.90246 0.33304 0.0
C382 C 0.78316 0.83253 0.34721 0.0
N383 N 0.77175 0.83271 0.33345 0.0
H384 H 0.77083 0.8668 0.31482 0.0
H385 H 0.78766 0.80533 0.3527 0.0
H386 H 0.71067 0.85767 0.31018 0.0
H387 H 0.67714 0.74722 0.32499 0.0
O388 O 0.77568 0.79939 0.30485 0.0
O389 O 0.75419 0.74058 0.31085 0.0
O390 O 0.74154 0.75743 0.34133 0.0
C391 C 0.76626 0.76416 0.30105 0.0
H392 H 0.88425 0.72053 0.34198 0.0
H393 H 0.63464 0.85267 0.30839 0.0
H394 H 0.79526 0.86626 0.36562 0.0
H395 H 0.77321 0.92886 0.32694 0.0
Co396 Co 0.54307 0.54532 0.58434 0.0
C397 C 0.55459 0.63148 0.58323 0.0
C398 C 0.60854 0.60012 0.58277 0.0
C399 C 0.61639 0.63919 0.58096 0.0
N400 N 0.56973 0.59525 0.58424 0.0
N401 N 0.58236 0.65872 0.58125 0.0
H402 H 0.52399 0.63809 0.58307 0.0
H403 H 0.6296 0.57666 0.58259 0.0
C404 C 0.59161 0.54667 0.61058 0.0
O405 O 0.58583 0.58435 0.61199 0.0
N406 N 0.51699 0.4952 0.58407 0.0
C407 C 0.4784 0.48775 0.58496 0.0
C408 C 0.47211 0.44879 0.58236 0.0
C409 C 0.53347 0.46074 0.58077 0.0
N410 N 0.50672 0.43212 0.57961 0.0
C411 C 0.47189 0.58642 0.58913 0.0
C412 C 0.45779 0.55513 0.61536 0.0
C413 C 0.4269 0.57266 0.60804 0.0
C414 C 0.43518 0.59091 0.5952 0.0
C415 C 0.49435 0.55202 0.60905 0.0
N416 N 0.50061 0.5659 0.59578 0.0
H417 H 0.47578 0.59622 0.57844 0.0
H418 H 0.51563 0.53412 0.61427 0.0
H419 H 0.45581 0.50917 0.58651 0.0
H420 H 0.56414 0.45703 0.57849 0.0
O421 O 0.52294 0.5558 0.56564 0.0
O422 O 0.57928 0.52714 0.57038 0.0
O423 O 0.5743 0.52733 0.60098 0.0
C424 C 0.55475 0.53947 0.56103 0.0
H425 H 0.64476 0.65209 0.57919 0.0
H426 H 0.44409 0.43449 0.58144 0.0
H427 H 0.45298 0.53991 0.62518 0.0
H428 H 0.41249 0.60526 0.58923 0.0
Co429 Co 0.01361 0.53804 0.06774 0.0
C430 C 0.99171 0.45558 0.0724 0.0
C431 C 0.94231 0.49101 0.06731 0.0
C432 C 0.9302 0.45276 0.06835 0.0
N433 N 0.98089 0.49265 0.06992 0.0
N434 N 0.96143 0.43073 0.07159 0.0
H435 H 0.02128 0.4462 0.07392 0.0
H436 H 0.92452 0.51576 0.06441 0.0
C437 C 0.95718 0.55948 0.09052 0.0
O438 O 0.96415 0.52583 0.09664 0.0
N439 N 0.0465 0.58303 0.06537 0.0
C440 C 0.08533 0.58225 0.06323 0.0
C441 C 0.0992 0.61983 0.06343 0.0
C442 C 0.0371 0.62089 0.06673 0.0
N443 N 0.06884 0.64398 0.06562 0.0
C444 C 0.07512 0.49743 0.0817 0.0
C445 C 0.08093 0.54955 0.1037 0.0
C446 C 0.11205 0.5246 0.10084 0.0
C447 C 0.10839 0.49708 0.09014 0.0
C448 C 0.04865 0.54954 0.09489 0.0
N449 N 0.04613 0.52427 0.08379 0.0
H450 H 0.07541 0.47939 0.07243 0.0
H451 H 0.02879 0.57357 0.09602 0.0
H452 H 0.10255 0.55608 0.06196 0.0
H453 H 0.00799 0.63124 0.06897 0.0
O454 O 0.0428 0.51237 0.05306 0.0
O455 O 0.9898 0.54812 0.04972 0.0
O456 O 0.97564 0.5693 0.0794 0.0
C457 C 0.01825 0.52803 0.04434 0.0
H458 H 0.90103 0.44191 0.06651 0.0
H459 H 0.12926 0.62868 0.06213 0.0
H460 H 0.08367 0.57223 0.11159 0.0
H461 H 0.13265 0.4784 0.08736 0.0
Co462 Co 0.54441 0.55248 0.43738 0.0
C463 C 0.53031 0.47385 0.42693 0.0
C464 C 0.59157 0.48419 0.42891 0.0
C465 C 0.58573 0.44507 0.42613 0.0
N466 N 0.55671 0.50227 0.42921 0.0
N467 N 0.54706 0.43859 0.42506 0.0
H468 H 0.49926 0.47857 0.42762 0.0
H469 H 0.61904 0.49789 0.43149 0.0
C470 C 0.59557 0.57582 0.41198 0.0
O471 O 0.59908 0.54033 0.40697 0.0
N472 N 0.53111 0.60255 0.4457 0.0
C473 C 0.51992 0.6108 0.459 0.0
C474 C 0.50935 0.64947 0.45976 0.0
C475 C 0.52675 0.63634 0.43858 0.0
N476 N 0.51386 0.66533 0.44692 0.0
C477 C 0.46286 0.55832 0.43392 0.0
C478 C 0.46124 0.55854 0.40489 0.0
C479 C 0.42628 0.56336 0.41236 0.0
C480 C 0.42735 0.56248 0.42705 0.0
C481 C 0.49631 0.55448 0.41221 0.0
N482 N 0.49678 0.55527 0.42654 0.0
H483 H 0.46326 0.55843 0.44527 0.0
H484 H 0.5229 0.55083 0.40635 0.0
H485 H 0.51817 0.59028 0.46756 0.0
H486 H 0.531 0.63934 0.42737 0.0
O487 O 0.52453 0.52534 0.4536 0.0
O488 O 0.5855 0.5457 0.45102 0.0
O489 O 0.5749 0.58265 0.42286 0.0
C490 C 0.55937 0.52869 0.45884 0.0
H491 H 0.608 0.42274 0.42605 0.0
H492 H 0.49897 0.66472 0.46899 0.0
H493 H 0.46169 0.55918 0.39351 0.0
H494 H 0.401 0.56554 0.43322 0.0
Co495 Co 0.01829 0.54147 0.91875 0.0
C496 C -0.0005 0.62542 0.91503 0.0
C497 C 0.94807 0.59044 0.91664 0.0
C498 C 0.93725 0.62919 0.9161 0.0
N499 N 0.98717 0.58804 0.91574 0.0
N500 N 0.96976 0.65119 0.91515 0.0
H501 H 0.02952 0.63403 0.91497 0.0
H502 H 0.92881 0.56583 0.91821 0.0
C503 C 0.95996 0.51251 0.8967 0.0
O504 O 0.96014 0.54554 0.8897 0.0
N505 N 0.04874 0.49496 0.92203 0.0
C506 C 0.08717 0.48917 0.91985 0.0
C507 C 0.09615 0.45117 0.92337 0.0
C508 C 0.03509 0.46094 0.92711 0.0
N509 N 0.06337 0.43382 0.92798 0.0
C510 C 0.07914 0.58139 0.90418 0.0
C511 C 0.0841 0.53044 0.88182 0.0
C512 C 0.11384 0.55804 0.8838 0.0
C513 C 0.10991 0.58498 0.89474 0.0
C514 C 0.05324 0.52835 0.89137 0.0
N515 N 0.05129 0.5532 0.90259 0.0
H516 H 0.08041 0.5989 0.91354 0.0
H517 H 0.03371 0.5039 0.89048 0.0
H518 H 0.10739 0.51092 0.91604 0.0
H519 H 0.00502 0.45607 0.93006 0.0
O520 O 0.04789 0.56771 0.9332 0.0
O521 O 0.99333 0.53445 0.93674 0.0
O522 O 0.98109 0.50828 0.90762 0.0
C523 C 0.02227 0.55407 0.94199 0.0
H524 H 0.90784 0.64022 0.91702 0.0
H525 H 0.1246 0.43761 0.92291 0.0
H526 H 0.08643 0.50811 0.87381 0.0
H527 H 0.13223 0.60663 0.89674 0.0
H528 H 0.01068 0.38838 0.08768 0.0
H529 H 0.91881 0.37874 0.05661 0.0
H530 H 0.92892 0.3074 0.05562 0.0
H531 H 0.07424 0.31935 0.07257 0.0
H532 H 0.09089 0.29946 0.08904 0.0
H533 H 0.07464 0.34935 0.08813 0.0
H534 H 0.02421 0.33627 0.10786 0.0
H535 H 0.04066 0.28645 0.10897 0.0
H536 H 0.9899 0.29678 0.10592 0.0
H537 H 0.95264 0.23885 0.05654 0.0
H538 H 0.98371 0.17549 0.06095 0.0
H539 H 0.0597 0.22907 0.09189 0.0
C540 C 0.99251 0.37116 0.08076 0.0
C541 C 0.964 0.38895 0.07219 0.0
C542 C 0.94046 0.36557 0.06336 0.0
C543 C 0.94623 0.32515 0.06265 0.0
C544 C 0.9754 0.30874 0.07094 0.0
C545 C 0.99779 0.33087 0.07997 0.0
C546 C 0.02757 0.30611 0.08759 0.0
C547 C 0.0693 0.31937 0.08412 0.0
C548 C 0.02012 0.30642 0.10353 0.0
C549 C 0.01879 0.26658 0.08127 0.0
C550 C 0.98865 0.26887 0.07167 0.0
C551 C 0.97579 0.23652 0.0642 0.0
C552 C 0.99356 0.2006 0.06685 0.0
C553 C 0.02367 0.19718 0.07699 0.0
C554 C 0.03681 0.23082 0.08411 0.0
H555 H 0.10621 0.78332 0.32665 0.0
H556 H 0.09756 0.90963 0.32804 0.0
H557 H 0.02597 0.90407 0.33044 0.0
H558 H 0.02187 0.76582 0.30667 0.0
H559 H 0.00849 0.72206 0.31602 0.0
H560 H 0.05887 0.73625 0.31486 0.0
H561 H 0.06422 0.73498 0.34203 0.0
H562 H 0.0138 0.72077 0.34329 0.0
H563 H 0.03085 0.7636 0.35242 0.0
H564 H 0.95564 0.88435 0.33221 0.0
H565 H 0.89133 0.85236 0.33262 0.0
H566 H 0.94693 0.7389 0.33035 0.0
C567 C 0.08952 0.80991 0.32773 0.0
C568 C 0.10753 0.84698 0.32729 0.0
C569 C 0.08431 0.88098 0.32827 0.0
C570 C 0.04374 0.87808 0.32974 0.0
C571 C 0.02709 0.84097 0.33022 0.0
C572 C 0.04927 0.80752 0.32924 0.0
C573 C 0.02436 0.77113 0.32964 0.0
C574 C 0.02866 0.74744 0.31598 0.0
C575 C 0.03388 0.74616 0.34262 0.0
C576 C 0.98445 0.7893 0.33081 0.0
C577 C 0.98667 0.8296 0.33121 0.0
C578 C 0.95356 0.85284 0.33191 0.0
C579 C 0.91719 0.8344 0.33203 0.0
C580 C 0.91426 0.79314 0.33139 0.0
C581 C 0.9484 0.77041 0.33097 0.0
H582 H 0.47369 0.86369 0.5855 0.0
H583 H 0.55492 0.904 0.55366 0.0
H584 H 0.58588 0.83947 0.55321 0.0
H585 H 0.53977 0.80405 0.6044 0.0
H586 H 0.50554 0.7653 0.60784 0.0
H587 H 0.48841 0.81454 0.60552 0.0
H588 H 0.44256 0.79171 0.58552 0.0
H589 H 0.45926 0.74231 0.58788 0.0
H590 H 0.46246 0.76505 0.57084 0.0
H591 H 0.61078 0.7724 0.55704 0.0
H592 H 0.62407 0.70385 0.5634 0.0
H593 H 0.52576 0.70519 0.59205 0.0
C594 C 0.49759 0.85869 0.5783 0.0
C595 C 0.51231 0.88919 0.56983 0.0
C596 C 0.54378 0.88153 0.56056 0.0
C597 C 0.56146 0.84484 0.56014 0.0
C598 C 0.54708 0.81581 0.56891 0.0
C599 C 0.51552 0.82197 0.57767 0.0
C600 C 0.50604 0.78548 0.58601 0.0
C601 C 0.5102 0.7928 0.60188 0.0
C602 C 0.46516 0.77024 0.58234 0.0
C603 C 0.53748 0.7582 0.58065 0.0
C604 C 0.56091 0.77642 0.57085 0.0
C605 C 0.59252 0.75764 0.56464 0.0
C606 C 0.60007 0.71888 0.56841 0.0
C607 C 0.57596 0.6993 0.5782 0.0
C608 C 0.5444 0.71939 0.58443 0.0
H609 H 0.44722 0.21923 0.81556 0.0
H610 H 0.40165 0.27858 0.8523 0.0
H611 H 0.46729 0.3039 0.85764 0.0
H612 H 0.5432 0.19357 0.83095 0.0
H613 H 0.56851 0.20192 0.81462 0.0
H614 H 0.51866 0.18542 0.81447 0.0
H615 H 0.49981 0.24458 0.79895 0.0
H616 H 0.54944 0.2615 0.79919 0.0
H617 H 0.51078 0.29326 0.80496 0.0
H618 H 0.53614 0.32752 0.85782 0.0
H619 H 0.60498 0.34473 0.85365 0.0
H620 H 0.60645 0.26992 0.81687 0.0
C621 C 0.45133 0.23663 0.82494 0.0
C622 C 0.41936 0.24697 0.83352 0.0
C623 C 0.4257 0.27061 0.84552 0.0
C624 C 0.46288 0.28499 0.84867 0.0
C625 C 0.49355 0.27531 0.83975 0.0
C626 C 0.48835 0.25133 0.82822 0.0
C627 C 0.5259 0.24707 0.81996 0.0
C628 C 0.53989 0.20446 0.82001 0.0
C629 C 0.52118 0.26254 0.80487 0.0
C630 C 0.55273 0.27294 0.82852 0.0
C631 C 0.53348 0.28886 0.8399 0.0
C632 C 0.55165 0.31496 0.84902 0.0
C633 C 0.59066 0.32486 0.84649 0.0
C634 C 0.61114 0.30868 0.83494 0.0
C635 C 0.59176 0.28232 0.82589 0.0
H636 H 0.03288 0.69556 0.92256 0.0
H637 H 0.9134 0.70329 0.90781 0.0
H638 H 0.9185 0.77513 0.90782 0.0
H639 H 0.03103 0.7785 0.94514 0.0
H640 H 0.08 0.79349 0.94094 0.0
H641 H 0.06672 0.74272 0.93995 0.0
H642 H 0.09 0.74031 0.91405 0.0
H643 H 0.10338 0.79108 0.91496 0.0
H644 H 0.07026 0.77446 0.90154 0.0
H645 H 0.93667 0.84633 0.90956 0.0
H646 H 0.96665 0.91128 0.91264 0.0
H647 H 0.07487 0.8567 0.92545 0.0
C648 C 0.00779 0.71202 0.91914 0.0
C649 C 0.97265 0.69333 0.91515 0.0
C650 C 0.94047 0.71665 0.91107 0.0
C651 C 0.94317 0.75755 0.91096 0.0
C652 C 0.97829 0.77481 0.9149 0.0
C653 C 0.01004 0.75277 0.91887 0.0
C654 C 0.04453 0.7784 0.9226 0.0
C655 C 0.05624 0.77295 0.93808 0.0
C656 C 0.07908 0.77059 0.91269 0.0
C657 C 0.02723 0.81843 0.92009 0.0
C658 C 0.98893 0.81571 0.91571 0.0
C659 C 0.96662 0.84877 0.91299 0.0
C660 C 0.98385 0.88554 0.91484 0.0
C661 C 0.02308 0.88906 0.91931 0.0
C662 C 0.045 0.85492 0.92188 0.0
H663 H 0.46258 0.84149 0.16977 0.0
H664 H 0.4013 0.73791 0.1843 0.0
H665 H 0.46206 0.70102 0.18371 0.0
H666 H 0.52404 0.79065 0.14533 0.0
H667 H 0.56586 0.82118 0.14855 0.0
H668 H 0.51752 0.84069 0.1507 0.0
H669 H 0.5339 0.86079 0.1763 0.0
H670 H 0.58237 0.84163 0.17418 0.0
H671 H 0.55203 0.82456 0.18837 0.0
H672 H 0.52953 0.67439 0.18139 0.0
H673 H 0.59987 0.66166 0.17832 0.0
H674 H 0.61587 0.7806 0.16367 0.0
C675 C 0.46182 0.81112 0.17285 0.0
C676 C 0.42683 0.79318 0.17725 0.0
C677 C 0.42748 0.75317 0.18123 0.0
C678 C 0.46195 0.73154 0.18078 0.0
C679 C 0.49562 0.75002 0.17621 0.0
C680 C 0.49591 0.78889 0.17233 0.0
C681 C 0.53604 0.80156 0.16764 0.0
C682 C 0.53583 0.81426 0.15213 0.0
C683 C 0.55202 0.83405 0.1772 0.0
C684 C 0.55814 0.76379 0.16962 0.0
C685 C 0.53435 0.73437 0.17454 0.0
C686 C 0.54853 0.69714 0.17747 0.0
C687 C 0.58843 0.69008 0.1756 0.0
C688 C 0.61346 0.72016 0.17086 0.0
C689 C 0.59771 0.75714 0.16755 0.0
H690 H 0.52392 0.21091 0.40965 0.0
H691 H 0.40964 0.21915 0.42902 0.0
H692 H 0.41933 0.28958 0.43254 0.0
H693 H 0.57162 0.27871 0.43283 0.0
H694 H 0.60193 0.29954 0.4193 0.0
H695 H 0.58579 0.24967 0.41788 0.0
H696 H 0.55586 0.26457 0.39348 0.0
H697 H 0.57186 0.31451 0.39483 0.0
H698 H 0.52118 0.30375 0.39175 0.0
H699 H 0.44142 0.35828 0.43453 0.0
H700 H 0.4746 0.4216 0.435 0.0
H701 H 0.575 0.37024 0.41424 0.0
C702 C 0.50101 0.22745 0.4147 0.0
C703 C 0.46587 0.20934 0.41897 0.0
C704 C 0.4365 0.23227 0.42541 0.0
C705 C 0.44182 0.27234 0.42754 0.0
C706 C 0.47668 0.28919 0.42319 0.0
C707 C 0.50583 0.26759 0.41691 0.0
C708 C 0.54065 0.29306 0.41336 0.0
C709 C 0.57715 0.27943 0.42132 0.0
C710 C 0.54779 0.29402 0.3974 0.0
C711 C 0.5265 0.33226 0.41872 0.0
C712 C 0.48949 0.32923 0.42431 0.0
C713 C 0.47029 0.36115 0.43008 0.0
C714 C 0.48939 0.39722 0.43017 0.0
C715 C 0.52742 0.40132 0.4245 0.0
C716 C 0.54607 0.36819 0.41869 0.0
H717 H 0.9397 0.2834 0.65722 0.0
H718 H 0.94718 0.34793 0.69628 0.0
H719 H 0.01442 0.32411 0.69976 0.0
H720 H -0.00128 0.19926 0.66774 0.0
H721 H 0.02252 0.19512 0.65092 0.0
H722 H 0.97375 0.21435 0.652 0.0
H723 H 0.99585 0.27722 0.63913 0.0
H724 H 0.04449 0.258 0.63787 0.0
H725 H 0.03632 0.30483 0.64598 0.0
H726 H 0.08035 0.29549 0.69876 0.0
H727 H 0.14499 0.27031 0.69195 0.0
H728 H 0.09718 0.22596 0.653 0.0
C729 C 0.95559 0.29212 0.66653 0.0
C730 C 0.93853 0.31735 0.67653 0.0
C731 C 0.96006 0.32885 0.68849 0.0
C732 C 0.99799 0.31514 0.69061 0.0
C733 C 0.01401 0.2902 0.68059 0.0
C734 C 0.99382 0.27919 0.66868 0.0
C735 C 0.01917 0.25482 0.65899 0.0
C736 C 0.00254 0.21342 0.65732 0.0
C737 C 0.02426 0.27493 0.64465 0.0
C738 C 0.05695 0.2544 0.66724 0.0
C739 C 0.0529 0.27439 0.6798 0.0
C740 C 0.08387 0.27961 0.68901 0.0
C741 C 0.12035 0.26522 0.68509 0.0
C742 C 0.12566 0.2462 0.67203 0.0
C743 C 0.09343 0.23979 0.66314 0.0
H744 H 0.98848 0.0465 0.03442 0.0
H745 H 0.1126 0.04854 0.04304 0.0
H746 H 0.12628 0.04361 0.01763 0.0
H747 H 0.99279 0.976 0.00689 0.0
H748 H 0.95525 0.99845 0.99642 0.0
H749 H 0.9549 0.00411 0.01524 0.0
H750 H 0.95452 0.07937 0.0125 0.0
H751 H 0.95438 0.07394 0.99367 0.0
H752 H 0.99174 0.10262 0.00206 0.0
H753 H 0.12657 0.03816 0.99144 0.0
H754 H 0.11337 0.03375 0.96597 0.0
H755 H 0.98913 0.0325 0.97441 0.0
C756 C 0.01851 0.04647 0.03093 0.0
C757 C 0.04952 0.04815 0.04065 0.0
C758 C 0.08843 0.04738 0.03574 0.0
C759 C 0.09649 0.04452 0.02134 0.0
C760 C 0.06529 0.04217 0.01204 0.0
C761 C 0.02708 0.04319 0.0166 0.0
C762 C -0.00103 0.03935 0.00442 0.0
C763 C 0.97401 0.00226 0.00583 0.0
C764 C 0.9734 0.07601 0.00309 0.0
C765 C 0.02738 0.03607 0.9923 0.0
C766 C 0.06548 0.03788 0.99693 0.0
C767 C 0.09687 0.03655 0.98767 0.0
C768 C 0.0891 0.03397 0.97325 0.0
C769 C 0.05029 0.03241 0.96827 0.0
C770 C 0.01911 0.03298 0.97795 0.0
H771 H 0.26441 0.84239 0.28259 0.0
H772 H 0.24534 0.71911 0.29033 0.0
H773 H 0.25106 0.706 0.2648 0.0
H774 H 0.20842 0.8466 0.25035 0.0
H775 H 0.2406 0.88164 0.24228 0.0
H776 H 0.23503 0.88076 0.2611 0.0
H777 H 0.30974 0.87291 0.26385 0.0
H778 H 0.3155 0.87329 0.24504 0.0
H779 H 0.33407 0.83298 0.25518 0.0
H780 H 0.2629 0.70633 0.23864 0.0
H781 H 0.27149 0.72068 0.21338 0.0
H782 H 0.27882 0.84438 0.22279 0.0
C783 C 0.26126 0.81266 0.27889 0.0
C784 C 0.25462 0.78165 0.28834 0.0
C785 C 0.25026 0.7432 0.28318 0.0
C786 C 0.25371 0.7355 0.26874 0.0
C787 C 0.26091 0.76672 0.2597 0.0
C788 C 0.26392 0.80461 0.26455 0.0
C789 C 0.27055 0.83311 0.25264 0.0
C790 C 0.23662 0.86224 0.25153 0.0
C791 C 0.3098 0.85431 0.25428 0.0
C792 C 0.27117 0.80531 0.24031 0.0
C793 C 0.26605 0.7671 0.24462 0.0
C794 C 0.2666 0.73614 0.23514 0.0
C795 C 0.27175 0.74457 0.22084 0.0
C796 C 0.27572 0.78363 0.2162 0.0
C797 C 0.27567 0.81428 0.22608 0.0
H798 H 0.54536 0.03385 0.5194 0.0
H799 H 0.42281 0.01964 0.52924 0.0
H800 H 0.4072 0.01991 0.50386 0.0
H801 H 0.53146 0.1016 0.4923 0.0
H802 H 0.57067 0.08401 0.48141 0.0
H803 H 0.57288 0.07783 0.50017 0.0
H804 H 0.58171 0.00321 0.49704 0.0
H805 H 0.57998 0.0092 0.47824 0.0
H806 H 0.54677 0.9761 0.48681 0.0
H807 H 0.40482 0.02465 0.47753 0.0
H808 H 0.41554 0.03495 0.45211 0.0
H809 H 0.53925 0.05022 0.45969 0.0
C810 C 0.51538 0.02977 0.51618 0.0
C811 C 0.48528 0.02612 0.5262 0.0
C812 C 0.44624 0.02212 0.52166 0.0
C813 C 0.43714 0.02223 0.5073 0.0
C814 C 0.46742 0.0268 0.49768 0.0
C815 C 0.50574 0.03053 0.50192 0.0
C816 C 0.53245 0.03802 0.48954 0.0
C817 C 0.55306 0.07772 0.49094 0.0
C818 C 0.56197 0.00463 0.48781 0.0
C819 C 0.50311 0.03831 0.47769 0.0
C820 C 0.46584 0.0313 0.48257 0.0
C821 C 0.43387 0.03012 0.47358 0.0
C822 C 0.44023 0.03606 0.45918 0.0
C823 C 0.47815 0.04364 0.454 0.0
C824 C 0.50989 0.04487 0.4634 0.0
H825 H 0.26083 0.31332 0.71698 0.0
H826 H 0.25034 0.18975 0.70797 0.0
H827 H 0.24921 0.17541 0.73344 0.0
H828 H 0.32721 0.30216 0.74468 0.0
H829 H 0.3083 0.3415 0.75525 0.0
H830 H 0.30304 0.34283 0.73643 0.0
H831 H 0.22824 0.35018 0.73901 0.0
H832 H 0.23332 0.34946 0.75785 0.0
H833 H 0.20141 0.31508 0.7493 0.0
H834 H 0.25198 0.17435 0.75973 0.0
H835 H 0.25954 0.18653 0.7852 0.0
H836 H 0.2733 0.31032 0.77698 0.0
C837 C 0.25716 0.28341 0.72043 0.0
C838 C 0.25497 0.2526 0.71064 0.0
C839 C 0.25164 0.21366 0.71541 0.0
C840 C 0.251 0.20528 0.72981 0.0
C841 C 0.25428 0.23619 0.73924 0.0
C842 C 0.25734 0.27448 0.73477 0.0
C843 C 0.26363 0.30192 0.74703 0.0
C844 C 0.30288 0.32335 0.74577 0.0
C845 C 0.22962 0.33086 0.74838 0.0
C846 C 0.26394 0.27306 0.75907 0.0
C847 C 0.25801 0.23536 0.75437 0.0
C848 C 0.25666 0.20372 0.76355 0.0
C849 C 0.26108 0.21088 0.77796 0.0
C850 C 0.26739 0.24924 0.78297 0.0
C851 C 0.2691 0.28062 0.77338 0.0
H852 H 0.75262 0.25388 0.7781 0.0
H853 H 0.76414 0.37708 0.78782 0.0
H854 H 0.77217 0.39166 0.76257 0.0
H855 H 0.82554 0.25224 0.75156 0.0
H856 H 0.80057 0.21782 0.74042 0.0
H857 H 0.79268 0.21696 0.75913 0.0
H858 H 0.71835 0.22468 0.75532 0.0
H859 H 0.72595 0.22506 0.73659 0.0
H860 H 0.70045 0.26479 0.74491 0.0
H861 H 0.77983 0.39292 0.73664 0.0
H862 H 0.78654 0.38111 0.71121 0.0
H863 H 0.77379 0.25656 0.71811 0.0
C864 C 0.75607 0.28398 0.77486 0.0
C865 C 0.7573 0.31449 0.78484 0.0
C866 C 0.76286 0.35339 0.78029 0.0
C867 C 0.76751 0.36192 0.766 0.0
C868 C 0.76695 0.33113 0.75644 0.0
C869 C 0.76138 0.29294 0.76064 0.0
C870 C 0.76367 0.2652 0.74824 0.0
C871 C 0.79764 0.23636 0.74995 0.0
C872 C 0.72479 0.24367 0.74614 0.0
C873 C 0.77136 0.29382 0.73642 0.0
C874 C 0.77291 0.33169 0.74143 0.0
C875 C 0.77877 0.36343 0.73258 0.0
C876 C 0.78256 0.35641 0.71817 0.0
C877 C 0.78088 0.31794 0.71277 0.0
C878 C 0.77572 0.28618 0.72203 0.0
H879 H 0.75353 0.79977 0.21862 0.0
H880 H 0.76787 0.67511 0.21272 0.0
H881 H 0.7701 0.66605 0.23855 0.0
H882 H 0.82055 0.80776 0.247 0.0
H883 H 0.79303 0.8447 0.25613 0.0
H884 H 0.78987 0.84082 0.23729 0.0
H885 H 0.71481 0.83385 0.23901 0.0
H886 H 0.71772 0.83794 0.25785 0.0
H887 H 0.69421 0.79626 0.24999 0.0
H888 H 0.76972 0.67108 0.26517 0.0
H889 H 0.77072 0.69018 0.2903 0.0
H890 H 0.76175 0.81192 0.27828 0.0
C891 C 0.75658 0.7705 0.22277 0.0
C892 C 0.76002 0.73803 0.21375 0.0
C893 C 0.76497 0.70029 0.21952 0.0
C894 C 0.76623 0.6949 0.23414 0.0
C895 C 0.76311 0.72765 0.24277 0.0
C896 C 0.7587 0.76474 0.23728 0.0
C897 C 0.75802 0.79534 0.24873 0.0
C898 C 0.79242 0.82382 0.24719 0.0
C899 C 0.71885 0.81711 0.2489 0.0
C900 C 0.7626 0.76972 0.26155 0.0
C901 C 0.76504 0.73072 0.25795 0.0
C902 C 0.76813 0.70155 0.26811 0.0
C903 C 0.76867 0.71262 0.28232 0.0
C904 C 0.7668 0.75247 0.28616 0.0
C905 C 0.7639 0.78126 0.27562 0.0
H906 H 0.50544 0.52215 0.47962 0.0
H907 H 0.62987 0.51907 0.4718 0.0
H908 H 0.64192 0.51649 0.49743 0.0
H909 H 0.51065 0.5879 0.50694 0.0
H910 H 0.47149 0.56729 0.51716 0.0
H911 H 0.47203 0.56134 0.49838 0.0
H912 H 0.46838 0.48618 0.50116 0.0
H913 H 0.46712 0.49186 0.51998 0.0
H914 H 0.50375 0.46149 0.51196 0.0
H915 H 0.64034 0.51969 0.52375 0.0
H916 H 0.62571 0.52975 0.5489 0.0
H917 H 0.50238 0.53664 0.53932 0.0
C918 C 0.53519 0.51959 0.48328 0.0
C919 C 0.56678 0.52023 0.47377 0.0
C920 C 0.60532 0.5182 0.47895 0.0
C921 C 0.61239 0.51675 0.49346 0.0
C922 C 0.58058 0.51777 0.50258 0.0
C923 C 0.54272 0.51912 0.49769 0.0
C924 C 0.5139 0.52436 0.50959 0.0
C925 C 0.49067 0.56249 0.50791 0.0
C926 C 0.48669 0.48885 0.51074 0.0
C927 C 0.54148 0.52651 0.52195 0.0
C928 C 0.57974 0.52192 0.5177 0.0
C929 C 0.6105 0.52312 0.52721 0.0
C930 C 0.6019 0.52895 0.54144 0.0
C931 C 0.56296 0.53421 0.54597 0.0
C932 C 0.53242 0.53306 0.53609 0.0
H933 H 0.96755 0.55084 0.96289 0.0
H934 H 0.09195 0.55854 0.95537 0.0
H935 H 0.10426 0.55032 0.98077 0.0
H936 H 0.96956 0.60573 0.99612 0.0
H937 H 0.93147 0.57661 0.00389 0.0
H938 H 0.93271 0.5839 0.98514 0.0
H939 H 0.93235 0.50895 0.9815 0.0
H940 H 0.93189 0.5014 0.00023 0.0
H941 H 0.96965 0.47966 0.98965 0.0
H942 H 0.1032 0.53467 0.00643 0.0
H943 H 0.08884 0.525 0.03162 0.0
H944 H 0.96509 0.53332 0.02294 0.0
C945 C 0.99731 0.55142 0.96666 0.0
C946 C 0.02885 0.55533 0.95725 0.0
C947 C 0.06742 0.55598 0.96247 0.0
C948 C 0.07469 0.55097 0.97684 0.0
C949 C 0.04301 0.54616 0.98583 0.0
C950 C 0.00505 0.54742 0.98102 0.0
C951 C 0.9763 0.54266 0.99299 0.0
C952 C 0.95103 0.57942 0.99463 0.0
C953 C 0.95107 0.50598 0.99096 0.0
C954 C 0.00407 0.53792 0.00522 0.0
C955 C 0.0424 0.53936 0.0008 0.0
C956 C 0.07333 0.534 0.01006 0.0
C957 C 0.06488 0.52815 0.0243 0.0
C958 C 0.02591 0.52844 0.02914 0.0
C959 C 0.99514 0.5331 0.01947 0.0
H960 H 0.22842 0.87544 0.12702 0.0
H961 H 0.22239 0.91713 0.17002 0.0
H962 H 0.1768 0.96899 0.16268 0.0
H963 H 0.22143 0.97003 0.10954 0.0
H964 H 0.19089 0.95149 0.09566 0.0
H965 H 0.22549 0.91977 0.10413 0.0
H966 H 0.16992 0.87128 0.11014 0.0
H967 H 0.13531 0.90298 0.10174 0.0
H968 H 0.12797 0.88841 0.11974 0.0
H969 H 0.1302 0.01546 0.15068 0.0
H970 H 0.08472 0.05109 0.13513 0.0
H971 H 0.1193 0.97697 0.10027 0.0
C972 C 0.21813 0.89596 0.13483 0.0
C973 C 0.22938 0.89256 0.14906 0.0
C974 C 0.21438 0.91934 0.15904 0.0
C975 C 0.18848 0.94893 0.15498 0.0
C976 C 0.17755 0.95118 0.1409 0.0
C977 C 0.1918 0.92532 0.13099 0.0
C978 C 0.17362 0.93251 0.11673 0.0
C979 C 0.20472 0.94415 0.10588 0.0
C980 C 0.15032 0.89665 0.11181 0.0
C981 C 0.14698 0.96644 0.12016 0.0
C982 C 0.14984 0.97701 0.13412 0.0
C983 C 0.12777 0.00747 0.13972 0.0
C984 C 0.10203 0.02757 0.1308 0.0
C985 C 0.09832 0.01687 0.11649 0.0
C986 C 0.1213 0.98592 0.11117 0.0
H987 H 0.34552 0.86829 0.35543 0.0
H988 H 0.24599 0.94309 0.34781 0.0
H989 H 0.2844 0.00054 0.3553 0.0
H990 H 0.37364 0.91546 0.38712 0.0
H991 H 0.42519 0.90934 0.38431 0.0
H992 H 0.39138 0.875 0.37684 0.0
H993 H 0.42006 0.88799 0.35204 0.0
H994 H 0.45408 0.92225 0.35954 0.0
H995 H 0.42228 0.93727 0.34547 0.0
H996 H 0.33334 0.04964 0.36368 0.0
H997 H 0.38572 0.08558 0.37601 0.0
H998 H 0.4511 0.97802 0.38034 0.0
C999 C 0.3321 0.89689 0.35523 0.0
C1000 C 0.29306 0.90161 0.35096 0.0
C1001 C 0.27594 0.93913 0.35108 0.0
C1002 C 0.2976 0.97187 0.35519 0.0
C1003 C 0.33609 0.96639 0.35937 0.0
C1004 C 0.35299 0.92976 0.35969 0.0
C1005 C 0.3935 0.93138 0.36596 0.0
C1006 C 0.39605 0.90633 0.37935 0.0
C1007 C 0.42431 0.919 0.3551 0.0
C1008 C 0.39646 0.97453 0.36929 0.0
C1009 C 0.36347 0.99437 0.36504 0.0
C1010 C 0.35933 0.03447 0.36706 0.0
C1011 C 0.38925 0.05467 0.37398 0.0
C1012 C 0.42223 0.03449 0.37908 0.0
C1013 C 0.4261 0.99407 0.3765 0.0
H1014 H 0.41919 0.11411 0.58687 0.0
H1015 H 0.47596 0.0506 0.62061 0.0
H1016 H 0.439 0.08879 0.63803 0.0
H1017 H 0.4154 0.20779 0.60433 0.0
H1018 H 0.36794 0.22017 0.5976 0.0
H1019 H 0.39953 0.18854 0.58766 0.0
H1020 H 0.34569 0.13565 0.58701 0.0
H1021 H 0.31386 0.16704 0.59695 0.0
H1022 H 0.32465 0.11864 0.60326 0.0
H1023 H 0.39795 0.1346 0.65181 0.0
H1024 H 0.35091 0.18195 0.66131 0.0
H1025 H 0.31681 0.21387 0.61892 0.0
C1026 C 0.42385 0.1083 0.59792 0.0
C1027 C 0.45058 0.07938 0.60237 0.0
C1028 C 0.45563 0.07247 0.61693 0.0
C1029 C 0.43486 0.09413 0.62692 0.0
C1030 C 0.40883 0.12238 0.62221 0.0
C1031 C 0.40289 0.12933 0.60808 0.0
C1032 C 0.37225 0.16071 0.60591 0.0
C1033 C 0.38983 0.19642 0.59844 0.0
C1034 C 0.33702 0.14453 0.5978 0.0
C1035 C 0.36174 0.17005 0.62104 0.0
C1036 C 0.38372 0.14793 0.63023 0.0
C1037 C 0.38036 0.1519 0.64473 0.0
C1038 C 0.35362 0.17898 0.65002 0.0
C1039 C 0.33002 0.20141 0.64086 0.0
C1040 C 0.33415 0.1968 0.62616 0.0
H1041 H 0.06092 0.15141 0.88578 0.0
H1042 H 0.13361 0.06731 0.90765 0.0
H1043 H 0.1914 0.0932 0.89554 0.0
H1044 H 0.11311 0.14682 0.85245 0.0
H1045 H 0.10802 0.19817 0.84882 0.0
H1046 H 0.07158 0.17325 0.85908 0.0
H1047 H 0.08082 0.22292 0.87924 0.0
H1048 H 0.11734 0.24818 0.86913 0.0
H1049 H 0.12866 0.23066 0.88652 0.0
H1050 H 0.24189 0.13 0.88233 0.0
H1051 H 0.28169 0.17173 0.86684 0.0
H1052 H 0.17706 0.23023 0.85231 0.0
C1053 C 0.08894 0.1382 0.88792 0.0
C1054 C 0.09259 0.10725 0.8977 0.0
C1055 C 0.12987 0.09089 0.9002 0.0
C1056 C 0.163 0.1055 0.89341 0.0
C1057 C 0.1585 0.13627 0.88401 0.0
C1058 C 0.12243 0.15217 0.88108 0.0
C1059 C 0.12595 0.18494 0.87039 0.0
C1060 C 0.10332 0.17519 0.85689 0.0
C1061 C 0.1124 0.22398 0.8767 0.0
C1062 C 0.16963 0.18485 0.86782 0.0
C1063 C 0.18777 0.15681 0.87594 0.0
C1064 C 0.22803 0.15184 0.87582 0.0
C1065 C 0.25041 0.17581 0.86703 0.0
C1066 C 0.23251 0.20406 0.85832 0.0
C1067 C 0.19153 0.20861 0.85876 0.0
H1068 H 0.85136 0.07003 0.90809 0.0
H1069 H 0.90161 0.99584 0.87592 0.0
H1070 H 0.84803 0.01332 0.85991 0.0
H1071 H 0.74347 0.0551 0.89683 0.0
H1072 H 0.73319 0.1053 0.9011 0.0
H1073 H 0.76832 0.07827 0.91128 0.0
H1074 H 0.8199 0.13173 0.90633 0.0
H1075 H 0.78538 0.15858 0.89607 0.0
H1076 H 0.83121 0.14437 0.88838 0.0
H1077 H 0.80211 0.0517 0.84591 0.0
H1078 H 0.76851 0.10657 0.83516 0.0
H1079 H 0.74107 0.15229 0.87664 0.0
C1080 C 0.85 0.0558 0.89795 0.0
C1081 C 0.88068 0.03159 0.89326 0.0
C1082 C 0.87863 0.01476 0.8797 0.0
C1083 C 0.84799 0.02414 0.87059 0.0
C1084 C 0.81923 0.04976 0.87529 0.0
C1085 C 0.81953 0.06478 0.88878 0.0
C1086 C 0.7891 0.09641 0.89054 0.0
C1087 C 0.75659 0.08295 0.90053 0.0
C1088 C 0.80753 0.13501 0.89561 0.0
C1089 C 0.77434 0.09951 0.8756 0.0
C1090 C 0.79122 0.07154 0.86707 0.0
C1091 C 0.78747 0.07278 0.85253 0.0
C1092 C 0.76787 0.10437 0.84649 0.0
C1093 C 0.75191 0.13457 0.85497 0.0
C1094 C 0.75321 0.13037 0.86975 0.0
H1095 H 0.68768 0.09563 0.58264 0.0
H1096 H 0.64805 0.0125 0.61367 0.0
H1097 H 0.702 0.0318 0.62942 0.0
H1098 H 0.79787 0.09219 0.59233 0.0
H1099 H 0.80169 0.14401 0.58938 0.0
H1100 H 0.76883 0.11505 0.57888 0.0
H1101 H 0.71191 0.16061 0.58595 0.0
H1102 H 0.74425 0.18934 0.5965 0.0
H1103 H 0.70134 0.16811 0.60432 0.0
H1104 H 0.74697 0.07099 0.64371 0.0
H1105 H 0.77748 0.1268 0.65549 0.0
H1106 H 0.79124 0.18477 0.61524 0.0
C1107 C 0.69199 0.08011 0.59243 0.0
C1108 C 0.66481 0.05196 0.5969 0.0
C1109 C 0.66949 0.0334 0.61003 0.0
C1110 C 0.70005 0.04416 0.61898 0.0
C1111 C 0.7256 0.07344 0.61459 0.0
C1112 C 0.72221 0.09085 0.60151 0.0
C1113 C 0.74848 0.12623 0.6003 0.0
C1114 C 0.78117 0.11892 0.58959 0.0
C1115 C 0.72508 0.16321 0.59656 0.0
C1116 C 0.7645 0.12805 0.61511 0.0
C1117 C 0.752 0.09663 0.62305 0.0
C1118 C 0.75811 0.09501 0.63751 0.0
C1119 C 0.77575 0.12697 0.64413 0.0
C1120 C 0.78693 0.16038 0.63631 0.0
C1121 C 0.78305 0.15974 0.62152 0.0
H1122 H 0.75272 0.9108 0.3743 0.0
H1123 H 0.79592 0.97984 0.33933 0.0
H1124 H 0.76669 0.03846 0.34984 0.0
H1125 H 0.66703 0.94704 0.37686 0.0
H1126 H 0.66234 0.94827 0.39573 0.0
H1127 H 0.6951 0.91432 0.38771 0.0
H1128 H 0.75256 0.94177 0.40231 0.0
H1129 H 0.71968 0.97564 0.41066 0.0
H1130 H 0.76291 0.99335 0.40199 0.0
H1131 H 0.71643 0.08318 0.36002 0.0
H1132 H 0.65687 0.11131 0.37081 0.0
H1133 H 0.65349 0.01621 0.4006 0.0
C1134 C 0.75822 0.93838 0.36916 0.0
C1135 C 0.77602 0.94011 0.35577 0.0
C1136 C 0.78137 0.97715 0.34936 0.0
C1137 C 0.7653 0.0109 0.35537 0.0
C1138 C 0.74536 0.0075 0.36807 0.0
C1139 C 0.7431 0.97233 0.37515 0.0
C1140 C 0.7162 0.975 0.38771 0.0
C1141 C 0.68325 0.94439 0.38693 0.0
C1142 C 0.73922 0.97123 0.40148 0.0
C1143 C 0.70089 0.01598 0.38582 0.0
C1144 C 0.71843 0.03468 0.37458 0.0
C1145 C 0.7038 0.06978 0.36926 0.0
C1146 C 0.67003 0.08556 0.37538 0.0
C1147 C 0.65188 0.06637 0.38675 0.0
C1148 C 0.66822 0.03206 0.3923 0.0
H1149 H 0.78605 0.92862 0.15956 0.0
H1150 H 0.71086 0.89852 0.12484 0.0
H1151 H 0.73606 0.95475 0.11136 0.0
H1152 H 0.79346 0.04114 0.15213 0.0
H1153 H 0.84425 0.03977 0.15689 0.0
H1154 H 0.80982 0.00851 0.16576 0.0
H1155 H 0.85211 0.94861 0.15931 0.0
H1156 H 0.88605 0.97918 0.1502 0.0
H1157 H 0.8632 0.93911 0.1411 0.0
H1158 H 0.78149 0.99885 0.0995 0.0
H1159 H 0.84223 0.02633 0.09022 0.0
H1160 H 0.89077 0.02849 0.13229 0.0
C1161 C 0.77312 0.93581 0.14951 0.0
C1162 C 0.74573 0.9105 0.14333 0.0
C1163 C 0.7309 0.91863 0.12983 0.0
C1164 C 0.74518 0.95045 0.12213 0.0
C1165 C 0.77439 0.9735 0.1281 0.0
C1166 C 0.78787 0.9669 0.14161 0.0
C1167 C 0.82491 0.98964 0.14448 0.0
C1168 C 0.81766 0.02168 0.15546 0.0
C1169 C 0.8585 0.9625 0.14902 0.0
C1170 C 0.83214 0.00712 0.13011 0.0
C1171 C 0.80194 0.99873 0.12097 0.0
C1172 C 0.80463 0.00685 0.10666 0.0
C1173 C 0.83942 0.02263 0.10147 0.0
C1174 C 0.87135 0.02987 0.11055 0.0
C1175 C 0.86684 0.02346 0.12512 0.0
H1176 H 0.70591 0.36373 0.64149 0.0
H1177 H 0.80882 0.43705 0.64307 0.0
H1178 H 0.76992 0.49318 0.6346 0.0
H1179 H 0.66725 0.40606 0.60921 0.0
H1180 H 0.61737 0.40111 0.61486 0.0
H1181 H 0.65363 0.36729 0.62105 0.0
H1182 H 0.63483 0.38394 0.64675 0.0
H1183 H 0.59904 0.41838 0.64063 0.0
H1184 H 0.63667 0.43395 0.65259 0.0
H1185 H 0.71839 0.54226 0.62771 0.0
H1186 H 0.66118 0.57792 0.61849 0.0
H1187 H 0.59347 0.47109 0.61963 0.0
C1188 C 0.7203 0.39153 0.63988 0.0
C1189 C 0.76027 0.39626 0.64291 0.0
C1190 C 0.77827 0.43287 0.64065 0.0
C1191 C 0.75634 0.46493 0.636 0.0
C1192 C 0.7167 0.45956 0.63344 0.0
C1193 C 0.69909 0.42352 0.63494 0.0
C1194 C 0.65647 0.42505 0.63089 0.0
C1195 C 0.64821 0.3983 0.61825 0.0
C1196 C 0.63022 0.41472 0.64347 0.0
C1197 C 0.65275 0.46769 0.62697 0.0
C1198 C 0.6876 0.48729 0.62878 0.0
C1199 C 0.69104 0.52717 0.62615 0.0
C1200 C 0.65834 0.54725 0.62106 0.0
C1201 C 0.62306 0.5272 0.61842 0.0
C1202 C 0.62016 0.48707 0.6216 0.0
H1203 H 0.90995 0.50674 0.87378 0.0
H1204 H 0.96053 0.43935 0.9079 0.0
H1205 H 0.92706 0.38073 0.89944 0.0
H1206 H 0.81547 0.45661 0.87378 0.0
H1207 H 0.8107 0.45772 0.85492 0.0
H1208 H 0.83753 0.49558 0.86383 0.0
H1209 H 0.89786 0.48105 0.84833 0.0
H1210 H 0.8712 0.44324 0.83937 0.0
H1211 H 0.91703 0.43212 0.84768 0.0
H1212 H 0.89219 0.32831 0.88679 0.0
H1213 H 0.85577 0.28514 0.87076 0.0
H1214 H 0.82462 0.38502 0.84509 0.0
C1215 C 0.91371 0.47973 0.87952 0.0
C1216 C 0.93798 0.47794 0.89154 0.0
C1217 C 0.94215 0.44183 0.8987 0.0
C1218 C 0.92319 0.40817 0.89399 0.0
C1219 C 0.89976 0.41083 0.88213 0.0
C1220 C 0.89466 0.44559 0.87499 0.0
C1221 C 0.8683 0.43977 0.86233 0.0
C1222 C 0.83077 0.46386 0.86381 0.0
C1223 C 0.8899 0.44963 0.84862 0.0
C1224 C 0.85995 0.3963 0.86343 0.0
C1225 C 0.87852 0.38032 0.87494 0.0
C1226 C 0.87709 0.3405 0.87783 0.0
C1227 C 0.8564 0.3162 0.86865 0.0
C1228 C 0.83705 0.33176 0.85679 0.0
C1229 C 0.8385 0.37245 0.85425 0.0
H1230 H 0.93938 0.5698 0.11843 0.0
H1231 H 0.91153 0.61135 0.07656 0.0
H1232 H 0.86266 0.65639 0.0866 0.0
H1233 H 0.8437 0.57358 0.13305 0.0
H1234 H 0.85915 0.59148 0.14997 0.0
H1235 H 0.89169 0.56215 0.13954 0.0
H1236 H 0.94396 0.61666 0.14073 0.0
H1237 H 0.9116 0.64614 0.1512 0.0
H1238 H 0.93167 0.66536 0.13512 0.0
H1239 H 0.81405 0.69354 0.10097 0.0
H1240 H 0.77335 0.72571 0.11897 0.0
H1241 H 0.83644 0.66467 0.15177 0.0
C1242 C 0.92288 0.58836 0.1114 0.0
C1243 C 0.92882 0.58691 0.09671 0.0
C1244 C 0.9073 0.61206 0.08784 0.0
C1245 C 0.87946 0.63763 0.09344 0.0
C1246 C 0.87412 0.63827 0.10796 0.0
C1247 C 0.89565 0.61483 0.11685 0.0
C1248 C 0.88507 0.62231 0.1321 0.0
C1249 C 0.86894 0.58517 0.13907 0.0
C1250 C 0.92016 0.63859 0.14027 0.0
C1251 C 0.85362 0.65296 0.13035 0.0
C1252 C 0.84757 0.66146 0.11632 0.0
C1253 C 0.81882 0.68748 0.112 0.0
C1254 C 0.79574 0.70545 0.12229 0.0
C1255 C 0.80193 0.69779 0.13673 0.0
C1256 C 0.83142 0.67136 0.14079 0.0
H1257 H 0.71036 0.69117 0.35118 0.0
H1258 H 0.68785 0.79666 0.37508 0.0
H1259 H 0.65717 0.75747 0.39381 0.0
H1260 H 0.62 0.64578 0.35911 0.0
H1261 H 0.63933 0.59699 0.36025 0.0
H1262 H 0.66282 0.63262 0.34921 0.0
H1263 H 0.728 0.62135 0.36229 0.0
H1264 H 0.70476 0.58549 0.37333 0.0
H1265 H 0.72968 0.62641 0.38114 0.0
H1266 H 0.62771 0.70796 0.40954 0.0
H1267 H 0.59864 0.65117 0.42122 0.0
H1268 H 0.63655 0.57682 0.38683 0.0
C1269 C 0.69969 0.70583 0.3605 0.0
C1270 C 0.70185 0.74691 0.36178 0.0
C1271 C 0.68663 0.76523 0.37393 0.0
C1272 C 0.66924 0.74322 0.38464 0.0
C1273 C 0.66701 0.7029 0.38298 0.0
C1274 C 0.68166 0.68428 0.37123 0.0
C1275 C 0.67317 0.64079 0.37175 0.0
C1276 C 0.64729 0.62833 0.35935 0.0
C1277 C 0.71117 0.61711 0.37216 0.0
C1278 C 0.65135 0.638 0.3856 0.0
C1279 C 0.6485 0.67421 0.39191 0.0
C1280 C 0.62959 0.67946 0.40469 0.0
C1281 C 0.6129 0.6469 0.4112 0.0
C1282 C 0.61469 0.60941 0.40489 0.0
C1283 C 0.63452 0.605 0.39193 0.0
H1284 H 0.37295 0.61882 0.41932 0.0
H1285 H 0.3973 0.52917 0.38839 0.0
H1286 H 0.33932 0.54961 0.37487 0.0
H1287 H 0.26263 0.61631 0.41625 0.0
H1288 H 0.26003 0.66854 0.41828 0.0
H1289 H 0.29781 0.64131 0.42705 0.0
H1290 H 0.35029 0.68504 0.41535 0.0
H1291 H 0.31284 0.71234 0.40666 0.0
H1292 H 0.35096 0.68978 0.39647 0.0
H1293 H 0.28706 0.5868 0.36283 0.0
H1294 H 0.24948 0.64024 0.35234 0.0
H1295 H 0.25657 0.70475 0.39148 0.0
C1296 C 0.36518 0.60244 0.41 0.0
C1297 C 0.38931 0.57214 0.40497 0.0
C1298 C 0.37915 0.55247 0.39242 0.0
C1299 C 0.34603 0.56358 0.38478 0.0
C1300 C 0.32326 0.59417 0.38989 0.0
C1301 C 0.33238 0.61325 0.40226 0.0
C1302 C 0.30695 0.6488 0.40445 0.0
C1303 C 0.28027 0.6434 0.41727 0.0
C1304 C 0.33174 0.68616 0.4058 0.0
C1305 C 0.28378 0.64826 0.39093 0.0
C1306 C 0.29275 0.61588 0.38287 0.0
C1307 C 0.27892 0.61167 0.3692 0.0
C1308 C 0.25721 0.64221 0.36334 0.0
C1309 C 0.24984 0.67676 0.37112 0.0
C1310 C 0.26148 0.67863 0.38533 0.0
H1311 H 0.25433 0.69277 0.11599 0.0
H1312 H 0.28324 0.63264 0.15465 0.0
H1313 H 0.25622 0.57171 0.14507 0.0
H1314 H 0.16644 0.6575 0.11291 0.0
H1315 H 0.16458 0.65168 0.09411 0.0
H1316 H 0.19691 0.68696 0.10167 0.0
H1317 H 0.25591 0.65521 0.08921 0.0
H1318 H 0.2236 0.62014 0.08121 0.0
H1319 H 0.26493 0.60371 0.09128 0.0
H1320 H 0.21011 0.5242 0.13454 0.0
H1321 H 0.15268 0.49376 0.12307 0.0
H1322 H 0.15532 0.58287 0.09092 0.0
C1323 C 0.25649 0.66629 0.12215 0.0
C1324 C 0.27111 0.66733 0.13598 0.0
C1325 C 0.27292 0.63237 0.1439 0.0
C1326 C 0.25752 0.59755 0.13855 0.0
C1327 C 0.24106 0.598 0.12518 0.0
C1328 C 0.24127 0.63134 0.11694 0.0
C1329 C 0.21648 0.62617 0.10395 0.0
C1330 C 0.18422 0.65741 0.10314 0.0
C1331 C 0.24175 0.6263 0.09062 0.0
C1332 C 0.19988 0.58605 0.10674 0.0
C1333 C 0.21495 0.56976 0.11887 0.0
C1334 C 0.19921 0.53579 0.12473 0.0
C1335 C 0.16668 0.51869 0.11822 0.0
C1336 C 0.15066 0.53577 0.10605 0.0
C1337 C 0.16823 0.56886 0.1 0.0
H1338 H 0.12683 0.53791 0.85627 0.0
H1339 H 0.18654 0.56451 0.89526 0.0
H1340 H 0.24741 0.5395 0.88542 0.0
H1341 H 0.1608 0.4508 0.85265 0.0
H1342 H 0.16703 0.44961 0.83384 0.0
H1343 H 0.13254 0.48249 0.84148 0.0
H1344 H 0.16651 0.54089 0.82924 0.0
H1345 H 0.20129 0.50786 0.82146 0.0
H1346 H 0.21796 0.54878 0.83174 0.0
H1347 H 0.29336 0.49292 0.87543 0.0
H1348 H 0.32068 0.43235 0.86528 0.0
H1349 H 0.23469 0.43597 0.83218 0.0
C1350 C 0.15317 0.54 0.86247 0.0
C1351 C 0.15179 0.55338 0.87648 0.0
C1352 C 0.18676 0.5553 0.88438 0.0
C1353 C 0.2217 0.54099 0.87887 0.0
C1354 C 0.22151 0.52526 0.86538 0.0
C1355 C 0.18829 0.52549 0.85712 0.0
C1356 C 0.19362 0.50057 0.84412 0.0
C1357 C 0.16165 0.46901 0.84299 0.0
C1358 C 0.19494 0.52606 0.83085 0.0
C1359 C 0.23318 0.48302 0.84716 0.0
C1360 C 0.24944 0.49857 0.85924 0.0
C1361 C 0.28204 0.48174 0.86562 0.0
C1362 C 0.29742 0.4474 0.85984 0.0
C1363 C 0.28032 0.43077 0.84778 0.0
C1364 C 0.24905 0.44959 0.84106 0.0
H1365 H 0.29799 0.45112 0.65703 0.0
H1366 H 0.24423 0.40905 0.61886 0.0
H1367 H 0.26582 0.46847 0.60636 0.0
H1368 H 0.28943 0.56282 0.6491 0.0
H1369 H 0.33709 0.57052 0.65654 0.0
H1370 H 0.30546 0.53346 0.66371 0.0
H1371 H 0.3596 0.48184 0.66002 0.0
H1372 H 0.39109 0.5184 0.65283 0.0
H1373 H 0.38009 0.47528 0.64272 0.0
H1374 H 0.30667 0.52023 0.59682 0.0
H1375 H 0.36606 0.55533 0.59052 0.0
H1376 H 0.39594 0.56615 0.63465 0.0
C1377 C 0.28897 0.45583 0.64625 0.0
C1378 C 0.26867 0.4265 0.63891 0.0
C1379 C 0.25899 0.43192 0.62465 0.0
C1380 C 0.271 0.46565 0.61753 0.0
C1381 C 0.29285 0.49341 0.62485 0.0
C1382 C 0.30158 0.48896 0.63897 0.0
C1383 C 0.33237 0.51793 0.64363 0.0
C1384 C 0.31504 0.54797 0.65385 0.0
C1385 C 0.36785 0.49709 0.65016 0.0
C1386 C 0.34233 0.5367 0.62967 0.0
C1387 C 0.31797 0.52343 0.61912 0.0
C1388 C 0.32511 0.53185 0.60504 0.0
C1389 C 0.35911 0.55218 0.60156 0.0
C1390 C 0.38596 0.56366 0.61211 0.0
C1391 C 0.37601 0.55785 0.62637 0.0
H1392 H 0.98408 0.85732 0.06252 0.0
H1393 H 0.09144 0.89763 0.08196 0.0
H1394 H 0.11664 0.83063 0.08155 0.0
H1395 H 0.97709 0.76904 0.08187 0.0
H1396 H 0.95746 0.74162 0.06734 0.0
H1397 H 0.94863 0.79329 0.06857 0.0
H1398 H 0.97789 0.80306 0.04367 0.0
H1399 H 0.98683 0.75141 0.04236 0.0
H1400 H 0.02631 0.78548 0.03997 0.0
H1401 H 0.12984 0.75859 0.07923 0.0
H1402 H 0.12869 0.68709 0.07591 0.0
H1403 H 0.012 0.69497 0.05874 0.0
C1404 C 0.01281 0.85256 0.06678 0.0
C1405 C 0.03552 0.88337 0.0723 0.0
C1406 C 0.07328 0.875 0.07757 0.0
C1407 C 0.08795 0.83686 0.07741 0.0
C1408 C 0.06452 0.80738 0.07197 0.0
C1409 C 0.02773 0.81481 0.0668 0.0
C1410 C 0.00781 0.77794 0.06189 0.0
C1411 C 0.97055 0.77002 0.07043 0.0
C1412 C -0.00078 0.77959 0.04603 0.0
C1413 C 0.03915 0.74851 0.06517 0.0
C1414 C 0.07177 0.76601 0.07089 0.0
C1415 C 0.10447 0.74456 0.07475 0.0
C1416 C 0.10362 0.70405 0.07278 0.0
C1417 C 0.07016 0.68559 0.06715 0.0
C1418 C 0.03772 0.70826 0.06324 0.0
H1419 H 0.41635 0.80736 0.33119 0.0
H1420 H 0.40967 0.68613 0.31795 0.0
H1421 H 0.48066 0.68463 0.31506 0.0
H1422 H 0.48859 0.83555 0.30644 0.0
H1423 H 0.51331 0.86838 0.31826 0.0
H1424 H 0.46195 0.85942 0.32033 0.0
H1425 H 0.47312 0.83802 0.34616 0.0
H1426 H 0.52446 0.84739 0.34419 0.0
H1427 H 0.50789 0.80007 0.34993 0.0
H1428 H 0.55216 0.69604 0.31335 0.0
H1429 H 0.61959 0.72132 0.31182 0.0
H1430 H 0.57925 0.83561 0.3248 0.0
C1431 C 0.42967 0.78052 0.32763 0.0
C1432 C 0.40721 0.7468 0.32494 0.0
C1433 C 0.42608 0.71218 0.3204 0.0
C1434 C 0.46648 0.71103 0.31864 0.0
C1435 C 0.48761 0.74476 0.32137 0.0
C1436 C 0.46993 0.77892 0.3257 0.0
C1437 C 0.49928 0.81147 0.32745 0.0
C1438 C 0.49024 0.84572 0.31752 0.0
C1439 C 0.5013 0.82502 0.34285 0.0
C1440 C 0.53606 0.79036 0.32315 0.0
C1441 C 0.52878 0.75176 0.31989 0.0
C1442 C 0.55829 0.72624 0.31584 0.0
C1443 C 0.59636 0.74071 0.31504 0.0
C1444 C 0.60421 0.78033 0.31808 0.0
C1445 C 0.5737 0.80535 0.32221 0.0
H1446 H 0.48833 0.20217 0.57259 0.0
H1447 H 0.55543 0.21308 0.53409 0.0
H1448 H 0.55493 0.28441 0.53652 0.0
H1449 H 0.42803 0.2924 0.56618 0.0
H1450 H 0.42686 0.3037 0.58468 0.0
H1451 H 0.42926 0.25363 0.57894 0.0
H1452 H 0.49085 0.24429 0.59434 0.0
H1453 H 0.48939 0.29468 0.59963 0.0
H1454 H 0.53261 0.27526 0.59146 0.0
H1455 H 0.55549 0.35273 0.54462 0.0
H1456 H 0.54843 0.41669 0.55636 0.0
H1457 H 0.477 0.36347 0.58866 0.0
C1458 C 0.50192 0.21959 0.56447 0.0
C1459 C 0.52259 0.20196 0.55329 0.0
C1460 C 0.54031 0.22584 0.54294 0.0
C1461 C 0.53996 0.26643 0.54416 0.0
C1462 C 0.52099 0.2828 0.55563 0.0
C1463 C 0.50138 0.26037 0.56542 0.0
C1464 C 0.48414 0.28565 0.57692 0.0
C1465 C 0.43941 0.28374 0.57666 0.0
C1466 C 0.50024 0.27428 0.59144 0.0
C1467 C 0.4987 0.32543 0.57234 0.0
C1468 C 0.51987 0.32299 0.56002 0.0
C1469 C 0.5384 0.35525 0.55414 0.0
C1470 C 0.53465 0.39123 0.56093 0.0
C1471 C 0.5123 0.39459 0.57335 0.0
C1472 C 0.49399 0.36136 0.5791 0.0
H1473 H 0.10582 0.25794 0.82501 0.0
H1474 H 0.1124 0.35277 0.79482 0.0
H1475 H 0.04166 0.34939 0.79136 0.0
H1476 H 0.03074 0.20277 0.80636 0.0
H1477 H 0.00664 0.18733 0.82226 0.0
H1478 H 0.05832 0.19652 0.82233 0.0
H1479 H 0.04968 0.24587 0.84271 0.0
H1480 H 0.99804 0.23673 0.84274 0.0
H1481 H 0.01604 0.28584 0.84071 0.0
H1482 H 0.97027 0.33932 0.79221 0.0
H1483 H 0.90188 0.31915 0.79614 0.0
H1484 H 0.94088 0.22843 0.82454 0.0
C1485 C 0.09244 0.27757 0.81753 0.0
C1486 C 0.11471 0.30599 0.81035 0.0
C1487 C 0.09598 0.33139 0.80072 0.0
C1488 C 0.05577 0.32953 0.79858 0.0
C1489 C 0.03461 0.30181 0.80601 0.0
C1490 C 0.05218 0.27596 0.81518 0.0
C1491 C 0.02233 0.24926 0.82192 0.0
C1492 C 0.02997 0.20643 0.81797 0.0
C1493 C 0.02148 0.25477 0.83797 0.0
C1494 C 0.98536 0.26441 0.81513 0.0
C1495 C 0.99317 0.29493 0.80608 0.0
C1496 C 0.96372 0.31513 0.79912 0.0
C1497 C 0.9251 0.30369 0.80145 0.0
C1498 C 0.91648 0.27213 0.81049 0.0
C1499 C 0.94699 0.25217 0.81736 0.0
H1500 H 0.06026 0.20285 0.92362 0.0
H1501 H 0.99819 0.20527 0.96328 0.0
H1502 H 0.00987 0.27603 0.9652 0.0
H1503 H 0.13352 0.28078 0.93283 0.0
H1504 H 0.13262 0.30074 0.9153 0.0
H1505 H 0.12456 0.24929 0.91799 0.0
H1506 H 0.05916 0.25413 0.90465 0.0
H1507 H 0.06681 0.30553 0.90198 0.0
H1508 H 0.02293 0.28866 0.91045 0.0
H1509 H 0.01844 0.3465 0.96115 0.0
H1510 H 0.02872 0.41347 0.95217 0.0
H1511 H 0.08788 0.367 0.91563 0.0
C1512 C 0.05043 0.21819 0.93291 0.0
C1513 C 0.02835 0.19879 0.94332 0.0
C1514 C 0.01493 0.21979 0.95517 0.0
C1515 C 0.02158 0.25989 0.95638 0.0
C1516 C 0.04204 0.27854 0.9457 0.0
C1517 C 0.05683 0.25845 0.93427 0.0
C1518 C 0.07509 0.28628 0.92374 0.0
C1519 C 0.11907 0.27882 0.9224 0.0
C1520 C 0.05476 0.28347 0.90936 0.0
C1521 C 0.06694 0.32509 0.93084 0.0
C1522 C 0.04798 0.31981 0.94352 0.0
C1523 C 0.0341 0.3511 0.95142 0.0
C1524 C 0.03978 0.38889 0.94624 0.0
C1525 C 0.05943 0.395 0.93338 0.0
C1526 C 0.07359 0.36279 0.92567 0.0
H1527 H 0.09059 0.73483 0.18273 0.0
H1528 H 0.12635 0.84986 0.16831 0.0
H1529 H 0.05765 0.86808 0.16539 0.0
H1530 H 0.00916 0.72477 0.15827 0.0
H1531 H 0.97961 0.69918 0.17093 0.0
H1532 H 0.03189 0.69473 0.17147 0.0
H1533 H 0.03191 0.71761 0.19746 0.0
H1534 H 0.97973 0.7221 0.19701 0.0
H1535 H 0.00925 0.76337 0.20199 0.0
H1536 H 0.985 0.87526 0.16565 0.0
H1537 H 0.91354 0.86989 0.16852 0.0
H1538 H 0.92616 0.74913 0.18119 0.0
C1539 C 0.08438 0.76365 0.17872 0.0
C1540 C 0.11432 0.79081 0.17585 0.0
C1541 C 0.10426 0.82853 0.17086 0.0
C1542 C 0.06521 0.83912 0.16901 0.0
C1543 C 0.03663 0.81153 0.17199 0.0
C1544 C 0.04575 0.77447 0.17661 0.0
C1545 C 0.00962 0.75047 0.17939 0.0
C1546 C 0.00745 0.71521 0.16942 0.0
C1547 C 0.00752 0.73766 0.19488 0.0
C1548 C 0.97867 0.78021 0.17596 0.0
C1549 C 0.9948 0.81523 0.17167 0.0
C1550 C 0.972 0.84786 0.16881 0.0
C1551 C 0.93163 0.84463 0.17053 0.0
C1552 C 0.91474 0.80903 0.17499 0.0
C1553 C 0.9385 0.77635 0.1775 0.0
H1554 H 0.55644 0.7098 0.42916 0.0
H1555 H 0.45401 0.71014 0.45577 0.0
H1556 H 0.44175 0.77914 0.44953 0.0
H1557 H 0.58905 0.80324 0.43868 0.0
H1558 H 0.60719 0.81607 0.42151 0.0
H1559 H 0.60526 0.76568 0.42677 0.0
H1560 H 0.56364 0.74932 0.40482 0.0
H1561 H 0.56568 0.79975 0.3995 0.0
H1562 H 0.51923 0.77592 0.40166 0.0
H1563 H 0.44248 0.84825 0.44138 0.0
H1564 H 0.45858 0.91469 0.43336 0.0
H1565 H 0.56207 0.87047 0.41261 0.0
C1566 C 0.53105 0.72431 0.43342 0.0
C1567 C 0.50593 0.70485 0.44285 0.0
C1568 C 0.47355 0.7248 0.44856 0.0
C1569 C 0.46625 0.76378 0.44499 0.0
C1570 C 0.49181 0.78232 0.43577 0.0
C1571 C 0.52372 0.76337 0.43012 0.0
C1572 C 0.54848 0.79092 0.42143 0.0
C1573 C 0.58993 0.79417 0.42747 0.0
C1574 C 0.54928 0.77822 0.40593 0.0
C1575 C 0.52591 0.82853 0.42333 0.0
C1576 C 0.49294 0.82269 0.43141 0.0
C1577 C 0.468 0.85316 0.43494 0.0
C1578 C 0.47728 0.89078 0.43027 0.0
C1579 C 0.51148 0.89768 0.4223 0.0
C1580 C 0.5358 0.86599 0.41869 0.0
H1581 H 0.60026 0.24959 0.66574 0.0
H1582 H 0.64046 0.34262 0.69299 0.0
H1583 H 0.57223 0.3602 0.69835 0.0
H1584 H 0.51774 0.30287 0.65151 0.0
H1585 H 0.48689 0.26035 0.65065 0.0
H1586 H 0.5389 0.25524 0.64898 0.0
H1587 H 0.53896 0.20582 0.6696 0.0
H1588 H 0.487 0.21107 0.67141 0.0
H1589 H 0.5183 0.21986 0.68628 0.0
H1590 H 0.50064 0.36495 0.70179 0.0
H1591 H 0.42934 0.36191 0.70129 0.0
H1592 H 0.43494 0.26833 0.67048 0.0
C1593 C 0.59452 0.27365 0.67281 0.0
C1594 C 0.62535 0.29478 0.67901 0.0
C1595 C 0.61707 0.32642 0.68808 0.0
C1596 C 0.57852 0.33637 0.69124 0.0
C1597 C 0.54876 0.31466 0.6851 0.0
C1598 C 0.5562 0.28435 0.67591 0.0
C1599 C 0.51878 0.26644 0.67047 0.0
C1600 C 0.51539 0.27155 0.65445 0.0
C1601 C 0.51559 0.22324 0.6747 0.0
C1602 C 0.48916 0.29116 0.67818 0.0
C1603 C 0.50717 0.31853 0.68664 0.0
C1604 C 0.48613 0.34409 0.69504 0.0
C1605 C 0.44549 0.34222 0.6946 0.0
C1606 C 0.42612 0.31535 0.68564 0.0
C1607 C 0.44852 0.28918 0.67746 0.0
loop_
_geom_bond_atom_site_label_1
_geom_bond_atom_site_label_2
_geom_bond_distance
_geom_bond_site_symmetry_2
_ccdc_geom_bond_type
Co0 N4 2.148 . S
Co0 N10 2.128 1_545 S
Co0 N20 2.194 1_455 S
Co0 O25 2.351 1_455 S
Co0 O26 2.155 . S
Co0 O27 2.096 . S
C1 N4 1.301 . S
C1 N5 1.328 . S
C1 H6 0.930 1_455 S
C2 C3 1.333 . S
C2 N4 1.317 . S
C2 H7 0.930 . S
C3 C2 1.333 . S
C3 N5 1.350 . S
C3 H29 0.931 . S
N4 Co0 2.148 . S
N4 C1 1.301 . S
N4 C2 1.317 . S
N5 C1 1.328 . S
N5 C3 1.350 . S
H6 C1 0.930 1_655 S
H7 C2 0.930 . S
C8 O9 1.224 . S
C8 O27 1.247 . S
O9 C8 1.224 . S
N10 Co0 2.128 1_565 S
N10 C11 1.355 1_455 S
N10 C13 1.311 . S
C11 N10 1.355 1_655 S
C11 C12 1.363 . S
C11 H23 0.929 . S
C12 C11 1.363 . S
C12 N14 1.375 1_655 S
C12 H30 0.931 . S
C13 N10 1.311 . S
C13 N14 1.347 . S
C13 H24 0.929 . S
N14 C12 1.375 1_455 S
N14 C13 1.347 . S
C15 C18 1.365 . S
C15 N20 1.328 . S
C15 H21 0.929 . S
C16 C17 1.362 . S
C16 C19 1.378 . S
C16 H31 0.929 . S
C17 C16 1.362 . S
C17 C18 1.366 . S
C18 C15 1.365 . S
C18 C17 1.366 . S
C18 H32 0.930 . S
C19 C16 1.378 . S
C19 N20 1.315 . S
C19 H22 0.930 . S
N20 Co0 2.194 1_655 S
N20 C15 1.328 . S
N20 C19 1.315 . S
H21 C15 0.929 . S
H22 C19 0.930 . S
H23 C11 0.929 . S
H24 C13 0.929 . S
O25 Co0 2.351 1_655 S
O25 C28 1.244 1_655 S
O26 Co0 2.155 . S
O26 C28 1.240 . S
O27 Co0 2.096 . S
O27 C8 1.247 . S
C28 O25 1.244 1_455 S
C28 O26 1.240 . S
H29 C3 0.931 . S
H30 C12 0.931 . S
H31 C16 0.929 . S
H32 C18 0.930 . S
Co33 N37 2.148 . S
Co33 N43 2.128 . S
Co33 N53 2.194 . S
Co33 O58 2.351 . S
Co33 O59 2.155 . S
Co33 O60 2.096 . S
C34 N37 1.301 . S
C34 N38 1.328 . S
C34 H39 0.930 . S
C35 C36 1.333 . S
C35 N37 1.317 . S
C35 H40 0.930 . S
C36 C35 1.333 . S
C36 N38 1.350 . S
C36 H62 0.931 . S
N37 Co33 2.148 . S
N37 C34 1.301 . S
N37 C35 1.317 . S
N38 C34 1.328 . S
N38 C36 1.350 . S
H39 C34 0.930 . S
H40 C35 0.930 . S
C41 O42 1.224 . S
C41 O60 1.247 . S
O42 C41 1.224 . S
N43 Co33 2.128 . S
N43 C44 1.355 . S
N43 C46 1.311 . S
C44 N43 1.355 . S
C44 C45 1.363 . S
C44 H56 0.929 . S
C45 C44 1.363 . S
C45 N47 1.375 . S
C45 H63 0.931 . S
C46 N43 1.311 . S
C46 N47 1.347 . S
C46 H57 0.929 . S
N47 C45 1.375 . S
N47 C46 1.347 . S
C48 C51 1.365 . S
C48 N53 1.328 . S
C48 H54 0.929 . S
C49 C50 1.362 . S
C49 C52 1.378 . S
C49 H64 0.929 . S
C50 C49 1.362 . S
C50 C51 1.366 . S
C51 C48 1.365 . S
C51 C50 1.366 . S
C51 H65 0.930 . S
C52 C49 1.378 . S
C52 N53 1.315 . S
C52 H55 0.930 . S
N53 Co33 2.194 . S
N53 C48 1.328 . S
N53 C52 1.315 . S
H54 C48 0.929 . S
H55 C52 0.930 . S
H56 C44 0.929 . S
H57 C46 0.929 . S
O58 Co33 2.351 . S
O58 C61 1.244 . S
O59 Co33 2.155 . S
O59 C61 1.240 . S
O60 Co33 2.096 . S
O60 C41 1.247 . S
C61 O58 1.244 . S
C61 O59 1.240 . S
H62 C36 0.931 . S
H63 C45 0.931 . S
H64 C49 0.929 . S
H65 C51 0.930 . S
Co66 N70 2.148 1_545 S
Co66 N76 2.128 . S
Co66 N86 2.194 . S
Co66 O91 2.351 . S
Co66 O92 2.155 . S
Co66 O93 2.096 . S
C67 N70 1.301 . S
C67 N71 1.328 . S
C67 H72 0.930 . S
C68 C69 1.333 . S
C68 N70 1.317 . S
C68 H73 0.930 . S
C69 C68 1.333 . S
C69 N71 1.350 . S
C69 H95 0.931 . S
N70 Co66 2.148 1_565 S
N70 C67 1.301 . S
N70 C68 1.317 . S
N71 C67 1.328 . S
N71 C69 1.350 . S
H72 C67 0.930 . S
H73 C68 0.930 . S
C74 O75 1.224 . S
C74 O93 1.247 . S
O75 C74 1.224 . S
N76 Co66 2.128 . S
N76 C77 1.355 . S
N76 C79 1.311 . S
C77 N76 1.355 . S
C77 C78 1.363 . S
C77 H89 0.929 . S
C78 C77 1.363 . S
C78 N80 1.375 . S
C78 H96 0.931 . S
C79 N76 1.311 . S
C79 N80 1.347 . S
C79 H90 0.929 . S
N80 C78 1.375 . S
N80 C79 1.347 . S
C81 C84 1.365 . S
C81 N86 1.328 . S
C81 H87 0.929 . S
C82 C83 1.362 . S
C82 C85 1.378 . S
C82 H97 0.929 . S
C83 C82 1.362 . S
C83 C84 1.366 . S
C84 C81 1.365 . S
C84 C83 1.366 . S
C84 H98 0.930 . S
C85 C82 1.378 . S
C85 N86 1.315 . S
C85 H88 0.930 . S
N86 Co66 2.194 . S
N86 C81 1.328 . S
N86 C85 1.315 . S
H87 C81 0.929 . S
H88 C85 0.930 . S
H89 C77 0.929 . S
H90 C79 0.929 . S
O91 Co66 2.351 . S
O91 C94 1.244 . S
O92 Co66 2.155 . S
O92 C94 1.240 . S
O93 Co66 2.096 . S
O93 C74 1.247 . S
C94 O91 1.244 . S
C94 O92 1.240 . S
H95 C69 0.931 . S
H96 C78 0.931 . S
H97 C82 0.929 . S
H98 C84 0.930 . S
Co99 N103 2.148 . S
Co99 N109 2.128 . S
Co99 N119 2.194 . S
Co99 O124 2.351 . S
Co99 O125 2.155 . S
Co99 O126 2.096 . S
C100 N103 1.301 . S
C100 N104 1.328 . S
C100 H105 0.930 . S
C101 C102 1.333 . S
C101 N103 1.317 . S
C101 H106 0.930 . S
C102 C101 1.333 . S
C102 N104 1.350 . S
C102 H128 0.931 . S
N103 Co99 2.148 . S
N103 C100 1.301 . S
N103 C101 1.317 . S
N104 C100 1.328 . S
N104 C102 1.350 . S
H105 C100 0.930 . S
H106 C101 0.930 . S
C107 O108 1.224 . S
C107 O126 1.247 . S
O108 C107 1.224 . S
N109 Co99 2.128 . S
N109 C110 1.355 . S
N109 C112 1.311 . S
C110 N109 1.355 . S
C110 C111 1.363 . S
C110 H122 0.929 . S
C111 C110 1.363 . S
C111 N113 1.375 . S
C111 H129 0.931 . S
C112 N109 1.311 . S
C112 N113 1.347 . S
C112 H123 0.929 . S
N113 C111 1.375 . S
N113 C112 1.347 . S
C114 C117 1.365 . S
C114 N119 1.328 . S
C114 H120 0.929 . S
C115 C116 1.362 . S
C115 C118 1.378 . S
C115 H130 0.929 . S
C116 C115 1.362 . S
C116 C117 1.366 . S
C117 C114 1.365 . S
C117 C116 1.366 . S
C117 H131 0.930 . S
C118 C115 1.378 . S
C118 N119 1.315 . S
C118 H121 0.930 . S
N119 Co99 2.194 . S
N119 C114 1.328 . S
N119 C118 1.315 . S
H120 C114 0.929 . S
H121 C118 0.930 . S
H122 C110 0.929 . S
H123 C112 0.929 . S
O124 Co99 2.351 . S
O124 C127 1.244 . S
O125 Co99 2.155 . S
O125 C127 1.240 . S
O126 Co99 2.096 . S
O126 C107 1.247 . S
C127 O124 1.244 . S
C127 O125 1.240 . S
H128 C102 0.931 . S
H129 C111 0.931 . S
H130 C115 0.929 . S
H131 C117 0.930 . S
Co132 N136 2.148 1_545 S
Co132 N142 2.128 . S
Co132 N152 2.194 1_455 S
Co132 O157 2.351 1_455 S
Co132 O158 2.155 . S
Co132 O159 2.096 . S
C133 N136 1.301 . S
C133 N137 1.328 . S
C133 H138 0.930 1_455 S
C134 C135 1.333 . S
C134 N136 1.317 . S
C134 H139 0.930 . S
C135 C134 1.333 . S
C135 N137 1.350 . S
C135 H161 0.931 . S
N136 Co132 2.148 1_565 S
N136 C133 1.301 . S
N136 C134 1.317 . S
N137 C133 1.328 . S
N137 C135 1.350 . S
H138 C133 0.930 1_655 S
H139 C134 0.930 . S
C140 O141 1.224 . S
C140 O159 1.247 . S
O141 C140 1.224 . S
N142 Co132 2.128 . S
N142 C143 1.355 1_455 S
N142 C145 1.311 . S
C143 N142 1.355 1_655 S
C143 C144 1.363 . S
C143 H155 0.929 . S
C144 C143 1.363 . S
C144 N146 1.375 1_655 S
C144 H162 0.931 . S
C145 N142 1.311 . S
C145 N146 1.347 . S
C145 H156 0.929 . S
N146 C144 1.375 1_455 S
N146 C145 1.347 . S
C147 C150 1.365 . S
C147 N152 1.328 . S
C147 H153 0.929 . S
C148 C149 1.362 . S
C148 C151 1.378 . S
C148 H163 0.929 . S
C149 C148 1.362 . S
C149 C150 1.366 . S
C150 C147 1.365 . S
C150 C149 1.366 . S
C150 H164 0.930 . S
C151 C148 1.378 . S
C151 N152 1.315 . S
C151 H154 0.930 . S
N152 Co132 2.194 1_655 S
N152 C147 1.328 . S
N152 C151 1.315 . S
H153 C147 0.929 . S
H154 C151 0.930 . S
H155 C143 0.929 . S
H156 C145 0.929 . S
O157 Co132 2.351 1_655 S
O157 C160 1.244 1_655 S
O158 Co132 2.155 . S
O158 C160 1.240 . S
O159 Co132 2.096 . S
O159 C140 1.247 . S
C160 O157 1.244 1_455 S
C160 O158 1.240 . S
H161 C135 0.931 . S
H162 C144 0.931 . S
H163 C148 0.929 . S
H164 C150 0.930 . S
Co165 N169 2.148 . S
Co165 N175 2.128 . S
Co165 N185 2.194 . S
Co165 O190 2.351 . S
Co165 O191 2.155 . S
Co165 O192 2.096 . S
C166 N169 1.301 . S
C166 N170 1.328 . S
C166 H171 0.930 . S
C167 C168 1.333 . S
C167 N169 1.317 . S
C167 H172 0.930 . S
C168 C167 1.333 . S
C168 N170 1.350 . S
C168 H194 0.931 . S
N169 Co165 2.148 . S
N169 C166 1.301 . S
N169 C167 1.317 . S
N170 C166 1.328 . S
N170 C168 1.350 . S
H171 C166 0.930 . S
H172 C167 0.930 . S
C173 O174 1.224 . S
C173 O192 1.247 . S
O174 C173 1.224 . S
N175 Co165 2.128 . S
N175 C176 1.355 . S
N175 C178 1.311 . S
C176 N175 1.355 . S
C176 C177 1.363 . S
C176 H188 0.929 . S
C177 C176 1.363 . S
C177 N179 1.375 . S
C177 H195 0.931 . S
C178 N175 1.311 . S
C178 N179 1.347 . S
C178 H189 0.929 . S
N179 C177 1.375 . S
N179 C178 1.347 . S
C180 C183 1.365 . S
C180 N185 1.328 . S
C180 H186 0.929 . S
C181 C182 1.362 . S
C181 C184 1.378 . S
C181 H196 0.929 . S
C182 C181 1.362 . S
C182 C183 1.366 . S
C183 C180 1.365 . S
C183 C182 1.366 . S
C183 H197 0.930 . S
C184 C181 1.378 . S
C184 N185 1.315 . S
C184 H187 0.930 . S
N185 Co165 2.194 . S
N185 C180 1.328 . S
N185 C184 1.315 . S
H186 C180 0.929 . S
H187 C184 0.930 . S
H188 C176 0.929 . S
H189 C178 0.929 . S
O190 Co165 2.351 . S
O190 C193 1.244 . S
O191 Co165 2.155 . S
O191 C193 1.240 . S
O192 Co165 2.096 . S
O192 C173 1.247 . S
C193 O190 1.244 . S
C193 O191 1.240 . S
H194 C168 0.931 . S
H195 C177 0.931 . S
H196 C181 0.929 . S
H197 C183 0.930 . S
Co198 N202 2.148 . S
Co198 N208 2.128 1_545 S
Co198 N218 2.194 . S
Co198 O223 2.351 . S
Co198 O224 2.155 . S
Co198 O225 2.096 . S
C199 N202 1.301 . S
C199 N203 1.328 . S
C199 H204 0.930 . S
C200 C201 1.333 . S
C200 N202 1.317 . S
C200 H205 0.930 . S
C201 C200 1.333 . S
C201 N203 1.350 . S
C201 H227 0.931 . S
N202 Co198 2.148 . S
N202 C199 1.301 . S
N202 C200 1.317 . S
N203 C199 1.328 . S
N203 C201 1.350 . S
H204 C199 0.930 . S
H205 C200 0.930 . S
C206 O207 1.224 . S
C206 O225 1.247 . S
O207 C206 1.224 . S
N208 Co198 2.128 1_565 S
N208 C209 1.355 . S
N208 C211 1.311 . S
C209 N208 1.355 . S
C209 C210 1.363 . S
C209 H221 0.929 . S
C210 C209 1.363 . S
C210 N212 1.375 . S
C210 H228 0.931 . S
C211 N208 1.311 . S
C211 N212 1.347 . S
C211 H222 0.929 . S
N212 C210 1.375 . S
N212 C211 1.347 . S
C213 C216 1.365 . S
C213 N218 1.328 . S
C213 H219 0.929 . S
C214 C215 1.362 . S
C214 C217 1.378 . S
C214 H229 0.929 . S
C215 C214 1.362 . S
C215 C216 1.366 . S
C216 C213 1.365 . S
C216 C215 1.366 . S
C216 H230 0.930 . S
C217 C214 1.378 . S
C217 N218 1.315 . S
C217 H220 0.930 . S
N218 Co198 2.194 . S
N218 C213 1.328 . S
N218 C217 1.315 . S
H219 C213 0.929 . S
H220 C217 0.930 . S
H221 C209 0.929 . S
H222 C211 0.929 . S
O223 Co198 2.351 . S
O223 C226 1.244 . S
O224 Co198 2.155 . S
O224 C226 1.240 . S
O225 Co198 2.096 . S
O225 C206 1.247 . S
C226 O223 1.244 . S
C226 O224 1.240 . S
H227 C201 0.931 . S
H228 C210 0.931 . S
H229 C214 0.929 . S
H230 C216 0.930 . S
Co231 N235 2.148 . S
Co231 N241 2.128 . S
Co231 N251 2.194 . S
Co231 O256 2.351 . S
Co231 O257 2.155 . S
Co231 O258 2.096 . S
C232 N235 1.301 . S
C232 N236 1.328 . S
C232 H237 0.930 . S
C233 C234 1.333 . S
C233 N235 1.317 . S
C233 H238 0.930 . S
C234 C233 1.333 . S
C234 N236 1.350 . S
C234 H260 0.931 . S
N235 Co231 2.148 . S
N235 C232 1.301 . S
N235 C233 1.317 . S
N236 C232 1.328 . S
N236 C234 1.350 . S
H237 C232 0.930 . S
H238 C233 0.930 . S
C239 O240 1.224 . S
C239 O258 1.247 . S
O240 C239 1.224 . S
N241 Co231 2.128 . S
N241 C242 1.355 . S
N241 C244 1.311 . S
C242 N241 1.355 . S
C242 C243 1.363 . S
C242 H254 0.929 . S
C243 C242 1.363 . S
C243 N245 1.375 . S
C243 H261 0.931 . S
C244 N241 1.311 . S
C244 N245 1.347 . S
C244 H255 0.929 . S
N245 C243 1.375 . S
N245 C244 1.347 . S
C246 C249 1.365 . S
C246 N251 1.328 . S
C246 H252 0.929 . S
C247 C248 1.362 . S
C247 C250 1.378 . S
C247 H262 0.929 . S
C248 C247 1.362 . S
C248 C249 1.366 . S
C249 C246 1.365 . S
C249 C248 1.366 . S
C249 H263 0.930 . S
C250 C247 1.378 . S
C250 N251 1.315 . S
C250 H253 0.930 . S
N251 Co231 2.194 . S
N251 C246 1.328 . S
N251 C250 1.315 . S
H252 C246 0.929 . S
H253 C250 0.930 . S
H254 C242 0.929 . S
H255 C244 0.929 . S
O256 Co231 2.351 . S
O256 C259 1.244 . S
O257 Co231 2.155 . S
O257 C259 1.240 . S
O258 Co231 2.096 . S
O258 C239 1.247 . S
C259 O256 1.244 . S
C259 O257 1.240 . S
H260 C234 0.931 . S
H261 C243 0.931 . S
H262 C247 0.929 . S
H263 C249 0.930 . S
Co264 N268 2.148 . S
Co264 N274 2.128 . S
Co264 N284 2.194 . S
Co264 O289 2.351 . S
Co264 O290 2.155 . S
Co264 O291 2.096 . S
C265 N268 1.301 . S
C265 N269 1.328 . S
C265 H270 0.930 . S
C266 C267 1.333 . S
C266 N268 1.317 . S
C266 H271 0.930 . S
C267 C266 1.333 . S
C267 N269 1.350 . S
C267 H293 0.931 . S
N268 Co264 2.148 . S
N268 C265 1.301 . S
N268 C266 1.317 . S
N269 C265 1.328 . S
N269 C267 1.350 . S
H270 C265 0.930 . S
H271 C266 0.930 . S
C272 O273 1.224 . S
C272 O291 1.247 . S
O273 C272 1.224 . S
N274 Co264 2.128 . S
N274 C275 1.355 . S
N274 C277 1.311 . S
C275 N274 1.355 . S
C275 C276 1.363 . S
C275 H287 0.929 . S
C276 C275 1.363 . S
C276 N278 1.375 . S
C276 H294 0.931 . S
C277 N274 1.311 . S
C277 N278 1.347 . S
C277 H288 0.929 . S
N278 C276 1.375 . S
N278 C277 1.347 . S
C279 C282 1.365 . S
C279 N284 1.328 . S
C279 H285 0.929 . S
C280 C281 1.362 . S
C280 C283 1.378 . S
C280 H295 0.929 . S
C281 C280 1.362 . S
C281 C282 1.366 . S
C282 C279 1.365 . S
C282 C281 1.366 . S
C282 H296 0.930 . S
C283 C280 1.378 . S
C283 N284 1.315 . S
C283 H286 0.930 . S
N284 Co264 2.194 . S
N284 C279 1.328 . S
N284 C283 1.315 . S
H285 C279 0.929 . S
H286 C283 0.930 . S
H287 C275 0.929 . S
H288 C277 0.929 . S
O289 Co264 2.351 . S
O289 C292 1.244 . S
O290 Co264 2.155 . S
O290 C292 1.240 . S
O291 Co264 2.096 . S
O291 C272 1.247 . S
C292 O289 1.244 . S
C292 O290 1.240 . S
H293 C267 0.931 . S
H294 C276 0.931 . S
H295 C280 0.929 . S
H296 C282 0.930 . S
Co297 N301 2.148 . S
Co297 N307 2.128 . S
Co297 N317 2.194 . S
Co297 O322 2.351 . S
Co297 O323 2.155 . S
Co297 O324 2.096 . S
C298 N301 1.301 . S
C298 N302 1.328 . S
C298 H303 0.930 . S
C299 C300 1.333 . S
C299 N301 1.317 . S
C299 H304 0.930 . S
C300 C299 1.333 . S
C300 N302 1.350 . S
C300 H326 0.931 . S
N301 Co297 2.148 . S
N301 C298 1.301 . S
N301 C299 1.317 . S
N302 C298 1.328 . S
N302 C300 1.350 . S
H303 C298 0.930 . S
H304 C299 0.930 . S
C305 O306 1.224 . S
C305 O324 1.247 . S
O306 C305 1.224 . S
N307 Co297 2.128 . S
N307 C308 1.355 . S
N307 C310 1.311 . S
C308 N307 1.355 . S
C308 C309 1.363 . S
C308 H320 0.929 . S
C309 C308 1.363 . S
C309 N311 1.375 . S
C309 H327 0.931 . S
C310 N307 1.311 . S
C310 N311 1.347 . S
C310 H321 0.929 . S
N311 C309 1.375 . S
N311 C310 1.347 . S
C312 C315 1.365 . S
C312 N317 1.328 . S
C312 H318 0.929 . S
C313 C314 1.362 . S
C313 C316 1.378 . S
C313 H328 0.929 . S
C314 C313 1.362 . S
C314 C315 1.366 . S
C315 C312 1.365 . S
C315 C314 1.366 . S
C315 H329 0.930 . S
C316 C313 1.378 . S
C316 N317 1.315 . S
C316 H319 0.930 . S
N317 Co297 2.194 . S
N317 C312 1.328 . S
N317 C316 1.315 . S
H318 C312 0.929 . S
H319 C316 0.930 . S
H320 C308 0.929 . S
H321 C310 0.929 . S
O322 Co297 2.351 . S
O322 C325 1.244 . S
O323 Co297 2.155 . S
O323 C325 1.240 . S
O324 Co297 2.096 . S
O324 C305 1.247 . S
C325 O322 1.244 . S
C325 O323 1.240 . S
H326 C300 0.931 . S
H327 C309 0.931 . S
H328 C313 0.929 . S
H329 C315 0.930 . S
Co330 N334 2.148 . S
Co330 N340 2.128 . S
Co330 N350 2.194 . S
Co330 O355 2.351 . S
Co330 O356 2.155 . S
Co330 O357 2.096 . S
C331 N334 1.301 . S
C331 N335 1.328 . S
C331 H336 0.930 . S
C332 C333 1.333 . S
C332 N334 1.317 . S
C332 H337 0.930 . S
C333 C332 1.333 . S
C333 N335 1.350 . S
C333 H359 0.931 . S
N334 Co330 2.148 . S
N334 C331 1.301 . S
N334 C332 1.317 . S
N335 C331 1.328 . S
N335 C333 1.350 . S
H336 C331 0.930 . S
H337 C332 0.930 . S
C338 O339 1.224 . S
C338 O357 1.247 . S
O339 C338 1.224 . S
N340 Co330 2.128 . S
N340 C341 1.355 . S
N340 C343 1.311 . S
C341 N340 1.355 . S
C341 C342 1.363 . S
C341 H353 0.929 . S
C342 C341 1.363 . S
C342 N344 1.375 . S
C342 H360 0.931 . S
C343 N340 1.311 . S
C343 N344 1.347 . S
C343 H354 0.929 . S
N344 C342 1.375 . S
N344 C343 1.347 . S
C345 C348 1.365 . S
C345 N350 1.328 . S
C345 H351 0.929 . S
C346 C347 1.362 . S
C346 C349 1.378 . S
C346 H361 0.929 . S
C347 C346 1.362 . S
C347 C348 1.366 . S
C348 C345 1.365 . S
C348 C347 1.366 . S
C348 H362 0.930 . S
C349 C346 1.378 . S
C349 N350 1.315 . S
C349 H352 0.930 . S
N350 Co330 2.194 . S
N350 C345 1.328 . S
N350 C349 1.315 . S
H351 C345 0.929 . S
H352 C349 0.930 . S
H353 C341 0.929 . S
H354 C343 0.929 . S
O355 Co330 2.351 . S
O355 C358 1.244 . S
O356 Co330 2.155 . S
O356 C358 1.240 . S
O357 Co330 2.096 . S
O357 C338 1.247 . S
C358 O355 1.244 . S
C358 O356 1.240 . S
H359 C333 0.931 . S
H360 C342 0.931 . S
H361 C346 0.929 . S
H362 C348 0.930 . S
Co363 N367 2.148 . S
Co363 N373 2.128 . S
Co363 N383 2.194 . S
Co363 O388 2.351 . S
Co363 O389 2.155 . S
Co363 O390 2.096 . S
C364 N367 1.301 . S
C364 N368 1.328 . S
C364 H369 0.930 . S
C365 C366 1.333 . S
C365 N367 1.317 . S
C365 H370 0.930 . S
C366 C365 1.333 . S
C366 N368 1.350 . S
C366 H392 0.931 . S
N367 Co363 2.148 . S
N367 C364 1.301 . S
N367 C365 1.317 . S
N368 C364 1.328 . S
N368 C366 1.350 . S
H369 C364 0.930 . S
H370 C365 0.930 . S
C371 O372 1.224 . S
C371 O390 1.247 . S
O372 C371 1.224 . S
N373 Co363 2.128 . S
N373 C374 1.355 . S
N373 C376 1.311 . S
C374 N373 1.355 . S
C374 C375 1.363 . S
C374 H386 0.929 . S
C375 C374 1.363 . S
C375 N377 1.375 . S
C375 H393 0.931 . S
C376 N373 1.311 . S
C376 N377 1.347 . S
C376 H387 0.929 . S
N377 C375 1.375 . S
N377 C376 1.347 . S
C378 C381 1.365 . S
C378 N383 1.328 . S
C378 H384 0.929 . S
C379 C380 1.362 . S
C379 C382 1.378 . S
C379 H394 0.929 . S
C380 C379 1.362 . S
C380 C381 1.366 . S
C381 C378 1.365 . S
C381 C380 1.366 . S
C381 H395 0.930 . S
C382 C379 1.378 . S
C382 N383 1.315 . S
C382 H385 0.930 . S
N383 Co363 2.194 . S
N383 C378 1.328 . S
N383 C382 1.315 . S
H384 C378 0.929 . S
H385 C382 0.930 . S
H386 C374 0.929 . S
H387 C376 0.929 . S
O388 Co363 2.351 . S
O388 C391 1.244 . S
O389 Co363 2.155 . S
O389 C391 1.240 . S
O390 Co363 2.096 . S
O390 C371 1.247 . S
C391 O388 1.244 . S
C391 O389 1.240 . S
H392 C366 0.931 . S
H393 C375 0.931 . S
H394 C379 0.929 . S
H395 C381 0.930 . S
Co396 N400 2.148 . S
Co396 N406 2.128 . S
Co396 N416 2.194 . S
Co396 O421 2.351 . S
Co396 O422 2.155 . S
Co396 O423 2.096 . S
C397 N400 1.301 . S
C397 N401 1.328 . S
C397 H402 0.930 . S
C398 C399 1.333 . S
C398 N400 1.317 . S
C398 H403 0.930 . S
C399 C398 1.333 . S
C399 N401 1.350 . S
C399 H425 0.931 . S
N400 Co396 2.148 . S
N400 C397 1.301 . S
N400 C398 1.317 . S
N401 C397 1.328 . S
N401 C399 1.350 . S
H402 C397 0.930 . S
H403 C398 0.930 . S
C404 O405 1.224 . S
C404 O423 1.247 . S
O405 C404 1.224 . S
N406 Co396 2.128 . S
N406 C407 1.355 . S
N406 C409 1.311 . S
C407 N406 1.355 . S
C407 C408 1.363 . S
C407 H419 0.929 . S
C408 C407 1.363 . S
C408 N410 1.375 . S
C408 H426 0.931 . S
C409 N406 1.311 . S
C409 N410 1.347 . S
C409 H420 0.929 . S
N410 C408 1.375 . S
N410 C409 1.347 . S
C411 C414 1.365 . S
C411 N416 1.328 . S
C411 H417 0.929 . S
C412 C413 1.362 . S
C412 C415 1.378 . S
C412 H427 0.929 . S
C413 C412 1.362 . S
C413 C414 1.366 . S
C414 C411 1.365 . S
C414 C413 1.366 . S
C414 H428 0.930 . S
C415 C412 1.378 . S
C415 N416 1.315 . S
C415 H418 0.930 . S
N416 Co396 2.194 . S
N416 C411 1.328 . S
N416 C415 1.315 . S
H417 C411 0.929 . S
H418 C415 0.930 . S
H419 C407 0.929 . S
H420 C409 0.929 . S
O421 Co396 2.351 . S
O421 C424 1.244 . S
O422 Co396 2.155 . S
O422 C424 1.240 . S
O423 Co396 2.096 . S
O423 C404 1.247 . S
C424 O421 1.244 . S
C424 O422 1.240 . S
H425 C399 0.931 . S
H426 C408 0.931 . S
H427 C412 0.929 . S
H428 C414 0.930 . S
Co429 N433 2.148 . S
Co429 N439 2.128 . S
Co429 N449 2.194 . S
Co429 O454 2.351 . S
Co429 O455 2.155 1_455 S
Co429 O456 2.096 1_455 S
C430 N433 1.301 . S
C430 N434 1.328 . S
C430 H435 0.930 . S
C431 C432 1.333 . S
C431 N433 1.317 1_655 S
C431 H436 0.930 . S
C432 C431 1.333 . S
C432 N434 1.350 1_655 S
C432 H458 0.931 . S
N433 Co429 2.148 . S
N433 C430 1.301 . S
N433 C431 1.317 1_455 S
N434 C430 1.328 . S
N434 C432 1.350 1_455 S
H435 C430 0.930 . S
H436 C431 0.930 . S
C437 O438 1.224 . S
C437 O456 1.247 . S
O438 C437 1.224 . S
N439 Co429 2.128 . S
N439 C440 1.355 . S
N439 C442 1.311 . S
C440 N439 1.355 . S
C440 C441 1.363 . S
C440 H452 0.929 . S
C441 C440 1.363 . S
C441 N443 1.375 . S
C441 H459 0.931 . S
C442 N439 1.311 . S
C442 N443 1.347 . S
C442 H453 0.929 1_455 S
N443 C441 1.375 . S
N443 C442 1.347 . S
C444 C447 1.365 . S
C444 N449 1.328 . S
C444 H450 0.929 . S
C445 C446 1.362 . S
C445 C448 1.378 . S
C445 H460 0.929 . S
C446 C445 1.362 . S
C446 C447 1.366 . S
C447 C444 1.365 . S
C447 C446 1.366 . S
C447 H461 0.930 . S
C448 C445 1.378 . S
C448 N449 1.315 . S
C448 H451 0.930 . S
N449 Co429 2.194 . S
N449 C444 1.328 . S
N449 C448 1.315 . S
H450 C444 0.929 . S
H451 C448 0.930 . S
H452 C440 0.929 . S
H453 C442 0.929 1_655 S
O454 Co429 2.351 . S
O454 C457 1.244 . S
O455 Co429 2.155 1_655 S
O455 C457 1.240 1_655 S
O456 Co429 2.096 1_655 S
O456 C437 1.247 . S
C457 O454 1.244 . S
C457 O455 1.240 1_455 S
H458 C432 0.931 . S
H459 C441 0.931 . S
H460 C445 0.929 . S
H461 C447 0.930 . S
Co462 N466 2.148 . S
Co462 N472 2.128 . S
Co462 N482 2.194 . S
Co462 O487 2.351 . S
Co462 O488 2.155 . S
Co462 O489 2.096 . S
C463 N466 1.301 . S
C463 N467 1.328 . S
C463 H468 0.930 . S
C464 C465 1.333 . S
C464 N466 1.317 . S
C464 H469 0.930 . S
C465 C464 1.333 . S
C465 N467 1.350 . S
C465 H491 0.931 . S
N466 Co462 2.148 . S
N466 C463 1.301 . S
N466 C464 1.317 . S
N467 C463 1.328 . S
N467 C465 1.350 . S
H468 C463 0.930 . S
H469 C464 0.930 . S
C470 O471 1.224 . S
C470 O489 1.247 . S
O471 C470 1.224 . S
N472 Co462 2.128 . S
N472 C473 1.355 . S
N472 C475 1.311 . S
C473 N472 1.355 . S
C473 C474 1.363 . S
C473 H485 0.929 . S
C474 C473 1.363 . S
C474 N476 1.375 . S
C474 H492 0.931 . S
C475 N472 1.311 . S
C475 N476 1.347 . S
C475 H486 0.929 . S
N476 C474 1.375 . S
N476 C475 1.347 . S
C477 C480 1.365 . S
C477 N482 1.328 . S
C477 H483 0.929 . S
C478 C479 1.362 . S
C478 C481 1.378 . S
C478 H493 0.929 . S
C479 C478 1.362 . S
C479 C480 1.366 . S
C480 C477 1.365 . S
C480 C479 1.366 . S
C480 H494 0.930 . S
C481 C478 1.378 . S
C481 N482 1.315 . S
C481 H484 0.930 . S
N482 Co462 2.194 . S
N482 C477 1.328 . S
N482 C481 1.315 . S
H483 C477 0.929 . S
H484 C481 0.930 . S
H485 C473 0.929 . S
H486 C475 0.929 . S
O487 Co462 2.351 . S
O487 C490 1.244 . S
O488 Co462 2.155 . S
O488 C490 1.240 . S
O489 Co462 2.096 . S
O489 C470 1.247 . S
C490 O487 1.244 . S
C490 O488 1.240 . S
H491 C465 0.931 . S
H492 C474 0.931 . S
H493 C478 0.929 . S
H494 C480 0.930 . S
Co495 N499 2.148 . S
Co495 N505 2.128 . S
Co495 N515 2.194 . S
Co495 O520 2.351 . S
Co495 O521 2.155 1_455 S
Co495 O522 2.096 1_455 S
C496 N499 1.301 . S
C496 N500 1.328 . S
C496 H501 0.930 . S
C497 C498 1.333 . S
C497 N499 1.317 1_655 S
C497 H502 0.930 . S
C498 C497 1.333 . S
C498 N500 1.350 1_655 S
C498 H524 0.931 . S
N499 Co495 2.148 . S
N499 C496 1.301 . S
N499 C497 1.317 1_455 S
N500 C496 1.328 . S
N500 C498 1.350 1_455 S
H501 C496 0.930 . S
H502 C497 0.930 . S
C503 O504 1.224 . S
C503 O522 1.247 . S
O504 C503 1.224 . S
N505 Co495 2.128 . S
N505 C506 1.355 . S
N505 C508 1.311 . S
C506 N505 1.355 . S
C506 C507 1.363 . S
C506 H518 0.929 . S
C507 C506 1.363 . S
C507 N509 1.375 . S
C507 H525 0.931 . S
C508 N505 1.311 . S
C508 N509 1.347 . S
C508 H519 0.929 1_455 S
N509 C507 1.375 . S
N509 C508 1.347 . S
C510 C513 1.365 . S
C510 N515 1.328 . S
C510 H516 0.929 . S
C511 C512 1.362 . S
C511 C514 1.378 . S
C511 H526 0.929 . S
C512 C511 1.362 . S
C512 C513 1.366 . S
C513 C510 1.365 . S
C513 C512 1.366 . S
C513 H527 0.930 . S
C514 C511 1.378 . S
C514 N515 1.315 . S
C514 H517 0.930 . S
N515 Co495 2.194 . S
N515 C510 1.328 . S
N515 C514 1.315 . S
H516 C510 0.929 . S
H517 C514 0.930 . S
H518 C506 0.929 . S
H519 C508 0.929 1_655 S
O520 Co495 2.351 . S
O520 C523 1.244 . S
O521 Co495 2.155 1_655 S
O521 C523 1.240 1_655 S
O522 Co495 2.096 1_655 S
O522 C503 1.247 . S
C523 O520 1.244 . S
C523 O521 1.240 1_455 S
H524 C498 0.931 . S
H525 C507 0.931 . S
H526 C511 0.929 . S
H527 C513 0.930 . S
H528 C540 0.930 . S
H529 C542 0.930 . S
H530 C543 0.930 . S
H531 C547 0.959 . S
H532 C547 0.959 . S
H533 C547 0.961 . S
H534 C548 0.960 . S
H535 C548 0.961 . S
H536 C548 0.959 . S
H537 C551 0.929 . S
H538 C552 0.931 . S
H539 C554 0.930 . S
C540 H528 0.930 . S
C540 C541 1.399 . S
C540 C545 1.399 . S
C541 C540 1.399 . S
C541 C542 1.376 1_455 S
C542 H529 0.930 . S
C542 C541 1.376 1_655 S
C542 C543 1.388 . S
C543 H530 0.930 . S
C543 C542 1.388 . S
C543 C544 1.390 1_655 S
C544 C543 1.390 1_455 S
C544 C545 1.394 . S
C544 C550 1.465 . S
C545 C540 1.399 . S
C545 C544 1.394 . S
C545 C546 1.516 . S
C546 C545 1.516 . S
C546 C547 1.502 . S
C546 C548 1.561 . S
C546 C549 1.526 . S
C547 H531 0.959 . S
C547 H532 0.959 . S
C547 H533 0.961 . S
C547 C546 1.502 . S
C548 H534 0.960 . S
C548 H535 0.961 . S
C548 H536 0.959 . S
C548 C546 1.561 . S
C549 C546 1.526 . S
C549 C550 1.396 . S
C549 C554 1.390 . S
C550 C544 1.465 . S
C550 C549 1.396 . S
C550 C551 1.399 1_455 S
C551 H537 0.929 . S
C551 C550 1.399 1_655 S
C551 C552 1.385 . S
C552 H538 0.931 . S
C552 C551 1.385 . S
C552 C553 1.389 1_655 S
C553 C552 1.389 1_455 S
C553 C554 1.387 . S
C554 H539 0.930 . S
C554 C549 1.390 . S
C554 C553 1.387 . S
H555 C567 0.930 . S
H556 C569 0.930 . S
H557 C570 0.930 . S
H558 C574 0.959 . S
H559 C574 0.959 1_655 S
H560 C574 0.961 . S
H561 C575 0.960 . S
H562 C575 0.961 1_655 S
H563 C575 0.959 . S
H564 C578 0.929 . S
H565 C579 0.931 . S
H566 C581 0.930 . S
C567 H555 0.930 . S
C567 C568 1.399 . S
C567 C572 1.399 . S
C568 C567 1.399 . S
C568 C569 1.376 . S
C569 H556 0.930 . S
C569 C568 1.376 . S
C569 C570 1.388 . S
C570 H557 0.930 . S
C570 C569 1.388 . S
C570 C571 1.390 . S
C571 C570 1.390 . S
C571 C572 1.394 . S
C571 C577 1.468 1_455 S
C572 C567 1.399 . S
C572 C571 1.394 . S
C572 C573 1.516 . S
C573 C572 1.516 . S
C573 C574 1.502 . S
C573 C575 1.561 . S
C573 C576 1.526 1_455 S
C574 H558 0.959 . S
C574 H559 0.959 1_455 S
C574 H560 0.961 . S
C574 C573 1.502 . S
C575 H561 0.960 . S
C575 H562 0.961 1_455 S
C575 H563 0.959 . S
C575 C573 1.561 . S
C576 C573 1.526 1_655 S
C576 C577 1.395 . S
C576 C581 1.390 . S
C577 C571 1.468 1_655 S
C577 C576 1.395 . S
C577 C578 1.397 . S
C578 H564 0.929 . S
C578 C577 1.397 . S
C578 C579 1.385 . S
C579 H565 0.931 . S
C579 C578 1.385 . S
C579 C580 1.389 . S
C580 C579 1.389 . S
C580 C581 1.387 . S
C581 H566 0.930 . S
C581 C576 1.390 . S
C581 C580 1.387 . S
H582 C594 0.930 . S
H583 C596 0.930 . S
H584 C597 0.930 . S
H585 C601 0.959 . S
H586 C601 0.959 . S
H587 C601 0.961 . S
H588 C602 0.960 . S
H589 C602 0.961 . S
H590 C602 0.959 . S
H591 C605 0.929 . S
H592 C606 0.931 . S
H593 C608 0.930 . S
C594 H582 0.930 . S
C594 C595 1.399 . S
C594 C599 1.399 . S
C595 C594 1.399 . S
C595 C596 1.376 . S
C596 H583 0.930 . S
C596 C595 1.376 . S
C596 C597 1.388 . S
C597 H584 0.930 . S
C597 C596 1.388 . S
C597 C598 1.390 . S
C598 C597 1.390 . S
C598 C599 1.394 . S
C598 C604 1.465 . S
C599 C594 1.399 . S
C599 C598 1.394 . S
C599 C600 1.516 . S
C600 C599 1.516 . S
C600 C601 1.502 . S
C600 C602 1.561 . S
C600 C603 1.526 . S
C601 H585 0.959 . S
C601 H586 0.959 . S
C601 H587 0.961 . S
C601 C600 1.502 . S
C602 H588 0.960 . S
C602 H589 0.961 . S
C602 H590 0.959 . S
C602 C600 1.561 . S
C603 C600 1.526 . S
C603 C604 1.396 . S
C603 C608 1.390 . S
C604 C598 1.465 . S
C604 C603 1.396 . S
C604 C605 1.399 . S
C605 H591 0.929 . S
C605 C604 1.399 . S
C605 C606 1.385 . S
C606 H592 0.931 . S
C606 C605 1.385 . S
C606 C607 1.389 . S
C607 C606 1.389 . S
C607 C608 1.387 . S
C608 H593 0.930 . S
C608 C603 1.390 . S
C608 C607 1.387 . S
H609 C621 0.930 . S
H610 C623 0.930 . S
H611 C624 0.930 . S
H612 C628 0.959 . S
H613 C628 0.959 . S
H614 C628 0.961 . S
H615 C629 0.960 . S
H616 C629 0.961 . S
H617 C629 0.959 . S
H618 C632 0.929 . S
H619 C633 0.931 . S
H620 C635 0.930 . S
C621 H609 0.930 . S
C621 C622 1.399 . S
C621 C626 1.399 . S
C622 C621 1.399 . S
C622 C623 1.376 . S
C623 H610 0.930 . S
C623 C622 1.376 . S
C623 C624 1.388 . S
C624 H611 0.930 . S
C624 C623 1.388 . S
C624 C625 1.390 . S
C625 C624 1.390 . S
C625 C626 1.394 . S
C625 C631 1.465 . S
C626 C621 1.399 . S
C626 C625 1.394 . S
C626 C627 1.516 . S
C627 C626 1.516 . S
C627 C628 1.502 . S
C627 C629 1.561 . S
C627 C630 1.526 . S
C628 H612 0.959 . S
C628 H613 0.959 . S
C628 H614 0.961 . S
C628 C627 1.502 . S
C629 H615 0.960 . S
C629 H616 0.961 . S
C629 H617 0.959 . S
C629 C627 1.561 . S
C630 C627 1.526 . S
C630 C631 1.396 . S
C630 C635 1.390 . S
C631 C625 1.465 . S
C631 C630 1.396 . S
C631 C632 1.399 . S
C632 H618 0.929 . S
C632 C631 1.399 . S
C632 C633 1.385 . S
C633 H619 0.931 . S
C633 C632 1.385 . S
C633 C634 1.389 . S
C634 C633 1.389 . S
C634 C635 1.387 . S
C635 H620 0.930 . S
C635 C630 1.390 . S
C635 C634 1.387 . S
H636 C648 0.930 . S
H637 C650 0.930 . S
H638 C651 0.930 . S
H639 C655 0.959 . S
H640 C655 0.959 . S
H641 C655 0.961 . S
H642 C656 0.960 . S
H643 C656 0.961 . S
H644 C656 0.959 . S
H645 C659 0.929 . S
H646 C660 0.931 . S
H647 C662 0.930 . S
C648 H636 0.930 . S
C648 C649 1.399 . S
C648 C653 1.399 . S
C649 C648 1.399 . S
C649 C650 1.376 . S
C650 H637 0.930 . S
C650 C649 1.376 . S
C650 C651 1.388 . S
C651 H638 0.930 . S
C651 C650 1.388 . S
C651 C652 1.390 . S
C652 C651 1.390 . S
C652 C653 1.394 . S
C652 C658 1.465 . S
C653 C648 1.399 . S
C653 C652 1.394 . S
C653 C654 1.516 . S
C654 C653 1.516 . S
C654 C655 1.502 1_455 S
C654 C656 1.561 . S
C654 C657 1.526 . S
C655 H639 0.959 . S
C655 H640 0.959 . S
C655 H641 0.961 . S
C655 C654 1.502 1_655 S
C656 H642 0.960 . S
C656 H643 0.961 . S
C656 H644 0.959 . S
C656 C654 1.561 . S
C657 C654 1.526 . S
C657 C658 1.396 . S
C657 C662 1.390 . S
C658 C652 1.465 . S
C658 C657 1.396 . S
C658 C659 1.399 . S
C659 H645 0.929 . S
C659 C658 1.399 . S
C659 C660 1.385 . S
C660 H646 0.931 . S
C660 C659 1.385 . S
C660 C661 1.389 . S
C661 C660 1.389 . S
C661 C662 1.387 . S
C662 H647 0.930 . S
C662 C657 1.390 . S
C662 C661 1.387 . S
H663 C675 0.930 . S
H664 C677 0.930 . S
H665 C678 0.930 . S
H666 C682 0.959 . S
H667 C682 0.959 . S
H668 C682 0.961 . S
H669 C683 0.960 . S
H670 C683 0.961 . S
H671 C683 0.959 . S
H672 C686 0.929 . S
H673 C687 0.931 . S
H674 C689 0.930 . S
C675 H663 0.930 . S
C675 C676 1.399 . S
C675 C680 1.399 . S
C676 C675 1.399 . S
C676 C677 1.376 . S
C677 H664 0.930 . S
C677 C676 1.376 . S
C677 C678 1.388 . S
C678 H665 0.930 . S
C678 C677 1.388 . S
C678 C679 1.390 . S
C679 C678 1.390 . S
C679 C680 1.394 . S
C679 C685 1.465 . S
C680 C675 1.399 . S
C680 C679 1.394 . S
C680 C681 1.516 . S
C681 C680 1.516 . S
C681 C682 1.502 . S
C681 C683 1.561 . S
C681 C684 1.526 . S
C682 H666 0.959 . S
C682 H667 0.959 . S
C682 H668 0.961 . S
C682 C681 1.502 . S
C683 H669 0.960 . S
C683 H670 0.961 . S
C683 H671 0.959 . S
C683 C681 1.561 . S
C684 C681 1.526 . S
C684 C685 1.396 . S
C684 C689 1.390 . S
C685 C679 1.465 . S
C685 C684 1.396 . S
C685 C686 1.399 . S
C686 H672 0.929 . S
C686 C685 1.399 . S
C686 C687 1.385 . S
C687 H673 0.931 . S
C687 C686 1.385 . S
C687 C688 1.389 . S
C688 C687 1.389 . S
C688 C689 1.387 . S
C689 H674 0.930 . S
C689 C684 1.390 . S
C689 C688 1.387 . S
H690 C702 0.930 . S
H691 C704 0.930 . S
H692 C705 0.930 . S
H693 C709 0.959 . S
H694 C709 0.959 . S
H695 C709 0.961 . S
H696 C710 0.960 . S
H697 C710 0.961 . S
H698 C710 0.959 . S
H699 C713 0.929 . S
H700 C714 0.931 . S
H701 C716 0.930 . S
C702 H690 0.930 . S
C702 C703 1.399 . S
C702 C707 1.399 . S
C703 C702 1.399 . S
C703 C704 1.376 . S
C704 H691 0.930 . S
C704 C703 1.376 . S
C704 C705 1.388 . S
C705 H692 0.930 . S
C705 C704 1.388 . S
C705 C706 1.390 . S
C706 C705 1.390 . S
C706 C707 1.394 . S
C706 C712 1.465 . S
C707 C702 1.399 . S
C707 C706 1.394 . S
C707 C708 1.516 . S
C708 C707 1.516 . S
C708 C709 1.502 . S
C708 C710 1.561 . S
C708 C711 1.526 . S
C709 H693 0.959 . S
C709 H694 0.959 . S
C709 H695 0.961 . S
C709 C708 1.502 . S
C710 H696 0.960 . S
C710 H697 0.961 . S
C710 H698 0.959 . S
C710 C708 1.561 . S
C711 C708 1.526 . S
C711 C712 1.396 . S
C711 C716 1.390 . S
C712 C706 1.465 . S
C712 C711 1.396 . S
C712 C713 1.399 . S
C713 H699 0.929 . S
C713 C712 1.399 . S
C713 C714 1.385 . S
C714 H700 0.931 . S
C714 C713 1.385 . S
C714 C715 1.389 . S
C715 C714 1.389 . S
C715 C716 1.387 . S
C716 H701 0.930 . S
C716 C711 1.390 . S
C716 C715 1.387 . S
H717 C729 0.930 . S
H718 C731 0.930 . S
H719 C732 0.930 . S
H720 C736 0.959 . S
H721 C736 0.959 . S
H722 C736 0.961 1_655 S
H723 C737 0.960 1_655 S
H724 C737 0.961 . S
H725 C737 0.959 . S
H726 C740 0.929 . S
H727 C741 0.931 . S
H728 C743 0.930 . S
C729 H717 0.930 . S
C729 C730 1.399 . S
C729 C734 1.399 . S
C730 C729 1.399 . S
C730 C731 1.376 . S
C731 H718 0.930 . S
C731 C730 1.376 . S
C731 C732 1.388 . S
C732 H719 0.930 . S
C732 C731 1.388 . S
C732 C733 1.407 . S
C733 C732 1.407 . S
C733 C734 1.401 . S
C733 C739 1.440 1_655 S
C734 C729 1.399 . S
C734 C733 1.401 . S
C734 C735 1.516 1_655 S
C735 C734 1.516 1_455 S
C735 C736 1.502 . S
C735 C737 1.561 . S
C735 C738 1.526 . S
C736 H720 0.959 . S
C736 H721 0.959 . S
C736 H722 0.961 1_455 S
C736 C735 1.502 . S
C737 H723 0.960 1_455 S
C737 H724 0.961 . S
C737 H725 0.959 . S
C737 C735 1.561 . S
C738 C735 1.526 . S
C738 C739 1.396 . S
C738 C743 1.390 . S
C739 C733 1.440 1_455 S
C739 C738 1.396 . S
C739 C740 1.399 . S
C740 H726 0.929 . S
C740 C739 1.399 . S
C740 C741 1.385 . S
C741 H727 0.931 . S
C741 C740 1.385 . S
C741 C742 1.389 . S
C742 C741 1.389 . S
C742 C743 1.387 . S
C743 H728 0.930 . S
C743 C738 1.390 . S
C743 C742 1.387 . S
H744 C756 0.920 1_655 S
H745 C758 0.930 1_565 S
H746 C759 0.930 1_565 S
H747 C763 0.959 . S
H748 C763 0.959 . S
H749 C763 0.961 1_554 S
H750 C764 0.960 1_554 S
H751 C764 0.961 . S
H752 C764 0.959 . S
H753 C767 0.929 . S
H754 C768 0.931 . S
H755 C770 0.933 . S
C756 H744 0.920 1_455 S
C756 C757 1.399 . S
C756 C761 1.399 . S
C757 C756 1.399 . S
C757 C758 1.376 . S
C758 H745 0.930 1_545 S
C758 C757 1.376 . S
C758 C759 1.388 . S
C759 H746 0.930 1_545 S
C759 C758 1.388 . S
C759 C760 1.390 . S
C760 C759 1.390 . S
C760 C761 1.394 . S
C760 C766 1.465 1_554 S
C761 C756 1.399 . S
C761 C760 1.394 . S
C761 C762 1.516 1_554 S
C762 C761 1.516 1_556 S
C762 C763 1.502 1_455 S
C762 C764 1.561 . S
C762 C765 1.526 . S
C763 H747 0.959 . S
C763 H748 0.959 . S
C763 H749 0.961 1_556 S
C763 C762 1.502 1_655 S
C764 H750 0.960 1_556 S
C764 H751 0.961 . S
C764 H752 0.959 . S
C764 C762 1.561 . S
C765 C762 1.526 . S
C765 C766 1.396 . S
C765 C770 1.390 . S
C766 C760 1.465 1_556 S
C766 C765 1.396 . S
C766 C767 1.399 1_545 S
C767 H753 0.929 . S
C767 C766 1.399 1_565 S
C767 C768 1.385 . S
C768 H754 0.931 . S
C768 C767 1.385 . S
C768 C769 1.389 1_565 S
C769 C768 1.389 1_545 S
C769 C770 1.387 . S
C770 H755 0.933 . S
C770 C765 1.390 . S
C770 C769 1.387 . S
H771 C783 0.930 . S
H772 C785 0.930 . S
H773 C786 0.930 . S
H774 C790 0.959 . S
H775 C790 0.959 . S
H776 C790 0.961 . S
H777 C791 0.960 . S
H778 C791 0.961 . S
H779 C791 0.959 . S
H780 C794 0.929 . S
H781 C795 0.931 . S
H782 C797 0.930 . S
C783 H771 0.930 . S
C783 C784 1.399 . S
C783 C788 1.399 . S
C784 C783 1.399 . S
C784 C785 1.376 . S
C785 H772 0.930 . S
C785 C784 1.376 . S
C785 C786 1.388 . S
C786 H773 0.930 . S
C786 C785 1.388 . S
C786 C787 1.390 . S
C787 C786 1.390 . S
C787 C788 1.394 . S
C787 C793 1.465 . S
C788 C783 1.399 . S
C788 C787 1.394 . S
C788 C789 1.516 . S
C789 C788 1.516 . S
C789 C790 1.502 . S
C789 C791 1.561 . S
C789 C792 1.526 . S
C790 H774 0.959 . S
C790 H775 0.959 . S
C790 H776 0.961 . S
C790 C789 1.502 . S
C791 H777 0.960 . S
C791 H778 0.961 . S
C791 H779 0.959 . S
C791 C789 1.561 . S
C792 C789 1.526 . S
C792 C793 1.396 . S
C792 C797 1.390 . S
C793 C787 1.465 . S
C793 C792 1.396 . S
C793 C794 1.399 . S
C794 H780 0.929 . S
C794 C793 1.399 . S
C794 C795 1.385 . S
C795 H781 0.931 . S
C795 C794 1.385 . S
C795 C796 1.389 . S
C796 C795 1.389 . S
C796 C797 1.387 . S
C797 H782 0.930 . S
C797 C792 1.390 . S
C797 C796 1.387 . S
H798 C810 0.930 . S
H799 C812 0.930 . S
H800 C813 0.930 . S
H801 C817 0.959 . S
H802 C817 0.959 . S
H803 C817 0.961 . S
H804 C818 0.960 . S
H805 C818 0.961 . S
H806 C818 0.959 . S
H807 C821 0.929 . S
H808 C822 0.931 . S
H809 C824 0.930 . S
C810 H798 0.930 . S
C810 C811 1.399 . S
C810 C815 1.399 . S
C811 C810 1.399 . S
C811 C812 1.376 . S
C812 H799 0.930 . S
C812 C811 1.376 . S
C812 C813 1.388 . S
C813 H800 0.930 . S
C813 C812 1.388 . S
C813 C814 1.390 . S
C814 C813 1.390 . S
C814 C815 1.394 . S
C814 C820 1.465 . S
C815 C810 1.399 . S
C815 C814 1.394 . S
C815 C816 1.516 . S
C816 C815 1.516 . S
C816 C817 1.502 . S
C816 C818 1.561 1_545 S
C816 C819 1.526 . S
C817 H801 0.959 . S
C817 H802 0.959 . S
C817 H803 0.961 . S
C817 C816 1.502 . S
C818 H804 0.960 . S
C818 H805 0.961 . S
C818 H806 0.959 . S
C818 C816 1.561 1_565 S
C819 C816 1.526 . S
C819 C820 1.396 . S
C819 C824 1.390 . S
C820 C814 1.465 . S
C820 C819 1.396 . S
C820 C821 1.399 . S
C821 H807 0.929 . S
C821 C820 1.399 . S
C821 C822 1.385 . S
C822 H808 0.931 . S
C822 C821 1.385 . S
C822 C823 1.389 . S
C823 C822 1.389 . S
C823 C824 1.387 . S
C824 H809 0.930 . S
C824 C819 1.390 . S
C824 C823 1.387 . S
H825 C837 0.930 . S
H826 C839 0.930 . S
H827 C840 0.930 . S
H828 C844 0.959 . S
H829 C844 0.959 . S
H830 C844 0.961 . S
H831 C845 0.960 . S
H832 C845 0.961 . S
H833 C845 0.959 . S
H834 C848 0.929 . S
H835 C849 0.931 . S
H836 C851 0.930 . S
C837 H825 0.930 . S
C837 C838 1.399 . S
C837 C842 1.399 . S
C838 C837 1.399 . S
C838 C839 1.376 . S
C839 H826 0.930 . S
C839 C838 1.376 . S
C839 C840 1.388 . S
C840 H827 0.930 . S
C840 C839 1.388 . S
C840 C841 1.390 . S
C841 C840 1.390 . S
C841 C842 1.394 . S
C841 C847 1.465 . S
C842 C837 1.399 . S
C842 C841 1.394 . S
C842 C843 1.516 . S
C843 C842 1.516 . S
C843 C844 1.502 . S
C843 C845 1.561 . S
C843 C846 1.526 . S
C844 H828 0.959 . S
C844 H829 0.959 . S
C844 H830 0.961 . S
C844 C843 1.502 . S
C845 H831 0.960 . S
C845 H832 0.961 . S
C845 H833 0.959 . S
C845 C843 1.561 . S
C846 C843 1.526 . S
C846 C847 1.396 . S
C846 C851 1.390 . S
C847 C841 1.465 . S
C847 C846 1.396 . S
C847 C848 1.399 . S
C848 H834 0.929 . S
C848 C847 1.399 . S
C848 C849 1.385 . S
C849 H835 0.931 . S
C849 C848 1.385 . S
C849 C850 1.389 . S
C850 C849 1.389 . S
C850 C851 1.387 . S
C851 H836 0.930 . S
C851 C846 1.390 . S
C851 C850 1.387 . S
H852 C864 0.930 . S
H853 C866 0.930 . S
H854 C867 0.930 . S
H855 C871 0.959 . S
H856 C871 0.959 . S
H857 C871 0.961 . S
H858 C872 0.960 . S
H859 C872 0.961 . S
H860 C872 0.959 . S
H861 C875 0.929 . S
H862 C876 0.931 . S
H863 C878 0.930 . S
C864 H852 0.930 . S
C864 C865 1.399 . S
C864 C869 1.399 . S
C865 C864 1.399 . S
C865 C866 1.376 . S
C866 H853 0.930 . S
C866 C865 1.376 . S
C866 C867 1.388 . S
C867 H854 0.930 . S
C867 C866 1.388 . S
C867 C868 1.390 . S
C868 C867 1.390 . S
C868 C869 1.394 . S
C868 C874 1.465 . S
C869 C864 1.399 . S
C869 C868 1.394 . S
C869 C870 1.516 . S
C870 C869 1.516 . S
C870 C871 1.502 . S
C870 C872 1.561 . S
C870 C873 1.526 . S
C871 H855 0.959 . S
C871 H856 0.959 . S
C871 H857 0.961 . S
C871 C870 1.502 . S
C872 H858 0.960 . S
C872 H859 0.961 . S
C872 H860 0.959 . S
C872 C870 1.561 . S
C873 C870 1.526 . S
C873 C874 1.396 . S
C873 C878 1.390 . S
C874 C868 1.465 . S
C874 C873 1.396 . S
C874 C875 1.399 . S
C875 H861 0.929 . S
C875 C874 1.399 . S
C875 C876 1.385 . S
C876 H862 0.931 . S
C876 C875 1.385 . S
C876 C877 1.389 . S
C877 C876 1.389 . S
C877 C878 1.387 . S
C878 H863 0.930 . S
C878 C873 1.390 . S
C878 C877 1.387 . S
H879 C891 0.930 . S
H880 C893 0.930 . S
H881 C894 0.930 . S
H882 C898 0.959 . S
H883 C898 0.959 . S
H884 C898 0.961 . S
H885 C899 0.960 . S
H886 C899 0.961 . S
H887 C899 0.959 . S
H888 C902 0.929 . S
H889 C903 0.931 . S
H890 C905 0.930 . S
C891 H879 0.930 . S
C891 C892 1.399 . S
C891 C896 1.399 . S
C892 C891 1.399 . S
C892 C893 1.376 . S
C893 H880 0.930 . S
C893 C892 1.376 . S
C893 C894 1.388 . S
C894 H881 0.930 . S
C894 C893 1.388 . S
C894 C895 1.390 . S
C895 C894 1.390 . S
C895 C896 1.394 . S
C895 C901 1.465 . S
C896 C891 1.399 . S
C896 C895 1.394 . S
C896 C897 1.516 . S
C897 C896 1.516 . S
C897 C898 1.502 . S
C897 C899 1.561 . S
C897 C900 1.526 . S
C898 H882 0.959 . S
C898 H883 0.959 . S
C898 H884 0.961 . S
C898 C897 1.502 . S
C899 H885 0.960 . S
C899 H886 0.961 . S
C899 H887 0.959 . S
C899 C897 1.561 . S
C900 C897 1.526 . S
C900 C901 1.396 . S
C900 C905 1.390 . S
C901 C895 1.465 . S
C901 C900 1.396 . S
C901 C902 1.399 . S
C902 H888 0.929 . S
C902 C901 1.399 . S
C902 C903 1.385 . S
C903 H889 0.931 . S
C903 C902 1.385 . S
C903 C904 1.389 . S
C904 C903 1.389 . S
C904 C905 1.387 . S
C905 H890 0.930 . S
C905 C900 1.390 . S
C905 C904 1.387 . S
H906 C918 0.930 . S
H907 C920 0.930 . S
H908 C921 0.930 . S
H909 C925 0.959 . S
H910 C925 0.959 . S
H911 C925 0.961 . S
H912 C926 0.960 . S
H913 C926 0.961 . S
H914 C926 0.959 . S
H915 C929 0.929 . S
H916 C930 0.931 . S
H917 C932 0.930 . S
C918 H906 0.930 . S
C918 C919 1.399 . S
C918 C923 1.399 . S
C919 C918 1.399 . S
C919 C920 1.376 . S
C920 H907 0.930 . S
C920 C919 1.376 . S
C920 C921 1.388 . S
C921 H908 0.930 . S
C921 C920 1.388 . S
C921 C922 1.390 . S
C922 C921 1.390 . S
C922 C923 1.394 . S
C922 C928 1.465 . S
C923 C918 1.399 . S
C923 C922 1.394 . S
C923 C924 1.516 . S
C924 C923 1.516 . S
C924 C925 1.502 . S
C924 C926 1.561 . S
C924 C927 1.526 . S
C925 H909 0.959 . S
C925 H910 0.959 . S
C925 H911 0.961 . S
C925 C924 1.502 . S
C926 H912 0.960 . S
C926 H913 0.961 . S
C926 H914 0.959 . S
C926 C924 1.561 . S
C927 C924 1.526 . S
C927 C928 1.396 . S
C927 C932 1.390 . S
C928 C922 1.465 . S
C928 C927 1.396 . S
C928 C929 1.399 . S
C929 H915 0.929 . S
C929 C928 1.399 . S
C929 C930 1.385 . S
C930 H916 0.931 . S
C930 C929 1.385 . S
C930 C931 1.389 . S
C931 C930 1.389 . S
C931 C932 1.387 . S
C932 H917 0.930 . S
C932 C927 1.390 . S
C932 C931 1.387 . S
H933 C945 0.930 . S
H934 C947 0.930 . S
H935 C948 0.930 . S
H936 C952 0.972 . S
H937 C952 0.959 1_554 S
H938 C952 0.961 . S
H939 C953 0.960 . S
H940 C953 0.961 1_554 S
H941 C953 0.959 . S
H942 C956 0.929 . S
H943 C957 0.931 . S
H944 C959 0.930 . S
C945 H933 0.930 . S
C945 C946 1.399 . S
C945 C950 1.399 . S
C946 C945 1.399 . S
C946 C947 1.376 . S
C947 H934 0.930 . S
C947 C946 1.376 . S
C947 C948 1.388 . S
C948 H935 0.930 . S
C948 C947 1.388 . S
C948 C949 1.390 . S
C949 C948 1.390 . S
C949 C950 1.394 . S
C949 C955 1.465 1_556 S
C950 C945 1.399 . S
C950 C949 1.394 . S
C950 C951 1.516 . S
C951 C950 1.516 . S
C951 C952 1.502 1_455 S
C951 C953 1.561 . S
C951 C954 1.526 1_556 S
C952 H936 0.972 . S
C952 H937 0.959 1_556 S
C952 H938 0.961 . S
C952 C951 1.502 1_655 S
C953 H939 0.960 . S
C953 H940 0.961 1_556 S
C953 H941 0.959 . S
C953 C951 1.561 . S
C954 C951 1.526 1_554 S
C954 C955 1.396 . S
C954 C959 1.390 . S
C955 C949 1.465 1_554 S
C955 C954 1.396 . S
C955 C956 1.399 . S
C956 H942 0.929 . S
C956 C955 1.399 . S
C956 C957 1.385 . S
C957 H943 0.931 . S
C957 C956 1.385 . S
C957 C958 1.389 . S
C958 C957 1.389 . S
C958 C959 1.387 . S
C959 H944 0.930 . S
C959 C954 1.390 . S
C959 C958 1.387 . S
H960 C972 0.930 . S
H961 C974 0.930 . S
H962 C975 0.930 . S
H963 C979 0.959 . S
H964 C979 0.959 . S
H965 C979 0.961 . S
H966 C980 0.960 . S
H967 C980 0.961 . S
H968 C980 0.959 . S
H969 C983 0.929 . S
H970 C984 0.931 . S
H971 C986 0.930 . S
C972 H960 0.930 . S
C972 C973 1.399 . S
C972 C977 1.399 . S
C973 C972 1.399 . S
C973 C974 1.376 . S
C974 H961 0.930 . S
C974 C973 1.376 . S
C974 C975 1.388 . S
C975 H962 0.930 . S
C975 C974 1.388 . S
C975 C976 1.390 . S
C976 C975 1.390 . S
C976 C977 1.394 . S
C976 C982 1.465 . S
C977 C972 1.399 . S
C977 C976 1.394 . S
C977 C978 1.516 . S
C978 C977 1.516 . S
C978 C979 1.502 . S
C978 C980 1.561 . S
C978 C981 1.526 . S
C979 H963 0.959 . S
C979 H964 0.959 . S
C979 H965 0.961 . S
C979 C978 1.502 . S
C980 H966 0.960 . S
C980 H967 0.961 . S
C980 H968 0.959 . S
C980 C978 1.561 . S
C981 C978 1.526 . S
C981 C982 1.396 . S
C981 C986 1.390 . S
C982 C976 1.465 . S
C982 C981 1.396 . S
C982 C983 1.399 1_565 S
C983 H969 0.929 . S
C983 C982 1.399 1_545 S
C983 C984 1.385 . S
C984 H970 0.931 . S
C984 C983 1.385 . S
C984 C985 1.389 . S
C985 C984 1.389 . S
C985 C986 1.387 1_545 S
C986 H971 0.930 . S
C986 C981 1.390 . S
C986 C985 1.387 1_565 S
H987 C999 0.930 . S
H988 C1001 0.930 . S
H989 C1002 0.930 . S
H990 C1006 0.959 . S
H991 C1006 0.959 . S
H992 C1006 0.961 . S
H993 C1007 0.960 . S
H994 C1007 0.961 . S
H995 C1007 0.959 . S
H996 C1010 0.929 1_545 S
H997 C1011 0.931 . S
H998 C1013 0.930 . S
C999 H987 0.930 . S
C999 C1000 1.399 . S
C999 C1004 1.399 . S
C1000 C999 1.399 . S
C1000 C1001 1.376 . S
C1001 H988 0.930 . S
C1001 C1000 1.376 . S
C1001 C1002 1.388 . S
C1002 H989 0.930 . S
C1002 C1001 1.388 . S
C1002 C1003 1.390 . S
C1003 C1002 1.390 . S
C1003 C1004 1.394 . S
C1003 C1009 1.465 . S
C1004 C999 1.399 . S
C1004 C1003 1.394 . S
C1004 C1005 1.516 . S
C1005 C1004 1.516 . S
C1005 C1006 1.502 . S
C1005 C1007 1.561 . S
C1005 C1008 1.526 . S
C1006 H990 0.959 . S
C1006 H991 0.959 . S
C1006 H992 0.961 . S
C1006 C1005 1.502 . S
C1007 H993 0.960 . S
C1007 H994 0.961 . S
C1007 H995 0.959 . S
C1007 C1005 1.561 . S
C1008 C1005 1.526 . S
C1008 C1009 1.396 . S
C1008 C1013 1.390 . S
C1009 C1003 1.465 . S
C1009 C1008 1.396 . S
C1009 C1010 1.399 . S
C1010 H996 0.929 1_565 S
C1010 C1009 1.399 . S
C1010 C1011 1.385 1_565 S
C1011 H997 0.931 . S
C1011 C1010 1.385 1_545 S
C1011 C1012 1.391 . S
C1012 C1011 1.391 . S
C1012 C1013 1.382 1_545 S
C1013 H998 0.930 . S
C1013 C1008 1.390 . S
C1013 C1012 1.382 1_565 S
H1014 C1026 0.930 . S
H1015 C1028 0.930 . S
H1016 C1029 0.930 . S
H1017 C1033 0.959 . S
H1018 C1033 0.959 . S
H1019 C1033 0.961 . S
H1020 C1034 0.960 . S
H1021 C1034 0.961 . S
H1022 C1034 0.959 . S
H1023 C1037 0.929 . S
H1024 C1038 0.931 . S
H1025 C1040 0.930 . S
C1026 H1014 0.930 . S
C1026 C1027 1.399 . S
C1026 C1031 1.399 . S
C1027 C1026 1.399 . S
C1027 C1028 1.376 . S
C1028 H1015 0.930 . S
C1028 C1027 1.376 . S
C1028 C1029 1.388 . S
C1029 H1016 0.930 . S
C1029 C1028 1.388 . S
C1029 C1030 1.390 . S
C1030 C1029 1.390 . S
C1030 C1031 1.394 . S
C1030 C1036 1.465 . S
C1031 C1026 1.399 . S
C1031 C1030 1.394 . S
C1031 C1032 1.516 . S
C1032 C1031 1.516 . S
C1032 C1033 1.502 . S
C1032 C1034 1.561 . S
C1032 C1035 1.526 . S
C1033 H1017 0.959 . S
C1033 H1018 0.959 . S
C1033 H1019 0.961 . S
C1033 C1032 1.502 . S
C1034 H1020 0.960 . S
C1034 H1021 0.961 . S
C1034 H1022 0.959 . S
C1034 C1032 1.561 . S
C1035 C1032 1.526 . S
C1035 C1036 1.396 . S
C1035 C1040 1.390 . S
C1036 C1030 1.465 . S
C1036 C1035 1.396 . S
C1036 C1037 1.399 . S
C1037 H1023 0.929 . S
C1037 C1036 1.399 . S
C1037 C1038 1.385 . S
C1038 H1024 0.931 . S
C1038 C1037 1.385 . S
C1038 C1039 1.389 . S
C1039 C1038 1.389 . S
C1039 C1040 1.387 . S
C1040 H1025 0.930 . S
C1040 C1035 1.390 . S
C1040 C1039 1.387 . S
H1041 C1053 0.930 . S
H1042 C1055 0.930 . S
H1043 C1056 0.930 . S
H1044 C1060 0.959 . S
H1045 C1060 0.959 . S
H1046 C1060 0.961 . S
H1047 C1061 0.960 . S
H1048 C1061 0.961 . S
H1049 C1061 0.959 . S
H1050 C1064 0.929 . S
H1051 C1065 0.931 . S
H1052 C1067 0.930 . S
C1053 H1041 0.930 . S
C1053 C1054 1.399 . S
C1053 C1058 1.399 . S
C1054 C1053 1.399 . S
C1054 C1055 1.376 . S
C1055 H1042 0.930 . S
C1055 C1054 1.376 . S
C1055 C1056 1.388 . S
C1056 H1043 0.930 . S
C1056 C1055 1.388 . S
C1056 C1057 1.390 . S
C1057 C1056 1.390 . S
C1057 C1058 1.394 . S
C1057 C1063 1.465 . S
C1058 C1053 1.399 . S
C1058 C1057 1.394 . S
C1058 C1059 1.516 . S
C1059 C1058 1.516 . S
C1059 C1060 1.502 . S
C1059 C1061 1.561 . S
C1059 C1062 1.526 . S
C1060 H1044 0.959 . S
C1060 H1045 0.959 . S
C1060 H1046 0.961 . S
C1060 C1059 1.502 . S
C1061 H1047 0.960 . S
C1061 H1048 0.961 . S
C1061 H1049 0.959 . S
C1061 C1059 1.561 . S
C1062 C1059 1.526 . S
C1062 C1063 1.396 . S
C1062 C1067 1.390 . S
C1063 C1057 1.465 . S
C1063 C1062 1.396 . S
C1063 C1064 1.399 . S
C1064 H1050 0.929 . S
C1064 C1063 1.399 . S
C1064 C1065 1.385 . S
C1065 H1051 0.931 . S
C1065 C1064 1.385 . S
C1065 C1066 1.389 . S
C1066 C1065 1.389 . S
C1066 C1067 1.387 . S
C1067 H1052 0.930 . S
C1067 C1062 1.390 . S
C1067 C1066 1.387 . S
H1068 C1080 0.930 . S
H1069 C1082 0.930 . S
H1070 C1083 0.930 . S
H1071 C1087 0.959 . S
H1072 C1087 0.959 . S
H1073 C1087 0.961 . S
H1074 C1088 0.960 . S
H1075 C1088 0.961 . S
H1076 C1088 0.959 . S
H1077 C1091 0.929 . S
H1078 C1092 0.931 . S
H1079 C1094 0.930 . S
C1080 H1068 0.930 . S
C1080 C1081 1.399 . S
C1080 C1085 1.399 . S
C1081 C1080 1.399 . S
C1081 C1082 1.376 . S
C1082 H1069 0.930 . S
C1082 C1081 1.376 . S
C1082 C1083 1.388 . S
C1083 H1070 0.930 . S
C1083 C1082 1.388 . S
C1083 C1084 1.390 . S
C1084 C1083 1.390 . S
C1084 C1085 1.394 . S
C1084 C1090 1.465 . S
C1085 C1080 1.399 . S
C1085 C1084 1.394 . S
C1085 C1086 1.516 . S
C1086 C1085 1.516 . S
C1086 C1087 1.502 . S
C1086 C1088 1.561 . S
C1086 C1089 1.526 . S
C1087 H1071 0.959 . S
C1087 H1072 0.959 . S
C1087 H1073 0.961 . S
C1087 C1086 1.502 . S
C1088 H1074 0.960 . S
C1088 H1075 0.961 . S
C1088 H1076 0.959 . S
C1088 C1086 1.561 . S
C1089 C1086 1.526 . S
C1089 C1090 1.396 . S
C1089 C1094 1.390 . S
C1090 C1084 1.465 . S
C1090 C1089 1.396 . S
C1090 C1091 1.399 . S
C1091 H1077 0.929 . S
C1091 C1090 1.399 . S
C1091 C1092 1.385 . S
C1092 H1078 0.931 . S
C1092 C1091 1.385 . S
C1092 C1093 1.389 . S
C1093 C1092 1.389 . S
C1093 C1094 1.387 . S
C1094 H1079 0.930 . S
C1094 C1089 1.390 . S
C1094 C1093 1.387 . S
H1095 C1107 0.930 . S
H1096 C1109 0.930 . S
H1097 C1110 0.930 . S
H1098 C1114 0.959 . S
H1099 C1114 0.959 . S
H1100 C1114 0.961 . S
H1101 C1115 0.960 . S
H1102 C1115 0.961 . S
H1103 C1115 0.959 . S
H1104 C1118 0.929 . S
H1105 C1119 0.931 . S
H1106 C1121 0.930 . S
C1107 H1095 0.930 . S
C1107 C1108 1.399 . S
C1107 C1112 1.399 . S
C1108 C1107 1.399 . S
C1108 C1109 1.376 . S
C1109 H1096 0.930 . S
C1109 C1108 1.376 . S
C1109 C1110 1.388 . S
C1110 H1097 0.930 . S
C1110 C1109 1.388 . S
C1110 C1111 1.390 . S
C1111 C1110 1.390 . S
C1111 C1112 1.394 . S
C1111 C1117 1.465 . S
C1112 C1107 1.399 . S
C1112 C1111 1.394 . S
C1112 C1113 1.516 . S
C1113 C1112 1.516 . S
C1113 C1114 1.502 . S
C1113 C1115 1.561 . S
C1113 C1116 1.526 . S
C1114 H1098 0.959 . S
C1114 H1099 0.959 . S
C1114 H1100 0.961 . S
C1114 C1113 1.502 . S
C1115 H1101 0.960 . S
C1115 H1102 0.961 . S
C1115 H1103 0.959 . S
C1115 C1113 1.561 . S
C1116 C1113 1.526 . S
C1116 C1117 1.396 . S
C1116 C1121 1.390 . S
C1117 C1111 1.465 . S
C1117 C1116 1.396 . S
C1117 C1118 1.399 . S
C1118 H1104 0.929 . S
C1118 C1117 1.399 . S
C1118 C1119 1.385 . S
C1119 H1105 0.931 . S
C1119 C1118 1.385 . S
C1119 C1120 1.389 . S
C1120 C1119 1.389 . S
C1120 C1121 1.387 . S
C1121 H1106 0.930 . S
C1121 C1116 1.390 . S
C1121 C1120 1.387 . S
H1122 C1134 0.930 . S
H1123 C1136 0.930 . S
H1124 C1137 0.930 1_545 S
H1125 C1141 0.959 . S
H1126 C1141 0.959 . S
H1127 C1141 0.961 . S
H1128 C1142 0.960 . S
H1129 C1142 0.961 . S
H1130 C1142 0.959 . S
H1131 C1145 0.929 . S
H1132 C1146 0.931 . S
H1133 C1148 0.934 . S
C1134 H1122 0.930 . S
C1134 C1135 1.399 . S
C1134 C1139 1.399 . S
C1135 C1134 1.399 . S
C1135 C1136 1.376 . S
C1136 H1123 0.930 . S
C1136 C1135 1.376 . S
C1136 C1137 1.388 . S
C1137 H1124 0.930 1_565 S
C1137 C1136 1.388 . S
C1137 C1138 1.390 . S
C1138 C1137 1.390 . S
C1138 C1139 1.394 . S
C1138 C1144 1.465 1_565 S
C1139 C1134 1.399 . S
C1139 C1138 1.394 . S
C1139 C1140 1.516 . S
C1140 C1139 1.516 . S
C1140 C1141 1.502 . S
C1140 C1142 1.561 . S
C1140 C1143 1.526 . S
C1141 H1125 0.959 . S
C1141 H1126 0.959 . S
C1141 H1127 0.961 . S
C1141 C1140 1.502 . S
C1142 H1128 0.960 . S
C1142 H1129 0.961 . S
C1142 H1130 0.959 . S
C1142 C1140 1.561 . S
C1143 C1140 1.526 . S
C1143 C1144 1.396 1_565 S
C1143 C1148 1.393 . S
C1144 C1138 1.465 1_545 S
C1144 C1143 1.396 1_545 S
C1144 C1145 1.399 . S
C1145 H1131 0.929 . S
C1145 C1144 1.399 . S
C1145 C1146 1.385 . S
C1146 H1132 0.931 . S
C1146 C1145 1.385 . S
C1146 C1147 1.389 . S
C1147 C1146 1.389 . S
C1147 C1148 1.380 1_545 S
C1148 H1133 0.934 . S
C1148 C1143 1.393 . S
C1148 C1147 1.380 1_565 S
H1149 C1161 0.930 . S
H1150 C1163 0.930 . S
H1151 C1164 0.930 . S
H1152 C1168 0.959 . S
H1153 C1168 0.959 . S
H1154 C1168 0.961 . S
H1155 C1169 0.960 1_565 S
H1156 C1169 0.961 . S
H1157 C1169 0.959 1_565 S
H1158 C1172 0.929 . S
H1159 C1173 0.931 . S
H1160 C1175 0.930 . S
C1161 H1149 0.930 . S
C1161 C1162 1.399 . S
C1161 C1166 1.399 . S
C1162 C1161 1.399 . S
C1162 C1163 1.376 . S
C1163 H1150 0.930 . S
C1163 C1162 1.376 . S
C1163 C1164 1.388 . S
C1164 H1151 0.930 . S
C1164 C1163 1.388 . S
C1164 C1165 1.390 . S
C1165 C1164 1.390 . S
C1165 C1166 1.394 . S
C1165 C1171 1.465 . S
C1166 C1161 1.399 . S
C1166 C1165 1.394 . S
C1166 C1167 1.516 1_565 S
C1167 C1166 1.516 1_545 S
C1167 C1168 1.502 . S
C1167 C1169 1.561 . S
C1167 C1170 1.526 . S
C1168 H1152 0.959 . S
C1168 H1153 0.959 . S
C1168 H1154 0.961 . S
C1168 C1167 1.502 . S
C1169 H1155 0.960 1_545 S
C1169 H1156 0.961 . S
C1169 H1157 0.959 1_545 S
C1169 C1167 1.561 . S
C1170 C1167 1.526 . S
C1170 C1171 1.396 1_545 S
C1170 C1175 1.390 . S
C1171 C1165 1.465 . S
C1171 C1170 1.396 1_565 S
C1171 C1172 1.399 . S
C1172 H1158 0.929 . S
C1172 C1171 1.399 . S
C1172 C1173 1.385 . S
C1173 H1159 0.931 . S
C1173 C1172 1.385 . S
C1173 C1174 1.389 1_565 S
C1174 C1173 1.389 1_545 S
C1174 C1175 1.387 . S
C1175 H1160 0.930 . S
C1175 C1170 1.390 . S
C1175 C1174 1.387 . S
H1176 C1188 0.930 . S
H1177 C1190 0.930 . S
H1178 C1191 0.930 . S
H1179 C1195 0.959 . S
H1180 C1195 0.959 . S
H1181 C1195 0.961 . S
H1182 C1196 0.960 . S
H1183 C1196 0.961 . S
H1184 C1196 0.959 . S
H1185 C1199 0.929 . S
H1186 C1200 0.931 . S
H1187 C1202 0.930 . S
C1188 H1176 0.930 . S
C1188 C1189 1.399 . S
C1188 C1193 1.399 . S
C1189 C1188 1.399 . S
C1189 C1190 1.376 . S
C1190 H1177 0.930 . S
C1190 C1189 1.376 . S
C1190 C1191 1.388 . S
C1191 H1178 0.930 . S
C1191 C1190 1.388 . S
C1191 C1192 1.390 . S
C1192 C1191 1.390 . S
C1192 C1193 1.394 . S
C1192 C1198 1.465 . S
C1193 C1188 1.399 . S
C1193 C1192 1.394 . S
C1193 C1194 1.516 . S
C1194 C1193 1.516 . S
C1194 C1195 1.502 . S
C1194 C1196 1.561 . S
C1194 C1197 1.526 . S
C1195 H1179 0.959 . S
C1195 H1180 0.959 . S
C1195 H1181 0.961 . S
C1195 C1194 1.502 . S
C1196 H1182 0.960 . S
C1196 H1183 0.961 . S
C1196 H1184 0.959 . S
C1196 C1194 1.561 . S
C1197 C1194 1.526 . S
C1197 C1198 1.396 . S
C1197 C1202 1.390 . S
C1198 C1192 1.465 . S
C1198 C1197 1.396 . S
C1198 C1199 1.399 . S
C1199 H1185 0.929 . S
C1199 C1198 1.399 . S
C1199 C1200 1.385 . S
C1200 H1186 0.931 . S
C1200 C1199 1.385 . S
C1200 C1201 1.389 . S
C1201 C1200 1.389 . S
C1201 C1202 1.387 . S
C1202 H1187 0.930 . S
C1202 C1197 1.390 . S
C1202 C1201 1.387 . S
H1203 C1215 0.930 . S
H1204 C1217 0.930 . S
H1205 C1218 0.930 . S
H1206 C1222 0.959 . S
H1207 C1222 0.959 . S
H1208 C1222 0.961 . S
H1209 C1223 0.960 . S
H1210 C1223 0.961 . S
H1211 C1223 0.959 . S
H1212 C1226 0.929 . S
H1213 C1227 0.931 . S
H1214 C1229 0.930 . S
C1215 H1203 0.930 . S
C1215 C1216 1.399 . S
C1215 C1220 1.399 . S
C1216 C1215 1.399 . S
C1216 C1217 1.376 . S
C1217 H1204 0.930 . S
C1217 C1216 1.376 . S
C1217 C1218 1.388 . S
C1218 H1205 0.930 . S
C1218 C1217 1.388 . S
C1218 C1219 1.390 . S
C1219 C1218 1.390 . S
C1219 C1220 1.394 . S
C1219 C1225 1.465 . S
C1220 C1215 1.399 . S
C1220 C1219 1.394 . S
C1220 C1221 1.516 . S
C1221 C1220 1.516 . S
C1221 C1222 1.502 . S
C1221 C1223 1.561 . S
C1221 C1224 1.526 . S
C1222 H1206 0.959 . S
C1222 H1207 0.959 . S
C1222 H1208 0.961 . S
C1222 C1221 1.502 . S
C1223 H1209 0.960 . S
C1223 H1210 0.961 . S
C1223 H1211 0.959 . S
C1223 C1221 1.561 . S
C1224 C1221 1.526 . S
C1224 C1225 1.396 . S
C1224 C1229 1.390 . S
C1225 C1219 1.465 . S
C1225 C1224 1.396 . S
C1225 C1226 1.399 . S
C1226 H1212 0.929 . S
C1226 C1225 1.399 . S
C1226 C1227 1.385 . S
C1227 H1213 0.931 . S
C1227 C1226 1.385 . S
C1227 C1228 1.389 . S
C1228 C1227 1.389 . S
C1228 C1229 1.387 . S
C1229 H1214 0.930 . S
C1229 C1224 1.390 . S
C1229 C1228 1.387 . S
H1230 C1242 0.930 . S
H1231 C1244 0.930 . S
H1232 C1245 0.930 . S
H1233 C1249 0.959 . S
H1234 C1249 0.959 . S
H1235 C1249 0.961 . S
H1236 C1250 0.960 . S
H1237 C1250 0.961 . S
H1238 C1250 0.959 . S
H1239 C1253 0.929 . S
H1240 C1254 0.931 . S
H1241 C1256 0.930 . S
C1242 H1230 0.930 . S
C1242 C1243 1.399 . S
C1242 C1247 1.399 . S
C1243 C1242 1.399 . S
C1243 C1244 1.376 . S
C1244 H1231 0.930 . S
C1244 C1243 1.376 . S
C1244 C1245 1.388 . S
C1245 H1232 0.930 . S
C1245 C1244 1.388 . S
C1245 C1246 1.390 . S
C1246 C1245 1.390 . S
C1246 C1247 1.394 . S
C1246 C1252 1.465 . S
C1247 C1242 1.399 . S
C1247 C1246 1.394 . S
C1247 C1248 1.516 . S
C1248 C1247 1.516 . S
C1248 C1249 1.502 . S
C1248 C1250 1.561 . S
C1248 C1251 1.526 . S
C1249 H1233 0.959 . S
C1249 H1234 0.959 . S
C1249 H1235 0.961 . S
C1249 C1248 1.502 . S
C1250 H1236 0.960 . S
C1250 H1237 0.961 . S
C1250 H1238 0.959 . S
C1250 C1248 1.561 . S
C1251 C1248 1.526 . S
C1251 C1252 1.396 . S
C1251 C1256 1.390 . S
C1252 C1246 1.465 . S
C1252 C1251 1.396 . S
C1252 C1253 1.399 . S
C1253 H1239 0.929 . S
C1253 C1252 1.399 . S
C1253 C1254 1.385 . S
C1254 H1240 0.931 . S
C1254 C1253 1.385 . S
C1254 C1255 1.389 . S
C1255 C1254 1.389 . S
C1255 C1256 1.387 . S
C1256 H1241 0.930 . S
C1256 C1251 1.390 . S
C1256 C1255 1.387 . S
H1257 C1269 0.930 . S
H1258 C1271 0.930 . S
H1259 C1272 0.930 . S
H1260 C1276 0.959 . S
H1261 C1276 0.959 . S
H1262 C1276 0.961 . S
H1263 C1277 0.960 . S
H1264 C1277 0.961 . S
H1265 C1277 0.959 . S
H1266 C1280 0.929 . S
H1267 C1281 0.931 . S
H1268 C1283 0.930 . S
C1269 H1257 0.930 . S
C1269 C1270 1.399 . S
C1269 C1274 1.399 . S
C1270 C1269 1.399 . S
C1270 C1271 1.376 . S
C1271 H1258 0.930 . S
C1271 C1270 1.376 . S
C1271 C1272 1.388 . S
C1272 H1259 0.930 . S
C1272 C1271 1.388 . S
C1272 C1273 1.390 . S
C1273 C1272 1.390 . S
C1273 C1274 1.394 . S
C1273 C1279 1.465 . S
C1274 C1269 1.399 . S
C1274 C1273 1.394 . S
C1274 C1275 1.516 . S
C1275 C1274 1.516 . S
C1275 C1276 1.502 . S
C1275 C1277 1.561 . S
C1275 C1278 1.526 . S
C1276 H1260 0.959 . S
C1276 H1261 0.959 . S
C1276 H1262 0.961 . S
C1276 C1275 1.502 . S
C1277 H1263 0.960 . S
C1277 H1264 0.961 . S
C1277 H1265 0.959 . S
C1277 C1275 1.561 . S
C1278 C1275 1.526 . S
C1278 C1279 1.396 . S
C1278 C1283 1.390 . S
C1279 C1273 1.465 . S
C1279 C1278 1.396 . S
C1279 C1280 1.399 . S
C1280 H1266 0.929 . S
C1280 C1279 1.399 . S
C1280 C1281 1.385 . S
C1281 H1267 0.931 . S
C1281 C1280 1.385 . S
C1281 C1282 1.389 . S
C1282 C1281 1.389 . S
C1282 C1283 1.387 . S
C1283 H1268 0.930 . S
C1283 C1278 1.390 . S
C1283 C1282 1.387 . S
H1284 C1296 0.930 . S
H1285 C1298 0.930 . S
H1286 C1299 0.930 . S
H1287 C1303 0.959 . S
H1288 C1303 0.959 . S
H1289 C1303 0.961 . S
H1290 C1304 0.960 . S
H1291 C1304 0.961 . S
H1292 C1304 0.959 . S
H1293 C1307 0.929 . S
H1294 C1308 0.931 . S
H1295 C1310 0.930 . S
C1296 H1284 0.930 . S
C1296 C1297 1.399 . S
C1296 C1301 1.399 . S
C1297 C1296 1.399 . S
C1297 C1298 1.376 . S
C1298 H1285 0.930 . S
C1298 C1297 1.376 . S
C1298 C1299 1.388 . S
C1299 H1286 0.930 . S
C1299 C1298 1.388 . S
C1299 C1300 1.390 . S
C1300 C1299 1.390 . S
C1300 C1301 1.394 . S
C1300 C1306 1.465 . S
C1301 C1296 1.399 . S
C1301 C1300 1.394 . S
C1301 C1302 1.516 . S
C1302 C1301 1.516 . S
C1302 C1303 1.502 . S
C1302 C1304 1.561 . S
C1302 C1305 1.526 . S
C1303 H1287 0.959 . S
C1303 H1288 0.959 . S
C1303 H1289 0.961 . S
C1303 C1302 1.502 . S
C1304 H1290 0.960 . S
C1304 H1291 0.961 . S
C1304 H1292 0.959 . S
C1304 C1302 1.561 . S
C1305 C1302 1.526 . S
C1305 C1306 1.396 . S
C1305 C1310 1.390 . S
C1306 C1300 1.465 . S
C1306 C1305 1.396 . S
C1306 C1307 1.399 . S
C1307 H1293 0.929 . S
C1307 C1306 1.399 . S
C1307 C1308 1.385 . S
C1308 H1294 0.931 . S
C1308 C1307 1.385 . S
C1308 C1309 1.389 . S
C1309 C1308 1.389 . S
C1309 C1310 1.387 . S
C1310 H1295 0.930 . S
C1310 C1305 1.390 . S
C1310 C1309 1.387 . S
H1311 C1323 0.930 . S
H1312 C1325 0.930 . S
H1313 C1326 0.930 . S
H1314 C1330 0.959 . S
H1315 C1330 0.959 . S
H1316 C1330 0.961 . S
H1317 C1331 0.960 . S
H1318 C1331 0.961 . S
H1319 C1331 0.959 . S
H1320 C1334 0.929 . S
H1321 C1335 0.931 . S
H1322 C1337 0.930 . S
C1323 H1311 0.930 . S
C1323 C1324 1.399 . S
C1323 C1328 1.399 . S
C1324 C1323 1.399 . S
C1324 C1325 1.376 . S
C1325 H1312 0.930 . S
C1325 C1324 1.376 . S
C1325 C1326 1.388 . S
C1326 H1313 0.930 . S
C1326 C1325 1.388 . S
C1326 C1327 1.390 . S
C1327 C1326 1.390 . S
C1327 C1328 1.394 . S
C1327 C1333 1.465 . S
C1328 C1323 1.399 . S
C1328 C1327 1.394 . S
C1328 C1329 1.516 . S
C1329 C1328 1.516 . S
C1329 C1330 1.502 . S
C1329 C1331 1.561 . S
C1329 C1332 1.526 . S
C1330 H1314 0.959 . S
C1330 H1315 0.959 . S
C1330 H1316 0.961 . S
C1330 C1329 1.502 . S
C1331 H1317 0.960 . S
C1331 H1318 0.961 . S
C1331 H1319 0.959 . S
C1331 C1329 1.561 . S
C1332 C1329 1.526 . S
C1332 C1333 1.396 . S
C1332 C1337 1.390 . S
C1333 C1327 1.465 . S
C1333 C1332 1.396 . S
C1333 C1334 1.399 . S
C1334 H1320 0.929 . S
C1334 C1333 1.399 . S
C1334 C1335 1.385 . S
C1335 H1321 0.931 . S
C1335 C1334 1.385 . S
C1335 C1336 1.389 . S
C1336 C1335 1.389 . S
C1336 C1337 1.387 . S
C1337 H1322 0.930 . S
C1337 C1332 1.390 . S
C1337 C1336 1.387 . S
H1338 C1350 0.930 . S
H1339 C1352 0.930 . S
H1340 C1353 0.930 . S
H1341 C1357 0.959 . S
H1342 C1357 0.959 . S
H1343 C1357 0.961 . S
H1344 C1358 0.960 . S
H1345 C1358 0.961 . S
H1346 C1358 0.959 . S
H1347 C1361 0.929 . S
H1348 C1362 0.931 . S
H1349 C1364 0.930 . S
C1350 H1338 0.930 . S
C1350 C1351 1.399 . S
C1350 C1355 1.399 . S
C1351 C1350 1.399 . S
C1351 C1352 1.376 . S
C1352 H1339 0.930 . S
C1352 C1351 1.376 . S
C1352 C1353 1.388 . S
C1353 H1340 0.930 . S
C1353 C1352 1.388 . S
C1353 C1354 1.390 . S
C1354 C1353 1.390 . S
C1354 C1355 1.394 . S
C1354 C1360 1.465 . S
C1355 C1350 1.399 . S
C1355 C1354 1.394 . S
C1355 C1356 1.516 . S
C1356 C1355 1.516 . S
C1356 C1357 1.502 . S
C1356 C1358 1.561 . S
C1356 C1359 1.526 . S
C1357 H1341 0.959 . S
C1357 H1342 0.959 . S
C1357 H1343 0.961 . S
C1357 C1356 1.502 . S
C1358 H1344 0.960 . S
C1358 H1345 0.961 . S
C1358 H1346 0.959 . S
C1358 C1356 1.561 . S
C1359 C1356 1.526 . S
C1359 C1360 1.396 . S
C1359 C1364 1.390 . S
C1360 C1354 1.465 . S
C1360 C1359 1.396 . S
C1360 C1361 1.399 . S
C1361 H1347 0.929 . S
C1361 C1360 1.399 . S
C1361 C1362 1.385 . S
C1362 H1348 0.931 . S
C1362 C1361 1.385 . S
C1362 C1363 1.389 . S
C1363 C1362 1.389 . S
C1363 C1364 1.387 . S
C1364 H1349 0.930 . S
C1364 C1359 1.390 . S
C1364 C1363 1.387 . S
H1365 C1377 0.930 . S
H1366 C1379 0.930 . S
H1367 C1380 0.930 . S
H1368 C1384 0.959 . S
H1369 C1384 0.959 . S
H1370 C1384 0.961 . S
H1371 C1385 0.960 . S
H1372 C1385 0.961 . S
H1373 C1385 0.959 . S
H1374 C1388 0.929 . S
H1375 C1389 0.931 . S
H1376 C1391 0.930 . S
C1377 H1365 0.930 . S
C1377 C1378 1.399 . S
C1377 C1382 1.399 . S
C1378 C1377 1.399 . S
C1378 C1379 1.376 . S
C1379 H1366 0.930 . S
C1379 C1378 1.376 . S
C1379 C1380 1.388 . S
C1380 H1367 0.930 . S
C1380 C1379 1.388 . S
C1380 C1381 1.390 . S
C1381 C1380 1.390 . S
C1381 C1382 1.394 . S
C1381 C1387 1.465 . S
C1382 C1377 1.399 . S
C1382 C1381 1.394 . S
C1382 C1383 1.516 . S
C1383 C1382 1.516 . S
C1383 C1384 1.502 . S
C1383 C1385 1.561 . S
C1383 C1386 1.526 . S
C1384 H1368 0.959 . S
C1384 H1369 0.959 . S
C1384 H1370 0.961 . S
C1384 C1383 1.502 . S
C1385 H1371 0.960 . S
C1385 H1372 0.961 . S
C1385 H1373 0.959 . S
C1385 C1383 1.561 . S
C1386 C1383 1.526 . S
C1386 C1387 1.396 . S
C1386 C1391 1.390 . S
C1387 C1381 1.465 . S
C1387 C1386 1.396 . S
C1387 C1388 1.399 . S
C1388 H1374 0.929 . S
C1388 C1387 1.399 . S
C1388 C1389 1.385 . S
C1389 H1375 0.931 . S
C1389 C1388 1.385 . S
C1389 C1390 1.389 . S
C1390 C1389 1.389 . S
C1390 C1391 1.387 . S
C1391 H1376 0.930 . S
C1391 C1386 1.390 . S
C1391 C1390 1.387 . S
H1392 C1404 0.920 1_655 S
H1393 C1406 0.930 . S
H1394 C1407 0.930 . S
H1395 C1411 0.959 . S
H1396 C1411 0.959 . S
H1397 C1411 0.961 . S
H1398 C1412 0.960 . S
H1399 C1412 0.961 . S
H1400 C1412 0.959 . S
H1401 C1415 0.929 . S
H1402 C1416 0.931 . S
H1403 C1418 0.930 . S
C1404 H1392 0.920 1_455 S
C1404 C1405 1.399 . S
C1404 C1409 1.399 . S
C1405 C1404 1.399 . S
C1405 C1406 1.376 . S
C1406 H1393 0.930 . S
C1406 C1405 1.376 . S
C1406 C1407 1.388 . S
C1407 H1394 0.930 . S
C1407 C1406 1.388 . S
C1407 C1408 1.390 . S
C1408 C1407 1.390 . S
C1408 C1409 1.394 . S
C1408 C1414 1.465 . S
C1409 C1404 1.399 . S
C1409 C1408 1.394 . S
C1409 C1410 1.516 1_455 S
C1410 C1409 1.516 1_655 S
C1410 C1411 1.502 . S
C1410 C1412 1.561 1_655 S
C1410 C1413 1.526 1_655 S
C1411 H1395 0.959 . S
C1411 H1396 0.959 . S
C1411 H1397 0.961 . S
C1411 C1410 1.502 . S
C1412 H1398 0.960 . S
C1412 H1399 0.961 . S
C1412 H1400 0.959 . S
C1412 C1410 1.561 1_455 S
C1413 C1410 1.526 1_455 S
C1413 C1414 1.396 . S
C1413 C1418 1.389 1_455 S
C1414 C1408 1.465 . S
C1414 C1413 1.396 . S
C1414 C1415 1.399 . S
C1415 H1401 0.929 . S
C1415 C1414 1.399 . S
C1415 C1416 1.385 . S
C1416 H1402 0.931 . S
C1416 C1415 1.385 . S
C1416 C1417 1.389 . S
C1417 C1416 1.389 . S
C1417 C1418 1.386 1_455 S
C1418 H1403 0.930 . S
C1418 C1413 1.389 1_655 S
C1418 C1417 1.386 1_655 S
H1419 C1431 0.930 . S
H1420 C1433 0.930 . S
H1421 C1434 0.930 . S
H1422 C1438 0.959 . S
H1423 C1438 0.959 . S
H1424 C1438 0.961 . S
H1425 C1439 0.960 . S
H1426 C1439 0.961 . S
H1427 C1439 0.959 . S
H1428 C1442 0.929 . S
H1429 C1443 0.931 . S
H1430 C1445 0.930 . S
C1431 H1419 0.930 . S
C1431 C1432 1.399 . S
C1431 C1436 1.399 . S
C1432 C1431 1.399 . S
C1432 C1433 1.376 . S
C1433 H1420 0.930 . S
C1433 C1432 1.376 . S
C1433 C1434 1.388 . S
C1434 H1421 0.930 . S
C1434 C1433 1.388 . S
C1434 C1435 1.390 . S
C1435 C1434 1.390 . S
C1435 C1436 1.394 . S
C1435 C1441 1.465 . S
C1436 C1431 1.399 . S
C1436 C1435 1.394 . S
C1436 C1437 1.516 . S
C1437 C1436 1.516 . S
C1437 C1438 1.502 . S
C1437 C1439 1.561 . S
C1437 C1440 1.526 . S
C1438 H1422 0.959 . S
C1438 H1423 0.959 . S
C1438 H1424 0.961 . S
C1438 C1437 1.502 . S
C1439 H1425 0.960 . S
C1439 H1426 0.961 . S
C1439 H1427 0.959 . S
C1439 C1437 1.561 . S
C1440 C1437 1.526 . S
C1440 C1441 1.396 . S
C1440 C1445 1.390 . S
C1441 C1435 1.465 . S
C1441 C1440 1.396 . S
C1441 C1442 1.399 . S
C1442 H1428 0.929 . S
C1442 C1441 1.399 . S
C1442 C1443 1.385 . S
C1443 H1429 0.931 . S
C1443 C1442 1.385 . S
C1443 C1444 1.389 . S
C1444 C1443 1.389 . S
C1444 C1445 1.387 . S
C1445 H1430 0.930 . S
C1445 C1440 1.390 . S
C1445 C1444 1.387 . S
H1446 C1458 0.930 . S
H1447 C1460 0.930 . S
H1448 C1461 0.930 . S
H1449 C1465 0.959 . S
H1450 C1465 0.959 . S
H1451 C1465 0.961 . S
H1452 C1466 0.960 . S
H1453 C1466 0.961 . S
H1454 C1466 0.959 . S
H1455 C1469 0.929 . S
H1456 C1470 0.931 . S
H1457 C1472 0.930 . S
C1458 H1446 0.930 . S
C1458 C1459 1.399 . S
C1458 C1463 1.399 . S
C1459 C1458 1.399 . S
C1459 C1460 1.376 . S
C1460 H1447 0.930 . S
C1460 C1459 1.376 . S
C1460 C1461 1.388 . S
C1461 H1448 0.930 . S
C1461 C1460 1.388 . S
C1461 C1462 1.390 . S
C1462 C1461 1.390 . S
C1462 C1463 1.394 . S
C1462 C1468 1.465 . S
C1463 C1458 1.399 . S
C1463 C1462 1.394 . S
C1463 C1464 1.516 . S
C1464 C1463 1.516 . S
C1464 C1465 1.502 . S
C1464 C1466 1.561 . S
C1464 C1467 1.526 . S
C1465 H1449 0.959 . S
C1465 H1450 0.959 . S
C1465 H1451 0.961 . S
C1465 C1464 1.502 . S
C1466 H1452 0.960 . S
C1466 H1453 0.961 . S
C1466 H1454 0.959 . S
C1466 C1464 1.561 . S
C1467 C1464 1.526 . S
C1467 C1468 1.396 . S
C1467 C1472 1.390 . S
C1468 C1462 1.465 . S
C1468 C1467 1.396 . S
C1468 C1469 1.399 . S
C1469 H1455 0.929 . S
C1469 C1468 1.399 . S
C1469 C1470 1.385 . S
C1470 H1456 0.931 . S
C1470 C1469 1.385 . S
C1470 C1471 1.389 . S
C1471 C1470 1.389 . S
C1471 C1472 1.387 . S
C1472 H1457 0.930 . S
C1472 C1467 1.390 . S
C1472 C1471 1.387 . S
H1473 C1485 0.930 . S
H1474 C1487 0.930 . S
H1475 C1488 0.930 . S
H1476 C1492 0.959 . S
H1477 C1492 0.959 1_655 S
H1478 C1492 0.961 . S
H1479 C1493 0.960 . S
H1480 C1493 0.944 1_655 S
H1481 C1493 0.959 . S
H1482 C1496 0.929 . S
H1483 C1497 0.931 . S
H1484 C1499 0.930 . S
C1485 H1473 0.930 . S
C1485 C1486 1.399 . S
C1485 C1490 1.399 . S
C1486 C1485 1.399 . S
C1486 C1487 1.376 . S
C1487 H1474 0.930 . S
C1487 C1486 1.376 . S
C1487 C1488 1.388 . S
C1488 H1475 0.930 . S
C1488 C1487 1.388 . S
C1488 C1489 1.390 . S
C1489 C1488 1.390 . S
C1489 C1490 1.394 . S
C1489 C1495 1.493 . S
C1490 C1485 1.399 . S
C1490 C1489 1.394 . S
C1490 C1491 1.516 . S
C1491 C1490 1.516 . S
C1491 C1492 1.502 . S
C1491 C1493 1.561 . S
C1491 C1494 1.526 1_455 S
C1492 H1476 0.959 . S
C1492 H1477 0.959 1_455 S
C1492 H1478 0.961 . S
C1492 C1491 1.502 . S
C1493 H1479 0.960 . S
C1493 H1480 0.944 1_455 S
C1493 H1481 0.959 . S
C1493 C1491 1.561 . S
C1494 C1491 1.526 1_655 S
C1494 C1495 1.386 1_655 S
C1494 C1499 1.390 . S
C1495 C1489 1.493 . S
C1495 C1494 1.386 1_455 S
C1495 C1496 1.382 1_455 S
C1496 H1482 0.929 . S
C1496 C1495 1.382 1_655 S
C1496 C1497 1.385 . S
C1497 H1483 0.931 . S
C1497 C1496 1.385 . S
C1497 C1498 1.389 . S
C1498 C1497 1.389 . S
C1498 C1499 1.387 . S
C1499 H1484 0.930 . S
C1499 C1494 1.390 . S
C1499 C1498 1.387 . S
H1500 C1512 0.930 . S
H1501 C1514 0.926 1_655 S
H1502 C1515 0.930 . S
H1503 C1519 0.959 . S
H1504 C1519 0.959 . S
H1505 C1519 0.961 . S
H1506 C1520 0.960 . S
H1507 C1520 0.961 . S
H1508 C1520 0.959 1_655 S
H1509 C1523 0.929 . S
H1510 C1524 0.931 . S
H1511 C1526 0.930 . S
C1512 H1500 0.930 . S
C1512 C1513 1.399 . S
C1512 C1517 1.399 . S
C1513 C1512 1.399 . S
C1513 C1514 1.376 . S
C1514 H1501 0.926 1_455 S
C1514 C1513 1.376 . S
C1514 C1515 1.388 1_455 S
C1515 H1502 0.930 . S
C1515 C1514 1.388 1_655 S
C1515 C1516 1.390 1_655 S
C1516 C1515 1.390 1_455 S
C1516 C1517 1.394 . S
C1516 C1522 1.465 . S
C1517 C1512 1.399 . S
C1517 C1516 1.394 . S
C1517 C1518 1.516 . S
C1518 C1517 1.516 . S
C1518 C1519 1.502 . S
C1518 C1520 1.561 . S
C1518 C1521 1.526 . S
C1519 H1503 0.959 . S
C1519 H1504 0.959 . S
C1519 H1505 0.961 . S
C1519 C1518 1.502 . S
C1520 H1506 0.960 . S
C1520 H1507 0.961 . S
C1520 H1508 0.959 1_455 S
C1520 C1518 1.561 . S
C1521 C1518 1.526 . S
C1521 C1522 1.396 . S
C1521 C1526 1.390 . S
C1522 C1516 1.465 . S
C1522 C1521 1.396 . S
C1522 C1523 1.399 1_455 S
C1523 H1509 0.929 . S
C1523 C1522 1.399 1_655 S
C1523 C1524 1.385 . S
C1524 H1510 0.931 . S
C1524 C1523 1.385 . S
C1524 C1525 1.389 1_655 S
C1525 C1524 1.389 1_455 S
C1525 C1526 1.387 . S
C1526 H1511 0.930 . S
C1526 C1521 1.390 . S
C1526 C1525 1.387 . S
H1527 C1539 0.930 . S
H1528 C1541 0.930 . S
H1529 C1542 0.930 . S
H1530 C1546 0.959 . S
H1531 C1546 0.959 . S
H1532 C1546 0.961 . S
H1533 C1547 0.960 . S
H1534 C1547 0.961 . S
H1535 C1547 0.959 . S
H1536 C1550 0.929 . S
H1537 C1551 0.931 . S
H1538 C1553 0.930 . S
C1539 H1527 0.930 . S
C1539 C1540 1.399 . S
C1539 C1544 1.399 . S
C1540 C1539 1.399 . S
C1540 C1541 1.376 . S
C1541 H1528 0.930 . S
C1541 C1540 1.376 . S
C1541 C1542 1.388 . S
C1542 H1529 0.930 . S
C1542 C1541 1.388 . S
C1542 C1543 1.390 . S
C1543 C1542 1.390 . S
C1543 C1544 1.394 . S
C1543 C1549 1.465 1_455 S
C1544 C1539 1.399 . S
C1544 C1543 1.394 . S
C1544 C1545 1.516 . S
C1545 C1544 1.516 . S
C1545 C1546 1.502 . S
C1545 C1547 1.561 . S
C1545 C1548 1.526 1_455 S
C1546 H1530 0.959 . S
C1546 H1531 0.959 . S
C1546 H1532 0.961 . S
C1546 C1545 1.502 . S
C1547 H1533 0.960 . S
C1547 H1534 0.961 . S
C1547 H1535 0.959 . S
C1547 C1545 1.561 . S
C1548 C1545 1.526 1_655 S
C1548 C1549 1.396 . S
C1548 C1553 1.390 . S
C1549 C1543 1.465 1_655 S
C1549 C1548 1.396 . S
C1549 C1550 1.399 . S
C1550 H1536 0.929 . S
C1550 C1549 1.399 . S
C1550 C1551 1.385 . S
C1551 H1537 0.931 . S
C1551 C1550 1.385 . S
C1551 C1552 1.389 . S
C1552 C1551 1.389 . S
C1552 C1553 1.387 . S
C1553 H1538 0.930 . S
C1553 C1548 1.390 . S
C1553 C1552 1.387 . S
H1554 C1566 0.930 . S
H1555 C1568 0.930 . S
H1556 C1569 0.930 . S
H1557 C1573 0.959 . S
H1558 C1573 0.959 . S
H1559 C1573 0.961 . S
H1560 C1574 0.960 . S
H1561 C1574 0.961 . S
H1562 C1574 0.959 . S
H1563 C1577 0.929 . S
H1564 C1578 0.931 . S
H1565 C1580 0.930 . S
C1566 H1554 0.930 . S
C1566 C1567 1.399 . S
C1566 C1571 1.399 . S
C1567 C1566 1.399 . S
C1567 C1568 1.376 . S
C1568 H1555 0.930 . S
C1568 C1567 1.376 . S
C1568 C1569 1.388 . S
C1569 H1556 0.930 . S
C1569 C1568 1.388 . S
C1569 C1570 1.390 . S
C1570 C1569 1.390 . S
C1570 C1571 1.394 . S
C1570 C1576 1.465 . S
C1571 C1566 1.399 . S
C1571 C1570 1.394 . S
C1571 C1572 1.516 . S
C1572 C1571 1.516 . S
C1572 C1573 1.502 . S
C1572 C1574 1.561 . S
C1572 C1575 1.526 . S
C1573 H1557 0.959 . S
C1573 H1558 0.959 . S
C1573 H1559 0.961 . S
C1573 C1572 1.502 . S
C1574 H1560 0.960 . S
C1574 H1561 0.961 . S
C1574 H1562 0.959 . S
C1574 C1572 1.561 . S
C1575 C1572 1.526 . S
C1575 C1576 1.396 . S
C1575 C1580 1.390 . S
C1576 C1570 1.465 . S
C1576 C1575 1.396 . S
C1576 C1577 1.399 . S
C1577 H1563 0.929 . S
C1577 C1576 1.399 . S
C1577 C1578 1.385 . S
C1578 H1564 0.931 . S
C1578 C1577 1.385 . S
C1578 C1579 1.389 . S
C1579 C1578 1.389 . S
C1579 C1580 1.387 . S
C1580 H1565 0.930 . S
C1580 C1575 1.390 . S
C1580 C1579 1.387 . S
H1581 C1593 0.930 . S
H1582 C1595 0.930 . S
H1583 C1596 0.930 . S
H1584 C1600 0.959 . S
H1585 C1600 0.959 . S
H1586 C1600 0.961 . S
H1587 C1601 0.960 . S
H1588 C1601 0.961 . S
H1589 C1601 0.959 . S
H1590 C1604 0.929 . S
H1591 C1605 0.931 . S
H1592 C1607 0.930 . S
C1593 H1581 0.930 . S
C1593 C1594 1.399 . S
C1593 C1598 1.399 . S
C1594 C1593 1.399 . S
C1594 C1595 1.376 . S
C1595 H1582 0.930 . S
C1595 C1594 1.376 . S
C1595 C1596 1.388 . S
C1596 H1583 0.930 . S
C1596 C1595 1.388 . S
C1596 C1597 1.390 . S
C1597 C1596 1.390 . S
C1597 C1598 1.394 . S
C1597 C1603 1.465 . S
C1598 C1593 1.399 . S
C1598 C1597 1.394 . S
C1598 C1599 1.516 . S
C1599 C1598 1.516 . S
C1599 C1600 1.502 . S
C1599 C1601 1.561 . S
C1599 C1602 1.526 . S
C1600 H1584 0.959 . S
C1600 H1585 0.959 . S
C1600 H1586 0.961 . S
C1600 C1599 1.502 . S
C1601 H1587 0.960 . S
C1601 H1588 0.961 . S
C1601 H1589 0.959 . S
C1601 C1599 1.561 . S
C1602 C1599 1.526 . S
C1602 C1603 1.396 . S
C1602 C1607 1.390 . S
C1603 C1597 1.465 . S
C1603 C1602 1.396 . S
C1603 C1604 1.399 . S
C1604 H1590 0.929 . S
C1604 C1603 1.399 . S
C1604 C1605 1.385 . S
C1605 H1591 0.931 . S
C1605 C1604 1.385 . S
C1605 C1606 1.389 . S
C1606 C1605 1.389 . S
C1606 C1607 1.387 . S
C1607 H1592 0.930 . S
C1607 C1602 1.390 . S
C1607 C1606 1.387 . S
C541 N434 1.254 . S
C553 N5 1.311 . S
C568 N38 1.248 . S
C580 N368 1.313 . S
C595 N71 1.280 . S
C607 N401 1.292 . S
C622 N104 1.297 . S
C634 N335 1.257 . S
C649 N500 1.288 . S
C661 N137 1.263 . S
C676 N170 1.308 . S
C688 N302 1.261 . S
C703 N203 1.261 . S
C715 N467 1.308 . S
C730 N269 1.263 . S
C742 N236 1.306 . S
C757 C28 1.605 . S
C769 C160 1.654 . S
C784 C61 1.617 . S
C796 C193 1.641 . S
C811 C94 1.619 . S
C823 C226 1.641 . S
C838 C259 1.630 . S
C850 C127 1.631 . S
C865 C358 1.650 . S
C877 C292 1.611 . S
C892 C325 1.611 . S
C904 C391 1.649 . S
C919 C490 1.605 . S
C931 C424 1.655 . S
C946 C523 1.653 . S
C958 C457 1.606 . S
C973 C173 1.190 . S
C985 C8 1.188 . S
C1000 C41 1.192 . S
C1012 C206 1.193 . S
C1027 C74 1.190 . S
C1039 C239 1.191 . S
C1054 C140 1.184 . S
C1066 C107 1.186 . S
C1081 C149 0.330 . S
C1093 C347 0.336 . S
C1108 C83 0.468 . S
C1120 C281 0.472 . S
C1135 C380 0.547 . S
C1147 C215 0.543 . S
C1162 C314 0.340 . S
C1174 C17 0.346 . S
C1189 C272 1.190 . S
C1201 C404 1.188 . S
C1216 C503 1.118 . S
C1228 C338 1.115 . S
C1243 C437 1.104 . S
C1255 C305 1.103 . S
C1270 C371 1.159 . S
C1282 C470 1.163 . S
C1297 C479 0.480 . S
C1309 C50 0.483 . S
C1324 C182 0.403 . S
C1336 C446 0.397 . S
C1351 C512 0.440 . S
C1363 C116 0.433 . S
C1378 C248 0.357 . S
C1390 C413 0.363 . S
C1405 N14 0.692 . S
C1417 N443 0.566 . S
C1432 N47 0.526 . S
C1444 N377 0.641 . S
C1459 N80 0.534 . S
C1471 N410 0.630 . S
C1486 N113 0.524 . S
C1498 N344 0.643 . S
C1513 N146 0.525 . S
C1525 N509 0.643 . S
C1540 N179 0.690 . S
C1552 N311 0.522 . S
C1567 N476 0.529 . S
C1579 N212 0.635 . S
C1594 N278 0.631 . S
C1606 N245 0.535 . S
