# Generated by pormake.
# Topology uml, (4)-cn, num edge types: 1
# Building blocks:
#     Node 0, Type 0, BuildingBlock: CEKHIL_clean_sbu_0, # of connection points: 4
#     Node 1, Type 0, BuildingBlock: CEKHIL_clean_sbu_0, # of connection points: 4
#     Node 2, Type 0, BuildingBlock: CEKHIL_clean_sbu_0, # of connection points: 4
#     Node 3, Type 0, BuildingBlock: CEKHIL_clean_sbu_0, # of connection points: 4
#     Node 4, Type 0, BuildingBlock: CEKHIL_clean_sbu_0, # of connection points: 4
#     Node 5, Type 0, BuildingBlock: CEKHIL_clean_sbu_0, # of connection points: 4
#     Node 6, Type 0, BuildingBlock: CEKHIL_clean_sbu_0, # of connection points: 4
#     Node 7, Type 0, BuildingBlock: CEKHIL_clean_sbu_0, # of connection points: 4
#     Node 8, Type 0, BuildingBlock: CEKHIL_clean_sbu_0, # of connection points: 4
#     Node 9, Type 0, BuildingBlock: CEKHIL_clean_sbu_0, # of connection points: 4
#     Node 10, Type 0, BuildingBlock: CEKHIL_clean_sbu_0, # of connection points: 4
#     Node 11, Type 0, BuildingBlock: CEKHIL_clean_sbu_0, # of connection points: 4
#     Node 12, Type 0, BuildingBlock: CEKHIL_clean_sbu_0, # of connection points: 4
#     Node 13, Type 0, BuildingBlock: CEKHIL_clean_sbu_0, # of connection points: 4
#     Node 14, Type 0, BuildingBlock: CEKHIL_clean_sbu_0, # of connection points: 4
#     Node 15, Type 0, BuildingBlock: CEKHIL_clean_sbu_0, # of connection points: 4
#     Node 16, Type 0, BuildingBlock: CEKHIL_clean_sbu_0, # of connection points: 4
#     Node 17, Type 0, BuildingBlock: CEKHIL_clean_sbu_0, # of connection points: 4
#     Node 18, Type 0, BuildingBlock: CEKHIL_clean_sbu_0, # of connection points: 4
#     Node 19, Type 0, BuildingBlock: CEKHIL_clean_sbu_0, # of connection points: 4
#     Node 20, Type 0, BuildingBlock: CEKHIL_clean_sbu_0, # of connection points: 4
#     Node 21, Type 0, BuildingBlock: CEKHIL_clean_sbu_0, # of connection points: 4
#     Node 22, Type 0, BuildingBlock: CEKHIL_clean_sbu_0, # of connection points: 4
#     Node 23, Type 0, BuildingBlock: CEKHIL_clean_sbu_0, # of connection points: 4
#     Node 24, Type 0, BuildingBlock: CEKHIL_clean_sbu_0, # of connection points: 4
#     Node 25, Type 0, BuildingBlock: CEKHIL_clean_sbu_0, # of connection points: 4
#     Node 26, Type 0, BuildingBlock: CEKHIL_clean_sbu_0, # of connection points: 4
#     Node 27, Type 0, BuildingBlock: CEKHIL_clean_sbu_0, # of connection points: 4
#     Node 28, Type 0, BuildingBlock: CEKHIL_clean_sbu_0, # of connection points: 4
#     Node 29, Type 0, BuildingBlock: CEKHIL_clean_sbu_0, # of connection points: 4
#     Node 30, Type 0, BuildingBlock: CEKHIL_clean_sbu_0, # of connection points: 4
#     Node 31, Type 0, BuildingBlock: CEKHIL_clean_sbu_0, # of connection points: 4
#     Node 32, Type 0, BuildingBlock: CEKHIL_clean_sbu_0, # of connection points: 4
#     Node 33, Type 0, BuildingBlock: CEKHIL_clean_sbu_0, # of connection points: 4
#     Node 34, Type 0, BuildingBlock: CEKHIL_clean_sbu_0, # of connection points: 4
#     Node 35, Type 0, BuildingBlock: CEKHIL_clean_sbu_0, # of connection points: 4
#     Edge 36, Type (0, 0), BuildingBlock: KIFKEQ_clean_linker_1, # of connection points: 2
#     Edge 37, Type (0, 0), BuildingBlock: KIFKEQ_clean_linker_1, # of connection points: 2
#     Edge 38, Type (0, 0), BuildingBlock: KIFKEQ_clean_linker_1, # of connection points: 2
#     Edge 39, Type (0, 0), BuildingBlock: KIFKEQ_clean_linker_1, # of connection points: 2
#     Edge 40, Type (0, 0), BuildingBlock: KIFKEQ_clean_linker_1, # of connection points: 2
#     Edge 41, Type (0, 0), BuildingBlock: KIFKEQ_clean_linker_1, # of connection points: 2
#     Edge 42, Type (0, 0), BuildingBlock: KIFKEQ_clean_linker_1, # of connection points: 2
#     Edge 43, Type (0, 0), BuildingBlock: KIFKEQ_clean_linker_1, # of connection points: 2
#     Edge 44, Type (0, 0), BuildingBlock: KIFKEQ_clean_linker_1, # of connection points: 2
#     Edge 45, Type (0, 0), BuildingBlock: KIFKEQ_clean_linker_1, # of connection points: 2
#     Edge 46, Type (0, 0), BuildingBlock: KIFKEQ_clean_linker_1, # of connection points: 2
#     Edge 47, Type (0, 0), BuildingBlock: KIFKEQ_clean_linker_1, # of connection points: 2
#     Edge 48, Type (0, 0), BuildingBlock: KIFKEQ_clean_linker_1, # of connection points: 2
#     Edge 49, Type (0, 0), BuildingBlock: KIFKEQ_clean_linker_1, # of connection points: 2
#     Edge 50, Type (0, 0), BuildingBlock: KIFKEQ_clean_linker_1, # of connection points: 2
#     Edge 51, Type (0, 0), BuildingBlock: KIFKEQ_clean_linker_1, # of connection points: 2
#     Edge 52, Type (0, 0), BuildingBlock: KIFKEQ_clean_linker_1, # of connection points: 2
#     Edge 53, Type (0, 0), BuildingBlock: KIFKEQ_clean_linker_1, # of connection points: 2
#     Edge 54, Type (0, 0), BuildingBlock: KIFKEQ_clean_linker_1, # of connection points: 2
#     Edge 55, Type (0, 0), BuildingBlock: KIFKEQ_clean_linker_1, # of connection points: 2
#     Edge 56, Type (0, 0), BuildingBlock: KIFKEQ_clean_linker_1, # of connection points: 2
#     Edge 57, Type (0, 0), BuildingBlock: KIFKEQ_clean_linker_1, # of connection points: 2
#     Edge 58, Type (0, 0), BuildingBlock: KIFKEQ_clean_linker_1, # of connection points: 2
#     Edge 59, Type (0, 0), BuildingBlock: KIFKEQ_clean_linker_1, # of connection points: 2
#     Edge 60, Type (0, 0), BuildingBlock: KIFKEQ_clean_linker_1, # of connection points: 2
#     Edge 61, Type (0, 0), BuildingBlock: KIFKEQ_clean_linker_1, # of connection points: 2
#     Edge 62, Type (0, 0), BuildingBlock: KIFKEQ_clean_linker_1, # of connection points: 2
#     Edge 63, Type (0, 0), BuildingBlock: KIFKEQ_clean_linker_1, # of connection points: 2
#     Edge 64, Type (0, 0), BuildingBlock: KIFKEQ_clean_linker_1, # of connection points: 2
#     Edge 65, Type (0, 0), BuildingBlock: KIFKEQ_clean_linker_1, # of connection points: 2
#     Edge 66, Type (0, 0), BuildingBlock: KIFKEQ_clean_linker_1, # of connection points: 2
#     Edge 67, Type (0, 0), BuildingBlock: KIFKEQ_clean_linker_1, # of connection points: 2
#     Edge 68, Type (0, 0), BuildingBlock: KIFKEQ_clean_linker_1, # of connection points: 2
#     Edge 69, Type (0, 0), BuildingBlock: KIFKEQ_clean_linker_1, # of connection points: 2
#     Edge 70, Type (0, 0), BuildingBlock: KIFKEQ_clean_linker_1, # of connection points: 2
#     Edge 71, Type (0, 0), BuildingBlock: KIFKEQ_clean_linker_1, # of connection points: 2
#     Edge 72, Type (0, 0), BuildingBlock: KIFKEQ_clean_linker_1, # of connection points: 2
#     Edge 73, Type (0, 0), BuildingBlock: KIFKEQ_clean_linker_1, # of connection points: 2
#     Edge 74, Type (0, 0), BuildingBlock: KIFKEQ_clean_linker_1, # of connection points: 2
#     Edge 75, Type (0, 0), BuildingBlock: KIFKEQ_clean_linker_1, # of connection points: 2
#     Edge 76, Type (0, 0), BuildingBlock: KIFKEQ_clean_linker_1, # of connection points: 2
#     Edge 77, Type (0, 0), BuildingBlock: KIFKEQ_clean_linker_1, # of connection points: 2
#     Edge 78, Type (0, 0), BuildingBlock: KIFKEQ_clean_linker_1, # of connection points: 2
#     Edge 79, Type (0, 0), BuildingBlock: KIFKEQ_clean_linker_1, # of connection points: 2
#     Edge 80, Type (0, 0), BuildingBlock: KIFKEQ_clean_linker_1, # of connection points: 2
#     Edge 81, Type (0, 0), BuildingBlock: KIFKEQ_clean_linker_1, # of connection points: 2
#     Edge 82, Type (0, 0), BuildingBlock: KIFKEQ_clean_linker_1, # of connection points: 2
#     Edge 83, Type (0, 0), BuildingBlock: KIFKEQ_clean_linker_1, # of connection points: 2
#     Edge 84, Type (0, 0), BuildingBlock: KIFKEQ_clean_linker_1, # of connection points: 2
#     Edge 85, Type (0, 0), BuildingBlock: KIFKEQ_clean_linker_1, # of connection points: 2
#     Edge 86, Type (0, 0), BuildingBlock: KIFKEQ_clean_linker_1, # of connection points: 2
#     Edge 87, Type (0, 0), BuildingBlock: KIFKEQ_clean_linker_1, # of connection points: 2
#     Edge 88, Type (0, 0), BuildingBlock: KIFKEQ_clean_linker_1, # of connection points: 2
#     Edge 89, Type (0, 0), BuildingBlock: KIFKEQ_clean_linker_1, # of connection points: 2
#     Edge 90, Type (0, 0), BuildingBlock: KIFKEQ_clean_linker_1, # of connection points: 2
#     Edge 91, Type (0, 0), BuildingBlock: KIFKEQ_clean_linker_1, # of connection points: 2
#     Edge 92, Type (0, 0), BuildingBlock: KIFKEQ_clean_linker_1, # of connection points: 2
#     Edge 93, Type (0, 0), BuildingBlock: KIFKEQ_clean_linker_1, # of connection points: 2
#     Edge 94, Type (0, 0), BuildingBlock: KIFKEQ_clean_linker_1, # of connection points: 2
#     Edge 95, Type (0, 0), BuildingBlock: KIFKEQ_clean_linker_1, # of connection points: 2
#     Edge 96, Type (0, 0), BuildingBlock: KIFKEQ_clean_linker_1, # of connection points: 2
#     Edge 97, Type (0, 0), BuildingBlock: KIFKEQ_clean_linker_1, # of connection points: 2
#     Edge 98, Type (0, 0), BuildingBlock: KIFKEQ_clean_linker_1, # of connection points: 2
#     Edge 99, Type (0, 0), BuildingBlock: KIFKEQ_clean_linker_1, # of connection points: 2
#     Edge 100, Type (0, 0), BuildingBlock: KIFKEQ_clean_linker_1, # of connection points: 2
#     Edge 101, Type (0, 0), BuildingBlock: KIFKEQ_clean_linker_1, # of connection points: 2
#     Edge 102, Type (0, 0), BuildingBlock: KIFKEQ_clean_linker_1, # of connection points: 2
#     Edge 103, Type (0, 0), BuildingBlock: KIFKEQ_clean_linker_1, # of connection points: 2
#     Edge 104, Type (0, 0), BuildingBlock: KIFKEQ_clean_linker_1, # of connection points: 2
#     Edge 105, Type (0, 0), BuildingBlock: KIFKEQ_clean_linker_1, # of connection points: 2
#     Edge 106, Type (0, 0), BuildingBlock: KIFKEQ_clean_linker_1, # of connection points: 2
#     Edge 107, Type (0, 0), BuildingBlock: KIFKEQ_clean_linker_1, # of connection points: 2
# Relax obj value: 0.147
# Max RMSD: 0.486
# Mean RMSD: 0.264
data_MOF--net-uml--node1-CEKHIL_clean_sbu_0--edge1-KIFKEQ_clean_linker_1
_symmetry_space_group_name_H-M    P1
_symmetry_Int_Tables_number       1
_symmetry_cell_setting            triclinic
loop_
_symmetry_equiv_pos_as_xyz
'x, y, z'
_cell_length_a     93.98091
_cell_length_b     91.63454
_cell_length_c     28.157799
_cell_angle_alpha  90.08194
_cell_angle_beta   90.038241
_cell_angle_gamma 116.07401
loop_
_atom_site_label
_atom_site_type_symbol
_atom_site_fract_x
_atom_site_fract_y
_atom_site_fract_z
_atom_type_partial_charge
Co0 Co 0.35004 0.09424 0.16457 0.0
O1 O 0.36293 0.08291 0.16333 0.0
O2 O 0.36946 0.10705 0.13065 0.0
C3 C 0.34395 0.09031 0.24229 0.0
O4 O 0.34003 0.10987 0.1611 0.0
Co5 Co 0.31425 0.07577 0.18801 0.0
O6 O 0.3161 0.09804 0.19588 0.0
C7 C 0.32517 0.07375 0.09101 0.0
C8 C 0.37322 0.0953 0.14029 0.0
C9 C 0.32751 0.11038 0.17779 0.0
O10 O 0.33939 0.08362 0.10308 0.0
O11 O 0.3136 0.06841 0.1204 0.0
O12 O 0.35735 0.10187 0.22859 0.0
O13 O 0.33545 0.08053 0.20922 0.0
Co14 Co 0.88247 0.27629 0.17649 0.0
O15 O 0.87937 0.27576 0.24392 0.0
O16 O 0.89617 0.2684 0.20782 0.0
C17 C 0.88389 0.30122 0.16546 0.0
O18 O 0.88919 0.27613 0.1071 0.0
Co19 Co 0.85657 0.27751 0.11054 0.0
O20 O 0.87354 0.28348 0.06246 0.0
C21 C 0.85184 0.24619 0.15123 0.0
C22 C 0.89004 0.27047 0.24725 0.0
C23 C 0.88549 0.28048 0.06712 0.0
O24 O 0.86561 0.25329 0.17045 0.0
O25 O 0.84558 0.25378 0.12746 0.0
O26 O 0.89616 0.29946 0.17996 0.0
O27 O 0.87079 0.288 0.163 0.0
Co28 Co 0.72253 0.63181 0.15986 0.0
O29 O 0.70096 0.6161 0.16375 0.0
O30 O 0.71941 0.61227 0.1243 0.0
C31 C 0.72504 0.63829 0.23726 0.0
O32 O 0.7465 0.64609 0.15179 0.0
Co33 Co 0.72871 0.6673 0.18026 0.0
O34 O 0.75102 0.6709 0.17947 0.0
C35 C 0.71667 0.65361 0.08684 0.0
C36 C 0.70461 0.60676 0.13718 0.0
C37 C 0.75593 0.66091 0.16341 0.0
O38 O 0.7177 0.6407 0.09992 0.0
O39 O 0.71991 0.6658 0.11431 0.0
O40 O 0.72664 0.62566 0.22242 0.0
O41 O 0.72023 0.64541 0.20576 0.0
Co42 Co 0.09022 0.35559 0.31545 0.0
O43 O 0.08004 0.36964 0.31379 0.0
O44 O 0.10354 0.37595 0.3463 0.0
C45 C 0.08542 0.34777 0.23947 0.0
O46 O 0.10465 0.34439 0.32186 0.0
Co47 Co 0.07083 0.31854 0.29902 0.0
O48 O 0.09202 0.31906 0.2923 0.0
C49 C 0.0696 0.33243 0.39242 0.0
C50 C 0.09238 0.38019 0.33597 0.0
C51 C 0.10442 0.33085 0.30845 0.0
O52 O 0.07986 0.3464 0.37798 0.0
O53 O 0.06386 0.3198 0.36582 0.0
O54 O 0.09729 0.36149 0.25045 0.0
O55 O 0.07605 0.33998 0.27383 0.0
Co56 Co 0.61881 0.74883 0.33382 0.0
O57 O 0.61593 0.75223 0.26792 0.0
O58 O 0.63604 0.74856 0.29693 0.0
C59 C 0.59386 0.73005 0.34675 0.0
O60 O 0.62519 0.7441 0.39965 0.0
Co61 Co 0.60084 0.75809 0.4111 0.0
O62 O 0.60687 0.74399 0.4513 0.0
C63 C 0.62911 0.78386 0.36735 0.0
C64 C 0.62884 0.75075 0.26008 0.0
C65 C 0.61842 0.74089 0.44068 0.0
O66 O 0.63111 0.77292 0.34366 0.0
O67 O 0.61735 0.78065 0.39525 0.0
O68 O 0.60421 0.72614 0.32721 0.0
O69 O 0.5984 0.74547 0.35351 0.0
Co70 Co 0.24365 0.90853 0.32268 0.0
O71 O 0.26627 0.91771 0.32342 0.0
O72 O 0.25065 0.89358 0.35294 0.0
C73 C 0.24174 0.91464 0.24587 0.0
O74 O 0.21945 0.89534 0.32493 0.0
Co75 Co 0.22866 0.93229 0.3059 0.0
O76 O 0.20966 0.91159 0.2928 0.0
C77 C 0.24153 0.93104 0.40024 0.0
C78 C 0.26498 0.90456 0.34388 0.0
C79 C 0.20791 0.89775 0.30766 0.0
O80 O 0.24362 0.91871 0.38658 0.0
O81 O 0.23695 0.93913 0.37218 0.0
O82 O 0.24338 0.90171 0.25675 0.0
O83 O 0.24299 0.92419 0.28113 0.0
Co84 Co 0.65387 0.91013 0.80924 0.0
O85 O 0.64994 0.90655 0.74255 0.0
O86 O 0.67354 0.91496 0.77649 0.0
C87 C 0.63957 0.92397 0.82066 0.0
O88 O 0.66226 0.91545 0.87691 0.0
Co89 Co 0.62579 0.89537 0.88049 0.0
O90 O 0.64164 0.91086 0.92526 0.0
C91 C 0.63854 0.8744 0.83636 0.0
C92 C 0.66499 0.91093 0.73796 0.0
C93 C 0.65648 0.91655 0.91748 0.0
O94 O 0.64988 0.88691 0.81783 0.0
O95 O 0.62706 0.87502 0.85935 0.0
O96 O 0.654 0.93143 0.8049 0.0
O97 O 0.63387 0.90839 0.82412 0.0
Co98 Co 0.09975 0.75749 0.81535 0.0
O99 O 0.10451 0.75844 0.74867 0.0
O100 O 0.08496 0.76267 0.77907 0.0
C101 C 0.10145 0.73413 0.83003 0.0
O102 O 0.09124 0.75709 0.88273 0.0
Co103 Co 0.12536 0.75983 0.88881 0.0
O104 O 0.10736 0.75268 0.93398 0.0
C105 C 0.12802 0.78952 0.84106 0.0
C106 C 0.09269 0.76186 0.74154 0.0
C107 C 0.09471 0.75405 0.92485 0.0
O108 O 0.11435 0.78129 0.82209 0.0
O109 O 0.13511 0.78303 0.86602 0.0
O110 O 0.08858 0.73388 0.81229 0.0
O111 O 0.11329 0.74834 0.83374 0.0
Co112 Co 0.24559 0.38457 0.85655 0.0
O113 O 0.24511 0.3884 0.78985 0.0
O114 O 0.24292 0.36535 0.82099 0.0
C115 C 0.26707 0.40781 0.87368 0.0
O116 O 0.24623 0.37703 0.92485 0.0
Co117 Co 0.23864 0.40731 0.92368 0.0
O118 O 0.24496 0.39605 0.97316 0.0
C119 C 0.21191 0.38083 0.87656 0.0
C120 C 0.24341 0.37375 0.78318 0.0
C121 C 0.24667 0.38315 0.96655 0.0
O122 O 0.22181 0.37605 0.85951 0.0
O123 O 0.21626 0.39385 0.90119 0.0
O124 O 0.2685 0.39542 0.85633 0.0
O125 O 0.25278 0.40659 0.87439 0.0
Co126 Co 0.88933 0.65052 0.6967 0.0
O127 O 0.88723 0.64664 0.76373 0.0
O128 O 0.8932 0.67047 0.73014 0.0
C129 C 0.90438 0.63779 0.68177 0.0
O130 O 0.89292 0.6587 0.62797 0.0
Co131 Co 0.87482 0.62089 0.62834 0.0
O132 O 0.88835 0.63711 0.58122 0.0
C133 C 0.85394 0.63305 0.67374 0.0
C134 C 0.8906 0.66186 0.76878 0.0
C135 C 0.89347 0.65238 0.58735 0.0
O136 O 0.86615 0.64479 0.69201 0.0
O137 O 0.85471 0.62163 0.64929 0.0
O138 O 0.91078 0.65259 0.69779 0.0
O139 O 0.88908 0.63057 0.68117 0.0
Co140 Co 0.38835 0.27201 0.67206 0.0
O141 O 0.3928 0.27198 0.73863 0.0
O142 O 0.36975 0.26866 0.70867 0.0
C143 C 0.41047 0.29417 0.65298 0.0
O144 O 0.37988 0.27201 0.60499 0.0
Co145 Co 0.40966 0.2652 0.60079 0.0
O146 O 0.39825 0.27211 0.55347 0.0
C147 C 0.38489 0.23771 0.65006 0.0
C148 C 0.37833 0.26962 0.74596 0.0
C149 C 0.38545 0.27315 0.56255 0.0
O150 O 0.38063 0.2479 0.66897 0.0
O151 O 0.3971 0.2421 0.62335 0.0
O152 O 0.39847 0.29545 0.67181 0.0
O153 O 0.40954 0.27961 0.6516 0.0
Co154 Co 0.72947 0.12724 0.68 0.0
O155 O 0.72882 0.13052 0.74727 0.0
O156 O 0.73768 0.11415 0.71448 0.0
C157 C 0.70464 0.12405 0.66453 0.0
O158 O 0.73118 0.12054 0.61133 0.0
Co159 Co 0.7274 0.1528 0.61192 0.0
O160 O 0.7246 0.13619 0.56304 0.0
C161 C 0.75793 0.15982 0.65786 0.0
C162 C 0.73466 0.12021 0.75294 0.0
C163 C 0.72812 0.1244 0.56968 0.0
O164 O 0.75163 0.1455 0.67609 0.0
O165 O 0.74996 0.16555 0.63379 0.0
O166 O 0.70706 0.11205 0.68055 0.0
O167 O 0.71703 0.13795 0.66336 0.0
Co168 Co 0.01874 0.43331 0.51087 0.0
O169 O 0.03276 0.42327 0.51068 0.0
O170 O 0.03798 0.44702 0.47731 0.0
C171 C 0.01233 0.42906 0.58839 0.0
O172 O 0.00728 0.44759 0.50605 0.0
Co173 Co 0.98314 0.4125 0.53146 0.0
O174 O 0.98284 0.43397 0.53662 0.0
C175 C 0.99535 0.41134 0.43598 0.0
C176 C 0.04252 0.43582 0.48707 0.0
C177 C 0.99393 0.44687 0.51986 0.0
O178 O 0.00895 0.42237 0.44898 0.0
O179 O 0.98365 0.40482 0.46463 0.0
O180 O 0.02537 0.44123 0.57509 0.0
O181 O 0.00446 0.41896 0.55509 0.0
Co182 Co 0.54399 0.60477 0.51158 0.0
O183 O 0.53879 0.60297 0.57792 0.0
O184 O 0.55786 0.59806 0.54657 0.0
C185 C 0.54376 0.62896 0.50065 0.0
O186 O 0.553 0.60589 0.44465 0.0
Co187 Co 0.5199 0.60516 0.43691 0.0
O188 O 0.53873 0.61349 0.3949 0.0
C189 C 0.51541 0.57399 0.47887 0.0
C190 C 0.5502 0.59883 0.58426 0.0
C191 C 0.55069 0.61086 0.40385 0.0
O192 O 0.52853 0.58146 0.50146 0.0
O193 O 0.50939 0.58129 0.45275 0.0
O194 O 0.55613 0.6281 0.51834 0.0
O195 O 0.53144 0.61522 0.49439 0.0
Co196 Co 0.39073 0.96667 0.49085 0.0
O197 O 0.36819 0.95475 0.49151 0.0
O198 O 0.38417 0.9461 0.45667 0.0
C199 C 0.39316 0.97327 0.56812 0.0
O200 O 0.4151 0.97643 0.48686 0.0
Co201 Co 0.4044 0.00361 0.5107 0.0
O202 O 0.4236 0.00062 0.52427 0.0
C203 C 0.39236 0.99166 0.4155 0.0
C204 C 0.36976 0.94356 0.46736 0.0
C205 C 0.4261 0.98913 0.50677 0.0
O206 O 0.3896 0.97734 0.42952 0.0
O207 O 0.39786 0.0041 0.44283 0.0
O208 O 0.39184 0.95919 0.5545 0.0
O209 O 0.39112 0.98207 0.53528 0.0
Co210 Co 0.74423 0.67759 0.6585 0.0
O211 O 0.73581 0.69307 0.65304 0.0
O212 O 0.75813 0.69748 0.69053 0.0
C213 C 0.74064 0.66991 0.58208 0.0
O214 O 0.75699 0.66479 0.66894 0.0
Co215 Co 0.72286 0.6412 0.64267 0.0
O216 O 0.74298 0.63919 0.64303 0.0
C217 C 0.72111 0.65584 0.73386 0.0
C218 C 0.74804 0.70286 0.67727 0.0
C219 C 0.75574 0.65056 0.65887 0.0
O220 O 0.73231 0.66928 0.71961 0.0
O221 O 0.71504 0.64308 0.70787 0.0
O222 O 0.75296 0.68293 0.59528 0.0
O223 O 0.73012 0.66271 0.61463 0.0
Co224 Co 0.29541 0.08494 0.65149 0.0
O225 O 0.29264 0.08814 0.5854 0.0
O226 O 0.3128 0.08474 0.61523 0.0
C227 C 0.27042 0.06611 0.66444 0.0
O228 O 0.30175 0.08061 0.71777 0.0
Co229 Co 0.27697 0.09408 0.72778 0.0
O230 O 0.28316 0.08026 0.76875 0.0
C231 C 0.30536 0.11995 0.68419 0.0
C232 C 0.30568 0.08687 0.57808 0.0
C233 C 0.29496 0.0775 0.75876 0.0
O234 O 0.30762 0.10908 0.66093 0.0
O235 O 0.29339 0.11661 0.71131 0.0
O236 O 0.28081 0.06213 0.64547 0.0
O237 O 0.27497 0.08154 0.6705 0.0
Co238 Co 0.91175 0.23951 0.65985 0.0
O239 O 0.93436 0.24834 0.66051 0.0
O240 O 0.91842 0.22451 0.69124 0.0
C241 C 0.90997 0.24534 0.58277 0.0
O242 O 0.8875 0.2267 0.66263 0.0
Co243 Co 0.89731 0.26373 0.64153 0.0
O244 O 0.87792 0.24318 0.63078 0.0
C245 C 0.9103 0.26278 0.73593 0.0
C246 C 0.93283 0.23526 0.68189 0.0
C247 C 0.876 0.22935 0.64613 0.0
O248 O 0.91198 0.25015 0.72308 0.0
O249 O 0.90594 0.27091 0.70732 0.0
O250 O 0.91143 0.23235 0.59417 0.0
O251 O 0.91128 0.25504 0.61761 0.0
Co252 Co 0.32272 0.24758 0.15098 0.0
O253 O 0.31927 0.246 0.08375 0.0
O254 O 0.34289 0.25566 0.11811 0.0
C255 C 0.30594 0.25826 0.16762 0.0
O256 O 0.33045 0.25168 0.21992 0.0
Co257 Co 0.29453 0.22761 0.21844 0.0
O258 O 0.30884 0.24277 0.26679 0.0
C259 C 0.3107 0.21125 0.16673 0.0
C260 C 0.33453 0.25238 0.0792 0.0
C261 C 0.32376 0.2506 0.26069 0.0
O262 O 0.32143 0.22507 0.15272 0.0
O263 O 0.29832 0.20961 0.18961 0.0
O264 O 0.32015 0.26758 0.15265 0.0
O265 O 0.30195 0.24289 0.16669 0.0
Co266 Co 0.76698 0.09303 0.15973 0.0
O267 O 0.76897 0.09113 0.09233 0.0
O268 O 0.75294 0.09998 0.12595 0.0
C269 C 0.76542 0.06867 0.17977 0.0
O270 O 0.76153 0.09576 0.22879 0.0
Co271 Co 0.79411 0.09409 0.22448 0.0
O272 O 0.77856 0.09112 0.27558 0.0
C273 C 0.7983 0.12365 0.1739 0.0
C274 C 0.75848 0.09658 0.08721 0.0
C275 C 0.76634 0.09363 0.27009 0.0
O276 O 0.784 0.11605 0.15871 0.0
O277 O 0.80516 0.11676 0.19817 0.0
O278 O 0.75302 0.07 0.16432 0.0
O279 O 0.77869 0.08165 0.17658 0.0
Co280 Co 0.90702 0.71732 0.1761 0.0
O281 O 0.90637 0.72142 0.10952 0.0
O282 O 0.9024 0.69769 0.14011 0.0
C283 C 0.92979 0.73943 0.19232 0.0
O284 O 0.90731 0.70915 0.24367 0.0
Co285 Co 0.90316 0.74115 0.24648 0.0
O286 O 0.90991 0.72941 0.29355 0.0
C287 C 0.87483 0.71691 0.1987 0.0
C288 C 0.90326 0.70634 0.10257 0.0
C289 C 0.90963 0.7156 0.2855 0.0
O290 O 0.88361 0.71083 0.18088 0.0
O291 O 0.88048 0.72992 0.22376 0.0
O292 O 0.92991 0.72647 0.17426 0.0
O293 O 0.91599 0.73943 0.19466 0.0
Co294 Co 0.56678 0.98666 0.02583 0.0
O295 O 0.56464 0.98262 0.0927 0.0
O296 O 0.57121 0.00667 0.05978 0.0
C297 C 0.58117 0.97332 0.00945 0.0
O298 O 0.57037 0.99486 0.95727 0.0
Co299 Co 0.55087 0.95696 0.95832 0.0
O300 O 0.56435 0.97295 0.91045 0.0
C301 C 0.53119 0.97038 0.00414 0.0
C302 C 0.56828 0.99789 0.09818 0.0
C303 C 0.57017 0.98829 0.9165 0.0
O304 O 0.54382 0.98185 0.02134 0.0
O305 O 0.5312 0.9584 0.9807 0.0
O306 O 0.58798 0.98801 0.02626 0.0
O307 O 0.56585 0.96649 0.00965 0.0
Co308 Co 0.05051 0.60694 0.00367 0.0
O309 O 0.05482 0.60858 0.07065 0.0
O310 O 0.03116 0.60176 0.03904 0.0
C311 C 0.07098 0.63038 0.98289 0.0
O312 O 0.0421 0.60473 0.93527 0.0
Co313 Co 0.07446 0.60248 0.93736 0.0
O314 O 0.06169 0.60602 0.88696 0.0
C315 C 0.05142 0.57409 0.98783 0.0
C316 C 0.03988 0.60439 0.07703 0.0
C317 C 0.04805 0.60546 0.89343 0.0
O318 O 0.04564 0.58331 0.00495 0.0
O319 O 0.06359 0.57936 0.96082 0.0
O320 O 0.05806 0.6302 0.99974 0.0
O321 O 0.07195 0.61669 0.98467 0.0
Co322 Co 0.39959 0.45435 0.00693 0.0
O323 O 0.39895 0.45745 0.07437 0.0
O324 O 0.40795 0.44129 0.04105 0.0
C325 C 0.37469 0.45115 0.99273 0.0
O326 O 0.4013 0.44777 0.93795 0.0
Co327 Co 0.39689 0.47957 0.93879 0.0
O328 O 0.39449 0.46319 0.88951 0.0
C329 C 0.42742 0.48733 0.98602 0.0
C330 C 0.40485 0.44718 0.07972 0.0
C331 C 0.39822 0.45155 0.8962 0.0
O332 O 0.4216 0.47286 0.00319 0.0
O333 O 0.41913 0.49277 0.96237 0.0
O334 O 0.37719 0.43907 0.00759 0.0
O335 O 0.38707 0.46502 0.99123 0.0
Co336 Co 0.6704 0.75314 0.84545 0.0
O337 O 0.68342 0.74194 0.84509 0.0
O338 O 0.68969 0.76582 0.81101 0.0
C339 C 0.66445 0.74982 0.92322 0.0
O340 O 0.66032 0.76864 0.84068 0.0
Co341 Co 0.63468 0.73492 0.86888 0.0
O342 O 0.63641 0.75719 0.87565 0.0
C343 C 0.64553 0.7325 0.77212 0.0
C344 C 0.69359 0.75421 0.82132 0.0
C345 C 0.64784 0.76933 0.8569 0.0
O346 O 0.65978 0.74216 0.78447 0.0
O347 O 0.63387 0.72746 0.8012 0.0
O348 O 0.67781 0.76126 0.90881 0.0
O349 O 0.65586 0.73971 0.89086 0.0
Co350 Co 0.20997 0.94223 0.8395 0.0
O351 O 0.20571 0.94136 0.90633 0.0
O352 O 0.22348 0.93473 0.87369 0.0
C353 C 0.21126 0.96704 0.82715 0.0
O354 O 0.21774 0.94235 0.7711 0.0
Co355 Co 0.18459 0.94297 0.77019 0.0
O356 O 0.20208 0.94892 0.7239 0.0
C357 C 0.17962 0.91194 0.81322 0.0
C358 C 0.21654 0.93637 0.912 0.0
C359 C 0.21425 0.94643 0.73036 0.0
O360 O 0.19341 0.91915 0.83226 0.0
O361 O 0.17336 0.9194 0.78879 0.0
O362 O 0.22335 0.96541 0.84395 0.0
O363 O 0.19828 0.95373 0.82351 0.0
Co364 Co 0.0594 0.29972 0.82636 0.0
O365 O 0.03678 0.289 0.82525 0.0
O366 O 0.05205 0.27842 0.79607 0.0
C367 C 0.0614 0.30783 0.90222 0.0
O368 O 0.08364 0.30793 0.82486 0.0
Co369 Co 0.07498 0.33724 0.84123 0.0
O370 O 0.09371 0.33341 0.85482 0.0
C371 C 0.06279 0.32398 0.74697 0.0
C372 C 0.03782 0.27691 0.80458 0.0
C373 C 0.09522 0.32088 0.84152 0.0
O374 O 0.05961 0.30971 0.76258 0.0
O375 O 0.06828 0.33669 0.77324 0.0
O376 O 0.05927 0.29318 0.89209 0.0
O377 O 0.06048 0.31636 0.86684 0.0
Co378 Co 0.42285 0.01714 0.98427 0.0
O379 O 0.41462 0.03276 0.97834 0.0
O380 O 0.43721 0.0373 0.01428 0.0
C381 C 0.41826 0.00873 0.9085 0.0
O382 O 0.43538 0.0041 0.995 0.0
Co383 Co 0.40116 0.98062 0.97095 0.0
O384 O 0.42142 0.97895 0.9657 0.0
C385 C 0.40033 0.99619 0.06174 0.0
C386 C 0.42711 0.0427 0.00124 0.0
C387 C 0.43415 0.99007 0.98253 0.0
O388 O 0.41147 0.0095 0.04644 0.0
O389 O 0.394 0.98326 0.03649 0.0
O390 O 0.43091 0.02172 0.91995 0.0
O391 O 0.40819 0.00198 0.94239 0.0
Co392 Co 0.96334 0.42109 0.99823 0.0
O393 O 0.96103 0.42402 0.93181 0.0
O394 O 0.981 0.42072 0.96328 0.0
C395 C 0.93827 0.40224 0.01015 0.0
O396 O 0.96884 0.41699 0.06601 0.0
Co397 Co 0.94403 0.43154 0.06832 0.0
O398 O 0.95076 0.41935 0.11393 0.0
C399 C 0.97267 0.45664 0.02465 0.0
C400 C 0.97405 0.42269 0.92542 0.0
C401 C 0.96202 0.41543 0.10679 0.0
O402 O 0.97558 0.44531 0.00693 0.0
O403 O 0.95993 0.45377 0.04753 0.0
O404 O 0.94882 0.39824 0.99253 0.0
O405 O 0.9427 0.4177 0.01475 0.0
Co406 Co 0.57995 0.57511 0.99538 0.0
O407 O 0.60259 0.58495 0.99626 0.0
O408 O 0.58751 0.56082 0.02668 0.0
C409 C 0.57791 0.58049 0.91807 0.0
O410 O 0.55587 0.56114 0.99793 0.0
Co411 Co 0.56329 0.59719 0.97446 0.0
O412 O 0.54513 0.57587 0.96171 0.0
C413 C 0.57574 0.59709 0.07081 0.0
C414 C 0.60169 0.57199 0.01704 0.0
C415 C 0.54401 0.56255 0.97897 0.0
O416 O 0.57952 0.58571 0.0583 0.0
O417 O 0.57013 0.60397 0.04169 0.0
O418 O 0.58 0.5679 0.93005 0.0
O419 O 0.5787 0.59013 0.95255 0.0
Co420 Co 0.98329 0.58034 0.48186 0.0
O421 O 0.98013 0.57958 0.41456 0.0
O422 O 0.00356 0.58805 0.44927 0.0
C423 C 0.96739 0.5919 0.49978 0.0
O424 O 0.99053 0.58333 0.5514 0.0
Co425 Co 0.95411 0.55993 0.54523 0.0
O426 O 0.96857 0.5728 0.59689 0.0
C427 C 0.97052 0.54363 0.49501 0.0
C428 C 0.99535 0.58545 0.41017 0.0
C429 C 0.98354 0.58079 0.59219 0.0
O430 O 0.98124 0.55752 0.48156 0.0
O431 O 0.95797 0.54185 0.51719 0.0
O432 O 0.9818 0.60082 0.48579 0.0
O433 O 0.96257 0.57639 0.49671 0.0
Co434 Co 0.43704 0.4195 0.48632 0.0
O435 O 0.43989 0.41897 0.41879 0.0
O436 O 0.42161 0.42453 0.45268 0.0
C437 C 0.43881 0.39625 0.50197 0.0
O438 O 0.43047 0.4205 0.5556 0.0
Co439 Co 0.4647 0.42284 0.55293 0.0
O440 O 0.44857 0.41812 0.60335 0.0
C441 C 0.46628 0.4517 0.50306 0.0
C442 C 0.42818 0.42268 0.41382 0.0
C443 C 0.43554 0.41905 0.59726 0.0
O444 O 0.45205 0.44329 0.48813 0.0
O445 O 0.474 0.44552 0.52638 0.0
O446 O 0.42553 0.39587 0.48739 0.0
O447 O 0.4508 0.41041 0.50209 0.0
Co448 Co 0.57711 0.05107 0.50596 0.0
O449 O 0.576 0.05512 0.43949 0.0
O450 O 0.57372 0.03187 0.46956 0.0
C451 C 0.5991 0.07406 0.52227 0.0
O452 O 0.57829 0.04296 0.57299 0.0
Co453 Co 0.57185 0.07349 0.57836 0.0
O454 O 0.58027 0.06276 0.6238 0.0
C455 C 0.54406 0.04797 0.53157 0.0
C456 C 0.57404 0.04038 0.43222 0.0
C457 C 0.58079 0.04938 0.61486 0.0
O458 O 0.55344 0.04303 0.51159 0.0
O459 O 0.54909 0.06068 0.55788 0.0
O460 O 0.60003 0.0616 0.50345 0.0
O461 O 0.5849 0.07304 0.52537 0.0
Co462 Co 0.2335 0.31986 0.37576 0.0
O463 O 0.23004 0.31563 0.4423 0.0
O464 O 0.2395 0.34013 0.41016 0.0
C465 C 0.24585 0.30421 0.36215 0.0
O466 O 0.23879 0.32814 0.30733 0.0
Co467 Co 0.2161 0.29049 0.30746 0.0
O468 O 0.23038 0.306 0.2601 0.0
C469 C 0.19841 0.3068 0.34989 0.0
C470 C 0.2353 0.33115 0.44825 0.0
C471 C 0.23771 0.32134 0.26631 0.0
O472 O 0.21136 0.31756 0.36781 0.0
O473 O 0.19747 0.29417 0.3279 0.0
O474 O 0.25362 0.31869 0.37975 0.0
O475 O 0.23066 0.29898 0.35999 0.0
Co476 Co 0.71495 0.9342 0.32835 0.0
O477 O 0.72056 0.93094 0.39225 0.0
O478 O 0.69668 0.92709 0.36915 0.0
C479 C 0.7351 0.96052 0.32024 0.0
O480 O 0.70606 0.93661 0.26709 0.0
Co481 Co 0.7305 0.92549 0.30021 0.0
O482 O 0.72263 0.92845 0.23466 0.0
C483 C 0.71065 0.89982 0.32853 0.0
C484 C 0.70592 0.92697 0.40329 0.0
C485 C 0.7118 0.93322 0.23011 0.0
O486 O 0.70575 0.90982 0.31279 0.0
O487 O 0.7252 0.90524 0.33709 0.0
O488 O 0.72225 0.95666 0.34301 0.0
O489 O 0.73746 0.94888 0.3013 0.0
Co490 Co 0.06255 0.79122 0.33391 0.0
O491 O 0.06294 0.7959 0.40072 0.0
O492 O 0.07085 0.77853 0.36968 0.0
C493 C 0.03765 0.78811 0.3204 0.0
O494 O 0.06333 0.78301 0.2665 0.0
Co495 Co 0.05965 0.81492 0.26055 0.0
O496 O 0.05513 0.79669 0.21568 0.0
C497 C 0.09058 0.82328 0.30623 0.0
C498 C 0.06859 0.78546 0.40746 0.0
C499 C 0.05907 0.78533 0.22465 0.0
O500 O 0.08467 0.80927 0.32637 0.0
O501 O 0.08226 0.82835 0.2812 0.0
O502 O 0.04011 0.77633 0.33791 0.0
O503 O 0.05013 0.80184 0.31609 0.0
H504 H 0.33376 0.08709 0.55074 0.0
H505 H 0.29107 0.08756 0.4953 0.0
H506 H 0.34315 0.08725 0.46956 0.0
H507 H 0.30046 0.08778 0.41462 0.0
H508 H 0.31479 0.07042 0.27822 0.0
H509 H 0.30577 0.06919 0.36019 0.0
H510 H 0.35189 0.10635 0.40017 0.0
H511 H 0.36091 0.10756 0.31842 0.0
C512 C 0.32641 0.08726 0.52129 0.0
C513 C 0.3117 0.08733 0.52938 0.0
C514 C 0.3318 0.0874 0.47489 0.0
C515 C 0.32249 0.08745 0.43581 0.0
C516 C 0.30779 0.08752 0.44402 0.0
C517 C 0.30248 0.08752 0.49027 0.0
C518 C 0.32301 0.07827 0.30457 0.0
C519 C 0.33853 0.08911 0.29193 0.0
C520 C 0.31783 0.07761 0.3514 0.0
C521 C 0.32813 0.08769 0.38652 0.0
C522 C 0.34374 0.09833 0.37397 0.0
C523 C 0.34886 0.09909 0.32711 0.0
H524 H 0.91885 0.23521 0.50212 0.0
H525 H 0.89533 0.26347 0.55199 0.0
H526 H 0.91566 0.24189 0.42037 0.0
H527 H 0.89085 0.2691 0.47054 0.0
H528 H 0.89591 0.28941 0.32494 0.0
H529 H 0.90189 0.28384 0.40481 0.0
H530 H 0.89938 0.23787 0.35647 0.0
H531 H 0.89474 0.24437 0.27551 0.0
C532 C 0.91278 0.24267 0.4954 0.0
C533 C 0.9074 0.2489 0.53327 0.0
C534 C 0.91082 0.24643 0.44842 0.0
C535 C 0.90304 0.25615 0.43815 0.0
C536 C 0.89734 0.26201 0.47649 0.0
C537 C 0.89973 0.25865 0.52343 0.0
C538 C 0.89688 0.27823 0.33149 0.0
C539 C 0.89492 0.26732 0.29433 0.0
C540 C 0.90009 0.27488 0.3775 0.0
C541 C 0.90084 0.2602 0.38798 0.0
C542 C 0.89913 0.2494 0.35017 0.0
C543 C 0.89641 0.25304 0.30367 0.0
H544 H 0.71862 0.64127 0.54471 0.0
H545 H 0.75716 0.68731 0.50618 0.0
H546 H 0.71446 0.63357 0.46056 0.0
H547 H 0.75287 0.67968 0.42259 0.0
H548 H 0.72715 0.66644 0.27688 0.0
H549 H 0.73054 0.6739 0.36121 0.0
H550 H 0.73097 0.62817 0.39522 0.0
H551 H 0.72776 0.62078 0.31132 0.0
C552 C 0.72617 0.64971 0.51832 0.0
C553 C 0.73821 0.66485 0.53189 0.0
C554 C 0.72381 0.64531 0.47034 0.0
C555 C 0.7333 0.65611 0.43528 0.0
C556 C 0.7453 0.67124 0.44893 0.0
C557 C 0.7478 0.67552 0.49679 0.0
C558 C 0.72799 0.65802 0.30243 0.0
C559 C 0.72724 0.64307 0.28766 0.0
C560 C 0.72995 0.66228 0.35052 0.0
C561 C 0.73094 0.65155 0.38453 0.0
C562 C 0.73007 0.63657 0.36972 0.0
C563 C 0.72835 0.63242 0.3217 0.0
H564 H 0.08051 0.33871 0.93138 0.0
H565 H 0.04944 0.29088 0.9826 0.0
H566 H 0.08735 0.34825 0.01247 0.0
H567 H 0.05467 0.30065 0.06382 0.0
H568 H 0.07639 0.31705 0.20717 0.0
H569 H 0.07145 0.30768 0.12534 0.0
H570 H 0.08064 0.35627 0.08044 0.0
H571 H 0.08724 0.3657 0.16176 0.0
C572 C 0.07495 0.33033 0.9602 0.0
C573 C 0.06462 0.31406 0.95101 0.0
C574 C 0.07871 0.33581 0.00693 0.0
C575 C 0.07165 0.32528 0.04549 0.0
C576 C 0.06083 0.30908 0.03567 0.0
C577 C 0.05762 0.30347 0.989 0.0
C578 C 0.07748 0.32566 0.17945 0.0
C579 C 0.08225 0.34205 0.19028 0.0
C580 C 0.07446 0.3203 0.13245 0.0
C581 C 0.07548 0.33112 0.09554 0.0
C582 C 0.08008 0.34756 0.10712 0.0
C583 C 0.08373 0.353 0.15386 0.0
H584 H 0.65632 0.74989 0.23167 0.0
H585 H 0.61389 0.75134 0.1778 0.0
H586 H 0.6649 0.74885 0.15022 0.0
H587 H 0.62248 0.75034 0.09676 0.0
H588 H 0.63523 0.73087 0.96094 0.0
H589 H 0.62675 0.73073 0.04321 0.0
H590 H 0.67358 0.76725 0.07959 0.0
H591 H 0.68205 0.76737 0.99777 0.0
C592 C 0.64887 0.75005 0.2025 0.0
C593 C 0.63447 0.75073 0.21112 0.0
C594 C 0.65378 0.74947 0.15593 0.0
C595 C 0.6443 0.74943 0.1172 0.0
C596 C 0.62992 0.75013 0.12591 0.0
C597 C 0.62508 0.75085 0.17235 0.0
C598 C 0.64371 0.73879 0.98661 0.0
C599 C 0.65928 0.74915 0.97297 0.0
C600 C 0.63885 0.73877 0.03357 0.0
C601 C 0.64952 0.74899 0.06776 0.0
C602 C 0.66515 0.75913 0.05416 0.0
C603 C 0.66995 0.75926 0.00723 0.0
H604 H 0.23928 0.89656 0.16652 0.0
H605 H 0.23696 0.9403 0.21402 0.0
H606 H 0.2337 0.90186 0.08537 0.0
H607 H 0.23163 0.94575 0.13274 0.0
H608 H 0.23854 0.92559 0.93775 0.0
H609 H 0.24524 0.92062 0.01837 0.0
H610 H 0.21021 0.9344 0.07532 0.0
H611 H 0.20374 0.93955 0.99555 0.0
C612 C 0.23764 0.90735 0.15958 0.0
C613 C 0.2385 0.91799 0.19668 0.0
C614 C 0.23456 0.91044 0.113 0.0
C615 C 0.23221 0.92421 0.10252 0.0
C616 C 0.23319 0.93491 0.13968 0.0
C617 C 0.2363 0.93184 0.18624 0.0
C618 C 0.23231 0.92754 0.96756 0.0
C619 C 0.22065 0.93299 0.96023 0.0
C620 C 0.23608 0.92464 0.01369 0.0
C621 C 0.22832 0.92721 0.05333 0.0
C622 C 0.21662 0.93257 0.04574 0.0
C623 C 0.21283 0.93542 0.99986 0.0
H624 H 0.69596 0.92764 0.71003 0.0
H625 H 0.64931 0.89522 0.65893 0.0
H626 H 0.70624 0.93045 0.62899 0.0
H627 H 0.65958 0.89743 0.57883 0.0
H628 H 0.67725 0.92244 0.43752 0.0
H629 H 0.66809 0.9176 0.51914 0.0
H630 H 0.71223 0.91753 0.56226 0.0
H631 H 0.72163 0.92298 0.48029 0.0
C632 C 0.68799 0.92091 0.6816 0.0
C633 C 0.67182 0.91141 0.69054 0.0
C634 C 0.69387 0.92244 0.63525 0.0
C635 C 0.68368 0.91435 0.59724 0.0
C636 C 0.66767 0.9042 0.60695 0.0
C637 C 0.6618 0.90285 0.65294 0.0
C638 C 0.68498 0.9213 0.46433 0.0
C639 C 0.70015 0.92309 0.45253 0.0
C640 C 0.67969 0.91842 0.51117 0.0
C641 C 0.68939 0.91708 0.54733 0.0
C642 C 0.70453 0.91868 0.5354 0.0
C643 C 0.70988 0.92169 0.48843 0.0
H644 H 0.06614 0.79952 0.49045 0.0
H645 H 0.07852 0.76267 0.43479 0.0
H646 H 0.07146 0.79341 0.5707 0.0
H647 H 0.08347 0.75622 0.5155 0.0
H648 H 0.10806 0.76208 0.65946 0.0
H649 H 0.102 0.76741 0.57931 0.0
H650 H 0.06169 0.7733 0.63229 0.0
H651 H 0.06806 0.76835 0.71313 0.0
C652 C 0.06993 0.79004 0.49536 0.0
C653 C 0.07196 0.78161 0.45614 0.0
C654 C 0.07286 0.78644 0.54153 0.0
C655 C 0.07785 0.77429 0.5498 0.0
C656 C 0.07983 0.76581 0.5105 0.0
C657 C 0.07694 0.76945 0.4642 0.0
C658 C 0.09788 0.76449 0.65412 0.0
C659 C 0.08855 0.76482 0.69279 0.0
C660 C 0.09433 0.76743 0.60796 0.0
C661 C 0.08133 0.77075 0.59909 0.0
C662 C 0.07192 0.77099 0.6378 0.0
C663 C 0.07551 0.76807 0.68414 0.0
H664 H 0.25049 0.36302 0.47721 0.0
H665 H 0.22274 0.31427 0.52888 0.0
H666 H 0.2531 0.37336 0.55853 0.0
H667 H 0.22484 0.32453 0.60927 0.0
H668 H 0.24431 0.34553 0.75441 0.0
H669 H 0.24307 0.33572 0.67301 0.0
H670 H 0.23815 0.37762 0.62083 0.0
H671 H 0.23993 0.3876 0.70157 0.0
C672 C 0.24484 0.35456 0.50582 0.0
C673 C 0.23646 0.33786 0.49665 0.0
C674 C 0.24628 0.36045 0.55241 0.0
C675 C 0.23925 0.34976 0.59063 0.0
C676 C 0.23071 0.33309 0.58105 0.0
C677 C 0.22939 0.32722 0.53475 0.0
C678 C 0.24296 0.35259 0.72548 0.0
C679 C 0.24222 0.36731 0.73441 0.0
C680 C 0.24219 0.34698 0.67882 0.0
C681 C 0.24052 0.35589 0.64021 0.0
C682 C 0.23972 0.37058 0.64944 0.0
C683 C 0.24061 0.37623 0.69589 0.0
H684 H 0.90488 0.6939 0.7959 0.0
H685 H 0.87858 0.64528 0.85019 0.0
H686 H 0.90802 0.70464 0.87676 0.0
H687 H 0.88106 0.65592 0.93031 0.0
H688 H 0.90272 0.67762 0.07285 0.0
H689 H 0.8997 0.66729 0.99169 0.0
H690 H 0.89473 0.70941 0.94168 0.0
H691 H 0.89843 0.71998 0.02228 0.0
C692 C 0.89958 0.68555 0.82504 0.0
C693 C 0.89158 0.66877 0.81679 0.0
C694 C 0.90132 0.69168 0.87141 0.0
C695 C 0.8949 0.68114 0.91033 0.0
C696 C 0.88651 0.66439 0.90156 0.0
C697 C 0.88497 0.65828 0.85547 0.0
C698 C 0.90096 0.68462 0.04445 0.0
C699 C 0.90085 0.6996 0.05391 0.0
C700 C 0.89914 0.67869 0.9979 0.0
C701 C 0.89695 0.68751 0.95989 0.0
C702 C 0.89668 0.70242 0.96971 0.0
C703 C 0.89869 0.70842 0.01608 0.0
H704 H 0.32174 0.25817 0.9997 0.0
H705 H 0.3634 0.2547 0.05119 0.0
H706 H 0.33261 0.26333 0.92006 0.0
H707 H 0.37404 0.25887 0.9705 0.0
H708 H 0.39515 0.2803 0.82769 0.0
H709 H 0.3851 0.27713 0.9085 0.0
H710 H 0.33729 0.25074 0.85503 0.0
H711 H 0.34742 0.25485 0.7741 0.0
C712 C 0.33321 0.25837 0.99376 0.0
C713 C 0.34171 0.25597 0.03151 0.0
C714 C 0.33941 0.26119 0.94791 0.0
C715 C 0.35415 0.26133 0.93831 0.0
C716 C 0.36275 0.25908 0.97642 0.0
C717 C 0.35665 0.2566 0.02268 0.0
C718 C 0.38248 0.27391 0.83333 0.0
C719 C 0.37204 0.26787 0.79468 0.0
C720 C 0.37671 0.27196 0.87975 0.0
C721 C 0.36035 0.26364 0.88871 0.0
C722 C 0.34994 0.25753 0.84975 0.0
C723 C 0.35571 0.25979 0.80325 0.0
H724 H 0.71995 0.12184 0.83419 0.0
H725 H 0.7556 0.10842 0.78097 0.0
H726 H 0.72448 0.11513 0.91439 0.0
H727 H 0.76101 0.10265 0.86182 0.0
H728 H 0.75927 0.08087 0.00625 0.0
H729 H 0.75266 0.0855 0.92602 0.0
H730 H 0.74121 0.12346 0.97864 0.0
H731 H 0.74689 0.11795 0.05941 0.0
C732 C 0.7289 0.11757 0.83981 0.0
C733 C 0.73743 0.11565 0.8013 0.0
C734 C 0.73162 0.11384 0.88603 0.0
C735 C 0.74323 0.10843 0.89529 0.0
C736 C 0.75175 0.10648 0.85643 0.0
C737 C 0.74875 0.10988 0.80994 0.0
C738 C 0.75519 0.09011 1.00062 0.0
C739 C 0.75356 0.09903 0.03909 0.0
C740 C 0.75154 0.09291 0.9544 0.0
C741 C 0.7465 0.10499 0.94514 0.0
C742 C 0.74476 0.11384 0.98401 0.0
C743 C 0.74808 0.11076 0.03047 0.0
H744 H 0.95897 0.42188 0.8426 0.0
H745 H 0.00272 0.42403 0.89822 0.0
H746 H 0.96843 0.42239 0.76208 0.0
H747 H 0.01224 0.42453 0.8168 0.0
H748 H 0.02883 0.44637 0.66509 0.0
H749 H 0.01995 0.44387 0.74737 0.0
H750 H 0.97495 0.40485 0.70701 0.0
H751 H 0.98383 0.40737 0.62448 0.0
C752 C 0.97063 0.42244 0.83765 0.0
C753 C 0.98013 0.42296 0.87683 0.0
C754 C 0.97598 0.4226 0.79141 0.0
C755 C 0.99103 0.42341 0.7831 0.0
C756 C 0.0006 0.42397 0.82221 0.0
C757 C 0.99515 0.42364 0.86873 0.0
C758 C 0.01706 0.43721 0.67379 0.0
C759 C 0.00698 0.42711 0.63831 0.0
C760 C 0.01204 0.4357 0.72099 0.0
C761 C 0.99677 0.42418 0.73363 0.0
C762 C 0.98675 0.41394 0.69822 0.0
C763 C 0.99184 0.41534 0.65103 0.0
H764 H 0.57333 0.58977 0.61031 0.0
H765 H 0.53635 0.60058 0.66742 0.0
H766 H 0.58041 0.58537 0.69094 0.0
H767 H 0.54326 0.596 0.74739 0.0
H768 H 0.57135 0.60486 0.88506 0.0
H769 H 0.56505 0.60916 0.80379 0.0
H770 H 0.56963 0.56636 0.75848 0.0
H771 H 0.57614 0.56217 0.83976 0.0
C772 C 0.56668 0.59112 0.63998 0.0
C773 C 0.55432 0.59557 0.63251 0.0
C774 C 0.57068 0.58855 0.68611 0.0
C775 C 0.56246 0.59044 0.72556 0.0
C776 C 0.55 0.59471 0.71786 0.0
C777 C 0.54598 0.59723 0.67193 0.0
C778 C 0.57104 0.59638 0.85775 0.0
C779 C 0.5742 0.58316 0.86879 0.0
C780 C 0.56736 0.5988 0.81123 0.0
C781 C 0.5668 0.58807 0.77471 0.0
C782 C 0.57012 0.57493 0.78571 0.0
C783 C 0.57375 0.57248 0.83231 0.0
H784 H 0.39396 0.98096 0.87514 0.0
H785 H 0.43502 0.02393 0.82989 0.0
H786 H 0.3878 0.97252 0.79226 0.0
H787 H 0.42884 0.01547 0.74723 0.0
H788 H 0.40093 0.00348 0.60521 0.0
H789 H 0.40716 0.01197 0.68821 0.0
H790 H 0.4 0.96354 0.72564 0.0
H791 H 0.39379 0.95507 0.64319 0.0
C792 C 0.4017 0.98854 0.84753 0.0
C793 C 0.41495 0.00309 0.8589 0.0
C794 C 0.39819 0.98371 0.80018 0.0
C795 C 0.40781 0.99341 0.76342 0.0
C796 C 0.42113 0.00788 0.77487 0.0
C797 C 0.42472 0.01263 0.82218 0.0
C798 C 0.40067 0.99468 0.63125 0.0
C799 C 0.39686 0.97863 0.61784 0.0
C800 C 0.40431 0.99954 0.67859 0.0
C801 C 0.40402 0.98838 0.71325 0.0
C802 C 0.40014 0.97233 0.69974 0.0
C803 C 0.39668 0.96753 0.65249 0.0
H804 H 0.56923 0.05362 0.3509 0.0
H805 H 0.57589 0.01277 0.40327 0.0
H806 H 0.56756 0.0436 0.27002 0.0
H807 H 0.57487 0.00304 0.32212 0.0
H808 H 0.55628 0.98079 0.17876 0.0
H809 H 0.5572 0.991 0.25871 0.0
H810 H 0.58278 0.04021 0.20736 0.0
H811 H 0.58125 0.02987 0.1264 0.0
C812 C 0.57041 0.04252 0.34506 0.0
C813 C 0.57264 0.03394 0.38344 0.0
C814 C 0.56958 0.03684 0.29859 0.0
C815 C 0.57112 0.02253 0.28932 0.0
C816 C 0.57337 0.01396 0.32788 0.0
C817 C 0.57402 0.01956 0.37444 0.0
C818 C 0.56209 0.99381 0.18443 0.0
C819 C 0.56876 0.00454 0.1463 0.0
C820 C 0.56272 0.99967 0.23047 0.0
C821 C 0.5702 0.01644 0.23979 0.0
C822 C 0.57677 0.02722 0.20148 0.0
C823 C 0.57597 0.02132 0.15511 0.0
H824 H 0.0248 0.58911 0.38243 0.0
H825 H 0.98207 0.59008 0.32987 0.0
H826 H 0.03554 0.59361 0.30174 0.0
H827 H 0.99294 0.59537 0.25029 0.0
H828 H 0.00896 0.5877 0.1047 0.0
H829 H 0.99864 0.58307 0.18555 0.0
H830 H 0.04582 0.61242 0.23971 0.0
H831 H 0.05612 0.61629 0.15913 0.0
C832 C 0.01781 0.59049 0.35374 0.0
C833 C 0.00258 0.58912 0.36238 0.0
C834 C 0.02396 0.59315 0.30747 0.0
C835 C 0.01507 0.59475 0.26908 0.0
C836 C 0.99999 0.59378 0.27839 0.0
C837 C 0.9938 0.59087 0.32426 0.0
C838 C 0.01707 0.59319 0.13394 0.0
C839 C 0.03332 0.60235 0.1256 0.0
C840 C 0.01118 0.59062 0.1804 0.0
C841 C 0.02138 0.59737 0.21954 0.0
C842 C 0.03762 0.60674 0.21081 0.0
C843 C 0.04352 0.60909 0.16448 0.0
H844 H 0.42637 0.43619 0.10814 0.0
H845 H 0.38926 0.44752 0.16038 0.0
H846 H 0.43154 0.43012 0.18889 0.0
H847 H 0.39349 0.4404 0.24039 0.0
H848 H 0.41485 0.44265 0.38688 0.0
H849 H 0.40923 0.44835 0.30624 0.0
H850 H 0.42378 0.41277 0.252 0.0
H851 H 0.43038 0.40809 0.33218 0.0
C852 C 0.41915 0.43711 0.13687 0.0
C853 C 0.40749 0.44241 0.12799 0.0
C854 C 0.422 0.43352 0.18333 0.0
C855 C 0.41297 0.43476 0.22194 0.0
C856 C 0.40102 0.43967 0.21236 0.0
C857 C 0.39847 0.44363 0.16621 0.0
C858 C 0.41672 0.43602 0.3576 0.0
C859 C 0.42308 0.42498 0.36577 0.0
C860 C 0.41344 0.4392 0.31116 0.0
C861 C 0.41609 0.43111 0.27182 0.0
C862 C 0.42196 0.41963 0.28068 0.0
C863 C 0.42559 0.41678 0.32688 0.0
H864 H 0.28845 0.17972 0.16602 0.0
H865 H 0.33879 0.20976 0.15187 0.0
H866 H 0.29288 0.15551 0.16443 0.0
H867 H 0.34331 0.18551 0.15213 0.0
H868 H 0.34411 0.13665 0.12084 0.0
H869 H 0.34 0.16104 0.11194 0.0
H870 H 0.30339 0.14302 0.21903 0.0
H871 H 0.3071 0.11857 0.22669 0.0
C872 C 0.30047 0.18114 0.16239 0.0
C873 C 0.31328 0.19664 0.15959 0.0
C874 C 0.30303 0.16727 0.16183 0.0
C875 C 0.31848 0.16858 0.15916 0.0
C876 C 0.33125 0.18406 0.15403 0.0
C877 C 0.32867 0.19796 0.15398 0.0
C878 C 0.33522 0.13796 0.14254 0.0
C879 C 0.32585 0.12563 0.17422 0.0
C880 C 0.33289 0.15194 0.13749 0.0
C881 C 0.32122 0.15389 0.16431 0.0
C882 C 0.31217 0.14172 0.19683 0.0
C883 C 0.31439 0.12774 0.20152 0.0
H884 H 0.82978 0.14423 0.18787 0.0
H885 H 0.78547 0.14349 0.14307 0.0
H886 H 0.84265 0.17374 0.18062 0.0
H887 H 0.79808 0.17286 0.13795 0.0
H888 H 0.82811 0.22516 0.09404 0.0
H889 H 0.81586 0.19559 0.09592 0.0
H890 H 0.84394 0.19713 0.21924 0.0
H891 H 0.85665 0.22665 0.21597 0.0
C892 C 0.82279 0.15034 0.17644 0.0
C893 C 0.80659 0.14145 0.16609 0.0
C894 C 0.83013 0.16729 0.17269 0.0
C895 C 0.8214 0.17578 0.15908 0.0
C896 C 0.80527 0.16681 0.14786 0.0
C897 C 0.798 0.14989 0.15102 0.0
C898 C 0.83157 0.21917 0.12175 0.0
C899 C 0.84335 0.22826 0.15483 0.0
C900 C 0.82453 0.20219 0.1229 0.0
C901 C 0.82894 0.19388 0.1576 0.0
C902 C 0.84049 0.20304 0.19131 0.0
C903 C 0.84767 0.22 0.18975 0.0
H904 H 0.85177 0.72597 0.22562 0.0
H905 H 0.85829 0.68766 0.15357 0.0
H906 H 0.82329 0.71131 0.21273 0.0
H907 H 0.82977 0.6731 0.14035 0.0
H908 H 0.77497 0.64526 0.1772 0.0
H909 H 0.80406 0.6583 0.18366 0.0
H910 H 0.80501 0.70436 0.14565 0.0
H911 H 0.77634 0.69153 0.13978 0.0
C912 C 0.84718 0.71447 0.2069 0.0
C913 C 0.85742 0.7081 0.1905 0.0
C914 C 0.83083 0.70607 0.1993 0.0
C915 C 0.82424 0.69105 0.17519 0.0
C916 C 0.83443 0.68457 0.15927 0.0
C917 C 0.85081 0.69301 0.16663 0.0
C918 C 0.78148 0.65808 0.16926 0.0
C919 C 0.77336 0.66739 0.15855 0.0
C920 C 0.79811 0.66558 0.17314 0.0
C921 C 0.80683 0.68248 0.16629 0.0
C922 C 0.79867 0.69145 0.15255 0.0
C923 C 0.78222 0.68404 0.14883 0.0
H924 H 0.12875 0.34598 0.37116 0.0
H925 H 0.11225 0.30967 0.26024 0.0
H926 H 0.15105 0.33975 0.38623 0.0
H927 H 0.13483 0.30395 0.27361 0.0
H928 H 0.19764 0.33584 0.36506 0.0
H929 H 0.17522 0.34207 0.35556 0.0
H930 H 0.14477 0.29131 0.32814 0.0
H931 H 0.16742 0.28523 0.33542 0.0
C932 C 0.13005 0.33686 0.34948 0.0
C933 C 0.11874 0.32826 0.31468 0.0
C934 C 0.14283 0.33329 0.35806 0.0
C935 C 0.14468 0.3212 0.3315 0.0
C936 C 0.13357 0.31299 0.2957 0.0
C937 C 0.1207 0.31639 0.28766 0.0
C938 C 0.18612 0.32596 0.35756 0.0
C939 C 0.18433 0.31004 0.35065 0.0
C940 C 0.17323 0.32954 0.35223 0.0
C941 C 0.15818 0.31724 0.34052 0.0
C942 C 0.15626 0.30117 0.33589 0.0
C943 C 0.16922 0.29764 0.34051 0.0
H944 H 0.6473 0.7976 0.28979 0.0
H945 H 0.63828 0.80849 0.4328 0.0
H946 H 0.66766 0.82556 0.28069 0.0
H947 H 0.65905 0.83643 0.42385 0.0
H948 H 0.71218 0.87763 0.39086 0.0
H949 H 0.69234 0.84929 0.40179 0.0
H950 H 0.66453 0.8547 0.28728 0.0
H951 H 0.68395 0.883 0.27726 0.0
C952 C 0.64972 0.80594 0.31933 0.0
C953 C 0.64116 0.80089 0.36197 0.0
C954 C 0.66135 0.8219 0.31407 0.0
C955 C 0.66492 0.833 0.35169 0.0
C956 C 0.65653 0.82798 0.39453 0.0
C957 C 0.6446 0.81209 0.39945 0.0
C958 C 0.70188 0.87268 0.36789 0.0
C959 C 0.69959 0.88244 0.33315 0.0
C960 C 0.69053 0.85659 0.37436 0.0
C961 C 0.67698 0.84995 0.34538 0.0
C962 C 0.67491 0.85959 0.30996 0.0
C963 C 0.68601 0.87574 0.3043 0.0
H964 H 0.19283 0.87303 0.37187 0.0
H965 H 0.18605 0.89275 0.2394 0.0
H966 H 0.16442 0.85445 0.37396 0.0
H967 H 0.15809 0.87404 0.24035 0.0
H968 H 0.10709 0.85524 0.28134 0.0
H969 H 0.13556 0.87183 0.28271 0.0
H970 H 0.1422 0.83148 0.33959 0.0
H971 H 0.11353 0.81496 0.3397 0.0
C972 C 0.18534 0.8731 0.34269 0.0
C973 C 0.19161 0.88444 0.30575 0.0
C974 C 0.16907 0.86251 0.34386 0.0
C975 C 0.15883 0.86299 0.30787 0.0
C976 C 0.16543 0.87366 0.26954 0.0
C977 C 0.18153 0.8843 0.2687 0.0
C978 C 0.11457 0.84989 0.29439 0.0
C979 C 0.10795 0.8337 0.31008 0.0
C980 C 0.13097 0.85938 0.29482 0.0
C981 C 0.14129 0.85295 0.31045 0.0
C982 C 0.13466 0.83689 0.32746 0.0
C983 C 0.11819 0.82739 0.32738 0.0
H984 H 0.61448 0.84397 0.84894 0.0
H985 H 0.66456 0.86941 0.81852 0.0
H986 H 0.61639 0.81833 0.8504 0.0
H987 H 0.66664 0.84395 0.82214 0.0
H988 H 0.66334 0.79399 0.79447 0.0
H989 H 0.66034 0.81888 0.78475 0.0
H990 H 0.62651 0.80436 0.89998 0.0
H991 H 0.629 0.77916 0.9081 0.0
C992 C 0.6259 0.84408 0.84258 0.0
C993 C 0.63937 0.85871 0.83375 0.0
C994 C 0.62703 0.8294 0.84377 0.0
C995 C 0.64171 0.82907 0.83686 0.0
C996 C 0.6551 0.84369 0.82696 0.0
C997 C 0.65392 0.85832 0.82507 0.0
C998 C 0.65528 0.79615 0.81772 0.0
C999 C 0.64641 0.78465 0.85205 0.0
C1000 C 0.65359 0.81044 0.81227 0.0
C1001 C 0.64316 0.81364 0.84153 0.0
C1002 C 0.63439 0.80215 0.87612 0.0
C1003 C 0.63591 0.78776 0.88108 0.0
H1004 H 0.1842 0.89322 0.88098 0.0
H1005 H 0.1558 0.89026 0.75734 0.0
H1006 H 0.17146 0.8638 0.88745 0.0
H1007 H 0.14346 0.86069 0.76254 0.0
H1008 H 0.11403 0.80853 0.81159 0.0
H1009 H 0.12582 0.83798 0.80613 0.0
H1010 H 0.17092 0.84052 0.85043 0.0
H1011 H 0.15892 0.81107 0.85785 0.0
C1012 C 0.17525 0.88627 0.85504 0.0
C1013 C 0.17103 0.89408 0.81857 0.0
C1014 C 0.16802 0.86935 0.8585 0.0
C1015 C 0.15654 0.85978 0.8252 0.0
C1016 C 0.15212 0.86764 0.78917 0.0
C1017 C 0.15921 0.8846 0.78608 0.0
C1018 C 0.12648 0.81536 0.82002 0.0
C1019 C 0.13552 0.80742 0.83532 0.0
C1020 C 0.13328 0.83229 0.81666 0.0
C1021 C 0.14933 0.84171 0.82799 0.0
C1022 C 0.15843 0.83372 0.8424 0.0
C1023 C 0.15159 0.8168 0.84632 0.0
H1024 H 0.11576 0.32358 0.76989 0.0
H1025 H 0.11138 0.32341 0.92222 0.0
H1026 H 0.14473 0.33671 0.77755 0.0
H1027 H 0.14017 0.33626 0.9302 0.0
H1028 H 0.18675 0.38281 0.92028 0.0
H1029 H 0.15869 0.36463 0.91135 0.0
H1030 H 0.16979 0.33639 0.80784 0.0
H1031 H 0.19797 0.35466 0.8165 0.0
C1032 C 0.12101 0.32557 0.805 0.0
C1033 C 0.1114 0.32229 0.8455 0.0
C1034 C 0.13759 0.33326 0.80946 0.0
C1035 C 0.14475 0.33788 0.85449 0.0
C1036 C 0.13504 0.3332 0.89499 0.0
C1037 C 0.11856 0.32556 0.89051 0.0
C1038 C 0.18326 0.37279 0.89544 0.0
C1039 C 0.19469 0.37025 0.8692 0.0
C1040 C 0.16715 0.36223 0.89068 0.0
C1041 C 0.16199 0.3489 0.85934 0.0
C1042 C 0.17336 0.34652 0.83232 0.0
C1043 C 0.18952 0.35701 0.83739 0.0
H1044 H 0.78639 0.6724 0.67673 0.0
H1045 H 0.75648 0.62107 0.65712 0.0
H1046 H 0.80936 0.66692 0.68486 0.0
H1047 H 0.77939 0.61555 0.66671 0.0
H1048 H 0.8268 0.61575 0.62307 0.0
H1049 H 0.80266 0.61935 0.62337 0.0
H1050 H 0.82184 0.65498 0.7356 0.0
H1051 H 0.84619 0.65175 0.73435 0.0
C1052 C 0.78468 0.65993 0.6747 0.0
C1053 C 0.76961 0.6472 0.66598 0.0
C1054 C 0.79784 0.65676 0.67969 0.0
C1055 C 0.79622 0.64078 0.67645 0.0
C1056 C 0.78109 0.62802 0.66869 0.0
C1057 C 0.76795 0.63119 0.66335 0.0
C1058 C 0.8258 0.62419 0.64827 0.0
C1059 C 0.83849 0.63357 0.67835 0.0
C1060 C 0.81192 0.62622 0.64856 0.0
C1061 C 0.81037 0.63757 0.6792 0.0
C1062 C 0.82278 0.64639 0.71084 0.0
C1063 C 0.8367 0.64445 0.71031 0.0
H1064 H 0.38984 0.21099 0.62644 0.0
H1065 H 0.35558 0.22469 0.68999 0.0
H1066 H 0.37135 0.18233 0.63675 0.0
H1067 H 0.33711 0.19649 0.6981 0.0
H1068 H 0.31101 0.14496 0.74585 0.0
H1069 H 0.33135 0.17283 0.74051 0.0
H1070 H 0.34723 0.16167 0.60721 0.0
H1071 H 0.32733 0.13356 0.61387 0.0
C1072 C 0.37843 0.20792 0.64258 0.0
C1073 C 0.3743 0.2202 0.65757 0.0
C1074 C 0.36776 0.19149 0.64818 0.0
C1075 C 0.35269 0.187 0.66845 0.0
C1076 C 0.34868 0.19935 0.68342 0.0
C1077 C 0.35933 0.21564 0.67841 0.0
C1078 C 0.31882 0.14846 0.71537 0.0
C1079 C 0.31747 0.13706 0.68017 0.0
C1080 C 0.33049 0.16449 0.71216 0.0
C1081 C 0.34094 0.16963 0.6732 0.0
C1082 C 0.3396 0.15816 0.63808 0.0
C1083 C 0.32807 0.14205 0.64168 0.0
H1084 H 0.7755 0.19168 0.6334 0.0
H1085 H 0.78009 0.15019 0.69042 0.0
H1086 H 0.80415 0.20693 0.63183 0.0
H1087 H 0.80891 0.1654 0.68758 0.0
H1088 H 0.8611 0.20554 0.71308 0.0
H1089 H 0.83247 0.18815 0.71934 0.0
H1090 H 0.82529 0.20686 0.5853 0.0
H1091 H 0.85351 0.22435 0.58002 0.0
C1092 C 0.7826 0.18579 0.64573 0.0
C1093 C 0.7754 0.16963 0.66166 0.0
C1094 C 0.79909 0.19452 0.64445 0.0
C1095 C 0.80891 0.18731 0.65865 0.0
C1096 C 0.80175 0.17136 0.6764 0.0
C1097 C 0.78519 0.16262 0.67794 0.0
C1098 C 0.85337 0.20563 0.68464 0.0
C1099 C 0.8595 0.2164 0.64631 0.0
C1100 C 0.83698 0.19574 0.68824 0.0
C1101 C 0.82648 0.19641 0.65341 0.0
C1102 C 0.83288 0.2064 0.61362 0.0
C1103 C 0.84911 0.21632 0.6103 0.0
H1104 H 0.97182 0.45344 0.56536 0.0
H1105 H 0.00908 0.47277 0.46067 0.0
H1106 H 0.9661 0.47659 0.55398 0.0
H1107 H 0.00292 0.49568 0.44768 0.0
H1108 H 0.99897 0.54313 0.47959 0.0
H1109 H 0.00473 0.51977 0.48324 0.0
H1110 H 0.95479 0.48812 0.4999 0.0
H1111 H 0.94914 0.51161 0.4984 0.0
C1112 C 0.97872 0.4626 0.53964 0.0
C1113 C 0.99092 0.46129 0.51397 0.0
C1114 C 0.97534 0.47582 0.53274 0.0
C1115 C 0.98391 0.48795 0.49947 0.0
C1116 C 0.99618 0.48667 0.47394 0.0
C1117 C 0.99971 0.47353 0.48133 0.0
C1118 C 0.98919 0.53116 0.48332 0.0
C1119 C 0.97361 0.52924 0.48921 0.0
C1120 C 0.99249 0.51773 0.48531 0.0
C1121 C 0.98026 0.50205 0.4926 0.0
C1122 C 0.96457 0.50006 0.49561 0.0
C1123 C 0.96129 0.51351 0.49431 0.0
H1124 H 0.49724 0.47356 0.51698 0.0
H1125 H 0.4519 0.4702 0.47199 0.0
H1126 H 0.50881 0.50298 0.50911 0.0
H1127 H 0.46333 0.49962 0.46583 0.0
H1128 H 0.49266 0.5524 0.41974 0.0
H1129 H 0.48108 0.52279 0.42241 0.0
H1130 H 0.50818 0.52553 0.54904 0.0
H1131 H 0.5201 0.55498 0.54543 0.0
C1132 C 0.48974 0.47908 0.50544 0.0
C1133 C 0.47363 0.4695 0.49532 0.0
C1134 C 0.49634 0.49598 0.50126 0.0
C1135 C 0.48697 0.50371 0.48733 0.0
C1136 C 0.47095 0.49409 0.47617 0.0
C1137 C 0.46438 0.47719 0.47992 0.0
C1138 C 0.49606 0.54665 0.44828 0.0
C1139 C 0.50736 0.55605 0.48221 0.0
C1140 C 0.4894 0.52968 0.44987 0.0
C1141 C 0.49381 0.52175 0.48568 0.0
C1142 C 0.5048 0.5312 0.52026 0.0
C1143 C 0.51155 0.54812 0.51841 0.0
H1144 H 0.52872 0.02159 0.47299 0.0
H1145 H 0.51984 0.05153 0.57634 0.0
H1146 H 0.50026 0.00428 0.46647 0.0
H1147 H 0.4915 0.03436 0.56932 0.0
H1148 H 0.4436 0.99405 0.58587 0.0
H1149 H 0.47242 0.0069 0.59086 0.0
H1150 H 0.47522 0.00454 0.43815 0.0
H1151 H 0.44615 0.99131 0.43353 0.0
C1152 C 0.52073 0.02455 0.4942 0.0
C1153 C 0.52666 0.03798 0.5254 0.0
C1154 C 0.5044 0.01462 0.49029 0.0
C1155 C 0.49358 0.01776 0.51779 0.0
C1156 C 0.49949 0.03134 0.54833 0.0
C1157 C 0.51578 0.04132 0.55204 0.0
C1158 C 0.4504 0.99571 0.55354 0.0
C1159 C 0.44268 0.99155 0.50938 0.0
C1160 C 0.46691 0.00333 0.55628 0.0
C1161 C 0.47616 0.00715 0.51484 0.0
C1162 C 0.46845 0.00178 0.47077 0.0
C1163 C 0.45182 0.99406 0.46806 0.0
H1164 H 0.44092 0.96818 0.93386 0.0
H1165 H 0.45816 0.00368 0.04678 0.0
H1166 H 0.46377 0.96259 0.94358 0.0
H1167 H 0.48058 0.99748 0.05857 0.0
H1168 H 0.52807 0.99776 0.02584 0.0
H1169 H 0.50434 0.00179 0.02324 0.0
H1170 H 0.47658 0.95088 0.99035 0.0
H1171 H 0.50068 0.94705 0.99042 0.0
C1172 C 0.44952 0.97464 0.9612 0.0
C1173 C 0.44785 0.98647 0.98927 0.0
C1174 C 0.46257 0.97133 0.96713 0.0
C1175 C 0.4741 0.97956 0.00189 0.0
C1176 C 0.47216 0.99113 0.03074 0.0
C1177 C 0.45928 0.99467 0.02414 0.0
C1178 C 0.51689 0.98734 0.01854 0.0
C1179 C 0.51629 0.97208 0.00808 0.0
C1180 C 0.5032 0.98965 0.01732 0.0
C1181 C 0.48846 0.97669 0.00643 0.0
C1182 C 0.48776 0.96123 0.99787 0.0
C1183 C 0.50155 0.95898 0.99829 0.0
H1184 H 0.0325 0.55979 0.06352 0.0
H1185 H 0.04971 0.54859 0.93291 0.0
H1186 H 0.01439 0.53127 0.07357 0.0
H1187 H 0.03112 0.51997 0.94204 0.0
H1188 H 0.003 0.46739 0.99142 0.0
H1189 H 0.02338 0.49527 0.98545 0.0
H1190 H 0.99034 0.51248 0.03864 0.0
H1191 H 0.97013 0.4846 0.04614 0.0
C1192 C 0.0325 0.55118 0.03709 0.0
C1193 C 0.04249 0.55647 0.99727 0.0
C1194 C 0.02198 0.53482 0.0426 0.0
C1195 C 0.02101 0.52331 0.00813 0.0
C1196 C 0.03157 0.52846 0.96943 0.0
C1197 C 0.04226 0.54488 0.96417 0.0
C1198 C 1.00006 0.47712 0.00185 0.0
C1199 C 0.98489 0.4737 0.01946 0.0
C1200 C 0.01176 0.49314 0.99822 0.0
C1201 C 0.00859 0.50618 0.01183 0.0
C1202 C 0.99335 0.50276 0.02881 0.0
C1203 C 0.98169 0.48674 0.03278 0.0
H1204 H 0.45047 0.479 0.01896 0.0
H1205 H 0.44372 0.51947 0.96338 0.0
H1206 H 0.47917 0.49559 0.01764 0.0
H1207 H 0.47218 0.53599 0.96307 0.0
H1208 H 0.52163 0.55561 0.91123 0.0
H1209 H 0.49379 0.53659 0.91567 0.0
H1210 H 0.5018 0.51972 0.05171 0.0
H1211 H 0.53007 0.53873 0.04655 0.0
C1212 C 0.45506 0.49148 0.00708 0.0
C1213 C 0.44474 0.49782 0.99071 0.0
C1214 C 0.47153 0.50098 0.00642 0.0
C1215 C 0.47801 0.51702 0.98937 0.0
C1216 C 0.46763 0.52354 0.97517 0.0
C1217 C 0.45125 0.51408 0.97569 0.0
C1218 C 0.51752 0.54767 0.94181 0.0
C1219 C 0.52799 0.54877 0.97878 0.0
C1220 C 0.50152 0.53686 0.94458 0.0
C1221 C 0.49545 0.52694 0.98467 0.0
C1222 C 0.50609 0.52725 0.02042 0.0
C1223 C 0.52227 0.53807 0.01744 0.0
H1224 H 0.44178 0.0603 0.08017 0.0
H1225 H 0.41491 0.06064 0.95616 0.0
H1226 H 0.43595 0.08135 0.11652 0.0
H1227 H 0.40896 0.08135 0.99216 0.0
H1228 H 0.39219 0.11198 0.06595 0.0
H1229 H 0.41362 0.10708 0.03117 0.0
H1230 H 0.40899 0.07378 0.14533 0.0
H1231 H 0.3879 0.07873 0.17962 0.0
C1232 C 0.43522 0.06537 0.0599 0.0
C1233 C 0.42841 0.05862 0.01604 0.0
C1234 C 0.43184 0.07737 0.0807 0.0
C1235 C 0.42168 0.08273 0.05768 0.0
C1236 C 0.41681 0.07754 0.01095 0.0
C1237 C 0.42008 0.06551 0.99043 0.0
C1238 C 0.39616 0.10403 0.08419 0.0
C1239 C 0.38819 0.0954 0.12468 0.0
C1240 C 0.40841 0.10125 0.06441 0.0
C1241 C 0.41291 0.08993 0.08522 0.0
C1242 C 0.40598 0.08269 0.12852 0.0
C1243 C 0.39369 0.08533 0.14786 0.0
H1244 H 0.905 0.33067 0.19684 0.0
H1245 H 0.86678 0.30765 0.09656 0.0
H1246 H 0.91185 0.35689 0.15969 0.0
H1247 H 0.87408 0.33398 0.05796 0.0
H1248 H 0.92155 0.40317 0.08935 0.0
H1249 H 0.90243 0.37921 0.13181 0.0
H1250 H 0.90192 0.34879 0.014 0.0
H1251 H 0.92151 0.37244 0.97304 0.0
C1252 C 0.89783 0.33131 0.1675 0.0
C1253 C 0.88556 0.31714 0.14896 0.0
C1254 C 0.90164 0.34634 0.14655 0.0
C1255 C 0.89349 0.34743 0.10597 0.0
C1256 C 0.88048 0.33343 0.08939 0.0
C1257 C 0.87637 0.31839 0.11127 0.0
C1258 C 0.91703 0.39143 0.07213 0.0
C1259 C 0.92332 0.38952 0.02865 0.0
C1260 C 0.90604 0.37776 0.09627 0.0
C1261 C 0.90082 0.36218 0.07623 0.0
C1262 C 0.90565 0.36065 0.03013 0.0
C1263 C 0.91694 0.37418 0.00681 0.0
H1264 H 0.67883 0.58564 0.18414 0.0
H1265 H 0.70046 0.59571 0.04557 0.0
H1266 H 0.65297 0.57062 0.14838 0.0
H1267 H 0.67448 0.5801 0.00916 0.0
H1268 H 0.60613 0.55076 0.07829 0.0
H1269 H 0.63159 0.55142 0.10178 0.0
H1270 H 0.65569 0.59085 0.0034 0.0
H1271 H 0.63064 0.58992 0.9798 0.0
C1272 C 0.67812 0.58382 0.146 0.0
C1273 C 0.69157 0.59204 0.11753 0.0
C1274 C 0.66323 0.57517 0.12535 0.0
C1275 C 0.66151 0.57459 0.07572 0.0
C1276 C 0.67533 0.58071 0.04753 0.0
C1277 C 0.69029 0.58944 0.06833 0.0
C1278 C 0.61689 0.5593 0.06117 0.0
C1279 C 0.61642 0.5705 0.02795 0.0
C1280 C 0.63147 0.5597 0.07455 0.0
C1281 C 0.64578 0.57122 0.05463 0.0
C1282 C 0.64502 0.58161 0.01911 0.0
C1283 C 0.63059 0.58126 0.00606 0.0
H1284 H 0.05944 0.42159 0.5264 0.0
H1285 H 0.05868 0.45054 0.40652 0.0
H1286 H 0.07892 0.41524 0.48678 0.0
H1287 H 0.07844 0.44422 0.36637 0.0
H1288 H 0.10913 0.39955 0.40995 0.0
H1289 H 0.1042 0.4211 0.44699 0.0
H1290 H 0.0713 0.41681 0.33438 0.0
H1291 H 0.07629 0.39557 0.2977 0.0
C1292 C 0.0639 0.42706 0.49215 0.0
C1293 C 0.05735 0.43623 0.46895 0.0
C1294 C 0.07522 0.42357 0.46958 0.0
C1295 C 0.08005 0.42903 0.42308 0.0
C1296 C 0.07479 0.43972 0.40203 0.0
C1297 C 0.06353 0.44337 0.42498 0.0
C1298 C 0.1013 0.40367 0.39239 0.0
C1299 C 0.09279 0.39569 0.3517 0.0
C1300 C 0.09847 0.41597 0.41354 0.0
C1301 C 0.0872 0.4205 0.39396 0.0
C1302 C 0.08012 0.41372 0.3503 0.0
C1303 C 0.08282 0.40138 0.32953 0.0
H1304 H 0.57736 0.73047 0.42705 0.0
H1305 H 0.57711 0.70044 0.30853 0.0
H1306 H 0.55889 0.70617 0.46957 0.0
H1307 H 0.55822 0.67646 0.34964 0.0
H1308 H 0.52593 0.63429 0.43188 0.0
H1309 H 0.53158 0.66042 0.3945 0.0
H1310 H 0.56902 0.68486 0.49626 0.0
H1311 H 0.56367 0.65889 0.53262 0.0
C1312 C 0.57291 0.7188 0.40942 0.0
C1313 C 0.57904 0.71718 0.36534 0.0
C1314 C 0.56229 0.70494 0.43359 0.0
C1315 C 0.55729 0.68945 0.41304 0.0
C1316 C 0.56181 0.68823 0.36629 0.0
C1317 C 0.57271 0.70195 0.34286 0.0
C1318 C 0.53507 0.64531 0.44692 0.0
C1319 C 0.54462 0.6446 0.48439 0.0
C1320 C 0.53824 0.66023 0.42573 0.0
C1321 C 0.55071 0.67463 0.44257 0.0
C1322 C 0.5592 0.674 0.48292 0.0
C1323 C 0.55627 0.6591 0.50336 0.0
H1324 H 0.26967 0.88672 0.41595 0.0
H1325 H 0.29326 0.91909 0.30005 0.0
H1326 H 0.29536 0.88914 0.44419 0.0
H1327 H 0.31862 0.92172 0.32805 0.0
H1328 H 0.36412 0.92833 0.38052 0.0
H1329 H 0.33781 0.91187 0.34652 0.0
H1330 H 0.31651 0.91194 0.48248 0.0
H1331 H 0.34258 0.92796 0.51596 0.0
C1332 C 0.28026 0.89398 0.39587 0.0
C1333 C 0.27952 0.90294 0.35635 0.0
C1334 C 0.29498 0.89544 0.41206 0.0
C1335 C 0.30914 0.90576 0.38868 0.0
C1336 C 0.30807 0.91353 0.34682 0.0
C1337 C 0.29348 0.91218 0.33102 0.0
C1338 C 0.35383 0.92415 0.40344 0.0
C1339 C 0.35532 0.92953 0.45064 0.0
C1340 C 0.33874 0.91488 0.38396 0.0
C1341 C 0.32497 0.91084 0.41149 0.0
C1342 C 0.32674 0.9147 0.46011 0.0
C1343 C 0.34173 0.92399 0.47934 0.0
H1344 H 0.57287 0.94143 0.99173 0.0
H1345 H 0.6096 0.98979 0.96639 0.0
H1346 H 0.58739 0.93013 0.94462 0.0
H1347 H 0.62364 0.97875 0.9166 0.0
H1348 H 0.65276 0.95258 0.86883 0.0
H1349 H 0.63888 0.96464 0.91581 0.0
H1350 H 0.59399 0.92693 0.86755 0.0
H1351 H 0.60801 0.91438 0.82355 0.0
C1352 C 0.58404 0.94961 0.97583 0.0
C1353 C 0.59021 0.96641 0.98292 0.0
C1354 C 0.5923 0.9432 0.94834 0.0
C1355 C 0.60668 0.95352 0.9263 0.0
C1356 C 0.61279 0.97038 0.9336 0.0
C1357 C 0.60472 0.97674 0.96205 0.0
C1358 C 0.63993 0.94708 0.86789 0.0
C1359 C 0.63138 0.93264 0.84269 0.0
C1360 C 0.63194 0.95396 0.89475 0.0
C1361 C 0.61526 0.9467 0.89597 0.0
C1362 C 0.60681 0.93263 0.86869 0.0
C1363 C 0.6148 0.92554 0.84292 0.0
H1364 H 0.12169 0.73141 0.8956 0.0
H1365 H 0.08228 0.70313 0.80381 0.0
H1366 H 0.12007 0.70629 0.93109 0.0
H1367 H 0.08093 0.67816 0.83832 0.0
H1368 H 0.08462 0.63479 0.89481 0.0
H1369 H 0.0968 0.66083 0.85266 0.0
H1370 H 0.09613 0.68588 0.98194 0.0
H1371 H 0.08346 0.65994 0.02322 0.0
C1372 C 0.11293 0.71985 0.88231 0.0
C1373 C 0.10197 0.71919 0.84742 0.0
C1374 C 0.11205 0.70551 0.90248 0.0
C1375 C 0.10046 0.69031 0.88717 0.0
C1376 C 0.09014 0.68969 0.85028 0.0
C1377 C 0.0908 0.70399 0.83091 0.0
C1378 C 0.08762 0.64591 0.91448 0.0
C1379 C 0.08303 0.64543 0.96206 0.0
C1380 C 0.09452 0.66078 0.89038 0.0
C1381 C 0.09729 0.67532 0.91404 0.0
C1382 C 0.09425 0.67489 0.96293 0.0
C1383 C 0.087 0.66006 0.98655 0.0
H1384 H 0.36651 0.47046 0.93538 0.0
H1385 H 0.34668 0.42694 0.02064 0.0
H1386 H 0.33972 0.46531 0.90959 0.0
H1387 H 0.32011 0.42203 0.99586 0.0
H1388 H 0.29332 0.42629 0.82446 0.0
H1389 H 0.31978 0.44142 0.8579 0.0
H1390 H 0.29972 0.43399 0.99871 0.0
H1391 H 0.27317 0.41918 0.96485 0.0
C1392 C 0.35643 0.45997 0.94917 0.0
C1393 C 0.35866 0.449 0.97961 0.0
C1394 C 0.34114 0.45706 0.93454 0.0
C1395 C 0.32783 0.44337 0.95111 0.0
C1396 C 0.3301 0.43283 0.98313 0.0
C1397 C 0.34533 0.43554 0.99687 0.0
C1398 C 0.29452 0.42865 0.86233 0.0
C1399 C 0.28123 0.42166 0.89208 0.0
C1400 C 0.30966 0.43727 0.88151 0.0
C1401 C 0.31181 0.4387 0.93093 0.0
C1402 C 0.29837 0.43297 0.96046 0.0
C1403 C 0.28316 0.42462 0.94109 0.0
H1404 H 0.89736 0.60592 0.6695 0.0
H1405 H 0.93249 0.6545 0.63765 0.0
H1406 H 0.91282 0.59475 0.62623 0.0
H1407 H 0.94741 0.64355 0.59156 0.0
H1408 H 0.97874 0.6201 0.54947 0.0
H1409 H 0.9637 0.63083 0.59596 0.0
H1410 H 0.92009 0.59042 0.55093 0.0
H1411 H 0.93539 0.57918 0.50728 0.0
C1412 C 0.90838 0.61416 0.65299 0.0
C1413 C 0.91387 0.63101 0.65721 0.0
C1414 C 0.91717 0.60782 0.62775 0.0
C1415 C 0.9314 0.61823 0.60516 0.0
C1416 C 0.93675 0.63513 0.60932 0.0
C1417 C 0.92817 0.64144 0.63558 0.0
C1418 C 0.96593 0.6136 0.54943 0.0
C1419 C 0.95816 0.59889 0.52479 0.0
C1420 C 0.95727 0.61977 0.5759 0.0
C1421 C 0.94062 0.61155 0.57725 0.0
C1422 C 0.93288 0.59693 0.55166 0.0
C1423 C 0.9416 0.59056 0.52619 0.0
H1424 H 0.4609 0.39418 0.56135 0.0
H1425 H 0.41908 0.36505 0.47941 0.0
H1426 H 0.46062 0.36937 0.59506 0.0
H1427 H 0.41904 0.3404 0.51205 0.0
H1428 H 0.42354 0.29756 0.56406 0.0
H1429 H 0.43558 0.32334 0.52084 0.0
H1430 H 0.43809 0.34928 0.65106 0.0
H1431 H 0.42539 0.32359 0.69339 0.0
C1432 C 0.45188 0.38249 0.54979 0.0
C1433 C 0.43988 0.38149 0.51833 0.0
C1434 C 0.45178 0.36834 0.56886 0.0
C1435 C 0.43991 0.353 0.55576 0.0
C1436 C 0.42849 0.35205 0.52212 0.0
C1437 C 0.42839 0.36615 0.50394 0.0
C1438 C 0.42717 0.30877 0.58363 0.0
C1439 C 0.42324 0.30863 0.63173 0.0
C1440 C 0.43406 0.32352 0.55894 0.0
C1441 C 0.43754 0.33824 0.58259 0.0
C1442 C 0.43558 0.33813 0.63198 0.0
C1443 C 0.42831 0.32343 0.65622 0.0
H1444 H 0.62763 0.08741 0.47995 0.0
H1445 H 0.60345 0.09075 0.60667 0.0
H1446 H 0.65311 0.10431 0.51692 0.0
H1447 H 0.62915 0.10708 0.6448 0.0
H1448 H 0.69728 0.14043 0.5945 0.0
H1449 H 0.67096 0.13307 0.55993 0.0
H1450 H 0.6501 0.09469 0.66301 0.0
H1451 H 0.67629 0.10161 0.69627 0.0
C1452 C 0.62777 0.09216 0.51532 0.0
C1453 C 0.61359 0.08766 0.54063 0.0
C1454 C 0.64236 0.10186 0.53642 0.0
C1455 C 0.64309 0.1069 0.58378 0.0
C1456 C 0.62887 0.10332 0.60819 0.0
C1457 C 0.61418 0.09399 0.58641 0.0
C1458 C 0.68702 0.13063 0.6102 0.0
C1459 C 0.68881 0.12148 0.64771 0.0
C1460 C 0.672 0.12645 0.59053 0.0
C1461 C 0.65851 0.1134 0.6091 0.0
C1462 C 0.66025 0.10494 0.64846 0.0
C1463 C 0.67525 0.10881 0.66718 0.0
H1464 H 0.70821 0.7373 0.8591 0.0
H1465 H 0.71256 0.77132 0.74763 0.0
H1466 H 0.72935 0.73263 0.82391 0.0
H1467 H 0.73403 0.7667 0.71202 0.0
H1468 H 0.76252 0.72001 0.75698 0.0
H1469 H 0.75646 0.74066 0.79491 0.0
H1470 H 0.72927 0.74111 0.67153 0.0
H1471 H 0.73543 0.72077 0.63395 0.0
C1472 C 0.71402 0.74412 0.82766 0.0
C1473 C 0.70853 0.75434 0.80531 0.0
C1474 C 0.72633 0.74164 0.80782 0.0
C1475 C 0.73329 0.7492 0.7649 0.0
C1476 C 0.72879 0.76063 0.74497 0.0
C1477 C 0.71652 0.76325 0.76523 0.0
C1478 C 0.75585 0.72509 0.7373 0.0
C1479 C 0.74906 0.71856 0.69322 0.0
C1480 C 0.75235 0.73686 0.75899 0.0
C1481 C 0.7421 0.74223 0.73664 0.0
C1482 C 0.7372 0.73727 0.68978 0.0
C1483 C 0.74059 0.72546 0.66837 0.0
H1484 H 0.19585 0.97316 0.75249 0.0
H1485 H 0.23153 0.99658 0.85988 0.0
H1486 H 0.20484 0.99912 0.71031 0.0
H1487 H 0.24 0.02246 0.81912 0.0
H1488 H 0.25442 0.03546 0.63162 0.0
H1489 H 0.23375 0.0126 0.67261 0.0
H1490 H 0.23254 0.04495 0.78243 0.0
H1491 H 0.2529 0.06809 0.7401 0.0
C1492 C 0.20521 0.98393 0.76791 0.0
C1493 C 0.21328 0.98286 0.80871 0.0
C1494 C 0.21028 0.99877 0.74394 0.0
C1495 C 0.22312 0.01274 0.76148 0.0
C1496 C 0.22998 0.01192 0.80506 0.0
C1497 C 0.22522 0.99708 0.82816 0.0
C1498 C 0.24935 0.03778 0.66366 0.0
C1499 C 0.25549 0.05344 0.68334 0.0
C1500 C 0.23742 0.02471 0.68689 0.0
C1501 C 0.23164 0.02703 0.73077 0.0
C1502 C 0.23683 0.0429 0.74856 0.0
C1503 C 0.24852 0.05609 0.72451 0.0
H1504 H 0.03183 0.25899 0.72231 0.0
H1505 H 0.01046 0.2637 0.85333 0.0
H1506 H 0.00542 0.24165 0.69017 0.0
H1507 H 0.98433 0.24674 0.82169 0.0
H1508 H 0.96078 0.24786 0.63591 0.0
H1509 H 0.9862 0.25111 0.66558 0.0
H1510 H 0.96322 0.22232 0.78876 0.0
H1511 H 0.93749 0.21922 0.75867 0.0
C1512 C 0.02155 0.25579 0.74483 0.0
C1513 C 0.02311 0.2628 0.79 0.0
C1514 C 0.00642 0.24598 0.72639 0.0
C1515 C 0.99269 0.243 0.75304 0.0
C1516 C 0.99453 0.24863 0.80013 0.0
C1517 C 0.00955 0.25848 0.81823 0.0
C1518 C 0.96108 0.24185 0.66876 0.0
C1519 C 0.94721 0.23353 0.69542 0.0
C1520 C 0.97569 0.24356 0.68559 0.0
C1521 C 0.97685 0.23712 0.72986 0.0
C1522 C 0.96275 0.22758 0.75472 0.0
C1523 C 0.94802 0.22573 0.73748 0.0
H1524 H 0.31263 0.29008 0.18214 0.0
H1525 H 0.27746 0.24106 0.21016 0.0
H1526 H 0.29757 0.30062 0.22998 0.0
H1527 H 0.2628 0.25152 0.25939 0.0
H1528 H 0.27751 0.3132 0.36108 0.0
H1529 H 0.29161 0.30179 0.31273 0.0
H1530 H 0.24702 0.26609 0.25648 0.0
H1531 H 0.23291 0.27712 0.3063 0.0
C1532 C 0.30167 0.28158 0.19839 0.0
C1533 C 0.29625 0.26477 0.19269 0.0
C1534 C 0.29313 0.28759 0.22616 0.0
C1535 C 0.27909 0.27688 0.24891 0.0
C1536 C 0.27349 0.26008 0.24205 0.0
C1537 C 0.28195 0.25409 0.21402 0.0
C1538 C 0.27072 0.30279 0.33881 0.0
C1539 C 0.25413 0.2961 0.33717 0.0
C1540 C 0.2788 0.29637 0.31073 0.0
C1541 C 0.27044 0.2832 0.28024 0.0
C1542 C 0.2538 0.27619 0.27979 0.0
C1543 C 0.24571 0.28253 0.30824 0.0
H1544 H 0.75659 0.97318 0.24775 0.0
H1545 H 0.73574 0.9868 0.36621 0.0
H1546 H 0.76737 0.00113 0.21784 0.0
H1547 H 0.74642 0.0145 0.33626 0.0
H1548 H 0.73858 0.04476 0.21483 0.0
H1549 H 0.73534 0.02007 0.25508 0.0
H1550 H 0.78529 0.03379 0.23951 0.0
H1551 H 0.78869 0.05903 0.19947 0.0
C1552 C 0.75478 0.98223 0.26823 0.0
C1553 C 0.74509 0.97777 0.30881 0.0
C1554 C 0.76095 0.9982 0.25114 0.0
C1555 C 0.75747 0.00981 0.27447 0.0
C1556 C 0.74909 0.00568 0.31742 0.0
C1557 C 0.74298 0.98983 0.33447 0.0
C1558 C 0.74891 0.0426 0.21998 0.0
C1559 C 0.76388 0.05379 0.20397 0.0
C1560 C 0.74707 0.02851 0.24332 0.0
C1561 C 0.7601 0.02515 0.2507 0.0
C1562 C 0.7751 0.0362 0.23431 0.0
C1563 C 0.77702 0.05057 0.21157 0.0
H1564 H 0.02952 0.80413 0.25108 0.0
H1565 H 0.00963 0.76604 0.35556 0.0
H1566 H 0.00278 0.79701 0.22032 0.0
H1567 H 0.98305 0.75934 0.32598 0.0
H1568 H 0.93588 0.75582 0.27739 0.0
H1569 H 0.96228 0.77179 0.31188 0.0
H1570 H 0.98376 0.76869 0.17922 0.0
H1571 H 0.95756 0.75225 0.14572 0.0
C1572 C 0.01943 0.79452 0.26812 0.0
C1573 C 0.02163 0.78552 0.30535 0.0
C1574 C 0.00417 0.79048 0.25062 0.0
C1575 C 0.99086 0.77771 0.27105 0.0
C1576 C 0.99306 0.76938 0.31001 0.0
C1577 C 0.00828 0.77312 0.32662 0.0
C1578 C 0.94623 0.75898 0.25531 0.0
C1579 C 0.94474 0.75274 0.20906 0.0
C1580 C 0.96131 0.76806 0.27502 0.0
C1581 C 0.97504 0.77142 0.24818 0.0
C1582 C 0.97341 0.76641 0.20057 0.0
C1583 C 0.95842 0.75699 0.18144 0.0
H1584 H 0.34619 0.07869 0.01787 0.0
H1585 H 0.29619 0.06004 0.04793 0.0
H1586 H 0.34039 0.0756 0.93297 0.0
H1587 H 0.29047 0.05773 0.96393 0.0
H1588 H 0.28 0.05084 0.81339 0.0
H1589 H 0.28859 0.04582 0.89081 0.0
H1590 H 0.33308 0.08872 0.87365 0.0
H1591 H 0.32474 0.09287 0.79483 0.0
C1592 C 0.33395 0.07378 0.00643 0.0
C1593 C 0.32168 0.06972 0.03986 0.0
C1594 C 0.33062 0.07211 0.95764 0.0
C1595 C 0.31495 0.06653 0.94106 0.0
C1596 C 0.30267 0.06178 0.97479 0.0
C1597 C 0.30597 0.06323 0.02338 0.0
C1598 C 0.29185 0.05877 0.82564 0.0
C1599 C 0.30176 0.07218 0.79836 0.0
C1600 C 0.29672 0.05608 0.87033 0.0
C1601 C 0.31139 0.06711 0.88947 0.0
C1602 C 0.32176 0.07987 0.86034 0.0
C1603 C 0.31701 0.08229 0.81503 0.0
H1604 H 0.90435 0.26506 0.0475 0.0
H1605 H 0.88644 0.29693 0.98638 0.0
H1606 H 0.91492 0.26274 0.96969 0.0
H1607 H 0.89623 0.29415 0.90947 0.0
H1608 H 0.91805 0.29271 0.77441 0.0
H1609 H 0.9171 0.29938 0.85769 0.0
H1610 H 0.90456 0.24954 0.89595 0.0
H1611 H 0.9064 0.24316 0.81281 0.0
C1612 C 0.90291 0.27178 0.01777 0.0
C1613 C 0.89439 0.28102 0.02308 0.0
C1614 C 0.90882 0.27033 0.97303 0.0
C1615 C 0.90636 0.27815 0.93288 0.0
C1616 C 0.89862 0.2881 0.93925 0.0
C1617 C 0.89281 0.28956 0.98358 0.0
C1618 C 0.91538 0.28326 0.80075 0.0
C1619 C 0.91207 0.26736 0.78692 0.0
C1620 C 0.91474 0.28705 0.84857 0.0
C1621 C 0.91037 0.27493 0.88377 0.0
C1622 C 0.90805 0.25925 0.87015 0.0
C1623 C 0.90901 0.25554 0.82231 0.0
H1624 H 0.69625 0.62927 0.03046 0.0
H1625 H 0.72915 0.68012 0.0292 0.0
H1626 H 0.69338 0.62971 0.94463 0.0
H1627 H 0.72732 0.68044 0.94317 0.0
H1628 H 0.72004 0.68007 0.78778 0.0
H1629 H 0.71497 0.67966 0.87267 0.0
H1630 H 0.7072 0.62948 0.87828 0.0
H1631 H 0.71113 0.62973 0.79305 0.0
C1632 C 0.70276 0.6406 0.01168 0.0
C1633 C 0.71294 0.65466 0.03637 0.0
C1634 C 0.70129 0.64083 0.96232 0.0
C1635 C 0.71035 0.65502 0.93623 0.0
C1636 C 0.71994 0.66929 0.96154 0.0
C1637 C 0.72107 0.66915 0.01107 0.0
C1638 C 0.71691 0.66888 0.80721 0.0
C1639 C 0.71602 0.65494 0.78388 0.0
C1640 C 0.71416 0.66866 0.85606 0.0
C1641 C 0.71089 0.65462 0.88311 0.0
C1642 C 0.7094 0.64049 0.85908 0.0
C1643 C 0.71175 0.64061 0.81002 0.0
H1644 H 0.04277 0.3011 0.68554 0.0
H1645 H 0.07872 0.35077 0.69209 0.0
H1646 H 0.04145 0.30315 0.5996 0.0
H1647 H 0.07813 0.35262 0.60613 0.0
H1648 H 0.05979 0.30528 0.44747 0.0
H1649 H 0.05616 0.30351 0.53305 0.0
H1650 H 0.06517 0.35404 0.53741 0.0
H1651 H 0.0697 0.35596 0.45204 0.0
C1652 C 0.05037 0.31248 0.66853 0.0
C1653 C 0.06089 0.32577 0.69551 0.0
C1654 C 0.04972 0.31363 0.61918 0.0
C1655 C 0.0598 0.32799 0.5955 0.0
C1656 C 0.06997 0.34143 0.62286 0.0
C1657 C 0.0704 0.34037 0.67229 0.0
C1658 C 0.06077 0.31594 0.46668 0.0
C1659 C 0.06515 0.33078 0.44314 0.0
C1660 C 0.05862 0.31493 0.51588 0.0
C1661 C 0.06049 0.32867 0.54258 0.0
C1662 C 0.06403 0.3433 0.51841 0.0
C1663 C 0.0665 0.34438 0.46936 0.0
H1664 H 0.61678 0.71966 0.72742 0.0
H1665 H 0.66681 0.7369 0.70028 0.0
H1666 H 0.61169 0.7182 0.64296 0.0
H1667 H 0.66164 0.73472 0.61507 0.0
H1668 H 0.64797 0.75501 0.47899 0.0
H1669 H 0.65539 0.74934 0.5574 0.0
H1670 H 0.61014 0.70701 0.5684 0.0
H1671 H 0.60252 0.71348 0.49136 0.0
C1672 C 0.62667 0.72268 0.70341 0.0
C1673 C 0.64223 0.72859 0.72084 0.0
C1674 C 0.62374 0.72175 0.65459 0.0
C1675 C 0.63626 0.72646 0.62165 0.0
C1676 C 0.65172 0.73132 0.63915 0.0
C1677 C 0.65468 0.73246 0.68812 0.0
C1678 C 0.63989 0.74421 0.49767 0.0
C1679 C 0.62471 0.73468 0.47943 0.0
C1680 C 0.64409 0.74091 0.54274 0.0
C1681 C 0.63324 0.72788 0.57007 0.0
C1682 C 0.61863 0.71745 0.54929 0.0
C1683 C 0.61433 0.72097 0.50482 0.0
H1684 H 0.2167 0.96404 0.65119 0.0
H1685 H 0.23297 0.93075 0.7115 0.0
H1686 H 0.2271 0.96178 0.57481 0.0
H1687 H 0.24422 0.92896 0.63429 0.0
H1688 H 0.23695 0.9108 0.47602 0.0
H1689 H 0.23461 0.91662 0.55937 0.0
H1690 H 0.24799 0.96686 0.52395 0.0
H1691 H 0.24936 0.96073 0.44041 0.0
C1692 C 0.22287 0.95649 0.64835 0.0
C1693 C 0.22378 0.94739 0.68738 0.0
C1694 C 0.22904 0.95532 0.60433 0.0
C1695 C 0.23649 0.9451 0.5978 0.0
C1696 C 0.23834 0.93675 0.63768 0.0
C1697 C 0.23206 0.93791 0.68211 0.0
C1698 C 0.23964 0.92315 0.48622 0.0
C1699 C 0.24305 0.93525 0.45151 0.0
C1700 C 0.23839 0.92653 0.5342 0.0
C1701 C 0.2408 0.94217 0.54868 0.0
C1702 C 0.24554 0.95455 0.51419 0.0
C1703 C 0.24643 0.95108 0.46621 0.0
H1704 H 0.6828 0.93127 0.20926 0.0
H1705 H 0.72646 0.93686 0.14414 0.0
H1706 H 0.67123 0.92994 0.13151 0.0
H1707 H 0.71531 0.93664 0.06577 0.0
H1708 H 0.68289 0.91263 0.9375 0.0
H1709 H 0.69767 0.91905 0.01171 0.0
H1710 H 0.66945 0.9425 0.06303 0.0
H1711 H 0.654 0.93492 0.98993 0.0
C1712 C 0.69005 0.93259 0.17816 0.0
C1713 C 0.70547 0.93403 0.18271 0.0
C1714 C 0.68346 0.93198 0.13334 0.0
C1715 C 0.69227 0.93318 0.09183 0.0
C1716 C 0.70799 0.93531 0.09666 0.0
C1717 C 0.71445 0.93555 0.14159 0.0
C1718 C 0.68006 0.91938 0.96447 0.0
C1719 C 0.66723 0.92313 0.95837 0.0
C1720 C 0.68858 0.92315 0.00709 0.0
C1721 C 0.68466 0.93111 0.04411 0.0
C1722 C 0.67251 0.93589 0.03621 0.0
C1723 C 0.66374 0.93172 0.99413 0.0
H1724 H 0.0794 0.77148 0.21327 0.0
H1725 H 0.04203 0.77825 0.14237 0.0
H1726 H 0.0851 0.76095 0.13997 0.0
H1727 H 0.04711 0.76699 0.06956 0.0
H1728 H 0.09065 0.73752 0.00802 0.0
H1729 H 0.07879 0.74125 0.08109 0.0
H1730 H 0.06586 0.77535 0.00908 0.0
H1731 H 0.07704 0.77092 0.93558 0.0
C1732 C 0.07207 0.77023 0.18239 0.0
C1733 C 0.06037 0.77584 0.18354 0.0
C1734 C 0.07529 0.76414 0.14015 0.0
C1735 C 0.06672 0.76327 0.09818 0.0
C1736 C 0.05428 0.76786 0.10052 0.0
C1737 C 0.05125 0.77419 0.14248 0.0
C1738 C 0.08494 0.74554 0.00763 0.0
C1739 C 0.08485 0.75399 0.96606 0.0
C1740 C 0.07827 0.74782 0.04973 0.0
C1741 C 0.07158 0.75886 0.05168 0.0
C1742 C 0.07072 0.76661 0.00924 0.0
C1743 C 0.07716 0.76411 0.96687 0.0
H1744 H 0.25293 0.35475 0.2588 0.0
H1745 H 0.23619 0.31077 0.17491 0.0
H1746 H 0.25906 0.37073 0.18589 0.0
H1747 H 0.24143 0.32651 0.1029 0.0
H1748 H 0.25569 0.35827 0.97375 0.0
H1749 H 0.258 0.34481 0.04642 0.0
H1750 H 0.24375 0.3759 0.12931 0.0
H1751 H 0.24214 0.38957 0.05808 0.0
C1752 C 0.25068 0.34849 0.22496 0.0
C1753 C 0.24377 0.33145 0.22298 0.0
C1754 C 0.25407 0.35763 0.18304 0.0
C1755 C 0.25044 0.34993 0.13821 0.0
C1756 C 0.24452 0.33296 0.13642 0.0
C1757 C 0.24133 0.32387 0.17812 0.0
C1758 C 0.2532 0.36227 0.0076 0.0
C1759 C 0.24865 0.37495 0.00983 0.0
C1760 C 0.25449 0.35455 0.04933 0.0
C1761 C 0.25109 0.35924 0.09408 0.0
C1762 C 0.24685 0.37213 0.096 0.0
C1763 C 0.24574 0.3799 0.05468 0.0
H1764 H 0.89652 0.68331 0.57413 0.0
H1765 H 0.90333 0.64495 0.50362 0.0
H1766 H 0.9027 0.69873 0.50024 0.0
H1767 H 0.90991 0.6605 0.43028 0.0
H1768 H 0.89802 0.68259 0.29636 0.0
H1769 H 0.89634 0.66793 0.37016 0.0
H1770 H 0.92258 0.71354 0.44315 0.0
H1771 H 0.92385 0.7281 0.36994 0.0
C1772 C 0.89964 0.67831 0.54316 0.0
C1773 C 0.89925 0.66283 0.54471 0.0
C1774 C 0.90324 0.68716 0.50072 0.0
C1775 C 0.90667 0.68079 0.45901 0.0
C1776 C 0.90699 0.66563 0.46131 0.0
C1777 C 0.90329 0.65676 0.50353 0.0
C1778 C 0.90367 0.68944 0.32798 0.0
C1779 C 0.91089 0.70649 0.32742 0.0
C1780 C 0.90273 0.68106 0.37037 0.0
C1781 C 0.90913 0.68957 0.41292 0.0
C1782 C 0.91717 0.7066 0.41146 0.0
C1783 C 0.91799 0.71494 0.36934 0.0
H1784 H 0.35326 0.25993 0.55203 0.0
H1785 H 0.39715 0.28873 0.47937 0.0
H1786 H 0.33872 0.25718 0.47814 0.0
H1787 H 0.38267 0.28664 0.40595 0.0
H1788 H 0.31464 0.25946 0.34338 0.0
H1789 H 0.32967 0.26846 0.41683 0.0
H1790 H 0.36992 0.26627 0.34878 0.0
H1791 H 0.35503 0.2579 0.2748 0.0
C1792 C 0.35973 0.2661 0.52058 0.0
C1793 C 0.37632 0.27438 0.52128 0.0
C1794 C 0.35142 0.26455 0.47809 0.0
C1795 C 0.35953 0.27146 0.43562 0.0
C1796 C 0.37605 0.28076 0.43746 0.0
C1797 C 0.38435 0.28209 0.47967 0.0
C1798 C 0.32678 0.26109 0.34398 0.0
C1799 C 0.33361 0.25781 0.30337 0.0
C1800 C 0.33537 0.26617 0.38625 0.0
C1801 C 0.35098 0.26793 0.38919 0.0
C1802 C 0.35801 0.26527 0.3479 0.0
C1803 C 0.34946 0.26038 0.30539 0.0
H1804 H 0.73802 0.10018 0.56317 0.0
H1805 H 0.72282 0.12986 0.47752 0.0
H1806 H 0.74438 0.08948 0.49089 0.0
H1807 H 0.72981 0.11989 0.40622 0.0
H1808 H 0.73799 0.09566 0.27831 0.0
H1809 H 0.72572 0.09937 0.35096 0.0
H1810 H 0.76437 0.09897 0.43338 0.0
H1811 H 0.77612 0.0946 0.36181 0.0
C1812 C 0.7359 0.10433 0.52908 0.0
C1813 C 0.73009 0.11606 0.52648 0.0
C1814 C 0.73967 0.0983 0.48752 0.0
C1815 C 0.73785 0.10396 0.44238 0.0
C1816 C 0.73126 0.11505 0.43996 0.0
C1817 C 0.72737 0.12093 0.48126 0.0
C1818 C 0.74375 0.09619 0.31203 0.0
C1819 C 0.75811 0.09494 0.31392 0.0
C1820 C 0.73676 0.09839 0.35379 0.0
C1821 C 0.74405 0.09957 0.3984 0.0
C1822 C 0.75818 0.09784 0.40014 0.0
C1823 C 0.76504 0.09549 0.35867 0.0
H1824 H 0.94467 0.40023 0.18372 0.0
H1825 H 0.99182 0.41778 0.12573 0.0
H1826 H 0.95404 0.39577 0.25957 0.0
H1827 H 0.00131 0.41269 0.20226 0.0
H1828 H 0.01366 0.42851 0.36136 0.0
H1829 H 0.00651 0.42556 0.27787 0.0
H1830 H 0.9639 0.38211 0.30958 0.0
H1831 H 0.97071 0.38556 0.39369 0.0
C1832 C 0.95704 0.4028 0.18694 0.0
C1833 C 0.96756 0.40965 0.14891 0.0
C1834 C 0.96242 0.40005 0.23056 0.0
C1835 C 0.97851 0.40398 0.23758 0.0
C1836 C 0.98888 0.40977 0.19845 0.0
C1837 C 0.98344 0.41254 0.15443 0.0
C1838 C 0.0029 0.41813 0.35052 0.0
C1839 C 0.99259 0.40746 0.38451 0.0
C1840 C 0.99884 0.41637 0.30232 0.0
C1841 C 0.98445 0.40377 0.28674 0.0
C1842 C 0.97485 0.39225 0.32031 0.0
C1843 C 0.9788 0.39416 0.36862 0.0
H1844 H 0.58799 0.58686 0.14592 0.0
H1845 H 0.56533 0.61761 0.11185 0.0
H1846 H 0.58686 0.59257 0.23031 0.0
H1847 H 0.56356 0.62267 0.19511 0.0
H1848 H 0.56488 0.63598 0.34301 0.0
H1849 H 0.57569 0.63504 0.26506 0.0
H1850 H 0.56825 0.58575 0.29241 0.0
H1851 H 0.55848 0.5873 0.37171 0.0
C1852 C 0.58288 0.59492 0.15629 0.0
C1853 C 0.5767 0.6017 0.12186 0.0
C1854 C 0.58214 0.59812 0.20478 0.0
C1855 C 0.57511 0.6081 0.22001 0.0
C1856 C 0.56941 0.61524 0.18525 0.0
C1857 C 0.57028 0.61218 0.13707 0.0
C1858 C 0.56613 0.62519 0.33283 0.0
C1859 C 0.56089 0.61172 0.36317 0.0
C1860 C 0.5721 0.62452 0.28787 0.0
C1861 C 0.57242 0.61013 0.2715 0.0
C1862 C 0.56828 0.59707 0.30352 0.0
C1863 C 0.56268 0.59793 0.3491 0.0
H1864 H 0.40931 0.01799 0.35981 0.0
H1865 H 0.37067 0.96976 0.35571 0.0
H1866 H 0.40885 0.01932 0.27356 0.0
H1867 H 0.36944 0.97137 0.26966 0.0
H1868 H 0.38774 0.96973 0.11988 0.0
H1869 H 0.38359 0.96944 0.20502 0.0
H1870 H 0.39738 0.02113 0.20239 0.0
H1871 H 0.40242 0.02148 0.11747 0.0
C1872 C 0.40039 0.00788 0.34046 0.0
C1873 C 0.39014 0.99373 0.3644 0.0
C1874 C 0.40005 0.00863 0.29086 0.0
C1875 C 0.38923 0.99535 0.26412 0.0
C1876 C 0.37826 0.98165 0.28865 0.0
C1877 C 0.37884 0.98077 0.3381 0.0
C1878 C 0.38967 0.98098 0.1374 0.0
C1879 C 0.39553 0.99563 0.11203 0.0
C1880 C 0.3872 0.98084 0.18639 0.0
C1881 C 0.39024 0.9953 0.21114 0.0
C1882 C 0.39528 0.00981 0.18504 0.0
C1883 C 0.39805 0.01 0.1362 0.0
H1884 H 0.57358 0.0193 0.90346 0.0
H1885 H 0.57915 0.98039 0.832 0.0
H1886 H 0.57884 0.03431 0.82905 0.0
H1887 H 0.58487 0.99556 0.75796 0.0
H1888 H 0.57011 0.01654 0.62667 0.0
H1889 H 0.57027 0.00248 0.70016 0.0
H1890 H 0.5975 0.04872 0.76896 0.0
H1891 H 0.59687 0.06266 0.69613 0.0
C1892 C 0.57629 0.01412 0.87214 0.0
C1893 C 0.57576 0.99858 0.87356 0.0
C1894 C 0.57935 0.02274 0.82938 0.0
C1895 C 0.58213 0.01607 0.78721 0.0
C1896 C 0.58243 0.0009 0.78939 0.0
C1897 C 0.57924 0.99225 0.83197 0.0
C1898 C 0.57638 0.02364 0.65725 0.0
C1899 C 0.58328 0.04068 0.65583 0.0
C1900 C 0.57651 0.01562 0.69945 0.0
C1901 C 0.5837 0.02448 0.74086 0.0
C1902 C 0.5915 0.04151 0.73825 0.0
C1903 C 0.59123 0.0495 0.69636 0.0
H1904 H 0.01465 0.6034 0.6016 0.0
H1905 H 0.97384 0.57168 0.68324 0.0
H1906 H 0.03006 0.61229 0.67478 0.0
H1907 H 0.98929 0.57995 0.7556 0.0
H1908 H 0.01779 0.60326 0.88617 0.0
H1909 H 0.00237 0.60001 0.8135 0.0
H1910 H 0.04182 0.60206 0.73015 0.0
H1911 H 0.05724 0.60599 0.80145 0.0
C1912 C 0.00898 0.59829 0.63505 0.0
C1913 C 0.99304 0.58675 0.63634 0.0
C1914 C 0.01782 0.60334 0.67711 0.0
C1915 C 0.01099 0.59679 0.72141 0.0
C1916 C 0.99495 0.58551 0.72256 0.0
C1917 C 0.98609 0.58064 0.68073 0.0
C1918 C 0.0232 0.60324 0.85224 0.0
C1919 C 0.03873 0.60475 0.84999 0.0
C1920 C 0.01434 0.60127 0.81051 0.0
C1921 C 0.02078 0.60067 0.76566 0.0
C1922 C 0.03647 0.60272 0.76362 0.0
C1923 C 0.04531 0.60481 0.80498 0.0
H1924 H 0.44383 0.41765 0.68958 0.0
H1925 H 0.40777 0.42243 0.60474 0.0
H1926 H 0.43241 0.42266 0.76085 0.0
H1927 H 0.39576 0.42673 0.67711 0.0
H1928 H 0.39445 0.45799 0.80355 0.0
H1929 H 0.40093 0.44736 0.73264 0.0
H1930 H 0.41255 0.41494 0.81816 0.0
H1931 H 0.40671 0.42627 0.89007 0.0
C1932 C 0.43324 0.41946 0.68604 0.0
C1933 C 0.42689 0.41984 0.64092 0.0
C1934 C 0.42655 0.4222 0.72739 0.0
C1935 C 0.41316 0.42526 0.72526 0.0
C1936 C 0.40627 0.42478 0.68032 0.0
C1937 C 0.41309 0.42217 0.63868 0.0
C1938 C 0.39825 0.44849 0.80757 0.0
C1939 C 0.40024 0.44318 0.85298 0.0
C1940 C 0.40184 0.44223 0.76645 0.0
C1941 C 0.40741 0.4303 0.76914 0.0
C1942 C 0.40863 0.42436 0.81447 0.0
C1943 C 0.40516 0.43077 0.85587 0.0
loop_
_geom_bond_atom_site_label_1
_geom_bond_atom_site_label_2
_geom_bond_distance
_geom_bond_site_symmetry_2
_ccdc_geom_bond_type
Co0 O1 2.216 . S
Co0 O2 2.091 . S
Co0 O4 2.004 . S
Co0 O10 2.021 . S
Co0 O12 2.137 . S
Co0 O13 2.244 . S
O1 Co0 2.216 . S
O1 C8 1.247 . S
O2 Co0 2.091 . S
O2 C8 1.261 . S
C3 O12 1.247 . S
C3 O13 1.272 . S
O4 Co0 2.004 . S
O4 C9 1.259 . S
Co5 O6 2.061 . S
Co5 O11 2.052 . S
Co5 O13 2.135 . S
O6 Co5 2.061 . S
O6 C9 1.235 . S
C7 O10 1.238 . S
C7 O11 1.241 . S
C8 O1 1.247 . S
C8 O2 1.261 . S
C9 O4 1.259 . S
C9 O6 1.235 . S
O10 Co0 2.021 . S
O10 C7 1.238 . S
O11 Co5 2.052 . S
O11 C7 1.241 . S
O12 Co0 2.137 . S
O12 C3 1.247 . S
O13 Co0 2.244 . S
O13 C3 1.272 . S
O13 Co5 2.135 . S
Co14 O15 2.216 . S
Co14 O16 2.091 . S
Co14 O18 2.004 . S
Co14 O24 2.021 . S
Co14 O26 2.137 . S
Co14 O27 2.244 . S
O15 Co14 2.216 . S
O15 C22 1.247 . S
O16 Co14 2.091 . S
O16 C22 1.261 . S
C17 O26 1.247 . S
C17 O27 1.272 . S
O18 Co14 2.004 . S
O18 C23 1.259 . S
Co19 O20 2.061 . S
Co19 O25 2.052 . S
Co19 O27 2.135 . S
O20 Co19 2.061 . S
O20 C23 1.235 . S
C21 O24 1.238 . S
C21 O25 1.241 . S
C22 O15 1.247 . S
C22 O16 1.261 . S
C23 O18 1.259 . S
C23 O20 1.235 . S
O24 Co14 2.021 . S
O24 C21 1.238 . S
O25 Co19 2.052 . S
O25 C21 1.241 . S
O26 Co14 2.137 . S
O26 C17 1.247 . S
O27 Co14 2.244 . S
O27 C17 1.272 . S
O27 Co19 2.135 . S
Co28 O29 2.216 . S
Co28 O30 2.091 . S
Co28 O32 2.004 . S
Co28 O38 2.021 . S
Co28 O40 2.137 . S
Co28 O41 2.244 . S
O29 Co28 2.216 . S
O29 C36 1.247 . S
O30 Co28 2.091 . S
O30 C36 1.261 . S
C31 O40 1.247 . S
C31 O41 1.272 . S
O32 Co28 2.004 . S
O32 C37 1.259 . S
Co33 O34 2.061 . S
Co33 O39 2.052 . S
Co33 O41 2.135 . S
O34 Co33 2.061 . S
O34 C37 1.235 . S
C35 O38 1.238 . S
C35 O39 1.241 . S
C36 O29 1.247 . S
C36 O30 1.261 . S
C37 O32 1.259 . S
C37 O34 1.235 . S
O38 Co28 2.021 . S
O38 C35 1.238 . S
O39 Co33 2.052 . S
O39 C35 1.241 . S
O40 Co28 2.137 . S
O40 C31 1.247 . S
O41 Co28 2.244 . S
O41 C31 1.272 . S
O41 Co33 2.135 . S
Co42 O43 2.216 . S
Co42 O44 2.091 . S
Co42 O46 2.004 . S
Co42 O52 2.021 . S
Co42 O54 2.137 . S
Co42 O55 2.244 . S
O43 Co42 2.216 . S
O43 C50 1.247 . S
O44 Co42 2.091 . S
O44 C50 1.261 . S
C45 O54 1.247 . S
C45 O55 1.272 . S
O46 Co42 2.004 . S
O46 C51 1.259 . S
Co47 O48 2.061 . S
Co47 O53 2.052 . S
Co47 O55 2.135 . S
O48 Co47 2.061 . S
O48 C51 1.235 . S
C49 O52 1.238 . S
C49 O53 1.241 . S
C50 O43 1.247 . S
C50 O44 1.261 . S
C51 O46 1.259 . S
C51 O48 1.235 . S
O52 Co42 2.021 . S
O52 C49 1.238 . S
O53 Co47 2.052 . S
O53 C49 1.241 . S
O54 Co42 2.137 . S
O54 C45 1.247 . S
O55 Co42 2.244 . S
O55 C45 1.272 . S
O55 Co47 2.135 . S
Co56 O57 2.216 . S
Co56 O58 2.091 . S
Co56 O60 2.004 . S
Co56 O66 2.021 . S
Co56 O68 2.137 . S
Co56 O69 2.244 . S
O57 Co56 2.216 . S
O57 C64 1.247 . S
O58 Co56 2.091 . S
O58 C64 1.261 . S
C59 O68 1.247 . S
C59 O69 1.272 . S
O60 Co56 2.004 . S
O60 C65 1.259 . S
Co61 O62 2.061 . S
Co61 O67 2.052 . S
Co61 O69 2.135 . S
O62 Co61 2.061 . S
O62 C65 1.235 . S
C63 O66 1.238 . S
C63 O67 1.241 . S
C64 O57 1.247 . S
C64 O58 1.261 . S
C65 O60 1.259 . S
C65 O62 1.235 . S
O66 Co56 2.021 . S
O66 C63 1.238 . S
O67 Co61 2.052 . S
O67 C63 1.241 . S
O68 Co56 2.137 . S
O68 C59 1.247 . S
O69 Co56 2.244 . S
O69 C59 1.272 . S
O69 Co61 2.135 . S
Co70 O71 2.216 . S
Co70 O72 2.091 . S
Co70 O74 2.004 . S
Co70 O80 2.021 . S
Co70 O82 2.137 . S
Co70 O83 2.244 . S
O71 Co70 2.216 . S
O71 C78 1.247 . S
O72 Co70 2.091 . S
O72 C78 1.261 . S
C73 O82 1.247 . S
C73 O83 1.272 . S
O74 Co70 2.004 . S
O74 C79 1.259 . S
Co75 O76 2.061 . S
Co75 O81 2.052 . S
Co75 O83 2.135 . S
O76 Co75 2.061 . S
O76 C79 1.235 . S
C77 O80 1.238 . S
C77 O81 1.241 . S
C78 O71 1.247 . S
C78 O72 1.261 . S
C79 O74 1.259 . S
C79 O76 1.235 . S
O80 Co70 2.021 . S
O80 C77 1.238 . S
O81 Co75 2.052 . S
O81 C77 1.241 . S
O82 Co70 2.137 . S
O82 C73 1.247 . S
O83 Co70 2.244 . S
O83 C73 1.272 . S
O83 Co75 2.135 . S
Co84 O85 2.216 . S
Co84 O86 2.091 . S
Co84 O88 2.004 . S
Co84 O94 2.021 . S
Co84 O96 2.137 . S
Co84 O97 2.244 . S
O85 Co84 2.216 . S
O85 C92 1.247 . S
O86 Co84 2.091 . S
O86 C92 1.261 . S
C87 O96 1.247 . S
C87 O97 1.272 . S
O88 Co84 2.004 . S
O88 C93 1.259 . S
Co89 O90 2.061 . S
Co89 O95 2.052 . S
Co89 O97 2.135 . S
O90 Co89 2.061 . S
O90 C93 1.235 . S
C91 O94 1.238 . S
C91 O95 1.241 . S
C92 O85 1.247 . S
C92 O86 1.261 . S
C93 O88 1.259 . S
C93 O90 1.235 . S
O94 Co84 2.021 . S
O94 C91 1.238 . S
O95 Co89 2.052 . S
O95 C91 1.241 . S
O96 Co84 2.137 . S
O96 C87 1.247 . S
O97 Co84 2.244 . S
O97 C87 1.272 . S
O97 Co89 2.135 . S
Co98 O99 2.216 . S
Co98 O100 2.091 . S
Co98 O102 2.004 . S
Co98 O108 2.021 . S
Co98 O110 2.137 . S
Co98 O111 2.244 . S
O99 Co98 2.216 . S
O99 C106 1.247 . S
O100 Co98 2.091 . S
O100 C106 1.261 . S
C101 O110 1.247 . S
C101 O111 1.272 . S
O102 Co98 2.004 . S
O102 C107 1.259 . S
Co103 O104 2.061 . S
Co103 O109 2.052 . S
Co103 O111 2.135 . S
O104 Co103 2.061 . S
O104 C107 1.235 . S
C105 O108 1.238 . S
C105 O109 1.241 . S
C106 O99 1.247 . S
C106 O100 1.261 . S
C107 O102 1.259 . S
C107 O104 1.235 . S
O108 Co98 2.021 . S
O108 C105 1.238 . S
O109 Co103 2.052 . S
O109 C105 1.241 . S
O110 Co98 2.137 . S
O110 C101 1.247 . S
O111 Co98 2.244 . S
O111 C101 1.272 . S
O111 Co103 2.135 . S
Co112 O113 2.216 . S
Co112 O114 2.091 . S
Co112 O116 2.004 . S
Co112 O122 2.021 . S
Co112 O124 2.137 . S
Co112 O125 2.244 . S
O113 Co112 2.216 . S
O113 C120 1.247 . S
O114 Co112 2.091 . S
O114 C120 1.261 . S
C115 O124 1.247 . S
C115 O125 1.272 . S
O116 Co112 2.004 . S
O116 C121 1.259 . S
Co117 O118 2.061 . S
Co117 O123 2.052 . S
Co117 O125 2.135 . S
O118 Co117 2.061 . S
O118 C121 1.235 . S
C119 O122 1.238 . S
C119 O123 1.241 . S
C120 O113 1.247 . S
C120 O114 1.261 . S
C121 O116 1.259 . S
C121 O118 1.235 . S
O122 Co112 2.021 . S
O122 C119 1.238 . S
O123 Co117 2.052 . S
O123 C119 1.241 . S
O124 Co112 2.137 . S
O124 C115 1.247 . S
O125 Co112 2.244 . S
O125 C115 1.272 . S
O125 Co117 2.135 . S
Co126 O127 2.216 . S
Co126 O128 2.091 . S
Co126 O130 2.004 . S
Co126 O136 2.021 . S
Co126 O138 2.137 . S
Co126 O139 2.244 . S
O127 Co126 2.216 . S
O127 C134 1.247 . S
O128 Co126 2.091 . S
O128 C134 1.261 . S
C129 O138 1.247 . S
C129 O139 1.272 . S
O130 Co126 2.004 . S
O130 C135 1.259 . S
Co131 O132 2.061 . S
Co131 O137 2.052 . S
Co131 O139 2.135 . S
O132 Co131 2.061 . S
O132 C135 1.235 . S
C133 O136 1.238 . S
C133 O137 1.241 . S
C134 O127 1.247 . S
C134 O128 1.261 . S
C135 O130 1.259 . S
C135 O132 1.235 . S
O136 Co126 2.021 . S
O136 C133 1.238 . S
O137 Co131 2.052 . S
O137 C133 1.241 . S
O138 Co126 2.137 . S
O138 C129 1.247 . S
O139 Co126 2.244 . S
O139 C129 1.272 . S
O139 Co131 2.135 . S
Co140 O141 2.216 . S
Co140 O142 2.091 . S
Co140 O144 2.004 . S
Co140 O150 2.021 . S
Co140 O152 2.137 . S
Co140 O153 2.244 . S
O141 Co140 2.216 . S
O141 C148 1.247 . S
O142 Co140 2.091 . S
O142 C148 1.261 . S
C143 O152 1.247 . S
C143 O153 1.272 . S
O144 Co140 2.004 . S
O144 C149 1.259 . S
Co145 O146 2.061 . S
Co145 O151 2.052 . S
Co145 O153 2.135 . S
O146 Co145 2.061 . S
O146 C149 1.235 . S
C147 O150 1.238 . S
C147 O151 1.241 . S
C148 O141 1.247 . S
C148 O142 1.261 . S
C149 O144 1.259 . S
C149 O146 1.235 . S
O150 Co140 2.021 . S
O150 C147 1.238 . S
O151 Co145 2.052 . S
O151 C147 1.241 . S
O152 Co140 2.137 . S
O152 C143 1.247 . S
O153 Co140 2.244 . S
O153 C143 1.272 . S
O153 Co145 2.135 . S
Co154 O155 2.216 . S
Co154 O156 2.091 . S
Co154 O158 2.004 . S
Co154 O164 2.021 . S
Co154 O166 2.137 . S
Co154 O167 2.244 . S
O155 Co154 2.216 . S
O155 C162 1.247 . S
O156 Co154 2.091 . S
O156 C162 1.261 . S
C157 O166 1.247 . S
C157 O167 1.272 . S
O158 Co154 2.004 . S
O158 C163 1.259 . S
Co159 O160 2.061 . S
Co159 O165 2.052 . S
Co159 O167 2.135 . S
O160 Co159 2.061 . S
O160 C163 1.235 . S
C161 O164 1.238 . S
C161 O165 1.241 . S
C162 O155 1.247 . S
C162 O156 1.261 . S
C163 O158 1.259 . S
C163 O160 1.235 . S
O164 Co154 2.021 . S
O164 C161 1.238 . S
O165 Co159 2.052 . S
O165 C161 1.241 . S
O166 Co154 2.137 . S
O166 C157 1.247 . S
O167 Co154 2.244 . S
O167 C157 1.272 . S
O167 Co159 2.135 . S
Co168 O169 2.216 . S
Co168 O170 2.091 . S
Co168 O172 2.004 . S
Co168 O178 2.021 1_455 S
Co168 O180 2.137 . S
Co168 O181 2.244 1_455 S
O169 Co168 2.216 . S
O169 C176 1.247 . S
O170 Co168 2.091 . S
O170 C176 1.261 . S
C171 O180 1.247 1_655 S
C171 O181 1.272 . S
O172 Co168 2.004 . S
O172 C177 1.259 . S
Co173 O174 2.061 . S
Co173 O179 2.052 . S
Co173 O181 2.135 . S
O174 Co173 2.061 . S
O174 C177 1.235 1_655 S
C175 O178 1.238 . S
C175 O179 1.241 . S
C176 O169 1.247 . S
C176 O170 1.261 . S
C177 O172 1.259 . S
C177 O174 1.235 1_455 S
O178 Co168 2.021 1_655 S
O178 C175 1.238 . S
O179 Co173 2.052 . S
O179 C175 1.241 . S
O180 Co168 2.137 . S
O180 C171 1.247 1_455 S
O181 Co168 2.244 1_655 S
O181 C171 1.272 . S
O181 Co173 2.135 . S
Co182 O183 2.216 . S
Co182 O184 2.091 . S
Co182 O186 2.004 . S
Co182 O192 2.021 . S
Co182 O194 2.137 . S
Co182 O195 2.244 . S
O183 Co182 2.216 . S
O183 C190 1.247 . S
O184 Co182 2.091 . S
O184 C190 1.261 . S
C185 O194 1.247 . S
C185 O195 1.272 . S
O186 Co182 2.004 . S
O186 C191 1.259 . S
Co187 O188 2.061 . S
Co187 O193 2.052 . S
Co187 O195 2.135 . S
O188 Co187 2.061 . S
O188 C191 1.235 . S
C189 O192 1.238 . S
C189 O193 1.241 . S
C190 O183 1.247 . S
C190 O184 1.261 . S
C191 O186 1.259 . S
C191 O188 1.235 . S
O192 Co182 2.021 . S
O192 C189 1.238 . S
O193 Co187 2.052 . S
O193 C189 1.241 . S
O194 Co182 2.137 . S
O194 C185 1.247 . S
O195 Co182 2.244 . S
O195 C185 1.272 . S
O195 Co187 2.135 . S
Co196 O197 2.216 . S
Co196 O198 2.091 . S
Co196 O200 2.004 . S
Co196 O206 2.021 . S
Co196 O208 2.137 . S
Co196 O209 2.244 . S
O197 Co196 2.216 . S
O197 C204 1.247 . S
O198 Co196 2.091 . S
O198 C204 1.261 . S
C199 O208 1.247 . S
C199 O209 1.272 . S
O200 Co196 2.004 . S
O200 C205 1.259 . S
Co201 O202 2.061 . S
Co201 O207 2.052 . S
Co201 O209 2.135 . S
O202 Co201 2.061 . S
O202 C205 1.235 . S
C203 O206 1.238 . S
C203 O207 1.241 . S
C204 O197 1.247 . S
C204 O198 1.261 . S
C205 O200 1.259 . S
C205 O202 1.235 . S
O206 Co196 2.021 . S
O206 C203 1.238 . S
O207 Co201 2.052 . S
O207 C203 1.241 . S
O208 Co196 2.137 . S
O208 C199 1.247 . S
O209 Co196 2.244 . S
O209 C199 1.272 . S
O209 Co201 2.135 . S
Co210 O211 2.216 . S
Co210 O212 2.091 . S
Co210 O214 2.004 . S
Co210 O220 2.021 . S
Co210 O222 2.137 . S
Co210 O223 2.244 . S
O211 Co210 2.216 . S
O211 C218 1.247 . S
O212 Co210 2.091 . S
O212 C218 1.261 . S
C213 O222 1.247 . S
C213 O223 1.272 . S
O214 Co210 2.004 . S
O214 C219 1.259 . S
Co215 O216 2.061 . S
Co215 O221 2.052 . S
Co215 O223 2.135 . S
O216 Co215 2.061 . S
O216 C219 1.235 . S
C217 O220 1.238 . S
C217 O221 1.241 . S
C218 O211 1.247 . S
C218 O212 1.261 . S
C219 O214 1.259 . S
C219 O216 1.235 . S
O220 Co210 2.021 . S
O220 C217 1.238 . S
O221 Co215 2.052 . S
O221 C217 1.241 . S
O222 Co210 2.137 . S
O222 C213 1.247 . S
O223 Co210 2.244 . S
O223 C213 1.272 . S
O223 Co215 2.135 . S
Co224 O225 2.216 . S
Co224 O226 2.091 . S
Co224 O228 2.004 . S
Co224 O234 2.021 . S
Co224 O236 2.137 . S
Co224 O237 2.244 . S
O225 Co224 2.216 . S
O225 C232 1.247 . S
O226 Co224 2.091 . S
O226 C232 1.261 . S
C227 O236 1.247 . S
C227 O237 1.272 . S
O228 Co224 2.004 . S
O228 C233 1.259 . S
Co229 O230 2.061 . S
Co229 O235 2.052 . S
Co229 O237 2.135 . S
O230 Co229 2.061 . S
O230 C233 1.235 . S
C231 O234 1.238 . S
C231 O235 1.241 . S
C232 O225 1.247 . S
C232 O226 1.261 . S
C233 O228 1.259 . S
C233 O230 1.235 . S
O234 Co224 2.021 . S
O234 C231 1.238 . S
O235 Co229 2.052 . S
O235 C231 1.241 . S
O236 Co224 2.137 . S
O236 C227 1.247 . S
O237 Co224 2.244 . S
O237 C227 1.272 . S
O237 Co229 2.135 . S
Co238 O239 2.216 . S
Co238 O240 2.091 . S
Co238 O242 2.004 . S
Co238 O248 2.021 . S
Co238 O250 2.137 . S
Co238 O251 2.244 . S
O239 Co238 2.216 . S
O239 C246 1.247 . S
O240 Co238 2.091 . S
O240 C246 1.261 . S
C241 O250 1.247 . S
C241 O251 1.272 . S
O242 Co238 2.004 . S
O242 C247 1.259 . S
Co243 O244 2.061 . S
Co243 O249 2.052 . S
Co243 O251 2.135 . S
O244 Co243 2.061 . S
O244 C247 1.235 . S
C245 O248 1.238 . S
C245 O249 1.241 . S
C246 O239 1.247 . S
C246 O240 1.261 . S
C247 O242 1.259 . S
C247 O244 1.235 . S
O248 Co238 2.021 . S
O248 C245 1.238 . S
O249 Co243 2.052 . S
O249 C245 1.241 . S
O250 Co238 2.137 . S
O250 C241 1.247 . S
O251 Co238 2.244 . S
O251 C241 1.272 . S
O251 Co243 2.135 . S
Co252 O253 2.216 . S
Co252 O254 2.091 . S
Co252 O256 2.004 . S
Co252 O262 2.021 . S
Co252 O264 2.137 . S
Co252 O265 2.244 . S
O253 Co252 2.216 . S
O253 C260 1.247 . S
O254 Co252 2.091 . S
O254 C260 1.261 . S
C255 O264 1.247 . S
C255 O265 1.272 . S
O256 Co252 2.004 . S
O256 C261 1.259 . S
Co257 O258 2.061 . S
Co257 O263 2.052 . S
Co257 O265 2.135 . S
O258 Co257 2.061 . S
O258 C261 1.235 . S
C259 O262 1.238 . S
C259 O263 1.241 . S
C260 O253 1.247 . S
C260 O254 1.261 . S
C261 O256 1.259 . S
C261 O258 1.235 . S
O262 Co252 2.021 . S
O262 C259 1.238 . S
O263 Co257 2.052 . S
O263 C259 1.241 . S
O264 Co252 2.137 . S
O264 C255 1.247 . S
O265 Co252 2.244 . S
O265 C255 1.272 . S
O265 Co257 2.135 . S
Co266 O267 2.216 . S
Co266 O268 2.091 . S
Co266 O270 2.004 . S
Co266 O276 2.021 . S
Co266 O278 2.137 . S
Co266 O279 2.244 . S
O267 Co266 2.216 . S
O267 C274 1.247 . S
O268 Co266 2.091 . S
O268 C274 1.261 . S
C269 O278 1.247 . S
C269 O279 1.272 . S
O270 Co266 2.004 . S
O270 C275 1.259 . S
Co271 O272 2.061 . S
Co271 O277 2.052 . S
Co271 O279 2.135 . S
O272 Co271 2.061 . S
O272 C275 1.235 . S
C273 O276 1.238 . S
C273 O277 1.241 . S
C274 O267 1.247 . S
C274 O268 1.261 . S
C275 O270 1.259 . S
C275 O272 1.235 . S
O276 Co266 2.021 . S
O276 C273 1.238 . S
O277 Co271 2.052 . S
O277 C273 1.241 . S
O278 Co266 2.137 . S
O278 C269 1.247 . S
O279 Co266 2.244 . S
O279 C269 1.272 . S
O279 Co271 2.135 . S
Co280 O281 2.216 . S
Co280 O282 2.091 . S
Co280 O284 2.004 . S
Co280 O290 2.021 . S
Co280 O292 2.137 . S
Co280 O293 2.244 . S
O281 Co280 2.216 . S
O281 C288 1.247 . S
O282 Co280 2.091 . S
O282 C288 1.261 . S
C283 O292 1.247 . S
C283 O293 1.272 . S
O284 Co280 2.004 . S
O284 C289 1.259 . S
Co285 O286 2.061 . S
Co285 O291 2.052 . S
Co285 O293 2.135 . S
O286 Co285 2.061 . S
O286 C289 1.235 . S
C287 O290 1.238 . S
C287 O291 1.241 . S
C288 O281 1.247 . S
C288 O282 1.261 . S
C289 O284 1.259 . S
C289 O286 1.235 . S
O290 Co280 2.021 . S
O290 C287 1.238 . S
O291 Co285 2.052 . S
O291 C287 1.241 . S
O292 Co280 2.137 . S
O292 C283 1.247 . S
O293 Co280 2.244 . S
O293 C283 1.272 . S
O293 Co285 2.135 . S
Co294 O295 2.216 1_545 S
Co294 O296 2.091 . S
Co294 O298 2.004 1_554 S
Co294 O304 2.021 . S
Co294 O306 2.137 1_545 S
Co294 O307 2.244 1_544 S
O295 Co294 2.216 1_565 S
O295 C302 1.247 1_565 S
O296 Co294 2.091 . S
O296 C302 1.261 . S
C297 O306 1.247 1_556 S
C297 O307 1.272 . S
O298 Co294 2.004 1_556 S
O298 C303 1.259 . S
Co299 O300 2.061 . S
Co299 O305 2.052 . S
Co299 O307 2.135 . S
O300 Co299 2.061 . S
O300 C303 1.235 1_565 S
C301 O304 1.238 1_566 S
C301 O305 1.241 . S
C302 O295 1.247 1_545 S
C302 O296 1.261 . S
C303 O298 1.259 . S
C303 O300 1.235 1_545 S
O304 Co294 2.021 . S
O304 C301 1.238 1_544 S
O305 Co299 2.052 . S
O305 C301 1.241 . S
O306 Co294 2.137 1_565 S
O306 C297 1.247 1_554 S
O307 Co294 2.244 1_566 S
O307 C297 1.272 . S
O307 Co299 2.135 . S
Co308 O309 2.216 . S
Co308 O310 2.091 . S
Co308 O312 2.004 1_554 S
Co308 O318 2.021 . S
Co308 O320 2.137 . S
Co308 O321 2.244 1_554 S
O309 Co308 2.216 . S
O309 C316 1.247 . S
O310 Co308 2.091 . S
O310 C316 1.261 . S
C311 O320 1.247 1_556 S
C311 O321 1.272 . S
O312 Co308 2.004 1_556 S
O312 C317 1.259 . S
Co313 O314 2.061 . S
Co313 O319 2.052 . S
Co313 O321 2.135 . S
O314 Co313 2.061 . S
O314 C317 1.235 . S
C315 O318 1.238 1_556 S
C315 O319 1.241 . S
C316 O309 1.247 . S
C316 O310 1.261 . S
C317 O312 1.259 . S
C317 O314 1.235 . S
O318 Co308 2.021 . S
O318 C315 1.238 1_554 S
O319 Co313 2.052 . S
O319 C315 1.241 . S
O320 Co308 2.137 . S
O320 C311 1.247 1_554 S
O321 Co308 2.244 1_556 S
O321 C311 1.272 . S
O321 Co313 2.135 . S
Co322 O323 2.216 . S
Co322 O324 2.091 . S
Co322 O326 2.004 1_554 S
Co322 O332 2.021 . S
Co322 O334 2.137 . S
Co322 O335 2.244 1_554 S
O323 Co322 2.216 . S
O323 C330 1.247 . S
O324 Co322 2.091 . S
O324 C330 1.261 . S
C325 O334 1.247 1_556 S
C325 O335 1.272 . S
O326 Co322 2.004 1_556 S
O326 C331 1.259 . S
Co327 O328 2.061 . S
Co327 O333 2.052 . S
Co327 O335 2.135 . S
O328 Co327 2.061 . S
O328 C331 1.235 . S
C329 O332 1.238 1_556 S
C329 O333 1.241 . S
C330 O323 1.247 . S
C330 O324 1.261 . S
C331 O326 1.259 . S
C331 O328 1.235 . S
O332 Co322 2.021 . S
O332 C329 1.238 1_554 S
O333 Co327 2.052 . S
O333 C329 1.241 . S
O334 Co322 2.137 . S
O334 C325 1.247 1_554 S
O335 Co322 2.244 1_556 S
O335 C325 1.272 . S
O335 Co327 2.135 . S
Co336 O337 2.216 . S
Co336 O338 2.091 . S
Co336 O340 2.004 . S
Co336 O346 2.021 . S
Co336 O348 2.137 . S
Co336 O349 2.244 . S
O337 Co336 2.216 . S
O337 C344 1.247 . S
O338 Co336 2.091 . S
O338 C344 1.261 . S
C339 O348 1.247 . S
C339 O349 1.272 . S
O340 Co336 2.004 . S
O340 C345 1.259 . S
Co341 O342 2.061 . S
Co341 O347 2.052 . S
Co341 O349 2.135 . S
O342 Co341 2.061 . S
O342 C345 1.235 . S
C343 O346 1.238 . S
C343 O347 1.241 . S
C344 O337 1.247 . S
C344 O338 1.261 . S
C345 O340 1.259 . S
C345 O342 1.235 . S
O346 Co336 2.021 . S
O346 C343 1.238 . S
O347 Co341 2.052 . S
O347 C343 1.241 . S
O348 Co336 2.137 . S
O348 C339 1.247 . S
O349 Co336 2.244 . S
O349 C339 1.272 . S
O349 Co341 2.135 . S
Co350 O351 2.216 . S
Co350 O352 2.091 . S
Co350 O354 2.004 . S
Co350 O360 2.021 . S
Co350 O362 2.137 . S
Co350 O363 2.244 . S
O351 Co350 2.216 . S
O351 C358 1.247 . S
O352 Co350 2.091 . S
O352 C358 1.261 . S
C353 O362 1.247 . S
C353 O363 1.272 . S
O354 Co350 2.004 . S
O354 C359 1.259 . S
Co355 O356 2.061 . S
Co355 O361 2.052 . S
Co355 O363 2.135 . S
O356 Co355 2.061 . S
O356 C359 1.235 . S
C357 O360 1.238 . S
C357 O361 1.241 . S
C358 O351 1.247 . S
C358 O352 1.261 . S
C359 O354 1.259 . S
C359 O356 1.235 . S
O360 Co350 2.021 . S
O360 C357 1.238 . S
O361 Co355 2.052 . S
O361 C357 1.241 . S
O362 Co350 2.137 . S
O362 C353 1.247 . S
O363 Co350 2.244 . S
O363 C353 1.272 . S
O363 Co355 2.135 . S
Co364 O365 2.216 . S
Co364 O366 2.091 . S
Co364 O368 2.004 . S
Co364 O374 2.021 . S
Co364 O376 2.137 . S
Co364 O377 2.244 . S
O365 Co364 2.216 . S
O365 C372 1.247 . S
O366 Co364 2.091 . S
O366 C372 1.261 . S
C367 O376 1.247 . S
C367 O377 1.272 . S
O368 Co364 2.004 . S
O368 C373 1.259 . S
Co369 O370 2.061 . S
Co369 O375 2.052 . S
Co369 O377 2.135 . S
O370 Co369 2.061 . S
O370 C373 1.235 . S
C371 O374 1.238 . S
C371 O375 1.241 . S
C372 O365 1.247 . S
C372 O366 1.261 . S
C373 O368 1.259 . S
C373 O370 1.235 . S
O374 Co364 2.021 . S
O374 C371 1.238 . S
O375 Co369 2.052 . S
O375 C371 1.241 . S
O376 Co364 2.137 . S
O376 C367 1.247 . S
O377 Co364 2.244 . S
O377 C367 1.272 . S
O377 Co369 2.135 . S
Co378 O379 2.216 1_556 S
Co378 O380 2.091 1_556 S
Co378 O382 2.004 . S
Co378 O388 2.021 1_546 S
Co378 O390 2.137 . S
Co378 O391 2.244 1_545 S
O379 Co378 2.216 1_554 S
O379 C386 1.247 . S
O380 Co378 2.091 1_554 S
O380 C386 1.261 . S
C381 O390 1.247 1_565 S
C381 O391 1.272 . S
O382 Co378 2.004 . S
O382 C387 1.259 . S
Co383 O384 2.061 . S
Co383 O389 2.052 1_556 S
Co383 O391 2.135 . S
O384 Co383 2.061 . S
O384 C387 1.235 1_565 S
C385 O388 1.238 . S
C385 O389 1.241 . S
C386 O379 1.247 . S
C386 O380 1.261 . S
C387 O382 1.259 . S
C387 O384 1.235 1_545 S
O388 Co378 2.021 1_564 S
O388 C385 1.238 . S
O389 Co383 2.052 1_554 S
O389 C385 1.241 . S
O390 Co378 2.137 . S
O390 C381 1.247 1_545 S
O391 Co378 2.244 1_565 S
O391 C381 1.272 . S
O391 Co383 2.135 . S
Co392 O393 2.216 . S
Co392 O394 2.091 . S
Co392 O396 2.004 1_556 S
Co392 O402 2.021 . S
Co392 O404 2.137 . S
Co392 O405 2.244 1_556 S
O393 Co392 2.216 . S
O393 C400 1.247 . S
O394 Co392 2.091 . S
O394 C400 1.261 . S
C395 O404 1.247 1_554 S
C395 O405 1.272 . S
O396 Co392 2.004 1_554 S
O396 C401 1.259 . S
Co397 O398 2.061 . S
Co397 O403 2.052 . S
Co397 O405 2.135 . S
O398 Co397 2.061 . S
O398 C401 1.235 . S
C399 O402 1.238 1_554 S
C399 O403 1.241 . S
C400 O393 1.247 . S
C400 O394 1.261 . S
C401 O396 1.259 . S
C401 O398 1.235 . S
O402 Co392 2.021 . S
O402 C399 1.238 1_556 S
O403 Co397 2.052 . S
O403 C399 1.241 . S
O404 Co392 2.137 . S
O404 C395 1.247 1_556 S
O405 Co392 2.244 1_554 S
O405 C395 1.272 . S
O405 Co397 2.135 . S
Co406 O407 2.216 1_556 S
Co406 O408 2.091 1_556 S
Co406 O410 2.004 . S
Co406 O416 2.021 1_556 S
Co406 O418 2.137 . S
Co406 O419 2.244 . S
O407 Co406 2.216 1_554 S
O407 C414 1.247 . S
O408 Co406 2.091 1_554 S
O408 C414 1.261 . S
C409 O418 1.247 . S
C409 O419 1.272 . S
O410 Co406 2.004 . S
O410 C415 1.259 . S
Co411 O412 2.061 . S
Co411 O417 2.052 1_556 S
Co411 O419 2.135 . S
O412 Co411 2.061 . S
O412 C415 1.235 . S
C413 O416 1.238 . S
C413 O417 1.241 . S
C414 O407 1.247 . S
C414 O408 1.261 . S
C415 O410 1.259 . S
C415 O412 1.235 . S
O416 Co406 2.021 1_554 S
O416 C413 1.238 . S
O417 Co411 2.052 1_554 S
O417 C413 1.241 . S
O418 Co406 2.137 . S
O418 C409 1.247 . S
O419 Co406 2.244 . S
O419 C409 1.272 . S
O419 Co411 2.135 . S
Co420 O421 2.216 1_455 S
Co420 O422 2.091 . S
Co420 O424 2.004 . S
Co420 O430 2.021 . S
Co420 O432 2.137 1_455 S
Co420 O433 2.244 1_455 S
O421 Co420 2.216 1_655 S
O421 C428 1.247 1_655 S
O422 Co420 2.091 . S
O422 C428 1.261 . S
C423 O432 1.247 . S
C423 O433 1.272 . S
O424 Co420 2.004 . S
O424 C429 1.259 . S
Co425 O426 2.061 . S
Co425 O431 2.052 . S
Co425 O433 2.135 . S
O426 Co425 2.061 . S
O426 C429 1.235 1_655 S
C427 O430 1.238 1_655 S
C427 O431 1.241 . S
C428 O421 1.247 1_455 S
C428 O422 1.261 . S
C429 O424 1.259 . S
C429 O426 1.235 1_455 S
O430 Co420 2.021 . S
O430 C427 1.238 1_455 S
O431 Co425 2.052 . S
O431 C427 1.241 . S
O432 Co420 2.137 1_655 S
O432 C423 1.247 . S
O433 Co420 2.244 1_655 S
O433 C423 1.272 . S
O433 Co425 2.135 . S
Co434 O435 2.216 . S
Co434 O436 2.091 . S
Co434 O438 2.004 . S
Co434 O444 2.021 . S
Co434 O446 2.137 . S
Co434 O447 2.244 . S
O435 Co434 2.216 . S
O435 C442 1.247 . S
O436 Co434 2.091 . S
O436 C442 1.261 . S
C437 O446 1.247 . S
C437 O447 1.272 . S
O438 Co434 2.004 . S
O438 C443 1.259 . S
Co439 O440 2.061 . S
Co439 O445 2.052 . S
Co439 O447 2.135 . S
O440 Co439 2.061 . S
O440 C443 1.235 . S
C441 O444 1.238 . S
C441 O445 1.241 . S
C442 O435 1.247 . S
C442 O436 1.261 . S
C443 O438 1.259 . S
C443 O440 1.235 . S
O444 Co434 2.021 . S
O444 C441 1.238 . S
O445 Co439 2.052 . S
O445 C441 1.241 . S
O446 Co434 2.137 . S
O446 C437 1.247 . S
O447 Co434 2.244 . S
O447 C437 1.272 . S
O447 Co439 2.135 . S
Co448 O449 2.216 . S
Co448 O450 2.091 . S
Co448 O452 2.004 . S
Co448 O458 2.021 . S
Co448 O460 2.137 . S
Co448 O461 2.244 . S
O449 Co448 2.216 . S
O449 C456 1.247 . S
O450 Co448 2.091 . S
O450 C456 1.261 . S
C451 O460 1.247 . S
C451 O461 1.272 . S
O452 Co448 2.004 . S
O452 C457 1.259 . S
Co453 O454 2.061 . S
Co453 O459 2.052 . S
Co453 O461 2.135 . S
O454 Co453 2.061 . S
O454 C457 1.235 . S
C455 O458 1.238 . S
C455 O459 1.241 . S
C456 O449 1.247 . S
C456 O450 1.261 . S
C457 O452 1.259 . S
C457 O454 1.235 . S
O458 Co448 2.021 . S
O458 C455 1.238 . S
O459 Co453 2.052 . S
O459 C455 1.241 . S
O460 Co448 2.137 . S
O460 C451 1.247 . S
O461 Co448 2.244 . S
O461 C451 1.272 . S
O461 Co453 2.135 . S
Co462 O463 2.216 . S
Co462 O464 2.091 . S
Co462 O466 2.004 . S
Co462 O472 2.021 . S
Co462 O474 2.137 . S
Co462 O475 2.244 . S
O463 Co462 2.216 . S
O463 C470 1.247 . S
O464 Co462 2.091 . S
O464 C470 1.261 . S
C465 O474 1.247 . S
C465 O475 1.272 . S
O466 Co462 2.004 . S
O466 C471 1.259 . S
Co467 O468 2.061 . S
Co467 O473 2.052 . S
Co467 O475 2.135 . S
O468 Co467 2.061 . S
O468 C471 1.235 . S
C469 O472 1.238 . S
C469 O473 1.241 . S
C470 O463 1.247 . S
C470 O464 1.261 . S
C471 O466 1.259 . S
C471 O468 1.235 . S
O472 Co462 2.021 . S
O472 C469 1.238 . S
O473 Co467 2.052 . S
O473 C469 1.241 . S
O474 Co462 2.137 . S
O474 C465 1.247 . S
O475 Co462 2.244 . S
O475 C465 1.272 . S
O475 Co467 2.135 . S
Co476 O477 2.216 . S
Co476 O478 2.091 . S
Co476 O480 2.004 . S
Co476 O486 2.021 . S
Co476 O488 2.137 . S
Co476 O489 2.244 . S
O477 Co476 2.216 . S
O477 C484 1.247 . S
O478 Co476 2.091 . S
O478 C484 1.261 . S
C479 O488 1.247 . S
C479 O489 1.272 . S
O480 Co476 2.004 . S
O480 C485 1.259 . S
Co481 O482 2.061 . S
Co481 O487 2.052 . S
Co481 O489 2.135 . S
O482 Co481 2.061 . S
O482 C485 1.235 . S
C483 O486 1.238 . S
C483 O487 1.241 . S
C484 O477 1.247 . S
C484 O478 1.261 . S
C485 O480 1.259 . S
C485 O482 1.235 . S
O486 Co476 2.021 . S
O486 C483 1.238 . S
O487 Co481 2.052 . S
O487 C483 1.241 . S
O488 Co476 2.137 . S
O488 C479 1.247 . S
O489 Co476 2.244 . S
O489 C479 1.272 . S
O489 Co481 2.135 . S
Co490 O491 2.216 . S
Co490 O492 2.091 . S
Co490 O494 2.004 . S
Co490 O500 2.021 . S
Co490 O502 2.137 . S
Co490 O503 2.244 . S
O491 Co490 2.216 . S
O491 C498 1.247 . S
O492 Co490 2.091 . S
O492 C498 1.261 . S
C493 O502 1.247 . S
C493 O503 1.272 . S
O494 Co490 2.004 . S
O494 C499 1.259 . S
Co495 O496 2.061 . S
Co495 O501 2.052 . S
Co495 O503 2.135 . S
O496 Co495 2.061 . S
O496 C499 1.235 . S
C497 O500 1.238 . S
C497 O501 1.241 . S
C498 O491 1.247 . S
C498 O492 1.261 . S
C499 O494 1.259 . S
C499 O496 1.235 . S
O500 Co490 2.021 . S
O500 C497 1.238 . S
O501 Co495 2.052 . S
O501 C497 1.241 . S
O502 Co490 2.137 . S
O502 C493 1.247 . S
O503 Co490 2.244 . S
O503 C493 1.272 . S
O503 Co495 2.135 . S
H504 C512 0.950 . S
H505 C517 0.950 . S
H506 C514 0.950 . S
H507 C516 0.950 . S
H508 C518 0.950 . S
H509 C520 0.950 . S
H510 C522 0.950 . S
H511 C523 0.950 . S
C512 H504 0.950 . S
C512 C513 1.386 . S
C512 C514 1.391 . S
C513 C512 1.386 . S
C513 C517 1.393 . S
C514 H506 0.950 . S
C514 C512 1.391 . S
C514 C515 1.400 . S
C515 C514 1.400 . S
C515 C516 1.398 . S
C515 C521 1.491 . S
C516 H507 0.950 . S
C516 C515 1.398 . S
C516 C517 1.391 . S
C517 H505 0.950 . S
C517 C513 1.393 . S
C517 C516 1.391 . S
C518 H508 0.950 . S
C518 C519 1.386 . S
C518 C520 1.391 . S
C519 C518 1.386 . S
C519 C523 1.393 . S
C520 H509 0.950 . S
C520 C518 1.391 . S
C520 C521 1.400 . S
C521 C515 1.491 . S
C521 C520 1.400 . S
C521 C522 1.398 . S
C522 H510 0.950 . S
C522 C521 1.398 . S
C522 C523 1.391 . S
C523 H511 0.950 . S
C523 C519 1.393 . S
C523 C522 1.391 . S
H524 C532 0.950 . S
H525 C537 0.950 . S
H526 C534 0.950 . S
H527 C536 0.950 . S
H528 C538 0.950 . S
H529 C540 0.950 . S
H530 C542 0.950 . S
H531 C543 0.950 . S
C532 H524 0.950 . S
C532 C533 1.386 . S
C532 C534 1.391 . S
C533 C532 1.386 . S
C533 C537 1.393 . S
C534 H526 0.950 . S
C534 C532 1.391 . S
C534 C535 1.400 . S
C535 C534 1.400 . S
C535 C536 1.398 . S
C535 C541 1.491 . S
C536 H527 0.950 . S
C536 C535 1.398 . S
C536 C537 1.391 . S
C537 H525 0.950 . S
C537 C533 1.393 . S
C537 C536 1.391 . S
C538 H528 0.950 . S
C538 C539 1.386 . S
C538 C540 1.391 . S
C539 C538 1.386 . S
C539 C543 1.393 . S
C540 H529 0.950 . S
C540 C538 1.391 . S
C540 C541 1.400 . S
C541 C535 1.491 . S
C541 C540 1.400 . S
C541 C542 1.398 . S
C542 H530 0.950 . S
C542 C541 1.398 . S
C542 C543 1.391 . S
C543 H531 0.950 . S
C543 C539 1.393 . S
C543 C542 1.391 . S
H544 C552 0.950 . S
H545 C557 0.950 . S
H546 C554 0.950 . S
H547 C556 0.950 . S
H548 C558 0.950 . S
H549 C560 0.950 . S
H550 C562 0.950 . S
H551 C563 0.950 . S
C552 H544 0.950 . S
C552 C553 1.386 . S
C552 C554 1.391 . S
C553 C552 1.386 . S
C553 C557 1.393 . S
C554 H546 0.950 . S
C554 C552 1.391 . S
C554 C555 1.400 . S
C555 C554 1.400 . S
C555 C556 1.398 . S
C555 C561 1.491 . S
C556 H547 0.950 . S
C556 C555 1.398 . S
C556 C557 1.391 . S
C557 H545 0.950 . S
C557 C553 1.393 . S
C557 C556 1.391 . S
C558 H548 0.950 . S
C558 C559 1.386 . S
C558 C560 1.391 . S
C559 C558 1.386 . S
C559 C563 1.393 . S
C560 H549 0.950 . S
C560 C558 1.391 . S
C560 C561 1.400 . S
C561 C555 1.491 . S
C561 C560 1.400 . S
C561 C562 1.398 . S
C562 H550 0.950 . S
C562 C561 1.398 . S
C562 C563 1.391 . S
C563 H551 0.950 . S
C563 C559 1.393 . S
C563 C562 1.391 . S
H564 C572 0.950 . S
H565 C577 0.950 . S
H566 C574 0.950 . S
H567 C576 0.950 . S
H568 C578 0.950 . S
H569 C580 0.950 . S
H570 C582 0.950 . S
H571 C583 0.950 . S
C572 H564 0.950 . S
C572 C573 1.386 . S
C572 C574 1.391 1_556 S
C573 C572 1.386 . S
C573 C577 1.393 . S
C574 H566 0.950 . S
C574 C572 1.391 1_554 S
C574 C575 1.400 . S
C575 C574 1.400 . S
C575 C576 1.398 . S
C575 C581 1.491 . S
C576 H567 0.950 . S
C576 C575 1.398 . S
C576 C577 1.391 1_554 S
C577 H565 0.950 . S
C577 C573 1.393 . S
C577 C576 1.391 1_556 S
C578 H568 0.950 . S
C578 C579 1.386 . S
C578 C580 1.391 . S
C579 C578 1.386 . S
C579 C583 1.393 . S
C580 H569 0.950 . S
C580 C578 1.391 . S
C580 C581 1.400 . S
C581 C575 1.491 . S
C581 C580 1.400 . S
C581 C582 1.398 . S
C582 H570 0.950 . S
C582 C581 1.398 . S
C582 C583 1.391 . S
C583 H571 0.950 . S
C583 C579 1.393 . S
C583 C582 1.391 . S
H584 C592 0.950 . S
H585 C597 0.950 . S
H586 C594 0.950 . S
H587 C596 0.950 . S
H588 C598 0.950 . S
H589 C600 0.950 . S
H590 C602 0.950 . S
H591 C603 0.950 . S
C592 H584 0.950 . S
C592 C593 1.386 . S
C592 C594 1.391 . S
C593 C592 1.386 . S
C593 C597 1.393 . S
C594 H586 0.950 . S
C594 C592 1.391 . S
C594 C595 1.400 . S
C595 C594 1.400 . S
C595 C596 1.398 . S
C595 C601 1.491 . S
C596 H587 0.950 . S
C596 C595 1.398 . S
C596 C597 1.391 . S
C597 H585 0.950 . S
C597 C593 1.393 . S
C597 C596 1.391 . S
C598 H588 0.950 . S
C598 C599 1.386 . S
C598 C600 1.391 1_556 S
C599 C598 1.386 . S
C599 C603 1.393 . S
C600 H589 0.950 . S
C600 C598 1.391 1_554 S
C600 C601 1.400 . S
C601 C595 1.491 . S
C601 C600 1.400 . S
C601 C602 1.398 . S
C602 H590 0.950 . S
C602 C601 1.398 . S
C602 C603 1.391 1_554 S
C603 H591 0.950 . S
C603 C599 1.393 . S
C603 C602 1.391 1_556 S
H604 C612 0.950 . S
H605 C617 0.950 . S
H606 C614 0.950 . S
H607 C616 0.950 . S
H608 C618 0.950 . S
H609 C620 0.950 . S
H610 C622 0.950 . S
H611 C623 0.950 . S
C612 H604 0.950 . S
C612 C613 1.386 . S
C612 C614 1.391 . S
C613 C612 1.386 . S
C613 C617 1.393 . S
C614 H606 0.950 . S
C614 C612 1.391 . S
C614 C615 1.400 . S
C615 C614 1.400 . S
C615 C616 1.398 . S
C615 C621 1.491 . S
C616 H607 0.950 . S
C616 C615 1.398 . S
C616 C617 1.391 . S
C617 H605 0.950 . S
C617 C613 1.393 . S
C617 C616 1.391 . S
C618 H608 0.950 . S
C618 C619 1.386 . S
C618 C620 1.391 1_556 S
C619 C618 1.386 . S
C619 C623 1.393 . S
C620 H609 0.950 . S
C620 C618 1.391 1_554 S
C620 C621 1.400 . S
C621 C615 1.491 . S
C621 C620 1.400 . S
C621 C622 1.398 . S
C622 H610 0.950 . S
C622 C621 1.398 . S
C622 C623 1.391 1_554 S
C623 H611 0.950 . S
C623 C619 1.393 . S
C623 C622 1.391 1_556 S
H624 C632 0.950 . S
H625 C637 0.950 . S
H626 C634 0.950 . S
H627 C636 0.950 . S
H628 C638 0.950 . S
H629 C640 0.950 . S
H630 C642 0.950 . S
H631 C643 0.950 . S
C632 H624 0.950 . S
C632 C633 1.386 . S
C632 C634 1.391 . S
C633 C632 1.386 . S
C633 C637 1.393 . S
C634 H626 0.950 . S
C634 C632 1.391 . S
C634 C635 1.400 . S
C635 C634 1.400 . S
C635 C636 1.398 . S
C635 C641 1.491 . S
C636 H627 0.950 . S
C636 C635 1.398 . S
C636 C637 1.391 . S
C637 H625 0.950 . S
C637 C633 1.393 . S
C637 C636 1.391 . S
C638 H628 0.950 . S
C638 C639 1.386 . S
C638 C640 1.391 . S
C639 C638 1.386 . S
C639 C643 1.393 . S
C640 H629 0.950 . S
C640 C638 1.391 . S
C640 C641 1.400 . S
C641 C635 1.491 . S
C641 C640 1.400 . S
C641 C642 1.398 . S
C642 H630 0.950 . S
C642 C641 1.398 . S
C642 C643 1.391 . S
C643 H631 0.950 . S
C643 C639 1.393 . S
C643 C642 1.391 . S
H644 C652 0.950 . S
H645 C657 0.950 . S
H646 C654 0.950 . S
H647 C656 0.950 . S
H648 C658 0.950 . S
H649 C660 0.950 . S
H650 C662 0.950 . S
H651 C663 0.950 . S
C652 H644 0.950 . S
C652 C653 1.386 . S
C652 C654 1.391 . S
C653 C652 1.386 . S
C653 C657 1.393 . S
C654 H646 0.950 . S
C654 C652 1.391 . S
C654 C655 1.400 . S
C655 C654 1.400 . S
C655 C656 1.398 . S
C655 C661 1.491 . S
C656 H647 0.950 . S
C656 C655 1.398 . S
C656 C657 1.391 . S
C657 H645 0.950 . S
C657 C653 1.393 . S
C657 C656 1.391 . S
C658 H648 0.950 . S
C658 C659 1.386 . S
C658 C660 1.391 . S
C659 C658 1.386 . S
C659 C663 1.393 . S
C660 H649 0.950 . S
C660 C658 1.391 . S
C660 C661 1.400 . S
C661 C655 1.491 . S
C661 C660 1.400 . S
C661 C662 1.398 . S
C662 H650 0.950 . S
C662 C661 1.398 . S
C662 C663 1.391 . S
C663 H651 0.950 . S
C663 C659 1.393 . S
C663 C662 1.391 . S
H664 C672 0.950 . S
H665 C677 0.950 . S
H666 C674 0.950 . S
H667 C676 0.950 . S
H668 C678 0.950 . S
H669 C680 0.950 . S
H670 C682 0.950 . S
H671 C683 0.950 . S
C672 H664 0.950 . S
C672 C673 1.386 . S
C672 C674 1.391 . S
C673 C672 1.386 . S
C673 C677 1.393 . S
C674 H666 0.950 . S
C674 C672 1.391 . S
C674 C675 1.400 . S
C675 C674 1.400 . S
C675 C676 1.398 . S
C675 C681 1.491 . S
C676 H667 0.950 . S
C676 C675 1.398 . S
C676 C677 1.391 . S
C677 H665 0.950 . S
C677 C673 1.393 . S
C677 C676 1.391 . S
C678 H668 0.950 . S
C678 C679 1.386 . S
C678 C680 1.391 . S
C679 C678 1.386 . S
C679 C683 1.393 . S
C680 H669 0.950 . S
C680 C678 1.391 . S
C680 C681 1.400 . S
C681 C675 1.491 . S
C681 C680 1.400 . S
C681 C682 1.398 . S
C682 H670 0.950 . S
C682 C681 1.398 . S
C682 C683 1.391 . S
C683 H671 0.950 . S
C683 C679 1.393 . S
C683 C682 1.391 . S
H684 C692 0.950 . S
H685 C697 0.950 . S
H686 C694 0.950 . S
H687 C696 0.950 . S
H688 C698 0.950 . S
H689 C700 0.950 . S
H690 C702 0.950 . S
H691 C703 0.950 . S
C692 H684 0.950 . S
C692 C693 1.386 . S
C692 C694 1.391 . S
C693 C692 1.386 . S
C693 C697 1.393 . S
C694 H686 0.950 . S
C694 C692 1.391 . S
C694 C695 1.400 . S
C695 C694 1.400 . S
C695 C696 1.398 . S
C695 C701 1.491 . S
C696 H687 0.950 . S
C696 C695 1.398 . S
C696 C697 1.391 . S
C697 H685 0.950 . S
C697 C693 1.393 . S
C697 C696 1.391 . S
C698 H688 0.950 . S
C698 C699 1.386 . S
C698 C700 1.391 1_554 S
C699 C698 1.386 . S
C699 C703 1.393 . S
C700 H689 0.950 . S
C700 C698 1.391 1_556 S
C700 C701 1.400 . S
C701 C695 1.491 . S
C701 C700 1.400 . S
C701 C702 1.398 . S
C702 H690 0.950 . S
C702 C701 1.398 . S
C702 C703 1.391 1_556 S
C703 H691 0.950 . S
C703 C699 1.393 . S
C703 C702 1.391 1_554 S
H704 C712 0.950 . S
H705 C717 0.950 . S
H706 C714 0.950 . S
H707 C716 0.950 . S
H708 C718 0.950 . S
H709 C720 0.950 . S
H710 C722 0.950 . S
H711 C723 0.950 . S
C712 H704 0.950 . S
C712 C713 1.386 . S
C712 C714 1.391 1_554 S
C713 C712 1.386 . S
C713 C717 1.393 . S
C714 H706 0.950 . S
C714 C712 1.391 1_556 S
C714 C715 1.400 . S
C715 C714 1.400 . S
C715 C716 1.398 . S
C715 C721 1.491 . S
C716 H707 0.950 . S
C716 C715 1.398 . S
C716 C717 1.391 1_556 S
C717 H705 0.950 . S
C717 C713 1.393 . S
C717 C716 1.391 1_554 S
C718 H708 0.950 . S
C718 C719 1.386 . S
C718 C720 1.391 . S
C719 C718 1.386 . S
C719 C723 1.393 . S
C720 H709 0.950 . S
C720 C718 1.391 . S
C720 C721 1.400 . S
C721 C715 1.491 . S
C721 C720 1.400 . S
C721 C722 1.398 . S
C722 H710 0.950 . S
C722 C721 1.398 . S
C722 C723 1.391 . S
C723 H711 0.950 . S
C723 C719 1.393 . S
C723 C722 1.391 . S
H724 C732 0.950 . S
H725 C737 0.950 . S
H726 C734 0.950 . S
H727 C736 0.950 . S
H728 C738 0.950 . S
H729 C740 0.950 . S
H730 C742 0.950 . S
H731 C743 0.950 . S
C732 H724 0.950 . S
C732 C733 1.386 . S
C732 C734 1.391 . S
C733 C732 1.386 . S
C733 C737 1.393 . S
C734 H726 0.950 . S
C734 C732 1.391 . S
C734 C735 1.400 . S
C735 C734 1.400 . S
C735 C736 1.398 . S
C735 C741 1.491 . S
C736 H727 0.950 . S
C736 C735 1.398 . S
C736 C737 1.391 . S
C737 H725 0.950 . S
C737 C733 1.393 . S
C737 C736 1.391 . S
C738 H728 0.950 . S
C738 C739 1.386 . S
C738 C740 1.391 1_554 S
C739 C738 1.386 . S
C739 C743 1.393 . S
C740 H729 0.950 . S
C740 C738 1.391 1_556 S
C740 C741 1.400 . S
C741 C735 1.491 . S
C741 C740 1.400 . S
C741 C742 1.398 . S
C742 H730 0.950 . S
C742 C741 1.398 . S
C742 C743 1.391 1_556 S
C743 H731 0.950 . S
C743 C739 1.393 . S
C743 C742 1.391 1_554 S
H744 C752 0.950 . S
H745 C757 0.950 . S
H746 C754 0.950 . S
H747 C756 0.950 . S
H748 C758 0.951 . S
H749 C760 0.950 . S
H750 C762 0.950 . S
H751 C763 0.950 . S
C752 H744 0.950 . S
C752 C753 1.386 . S
C752 C754 1.391 . S
C753 C752 1.386 . S
C753 C757 1.393 . S
C754 H746 0.950 . S
C754 C752 1.391 . S
C754 C755 1.400 . S
C755 C754 1.400 . S
C755 C756 1.398 . S
C755 C761 1.491 . S
C756 H747 0.950 . S
C756 C755 1.398 . S
C756 C757 1.391 . S
C757 H745 0.950 . S
C757 C753 1.393 . S
C757 C756 1.391 . S
C758 H748 0.951 . S
C758 C759 1.386 . S
C758 C760 1.391 . S
C759 C758 1.386 . S
C759 C763 1.393 . S
C760 H749 0.950 . S
C760 C758 1.391 . S
C760 C761 1.400 . S
C761 C755 1.491 . S
C761 C760 1.400 . S
C761 C762 1.398 . S
C762 H750 0.950 . S
C762 C761 1.398 . S
C762 C763 1.391 . S
C763 H751 0.950 . S
C763 C759 1.393 . S
C763 C762 1.391 . S
H764 C772 0.950 . S
H765 C777 0.950 . S
H766 C774 0.950 . S
H767 C776 0.950 . S
H768 C778 0.950 . S
H769 C780 0.950 . S
H770 C782 0.950 . S
H771 C783 0.950 . S
C772 H764 0.950 . S
C772 C773 1.386 . S
C772 C774 1.391 . S
C773 C772 1.386 . S
C773 C777 1.393 . S
C774 H766 0.950 . S
C774 C772 1.391 . S
C774 C775 1.400 . S
C775 C774 1.400 . S
C775 C776 1.398 . S
C775 C781 1.491 . S
C776 H767 0.950 . S
C776 C775 1.398 . S
C776 C777 1.391 . S
C777 H765 0.950 . S
C777 C773 1.393 . S
C777 C776 1.391 . S
C778 H768 0.950 . S
C778 C779 1.386 . S
C778 C780 1.391 . S
C779 C778 1.386 . S
C779 C783 1.393 . S
C780 H769 0.950 . S
C780 C778 1.391 . S
C780 C781 1.400 . S
C781 C775 1.491 . S
C781 C780 1.400 . S
C781 C782 1.398 . S
C782 H770 0.950 . S
C782 C781 1.398 . S
C782 C783 1.391 . S
C783 H771 0.950 . S
C783 C779 1.393 . S
C783 C782 1.391 . S
H784 C792 0.950 . S
H785 C797 0.950 . S
H786 C794 0.950 . S
H787 C796 0.950 . S
H788 C798 0.950 . S
H789 C800 0.950 . S
H790 C802 0.950 . S
H791 C803 0.950 . S
C792 H784 0.950 . S
C792 C793 1.386 . S
C792 C794 1.391 . S
C793 C792 1.386 . S
C793 C797 1.393 . S
C794 H786 0.950 . S
C794 C792 1.391 . S
C794 C795 1.400 . S
C795 C794 1.400 . S
C795 C796 1.398 . S
C795 C801 1.491 . S
C796 H787 0.950 . S
C796 C795 1.398 . S
C796 C797 1.391 . S
C797 H785 0.950 . S
C797 C793 1.393 . S
C797 C796 1.391 . S
C798 H788 0.950 . S
C798 C799 1.386 . S
C798 C800 1.391 . S
C799 C798 1.386 . S
C799 C803 1.393 . S
C800 H789 0.950 . S
C800 C798 1.391 . S
C800 C801 1.400 . S
C801 C795 1.491 . S
C801 C800 1.400 . S
C801 C802 1.398 . S
C802 H790 0.950 . S
C802 C801 1.398 . S
C802 C803 1.391 . S
C803 H791 0.950 . S
C803 C799 1.393 . S
C803 C802 1.391 . S
H804 C812 0.950 . S
H805 C817 0.950 . S
H806 C814 0.950 . S
H807 C816 0.950 . S
H808 C818 0.950 1_565 S
H809 C820 0.950 1_565 S
H810 C822 0.950 . S
H811 C823 0.950 . S
C812 H804 0.950 . S
C812 C813 1.386 . S
C812 C814 1.391 . S
C813 C812 1.386 . S
C813 C817 1.393 . S
C814 H806 0.950 . S
C814 C812 1.391 . S
C814 C815 1.400 . S
C815 C814 1.400 . S
C815 C816 1.398 . S
C815 C821 1.491 . S
C816 H807 0.950 . S
C816 C815 1.398 . S
C816 C817 1.391 . S
C817 H805 0.950 . S
C817 C813 1.393 . S
C817 C816 1.391 . S
C818 H808 0.950 1_545 S
C818 C819 1.386 . S
C818 C820 1.391 . S
C819 C818 1.386 . S
C819 C823 1.393 . S
C820 H809 0.950 1_545 S
C820 C818 1.391 . S
C820 C821 1.400 . S
C821 C815 1.491 . S
C821 C820 1.400 . S
C821 C822 1.398 . S
C822 H810 0.950 . S
C822 C821 1.398 . S
C822 C823 1.391 . S
C823 H811 0.950 . S
C823 C819 1.393 . S
C823 C822 1.391 . S
H824 C832 0.950 . S
H825 C837 0.950 1_655 S
H826 C834 0.950 . S
H827 C836 0.950 1_655 S
H828 C838 0.950 . S
H829 C840 0.946 1_655 S
H830 C842 0.950 . S
H831 C843 0.950 . S
C832 H824 0.950 . S
C832 C833 1.386 . S
C832 C834 1.391 . S
C833 C832 1.386 . S
C833 C837 1.393 . S
C834 H826 0.950 . S
C834 C832 1.391 . S
C834 C835 1.400 . S
C835 C834 1.400 . S
C835 C836 1.398 . S
C835 C841 1.491 . S
C836 H827 0.950 1_455 S
C836 C835 1.398 . S
C836 C837 1.391 . S
C837 H825 0.950 1_455 S
C837 C833 1.393 . S
C837 C836 1.391 . S
C838 H828 0.950 . S
C838 C839 1.386 . S
C838 C840 1.391 . S
C839 C838 1.386 . S
C839 C843 1.393 . S
C840 H829 0.946 1_455 S
C840 C838 1.391 . S
C840 C841 1.400 . S
C841 C835 1.491 . S
C841 C840 1.400 . S
C841 C842 1.398 . S
C842 H830 0.950 . S
C842 C841 1.398 . S
C842 C843 1.391 . S
C843 H831 0.950 . S
C843 C839 1.393 . S
C843 C842 1.391 . S
H844 C852 0.950 . S
H845 C857 0.950 . S
H846 C854 0.950 . S
H847 C856 0.950 . S
H848 C858 0.950 . S
H849 C860 0.950 . S
H850 C862 0.950 . S
H851 C863 0.950 . S
C852 H844 0.950 . S
C852 C853 1.386 . S
C852 C854 1.391 . S
C853 C852 1.386 . S
C853 C857 1.393 . S
C854 H846 0.950 . S
C854 C852 1.391 . S
C854 C855 1.400 . S
C855 C854 1.400 . S
C855 C856 1.398 . S
C855 C861 1.491 . S
C856 H847 0.950 . S
C856 C855 1.398 . S
C856 C857 1.391 . S
C857 H845 0.950 . S
C857 C853 1.393 . S
C857 C856 1.391 . S
C858 H848 0.950 . S
C858 C859 1.386 . S
C858 C860 1.391 . S
C859 C858 1.386 . S
C859 C863 1.393 . S
C860 H849 0.950 . S
C860 C858 1.391 . S
C860 C861 1.400 . S
C861 C855 1.491 . S
C861 C860 1.400 . S
C861 C862 1.398 . S
C862 H850 0.950 . S
C862 C861 1.398 . S
C862 C863 1.391 . S
C863 H851 0.950 . S
C863 C859 1.393 . S
C863 C862 1.391 . S
H864 C872 0.950 . S
H865 C877 0.950 . S
H866 C874 0.950 . S
H867 C876 0.950 . S
H868 C878 0.950 . S
H869 C880 0.950 . S
H870 C882 0.950 . S
H871 C883 0.950 . S
C872 H864 0.950 . S
C872 C873 1.386 . S
C872 C874 1.391 . S
C873 C872 1.386 . S
C873 C877 1.393 . S
C874 H866 0.950 . S
C874 C872 1.391 . S
C874 C875 1.400 . S
C875 C874 1.400 . S
C875 C876 1.398 . S
C875 C881 1.491 . S
C876 H867 0.950 . S
C876 C875 1.398 . S
C876 C877 1.391 . S
C877 H865 0.950 . S
C877 C873 1.393 . S
C877 C876 1.391 . S
C878 H868 0.950 . S
C878 C879 1.386 . S
C878 C880 1.391 . S
C879 C878 1.386 . S
C879 C883 1.393 . S
C880 H869 0.950 . S
C880 C878 1.391 . S
C880 C881 1.400 . S
C881 C875 1.491 . S
C881 C880 1.400 . S
C881 C882 1.398 . S
C882 H870 0.950 . S
C882 C881 1.398 . S
C882 C883 1.391 . S
C883 H871 0.950 . S
C883 C879 1.393 . S
C883 C882 1.391 . S
H884 C892 0.950 . S
H885 C897 0.950 . S
H886 C894 0.950 . S
H887 C896 0.950 . S
H888 C898 0.950 . S
H889 C900 0.950 . S
H890 C902 0.950 . S
H891 C903 0.950 . S
C892 H884 0.950 . S
C892 C893 1.386 . S
C892 C894 1.391 . S
C893 C892 1.386 . S
C893 C897 1.393 . S
C894 H886 0.950 . S
C894 C892 1.391 . S
C894 C895 1.400 . S
C895 C894 1.400 . S
C895 C896 1.398 . S
C895 C901 1.491 . S
C896 H887 0.950 . S
C896 C895 1.398 . S
C896 C897 1.391 . S
C897 H885 0.950 . S
C897 C893 1.393 . S
C897 C896 1.391 . S
C898 H888 0.950 . S
C898 C899 1.386 . S
C898 C900 1.391 . S
C899 C898 1.386 . S
C899 C903 1.393 . S
C900 H889 0.950 . S
C900 C898 1.391 . S
C900 C901 1.400 . S
C901 C895 1.491 . S
C901 C900 1.400 . S
C901 C902 1.398 . S
C902 H890 0.950 . S
C902 C901 1.398 . S
C902 C903 1.391 . S
C903 H891 0.950 . S
C903 C899 1.393 . S
C903 C902 1.391 . S
H904 C912 0.950 . S
H905 C917 0.950 . S
H906 C914 0.950 . S
H907 C916 0.950 . S
H908 C918 0.950 . S
H909 C920 0.950 . S
H910 C922 0.950 . S
H911 C923 0.950 . S
C912 H904 0.950 . S
C912 C913 1.386 . S
C912 C914 1.391 . S
C913 C912 1.386 . S
C913 C917 1.393 . S
C914 H906 0.950 . S
C914 C912 1.391 . S
C914 C915 1.400 . S
C915 C914 1.400 . S
C915 C916 1.398 . S
C915 C921 1.491 . S
C916 H907 0.950 . S
C916 C915 1.398 . S
C916 C917 1.391 . S
C917 H905 0.950 . S
C917 C913 1.393 . S
C917 C916 1.391 . S
C918 H908 0.950 . S
C918 C919 1.386 . S
C918 C920 1.391 . S
C919 C918 1.386 . S
C919 C923 1.393 . S
C920 H909 0.950 . S
C920 C918 1.391 . S
C920 C921 1.400 . S
C921 C915 1.491 . S
C921 C920 1.400 . S
C921 C922 1.398 . S
C922 H910 0.950 . S
C922 C921 1.398 . S
C922 C923 1.391 . S
C923 H911 0.950 . S
C923 C919 1.393 . S
C923 C922 1.391 . S
H924 C932 0.950 . S
H925 C937 0.950 . S
H926 C934 0.950 . S
H927 C936 0.950 . S
H928 C938 0.950 . S
H929 C940 0.950 . S
H930 C942 0.950 . S
H931 C943 0.950 . S
C932 H924 0.950 . S
C932 C933 1.386 . S
C932 C934 1.391 . S
C933 C932 1.386 . S
C933 C937 1.393 . S
C934 H926 0.950 . S
C934 C932 1.391 . S
C934 C935 1.400 . S
C935 C934 1.400 . S
C935 C936 1.398 . S
C935 C941 1.491 . S
C936 H927 0.950 . S
C936 C935 1.398 . S
C936 C937 1.391 . S
C937 H925 0.950 . S
C937 C933 1.393 . S
C937 C936 1.391 . S
C938 H928 0.950 . S
C938 C939 1.386 . S
C938 C940 1.391 . S
C939 C938 1.386 . S
C939 C943 1.393 . S
C940 H929 0.950 . S
C940 C938 1.391 . S
C940 C941 1.400 . S
C941 C935 1.491 . S
C941 C940 1.400 . S
C941 C942 1.398 . S
C942 H930 0.950 . S
C942 C941 1.398 . S
C942 C943 1.391 . S
C943 H931 0.950 . S
C943 C939 1.393 . S
C943 C942 1.391 . S
H944 C952 0.950 . S
H945 C957 0.950 . S
H946 C954 0.950 . S
H947 C956 0.950 . S
H948 C958 0.950 . S
H949 C960 0.950 . S
H950 C962 0.950 . S
H951 C963 0.950 . S
C952 H944 0.950 . S
C952 C953 1.386 . S
C952 C954 1.391 . S
C953 C952 1.386 . S
C953 C957 1.393 . S
C954 H946 0.950 . S
C954 C952 1.391 . S
C954 C955 1.400 . S
C955 C954 1.400 . S
C955 C956 1.398 . S
C955 C961 1.491 . S
C956 H947 0.950 . S
C956 C955 1.398 . S
C956 C957 1.391 . S
C957 H945 0.950 . S
C957 C953 1.393 . S
C957 C956 1.391 . S
C958 H948 0.950 . S
C958 C959 1.386 . S
C958 C960 1.391 . S
C959 C958 1.386 . S
C959 C963 1.393 . S
C960 H949 0.950 . S
C960 C958 1.391 . S
C960 C961 1.400 . S
C961 C955 1.491 . S
C961 C960 1.400 . S
C961 C962 1.398 . S
C962 H950 0.950 . S
C962 C961 1.398 . S
C962 C963 1.391 . S
C963 H951 0.950 . S
C963 C959 1.393 . S
C963 C962 1.391 . S
H964 C972 0.950 . S
H965 C977 0.950 . S
H966 C974 0.950 . S
H967 C976 0.950 . S
H968 C978 0.950 . S
H969 C980 0.950 . S
H970 C982 0.950 . S
H971 C983 0.950 . S
C972 H964 0.950 . S
C972 C973 1.386 . S
C972 C974 1.391 . S
C973 C972 1.386 . S
C973 C977 1.393 . S
C974 H966 0.950 . S
C974 C972 1.391 . S
C974 C975 1.400 . S
C975 C974 1.400 . S
C975 C976 1.398 . S
C975 C981 1.491 . S
C976 H967 0.950 . S
C976 C975 1.398 . S
C976 C977 1.391 . S
C977 H965 0.950 . S
C977 C973 1.393 . S
C977 C976 1.391 . S
C978 H968 0.950 . S
C978 C979 1.386 . S
C978 C980 1.391 . S
C979 C978 1.386 . S
C979 C983 1.393 . S
C980 H969 0.950 . S
C980 C978 1.391 . S
C980 C981 1.400 . S
C981 C975 1.491 . S
C981 C980 1.400 . S
C981 C982 1.398 . S
C982 H970 0.950 . S
C982 C981 1.398 . S
C982 C983 1.391 . S
C983 H971 0.950 . S
C983 C979 1.393 . S
C983 C982 1.391 . S
H984 C992 0.950 . S
H985 C997 0.950 . S
H986 C994 0.950 . S
H987 C996 0.950 . S
H988 C998 0.950 . S
H989 C1000 0.950 . S
H990 C1002 0.950 . S
H991 C1003 0.950 . S
C992 H984 0.950 . S
C992 C993 1.386 . S
C992 C994 1.391 . S
C993 C992 1.386 . S
C993 C997 1.393 . S
C994 H986 0.950 . S
C994 C992 1.391 . S
C994 C995 1.400 . S
C995 C994 1.400 . S
C995 C996 1.398 . S
C995 C1001 1.491 . S
C996 H987 0.950 . S
C996 C995 1.398 . S
C996 C997 1.391 . S
C997 H985 0.950 . S
C997 C993 1.393 . S
C997 C996 1.391 . S
C998 H988 0.950 . S
C998 C999 1.386 . S
C998 C1000 1.391 . S
C999 C998 1.386 . S
C999 C1003 1.393 . S
C1000 H989 0.950 . S
C1000 C998 1.391 . S
C1000 C1001 1.400 . S
C1001 C995 1.491 . S
C1001 C1000 1.400 . S
C1001 C1002 1.398 . S
C1002 H990 0.950 . S
C1002 C1001 1.398 . S
C1002 C1003 1.391 . S
C1003 H991 0.950 . S
C1003 C999 1.393 . S
C1003 C1002 1.391 . S
H1004 C1012 0.950 . S
H1005 C1017 0.950 . S
H1006 C1014 0.950 . S
H1007 C1016 0.950 . S
H1008 C1018 0.950 . S
H1009 C1020 0.950 . S
H1010 C1022 0.950 . S
H1011 C1023 0.950 . S
C1012 H1004 0.950 . S
C1012 C1013 1.386 . S
C1012 C1014 1.391 . S
C1013 C1012 1.386 . S
C1013 C1017 1.393 . S
C1014 H1006 0.950 . S
C1014 C1012 1.391 . S
C1014 C1015 1.400 . S
C1015 C1014 1.400 . S
C1015 C1016 1.398 . S
C1015 C1021 1.491 . S
C1016 H1007 0.950 . S
C1016 C1015 1.398 . S
C1016 C1017 1.391 . S
C1017 H1005 0.950 . S
C1017 C1013 1.393 . S
C1017 C1016 1.391 . S
C1018 H1008 0.950 . S
C1018 C1019 1.386 . S
C1018 C1020 1.391 . S
C1019 C1018 1.386 . S
C1019 C1023 1.393 . S
C1020 H1009 0.950 . S
C1020 C1018 1.391 . S
C1020 C1021 1.400 . S
C1021 C1015 1.491 . S
C1021 C1020 1.400 . S
C1021 C1022 1.398 . S
C1022 H1010 0.950 . S
C1022 C1021 1.398 . S
C1022 C1023 1.391 . S
C1023 H1011 0.950 . S
C1023 C1019 1.393 . S
C1023 C1022 1.391 . S
H1024 C1032 0.950 . S
H1025 C1037 0.950 . S
H1026 C1034 0.950 . S
H1027 C1036 0.950 . S
H1028 C1038 0.950 . S
H1029 C1040 0.950 . S
H1030 C1042 0.950 . S
H1031 C1043 0.950 . S
C1032 H1024 0.950 . S
C1032 C1033 1.386 . S
C1032 C1034 1.391 . S
C1033 C1032 1.386 . S
C1033 C1037 1.393 . S
C1034 H1026 0.950 . S
C1034 C1032 1.391 . S
C1034 C1035 1.400 . S
C1035 C1034 1.400 . S
C1035 C1036 1.398 . S
C1035 C1041 1.491 . S
C1036 H1027 0.950 . S
C1036 C1035 1.398 . S
C1036 C1037 1.391 . S
C1037 H1025 0.950 . S
C1037 C1033 1.393 . S
C1037 C1036 1.391 . S
C1038 H1028 0.950 . S
C1038 C1039 1.386 . S
C1038 C1040 1.391 . S
C1039 C1038 1.386 . S
C1039 C1043 1.393 . S
C1040 H1029 0.950 . S
C1040 C1038 1.391 . S
C1040 C1041 1.400 . S
C1041 C1035 1.491 . S
C1041 C1040 1.400 . S
C1041 C1042 1.398 . S
C1042 H1030 0.950 . S
C1042 C1041 1.398 . S
C1042 C1043 1.391 . S
C1043 H1031 0.950 . S
C1043 C1039 1.393 . S
C1043 C1042 1.391 . S
H1044 C1052 0.950 . S
H1045 C1057 0.950 . S
H1046 C1054 0.950 . S
H1047 C1056 0.950 . S
H1048 C1058 0.950 . S
H1049 C1060 0.950 . S
H1050 C1062 0.950 . S
H1051 C1063 0.950 . S
C1052 H1044 0.950 . S
C1052 C1053 1.386 . S
C1052 C1054 1.391 . S
C1053 C1052 1.386 . S
C1053 C1057 1.393 . S
C1054 H1046 0.950 . S
C1054 C1052 1.391 . S
C1054 C1055 1.400 . S
C1055 C1054 1.400 . S
C1055 C1056 1.398 . S
C1055 C1061 1.491 . S
C1056 H1047 0.950 . S
C1056 C1055 1.398 . S
C1056 C1057 1.391 . S
C1057 H1045 0.950 . S
C1057 C1053 1.393 . S
C1057 C1056 1.391 . S
C1058 H1048 0.950 . S
C1058 C1059 1.386 . S
C1058 C1060 1.391 . S
C1059 C1058 1.386 . S
C1059 C1063 1.393 . S
C1060 H1049 0.950 . S
C1060 C1058 1.391 . S
C1060 C1061 1.400 . S
C1061 C1055 1.491 . S
C1061 C1060 1.400 . S
C1061 C1062 1.398 . S
C1062 H1050 0.950 . S
C1062 C1061 1.398 . S
C1062 C1063 1.391 . S
C1063 H1051 0.950 . S
C1063 C1059 1.393 . S
C1063 C1062 1.391 . S
H1064 C1072 0.950 . S
H1065 C1077 0.950 . S
H1066 C1074 0.950 . S
H1067 C1076 0.950 . S
H1068 C1078 0.950 . S
H1069 C1080 0.950 . S
H1070 C1082 0.950 . S
H1071 C1083 0.950 . S
C1072 H1064 0.950 . S
C1072 C1073 1.386 . S
C1072 C1074 1.391 . S
C1073 C1072 1.386 . S
C1073 C1077 1.393 . S
C1074 H1066 0.950 . S
C1074 C1072 1.391 . S
C1074 C1075 1.400 . S
C1075 C1074 1.400 . S
C1075 C1076 1.398 . S
C1075 C1081 1.491 . S
C1076 H1067 0.950 . S
C1076 C1075 1.398 . S
C1076 C1077 1.391 . S
C1077 H1065 0.950 . S
C1077 C1073 1.393 . S
C1077 C1076 1.391 . S
C1078 H1068 0.950 . S
C1078 C1079 1.386 . S
C1078 C1080 1.391 . S
C1079 C1078 1.386 . S
C1079 C1083 1.393 . S
C1080 H1069 0.950 . S
C1080 C1078 1.391 . S
C1080 C1081 1.400 . S
C1081 C1075 1.491 . S
C1081 C1080 1.400 . S
C1081 C1082 1.398 . S
C1082 H1070 0.950 . S
C1082 C1081 1.398 . S
C1082 C1083 1.391 . S
C1083 H1071 0.950 . S
C1083 C1079 1.393 . S
C1083 C1082 1.391 . S
H1084 C1092 0.950 . S
H1085 C1097 0.950 . S
H1086 C1094 0.950 . S
H1087 C1096 0.950 . S
H1088 C1098 0.950 . S
H1089 C1100 0.950 . S
H1090 C1102 0.950 . S
H1091 C1103 0.950 . S
C1092 H1084 0.950 . S
C1092 C1093 1.386 . S
C1092 C1094 1.391 . S
C1093 C1092 1.386 . S
C1093 C1097 1.393 . S
C1094 H1086 0.950 . S
C1094 C1092 1.391 . S
C1094 C1095 1.400 . S
C1095 C1094 1.400 . S
C1095 C1096 1.398 . S
C1095 C1101 1.491 . S
C1096 H1087 0.950 . S
C1096 C1095 1.398 . S
C1096 C1097 1.391 . S
C1097 H1085 0.950 . S
C1097 C1093 1.393 . S
C1097 C1096 1.391 . S
C1098 H1088 0.950 . S
C1098 C1099 1.386 . S
C1098 C1100 1.391 . S
C1099 C1098 1.386 . S
C1099 C1103 1.393 . S
C1100 H1089 0.950 . S
C1100 C1098 1.391 . S
C1100 C1101 1.400 . S
C1101 C1095 1.491 . S
C1101 C1100 1.400 . S
C1101 C1102 1.398 . S
C1102 H1090 0.950 . S
C1102 C1101 1.398 . S
C1102 C1103 1.391 . S
C1103 H1091 0.950 . S
C1103 C1099 1.393 . S
C1103 C1102 1.391 . S
H1104 C1112 0.950 . S
H1105 C1117 0.950 . S
H1106 C1114 0.950 . S
H1107 C1116 0.950 . S
H1108 C1118 0.950 . S
H1109 C1120 0.950 . S
H1110 C1122 0.950 . S
H1111 C1123 0.950 . S
C1112 H1104 0.950 . S
C1112 C1113 1.386 . S
C1112 C1114 1.391 . S
C1113 C1112 1.386 . S
C1113 C1117 1.393 . S
C1114 H1106 0.950 . S
C1114 C1112 1.391 . S
C1114 C1115 1.400 . S
C1115 C1114 1.400 . S
C1115 C1116 1.398 . S
C1115 C1121 1.491 1_455 S
C1116 H1107 0.950 . S
C1116 C1115 1.398 . S
C1116 C1117 1.391 . S
C1117 H1105 0.950 . S
C1117 C1113 1.393 . S
C1117 C1116 1.391 . S
C1118 H1108 0.950 . S
C1118 C1119 1.386 . S
C1118 C1120 1.391 . S
C1119 C1118 1.386 . S
C1119 C1123 1.393 . S
C1120 H1109 0.950 . S
C1120 C1118 1.391 . S
C1120 C1121 1.400 . S
C1121 C1115 1.491 1_655 S
C1121 C1120 1.400 . S
C1121 C1122 1.398 . S
C1122 H1110 0.950 . S
C1122 C1121 1.398 . S
C1122 C1123 1.391 . S
C1123 H1111 0.950 . S
C1123 C1119 1.393 . S
C1123 C1122 1.391 . S
H1124 C1132 0.950 . S
H1125 C1137 0.950 . S
H1126 C1134 0.950 . S
H1127 C1136 0.950 . S
H1128 C1138 0.950 . S
H1129 C1140 0.950 . S
H1130 C1142 0.950 . S
H1131 C1143 0.950 . S
C1132 H1124 0.950 . S
C1132 C1133 1.386 . S
C1132 C1134 1.391 . S
C1133 C1132 1.386 . S
C1133 C1137 1.393 . S
C1134 H1126 0.950 . S
C1134 C1132 1.391 . S
C1134 C1135 1.400 . S
C1135 C1134 1.400 . S
C1135 C1136 1.398 . S
C1135 C1141 1.491 . S
C1136 H1127 0.950 . S
C1136 C1135 1.398 . S
C1136 C1137 1.391 . S
C1137 H1125 0.950 . S
C1137 C1133 1.393 . S
C1137 C1136 1.391 . S
C1138 H1128 0.950 . S
C1138 C1139 1.386 . S
C1138 C1140 1.391 . S
C1139 C1138 1.386 . S
C1139 C1143 1.393 . S
C1140 H1129 0.950 . S
C1140 C1138 1.391 . S
C1140 C1141 1.400 . S
C1141 C1135 1.491 . S
C1141 C1140 1.400 . S
C1141 C1142 1.398 . S
C1142 H1130 0.950 . S
C1142 C1141 1.398 . S
C1142 C1143 1.391 . S
C1143 H1131 0.950 . S
C1143 C1139 1.393 . S
C1143 C1142 1.391 . S
H1144 C1152 0.950 . S
H1145 C1157 0.950 . S
H1146 C1154 0.950 1_565 S
H1147 C1156 0.950 . S
H1148 C1158 0.950 . S
H1149 C1160 0.950 1_545 S
H1150 C1162 0.950 . S
H1151 C1163 0.950 . S
C1152 H1144 0.950 . S
C1152 C1153 1.386 . S
C1152 C1154 1.391 . S
C1153 C1152 1.386 . S
C1153 C1157 1.393 . S
C1154 H1146 0.950 1_545 S
C1154 C1152 1.391 . S
C1154 C1155 1.400 . S
C1155 C1154 1.400 . S
C1155 C1156 1.398 . S
C1155 C1161 1.491 1_545 S
C1156 H1147 0.950 . S
C1156 C1155 1.398 . S
C1156 C1157 1.391 . S
C1157 H1145 0.950 . S
C1157 C1153 1.393 . S
C1157 C1156 1.391 . S
C1158 H1148 0.950 . S
C1158 C1159 1.386 . S
C1158 C1160 1.391 . S
C1159 C1158 1.386 . S
C1159 C1163 1.393 . S
C1160 H1149 0.950 1_565 S
C1160 C1158 1.391 . S
C1160 C1161 1.400 . S
C1161 C1155 1.491 1_565 S
C1161 C1160 1.400 . S
C1161 C1162 1.398 . S
C1162 H1150 0.950 . S
C1162 C1161 1.398 . S
C1162 C1163 1.391 . S
C1163 H1151 0.950 . S
C1163 C1159 1.393 . S
C1163 C1162 1.391 . S
H1164 C1172 0.950 . S
H1165 C1177 0.948 . S
H1166 C1174 0.950 . S
H1167 C1176 0.950 . S
H1168 C1178 0.950 . S
H1169 C1180 0.950 . S
H1170 C1182 0.923 1_545 S
H1171 C1183 0.948 . S
C1172 H1164 0.950 . S
C1172 C1173 1.386 . S
C1172 C1174 1.391 . S
C1173 C1172 1.386 . S
C1173 C1177 1.374 1_546 S
C1174 H1166 0.950 . S
C1174 C1172 1.391 . S
C1174 C1175 1.396 1_545 S
C1175 C1174 1.396 1_565 S
C1175 C1176 1.398 1_556 S
C1175 C1181 1.495 . S
C1176 H1167 0.950 . S
C1176 C1175 1.398 1_554 S
C1176 C1177 1.412 . S
C1177 H1165 0.948 . S
C1177 C1173 1.374 1_564 S
C1177 C1176 1.412 . S
C1178 H1168 0.950 . S
C1178 C1179 1.386 . S
C1178 C1180 1.391 . S
C1179 C1178 1.386 . S
C1179 C1183 1.393 1_554 S
C1180 H1169 0.950 . S
C1180 C1178 1.391 . S
C1180 C1181 1.393 1_554 S
C1181 C1175 1.495 . S
C1181 C1180 1.393 1_556 S
C1181 C1182 1.401 . S
C1182 H1170 0.923 1_565 S
C1182 C1181 1.401 . S
C1182 C1183 1.426 . S
C1183 H1171 0.948 . S
C1183 C1179 1.393 1_556 S
C1183 C1182 1.426 . S
H1184 C1192 0.950 . S
H1185 C1197 0.950 . S
H1186 C1194 0.950 1_655 S
H1187 C1196 0.950 . S
H1188 C1198 0.950 . S
H1189 C1200 0.950 1_455 S
H1190 C1202 0.950 . S
H1191 C1203 0.950 . S
C1192 H1184 0.950 . S
C1192 C1193 1.386 . S
C1192 C1194 1.391 . S
C1193 C1192 1.386 . S
C1193 C1197 1.393 1_554 S
C1194 H1186 0.950 1_455 S
C1194 C1192 1.391 . S
C1194 C1195 1.400 . S
C1195 C1194 1.400 . S
C1195 C1196 1.399 1_554 S
C1195 C1201 1.491 1_455 S
C1196 H1187 0.950 . S
C1196 C1195 1.399 1_556 S
C1196 C1197 1.391 . S
C1197 H1185 0.950 . S
C1197 C1193 1.393 1_556 S
C1197 C1196 1.391 . S
C1198 H1188 0.950 . S
C1198 C1199 1.386 . S
C1198 C1200 1.391 . S
C1199 C1198 1.386 . S
C1199 C1203 1.393 1_556 S
C1200 H1189 0.950 1_655 S
C1200 C1198 1.391 . S
C1200 C1201 1.402 1_556 S
C1201 C1195 1.491 1_655 S
C1201 C1200 1.402 1_554 S
C1201 C1202 1.397 . S
C1202 H1190 0.950 . S
C1202 C1201 1.397 . S
C1202 C1203 1.391 . S
C1203 H1191 0.950 . S
C1203 C1199 1.393 1_554 S
C1203 C1202 1.391 . S
H1204 C1212 0.950 . S
H1205 C1217 0.950 . S
H1206 C1214 0.950 . S
H1207 C1216 0.950 . S
H1208 C1218 0.950 . S
H1209 C1220 0.950 . S
H1210 C1222 0.950 . S
H1211 C1223 0.950 . S
C1212 H1204 0.950 . S
C1212 C1213 1.386 . S
C1212 C1214 1.391 . S
C1213 C1212 1.386 . S
C1213 C1217 1.393 1_554 S
C1214 H1206 0.950 . S
C1214 C1212 1.391 . S
C1214 C1215 1.393 1_554 S
C1215 C1214 1.393 1_556 S
C1215 C1216 1.405 . S
C1215 C1221 1.491 . S
C1216 H1207 0.950 . S
C1216 C1215 1.405 . S
C1216 C1217 1.391 . S
C1217 H1205 0.950 . S
C1217 C1213 1.393 1_556 S
C1217 C1216 1.391 . S
C1218 H1208 0.950 . S
C1218 C1219 1.386 . S
C1218 C1220 1.391 . S
C1219 C1218 1.386 . S
C1219 C1223 1.393 1_556 S
C1220 H1209 0.950 . S
C1220 C1218 1.391 . S
C1220 C1221 1.400 . S
C1221 C1215 1.491 . S
C1221 C1220 1.400 . S
C1221 C1222 1.398 1_556 S
C1222 H1210 0.950 . S
C1222 C1221 1.398 1_554 S
C1222 C1223 1.391 . S
C1223 H1211 0.950 . S
C1223 C1219 1.393 1_554 S
C1223 C1222 1.391 . S
H1224 C1232 0.950 . S
H1225 C1237 0.933 1_556 S
H1226 C1234 0.950 . S
H1227 C1236 0.950 . S
H1228 C1238 0.950 . S
H1229 C1240 0.950 . S
H1230 C1242 0.950 . S
H1231 C1243 0.950 . S
C1232 H1224 0.950 . S
C1232 C1233 1.386 . S
C1232 C1234 1.391 . S
C1233 C1232 1.386 . S
C1233 C1237 1.402 . S
C1234 H1226 0.950 . S
C1234 C1232 1.391 . S
C1234 C1235 1.400 . S
C1235 C1234 1.400 . S
C1235 C1236 1.398 . S
C1235 C1241 1.491 . S
C1236 H1227 0.950 . S
C1236 C1235 1.398 . S
C1236 C1237 1.398 . S
C1237 H1225 0.933 1_554 S
C1237 C1233 1.402 . S
C1237 C1236 1.398 . S
C1238 H1228 0.950 . S
C1238 C1239 1.386 . S
C1238 C1240 1.391 . S
C1239 C1238 1.386 . S
C1239 C1243 1.393 . S
C1240 H1229 0.950 . S
C1240 C1238 1.391 . S
C1240 C1241 1.400 . S
C1241 C1235 1.491 . S
C1241 C1240 1.400 . S
C1241 C1242 1.398 . S
C1242 H1230 0.950 . S
C1242 C1241 1.398 . S
C1242 C1243 1.391 . S
C1243 H1231 0.950 . S
C1243 C1239 1.393 . S
C1243 C1242 1.391 . S
H1244 C1252 0.950 . S
H1245 C1257 0.950 . S
H1246 C1254 0.950 . S
H1247 C1256 0.950 . S
H1248 C1258 0.950 . S
H1249 C1260 0.950 . S
H1250 C1262 0.950 . S
H1251 C1263 0.928 1_556 S
C1252 H1244 0.950 . S
C1252 C1253 1.386 . S
C1252 C1254 1.391 . S
C1253 C1252 1.386 . S
C1253 C1257 1.393 . S
C1254 H1246 0.950 . S
C1254 C1252 1.391 . S
C1254 C1255 1.400 . S
C1255 C1254 1.400 . S
C1255 C1256 1.398 . S
C1255 C1261 1.491 . S
C1256 H1247 0.950 . S
C1256 C1255 1.398 . S
C1256 C1257 1.391 . S
C1257 H1245 0.950 . S
C1257 C1253 1.393 . S
C1257 C1256 1.391 . S
C1258 H1248 0.950 . S
C1258 C1259 1.386 . S
C1258 C1260 1.391 . S
C1259 C1258 1.386 . S
C1259 C1263 1.404 . S
C1260 H1249 0.950 . S
C1260 C1258 1.391 . S
C1260 C1261 1.400 . S
C1261 C1255 1.491 . S
C1261 C1260 1.400 . S
C1261 C1262 1.398 . S
C1262 H1250 0.950 . S
C1262 C1261 1.398 . S
C1262 C1263 1.401 . S
C1263 H1251 0.928 1_554 S
C1263 C1259 1.404 . S
C1263 C1262 1.401 . S
H1264 C1272 0.950 . S
H1265 C1277 0.950 . S
H1266 C1274 0.950 . S
H1267 C1276 0.950 . S
H1268 C1278 0.950 1_556 S
H1269 C1280 0.950 . S
H1270 C1282 0.950 . S
H1271 C1283 0.950 . S
C1272 H1264 0.950 . S
C1272 C1273 1.386 . S
C1272 C1274 1.391 . S
C1273 C1272 1.386 . S
C1273 C1277 1.393 . S
C1274 H1266 0.950 . S
C1274 C1272 1.391 . S
C1274 C1275 1.400 . S
C1275 C1274 1.400 . S
C1275 C1276 1.398 . S
C1275 C1281 1.491 . S
C1276 H1267 0.950 . S
C1276 C1275 1.398 . S
C1276 C1277 1.391 . S
C1277 H1265 0.950 . S
C1277 C1273 1.393 . S
C1277 C1276 1.391 . S
C1278 H1268 0.950 1_554 S
C1278 C1279 1.386 . S
C1278 C1280 1.391 . S
C1279 C1278 1.386 . S
C1279 C1283 1.393 . S
C1280 H1269 0.950 . S
C1280 C1278 1.391 . S
C1280 C1281 1.400 . S
C1281 C1275 1.491 . S
C1281 C1280 1.400 . S
C1281 C1282 1.398 . S
C1282 H1270 0.950 . S
C1282 C1281 1.398 . S
C1282 C1283 1.391 . S
C1283 H1271 0.950 . S
C1283 C1279 1.393 . S
C1283 C1282 1.391 . S
H1284 C1292 0.950 . S
H1285 C1297 0.950 . S
H1286 C1294 0.950 . S
H1287 C1296 0.950 . S
H1288 C1298 0.950 . S
H1289 C1300 0.950 . S
H1290 C1302 0.950 . S
H1291 C1303 0.950 . S
C1292 H1284 0.950 . S
C1292 C1293 1.386 . S
C1292 C1294 1.391 . S
C1293 C1292 1.386 . S
C1293 C1297 1.393 . S
C1294 H1286 0.950 . S
C1294 C1292 1.391 . S
C1294 C1295 1.400 . S
C1295 C1294 1.400 . S
C1295 C1296 1.398 . S
C1295 C1301 1.491 . S
C1296 H1287 0.950 . S
C1296 C1295 1.398 . S
C1296 C1297 1.391 . S
C1297 H1285 0.950 . S
C1297 C1293 1.393 . S
C1297 C1296 1.391 . S
C1298 H1288 0.950 . S
C1298 C1299 1.386 . S
C1298 C1300 1.391 . S
C1299 C1298 1.386 . S
C1299 C1303 1.393 . S
C1300 H1289 0.950 . S
C1300 C1298 1.391 . S
C1300 C1301 1.400 . S
C1301 C1295 1.491 . S
C1301 C1300 1.400 . S
C1301 C1302 1.398 . S
C1302 H1290 0.950 . S
C1302 C1301 1.398 . S
C1302 C1303 1.391 . S
C1303 H1291 0.950 . S
C1303 C1299 1.393 . S
C1303 C1302 1.391 . S
H1304 C1312 0.950 . S
H1305 C1317 0.950 . S
H1306 C1314 0.950 . S
H1307 C1316 0.950 . S
H1308 C1318 0.950 . S
H1309 C1320 0.950 . S
H1310 C1322 0.950 . S
H1311 C1323 0.950 . S
C1312 H1304 0.950 . S
C1312 C1313 1.386 . S
C1312 C1314 1.391 . S
C1313 C1312 1.386 . S
C1313 C1317 1.393 . S
C1314 H1306 0.950 . S
C1314 C1312 1.391 . S
C1314 C1315 1.400 . S
C1315 C1314 1.400 . S
C1315 C1316 1.398 . S
C1315 C1321 1.491 . S
C1316 H1307 0.950 . S
C1316 C1315 1.398 . S
C1316 C1317 1.391 . S
C1317 H1305 0.950 . S
C1317 C1313 1.393 . S
C1317 C1316 1.391 . S
C1318 H1308 0.950 . S
C1318 C1319 1.386 . S
C1318 C1320 1.391 . S
C1319 C1318 1.386 . S
C1319 C1323 1.393 . S
C1320 H1309 0.950 . S
C1320 C1318 1.391 . S
C1320 C1321 1.400 . S
C1321 C1315 1.491 . S
C1321 C1320 1.400 . S
C1321 C1322 1.398 . S
C1322 H1310 0.950 . S
C1322 C1321 1.398 . S
C1322 C1323 1.391 . S
C1323 H1311 0.950 . S
C1323 C1319 1.393 . S
C1323 C1322 1.391 . S
H1324 C1332 0.950 . S
H1325 C1337 0.950 . S
H1326 C1334 0.950 . S
H1327 C1336 0.950 . S
H1328 C1338 0.950 . S
H1329 C1340 0.950 . S
H1330 C1342 0.950 . S
H1331 C1343 0.950 . S
C1332 H1324 0.950 . S
C1332 C1333 1.386 . S
C1332 C1334 1.391 . S
C1333 C1332 1.386 . S
C1333 C1337 1.393 . S
C1334 H1326 0.950 . S
C1334 C1332 1.391 . S
C1334 C1335 1.400 . S
C1335 C1334 1.400 . S
C1335 C1336 1.398 . S
C1335 C1341 1.491 . S
C1336 H1327 0.950 . S
C1336 C1335 1.398 . S
C1336 C1337 1.391 . S
C1337 H1325 0.950 . S
C1337 C1333 1.393 . S
C1337 C1336 1.391 . S
C1338 H1328 0.950 . S
C1338 C1339 1.386 . S
C1338 C1340 1.391 . S
C1339 C1338 1.386 . S
C1339 C1343 1.393 . S
C1340 H1329 0.950 . S
C1340 C1338 1.391 . S
C1340 C1341 1.400 . S
C1341 C1335 1.491 . S
C1341 C1340 1.400 . S
C1341 C1342 1.398 . S
C1342 H1330 0.950 . S
C1342 C1341 1.398 . S
C1342 C1343 1.391 . S
C1343 H1331 0.950 . S
C1343 C1339 1.393 . S
C1343 C1342 1.391 . S
H1344 C1352 0.950 . S
H1345 C1357 0.950 . S
H1346 C1354 0.950 . S
H1347 C1356 0.950 . S
H1348 C1358 0.950 . S
H1349 C1360 0.950 . S
H1350 C1362 0.950 . S
H1351 C1363 0.950 . S
C1352 H1344 0.950 . S
C1352 C1353 1.386 . S
C1352 C1354 1.391 . S
C1353 C1352 1.386 . S
C1353 C1357 1.393 . S
C1354 H1346 0.950 . S
C1354 C1352 1.391 . S
C1354 C1355 1.400 . S
C1355 C1354 1.400 . S
C1355 C1356 1.398 . S
C1355 C1361 1.491 . S
C1356 H1347 0.950 . S
C1356 C1355 1.398 . S
C1356 C1357 1.391 . S
C1357 H1345 0.950 . S
C1357 C1353 1.393 . S
C1357 C1356 1.391 . S
C1358 H1348 0.950 . S
C1358 C1359 1.386 . S
C1358 C1360 1.391 . S
C1359 C1358 1.386 . S
C1359 C1363 1.393 . S
C1360 H1349 0.950 . S
C1360 C1358 1.391 . S
C1360 C1361 1.400 . S
C1361 C1355 1.491 . S
C1361 C1360 1.400 . S
C1361 C1362 1.398 . S
C1362 H1350 0.950 . S
C1362 C1361 1.398 . S
C1362 C1363 1.391 . S
C1363 H1351 0.950 . S
C1363 C1359 1.393 . S
C1363 C1362 1.391 . S
H1364 C1372 0.950 . S
H1365 C1377 0.950 . S
H1366 C1374 0.950 . S
H1367 C1376 0.950 . S
H1368 C1378 0.950 . S
H1369 C1380 0.950 . S
H1370 C1382 0.950 . S
H1371 C1383 0.950 . S
C1372 H1364 0.950 . S
C1372 C1373 1.386 . S
C1372 C1374 1.391 . S
C1373 C1372 1.386 . S
C1373 C1377 1.393 . S
C1374 H1366 0.950 . S
C1374 C1372 1.391 . S
C1374 C1375 1.400 . S
C1375 C1374 1.400 . S
C1375 C1376 1.398 . S
C1375 C1381 1.491 . S
C1376 H1367 0.950 . S
C1376 C1375 1.398 . S
C1376 C1377 1.391 . S
C1377 H1365 0.950 . S
C1377 C1373 1.393 . S
C1377 C1376 1.391 . S
C1378 H1368 0.950 . S
C1378 C1379 1.386 . S
C1378 C1380 1.391 . S
C1379 C1378 1.386 . S
C1379 C1383 1.393 . S
C1380 H1369 0.950 . S
C1380 C1378 1.391 . S
C1380 C1381 1.400 . S
C1381 C1375 1.491 . S
C1381 C1380 1.400 . S
C1381 C1382 1.398 . S
C1382 H1370 0.950 . S
C1382 C1381 1.398 . S
C1382 C1383 1.391 . S
C1383 H1371 0.950 . S
C1383 C1379 1.393 . S
C1383 C1382 1.391 . S
H1384 C1392 0.950 . S
H1385 C1397 0.950 1_554 S
H1386 C1394 0.950 . S
H1387 C1396 0.950 . S
H1388 C1398 0.950 . S
H1389 C1400 0.950 . S
H1390 C1402 0.950 . S
H1391 C1403 0.950 . S
C1392 H1384 0.950 . S
C1392 C1393 1.386 . S
C1392 C1394 1.391 . S
C1393 C1392 1.386 . S
C1393 C1397 1.393 . S
C1394 H1386 0.950 . S
C1394 C1392 1.391 . S
C1394 C1395 1.400 . S
C1395 C1394 1.400 . S
C1395 C1396 1.398 . S
C1395 C1401 1.491 . S
C1396 H1387 0.950 . S
C1396 C1395 1.398 . S
C1396 C1397 1.391 . S
C1397 H1385 0.950 1_556 S
C1397 C1393 1.393 . S
C1397 C1396 1.391 . S
C1398 H1388 0.950 . S
C1398 C1399 1.386 . S
C1398 C1400 1.391 . S
C1399 C1398 1.386 . S
C1399 C1403 1.393 . S
C1400 H1389 0.950 . S
C1400 C1398 1.391 . S
C1400 C1401 1.400 . S
C1401 C1395 1.491 . S
C1401 C1400 1.400 . S
C1401 C1402 1.398 . S
C1402 H1390 0.950 . S
C1402 C1401 1.398 . S
C1402 C1403 1.391 . S
C1403 H1391 0.950 . S
C1403 C1399 1.393 . S
C1403 C1402 1.391 . S
H1404 C1412 0.950 . S
H1405 C1417 0.950 . S
H1406 C1414 0.950 . S
H1407 C1416 0.950 . S
H1408 C1418 0.950 . S
H1409 C1420 0.950 . S
H1410 C1422 0.950 . S
H1411 C1423 0.950 . S
C1412 H1404 0.950 . S
C1412 C1413 1.386 . S
C1412 C1414 1.391 . S
C1413 C1412 1.386 . S
C1413 C1417 1.393 . S
C1414 H1406 0.950 . S
C1414 C1412 1.391 . S
C1414 C1415 1.400 . S
C1415 C1414 1.400 . S
C1415 C1416 1.398 . S
C1415 C1421 1.491 . S
C1416 H1407 0.950 . S
C1416 C1415 1.398 . S
C1416 C1417 1.391 . S
C1417 H1405 0.950 . S
C1417 C1413 1.393 . S
C1417 C1416 1.391 . S
C1418 H1408 0.950 . S
C1418 C1419 1.386 . S
C1418 C1420 1.391 . S
C1419 C1418 1.386 . S
C1419 C1423 1.393 . S
C1420 H1409 0.950 . S
C1420 C1418 1.391 . S
C1420 C1421 1.400 . S
C1421 C1415 1.491 . S
C1421 C1420 1.400 . S
C1421 C1422 1.398 . S
C1422 H1410 0.950 . S
C1422 C1421 1.398 . S
C1422 C1423 1.391 . S
C1423 H1411 0.950 . S
C1423 C1419 1.393 . S
C1423 C1422 1.391 . S
H1424 C1432 0.950 . S
H1425 C1437 0.950 . S
H1426 C1434 0.950 . S
H1427 C1436 0.950 . S
H1428 C1438 0.950 . S
H1429 C1440 0.950 . S
H1430 C1442 0.950 . S
H1431 C1443 0.950 . S
C1432 H1424 0.950 . S
C1432 C1433 1.386 . S
C1432 C1434 1.391 . S
C1433 C1432 1.386 . S
C1433 C1437 1.393 . S
C1434 H1426 0.950 . S
C1434 C1432 1.391 . S
C1434 C1435 1.400 . S
C1435 C1434 1.400 . S
C1435 C1436 1.398 . S
C1435 C1441 1.491 . S
C1436 H1427 0.950 . S
C1436 C1435 1.398 . S
C1436 C1437 1.391 . S
C1437 H1425 0.950 . S
C1437 C1433 1.393 . S
C1437 C1436 1.391 . S
C1438 H1428 0.950 . S
C1438 C1439 1.386 . S
C1438 C1440 1.391 . S
C1439 C1438 1.386 . S
C1439 C1443 1.393 . S
C1440 H1429 0.950 . S
C1440 C1438 1.391 . S
C1440 C1441 1.400 . S
C1441 C1435 1.491 . S
C1441 C1440 1.400 . S
C1441 C1442 1.398 . S
C1442 H1430 0.950 . S
C1442 C1441 1.398 . S
C1442 C1443 1.391 . S
C1443 H1431 0.950 . S
C1443 C1439 1.393 . S
C1443 C1442 1.391 . S
H1444 C1452 0.950 . S
H1445 C1457 0.950 . S
H1446 C1454 0.950 . S
H1447 C1456 0.950 . S
H1448 C1458 0.950 . S
H1449 C1460 0.950 . S
H1450 C1462 0.950 . S
H1451 C1463 0.950 . S
C1452 H1444 0.950 . S
C1452 C1453 1.386 . S
C1452 C1454 1.391 . S
C1453 C1452 1.386 . S
C1453 C1457 1.393 . S
C1454 H1446 0.950 . S
C1454 C1452 1.391 . S
C1454 C1455 1.400 . S
C1455 C1454 1.400 . S
C1455 C1456 1.398 . S
C1455 C1461 1.491 . S
C1456 H1447 0.950 . S
C1456 C1455 1.398 . S
C1456 C1457 1.391 . S
C1457 H1445 0.950 . S
C1457 C1453 1.393 . S
C1457 C1456 1.391 . S
C1458 H1448 0.950 . S
C1458 C1459 1.386 . S
C1458 C1460 1.391 . S
C1459 C1458 1.386 . S
C1459 C1463 1.393 . S
C1460 H1449 0.950 . S
C1460 C1458 1.391 . S
C1460 C1461 1.400 . S
C1461 C1455 1.491 . S
C1461 C1460 1.400 . S
C1461 C1462 1.398 . S
C1462 H1450 0.950 . S
C1462 C1461 1.398 . S
C1462 C1463 1.391 . S
C1463 H1451 0.950 . S
C1463 C1459 1.393 . S
C1463 C1462 1.391 . S
H1464 C1472 0.950 . S
H1465 C1477 0.950 . S
H1466 C1474 0.950 . S
H1467 C1476 0.950 . S
H1468 C1478 0.950 . S
H1469 C1480 0.950 . S
H1470 C1482 0.950 . S
H1471 C1483 0.950 . S
C1472 H1464 0.950 . S
C1472 C1473 1.386 . S
C1472 C1474 1.391 . S
C1473 C1472 1.386 . S
C1473 C1477 1.393 . S
C1474 H1466 0.950 . S
C1474 C1472 1.391 . S
C1474 C1475 1.400 . S
C1475 C1474 1.400 . S
C1475 C1476 1.398 . S
C1475 C1481 1.491 . S
C1476 H1467 0.950 . S
C1476 C1475 1.398 . S
C1476 C1477 1.391 . S
C1477 H1465 0.950 . S
C1477 C1473 1.393 . S
C1477 C1476 1.391 . S
C1478 H1468 0.950 . S
C1478 C1479 1.386 . S
C1478 C1480 1.391 . S
C1479 C1478 1.386 . S
C1479 C1483 1.393 . S
C1480 H1469 0.950 . S
C1480 C1478 1.391 . S
C1480 C1481 1.400 . S
C1481 C1475 1.491 . S
C1481 C1480 1.400 . S
C1481 C1482 1.398 . S
C1482 H1470 0.950 . S
C1482 C1481 1.398 . S
C1482 C1483 1.391 . S
C1483 H1471 0.950 . S
C1483 C1479 1.393 . S
C1483 C1482 1.391 . S
H1484 C1492 0.950 . S
H1485 C1497 0.950 . S
H1486 C1494 0.950 . S
H1487 C1496 0.951 1_545 S
H1488 C1498 0.950 . S
H1489 C1500 0.950 . S
H1490 C1502 0.950 . S
H1491 C1503 0.950 . S
C1492 H1484 0.950 . S
C1492 C1493 1.386 . S
C1492 C1494 1.391 1_565 S
C1493 C1492 1.386 . S
C1493 C1497 1.393 . S
C1494 H1486 0.950 . S
C1494 C1492 1.391 1_545 S
C1494 C1495 1.400 . S
C1495 C1494 1.400 . S
C1495 C1496 1.362 1_545 S
C1495 C1501 1.491 . S
C1496 H1487 0.951 1_565 S
C1496 C1495 1.362 1_565 S
C1496 C1497 1.428 . S
C1497 H1485 0.950 . S
C1497 C1493 1.393 . S
C1497 C1496 1.428 . S
C1498 H1488 0.950 . S
C1498 C1499 1.386 . S
C1498 C1500 1.391 . S
C1499 C1498 1.386 . S
C1499 C1503 1.393 . S
C1500 H1489 0.950 . S
C1500 C1498 1.391 . S
C1500 C1501 1.400 . S
C1501 C1495 1.491 . S
C1501 C1500 1.400 . S
C1501 C1502 1.398 . S
C1502 H1490 0.950 . S
C1502 C1501 1.398 . S
C1502 C1503 1.391 . S
C1503 H1491 0.950 . S
C1503 C1499 1.393 . S
C1503 C1502 1.391 . S
H1504 C1512 0.950 . S
H1505 C1517 0.950 . S
H1506 C1514 0.936 1_655 S
H1507 C1516 0.950 . S
H1508 C1518 0.950 . S
H1509 C1520 0.950 . S
H1510 C1522 0.950 . S
H1511 C1523 0.950 . S
C1512 H1504 0.950 . S
C1512 C1513 1.386 . S
C1512 C1514 1.447 . S
C1513 C1512 1.386 . S
C1513 C1517 1.393 . S
C1514 H1506 0.936 1_455 S
C1514 C1512 1.447 . S
C1514 C1515 1.360 1_455 S
C1515 C1514 1.360 1_655 S
C1515 C1516 1.398 1_655 S
C1515 C1521 1.491 . S
C1516 H1507 0.950 . S
C1516 C1515 1.398 1_455 S
C1516 C1517 1.391 . S
C1517 H1505 0.950 . S
C1517 C1513 1.393 . S
C1517 C1516 1.391 . S
C1518 H1508 0.950 . S
C1518 C1519 1.386 . S
C1518 C1520 1.391 . S
C1519 C1518 1.386 . S
C1519 C1523 1.393 . S
C1520 H1509 0.950 . S
C1520 C1518 1.391 . S
C1520 C1521 1.400 . S
C1521 C1515 1.491 . S
C1521 C1520 1.400 . S
C1521 C1522 1.398 . S
C1522 H1510 0.950 . S
C1522 C1521 1.398 . S
C1522 C1523 1.391 . S
C1523 H1511 0.950 . S
C1523 C1519 1.393 . S
C1523 C1522 1.391 . S
H1524 C1532 0.950 . S
H1525 C1537 0.950 . S
H1526 C1534 0.950 . S
H1527 C1536 0.950 . S
H1528 C1538 0.950 . S
H1529 C1540 0.950 . S
H1530 C1542 0.950 . S
H1531 C1543 0.950 . S
C1532 H1524 0.950 . S
C1532 C1533 1.386 . S
C1532 C1534 1.391 . S
C1533 C1532 1.386 . S
C1533 C1537 1.393 . S
C1534 H1526 0.950 . S
C1534 C1532 1.391 . S
C1534 C1535 1.400 . S
C1535 C1534 1.400 . S
C1535 C1536 1.398 . S
C1535 C1541 1.491 . S
C1536 H1527 0.950 . S
C1536 C1535 1.398 . S
C1536 C1537 1.391 . S
C1537 H1525 0.950 . S
C1537 C1533 1.393 . S
C1537 C1536 1.391 . S
C1538 H1528 0.950 . S
C1538 C1539 1.386 . S
C1538 C1540 1.391 . S
C1539 C1538 1.386 . S
C1539 C1543 1.393 . S
C1540 H1529 0.950 . S
C1540 C1538 1.391 . S
C1540 C1541 1.400 . S
C1541 C1535 1.491 . S
C1541 C1540 1.400 . S
C1541 C1542 1.398 . S
C1542 H1530 0.950 . S
C1542 C1541 1.398 . S
C1542 C1543 1.391 . S
C1543 H1531 0.950 . S
C1543 C1539 1.393 . S
C1543 C1542 1.391 . S
H1544 C1552 0.950 . S
H1545 C1557 0.950 . S
H1546 C1554 0.950 . S
H1547 C1556 0.965 . S
H1548 C1558 0.950 . S
H1549 C1560 0.950 . S
H1550 C1562 0.950 . S
H1551 C1563 0.950 . S
C1552 H1544 0.950 . S
C1552 C1553 1.386 . S
C1552 C1554 1.391 1_565 S
C1553 C1552 1.386 . S
C1553 C1557 1.393 . S
C1554 H1546 0.950 . S
C1554 C1552 1.391 1_545 S
C1554 C1555 1.400 . S
C1555 C1554 1.400 . S
C1555 C1556 1.398 1_545 S
C1555 C1561 1.491 . S
C1556 H1547 0.965 . S
C1556 C1555 1.398 1_565 S
C1556 C1557 1.391 . S
C1557 H1545 0.950 . S
C1557 C1553 1.393 . S
C1557 C1556 1.391 . S
C1558 H1548 0.950 . S
C1558 C1559 1.386 . S
C1558 C1560 1.391 . S
C1559 C1558 1.386 . S
C1559 C1563 1.393 . S
C1560 H1549 0.950 . S
C1560 C1558 1.391 . S
C1560 C1561 1.400 . S
C1561 C1555 1.491 . S
C1561 C1560 1.400 . S
C1561 C1562 1.398 . S
C1562 H1550 0.950 . S
C1562 C1561 1.398 . S
C1562 C1563 1.391 . S
C1563 H1551 0.950 . S
C1563 C1559 1.393 . S
C1563 C1562 1.391 . S
H1564 C1572 0.950 . S
H1565 C1577 0.950 . S
H1566 C1574 0.950 . S
H1567 C1576 0.950 . S
H1568 C1578 0.950 . S
H1569 C1580 0.950 . S
H1570 C1582 0.950 . S
H1571 C1583 0.950 . S
C1572 H1564 0.950 . S
C1572 C1573 1.386 . S
C1572 C1574 1.391 . S
C1573 C1572 1.386 . S
C1573 C1577 1.393 . S
C1574 H1566 0.950 . S
C1574 C1572 1.391 . S
C1574 C1575 1.400 1_455 S
C1575 C1574 1.400 1_655 S
C1575 C1576 1.398 . S
C1575 C1581 1.491 . S
C1576 H1567 0.950 . S
C1576 C1575 1.398 . S
C1576 C1577 1.391 1_655 S
C1577 H1565 0.950 . S
C1577 C1573 1.393 . S
C1577 C1576 1.391 1_455 S
C1578 H1568 0.950 . S
C1578 C1579 1.386 . S
C1578 C1580 1.391 . S
C1579 C1578 1.386 . S
C1579 C1583 1.393 . S
C1580 H1569 0.950 . S
C1580 C1578 1.391 . S
C1580 C1581 1.400 . S
C1581 C1575 1.491 . S
C1581 C1580 1.400 . S
C1581 C1582 1.398 . S
C1582 H1570 0.950 . S
C1582 C1581 1.398 . S
C1582 C1583 1.391 . S
C1583 H1571 0.950 . S
C1583 C1579 1.393 . S
C1583 C1582 1.391 . S
H1584 C1592 0.950 1_554 S
H1585 C1597 0.950 . S
H1586 C1594 0.950 . S
H1587 C1596 0.950 . S
H1588 C1598 0.950 . S
H1589 C1600 0.950 . S
H1590 C1602 0.950 . S
H1591 C1603 0.950 . S
C1592 H1584 0.950 1_556 S
C1592 C1593 1.386 1_556 S
C1592 C1594 1.391 . S
C1593 C1592 1.386 1_554 S
C1593 C1597 1.393 . S
C1594 H1586 0.950 . S
C1594 C1592 1.391 . S
C1594 C1595 1.400 . S
C1595 C1594 1.400 . S
C1595 C1596 1.398 . S
C1595 C1601 1.491 . S
C1596 H1587 0.950 . S
C1596 C1595 1.398 . S
C1596 C1597 1.391 1_556 S
C1597 H1585 0.950 . S
C1597 C1593 1.393 . S
C1597 C1596 1.391 1_554 S
C1598 H1588 0.950 . S
C1598 C1599 1.386 . S
C1598 C1600 1.391 . S
C1599 C1598 1.386 . S
C1599 C1603 1.393 . S
C1600 H1589 0.950 . S
C1600 C1598 1.391 . S
C1600 C1601 1.400 . S
C1601 C1595 1.491 . S
C1601 C1600 1.400 . S
C1601 C1602 1.398 . S
C1602 H1590 0.950 . S
C1602 C1601 1.398 . S
C1602 C1603 1.391 . S
C1603 H1591 0.950 . S
C1603 C1599 1.393 . S
C1603 C1602 1.391 . S
H1604 C1612 0.950 . S
H1605 C1617 0.950 . S
H1606 C1614 0.950 . S
H1607 C1616 0.950 . S
H1608 C1618 0.950 . S
H1609 C1620 0.950 . S
H1610 C1622 0.950 . S
H1611 C1623 0.950 . S
C1612 H1604 0.950 . S
C1612 C1613 1.386 . S
C1612 C1614 1.391 1_554 S
C1613 C1612 1.386 . S
C1613 C1617 1.393 . S
C1614 H1606 0.950 . S
C1614 C1612 1.391 1_556 S
C1614 C1615 1.400 . S
C1615 C1614 1.400 . S
C1615 C1616 1.398 . S
C1615 C1621 1.491 . S
C1616 H1607 0.950 . S
C1616 C1615 1.398 . S
C1616 C1617 1.391 1_556 S
C1617 H1605 0.950 . S
C1617 C1613 1.393 . S
C1617 C1616 1.391 1_554 S
C1618 H1608 0.950 . S
C1618 C1619 1.386 . S
C1618 C1620 1.391 . S
C1619 C1618 1.386 . S
C1619 C1623 1.393 . S
C1620 H1609 0.950 . S
C1620 C1618 1.391 . S
C1620 C1621 1.400 . S
C1621 C1615 1.491 . S
C1621 C1620 1.400 . S
C1621 C1622 1.398 . S
C1622 H1610 0.950 . S
C1622 C1621 1.398 . S
C1622 C1623 1.391 . S
C1623 H1611 0.950 . S
C1623 C1619 1.393 . S
C1623 C1622 1.391 . S
H1624 C1632 0.950 . S
H1625 C1637 0.950 . S
H1626 C1634 0.950 . S
H1627 C1636 0.950 . S
H1628 C1638 0.950 . S
H1629 C1640 0.950 . S
H1630 C1642 0.950 . S
H1631 C1643 0.950 . S
C1632 H1624 0.950 . S
C1632 C1633 1.386 . S
C1632 C1634 1.391 1_554 S
C1633 C1632 1.386 . S
C1633 C1637 1.393 . S
C1634 H1626 0.950 . S
C1634 C1632 1.391 1_556 S
C1634 C1635 1.400 . S
C1635 C1634 1.400 . S
C1635 C1636 1.398 . S
C1635 C1641 1.491 . S
C1636 H1627 0.950 . S
C1636 C1635 1.398 . S
C1636 C1637 1.391 1_556 S
C1637 H1625 0.950 . S
C1637 C1633 1.393 . S
C1637 C1636 1.391 1_554 S
C1638 H1628 0.950 . S
C1638 C1639 1.386 . S
C1638 C1640 1.391 . S
C1639 C1638 1.386 . S
C1639 C1643 1.393 . S
C1640 H1629 0.950 . S
C1640 C1638 1.391 . S
C1640 C1641 1.400 . S
C1641 C1635 1.491 . S
C1641 C1640 1.400 . S
C1641 C1642 1.398 . S
C1642 H1630 0.950 . S
C1642 C1641 1.398 . S
C1642 C1643 1.391 . S
C1643 H1631 0.950 . S
C1643 C1639 1.393 . S
C1643 C1642 1.391 . S
H1644 C1652 0.950 . S
H1645 C1657 0.950 . S
H1646 C1654 0.950 . S
H1647 C1656 0.950 . S
H1648 C1658 0.950 . S
H1649 C1660 0.950 . S
H1650 C1662 0.950 . S
H1651 C1663 0.950 . S
C1652 H1644 0.950 . S
C1652 C1653 1.386 . S
C1652 C1654 1.391 . S
C1653 C1652 1.386 . S
C1653 C1657 1.393 . S
C1654 H1646 0.950 . S
C1654 C1652 1.391 . S
C1654 C1655 1.400 . S
C1655 C1654 1.400 . S
C1655 C1656 1.398 . S
C1655 C1661 1.491 . S
C1656 H1647 0.950 . S
C1656 C1655 1.398 . S
C1656 C1657 1.391 . S
C1657 H1645 0.950 . S
C1657 C1653 1.393 . S
C1657 C1656 1.391 . S
C1658 H1648 0.950 . S
C1658 C1659 1.386 . S
C1658 C1660 1.391 . S
C1659 C1658 1.386 . S
C1659 C1663 1.393 . S
C1660 H1649 0.950 . S
C1660 C1658 1.391 . S
C1660 C1661 1.400 . S
C1661 C1655 1.491 . S
C1661 C1660 1.400 . S
C1661 C1662 1.398 . S
C1662 H1650 0.950 . S
C1662 C1661 1.398 . S
C1662 C1663 1.391 . S
C1663 H1651 0.950 . S
C1663 C1659 1.393 . S
C1663 C1662 1.391 . S
H1664 C1672 0.950 . S
H1665 C1677 0.950 . S
H1666 C1674 0.950 . S
H1667 C1676 0.950 . S
H1668 C1678 0.950 . S
H1669 C1680 0.950 . S
H1670 C1682 0.950 . S
H1671 C1683 0.950 . S
C1672 H1664 0.950 . S
C1672 C1673 1.386 . S
C1672 C1674 1.391 . S
C1673 C1672 1.386 . S
C1673 C1677 1.393 . S
C1674 H1666 0.950 . S
C1674 C1672 1.391 . S
C1674 C1675 1.400 . S
C1675 C1674 1.400 . S
C1675 C1676 1.398 . S
C1675 C1681 1.491 . S
C1676 H1667 0.950 . S
C1676 C1675 1.398 . S
C1676 C1677 1.391 . S
C1677 H1665 0.950 . S
C1677 C1673 1.393 . S
C1677 C1676 1.391 . S
C1678 H1668 0.950 . S
C1678 C1679 1.386 . S
C1678 C1680 1.391 . S
C1679 C1678 1.386 . S
C1679 C1683 1.393 . S
C1680 H1669 0.950 . S
C1680 C1678 1.391 . S
C1680 C1681 1.400 . S
C1681 C1675 1.491 . S
C1681 C1680 1.400 . S
C1681 C1682 1.398 . S
C1682 H1670 0.950 . S
C1682 C1681 1.398 . S
C1682 C1683 1.391 . S
C1683 H1671 0.950 . S
C1683 C1679 1.393 . S
C1683 C1682 1.391 . S
H1684 C1692 0.950 . S
H1685 C1697 0.950 . S
H1686 C1694 0.950 . S
H1687 C1696 0.950 . S
H1688 C1698 0.950 . S
H1689 C1700 0.950 . S
H1690 C1702 0.950 . S
H1691 C1703 0.950 . S
C1692 H1684 0.950 . S
C1692 C1693 1.386 . S
C1692 C1694 1.391 . S
C1693 C1692 1.386 . S
C1693 C1697 1.393 . S
C1694 H1686 0.950 . S
C1694 C1692 1.391 . S
C1694 C1695 1.400 . S
C1695 C1694 1.400 . S
C1695 C1696 1.398 . S
C1695 C1701 1.491 . S
C1696 H1687 0.950 . S
C1696 C1695 1.398 . S
C1696 C1697 1.391 . S
C1697 H1685 0.950 . S
C1697 C1693 1.393 . S
C1697 C1696 1.391 . S
C1698 H1688 0.950 . S
C1698 C1699 1.386 . S
C1698 C1700 1.391 . S
C1699 C1698 1.386 . S
C1699 C1703 1.393 . S
C1700 H1689 0.950 . S
C1700 C1698 1.391 . S
C1700 C1701 1.400 . S
C1701 C1695 1.491 . S
C1701 C1700 1.400 . S
C1701 C1702 1.398 . S
C1702 H1690 0.950 . S
C1702 C1701 1.398 . S
C1702 C1703 1.391 . S
C1703 H1691 0.950 . S
C1703 C1699 1.393 . S
C1703 C1702 1.391 . S
H1704 C1712 0.950 . S
H1705 C1717 0.950 . S
H1706 C1714 0.950 . S
H1707 C1716 0.950 . S
H1708 C1718 0.950 . S
H1709 C1720 0.950 . S
H1710 C1722 0.950 . S
H1711 C1723 0.950 . S
C1712 H1704 0.950 . S
C1712 C1713 1.386 . S
C1712 C1714 1.391 . S
C1713 C1712 1.386 . S
C1713 C1717 1.393 . S
C1714 H1706 0.950 . S
C1714 C1712 1.391 . S
C1714 C1715 1.400 . S
C1715 C1714 1.400 . S
C1715 C1716 1.398 . S
C1715 C1721 1.491 . S
C1716 H1707 0.950 . S
C1716 C1715 1.398 . S
C1716 C1717 1.391 . S
C1717 H1705 0.950 . S
C1717 C1713 1.393 . S
C1717 C1716 1.391 . S
C1718 H1708 0.950 . S
C1718 C1719 1.386 . S
C1718 C1720 1.391 1_556 S
C1719 C1718 1.386 . S
C1719 C1723 1.393 . S
C1720 H1709 0.950 . S
C1720 C1718 1.391 1_554 S
C1720 C1721 1.400 . S
C1721 C1715 1.491 . S
C1721 C1720 1.400 . S
C1721 C1722 1.398 . S
C1722 H1710 0.950 . S
C1722 C1721 1.398 . S
C1722 C1723 1.391 1_554 S
C1723 H1711 0.950 . S
C1723 C1719 1.393 . S
C1723 C1722 1.391 1_556 S
H1724 C1732 0.950 . S
H1725 C1737 0.950 . S
H1726 C1734 0.950 . S
H1727 C1736 0.950 . S
H1728 C1738 0.950 . S
H1729 C1740 0.950 . S
H1730 C1742 0.950 . S
H1731 C1743 0.950 . S
C1732 H1724 0.950 . S
C1732 C1733 1.386 . S
C1732 C1734 1.391 . S
C1733 C1732 1.386 . S
C1733 C1737 1.393 . S
C1734 H1726 0.950 . S
C1734 C1732 1.391 . S
C1734 C1735 1.400 . S
C1735 C1734 1.400 . S
C1735 C1736 1.398 . S
C1735 C1741 1.491 . S
C1736 H1727 0.950 . S
C1736 C1735 1.398 . S
C1736 C1737 1.391 . S
C1737 H1725 0.950 . S
C1737 C1733 1.393 . S
C1737 C1736 1.391 . S
C1738 H1728 0.950 . S
C1738 C1739 1.386 . S
C1738 C1740 1.391 1_556 S
C1739 C1738 1.386 . S
C1739 C1743 1.393 . S
C1740 H1729 0.950 . S
C1740 C1738 1.391 1_554 S
C1740 C1741 1.400 . S
C1741 C1735 1.491 . S
C1741 C1740 1.400 . S
C1741 C1742 1.398 . S
C1742 H1730 0.950 . S
C1742 C1741 1.398 . S
C1742 C1743 1.391 1_554 S
C1743 H1731 0.950 . S
C1743 C1739 1.393 . S
C1743 C1742 1.391 1_556 S
H1744 C1752 0.950 . S
H1745 C1757 0.950 . S
H1746 C1754 0.950 . S
H1747 C1756 0.950 . S
H1748 C1758 0.950 . S
H1749 C1760 0.950 . S
H1750 C1762 0.950 . S
H1751 C1763 0.950 . S
C1752 H1744 0.950 . S
C1752 C1753 1.386 . S
C1752 C1754 1.391 . S
C1753 C1752 1.386 . S
C1753 C1757 1.393 . S
C1754 H1746 0.950 . S
C1754 C1752 1.391 . S
C1754 C1755 1.400 . S
C1755 C1754 1.400 . S
C1755 C1756 1.398 . S
C1755 C1761 1.491 . S
C1756 H1747 0.950 . S
C1756 C1755 1.398 . S
C1756 C1757 1.391 . S
C1757 H1745 0.950 . S
C1757 C1753 1.393 . S
C1757 C1756 1.391 . S
C1758 H1748 0.950 . S
C1758 C1759 1.386 1_554 S
C1758 C1760 1.391 . S
C1759 C1758 1.386 1_556 S
C1759 C1763 1.393 . S
C1760 H1749 0.950 . S
C1760 C1758 1.391 . S
C1760 C1761 1.400 . S
C1761 C1755 1.491 . S
C1761 C1760 1.400 . S
C1761 C1762 1.398 . S
C1762 H1750 0.950 . S
C1762 C1761 1.398 . S
C1762 C1763 1.391 1_554 S
C1763 H1751 0.950 . S
C1763 C1759 1.393 . S
C1763 C1762 1.391 1_556 S
H1764 C1772 0.950 . S
H1765 C1777 0.950 . S
H1766 C1774 0.950 . S
H1767 C1776 0.950 . S
H1768 C1778 0.950 . S
H1769 C1780 0.950 . S
H1770 C1782 0.950 . S
H1771 C1783 0.950 . S
C1772 H1764 0.950 . S
C1772 C1773 1.386 . S
C1772 C1774 1.391 . S
C1773 C1772 1.386 . S
C1773 C1777 1.393 . S
C1774 H1766 0.950 . S
C1774 C1772 1.391 . S
C1774 C1775 1.400 . S
C1775 C1774 1.400 . S
C1775 C1776 1.398 . S
C1775 C1781 1.491 . S
C1776 H1767 0.950 . S
C1776 C1775 1.398 . S
C1776 C1777 1.391 . S
C1777 H1765 0.950 . S
C1777 C1773 1.393 . S
C1777 C1776 1.391 . S
C1778 H1768 0.950 . S
C1778 C1779 1.386 . S
C1778 C1780 1.391 . S
C1779 C1778 1.386 . S
C1779 C1783 1.393 . S
C1780 H1769 0.950 . S
C1780 C1778 1.391 . S
C1780 C1781 1.400 . S
C1781 C1775 1.491 . S
C1781 C1780 1.400 . S
C1781 C1782 1.398 . S
C1782 H1770 0.950 . S
C1782 C1781 1.398 . S
C1782 C1783 1.391 . S
C1783 H1771 0.950 . S
C1783 C1779 1.393 . S
C1783 C1782 1.391 . S
H1784 C1792 0.950 . S
H1785 C1797 0.950 . S
H1786 C1794 0.950 . S
H1787 C1796 0.950 . S
H1788 C1798 0.950 . S
H1789 C1800 0.950 . S
H1790 C1802 0.950 . S
H1791 C1803 0.950 . S
C1792 H1784 0.950 . S
C1792 C1793 1.386 . S
C1792 C1794 1.391 . S
C1793 C1792 1.386 . S
C1793 C1797 1.393 . S
C1794 H1786 0.950 . S
C1794 C1792 1.391 . S
C1794 C1795 1.400 . S
C1795 C1794 1.400 . S
C1795 C1796 1.398 . S
C1795 C1801 1.491 . S
C1796 H1787 0.950 . S
C1796 C1795 1.398 . S
C1796 C1797 1.391 . S
C1797 H1785 0.950 . S
C1797 C1793 1.393 . S
C1797 C1796 1.391 . S
C1798 H1788 0.950 . S
C1798 C1799 1.386 . S
C1798 C1800 1.391 . S
C1799 C1798 1.386 . S
C1799 C1803 1.393 . S
C1800 H1789 0.950 . S
C1800 C1798 1.391 . S
C1800 C1801 1.400 . S
C1801 C1795 1.491 . S
C1801 C1800 1.400 . S
C1801 C1802 1.398 . S
C1802 H1790 0.950 . S
C1802 C1801 1.398 . S
C1802 C1803 1.391 . S
C1803 H1791 0.950 . S
C1803 C1799 1.393 . S
C1803 C1802 1.391 . S
H1804 C1812 0.950 . S
H1805 C1817 0.950 . S
H1806 C1814 0.950 . S
H1807 C1816 0.950 . S
H1808 C1818 0.950 . S
H1809 C1820 0.950 . S
H1810 C1822 0.950 . S
H1811 C1823 0.950 . S
C1812 H1804 0.950 . S
C1812 C1813 1.386 . S
C1812 C1814 1.391 . S
C1813 C1812 1.386 . S
C1813 C1817 1.393 . S
C1814 H1806 0.950 . S
C1814 C1812 1.391 . S
C1814 C1815 1.400 . S
C1815 C1814 1.400 . S
C1815 C1816 1.398 . S
C1815 C1821 1.491 . S
C1816 H1807 0.950 . S
C1816 C1815 1.398 . S
C1816 C1817 1.391 . S
C1817 H1805 0.950 . S
C1817 C1813 1.393 . S
C1817 C1816 1.391 . S
C1818 H1808 0.950 . S
C1818 C1819 1.386 . S
C1818 C1820 1.391 . S
C1819 C1818 1.386 . S
C1819 C1823 1.393 . S
C1820 H1809 0.950 . S
C1820 C1818 1.391 . S
C1820 C1821 1.400 . S
C1821 C1815 1.491 . S
C1821 C1820 1.400 . S
C1821 C1822 1.398 . S
C1822 H1810 0.950 . S
C1822 C1821 1.398 . S
C1822 C1823 1.391 . S
C1823 H1811 0.950 . S
C1823 C1819 1.393 . S
C1823 C1822 1.391 . S
H1824 C1832 0.950 . S
H1825 C1837 0.950 . S
H1826 C1834 0.950 . S
H1827 C1836 0.950 . S
H1828 C1838 0.950 . S
H1829 C1840 0.950 . S
H1830 C1842 0.950 . S
H1831 C1843 0.950 . S
C1832 H1824 0.950 . S
C1832 C1833 1.386 . S
C1832 C1834 1.391 . S
C1833 C1832 1.386 . S
C1833 C1837 1.393 . S
C1834 H1826 0.950 . S
C1834 C1832 1.391 . S
C1834 C1835 1.400 . S
C1835 C1834 1.400 . S
C1835 C1836 1.398 . S
C1835 C1841 1.491 . S
C1836 H1827 0.950 . S
C1836 C1835 1.398 . S
C1836 C1837 1.391 . S
C1837 H1825 0.950 . S
C1837 C1833 1.393 . S
C1837 C1836 1.391 . S
C1838 H1828 0.950 . S
C1838 C1839 1.386 . S
C1838 C1840 1.391 . S
C1839 C1838 1.386 . S
C1839 C1843 1.393 . S
C1840 H1829 0.950 . S
C1840 C1838 1.391 . S
C1840 C1841 1.400 . S
C1841 C1835 1.491 . S
C1841 C1840 1.400 . S
C1841 C1842 1.398 . S
C1842 H1830 0.950 . S
C1842 C1841 1.398 . S
C1842 C1843 1.391 . S
C1843 H1831 0.950 . S
C1843 C1839 1.393 . S
C1843 C1842 1.391 . S
H1844 C1852 0.950 . S
H1845 C1857 0.950 . S
H1846 C1854 0.950 . S
H1847 C1856 0.950 . S
H1848 C1858 0.950 . S
H1849 C1860 0.950 . S
H1850 C1862 0.950 . S
H1851 C1863 0.950 . S
C1852 H1844 0.950 . S
C1852 C1853 1.386 . S
C1852 C1854 1.391 . S
C1853 C1852 1.386 . S
C1853 C1857 1.393 . S
C1854 H1846 0.950 . S
C1854 C1852 1.391 . S
C1854 C1855 1.400 . S
C1855 C1854 1.400 . S
C1855 C1856 1.398 . S
C1855 C1861 1.491 . S
C1856 H1847 0.950 . S
C1856 C1855 1.398 . S
C1856 C1857 1.391 . S
C1857 H1845 0.950 . S
C1857 C1853 1.393 . S
C1857 C1856 1.391 . S
C1858 H1848 0.950 . S
C1858 C1859 1.386 . S
C1858 C1860 1.391 . S
C1859 C1858 1.386 . S
C1859 C1863 1.393 . S
C1860 H1849 0.950 . S
C1860 C1858 1.391 . S
C1860 C1861 1.400 . S
C1861 C1855 1.491 . S
C1861 C1860 1.400 . S
C1861 C1862 1.398 . S
C1862 H1850 0.950 . S
C1862 C1861 1.398 . S
C1862 C1863 1.391 . S
C1863 H1851 0.950 . S
C1863 C1859 1.393 . S
C1863 C1862 1.391 . S
H1864 C1872 0.950 1_545 S
H1865 C1877 0.950 . S
H1866 C1874 0.950 1_545 S
H1867 C1876 0.950 . S
H1868 C1878 0.950 . S
H1869 C1880 0.950 . S
H1870 C1882 0.950 1_545 S
H1871 C1883 0.950 1_545 S
C1872 H1864 0.950 1_565 S
C1872 C1873 1.386 . S
C1872 C1874 1.391 . S
C1873 C1872 1.386 . S
C1873 C1877 1.393 . S
C1874 H1866 0.950 1_565 S
C1874 C1872 1.391 . S
C1874 C1875 1.400 . S
C1875 C1874 1.400 . S
C1875 C1876 1.398 . S
C1875 C1881 1.491 . S
C1876 H1867 0.950 . S
C1876 C1875 1.398 . S
C1876 C1877 1.391 . S
C1877 H1865 0.950 . S
C1877 C1873 1.393 . S
C1877 C1876 1.391 . S
C1878 H1868 0.950 . S
C1878 C1879 1.386 . S
C1878 C1880 1.391 . S
C1879 C1878 1.386 . S
C1879 C1883 1.393 . S
C1880 H1869 0.950 . S
C1880 C1878 1.391 . S
C1880 C1881 1.400 . S
C1881 C1875 1.491 . S
C1881 C1880 1.400 . S
C1881 C1882 1.398 . S
C1882 H1870 0.950 1_565 S
C1882 C1881 1.398 . S
C1882 C1883 1.391 . S
C1883 H1871 0.950 1_565 S
C1883 C1879 1.393 . S
C1883 C1882 1.391 . S
H1884 C1892 0.950 . S
H1885 C1897 0.950 1_565 S
H1886 C1894 0.950 . S
H1887 C1896 0.908 1_565 S
H1888 C1898 0.950 . S
H1889 C1900 0.950 . S
H1890 C1902 0.950 . S
H1891 C1903 0.950 . S
C1892 H1884 0.950 . S
C1892 C1893 1.386 . S
C1892 C1894 1.391 . S
C1893 C1892 1.386 . S
C1893 C1897 1.393 . S
C1894 H1886 0.950 . S
C1894 C1892 1.391 . S
C1894 C1895 1.400 . S
C1895 C1894 1.400 . S
C1895 C1896 1.398 . S
C1895 C1901 1.491 . S
C1896 H1887 0.908 1_545 S
C1896 C1895 1.398 . S
C1896 C1897 1.391 . S
C1897 H1885 0.950 1_545 S
C1897 C1893 1.393 . S
C1897 C1896 1.391 . S
C1898 H1888 0.950 . S
C1898 C1899 1.386 . S
C1898 C1900 1.391 . S
C1899 C1898 1.386 . S
C1899 C1903 1.393 . S
C1900 H1889 0.950 . S
C1900 C1898 1.391 . S
C1900 C1901 1.400 . S
C1901 C1895 1.491 . S
C1901 C1900 1.400 . S
C1901 C1902 1.398 . S
C1902 H1890 0.950 . S
C1902 C1901 1.398 . S
C1902 C1903 1.391 . S
C1903 H1891 0.950 . S
C1903 C1899 1.393 . S
C1903 C1902 1.391 . S
H1904 C1912 0.950 . S
H1905 C1917 0.950 . S
H1906 C1914 0.950 . S
H1907 C1916 0.950 . S
H1908 C1918 0.950 . S
H1909 C1920 0.950 . S
H1910 C1922 0.950 . S
H1911 C1923 0.950 . S
C1912 H1904 0.950 . S
C1912 C1913 1.386 . S
C1912 C1914 1.391 . S
C1913 C1912 1.386 . S
C1913 C1917 1.393 . S
C1914 H1906 0.950 . S
C1914 C1912 1.391 . S
C1914 C1915 1.400 . S
C1915 C1914 1.400 . S
C1915 C1916 1.398 . S
C1915 C1921 1.491 . S
C1916 H1907 0.950 . S
C1916 C1915 1.398 . S
C1916 C1917 1.391 . S
C1917 H1905 0.950 . S
C1917 C1913 1.393 . S
C1917 C1916 1.391 . S
C1918 H1908 0.950 . S
C1918 C1919 1.386 . S
C1918 C1920 1.391 . S
C1919 C1918 1.386 . S
C1919 C1923 1.393 . S
C1920 H1909 0.950 . S
C1920 C1918 1.391 . S
C1920 C1921 1.400 . S
C1921 C1915 1.491 . S
C1921 C1920 1.400 . S
C1921 C1922 1.398 . S
C1922 H1910 0.950 . S
C1922 C1921 1.398 . S
C1922 C1923 1.391 . S
C1923 H1911 0.950 . S
C1923 C1919 1.393 . S
C1923 C1922 1.391 . S
H1924 C1932 0.950 . S
H1925 C1937 0.950 . S
H1926 C1934 0.950 . S
H1927 C1936 0.950 . S
H1928 C1938 0.950 . S
H1929 C1940 0.950 . S
H1930 C1942 0.950 . S
H1931 C1943 0.950 . S
C1932 H1924 0.950 . S
C1932 C1933 1.386 . S
C1932 C1934 1.391 . S
C1933 C1932 1.386 . S
C1933 C1937 1.393 . S
C1934 H1926 0.950 . S
C1934 C1932 1.391 . S
C1934 C1935 1.400 . S
C1935 C1934 1.400 . S
C1935 C1936 1.398 . S
C1935 C1941 1.491 . S
C1936 H1927 0.950 . S
C1936 C1935 1.398 . S
C1936 C1937 1.391 . S
C1937 H1925 0.950 . S
C1937 C1933 1.393 . S
C1937 C1936 1.391 . S
C1938 H1928 0.950 . S
C1938 C1939 1.386 . S
C1938 C1940 1.391 . S
C1939 C1938 1.386 . S
C1939 C1943 1.393 . S
C1940 H1929 0.950 . S
C1940 C1938 1.391 . S
C1940 C1941 1.400 . S
C1941 C1935 1.491 . S
C1941 C1940 1.400 . S
C1941 C1942 1.398 . S
C1942 H1930 0.950 . S
C1942 C1941 1.398 . S
C1942 C1943 1.391 . S
C1943 H1931 0.950 . S
C1943 C1939 1.393 . S
C1943 C1942 1.391 . S
C513 C232 1.579 . S
C519 C3 1.549 . S
C533 C241 1.455 . S
C539 C22 1.484 . S
C553 C213 1.640 . S
C559 C31 1.648 . S
C573 C367 1.733 . S
C579 C45 1.728 . S
C593 C64 1.505 . S
C599 C339 1.466 . S
C613 C73 1.447 . S
C619 C358 1.461 . S
C633 C92 1.344 . S
C639 C484 1.354 . S
C653 C498 1.306 . S
C659 C106 1.303 . S
C673 C470 1.670 . S
C679 C120 1.684 . S
C693 C134 1.342 . S
C699 C288 1.348 . S
C713 C260 1.304 . S
C719 C148 1.302 . S
C733 C162 1.280 . S
C739 C274 1.273 . S
C753 C400 1.470 . S
C759 C171 1.444 . S
C773 C190 1.406 . S
C779 C409 1.381 . S
C793 C381 1.533 . S
C799 C199 1.531 . S
C813 C456 1.265 . S
C819 C302 1.257 . S
C833 C428 1.255 . S
C839 C316 1.265 . S
C853 C330 1.255 . S
C859 C442 1.252 . S
C873 C259 1.178 . S
C879 C9 1.161 . S
C893 C273 1.436 . S
C899 C21 1.431 . S
C913 C287 2.186 . S
C919 C37 1.972 . S
C933 C51 1.240 . S
C939 C469 1.287 . S
C953 C63 2.173 . S
C959 C483 2.140 . S
C973 C79 1.344 . S
C979 C497 1.385 . S
C993 C91 1.176 . S
C999 C345 1.149 . S
C1013 C357 1.431 . S
C1019 C105 1.437 . S
C1033 C373 1.348 . S
C1039 C119 1.476 . S
C1053 C219 1.186 . S
C1059 C133 1.183 . S
C1073 C147 2.125 . S
C1079 C231 2.173 . S
C1093 C161 1.386 . S
C1099 C247 1.352 . S
C1113 C177 1.186 . S
C1119 C427 1.216 . S
C1133 C441 1.302 . S
C1139 C189 1.302 . S
C1153 C455 1.846 . S
C1159 C205 1.650 . S
C1173 C387 1.200 . S
C1179 C301 1.213 1_554 S
C1193 C315 1.826 1_554 S
C1199 C399 1.852 1_556 S
C1213 C329 1.705 1_554 S
C1219 C415 1.679 . S
C1233 C386 1.500 . S
C1239 C8 1.495 . S
C1253 C17 1.429 . S
C1259 C395 1.344 . S
C1273 C36 1.547 . S
C1279 C414 1.647 . S
C1293 C176 1.441 . S
C1299 C50 1.432 . S
C1313 C59 1.342 . S
C1319 C185 1.476 . S
C1333 C78 1.569 . S
C1339 C204 1.491 . S
C1353 C297 1.457 . S
C1359 C87 1.477 . S
C1373 C101 1.538 . S
C1379 C311 1.421 . S
C1393 C325 1.352 . S
C1399 C115 1.510 . S
C1413 C129 1.452 . S
C1419 C423 1.440 . S
C1433 C437 1.892 . S
C1439 C143 1.675 . S
C1453 C451 1.257 . S
C1459 C157 1.311 . S
C1473 C344 1.593 . S
C1479 C218 1.590 . S
C1493 C353 1.473 . S
C1499 C227 1.388 . S
C1513 C372 1.389 . S
C1519 C246 1.423 . S
C1533 C255 1.428 . S
C1539 C465 1.391 . S
C1553 C479 1.541 . S
C1559 C269 1.747 . S
C1573 C493 1.571 . S
C1579 C283 1.438 . S
C1593 C7 0.963 . S
C1599 C233 0.935 . S
C1613 C23 0.903 . S
C1619 C245 0.930 . S
C1633 C35 1.023 . S
C1639 C217 0.994 . S
C1653 C371 1.186 . S
C1659 C49 1.181 . S
C1673 C343 0.906 . S
C1679 C65 0.911 . S
C1693 C359 0.891 . S
C1699 C77 0.909 . S
C1713 C485 0.732 . S
C1719 C93 0.722 . S
C1733 C499 0.826 . S
C1739 C107 0.823 . S
C1753 C471 1.101 . S
C1759 C121 1.095 . S
C1773 C135 0.782 . S
C1779 C289 0.772 . S
C1793 C149 0.786 . S
C1799 C261 0.794 . S
C1813 C163 0.824 . S
C1819 C275 0.814 . S
C1833 C401 0.928 . S
C1839 C175 0.956 . S
C1853 C413 0.975 . S
C1859 C191 0.915 . S
C1873 C203 1.114 . S
C1879 C385 1.125 . S
C1893 C303 0.876 . S
C1899 C457 0.877 . S
C1913 C429 0.828 . S
C1919 C317 0.832 . S
C1933 C443 0.760 . S
C1939 C331 0.773 . S
