# Generated by pormake.
# Topology wjx, (5)-cn, num edge types: 1
# Building blocks:
#     Node 0, Type 0, BuildingBlock: BEQFEK_clean_sbu_0, # of connection points: 5
#     Node 1, Type 0, BuildingBlock: BEQFEK_clean_sbu_0, # of connection points: 5
#     Node 2, Type 0, BuildingBlock: BEQFEK_clean_sbu_0, # of connection points: 5
#     Node 3, Type 0, BuildingBlock: BEQFEK_clean_sbu_0, # of connection points: 5
#     Node 4, Type 0, BuildingBlock: BEQFEK_clean_sbu_0, # of connection points: 5
#     Node 5, Type 0, BuildingBlock: BEQFEK_clean_sbu_0, # of connection points: 5
#     Node 6, Type 0, BuildingBlock: BEQFEK_clean_sbu_0, # of connection points: 5
#     Node 7, Type 0, BuildingBlock: BEQFEK_clean_sbu_0, # of connection points: 5
#     Node 8, Type 0, BuildingBlock: BEQFEK_clean_sbu_0, # of connection points: 5
#     Node 9, Type 0, BuildingBlock: BEQFEK_clean_sbu_0, # of connection points: 5
#     Node 10, Type 0, BuildingBlock: BEQFEK_clean_sbu_0, # of connection points: 5
#     Node 11, Type 0, BuildingBlock: BEQFEK_clean_sbu_0, # of connection points: 5
#     Edge 12, Type (0, 0), BuildingBlock: MIFKUJ_clean_linker_0, # of connection points: 2
#     Edge 13, Type (0, 0), BuildingBlock: MIFKUJ_clean_linker_0, # of connection points: 2
#     Edge 14, Type (0, 0), BuildingBlock: MIFKUJ_clean_linker_0, # of connection points: 2
#     Edge 15, Type (0, 0), BuildingBlock: MIFKUJ_clean_linker_0, # of connection points: 2
#     Edge 16, Type (0, 0), BuildingBlock: MIFKUJ_clean_linker_0, # of connection points: 2
#     Edge 17, Type (0, 0), BuildingBlock: MIFKUJ_clean_linker_0, # of connection points: 2
#     Edge 18, Type (0, 0), BuildingBlock: MIFKUJ_clean_linker_0, # of connection points: 2
#     Edge 19, Type (0, 0), BuildingBlock: MIFKUJ_clean_linker_0, # of connection points: 2
#     Edge 20, Type (0, 0), BuildingBlock: MIFKUJ_clean_linker_0, # of connection points: 2
#     Edge 21, Type (0, 0), BuildingBlock: MIFKUJ_clean_linker_0, # of connection points: 2
#     Edge 22, Type (0, 0), BuildingBlock: MIFKUJ_clean_linker_0, # of connection points: 2
#     Edge 23, Type (0, 0), BuildingBlock: MIFKUJ_clean_linker_0, # of connection points: 2
#     Edge 24, Type (0, 0), BuildingBlock: MIFKUJ_clean_linker_0, # of connection points: 2
#     Edge 25, Type (0, 0), BuildingBlock: MIFKUJ_clean_linker_0, # of connection points: 2
#     Edge 26, Type (0, 0), BuildingBlock: MIFKUJ_clean_linker_0, # of connection points: 2
#     Edge 27, Type (0, 0), BuildingBlock: MIFKUJ_clean_linker_0, # of connection points: 2
#     Edge 28, Type (0, 0), BuildingBlock: MIFKUJ_clean_linker_0, # of connection points: 2
#     Edge 29, Type (0, 0), BuildingBlock: MIFKUJ_clean_linker_0, # of connection points: 2
#     Edge 30, Type (0, 0), BuildingBlock: MIFKUJ_clean_linker_0, # of connection points: 2
#     Edge 31, Type (0, 0), BuildingBlock: MIFKUJ_clean_linker_0, # of connection points: 2
#     Edge 32, Type (0, 0), BuildingBlock: MIFKUJ_clean_linker_0, # of connection points: 2
#     Edge 33, Type (0, 0), BuildingBlock: MIFKUJ_clean_linker_0, # of connection points: 2
#     Edge 34, Type (0, 0), BuildingBlock: MIFKUJ_clean_linker_0, # of connection points: 2
#     Edge 35, Type (0, 0), BuildingBlock: MIFKUJ_clean_linker_0, # of connection points: 2
#     Edge 36, Type (0, 0), BuildingBlock: MIFKUJ_clean_linker_0, # of connection points: 2
#     Edge 37, Type (0, 0), BuildingBlock: MIFKUJ_clean_linker_0, # of connection points: 2
#     Edge 38, Type (0, 0), BuildingBlock: MIFKUJ_clean_linker_0, # of connection points: 2
#     Edge 39, Type (0, 0), BuildingBlock: MIFKUJ_clean_linker_0, # of connection points: 2
#     Edge 40, Type (0, 0), BuildingBlock: MIFKUJ_clean_linker_0, # of connection points: 2
#     Edge 41, Type (0, 0), BuildingBlock: MIFKUJ_clean_linker_0, # of connection points: 2
# Relax obj value: 0.075
# Max RMSD: 0.098
# Mean RMSD: 0.098
data_MOF--net-wjx--node1-BEQFEK_clean_sbu_0--edge1-MIFKUJ_clean_linker_0
_symmetry_space_group_name_H-M    P1
_symmetry_Int_Tables_number       1
_symmetry_cell_setting            triclinic
loop_
_symmetry_equiv_pos_as_xyz
'x, y, z'
_cell_length_a     94.43206
_cell_length_b     94.401219
_cell_length_c     23.597407
_cell_angle_alpha  89.999836
_cell_angle_beta   89.986775
_cell_angle_gamma 119.99664
loop_
_atom_site_label
_atom_site_type_symbol
_atom_site_fract_x
_atom_site_fract_y
_atom_site_fract_z
_atom_type_partial_charge
Co0 Co 0.11658 0.45276 0.17127 0.0
Co1 Co 0.11246 0.4576 0.04231 0.0
C2 C 0.08479 0.4321 0.10889 0.0
O3 O 0.09378 0.43614 0.15286 0.0
O4 O 0.09024 0.43935 0.06163 0.0
C5 C 0.11252 0.43508 0.27474 0.0
O6 O 0.10089 0.42268 0.24684 0.0
C7 C 0.10863 0.45229 0.91844 0.0
C8 C 0.12346 0.47778 0.88827 0.0
C9 C 0.11454 0.46174 0.8696 0.0
N10 N 0.11409 0.46235 0.9635 0.0
N11 N 0.1227 0.47756 0.94508 0.0
C12 C 0.09935 0.43404 0.92308 0.0
H13 H 0.10055 0.43014 0.96635 0.0
H14 H 0.10384 0.42851 0.89138 0.0
H15 H 0.08622 0.42952 0.91476 0.0
C16 C 0.14454 0.45018 0.12731 0.0
N17 N 0.13126 0.45173 0.11948 0.0
N18 N 0.1294 0.45335 0.06503 0.0
C19 C 0.1415 0.45283 0.03635 0.0
C20 C 0.15151 0.45083 0.07486 0.0
C21 C 0.15104 0.44941 0.18438 0.0
H22 H 0.15083 0.45867 0.21276 0.0
H23 H 0.14299 0.43717 0.20321 0.0
H24 H 0.16371 0.45161 0.18182 0.0
O25 O 0.11883 0.47481 0.17085 0.0
O26 O 0.1157 0.47777 0.07936 0.0
H27 H 0.14556 0.46607 0.95879 0.0
H28 H 0.15325 0.45194 0.95824 0.0
C29 C 0.14324 0.45391 0.9732 0.0
H30 H 0.13174 0.44442 0.95375 0.0
H31 H 0.12855 0.48777 0.97143 0.0
O32 O 0.12101 0.4487 0.24966 0.0
C33 C 0.11812 0.48319 0.12984 0.0
Co34 Co 0.66333 0.11779 0.49933 0.0
Co35 Co 0.65517 0.11425 0.36946 0.0
C36 C 0.6511 0.08584 0.43726 0.0
O37 O 0.65572 0.09463 0.48175 0.0
O38 O 0.65048 0.09182 0.38952 0.0
C39 C 0.67617 0.1129 0.60288 0.0
O40 O 0.67706 0.10158 0.57338 0.0
C41 C 0.65922 0.11096 0.24728 0.0
C42 C 0.64649 0.12315 0.21105 0.0
C43 C 0.65554 0.11581 0.1963 0.0
N44 N 0.65281 0.11545 0.28977 0.0
N45 N 0.64502 0.12251 0.26775 0.0
C46 C 0.66982 0.10355 0.25655 0.0
H47 H 0.67441 0.10561 0.30081 0.0
H48 H 0.68026 0.10878 0.22651 0.0
H49 H 0.66248 0.09016 0.24921 0.0
C50 C 0.69518 0.14419 0.45666 0.0
N51 N 0.67985 0.13179 0.44809 0.0
N52 N 0.67648 0.13057 0.39354 0.0
C53 C 0.68957 0.14237 0.36575 0.0
C54 C 0.70187 0.15125 0.40472 0.0
C55 C 0.70318 0.14898 0.5136 0.0
H56 H 0.70254 0.13813 0.53428 0.0
H57 H 0.71616 0.15877 0.51049 0.0
H58 H 0.69638 0.15319 0.54063 0.0
O59 O 0.64444 0.12149 0.49612 0.0
O60 O 0.63845 0.11827 0.40448 0.0
H61 H 0.69972 0.15884 0.29423 0.0
H62 H 0.69179 0.13754 0.27873 0.0
C63 C 0.68979 0.14626 0.30412 0.0
H64 H 0.67797 0.14515 0.29176 0.0
H65 H 0.63914 0.12736 0.29158 0.0
O66 O 0.67128 0.12174 0.57878 0.0
C67 C 0.63559 0.12108 0.45472 0.0
Co68 Co 0.54226 0.66267 0.85526 0.0
Co69 Co 0.54154 0.65634 0.72454 0.0
C70 C 0.56466 0.65257 0.80002 0.0
O71 O 0.55906 0.65644 0.84266 0.0
O72 O 0.55925 0.65223 0.75028 0.0
C73 C 0.55776 0.67886 0.95896 0.0
O74 O 0.57094 0.68655 0.92743 0.0
C75 C 0.551 0.66022 0.60262 0.0
C76 C 0.52651 0.64833 0.56306 0.0
C77 C 0.54304 0.65638 0.55063 0.0
N78 N 0.53961 0.65487 0.64388 0.0
N79 N 0.52503 0.64771 0.61976 0.0
C80 C 0.56904 0.66825 0.61278 0.0
H81 H 0.57162 0.66553 0.65594 0.0
H82 H 0.57463 0.68169 0.60866 0.0
H83 H 0.57479 0.6641 0.58076 0.0
C84 C 0.54587 0.69409 0.81386 0.0
N85 N 0.54487 0.6795 0.80518 0.0
N86 N 0.54471 0.6769 0.75027 0.0
C87 C 0.54562 0.68978 0.72233 0.0
C88 C 0.54636 0.70107 0.76164 0.0
C89 C 0.54498 0.70053 0.87087 0.0
H90 H 0.53621 0.69037 0.89827 0.0
H91 H 0.55721 0.70619 0.89106 0.0
H92 H 0.54119 0.7099 0.86743 0.0
O93 O 0.5205 0.64307 0.84552 0.0
O94 O 0.52029 0.63843 0.75331 0.0
H95 H 0.53416 0.68144 0.6415 0.0
H96 H 0.54777 0.70333 0.64523 0.0
C97 C 0.54585 0.69128 0.65915 0.0
H98 H 0.55593 0.68983 0.64193 0.0
H99 H 0.51402 0.6425 0.64209 0.0
O100 O 0.54419 0.66899 0.93582 0.0
C101 C 0.51344 0.6346 0.80174 0.0
Co102 Co 0.88219 0.54575 0.16233 0.0
Co103 Co 0.88707 0.54242 0.03299 0.0
C104 C 0.91469 0.5663 0.10181 0.0
O105 O 0.90542 0.56135 0.14515 0.0
O106 O 0.90928 0.56045 0.05277 0.0
C107 C 0.88694 0.56373 0.26504 0.0
O108 O 0.89863 0.57584 0.23628 0.0
C109 C 0.89112 0.54785 0.90908 0.0
C110 C 0.87518 0.52253 0.87891 0.0
C111 C 0.88474 0.53849 0.86029 0.0
N112 N 0.8853 0.5378 0.95413 0.0
N113 N 0.87604 0.52268 0.93569 0.0
C114 C 0.9012 0.56607 0.91366 0.0
H115 H 0.90035 0.57016 0.95698 0.0
H116 H 0.89714 0.57202 0.8821 0.0
H117 H 0.91419 0.56992 0.90504 0.0
C118 C 0.8551 0.54984 0.11861 0.0
N119 N 0.86819 0.54797 0.11071 0.0
N120 N 0.87036 0.54693 0.05612 0.0
C121 C 0.85872 0.54823 0.02739 0.0
C122 C 0.84863 0.55006 0.06601 0.0
C123 C 0.84827 0.55006 0.17563 0.0
H124 H 0.84842 0.54062 0.2032 0.0
H125 H 0.85613 0.56217 0.19565 0.0
H126 H 0.83558 0.54779 0.1726 0.0
O127 O 0.87875 0.52333 0.16017 0.0
O128 O 0.88367 0.52198 0.06911 0.0
H129 H 0.85455 0.53594 0.94774 0.0
H130 H 0.84817 0.5511 0.94937 0.0
C131 C 0.85753 0.54814 0.96412 0.0
H132 H 0.86944 0.55739 0.9464 0.0
H133 H 0.8698 0.51252 0.96204 0.0
O134 O 0.87808 0.55004 0.24081 0.0
C135 C 0.88026 0.51567 0.11839 0.0
Co136 Co 0.33629 0.88004 0.52692 0.0
Co137 Co 0.34242 0.88555 0.3963 0.0
C138 C 0.34668 0.91264 0.47128 0.0
O139 O 0.34289 0.9032 0.514 0.0
O140 O 0.34681 0.90749 0.42149 0.0
C141 C 0.32045 0.88004 0.63027 0.0
O142 O 0.31337 0.88617 0.59863 0.0
C143 C 0.33902 0.89112 0.27397 0.0
C144 C 0.34962 0.87712 0.2357 0.0
C145 C 0.34242 0.88636 0.22237 0.0
N146 N 0.3438 0.88473 0.3158 0.0
N147 N 0.3502 0.87647 0.29245 0.0
C148 C 0.33188 0.90196 0.28336 0.0
H149 H 0.33571 0.90819 0.3249 0.0
H150 H 0.31835 0.89448 0.28308 0.0
H151 H 0.33568 0.91121 0.24905 0.0
C152 C 0.3047 0.85246 0.48633 0.0
N153 N 0.3193 0.86599 0.4773 0.0
N154 N 0.3218 0.86841 0.42235 0.0
C155 C 0.30882 0.85647 0.3947 0.0
C156 C 0.29761 0.84597 0.43427 0.0
C157 C 0.2984 0.84514 0.54346 0.0
H158 H 0.30857 0.84618 0.56997 0.0
H159 H 0.29319 0.85201 0.56461 0.0
H160 H 0.28873 0.83209 0.54014 0.0
O161 O 0.35556 0.87728 0.51718 0.0
O162 O 0.36015 0.88202 0.42512 0.0
H163 H 0.31667 0.85259 0.31404 0.0
H164 H 0.29495 0.84523 0.31806 0.0
C165 C 0.30722 0.85507 0.33154 0.0
H166 H 0.30922 0.86676 0.3138 0.0
H167 H 0.35484 0.87024 0.31537 0.0
O168 O 0.32989 0.87575 0.60729 0.0
C169 C 0.36394 0.87871 0.47312 0.0
Co170 Co 0.45464 0.33829 0.81763 0.0
Co171 Co 0.45793 0.3462 0.68775 0.0
C172 C 0.43281 0.34825 0.75767 0.0
O173 O 0.43725 0.34363 0.80154 0.0
O174 O 0.43983 0.35004 0.70995 0.0
C175 C 0.4383 0.32259 0.92162 0.0
O176 O 0.42477 0.31753 0.89242 0.0
C177 C 0.45135 0.34463 0.56377 0.0
C178 C 0.47596 0.35174 0.5311 0.0
C179 C 0.46006 0.34649 0.51403 0.0
N180 N 0.46162 0.34819 0.60792 0.0
N181 N 0.47634 0.35267 0.58789 0.0
C182 C 0.43374 0.3399 0.5696 0.0
H183 H 0.43203 0.34604 0.60676 0.0
H184 H 0.42626 0.3265 0.57619 0.0
H185 H 0.42936 0.34328 0.53106 0.0
C186 C 0.45154 0.30729 0.77504 0.0
N187 N 0.45322 0.32218 0.76692 0.0
N188 N 0.45404 0.32524 0.71223 0.0
C189 C 0.45268 0.31223 0.68373 0.0
C190 C 0.45115 0.30047 0.72252 0.0
C191 C 0.45137 0.30027 0.83207 0.0
H192 H 0.46036 0.31001 0.86032 0.0
H193 H 0.43905 0.29536 0.85113 0.0
H194 H 0.4543 0.29028 0.8291 0.0
O195 O 0.47643 0.35827 0.81283 0.0
O196 O 0.47849 0.36382 0.72099 0.0
H197 H 0.46439 0.31908 0.60282 0.0
H198 H 0.44801 0.29807 0.60652 0.0
C199 C 0.45208 0.31075 0.62051 0.0
H200 H 0.44341 0.31434 0.60352 0.0
H201 H 0.48656 0.35589 0.61322 0.0
O202 O 0.45203 0.33092 0.89705 0.0
C203 C 0.48434 0.36721 0.77089 0.0
Co204 Co 0.54484 0.87993 0.48001 0.0
Co205 Co 0.54301 0.88665 0.60939 0.0
C206 C 0.56583 0.91323 0.53193 0.0
O207 O 0.56075 0.90334 0.49033 0.0
O208 O 0.56031 0.90851 0.58184 0.0
C209 C 0.56113 0.88073 0.3766 0.0
O210 O 0.57445 0.88941 0.40665 0.0
C211 C 0.55176 0.89288 0.73163 0.0
C212 C 0.52705 0.88083 0.76949 0.0
C213 C 0.54351 0.88902 0.78329 0.0
N214 N 0.54059 0.88697 0.68969 0.0
N215 N 0.52588 0.87993 0.71276 0.0
C216 C 0.56983 0.90255 0.72184 0.0
H217 H 0.57254 0.90826 0.67927 0.0
H218 H 0.57503 0.89432 0.72405 0.0
H219 H 0.57581 0.91215 0.75476 0.0
C220 C 0.5504 0.85401 0.52784 0.0
N221 N 0.54818 0.86696 0.53372 0.0
N222 N 0.54733 0.86968 0.58805 0.0
C223 C 0.54885 0.8584 0.61842 0.0
C224 C 0.55103 0.84825 0.58135 0.0
C225 C 0.55178 0.84734 0.47189 0.0
H226 H 0.56266 0.85687 0.44913 0.0
H227 H 0.55302 0.83633 0.47679 0.0
H228 H 0.54086 0.84434 0.44577 0.0
O229 O 0.52254 0.87675 0.48671 0.0
O230 O 0.52167 0.88203 0.5778 0.0
H231 H 0.54456 0.84414 0.69524 0.0
H232 H 0.55709 0.86596 0.70324 0.0
C233 C 0.5463 0.85613 0.68116 0.0
H234 H 0.53536 0.85684 0.6935 0.0
H235 H 0.51499 0.87422 0.68975 0.0
O236 O 0.54726 0.87465 0.40074 0.0
C237 C 0.51503 0.87822 0.52907 0.0
Co238 Co 0.66379 0.54699 0.82564 0.0
Co239 Co 0.6553 0.54204 0.95542 0.0
C240 C 0.65174 0.56677 0.88753 0.0
O241 O 0.65656 0.5628 0.84309 0.0
O242 O 0.65077 0.55988 0.93497 0.0
C243 C 0.67689 0.56451 0.72173 0.0
O244 O 0.6779 0.57686 0.75076 0.0
C245 C 0.65926 0.54939 0.07761 0.0
C246 C 0.64647 0.52448 0.11392 0.0
C247 C 0.65555 0.54086 0.1286 0.0
N248 N 0.65282 0.53848 0.03515 0.0
N249 N 0.64499 0.52364 0.05721 0.0
C250 C 0.66994 0.56739 0.06839 0.0
H251 H 0.67457 0.56991 0.02416 0.0
H252 H 0.68036 0.57255 0.09852 0.0
H253 H 0.66266 0.5735 0.07569 0.0
C254 C 0.69541 0.55203 0.86904 0.0
N255 N 0.68008 0.54914 0.87726 0.0
N256 N 0.67657 0.54688 0.93171 0.0
C257 C 0.68956 0.54803 0.95977 0.0
C258 C 0.70195 0.5515 0.92111 0.0
C259 C 0.70358 0.55543 0.81237 0.0
H260 H 0.70296 0.56567 0.7919 0.0
H261 H 0.71657 0.55867 0.81585 0.0
H262 H 0.69691 0.54449 0.78494 0.0
O263 O 0.64451 0.52464 0.82844 0.0
O264 O 0.63856 0.52138 0.92018 0.0
H265 H 0.69946 0.54148 0.03143 0.0
H266 H 0.69164 0.55495 0.04692 0.0
C267 C 0.68962 0.54425 0.02137 0.0
H268 H 0.67774 0.53356 0.0334 0.0
H269 H 0.63911 0.5129 0.03341 0.0
O270 O 0.67184 0.55082 0.74627 0.0
C271 C 0.63563 0.51603 0.86955 0.0
Co272 Co 0.11927 0.66342 0.15984 0.0
Co273 Co 0.1132 0.65589 0.2899 0.0
C274 C 0.08638 0.65209 0.21364 0.0
O275 O 0.09599 0.65641 0.1713 0.0
O276 O 0.09136 0.65154 0.26334 0.0
C277 C 0.11789 0.67842 0.05669 0.0
O278 O 0.10861 0.68225 0.08703 0.0
C279 C 0.10842 0.66078 0.41076 0.0
C280 C 0.11651 0.64498 0.45183 0.0
C281 C 0.11075 0.65559 0.46318 0.0
N282 N 0.1128 0.65366 0.3703 0.0
N283 N 0.11754 0.64419 0.39523 0.0
C284 C 0.10121 0.67145 0.39906 0.0
H285 H 0.09984 0.67249 0.35279 0.0
H286 H 0.10912 0.68383 0.41684 0.0
H287 H 0.08912 0.66624 0.42014 0.0
C288 C 0.14562 0.69507 0.20411 0.0
N289 N 0.13267 0.67999 0.2119 0.0
N290 N 0.13035 0.67689 0.26662 0.0
C291 C 0.14193 0.68991 0.29532 0.0
C292 C 0.1518 0.70188 0.25673 0.0
C293 C 0.15184 0.70269 0.14728 0.0
H294 H 0.15437 0.69444 0.12106 0.0
H295 H 0.14225 0.70416 0.12553 0.0
H296 H 0.16305 0.71484 0.15069 0.0
O297 O 0.12219 0.64413 0.16799 0.0
O298 O 0.11719 0.63863 0.25958 0.0
H299 H 0.14262 0.67827 0.37269 0.0
H300 H 0.15738 0.69979 0.36936 0.0
C301 C 0.14473 0.69031 0.35792 0.0
H302 H 0.13615 0.69321 0.38003 0.0
H303 H 0.12162 0.63727 0.37358 0.0
O304 O 0.12441 0.67097 0.08028 0.0
C305 C 0.12071 0.63536 0.21105 0.0
Co306 Co 0.45426 0.1173 0.49779 0.0
Co307 Co 0.45851 0.11418 0.62813 0.0
C308 C 0.43466 0.08545 0.5608 0.0
O309 O 0.43893 0.09414 0.51609 0.0
O310 O 0.441 0.09158 0.60868 0.0
C311 C 0.43641 0.11185 0.39444 0.0
O312 O 0.42432 0.10056 0.4245 0.0
C313 C 0.45099 0.11104 0.75011 0.0
C314 C 0.47585 0.12393 0.78674 0.0
C315 C 0.45943 0.11618 0.80117 0.0
N316 N 0.46198 0.11573 0.70785 0.0
N317 N 0.4768 0.12322 0.73009 0.0
C318 C 0.43295 0.10314 0.74055 0.0
H319 H 0.43037 0.10512 0.69626 0.0
H320 H 0.42742 0.10807 0.77053 0.0
H321 H 0.42726 0.08977 0.74775 0.0
C322 C 0.44855 0.14375 0.53816 0.0
N323 N 0.45144 0.13136 0.54786 0.0
N324 N 0.45335 0.13026 0.60266 0.0
C325 C 0.45193 0.14211 0.62952 0.0
C326 C 0.4487 0.15094 0.58963 0.0
C327 C 0.44566 0.14846 0.4806 0.0
H328 H 0.43548 0.13761 0.45984 0.0
H329 H 0.44255 0.15833 0.48267 0.0
H330 H 0.45676 0.15252 0.45422 0.0
O331 O 0.47696 0.12127 0.50192 0.0
O332 O 0.47941 0.11838 0.59406 0.0
H333 H 0.46622 0.14539 0.70411 0.0
H334 H 0.45757 0.15856 0.70086 0.0
C335 C 0.45533 0.1461 0.6912 0.0
H336 H 0.44468 0.13716 0.71634 0.0
H337 H 0.48757 0.1283 0.70645 0.0
O338 O 0.45017 0.12087 0.41804 0.0
C339 C 0.48528 0.1211 0.54411 0.0
Co340 Co 0.33496 0.45199 0.82743 0.0
Co341 Co 0.34376 0.45544 0.95667 0.0
C342 C 0.34591 0.43066 0.88375 0.0
O343 O 0.34077 0.43489 0.84076 0.0
O344 O 0.34787 0.43767 0.93157 0.0
C345 C 0.31969 0.43576 0.7235 0.0
O346 O 0.3155 0.42235 0.75254 0.0
C347 C 0.34033 0.4469 0.07869 0.0
C348 C 0.35345 0.47159 0.11667 0.0
C349 C 0.3445 0.45512 0.1304 0.0
N350 N 0.3463 0.45809 0.03682 0.0
N351 N 0.35427 0.47278 0.05992 0.0
C352 C 0.33138 0.42882 0.06872 0.0
H353 H 0.33467 0.42593 0.02698 0.0
H354 H 0.31802 0.42415 0.06876 0.0
H355 H 0.33423 0.42247 0.10262 0.0
C356 C 0.30408 0.44835 0.87332 0.0
N357 N 0.31905 0.45014 0.88016 0.0
N358 N 0.32267 0.45161 0.93453 0.0
C359 C 0.31011 0.45097 0.96399 0.0
C360 C 0.29789 0.44874 0.92625 0.0
C361 C 0.29595 0.44619 0.81704 0.0
H362 H 0.29498 0.43527 0.79574 0.0
H363 H 0.28353 0.44457 0.82124 0.0
H364 H 0.30362 0.45697 0.78995 0.0
O365 O 0.35488 0.47397 0.83216 0.0
O366 O 0.36086 0.47622 0.92372 0.0
H367 H 0.32238 0.46496 0.03782 0.0
H368 H 0.30059 0.45667 0.03891 0.0
C369 C 0.31048 0.45423 0.02624 0.0
H370 H 0.30897 0.44346 0.05008 0.0
H371 H 0.35998 0.48367 0.03688 0.0
O372 O 0.32722 0.44953 0.74833 0.0
C373 C 0.36392 0.48204 0.87373 0.0
Co374 Co 0.88359 0.33719 0.16825 0.0
Co375 Co 0.88669 0.34605 0.29721 0.0
C376 C 0.91499 0.34872 0.23351 0.0
O377 O 0.90629 0.34352 0.18896 0.0
O378 O 0.90922 0.35062 0.27987 0.0
C379 C 0.8894 0.32541 0.06339 0.0
O380 O 0.90226 0.32675 0.08973 0.0
C381 C 0.89023 0.34465 0.42096 0.0
C382 C 0.87328 0.35285 0.45062 0.0
C383 C 0.88327 0.34697 0.4694 0.0
N384 N 0.88435 0.34873 0.37577 0.0
N385 N 0.87448 0.3539 0.39389 0.0
C386 C 0.90076 0.33699 0.41681 0.0
H387 H 0.89993 0.33187 0.37382 0.0
H388 H 0.8971 0.3272 0.44901 0.0
H389 H 0.91367 0.34648 0.42478 0.0
C390 C 0.85572 0.30628 0.21078 0.0
N391 N 0.8687 0.3213 0.2191 0.0
N392 N 0.8703 0.3247 0.2736 0.0
C393 C 0.85839 0.31181 0.30185 0.0
C394 C 0.84871 0.29975 0.26301 0.0
C395 C 0.8496 0.29895 0.1535 0.0
H396 H 0.84976 0.30832 0.12473 0.0
H397 H 0.85791 0.29497 0.13551 0.0
H398 H 0.837 0.28832 0.15551 0.0
O399 O 0.88111 0.35688 0.16803 0.0
O400 O 0.88318 0.36273 0.25968 0.0
H401 H 0.85322 0.31986 0.37989 0.0
H402 H 0.84738 0.29846 0.3796 0.0
C403 C 0.85666 0.31084 0.365 0.0
H404 H 0.86849 0.31383 0.38433 0.0
H405 H 0.86804 0.35752 0.3673 0.0
O406 O 0.87966 0.32871 0.08974 0.0
C407 C 0.88119 0.36577 0.20873 0.0
H408 H 0.07158 0.40602 0.18044 0.0
H409 H 0.04263 0.38751 0.20007 0.0
H410 H 0.02982 0.4125 0.07455 0.0
H411 H 0.05875 0.43039 0.05266 0.0
H412 H 0.02219 0.39323 0.24469 0.0
H413 H 0.99209 0.38982 0.02505 0.0
H414 H 0.9977 0.38829 0.92382 0.0
H415 H 0.02824 0.3682 0.96736 0.0
H416 H 0.02263 0.36939 0.06878 0.0
H417 H 0.94083 0.37522 0.28169 0.0
H418 H 0.96979 0.3859 0.26131 0.0
H419 H 0.95736 0.34378 0.15623 0.0
H420 H 0.92835 0.33376 0.17348 0.0
H421 H 0.9777 0.36774 0.10273 0.0
H422 H 0.97757 0.35146 0.29296 0.0
H423 H 0.97198 0.34914 0.39563 0.0
H424 H 0.00197 0.4012 0.41349 0.0
H425 H 0.00756 0.40387 0.31078 0.0
C426 C 0.06254 0.4073 0.1562 0.0
C427 C 0.06738 0.4196 0.11496 0.0
C428 C 0.046 0.39678 0.16764 0.0
C429 C 0.03394 0.39851 0.1388 0.0
C430 C 0.03879 0.41059 0.09657 0.0
C431 C 0.05535 0.42087 0.08414 0.0
C432 C 0.01646 0.38853 0.15578 0.0
C433 C 0.01248 0.38753 0.2136 0.0
C434 C 0.00372 0.38072 0.11561 0.0
C435 C 0.00705 0.37984 0.05459 0.0
C436 C -6e-05 0.38501 0.01302 0.0
C437 C 0.00314 0.38421 0.9556 0.0
C438 C 0.01336 0.37819 0.93918 0.0
C439 C 0.02037 0.37291 0.98014 0.0
C440 C 0.01721 0.37367 0.03761 0.0
C441 C 0.94435 0.36814 0.25511 0.0
C442 C 0.93243 0.35369 0.22918 0.0
C443 C 0.96092 0.3742 0.24359 0.0
C444 C 0.96589 0.36559 0.20761 0.0
C445 C 0.95392 0.35074 0.1838 0.0
C446 C 0.93735 0.34495 0.19393 0.0
C447 C 0.98341 0.37262 0.19163 0.0
C448 C 0.9874 0.37318 0.13394 0.0
C449 C 0.99617 0.3794 0.23216 0.0
C450 C 0.99289 0.37787 0.29405 0.0
C451 C 0.98289 0.36243 0.31871 0.0
C452 C 0.97973 0.36105 0.37694 0.0
C453 C 0.98659 0.37501 0.41104 0.0
C454 C 0.99666 0.39039 0.38701 0.0
C455 C -0.00015 0.39184 0.3288 0.0
H456 H 0.98412 0.37392 0.45611 0.0
H457 H 0.01582 0.3776 0.89471 0.0
H458 H 0.63863 0.06233 0.35414 0.0
H459 H 0.62686 0.0328 0.3661 0.0
H460 H 0.63865 0.0398 0.54422 0.0
H461 H 0.65065 0.06923 0.53264 0.0
H462 H 0.64394 0.01657 0.50241 0.0
H463 H 0.60058 0.02912 0.49848 0.0
H464 H 0.58435 0.04071 0.45931 0.0
H465 H 0.57307 0.01013 0.31224 0.0
H466 H 0.58945 0.99851 0.35022 0.0
H467 H 0.58266 0.93794 0.60887 0.0
H468 H 0.60006 0.96719 0.58857 0.0
H469 H 0.5924 0.95732 0.40942 0.0
H470 H 0.57524 0.9282 0.42894 0.0
H471 H 0.58572 0.98162 0.44813 0.0
H472 H 0.62807 0.96771 0.45876 0.0
H473 H 0.64364 0.95603 0.50271 0.0
H474 H 0.65592 0.98903 0.64323 0.0
H475 H 0.6402 0.00076 0.60049 0.0
C476 C 0.63889 0.05761 0.39571 0.0
C477 C 0.64543 0.06815 0.44252 0.0
C478 C 0.63212 0.04072 0.40252 0.0
C479 C 0.63165 0.03408 0.45626 0.0
C480 C 0.63885 0.04464 0.50241 0.0
C481 C 0.64565 0.06149 0.49567 0.0
C482 C 0.62287 0.01613 0.46532 0.0
C483 C 0.63118 0.00894 0.49091 0.0
C484 C 0.60626 0.00615 0.44982 0.0
C485 C 0.5964 0.0131 0.42687 0.0
C486 C 0.59476 0.02497 0.45756 0.0
C487 C 0.58551 0.03152 0.43562 0.0
C488 C 0.57773 0.0262 0.38323 0.0
C489 C 0.57914 0.01427 0.35275 0.0
C490 C 0.5884 0.00769 0.37447 0.0
C491 C 0.58483 0.94198 0.56516 0.0
C492 C 0.5775 0.93073 0.52059 0.0
C493 C 0.59481 0.95867 0.55365 0.0
C494 C 0.59748 0.96436 0.4975 0.0
C495 C 0.59046 0.95314 0.45301 0.0
C496 C 0.58068 0.93649 0.46436 0.0
C497 C 0.60679 0.98209 0.48509 0.0
C498 C 0.59853 0.98924 0.45911 0.0
C499 C 0.62335 0.99202 0.50089 0.0
C500 C 0.63281 0.985 0.52669 0.0
C501 C 0.63396 0.97237 0.4993 0.0
C502 C 0.64284 0.96576 0.52393 0.0
C503 C 0.65073 0.97175 0.57581 0.0
C504 C 0.64978 0.98439 0.60308 0.0
C505 C 0.6409 0.99104 0.57865 0.0
H506 H 0.6576 0.96662 0.5948 0.0
H507 H 0.57056 0.03128 0.36632 0.0
H508 H 0.63803 0.57674 0.96969 0.0
H509 H 0.62587 0.59414 0.95714 0.0
H510 H 0.64006 0.601 0.78107 0.0
H511 H 0.65242 0.5839 0.79325 0.0
H512 H 0.64399 0.62887 0.82546 0.0
H513 H 0.60184 0.57279 0.81766 0.0
H514 H 0.58568 0.54425 0.85066 0.0
H515 H 0.57137 0.56026 0.99922 0.0
H516 H 0.58764 0.58894 0.96743 0.0
H517 H 0.58217 0.64623 0.72096 0.0
H518 H 0.59984 0.63451 0.73833 0.0
H519 H 0.59148 0.6343 0.91802 0.0
H520 H 0.57408 0.64614 0.90148 0.0
H521 H 0.58504 0.6037 0.87227 0.0
H522 H 0.62702 0.66057 0.87227 0.0
H523 H 0.64252 0.68837 0.83228 0.0
H524 H 0.65616 0.66974 0.68906 0.0
H525 H 0.64053 0.64178 0.72781 0.0
C526 C 0.63876 0.58213 0.9285 0.0
C527 C 0.64604 0.57876 0.88236 0.0
C528 C 0.63176 0.59202 0.92134 0.0
C529 C 0.63184 0.59864 0.86792 0.0
C530 C 0.63983 0.59599 0.8226 0.0
C531 C 0.64683 0.58614 0.82968 0.0
C532 C 0.62277 0.60749 0.85829 0.0
C533 C 0.63108 0.62333 0.83528 0.0
C534 C 0.60593 0.60026 0.87123 0.0
C535 C 0.59611 0.58303 0.89049 0.0
C536 C 0.59536 0.57024 0.8576 0.0
C537 C 0.58616 0.55404 0.87604 0.0
C538 C 0.57755 0.55045 0.9271 0.0
C539 C 0.57808 0.56306 0.95973 0.0
C540 C 0.58728 0.57929 0.94151 0.0
C541 C 0.58427 0.64389 0.7642 0.0
C542 C 0.57665 0.64706 0.80977 0.0
C543 C 0.59438 0.63723 0.77403 0.0
C544 C 0.5969 0.63354 0.82945 0.0
C545 C 0.58964 0.63705 0.87497 0.0
C546 C 0.57974 0.64387 0.86533 0.0
C547 C 0.6063 0.62512 0.84003 0.0
C548 C 0.59799 0.60928 0.86288 0.0
C549 C 0.62304 0.63225 0.82597 0.0
C550 C 0.63246 0.64905 0.80266 0.0
C551 C 0.63319 0.66238 0.83198 0.0
C552 C 0.64203 0.67817 0.8096 0.0
C553 C 0.65028 0.68082 0.75808 0.0
C554 C 0.64975 0.66767 0.72891 0.0
C555 C 0.64091 0.65185 0.7511 0.0
H556 H 0.65713 0.69306 0.74083 0.0
H557 H 0.57044 0.5379 0.94129 0.0
H558 H 0.07181 0.65176 0.11325 0.0
H559 H 0.04272 0.63975 0.09402 0.0
H560 H 0.03202 0.62765 0.27102 0.0
H561 H 0.06122 0.63944 0.29068 0.0
H562 H 0.01356 0.60186 0.20533 0.0
H563 H 0.02732 0.6581 0.20918 0.0
H564 H 0.04293 0.68729 0.18319 0.0
H565 H 0.0291 0.67502 0.00897 0.0
H566 H 0.01356 0.64572 0.03382 0.0
H567 H 0.93055 0.57817 0.20213 0.0
H568 H 0.95982 0.59514 0.21784 0.0
H569 H 0.96829 0.59837 0.03757 0.0
H570 H 0.93877 0.58113 0.02101 0.0
H571 H 0.9877 0.62891 0.10224 0.0
H572 H 0.97444 0.57277 0.09819 0.0
H573 H 0.95863 0.54358 0.1241 0.0
H574 H 0.97171 0.55584 0.29881 0.0
H575 H 0.98741 0.58515 0.27404 0.0
C576 C 0.06333 0.64674 0.14837 0.0
C577 C 0.06887 0.64649 0.20356 0.0
C578 C 0.04667 0.63993 0.13725 0.0
C579 C 0.03519 0.63288 0.18111 0.0
C580 C 0.04068 0.63303 0.23653 0.0
C581 C 0.05738 0.63982 0.24773 0.0
C582 C 0.01743 0.6244 0.16838 0.0
C583 C 0.00789 0.60788 0.18362 0.0
C584 C 0.01011 0.63209 0.13836 0.0
C585 C 0.01939 0.6497 0.12331 0.0
C586 C 0.0277 0.66161 0.16526 0.0
C587 C 0.03652 0.67818 0.15075 0.0
C588 C 0.03704 0.683 0.09445 0.0
C589 C 0.0287 0.67127 0.05256 0.0
C590 C 0.01986 0.65468 0.06685 0.0
C591 C 0.93853 0.58261 0.16556 0.0
C592 C 0.93229 0.57814 0.11022 0.0
C593 C 0.95528 0.59231 0.17475 0.0
C594 C 0.96616 0.59784 0.12891 0.0
C595 C 0.96002 0.59417 0.07344 0.0
C596 C 0.94319 0.58428 0.06412 0.0
C597 C 0.98396 0.60652 0.13976 0.0
C598 C 0.99346 0.62299 0.12404 0.0
C599 C 0.99129 0.5988 0.16928 0.0
C600 C 0.98196 0.58118 0.18433 0.0
C601 C 0.97383 0.56926 0.14221 0.0
C602 C 0.96491 0.55269 0.15667 0.0
C603 C 0.96413 0.54787 0.21309 0.0
C604 C 0.97231 0.5596 0.25514 0.0
C605 C 0.98123 0.57619 0.2409 0.0
H606 H 0.95722 0.53503 0.22419 0.0
H607 H 0.04388 0.69584 0.0833 0.0
H608 H 0.41933 0.06856 0.4649 0.0
H609 H 0.40159 0.0392 0.45412 0.0
H610 H 0.40501 0.03256 0.63348 0.0
H611 H 0.42314 0.0621 0.64467 0.0
H612 H 0.41035 0.01178 0.57369 0.0
H613 H 0.36944 0.02738 0.57379 0.0
H614 H 0.3563 0.04318 0.54496 0.0
H615 H 0.35211 0.02576 0.37425 0.0
H616 H 0.36543 0.01002 0.40187 0.0
H617 H 0.35095 0.92814 0.57277 0.0
H618 H 0.36317 0.95741 0.58976 0.0
H619 H 0.36748 0.96634 0.4097 0.0
H620 H 0.35528 0.93693 0.39193 0.0
H621 H 0.35699 0.98558 0.47353 0.0
H622 H 0.39955 0.97164 0.47274 0.0
H623 H 0.41262 0.95576 0.50156 0.0
H624 H 0.41351 0.97025 0.67462 0.0
H625 H 0.40021 0.98602 0.64691 0.0
C626 C 0.41621 0.06093 0.50234 0.0
C627 C 0.42272 0.06773 0.55572 0.0
C628 C 0.40596 0.04411 0.49607 0.0
C629 C 0.40182 0.03368 0.54305 0.0
C630 C 0.40802 0.04041 0.59665 0.0
C631 C 0.41835 0.05729 0.60299 0.0
C632 C 0.39188 0.01569 0.53526 0.0
C633 C 0.39854 0.00604 0.5528 0.0
C634 C 0.37666 0.00823 0.50659 0.0
C635 C 0.36856 0.01762 0.48984 0.0
C636 C 0.36583 0.02701 0.53 0.0
C637 C 0.35833 0.03594 0.51389 0.0
C638 C 0.3534 0.0355 0.45778 0.0
C639 C 0.35594 0.0261 0.41769 0.0
C640 C 0.36345 0.01715 0.43357 0.0
C641 C 0.35429 0.93625 0.53657 0.0
C642 C 0.35228 0.93018 0.48089 0.0
C643 C 0.36129 0.95299 0.54648 0.0
C644 C 0.36637 0.96401 0.50101 0.0
C645 C 0.36364 0.95799 0.44532 0.0
C646 C 0.35673 0.9412 0.43529 0.0
C647 C 0.37551 0.98183 0.51199 0.0
C648 C 0.36873 0.99139 0.49488 0.0
C649 C 0.39062 0.98924 0.54111 0.0
C650 C 0.39872 0.97986 0.55785 0.0
C651 C 0.4024 0.97132 0.51702 0.0
C652 C 0.40987 0.96236 0.53313 0.0
C653 C 0.41385 0.96196 0.58991 0.0
C654 C 0.41039 0.97055 0.63067 0.0
C655 C 0.4029 0.97951 0.61478 0.0
H656 H 0.41963 0.95502 0.6023 0.0
H657 H 0.3476 0.04242 0.44539 0.0
H658 H 0.3325 0.40452 0.81232 0.0
H659 H 0.3423 0.38544 0.79291 0.0
H660 H 0.38115 0.41078 0.91468 0.0
H661 H 0.37063 0.42905 0.93687 0.0
H662 H 0.36729 0.38942 0.74687 0.0
H663 H 0.39639 0.38882 0.96549 0.0
H664 H 0.39011 0.38837 0.06714 0.0
H665 H 0.33916 0.36797 0.02824 0.0
H666 H 0.34509 0.36806 0.92644 0.0
H667 H 0.43145 0.37334 0.70652 0.0
H668 H 0.41247 0.38311 0.72715 0.0
H669 H 0.38587 0.3425 0.84163 0.0
H670 H 0.4057 0.33352 0.82426 0.0
H671 H 0.38843 0.36636 0.89053 0.0
H672 H 0.3707 0.34726 0.70488 0.0
H673 H 0.37242 0.34328 0.60238 0.0
H674 H 0.3922 0.3947 0.57396 0.0
H675 H 0.39087 0.39905 0.6764 0.0
C676 C 0.34291 0.40574 0.83578 0.0
C677 C 0.35077 0.41817 0.87632 0.0
C678 C 0.34857 0.39489 0.82448 0.0
C679 C 0.36242 0.3965 0.85256 0.0
C680 C 0.37016 0.40888 0.89353 0.0
C681 C 0.36421 0.41941 0.90603 0.0
C682 C 0.3695 0.38608 0.83618 0.0
C683 C 0.37177 0.38424 0.77835 0.0
C684 C 0.3749 0.37881 0.87691 0.0
C685 C 0.37122 0.37857 0.93823 0.0
C686 C 0.38383 0.38415 0.97862 0.0
C687 C 0.38034 0.38398 0.03628 0.0
C688 C 0.36425 0.37819 0.05412 0.0
C689 C 0.35162 0.3725 0.01435 0.0
C690 C 0.35505 0.37263 0.95666 0.0
C691 C 0.42139 0.36639 0.73541 0.0
C692 C 0.41999 0.3527 0.76381 0.0
C693 C 0.41044 0.37191 0.74697 0.0
C694 C 0.39749 0.36345 0.78546 0.0
C695 C 0.39575 0.34933 0.81203 0.0
C696 C 0.40702 0.34414 0.80188 0.0
C697 C 0.38659 0.37003 0.80118 0.0
C698 C 0.38368 0.37124 0.85894 0.0
C699 C 0.37988 0.376 0.76025 0.0
C700 C 0.38079 0.37349 0.69849 0.0
C701 C 0.37554 0.35774 0.67685 0.0
C702 C 0.37643 0.35542 0.61873 0.0
C703 C 0.38245 0.36873 0.5817 0.0
C704 C 0.38756 0.3844 0.6027 0.0
C705 C 0.38672 0.38679 0.6608 0.0
H706 H 0.38312 0.36691 0.53671 0.0
H707 H 0.36157 0.37808 0.09877 0.0
H708 H 0.08938 0.43549 0.81367 0.0
H709 H 0.08881 0.42801 0.71395 0.0
H710 H 0.13721 0.46942 0.69063 0.0
H711 H 0.138 0.47677 0.78997 0.0
H712 H 0.11583 0.46776 0.61016 0.0
H713 H 0.13158 0.43143 0.69787 0.0
H714 H 0.12823 0.40974 0.76399 0.0
H715 H 0.0826 0.37607 0.68516 0.0
H716 H 0.08557 0.39765 0.61906 0.0
H717 H 0.13784 0.45603 0.34198 0.0
H718 H 0.13805 0.45744 0.44531 0.0
H719 H 0.09044 0.41401 0.45109 0.0
H720 H 0.09031 0.41226 0.3476 0.0
H721 H 0.10928 0.41519 0.54056 0.0
H722 H 0.09324 0.45078 0.45276 0.0
H723 H 0.09597 0.47215 0.38624 0.0
H724 H 0.14097 0.50694 0.466 0.0
H725 H 0.13864 0.4857 0.5325 0.0
C726 C 0.10004 0.44276 0.78771 0.0
C727 C 0.11384 0.45658 0.80999 0.0
C728 C 0.09965 0.43853 0.73064 0.0
C729 C 0.11303 0.4481 0.69513 0.0
C730 C 0.12676 0.46188 0.71735 0.0
C731 C 0.12717 0.46607 0.77412 0.0
C732 C 0.11262 0.44432 0.63413 0.0
C733 C 0.11457 0.45633 0.59498 0.0
C734 C 0.11045 0.4292 0.61444 0.0
C735 C 0.10871 0.41621 0.65394 0.0
C736 C 0.12076 0.41944 0.69495 0.0
C737 C 0.11895 0.40716 0.73237 0.0
C738 C 0.10519 0.39155 0.72889 0.0
C739 C 0.09324 0.38818 0.68787 0.0
C740 C 0.09499 0.40042 0.6504 0.0
C741 C 0.12755 0.4466 0.36528 0.0
C742 C 0.11394 0.4342 0.33673 0.0
C743 C 0.12768 0.44743 0.42428 0.0
C744 C 0.11407 0.43607 0.45565 0.0
C745 C 0.101 0.42296 0.42757 0.0
C746 C 0.10095 0.422 0.36845 0.0
C747 C 0.1129 0.43881 0.51682 0.0
C748 C 0.11052 0.4266 0.55584 0.0
C749 C 0.11454 0.45372 0.53661 0.0
C750 C 0.11583 0.46661 0.4973 0.0
C751 C 0.10377 0.46296 0.45591 0.0
C752 C 0.10524 0.47506 0.41822 0.0
C753 C 0.11866 0.49089 0.4218 0.0
C754 C 0.1306 0.49467 0.46323 0.0
C755 C 0.1292 0.48261 0.50097 0.0
H756 H 0.11979 0.50023 0.39254 0.0
H757 H 0.1038 0.38206 0.7579 0.0
H758 H 0.67797 0.13644 0.67476 0.0
H759 H 0.67925 0.13656 0.77814 0.0
H760 H 0.6817 0.09216 0.77474 0.0
H761 H 0.68039 0.0919 0.67116 0.0
H762 H 0.65775 0.08992 0.84511 0.0
H763 H 0.71449 0.12687 0.81649 0.0
H764 H 0.73879 0.15077 0.77631 0.0
H765 H 0.72438 0.18287 0.85301 0.0
H766 H 0.69985 0.15915 0.89298 0.0
H767 H 0.66039 0.09203 0.14696 0.0
H768 H 0.66867 0.09133 0.04922 0.0
H769 H 0.67028 0.13702 0.01523 0.0
H770 H 0.66269 0.13813 0.11313 0.0
H771 H 0.69555 0.13667 0.96599 0.0
H772 H 0.63705 0.10013 0.97974 0.0
H773 H 0.61197 0.0766 0.01766 0.0
H774 H 0.62921 0.04418 0.96676 0.0
H775 H 0.6545 0.06758 0.92916 0.0
C776 C 0.67902 0.12682 0.69592 0.0
C777 C 0.67898 0.11411 0.66478 0.0
C778 C 0.67984 0.12696 0.75501 0.0
C779 C 0.68064 0.1144 0.78407 0.0
C780 C 0.68112 0.10197 0.75307 0.0
C781 C 0.68041 0.10188 0.6939 0.0
C782 C 0.67958 0.11361 0.84675 0.0
C783 C 0.66624 0.09997 0.87173 0.0
C784 C 0.69048 0.12687 0.88122 0.0
C785 C 0.70526 0.1412 0.85745 0.0
C786 C 0.71643 0.13901 0.82445 0.0
C787 C 0.73026 0.15253 0.80177 0.0
C788 C 0.73312 0.16832 0.81202 0.0
C789 C 0.72216 0.17063 0.84509 0.0
C790 C 0.7083 0.15715 0.86784 0.0
C791 C 0.66292 0.10213 0.11918 0.0
C792 C 0.66108 0.11524 0.13806 0.0
C793 C 0.66746 0.10162 0.06307 0.0
C794 C 0.67002 0.11409 0.02483 0.0
C795 C 0.66845 0.1273 0.04399 0.0
C796 C 0.66397 0.12784 0.09989 0.0
C797 C 0.67351 0.11316 0.96408 0.0
C798 C 0.68727 0.12648 0.93947 0.0
C799 C 0.66294 0.09967 0.92979 0.0
C800 C 0.64775 0.08561 0.95233 0.0
C801 C 0.63555 0.088 0.97707 0.0
C802 C 0.62129 0.07469 0.99842 0.0
C803 C 0.61902 0.05891 0.9948 0.0
C804 C 0.631 0.05641 0.96966 0.0
C805 C 0.64529 0.06969 0.94831 0.0
H806 H 0.60797 0.04862 0.01134 0.0
H807 H 0.74383 0.17878 0.79441 0.0
H808 H 0.53184 0.63697 0.45822 0.0
H809 H 0.54053 0.64431 0.36004 0.0
H810 H 0.57786 0.69239 0.41347 0.0
H811 H 0.56898 0.68513 0.51209 0.0
H812 H 0.55984 0.69393 0.32717 0.0
H813 H 0.58939 0.66673 0.36084 0.0
H814 H 0.59481 0.64522 0.39498 0.0
H815 H 0.55843 0.61063 0.28141 0.0
H816 H 0.55259 0.63187 0.24717 0.0
H817 H 0.58254 0.70216 0.02405 0.0
H818 H 0.58529 0.70202 0.1277 0.0
H819 H 0.53897 0.65721 0.13748 0.0
H820 H 0.53589 0.65743 0.03492 0.0
H821 H 0.56894 0.65873 0.19322 0.0
H822 H 0.53653 0.68596 0.17659 0.0
H823 H 0.53195 0.70808 0.14287 0.0
H824 H 0.57609 0.74371 0.22514 0.0
H825 H 0.58105 0.72178 0.25865 0.0
C826 C 0.5421 0.649 0.44914 0.0
C827 C 0.54991 0.66037 0.49283 0.0
C828 C 0.54711 0.65317 0.39309 0.0
C829 C 0.55999 0.66883 0.37951 0.0
C830 C 0.56801 0.68018 0.42316 0.0
C831 C 0.56305 0.67595 0.47952 0.0
C832 C 0.56398 0.67351 0.3192 0.0
C833 C 0.56227 0.68649 0.29808 0.0
C834 C 0.56709 0.66379 0.28119 0.0
C835 C 0.57049 0.6509 0.30163 0.0
C836 C 0.58245 0.65451 0.34343 0.0
C837 C 0.58561 0.64236 0.36276 0.0
C838 C 0.57695 0.62656 0.34043 0.0
C839 C 0.56512 0.62288 0.29867 0.0
C840 C 0.5619 0.63498 0.27921 0.0
C841 C 0.57287 0.6924 0.04846 0.0
C842 C 0.559 0.67982 0.0214 0.0
C843 C 0.57448 0.69233 0.10745 0.0
C844 C 0.56237 0.67954 0.13979 0.0
C845 C 0.54845 0.66713 0.11298 0.0
C846 C 0.54668 0.66735 0.05443 0.0
C847 C 0.56417 0.67866 0.20159 0.0
C848 C 0.56697 0.66639 0.22272 0.0
C849 C 0.56225 0.68913 0.23957 0.0
C850 C 0.55929 0.70227 0.21934 0.0
C851 C 0.54536 0.69853 0.18689 0.0
C852 C 0.54267 0.71102 0.16797 0.0
C853 C 0.55376 0.7273 0.18164 0.0
C854 C 0.56754 0.7311 0.21443 0.0
C855 C 0.57029 0.71865 0.2334 0.0
H856 H 0.55165 0.73695 0.167 0.0
H857 H 0.57943 0.61718 0.35544 0.0
H858 H 0.91061 0.56381 0.80353 0.0
H859 H 0.91137 0.57134 0.70372 0.0
H860 H 0.86167 0.53211 0.68268 0.0
H861 H 0.86072 0.52471 0.78203 0.0
H862 H 0.88216 0.53181 0.6023 0.0
H863 H 0.87013 0.57114 0.68823 0.0
H864 H 0.87533 0.59371 0.75311 0.0
H865 H 0.9214 0.6246 0.67162 0.0
H866 H 0.91658 0.60212 0.60674 0.0
H867 H 0.86127 0.54407 0.33333 0.0
H868 H 0.86116 0.54318 0.43676 0.0
H869 H 0.91 0.58486 0.44014 0.0
H870 H 0.91002 0.58613 0.33656 0.0
H871 H 0.89217 0.58539 0.52961 0.0
H872 H 0.90473 0.54696 0.44409 0.0
H873 H 0.90044 0.52471 0.37906 0.0
H874 H 0.85482 0.4924 0.46075 0.0
H875 H 0.85872 0.51454 0.52575 0.0
C876 C 0.89973 0.55705 0.77803 0.0
C877 C 0.88553 0.54379 0.80086 0.0
C878 C 0.90022 0.56131 0.72094 0.0
C879 C 0.88653 0.55233 0.68603 0.0
C880 C 0.87236 0.53918 0.70892 0.0
C881 C 0.87187 0.53495 0.76568 0.0
C882 C 0.88704 0.55595 0.62487 0.0
C883 C 0.88417 0.54347 0.58645 0.0
C884 C 0.89022 0.57135 0.6043 0.0
C885 C 0.89307 0.58489 0.64304 0.0
C886 C 0.88143 0.5827 0.68445 0.0
C887 C 0.8843 0.59548 0.72117 0.0
C888 C 0.8987 0.61056 0.7166 0.0
C889 C 0.91025 0.6129 0.67517 0.0
C890 C 0.90746 0.60015 0.6384 0.0
C891 C 0.87186 0.55324 0.35614 0.0
C892 C 0.88576 0.565 0.32694 0.0
C893 C 0.8718 0.5527 0.41518 0.0
C894 C 0.88574 0.56369 0.44594 0.0
C895 C 0.89917 0.57621 0.41713 0.0
C896 C 0.89916 0.5769 0.35796 0.0
C897 C 0.88683 0.56108 0.50727 0.0
C898 C 0.89016 0.57375 0.54556 0.0
C899 C 0.88423 0.54588 0.52796 0.0
C900 C 0.88196 0.53245 0.48947 0.0
C901 C 0.89374 0.53514 0.44797 0.0
C902 C 0.89138 0.52254 0.41113 0.0
C903 C 0.87735 0.50716 0.41569 0.0
C904 C 0.86567 0.50432 0.45723 0.0
C905 C 0.86796 0.51689 0.49411 0.0
H906 H 0.87554 0.49742 0.38709 0.0
H907 H 0.9009 0.62045 0.74506 0.0
H908 H 0.36117 0.89169 0.12957 0.0
H909 H 0.35439 0.89356 0.03129 0.0
H910 H 0.30866 0.88923 0.0844 0.0
H911 H 0.31519 0.8868 0.18315 0.0
H912 H 0.30403 0.86894 0.99885 0.0
H913 H 0.33865 0.92538 0.03056 0.0
H914 H 0.36284 0.95064 0.06383 0.0
H915 H 0.39343 0.94212 0.95076 0.0
H916 H 0.36947 0.91666 0.91738 0.0
H917 H 0.2988 0.88445 0.69496 0.0
H918 H 0.29917 0.88749 0.79853 0.0
H919 H 0.34048 0.87991 0.80918 0.0
H920 H 0.34001 0.8765 0.70669 0.0
H921 H 0.34344 0.90999 0.86366 0.0
H922 H 0.30819 0.85063 0.84799 0.0
H923 H 0.28346 0.8258 0.81504 0.0
H924 H 0.25321 0.84146 0.89845 0.0
H925 H 0.2778 0.86653 0.9312 0.0
C926 C 0.34977 0.89138 0.12042 0.0
C927 C 0.33886 0.88942 0.16414 0.0
C928 C 0.34596 0.89256 0.06426 0.0
C929 C 0.33114 0.89183 0.05055 0.0
C930 C 0.32024 0.89003 0.09416 0.0
C931 C 0.32409 0.88886 0.15062 0.0
C932 C 0.32675 0.89172 0.99019 0.0
C933 C 0.31244 0.87816 0.96948 0.0
C934 C 0.33772 0.90371 0.95178 0.0
C935 C 0.35224 0.91904 0.97163 0.0
C936 C 0.35055 0.92882 0.01305 0.0
C937 C 0.36422 0.94319 0.0319 0.0
C938 C 0.37966 0.94797 0.00947 0.0
C939 C 0.38146 0.9384 0.96808 0.0
C940 C 0.36783 0.92401 0.94911 0.0
C941 C 0.30781 0.88323 0.71953 0.0
C942 C 0.31939 0.88027 0.69269 0.0
C943 C 0.30801 0.88499 0.7785 0.0
C944 C 0.31993 0.88403 0.81105 0.0
C945 C 0.33125 0.88075 0.78451 0.0
C946 C 0.33089 0.87872 0.72597 0.0
C947 C 0.32116 0.88695 0.87273 0.0
C948 C 0.33486 0.90106 0.89343 0.0
C949 C 0.30955 0.8756 0.91104 0.0
C950 C 0.29481 0.86056 0.8913 0.0
C951 C 0.29626 0.84887 0.85873 0.0
C952 C 0.28228 0.83473 0.84024 0.0
C953 C 0.26677 0.83209 0.85444 0.0
C954 C 0.26523 0.84355 0.88734 0.0
C955 C 0.27918 0.85772 0.90589 0.0
H956 H 0.25595 0.82113 0.84012 0.0
H957 H 0.39023 0.9591 0.02411 0.0
H958 H 0.46415 0.33434 0.9941 0.0
H959 H 0.4635 0.33336 0.09687 0.0
H960 H 0.41081 0.30461 0.09365 0.0
H961 H 0.41133 0.306 0.98985 0.0
H962 H 0.41987 0.32807 0.16769 0.0
H963 H 0.43439 0.28766 0.13639 0.0
H964 H 0.44894 0.2746 0.09452 0.0
H965 H 0.49422 0.31225 0.16431 0.0
H966 H 0.48 0.32569 0.20592 0.0
H967 H 0.43006 0.32219 0.47458 0.0
H968 H 0.42217 0.3143 0.37589 0.0
H969 H 0.46976 0.35208 0.32094 0.0
H970 H 0.4775 0.36066 0.41906 0.0
H971 H 0.45796 0.31776 0.28157 0.0
H972 H 0.44207 0.35964 0.29884 0.0
H973 H 0.42629 0.3712 0.34216 0.0
H974 H 0.38143 0.32748 0.30111 0.0
H975 H 0.39698 0.31556 0.25825 0.0
C976 C 0.45239 0.32761 0.01501 0.0
C977 C 0.43778 0.32028 0.98372 0.0
C978 C 0.45205 0.32696 0.07397 0.0
C979 C 0.43712 0.3187 0.10312 0.0
C980 C 0.42248 0.311 0.07204 0.0
C981 C 0.4228 0.31177 0.01276 0.0
C982 C 0.43701 0.31926 0.16596 0.0
C983 C 0.4279 0.32542 0.1927 0.0
C984 C 0.44746 0.31579 0.19883 0.0
C985 C 0.45612 0.30773 0.1741 0.0
C986 C 0.44747 0.29322 0.14253 0.0
C987 C 0.45566 0.28574 0.11887 0.0
C988 C 0.47249 0.2926 0.1267 0.0
C989 C 0.48117 0.30694 0.1583 0.0
C990 C 0.47305 0.31449 0.18203 0.0
C991 C 0.43863 0.32929 0.44159 0.0
C992 C 0.45429 0.34238 0.45475 0.0
C993 C 0.43416 0.32456 0.38523 0.0
C994 C 0.4454 0.33263 0.34147 0.0
C995 C 0.46095 0.34572 0.35435 0.0
C996 C 0.46532 0.35061 0.41038 0.0
C997 C 0.44138 0.32715 0.28214 0.0
C998 C 0.44968 0.32002 0.2564 0.0
C999 C 0.42998 0.32942 0.25052 0.0
C1000 C 0.42068 0.33663 0.27607 0.0
C1001 C 0.42885 0.35242 0.2996 0.0
C1002 C 0.41995 0.35906 0.32393 0.0
C1003 C 0.40287 0.35006 0.32458 0.0
C1004 C 0.39466 0.33442 0.3007 0.0
C1005 C 0.40351 0.32773 0.27637 0.0
H1006 H 0.396 0.35522 0.34343 0.0
H1007 H 0.47881 0.28679 0.10834 0.0
H1008 H 0.57125 0.88949 0.8237 0.0
H1009 H 0.57937 0.89068 0.92255 0.0
H1010 H 0.53712 0.89355 0.97535 0.0
H1011 H 0.52949 0.89334 0.87671 0.0
H1012 H 0.56153 0.91228 0.04031 0.0
H1013 H 0.53791 0.85683 0.97076 0.0
H1014 H 0.53596 0.83523 0.90687 0.0
H1015 H 0.58413 0.84607 0.95614 0.0
H1016 H 0.58645 0.86789 0.01979 0.0
H1017 H 0.53617 0.87109 0.30095 0.0
H1018 H 0.53824 0.87409 0.19808 0.0
H1019 H 0.59007 0.89211 0.20717 0.0
H1020 H 0.58824 0.88951 0.31087 0.0
H1021 H 0.56641 0.86543 0.11168 0.0
H1022 H 0.58766 0.92008 0.19026 0.0
H1023 H 0.58655 0.93955 0.25725 0.0
H1024 H 0.53948 0.92794 0.19222 0.0
H1025 H 0.5402 0.90816 0.12552 0.0
C1026 C 0.56403 0.89101 0.85604 0.0
C1027 C 0.54983 0.89157 0.84209 0.0
C1028 C 0.56854 0.89139 0.91278 0.0
C1029 C 0.55874 0.89198 0.95652 0.0
C1030 C 0.54491 0.89311 0.94247 0.0
C1031 C 0.5405 0.8929 0.88597 0.0
C1032 C 0.56218 0.89052 0.01701 0.0
C1033 C 0.56267 0.90206 0.05568 0.0
C1034 C 0.56386 0.87729 0.03734 0.0
C1035 C 0.56243 0.86411 -0.00055 0.0
C1036 C 0.54813 0.85467 0.96765 0.0
C1037 C 0.54695 0.84239 0.93153 0.0
C1038 C 0.55994 0.83932 0.9273 0.0
C1039 C 0.5741 0.84849 0.95935 0.0
C1040 C 0.57535 0.86081 0.99546 0.0
C1041 C 0.54799 0.87543 0.28121 0.0
C1042 C 0.56207 0.88019 0.31413 0.0
C1043 C 0.54913 0.87714 0.22243 0.0
C1044 C 0.56431 0.88339 0.19542 0.0
C1045 C 0.57826 0.88726 0.22755 0.0
C1046 C 0.57718 0.8858 0.28666 0.0
C1047 C 0.56553 0.88705 0.13422 0.0
C1048 C 0.56576 0.87587 0.09574 0.0
C1049 C 0.56425 0.90045 0.114 0.0
C1050 C 0.56392 0.91254 0.15329 0.0
C1051 C 0.57701 0.92157 0.1906 0.0
C1052 C 0.57647 0.93268 0.22846 0.0
C1053 C 0.56294 0.93496 0.22908 0.0
C1054 C 0.54995 0.92615 0.19172 0.0
C1055 C 0.55043 0.915 0.15386 0.0
H1056 H 0.56253 0.94356 0.25843 0.0
H1057 H 0.55901 0.82981 0.89931 0.0
H1058 H 0.68162 0.58977 0.65265 0.0
H1059 H 0.68255 0.59042 0.54904 0.0
H1060 H 0.67916 0.54314 0.54703 0.0
H1061 H 0.67825 0.54237 0.65058 0.0
H1062 H 0.70081 0.56463 0.46539 0.0
H1063 H 0.6455 0.54505 0.53259 0.0
H1064 H 0.62445 0.54716 0.58781 0.0
H1065 H 0.63531 0.59107 0.49832 0.0
H1066 H 0.6566 0.58933 0.44309 0.0
H1067 H 0.66328 0.52595 0.21098 0.0
H1068 H 0.67135 0.53483 0.30841 0.0
H1069 H 0.66859 0.57837 0.27595 0.0
H1070 H 0.65995 0.56923 0.17841 0.0
H1071 H 0.65332 0.56391 0.37232 0.0
H1072 H 0.70564 0.58092 0.29377 0.0
H1073 H 0.72648 0.57861 0.23814 0.0
H1074 H 0.72172 0.54008 0.34736 0.0
H1075 H 0.70064 0.54197 0.40316 0.0
C1076 C 0.68135 0.57962 0.63024 0.0
C1077 C 0.67967 0.56593 0.6598 0.0
C1078 C 0.68185 0.58001 0.57104 0.0
C1079 C 0.68073 0.56674 0.54047 0.0
C1080 C 0.68002 0.55349 0.56991 0.0
C1081 C 0.67942 0.55304 0.62906 0.0
C1082 C 0.67894 0.56598 0.47803 0.0
C1083 C 0.69042 0.56442 0.44489 0.0
C1084 C 0.66563 0.56619 0.45136 0.0
C1085 C 0.65277 0.56718 0.48425 0.0
C1086 C 0.64349 0.55523 0.52503 0.0
C1087 C 0.6315 0.55634 0.55627 0.0
C1088 C 0.62858 0.56927 0.54672 0.0
C1089 C 0.63761 0.58108 0.50576 0.0
C1090 C 0.64963 0.58004 0.47447 0.0
C1091 C 0.66447 0.53747 0.2244 0.0
C1092 C 0.66122 0.54701 0.18667 0.0
C1093 C 0.66924 0.54261 0.28 0.0
C1094 C 0.6709 0.55743 0.29919 0.0
C1095 C 0.6676 0.56699 0.26175 0.0
C1096 C 0.66283 0.56184 0.20586 0.0
C1097 C 0.67502 0.56222 0.35942 0.0
C1098 C 0.66393 0.56448 0.39235 0.0
C1099 C 0.68873 0.56269 0.38577 0.0
C1100 C 0.70147 0.56153 0.35249 0.0
C1101 C 0.70894 0.57187 0.30571 0.0
C1102 C 0.72082 0.57064 0.27417 0.0
C1103 C 0.72541 0.55919 0.28916 0.0
C1104 C 0.71815 0.54895 0.33579 0.0
C1105 C 0.70625 0.55011 0.36745 0.0
H1106 H 0.73461 0.55826 0.26468 0.0
H1107 H 0.6193 0.57011 0.57094 0.0
H1108 H 0.12229 0.68667 0.50319 0.0
H1109 H 0.12273 0.69482 0.60209 0.0
H1110 H 0.09679 0.64403 0.65183 0.0
H1111 H 0.09611 0.63588 0.55304 0.0
H1112 H 0.08627 0.66188 0.71128 0.0
H1113 H 0.13725 0.66524 0.65675 0.0
H1114 H 0.16244 0.67512 0.60034 0.0
H1115 H 0.17818 0.72449 0.65106 0.0
H1116 H 0.1529 0.71492 0.7069 0.0
H1117 H 0.13409 0.66975 0.9809 0.0
H1118 H 0.13297 0.67044 0.87776 0.0
H1119 H 0.10367 0.6937 0.88838 0.0
H1120 H 0.10445 0.69276 0.99189 0.0
H1121 H 0.14157 0.69303 0.79674 0.0
H1122 H 0.07464 0.67747 0.78395 0.0
H1123 H 0.04976 0.66525 0.84321 0.0
H1124 H 0.06627 0.63624 0.9304 0.0
H1125 H 0.09113 0.64812 0.87118 0.0
C1126 C 0.11612 0.67726 0.5349 0.0
C1127 C 0.10888 0.66064 0.52051 0.0
C1128 C 0.11657 0.68193 0.59146 0.0
C1129 C 0.10985 0.67002 0.63428 0.0
C1130 C 0.10197 0.65341 0.61944 0.0
C1131 C 0.10162 0.64877 0.56312 0.0
C1132 C 0.11218 0.67466 0.69497 0.0
C1133 C 0.09835 0.6689 0.72986 0.0
C1134 C 0.12796 0.68363 0.7193 0.0
C1135 C 0.14308 0.68939 0.68534 0.0
C1136 C 0.146 0.67822 0.65537 0.0
C1137 C 0.16031 0.68376 0.6236 0.0
C1138 C 0.17189 0.70043 0.62206 0.0
C1139 C 0.16919 0.71159 0.65231 0.0
C1140 C 0.15486 0.70612 0.68391 0.0
C1141 C 0.12758 0.67521 0.96141 0.0
C1142 C 0.11917 0.68099 0.99463 0.0
C1143 C 0.12701 0.67566 0.90237 0.0
C1144 C 0.11804 0.6819 0.87538 0.0
C1145 C 0.11045 0.6886 0.90837 0.0
C1146 C 0.11095 0.68808 0.96752 0.0
C1147 C 0.11566 0.68016 0.81311 0.0
C1148 C 0.12948 0.68642 0.77795 0.0
C1149 C 0.09988 0.67136 0.78866 0.0
C1150 C 0.08481 0.66383 0.82361 0.0
C1151 C 0.07292 0.66844 0.81564 0.0
C1152 C 0.05883 0.66158 0.84923 0.0
C1153 C 0.05646 0.65002 0.8907 0.0
C1154 C 0.06814 0.64523 0.89842 0.0
C1155 C 0.08223 0.65203 0.86488 0.0
H1156 H 0.04557 0.64476 0.91675 0.0
H1157 H 0.18296 0.7047 0.59743 0.0
H1158 H 0.45733 0.13582 0.32219 0.0
H1159 H 0.45583 0.13592 0.21884 0.0
H1160 H 0.41012 0.09029 0.22328 0.0
H1161 H 0.4115 0.09009 0.32682 0.0
H1162 H 0.43264 0.08944 0.15183 0.0
H1163 H 0.4098 0.12372 0.18258 0.0
H1164 H 0.40788 0.14672 0.22363 0.0
H1165 H 0.45349 0.18088 0.14578 0.0
H1166 H 0.45583 0.15808 0.10493 0.0
H1167 H 0.43131 0.09159 0.85028 0.0
H1168 H 0.42218 0.09038 0.94813 0.0
H1169 H 0.46485 0.13722 0.98202 0.0
H1170 H 0.4737 0.13878 0.88405 0.0
H1171 H 0.43842 0.13523 0.03202 0.0
H1172 H 0.46358 0.10153 0.01644 0.0
H1173 H 0.46676 0.079 0.97777 0.0
H1174 H 0.41781 0.04427 0.0294 0.0
H1175 H 0.41428 0.06664 0.06774 0.0
C1176 C 0.44684 0.12592 0.30126 0.0
C1177 C 0.43458 0.11291 0.33263 0.0
C1178 C 0.44595 0.12604 0.24221 0.0
C1179 C 0.43282 0.11314 0.21348 0.0
C1180 C 0.42033 0.10037 0.24473 0.0
C1181 C 0.42113 0.10031 0.30386 0.0
C1182 C 0.43295 0.11241 0.15081 0.0
C1183 C 0.4335 0.09926 0.12544 0.0
C1184 C 0.4344 0.12538 0.11668 0.0
C1185 C 0.43303 0.13916 0.14098 0.0
C1186 C 0.41949 0.13613 0.17455 0.0
C1187 C 0.41832 0.14914 0.19773 0.0
C1188 C 0.43057 0.16525 0.1874 0.0
C1189 C 0.44401 0.16839 0.15376 0.0
C1190 C 0.44525 0.15543 0.13051 0.0
C1191 C 0.43851 0.10182 0.87808 0.0
C1192 C 0.45314 0.11537 0.85922 0.0
C1193 C 0.43337 0.10103 0.93422 0.0
C1194 C 0.44288 0.11368 0.97244 0.0
C1195 C 0.45728 0.12735 0.95324 0.0
C1196 C 0.46239 0.12816 0.89733 0.0
C1197 C 0.43849 0.11244 0.03329 0.0
C1198 C 0.43719 0.12524 0.0583 0.0
C1199 C 0.43648 0.09921 0.06727 0.0
C1200 C 0.43859 0.08576 0.04425 0.0
C1201 C 0.45345 0.0891 0.0191 0.0
C1202 C 0.45532 0.07636 0.99733 0.0
C1203 C 0.44247 0.06022 0.00094 0.0
C1204 C 0.42774 0.05678 0.0265 0.0
C1205 C 0.42579 0.06948 0.04826 0.0
H1206 H 0.44395 0.05037 0.98409 0.0
H1207 H 0.42964 0.1753 0.20539 0.0
H1208 H 0.30327 0.40862 0.65617 0.0
H1209 H 0.30276 0.4077 0.55244 0.0
H1210 H 0.33166 0.46039 0.5469 0.0
H1211 H 0.33172 0.46143 0.64989 0.0
H1212 H 0.31028 0.45067 0.46682 0.0
H1213 H 0.34859 0.43474 0.53451 0.0
H1214 H 0.35723 0.41792 0.58825 0.0
H1215 H 0.32298 0.37527 0.49554 0.0
H1216 H 0.314 0.39182 0.44172 0.0
H1217 H 0.36149 0.46916 0.22635 0.0
H1218 H 0.35272 0.46128 0.32425 0.0
H1219 H 0.3084 0.4192 0.26618 0.0
H1220 H 0.31656 0.42741 0.168 0.0
H1221 H 0.3328 0.41912 0.37277 0.0
H1222 H 0.29642 0.43818 0.30016 0.0
H1223 H 0.29163 0.45767 0.2455 0.0
H1224 H 0.32641 0.4972 0.34914 0.0
H1225 H 0.33159 0.47795 0.40378 0.0
C1226 C 0.3093 0.42001 0.63277 0.0
C1227 C 0.31766 0.43509 0.66126 0.0
C1228 C 0.30908 0.41946 0.57351 0.0
C1229 C 0.31743 0.43396 0.54185 0.0
C1230 C 0.32514 0.44903 0.57032 0.0
C1231 C 0.3252 0.4496 0.62935 0.0
C1232 C 0.31893 0.43363 0.4793 0.0
C1233 C 0.3151 0.44366 0.44643 0.0
C1234 C 0.32512 0.42442 0.45228 0.0
C1235 C 0.33048 0.41446 0.48464 0.0
C1236 C 0.34281 0.42175 0.52593 0.0
C1237 C 0.34779 0.41227 0.55633 0.0
C1238 C 0.34062 0.39553 0.54545 0.0
C1239 C 0.32849 0.38824 0.50402 0.0
C1240 C 0.32346 0.39765 0.47355 0.0
C1241 C 0.34994 0.45811 0.2342 0.0
C1242 C 0.33989 0.44879 0.18901 0.0
C1243 C 0.34501 0.45362 0.29015 0.0
C1244 C 0.32998 0.43966 0.30206 0.0
C1245 C 0.32013 0.42993 0.25748 0.0
C1246 C 0.32495 0.43456 0.20127 0.0
C1247 C 0.32424 0.43619 0.36123 0.0
C1248 C 0.32746 0.42564 0.39332 0.0
C1249 C 0.31778 0.44512 0.38782 0.0
C1250 C 0.3145 0.45666 0.35562 0.0
C1251 C 0.30316 0.45105 0.31091 0.0
C1252 C 0.30035 0.46204 0.28002 0.0
C1253 C 0.30874 0.47867 0.29374 0.0
C1254 C 0.31993 0.48432 0.33851 0.0
C1255 C 0.32279 0.47338 0.36947 0.0
H1256 H 0.30655 0.48717 0.26978 0.0
H1257 H 0.34449 0.38822 0.569 0.0
H1258 H 0.85827 0.33324 0.54411 0.0
H1259 H 0.85916 0.32643 0.64326 0.0
H1260 H 0.91072 0.34335 0.6278 0.0
H1261 H 0.90988 0.35016 0.52796 0.0
H1262 H 0.89439 0.31492 0.69164 0.0
H1263 H 0.89892 0.36791 0.68525 0.0
H1264 H 0.89083 0.38802 0.6569 0.0
H1265 H 0.84446 0.35949 0.73955 0.0
H1266 H 0.85218 0.33909 0.76772 0.0
H1267 H 0.91261 0.32828 0.9879 0.0
H1268 H 0.91096 0.32839 0.88469 0.0
H1269 H 0.8605 0.31624 0.89609 0.0
H1270 H 0.86223 0.31664 -0.00059 0.0
H1271 H 0.87685 0.34197 0.83295 0.0
H1272 H 0.87255 0.28917 0.84208 0.0
H1273 H 0.8807 0.26911 0.87032 0.0
H1274 H 0.92653 0.29706 0.78384 0.0
H1275 H 0.91876 0.31741 0.75571 0.0
C1276 C 0.86979 0.33546 0.56175 0.0
C1277 C 0.88401 0.3422 0.52838 0.0
C1278 C 0.87027 0.33153 0.61831 0.0
C1279 C 0.88504 0.33456 0.64294 0.0
C1280 C 0.8992 0.34088 0.60941 0.0
C1281 C 0.8987 0.34472 0.55245 0.0
C1282 C 0.88574 0.3319 0.70439 0.0
C1283 C 0.89074 0.32095 0.72275 0.0
C1284 C 0.88069 0.33957 0.74466 0.0
C1285 C 0.87607 0.3519 0.72816 0.0
C1286 C 0.88695 0.36587 0.69704 0.0
C1287 C 0.88244 0.37733 0.68105 0.0
C1288 C 0.86713 0.37502 0.69631 0.0
C1289 C 0.85631 0.36126 0.72772 0.0
C1290 C 0.86075 0.34975 0.74375 0.0
C1291 C 0.90106 0.32529 0.96841 0.0
C1292 C 0.88759 0.32262 0.00166 0.0
C1293 C 0.90012 0.32529 0.90934 0.0
C1294 C 0.8856 0.3223 0.8826 0.0
C1295 C 0.87185 0.31867 0.91584 0.0
C1296 C 0.87285 0.31888 0.97483 0.0
C1297 C 0.88522 0.32472 0.82067 0.0
C1298 C 0.88039 0.3358 0.8021 0.0
C1299 C 0.89044 0.31715 0.78048 0.0
C1300 C 0.89512 0.3049 0.79722 0.0
C1301 C 0.88442 0.29111 0.82946 0.0
C1302 C 0.88896 0.27967 0.84537 0.0
C1303 C 0.90414 0.28183 0.829 0.0
C1304 C 0.91479 0.29541 0.79654 0.0
C1305 C 0.91031 0.30689 0.78054 0.0
H1306 H 0.90763 0.27296 0.84137 0.0
H1307 H 0.86366 0.3839 0.68388 0.0
H1308 H 0.12211 0.50616 0.05157 0.0
H1309 H 0.12421 0.53262 0.06814 0.0
H1310 H 0.11968 0.52342 0.24822 0.0
H1311 H 0.11799 0.49701 0.23209 0.0
H1312 H 0.10278 0.53953 0.11114 0.0
H1313 H 0.13945 0.55949 0.31987 0.0
H1314 H 0.16028 0.55582 0.37037 0.0
H1315 H 0.17796 0.54836 0.21193 0.0
H1316 H 0.15737 0.55216 0.16048 0.0
H1317 H 0.11893 0.6142 0.29375 0.0
H1318 H 0.11976 0.58893 0.2819 0.0
H1319 H 0.12734 0.59798 0.10225 0.0
H1320 H 0.12635 0.6232 0.11346 0.0
H1321 H 0.14264 0.58195 0.24164 0.0
H1322 H 0.10569 0.56169 0.03286 0.0
H1323 H 0.08465 0.56514 0.98294 0.0
H1324 H 0.06745 0.57301 0.14176 0.0
H1325 H 0.08823 0.56938 0.19265 0.0
C1326 C 0.12166 0.50978 0.0948 0.0
C1327 C 0.11989 0.49946 0.14053 0.0
C1328 C 0.12283 0.52491 0.10416 0.0
C1329 C 0.12222 0.53008 0.15939 0.0
C1330 C 0.12047 0.51983 0.20526 0.0
C1331 C 0.11944 0.5047 0.19596 0.0
C1332 C 0.12287 0.54596 0.1684 0.0
C1333 C 0.11166 0.54889 0.13907 0.0
C1334 C 0.13415 0.558 0.20604 0.0
C1335 C 0.14676 0.55595 0.23642 0.0
C1336 C 0.14783 0.55713 0.29582 0.0
C1337 C 0.15958 0.55501 0.32461 0.0
C1338 C 0.1704 0.55181 0.29439 0.0
C1339 C 0.16953 0.55078 0.2353 0.0
C1340 C 0.15781 0.55289 0.20631 0.0
C1341 C 0.12086 0.61089 0.25169 0.0
C1342 C 0.12243 0.62068 0.20444 0.0
C1343 C 0.12139 0.59646 0.24509 0.0
C1344 C 0.1234 0.59148 0.19116 0.0
C1345 C 0.12554 0.60149 0.14417 0.0
C1346 C 0.12501 0.61593 0.1507 0.0
C1347 C 0.1227 0.57555 0.18376 0.0
C1348 C 0.13382 0.57259 0.21358 0.0
C1349 C 0.11133 0.56345 0.14657 0.0
C1350 C 0.09864 0.56544 0.11646 0.0
C1351 C 0.09738 0.5641 0.05712 0.0
C1352 C 0.08551 0.56609 0.02866 0.0
C1353 C 0.07476 0.56935 0.05915 0.0
C1354 C 0.07583 0.57055 0.11818 0.0
C1355 C 0.08766 0.56855 0.14684 0.0
H1356 H 0.06559 0.5709 0.03703 0.0
H1357 H 0.17948 0.55016 0.31675 0.0
H1358 H 0.61474 0.122 0.37631 0.0
H1359 H 0.59057 0.12442 0.39358 0.0
H1360 H 0.60004 0.12791 0.57332 0.0
H1361 H 0.6242 0.12531 0.55658 0.0
H1362 H 0.56856 0.10609 0.54964 0.0
H1363 H 0.60682 0.16139 0.49801 0.0
H1364 H 0.62767 0.18339 0.4384 0.0
H1365 H 0.59338 0.16896 0.30107 0.0
H1366 H 0.57238 0.14671 0.35961 0.0
H1367 H 0.50772 0.12503 0.62478 0.0
H1368 H 0.53439 0.12737 0.6106 0.0
H1369 H 0.52712 0.12475 0.42959 0.0
H1370 H 0.50049 0.12274 0.44329 0.0
H1371 H 0.5581 0.1471 0.45637 0.0
H1372 H 0.52046 0.09112 0.50516 0.0
H1373 H 0.49949 0.06877 0.56337 0.0
H1374 H 0.53262 0.08412 0.70443 0.0
H1375 H 0.55372 0.10671 0.64725 0.0
C1376 C 0.61178 0.12339 0.41956 0.0
C1377 C 0.62142 0.12343 0.46509 0.0
C1378 C 0.59798 0.12486 0.4293 0.0
C1379 C 0.59359 0.1265 0.48469 0.0
C1380 C 0.60325 0.12669 0.53022 0.0
C1381 C 0.61707 0.12524 0.52054 0.0
C1382 C 0.57847 0.12722 0.49517 0.0
C1383 C 0.56639 0.11524 0.53005 0.0
C1384 C 0.57548 0.13888 0.46832 0.0
C1385 C 0.58807 0.15229 0.43306 0.0
C1386 C 0.60376 0.16282 0.45496 0.0
C1387 C 0.6156 0.17536 0.42138 0.0
C1388 C 0.61186 0.17755 0.36594 0.0
C1389 C 0.59626 0.16724 0.344 0.0
C1390 C 0.58438 0.15467 0.37739 0.0
C1391 C 0.5118 0.12504 0.58187 0.0
C1392 C 0.50188 0.12354 0.53515 0.0
C1393 C 0.52705 0.12633 0.57388 0.0
C1394 C 0.53262 0.12594 0.51909 0.0
C1395 C 0.52303 0.12502 0.47226 0.0
C1396 C 0.50779 0.12383 0.48018 0.0
C1397 C 0.54821 0.12596 0.51081 0.0
C1398 C 0.56034 0.13803 0.47625 0.0
C1399 C 0.55124 0.11434 0.53774 0.0
C1400 C 0.53861 0.1007 0.5721 0.0
C1401 C 0.52323 0.0898 0.54872 0.0
C1402 C 0.51133 0.07708 0.58151 0.0
C1403 C 0.5147 0.07505 0.63761 0.0
C1404 C 0.53001 0.08572 0.66099 0.0
C1405 C 0.54195 0.09847 0.6284 0.0
H1406 H 0.50547 0.06519 0.66293 0.0
H1407 H 0.62105 0.18726 0.34002 0.0
H1408 H 0.49223 0.61644 0.71717 0.0
H1409 H 0.46602 0.59106 0.72697 0.0
H1410 H 0.47183 0.59349 0.90859 0.0
H1411 H 0.49798 0.6189 0.89937 0.0
H1412 H 0.46374 0.56306 0.8626 0.0
H1413 H 0.44538 0.60226 0.85313 0.0
H1414 H 0.44318 0.62501 0.81122 0.0
H1415 H 0.42167 0.59653 0.66113 0.0
H1416 H 0.42396 0.57369 0.70186 0.0
H1417 H 0.38587 0.50246 0.9524 0.0
H1418 H 0.41056 0.52868 0.93622 0.0
H1419 H 0.40001 0.52483 0.75723 0.0
H1420 H 0.37508 0.49854 0.77301 0.0
H1421 H 0.41056 0.55572 0.79687 0.0
H1422 H 0.42827 0.51649 0.80472 0.0
H1423 H 0.43065 0.49358 0.84408 0.0
H1424 H 0.45377 0.52181 0.99319 0.0
H1425 H 0.45132 0.54483 0.95507 0.0
C1426 C 0.4879 0.61163 0.75924 0.0
C1427 C 0.49721 0.61969 0.80751 0.0
C1428 C 0.4729 0.59716 0.76473 0.0
C1429 C 0.467 0.59046 0.8185 0.0
C1430 C 0.47619 0.5985 0.86673 0.0
C1431 C 0.4911 0.61304 0.86136 0.0
C1432 C 0.45151 0.57474 0.8245 0.0
C1433 C 0.45207 0.5615 0.84892 0.0
C1434 C 0.43641 0.57262 0.80484 0.0
C1435 C 0.43502 0.58633 0.78029 0.0
C1436 C 0.44032 0.60091 0.81097 0.0
C1437 C 0.43903 0.61381 0.78747 0.0
C1438 C 0.43234 0.61224 0.73347 0.0
C1439 C 0.42688 0.59774 0.70291 0.0
C1440 C 0.42817 0.58481 0.7262 0.0
C1441 C 0.38872 0.50716 0.90953 0.0
C1442 C 0.37853 0.49831 0.86392 0.0
C1443 C 0.40288 0.52215 0.90037 0.0
C1444 C 0.40723 0.52858 0.84543 0.0
C1445 C 0.39689 0.52004 0.79995 0.0
C1446 C 0.38268 0.505 0.80905 0.0
C1447 C 0.42275 0.54408 0.83574 0.0
C1448 C 0.42222 0.55726 0.81045 0.0
C1449 C 0.43793 0.54613 0.85417 0.0
C1450 C 0.43946 0.53233 0.87726 0.0
C1451 C 0.43374 0.51777 0.84612 0.0
C1452 C 0.43512 0.50477 0.86817 0.0
C1453 C 0.44232 0.50622 0.92117 0.0
C1454 C 0.44818 0.52069 0.95217 0.0
C1455 C 0.44681 0.53373 0.93034 0.0
H1456 H 0.44338 0.49614 0.93816 0.0
H1457 H 0.43134 0.62224 0.71536 0.0
H1458 H 0.87464 0.38353 0.28474 0.0
H1459 H 0.87279 0.40802 0.26668 0.0
H1460 H 0.88185 0.4053 0.08899 0.0
H1461 H 0.88366 0.38067 0.10656 0.0
H1462 H 0.90145 0.43643 0.13642 0.0
H1463 H 0.84473 0.39526 0.12812 0.0
H1464 H 0.81921 0.37154 0.16234 0.0
H1465 H 0.82003 0.39866 0.3096 0.0
H1466 H 0.84571 0.42248 0.27666 0.0
H1467 H 0.88382 0.4965 0.03949 0.0
H1468 H 0.88252 0.47033 0.05436 0.0
H1469 H 0.87169 0.47157 0.23123 0.0
H1470 H 0.87289 0.49785 0.21684 0.0
H1471 H 0.85263 0.44097 0.18345 0.0
H1472 H 0.90919 0.48162 0.19522 0.0
H1473 H 0.93491 0.50561 0.1637 0.0
H1474 H 0.93485 0.47974 0.01395 0.0
H1475 H 0.90897 0.45567 0.04415 0.0
C1476 C 0.87616 0.38807 0.24171 0.0
C1477 C 0.87932 0.38016 0.19705 0.0
C1478 C 0.87503 0.40203 0.23148 0.0
C1479 C 0.8771 0.4084 0.17649 0.0
C1480 C 0.88019 0.40053 0.13172 0.0
C1481 C 0.88116 0.38644 0.14181 0.0
C1482 C 0.87657 0.4236 0.1663 0.0
C1483 C 0.8907 0.43736 0.14578 0.0
C1484 C 0.86269 0.4249 0.18028 0.0
C1485 C 0.84724 0.4106 0.20018 0.0
C1486 C 0.83956 0.39612 0.16806 0.0
C1487 C 0.82504 0.38266 0.18717 0.0
C1488 C 0.81803 0.38357 0.23819 0.0
C1489 C 0.82549 0.39796 0.27013 0.0
C1490 C 0.84002 0.41145 0.25122 0.0
C1491 C 0.88108 0.49122 0.08159 0.0
C1492 C 0.87857 0.49936 0.1271 0.0
C1493 C 0.88038 0.47626 0.08998 0.0
C1494 C 0.87721 0.46913 0.144 0.0
C1495 C 0.87419 0.47692 0.18922 0.0
C1496 C 0.87494 0.49195 0.18093 0.0
C1497 C 0.87748 0.45376 0.15332 0.0
C1498 C 0.86336 0.44001 0.17385 0.0
C1499 C 0.89141 0.45248 0.1398 0.0
C1500 C 0.90705 0.46689 0.12167 0.0
C1501 C 0.91459 0.48109 0.15533 0.0
C1502 C 0.9292 0.4947 0.13775 0.0
C1503 C 0.93648 0.49422 0.08679 0.0
C1504 C 0.92918 0.4801 0.05338 0.0
C1505 C 0.91454 0.46647 0.07073 0.0
H1506 H 0.9478 0.50477 0.07324 0.0
H1507 H 0.80679 0.37314 0.25291 0.0
H1508 H 0.49311 0.87465 0.61135 0.0
H1509 H 0.4665 0.87271 0.5989 0.0
H1510 H 0.47302 0.87529 0.41757 0.0
H1511 H 0.49965 0.87715 0.4295 0.0
H1512 H 0.46371 0.89714 0.46034 0.0
H1513 H 0.44671 0.8401 0.47339 0.0
H1514 H 0.44525 0.81558 0.51616 0.0
H1515 H 0.42362 0.82235 0.6663 0.0
H1516 H 0.42517 0.84707 0.62474 0.0
H1517 H 0.38422 0.88014 0.38776 0.0
H1518 H 0.40903 0.87834 0.39583 0.0
H1519 H 0.40189 0.87158 0.5765 0.0
H1520 H 0.37689 0.87315 0.56885 0.0
H1521 H 0.41138 0.85127 0.53205 0.0
H1522 H 0.42916 0.9084 0.52341 0.0
H1523 H 0.43092 0.93344 0.48414 0.0
H1524 H 0.45157 0.92727 0.33039 0.0
H1525 H 0.44971 0.90205 0.36844 0.0
C1526 C 0.48885 0.87469 0.56876 0.0
C1527 C 0.49851 0.87607 0.52139 0.0
C1528 C 0.47362 0.87352 0.56176 0.0
C1529 C 0.46779 0.87379 0.50732 0.0
C1530 C 0.47732 0.87504 0.45992 0.0
C1531 C 0.49249 0.87604 0.46683 0.0
C1532 C 0.45205 0.87344 0.50015 0.0
C1533 C 0.45221 0.88699 0.47511 0.0
C1534 C 0.43718 0.86041 0.52108 0.0
C1535 C 0.4362 0.84553 0.54615 0.0
C1536 C 0.44178 0.83645 0.51573 0.0
C1537 C 0.44091 0.82249 0.53971 0.0
C1538 C 0.43439 0.81743 0.59397 0.0
C1539 C 0.42869 0.8263 0.6243 0.0
C1540 C 0.42954 0.84027 0.60053 0.0
C1541 C 0.38786 0.87821 0.42926 0.0
C1542 C 0.37861 0.87691 0.47774 0.0
C1543 C 0.40208 0.87723 0.43378 0.0
C1544 C 0.40742 0.87505 0.48686 0.0
C1545 C 0.398 0.8733 0.53514 0.0
C1546 C 0.38374 0.87425 0.53068 0.0
C1547 C 0.42302 0.87496 0.4921 0.0
C1548 C 0.42285 0.86137 0.51695 0.0
C1549 C 0.43794 0.88804 0.47151 0.0
C1550 C 0.43913 0.90324 0.44855 0.0
C1551 C 0.43395 0.91231 0.48104 0.0
C1552 C 0.43499 0.92655 0.45904 0.0
C1553 C 0.44131 0.93192 0.40474 0.0
C1554 C 0.44665 0.92308 0.3724 0.0
C1555 C 0.44562 0.90882 0.39418 0.0
H1556 H 0.44211 0.94295 0.38778 0.0
H1557 H 0.43372 0.80662 0.61246 0.0
H1558 H 0.62051 0.50376 0.76791 0.0
H1559 H 0.59539 0.47778 0.7509 0.0
H1560 H 0.59297 0.46563 0.92812 0.0
H1561 H 0.618 0.49165 0.94576 0.0
H1562 H 0.58611 0.43924 0.85318 0.0
H1563 H 0.56992 0.47923 0.88746 0.0
H1564 H 0.57071 0.5055 0.87325 0.0
H1565 H 0.55619 0.49284 0.69974 0.0
H1566 H 0.55558 0.46659 0.71268 0.0
H1567 H 0.50232 0.37692 0.86887 0.0
H1568 H 0.52877 0.4016 0.88415 0.0
H1569 H 0.52944 0.41561 0.70979 0.0
H1570 H 0.503 0.39101 0.69402 0.0
H1571 H 0.53746 0.44103 0.78314 0.0
H1572 H 0.55315 0.40068 0.74958 0.0
H1573 H 0.55269 0.37459 0.76396 0.0
H1574 H 0.56819 0.38788 0.93638 0.0
H1575 H 0.56851 0.41398 0.92326 0.0
C1576 C 0.61473 0.4955 0.8032 0.0
C1577 C 0.62119 0.49981 0.85825 0.0
C1578 C 0.60037 0.48069 0.79341 0.0
C1579 C 0.59231 0.46988 0.83836 0.0
C1580 C 0.59904 0.47384 0.89294 0.0
C1581 C 0.61329 0.48873 0.90292 0.0
C1582 C 0.57649 0.45476 0.82878 0.0
C1583 C 0.5754 0.43959 0.8385 0.0
C1584 C 0.56266 0.45531 0.80871 0.0
C1585 C 0.56288 0.47102 0.80087 0.0
C1586 C 0.56704 0.48211 0.84613 0.0
C1587 C 0.56743 0.49698 0.83834 0.0
C1588 C 0.56355 0.50085 0.78558 0.0
C1589 C 0.55922 0.48983 0.74055 0.0
C1590 C 0.55884 0.47495 0.7481 0.0
C1591 C 0.5081 0.38522 0.83369 0.0
C1592 C 0.50053 0.38196 0.7802 0.0
C1593 C 0.52324 0.39929 0.84247 0.0
C1594 C 0.5311 0.41037 0.79798 0.0
C1595 C 0.52357 0.40721 0.74465 0.0
C1596 C 0.50848 0.3931 0.73572 0.0
C1597 C 0.54704 0.42543 0.80731 0.0
C1598 C 0.54816 0.44063 0.79768 0.0
C1599 C 0.56088 0.42489 0.82755 0.0
C1600 C 0.56069 0.40921 0.8356 0.0
C1601 C 0.55631 0.39798 0.79072 0.0
C1602 C 0.55611 0.3832 0.79861 0.0
C1603 C 0.56036 0.37956 0.8511 0.0
C1604 C 0.56487 0.39071 0.89577 0.0
C1605 C 0.56508 0.4055 0.88812 0.0
H1606 H 0.5602 0.36811 0.85712 0.0
H1607 H 0.56386 0.51238 0.77964 0.0
H1608 H 0.27417 0.42786 0.99809 0.0
H1609 H 0.24899 0.42777 0.02475 0.0
H1610 H 0.26186 0.46854 0.91255 0.0
H1611 H 0.28708 0.46867 0.88614 0.0
H1612 H 0.25227 0.47281 0.01962 0.0
H1613 H 0.23287 0.43157 0.87395 0.0
H1614 H 0.22894 0.40639 0.82806 0.0
H1615 H 0.20282 0.37834 0.97411 0.0
H1616 H 0.20681 0.4034 0.02125 0.0
H1617 H 0.17763 0.47292 0.01346 0.0
H1618 H 0.20238 0.472 0.9899 0.0
H1619 H 0.18481 0.42775 0.0881 0.0
H1620 H 0.15964 0.42829 0.10951 0.0
H1621 H 0.19692 0.4248 0.99124 0.0
H1622 H 0.21553 0.4652 0.13712 0.0
H1623 H 0.21964 0.49009 0.18575 0.0
H1624 H 0.24748 0.51937 0.04421 0.0
H1625 H 0.24334 0.49462 0.99434 0.0
C1626 C 0.2715 0.4367 0.97897 0.0
C1627 C 0.28237 0.44818 0.93982 0.0
C1628 C 0.25716 0.43663 0.99405 0.0
C1629 C 0.25353 0.44808 0.9703 0.0
C1630 C 0.26443 0.45958 0.93121 0.0
C1631 C 0.27872 0.45958 0.91587 0.0
C1632 C 0.23852 0.44828 0.98707 0.0
C1633 C 0.24014 0.4624 0.0128 0.0
C1634 C 0.22277 0.43449 0.97977 0.0
C1635 C 0.22028 0.41939 0.95135 0.0
C1636 C 0.22641 0.42005 0.89648 0.0
C1637 C 0.22415 0.40579 0.87021 0.0
C1638 C 0.21568 0.39078 0.89821 0.0
C1639 C 0.2094 0.38998 0.9525 0.0
C1640 C 0.21165 0.40421 0.979 0.0
C1641 C 0.17905 0.46295 0.02966 0.0
C1642 C 0.16675 0.4506 0.06289 0.0
C1643 C 0.19325 0.46252 0.01671 0.0
C1644 C 0.19556 0.44991 0.03779 0.0
C1645 C 0.1833 0.43761 0.07143 0.0
C1646 C 0.16901 0.43797 0.08395 0.0
C1647 C 0.21061 0.44941 0.02354 0.0
C1648 C 0.20903 0.43521 0.99831 0.0
C1649 C 0.22642 0.46309 0.03179 0.0
C1650 C 0.229 0.47803 0.06178 0.0
C1651 C 0.22243 0.47693 0.11618 0.0
C1652 C 0.22478 0.49102 0.144 0.0
C1653 C 0.23378 0.5063 0.11804 0.0
C1654 C 0.24049 0.50753 0.06425 0.0
C1655 C 0.23817 0.49347 0.03621 0.0
H1656 H 0.23558 0.51719 0.13964 0.0
H1657 H 0.21394 0.37975 0.8778 0.0
H1658 H 0.84133 0.26936 0.22681 0.0
H1659 H 0.81685 0.24315 0.24985 0.0
H1660 H 0.79826 0.2686 0.34962 0.0
H1661 H 0.82245 0.29476 0.32552 0.0
H1662 H 0.79715 0.24168 0.40559 0.0
H1663 H 0.7824 0.25494 0.22518 0.0
H1664 H 0.78638 0.26204 0.12364 0.0
H1665 H 0.78596 0.2173 0.08656 0.0
H1666 H 0.78224 0.21005 0.18808 0.0
H1667 H 0.71451 0.18164 0.45031 0.0
H1668 H 0.74042 0.20611 0.42596 0.0
H1669 H 0.75121 0.17776 0.30821 0.0
H1670 H 0.72505 0.15338 0.33165 0.0
H1671 H 0.75761 0.20523 0.26081 0.0
H1672 H 0.77115 0.19083 0.43789 0.0
H1673 H 0.76783 0.18327 0.53902 0.0
H1674 H 0.77164 0.22921 0.58262 0.0
H1675 H 0.77473 0.23695 0.48162 0.0
C1676 C 0.8319 0.2693 0.25312 0.0
C1677 C 0.83376 0.28399 0.27479 0.0
C1678 C 0.818 0.25438 0.26639 0.0
C1679 C 0.80581 0.25398 0.30158 0.0
C1680 C 0.80761 0.26866 0.32278 0.0
C1681 C 0.8214 0.28356 0.30908 0.0
C1682 C 0.79117 0.23826 0.31679 0.0
C1683 C 0.7884 0.23375 0.3741 0.0
C1684 C 0.7801 0.22774 0.27537 0.0
C1685 C 0.78223 0.23204 0.2143 0.0
C1686 C 0.7833 0.24668 0.19544 0.0
C1687 C 0.78548 0.25073 0.13788 0.0
C1688 C 0.78647 0.24016 0.09869 0.0
C1689 C 0.78523 0.22549 0.11698 0.0
C1690 C 0.78307 0.22141 0.17452 0.0
C1691 C 0.72256 0.18065 0.41984 0.0
C1692 C 0.71798 0.16571 0.39313 0.0
C1693 C 0.73735 0.19459 0.40597 0.0
C1694 C 0.74789 0.19374 0.36579 0.0
C1695 C 0.7433 0.17872 0.33936 0.0
C1696 C 0.72844 0.16482 0.35285 0.0
C1697 C 0.76341 0.20864 0.34995 0.0
C1698 C 0.76638 0.21303 0.29246 0.0
C1699 C 0.77479 0.21897 0.39121 0.0
C1700 C 0.77304 0.21441 0.45209 0.0
C1701 C 0.77116 0.19928 0.46899 0.0
C1702 C 0.76934 0.19496 0.5263 0.0
C1703 C 0.76949 0.20574 0.56721 0.0
C1704 C 0.77151 0.22087 0.55088 0.0
C1705 C 0.77332 0.22523 0.4936 0.0
H1706 H 0.76807 0.20238 0.61156 0.0
H1707 H 0.78816 0.2433 0.05414 0.0
H1708 H 0.53077 0.81684 0.54811 0.0
H1709 H 0.53083 0.79227 0.58169 0.0
H1710 H 0.57333 0.82231 0.68417 0.0
H1711 H 0.57333 0.8469 0.65019 0.0
H1712 H 0.57513 0.79712 0.6295 0.0
H1713 H 0.53762 0.80428 0.74577 0.0
H1714 H 0.51436 0.80857 0.76444 0.0
H1715 H 0.4819 0.76322 0.68143 0.0
H1716 H 0.50504 0.75878 0.66141 0.0
H1717 H 0.56829 0.73163 0.79897 0.0
H1718 H 0.56965 0.75748 0.77274 0.0
H1719 H 0.52607 0.73081 0.67145 0.0
H1720 H 0.52457 0.70504 0.69849 0.0
H1721 H 0.52566 0.75522 0.73026 0.0
H1722 H 0.56338 0.74871 0.61049 0.0
H1723 H 0.58669 0.74455 0.59084 0.0
H1724 H 0.61879 0.7888 0.68038 0.0
H1725 H 0.5956 0.79308 0.7013 0.0
C1726 C 0.54028 0.81815 0.57693 0.0
C1727 C 0.55209 0.83365 0.59652 0.0
C1728 C 0.54025 0.80416 0.59641 0.0
C1729 C 0.55199 0.80549 0.63585 0.0
C1730 C 0.56417 0.82104 0.65377 0.0
C1731 C 0.56415 0.83502 0.63449 0.0
C1732 C 0.55115 0.79062 0.66009 0.0
C1733 C 0.56442 0.78806 0.65223 0.0
C1734 C 0.53708 0.77874 0.68911 0.0
C1735 C 0.5231 0.78127 0.70163 0.0
C1736 C 0.52555 0.79528 0.73111 0.0
C1737 C 0.51238 0.79773 0.74199 0.0
C1738 C 0.49666 0.78619 0.72403 0.0
C1739 C 0.49408 0.77216 0.69527 0.0
C1740 C 0.50722 0.76966 0.68417 0.0
C1741 C 0.55894 0.73136 0.77169 0.0
C1742 C 0.54647 0.71649 0.74999 0.0
C1743 C 0.55975 0.74607 0.7565 0.0
C1744 C 0.5481 0.74606 0.71942 0.0
C1745 C 0.53523 0.7311 0.69986 0.0
C1746 C 0.53443 0.71643 0.71501 0.0
C1747 C 0.54957 0.7616 0.69914 0.0
C1748 C 0.53641 0.76431 0.7078 0.0
C1749 C 0.56375 0.77362 0.67087 0.0
C1750 C 0.57772 0.77112 0.65798 0.0
C1751 C 0.57538 0.75748 0.62636 0.0
C1752 C 0.58858 0.75511 0.61494 0.0
C1753 C 0.60421 0.76638 0.63448 0.0
C1754 C 0.60668 0.78007 0.66535 0.0
C1755 C 0.59351 0.78248 0.67698 0.0
H1756 H 0.61441 0.76453 0.62559 0.0
H1757 H 0.48648 0.78811 0.73249 0.0
H1758 H 0.84063 0.5724 0.10458 0.0
H1759 H 0.81611 0.57401 0.0812 0.0
H1760 H 0.79872 0.53111 0.97598 0.0
H1761 H 0.82297 0.52928 0.00023 0.0
H1762 H 0.79744 0.5569 0.92284 0.0
H1763 H 0.78215 0.52779 0.10089 0.0
H1764 H 0.78549 0.52393 0.20234 0.0
H1765 H 0.78395 0.5675 0.24261 0.0
H1766 H 0.78089 0.57178 0.14122 0.0
H1767 H 0.71483 0.53402 0.87508 0.0
H1768 H 0.74068 0.53544 0.90007 0.0
H1769 H 0.7509 0.57401 0.01971 0.0
H1770 H 0.72481 0.57228 0.99551 0.0
H1771 H 0.75705 0.55257 0.0663 0.0
H1772 H 0.77134 0.58163 0.89117 0.0
H1773 H 0.76846 0.5864 0.79019 0.0
H1774 H 0.77272 0.54466 0.7445 0.0
H1775 H 0.77538 0.53948 0.84532 0.0
C1776 C 0.83146 0.56326 0.07692 0.0
C1777 C 0.83367 0.5508 0.05374 0.0
C1778 C 0.81753 0.5642 0.06352 0.0
C1779 C 0.80566 0.55269 0.02677 0.0
C1780 C 0.80781 0.54017 0.00406 0.0
C1781 C 0.82164 0.53915 0.01782 0.0
C1782 C 0.79101 0.55371 0.01131 0.0
C1783 C 0.7885 0.5558 0.95404 0.0
C1784 C 0.77969 0.5528 0.0524 0.0
C1785 C 0.78149 0.55021 0.11338 0.0
C1786 C 0.78269 0.53664 0.13131 0.0
C1787 C 0.7845 0.53436 0.18882 0.0
C1788 C 0.78499 0.54549 0.22888 0.0
C1789 C 0.78362 0.55891 0.21152 0.0
C1790 C 0.78184 0.56126 0.15404 0.0
C1791 C 0.72275 0.54293 0.90609 0.0
C1792 C 0.71802 0.55314 0.93312 0.0
C1793 C 0.73749 0.54376 0.92034 0.0
C1794 C 0.74785 0.55499 0.96126 0.0
C1795 C 0.74313 0.56528 0.98799 0.0
C1796 C 0.72831 0.56433 0.97408 0.0
C1797 C 0.76332 0.55558 0.97753 0.0
C1798 C 0.76601 0.55381 0.03498 0.0
C1799 C 0.77492 0.55696 0.93664 0.0
C1800 C 0.77342 0.56009 0.87589 0.0
C1801 C 0.77154 0.57339 0.85963 0.0
C1802 C 0.76997 0.57618 0.80241 0.0
C1803 C 0.77037 0.56582 0.76097 0.0
C1804 C 0.77239 0.55267 0.77666 0.0
C1805 C 0.77395 0.54981 0.83384 0.0
H1806 H 0.76915 0.568 0.71668 0.0
H1807 H 0.78638 0.5437 0.27339 0.0
H1808 H 0.2943 0.82018 0.37327 0.0
H1809 H 0.26885 0.79568 0.34567 0.0
H1810 H 0.24122 0.81256 0.4416 0.0
H1811 H 0.26682 0.83707 0.46989 0.0
H1812 H 0.22844 0.77945 0.4518 0.0
H1813 H 0.24562 0.81884 0.3018 0.0
H1814 H 0.26526 0.83846 0.23288 0.0
H1815 H 0.26901 0.79975 0.15184 0.0
H1816 H 0.24963 0.77993 0.22099 0.0
H1817 H 0.1529 0.72616 0.32101 0.0
H1818 H 0.17726 0.75153 0.35075 0.0
H1819 H 0.20762 0.73814 0.2541 0.0
H1820 H 0.18316 0.71299 0.22308 0.0
H1821 H 0.21841 0.77024 0.24494 0.0
H1822 H 0.20172 0.731 0.3978 0.0
H1823 H 0.18108 0.71134 0.46429 0.0
H1824 H 0.17588 0.74997 0.539 0.0
H1825 H 0.1963 0.76982 0.47232 0.0
C1826 C 0.28277 0.81855 0.38873 0.0
C1827 C 0.28237 0.83051 0.42282 0.0
C1828 C 0.26828 0.8046 0.37298 0.0
C1829 C 0.25314 0.80248 0.39065 0.0
C1830 C 0.25277 0.81402 0.42727 0.0
C1831 C 0.26733 0.82798 0.44332 0.0
C1832 C 0.23776 0.78865 0.36835 0.0
C1833 C 0.22615 0.77754 0.40662 0.0
C1834 C 0.23487 0.78608 0.30933 0.0
C1835 C 0.24627 0.79791 0.26691 0.0
C1836 C 0.25071 0.81452 0.2695 0.0
C1837 C 0.26179 0.82568 0.23039 0.0
C1838 C 0.2684 0.82036 0.18807 0.0
C1839 C 0.2639 0.80385 0.18468 0.0
C1840 C 0.25285 0.79265 0.22382 0.0
C1841 C 0.16479 0.72883 0.30561 0.0
C1842 C 0.16629 0.71779 0.26983 0.0
C1843 C 0.17867 0.74322 0.32276 0.0
C1844 C 0.19428 0.74657 0.30546 0.0
C1845 C 0.1957 0.73578 0.268 0.0
C1846 C 0.18178 0.72147 0.25029 0.0
C1847 C 0.20917 0.76093 0.32832 0.0
C1848 C 0.22069 0.77216 0.29013 0.0
C1849 C 0.21195 0.76361 0.38738 0.0
C1850 C 0.20043 0.75187 0.42971 0.0
C1851 C 0.19617 0.7353 0.42839 0.0
C1852 C 0.18449 0.72412 0.46603 0.0
C1853 C 0.17711 0.7294 0.50557 0.0
C1854 C 0.18157 0.7459 0.50818 0.0
C1855 C 0.19321 0.75713 0.47052 0.0
H1856 H 0.16789 0.72069 0.53406 0.0
H1857 H 0.27699 0.82902 0.15785 0.0
H1858 H 0.42899 0.27033 0.76322 0.0
H1859 H 0.42714 0.24406 0.74062 0.0
H1860 H 0.46925 0.26891 0.63142 0.0
H1861 H 0.47119 0.29512 0.65438 0.0
H1862 H 0.44435 0.24167 0.5812 0.0
H1863 H 0.47286 0.25612 0.7602 0.0
H1864 H 0.47644 0.26393 0.86113 0.0
H1865 H 0.43246 0.21933 0.90246 0.0
H1866 H 0.42848 0.21137 0.80158 0.0
H1867 H 0.46681 0.18112 0.54279 0.0
H1868 H 0.46561 0.20585 0.56491 0.0
H1869 H 0.42616 0.17831 0.68248 0.0
H1870 H 0.42764 0.15364 0.66107 0.0
H1871 H 0.44779 0.20608 0.7288 0.0
H1872 H 0.41959 0.19078 0.55169 0.0
H1873 H 0.41545 0.18276 0.45097 0.0
H1874 H 0.45772 0.22842 0.40589 0.0
H1875 H 0.46227 0.23661 0.50648 0.0
C1876 C 0.4379 0.27013 0.73479 0.0
C1877 C 0.45019 0.28466 0.71031 0.0
C1878 C 0.43683 0.25517 0.72183 0.0
C1879 C 0.44809 0.25456 0.68442 0.0
C1880 C 0.46039 0.2691 0.66011 0.0
C1881 C 0.46148 0.28404 0.6732 0.0
C1882 C 0.4471 0.23879 0.67034 0.0
C1883 C 0.44526 0.23394 0.61335 0.0
C1884 C 0.44781 0.22853 0.71255 0.0
C1885 C 0.45028 0.23323 0.77326 0.0
C1886 C 0.46388 0.24804 0.79075 0.0
C1887 C 0.466 0.25248 0.84795 0.0
C1888 C 0.45466 0.24215 0.88816 0.0
C1889 C 0.44122 0.22733 0.87125 0.0
C1890 C 0.43903 0.22285 0.81408 0.0
C1891 C 0.45775 0.18036 0.57271 0.0
C1892 C 0.44721 0.16556 0.59994 0.0
C1893 C 0.45705 0.19445 0.58533 0.0
C1894 C 0.44564 0.1939 0.62485 0.0
C1895 C 0.43504 0.17903 0.65181 0.0
C1896 C 0.43584 0.16497 0.63949 0.0
C1897 C 0.44518 0.20897 0.63944 0.0
C1898 C 0.44675 0.21371 0.69657 0.0
C1899 C 0.44412 0.21909 0.59736 0.0
C1900 C 0.44135 0.21425 0.53673 0.0
C1901 C 0.42808 0.19906 0.52036 0.0
C1902 C 0.42565 0.19449 0.46328 0.0
C1903 C 0.43634 0.20506 0.42207 0.0
C1904 C 0.44946 0.22024 0.43786 0.0
C1905 C 0.45196 0.22486 0.49491 0.0
H1906 H 0.43444 0.20149 0.3779 0.0
H1907 H 0.45632 0.24562 0.93243 0.0
loop_
_geom_bond_atom_site_label_1
_geom_bond_atom_site_label_2
_geom_bond_distance
_geom_bond_site_symmetry_2
_ccdc_geom_bond_type
Co0 O3 1.970 . S
Co0 N17 1.989 . S
Co0 O25 1.967 . S
Co0 O32 1.920 . S
Co1 O4 1.966 . S
Co1 N10 2.022 1_554 S
Co1 N18 1.993 . S
Co1 O26 1.941 . S
C2 O3 1.258 . S
C2 O4 1.263 . S
O3 Co0 1.970 . S
O3 C2 1.258 . S
O4 Co1 1.966 . S
O4 C2 1.263 . S
C5 O6 1.235 . S
C5 O32 1.289 . S
O6 C5 1.235 . S
C7 C9 1.400 . S
C7 N10 1.351 . S
C7 C12 1.501 . S
C8 C9 1.387 . S
C8 N11 1.341 . S
C9 C7 1.400 . S
C9 C8 1.387 . S
N10 Co1 2.022 1_556 S
N10 C7 1.351 . S
N10 N11 1.365 . S
N11 C8 1.341 . S
N11 N10 1.365 . S
N11 H31 0.862 . S
C12 C7 1.501 . S
C12 H13 0.961 . S
C12 H14 0.961 . S
C12 H15 0.960 . S
H13 C12 0.961 . S
H14 C12 0.961 . S
H15 C12 0.960 . S
C16 N17 1.342 . S
C16 C20 1.401 . S
C16 C21 1.499 . S
N17 Co0 1.989 . S
N17 C16 1.342 . S
N17 N18 1.388 . S
N18 Co1 1.993 . S
N18 N17 1.388 . S
N18 C19 1.346 . S
C19 N18 1.346 . S
C19 C20 1.396 . S
C19 C29 1.510 1_554 S
C20 C16 1.401 . S
C20 C19 1.396 . S
C21 C16 1.499 . S
C21 H22 0.959 . S
C21 H23 0.960 . S
C21 H24 0.961 . S
H22 C21 0.959 . S
H23 C21 0.960 . S
H24 C21 0.961 . S
O25 Co0 1.967 . S
O25 C33 1.258 . S
O26 Co1 1.941 . S
O26 C33 1.266 . S
H27 C29 0.959 . S
H28 C29 0.961 . S
C29 C19 1.510 1_556 S
C29 H27 0.959 . S
C29 H28 0.961 . S
C29 H30 0.960 . S
H30 C29 0.960 . S
H31 N11 0.862 . S
O32 Co0 1.920 . S
O32 C5 1.289 . S
C33 O25 1.258 . S
C33 O26 1.266 . S
Co34 O37 1.970 . S
Co34 N51 1.989 . S
Co34 O59 1.967 . S
Co34 O66 1.920 . S
Co35 O38 1.966 . S
Co35 N44 2.022 . S
Co35 N52 1.993 . S
Co35 O60 1.941 . S
C36 O37 1.258 . S
C36 O38 1.263 . S
O37 Co34 1.970 . S
O37 C36 1.258 . S
O38 Co35 1.966 . S
O38 C36 1.263 . S
C39 O40 1.235 . S
C39 O66 1.289 . S
O40 C39 1.235 . S
C41 C43 1.400 . S
C41 N44 1.351 . S
C41 C46 1.501 . S
C42 C43 1.387 . S
C42 N45 1.341 . S
C43 C41 1.400 . S
C43 C42 1.387 . S
N44 Co35 2.022 . S
N44 C41 1.351 . S
N44 N45 1.365 . S
N45 C42 1.341 . S
N45 N44 1.365 . S
N45 H65 0.862 . S
C46 C41 1.501 . S
C46 H47 0.961 . S
C46 H48 0.961 . S
C46 H49 0.960 . S
H47 C46 0.961 . S
H48 C46 0.961 . S
H49 C46 0.960 . S
C50 N51 1.342 . S
C50 C54 1.401 . S
C50 C55 1.499 . S
N51 Co34 1.989 . S
N51 C50 1.342 . S
N51 N52 1.388 . S
N52 Co35 1.993 . S
N52 N51 1.388 . S
N52 C53 1.346 . S
C53 N52 1.346 . S
C53 C54 1.396 . S
C53 C63 1.510 . S
C54 C50 1.401 . S
C54 C53 1.396 . S
C55 C50 1.499 . S
C55 H56 0.959 . S
C55 H57 0.960 . S
C55 H58 0.961 . S
H56 C55 0.959 . S
H57 C55 0.960 . S
H58 C55 0.961 . S
O59 Co34 1.967 . S
O59 C67 1.258 . S
O60 Co35 1.941 . S
O60 C67 1.266 . S
H61 C63 0.959 . S
H62 C63 0.961 . S
C63 C53 1.510 . S
C63 H61 0.959 . S
C63 H62 0.961 . S
C63 H64 0.960 . S
H64 C63 0.960 . S
H65 N45 0.862 . S
O66 Co34 1.920 . S
O66 C39 1.289 . S
C67 O59 1.258 . S
C67 O60 1.266 . S
Co68 O71 1.970 . S
Co68 N85 1.989 . S
Co68 O93 1.967 . S
Co68 O100 1.920 . S
Co69 O72 1.966 . S
Co69 N78 2.022 . S
Co69 N86 1.993 . S
Co69 O94 1.941 . S
C70 O71 1.258 . S
C70 O72 1.263 . S
O71 Co68 1.970 . S
O71 C70 1.258 . S
O72 Co69 1.966 . S
O72 C70 1.263 . S
C73 O74 1.235 . S
C73 O100 1.289 . S
O74 C73 1.235 . S
C75 C77 1.400 . S
C75 N78 1.351 . S
C75 C80 1.501 . S
C76 C77 1.387 . S
C76 N79 1.341 . S
C77 C75 1.400 . S
C77 C76 1.387 . S
N78 Co69 2.022 . S
N78 C75 1.351 . S
N78 N79 1.365 . S
N79 C76 1.341 . S
N79 N78 1.365 . S
N79 H99 0.862 . S
C80 C75 1.501 . S
C80 H81 0.961 . S
C80 H82 0.961 . S
C80 H83 0.960 . S
H81 C80 0.961 . S
H82 C80 0.961 . S
H83 C80 0.960 . S
C84 N85 1.342 . S
C84 C88 1.401 . S
C84 C89 1.499 . S
N85 Co68 1.989 . S
N85 C84 1.342 . S
N85 N86 1.388 . S
N86 Co69 1.993 . S
N86 N85 1.388 . S
N86 C87 1.346 . S
C87 N86 1.346 . S
C87 C88 1.396 . S
C87 C97 1.510 . S
C88 C84 1.401 . S
C88 C87 1.396 . S
C89 C84 1.499 . S
C89 H90 0.959 . S
C89 H91 0.960 . S
C89 H92 0.961 . S
H90 C89 0.959 . S
H91 C89 0.960 . S
H92 C89 0.961 . S
O93 Co68 1.967 . S
O93 C101 1.258 . S
O94 Co69 1.941 . S
O94 C101 1.266 . S
H95 C97 0.959 . S
H96 C97 0.961 . S
C97 C87 1.510 . S
C97 H95 0.959 . S
C97 H96 0.961 . S
C97 H98 0.960 . S
H98 C97 0.960 . S
H99 N79 0.862 . S
O100 Co68 1.920 . S
O100 C73 1.289 . S
C101 O93 1.258 . S
C101 O94 1.266 . S
Co102 O105 1.970 . S
Co102 N119 1.989 . S
Co102 O127 1.967 . S
Co102 O134 1.920 . S
Co103 O106 1.966 . S
Co103 N112 2.022 1_554 S
Co103 N120 1.993 . S
Co103 O128 1.941 . S
C104 O105 1.258 . S
C104 O106 1.263 . S
O105 Co102 1.970 . S
O105 C104 1.258 . S
O106 Co103 1.966 . S
O106 C104 1.263 . S
C107 O108 1.235 . S
C107 O134 1.289 . S
O108 C107 1.235 . S
C109 C111 1.400 . S
C109 N112 1.351 . S
C109 C114 1.501 . S
C110 C111 1.387 . S
C110 N113 1.341 . S
C111 C109 1.400 . S
C111 C110 1.387 . S
N112 Co103 2.022 1_556 S
N112 C109 1.351 . S
N112 N113 1.365 . S
N113 C110 1.341 . S
N113 N112 1.365 . S
N113 H133 0.862 . S
C114 C109 1.501 . S
C114 H115 0.961 . S
C114 H116 0.961 . S
C114 H117 0.960 . S
H115 C114 0.961 . S
H116 C114 0.961 . S
H117 C114 0.960 . S
C118 N119 1.342 . S
C118 C122 1.401 . S
C118 C123 1.499 . S
N119 Co102 1.989 . S
N119 C118 1.342 . S
N119 N120 1.388 . S
N120 Co103 1.993 . S
N120 N119 1.388 . S
N120 C121 1.346 . S
C121 N120 1.346 . S
C121 C122 1.396 . S
C121 C131 1.510 1_554 S
C122 C118 1.401 . S
C122 C121 1.396 . S
C123 C118 1.499 . S
C123 H124 0.959 . S
C123 H125 0.960 . S
C123 H126 0.961 . S
H124 C123 0.959 . S
H125 C123 0.960 . S
H126 C123 0.961 . S
O127 Co102 1.967 . S
O127 C135 1.258 . S
O128 Co103 1.941 . S
O128 C135 1.266 . S
H129 C131 0.959 . S
H130 C131 0.961 . S
C131 C121 1.510 1_556 S
C131 H129 0.959 . S
C131 H130 0.961 . S
C131 H132 0.960 . S
H132 C131 0.960 . S
H133 N113 0.862 . S
O134 Co102 1.920 . S
O134 C107 1.289 . S
C135 O127 1.258 . S
C135 O128 1.266 . S
Co136 O139 1.970 . S
Co136 N153 1.989 . S
Co136 O161 1.967 . S
Co136 O168 1.920 . S
Co137 O140 1.966 . S
Co137 N146 2.022 . S
Co137 N154 1.993 . S
Co137 O162 1.941 . S
C138 O139 1.258 . S
C138 O140 1.263 . S
O139 Co136 1.970 . S
O139 C138 1.258 . S
O140 Co137 1.966 . S
O140 C138 1.263 . S
C141 O142 1.235 . S
C141 O168 1.289 . S
O142 C141 1.235 . S
C143 C145 1.400 . S
C143 N146 1.351 . S
C143 C148 1.501 . S
C144 C145 1.387 . S
C144 N147 1.341 . S
C145 C143 1.400 . S
C145 C144 1.387 . S
N146 Co137 2.022 . S
N146 C143 1.351 . S
N146 N147 1.365 . S
N147 C144 1.341 . S
N147 N146 1.365 . S
N147 H167 0.862 . S
C148 C143 1.501 . S
C148 H149 0.961 . S
C148 H150 0.961 . S
C148 H151 0.960 . S
H149 C148 0.961 . S
H150 C148 0.961 . S
H151 C148 0.960 . S
C152 N153 1.342 . S
C152 C156 1.401 . S
C152 C157 1.499 . S
N153 Co136 1.989 . S
N153 C152 1.342 . S
N153 N154 1.388 . S
N154 Co137 1.993 . S
N154 N153 1.388 . S
N154 C155 1.346 . S
C155 N154 1.346 . S
C155 C156 1.396 . S
C155 C165 1.510 . S
C156 C152 1.401 . S
C156 C155 1.396 . S
C157 C152 1.499 . S
C157 H158 0.959 . S
C157 H159 0.960 . S
C157 H160 0.961 . S
H158 C157 0.959 . S
H159 C157 0.960 . S
H160 C157 0.961 . S
O161 Co136 1.967 . S
O161 C169 1.258 . S
O162 Co137 1.941 . S
O162 C169 1.266 . S
H163 C165 0.959 . S
H164 C165 0.961 . S
C165 C155 1.510 . S
C165 H163 0.959 . S
C165 H164 0.961 . S
C165 H166 0.960 . S
H166 C165 0.960 . S
H167 N147 0.862 . S
O168 Co136 1.920 . S
O168 C141 1.289 . S
C169 O161 1.258 . S
C169 O162 1.266 . S
Co170 O173 1.970 . S
Co170 N187 1.989 . S
Co170 O195 1.967 . S
Co170 O202 1.920 . S
Co171 O174 1.966 . S
Co171 N180 2.022 . S
Co171 N188 1.993 . S
Co171 O196 1.941 . S
C172 O173 1.258 . S
C172 O174 1.263 . S
O173 Co170 1.970 . S
O173 C172 1.258 . S
O174 Co171 1.966 . S
O174 C172 1.263 . S
C175 O176 1.235 . S
C175 O202 1.289 . S
O176 C175 1.235 . S
C177 C179 1.400 . S
C177 N180 1.351 . S
C177 C182 1.501 . S
C178 C179 1.387 . S
C178 N181 1.341 . S
C179 C177 1.400 . S
C179 C178 1.387 . S
N180 Co171 2.022 . S
N180 C177 1.351 . S
N180 N181 1.365 . S
N181 C178 1.341 . S
N181 N180 1.365 . S
N181 H201 0.862 . S
C182 C177 1.501 . S
C182 H183 0.961 . S
C182 H184 0.961 . S
C182 H185 0.960 . S
H183 C182 0.961 . S
H184 C182 0.961 . S
H185 C182 0.960 . S
C186 N187 1.342 . S
C186 C190 1.401 . S
C186 C191 1.499 . S
N187 Co170 1.989 . S
N187 C186 1.342 . S
N187 N188 1.388 . S
N188 Co171 1.993 . S
N188 N187 1.388 . S
N188 C189 1.346 . S
C189 N188 1.346 . S
C189 C190 1.396 . S
C189 C199 1.510 . S
C190 C186 1.401 . S
C190 C189 1.396 . S
C191 C186 1.499 . S
C191 H192 0.959 . S
C191 H193 0.960 . S
C191 H194 0.961 . S
H192 C191 0.959 . S
H193 C191 0.960 . S
H194 C191 0.961 . S
O195 Co170 1.967 . S
O195 C203 1.258 . S
O196 Co171 1.941 . S
O196 C203 1.266 . S
H197 C199 0.959 . S
H198 C199 0.961 . S
C199 C189 1.510 . S
C199 H197 0.959 . S
C199 H198 0.961 . S
C199 H200 0.960 . S
H200 C199 0.960 . S
H201 N181 0.862 . S
O202 Co170 1.920 . S
O202 C175 1.289 . S
C203 O195 1.258 . S
C203 O196 1.266 . S
Co204 O207 1.970 . S
Co204 N221 1.989 . S
Co204 O229 1.967 . S
Co204 O236 1.920 . S
Co205 O208 1.966 . S
Co205 N214 2.022 . S
Co205 N222 1.993 . S
Co205 O230 1.941 . S
C206 O207 1.258 . S
C206 O208 1.263 . S
O207 Co204 1.970 . S
O207 C206 1.258 . S
O208 Co205 1.966 . S
O208 C206 1.263 . S
C209 O210 1.235 . S
C209 O236 1.289 . S
O210 C209 1.235 . S
C211 C213 1.400 . S
C211 N214 1.351 . S
C211 C216 1.501 . S
C212 C213 1.387 . S
C212 N215 1.341 . S
C213 C211 1.400 . S
C213 C212 1.387 . S
N214 Co205 2.022 . S
N214 C211 1.351 . S
N214 N215 1.365 . S
N215 C212 1.341 . S
N215 N214 1.365 . S
N215 H235 0.862 . S
C216 C211 1.501 . S
C216 H217 0.961 . S
C216 H218 0.961 . S
C216 H219 0.960 . S
H217 C216 0.961 . S
H218 C216 0.961 . S
H219 C216 0.960 . S
C220 N221 1.342 . S
C220 C224 1.401 . S
C220 C225 1.499 . S
N221 Co204 1.989 . S
N221 C220 1.342 . S
N221 N222 1.388 . S
N222 Co205 1.993 . S
N222 N221 1.388 . S
N222 C223 1.346 . S
C223 N222 1.346 . S
C223 C224 1.396 . S
C223 C233 1.510 . S
C224 C220 1.401 . S
C224 C223 1.396 . S
C225 C220 1.499 . S
C225 H226 0.959 . S
C225 H227 0.960 . S
C225 H228 0.961 . S
H226 C225 0.959 . S
H227 C225 0.960 . S
H228 C225 0.961 . S
O229 Co204 1.967 . S
O229 C237 1.258 . S
O230 Co205 1.941 . S
O230 C237 1.266 . S
H231 C233 0.959 . S
H232 C233 0.961 . S
C233 C223 1.510 . S
C233 H231 0.959 . S
C233 H232 0.961 . S
C233 H234 0.960 . S
H234 C233 0.960 . S
H235 N215 0.862 . S
O236 Co204 1.920 . S
O236 C209 1.289 . S
C237 O229 1.258 . S
C237 O230 1.266 . S
Co238 O241 1.970 . S
Co238 N255 1.989 . S
Co238 O263 1.967 . S
Co238 O270 1.920 . S
Co239 O242 1.966 . S
Co239 N248 2.022 1_556 S
Co239 N256 1.993 . S
Co239 O264 1.941 . S
C240 O241 1.258 . S
C240 O242 1.263 . S
O241 Co238 1.970 . S
O241 C240 1.258 . S
O242 Co239 1.966 . S
O242 C240 1.263 . S
C243 O244 1.235 . S
C243 O270 1.289 . S
O244 C243 1.235 . S
C245 C247 1.400 . S
C245 N248 1.351 . S
C245 C250 1.501 . S
C246 C247 1.387 . S
C246 N249 1.341 . S
C247 C245 1.400 . S
C247 C246 1.387 . S
N248 Co239 2.022 1_554 S
N248 C245 1.351 . S
N248 N249 1.365 . S
N249 C246 1.341 . S
N249 N248 1.365 . S
N249 H269 0.862 . S
C250 C245 1.501 . S
C250 H251 0.961 . S
C250 H252 0.961 . S
C250 H253 0.960 . S
H251 C250 0.961 . S
H252 C250 0.961 . S
H253 C250 0.960 . S
C254 N255 1.342 . S
C254 C258 1.401 . S
C254 C259 1.499 . S
N255 Co238 1.989 . S
N255 C254 1.342 . S
N255 N256 1.388 . S
N256 Co239 1.993 . S
N256 N255 1.388 . S
N256 C257 1.346 . S
C257 N256 1.346 . S
C257 C258 1.396 . S
C257 C267 1.510 1_556 S
C258 C254 1.401 . S
C258 C257 1.396 . S
C259 C254 1.499 . S
C259 H260 0.959 . S
C259 H261 0.960 . S
C259 H262 0.961 . S
H260 C259 0.959 . S
H261 C259 0.960 . S
H262 C259 0.961 . S
O263 Co238 1.967 . S
O263 C271 1.258 . S
O264 Co239 1.941 . S
O264 C271 1.266 . S
H265 C267 0.959 . S
H266 C267 0.961 . S
C267 C257 1.510 1_554 S
C267 H265 0.959 . S
C267 H266 0.961 . S
C267 H268 0.960 . S
H268 C267 0.960 . S
H269 N249 0.862 . S
O270 Co238 1.920 . S
O270 C243 1.289 . S
C271 O263 1.258 . S
C271 O264 1.266 . S
Co272 O275 1.970 . S
Co272 N289 1.989 . S
Co272 O297 1.967 . S
Co272 O304 1.920 . S
Co273 O276 1.966 . S
Co273 N282 2.022 . S
Co273 N290 1.993 . S
Co273 O298 1.941 . S
C274 O275 1.258 . S
C274 O276 1.263 . S
O275 Co272 1.970 . S
O275 C274 1.258 . S
O276 Co273 1.966 . S
O276 C274 1.263 . S
C277 O278 1.235 . S
C277 O304 1.289 . S
O278 C277 1.235 . S
C279 C281 1.400 . S
C279 N282 1.351 . S
C279 C284 1.501 . S
C280 C281 1.387 . S
C280 N283 1.341 . S
C281 C279 1.400 . S
C281 C280 1.387 . S
N282 Co273 2.022 . S
N282 C279 1.351 . S
N282 N283 1.365 . S
N283 C280 1.341 . S
N283 N282 1.365 . S
N283 H303 0.862 . S
C284 C279 1.501 . S
C284 H285 0.961 . S
C284 H286 0.961 . S
C284 H287 0.960 . S
H285 C284 0.961 . S
H286 C284 0.961 . S
H287 C284 0.960 . S
C288 N289 1.342 . S
C288 C292 1.401 . S
C288 C293 1.499 . S
N289 Co272 1.989 . S
N289 C288 1.342 . S
N289 N290 1.388 . S
N290 Co273 1.993 . S
N290 N289 1.388 . S
N290 C291 1.346 . S
C291 N290 1.346 . S
C291 C292 1.396 . S
C291 C301 1.510 . S
C292 C288 1.401 . S
C292 C291 1.396 . S
C293 C288 1.499 . S
C293 H294 0.959 . S
C293 H295 0.960 . S
C293 H296 0.961 . S
H294 C293 0.959 . S
H295 C293 0.960 . S
H296 C293 0.961 . S
O297 Co272 1.967 . S
O297 C305 1.258 . S
O298 Co273 1.941 . S
O298 C305 1.266 . S
H299 C301 0.959 . S
H300 C301 0.961 . S
C301 C291 1.510 . S
C301 H299 0.959 . S
C301 H300 0.961 . S
C301 H302 0.960 . S
H302 C301 0.960 . S
H303 N283 0.862 . S
O304 Co272 1.920 . S
O304 C277 1.289 . S
C305 O297 1.258 . S
C305 O298 1.266 . S
Co306 O309 1.970 . S
Co306 N323 1.989 . S
Co306 O331 1.967 . S
Co306 O338 1.920 . S
Co307 O310 1.966 . S
Co307 N316 2.022 . S
Co307 N324 1.993 . S
Co307 O332 1.941 . S
C308 O309 1.258 . S
C308 O310 1.263 . S
O309 Co306 1.970 . S
O309 C308 1.258 . S
O310 Co307 1.966 . S
O310 C308 1.263 . S
C311 O312 1.235 . S
C311 O338 1.289 . S
O312 C311 1.235 . S
C313 C315 1.400 . S
C313 N316 1.351 . S
C313 C318 1.501 . S
C314 C315 1.387 . S
C314 N317 1.341 . S
C315 C313 1.400 . S
C315 C314 1.387 . S
N316 Co307 2.022 . S
N316 C313 1.351 . S
N316 N317 1.365 . S
N317 C314 1.341 . S
N317 N316 1.365 . S
N317 H337 0.862 . S
C318 C313 1.501 . S
C318 H319 0.961 . S
C318 H320 0.961 . S
C318 H321 0.960 . S
H319 C318 0.961 . S
H320 C318 0.961 . S
H321 C318 0.960 . S
C322 N323 1.342 . S
C322 C326 1.401 . S
C322 C327 1.499 . S
N323 Co306 1.989 . S
N323 C322 1.342 . S
N323 N324 1.388 . S
N324 Co307 1.993 . S
N324 N323 1.388 . S
N324 C325 1.346 . S
C325 N324 1.346 . S
C325 C326 1.396 . S
C325 C335 1.510 . S
C326 C322 1.401 . S
C326 C325 1.396 . S
C327 C322 1.499 . S
C327 H328 0.959 . S
C327 H329 0.960 . S
C327 H330 0.961 . S
H328 C327 0.959 . S
H329 C327 0.960 . S
H330 C327 0.961 . S
O331 Co306 1.967 . S
O331 C339 1.258 . S
O332 Co307 1.941 . S
O332 C339 1.266 . S
H333 C335 0.959 . S
H334 C335 0.961 . S
C335 C325 1.510 . S
C335 H333 0.959 . S
C335 H334 0.961 . S
C335 H336 0.960 . S
H336 C335 0.960 . S
H337 N317 0.862 . S
O338 Co306 1.920 . S
O338 C311 1.289 . S
C339 O331 1.258 . S
C339 O332 1.266 . S
Co340 O343 1.970 . S
Co340 N357 1.989 . S
Co340 O365 1.967 . S
Co340 O372 1.920 . S
Co341 O344 1.966 . S
Co341 N350 2.022 1_556 S
Co341 N358 1.993 . S
Co341 O366 1.941 . S
C342 O343 1.258 . S
C342 O344 1.263 . S
O343 Co340 1.970 . S
O343 C342 1.258 . S
O344 Co341 1.966 . S
O344 C342 1.263 . S
C345 O346 1.235 . S
C345 O372 1.289 . S
O346 C345 1.235 . S
C347 C349 1.400 . S
C347 N350 1.351 . S
C347 C352 1.501 . S
C348 C349 1.387 . S
C348 N351 1.341 . S
C349 C347 1.400 . S
C349 C348 1.387 . S
N350 Co341 2.022 1_554 S
N350 C347 1.351 . S
N350 N351 1.365 . S
N351 C348 1.341 . S
N351 N350 1.365 . S
N351 H371 0.862 . S
C352 C347 1.501 . S
C352 H353 0.961 . S
C352 H354 0.961 . S
C352 H355 0.960 . S
H353 C352 0.961 . S
H354 C352 0.961 . S
H355 C352 0.960 . S
C356 N357 1.342 . S
C356 C360 1.401 . S
C356 C361 1.499 . S
N357 Co340 1.989 . S
N357 C356 1.342 . S
N357 N358 1.388 . S
N358 Co341 1.993 . S
N358 N357 1.388 . S
N358 C359 1.346 . S
C359 N358 1.346 . S
C359 C360 1.396 . S
C359 C369 1.510 1_556 S
C360 C356 1.401 . S
C360 C359 1.396 . S
C361 C356 1.499 . S
C361 H362 0.959 . S
C361 H363 0.960 . S
C361 H364 0.961 . S
H362 C361 0.959 . S
H363 C361 0.960 . S
H364 C361 0.961 . S
O365 Co340 1.967 . S
O365 C373 1.258 . S
O366 Co341 1.941 . S
O366 C373 1.266 . S
H367 C369 0.959 . S
H368 C369 0.961 . S
C369 C359 1.510 1_554 S
C369 H367 0.959 . S
C369 H368 0.961 . S
C369 H370 0.960 . S
H370 C369 0.960 . S
H371 N351 0.862 . S
O372 Co340 1.920 . S
O372 C345 1.289 . S
C373 O365 1.258 . S
C373 O366 1.266 . S
Co374 O377 1.970 . S
Co374 N391 1.989 . S
Co374 O399 1.967 . S
Co374 O406 1.920 . S
Co375 O378 1.966 . S
Co375 N384 2.022 . S
Co375 N392 1.993 . S
Co375 O400 1.941 . S
C376 O377 1.258 . S
C376 O378 1.263 . S
O377 Co374 1.970 . S
O377 C376 1.258 . S
O378 Co375 1.966 . S
O378 C376 1.263 . S
C379 O380 1.235 . S
C379 O406 1.289 . S
O380 C379 1.235 . S
C381 C383 1.400 . S
C381 N384 1.351 . S
C381 C386 1.501 . S
C382 C383 1.387 . S
C382 N385 1.341 . S
C383 C381 1.400 . S
C383 C382 1.387 . S
N384 Co375 2.022 . S
N384 C381 1.351 . S
N384 N385 1.365 . S
N385 C382 1.341 . S
N385 N384 1.365 . S
N385 H405 0.862 . S
C386 C381 1.501 . S
C386 H387 0.961 . S
C386 H388 0.961 . S
C386 H389 0.960 . S
H387 C386 0.961 . S
H388 C386 0.961 . S
H389 C386 0.960 . S
C390 N391 1.342 . S
C390 C394 1.401 . S
C390 C395 1.499 . S
N391 Co374 1.989 . S
N391 C390 1.342 . S
N391 N392 1.388 . S
N392 Co375 1.993 . S
N392 N391 1.388 . S
N392 C393 1.346 . S
C393 N392 1.346 . S
C393 C394 1.396 . S
C393 C403 1.510 . S
C394 C390 1.401 . S
C394 C393 1.396 . S
C395 C390 1.499 . S
C395 H396 0.959 . S
C395 H397 0.960 . S
C395 H398 0.961 . S
H396 C395 0.959 . S
H397 C395 0.960 . S
H398 C395 0.961 . S
O399 Co374 1.967 . S
O399 C407 1.258 . S
O400 Co375 1.941 . S
O400 C407 1.266 . S
H401 C403 0.959 . S
H402 C403 0.961 . S
C403 C393 1.510 . S
C403 H401 0.959 . S
C403 H402 0.961 . S
C403 H404 0.960 . S
H404 C403 0.960 . S
H405 N385 0.862 . S
O406 Co374 1.920 . S
O406 C379 1.289 . S
C407 O399 1.258 . S
C407 O400 1.266 . S
H408 C426 0.951 . S
H409 C428 0.951 . S
H410 C430 0.950 . S
H411 C431 0.950 . S
H412 C433 0.950 . S
H413 C436 0.950 . S
H414 C437 0.950 . S
H415 C439 0.950 1_556 S
H416 C440 0.950 1_655 S
H417 C441 0.951 . S
H418 C443 0.951 . S
H419 C445 0.950 . S
H420 C446 0.950 . S
H421 C448 0.950 . S
H422 C451 0.950 . S
H423 C452 0.950 . S
H424 C454 0.950 . S
H425 C455 0.950 1_455 S
C426 H408 0.951 . S
C426 C427 1.366 . S
C426 C428 1.388 . S
C427 C426 1.366 . S
C427 C431 1.385 . S
C428 H409 0.951 . S
C428 C426 1.388 . S
C428 C429 1.366 . S
C429 C428 1.366 . S
C429 C430 1.414 . S
C429 C432 1.499 . S
C430 H410 0.950 . S
C430 C429 1.414 . S
C430 C431 1.374 . S
C431 H411 0.950 . S
C431 C427 1.385 . S
C431 C430 1.374 . S
C432 C429 1.499 . S
C432 C433 1.373 . S
C432 C434 1.389 . S
C433 H412 0.950 . S
C433 C432 1.373 . S
C433 C449 1.377 1_455 S
C434 C432 1.389 . S
C434 C435 1.524 . S
C434 C448 1.377 1_455 S
C435 C434 1.524 . S
C435 C436 1.397 . S
C435 C440 1.363 . S
C436 H413 0.950 . S
C436 C435 1.397 . S
C436 C437 1.334 1_554 S
C437 H414 0.950 . S
C437 C436 1.334 1_556 S
C437 C438 1.287 . S
C438 C437 1.287 . S
C438 C439 1.524 1_556 S
C438 H457 0.913 . S
C439 H415 0.950 1_554 S
C439 C438 1.524 1_554 S
C439 C440 1.415 . S
C440 H416 0.950 1_455 S
C440 C435 1.363 . S
C440 C439 1.415 . S
C441 H417 0.951 . S
C441 C442 1.366 . S
C441 C443 1.388 . S
C442 C441 1.366 . S
C442 C446 1.385 . S
C443 H418 0.951 . S
C443 C441 1.388 . S
C443 C444 1.366 . S
C444 C443 1.366 . S
C444 C445 1.414 . S
C444 C447 1.499 . S
C445 H419 0.950 . S
C445 C444 1.414 . S
C445 C446 1.374 . S
C446 H420 0.950 . S
C446 C442 1.385 . S
C446 C445 1.374 . S
C447 C444 1.499 . S
C447 C448 1.373 . S
C447 C449 1.389 . S
C448 H421 0.950 . S
C448 C434 1.377 1_655 S
C448 C447 1.373 . S
C449 C433 1.377 1_655 S
C449 C447 1.389 . S
C449 C450 1.524 . S
C450 C449 1.524 . S
C450 C451 1.397 . S
C450 C455 1.363 . S
C451 H422 0.950 . S
C451 C450 1.397 . S
C451 C452 1.334 . S
C452 H423 0.950 . S
C452 C451 1.334 . S
C452 C453 1.287 . S
C453 C452 1.287 . S
C453 C454 1.524 . S
C453 H456 0.999 . S
C454 H424 0.950 . S
C454 C453 1.524 . S
C454 C455 1.415 . S
C455 H425 0.950 1_655 S
C455 C450 1.363 . S
C455 C454 1.415 . S
H456 C453 0.999 . S
H457 C438 0.913 . S
H458 C476 0.951 . S
H459 C478 0.951 . S
H460 C480 0.950 . S
H461 C481 0.950 . S
H462 C483 0.950 . S
H463 C486 0.950 . S
H464 C487 0.950 . S
H465 C489 0.950 . S
H466 C490 0.950 . S
H467 C491 0.951 . S
H468 C493 0.951 . S
H469 C495 0.950 . S
H470 C496 0.950 . S
H471 C498 0.950 . S
H472 C501 0.950 . S
H473 C502 0.950 . S
H474 C504 0.950 . S
H475 C505 0.950 . S
C476 H458 0.951 . S
C476 C477 1.366 . S
C476 C478 1.388 . S
C477 C476 1.366 . S
C477 C481 1.385 . S
C478 H459 0.951 . S
C478 C476 1.388 . S
C478 C479 1.366 . S
C479 C478 1.366 . S
C479 C480 1.414 . S
C479 C482 1.499 . S
C480 H460 0.950 . S
C480 C479 1.414 . S
C480 C481 1.374 . S
C481 H461 0.950 . S
C481 C477 1.385 . S
C481 C480 1.374 . S
C482 C479 1.499 . S
C482 C483 1.373 . S
C482 C484 1.389 . S
C483 H462 0.950 . S
C483 C482 1.373 . S
C483 C499 1.377 1_545 S
C484 C482 1.389 . S
C484 C485 1.524 . S
C484 C498 1.377 1_545 S
C485 C484 1.524 . S
C485 C486 1.397 . S
C485 C490 1.363 . S
C486 H463 0.950 . S
C486 C485 1.397 . S
C486 C487 1.334 . S
C487 H464 0.950 . S
C487 C486 1.334 . S
C487 C488 1.287 . S
C488 C487 1.287 . S
C488 C489 1.524 . S
C488 H507 0.913 . S
C489 H465 0.950 . S
C489 C488 1.524 . S
C489 C490 1.415 . S
C490 H466 0.950 . S
C490 C485 1.363 . S
C490 C489 1.415 . S
C491 H467 0.951 . S
C491 C492 1.366 . S
C491 C493 1.388 . S
C492 C491 1.366 . S
C492 C496 1.385 . S
C493 H468 0.951 . S
C493 C491 1.388 . S
C493 C494 1.366 . S
C494 C493 1.366 . S
C494 C495 1.414 . S
C494 C497 1.499 . S
C495 H469 0.950 . S
C495 C494 1.414 . S
C495 C496 1.374 . S
C496 H470 0.950 . S
C496 C492 1.385 . S
C496 C495 1.374 . S
C497 C494 1.499 . S
C497 C498 1.373 . S
C497 C499 1.389 . S
C498 H471 0.950 . S
C498 C484 1.377 1_565 S
C498 C497 1.373 . S
C499 C483 1.377 1_565 S
C499 C497 1.389 . S
C499 C500 1.524 . S
C500 C499 1.524 . S
C500 C501 1.397 . S
C500 C505 1.363 . S
C501 H472 0.950 . S
C501 C500 1.397 . S
C501 C502 1.334 . S
C502 H473 0.950 . S
C502 C501 1.334 . S
C502 C503 1.287 . S
C503 C502 1.287 . S
C503 C504 1.524 . S
C503 H506 0.999 . S
C504 H474 0.950 . S
C504 C503 1.524 . S
C504 C505 1.415 . S
C505 H475 0.950 . S
C505 C500 1.363 . S
C505 C504 1.415 . S
H506 C503 0.999 . S
H507 C488 0.913 . S
H508 C526 0.951 . S
H509 C528 0.951 . S
H510 C530 0.950 . S
H511 C531 0.950 . S
H512 C533 0.950 . S
H513 C536 0.950 . S
H514 C537 0.950 . S
H515 C539 0.950 . S
H516 C540 0.950 . S
H517 C541 0.951 . S
H518 C543 0.951 . S
H519 C545 0.950 . S
H520 C546 0.950 . S
H521 C548 0.950 . S
H522 C551 0.950 . S
H523 C552 0.950 . S
H524 C554 0.950 . S
H525 C555 0.950 . S
C526 H508 0.951 . S
C526 C527 1.366 . S
C526 C528 1.388 . S
C527 C526 1.366 . S
C527 C531 1.385 . S
C528 H509 0.951 . S
C528 C526 1.388 . S
C528 C529 1.366 . S
C529 C528 1.366 . S
C529 C530 1.414 . S
C529 C532 1.499 . S
C530 H510 0.950 . S
C530 C529 1.414 . S
C530 C531 1.374 . S
C531 H511 0.950 . S
C531 C527 1.385 . S
C531 C530 1.374 . S
C532 C529 1.499 . S
C532 C533 1.373 . S
C532 C534 1.389 . S
C533 H512 0.950 . S
C533 C532 1.373 . S
C533 C549 1.377 . S
C534 C532 1.389 . S
C534 C535 1.524 . S
C534 C548 1.377 . S
C535 C534 1.524 . S
C535 C536 1.397 . S
C535 C540 1.363 . S
C536 H513 0.950 . S
C536 C535 1.397 . S
C536 C537 1.334 . S
C537 H514 0.950 . S
C537 C536 1.334 . S
C537 C538 1.287 . S
C538 C537 1.287 . S
C538 C539 1.524 . S
C538 H557 0.913 . S
C539 H515 0.950 . S
C539 C538 1.524 . S
C539 C540 1.415 . S
C540 H516 0.950 . S
C540 C535 1.363 . S
C540 C539 1.415 . S
C541 H517 0.951 . S
C541 C542 1.366 . S
C541 C543 1.388 . S
C542 C541 1.366 . S
C542 C546 1.385 . S
C543 H518 0.951 . S
C543 C541 1.388 . S
C543 C544 1.366 . S
C544 C543 1.366 . S
C544 C545 1.414 . S
C544 C547 1.499 . S
C545 H519 0.950 . S
C545 C544 1.414 . S
C545 C546 1.374 . S
C546 H520 0.950 . S
C546 C542 1.385 . S
C546 C545 1.374 . S
C547 C544 1.499 . S
C547 C548 1.373 . S
C547 C549 1.389 . S
C548 H521 0.950 . S
C548 C534 1.377 . S
C548 C547 1.373 . S
C549 C533 1.377 . S
C549 C547 1.389 . S
C549 C550 1.524 . S
C550 C549 1.524 . S
C550 C551 1.397 . S
C550 C555 1.363 . S
C551 H522 0.950 . S
C551 C550 1.397 . S
C551 C552 1.334 . S
C552 H523 0.950 . S
C552 C551 1.334 . S
C552 C553 1.287 . S
C553 C552 1.287 . S
C553 C554 1.524 . S
C553 H556 0.999 . S
C554 H524 0.950 . S
C554 C553 1.524 . S
C554 C555 1.415 . S
C555 H525 0.950 . S
C555 C550 1.363 . S
C555 C554 1.415 . S
H556 C553 0.999 . S
H557 C538 0.913 . S
H558 C576 0.951 . S
H559 C578 0.951 . S
H560 C580 0.950 . S
H561 C581 0.950 . S
H562 C583 0.950 . S
H563 C586 0.950 . S
H564 C587 0.950 . S
H565 C589 0.950 . S
H566 C590 0.950 . S
H567 C591 0.951 . S
H568 C593 0.951 . S
H569 C595 0.950 . S
H570 C596 0.950 . S
H571 C598 0.950 . S
H572 C601 0.950 . S
H573 C602 0.950 . S
H574 C604 0.950 . S
H575 C605 0.950 . S
C576 H558 0.951 . S
C576 C577 1.366 . S
C576 C578 1.388 . S
C577 C576 1.366 . S
C577 C581 1.385 . S
C578 H559 0.951 . S
C578 C576 1.388 . S
C578 C579 1.366 . S
C579 C578 1.366 . S
C579 C580 1.414 . S
C579 C582 1.499 . S
C580 H560 0.950 . S
C580 C579 1.414 . S
C580 C581 1.374 . S
C581 H561 0.950 . S
C581 C577 1.385 . S
C581 C580 1.374 . S
C582 C579 1.499 . S
C582 C583 1.373 . S
C582 C584 1.389 . S
C583 H562 0.950 . S
C583 C582 1.373 . S
C583 C599 1.377 1_455 S
C584 C582 1.389 . S
C584 C585 1.524 . S
C584 C598 1.377 1_455 S
C585 C584 1.524 . S
C585 C586 1.397 . S
C585 C590 1.363 . S
C586 H563 0.950 . S
C586 C585 1.397 . S
C586 C587 1.334 . S
C587 H564 0.950 . S
C587 C586 1.334 . S
C587 C588 1.287 . S
C588 C587 1.287 . S
C588 C589 1.524 . S
C588 H607 0.913 . S
C589 H565 0.950 . S
C589 C588 1.524 . S
C589 C590 1.415 . S
C590 H566 0.950 . S
C590 C585 1.363 . S
C590 C589 1.415 . S
C591 H567 0.951 . S
C591 C592 1.366 . S
C591 C593 1.388 . S
C592 C591 1.366 . S
C592 C596 1.385 . S
C593 H568 0.951 . S
C593 C591 1.388 . S
C593 C594 1.366 . S
C594 C593 1.366 . S
C594 C595 1.414 . S
C594 C597 1.499 . S
C595 H569 0.950 . S
C595 C594 1.414 . S
C595 C596 1.374 . S
C596 H570 0.950 . S
C596 C592 1.385 . S
C596 C595 1.374 . S
C597 C594 1.499 . S
C597 C598 1.373 . S
C597 C599 1.389 . S
C598 H571 0.950 . S
C598 C584 1.377 1_655 S
C598 C597 1.373 . S
C599 C583 1.377 1_655 S
C599 C597 1.389 . S
C599 C600 1.524 . S
C600 C599 1.524 . S
C600 C601 1.397 . S
C600 C605 1.363 . S
C601 H572 0.950 . S
C601 C600 1.397 . S
C601 C602 1.334 . S
C602 H573 0.950 . S
C602 C601 1.334 . S
C602 C603 1.287 . S
C603 C602 1.287 . S
C603 C604 1.524 . S
C603 H606 0.999 . S
C604 H574 0.950 . S
C604 C603 1.524 . S
C604 C605 1.415 . S
C605 H575 0.950 . S
C605 C600 1.363 . S
C605 C604 1.415 . S
H606 C603 0.999 . S
H607 C588 0.913 . S
H608 C626 0.951 . S
H609 C628 0.951 . S
H610 C630 0.950 . S
H611 C631 0.950 . S
H612 C633 0.950 . S
H613 C636 0.950 . S
H614 C637 0.950 . S
H615 C639 0.950 . S
H616 C640 0.950 . S
H617 C641 0.951 . S
H618 C643 0.951 . S
H619 C645 0.950 . S
H620 C646 0.950 . S
H621 C648 0.950 . S
H622 C651 0.950 . S
H623 C652 0.950 . S
H624 C654 0.950 . S
H625 C655 0.950 . S
C626 H608 0.951 . S
C626 C627 1.366 . S
C626 C628 1.388 . S
C627 C626 1.366 . S
C627 C631 1.385 . S
C628 H609 0.951 . S
C628 C626 1.388 . S
C628 C629 1.366 . S
C629 C628 1.366 . S
C629 C630 1.414 . S
C629 C632 1.499 . S
C630 H610 0.950 . S
C630 C629 1.414 . S
C630 C631 1.374 . S
C631 H611 0.950 . S
C631 C627 1.385 . S
C631 C630 1.374 . S
C632 C629 1.499 . S
C632 C633 1.373 . S
C632 C634 1.389 . S
C633 H612 0.950 . S
C633 C632 1.373 . S
C633 C649 1.377 1_545 S
C634 C632 1.389 . S
C634 C635 1.524 . S
C634 C648 1.377 1_545 S
C635 C634 1.524 . S
C635 C636 1.397 . S
C635 C640 1.363 . S
C636 H613 0.950 . S
C636 C635 1.397 . S
C636 C637 1.334 . S
C637 H614 0.950 . S
C637 C636 1.334 . S
C637 C638 1.287 . S
C638 C637 1.287 . S
C638 C639 1.524 . S
C638 H657 0.913 . S
C639 H615 0.950 . S
C639 C638 1.524 . S
C639 C640 1.415 . S
C640 H616 0.950 . S
C640 C635 1.363 . S
C640 C639 1.415 . S
C641 H617 0.951 . S
C641 C642 1.366 . S
C641 C643 1.388 . S
C642 C641 1.366 . S
C642 C646 1.385 . S
C643 H618 0.951 . S
C643 C641 1.388 . S
C643 C644 1.366 . S
C644 C643 1.366 . S
C644 C645 1.414 . S
C644 C647 1.499 . S
C645 H619 0.950 . S
C645 C644 1.414 . S
C645 C646 1.374 . S
C646 H620 0.950 . S
C646 C642 1.385 . S
C646 C645 1.374 . S
C647 C644 1.499 . S
C647 C648 1.373 . S
C647 C649 1.389 . S
C648 H621 0.950 . S
C648 C634 1.377 1_565 S
C648 C647 1.373 . S
C649 C633 1.377 1_565 S
C649 C647 1.389 . S
C649 C650 1.524 . S
C650 C649 1.524 . S
C650 C651 1.397 . S
C650 C655 1.363 . S
C651 H622 0.950 . S
C651 C650 1.397 . S
C651 C652 1.334 . S
C652 H623 0.950 . S
C652 C651 1.334 . S
C652 C653 1.287 . S
C653 C652 1.287 . S
C653 C654 1.524 . S
C653 H656 0.999 . S
C654 H624 0.950 . S
C654 C653 1.524 . S
C654 C655 1.415 . S
C655 H625 0.950 . S
C655 C650 1.363 . S
C655 C654 1.415 . S
H656 C653 0.999 . S
H657 C638 0.913 . S
H658 C676 0.951 . S
H659 C678 0.951 . S
H660 C680 0.950 . S
H661 C681 0.950 . S
H662 C683 0.950 . S
H663 C686 0.950 . S
H664 C687 0.950 . S
H665 C689 0.950 . S
H666 C690 0.950 . S
H667 C691 0.951 . S
H668 C693 0.951 . S
H669 C695 0.950 . S
H670 C696 0.950 . S
H671 C698 0.950 . S
H672 C701 0.950 . S
H673 C702 0.950 . S
H674 C704 0.950 . S
H675 C705 0.950 . S
C676 H658 0.951 . S
C676 C677 1.366 . S
C676 C678 1.388 . S
C677 C676 1.366 . S
C677 C681 1.385 . S
C678 H659 0.951 . S
C678 C676 1.388 . S
C678 C679 1.366 . S
C679 C678 1.366 . S
C679 C680 1.414 . S
C679 C682 1.499 . S
C680 H660 0.950 . S
C680 C679 1.414 . S
C680 C681 1.374 . S
C681 H661 0.950 . S
C681 C677 1.385 . S
C681 C680 1.374 . S
C682 C679 1.499 . S
C682 C683 1.373 . S
C682 C684 1.389 . S
C683 H662 0.950 . S
C683 C682 1.373 . S
C683 C699 1.377 . S
C684 C682 1.389 . S
C684 C685 1.524 . S
C684 C698 1.377 . S
C685 C684 1.524 . S
C685 C686 1.397 . S
C685 C690 1.363 . S
C686 H663 0.950 . S
C686 C685 1.397 . S
C686 C687 1.334 1_556 S
C687 H664 0.950 . S
C687 C686 1.334 1_554 S
C687 C688 1.287 . S
C688 C687 1.287 . S
C688 C689 1.524 . S
C688 H707 0.913 . S
C689 H665 0.950 . S
C689 C688 1.524 . S
C689 C690 1.415 1_554 S
C690 H666 0.950 . S
C690 C685 1.363 . S
C690 C689 1.415 1_556 S
C691 H667 0.951 . S
C691 C692 1.366 . S
C691 C693 1.388 . S
C692 C691 1.366 . S
C692 C696 1.385 . S
C693 H668 0.951 . S
C693 C691 1.388 . S
C693 C694 1.366 . S
C694 C693 1.366 . S
C694 C695 1.414 . S
C694 C697 1.499 . S
C695 H669 0.950 . S
C695 C694 1.414 . S
C695 C696 1.374 . S
C696 H670 0.950 . S
C696 C692 1.385 . S
C696 C695 1.374 . S
C697 C694 1.499 . S
C697 C698 1.373 . S
C697 C699 1.389 . S
C698 H671 0.950 . S
C698 C684 1.377 . S
C698 C697 1.373 . S
C699 C683 1.377 . S
C699 C697 1.389 . S
C699 C700 1.524 . S
C700 C699 1.524 . S
C700 C701 1.397 . S
C700 C705 1.363 . S
C701 H672 0.950 . S
C701 C700 1.397 . S
C701 C702 1.334 . S
C702 H673 0.950 . S
C702 C701 1.334 . S
C702 C703 1.287 . S
C703 C702 1.287 . S
C703 C704 1.524 . S
C703 H706 0.999 . S
C704 H674 0.950 . S
C704 C703 1.524 . S
C704 C705 1.415 . S
C705 H675 0.950 . S
C705 C700 1.363 . S
C705 C704 1.415 . S
H706 C703 0.999 . S
H707 C688 0.913 . S
H708 C726 0.951 . S
H709 C728 0.951 . S
H710 C730 0.950 . S
H711 C731 0.950 . S
H712 C733 0.950 . S
H713 C736 0.950 . S
H714 C737 0.950 . S
H715 C739 0.950 . S
H716 C740 0.950 . S
H717 C741 0.951 . S
H718 C743 0.951 . S
H719 C745 0.950 . S
H720 C746 0.950 . S
H721 C748 0.950 . S
H722 C751 0.950 . S
H723 C752 0.950 . S
H724 C754 0.950 . S
H725 C755 0.950 . S
C726 H708 0.951 . S
C726 C727 1.366 . S
C726 C728 1.388 . S
C727 C726 1.366 . S
C727 C731 1.385 . S
C728 H709 0.951 . S
C728 C726 1.388 . S
C728 C729 1.366 . S
C729 C728 1.366 . S
C729 C730 1.414 . S
C729 C732 1.499 . S
C730 H710 0.950 . S
C730 C729 1.414 . S
C730 C731 1.374 . S
C731 H711 0.950 . S
C731 C727 1.385 . S
C731 C730 1.374 . S
C732 C729 1.499 . S
C732 C733 1.373 . S
C732 C734 1.389 . S
C733 H712 0.950 . S
C733 C732 1.373 . S
C733 C749 1.377 . S
C734 C732 1.389 . S
C734 C735 1.524 . S
C734 C748 1.377 . S
C735 C734 1.524 . S
C735 C736 1.397 . S
C735 C740 1.363 . S
C736 H713 0.950 . S
C736 C735 1.397 . S
C736 C737 1.334 . S
C737 H714 0.950 . S
C737 C736 1.334 . S
C737 C738 1.287 . S
C738 C737 1.287 . S
C738 C739 1.524 . S
C738 H757 0.913 . S
C739 H715 0.950 . S
C739 C738 1.524 . S
C739 C740 1.415 . S
C740 H716 0.950 . S
C740 C735 1.363 . S
C740 C739 1.415 . S
C741 H717 0.951 . S
C741 C742 1.366 . S
C741 C743 1.388 . S
C742 C741 1.366 . S
C742 C746 1.385 . S
C743 H718 0.951 . S
C743 C741 1.388 . S
C743 C744 1.366 . S
C744 C743 1.366 . S
C744 C745 1.414 . S
C744 C747 1.499 . S
C745 H719 0.950 . S
C745 C744 1.414 . S
C745 C746 1.374 . S
C746 H720 0.950 . S
C746 C742 1.385 . S
C746 C745 1.374 . S
C747 C744 1.499 . S
C747 C748 1.373 . S
C747 C749 1.389 . S
C748 H721 0.950 . S
C748 C734 1.377 . S
C748 C747 1.373 . S
C749 C733 1.377 . S
C749 C747 1.389 . S
C749 C750 1.524 . S
C750 C749 1.524 . S
C750 C751 1.397 . S
C750 C755 1.363 . S
C751 H722 0.950 . S
C751 C750 1.397 . S
C751 C752 1.334 . S
C752 H723 0.950 . S
C752 C751 1.334 . S
C752 C753 1.287 . S
C753 C752 1.287 . S
C753 C754 1.524 . S
C753 H756 0.999 . S
C754 H724 0.950 . S
C754 C753 1.524 . S
C754 C755 1.415 . S
C755 H725 0.950 . S
C755 C750 1.363 . S
C755 C754 1.415 . S
H756 C753 0.999 . S
H757 C738 0.913 . S
H758 C776 0.951 . S
H759 C778 0.951 . S
H760 C780 0.950 . S
H761 C781 0.950 . S
H762 C783 0.950 . S
H763 C786 0.950 . S
H764 C787 0.950 . S
H765 C789 0.950 . S
H766 C790 0.950 . S
H767 C791 0.951 . S
H768 C793 0.951 . S
H769 C795 0.950 . S
H770 C796 0.950 . S
H771 C798 0.950 . S
H772 C801 0.950 . S
H773 C802 0.955 . S
H774 C804 0.950 . S
H775 C805 0.950 . S
C776 H758 0.951 . S
C776 C777 1.366 . S
C776 C778 1.388 . S
C777 C776 1.366 . S
C777 C781 1.385 . S
C778 H759 0.951 . S
C778 C776 1.388 . S
C778 C779 1.366 . S
C779 C778 1.366 . S
C779 C780 1.414 . S
C779 C782 1.499 . S
C780 H760 0.950 . S
C780 C779 1.414 . S
C780 C781 1.374 . S
C781 H761 0.950 . S
C781 C777 1.385 . S
C781 C780 1.374 . S
C782 C779 1.499 . S
C782 C783 1.373 . S
C782 C784 1.389 . S
C783 H762 0.950 . S
C783 C782 1.373 . S
C783 C799 1.377 . S
C784 C782 1.389 . S
C784 C785 1.524 . S
C784 C798 1.377 . S
C785 C784 1.524 . S
C785 C786 1.397 . S
C785 C790 1.363 . S
C786 H763 0.950 . S
C786 C785 1.397 . S
C786 C787 1.334 . S
C787 H764 0.950 . S
C787 C786 1.334 . S
C787 C788 1.287 . S
C788 C787 1.287 . S
C788 C789 1.524 . S
C788 H807 0.913 . S
C789 H765 0.950 . S
C789 C788 1.524 . S
C789 C790 1.415 . S
C790 H766 0.950 . S
C790 C785 1.363 . S
C790 C789 1.415 . S
C791 H767 0.951 . S
C791 C792 1.366 . S
C791 C793 1.388 . S
C792 C791 1.366 . S
C792 C796 1.385 . S
C793 H768 0.951 . S
C793 C791 1.388 . S
C793 C794 1.366 . S
C794 C793 1.366 . S
C794 C795 1.414 . S
C794 C797 1.499 1_554 S
C795 H769 0.950 . S
C795 C794 1.414 . S
C795 C796 1.374 . S
C796 H770 0.950 . S
C796 C792 1.385 . S
C796 C795 1.374 . S
C797 C794 1.499 1_556 S
C797 C798 1.373 . S
C797 C799 1.389 . S
C798 H771 0.950 . S
C798 C784 1.377 . S
C798 C797 1.373 . S
C799 C783 1.377 . S
C799 C797 1.389 . S
C799 C800 1.524 . S
C800 C799 1.524 . S
C800 C801 1.397 . S
C800 C805 1.363 . S
C801 H772 0.950 . S
C801 C800 1.397 . S
C801 C802 1.331 1_556 S
C802 H773 0.955 . S
C802 C801 1.331 1_554 S
C802 C803 1.284 1_554 S
C803 C802 1.284 1_556 S
C803 C804 1.524 . S
C803 H806 0.999 . S
C804 H774 0.950 . S
C804 C803 1.524 . S
C804 C805 1.415 . S
C805 H775 0.950 . S
C805 C800 1.363 . S
C805 C804 1.415 . S
H806 C803 0.999 . S
H807 C788 0.913 . S
H808 C826 0.951 . S
H809 C828 0.951 . S
H810 C830 0.950 . S
H811 C831 0.950 . S
H812 C833 0.950 . S
H813 C836 0.950 . S
H814 C837 0.950 . S
H815 C839 0.950 . S
H816 C840 0.950 . S
H817 C841 0.951 . S
H818 C843 0.951 . S
H819 C845 0.950 . S
H820 C846 0.950 1_556 S
H821 C848 0.950 . S
H822 C851 0.950 . S
H823 C852 0.950 . S
H824 C854 0.950 . S
H825 C855 0.950 . S
C826 H808 0.951 . S
C826 C827 1.366 . S
C826 C828 1.388 . S
C827 C826 1.366 . S
C827 C831 1.385 . S
C828 H809 0.951 . S
C828 C826 1.388 . S
C828 C829 1.366 . S
C829 C828 1.366 . S
C829 C830 1.414 . S
C829 C832 1.499 . S
C830 H810 0.950 . S
C830 C829 1.414 . S
C830 C831 1.374 . S
C831 H811 0.950 . S
C831 C827 1.385 . S
C831 C830 1.374 . S
C832 C829 1.499 . S
C832 C833 1.373 . S
C832 C834 1.389 . S
C833 H812 0.950 . S
C833 C832 1.373 . S
C833 C849 1.377 . S
C834 C832 1.389 . S
C834 C835 1.524 . S
C834 C848 1.377 . S
C835 C834 1.524 . S
C835 C836 1.397 . S
C835 C840 1.363 . S
C836 H813 0.950 . S
C836 C835 1.397 . S
C836 C837 1.334 . S
C837 H814 0.950 . S
C837 C836 1.334 . S
C837 C838 1.287 . S
C838 C837 1.287 . S
C838 C839 1.524 . S
C838 H857 0.913 . S
C839 H815 0.950 . S
C839 C838 1.524 . S
C839 C840 1.415 . S
C840 H816 0.950 . S
C840 C835 1.363 . S
C840 C839 1.415 . S
C841 H817 0.951 . S
C841 C842 1.366 1_554 S
C841 C843 1.388 . S
C842 C841 1.366 1_556 S
C842 C846 1.385 1_556 S
C843 H818 0.951 . S
C843 C841 1.388 . S
C843 C844 1.366 . S
C844 C843 1.366 . S
C844 C845 1.414 . S
C844 C847 1.499 . S
C845 H819 0.950 . S
C845 C844 1.414 . S
C845 C846 1.374 . S
C846 H820 0.950 1_554 S
C846 C842 1.385 1_554 S
C846 C845 1.374 . S
C847 C844 1.499 . S
C847 C848 1.373 . S
C847 C849 1.389 . S
C848 H821 0.950 . S
C848 C834 1.377 . S
C848 C847 1.373 . S
C849 C833 1.377 . S
C849 C847 1.389 . S
C849 C850 1.524 . S
C850 C849 1.524 . S
C850 C851 1.397 . S
C850 C855 1.363 . S
C851 H822 0.950 . S
C851 C850 1.397 . S
C851 C852 1.334 . S
C852 H823 0.950 . S
C852 C851 1.334 . S
C852 C853 1.287 . S
C853 C852 1.287 . S
C853 C854 1.524 . S
C853 H856 0.999 . S
C854 H824 0.950 . S
C854 C853 1.524 . S
C854 C855 1.415 . S
C855 H825 0.950 . S
C855 C850 1.363 . S
C855 C854 1.415 . S
H856 C853 0.999 . S
H857 C838 0.913 . S
H858 C876 0.951 . S
H859 C878 0.951 . S
H860 C880 0.950 . S
H861 C881 0.950 . S
H862 C883 0.950 . S
H863 C886 0.950 . S
H864 C887 0.950 . S
H865 C889 0.950 . S
H866 C890 0.950 . S
H867 C891 0.951 . S
H868 C893 0.951 . S
H869 C895 0.950 . S
H870 C896 0.950 . S
H871 C898 0.950 . S
H872 C901 0.950 . S
H873 C902 0.950 . S
H874 C904 0.950 . S
H875 C905 0.950 . S
C876 H858 0.951 . S
C876 C877 1.366 . S
C876 C878 1.388 . S
C877 C876 1.366 . S
C877 C881 1.385 . S
C878 H859 0.951 . S
C878 C876 1.388 . S
C878 C879 1.366 . S
C879 C878 1.366 . S
C879 C880 1.414 . S
C879 C882 1.499 . S
C880 H860 0.950 . S
C880 C879 1.414 . S
C880 C881 1.374 . S
C881 H861 0.950 . S
C881 C877 1.385 . S
C881 C880 1.374 . S
C882 C879 1.499 . S
C882 C883 1.373 . S
C882 C884 1.389 . S
C883 H862 0.950 . S
C883 C882 1.373 . S
C883 C899 1.377 . S
C884 C882 1.389 . S
C884 C885 1.524 . S
C884 C898 1.377 . S
C885 C884 1.524 . S
C885 C886 1.397 . S
C885 C890 1.363 . S
C886 H863 0.950 . S
C886 C885 1.397 . S
C886 C887 1.334 . S
C887 H864 0.950 . S
C887 C886 1.334 . S
C887 C888 1.287 . S
C888 C887 1.287 . S
C888 C889 1.524 . S
C888 H907 0.913 . S
C889 H865 0.950 . S
C889 C888 1.524 . S
C889 C890 1.415 . S
C890 H866 0.950 . S
C890 C885 1.363 . S
C890 C889 1.415 . S
C891 H867 0.951 . S
C891 C892 1.366 . S
C891 C893 1.388 . S
C892 C891 1.366 . S
C892 C896 1.385 . S
C893 H868 0.951 . S
C893 C891 1.388 . S
C893 C894 1.366 . S
C894 C893 1.366 . S
C894 C895 1.414 . S
C894 C897 1.499 . S
C895 H869 0.950 . S
C895 C894 1.414 . S
C895 C896 1.374 . S
C896 H870 0.950 . S
C896 C892 1.385 . S
C896 C895 1.374 . S
C897 C894 1.499 . S
C897 C898 1.373 . S
C897 C899 1.389 . S
C898 H871 0.950 . S
C898 C884 1.377 . S
C898 C897 1.373 . S
C899 C883 1.377 . S
C899 C897 1.389 . S
C899 C900 1.524 . S
C900 C899 1.524 . S
C900 C901 1.397 . S
C900 C905 1.363 . S
C901 H872 0.950 . S
C901 C900 1.397 . S
C901 C902 1.334 . S
C902 H873 0.950 . S
C902 C901 1.334 . S
C902 C903 1.287 . S
C903 C902 1.287 . S
C903 C904 1.524 . S
C903 H906 0.999 . S
C904 H874 0.950 . S
C904 C903 1.524 . S
C904 C905 1.415 . S
C905 H875 0.950 . S
C905 C900 1.363 . S
C905 C904 1.415 . S
H906 C903 0.999 . S
H907 C888 0.913 . S
H908 C926 0.951 . S
H909 C928 0.951 . S
H910 C930 0.950 . S
H911 C931 0.950 . S
H912 C933 0.950 . S
H913 C936 0.950 . S
H914 C937 0.950 1_554 S
H915 C939 0.950 . S
H916 C940 0.950 . S
H917 C941 0.951 . S
H918 C943 0.951 . S
H919 C945 0.950 . S
H920 C946 0.950 . S
H921 C948 0.950 . S
H922 C951 0.950 . S
H923 C952 0.950 . S
H924 C954 0.950 . S
H925 C955 0.950 . S
C926 H908 0.951 . S
C926 C927 1.366 . S
C926 C928 1.388 . S
C927 C926 1.366 . S
C927 C931 1.385 . S
C928 H909 0.951 . S
C928 C926 1.388 . S
C928 C929 1.366 . S
C929 C928 1.366 . S
C929 C930 1.414 . S
C929 C932 1.499 1_554 S
C930 H910 0.950 . S
C930 C929 1.414 . S
C930 C931 1.374 . S
C931 H911 0.950 . S
C931 C927 1.385 . S
C931 C930 1.374 . S
C932 C929 1.499 1_556 S
C932 C933 1.373 . S
C932 C934 1.389 . S
C933 H912 0.950 . S
C933 C932 1.373 . S
C933 C949 1.377 . S
C934 C932 1.389 . S
C934 C935 1.524 . S
C934 C948 1.377 . S
C935 C934 1.524 . S
C935 C936 1.397 . S
C935 C940 1.363 . S
C936 H913 0.950 . S
C936 C935 1.397 . S
C936 C937 1.334 . S
C937 H914 0.950 1_556 S
C937 C936 1.334 . S
C937 C938 1.287 . S
C938 C937 1.287 . S
C938 C939 1.524 . S
C938 H957 0.913 . S
C939 H915 0.950 . S
C939 C938 1.524 . S
C939 C940 1.415 . S
C940 H916 0.950 . S
C940 C935 1.363 . S
C940 C939 1.415 . S
C941 H917 0.951 . S
C941 C942 1.366 . S
C941 C943 1.388 . S
C942 C941 1.366 . S
C942 C946 1.385 . S
C943 H918 0.951 . S
C943 C941 1.388 . S
C943 C944 1.366 . S
C944 C943 1.366 . S
C944 C945 1.414 . S
C944 C947 1.499 . S
C945 H919 0.950 . S
C945 C944 1.414 . S
C945 C946 1.374 . S
C946 H920 0.950 . S
C946 C942 1.385 . S
C946 C945 1.374 . S
C947 C944 1.499 . S
C947 C948 1.373 . S
C947 C949 1.389 . S
C948 H921 0.950 . S
C948 C934 1.377 . S
C948 C947 1.373 . S
C949 C933 1.377 . S
C949 C947 1.389 . S
C949 C950 1.524 . S
C950 C949 1.524 . S
C950 C951 1.397 . S
C950 C955 1.363 . S
C951 H922 0.950 . S
C951 C950 1.397 . S
C951 C952 1.334 . S
C952 H923 0.950 . S
C952 C951 1.334 . S
C952 C953 1.287 . S
C953 C952 1.287 . S
C953 C954 1.524 . S
C953 H956 0.999 . S
C954 H924 0.950 . S
C954 C953 1.524 . S
C954 C955 1.415 . S
C955 H925 0.950 . S
C955 C950 1.363 . S
C955 C954 1.415 . S
H956 C953 0.999 . S
H957 C938 0.913 . S
H958 C976 0.951 . S
H959 C978 0.951 . S
H960 C980 0.950 . S
H961 C981 0.950 1_556 S
H962 C983 0.950 . S
H963 C986 0.950 . S
H964 C987 0.950 . S
H965 C989 0.950 . S
H966 C990 0.950 . S
H967 C991 0.951 . S
H968 C993 0.951 . S
H969 C995 0.950 . S
H970 C996 0.950 . S
H971 C998 0.950 . S
H972 C1001 0.950 . S
H973 C1002 0.950 . S
H974 C1004 0.950 . S
H975 C1005 0.950 . S
C976 H958 0.951 . S
C976 C977 1.366 1_554 S
C976 C978 1.388 . S
C977 C976 1.366 1_556 S
C977 C981 1.385 1_556 S
C978 H959 0.951 . S
C978 C976 1.388 . S
C978 C979 1.366 . S
C979 C978 1.366 . S
C979 C980 1.414 . S
C979 C982 1.499 . S
C980 H960 0.950 . S
C980 C979 1.414 . S
C980 C981 1.374 . S
C981 H961 0.950 1_554 S
C981 C977 1.385 1_554 S
C981 C980 1.374 . S
C982 C979 1.499 . S
C982 C983 1.373 . S
C982 C984 1.389 . S
C983 H962 0.950 . S
C983 C982 1.373 . S
C983 C999 1.377 . S
C984 C982 1.389 . S
C984 C985 1.524 . S
C984 C998 1.377 . S
C985 C984 1.524 . S
C985 C986 1.397 . S
C985 C990 1.363 . S
C986 H963 0.950 . S
C986 C985 1.397 . S
C986 C987 1.334 . S
C987 H964 0.950 . S
C987 C986 1.334 . S
C987 C988 1.287 . S
C988 C987 1.287 . S
C988 C989 1.524 . S
C988 H1007 0.913 . S
C989 H965 0.950 . S
C989 C988 1.524 . S
C989 C990 1.415 . S
C990 H966 0.950 . S
C990 C985 1.363 . S
C990 C989 1.415 . S
C991 H967 0.951 . S
C991 C992 1.366 . S
C991 C993 1.388 . S
C992 C991 1.366 . S
C992 C996 1.385 . S
C993 H968 0.951 . S
C993 C991 1.388 . S
C993 C994 1.366 . S
C994 C993 1.366 . S
C994 C995 1.414 . S
C994 C997 1.499 . S
C995 H969 0.950 . S
C995 C994 1.414 . S
C995 C996 1.374 . S
C996 H970 0.950 . S
C996 C992 1.385 . S
C996 C995 1.374 . S
C997 C994 1.499 . S
C997 C998 1.373 . S
C997 C999 1.389 . S
C998 H971 0.950 . S
C998 C984 1.377 . S
C998 C997 1.373 . S
C999 C983 1.377 . S
C999 C997 1.389 . S
C999 C1000 1.524 . S
C1000 C999 1.524 . S
C1000 C1001 1.397 . S
C1000 C1005 1.363 . S
C1001 H972 0.950 . S
C1001 C1000 1.397 . S
C1001 C1002 1.334 . S
C1002 H973 0.950 . S
C1002 C1001 1.334 . S
C1002 C1003 1.287 . S
C1003 C1002 1.287 . S
C1003 C1004 1.524 . S
C1003 H1006 0.999 . S
C1004 H974 0.950 . S
C1004 C1003 1.524 . S
C1004 C1005 1.415 . S
C1005 H975 0.950 . S
C1005 C1000 1.363 . S
C1005 C1004 1.415 . S
H1006 C1003 0.999 . S
H1007 C988 0.913 . S
H1008 C1026 0.951 . S
H1009 C1028 0.951 . S
H1010 C1030 0.950 . S
H1011 C1031 0.950 . S
H1012 C1033 0.950 . S
H1013 C1036 0.950 1_556 S
H1014 C1037 0.950 . S
H1015 C1039 0.950 . S
H1016 C1040 0.950 . S
H1017 C1041 0.951 . S
H1018 C1043 0.951 . S
H1019 C1045 0.950 . S
H1020 C1046 0.950 . S
H1021 C1048 0.950 . S
H1022 C1051 0.950 . S
H1023 C1052 0.950 . S
H1024 C1054 0.950 . S
H1025 C1055 0.950 . S
C1026 H1008 0.951 . S
C1026 C1027 1.366 . S
C1026 C1028 1.388 . S
C1027 C1026 1.366 . S
C1027 C1031 1.385 . S
C1028 H1009 0.951 . S
C1028 C1026 1.388 . S
C1028 C1029 1.366 . S
C1029 C1028 1.366 . S
C1029 C1030 1.414 . S
C1029 C1032 1.499 1_556 S
C1030 H1010 0.950 . S
C1030 C1029 1.414 . S
C1030 C1031 1.374 . S
C1031 H1011 0.950 . S
C1031 C1027 1.385 . S
C1031 C1030 1.374 . S
C1032 C1029 1.499 1_554 S
C1032 C1033 1.373 . S
C1032 C1034 1.389 . S
C1033 H1012 0.950 . S
C1033 C1032 1.373 . S
C1033 C1049 1.377 . S
C1034 C1032 1.389 . S
C1034 C1035 1.524 . S
C1034 C1048 1.377 . S
C1035 C1034 1.524 . S
C1035 C1036 1.397 . S
C1035 C1040 1.363 . S
C1036 H1013 0.950 1_554 S
C1036 C1035 1.397 . S
C1036 C1037 1.334 1_554 S
C1037 H1014 0.950 . S
C1037 C1036 1.334 1_556 S
C1037 C1038 1.287 . S
C1038 C1037 1.287 . S
C1038 C1039 1.524 1_556 S
C1038 H1057 0.913 . S
C1039 H1015 0.950 . S
C1039 C1038 1.524 1_554 S
C1039 C1040 1.415 . S
C1040 H1016 0.950 . S
C1040 C1035 1.363 . S
C1040 C1039 1.415 . S
C1041 H1017 0.951 . S
C1041 C1042 1.366 . S
C1041 C1043 1.388 . S
C1042 C1041 1.366 . S
C1042 C1046 1.385 . S
C1043 H1018 0.951 . S
C1043 C1041 1.388 . S
C1043 C1044 1.366 . S
C1044 C1043 1.366 . S
C1044 C1045 1.414 . S
C1044 C1047 1.499 . S
C1045 H1019 0.950 . S
C1045 C1044 1.414 . S
C1045 C1046 1.374 . S
C1046 H1020 0.950 . S
C1046 C1042 1.385 . S
C1046 C1045 1.374 . S
C1047 C1044 1.499 . S
C1047 C1048 1.373 . S
C1047 C1049 1.389 . S
C1048 H1021 0.950 . S
C1048 C1034 1.377 . S
C1048 C1047 1.373 . S
C1049 C1033 1.377 . S
C1049 C1047 1.389 . S
C1049 C1050 1.524 . S
C1050 C1049 1.524 . S
C1050 C1051 1.397 . S
C1050 C1055 1.363 . S
C1051 H1022 0.950 . S
C1051 C1050 1.397 . S
C1051 C1052 1.334 . S
C1052 H1023 0.950 . S
C1052 C1051 1.334 . S
C1052 C1053 1.287 . S
C1053 C1052 1.287 . S
C1053 C1054 1.524 . S
C1053 H1056 0.999 . S
C1054 H1024 0.950 . S
C1054 C1053 1.524 . S
C1054 C1055 1.415 . S
C1055 H1025 0.950 . S
C1055 C1050 1.363 . S
C1055 C1054 1.415 . S
H1056 C1053 0.999 . S
H1057 C1038 0.913 . S
H1058 C1076 0.951 . S
H1059 C1078 0.951 . S
H1060 C1080 0.950 . S
H1061 C1081 0.950 . S
H1062 C1083 0.950 . S
H1063 C1086 0.950 . S
H1064 C1087 0.950 . S
H1065 C1089 0.950 . S
H1066 C1090 0.950 . S
H1067 C1091 0.951 . S
H1068 C1093 0.951 . S
H1069 C1095 0.950 . S
H1070 C1096 0.950 . S
H1071 C1098 0.950 . S
H1072 C1101 0.950 . S
H1073 C1102 0.950 . S
H1074 C1104 0.950 . S
H1075 C1105 0.950 . S
C1076 H1058 0.951 . S
C1076 C1077 1.366 . S
C1076 C1078 1.388 . S
C1077 C1076 1.366 . S
C1077 C1081 1.385 . S
C1078 H1059 0.951 . S
C1078 C1076 1.388 . S
C1078 C1079 1.366 . S
C1079 C1078 1.366 . S
C1079 C1080 1.414 . S
C1079 C1082 1.499 . S
C1080 H1060 0.950 . S
C1080 C1079 1.414 . S
C1080 C1081 1.374 . S
C1081 H1061 0.950 . S
C1081 C1077 1.385 . S
C1081 C1080 1.374 . S
C1082 C1079 1.499 . S
C1082 C1083 1.373 . S
C1082 C1084 1.389 . S
C1083 H1062 0.950 . S
C1083 C1082 1.373 . S
C1083 C1099 1.377 . S
C1084 C1082 1.389 . S
C1084 C1085 1.524 . S
C1084 C1098 1.377 . S
C1085 C1084 1.524 . S
C1085 C1086 1.397 . S
C1085 C1090 1.363 . S
C1086 H1063 0.950 . S
C1086 C1085 1.397 . S
C1086 C1087 1.334 . S
C1087 H1064 0.950 . S
C1087 C1086 1.334 . S
C1087 C1088 1.287 . S
C1088 C1087 1.287 . S
C1088 C1089 1.524 . S
C1088 H1107 0.913 . S
C1089 H1065 0.950 . S
C1089 C1088 1.524 . S
C1089 C1090 1.415 . S
C1090 H1066 0.950 . S
C1090 C1085 1.363 . S
C1090 C1089 1.415 . S
C1091 H1067 0.951 . S
C1091 C1092 1.366 . S
C1091 C1093 1.388 . S
C1092 C1091 1.366 . S
C1092 C1096 1.385 . S
C1093 H1068 0.951 . S
C1093 C1091 1.388 . S
C1093 C1094 1.366 . S
C1094 C1093 1.366 . S
C1094 C1095 1.414 . S
C1094 C1097 1.499 . S
C1095 H1069 0.950 . S
C1095 C1094 1.414 . S
C1095 C1096 1.374 . S
C1096 H1070 0.950 . S
C1096 C1092 1.385 . S
C1096 C1095 1.374 . S
C1097 C1094 1.499 . S
C1097 C1098 1.373 . S
C1097 C1099 1.389 . S
C1098 H1071 0.950 . S
C1098 C1084 1.377 . S
C1098 C1097 1.373 . S
C1099 C1083 1.377 . S
C1099 C1097 1.389 . S
C1099 C1100 1.524 . S
C1100 C1099 1.524 . S
C1100 C1101 1.397 . S
C1100 C1105 1.363 . S
C1101 H1072 0.950 . S
C1101 C1100 1.397 . S
C1101 C1102 1.334 . S
C1102 H1073 0.950 . S
C1102 C1101 1.334 . S
C1102 C1103 1.287 . S
C1103 C1102 1.287 . S
C1103 C1104 1.524 . S
C1103 H1106 0.999 . S
C1104 H1074 0.950 . S
C1104 C1103 1.524 . S
C1104 C1105 1.415 . S
C1105 H1075 0.950 . S
C1105 C1100 1.363 . S
C1105 C1104 1.415 . S
H1106 C1103 0.999 . S
H1107 C1088 0.913 . S
H1108 C1126 0.951 . S
H1109 C1128 0.951 . S
H1110 C1130 0.950 . S
H1111 C1131 0.950 . S
H1112 C1133 0.950 . S
H1113 C1136 0.950 . S
H1114 C1137 0.950 . S
H1115 C1139 0.950 . S
H1116 C1140 0.950 . S
H1117 C1141 0.951 1_554 S
H1118 C1143 0.951 . S
H1119 C1145 0.950 . S
H1120 C1146 0.950 . S
H1121 C1148 0.950 . S
H1122 C1151 0.950 . S
H1123 C1152 0.950 . S
H1124 C1154 0.950 . S
H1125 C1155 0.950 . S
C1126 H1108 0.951 . S
C1126 C1127 1.366 . S
C1126 C1128 1.388 . S
C1127 C1126 1.366 . S
C1127 C1131 1.385 . S
C1128 H1109 0.951 . S
C1128 C1126 1.388 . S
C1128 C1129 1.366 . S
C1129 C1128 1.366 . S
C1129 C1130 1.414 . S
C1129 C1132 1.499 . S
C1130 H1110 0.950 . S
C1130 C1129 1.414 . S
C1130 C1131 1.374 . S
C1131 H1111 0.950 . S
C1131 C1127 1.385 . S
C1131 C1130 1.374 . S
C1132 C1129 1.499 . S
C1132 C1133 1.373 . S
C1132 C1134 1.389 . S
C1133 H1112 0.950 . S
C1133 C1132 1.373 . S
C1133 C1149 1.377 . S
C1134 C1132 1.389 . S
C1134 C1135 1.524 . S
C1134 C1148 1.377 . S
C1135 C1134 1.524 . S
C1135 C1136 1.397 . S
C1135 C1140 1.363 . S
C1136 H1113 0.950 . S
C1136 C1135 1.397 . S
C1136 C1137 1.334 . S
C1137 H1114 0.950 . S
C1137 C1136 1.334 . S
C1137 C1138 1.287 . S
C1138 C1137 1.287 . S
C1138 C1139 1.524 . S
C1138 H1157 0.913 . S
C1139 H1115 0.950 . S
C1139 C1138 1.524 . S
C1139 C1140 1.415 . S
C1140 H1116 0.950 . S
C1140 C1135 1.363 . S
C1140 C1139 1.415 . S
C1141 H1117 0.951 1_556 S
C1141 C1142 1.366 1_556 S
C1141 C1143 1.388 . S
C1142 C1141 1.366 1_554 S
C1142 C1146 1.385 1_554 S
C1143 H1118 0.951 . S
C1143 C1141 1.388 . S
C1143 C1144 1.366 . S
C1144 C1143 1.366 . S
C1144 C1145 1.414 . S
C1144 C1147 1.499 . S
C1145 H1119 0.950 . S
C1145 C1144 1.414 . S
C1145 C1146 1.374 . S
C1146 H1120 0.950 . S
C1146 C1142 1.385 1_556 S
C1146 C1145 1.374 . S
C1147 C1144 1.499 . S
C1147 C1148 1.373 . S
C1147 C1149 1.389 . S
C1148 H1121 0.950 . S
C1148 C1134 1.377 . S
C1148 C1147 1.373 . S
C1149 C1133 1.377 . S
C1149 C1147 1.389 . S
C1149 C1150 1.524 . S
C1150 C1149 1.524 . S
C1150 C1151 1.397 . S
C1150 C1155 1.363 . S
C1151 H1122 0.950 . S
C1151 C1150 1.397 . S
C1151 C1152 1.334 . S
C1152 H1123 0.950 . S
C1152 C1151 1.334 . S
C1152 C1153 1.287 . S
C1153 C1152 1.287 . S
C1153 C1154 1.524 . S
C1153 H1156 0.999 . S
C1154 H1124 0.950 . S
C1154 C1153 1.524 . S
C1154 C1155 1.415 . S
C1155 H1125 0.950 . S
C1155 C1150 1.363 . S
C1155 C1154 1.415 . S
H1156 C1153 0.999 . S
H1157 C1138 0.913 . S
H1158 C1176 0.951 . S
H1159 C1178 0.951 . S
H1160 C1180 0.950 . S
H1161 C1181 0.950 . S
H1162 C1183 0.950 . S
H1163 C1186 0.950 . S
H1164 C1187 0.950 . S
H1165 C1189 0.950 . S
H1166 C1190 0.950 . S
H1167 C1191 0.951 . S
H1168 C1193 0.951 . S
H1169 C1195 0.950 . S
H1170 C1196 0.950 . S
H1171 C1198 0.950 . S
H1172 C1201 0.950 . S
H1173 C1202 0.950 . S
H1174 C1204 0.950 . S
H1175 C1205 0.950 . S
C1176 H1158 0.951 . S
C1176 C1177 1.366 . S
C1176 C1178 1.388 . S
C1177 C1176 1.366 . S
C1177 C1181 1.385 . S
C1178 H1159 0.951 . S
C1178 C1176 1.388 . S
C1178 C1179 1.366 . S
C1179 C1178 1.366 . S
C1179 C1180 1.414 . S
C1179 C1182 1.499 . S
C1180 H1160 0.950 . S
C1180 C1179 1.414 . S
C1180 C1181 1.374 . S
C1181 H1161 0.950 . S
C1181 C1177 1.385 . S
C1181 C1180 1.374 . S
C1182 C1179 1.499 . S
C1182 C1183 1.373 . S
C1182 C1184 1.389 . S
C1183 H1162 0.950 . S
C1183 C1182 1.373 . S
C1183 C1199 1.377 . S
C1184 C1182 1.389 . S
C1184 C1185 1.524 . S
C1184 C1198 1.377 . S
C1185 C1184 1.524 . S
C1185 C1186 1.397 . S
C1185 C1190 1.363 . S
C1186 H1163 0.950 . S
C1186 C1185 1.397 . S
C1186 C1187 1.334 . S
C1187 H1164 0.950 . S
C1187 C1186 1.334 . S
C1187 C1188 1.287 . S
C1188 C1187 1.287 . S
C1188 C1189 1.524 . S
C1188 H1207 0.913 . S
C1189 H1165 0.950 . S
C1189 C1188 1.524 . S
C1189 C1190 1.415 . S
C1190 H1166 0.950 . S
C1190 C1185 1.363 . S
C1190 C1189 1.415 . S
C1191 H1167 0.951 . S
C1191 C1192 1.366 . S
C1191 C1193 1.388 . S
C1192 C1191 1.366 . S
C1192 C1196 1.385 . S
C1193 H1168 0.951 . S
C1193 C1191 1.388 . S
C1193 C1194 1.366 . S
C1194 C1193 1.366 . S
C1194 C1195 1.414 . S
C1194 C1197 1.499 1_556 S
C1195 H1169 0.950 . S
C1195 C1194 1.414 . S
C1195 C1196 1.374 . S
C1196 H1170 0.950 . S
C1196 C1192 1.385 . S
C1196 C1195 1.374 . S
C1197 C1194 1.499 1_554 S
C1197 C1198 1.373 . S
C1197 C1199 1.389 . S
C1198 H1171 0.950 . S
C1198 C1184 1.377 . S
C1198 C1197 1.373 . S
C1199 C1183 1.377 . S
C1199 C1197 1.389 . S
C1199 C1200 1.524 . S
C1200 C1199 1.524 . S
C1200 C1201 1.397 . S
C1200 C1205 1.363 . S
C1201 H1172 0.950 . S
C1201 C1200 1.397 . S
C1201 C1202 1.334 1_554 S
C1202 H1173 0.950 . S
C1202 C1201 1.334 1_556 S
C1202 C1203 1.287 1_556 S
C1203 C1202 1.287 1_554 S
C1203 C1204 1.524 . S
C1203 H1206 0.997 1_554 S
C1204 H1174 0.950 . S
C1204 C1203 1.524 . S
C1204 C1205 1.415 . S
C1205 H1175 0.950 . S
C1205 C1200 1.363 . S
C1205 C1204 1.415 . S
H1206 C1203 0.997 1_556 S
H1207 C1188 0.913 . S
H1208 C1226 0.951 . S
H1209 C1228 0.951 . S
H1210 C1230 0.950 . S
H1211 C1231 0.950 . S
H1212 C1233 0.950 . S
H1213 C1236 0.950 . S
H1214 C1237 0.950 . S
H1215 C1239 0.950 . S
H1216 C1240 0.950 . S
H1217 C1241 0.951 . S
H1218 C1243 0.951 . S
H1219 C1245 0.950 . S
H1220 C1246 0.950 . S
H1221 C1248 0.950 . S
H1222 C1251 0.950 . S
H1223 C1252 0.950 . S
H1224 C1254 0.950 . S
H1225 C1255 0.950 . S
C1226 H1208 0.951 . S
C1226 C1227 1.366 . S
C1226 C1228 1.388 . S
C1227 C1226 1.366 . S
C1227 C1231 1.385 . S
C1228 H1209 0.951 . S
C1228 C1226 1.388 . S
C1228 C1229 1.366 . S
C1229 C1228 1.366 . S
C1229 C1230 1.414 . S
C1229 C1232 1.499 . S
C1230 H1210 0.950 . S
C1230 C1229 1.414 . S
C1230 C1231 1.374 . S
C1231 H1211 0.950 . S
C1231 C1227 1.385 . S
C1231 C1230 1.374 . S
C1232 C1229 1.499 . S
C1232 C1233 1.373 . S
C1232 C1234 1.389 . S
C1233 H1212 0.950 . S
C1233 C1232 1.373 . S
C1233 C1249 1.377 . S
C1234 C1232 1.389 . S
C1234 C1235 1.524 . S
C1234 C1248 1.377 . S
C1235 C1234 1.524 . S
C1235 C1236 1.397 . S
C1235 C1240 1.363 . S
C1236 H1213 0.950 . S
C1236 C1235 1.397 . S
C1236 C1237 1.334 . S
C1237 H1214 0.950 . S
C1237 C1236 1.334 . S
C1237 C1238 1.287 . S
C1238 C1237 1.287 . S
C1238 C1239 1.524 . S
C1238 H1257 0.913 . S
C1239 H1215 0.950 . S
C1239 C1238 1.524 . S
C1239 C1240 1.415 . S
C1240 H1216 0.950 . S
C1240 C1235 1.363 . S
C1240 C1239 1.415 . S
C1241 H1217 0.951 . S
C1241 C1242 1.366 . S
C1241 C1243 1.388 . S
C1242 C1241 1.366 . S
C1242 C1246 1.385 . S
C1243 H1218 0.951 . S
C1243 C1241 1.388 . S
C1243 C1244 1.366 . S
C1244 C1243 1.366 . S
C1244 C1245 1.414 . S
C1244 C1247 1.499 . S
C1245 H1219 0.950 . S
C1245 C1244 1.414 . S
C1245 C1246 1.374 . S
C1246 H1220 0.950 . S
C1246 C1242 1.385 . S
C1246 C1245 1.374 . S
C1247 C1244 1.499 . S
C1247 C1248 1.373 . S
C1247 C1249 1.389 . S
C1248 H1221 0.950 . S
C1248 C1234 1.377 . S
C1248 C1247 1.373 . S
C1249 C1233 1.377 . S
C1249 C1247 1.389 . S
C1249 C1250 1.524 . S
C1250 C1249 1.524 . S
C1250 C1251 1.397 . S
C1250 C1255 1.363 . S
C1251 H1222 0.950 . S
C1251 C1250 1.397 . S
C1251 C1252 1.334 . S
C1252 H1223 0.950 . S
C1252 C1251 1.334 . S
C1252 C1253 1.287 . S
C1253 C1252 1.287 . S
C1253 C1254 1.524 . S
C1253 H1256 0.999 . S
C1254 H1224 0.950 . S
C1254 C1253 1.524 . S
C1254 C1255 1.415 . S
C1255 H1225 0.950 . S
C1255 C1250 1.363 . S
C1255 C1254 1.415 . S
H1256 C1253 0.999 . S
H1257 C1238 0.913 . S
H1258 C1276 0.951 . S
H1259 C1278 0.951 . S
H1260 C1280 0.950 . S
H1261 C1281 0.950 . S
H1262 C1283 0.950 . S
H1263 C1286 0.950 . S
H1264 C1287 0.950 . S
H1265 C1289 0.950 . S
H1266 C1290 0.950 . S
H1267 C1291 0.951 1_554 S
H1268 C1293 0.951 . S
H1269 C1295 0.950 . S
H1270 C1296 0.950 . S
H1271 C1298 0.950 . S
H1272 C1301 0.950 . S
H1273 C1302 0.950 . S
H1274 C1304 0.950 . S
H1275 C1305 0.950 . S
C1276 H1258 0.951 . S
C1276 C1277 1.366 . S
C1276 C1278 1.388 . S
C1277 C1276 1.366 . S
C1277 C1281 1.385 . S
C1278 H1259 0.951 . S
C1278 C1276 1.388 . S
C1278 C1279 1.366 . S
C1279 C1278 1.366 . S
C1279 C1280 1.414 . S
C1279 C1282 1.499 . S
C1280 H1260 0.950 . S
C1280 C1279 1.414 . S
C1280 C1281 1.374 . S
C1281 H1261 0.950 . S
C1281 C1277 1.385 . S
C1281 C1280 1.374 . S
C1282 C1279 1.499 . S
C1282 C1283 1.373 . S
C1282 C1284 1.389 . S
C1283 H1262 0.950 . S
C1283 C1282 1.373 . S
C1283 C1299 1.377 . S
C1284 C1282 1.389 . S
C1284 C1285 1.524 . S
C1284 C1298 1.377 . S
C1285 C1284 1.524 . S
C1285 C1286 1.397 . S
C1285 C1290 1.363 . S
C1286 H1263 0.950 . S
C1286 C1285 1.397 . S
C1286 C1287 1.334 . S
C1287 H1264 0.950 . S
C1287 C1286 1.334 . S
C1287 C1288 1.287 . S
C1288 C1287 1.287 . S
C1288 C1289 1.524 . S
C1288 H1307 0.913 . S
C1289 H1265 0.950 . S
C1289 C1288 1.524 . S
C1289 C1290 1.415 . S
C1290 H1266 0.950 . S
C1290 C1285 1.363 . S
C1290 C1289 1.415 . S
C1291 H1267 0.951 1_556 S
C1291 C1292 1.366 1_556 S
C1291 C1293 1.388 . S
C1292 C1291 1.366 1_554 S
C1292 C1296 1.385 1_554 S
C1293 H1268 0.951 . S
C1293 C1291 1.388 . S
C1293 C1294 1.366 . S
C1294 C1293 1.366 . S
C1294 C1295 1.414 . S
C1294 C1297 1.499 . S
C1295 H1269 0.950 . S
C1295 C1294 1.414 . S
C1295 C1296 1.374 . S
C1296 H1270 0.950 . S
C1296 C1292 1.385 1_556 S
C1296 C1295 1.374 . S
C1297 C1294 1.499 . S
C1297 C1298 1.373 . S
C1297 C1299 1.389 . S
C1298 H1271 0.950 . S
C1298 C1284 1.377 . S
C1298 C1297 1.373 . S
C1299 C1283 1.377 . S
C1299 C1297 1.389 . S
C1299 C1300 1.524 . S
C1300 C1299 1.524 . S
C1300 C1301 1.397 . S
C1300 C1305 1.363 . S
C1301 H1272 0.950 . S
C1301 C1300 1.397 . S
C1301 C1302 1.334 . S
C1302 H1273 0.950 . S
C1302 C1301 1.334 . S
C1302 C1303 1.287 . S
C1303 C1302 1.287 . S
C1303 C1304 1.524 . S
C1303 H1306 0.999 . S
C1304 H1274 0.950 . S
C1304 C1303 1.524 . S
C1304 C1305 1.415 . S
C1305 H1275 0.950 . S
C1305 C1300 1.363 . S
C1305 C1304 1.415 . S
H1306 C1303 0.999 . S
H1307 C1288 0.913 . S
H1308 C1326 0.951 . S
H1309 C1328 0.951 . S
H1310 C1330 0.950 . S
H1311 C1331 0.950 . S
H1312 C1333 0.950 . S
H1313 C1336 0.950 . S
H1314 C1337 0.950 . S
H1315 C1339 0.950 . S
H1316 C1340 0.950 . S
H1317 C1341 0.951 . S
H1318 C1343 0.951 . S
H1319 C1345 0.950 . S
H1320 C1346 0.950 . S
H1321 C1348 0.950 . S
H1322 C1351 0.950 . S
H1323 C1352 0.950 . S
H1324 C1354 0.950 . S
H1325 C1355 0.950 . S
C1326 H1308 0.951 . S
C1326 C1327 1.366 . S
C1326 C1328 1.388 . S
C1327 C1326 1.366 . S
C1327 C1331 1.385 . S
C1328 H1309 0.951 . S
C1328 C1326 1.388 . S
C1328 C1329 1.366 . S
C1329 C1328 1.366 . S
C1329 C1330 1.414 . S
C1329 C1332 1.499 . S
C1330 H1310 0.950 . S
C1330 C1329 1.414 . S
C1330 C1331 1.374 . S
C1331 H1311 0.950 . S
C1331 C1327 1.385 . S
C1331 C1330 1.374 . S
C1332 C1329 1.499 . S
C1332 C1333 1.373 . S
C1332 C1334 1.389 . S
C1333 H1312 0.950 . S
C1333 C1332 1.373 . S
C1333 C1349 1.377 . S
C1334 C1332 1.389 . S
C1334 C1335 1.524 . S
C1334 C1348 1.377 . S
C1335 C1334 1.524 . S
C1335 C1336 1.397 . S
C1335 C1340 1.363 . S
C1336 H1313 0.950 . S
C1336 C1335 1.397 . S
C1336 C1337 1.334 . S
C1337 H1314 0.950 . S
C1337 C1336 1.334 . S
C1337 C1338 1.287 . S
C1338 C1337 1.287 . S
C1338 C1339 1.524 . S
C1338 H1357 0.913 . S
C1339 H1315 0.950 . S
C1339 C1338 1.524 . S
C1339 C1340 1.415 . S
C1340 H1316 0.950 . S
C1340 C1335 1.363 . S
C1340 C1339 1.415 . S
C1341 H1317 0.951 . S
C1341 C1342 1.366 . S
C1341 C1343 1.388 . S
C1342 C1341 1.366 . S
C1342 C1346 1.385 . S
C1343 H1318 0.951 . S
C1343 C1341 1.388 . S
C1343 C1344 1.366 . S
C1344 C1343 1.366 . S
C1344 C1345 1.414 . S
C1344 C1347 1.499 . S
C1345 H1319 0.950 . S
C1345 C1344 1.414 . S
C1345 C1346 1.374 . S
C1346 H1320 0.950 . S
C1346 C1342 1.385 . S
C1346 C1345 1.374 . S
C1347 C1344 1.499 . S
C1347 C1348 1.373 . S
C1347 C1349 1.389 . S
C1348 H1321 0.950 . S
C1348 C1334 1.377 . S
C1348 C1347 1.373 . S
C1349 C1333 1.377 . S
C1349 C1347 1.389 . S
C1349 C1350 1.524 . S
C1350 C1349 1.524 . S
C1350 C1351 1.397 . S
C1350 C1355 1.363 . S
C1351 H1322 0.950 . S
C1351 C1350 1.397 . S
C1351 C1352 1.334 . S
C1352 H1323 0.950 . S
C1352 C1351 1.334 . S
C1352 C1353 1.287 . S
C1353 C1352 1.287 . S
C1353 C1354 1.524 . S
C1353 H1356 0.999 . S
C1354 H1324 0.950 . S
C1354 C1353 1.524 . S
C1354 C1355 1.415 . S
C1355 H1325 0.950 . S
C1355 C1350 1.363 . S
C1355 C1354 1.415 . S
H1356 C1353 0.999 . S
H1357 C1338 0.913 . S
H1358 C1376 0.951 . S
H1359 C1378 0.951 . S
H1360 C1380 0.950 . S
H1361 C1381 0.950 . S
H1362 C1383 0.950 . S
H1363 C1386 0.950 . S
H1364 C1387 0.950 . S
H1365 C1389 0.950 . S
H1366 C1390 0.950 . S
H1367 C1391 0.951 . S
H1368 C1393 0.951 . S
H1369 C1395 0.950 . S
H1370 C1396 0.950 . S
H1371 C1398 0.950 . S
H1372 C1401 0.950 . S
H1373 C1402 0.950 . S
H1374 C1404 0.950 . S
H1375 C1405 0.950 . S
C1376 H1358 0.951 . S
C1376 C1377 1.366 . S
C1376 C1378 1.388 . S
C1377 C1376 1.366 . S
C1377 C1381 1.385 . S
C1378 H1359 0.951 . S
C1378 C1376 1.388 . S
C1378 C1379 1.366 . S
C1379 C1378 1.366 . S
C1379 C1380 1.414 . S
C1379 C1382 1.499 . S
C1380 H1360 0.950 . S
C1380 C1379 1.414 . S
C1380 C1381 1.374 . S
C1381 H1361 0.950 . S
C1381 C1377 1.385 . S
C1381 C1380 1.374 . S
C1382 C1379 1.499 . S
C1382 C1383 1.373 . S
C1382 C1384 1.389 . S
C1383 H1362 0.950 . S
C1383 C1382 1.373 . S
C1383 C1399 1.377 . S
C1384 C1382 1.389 . S
C1384 C1385 1.524 . S
C1384 C1398 1.377 . S
C1385 C1384 1.524 . S
C1385 C1386 1.397 . S
C1385 C1390 1.363 . S
C1386 H1363 0.950 . S
C1386 C1385 1.397 . S
C1386 C1387 1.334 . S
C1387 H1364 0.950 . S
C1387 C1386 1.334 . S
C1387 C1388 1.287 . S
C1388 C1387 1.287 . S
C1388 C1389 1.524 . S
C1388 H1407 0.913 . S
C1389 H1365 0.950 . S
C1389 C1388 1.524 . S
C1389 C1390 1.415 . S
C1390 H1366 0.950 . S
C1390 C1385 1.363 . S
C1390 C1389 1.415 . S
C1391 H1367 0.951 . S
C1391 C1392 1.366 . S
C1391 C1393 1.388 . S
C1392 C1391 1.366 . S
C1392 C1396 1.385 . S
C1393 H1368 0.951 . S
C1393 C1391 1.388 . S
C1393 C1394 1.366 . S
C1394 C1393 1.366 . S
C1394 C1395 1.414 . S
C1394 C1397 1.499 . S
C1395 H1369 0.950 . S
C1395 C1394 1.414 . S
C1395 C1396 1.374 . S
C1396 H1370 0.950 . S
C1396 C1392 1.385 . S
C1396 C1395 1.374 . S
C1397 C1394 1.499 . S
C1397 C1398 1.373 . S
C1397 C1399 1.389 . S
C1398 H1371 0.950 . S
C1398 C1384 1.377 . S
C1398 C1397 1.373 . S
C1399 C1383 1.377 . S
C1399 C1397 1.389 . S
C1399 C1400 1.524 . S
C1400 C1399 1.524 . S
C1400 C1401 1.397 . S
C1400 C1405 1.363 . S
C1401 H1372 0.950 . S
C1401 C1400 1.397 . S
C1401 C1402 1.334 . S
C1402 H1373 0.950 . S
C1402 C1401 1.334 . S
C1402 C1403 1.287 . S
C1403 C1402 1.287 . S
C1403 C1404 1.524 . S
C1403 H1406 0.999 . S
C1404 H1374 0.950 . S
C1404 C1403 1.524 . S
C1404 C1405 1.415 . S
C1405 H1375 0.950 . S
C1405 C1400 1.363 . S
C1405 C1404 1.415 . S
H1406 C1403 0.999 . S
H1407 C1388 0.913 . S
H1408 C1426 0.951 . S
H1409 C1428 0.951 . S
H1410 C1430 0.950 . S
H1411 C1431 0.950 . S
H1412 C1433 0.950 . S
H1413 C1436 0.950 . S
H1414 C1437 0.950 . S
H1415 C1439 0.950 . S
H1416 C1440 0.950 . S
H1417 C1441 0.951 . S
H1418 C1443 0.951 . S
H1419 C1445 0.950 . S
H1420 C1446 0.950 . S
H1421 C1448 0.950 . S
H1422 C1451 0.950 . S
H1423 C1452 0.950 . S
H1424 C1454 0.950 . S
H1425 C1455 0.950 . S
C1426 H1408 0.951 . S
C1426 C1427 1.366 . S
C1426 C1428 1.388 . S
C1427 C1426 1.366 . S
C1427 C1431 1.385 . S
C1428 H1409 0.951 . S
C1428 C1426 1.388 . S
C1428 C1429 1.366 . S
C1429 C1428 1.366 . S
C1429 C1430 1.414 . S
C1429 C1432 1.499 . S
C1430 H1410 0.950 . S
C1430 C1429 1.414 . S
C1430 C1431 1.374 . S
C1431 H1411 0.950 . S
C1431 C1427 1.385 . S
C1431 C1430 1.374 . S
C1432 C1429 1.499 . S
C1432 C1433 1.373 . S
C1432 C1434 1.389 . S
C1433 H1412 0.950 . S
C1433 C1432 1.373 . S
C1433 C1449 1.377 . S
C1434 C1432 1.389 . S
C1434 C1435 1.524 . S
C1434 C1448 1.377 . S
C1435 C1434 1.524 . S
C1435 C1436 1.397 . S
C1435 C1440 1.363 . S
C1436 H1413 0.950 . S
C1436 C1435 1.397 . S
C1436 C1437 1.334 . S
C1437 H1414 0.950 . S
C1437 C1436 1.334 . S
C1437 C1438 1.287 . S
C1438 C1437 1.287 . S
C1438 C1439 1.524 . S
C1438 H1457 0.913 . S
C1439 H1415 0.950 . S
C1439 C1438 1.524 . S
C1439 C1440 1.415 . S
C1440 H1416 0.950 . S
C1440 C1435 1.363 . S
C1440 C1439 1.415 . S
C1441 H1417 0.951 . S
C1441 C1442 1.366 . S
C1441 C1443 1.388 . S
C1442 C1441 1.366 . S
C1442 C1446 1.385 . S
C1443 H1418 0.951 . S
C1443 C1441 1.388 . S
C1443 C1444 1.366 . S
C1444 C1443 1.366 . S
C1444 C1445 1.414 . S
C1444 C1447 1.499 . S
C1445 H1419 0.950 . S
C1445 C1444 1.414 . S
C1445 C1446 1.374 . S
C1446 H1420 0.950 . S
C1446 C1442 1.385 . S
C1446 C1445 1.374 . S
C1447 C1444 1.499 . S
C1447 C1448 1.373 . S
C1447 C1449 1.389 . S
C1448 H1421 0.950 . S
C1448 C1434 1.377 . S
C1448 C1447 1.373 . S
C1449 C1433 1.377 . S
C1449 C1447 1.389 . S
C1449 C1450 1.524 . S
C1450 C1449 1.524 . S
C1450 C1451 1.397 . S
C1450 C1455 1.363 . S
C1451 H1422 0.950 . S
C1451 C1450 1.397 . S
C1451 C1452 1.334 . S
C1452 H1423 0.950 . S
C1452 C1451 1.334 . S
C1452 C1453 1.287 . S
C1453 C1452 1.287 . S
C1453 C1454 1.524 . S
C1453 H1456 0.999 . S
C1454 H1424 0.950 . S
C1454 C1453 1.524 . S
C1454 C1455 1.415 . S
C1455 H1425 0.950 . S
C1455 C1450 1.363 . S
C1455 C1454 1.415 . S
H1456 C1453 0.999 . S
H1457 C1438 0.913 . S
H1458 C1476 0.951 . S
H1459 C1478 0.951 . S
H1460 C1480 0.950 . S
H1461 C1481 0.950 . S
H1462 C1483 0.950 . S
H1463 C1486 0.950 . S
H1464 C1487 0.950 . S
H1465 C1489 0.950 . S
H1466 C1490 0.950 . S
H1467 C1491 0.951 . S
H1468 C1493 0.951 . S
H1469 C1495 0.950 . S
H1470 C1496 0.950 . S
H1471 C1498 0.950 . S
H1472 C1501 0.950 . S
H1473 C1502 0.950 . S
H1474 C1504 0.950 . S
H1475 C1505 0.950 . S
C1476 H1458 0.951 . S
C1476 C1477 1.366 . S
C1476 C1478 1.388 . S
C1477 C1476 1.366 . S
C1477 C1481 1.385 . S
C1478 H1459 0.951 . S
C1478 C1476 1.388 . S
C1478 C1479 1.366 . S
C1479 C1478 1.366 . S
C1479 C1480 1.414 . S
C1479 C1482 1.499 . S
C1480 H1460 0.950 . S
C1480 C1479 1.414 . S
C1480 C1481 1.374 . S
C1481 H1461 0.950 . S
C1481 C1477 1.385 . S
C1481 C1480 1.374 . S
C1482 C1479 1.499 . S
C1482 C1483 1.373 . S
C1482 C1484 1.389 . S
C1483 H1462 0.950 . S
C1483 C1482 1.373 . S
C1483 C1499 1.377 . S
C1484 C1482 1.389 . S
C1484 C1485 1.524 . S
C1484 C1498 1.377 . S
C1485 C1484 1.524 . S
C1485 C1486 1.397 . S
C1485 C1490 1.363 . S
C1486 H1463 0.950 . S
C1486 C1485 1.397 . S
C1486 C1487 1.334 . S
C1487 H1464 0.950 . S
C1487 C1486 1.334 . S
C1487 C1488 1.287 . S
C1488 C1487 1.287 . S
C1488 C1489 1.524 . S
C1488 H1507 0.913 . S
C1489 H1465 0.950 . S
C1489 C1488 1.524 . S
C1489 C1490 1.415 . S
C1490 H1466 0.950 . S
C1490 C1485 1.363 . S
C1490 C1489 1.415 . S
C1491 H1467 0.951 . S
C1491 C1492 1.366 . S
C1491 C1493 1.388 . S
C1492 C1491 1.366 . S
C1492 C1496 1.385 . S
C1493 H1468 0.951 . S
C1493 C1491 1.388 . S
C1493 C1494 1.366 . S
C1494 C1493 1.366 . S
C1494 C1495 1.414 . S
C1494 C1497 1.499 . S
C1495 H1469 0.950 . S
C1495 C1494 1.414 . S
C1495 C1496 1.374 . S
C1496 H1470 0.950 . S
C1496 C1492 1.385 . S
C1496 C1495 1.374 . S
C1497 C1494 1.499 . S
C1497 C1498 1.373 . S
C1497 C1499 1.389 . S
C1498 H1471 0.950 . S
C1498 C1484 1.377 . S
C1498 C1497 1.373 . S
C1499 C1483 1.377 . S
C1499 C1497 1.389 . S
C1499 C1500 1.524 . S
C1500 C1499 1.524 . S
C1500 C1501 1.397 . S
C1500 C1505 1.363 . S
C1501 H1472 0.950 . S
C1501 C1500 1.397 . S
C1501 C1502 1.334 . S
C1502 H1473 0.950 . S
C1502 C1501 1.334 . S
C1502 C1503 1.287 . S
C1503 C1502 1.287 . S
C1503 C1504 1.524 . S
C1503 H1506 0.999 . S
C1504 H1474 0.950 . S
C1504 C1503 1.524 . S
C1504 C1505 1.415 . S
C1505 H1475 0.950 . S
C1505 C1500 1.363 . S
C1505 C1504 1.415 . S
H1506 C1503 0.999 . S
H1507 C1488 0.913 . S
H1508 C1526 0.951 . S
H1509 C1528 0.951 . S
H1510 C1530 0.950 . S
H1511 C1531 0.950 . S
H1512 C1533 0.950 . S
H1513 C1536 0.950 . S
H1514 C1537 0.950 . S
H1515 C1539 0.950 . S
H1516 C1540 0.950 . S
H1517 C1541 0.951 . S
H1518 C1543 0.951 . S
H1519 C1545 0.950 . S
H1520 C1546 0.950 . S
H1521 C1548 0.950 . S
H1522 C1551 0.950 . S
H1523 C1552 0.950 . S
H1524 C1554 0.950 . S
H1525 C1555 0.950 . S
C1526 H1508 0.951 . S
C1526 C1527 1.366 . S
C1526 C1528 1.388 . S
C1527 C1526 1.366 . S
C1527 C1531 1.385 . S
C1528 H1509 0.951 . S
C1528 C1526 1.388 . S
C1528 C1529 1.366 . S
C1529 C1528 1.366 . S
C1529 C1530 1.414 . S
C1529 C1532 1.499 . S
C1530 H1510 0.950 . S
C1530 C1529 1.414 . S
C1530 C1531 1.374 . S
C1531 H1511 0.950 . S
C1531 C1527 1.385 . S
C1531 C1530 1.374 . S
C1532 C1529 1.499 . S
C1532 C1533 1.373 . S
C1532 C1534 1.389 . S
C1533 H1512 0.950 . S
C1533 C1532 1.373 . S
C1533 C1549 1.377 . S
C1534 C1532 1.389 . S
C1534 C1535 1.524 . S
C1534 C1548 1.377 . S
C1535 C1534 1.524 . S
C1535 C1536 1.397 . S
C1535 C1540 1.363 . S
C1536 H1513 0.950 . S
C1536 C1535 1.397 . S
C1536 C1537 1.334 . S
C1537 H1514 0.950 . S
C1537 C1536 1.334 . S
C1537 C1538 1.287 . S
C1538 C1537 1.287 . S
C1538 C1539 1.524 . S
C1538 H1557 0.913 . S
C1539 H1515 0.950 . S
C1539 C1538 1.524 . S
C1539 C1540 1.415 . S
C1540 H1516 0.950 . S
C1540 C1535 1.363 . S
C1540 C1539 1.415 . S
C1541 H1517 0.951 . S
C1541 C1542 1.366 . S
C1541 C1543 1.388 . S
C1542 C1541 1.366 . S
C1542 C1546 1.385 . S
C1543 H1518 0.951 . S
C1543 C1541 1.388 . S
C1543 C1544 1.366 . S
C1544 C1543 1.366 . S
C1544 C1545 1.414 . S
C1544 C1547 1.499 . S
C1545 H1519 0.950 . S
C1545 C1544 1.414 . S
C1545 C1546 1.374 . S
C1546 H1520 0.950 . S
C1546 C1542 1.385 . S
C1546 C1545 1.374 . S
C1547 C1544 1.499 . S
C1547 C1548 1.373 . S
C1547 C1549 1.389 . S
C1548 H1521 0.950 . S
C1548 C1534 1.377 . S
C1548 C1547 1.373 . S
C1549 C1533 1.377 . S
C1549 C1547 1.389 . S
C1549 C1550 1.524 . S
C1550 C1549 1.524 . S
C1550 C1551 1.397 . S
C1550 C1555 1.363 . S
C1551 H1522 0.950 . S
C1551 C1550 1.397 . S
C1551 C1552 1.334 . S
C1552 H1523 0.950 . S
C1552 C1551 1.334 . S
C1552 C1553 1.287 . S
C1553 C1552 1.287 . S
C1553 C1554 1.524 . S
C1553 H1556 0.999 . S
C1554 H1524 0.950 . S
C1554 C1553 1.524 . S
C1554 C1555 1.415 . S
C1555 H1525 0.950 . S
C1555 C1550 1.363 . S
C1555 C1554 1.415 . S
H1556 C1553 0.999 . S
H1557 C1538 0.913 . S
H1558 C1576 0.951 . S
H1559 C1578 0.951 . S
H1560 C1580 0.950 . S
H1561 C1581 0.950 . S
H1562 C1583 0.950 . S
H1563 C1586 0.950 . S
H1564 C1587 0.950 1_554 S
H1565 C1589 0.950 . S
H1566 C1590 0.950 . S
H1567 C1591 0.951 . S
H1568 C1593 0.951 . S
H1569 C1595 0.950 . S
H1570 C1596 0.950 . S
H1571 C1598 0.950 . S
H1572 C1601 0.950 . S
H1573 C1602 0.950 . S
H1574 C1604 0.950 . S
H1575 C1605 0.950 . S
C1576 H1558 0.951 . S
C1576 C1577 1.366 . S
C1576 C1578 1.388 . S
C1577 C1576 1.366 . S
C1577 C1581 1.385 . S
C1578 H1559 0.951 . S
C1578 C1576 1.388 . S
C1578 C1579 1.366 . S
C1579 C1578 1.366 . S
C1579 C1580 1.414 . S
C1579 C1582 1.499 . S
C1580 H1560 0.950 . S
C1580 C1579 1.414 . S
C1580 C1581 1.374 . S
C1581 H1561 0.950 . S
C1581 C1577 1.385 . S
C1581 C1580 1.374 . S
C1582 C1579 1.499 . S
C1582 C1583 1.373 . S
C1582 C1584 1.389 . S
C1583 H1562 0.950 . S
C1583 C1582 1.373 . S
C1583 C1599 1.377 . S
C1584 C1582 1.389 . S
C1584 C1585 1.524 . S
C1584 C1598 1.377 . S
C1585 C1584 1.524 . S
C1585 C1586 1.397 . S
C1585 C1590 1.363 . S
C1586 H1563 0.950 . S
C1586 C1585 1.397 . S
C1586 C1587 1.334 . S
C1587 H1564 0.950 1_556 S
C1587 C1586 1.334 . S
C1587 C1588 1.287 . S
C1588 C1587 1.287 . S
C1588 C1589 1.524 . S
C1588 H1607 0.913 . S
C1589 H1565 0.950 . S
C1589 C1588 1.524 . S
C1589 C1590 1.415 . S
C1590 H1566 0.950 . S
C1590 C1585 1.363 . S
C1590 C1589 1.415 . S
C1591 H1567 0.951 . S
C1591 C1592 1.366 . S
C1591 C1593 1.388 . S
C1592 C1591 1.366 . S
C1592 C1596 1.385 . S
C1593 H1568 0.951 . S
C1593 C1591 1.388 . S
C1593 C1594 1.366 . S
C1594 C1593 1.366 . S
C1594 C1595 1.414 . S
C1594 C1597 1.499 . S
C1595 H1569 0.950 . S
C1595 C1594 1.414 . S
C1595 C1596 1.374 . S
C1596 H1570 0.950 . S
C1596 C1592 1.385 . S
C1596 C1595 1.374 . S
C1597 C1594 1.499 . S
C1597 C1598 1.373 . S
C1597 C1599 1.389 . S
C1598 H1571 0.950 . S
C1598 C1584 1.377 . S
C1598 C1597 1.373 . S
C1599 C1583 1.377 . S
C1599 C1597 1.389 . S
C1599 C1600 1.524 . S
C1600 C1599 1.524 . S
C1600 C1601 1.397 . S
C1600 C1605 1.363 . S
C1601 H1572 0.950 . S
C1601 C1600 1.397 . S
C1601 C1602 1.334 . S
C1602 H1573 0.950 . S
C1602 C1601 1.334 . S
C1602 C1603 1.287 . S
C1603 C1602 1.287 . S
C1603 C1604 1.524 . S
C1603 H1606 0.999 . S
C1604 H1574 0.950 . S
C1604 C1603 1.524 . S
C1604 C1605 1.415 . S
C1605 H1575 0.950 . S
C1605 C1600 1.363 . S
C1605 C1604 1.415 . S
H1606 C1603 0.999 . S
H1607 C1588 0.913 . S
H1608 C1626 0.951 1_554 S
H1609 C1628 0.951 1_554 S
H1610 C1630 0.950 . S
H1611 C1631 0.950 . S
H1612 C1633 0.950 . S
H1613 C1636 0.950 . S
H1614 C1637 0.950 . S
H1615 C1639 0.950 1_554 S
H1616 C1640 0.950 . S
H1617 C1641 0.951 1_556 S
H1618 C1643 0.951 1_556 S
H1619 C1645 0.950 . S
H1620 C1646 0.950 . S
H1621 C1648 0.950 . S
H1622 C1651 0.950 . S
H1623 C1652 0.950 . S
H1624 C1654 0.950 1_556 S
H1625 C1655 0.950 . S
C1626 H1608 0.951 1_556 S
C1626 C1627 1.366 . S
C1626 C1628 1.388 . S
C1627 C1626 1.366 . S
C1627 C1631 1.385 . S
C1628 H1609 0.951 1_556 S
C1628 C1626 1.388 . S
C1628 C1629 1.366 . S
C1629 C1628 1.366 . S
C1629 C1630 1.414 . S
C1629 C1632 1.499 . S
C1630 H1610 0.950 . S
C1630 C1629 1.414 . S
C1630 C1631 1.374 . S
C1631 H1611 0.950 . S
C1631 C1627 1.385 . S
C1631 C1630 1.374 . S
C1632 C1629 1.499 . S
C1632 C1633 1.373 . S
C1632 C1634 1.389 . S
C1633 H1612 0.950 . S
C1633 C1632 1.373 . S
C1633 C1649 1.377 1_556 S
C1634 C1632 1.389 . S
C1634 C1635 1.524 . S
C1634 C1648 1.377 1_556 S
C1635 C1634 1.524 . S
C1635 C1636 1.397 . S
C1635 C1640 1.363 1_556 S
C1636 H1613 0.950 . S
C1636 C1635 1.397 . S
C1636 C1637 1.334 . S
C1637 H1614 0.950 . S
C1637 C1636 1.334 . S
C1637 C1638 1.287 . S
C1638 C1637 1.287 . S
C1638 C1639 1.524 . S
C1638 H1657 0.913 . S
C1639 H1615 0.950 1_556 S
C1639 C1638 1.524 . S
C1639 C1640 1.415 1_556 S
C1640 H1616 0.950 . S
C1640 C1635 1.363 1_554 S
C1640 C1639 1.415 1_554 S
C1641 H1617 0.951 1_554 S
C1641 C1642 1.366 . S
C1641 C1643 1.388 . S
C1642 C1641 1.366 . S
C1642 C1646 1.385 . S
C1643 H1618 0.951 1_554 S
C1643 C1641 1.388 . S
C1643 C1644 1.366 . S
C1644 C1643 1.366 . S
C1644 C1645 1.414 . S
C1644 C1647 1.499 . S
C1645 H1619 0.950 . S
C1645 C1644 1.414 . S
C1645 C1646 1.374 . S
C1646 H1620 0.950 . S
C1646 C1642 1.385 . S
C1646 C1645 1.374 . S
C1647 C1644 1.499 . S
C1647 C1648 1.373 . S
C1647 C1649 1.389 . S
C1648 H1621 0.950 . S
C1648 C1634 1.377 1_554 S
C1648 C1647 1.373 . S
C1649 C1633 1.377 1_554 S
C1649 C1647 1.389 . S
C1649 C1650 1.524 . S
C1650 C1649 1.524 . S
C1650 C1651 1.397 . S
C1650 C1655 1.363 1_554 S
C1651 H1622 0.950 . S
C1651 C1650 1.397 . S
C1651 C1652 1.334 . S
C1652 H1623 0.950 . S
C1652 C1651 1.334 . S
C1652 C1653 1.287 . S
C1653 C1652 1.287 . S
C1653 C1654 1.524 . S
C1653 H1656 0.999 . S
C1654 H1624 0.950 1_554 S
C1654 C1653 1.524 . S
C1654 C1655 1.415 1_554 S
C1655 H1625 0.950 . S
C1655 C1650 1.363 1_556 S
C1655 C1654 1.415 1_556 S
H1656 C1653 0.999 . S
H1657 C1638 0.913 . S
H1658 C1676 0.951 . S
H1659 C1678 0.951 . S
H1660 C1680 0.950 . S
H1661 C1681 0.950 . S
H1662 C1683 0.950 . S
H1663 C1686 0.950 . S
H1664 C1687 0.950 . S
H1665 C1689 0.950 . S
H1666 C1690 0.950 . S
H1667 C1691 0.951 . S
H1668 C1693 0.951 . S
H1669 C1695 0.950 . S
H1670 C1696 0.950 . S
H1671 C1698 0.950 . S
H1672 C1701 0.950 . S
H1673 C1702 0.950 . S
H1674 C1704 0.950 . S
H1675 C1705 0.950 . S
C1676 H1658 0.951 . S
C1676 C1677 1.366 . S
C1676 C1678 1.388 . S
C1677 C1676 1.366 . S
C1677 C1681 1.385 . S
C1678 H1659 0.951 . S
C1678 C1676 1.388 . S
C1678 C1679 1.366 . S
C1679 C1678 1.366 . S
C1679 C1680 1.414 . S
C1679 C1682 1.499 . S
C1680 H1660 0.950 . S
C1680 C1679 1.414 . S
C1680 C1681 1.374 . S
C1681 H1661 0.950 . S
C1681 C1677 1.385 . S
C1681 C1680 1.374 . S
C1682 C1679 1.499 . S
C1682 C1683 1.373 . S
C1682 C1684 1.389 . S
C1683 H1662 0.950 . S
C1683 C1682 1.373 . S
C1683 C1699 1.377 . S
C1684 C1682 1.389 . S
C1684 C1685 1.524 . S
C1684 C1698 1.377 . S
C1685 C1684 1.524 . S
C1685 C1686 1.397 . S
C1685 C1690 1.363 . S
C1686 H1663 0.950 . S
C1686 C1685 1.397 . S
C1686 C1687 1.334 . S
C1687 H1664 0.950 . S
C1687 C1686 1.334 . S
C1687 C1688 1.287 . S
C1688 C1687 1.287 . S
C1688 C1689 1.524 . S
C1688 H1707 0.913 . S
C1689 H1665 0.950 . S
C1689 C1688 1.524 . S
C1689 C1690 1.415 . S
C1690 H1666 0.950 . S
C1690 C1685 1.363 . S
C1690 C1689 1.415 . S
C1691 H1667 0.951 . S
C1691 C1692 1.366 . S
C1691 C1693 1.388 . S
C1692 C1691 1.366 . S
C1692 C1696 1.385 . S
C1693 H1668 0.951 . S
C1693 C1691 1.388 . S
C1693 C1694 1.366 . S
C1694 C1693 1.366 . S
C1694 C1695 1.414 . S
C1694 C1697 1.499 . S
C1695 H1669 0.950 . S
C1695 C1694 1.414 . S
C1695 C1696 1.374 . S
C1696 H1670 0.950 . S
C1696 C1692 1.385 . S
C1696 C1695 1.374 . S
C1697 C1694 1.499 . S
C1697 C1698 1.373 . S
C1697 C1699 1.389 . S
C1698 H1671 0.950 . S
C1698 C1684 1.377 . S
C1698 C1697 1.373 . S
C1699 C1683 1.377 . S
C1699 C1697 1.389 . S
C1699 C1700 1.524 . S
C1700 C1699 1.524 . S
C1700 C1701 1.397 . S
C1700 C1705 1.363 . S
C1701 H1672 0.950 . S
C1701 C1700 1.397 . S
C1701 C1702 1.334 . S
C1702 H1673 0.950 . S
C1702 C1701 1.334 . S
C1702 C1703 1.287 . S
C1703 C1702 1.287 . S
C1703 C1704 1.524 . S
C1703 H1706 0.999 . S
C1704 H1674 0.950 . S
C1704 C1703 1.524 . S
C1704 C1705 1.415 . S
C1705 H1675 0.950 . S
C1705 C1700 1.363 . S
C1705 C1704 1.415 . S
H1706 C1703 0.999 . S
H1707 C1688 0.913 . S
H1708 C1726 0.951 . S
H1709 C1728 0.951 . S
H1710 C1730 0.950 . S
H1711 C1731 0.950 . S
H1712 C1733 0.950 . S
H1713 C1736 0.950 . S
H1714 C1737 0.950 . S
H1715 C1739 0.950 . S
H1716 C1740 0.950 . S
H1717 C1741 0.951 . S
H1718 C1743 0.951 . S
H1719 C1745 0.950 . S
H1720 C1746 0.950 . S
H1721 C1748 0.950 . S
H1722 C1751 0.950 . S
H1723 C1752 0.950 . S
H1724 C1754 0.950 . S
H1725 C1755 0.950 . S
C1726 H1708 0.951 . S
C1726 C1727 1.366 . S
C1726 C1728 1.388 . S
C1727 C1726 1.366 . S
C1727 C1731 1.385 . S
C1728 H1709 0.951 . S
C1728 C1726 1.388 . S
C1728 C1729 1.366 . S
C1729 C1728 1.366 . S
C1729 C1730 1.414 . S
C1729 C1732 1.499 . S
C1730 H1710 0.950 . S
C1730 C1729 1.414 . S
C1730 C1731 1.374 . S
C1731 H1711 0.950 . S
C1731 C1727 1.385 . S
C1731 C1730 1.374 . S
C1732 C1729 1.499 . S
C1732 C1733 1.373 . S
C1732 C1734 1.389 . S
C1733 H1712 0.950 . S
C1733 C1732 1.373 . S
C1733 C1749 1.377 . S
C1734 C1732 1.389 . S
C1734 C1735 1.524 . S
C1734 C1748 1.377 . S
C1735 C1734 1.524 . S
C1735 C1736 1.397 . S
C1735 C1740 1.363 . S
C1736 H1713 0.950 . S
C1736 C1735 1.397 . S
C1736 C1737 1.334 . S
C1737 H1714 0.950 . S
C1737 C1736 1.334 . S
C1737 C1738 1.287 . S
C1738 C1737 1.287 . S
C1738 C1739 1.524 . S
C1738 H1757 0.913 . S
C1739 H1715 0.950 . S
C1739 C1738 1.524 . S
C1739 C1740 1.415 . S
C1740 H1716 0.950 . S
C1740 C1735 1.363 . S
C1740 C1739 1.415 . S
C1741 H1717 0.951 . S
C1741 C1742 1.366 . S
C1741 C1743 1.388 . S
C1742 C1741 1.366 . S
C1742 C1746 1.385 . S
C1743 H1718 0.951 . S
C1743 C1741 1.388 . S
C1743 C1744 1.366 . S
C1744 C1743 1.366 . S
C1744 C1745 1.414 . S
C1744 C1747 1.499 . S
C1745 H1719 0.950 . S
C1745 C1744 1.414 . S
C1745 C1746 1.374 . S
C1746 H1720 0.950 . S
C1746 C1742 1.385 . S
C1746 C1745 1.374 . S
C1747 C1744 1.499 . S
C1747 C1748 1.373 . S
C1747 C1749 1.389 . S
C1748 H1721 0.950 . S
C1748 C1734 1.377 . S
C1748 C1747 1.373 . S
C1749 C1733 1.377 . S
C1749 C1747 1.389 . S
C1749 C1750 1.524 . S
C1750 C1749 1.524 . S
C1750 C1751 1.397 . S
C1750 C1755 1.363 . S
C1751 H1722 0.950 . S
C1751 C1750 1.397 . S
C1751 C1752 1.334 . S
C1752 H1723 0.950 . S
C1752 C1751 1.334 . S
C1752 C1753 1.287 . S
C1753 C1752 1.287 . S
C1753 C1754 1.524 . S
C1753 H1756 0.999 . S
C1754 H1724 0.950 . S
C1754 C1753 1.524 . S
C1754 C1755 1.415 . S
C1755 H1725 0.950 . S
C1755 C1750 1.363 . S
C1755 C1754 1.415 . S
H1756 C1753 0.999 . S
H1757 C1738 0.913 . S
H1758 C1776 0.951 . S
H1759 C1778 0.951 . S
H1760 C1780 0.950 1_556 S
H1761 C1781 0.950 1_556 S
H1762 C1783 0.950 . S
H1763 C1786 0.950 . S
H1764 C1787 0.950 . S
H1765 C1789 0.950 . S
H1766 C1790 0.950 . S
H1767 C1791 0.951 . S
H1768 C1793 0.951 . S
H1769 C1795 0.950 1_554 S
H1770 C1796 0.950 1_554 S
H1771 C1798 0.950 . S
H1772 C1801 0.950 . S
H1773 C1802 0.950 . S
H1774 C1804 0.950 . S
H1775 C1805 0.950 . S
C1776 H1758 0.951 . S
C1776 C1777 1.366 . S
C1776 C1778 1.388 . S
C1777 C1776 1.366 . S
C1777 C1781 1.385 . S
C1778 H1759 0.951 . S
C1778 C1776 1.388 . S
C1778 C1779 1.366 . S
C1779 C1778 1.366 . S
C1779 C1780 1.414 . S
C1779 C1782 1.499 . S
C1780 H1760 0.950 1_554 S
C1780 C1779 1.414 . S
C1780 C1781 1.374 . S
C1781 H1761 0.950 1_554 S
C1781 C1777 1.385 . S
C1781 C1780 1.374 . S
C1782 C1779 1.499 . S
C1782 C1783 1.373 1_554 S
C1782 C1784 1.389 . S
C1783 H1762 0.950 . S
C1783 C1782 1.373 1_556 S
C1783 C1799 1.377 . S
C1784 C1782 1.389 . S
C1784 C1785 1.524 . S
C1784 C1798 1.377 . S
C1785 C1784 1.524 . S
C1785 C1786 1.397 . S
C1785 C1790 1.363 . S
C1786 H1763 0.950 . S
C1786 C1785 1.397 . S
C1786 C1787 1.334 . S
C1787 H1764 0.950 . S
C1787 C1786 1.334 . S
C1787 C1788 1.287 . S
C1788 C1787 1.287 . S
C1788 C1789 1.524 . S
C1788 H1807 0.913 . S
C1789 H1765 0.950 . S
C1789 C1788 1.524 . S
C1789 C1790 1.415 . S
C1790 H1766 0.950 . S
C1790 C1785 1.363 . S
C1790 C1789 1.415 . S
C1791 H1767 0.951 . S
C1791 C1792 1.366 . S
C1791 C1793 1.388 . S
C1792 C1791 1.366 . S
C1792 C1796 1.385 . S
C1793 H1768 0.951 . S
C1793 C1791 1.388 . S
C1793 C1794 1.366 . S
C1794 C1793 1.366 . S
C1794 C1795 1.414 . S
C1794 C1797 1.499 . S
C1795 H1769 0.950 1_556 S
C1795 C1794 1.414 . S
C1795 C1796 1.374 . S
C1796 H1770 0.950 1_556 S
C1796 C1792 1.385 . S
C1796 C1795 1.374 . S
C1797 C1794 1.499 . S
C1797 C1798 1.373 1_556 S
C1797 C1799 1.389 . S
C1798 H1771 0.950 . S
C1798 C1784 1.377 . S
C1798 C1797 1.373 1_554 S
C1799 C1783 1.377 . S
C1799 C1797 1.389 . S
C1799 C1800 1.524 . S
C1800 C1799 1.524 . S
C1800 C1801 1.397 . S
C1800 C1805 1.363 . S
C1801 H1772 0.950 . S
C1801 C1800 1.397 . S
C1801 C1802 1.334 . S
C1802 H1773 0.950 . S
C1802 C1801 1.334 . S
C1802 C1803 1.287 . S
C1803 C1802 1.287 . S
C1803 C1804 1.524 . S
C1803 H1806 0.999 . S
C1804 H1774 0.950 . S
C1804 C1803 1.524 . S
C1804 C1805 1.415 . S
C1805 H1775 0.950 . S
C1805 C1800 1.363 . S
C1805 C1804 1.415 . S
H1806 C1803 0.999 . S
H1807 C1788 0.913 . S
H1808 C1826 0.951 . S
H1809 C1828 0.951 . S
H1810 C1830 0.950 . S
H1811 C1831 0.950 . S
H1812 C1833 0.950 . S
H1813 C1836 0.950 . S
H1814 C1837 0.950 . S
H1815 C1839 0.950 . S
H1816 C1840 0.950 . S
H1817 C1841 0.951 . S
H1818 C1843 0.951 . S
H1819 C1845 0.950 . S
H1820 C1846 0.950 . S
H1821 C1848 0.950 . S
H1822 C1851 0.950 . S
H1823 C1852 0.950 . S
H1824 C1854 0.950 . S
H1825 C1855 0.950 . S
C1826 H1808 0.951 . S
C1826 C1827 1.366 . S
C1826 C1828 1.388 . S
C1827 C1826 1.366 . S
C1827 C1831 1.385 . S
C1828 H1809 0.951 . S
C1828 C1826 1.388 . S
C1828 C1829 1.366 . S
C1829 C1828 1.366 . S
C1829 C1830 1.414 . S
C1829 C1832 1.499 . S
C1830 H1810 0.950 . S
C1830 C1829 1.414 . S
C1830 C1831 1.374 . S
C1831 H1811 0.950 . S
C1831 C1827 1.385 . S
C1831 C1830 1.374 . S
C1832 C1829 1.499 . S
C1832 C1833 1.373 . S
C1832 C1834 1.389 . S
C1833 H1812 0.950 . S
C1833 C1832 1.373 . S
C1833 C1849 1.377 . S
C1834 C1832 1.389 . S
C1834 C1835 1.524 . S
C1834 C1848 1.377 . S
C1835 C1834 1.524 . S
C1835 C1836 1.397 . S
C1835 C1840 1.363 . S
C1836 H1813 0.950 . S
C1836 C1835 1.397 . S
C1836 C1837 1.334 . S
C1837 H1814 0.950 . S
C1837 C1836 1.334 . S
C1837 C1838 1.287 . S
C1838 C1837 1.287 . S
C1838 C1839 1.524 . S
C1838 H1857 0.913 . S
C1839 H1815 0.950 . S
C1839 C1838 1.524 . S
C1839 C1840 1.415 . S
C1840 H1816 0.950 . S
C1840 C1835 1.363 . S
C1840 C1839 1.415 . S
C1841 H1817 0.951 . S
C1841 C1842 1.366 . S
C1841 C1843 1.388 . S
C1842 C1841 1.366 . S
C1842 C1846 1.385 . S
C1843 H1818 0.951 . S
C1843 C1841 1.388 . S
C1843 C1844 1.366 . S
C1844 C1843 1.366 . S
C1844 C1845 1.414 . S
C1844 C1847 1.499 . S
C1845 H1819 0.950 . S
C1845 C1844 1.414 . S
C1845 C1846 1.374 . S
C1846 H1820 0.950 . S
C1846 C1842 1.385 . S
C1846 C1845 1.374 . S
C1847 C1844 1.499 . S
C1847 C1848 1.373 . S
C1847 C1849 1.389 . S
C1848 H1821 0.950 . S
C1848 C1834 1.377 . S
C1848 C1847 1.373 . S
C1849 C1833 1.377 . S
C1849 C1847 1.389 . S
C1849 C1850 1.524 . S
C1850 C1849 1.524 . S
C1850 C1851 1.397 . S
C1850 C1855 1.363 . S
C1851 H1822 0.950 . S
C1851 C1850 1.397 . S
C1851 C1852 1.334 . S
C1852 H1823 0.950 . S
C1852 C1851 1.334 . S
C1852 C1853 1.287 . S
C1853 C1852 1.287 . S
C1853 C1854 1.524 . S
C1853 H1856 0.999 . S
C1854 H1824 0.950 . S
C1854 C1853 1.524 . S
C1854 C1855 1.415 . S
C1855 H1825 0.950 . S
C1855 C1850 1.363 . S
C1855 C1854 1.415 . S
H1856 C1853 0.999 . S
H1857 C1838 0.913 . S
H1858 C1876 0.951 . S
H1859 C1878 0.951 . S
H1860 C1880 0.950 . S
H1861 C1881 0.950 . S
H1862 C1883 0.950 . S
H1863 C1886 0.950 . S
H1864 C1887 0.950 . S
H1865 C1889 0.950 . S
H1866 C1890 0.950 . S
H1867 C1891 0.951 . S
H1868 C1893 0.951 . S
H1869 C1895 0.950 . S
H1870 C1896 0.950 . S
H1871 C1898 0.950 . S
H1872 C1901 0.950 . S
H1873 C1902 0.950 . S
H1874 C1904 0.950 . S
H1875 C1905 0.950 . S
C1876 H1858 0.951 . S
C1876 C1877 1.366 . S
C1876 C1878 1.388 . S
C1877 C1876 1.366 . S
C1877 C1881 1.385 . S
C1878 H1859 0.951 . S
C1878 C1876 1.388 . S
C1878 C1879 1.366 . S
C1879 C1878 1.366 . S
C1879 C1880 1.414 . S
C1879 C1882 1.499 . S
C1880 H1860 0.950 . S
C1880 C1879 1.414 . S
C1880 C1881 1.374 . S
C1881 H1861 0.950 . S
C1881 C1877 1.385 . S
C1881 C1880 1.374 . S
C1882 C1879 1.499 . S
C1882 C1883 1.373 . S
C1882 C1884 1.389 . S
C1883 H1862 0.950 . S
C1883 C1882 1.373 . S
C1883 C1899 1.377 . S
C1884 C1882 1.389 . S
C1884 C1885 1.524 . S
C1884 C1898 1.377 . S
C1885 C1884 1.524 . S
C1885 C1886 1.397 . S
C1885 C1890 1.363 . S
C1886 H1863 0.950 . S
C1886 C1885 1.397 . S
C1886 C1887 1.334 . S
C1887 H1864 0.950 . S
C1887 C1886 1.334 . S
C1887 C1888 1.287 . S
C1888 C1887 1.287 . S
C1888 C1889 1.524 . S
C1888 H1907 0.913 . S
C1889 H1865 0.950 . S
C1889 C1888 1.524 . S
C1889 C1890 1.415 . S
C1890 H1866 0.950 . S
C1890 C1885 1.363 . S
C1890 C1889 1.415 . S
C1891 H1867 0.951 . S
C1891 C1892 1.366 . S
C1891 C1893 1.388 . S
C1892 C1891 1.366 . S
C1892 C1896 1.385 . S
C1893 H1868 0.951 . S
C1893 C1891 1.388 . S
C1893 C1894 1.366 . S
C1894 C1893 1.366 . S
C1894 C1895 1.414 . S
C1894 C1897 1.499 . S
C1895 H1869 0.950 . S
C1895 C1894 1.414 . S
C1895 C1896 1.374 . S
C1896 H1870 0.950 . S
C1896 C1892 1.385 . S
C1896 C1895 1.374 . S
C1897 C1894 1.499 . S
C1897 C1898 1.373 . S
C1897 C1899 1.389 . S
C1898 H1871 0.950 . S
C1898 C1884 1.377 . S
C1898 C1897 1.373 . S
C1899 C1883 1.377 . S
C1899 C1897 1.389 . S
C1899 C1900 1.524 . S
C1900 C1899 1.524 . S
C1900 C1901 1.397 . S
C1900 C1905 1.363 . S
C1901 H1872 0.950 . S
C1901 C1900 1.397 . S
C1901 C1902 1.334 . S
C1902 H1873 0.950 . S
C1902 C1901 1.334 . S
C1902 C1903 1.287 . S
C1903 C1902 1.287 . S
C1903 C1904 1.524 . S
C1903 H1906 0.999 . S
C1904 H1874 0.950 . S
C1904 C1903 1.524 . S
C1904 C1905 1.415 . S
C1905 H1875 0.950 . S
C1905 C1900 1.363 . S
C1905 C1904 1.415 . S
H1906 C1903 0.999 . S
H1907 C1888 0.913 . S
C427 C2 1.460 . S
C442 C376 1.460 . S
C477 C36 1.461 . S
C492 C206 1.461 . S
C527 C240 1.461 . S
C542 C70 1.460 . S
C577 C274 1.460 . S
C592 C104 1.461 . S
C627 C308 1.460 . S
C642 C138 1.461 . S
C677 C342 1.460 . S
C692 C172 1.460 . S
C727 C9 1.217 . S
C742 C5 1.286 . S
C777 C39 1.286 . S
C792 C43 1.218 . S
C827 C77 1.216 . S
C842 C73 1.286 . S
C877 C111 1.216 . S
C892 C107 1.286 . S
C927 C145 1.217 . S
C942 C141 1.286 . S
C977 C175 1.286 . S
C992 C179 1.217 . S
C1027 C213 1.218 . S
C1042 C209 1.286 . S
C1077 C243 1.286 . S
C1092 C247 1.217 . S
C1127 C281 1.218 . S
C1142 C277 1.286 . S
C1177 C311 1.286 . S
C1192 C315 1.218 . S
C1227 C345 1.286 . S
C1242 C349 1.218 . S
C1277 C383 1.218 . S
C1292 C379 1.286 . S
C1327 C33 1.461 . S
C1342 C305 1.461 . S
C1377 C67 1.461 . S
C1392 C339 1.461 . S
C1427 C101 1.461 . S
C1442 C373 1.461 . S
C1477 C407 1.461 . S
C1492 C135 1.461 . S
C1527 C237 1.461 . S
C1542 C169 1.461 . S
C1577 C271 1.461 . S
C1592 C203 1.461 . S
C1627 C360 1.471 . S
C1642 C20 1.471 . S
C1677 C394 1.471 . S
C1692 C54 1.471 . S
C1727 C224 1.471 . S
C1742 C88 1.471 . S
C1777 C122 1.471 . S
C1792 C258 1.471 . S
C1827 C156 1.471 . S
C1842 C292 1.471 . S
C1877 C190 1.471 . S
C1892 C326 1.471 . S
