# Generated by pormake.
# Topology wir, (6)-cn, num edge types: 1
# Building blocks:
#     Node 0, Type 0, BuildingBlock: CUWYAW_clean_sbu_0, # of connection points: 6
#     Node 1, Type 0, BuildingBlock: CUWYAW_clean_sbu_0, # of connection points: 6
#     Node 2, Type 0, BuildingBlock: CUWYAW_clean_sbu_0, # of connection points: 6
#     Node 3, Type 0, BuildingBlock: CUWYAW_clean_sbu_0, # of connection points: 6
#     Node 4, Type 0, BuildingBlock: CUWYAW_clean_sbu_0, # of connection points: 6
#     Node 5, Type 0, BuildingBlock: CUWYAW_clean_sbu_0, # of connection points: 6
#     Node 6, Type 0, BuildingBlock: CUWYAW_clean_sbu_0, # of connection points: 6
#     Node 7, Type 0, BuildingBlock: CUWYAW_clean_sbu_0, # of connection points: 6
#     Node 8, Type 0, BuildingBlock: CUWYAW_clean_sbu_0, # of connection points: 6
#     Node 9, Type 0, BuildingBlock: CUWYAW_clean_sbu_0, # of connection points: 6
#     Node 10, Type 0, BuildingBlock: CUWYAW_clean_sbu_0, # of connection points: 6
#     Node 11, Type 0, BuildingBlock: CUWYAW_clean_sbu_0, # of connection points: 6
#     Node 12, Type 0, BuildingBlock: CUWYAW_clean_sbu_0, # of connection points: 6
#     Node 13, Type 0, BuildingBlock: CUWYAW_clean_sbu_0, # of connection points: 6
#     Node 14, Type 0, BuildingBlock: CUWYAW_clean_sbu_0, # of connection points: 6
#     Node 15, Type 0, BuildingBlock: CUWYAW_clean_sbu_0, # of connection points: 6
#     Node 16, Type 0, BuildingBlock: CUWYAW_clean_sbu_0, # of connection points: 6
#     Node 17, Type 0, BuildingBlock: CUWYAW_clean_sbu_0, # of connection points: 6
#     Node 18, Type 0, BuildingBlock: CUWYAW_clean_sbu_0, # of connection points: 6
#     Node 19, Type 0, BuildingBlock: CUWYAW_clean_sbu_0, # of connection points: 6
#     Node 20, Type 0, BuildingBlock: CUWYAW_clean_sbu_0, # of connection points: 6
#     Node 21, Type 0, BuildingBlock: CUWYAW_clean_sbu_0, # of connection points: 6
#     Node 22, Type 0, BuildingBlock: CUWYAW_clean_sbu_0, # of connection points: 6
#     Node 23, Type 0, BuildingBlock: CUWYAW_clean_sbu_0, # of connection points: 6
#     Node 24, Type 0, BuildingBlock: CUWYAW_clean_sbu_0, # of connection points: 6
#     Node 25, Type 0, BuildingBlock: CUWYAW_clean_sbu_0, # of connection points: 6
#     Node 26, Type 0, BuildingBlock: CUWYAW_clean_sbu_0, # of connection points: 6
#     Node 27, Type 0, BuildingBlock: CUWYAW_clean_sbu_0, # of connection points: 6
#     Node 28, Type 0, BuildingBlock: CUWYAW_clean_sbu_0, # of connection points: 6
#     Node 29, Type 0, BuildingBlock: CUWYAW_clean_sbu_0, # of connection points: 6
#     Node 30, Type 0, BuildingBlock: CUWYAW_clean_sbu_0, # of connection points: 6
#     Node 31, Type 0, BuildingBlock: CUWYAW_clean_sbu_0, # of connection points: 6
#     Edge 32, Type (0, 0), BuildingBlock: AJUNOK_clean_linker_0, # of connection points: 2
#     Edge 33, Type (0, 0), BuildingBlock: AJUNOK_clean_linker_0, # of connection points: 2
#     Edge 34, Type (0, 0), BuildingBlock: AJUNOK_clean_linker_0, # of connection points: 2
#     Edge 35, Type (0, 0), BuildingBlock: AJUNOK_clean_linker_0, # of connection points: 2
#     Edge 36, Type (0, 0), BuildingBlock: AJUNOK_clean_linker_0, # of connection points: 2
#     Edge 37, Type (0, 0), BuildingBlock: AJUNOK_clean_linker_0, # of connection points: 2
#     Edge 38, Type (0, 0), BuildingBlock: AJUNOK_clean_linker_0, # of connection points: 2
#     Edge 39, Type (0, 0), BuildingBlock: AJUNOK_clean_linker_0, # of connection points: 2
#     Edge 40, Type (0, 0), BuildingBlock: AJUNOK_clean_linker_0, # of connection points: 2
#     Edge 41, Type (0, 0), BuildingBlock: AJUNOK_clean_linker_0, # of connection points: 2
#     Edge 42, Type (0, 0), BuildingBlock: AJUNOK_clean_linker_0, # of connection points: 2
#     Edge 43, Type (0, 0), BuildingBlock: AJUNOK_clean_linker_0, # of connection points: 2
#     Edge 44, Type (0, 0), BuildingBlock: AJUNOK_clean_linker_0, # of connection points: 2
#     Edge 45, Type (0, 0), BuildingBlock: AJUNOK_clean_linker_0, # of connection points: 2
#     Edge 46, Type (0, 0), BuildingBlock: AJUNOK_clean_linker_0, # of connection points: 2
#     Edge 47, Type (0, 0), BuildingBlock: AJUNOK_clean_linker_0, # of connection points: 2
#     Edge 48, Type (0, 0), BuildingBlock: AJUNOK_clean_linker_0, # of connection points: 2
#     Edge 49, Type (0, 0), BuildingBlock: AJUNOK_clean_linker_0, # of connection points: 2
#     Edge 50, Type (0, 0), BuildingBlock: AJUNOK_clean_linker_0, # of connection points: 2
#     Edge 51, Type (0, 0), BuildingBlock: AJUNOK_clean_linker_0, # of connection points: 2
#     Edge 52, Type (0, 0), BuildingBlock: AJUNOK_clean_linker_0, # of connection points: 2
#     Edge 53, Type (0, 0), BuildingBlock: AJUNOK_clean_linker_0, # of connection points: 2
#     Edge 54, Type (0, 0), BuildingBlock: AJUNOK_clean_linker_0, # of connection points: 2
#     Edge 55, Type (0, 0), BuildingBlock: AJUNOK_clean_linker_0, # of connection points: 2
#     Edge 56, Type (0, 0), BuildingBlock: AJUNOK_clean_linker_0, # of connection points: 2
#     Edge 57, Type (0, 0), BuildingBlock: AJUNOK_clean_linker_0, # of connection points: 2
#     Edge 58, Type (0, 0), BuildingBlock: AJUNOK_clean_linker_0, # of connection points: 2
#     Edge 59, Type (0, 0), BuildingBlock: AJUNOK_clean_linker_0, # of connection points: 2
#     Edge 60, Type (0, 0), BuildingBlock: AJUNOK_clean_linker_0, # of connection points: 2
#     Edge 61, Type (0, 0), BuildingBlock: AJUNOK_clean_linker_0, # of connection points: 2
#     Edge 62, Type (0, 0), BuildingBlock: AJUNOK_clean_linker_0, # of connection points: 2
#     Edge 63, Type (0, 0), BuildingBlock: AJUNOK_clean_linker_0, # of connection points: 2
#     Edge 64, Type (0, 0), BuildingBlock: AJUNOK_clean_linker_0, # of connection points: 2
#     Edge 65, Type (0, 0), BuildingBlock: AJUNOK_clean_linker_0, # of connection points: 2
#     Edge 66, Type (0, 0), BuildingBlock: AJUNOK_clean_linker_0, # of connection points: 2
#     Edge 67, Type (0, 0), BuildingBlock: AJUNOK_clean_linker_0, # of connection points: 2
#     Edge 68, Type (0, 0), BuildingBlock: AJUNOK_clean_linker_0, # of connection points: 2
#     Edge 69, Type (0, 0), BuildingBlock: AJUNOK_clean_linker_0, # of connection points: 2
#     Edge 70, Type (0, 0), BuildingBlock: AJUNOK_clean_linker_0, # of connection points: 2
#     Edge 71, Type (0, 0), BuildingBlock: AJUNOK_clean_linker_0, # of connection points: 2
#     Edge 72, Type (0, 0), BuildingBlock: AJUNOK_clean_linker_0, # of connection points: 2
#     Edge 73, Type (0, 0), BuildingBlock: AJUNOK_clean_linker_0, # of connection points: 2
#     Edge 74, Type (0, 0), BuildingBlock: AJUNOK_clean_linker_0, # of connection points: 2
#     Edge 75, Type (0, 0), BuildingBlock: AJUNOK_clean_linker_0, # of connection points: 2
#     Edge 76, Type (0, 0), BuildingBlock: AJUNOK_clean_linker_0, # of connection points: 2
#     Edge 77, Type (0, 0), BuildingBlock: AJUNOK_clean_linker_0, # of connection points: 2
#     Edge 78, Type (0, 0), BuildingBlock: AJUNOK_clean_linker_0, # of connection points: 2
#     Edge 79, Type (0, 0), BuildingBlock: AJUNOK_clean_linker_0, # of connection points: 2
#     Edge 80, Type (0, 0), BuildingBlock: AJUNOK_clean_linker_0, # of connection points: 2
#     Edge 81, Type (0, 0), BuildingBlock: AJUNOK_clean_linker_0, # of connection points: 2
#     Edge 82, Type (0, 0), BuildingBlock: AJUNOK_clean_linker_0, # of connection points: 2
#     Edge 83, Type (0, 0), BuildingBlock: AJUNOK_clean_linker_0, # of connection points: 2
#     Edge 84, Type (0, 0), BuildingBlock: AJUNOK_clean_linker_0, # of connection points: 2
#     Edge 85, Type (0, 0), BuildingBlock: AJUNOK_clean_linker_0, # of connection points: 2
#     Edge 86, Type (0, 0), BuildingBlock: AJUNOK_clean_linker_0, # of connection points: 2
#     Edge 87, Type (0, 0), BuildingBlock: AJUNOK_clean_linker_0, # of connection points: 2
#     Edge 88, Type (0, 0), BuildingBlock: AJUNOK_clean_linker_0, # of connection points: 2
#     Edge 89, Type (0, 0), BuildingBlock: AJUNOK_clean_linker_0, # of connection points: 2
#     Edge 90, Type (0, 0), BuildingBlock: AJUNOK_clean_linker_0, # of connection points: 2
#     Edge 91, Type (0, 0), BuildingBlock: AJUNOK_clean_linker_0, # of connection points: 2
#     Edge 92, Type (0, 0), BuildingBlock: AJUNOK_clean_linker_0, # of connection points: 2
#     Edge 93, Type (0, 0), BuildingBlock: AJUNOK_clean_linker_0, # of connection points: 2
#     Edge 94, Type (0, 0), BuildingBlock: AJUNOK_clean_linker_0, # of connection points: 2
#     Edge 95, Type (0, 0), BuildingBlock: AJUNOK_clean_linker_0, # of connection points: 2
#     Edge 96, Type (0, 0), BuildingBlock: AJUNOK_clean_linker_0, # of connection points: 2
#     Edge 97, Type (0, 0), BuildingBlock: AJUNOK_clean_linker_0, # of connection points: 2
#     Edge 98, Type (0, 0), BuildingBlock: AJUNOK_clean_linker_0, # of connection points: 2
#     Edge 99, Type (0, 0), BuildingBlock: AJUNOK_clean_linker_0, # of connection points: 2
#     Edge 100, Type (0, 0), BuildingBlock: AJUNOK_clean_linker_0, # of connection points: 2
#     Edge 101, Type (0, 0), BuildingBlock: AJUNOK_clean_linker_0, # of connection points: 2
#     Edge 102, Type (0, 0), BuildingBlock: AJUNOK_clean_linker_0, # of connection points: 2
#     Edge 103, Type (0, 0), BuildingBlock: AJUNOK_clean_linker_0, # of connection points: 2
#     Edge 104, Type (0, 0), BuildingBlock: AJUNOK_clean_linker_0, # of connection points: 2
#     Edge 105, Type (0, 0), BuildingBlock: AJUNOK_clean_linker_0, # of connection points: 2
#     Edge 106, Type (0, 0), BuildingBlock: AJUNOK_clean_linker_0, # of connection points: 2
#     Edge 107, Type (0, 0), BuildingBlock: AJUNOK_clean_linker_0, # of connection points: 2
#     Edge 108, Type (0, 0), BuildingBlock: AJUNOK_clean_linker_0, # of connection points: 2
#     Edge 109, Type (0, 0), BuildingBlock: AJUNOK_clean_linker_0, # of connection points: 2
#     Edge 110, Type (0, 0), BuildingBlock: AJUNOK_clean_linker_0, # of connection points: 2
#     Edge 111, Type (0, 0), BuildingBlock: AJUNOK_clean_linker_0, # of connection points: 2
#     Edge 112, Type (0, 0), BuildingBlock: AJUNOK_clean_linker_0, # of connection points: 2
#     Edge 113, Type (0, 0), BuildingBlock: AJUNOK_clean_linker_0, # of connection points: 2
#     Edge 114, Type (0, 0), BuildingBlock: AJUNOK_clean_linker_0, # of connection points: 2
#     Edge 115, Type (0, 0), BuildingBlock: AJUNOK_clean_linker_0, # of connection points: 2
#     Edge 116, Type (0, 0), BuildingBlock: AJUNOK_clean_linker_0, # of connection points: 2
#     Edge 117, Type (0, 0), BuildingBlock: AJUNOK_clean_linker_0, # of connection points: 2
#     Edge 118, Type (0, 0), BuildingBlock: AJUNOK_clean_linker_0, # of connection points: 2
#     Edge 119, Type (0, 0), BuildingBlock: AJUNOK_clean_linker_0, # of connection points: 2
#     Edge 120, Type (0, 0), BuildingBlock: AJUNOK_clean_linker_0, # of connection points: 2
#     Edge 121, Type (0, 0), BuildingBlock: AJUNOK_clean_linker_0, # of connection points: 2
#     Edge 122, Type (0, 0), BuildingBlock: AJUNOK_clean_linker_0, # of connection points: 2
#     Edge 123, Type (0, 0), BuildingBlock: AJUNOK_clean_linker_0, # of connection points: 2
#     Edge 124, Type (0, 0), BuildingBlock: AJUNOK_clean_linker_0, # of connection points: 2
#     Edge 125, Type (0, 0), BuildingBlock: AJUNOK_clean_linker_0, # of connection points: 2
#     Edge 126, Type (0, 0), BuildingBlock: AJUNOK_clean_linker_0, # of connection points: 2
#     Edge 127, Type (0, 0), BuildingBlock: AJUNOK_clean_linker_0, # of connection points: 2
# Relax obj value: 0.588
# Max RMSD: 0.195
# Mean RMSD: 0.195
data_MOF--net-wir--node1-CUWYAW_clean_sbu_0--edge1-AJUNOK_clean_linker_0
_symmetry_space_group_name_H-M    P1
_symmetry_Int_Tables_number       1
_symmetry_cell_setting            triclinic
loop_
_symmetry_equiv_pos_as_xyz
'x, y, z'
_cell_length_a     30.317139
_cell_length_b     30.3306
_cell_length_c     83.976825
_cell_angle_alpha  89.842216
_cell_angle_beta   89.838759
_cell_angle_gamma 89.994737
loop_
_atom_site_label
_atom_site_type_symbol
_atom_site_fract_x
_atom_site_fract_y
_atom_site_fract_z
_atom_type_partial_charge
C0 C 0.23812 0.14105 0.40075 0.0
Eu1 Eu 0.23405 0.21715 0.41492 0.0
C2 C 0.27707 0.11695 0.39525 0.0
C3 C 0.2731 0.07321 0.39039 0.0
C4 C 0.30728 0.0535 0.38186 0.0
C5 C 0.34564 0.07761 0.3779 0.0
C6 C 0.35135 0.11982 0.38437 0.0
C7 C 0.31727 0.13933 0.39307 0.0
C8 C 0.14778 0.26147 0.41609 0.0
C9 C 0.27624 0.27189 0.3835 0.0
C10 C 0.29974 0.33393 0.43209 0.0
Eu11 Eu 0.26263 0.26134 0.42263 0.0
C12 C 0.27645 0.3758 0.43367 0.0
C13 C 0.28259 0.39932 0.44779 0.0
C14 C 0.24642 0.41916 0.45509 0.0
C15 C 0.2044 0.41561 0.44818 0.0
C16 C 0.20021 0.39981 0.43266 0.0
C17 C 0.23653 0.38037 0.42528 0.0
C18 C 0.30271 0.19171 0.44868 0.0
C19 C 0.19647 0.2302 0.44756 0.0
O20 O 0.2337 0.145 0.41608 0.0
O21 O 0.23103 0.17803 0.39331 0.0
O22 O 0.15637 0.2193 0.41655 0.0
O23 O 0.18766 0.2795 0.41537 0.0
O24 O 0.24395 0.24439 0.38755 0.0
O25 O 0.29569 0.28235 0.39709 0.0
O26 O 0.30441 0.31879 0.41768 0.0
O27 O 0.28452 0.30405 0.44177 0.0
O28 O 0.30029 0.19912 0.43291 0.0
O29 O 0.29873 0.20087 0.43267 0.0
O30 O 0.21626 0.26697 0.44386 0.0
O31 O 0.20022 0.19828 0.43741 0.0
H32 H 0.24243 0.05547 0.3921 0.0
H33 H 0.30133 1.02117 0.37685 0.0
H34 H 0.3803 0.13917 0.38141 0.0
H35 H 0.32094 0.17316 0.39697 0.0
H36 H 0.31307 0.3962 0.45441 0.0
H37 H 0.25008 0.43193 0.46705 0.0
H38 H 0.16808 0.39739 0.42715 0.0
H39 H 0.23121 0.36267 0.41426 0.0
C40 C 0.19614 0.94633 0.65859 0.0
Eu41 Eu 0.12112 0.97898 0.66844 0.0
C42 C 0.21506 0.90761 0.65056 0.0
C43 C 0.24448 0.88032 0.65893 0.0
C44 C 0.27072 0.8499 0.65079 0.0
C45 C 0.26807 0.84663 0.63415 0.0
C46 C 0.23516 0.87066 0.62609 0.0
C47 C 0.20891 0.9009 0.63421 0.0
C48 C 0.07431 0.88461 0.6743 0.0
C49 C 0.07189 1.01908 0.63671 0.0
C50 C 0.99992 1.03208 0.68396 0.0
Eu51 Eu 0.076 0.99964 0.67599 0.0
C52 C 0.95796 1.0094 0.6813 0.0
C53 C 0.92525 1.01189 0.69303 0.0
C54 C 0.8988 0.97512 0.69606 0.0
C55 C 0.90618 0.93574 0.68763 0.0
C56 C 0.93178 0.93685 0.67379 0.0
C57 C 0.95779 0.97371 0.67062 0.0
C58 C 0.14337 0.0476 0.70138 0.0
C59 C 0.11203 0.94571 0.70231 0.0
O60 O 0.1725 0.97393 0.65026 0.0
O61 O 0.18027 0.94004 0.67277 0.0
O62 O 0.06772 0.92316 0.667 0.0
O63 O 0.0688 0.924 0.66719 0.0
O64 O 0.11228 1.00953 0.6417 0.0
O65 O 0.0464 1.01562 0.64948 0.0
O66 O 1.02127 1.04476 0.67124 0.0
O67 O 1.02532 1.01099 0.6939 0.0
O68 O 0.13505 1.04432 0.68566 0.0
O69 O 0.13392 1.04312 0.68551 0.0
O70 O 0.07248 0.95615 0.69786 0.0
O71 O 0.14337 0.95656 0.69254 0.0
H72 H 0.24953 0.88474 0.6716 0.0
H73 H 0.29579 0.83191 0.65729 0.0
H74 H 0.23269 0.86976 0.61323 0.0
H75 H 0.18627 0.92124 0.62746 0.0
H76 H 0.92467 1.03918 0.70133 0.0
H77 H 0.87863 0.97502 0.70674 0.0
H78 H 0.937 0.90712 0.66697 0.0
H79 H 0.98233 0.9712 0.6613 0.0
C80 C 0.37395 0.95825 0.89454 0.0
Eu81 Eu 0.37583 0.88791 0.91229 0.0
C82 C 0.35869 1.00331 0.89739 0.0
C83 C 0.36809 1.03601 0.88619 0.0
C84 C 0.35083 0.07815 0.88815 0.0
C85 C 0.32373 0.08814 0.90133 0.0
C86 C 0.31605 0.05595 0.91294 0.0
C87 C 0.33377 1.01378 0.91102 0.0
C88 C 0.45957 0.84033 0.91517 0.0
C89 C 0.33602 0.83607 0.88159 0.0
C90 C 0.29965 0.78254 0.92801 0.0
Eu91 Eu 0.34606 0.85163 0.92001 0.0
C92 C 0.30737 0.73539 0.92787 0.0
C93 C 0.28308 0.71043 0.93868 0.0
C94 C 0.30374 0.67631 0.94674 0.0
C95 C 0.34869 0.66704 0.94377 0.0
C96 C 0.36809 0.68423 0.92985 0.0
C97 C 0.34772 0.71938 0.92205 0.0
C98 C 0.30161 0.91487 0.94625 0.0
C99 C 0.4012 0.89749 0.94575 0.0
O100 O 0.40832 0.94623 0.90274 0.0
O101 O 0.3432 0.92803 0.89424 0.0
O102 O 0.45292 0.8828 0.91552 0.0
O103 O 0.41903 0.82428 0.91391 0.0
O104 O 0.37486 0.8499 0.88668 0.0
O105 O 0.31027 0.84049 0.89423 0.0
O106 O 0.29639 0.80191 0.91429 0.0
O107 O 0.32512 0.80393 0.93774 0.0
O108 O 0.31037 0.91359 0.9306 0.0
O109 O 0.31188 0.91172 0.93027 0.0
O110 O 0.38493 0.85788 0.9434 0.0
O111 O 0.40232 0.92191 0.9332 0.0
H112 H 0.38737 1.02856 0.87565 0.0
H113 H 0.35629 0.10215 0.87878 0.0
H114 H 0.29488 0.06289 0.92303 0.0
H115 H 0.32669 0.98912 0.91987 0.0
H116 H 0.25129 0.72192 0.94293 0.0
H117 H 0.28635 0.66287 0.95691 0.0
H118 H 0.40121 0.67503 0.92635 0.0
H119 H 0.36624 0.73785 0.91322 0.0
C120 C 0.38589 0.08846 0.1497 0.0
Eu121 Eu 0.44605 0.1035 0.17099 0.0
C122 C 0.39125 0.07948 0.13252 0.0
C123 C 0.396 0.11389 0.12148 0.0
C124 C 0.40684 0.1047 0.10567 0.0
C125 C 0.4141 0.06098 0.10063 0.0
C126 C 0.409 1.02664 0.11169 0.0
C127 C 0.39707 1.0357 0.12736 0.0
C128 C 0.4883 0.18933 0.17273 0.0
C129 C 0.49868 0.06264 0.14073 0.0
C130 C 0.5529 1.03408 0.18665 0.0
Eu131 Eu 0.48074 0.07543 0.17858 0.0
C132 C 0.59729 0.05296 0.18695 0.0
C133 C 0.62256 0.04662 0.20067 0.0
C134 C 0.65004 0.08037 0.20591 0.0
C135 C 0.65205 0.12037 0.19743 0.0
C136 C 0.6343 0.12264 0.18212 0.0
C137 C 0.6066 0.08899 0.17688 0.0
C138 C 0.41373 1.03825 0.20608 0.0
C139 C 0.44587 0.13838 0.20331 0.0
O140 O 0.4026 0.05803 0.15883 0.0
O141 O 0.39461 0.12815 0.1549 0.0
O142 O 0.44575 0.18107 0.1728 0.0
O143 O 0.50653 0.14944 0.17223 0.0
O144 O 0.49061 0.10227 0.14655 0.0
O145 O 0.48828 1.0371 0.15296 0.0
O146 O 0.53474 1.03013 0.17274 0.0
O147 O 0.52622 0.0523 0.19681 0.0
O148 O 0.41815 1.04214 0.19025 0.0
O149 O 0.42014 1.04367 0.19 0.0
O150 O 0.48412 0.12082 0.20006 0.0
O151 O 0.41585 0.13334 0.19247 0.0
H152 H 0.39159 0.1479 0.12505 0.0
H153 H 0.40819 0.13193 1.09733 0.0
H154 H 0.41396 0.99263 0.10822 0.0
H155 H 0.39371 1.00827 0.13556 0.0
H156 H 0.61603 1.01898 0.20854 0.0
H157 H 0.6644 0.0778 0.21768 0.0
H158 H 0.63706 0.15247 0.17517 0.0
H159 H 0.58783 0.09432 0.16608 0.0
C160 C 0.2049 0.9632 0.29857 0.0
Eu161 Eu 0.21173 0.88531 0.28611 0.0
C162 C 0.24041 0.98703 0.30689 0.0
C163 C 0.24028 0.98731 0.32357 0.0
C164 C 0.27767 1.00015 0.33186 0.0
C165 C 0.31587 1.01361 0.32368 0.0
C166 C 0.31546 1.01623 0.30704 0.0
C167 C 0.27805 1.00253 0.29865 0.0
C168 C 0.12862 0.83693 0.28377 0.0
C169 C 0.25334 0.82848 0.31774 0.0
C170 C 0.29654 0.776 0.27075 0.0
Eu171 Eu 0.24383 0.83956 0.27886 0.0
C172 C 0.29103 0.72861 0.26966 0.0
C173 C 0.31312 0.7084 0.25712 0.0
C174 C 0.2916 0.67637 0.24836 0.0
C175 C 0.2487 0.66234 0.25269 0.0
C176 C 0.23175 0.6756 0.26753 0.0
C177 C 0.25253 0.70942 0.27589 0.0
C178 C 0.28245 0.91293 0.25395 0.0
C179 C 0.1844 0.86079 0.25199 0.0
O180 O 0.2102 0.95709 0.28336 0.0
O181 O 0.1913 0.92752 0.30573 0.0
O182 O 0.13519 0.87927 0.28295 0.0
O183 O 0.16884 0.82037 0.28546 0.0
O184 O 0.23235 0.8655 0.31367 0.0
O185 O 0.26299 0.80819 0.30436 0.0
O186 O 0.29652 0.79332 0.28495 0.0
O187 O 0.27156 0.79744 0.26075 0.0
O188 O 0.27834 0.90503 0.26967 0.0
O189 O 0.27714 0.90349 0.26982 0.0
O190 O 0.20342 0.82525 0.25719 0.0
O191 O 0.18557 0.89503 0.26133 0.0
H192 H 0.2119 0.97565 0.33023 0.0
H193 H 0.27677 0.99951 0.34477 0.0
H194 H 0.34419 1.02788 0.30058 0.0
H195 H 0.27922 1.00267 0.28576 0.0
H196 H 0.34295 0.72293 0.25225 0.0
H197 H 0.30636 0.66854 0.23701 0.0
H198 H 0.1997 0.66434 0.27157 0.0
H199 H 0.23526 0.72466 0.28576 0.0
C200 C 0.39185 0.96684 0.54808 0.0
Eu201 Eu 0.45829 0.99656 0.53182 0.0
C202 C 0.38823 0.93517 0.56129 0.0
C203 C 0.40131 0.89081 0.55968 0.0
C204 C 0.39686 0.86156 0.57251 0.0
C205 C 0.38007 0.87662 0.58708 0.0
C206 C 0.3688 0.92132 0.58877 0.0
C207 C 0.37263 0.95021 0.57599 0.0
C208 C 0.50138 0.90056 0.52503 0.0
C209 C 0.51228 1.03565 0.56221 0.0
C210 C 0.57119 0.05302 0.51329 0.0
Eu211 Eu 0.49791 1.01699 0.52278 0.0
C212 C 0.61592 1.03896 0.51705 0.0
C213 C 0.65147 0.05667 0.50856 0.0
C214 C 0.68687 1.02915 0.50475 0.0
C215 C 0.68241 0.9836 0.50774 0.0
C216 C 0.6551 0.97052 0.52036 0.0
C217 C 0.62098 0.99842 0.52495 0.0
C218 C 0.43293 0.06771 0.49807 0.0
C219 C 0.44323 0.96842 0.49841 0.0
O220 O 0.41212 1.00364 0.55149 0.0
O221 O 0.40285 0.95131 0.53415 0.0
O222 O 0.51148 0.94017 0.53089 0.0
O223 O 0.51055 0.94105 0.53081 0.0
O224 O 0.47294 1.02002 0.55886 0.0
O225 O 0.53267 1.03843 0.54821 0.0
O226 O 0.54847 0.06759 0.52533 0.0
O227 O 0.54908 1.0246 0.50478 0.0
O228 O 0.43858 0.06166 0.51382 0.0
O229 O 0.43985 0.06035 0.51409 0.0
O230 O 0.48539 0.97675 0.50013 0.0
O231 O 0.41953 0.97606 0.51088 0.0
H232 H 0.41422 0.87852 0.54851 0.0
H233 H 0.40533 0.82715 0.57094 0.0
H234 H 0.35484 0.93353 0.59981 0.0
H235 H 0.36272 0.98427 0.57753 0.0
H236 H 0.64886 0.08864 0.50285 0.0
H237 H 0.71024 1.04063 0.49587 0.0
H238 H 0.65314 0.93631 0.52387 0.0
H239 H 0.59456 0.98507 0.53221 0.0
C240 C 0.30756 0.15281 0.80682 0.0
Eu241 Eu 0.33063 0.2095 0.78515 0.0
C242 C 0.29872 0.15861 0.82401 0.0
C243 C 0.33319 0.15856 0.83504 0.0
C244 C 0.32477 0.1677 0.851 0.0
C245 C 0.28166 0.17749 0.85637 0.0
C246 C 0.24736 0.17869 0.84523 0.0
C247 C 0.25565 0.16864 0.82929 0.0
C248 C 0.41767 0.2505 0.78361 0.0
C249 C 0.29249 0.26518 0.815 0.0
C250 C 0.26803 0.31768 0.76545 0.0
Eu251 Eu 0.30482 0.24587 0.77658 0.0
C252 C 0.28871 0.36023 0.76221 0.0
C253 C 0.27789 0.38162 0.74796 0.0
C254 C 0.30992 0.40622 0.73999 0.0
C255 C 0.35264 0.40937 0.74631 0.0
C256 C 0.36073 0.39483 0.76182 0.0
C257 C 0.32877 0.37013 0.76981 0.0
C258 C 0.26788 0.17717 0.74984 0.0
C259 C 0.36919 0.20081 0.75386 0.0
O260 O 0.27956 0.17331 0.79766 0.0
O261 O 0.34835 0.15634 0.80169 0.0
O262 O 0.40858 0.20815 0.78446 0.0
O263 O 0.37824 0.26952 0.7832 0.0
O264 O 0.33132 0.2514 0.80988 0.0
O265 O 0.2671 0.25979 0.80226 0.0
O266 O 0.26511 0.30553 0.78027 0.0
O267 O 0.28373 0.28641 0.75663 0.0
O268 O 0.26935 0.18376 0.76563 0.0
O269 O 0.27105 0.18575 0.76584 0.0
O270 O 0.35461 0.24094 0.75618 0.0
O271 O 0.3609 0.17295 0.76523 0.0
H272 H 0.3667 0.15135 0.83138 0.0
H273 H 0.35213 0.16546 0.85921 0.0
H274 H 0.21402 0.18675 0.84882 0.0
H275 H 0.22829 0.16951 0.82102 0.0
H276 H 0.24724 0.37423 0.74192 0.0
H277 H 0.30314 0.41781 0.72803 0.0
H278 H 0.39331 0.39773 0.76685 0.0
H279 H 0.33773 0.35392 0.78085 0.0
C280 C 0.22483 0.12062 1.04273 0.0
Eu281 Eu 0.14882 0.11311 1.02903 0.0
C282 C 0.27058 0.10838 1.03957 0.0
C283 C 0.30356 0.13724 1.04449 0.0
C284 C 0.34686 0.12272 1.04547 0.0
C285 C 0.35761 0.07861 1.0418 0.0
C286 C 0.32569 0.05257 1.0341 0.0
C287 C 0.28204 0.06716 1.03321 0.0
C288 C 0.09999 0.19483 1.02726 0.0
C289 C 0.09733 0.07351 1.06136 0.0
C290 C 1.04225 1.02961 1.01579 0.0
Eu291 Eu 0.10896 0.08023 1.02251 0.0
C292 C 0.99514 1.03854 1.0156 0.0
C293 C 0.97051 1.01888 1.0036 0.0
C294 C 0.93383 1.04052 0.99761 0.0
C295 C 0.92074 0.08165 1.00387 0.0
C296 C 0.94106 0.097 1.01781 0.0
C297 C 0.97859 0.07572 1.02358 0.0
C298 C 0.17869 1.04471 0.9955 0.0
C299 C 0.12881 0.13998 0.99534 0.0
O300 O 0.2084 0.15085 1.03347 0.0
O301 O 0.19718 0.0886 1.04593 0.0
O302 O 0.14246 0.18941 1.02626 0.0
O303 O 0.08413 0.15421 1.02889 0.0
O304 O 0.11728 0.10992 1.05617 0.0
O305 O 0.09438 0.04835 1.0486 0.0
O306 O 0.06129 1.02987 1.02966 0.0
O307 O 0.06424 0.05201 1.00518 0.0
O308 O 0.17344 0.04855 1.01136 0.0
O309 O 0.17157 0.04993 1.01156 0.0
O310 O 0.09289 0.12244 1.00101 0.0
O311 O 0.16338 0.13632 1.00435 0.0
H312 H 0.29527 0.16967 1.04901 0.0
H313 H 0.36998 0.14442 1.05132 0.0
H314 H 0.33305 1.01894 1.03072 0.0
H315 H 0.25693 0.04495 1.02881 0.0
H316 H 0.98311 0.99032 0.99732 0.0
H317 H 0.92007 1.02768 0.9867 0.0
H318 H 0.93122 0.12806 1.02309 0.0
H319 H 0.99742 0.09125 1.03297 0.0
C320 C 0.78726 0.78314 0.77123 0.0
Eu321 Eu 0.83974 0.85053 0.77345 0.0
C322 C 0.80043 0.7375 0.77399 0.0
C323 C 0.77839 0.70379 0.766 0.0
C324 C 0.80247 0.6676 0.76056 0.0
C325 C 0.84882 0.66811 0.76189 0.0
C326 C 0.86809 0.69545 0.77333 0.0
C327 C 0.84358 0.73027 0.77951 0.0
C328 C 0.80188 0.9182 0.74552 0.0
C329 C 0.89091 0.85398 0.74403 0.0
C330 C 0.88668 0.96721 0.78972 0.0
Eu331 Eu 0.87488 0.88916 0.77772 0.0
C332 C 0.87059 1.01211 0.78713 0.0
C333 C 0.89497 0.04703 0.79334 0.0
C334 C 0.8758 0.08848 0.79479 0.0
C335 C 0.8317 0.09551 0.79011 0.0
C336 C 0.80977 0.06192 0.78177 0.0
C337 C 0.82897 1.0202 0.78044 0.0
C338 C 0.95639 0.84004 0.77679 0.0
C339 C 0.83526 0.84171 0.81147 0.0
O340 O 0.78841 0.80846 0.78371 0.0
O341 O 0.80682 0.80111 0.75895 0.0
O342 O 0.80868 0.9144 0.76131 0.0
O343 O 0.80992 0.91261 0.7615 0.0
O344 O 0.87249 0.82221 0.75186 0.0
O345 O 0.89239 0.8916 0.75148 0.0
O346 O 0.91192 0.95075 0.77867 0.0
O347 O 0.85781 0.93892 0.79521 0.0
O348 O 0.95079 0.8818 0.77381 0.0
O349 O 0.91554 0.82546 0.77961 0.0
O350 O 0.8728 0.85724 0.80518 0.0
O351 O 0.80776 0.84219 0.79947 0.0
H352 H 0.74478 0.70834 0.76196 0.0
H353 H 0.78662 0.64517 0.75234 0.0
H354 H 0.90344 0.69557 0.77509 0.0
H355 H 0.86069 0.75555 0.78617 0.0
H356 H 0.92736 1.04136 0.79839 0.0
H357 H 0.89385 0.1131 0.80143 0.0
H358 H 0.77601 0.06644 0.7779 0.0
H359 H 0.80988 0.99361 0.7754 0.0
C360 C 0.05485 1.03835 0.51708 0.0
Eu361 Eu 0.98277 0.07692 0.52709 0.0
C362 C 0.09739 0.05912 0.51371 0.0
C363 C 0.1179 0.04936 0.49919 0.0
C364 C 0.14231 0.08184 0.49138 0.0
C365 C 0.14637 0.12393 0.49816 0.0
C366 C 0.13289 0.13074 0.51387 0.0
C367 C 0.10814 0.09845 0.52166 0.0
C368 C 0.9131 1.04029 0.50034 0.0
C369 C 0.9439 0.14053 0.50307 0.0
C370 C 0.88915 0.08505 0.55698 0.0
Eu371 Eu 0.94681 0.10427 0.53507 0.0
C372 C 0.8959 0.07484 0.57404 0.0
C373 C 0.89936 0.10833 0.58544 0.0
C374 C 0.91022 0.09799 0.60117 0.0
C375 C 0.91871 0.05405 0.6058 0.0
C376 C 0.91554 1.02072 0.59432 0.0
C377 C 0.90366 1.03087 0.57874 0.0
C378 C 0.98768 0.19059 0.53322 0.0
C379 C 1.00252 0.06632 0.56506 0.0
O380 O 1.042 1.03742 0.53185 0.0
O381 O 1.02378 0.05231 0.50778 0.0
O382 O 0.92039 1.04178 0.5161 0.0
O383 O 0.92244 1.04353 0.5163 0.0
O384 O 0.98294 0.12455 0.50617 0.0
O385 O 0.91417 0.13402 0.514 0.0
O386 O 0.90662 0.05607 0.54744 0.0
O387 O 0.89558 0.12551 0.55198 0.0
O388 O 0.94521 0.18186 0.53375 0.0
O389 O 1.0067 0.15112 0.53313 0.0
O390 O 0.99165 0.10534 0.55927 0.0
O391 O 0.99377 1.03993 0.55291 0.0
H392 H 0.10994 1.01929 0.49288 0.0
H393 H 0.15325 0.07594 0.47928 0.0
H394 H 0.1369 0.16264 0.51932 0.0
H395 H 0.09272 0.10666 0.53292 0.0
H396 H 0.89359 0.14245 0.58223 0.0
H397 H 0.91026 0.1244 0.60982 0.0
H398 H 0.92157 0.98659 0.59745 0.0
H399 H 0.90146 1.00412 0.57025 0.0
C400 C 0.81238 0.3128 0.26761 0.0
Eu401 Eu 0.76249 0.24473 0.27341 0.0
C402 C 0.80072 0.35912 0.2665 0.0
C403 C 0.81839 0.38293 0.25382 0.0
C404 C 0.79332 0.4157 0.24672 0.0
C405 C 0.7509 0.426 0.25268 0.0
C406 C 0.73828 0.40869 0.26754 0.0
C407 C 0.76251 0.37431 0.27422 0.0
C408 C 0.80226 0.17902 0.24605 0.0
C409 C 0.7043 0.22555 0.24591 0.0
C410 C 0.72692 0.13373 0.29466 0.0
Eu411 Eu 0.73052 0.2081 0.27942 0.0
C412 C 0.74094 0.08821 0.2918 0.0
C413 C 0.71188 0.05435 0.29587 0.0
C414 C 0.72631 1.01091 0.296 0.0
C415 C 0.77044 1.00048 0.29217 0.0
C416 C 0.79785 1.03406 0.28612 0.0
C417 C 0.78325 0.07783 0.28602 0.0
C418 C 0.64689 0.2547 0.27758 0.0
C419 C 0.77006 0.25732 0.3116 0.0
O420 O 0.80903 0.29476 0.28161 0.0
O421 O 0.79428 0.2889 0.25658 0.0
O422 O 0.79514 0.18161 0.26182 0.0
O423 O 0.79379 0.18345 0.26206 0.0
O424 O 0.72066 0.26164 0.25177 0.0
O425 O 0.70833 0.19102 0.25492 0.0
O426 O 0.69512 0.14812 0.28564 0.0
O427 O 0.75792 0.163 0.29701 0.0
O428 O 0.65374 0.21235 0.27651 0.0
O429 O 0.68749 0.27105 0.2791 0.0
O430 O 0.73127 0.24593 0.30552 0.0
O431 O 0.79706 0.25166 0.29944 0.0
H432 H 0.84795 0.37153 0.24781 0.0
H433 H 0.80486 0.42726 0.23528 0.0
H434 H 0.7068 0.41723 0.27283 0.0
H435 H 0.74874 0.35652 0.28428 0.0
H436 H 0.67885 0.06176 0.30007 0.0
H437 H 0.70404 0.98652 0.30093 0.0
H438 H 0.8318 1.02709 0.28295 0.0
H439 H 0.80589 0.10362 0.28241 0.0
C440 C 0.51113 0.04701 1.02482 0.0
Eu441 Eu 0.58079 0.99997 1.03124 0.0
C442 C 0.46506 1.03619 1.02275 0.0
C443 C 0.4426 0.06004 1.01125 0.0
C444 C 0.41166 1.03879 1.00197 0.0
C445 C 0.40124 0.99378 1.00468 0.0
C446 C 0.41566 0.97464 1.01907 0.0
C447 C 0.44909 0.99502 1.02773 0.0
C448 C 0.64208 0.04636 1.00471 0.0
C449 C 0.61733 0.9449 1.00398 0.0
C450 C 0.68791 0.97068 1.05465 0.0
Eu451 Eu 0.61622 0.96966 1.03786 0.0
C452 C 0.73169 0.98976 1.05184 0.0
C453 C 0.75153 1.01294 1.06422 0.0
C454 C 0.79244 1.03253 1.06195 0.0
C455 C 0.81459 1.0293 1.04722 0.0
C456 C 0.79452 1.00653 1.03467 0.0
C457 C 0.75288 0.98733 1.0369 0.0
C458 C 0.56899 0.88566 1.03504 0.0
C459 C 0.56713 1.00925 1.06955 0.0
O460 O 0.52707 1.04292 1.03906 0.0
O461 O 0.53649 1.02949 1.01409 0.0
O462 O 0.64246 1.03584 1.02022 0.0
O463 O 0.64061 1.03436 1.02053 0.0
O464 O 0.57842 0.96037 1.00789 0.0
O465 O 0.64607 0.94714 1.01526 0.0
O466 O 0.67656 0.93748 1.04571 0.0
O467 O 0.65628 0.99943 1.05647 0.0
O468 O 0.6115 0.8925 1.03474 0.0
O469 O 0.55293 0.92622 1.03629 0.0
O470 O 0.57745 0.97007 1.06364 0.0
O471 O 0.57392 1.03574 1.05726 0.0
H472 H 0.45433 0.09227 1.00754 0.0
H473 H 0.40258 0.05679 0.99146 0.0
H474 H 0.40599 0.94157 1.02245 0.0
H475 H 0.46561 0.97668 1.03706 0.0
H476 H 0.73554 1.01551 1.07574 0.0
H477 H 0.80769 0.0486 1.07205 0.0
H478 H 0.81137 1.00289 1.02336 0.0
H479 H 0.73759 0.97018 1.02705 0.0
C480 C 0.77241 0.31111 0.93736 0.0
Eu481 Eu 0.80766 0.23742 0.92754 0.0
C482 C 0.79241 0.35478 0.93607 0.0
C483 C 0.78612 0.38448 0.94857 0.0
C484 C 0.8206 0.41229 0.95293 0.0
C485 C 0.86149 0.40912 0.94506 0.0
C486 C 0.86427 0.38639 0.93065 0.0
C487 C 0.82935 0.35945 0.92603 0.0
C488 C 0.76729 0.17181 0.95453 0.0
C489 C 0.8665 0.18221 0.95007 0.0
C490 C 0.81369 0.14749 0.89637 0.0
Eu491 Eu 0.83306 0.20248 0.919 0.0
C492 C 0.80778 0.15366 0.87904 0.0
C493 C 0.84408 0.15871 0.8688 0.0
C494 C 0.83763 0.16637 0.85258 0.0
C495 C 0.79476 0.16961 0.84624 0.0
C496 C 0.75852 0.16596 0.85659 0.0
C497 C 0.76494 0.15769 0.87277 0.0
C498 C 0.92037 0.2441 0.92141 0.0
C499 C 0.7955 0.2582 0.88918 0.0
O500 O 0.76181 0.29239 0.92403 0.0
O501 O 0.79442 0.2845 0.94651 0.0
O502 O 0.76997 0.17698 0.93869 0.0
O503 O 0.77183 0.17905 0.93841 0.0
O504 O 0.85395 0.22359 0.94878 0.0
O505 O 0.86011 0.1587 0.93748 0.0
O506 O 0.78405 0.16712 0.90514 0.0
O507 O 0.85349 0.15107 0.90227 0.0
O508 O 0.91121 0.20185 0.9205 0.0
O509 O 0.8808 0.26259 0.92155 0.0
O510 O 0.83458 0.24601 0.89449 0.0
O511 O 0.77001 0.2509 0.9018 0.0
H512 H 0.75774 0.38149 0.95637 0.0
H513 H 0.81793 0.43018 0.96405 0.0
H514 H 0.89534 0.38421 0.92431 0.0
H515 H 0.83433 0.33723 0.91611 0.0
H516 H 0.87748 0.15615 0.87325 0.0
H517 H 0.86637 0.16744 0.84491 0.0
H518 H 0.72515 0.16805 0.85207 0.0
H519 H 0.73625 0.15443 0.8804 0.0
C520 C 0.53094 1.04188 0.68059 0.0
Eu521 Eu 0.6002 0.08731 0.6722 0.0
C522 C 0.48565 0.05738 0.68196 0.0
C523 C 0.45742 1.03602 0.69265 0.0
C524 C 0.42547 0.06043 0.70068 0.0
C525 C 0.42292 0.10633 0.69833 0.0
C526 C 0.44543 0.12556 0.68549 0.0
C527 C 0.47661 0.10088 0.67719 0.0
C528 C 0.67266 0.04912 0.69793 0.0
C529 C 0.62793 0.14507 0.69894 0.0
C530 C 0.71832 0.12268 0.65117 0.0
Eu531 Eu 0.64194 0.11894 0.66488 0.0
C532 C 0.76222 0.107 0.65561 0.0
C533 C 0.79858 0.13284 0.65163 0.0
C534 C 0.84089 0.11618 0.65355 0.0
C535 C 0.84761 0.07291 0.65939 0.0
C536 C 0.81108 0.04971 0.66549 0.0
C537 C 0.76853 0.06637 0.66337 0.0
C538 C 0.59362 0.20195 0.66664 0.0
C539 C 0.58769 0.08104 0.63322 0.0
O540 O 0.54751 1.04086 0.66629 0.0
O541 O 0.55732 0.06088 0.69064 0.0
O542 O 0.6648 0.05267 0.68219 0.0
O543 O 0.66292 0.05418 0.68202 0.0
O544 O 0.59015 0.13027 0.69395 0.0
O545 O 0.66075 0.13987 0.6892 0.0
O546 O 0.70269 0.1545 0.65991 0.0
O547 O 0.68896 0.09246 0.64781 0.0
O548 O 0.63602 0.19566 0.66769 0.0
O549 O 0.57758 0.16142 0.66512 0.0
O550 O 0.61147 0.11547 0.63786 0.0
O551 O 0.58165 0.05706 0.64622 0.0
H552 H 0.46393 1.00243 0.69639 0.0
H553 H 0.40763 0.0449 0.71039 0.0
H554 H 0.44385 0.16077 0.68342 0.0
H555 H 0.49813 0.1177 0.66884 0.0
H556 H 0.79424 0.16478 0.64602 0.0
H557 H 0.86756 0.13567 0.64865 0.0
H558 H 0.81501 1.01678 0.67031 0.0
H559 H 0.74075 0.04622 0.66688 0.0
C560 C 0.79037 0.7717 0.43095 0.0
Eu561 Eu 0.74723 0.84433 0.42504 0.0
C562 C 0.77454 0.72748 0.42698 0.0
C563 C 0.7908 0.69095 0.43529 0.0
C564 C 0.76148 0.65733 0.4396 0.0
C565 C 0.71602 0.66382 0.43695 0.0
C566 C 0.7033 0.69246 0.42472 0.0
C567 C 0.73307 0.72454 0.4196 0.0
C568 C 0.78722 0.9097 0.45237 0.0
C569 C 0.68695 0.88459 0.45001 0.0
C570 C 0.73935 0.93521 0.3954 0.0
Eu571 Eu 0.71959 0.87808 0.41749 0.0
C572 C 0.75106 0.9292 0.3784 0.0
C573 C 0.71897 0.93069 0.36642 0.0
C574 C 0.73085 0.92371 0.35052 0.0
C575 C 0.77496 0.91449 0.34629 0.0
C576 C 0.80666 0.91157 0.35834 0.0
C577 C 0.79505 0.91947 0.37414 0.0
C578 C 0.63349 0.83683 0.42006 0.0
C579 C 0.75458 0.82345 0.38712 0.0
O580 O 0.79883 0.79689 0.41882 0.0
O581 O 0.76626 0.79197 0.44151 0.0
O582 O 0.78177 0.9062 0.43659 0.0
O583 O 0.78018 0.90419 0.4363 0.0
O584 O 0.70492 0.84589 0.44756 0.0
O585 O 0.68978 0.91187 0.43807 0.0
O586 O 0.76794 0.91845 0.40525 0.0
O587 O 0.69864 0.92803 0.4 0.0
O588 O 0.64194 0.87933 0.41918 0.0
O589 O 0.67314 0.81824 0.42007 0.0
O590 O 0.71593 0.83388 0.39325 0.0
O591 O 0.78169 0.83315 0.39888 0.0
H592 H 0.82322 0.69187 0.44067 0.0
H593 H 0.77224 0.63359 0.44844 0.0
H594 H 0.66875 0.69645 0.42177 0.0
H595 H 0.72093 0.7514 0.41233 0.0
H596 H 0.68491 0.93801 0.36929 0.0
H597 H 0.70578 0.9278 0.34148 0.0
H598 H 0.84086 0.90477 0.35549 0.0
H599 H 0.82081 0.91786 0.38303 0.0
C600 C 0.07222 0.04797 0.18412 0.0
Eu601 Eu 1.00116 1.01363 0.17153 0.0
C602 C 0.11649 1.02942 0.18525 0.0
C603 C 0.14007 1.03706 0.19926 0.0
C604 C 0.16548 1.00321 0.20573 0.0
C605 C 0.16662 0.96193 0.19819 0.0
C606 C 0.15129 0.95807 0.18261 0.0
C607 C 0.12613 0.99197 0.17605 0.0
C608 C 0.93272 0.05438 0.19733 0.0
C609 C 0.94099 0.95449 0.19267 0.0
C610 C 0.91277 1.01296 0.13919 0.0
Eu611 Eu 0.96523 0.98917 0.1621 0.0
C612 C 0.91821 1.0197 0.12181 0.0
C613 C 0.90423 0.98753 0.11104 0.0
C614 C 0.90868 0.9945 1.09468 0.0
C615 C 0.92783 1.03362 1.08864 0.0
C616 C 0.94362 0.06489 0.09949 0.0
C617 C 0.93786 0.05855 0.11583 0.0
C618 C 1.00673 0.90178 0.16466 0.0
C619 C 1.02513 1.02427 0.13291 0.0
O620 O 0.05818 0.05801 0.16997 0.0
O621 O 1.0432 1.02526 0.192 0.0
O622 O 0.93962 0.05202 0.18155 0.0
O623 O 0.94163 0.05019 0.18131 0.0
O624 O 0.9829 0.96585 0.19201 0.0
O625 O 0.91912 0.9617 0.17973 0.0
O626 O 0.93434 1.04075 0.14813 0.0
O627 O 0.91384 0.97253 0.14479 0.0
O628 O 0.96445 0.91099 0.16373 0.0
O629 O 1.02545 0.94123 0.16478 0.0
O630 O 1.00712 0.98668 0.13743 0.0
O631 O 1.02164 0.04924 0.14589 0.0
H632 H 0.13316 0.06586 0.20647 0.0
H633 H 0.17768 1.00678 0.21778 0.0
H634 H 0.15309 0.9268 0.17659 0.0
H635 H 0.10855 0.98575 0.16506 0.0
H636 H 0.88878 0.95744 0.11523 0.0
H637 H 0.895 0.96992 1.08678 0.0
H638 H 0.95958 0.09477 1.0954 0.0
H639 H 0.94922 0.08418 0.12378 0.0
C640 C 0.77078 0.65751 0.89046 0.0
Eu641 Eu 0.74686 0.71327 0.91231 0.0
C642 C 0.78399 0.66268 0.87358 0.0
C643 C 0.754 0.65463 0.86131 0.0
C644 C 0.76745 0.65823 0.84546 0.0
C645 C 0.81116 0.6702 0.84152 0.0
C646 C 0.84047 0.68055 0.85379 0.0
C647 C 0.82728 0.67618 0.86964 0.0
C648 C 0.65969 0.75466 0.91446 0.0
C649 C 0.7854 0.76935 0.88269 0.0
C650 C 0.80783 0.82023 0.93166 0.0
Eu651 Eu 0.77226 0.74816 0.9209 0.0
C652 C 0.78543 0.86195 0.93433 0.0
C653 C 0.79551 0.88451 0.94826 0.0
C654 C 0.76321 0.90952 0.95567 0.0
C655 C 0.72051 0.91302 0.94906 0.0
C656 C 0.71273 0.89561 0.9339 0.0
C657 C 0.74516 0.87004 0.92654 0.0
C658 C 0.81115 0.68031 0.94756 0.0
C659 C 0.70809 0.70028 0.94325 0.0
O660 O 0.79785 0.67563 0.90051 0.0
O661 O 0.72933 0.6634 0.89444 0.0
O662 O 0.66869 0.71233 0.91331 0.0
O663 O 0.69923 0.77328 0.91479 0.0
O664 O 0.74642 0.75578 0.88769 0.0
O665 O 0.81057 0.76294 0.89541 0.0
O666 O 0.81191 0.8076 0.91697 0.0
O667 O 0.79283 0.78897 0.94072 0.0
O668 O 0.80864 0.68655 0.93178 0.0
O669 O 0.80689 0.68858 0.93154 0.0
O670 O 0.72289 0.74061 0.94144 0.0
O671 O 0.71612 0.67387 0.93148 0.0
H672 H 0.72055 0.64431 0.86393 0.0
H673 H 0.74414 0.64903 0.8363 0.0
H674 H 0.87412 0.69017 0.85117 0.0
H675 H 0.8514 0.683 0.8788 0.0
H676 H 0.82616 0.8782 0.95448 0.0
H677 H 0.77067 0.92223 0.96739 0.0
H678 H 0.6808 0.89901 0.92829 0.0
H679 H 0.73701 0.8529 0.91565 0.0
C680 C 0.66003 0.50937 0.14755 0.0
Eu681 Eu 0.60797 0.4797 0.16964 0.0
C682 C 0.65299 0.52718 0.13148 0.0
C683 C 0.64756 0.49947 0.11833 0.0
C684 C 0.64904 0.51739 0.10306 0.0
C685 C 0.66092 0.56198 0.10111 0.0
C686 C 0.65416 0.59077 0.11385 0.0
C687 C 0.65197 0.57325 0.12918 0.0
C688 C 0.56875 0.39153 0.17229 0.0
C689 C 0.55422 0.51375 0.13933 0.0
C690 C 0.49982 0.53535 0.18799 0.0
Eu691 Eu 0.5748 0.5034 0.17808 0.0
C692 C 0.45736 0.51449 0.18472 0.0
C693 C 0.42439 0.51561 0.19636 0.0
C694 C 0.3967 0.47922 0.19825 0.0
C695 C 0.40363 0.4413 0.18893 0.0
C696 C 0.42975 0.44438 0.17523 0.0
C697 C 0.45652 0.48124 0.17307 0.0
C698 C 0.63845 0.546 0.20523 0.0
C699 C 0.63638 0.44528 0.19919 0.0
O700 O 0.64353 0.53386 0.15876 0.0
O701 O 0.65452 0.46708 0.15015 0.0
O702 O 0.61089 0.40156 0.17114 0.0
O703 O 0.54937 0.43056 0.17253 0.0
O704 O 0.5663 0.47504 0.14494 0.0
O705 O 0.56121 0.53964 0.15187 0.0
O706 O 0.52074 0.55085 0.17568 0.0
O707 O 0.52535 0.51107 0.19678 0.0
O708 O 0.63383 0.54241 0.18945 0.0
O709 O 0.63172 0.54045 0.18915 0.0
O710 O 0.59508 0.45877 0.19924 0.0
O711 O 0.65614 0.4493 0.18564 0.0
H712 H 0.64535 0.46403 0.11974 0.0
H713 H 0.651 0.49472 1.09312 0.0
H714 H 0.66074 0.62567 0.11244 0.0
H715 H 0.65364 0.5957 0.13917 0.0
H716 H 0.4243 0.54114 0.20536 0.0
H717 H 0.37607 0.47761 0.2088 0.0
H718 H 0.43455 0.41597 0.16766 0.0
H719 H 0.48099 0.48055 0.16365 0.0
C720 C 0.84498 0.44279 0.39118 0.0
Eu721 Eu 0.85919 0.38345 0.41296 0.0
C722 C 0.83556 0.43656 0.37407 0.0
C723 C 0.86974 0.43255 0.36291 0.0
C724 C 0.8603 0.4222 0.34709 0.0
C725 C 0.8165 0.41469 0.34212 0.0
C726 C 0.78244 0.41827 0.35338 0.0
C727 C 0.79174 0.42979 0.36905 0.0
C728 C 0.94519 0.34212 0.41537 0.0
C729 C 0.81991 0.33027 0.38258 0.0
C730 C 0.78527 0.27956 0.42749 0.0
Eu731 Eu 0.83062 0.35023 0.42024 0.0
C732 C 0.80087 0.23428 0.42872 0.0
C733 C 0.781 0.20673 0.44001 0.0
C734 C 0.807 0.17679 0.44839 0.0
C735 C 0.85275 0.1758 0.44566 0.0
C736 C 0.87019 0.19608 0.43207 0.0
C737 C 0.84399 0.2253 0.42346 0.0
C738 C 0.79423 0.4182 0.44768 0.0
C739 C 0.89115 0.38244 0.44582 0.0
O740 O 0.8144 0.42739 0.40057 0.0
O741 O 0.88459 0.4336 0.39638 0.0
O742 O 0.93669 0.38462 0.41507 0.0
O743 O 0.90536 0.32366 0.41496 0.0
O744 O 0.85908 0.33679 0.38905 0.0
O745 O 0.7937 0.34313 0.39429 0.0
O746 O 0.78589 0.29688 0.41335 0.0
O747 O 0.80287 0.30559 0.43794 0.0
O748 O 0.79762 0.4131 0.43185 0.0
O749 O 0.79923 0.411 0.43162 0.0
O750 O 0.87343 0.34451 0.44229 0.0
O751 O 0.88774 0.41251 0.43482 0.0
H752 H 0.90377 0.43757 0.36636 0.0
H753 H 0.88738 0.42192 0.33867 0.0
H754 H 0.7484 0.41299 0.35001 0.0
H755 H 0.76445 0.43245 0.37735 0.0
H756 H 0.74765 0.21307 0.44409 0.0
H757 H 0.79303 0.1606 0.45876 0.0
H758 H 0.9053 0.19508 0.4297 0.0
H759 H 0.85957 0.24597 0.41454 0.0
C760 C 0.85656 0.62653 0.65779 0.0
Eu761 Eu 0.93147 0.59843 0.669 0.0
C762 C 0.80948 0.61578 0.66003 0.0
C763 C 0.79022 0.58179 0.65119 0.0
C764 C 0.74459 0.57852 0.65018 0.0
C765 C 0.71723 0.60988 0.6577 0.0
C766 C 0.73645 0.63861 0.66881 0.0
C767 C 0.78239 0.64222 0.66971 0.0
C768 C 0.97716 0.69301 0.67379 0.0
C769 C 0.98547 0.55842 0.63806 0.0
C770 C 1.04443 0.53812 0.68783 0.0
Eu771 Eu 0.97312 0.57617 0.67744 0.0
C772 C 0.08964 0.55427 0.68747 0.0
C773 C 0.11711 0.54345 0.70024 0.0
C774 C 0.14847 0.5738 0.70532 0.0
C775 C 0.15191 0.61488 0.69767 0.0
C776 C 0.13038 0.62192 0.68319 0.0
C777 C 0.09906 0.59154 0.67807 0.0
C778 C 0.90205 0.53254 0.70258 0.0
C779 C 0.93506 0.63234 0.70266 0.0
O780 O 0.87665 0.64493 0.66969 0.0
O781 O 0.88111 0.5973 0.6506 0.0
O782 O 0.98619 0.65268 0.66846 0.0
O783 O 0.98531 0.65178 0.66852 0.0
O784 O 0.94631 0.57497 0.64174 0.0
O785 O 1.00635 0.55423 0.65187 0.0
O786 O 1.02666 0.52868 0.67414 0.0
O787 O 1.0187 0.56233 0.69666 0.0
O788 O 0.91146 0.53462 0.68687 0.0
O789 O 0.91279 0.53591 0.68669 0.0
O790 O 0.97504 0.62089 0.69894 0.0
O791 O 0.90526 0.62253 0.69222 0.0
H792 H 0.81013 0.55998 0.64393 0.0
H793 H 0.73151 0.55501 0.64174 0.0
H794 H 0.71628 0.66182 0.67536 0.0
H795 H 0.79648 0.66788 0.67706 0.0
H796 H 0.11008 0.51495 0.70763 0.0
H797 H 0.16505 0.56803 0.71655 0.0
H798 H 0.13326 0.65322 0.67706 0.0
H799 H 0.07799 0.6004 0.66816 0.0
C800 C 0.70675 0.44921 0.80151 0.0
Eu801 Eu 0.70431 0.37619 0.78545 0.0
C802 C 0.73259 0.48973 0.80036 0.0
C803 C 0.74711 0.50855 0.81454 0.0
C804 C 0.77594 0.54396 0.81416 0.0
C805 C 0.79079 0.56141 0.79957 0.0
C806 C 0.77574 0.54325 0.78526 0.0
C807 C 0.74712 0.50692 0.78565 0.0
C808 C 0.61937 0.33174 0.7838 0.0
C809 C 0.74354 0.32636 0.81754 0.0
C810 C 0.77793 0.26453 0.77435 0.0
Eu811 Eu 0.73468 0.33779 0.77914 0.0
C812 C 0.7592 0.22016 0.77532 0.0
C813 C 0.77773 0.18633 0.76622 0.0
C814 C 0.74997 0.15487 0.75942 0.0
C815 C 0.70397 0.16111 0.7604 0.0
C816 C 0.6871 0.18703 0.77274 0.0
C817 C 0.71517 0.21641 0.78044 0.0
C818 C 0.77425 0.40478 0.7517 0.0
C819 C 0.67745 0.36357 0.75159 0.0
O820 O 0.67771 0.44163 0.79042 0.0
O821 O 0.73002 0.4145 0.80512 0.0
O822 O 0.62719 0.37399 0.783 0.0
O823 O 0.65939 0.31442 0.78517 0.0
O824 O 0.70474 0.33872 0.81166 0.0
O825 O 0.77009 0.33075 0.80513 0.0
O826 O 0.77929 0.28612 0.78767 0.0
O827 O 0.76132 0.28836 0.76293 0.0
O828 O 0.76979 0.39992 0.76755 0.0
O829 O 0.76824 0.39802 0.76777 0.0
O830 O 0.69548 0.32695 0.75644 0.0
O831 O 0.67956 0.39607 0.76157 0.0
H832 H 0.73667 0.49535 0.82596 0.0
H833 H 0.78616 0.55833 0.82537 0.0
H834 H 0.78613 0.55698 0.77393 0.0
H835 H 0.7367 0.49213 0.77455 0.0
H836 H 0.81191 0.18793 0.76247 0.0
H837 H 0.76367 0.13324 0.75043 0.0
H838 H 0.65181 0.19097 0.77424 0.0
H839 H 0.70084 0.24116 0.78812 0.0
C840 C 0.88992 0.44752 1.03826 0.0
Eu841 Eu 0.96452 0.48321 1.02863 0.0
C842 C 0.86484 0.44534 1.05293 0.0
C843 C 0.82043 0.43377 1.05193 0.0
C844 C 0.79026 0.4537 1.0621 0.0
C845 C 0.80452 0.48688 1.07261 0.0
C846 C 0.84994 0.49218 1.07528 0.0
C847 C 0.87997 0.46949 1.06594 0.0
C848 C 1.01062 0.38993 1.02277 0.0
C849 C 1.01507 0.52647 1.05963 0.0
C850 C 0.08442 0.53913 1.0111 0.0
Eu851 Eu 1.0095 0.50619 1.02026 0.0
C852 C 0.12647 0.51564 1.01278 0.0
C853 C 0.1533 0.51195 0.99926 0.0
C854 C 0.17462 0.47211 0.99615 0.0
C855 C 0.1688 0.4361 1.00654 0.0
C856 C 0.15033 0.44316 1.02156 0.0
C857 C 0.12933 0.4831 1.02475 0.0
C858 C 0.9394 0.55122 0.99515 0.0
C859 C 0.97367 0.45014 0.9946 0.0
O860 O 0.89369 0.48694 1.03243 0.0
O861 O 0.92701 0.42692 1.03795 0.0
O862 O 1.01981 0.42947 1.02875 0.0
O863 O 1.01895 0.43032 1.02867 0.0
O864 O 0.97568 0.51191 1.05535 0.0
O865 O 1.03891 0.52762 1.04635 0.0
O866 O 0.06493 0.55118 1.02426 0.0
O867 O 0.05737 0.51915 1.00149 0.0
O868 O 0.94854 0.54834 1.01082 0.0
O869 O 0.94989 0.54698 1.01097 0.0
O870 O 1.01303 0.46253 0.99855 0.0
O871 O 0.94271 0.45942 1.00469 0.0
H872 H 0.80846 0.41392 1.04214 0.0
H873 H 0.75551 0.44681 1.06048 0.0
H874 H 0.8629 0.51704 1.08317 0.0
H875 H 0.91453 0.47633 1.0674 0.0
H876 H 0.15182 0.53663 0.98992 0.0
H877 H 0.18942 0.4673 0.98452 0.0
H878 H 0.14735 0.41641 1.02999 0.0
H879 H 0.10962 0.48539 1.03548 0.0
C880 C 0.87413 0.62361 0.29437 0.0
Eu881 Eu 0.84087 0.69848 0.28506 0.0
C882 C 0.86466 0.57796 0.2902 0.0
C883 C 0.89245 0.5448 0.29576 0.0
C884 C 0.87959 0.50097 0.29457 0.0
C885 C 0.83823 0.48982 0.28801 0.0
C886 C 0.8136 0.52293 0.28035 0.0
C887 C 0.82662 0.56697 0.28157 0.0
C888 C 0.93385 0.74534 0.2798 0.0
C889 C 0.8001 0.74927 0.31644 0.0
C890 C 0.7754 0.81026 0.26743 0.0
Eu891 Eu 0.81671 0.74027 0.27734 0.0
C892 C 0.78858 0.85576 0.26497 0.0
C893 C 0.7694 0.87753 0.25214 0.0
C894 C 0.79368 0.90854 0.24374 0.0
C895 C 0.83687 0.91966 0.24852 0.0
C896 C 0.85244 0.90347 0.26318 0.0
C897 C 0.82864 0.87092 0.27127 0.0
C898 C 0.7701 0.67093 0.25278 0.0
C899 C 0.87073 0.70721 0.25091 0.0
O900 O 0.89073 0.64722 0.28295 0.0
O901 O 0.84313 0.64433 0.30215 0.0
O902 O 0.8939 0.75416 0.28555 0.0
O903 O 0.89294 0.75324 0.28547 0.0
O904 O 0.81935 0.71157 0.31258 0.0
O905 O 0.79319 0.77043 0.30288 0.0
O906 O 0.77279 0.79599 0.28205 0.0
O907 O 0.79627 0.78305 0.25813 0.0
O908 O 0.77507 0.67852 0.26848 0.0
O909 O 0.77629 0.67981 0.26863 0.0
O910 O 0.86006 0.74654 0.25552 0.0
O911 O 0.86137 0.67579 0.26083 0.0
H912 H 0.92244 0.55292 0.30211 0.0
H913 H 0.89966 0.47675 0.30067 0.0
H914 H 0.78193 0.51535 0.27506 0.0
H915 H 0.80542 0.59251 0.27682 0.0
H916 H 0.73864 0.86582 0.24713 0.0
H917 H 0.78038 0.9187 0.23238 0.0
H918 H 0.885 0.91213 0.26742 0.0
H919 H 0.84381 0.85419 0.28127 0.0
C920 C 0.69912 0.61689 0.55108 0.0
Eu921 Eu 0.63667 0.61777 0.53011 0.0
C922 C 0.694 0.62579 0.56817 0.0
C923 C 0.66623 0.66004 0.57342 0.0
C924 C 0.65203 0.66155 0.58925 0.0
C925 C 0.66554 0.62901 0.60009 0.0
C926 C 0.69469 0.59585 0.59492 0.0
C927 C 0.7087 0.59422 0.57912 0.0
C928 C 0.59168 0.7023 0.52787 0.0
C929 C 0.58587 0.57806 0.56132 0.0
C930 C 0.53036 0.54206 0.51797 0.0
Eu931 Eu 0.60186 0.58727 0.52347 0.0
C932 C 0.48561 0.5594 0.51942 0.0
C933 C 0.45425 0.54653 0.50819 0.0
C934 C 0.42383 0.57743 0.5027 0.0
C935 C 0.42636 0.62128 0.50804 0.0
C936 C 0.451 0.63104 0.52161 0.0
C937 C 0.48027 0.59963 0.52751 0.0
C938 C 0.66787 0.54779 0.49613 0.0
C939 C 0.63075 0.64552 0.4966 0.0
O940 O 0.67885 0.58121 0.54646 0.0
O941 O 0.69309 0.64993 0.54131 0.0
O942 O 0.63423 0.69506 0.52756 0.0
O943 O 0.57473 0.66184 0.52879 0.0
O944 O 0.59293 0.61723 0.55484 0.0
O945 O 0.59606 0.5514 0.5495 0.0
O946 O 0.55232 0.53912 0.53117 0.0
O947 O 0.55335 0.56126 0.50684 0.0
O948 O 0.66473 0.55404 0.51192 0.0
O949 O 0.66275 0.55553 0.51218 0.0
O950 O 0.59339 0.62784 0.5009 0.0
O951 O 0.66211 0.64261 0.50704 0.0
H952 H 0.65348 0.68428 0.56513 0.0
H953 H 0.62954 0.6874 0.59288 0.0
H954 H 0.70673 0.57101 0.60313 0.0
H955 H 0.72947 0.56716 0.57528 0.0
H956 H 0.4576 0.51546 0.50197 0.0
H957 H 0.4043 0.56935 0.49232 0.0
H958 H 0.45291 0.66456 0.52599 0.0
H959 H 0.50373 0.6097 0.5365 0.0
C960 C 0.27795 0.28157 0.26894 0.0
Eu961 Eu 0.32999 0.34871 0.27273 0.0
C962 C 0.29082 0.23562 0.27129 0.0
C963 C 0.27445 0.2042 0.26069 0.0
C964 C 0.30308 0.17231 0.25466 0.0
C965 C 0.348 0.17381 0.25882 0.0
C966 C 0.36065 0.19727 0.27235 0.0
C967 C 0.33167 0.22818 0.27875 0.0
C968 C 0.29261 0.41779 0.24533 0.0
C969 C 0.38331 0.35506 0.24382 0.0
C970 C 0.38546 0.46963 0.28791 0.0
Eu971 Eu 0.36535 0.39129 0.27746 0.0
C972 C 0.42009 0.48629 0.29835 0.0
C973 C 0.45217 0.45766 0.30453 0.0
C974 C 0.48388 0.47337 0.31511 0.0
C975 C 0.4836 0.51783 0.31976 0.0
C976 C 0.45266 0.54674 0.31284 0.0
C977 C 0.42125 0.53105 0.30217 0.0
C978 C 0.44665 0.34042 0.2766 0.0
C979 C 0.32501 0.34241 0.3114 0.0
O980 O 0.27748 0.30588 0.28172 0.0
O981 O 0.29906 0.30053 0.25719 0.0
O982 O 0.29818 0.41311 0.26116 0.0
O983 O 0.2994 0.41141 0.26136 0.0
O984 O 0.36599 0.32235 0.25148 0.0
O985 O 0.38275 0.3927 0.25124 0.0
O986 O 0.35545 0.44465 0.29455 0.0
O987 O 0.39952 0.45369 0.27449 0.0
O988 O 0.44126 0.38217 0.2738 0.0
O989 O 0.40566 0.32619 0.27939 0.0
O990 O 0.35881 0.36668 0.30585 0.0
O991 O 0.30125 0.33314 0.29882 0.0
H992 H 0.24277 0.209 0.255 0.0
H993 H 0.29256 0.15327 0.24445 0.0
H994 H 0.39483 0.1978 0.27604 0.0
H995 H 0.34452 0.2516 0.28729 0.0
H996 H 0.45177 0.42292 0.30161 0.0
H997 H 0.50702 0.45034 0.32035 0.0
H998 H 0.45058 0.58087 0.31651 0.0
H999 H 0.39684 0.55354 0.29738 0.0
C1000 C 0.54531 0.53368 1.019 0.0
Eu1001 Eu 0.47292 0.57265 1.02863 0.0
C1002 C 0.5885 0.55264 1.01556 0.0
C1003 C 0.61528 0.53223 1.0042 0.0
C1004 C 0.64502 0.55749 0.99538 0.0
C1005 C 0.64719 0.60338 0.99768 0.0
C1006 C 0.62533 0.62223 1.0107 0.0
C1007 C 0.5963 0.59676 1.01973 0.0
C1008 C 0.40483 0.53344 1.00185 0.0
C1009 C 0.42883 0.63368 1.00446 0.0
C1010 C 0.37941 0.58208 1.05847 0.0
Eu1011 Eu 0.43741 0.6001 1.03649 0.0
C1012 C 0.38532 0.57128 1.07553 0.0
C1013 C 0.3886 0.60429 1.08711 0.0
C1014 C 0.39871 0.59326 0.10286 0.0
C1015 C 0.40687 0.54908 0.10731 0.0
C1016 C 0.40354 0.51624 1.09564 0.0
C1017 C 0.39219 0.52707 1.08007 0.0
C1018 C 0.48071 0.68614 1.03428 0.0
C1019 C 0.49087 0.56208 1.06689 0.0
O1020 O 0.53248 0.53413 1.03375 0.0
O1021 O 0.51474 0.54801 1.00956 0.0
O1022 O 0.41136 0.53606 1.01764 0.0
O1023 O 0.4135 0.53794 1.01787 0.0
O1024 O 0.46904 0.62027 1.00747 0.0
O1025 O 0.40085 0.62722 1.01593 0.0
O1026 O 0.39628 0.55285 1.04891 0.0
O1027 O 0.38711 0.62243 1.05361 0.0
O1028 O 0.43806 0.67813 1.03467 0.0
O1029 O 0.49846 0.64615 1.03438 0.0
O1030 O 0.48102 0.60116 1.06094 0.0
O1031 O 0.48217 0.53576 1.05469 0.0
H1032 H 0.60963 0.49821 1.00086 0.0
H1033 H 0.66227 0.54221 0.98552 0.0
H1034 H 0.62642 0.65744 1.01266 0.0
H1035 H 0.57601 0.61288 1.02859 0.0
H1036 H 0.38331 0.63858 1.08403 0.0
H1037 H 0.3986 0.61938 0.11161 0.0
H1038 H 0.40949 0.48195 1.09853 0.0
H1039 H 0.38997 0.50063 1.07147 0.0
C1040 C 0.31239 0.82221 0.76567 0.0
Eu1041 Eu 0.27138 0.74953 0.77318 0.0
C1042 C 0.29146 0.86565 0.76573 0.0
C1043 C 0.29843 0.89321 0.75259 0.0
C1044 C 0.26332 0.91786 0.74663 0.0
C1045 C 0.22134 0.91398 0.75368 0.0
C1046 C 0.21725 0.89429 0.76866 0.0
C1047 C 0.25263 0.87044 0.77482 0.0
C1048 C 0.3103 0.6837 0.74581 0.0
C1049 C 0.20885 0.71793 0.74795 0.0
C1050 C 0.25688 0.65341 0.80181 0.0
Eu1051 Eu 0.2428 0.71402 0.7805 0.0
C1052 C 0.26301 0.65701 0.81926 0.0
C1053 C 0.22694 0.65985 0.82971 0.0
C1054 C 0.23379 0.66494 0.84606 0.0
C1055 C 0.27681 0.66771 0.85229 0.0
C1056 C 0.31275 0.6665 0.84176 0.0
C1057 C 0.30597 0.66076 0.82548 0.0
C1058 C 0.15696 0.75601 0.77856 0.0
C1059 C 0.28273 0.7661 0.81102 0.0
O1060 O 0.31647 0.80318 0.77947 0.0
O1061 O 0.2955 0.79565 0.75521 0.0
O1062 O 0.30494 0.6871 0.76161 0.0
O1063 O 0.30351 0.68897 0.76186 0.0
O1064 O 0.22599 0.75577 0.75185 0.0
O1065 O 0.21424 0.68627 0.75824 0.0
O1066 O 0.2881 0.67197 0.79347 0.0
O1067 O 0.2177 0.66082 0.79584 0.0
O1068 O 0.16536 0.71351 0.77866 0.0
O1069 O 0.19678 0.77444 0.7791 0.0
O1070 O 0.24331 0.75674 0.80525 0.0
O1071 O 0.30877 0.75777 0.79877 0.0
H1072 H 0.32818 0.89019 0.74549 0.0
H1073 H 0.26701 0.9336 0.7351 0.0
H1074 H 0.18533 0.89174 0.77438 0.0
H1075 H 0.24685 0.84996 0.78521 0.0
H1076 H 0.19348 0.65745 0.82531 0.0
H1077 H 0.20536 0.66436 0.85389 0.0
H1078 H 0.34622 0.66831 0.84619 0.0
H1079 H 0.33459 0.65914 0.81775 0.0
C1080 C 1.00363 0.54987 0.52015 0.0
Eu1081 Eu 0.0744 0.50597 0.52774 0.0
C1082 C 0.95882 0.53218 0.52028 0.0
C1083 C 0.92834 0.54905 0.50939 0.0
C1084 C 0.89979 0.52006 0.50167 0.0
C1085 C 0.90432 0.47439 0.50427 0.0
C1086 C 0.92652 0.45964 0.51785 0.0
C1087 C 0.95349 0.48895 0.52607 0.0
C1088 C 0.14364 0.54673 0.50151 0.0
C1089 C 0.10151 0.44784 0.50088 0.0
C1090 C 0.19365 0.46958 0.54863 0.0
Eu1091 Eu 0.11718 0.4746 0.53485 0.0
C1092 C 0.23837 0.48542 0.54517 0.0
C1093 C 0.27421 0.45797 0.5485 0.0
C1094 C 0.31708 0.47433 0.54754 0.0
C1095 C 0.32488 0.51867 0.54326 0.0
C1096 C 0.28888 0.54467 0.53847 0.0
C1097 C 0.24594 0.52824 0.53942 0.0
C1098 C 0.06948 0.39132 0.53307 0.0
C1099 C 0.06217 0.51301 0.56674 0.0
O1100 O 1.02264 0.55329 0.53397 0.0
O1101 O 1.02905 0.53062 0.50975 0.0
O1102 O 0.13862 0.54056 0.51729 0.0
O1103 O 0.13698 0.53928 0.51753 0.0
O1104 O 0.06392 0.4627 0.50612 0.0
O1105 O 0.13498 0.45329 0.51027 0.0
O1106 O 0.17859 0.43925 0.53915 0.0
O1107 O 0.1641 0.49947 0.55218 0.0
O1108 O 0.11171 0.39816 0.5317 0.0
O1109 O 0.05314 0.43159 0.53502 0.0
O1110 O 0.08706 0.47912 0.56213 0.0
O1111 O 0.05513 0.53618 0.55363 0.0
H1112 H 0.93151 0.58249 0.50495 0.0
H1113 H 0.88161 0.53207 0.49145 0.0
H1114 H 0.92953 0.42468 0.52031 0.0
H1115 H 0.97607 0.47575 0.53484 0.0
H1116 H 0.26894 0.42465 0.5528 0.0
H1117 H 0.34346 0.45329 0.55174 0.0
H1118 H 0.29363 0.57898 0.53545 0.0
H1119 H 0.21863 0.54986 0.53658 0.0
C1120 C 0.2754 0.81115 0.43541 0.0
Eu1121 Eu 0.3201 0.74197 0.4274 0.0
C1122 C 0.28646 0.85761 0.4345 0.0
C1123 C 0.27004 0.88417 0.44658 0.0
C1124 C 0.29539 0.9188 0.45211 0.0
C1125 C 0.33676 0.9286 0.44509 0.0
C1126 C 0.34877 0.90676 0.43101 0.0
C1127 C 0.32394 0.87083 0.42583 0.0
C1128 C 0.27692 0.66974 0.45266 0.0
C1129 C 0.3755 0.7136 0.45375 0.0
C1130 C 0.38017 0.62911 0.40863 0.0
Eu1131 Eu 0.34302 0.70018 0.41984 0.0
C1132 C 0.41895 0.62098 0.39854 0.0
C1133 C 0.45079 0.59018 0.40333 0.0
C1134 C 0.48487 0.57826 0.39296 0.0
C1135 C 0.48704 0.59651 0.37755 0.0
C1136 C 0.45744 0.63048 0.37347 0.0
C1137 C 0.42392 0.64278 0.3839 0.0
C1138 C 0.43691 0.74665 0.42451 0.0
C1139 C 0.30254 0.75328 0.3886 0.0
O1140 O 0.26944 0.79077 0.42192 0.0
O1141 O 0.30069 0.78938 0.44524 0.0
O1142 O 0.27873 0.68012 0.43701 0.0
O1143 O 0.27998 0.68139 0.4369 0.0
O1144 O 0.36302 0.75208 0.44885 0.0
O1145 O 0.36646 0.68089 0.44433 0.0
O1146 O 0.34646 0.64835 0.40196 0.0
O1147 O 0.38824 0.64465 0.42269 0.0
O1148 O 0.39701 0.75526 0.41863 0.0
O1149 O 0.39607 0.75424 0.41875 0.0
O1150 O 0.31329 0.7125 0.39298 0.0
O1151 O 0.30472 0.77662 0.40181 0.0
H1152 H 0.24139 0.87401 0.45344 0.0
H1153 H 0.28485 0.93309 0.46325 0.0
H1154 H 0.37984 0.91391 0.42515 0.0
H1155 H 0.33711 0.85029 0.41642 0.0
H1156 H 0.44807 0.5738 0.41477 0.0
H1157 H 0.50734 0.55226 0.39648 0.0
H1158 H 0.45729 0.64483 0.36166 0.0
H1159 H 0.40043 0.66754 0.38008 0.0
C1160 C 1.02377 0.54961 0.18095 0.0
Eu1161 Eu 0.0959 0.58773 0.17084 0.0
C1162 C 0.97841 0.56549 0.18051 0.0
C1163 C 0.94736 0.54591 0.19061 0.0
C1164 C 0.91382 0.57175 0.19706 0.0
C1165 C 0.91308 0.61735 0.19393 0.0
C1166 C 0.93798 0.63419 0.18125 0.0
C1167 C 0.97062 0.60796 0.17441 0.0
C1168 C 0.16272 0.54343 0.19635 0.0
C1169 C 0.14842 0.64218 0.19536 0.0
C1170 C 0.20742 0.60958 0.14606 0.0
Eu1171 Eu 0.13555 0.61517 0.16225 0.0
C1172 C 0.25075 0.59367 0.15111 0.0
C1173 C 0.28752 0.61995 0.14813 0.0
C1174 C 0.3293 0.6048 0.15201 0.0
C1175 C 0.33531 0.56236 0.15874 0.0
C1176 C 0.29772 0.53875 0.16364 0.0
C1177 C 0.25573 0.55396 0.15962 0.0
C1178 C 0.08961 0.70051 0.16488 0.0
C1179 C 0.08227 0.57718 0.13138 0.0
O1180 O 1.04195 0.54078 0.16731 0.0
O1181 O 0.04935 0.5734 0.18987 0.0
O1182 O 0.15758 0.54885 0.18058 0.0
O1183 O 0.15571 0.55052 0.18031 0.0
O1184 O 0.10735 0.62928 0.19346 0.0
O1185 O 0.17253 0.6394 0.18279 0.0
O1186 O 0.17599 0.58002 0.14501 0.0
O1187 O 0.1948 0.64602 0.15292 0.0
O1188 O 0.13188 0.69255 0.1652 0.0
O1189 O 0.0726 0.66051 0.16367 0.0
O1190 O 0.10544 0.61226 0.13545 0.0
O1191 O 0.0767 0.55492 0.14493 0.0
H1192 H 0.95267 0.51299 0.19527 0.0
H1193 H 0.89416 0.55812 0.20669 0.0
H1194 H 0.93754 0.66914 0.17854 0.0
H1195 H 0.994 0.62313 0.16631 0.0
H1196 H 0.28413 0.65144 0.14212 0.0
H1197 H 0.35671 0.62488 0.14807 0.0
H1198 H 0.30092 0.50655 0.16914 0.0
H1199 H 0.22756 0.53359 0.1625 0.0
C1200 C 0.28805 0.2696 0.92765 0.0
Eu1201 Eu 0.23812 0.3389 0.92513 0.0
C1202 C 0.27209 0.22467 0.92512 0.0
C1203 C 0.28614 0.19143 0.9355 0.0
C1204 C 0.25557 0.16034 0.94088 0.0
C1205 C 0.21086 0.16519 0.93667 0.0
C1206 C 0.2005 0.18993 0.92315 0.0
C1207 C 0.23134 0.21999 0.9173 0.0
C1208 C 0.27822 0.40331 0.95332 0.0
C1209 C 0.18522 0.34358 0.95435 0.0
C1210 C 0.19283 0.45653 0.90882 0.0
Eu1211 Eu 0.2034 0.37803 0.92089 0.0
C1212 C 0.20865 0.50165 0.91139 0.0
C1213 C 0.1831 0.53662 0.90573 0.0
C1214 C 0.20143 0.57854 0.90425 0.0
C1215 C 0.24588 0.58604 0.90833 0.0
C1216 C 0.26927 0.55224 0.91612 0.0
C1217 C 0.25087 0.51009 0.91753 0.0
C1218 C 0.12143 0.32888 0.92201 0.0
C1219 C 0.2432 0.33277 0.88696 0.0
O1220 O 0.28819 0.29491 0.9151 0.0
O1221 O 0.2697 0.28882 0.93986 0.0
O1222 O 0.26966 0.40179 0.93761 0.0
O1223 O 0.26847 0.4001 0.93737 0.0
O1224 O 0.2034 0.31147 0.94666 0.0
O1225 O 0.18504 0.38132 0.94692 0.0
O1226 O 0.16681 0.43998 0.91964 0.0
O1227 O 0.22191 0.42817 0.90359 0.0
O1228 O 0.12738 0.37053 0.92509 0.0
O1229 O 0.16221 0.3145 0.9189 0.0
O1230 O 0.20531 0.34683 0.89339 0.0
O1231 O 0.2707 0.33331 0.899 0.0
H1232 H 0.3178 0.1938 0.94138 0.0
H1233 H 0.26458 0.13974 0.95093 0.0
H1234 H 0.16682 0.19225 0.91914 0.0
H1235 H 0.22035 0.24448 0.90877 0.0
H1236 H 0.15026 0.53075 0.90113 0.0
H1237 H 0.18231 0.60336 0.89806 0.0
H1238 H 0.30338 0.55709 0.91952 0.0
H1239 H 0.27088 0.48353 0.92221 0.0
C1240 C 0.57763 0.55389 0.67909 0.0
Eu1241 Eu 0.50382 0.51567 0.67099 0.0
C1242 C 0.62023 0.53167 0.68059 0.0
C1243 C 0.64545 0.54074 0.6941 0.0
C1244 C 0.66676 0.50621 0.7019 0.0
C1245 C 0.66234 0.46288 0.69619 0.0
C1246 C 0.64576 0.45597 0.6809 0.0
C1247 C 0.62509 0.49067 0.67296 0.0
C1248 C 0.43511 0.55292 0.69798 0.0
C1249 C 0.46416 0.45302 0.6955 0.0
C1250 C 0.40897 0.50528 0.64177 0.0
Eu1251 Eu 0.46784 0.48822 0.66336 0.0
C1252 C 0.41458 0.51548 0.62464 0.0
C1253 C 0.41496 0.48206 0.61315 0.0
C1254 C 0.42147 0.49248 0.5971 0.0
C1255 C 0.42829 0.53652 0.59221 0.0
C1256 C 0.43025 0.5695 0.60384 0.0
C1257 C 0.42268 0.55928 0.61979 0.0
C1258 C 0.5094 0.40197 0.66556 0.0
C1259 C 0.52025 0.52725 0.63292 0.0
O1260 O 0.56129 0.55634 0.66484 0.0
O1261 O 0.54859 0.53962 0.68926 0.0
O1262 O 0.44225 0.55148 0.68222 0.0
O1263 O 0.4443 0.54968 0.68202 0.0
O1264 O 0.50312 0.46969 0.69257 0.0
O1265 O 0.43496 0.45869 0.68441 0.0
O1266 O 0.42549 0.53491 0.65121 0.0
O1267 O 0.41702 0.46514 0.64673 0.0
O1268 O 0.46692 0.41065 0.66533 0.0
O1269 O 0.52808 0.44154 0.66511 0.0
O1270 O 0.51104 0.48792 0.63879 0.0
O1271 O 0.51173 0.5533 0.64517 0.0
H1272 H 0.64253 0.57227 0.70006 0.0
H1273 H 0.68031 0.51213 0.71364 0.0
H1274 H 0.64296 0.42293 0.6762 0.0
H1275 H 0.60669 0.48334 0.66225 0.0
H1276 H 0.4092 0.44803 0.6165 0.0
H1277 H 0.41829 0.46624 0.58847 0.0
H1278 H 0.43546 0.60365 0.60051 0.0
H1279 H 0.42316 0.58597 0.62833 0.0
C1280 C 0.16342 0.38567 0.4711 0.0
C1281 C 0.16584 0.41682 0.45873 0.0
C1282 C 0.13538 0.39234 0.48404 0.0
C1283 C 0.10932 0.43044 0.48496 0.0
H1284 H 0.18612 0.35806 0.47144 0.0
H1285 H 0.13798 0.37032 0.49419 0.0
S1286 S 0.09486 0.51437 0.4533 0.0
N1287 N 0.13307 0.48089 0.44622 0.0
N1288 N 0.08137 0.49506 0.4711 0.0
C1289 C 0.10705 0.45849 0.47166 0.0
C1290 C 0.13532 0.45127 0.45833 0.0
C1291 C 0.86369 0.87868 0.70228 0.0
C1292 C 0.90451 0.89478 0.69702 0.0
C1293 C 0.8602 0.85741 0.71707 0.0
C1294 C 0.89748 0.85252 0.72685 0.0
H1295 H 0.834 0.88698 0.69581 0.0
H1296 H 0.82761 0.85015 0.72171 0.0
S1297 S 1.01309 0.87732 0.71626 0.0
N1298 N 0.98409 0.89476 0.70085 0.0
N1299 N 0.977 0.85619 0.72891 0.0
C1300 C 0.93907 0.862 0.72057 0.0
C1301 C 0.94277 0.88269 0.70544 0.0
C1302 C 0.35624 0.62358 0.96864 0.0
C1303 C 0.37614 0.65118 0.95728 0.0
C1304 C 0.37289 0.62021 0.98397 0.0
C1305 C 0.4127 0.64052 0.98823 0.0
H1306 H 0.32581 0.60637 0.96604 0.0
H1307 H 0.3541 0.60123 0.99256 0.0
S1308 S 0.48198 0.71208 0.96277 0.0
N1309 N 0.43957 0.69879 0.95145 0.0
N1310 N 0.47413 0.68608 0.97985 0.0
C1311 C 0.43561 0.6649 0.97675 0.0
C1312 C 0.41693 0.67124 0.96131 0.0
C1313 C 0.64133 0.19895 0.23129 0.0
C1314 C 0.68178 0.22127 0.23067 0.0
C1315 C 0.63007 0.16901 0.21944 0.0
C1316 C 0.65875 0.16106 0.20659 0.0
H1317 H 0.62133 0.19988 0.24201 0.0
H1318 H 0.60081 0.14896 0.22112 0.0
S1319 S 0.7579 0.22595 0.19619 0.0
N1320 N 0.74347 0.24398 0.21404 0.0
N1321 N 0.72155 0.18764 0.19136 0.0
C1322 C 0.69485 0.18917 0.20434 0.0
C1323 C 0.70648 0.2197 0.21653 0.0
C1324 C 0.17527 0.66277 0.23883 0.0
C1325 C 0.21864 0.64562 0.24008 0.0
C1326 C 0.15147 0.66025 0.22453 0.0
C1327 C 0.17126 0.6429 0.21085 0.0
H1328 H 0.16047 0.68097 0.24853 0.0
H1329 H 0.11871 0.67441 0.22393 0.0
S1330 S 0.28071 0.58684 0.20855 0.0
N1331 N 0.27517 0.60097 0.22738 0.0
N1332 N 0.23588 0.60539 0.19973 0.0
C1333 C 0.21382 0.624 0.21216 0.0
C1334 C 0.23584 0.62261 0.22702 0.0
C1335 C 0.65758 0.94435 0.46627 0.0
C1336 C 0.67621 0.90213 0.4658 0.0
C1337 C 0.6606 0.97007 0.47982 0.0
C1338 C 0.68191 0.95454 0.49364 0.0
H1339 H 0.6429 0.95893 0.45574 0.0
H1340 H 0.64613 1.00269 0.47933 0.0
S1341 S 0.72238 0.84086 0.50017 0.0
N1342 N 0.70808 0.84207 0.48119 0.0
N1343 N 0.71197 0.89054 0.50724 0.0
C1344 C 0.69552 0.91034 0.49402 0.0
C1345 C 0.69302 0.88404 0.47996 0.0
C1346 C 0.44752 0.46218 0.72404 0.0
C1347 C 0.45069 0.43432 0.71073 0.0
C1348 C 0.41717 0.45304 0.73627 0.0
C1349 C 0.38987 0.41579 0.73534 0.0
H1350 H 0.46526 0.49317 0.72423 0.0
H1351 H 0.41293 0.47651 0.74585 0.0
S1352 S 0.39401 0.32779 0.70485 0.0
N1353 N 0.43001 0.36493 0.69865 0.0
N1354 N 0.37395 0.34684 0.72179 0.0
C1355 C 0.39685 0.38521 0.72306 0.0
C1356 C 0.42724 0.39469 0.71068 0.0
C1357 C 0.91295 0.15514 0.99066 0.0
C1358 C 0.89597 0.11236 0.99344 0.0
C1359 C 0.90151 0.17917 0.97699 0.0
C1360 C 0.87463 0.16011 0.96536 0.0
H1361 H 0.93805 0.16874 0.99834 0.0
H1362 H 0.91634 0.2112 0.97495 0.0
S1363 S 0.8158 0.05262 0.96831 0.0
N1364 N 0.84327 0.05676 0.98516 0.0
N1365 N 0.82813 0.09759 0.95814 0.0
C1366 C 0.85539 0.1186 0.96848 0.0
C1367 C 0.86416 0.09602 0.98294 0.0
C1368 C 0.85902 0.6778 0.73297 0.0
C1369 C 0.87462 0.65937 0.7473 0.0
C1370 C 0.88168 0.67225 0.71878 0.0
C1371 C 0.92105 0.64825 0.71826 0.0
H1372 H 0.82867 0.69666 0.73262 0.0
H1373 H 0.86709 0.68522 0.70796 0.0
S1374 S 0.98047 0.60014 0.75265 0.0
N1375 N 0.9353 0.62172 0.76049 0.0
N1376 N 0.9779 0.61006 0.73331 0.0
C1377 C 0.93927 0.6326 0.73255 0.0
C1378 C 0.91602 0.6385 0.74722 0.0
C1379 C 0.19173 0.1879 0.48867 0.0
C1380 C 0.15358 0.16195 0.48759 0.0
C1381 C 0.20259 0.21753 0.47638 0.0
C1382 C 0.17555 0.22125 0.46287 0.0
H1383 H 0.21466 0.1828 0.49835 0.0
H1384 H 0.23438 0.23376 0.47659 0.0
S1385 S 0.06639 0.16953 0.45689 0.0
N1386 N 0.08418 0.14902 0.47394 0.0
N1387 N 0.10529 0.20372 0.45072 0.0
C1388 C 0.13461 0.2 0.46286 0.0
C1389 C 0.12348 0.1703 0.47528 0.0
C1390 C 0.64829 0.42256 0.22746 0.0
C1391 C 0.66316 0.44397 0.21371 0.0
C1392 C 0.67517 0.42055 0.24099 0.0
C1393 C 0.71673 0.44192 0.2414 0.0
H1394 H 0.61707 0.40518 0.22745 0.0
H1395 H 0.66442 0.39944 0.25066 0.0
S1396 S 0.76453 0.51246 0.20968 0.0
N1397 N 0.71981 0.49088 0.20173 0.0
N1398 N 0.76547 0.49414 0.22818 0.0
C1399 C 0.72857 0.46859 0.22843 0.0
C1400 C 0.70333 0.46746 0.21425 0.0
C1401 C 0.40913 0.89876 0.97547 0.0
C1402 C 0.39861 0.92017 0.96123 0.0
C1403 C 0.40587 0.92121 0.99002 0.0
C1404 C 0.38899 0.96487 0.99094 0.0
H1405 H 0.42217 0.86551 0.97529 0.0
H1406 H 0.41937 0.90468 1.00032 0.0
S1407 S 0.34527 1.03041 0.9571 0.0
N1408 N 0.36818 0.98671 0.94893 0.0
N1409 N 0.34952 1.02222 0.97642 0.0
C1410 C 0.37191 0.98335 0.97689 0.0
C1411 C 0.38049 0.96311 0.962 0.0
C1412 C 0.9296 0.44929 0.95368 0.0
C1413 C 0.90125 0.41293 0.95487 0.0
C1414 C 0.96017 0.4578 0.96584 0.0
C1415 C 0.96187 0.43063 0.9794 0.0
H1416 H 0.92583 0.47268 0.94403 0.0
H1417 H 0.97912 0.48801 0.96549 0.0
S1418 S 0.90155 0.32624 0.98602 0.0
N1419 N 0.88298 0.34497 0.96882 0.0
N1420 N 0.93862 0.36247 0.99198 0.0
C1421 C 0.93758 0.39151 0.97963 0.0
C1422 C 0.90746 0.38233 0.96724 0.0
C1423 C 0.42982 0.1258 0.72668 0.0
C1424 C 0.41006 0.13431 0.71186 0.0
C1425 C 0.41908 0.1506 0.74001 0.0
C1426 C 0.38861 0.18516 0.739 0.0
H1427 H 0.45341 0.09921 0.72806 0.0
H1428 H 0.43336 0.14141 0.75137 0.0
S1429 S 0.33156 0.22428 0.70265 0.0
N1430 N 0.36176 0.18218 0.69654 0.0
N1431 N 0.34123 0.22935 0.72192 0.0
C1432 C 0.37078 0.19623 0.7241 0.0
C1433 C 0.38162 0.1706 0.71041 0.0
C1434 C 0.64926 0.6388 0.45256 0.0
C1435 C 0.68779 0.66423 0.45127 0.0
C1436 C 0.62649 0.63621 0.46716 0.0
C1437 C 0.64137 0.66007 0.48046 0.0
H1438 H 0.63835 0.61901 0.44262 0.0
H1439 H 0.59976 0.61276 0.4684 0.0
S1440 S 0.73428 0.73884 0.48188 0.0
N1441 N 0.73485 0.71941 0.46361 0.0
N1442 N 0.69176 0.71517 0.49067 0.0
C1443 C 0.67627 0.68971 0.47859 0.0
C1444 C 0.69963 0.6917 0.46404 0.0
C1445 C 0.2076 0.8698 0.22418 0.0
C1446 C 0.17291 0.86736 0.23533 0.0
C1447 C 0.20437 0.8976 0.21085 0.0
C1448 C 0.16626 0.92277 0.20847 0.0
H1449 H 0.23918 0.85471 0.2268 0.0
H1450 H 0.23285 0.90236 0.20323 0.0
S1451 S 0.0629 0.91893 0.23208 0.0
N1452 N 0.09711 0.88582 0.24163 0.0
N1453 N 0.09027 0.93685 0.21631 0.0
C1454 C 0.12929 0.91538 0.21825 0.0
C1455 C 0.1328 0.88776 0.23182 0.0
C1456 C 0.6726 0.96689 0.98423 0.0
C1457 C 0.63422 0.94254 0.98757 0.0
C1458 C 0.69475 0.96327 0.96991 0.0
C1459 C 0.68429 0.92949 0.95931 0.0
H1460 H 0.68832 0.98673 0.99319 0.0
H1461 H 0.72416 0.98309 0.9682 0.0
S1462 S 0.58687 0.85521 0.96223 0.0
N1463 N 0.58363 0.88626 0.97835 0.0
N1464 N 0.63117 0.87204 0.95243 0.0
C1465 C 0.64507 0.90518 0.96203 0.0
C1466 C 0.61933 0.9126 0.97613 0.0
C1467 C 0.35523 0.36021 0.21657 0.0
C1468 C 0.39155 0.3542 0.22672 0.0
C1469 C 0.36019 0.38233 0.202 0.0
C1470 C 0.40141 0.39906 0.19749 0.0
H1471 H 0.3222 0.35277 0.22074 0.0
H1472 H 0.33115 0.39111 0.19523 0.0
S1473 S 0.50795 0.38132 0.21813 0.0
N1474 N 0.47078 0.35822 0.22991 0.0
N1475 N 0.4804 0.39985 0.20255 0.0
C1476 C 0.43883 0.3865 0.20631 0.0
C1477 C 0.43373 0.36425 0.22109 0.0
C1478 C 0.938 0.12988 0.47402 0.0
C1479 C 0.93106 0.15664 0.48745 0.0
C1480 C 0.91345 0.1366 0.46009 0.0
C1481 C 0.88174 0.1702 0.45945 0.0
H1482 H 0.95979 0.10162 0.4747 0.0
H1483 H 0.91766 0.11431 0.45014 0.0
S1484 S 0.85907 0.25469 0.49028 0.0
N1485 N 0.89556 0.22133 0.49852 0.0
N1486 N 0.85048 0.23514 0.47223 0.0
C1487 C 0.87798 0.19969 0.47228 0.0
C1488 C 0.90245 0.19257 0.48637 0.0
C1489 C 0.20593 0.67034 0.70763 0.0
C1490 C 0.1632 0.65284 0.70757 0.0
C1491 C 0.21892 0.69869 0.71989 0.0
C1492 C 0.18998 0.70869 0.73244 0.0
H1493 H 0.23003 0.6597 0.6989 0.0
H1494 H 0.25282 0.70931 0.72047 0.0
S1495 S 0.07225 0.67868 0.73563 0.0
N1496 N 0.08968 0.65386 0.71929 0.0
N1497 N 0.11534 0.70543 0.74273 0.0
C1498 C 0.14607 0.69528 0.73152 0.0
C1499 C 0.13243 0.66741 0.71895 0.0
C1500 C 0.61868 0.13686 0.72838 0.0
C1501 C 0.63724 0.15908 0.71523 0.0
C1502 C 0.63923 0.13854 0.74338 0.0
C1503 C 0.67922 0.16139 0.74529 0.0
H1504 H 0.59044 0.11545 0.72679 0.0
H1505 H 0.62541 0.11986 0.75321 0.0
S1506 S 0.73617 0.2304 0.71503 0.0
N1507 N 0.69342 0.20955 0.70564 0.0
N1508 N 0.73231 0.21215 0.73347 0.0
C1509 C 0.69525 0.18701 0.73255 0.0
C1510 C 0.67411 0.18598 0.71758 0.0
C1511 C 0.20996 0.34425 0.98206 0.0
C1512 C 0.17469 0.34176 0.97128 0.0
C1513 C 0.20597 0.36956 0.99596 0.0
C1514 C 0.16678 0.39213 0.99923 0.0
H1515 H 0.24229 0.33235 0.97862 0.0
H1516 H 0.23467 0.37589 1.00313 0.0
S1517 S 0.0612 0.3816 0.97761 0.0
N1518 N 0.09676 0.3531 0.96686 0.0
N1519 N 0.08889 0.39988 0.99316 0.0
C1520 C 0.12913 0.3819 0.99026 0.0
C1521 C 0.13328 0.35676 0.9761 0.0
C1522 C 0.93465 0.92519 0.22052 0.0
C1523 C 0.91672 0.94883 0.20774 0.0
C1524 C 0.91017 0.91896 0.23456 0.0
C1525 C 0.8679 0.93805 0.23649 0.0
H1526 H 0.96651 0.90939 0.21931 0.0
H1527 H 0.92341 0.89672 0.24345 0.0
S1528 S 0.81119 1.01168 0.20783 0.0
N1529 N 0.85569 0.9945 0.19836 0.0
N1530 N 0.81422 0.98956 0.22574 0.0
C1531 C 0.85245 0.96629 0.2245 0.0
C1532 C 0.87547 0.96966 0.20981 0.0
C1533 C 0.3832 0.68427 0.49664 0.0
C1534 C 0.41978 0.65607 0.49613 0.0
C1535 C 0.37137 0.70869 0.48307 0.0
C1536 C 0.39638 0.70535 0.46901 0.0
H1537 H 0.36202 0.68483 0.50703 0.0
H1538 H 0.34042 0.72656 0.48309 0.0
S1539 S 0.50131 0.64531 0.46339 0.0
N1540 N 0.4858 0.63339 0.48178 0.0
N1541 N 0.4631 0.67877 0.4563 0.0
C1542 C 0.43598 0.6819 0.46918 0.0
C1543 C 0.44798 0.65736 0.48284 0.0
C1544 C 0.41454 0.13871 0.24622 0.0
C1545 C 0.38039 0.16989 0.24585 0.0
C1546 C 0.44099 0.13192 0.23268 0.0
C1547 C 0.43374 0.15661 0.21873 0.0
H1548 H 0.41899 0.11797 0.2566 0.0
H1549 H 0.46423 0.10479 0.23265 0.0
S1550 S 0.35617 0.24933 0.21337 0.0
N1551 N 0.34678 0.23134 0.23162 0.0
N1552 N 0.39617 0.21812 0.20629 0.0
C1553 C 0.40357 0.19135 0.21902 0.0
C1554 C 0.37682 0.19814 0.23261 0.0
C1555 C 0.64451 0.62342 0.96919 0.0
C1556 C 0.66178 0.63179 0.9844 0.0
C1557 C 0.65724 0.64854 0.9561 0.0
C1558 C 0.68733 0.68327 0.95773 0.0
H1559 H 0.62128 0.59679 0.96732 0.0
H1560 H 0.64463 0.63962 0.94447 0.0
S1561 S 0.73858 0.72186 0.99517 0.0
N1562 N 0.70774 0.67947 1.00064 0.0
N1563 N 0.73178 0.72729 0.97574 0.0
C1564 C 0.70281 0.69406 0.97297 0.0
C1565 C 0.68997 0.6681 0.9864 0.0
C1566 C 0.15119 0.94831 0.74385 0.0
C1567 C 0.1829 0.91473 0.7431 0.0
C1568 C 0.12134 0.95428 0.73125 0.0
C1569 C 0.12343 0.92711 0.71775 0.0
H1570 H 0.15174 0.97174 0.75354 0.0
H1571 H 0.10002 0.98291 0.73127 0.0
S1572 S 0.19335 0.82841 0.7122 0.0
N1573 N 0.20832 0.84856 0.72961 0.0
N1574 N 0.154 0.8614 0.70566 0.0
C1575 C 0.1511 0.89028 0.71795 0.0
C1576 C 0.18064 0.88373 0.73075 0.0
C1577 C 0.87886 0.40743 0.48919 0.0
C1578 C 0.90499 0.44555 0.4902 0.0
C1579 C 0.87808 0.38267 0.47507 0.0
C1580 C 0.90393 0.39539 0.46187 0.0
H1581 H 0.85729 0.39829 0.49896 0.0
H1582 H 0.85455 0.35596 0.47402 0.0
S1583 S 0.98317 0.48759 0.45972 0.0
N1584 N 0.96185 0.49076 0.47775 0.0
N1585 N 0.96017 0.44421 0.45141 0.0
C1586 C 0.93333 0.43051 0.46345 0.0
C1587 C 0.93386 0.45573 0.47758 0.0
C1588 C 0.43814 0.9402 0.47036 0.0
C1589 C 0.42063 0.9649 0.48295 0.0
C1590 C 0.41283 0.93256 0.45664 0.0
C1591 C 0.37046 0.9516 0.45484 0.0
H1592 H 0.46965 0.92376 0.47167 0.0
H1593 H 0.42498 0.90854 0.44819 0.0
S1594 S 0.31481 1.02776 0.48264 0.0
N1595 N 0.35918 1.01069 0.49214 0.0
N1596 N 0.3184 1.00573 0.46478 0.0
C1597 C 0.3567 0.98257 0.46612 0.0
C1598 C 0.37962 0.98628 0.48072 0.0
C1599 C 0.92209 0.66491 0.23486 0.0
C1600 C 0.88815 0.69611 0.23529 0.0
C1601 C 0.93028 0.64081 0.22115 0.0
C1602 C 0.90435 0.64667 0.20745 0.0
H1603 H 0.94058 0.65705 0.24554 0.0
H1604 H 0.95613 0.61611 0.22145 0.0
S1605 S 0.81581 0.72908 0.20186 0.0
N1606 N 0.83147 0.73547 0.22056 0.0
N1607 N 0.8473 0.68965 0.19439 0.0
C1608 C 0.87273 0.68034 0.20724 0.0
C1609 C 0.86445 0.70526 0.22132 0.0
C1610 C 0.18831 0.19435 0.96272 0.0
C1611 C 0.179 0.16601 0.94994 0.0
C1612 C 0.16617 0.19009 0.97714 0.0
C1613 C 0.13405 0.15738 0.97922 0.0
H1614 H 0.21526 0.21778 0.96197 0.0
H1615 H 0.17751 0.20939 0.98718 0.0
S1616 S 0.0865 0.08684 0.9477 0.0
N1617 N 0.12701 0.11375 0.9387 0.0
N1618 N 0.08607 0.10403 0.96638 0.0
C1619 C 0.11933 0.13395 0.96584 0.0
C1620 C 0.14177 0.13875 0.95096 0.0
C1621 C 0.62777 0.43071 0.72006 0.0
C1622 C 0.65966 0.42707 0.70797 0.0
C1623 C 0.62949 0.40381 0.73348 0.0
C1624 C 0.66335 0.37272 0.73527 0.0
H1625 H 0.60327 0.45674 0.71967 0.0
H1626 H 0.60713 0.4107 0.74327 0.0
S1627 S 0.74527 0.34099 0.70453 0.0
N1628 N 0.71853 0.38307 0.69656 0.0
N1629 N 0.72324 0.33303 0.72236 0.0
C1630 C 0.69136 0.3644 0.72225 0.0
C1631 C 0.68922 0.3917 0.7084 0.0
C1632 C 0.08334 0.32888 0.41549 0.0
C1633 C 0.09615 0.28279 0.41569 0.0
C1634 C 1.03723 0.34623 0.4154 0.0
C1635 C 0.99662 0.32044 0.41544 0.0
H1636 H 0.10968 0.3529 0.41542 0.0
H1637 H 1.03359 0.38173 0.4153 0.0
S1638 S 1.0062 0.19712 0.41596 0.0
N1639 N 0.05864 0.21196 0.41593 0.0
N1640 N 0.97694 0.24307 0.41574 0.0
C1641 C 1.00889 0.27434 0.41563 0.0
C1642 C 0.05584 0.25659 0.41576 0.0
C1643 C 0.98575 0.78058 0.66533 0.0
C1644 C 1.00562 0.73972 0.67112 0.0
C1645 C 1.00608 0.82538 0.66531 0.0
C1646 C 0.04878 0.8361 0.67185 0.0
H1647 H 0.95253 0.77824 0.66072 0.0
H1648 H 0.98696 0.85216 0.6604 0.0
S1649 S 0.11682 0.74589 0.69015 0.0
N1650 N 0.0727 0.71814 0.68452 0.0
N1651 N 0.10879 0.79761 0.68479 0.0
C1652 C 0.0685 0.79577 0.67788 0.0
C1653 C 0.0482 0.75022 0.67759 0.0
C1654 C 0.55134 0.84156 0.9149 0.0
C1655 C 0.51011 0.81686 0.91493 0.0
C1656 C 0.59689 0.82302 0.91475 0.0
C1657 C 0.60842 0.77663 0.91465 0.0
H1658 H 0.54867 0.87714 0.91498 0.0
H1659 H 0.6239 0.84633 0.91472 0.0
S1660 S 0.51632 0.69332 0.91547 0.0
N1661 N 0.48826 0.74002 0.91534 0.0
N1662 N 0.56916 0.70674 0.91511 0.0
C1663 C 0.5675 0.75142 0.91487 0.0
C1664 C 0.52104 0.77042 0.91499 0.0
C1665 C 0.4844 0.28109 0.17321 0.0
C1666 C 0.51016 0.2406 0.17254 0.0
C1667 C 0.50179 0.32708 0.17309 0.0
C1668 C 0.54786 0.33987 0.17236 0.0
H1669 H 0.44892 0.27748 0.17386 0.0
H1670 H 0.47779 0.35332 0.17359 0.0
S1671 S 0.63346 0.25035 0.17047 0.0
N1672 N 0.58751 0.22107 0.17107 0.0
N1673 N 0.61864 0.30272 0.171 0.0
C1674 C 0.57404 0.29976 0.17173 0.0
C1675 C 0.55626 0.25289 0.1718 0.0
C1676 C 1.02332 0.74839 0.28145 0.0
C1677 C 0.98157 0.77187 0.28248 0.0
C1678 C 0.06822 0.76764 0.28223 0.0
C1679 C 0.07826 0.8139 0.28372 0.0
H1680 H 1.0215 0.71303 0.27988 0.0
H1681 H 0.09582 0.74516 0.28128 0.0
S1682 S 0.98418 0.89499 0.28574 0.0
N1683 N 0.95723 0.84775 0.28459 0.0
N1684 N 1.03737 0.88286 0.28555 0.0
C1685 C 1.03678 0.83825 0.28449 0.0
C1686 C 0.99084 0.8183 0.28401 0.0
C1687 C 0.50535 0.81032 0.52312 0.0
C1688 C 0.52754 0.85157 0.52705 0.0
C1689 C 0.524 0.76488 0.52371 0.0
C1690 C 0.56871 0.75327 0.528 0.0
H1691 H 0.47135 0.81297 0.51934 0.0
H1692 H 0.50237 0.73813 0.52033 0.0
S1693 S 0.64607 0.84494 0.53962 0.0
N1694 N 0.60051 0.87303 0.5359 0.0
N1695 N 0.63471 0.79245 0.53634 0.0
C1696 C 0.59179 0.79417 0.53188 0.0
C1697 C 0.57225 0.84059 0.53162 0.0
C1698 C 0.55571 0.2637 0.78393 0.0
C1699 C 0.56816 0.30988 0.784 0.0
C1700 C 0.50968 0.24619 0.78383 0.0
C1701 C 0.46906 0.27195 0.78382 0.0
H1702 H 0.58222 0.23982 0.78387 0.0
H1703 H 0.50612 0.21069 0.78372 0.0
S1704 S 0.47819 0.39525 0.78434 0.0
N1705 N 0.53063 0.38056 0.78416 0.0
N1706 N 0.44908 0.3492 0.78421 0.0
C1707 C 0.48111 0.31805 0.78398 0.0
C1708 C 0.52789 0.33593 0.78401 0.0
C1709 C 0.10006 0.28584 1.02956 0.0
C1710 C 0.0763 0.2446 1.02724 0.0
C1711 C 0.08103 0.33105 1.02899 0.0
C1712 C 1.03555 0.34144 1.0256 0.0
H1713 H 0.13506 0.28343 1.0319 0.0
H1714 H 0.10313 0.35824 1.03094 0.0
S1715 S 0.95551 0.24899 1.01842 0.0
N1716 N 1.0017 0.22144 1.02152 0.0
N1717 N 0.96789 0.30182 1.02 0.0
C1718 C 1.01166 0.30049 1.02326 0.0
C1719 C 1.03078 0.25458 1.02416 0.0
C1720 C 0.09361 0.82374 0.777 0.0
C1721 C 0.10561 0.77768 0.7784 0.0
C1722 C 0.04789 0.84172 0.77659 0.0
C1723 C 1.0069 0.81676 0.77766 0.0
H1724 H 0.1203 0.84721 0.77605 0.0
H1725 H 1.04486 0.87712 0.77537 0.0
S1726 S 1.01437 0.69366 0.78107 0.0
N1727 N 0.06706 0.70758 0.78049 0.0
N1728 N 0.98581 0.73996 0.77995 0.0
C1729 C 1.01827 0.7706 0.77901 0.0
C1730 C 0.06493 0.75213 0.7793 0.0
C1731 C 0.98342 0.28237 0.53338 0.0
C1732 C 1.00918 0.24179 0.53338 0.0
C1733 C 1.00102 0.3283 0.53345 0.0
C1734 C 0.04723 0.34049 0.53346 0.0
H1735 H 0.9479 0.27885 0.53328 0.0
H1736 H 0.97722 0.35489 0.53337 0.0
S1737 S 0.13251 0.25049 0.53369 0.0
N1738 N 0.08636 0.22152 0.53367 0.0
N1739 N 0.11791 0.30292 0.5335 0.0
C1740 C 0.07325 0.30025 0.53343 0.0
C1741 C 0.05529 0.25361 0.53348 0.0
C1742 C 0.58411 0.32364 0.27751 0.0
C1743 C 0.59585 0.27732 0.27774 0.0
C1744 C 0.53838 0.34188 0.27726 0.0
C1745 C 0.49718 0.31697 0.27742 0.0
H1746 H 0.61099 0.34711 0.27736 0.0
H1747 H 0.53551 0.37744 0.27694 0.0
S1748 S 0.50404 0.19353 0.27748 0.0
N1749 N 0.5568 0.20727 0.27765 0.0
N1750 N 0.47577 0.24009 0.27748 0.0
C1751 C 0.50838 0.27066 0.27763 0.0
C1752 C 0.55495 0.25195 0.2777 0.0
C1753 C 0.49884 0.82392 1.03534 0.0
C1754 C 0.54544 0.83497 1.03493 0.0
C1755 C 0.4797 0.77848 1.03514 0.0
C1756 C 0.50394 0.73694 1.03454 0.0
H1757 H 0.47583 0.85118 1.03579 0.0
H1758 H 0.44409 0.77618 1.03546 0.0
S1759 S 0.62758 0.74199 1.03311 0.0
N1760 N 0.61473 0.79489 1.0337 0.0
N1761 N 0.58055 0.71449 1.03348 0.0
C1762 C 0.55048 0.74753 1.03411 0.0
C1763 C 0.57002 0.79374 1.03426 0.0
C1764 C 1.02977 0.32971 0.92414 0.0
C1765 C 0.0707 0.3055 0.92148 0.0
C1766 C 0.98402 0.31153 0.92401 0.0
C1767 C 0.97182 0.26593 0.92131 0.0
H1768 H 1.03284 0.36464 0.92648 0.0
H1769 H 0.95746 0.33445 0.9263 0.0
S1770 S 0.0627 0.18391 0.91381 0.0
N1771 N 0.09123 0.2299 0.91598 0.0
N1772 N 1.01017 0.19715 0.91602 0.0
C1773 C 1.01239 0.24115 0.91875 0.0
C1774 C 0.05903 0.25985 0.91875 0.0
C1775 C 0.57732 0.33892 0.6655 0.0
C1776 C 0.53105 0.35073 0.66567 0.0
C1777 C 0.5955 0.29333 0.66578 0.0
C1778 C 0.57042 0.2524 0.66609 0.0
H1779 H 0.6008 0.36568 0.66512 0.0
H1780 H 0.63107 0.29036 0.6657 0.0
S1781 S 0.44691 0.25946 0.66701 0.0
N1782 N 0.46077 0.31214 0.66646 0.0
N1783 N 0.49342 0.23104 0.6668 0.0
C1784 C 0.52406 0.26358 0.66627 0.0
C1785 C 0.50546 0.3101 0.6661 0.0
C1786 C 0.57168 0.76944 0.42424 0.0
C1787 C 0.5825 0.81458 0.42039 0.0
C1788 C 0.52658 0.75052 0.42509 0.0
C1789 C 0.48511 0.77301 0.42187 0.0
H1790 H 0.59886 0.74763 0.42703 0.0
H1791 H 0.52435 0.71615 0.4285 0.0
S1792 S 0.48942 0.8932 0.41138 0.0
N1793 N 0.54238 0.88159 0.41357 0.0
N1794 N 0.46195 0.847 0.41472 0.0
C1795 C 0.4951 0.81833 0.41789 0.0
C1796 C 0.54131 0.83807 0.4173 0.0
C1797 C 1.00325 0.80967 0.16584 0.0
C1798 C 1.02852 0.85045 0.16456 0.0
C1799 C 1.02116 0.76377 0.16583 0.0
C1800 C 0.06733 0.75157 0.16455 0.0
H1801 H 0.96784 0.81299 0.16697 0.0
H1802 H 0.9976 0.73714 0.16698 0.0
S1803 S 0.15137 0.8419 0.16001 0.0
N1804 N 0.10522 0.87069 0.16124 0.0
N1805 N 0.13733 0.78947 0.16155 0.0
C1806 C 0.09287 0.79197 0.16318 0.0
C1807 C 0.07456 0.8386 0.16309 0.0
C1808 C 0.32618 0.31824 0.36082 0.0
C1809 C 0.2892 0.28997 0.36508 0.0
C1810 C 0.33749 0.33442 0.34451 0.0
C1811 C 0.31328 0.32496 0.33001 0.0
H1812 H 0.34762 0.32845 0.3704 0.0
H1813 H 0.36636 0.35517 0.34337 0.0
S1814 S 0.21265 0.25292 0.33272 0.0
N1815 N 0.22852 0.25431 0.35151 0.0
N1816 N 0.24831 0.2832 0.32257 0.0
C1817 C 0.27625 0.29682 0.33414 0.0
C1818 C 0.26492 0.28024 0.3507 0.0
C1819 C 1.03452 0.08538 0.59523 0.0
C1820 C 1.02117 0.05379 0.58325 0.0
C1821 C 0.05105 0.07469 0.61142 0.0
C1822 C 0.05549 1.03092 0.61817 0.0
H1823 H 1.03238 0.11992 0.59206 0.0
H1824 H 0.06004 0.10215 0.61894 0.0
S1825 S 1.02635 0.93315 0.59305 0.0
N1826 N 1.01593 0.97435 0.5807 0.0
N1827 N 1.04384 0.95539 0.60983 0.0
C1828 C 1.04229 0.99903 0.60634 0.0
C1829 C 1.02633 1.00986 0.58972 0.0
C1830 C 0.27857 0.80633 0.85836 0.0
C1831 C 0.32258 0.81797 0.86352 0.0
C1832 C 0.26637 0.79041 0.84228 0.0
C1833 C 0.2965 0.78379 0.8291 0.0
H1834 H 0.25222 0.80967 0.86699 0.0
H1835 H 0.23194 0.78301 0.84024 0.0
S1836 S 0.41694 0.80681 0.83484 0.0
N1837 N 0.3966 0.81947 0.85252 0.0
N1838 N 0.37485 0.79079 0.82382 0.0
C1839 C 0.34063 0.79484 0.83415 0.0
C1840 C 0.35302 0.81118 0.85049 0.0
C1841 C 0.5324 0.07876 0.1105 0.0
C1842 C 0.51654 0.04851 0.12259 0.0
C1843 C 0.54833 0.06649 1.09438 0.0
C1844 C 0.54999 1.02234 1.08788 0.0
H1845 H 0.53283 0.11342 0.1135 0.0
H1846 H 0.55962 0.09302 1.08675 0.0
S1847 S 0.51194 0.92769 0.11327 0.0
N1848 N 0.50453 0.96983 0.12542 0.0
N1849 N 0.53209 0.94809 1.0965 0.0
C1850 C 0.53412 0.99176 0.09983 0.0
C1851 C 0.51837 1.00417 0.11632 0.0
C1852 C 0.29376 0.74889 0.35562 0.0
C1853 C 0.28938 0.77253 0.3705 0.0
C1854 C 0.2829 0.7664 0.33956 0.0
C1855 C 0.26557 0.80992 0.33601 0.0
H1856 H 0.3064 0.71556 0.35624 0.0
H1857 H 0.28827 0.74455 0.32958 0.0
S1858 S 0.24661 0.88882 0.36967 0.0
N1859 N 0.26557 0.84505 0.37921 0.0
N1860 N 0.24545 0.87589 0.35057 0.0
C1861 C 0.26089 0.83392 0.35077 0.0
C1862 C 0.27242 0.81627 0.36712 0.0
C1863 C 0.5394 1.03408 0.6109 0.0
C1864 C 0.56881 0.07001 0.61492 0.0
C1865 C 0.52183 1.02414 0.59481 0.0
C1866 C 0.53195 0.04799 0.58027 0.0
H1867 H 0.52904 1.01265 0.62053 0.0
H1868 H 0.49992 0.99613 0.59381 0.0
S1869 S 0.60538 0.14736 0.58249 0.0
N1870 N 0.60462 0.13095 0.60127 0.0
N1871 N 0.57461 0.11216 0.57244 0.0
C1872 C 0.56134 0.08401 0.58408 0.0
C1873 C 0.57846 0.09475 0.60055 0.0
C1874 C 0.23569 0.29509 0.83897 0.0
C1875 C 0.27933 0.28296 0.83331 0.0
C1876 C 0.22437 0.31051 0.85531 0.0
C1877 C 0.25507 0.31609 0.86838 0.0
H1878 H 0.20889 0.29252 0.83054 0.0
H1879 H 0.1901 0.3181 0.85767 0.0
S1880 S 0.37485 0.29061 0.86147 0.0
N1881 N 0.3535 0.27921 0.84388 0.0
N1882 N 0.33356 0.30705 0.87288 0.0
C1883 C 0.29874 0.30417 0.86283 0.0
C1884 C 0.31019 0.2884 0.84625 0.0
C1885 C 0.08163 0.08929 1.09371 0.0
C1886 C 0.07914 0.06123 1.07976 0.0
C1887 C 0.06522 0.07814 0.10996 0.0
C1888 C 1.04419 1.03715 0.11469 0.0
H1889 H 0.09672 0.12135 1.09213 0.0
H1890 H 0.06939 0.10286 0.1191 0.0
S1891 S 1.02597 0.94994 1.08378 0.0
N1892 N 0.05075 0.98877 1.07322 0.0
N1893 N 1.02217 0.96871 0.10218 0.0
C1894 C 1.04136 1.00895 0.10086 0.0
C1895 C 0.05771 1.02042 1.08431 0.0
C1896 C 0.84114 0.80616 0.8597 0.0
C1897 C 0.79894 0.78784 0.86453 0.0
C1898 C 0.85262 0.82279 0.84351 0.0
C1899 C 0.82355 0.82332 0.82983 0.0
H1900 H 0.86653 0.80802 0.8687 0.0
H1901 H 0.88559 0.83566 0.8418 0.0
S1902 S 0.70918 0.77724 0.83415 0.0
N1903 N 0.7286 0.77099 0.85237 0.0
N1904 N 0.749 0.80027 0.82355 0.0
C1905 C 0.7816 0.80439 0.83448 0.0
C1906 C 0.76993 0.78767 0.85092 0.0
C1907 C 0.76308 0.30732 0.35794 0.0
C1908 C 0.80717 0.31125 0.36445 0.0
C1909 C 0.75165 0.29065 0.34183 0.0
C1910 C 0.78265 0.27544 0.32987 0.0
H1911 H 0.73602 0.3177 0.36548 0.0
H1912 H 0.71705 0.29006 0.33872 0.0
S1913 S 0.9035 0.27523 0.33955 0.0
N1914 N 0.88213 0.29584 0.35605 0.0
N1915 N 0.86177 0.26542 0.32744 0.0
C1916 C 0.82678 0.27878 0.3363 0.0
C1917 C 0.83841 0.29594 0.35266 0.0
C1918 C 0.7259 0.29636 0.84839 0.0
C1919 C 0.75665 0.30945 0.83598 0.0
C1920 C 0.73772 0.2809 0.86466 0.0
C1921 C 0.78203 0.27606 0.87091 0.0
H1922 H 0.69116 0.29778 0.84552 0.0
H1923 H 0.71078 0.27213 0.87253 0.0
S1924 S 0.87792 0.30753 0.84492 0.0
N1925 N 0.83584 0.31741 0.83296 0.0
N1926 N 0.8569 0.2886 0.86177 0.0
C1927 C 0.81303 0.28928 0.85867 0.0
C1928 C 0.80099 0.30545 0.84217 0.0
C1929 C 0.73619 0.80277 0.35577 0.0
C1930 C 0.76635 0.80414 0.36908 0.0
C1931 C 0.74661 0.78597 0.33965 0.0
C1932 C 0.78836 0.76747 0.33464 0.0
H1933 H 0.70326 0.81547 0.35773 0.0
H1934 H 0.72049 0.78704 0.3309 0.0
S1935 S 0.8816 0.7617 0.3638 0.0
N1936 N 0.84219 0.78424 0.3747 0.0
N1937 N 0.86038 0.75297 0.34598 0.0
C1938 C 0.81866 0.76828 0.34786 0.0
C1939 C 0.80833 0.78615 0.3642 0.0
C1940 C 0.52487 0.49522 0.10873 0.0
C1941 C 0.53858 0.52657 0.12075 0.0
C1942 C 0.51084 0.50598 1.09222 0.0
C1943 C 0.50802 0.54976 1.08533 0.0
H1944 H 0.52466 0.46078 0.11212 0.0
H1945 H 0.50127 0.47868 1.08472 0.0
S1946 S 0.54311 0.64665 0.10993 0.0
N1947 N 0.5506 0.60546 0.12256 0.0
N1948 N 0.52389 0.62482 1.09334 0.0
C1949 C 0.52241 0.58134 1.09711 0.0
C1950 C 0.53742 0.5703 0.11383 0.0
C1951 C 1.03828 0.51376 0.61601 0.0
C1952 C 1.00491 0.54649 0.61979 0.0
C1953 C 0.05543 0.50313 0.59982 0.0
C1954 C 1.0427 0.52449 0.58504 0.0
H1955 H 0.05157 0.49497 0.62586 0.0
H1956 H 0.07996 0.4773 0.59902 0.0
S1957 S 0.95845 0.6152 0.58658 0.0
N1958 N 0.96147 0.6008 0.60554 0.0
N1959 N 0.99316 0.58305 0.57682 0.0
C1960 C 1.00999 0.55783 0.58871 0.0
C1961 C 0.9918 0.56794 0.60513 0.0
C1962 C 0.08155 0.58211 1.09828 0.0
C1963 C 0.06473 0.56385 0.11308 0.0
C1964 C 0.06668 0.57032 1.08198 0.0
C1965 C 1.03174 0.53959 1.07806 0.0
H1966 H 0.10774 0.60621 0.09918 0.0
H1967 H 0.0831 0.58658 1.07212 0.0
S1968 S 0.97379 0.48001 0.11132 0.0
N1969 N 1.00931 0.51068 0.12127 0.0
N1970 N 0.98145 0.4911 1.09224 0.0
C1971 C 1.01431 0.5214 1.09275 0.0
C1972 C 1.03029 0.53251 0.10934 0.0
C1973 C 0.54296 0.58452 0.60843 0.0
C1974 C 0.53682 0.54028 0.61457 0.0
C1975 C 0.55766 0.59609 0.59209 0.0
C1976 C 0.56866 0.56509 0.57962 0.0
H1977 H 0.53619 0.61151 0.61647 0.0
H1978 H 0.56042 0.63079 0.58925 0.0
S1979 S 0.5577 0.44393 0.58771 0.0
N1980 N 0.54284 0.4652 0.605 0.0
N1981 N 0.56984 0.48587 0.57589 0.0
C1982 C 0.56223 0.52082 0.58555 0.0
C1983 C 0.54692 0.50904 0.60214 0.0
C1984 C 0.37303 0.12779 0.45696 0.0
C1985 C 0.33767 0.15917 0.46051 0.0
C1986 C 0.40054 0.10177 0.46884 0.0
C1987 C 0.39885 0.10163 0.4865 0.0
H1988 H 0.38018 0.12241 0.44449 0.0
H1989 H 0.42478 0.0799 0.46364 0.0
S1990 S 0.31342 0.17668 0.50439 0.0
N1991 N 0.30541 0.18598 0.48522 0.0
N1992 N 0.35363 0.14017 0.50574 0.0
C1993 C 0.36375 0.13282 0.49024 0.0
C1994 C 0.33555 0.15939 0.47817 0.0
C1995 C 0.23778 0.14125 0.72068 0.0
C1996 C 0.23464 0.14312 0.73826 0.0
C1997 C 0.21108 0.1141 0.709 0.0
C1998 C 0.17564 0.08311 0.71281 0.0
H1999 H 0.26269 0.1622 0.7154 0.0
H2000 H 0.21938 0.1177 0.69652 0.0
S2001 S 0.14743 0.07088 0.7566 0.0
N2002 N 0.18794 0.10709 0.75773 0.0
N2003 N 0.14091 0.05939 0.73753 0.0
C2004 C 0.17203 0.08474 0.73038 0.0
C2005 C 0.19926 0.11256 0.74223 0.0
C2006 C 0.24063 0.97325 0.98732 0.0
C2007 C 0.21265 1.01128 0.98377 0.0
C2008 C 0.26644 0.94556 0.97548 0.0
C2009 C 0.26967 0.95003 0.95795 0.0
H2010 H 0.24287 0.96368 0.99971 0.0
H2011 H 0.28531 0.91878 0.9806 0.0
S2012 S 0.20523 1.0435 0.94022 0.0
N2013 N 0.19304 0.04955 0.95929 0.0
N2014 N 0.23832 1.00055 0.93883 0.0
C2015 C 0.24201 0.9878 0.95424 0.0
C2016 C 0.21566 1.01619 0.96625 0.0
C2017 C 0.31571 0.94825 0.22525 0.0
C2018 C 0.3171 0.94691 0.24284 0.0
C2019 C 0.34351 0.97488 0.21371 0.0
C2020 C 0.37871 1.00571 0.21769 0.0
H2021 H 0.29161 0.92689 0.21984 0.0
H2022 H 0.33671 0.97055 0.20117 0.0
S2023 S 0.40286 1.01936 0.26167 0.0
N2024 N 0.36201 0.98342 0.26261 0.0
N2025 N 0.41141 1.03009 0.2426 0.0
C2026 C 0.3808 1.00469 0.2353 0.0
C2027 C 0.35221 0.97746 0.24703 0.0
C2028 C 0.76542 0.95165 0.71665 0.0
C2029 C 0.76863 0.95389 0.73425 0.0
C2030 C 0.738 0.97921 0.7052 0.0
C2031 C 0.70767 1.0151 0.70921 0.0
H2032 H 0.78523 0.92641 0.71116 0.0
H2033 H 0.74099 0.97131 0.69268 0.0
S2034 S 0.69731 1.04066 0.75326 0.0
N2035 N 0.73348 1.00005 0.75402 0.0
N2036 N 0.68525 0.04843 0.73427 0.0
C2037 C 0.71038 1.01781 0.72682 0.0
C2038 C 0.73852 0.98959 0.73845 0.0
C2039 C 0.87353 1.01142 0.47155 0.0
C2040 C 0.87917 1.00621 0.48897 0.0
C2041 C 0.84676 0.98369 0.46004 0.0
C2042 C 0.82024 0.9447 0.46382 0.0
H2043 H 0.8911 1.03883 0.46625 0.0
H2044 H 0.84726 0.99384 0.44768 0.0
S2045 S 0.82052 0.90912 0.50712 0.0
N2046 N 0.8523 0.95316 0.50822 0.0
N2047 N 0.8056 0.90417 0.48829 0.0
C2048 C 0.82584 0.93891 0.48121 0.0
C2049 C 0.8531 0.96732 0.4929 0.0
C2050 C 0.8684 0.12384 0.20539 0.0
C2051 C 0.89791 0.08711 0.209 0.0
C2052 C 0.84067 0.14991 0.21712 0.0
C2053 C 0.83622 0.14487 0.23459 0.0
H2054 H 0.86639 0.13365 0.19302 0.0
H2055 H 0.82166 0.17632 0.21201 0.0
S2056 S 0.90435 0.05358 0.25246 0.0
N2057 N 0.91823 0.0492 0.23349 0.0
N2058 N 0.86874 0.09466 0.25375 0.0
C2059 C 0.86543 0.10807 0.23839 0.0
C2060 C 0.89416 0.08154 0.22649 0.0
C2061 C 0.71423 0.10724 0.99593 0.0
C2062 C 0.6767 0.07841 0.99269 0.0
C2063 C 0.74023 0.13426 0.98391 0.0
C2064 C 0.73466 0.13756 0.96643 0.0
H2065 H 0.72424 0.10982 1.00825 0.0
H2066 H 0.76673 0.15387 0.9888 0.0
S2067 S 0.64236 0.06958 0.94946 0.0
N2068 N 0.63752 0.05772 0.9686 0.0
N2069 N 0.6842 0.10415 0.9477 0.0
C2070 C 0.69763 0.10852 0.963 0.0
C2071 C 0.67063 0.0814 0.97524 0.0
C2072 C 0.84382 0.64514 0.97655 0.0
C2073 C 0.84518 0.64638 0.95893 0.0
C2074 C 0.87142 0.618 0.98802 0.0
C2075 C 0.90606 0.58642 0.98392 0.0
H2076 H 0.81974 0.66664 0.98203 0.0
H2077 H 0.86455 0.62216 1.00057 0.0
S2078 S 0.92946 0.5725 0.93985 0.0
N2079 N 0.88928 0.60916 0.93905 0.0
N2080 N 0.9379 0.5616 0.95888 0.0
C2081 C 0.90786 0.5875 0.9663 0.0
C2082 C 0.87972 0.61527 0.95467 0.0
C2083 C 0.70409 0.6142 0.21273 0.0
C2084 C 0.67324 0.57886 0.21672 0.0
C2085 C 0.73203 0.6406 0.22421 0.0
C2086 C 0.73471 0.63759 0.24177 0.0
H2087 H 0.70732 0.6223 0.20023 0.0
H2088 H 0.753 0.66526 0.21878 0.0
S2089 S 0.66422 0.54926 0.26047 0.0
N2090 N 0.65108 0.54342 0.2415 0.0
N2091 N 0.70032 0.58997 0.26143 0.0
C2092 C 0.70441 0.602 0.24594 0.0
C2093 C 0.67586 0.57487 0.23426 0.0
C2094 C 0.76434 0.45555 0.47679 0.0
C2095 C 0.76174 0.45355 0.45919 0.0
C2096 C 0.73764 0.48318 0.48841 0.0
C2097 C 0.70246 0.51446 0.48456 0.0
H2098 H 0.78856 0.43403 0.48216 0.0
H2099 H 0.74523 0.47915 0.50091 0.0
S2100 S 0.67548 0.52641 0.44072 0.0
N2101 N 0.71583 0.48999 0.43966 0.0
N2102 N 0.66845 0.53804 0.45977 0.0
C2103 C 0.69929 0.51263 0.46698 0.0
C2104 C 0.72676 0.48457 0.45518 0.0
C2105 C 0.80918 0.43718 0.72247 0.0
C2106 C 0.80801 0.43908 0.74008 0.0
C2107 C 0.83653 0.46366 0.71065 0.0
C2108 C 0.86837 0.49838 0.71428 0.0
H2109 H 0.78725 0.41351 0.71724 0.0
H2110 H 0.83175 0.4563 0.69817 0.0
S2111 S 0.88265 0.52427 0.75814 0.0
N2112 N 0.84586 0.4843 0.7594 0.0
N2113 N 0.89347 0.53158 0.73901 0.0
C2114 C 0.86725 0.50129 0.73191 0.0
C2115 C 0.8395 0.47378 0.74391 0.0
C2116 C 0.25911 0.45156 0.21614 0.0
C2117 C 0.25878 0.45221 0.23379 0.0
C2118 C 0.23165 0.47783 0.20434 0.0
C2119 C 0.19747 0.51031 0.208 0.0
H2120 H 0.28221 0.42889 0.21089 0.0
H2121 H 0.23794 0.47185 0.19184 0.0
S2122 S 0.177 0.5311 0.25191 0.0
N2123 N 0.21636 0.49359 0.25316 0.0
N2124 N 0.1675 0.53923 0.23277 0.0
C2125 C 0.19652 0.51147 0.22565 0.0
C2126 C 0.22493 0.48479 0.23764 0.0
C2127 C 0.36137 0.50716 0.97325 0.0
C2128 C 0.37038 0.49957 0.9904 0.0
C2129 C 0.33405 0.48006 0.96166 0.0
C2130 C 0.31132 0.43835 0.96489 0.0
H2131 H 0.37699 0.53587 0.96813 0.0
H2132 H 0.33142 0.49272 0.94964 0.0
S2133 S 0.3272 0.39219 1.00651 0.0
N2134 N 0.35359 0.43945 1.00835 0.0
N2135 N 0.3081 0.39039 0.98811 0.0
C2136 C 0.32189 0.42916 0.98182 0.0
C2137 C 0.34879 0.45757 0.99369 0.0
C2138 C 0.39589 0.58199 0.72671 0.0
C2139 C 0.40154 0.58719 0.70931 0.0
C2140 C 0.36924 0.60983 0.73819 0.0
C2141 C 0.34312 0.64885 0.73434 0.0
H2142 H 0.41332 0.55459 0.73201 0.0
H2143 H 0.36951 0.59977 0.75056 0.0
S2144 S 0.34357 0.6844 0.69103 0.0
N2145 N 0.37507 0.64009 0.68995 0.0
N2146 N 0.32898 0.68971 0.70989 0.0
C2147 C 0.34886 0.6548 0.71697 0.0
C2148 C 0.37584 0.62614 0.70529 0.0
C2149 C 0.17046 0.59095 0.47317 0.0
C2150 C 0.17894 0.58012 0.4901 0.0
C2151 C 0.19848 0.61664 0.46131 0.0
C2152 C 0.24142 0.63702 0.46419 0.0
H2153 H 0.13925 0.57975 0.46869 0.0
H2154 H 0.18499 0.62081 0.44949 0.0
S2155 S 0.28589 0.62448 0.506 0.0
N2156 N 0.2391 0.59713 0.50793 0.0
N2157 N 0.28838 0.64234 0.48745 0.0
C2158 C 0.25029 0.62708 0.48115 0.0
C2159 C 0.22155 0.60073 0.49318 0.0
C2160 C 0.3663 0.0925 0.35014 0.0
C2161 C 0.37038 0.06439 0.36346 0.0
C2162 C 0.35749 0.0749 0.3351 0.0
C2163 C 0.35339 1.02916 0.33322 0.0
H2164 H 0.36132 0.12759 0.35175 0.0
H2165 H 0.34609 0.09702 0.32582 0.0
S2166 S 0.38404 0.94338 0.36253 0.0
N2167 N 0.38723 0.99021 0.37248 0.0
N2168 N 0.37066 0.95701 0.3441 0.0
C2169 C 0.36944 1.00164 0.34536 0.0
C2170 C 0.37828 1.01951 0.36065 0.0
C2171 C 0.34769 0.84865 0.62799 0.0
C2172 C 0.3061 0.82996 0.62482 0.0
C2173 C 0.37754 0.85668 0.6156 0.0
C2174 C 0.36644 0.84603 0.59984 0.0
H2175 H 0.35448 0.86357 0.63943 0.0
H2176 H 0.40595 0.87731 0.61796 0.0
S2177 S 0.2705 0.78007 0.58681 0.0
N2178 N 0.26217 0.7881 0.60604 0.0
N2179 N 0.31814 0.80388 0.5826 0.0
C2180 C 0.32981 0.81875 0.59724 0.0
C2181 C 0.29947 0.81046 0.60987 0.0
C2182 C 0.30652 0.19308 0.8839 0.0
C2183 C 0.27272 0.17806 0.87379 0.0
C2184 C 0.31891 0.16778 0.89709 0.0
C2185 C 0.29659 0.12828 0.90045 0.0
H2186 H 0.32906 0.21834 0.87985 0.0
H2187 H 0.35069 0.17416 0.90249 0.0
S2188 S 0.18865 0.09411 0.88443 0.0
N2189 N 0.20475 0.13507 0.87279 0.0
N2190 N 0.22713 0.0892 0.8982 0.0
C2191 C 0.2545 0.12272 0.89393 0.0
C2192 C 0.24256 0.14743 0.88019 0.0
C2193 C 0.38012 1.02073 1.06071 0.0
C2194 C 0.39285 0.05722 1.05135 0.0
C2195 C 0.39254 1.01817 1.07668 0.0
C2196 C 0.41915 0.05116 1.08343 0.0
H2197 H 0.3543 0.99861 1.05683 0.0
H2198 H 0.37596 0.99399 1.08407 0.0
S2199 S 0.48138 0.13652 1.06108 0.0
N2200 N 0.44847 0.11406 1.04774 0.0
N2201 N 0.47172 0.10991 1.07792 0.0
C2202 C 0.44114 0.08022 1.07304 0.0
C2203 C 0.42865 0.08245 1.05675 0.0
C2204 C 0.76962 0.11555 0.80771 0.0
C2205 C 0.80606 0.12983 0.79862 0.0
C2206 C 0.7612 0.1338 0.82267 0.0
C2207 C 0.78854 0.16718 0.82875 0.0
H2208 H 0.75211 0.08565 0.80465 0.0
H2209 H 0.73745 0.11722 0.83026 0.0
S2210 S 0.87242 0.23003 0.80595 0.0
N2211 N 0.85785 0.18958 0.79395 0.0
N2212 N 0.84213 0.22397 0.82219 0.0
C2213 C 0.81774 0.18824 0.81817 0.0
C2214 C 0.8262 0.1697 0.80293 0.0
C2215 C 0.87859 1.01089 0.64452 0.0
C2216 C 0.88729 0.04843 0.65384 0.0
C2217 C 0.89489 1.00863 0.62897 0.0
C2218 C 0.92202 1.04253 0.62295 0.0
H2219 H 0.85221 0.98843 0.64769 0.0
H2220 H 0.88058 0.98423 0.62114 0.0
S2221 S 0.97761 0.12791 0.64718 0.0
N2222 N 0.94204 0.10448 0.6595 0.0
N2223 N 0.97237 0.10176 0.63006 0.0
C2224 C 0.94138 0.07134 0.634 0.0
C2225 C 0.92513 0.07277 0.64989 0.0
C2226 C 0.82332 0.94668 0.32536 0.0
C2227 C 0.78891 0.91749 0.32937 0.0
C2228 C 0.82418 0.96744 0.31049 0.0
C2229 C 0.78982 0.96038 0.29954 0.0
H2230 H 0.84578 0.95864 0.33438 0.0
H2231 H 0.84684 0.99474 0.30898 0.0
S2232 S 0.70746 0.8706 0.30134 0.0
N2233 N 0.73098 0.87022 0.31906 0.0
N2234 N 0.73301 0.90935 0.29098 0.0
C2235 C 0.76322 0.92298 0.30183 0.0
C2236 C 0.76198 0.90201 0.317 0.0
C2237 C 0.92299 1.00906 1.06039 0.0
C2238 C 0.92315 1.04414 1.07137 0.0
C2239 C 0.89205 1.0084 1.04802 0.0
C2240 C 0.86137 1.04287 1.04663 0.0
H2241 H 0.94077 0.97894 1.06302 0.0
H2242 H 0.88636 0.97744 1.04196 0.0
S2243 S 0.86862 0.15249 1.0653 0.0
N2244 N 0.90476 0.12191 1.07502 0.0
N2245 N 0.84827 0.12048 1.05125 0.0
C2246 C 0.87205 0.08314 1.05377 0.0
C2247 C 0.90243 0.0837 1.06666 0.0
C2248 C 0.79816 0.67166 0.81242 0.0
C2249 C 0.82712 0.66242 0.82506 0.0
C2250 C 0.79306 0.64116 0.80008 0.0
C2251 C 0.81748 0.60185 0.80019 0.0
H2252 H 0.7737 0.6975 0.81365 0.0
H2253 H 0.76408 0.64394 0.79264 0.0
S2254 S 0.91385 0.57622 0.82527 0.0
N2255 N 0.89247 0.62126 0.83315 0.0
N2256 N 0.88385 0.56553 0.80936 0.0
C2257 C 0.85541 0.60017 0.80967 0.0
C2258 C 0.85987 0.63022 0.82255 0.0
C2259 C 0.73616 0.53171 1.06936 0.0
C2260 C 0.7723 0.51894 1.07891 0.0
C2261 C 0.70096 0.55539 1.07579 0.0
C2262 C 0.7016 0.56786 1.09182 0.0
H2263 H 0.73345 0.52073 1.05714 0.0
H2264 H 0.67099 0.55874 1.06889 0.0
S2265 S 0.7944 0.55572 0.12026 0.0
N2266 N 0.8098 0.52809 0.10433 0.0
N2267 N 0.74646 0.57774 0.1156 0.0
C2268 C 0.7414 0.56347 0.10036 0.0
C2269 C 0.77593 0.53694 1.09422 0.0
C2270 C 0.77319 0.44029 0.31878 0.0
C2271 C 0.80621 0.41233 0.32486 0.0
C2272 C 0.77741 0.45841 0.30355 0.0
C2273 C 0.8157 0.45028 0.29448 0.0
H2274 H 0.74795 0.4539 0.32647 0.0
H2275 H 0.75538 0.48521 0.30047 0.0
S2276 S 0.89537 0.36004 0.30134 0.0
N2277 N 0.86581 0.36227 0.31787 0.0
N2278 N 0.87451 0.39789 0.28935 0.0
C2279 C 0.8409 0.41315 0.29855 0.0
C2280 C 0.83642 0.39421 0.31397 0.0
C2281 C 0.64344 0.5917 0.62541 0.0
C2282 C 0.65339 0.63097 0.61717 0.0
C2283 C 0.65251 0.58774 0.64169 0.0
C2284 C 0.67523 0.62178 0.64957 0.0
H2285 H 0.63418 0.56235 0.6189 0.0
H2286 H 0.65103 0.55514 0.64696 0.0
S2287 S 0.68521 0.73731 0.6354 0.0
N2288 N 0.66891 0.70928 0.61967 0.0
N2289 N 0.68711 0.70126 0.65013 0.0
C2290 C 0.67316 0.66413 0.64264 0.0
C2291 C 0.66322 0.66858 0.62616 0.0
C2292 C 0.50209 0.52708 0.36319 0.0
C2293 C 0.50999 0.57266 0.36454 0.0
C2294 C 0.50058 0.507 0.34827 0.0
C2295 C 0.50708 0.53189 0.33432 0.0
H2296 H 0.49051 0.50808 0.37331 0.0
H2297 H 0.4881 0.47358 0.34768 0.0
S2298 S 0.54831 0.64668 0.33219 0.0
N2299 N 0.53915 0.63796 0.35135 0.0
N2300 N 0.53585 0.60006 0.32311 0.0
C2301 C 0.52406 0.57477 0.3358 0.0
C2302 C 0.5258 0.59521 0.35103 0.0
C2303 C 0.38652 0.50058 0.13027 0.0
C2304 C 0.41096 0.53676 0.1244 0.0
C2305 C 0.37161 0.50031 0.14604 0.0
C2306 C 0.3772 0.53838 0.15538 0.0
H2307 H 0.37336 0.47579 0.12235 0.0
H2308 H 0.34723 0.47573 0.14925 0.0
S2309 S 0.46301 0.62269 0.14947 0.0
N2310 N 0.45812 0.59823 0.13201 0.0
N2311 N 0.42968 0.59585 0.16169 0.0
C2312 C 0.41422 0.56418 0.15175 0.0
C2313 C 0.42934 0.56556 0.13571 0.0
C2314 C 0.31147 0.62763 0.8748 0.0
C2315 C 0.28387 0.66208 0.86965 0.0
C2316 C 0.30489 0.60773 0.88964 0.0
C2317 C 0.27 0.62126 0.89959 0.0
H2318 H 0.33415 0.61189 0.86661 0.0
H2319 H 0.32257 0.57738 0.89199 0.0
S2320 S 0.20378 0.72294 0.89468 0.0
N2321 N 0.23176 0.7186 0.87784 0.0
N2322 N 0.21926 0.6808 0.90586 0.0
C2323 C 0.24938 0.66163 0.89608 0.0
C2324 C 0.25602 0.68195 0.88094 0.0
C2325 C 0.36244 0.57683 0.55859 0.0
C2326 C 0.3665 0.53997 0.54853 0.0
C2327 C 0.38954 0.58099 0.57189 0.0
C2328 C 0.42155 0.5487 0.57526 0.0
H2329 H 0.33375 0.59803 0.55804 0.0
H2330 H 0.38011 0.60517 0.58073 0.0
S2331 S 0.46182 0.46379 0.54721 0.0
N2332 N 0.41686 0.48375 0.53875 0.0
N2333 N 0.46838 0.49182 0.56389 0.0
C2334 C 0.43358 0.51988 0.56294 0.0
C2335 C 0.40586 0.51561 0.54938 0.0
loop_
_geom_bond_atom_site_label_1
_geom_bond_atom_site_label_2
_geom_bond_distance
_geom_bond_site_symmetry_2
_ccdc_geom_bond_type
C0 Eu1 2.835 . S
C0 C2 1.500 . S
C0 O20 1.257 . S
C0 O21 1.260 . S
Eu1 C0 2.835 . S
Eu1 O20 2.473 . S
Eu1 O21 2.480 . S
Eu1 O22 2.430 . S
Eu1 O23 2.670 . S
Eu1 O24 2.394 . S
Eu1 O29 2.355 . S
Eu1 O31 2.374 . S
C2 C0 1.500 . S
C2 C3 1.377 . S
C2 C7 1.377 . S
C3 C2 1.377 . S
C3 C4 1.395 . S
C3 H32 0.931 . S
C4 C3 1.395 . S
C4 C5 1.383 . S
C4 H33 0.931 . S
C5 C4 1.383 . S
C5 C6 1.394 . S
C6 C5 1.394 . S
C6 C7 1.378 . S
C6 H34 0.931 . S
C7 C2 1.377 . S
C7 C6 1.378 . S
C7 H35 0.931 . S
C8 O22 1.259 . S
C8 O23 1.270 . S
C9 O24 1.251 . S
C9 O25 1.251 . S
C10 Eu11 2.835 . S
C10 C12 1.500 . S
C10 O26 1.257 . S
C10 O27 1.260 . S
Eu11 C10 2.835 . S
Eu11 O23 2.355 . S
Eu11 O25 2.374 . S
Eu11 O26 2.473 . S
Eu11 O27 2.480 . S
Eu11 O28 2.430 . S
Eu11 O29 2.670 . S
Eu11 O30 2.394 . S
C12 C10 1.500 . S
C12 C13 1.377 . S
C12 C17 1.377 . S
C13 C12 1.377 . S
C13 C14 1.395 . S
C13 H36 0.931 . S
C14 C13 1.395 . S
C14 C15 1.383 . S
C14 H37 0.931 . S
C15 C14 1.383 . S
C15 C16 1.394 . S
C16 C15 1.394 . S
C16 C17 1.378 . S
C16 H38 0.931 . S
C17 C12 1.377 . S
C17 C16 1.378 . S
C17 H39 0.931 . S
C18 O28 1.259 . S
C18 O29 1.270 . S
C19 O30 1.251 . S
C19 O31 1.251 . S
O20 C0 1.257 . S
O20 Eu1 2.473 . S
O21 C0 1.260 . S
O21 Eu1 2.480 . S
O22 Eu1 2.430 . S
O22 C8 1.259 . S
O23 Eu1 2.670 . S
O23 C8 1.270 . S
O23 Eu11 2.355 . S
O24 Eu1 2.394 . S
O24 C9 1.251 . S
O25 C9 1.251 . S
O25 Eu11 2.374 . S
O26 C10 1.257 . S
O26 Eu11 2.473 . S
O27 C10 1.260 . S
O27 Eu11 2.480 . S
O28 Eu11 2.430 . S
O28 C18 1.259 . S
O29 Eu1 2.355 . S
O29 Eu11 2.670 . S
O29 C18 1.270 . S
O30 Eu11 2.394 . S
O30 C19 1.251 . S
O31 Eu1 2.374 . S
O31 C19 1.251 . S
H32 C3 0.931 . S
H33 C4 0.931 . S
H34 C6 0.931 . S
H35 C7 0.931 . S
H36 C13 0.931 . S
H37 C14 0.931 . S
H38 C16 0.931 . S
H39 C17 0.931 . S
C40 Eu41 2.835 . S
C40 C42 1.500 . S
C40 O60 1.257 . S
C40 O61 1.260 . S
Eu41 C40 2.835 . S
Eu41 O60 2.473 . S
Eu41 O61 2.480 . S
Eu41 O62 2.430 . S
Eu41 O63 2.670 . S
Eu41 O64 2.394 . S
Eu41 O69 2.355 . S
Eu41 O71 2.374 . S
C42 C40 1.500 . S
C42 C43 1.377 . S
C42 C47 1.377 1_565 S
C43 C42 1.377 . S
C43 C44 1.395 . S
C43 H72 0.931 . S
C44 C43 1.395 . S
C44 C45 1.383 . S
C44 H73 0.931 . S
C45 C44 1.383 . S
C45 C46 1.394 1_565 S
C46 C45 1.394 1_545 S
C46 C47 1.378 . S
C46 H74 0.931 . S
C47 C42 1.377 1_545 S
C47 C46 1.378 . S
C47 H75 0.931 . S
C48 O62 1.259 . S
C48 O63 1.270 . S
C49 O64 1.251 . S
C49 O65 1.251 1_455 S
C50 Eu51 2.835 . S
C50 C52 1.500 . S
C50 O66 1.257 . S
C50 O67 1.260 . S
Eu51 C50 2.835 . S
Eu51 O63 2.355 1_655 S
Eu51 O65 2.374 . S
Eu51 O66 2.473 . S
Eu51 O67 2.480 . S
Eu51 O68 2.430 1_665 S
Eu51 O69 2.670 1_655 S
Eu51 O70 2.394 1_655 S
C52 C50 1.500 . S
C52 C53 1.377 . S
C52 C57 1.377 . S
C53 C52 1.377 . S
C53 C54 1.395 . S
C53 H76 0.931 . S
C54 C53 1.395 . S
C54 C55 1.383 . S
C54 H77 0.931 . S
C55 C54 1.383 . S
C55 C56 1.394 . S
C56 C55 1.394 . S
C56 C57 1.378 . S
C56 H78 0.931 . S
C57 C52 1.377 . S
C57 C56 1.378 . S
C57 H79 0.931 . S
C58 O68 1.259 . S
C58 O69 1.270 1_545 S
C59 O70 1.251 . S
C59 O71 1.251 . S
O60 C40 1.257 . S
O60 Eu41 2.473 . S
O61 C40 1.260 . S
O61 Eu41 2.480 . S
O62 Eu41 2.430 . S
O62 C48 1.259 . S
O63 Eu41 2.670 . S
O63 C48 1.270 . S
O63 Eu51 2.355 1_455 S
O64 Eu41 2.394 . S
O64 C49 1.251 . S
O65 C49 1.251 1_655 S
O65 Eu51 2.374 . S
O66 C50 1.257 . S
O66 Eu51 2.473 . S
O67 C50 1.260 . S
O67 Eu51 2.480 . S
O68 Eu51 2.430 1_445 S
O68 C58 1.259 . S
O69 Eu41 2.355 . S
O69 Eu51 2.670 1_455 S
O69 C58 1.270 1_565 S
O70 Eu51 2.394 1_455 S
O70 C59 1.251 . S
O71 Eu41 2.374 . S
O71 C59 1.251 . S
H72 C43 0.931 . S
H73 C44 0.931 . S
H74 C46 0.931 . S
H75 C47 0.931 . S
H76 C53 0.931 . S
H77 C54 0.931 . S
H78 C56 0.931 . S
H79 C57 0.931 . S
C80 Eu81 2.835 . S
C80 C82 1.500 . S
C80 O100 1.257 . S
C80 O101 1.260 . S
Eu81 C80 2.835 . S
Eu81 O100 2.473 . S
Eu81 O101 2.480 . S
Eu81 O102 2.430 . S
Eu81 O103 2.670 . S
Eu81 O104 2.394 . S
Eu81 O109 2.355 . S
Eu81 O111 2.374 . S
C82 C80 1.500 . S
C82 C83 1.377 . S
C82 C87 1.377 . S
C83 C82 1.377 . S
C83 C84 1.395 . S
C83 H112 0.931 . S
C84 C83 1.395 . S
C84 C85 1.383 . S
C84 H113 0.931 . S
C85 C84 1.383 . S
C85 C86 1.394 . S
C86 C85 1.394 . S
C86 C87 1.378 . S
C86 H114 0.931 . S
C87 C82 1.377 . S
C87 C86 1.378 . S
C87 H115 0.931 . S
C88 O102 1.259 . S
C88 O103 1.270 . S
C89 O104 1.251 . S
C89 O105 1.251 . S
C90 Eu91 2.835 . S
C90 C92 1.500 . S
C90 O106 1.257 . S
C90 O107 1.260 . S
Eu91 C90 2.835 . S
Eu91 O103 2.355 . S
Eu91 O105 2.374 . S
Eu91 O106 2.473 . S
Eu91 O107 2.480 . S
Eu91 O108 2.430 . S
Eu91 O109 2.670 . S
Eu91 O110 2.394 . S
C92 C90 1.500 . S
C92 C93 1.377 . S
C92 C97 1.377 . S
C93 C92 1.377 . S
C93 C94 1.395 . S
C93 H116 0.931 . S
C94 C93 1.395 . S
C94 C95 1.383 . S
C94 H117 0.931 . S
C95 C94 1.383 . S
C95 C96 1.394 . S
C96 C95 1.394 . S
C96 C97 1.378 . S
C96 H118 0.931 . S
C97 C92 1.377 . S
C97 C96 1.378 . S
C97 H119 0.931 . S
C98 O108 1.259 . S
C98 O109 1.270 . S
C99 O110 1.251 . S
C99 O111 1.251 . S
O100 C80 1.257 . S
O100 Eu81 2.473 . S
O101 C80 1.260 . S
O101 Eu81 2.480 . S
O102 Eu81 2.430 . S
O102 C88 1.259 . S
O103 Eu81 2.670 . S
O103 C88 1.270 . S
O103 Eu91 2.355 . S
O104 Eu81 2.394 . S
O104 C89 1.251 . S
O105 C89 1.251 . S
O105 Eu91 2.374 . S
O106 C90 1.257 . S
O106 Eu91 2.473 . S
O107 C90 1.260 . S
O107 Eu91 2.480 . S
O108 Eu91 2.430 . S
O108 C98 1.259 . S
O109 Eu81 2.355 . S
O109 Eu91 2.670 . S
O109 C98 1.270 . S
O110 Eu91 2.394 . S
O110 C99 1.251 . S
O111 Eu81 2.374 . S
O111 C99 1.251 . S
H112 C83 0.931 . S
H113 C84 0.931 . S
H114 C86 0.931 . S
H115 C87 0.931 . S
H116 C93 0.931 . S
H117 C94 0.931 . S
H118 C96 0.931 . S
H119 C97 0.931 . S
C120 Eu121 2.835 . S
C120 C122 1.500 . S
C120 O140 1.257 . S
C120 O141 1.260 . S
Eu121 C120 2.835 . S
Eu121 O140 2.473 . S
Eu121 O141 2.480 . S
Eu121 O142 2.430 . S
Eu121 O143 2.670 . S
Eu121 O144 2.394 . S
Eu121 O149 2.355 . S
Eu121 O151 2.374 . S
C122 C120 1.500 . S
C122 C123 1.377 . S
C122 C127 1.377 1_545 S
C123 C122 1.377 . S
C123 C124 1.395 . S
C123 H152 0.931 . S
C124 C123 1.395 . S
C124 C125 1.383 . S
C124 H153 0.931 . S
C125 C124 1.383 . S
C125 C126 1.394 1_545 S
C126 C125 1.394 1_565 S
C126 C127 1.378 . S
C126 H154 0.931 . S
C127 C122 1.377 1_565 S
C127 C126 1.378 . S
C127 H155 0.931 . S
C128 O142 1.259 . S
C128 O143 1.270 . S
C129 O144 1.251 . S
C129 O145 1.251 . S
C130 Eu131 2.835 . S
C130 C132 1.500 . S
C130 O146 1.257 . S
C130 O147 1.260 . S
Eu131 C130 2.835 . S
Eu131 O143 2.355 . S
Eu131 O145 2.374 . S
Eu131 O146 2.473 . S
Eu131 O147 2.480 . S
Eu131 O148 2.430 1_545 S
Eu131 O149 2.670 . S
Eu131 O150 2.394 . S
C132 C130 1.500 . S
C132 C133 1.377 . S
C132 C137 1.377 . S
C133 C132 1.377 . S
C133 C134 1.395 . S
C133 H156 0.931 . S
C134 C133 1.395 . S
C134 C135 1.383 . S
C134 H157 0.931 . S
C135 C134 1.383 . S
C135 C136 1.394 . S
C136 C135 1.394 . S
C136 C137 1.378 . S
C136 H158 0.931 . S
C137 C132 1.377 . S
C137 C136 1.378 . S
C137 H159 0.931 . S
C138 O148 1.259 . S
C138 O149 1.270 1_565 S
C139 O150 1.251 . S
C139 O151 1.251 . S
O140 C120 1.257 . S
O140 Eu121 2.473 . S
O141 C120 1.260 . S
O141 Eu121 2.480 . S
O142 Eu121 2.430 . S
O142 C128 1.259 . S
O143 Eu121 2.670 . S
O143 C128 1.270 . S
O143 Eu131 2.355 . S
O144 Eu121 2.394 . S
O144 C129 1.251 . S
O145 C129 1.251 . S
O145 Eu131 2.374 . S
O146 C130 1.257 . S
O146 Eu131 2.473 . S
O147 C130 1.260 . S
O147 Eu131 2.480 . S
O148 Eu131 2.430 1_565 S
O148 C138 1.259 . S
O149 Eu121 2.355 . S
O149 Eu131 2.670 . S
O149 C138 1.270 1_545 S
O150 Eu131 2.394 . S
O150 C139 1.251 . S
O151 Eu121 2.374 . S
O151 C139 1.251 . S
H152 C123 0.931 . S
H153 C124 0.931 . S
H154 C126 0.931 . S
H155 C127 0.931 . S
H156 C133 0.931 . S
H157 C134 0.931 . S
H158 C136 0.931 . S
H159 C137 0.931 . S
C160 Eu161 2.835 . S
C160 C162 1.500 . S
C160 O180 1.257 . S
C160 O181 1.260 . S
Eu161 C160 2.835 . S
Eu161 O180 2.473 . S
Eu161 O181 2.480 . S
Eu161 O182 2.430 . S
Eu161 O183 2.670 . S
Eu161 O184 2.394 . S
Eu161 O189 2.355 . S
Eu161 O191 2.374 . S
C162 C160 1.500 . S
C162 C163 1.377 . S
C162 C167 1.377 . S
C163 C162 1.377 . S
C163 C164 1.395 . S
C163 H192 0.931 . S
C164 C163 1.395 . S
C164 C165 1.383 . S
C164 H193 0.931 . S
C165 C164 1.383 . S
C165 C166 1.394 . S
C166 C165 1.394 . S
C166 C167 1.378 . S
C166 H194 0.931 . S
C167 C162 1.377 . S
C167 C166 1.378 . S
C167 H195 0.931 . S
C168 O182 1.259 . S
C168 O183 1.270 . S
C169 O184 1.251 . S
C169 O185 1.251 . S
C170 Eu171 2.835 . S
C170 C172 1.500 . S
C170 O186 1.257 . S
C170 O187 1.260 . S
Eu171 C170 2.835 . S
Eu171 O183 2.355 . S
Eu171 O185 2.374 . S
Eu171 O186 2.473 . S
Eu171 O187 2.480 . S
Eu171 O188 2.430 . S
Eu171 O189 2.670 . S
Eu171 O190 2.394 . S
C172 C170 1.500 . S
C172 C173 1.377 . S
C172 C177 1.377 . S
C173 C172 1.377 . S
C173 C174 1.395 . S
C173 H196 0.931 . S
C174 C173 1.395 . S
C174 C175 1.383 . S
C174 H197 0.931 . S
C175 C174 1.383 . S
C175 C176 1.394 . S
C176 C175 1.394 . S
C176 C177 1.378 . S
C176 H198 0.931 . S
C177 C172 1.377 . S
C177 C176 1.378 . S
C177 H199 0.931 . S
C178 O188 1.259 . S
C178 O189 1.270 . S
C179 O190 1.251 . S
C179 O191 1.251 . S
O180 C160 1.257 . S
O180 Eu161 2.473 . S
O181 C160 1.260 . S
O181 Eu161 2.480 . S
O182 Eu161 2.430 . S
O182 C168 1.259 . S
O183 Eu161 2.670 . S
O183 C168 1.270 . S
O183 Eu171 2.355 . S
O184 Eu161 2.394 . S
O184 C169 1.251 . S
O185 C169 1.251 . S
O185 Eu171 2.374 . S
O186 C170 1.257 . S
O186 Eu171 2.473 . S
O187 C170 1.260 . S
O187 Eu171 2.480 . S
O188 Eu171 2.430 . S
O188 C178 1.259 . S
O189 Eu161 2.355 . S
O189 Eu171 2.670 . S
O189 C178 1.270 . S
O190 Eu171 2.394 . S
O190 C179 1.251 . S
O191 Eu161 2.374 . S
O191 C179 1.251 . S
H192 C163 0.931 . S
H193 C164 0.931 . S
H194 C166 0.931 . S
H195 C167 0.931 . S
H196 C173 0.931 . S
H197 C174 0.931 . S
H198 C176 0.931 . S
H199 C177 0.931 . S
C200 Eu201 2.835 . S
C200 C202 1.500 . S
C200 O220 1.257 . S
C200 O221 1.260 . S
Eu201 C200 2.835 . S
Eu201 O220 2.473 . S
Eu201 O221 2.480 . S
Eu201 O222 2.430 . S
Eu201 O223 2.670 . S
Eu201 O224 2.394 . S
Eu201 O229 2.355 . S
Eu201 O231 2.374 . S
C202 C200 1.500 . S
C202 C203 1.377 . S
C202 C207 1.377 1_565 S
C203 C202 1.377 . S
C203 C204 1.395 . S
C203 H232 0.931 . S
C204 C203 1.395 . S
C204 C205 1.383 . S
C204 H233 0.931 . S
C205 C204 1.383 . S
C205 C206 1.394 1_565 S
C206 C205 1.394 1_545 S
C206 C207 1.378 . S
C206 H234 0.931 . S
C207 C202 1.377 1_545 S
C207 C206 1.378 . S
C207 H235 0.931 . S
C208 O222 1.259 . S
C208 O223 1.270 . S
C209 O224 1.251 . S
C209 O225 1.251 . S
C210 Eu211 2.835 . S
C210 C212 1.500 . S
C210 O226 1.257 . S
C210 O227 1.260 . S
Eu211 C210 2.835 . S
Eu211 O223 2.355 . S
Eu211 O225 2.374 . S
Eu211 O226 2.473 . S
Eu211 O227 2.480 . S
Eu211 O228 2.430 1_565 S
Eu211 O229 2.670 . S
Eu211 O230 2.394 . S
C212 C210 1.500 . S
C212 C213 1.377 . S
C212 C217 1.377 . S
C213 C212 1.377 . S
C213 C214 1.395 . S
C213 H236 0.931 . S
C214 C213 1.395 . S
C214 C215 1.383 . S
C214 H237 0.931 . S
C215 C214 1.383 . S
C215 C216 1.394 . S
C216 C215 1.394 . S
C216 C217 1.378 . S
C216 H238 0.931 . S
C217 C212 1.377 . S
C217 C216 1.378 . S
C217 H239 0.931 . S
C218 O228 1.259 . S
C218 O229 1.270 1_545 S
C219 O230 1.251 . S
C219 O231 1.251 . S
O220 C200 1.257 . S
O220 Eu201 2.473 . S
O221 C200 1.260 . S
O221 Eu201 2.480 . S
O222 Eu201 2.430 . S
O222 C208 1.259 . S
O223 Eu201 2.670 . S
O223 C208 1.270 . S
O223 Eu211 2.355 . S
O224 Eu201 2.394 . S
O224 C209 1.251 . S
O225 C209 1.251 . S
O225 Eu211 2.374 . S
O226 C210 1.257 . S
O226 Eu211 2.473 . S
O227 C210 1.260 . S
O227 Eu211 2.480 . S
O228 Eu211 2.430 1_545 S
O228 C218 1.259 . S
O229 Eu201 2.355 . S
O229 Eu211 2.670 . S
O229 C218 1.270 1_565 S
O230 Eu211 2.394 . S
O230 C219 1.251 . S
O231 Eu201 2.374 . S
O231 C219 1.251 . S
H232 C203 0.931 . S
H233 C204 0.931 . S
H234 C206 0.931 . S
H235 C207 0.931 . S
H236 C213 0.931 . S
H237 C214 0.931 . S
H238 C216 0.931 . S
H239 C217 0.931 . S
C240 Eu241 2.835 . S
C240 C242 1.500 . S
C240 O260 1.257 . S
C240 O261 1.260 . S
Eu241 C240 2.835 . S
Eu241 O260 2.473 . S
Eu241 O261 2.480 . S
Eu241 O262 2.430 . S
Eu241 O263 2.670 . S
Eu241 O264 2.394 . S
Eu241 O269 2.355 . S
Eu241 O271 2.374 . S
C242 C240 1.500 . S
C242 C243 1.377 . S
C242 C247 1.377 . S
C243 C242 1.377 . S
C243 C244 1.395 . S
C243 H272 0.931 . S
C244 C243 1.395 . S
C244 C245 1.383 . S
C244 H273 0.931 . S
C245 C244 1.383 . S
C245 C246 1.394 . S
C246 C245 1.394 . S
C246 C247 1.378 . S
C246 H274 0.931 . S
C247 C242 1.377 . S
C247 C246 1.378 . S
C247 H275 0.931 . S
C248 O262 1.259 . S
C248 O263 1.270 . S
C249 O264 1.251 . S
C249 O265 1.251 . S
C250 Eu251 2.835 . S
C250 C252 1.500 . S
C250 O266 1.257 . S
C250 O267 1.260 . S
Eu251 C250 2.835 . S
Eu251 O263 2.355 . S
Eu251 O265 2.374 . S
Eu251 O266 2.473 . S
Eu251 O267 2.480 . S
Eu251 O268 2.430 . S
Eu251 O269 2.670 . S
Eu251 O270 2.394 . S
C252 C250 1.500 . S
C252 C253 1.377 . S
C252 C257 1.377 . S
C253 C252 1.377 . S
C253 C254 1.395 . S
C253 H276 0.931 . S
C254 C253 1.395 . S
C254 C255 1.383 . S
C254 H277 0.931 . S
C255 C254 1.383 . S
C255 C256 1.394 . S
C256 C255 1.394 . S
C256 C257 1.378 . S
C256 H278 0.931 . S
C257 C252 1.377 . S
C257 C256 1.378 . S
C257 H279 0.931 . S
C258 O268 1.259 . S
C258 O269 1.270 . S
C259 O270 1.251 . S
C259 O271 1.251 . S
O260 C240 1.257 . S
O260 Eu241 2.473 . S
O261 C240 1.260 . S
O261 Eu241 2.480 . S
O262 Eu241 2.430 . S
O262 C248 1.259 . S
O263 Eu241 2.670 . S
O263 C248 1.270 . S
O263 Eu251 2.355 . S
O264 Eu241 2.394 . S
O264 C249 1.251 . S
O265 C249 1.251 . S
O265 Eu251 2.374 . S
O266 C250 1.257 . S
O266 Eu251 2.473 . S
O267 C250 1.260 . S
O267 Eu251 2.480 . S
O268 Eu251 2.430 . S
O268 C258 1.259 . S
O269 Eu241 2.355 . S
O269 Eu251 2.670 . S
O269 C258 1.270 . S
O270 Eu251 2.394 . S
O270 C259 1.251 . S
O271 Eu241 2.374 . S
O271 C259 1.251 . S
H272 C243 0.931 . S
H273 C244 0.931 . S
H274 C246 0.931 . S
H275 C247 0.931 . S
H276 C253 0.931 . S
H277 C254 0.931 . S
H278 C256 0.931 . S
H279 C257 0.931 . S
C280 Eu281 2.835 . S
C280 C282 1.500 . S
C280 O300 1.257 . S
C280 O301 1.260 . S
Eu281 C280 2.835 . S
Eu281 O300 2.473 . S
Eu281 O301 2.480 . S
Eu281 O302 2.430 . S
Eu281 O303 2.670 . S
Eu281 O304 2.394 . S
Eu281 O309 2.355 . S
Eu281 O311 2.374 . S
C282 C280 1.500 . S
C282 C283 1.377 . S
C282 C287 1.377 1_545 S
C283 C282 1.377 . S
C283 C284 1.395 . S
C283 H312 0.931 . S
C284 C283 1.395 . S
C284 C285 1.383 . S
C284 H313 0.931 . S
C285 C284 1.383 . S
C285 C286 1.394 1_545 S
C286 C285 1.394 1_565 S
C286 C287 1.378 . S
C286 H314 0.931 . S
C287 C282 1.377 1_565 S
C287 C286 1.378 . S
C287 H315 0.931 . S
C288 O302 1.259 . S
C288 O303 1.270 . S
C289 O304 1.251 . S
C289 O305 1.251 1_455 S
C290 Eu291 2.835 . S
C290 C292 1.500 . S
C290 O306 1.257 . S
C290 O307 1.260 . S
Eu291 C290 2.835 . S
Eu291 O303 2.355 1_655 S
Eu291 O305 2.374 . S
Eu291 O306 2.473 . S
Eu291 O307 2.480 . S
Eu291 O308 2.430 1_645 S
Eu291 O309 2.670 1_655 S
Eu291 O310 2.394 1_655 S
C292 C290 1.500 . S
C292 C293 1.377 . S
C292 C297 1.377 . S
C293 C292 1.377 . S
C293 C294 1.395 . S
C293 H316 0.931 . S
C294 C293 1.395 . S
C294 C295 1.383 . S
C294 H317 0.931 . S
C295 C294 1.383 . S
C295 C296 1.394 . S
C296 C295 1.394 . S
C296 C297 1.378 . S
C296 H318 0.931 . S
C297 C292 1.377 . S
C297 C296 1.378 . S
C297 H319 0.931 . S
C298 O308 1.259 . S
C298 O309 1.270 1_565 S
C299 O310 1.251 . S
C299 O311 1.251 . S
O300 C280 1.257 . S
O300 Eu281 2.473 . S
O301 C280 1.260 . S
O301 Eu281 2.480 . S
O302 Eu281 2.430 . S
O302 C288 1.259 . S
O303 Eu281 2.670 . S
O303 C288 1.270 . S
O303 Eu291 2.355 1_455 S
O304 Eu281 2.394 . S
O304 C289 1.251 . S
O305 C289 1.251 1_655 S
O305 Eu291 2.374 . S
O306 C290 1.257 . S
O306 Eu291 2.473 . S
O307 C290 1.260 . S
O307 Eu291 2.480 . S
O308 Eu291 2.430 1_465 S
O308 C298 1.259 . S
O309 Eu281 2.355 . S
O309 Eu291 2.670 1_455 S
O309 C298 1.270 1_545 S
O310 Eu291 2.394 1_455 S
O310 C299 1.251 . S
O311 Eu281 2.374 . S
O311 C299 1.251 . S
H312 C283 0.931 . S
H313 C284 0.931 . S
H314 C286 0.931 . S
H315 C287 0.931 . S
H316 C293 0.931 . S
H317 C294 0.931 . S
H318 C296 0.931 . S
H319 C297 0.931 . S
C320 Eu321 2.835 . S
C320 C322 1.500 . S
C320 O340 1.257 . S
C320 O341 1.260 . S
Eu321 C320 2.835 . S
Eu321 O340 2.473 . S
Eu321 O341 2.480 . S
Eu321 O342 2.430 . S
Eu321 O343 2.670 . S
Eu321 O344 2.394 . S
Eu321 O349 2.355 . S
Eu321 O351 2.374 . S
C322 C320 1.500 . S
C322 C323 1.377 . S
C322 C327 1.377 . S
C323 C322 1.377 . S
C323 C324 1.395 . S
C323 H352 0.931 . S
C324 C323 1.395 . S
C324 C325 1.383 . S
C324 H353 0.931 . S
C325 C324 1.383 . S
C325 C326 1.394 . S
C326 C325 1.394 . S
C326 C327 1.378 . S
C326 H354 0.931 . S
C327 C322 1.377 . S
C327 C326 1.378 . S
C327 H355 0.931 . S
C328 O342 1.259 . S
C328 O343 1.270 . S
C329 O344 1.251 . S
C329 O345 1.251 . S
C330 Eu331 2.835 . S
C330 C332 1.500 . S
C330 O346 1.257 . S
C330 O347 1.260 . S
Eu331 C330 2.835 . S
Eu331 O343 2.355 . S
Eu331 O345 2.374 . S
Eu331 O346 2.473 . S
Eu331 O347 2.480 . S
Eu331 O348 2.430 . S
Eu331 O349 2.670 . S
Eu331 O350 2.394 . S
C332 C330 1.500 . S
C332 C333 1.377 . S
C332 C337 1.377 . S
C333 C332 1.377 . S
C333 C334 1.395 . S
C333 H356 0.931 . S
C334 C333 1.395 . S
C334 C335 1.383 . S
C334 H357 0.931 . S
C335 C334 1.383 . S
C335 C336 1.394 . S
C336 C335 1.394 . S
C336 C337 1.378 . S
C336 H358 0.931 . S
C337 C332 1.377 . S
C337 C336 1.378 . S
C337 H359 0.931 . S
C338 O348 1.259 . S
C338 O349 1.270 . S
C339 O350 1.251 . S
C339 O351 1.251 . S
O340 C320 1.257 . S
O340 Eu321 2.473 . S
O341 C320 1.260 . S
O341 Eu321 2.480 . S
O342 Eu321 2.430 . S
O342 C328 1.259 . S
O343 Eu321 2.670 . S
O343 C328 1.270 . S
O343 Eu331 2.355 . S
O344 Eu321 2.394 . S
O344 C329 1.251 . S
O345 C329 1.251 . S
O345 Eu331 2.374 . S
O346 C330 1.257 . S
O346 Eu331 2.473 . S
O347 C330 1.260 . S
O347 Eu331 2.480 . S
O348 Eu331 2.430 . S
O348 C338 1.259 . S
O349 Eu321 2.355 . S
O349 Eu331 2.670 . S
O349 C338 1.270 . S
O350 Eu331 2.394 . S
O350 C339 1.251 . S
O351 Eu321 2.374 . S
O351 C339 1.251 . S
H352 C323 0.931 . S
H353 C324 0.931 . S
H354 C326 0.931 . S
H355 C327 0.931 . S
H356 C333 0.931 . S
H357 C334 0.931 . S
H358 C336 0.931 . S
H359 C337 0.931 . S
C360 Eu361 2.835 . S
C360 C362 1.500 . S
C360 O380 1.257 . S
C360 O381 1.260 . S
Eu361 C360 2.835 . S
Eu361 O380 2.473 . S
Eu361 O381 2.480 . S
Eu361 O382 2.430 1_445 S
Eu361 O383 2.670 1_455 S
Eu361 O384 2.394 1_455 S
Eu361 O389 2.355 1_455 S
Eu361 O391 2.374 . S
C362 C360 1.500 . S
C362 C363 1.377 . S
C362 C367 1.377 . S
C363 C362 1.377 . S
C363 C364 1.395 . S
C363 H392 0.931 . S
C364 C363 1.395 . S
C364 C365 1.383 . S
C364 H393 0.931 . S
C365 C364 1.383 . S
C365 C366 1.394 . S
C366 C365 1.394 . S
C366 C367 1.378 . S
C366 H394 0.931 . S
C367 C362 1.377 . S
C367 C366 1.378 . S
C367 H395 0.931 . S
C368 O382 1.259 . S
C368 O383 1.270 1_565 S
C369 O384 1.251 . S
C369 O385 1.251 . S
C370 Eu371 2.835 . S
C370 C372 1.500 . S
C370 O386 1.257 . S
C370 O387 1.260 . S
Eu371 C370 2.835 . S
Eu371 O383 2.355 . S
Eu371 O385 2.374 . S
Eu371 O386 2.473 . S
Eu371 O387 2.480 . S
Eu371 O388 2.430 . S
Eu371 O389 2.670 . S
Eu371 O390 2.394 . S
C372 C370 1.500 . S
C372 C373 1.377 . S
C372 C377 1.377 1_545 S
C373 C372 1.377 . S
C373 C374 1.395 . S
C373 H396 0.931 . S
C374 C373 1.395 . S
C374 C375 1.383 . S
C374 H397 0.931 . S
C375 C374 1.383 . S
C375 C376 1.394 1_545 S
C376 C375 1.394 1_565 S
C376 C377 1.378 . S
C376 H398 0.931 . S
C377 C372 1.377 1_565 S
C377 C376 1.378 . S
C377 H399 0.931 . S
C378 O388 1.259 . S
C378 O389 1.270 . S
C379 O390 1.251 . S
C379 O391 1.251 1_655 S
O380 C360 1.257 . S
O380 Eu361 2.473 . S
O381 C360 1.260 . S
O381 Eu361 2.480 . S
O382 Eu361 2.430 1_665 S
O382 C368 1.259 . S
O383 Eu361 2.670 1_655 S
O383 C368 1.270 1_545 S
O383 Eu371 2.355 . S
O384 Eu361 2.394 1_655 S
O384 C369 1.251 . S
O385 C369 1.251 . S
O385 Eu371 2.374 . S
O386 C370 1.257 . S
O386 Eu371 2.473 . S
O387 C370 1.260 . S
O387 Eu371 2.480 . S
O388 Eu371 2.430 . S
O388 C378 1.259 . S
O389 Eu361 2.355 1_655 S
O389 Eu371 2.670 . S
O389 C378 1.270 . S
O390 Eu371 2.394 . S
O390 C379 1.251 . S
O391 Eu361 2.374 . S
O391 C379 1.251 1_455 S
H392 C363 0.931 . S
H393 C364 0.931 . S
H394 C366 0.931 . S
H395 C367 0.931 . S
H396 C373 0.931 . S
H397 C374 0.931 . S
H398 C376 0.931 . S
H399 C377 0.931 . S
C400 Eu401 2.835 . S
C400 C402 1.500 . S
C400 O420 1.257 . S
C400 O421 1.260 . S
Eu401 C400 2.835 . S
Eu401 O420 2.473 . S
Eu401 O421 2.480 . S
Eu401 O422 2.430 . S
Eu401 O423 2.670 . S
Eu401 O424 2.394 . S
Eu401 O429 2.355 . S
Eu401 O431 2.374 . S
C402 C400 1.500 . S
C402 C403 1.377 . S
C402 C407 1.377 . S
C403 C402 1.377 . S
C403 C404 1.395 . S
C403 H432 0.931 . S
C404 C403 1.395 . S
C404 C405 1.383 . S
C404 H433 0.931 . S
C405 C404 1.383 . S
C405 C406 1.394 . S
C406 C405 1.394 . S
C406 C407 1.378 . S
C406 H434 0.931 . S
C407 C402 1.377 . S
C407 C406 1.378 . S
C407 H435 0.931 . S
C408 O422 1.259 . S
C408 O423 1.270 . S
C409 O424 1.251 . S
C409 O425 1.251 . S
C410 Eu411 2.835 . S
C410 C412 1.500 . S
C410 O426 1.257 . S
C410 O427 1.260 . S
Eu411 C410 2.835 . S
Eu411 O423 2.355 . S
Eu411 O425 2.374 . S
Eu411 O426 2.473 . S
Eu411 O427 2.480 . S
Eu411 O428 2.430 . S
Eu411 O429 2.670 . S
Eu411 O430 2.394 . S
C412 C410 1.500 . S
C412 C413 1.377 . S
C412 C417 1.377 . S
C413 C412 1.377 . S
C413 C414 1.395 . S
C413 H436 0.931 . S
C414 C413 1.395 . S
C414 C415 1.383 . S
C414 H437 0.931 . S
C415 C414 1.383 . S
C415 C416 1.394 . S
C416 C415 1.394 . S
C416 C417 1.378 . S
C416 H438 0.931 . S
C417 C412 1.377 . S
C417 C416 1.378 . S
C417 H439 0.931 . S
C418 O428 1.259 . S
C418 O429 1.270 . S
C419 O430 1.251 . S
C419 O431 1.251 . S
O420 C400 1.257 . S
O420 Eu401 2.473 . S
O421 C400 1.260 . S
O421 Eu401 2.480 . S
O422 Eu401 2.430 . S
O422 C408 1.259 . S
O423 Eu401 2.670 . S
O423 C408 1.270 . S
O423 Eu411 2.355 . S
O424 Eu401 2.394 . S
O424 C409 1.251 . S
O425 C409 1.251 . S
O425 Eu411 2.374 . S
O426 C410 1.257 . S
O426 Eu411 2.473 . S
O427 C410 1.260 . S
O427 Eu411 2.480 . S
O428 Eu411 2.430 . S
O428 C418 1.259 . S
O429 Eu401 2.355 . S
O429 Eu411 2.670 . S
O429 C418 1.270 . S
O430 Eu411 2.394 . S
O430 C419 1.251 . S
O431 Eu401 2.374 . S
O431 C419 1.251 . S
H432 C403 0.931 . S
H433 C404 0.931 . S
H434 C406 0.931 . S
H435 C407 0.931 . S
H436 C413 0.931 . S
H437 C414 0.931 . S
H438 C416 0.931 . S
H439 C417 0.931 . S
C440 Eu441 2.835 . S
C440 C442 1.500 . S
C440 O460 1.257 . S
C440 O461 1.260 . S
Eu441 C440 2.835 . S
Eu441 O460 2.473 . S
Eu441 O461 2.480 . S
Eu441 O462 2.430 1_565 S
Eu441 O463 2.670 . S
Eu441 O464 2.394 . S
Eu441 O469 2.355 . S
Eu441 O471 2.374 . S
C442 C440 1.500 . S
C442 C443 1.377 . S
C442 C447 1.377 . S
C443 C442 1.377 . S
C443 C444 1.395 . S
C443 H472 0.931 . S
C444 C443 1.395 . S
C444 C445 1.383 . S
C444 H473 0.931 . S
C445 C444 1.383 . S
C445 C446 1.394 . S
C446 C445 1.394 . S
C446 C447 1.378 . S
C446 H474 0.931 . S
C447 C442 1.377 . S
C447 C446 1.378 . S
C447 H475 0.931 . S
C448 O462 1.259 . S
C448 O463 1.270 1_545 S
C449 O464 1.251 . S
C449 O465 1.251 . S
C450 Eu451 2.835 . S
C450 C452 1.500 . S
C450 O466 1.257 . S
C450 O467 1.260 . S
Eu451 C450 2.835 . S
Eu451 O463 2.355 . S
Eu451 O465 2.374 . S
Eu451 O466 2.473 . S
Eu451 O467 2.480 . S
Eu451 O468 2.430 . S
Eu451 O469 2.670 . S
Eu451 O470 2.394 . S
C452 C450 1.500 . S
C452 C453 1.377 . S
C452 C457 1.377 1_565 S
C453 C452 1.377 . S
C453 C454 1.395 . S
C453 H476 0.931 . S
C454 C453 1.395 . S
C454 C455 1.383 . S
C454 H477 0.931 . S
C455 C454 1.383 . S
C455 C456 1.394 1_565 S
C456 C455 1.394 1_545 S
C456 C457 1.378 . S
C456 H478 0.931 . S
C457 C452 1.377 1_545 S
C457 C456 1.378 . S
C457 H479 0.931 . S
C458 O468 1.259 . S
C458 O469 1.270 . S
C459 O470 1.251 . S
C459 O471 1.251 . S
O460 C440 1.257 . S
O460 Eu441 2.473 . S
O461 C440 1.260 . S
O461 Eu441 2.480 . S
O462 Eu441 2.430 1_545 S
O462 C448 1.259 . S
O463 Eu441 2.670 . S
O463 C448 1.270 1_565 S
O463 Eu451 2.355 . S
O464 Eu441 2.394 . S
O464 C449 1.251 . S
O465 C449 1.251 . S
O465 Eu451 2.374 . S
O466 C450 1.257 . S
O466 Eu451 2.473 . S
O467 C450 1.260 . S
O467 Eu451 2.480 . S
O468 Eu451 2.430 . S
O468 C458 1.259 . S
O469 Eu441 2.355 . S
O469 Eu451 2.670 . S
O469 C458 1.270 . S
O470 Eu451 2.394 . S
O470 C459 1.251 . S
O471 Eu441 2.374 . S
O471 C459 1.251 . S
H472 C443 0.931 . S
H473 C444 0.931 . S
H474 C446 0.931 . S
H475 C447 0.931 . S
H476 C453 0.931 . S
H477 C454 0.931 . S
H478 C456 0.931 . S
H479 C457 0.931 . S
C480 Eu481 2.835 . S
C480 C482 1.500 . S
C480 O500 1.257 . S
C480 O501 1.260 . S
Eu481 C480 2.835 . S
Eu481 O500 2.473 . S
Eu481 O501 2.480 . S
Eu481 O502 2.430 . S
Eu481 O503 2.670 . S
Eu481 O504 2.394 . S
Eu481 O509 2.355 . S
Eu481 O511 2.374 . S
C482 C480 1.500 . S
C482 C483 1.377 . S
C482 C487 1.377 . S
C483 C482 1.377 . S
C483 C484 1.395 . S
C483 H512 0.931 . S
C484 C483 1.395 . S
C484 C485 1.383 . S
C484 H513 0.931 . S
C485 C484 1.383 . S
C485 C486 1.394 . S
C486 C485 1.394 . S
C486 C487 1.378 . S
C486 H514 0.931 . S
C487 C482 1.377 . S
C487 C486 1.378 . S
C487 H515 0.931 . S
C488 O502 1.259 . S
C488 O503 1.270 . S
C489 O504 1.251 . S
C489 O505 1.251 . S
C490 Eu491 2.835 . S
C490 C492 1.500 . S
C490 O506 1.257 . S
C490 O507 1.260 . S
Eu491 C490 2.835 . S
Eu491 O503 2.355 . S
Eu491 O505 2.374 . S
Eu491 O506 2.473 . S
Eu491 O507 2.480 . S
Eu491 O508 2.430 . S
Eu491 O509 2.670 . S
Eu491 O510 2.394 . S
C492 C490 1.500 . S
C492 C493 1.377 . S
C492 C497 1.377 . S
C493 C492 1.377 . S
C493 C494 1.395 . S
C493 H516 0.931 . S
C494 C493 1.395 . S
C494 C495 1.383 . S
C494 H517 0.931 . S
C495 C494 1.383 . S
C495 C496 1.394 . S
C496 C495 1.394 . S
C496 C497 1.378 . S
C496 H518 0.931 . S
C497 C492 1.377 . S
C497 C496 1.378 . S
C497 H519 0.931 . S
C498 O508 1.259 . S
C498 O509 1.270 . S
C499 O510 1.251 . S
C499 O511 1.251 . S
O500 C480 1.257 . S
O500 Eu481 2.473 . S
O501 C480 1.260 . S
O501 Eu481 2.480 . S
O502 Eu481 2.430 . S
O502 C488 1.259 . S
O503 Eu481 2.670 . S
O503 C488 1.270 . S
O503 Eu491 2.355 . S
O504 Eu481 2.394 . S
O504 C489 1.251 . S
O505 C489 1.251 . S
O505 Eu491 2.374 . S
O506 C490 1.257 . S
O506 Eu491 2.473 . S
O507 C490 1.260 . S
O507 Eu491 2.480 . S
O508 Eu491 2.430 . S
O508 C498 1.259 . S
O509 Eu481 2.355 . S
O509 Eu491 2.670 . S
O509 C498 1.270 . S
O510 Eu491 2.394 . S
O510 C499 1.251 . S
O511 Eu481 2.374 . S
O511 C499 1.251 . S
H512 C483 0.931 . S
H513 C484 0.931 . S
H514 C486 0.931 . S
H515 C487 0.931 . S
H516 C493 0.931 . S
H517 C494 0.931 . S
H518 C496 0.931 . S
H519 C497 0.931 . S
C520 Eu521 2.835 . S
C520 C522 1.500 . S
C520 O540 1.257 . S
C520 O541 1.260 . S
Eu521 C520 2.835 . S
Eu521 O540 2.473 . S
Eu521 O541 2.480 . S
Eu521 O542 2.430 1_545 S
Eu521 O543 2.670 . S
Eu521 O544 2.394 . S
Eu521 O549 2.355 . S
Eu521 O551 2.374 . S
C522 C520 1.500 . S
C522 C523 1.377 . S
C522 C527 1.377 . S
C523 C522 1.377 . S
C523 C524 1.395 . S
C523 H552 0.931 . S
C524 C523 1.395 . S
C524 C525 1.383 . S
C524 H553 0.931 . S
C525 C524 1.383 . S
C525 C526 1.394 . S
C526 C525 1.394 . S
C526 C527 1.378 . S
C526 H554 0.931 . S
C527 C522 1.377 . S
C527 C526 1.378 . S
C527 H555 0.931 . S
C528 O542 1.259 . S
C528 O543 1.270 1_565 S
C529 O544 1.251 . S
C529 O545 1.251 . S
C530 Eu531 2.835 . S
C530 C532 1.500 . S
C530 O546 1.257 . S
C530 O547 1.260 . S
Eu531 C530 2.835 . S
Eu531 O543 2.355 . S
Eu531 O545 2.374 . S
Eu531 O546 2.473 . S
Eu531 O547 2.480 . S
Eu531 O548 2.430 . S
Eu531 O549 2.670 . S
Eu531 O550 2.394 . S
C532 C530 1.500 . S
C532 C533 1.377 . S
C532 C537 1.377 1_545 S
C533 C532 1.377 . S
C533 C534 1.395 . S
C533 H556 0.931 . S
C534 C533 1.395 . S
C534 C535 1.383 . S
C534 H557 0.931 . S
C535 C534 1.383 . S
C535 C536 1.394 1_545 S
C536 C535 1.394 1_565 S
C536 C537 1.378 . S
C536 H558 0.931 . S
C537 C532 1.377 1_565 S
C537 C536 1.378 . S
C537 H559 0.931 . S
C538 O548 1.259 . S
C538 O549 1.270 . S
C539 O550 1.251 . S
C539 O551 1.251 . S
O540 C520 1.257 . S
O540 Eu521 2.473 . S
O541 C520 1.260 . S
O541 Eu521 2.480 . S
O542 Eu521 2.430 1_565 S
O542 C528 1.259 . S
O543 Eu521 2.670 . S
O543 C528 1.270 1_545 S
O543 Eu531 2.355 . S
O544 Eu521 2.394 . S
O544 C529 1.251 . S
O545 C529 1.251 . S
O545 Eu531 2.374 . S
O546 C530 1.257 . S
O546 Eu531 2.473 . S
O547 C530 1.260 . S
O547 Eu531 2.480 . S
O548 Eu531 2.430 . S
O548 C538 1.259 . S
O549 Eu521 2.355 . S
O549 Eu531 2.670 . S
O549 C538 1.270 . S
O550 Eu531 2.394 . S
O550 C539 1.251 . S
O551 Eu521 2.374 . S
O551 C539 1.251 . S
H552 C523 0.931 . S
H553 C524 0.931 . S
H554 C526 0.931 . S
H555 C527 0.931 . S
H556 C533 0.931 . S
H557 C534 0.931 . S
H558 C536 0.931 . S
H559 C537 0.931 . S
C560 Eu561 2.835 . S
C560 C562 1.500 . S
C560 O580 1.257 . S
C560 O581 1.260 . S
Eu561 C560 2.835 . S
Eu561 O580 2.473 . S
Eu561 O581 2.480 . S
Eu561 O582 2.430 . S
Eu561 O583 2.670 . S
Eu561 O584 2.394 . S
Eu561 O589 2.355 . S
Eu561 O591 2.374 . S
C562 C560 1.500 . S
C562 C563 1.377 . S
C562 C567 1.377 . S
C563 C562 1.377 . S
C563 C564 1.395 . S
C563 H592 0.931 . S
C564 C563 1.395 . S
C564 C565 1.383 . S
C564 H593 0.931 . S
C565 C564 1.383 . S
C565 C566 1.394 . S
C566 C565 1.394 . S
C566 C567 1.378 . S
C566 H594 0.931 . S
C567 C562 1.377 . S
C567 C566 1.378 . S
C567 H595 0.931 . S
C568 O582 1.259 . S
C568 O583 1.270 . S
C569 O584 1.251 . S
C569 O585 1.251 . S
C570 Eu571 2.835 . S
C570 C572 1.500 . S
C570 O586 1.257 . S
C570 O587 1.260 . S
Eu571 C570 2.835 . S
Eu571 O583 2.355 . S
Eu571 O585 2.374 . S
Eu571 O586 2.473 . S
Eu571 O587 2.480 . S
Eu571 O588 2.430 . S
Eu571 O589 2.670 . S
Eu571 O590 2.394 . S
C572 C570 1.500 . S
C572 C573 1.377 . S
C572 C577 1.377 . S
C573 C572 1.377 . S
C573 C574 1.395 . S
C573 H596 0.931 . S
C574 C573 1.395 . S
C574 C575 1.383 . S
C574 H597 0.931 . S
C575 C574 1.383 . S
C575 C576 1.394 . S
C576 C575 1.394 . S
C576 C577 1.378 . S
C576 H598 0.931 . S
C577 C572 1.377 . S
C577 C576 1.378 . S
C577 H599 0.931 . S
C578 O588 1.259 . S
C578 O589 1.270 . S
C579 O590 1.251 . S
C579 O591 1.251 . S
O580 C560 1.257 . S
O580 Eu561 2.473 . S
O581 C560 1.260 . S
O581 Eu561 2.480 . S
O582 Eu561 2.430 . S
O582 C568 1.259 . S
O583 Eu561 2.670 . S
O583 C568 1.270 . S
O583 Eu571 2.355 . S
O584 Eu561 2.394 . S
O584 C569 1.251 . S
O585 C569 1.251 . S
O585 Eu571 2.374 . S
O586 C570 1.257 . S
O586 Eu571 2.473 . S
O587 C570 1.260 . S
O587 Eu571 2.480 . S
O588 Eu571 2.430 . S
O588 C578 1.259 . S
O589 Eu561 2.355 . S
O589 Eu571 2.670 . S
O589 C578 1.270 . S
O590 Eu571 2.394 . S
O590 C579 1.251 . S
O591 Eu561 2.374 . S
O591 C579 1.251 . S
H592 C563 0.931 . S
H593 C564 0.931 . S
H594 C566 0.931 . S
H595 C567 0.931 . S
H596 C573 0.931 . S
H597 C574 0.931 . S
H598 C576 0.931 . S
H599 C577 0.931 . S
C600 Eu601 2.835 . S
C600 C602 1.500 . S
C600 O620 1.257 . S
C600 O621 1.260 . S
Eu601 C600 2.835 . S
Eu601 O620 2.473 . S
Eu601 O621 2.480 . S
Eu601 O622 2.430 1_465 S
Eu601 O623 2.670 1_455 S
Eu601 O624 2.394 1_455 S
Eu601 O629 2.355 1_455 S
Eu601 O631 2.374 . S
C602 C600 1.500 . S
C602 C603 1.377 . S
C602 C607 1.377 . S
C603 C602 1.377 . S
C603 C604 1.395 . S
C603 H632 0.931 . S
C604 C603 1.395 . S
C604 C605 1.383 . S
C604 H633 0.931 . S
C605 C604 1.383 . S
C605 C606 1.394 . S
C606 C605 1.394 . S
C606 C607 1.378 . S
C606 H634 0.931 . S
C607 C602 1.377 . S
C607 C606 1.378 . S
C607 H635 0.931 . S
C608 O622 1.259 . S
C608 O623 1.270 1_545 S
C609 O624 1.251 . S
C609 O625 1.251 . S
C610 Eu611 2.835 . S
C610 C612 1.500 . S
C610 O626 1.257 . S
C610 O627 1.260 . S
Eu611 C610 2.835 . S
Eu611 O623 2.355 . S
Eu611 O625 2.374 . S
Eu611 O626 2.473 . S
Eu611 O627 2.480 . S
Eu611 O628 2.430 . S
Eu611 O629 2.670 . S
Eu611 O630 2.394 . S
C612 C610 1.500 . S
C612 C613 1.377 . S
C612 C617 1.377 1_565 S
C613 C612 1.377 . S
C613 C614 1.395 . S
C613 H636 0.931 . S
C614 C613 1.395 . S
C614 C615 1.383 . S
C614 H637 0.931 . S
C615 C614 1.383 . S
C615 C616 1.394 1_565 S
C616 C615 1.394 1_545 S
C616 C617 1.378 . S
C616 H638 0.931 . S
C617 C612 1.377 1_545 S
C617 C616 1.378 . S
C617 H639 0.931 . S
C618 O628 1.259 . S
C618 O629 1.270 . S
C619 O630 1.251 . S
C619 O631 1.251 1_655 S
O620 C600 1.257 . S
O620 Eu601 2.473 . S
O621 C600 1.260 . S
O621 Eu601 2.480 . S
O622 Eu601 2.430 1_645 S
O622 C608 1.259 . S
O623 Eu601 2.670 1_655 S
O623 C608 1.270 1_565 S
O623 Eu611 2.355 . S
O624 Eu601 2.394 1_655 S
O624 C609 1.251 . S
O625 C609 1.251 . S
O625 Eu611 2.374 . S
O626 C610 1.257 . S
O626 Eu611 2.473 . S
O627 C610 1.260 . S
O627 Eu611 2.480 . S
O628 Eu611 2.430 . S
O628 C618 1.259 . S
O629 Eu601 2.355 1_655 S
O629 Eu611 2.670 . S
O629 C618 1.270 . S
O630 Eu611 2.394 . S
O630 C619 1.251 . S
O631 Eu601 2.374 . S
O631 C619 1.251 1_455 S
H632 C603 0.931 . S
H633 C604 0.931 . S
H634 C606 0.931 . S
H635 C607 0.931 . S
H636 C613 0.931 . S
H637 C614 0.931 . S
H638 C616 0.931 . S
H639 C617 0.931 . S
C640 Eu641 2.835 . S
C640 C642 1.500 . S
C640 O660 1.257 . S
C640 O661 1.260 . S
Eu641 C640 2.835 . S
Eu641 O660 2.473 . S
Eu641 O661 2.480 . S
Eu641 O662 2.430 . S
Eu641 O663 2.670 . S
Eu641 O664 2.394 . S
Eu641 O669 2.355 . S
Eu641 O671 2.374 . S
C642 C640 1.500 . S
C642 C643 1.377 . S
C642 C647 1.377 . S
C643 C642 1.377 . S
C643 C644 1.395 . S
C643 H672 0.931 . S
C644 C643 1.395 . S
C644 C645 1.383 . S
C644 H673 0.931 . S
C645 C644 1.383 . S
C645 C646 1.394 . S
C646 C645 1.394 . S
C646 C647 1.378 . S
C646 H674 0.931 . S
C647 C642 1.377 . S
C647 C646 1.378 . S
C647 H675 0.931 . S
C648 O662 1.259 . S
C648 O663 1.270 . S
C649 O664 1.251 . S
C649 O665 1.251 . S
C650 Eu651 2.835 . S
C650 C652 1.500 . S
C650 O666 1.257 . S
C650 O667 1.260 . S
Eu651 C650 2.835 . S
Eu651 O663 2.355 . S
Eu651 O665 2.374 . S
Eu651 O666 2.473 . S
Eu651 O667 2.480 . S
Eu651 O668 2.430 . S
Eu651 O669 2.670 . S
Eu651 O670 2.394 . S
C652 C650 1.500 . S
C652 C653 1.377 . S
C652 C657 1.377 . S
C653 C652 1.377 . S
C653 C654 1.395 . S
C653 H676 0.931 . S
C654 C653 1.395 . S
C654 C655 1.383 . S
C654 H677 0.931 . S
C655 C654 1.383 . S
C655 C656 1.394 . S
C656 C655 1.394 . S
C656 C657 1.378 . S
C656 H678 0.931 . S
C657 C652 1.377 . S
C657 C656 1.378 . S
C657 H679 0.931 . S
C658 O668 1.259 . S
C658 O669 1.270 . S
C659 O670 1.251 . S
C659 O671 1.251 . S
O660 C640 1.257 . S
O660 Eu641 2.473 . S
O661 C640 1.260 . S
O661 Eu641 2.480 . S
O662 Eu641 2.430 . S
O662 C648 1.259 . S
O663 Eu641 2.670 . S
O663 C648 1.270 . S
O663 Eu651 2.355 . S
O664 Eu641 2.394 . S
O664 C649 1.251 . S
O665 C649 1.251 . S
O665 Eu651 2.374 . S
O666 C650 1.257 . S
O666 Eu651 2.473 . S
O667 C650 1.260 . S
O667 Eu651 2.480 . S
O668 Eu651 2.430 . S
O668 C658 1.259 . S
O669 Eu641 2.355 . S
O669 Eu651 2.670 . S
O669 C658 1.270 . S
O670 Eu651 2.394 . S
O670 C659 1.251 . S
O671 Eu641 2.374 . S
O671 C659 1.251 . S
H672 C643 0.931 . S
H673 C644 0.931 . S
H674 C646 0.931 . S
H675 C647 0.931 . S
H676 C653 0.931 . S
H677 C654 0.931 . S
H678 C656 0.931 . S
H679 C657 0.931 . S
C680 Eu681 2.835 . S
C680 C682 1.500 . S
C680 O700 1.257 . S
C680 O701 1.260 . S
Eu681 C680 2.835 . S
Eu681 O700 2.473 . S
Eu681 O701 2.480 . S
Eu681 O702 2.430 . S
Eu681 O703 2.670 . S
Eu681 O704 2.394 . S
Eu681 O709 2.355 . S
Eu681 O711 2.374 . S
C682 C680 1.500 . S
C682 C683 1.377 . S
C682 C687 1.377 . S
C683 C682 1.377 . S
C683 C684 1.395 . S
C683 H712 0.931 . S
C684 C683 1.395 . S
C684 C685 1.383 . S
C684 H713 0.931 . S
C685 C684 1.383 . S
C685 C686 1.394 . S
C686 C685 1.394 . S
C686 C687 1.378 . S
C686 H714 0.931 . S
C687 C682 1.377 . S
C687 C686 1.378 . S
C687 H715 0.931 . S
C688 O702 1.259 . S
C688 O703 1.270 . S
C689 O704 1.251 . S
C689 O705 1.251 . S
C690 Eu691 2.835 . S
C690 C692 1.500 . S
C690 O706 1.257 . S
C690 O707 1.260 . S
Eu691 C690 2.835 . S
Eu691 O703 2.355 . S
Eu691 O705 2.374 . S
Eu691 O706 2.473 . S
Eu691 O707 2.480 . S
Eu691 O708 2.430 . S
Eu691 O709 2.670 . S
Eu691 O710 2.394 . S
C692 C690 1.500 . S
C692 C693 1.377 . S
C692 C697 1.377 . S
C693 C692 1.377 . S
C693 C694 1.395 . S
C693 H716 0.931 . S
C694 C693 1.395 . S
C694 C695 1.383 . S
C694 H717 0.931 . S
C695 C694 1.383 . S
C695 C696 1.394 . S
C696 C695 1.394 . S
C696 C697 1.378 . S
C696 H718 0.931 . S
C697 C692 1.377 . S
C697 C696 1.378 . S
C697 H719 0.931 . S
C698 O708 1.259 . S
C698 O709 1.270 . S
C699 O710 1.251 . S
C699 O711 1.251 . S
O700 C680 1.257 . S
O700 Eu681 2.473 . S
O701 C680 1.260 . S
O701 Eu681 2.480 . S
O702 Eu681 2.430 . S
O702 C688 1.259 . S
O703 Eu681 2.670 . S
O703 C688 1.270 . S
O703 Eu691 2.355 . S
O704 Eu681 2.394 . S
O704 C689 1.251 . S
O705 C689 1.251 . S
O705 Eu691 2.374 . S
O706 C690 1.257 . S
O706 Eu691 2.473 . S
O707 C690 1.260 . S
O707 Eu691 2.480 . S
O708 Eu691 2.430 . S
O708 C698 1.259 . S
O709 Eu681 2.355 . S
O709 Eu691 2.670 . S
O709 C698 1.270 . S
O710 Eu691 2.394 . S
O710 C699 1.251 . S
O711 Eu681 2.374 . S
O711 C699 1.251 . S
H712 C683 0.931 . S
H713 C684 0.931 . S
H714 C686 0.931 . S
H715 C687 0.931 . S
H716 C693 0.931 . S
H717 C694 0.931 . S
H718 C696 0.931 . S
H719 C697 0.931 . S
C720 Eu721 2.835 . S
C720 C722 1.500 . S
C720 O740 1.257 . S
C720 O741 1.260 . S
Eu721 C720 2.835 . S
Eu721 O740 2.473 . S
Eu721 O741 2.480 . S
Eu721 O742 2.430 . S
Eu721 O743 2.670 . S
Eu721 O744 2.394 . S
Eu721 O749 2.355 . S
Eu721 O751 2.374 . S
C722 C720 1.500 . S
C722 C723 1.377 . S
C722 C727 1.377 . S
C723 C722 1.377 . S
C723 C724 1.395 . S
C723 H752 0.931 . S
C724 C723 1.395 . S
C724 C725 1.383 . S
C724 H753 0.931 . S
C725 C724 1.383 . S
C725 C726 1.394 . S
C726 C725 1.394 . S
C726 C727 1.378 . S
C726 H754 0.931 . S
C727 C722 1.377 . S
C727 C726 1.378 . S
C727 H755 0.931 . S
C728 O742 1.259 . S
C728 O743 1.270 . S
C729 O744 1.251 . S
C729 O745 1.251 . S
C730 Eu731 2.835 . S
C730 C732 1.500 . S
C730 O746 1.257 . S
C730 O747 1.260 . S
Eu731 C730 2.835 . S
Eu731 O743 2.355 . S
Eu731 O745 2.374 . S
Eu731 O746 2.473 . S
Eu731 O747 2.480 . S
Eu731 O748 2.430 . S
Eu731 O749 2.670 . S
Eu731 O750 2.394 . S
C732 C730 1.500 . S
C732 C733 1.377 . S
C732 C737 1.377 . S
C733 C732 1.377 . S
C733 C734 1.395 . S
C733 H756 0.931 . S
C734 C733 1.395 . S
C734 C735 1.383 . S
C734 H757 0.931 . S
C735 C734 1.383 . S
C735 C736 1.394 . S
C736 C735 1.394 . S
C736 C737 1.378 . S
C736 H758 0.931 . S
C737 C732 1.377 . S
C737 C736 1.378 . S
C737 H759 0.931 . S
C738 O748 1.259 . S
C738 O749 1.270 . S
C739 O750 1.251 . S
C739 O751 1.251 . S
O740 C720 1.257 . S
O740 Eu721 2.473 . S
O741 C720 1.260 . S
O741 Eu721 2.480 . S
O742 Eu721 2.430 . S
O742 C728 1.259 . S
O743 Eu721 2.670 . S
O743 C728 1.270 . S
O743 Eu731 2.355 . S
O744 Eu721 2.394 . S
O744 C729 1.251 . S
O745 C729 1.251 . S
O745 Eu731 2.374 . S
O746 C730 1.257 . S
O746 Eu731 2.473 . S
O747 C730 1.260 . S
O747 Eu731 2.480 . S
O748 Eu731 2.430 . S
O748 C738 1.259 . S
O749 Eu721 2.355 . S
O749 Eu731 2.670 . S
O749 C738 1.270 . S
O750 Eu731 2.394 . S
O750 C739 1.251 . S
O751 Eu721 2.374 . S
O751 C739 1.251 . S
H752 C723 0.931 . S
H753 C724 0.931 . S
H754 C726 0.931 . S
H755 C727 0.931 . S
H756 C733 0.931 . S
H757 C734 0.931 . S
H758 C736 0.931 . S
H759 C737 0.931 . S
C760 Eu761 2.835 . S
C760 C762 1.500 . S
C760 O780 1.257 . S
C760 O781 1.260 . S
Eu761 C760 2.835 . S
Eu761 O780 2.473 . S
Eu761 O781 2.480 . S
Eu761 O782 2.430 . S
Eu761 O783 2.670 . S
Eu761 O784 2.394 . S
Eu761 O789 2.355 . S
Eu761 O791 2.374 . S
C762 C760 1.500 . S
C762 C763 1.377 . S
C762 C767 1.377 . S
C763 C762 1.377 . S
C763 C764 1.395 . S
C763 H792 0.931 . S
C764 C763 1.395 . S
C764 C765 1.383 . S
C764 H793 0.931 . S
C765 C764 1.383 . S
C765 C766 1.394 . S
C766 C765 1.394 . S
C766 C767 1.378 . S
C766 H794 0.931 . S
C767 C762 1.377 . S
C767 C766 1.378 . S
C767 H795 0.931 . S
C768 O782 1.259 . S
C768 O783 1.270 . S
C769 O784 1.251 . S
C769 O785 1.251 1_655 S
C770 Eu771 2.835 . S
C770 C772 1.500 . S
C770 O786 1.257 . S
C770 O787 1.260 . S
Eu771 C770 2.835 . S
Eu771 O783 2.355 1_455 S
Eu771 O785 2.374 . S
Eu771 O786 2.473 . S
Eu771 O787 2.480 . S
Eu771 O788 2.430 1_455 S
Eu771 O789 2.670 1_455 S
Eu771 O790 2.394 1_455 S
C772 C770 1.500 . S
C772 C773 1.377 . S
C772 C777 1.377 . S
C773 C772 1.377 . S
C773 C774 1.395 . S
C773 H796 0.931 . S
C774 C773 1.395 . S
C774 C775 1.383 . S
C774 H797 0.931 . S
C775 C774 1.383 . S
C775 C776 1.394 . S
C776 C775 1.394 . S
C776 C777 1.378 . S
C776 H798 0.931 . S
C777 C772 1.377 . S
C777 C776 1.378 . S
C777 H799 0.931 . S
C778 O788 1.259 . S
C778 O789 1.270 . S
C779 O790 1.251 . S
C779 O791 1.251 . S
O780 C760 1.257 . S
O780 Eu761 2.473 . S
O781 C760 1.260 . S
O781 Eu761 2.480 . S
O782 Eu761 2.430 . S
O782 C768 1.259 . S
O783 Eu761 2.670 . S
O783 C768 1.270 . S
O783 Eu771 2.355 1_655 S
O784 Eu761 2.394 . S
O784 C769 1.251 . S
O785 C769 1.251 1_455 S
O785 Eu771 2.374 . S
O786 C770 1.257 . S
O786 Eu771 2.473 . S
O787 C770 1.260 . S
O787 Eu771 2.480 . S
O788 Eu771 2.430 1_655 S
O788 C778 1.259 . S
O789 Eu761 2.355 . S
O789 Eu771 2.670 1_655 S
O789 C778 1.270 . S
O790 Eu771 2.394 1_655 S
O790 C779 1.251 . S
O791 Eu761 2.374 . S
O791 C779 1.251 . S
H792 C763 0.931 . S
H793 C764 0.931 . S
H794 C766 0.931 . S
H795 C767 0.931 . S
H796 C773 0.931 . S
H797 C774 0.931 . S
H798 C776 0.931 . S
H799 C777 0.931 . S
C800 Eu801 2.835 . S
C800 C802 1.500 . S
C800 O820 1.257 . S
C800 O821 1.260 . S
Eu801 C800 2.835 . S
Eu801 O820 2.473 . S
Eu801 O821 2.480 . S
Eu801 O822 2.430 . S
Eu801 O823 2.670 . S
Eu801 O824 2.394 . S
Eu801 O829 2.355 . S
Eu801 O831 2.374 . S
C802 C800 1.500 . S
C802 C803 1.377 . S
C802 C807 1.377 . S
C803 C802 1.377 . S
C803 C804 1.395 . S
C803 H832 0.931 . S
C804 C803 1.395 . S
C804 C805 1.383 . S
C804 H833 0.931 . S
C805 C804 1.383 . S
C805 C806 1.394 . S
C806 C805 1.394 . S
C806 C807 1.378 . S
C806 H834 0.931 . S
C807 C802 1.377 . S
C807 C806 1.378 . S
C807 H835 0.931 . S
C808 O822 1.259 . S
C808 O823 1.270 . S
C809 O824 1.251 . S
C809 O825 1.251 . S
C810 Eu811 2.835 . S
C810 C812 1.500 . S
C810 O826 1.257 . S
C810 O827 1.260 . S
Eu811 C810 2.835 . S
Eu811 O823 2.355 . S
Eu811 O825 2.374 . S
Eu811 O826 2.473 . S
Eu811 O827 2.480 . S
Eu811 O828 2.430 . S
Eu811 O829 2.670 . S
Eu811 O830 2.394 . S
C812 C810 1.500 . S
C812 C813 1.377 . S
C812 C817 1.377 . S
C813 C812 1.377 . S
C813 C814 1.395 . S
C813 H836 0.931 . S
C814 C813 1.395 . S
C814 C815 1.383 . S
C814 H837 0.931 . S
C815 C814 1.383 . S
C815 C816 1.394 . S
C816 C815 1.394 . S
C816 C817 1.378 . S
C816 H838 0.931 . S
C817 C812 1.377 . S
C817 C816 1.378 . S
C817 H839 0.931 . S
C818 O828 1.259 . S
C818 O829 1.270 . S
C819 O830 1.251 . S
C819 O831 1.251 . S
O820 C800 1.257 . S
O820 Eu801 2.473 . S
O821 C800 1.260 . S
O821 Eu801 2.480 . S
O822 Eu801 2.430 . S
O822 C808 1.259 . S
O823 Eu801 2.670 . S
O823 C808 1.270 . S
O823 Eu811 2.355 . S
O824 Eu801 2.394 . S
O824 C809 1.251 . S
O825 C809 1.251 . S
O825 Eu811 2.374 . S
O826 C810 1.257 . S
O826 Eu811 2.473 . S
O827 C810 1.260 . S
O827 Eu811 2.480 . S
O828 Eu811 2.430 . S
O828 C818 1.259 . S
O829 Eu801 2.355 . S
O829 Eu811 2.670 . S
O829 C818 1.270 . S
O830 Eu811 2.394 . S
O830 C819 1.251 . S
O831 Eu801 2.374 . S
O831 C819 1.251 . S
H832 C803 0.931 . S
H833 C804 0.931 . S
H834 C806 0.931 . S
H835 C807 0.931 . S
H836 C813 0.931 . S
H837 C814 0.931 . S
H838 C816 0.931 . S
H839 C817 0.931 . S
C840 Eu841 2.835 . S
C840 C842 1.500 . S
C840 O860 1.257 . S
C840 O861 1.260 . S
Eu841 C840 2.835 . S
Eu841 O860 2.473 . S
Eu841 O861 2.480 . S
Eu841 O862 2.430 . S
Eu841 O863 2.670 . S
Eu841 O864 2.394 . S
Eu841 O869 2.355 . S
Eu841 O871 2.374 . S
C842 C840 1.500 . S
C842 C843 1.377 . S
C842 C847 1.377 . S
C843 C842 1.377 . S
C843 C844 1.395 . S
C843 H872 0.931 . S
C844 C843 1.395 . S
C844 C845 1.383 . S
C844 H873 0.931 . S
C845 C844 1.383 . S
C845 C846 1.394 . S
C846 C845 1.394 . S
C846 C847 1.378 . S
C846 H874 0.931 . S
C847 C842 1.377 . S
C847 C846 1.378 . S
C847 H875 0.931 . S
C848 O862 1.259 . S
C848 O863 1.270 . S
C849 O864 1.251 . S
C849 O865 1.251 1_655 S
C850 Eu851 2.835 . S
C850 C852 1.500 . S
C850 O866 1.257 . S
C850 O867 1.260 . S
Eu851 C850 2.835 . S
Eu851 O863 2.355 1_455 S
Eu851 O865 2.374 . S
Eu851 O866 2.473 . S
Eu851 O867 2.480 . S
Eu851 O868 2.430 1_455 S
Eu851 O869 2.670 1_455 S
Eu851 O870 2.394 1_455 S
C852 C850 1.500 . S
C852 C853 1.377 . S
C852 C857 1.377 . S
C853 C852 1.377 . S
C853 C854 1.395 . S
C853 H876 0.931 . S
C854 C853 1.395 . S
C854 C855 1.383 . S
C854 H877 0.931 . S
C855 C854 1.383 . S
C855 C856 1.394 . S
C856 C855 1.394 . S
C856 C857 1.378 . S
C856 H878 0.931 . S
C857 C852 1.377 . S
C857 C856 1.378 . S
C857 H879 0.931 . S
C858 O868 1.259 . S
C858 O869 1.270 . S
C859 O870 1.251 . S
C859 O871 1.251 . S
O860 C840 1.257 . S
O860 Eu841 2.473 . S
O861 C840 1.260 . S
O861 Eu841 2.480 . S
O862 Eu841 2.430 . S
O862 C848 1.259 . S
O863 Eu841 2.670 . S
O863 C848 1.270 . S
O863 Eu851 2.355 1_655 S
O864 Eu841 2.394 . S
O864 C849 1.251 . S
O865 C849 1.251 1_455 S
O865 Eu851 2.374 . S
O866 C850 1.257 . S
O866 Eu851 2.473 . S
O867 C850 1.260 . S
O867 Eu851 2.480 . S
O868 Eu851 2.430 1_655 S
O868 C858 1.259 . S
O869 Eu841 2.355 . S
O869 Eu851 2.670 1_655 S
O869 C858 1.270 . S
O870 Eu851 2.394 1_655 S
O870 C859 1.251 . S
O871 Eu841 2.374 . S
O871 C859 1.251 . S
H872 C843 0.931 . S
H873 C844 0.931 . S
H874 C846 0.931 . S
H875 C847 0.931 . S
H876 C853 0.931 . S
H877 C854 0.931 . S
H878 C856 0.931 . S
H879 C857 0.931 . S
C880 Eu881 2.835 . S
C880 C882 1.500 . S
C880 O900 1.257 . S
C880 O901 1.260 . S
Eu881 C880 2.835 . S
Eu881 O900 2.473 . S
Eu881 O901 2.480 . S
Eu881 O902 2.430 . S
Eu881 O903 2.670 . S
Eu881 O904 2.394 . S
Eu881 O909 2.355 . S
Eu881 O911 2.374 . S
C882 C880 1.500 . S
C882 C883 1.377 . S
C882 C887 1.377 . S
C883 C882 1.377 . S
C883 C884 1.395 . S
C883 H912 0.931 . S
C884 C883 1.395 . S
C884 C885 1.383 . S
C884 H913 0.931 . S
C885 C884 1.383 . S
C885 C886 1.394 . S
C886 C885 1.394 . S
C886 C887 1.378 . S
C886 H914 0.931 . S
C887 C882 1.377 . S
C887 C886 1.378 . S
C887 H915 0.931 . S
C888 O902 1.259 . S
C888 O903 1.270 . S
C889 O904 1.251 . S
C889 O905 1.251 . S
C890 Eu891 2.835 . S
C890 C892 1.500 . S
C890 O906 1.257 . S
C890 O907 1.260 . S
Eu891 C890 2.835 . S
Eu891 O903 2.355 . S
Eu891 O905 2.374 . S
Eu891 O906 2.473 . S
Eu891 O907 2.480 . S
Eu891 O908 2.430 . S
Eu891 O909 2.670 . S
Eu891 O910 2.394 . S
C892 C890 1.500 . S
C892 C893 1.377 . S
C892 C897 1.377 . S
C893 C892 1.377 . S
C893 C894 1.395 . S
C893 H916 0.931 . S
C894 C893 1.395 . S
C894 C895 1.383 . S
C894 H917 0.931 . S
C895 C894 1.383 . S
C895 C896 1.394 . S
C896 C895 1.394 . S
C896 C897 1.378 . S
C896 H918 0.931 . S
C897 C892 1.377 . S
C897 C896 1.378 . S
C897 H919 0.931 . S
C898 O908 1.259 . S
C898 O909 1.270 . S
C899 O910 1.251 . S
C899 O911 1.251 . S
O900 C880 1.257 . S
O900 Eu881 2.473 . S
O901 C880 1.260 . S
O901 Eu881 2.480 . S
O902 Eu881 2.430 . S
O902 C888 1.259 . S
O903 Eu881 2.670 . S
O903 C888 1.270 . S
O903 Eu891 2.355 . S
O904 Eu881 2.394 . S
O904 C889 1.251 . S
O905 C889 1.251 . S
O905 Eu891 2.374 . S
O906 C890 1.257 . S
O906 Eu891 2.473 . S
O907 C890 1.260 . S
O907 Eu891 2.480 . S
O908 Eu891 2.430 . S
O908 C898 1.259 . S
O909 Eu881 2.355 . S
O909 Eu891 2.670 . S
O909 C898 1.270 . S
O910 Eu891 2.394 . S
O910 C899 1.251 . S
O911 Eu881 2.374 . S
O911 C899 1.251 . S
H912 C883 0.931 . S
H913 C884 0.931 . S
H914 C886 0.931 . S
H915 C887 0.931 . S
H916 C893 0.931 . S
H917 C894 0.931 . S
H918 C896 0.931 . S
H919 C897 0.931 . S
C920 Eu921 2.835 . S
C920 C922 1.500 . S
C920 O940 1.257 . S
C920 O941 1.260 . S
Eu921 C920 2.835 . S
Eu921 O940 2.473 . S
Eu921 O941 2.480 . S
Eu921 O942 2.430 . S
Eu921 O943 2.670 . S
Eu921 O944 2.394 . S
Eu921 O949 2.355 . S
Eu921 O951 2.374 . S
C922 C920 1.500 . S
C922 C923 1.377 . S
C922 C927 1.377 . S
C923 C922 1.377 . S
C923 C924 1.395 . S
C923 H952 0.931 . S
C924 C923 1.395 . S
C924 C925 1.383 . S
C924 H953 0.931 . S
C925 C924 1.383 . S
C925 C926 1.394 . S
C926 C925 1.394 . S
C926 C927 1.378 . S
C926 H954 0.931 . S
C927 C922 1.377 . S
C927 C926 1.378 . S
C927 H955 0.931 . S
C928 O942 1.259 . S
C928 O943 1.270 . S
C929 O944 1.251 . S
C929 O945 1.251 . S
C930 Eu931 2.835 . S
C930 C932 1.500 . S
C930 O946 1.257 . S
C930 O947 1.260 . S
Eu931 C930 2.835 . S
Eu931 O943 2.355 . S
Eu931 O945 2.374 . S
Eu931 O946 2.473 . S
Eu931 O947 2.480 . S
Eu931 O948 2.430 . S
Eu931 O949 2.670 . S
Eu931 O950 2.394 . S
C932 C930 1.500 . S
C932 C933 1.377 . S
C932 C937 1.377 . S
C933 C932 1.377 . S
C933 C934 1.395 . S
C933 H956 0.931 . S
C934 C933 1.395 . S
C934 C935 1.383 . S
C934 H957 0.931 . S
C935 C934 1.383 . S
C935 C936 1.394 . S
C936 C935 1.394 . S
C936 C937 1.378 . S
C936 H958 0.931 . S
C937 C932 1.377 . S
C937 C936 1.378 . S
C937 H959 0.931 . S
C938 O948 1.259 . S
C938 O949 1.270 . S
C939 O950 1.251 . S
C939 O951 1.251 . S
O940 C920 1.257 . S
O940 Eu921 2.473 . S
O941 C920 1.260 . S
O941 Eu921 2.480 . S
O942 Eu921 2.430 . S
O942 C928 1.259 . S
O943 Eu921 2.670 . S
O943 C928 1.270 . S
O943 Eu931 2.355 . S
O944 Eu921 2.394 . S
O944 C929 1.251 . S
O945 C929 1.251 . S
O945 Eu931 2.374 . S
O946 C930 1.257 . S
O946 Eu931 2.473 . S
O947 C930 1.260 . S
O947 Eu931 2.480 . S
O948 Eu931 2.430 . S
O948 C938 1.259 . S
O949 Eu921 2.355 . S
O949 Eu931 2.670 . S
O949 C938 1.270 . S
O950 Eu931 2.394 . S
O950 C939 1.251 . S
O951 Eu921 2.374 . S
O951 C939 1.251 . S
H952 C923 0.931 . S
H953 C924 0.931 . S
H954 C926 0.931 . S
H955 C927 0.931 . S
H956 C933 0.931 . S
H957 C934 0.931 . S
H958 C936 0.931 . S
H959 C937 0.931 . S
C960 Eu961 2.835 . S
C960 C962 1.500 . S
C960 O980 1.257 . S
C960 O981 1.260 . S
Eu961 C960 2.835 . S
Eu961 O980 2.473 . S
Eu961 O981 2.480 . S
Eu961 O982 2.430 . S
Eu961 O983 2.670 . S
Eu961 O984 2.394 . S
Eu961 O989 2.355 . S
Eu961 O991 2.374 . S
C962 C960 1.500 . S
C962 C963 1.377 . S
C962 C967 1.377 . S
C963 C962 1.377 . S
C963 C964 1.395 . S
C963 H992 0.931 . S
C964 C963 1.395 . S
C964 C965 1.383 . S
C964 H993 0.931 . S
C965 C964 1.383 . S
C965 C966 1.394 . S
C966 C965 1.394 . S
C966 C967 1.378 . S
C966 H994 0.931 . S
C967 C962 1.377 . S
C967 C966 1.378 . S
C967 H995 0.931 . S
C968 O982 1.259 . S
C968 O983 1.270 . S
C969 O984 1.251 . S
C969 O985 1.251 . S
C970 Eu971 2.835 . S
C970 C972 1.500 . S
C970 O986 1.257 . S
C970 O987 1.260 . S
Eu971 C970 2.835 . S
Eu971 O983 2.355 . S
Eu971 O985 2.374 . S
Eu971 O986 2.473 . S
Eu971 O987 2.480 . S
Eu971 O988 2.430 . S
Eu971 O989 2.670 . S
Eu971 O990 2.394 . S
C972 C970 1.500 . S
C972 C973 1.377 . S
C972 C977 1.377 . S
C973 C972 1.377 . S
C973 C974 1.395 . S
C973 H996 0.931 . S
C974 C973 1.395 . S
C974 C975 1.383 . S
C974 H997 0.931 . S
C975 C974 1.383 . S
C975 C976 1.394 . S
C976 C975 1.394 . S
C976 C977 1.378 . S
C976 H998 0.931 . S
C977 C972 1.377 . S
C977 C976 1.378 . S
C977 H999 0.931 . S
C978 O988 1.259 . S
C978 O989 1.270 . S
C979 O990 1.251 . S
C979 O991 1.251 . S
O980 C960 1.257 . S
O980 Eu961 2.473 . S
O981 C960 1.260 . S
O981 Eu961 2.480 . S
O982 Eu961 2.430 . S
O982 C968 1.259 . S
O983 Eu961 2.670 . S
O983 C968 1.270 . S
O983 Eu971 2.355 . S
O984 Eu961 2.394 . S
O984 C969 1.251 . S
O985 C969 1.251 . S
O985 Eu971 2.374 . S
O986 C970 1.257 . S
O986 Eu971 2.473 . S
O987 C970 1.260 . S
O987 Eu971 2.480 . S
O988 Eu971 2.430 . S
O988 C978 1.259 . S
O989 Eu961 2.355 . S
O989 Eu971 2.670 . S
O989 C978 1.270 . S
O990 Eu971 2.394 . S
O990 C979 1.251 . S
O991 Eu961 2.374 . S
O991 C979 1.251 . S
H992 C963 0.931 . S
H993 C964 0.931 . S
H994 C966 0.931 . S
H995 C967 0.931 . S
H996 C973 0.931 . S
H997 C974 0.931 . S
H998 C976 0.931 . S
H999 C977 0.931 . S
C1000 Eu1001 2.835 . S
C1000 C1002 1.500 . S
C1000 O1020 1.257 . S
C1000 O1021 1.260 . S
Eu1001 C1000 2.835 . S
Eu1001 O1020 2.473 . S
Eu1001 O1021 2.480 . S
Eu1001 O1022 2.430 . S
Eu1001 O1023 2.670 . S
Eu1001 O1024 2.394 . S
Eu1001 O1029 2.355 . S
Eu1001 O1031 2.374 . S
C1002 C1000 1.500 . S
C1002 C1003 1.377 . S
C1002 C1007 1.377 . S
C1003 C1002 1.377 . S
C1003 C1004 1.395 . S
C1003 H1032 0.931 . S
C1004 C1003 1.395 . S
C1004 C1005 1.383 . S
C1004 H1033 0.931 . S
C1005 C1004 1.383 . S
C1005 C1006 1.394 . S
C1006 C1005 1.394 . S
C1006 C1007 1.378 . S
C1006 H1034 0.931 . S
C1007 C1002 1.377 . S
C1007 C1006 1.378 . S
C1007 H1035 0.931 . S
C1008 O1022 1.259 . S
C1008 O1023 1.270 . S
C1009 O1024 1.251 . S
C1009 O1025 1.251 . S
C1010 Eu1011 2.835 . S
C1010 C1012 1.500 . S
C1010 O1026 1.257 . S
C1010 O1027 1.260 . S
Eu1011 C1010 2.835 . S
Eu1011 O1023 2.355 . S
Eu1011 O1025 2.374 . S
Eu1011 O1026 2.473 . S
Eu1011 O1027 2.480 . S
Eu1011 O1028 2.430 . S
Eu1011 O1029 2.670 . S
Eu1011 O1030 2.394 . S
C1012 C1010 1.500 . S
C1012 C1013 1.377 . S
C1012 C1017 1.377 . S
C1013 C1012 1.377 . S
C1013 C1014 1.395 . S
C1013 H1036 0.931 . S
C1014 C1013 1.395 . S
C1014 C1015 1.383 . S
C1014 H1037 0.931 . S
C1015 C1014 1.383 . S
C1015 C1016 1.394 . S
C1016 C1015 1.394 . S
C1016 C1017 1.378 . S
C1016 H1038 0.931 . S
C1017 C1012 1.377 . S
C1017 C1016 1.378 . S
C1017 H1039 0.931 . S
C1018 O1028 1.259 . S
C1018 O1029 1.270 . S
C1019 O1030 1.251 . S
C1019 O1031 1.251 . S
O1020 C1000 1.257 . S
O1020 Eu1001 2.473 . S
O1021 C1000 1.260 . S
O1021 Eu1001 2.480 . S
O1022 Eu1001 2.430 . S
O1022 C1008 1.259 . S
O1023 Eu1001 2.670 . S
O1023 C1008 1.270 . S
O1023 Eu1011 2.355 . S
O1024 Eu1001 2.394 . S
O1024 C1009 1.251 . S
O1025 C1009 1.251 . S
O1025 Eu1011 2.374 . S
O1026 C1010 1.257 . S
O1026 Eu1011 2.473 . S
O1027 C1010 1.260 . S
O1027 Eu1011 2.480 . S
O1028 Eu1011 2.430 . S
O1028 C1018 1.259 . S
O1029 Eu1001 2.355 . S
O1029 Eu1011 2.670 . S
O1029 C1018 1.270 . S
O1030 Eu1011 2.394 . S
O1030 C1019 1.251 . S
O1031 Eu1001 2.374 . S
O1031 C1019 1.251 . S
H1032 C1003 0.931 . S
H1033 C1004 0.931 . S
H1034 C1006 0.931 . S
H1035 C1007 0.931 . S
H1036 C1013 0.931 . S
H1037 C1014 0.931 . S
H1038 C1016 0.931 . S
H1039 C1017 0.931 . S
C1040 Eu1041 2.835 . S
C1040 C1042 1.500 . S
C1040 O1060 1.257 . S
C1040 O1061 1.260 . S
Eu1041 C1040 2.835 . S
Eu1041 O1060 2.473 . S
Eu1041 O1061 2.480 . S
Eu1041 O1062 2.430 . S
Eu1041 O1063 2.670 . S
Eu1041 O1064 2.394 . S
Eu1041 O1069 2.355 . S
Eu1041 O1071 2.374 . S
C1042 C1040 1.500 . S
C1042 C1043 1.377 . S
C1042 C1047 1.377 . S
C1043 C1042 1.377 . S
C1043 C1044 1.395 . S
C1043 H1072 0.931 . S
C1044 C1043 1.395 . S
C1044 C1045 1.383 . S
C1044 H1073 0.931 . S
C1045 C1044 1.383 . S
C1045 C1046 1.394 . S
C1046 C1045 1.394 . S
C1046 C1047 1.378 . S
C1046 H1074 0.931 . S
C1047 C1042 1.377 . S
C1047 C1046 1.378 . S
C1047 H1075 0.931 . S
C1048 O1062 1.259 . S
C1048 O1063 1.270 . S
C1049 O1064 1.251 . S
C1049 O1065 1.251 . S
C1050 Eu1051 2.835 . S
C1050 C1052 1.500 . S
C1050 O1066 1.257 . S
C1050 O1067 1.260 . S
Eu1051 C1050 2.835 . S
Eu1051 O1063 2.355 . S
Eu1051 O1065 2.374 . S
Eu1051 O1066 2.473 . S
Eu1051 O1067 2.480 . S
Eu1051 O1068 2.430 . S
Eu1051 O1069 2.670 . S
Eu1051 O1070 2.394 . S
C1052 C1050 1.500 . S
C1052 C1053 1.377 . S
C1052 C1057 1.377 . S
C1053 C1052 1.377 . S
C1053 C1054 1.395 . S
C1053 H1076 0.931 . S
C1054 C1053 1.395 . S
C1054 C1055 1.383 . S
C1054 H1077 0.931 . S
C1055 C1054 1.383 . S
C1055 C1056 1.394 . S
C1056 C1055 1.394 . S
C1056 C1057 1.378 . S
C1056 H1078 0.931 . S
C1057 C1052 1.377 . S
C1057 C1056 1.378 . S
C1057 H1079 0.931 . S
C1058 O1068 1.259 . S
C1058 O1069 1.270 . S
C1059 O1070 1.251 . S
C1059 O1071 1.251 . S
O1060 C1040 1.257 . S
O1060 Eu1041 2.473 . S
O1061 C1040 1.260 . S
O1061 Eu1041 2.480 . S
O1062 Eu1041 2.430 . S
O1062 C1048 1.259 . S
O1063 Eu1041 2.670 . S
O1063 C1048 1.270 . S
O1063 Eu1051 2.355 . S
O1064 Eu1041 2.394 . S
O1064 C1049 1.251 . S
O1065 C1049 1.251 . S
O1065 Eu1051 2.374 . S
O1066 C1050 1.257 . S
O1066 Eu1051 2.473 . S
O1067 C1050 1.260 . S
O1067 Eu1051 2.480 . S
O1068 Eu1051 2.430 . S
O1068 C1058 1.259 . S
O1069 Eu1041 2.355 . S
O1069 Eu1051 2.670 . S
O1069 C1058 1.270 . S
O1070 Eu1051 2.394 . S
O1070 C1059 1.251 . S
O1071 Eu1041 2.374 . S
O1071 C1059 1.251 . S
H1072 C1043 0.931 . S
H1073 C1044 0.931 . S
H1074 C1046 0.931 . S
H1075 C1047 0.931 . S
H1076 C1053 0.931 . S
H1077 C1054 0.931 . S
H1078 C1056 0.931 . S
H1079 C1057 0.931 . S
C1080 Eu1081 2.835 . S
C1080 C1082 1.500 . S
C1080 O1100 1.257 . S
C1080 O1101 1.260 . S
Eu1081 C1080 2.835 . S
Eu1081 O1100 2.473 . S
Eu1081 O1101 2.480 . S
Eu1081 O1102 2.430 1_655 S
Eu1081 O1103 2.670 1_655 S
Eu1081 O1104 2.394 1_655 S
Eu1081 O1109 2.355 1_655 S
Eu1081 O1111 2.374 . S
C1082 C1080 1.500 . S
C1082 C1083 1.377 . S
C1082 C1087 1.377 . S
C1083 C1082 1.377 . S
C1083 C1084 1.395 . S
C1083 H1112 0.931 . S
C1084 C1083 1.395 . S
C1084 C1085 1.383 . S
C1084 H1113 0.931 . S
C1085 C1084 1.383 . S
C1085 C1086 1.394 . S
C1086 C1085 1.394 . S
C1086 C1087 1.378 . S
C1086 H1114 0.931 . S
C1087 C1082 1.377 . S
C1087 C1086 1.378 . S
C1087 H1115 0.931 . S
C1088 O1102 1.259 . S
C1088 O1103 1.270 . S
C1089 O1104 1.251 . S
C1089 O1105 1.251 . S
C1090 Eu1091 2.835 . S
C1090 C1092 1.500 . S
C1090 O1106 1.257 . S
C1090 O1107 1.260 . S
Eu1091 C1090 2.835 . S
Eu1091 O1103 2.355 . S
Eu1091 O1105 2.374 . S
Eu1091 O1106 2.473 . S
Eu1091 O1107 2.480 . S
Eu1091 O1108 2.430 . S
Eu1091 O1109 2.670 . S
Eu1091 O1110 2.394 . S
C1092 C1090 1.500 . S
C1092 C1093 1.377 . S
C1092 C1097 1.377 . S
C1093 C1092 1.377 . S
C1093 C1094 1.395 . S
C1093 H1116 0.931 . S
C1094 C1093 1.395 . S
C1094 C1095 1.383 . S
C1094 H1117 0.931 . S
C1095 C1094 1.383 . S
C1095 C1096 1.394 . S
C1096 C1095 1.394 . S
C1096 C1097 1.378 . S
C1096 H1118 0.931 . S
C1097 C1092 1.377 . S
C1097 C1096 1.378 . S
C1097 H1119 0.931 . S
C1098 O1108 1.259 . S
C1098 O1109 1.270 . S
C1099 O1110 1.251 . S
C1099 O1111 1.251 1_455 S
O1100 C1080 1.257 . S
O1100 Eu1081 2.473 . S
O1101 C1080 1.260 . S
O1101 Eu1081 2.480 . S
O1102 Eu1081 2.430 1_455 S
O1102 C1088 1.259 . S
O1103 Eu1081 2.670 1_455 S
O1103 C1088 1.270 . S
O1103 Eu1091 2.355 . S
O1104 Eu1081 2.394 1_455 S
O1104 C1089 1.251 . S
O1105 C1089 1.251 . S
O1105 Eu1091 2.374 . S
O1106 C1090 1.257 . S
O1106 Eu1091 2.473 . S
O1107 C1090 1.260 . S
O1107 Eu1091 2.480 . S
O1108 Eu1091 2.430 . S
O1108 C1098 1.259 . S
O1109 Eu1081 2.355 1_455 S
O1109 Eu1091 2.670 . S
O1109 C1098 1.270 . S
O1110 Eu1091 2.394 . S
O1110 C1099 1.251 . S
O1111 Eu1081 2.374 . S
O1111 C1099 1.251 1_655 S
H1112 C1083 0.931 . S
H1113 C1084 0.931 . S
H1114 C1086 0.931 . S
H1115 C1087 0.931 . S
H1116 C1093 0.931 . S
H1117 C1094 0.931 . S
H1118 C1096 0.931 . S
H1119 C1097 0.931 . S
C1120 Eu1121 2.835 . S
C1120 C1122 1.500 . S
C1120 O1140 1.257 . S
C1120 O1141 1.260 . S
Eu1121 C1120 2.835 . S
Eu1121 O1140 2.473 . S
Eu1121 O1141 2.480 . S
Eu1121 O1142 2.430 . S
Eu1121 O1143 2.670 . S
Eu1121 O1144 2.394 . S
Eu1121 O1149 2.355 . S
Eu1121 O1151 2.374 . S
C1122 C1120 1.500 . S
C1122 C1123 1.377 . S
C1122 C1127 1.377 . S
C1123 C1122 1.377 . S
C1123 C1124 1.395 . S
C1123 H1152 0.931 . S
C1124 C1123 1.395 . S
C1124 C1125 1.383 . S
C1124 H1153 0.931 . S
C1125 C1124 1.383 . S
C1125 C1126 1.394 . S
C1126 C1125 1.394 . S
C1126 C1127 1.378 . S
C1126 H1154 0.931 . S
C1127 C1122 1.377 . S
C1127 C1126 1.378 . S
C1127 H1155 0.931 . S
C1128 O1142 1.259 . S
C1128 O1143 1.270 . S
C1129 O1144 1.251 . S
C1129 O1145 1.251 . S
C1130 Eu1131 2.835 . S
C1130 C1132 1.500 . S
C1130 O1146 1.257 . S
C1130 O1147 1.260 . S
Eu1131 C1130 2.835 . S
Eu1131 O1143 2.355 . S
Eu1131 O1145 2.374 . S
Eu1131 O1146 2.473 . S
Eu1131 O1147 2.480 . S
Eu1131 O1148 2.430 . S
Eu1131 O1149 2.670 . S
Eu1131 O1150 2.394 . S
C1132 C1130 1.500 . S
C1132 C1133 1.377 . S
C1132 C1137 1.377 . S
C1133 C1132 1.377 . S
C1133 C1134 1.395 . S
C1133 H1156 0.931 . S
C1134 C1133 1.395 . S
C1134 C1135 1.383 . S
C1134 H1157 0.931 . S
C1135 C1134 1.383 . S
C1135 C1136 1.394 . S
C1136 C1135 1.394 . S
C1136 C1137 1.378 . S
C1136 H1158 0.931 . S
C1137 C1132 1.377 . S
C1137 C1136 1.378 . S
C1137 H1159 0.931 . S
C1138 O1148 1.259 . S
C1138 O1149 1.270 . S
C1139 O1150 1.251 . S
C1139 O1151 1.251 . S
O1140 C1120 1.257 . S
O1140 Eu1121 2.473 . S
O1141 C1120 1.260 . S
O1141 Eu1121 2.480 . S
O1142 Eu1121 2.430 . S
O1142 C1128 1.259 . S
O1143 Eu1121 2.670 . S
O1143 C1128 1.270 . S
O1143 Eu1131 2.355 . S
O1144 Eu1121 2.394 . S
O1144 C1129 1.251 . S
O1145 C1129 1.251 . S
O1145 Eu1131 2.374 . S
O1146 C1130 1.257 . S
O1146 Eu1131 2.473 . S
O1147 C1130 1.260 . S
O1147 Eu1131 2.480 . S
O1148 Eu1131 2.430 . S
O1148 C1138 1.259 . S
O1149 Eu1121 2.355 . S
O1149 Eu1131 2.670 . S
O1149 C1138 1.270 . S
O1150 Eu1131 2.394 . S
O1150 C1139 1.251 . S
O1151 Eu1121 2.374 . S
O1151 C1139 1.251 . S
H1152 C1123 0.931 . S
H1153 C1124 0.931 . S
H1154 C1126 0.931 . S
H1155 C1127 0.931 . S
H1156 C1133 0.931 . S
H1157 C1134 0.931 . S
H1158 C1136 0.931 . S
H1159 C1137 0.931 . S
C1160 Eu1161 2.835 . S
C1160 C1162 1.500 . S
C1160 O1180 1.257 . S
C1160 O1181 1.260 . S
Eu1161 C1160 2.835 . S
Eu1161 O1180 2.473 . S
Eu1161 O1181 2.480 . S
Eu1161 O1182 2.430 1_655 S
Eu1161 O1183 2.670 1_655 S
Eu1161 O1184 2.394 1_655 S
Eu1161 O1189 2.355 1_655 S
Eu1161 O1191 2.374 . S
C1162 C1160 1.500 . S
C1162 C1163 1.377 . S
C1162 C1167 1.377 . S
C1163 C1162 1.377 . S
C1163 C1164 1.395 . S
C1163 H1192 0.931 . S
C1164 C1163 1.395 . S
C1164 C1165 1.383 . S
C1164 H1193 0.931 . S
C1165 C1164 1.383 . S
C1165 C1166 1.394 . S
C1166 C1165 1.394 . S
C1166 C1167 1.378 . S
C1166 H1194 0.931 . S
C1167 C1162 1.377 . S
C1167 C1166 1.378 . S
C1167 H1195 0.931 . S
C1168 O1182 1.259 . S
C1168 O1183 1.270 . S
C1169 O1184 1.251 . S
C1169 O1185 1.251 . S
C1170 Eu1171 2.835 . S
C1170 C1172 1.500 . S
C1170 O1186 1.257 . S
C1170 O1187 1.260 . S
Eu1171 C1170 2.835 . S
Eu1171 O1183 2.355 . S
Eu1171 O1185 2.374 . S
Eu1171 O1186 2.473 . S
Eu1171 O1187 2.480 . S
Eu1171 O1188 2.430 . S
Eu1171 O1189 2.670 . S
Eu1171 O1190 2.394 . S
C1172 C1170 1.500 . S
C1172 C1173 1.377 . S
C1172 C1177 1.377 . S
C1173 C1172 1.377 . S
C1173 C1174 1.395 . S
C1173 H1196 0.931 . S
C1174 C1173 1.395 . S
C1174 C1175 1.383 . S
C1174 H1197 0.931 . S
C1175 C1174 1.383 . S
C1175 C1176 1.394 . S
C1176 C1175 1.394 . S
C1176 C1177 1.378 . S
C1176 H1198 0.931 . S
C1177 C1172 1.377 . S
C1177 C1176 1.378 . S
C1177 H1199 0.931 . S
C1178 O1188 1.259 . S
C1178 O1189 1.270 . S
C1179 O1190 1.251 . S
C1179 O1191 1.251 1_455 S
O1180 C1160 1.257 . S
O1180 Eu1161 2.473 . S
O1181 C1160 1.260 . S
O1181 Eu1161 2.480 . S
O1182 Eu1161 2.430 1_455 S
O1182 C1168 1.259 . S
O1183 Eu1161 2.670 1_455 S
O1183 C1168 1.270 . S
O1183 Eu1171 2.355 . S
O1184 Eu1161 2.394 1_455 S
O1184 C1169 1.251 . S
O1185 C1169 1.251 . S
O1185 Eu1171 2.374 . S
O1186 C1170 1.257 . S
O1186 Eu1171 2.473 . S
O1187 C1170 1.260 . S
O1187 Eu1171 2.480 . S
O1188 Eu1171 2.430 . S
O1188 C1178 1.259 . S
O1189 Eu1161 2.355 1_455 S
O1189 Eu1171 2.670 . S
O1189 C1178 1.270 . S
O1190 Eu1171 2.394 . S
O1190 C1179 1.251 . S
O1191 Eu1161 2.374 . S
O1191 C1179 1.251 1_655 S
H1192 C1163 0.931 . S
H1193 C1164 0.931 . S
H1194 C1166 0.931 . S
H1195 C1167 0.931 . S
H1196 C1173 0.931 . S
H1197 C1174 0.931 . S
H1198 C1176 0.931 . S
H1199 C1177 0.931 . S
C1200 Eu1201 2.835 . S
C1200 C1202 1.500 . S
C1200 O1220 1.257 . S
C1200 O1221 1.260 . S
Eu1201 C1200 2.835 . S
Eu1201 O1220 2.473 . S
Eu1201 O1221 2.480 . S
Eu1201 O1222 2.430 . S
Eu1201 O1223 2.670 . S
Eu1201 O1224 2.394 . S
Eu1201 O1229 2.355 . S
Eu1201 O1231 2.374 . S
C1202 C1200 1.500 . S
C1202 C1203 1.377 . S
C1202 C1207 1.377 . S
C1203 C1202 1.377 . S
C1203 C1204 1.395 . S
C1203 H1232 0.931 . S
C1204 C1203 1.395 . S
C1204 C1205 1.383 . S
C1204 H1233 0.931 . S
C1205 C1204 1.383 . S
C1205 C1206 1.394 . S
C1206 C1205 1.394 . S
C1206 C1207 1.378 . S
C1206 H1234 0.931 . S
C1207 C1202 1.377 . S
C1207 C1206 1.378 . S
C1207 H1235 0.931 . S
C1208 O1222 1.259 . S
C1208 O1223 1.270 . S
C1209 O1224 1.251 . S
C1209 O1225 1.251 . S
C1210 Eu1211 2.835 . S
C1210 C1212 1.500 . S
C1210 O1226 1.257 . S
C1210 O1227 1.260 . S
Eu1211 C1210 2.835 . S
Eu1211 O1223 2.355 . S
Eu1211 O1225 2.374 . S
Eu1211 O1226 2.473 . S
Eu1211 O1227 2.480 . S
Eu1211 O1228 2.430 . S
Eu1211 O1229 2.670 . S
Eu1211 O1230 2.394 . S
C1212 C1210 1.500 . S
C1212 C1213 1.377 . S
C1212 C1217 1.377 . S
C1213 C1212 1.377 . S
C1213 C1214 1.395 . S
C1213 H1236 0.931 . S
C1214 C1213 1.395 . S
C1214 C1215 1.383 . S
C1214 H1237 0.931 . S
C1215 C1214 1.383 . S
C1215 C1216 1.394 . S
C1216 C1215 1.394 . S
C1216 C1217 1.378 . S
C1216 H1238 0.931 . S
C1217 C1212 1.377 . S
C1217 C1216 1.378 . S
C1217 H1239 0.931 . S
C1218 O1228 1.259 . S
C1218 O1229 1.270 . S
C1219 O1230 1.251 . S
C1219 O1231 1.251 . S
O1220 C1200 1.257 . S
O1220 Eu1201 2.473 . S
O1221 C1200 1.260 . S
O1221 Eu1201 2.480 . S
O1222 Eu1201 2.430 . S
O1222 C1208 1.259 . S
O1223 Eu1201 2.670 . S
O1223 C1208 1.270 . S
O1223 Eu1211 2.355 . S
O1224 Eu1201 2.394 . S
O1224 C1209 1.251 . S
O1225 C1209 1.251 . S
O1225 Eu1211 2.374 . S
O1226 C1210 1.257 . S
O1226 Eu1211 2.473 . S
O1227 C1210 1.260 . S
O1227 Eu1211 2.480 . S
O1228 Eu1211 2.430 . S
O1228 C1218 1.259 . S
O1229 Eu1201 2.355 . S
O1229 Eu1211 2.670 . S
O1229 C1218 1.270 . S
O1230 Eu1211 2.394 . S
O1230 C1219 1.251 . S
O1231 Eu1201 2.374 . S
O1231 C1219 1.251 . S
H1232 C1203 0.931 . S
H1233 C1204 0.931 . S
H1234 C1206 0.931 . S
H1235 C1207 0.931 . S
H1236 C1213 0.931 . S
H1237 C1214 0.931 . S
H1238 C1216 0.931 . S
H1239 C1217 0.931 . S
C1240 Eu1241 2.835 . S
C1240 C1242 1.500 . S
C1240 O1260 1.257 . S
C1240 O1261 1.260 . S
Eu1241 C1240 2.835 . S
Eu1241 O1260 2.473 . S
Eu1241 O1261 2.480 . S
Eu1241 O1262 2.430 . S
Eu1241 O1263 2.670 . S
Eu1241 O1264 2.394 . S
Eu1241 O1269 2.355 . S
Eu1241 O1271 2.374 . S
C1242 C1240 1.500 . S
C1242 C1243 1.377 . S
C1242 C1247 1.377 . S
C1243 C1242 1.377 . S
C1243 C1244 1.395 . S
C1243 H1272 0.931 . S
C1244 C1243 1.395 . S
C1244 C1245 1.383 . S
C1244 H1273 0.931 . S
C1245 C1244 1.383 . S
C1245 C1246 1.394 . S
C1246 C1245 1.394 . S
C1246 C1247 1.378 . S
C1246 H1274 0.931 . S
C1247 C1242 1.377 . S
C1247 C1246 1.378 . S
C1247 H1275 0.931 . S
C1248 O1262 1.259 . S
C1248 O1263 1.270 . S
C1249 O1264 1.251 . S
C1249 O1265 1.251 . S
C1250 Eu1251 2.835 . S
C1250 C1252 1.500 . S
C1250 O1266 1.257 . S
C1250 O1267 1.260 . S
Eu1251 C1250 2.835 . S
Eu1251 O1263 2.355 . S
Eu1251 O1265 2.374 . S
Eu1251 O1266 2.473 . S
Eu1251 O1267 2.480 . S
Eu1251 O1268 2.430 . S
Eu1251 O1269 2.670 . S
Eu1251 O1270 2.394 . S
C1252 C1250 1.500 . S
C1252 C1253 1.377 . S
C1252 C1257 1.377 . S
C1253 C1252 1.377 . S
C1253 C1254 1.395 . S
C1253 H1276 0.931 . S
C1254 C1253 1.395 . S
C1254 C1255 1.383 . S
C1254 H1277 0.931 . S
C1255 C1254 1.383 . S
C1255 C1256 1.394 . S
C1256 C1255 1.394 . S
C1256 C1257 1.378 . S
C1256 H1278 0.931 . S
C1257 C1252 1.377 . S
C1257 C1256 1.378 . S
C1257 H1279 0.931 . S
C1258 O1268 1.259 . S
C1258 O1269 1.270 . S
C1259 O1270 1.251 . S
C1259 O1271 1.251 . S
O1260 C1240 1.257 . S
O1260 Eu1241 2.473 . S
O1261 C1240 1.260 . S
O1261 Eu1241 2.480 . S
O1262 Eu1241 2.430 . S
O1262 C1248 1.259 . S
O1263 Eu1241 2.670 . S
O1263 C1248 1.270 . S
O1263 Eu1251 2.355 . S
O1264 Eu1241 2.394 . S
O1264 C1249 1.251 . S
O1265 C1249 1.251 . S
O1265 Eu1251 2.374 . S
O1266 C1250 1.257 . S
O1266 Eu1251 2.473 . S
O1267 C1250 1.260 . S
O1267 Eu1251 2.480 . S
O1268 Eu1251 2.430 . S
O1268 C1258 1.259 . S
O1269 Eu1241 2.355 . S
O1269 Eu1251 2.670 . S
O1269 C1258 1.270 . S
O1270 Eu1251 2.394 . S
O1270 C1259 1.251 . S
O1271 Eu1241 2.374 . S
O1271 C1259 1.251 . S
H1272 C1243 0.931 . S
H1273 C1244 0.931 . S
H1274 C1246 0.931 . S
H1275 C1247 0.931 . S
H1276 C1253 0.931 . S
H1277 C1254 0.931 . S
H1278 C1256 0.931 . S
H1279 C1257 0.931 . S
C1280 C1281 1.369 . S
C1280 C1282 1.419 . S
C1280 H1284 0.930 . S
C1281 C1280 1.369 . S
C1281 C1290 1.429 . S
C1282 C1280 1.419 . S
C1282 C1283 1.363 . S
C1282 H1285 0.929 . S
C1283 C1282 1.363 . S
C1283 C1289 1.428 . S
H1284 C1280 0.930 . S
H1285 C1282 0.929 . S
S1286 N1287 1.613 . S
S1286 N1288 1.610 . S
N1287 S1286 1.613 . S
N1287 C1290 1.350 . S
N1288 S1286 1.610 . S
N1288 C1289 1.351 . S
C1289 C1283 1.428 . S
C1289 N1288 1.351 . S
C1289 C1290 1.434 . S
C1290 C1281 1.429 . S
C1290 N1287 1.350 . S
C1290 C1289 1.434 . S
C1291 C1292 1.369 . S
C1291 C1293 1.419 . S
C1291 H1295 0.930 . S
C1292 C1291 1.369 . S
C1292 C1301 1.429 . S
C1293 C1291 1.419 . S
C1293 C1294 1.363 . S
C1293 H1296 0.929 . S
C1294 C1293 1.363 . S
C1294 C1300 1.428 . S
H1295 C1291 0.930 . S
H1296 C1293 0.929 . S
S1297 N1298 1.613 . S
S1297 N1299 1.610 . S
N1298 S1297 1.613 . S
N1298 C1301 1.350 . S
N1299 S1297 1.610 . S
N1299 C1300 1.351 . S
C1300 C1294 1.428 . S
C1300 N1299 1.351 . S
C1300 C1301 1.434 . S
C1301 C1292 1.429 . S
C1301 N1298 1.350 . S
C1301 C1300 1.434 . S
C1302 C1303 1.369 . S
C1302 C1304 1.419 . S
C1302 H1306 0.930 . S
C1303 C1302 1.369 . S
C1303 C1312 1.429 . S
C1304 C1302 1.419 . S
C1304 C1305 1.363 . S
C1304 H1307 0.929 . S
C1305 C1304 1.363 . S
C1305 C1311 1.428 . S
H1306 C1302 0.930 . S
H1307 C1304 0.929 . S
S1308 N1309 1.613 . S
S1308 N1310 1.610 . S
N1309 S1308 1.613 . S
N1309 C1312 1.350 . S
N1310 S1308 1.610 . S
N1310 C1311 1.351 . S
C1311 C1305 1.428 . S
C1311 N1310 1.351 . S
C1311 C1312 1.434 . S
C1312 C1303 1.429 . S
C1312 N1309 1.350 . S
C1312 C1311 1.434 . S
C1313 C1314 1.369 . S
C1313 C1315 1.419 . S
C1313 H1317 0.930 . S
C1314 C1313 1.369 . S
C1314 C1323 1.429 . S
C1315 C1313 1.419 . S
C1315 C1316 1.363 . S
C1315 H1318 0.929 . S
C1316 C1315 1.363 . S
C1316 C1322 1.428 . S
H1317 C1313 0.930 . S
H1318 C1315 0.929 . S
S1319 N1320 1.613 . S
S1319 N1321 1.610 . S
N1320 S1319 1.613 . S
N1320 C1323 1.350 . S
N1321 S1319 1.610 . S
N1321 C1322 1.351 . S
C1322 C1316 1.428 . S
C1322 N1321 1.351 . S
C1322 C1323 1.434 . S
C1323 C1314 1.429 . S
C1323 N1320 1.350 . S
C1323 C1322 1.434 . S
C1324 C1325 1.369 . S
C1324 C1326 1.419 . S
C1324 H1328 0.930 . S
C1325 C1324 1.369 . S
C1325 C1334 1.429 . S
C1326 C1324 1.419 . S
C1326 C1327 1.363 . S
C1326 H1329 0.929 . S
C1327 C1326 1.363 . S
C1327 C1333 1.428 . S
H1328 C1324 0.930 . S
H1329 C1326 0.929 . S
S1330 N1331 1.613 . S
S1330 N1332 1.610 . S
N1331 S1330 1.613 . S
N1331 C1334 1.350 . S
N1332 S1330 1.610 . S
N1332 C1333 1.351 . S
C1333 C1327 1.428 . S
C1333 N1332 1.351 . S
C1333 C1334 1.434 . S
C1334 C1325 1.429 . S
C1334 N1331 1.350 . S
C1334 C1333 1.434 . S
C1335 C1336 1.369 . S
C1335 C1337 1.419 . S
C1335 H1339 0.930 . S
C1336 C1335 1.369 . S
C1336 C1345 1.429 . S
C1337 C1335 1.419 . S
C1337 C1338 1.363 . S
C1337 H1340 0.929 . S
C1338 C1337 1.363 . S
C1338 C1344 1.428 . S
H1339 C1335 0.930 . S
H1340 C1337 0.929 . S
S1341 N1342 1.613 . S
S1341 N1343 1.610 . S
N1342 S1341 1.613 . S
N1342 C1345 1.350 . S
N1343 S1341 1.610 . S
N1343 C1344 1.351 . S
C1344 C1338 1.428 . S
C1344 N1343 1.351 . S
C1344 C1345 1.434 . S
C1345 C1336 1.429 . S
C1345 N1342 1.350 . S
C1345 C1344 1.434 . S
C1346 C1347 1.369 . S
C1346 C1348 1.419 . S
C1346 H1350 0.930 . S
C1347 C1346 1.369 . S
C1347 C1356 1.429 . S
C1348 C1346 1.419 . S
C1348 C1349 1.363 . S
C1348 H1351 0.929 . S
C1349 C1348 1.363 . S
C1349 C1355 1.428 . S
H1350 C1346 0.930 . S
H1351 C1348 0.929 . S
S1352 N1353 1.613 . S
S1352 N1354 1.610 . S
N1353 S1352 1.613 . S
N1353 C1356 1.350 . S
N1354 S1352 1.610 . S
N1354 C1355 1.351 . S
C1355 C1349 1.428 . S
C1355 N1354 1.351 . S
C1355 C1356 1.434 . S
C1356 C1347 1.429 . S
C1356 N1353 1.350 . S
C1356 C1355 1.434 . S
C1357 C1358 1.369 . S
C1357 C1359 1.419 . S
C1357 H1361 0.930 . S
C1358 C1357 1.369 . S
C1358 C1367 1.429 . S
C1359 C1357 1.419 . S
C1359 C1360 1.363 . S
C1359 H1362 0.929 . S
C1360 C1359 1.363 . S
C1360 C1366 1.428 . S
H1361 C1357 0.930 . S
H1362 C1359 0.929 . S
S1363 N1364 1.613 . S
S1363 N1365 1.610 . S
N1364 S1363 1.613 . S
N1364 C1367 1.350 . S
N1365 S1363 1.610 . S
N1365 C1366 1.351 . S
C1366 C1360 1.428 . S
C1366 N1365 1.351 . S
C1366 C1367 1.434 . S
C1367 C1358 1.429 . S
C1367 N1364 1.350 . S
C1367 C1366 1.434 . S
C1368 C1369 1.369 . S
C1368 C1370 1.419 . S
C1368 H1372 0.930 . S
C1369 C1368 1.369 . S
C1369 C1378 1.429 . S
C1370 C1368 1.419 . S
C1370 C1371 1.363 . S
C1370 H1373 0.929 . S
C1371 C1370 1.363 . S
C1371 C1377 1.428 . S
H1372 C1368 0.930 . S
H1373 C1370 0.929 . S
S1374 N1375 1.613 . S
S1374 N1376 1.610 . S
N1375 S1374 1.613 . S
N1375 C1378 1.350 . S
N1376 S1374 1.610 . S
N1376 C1377 1.351 . S
C1377 C1371 1.428 . S
C1377 N1376 1.351 . S
C1377 C1378 1.434 . S
C1378 C1369 1.429 . S
C1378 N1375 1.350 . S
C1378 C1377 1.434 . S
C1379 C1380 1.369 . S
C1379 C1381 1.419 . S
C1379 H1383 0.930 . S
C1380 C1379 1.369 . S
C1380 C1389 1.429 . S
C1381 C1379 1.419 . S
C1381 C1382 1.363 . S
C1381 H1384 0.929 . S
C1382 C1381 1.363 . S
C1382 C1388 1.428 . S
H1383 C1379 0.930 . S
H1384 C1381 0.929 . S
S1385 N1386 1.613 . S
S1385 N1387 1.610 . S
N1386 S1385 1.613 . S
N1386 C1389 1.350 . S
N1387 S1385 1.610 . S
N1387 C1388 1.351 . S
C1388 C1382 1.428 . S
C1388 N1387 1.351 . S
C1388 C1389 1.434 . S
C1389 C1380 1.429 . S
C1389 N1386 1.350 . S
C1389 C1388 1.434 . S
C1390 C1391 1.369 . S
C1390 C1392 1.419 . S
C1390 H1394 0.930 . S
C1391 C1390 1.369 . S
C1391 C1400 1.429 . S
C1392 C1390 1.419 . S
C1392 C1393 1.363 . S
C1392 H1395 0.929 . S
C1393 C1392 1.363 . S
C1393 C1399 1.428 . S
H1394 C1390 0.930 . S
H1395 C1392 0.929 . S
S1396 N1397 1.613 . S
S1396 N1398 1.610 . S
N1397 S1396 1.613 . S
N1397 C1400 1.350 . S
N1398 S1396 1.610 . S
N1398 C1399 1.351 . S
C1399 C1393 1.428 . S
C1399 N1398 1.351 . S
C1399 C1400 1.434 . S
C1400 C1391 1.429 . S
C1400 N1397 1.350 . S
C1400 C1399 1.434 . S
C1401 C1402 1.369 . S
C1401 C1403 1.419 . S
C1401 H1405 0.930 . S
C1402 C1401 1.369 . S
C1402 C1411 1.429 . S
C1403 C1401 1.419 . S
C1403 C1404 1.363 . S
C1403 H1406 0.929 . S
C1404 C1403 1.363 . S
C1404 C1410 1.428 . S
H1405 C1401 0.930 . S
H1406 C1403 0.929 . S
S1407 N1408 1.613 . S
S1407 N1409 1.610 . S
N1408 S1407 1.613 . S
N1408 C1411 1.350 . S
N1409 S1407 1.610 . S
N1409 C1410 1.351 . S
C1410 C1404 1.428 . S
C1410 N1409 1.351 . S
C1410 C1411 1.434 . S
C1411 C1402 1.429 . S
C1411 N1408 1.350 . S
C1411 C1410 1.434 . S
C1412 C1413 1.369 . S
C1412 C1414 1.419 . S
C1412 H1416 0.930 . S
C1413 C1412 1.369 . S
C1413 C1422 1.429 . S
C1414 C1412 1.419 . S
C1414 C1415 1.363 . S
C1414 H1417 0.929 . S
C1415 C1414 1.363 . S
C1415 C1421 1.428 . S
H1416 C1412 0.930 . S
H1417 C1414 0.929 . S
S1418 N1419 1.613 . S
S1418 N1420 1.610 . S
N1419 S1418 1.613 . S
N1419 C1422 1.350 . S
N1420 S1418 1.610 . S
N1420 C1421 1.351 . S
C1421 C1415 1.428 . S
C1421 N1420 1.351 . S
C1421 C1422 1.434 . S
C1422 C1413 1.429 . S
C1422 N1419 1.350 . S
C1422 C1421 1.434 . S
C1423 C1424 1.369 . S
C1423 C1425 1.419 . S
C1423 H1427 0.930 . S
C1424 C1423 1.369 . S
C1424 C1433 1.429 . S
C1425 C1423 1.419 . S
C1425 C1426 1.363 . S
C1425 H1428 0.929 . S
C1426 C1425 1.363 . S
C1426 C1432 1.428 . S
H1427 C1423 0.930 . S
H1428 C1425 0.929 . S
S1429 N1430 1.613 . S
S1429 N1431 1.610 . S
N1430 S1429 1.613 . S
N1430 C1433 1.350 . S
N1431 S1429 1.610 . S
N1431 C1432 1.351 . S
C1432 C1426 1.428 . S
C1432 N1431 1.351 . S
C1432 C1433 1.434 . S
C1433 C1424 1.429 . S
C1433 N1430 1.350 . S
C1433 C1432 1.434 . S
C1434 C1435 1.369 . S
C1434 C1436 1.419 . S
C1434 H1438 0.930 . S
C1435 C1434 1.369 . S
C1435 C1444 1.429 . S
C1436 C1434 1.419 . S
C1436 C1437 1.363 . S
C1436 H1439 0.929 . S
C1437 C1436 1.363 . S
C1437 C1443 1.428 . S
H1438 C1434 0.930 . S
H1439 C1436 0.929 . S
S1440 N1441 1.613 . S
S1440 N1442 1.610 . S
N1441 S1440 1.613 . S
N1441 C1444 1.350 . S
N1442 S1440 1.610 . S
N1442 C1443 1.351 . S
C1443 C1437 1.428 . S
C1443 N1442 1.351 . S
C1443 C1444 1.434 . S
C1444 C1435 1.429 . S
C1444 N1441 1.350 . S
C1444 C1443 1.434 . S
C1445 C1446 1.369 . S
C1445 C1447 1.419 . S
C1445 H1449 0.930 . S
C1446 C1445 1.369 . S
C1446 C1455 1.429 . S
C1447 C1445 1.419 . S
C1447 C1448 1.363 . S
C1447 H1450 0.929 . S
C1448 C1447 1.363 . S
C1448 C1454 1.428 . S
H1449 C1445 0.930 . S
H1450 C1447 0.929 . S
S1451 N1452 1.613 . S
S1451 N1453 1.610 . S
N1452 S1451 1.613 . S
N1452 C1455 1.350 . S
N1453 S1451 1.610 . S
N1453 C1454 1.351 . S
C1454 C1448 1.428 . S
C1454 N1453 1.351 . S
C1454 C1455 1.434 . S
C1455 C1446 1.429 . S
C1455 N1452 1.350 . S
C1455 C1454 1.434 . S
C1456 C1457 1.369 . S
C1456 C1458 1.419 . S
C1456 H1460 0.930 . S
C1457 C1456 1.369 . S
C1457 C1466 1.429 . S
C1458 C1456 1.419 . S
C1458 C1459 1.363 . S
C1458 H1461 0.929 . S
C1459 C1458 1.363 . S
C1459 C1465 1.428 . S
H1460 C1456 0.930 . S
H1461 C1458 0.929 . S
S1462 N1463 1.613 . S
S1462 N1464 1.610 . S
N1463 S1462 1.613 . S
N1463 C1466 1.350 . S
N1464 S1462 1.610 . S
N1464 C1465 1.351 . S
C1465 C1459 1.428 . S
C1465 N1464 1.351 . S
C1465 C1466 1.434 . S
C1466 C1457 1.429 . S
C1466 N1463 1.350 . S
C1466 C1465 1.434 . S
C1467 C1468 1.369 . S
C1467 C1469 1.419 . S
C1467 H1471 0.930 . S
C1468 C1467 1.369 . S
C1468 C1477 1.429 . S
C1469 C1467 1.419 . S
C1469 C1470 1.363 . S
C1469 H1472 0.929 . S
C1470 C1469 1.363 . S
C1470 C1476 1.428 . S
H1471 C1467 0.930 . S
H1472 C1469 0.929 . S
S1473 N1474 1.613 . S
S1473 N1475 1.610 . S
N1474 S1473 1.613 . S
N1474 C1477 1.350 . S
N1475 S1473 1.610 . S
N1475 C1476 1.351 . S
C1476 C1470 1.428 . S
C1476 N1475 1.351 . S
C1476 C1477 1.434 . S
C1477 C1468 1.429 . S
C1477 N1474 1.350 . S
C1477 C1476 1.434 . S
C1478 C1479 1.369 . S
C1478 C1480 1.419 . S
C1478 H1482 0.930 . S
C1479 C1478 1.369 . S
C1479 C1488 1.429 . S
C1480 C1478 1.419 . S
C1480 C1481 1.363 . S
C1480 H1483 0.929 . S
C1481 C1480 1.363 . S
C1481 C1487 1.428 . S
H1482 C1478 0.930 . S
H1483 C1480 0.929 . S
S1484 N1485 1.613 . S
S1484 N1486 1.610 . S
N1485 S1484 1.613 . S
N1485 C1488 1.350 . S
N1486 S1484 1.610 . S
N1486 C1487 1.351 . S
C1487 C1481 1.428 . S
C1487 N1486 1.351 . S
C1487 C1488 1.434 . S
C1488 C1479 1.429 . S
C1488 N1485 1.350 . S
C1488 C1487 1.434 . S
C1489 C1490 1.369 . S
C1489 C1491 1.419 . S
C1489 H1493 0.930 . S
C1490 C1489 1.369 . S
C1490 C1499 1.429 . S
C1491 C1489 1.419 . S
C1491 C1492 1.363 . S
C1491 H1494 0.929 . S
C1492 C1491 1.363 . S
C1492 C1498 1.428 . S
H1493 C1489 0.930 . S
H1494 C1491 0.929 . S
S1495 N1496 1.613 . S
S1495 N1497 1.610 . S
N1496 S1495 1.613 . S
N1496 C1499 1.350 . S
N1497 S1495 1.610 . S
N1497 C1498 1.351 . S
C1498 C1492 1.428 . S
C1498 N1497 1.351 . S
C1498 C1499 1.434 . S
C1499 C1490 1.429 . S
C1499 N1496 1.350 . S
C1499 C1498 1.434 . S
C1500 C1501 1.369 . S
C1500 C1502 1.419 . S
C1500 H1504 0.930 . S
C1501 C1500 1.369 . S
C1501 C1510 1.429 . S
C1502 C1500 1.419 . S
C1502 C1503 1.363 . S
C1502 H1505 0.929 . S
C1503 C1502 1.363 . S
C1503 C1509 1.428 . S
H1504 C1500 0.930 . S
H1505 C1502 0.929 . S
S1506 N1507 1.613 . S
S1506 N1508 1.610 . S
N1507 S1506 1.613 . S
N1507 C1510 1.350 . S
N1508 S1506 1.610 . S
N1508 C1509 1.351 . S
C1509 C1503 1.428 . S
C1509 N1508 1.351 . S
C1509 C1510 1.434 . S
C1510 C1501 1.429 . S
C1510 N1507 1.350 . S
C1510 C1509 1.434 . S
C1511 C1512 1.369 . S
C1511 C1513 1.419 . S
C1511 H1515 0.930 . S
C1512 C1511 1.369 . S
C1512 C1521 1.429 . S
C1513 C1511 1.419 . S
C1513 C1514 1.363 . S
C1513 H1516 0.929 . S
C1514 C1513 1.363 . S
C1514 C1520 1.428 . S
H1515 C1511 0.930 . S
H1516 C1513 0.929 . S
S1517 N1518 1.613 . S
S1517 N1519 1.610 . S
N1518 S1517 1.613 . S
N1518 C1521 1.350 . S
N1519 S1517 1.610 . S
N1519 C1520 1.351 . S
C1520 C1514 1.428 . S
C1520 N1519 1.351 . S
C1520 C1521 1.434 . S
C1521 C1512 1.429 . S
C1521 N1518 1.350 . S
C1521 C1520 1.434 . S
C1522 C1523 1.369 . S
C1522 C1524 1.419 . S
C1522 H1526 0.930 . S
C1523 C1522 1.369 . S
C1523 C1532 1.429 . S
C1524 C1522 1.419 . S
C1524 C1525 1.363 . S
C1524 H1527 0.929 . S
C1525 C1524 1.363 . S
C1525 C1531 1.428 . S
H1526 C1522 0.930 . S
H1527 C1524 0.929 . S
S1528 N1529 1.613 . S
S1528 N1530 1.610 . S
N1529 S1528 1.613 . S
N1529 C1532 1.350 . S
N1530 S1528 1.610 . S
N1530 C1531 1.351 . S
C1531 C1525 1.428 . S
C1531 N1530 1.351 . S
C1531 C1532 1.434 . S
C1532 C1523 1.429 . S
C1532 N1529 1.350 . S
C1532 C1531 1.434 . S
C1533 C1534 1.369 . S
C1533 C1535 1.419 . S
C1533 H1537 0.930 . S
C1534 C1533 1.369 . S
C1534 C1543 1.429 . S
C1535 C1533 1.419 . S
C1535 C1536 1.363 . S
C1535 H1538 0.929 . S
C1536 C1535 1.363 . S
C1536 C1542 1.428 . S
H1537 C1533 0.930 . S
H1538 C1535 0.929 . S
S1539 N1540 1.613 . S
S1539 N1541 1.610 . S
N1540 S1539 1.613 . S
N1540 C1543 1.350 . S
N1541 S1539 1.610 . S
N1541 C1542 1.351 . S
C1542 C1536 1.428 . S
C1542 N1541 1.351 . S
C1542 C1543 1.434 . S
C1543 C1534 1.429 . S
C1543 N1540 1.350 . S
C1543 C1542 1.434 . S
C1544 C1545 1.369 . S
C1544 C1546 1.419 . S
C1544 H1548 0.930 . S
C1545 C1544 1.369 . S
C1545 C1554 1.429 . S
C1546 C1544 1.419 . S
C1546 C1547 1.363 . S
C1546 H1549 0.929 . S
C1547 C1546 1.363 . S
C1547 C1553 1.428 . S
H1548 C1544 0.930 . S
H1549 C1546 0.929 . S
S1550 N1551 1.613 . S
S1550 N1552 1.610 . S
N1551 S1550 1.613 . S
N1551 C1554 1.350 . S
N1552 S1550 1.610 . S
N1552 C1553 1.351 . S
C1553 C1547 1.428 . S
C1553 N1552 1.351 . S
C1553 C1554 1.434 . S
C1554 C1545 1.429 . S
C1554 N1551 1.350 . S
C1554 C1553 1.434 . S
C1555 C1556 1.369 . S
C1555 C1557 1.419 . S
C1555 H1559 0.930 . S
C1556 C1555 1.369 . S
C1556 C1565 1.429 . S
C1557 C1555 1.419 . S
C1557 C1558 1.363 . S
C1557 H1560 0.929 . S
C1558 C1557 1.363 . S
C1558 C1564 1.428 . S
H1559 C1555 0.930 . S
H1560 C1557 0.929 . S
S1561 N1562 1.613 . S
S1561 N1563 1.610 . S
N1562 S1561 1.613 . S
N1562 C1565 1.350 . S
N1563 S1561 1.610 . S
N1563 C1564 1.351 . S
C1564 C1558 1.428 . S
C1564 N1563 1.351 . S
C1564 C1565 1.434 . S
C1565 C1556 1.429 . S
C1565 N1562 1.350 . S
C1565 C1564 1.434 . S
C1566 C1567 1.369 . S
C1566 C1568 1.419 . S
C1566 H1570 0.930 . S
C1567 C1566 1.369 . S
C1567 C1576 1.429 . S
C1568 C1566 1.419 . S
C1568 C1569 1.363 . S
C1568 H1571 0.929 . S
C1569 C1568 1.363 . S
C1569 C1575 1.428 . S
H1570 C1566 0.930 . S
H1571 C1568 0.929 . S
S1572 N1573 1.613 . S
S1572 N1574 1.610 . S
N1573 S1572 1.613 . S
N1573 C1576 1.350 . S
N1574 S1572 1.610 . S
N1574 C1575 1.351 . S
C1575 C1569 1.428 . S
C1575 N1574 1.351 . S
C1575 C1576 1.434 . S
C1576 C1567 1.429 . S
C1576 N1573 1.350 . S
C1576 C1575 1.434 . S
C1577 C1578 1.369 . S
C1577 C1579 1.419 . S
C1577 H1581 0.930 . S
C1578 C1577 1.369 . S
C1578 C1587 1.429 . S
C1579 C1577 1.419 . S
C1579 C1580 1.363 . S
C1579 H1582 0.929 . S
C1580 C1579 1.363 . S
C1580 C1586 1.428 . S
H1581 C1577 0.930 . S
H1582 C1579 0.929 . S
S1583 N1584 1.613 . S
S1583 N1585 1.610 . S
N1584 S1583 1.613 . S
N1584 C1587 1.350 . S
N1585 S1583 1.610 . S
N1585 C1586 1.351 . S
C1586 C1580 1.428 . S
C1586 N1585 1.351 . S
C1586 C1587 1.434 . S
C1587 C1578 1.429 . S
C1587 N1584 1.350 . S
C1587 C1586 1.434 . S
C1588 C1589 1.369 . S
C1588 C1590 1.419 . S
C1588 H1592 0.930 . S
C1589 C1588 1.369 . S
C1589 C1598 1.429 . S
C1590 C1588 1.419 . S
C1590 C1591 1.363 . S
C1590 H1593 0.929 . S
C1591 C1590 1.363 . S
C1591 C1597 1.428 . S
H1592 C1588 0.930 . S
H1593 C1590 0.929 . S
S1594 N1595 1.613 1_545 S
S1594 N1596 1.610 1_545 S
N1595 S1594 1.613 1_565 S
N1595 C1598 1.350 . S
N1596 S1594 1.610 1_565 S
N1596 C1597 1.351 . S
C1597 C1591 1.428 . S
C1597 N1596 1.351 . S
C1597 C1598 1.434 . S
C1598 C1589 1.429 . S
C1598 N1595 1.350 . S
C1598 C1597 1.434 . S
C1599 C1600 1.369 . S
C1599 C1601 1.419 . S
C1599 H1603 0.930 . S
C1600 C1599 1.369 . S
C1600 C1609 1.429 . S
C1601 C1599 1.419 . S
C1601 C1602 1.363 . S
C1601 H1604 0.929 . S
C1602 C1601 1.363 . S
C1602 C1608 1.428 . S
H1603 C1599 0.930 . S
H1604 C1601 0.929 . S
S1605 N1606 1.613 . S
S1605 N1607 1.610 . S
N1606 S1605 1.613 . S
N1606 C1609 1.350 . S
N1607 S1605 1.610 . S
N1607 C1608 1.351 . S
C1608 C1602 1.428 . S
C1608 N1607 1.351 . S
C1608 C1609 1.434 . S
C1609 C1600 1.429 . S
C1609 N1606 1.350 . S
C1609 C1608 1.434 . S
C1610 C1611 1.369 . S
C1610 C1612 1.419 . S
C1610 H1614 0.930 . S
C1611 C1610 1.369 . S
C1611 C1620 1.429 . S
C1612 C1610 1.419 . S
C1612 C1613 1.363 . S
C1612 H1615 0.929 . S
C1613 C1612 1.363 . S
C1613 C1619 1.428 . S
H1614 C1610 0.930 . S
H1615 C1612 0.929 . S
S1616 N1617 1.613 . S
S1616 N1618 1.610 . S
N1617 S1616 1.613 . S
N1617 C1620 1.350 . S
N1618 S1616 1.610 . S
N1618 C1619 1.351 . S
C1619 C1613 1.428 . S
C1619 N1618 1.351 . S
C1619 C1620 1.434 . S
C1620 C1611 1.429 . S
C1620 N1617 1.350 . S
C1620 C1619 1.434 . S
C1621 C1622 1.369 . S
C1621 C1623 1.419 . S
C1621 H1625 0.930 . S
C1622 C1621 1.369 . S
C1622 C1631 1.429 . S
C1623 C1621 1.419 . S
C1623 C1624 1.363 . S
C1623 H1626 0.929 . S
C1624 C1623 1.363 . S
C1624 C1630 1.428 . S
H1625 C1621 0.930 . S
H1626 C1623 0.929 . S
S1627 N1628 1.613 . S
S1627 N1629 1.610 . S
N1628 S1627 1.613 . S
N1628 C1631 1.350 . S
N1629 S1627 1.610 . S
N1629 C1630 1.351 . S
C1630 C1624 1.428 . S
C1630 N1629 1.351 . S
C1630 C1631 1.434 . S
C1631 C1622 1.429 . S
C1631 N1628 1.350 . S
C1631 C1630 1.434 . S
C1632 C1633 1.369 . S
C1632 C1634 1.419 1_455 S
C1632 H1636 0.930 . S
C1633 C1632 1.369 . S
C1633 C1642 1.429 . S
C1634 C1632 1.419 1_655 S
C1634 C1635 1.363 . S
C1634 H1637 0.929 . S
C1635 C1634 1.363 . S
C1635 C1641 1.428 . S
H1636 C1632 0.930 . S
H1637 C1634 0.929 . S
S1638 N1639 1.613 . S
S1638 N1640 1.610 1_455 S
N1639 S1638 1.613 . S
N1639 C1642 1.350 . S
N1640 S1638 1.610 1_655 S
N1640 C1641 1.351 . S
C1641 C1635 1.428 . S
C1641 N1640 1.351 . S
C1641 C1642 1.434 1_655 S
C1642 C1633 1.429 . S
C1642 N1639 1.350 . S
C1642 C1641 1.434 1_455 S
C1643 C1644 1.369 . S
C1643 C1645 1.419 . S
C1643 H1647 0.930 . S
C1644 C1643 1.369 . S
C1644 C1653 1.429 1_455 S
C1645 C1643 1.419 . S
C1645 C1646 1.363 1_455 S
C1645 H1648 0.929 . S
C1646 C1645 1.363 1_655 S
C1646 C1652 1.428 . S
H1647 C1643 0.930 . S
H1648 C1645 0.929 . S
S1649 N1650 1.613 . S
S1649 N1651 1.610 . S
N1650 S1649 1.613 . S
N1650 C1653 1.350 . S
N1651 S1649 1.610 . S
N1651 C1652 1.351 . S
C1652 C1646 1.428 . S
C1652 N1651 1.351 . S
C1652 C1653 1.434 . S
C1653 C1644 1.429 1_655 S
C1653 N1650 1.350 . S
C1653 C1652 1.434 . S
C1654 C1655 1.369 . S
C1654 C1656 1.419 . S
C1654 H1658 0.930 . S
C1655 C1654 1.369 . S
C1655 C1664 1.429 . S
C1656 C1654 1.419 . S
C1656 C1657 1.363 . S
C1656 H1659 0.929 . S
C1657 C1656 1.363 . S
C1657 C1663 1.428 . S
H1658 C1654 0.930 . S
H1659 C1656 0.929 . S
S1660 N1661 1.613 . S
S1660 N1662 1.610 . S
N1661 S1660 1.613 . S
N1661 C1664 1.350 . S
N1662 S1660 1.610 . S
N1662 C1663 1.351 . S
C1663 C1657 1.428 . S
C1663 N1662 1.351 . S
C1663 C1664 1.434 . S
C1664 C1655 1.429 . S
C1664 N1661 1.350 . S
C1664 C1663 1.434 . S
C1665 C1666 1.369 . S
C1665 C1667 1.419 . S
C1665 H1669 0.930 . S
C1666 C1665 1.369 . S
C1666 C1675 1.429 . S
C1667 C1665 1.419 . S
C1667 C1668 1.363 . S
C1667 H1670 0.929 . S
C1668 C1667 1.363 . S
C1668 C1674 1.428 . S
H1669 C1665 0.930 . S
H1670 C1667 0.929 . S
S1671 N1672 1.613 . S
S1671 N1673 1.610 . S
N1672 S1671 1.613 . S
N1672 C1675 1.350 . S
N1673 S1671 1.610 . S
N1673 C1674 1.351 . S
C1674 C1668 1.428 . S
C1674 N1673 1.351 . S
C1674 C1675 1.434 . S
C1675 C1666 1.429 . S
C1675 N1672 1.350 . S
C1675 C1674 1.434 . S
C1676 C1677 1.369 . S
C1676 C1678 1.419 1_655 S
C1676 H1680 0.930 . S
C1677 C1676 1.369 . S
C1677 C1686 1.429 . S
C1678 C1676 1.419 1_455 S
C1678 C1679 1.363 . S
C1678 H1681 0.929 . S
C1679 C1678 1.363 . S
C1679 C1685 1.428 . S
H1680 C1676 0.930 . S
H1681 C1678 0.929 . S
S1682 N1683 1.613 1_455 S
S1682 N1684 1.610 . S
N1683 S1682 1.613 1_655 S
N1683 C1686 1.350 . S
N1684 S1682 1.610 . S
N1684 C1685 1.351 . S
C1685 C1679 1.428 . S
C1685 N1684 1.351 . S
C1685 C1686 1.434 1_455 S
C1686 C1677 1.429 . S
C1686 N1683 1.350 . S
C1686 C1685 1.434 1_655 S
C1687 C1688 1.369 . S
C1687 C1689 1.419 . S
C1687 H1691 0.930 . S
C1688 C1687 1.369 . S
C1688 C1697 1.429 . S
C1689 C1687 1.419 . S
C1689 C1690 1.363 . S
C1689 H1692 0.929 . S
C1690 C1689 1.363 . S
C1690 C1696 1.428 . S
H1691 C1687 0.930 . S
H1692 C1689 0.929 . S
S1693 N1694 1.613 . S
S1693 N1695 1.610 . S
N1694 S1693 1.613 . S
N1694 C1697 1.350 . S
N1695 S1693 1.610 . S
N1695 C1696 1.351 . S
C1696 C1690 1.428 . S
C1696 N1695 1.351 . S
C1696 C1697 1.434 . S
C1697 C1688 1.429 . S
C1697 N1694 1.350 . S
C1697 C1696 1.434 . S
C1698 C1699 1.369 . S
C1698 C1700 1.419 . S
C1698 H1702 0.930 . S
C1699 C1698 1.369 . S
C1699 C1708 1.429 . S
C1700 C1698 1.419 . S
C1700 C1701 1.363 . S
C1700 H1703 0.929 . S
C1701 C1700 1.363 . S
C1701 C1707 1.428 . S
H1702 C1698 0.930 . S
H1703 C1700 0.929 . S
S1704 N1705 1.613 . S
S1704 N1706 1.610 . S
N1705 S1704 1.613 . S
N1705 C1708 1.350 . S
N1706 S1704 1.610 . S
N1706 C1707 1.351 . S
C1707 C1701 1.428 . S
C1707 N1706 1.351 . S
C1707 C1708 1.434 . S
C1708 C1699 1.429 . S
C1708 N1705 1.350 . S
C1708 C1707 1.434 . S
C1709 C1710 1.369 . S
C1709 C1711 1.419 . S
C1709 H1713 0.930 . S
C1710 C1709 1.369 . S
C1710 C1719 1.429 1_655 S
C1711 C1709 1.419 . S
C1711 C1712 1.363 1_655 S
C1711 H1714 0.929 . S
C1712 C1711 1.363 1_455 S
C1712 C1718 1.428 . S
H1713 C1709 0.930 . S
H1714 C1711 0.929 . S
S1715 N1716 1.613 . S
S1715 N1717 1.610 . S
N1716 S1715 1.613 . S
N1716 C1719 1.350 . S
N1717 S1715 1.610 . S
N1717 C1718 1.351 . S
C1718 C1712 1.428 . S
C1718 N1717 1.351 . S
C1718 C1719 1.434 . S
C1719 C1710 1.429 1_455 S
C1719 N1716 1.350 . S
C1719 C1718 1.434 . S
C1720 C1721 1.369 . S
C1720 C1722 1.419 1_455 S
C1720 H1724 0.930 . S
C1721 C1720 1.369 . S
C1721 C1730 1.429 . S
C1722 C1720 1.419 1_655 S
C1722 C1723 1.363 . S
C1722 H1725 0.929 . S
C1723 C1722 1.363 . S
C1723 C1729 1.428 . S
H1724 C1720 0.930 . S
H1725 C1722 0.929 . S
S1726 N1727 1.613 . S
S1726 N1728 1.610 1_455 S
N1727 S1726 1.613 . S
N1727 C1730 1.350 . S
N1728 S1726 1.610 1_655 S
N1728 C1729 1.351 . S
C1729 C1723 1.428 . S
C1729 N1728 1.351 . S
C1729 C1730 1.434 1_655 S
C1730 C1721 1.429 . S
C1730 N1727 1.350 . S
C1730 C1729 1.434 1_455 S
C1731 C1732 1.369 1_655 S
C1731 C1733 1.419 . S
C1731 H1735 0.930 . S
C1732 C1731 1.369 1_455 S
C1732 C1741 1.429 . S
C1733 C1731 1.419 . S
C1733 C1734 1.363 . S
C1733 H1736 0.929 . S
C1734 C1733 1.363 . S
C1734 C1740 1.428 1_655 S
H1735 C1731 0.930 . S
H1736 C1733 0.929 . S
S1737 N1738 1.613 . S
S1737 N1739 1.610 . S
N1738 S1737 1.613 . S
N1738 C1741 1.350 . S
N1739 S1737 1.610 . S
N1739 C1740 1.351 . S
C1740 C1734 1.428 1_455 S
C1740 N1739 1.351 . S
C1740 C1741 1.434 . S
C1741 C1732 1.429 . S
C1741 N1738 1.350 . S
C1741 C1740 1.434 . S
C1742 C1743 1.369 . S
C1742 C1744 1.419 . S
C1742 H1746 0.930 . S
C1743 C1742 1.369 . S
C1743 C1752 1.429 . S
C1744 C1742 1.419 . S
C1744 C1745 1.363 . S
C1744 H1747 0.929 . S
C1745 C1744 1.363 . S
C1745 C1751 1.428 . S
H1746 C1742 0.930 . S
H1747 C1744 0.929 . S
S1748 N1749 1.613 . S
S1748 N1750 1.610 . S
N1749 S1748 1.613 . S
N1749 C1752 1.350 . S
N1750 S1748 1.610 . S
N1750 C1751 1.351 . S
C1751 C1745 1.428 . S
C1751 N1750 1.351 . S
C1751 C1752 1.434 . S
C1752 C1743 1.429 . S
C1752 N1749 1.350 . S
C1752 C1751 1.434 . S
C1753 C1754 1.369 . S
C1753 C1755 1.419 . S
C1753 H1757 0.930 . S
C1754 C1753 1.369 . S
C1754 C1763 1.429 . S
C1755 C1753 1.419 . S
C1755 C1756 1.363 . S
C1755 H1758 0.929 . S
C1756 C1755 1.363 . S
C1756 C1762 1.428 . S
H1757 C1753 0.930 . S
H1758 C1755 0.929 . S
S1759 N1760 1.613 . S
S1759 N1761 1.610 . S
N1760 S1759 1.613 . S
N1760 C1763 1.350 . S
N1761 S1759 1.610 . S
N1761 C1762 1.351 . S
C1762 C1756 1.428 . S
C1762 N1761 1.351 . S
C1762 C1763 1.434 . S
C1763 C1754 1.429 . S
C1763 N1760 1.350 . S
C1763 C1762 1.434 . S
C1764 C1765 1.369 . S
C1764 C1766 1.419 1_455 S
C1764 H1768 0.930 . S
C1765 C1764 1.369 . S
C1765 C1774 1.429 . S
C1766 C1764 1.419 1_655 S
C1766 C1767 1.363 . S
C1766 H1769 0.929 . S
C1767 C1766 1.363 . S
C1767 C1773 1.428 . S
H1768 C1764 0.930 . S
H1769 C1766 0.929 . S
S1770 N1771 1.613 1_655 S
S1770 N1772 1.610 . S
N1771 S1770 1.613 1_455 S
N1771 C1774 1.350 . S
N1772 S1770 1.610 . S
N1772 C1773 1.351 . S
C1773 C1767 1.428 . S
C1773 N1772 1.351 . S
C1773 C1774 1.434 1_655 S
C1774 C1765 1.429 . S
C1774 N1771 1.350 . S
C1774 C1773 1.434 1_455 S
C1775 C1776 1.369 . S
C1775 C1777 1.419 . S
C1775 H1779 0.930 . S
C1776 C1775 1.369 . S
C1776 C1785 1.429 . S
C1777 C1775 1.419 . S
C1777 C1778 1.363 . S
C1777 H1780 0.929 . S
C1778 C1777 1.363 . S
C1778 C1784 1.428 . S
H1779 C1775 0.930 . S
H1780 C1777 0.929 . S
S1781 N1782 1.613 . S
S1781 N1783 1.610 . S
N1782 S1781 1.613 . S
N1782 C1785 1.350 . S
N1783 S1781 1.610 . S
N1783 C1784 1.351 . S
C1784 C1778 1.428 . S
C1784 N1783 1.351 . S
C1784 C1785 1.434 . S
C1785 C1776 1.429 . S
C1785 N1782 1.350 . S
C1785 C1784 1.434 . S
C1786 C1787 1.369 . S
C1786 C1788 1.419 . S
C1786 H1790 0.930 . S
C1787 C1786 1.369 . S
C1787 C1796 1.429 . S
C1788 C1786 1.419 . S
C1788 C1789 1.363 . S
C1788 H1791 0.929 . S
C1789 C1788 1.363 . S
C1789 C1795 1.428 . S
H1790 C1786 0.930 . S
H1791 C1788 0.929 . S
S1792 N1793 1.613 . S
S1792 N1794 1.610 . S
N1793 S1792 1.613 . S
N1793 C1796 1.350 . S
N1794 S1792 1.610 . S
N1794 C1795 1.351 . S
C1795 C1789 1.428 . S
C1795 N1794 1.351 . S
C1795 C1796 1.434 . S
C1796 C1787 1.429 . S
C1796 N1793 1.350 . S
C1796 C1795 1.434 . S
C1797 C1798 1.369 1_655 S
C1797 C1799 1.419 . S
C1797 H1801 0.930 . S
C1798 C1797 1.369 1_455 S
C1798 C1807 1.429 . S
C1799 C1797 1.419 . S
C1799 C1800 1.363 . S
C1799 H1802 0.929 . S
C1800 C1799 1.363 . S
C1800 C1806 1.428 1_655 S
H1801 C1797 0.930 . S
H1802 C1799 0.929 . S
S1803 N1804 1.613 . S
S1803 N1805 1.610 . S
N1804 S1803 1.613 . S
N1804 C1807 1.350 . S
N1805 S1803 1.610 . S
N1805 C1806 1.351 . S
C1806 C1800 1.428 1_455 S
C1806 N1805 1.351 . S
C1806 C1807 1.434 . S
C1807 C1798 1.429 . S
C1807 N1804 1.350 . S
C1807 C1806 1.434 . S
C1808 C1809 1.369 . S
C1808 C1810 1.419 . S
C1808 H1812 0.930 . S
C1809 C1808 1.369 . S
C1809 C1818 1.429 . S
C1810 C1808 1.419 . S
C1810 C1811 1.363 . S
C1810 H1813 0.929 . S
C1811 C1810 1.363 . S
C1811 C1817 1.428 . S
H1812 C1808 0.930 . S
H1813 C1810 0.929 . S
S1814 N1815 1.613 . S
S1814 N1816 1.610 . S
N1815 S1814 1.613 . S
N1815 C1818 1.350 . S
N1816 S1814 1.610 . S
N1816 C1817 1.351 . S
C1817 C1811 1.428 . S
C1817 N1816 1.351 . S
C1817 C1818 1.434 . S
C1818 C1809 1.429 . S
C1818 N1815 1.350 . S
C1818 C1817 1.434 . S
C1819 C1820 1.365 1_545 S
C1819 C1821 1.419 . S
C1819 H1823 0.930 . S
C1820 C1819 1.365 1_565 S
C1820 C1829 1.433 1_655 S
C1821 C1819 1.419 . S
C1821 C1822 1.357 1_645 S
C1821 H1824 0.929 . S
C1822 C1821 1.357 1_465 S
C1822 C1828 1.434 . S
H1823 C1819 0.930 . S
H1824 C1821 0.929 . S
S1825 N1826 1.613 . S
S1825 N1827 1.610 . S
N1826 S1825 1.613 . S
N1826 C1829 1.350 . S
N1827 S1825 1.610 . S
N1827 C1828 1.351 . S
C1828 C1822 1.434 . S
C1828 N1827 1.351 . S
C1828 C1829 1.434 . S
C1829 C1820 1.433 1_455 S
C1829 N1826 1.350 . S
C1829 C1828 1.434 . S
C1830 C1831 1.369 . S
C1830 C1832 1.419 . S
C1830 H1834 0.930 . S
C1831 C1830 1.369 . S
C1831 C1840 1.429 . S
C1832 C1830 1.419 . S
C1832 C1833 1.363 . S
C1832 H1835 0.929 . S
C1833 C1832 1.363 . S
C1833 C1839 1.428 . S
H1834 C1830 0.930 . S
H1835 C1832 0.929 . S
S1836 N1837 1.613 . S
S1836 N1838 1.610 . S
N1837 S1836 1.613 . S
N1837 C1840 1.350 . S
N1838 S1836 1.610 . S
N1838 C1839 1.351 . S
C1839 C1833 1.428 . S
C1839 N1838 1.351 . S
C1839 C1840 1.434 . S
C1840 C1831 1.429 . S
C1840 N1837 1.350 . S
C1840 C1839 1.434 . S
C1841 C1842 1.363 1_545 S
C1841 C1843 1.419 1_554 S
C1841 H1845 0.930 . S
C1842 C1841 1.363 1_565 S
C1842 C1851 1.435 . S
C1843 C1841 1.419 1_556 S
C1843 C1844 1.355 1_545 S
C1843 H1846 0.929 . S
C1844 C1843 1.355 1_565 S
C1844 C1850 1.437 . S
H1845 C1841 0.930 . S
H1846 C1843 0.929 . S
S1847 N1848 1.573 1_556 S
S1847 N1849 1.650 . S
N1848 S1847 1.573 1_554 S
N1848 C1851 1.350 . S
N1849 S1847 1.650 . S
N1849 C1850 1.351 . S
C1850 C1844 1.437 . S
C1850 N1849 1.351 . S
C1850 C1851 1.434 1_556 S
C1851 C1842 1.435 . S
C1851 N1848 1.350 . S
C1851 C1850 1.434 1_554 S
C1852 C1853 1.369 . S
C1852 C1854 1.419 . S
C1852 H1856 0.930 . S
C1853 C1852 1.369 . S
C1853 C1862 1.429 . S
C1854 C1852 1.419 . S
C1854 C1855 1.363 . S
C1854 H1857 0.929 . S
C1855 C1854 1.363 . S
C1855 C1861 1.428 . S
H1856 C1852 0.930 . S
H1857 C1854 0.929 . S
S1858 N1859 1.613 . S
S1858 N1860 1.610 . S
N1859 S1858 1.613 . S
N1859 C1862 1.350 . S
N1860 S1858 1.610 . S
N1860 C1861 1.351 . S
C1861 C1855 1.428 . S
C1861 N1860 1.351 . S
C1861 C1862 1.434 . S
C1862 C1853 1.429 . S
C1862 N1859 1.350 . S
C1862 C1861 1.434 . S
C1863 C1864 1.368 1_565 S
C1863 C1865 1.419 . S
C1863 H1867 0.930 . S
C1864 C1863 1.368 1_545 S
C1864 C1873 1.429 . S
C1865 C1863 1.419 . S
C1865 C1866 1.363 1_565 S
C1865 H1868 0.929 . S
C1866 C1865 1.363 1_545 S
C1866 C1872 1.428 . S
H1867 C1863 0.930 . S
H1868 C1865 0.929 . S
S1869 N1870 1.613 . S
S1869 N1871 1.610 . S
N1870 S1869 1.613 . S
N1870 C1873 1.350 . S
N1871 S1869 1.610 . S
N1871 C1872 1.351 . S
C1872 C1866 1.428 . S
C1872 N1871 1.351 . S
C1872 C1873 1.434 . S
C1873 C1864 1.429 . S
C1873 N1870 1.350 . S
C1873 C1872 1.434 . S
C1874 C1875 1.369 . S
C1874 C1876 1.419 . S
C1874 H1878 0.930 . S
C1875 C1874 1.369 . S
C1875 C1884 1.429 . S
C1876 C1874 1.419 . S
C1876 C1877 1.363 . S
C1876 H1879 0.929 . S
C1877 C1876 1.363 . S
C1877 C1883 1.428 . S
H1878 C1874 0.930 . S
H1879 C1876 0.929 . S
S1880 N1881 1.613 . S
S1880 N1882 1.610 . S
N1881 S1880 1.613 . S
N1881 C1884 1.350 . S
N1882 S1880 1.610 . S
N1882 C1883 1.351 . S
C1883 C1877 1.428 . S
C1883 N1882 1.351 . S
C1883 C1884 1.434 . S
C1884 C1875 1.429 . S
C1884 N1881 1.350 . S
C1884 C1883 1.434 . S
C1885 C1886 1.362 1_645 S
C1885 C1887 1.419 1_556 S
C1885 H1889 0.930 . S
C1886 C1885 1.362 1_465 S
C1886 C1895 1.436 . S
C1887 C1885 1.419 1_554 S
C1887 C1888 1.353 1_545 S
C1887 H1890 0.929 . S
C1888 C1887 1.353 1_565 S
C1888 C1894 1.439 1_655 S
H1889 C1885 0.930 . S
H1890 C1887 0.929 . S
S1891 N1892 1.590 1_554 S
S1891 N1893 1.633 . S
N1892 S1891 1.590 1_556 S
N1892 C1895 1.350 . S
N1893 S1891 1.633 . S
N1893 C1894 1.351 . S
C1894 C1888 1.439 1_455 S
C1894 N1893 1.351 . S
C1894 C1895 1.434 1_554 S
C1895 C1886 1.436 . S
C1895 N1892 1.350 . S
C1895 C1894 1.434 1_556 S
C1896 C1897 1.369 . S
C1896 C1898 1.419 . S
C1896 H1900 0.930 . S
C1897 C1896 1.369 . S
C1897 C1906 1.429 . S
C1898 C1896 1.419 . S
C1898 C1899 1.363 . S
C1898 H1901 0.929 . S
C1899 C1898 1.363 . S
C1899 C1905 1.428 . S
H1900 C1896 0.930 . S
H1901 C1898 0.929 . S
S1902 N1903 1.613 . S
S1902 N1904 1.610 . S
N1903 S1902 1.613 . S
N1903 C1906 1.350 . S
N1904 S1902 1.610 . S
N1904 C1905 1.351 . S
C1905 C1899 1.428 . S
C1905 N1904 1.351 . S
C1905 C1906 1.434 . S
C1906 C1897 1.429 . S
C1906 N1903 1.350 . S
C1906 C1905 1.434 . S
C1907 C1908 1.369 . S
C1907 C1909 1.419 . S
C1907 H1911 0.930 . S
C1908 C1907 1.369 . S
C1908 C1917 1.429 . S
C1909 C1907 1.419 . S
C1909 C1910 1.363 . S
C1909 H1912 0.929 . S
C1910 C1909 1.363 . S
C1910 C1916 1.428 . S
H1911 C1907 0.930 . S
H1912 C1909 0.929 . S
S1913 N1914 1.613 . S
S1913 N1915 1.610 . S
N1914 S1913 1.613 . S
N1914 C1917 1.350 . S
N1915 S1913 1.610 . S
N1915 C1916 1.351 . S
C1916 C1910 1.428 . S
C1916 N1915 1.351 . S
C1916 C1917 1.434 . S
C1917 C1908 1.429 . S
C1917 N1914 1.350 . S
C1917 C1916 1.434 . S
C1918 C1919 1.369 . S
C1918 C1920 1.419 . S
C1918 H1922 0.930 . S
C1919 C1918 1.369 . S
C1919 C1928 1.429 . S
C1920 C1918 1.419 . S
C1920 C1921 1.363 . S
C1920 H1923 0.929 . S
C1921 C1920 1.363 . S
C1921 C1927 1.428 . S
H1922 C1918 0.930 . S
H1923 C1920 0.929 . S
S1924 N1925 1.613 . S
S1924 N1926 1.610 . S
N1925 S1924 1.613 . S
N1925 C1928 1.350 . S
N1926 S1924 1.610 . S
N1926 C1927 1.351 . S
C1927 C1921 1.428 . S
C1927 N1926 1.351 . S
C1927 C1928 1.434 . S
C1928 C1919 1.429 . S
C1928 N1925 1.350 . S
C1928 C1927 1.434 . S
C1929 C1930 1.369 . S
C1929 C1931 1.419 . S
C1929 H1933 0.930 . S
C1930 C1929 1.369 . S
C1930 C1939 1.429 . S
C1931 C1929 1.419 . S
C1931 C1932 1.363 . S
C1931 H1934 0.929 . S
C1932 C1931 1.363 . S
C1932 C1938 1.428 . S
H1933 C1929 0.930 . S
H1934 C1931 0.929 . S
S1935 N1936 1.613 . S
S1935 N1937 1.610 . S
N1936 S1935 1.613 . S
N1936 C1939 1.350 . S
N1937 S1935 1.610 . S
N1937 C1938 1.351 . S
C1938 C1932 1.428 . S
C1938 N1937 1.351 . S
C1938 C1939 1.434 . S
C1939 C1930 1.429 . S
C1939 N1936 1.350 . S
C1939 C1938 1.434 . S
C1940 C1941 1.369 . S
C1940 C1942 1.419 1_554 S
C1940 H1944 0.930 . S
C1941 C1940 1.369 . S
C1941 C1950 1.429 . S
C1942 C1940 1.419 1_556 S
C1942 C1943 1.363 . S
C1942 H1945 0.929 . S
C1943 C1942 1.363 . S
C1943 C1949 1.428 . S
H1944 C1940 0.930 . S
H1945 C1942 0.929 . S
S1946 N1947 1.613 . S
S1946 N1948 1.610 1_554 S
N1947 S1946 1.613 . S
N1947 C1950 1.350 . S
N1948 S1946 1.610 1_556 S
N1948 C1949 1.351 . S
C1949 C1943 1.428 . S
C1949 N1948 1.351 . S
C1949 C1950 1.434 1_556 S
C1950 C1941 1.429 . S
C1950 N1947 1.350 . S
C1950 C1949 1.434 1_554 S
C1951 C1952 1.369 . S
C1951 C1953 1.419 . S
C1951 H1955 0.930 . S
C1952 C1951 1.369 . S
C1952 C1961 1.429 1_655 S
C1953 C1951 1.419 . S
C1953 C1954 1.363 1_655 S
C1953 H1956 0.929 . S
C1954 C1953 1.363 1_455 S
C1954 C1960 1.428 . S
H1955 C1951 0.930 . S
H1956 C1953 0.929 . S
S1957 N1958 1.613 . S
S1957 N1959 1.610 . S
N1958 S1957 1.613 . S
N1958 C1961 1.350 . S
N1959 S1957 1.610 . S
N1959 C1960 1.351 . S
C1960 C1954 1.428 . S
C1960 N1959 1.351 . S
C1960 C1961 1.434 . S
C1961 C1952 1.429 1_455 S
C1961 N1958 1.350 . S
C1961 C1960 1.434 . S
C1962 C1963 1.369 . S
C1962 C1964 1.419 1_554 S
C1962 H1966 0.930 . S
C1963 C1962 1.369 . S
C1963 C1972 1.429 1_455 S
C1964 C1962 1.419 1_556 S
C1964 C1965 1.363 1_455 S
C1964 H1967 0.929 . S
C1965 C1964 1.363 1_655 S
C1965 C1971 1.428 . S
H1966 C1962 0.930 . S
H1967 C1964 0.929 . S
S1968 N1969 1.658 . S
S1968 N1970 1.565 1_554 S
N1969 S1968 1.658 . S
N1969 C1972 1.350 . S
N1970 S1968 1.565 1_556 S
N1970 C1971 1.351 . S
C1971 C1965 1.428 . S
C1971 N1970 1.351 . S
C1971 C1972 1.434 1_556 S
C1972 C1963 1.429 1_655 S
C1972 N1969 1.350 . S
C1972 C1971 1.434 1_554 S
C1973 C1974 1.369 . S
C1973 C1975 1.419 . S
C1973 H1977 0.930 . S
C1974 C1973 1.369 . S
C1974 C1983 1.429 . S
C1975 C1973 1.419 . S
C1975 C1976 1.363 . S
C1975 H1978 0.929 . S
C1976 C1975 1.363 . S
C1976 C1982 1.428 . S
H1977 C1973 0.930 . S
H1978 C1975 0.929 . S
S1979 N1980 1.613 . S
S1979 N1981 1.610 . S
N1980 S1979 1.613 . S
N1980 C1983 1.350 . S
N1981 S1979 1.610 . S
N1981 C1982 1.351 . S
C1982 C1976 1.428 . S
C1982 N1981 1.351 . S
C1982 C1983 1.434 . S
C1983 C1974 1.429 . S
C1983 N1980 1.350 . S
C1983 C1982 1.434 . S
C1984 C1985 1.369 . S
C1984 C1986 1.419 . S
C1984 H1988 0.930 . S
C1985 C1984 1.369 . S
C1985 C1994 1.429 . S
C1986 C1984 1.419 . S
C1986 C1987 1.363 . S
C1986 H1989 0.929 . S
C1987 C1986 1.363 . S
C1987 C1993 1.428 . S
H1988 C1984 0.930 . S
H1989 C1986 0.929 . S
S1990 N1991 1.613 . S
S1990 N1992 1.610 . S
N1991 S1990 1.613 . S
N1991 C1994 1.350 . S
N1992 S1990 1.610 . S
N1992 C1993 1.351 . S
C1993 C1987 1.428 . S
C1993 N1992 1.351 . S
C1993 C1994 1.434 . S
C1994 C1985 1.429 . S
C1994 N1991 1.350 . S
C1994 C1993 1.434 . S
C1995 C1996 1.369 . S
C1995 C1997 1.419 . S
C1995 H1999 0.930 . S
C1996 C1995 1.369 . S
C1996 C2005 1.429 . S
C1997 C1995 1.419 . S
C1997 C1998 1.363 . S
C1997 H2000 0.929 . S
C1998 C1997 1.363 . S
C1998 C2004 1.428 . S
H1999 C1995 0.930 . S
H2000 C1997 0.929 . S
S2001 N2002 1.613 . S
S2001 N2003 1.610 . S
N2002 S2001 1.613 . S
N2002 C2005 1.350 . S
N2003 S2001 1.610 . S
N2003 C2004 1.351 . S
C2004 C1998 1.428 . S
C2004 N2003 1.351 . S
C2004 C2005 1.434 . S
C2005 C1996 1.429 . S
C2005 N2002 1.350 . S
C2005 C2004 1.434 . S
C2006 C2007 1.369 . S
C2006 C2008 1.419 . S
C2006 H2010 0.930 . S
C2007 C2006 1.369 . S
C2007 C2016 1.429 . S
C2008 C2006 1.419 . S
C2008 C2009 1.363 . S
C2008 H2011 0.929 . S
C2009 C2008 1.363 . S
C2009 C2015 1.428 . S
H2010 C2006 0.930 . S
H2011 C2008 0.929 . S
S2012 N2013 1.613 . S
S2012 N2014 1.610 . S
N2013 S2012 1.613 . S
N2013 C2016 1.350 . S
N2014 S2012 1.610 . S
N2014 C2015 1.351 . S
C2015 C2009 1.428 . S
C2015 N2014 1.351 . S
C2015 C2016 1.434 . S
C2016 C2007 1.429 . S
C2016 N2013 1.350 . S
C2016 C2015 1.434 . S
C2017 C2018 1.369 . S
C2017 C2019 1.419 . S
C2017 H2021 0.930 . S
C2018 C2017 1.369 . S
C2018 C2027 1.429 . S
C2019 C2017 1.419 . S
C2019 C2020 1.363 . S
C2019 H2022 0.929 . S
C2020 C2019 1.363 . S
C2020 C2026 1.428 . S
H2021 C2017 0.930 . S
H2022 C2019 0.929 . S
S2023 N2024 1.613 . S
S2023 N2025 1.610 . S
N2024 S2023 1.613 . S
N2024 C2027 1.350 . S
N2025 S2023 1.610 . S
N2025 C2026 1.351 . S
C2026 C2020 1.428 . S
C2026 N2025 1.351 . S
C2026 C2027 1.434 . S
C2027 C2018 1.429 . S
C2027 N2024 1.350 . S
C2027 C2026 1.434 . S
C2028 C2029 1.369 . S
C2028 C2030 1.419 . S
C2028 H2032 0.930 . S
C2029 C2028 1.369 . S
C2029 C2038 1.429 . S
C2030 C2028 1.419 . S
C2030 C2031 1.363 . S
C2030 H2033 0.929 . S
C2031 C2030 1.363 . S
C2031 C2037 1.428 . S
H2032 C2028 0.930 . S
H2033 C2030 0.929 . S
S2034 N2035 1.613 . S
S2034 N2036 1.610 . S
N2035 S2034 1.613 . S
N2035 C2038 1.350 . S
N2036 S2034 1.610 . S
N2036 C2037 1.351 . S
C2037 C2031 1.428 . S
C2037 N2036 1.351 . S
C2037 C2038 1.434 . S
C2038 C2029 1.429 . S
C2038 N2035 1.350 . S
C2038 C2037 1.434 . S
C2039 C2040 1.369 . S
C2039 C2041 1.419 . S
C2039 H2043 0.930 . S
C2040 C2039 1.369 . S
C2040 C2049 1.429 . S
C2041 C2039 1.419 . S
C2041 C2042 1.363 . S
C2041 H2044 0.929 . S
C2042 C2041 1.363 . S
C2042 C2048 1.428 . S
H2043 C2039 0.930 . S
H2044 C2041 0.929 . S
S2045 N2046 1.613 . S
S2045 N2047 1.610 . S
N2046 S2045 1.613 . S
N2046 C2049 1.350 . S
N2047 S2045 1.610 . S
N2047 C2048 1.351 . S
C2048 C2042 1.428 . S
C2048 N2047 1.351 . S
C2048 C2049 1.434 . S
C2049 C2040 1.429 . S
C2049 N2046 1.350 . S
C2049 C2048 1.434 . S
C2050 C2051 1.369 . S
C2050 C2052 1.419 . S
C2050 H2054 0.930 . S
C2051 C2050 1.369 . S
C2051 C2060 1.429 . S
C2052 C2050 1.419 . S
C2052 C2053 1.363 . S
C2052 H2055 0.929 . S
C2053 C2052 1.363 . S
C2053 C2059 1.428 . S
H2054 C2050 0.930 . S
H2055 C2052 0.929 . S
S2056 N2057 1.613 . S
S2056 N2058 1.610 . S
N2057 S2056 1.613 . S
N2057 C2060 1.350 . S
N2058 S2056 1.610 . S
N2058 C2059 1.351 . S
C2059 C2053 1.428 . S
C2059 N2058 1.351 . S
C2059 C2060 1.434 . S
C2060 C2051 1.429 . S
C2060 N2057 1.350 . S
C2060 C2059 1.434 . S
C2061 C2062 1.369 . S
C2061 C2063 1.419 . S
C2061 H2065 0.930 . S
C2062 C2061 1.369 . S
C2062 C2071 1.429 . S
C2063 C2061 1.419 . S
C2063 C2064 1.363 . S
C2063 H2066 0.929 . S
C2064 C2063 1.363 . S
C2064 C2070 1.428 . S
H2065 C2061 0.930 . S
H2066 C2063 0.929 . S
S2067 N2068 1.613 . S
S2067 N2069 1.610 . S
N2068 S2067 1.613 . S
N2068 C2071 1.350 . S
N2069 S2067 1.610 . S
N2069 C2070 1.351 . S
C2070 C2064 1.428 . S
C2070 N2069 1.351 . S
C2070 C2071 1.434 . S
C2071 C2062 1.429 . S
C2071 N2068 1.350 . S
C2071 C2070 1.434 . S
C2072 C2073 1.369 . S
C2072 C2074 1.419 . S
C2072 H2076 0.930 . S
C2073 C2072 1.369 . S
C2073 C2082 1.429 . S
C2074 C2072 1.419 . S
C2074 C2075 1.363 . S
C2074 H2077 0.929 . S
C2075 C2074 1.363 . S
C2075 C2081 1.428 . S
H2076 C2072 0.930 . S
H2077 C2074 0.929 . S
S2078 N2079 1.613 . S
S2078 N2080 1.610 . S
N2079 S2078 1.613 . S
N2079 C2082 1.350 . S
N2080 S2078 1.610 . S
N2080 C2081 1.351 . S
C2081 C2075 1.428 . S
C2081 N2080 1.351 . S
C2081 C2082 1.434 . S
C2082 C2073 1.429 . S
C2082 N2079 1.350 . S
C2082 C2081 1.434 . S
C2083 C2084 1.369 . S
C2083 C2085 1.419 . S
C2083 H2087 0.930 . S
C2084 C2083 1.369 . S
C2084 C2093 1.429 . S
C2085 C2083 1.419 . S
C2085 C2086 1.363 . S
C2085 H2088 0.929 . S
C2086 C2085 1.363 . S
C2086 C2092 1.428 . S
H2087 C2083 0.930 . S
H2088 C2085 0.929 . S
S2089 N2090 1.613 . S
S2089 N2091 1.610 . S
N2090 S2089 1.613 . S
N2090 C2093 1.350 . S
N2091 S2089 1.610 . S
N2091 C2092 1.351 . S
C2092 C2086 1.428 . S
C2092 N2091 1.351 . S
C2092 C2093 1.434 . S
C2093 C2084 1.429 . S
C2093 N2090 1.350 . S
C2093 C2092 1.434 . S
C2094 C2095 1.369 . S
C2094 C2096 1.419 . S
C2094 H2098 0.930 . S
C2095 C2094 1.369 . S
C2095 C2104 1.429 . S
C2096 C2094 1.419 . S
C2096 C2097 1.363 . S
C2096 H2099 0.929 . S
C2097 C2096 1.363 . S
C2097 C2103 1.428 . S
H2098 C2094 0.930 . S
H2099 C2096 0.929 . S
S2100 N2101 1.613 . S
S2100 N2102 1.610 . S
N2101 S2100 1.613 . S
N2101 C2104 1.350 . S
N2102 S2100 1.610 . S
N2102 C2103 1.351 . S
C2103 C2097 1.428 . S
C2103 N2102 1.351 . S
C2103 C2104 1.434 . S
C2104 C2095 1.429 . S
C2104 N2101 1.350 . S
C2104 C2103 1.434 . S
C2105 C2106 1.369 . S
C2105 C2107 1.419 . S
C2105 H2109 0.930 . S
C2106 C2105 1.369 . S
C2106 C2115 1.429 . S
C2107 C2105 1.419 . S
C2107 C2108 1.363 . S
C2107 H2110 0.929 . S
C2108 C2107 1.363 . S
C2108 C2114 1.428 . S
H2109 C2105 0.930 . S
H2110 C2107 0.929 . S
S2111 N2112 1.613 . S
S2111 N2113 1.610 . S
N2112 S2111 1.613 . S
N2112 C2115 1.350 . S
N2113 S2111 1.610 . S
N2113 C2114 1.351 . S
C2114 C2108 1.428 . S
C2114 N2113 1.351 . S
C2114 C2115 1.434 . S
C2115 C2106 1.429 . S
C2115 N2112 1.350 . S
C2115 C2114 1.434 . S
C2116 C2117 1.369 . S
C2116 C2118 1.419 . S
C2116 H2120 0.930 . S
C2117 C2116 1.369 . S
C2117 C2126 1.429 . S
C2118 C2116 1.419 . S
C2118 C2119 1.363 . S
C2118 H2121 0.929 . S
C2119 C2118 1.363 . S
C2119 C2125 1.428 . S
H2120 C2116 0.930 . S
H2121 C2118 0.929 . S
S2122 N2123 1.613 . S
S2122 N2124 1.610 . S
N2123 S2122 1.613 . S
N2123 C2126 1.350 . S
N2124 S2122 1.610 . S
N2124 C2125 1.351 . S
C2125 C2119 1.428 . S
C2125 N2124 1.351 . S
C2125 C2126 1.434 . S
C2126 C2117 1.429 . S
C2126 N2123 1.350 . S
C2126 C2125 1.434 . S
C2127 C2128 1.369 . S
C2127 C2129 1.419 . S
C2127 H2131 0.930 . S
C2128 C2127 1.369 . S
C2128 C2137 1.429 . S
C2129 C2127 1.419 . S
C2129 C2130 1.363 . S
C2129 H2132 0.929 . S
C2130 C2129 1.363 . S
C2130 C2136 1.428 . S
H2131 C2127 0.930 . S
H2132 C2129 0.929 . S
S2133 N2134 1.613 . S
S2133 N2135 1.610 . S
N2134 S2133 1.613 . S
N2134 C2137 1.350 . S
N2135 S2133 1.610 . S
N2135 C2136 1.351 . S
C2136 C2130 1.428 . S
C2136 N2135 1.351 . S
C2136 C2137 1.434 . S
C2137 C2128 1.429 . S
C2137 N2134 1.350 . S
C2137 C2136 1.434 . S
C2138 C2139 1.369 . S
C2138 C2140 1.419 . S
C2138 H2142 0.930 . S
C2139 C2138 1.369 . S
C2139 C2148 1.429 . S
C2140 C2138 1.419 . S
C2140 C2141 1.363 . S
C2140 H2143 0.929 . S
C2141 C2140 1.363 . S
C2141 C2147 1.428 . S
H2142 C2138 0.930 . S
H2143 C2140 0.929 . S
S2144 N2145 1.613 . S
S2144 N2146 1.610 . S
N2145 S2144 1.613 . S
N2145 C2148 1.350 . S
N2146 S2144 1.610 . S
N2146 C2147 1.351 . S
C2147 C2141 1.428 . S
C2147 N2146 1.351 . S
C2147 C2148 1.434 . S
C2148 C2139 1.429 . S
C2148 N2145 1.350 . S
C2148 C2147 1.434 . S
C2149 C2150 1.369 . S
C2149 C2151 1.419 . S
C2149 H2153 0.930 . S
C2150 C2149 1.369 . S
C2150 C2159 1.429 . S
C2151 C2149 1.419 . S
C2151 C2152 1.363 . S
C2151 H2154 0.929 . S
C2152 C2151 1.363 . S
C2152 C2158 1.428 . S
H2153 C2149 0.930 . S
H2154 C2151 0.929 . S
S2155 N2156 1.613 . S
S2155 N2157 1.610 . S
N2156 S2155 1.613 . S
N2156 C2159 1.350 . S
N2157 S2155 1.610 . S
N2157 C2158 1.351 . S
C2158 C2152 1.428 . S
C2158 N2157 1.351 . S
C2158 C2159 1.434 . S
C2159 C2150 1.429 . S
C2159 N2156 1.350 . S
C2159 C2158 1.434 . S
C2160 C2161 1.369 . S
C2160 C2162 1.419 1_545 S
C2160 H2164 0.930 . S
C2161 C2160 1.369 . S
C2161 C2170 1.429 . S
C2162 C2160 1.419 1_565 S
C2162 C2163 1.363 . S
C2162 H2165 0.929 . S
C2163 C2162 1.363 . S
C2163 C2169 1.428 . S
H2164 C2160 0.930 . S
H2165 C2162 0.929 . S
S2166 N2167 1.613 1_565 S
S2166 N2168 1.610 . S
N2167 S2166 1.613 1_545 S
N2167 C2170 1.350 . S
N2168 S2166 1.610 . S
N2168 C2169 1.351 . S
C2169 C2163 1.428 . S
C2169 N2168 1.351 . S
C2169 C2170 1.434 1_565 S
C2170 C2161 1.429 . S
C2170 N2167 1.350 . S
C2170 C2169 1.434 1_545 S
C2171 C2172 1.369 1_565 S
C2171 C2173 1.419 . S
C2171 H2175 0.930 . S
C2172 C2171 1.369 1_545 S
C2172 C2181 1.429 . S
C2173 C2171 1.419 . S
C2173 C2174 1.363 1_565 S
C2173 H2176 0.929 . S
C2174 C2173 1.363 1_545 S
C2174 C2180 1.428 . S
H2175 C2171 0.930 . S
H2176 C2173 0.929 . S
S2177 N2178 1.613 . S
S2177 N2179 1.610 . S
N2178 S2177 1.613 . S
N2178 C2181 1.350 . S
N2179 S2177 1.610 . S
N2179 C2180 1.351 . S
C2180 C2174 1.428 . S
C2180 N2179 1.351 . S
C2180 C2181 1.434 . S
C2181 C2172 1.429 . S
C2181 N2178 1.350 . S
C2181 C2180 1.434 . S
C2182 C2183 1.369 . S
C2182 C2184 1.419 1_545 S
C2182 H2186 0.930 . S
C2183 C2182 1.369 . S
C2183 C2192 1.429 . S
C2184 C2182 1.419 1_565 S
C2184 C2185 1.363 . S
C2184 H2187 0.929 . S
C2185 C2184 1.363 . S
C2185 C2191 1.428 . S
H2186 C2182 0.930 . S
H2187 C2184 0.929 . S
S2188 N2189 1.613 1_565 S
S2188 N2190 1.610 . S
N2189 S2188 1.613 1_545 S
N2189 C2192 1.350 . S
N2190 S2188 1.610 . S
N2190 C2191 1.351 . S
C2191 C2185 1.428 . S
C2191 N2190 1.351 . S
C2191 C2192 1.434 1_565 S
C2192 C2183 1.429 . S
C2192 N2189 1.350 . S
C2192 C2191 1.434 1_545 S
C2193 C2194 1.380 1_554 S
C2193 C2195 1.419 . S
C2193 H2197 0.930 . S
C2194 C2193 1.380 1_556 S
C2194 C2203 1.419 1_565 S
C2195 C2193 1.419 . S
C2195 C2196 1.374 . S
C2195 H2198 0.929 . S
C2196 C2195 1.374 . S
C2196 C2202 1.419 1_564 S
H2197 C2193 0.930 . S
H2198 C2195 0.929 . S
S2199 N2200 1.613 . S
S2199 N2201 1.610 . S
N2200 S2199 1.613 . S
N2200 C2203 1.350 . S
N2201 S2199 1.610 . S
N2201 C2202 1.351 . S
C2202 C2196 1.419 1_546 S
C2202 N2201 1.351 . S
C2202 C2203 1.434 . S
C2203 C2194 1.419 1_545 S
C2203 N2200 1.350 . S
C2203 C2202 1.434 . S
C2204 C2205 1.369 . S
C2204 C2206 1.419 1_565 S
C2204 H2208 0.930 . S
C2205 C2204 1.369 . S
C2205 C2214 1.429 . S
C2206 C2204 1.419 1_545 S
C2206 C2207 1.363 . S
C2206 H2209 0.929 . S
C2207 C2206 1.363 . S
C2207 C2213 1.428 . S
H2208 C2204 0.930 . S
H2209 C2206 0.929 . S
S2210 N2211 1.613 1_545 S
S2210 N2212 1.610 . S
N2211 S2210 1.613 1_565 S
N2211 C2214 1.350 . S
N2212 S2210 1.610 . S
N2212 C2213 1.351 . S
C2213 C2207 1.428 . S
C2213 N2212 1.351 . S
C2213 C2214 1.434 1_545 S
C2214 C2205 1.429 . S
C2214 N2211 1.350 . S
C2214 C2213 1.434 1_565 S
C2215 C2216 1.361 1_545 S
C2215 C2217 1.419 . S
C2215 H2219 0.930 . S
C2216 C2215 1.361 1_565 S
C2216 C2225 1.437 . S
C2217 C2215 1.419 . S
C2217 C2218 1.354 1_545 S
C2217 H2220 0.929 . S
C2218 C2217 1.354 1_565 S
C2218 C2224 1.437 . S
H2219 C2215 0.930 . S
H2220 C2217 0.929 . S
S2221 N2222 1.613 . S
S2221 N2223 1.610 . S
N2222 S2221 1.613 . S
N2222 C2225 1.350 . S
N2223 S2221 1.610 . S
N2223 C2224 1.351 . S
C2224 C2218 1.437 . S
C2224 N2223 1.351 . S
C2224 C2225 1.434 . S
C2225 C2216 1.437 . S
C2225 N2222 1.350 . S
C2225 C2224 1.434 . S
C2226 C2227 1.369 . S
C2226 C2228 1.419 1_565 S
C2226 H2230 0.930 . S
C2227 C2226 1.369 . S
C2227 C2236 1.429 . S
C2228 C2226 1.419 1_545 S
C2228 C2229 1.363 . S
C2228 H2231 0.929 . S
C2229 C2228 1.363 . S
C2229 C2235 1.428 . S
H2230 C2226 0.930 . S
H2231 C2228 0.929 . S
S2232 N2233 1.613 . S
S2232 N2234 1.610 1_565 S
N2233 S2232 1.613 . S
N2233 C2236 1.350 . S
N2234 S2232 1.610 1_545 S
N2234 C2235 1.351 . S
C2235 C2229 1.428 . S
C2235 N2234 1.351 . S
C2235 C2236 1.434 1_545 S
C2236 C2227 1.429 . S
C2236 N2233 1.350 . S
C2236 C2235 1.434 1_565 S
C2237 C2238 1.377 1_556 S
C2237 C2239 1.419 . S
C2237 H2241 0.930 . S
C2238 C2237 1.377 1_554 S
C2238 C2247 1.420 1_545 S
C2239 C2237 1.419 . S
C2239 C2240 1.374 . S
C2239 H2242 0.929 . S
C2240 C2239 1.374 . S
C2240 C2246 1.417 1_546 S
H2241 C2237 0.930 . S
H2242 C2239 0.929 . S
S2243 N2244 1.613 . S
S2243 N2245 1.610 . S
N2244 S2243 1.613 . S
N2244 C2247 1.350 . S
N2245 S2243 1.610 . S
N2245 C2246 1.351 . S
C2246 C2240 1.417 1_564 S
C2246 N2245 1.351 . S
C2246 C2247 1.434 . S
C2247 C2238 1.420 1_565 S
C2247 N2244 1.350 . S
C2247 C2246 1.434 . S
C2248 C2249 1.369 . S
C2248 C2250 1.419 . S
C2248 H2252 0.930 . S
C2249 C2248 1.369 . S
C2249 C2258 1.429 . S
C2250 C2248 1.419 . S
C2250 C2251 1.363 . S
C2250 H2253 0.929 . S
C2251 C2250 1.363 . S
C2251 C2257 1.428 . S
H2252 C2248 0.930 . S
H2253 C2250 0.929 . S
S2254 N2255 1.613 . S
S2254 N2256 1.610 . S
N2255 S2254 1.613 . S
N2255 C2258 1.350 . S
N2256 S2254 1.610 . S
N2256 C2257 1.351 . S
C2257 C2251 1.428 . S
C2257 N2256 1.351 . S
C2257 C2258 1.434 . S
C2258 C2249 1.429 . S
C2258 N2255 1.350 . S
C2258 C2257 1.434 . S
C2259 C2260 1.369 . S
C2259 C2261 1.419 . S
C2259 H2263 0.930 . S
C2260 C2259 1.369 . S
C2260 C2269 1.429 1_556 S
C2261 C2259 1.419 . S
C2261 C2262 1.363 1_556 S
C2261 H2264 0.929 . S
C2262 C2261 1.363 1_554 S
C2262 C2268 1.428 . S
H2263 C2259 0.930 . S
H2264 C2261 0.929 . S
S2265 N2266 1.613 . S
S2265 N2267 1.610 . S
N2266 S2265 1.613 . S
N2266 C2269 1.350 . S
N2267 S2265 1.610 . S
N2267 C2268 1.351 . S
C2268 C2262 1.428 . S
C2268 N2267 1.351 . S
C2268 C2269 1.434 . S
C2269 C2260 1.429 1_554 S
C2269 N2266 1.350 . S
C2269 C2268 1.434 . S
C2270 C2271 1.369 . S
C2270 C2272 1.419 . S
C2270 H2274 0.930 . S
C2271 C2270 1.369 . S
C2271 C2280 1.429 . S
C2272 C2270 1.419 . S
C2272 C2273 1.363 . S
C2272 H2275 0.929 . S
C2273 C2272 1.363 . S
C2273 C2279 1.428 . S
H2274 C2270 0.930 . S
H2275 C2272 0.929 . S
S2276 N2277 1.613 . S
S2276 N2278 1.610 . S
N2277 S2276 1.613 . S
N2277 C2280 1.350 . S
N2278 S2276 1.610 . S
N2278 C2279 1.351 . S
C2279 C2273 1.428 . S
C2279 N2278 1.351 . S
C2279 C2280 1.434 . S
C2280 C2271 1.429 . S
C2280 N2277 1.350 . S
C2280 C2279 1.434 . S
C2281 C2282 1.369 . S
C2281 C2283 1.419 . S
C2281 H2285 0.930 . S
C2282 C2281 1.369 . S
C2282 C2291 1.429 . S
C2283 C2281 1.419 . S
C2283 C2284 1.363 . S
C2283 H2286 0.929 . S
C2284 C2283 1.363 . S
C2284 C2290 1.428 . S
H2285 C2281 0.930 . S
H2286 C2283 0.929 . S
S2287 N2288 1.613 . S
S2287 N2289 1.610 . S
N2288 S2287 1.613 . S
N2288 C2291 1.350 . S
N2289 S2287 1.610 . S
N2289 C2290 1.351 . S
C2290 C2284 1.428 . S
C2290 N2289 1.351 . S
C2290 C2291 1.434 . S
C2291 C2282 1.429 . S
C2291 N2288 1.350 . S
C2291 C2290 1.434 . S
C2292 C2293 1.369 . S
C2292 C2294 1.419 . S
C2292 H2296 0.930 . S
C2293 C2292 1.369 . S
C2293 C2302 1.429 . S
C2294 C2292 1.419 . S
C2294 C2295 1.363 . S
C2294 H2297 0.929 . S
C2295 C2294 1.363 . S
C2295 C2301 1.428 . S
H2296 C2292 0.930 . S
H2297 C2294 0.929 . S
S2298 N2299 1.613 . S
S2298 N2300 1.610 . S
N2299 S2298 1.613 . S
N2299 C2302 1.350 . S
N2300 S2298 1.610 . S
N2300 C2301 1.351 . S
C2301 C2295 1.428 . S
C2301 N2300 1.351 . S
C2301 C2302 1.434 . S
C2302 C2293 1.429 . S
C2302 N2299 1.350 . S
C2302 C2301 1.434 . S
C2303 C2304 1.369 . S
C2303 C2305 1.419 . S
C2303 H2307 0.930 . S
C2304 C2303 1.369 . S
C2304 C2313 1.429 1_556 S
C2305 C2303 1.419 . S
C2305 C2306 1.363 1_556 S
C2305 H2308 0.929 . S
C2306 C2305 1.363 1_554 S
C2306 C2312 1.428 . S
H2307 C2303 0.930 . S
H2308 C2305 0.929 . S
S2309 N2310 1.613 . S
S2309 N2311 1.610 . S
N2310 S2309 1.613 . S
N2310 C2313 1.350 . S
N2311 S2309 1.610 . S
N2311 C2312 1.351 . S
C2312 C2306 1.428 . S
C2312 N2311 1.351 . S
C2312 C2313 1.434 . S
C2313 C2304 1.429 1_554 S
C2313 N2310 1.350 . S
C2313 C2312 1.434 . S
C2314 C2315 1.369 . S
C2314 C2316 1.419 . S
C2314 H2318 0.930 . S
C2315 C2314 1.369 . S
C2315 C2324 1.429 . S
C2316 C2314 1.419 . S
C2316 C2317 1.363 . S
C2316 H2319 0.929 . S
C2317 C2316 1.363 . S
C2317 C2323 1.428 . S
H2318 C2314 0.930 . S
H2319 C2316 0.929 . S
S2320 N2321 1.613 . S
S2320 N2322 1.610 . S
N2321 S2320 1.613 . S
N2321 C2324 1.350 . S
N2322 S2320 1.610 . S
N2322 C2323 1.351 . S
C2323 C2317 1.428 . S
C2323 N2322 1.351 . S
C2323 C2324 1.434 . S
C2324 C2315 1.429 . S
C2324 N2321 1.350 . S
C2324 C2323 1.434 . S
C2325 C2326 1.369 . S
C2325 C2327 1.419 . S
C2325 H2329 0.930 . S
C2326 C2325 1.369 . S
C2326 C2335 1.429 . S
C2327 C2325 1.419 . S
C2327 C2328 1.363 . S
C2327 H2330 0.929 . S
C2328 C2327 1.363 . S
C2328 C2334 1.428 . S
H2329 C2325 0.930 . S
H2330 C2327 0.929 . S
S2331 N2332 1.613 . S
S2331 N2333 1.610 . S
N2332 S2331 1.613 . S
N2332 C2335 1.350 . S
N2333 S2331 1.610 . S
N2333 C2334 1.351 . S
C2334 C2328 1.428 . S
C2334 N2333 1.351 . S
C2334 C2335 1.434 . S
C2335 C2326 1.429 . S
C2335 N2332 1.350 . S
C2335 C2334 1.434 . S
C1281 C15 0.914 . S
C1283 C1089 0.885 . S
C1292 C55 0.906 . S
C1294 C329 0.887 . S
C1303 C95 0.902 . S
C1305 C1009 0.894 . S
C1314 C409 0.882 . S
C1316 C135 0.916 . S
C1325 C175 0.925 . S
C1327 C1169 0.874 . S
C1336 C569 0.880 . S
C1338 C215 0.917 . S
C1347 C1249 0.894 . S
C1349 C255 0.904 . S
C1358 C295 0.925 . S
C1360 C489 0.872 . S
C1369 C325 0.908 . S
C1371 C779 0.888 . S
C1380 C365 0.906 . S
C1382 C19 0.889 . S
C1391 C699 0.870 . S
C1393 C405 0.922 . S
C1402 C99 0.869 . S
C1404 C445 0.923 . S
C1413 C485 0.925 . S
C1415 C859 0.873 . S
C1424 C525 0.906 . S
C1426 C259 0.889 . S
C1435 C565 0.926 . S
C1437 C939 0.873 . S
C1446 C179 0.873 . S
C1448 C605 0.920 . S
C1457 C449 0.897 . S
C1459 C655 0.903 . S
C1468 C969 0.889 . S
C1470 C695 0.908 . S
C1479 C369 0.869 . S
C1481 C735 0.923 . S
C1490 C775 0.902 . S
C1492 C1049 0.894 . S
C1501 C529 0.869 . S
C1503 C815 0.923 . S
C1512 C1209 0.874 . S
C1514 C855 0.918 . S
C1523 C609 0.870 . S
C1525 C895 0.923 . S
C1534 C935 0.901 . S
C1536 C1129 0.892 . S
C1545 C965 0.905 . S
C1547 C139 0.890 . S
C1556 C1005 0.903 . S
C1558 C659 0.892 . S
C1567 C1045 0.924 . S
C1569 C59 0.874 . S
C1578 C1085 0.920 . S
C1580 C739 0.877 . S
C1589 C219 0.869 . S
C1591 C1125 0.923 . S
C1600 C899 0.888 . S
C1602 C1165 0.910 . S
C1611 C1205 0.904 . S
C1613 C299 0.891 . S
C1622 C1245 0.911 . S
C1624 C819 0.885 . S
C1633 C8 3.082 . S
C1635 C728 3.087 . S
C1644 C768 3.081 1_455 S
C1646 C48 3.085 1_655 S
C1655 C88 3.087 . S
C1657 C648 3.082 . S
C1666 C128 3.085 . S
C1668 C688 3.083 . S
C1677 C888 3.088 . S
C1679 C168 3.082 . S
C1688 C208 3.085 . S
C1690 C928 3.083 . S
C1699 C808 3.081 . S
C1701 C248 3.087 . S
C1710 C288 3.082 1_655 S
C1712 C848 3.085 1_455 S
C1721 C1058 3.082 . S
C1723 C338 3.086 . S
C1732 C378 3.087 1_455 S
C1734 C1098 3.081 1_655 S
C1743 C418 3.081 . S
C1745 C978 3.087 . S
C1754 C458 3.082 . S
C1756 C1018 3.085 . S
C1765 C1218 3.088 . S
C1767 C498 3.082 . S
C1776 C1258 3.081 . S
C1778 C538 3.086 . S
C1787 C578 3.082 . S
C1789 C1138 3.085 . S
C1798 C618 3.086 1_455 S
C1800 C1178 3.082 1_655 S
C1809 C9 3.417 . S
C1811 C979 3.418 . S
C1820 C379 3.418 1_565 S
C1822 C49 3.417 . S
C1831 C89 3.415 . S
C1833 C1059 3.419 . S
C1842 C129 3.418 1_565 S
C1844 C459 3.417 . S
C1853 C1139 3.418 . S
C1855 C169 3.416 . S
C1864 C539 3.417 . S
C1866 C209 3.418 1_545 S
C1875 C249 3.416 . S
C1877 C1219 3.418 . S
C1886 C289 3.418 1_565 S
C1888 C619 3.417 . S
C1897 C649 3.415 . S
C1899 C339 3.419 . S
C1908 C729 3.415 . S
C1910 C419 3.419 . S
C1919 C809 3.419 . S
C1921 C499 3.416 . S
C1930 C579 3.418 . S
C1932 C889 3.417 . S
C1941 C689 3.417 . S
C1943 C1019 3.417 . S
C1952 C769 3.415 . S
C1954 C1099 3.419 . S
C1963 C1179 3.419 . S
C1965 C849 3.416 . S
C1974 C1259 3.415 . S
C1976 C929 3.419 . S
C1985 C18 4.568 . S
C1987 C218 4.571 . S
C1996 C258 4.571 . S
C1998 C58 4.568 . S
C2007 C298 4.568 . S
C2009 C98 4.571 . S
C2018 C178 4.570 . S
C2020 C138 4.569 . S
C2029 C328 4.570 . S
C2031 C528 4.568 . S
C2040 C368 4.569 . S
C2042 C568 4.569 . S
C2051 C608 4.568 . S
C2053 C408 4.571 . S
C2062 C448 4.568 . S
C2064 C488 4.571 . S
C2073 C658 4.571 . S
C2075 C858 4.569 . S
C2084 C698 4.569 . S
C2086 C898 4.569 . S
C2095 C738 4.571 . S
C2097 C938 4.568 . S
C2106 C818 4.568 . S
C2108 C778 4.571 . S
C2117 C968 4.571 . S
C2119 C1168 4.568 . S
C2128 C1008 4.571 . S
C2130 C1208 4.568 . S
C2139 C1248 4.571 . S
C2141 C1048 4.568 . S
C2150 C1088 4.571 . S
C2152 C1128 4.568 . S
C2161 C5 0.584 . S
C2163 C165 0.585 . S
C2172 C45 0.592 1_545 S
C2174 C205 0.577 1_545 S
C2183 C245 0.568 . S
C2185 C85 0.590 . S
C2194 C285 0.560 1_565 S
C2196 C125 0.582 1_565 S
C2205 C335 0.566 . S
C2207 C495 0.589 . S
C2216 C535 0.560 1_565 S
C2218 C375 0.583 1_565 S
C2227 C575 0.594 . S
C2229 C415 0.571 . S
C2238 C615 0.569 1_545 S
C2240 C455 0.576 1_545 S
C2249 C645 0.566 . S
C2251 C805 0.588 . S
C2260 C845 0.593 . S
C2262 C685 0.571 . S
C2271 C725 0.593 . S
C2273 C885 0.571 . S
C2282 C925 0.572 . S
C2284 C765 0.578 . S
C2293 C1135 0.583 . S
C2295 C975 0.572 . S
C2304 C1015 0.585 . S
C2306 C1175 0.571 . S
C2315 C1055 0.591 . S
C2317 C1215 0.569 . S
C2326 C1095 0.566 . S
C2328 C1255 0.589 . S
