# Generated by pormake.
# Topology umz, (4)-cn, num edge types: 1
# Building blocks:
#     Node 0, Type 0, BuildingBlock: KUFVIS_clean_sbu_0, # of connection points: 4
#     Node 1, Type 0, BuildingBlock: KUFVIS_clean_sbu_0, # of connection points: 4
#     Node 2, Type 0, BuildingBlock: KUFVIS_clean_sbu_0, # of connection points: 4
#     Node 3, Type 0, BuildingBlock: KUFVIS_clean_sbu_0, # of connection points: 4
#     Node 4, Type 0, BuildingBlock: KUFVIS_clean_sbu_0, # of connection points: 4
#     Node 5, Type 0, BuildingBlock: KUFVIS_clean_sbu_0, # of connection points: 4
#     Node 6, Type 0, BuildingBlock: KUFVIS_clean_sbu_0, # of connection points: 4
#     Node 7, Type 0, BuildingBlock: KUFVIS_clean_sbu_0, # of connection points: 4
#     Node 8, Type 0, BuildingBlock: KUFVIS_clean_sbu_0, # of connection points: 4
#     Node 9, Type 0, BuildingBlock: KUFVIS_clean_sbu_0, # of connection points: 4
#     Node 10, Type 0, BuildingBlock: KUFVIS_clean_sbu_0, # of connection points: 4
#     Node 11, Type 0, BuildingBlock: KUFVIS_clean_sbu_0, # of connection points: 4
#     Node 12, Type 0, BuildingBlock: KUFVIS_clean_sbu_0, # of connection points: 4
#     Node 13, Type 0, BuildingBlock: KUFVIS_clean_sbu_0, # of connection points: 4
#     Node 14, Type 0, BuildingBlock: KUFVIS_clean_sbu_0, # of connection points: 4
#     Node 15, Type 0, BuildingBlock: KUFVIS_clean_sbu_0, # of connection points: 4
#     Edge 16, Type (0, 0), BuildingBlock: XUDNAN_clean_linker_2, # of connection points: 2
#     Edge 17, Type (0, 0), BuildingBlock: XUDNAN_clean_linker_2, # of connection points: 2
#     Edge 18, Type (0, 0), BuildingBlock: XUDNAN_clean_linker_2, # of connection points: 2
#     Edge 19, Type (0, 0), BuildingBlock: XUDNAN_clean_linker_2, # of connection points: 2
#     Edge 20, Type (0, 0), BuildingBlock: XUDNAN_clean_linker_2, # of connection points: 2
#     Edge 21, Type (0, 0), BuildingBlock: XUDNAN_clean_linker_2, # of connection points: 2
#     Edge 22, Type (0, 0), BuildingBlock: XUDNAN_clean_linker_2, # of connection points: 2
#     Edge 23, Type (0, 0), BuildingBlock: XUDNAN_clean_linker_2, # of connection points: 2
#     Edge 24, Type (0, 0), BuildingBlock: XUDNAN_clean_linker_2, # of connection points: 2
#     Edge 25, Type (0, 0), BuildingBlock: XUDNAN_clean_linker_2, # of connection points: 2
#     Edge 26, Type (0, 0), BuildingBlock: XUDNAN_clean_linker_2, # of connection points: 2
#     Edge 27, Type (0, 0), BuildingBlock: XUDNAN_clean_linker_2, # of connection points: 2
#     Edge 28, Type (0, 0), BuildingBlock: XUDNAN_clean_linker_2, # of connection points: 2
#     Edge 29, Type (0, 0), BuildingBlock: XUDNAN_clean_linker_2, # of connection points: 2
#     Edge 30, Type (0, 0), BuildingBlock: XUDNAN_clean_linker_2, # of connection points: 2
#     Edge 31, Type (0, 0), BuildingBlock: XUDNAN_clean_linker_2, # of connection points: 2
#     Edge 32, Type (0, 0), BuildingBlock: XUDNAN_clean_linker_2, # of connection points: 2
#     Edge 33, Type (0, 0), BuildingBlock: XUDNAN_clean_linker_2, # of connection points: 2
#     Edge 34, Type (0, 0), BuildingBlock: XUDNAN_clean_linker_2, # of connection points: 2
#     Edge 35, Type (0, 0), BuildingBlock: XUDNAN_clean_linker_2, # of connection points: 2
#     Edge 36, Type (0, 0), BuildingBlock: XUDNAN_clean_linker_2, # of connection points: 2
#     Edge 37, Type (0, 0), BuildingBlock: XUDNAN_clean_linker_2, # of connection points: 2
#     Edge 38, Type (0, 0), BuildingBlock: XUDNAN_clean_linker_2, # of connection points: 2
#     Edge 39, Type (0, 0), BuildingBlock: XUDNAN_clean_linker_2, # of connection points: 2
#     Edge 40, Type (0, 0), BuildingBlock: XUDNAN_clean_linker_2, # of connection points: 2
#     Edge 41, Type (0, 0), BuildingBlock: XUDNAN_clean_linker_2, # of connection points: 2
#     Edge 42, Type (0, 0), BuildingBlock: XUDNAN_clean_linker_2, # of connection points: 2
#     Edge 43, Type (0, 0), BuildingBlock: XUDNAN_clean_linker_2, # of connection points: 2
#     Edge 44, Type (0, 0), BuildingBlock: XUDNAN_clean_linker_2, # of connection points: 2
#     Edge 45, Type (0, 0), BuildingBlock: XUDNAN_clean_linker_2, # of connection points: 2
#     Edge 46, Type (0, 0), BuildingBlock: XUDNAN_clean_linker_2, # of connection points: 2
#     Edge 47, Type (0, 0), BuildingBlock: XUDNAN_clean_linker_2, # of connection points: 2
# Relax obj value: 0.250
# Max RMSD: 0.162
# Mean RMSD: 0.162
data_MOF--net-umz--node1-KUFVIS_clean_sbu_0--edge1-XUDNAN_clean_linker_2
_symmetry_space_group_name_H-M    P1
_symmetry_Int_Tables_number       1
_symmetry_cell_setting            triclinic
loop_
_symmetry_equiv_pos_as_xyz
'x, y, z'
_cell_length_a     58.047037
_cell_length_b     58.050909
_cell_length_c     22.721735
_cell_angle_alpha  89.986114
_cell_angle_beta   90.025207
_cell_angle_gamma 90.053039
loop_
_atom_site_label
_atom_site_type_symbol
_atom_site_fract_x
_atom_site_fract_y
_atom_site_fract_z
_atom_type_partial_charge
Mn0 Mn 0.02442 0.63707 0.13489 0.0
Mn1 Mn 0.98466 0.63258 0.02821 0.0
C2 C 0.9866 0.62652 0.15798 0.0
C3 C 0.05296 0.62185 0.19543 0.0
C4 C 0.004 0.67816 0.0705 0.0
O5 O 0.044 0.63366 0.06079 0.0
O6 O 0.01574 0.62754 0.99422 0.0
C7 C 0.98987 0.58303 1.00032 0.0
N8 N 0.97642 0.60095 0.018 0.0
C9 C 0.94304 0.57649 0.02407 0.0
C10 C 0.95649 0.55779 0.00562 0.0
C11 C 0.98004 0.56106 0.99399 0.0
C12 C 0.95386 0.59791 0.03041 0.0
H13 H 0.00795 0.58548 0.99113 0.0
C14 C 0.03707 0.62881 0.00878 0.0
O15 O 0.05181 0.64375 0.18463 0.0
O16 O 0.03806 0.6087 0.16922 0.0
N17 N 0.95391 0.63667 0.05647 0.0
C18 C 0.94352 0.65634 0.07548 0.0
C19 C 0.9199 0.65606 0.08873 0.0
C20 C 0.90719 0.63564 0.0817 0.0
C21 C 0.91829 0.61559 0.06223 0.0
C22 C 0.94188 0.61689 0.04998 0.0
H23 H 0.95313 0.67218 0.07999 0.0
O24 O -0.00024 0.63648 0.19661 0.0
O25 O 0.99589 0.6244 0.10642 0.0
O26 O 0.01601 0.66952 0.11159 0.0
O27 O 0.99169 0.66604 0.03564 0.0
C28 C 0.90688 0.59437 0.05444 0.0
C29 C 0.91929 0.57477 0.03611 0.0
H30 H 0.94893 0.54085 1.00027 0.0
H31 H 0.99056 0.5467 0.9799 0.0
H32 H 0.91147 0.67158 0.10385 0.0
H33 H 0.88894 0.63553 0.09165 0.0
H34 H 0.88859 0.59286 0.0632 0.0
H35 H 0.91039 0.55847 0.03119 0.0
Mn36 Mn 0.86287 0.01302 0.61276 0.0
Mn37 Mn 0.88157 0.97554 0.51063 0.0
C38 C 0.87472 0.97646 0.64046 0.0
C39 C 0.87243 0.0426 0.67781 0.0
C40 C 0.83097 0.98719 0.52922 0.0
O41 O 0.86877 0.03352 0.54123 0.0
O42 O 0.88477 0.00749 0.4802 0.0
C43 C 0.93106 0.98792 0.51078 0.0
N44 N 0.91416 0.9719 0.5183 0.0
C45 C 0.94198 0.94244 0.54046 0.0
C46 C 0.9597 0.95858 0.53251 0.0
C47 C 0.9542 0.98144 0.51788 0.0
C48 C 0.91924 0.94993 0.53314 0.0
H49 H 0.9269 0.0055 0.49948 0.0
C50 C 0.87873 0.02813 0.49303 0.0
O51 O 0.85124 0.03976 0.66055 0.0
O52 O 0.88766 0.02872 0.65634 0.0
N53 N 0.8796 0.94402 0.53489 0.0
C54 C 0.8605 0.93053 0.54056 0.0
C55 C 0.86301 0.90716 0.55528 0.0
C56 C 0.88512 0.89788 0.56353 0.0
C57 C 0.90453 0.91201 0.5565 0.0
C58 C 0.90096 0.93512 0.54141 0.0
H59 H 0.84347 0.93753 0.53396 0.0
O60 O 0.86174 0.98854 0.67508 0.0
O61 O 0.88042 0.98635 0.59145 0.0
O62 O 0.83352 0.00026 0.57408 0.0
O63 O 0.8478 0.97797 0.50154 0.0
C64 C 0.92727 0.90406 0.56388 0.0
C65 C 0.94598 0.91925 0.55572 0.0
H66 H 0.97757 0.95365 0.53795 0.0
H67 H 0.96777 0.99403 0.51201 0.0
H68 H 0.84795 0.89635 0.56035 0.0
H69 H 0.88699 0.87988 0.57522 0.0
H70 H 0.93057 0.88631 0.57585 0.0
H71 H 0.96338 0.91294 0.5616 0.0
Mn72 Mn 0.46139 0.86353 0.12663 0.0
Mn73 Mn 0.50181 0.86496 0.02114 0.0
C74 C 0.50025 0.86964 0.15115 0.0
C75 C 0.43515 0.88197 0.18831 0.0
C76 C 0.47834 0.82098 0.06138 0.0
O77 O 0.44232 0.86997 0.05302 0.0
O78 O 0.4712 0.87263 0.98697 0.0
C79 C 0.50043 0.9149 0.99442 0.0
N80 N 0.51248 0.89589 0.01131 0.0
C81 C 0.54787 0.91743 0.01516 0.0
C82 C 0.53588 0.93721 0.99743 0.0
C83 C 0.51202 0.93597 0.98738 0.0
C84 C 0.53531 0.89703 0.02243 0.0
H85 H 0.48213 0.91401 0.98636 0.0
C86 C 0.44985 0.87397 0.00114 0.0
O87 O 0.43335 0.86013 0.17693 0.0
O88 O 0.45149 0.89311 0.1619 0.0
N89 N 0.53222 0.85842 0.04886 0.0
C90 C 0.54108 0.83798 0.06764 0.0
C91 C 0.56479 0.83619 0.07893 0.0
C92 C 0.57914 0.85538 0.07039 0.0
C93 C 0.56958 0.87634 0.0518 0.0
C94 C 0.54583 0.87709 0.04141 0.0
H95 H 0.53018 0.82311 0.07355 0.0
O96 O 0.48593 0.86063 0.1885 0.0
O97 O 0.49138 0.8734 0.09968 0.0
O98 O 0.46596 0.83034 0.10078 0.0
O99 O 0.49236 0.8322 0.02882 0.0
C100 C 0.58269 0.8965 0.04301 0.0
C101 C 0.5718 0.9171 0.02548 0.0
H102 H 0.5448 0.95344 0.99143 0.0
H103 H 0.50263 0.95117 0.97384 0.0
H104 H 0.57201 0.82001 0.0937 0.0
H105 H 0.59746 0.85389 0.07874 0.0
H106 H 0.60112 0.89642 0.05047 0.0
H107 H 0.58201 0.93257 0.01978 0.0
Mn108 Mn 0.63243 0.503 0.60137 0.0
Mn109 Mn 0.61872 0.54499 0.50525 0.0
C110 C 0.62356 0.53966 0.63459 0.0
C111 C 0.62016 0.47265 0.66103 0.0
C112 C 0.6678 0.52892 0.52665 0.0
O113 O 0.62572 0.48515 0.52648 0.0
O114 O 0.61505 0.51437 0.4671 0.0
C115 C 0.56898 0.53388 0.49863 0.0
N116 N 0.5861 0.54933 0.50994 0.0
C117 C 0.55862 0.57816 0.53914 0.0
C118 C 0.5407 0.56264 0.52717 0.0
C119 C 0.54592 0.54039 0.50698 0.0
C120 C 0.58128 0.57069 0.53011 0.0
H121 H 0.57289 0.51666 0.48381 0.0
C122 C 0.61841 0.49293 0.47739 0.0
O123 O 0.64153 0.47428 0.64434 0.0
O124 O 0.60607 0.48819 0.64179 0.0
N125 N 0.621 0.57559 0.53621 0.0
C126 C 0.64027 0.58849 0.54573 0.0
C127 C 0.63803 0.61143 0.56454 0.0
C128 C 0.61603 0.62087 0.57338 0.0
C129 C 0.59644 0.60735 0.5627 0.0
C130 C 0.59974 0.58475 0.54286 0.0
H131 H 0.65719 0.58131 0.53928 0.0
O132 O 0.63513 0.52561 0.66766 0.0
O133 O 0.61766 0.5316 0.5836 0.0
O134 O 0.66288 0.51391 0.56589 0.0
O135 O 0.65276 0.54156 0.50083 0.0
C136 C 0.57379 0.61531 0.57162 0.0
C137 C 0.5549 0.60067 0.56027 0.0
H138 H 0.52289 0.56757 0.53376 0.0
H139 H 0.53219 0.52824 0.49812 0.0
H140 H 0.65324 0.62175 0.57263 0.0
H141 H 0.61438 0.63846 0.58867 0.0
H142 H 0.57072 0.63261 0.58768 0.0
H143 H 0.53757 0.6069 0.56791 0.0
Mn144 Mn 0.02761 0.87605 0.86733 0.0
Mn145 Mn 0.98566 0.88769 0.96548 0.0
C146 C 0.99015 0.88136 0.83562 0.0
C147 C 0.05708 0.88899 0.80705 0.0
C148 C 0.00609 0.84019 0.9483 0.0
O149 O 0.0454 0.88534 0.94068 0.0
O150 O 0.01619 0.89563 1.00042 0.0
C151 C 0.99018 0.93848 0.96794 0.0
N152 N 0.97714 0.91935 0.95804 0.0
C153 C 0.94399 0.94238 0.93412 0.0
C154 C 0.95702 0.96234 0.94434 0.0
C155 C 0.98025 0.96037 0.96106 0.0
C156 C 0.95489 0.92105 0.94107 0.0
H157 H 0.00801 0.93703 0.98102 0.0
C158 C 0.03774 0.89339 0.98911 0.0
O159 O 0.05675 0.86788 0.82587 0.0
O160 O 0.04051 0.90252 0.82322 0.0
N161 N 0.95528 0.881 0.93747 0.0
C162 C 0.94498 0.86008 0.93036 0.0
C163 C 0.92171 0.85901 0.91359 0.0
C164 C 0.90921 0.87945 0.905 0.0
C165 C 0.92006 0.90077 0.91375 0.0
C166 C 0.94326 0.90075 0.93066 0.0
H167 H 0.95444 0.84431 0.93734 0.0
O168 O 0.00484 0.87057 0.80263 0.0
O169 O 0.99801 0.88888 0.88553 0.0
O170 O 0.01956 0.84543 0.90613 0.0
O171 O 0.99308 0.85458 0.97481 0.0
C172 C 0.90871 0.92203 0.90675 0.0
C173 C 0.92064 0.94281 0.91717 0.0
H174 H 0.94941 0.97925 0.93922 0.0
H175 H 0.99044 0.9757 0.96883 0.0
H176 H 0.91343 0.84249 0.90731 0.0
H177 H 0.89129 0.87857 0.89187 0.0
H178 H 0.89079 0.9226 0.89349 0.0
H179 H 0.91171 0.95905 0.91169 0.0
Mn180 Mn 0.63047 0.00385 0.36757 0.0
Mn181 Mn 0.61838 0.96667 0.47666 0.0
C182 C 0.61427 0.96806 0.34676 0.0
C183 C 0.61972 0.03397 0.3057 0.0
C184 C 0.66686 0.97691 0.43467 0.0
O185 O 0.63033 0.02441 0.44089 0.0
O186 O 0.61841 0.99843 0.5083 0.0
C187 C 0.57018 0.9806 0.49996 0.0
N188 N 0.58568 0.96409 0.48431 0.0
C189 C 0.55556 0.936 0.47204 0.0
C190 C 0.5393 0.95266 0.48839 0.0
C191 C 0.54665 0.97507 0.50229 0.0
C192 C 0.57878 0.94254 0.47039 0.0
H193 H 0.57572 0.99789 0.5103 0.0
C194 C 0.62368 0.01901 0.49284 0.0
O195 O 0.64124 0.02948 0.3162 0.0
O196 O 0.60451 0.02151 0.33287 0.0
N197 N 0.61741 0.93542 0.44994 0.0
C198 C 0.63516 0.92165 0.43273 0.0
C199 C 0.63073 0.89861 0.41765 0.0
C200 C 0.60815 0.88999 0.42051 0.0
C201 C 0.59012 0.90456 0.43774 0.0
C202 C 0.59561 0.92728 0.45285 0.0
H203 H 0.65257 0.92816 0.43081 0.0
O204 O 0.6257 0.97915 0.30664 0.0
O205 O 0.61341 0.97821 0.39738 0.0
O206 O 0.66103 0.98975 0.39184 0.0
O207 O 0.65256 0.96801 0.47093 0.0
C208 C 0.56692 0.89746 0.44025 0.0
C209 C 0.54963 0.91322 0.4569 0.0
H210 H 0.52112 0.94846 0.49015 0.0
H211 H 0.53419 0.98805 0.51467 0.0
H212 H 0.64471 0.8875 0.40402 0.0
H213 H 0.60482 0.87219 0.40903 0.0
H214 H 0.56216 0.87996 0.42906 0.0
H215 H 0.53183 0.90764 0.45793 0.0
Mn216 Mn 0.47642 0.61049 0.92017 0.0
Mn217 Mn 0.5277 0.61872 0.98602 0.0
C218 C 0.50866 0.62 0.86463 0.0
C219 C 0.45126 0.58513 0.87282 0.0
C220 C 0.49 0.65487 0.98494 0.0
O221 O 0.47107 0.59618 0.00087 0.0
O222 O 0.50608 0.60264 0.04008 0.0
C223 C 0.53982 0.56917 0.98929 0.0
N224 N 0.54505 0.59116 0.97307 0.0
C225 C 0.57961 0.57859 0.92424 0.0
C226 C 0.57473 0.55587 0.94107 0.0
C227 C 0.55469 0.55114 0.97353 0.0
C228 C 0.56407 0.59583 0.9409 0.0
H229 H 0.52433 0.56538 0.01369 0.0
C230 C 0.48547 0.59485 0.04316 0.0
O231 O 0.44367 0.60426 0.89552 0.0
O232 O 0.47277 0.58039 0.88071 0.0
N233 N 0.55086 0.63366 0.93961 0.0
C234 C 0.55349 0.65658 0.92847 0.0
C235 C 0.5732 0.66437 0.89862 0.0
C236 C 0.59007 0.64854 0.88069 0.0
C237 C 0.58722 0.62508 0.89353 0.0
C238 C 0.56743 0.61841 0.92445 0.0
H239 H 0.5406 0.66879 0.94193 0.0
O240 O 0.48813 0.6236 0.84429 0.0
O241 O 0.50943 0.61112 0.91698 0.0
O242 O 0.47509 0.64272 0.95719 0.0
O243 O 0.51035 0.64782 0.99769 0.0
C244 C 0.60316 0.60805 0.8765 0.0
C245 C 0.59924 0.58478 0.89133 0.0
H246 H 0.58615 0.54191 0.92898 0.0
H247 H 0.55069 0.53362 0.98623 0.0
H248 H 0.5753 0.68252 0.88912 0.0
H249 H 0.60511 0.65456 0.85701 0.0
H250 H 0.61842 0.61264 0.85168 0.0
H251 H 0.6115 0.5718 0.87754 0.0
Mn252 Mn 0.86898 0.48491 0.39642 0.0
Mn253 Mn 0.88283 0.52558 0.4958 0.0
C254 C 0.88433 0.52018 0.36712 0.0
C255 C 0.87887 0.45359 0.33706 0.0
C256 C 0.83403 0.51688 0.45657 0.0
O257 O 0.8706 0.46606 0.47218 0.0
O258 O 0.87764 0.4954 0.53469 0.0
C259 C 0.92818 0.50554 0.52691 0.0
N260 N 0.91546 0.52362 0.50675 0.0
C261 C 0.94953 0.54664 0.4928 0.0
C262 C 0.96297 0.52831 0.51363 0.0
C263 C 0.95224 0.50765 0.53061 0.0
C264 C 0.92565 0.54344 0.48947 0.0
H265 H 0.92006 0.4896 0.53989 0.0
C266 C 0.87365 0.47411 0.5239 0.0
O267 O 0.85749 0.45803 0.34954 0.0
O268 O 0.89433 0.4667 0.36104 0.0
N269 N 0.88873 0.55562 0.46465 0.0
C270 C 0.87322 0.57193 0.44778 0.0
C271 C 0.88098 0.5941 0.43309 0.0
C272 C 0.90459 0.59925 0.43591 0.0
C273 C 0.92026 0.58214 0.45273 0.0
C274 C 0.91145 0.56053 0.46829 0.0
H275 H 0.85505 0.56817 0.44648 0.0
O276 O 0.872 0.50802 0.33107 0.0
O277 O 0.88691 0.51139 0.4191 0.0
O278 O 0.83873 0.49958 0.42406 0.0
O279 O 0.84917 0.52873 0.48412 0.0
C280 C 0.94423 0.58581 0.45589 0.0
C281 C 0.95888 0.56799 0.47536 0.0
H282 H 0.98152 0.5299 0.51678 0.0
H283 H 0.96249 0.49339 0.54657 0.0
H284 H 0.86878 0.60723 0.42008 0.0
H285 H 0.91046 0.61649 0.42548 0.0
H286 H 0.95155 0.60228 0.44357 0.0
H287 H 0.97728 0.57098 0.47744 0.0
Mn288 Mn 0.97426 0.3741 0.89056 0.0
Mn289 Mn 0.01395 0.38052 0.99711 0.0
C290 C 0.01109 0.38724 0.86771 0.0
C291 C 0.9439 0.38901 0.83578 0.0
C292 C 0.99903 0.33408 0.94912 0.0
O293 O 0.95498 0.37411 0.96625 0.0
O294 O 0.98278 0.38278 0.03201 0.0
C295 C 0.00493 0.42924 0.0279 0.0
N296 N 0.01969 0.41264 0.00868 0.0
C297 C 0.05031 0.44025 0.9974 0.0
C298 C 0.03547 0.45763 0.01732 0.0
C299 C 0.01267 0.45209 0.03255 0.0
C300 C 0.04161 0.4178 0.99356 0.0
H301 H 0.98736 0.4251 0.03936 0.0
C302 C 0.96161 0.37946 0.01825 0.0
O303 O 0.94691 0.36693 0.84045 0.0
O304 O 0.95819 0.40234 0.86345 0.0
N305 N 0.04482 0.37913 0.96784 0.0
C306 C 0.05677 0.36047 0.94812 0.0
C307 C 0.08001 0.36298 0.93232 0.0
C308 C 0.09072 0.38461 0.93698 0.0
C309 C 0.078 0.40362 0.95665 0.0
C310 C 0.05501 0.4 0.97272 0.0
H311 H 0.04869 0.34376 0.94491 0.0
O312 O 0.99812 0.3782 0.8273 0.0
O313 O 0.0019 0.38814 0.91959 0.0
O314 O 0.98623 0.3419 0.90821 0.0
O315 O 0.00935 0.34679 0.98681 0.0
C316 C 0.08722 0.42602 0.96086 0.0
C317 C 0.07334 0.44436 0.9808 0.0
H318 H 0.04137 0.47528 0.02088 0.0
H319 H 0.00109 0.46542 0.04775 0.0
H320 H 0.08969 0.34826 0.9168 0.0
H321 H 0.10869 0.38644 0.92508 0.0
H322 H 0.10493 0.42937 0.94852 0.0
H323 H 0.08055 0.46155 0.9833 0.0
Mn324 Mn 0.13404 0.99249 0.38124 0.0
Mn325 Mn 0.12189 0.03083 0.48726 0.0
C326 C 0.11967 0.02874 0.35811 0.0
C327 C 0.12222 0.96354 0.31658 0.0
C328 C 0.1703 0.02109 0.44705 0.0
O329 O 0.13153 0.97185 0.45316 0.0
O330 O 0.12586 0.99951 0.52153 0.0
C331 C 0.0758 0.01203 0.5163 0.0
N332 N 0.08921 0.02993 0.498 0.0
C333 C 0.05603 0.05428 0.48562 0.0
C334 C 0.04189 0.03615 0.50458 0.0
C335 C 0.05182 0.01492 0.51988 0.0
C336 C 0.07979 0.05034 0.48258 0.0
H337 H 0.08329 0.99564 0.52789 0.0
C338 C 0.1289 0.97847 0.50628 0.0
O339 O 0.14389 0.96639 0.32921 0.0
O340 O 0.10768 0.97671 0.3435 0.0
N341 N 0.11722 0.06164 0.4598 0.0
C342 C 0.13328 0.07745 0.44304 0.0
C343 C 0.12627 0.09989 0.42859 0.0
C344 C 0.10285 0.10582 0.43159 0.0
C345 C 0.08661 0.08919 0.44835 0.0
C346 C 0.09466 0.06723 0.46324 0.0
H347 H 0.1513 0.07303 0.44122 0.0
O348 O 0.13201 0.0174 0.32041 0.0
O349 O 0.1172 0.01874 0.40868 0.0
O350 O 0.16495 0.00494 0.4114 0.0
O351 O 0.15562 0.03287 0.47624 0.0
C352 C 0.06278 0.09361 0.45138 0.0
C353 C 0.04748 0.07611 0.46958 0.0
H354 H 0.02339 0.03832 0.50749 0.0
H355 H 0.04102 0.00081 0.53438 0.0
H356 H 0.13889 0.11261 0.41541 0.0
H357 H 0.09753 0.1232 0.42089 0.0
H358 H 0.05603 0.1104 0.43975 0.0
H359 H 0.02918 0.07967 0.47147 0.0
Mn360 Mn 0.53329 0.13315 0.86466 0.0
Mn361 Mn 0.49094 0.12761 0.96527 0.0
C362 C 0.49513 0.13058 0.8353 0.0
C363 C 0.56027 0.11643 0.80212 0.0
C364 C 0.51575 0.17259 0.94136 0.0
O365 O 0.55074 0.12318 0.93798 0.0
O366 O 0.52094 0.11823 1.00042 0.0
C367 C 0.49176 0.07677 0.97576 0.0
N368 N 0.48008 0.09651 0.9632 0.0
C369 C 0.44544 0.07528 0.942 0.0
C370 C 0.45704 0.05474 0.95522 0.0
C371 C 0.48033 0.05549 0.97191 0.0
C372 C 0.45775 0.09595 0.94633 0.0
H373 H 0.50967 0.07724 0.98855 0.0
C374 C 0.54248 0.11744 0.98798 0.0
O375 O 0.56243 0.13767 0.8193 0.0
O376 O 0.54287 0.10491 0.82251 0.0
N377 N 0.46098 0.13573 0.93672 0.0
C378 C 0.45219 0.15708 0.9261 0.0
C379 C 0.42903 0.15936 0.90922 0.0
C380 C 0.4151 0.13968 0.90376 0.0
C381 C 0.42443 0.1179 0.91573 0.0
C382 C 0.44757 0.11673 0.93293 0.0
H383 H 0.46279 0.17224 0.9303 0.0
O384 O 0.51038 0.13972 0.80072 0.0
O385 O 0.50277 0.12347 0.88572 0.0
O386 O 0.52883 0.16498 0.90073 0.0
O387 O 0.50087 0.16031 0.96861 0.0
C388 C 0.41168 0.09732 0.91118 0.0
C389 C 0.42217 0.07603 0.92433 0.0
H390 H 0.44828 0.0383 0.95229 0.0
H391 H 0.48945 0.0397 0.98182 0.0
H392 H 0.42195 0.17624 0.90025 0.0
H393 H 0.39729 0.14148 0.8903 0.0
H394 H 0.3938 0.09767 0.89753 0.0
H395 H 0.41221 0.06031 0.92051 0.0
Mn396 Mn 0.38589 0.4926 0.42209 0.0
Mn397 Mn 0.37176 0.44506 0.49732 0.0
C398 C 0.38037 0.4584 0.37235 0.0
C399 C 0.41189 0.51749 0.37675 0.0
C400 C 0.33712 0.48099 0.46592 0.0
O401 O 0.3959 0.50135 0.50404 0.0
O402 O 0.38088 0.47083 0.55191 0.0
C403 C 0.41817 0.43486 0.54511 0.0
N404 N 0.39919 0.42812 0.51433 0.0
C405 C 0.41368 0.38945 0.50545 0.0
C406 C 0.43336 0.39596 0.53721 0.0
C407 C 0.43568 0.41881 0.55675 0.0
C408 C 0.39696 0.40628 0.49451 0.0
H409 H 0.41989 0.4523 0.56095 0.0
C410 C 0.39065 0.49069 0.55109 0.0
O411 O 0.39134 0.52431 0.39109 0.0
O412 O 0.41769 0.49672 0.39152 0.0
N413 N 0.36279 0.41885 0.45183 0.0
C414 C 0.34363 0.41588 0.41802 0.0
C415 C 0.33935 0.39431 0.39229 0.0
C416 C 0.35459 0.37593 0.40248 0.0
C417 C 0.37412 0.37939 0.43774 0.0
C418 C 0.37767 0.40137 0.46139 0.0
H419 H 0.33172 0.42989 0.41077 0.0
O420 O 0.37674 0.47822 0.34772 0.0
O421 O 0.38656 0.45899 0.42777 0.0
O422 O 0.3519 0.49537 0.44651 0.0
O423 O 0.34233 0.46064 0.48196 0.0
C424 C 0.39024 0.36193 0.45022 0.0
C425 C 0.41003 0.36696 0.48403 0.0
H426 H 0.44683 0.38359 0.54659 0.0
H427 H 0.45083 0.42398 0.58118 0.0
H428 H 0.32424 0.39178 0.36512 0.0
H429 H 0.35115 0.35927 0.3829 0.0
H430 H 0.38785 0.34469 0.43302 0.0
H431 H 0.42255 0.35352 0.49231 0.0
Mn432 Mn 0.97306 0.1337 0.1107 0.0
Mn433 Mn 0.01097 0.11836 0.00648 0.0
C434 C 0.01039 0.12263 0.13602 0.0
C435 C 0.94487 0.12133 0.17716 0.0
C436 C 0.99696 0.16804 0.02967 0.0
O437 O 0.95228 0.12755 0.0396 0.0
O438 O 0.97919 0.11468 0.97619 0.0
C439 C -0.0001 0.0686 0.00195 0.0
N440 N 0.0155 0.08579 0.01087 0.0
C441 C 0.04557 0.05846 0.03139 0.0
C442 C 0.02985 0.04045 0.0222 0.0
C443 C 0.0069 0.04555 0.00757 0.0
C444 C 0.03754 0.08108 0.02566 0.0
H445 H 0.98223 0.07244 0.99078 0.0
C446 C 0.95823 0.119 0.99001 0.0
O447 O 0.94619 0.1429 0.16182 0.0
O448 O 0.95927 0.10738 0.15266 0.0
N449 N 0.04237 0.12083 0.03131 0.0
C450 C 0.05524 0.14019 0.03966 0.0
C451 C 0.07875 0.13809 0.0532 0.0
C452 C 0.08876 0.11614 0.0577 0.0
C453 C 0.07511 0.09646 0.04955 0.0
C454 C 0.05185 0.09963 0.03562 0.0
H455 H 0.04768 0.15709 0.03544 0.0
O456 O 0.9982 0.13511 0.17158 0.0
O457 O 0.00029 0.11777 0.08686 0.0
O458 O 0.98391 0.16418 0.07396 0.0
O459 O 0.00737 0.15216 0.00099 0.0
C460 C 0.08369 0.07384 0.05444 0.0
C461 C 0.06888 0.05485 0.04599 0.0
H462 H 0.03521 0.02265 0.02633 0.0
H463 H 0.99465 0.03175 0.00056 0.0
H464 H 0.08916 0.15335 0.05974 0.0
H465 H 0.10694 0.1146 0.06772 0.0
H466 H 0.10164 0.07084 0.06497 0.0
H467 H 0.07562 0.03755 0.0505 0.0
Mn468 Mn 0.36668 0.99477 0.62938 0.0
Mn469 Mn 0.38473 0.03288 0.52711 0.0
C470 C 0.37896 0.03115 0.65717 0.0
C471 C 0.37512 0.9646 0.69374 0.0
C472 C 0.33432 0.02217 0.54921 0.0
O473 O 0.37191 0.97448 0.55776 0.0
O474 O 0.38528 0.00111 0.49423 0.0
C475 C 0.43321 0.01724 0.52046 0.0
N476 N 0.41762 0.03431 0.53055 0.0
C477 C 0.44783 0.06184 0.54849 0.0
C478 C 0.46421 0.04458 0.53802 0.0
C479 C 0.45686 0.02216 0.52423 0.0
C480 C 0.42451 0.05583 0.54492 0.0
H481 H 0.42765 -0.0 0.50965 0.0
C482 C 0.37991 0.98034 0.50765 0.0
O483 O 0.35417 0.96821 0.67569 0.0
O484 O 0.39097 0.9782 0.67361 0.0
N485 N 0.38546 0.06432 0.55261 0.0
C486 C 0.36751 0.07913 0.56026 0.0
C487 C 0.37193 0.10231 0.57388 0.0
C488 C 0.39476 0.1101 0.57893 0.0
C489 C 0.41296 0.09466 0.56979 0.0
C490 C 0.40749 0.07178 0.55598 0.0
H491 H 0.34997 0.07326 0.55657 0.0
O492 O 0.36596 0.01909 0.69189 0.0
O493 O 0.38453 0.02141 0.60782 0.0
O494 O 0.33754 0.00766 0.59069 0.0
O495 O 0.35062 0.03273 0.52252 0.0
C496 C 0.43632 0.10113 0.57326 0.0
C497 C 0.45373 0.08475 0.56239 0.0
H498 H 0.48247 0.04834 0.54065 0.0
H499 H 0.46939 0.00873 0.51629 0.0
H500 H 0.35778 0.11414 0.58065 0.0
H501 H 0.39811 0.12797 0.5897 0.0
H502 H 0.44107 0.11867 0.58409 0.0
H503 H 0.47163 0.08994 0.56518 0.0
Mn504 Mn 0.52726 0.38194 0.0972 0.0
Mn505 Mn 0.48577 0.37804 0.99299 0.0
C506 C 0.48904 0.38422 0.12566 0.0
C507 C 0.55365 0.40187 0.15509 0.0
C508 C 0.51254 0.33703 0.03813 0.0
O509 O 0.54478 0.38861 0.0221 0.0
O510 O 0.5158 0.38703 0.95616 0.0
C511 C 0.48302 0.4268 0.9553 0.0
N512 N 0.4725 0.40727 0.97484 0.0
C513 C 0.43507 0.42478 0.96705 0.0
C514 C 0.44547 0.445 0.94609 0.0
C515 C 0.46956 0.44603 0.94039 0.0
C516 C 0.44932 0.40602 0.98011 0.0
H517 H 0.50153 0.42769 0.9512 0.0
C518 C 0.53701 0.39031 0.96982 0.0
O519 O 0.55623 0.38022 0.14285 0.0
O520 O 0.53611 0.41233 0.1316 0.0
N521 N 0.45586 0.36991 0.0213 0.0
C522 C 0.44905 0.3505 0.05018 0.0
C523 C 0.42566 0.34746 0.06389 0.0
C524 C 0.40955 0.36435 0.0476 0.0
C525 C 0.417 0.38423 0.01808 0.0
C526 C 0.44049 0.38621 0.00509 0.0
H527 H 0.46141 0.33753 0.06291 0.0
O528 O 0.50499 0.37752 0.16186 0.0
O529 O 0.49581 0.38908 0.07199 0.0
O530 O 0.52492 0.34813 0.07441 0.0
O531 O 0.49728 0.34646 0.00597 0.0
C532 C 0.4022 0.40255 0.00314 0.0
C533 C 0.41122 0.42281 0.97761 0.0
H534 H 0.43518 0.45997 0.9353 0.0
H535 H 0.47773 0.46164 0.92477 0.0
H536 H 0.42007 0.33217 0.08708 0.0
H537 H 0.39156 0.36206 0.05886 0.0
H538 H 0.38394 0.4015 0.01253 0.0
H539 H 0.39975 0.437 0.96776 0.0
Mn540 Mn 0.13576 0.52184 0.63752 0.0
Mn541 Mn 0.1264 0.48138 0.53479 0.0
C542 C 0.12424 0.48461 0.66559 0.0
C543 C 0.12289 0.55155 0.69804 0.0
C544 C 0.17392 0.49916 0.56685 0.0
O545 O 0.13117 0.54088 0.56303 0.0
O546 O 0.12186 0.51238 0.49981 0.0
C547 C 0.0765 0.48869 0.51515 0.0
N548 N 0.09426 0.47452 0.53015 0.0
C549 C 0.06886 0.44191 0.53731 0.0
C550 C 0.05029 0.45611 0.52175 0.0
C551 C 0.05412 0.47964 0.51104 0.0
C552 C 0.09068 0.45201 0.54199 0.0
H553 H 0.07943 0.50673 0.50623 0.0
C554 C 0.1246 0.53373 0.51252 0.0
O555 O 0.14452 0.54952 0.68456 0.0
O556 O 0.10879 0.53679 0.67489 0.0
N557 N 0.12986 0.45063 0.56346 0.0
C558 C 0.14949 0.43949 0.57982 0.0
C559 C 0.14867 0.41579 0.59201 0.0
C560 C 0.12779 0.40376 0.58634 0.0
C561 C 0.10779 0.41562 0.56957 0.0
C562 C 0.1096 0.43928 0.55877 0.0
H563 H 0.16568 0.44857 0.58291 0.0
O564 O 0.13591 0.49777 0.70094 0.0
O565 O 0.12105 0.49347 0.6138 0.0
O566 O 0.16729 0.51208 0.6086 0.0
O567 O 0.1602 0.48689 0.53603 0.0
C568 C 0.08614 0.4049 0.563 0.0
C569 C 0.06663 0.41809 0.54774 0.0
H570 H 0.03304 0.44913 0.51784 0.0
H571 H 0.03988 0.49073 0.49908 0.0
H572 H 0.16417 0.40676 0.60502 0.0
H573 H 0.12727 0.38543 0.59527 0.0
H574 H 0.08423 0.38658 0.57065 0.0
H575 H 0.05001 0.40972 0.5439 0.0
H576 H 0.97464 0.708 0.01109 0.0
H577 H 0.03945 0.70501 0.10679 0.0
H578 H 0.04589 0.74601 0.08759 0.0
H579 H 0.99292 0.74687 0.89911 0.0
H580 H 0.96644 0.76304 0.89638 0.0
H581 H 0.96605 0.73328 0.91875 0.0
H582 H 0.94595 0.74458 0.01629 0.0
H583 H 0.94621 0.77439 0.99411 0.0
H584 H 0.95897 0.76599 0.06318 0.0
H585 H 0.04738 0.78592 0.0532 0.0
H586 H 0.04201 0.82468 0.01044 0.0
H587 H 0.97551 0.80401 0.94131 0.0
C588 C 0.99007 0.71607 0.02825 0.0
C589 C 0.00648 0.70323 0.06058 0.0
C590 C 0.02647 0.71443 0.08243 0.0
C591 C 0.03038 0.73775 0.07161 0.0
C592 C 0.01405 0.74986 0.03949 0.0
C593 C 0.99414 0.73964 0.01866 0.0
C594 C 0.97949 0.757 0.98549 0.0
C595 C 0.97603 0.7496 0.92111 0.0
C596 C 0.95628 0.76071 0.01664 0.0
C597 C 0.99463 0.77828 0.98992 0.0
C598 C 0.0145 0.7736 0.02122 0.0
C599 C 0.03177 0.78996 0.02928 0.0
C600 C 0.02864 0.81181 0.00482 0.0
C601 C 0.00836 0.8171 0.97338 0.0
C602 C 0.99104 0.80026 0.96594 0.0
H603 H 0.69287 0.98402 0.53343 0.0
H604 H 0.69651 0.96178 0.35163 0.0
H605 H 0.73894 0.95946 0.35884 0.0
H606 H 0.74029 0.02116 0.52541 0.0
H607 H 0.75094 0.01562 0.59859 0.0
H608 H 0.72074 0.01223 0.58271 0.0
H609 H 0.72206 0.97014 0.62039 0.0
H610 H 0.75224 0.97346 0.63703 0.0
H611 H 0.74278 0.95039 0.58972 0.0
H612 H 0.78049 0.962 0.38302 0.0
H613 H 0.81924 0.9701 0.42149 0.0
H614 H 0.78939 0.99315 0.58663 0.0
C615 C 0.70267 0.97798 0.49592 0.0
C616 C 0.69162 0.9726 0.4423 0.0
C617 C 0.70482 0.96565 0.39319 0.0
C618 C 0.72885 0.96428 0.39693 0.0
C619 C 0.73937 0.97024 0.4499 0.0
C620 C 0.72678 0.977 0.49857 0.0
C621 C 0.74255 0.98452 0.5483 0.0
C622 C 0.73837 0.00989 0.56468 0.0
C623 C 0.73974 0.96868 0.60204 0.0
C624 C 0.7659 0.98129 0.51954 0.0
C625 C 0.76359 0.97271 0.46312 0.0
C626 C 0.78255 0.96858 0.42726 0.0
C627 C 0.80452 0.97327 0.44961 0.0
C628 C 0.80743 0.98231 0.50713 0.0
C629 C 0.78777 0.98635 0.54245 0.0
H630 H 0.5119 0.7892 0.03521 0.0
H631 H 0.4386 0.79635 0.06725 0.0
H632 H 0.43343 0.75449 0.05211 0.0
H633 H 0.5092 0.74521 0.9251 0.0
H634 H 0.53398 0.7298 0.95215 0.0
H635 H 0.53176 0.76043 0.9634 0.0
H636 H 0.5367 0.75456 0.07577 0.0
H637 H 0.53893 0.7239 0.06484 0.0
H638 H 0.51752 0.73532 0.11429 0.0
H639 H 0.43606 0.7122 0.02813 0.0
H640 H 0.44677 0.67195 0.00535 0.0
H641 H 0.51881 0.69193 0.00058 0.0
C642 C 0.49479 0.78195 0.0389 0.0
C643 C 0.47562 0.79597 0.05207 0.0
C644 C 0.4535 0.78583 0.05726 0.0
C645 C 0.45039 0.76213 0.04862 0.0
C646 C 0.46966 0.74873 0.03608 0.0
C647 C 0.49148 0.7582 0.0321 0.0
C648 C 0.50942 0.73982 0.02068 0.0
C649 C 0.52181 0.74407 0.96183 0.0
C650 C 0.52665 0.73831 0.07196 0.0
C651 C 0.49423 0.71863 0.01784 0.0
C652 C 0.47133 0.72415 0.02614 0.0
C653 C 0.45397 0.70761 0.02225 0.0
C654 C 0.46021 0.68482 0.0092 0.0
C655 C 0.48363 0.67872 0.00126 0.0
C656 C 0.50079 0.69589 0.00657 0.0
H657 H 0.7016 0.49622 0.5308 0.0
H658 H 0.68932 0.5677 0.48458 0.0
H659 H 0.7307 0.57259 0.46236 0.0
H660 H 0.75662 0.50319 0.59782 0.0
H661 H 0.76841 0.47701 0.56771 0.0
H662 H 0.73791 0.47927 0.58093 0.0
H663 H 0.7297 0.46899 0.47192 0.0
H664 H 0.76017 0.46659 0.4584 0.0
H665 H 0.7429 0.48577 0.41429 0.0
H666 H 0.77399 0.57022 0.45202 0.0
H667 H 0.8151 0.55953 0.44244 0.0
H668 H 0.79831 0.48881 0.48603 0.0
C669 C 0.70762 0.51293 0.51612 0.0
C670 C 0.69231 0.53171 0.51042 0.0
C671 C 0.70076 0.55315 0.48984 0.0
C672 C 0.72424 0.55609 0.47716 0.0
C673 C 0.73891 0.53728 0.48398 0.0
C674 C 0.73085 0.516 0.5019 0.0
C675 C 0.75 0.49832 0.50355 0.0
C676 C 0.75343 0.4889 0.56623 0.0
C677 C 0.74542 0.47877 0.4594 0.0
C678 C 0.77019 0.51306 0.48458 0.0
C679 C 0.7635 0.53555 0.47424 0.0
C680 C 0.77938 0.55261 0.45923 0.0
C681 C 0.80266 0.54643 0.45421 0.0
C682 C 0.80968 0.52337 0.46307 0.0
C683 C 0.79323 0.5065 0.47821 0.0
H684 H 0.99597 0.30609 0.04606 0.0
H685 H 0.00829 0.30562 0.85788 0.0
H686 H 0.01124 0.26315 0.85966 0.0
H687 H 0.03281 0.2569 0.08489 0.0
H688 H 0.01285 0.24589 0.13877 0.0
H689 H 0.01412 0.27637 0.12406 0.0
H690 H 0.9704 0.27646 0.10108 0.0
H691 H 0.96902 0.24599 0.11544 0.0
H692 H 0.95922 0.25718 0.04579 0.0
H693 H 0.01206 0.22121 0.88091 0.0
H694 H 0.0081 0.18166 0.91867 0.0
H695 H 0.99225 0.20854 0.09236 0.0
C696 C -0.00027 0.29697 0.00561 0.0
C697 C 0.00223 0.30896 0.9519 0.0
C698 C 0.00646 0.29661 0.89939 0.0
C699 C 0.00823 0.27256 0.90004 0.0
C700 C 0.00535 0.26114 0.95346 0.0
C701 C 0.001 0.27284 0.00525 0.0
C702 C 0.9968 0.25619 0.05563 0.0
C703 C 0.01525 0.25901 0.10367 0.0
C704 C 0.97241 0.25914 0.08096 0.0
C705 C 0.99931 0.23335 0.02389 0.0
C706 C 0.00461 0.23669 0.96521 0.0
C707 C 0.00792 0.21834 0.92676 0.0
C708 C 0.00567 0.19593 0.94872 0.0
C709 C -0.0002 0.19199 0.00843 0.0
C710 C 0.99659 0.21101 0.04644 0.0
H711 H 0.29852 0.99162 0.54583 0.0
H712 H 0.31633 0.06266 0.50774 0.0
H713 H 0.27618 0.07025 0.47761 0.0
H714 H 0.26102 0.98503 0.41959 0.0
H715 H 0.24113 0.96634 0.45744 0.0
H716 H 0.27105 0.96678 0.47845 0.0
H717 H 0.25949 0.97617 0.58595 0.0
H718 H 0.22954 0.97575 0.56531 0.0
H719 H 0.24155 0.00085 0.60058 0.0
H720 H 0.23344 0.0706 0.45778 0.0
H721 H 0.19216 0.06253 0.43889 0.0
H722 H 0.20332 0.99043 0.47917 0.0
C723 C 0.2939 0.00881 0.53152 0.0
C724 C 0.3104 0.02669 0.53026 0.0
C725 C 0.30391 0.0488 0.50979 0.0
C726 C 0.28115 0.05326 0.49255 0.0
C727 C 0.26526 0.03528 0.49459 0.0
C728 C 0.27144 0.01339 0.51254 0.0
C729 C 0.25136 0.99682 0.50791 0.0
C730 C 0.25645 0.97761 0.46318 0.0
C731 C 0.24512 0.98682 0.56855 0.0
C732 C 0.23281 0.01292 0.4856 0.0
C733 C 0.2411 0.0351 0.47888 0.0
C734 C 0.22682 0.05324 0.46199 0.0
C735 C 0.20346 0.04855 0.45155 0.0
C736 C 0.19485 0.02586 0.45686 0.0
C737 C 0.20972 0.00784 0.47373 0.0
H738 H 0.48321 0.2065 0.95448 0.0
H739 H 0.55631 0.1925 0.96991 0.0
H740 H 0.56306 0.23264 0.00212 0.0
H741 H 0.4904 0.26265 0.89218 0.0
H742 H 0.46569 0.27487 0.92861 0.0
H743 H 0.4663 0.24458 0.91167 0.0
H744 H 0.45887 0.23495 0.02138 0.0
H745 H 0.45829 0.26523 0.03869 0.0
H746 H 0.4779 0.24638 0.07691 0.0
H747 H 0.56179 0.27377 0.03381 0.0
H748 H 0.55345 0.31484 0.05201 0.0
H749 H 0.48166 0.30325 0.00722 0.0
C750 C 0.50055 0.21188 0.96526 0.0
C751 C 0.51926 0.19651 0.96046 0.0
C752 C 0.54182 0.20416 0.97354 0.0
C753 C 0.54578 0.22682 0.9921 0.0
C754 C 0.52701 0.24166 0.99625 0.0
C755 C 0.50489 0.23465 0.98236 0.0
C756 C 0.48807 0.25455 0.98631 0.0
C757 C 0.47697 0.25945 0.9261 0.0
C758 C 0.4697 0.25 0.03365 0.0
C759 C 0.50421 0.27379 0.00454 0.0
C760 C 0.5265 0.26584 0.01106 0.0
C761 C 0.54443 0.28024 0.02862 0.0
C762 C 0.53951 0.30349 0.03907 0.0
C763 C 0.51695 0.31218 0.03081 0.0
C764 C 0.49909 0.29708 0.01351 0.0
H765 H 0.2983 0.45398 0.46946 0.0
H766 H 0.32154 0.52494 0.48156 0.0
H767 H 0.28192 0.53716 0.50558 0.0
H768 H 0.24189 0.46739 0.40278 0.0
H769 H 0.22741 0.44466 0.44223 0.0
H770 H 0.25736 0.44164 0.42286 0.0
H771 H 0.26739 0.43425 0.53233 0.0
H772 H 0.23754 0.43747 0.55216 0.0
H773 H 0.25913 0.45516 0.58705 0.0
H774 H 0.24128 0.54108 0.5388 0.0
H775 H 0.20056 0.53737 0.56799 0.0
H776 H 0.20246 0.46432 0.52775 0.0
C777 C 0.29498 0.47213 0.47642 0.0
C778 C 0.313 0.48854 0.47377 0.0
C779 C 0.30798 0.51212 0.48295 0.0
C780 C 0.28556 0.51921 0.49687 0.0
C781 C 0.26831 0.50255 0.50034 0.0
C782 C 0.27261 0.47956 0.4893 0.0
C783 C 0.25094 0.46519 0.49633 0.0
C784 C 0.24399 0.45407 0.43754 0.0
C785 C 0.25394 0.44694 0.54486 0.0
C786 C 0.23391 0.48362 0.51458 0.0
C787 C 0.24441 0.505 0.51694 0.0
C788 C 0.23276 0.52451 0.53623 0.0
C789 C 0.20971 0.52218 0.55312 0.0
C790 C 0.19841 0.50057 0.54994 0.0
C791 C 0.21064 0.48107 0.52997 0.0
H792 H 0.02876 0.60749 0.90401 0.0
H793 H 0.08421 0.63534 0.0109 0.0
H794 H 0.11248 0.62206 0.93666 0.0
H795 H 0.05695 0.55693 0.86601 0.0
H796 H 0.04503 0.5554 0.79286 0.0
H797 H 0.02933 0.56973 0.85037 0.0
H798 H 0.02745 0.60684 0.78699 0.0
H799 H 0.04318 0.5926 0.72916 0.0
H800 H 0.05372 0.61936 0.75918 0.0
H801 H 0.13473 0.60316 0.85299 0.0
H802 H 0.14891 0.57855 0.77175 0.0
H803 H 0.07838 0.56237 0.72377 0.0
C804 C 0.04679 0.6113 0.91155 0.0
C805 C 0.05423 0.62268 0.96315 0.0
C806 C 0.07808 0.62677 0.97157 0.0
C807 C 0.09424 0.61936 0.92954 0.0
C808 C 0.08624 0.60786 0.87958 0.0
C809 C 0.06304 0.60383 0.87069 0.0
C810 C 0.05882 0.58936 0.81646 0.0
C811 C 0.04684 0.56651 0.83241 0.0
C812 C 0.04498 0.60285 0.77021 0.0
C813 C 0.08332 0.58548 0.79651 0.0
C814 C 0.09893 0.59654 0.8328 0.0
C815 C 0.12263 0.5946 0.82406 0.0
C816 C 0.13052 0.58063 0.77777 0.0
C817 C 0.11473 0.5686 0.74147 0.0
C818 C 0.09087 0.57144 0.75057 0.0
H819 H 0.93613 0.07662 0.20214 0.0
H820 H 0.91911 0.14595 0.2582 0.0
H821 H 0.89775 0.1298 0.34362 0.0
H822 H 0.88248 0.04863 0.24741 0.0
H823 H 0.8974 0.02291 0.27024 0.0
H824 H 0.90878 0.0402 0.21115 0.0
H825 H 0.94764 0.04363 0.26685 0.0
H826 H 0.93634 0.02659 0.32632 0.0
H827 H 0.94793 0.05484 0.34083 0.0
H828 H 0.88128 0.10511 0.42862 0.0
H829 H 0.87058 0.07504 0.50112 0.0
H830 H 0.89958 0.02284 0.38615 0.0
C831 C 0.92757 0.08851 0.23161 0.0
C832 C 0.92921 0.11256 0.22344 0.0
C833 C 0.91787 0.12745 0.26336 0.0
C834 C 0.90579 0.11841 0.31205 0.0
C835 C 0.90516 0.09451 0.31967 0.0
C836 C 0.91563 0.07984 0.27996 0.0
C837 C 0.91384 0.05497 0.29893 0.0
C838 C 0.89978 0.04085 0.25428 0.0
C839 C 0.93786 0.04441 0.30882 0.0
C840 C 0.901 0.05778 0.35619 0.0
C841 C 0.89597 0.08062 0.36764 0.0
C842 C 0.88494 0.08718 0.41959 0.0
C843 C 0.87897 0.06997 0.46059 0.0
C844 C 0.88414 0.04648 0.44949 0.0
C845 C 0.89519 0.04053 0.39624 0.0
H846 H 0.46091 0.89514 0.89777 0.0
H847 H 0.40223 0.87328 0.00225 0.0
H848 H 0.37598 0.89109 0.92922 0.0
H849 H 0.43941 0.94951 0.86472 0.0
H850 H 0.45157 0.95059 0.7918 0.0
H851 H 0.46521 0.93355 0.84797 0.0
H852 H 0.46251 0.89743 0.78116 0.0
H853 H 0.44886 0.9144 0.72464 0.0
H854 H 0.43494 0.88878 0.75202 0.0
H855 H 0.35637 0.91373 0.84642 0.0
H856 H 0.34562 0.94063 0.76617 0.0
H857 H 0.4178 0.94853 0.7211 0.0
C858 C 0.44253 0.89358 0.90498 0.0
C859 C 0.43365 0.88256 0.9556 0.0
C860 C 0.40946 0.88149 0.96364 0.0
C861 C 0.39443 0.89152 0.92231 0.0
C862 C 0.40388 0.90263 0.87345 0.0
C863 C 0.42742 0.90373 0.86491 0.0
C864 C 0.43355 0.91833 0.8121 0.0
C865 C 0.44829 0.93923 0.83026 0.0
C866 C 0.44568 0.90386 0.76468 0.0
C867 C 0.40978 0.92559 0.7924 0.0
C868 C 0.3928 0.91615 0.82761 0.0
C869 C 0.36954 0.92108 0.81843 0.0
C870 C 0.36359 0.93632 0.77272 0.0
C871 C 0.38087 0.94665 0.73751 0.0
C872 C 0.40418 0.94089 0.74722 0.0
H873 H 0.55137 0.44646 0.19528 0.0
H874 H 0.58961 0.38265 0.21469 0.0
H875 H 0.61169 0.39965 0.29652 0.0
H876 H 0.59991 0.48536 0.23103 0.0
H877 H 0.58161 0.50521 0.27013 0.0
H878 H 0.57017 0.48866 0.20971 0.0
H879 H 0.53798 0.47296 0.27783 0.0
H880 H 0.54945 0.48924 0.33856 0.0
H881 H 0.54574 0.45852 0.34523 0.0
H882 H 0.62659 0.42191 0.3829 0.0
H883 H 0.6357 0.44939 0.46272 0.0
H884 H 0.58892 0.49914 0.38483 0.0
C885 C 0.56472 0.43624 0.21593 0.0
C886 C 0.56878 0.41324 0.19855 0.0
C887 C 0.58623 0.40033 0.22711 0.0
C888 C 0.59886 0.40982 0.27372 0.0
C889 C 0.59402 0.4323 0.29086 0.0
C890 C 0.57761 0.44549 0.26235 0.0
C891 C 0.57521 0.46893 0.29087 0.0
C892 C 0.58215 0.48818 0.24787 0.0
C893 C 0.55064 0.47261 0.31452 0.0
C894 C 0.59246 0.46664 0.34052 0.0
C895 C 0.60309 0.44538 0.33984 0.0
C896 C 0.61866 0.43877 0.38341 0.0
C897 C 0.62363 0.45442 0.42871 0.0
C898 C 0.61317 0.47645 0.4297 0.0
C899 C 0.59747 0.48257 0.38479 0.0
H900 H 0.07782 0.95521 0.28437 0.0
H901 H 0.14835 0.93744 0.24053 0.0
H902 H 0.13437 0.91577 0.15355 0.0
H903 H 0.05106 0.90107 0.23658 0.0
H904 H 0.02592 0.91562 0.20858 0.0
H905 H 0.04155 0.92759 0.26991 0.0
H906 H 0.04623 0.966 0.2129 0.0
H907 H 0.03087 0.9541 0.15118 0.0
H908 H 0.05937 0.96579 0.14103 0.0
H909 H 0.11247 0.89898 0.06634 0.0
H910 H 0.08474 0.88693 0.98972 0.0
H911 H 0.02887 0.91624 0.09235 0.0
C912 C 0.09037 0.94639 0.25726 0.0
C913 C 0.1142 0.94791 0.26938 0.0
C914 C 0.13001 0.93633 0.23233 0.0
C915 C 0.12221 0.92406 0.18277 0.0
C916 C 0.09859 0.92348 0.17124 0.0
C917 C 0.08292 0.93418 0.20788 0.0
C918 C 0.05858 0.93204 0.18464 0.0
C919 C 0.04339 0.91825 0.22747 0.0
C920 C 0.04816 0.9559 0.17167 0.0
C921 C 0.06296 0.91875 0.12858 0.0
C922 C 0.0861 0.91389 0.12154 0.0
C923 C 0.09429 0.90249 0.07178 0.0
C924 C 0.07839 0.89579 0.02836 0.0
C925 C 0.05454 0.90052 0.03494 0.0
C926 C 0.0469 0.91214 0.08597 0.0
H927 H 0.5644 0.07096 0.7764 0.0
H928 H 0.59057 0.13829 0.72756 0.0
H929 H 0.61256 0.12054 0.64575 0.0
H930 H 0.61687 0.03826 0.74094 0.0
H931 H 0.60049 0.01404 0.71415 0.0
H932 H 0.5889 0.03202 0.77153 0.0
H933 H 0.55231 0.0391 0.7085 0.0
H934 H 0.56383 0.02132 0.65083 0.0
H935 H 0.55529 0.05052 0.63511 0.0
H936 H 0.62794 0.09526 0.56167 0.0
H937 H 0.63698 0.06486 0.48849 0.0
H938 H 0.60136 0.0148 0.59763 0.0
C939 C 0.57509 0.08196 0.74923 0.0
C940 C 0.57582 0.10597 0.75823 0.0
C941 C 0.58992 0.11979 0.72159 0.0
C942 C 0.60241 0.10987 0.67498 0.0
C943 C 0.60082 0.08611 0.66638 0.0
C944 C 0.58773 0.07236 0.7032 0.0
C945 C 0.58788 0.04752 0.68365 0.0
C946 C 0.59922 0.03205 0.73035 0.0
C947 C 0.56338 0.03914 0.66863 0.0
C948 C 0.60265 0.04943 0.62922 0.0
C949 C 0.61004 0.07173 0.61963 0.0
C950 C 0.62259 0.07766 0.56939 0.0
C951 C 0.62759 0.06031 0.528 0.0
C952 C 0.62011 0.03735 0.53737 0.0
C953 C 0.60774 0.03202 0.58918 0.0
H954 H 0.399 0.5467 0.28862 0.0
H955 H 0.45877 0.51804 0.37646 0.0
H956 H 0.48421 0.53675 0.30334 0.0
H957 H 0.41901 0.53619 0.14593 0.0
H958 H 0.40711 0.5619 0.11346 0.0
H959 H 0.39368 0.54931 0.17722 0.0
H960 H 0.39751 0.58796 0.23338 0.0
H961 H 0.4107 0.60079 0.16948 0.0
H962 H 0.42536 0.60154 0.23939 0.0
H963 H 0.50284 0.55655 0.21817 0.0
H964 H 0.51372 0.57529 0.12498 0.0
H965 H 0.44161 0.58882 0.08754 0.0
C966 C 0.41749 0.54503 0.29344 0.0
C967 C 0.42705 0.5314 0.33877 0.0
C968 C 0.45122 0.52872 0.34245 0.0
C969 C 0.46576 0.53925 0.30114 0.0
C970 C 0.45578 0.55209 0.25598 0.0
C971 C 0.43221 0.55499 0.25172 0.0
C972 C 0.42581 0.56782 0.19587 0.0
C973 C 0.4105 0.55291 0.15577 0.0
C974 C 0.41416 0.5909 0.21042 0.0
C975 C 0.44945 0.57147 0.16914 0.0
C976 C 0.46648 0.56254 0.20501 0.0
C977 C 0.48967 0.5637 0.18983 0.0
C978 C 0.49566 0.57438 0.13672 0.0
C979 C 0.47852 0.58349 0.09881 0.0
C980 C 0.45509 0.5819 0.11535 0.0
H981 H 0.93616 0.381 0.71929 0.0
H982 H 0.91214 0.42055 0.86862 0.0
H983 H 0.88491 0.44142 0.80414 0.0
H984 H 0.93923 0.42714 0.62606 0.0
H985 H 0.93068 0.41223 0.55998 0.0
H986 H 0.94403 0.39658 0.61907 0.0
H987 H 0.90912 0.36875 0.6227 0.0
H988 H 0.89562 0.38443 0.56348 0.0
H989 H 0.8805 0.38023 0.63193 0.0
H990 H 0.86512 0.46172 0.7238 0.0
H991 H 0.85633 0.48259 0.63214 0.0
H992 H 0.89406 0.43155 0.53188 0.0
C993 C 0.92443 0.39342 0.73843 0.0
C994 C 0.92562 0.39887 0.79888 0.0
C995 C 0.91103 0.41596 0.82248 0.0
C996 C 0.89548 0.42777 0.78625 0.0
C997 C 0.89501 0.42246 0.72639 0.0
C998 C 0.90919 0.40578 0.70241 0.0
C999 C 0.90801 0.40609 0.63564 0.0
C1000 C 0.9319 0.4108 0.60864 0.0
C1001 C 0.89769 0.38353 0.61206 0.0
C1002 C 0.89172 0.42615 0.62583 0.0
C1003 C 0.88399 0.4349 0.67893 0.0
C1004 C 0.87064 0.45477 0.68194 0.0
C1005 C 0.86575 0.46652 0.62967 0.0
C1006 C 0.87426 0.45847 0.57506 0.0
C1007 C 0.88675 0.43762 0.57288 0.0
H1008 H 0.96984 0.39399 0.1305 0.0
H1009 H 0.91403 0.37646 0.0113 0.0
H1010 H 0.88584 0.38895 0.08669 0.0
H1011 H 0.94089 0.37875 0.26977 0.0
H1012 H 0.95363 0.40294 0.30744 0.0
H1013 H 0.96886 0.38921 0.24791 0.0
H1014 H 0.97225 0.4285 0.19423 0.0
H1015 H 0.95706 0.44231 0.25336 0.0
H1016 H 0.94651 0.44481 0.17901 0.0
H1017 H 0.86401 0.40744 0.17259 0.0
H1018 H 0.85119 0.4314 0.25668 0.0
H1019 H 0.92199 0.43729 0.31571 0.0
C1020 C 0.9517 0.39217 0.12033 0.0
C1021 C 0.94422 0.38403 0.06484 0.0
C1022 C 0.92025 0.38243 0.05357 0.0
C1023 C 0.9041 0.38946 0.09622 0.0
C1024 C 0.91221 0.39797 0.1499 0.0
C1025 C 0.93551 0.39925 0.16187 0.0
C1026 C 0.94017 0.41111 0.2199 0.0
C1027 C 0.95156 0.39451 0.26385 0.0
C1028 C 0.95485 0.43297 0.21106 0.0
C1029 C 0.91587 0.41695 0.23831 0.0
C1030 C 0.89987 0.40892 0.1981 0.0
C1031 C 0.87641 0.41352 0.20463 0.0
C1032 C 0.86926 0.42708 0.25261 0.0
C1033 C 0.88559 0.43614 0.29282 0.0
C1034 C 0.90907 0.43049 0.28602 0.0
H1035 H 0.05805 0.8879 0.68791 0.0
H1036 H 0.09593 0.91101 0.84099 0.0
H1037 H 0.12356 0.93153 0.77647 0.0
H1038 H 0.10924 0.88264 0.58491 0.0
H1039 H 0.09265 0.89334 0.52366 0.0
H1040 H 0.07877 0.87683 0.5808 0.0
H1041 H 0.04964 0.91004 0.59721 0.0
H1042 H 0.06341 0.92658 0.54041 0.0
H1043 H 0.06027 0.93856 0.61314 0.0
H1044 H 0.14201 0.95502 0.69843 0.0
H1045 H 0.15059 0.9794 0.61196 0.0
H1046 H 0.10196 0.94015 0.50776 0.0
C1047 C 0.07275 0.89655 0.7073 0.0
C1048 C 0.07542 0.8976 0.76884 0.0
C1049 C 0.09412 0.90975 0.79363 0.0
C1050 C 0.10983 0.92136 0.75736 0.0
C1051 C 0.10654 0.92049 0.69656 0.0
C1052 C 0.08859 0.9082 0.67159 0.0
C1053 C 0.08726 0.91224 0.60579 0.0
C1054 C 0.09229 0.88993 0.57178 0.0
C1055 C 0.06376 0.92247 0.58816 0.0
C1056 C 0.10654 0.92958 0.59806 0.0
C1057 C 0.11764 0.93386 0.65087 0.0
C1058 C 0.13399 0.95132 0.65648 0.0
C1059 C 0.13874 0.96508 0.60731 0.0
C1060 C 0.12733 0.96115 0.55324 0.0
C1061 C 0.11153 0.94281 0.54813 0.0
H1062 H 0.57591 0.04601 0.27415 0.0
H1063 H 0.64773 0.0599 0.23455 0.0
H1064 H 0.63584 0.08484 0.15174 0.0
H1065 H 0.55712 0.04126 0.12894 0.0
H1066 H 0.52964 0.05491 0.14085 0.0
H1067 H 0.54369 0.04009 0.20041 0.0
H1068 H 0.54191 0.07705 0.26423 0.0
H1069 H 0.52764 0.09196 0.20499 0.0
H1070 H 0.55376 0.10357 0.23604 0.0
H1071 H 0.61599 0.10515 0.06719 0.0
H1072 H 0.58977 0.12083 0.99132 0.0
H1073 H 0.53116 0.09392 0.0883 0.0
C1074 C 0.58916 0.05465 0.24884 0.0
C1075 C 0.61275 0.05107 0.26089 0.0
C1076 C 0.62955 0.06249 0.22629 0.0
C1077 C 0.62296 0.07667 0.17913 0.0
C1078 C 0.59953 0.07937 0.16753 0.0
C1079 C 0.5829 0.06886 0.20184 0.0
C1080 C 0.55893 0.07363 0.17867 0.0
C1081 C 0.54664 0.05113 0.16118 0.0
C1082 C 0.54473 0.08738 0.22366 0.0
C1083 C 0.56468 0.08807 0.12525 0.0
C1084 C 0.58816 0.09126 0.11952 0.0
C1085 C 0.59755 0.10303 0.07169 0.0
C1086 C 0.58253 0.11179 0.02869 0.0
C1087 C 0.55838 0.10877 0.03395 0.0
C1088 C 0.54949 0.09685 0.08323 0.0
H1089 H 0.43146 0.50914 0.58651 0.0
H1090 H 0.36079 0.49861 0.64146 0.0
H1091 H 0.36812 0.52165 0.73164 0.0
H1092 H 0.45603 0.50404 0.73471 0.0
H1093 H 0.47808 0.5252 0.7204 0.0
H1094 H 0.46704 0.50778 0.66114 0.0
H1095 H 0.45676 0.54474 0.60279 0.0
H1096 H 0.46768 0.56221 0.66199 0.0
H1097 H 0.43856 0.56619 0.63631 0.0
H1098 H 0.38276 0.54955 0.81105 0.0
H1099 H 0.40485 0.57484 0.87924 0.0
H1100 H 0.4665 0.5631 0.77599 0.0
C1101 C 0.41764 0.51153 0.61795 0.0
C1102 C 0.39557 0.50228 0.60739 0.0
C1103 C 0.37785 0.50553 0.64932 0.0
C1104 C 0.38184 0.51866 0.70034 0.0
C1105 C 0.40378 0.52789 0.70922 0.0
C1106 C 0.42152 0.52398 0.66975 0.0
C1107 C 0.44368 0.53518 0.68998 0.0
C1108 C 0.4623 0.51696 0.70231 0.0
C1109 C 0.45215 0.55315 0.6451 0.0
C1110 C 0.43556 0.54648 0.74623 0.0
C1111 C 0.41245 0.54239 0.75648 0.0
C1112 C 0.40097 0.55248 0.80403 0.0
C1113 C 0.41354 0.56686 0.84234 0.0
C1114 C 0.43736 0.57052 0.83329 0.0
C1115 C 0.44837 0.56015 0.78467 0.0
H1116 H 0.91583 0.05665 0.70101 0.0
H1117 H 0.84512 0.06632 0.75707 0.0
H1118 H 0.85884 0.09021 0.84088 0.0
H1119 H 0.93886 0.04858 0.83936 0.0
H1120 H 0.96565 0.06308 0.82396 0.0
H1121 H 0.94989 0.04957 0.76525 0.0
H1122 H 0.94898 0.08819 0.70777 0.0
H1123 H 0.96498 0.10181 0.76616 0.0
H1124 H 0.93775 0.11365 0.74293 0.0
H1125 H 0.88172 0.10951 0.92563 0.0
H1126 H 0.91067 0.12303 0.99832 0.0
H1127 H 0.96534 0.09989 0.88218 0.0
C1128 C 0.90311 0.06416 0.7301 0.0
C1129 C 0.87942 0.0597 0.72258 0.0
C1130 C 0.86337 0.06973 0.76184 0.0
C1131 C 0.87103 0.08324 0.80959 0.0
C1132 C 0.89471 0.08665 0.81675 0.0
C1133 C 0.91041 0.07754 0.77739 0.0
C1134 C 0.93493 0.08217 0.79591 0.0
C1135 C 0.94809 0.05951 0.80677 0.0
C1136 C 0.94739 0.09737 0.75049 0.0
C1137 C 0.93077 0.095 0.85257 0.0
C1138 C 0.90755 0.0976 0.86421 0.0
C1139 C 0.89993 0.10783 0.91635 0.0
C1140 C 0.91648 0.11543 0.95744 0.0
C1141 C 0.94035 0.11266 0.94609 0.0
C1142 C 0.94732 0.10254 0.89247 0.0
H1143 H 0.40501 0.98402 0.40627 0.0
H1144 H 0.36359 0.93577 0.50704 0.0
H1145 H 0.37053 0.90587 0.43152 0.0
H1146 H 0.38772 0.9649 0.26073 0.0
H1147 H 0.41615 0.96877 0.23038 0.0
H1148 H 0.40663 0.98665 0.29041 0.0
H1149 H 0.4422 0.97432 0.35189 0.0
H1150 H 0.45188 0.95654 0.29198 0.0
H1151 H 0.44766 0.94412 0.36388 0.0
H1152 H 0.38345 0.8808 0.346 0.0
H1153 H 0.40306 0.86227 0.26164 0.0
H1154 H 0.43598 0.92732 0.2191 0.0
C1155 C 0.39712 0.96727 0.41233 0.0
C1156 C 0.38361 0.96231 0.46248 0.0
C1157 C 0.37398 0.94 0.46897 0.0
C1158 C 0.37774 0.92294 0.42618 0.0
C1159 C 0.39118 0.92847 0.3773 0.0
C1160 C 0.40079 0.95009 0.37044 0.0
C1161 C 0.41564 0.95139 0.31589 0.0
C1162 C 0.40595 0.96897 0.27175 0.0
C1163 C 0.44083 0.95691 0.33189 0.0
C1164 C 0.4131 0.92704 0.29329 0.0
C1165 C 0.39877 0.91409 0.32885 0.0
C1166 C 0.39457 0.89083 0.31764 0.0
C1167 C 0.40572 0.88048 0.26956 0.0
C1168 C 0.42096 0.89338 0.2337 0.0
C1169 C 0.42429 0.91703 0.24535 0.0
H1170 H 0.52705 0.41397 0.86868 0.0
H1171 H 0.58369 0.38368 0.9663 0.0
H1172 H 0.6111 0.3982 0.89168 0.0
H1173 H 0.55005 0.40545 0.71986 0.0
H1174 H 0.53976 0.43302 0.69456 0.0
H1175 H 0.52443 0.41783 0.7516 0.0
H1176 H 0.52796 0.45343 0.81991 0.0
H1177 H 0.54324 0.46871 0.76313 0.0
H1178 H 0.55604 0.46536 0.83489 0.0
H1179 H 0.63257 0.41802 0.80897 0.0
H1180 H 0.64639 0.44376 0.72949 0.0
H1181 H 0.57571 0.46243 0.68975 0.0
C1182 C 0.54516 0.40998 0.87377 0.0
C1183 C 0.55322 0.39749 0.92298 0.0
C1184 C 0.57714 0.39314 0.92878 0.0
C1185 C 0.59282 0.40123 0.88651 0.0
C1186 C 0.58433 0.41382 0.83897 0.0
C1187 C 0.56106 0.4183 0.83265 0.0
C1188 C 0.55655 0.43403 0.7808 0.0
C1189 C 0.54183 0.42185 0.73393 0.0
C1190 C 0.5453 0.45672 0.80091 0.0
C1191 C 0.58092 0.43791 0.75929 0.0
C1192 C 0.59671 0.42586 0.79277 0.0
C1193 C 0.62034 0.42741 0.78219 0.0
C1194 C 0.62804 0.44202 0.7369 0.0
C1195 C 0.61214 0.45505 0.70343 0.0
C1196 C 0.5883 0.45261 0.7144 0.0
H1197 H 0.10008 0.52594 0.41199 0.0
H1198 H 0.13512 0.58005 0.50911 0.0
H1199 H 0.12345 0.60824 0.43292 0.0
H1200 H 0.11268 0.54669 0.26417 0.0
H1201 H 0.08468 0.5386 0.23667 0.0
H1202 H 0.09761 0.52254 0.29596 0.0
H1203 H 0.06152 0.52977 0.36059 0.0
H1204 H 0.04847 0.54577 0.30153 0.0
H1205 H 0.05192 0.5589 0.37286 0.0
H1206 H 0.10613 0.63071 0.34804 0.0
H1207 H 0.08289 0.64594 0.26559 0.0
H1208 H 0.05873 0.5768 0.22692 0.0
C1209 C 0.10568 0.54363 0.41702 0.0
C1210 C 0.11871 0.55074 0.46636 0.0
C1211 C 0.12521 0.57418 0.4716 0.0
C1212 C 0.11874 0.59028 0.42844 0.0
C1213 C 0.10575 0.58264 0.38057 0.0
C1214 C 0.09923 0.55986 0.3749 0.0
C1215 C 0.08392 0.5562 0.32185 0.0
C1216 C 0.09542 0.54005 0.27701 0.0
C1217 C 0.06005 0.54713 0.34033 0.0
C1218 C 0.08255 0.58056 0.29874 0.0
C1219 C 0.09546 0.59555 0.3327 0.0
C1220 C 0.09612 0.6191 0.32093 0.0
C1221 C 0.08289 0.62757 0.27396 0.0
C1222 C 0.06906 0.61253 0.23976 0.0
C1223 C 0.06926 0.5887 0.25192 0.0
H1224 H 0.87946 0.56292 0.31401 0.0
H1225 H 0.92925 0.51066 0.36291 0.0
H1226 H 0.95941 0.5313 0.30771 0.0
H1227 H 0.90005 0.57457 0.17058 0.0
H1228 H 0.89554 0.60533 0.17515 0.0
H1229 H 0.87826 0.58617 0.21862 0.0
H1230 H 0.89123 0.60881 0.31271 0.0
H1231 H 0.90777 0.62745 0.26568 0.0
H1232 H 0.92181 0.61284 0.32538 0.0
H1233 H 0.98249 0.55408 0.23881 0.0
H1234 H 0.00169 0.58424 0.18113 0.0
H1235 H 0.9399 0.62609 0.18768 0.0
C1236 C 0.89687 0.55624 0.31393 0.0
C1237 C 0.90221 0.53527 0.34244 0.0
C1238 C 0.925 0.52679 0.34147 0.0
C1239 C 0.94216 0.53829 0.30997 0.0
C1240 C 0.93633 0.55856 0.28091 0.0
C1241 C 0.91461 0.56814 0.28465 0.0
C1242 C 0.91356 0.5907 0.25059 0.0
C1243 C 0.89583 0.58906 0.20065 0.0
C1244 C 0.90824 0.61113 0.2912 0.0
C1245 C 0.93806 0.59213 0.22718 0.0
C1246 C 0.9505 0.57292 0.24398 0.0
C1247 C 0.97315 0.56946 0.22648 0.0
C1248 C 0.98387 0.58668 0.19359 0.0
C1249 C 0.97232 0.60748 0.18035 0.0
C1250 C 0.94899 0.61022 0.19671 0.0
H1251 H 0.91918 0.97901 0.67253 0.0
H1252 H 0.86042 0.93311 0.67086 0.0
H1253 H 0.88416 0.90244 0.71724 0.0
H1254 H 0.96695 0.9371 0.65742 0.0
H1255 H 0.98379 0.95298 0.70984 0.0
H1256 H 0.96294 0.96778 0.66492 0.0
H1257 H 0.94683 0.9837 0.76249 0.0
H1258 H 0.96497 0.96604 0.80832 0.0
H1259 H 0.93404 0.96439 0.8148 0.0
H1260 H 0.91658 0.87585 0.7536 0.0
H1261 H 0.95097 0.85869 0.80186 0.0
H1262 H 0.98417 0.92545 0.8027 0.0
C1263 C 0.91157 0.96226 0.68072 0.0
C1264 C 0.8885 0.95772 0.66547 0.0
C1265 C 0.87843 0.93633 0.68014 0.0
C1266 C 0.89175 0.91894 0.70645 0.0
C1267 C 0.91468 0.92381 0.72022 0.0
C1268 C 0.92427 0.94522 0.70942 0.0
C1269 C 0.94799 0.94736 0.73654 0.0
C1270 C 0.96647 0.95156 0.68929 0.0
C1271 C 0.9485 0.96647 0.78339 0.0
C1272 C 0.95042 0.92367 0.76351 0.0
C1273 C 0.93145 0.91001 0.75161 0.0
C1274 C 0.93115 0.88657 0.76516 0.0
C1275 C 0.95062 0.87698 0.79258 0.0
C1276 C 0.96939 0.89112 0.80867 0.0
C1277 C 0.96938 0.91464 0.79344 0.0
H1278 H 0.54713 0.8656 0.17974 0.0
H1279 H 0.48911 0.91265 0.17961 0.0
H1280 H 0.51121 0.94037 0.23795 0.0
H1281 H 0.56971 0.87792 0.32116 0.0
H1282 H 0.59968 0.87831 0.29969 0.0
H1283 H 0.57925 0.8613 0.25893 0.0
H1284 H 0.59213 0.88194 0.16535 0.0
H1285 H 0.6118 0.89996 0.20506 0.0
H1286 H 0.58988 0.91295 0.15983 0.0
H1287 H 0.53714 0.96131 0.30326 0.0
H1288 H 0.57013 0.98043 0.35064 0.0
H1289 H 0.61471 0.92421 0.29783 0.0
C1290 C 0.5394 0.88197 0.19089 0.0
C1291 C 0.51626 0.8869 0.17571 0.0
C1292 C 0.50664 0.90842 0.19128 0.0
C1293 C 0.51905 0.92428 0.22468 0.0
C1294 C 0.54145 0.91877 0.24064 0.0
C1295 C 0.55207 0.89873 0.22219 0.0
C1296 C 0.5771 0.89839 0.24246 0.0
C1297 C 0.5817 0.87777 0.2831 0.0
C1298 C 0.59367 0.89833 0.1899 0.0
C1299 C 0.57851 0.92113 0.27554 0.0
C1300 C 0.55743 0.93214 0.27506 0.0
C1301 C 0.55386 0.95309 0.30322 0.0
C1302 C 0.57264 0.96374 0.33024 0.0
C1303 C 0.59479 0.95373 0.32771 0.0
C1304 C 0.59783 0.93205 0.30048 0.0
H1305 H 0.58026 0.53354 0.66969 0.0
H1306 H 0.63571 0.5833 0.67099 0.0
H1307 H 0.60969 0.61208 0.71774 0.0
H1308 H 0.52987 0.57086 0.6577 0.0
H1309 H 0.51417 0.55457 0.71194 0.0
H1310 H 0.5354 0.5405 0.66659 0.0
H1311 H 0.55582 0.52611 0.76152 0.0
H1312 H 0.53518 0.54082 0.80697 0.0
H1313 H 0.56549 0.54678 0.81526 0.0
H1314 H 0.5742 0.63638 0.75251 0.0
H1315 H 0.54064 0.64889 0.81302 0.0
H1316 H 0.51516 0.5789 0.81511 0.0
C1317 C 0.58666 0.55074 0.67849 0.0
C1318 C 0.60925 0.55706 0.6632 0.0
C1319 C 0.61791 0.57888 0.67943 0.0
C1320 C 0.60328 0.5952 0.7058 0.0
C1321 C 0.58061 0.58875 0.71809 0.0
C1322 C 0.57285 0.56659 0.70772 0.0
C1323 C 0.54987 0.56213 0.73656 0.0
C1324 C 0.53124 0.55669 0.69043 0.0
C1325 C 0.55171 0.54283 0.78284 0.0
C1326 C 0.54582 0.58527 0.7647 0.0
C1327 C 0.56296 0.60086 0.75068 0.0
C1328 C 0.5613 0.62405 0.76632 0.0
C1329 C 0.54246 0.63097 0.80101 0.0
C1330 C 0.52673 0.61439 0.82222 0.0
C1331 C 0.52787 0.59156 0.80187 0.0
H1332 H 0.12085 0.43759 0.69337 0.0
H1333 H 0.08469 0.50286 0.70198 0.0
H1334 H 0.05485 0.48541 0.76373 0.0
H1335 H 0.06763 0.40351 0.67901 0.0
H1336 H 0.07725 0.37952 0.72285 0.0
H1337 H 0.09791 0.3961 0.68236 0.0
H1338 H 0.12146 0.40544 0.77412 0.0
H1339 H 0.10202 0.38741 0.81512 0.0
H1340 H 0.10718 0.41678 0.83818 0.0
H1341 H 0.03064 0.46271 0.82998 0.0
H1342 H 0.00664 0.43285 0.87675 0.0
H1343 H 0.05367 0.38005 0.8157 0.0
C1344 C 0.10637 0.44796 0.70729 0.0
C1345 C 0.10516 0.47169 0.6932 0.0
C1346 C 0.08607 0.48477 0.71255 0.0
C1347 C 0.06905 0.47503 0.74801 0.0
C1348 C 0.07094 0.4519 0.76264 0.0
C1349 C 0.08846 0.43816 0.7411 0.0
C1350 C 0.08497 0.41331 0.76076 0.0
C1351 C 0.08171 0.3972 0.70794 0.0
C1352 C 0.10509 0.40528 0.79947 0.0
C1353 C 0.06276 0.41544 0.79592 0.0
C1354 C 0.05557 0.4381 0.7979 0.0
C1355 C 0.03587 0.44484 0.82819 0.0
C1356 C 0.02243 0.42781 0.85482 0.0
C1357 C 0.02842 0.40432 0.84976 0.0
C1358 C 0.04894 0.39799 0.82042 0.0
H1359 H 0.0549 0.12881 0.17811 0.0
H1360 H 0.00022 0.07861 0.15548 0.0
H1361 H 0.02155 0.05087 0.21658 0.0
H1362 H 0.10206 0.08552 0.16863 0.0
H1363 H 0.1199 0.09972 0.22223 0.0
H1364 H 0.10077 0.11647 0.17721 0.0
H1365 H 0.08093 0.13387 0.26862 0.0
H1366 H 0.10137 0.11821 0.31243 0.0
H1367 H 0.07083 0.11486 0.3258 0.0
H1368 H 0.04527 0.03095 0.28953 0.0
H1369 H 0.07652 0.01379 0.348 0.0
H1370 H 0.11981 0.07312 0.31231 0.0
C1371 C 0.04782 0.11178 0.18519 0.0
C1372 C 0.02598 0.10569 0.16249 0.0
C1373 C 0.01701 0.0834 0.17244 0.0
C1374 C 0.02887 0.06764 0.20742 0.0
C1375 C 0.04998 0.07427 0.23084 0.0
C1376 C 0.05998 0.09532 0.21823 0.0
C1377 C 0.08357 0.0972 0.24705 0.0
C1378 C 0.10268 0.09986 0.20088 0.0
C1379 C 0.08417 0.1172 0.29122 0.0
C1380 C 0.085 0.074 0.27786 0.0
C1381 C 0.06497 0.06155 0.26934 0.0
C1382 C 0.06127 0.04024 0.29555 0.0
C1383 C 0.07903 0.03073 0.32897 0.0
C1384 C 0.10043 0.04216 0.33428 0.0
C1385 C 0.10349 0.06419 0.30897 0.0
H1386 H 0.42347 0.02934 0.68948 0.0
H1387 H 0.36418 0.07442 0.68661 0.0
H1388 H 0.38803 0.10618 0.72774 0.0
H1389 H 0.43894 0.04793 0.83125 0.0
H1390 H 0.46975 0.0456 0.82313 0.0
H1391 H 0.4509 0.0269 0.78204 0.0
H1392 H 0.46664 0.03995 0.68026 0.0
H1393 H 0.48794 0.05548 0.72222 0.0
H1394 H 0.47114 0.07032 0.6679 0.0
H1395 H 0.42105 0.13411 0.75497 0.0
H1396 H 0.45592 0.15258 0.79794 0.0
H1397 H 0.48906 0.08598 0.80874 0.0
C1398 C 0.41574 0.0461 0.69642 0.0
C1399 C 0.39254 0.05017 0.68164 0.0
C1400 C 0.38231 0.07157 0.69516 0.0
C1401 C 0.39568 0.08958 0.71848 0.0
C1402 C 0.41883 0.08528 0.73092 0.0
C1403 C 0.42846 0.06375 0.72261 0.0
C1404 C 0.45235 0.06232 0.74894 0.0
C1405 C 0.45304 0.04467 0.79939 0.0
C1406 C 0.47055 0.05666 0.70196 0.0
C1407 C 0.45502 0.08671 0.77126 0.0
C1408 C 0.43588 0.09996 0.75848 0.0
C1409 C 0.43575 0.12375 0.76751 0.0
C1410 C 0.45549 0.13409 0.79187 0.0
C1411 C 0.47436 0.1204 0.80943 0.0
C1412 C 0.47423 0.09654 0.79827 0.0
H1413 H 0.47184 0.37399 0.23465 0.0
H1414 H 0.45951 0.41711 0.08451 0.0
H1415 H 0.42156 0.42809 0.12368 0.0
H1416 H 0.41288 0.36401 0.29723 0.0
H1417 H 0.42331 0.37196 0.36905 0.0
H1418 H 0.44253 0.3588 0.31718 0.0
H1419 H 0.47003 0.394 0.33282 0.0
H1420 H 0.44969 0.40675 0.38262 0.0
H1421 H 0.45924 0.42261 0.31885 0.0
H1422 H 0.38497 0.434 0.18148 0.0
H1423 H 0.36429 0.45317 0.26187 0.0
H1424 H 0.41081 0.42195 0.38803 0.0
C1425 C 0.46051 0.38475 0.20862 0.0
C1426 C 0.46654 0.39142 0.15068 0.0
C1427 C 0.45299 0.40825 0.12252 0.0
C1428 C 0.43177 0.41516 0.14598 0.0
C1429 C 0.42557 0.4071 0.20154 0.0
C1430 C 0.44059 0.3939 0.23442 0.0
C1431 C 0.43456 0.39496 0.29934 0.0
C1432 C 0.42789 0.37098 0.32194 0.0
C1433 C 0.45456 0.40521 0.33549 0.0
C1434 C 0.41388 0.41099 0.29782 0.0
C1435 C 0.40806 0.41617 0.24036 0.0
C1436 C 0.38958 0.4304 0.22673 0.0
C1437 C 0.3779 0.44116 0.27291 0.0
C1438 C 0.38585 0.43914 0.33173 0.0
C1439 C 0.40354 0.42311 0.34445 0.0
loop_
_geom_bond_atom_site_label_1
_geom_bond_atom_site_label_2
_geom_bond_distance
_geom_bond_site_symmetry_2
_ccdc_geom_bond_type
Mn0 O5 2.095 . S
Mn0 O15 2.162 . S
Mn0 O16 2.297 . S
Mn0 O24 2.385 1_455 S
Mn0 O25 2.209 1_455 S
Mn0 O26 2.094 . S
Mn1 O6 2.121 1_655 S
Mn1 N8 2.257 . S
Mn1 N17 2.282 . S
Mn1 O25 2.215 . S
Mn1 O27 2.117 . S
C2 O24 1.234 . S
C2 O25 1.283 . S
C3 O15 1.281 . S
C3 O16 1.236 . S
C4 O26 1.240 . S
C4 O27 1.264 1_455 S
O5 Mn0 2.095 . S
O5 C14 1.250 . S
O6 Mn1 2.121 1_455 S
O6 C14 1.258 . S
C7 N8 1.326 1_556 S
C7 C11 1.460 . S
C7 H13 0.929 . S
N8 Mn1 2.257 . S
N8 C7 1.326 1_554 S
N8 C12 1.362 . S
C9 C10 1.258 1_554 S
C9 C12 1.431 . S
C9 C29 1.449 . S
C10 C9 1.258 1_556 S
C10 C11 1.477 . S
C10 H30 0.931 . S
C11 C7 1.460 . S
C11 C10 1.477 . S
C11 H31 0.930 . S
C12 N8 1.362 . S
C12 C9 1.431 . S
C12 C22 1.476 . S
H13 C7 0.929 . S
C14 O5 1.250 . S
C14 O6 1.258 . S
O15 Mn0 2.162 . S
O15 C3 1.281 . S
O16 Mn0 2.297 . S
O16 C3 1.236 . S
N17 Mn1 2.282 . S
N17 C18 1.328 . S
N17 C22 1.318 . S
C18 N17 1.328 . S
C18 C19 1.457 . S
C18 H23 0.929 . S
C19 C18 1.457 . S
C19 C20 1.291 . S
C19 H32 0.931 . S
C20 C19 1.291 . S
C20 C21 1.373 . S
C20 H33 0.929 . S
C21 C20 1.373 . S
C21 C22 1.396 . S
C21 C28 1.403 . S
C22 C12 1.476 . S
C22 N17 1.318 . S
C22 C21 1.396 . S
H23 C18 0.929 . S
O24 Mn0 2.385 1_655 S
O24 C2 1.234 . S
O25 Mn0 2.209 1_655 S
O25 Mn1 2.215 . S
O25 C2 1.283 . S
O26 Mn0 2.094 . S
O26 C4 1.240 . S
O27 Mn1 2.117 . S
O27 C4 1.264 1_655 S
C28 C21 1.403 . S
C28 C29 1.399 . S
C28 H34 0.929 . S
C29 C9 1.449 . S
C29 C28 1.399 . S
C29 H35 0.930 . S
H30 C10 0.931 . S
H31 C11 0.930 . S
H32 C19 0.931 . S
H33 C20 0.929 . S
H34 C28 0.929 . S
H35 C29 0.930 . S
Mn36 O41 2.095 . S
Mn36 O51 2.162 . S
Mn36 O52 2.297 . S
Mn36 O60 2.385 1_545 S
Mn36 O61 2.209 1_545 S
Mn36 O62 2.094 . S
Mn37 O42 2.121 1_565 S
Mn37 N44 2.257 . S
Mn37 N53 2.282 . S
Mn37 O61 2.215 . S
Mn37 O63 2.117 . S
C38 O60 1.234 . S
C38 O61 1.283 . S
C39 O51 1.281 . S
C39 O52 1.236 . S
C40 O62 1.240 . S
C40 O63 1.264 1_545 S
O41 Mn36 2.095 . S
O41 C50 1.250 . S
O42 Mn37 2.121 1_545 S
O42 C50 1.258 . S
C43 N44 1.326 . S
C43 C47 1.460 . S
C43 H49 0.929 . S
N44 Mn37 2.257 . S
N44 C43 1.326 . S
N44 C48 1.362 . S
C45 C46 1.258 . S
C45 C48 1.431 . S
C45 C65 1.449 . S
C46 C45 1.258 . S
C46 C47 1.477 . S
C46 H66 0.931 . S
C47 C43 1.460 . S
C47 C46 1.477 . S
C47 H67 0.930 . S
C48 N44 1.362 . S
C48 C45 1.431 . S
C48 C58 1.476 . S
H49 C43 0.929 . S
C50 O41 1.250 . S
C50 O42 1.258 . S
O51 Mn36 2.162 . S
O51 C39 1.281 . S
O52 Mn36 2.297 . S
O52 C39 1.236 . S
N53 Mn37 2.282 . S
N53 C54 1.328 . S
N53 C58 1.318 . S
C54 N53 1.328 . S
C54 C55 1.457 . S
C54 H59 0.929 . S
C55 C54 1.457 . S
C55 C56 1.291 . S
C55 H68 0.931 . S
C56 C55 1.291 . S
C56 C57 1.373 . S
C56 H69 0.929 . S
C57 C56 1.373 . S
C57 C58 1.396 . S
C57 C64 1.403 . S
C58 C48 1.476 . S
C58 N53 1.318 . S
C58 C57 1.396 . S
H59 C54 0.929 . S
O60 Mn36 2.385 1_565 S
O60 C38 1.234 . S
O61 Mn36 2.209 1_565 S
O61 Mn37 2.215 . S
O61 C38 1.283 . S
O62 Mn36 2.094 . S
O62 C40 1.240 . S
O63 Mn37 2.117 . S
O63 C40 1.264 1_565 S
C64 C57 1.403 . S
C64 C65 1.399 . S
C64 H70 0.929 . S
C65 C45 1.449 . S
C65 C64 1.399 . S
C65 H71 0.930 . S
H66 C46 0.931 . S
H67 C47 0.930 . S
H68 C55 0.931 . S
H69 C56 0.929 . S
H70 C64 0.929 . S
H71 C65 0.930 . S
Mn72 O77 2.095 . S
Mn72 O87 2.162 . S
Mn72 O88 2.297 . S
Mn72 O96 2.385 . S
Mn72 O97 2.209 . S
Mn72 O98 2.094 . S
Mn73 O78 2.121 . S
Mn73 N80 2.257 . S
Mn73 N89 2.282 . S
Mn73 O97 2.215 . S
Mn73 O99 2.117 . S
C74 O96 1.234 . S
C74 O97 1.283 . S
C75 O87 1.281 . S
C75 O88 1.236 . S
C76 O98 1.240 . S
C76 O99 1.264 . S
O77 Mn72 2.095 . S
O77 C86 1.250 . S
O78 Mn73 2.121 . S
O78 C86 1.258 . S
C79 N80 1.326 1_556 S
C79 C83 1.460 . S
C79 H85 0.929 . S
N80 Mn73 2.257 . S
N80 C79 1.326 1_554 S
N80 C84 1.362 . S
C81 C82 1.258 1_554 S
C81 C84 1.431 . S
C81 C101 1.449 . S
C82 C81 1.258 1_556 S
C82 C83 1.477 . S
C82 H102 0.931 . S
C83 C79 1.460 . S
C83 C82 1.477 . S
C83 H103 0.930 . S
C84 N80 1.362 . S
C84 C81 1.431 . S
C84 C94 1.476 . S
H85 C79 0.929 . S
C86 O77 1.250 . S
C86 O78 1.258 . S
O87 Mn72 2.162 . S
O87 C75 1.281 . S
O88 Mn72 2.297 . S
O88 C75 1.236 . S
N89 Mn73 2.282 . S
N89 C90 1.328 . S
N89 C94 1.318 . S
C90 N89 1.328 . S
C90 C91 1.457 . S
C90 H95 0.929 . S
C91 C90 1.457 . S
C91 C92 1.291 . S
C91 H104 0.931 . S
C92 C91 1.291 . S
C92 C93 1.373 . S
C92 H105 0.929 . S
C93 C92 1.373 . S
C93 C94 1.396 . S
C93 C100 1.403 . S
C94 C84 1.476 . S
C94 N89 1.318 . S
C94 C93 1.396 . S
H95 C90 0.929 . S
O96 Mn72 2.385 . S
O96 C74 1.234 . S
O97 Mn72 2.209 . S
O97 Mn73 2.215 . S
O97 C74 1.283 . S
O98 Mn72 2.094 . S
O98 C76 1.240 . S
O99 Mn73 2.117 . S
O99 C76 1.264 . S
C100 C93 1.403 . S
C100 C101 1.399 . S
C100 H106 0.929 . S
C101 C81 1.449 . S
C101 C100 1.399 . S
C101 H107 0.930 . S
H102 C82 0.931 . S
H103 C83 0.930 . S
H104 C91 0.931 . S
H105 C92 0.929 . S
H106 C100 0.929 . S
H107 C101 0.930 . S
Mn108 O113 2.095 . S
Mn108 O123 2.162 . S
Mn108 O124 2.297 . S
Mn108 O132 2.385 . S
Mn108 O133 2.209 . S
Mn108 O134 2.094 . S
Mn109 O114 2.121 . S
Mn109 N116 2.257 . S
Mn109 N125 2.282 . S
Mn109 O133 2.215 . S
Mn109 O135 2.117 . S
C110 O132 1.234 . S
C110 O133 1.283 . S
C111 O123 1.281 . S
C111 O124 1.236 . S
C112 O134 1.240 . S
C112 O135 1.264 . S
O113 Mn108 2.095 . S
O113 C122 1.250 . S
O114 Mn109 2.121 . S
O114 C122 1.258 . S
C115 N116 1.326 . S
C115 C119 1.460 . S
C115 H121 0.929 . S
N116 Mn109 2.257 . S
N116 C115 1.326 . S
N116 C120 1.362 . S
C117 C118 1.258 . S
C117 C120 1.431 . S
C117 C137 1.449 . S
C118 C117 1.258 . S
C118 C119 1.477 . S
C118 H138 0.931 . S
C119 C115 1.460 . S
C119 C118 1.477 . S
C119 H139 0.930 . S
C120 N116 1.362 . S
C120 C117 1.431 . S
C120 C130 1.476 . S
H121 C115 0.929 . S
C122 O113 1.250 . S
C122 O114 1.258 . S
O123 Mn108 2.162 . S
O123 C111 1.281 . S
O124 Mn108 2.297 . S
O124 C111 1.236 . S
N125 Mn109 2.282 . S
N125 C126 1.328 . S
N125 C130 1.318 . S
C126 N125 1.328 . S
C126 C127 1.457 . S
C126 H131 0.929 . S
C127 C126 1.457 . S
C127 C128 1.291 . S
C127 H140 0.931 . S
C128 C127 1.291 . S
C128 C129 1.373 . S
C128 H141 0.929 . S
C129 C128 1.373 . S
C129 C130 1.396 . S
C129 C136 1.403 . S
C130 C120 1.476 . S
C130 N125 1.318 . S
C130 C129 1.396 . S
H131 C126 0.929 . S
O132 Mn108 2.385 . S
O132 C110 1.234 . S
O133 Mn108 2.209 . S
O133 Mn109 2.215 . S
O133 C110 1.283 . S
O134 Mn108 2.094 . S
O134 C112 1.240 . S
O135 Mn109 2.117 . S
O135 C112 1.264 . S
C136 C129 1.403 . S
C136 C137 1.399 . S
C136 H142 0.929 . S
C137 C117 1.449 . S
C137 C136 1.399 . S
C137 H143 0.930 . S
H138 C118 0.931 . S
H139 C119 0.930 . S
H140 C127 0.931 . S
H141 C128 0.929 . S
H142 C136 0.929 . S
H143 C137 0.930 . S
Mn144 O149 2.095 . S
Mn144 O159 2.162 . S
Mn144 O160 2.297 . S
Mn144 O168 2.385 1_455 S
Mn144 O169 2.209 1_455 S
Mn144 O170 2.094 . S
Mn145 O150 2.121 1_655 S
Mn145 N152 2.257 . S
Mn145 N161 2.282 . S
Mn145 O169 2.215 . S
Mn145 O171 2.117 . S
C146 O168 1.234 . S
C146 O169 1.283 . S
C147 O159 1.281 . S
C147 O160 1.236 . S
C148 O170 1.240 . S
C148 O171 1.264 1_455 S
O149 Mn144 2.095 . S
O149 C158 1.250 . S
O150 Mn145 2.121 1_455 S
O150 C158 1.258 . S
C151 N152 1.326 1_554 S
C151 C155 1.460 . S
C151 H157 0.929 . S
N152 Mn145 2.257 . S
N152 C151 1.326 1_556 S
N152 C156 1.362 . S
C153 C154 1.258 1_556 S
C153 C156 1.431 . S
C153 C173 1.449 . S
C154 C153 1.258 1_554 S
C154 C155 1.477 . S
C154 H174 0.931 . S
C155 C151 1.460 . S
C155 C154 1.477 . S
C155 H175 0.930 . S
C156 N152 1.362 . S
C156 C153 1.431 . S
C156 C166 1.476 . S
H157 C151 0.929 . S
C158 O149 1.250 . S
C158 O150 1.258 . S
O159 Mn144 2.162 . S
O159 C147 1.281 . S
O160 Mn144 2.297 . S
O160 C147 1.236 . S
N161 Mn145 2.282 . S
N161 C162 1.328 . S
N161 C166 1.318 . S
C162 N161 1.328 . S
C162 C163 1.457 . S
C162 H167 0.929 . S
C163 C162 1.457 . S
C163 C164 1.291 . S
C163 H176 0.931 . S
C164 C163 1.291 . S
C164 C165 1.373 . S
C164 H177 0.929 . S
C165 C164 1.373 . S
C165 C166 1.396 . S
C165 C172 1.403 . S
C166 C156 1.476 . S
C166 N161 1.318 . S
C166 C165 1.396 . S
H167 C162 0.929 . S
O168 Mn144 2.385 1_655 S
O168 C146 1.234 . S
O169 Mn144 2.209 1_655 S
O169 Mn145 2.215 . S
O169 C146 1.283 . S
O170 Mn144 2.094 . S
O170 C148 1.240 . S
O171 Mn145 2.117 . S
O171 C148 1.264 1_655 S
C172 C165 1.403 . S
C172 C173 1.399 . S
C172 H178 0.929 . S
C173 C153 1.449 . S
C173 C172 1.399 . S
C173 H179 0.930 . S
H174 C154 0.931 . S
H175 C155 0.930 . S
H176 C163 0.931 . S
H177 C164 0.929 . S
H178 C172 0.929 . S
H179 C173 0.930 . S
Mn180 O185 2.095 . S
Mn180 O195 2.162 . S
Mn180 O196 2.297 . S
Mn180 O204 2.385 1_545 S
Mn180 O205 2.209 1_545 S
Mn180 O206 2.094 . S
Mn181 O186 2.121 1_565 S
Mn181 N188 2.257 . S
Mn181 N197 2.282 . S
Mn181 O205 2.215 . S
Mn181 O207 2.117 . S
C182 O204 1.234 . S
C182 O205 1.283 . S
C183 O195 1.281 . S
C183 O196 1.236 . S
C184 O206 1.240 . S
C184 O207 1.264 1_545 S
O185 Mn180 2.095 . S
O185 C194 1.250 . S
O186 Mn181 2.121 1_545 S
O186 C194 1.258 . S
C187 N188 1.326 . S
C187 C191 1.460 . S
C187 H193 0.929 . S
N188 Mn181 2.257 . S
N188 C187 1.326 . S
N188 C192 1.362 . S
C189 C190 1.258 . S
C189 C192 1.431 . S
C189 C209 1.449 . S
C190 C189 1.258 . S
C190 C191 1.477 . S
C190 H210 0.931 . S
C191 C187 1.460 . S
C191 C190 1.477 . S
C191 H211 0.930 . S
C192 N188 1.362 . S
C192 C189 1.431 . S
C192 C202 1.476 . S
H193 C187 0.929 . S
C194 O185 1.250 . S
C194 O186 1.258 . S
O195 Mn180 2.162 . S
O195 C183 1.281 . S
O196 Mn180 2.297 . S
O196 C183 1.236 . S
N197 Mn181 2.282 . S
N197 C198 1.328 . S
N197 C202 1.318 . S
C198 N197 1.328 . S
C198 C199 1.457 . S
C198 H203 0.929 . S
C199 C198 1.457 . S
C199 C200 1.291 . S
C199 H212 0.931 . S
C200 C199 1.291 . S
C200 C201 1.373 . S
C200 H213 0.929 . S
C201 C200 1.373 . S
C201 C202 1.396 . S
C201 C208 1.403 . S
C202 C192 1.476 . S
C202 N197 1.318 . S
C202 C201 1.396 . S
H203 C198 0.929 . S
O204 Mn180 2.385 1_565 S
O204 C182 1.234 . S
O205 Mn180 2.209 1_565 S
O205 Mn181 2.215 . S
O205 C182 1.283 . S
O206 Mn180 2.094 . S
O206 C184 1.240 . S
O207 Mn181 2.117 . S
O207 C184 1.264 1_565 S
C208 C201 1.403 . S
C208 C209 1.399 . S
C208 H214 0.929 . S
C209 C189 1.449 . S
C209 C208 1.399 . S
C209 H215 0.930 . S
H210 C190 0.931 . S
H211 C191 0.930 . S
H212 C199 0.931 . S
H213 C200 0.929 . S
H214 C208 0.929 . S
H215 C209 0.930 . S
Mn216 O221 2.095 . S
Mn216 O231 2.162 . S
Mn216 O232 2.297 . S
Mn216 O240 2.385 . S
Mn216 O241 2.209 . S
Mn216 O242 2.094 . S
Mn217 O222 2.121 . S
Mn217 N224 2.257 . S
Mn217 N233 2.282 . S
Mn217 O241 2.215 . S
Mn217 O243 2.117 . S
C218 O240 1.234 . S
C218 O241 1.283 . S
C219 O231 1.281 . S
C219 O232 1.236 . S
C220 O242 1.240 . S
C220 O243 1.264 . S
O221 Mn216 2.095 . S
O221 C230 1.250 . S
O222 Mn217 2.121 . S
O222 C230 1.258 . S
C223 N224 1.326 1_554 S
C223 C227 1.460 . S
C223 H229 0.929 . S
N224 Mn217 2.257 . S
N224 C223 1.326 1_556 S
N224 C228 1.362 . S
C225 C226 1.258 1_556 S
C225 C228 1.431 . S
C225 C245 1.449 . S
C226 C225 1.258 1_554 S
C226 C227 1.477 . S
C226 H246 0.931 . S
C227 C223 1.460 . S
C227 C226 1.477 . S
C227 H247 0.930 . S
C228 N224 1.362 . S
C228 C225 1.431 . S
C228 C238 1.476 . S
H229 C223 0.929 . S
C230 O221 1.250 . S
C230 O222 1.258 . S
O231 Mn216 2.162 . S
O231 C219 1.281 . S
O232 Mn216 2.297 . S
O232 C219 1.236 . S
N233 Mn217 2.282 . S
N233 C234 1.328 . S
N233 C238 1.318 . S
C234 N233 1.328 . S
C234 C235 1.457 . S
C234 H239 0.929 . S
C235 C234 1.457 . S
C235 C236 1.291 . S
C235 H248 0.931 . S
C236 C235 1.291 . S
C236 C237 1.373 . S
C236 H249 0.929 . S
C237 C236 1.373 . S
C237 C238 1.396 . S
C237 C244 1.403 . S
C238 C228 1.476 . S
C238 N233 1.318 . S
C238 C237 1.396 . S
H239 C234 0.929 . S
O240 Mn216 2.385 . S
O240 C218 1.234 . S
O241 Mn216 2.209 . S
O241 Mn217 2.215 . S
O241 C218 1.283 . S
O242 Mn216 2.094 . S
O242 C220 1.240 . S
O243 Mn217 2.117 . S
O243 C220 1.264 . S
C244 C237 1.403 . S
C244 C245 1.399 . S
C244 H250 0.929 . S
C245 C225 1.449 . S
C245 C244 1.399 . S
C245 H251 0.930 . S
H246 C226 0.931 . S
H247 C227 0.930 . S
H248 C235 0.931 . S
H249 C236 0.929 . S
H250 C244 0.929 . S
H251 C245 0.930 . S
Mn252 O257 2.095 . S
Mn252 O267 2.162 . S
Mn252 O268 2.297 . S
Mn252 O276 2.385 . S
Mn252 O277 2.209 . S
Mn252 O278 2.094 . S
Mn253 O258 2.121 . S
Mn253 N260 2.257 . S
Mn253 N269 2.282 . S
Mn253 O277 2.215 . S
Mn253 O279 2.117 . S
C254 O276 1.234 . S
C254 O277 1.283 . S
C255 O267 1.281 . S
C255 O268 1.236 . S
C256 O278 1.240 . S
C256 O279 1.264 . S
O257 Mn252 2.095 . S
O257 C266 1.250 . S
O258 Mn253 2.121 . S
O258 C266 1.258 . S
C259 N260 1.326 . S
C259 C263 1.460 . S
C259 H265 0.929 . S
N260 Mn253 2.257 . S
N260 C259 1.326 . S
N260 C264 1.362 . S
C261 C262 1.258 . S
C261 C264 1.431 . S
C261 C281 1.449 . S
C262 C261 1.258 . S
C262 C263 1.477 . S
C262 H282 0.931 . S
C263 C259 1.460 . S
C263 C262 1.477 . S
C263 H283 0.930 . S
C264 N260 1.362 . S
C264 C261 1.431 . S
C264 C274 1.476 . S
H265 C259 0.929 . S
C266 O257 1.250 . S
C266 O258 1.258 . S
O267 Mn252 2.162 . S
O267 C255 1.281 . S
O268 Mn252 2.297 . S
O268 C255 1.236 . S
N269 Mn253 2.282 . S
N269 C270 1.328 . S
N269 C274 1.318 . S
C270 N269 1.328 . S
C270 C271 1.457 . S
C270 H275 0.929 . S
C271 C270 1.457 . S
C271 C272 1.291 . S
C271 H284 0.931 . S
C272 C271 1.291 . S
C272 C273 1.373 . S
C272 H285 0.929 . S
C273 C272 1.373 . S
C273 C274 1.396 . S
C273 C280 1.403 . S
C274 C264 1.476 . S
C274 N269 1.318 . S
C274 C273 1.396 . S
H275 C270 0.929 . S
O276 Mn252 2.385 . S
O276 C254 1.234 . S
O277 Mn252 2.209 . S
O277 Mn253 2.215 . S
O277 C254 1.283 . S
O278 Mn252 2.094 . S
O278 C256 1.240 . S
O279 Mn253 2.117 . S
O279 C256 1.264 . S
C280 C273 1.403 . S
C280 C281 1.399 . S
C280 H286 0.929 . S
C281 C261 1.449 . S
C281 C280 1.399 . S
C281 H287 0.930 . S
H282 C262 0.931 . S
H283 C263 0.930 . S
H284 C271 0.931 . S
H285 C272 0.929 . S
H286 C280 0.929 . S
H287 C281 0.930 . S
Mn288 O293 2.095 . S
Mn288 O303 2.162 . S
Mn288 O304 2.297 . S
Mn288 O312 2.385 1_655 S
Mn288 O313 2.209 1_655 S
Mn288 O314 2.094 . S
Mn289 O294 2.121 1_455 S
Mn289 N296 2.257 . S
Mn289 N305 2.282 . S
Mn289 O313 2.215 . S
Mn289 O315 2.117 . S
C290 O312 1.234 . S
C290 O313 1.283 . S
C291 O303 1.281 . S
C291 O304 1.236 . S
C292 O314 1.240 . S
C292 O315 1.264 1_655 S
O293 Mn288 2.095 . S
O293 C302 1.250 . S
O294 Mn289 2.121 1_655 S
O294 C302 1.258 . S
C295 N296 1.326 1_554 S
C295 C299 1.460 . S
C295 H301 0.929 . S
N296 Mn289 2.257 . S
N296 C295 1.326 1_556 S
N296 C300 1.362 . S
C297 C298 1.258 1_556 S
C297 C300 1.431 . S
C297 C317 1.449 . S
C298 C297 1.258 1_554 S
C298 C299 1.477 . S
C298 H318 0.931 . S
C299 C295 1.460 . S
C299 C298 1.477 . S
C299 H319 0.930 . S
C300 N296 1.362 . S
C300 C297 1.431 . S
C300 C310 1.476 . S
H301 C295 0.929 . S
C302 O293 1.250 . S
C302 O294 1.258 . S
O303 Mn288 2.162 . S
O303 C291 1.281 . S
O304 Mn288 2.297 . S
O304 C291 1.236 . S
N305 Mn289 2.282 . S
N305 C306 1.328 . S
N305 C310 1.318 . S
C306 N305 1.328 . S
C306 C307 1.457 . S
C306 H311 0.929 . S
C307 C306 1.457 . S
C307 C308 1.291 . S
C307 H320 0.931 . S
C308 C307 1.291 . S
C308 C309 1.373 . S
C308 H321 0.929 . S
C309 C308 1.373 . S
C309 C310 1.396 . S
C309 C316 1.403 . S
C310 C300 1.476 . S
C310 N305 1.318 . S
C310 C309 1.396 . S
H311 C306 0.929 . S
O312 Mn288 2.385 1_455 S
O312 C290 1.234 . S
O313 Mn288 2.209 1_455 S
O313 Mn289 2.215 . S
O313 C290 1.283 . S
O314 Mn288 2.094 . S
O314 C292 1.240 . S
O315 Mn289 2.117 . S
O315 C292 1.264 1_455 S
C316 C309 1.403 . S
C316 C317 1.399 . S
C316 H322 0.929 . S
C317 C297 1.449 . S
C317 C316 1.399 . S
C317 H323 0.930 . S
H318 C298 0.931 . S
H319 C299 0.930 . S
H320 C307 0.931 . S
H321 C308 0.929 . S
H322 C316 0.929 . S
H323 C317 0.930 . S
Mn324 O329 2.095 . S
Mn324 O339 2.162 . S
Mn324 O340 2.297 . S
Mn324 O348 2.385 1_565 S
Mn324 O349 2.209 1_565 S
Mn324 O350 2.094 . S
Mn325 O330 2.121 1_545 S
Mn325 N332 2.257 . S
Mn325 N341 2.282 . S
Mn325 O349 2.215 . S
Mn325 O351 2.117 . S
C326 O348 1.234 . S
C326 O349 1.283 . S
C327 O339 1.281 . S
C327 O340 1.236 . S
C328 O350 1.240 . S
C328 O351 1.264 1_565 S
O329 Mn324 2.095 . S
O329 C338 1.250 . S
O330 Mn325 2.121 1_565 S
O330 C338 1.258 . S
C331 N332 1.326 . S
C331 C335 1.460 . S
C331 H337 0.929 . S
N332 Mn325 2.257 . S
N332 C331 1.326 . S
N332 C336 1.362 . S
C333 C334 1.258 . S
C333 C336 1.431 . S
C333 C353 1.449 . S
C334 C333 1.258 . S
C334 C335 1.477 . S
C334 H354 0.931 . S
C335 C331 1.460 . S
C335 C334 1.477 . S
C335 H355 0.930 . S
C336 N332 1.362 . S
C336 C333 1.431 . S
C336 C346 1.476 . S
H337 C331 0.929 . S
C338 O329 1.250 . S
C338 O330 1.258 . S
O339 Mn324 2.162 . S
O339 C327 1.281 . S
O340 Mn324 2.297 . S
O340 C327 1.236 . S
N341 Mn325 2.282 . S
N341 C342 1.328 . S
N341 C346 1.318 . S
C342 N341 1.328 . S
C342 C343 1.457 . S
C342 H347 0.929 . S
C343 C342 1.457 . S
C343 C344 1.291 . S
C343 H356 0.931 . S
C344 C343 1.291 . S
C344 C345 1.373 . S
C344 H357 0.929 . S
C345 C344 1.373 . S
C345 C346 1.396 . S
C345 C352 1.403 . S
C346 C336 1.476 . S
C346 N341 1.318 . S
C346 C345 1.396 . S
H347 C342 0.929 . S
O348 Mn324 2.385 1_545 S
O348 C326 1.234 . S
O349 Mn324 2.209 1_545 S
O349 Mn325 2.215 . S
O349 C326 1.283 . S
O350 Mn324 2.094 . S
O350 C328 1.240 . S
O351 Mn325 2.117 . S
O351 C328 1.264 1_545 S
C352 C345 1.403 . S
C352 C353 1.399 . S
C352 H358 0.929 . S
C353 C333 1.449 . S
C353 C352 1.399 . S
C353 H359 0.930 . S
H354 C334 0.931 . S
H355 C335 0.930 . S
H356 C343 0.931 . S
H357 C344 0.929 . S
H358 C352 0.929 . S
H359 C353 0.930 . S
Mn360 O365 2.095 . S
Mn360 O375 2.162 . S
Mn360 O376 2.297 . S
Mn360 O384 2.385 . S
Mn360 O385 2.209 . S
Mn360 O386 2.094 . S
Mn361 O366 2.121 . S
Mn361 N368 2.257 . S
Mn361 N377 2.282 . S
Mn361 O385 2.215 . S
Mn361 O387 2.117 . S
C362 O384 1.234 . S
C362 O385 1.283 . S
C363 O375 1.281 . S
C363 O376 1.236 . S
C364 O386 1.240 . S
C364 O387 1.264 . S
O365 Mn360 2.095 . S
O365 C374 1.250 . S
O366 Mn361 2.121 . S
O366 C374 1.258 . S
C367 N368 1.326 1_554 S
C367 C371 1.460 . S
C367 H373 0.929 . S
N368 Mn361 2.257 . S
N368 C367 1.326 1_556 S
N368 C372 1.362 . S
C369 C370 1.258 1_556 S
C369 C372 1.431 . S
C369 C389 1.449 . S
C370 C369 1.258 1_554 S
C370 C371 1.477 . S
C370 H390 0.931 . S
C371 C367 1.460 . S
C371 C370 1.477 . S
C371 H391 0.930 . S
C372 N368 1.362 . S
C372 C369 1.431 . S
C372 C382 1.476 . S
H373 C367 0.929 . S
C374 O365 1.250 . S
C374 O366 1.258 . S
O375 Mn360 2.162 . S
O375 C363 1.281 . S
O376 Mn360 2.297 . S
O376 C363 1.236 . S
N377 Mn361 2.282 . S
N377 C378 1.328 . S
N377 C382 1.318 . S
C378 N377 1.328 . S
C378 C379 1.457 . S
C378 H383 0.929 . S
C379 C378 1.457 . S
C379 C380 1.291 . S
C379 H392 0.931 . S
C380 C379 1.291 . S
C380 C381 1.373 . S
C380 H393 0.929 . S
C381 C380 1.373 . S
C381 C382 1.396 . S
C381 C388 1.403 . S
C382 C372 1.476 . S
C382 N377 1.318 . S
C382 C381 1.396 . S
H383 C378 0.929 . S
O384 Mn360 2.385 . S
O384 C362 1.234 . S
O385 Mn360 2.209 . S
O385 Mn361 2.215 . S
O385 C362 1.283 . S
O386 Mn360 2.094 . S
O386 C364 1.240 . S
O387 Mn361 2.117 . S
O387 C364 1.264 . S
C388 C381 1.403 . S
C388 C389 1.399 . S
C388 H394 0.929 . S
C389 C369 1.449 . S
C389 C388 1.399 . S
C389 H395 0.930 . S
H390 C370 0.931 . S
H391 C371 0.930 . S
H392 C379 0.931 . S
H393 C380 0.929 . S
H394 C388 0.929 . S
H395 C389 0.930 . S
Mn396 O401 2.095 . S
Mn396 O411 2.162 . S
Mn396 O412 2.297 . S
Mn396 O420 2.385 . S
Mn396 O421 2.209 . S
Mn396 O422 2.094 . S
Mn397 O402 2.121 . S
Mn397 N404 2.257 . S
Mn397 N413 2.282 . S
Mn397 O421 2.215 . S
Mn397 O423 2.117 . S
C398 O420 1.234 . S
C398 O421 1.283 . S
C399 O411 1.281 . S
C399 O412 1.236 . S
C400 O422 1.240 . S
C400 O423 1.264 . S
O401 Mn396 2.095 . S
O401 C410 1.250 . S
O402 Mn397 2.121 . S
O402 C410 1.258 . S
C403 N404 1.326 . S
C403 C407 1.460 . S
C403 H409 0.929 . S
N404 Mn397 2.257 . S
N404 C403 1.326 . S
N404 C408 1.362 . S
C405 C406 1.258 . S
C405 C408 1.431 . S
C405 C425 1.449 . S
C406 C405 1.258 . S
C406 C407 1.477 . S
C406 H426 0.931 . S
C407 C403 1.460 . S
C407 C406 1.477 . S
C407 H427 0.930 . S
C408 N404 1.362 . S
C408 C405 1.431 . S
C408 C418 1.476 . S
H409 C403 0.929 . S
C410 O401 1.250 . S
C410 O402 1.258 . S
O411 Mn396 2.162 . S
O411 C399 1.281 . S
O412 Mn396 2.297 . S
O412 C399 1.236 . S
N413 Mn397 2.282 . S
N413 C414 1.328 . S
N413 C418 1.318 . S
C414 N413 1.328 . S
C414 C415 1.457 . S
C414 H419 0.929 . S
C415 C414 1.457 . S
C415 C416 1.291 . S
C415 H428 0.931 . S
C416 C415 1.291 . S
C416 C417 1.373 . S
C416 H429 0.929 . S
C417 C416 1.373 . S
C417 C418 1.396 . S
C417 C424 1.403 . S
C418 C408 1.476 . S
C418 N413 1.318 . S
C418 C417 1.396 . S
H419 C414 0.929 . S
O420 Mn396 2.385 . S
O420 C398 1.234 . S
O421 Mn396 2.209 . S
O421 Mn397 2.215 . S
O421 C398 1.283 . S
O422 Mn396 2.094 . S
O422 C400 1.240 . S
O423 Mn397 2.117 . S
O423 C400 1.264 . S
C424 C417 1.403 . S
C424 C425 1.399 . S
C424 H430 0.929 . S
C425 C405 1.449 . S
C425 C424 1.399 . S
C425 H431 0.930 . S
H426 C406 0.931 . S
H427 C407 0.930 . S
H428 C415 0.931 . S
H429 C416 0.929 . S
H430 C424 0.929 . S
H431 C425 0.930 . S
Mn432 O437 2.095 . S
Mn432 O447 2.162 . S
Mn432 O448 2.297 . S
Mn432 O456 2.385 1_655 S
Mn432 O457 2.209 1_655 S
Mn432 O458 2.094 . S
Mn433 O438 2.121 1_455 S
Mn433 N440 2.257 . S
Mn433 N449 2.282 . S
Mn433 O457 2.215 . S
Mn433 O459 2.117 . S
C434 O456 1.234 . S
C434 O457 1.283 . S
C435 O447 1.281 . S
C435 O448 1.236 . S
C436 O458 1.240 . S
C436 O459 1.264 1_655 S
O437 Mn432 2.095 . S
O437 C446 1.250 . S
O438 Mn433 2.121 1_655 S
O438 C446 1.258 . S
C439 N440 1.326 1_556 S
C439 C443 1.460 . S
C439 H445 0.929 . S
N440 Mn433 2.257 . S
N440 C439 1.326 1_554 S
N440 C444 1.362 . S
C441 C442 1.258 1_554 S
C441 C444 1.431 . S
C441 C461 1.449 . S
C442 C441 1.258 1_556 S
C442 C443 1.477 . S
C442 H462 0.931 . S
C443 C439 1.460 . S
C443 C442 1.477 . S
C443 H463 0.930 . S
C444 N440 1.362 . S
C444 C441 1.431 . S
C444 C454 1.476 . S
H445 C439 0.929 . S
C446 O437 1.250 . S
C446 O438 1.258 . S
O447 Mn432 2.162 . S
O447 C435 1.281 . S
O448 Mn432 2.297 . S
O448 C435 1.236 . S
N449 Mn433 2.282 . S
N449 C450 1.328 . S
N449 C454 1.318 . S
C450 N449 1.328 . S
C450 C451 1.457 . S
C450 H455 0.929 . S
C451 C450 1.457 . S
C451 C452 1.291 . S
C451 H464 0.931 . S
C452 C451 1.291 . S
C452 C453 1.373 . S
C452 H465 0.929 . S
C453 C452 1.373 . S
C453 C454 1.396 . S
C453 C460 1.403 . S
C454 C444 1.476 . S
C454 N449 1.318 . S
C454 C453 1.396 . S
H455 C450 0.929 . S
O456 Mn432 2.385 1_455 S
O456 C434 1.234 . S
O457 Mn432 2.209 1_455 S
O457 Mn433 2.215 . S
O457 C434 1.283 . S
O458 Mn432 2.094 . S
O458 C436 1.240 . S
O459 Mn433 2.117 . S
O459 C436 1.264 1_455 S
C460 C453 1.403 . S
C460 C461 1.399 . S
C460 H466 0.929 . S
C461 C441 1.449 . S
C461 C460 1.399 . S
C461 H467 0.930 . S
H462 C442 0.931 . S
H463 C443 0.930 . S
H464 C451 0.931 . S
H465 C452 0.929 . S
H466 C460 0.929 . S
H467 C461 0.930 . S
Mn468 O473 2.095 . S
Mn468 O483 2.162 . S
Mn468 O484 2.297 . S
Mn468 O492 2.385 1_565 S
Mn468 O493 2.209 1_565 S
Mn468 O494 2.094 . S
Mn469 O474 2.121 1_545 S
Mn469 N476 2.257 . S
Mn469 N485 2.282 . S
Mn469 O493 2.215 . S
Mn469 O495 2.117 . S
C470 O492 1.234 . S
C470 O493 1.283 . S
C471 O483 1.281 . S
C471 O484 1.236 . S
C472 O494 1.240 . S
C472 O495 1.264 1_565 S
O473 Mn468 2.095 . S
O473 C482 1.250 . S
O474 Mn469 2.121 1_565 S
O474 C482 1.258 . S
C475 N476 1.326 . S
C475 C479 1.460 . S
C475 H481 0.929 . S
N476 Mn469 2.257 . S
N476 C475 1.326 . S
N476 C480 1.362 . S
C477 C478 1.258 . S
C477 C480 1.431 . S
C477 C497 1.449 . S
C478 C477 1.258 . S
C478 C479 1.477 . S
C478 H498 0.931 . S
C479 C475 1.460 . S
C479 C478 1.477 . S
C479 H499 0.930 . S
C480 N476 1.362 . S
C480 C477 1.431 . S
C480 C490 1.476 . S
H481 C475 0.929 . S
C482 O473 1.250 . S
C482 O474 1.258 . S
O483 Mn468 2.162 . S
O483 C471 1.281 . S
O484 Mn468 2.297 . S
O484 C471 1.236 . S
N485 Mn469 2.282 . S
N485 C486 1.328 . S
N485 C490 1.318 . S
C486 N485 1.328 . S
C486 C487 1.457 . S
C486 H491 0.929 . S
C487 C486 1.457 . S
C487 C488 1.291 . S
C487 H500 0.931 . S
C488 C487 1.291 . S
C488 C489 1.373 . S
C488 H501 0.929 . S
C489 C488 1.373 . S
C489 C490 1.396 . S
C489 C496 1.403 . S
C490 C480 1.476 . S
C490 N485 1.318 . S
C490 C489 1.396 . S
H491 C486 0.929 . S
O492 Mn468 2.385 1_545 S
O492 C470 1.234 . S
O493 Mn468 2.209 1_545 S
O493 Mn469 2.215 . S
O493 C470 1.283 . S
O494 Mn468 2.094 . S
O494 C472 1.240 . S
O495 Mn469 2.117 . S
O495 C472 1.264 1_545 S
C496 C489 1.403 . S
C496 C497 1.399 . S
C496 H502 0.929 . S
C497 C477 1.449 . S
C497 C496 1.399 . S
C497 H503 0.930 . S
H498 C478 0.931 . S
H499 C479 0.930 . S
H500 C487 0.931 . S
H501 C488 0.929 . S
H502 C496 0.929 . S
H503 C497 0.930 . S
Mn504 O509 2.095 . S
Mn504 O519 2.162 . S
Mn504 O520 2.297 . S
Mn504 O528 2.385 . S
Mn504 O529 2.209 . S
Mn504 O530 2.094 . S
Mn505 O510 2.121 . S
Mn505 N512 2.257 . S
Mn505 N521 2.282 . S
Mn505 O529 2.215 . S
Mn505 O531 2.117 . S
C506 O528 1.234 . S
C506 O529 1.283 . S
C507 O519 1.281 . S
C507 O520 1.236 . S
C508 O530 1.240 . S
C508 O531 1.264 . S
O509 Mn504 2.095 . S
O509 C518 1.250 . S
O510 Mn505 2.121 . S
O510 C518 1.258 . S
C511 N512 1.326 1_556 S
C511 C515 1.460 . S
C511 H517 0.929 . S
N512 Mn505 2.257 . S
N512 C511 1.326 1_554 S
N512 C516 1.362 . S
C513 C514 1.258 1_554 S
C513 C516 1.431 . S
C513 C533 1.449 . S
C514 C513 1.258 1_556 S
C514 C515 1.477 . S
C514 H534 0.931 . S
C515 C511 1.460 . S
C515 C514 1.477 . S
C515 H535 0.930 . S
C516 N512 1.362 . S
C516 C513 1.431 . S
C516 C526 1.476 . S
H517 C511 0.929 . S
C518 O509 1.250 . S
C518 O510 1.258 . S
O519 Mn504 2.162 . S
O519 C507 1.281 . S
O520 Mn504 2.297 . S
O520 C507 1.236 . S
N521 Mn505 2.282 . S
N521 C522 1.328 . S
N521 C526 1.318 . S
C522 N521 1.328 . S
C522 C523 1.457 . S
C522 H527 0.929 . S
C523 C522 1.457 . S
C523 C524 1.291 . S
C523 H536 0.931 . S
C524 C523 1.291 . S
C524 C525 1.373 . S
C524 H537 0.929 . S
C525 C524 1.373 . S
C525 C526 1.396 . S
C525 C532 1.403 . S
C526 C516 1.476 . S
C526 N521 1.318 . S
C526 C525 1.396 . S
H527 C522 0.929 . S
O528 Mn504 2.385 . S
O528 C506 1.234 . S
O529 Mn504 2.209 . S
O529 Mn505 2.215 . S
O529 C506 1.283 . S
O530 Mn504 2.094 . S
O530 C508 1.240 . S
O531 Mn505 2.117 . S
O531 C508 1.264 . S
C532 C525 1.403 . S
C532 C533 1.399 . S
C532 H538 0.929 . S
C533 C513 1.449 . S
C533 C532 1.399 . S
C533 H539 0.930 . S
H534 C514 0.931 . S
H535 C515 0.930 . S
H536 C523 0.931 . S
H537 C524 0.929 . S
H538 C532 0.929 . S
H539 C533 0.930 . S
Mn540 O545 2.095 . S
Mn540 O555 2.162 . S
Mn540 O556 2.297 . S
Mn540 O564 2.385 . S
Mn540 O565 2.209 . S
Mn540 O566 2.094 . S
Mn541 O546 2.121 . S
Mn541 N548 2.257 . S
Mn541 N557 2.282 . S
Mn541 O565 2.215 . S
Mn541 O567 2.117 . S
C542 O564 1.234 . S
C542 O565 1.283 . S
C543 O555 1.281 . S
C543 O556 1.236 . S
C544 O566 1.240 . S
C544 O567 1.264 . S
O545 Mn540 2.095 . S
O545 C554 1.250 . S
O546 Mn541 2.121 . S
O546 C554 1.258 . S
C547 N548 1.326 . S
C547 C551 1.460 . S
C547 H553 0.929 . S
N548 Mn541 2.257 . S
N548 C547 1.326 . S
N548 C552 1.362 . S
C549 C550 1.258 . S
C549 C552 1.431 . S
C549 C569 1.449 . S
C550 C549 1.258 . S
C550 C551 1.477 . S
C550 H570 0.931 . S
C551 C547 1.460 . S
C551 C550 1.477 . S
C551 H571 0.930 . S
C552 N548 1.362 . S
C552 C549 1.431 . S
C552 C562 1.476 . S
H553 C547 0.929 . S
C554 O545 1.250 . S
C554 O546 1.258 . S
O555 Mn540 2.162 . S
O555 C543 1.281 . S
O556 Mn540 2.297 . S
O556 C543 1.236 . S
N557 Mn541 2.282 . S
N557 C558 1.328 . S
N557 C562 1.318 . S
C558 N557 1.328 . S
C558 C559 1.457 . S
C558 H563 0.929 . S
C559 C558 1.457 . S
C559 C560 1.291 . S
C559 H572 0.931 . S
C560 C559 1.291 . S
C560 C561 1.373 . S
C560 H573 0.929 . S
C561 C560 1.373 . S
C561 C562 1.396 . S
C561 C568 1.403 . S
C562 C552 1.476 . S
C562 N557 1.318 . S
C562 C561 1.396 . S
H563 C558 0.929 . S
O564 Mn540 2.385 . S
O564 C542 1.234 . S
O565 Mn540 2.209 . S
O565 Mn541 2.215 . S
O565 C542 1.283 . S
O566 Mn540 2.094 . S
O566 C544 1.240 . S
O567 Mn541 2.117 . S
O567 C544 1.264 . S
C568 C561 1.403 . S
C568 C569 1.399 . S
C568 H574 0.929 . S
C569 C549 1.449 . S
C569 C568 1.399 . S
C569 H575 0.930 . S
H570 C550 0.931 . S
H571 C551 0.930 . S
H572 C559 0.931 . S
H573 C560 0.929 . S
H574 C568 0.929 . S
H575 C569 0.930 . S
H576 C588 0.930 . S
H577 C590 0.930 . S
H578 C591 0.930 . S
H579 C595 0.959 . S
H580 C595 0.959 . S
H581 C595 0.961 . S
H582 C596 0.960 . S
H583 C596 0.961 . S
H584 C596 0.959 . S
H585 C599 0.929 . S
H586 C600 0.931 . S
H587 C602 0.930 . S
C588 H576 0.930 . S
C588 C589 1.399 1_655 S
C588 C593 1.399 . S
C589 C588 1.399 1_455 S
C589 C590 1.376 . S
C590 H577 0.930 . S
C590 C589 1.376 . S
C590 C591 1.388 . S
C591 H578 0.930 . S
C591 C590 1.388 . S
C591 C592 1.390 . S
C592 C591 1.390 . S
C592 C593 1.394 1_455 S
C592 C598 1.465 1_554 S
C593 C588 1.399 . S
C593 C592 1.394 1_655 S
C593 C594 1.516 1_554 S
C594 C593 1.516 1_556 S
C594 C595 1.502 . S
C594 C596 1.561 1_556 S
C594 C597 1.526 . S
C595 H579 0.959 . S
C595 H580 0.959 . S
C595 H581 0.961 . S
C595 C594 1.502 . S
C596 H582 0.960 . S
C596 H583 0.961 . S
C596 H584 0.959 . S
C596 C594 1.561 1_554 S
C597 C594 1.526 . S
C597 C598 1.396 1_655 S
C597 C602 1.390 . S
C598 C592 1.465 1_556 S
C598 C597 1.396 1_455 S
C598 C599 1.399 . S
C599 H585 0.929 . S
C599 C598 1.399 . S
C599 C600 1.385 . S
C600 H586 0.931 . S
C600 C599 1.385 . S
C600 C601 1.389 . S
C601 C600 1.389 . S
C601 C602 1.387 1_455 S
C602 H587 0.930 . S
C602 C597 1.390 . S
C602 C601 1.387 1_655 S
H603 C615 0.930 . S
H604 C617 0.930 . S
H605 C618 0.930 . S
H606 C622 0.959 . S
H607 C622 0.959 . S
H608 C622 0.961 . S
H609 C623 0.960 . S
H610 C623 0.961 . S
H611 C623 0.959 . S
H612 C626 0.929 . S
H613 C627 0.931 . S
H614 C629 0.930 . S
C615 H603 0.930 . S
C615 C616 1.399 1_565 S
C615 C620 1.399 . S
C616 C615 1.399 1_545 S
C616 C617 1.376 . S
C617 H604 0.930 . S
C617 C616 1.376 . S
C617 C618 1.388 . S
C618 H605 0.930 . S
C618 C617 1.388 . S
C618 C619 1.390 . S
C619 C618 1.390 . S
C619 C620 1.394 1_545 S
C619 C625 1.465 . S
C620 C615 1.399 . S
C620 C619 1.394 1_565 S
C620 C621 1.516 . S
C621 C620 1.516 . S
C621 C622 1.502 . S
C621 C623 1.561 . S
C621 C624 1.526 . S
C622 H606 0.959 . S
C622 H607 0.959 . S
C622 H608 0.961 . S
C622 C621 1.502 . S
C623 H609 0.960 . S
C623 H610 0.961 . S
C623 H611 0.959 . S
C623 C621 1.561 . S
C624 C621 1.526 . S
C624 C625 1.396 1_565 S
C624 C629 1.390 . S
C625 C619 1.465 . S
C625 C624 1.396 1_545 S
C625 C626 1.399 . S
C626 H612 0.929 . S
C626 C625 1.399 . S
C626 C627 1.385 . S
C627 H613 0.931 . S
C627 C626 1.385 . S
C627 C628 1.389 . S
C628 C627 1.389 . S
C628 C629 1.387 1_545 S
C629 H614 0.930 . S
C629 C624 1.390 . S
C629 C628 1.387 1_565 S
H630 C642 0.927 1_556 S
H631 C644 0.930 . S
H632 C645 0.930 . S
H633 C649 0.959 . S
H634 C649 0.959 . S
H635 C649 0.961 . S
H636 C650 0.960 . S
H637 C650 0.961 . S
H638 C650 0.959 . S
H639 C653 0.929 . S
H640 C654 0.931 . S
H641 C656 0.930 . S
C642 H630 0.927 1_554 S
C642 C643 1.399 . S
C642 C647 1.399 . S
C643 C642 1.399 . S
C643 C644 1.376 . S
C644 H631 0.930 . S
C644 C643 1.376 . S
C644 C645 1.388 . S
C645 H632 0.930 . S
C645 C644 1.388 . S
C645 C646 1.390 . S
C646 C645 1.390 . S
C646 C647 1.394 . S
C646 C652 1.465 . S
C647 C642 1.399 . S
C647 C646 1.394 . S
C647 C648 1.516 1_554 S
C648 C647 1.516 1_556 S
C648 C649 1.502 . S
C648 C650 1.561 . S
C648 C651 1.526 . S
C649 H633 0.959 . S
C649 H634 0.959 . S
C649 H635 0.961 . S
C649 C648 1.502 . S
C650 H636 0.960 . S
C650 H637 0.961 . S
C650 H638 0.959 . S
C650 C648 1.561 . S
C651 C648 1.526 . S
C651 C652 1.396 1_556 S
C651 C656 1.390 . S
C652 C646 1.465 . S
C652 C651 1.396 1_554 S
C652 C653 1.399 . S
C653 H639 0.929 . S
C653 C652 1.399 . S
C653 C654 1.385 1_554 S
C654 H640 0.931 . S
C654 C653 1.385 1_556 S
C654 C655 1.389 . S
C655 C654 1.389 . S
C655 C656 1.387 . S
C656 H641 0.930 . S
C656 C651 1.390 . S
C656 C655 1.387 . S
H657 C669 0.930 . S
H658 C671 0.930 . S
H659 C672 0.930 . S
H660 C676 0.959 . S
H661 C676 0.959 . S
H662 C676 0.961 . S
H663 C677 0.960 . S
H664 C677 0.961 . S
H665 C677 0.959 . S
H666 C680 0.929 . S
H667 C681 0.931 . S
H668 C683 0.930 . S
C669 H657 0.930 . S
C669 C670 1.399 . S
C669 C674 1.399 . S
C670 C669 1.399 . S
C670 C671 1.376 . S
C671 H658 0.930 . S
C671 C670 1.376 . S
C671 C672 1.388 . S
C672 H659 0.930 . S
C672 C671 1.388 . S
C672 C673 1.390 . S
C673 C672 1.390 . S
C673 C674 1.394 . S
C673 C679 1.465 . S
C674 C669 1.399 . S
C674 C673 1.394 . S
C674 C675 1.516 . S
C675 C674 1.516 . S
C675 C676 1.502 . S
C675 C677 1.561 . S
C675 C678 1.526 . S
C676 H660 0.959 . S
C676 H661 0.959 . S
C676 H662 0.961 . S
C676 C675 1.502 . S
C677 H663 0.960 . S
C677 H664 0.961 . S
C677 H665 0.959 . S
C677 C675 1.561 . S
C678 C675 1.526 . S
C678 C679 1.396 . S
C678 C683 1.390 . S
C679 C673 1.465 . S
C679 C678 1.396 . S
C679 C680 1.399 . S
C680 H666 0.929 . S
C680 C679 1.399 . S
C680 C681 1.385 . S
C681 H667 0.931 . S
C681 C680 1.385 . S
C681 C682 1.389 . S
C682 C681 1.389 . S
C682 C683 1.387 . S
C683 H668 0.930 . S
C683 C678 1.390 . S
C683 C682 1.387 . S
H684 C696 0.930 . S
H685 C698 0.930 . S
H686 C699 0.930 . S
H687 C703 0.959 . S
H688 C703 0.959 . S
H689 C703 0.961 . S
H690 C704 0.960 . S
H691 C704 0.961 . S
H692 C704 0.959 . S
H693 C707 0.929 . S
H694 C708 0.931 . S
H695 C710 0.930 . S
C696 H684 0.930 . S
C696 C697 1.399 1_455 S
C696 C701 1.399 . S
C697 C696 1.399 1_655 S
C697 C698 1.376 . S
C698 H685 0.930 . S
C698 C697 1.376 . S
C698 C699 1.388 . S
C699 H686 0.930 . S
C699 C698 1.388 . S
C699 C700 1.390 . S
C700 C699 1.390 . S
C700 C701 1.394 1_655 S
C700 C706 1.465 . S
C701 C696 1.399 . S
C701 C700 1.394 1_455 S
C701 C702 1.516 1_556 S
C702 C701 1.516 1_554 S
C702 C703 1.502 . S
C702 C704 1.561 1_455 S
C702 C705 1.526 . S
C703 H687 0.959 . S
C703 H688 0.959 . S
C703 H689 0.961 . S
C703 C702 1.502 . S
C704 H690 0.960 . S
C704 H691 0.961 . S
C704 H692 0.959 . S
C704 C702 1.561 1_655 S
C705 C702 1.526 . S
C705 C706 1.396 1_454 S
C705 C710 1.390 . S
C706 C700 1.465 . S
C706 C705 1.396 1_656 S
C706 C707 1.399 . S
C707 H693 0.929 . S
C707 C706 1.399 . S
C707 C708 1.385 1_556 S
C708 H694 0.931 . S
C708 C707 1.385 1_554 S
C708 C709 1.389 . S
C709 C708 1.389 . S
C709 C710 1.387 1_655 S
C710 H695 0.930 . S
C710 C705 1.390 . S
C710 C709 1.387 1_455 S
H711 C723 0.930 . S
H712 C725 0.930 . S
H713 C726 0.930 . S
H714 C730 0.959 . S
H715 C730 0.959 . S
H716 C730 0.961 . S
H717 C731 0.960 . S
H718 C731 0.961 . S
H719 C731 0.959 . S
H720 C734 0.929 . S
H721 C735 0.931 . S
H722 C737 0.930 . S
C723 H711 0.930 . S
C723 C724 1.416 . S
C723 C728 1.399 . S
C724 C723 1.416 . S
C724 C725 1.356 1_565 S
C725 H712 0.930 . S
C725 C724 1.356 1_545 S
C725 C726 1.388 . S
C726 H713 0.930 . S
C726 C725 1.388 . S
C726 C727 1.390 . S
C727 C726 1.390 . S
C727 C728 1.394 1_545 S
C727 C733 1.465 . S
C728 C723 1.399 . S
C728 C727 1.394 1_565 S
C728 C729 1.516 . S
C729 C728 1.516 . S
C729 C730 1.502 . S
C729 C731 1.561 . S
C729 C732 1.526 . S
C730 H714 0.959 . S
C730 H715 0.959 . S
C730 H716 0.961 . S
C730 C729 1.502 . S
C731 H717 0.960 . S
C731 H718 0.961 . S
C731 H719 0.959 . S
C731 C729 1.561 . S
C732 C729 1.526 . S
C732 C733 1.396 1_565 S
C732 C737 1.390 . S
C733 C727 1.465 . S
C733 C732 1.396 1_545 S
C733 C734 1.399 . S
C734 H720 0.929 . S
C734 C733 1.399 . S
C734 C735 1.385 . S
C735 H721 0.931 . S
C735 C734 1.385 . S
C735 C736 1.388 1_545 S
C736 C735 1.388 1_565 S
C736 C737 1.388 . S
C737 H722 0.930 . S
C737 C732 1.390 . S
C737 C736 1.388 . S
H738 C750 0.930 . S
H739 C752 0.930 . S
H740 C753 0.930 . S
H741 C757 0.959 . S
H742 C757 0.959 . S
H743 C757 0.961 . S
H744 C758 0.960 . S
H745 C758 0.961 . S
H746 C758 0.959 . S
H747 C761 0.929 . S
H748 C762 0.931 . S
H749 C764 0.930 . S
C750 H738 0.930 . S
C750 C751 1.399 . S
C750 C755 1.399 . S
C751 C750 1.399 . S
C751 C752 1.376 . S
C752 H739 0.930 . S
C752 C751 1.376 . S
C752 C753 1.388 . S
C753 H740 0.930 . S
C753 C752 1.388 . S
C753 C754 1.390 . S
C754 C753 1.390 . S
C754 C755 1.394 . S
C754 C760 1.474 . S
C755 C750 1.399 . S
C755 C754 1.394 . S
C755 C756 1.516 1_556 S
C756 C755 1.516 1_554 S
C756 C757 1.502 . S
C756 C758 1.561 . S
C756 C759 1.526 . S
C757 H741 0.959 . S
C757 H742 0.959 . S
C757 H743 0.961 . S
C757 C756 1.502 . S
C758 H744 0.960 . S
C758 H745 0.961 . S
C758 H746 0.959 . S
C758 C756 1.561 . S
C759 C756 1.526 . S
C759 C760 1.382 1_554 S
C759 C764 1.390 . S
C760 C754 1.474 . S
C760 C759 1.382 1_556 S
C760 C761 1.402 . S
C761 H747 0.929 . S
C761 C760 1.402 . S
C761 C762 1.385 1_556 S
C762 H748 0.931 . S
C762 C761 1.385 1_554 S
C762 C763 1.389 . S
C763 C762 1.389 . S
C763 C764 1.387 . S
C764 H749 0.930 . S
C764 C759 1.390 . S
C764 C763 1.387 . S
H765 C777 0.930 . S
H766 C779 0.930 . S
H767 C780 0.930 . S
H768 C784 0.959 . S
H769 C784 0.959 . S
H770 C784 0.961 . S
H771 C785 0.960 . S
H772 C785 0.961 . S
H773 C785 0.959 . S
H774 C788 0.929 . S
H775 C789 0.931 . S
H776 C791 0.930 . S
C777 H765 0.930 . S
C777 C778 1.399 . S
C777 C782 1.399 . S
C778 C777 1.399 . S
C778 C779 1.376 . S
C779 H766 0.930 . S
C779 C778 1.376 . S
C779 C780 1.388 . S
C780 H767 0.930 . S
C780 C779 1.388 . S
C780 C781 1.390 . S
C781 C780 1.390 . S
C781 C782 1.394 . S
C781 C787 1.465 . S
C782 C777 1.399 . S
C782 C781 1.394 . S
C782 C783 1.516 . S
C783 C782 1.516 . S
C783 C784 1.502 . S
C783 C785 1.561 . S
C783 C786 1.526 . S
C784 H768 0.959 . S
C784 H769 0.959 . S
C784 H770 0.961 . S
C784 C783 1.502 . S
C785 H771 0.960 . S
C785 H772 0.961 . S
C785 H773 0.959 . S
C785 C783 1.561 . S
C786 C783 1.526 . S
C786 C787 1.396 . S
C786 C791 1.390 . S
C787 C781 1.465 . S
C787 C786 1.396 . S
C787 C788 1.399 . S
C788 H774 0.929 . S
C788 C787 1.399 . S
C788 C789 1.385 . S
C789 H775 0.931 . S
C789 C788 1.385 . S
C789 C790 1.389 . S
C790 C789 1.389 . S
C790 C791 1.387 . S
C791 H776 0.930 . S
C791 C786 1.390 . S
C791 C790 1.387 . S
H792 C804 0.930 . S
H793 C806 0.930 . S
H794 C807 0.930 1_554 S
H795 C811 0.959 . S
H796 C811 0.959 . S
H797 C811 0.961 . S
H798 C812 0.960 . S
H799 C812 0.961 . S
H800 C812 0.959 . S
H801 C815 0.929 . S
H802 C816 0.931 . S
H803 C818 0.930 . S
C804 H792 0.930 . S
C804 C805 1.399 1_556 S
C804 C809 1.399 . S
C805 C804 1.399 1_554 S
C805 C806 1.376 . S
C806 H793 0.930 . S
C806 C805 1.376 . S
C806 C807 1.388 1_554 S
C807 H794 0.930 1_556 S
C807 C806 1.388 1_556 S
C807 C808 1.390 . S
C808 C807 1.390 . S
C808 C809 1.394 . S
C808 C814 1.465 . S
C809 C804 1.399 . S
C809 C808 1.394 . S
C809 C810 1.516 . S
C810 C809 1.516 . S
C810 C811 1.502 . S
C810 C812 1.561 . S
C810 C813 1.526 . S
C811 H795 0.959 . S
C811 H796 0.959 . S
C811 H797 0.961 . S
C811 C810 1.502 . S
C812 H798 0.960 . S
C812 H799 0.961 . S
C812 H800 0.959 . S
C812 C810 1.561 . S
C813 C810 1.526 . S
C813 C814 1.396 . S
C813 C818 1.390 . S
C814 C808 1.465 . S
C814 C813 1.396 . S
C814 C815 1.399 . S
C815 H801 0.929 . S
C815 C814 1.399 . S
C815 C816 1.385 . S
C816 H802 0.931 . S
C816 C815 1.385 . S
C816 C817 1.389 . S
C817 C816 1.389 . S
C817 C818 1.387 . S
C818 H803 0.930 . S
C818 C813 1.390 . S
C818 C817 1.387 . S
H819 C831 0.930 . S
H820 C833 0.930 . S
H821 C834 0.930 . S
H822 C838 0.959 . S
H823 C838 0.959 . S
H824 C838 0.961 . S
H825 C839 0.960 . S
H826 C839 0.961 . S
H827 C839 0.959 . S
H828 C842 0.929 . S
H829 C843 0.931 . S
H830 C845 0.930 . S
C831 H819 0.930 . S
C831 C832 1.399 . S
C831 C836 1.399 . S
C832 C831 1.399 . S
C832 C833 1.376 . S
C833 H820 0.930 . S
C833 C832 1.376 . S
C833 C834 1.388 . S
C834 H821 0.930 . S
C834 C833 1.388 . S
C834 C835 1.390 . S
C835 C834 1.390 . S
C835 C836 1.394 . S
C835 C841 1.465 . S
C836 C831 1.399 . S
C836 C835 1.394 . S
C836 C837 1.516 . S
C837 C836 1.516 . S
C837 C838 1.502 . S
C837 C839 1.561 . S
C837 C840 1.526 . S
C838 H822 0.959 . S
C838 H823 0.959 . S
C838 H824 0.961 . S
C838 C837 1.502 . S
C839 H825 0.960 . S
C839 H826 0.961 . S
C839 H827 0.959 . S
C839 C837 1.561 . S
C840 C837 1.526 . S
C840 C841 1.396 . S
C840 C845 1.390 . S
C841 C835 1.465 . S
C841 C840 1.396 . S
C841 C842 1.399 . S
C842 H828 0.929 . S
C842 C841 1.399 . S
C842 C843 1.385 . S
C843 H829 0.931 . S
C843 C842 1.385 . S
C843 C844 1.389 . S
C844 C843 1.389 . S
C844 C845 1.387 . S
C845 H830 0.930 . S
C845 C840 1.390 . S
C845 C844 1.387 . S
H846 C858 0.930 . S
H847 C860 0.930 . S
H848 C861 0.930 . S
H849 C865 0.959 . S
H850 C865 0.959 . S
H851 C865 0.961 . S
H852 C866 0.960 . S
H853 C866 0.961 . S
H854 C866 0.959 . S
H855 C869 0.929 . S
H856 C870 0.931 . S
H857 C872 0.930 . S
C858 H846 0.930 . S
C858 C859 1.399 1_556 S
C858 C863 1.399 . S
C859 C858 1.399 1_554 S
C859 C860 1.376 . S
C860 H847 0.930 . S
C860 C859 1.376 . S
C860 C861 1.388 1_554 S
C861 H848 0.930 . S
C861 C860 1.388 1_556 S
C861 C862 1.390 . S
C862 C861 1.390 . S
C862 C863 1.394 . S
C862 C868 1.465 . S
C863 C858 1.399 . S
C863 C862 1.394 . S
C863 C864 1.516 . S
C864 C863 1.516 . S
C864 C865 1.502 . S
C864 C866 1.561 . S
C864 C867 1.526 . S
C865 H849 0.959 . S
C865 H850 0.959 . S
C865 H851 0.961 . S
C865 C864 1.502 . S
C866 H852 0.960 . S
C866 H853 0.961 . S
C866 H854 0.959 . S
C866 C864 1.561 . S
C867 C864 1.526 . S
C867 C868 1.396 . S
C867 C872 1.390 . S
C868 C862 1.465 . S
C868 C867 1.396 . S
C868 C869 1.399 . S
C869 H855 0.929 . S
C869 C868 1.399 . S
C869 C870 1.385 . S
C870 H856 0.931 . S
C870 C869 1.385 . S
C870 C871 1.389 . S
C871 C870 1.389 . S
C871 C872 1.387 . S
C872 H857 0.930 . S
C872 C867 1.390 . S
C872 C871 1.387 . S
H873 C885 0.930 . S
H874 C887 0.930 . S
H875 C888 0.930 . S
H876 C892 0.959 . S
H877 C892 0.959 . S
H878 C892 0.961 . S
H879 C893 0.960 . S
H880 C893 0.961 . S
H881 C893 0.959 . S
H882 C896 0.929 . S
H883 C897 0.931 . S
H884 C899 0.930 . S
C885 H873 0.930 . S
C885 C886 1.399 . S
C885 C890 1.399 . S
C886 C885 1.399 . S
C886 C887 1.376 . S
C887 H874 0.930 . S
C887 C886 1.376 . S
C887 C888 1.388 . S
C888 H875 0.930 . S
C888 C887 1.388 . S
C888 C889 1.390 . S
C889 C888 1.390 . S
C889 C890 1.394 . S
C889 C895 1.465 . S
C890 C885 1.399 . S
C890 C889 1.394 . S
C890 C891 1.516 . S
C891 C890 1.516 . S
C891 C892 1.502 . S
C891 C893 1.561 . S
C891 C894 1.526 . S
C892 H876 0.959 . S
C892 H877 0.959 . S
C892 H878 0.961 . S
C892 C891 1.502 . S
C893 H879 0.960 . S
C893 H880 0.961 . S
C893 H881 0.959 . S
C893 C891 1.561 . S
C894 C891 1.526 . S
C894 C895 1.396 . S
C894 C899 1.390 . S
C895 C889 1.465 . S
C895 C894 1.396 . S
C895 C896 1.399 . S
C896 H882 0.929 . S
C896 C895 1.399 . S
C896 C897 1.385 . S
C897 H883 0.931 . S
C897 C896 1.385 . S
C897 C898 1.389 . S
C898 C897 1.389 . S
C898 C899 1.387 . S
C899 H884 0.930 . S
C899 C894 1.390 . S
C899 C898 1.387 . S
H900 C912 0.930 . S
H901 C914 0.930 . S
H902 C915 0.930 . S
H903 C919 0.959 . S
H904 C919 0.959 . S
H905 C919 0.961 . S
H906 C920 0.960 . S
H907 C920 0.961 . S
H908 C920 0.959 . S
H909 C923 0.929 . S
H910 C924 0.931 . S
H911 C926 0.930 . S
C912 H900 0.930 . S
C912 C913 1.399 . S
C912 C917 1.399 . S
C913 C912 1.399 . S
C913 C914 1.376 . S
C914 H901 0.930 . S
C914 C913 1.376 . S
C914 C915 1.388 . S
C915 H902 0.930 . S
C915 C914 1.388 . S
C915 C916 1.390 . S
C916 C915 1.390 . S
C916 C917 1.394 . S
C916 C922 1.465 . S
C917 C912 1.399 . S
C917 C916 1.394 . S
C917 C918 1.516 . S
C918 C917 1.516 . S
C918 C919 1.502 . S
C918 C920 1.561 . S
C918 C921 1.526 . S
C919 H903 0.959 . S
C919 H904 0.959 . S
C919 H905 0.961 . S
C919 C918 1.502 . S
C920 H906 0.960 . S
C920 H907 0.961 . S
C920 H908 0.959 . S
C920 C918 1.561 . S
C921 C918 1.526 . S
C921 C922 1.396 . S
C921 C926 1.390 . S
C922 C916 1.465 . S
C922 C921 1.396 . S
C922 C923 1.399 . S
C923 H909 0.929 . S
C923 C922 1.399 . S
C923 C924 1.385 1_554 S
C924 H910 0.931 . S
C924 C923 1.385 1_556 S
C924 C925 1.389 . S
C925 C924 1.389 . S
C925 C926 1.387 1_556 S
C926 H911 0.930 . S
C926 C921 1.390 . S
C926 C925 1.387 1_554 S
H927 C939 0.930 . S
H928 C941 0.930 . S
H929 C942 0.930 . S
H930 C946 0.959 . S
H931 C946 0.959 . S
H932 C946 0.961 . S
H933 C947 0.960 . S
H934 C947 0.961 . S
H935 C947 0.959 . S
H936 C950 0.929 . S
H937 C951 0.931 . S
H938 C953 0.930 . S
C939 H927 0.930 . S
C939 C940 1.399 . S
C939 C944 1.399 . S
C940 C939 1.399 . S
C940 C941 1.376 . S
C941 H928 0.930 . S
C941 C940 1.376 . S
C941 C942 1.388 . S
C942 H929 0.930 . S
C942 C941 1.388 . S
C942 C943 1.390 . S
C943 C942 1.390 . S
C943 C944 1.394 . S
C943 C949 1.465 . S
C944 C939 1.399 . S
C944 C943 1.394 . S
C944 C945 1.516 . S
C945 C944 1.516 . S
C945 C946 1.502 . S
C945 C947 1.561 . S
C945 C948 1.526 . S
C946 H930 0.959 . S
C946 H931 0.959 . S
C946 H932 0.961 . S
C946 C945 1.502 . S
C947 H933 0.960 . S
C947 H934 0.961 . S
C947 H935 0.959 . S
C947 C945 1.561 . S
C948 C945 1.526 . S
C948 C949 1.396 . S
C948 C953 1.390 . S
C949 C943 1.465 . S
C949 C948 1.396 . S
C949 C950 1.399 . S
C950 H936 0.929 . S
C950 C949 1.399 . S
C950 C951 1.385 . S
C951 H937 0.931 . S
C951 C950 1.385 . S
C951 C952 1.389 . S
C952 C951 1.389 . S
C952 C953 1.387 . S
C953 H938 0.930 . S
C953 C948 1.390 . S
C953 C952 1.387 . S
H954 C966 0.930 . S
H955 C968 0.930 . S
H956 C969 0.930 . S
H957 C973 0.959 . S
H958 C973 0.959 . S
H959 C973 0.961 . S
H960 C974 0.960 . S
H961 C974 0.961 . S
H962 C974 0.959 . S
H963 C977 0.929 . S
H964 C978 0.931 . S
H965 C980 0.930 . S
C966 H954 0.930 . S
C966 C967 1.399 . S
C966 C971 1.399 . S
C967 C966 1.399 . S
C967 C968 1.376 . S
C968 H955 0.930 . S
C968 C967 1.376 . S
C968 C969 1.388 . S
C969 H956 0.930 . S
C969 C968 1.388 . S
C969 C970 1.390 . S
C970 C969 1.390 . S
C970 C971 1.394 . S
C970 C976 1.465 . S
C971 C966 1.399 . S
C971 C970 1.394 . S
C971 C972 1.516 . S
C972 C971 1.516 . S
C972 C973 1.502 . S
C972 C974 1.561 . S
C972 C975 1.526 . S
C973 H957 0.959 . S
C973 H958 0.959 . S
C973 H959 0.961 . S
C973 C972 1.502 . S
C974 H960 0.960 . S
C974 H961 0.961 . S
C974 H962 0.959 . S
C974 C972 1.561 . S
C975 C972 1.526 . S
C975 C976 1.396 . S
C975 C980 1.390 . S
C976 C970 1.465 . S
C976 C975 1.396 . S
C976 C977 1.399 . S
C977 H963 0.929 . S
C977 C976 1.399 . S
C977 C978 1.385 1_554 S
C978 H964 0.931 . S
C978 C977 1.385 1_556 S
C978 C979 1.389 . S
C979 C978 1.389 . S
C979 C980 1.387 1_556 S
C980 H965 0.930 . S
C980 C975 1.390 . S
C980 C979 1.387 1_554 S
H981 C993 0.930 . S
H982 C995 0.930 . S
H983 C996 0.930 . S
H984 C1000 0.959 . S
H985 C1000 0.959 . S
H986 C1000 0.961 . S
H987 C1001 0.960 . S
H988 C1001 0.961 . S
H989 C1001 0.959 . S
H990 C1004 0.929 . S
H991 C1005 0.931 . S
H992 C1007 0.930 . S
C993 H981 0.930 . S
C993 C994 1.399 . S
C993 C998 1.399 . S
C994 C993 1.399 . S
C994 C995 1.376 . S
C995 H982 0.930 . S
C995 C994 1.376 . S
C995 C996 1.388 . S
C996 H983 0.930 . S
C996 C995 1.388 . S
C996 C997 1.390 . S
C997 C996 1.390 . S
C997 C998 1.394 . S
C997 C1003 1.465 . S
C998 C993 1.399 . S
C998 C997 1.394 . S
C998 C999 1.516 . S
C999 C998 1.516 . S
C999 C1000 1.502 . S
C999 C1001 1.561 . S
C999 C1002 1.526 . S
C1000 H984 0.959 . S
C1000 H985 0.959 . S
C1000 H986 0.961 . S
C1000 C999 1.502 . S
C1001 H987 0.960 . S
C1001 H988 0.961 . S
C1001 H989 0.959 . S
C1001 C999 1.561 . S
C1002 C999 1.526 . S
C1002 C1003 1.396 . S
C1002 C1007 1.390 . S
C1003 C997 1.465 . S
C1003 C1002 1.396 . S
C1003 C1004 1.399 . S
C1004 H990 0.929 . S
C1004 C1003 1.399 . S
C1004 C1005 1.385 . S
C1005 H991 0.931 . S
C1005 C1004 1.385 . S
C1005 C1006 1.389 . S
C1006 C1005 1.389 . S
C1006 C1007 1.387 . S
C1007 H992 0.930 . S
C1007 C1002 1.390 . S
C1007 C1006 1.387 . S
H1008 C1020 0.930 1_556 S
H1009 C1022 0.930 . S
H1010 C1023 0.930 . S
H1011 C1027 0.959 . S
H1012 C1027 0.959 . S
H1013 C1027 0.961 . S
H1014 C1028 0.960 1_556 S
H1015 C1028 0.961 . S
H1016 C1028 0.959 . S
H1017 C1031 0.929 . S
H1018 C1032 0.931 . S
H1019 C1034 0.930 . S
C1020 H1008 0.930 1_554 S
C1020 C1021 1.399 1_554 S
C1020 C1025 1.399 . S
C1021 C1020 1.399 1_556 S
C1021 C1022 1.376 1_556 S
C1022 H1009 0.930 . S
C1022 C1021 1.376 1_554 S
C1022 C1023 1.388 . S
C1023 H1010 0.930 . S
C1023 C1022 1.388 . S
C1023 C1024 1.390 . S
C1024 C1023 1.390 . S
C1024 C1025 1.394 . S
C1024 C1030 1.465 . S
C1025 C1020 1.399 . S
C1025 C1024 1.394 . S
C1025 C1026 1.516 . S
C1026 C1025 1.516 . S
C1026 C1027 1.502 . S
C1026 C1028 1.561 . S
C1026 C1029 1.526 . S
C1027 H1011 0.959 . S
C1027 H1012 0.959 . S
C1027 H1013 0.961 . S
C1027 C1026 1.502 . S
C1028 H1014 0.960 1_554 S
C1028 H1015 0.961 . S
C1028 H1016 0.959 . S
C1028 C1026 1.561 . S
C1029 C1026 1.526 . S
C1029 C1030 1.396 . S
C1029 C1034 1.390 . S
C1030 C1024 1.465 . S
C1030 C1029 1.396 . S
C1030 C1031 1.399 . S
C1031 H1017 0.929 . S
C1031 C1030 1.399 . S
C1031 C1032 1.385 . S
C1032 H1018 0.931 . S
C1032 C1031 1.385 . S
C1032 C1033 1.389 . S
C1033 C1032 1.389 . S
C1033 C1034 1.387 . S
C1034 H1019 0.930 . S
C1034 C1029 1.390 . S
C1034 C1033 1.387 . S
H1035 C1047 0.930 . S
H1036 C1049 0.930 . S
H1037 C1050 0.930 . S
H1038 C1054 0.959 . S
H1039 C1054 0.959 . S
H1040 C1054 0.961 . S
H1041 C1055 0.960 . S
H1042 C1055 0.961 . S
H1043 C1055 0.959 . S
H1044 C1058 0.929 . S
H1045 C1059 0.931 . S
H1046 C1061 0.930 . S
C1047 H1035 0.930 . S
C1047 C1048 1.399 . S
C1047 C1052 1.399 . S
C1048 C1047 1.399 . S
C1048 C1049 1.376 . S
C1049 H1036 0.930 . S
C1049 C1048 1.376 . S
C1049 C1050 1.388 . S
C1050 H1037 0.930 . S
C1050 C1049 1.388 . S
C1050 C1051 1.390 . S
C1051 C1050 1.390 . S
C1051 C1052 1.394 . S
C1051 C1057 1.465 . S
C1052 C1047 1.399 . S
C1052 C1051 1.394 . S
C1052 C1053 1.516 . S
C1053 C1052 1.516 . S
C1053 C1054 1.502 . S
C1053 C1055 1.561 . S
C1053 C1056 1.526 . S
C1054 H1038 0.959 . S
C1054 H1039 0.959 . S
C1054 H1040 0.961 . S
C1054 C1053 1.502 . S
C1055 H1041 0.960 . S
C1055 H1042 0.961 . S
C1055 H1043 0.959 . S
C1055 C1053 1.561 . S
C1056 C1053 1.526 . S
C1056 C1057 1.396 . S
C1056 C1061 1.390 . S
C1057 C1051 1.465 . S
C1057 C1056 1.396 . S
C1057 C1058 1.399 . S
C1058 H1044 0.929 . S
C1058 C1057 1.399 . S
C1058 C1059 1.385 . S
C1059 H1045 0.931 . S
C1059 C1058 1.385 . S
C1059 C1060 1.389 . S
C1060 C1059 1.389 . S
C1060 C1061 1.387 . S
C1061 H1046 0.930 . S
C1061 C1056 1.390 . S
C1061 C1060 1.387 . S
H1062 C1074 0.930 . S
H1063 C1076 0.930 . S
H1064 C1077 0.930 . S
H1065 C1081 0.959 . S
H1066 C1081 0.959 . S
H1067 C1081 0.961 . S
H1068 C1082 0.960 . S
H1069 C1082 0.961 . S
H1070 C1082 0.959 . S
H1071 C1085 0.922 1_556 S
H1072 C1086 0.931 . S
H1073 C1088 0.930 . S
C1074 H1062 0.930 . S
C1074 C1075 1.399 . S
C1074 C1079 1.399 . S
C1075 C1074 1.399 . S
C1075 C1076 1.376 . S
C1076 H1063 0.930 . S
C1076 C1075 1.376 . S
C1076 C1077 1.388 . S
C1077 H1064 0.930 . S
C1077 C1076 1.388 . S
C1077 C1078 1.390 . S
C1078 C1077 1.390 . S
C1078 C1079 1.394 . S
C1078 C1084 1.465 . S
C1079 C1074 1.399 . S
C1079 C1078 1.394 . S
C1079 C1080 1.516 . S
C1080 C1079 1.516 . S
C1080 C1081 1.502 . S
C1080 C1082 1.561 . S
C1080 C1083 1.526 . S
C1081 H1065 0.959 . S
C1081 H1066 0.959 . S
C1081 H1067 0.961 . S
C1081 C1080 1.502 . S
C1082 H1068 0.960 . S
C1082 H1069 0.961 . S
C1082 H1070 0.959 . S
C1082 C1080 1.561 . S
C1083 C1080 1.526 . S
C1083 C1084 1.396 . S
C1083 C1088 1.390 . S
C1084 C1078 1.465 . S
C1084 C1083 1.396 . S
C1084 C1085 1.416 . S
C1085 H1071 0.922 1_554 S
C1085 C1084 1.416 . S
C1085 C1086 1.375 1_554 S
C1086 H1072 0.931 . S
C1086 C1085 1.375 1_556 S
C1086 C1087 1.389 . S
C1087 C1086 1.389 . S
C1087 C1088 1.387 1_556 S
C1088 H1073 0.930 . S
C1088 C1083 1.390 . S
C1088 C1087 1.387 1_554 S
H1089 C1101 0.930 . S
H1090 C1103 0.930 . S
H1091 C1104 0.930 . S
H1092 C1108 0.959 . S
H1093 C1108 0.959 . S
H1094 C1108 0.961 . S
H1095 C1109 0.960 . S
H1096 C1109 0.961 . S
H1097 C1109 0.959 . S
H1098 C1112 0.929 . S
H1099 C1113 0.931 . S
H1100 C1115 0.930 . S
C1101 H1089 0.930 . S
C1101 C1102 1.399 . S
C1101 C1106 1.399 . S
C1102 C1101 1.399 . S
C1102 C1103 1.376 . S
C1103 H1090 0.930 . S
C1103 C1102 1.376 . S
C1103 C1104 1.388 . S
C1104 H1091 0.930 . S
C1104 C1103 1.388 . S
C1104 C1105 1.390 . S
C1105 C1104 1.390 . S
C1105 C1106 1.394 . S
C1105 C1111 1.465 . S
C1106 C1101 1.399 . S
C1106 C1105 1.394 . S
C1106 C1107 1.516 . S
C1107 C1106 1.516 . S
C1107 C1108 1.502 . S
C1107 C1109 1.561 . S
C1107 C1110 1.526 . S
C1108 H1092 0.959 . S
C1108 H1093 0.959 . S
C1108 H1094 0.961 . S
C1108 C1107 1.502 . S
C1109 H1095 0.960 . S
C1109 H1096 0.961 . S
C1109 H1097 0.959 . S
C1109 C1107 1.561 . S
C1110 C1107 1.526 . S
C1110 C1111 1.396 . S
C1110 C1115 1.390 . S
C1111 C1105 1.465 . S
C1111 C1110 1.396 . S
C1111 C1112 1.399 . S
C1112 H1098 0.929 . S
C1112 C1111 1.399 . S
C1112 C1113 1.385 . S
C1113 H1099 0.931 . S
C1113 C1112 1.385 . S
C1113 C1114 1.389 . S
C1114 C1113 1.389 . S
C1114 C1115 1.387 . S
C1115 H1100 0.930 . S
C1115 C1110 1.390 . S
C1115 C1114 1.387 . S
H1116 C1128 0.930 . S
H1117 C1130 0.930 . S
H1118 C1131 0.930 . S
H1119 C1135 0.959 . S
H1120 C1135 0.959 . S
H1121 C1135 0.961 . S
H1122 C1136 0.960 . S
H1123 C1136 0.961 . S
H1124 C1136 0.959 . S
H1125 C1139 0.929 . S
H1126 C1140 0.931 . S
H1127 C1142 0.930 1_554 S
C1128 H1116 0.930 . S
C1128 C1129 1.399 . S
C1128 C1133 1.399 . S
C1129 C1128 1.399 . S
C1129 C1130 1.376 . S
C1130 H1117 0.930 . S
C1130 C1129 1.376 . S
C1130 C1131 1.388 . S
C1131 H1118 0.930 . S
C1131 C1130 1.388 . S
C1131 C1132 1.390 . S
C1132 C1131 1.390 . S
C1132 C1133 1.394 . S
C1132 C1138 1.465 . S
C1133 C1128 1.399 . S
C1133 C1132 1.394 . S
C1133 C1134 1.516 . S
C1134 C1133 1.516 . S
C1134 C1135 1.502 . S
C1134 C1136 1.561 . S
C1134 C1137 1.526 . S
C1135 H1119 0.959 . S
C1135 H1120 0.959 . S
C1135 H1121 0.961 . S
C1135 C1134 1.502 . S
C1136 H1122 0.960 . S
C1136 H1123 0.961 . S
C1136 H1124 0.959 . S
C1136 C1134 1.561 . S
C1137 C1134 1.526 . S
C1137 C1138 1.396 . S
C1137 C1142 1.390 . S
C1138 C1132 1.465 . S
C1138 C1137 1.396 . S
C1138 C1139 1.399 . S
C1139 H1125 0.929 . S
C1139 C1138 1.399 . S
C1139 C1140 1.385 . S
C1140 H1126 0.931 . S
C1140 C1139 1.385 . S
C1140 C1141 1.389 1_556 S
C1141 C1140 1.389 1_554 S
C1141 C1142 1.387 1_554 S
C1142 H1127 0.930 1_556 S
C1142 C1137 1.390 . S
C1142 C1141 1.387 1_556 S
H1143 C1155 0.930 . S
H1144 C1157 0.930 . S
H1145 C1158 0.930 . S
H1146 C1162 0.959 . S
H1147 C1162 0.959 . S
H1148 C1162 0.961 . S
H1149 C1163 0.960 . S
H1150 C1163 0.961 . S
H1151 C1163 0.959 . S
H1152 C1166 0.929 . S
H1153 C1167 0.931 . S
H1154 C1169 0.930 . S
C1155 H1143 0.930 . S
C1155 C1156 1.399 . S
C1155 C1160 1.399 . S
C1156 C1155 1.399 . S
C1156 C1157 1.376 . S
C1157 H1144 0.930 . S
C1157 C1156 1.376 . S
C1157 C1158 1.388 . S
C1158 H1145 0.930 . S
C1158 C1157 1.388 . S
C1158 C1159 1.390 . S
C1159 C1158 1.390 . S
C1159 C1160 1.394 . S
C1159 C1165 1.465 . S
C1160 C1155 1.399 . S
C1160 C1159 1.394 . S
C1160 C1161 1.516 . S
C1161 C1160 1.516 . S
C1161 C1162 1.502 . S
C1161 C1163 1.561 . S
C1161 C1164 1.526 . S
C1162 H1146 0.959 . S
C1162 H1147 0.959 . S
C1162 H1148 0.961 . S
C1162 C1161 1.502 . S
C1163 H1149 0.960 . S
C1163 H1150 0.961 . S
C1163 H1151 0.959 . S
C1163 C1161 1.561 . S
C1164 C1161 1.526 . S
C1164 C1165 1.396 . S
C1164 C1169 1.390 . S
C1165 C1159 1.465 . S
C1165 C1164 1.396 . S
C1165 C1166 1.399 . S
C1166 H1152 0.929 . S
C1166 C1165 1.399 . S
C1166 C1167 1.385 . S
C1167 H1153 0.931 . S
C1167 C1166 1.385 . S
C1167 C1168 1.389 . S
C1168 C1167 1.389 . S
C1168 C1169 1.387 . S
C1169 H1154 0.930 . S
C1169 C1164 1.390 . S
C1169 C1168 1.387 . S
H1170 C1182 0.915 1_554 S
H1171 C1184 0.930 . S
H1172 C1185 0.930 . S
H1173 C1189 0.959 . S
H1174 C1189 0.959 . S
H1175 C1189 0.961 . S
H1176 C1190 0.960 1_554 S
H1177 C1190 0.961 . S
H1178 C1190 0.959 . S
H1179 C1193 0.929 . S
H1180 C1194 0.931 . S
H1181 C1196 0.930 . S
C1182 H1170 0.915 1_556 S
C1182 C1183 1.398 1_556 S
C1182 C1187 1.415 . S
C1183 C1182 1.398 1_554 S
C1183 C1184 1.376 1_554 S
C1184 H1171 0.930 . S
C1184 C1183 1.376 1_556 S
C1184 C1185 1.388 . S
C1185 H1172 0.930 . S
C1185 C1184 1.388 . S
C1185 C1186 1.390 . S
C1186 C1185 1.390 . S
C1186 C1187 1.394 . S
C1186 C1192 1.465 . S
C1187 C1182 1.415 . S
C1187 C1186 1.394 . S
C1187 C1188 1.516 . S
C1188 C1187 1.516 . S
C1188 C1189 1.502 . S
C1188 C1190 1.561 . S
C1188 C1191 1.526 . S
C1189 H1173 0.959 . S
C1189 H1174 0.959 . S
C1189 H1175 0.961 . S
C1189 C1188 1.502 . S
C1190 H1176 0.960 1_556 S
C1190 H1177 0.961 . S
C1190 H1178 0.959 . S
C1190 C1188 1.561 . S
C1191 C1188 1.526 . S
C1191 C1192 1.396 . S
C1191 C1196 1.390 . S
C1192 C1186 1.465 . S
C1192 C1191 1.396 . S
C1192 C1193 1.399 . S
C1193 H1179 0.929 . S
C1193 C1192 1.399 . S
C1193 C1194 1.385 . S
C1194 H1180 0.931 . S
C1194 C1193 1.385 . S
C1194 C1195 1.389 . S
C1195 C1194 1.389 . S
C1195 C1196 1.387 . S
C1196 H1181 0.930 . S
C1196 C1191 1.390 . S
C1196 C1195 1.387 . S
H1197 C1209 0.930 . S
H1198 C1211 0.930 . S
H1199 C1212 0.930 . S
H1200 C1216 0.959 . S
H1201 C1216 0.959 . S
H1202 C1216 0.961 . S
H1203 C1217 0.960 . S
H1204 C1217 0.961 . S
H1205 C1217 0.959 . S
H1206 C1220 0.929 . S
H1207 C1221 0.931 . S
H1208 C1223 0.930 . S
C1209 H1197 0.930 . S
C1209 C1210 1.399 . S
C1209 C1214 1.399 . S
C1210 C1209 1.399 . S
C1210 C1211 1.376 . S
C1211 H1198 0.930 . S
C1211 C1210 1.376 . S
C1211 C1212 1.388 . S
C1212 H1199 0.930 . S
C1212 C1211 1.388 . S
C1212 C1213 1.390 . S
C1213 C1212 1.390 . S
C1213 C1214 1.394 . S
C1213 C1219 1.465 . S
C1214 C1209 1.399 . S
C1214 C1213 1.394 . S
C1214 C1215 1.516 . S
C1215 C1214 1.516 . S
C1215 C1216 1.502 . S
C1215 C1217 1.561 . S
C1215 C1218 1.526 . S
C1216 H1200 0.959 . S
C1216 H1201 0.959 . S
C1216 H1202 0.961 . S
C1216 C1215 1.502 . S
C1217 H1203 0.960 . S
C1217 H1204 0.961 . S
C1217 H1205 0.959 . S
C1217 C1215 1.561 . S
C1218 C1215 1.526 . S
C1218 C1219 1.396 . S
C1218 C1223 1.390 . S
C1219 C1213 1.465 . S
C1219 C1218 1.396 . S
C1219 C1220 1.399 . S
C1220 H1206 0.929 . S
C1220 C1219 1.399 . S
C1220 C1221 1.385 . S
C1221 H1207 0.931 . S
C1221 C1220 1.385 . S
C1221 C1222 1.389 . S
C1222 C1221 1.389 . S
C1222 C1223 1.387 . S
C1223 H1208 0.930 . S
C1223 C1218 1.390 . S
C1223 C1222 1.387 . S
H1224 C1236 0.930 . S
H1225 C1238 0.930 . S
H1226 C1239 0.930 . S
H1227 C1243 0.959 . S
H1228 C1243 0.959 . S
H1229 C1243 0.961 . S
H1230 C1244 0.960 . S
H1231 C1244 0.961 . S
H1232 C1244 0.959 . S
H1233 C1247 0.929 . S
H1234 C1248 0.931 . S
H1235 C1250 0.930 . S
C1236 H1224 0.930 . S
C1236 C1237 1.399 . S
C1236 C1241 1.399 . S
C1237 C1236 1.399 . S
C1237 C1238 1.376 . S
C1238 H1225 0.930 . S
C1238 C1237 1.376 . S
C1238 C1239 1.388 . S
C1239 H1226 0.930 . S
C1239 C1238 1.388 . S
C1239 C1240 1.390 . S
C1240 C1239 1.390 . S
C1240 C1241 1.394 . S
C1240 C1246 1.465 . S
C1241 C1236 1.399 . S
C1241 C1240 1.394 . S
C1241 C1242 1.516 . S
C1242 C1241 1.516 . S
C1242 C1243 1.502 . S
C1242 C1244 1.561 . S
C1242 C1245 1.526 . S
C1243 H1227 0.959 . S
C1243 H1228 0.959 . S
C1243 H1229 0.961 . S
C1243 C1242 1.502 . S
C1244 H1230 0.960 . S
C1244 H1231 0.961 . S
C1244 H1232 0.959 . S
C1244 C1242 1.561 . S
C1245 C1242 1.526 . S
C1245 C1246 1.396 . S
C1245 C1250 1.390 . S
C1246 C1240 1.465 . S
C1246 C1245 1.396 . S
C1246 C1247 1.399 . S
C1247 H1233 0.929 . S
C1247 C1246 1.399 . S
C1247 C1248 1.385 . S
C1248 H1234 0.931 . S
C1248 C1247 1.385 . S
C1248 C1249 1.389 . S
C1249 C1248 1.389 . S
C1249 C1250 1.387 . S
C1250 H1235 0.930 . S
C1250 C1245 1.390 . S
C1250 C1249 1.387 . S
H1251 C1263 0.930 . S
H1252 C1265 0.930 . S
H1253 C1266 0.930 . S
H1254 C1270 0.959 . S
H1255 C1270 0.959 . S
H1256 C1270 0.961 . S
H1257 C1271 0.960 . S
H1258 C1271 0.961 . S
H1259 C1271 0.959 . S
H1260 C1274 0.929 . S
H1261 C1275 0.931 . S
H1262 C1277 0.930 . S
C1263 H1251 0.930 . S
C1263 C1264 1.399 . S
C1263 C1268 1.399 . S
C1264 C1263 1.399 . S
C1264 C1265 1.376 . S
C1265 H1252 0.930 . S
C1265 C1264 1.376 . S
C1265 C1266 1.388 . S
C1266 H1253 0.930 . S
C1266 C1265 1.388 . S
C1266 C1267 1.390 . S
C1267 C1266 1.390 . S
C1267 C1268 1.394 . S
C1267 C1273 1.465 . S
C1268 C1263 1.399 . S
C1268 C1267 1.394 . S
C1268 C1269 1.516 . S
C1269 C1268 1.516 . S
C1269 C1270 1.502 . S
C1269 C1271 1.561 . S
C1269 C1272 1.526 . S
C1270 H1254 0.959 . S
C1270 H1255 0.959 . S
C1270 H1256 0.961 . S
C1270 C1269 1.502 . S
C1271 H1257 0.960 . S
C1271 H1258 0.961 . S
C1271 H1259 0.959 . S
C1271 C1269 1.561 . S
C1272 C1269 1.526 . S
C1272 C1273 1.396 . S
C1272 C1277 1.390 . S
C1273 C1267 1.465 . S
C1273 C1272 1.396 . S
C1273 C1274 1.399 . S
C1274 H1260 0.929 . S
C1274 C1273 1.399 . S
C1274 C1275 1.385 . S
C1275 H1261 0.931 . S
C1275 C1274 1.385 . S
C1275 C1276 1.389 . S
C1276 C1275 1.389 . S
C1276 C1277 1.387 . S
C1277 H1262 0.930 . S
C1277 C1272 1.390 . S
C1277 C1276 1.387 . S
H1278 C1290 0.930 . S
H1279 C1292 0.930 . S
H1280 C1293 0.930 . S
H1281 C1297 0.959 . S
H1282 C1297 0.959 . S
H1283 C1297 0.961 . S
H1284 C1298 0.960 . S
H1285 C1298 0.961 . S
H1286 C1298 0.959 . S
H1287 C1301 0.929 . S
H1288 C1302 0.931 . S
H1289 C1304 0.930 . S
C1290 H1278 0.930 . S
C1290 C1291 1.399 . S
C1290 C1295 1.399 . S
C1291 C1290 1.399 . S
C1291 C1292 1.376 . S
C1292 H1279 0.930 . S
C1292 C1291 1.376 . S
C1292 C1293 1.388 . S
C1293 H1280 0.930 . S
C1293 C1292 1.388 . S
C1293 C1294 1.390 . S
C1294 C1293 1.390 . S
C1294 C1295 1.394 . S
C1294 C1300 1.465 . S
C1295 C1290 1.399 . S
C1295 C1294 1.394 . S
C1295 C1296 1.516 . S
C1296 C1295 1.516 . S
C1296 C1297 1.502 . S
C1296 C1298 1.561 . S
C1296 C1299 1.526 . S
C1297 H1281 0.959 . S
C1297 H1282 0.959 . S
C1297 H1283 0.961 . S
C1297 C1296 1.502 . S
C1298 H1284 0.960 . S
C1298 H1285 0.961 . S
C1298 H1286 0.959 . S
C1298 C1296 1.561 . S
C1299 C1296 1.526 . S
C1299 C1300 1.396 . S
C1299 C1304 1.390 . S
C1300 C1294 1.465 . S
C1300 C1299 1.396 . S
C1300 C1301 1.399 . S
C1301 H1287 0.929 . S
C1301 C1300 1.399 . S
C1301 C1302 1.385 . S
C1302 H1288 0.931 . S
C1302 C1301 1.385 . S
C1302 C1303 1.389 . S
C1303 C1302 1.389 . S
C1303 C1304 1.387 . S
C1304 H1289 0.930 . S
C1304 C1299 1.390 . S
C1304 C1303 1.387 . S
H1305 C1317 0.930 . S
H1306 C1319 0.930 . S
H1307 C1320 0.930 . S
H1308 C1324 0.959 . S
H1309 C1324 0.959 . S
H1310 C1324 0.961 . S
H1311 C1325 0.960 . S
H1312 C1325 0.961 . S
H1313 C1325 0.959 . S
H1314 C1328 0.929 . S
H1315 C1329 0.931 . S
H1316 C1331 0.930 . S
C1317 H1305 0.930 . S
C1317 C1318 1.399 . S
C1317 C1322 1.399 . S
C1318 C1317 1.399 . S
C1318 C1319 1.376 . S
C1319 H1306 0.930 . S
C1319 C1318 1.376 . S
C1319 C1320 1.388 . S
C1320 H1307 0.930 . S
C1320 C1319 1.388 . S
C1320 C1321 1.390 . S
C1321 C1320 1.390 . S
C1321 C1322 1.394 . S
C1321 C1327 1.465 . S
C1322 C1317 1.399 . S
C1322 C1321 1.394 . S
C1322 C1323 1.516 . S
C1323 C1322 1.516 . S
C1323 C1324 1.502 . S
C1323 C1325 1.561 . S
C1323 C1326 1.526 . S
C1324 H1308 0.959 . S
C1324 H1309 0.959 . S
C1324 H1310 0.961 . S
C1324 C1323 1.502 . S
C1325 H1311 0.960 . S
C1325 H1312 0.961 . S
C1325 H1313 0.959 . S
C1325 C1323 1.561 . S
C1326 C1323 1.526 . S
C1326 C1327 1.396 . S
C1326 C1331 1.390 . S
C1327 C1321 1.465 . S
C1327 C1326 1.396 . S
C1327 C1328 1.399 . S
C1328 H1314 0.929 . S
C1328 C1327 1.399 . S
C1328 C1329 1.385 . S
C1329 H1315 0.931 . S
C1329 C1328 1.385 . S
C1329 C1330 1.389 . S
C1330 C1329 1.389 . S
C1330 C1331 1.387 . S
C1331 H1316 0.930 . S
C1331 C1326 1.390 . S
C1331 C1330 1.387 . S
H1332 C1344 0.930 . S
H1333 C1346 0.930 . S
H1334 C1347 0.930 . S
H1335 C1351 0.959 . S
H1336 C1351 0.959 . S
H1337 C1351 0.961 . S
H1338 C1352 0.960 . S
H1339 C1352 0.961 . S
H1340 C1352 0.959 . S
H1341 C1355 0.929 . S
H1342 C1356 0.931 . S
H1343 C1358 0.930 . S
C1344 H1332 0.930 . S
C1344 C1345 1.399 . S
C1344 C1349 1.399 . S
C1345 C1344 1.399 . S
C1345 C1346 1.376 . S
C1346 H1333 0.930 . S
C1346 C1345 1.376 . S
C1346 C1347 1.388 . S
C1347 H1334 0.930 . S
C1347 C1346 1.388 . S
C1347 C1348 1.390 . S
C1348 C1347 1.390 . S
C1348 C1349 1.394 . S
C1348 C1354 1.465 . S
C1349 C1344 1.399 . S
C1349 C1348 1.394 . S
C1349 C1350 1.516 . S
C1350 C1349 1.516 . S
C1350 C1351 1.502 . S
C1350 C1352 1.561 . S
C1350 C1353 1.526 . S
C1351 H1335 0.959 . S
C1351 H1336 0.959 . S
C1351 H1337 0.961 . S
C1351 C1350 1.502 . S
C1352 H1338 0.960 . S
C1352 H1339 0.961 . S
C1352 H1340 0.959 . S
C1352 C1350 1.561 . S
C1353 C1350 1.526 . S
C1353 C1354 1.396 . S
C1353 C1358 1.390 . S
C1354 C1348 1.465 . S
C1354 C1353 1.396 . S
C1354 C1355 1.399 . S
C1355 H1341 0.929 . S
C1355 C1354 1.399 . S
C1355 C1356 1.385 . S
C1356 H1342 0.931 . S
C1356 C1355 1.385 . S
C1356 C1357 1.389 . S
C1357 C1356 1.389 . S
C1357 C1358 1.387 . S
C1358 H1343 0.930 . S
C1358 C1353 1.390 . S
C1358 C1357 1.387 . S
H1359 C1371 0.930 . S
H1360 C1373 0.930 . S
H1361 C1374 0.930 . S
H1362 C1378 0.959 . S
H1363 C1378 0.959 . S
H1364 C1378 0.961 . S
H1365 C1379 0.960 . S
H1366 C1379 0.961 . S
H1367 C1379 0.959 . S
H1368 C1382 0.929 . S
H1369 C1383 0.931 . S
H1370 C1385 0.930 . S
C1371 H1359 0.930 . S
C1371 C1372 1.399 . S
C1371 C1376 1.399 . S
C1372 C1371 1.399 . S
C1372 C1373 1.376 . S
C1373 H1360 0.930 . S
C1373 C1372 1.376 . S
C1373 C1374 1.388 . S
C1374 H1361 0.930 . S
C1374 C1373 1.388 . S
C1374 C1375 1.390 . S
C1375 C1374 1.390 . S
C1375 C1376 1.394 . S
C1375 C1381 1.465 . S
C1376 C1371 1.399 . S
C1376 C1375 1.394 . S
C1376 C1377 1.516 . S
C1377 C1376 1.516 . S
C1377 C1378 1.502 . S
C1377 C1379 1.561 . S
C1377 C1380 1.526 . S
C1378 H1362 0.959 . S
C1378 H1363 0.959 . S
C1378 H1364 0.961 . S
C1378 C1377 1.502 . S
C1379 H1365 0.960 . S
C1379 H1366 0.961 . S
C1379 H1367 0.959 . S
C1379 C1377 1.561 . S
C1380 C1377 1.526 . S
C1380 C1381 1.396 . S
C1380 C1385 1.390 . S
C1381 C1375 1.465 . S
C1381 C1380 1.396 . S
C1381 C1382 1.399 . S
C1382 H1368 0.929 . S
C1382 C1381 1.399 . S
C1382 C1383 1.385 . S
C1383 H1369 0.931 . S
C1383 C1382 1.385 . S
C1383 C1384 1.389 . S
C1384 C1383 1.389 . S
C1384 C1385 1.387 . S
C1385 H1370 0.930 . S
C1385 C1380 1.390 . S
C1385 C1384 1.387 . S
H1386 C1398 0.930 . S
H1387 C1400 0.930 . S
H1388 C1401 0.930 . S
H1389 C1405 0.959 . S
H1390 C1405 0.959 . S
H1391 C1405 0.961 . S
H1392 C1406 0.960 . S
H1393 C1406 0.961 . S
H1394 C1406 0.959 . S
H1395 C1409 0.929 . S
H1396 C1410 0.931 . S
H1397 C1412 0.930 . S
C1398 H1386 0.930 . S
C1398 C1399 1.399 . S
C1398 C1403 1.399 . S
C1399 C1398 1.399 . S
C1399 C1400 1.376 . S
C1400 H1387 0.930 . S
C1400 C1399 1.376 . S
C1400 C1401 1.388 . S
C1401 H1388 0.930 . S
C1401 C1400 1.388 . S
C1401 C1402 1.390 . S
C1402 C1401 1.390 . S
C1402 C1403 1.394 . S
C1402 C1408 1.465 . S
C1403 C1398 1.399 . S
C1403 C1402 1.394 . S
C1403 C1404 1.516 . S
C1404 C1403 1.516 . S
C1404 C1405 1.502 . S
C1404 C1406 1.561 . S
C1404 C1407 1.526 . S
C1405 H1389 0.959 . S
C1405 H1390 0.959 . S
C1405 H1391 0.961 . S
C1405 C1404 1.502 . S
C1406 H1392 0.960 . S
C1406 H1393 0.961 . S
C1406 H1394 0.959 . S
C1406 C1404 1.561 . S
C1407 C1404 1.526 . S
C1407 C1408 1.396 . S
C1407 C1412 1.390 . S
C1408 C1402 1.465 . S
C1408 C1407 1.396 . S
C1408 C1409 1.399 . S
C1409 H1395 0.929 . S
C1409 C1408 1.399 . S
C1409 C1410 1.385 . S
C1410 H1396 0.931 . S
C1410 C1409 1.385 . S
C1410 C1411 1.389 . S
C1411 C1410 1.389 . S
C1411 C1412 1.387 . S
C1412 H1397 0.930 . S
C1412 C1407 1.390 . S
C1412 C1411 1.387 . S
H1413 C1425 0.930 . S
H1414 C1427 0.930 . S
H1415 C1428 0.930 . S
H1416 C1432 0.959 . S
H1417 C1432 0.959 . S
H1418 C1432 0.961 . S
H1419 C1433 0.960 . S
H1420 C1433 0.961 . S
H1421 C1433 0.959 . S
H1422 C1436 0.929 . S
H1423 C1437 0.931 . S
H1424 C1439 0.930 . S
C1425 H1413 0.930 . S
C1425 C1426 1.399 . S
C1425 C1430 1.399 . S
C1426 C1425 1.399 . S
C1426 C1427 1.376 . S
C1427 H1414 0.930 . S
C1427 C1426 1.376 . S
C1427 C1428 1.388 . S
C1428 H1415 0.930 . S
C1428 C1427 1.388 . S
C1428 C1429 1.390 . S
C1429 C1428 1.390 . S
C1429 C1430 1.394 . S
C1429 C1435 1.465 . S
C1430 C1425 1.399 . S
C1430 C1429 1.394 . S
C1430 C1431 1.516 . S
C1431 C1430 1.516 . S
C1431 C1432 1.502 . S
C1431 C1433 1.561 . S
C1431 C1434 1.526 . S
C1432 H1416 0.959 . S
C1432 H1417 0.959 . S
C1432 H1418 0.961 . S
C1432 C1431 1.502 . S
C1433 H1419 0.960 . S
C1433 H1420 0.961 . S
C1433 H1421 0.959 . S
C1433 C1431 1.561 . S
C1434 C1431 1.526 . S
C1434 C1435 1.396 . S
C1434 C1439 1.390 . S
C1435 C1429 1.465 . S
C1435 C1434 1.396 . S
C1435 C1436 1.399 . S
C1436 H1422 0.929 . S
C1436 C1435 1.399 . S
C1436 C1437 1.385 . S
C1437 H1423 0.931 . S
C1437 C1436 1.385 . S
C1437 C1438 1.389 . S
C1438 C1437 1.389 . S
C1438 C1439 1.387 . S
C1439 H1424 0.930 . S
C1439 C1434 1.390 . S
C1439 C1438 1.387 . S
C589 C4 1.149 . S
C601 C148 1.119 . S
C616 C184 1.148 . S
C628 C40 1.122 . S
C643 C76 1.165 . S
C655 C220 1.102 . S
C670 C112 1.112 . S
C682 C256 1.155 . S
C697 C292 1.150 . S
C709 C436 1.104 . S
C724 C472 1.163 . S
C736 C328 1.125 . S
C751 C364 1.146 . S
C763 C508 1.106 . S
C778 C400 1.107 . S
C790 C544 1.146 . S
C805 C14 1.398 . S
C817 C543 1.398 . S
C832 C435 1.410 . S
C844 C50 1.399 . S
C859 C86 1.390 . S
C871 C471 1.410 . S
C886 C507 1.405 . S
C898 C122 1.404 . S
C913 C327 1.388 . S
C925 C158 1.382 . S
C940 C363 1.383 . S
C952 C194 1.370 . S
C967 C399 1.386 . S
C979 C230 1.378 . S
C994 C291 1.393 . S
C1006 C266 1.347 . S
C1021 C302 1.375 . S
C1033 C255 1.399 . S
C1048 C147 1.381 . S
C1060 C338 1.346 . S
C1075 C183 1.407 . S
C1087 C374 1.401 . S
C1102 C410 1.346 . S
C1114 C219 1.384 . S
C1129 C39 1.394 . S
C1141 C446 1.366 . S
C1156 C482 1.399 . S
C1168 C75 1.406 . S
C1183 C518 1.367 . S
C1195 C111 1.395 . S
C1210 C554 1.401 . S
C1222 C3 1.407 . S
C1237 C254 1.071 . S
C1249 C2 1.047 . S
C1264 C38 1.118 . S
C1276 C146 1.086 . S
C1291 C74 1.041 . S
C1303 C182 1.098 . S
C1318 C110 1.119 . S
C1330 C218 1.083 . S
C1345 C542 1.042 . S
C1357 C290 1.078 . S
C1372 C434 1.063 . S
C1384 C326 1.042 . S
C1399 C470 1.099 . S
C1411 C362 1.120 . S
C1426 C506 1.102 . S
C1438 C398 1.057 . S
