# Generated by pormake.
# Topology ume, (4)-cn, num edge types: 1
# Building blocks:
#     Node 0, Type 0, BuildingBlock: QUQFOY_clean_sbu_1, # of connection points: 4
#     Node 1, Type 0, BuildingBlock: QUQFOY_clean_sbu_1, # of connection points: 4
#     Node 2, Type 0, BuildingBlock: QUQFOY_clean_sbu_1, # of connection points: 4
#     Node 3, Type 0, BuildingBlock: QUQFOY_clean_sbu_1, # of connection points: 4
#     Node 4, Type 0, BuildingBlock: QUQFOY_clean_sbu_1, # of connection points: 4
#     Node 5, Type 0, BuildingBlock: QUQFOY_clean_sbu_1, # of connection points: 4
#     Node 6, Type 0, BuildingBlock: QUQFOY_clean_sbu_1, # of connection points: 4
#     Node 7, Type 0, BuildingBlock: QUQFOY_clean_sbu_1, # of connection points: 4
#     Node 8, Type 0, BuildingBlock: QUQFOY_clean_sbu_1, # of connection points: 4
#     Node 9, Type 0, BuildingBlock: QUQFOY_clean_sbu_1, # of connection points: 4
#     Node 10, Type 0, BuildingBlock: QUQFOY_clean_sbu_1, # of connection points: 4
#     Node 11, Type 0, BuildingBlock: QUQFOY_clean_sbu_1, # of connection points: 4
#     Node 12, Type 0, BuildingBlock: QUQFOY_clean_sbu_1, # of connection points: 4
#     Node 13, Type 0, BuildingBlock: QUQFOY_clean_sbu_1, # of connection points: 4
#     Node 14, Type 0, BuildingBlock: QUQFOY_clean_sbu_1, # of connection points: 4
#     Node 15, Type 0, BuildingBlock: QUQFOY_clean_sbu_1, # of connection points: 4
#     Edge 16, Type (0, 0), BuildingBlock: EZIPEK_clean_linker_0, # of connection points: 2
#     Edge 17, Type (0, 0), BuildingBlock: EZIPEK_clean_linker_0, # of connection points: 2
#     Edge 18, Type (0, 0), BuildingBlock: EZIPEK_clean_linker_0, # of connection points: 2
#     Edge 19, Type (0, 0), BuildingBlock: EZIPEK_clean_linker_0, # of connection points: 2
#     Edge 20, Type (0, 0), BuildingBlock: EZIPEK_clean_linker_0, # of connection points: 2
#     Edge 21, Type (0, 0), BuildingBlock: EZIPEK_clean_linker_0, # of connection points: 2
#     Edge 22, Type (0, 0), BuildingBlock: EZIPEK_clean_linker_0, # of connection points: 2
#     Edge 23, Type (0, 0), BuildingBlock: EZIPEK_clean_linker_0, # of connection points: 2
#     Edge 24, Type (0, 0), BuildingBlock: EZIPEK_clean_linker_0, # of connection points: 2
#     Edge 25, Type (0, 0), BuildingBlock: EZIPEK_clean_linker_0, # of connection points: 2
#     Edge 26, Type (0, 0), BuildingBlock: EZIPEK_clean_linker_0, # of connection points: 2
#     Edge 27, Type (0, 0), BuildingBlock: EZIPEK_clean_linker_0, # of connection points: 2
#     Edge 28, Type (0, 0), BuildingBlock: EZIPEK_clean_linker_0, # of connection points: 2
#     Edge 29, Type (0, 0), BuildingBlock: EZIPEK_clean_linker_0, # of connection points: 2
#     Edge 30, Type (0, 0), BuildingBlock: EZIPEK_clean_linker_0, # of connection points: 2
#     Edge 31, Type (0, 0), BuildingBlock: EZIPEK_clean_linker_0, # of connection points: 2
#     Edge 32, Type (0, 0), BuildingBlock: EZIPEK_clean_linker_0, # of connection points: 2
#     Edge 33, Type (0, 0), BuildingBlock: EZIPEK_clean_linker_0, # of connection points: 2
#     Edge 34, Type (0, 0), BuildingBlock: EZIPEK_clean_linker_0, # of connection points: 2
#     Edge 35, Type (0, 0), BuildingBlock: EZIPEK_clean_linker_0, # of connection points: 2
#     Edge 36, Type (0, 0), BuildingBlock: EZIPEK_clean_linker_0, # of connection points: 2
#     Edge 37, Type (0, 0), BuildingBlock: EZIPEK_clean_linker_0, # of connection points: 2
#     Edge 38, Type (0, 0), BuildingBlock: EZIPEK_clean_linker_0, # of connection points: 2
#     Edge 39, Type (0, 0), BuildingBlock: EZIPEK_clean_linker_0, # of connection points: 2
#     Edge 40, Type (0, 0), BuildingBlock: EZIPEK_clean_linker_0, # of connection points: 2
#     Edge 41, Type (0, 0), BuildingBlock: EZIPEK_clean_linker_0, # of connection points: 2
#     Edge 42, Type (0, 0), BuildingBlock: EZIPEK_clean_linker_0, # of connection points: 2
#     Edge 43, Type (0, 0), BuildingBlock: EZIPEK_clean_linker_0, # of connection points: 2
#     Edge 44, Type (0, 0), BuildingBlock: EZIPEK_clean_linker_0, # of connection points: 2
#     Edge 45, Type (0, 0), BuildingBlock: EZIPEK_clean_linker_0, # of connection points: 2
#     Edge 46, Type (0, 0), BuildingBlock: EZIPEK_clean_linker_0, # of connection points: 2
#     Edge 47, Type (0, 0), BuildingBlock: EZIPEK_clean_linker_0, # of connection points: 2
# Relax obj value: 0.058
# Max RMSD: 0.123
# Mean RMSD: 0.123
data_MOF--net-ume--node1-QUQFOY_clean_sbu_1--edge1-EZIPEK_clean_linker_0
_symmetry_space_group_name_H-M    P1
_symmetry_Int_Tables_number       1
_symmetry_cell_setting            triclinic
loop_
_symmetry_equiv_pos_as_xyz
'x, y, z'
_cell_length_a     20.81916
_cell_length_b     20.897471
_cell_length_c     84.642059
_cell_angle_alpha  89.98946
_cell_angle_beta   90.124254
_cell_angle_gamma 89.883909
loop_
_atom_site_label
_atom_site_type_symbol
_atom_site_fract_x
_atom_site_fract_y
_atom_site_fract_z
_atom_type_partial_charge
O0 O 0.27064 0.15215 0.3536 0.0
Cd1 Cd 0.26597 0.1036 0.33234 0.0
Cd2 Cd 0.3219 0.21097 0.32416 0.0
O3 O 0.28836 0.25018 0.34486 0.0
O4 O 0.20392 0.03221 0.33667 0.0
O5 O 0.18202 0.11172 0.32032 0.0
C6 C 0.16301 0.06118 0.32769 0.0
C7 C 0.29576 0.23676 0.29837 0.0
C8 C 0.27606 0.21187 0.35612 0.0
C9 C 0.4051 0.09598 0.32495 0.0
O10 O 0.40375 0.15632 0.32668 0.0
O11 O 0.35272 0.06439 0.32442 0.0
O12 O 0.33576 0.27153 0.30629 0.0
O13 O 0.26664 0.19064 0.30555 0.0
O14 O 0.90393 0.76474 0.60396 0.0
Cd15 Cd 0.9515 0.75842 0.58265 0.0
Cd16 Cd 0.84556 0.81812 0.57429 0.0
O17 O 0.80628 0.78684 0.59524 0.0
O18 O 1.01973 0.69243 0.58664 0.0
O19 O 0.93875 0.67662 0.57017 0.0
C20 C 0.98857 0.65426 0.57744 0.0
C21 C 0.81347 0.7992 0.54863 0.0
C22 C 0.84434 0.77281 0.60648 0.0
C23 C 0.964 0.89633 0.57511 0.0
O24 O 0.90325 0.8972 0.57634 0.0
O25 O 0.99457 0.84337 0.57517 0.0
O26 O 0.78117 0.8377 0.55756 0.0
O27 O 0.86013 0.76671 0.55478 0.0
O28 O 0.28186 0.39114 0.85435 0.0
Cd29 Cd 0.2873 0.4435 0.8337 0.0
Cd30 Cd 0.22542 0.33934 0.82398 0.0
O31 O 0.25459 0.29661 0.84476 0.0
O32 O 0.35257 0.51115 0.83864 0.0
O33 O 0.36953 0.43484 0.82108 0.0
C34 C 0.39123 0.48301 0.82899 0.0
C35 C 0.25013 0.31113 0.79834 0.0
C36 C 0.27128 0.3318 0.8563 0.0
C37 C 0.14878 0.45958 0.82582 0.0
O38 O 0.14698 0.39881 0.82588 0.0
O39 O 0.20221 0.48899 0.82692 0.0
O40 O 0.20855 0.27857 0.80629 0.0
O41 O 0.28143 0.35618 0.80543 0.0
O42 O 0.64558 0.77815 0.10387 0.0
Cd43 Cd 0.5971 0.7848 0.08262 0.0
Cd44 Cd 0.70314 0.7258 0.07392 0.0
O45 O 0.74265 0.75455 0.09509 0.0
O46 O 0.52901 0.85061 0.08671 0.0
O47 O 0.60926 0.86659 0.07012 0.0
C48 C 0.55967 0.88884 0.07745 0.0
C49 C 0.73924 0.74433 0.04859 0.0
C50 C 0.70509 0.76895 0.10637 0.0
C51 C 0.584 0.6476 0.0745 0.0
O52 O 0.64485 0.64688 0.07534 0.0
O53 O 0.55314 0.70026 0.07522 0.0
O54 O 0.76876 0.70442 0.05775 0.0
O55 O 0.69306 0.77845 0.05437 0.0
O56 O 0.26884 0.38866 0.92411 0.0
Cd57 Cd 0.26397 0.44091 0.94471 0.0
Cd58 Cd 0.32342 0.33511 0.95464 0.0
O59 O 0.2947 0.29349 0.93366 0.0
O60 O 0.19975 0.5098 0.93975 0.0
O61 O 0.18146 0.43352 0.95723 0.0
C62 C 0.16049 0.48205 0.9493 0.0
C63 C 0.29684 0.30857 0.98026 0.0
C64 C 0.27878 0.32922 0.92212 0.0
C65 C 0.40252 0.45366 0.95289 0.0
O66 O 0.40296 0.39288 0.95316 0.0
O67 O 0.34989 0.48441 0.9514 0.0
O68 O 0.33807 0.27455 0.97252 0.0
O69 O 0.26641 0.35364 0.9729 0.0
O70 O 0.64574 0.76037 0.17501 0.0
Cd71 Cd 0.59715 0.75403 0.19618 0.0
Cd72 Cd 0.70252 0.81381 0.20483 0.0
O73 O 0.74286 0.78277 0.18397 0.0
O74 O 0.52942 0.68806 0.19195 0.0
O75 O 0.60946 0.67219 0.2087 0.0
C76 C 0.56016 0.64986 0.20126 0.0
C77 C 0.73442 0.79512 0.23054 0.0
C78 C 0.70536 0.76869 0.17263 0.0
C79 C 0.58363 0.89195 0.20368 0.0
O80 O 0.64444 0.89281 0.20266 0.0
O81 O 0.55327 0.83899 0.20351 0.0
O82 O 0.76639 0.83385 0.22163 0.0
O83 O 0.68815 0.76237 0.22436 0.0
O84 O 0.27524 0.1531 0.42496 0.0
Cd85 Cd 0.28233 0.10516 0.44628 0.0
Cd86 Cd 0.22689 0.21252 0.45454 0.0
O87 O 0.25859 0.25145 0.43364 0.0
O88 O 0.34479 0.03382 0.44195 0.0
O89 O 0.3668 0.11411 0.45802 0.0
C90 C 0.38584 0.06323 0.45076 0.0
C91 C 0.25352 0.23909 0.48025 0.0
C92 C 0.27002 0.21284 0.42239 0.0
C93 C 0.14383 0.09767 0.45406 0.0
O94 O 0.14507 0.15798 0.45228 0.0
O95 O 0.19627 0.06597 0.45454 0.0
O96 O 0.21309 0.27352 0.47233 0.0
O97 O 0.28286 0.19293 0.4731 0.0
O98 O 0.90578 0.77763 0.67538 0.0
Cd99 Cd 0.95254 0.78352 0.69684 0.0
Cd100 Cd 0.84643 0.72446 0.70512 0.0
O101 O 0.8082 0.7561 0.68402 0.0
O102 O 1.02104 0.84883 0.693 0.0
O103 O 0.93973 0.8654 0.70927 0.0
C104 C 0.98978 0.88731 0.7021 0.0
C105 C 0.81092 0.74168 0.73055 0.0
C106 C 0.84617 0.76995 0.6728 0.0
C107 C 0.96494 0.64574 0.70477 0.0
O108 O 0.90415 0.6448 0.70356 0.0
O109 O 0.99543 0.69859 0.70445 0.0
O110 O 0.77876 0.70562 0.721 0.0
O111 O 0.85898 0.77379 0.72506 0.0
O112 O 0.76774 0.65242 0.85416 0.0
Cd113 Cd 0.76326 0.6018 0.83318 0.0
Cd114 Cd 0.82319 0.70806 0.82462 0.0
O115 O 0.79023 0.74917 0.84519 0.0
O116 O 0.70057 0.53136 0.83788 0.0
O117 O 0.67961 0.60921 0.82099 0.0
C118 C 0.66011 0.55954 0.82864 0.0
C119 C 0.79675 0.73006 0.79871 0.0
C120 C 0.77536 0.71203 0.8565 0.0
C121 C 0.90253 0.59043 0.82578 0.0
O122 O 0.90311 0.65094 0.82713 0.0
O123 O 0.84934 0.5602 0.82559 0.0
O124 O 0.83755 0.76565 0.80616 0.0
O125 O 0.76635 0.68646 0.80651 0.0
O126 O 0.40219 0.26629 0.10384 0.0
Cd127 Cd 0.45019 0.26196 0.08259 0.0
Cd128 Cd 0.34279 0.31981 0.07389 0.0
O129 O 0.30471 0.28845 0.09501 0.0
O130 O 0.51972 0.19739 0.08654 0.0
O131 O 0.43924 0.18023 0.07 0.0
C132 C 0.48934 0.1587 0.07731 0.0
C133 C 0.30933 0.29901 0.04843 0.0
C134 C 0.34251 0.2741 0.10629 0.0
C135 C 0.4603 0.40002 0.07449 0.0
O136 O 0.39941 0.40008 0.07527 0.0
O137 O 0.49185 0.34777 0.07534 0.0
O138 O 0.27653 0.33682 0.05743 0.0
O139 O 0.35714 0.26784 0.05447 0.0
O140 O 0.78401 0.89706 0.35428 0.0
Cd141 Cd 0.78966 0.94764 0.33338 0.0
Cd142 Cd 0.72692 0.84343 0.32421 0.0
O143 O 0.7563 0.80194 0.34514 0.0
O144 O 0.85559 1.01501 0.33799 0.0
O145 O 0.87155 0.9375 0.32068 0.0
C146 C 0.89381 0.98597 0.32839 0.0
C147 C 0.74949 0.813 0.29859 0.0
C148 C 0.77306 0.83796 0.35652 0.0
C149 C 0.65108 0.9641 0.32573 0.0
O150 O 0.64892 0.90338 0.32606 0.0
O151 O 0.70475 0.99324 0.32655 0.0
O152 O 0.7083 0.78142 0.3069 0.0
O153 O 0.7817 0.85834 0.30531 0.0
O154 O 0.14811 0.27576 0.60323 0.0
Cd155 Cd 0.10038 0.2812 0.58184 0.0
Cd156 Cd 0.20882 0.2247 0.57375 0.0
O157 O 0.24669 0.25569 0.5949 0.0
O158 O 0.02942 0.34443 0.58596 0.0
O159 O 0.11001 0.36447 0.56978 0.0
C160 C 0.05935 0.38448 0.57703 0.0
C161 C 0.237 0.25217 0.54823 0.0
C162 C 0.20774 0.26877 0.606 0.0
C163 C 0.09251 0.1427 0.574 0.0
O164 O 0.15321 0.1436 0.57547 0.0
O165 O 0.06066 0.19498 0.57391 0.0
O166 O 0.27093 0.21132 0.55613 0.0
O167 O 0.19065 0.28152 0.55533 0.0
O168 O 0.76589 0.89814 0.42468 0.0
Cd169 Cd 0.75974 0.9495 0.44545 0.0
Cd170 Cd 0.82286 0.84555 0.45491 0.0
O171 O 0.79424 0.80339 0.43403 0.0
O172 O 0.69343 1.01655 0.44063 0.0
O173 O 0.67784 0.93979 0.45816 0.0
C174 C 0.65535 0.98789 0.45031 0.0
C175 C 0.79963 0.81589 0.48055 0.0
C176 C 0.77732 0.83901 0.42257 0.0
C177 C 0.89812 0.9663 0.45325 0.0
O178 O 0.90057 0.90556 0.45308 0.0
O179 O 0.84435 0.99538 0.45226 0.0
O180 O 0.84126 0.78411 0.47239 0.0
O181 O 0.76738 0.86096 0.47367 0.0
O182 O 0.14566 0.26635 0.67504 0.0
Cd183 Cd 0.09884 0.26022 0.6965 0.0
Cd184 Cd 0.20608 0.31734 0.70467 0.0
O185 O 0.24402 0.28551 0.68363 0.0
O186 O 0.02914 0.19589 0.69269 0.0
O187 O 0.11087 0.17786 0.70881 0.0
C188 C 0.06014 0.15682 0.70173 0.0
C189 C 0.23858 0.29718 0.73023 0.0
C190 C 0.20539 0.27275 0.67243 0.0
C191 C 0.08904 0.39788 0.70446 0.0
O192 O 0.14964 0.39766 0.70287 0.0
O193 O 0.0576 0.34559 0.70441 0.0
O194 O 0.27151 0.33491 0.72126 0.0
O195 O 0.19109 0.26593 0.72413 0.0
O196 O 0.77916 0.65193 0.92437 0.0
Cd197 Cd 0.78684 0.59833 0.9448 0.0
Cd198 Cd 0.72497 0.7023 0.95503 0.0
O199 O 0.74892 0.74574 0.93398 0.0
O200 O 0.85198 0.5308 0.93945 0.0
O201 O 0.86992 0.60614 0.95719 0.0
C202 C 0.89118 0.55825 0.94911 0.0
C203 C 0.75321 0.72825 0.98057 0.0
C204 C 0.7663 0.71091 0.92243 0.0
C205 C 0.64937 0.58127 0.95345 0.0
O206 O 0.64735 0.64193 0.9539 0.0
O207 O 0.70268 0.55205 0.95165 0.0
O208 O 0.70836 0.75968 0.97335 0.0
O209 O 0.78692 0.68751 0.97261 0.0
O210 O 0.39929 0.27166 0.17523 0.0
Cd211 Cd 0.44745 0.27734 0.19657 0.0
Cd212 Cd 0.3391 0.22173 0.20483 0.0
O213 O 0.30077 0.25281 0.18371 0.0
O214 O 0.5186 0.34011 0.19242 0.0
O215 O 0.43803 0.36083 0.20856 0.0
C216 C 0.48881 0.38043 0.20133 0.0
C217 C 0.31153 0.24936 0.23037 0.0
C218 C 0.33951 0.26555 0.17256 0.0
C219 C 0.45502 0.13885 0.20451 0.0
O220 O 0.39431 0.14017 0.20306 0.0
O221 O 0.487 0.19092 0.20456 0.0
O222 O 0.2773 0.20877 0.22251 0.0
O223 O 0.35783 0.27838 0.22322 0.0
C224 C 0.99398 1.01722 0.31316 0.0
C225 C 0.96317 1.00359 0.32774 0.0
C226 C 0.06099 0.03445 0.342 0.0
C227 C 0.09423 0.04129 0.32746 0.0
N228 N 0.09493 0.02912 0.29912 0.0
N229 N 0.97393 0.98259 0.35572 0.0
C230 C 0.06142 0.02993 0.31298 0.0
C231 C 0.99857 1.00739 0.34207 0.0
N232 N 0.95859 1.02046 0.29957 0.0
N233 N 0.08744 0.05674 0.35573 0.0
H234 H 0.92971 0.95933 0.35626 0.0
H235 H 1.00062 0.97857 0.36611 0.0
H236 H 0.1316 0.08011 0.35623 0.0
H237 H 0.06219 0.05864 0.36635 0.0
H238 H 0.97707 0.03668 0.28887 0.0
H239 H 0.9092 1.01232 0.29928 0.0
H240 H 0.07501 1.01471 0.28841 0.0
H241 H 0.14429 0.03726 0.29858 0.0
C242 C 1.01725 0.55323 0.56231 0.0
C243 C 1.00521 0.58482 0.57688 0.0
C244 C 0.0351 0.48717 0.59123 0.0
C245 C 0.04055 0.45341 0.57673 0.0
N246 N 0.02709 0.4519 0.54843 0.0
N247 N 0.98613 0.57593 0.60496 0.0
C248 C 0.029 0.4858 0.56222 0.0
C249 C 1.00937 0.55008 0.59127 0.0
N250 N 1.01983 0.58789 0.54864 0.0
N251 N 0.05749 0.46062 0.60495 0.0
H252 H 0.96406 0.62072 0.60549 0.0
H253 H 0.98216 0.54992 0.61542 0.0
H254 H 0.0797 0.41591 0.60547 0.0
H255 H 0.06059 0.48604 0.61552 0.0
H256 H 0.03499 0.56883 0.5379 0.0
H257 H 1.01211 0.6372 0.54828 0.0
H258 H 1.01245 0.47156 0.5377 0.0
H259 H 0.03468 0.40259 0.54795 0.0
C260 C 0.55898 0.52768 0.81381 0.0
C261 C 0.59133 0.53965 0.82832 0.0
C262 C 0.49546 0.50569 0.84282 0.0
C263 C 0.46043 0.50134 0.82845 0.0
N264 N 0.45653 0.51791 0.80025 0.0
N265 N 0.58349 0.55624 0.85654 0.0
C266 C 0.49157 0.51486 0.8139 0.0
C267 C 0.55767 0.53321 0.8428 0.0
N268 N 0.59287 0.52631 0.80001 0.0
N269 N 0.47075 0.48092 0.85647 0.0
H270 H 0.62739 0.58009 0.85706 0.0
H271 H 0.55788 0.55829 0.8671 0.0
H272 H 0.42682 0.45712 0.85697 0.0
H273 H 0.49726 0.47741 0.8669 0.0
H274 H 0.57322 0.51146 0.7893 0.0
H275 H 0.64225 0.53435 0.79952 0.0
H276 H 0.47531 0.53401 0.78958 0.0
H277 H 0.40713 0.50992 0.79989 0.0
C278 C 0.51178 0.05528 0.09131 0.0
C279 C 0.50688 0.08948 0.07685 0.0
C280 C 0.53078 0.99008 0.06236 0.0
C281 C 0.54274 0.95822 0.07692 0.0
N282 N 0.56117 0.96671 0.10506 0.0
N283 N 0.52095 0.09172 0.04859 0.0
C284 C 0.53796 0.99259 0.09134 0.0
C285 C 0.51882 0.0575 0.06233 0.0
N286 N 0.48859 0.08126 0.10499 0.0
N287 N 0.5285 0.95573 0.04864 0.0
H288 H 0.51309 0.141 0.04816 0.0
H289 H 0.53591 0.07237 0.03787 0.0
H290 H 0.53627 0.90644 0.04824 0.0
H291 H 0.51349 0.97501 0.0379 0.0
H292 H 0.48523 0.05548 0.1155 0.0
H293 H 0.46589 0.12574 0.10549 0.0
H294 H 0.56457 0.99257 0.11556 0.0
H295 H 0.58384 0.92222 0.1056 0.0
C296 C 0.05956 0.51389 0.96419 0.0
C297 C 0.0914 0.50107 0.94969 0.0
C298 C 0.99474 0.53385 0.93518 0.0
C299 C 0.9603 0.53925 0.94958 0.0
N300 N 0.95756 0.5238 0.97783 0.0
N301 N 0.08227 0.48205 0.92157 0.0
C302 C 0.99206 0.52644 0.96414 0.0
C303 C 0.05701 0.50625 0.93523 0.0
N304 N 0.09398 0.5164 0.97793 0.0
N305 N 0.96955 0.55784 0.92146 0.0
H306 H 0.12618 0.45803 0.92111 0.0
H307 H 0.05618 0.47919 0.91107 0.0
H308 H 0.92569 0.58192 0.92092 0.0
H309 H 0.99567 0.56048 0.91099 0.0
H310 H 0.07459 0.53194 0.9886 0.0
H311 H 0.14345 0.50866 0.97839 0.0
H312 H 0.97693 0.5083 0.98853 0.0
H313 H 0.90806 0.5313 0.97823 0.0
C314 C 0.51875 0.48144 0.21627 0.0
C315 C 0.50811 0.44918 0.20171 0.0
C316 C 0.54072 0.54573 0.18734 0.0
C317 C 0.54372 0.58042 0.20175 0.0
N318 N 0.52702 0.58342 0.22992 0.0
N319 N 0.49347 0.45669 0.17341 0.0
C320 C 0.53057 0.54882 0.21625 0.0
C321 C 0.51485 0.48297 0.18724 0.0
N322 N 0.51978 0.44747 0.23006 0.0
N323 N 0.56511 0.57152 0.17377 0.0
H324 H 0.47106 0.41219 0.17276 0.0
H325 H 0.49136 0.48218 0.16283 0.0
H326 H 0.58722 0.61623 0.17336 0.0
H327 H 0.56993 0.54553 0.16333 0.0
H328 H 0.5337 0.46702 0.24085 0.0
H329 H 0.51231 0.39816 0.23049 0.0
H330 H 0.51101 0.56438 0.24057 0.0
H331 H 0.53483 0.63267 0.23032 0.0
C332 C 0.48775 0.03476 0.43653 0.0
C333 C 0.45466 0.04309 0.45105 0.0
C334 C 0.55515 1.0203 0.46542 0.0
C335 C 0.5859 1.00542 0.4509 0.0
N336 N 0.57508 0.98186 0.42306 0.0
N337 N 0.45429 0.03332 0.47944 0.0
C338 C 0.55035 1.00782 0.43658 0.0
C339 C 0.48766 0.03301 0.46556 0.0
N340 N 0.46102 0.0556 0.42267 0.0
N341 N 0.59065 0.0247 0.47897 0.0
H342 H 0.40488 0.04132 0.47998 0.0
H343 H 0.47439 1.01989 0.49023 0.0
H344 H 0.64006 1.01649 0.47928 0.0
H345 H 0.57222 0.04189 0.48958 0.0
H346 H 0.48613 0.05642 0.41204 0.0
H347 H 0.41673 0.07885 0.42205 0.0
H348 H 0.54833 0.97673 0.41271 0.0
H349 H 0.61953 0.95882 0.42263 0.0
C350 C 0.0362 0.05343 0.68789 0.0
C351 C 0.04222 0.08777 0.70229 0.0
C352 C 1.01896 0.98877 0.71699 0.0
C353 C 1.00636 0.95669 0.70251 0.0
N354 N 0.9864 0.96452 0.67443 0.0
N355 N 0.02986 0.0906 0.7306 0.0
C356 C 1.01022 0.99076 0.68803 0.0
C357 C 0.03109 0.0561 0.7169 0.0
N358 N 0.05821 0.07923 0.67407 0.0
N359 N 1.02159 0.95467 0.73075 0.0
H360 H 0.03783 0.13984 0.73094 0.0
H361 H 1.01552 0.07155 0.7414 0.0
H362 H 1.0134 0.90549 0.73123 0.0
H363 H 0.03713 0.974 0.74143 0.0
H364 H 0.06085 0.05336 0.66357 0.0
H365 H 0.08063 0.12373 0.67343 0.0
H366 H 0.98218 0.99013 0.66391 0.0
H367 H 0.96412 0.9199 0.67403 0.0
C368 C 0.57351 0.0407 0.31279 0.0
C369 C 0.58972 1.00048 0.32569 0.0
C370 C 0.48359 1.01947 0.33752 0.0
C371 C 0.46835 0.06236 0.32499 0.0
N372 N 0.50374 0.12326 0.30231 0.0
N373 N 0.56639 0.96165 0.35187 0.0
C374 C 0.51488 0.07595 0.31313 0.0
C375 C 0.54629 0.99236 0.33845 0.0
N376 N 0.61291 0.04326 0.29991 0.0
N377 N 0.43856 1.00532 0.34873 0.0
H378 H 0.61246 0.94267 0.3532 0.0
H379 H 0.53991 0.96005 0.36228 0.0
H380 H 0.39454 0.02882 0.34963 0.0
H381 H 0.44346 0.9679 0.35677 0.0
H382 H 0.60003 0.06505 0.28929 0.0
H383 H 0.6568 1.01929 0.29934 0.0
H384 H 0.53863 0.14037 0.29461 0.0
H385 H 0.4612 0.14932 0.3018 0.0
C386 C 0.03409 0.97677 0.56131 0.0
C387 C 0.99889 0.95819 0.57485 0.0
C388 C 1.01996 0.06271 0.58713 0.0
C389 C 0.0589 0.0798 0.57401 0.0
N390 N 0.11324 0.04797 0.55004 0.0
N391 N 0.968 0.97775 0.60186 0.0
C392 C 0.06915 0.03522 0.56154 0.0
C393 C 0.99419 0.99975 0.58808 0.0
N394 N 0.03187 0.93991 0.54797 0.0
N395 N 1.00827 0.10622 0.59885 0.0
H396 H 0.94997 0.93151 0.60316 0.0
H397 H 0.96933 1.00288 0.61247 0.0
H398 H 0.03064 0.1507 0.59951 0.0
H399 H 0.97359 0.09974 0.60755 0.0
H400 H 0.05018 0.95457 0.53712 0.0
H401 H 1.00681 0.89679 0.54737 0.0
H402 H 0.12787 1.01446 0.54167 0.0
H403 H 0.13943 0.09023 0.54961 0.0
C404 C 0.04495 0.48811 0.83891 0.0
C405 C 0.08716 0.49554 0.82589 0.0
C406 C 1.00933 0.56705 0.81296 0.0
C407 C 0.96489 0.55543 0.8254 0.0
N408 N 0.93816 0.50157 0.84978 0.0
N409 N 0.10844 0.5365 0.79983 0.0
C410 C 0.98193 0.51459 0.83819 0.0
C411 C 0.06922 0.53383 0.81276 0.0
N412 N 0.06656 0.45861 0.85237 0.0
N413 N 0.99455 0.61039 0.80139 0.0
H414 H 0.15363 0.51499 0.79951 0.0
H415 H 0.09495 0.55652 0.78907 0.0
H416 H 0.94999 0.63283 0.8005 0.0
H417 H 0.02751 0.62708 0.79314 0.0
H418 H 0.04115 0.45759 0.86294 0.0
H419 H 0.1128 0.43981 0.8535 0.0
H420 H 0.94433 0.46568 0.85818 0.0
H421 H 0.89364 0.52416 0.85061 0.0
C422 C 0.52756 0.55903 0.05999 0.0
C423 C 0.54954 0.58563 0.07445 0.0
C424 C 0.51256 0.49061 0.08886 0.0
C425 C 0.49422 0.46226 0.0743 0.0
N426 N 0.48933 0.46488 0.0459 0.0
N427 N 0.57014 0.57527 0.1024 0.0
C428 C 0.50303 0.49529 0.05981 0.0
C429 C 0.54407 0.55093 0.08882 0.0
N430 N 0.5298 0.59505 0.04651 0.0
N431 N 0.49782 0.46072 0.10277 0.0
H432 H 0.59031 0.62085 0.10311 0.0
H433 H 0.57528 0.54913 0.1128 0.0
H434 H 0.4766 0.41558 0.10331 0.0
H435 H 0.50258 0.48212 0.11381 0.0
H436 H 0.5094 0.58133 0.03581 0.0
H437 H 0.54889 0.64117 0.04624 0.0
H438 H 0.49958 0.48351 0.03479 0.0
H439 H 0.47137 0.41833 0.04545 0.0
C440 C 0.50659 0.48151 0.93977 0.0
C441 C 0.46488 0.48797 0.95295 0.0
C442 C 0.54776 0.54854 0.96719 0.0
C443 C 0.58783 0.54552 0.95364 0.0
N444 N 0.60138 0.5194 0.92608 0.0
N445 N 0.44136 0.53439 0.97836 0.0
C446 C 0.56639 0.51437 0.93969 0.0
C447 C 0.48413 0.52368 0.96641 0.0
N448 N 0.4889 0.44411 0.92723 0.0
N449 N 0.57149 0.57336 0.98096 0.0
H450 H 0.39495 0.51579 0.97835 0.0
H451 H 0.44989 0.56548 0.98773 0.0
H452 H 0.61777 0.59191 0.98191 0.0
H453 H 0.54767 0.57098 0.99174 0.0
H454 H 0.52036 0.43035 0.9183 0.0
H455 H 0.44341 0.42379 0.92608 0.0
H456 H 0.58471 0.50461 0.91507 0.0
H457 H 0.64527 0.54317 0.92544 0.0
C458 C 0.51295 0.97262 0.21732 0.0
C459 C 0.54851 0.95384 0.20384 0.0
C460 C 0.52758 0.05832 0.19146 0.0
C461 C 0.48846 0.07571 0.20454 0.0
N462 N 0.43369 0.04431 0.22848 0.0
N463 N 0.58018 0.97312 0.17688 0.0
C464 C 0.47795 0.03125 0.21702 0.0
C465 C 0.55349 0.99529 0.1906 0.0
N466 N 0.51478 0.93575 0.23066 0.0
N467 N 0.5393 0.10165 0.1797 0.0
H468 H 0.59846 0.92687 0.17565 0.0
H469 H 0.57912 0.99813 0.16624 0.0
H470 H 0.51676 0.14612 0.17898 0.0
H471 H 0.5741 0.09501 0.17104 0.0
H472 H 0.49624 0.95051 0.24148 0.0
H473 H 0.5397 0.89246 0.2313 0.0
H474 H 0.41885 1.01093 0.23684 0.0
H475 H 0.4076 0.08675 0.22887 0.0
C476 C 0.97534 0.04303 0.46615 0.0
C477 C 0.95934 1.00268 0.45328 0.0
C478 C 0.06549 1.0214 0.44147 0.0
C479 C 0.08062 0.06422 0.45401 0.0
N480 N 0.04499 0.12539 0.47663 0.0
N481 N 0.9829 0.96352 0.42714 0.0
C482 C 0.03398 0.07804 0.46583 0.0
C483 C 1.00286 0.99436 0.44054 0.0
N484 N 0.9357 0.04597 0.47899 0.0
N485 N 0.11053 1.0073 0.43025 0.0
H486 H 0.93689 0.94455 0.42581 0.0
H487 H 1.00942 0.96173 0.41674 0.0
H488 H 0.15441 0.03087 0.42932 0.0
H489 H 0.10579 0.96991 0.4222 0.0
H490 H 0.9484 0.06781 0.4896 0.0
H491 H 0.8917 0.02234 0.47951 0.0
H492 H 1.01004 0.14268 0.48431 0.0
H493 H 0.08751 0.1513 0.47715 0.0
C494 C 0.04999 0.49569 0.69044 0.0
C495 C 0.05515 0.46028 0.70471 0.0
C496 C 1.00183 0.54713 0.71922 0.0
C497 C 1.00006 0.58398 0.70512 0.0
N498 N 0.02855 0.59768 0.67773 0.0
N499 N 0.04367 0.45365 0.73296 0.0
C500 C 0.02617 0.55955 0.69086 0.0
C501 C 0.03297 0.48628 0.71919 0.0
N502 N 0.06577 0.46721 0.67641 0.0
N503 N 0.97307 0.57021 0.73257 0.0
H504 H 0.06471 0.40831 0.73328 0.0
H505 H 0.03546 0.47274 0.74413 0.0
H506 H 0.95351 0.61613 0.73325 0.0
H507 H 0.96575 0.54313 0.74273 0.0
H508 H 0.05684 0.48753 0.6654 0.0
H509 H 0.08335 0.42053 0.67564 0.0
H510 H 0.05339 0.58569 0.66749 0.0
H511 H 1.00937 0.6438 0.67736 0.0
C512 C 0.21168 0.23067 0.38036 0.0
C513 C 0.27172 0.23454 0.37262 0.0
C514 C 0.32604 0.25026 0.39807 0.0
C515 C 0.26802 0.23457 0.40579 0.0
N516 N 0.15439 0.21336 0.40495 0.0
N517 N 0.38636 0.25025 0.37354 0.0
C518 C 0.21009 0.22713 0.39712 0.0
C519 C 0.32892 0.24664 0.38129 0.0
N520 N 0.15656 0.22988 0.37156 0.0
N521 N 0.3783 0.26751 0.40687 0.0
H522 H 0.38992 0.24954 0.36126 0.0
H523 H 0.43075 0.25126 0.37921 0.0
H524 H 0.37687 0.26989 0.41919 0.0
H525 H 0.42097 0.28446 0.40207 0.0
H526 H 0.1106 0.23179 0.37634 0.0
H527 H 0.15706 0.23268 0.35924 0.0
H528 H 0.11201 0.1996 0.39938 0.0
H529 H 0.15118 0.21349 0.41725 0.0
C530 C 0.82131 0.83144 0.63154 0.0
C531 C 0.82223 0.77285 0.62305 0.0
C532 C 0.82032 0.71212 0.64776 0.0
C533 C 0.82366 0.77064 0.65624 0.0
N534 N 0.81125 0.88485 0.65696 0.0
N535 N 0.80643 0.65915 0.62238 0.0
C536 C 0.81838 0.83004 0.64832 0.0
C537 C 0.81589 0.71366 0.63099 0.0
N538 N 0.8273 0.88803 0.62356 0.0
N539 N 0.82551 0.65532 0.6557 0.0
H540 H 0.80322 0.6597 0.61007 0.0
H541 H 0.79645 0.61472 0.62733 0.0
H542 H 0.82672 0.65248 0.668 0.0
H543 H 0.83134 0.6112 0.65018 0.0
H544 H 0.83505 0.93194 0.62903 0.0
H545 H 0.82713 0.89078 0.61125 0.0
H546 H 0.80213 0.92957 0.65203 0.0
H547 H 0.80913 0.88448 0.66928 0.0
C548 C 0.33242 0.29902 0.88025 0.0
C549 C 0.27241 0.30665 0.87261 0.0
C550 C 0.21711 0.29951 0.89808 0.0
C551 C 0.27725 0.30456 0.90577 0.0
N552 N 0.39288 0.30576 0.90476 0.0
N553 N 0.15682 0.31124 0.87366 0.0
C554 C 0.33531 0.30163 0.89704 0.0
C555 C 0.21429 0.30437 0.88133 0.0
N556 N 0.38641 0.29029 0.87135 0.0
N557 N 0.16295 0.29116 0.90692 0.0
H558 H 0.15305 0.31279 0.86137 0.0
H559 H 0.11315 0.318 0.87938 0.0
H560 H 0.1646 0.28755 0.91922 0.0
H561 H 0.11772 0.28235 0.90215 0.0
H562 H 0.43139 0.27965 0.87606 0.0
H563 H 0.3848 0.28836 0.85903 0.0
H564 H 0.43675 0.31197 0.89911 0.0
H565 H 0.39655 0.3054 0.91706 0.0
C566 C 0.7287 0.70907 0.13125 0.0
C567 C 0.72767 0.76805 0.12292 0.0
C568 C 0.73128 0.82764 0.14778 0.0
C569 C 0.72815 0.76875 0.15612 0.0
N570 N 0.74025 0.65451 0.1565 0.0
N571 N 0.7443 0.88166 0.12253 0.0
C572 C 0.73277 0.70971 0.14803 0.0
C573 C 0.73486 0.82683 0.131 0.0
N574 N 0.72165 0.65287 0.12316 0.0
N575 N 0.72654 0.88409 0.15587 0.0
H576 H 0.74687 0.8817 0.11021 0.0
H577 H 0.75495 0.92575 0.1276 0.0
H578 H 0.72601 0.88642 0.16818 0.0
H579 H 0.72036 0.92843 0.15047 0.0
H580 H 0.71392 0.60882 0.12855 0.0
H581 H 0.72076 0.6506 0.11085 0.0
H582 H 0.74891 0.60998 0.15143 0.0
H583 H 0.74321 0.65439 0.16882 0.0
C584 C 0.7094 0.73179 0.88043 0.0
C585 C 0.76989 0.73582 0.8729 0.0
C586 C 0.8224 0.75196 0.89855 0.0
C587 C 0.76418 0.73534 0.90606 0.0
N588 N 0.65091 0.71274 0.90477 0.0
N589 N 0.88434 0.75251 0.87428 0.0
C590 C 0.70683 0.72773 0.89718 0.0
C591 C 0.82641 0.74847 0.88179 0.0
N592 N 0.6548 0.73107 0.87144 0.0
N593 N 0.87381 0.76988 0.90757 0.0
H594 H 0.88877 0.7518 0.86202 0.0
H595 H 0.92831 0.75389 0.88014 0.0
H596 H 0.87132 0.77235 0.91987 0.0
H597 H 0.91655 0.78744 0.90294 0.0
H598 H 0.60859 0.73288 0.87608 0.0
H599 H 0.65607 0.73422 0.85913 0.0
H600 H 0.6091 0.69865 0.89899 0.0
H601 H 0.64705 0.71205 0.91705 0.0
C602 C 0.30589 0.3243 0.14828 0.0
C603 C 0.31788 0.2653 0.15593 0.0
C604 C 0.31955 0.21014 0.13038 0.0
C605 C 0.31938 0.27041 0.12276 0.0
N606 N 0.31062 0.38537 0.12391 0.0
N607 N 0.33317 0.15111 0.15489 0.0
C608 C 0.31041 0.32767 0.13153 0.0
C609 C 0.32245 0.20762 0.14716 0.0
N610 N 0.29116 0.37695 0.15715 0.0
N611 N 0.31753 0.15563 0.12147 0.0
H612 H 0.33274 0.14741 0.16718 0.0
H613 H 0.34487 0.10843 0.14925 0.0
H614 H 0.31526 0.15681 0.10915 0.0
H615 H 0.31272 0.10987 0.12616 0.0
H616 H 0.27685 0.42062 0.15238 0.0
H617 H 0.28802 0.3751 0.16945 0.0
H618 H 0.31217 0.42931 0.12968 0.0
H619 H 0.31209 0.38943 0.11163 0.0
C620 C 0.83355 0.80861 0.38083 0.0
C621 C 0.77379 0.81424 0.37297 0.0
C622 C 0.71737 0.80801 0.39831 0.0
C623 C 0.777 0.81478 0.40616 0.0
N624 N 0.89265 0.81921 0.40545 0.0
N625 N 0.65807 0.81704 0.37368 0.0
C626 C 0.83554 0.81277 0.3976 0.0
C627 C 0.7153 0.81163 0.38154 0.0
N628 N 0.88816 0.80019 0.37214 0.0
N629 N 0.66292 0.79905 0.40702 0.0
H630 H 0.65479 0.81771 0.36139 0.0
H631 H 0.61407 0.82361 0.37927 0.0
H632 H 0.66391 0.79638 0.41934 0.0
H633 H 0.6182 0.7888 0.40213 0.0
H634 H 0.93308 0.79081 0.37705 0.0
H635 H 0.88725 0.79712 0.35983 0.0
H636 H 0.93653 0.82625 0.39985 0.0
H637 H 0.89588 0.82024 0.41774 0.0
C638 C 0.22463 0.33193 0.64729 0.0
C639 C 0.2272 0.27354 0.65584 0.0
C640 C 0.23588 0.21281 0.63121 0.0
C641 C 0.22925 0.2709 0.62264 0.0
N642 N 0.23358 0.38565 0.62188 0.0
N643 N 0.25094 0.16113 0.65673 0.0
C644 C 0.2294 0.33057 0.63053 0.0
C645 C 0.23852 0.21481 0.64801 0.0
N646 N 0.21399 0.38809 0.65516 0.0
N647 N 0.23543 0.15574 0.62332 0.0
H648 H 0.25267 0.16189 0.66906 0.0
H649 H 0.26468 0.11747 0.65188 0.0
H650 H 0.23558 0.1527 0.61102 0.0
H651 H 0.23219 0.1114 0.62885 0.0
H652 H 0.20363 0.43133 0.64961 0.0
H653 H 0.21291 0.391 0.66747 0.0
H654 H 0.23888 0.43094 0.62682 0.0
H655 H 0.23718 0.3853 0.60958 0.0
C656 C 0.25729 0.28523 0.27264 0.0
C657 C 0.29538 0.23985 0.28091 0.0
C658 C 0.35007 0.21076 0.25646 0.0
C659 C 0.30765 0.25076 0.24782 0.0
N660 N 0.21669 0.32198 0.24718 0.0
N661 N 0.36585 0.14796 0.28003 0.0
C662 C 0.25976 0.28684 0.25576 0.0
C663 C 0.33804 0.19915 0.27262 0.0
N664 N 0.21945 0.32683 0.2809 0.0
N665 N 0.40303 0.18492 0.24936 0.0
H666 H 0.35733 0.13655 0.29182 0.0
H667 H 0.39204 0.11301 0.27406 0.0
H668 H 0.41458 0.19276 0.23755 0.0
H669 H 0.439 0.16098 0.2556 0.0
H670 H 0.19523 0.36514 0.27573 0.0
H671 H 0.21526 0.32496 0.29317 0.0
H672 H 0.17676 0.34442 0.2521 0.0
H673 H 0.21911 0.32567 0.2349 0.0
C674 C 0.77094 0.75886 0.50582 0.0
C675 C 0.80013 0.81125 0.49799 0.0
C676 C 0.83263 0.85734 0.5234 0.0
C677 C 0.80675 0.80312 0.53125 0.0
N678 N 0.75751 0.6991 0.53028 0.0
N679 N 0.8688 0.90417 0.49884 0.0
C680 C 0.77771 0.7528 0.52255 0.0
C681 C 0.83337 0.85903 0.50666 0.0
N682 N 0.73563 0.71597 0.49727 0.0
N683 N 0.85684 0.90741 0.53197 0.0
H684 H 0.87091 0.90737 0.48656 0.0
H685 H 0.90065 0.93524 0.5044 0.0
H686 H 0.86221 0.90665 0.54421 0.0
H687 H 0.86814 0.95167 0.52707 0.0
H688 H 0.70794 0.67996 0.5023 0.0
H689 H 0.73065 0.71907 0.48502 0.0
H690 H 0.74185 0.65783 0.5246 0.0
H691 H 0.75986 0.69446 0.54255 0.0
C692 C 0.22157 0.35568 0.75549 0.0
C693 C 0.24571 0.3007 0.7476 0.0
C694 C 0.27869 0.2542 0.77303 0.0
C695 C 0.25064 0.30724 0.78089 0.0
N696 N 0.18423 0.40203 0.77998 0.0
N697 N 0.29124 0.1948 0.74848 0.0
C698 C 0.21943 0.35646 0.77222 0.0
C699 C 0.27254 0.24898 0.75627 0.0
N700 N 0.2002 0.40731 0.747 0.0
N701 N 0.31235 0.20987 0.78157 0.0
H702 H 0.28952 0.19073 0.7362 0.0
H703 H 0.30504 0.15273 0.75414 0.0
H704 H 0.31692 0.2124 0.79384 0.0
H705 H 0.33923 0.17318 0.77653 0.0
H706 H 0.19035 0.45171 0.75203 0.0
H707 H 0.19599 0.40765 0.73473 0.0
H708 H 0.15368 0.43423 0.77432 0.0
H709 H 0.18061 0.40428 0.79225 0.0
C710 C 0.77381 0.78966 1.00573 0.0
C711 C 0.75807 0.73126 0.99804 0.0
C712 C 0.72877 0.68339 0.02346 0.0
C713 C 0.74821 0.74024 0.03128 0.0
N714 N 0.79633 0.84468 0.03049 0.0
N715 N 0.7308 0.61872 0.99987 0.0
C716 C 0.77274 0.79273 0.02258 0.0
C717 C 0.73945 0.67684 1.00701 0.0
N718 N 0.78922 0.84214 0.99689 0.0
N719 N 0.69564 0.63725 0.03153 0.0
H720 H 0.73241 0.61146 0.98772 0.0
H721 H 0.72623 0.57612 1.00616 0.0
H722 H 0.68517 0.6401 0.04355 0.0
H723 H 0.67271 0.59891 0.02606 0.0
H724 H 0.79408 0.88799 1.00153 0.0
H725 H 0.7945 0.8403 0.98464 0.0
H726 H 0.82052 0.88219 0.02504 0.0
H727 H 0.79564 0.84815 0.04278 0.0
C728 C 0.32151 0.35757 0.02297 0.0
C729 C 0.30106 0.30164 0.03107 0.0
C730 C 0.27091 0.25203 1.00579 0.0
C731 C 0.29578 0.30606 0.99773 0.0
N732 N 0.35684 0.40422 0.99836 0.0
N733 N 0.26206 0.19328 0.03052 0.0
C734 C 0.32385 0.35746 1.00624 0.0
C735 C 0.27744 0.24804 0.02256 0.0
N736 N 0.33958 0.41088 0.03125 0.0
N737 N 0.23974 0.20554 0.99742 0.0
H738 H 0.26368 0.19 0.04282 0.0
H739 H 0.25107 0.15019 0.02499 0.0
H740 H 0.23471 0.20729 0.98516 0.0
H741 H 0.21506 0.16776 1.00261 0.0
H742 H 0.34617 0.45552 0.02603 0.0
H743 H 0.34429 0.4122 0.0435 0.0
H744 H 0.38536 0.43826 1.00397 0.0
H745 H 0.3611 0.40578 0.98611 0.0
C746 C 0.77852 0.75593 0.27333 0.0
C747 C 0.74834 0.80788 0.28116 0.0
C748 C 0.71394 0.85288 0.25575 0.0
C749 C 0.74097 0.7991 0.24792 0.0
N750 N 0.79272 0.6961 0.2489 0.0
N751 N 0.67753 0.89948 0.28034 0.0
C752 C 0.77145 0.7495 0.25662 0.0
C753 C 0.71367 0.85484 0.2725 0.0
N754 N 0.81503 0.71384 0.28187 0.0
N755 N 0.68831 0.90232 0.24717 0.0
H756 H 0.67587 0.90295 0.29261 0.0
H757 H 0.64479 0.92985 0.27481 0.0
H758 H 0.68276 0.90127 0.23493 0.0
H759 H 0.67598 0.9464 0.25204 0.0
H760 H 0.8434 0.67828 0.27683 0.0
H761 H 0.82021 0.71718 0.2941 0.0
H762 H 0.80959 0.65525 0.25459 0.0
H763 H 0.79004 0.69121 0.23664 0.0
C764 C 0.29189 0.28749 0.50599 0.0
C765 C 0.25383 0.24227 0.49771 0.0
C766 C 0.19878 0.21367 0.52213 0.0
C767 C 0.24114 0.25348 0.53078 0.0
N768 N 0.33222 0.32418 0.53146 0.0
N769 N 0.1834 0.15064 0.4986 0.0
C770 C 0.2892 0.28923 0.52286 0.0
C771 C 0.21106 0.20182 0.50599 0.0
N772 N 0.32988 0.32882 0.49773 0.0
N773 N 0.14563 0.18824 0.52918 0.0
H774 H 0.19214 0.13905 0.48683 0.0
H775 H 0.15712 0.11587 0.50458 0.0
H776 H 0.13385 0.19631 0.54097 0.0
H777 H 0.10973 0.16446 0.52292 0.0
H778 H 0.35411 0.36702 0.5029 0.0
H779 H 0.3342 0.32685 0.48546 0.0
H780 H 0.37223 0.34637 0.52656 0.0
H781 H 0.32964 0.32795 0.54373 0.0
C782 C 0.78293 0.79354 0.75657 0.0
C783 C 0.8 0.73801 0.74785 0.0
C784 C 0.81309 0.67732 0.77249 0.0
C785 C 0.79316 0.73198 0.7812 0.0
N786 N 0.74946 0.8386 0.78175 0.0
N787 N 0.82316 0.62432 0.74727 0.0
C788 C 0.77541 0.78923 0.77329 0.0
C789 C 0.81177 0.67899 0.75573 0.0
N790 N 0.77445 0.85042 0.74885 0.0
N791 N 0.83818 0.62521 0.78016 0.0
H792 H 0.83056 0.62328 0.73512 0.0
H793 H 0.82191 0.57873 0.75223 0.0
H794 H 0.84064 0.62093 0.7924 0.0
H795 H 0.8621 0.58804 0.77446 0.0
H796 H 0.76946 0.89421 0.75458 0.0
H797 H 0.77553 0.85436 0.73657 0.0
H798 H 0.72978 0.87949 0.77664 0.0
H799 H 0.74279 0.8364 0.79395 0.0
loop_
_geom_bond_atom_site_label_1
_geom_bond_atom_site_label_2
_geom_bond_distance
_geom_bond_site_symmetry_2
_ccdc_geom_bond_type
O0 Cd1 2.223 . S
O0 C8 1.315 . S
Cd1 O0 2.223 . S
Cd1 O4 2.297 . S
Cd1 O5 2.439 . S
Cd1 O11 2.240 . S
Cd2 O3 2.240 . S
Cd2 O10 2.223 . S
Cd2 O12 2.297 . S
Cd2 O13 2.439 . S
O3 Cd2 2.240 . S
O3 C8 1.279 . S
O4 Cd1 2.297 . S
O4 C6 1.247 . S
O5 Cd1 2.439 . S
O5 C6 1.208 . S
C6 O4 1.247 . S
C6 O5 1.208 . S
C7 O12 1.247 . S
C7 O13 1.208 . S
C8 O0 1.315 . S
C8 O3 1.279 . S
C9 O10 1.315 . S
C9 O11 1.279 . S
O10 Cd2 2.223 . S
O10 C9 1.315 . S
O11 Cd1 2.240 . S
O11 C9 1.279 . S
O12 Cd2 2.297 . S
O12 C7 1.247 . S
O13 Cd2 2.439 . S
O13 C7 1.208 . S
O14 Cd15 2.223 . S
O14 C22 1.315 . S
Cd15 O14 2.223 . S
Cd15 O18 2.297 . S
Cd15 O19 2.439 . S
Cd15 O25 2.240 . S
Cd16 O17 2.240 . S
Cd16 O24 2.223 . S
Cd16 O26 2.297 . S
Cd16 O27 2.439 . S
O17 Cd16 2.240 . S
O17 C22 1.279 . S
O18 Cd15 2.297 . S
O18 C20 1.247 . S
O19 Cd15 2.439 . S
O19 C20 1.208 . S
C20 O18 1.247 . S
C20 O19 1.208 . S
C21 O26 1.247 . S
C21 O27 1.208 . S
C22 O14 1.315 . S
C22 O17 1.279 . S
C23 O24 1.315 . S
C23 O25 1.279 . S
O24 Cd16 2.223 . S
O24 C23 1.315 . S
O25 Cd15 2.240 . S
O25 C23 1.279 . S
O26 Cd16 2.297 . S
O26 C21 1.247 . S
O27 Cd16 2.439 . S
O27 C21 1.208 . S
O28 Cd29 2.223 . S
O28 C36 1.315 . S
Cd29 O28 2.223 . S
Cd29 O32 2.297 . S
Cd29 O33 2.439 . S
Cd29 O39 2.240 . S
Cd30 O31 2.240 . S
Cd30 O38 2.223 . S
Cd30 O40 2.297 . S
Cd30 O41 2.439 . S
O31 Cd30 2.240 . S
O31 C36 1.279 . S
O32 Cd29 2.297 . S
O32 C34 1.247 . S
O33 Cd29 2.439 . S
O33 C34 1.208 . S
C34 O32 1.247 . S
C34 O33 1.208 . S
C35 O40 1.247 . S
C35 O41 1.208 . S
C36 O28 1.315 . S
C36 O31 1.279 . S
C37 O38 1.315 . S
C37 O39 1.279 . S
O38 Cd30 2.223 . S
O38 C37 1.315 . S
O39 Cd29 2.240 . S
O39 C37 1.279 . S
O40 Cd30 2.297 . S
O40 C35 1.247 . S
O41 Cd30 2.439 . S
O41 C35 1.208 . S
O42 Cd43 2.223 . S
O42 C50 1.315 . S
Cd43 O42 2.223 . S
Cd43 O46 2.297 . S
Cd43 O47 2.439 . S
Cd43 O53 2.240 . S
Cd44 O45 2.240 . S
Cd44 O52 2.223 . S
Cd44 O54 2.297 . S
Cd44 O55 2.439 . S
O45 Cd44 2.240 . S
O45 C50 1.279 . S
O46 Cd43 2.297 . S
O46 C48 1.247 . S
O47 Cd43 2.439 . S
O47 C48 1.208 . S
C48 O46 1.247 . S
C48 O47 1.208 . S
C49 O54 1.247 . S
C49 O55 1.208 . S
C50 O42 1.315 . S
C50 O45 1.279 . S
C51 O52 1.315 . S
C51 O53 1.279 . S
O52 Cd44 2.223 . S
O52 C51 1.315 . S
O53 Cd43 2.240 . S
O53 C51 1.279 . S
O54 Cd44 2.297 . S
O54 C49 1.247 . S
O55 Cd44 2.439 . S
O55 C49 1.208 . S
O56 Cd57 2.223 . S
O56 C64 1.315 . S
Cd57 O56 2.223 . S
Cd57 O60 2.297 . S
Cd57 O61 2.439 . S
Cd57 O67 2.240 . S
Cd58 O59 2.240 . S
Cd58 O66 2.223 . S
Cd58 O68 2.297 . S
Cd58 O69 2.439 . S
O59 Cd58 2.240 . S
O59 C64 1.279 . S
O60 Cd57 2.297 . S
O60 C62 1.247 . S
O61 Cd57 2.439 . S
O61 C62 1.208 . S
C62 O60 1.247 . S
C62 O61 1.208 . S
C63 O68 1.247 . S
C63 O69 1.208 . S
C64 O56 1.315 . S
C64 O59 1.279 . S
C65 O66 1.315 . S
C65 O67 1.279 . S
O66 Cd58 2.223 . S
O66 C65 1.315 . S
O67 Cd57 2.240 . S
O67 C65 1.279 . S
O68 Cd58 2.297 . S
O68 C63 1.247 . S
O69 Cd58 2.439 . S
O69 C63 1.208 . S
O70 Cd71 2.223 . S
O70 C78 1.315 . S
Cd71 O70 2.223 . S
Cd71 O74 2.297 . S
Cd71 O75 2.439 . S
Cd71 O81 2.240 . S
Cd72 O73 2.240 . S
Cd72 O80 2.223 . S
Cd72 O82 2.297 . S
Cd72 O83 2.439 . S
O73 Cd72 2.240 . S
O73 C78 1.279 . S
O74 Cd71 2.297 . S
O74 C76 1.247 . S
O75 Cd71 2.439 . S
O75 C76 1.208 . S
C76 O74 1.247 . S
C76 O75 1.208 . S
C77 O82 1.247 . S
C77 O83 1.208 . S
C78 O70 1.315 . S
C78 O73 1.279 . S
C79 O80 1.315 . S
C79 O81 1.279 . S
O80 Cd72 2.223 . S
O80 C79 1.315 . S
O81 Cd71 2.240 . S
O81 C79 1.279 . S
O82 Cd72 2.297 . S
O82 C77 1.247 . S
O83 Cd72 2.439 . S
O83 C77 1.208 . S
O84 Cd85 2.223 . S
O84 C92 1.315 . S
Cd85 O84 2.223 . S
Cd85 O88 2.297 . S
Cd85 O89 2.439 . S
Cd85 O95 2.240 . S
Cd86 O87 2.240 . S
Cd86 O94 2.223 . S
Cd86 O96 2.297 . S
Cd86 O97 2.439 . S
O87 Cd86 2.240 . S
O87 C92 1.279 . S
O88 Cd85 2.297 . S
O88 C90 1.247 . S
O89 Cd85 2.439 . S
O89 C90 1.208 . S
C90 O88 1.247 . S
C90 O89 1.208 . S
C91 O96 1.247 . S
C91 O97 1.208 . S
C92 O84 1.315 . S
C92 O87 1.279 . S
C93 O94 1.315 . S
C93 O95 1.279 . S
O94 Cd86 2.223 . S
O94 C93 1.315 . S
O95 Cd85 2.240 . S
O95 C93 1.279 . S
O96 Cd86 2.297 . S
O96 C91 1.247 . S
O97 Cd86 2.439 . S
O97 C91 1.208 . S
O98 Cd99 2.223 . S
O98 C106 1.315 . S
Cd99 O98 2.223 . S
Cd99 O102 2.297 . S
Cd99 O103 2.439 . S
Cd99 O109 2.240 . S
Cd100 O101 2.240 . S
Cd100 O108 2.223 . S
Cd100 O110 2.297 . S
Cd100 O111 2.439 . S
O101 Cd100 2.240 . S
O101 C106 1.279 . S
O102 Cd99 2.297 . S
O102 C104 1.247 . S
O103 Cd99 2.439 . S
O103 C104 1.208 . S
C104 O102 1.247 . S
C104 O103 1.208 . S
C105 O110 1.247 . S
C105 O111 1.208 . S
C106 O98 1.315 . S
C106 O101 1.279 . S
C107 O108 1.315 . S
C107 O109 1.279 . S
O108 Cd100 2.223 . S
O108 C107 1.315 . S
O109 Cd99 2.240 . S
O109 C107 1.279 . S
O110 Cd100 2.297 . S
O110 C105 1.247 . S
O111 Cd100 2.439 . S
O111 C105 1.208 . S
O112 Cd113 2.223 . S
O112 C120 1.315 . S
Cd113 O112 2.223 . S
Cd113 O116 2.297 . S
Cd113 O117 2.439 . S
Cd113 O123 2.240 . S
Cd114 O115 2.240 . S
Cd114 O122 2.223 . S
Cd114 O124 2.297 . S
Cd114 O125 2.439 . S
O115 Cd114 2.240 . S
O115 C120 1.279 . S
O116 Cd113 2.297 . S
O116 C118 1.247 . S
O117 Cd113 2.439 . S
O117 C118 1.208 . S
C118 O116 1.247 . S
C118 O117 1.208 . S
C119 O124 1.247 . S
C119 O125 1.208 . S
C120 O112 1.315 . S
C120 O115 1.279 . S
C121 O122 1.315 . S
C121 O123 1.279 . S
O122 Cd114 2.223 . S
O122 C121 1.315 . S
O123 Cd113 2.240 . S
O123 C121 1.279 . S
O124 Cd114 2.297 . S
O124 C119 1.247 . S
O125 Cd114 2.439 . S
O125 C119 1.208 . S
O126 Cd127 2.223 . S
O126 C134 1.315 . S
Cd127 O126 2.223 . S
Cd127 O130 2.297 . S
Cd127 O131 2.439 . S
Cd127 O137 2.240 . S
Cd128 O129 2.240 . S
Cd128 O136 2.223 . S
Cd128 O138 2.297 . S
Cd128 O139 2.439 . S
O129 Cd128 2.240 . S
O129 C134 1.279 . S
O130 Cd127 2.297 . S
O130 C132 1.247 . S
O131 Cd127 2.439 . S
O131 C132 1.208 . S
C132 O130 1.247 . S
C132 O131 1.208 . S
C133 O138 1.247 . S
C133 O139 1.208 . S
C134 O126 1.315 . S
C134 O129 1.279 . S
C135 O136 1.315 . S
C135 O137 1.279 . S
O136 Cd128 2.223 . S
O136 C135 1.315 . S
O137 Cd127 2.240 . S
O137 C135 1.279 . S
O138 Cd128 2.297 . S
O138 C133 1.247 . S
O139 Cd128 2.439 . S
O139 C133 1.208 . S
O140 Cd141 2.223 . S
O140 C148 1.315 . S
Cd141 O140 2.223 . S
Cd141 O144 2.297 . S
Cd141 O145 2.439 . S
Cd141 O151 2.240 . S
Cd142 O143 2.240 . S
Cd142 O150 2.223 . S
Cd142 O152 2.297 . S
Cd142 O153 2.439 . S
O143 Cd142 2.240 . S
O143 C148 1.279 . S
O144 Cd141 2.297 . S
O144 C146 1.247 . S
O145 Cd141 2.439 . S
O145 C146 1.208 . S
C146 O144 1.247 . S
C146 O145 1.208 . S
C147 O152 1.247 . S
C147 O153 1.208 . S
C148 O140 1.315 . S
C148 O143 1.279 . S
C149 O150 1.315 . S
C149 O151 1.279 . S
O150 Cd142 2.223 . S
O150 C149 1.315 . S
O151 Cd141 2.240 . S
O151 C149 1.279 . S
O152 Cd142 2.297 . S
O152 C147 1.247 . S
O153 Cd142 2.439 . S
O153 C147 1.208 . S
O154 Cd155 2.223 . S
O154 C162 1.315 . S
Cd155 O154 2.223 . S
Cd155 O158 2.297 . S
Cd155 O159 2.439 . S
Cd155 O165 2.240 . S
Cd156 O157 2.240 . S
Cd156 O164 2.223 . S
Cd156 O166 2.297 . S
Cd156 O167 2.439 . S
O157 Cd156 2.240 . S
O157 C162 1.279 . S
O158 Cd155 2.297 . S
O158 C160 1.247 . S
O159 Cd155 2.439 . S
O159 C160 1.208 . S
C160 O158 1.247 . S
C160 O159 1.208 . S
C161 O166 1.247 . S
C161 O167 1.208 . S
C162 O154 1.315 . S
C162 O157 1.279 . S
C163 O164 1.315 . S
C163 O165 1.279 . S
O164 Cd156 2.223 . S
O164 C163 1.315 . S
O165 Cd155 2.240 . S
O165 C163 1.279 . S
O166 Cd156 2.297 . S
O166 C161 1.247 . S
O167 Cd156 2.439 . S
O167 C161 1.208 . S
O168 Cd169 2.223 . S
O168 C176 1.315 . S
Cd169 O168 2.223 . S
Cd169 O172 2.297 . S
Cd169 O173 2.439 . S
Cd169 O179 2.240 . S
Cd170 O171 2.240 . S
Cd170 O178 2.223 . S
Cd170 O180 2.297 . S
Cd170 O181 2.439 . S
O171 Cd170 2.240 . S
O171 C176 1.279 . S
O172 Cd169 2.297 . S
O172 C174 1.247 . S
O173 Cd169 2.439 . S
O173 C174 1.208 . S
C174 O172 1.247 . S
C174 O173 1.208 . S
C175 O180 1.247 . S
C175 O181 1.208 . S
C176 O168 1.315 . S
C176 O171 1.279 . S
C177 O178 1.315 . S
C177 O179 1.279 . S
O178 Cd170 2.223 . S
O178 C177 1.315 . S
O179 Cd169 2.240 . S
O179 C177 1.279 . S
O180 Cd170 2.297 . S
O180 C175 1.247 . S
O181 Cd170 2.439 . S
O181 C175 1.208 . S
O182 Cd183 2.223 . S
O182 C190 1.315 . S
Cd183 O182 2.223 . S
Cd183 O186 2.297 . S
Cd183 O187 2.439 . S
Cd183 O193 2.240 . S
Cd184 O185 2.240 . S
Cd184 O192 2.223 . S
Cd184 O194 2.297 . S
Cd184 O195 2.439 . S
O185 Cd184 2.240 . S
O185 C190 1.279 . S
O186 Cd183 2.297 . S
O186 C188 1.247 . S
O187 Cd183 2.439 . S
O187 C188 1.208 . S
C188 O186 1.247 . S
C188 O187 1.208 . S
C189 O194 1.247 . S
C189 O195 1.208 . S
C190 O182 1.315 . S
C190 O185 1.279 . S
C191 O192 1.315 . S
C191 O193 1.279 . S
O192 Cd184 2.223 . S
O192 C191 1.315 . S
O193 Cd183 2.240 . S
O193 C191 1.279 . S
O194 Cd184 2.297 . S
O194 C189 1.247 . S
O195 Cd184 2.439 . S
O195 C189 1.208 . S
O196 Cd197 2.223 . S
O196 C204 1.315 . S
Cd197 O196 2.223 . S
Cd197 O200 2.297 . S
Cd197 O201 2.439 . S
Cd197 O207 2.240 . S
Cd198 O199 2.240 . S
Cd198 O206 2.223 . S
Cd198 O208 2.297 . S
Cd198 O209 2.439 . S
O199 Cd198 2.240 . S
O199 C204 1.279 . S
O200 Cd197 2.297 . S
O200 C202 1.247 . S
O201 Cd197 2.439 . S
O201 C202 1.208 . S
C202 O200 1.247 . S
C202 O201 1.208 . S
C203 O208 1.247 . S
C203 O209 1.208 . S
C204 O196 1.315 . S
C204 O199 1.279 . S
C205 O206 1.315 . S
C205 O207 1.279 . S
O206 Cd198 2.223 . S
O206 C205 1.315 . S
O207 Cd197 2.240 . S
O207 C205 1.279 . S
O208 Cd198 2.297 . S
O208 C203 1.247 . S
O209 Cd198 2.439 . S
O209 C203 1.208 . S
O210 Cd211 2.223 . S
O210 C218 1.315 . S
Cd211 O210 2.223 . S
Cd211 O214 2.297 . S
Cd211 O215 2.439 . S
Cd211 O221 2.240 . S
Cd212 O213 2.240 . S
Cd212 O220 2.223 . S
Cd212 O222 2.297 . S
Cd212 O223 2.439 . S
O213 Cd212 2.240 . S
O213 C218 1.279 . S
O214 Cd211 2.297 . S
O214 C216 1.247 . S
O215 Cd211 2.439 . S
O215 C216 1.208 . S
C216 O214 1.247 . S
C216 O215 1.208 . S
C217 O222 1.247 . S
C217 O223 1.208 . S
C218 O210 1.315 . S
C218 O213 1.279 . S
C219 O220 1.315 . S
C219 O221 1.279 . S
O220 Cd212 2.223 . S
O220 C219 1.315 . S
O221 Cd211 2.240 . S
O221 C219 1.279 . S
O222 Cd212 2.297 . S
O222 C217 1.247 . S
O223 Cd212 2.439 . S
O223 C217 1.208 . S
C224 C225 1.363 . S
C224 C230 1.379 1_655 S
C224 N232 1.356 . S
C225 C224 1.363 . S
C225 C231 1.363 1_565 S
C226 C227 1.363 . S
C226 C231 1.379 1_455 S
C226 N233 1.356 . S
C227 C226 1.363 . S
C227 C230 1.363 1_545 S
N228 C230 1.356 . S
N228 H240 0.984 . S
N228 H241 0.985 1_565 S
N229 C231 1.356 . S
N229 H234 0.984 1_545 S
N229 H235 0.985 . S
C230 C224 1.379 1_455 S
C230 C227 1.363 1_565 S
C230 N228 1.356 . S
C231 C225 1.363 1_545 S
C231 C226 1.379 1_655 S
C231 N229 1.356 . S
N232 C224 1.356 . S
N232 H238 0.984 . S
N232 H239 0.984 . S
N233 C226 1.356 . S
N233 H236 0.984 . S
N233 H237 0.985 . S
H234 N229 0.984 1_565 S
H235 N229 0.985 . S
H236 N233 0.984 . S
H237 N233 0.985 . S
H238 N232 0.984 . S
H239 N232 0.984 . S
H240 N228 0.984 . S
H241 N228 0.985 1_545 S
C242 C243 1.363 . S
C242 C248 1.379 . S
C242 N250 1.356 . S
C243 C242 1.363 . S
C243 C249 1.363 1_655 S
C244 C245 1.363 . S
C244 C249 1.379 . S
C244 N251 1.356 . S
C245 C244 1.363 . S
C245 C248 1.363 1_455 S
N246 C248 1.356 . S
N246 H258 0.984 . S
N246 H259 0.985 1_655 S
N247 C249 1.356 . S
N247 H252 0.984 1_455 S
N247 H253 0.985 . S
C248 C242 1.379 . S
C248 C245 1.363 1_655 S
C248 N246 1.356 . S
C249 C243 1.363 1_455 S
C249 C244 1.379 . S
C249 N247 1.356 . S
N250 C242 1.356 . S
N250 H256 0.984 . S
N250 H257 0.984 . S
N251 C244 1.356 . S
N251 H254 0.984 . S
N251 H255 0.985 . S
H252 N247 0.984 1_655 S
H253 N247 0.985 . S
H254 N251 0.984 . S
H255 N251 0.985 . S
H256 N250 0.984 . S
H257 N250 0.984 . S
H258 N246 0.984 . S
H259 N246 0.985 1_455 S
C260 C261 1.363 . S
C260 C266 1.379 . S
C260 N268 1.356 . S
C261 C260 1.363 . S
C261 C267 1.363 . S
C262 C263 1.363 . S
C262 C267 1.379 . S
C262 N269 1.356 . S
C263 C262 1.363 . S
C263 C266 1.363 . S
N264 C266 1.356 . S
N264 H276 0.984 . S
N264 H277 0.985 . S
N265 C267 1.356 . S
N265 H270 0.984 . S
N265 H271 0.985 . S
C266 C260 1.379 . S
C266 C263 1.363 . S
C266 N264 1.356 . S
C267 C261 1.363 . S
C267 C262 1.379 . S
C267 N265 1.356 . S
N268 C260 1.356 . S
N268 H274 0.984 . S
N268 H275 0.984 . S
N269 C262 1.356 . S
N269 H272 0.984 . S
N269 H273 0.985 . S
H270 N265 0.984 . S
H271 N265 0.985 . S
H272 N269 0.984 . S
H273 N269 0.985 . S
H274 N268 0.984 . S
H275 N268 0.984 . S
H276 N264 0.984 . S
H277 N264 0.985 . S
C278 C279 1.363 . S
C278 C284 1.379 1_545 S
C278 N286 1.356 . S
C279 C278 1.363 . S
C279 C285 1.363 . S
C280 C281 1.363 . S
C280 C285 1.379 1_565 S
C280 N287 1.356 . S
C281 C280 1.363 . S
C281 C284 1.363 . S
N282 C284 1.356 . S
N282 H294 0.984 . S
N282 H295 0.985 . S
N283 C285 1.356 . S
N283 H288 0.984 . S
N283 H289 0.985 . S
C284 C278 1.379 1_565 S
C284 C281 1.363 . S
C284 N282 1.356 . S
C285 C279 1.363 . S
C285 C280 1.379 1_545 S
C285 N283 1.356 . S
N286 C278 1.356 . S
N286 H292 0.984 . S
N286 H293 0.984 . S
N287 C280 1.356 . S
N287 H290 0.984 . S
N287 H291 0.985 . S
H288 N283 0.984 . S
H289 N283 0.985 . S
H290 N287 0.984 . S
H291 N287 0.985 . S
H292 N286 0.984 . S
H293 N286 0.984 . S
H294 N282 0.984 . S
H295 N282 0.985 . S
C296 C297 1.363 . S
C296 C302 1.379 1_455 S
C296 N304 1.356 . S
C297 C296 1.363 . S
C297 C303 1.363 . S
C298 C299 1.363 . S
C298 C303 1.379 1_655 S
C298 N305 1.356 . S
C299 C298 1.363 . S
C299 C302 1.363 . S
N300 C302 1.356 . S
N300 H312 0.984 . S
N300 H313 0.985 . S
N301 C303 1.356 . S
N301 H306 0.984 . S
N301 H307 0.985 . S
C302 C296 1.379 1_655 S
C302 C299 1.363 . S
C302 N300 1.356 . S
C303 C297 1.363 . S
C303 C298 1.379 1_455 S
C303 N301 1.356 . S
N304 C296 1.356 . S
N304 H310 0.984 . S
N304 H311 0.984 . S
N305 C298 1.356 . S
N305 H308 0.984 . S
N305 H309 0.985 . S
H306 N301 0.984 . S
H307 N301 0.985 . S
H308 N305 0.984 . S
H309 N305 0.985 . S
H310 N304 0.984 . S
H311 N304 0.984 . S
H312 N300 0.984 . S
H313 N300 0.985 . S
C314 C315 1.363 . S
C314 C320 1.379 . S
C314 N322 1.356 . S
C315 C314 1.363 . S
C315 C321 1.363 . S
C316 C317 1.363 . S
C316 C321 1.379 . S
C316 N323 1.356 . S
C317 C316 1.363 . S
C317 C320 1.363 . S
N318 C320 1.356 . S
N318 H330 0.984 . S
N318 H331 0.985 . S
N319 C321 1.356 . S
N319 H324 0.984 . S
N319 H325 0.985 . S
C320 C314 1.379 . S
C320 C317 1.363 . S
C320 N318 1.356 . S
C321 C315 1.363 . S
C321 C316 1.379 . S
C321 N319 1.356 . S
N322 C314 1.356 . S
N322 H328 0.984 . S
N322 H329 0.984 . S
N323 C316 1.356 . S
N323 H326 0.984 . S
N323 H327 0.985 . S
H324 N319 0.984 . S
H325 N319 0.985 . S
H326 N323 0.984 . S
H327 N323 0.985 . S
H328 N322 0.984 . S
H329 N322 0.984 . S
H330 N318 0.984 . S
H331 N318 0.985 . S
C332 C333 1.363 1_565 S
C332 C338 1.379 . S
C332 N340 1.356 . S
C333 C332 1.363 1_545 S
C333 C339 1.363 . S
C334 C335 1.363 1_545 S
C334 C339 1.379 . S
C334 N341 1.356 . S
C335 C334 1.363 1_565 S
C335 C338 1.363 . S
N336 C338 1.356 . S
N336 H348 0.984 . S
N336 H349 0.985 . S
N337 C339 1.356 . S
N337 H342 0.984 . S
N337 H343 0.985 . S
C338 C332 1.379 . S
C338 C335 1.363 . S
C338 N336 1.356 . S
C339 C333 1.363 . S
C339 C334 1.379 . S
C339 N337 1.356 . S
N340 C332 1.356 . S
N340 H346 0.984 . S
N340 H347 0.984 1_565 S
N341 C334 1.356 . S
N341 H344 0.984 1_545 S
N341 H345 0.985 . S
H342 N337 0.984 . S
H343 N337 0.985 . S
H344 N341 0.984 1_565 S
H345 N341 0.985 . S
H346 N340 0.984 . S
H347 N340 0.984 1_545 S
H348 N336 0.984 . S
H349 N336 0.985 . S
C350 C351 1.363 1_655 S
C350 C356 1.379 1_545 S
C350 N358 1.356 . S
C351 C350 1.363 1_455 S
C351 C357 1.363 . S
C352 C353 1.363 1_455 S
C352 C357 1.379 1_565 S
C352 N359 1.356 . S
C353 C352 1.363 1_655 S
C353 C356 1.363 . S
N354 C356 1.356 . S
N354 H366 0.984 . S
N354 H367 0.985 . S
N355 C357 1.356 . S
N355 H360 0.984 . S
N355 H361 0.985 . S
C356 C350 1.379 1_565 S
C356 C353 1.363 . S
C356 N354 1.356 . S
C357 C351 1.363 . S
C357 C352 1.379 1_545 S
C357 N355 1.356 . S
N358 C350 1.356 . S
N358 H364 0.984 . S
N358 H365 0.984 1_655 S
N359 C352 1.356 . S
N359 H362 0.984 1_455 S
N359 H363 0.985 . S
H360 N355 0.984 . S
H361 N355 0.985 . S
H362 N359 0.984 1_655 S
H363 N359 0.985 . S
H364 N358 0.984 . S
H365 N358 0.984 1_455 S
H366 N354 0.984 . S
H367 N354 0.985 . S
C368 C369 1.363 1_545 S
C368 C374 1.379 . S
C368 N376 1.356 . S
C369 C368 1.363 1_565 S
C369 C375 1.363 . S
C370 C371 1.363 1_565 S
C370 C375 1.379 . S
C370 N377 1.356 . S
C371 C370 1.363 1_545 S
C371 C374 1.363 . S
N372 C374 1.356 . S
N372 H384 0.984 . S
N372 H385 0.985 . S
N373 C375 1.356 . S
N373 H378 0.984 . S
N373 H379 0.985 . S
C374 C368 1.379 . S
C374 C371 1.363 . S
C374 N372 1.356 . S
C375 C369 1.363 . S
C375 C370 1.379 . S
C375 N373 1.356 . S
N376 C368 1.356 . S
N376 H382 0.984 . S
N376 H383 0.984 1_545 S
N377 C370 1.356 . S
N377 H380 0.984 1_565 S
N377 H381 0.985 . S
H378 N373 0.984 . S
H379 N373 0.985 . S
H380 N377 0.984 1_545 S
H381 N377 0.985 . S
H382 N376 0.984 . S
H383 N376 0.984 1_565 S
H384 N372 0.984 . S
H385 N372 0.985 . S
C386 C387 1.363 1_455 S
C386 C392 1.379 1_565 S
C386 N394 1.356 . S
C387 C386 1.363 1_655 S
C387 C393 1.363 . S
C388 C389 1.363 1_655 S
C388 C393 1.379 1_545 S
C388 N395 1.356 . S
C389 C388 1.363 1_455 S
C389 C392 1.363 . S
N390 C392 1.356 . S
N390 H402 0.984 . S
N390 H403 0.985 . S
N391 C393 1.356 . S
N391 H396 0.984 . S
N391 H397 0.985 . S
C392 C386 1.379 1_545 S
C392 C389 1.363 . S
C392 N390 1.356 . S
C393 C387 1.363 . S
C393 C388 1.379 1_565 S
C393 N391 1.356 . S
N394 C386 1.356 . S
N394 H400 0.984 . S
N394 H401 0.984 1_455 S
N395 C388 1.356 . S
N395 H398 0.984 1_655 S
N395 H399 0.985 . S
H396 N391 0.984 . S
H397 N391 0.985 . S
H398 N395 0.984 1_455 S
H399 N395 0.985 . S
H400 N394 0.984 . S
H401 N394 0.984 1_655 S
H402 N390 0.984 . S
H403 N390 0.985 . S
C404 C405 1.363 . S
C404 C410 1.379 1_455 S
C404 N412 1.356 . S
C405 C404 1.363 . S
C405 C411 1.363 . S
C406 C407 1.363 . S
C406 C411 1.379 1_655 S
C406 N413 1.356 . S
C407 C406 1.363 . S
C407 C410 1.363 . S
N408 C410 1.356 . S
N408 H420 0.984 . S
N408 H421 0.985 . S
N409 C411 1.356 . S
N409 H414 0.984 . S
N409 H415 0.985 . S
C410 C404 1.379 1_655 S
C410 C407 1.363 . S
C410 N408 1.356 . S
C411 C405 1.363 . S
C411 C406 1.379 1_455 S
C411 N409 1.356 . S
N412 C404 1.356 . S
N412 H418 0.984 . S
N412 H419 0.984 . S
N413 C406 1.356 . S
N413 H416 0.984 . S
N413 H417 0.985 . S
H414 N409 0.984 . S
H415 N409 0.985 . S
H416 N413 0.984 . S
H417 N413 0.985 . S
H418 N412 0.984 . S
H419 N412 0.984 . S
H420 N408 0.984 . S
H421 N408 0.985 . S
C422 C423 1.363 . S
C422 C428 1.379 . S
C422 N430 1.356 . S
C423 C422 1.363 . S
C423 C429 1.363 . S
C424 C425 1.363 . S
C424 C429 1.379 . S
C424 N431 1.356 . S
C425 C424 1.363 . S
C425 C428 1.363 . S
N426 C428 1.356 . S
N426 H438 0.984 . S
N426 H439 0.985 . S
N427 C429 1.356 . S
N427 H432 0.984 . S
N427 H433 0.985 . S
C428 C422 1.379 . S
C428 C425 1.363 . S
C428 N426 1.356 . S
C429 C423 1.363 . S
C429 C424 1.379 . S
C429 N427 1.356 . S
N430 C422 1.356 . S
N430 H436 0.984 . S
N430 H437 0.984 . S
N431 C424 1.356 . S
N431 H434 0.984 . S
N431 H435 0.985 . S
H432 N427 0.984 . S
H433 N427 0.985 . S
H434 N431 0.984 . S
H435 N431 0.985 . S
H436 N430 0.984 . S
H437 N430 0.984 . S
H438 N426 0.984 . S
H439 N426 0.985 . S
C440 C441 1.363 . S
C440 C446 1.379 . S
C440 N448 1.356 . S
C441 C440 1.363 . S
C441 C447 1.363 . S
C442 C443 1.363 . S
C442 C447 1.379 . S
C442 N449 1.356 . S
C443 C442 1.363 . S
C443 C446 1.363 . S
N444 C446 1.356 . S
N444 H456 0.984 . S
N444 H457 0.985 . S
N445 C447 1.356 . S
N445 H450 0.984 . S
N445 H451 0.985 . S
C446 C440 1.379 . S
C446 C443 1.363 . S
C446 N444 1.356 . S
C447 C441 1.363 . S
C447 C442 1.379 . S
C447 N445 1.356 . S
N448 C440 1.356 . S
N448 H454 0.984 . S
N448 H455 0.984 . S
N449 C442 1.356 . S
N449 H452 0.984 . S
N449 H453 0.985 . S
H450 N445 0.984 . S
H451 N445 0.985 . S
H452 N449 0.984 . S
H453 N449 0.985 . S
H454 N448 0.984 . S
H455 N448 0.984 . S
H456 N444 0.984 . S
H457 N444 0.985 . S
C458 C459 1.363 . S
C458 C464 1.379 1_565 S
C458 N466 1.356 . S
C459 C458 1.363 . S
C459 C465 1.363 . S
C460 C461 1.363 . S
C460 C465 1.379 1_545 S
C460 N467 1.356 . S
C461 C460 1.363 . S
C461 C464 1.363 . S
N462 C464 1.356 . S
N462 H474 0.984 . S
N462 H475 0.985 . S
N463 C465 1.356 . S
N463 H468 0.984 . S
N463 H469 0.985 . S
C464 C458 1.379 1_545 S
C464 C461 1.363 . S
C464 N462 1.356 . S
C465 C459 1.363 . S
C465 C460 1.379 1_565 S
C465 N463 1.356 . S
N466 C458 1.356 . S
N466 H472 0.984 . S
N466 H473 0.984 . S
N467 C460 1.356 . S
N467 H470 0.984 . S
N467 H471 0.985 . S
H468 N463 0.984 . S
H469 N463 0.985 . S
H470 N467 0.984 . S
H471 N467 0.985 . S
H472 N466 0.984 . S
H473 N466 0.984 . S
H474 N462 0.984 . S
H475 N462 0.985 . S
C476 C477 1.363 1_545 S
C476 C482 1.379 1_655 S
C476 N484 1.356 . S
C477 C476 1.363 1_565 S
C477 C483 1.363 . S
C478 C479 1.363 1_565 S
C478 C483 1.379 1_455 S
C478 N485 1.356 . S
C479 C478 1.363 1_545 S
C479 C482 1.363 . S
N480 C482 1.356 . S
N480 H492 0.984 . S
N480 H493 0.985 . S
N481 C483 1.356 . S
N481 H486 0.984 . S
N481 H487 0.985 . S
C482 C476 1.379 1_455 S
C482 C479 1.363 . S
C482 N480 1.356 . S
C483 C477 1.363 . S
C483 C478 1.379 1_655 S
C483 N481 1.356 . S
N484 C476 1.356 . S
N484 H490 0.984 . S
N484 H491 0.984 1_545 S
N485 C478 1.356 . S
N485 H488 0.984 1_565 S
N485 H489 0.985 . S
H486 N481 0.984 . S
H487 N481 0.985 . S
H488 N485 0.984 1_545 S
H489 N485 0.985 . S
H490 N484 0.984 . S
H491 N484 0.984 1_565 S
H492 N480 0.984 . S
H493 N480 0.985 . S
C494 C495 1.363 . S
C494 C500 1.379 . S
C494 N502 1.356 . S
C495 C494 1.363 . S
C495 C501 1.363 1_455 S
C496 C497 1.363 . S
C496 C501 1.379 . S
C496 N503 1.356 . S
C497 C496 1.363 . S
C497 C500 1.363 1_655 S
N498 C500 1.356 . S
N498 H510 0.984 . S
N498 H511 0.985 1_455 S
N499 C501 1.356 . S
N499 H504 0.984 1_655 S
N499 H505 0.985 . S
C500 C494 1.379 . S
C500 C497 1.363 1_455 S
C500 N498 1.356 . S
C501 C495 1.363 1_655 S
C501 C496 1.379 . S
C501 N499 1.356 . S
N502 C494 1.356 . S
N502 H508 0.984 . S
N502 H509 0.984 . S
N503 C496 1.356 . S
N503 H506 0.984 . S
N503 H507 0.985 . S
H504 N499 0.984 1_455 S
H505 N499 0.985 . S
H506 N503 0.984 . S
H507 N503 0.985 . S
H508 N502 0.984 . S
H509 N502 0.984 . S
H510 N498 0.984 . S
H511 N498 0.985 1_655 S
C512 C513 1.363 . S
C512 C518 1.379 . S
C512 N520 1.356 . S
C513 C512 1.363 . S
C513 C519 1.363 . S
C514 C515 1.363 . S
C514 C519 1.379 . S
C514 N521 1.356 . S
C515 C514 1.363 . S
C515 C518 1.363 . S
N516 C518 1.356 . S
N516 H528 0.984 . S
N516 H529 0.985 . S
N517 C519 1.356 . S
N517 H522 0.984 . S
N517 H523 0.985 . S
C518 C512 1.379 . S
C518 C515 1.363 . S
C518 N516 1.356 . S
C519 C513 1.363 . S
C519 C514 1.379 . S
C519 N517 1.356 . S
N520 C512 1.356 . S
N520 H526 0.984 . S
N520 H527 0.984 . S
N521 C514 1.356 . S
N521 H524 0.984 . S
N521 H525 0.985 . S
H522 N517 0.984 . S
H523 N517 0.985 . S
H524 N521 0.984 . S
H525 N521 0.985 . S
H526 N520 0.984 . S
H527 N520 0.984 . S
H528 N516 0.984 . S
H529 N516 0.985 . S
C530 C531 1.363 . S
C530 C536 1.379 . S
C530 N538 1.356 . S
C531 C530 1.363 . S
C531 C537 1.363 . S
C532 C533 1.363 . S
C532 C537 1.379 . S
C532 N539 1.356 . S
C533 C532 1.363 . S
C533 C536 1.363 . S
N534 C536 1.356 . S
N534 H546 0.984 . S
N534 H547 0.985 . S
N535 C537 1.356 . S
N535 H540 0.984 . S
N535 H541 0.985 . S
C536 C530 1.379 . S
C536 C533 1.363 . S
C536 N534 1.356 . S
C537 C531 1.363 . S
C537 C532 1.379 . S
C537 N535 1.356 . S
N538 C530 1.356 . S
N538 H544 0.984 . S
N538 H545 0.984 . S
N539 C532 1.356 . S
N539 H542 0.984 . S
N539 H543 0.985 . S
H540 N535 0.984 . S
H541 N535 0.985 . S
H542 N539 0.984 . S
H543 N539 0.985 . S
H544 N538 0.984 . S
H545 N538 0.984 . S
H546 N534 0.984 . S
H547 N534 0.985 . S
C548 C549 1.363 . S
C548 C554 1.379 . S
C548 N556 1.356 . S
C549 C548 1.363 . S
C549 C555 1.363 . S
C550 C551 1.363 . S
C550 C555 1.379 . S
C550 N557 1.356 . S
C551 C550 1.363 . S
C551 C554 1.363 . S
N552 C554 1.356 . S
N552 H564 0.984 . S
N552 H565 0.985 . S
N553 C555 1.356 . S
N553 H558 0.984 . S
N553 H559 0.985 . S
C554 C548 1.379 . S
C554 C551 1.363 . S
C554 N552 1.356 . S
C555 C549 1.363 . S
C555 C550 1.379 . S
C555 N553 1.356 . S
N556 C548 1.356 . S
N556 H562 0.984 . S
N556 H563 0.984 . S
N557 C550 1.356 . S
N557 H560 0.984 . S
N557 H561 0.985 . S
H558 N553 0.984 . S
H559 N553 0.985 . S
H560 N557 0.984 . S
H561 N557 0.985 . S
H562 N556 0.984 . S
H563 N556 0.984 . S
H564 N552 0.984 . S
H565 N552 0.985 . S
C566 C567 1.363 . S
C566 C572 1.379 . S
C566 N574 1.356 . S
C567 C566 1.363 . S
C567 C573 1.363 . S
C568 C569 1.363 . S
C568 C573 1.379 . S
C568 N575 1.356 . S
C569 C568 1.363 . S
C569 C572 1.363 . S
N570 C572 1.356 . S
N570 H582 0.984 . S
N570 H583 0.985 . S
N571 C573 1.356 . S
N571 H576 0.984 . S
N571 H577 0.985 . S
C572 C566 1.379 . S
C572 C569 1.363 . S
C572 N570 1.356 . S
C573 C567 1.363 . S
C573 C568 1.379 . S
C573 N571 1.356 . S
N574 C566 1.356 . S
N574 H580 0.984 . S
N574 H581 0.984 . S
N575 C568 1.356 . S
N575 H578 0.984 . S
N575 H579 0.985 . S
H576 N571 0.984 . S
H577 N571 0.985 . S
H578 N575 0.984 . S
H579 N575 0.985 . S
H580 N574 0.984 . S
H581 N574 0.984 . S
H582 N570 0.984 . S
H583 N570 0.985 . S
C584 C585 1.363 . S
C584 C590 1.379 . S
C584 N592 1.356 . S
C585 C584 1.363 . S
C585 C591 1.363 . S
C586 C587 1.363 . S
C586 C591 1.379 . S
C586 N593 1.356 . S
C587 C586 1.363 . S
C587 C590 1.363 . S
N588 C590 1.356 . S
N588 H600 0.984 . S
N588 H601 0.985 . S
N589 C591 1.356 . S
N589 H594 0.984 . S
N589 H595 0.985 . S
C590 C584 1.379 . S
C590 C587 1.363 . S
C590 N588 1.356 . S
C591 C585 1.363 . S
C591 C586 1.379 . S
C591 N589 1.356 . S
N592 C584 1.356 . S
N592 H598 0.984 . S
N592 H599 0.984 . S
N593 C586 1.356 . S
N593 H596 0.984 . S
N593 H597 0.985 . S
H594 N589 0.984 . S
H595 N589 0.985 . S
H596 N593 0.984 . S
H597 N593 0.985 . S
H598 N592 0.984 . S
H599 N592 0.984 . S
H600 N588 0.984 . S
H601 N588 0.985 . S
C602 C603 1.363 . S
C602 C608 1.379 . S
C602 N610 1.356 . S
C603 C602 1.363 . S
C603 C609 1.363 . S
C604 C605 1.363 . S
C604 C609 1.379 . S
C604 N611 1.356 . S
C605 C604 1.363 . S
C605 C608 1.363 . S
N606 C608 1.356 . S
N606 H618 0.984 . S
N606 H619 0.985 . S
N607 C609 1.356 . S
N607 H612 0.984 . S
N607 H613 0.985 . S
C608 C602 1.379 . S
C608 C605 1.363 . S
C608 N606 1.356 . S
C609 C603 1.363 . S
C609 C604 1.379 . S
C609 N607 1.356 . S
N610 C602 1.356 . S
N610 H616 0.984 . S
N610 H617 0.984 . S
N611 C604 1.356 . S
N611 H614 0.984 . S
N611 H615 0.985 . S
H612 N607 0.984 . S
H613 N607 0.985 . S
H614 N611 0.984 . S
H615 N611 0.985 . S
H616 N610 0.984 . S
H617 N610 0.984 . S
H618 N606 0.984 . S
H619 N606 0.985 . S
C620 C621 1.363 . S
C620 C626 1.379 . S
C620 N628 1.356 . S
C621 C620 1.363 . S
C621 C627 1.363 . S
C622 C623 1.363 . S
C622 C627 1.379 . S
C622 N629 1.356 . S
C623 C622 1.363 . S
C623 C626 1.363 . S
N624 C626 1.356 . S
N624 H636 0.984 . S
N624 H637 0.985 . S
N625 C627 1.356 . S
N625 H630 0.984 . S
N625 H631 0.985 . S
C626 C620 1.379 . S
C626 C623 1.363 . S
C626 N624 1.356 . S
C627 C621 1.363 . S
C627 C622 1.379 . S
C627 N625 1.356 . S
N628 C620 1.356 . S
N628 H634 0.984 . S
N628 H635 0.984 . S
N629 C622 1.356 . S
N629 H632 0.984 . S
N629 H633 0.985 . S
H630 N625 0.984 . S
H631 N625 0.985 . S
H632 N629 0.984 . S
H633 N629 0.985 . S
H634 N628 0.984 . S
H635 N628 0.984 . S
H636 N624 0.984 . S
H637 N624 0.985 . S
C638 C639 1.363 . S
C638 C644 1.379 . S
C638 N646 1.356 . S
C639 C638 1.363 . S
C639 C645 1.363 . S
C640 C641 1.363 . S
C640 C645 1.379 . S
C640 N647 1.356 . S
C641 C640 1.363 . S
C641 C644 1.363 . S
N642 C644 1.356 . S
N642 H654 0.984 . S
N642 H655 0.985 . S
N643 C645 1.356 . S
N643 H648 0.984 . S
N643 H649 0.985 . S
C644 C638 1.379 . S
C644 C641 1.363 . S
C644 N642 1.356 . S
C645 C639 1.363 . S
C645 C640 1.379 . S
C645 N643 1.356 . S
N646 C638 1.356 . S
N646 H652 0.984 . S
N646 H653 0.984 . S
N647 C640 1.356 . S
N647 H650 0.984 . S
N647 H651 0.985 . S
H648 N643 0.984 . S
H649 N643 0.985 . S
H650 N647 0.984 . S
H651 N647 0.985 . S
H652 N646 0.984 . S
H653 N646 0.984 . S
H654 N642 0.984 . S
H655 N642 0.985 . S
C656 C657 1.363 . S
C656 C662 1.379 . S
C656 N664 1.356 . S
C657 C656 1.363 . S
C657 C663 1.363 . S
C658 C659 1.363 . S
C658 C663 1.379 . S
C658 N665 1.356 . S
C659 C658 1.363 . S
C659 C662 1.363 . S
N660 C662 1.356 . S
N660 H672 0.984 . S
N660 H673 0.985 . S
N661 C663 1.356 . S
N661 H666 0.984 . S
N661 H667 0.985 . S
C662 C656 1.379 . S
C662 C659 1.363 . S
C662 N660 1.356 . S
C663 C657 1.363 . S
C663 C658 1.379 . S
C663 N661 1.356 . S
N664 C656 1.356 . S
N664 H670 0.984 . S
N664 H671 0.984 . S
N665 C658 1.356 . S
N665 H668 0.984 . S
N665 H669 0.985 . S
H666 N661 0.984 . S
H667 N661 0.985 . S
H668 N665 0.984 . S
H669 N665 0.985 . S
H670 N664 0.984 . S
H671 N664 0.984 . S
H672 N660 0.984 . S
H673 N660 0.985 . S
C674 C675 1.363 . S
C674 C680 1.379 . S
C674 N682 1.356 . S
C675 C674 1.363 . S
C675 C681 1.363 . S
C676 C677 1.363 . S
C676 C681 1.379 . S
C676 N683 1.356 . S
C677 C676 1.363 . S
C677 C680 1.363 . S
N678 C680 1.356 . S
N678 H690 0.984 . S
N678 H691 0.985 . S
N679 C681 1.356 . S
N679 H684 0.984 . S
N679 H685 0.985 . S
C680 C674 1.379 . S
C680 C677 1.363 . S
C680 N678 1.356 . S
C681 C675 1.363 . S
C681 C676 1.379 . S
C681 N679 1.356 . S
N682 C674 1.356 . S
N682 H688 0.984 . S
N682 H689 0.984 . S
N683 C676 1.356 . S
N683 H686 0.984 . S
N683 H687 0.985 . S
H684 N679 0.984 . S
H685 N679 0.985 . S
H686 N683 0.984 . S
H687 N683 0.985 . S
H688 N682 0.984 . S
H689 N682 0.984 . S
H690 N678 0.984 . S
H691 N678 0.985 . S
C692 C693 1.363 . S
C692 C698 1.379 . S
C692 N700 1.356 . S
C693 C692 1.363 . S
C693 C699 1.363 . S
C694 C695 1.363 . S
C694 C699 1.379 . S
C694 N701 1.356 . S
C695 C694 1.363 . S
C695 C698 1.363 . S
N696 C698 1.356 . S
N696 H708 0.984 . S
N696 H709 0.985 . S
N697 C699 1.356 . S
N697 H702 0.984 . S
N697 H703 0.985 . S
C698 C692 1.379 . S
C698 C695 1.363 . S
C698 N696 1.356 . S
C699 C693 1.363 . S
C699 C694 1.379 . S
C699 N697 1.356 . S
N700 C692 1.356 . S
N700 H706 0.984 . S
N700 H707 0.984 . S
N701 C694 1.356 . S
N701 H704 0.984 . S
N701 H705 0.985 . S
H702 N697 0.984 . S
H703 N697 0.985 . S
H704 N701 0.984 . S
H705 N701 0.985 . S
H706 N700 0.984 . S
H707 N700 0.984 . S
H708 N696 0.984 . S
H709 N696 0.985 . S
C710 C711 1.363 . S
C710 C716 1.379 1_556 S
C710 N718 1.356 . S
C711 C710 1.363 . S
C711 C717 1.363 . S
C712 C713 1.363 . S
C712 C717 1.379 1_554 S
C712 N719 1.356 . S
C713 C712 1.363 . S
C713 C716 1.363 . S
N714 C716 1.356 . S
N714 H726 0.984 . S
N714 H727 0.985 . S
N715 C717 1.356 . S
N715 H720 0.984 . S
N715 H721 0.985 . S
C716 C710 1.379 1_554 S
C716 C713 1.363 . S
C716 N714 1.356 . S
C717 C711 1.363 . S
C717 C712 1.379 1_556 S
C717 N715 1.356 . S
N718 C710 1.356 . S
N718 H724 0.984 . S
N718 H725 0.984 . S
N719 C712 1.356 . S
N719 H722 0.984 . S
N719 H723 0.985 . S
H720 N715 0.984 . S
H721 N715 0.985 . S
H722 N719 0.984 . S
H723 N719 0.985 . S
H724 N718 0.984 . S
H725 N718 0.984 . S
H726 N714 0.984 . S
H727 N714 0.985 . S
C728 C729 1.363 . S
C728 C734 1.379 1_554 S
C728 N736 1.356 . S
C729 C728 1.363 . S
C729 C735 1.363 . S
C730 C731 1.363 . S
C730 C735 1.379 1_556 S
C730 N737 1.356 . S
C731 C730 1.363 . S
C731 C734 1.363 . S
N732 C734 1.356 . S
N732 H744 0.984 . S
N732 H745 0.985 . S
N733 C735 1.356 . S
N733 H738 0.984 . S
N733 H739 0.985 . S
C734 C728 1.379 1_556 S
C734 C731 1.363 . S
C734 N732 1.356 . S
C735 C729 1.363 . S
C735 C730 1.379 1_554 S
C735 N733 1.356 . S
N736 C728 1.356 . S
N736 H742 0.984 . S
N736 H743 0.984 . S
N737 C730 1.356 . S
N737 H740 0.984 . S
N737 H741 0.985 . S
H738 N733 0.984 . S
H739 N733 0.985 . S
H740 N737 0.984 . S
H741 N737 0.985 . S
H742 N736 0.984 . S
H743 N736 0.984 . S
H744 N732 0.984 . S
H745 N732 0.985 . S
C746 C747 1.363 . S
C746 C752 1.379 . S
C746 N754 1.356 . S
C747 C746 1.363 . S
C747 C753 1.363 . S
C748 C749 1.363 . S
C748 C753 1.379 . S
C748 N755 1.356 . S
C749 C748 1.363 . S
C749 C752 1.363 . S
N750 C752 1.356 . S
N750 H762 0.984 . S
N750 H763 0.985 . S
N751 C753 1.356 . S
N751 H756 0.984 . S
N751 H757 0.985 . S
C752 C746 1.379 . S
C752 C749 1.363 . S
C752 N750 1.356 . S
C753 C747 1.363 . S
C753 C748 1.379 . S
C753 N751 1.356 . S
N754 C746 1.356 . S
N754 H760 0.984 . S
N754 H761 0.984 . S
N755 C748 1.356 . S
N755 H758 0.984 . S
N755 H759 0.985 . S
H756 N751 0.984 . S
H757 N751 0.985 . S
H758 N755 0.984 . S
H759 N755 0.985 . S
H760 N754 0.984 . S
H761 N754 0.984 . S
H762 N750 0.984 . S
H763 N750 0.985 . S
C764 C765 1.363 . S
C764 C770 1.379 . S
C764 N772 1.356 . S
C765 C764 1.363 . S
C765 C771 1.363 . S
C766 C767 1.363 . S
C766 C771 1.379 . S
C766 N773 1.356 . S
C767 C766 1.363 . S
C767 C770 1.363 . S
N768 C770 1.356 . S
N768 H780 0.984 . S
N768 H781 0.985 . S
N769 C771 1.356 . S
N769 H774 0.984 . S
N769 H775 0.985 . S
C770 C764 1.379 . S
C770 C767 1.363 . S
C770 N768 1.356 . S
C771 C765 1.363 . S
C771 C766 1.379 . S
C771 N769 1.356 . S
N772 C764 1.356 . S
N772 H778 0.984 . S
N772 H779 0.984 . S
N773 C766 1.356 . S
N773 H776 0.984 . S
N773 H777 0.985 . S
H774 N769 0.984 . S
H775 N769 0.985 . S
H776 N773 0.984 . S
H777 N773 0.985 . S
H778 N772 0.984 . S
H779 N772 0.984 . S
H780 N768 0.984 . S
H781 N768 0.985 . S
C782 C783 1.363 . S
C782 C788 1.379 . S
C782 N790 1.356 . S
C783 C782 1.363 . S
C783 C789 1.363 . S
C784 C785 1.363 . S
C784 C789 1.379 . S
C784 N791 1.356 . S
C785 C784 1.363 . S
C785 C788 1.363 . S
N786 C788 1.356 . S
N786 H798 0.984 . S
N786 H799 0.985 . S
N787 C789 1.356 . S
N787 H792 0.984 . S
N787 H793 0.985 . S
C788 C782 1.379 . S
C788 C785 1.363 . S
C788 N786 1.356 . S
C789 C783 1.363 . S
C789 C784 1.379 . S
C789 N787 1.356 . S
N790 C782 1.356 . S
N790 H796 0.984 . S
N790 H797 0.984 . S
N791 C784 1.356 . S
N791 H794 0.984 . S
N791 H795 0.985 . S
H792 N787 0.984 . S
H793 N787 0.985 . S
H794 N791 0.984 . S
H795 N791 0.985 . S
H796 N790 0.984 . S
H797 N790 0.984 . S
H798 N786 0.984 . S
H799 N786 0.985 . S
C225 C146 1.335 . S
C227 C6 1.335 . S
C243 C20 1.335 . S
C245 C160 1.335 . S
C261 C118 1.335 . S
C263 C34 1.335 . S
C279 C132 1.335 . S
C281 C48 1.335 . S
C297 C62 1.335 . S
C299 C202 1.335 . S
C315 C216 1.335 . S
C317 C76 1.335 . S
C333 C90 1.335 . S
C335 C174 1.335 . S
C351 C188 1.335 . S
C353 C104 1.335 . S
C369 C149 1.730 . S
C371 C9 1.730 . S
C387 C23 1.730 . S
C389 C163 1.730 . S
C405 C37 1.730 . S
C407 C121 1.730 . S
C423 C51 1.730 . S
C425 C135 1.730 . S
C441 C65 1.730 . S
C443 C205 1.730 . S
C459 C79 1.730 . S
C461 C219 1.730 . S
C477 C177 1.730 . S
C479 C93 1.730 . S
C495 C191 1.730 . S
C497 C107 1.730 . S
C513 C8 1.261 . S
C515 C92 1.261 . S
C531 C22 1.261 . S
C533 C106 1.261 . S
C549 C36 1.261 . S
C551 C64 1.261 . S
C567 C50 1.261 . S
C569 C78 1.261 . S
C585 C120 1.261 . S
C587 C204 1.261 . S
C603 C218 1.261 . S
C605 C134 1.261 . S
C621 C148 1.261 . S
C623 C176 1.261 . S
C639 C190 1.261 . S
C641 C162 1.261 . S
C657 C7 1.541 . S
C659 C217 1.541 . S
C675 C175 1.541 . S
C677 C21 1.541 . S
C693 C189 1.541 . S
C695 C35 1.541 . S
C711 C203 1.541 . S
C713 C49 1.541 . S
C729 C133 1.541 . S
C731 C63 1.541 . S
C747 C147 1.541 . S
C749 C77 1.541 . S
C765 C91 1.541 . S
C767 C161 1.541 . S
C783 C105 1.541 . S
C785 C119 1.541 . S
