# Generated by pormake.
# Topology ukf, (4)-cn, num edge types: 1
# Building blocks:
#     Node 0, Type 0, BuildingBlock: ESEHIV_clean_sbu_0, # of connection points: 4
#     Node 1, Type 0, BuildingBlock: ESEHIV_clean_sbu_0, # of connection points: 4
#     Node 2, Type 0, BuildingBlock: ESEHIV_clean_sbu_0, # of connection points: 4
#     Node 3, Type 0, BuildingBlock: ESEHIV_clean_sbu_0, # of connection points: 4
#     Node 4, Type 0, BuildingBlock: ESEHIV_clean_sbu_0, # of connection points: 4
#     Node 5, Type 0, BuildingBlock: ESEHIV_clean_sbu_0, # of connection points: 4
#     Node 6, Type 0, BuildingBlock: ESEHIV_clean_sbu_0, # of connection points: 4
#     Node 7, Type 0, BuildingBlock: ESEHIV_clean_sbu_0, # of connection points: 4
#     Node 8, Type 0, BuildingBlock: ESEHIV_clean_sbu_0, # of connection points: 4
#     Node 9, Type 0, BuildingBlock: ESEHIV_clean_sbu_0, # of connection points: 4
#     Node 10, Type 0, BuildingBlock: ESEHIV_clean_sbu_0, # of connection points: 4
#     Node 11, Type 0, BuildingBlock: ESEHIV_clean_sbu_0, # of connection points: 4
#     Edge 12, Type (0, 0), BuildingBlock: TEMPAE_clean_linker_10, # of connection points: 2
#     Edge 13, Type (0, 0), BuildingBlock: TEMPAE_clean_linker_10, # of connection points: 2
#     Edge 14, Type (0, 0), BuildingBlock: TEMPAE_clean_linker_10, # of connection points: 2
#     Edge 15, Type (0, 0), BuildingBlock: TEMPAE_clean_linker_10, # of connection points: 2
#     Edge 16, Type (0, 0), BuildingBlock: TEMPAE_clean_linker_10, # of connection points: 2
#     Edge 17, Type (0, 0), BuildingBlock: TEMPAE_clean_linker_10, # of connection points: 2
#     Edge 18, Type (0, 0), BuildingBlock: TEMPAE_clean_linker_10, # of connection points: 2
#     Edge 19, Type (0, 0), BuildingBlock: TEMPAE_clean_linker_10, # of connection points: 2
#     Edge 20, Type (0, 0), BuildingBlock: TEMPAE_clean_linker_10, # of connection points: 2
#     Edge 21, Type (0, 0), BuildingBlock: TEMPAE_clean_linker_10, # of connection points: 2
#     Edge 22, Type (0, 0), BuildingBlock: TEMPAE_clean_linker_10, # of connection points: 2
#     Edge 23, Type (0, 0), BuildingBlock: TEMPAE_clean_linker_10, # of connection points: 2
#     Edge 24, Type (0, 0), BuildingBlock: TEMPAE_clean_linker_10, # of connection points: 2
#     Edge 25, Type (0, 0), BuildingBlock: TEMPAE_clean_linker_10, # of connection points: 2
#     Edge 26, Type (0, 0), BuildingBlock: TEMPAE_clean_linker_10, # of connection points: 2
#     Edge 27, Type (0, 0), BuildingBlock: TEMPAE_clean_linker_10, # of connection points: 2
#     Edge 28, Type (0, 0), BuildingBlock: TEMPAE_clean_linker_10, # of connection points: 2
#     Edge 29, Type (0, 0), BuildingBlock: TEMPAE_clean_linker_10, # of connection points: 2
#     Edge 30, Type (0, 0), BuildingBlock: TEMPAE_clean_linker_10, # of connection points: 2
#     Edge 31, Type (0, 0), BuildingBlock: TEMPAE_clean_linker_10, # of connection points: 2
#     Edge 32, Type (0, 0), BuildingBlock: TEMPAE_clean_linker_10, # of connection points: 2
#     Edge 33, Type (0, 0), BuildingBlock: TEMPAE_clean_linker_10, # of connection points: 2
#     Edge 34, Type (0, 0), BuildingBlock: TEMPAE_clean_linker_10, # of connection points: 2
#     Edge 35, Type (0, 0), BuildingBlock: TEMPAE_clean_linker_10, # of connection points: 2
# Relax obj value: 0.090
# Max RMSD: 0.293
# Mean RMSD: 0.292
data_MOF--net-ukf--node1-ESEHIV_clean_sbu_0--edge1-TEMPAE_clean_linker_10
_symmetry_space_group_name_H-M    P1
_symmetry_Int_Tables_number       1
_symmetry_cell_setting            triclinic
loop_
_symmetry_equiv_pos_as_xyz
'x, y, z'
_cell_length_a     37.132048
_cell_length_b     37.274437
_cell_length_c     71.186726
_cell_angle_alpha  90.101231
_cell_angle_beta   90.053079
_cell_angle_gamma 119.8914
loop_
_atom_site_label
_atom_site_type_symbol
_atom_site_fract_x
_atom_site_fract_y
_atom_site_fract_z
_atom_type_partial_charge
Cu0 Cu 0.474 0.25723 0.0804 0.0
N1 N 0.42715 0.20676 0.07402 0.0
N2 N 0.38603 0.14603 0.06013 0.0
C3 C 0.42556 0.1756 0.06369 0.0
C4 C 0.36185 0.15882 0.06848 0.0
C5 C 0.38732 0.19615 0.07719 0.0
O6 O 0.52037 0.26413 0.06523 0.0
C7 C 0.47494 0.22751 0.11713 0.0
O8 O 0.45492 0.19097 0.10906 0.0
H9 H 0.45262 0.17539 0.0582 0.0
H10 H 0.37757 0.21507 0.08473 0.0
N11 N 0.4634 0.2998 0.07417 0.0
N12 N 0.46885 0.36211 0.07133 0.0
C13 C 0.48386 0.33972 0.07976 0.0
C14 C 0.43456 0.29688 0.06185 0.0
C15 C 0.43773 0.33508 0.06011 0.0
C16 C 0.53801 0.24272 0.0676 0.0
O17 O 0.52579 0.21587 0.08141 0.0
H18 H 0.51009 0.35232 0.0893 0.0
H19 H 0.41322 0.26903 0.05434 0.0
O20 O 0.48626 0.25979 0.1072 0.0
H21 H 0.32824 0.1426 0.06803 0.0
H22 H 0.41868 0.34239 0.05117 0.0
Cu23 Cu 0.2355 0.46995 0.41131 0.0
N24 N 0.18203 0.46016 0.40574 0.0
N25 N 0.12593 0.46734 0.40273 0.0
C26 C 0.16434 0.48305 0.41029 0.0
C27 C 0.11931 0.4333 0.39315 0.0
C28 C 0.15386 0.42902 0.39502 0.0
O29 O 0.24637 0.47803 0.43812 0.0
C30 C 0.31439 0.5337 0.39946 0.0
O31 O 0.32817 0.52 0.4131 0.0
H32 H 0.17976 0.51131 0.41844 0.0
H33 H 0.15843 0.40519 0.38869 0.0
N34 N 0.23884 0.42324 0.40454 0.0
N35 N 0.25963 0.38124 0.3922 0.0
C36 C 0.26704 0.42061 0.39355 0.0
C37 C 0.21284 0.38447 0.41034 0.0
C38 C 0.22537 0.35853 0.40273 0.0
C39 C 0.25143 0.50933 0.44747 0.0
O40 O 0.24981 0.53956 0.43878 0.0
H41 H 0.29268 0.44712 0.38693 0.0
H42 H 0.18642 0.37571 0.41943 0.0
O43 O 0.27545 0.5169 0.39676 0.0
H44 H 0.09148 0.41292 0.38531 0.0
H45 H 0.20986 0.32535 0.40462 0.0
Cu46 Cu 0.78663 0.22449 0.74984 0.0
N47 N 0.83742 0.22953 0.74277 0.0
N48 N 0.89919 0.25075 0.72926 0.0
C49 C 0.86381 0.25281 0.72907 0.0
C50 C 0.89451 0.2249 0.7435 0.0
C51 C 0.85654 0.21199 0.75179 0.0
O52 O 0.77685 0.26312 0.73559 0.0
C53 C 0.76216 0.23734 0.78626 0.0
O54 O 0.72737 0.22981 0.77807 0.0
H55 H 0.85774 0.27179 0.71956 0.0
H56 H 0.84386 0.19164 0.76375 0.0
N57 N 0.74401 0.17029 0.74518 0.0
N58 N 0.68133 0.11376 0.74223 0.0
C59 C 0.70272 0.15392 0.74759 0.0
C60 C 0.74882 0.13947 0.73807 0.0
C61 C 0.7103 0.10465 0.73621 0.0
C62 C 0.80295 0.30167 0.73607 0.0
O63 O 0.83597 0.31507 0.74684 0.0
H64 H 0.68852 0.17129 0.75271 0.0
H65 H 0.77833 0.14223 0.73436 0.0
O66 O 0.79059 0.23675 0.77654 0.0
H67 H 0.91688 0.21584 0.74765 0.0
H68 H 0.70413 0.07484 0.73095 0.0
Cu69 Cu 0.57727 0.77617 0.07651 0.0
N70 N 0.62448 0.82374 0.06805 0.0
N71 N 0.66548 0.88362 0.05365 0.0
C72 C 0.62642 0.85667 0.05924 0.0
C73 C 0.68897 0.86733 0.05922 0.0
C74 C 0.66365 0.83056 0.06825 0.0
O75 O 0.52929 0.77276 0.06381 0.0
C76 C 0.54136 0.75711 0.11303 0.0
O77 O 0.50849 0.72802 0.10434 0.0
H78 H 0.59965 0.86011 0.05641 0.0
H79 H 0.67291 0.80964 0.07414 0.0
N80 N 0.58271 0.73013 0.0704 0.0
N81 N 0.57606 0.66704 0.06964 0.0
C82 C 0.56406 0.69197 0.07808 0.0
C83 C 0.60698 0.72909 0.05664 0.0
C84 C 0.60301 0.69044 0.05614 0.0
C85 C 0.52453 0.76515 0.04626 0.0
O86 O 0.55154 0.75842 0.03732 0.0
H87 H 0.54232 0.68275 0.08962 0.0
H88 H 0.62579 0.75456 0.04735 0.0
O89 O 0.57362 0.78072 0.10354 0.0
H90 H 0.72203 0.88102 0.05682 0.0
H91 H 0.61794 0.68007 0.0462 0.0
Cu92 Cu 0.8164 0.56948 0.41424 0.0
N93 N 0.869 0.58008 0.40681 0.0
N94 N 0.92654 0.57539 0.40363 0.0
C95 C 0.88974 0.56098 0.41261 0.0
C96 C 0.92868 0.60466 0.39176 0.0
C97 C 0.89327 0.60745 0.39376 0.0
O98 O 0.81236 0.56362 0.44142 0.0
C99 C 0.7365 0.50808 0.40121 0.0
O100 O 0.72259 0.52609 0.41266 0.0
H101 H 0.87785 0.53694 0.42316 0.0
H102 H 0.88533 0.62747 0.38599 0.0
N103 N 0.81044 0.61501 0.40818 0.0
N104 N 0.78883 0.65583 0.39539 0.0
C105 C 0.78657 0.61846 0.39481 0.0
C106 C 0.82859 0.65136 0.41739 0.0
C107 C 0.81539 0.67657 0.40956 0.0
C108 C 0.79213 0.53018 0.45064 0.0
O109 O 0.77124 0.49494 0.44156 0.0
H110 H 0.76726 0.59378 0.38517 0.0
H111 H 0.84972 0.6588 0.42911 0.0
O112 O 0.77533 0.52117 0.40054 0.0
H113 H 0.95342 0.62207 0.38186 0.0
H114 H 0.82492 0.7079 0.4139 0.0
Cu115 Cu 0.26569 0.81042 0.7427 0.0
N116 N 0.21755 0.8088 0.73365 0.0
N117 N 0.15771 0.78921 0.7186 0.0
C118 C 0.18462 0.77745 0.72486 0.0
C119 C 0.17411 0.82919 0.72372 0.0
C120 C 0.21085 0.84109 0.73308 0.0
O121 O 0.27232 0.76849 0.72959 0.0
C122 C 0.28686 0.79741 0.77966 0.0
O123 O 0.31897 0.79832 0.77144 0.0
H124 H 0.18119 0.74723 0.72245 0.0
H125 H 0.2319 0.87155 0.73864 0.0
N126 N 0.31117 0.86198 0.73644 0.0
N127 N 0.37433 0.91851 0.73494 0.0
C128 C 0.34867 0.88399 0.7448 0.0
C129 C 0.31329 0.88314 0.72081 0.0
C130 C 0.35192 0.91787 0.71986 0.0
C131 C 0.25028 0.72993 0.7328 0.0
O132 O 0.22278 0.71724 0.7464 0.0
H133 H 0.35709 0.87463 0.75767 0.0
H134 H 0.28874 0.87324 0.71049 0.0
O135 O 0.26074 0.80176 0.76976 0.0
H136 H 0.16059 0.84846 0.72075 0.0
H137 H 0.36311 0.93997 0.70847 0.0
Cu138 Cu 0.7776 0.56228 0.62881 0.0
N139 N 0.73248 0.56766 0.63684 0.0
N140 N 0.66895 0.56028 0.63955 0.0
C141 C 0.69359 0.54965 0.62977 0.0
C142 C 0.69365 0.58593 0.65325 0.0
C143 C 0.73257 0.59049 0.65149 0.0
O144 O 0.77491 0.55543 0.60168 0.0
C145 C 0.77311 0.51262 0.65909 0.0
O146 O 0.77036 0.54153 0.66847 0.0
H147 H 0.68383 0.52931 0.61768 0.0
H148 H 0.75904 0.60875 0.66049 0.0
N149 N 0.82674 0.61006 0.63569 0.0
N150 N 0.88777 0.65202 0.64937 0.0
C151 C 0.86051 0.61274 0.64419 0.0
C152 C 0.83322 0.64893 0.6353 0.0
C153 C 0.87073 0.67485 0.64383 0.0
C154 C 0.79925 0.54663 0.5928 0.0
O155 O 0.82692 0.54181 0.60228 0.0
H156 H 0.86409 0.58629 0.64735 0.0
H157 H 0.81136 0.6575 0.62985 0.0
O158 O 0.77624 0.51524 0.64127 0.0
H159 H 0.68427 0.5998 0.66415 0.0
H160 H 0.88417 0.7078 0.64611 0.0
Cu161 Cu 0.23472 0.78174 0.95739 0.0
N162 N 0.23812 0.8305 0.9665 0.0
N163 N 0.25723 0.88889 0.98246 0.0
C164 C 0.26758 0.86024 0.97748 0.0
C165 C 0.22017 0.87699 0.97435 0.0
C166 C 0.20863 0.84116 0.96438 0.0
O167 O 0.27528 0.77223 0.97023 0.0
C168 C 0.24891 0.76119 0.92058 0.0
O169 O 0.24798 0.7293 0.92889 0.0
H170 H 0.29524 0.86024 0.98227 0.0
H171 H 0.18013 0.82339 0.95653 0.0
N172 N 0.18166 0.73772 0.96292 0.0
N173 N 0.12465 0.67507 0.9644 0.0
C174 C 0.16211 0.69863 0.95618 0.0
C175 C 0.15586 0.73872 0.9759 0.0
C176 C 0.12077 0.70037 0.9768 0.0
C177 C 0.31417 0.79626 0.96838 0.0
O178 O 0.32754 0.82782 0.95685 0.0
H179 H 0.17522 0.68758 0.94565 0.0
H180 H 0.16261 0.76525 0.98453 0.0
O181 O 0.24415 0.78711 0.93039 0.0
H182 H 0.20269 0.893 0.97566 0.0
H183 H 0.09513 0.69143 0.98641 0.0
Cu184 Cu 0.47329 0.22146 0.29528 0.0
N185 N 0.42686 0.2251 0.30254 0.0
N186 N 0.38594 0.24708 0.31509 0.0
C187 C 0.42519 0.25386 0.31344 0.0
C188 C 0.36228 0.2126 0.30482 0.0
C189 C 0.38756 0.19935 0.29706 0.0
O190 O 0.52107 0.26196 0.30945 0.0
C191 C 0.50942 0.23513 0.25833 0.0
O192 O 0.54133 0.23545 0.26649 0.0
H193 H 0.45233 0.27955 0.31975 0.0
H194 H 0.37801 0.17272 0.28805 0.0
N195 N 0.46404 0.16846 0.30096 0.0
N196 N 0.47205 0.11298 0.30387 0.0
C197 C 0.48804 0.15172 0.29687 0.0
C198 C 0.4319 0.13939 0.31085 0.0
C199 C 0.43666 0.10523 0.31264 0.0
C200 C 0.53741 0.30073 0.30686 0.0
O201 O 0.52333 0.31416 0.29323 0.0
H202 H 0.51709 0.16798 0.28933 0.0
H203 H 0.40688 0.14292 0.31657 0.0
O204 O 0.47895 0.23041 0.2683 0.0
H205 H 0.32891 0.1975 0.30316 0.0
H206 H 0.4155 0.0768 0.31977 0.0
Cu207 Cu 0.25843 0.46225 0.62375 0.0
N208 N 0.30003 0.44877 0.62801 0.0
N209 N 0.36197 0.45299 0.63123 0.0
C210 C 0.34154 0.47312 0.62632 0.0
C211 C 0.33219 0.41463 0.63621 0.0
C212 C 0.2941 0.41212 0.63418 0.0
O213 O 0.2563 0.47416 0.59732 0.0
C214 C 0.24362 0.52336 0.63882 0.0
O215 O 0.21377 0.50877 0.6262 0.0
H216 H 0.35655 0.50521 0.62208 0.0
H217 H 0.26412 0.38549 0.63716 0.0
N218 N 0.20693 0.41664 0.62964 0.0
N219 N 0.14567 0.37507 0.64323 0.0
C220 C 0.18136 0.41195 0.64403 0.0
C221 C 0.18686 0.38179 0.6194 0.0
C222 C 0.14918 0.3561 0.62773 0.0
C223 C 0.28578 0.50323 0.58818 0.0
O224 O 0.3206 0.5285 0.59687 0.0
H225 H 0.18886 0.43508 0.65484 0.0
H226 H 0.19867 0.37581 0.6066 0.0
O227 O 0.26759 0.5082 0.63973 0.0
H228 H 0.33754 0.39005 0.64088 0.0
H229 H 0.12579 0.32617 0.62247 0.0
Cu230 Cu 0.82323 0.26092 0.96279 0.0
N231 N 0.82137 0.21241 0.97098 0.0
N232 N 0.80172 0.15219 0.98525 0.0
C233 C 0.79079 0.1805 0.98049 0.0
C234 C 0.84033 0.16655 0.97843 0.0
C235 C 0.85223 0.20353 0.96949 0.0
O236 O 0.78241 0.26799 0.97673 0.0
C237 C 0.80533 0.281 0.92658 0.0
O238 O 0.80527 0.31214 0.93522 0.0
H239 H 0.76171 0.17861 0.98435 0.0
H240 H 0.88171 0.22311 0.96271 0.0
N241 N 0.87589 0.30576 0.96825 0.0
N242 N 0.93139 0.36937 0.97003 0.0
C243 C 0.89438 0.3448 0.96157 0.0
C244 C 0.90207 0.30575 0.98132 0.0
C245 C 0.93627 0.34471 0.9824 0.0
C246 C 0.74357 0.24561 0.9739 0.0
O247 O 0.73034 0.21787 0.96038 0.0
H248 H 0.88033 0.35535 0.95126 0.0
H249 H 0.89622 0.27944 0.98986 0.0
O250 O 0.81227 0.25606 0.93596 0.0
H251 H 0.85856 0.15133 0.97984 0.0
H252 H 0.96255 0.35417 0.99172 0.0
Cu253 Cu 0.58045 0.80867 0.29026 0.0
N254 N 0.6263 0.8032 0.29664 0.0
N255 N 0.66739 0.78294 0.31045 0.0
C256 C 0.63055 0.78213 0.31105 0.0
C257 C 0.68681 0.80537 0.29504 0.0
C258 C 0.6614 0.81765 0.28657 0.0
O259 O 0.53429 0.77249 0.30627 0.0
C260 C 0.54662 0.80253 0.25343 0.0
O261 O 0.52934 0.82275 0.26064 0.0
H262 H 0.60701 0.76642 0.32167 0.0
H263 H 0.66764 0.83524 0.27373 0.0
N264 N 0.59372 0.8638 0.29358 0.0
N265 N 0.58842 0.92082 0.29663 0.0
C266 C 0.56765 0.87906 0.29509 0.0
C267 C 0.63218 0.89694 0.2943 0.0
C268 C 0.62905 0.93206 0.2962 0.0
C269 C 0.51875 0.73347 0.30513 0.0
O270 O 0.5332 0.71836 0.29239 0.0
H271 H 0.53416 0.85989 0.29504 0.0
H272 H 0.66059 0.8957 0.29324 0.0
O273 O 0.56833 0.79301 0.26393 0.0
H274 H 0.71676 0.8115 0.28989 0.0
H275 H 0.65475 0.96351 0.2967 0.0
C276 C 0.32042 0.9545 0.99009 0.0
C277 C 0.27978 0.92411 0.99452 0.0
C278 C 0.34111 0.99119 1.00071 0.0
C279 C 0.321 0.9968 1.01644 0.0
C280 C 0.28063 0.96506 0.02144 0.0
C281 C 0.26024 0.92944 1.0102 0.0
C282 C 0.38359 0.02469 0.99458 0.0
C283 C 0.25853 0.96913 0.03841 0.0
C284 C 0.38351 0.08026 0.05282 0.0
C285 C 0.3722 0.10995 0.04853 0.0
C286 C 0.3675 0.04333 0.04239 0.0
C287 C 0.3407 0.03679 0.02696 0.0
C288 C 0.33074 0.06772 0.02215 0.0
C289 C 0.34603 0.10359 0.03323 0.0
C290 C 0.37788 1.01068 0.04832 0.0
C291 C 0.30337 0.06266 1.0055 0.0
H292 H 0.33516 0.95024 0.97782 0.0
H293 H 0.22884 0.90561 1.01358 0.0
H294 H 0.3819 0.05232 0.99011 0.0
H295 H 0.40587 0.03436 1.00645 0.0
H296 H 0.39591 1.01458 0.98273 0.0
H297 H 0.2292 0.94002 0.04146 0.0
H298 H 0.27898 0.97784 0.05095 0.0
H299 H 0.25104 0.9941 0.03604 0.0
H300 H 0.40361 0.08538 0.06478 0.0
H301 H 0.33773 0.12693 0.02993 0.0
H302 H 0.39083 1.00176 0.03633 0.0
H303 H 0.3491 0.98245 0.0528 0.0
H304 H 0.40056 0.02126 0.0601 0.0
H305 H 0.3151 0.05465 0.99275 0.0
H306 H 0.30179 0.09114 1.00264 0.0
H307 H 0.27142 0.03686 1.00809 0.0
C308 C 0.27945 0.32793 0.38622 0.0
C309 C 0.28266 0.36606 0.38164 0.0
C310 C 0.29928 0.31129 0.37545 0.0
C311 C 0.32355 0.33349 0.35978 0.0
C312 C 0.32836 0.37272 0.35546 0.0
C313 C 0.30771 0.38844 0.36637 0.0
C314 C 0.29323 0.26931 0.38054 0.0
C315 C 0.35441 0.3976 0.33901 0.0
C316 C 0.39559 0.29702 0.34044 0.0
C317 C 0.37181 0.27104 0.3256 0.0
C318 C 0.38105 0.31882 0.35126 0.0
C319 C 0.34157 0.31422 0.34734 0.0
C320 C 0.31791 0.28895 0.33212 0.0
C321 C 0.3334 0.268 0.3214 0.0
C322 C 0.40747 0.34588 0.36723 0.0
C323 C 0.27559 0.28307 0.32746 0.0
H324 H 0.26116 0.31073 0.39821 0.0
H325 H 0.31039 0.41777 0.36258 0.0
H326 H 0.27719 0.24718 0.36887 0.0
H327 H 0.32376 0.27122 0.38258 0.0
H328 H 0.27461 0.25667 0.39354 0.0
H329 H 0.35824 0.42911 0.33857 0.0
H330 H 0.3856 0.40047 0.33965 0.0
H331 H 0.33959 0.38138 0.32571 0.0
H332 H 0.42515 0.29961 0.34396 0.0
H333 H 0.31509 0.24899 0.30974 0.0
H334 H 0.39218 0.33227 0.38081 0.0
H335 H 0.41066 0.37704 0.36628 0.0
H336 H 0.43898 0.34937 0.36734 0.0
H337 H 0.25423 0.2682 0.33946 0.0
H338 H 0.26175 0.26358 0.31476 0.0
H339 H 0.27775 0.31349 0.32512 0.0
C340 C 0.9746 0.28194 0.7237 0.0
C341 C 0.93502 0.27223 0.71722 0.0
C342 C 1.00953 0.30108 0.71197 0.0
C343 C 1.00492 0.31078 0.69323 0.0
C344 C 0.9653 0.3021 0.68671 0.0
C345 C 0.93085 0.28299 0.69879 0.0
C346 C 0.05125 0.3101 0.71953 0.0
C347 C 0.95907 0.31191 0.66682 0.0
C348 C 0.10225 0.38626 0.66634 0.0
C349 C 0.11066 0.35926 0.65591 0.0
C350 C 0.06783 0.37103 0.67845 0.0
C351 C 0.04112 0.32776 0.68018 0.0
C352 C 0.04945 0.30039 0.66972 0.0
C353 C 0.08407 0.31644 0.65778 0.0
C354 C 0.06001 0.40123 0.68938 0.0
C355 C 1.02191 0.25404 0.67122 0.0
H356 H 0.97834 0.2746 0.73802 0.0
H357 H 0.90041 0.2754 0.69363 0.0
H358 H 0.06235 0.29178 0.71163 0.0
H359 H 0.07453 0.34325 0.71752 0.0
H360 H 0.05002 0.30257 0.73469 0.0
H361 H 0.92692 0.30564 0.66427 0.0
H362 H 0.98109 0.34489 0.66363 0.0
H363 H 0.96571 0.29302 0.65686 0.0
H364 H 0.12221 0.41936 0.66484 0.0
H365 H 0.09058 0.29528 0.65006 0.0
H366 H 0.06012 0.39552 0.70466 0.0
H367 H 0.02888 0.39661 0.68583 0.0
H368 H 0.08366 0.43393 0.68646 0.0
H369 H 1.02182 0.24407 0.6859 0.0
H370 H 0.03216 0.23698 0.66185 0.0
H371 H 0.98944 0.24508 0.66756 0.0
C372 C 0.70423 0.92859 0.02725 0.0
C373 C 0.67941 0.92114 0.04317 0.0
C374 C 0.72035 0.96607 1.01745 0.0
C375 C 0.71258 0.9974 0.02412 0.0
C376 C 0.68687 0.9897 0.04006 0.0
C377 C 0.67004 0.95129 0.04924 0.0
C378 C 0.74655 0.97247 1.00021 0.0
C379 C 0.67873 0.02262 0.04791 0.0
C380 C 0.79676 0.10558 1.01069 0.0
C381 C 0.77802 0.11493 0.99589 0.0
C382 C 0.775 0.06829 0.0206 0.0
C383 C 0.7339 0.03903 1.01515 0.0
C384 C 0.71457 0.04868 1.00036 0.0
C385 C 0.73674 0.0869 0.99108 0.0
C386 C 0.79637 0.05982 0.03663 0.0
C387 C 0.67126 0.01795 0.99379 0.0
H388 H 0.711 0.90492 0.02253 0.0
H389 H 0.65102 0.94538 0.06165 0.0
H390 H 0.73527 0.98354 0.98835 0.0
H391 H 0.77916 0.99659 1.00308 0.0
H392 H 0.74618 0.94368 0.99582 0.0
H393 H 0.65603 1.0109 0.05964 0.0
H394 H 0.70828 0.049 0.05314 0.0
H395 H 0.66683 0.03476 0.03676 0.0
H396 H 0.82858 0.12762 1.01447 0.0
H397 H 0.72251 0.09423 0.97952 0.0
H398 H 0.80182 0.03406 0.0328 0.0
H399 H 0.77632 0.05011 0.04929 0.0
H400 H 0.82672 0.08731 0.04026 0.0
H401 H 0.67106 0.99033 0.98782 0.0
H402 H 0.65973 0.03114 0.98292 0.0
H403 H 0.64934 1.00724 1.00579 0.0
C404 C 0.65506 0.72776 0.33327 0.0
C405 C 0.68264 0.76313 0.32308 0.0
C406 C 0.66975 0.70787 0.34527 0.0
C407 C 0.71308 0.72367 0.34712 0.0
C408 C 0.74103 0.75937 0.33692 0.0
C409 C 0.72552 0.77866 0.3251 0.0
C410 C 0.63894 0.66988 0.35591 0.0
C411 C 0.78746 0.77739 0.33855 0.0
C412 C 0.75823 0.70068 0.39036 0.0
C413 C 0.76742 0.67075 0.38358 0.0
C414 C 0.73942 0.7172 0.37882 0.0
C415 C 0.72952 0.70358 0.35997 0.0
C416 C 0.7376 0.67253 0.35317 0.0
C417 C 0.75638 0.65645 0.36506 0.0
C418 C 0.73102 0.74997 0.38669 0.0
C419 C 0.72758 0.65722 0.33316 0.0
H420 H 0.62191 0.71516 0.33166 0.0
H421 H 0.74714 0.80629 0.31757 0.0
H422 H 0.64294 0.64321 0.3521 0.0
H423 H 0.64472 0.67511 0.37124 0.0
H424 H 0.60628 0.66157 0.353 0.0
H425 H 0.80501 0.80486 0.32942 0.0
H426 H 0.79745 0.78661 0.35331 0.0
H427 H 0.79596 0.75372 0.33467 0.0
H428 H 0.76581 0.7113 0.40475 0.0
H429 H 0.76357 0.63356 0.35967 0.0
H430 H 0.6979 0.74076 0.38462 0.0
H431 H 0.74988 0.77949 0.37906 0.0
H432 H 0.73847 0.75557 0.40191 0.0
H433 H 0.69462 0.647 0.32992 0.0
H434 H 0.73324 0.6311 0.33039 0.0
H435 H 0.74695 0.68283 0.32339 0.0
C436 C 0.95516 0.65556 0.65463 0.0
C437 C 0.9256 0.66652 0.65994 0.0
C438 C 0.99367 0.67239 0.66398 0.0
C439 C 1.00214 0.69984 0.67931 0.0
C440 C 0.97143 0.70939 0.68521 0.0
C441 C 0.93384 0.69311 0.67526 0.0
C442 C 0.02588 0.66222 0.65695 0.0
C443 C 0.97861 0.73755 0.70178 0.0
C444 C 0.09104 0.72492 0.71338 0.0
C445 C 0.12023 0.76521 0.70791 0.0
C446 C 0.05267 0.70274 0.70399 0.0
C447 C 0.04394 0.72096 0.68845 0.0
C448 C 0.07431 0.76093 0.68237 0.0
C449 C 0.11178 0.78276 0.69234 0.0
C450 C 1.02082 0.66067 0.7112 0.0
C451 C 0.06685 0.78111 0.66558 0.0
H452 H 0.94872 0.63514 0.6427 0.0
H453 H 0.91066 0.7011 0.67946 0.0
H454 H 0.05303 0.6907 0.65145 0.0
H455 H 0.03724 0.65079 0.66862 0.0
H456 H 1.01364 0.63855 0.64561 0.0
H457 H 0.95026 0.73878 0.70561 0.0
H458 H 0.98891 0.72695 0.71417 0.0
H459 H 1.00368 0.76937 0.69844 0.0
H460 H 0.0976 0.71156 0.7255 0.0
H461 H 0.13466 0.81374 0.688 0.0
H462 H 1.00958 0.6376 0.69965 0.0
H463 H 0.99354 0.66204 0.71666 0.0
H464 H 0.03335 0.64971 0.72262 0.0
H465 H 0.0567 0.75981 0.65333 0.0
H466 H 0.09504 0.8105 0.66161 0.0
H467 H 0.04159 0.78788 0.66876 0.0
C468 C 0.67082 0.22173 0.98466 0.0
C469 C 0.7137 0.24836 0.98683 0.0
C470 C 0.6424 0.22214 0.99755 0.0
C471 C 0.65721 0.24983 1.013 0.0
C472 C 0.70036 0.27742 1.01504 0.0
C473 C 0.72807 0.27638 1.00194 0.0
C474 C 0.59658 0.19234 0.99485 0.0
C475 C 0.71735 0.30747 0.03129 0.0
C476 C 0.5809 0.27259 0.03858 0.0
C477 C 0.56988 0.24592 0.05408 0.0
C478 C 0.60951 0.27444 0.02518 0.0
C479 C 0.62761 0.24906 0.02732 0.0
C480 C 0.61709 0.22253 0.04305 0.0
C481 C 0.58836 0.22126 0.05623 0.0
C482 C 0.61996 0.30316 1.0086 0.0
C483 C 0.63584 0.19509 0.04586 0.0
H484 H 0.6594 0.20002 0.97303 0.0
H485 H 0.76113 0.29713 1.00374 0.0
H486 H 0.58443 0.1708 1.00694 0.0
H487 H 0.57928 0.20948 0.99439 0.0
H488 H 0.58999 0.17387 0.98174 0.0
H489 H 0.75157 0.32794 0.03048 0.0
H490 H 0.70261 0.32704 0.03165 0.0
H491 H 0.70974 0.29017 0.04473 0.0
H492 H 0.5668 0.29177 0.03677 0.0
H493 H 0.58008 0.20058 0.06814 0.0
H494 H 0.61106 0.285 0.99535 0.0
H495 H 0.65396 0.32479 1.00804 0.0
H496 H 0.60388 0.32152 1.00919 0.0
H497 H 0.62761 0.17338 0.03384 0.0
H498 H 0.62503 0.1768 0.05902 0.0
H499 H 0.67021 0.21411 0.04629 0.0
C500 C 0.38687 0.58375 0.38894 0.0
C501 C 0.34384 0.56607 0.38642 0.0
C502 C 0.41503 0.6125 0.37603 0.0
C503 C 0.39985 0.62382 0.36019 0.0
C504 C 0.3565 0.60682 0.35778 0.0
C505 C 0.32904 0.57821 0.37092 0.0
C506 C 0.46105 0.63007 0.37914 0.0
C507 C 0.33907 0.61807 0.34107 0.0
C508 C 0.47456 0.72162 0.33368 0.0
C509 C 0.48691 0.70552 0.31877 0.0
C510 C 0.44599 0.69542 0.34719 0.0
C511 C 0.42927 0.65208 0.34573 0.0
C512 C 0.44111 0.63562 0.33055 0.0
C513 C 0.46979 0.66251 0.31728 0.0
C514 C 0.43417 0.71414 0.36319 0.0
C515 C 0.42383 0.58958 0.32843 0.0
H516 H 0.39864 0.57468 0.40087 0.0
H517 H 0.29587 0.56479 0.36884 0.0
H518 H 0.47423 0.62048 0.36747 0.0
H519 H 0.4772 0.66438 0.37912 0.0
H520 H 0.4679 0.61963 0.3926 0.0
H521 H 0.30472 0.6036 0.34169 0.0
H522 H 0.35283 0.65214 0.34025 0.0
H523 H 0.34745 0.60792 0.32794 0.0
H524 H 0.48765 0.7548 0.33497 0.0
H525 H 0.47905 0.64973 0.30581 0.0
H526 H 0.44331 0.70636 0.37676 0.0
H527 H 0.39999 0.70092 0.3635 0.0
H528 H 0.44919 0.74834 0.36209 0.0
H529 H 0.43246 0.57747 0.34083 0.0
H530 H 0.43544 0.58166 0.31559 0.0
H531 H 0.38941 0.57341 0.32781 0.0
C532 C 0.82943 0.37201 0.72218 0.0
C533 C 0.79719 0.33097 0.72411 0.0
C534 C 0.82474 0.40015 0.71082 0.0
C535 C 0.78672 0.38711 0.70127 0.0
C536 C 0.75407 0.34569 0.70308 0.0
C537 C 0.75976 0.31805 0.71441 0.0
C538 C 0.86042 0.44398 0.70914 0.0
C539 C 0.71295 0.33074 0.69326 0.0
C540 C 0.76342 0.4723 0.68846 0.0
C541 C 0.77427 0.47869 0.66939 0.0
C542 C 0.76625 0.44184 0.69883 0.0
C543 C 0.78074 0.41739 0.69 0.0
C544 C 0.79107 0.42314 0.67066 0.0
C545 C 0.78748 0.4536 0.66054 0.0
C546 C 0.75448 0.43637 0.71936 0.0
C547 C 0.80694 0.39789 0.66079 0.0
H548 H 0.85856 0.3822 0.7295 0.0
H549 H 0.73468 0.2864 0.71581 0.0
H550 H 0.86868 0.45186 0.69415 0.0
H551 H 0.85103 0.46589 0.71475 0.0
H552 H 0.88848 0.44877 0.71688 0.0
H553 H 0.69104 0.29734 0.69574 0.0
H554 H 0.69834 0.34871 0.69826 0.0
H555 H 0.71782 0.33595 0.67791 0.0
H556 H 0.75288 0.49133 0.69537 0.0
H557 H 0.79602 0.45844 0.64583 0.0
H558 H 0.78216 0.44403 0.7281 0.0
H559 H 0.73103 0.40363 0.72222 0.0
H560 H 0.74167 0.45633 0.72387 0.0
H561 H 0.83675 0.40413 0.66722 0.0
H562 H 0.812 0.40494 0.64554 0.0
H563 H 0.78464 0.36438 0.66252 0.0
C564 C 0.38613 0.82026 0.98034 0.0
C565 C 0.34392 0.79001 0.9799 0.0
C566 C 0.41446 0.81538 0.99161 0.0
C567 C 0.40034 0.7792 1.0026 0.0
C568 C 0.35783 0.74841 1.00214 0.0
C569 C 0.3301 0.75425 0.99086 0.0
C570 C 0.45951 0.84904 0.9918 0.0
C571 C 0.34166 0.70923 1.01351 0.0
C572 C 0.48212 0.75171 1.0171 0.0
C573 C 0.49076 0.76635 0.03566 0.0
C574 C 0.45205 0.75477 1.00636 0.0
C575 C 0.43034 0.77334 1.01428 0.0
C576 C 0.43834 0.78751 0.03313 0.0
C577 C 0.46831 0.78364 0.04364 0.0
C578 C 0.44407 0.7388 0.9864 0.0
C579 C 0.41602 0.80773 0.04204 0.0
H580 H 0.39708 0.84808 0.972 0.0
H581 H 0.29755 0.73067 0.9906 0.0
H582 H 0.46934 0.86049 1.00635 0.0
H583 H 0.47934 0.83643 0.98687 0.0
H584 H 0.46536 0.87564 0.98273 0.0
H585 H 0.30772 0.68831 1.01163 0.0
H586 H 0.35798 0.69233 1.00938 0.0
H587 H 0.34809 0.71693 0.02865 0.0
H588 H 0.49911 0.73805 1.01085 0.0
H589 H 0.4749 0.79513 0.05795 0.0
H590 H 0.45257 0.7648 0.97653 0.0
H591 H 0.41053 0.71648 0.98434 0.0
H592 H 0.46205 0.72332 0.98264 0.0
H593 H 0.42341 0.83639 0.03428 0.0
H594 H 0.42474 0.81582 0.05702 0.0
H595 H 0.38193 0.78684 0.04114 0.0
C596 C 0.57923 0.31591 0.33649 0.0
C597 C 0.56913 0.33031 0.32022 0.0
C598 C 0.607 0.34358 0.34991 0.0
C599 C 0.62541 0.38673 0.34696 0.0
C600 C 0.6161 0.40147 0.33037 0.0
C601 C 0.588 0.37312 0.31724 0.0
C602 C 0.616 0.32661 0.36743 0.0
C603 C 0.63537 0.44726 0.32663 0.0
C604 C 0.66485 0.46004 0.38888 0.0
C605 C 0.70781 0.47526 0.38802 0.0
C606 C 0.63765 0.43077 0.37579 0.0
C607 C 0.65377 0.41651 0.3614 0.0
C608 C 0.69701 0.43127 0.36061 0.0
C609 C 0.72347 0.46034 0.37395 0.0
C610 C 0.59168 0.41553 0.3772 0.0
C611 C 0.71544 0.41696 0.34545 0.0
H612 H 0.56477 0.28292 0.33896 0.0
H613 H 0.5805 0.38457 0.30471 0.0
H614 H 0.64991 0.33887 0.36885 0.0
H615 H 0.60586 0.33687 0.38 0.0
H616 H 0.60001 0.29226 0.3674 0.0
H617 H 0.62606 0.4537 0.31276 0.0
H618 H 0.62595 0.46184 0.33773 0.0
H619 H 0.66974 0.46227 0.32711 0.0
H620 H 0.65242 0.47129 0.3997 0.0
H621 H 0.75661 0.47194 0.37312 0.0
H622 H 0.57413 0.38128 0.37819 0.0
H623 H 0.58086 0.42409 0.36433 0.0
H624 H 0.58393 0.42859 0.38957 0.0
H625 H 0.70078 0.38276 0.3457 0.0
H626 H 0.74957 0.43064 0.34705 0.0
H627 H 0.70899 0.42558 0.33146 0.0
C628 C 0.2213 0.57204 0.65135 0.0
C629 C 0.24741 0.55497 0.65261 0.0
C630 C 0.22324 0.6007 0.66472 0.0
C631 C 0.25189 0.61253 0.67979 0.0
C632 C 0.27859 0.5957 0.68108 0.0
C633 C 0.2761 0.5672 0.66746 0.0
C634 C 0.1944 0.61813 0.66278 0.0
C635 C 0.30949 0.60749 0.69695 0.0
C636 C 0.2796 0.71357 0.70449 0.0
C637 C 0.253 0.69973 0.7201 0.0
C638 C 0.28022 0.68551 0.69149 0.0
C639 C 0.25373 0.6425 0.69417 0.0
C640 C 0.22771 0.62826 0.71018 0.0
C641 C 0.2276 0.65703 0.72293 0.0
C642 C 0.30839 0.70195 0.67461 0.0
C643 C 0.19921 0.58262 0.71358 0.0
H644 H 0.19906 0.56284 0.63994 0.0
H645 H 0.29634 0.55411 0.66859 0.0
H646 H 0.17423 0.61017 0.67535 0.0
H647 H 0.21269 0.65239 0.66195 0.0
H648 H 0.17432 0.60621 0.65011 0.0
H649 H 0.32832 0.59196 0.69585 0.0
H650 H 0.33077 0.64147 0.69709 0.0
H651 H 0.29293 0.59911 0.71061 0.0
H652 H 0.2994 0.74648 0.70217 0.0
H653 H 0.20704 0.64602 0.73496 0.0
H654 H 0.28944 0.6934 0.66158 0.0
H655 H 0.32846 0.68778 0.67373 0.0
H656 H 0.32853 0.73614 0.67504 0.0
H657 H 0.17587 0.56929 0.70213 0.0
H658 H 0.18258 0.5765 0.7272 0.0
H659 H 0.21719 0.56616 0.71344 0.0
C660 C 0.46831 0.19485 0.14861 0.0
C661 C 0.48311 0.23078 0.13769 0.0
C662 C 0.47449 0.19711 0.16814 0.0
C663 C 0.49616 0.23626 0.17706 0.0
C664 C 0.51174 0.27269 0.16611 0.0
C665 C 0.50498 0.26952 0.14657 0.0
C666 C 0.45725 0.1575 0.17929 0.0
C667 C 0.53507 0.315 0.17507 0.0
C668 C 0.47379 0.23868 0.22904 0.0
C669 C 0.50759 0.23803 0.23755 0.0
C670 C 0.47025 0.23912 0.2094 0.0
C671 C 0.50121 0.23884 0.19791 0.0
C672 C 0.53589 0.23912 0.20639 0.0
C673 C 0.53869 0.23875 0.2261 0.0
C674 C 0.43282 0.23891 0.20095 0.0
C675 C 0.56956 0.23883 0.19463 0.0
H676 H 0.45138 0.16475 0.14194 0.0
H677 H 0.51662 0.29747 0.13827 0.0
H678 H 0.48247 0.15686 0.18737 0.0
H679 H 0.43411 0.15599 0.18958 0.0
H680 H 0.44206 0.12954 0.1702 0.0
H681 H 0.54642 0.34028 0.16455 0.0
H682 H 0.51461 0.31903 0.18517 0.0
H683 H 0.56205 0.31805 0.18313 0.0
H684 H 0.44964 0.2383 0.23772 0.0
H685 H 0.56494 0.23828 0.23251 0.0
H686 H 0.41428 0.21004 0.19275 0.0
H687 H 0.44285 0.2652 0.19109 0.0
H688 H 0.41246 0.24102 0.2118 0.0
H689 H 0.55634 0.20982 0.18629 0.0
H690 H 0.59551 0.24119 0.20332 0.0
H691 H 0.58219 0.26493 0.18453 0.0
C692 C 0.25603 0.54095 0.4792 0.0
C693 C 0.25822 0.51095 0.46809 0.0
C694 C 0.26102 0.54175 0.49881 0.0
C695 C 0.26881 0.51213 0.50752 0.0
C696 C 0.27174 0.48223 0.49634 0.0
C697 C 0.26621 0.48188 0.47681 0.0
C698 C 0.25729 0.57387 0.51026 0.0
C699 C 0.28039 0.45034 0.50503 0.0
C700 C 0.31602 0.53257 0.5566 0.0
C701 C 0.28127 0.50723 0.56768 0.0
C702 C 0.31239 0.53487 0.53703 0.0
C703 C 0.27297 0.51166 0.52835 0.0
C704 C 0.23763 0.4868 0.53952 0.0
C705 C 0.24224 0.4847 0.559 0.0
C706 C 0.35087 0.5614 0.52559 0.0
C707 C 0.19499 0.4619 0.53085 0.0
H708 H 0.24974 0.56345 0.47261 0.0
H709 H 0.26817 0.4587 0.46836 0.0
H710 H 0.23128 0.55841 0.52038 0.0
H711 H 0.28603 0.5925 0.51858 0.0
H712 H 0.25175 0.59511 0.50136 0.0
H713 H 0.28309 0.43008 0.49433 0.0
H714 H 0.30964 0.4659 0.51328 0.0
H715 H 0.25507 0.43063 0.51489 0.0
H716 H 0.34632 0.54997 0.56316 0.0
H717 H 0.21516 0.46521 0.56745 0.0
H718 H 0.34667 0.58413 0.51722 0.0
H719 H 0.35615 0.54172 0.51553 0.0
H720 H 0.37902 0.57843 0.53451 0.0
H721 H 0.18735 0.4824 0.52255 0.0
H722 H 0.17041 0.44565 0.54156 0.0
H723 H 0.19456 0.43852 0.52104 0.0
C724 C 0.79938 0.30677 0.89484 0.0
C725 C 0.79778 0.27506 0.90603 0.0
C726 C 0.79331 0.3018 0.8753 0.0
C727 C 0.78485 0.26402 0.86677 0.0
C728 C 0.78258 0.23168 0.87804 0.0
C729 C 0.78934 0.23769 0.89749 0.0
C730 C 0.79651 0.33719 0.86373 0.0
C731 C 0.77315 0.19075 0.86954 0.0
C732 C 0.73416 0.23664 0.8184 0.0
C733 C 0.76805 0.24541 0.80677 0.0
C734 C 0.73917 0.24271 0.83794 0.0
C735 C 0.77913 0.25847 0.84602 0.0
C736 C 0.81358 0.2681 0.83431 0.0
C737 C 0.80759 0.2612 0.81487 0.0
C738 C 0.70158 0.23158 0.84997 0.0
C739 C 0.85678 0.28543 0.84234 0.0
H740 H 0.80606 0.33579 0.9013 0.0
H741 H 0.7878 0.21292 0.90604 0.0
H742 H 0.82162 0.34675 0.85319 0.0
H743 H 0.76715 0.32715 0.85591 0.0
H744 H 0.80308 0.36449 0.8725 0.0
H745 H 0.77117 0.16829 0.8803 0.0
H746 H 0.74329 0.17696 0.86174 0.0
H747 H 0.79766 0.19558 0.85929 0.0
H748 H 0.70348 0.22427 0.81227 0.0
H749 H 0.834 0.26829 0.80599 0.0
H750 H 0.70637 0.25895 0.85817 0.0
H751 H 0.69718 0.2073 0.8602 0.0
H752 H 0.67274 0.22009 0.8415 0.0
H753 H 0.86537 0.31403 0.85047 0.0
H754 H 0.88049 0.29275 0.83127 0.0
H755 H 0.85761 0.26284 0.8522 0.0
C756 C 0.57443 0.79626 0.14268 0.0
C757 C 0.54099 0.76253 0.1337 0.0
C758 C 0.57449 0.80196 0.1622 0.0
C759 C 0.54043 0.77309 0.17308 0.0
C760 C 0.50668 0.73886 0.16414 0.0
C761 C 0.50729 0.73406 0.14456 0.0
C762 C 0.61099 0.839 0.17117 0.0
C763 C 0.46993 0.70726 0.17526 0.0
C764 C 0.55956 0.76959 0.22541 0.0
C765 C 0.54307 0.79313 0.233 0.0
C766 C 0.55822 0.76218 0.20599 0.0
C767 C 0.54018 0.77891 0.19381 0.0
C768 C 0.52295 0.80218 0.2014 0.0
C769 C 0.52447 0.80888 0.22089 0.0
C770 C 0.57667 0.73697 0.19847 0.0
C771 C 0.50364 0.82072 0.18889 0.0
H772 H 0.60058 0.81849 0.13444 0.0
H773 H 0.48138 0.70783 0.13778 0.0
H774 H 0.60022 0.85818 0.17855 0.0
H775 H 0.6256 0.82863 0.18184 0.0
H776 H 0.63497 0.85867 0.16074 0.0
H777 H 0.44636 0.68217 0.16624 0.0
H778 H 0.4805 0.69322 0.18612 0.0
H779 H 0.45491 0.72252 0.18269 0.0
H780 H 0.57389 0.75717 0.23464 0.0
H781 H 0.51171 0.82717 0.22659 0.0
H782 H 0.60302 0.75629 0.189 0.0
H783 H 0.55319 0.71055 0.19005 0.0
H784 H 0.58804 0.72476 0.20986 0.0
H785 H 0.52728 0.84294 0.17899 0.0
H786 H 0.49067 0.83713 0.19701 0.0
H787 H 0.4784 0.79614 0.18032 0.0
C788 C 0.8237 0.53273 0.56222 0.0
C789 C 0.79686 0.54248 0.57198 0.0
C790 C 0.82239 0.52948 0.54252 0.0
C791 C 0.79354 0.53616 0.53227 0.0
C792 C 0.76607 0.54561 0.54204 0.0
C793 C 0.76805 0.54865 0.56175 0.0
C794 C 0.85223 0.51937 0.53265 0.0
C795 C 0.73489 0.55298 0.53166 0.0
C796 C 0.81748 0.56874 0.48109 0.0
C797 C 0.79233 0.53141 0.47153 0.0
C798 C 0.81816 0.57066 0.50081 0.0
C799 C 0.79293 0.53442 0.51131 0.0
C800 C 0.76736 0.49664 0.50177 0.0
C801 C 0.76744 0.49556 0.48201 0.0
C802 C 0.84599 0.61152 0.51041 0.0
C803 C 0.73989 0.45737 0.51245 0.0
H804 H 0.84603 0.52783 0.56995 0.0
H805 H 0.74713 0.55616 0.56914 0.0
H806 H 0.8348 0.49126 0.52384 0.0
H807 H 0.87259 0.54509 0.52312 0.0
H808 H 0.8721 0.51411 0.54265 0.0
H809 H 0.71498 0.55895 0.54133 0.0
H810 H 0.7513 0.57992 0.52215 0.0
H811 H 0.71466 0.52576 0.52277 0.0
H812 H 0.8369 0.59664 0.47317 0.0
H813 H 0.74783 0.4666 0.47478 0.0
H814 H 0.86836 0.60864 0.51974 0.0
H815 H 0.82717 0.6203 0.51937 0.0
H816 H 0.86372 0.63686 0.50023 0.0
H817 H 0.75907 0.44989 0.52185 0.0
H818 H 0.72163 0.43058 0.50297 0.0
H819 H 0.71804 0.46176 0.52148 0.0
C820 C 0.24925 0.73351 0.88849 0.0
C821 C 0.25489 0.76661 0.89994 0.0
C822 C 0.25409 0.73795 0.8689 0.0
C823 C 0.26556 0.77664 0.86053 0.0
C824 C 0.27172 0.8103 0.87204 0.0
C825 C 0.26597 0.80479 0.89156 0.0
C826 C 0.24658 0.70111 0.85712 0.0
C827 C 0.28458 0.85222 0.86373 0.0
C828 C 0.31457 0.79794 0.81187 0.0
C829 C 0.28133 0.79184 0.80032 0.0
C830 C 0.30998 0.79344 0.83148 0.0
C831 C 0.271 0.78186 0.83974 0.0
C832 C 0.23721 0.77526 0.82814 0.0
C833 C 0.24287 0.78067 0.8086 0.0
C834 C 0.34695 0.8014 0.84337 0.0
C835 C 0.19499 0.76226 0.83634 0.0
H836 H 0.24044 0.70383 0.89482 0.0
H837 H 0.27059 0.83059 0.90031 0.0
H838 H 0.22184 0.69419 0.84661 0.0
H839 H 0.27513 0.70822 0.84924 0.0
H840 H 0.23721 0.673 0.86573 0.0
H841 H 0.28896 0.87545 0.87462 0.0
H842 H 0.31406 0.86367 0.85585 0.0
H843 H 0.26071 0.8497 0.85359 0.0
H844 H 0.34446 0.80682 0.80561 0.0
H845 H 0.21696 0.77569 0.79978 0.0
H846 H 0.33998 0.77311 0.85133 0.0
H847 H 0.35356 0.82609 0.8538 0.0
H848 H 0.3753 0.81089 0.83482 0.0
H849 H 0.1836 0.733 0.84429 0.0
H850 H 0.17172 0.75762 0.82539 0.0
H851 H 0.19723 0.78606 0.8464 0.0
C852 C 0.52181 0.59751 0.08015 0.0
C853 C 0.5619 0.62389 0.07325 0.0
C854 C 0.50643 0.55469 0.08183 0.0
C855 C 0.53173 0.53787 0.07646 0.0
C856 C 0.57286 0.56462 0.07033 0.0
C857 C 0.58742 0.6072 0.06885 0.0
C858 C 0.46246 0.52723 0.08853 0.0
C859 C 0.60097 0.54807 0.06453 0.0
C860 C 0.50303 0.42758 0.08952 0.0
C861 C 0.48412 0.40602 0.07291 0.0
C862 C 0.518 0.47038 0.09108 0.0
C863 C 0.51423 0.49216 0.07561 0.0
C864 C 0.49504 0.47051 0.05885 0.0
C865 C 0.48025 0.42783 0.05772 0.0
C866 C 0.53806 0.49235 0.10921 0.0
C867 C 0.49075 0.49256 0.04194 0.0
H868 H 0.50181 0.61004 0.08352 0.0
H869 H 0.61875 0.62744 0.06392 0.0
H870 H 0.44305 0.50767 0.07671 0.0
H871 H 0.4616 0.50613 0.09971 0.0
H872 H 0.44839 0.54536 0.09403 0.0
H873 H 0.63305 0.5732 0.06143 0.0
H874 H 0.6024 0.52822 0.07576 0.0
H875 H 0.58822 0.52853 0.05178 0.0
H876 H 0.50573 0.41089 0.10137 0.0
H877 H 0.46636 0.41167 0.04473 0.0
H878 H 0.52195 0.50847 0.11472 0.0
H879 H 0.57084 0.51629 0.10662 0.0
H880 H 0.53742 0.47078 0.12013 0.0
H881 H 0.47373 0.5089 0.04584 0.0
H882 H 0.47404 0.47104 0.03015 0.0
H883 H 0.52197 0.51627 0.03696 0.0
C884 C 0.94446 0.52182 0.4126 0.0
C885 C 0.95638 0.56131 0.40546 0.0
C886 C 0.97267 0.50705 0.41345 0.0
C887 C 1.01378 0.53213 0.40685 0.0
C888 C 0.02635 0.57234 0.40006 0.0
C889 C 0.99766 0.58648 0.39955 0.0
C890 C 0.9581 0.46408 0.42091 0.0
C891 C 0.06986 0.60006 0.39284 0.0
C892 C 0.09765 0.5058 0.41982 0.0
C893 C 0.09825 0.48403 0.40383 0.0
C894 C 0.07014 0.5214 0.4211 0.0
C895 C 0.04289 0.51545 0.40596 0.0
C896 C 0.04365 0.49381 0.38974 0.0
C897 C 0.07116 0.47829 0.38891 0.0
C898 C 0.07001 0.54397 0.4387 0.0
C899 C 1.01554 0.48721 0.37317 0.0
H900 H 0.91274 0.50185 0.41707 0.0
H901 H 1.00766 0.61731 0.39439 0.0
H902 H 0.95822 0.44397 0.40943 0.0
H903 H 0.97962 0.46503 0.43197 0.0
H904 H 0.92626 0.44974 0.42685 0.0
H905 H 0.0753 0.63112 0.38875 0.0
H906 H 0.09298 0.60397 0.40371 0.0
H907 H 0.07551 0.58553 0.38042 0.0
H908 H 0.11819 0.50998 0.43146 0.0
H909 H 0.07189 0.46212 0.37639 0.0
H910 H 0.03865 0.52802 0.44514 0.0
H911 H 0.07715 0.57582 0.43518 0.0
H912 H 0.09296 0.54585 0.44925 0.0
H913 H 0.98258 0.46997 0.37766 0.0
H914 H 1.01998 0.46976 0.3616 0.0
H915 H 1.02155 0.51752 0.36765 0.0
C916 C 0.61227 0.08992 0.75643 0.0
C917 C 0.63691 0.08638 0.74244 0.0
C918 C 0.56902 0.06296 0.75687 0.0
C919 C 0.54991 0.03211 0.74282 0.0
C920 C 0.57467 0.02855 0.72863 0.0
C921 C 0.6178 0.05553 0.72868 0.0
C922 C 0.54381 0.06744 0.77236 0.0
C923 C 0.55553 0.99655 0.71321 0.0
C924 C 0.44265 0.93738 0.74914 0.0
C925 C 0.41758 0.94822 0.73855 0.0
C926 C 0.48551 0.96497 0.75127 0.0
C927 C 0.5039 1.00424 0.74249 0.0
C928 C 0.47857 1.01591 0.73235 0.0
C929 C 0.43583 0.98794 0.73062 0.0
C930 C 0.51137 0.95151 0.76237 0.0
C931 C 0.49685 0.05743 0.72274 0.0
H932 H 0.62694 0.11337 0.76723 0.0
H933 H 0.63658 0.05299 0.7177 0.0
H934 H 0.52059 0.0746 0.76628 0.0
H935 H 0.52638 0.03783 0.78009 0.0
H936 H 0.56347 0.09227 0.78251 0.0
H937 H 0.57913 0.99756 0.70331 0.0
H938 H 0.53828 0.96511 0.71937 0.0
H939 H 0.53284 1.00159 0.70515 0.0
H940 H 0.42914 0.90683 0.75526 0.0
H941 H 0.41675 0.99713 0.72279 0.0
H942 H 0.53064 0.97547 0.7729 0.0
H943 H 0.53291 0.94787 0.7528 0.0
H944 H 0.49197 0.92171 0.76975 0.0
H945 H 0.51467 0.08272 0.73296 0.0
H946 H 0.47267 0.06261 0.71616 0.0
H947 H 0.51886 0.05959 0.71168 0.0
C948 C 0.59996 0.51079 0.62594 0.0
C949 C 0.62526 0.54638 0.63664 0.0
C950 C 0.55714 0.49606 0.62384 0.0
C951 C 0.53889 0.51698 0.63286 0.0
C952 C 0.56424 0.55329 0.64335 0.0
C953 C 0.607 0.56771 0.64495 0.0
C954 C 0.53125 0.45753 0.6123 0.0
C955 C 0.54603 0.57642 0.6533 0.0
C956 C 0.43203 0.49794 0.61809 0.0
C957 C 0.40627 0.46908 0.63153 0.0
C958 C 0.47517 0.51329 0.61811 0.0
C959 C 0.49303 0.49995 0.6321 0.0
C960 C 0.46714 0.47098 0.64576 0.0
C961 C 0.42411 0.45572 0.64522 0.0
C962 C 0.50161 0.54365 0.60314 0.0
C963 C 0.48496 0.45651 0.66112 0.0
H964 H 0.61326 0.49374 0.6195 0.0
H965 H 0.62599 0.59573 0.65286 0.0
H966 H 0.50879 0.43234 0.62152 0.0
H967 H 0.51298 0.4634 0.60164 0.0
H968 H 0.55053 0.44667 0.60501 0.0
H969 H 0.57007 0.60466 0.66058 0.0
H970 H 0.52943 0.58557 0.64312 0.0
H971 H 0.52293 0.55595 0.66384 0.0
H972 H 0.4183 0.50796 0.60736 0.0
H973 H 0.40441 0.43383 0.65577 0.0
H974 H 0.5191 0.53143 0.59536 0.0
H975 H 0.52479 0.57328 0.60973 0.0
H976 H 0.48282 0.55004 0.59296 0.0
H977 H 0.50202 0.44203 0.65489 0.0
H978 H 0.46059 0.43378 0.67064 0.0
H979 H 0.50757 0.48338 0.6696 0.0
C980 C 0.11011 0.60434 0.95639 0.0
C981 C 0.09596 0.63136 0.96189 0.0
C982 C 0.08302 0.5613 0.95578 0.0
C983 C 0.04078 0.54486 0.96081 0.0
C984 C 0.02594 0.57208 0.96554 0.0
C985 C 0.05364 0.6149 0.96597 0.0
C986 C 0.10004 0.53333 0.95059 0.0
C987 C 0.98114 0.5559 0.97094 0.0
C988 C 0.96113 0.43224 0.95018 0.0
C989 C 0.95886 0.41326 0.96749 0.0
C990 C 0.98801 0.47497 0.94766 0.0
C991 C 1.01301 0.49929 0.96284 0.0
C992 C 1.01079 0.48028 0.98032 0.0
C993 C 0.98383 0.43763 0.98242 0.0
C994 C 0.98966 0.4941 0.92878 0.0
C995 C 0.03657 0.50508 0.99695 0.0
H996 H 0.14272 0.61663 0.95331 0.0
H997 H 0.0422 0.63554 0.96982 0.0
H998 H 0.09984 0.5156 0.96313 0.0
H999 H 0.08013 0.51057 0.93977 0.0
H1000 H 0.13233 0.55093 0.94518 0.0
H1001 H 0.97379 0.58116 0.97283 0.0
H1002 H 0.96011 0.5342 0.96007 0.0
H1003 H 0.97441 0.5384 0.98429 0.0
H1004 H 0.94226 0.41358 0.93854 0.0
H1005 H 0.98178 0.42347 0.99593 0.0
H1006 H 1.02188 0.50957 0.92329 0.0
H1007 H 0.98064 0.5182 0.93028 0.0
H1008 H 0.96877 0.47086 0.91832 0.0
H1009 H 0.07003 0.52126 0.99326 0.0
H1010 H 0.03178 0.48549 1.00948 0.0
H1011 H 0.02853 0.52914 1.00072 0.0
C1012 C 0.59346 0.9867 0.30675 0.0
C1013 C 0.57127 0.9481 0.29777 0.0
C1014 C 0.57778 1.01405 0.3076 0.0
C1015 C 0.53892 1.0027 0.29924 0.0
C1016 C 0.51629 0.96378 0.29017 0.0
C1017 C 0.53268 0.93695 0.28958 0.0
C1018 C 0.60276 0.05508 0.31755 0.0
C1019 C 0.4748 0.95055 0.28103 0.0
C1020 C 0.48028 0.05579 0.31663 0.0
C1021 C 0.48921 0.0857 0.3027 0.0
C1022 C 0.49612 0.02859 0.31564 0.0
C1023 C 0.52162 0.03123 0.30033 0.0
C1024 C 0.5309 0.06138 0.28623 0.0
C1025 C 0.51466 0.08828 0.2876 0.0
C1026 C 0.48569 0.99712 0.33105 0.0
C1027 C 0.55788 0.06513 0.26965 0.0
H1028 H 0.623 0.99537 0.31333 0.0
H1029 H 0.51558 0.90751 0.28239 0.0
H1030 H 0.60953 0.0808 0.30776 0.0
H1031 H 0.58451 0.05732 0.32936 0.0
H1032 H 0.63261 0.05945 0.32317 0.0
H1033 H 0.46127 0.91949 0.27439 0.0
H1034 H 0.4526 0.94987 0.29164 0.0
H1035 H 0.47826 0.9733 0.27014 0.0
H1036 H 0.46127 0.05393 0.32852 0.0
H1037 H 0.52136 0.11091 0.27667 0.0
H1038 H 0.51462 1.002 0.33793 0.0
H1039 H 0.46999 0.96544 0.325 0.0
H1040 H 0.46517 0.99885 0.34193 0.0
H1041 H 0.58892 0.07169 0.27462 0.0
H1042 H 0.56204 0.09005 0.25984 0.0
H1043 H 0.54391 0.03542 0.26182 0.0
loop_
_geom_bond_atom_site_label_1
_geom_bond_atom_site_label_2
_geom_bond_distance
_geom_bond_site_symmetry_2
_ccdc_geom_bond_type
Cu0 N1 1.999 . S
Cu0 O6 1.974 . S
Cu0 N11 1.985 . S
Cu0 O20 1.959 . S
N1 Cu0 1.999 . S
N1 C3 1.263 . S
N1 C5 1.389 . S
N2 C3 1.358 . S
N2 C4 1.400 . S
C3 N1 1.263 . S
C3 N2 1.358 . S
C3 H9 0.930 . S
C4 N2 1.400 . S
C4 C5 1.351 . S
C4 H21 0.930 . S
C5 N1 1.389 . S
C5 C4 1.351 . S
C5 H10 0.930 . S
O6 Cu0 1.974 . S
O6 C16 1.282 . S
C7 O8 1.261 . S
C7 O20 1.251 . S
O8 C7 1.261 . S
H9 C3 0.930 . S
H10 C5 0.930 . S
N11 Cu0 1.985 . S
N11 C13 1.335 . S
N11 C14 1.390 . S
N12 C13 1.345 . S
N12 C15 1.336 . S
C13 N11 1.335 . S
C13 N12 1.345 . S
C13 H18 0.930 . S
C14 N11 1.390 . S
C14 C15 1.346 . S
C14 H19 0.930 . S
C15 N12 1.336 . S
C15 C14 1.346 . S
C15 H22 0.929 . S
C16 O6 1.282 . S
C16 O17 1.216 . S
O17 C16 1.216 . S
H18 C13 0.930 . S
H19 C14 0.930 . S
O20 Cu0 1.959 . S
O20 C7 1.251 . S
H21 C4 0.930 . S
H22 C15 0.929 . S
Cu23 N24 1.999 . S
Cu23 O29 1.974 . S
Cu23 N34 1.985 . S
Cu23 O43 1.959 . S
N24 Cu23 1.999 . S
N24 C26 1.263 . S
N24 C28 1.389 . S
N25 C26 1.358 . S
N25 C27 1.400 . S
C26 N24 1.263 . S
C26 N25 1.358 . S
C26 H32 0.930 . S
C27 N25 1.400 . S
C27 C28 1.351 . S
C27 H44 0.930 . S
C28 N24 1.389 . S
C28 C27 1.351 . S
C28 H33 0.930 . S
O29 Cu23 1.974 . S
O29 C39 1.282 . S
C30 O31 1.261 . S
C30 O43 1.251 . S
O31 C30 1.261 . S
H32 C26 0.930 . S
H33 C28 0.930 . S
N34 Cu23 1.985 . S
N34 C36 1.335 . S
N34 C37 1.390 . S
N35 C36 1.345 . S
N35 C38 1.336 . S
C36 N34 1.335 . S
C36 N35 1.345 . S
C36 H41 0.930 . S
C37 N34 1.390 . S
C37 C38 1.346 . S
C37 H42 0.930 . S
C38 N35 1.336 . S
C38 C37 1.346 . S
C38 H45 0.929 . S
C39 O29 1.282 . S
C39 O40 1.216 . S
O40 C39 1.216 . S
H41 C36 0.930 . S
H42 C37 0.930 . S
O43 Cu23 1.959 . S
O43 C30 1.251 . S
H44 C27 0.930 . S
H45 C38 0.929 . S
Cu46 N47 1.999 . S
Cu46 O52 1.974 . S
Cu46 N57 1.985 . S
Cu46 O66 1.959 . S
N47 Cu46 1.999 . S
N47 C49 1.263 . S
N47 C51 1.389 . S
N48 C49 1.358 . S
N48 C50 1.400 . S
C49 N47 1.263 . S
C49 N48 1.358 . S
C49 H55 0.930 . S
C50 N48 1.400 . S
C50 C51 1.351 . S
C50 H67 0.930 . S
C51 N47 1.389 . S
C51 C50 1.351 . S
C51 H56 0.930 . S
O52 Cu46 1.974 . S
O52 C62 1.282 . S
C53 O54 1.261 . S
C53 O66 1.251 . S
O54 C53 1.261 . S
H55 C49 0.930 . S
H56 C51 0.930 . S
N57 Cu46 1.985 . S
N57 C59 1.335 . S
N57 C60 1.390 . S
N58 C59 1.345 . S
N58 C61 1.336 . S
C59 N57 1.335 . S
C59 N58 1.345 . S
C59 H64 0.930 . S
C60 N57 1.390 . S
C60 C61 1.346 . S
C60 H65 0.930 . S
C61 N58 1.336 . S
C61 C60 1.346 . S
C61 H68 0.929 . S
C62 O52 1.282 . S
C62 O63 1.216 . S
O63 C62 1.216 . S
H64 C59 0.930 . S
H65 C60 0.930 . S
O66 Cu46 1.959 . S
O66 C53 1.251 . S
H67 C50 0.930 . S
H68 C61 0.929 . S
Cu69 N70 1.999 . S
Cu69 O75 1.974 . S
Cu69 N80 1.985 . S
Cu69 O89 1.959 . S
N70 Cu69 1.999 . S
N70 C72 1.263 . S
N70 C74 1.389 . S
N71 C72 1.358 . S
N71 C73 1.400 . S
C72 N70 1.263 . S
C72 N71 1.358 . S
C72 H78 0.930 . S
C73 N71 1.400 . S
C73 C74 1.351 . S
C73 H90 0.930 . S
C74 N70 1.389 . S
C74 C73 1.351 . S
C74 H79 0.930 . S
O75 Cu69 1.974 . S
O75 C85 1.282 . S
C76 O77 1.261 . S
C76 O89 1.251 . S
O77 C76 1.261 . S
H78 C72 0.930 . S
H79 C74 0.930 . S
N80 Cu69 1.985 . S
N80 C82 1.335 . S
N80 C83 1.390 . S
N81 C82 1.345 . S
N81 C84 1.336 . S
C82 N80 1.335 . S
C82 N81 1.345 . S
C82 H87 0.930 . S
C83 N80 1.390 . S
C83 C84 1.346 . S
C83 H88 0.930 . S
C84 N81 1.336 . S
C84 C83 1.346 . S
C84 H91 0.929 . S
C85 O75 1.282 . S
C85 O86 1.216 . S
O86 C85 1.216 . S
H87 C82 0.930 . S
H88 C83 0.930 . S
O89 Cu69 1.959 . S
O89 C76 1.251 . S
H90 C73 0.930 . S
H91 C84 0.929 . S
Cu92 N93 1.999 . S
Cu92 O98 1.974 . S
Cu92 N103 1.985 . S
Cu92 O112 1.959 . S
N93 Cu92 1.999 . S
N93 C95 1.263 . S
N93 C97 1.389 . S
N94 C95 1.358 . S
N94 C96 1.400 . S
C95 N93 1.263 . S
C95 N94 1.358 . S
C95 H101 0.930 . S
C96 N94 1.400 . S
C96 C97 1.351 . S
C96 H113 0.930 . S
C97 N93 1.389 . S
C97 C96 1.351 . S
C97 H102 0.930 . S
O98 Cu92 1.974 . S
O98 C108 1.282 . S
C99 O100 1.261 . S
C99 O112 1.251 . S
O100 C99 1.261 . S
H101 C95 0.930 . S
H102 C97 0.930 . S
N103 Cu92 1.985 . S
N103 C105 1.335 . S
N103 C106 1.390 . S
N104 C105 1.345 . S
N104 C107 1.336 . S
C105 N103 1.335 . S
C105 N104 1.345 . S
C105 H110 0.930 . S
C106 N103 1.390 . S
C106 C107 1.346 . S
C106 H111 0.930 . S
C107 N104 1.336 . S
C107 C106 1.346 . S
C107 H114 0.929 . S
C108 O98 1.282 . S
C108 O109 1.216 . S
O109 C108 1.216 . S
H110 C105 0.930 . S
H111 C106 0.930 . S
O112 Cu92 1.959 . S
O112 C99 1.251 . S
H113 C96 0.930 . S
H114 C107 0.929 . S
Cu115 N116 1.999 . S
Cu115 O121 1.974 . S
Cu115 N126 1.985 . S
Cu115 O135 1.959 . S
N116 Cu115 1.999 . S
N116 C118 1.263 . S
N116 C120 1.389 . S
N117 C118 1.358 . S
N117 C119 1.400 . S
C118 N116 1.263 . S
C118 N117 1.358 . S
C118 H124 0.930 . S
C119 N117 1.400 . S
C119 C120 1.351 . S
C119 H136 0.930 . S
C120 N116 1.389 . S
C120 C119 1.351 . S
C120 H125 0.930 . S
O121 Cu115 1.974 . S
O121 C131 1.282 . S
C122 O123 1.261 . S
C122 O135 1.251 . S
O123 C122 1.261 . S
H124 C118 0.930 . S
H125 C120 0.930 . S
N126 Cu115 1.985 . S
N126 C128 1.335 . S
N126 C129 1.390 . S
N127 C128 1.345 . S
N127 C130 1.336 . S
C128 N126 1.335 . S
C128 N127 1.345 . S
C128 H133 0.930 . S
C129 N126 1.390 . S
C129 C130 1.346 . S
C129 H134 0.930 . S
C130 N127 1.336 . S
C130 C129 1.346 . S
C130 H137 0.929 . S
C131 O121 1.282 . S
C131 O132 1.216 . S
O132 C131 1.216 . S
H133 C128 0.930 . S
H134 C129 0.930 . S
O135 Cu115 1.959 . S
O135 C122 1.251 . S
H136 C119 0.930 . S
H137 C130 0.929 . S
Cu138 N139 1.999 . S
Cu138 O144 1.974 . S
Cu138 N149 1.985 . S
Cu138 O158 1.959 . S
N139 Cu138 1.999 . S
N139 C141 1.263 . S
N139 C143 1.389 . S
N140 C141 1.358 . S
N140 C142 1.400 . S
C141 N139 1.263 . S
C141 N140 1.358 . S
C141 H147 0.930 . S
C142 N140 1.400 . S
C142 C143 1.351 . S
C142 H159 0.930 . S
C143 N139 1.389 . S
C143 C142 1.351 . S
C143 H148 0.930 . S
O144 Cu138 1.974 . S
O144 C154 1.282 . S
C145 O146 1.261 . S
C145 O158 1.251 . S
O146 C145 1.261 . S
H147 C141 0.930 . S
H148 C143 0.930 . S
N149 Cu138 1.985 . S
N149 C151 1.335 . S
N149 C152 1.390 . S
N150 C151 1.345 . S
N150 C153 1.336 . S
C151 N149 1.335 . S
C151 N150 1.345 . S
C151 H156 0.930 . S
C152 N149 1.390 . S
C152 C153 1.346 . S
C152 H157 0.930 . S
C153 N150 1.336 . S
C153 C152 1.346 . S
C153 H160 0.929 . S
C154 O144 1.282 . S
C154 O155 1.216 . S
O155 C154 1.216 . S
H156 C151 0.930 . S
H157 C152 0.930 . S
O158 Cu138 1.959 . S
O158 C145 1.251 . S
H159 C142 0.930 . S
H160 C153 0.929 . S
Cu161 N162 1.999 . S
Cu161 O167 1.974 . S
Cu161 N172 1.985 . S
Cu161 O181 1.959 . S
N162 Cu161 1.999 . S
N162 C164 1.263 . S
N162 C166 1.389 . S
N163 C164 1.358 . S
N163 C165 1.400 . S
C164 N162 1.263 . S
C164 N163 1.358 . S
C164 H170 0.930 . S
C165 N163 1.400 . S
C165 C166 1.351 . S
C165 H182 0.930 . S
C166 N162 1.389 . S
C166 C165 1.351 . S
C166 H171 0.930 . S
O167 Cu161 1.974 . S
O167 C177 1.282 . S
C168 O169 1.261 . S
C168 O181 1.251 . S
O169 C168 1.261 . S
H170 C164 0.930 . S
H171 C166 0.930 . S
N172 Cu161 1.985 . S
N172 C174 1.335 . S
N172 C175 1.390 . S
N173 C174 1.345 . S
N173 C176 1.336 . S
C174 N172 1.335 . S
C174 N173 1.345 . S
C174 H179 0.930 . S
C175 N172 1.390 . S
C175 C176 1.346 . S
C175 H180 0.930 . S
C176 N173 1.336 . S
C176 C175 1.346 . S
C176 H183 0.929 . S
C177 O167 1.282 . S
C177 O178 1.216 . S
O178 C177 1.216 . S
H179 C174 0.930 . S
H180 C175 0.930 . S
O181 Cu161 1.959 . S
O181 C168 1.251 . S
H182 C165 0.930 . S
H183 C176 0.929 . S
Cu184 N185 1.999 . S
Cu184 O190 1.974 . S
Cu184 N195 1.985 . S
Cu184 O204 1.959 . S
N185 Cu184 1.999 . S
N185 C187 1.263 . S
N185 C189 1.389 . S
N186 C187 1.358 . S
N186 C188 1.400 . S
C187 N185 1.263 . S
C187 N186 1.358 . S
C187 H193 0.930 . S
C188 N186 1.400 . S
C188 C189 1.351 . S
C188 H205 0.930 . S
C189 N185 1.389 . S
C189 C188 1.351 . S
C189 H194 0.930 . S
O190 Cu184 1.974 . S
O190 C200 1.282 . S
C191 O192 1.261 . S
C191 O204 1.251 . S
O192 C191 1.261 . S
H193 C187 0.930 . S
H194 C189 0.930 . S
N195 Cu184 1.985 . S
N195 C197 1.335 . S
N195 C198 1.390 . S
N196 C197 1.345 . S
N196 C199 1.336 . S
C197 N195 1.335 . S
C197 N196 1.345 . S
C197 H202 0.930 . S
C198 N195 1.390 . S
C198 C199 1.346 . S
C198 H203 0.930 . S
C199 N196 1.336 . S
C199 C198 1.346 . S
C199 H206 0.929 . S
C200 O190 1.282 . S
C200 O201 1.216 . S
O201 C200 1.216 . S
H202 C197 0.930 . S
H203 C198 0.930 . S
O204 Cu184 1.959 . S
O204 C191 1.251 . S
H205 C188 0.930 . S
H206 C199 0.929 . S
Cu207 N208 1.999 . S
Cu207 O213 1.974 . S
Cu207 N218 1.985 . S
Cu207 O227 1.959 . S
N208 Cu207 1.999 . S
N208 C210 1.263 . S
N208 C212 1.389 . S
N209 C210 1.358 . S
N209 C211 1.400 . S
C210 N208 1.263 . S
C210 N209 1.358 . S
C210 H216 0.930 . S
C211 N209 1.400 . S
C211 C212 1.351 . S
C211 H228 0.930 . S
C212 N208 1.389 . S
C212 C211 1.351 . S
C212 H217 0.930 . S
O213 Cu207 1.974 . S
O213 C223 1.282 . S
C214 O215 1.261 . S
C214 O227 1.251 . S
O215 C214 1.261 . S
H216 C210 0.930 . S
H217 C212 0.930 . S
N218 Cu207 1.985 . S
N218 C220 1.335 . S
N218 C221 1.390 . S
N219 C220 1.345 . S
N219 C222 1.336 . S
C220 N218 1.335 . S
C220 N219 1.345 . S
C220 H225 0.930 . S
C221 N218 1.390 . S
C221 C222 1.346 . S
C221 H226 0.930 . S
C222 N219 1.336 . S
C222 C221 1.346 . S
C222 H229 0.929 . S
C223 O213 1.282 . S
C223 O224 1.216 . S
O224 C223 1.216 . S
H225 C220 0.930 . S
H226 C221 0.930 . S
O227 Cu207 1.959 . S
O227 C214 1.251 . S
H228 C211 0.930 . S
H229 C222 0.929 . S
Cu230 N231 1.999 . S
Cu230 O236 1.974 . S
Cu230 N241 1.985 . S
Cu230 O250 1.959 . S
N231 Cu230 1.999 . S
N231 C233 1.263 . S
N231 C235 1.389 . S
N232 C233 1.358 . S
N232 C234 1.400 . S
C233 N231 1.263 . S
C233 N232 1.358 . S
C233 H239 0.930 . S
C234 N232 1.400 . S
C234 C235 1.351 . S
C234 H251 0.930 . S
C235 N231 1.389 . S
C235 C234 1.351 . S
C235 H240 0.930 . S
O236 Cu230 1.974 . S
O236 C246 1.282 . S
C237 O238 1.261 . S
C237 O250 1.251 . S
O238 C237 1.261 . S
H239 C233 0.930 . S
H240 C235 0.930 . S
N241 Cu230 1.985 . S
N241 C243 1.335 . S
N241 C244 1.390 . S
N242 C243 1.345 . S
N242 C245 1.336 . S
C243 N241 1.335 . S
C243 N242 1.345 . S
C243 H248 0.930 . S
C244 N241 1.390 . S
C244 C245 1.346 . S
C244 H249 0.930 . S
C245 N242 1.336 . S
C245 C244 1.346 . S
C245 H252 0.929 . S
C246 O236 1.282 . S
C246 O247 1.216 . S
O247 C246 1.216 . S
H248 C243 0.930 . S
H249 C244 0.930 . S
O250 Cu230 1.959 . S
O250 C237 1.251 . S
H251 C234 0.930 . S
H252 C245 0.929 . S
Cu253 N254 1.999 . S
Cu253 O259 1.974 . S
Cu253 N264 1.985 . S
Cu253 O273 1.959 . S
N254 Cu253 1.999 . S
N254 C256 1.263 . S
N254 C258 1.389 . S
N255 C256 1.358 . S
N255 C257 1.400 . S
C256 N254 1.263 . S
C256 N255 1.358 . S
C256 H262 0.930 . S
C257 N255 1.400 . S
C257 C258 1.351 . S
C257 H274 0.930 . S
C258 N254 1.389 . S
C258 C257 1.351 . S
C258 H263 0.930 . S
O259 Cu253 1.974 . S
O259 C269 1.282 . S
C260 O261 1.261 . S
C260 O273 1.251 . S
O261 C260 1.261 . S
H262 C256 0.930 . S
H263 C258 0.930 . S
N264 Cu253 1.985 . S
N264 C266 1.335 . S
N264 C267 1.390 . S
N265 C266 1.345 . S
N265 C268 1.336 . S
C266 N264 1.335 . S
C266 N265 1.345 . S
C266 H271 0.930 . S
C267 N264 1.390 . S
C267 C268 1.346 . S
C267 H272 0.930 . S
C268 N265 1.336 . S
C268 C267 1.346 . S
C268 H275 0.929 . S
C269 O259 1.282 . S
C269 O270 1.216 . S
O270 C269 1.216 . S
H271 C266 0.930 . S
H272 C267 0.930 . S
O273 Cu253 1.959 . S
O273 C260 1.251 . S
H274 C257 0.930 . S
H275 C268 0.929 . S
C276 C277 1.391 . S
C276 C278 1.394 . S
C276 H292 0.931 . S
C277 C276 1.391 . S
C277 C281 1.376 . S
C278 C276 1.394 . S
C278 C279 1.369 . S
C278 C282 1.531 1_565 S
C279 C278 1.369 . S
C279 C280 1.410 . S
C279 C287 1.503 1_566 S
C280 C279 1.410 . S
C280 C281 1.392 . S
C280 C283 1.492 1_556 S
C281 C277 1.376 . S
C281 C280 1.392 . S
C281 H293 0.929 . S
C282 C278 1.531 1_545 S
C282 H294 0.960 . S
C282 H295 0.962 . S
C282 H296 0.960 . S
C283 C280 1.492 1_554 S
C283 H297 0.966 . S
C283 H298 0.991 . S
C283 H299 0.946 1_554 S
C284 C285 1.370 . S
C284 C286 1.363 . S
C284 H300 0.931 . S
C285 C284 1.370 . S
C285 C289 1.408 . S
C286 C284 1.363 . S
C286 C287 1.370 . S
C286 C290 1.524 1_545 S
C287 C279 1.503 1_544 S
C287 C286 1.370 . S
C287 C288 1.403 . S
C288 C287 1.403 . S
C288 C289 1.404 . S
C288 C291 1.539 1_554 S
C289 C285 1.408 . S
C289 C288 1.404 . S
C289 H301 0.930 . S
C290 C286 1.524 1_565 S
C290 H302 0.956 . S
C290 H303 0.961 . S
C290 H304 0.961 . S
C291 C288 1.539 1_556 S
C291 H305 0.958 . S
C291 H306 0.961 . S
C291 H307 0.960 . S
H292 C276 0.931 . S
H293 C281 0.929 . S
H294 C282 0.960 . S
H295 C282 0.962 . S
H296 C282 0.960 . S
H297 C283 0.966 . S
H298 C283 0.991 . S
H299 C283 0.946 1_556 S
H300 C284 0.931 . S
H301 C289 0.930 . S
H302 C290 0.956 . S
H303 C290 0.961 . S
H304 C290 0.961 . S
H305 C291 0.958 . S
H306 C291 0.961 . S
H307 C291 0.960 . S
C308 C309 1.391 . S
C308 C310 1.394 . S
C308 H324 0.931 . S
C309 C308 1.391 . S
C309 C313 1.376 . S
C310 C308 1.394 . S
C310 C311 1.369 . S
C310 C314 1.531 . S
C311 C310 1.369 . S
C311 C312 1.410 . S
C311 C319 1.503 . S
C312 C311 1.410 . S
C312 C313 1.392 . S
C312 C315 1.511 . S
C313 C309 1.376 . S
C313 C312 1.392 . S
C313 H325 0.929 . S
C314 C310 1.531 . S
C314 H326 0.960 . S
C314 H327 0.962 . S
C314 H328 0.960 . S
C315 C312 1.511 . S
C315 H329 0.961 . S
C315 H330 0.961 . S
C315 H331 0.961 . S
C316 C317 1.370 . S
C316 C318 1.363 . S
C316 H332 0.931 . S
C317 C316 1.370 . S
C317 C321 1.408 . S
C318 C316 1.363 . S
C318 C319 1.370 . S
C318 C322 1.524 . S
C319 C311 1.503 . S
C319 C318 1.370 . S
C319 C320 1.403 . S
C320 C319 1.403 . S
C320 C321 1.404 . S
C320 C323 1.539 . S
C321 C317 1.408 . S
C321 C320 1.404 . S
C321 H333 0.930 . S
C322 C318 1.524 . S
C322 H334 0.956 . S
C322 H335 0.961 . S
C322 H336 0.961 . S
C323 C320 1.539 . S
C323 H337 0.958 . S
C323 H338 0.961 . S
C323 H339 0.960 . S
H324 C308 0.931 . S
H325 C313 0.929 . S
H326 C314 0.960 . S
H327 C314 0.962 . S
H328 C314 0.960 . S
H329 C315 0.961 . S
H330 C315 0.961 . S
H331 C315 0.961 . S
H332 C316 0.931 . S
H333 C321 0.930 . S
H334 C322 0.956 . S
H335 C322 0.961 . S
H336 C322 0.961 . S
H337 C323 0.958 . S
H338 C323 0.961 . S
H339 C323 0.960 . S
C340 C341 1.391 . S
C340 C342 1.394 . S
C340 H356 0.931 . S
C341 C340 1.391 . S
C341 C345 1.376 . S
C342 C340 1.394 . S
C342 C343 1.369 . S
C342 C346 1.531 1_655 S
C343 C342 1.369 . S
C343 C344 1.410 . S
C343 C351 1.503 1_655 S
C344 C343 1.410 . S
C344 C345 1.392 . S
C344 C347 1.511 . S
C345 C341 1.376 . S
C345 C344 1.392 . S
C345 H357 0.929 . S
C346 C342 1.531 1_455 S
C346 H358 0.960 . S
C346 H359 0.962 . S
C346 H360 0.960 . S
C347 C344 1.511 . S
C347 H361 0.961 . S
C347 H362 0.961 . S
C347 H363 0.961 . S
C348 C349 1.370 . S
C348 C350 1.363 . S
C348 H364 0.931 . S
C349 C348 1.370 . S
C349 C353 1.408 . S
C350 C348 1.363 . S
C350 C351 1.370 . S
C350 C354 1.524 . S
C351 C343 1.503 1_455 S
C351 C350 1.370 . S
C351 C352 1.403 . S
C352 C351 1.403 . S
C352 C353 1.404 . S
C352 C355 1.539 1_455 S
C353 C349 1.408 . S
C353 C352 1.404 . S
C353 H365 0.930 . S
C354 C350 1.524 . S
C354 H366 0.956 . S
C354 H367 0.961 1_455 S
C354 H368 0.961 . S
C355 C352 1.539 1_655 S
C355 H369 0.958 1_655 S
C355 H370 0.961 . S
C355 H371 0.960 . S
H356 C340 0.931 . S
H357 C345 0.929 . S
H358 C346 0.960 . S
H359 C346 0.962 . S
H360 C346 0.960 . S
H361 C347 0.961 . S
H362 C347 0.961 . S
H363 C347 0.961 . S
H364 C348 0.931 . S
H365 C353 0.930 . S
H366 C354 0.956 . S
H367 C354 0.961 1_655 S
H368 C354 0.961 . S
H369 C355 0.958 1_455 S
H370 C355 0.961 . S
H371 C355 0.960 . S
C372 C373 1.391 . S
C372 C374 1.394 . S
C372 H388 0.931 . S
C373 C372 1.391 . S
C373 C377 1.376 . S
C374 C372 1.394 . S
C374 C375 1.369 . S
C374 C378 1.531 1_554 S
C375 C374 1.369 . S
C375 C376 1.410 . S
C375 C383 1.503 1_564 S
C376 C375 1.410 . S
C376 C377 1.392 . S
C376 C379 1.511 1_565 S
C377 C373 1.376 . S
C377 C376 1.392 . S
C377 H389 0.929 . S
C378 C374 1.531 1_556 S
C378 H390 0.960 . S
C378 H391 0.962 . S
C378 H392 0.960 . S
C379 C376 1.511 1_545 S
C379 H393 0.961 . S
C379 H394 0.961 . S
C379 H395 0.961 . S
C380 C381 1.370 . S
C380 C382 1.363 . S
C380 H396 0.931 . S
C381 C380 1.370 . S
C381 C385 1.408 . S
C382 C380 1.363 . S
C382 C383 1.370 . S
C382 C386 1.524 1_556 S
C383 C375 1.503 1_546 S
C383 C382 1.370 . S
C383 C384 1.403 . S
C384 C383 1.403 . S
C384 C385 1.404 . S
C384 C387 1.539 1_545 S
C385 C381 1.408 . S
C385 C384 1.404 . S
C385 H397 0.930 . S
C386 C382 1.524 1_554 S
C386 H398 0.956 . S
C386 H399 0.961 . S
C386 H400 0.961 . S
C387 C384 1.539 1_565 S
C387 H401 0.958 . S
C387 H402 0.961 . S
C387 H403 0.960 . S
H388 C372 0.931 . S
H389 C377 0.929 . S
H390 C378 0.960 . S
H391 C378 0.962 . S
H392 C378 0.960 . S
H393 C379 0.961 . S
H394 C379 0.961 . S
H395 C379 0.961 . S
H396 C380 0.931 . S
H397 C385 0.930 . S
H398 C386 0.956 . S
H399 C386 0.961 . S
H400 C386 0.961 . S
H401 C387 0.958 . S
H402 C387 0.961 . S
H403 C387 0.960 . S
C404 C405 1.391 . S
C404 C406 1.394 . S
C404 H420 0.931 . S
C405 C404 1.391 . S
C405 C409 1.376 . S
C406 C404 1.394 . S
C406 C407 1.369 . S
C406 C410 1.531 . S
C407 C406 1.369 . S
C407 C408 1.410 . S
C407 C415 1.503 . S
C408 C407 1.410 . S
C408 C409 1.392 . S
C408 C411 1.511 . S
C409 C405 1.376 . S
C409 C408 1.392 . S
C409 H421 0.929 . S
C410 C406 1.531 . S
C410 H422 0.960 . S
C410 H423 0.962 . S
C410 H424 0.960 . S
C411 C408 1.511 . S
C411 H425 0.961 . S
C411 H426 0.961 . S
C411 H427 0.961 . S
C412 C413 1.370 . S
C412 C414 1.363 . S
C412 H428 0.931 . S
C413 C412 1.370 . S
C413 C417 1.408 . S
C414 C412 1.363 . S
C414 C415 1.370 . S
C414 C418 1.524 . S
C415 C407 1.503 . S
C415 C414 1.370 . S
C415 C416 1.403 . S
C416 C415 1.403 . S
C416 C417 1.404 . S
C416 C419 1.539 . S
C417 C413 1.408 . S
C417 C416 1.404 . S
C417 H429 0.930 . S
C418 C414 1.524 . S
C418 H430 0.956 . S
C418 H431 0.961 . S
C418 H432 0.961 . S
C419 C416 1.539 . S
C419 H433 0.958 . S
C419 H434 0.961 . S
C419 H435 0.960 . S
H420 C404 0.931 . S
H421 C409 0.929 . S
H422 C410 0.960 . S
H423 C410 0.962 . S
H424 C410 0.960 . S
H425 C411 0.961 . S
H426 C411 0.961 . S
H427 C411 0.961 . S
H428 C412 0.931 . S
H429 C417 0.930 . S
H430 C418 0.956 . S
H431 C418 0.961 . S
H432 C418 0.961 . S
H433 C419 0.958 . S
H434 C419 0.961 . S
H435 C419 0.960 . S
C436 C437 1.391 . S
C436 C438 1.394 . S
C436 H452 0.931 . S
C437 C436 1.391 . S
C437 C441 1.376 . S
C438 C436 1.394 . S
C438 C439 1.369 . S
C438 C442 1.531 1_655 S
C439 C438 1.369 . S
C439 C440 1.410 . S
C439 C447 1.503 1_655 S
C440 C439 1.410 . S
C440 C441 1.392 . S
C440 C443 1.511 . S
C441 C437 1.376 . S
C441 C440 1.392 . S
C441 H453 0.929 . S
C442 C438 1.531 1_455 S
C442 H454 0.960 . S
C442 H455 0.962 . S
C442 H456 0.960 . S
C443 C440 1.511 . S
C443 H457 0.961 . S
C443 H458 0.961 . S
C443 H459 0.961 . S
C444 C445 1.370 . S
C444 C446 1.363 . S
C444 H460 0.931 . S
C445 C444 1.370 . S
C445 C449 1.408 . S
C446 C444 1.363 . S
C446 C447 1.370 . S
C446 C450 1.524 1_455 S
C447 C439 1.503 1_455 S
C447 C446 1.370 . S
C447 C448 1.403 . S
C448 C447 1.403 . S
C448 C449 1.404 . S
C448 C451 1.539 . S
C449 C445 1.408 . S
C449 C448 1.404 . S
C449 H461 0.930 . S
C450 C446 1.524 1_655 S
C450 H462 0.956 . S
C450 H463 0.961 . S
C450 H464 0.961 . S
C451 C448 1.539 . S
C451 H465 0.958 . S
C451 H466 0.961 . S
C451 H467 0.960 . S
H452 C436 0.931 . S
H453 C441 0.929 . S
H454 C442 0.960 . S
H455 C442 0.962 . S
H456 C442 0.960 . S
H457 C443 0.961 . S
H458 C443 0.961 . S
H459 C443 0.961 . S
H460 C444 0.931 . S
H461 C449 0.930 . S
H462 C450 0.956 . S
H463 C450 0.961 . S
H464 C450 0.961 . S
H465 C451 0.958 . S
H466 C451 0.961 . S
H467 C451 0.960 . S
C468 C469 1.391 . S
C468 C470 1.394 . S
C468 H484 0.931 . S
C469 C468 1.391 . S
C469 C473 1.376 . S
C470 C468 1.394 . S
C470 C471 1.367 . S
C470 C474 1.531 . S
C471 C470 1.367 . S
C471 C472 1.409 . S
C471 C479 1.505 1_556 S
C472 C471 1.409 . S
C472 C473 1.392 . S
C472 C475 1.511 1_556 S
C473 C469 1.376 . S
C473 C472 1.392 . S
C473 H485 0.929 . S
C474 C470 1.531 . S
C474 H486 0.960 1_556 S
C474 H487 0.962 . S
C474 H488 0.953 1_556 S
C475 C472 1.511 1_554 S
C475 H489 0.961 1_554 S
C475 H490 0.961 . S
C475 H491 0.961 . S
C476 C477 1.429 . S
C476 C478 1.344 1_554 S
C476 H492 0.893 1_554 S
C477 C476 1.429 . S
C477 C481 1.408 . S
C478 C476 1.344 1_556 S
C478 C479 1.370 1_556 S
C478 C482 1.524 . S
C479 C471 1.505 1_554 S
C479 C478 1.370 1_554 S
C479 C480 1.403 . S
C480 C479 1.403 . S
C480 C481 1.404 . S
C480 C483 1.539 . S
C481 C477 1.408 . S
C481 C480 1.404 . S
C481 H493 0.930 . S
C482 C478 1.524 . S
C482 H494 0.956 . S
C482 H495 0.961 . S
C482 H496 0.961 . S
C483 C480 1.539 . S
C483 H497 0.958 . S
C483 H498 0.961 . S
C483 H499 0.960 . S
H484 C468 0.931 . S
H485 C473 0.929 . S
H486 C474 0.960 1_554 S
H487 C474 0.962 . S
H488 C474 0.953 1_554 S
H489 C475 0.961 1_556 S
H490 C475 0.961 . S
H491 C475 0.961 . S
H492 C476 0.893 1_556 S
H493 C481 0.930 . S
H494 C482 0.956 . S
H495 C482 0.961 . S
H496 C482 0.961 . S
H497 C483 0.958 . S
H498 C483 0.961 . S
H499 C483 0.960 . S
C500 C501 1.391 . S
C500 C502 1.394 . S
C500 H516 0.931 . S
C501 C500 1.391 . S
C501 C505 1.376 . S
C502 C500 1.394 . S
C502 C503 1.369 . S
C502 C506 1.531 . S
C503 C502 1.369 . S
C503 C504 1.410 . S
C503 C511 1.503 . S
C504 C503 1.410 . S
C504 C505 1.392 . S
C504 C507 1.511 . S
C505 C501 1.376 . S
C505 C504 1.392 . S
C505 H517 0.929 . S
C506 C502 1.531 . S
C506 H518 0.960 . S
C506 H519 0.962 . S
C506 H520 0.960 . S
C507 C504 1.511 . S
C507 H521 0.961 . S
C507 H522 0.961 . S
C507 H523 0.961 . S
C508 C509 1.370 . S
C508 C510 1.363 . S
C508 H524 0.931 . S
C509 C508 1.370 . S
C509 C513 1.408 . S
C510 C508 1.363 . S
C510 C511 1.370 . S
C510 C514 1.524 . S
C511 C503 1.503 . S
C511 C510 1.370 . S
C511 C512 1.403 . S
C512 C511 1.403 . S
C512 C513 1.404 . S
C512 C515 1.539 . S
C513 C509 1.408 . S
C513 C512 1.404 . S
C513 H525 0.930 . S
C514 C510 1.524 . S
C514 H526 0.956 . S
C514 H527 0.961 . S
C514 H528 0.961 . S
C515 C512 1.539 . S
C515 H529 0.958 . S
C515 H530 0.961 . S
C515 H531 0.960 . S
H516 C500 0.931 . S
H517 C505 0.929 . S
H518 C506 0.960 . S
H519 C506 0.962 . S
H520 C506 0.960 . S
H521 C507 0.961 . S
H522 C507 0.961 . S
H523 C507 0.961 . S
H524 C508 0.931 . S
H525 C513 0.930 . S
H526 C514 0.956 . S
H527 C514 0.961 . S
H528 C514 0.961 . S
H529 C515 0.958 . S
H530 C515 0.961 . S
H531 C515 0.960 . S
C532 C533 1.391 . S
C532 C534 1.394 . S
C532 H548 0.931 . S
C533 C532 1.391 . S
C533 C537 1.376 . S
C534 C532 1.394 . S
C534 C535 1.369 . S
C534 C538 1.531 . S
C535 C534 1.369 . S
C535 C536 1.410 . S
C535 C543 1.503 . S
C536 C535 1.410 . S
C536 C537 1.392 . S
C536 C539 1.511 . S
C537 C533 1.376 . S
C537 C536 1.392 . S
C537 H549 0.929 . S
C538 C534 1.531 . S
C538 H550 0.960 . S
C538 H551 0.962 . S
C538 H552 0.960 . S
C539 C536 1.511 . S
C539 H553 0.961 . S
C539 H554 0.961 . S
C539 H555 0.961 . S
C540 C541 1.370 . S
C540 C542 1.363 . S
C540 H556 0.931 . S
C541 C540 1.370 . S
C541 C545 1.408 . S
C542 C540 1.363 . S
C542 C543 1.370 . S
C542 C546 1.524 . S
C543 C535 1.503 . S
C543 C542 1.370 . S
C543 C544 1.403 . S
C544 C543 1.403 . S
C544 C545 1.404 . S
C544 C547 1.539 . S
C545 C541 1.408 . S
C545 C544 1.404 . S
C545 H557 0.930 . S
C546 C542 1.524 . S
C546 H558 0.956 . S
C546 H559 0.961 . S
C546 H560 0.961 . S
C547 C544 1.539 . S
C547 H561 0.958 . S
C547 H562 0.961 . S
C547 H563 0.960 . S
H548 C532 0.931 . S
H549 C537 0.929 . S
H550 C538 0.960 . S
H551 C538 0.962 . S
H552 C538 0.960 . S
H553 C539 0.961 . S
H554 C539 0.961 . S
H555 C539 0.961 . S
H556 C540 0.931 . S
H557 C545 0.930 . S
H558 C546 0.956 . S
H559 C546 0.961 . S
H560 C546 0.961 . S
H561 C547 0.958 . S
H562 C547 0.961 . S
H563 C547 0.960 . S
C564 C565 1.391 . S
C564 C566 1.394 . S
C564 H580 0.931 . S
C565 C564 1.391 . S
C565 C569 1.376 . S
C566 C564 1.394 . S
C566 C567 1.369 . S
C566 C570 1.531 . S
C567 C566 1.369 . S
C567 C568 1.410 1_556 S
C567 C575 1.503 1_556 S
C568 C567 1.410 1_554 S
C568 C569 1.392 1_554 S
C568 C571 1.511 . S
C569 C565 1.376 . S
C569 C568 1.392 1_556 S
C569 H581 0.929 1_556 S
C570 C566 1.531 . S
C570 H582 0.960 . S
C570 H583 0.962 . S
C570 H584 0.960 . S
C571 C568 1.511 . S
C571 H585 0.961 . S
C571 H586 0.961 . S
C571 H587 0.961 . S
C572 C573 1.370 . S
C572 C574 1.363 . S
C572 H588 0.931 . S
C573 C572 1.370 . S
C573 C577 1.408 . S
C574 C572 1.363 . S
C574 C575 1.370 . S
C574 C578 1.524 . S
C575 C567 1.503 1_554 S
C575 C574 1.370 . S
C575 C576 1.403 1_554 S
C576 C575 1.403 1_556 S
C576 C577 1.404 1_556 S
C576 C579 1.539 . S
C577 C573 1.408 . S
C577 C576 1.404 1_554 S
C577 H589 0.930 . S
C578 C574 1.524 . S
C578 H590 0.956 . S
C578 H591 0.961 . S
C578 H592 0.961 . S
C579 C576 1.539 . S
C579 H593 0.958 . S
C579 H594 0.961 . S
C579 H595 0.960 . S
H580 C564 0.931 . S
H581 C569 0.929 1_554 S
H582 C570 0.960 . S
H583 C570 0.962 . S
H584 C570 0.960 . S
H585 C571 0.961 . S
H586 C571 0.961 . S
H587 C571 0.961 . S
H588 C572 0.931 . S
H589 C577 0.930 . S
H590 C578 0.956 . S
H591 C578 0.961 . S
H592 C578 0.961 . S
H593 C579 0.958 . S
H594 C579 0.961 . S
H595 C579 0.960 . S
C596 C597 1.391 . S
C596 C598 1.394 . S
C596 H612 0.931 . S
C597 C596 1.391 . S
C597 C601 1.376 . S
C598 C596 1.394 . S
C598 C599 1.369 . S
C598 C602 1.531 . S
C599 C598 1.369 . S
C599 C600 1.410 . S
C599 C607 1.503 . S
C600 C599 1.410 . S
C600 C601 1.392 . S
C600 C603 1.511 . S
C601 C597 1.376 . S
C601 C600 1.392 . S
C601 H613 0.929 . S
C602 C598 1.531 . S
C602 H614 0.960 . S
C602 H615 0.962 . S
C602 H616 0.960 . S
C603 C600 1.511 . S
C603 H617 0.961 . S
C603 H618 0.961 . S
C603 H619 0.961 . S
C604 C605 1.370 . S
C604 C606 1.363 . S
C604 H620 0.931 . S
C605 C604 1.370 . S
C605 C609 1.408 . S
C606 C604 1.363 . S
C606 C607 1.370 . S
C606 C610 1.524 . S
C607 C599 1.503 . S
C607 C606 1.370 . S
C607 C608 1.403 . S
C608 C607 1.403 . S
C608 C609 1.404 . S
C608 C611 1.539 . S
C609 C605 1.408 . S
C609 C608 1.404 . S
C609 H621 0.930 . S
C610 C606 1.524 . S
C610 H622 0.956 . S
C610 H623 0.961 . S
C610 H624 0.961 . S
C611 C608 1.539 . S
C611 H625 0.958 . S
C611 H626 0.961 . S
C611 H627 0.960 . S
H612 C596 0.931 . S
H613 C601 0.929 . S
H614 C602 0.960 . S
H615 C602 0.962 . S
H616 C602 0.960 . S
H617 C603 0.961 . S
H618 C603 0.961 . S
H619 C603 0.961 . S
H620 C604 0.931 . S
H621 C609 0.930 . S
H622 C610 0.956 . S
H623 C610 0.961 . S
H624 C610 0.961 . S
H625 C611 0.958 . S
H626 C611 0.961 . S
H627 C611 0.960 . S
C628 C629 1.391 . S
C628 C630 1.394 . S
C628 H644 0.931 . S
C629 C628 1.391 . S
C629 C633 1.376 . S
C630 C628 1.394 . S
C630 C631 1.369 . S
C630 C634 1.531 . S
C631 C630 1.369 . S
C631 C632 1.410 . S
C631 C639 1.503 . S
C632 C631 1.410 . S
C632 C633 1.392 . S
C632 C635 1.511 . S
C633 C629 1.376 . S
C633 C632 1.392 . S
C633 H645 0.929 . S
C634 C630 1.531 . S
C634 H646 0.960 . S
C634 H647 0.962 . S
C634 H648 0.960 . S
C635 C632 1.511 . S
C635 H649 0.961 . S
C635 H650 0.961 . S
C635 H651 0.961 . S
C636 C637 1.370 . S
C636 C638 1.363 . S
C636 H652 0.931 . S
C637 C636 1.370 . S
C637 C641 1.408 . S
C638 C636 1.363 . S
C638 C639 1.370 . S
C638 C642 1.524 . S
C639 C631 1.503 . S
C639 C638 1.370 . S
C639 C640 1.403 . S
C640 C639 1.403 . S
C640 C641 1.404 . S
C640 C643 1.539 . S
C641 C637 1.408 . S
C641 C640 1.404 . S
C641 H653 0.930 . S
C642 C638 1.524 . S
C642 H654 0.956 . S
C642 H655 0.961 . S
C642 H656 0.961 . S
C643 C640 1.539 . S
C643 H657 0.958 . S
C643 H658 0.961 . S
C643 H659 0.960 . S
H644 C628 0.931 . S
H645 C633 0.929 . S
H646 C634 0.960 . S
H647 C634 0.962 . S
H648 C634 0.960 . S
H649 C635 0.961 . S
H650 C635 0.961 . S
H651 C635 0.961 . S
H652 C636 0.931 . S
H653 C641 0.930 . S
H654 C642 0.956 . S
H655 C642 0.961 . S
H656 C642 0.961 . S
H657 C643 0.958 . S
H658 C643 0.961 . S
H659 C643 0.960 . S
C660 C661 1.391 . S
C660 C662 1.394 . S
C660 H676 0.931 . S
C661 C660 1.391 . S
C661 C665 1.376 . S
C662 C660 1.394 . S
C662 C663 1.369 . S
C662 C666 1.531 . S
C663 C662 1.369 . S
C663 C664 1.410 . S
C663 C671 1.503 . S
C664 C663 1.410 . S
C664 C665 1.392 . S
C664 C667 1.511 . S
C665 C661 1.376 . S
C665 C664 1.392 . S
C665 H677 0.929 . S
C666 C662 1.531 . S
C666 H678 0.960 . S
C666 H679 0.962 . S
C666 H680 0.960 . S
C667 C664 1.511 . S
C667 H681 0.961 . S
C667 H682 0.961 . S
C667 H683 0.961 . S
C668 C669 1.370 . S
C668 C670 1.363 . S
C668 H684 0.931 . S
C669 C668 1.370 . S
C669 C673 1.408 . S
C670 C668 1.363 . S
C670 C671 1.370 . S
C670 C674 1.524 . S
C671 C663 1.503 . S
C671 C670 1.370 . S
C671 C672 1.403 . S
C672 C671 1.403 . S
C672 C673 1.404 . S
C672 C675 1.539 . S
C673 C669 1.408 . S
C673 C672 1.404 . S
C673 H685 0.930 . S
C674 C670 1.524 . S
C674 H686 0.956 . S
C674 H687 0.961 . S
C674 H688 0.961 . S
C675 C672 1.539 . S
C675 H689 0.958 . S
C675 H690 0.961 . S
C675 H691 0.960 . S
H676 C660 0.931 . S
H677 C665 0.929 . S
H678 C666 0.960 . S
H679 C666 0.962 . S
H680 C666 0.960 . S
H681 C667 0.961 . S
H682 C667 0.961 . S
H683 C667 0.961 . S
H684 C668 0.931 . S
H685 C673 0.930 . S
H686 C674 0.956 . S
H687 C674 0.961 . S
H688 C674 0.961 . S
H689 C675 0.958 . S
H690 C675 0.961 . S
H691 C675 0.960 . S
C692 C693 1.391 . S
C692 C694 1.394 . S
C692 H708 0.931 . S
C693 C692 1.391 . S
C693 C697 1.376 . S
C694 C692 1.394 . S
C694 C695 1.369 . S
C694 C698 1.531 . S
C695 C694 1.369 . S
C695 C696 1.410 . S
C695 C703 1.503 . S
C696 C695 1.410 . S
C696 C697 1.392 . S
C696 C699 1.511 . S
C697 C693 1.376 . S
C697 C696 1.392 . S
C697 H709 0.929 . S
C698 C694 1.531 . S
C698 H710 0.960 . S
C698 H711 0.962 . S
C698 H712 0.960 . S
C699 C696 1.511 . S
C699 H713 0.961 . S
C699 H714 0.961 . S
C699 H715 0.961 . S
C700 C701 1.370 . S
C700 C702 1.363 . S
C700 H716 0.931 . S
C701 C700 1.370 . S
C701 C705 1.408 . S
C702 C700 1.363 . S
C702 C703 1.370 . S
C702 C706 1.524 . S
C703 C695 1.503 . S
C703 C702 1.370 . S
C703 C704 1.403 . S
C704 C703 1.403 . S
C704 C705 1.404 . S
C704 C707 1.539 . S
C705 C701 1.408 . S
C705 C704 1.404 . S
C705 H717 0.930 . S
C706 C702 1.524 . S
C706 H718 0.956 . S
C706 H719 0.961 . S
C706 H720 0.961 . S
C707 C704 1.539 . S
C707 H721 0.958 . S
C707 H722 0.961 . S
C707 H723 0.960 . S
H708 C692 0.931 . S
H709 C697 0.929 . S
H710 C698 0.960 . S
H711 C698 0.962 . S
H712 C698 0.960 . S
H713 C699 0.961 . S
H714 C699 0.961 . S
H715 C699 0.961 . S
H716 C700 0.931 . S
H717 C705 0.930 . S
H718 C706 0.956 . S
H719 C706 0.961 . S
H720 C706 0.961 . S
H721 C707 0.958 . S
H722 C707 0.961 . S
H723 C707 0.960 . S
C724 C725 1.391 . S
C724 C726 1.394 . S
C724 H740 0.931 . S
C725 C724 1.391 . S
C725 C729 1.376 . S
C726 C724 1.394 . S
C726 C727 1.369 . S
C726 C730 1.531 . S
C727 C726 1.369 . S
C727 C728 1.410 . S
C727 C735 1.503 . S
C728 C727 1.410 . S
C728 C729 1.392 . S
C728 C731 1.511 . S
C729 C725 1.376 . S
C729 C728 1.392 . S
C729 H741 0.929 . S
C730 C726 1.531 . S
C730 H742 0.960 . S
C730 H743 0.962 . S
C730 H744 0.960 . S
C731 C728 1.511 . S
C731 H745 0.961 . S
C731 H746 0.961 . S
C731 H747 0.961 . S
C732 C733 1.370 . S
C732 C734 1.363 . S
C732 H748 0.931 . S
C733 C732 1.370 . S
C733 C737 1.408 . S
C734 C732 1.363 . S
C734 C735 1.370 . S
C734 C738 1.524 . S
C735 C727 1.503 . S
C735 C734 1.370 . S
C735 C736 1.403 . S
C736 C735 1.403 . S
C736 C737 1.404 . S
C736 C739 1.539 . S
C737 C733 1.408 . S
C737 C736 1.404 . S
C737 H749 0.930 . S
C738 C734 1.524 . S
C738 H750 0.956 . S
C738 H751 0.961 . S
C738 H752 0.961 . S
C739 C736 1.539 . S
C739 H753 0.958 . S
C739 H754 0.961 . S
C739 H755 0.960 . S
H740 C724 0.931 . S
H741 C729 0.929 . S
H742 C730 0.960 . S
H743 C730 0.962 . S
H744 C730 0.960 . S
H745 C731 0.961 . S
H746 C731 0.961 . S
H747 C731 0.961 . S
H748 C732 0.931 . S
H749 C737 0.930 . S
H750 C738 0.956 . S
H751 C738 0.961 . S
H752 C738 0.961 . S
H753 C739 0.958 . S
H754 C739 0.961 . S
H755 C739 0.960 . S
C756 C757 1.391 . S
C756 C758 1.394 . S
C756 H772 0.931 . S
C757 C756 1.391 . S
C757 C761 1.376 . S
C758 C756 1.394 . S
C758 C759 1.369 . S
C758 C762 1.531 . S
C759 C758 1.369 . S
C759 C760 1.410 . S
C759 C767 1.503 . S
C760 C759 1.410 . S
C760 C761 1.392 . S
C760 C763 1.511 . S
C761 C757 1.376 . S
C761 C760 1.392 . S
C761 H773 0.929 . S
C762 C758 1.531 . S
C762 H774 0.960 . S
C762 H775 0.962 . S
C762 H776 0.960 . S
C763 C760 1.511 . S
C763 H777 0.961 . S
C763 H778 0.961 . S
C763 H779 0.961 . S
C764 C765 1.370 . S
C764 C766 1.363 . S
C764 H780 0.931 . S
C765 C764 1.370 . S
C765 C769 1.408 . S
C766 C764 1.363 . S
C766 C767 1.370 . S
C766 C770 1.524 . S
C767 C759 1.503 . S
C767 C766 1.370 . S
C767 C768 1.403 . S
C768 C767 1.403 . S
C768 C769 1.404 . S
C768 C771 1.539 . S
C769 C765 1.408 . S
C769 C768 1.404 . S
C769 H781 0.930 . S
C770 C766 1.524 . S
C770 H782 0.956 . S
C770 H783 0.961 . S
C770 H784 0.961 . S
C771 C768 1.539 . S
C771 H785 0.958 . S
C771 H786 0.961 . S
C771 H787 0.960 . S
H772 C756 0.931 . S
H773 C761 0.929 . S
H774 C762 0.960 . S
H775 C762 0.962 . S
H776 C762 0.960 . S
H777 C763 0.961 . S
H778 C763 0.961 . S
H779 C763 0.961 . S
H780 C764 0.931 . S
H781 C769 0.930 . S
H782 C770 0.956 . S
H783 C770 0.961 . S
H784 C770 0.961 . S
H785 C771 0.958 . S
H786 C771 0.961 . S
H787 C771 0.960 . S
C788 C789 1.391 . S
C788 C790 1.394 . S
C788 H804 0.931 . S
C789 C788 1.391 . S
C789 C793 1.376 . S
C790 C788 1.394 . S
C790 C791 1.369 . S
C790 C794 1.531 . S
C791 C790 1.369 . S
C791 C792 1.410 . S
C791 C799 1.503 . S
C792 C791 1.410 . S
C792 C793 1.392 . S
C792 C795 1.511 . S
C793 C789 1.376 . S
C793 C792 1.392 . S
C793 H805 0.929 . S
C794 C790 1.531 . S
C794 H806 0.960 . S
C794 H807 0.962 . S
C794 H808 0.960 . S
C795 C792 1.511 . S
C795 H809 0.961 . S
C795 H810 0.961 . S
C795 H811 0.961 . S
C796 C797 1.370 . S
C796 C798 1.363 . S
C796 H812 0.931 . S
C797 C796 1.370 . S
C797 C801 1.408 . S
C798 C796 1.363 . S
C798 C799 1.370 . S
C798 C802 1.524 . S
C799 C791 1.503 . S
C799 C798 1.370 . S
C799 C800 1.403 . S
C800 C799 1.403 . S
C800 C801 1.404 . S
C800 C803 1.539 . S
C801 C797 1.408 . S
C801 C800 1.404 . S
C801 H813 0.930 . S
C802 C798 1.524 . S
C802 H814 0.956 . S
C802 H815 0.961 . S
C802 H816 0.961 . S
C803 C800 1.539 . S
C803 H817 0.958 . S
C803 H818 0.961 . S
C803 H819 0.960 . S
H804 C788 0.931 . S
H805 C793 0.929 . S
H806 C794 0.960 . S
H807 C794 0.962 . S
H808 C794 0.960 . S
H809 C795 0.961 . S
H810 C795 0.961 . S
H811 C795 0.961 . S
H812 C796 0.931 . S
H813 C801 0.930 . S
H814 C802 0.956 . S
H815 C802 0.961 . S
H816 C802 0.961 . S
H817 C803 0.958 . S
H818 C803 0.961 . S
H819 C803 0.960 . S
C820 C821 1.391 . S
C820 C822 1.394 . S
C820 H836 0.931 . S
C821 C820 1.391 . S
C821 C825 1.376 . S
C822 C820 1.394 . S
C822 C823 1.369 . S
C822 C826 1.531 . S
C823 C822 1.369 . S
C823 C824 1.410 . S
C823 C831 1.503 . S
C824 C823 1.410 . S
C824 C825 1.392 . S
C824 C827 1.511 . S
C825 C821 1.376 . S
C825 C824 1.392 . S
C825 H837 0.929 . S
C826 C822 1.531 . S
C826 H838 0.960 . S
C826 H839 0.962 . S
C826 H840 0.960 . S
C827 C824 1.511 . S
C827 H841 0.961 . S
C827 H842 0.961 . S
C827 H843 0.961 . S
C828 C829 1.370 . S
C828 C830 1.363 . S
C828 H844 0.931 . S
C829 C828 1.370 . S
C829 C833 1.408 . S
C830 C828 1.363 . S
C830 C831 1.370 . S
C830 C834 1.524 . S
C831 C823 1.503 . S
C831 C830 1.370 . S
C831 C832 1.403 . S
C832 C831 1.403 . S
C832 C833 1.404 . S
C832 C835 1.539 . S
C833 C829 1.408 . S
C833 C832 1.404 . S
C833 H845 0.930 . S
C834 C830 1.524 . S
C834 H846 0.956 . S
C834 H847 0.961 . S
C834 H848 0.961 . S
C835 C832 1.539 . S
C835 H849 0.958 . S
C835 H850 0.961 . S
C835 H851 0.960 . S
H836 C820 0.931 . S
H837 C825 0.929 . S
H838 C826 0.960 . S
H839 C826 0.962 . S
H840 C826 0.960 . S
H841 C827 0.961 . S
H842 C827 0.961 . S
H843 C827 0.961 . S
H844 C828 0.931 . S
H845 C833 0.930 . S
H846 C834 0.956 . S
H847 C834 0.961 . S
H848 C834 0.961 . S
H849 C835 0.958 . S
H850 C835 0.961 . S
H851 C835 0.960 . S
C852 C853 1.391 . S
C852 C854 1.394 . S
C852 H868 0.931 . S
C853 C852 1.391 . S
C853 C857 1.376 . S
C854 C852 1.394 . S
C854 C855 1.369 . S
C854 C858 1.531 . S
C855 C854 1.369 . S
C855 C856 1.410 . S
C855 C863 1.503 . S
C856 C855 1.410 . S
C856 C857 1.392 . S
C856 C859 1.511 . S
C857 C853 1.376 . S
C857 C856 1.392 . S
C857 H869 0.929 . S
C858 C854 1.531 . S
C858 H870 0.960 . S
C858 H871 0.962 . S
C858 H872 0.960 . S
C859 C856 1.511 . S
C859 H873 0.961 . S
C859 H874 0.961 . S
C859 H875 0.961 . S
C860 C861 1.370 . S
C860 C862 1.363 . S
C860 H876 0.931 . S
C861 C860 1.370 . S
C861 C865 1.408 . S
C862 C860 1.363 . S
C862 C863 1.370 . S
C862 C866 1.524 . S
C863 C855 1.503 . S
C863 C862 1.370 . S
C863 C864 1.403 . S
C864 C863 1.403 . S
C864 C865 1.404 . S
C864 C867 1.539 . S
C865 C861 1.408 . S
C865 C864 1.404 . S
C865 H877 0.930 . S
C866 C862 1.524 . S
C866 H878 0.956 . S
C866 H879 0.961 . S
C866 H880 0.961 . S
C867 C864 1.539 . S
C867 H881 0.958 . S
C867 H882 0.961 . S
C867 H883 0.960 . S
H868 C852 0.931 . S
H869 C857 0.929 . S
H870 C858 0.960 . S
H871 C858 0.962 . S
H872 C858 0.960 . S
H873 C859 0.961 . S
H874 C859 0.961 . S
H875 C859 0.961 . S
H876 C860 0.931 . S
H877 C865 0.930 . S
H878 C866 0.956 . S
H879 C866 0.961 . S
H880 C866 0.961 . S
H881 C867 0.958 . S
H882 C867 0.961 . S
H883 C867 0.960 . S
C884 C885 1.391 . S
C884 C886 1.394 . S
C884 H900 0.931 . S
C885 C884 1.391 . S
C885 C889 1.376 . S
C886 C884 1.394 . S
C886 C887 1.369 . S
C886 C890 1.531 . S
C887 C886 1.369 . S
C887 C888 1.410 . S
C887 C895 1.503 1_655 S
C888 C887 1.410 . S
C888 C889 1.392 . S
C888 C891 1.511 1_655 S
C889 C885 1.376 . S
C889 C888 1.392 . S
C889 H901 0.929 . S
C890 C886 1.531 . S
C890 H902 0.960 . S
C890 H903 0.962 . S
C890 H904 0.960 . S
C891 C888 1.511 1_455 S
C891 H905 0.961 . S
C891 H906 0.961 . S
C891 H907 0.961 . S
C892 C893 1.370 . S
C892 C894 1.363 . S
C892 H908 0.931 . S
C893 C892 1.370 . S
C893 C897 1.408 . S
C894 C892 1.363 . S
C894 C895 1.370 . S
C894 C898 1.524 . S
C895 C887 1.503 1_455 S
C895 C894 1.370 . S
C895 C896 1.403 . S
C896 C895 1.403 . S
C896 C897 1.404 . S
C896 C899 1.539 . S
C897 C893 1.408 . S
C897 C896 1.404 . S
C897 H909 0.930 . S
C898 C894 1.524 . S
C898 H910 0.956 1_455 S
C898 H911 0.961 1_455 S
C898 H912 0.961 . S
C899 C896 1.539 . S
C899 H913 0.958 . S
C899 H914 0.961 . S
C899 H915 0.960 . S
H900 C884 0.931 . S
H901 C889 0.929 . S
H902 C890 0.960 . S
H903 C890 0.962 . S
H904 C890 0.960 . S
H905 C891 0.961 . S
H906 C891 0.961 . S
H907 C891 0.961 . S
H908 C892 0.931 . S
H909 C897 0.930 . S
H910 C898 0.956 1_655 S
H911 C898 0.961 1_655 S
H912 C898 0.961 . S
H913 C899 0.958 . S
H914 C899 0.961 . S
H915 C899 0.960 . S
C916 C917 1.391 . S
C916 C918 1.394 . S
C916 H932 0.931 . S
C917 C916 1.391 . S
C917 C921 1.376 . S
C918 C916 1.394 . S
C918 C919 1.369 . S
C918 C922 1.531 . S
C919 C918 1.369 . S
C919 C920 1.410 . S
C919 C927 1.503 1_545 S
C920 C919 1.410 . S
C920 C921 1.392 . S
C920 C923 1.511 . S
C921 C917 1.376 . S
C921 C920 1.392 . S
C921 H933 0.929 . S
C922 C918 1.531 . S
C922 H934 0.960 1_545 S
C922 H935 0.962 1_545 S
C922 H936 0.960 . S
C923 C920 1.511 . S
C923 H937 0.961 . S
C923 H938 0.961 . S
C923 H939 0.961 . S
C924 C925 1.370 . S
C924 C926 1.363 . S
C924 H940 0.931 . S
C925 C924 1.370 . S
C925 C929 1.408 . S
C926 C924 1.363 . S
C926 C927 1.370 . S
C926 C930 1.524 . S
C927 C919 1.503 1_565 S
C927 C926 1.370 . S
C927 C928 1.403 . S
C928 C927 1.403 . S
C928 C929 1.404 . S
C928 C931 1.539 1_565 S
C929 C925 1.408 . S
C929 C928 1.404 . S
C929 H941 0.930 . S
C930 C926 1.524 . S
C930 H942 0.956 . S
C930 H943 0.961 . S
C930 H944 0.961 . S
C931 C928 1.539 1_545 S
C931 H945 0.958 . S
C931 H946 0.961 . S
C931 H947 0.960 . S
H932 C916 0.931 . S
H933 C921 0.929 . S
H934 C922 0.960 1_565 S
H935 C922 0.962 1_565 S
H936 C922 0.960 . S
H937 C923 0.961 . S
H938 C923 0.961 . S
H939 C923 0.961 . S
H940 C924 0.931 . S
H941 C929 0.930 . S
H942 C930 0.956 . S
H943 C930 0.961 . S
H944 C930 0.961 . S
H945 C931 0.958 . S
H946 C931 0.961 . S
H947 C931 0.960 . S
C948 C949 1.391 . S
C948 C950 1.394 . S
C948 H964 0.931 . S
C949 C948 1.391 . S
C949 C953 1.376 . S
C950 C948 1.394 . S
C950 C951 1.369 . S
C950 C954 1.531 . S
C951 C950 1.369 . S
C951 C952 1.410 . S
C951 C959 1.503 . S
C952 C951 1.410 . S
C952 C953 1.392 . S
C952 C955 1.511 . S
C953 C949 1.376 . S
C953 C952 1.392 . S
C953 H965 0.929 . S
C954 C950 1.531 . S
C954 H966 0.960 . S
C954 H967 0.962 . S
C954 H968 0.960 . S
C955 C952 1.511 . S
C955 H969 0.961 . S
C955 H970 0.961 . S
C955 H971 0.961 . S
C956 C957 1.370 . S
C956 C958 1.363 . S
C956 H972 0.931 . S
C957 C956 1.370 . S
C957 C961 1.408 . S
C958 C956 1.363 . S
C958 C959 1.370 . S
C958 C962 1.524 . S
C959 C951 1.503 . S
C959 C958 1.370 . S
C959 C960 1.403 . S
C960 C959 1.403 . S
C960 C961 1.404 . S
C960 C963 1.539 . S
C961 C957 1.408 . S
C961 C960 1.404 . S
C961 H973 0.930 . S
C962 C958 1.524 . S
C962 H974 0.956 . S
C962 H975 0.961 . S
C962 H976 0.961 . S
C963 C960 1.539 . S
C963 H977 0.958 . S
C963 H978 0.961 . S
C963 H979 0.960 . S
H964 C948 0.931 . S
H965 C953 0.929 . S
H966 C954 0.960 . S
H967 C954 0.962 . S
H968 C954 0.960 . S
H969 C955 0.961 . S
H970 C955 0.961 . S
H971 C955 0.961 . S
H972 C956 0.931 . S
H973 C961 0.930 . S
H974 C962 0.956 . S
H975 C962 0.961 . S
H976 C962 0.961 . S
H977 C963 0.958 . S
H978 C963 0.961 . S
H979 C963 0.960 . S
C980 C981 1.391 . S
C980 C982 1.394 . S
C980 H996 0.931 . S
C981 C980 1.391 . S
C981 C985 1.376 . S
C982 C980 1.394 . S
C982 C983 1.369 . S
C982 C986 1.531 . S
C983 C982 1.369 . S
C983 C984 1.410 . S
C983 C991 1.503 1_455 S
C984 C983 1.410 . S
C984 C985 1.392 . S
C984 C987 1.511 1_455 S
C985 C981 1.376 . S
C985 C984 1.392 . S
C985 H997 0.929 . S
C986 C982 1.531 . S
C986 H998 0.960 . S
C986 H999 0.962 . S
C986 H1000 0.960 . S
C987 C984 1.511 1_655 S
C987 H1001 0.961 . S
C987 H1002 0.961 . S
C987 H1003 0.961 . S
C988 C989 1.370 . S
C988 C990 1.363 . S
C988 H1004 0.931 . S
C989 C988 1.370 . S
C989 C993 1.408 . S
C990 C988 1.363 . S
C990 C991 1.370 . S
C990 C994 1.524 . S
C991 C983 1.503 1_655 S
C991 C990 1.370 . S
C991 C992 1.403 . S
C992 C991 1.403 . S
C992 C993 1.404 . S
C992 C995 1.539 . S
C993 C989 1.408 . S
C993 C992 1.404 . S
C993 H1005 0.930 . S
C994 C990 1.524 . S
C994 H1006 0.956 1_655 S
C994 H1007 0.961 1_655 S
C994 H1008 0.961 . S
C995 C992 1.539 . S
C995 H1009 0.958 . S
C995 H1010 0.961 . S
C995 H1011 0.960 . S
H996 C980 0.931 . S
H997 C985 0.929 . S
H998 C986 0.960 . S
H999 C986 0.962 . S
H1000 C986 0.960 . S
H1001 C987 0.961 . S
H1002 C987 0.961 . S
H1003 C987 0.961 . S
H1004 C988 0.931 . S
H1005 C993 0.930 . S
H1006 C994 0.956 1_455 S
H1007 C994 0.961 1_455 S
H1008 C994 0.961 . S
H1009 C995 0.958 . S
H1010 C995 0.961 . S
H1011 C995 0.960 . S
C1012 C1013 1.391 . S
C1012 C1014 1.394 . S
C1012 H1028 0.931 . S
C1013 C1012 1.391 . S
C1013 C1017 1.376 . S
C1014 C1012 1.394 . S
C1014 C1015 1.369 . S
C1014 C1018 1.531 1_565 S
C1015 C1014 1.369 . S
C1015 C1016 1.410 . S
C1015 C1023 1.503 1_565 S
C1016 C1015 1.410 . S
C1016 C1017 1.392 . S
C1016 C1019 1.511 . S
C1017 C1013 1.376 . S
C1017 C1016 1.392 . S
C1017 H1029 0.929 . S
C1018 C1014 1.531 1_545 S
C1018 H1030 0.960 . S
C1018 H1031 0.962 . S
C1018 H1032 0.960 . S
C1019 C1016 1.511 . S
C1019 H1033 0.961 . S
C1019 H1034 0.961 . S
C1019 H1035 0.961 . S
C1020 C1021 1.370 . S
C1020 C1022 1.363 . S
C1020 H1036 0.931 . S
C1021 C1020 1.370 . S
C1021 C1025 1.408 . S
C1022 C1020 1.363 . S
C1022 C1023 1.370 . S
C1022 C1026 1.524 . S
C1023 C1015 1.503 1_545 S
C1023 C1022 1.370 . S
C1023 C1024 1.403 . S
C1024 C1023 1.403 . S
C1024 C1025 1.404 . S
C1024 C1027 1.540 . S
C1025 C1021 1.408 . S
C1025 C1024 1.404 . S
C1025 H1037 0.930 . S
C1026 C1022 1.524 . S
C1026 H1038 0.956 . S
C1026 H1039 0.961 . S
C1026 H1040 0.961 . S
C1027 C1024 1.540 . S
C1027 H1041 0.958 . S
C1027 H1042 0.962 . S
C1027 H1043 0.959 1_545 S
H1028 C1012 0.931 . S
H1029 C1017 0.929 . S
H1030 C1018 0.960 . S
H1031 C1018 0.962 . S
H1032 C1018 0.960 . S
H1033 C1019 0.961 . S
H1034 C1019 0.961 . S
H1035 C1019 0.961 . S
H1036 C1020 0.931 . S
H1037 C1025 0.930 . S
H1038 C1026 0.956 . S
H1039 C1026 0.961 . S
H1040 C1026 0.961 . S
H1041 C1027 0.958 . S
H1042 C1027 0.962 . S
H1043 C1027 0.959 1_565 S
C277 N163 1.816 . S
C285 N2 1.808 . S
C309 N35 1.870 . S
C317 N186 1.769 . S
C341 N48 1.746 . S
C349 N219 1.878 . S
C373 N71 1.825 . S
C381 N232 1.833 . S
C405 N255 1.795 . S
C413 N104 1.879 . S
C437 N150 1.874 . S
C445 N117 1.769 . S
C469 C246 1.623 . S
C477 C16 1.567 . S
C501 C30 1.653 . S
C509 C269 1.616 . S
C533 C62 1.648 . S
C541 C145 1.653 . S
C565 C177 1.563 . S
C573 C85 1.592 . S
C597 C200 1.625 . S
C605 C99 1.662 . S
C629 C214 1.694 . S
C637 C131 1.595 . S
C661 C7 1.801 . S
C669 C191 1.837 . S
C693 C39 1.829 . S
C701 C223 1.801 . S
C725 C237 1.838 . S
C733 C53 1.823 . S
C757 C76 1.797 . S
C765 C260 1.827 . S
C789 C154 1.797 . S
C797 C108 1.795 . S
C821 C168 1.835 . S
C829 C122 1.822 . S
C853 N81 1.981 . S
C861 N12 1.998 . S
C885 N94 1.900 . S
C893 N25 1.932 . S
C917 N58 2.011 . S
C925 N127 2.009 . S
C949 N140 1.902 . S
C957 N209 1.930 . S
C981 N173 1.981 . S
C989 N242 1.998 . S
C1013 N265 2.018 . S
C1021 N196 2.012 . S
