# Generated by pormake.
# Topology wgc, (5)-cn, num edge types: 1
# Building blocks:
#     Node 0, Type 0, BuildingBlock: XOMCOT_clean_sbu_0, # of connection points: 5
#     Node 1, Type 0, BuildingBlock: XOMCOT_clean_sbu_0, # of connection points: 5
#     Node 2, Type 0, BuildingBlock: XOMCOT_clean_sbu_0, # of connection points: 5
#     Node 3, Type 0, BuildingBlock: XOMCOT_clean_sbu_0, # of connection points: 5
#     Node 4, Type 0, BuildingBlock: XOMCOT_clean_sbu_0, # of connection points: 5
#     Node 5, Type 0, BuildingBlock: XOMCOT_clean_sbu_0, # of connection points: 5
#     Node 6, Type 0, BuildingBlock: XOMCOT_clean_sbu_0, # of connection points: 5
#     Node 7, Type 0, BuildingBlock: XOMCOT_clean_sbu_0, # of connection points: 5
#     Node 8, Type 0, BuildingBlock: XOMCOT_clean_sbu_0, # of connection points: 5
#     Node 9, Type 0, BuildingBlock: XOMCOT_clean_sbu_0, # of connection points: 5
#     Node 10, Type 0, BuildingBlock: XOMCOT_clean_sbu_0, # of connection points: 5
#     Node 11, Type 0, BuildingBlock: XOMCOT_clean_sbu_0, # of connection points: 5
#     Node 12, Type 0, BuildingBlock: XOMCOT_clean_sbu_0, # of connection points: 5
#     Node 13, Type 0, BuildingBlock: XOMCOT_clean_sbu_0, # of connection points: 5
#     Node 14, Type 0, BuildingBlock: XOMCOT_clean_sbu_0, # of connection points: 5
#     Node 15, Type 0, BuildingBlock: XOMCOT_clean_sbu_0, # of connection points: 5
#     Edge 16, Type (0, 0), BuildingBlock: TEMPAE_clean_linker_10, # of connection points: 2
#     Edge 17, Type (0, 0), BuildingBlock: TEMPAE_clean_linker_10, # of connection points: 2
#     Edge 18, Type (0, 0), BuildingBlock: TEMPAE_clean_linker_10, # of connection points: 2
#     Edge 19, Type (0, 0), BuildingBlock: TEMPAE_clean_linker_10, # of connection points: 2
#     Edge 20, Type (0, 0), BuildingBlock: TEMPAE_clean_linker_10, # of connection points: 2
#     Edge 21, Type (0, 0), BuildingBlock: TEMPAE_clean_linker_10, # of connection points: 2
#     Edge 22, Type (0, 0), BuildingBlock: TEMPAE_clean_linker_10, # of connection points: 2
#     Edge 23, Type (0, 0), BuildingBlock: TEMPAE_clean_linker_10, # of connection points: 2
#     Edge 24, Type (0, 0), BuildingBlock: TEMPAE_clean_linker_10, # of connection points: 2
#     Edge 25, Type (0, 0), BuildingBlock: TEMPAE_clean_linker_10, # of connection points: 2
#     Edge 26, Type (0, 0), BuildingBlock: TEMPAE_clean_linker_10, # of connection points: 2
#     Edge 27, Type (0, 0), BuildingBlock: TEMPAE_clean_linker_10, # of connection points: 2
#     Edge 28, Type (0, 0), BuildingBlock: TEMPAE_clean_linker_10, # of connection points: 2
#     Edge 29, Type (0, 0), BuildingBlock: TEMPAE_clean_linker_10, # of connection points: 2
#     Edge 30, Type (0, 0), BuildingBlock: TEMPAE_clean_linker_10, # of connection points: 2
#     Edge 31, Type (0, 0), BuildingBlock: TEMPAE_clean_linker_10, # of connection points: 2
#     Edge 32, Type (0, 0), BuildingBlock: TEMPAE_clean_linker_10, # of connection points: 2
#     Edge 33, Type (0, 0), BuildingBlock: TEMPAE_clean_linker_10, # of connection points: 2
#     Edge 34, Type (0, 0), BuildingBlock: TEMPAE_clean_linker_10, # of connection points: 2
#     Edge 35, Type (0, 0), BuildingBlock: TEMPAE_clean_linker_10, # of connection points: 2
#     Edge 36, Type (0, 0), BuildingBlock: TEMPAE_clean_linker_10, # of connection points: 2
#     Edge 37, Type (0, 0), BuildingBlock: TEMPAE_clean_linker_10, # of connection points: 2
#     Edge 38, Type (0, 0), BuildingBlock: TEMPAE_clean_linker_10, # of connection points: 2
#     Edge 39, Type (0, 0), BuildingBlock: TEMPAE_clean_linker_10, # of connection points: 2
#     Edge 40, Type (0, 0), BuildingBlock: TEMPAE_clean_linker_10, # of connection points: 2
#     Edge 41, Type (0, 0), BuildingBlock: TEMPAE_clean_linker_10, # of connection points: 2
#     Edge 42, Type (0, 0), BuildingBlock: TEMPAE_clean_linker_10, # of connection points: 2
#     Edge 43, Type (0, 0), BuildingBlock: TEMPAE_clean_linker_10, # of connection points: 2
#     Edge 44, Type (0, 0), BuildingBlock: TEMPAE_clean_linker_10, # of connection points: 2
#     Edge 45, Type (0, 0), BuildingBlock: TEMPAE_clean_linker_10, # of connection points: 2
#     Edge 46, Type (0, 0), BuildingBlock: TEMPAE_clean_linker_10, # of connection points: 2
#     Edge 47, Type (0, 0), BuildingBlock: TEMPAE_clean_linker_10, # of connection points: 2
#     Edge 48, Type (0, 0), BuildingBlock: TEMPAE_clean_linker_10, # of connection points: 2
#     Edge 49, Type (0, 0), BuildingBlock: TEMPAE_clean_linker_10, # of connection points: 2
#     Edge 50, Type (0, 0), BuildingBlock: TEMPAE_clean_linker_10, # of connection points: 2
#     Edge 51, Type (0, 0), BuildingBlock: TEMPAE_clean_linker_10, # of connection points: 2
#     Edge 52, Type (0, 0), BuildingBlock: TEMPAE_clean_linker_10, # of connection points: 2
#     Edge 53, Type (0, 0), BuildingBlock: TEMPAE_clean_linker_10, # of connection points: 2
#     Edge 54, Type (0, 0), BuildingBlock: TEMPAE_clean_linker_10, # of connection points: 2
#     Edge 55, Type (0, 0), BuildingBlock: TEMPAE_clean_linker_10, # of connection points: 2
# Relax obj value: 0.140
# Max RMSD: 0.153
# Mean RMSD: 0.152
data_MOF--net-wgc--node1-XOMCOT_clean_sbu_0--edge1-TEMPAE_clean_linker_10
_symmetry_space_group_name_H-M    P1
_symmetry_Int_Tables_number       1
_symmetry_cell_setting            triclinic
loop_
_symmetry_equiv_pos_as_xyz
'x, y, z'
_cell_length_a     36.995741
_cell_length_b     36.9987
_cell_length_c     60.642454
_cell_angle_alpha  89.931923
_cell_angle_beta   89.888457
_cell_angle_gamma 90.000031
loop_
_atom_site_label
_atom_site_type_symbol
_atom_site_fract_x
_atom_site_fract_y
_atom_site_fract_z
_atom_type_partial_charge
Co0 Co 0.2915 0.119 0.9839 0.0
C1 C 0.21989 0.15371 0.98056 0.0
C2 C 0.21469 0.09619 0.98428 0.0
C3 C 0.18058 0.11118 0.98373 0.0
N4 N 0.23932 0.12293 0.98243 0.0
N5 N 0.18408 0.14717 0.98124 0.0
H6 H 0.2316 0.18044 0.97933 0.0
H7 H 0.2208 0.06779 0.98615 0.0
C8 C 0.30203 0.04934 0.01011 0.0
O9 O 0.32683 0.06345 0.02298 0.0
N10 N 0.34395 0.11513 0.98517 0.0
C11 C 0.36782 0.14155 0.98981 0.0
C12 C 0.40222 0.1278 0.9885 0.0
C13 C 0.3645 0.08586 0.98041 0.0
N14 N 0.40034 0.09269 0.9826 0.0
C15 C 0.29838 0.17684 0.01485 0.0
C16 C 0.27144 0.14095 0.05125 0.0
C17 C 0.28307 0.17685 0.0537 0.0
C18 C 0.29586 0.19496 0.03492 0.0
C19 C 0.27371 0.12407 0.03066 0.0
N20 N 0.28918 0.14124 0.01304 0.0
H21 H 0.307 0.192 0.0006 0.0
H22 H 0.26201 0.09759 0.02898 0.0
H23 H 0.36128 0.1692 0.99358 0.0
H24 H 0.35333 0.06021 0.97528 0.0
O25 O 0.29533 0.16213 0.96589 0.0
O26 O 0.29296 0.10595 0.95325 0.0
O27 O 0.28631 0.06833 0.99543 0.0
C28 C 0.29396 0.14039 0.94907 0.0
H29 H 0.15515 0.09684 0.98502 0.0
H30 H 0.42668 0.1427 0.99204 0.0
H31 H 0.2605 0.12587 0.06504 0.0
H32 H 0.30322 0.22326 0.0355 0.0
Co33 Co 0.12041 0.72276 0.01464 0.0
C34 C 0.15441 0.79483 0.0168 0.0
C35 C 0.09914 0.79605 0.0276 0.0
C36 C 0.11396 0.8298 0.03063 0.0
N37 N 0.12446 0.77429 0.01881 0.0
N38 N 0.14879 0.82906 0.02387 0.0
H39 H 0.1799 0.78466 0.01068 0.0
H40 H 0.07227 0.78754 0.03236 0.0
C41 C 0.0503 0.71581 0.98789 0.0
O42 O 0.0613 0.68733 0.97684 0.0
N43 N 0.1164 0.67065 0.01101 0.0
C44 C 0.14307 0.6476 0.00537 0.0
C45 C 0.12981 0.61293 0.00557 0.0
C46 C 0.08751 0.64929 0.01537 0.0
N47 N 0.09476 0.61389 0.01169 0.0
C48 C 0.18131 0.72007 0.98526 0.0
C49 C 0.14673 0.74444 0.94776 0.0
C50 C 0.18325 0.73495 0.9465 0.0
C51 C 0.20079 0.72334 0.9656 0.0
C52 C 0.12841 0.74157 0.96791 0.0
N53 N 0.14517 0.72773 0.98617 0.0
H54 H 0.19561 0.71145 0.99982 0.0
H55 H 0.10115 0.7515 0.96864 0.0
H56 H 0.17067 0.65489 0.00188 0.0
H57 H 0.06158 0.65957 0.02076 0.0
O58 O 0.16181 0.71667 0.03385 0.0
O59 O 0.1046 0.71796 0.04475 0.0
O60 O 0.07099 0.73122 0.00183 0.0
C61 C 0.13859 0.71669 0.05 0.0
H62 H 0.10037 0.85268 0.03803 0.0
H63 H 0.14515 0.58876 0.00189 0.0
H64 H 0.13269 0.75469 0.93339 0.0
H65 H 0.22926 0.71649 0.96529 0.0
Co66 Co 0.71812 0.89126 0.98676 0.0
C67 C 0.78723 0.85165 0.9804 0.0
C68 C 0.79056 0.90699 0.96987 0.0
C69 C 0.82306 0.8904 0.96547 0.0
N70 N 0.76822 0.88276 0.97931 0.0
N71 N 0.82095 0.85562 0.97209 0.0
H72 H 0.77645 0.82647 0.98662 0.0
H73 H 0.78348 0.93467 0.96612 0.0
C74 C 0.71913 0.96177 0.01309 0.0
O75 O 0.68686 0.95658 0.02155 0.0
N76 N 0.66737 0.90009 0.99393 0.0
C77 C 0.64757 0.8848 0.01022 0.0
C78 C 0.61395 0.90052 0.01074 0.0
C79 C 0.64493 0.92467 0.98456 0.0
N80 N 0.61231 0.92557 0.99467 0.0
C81 C 0.71499 0.82698 0.01298 0.0
C82 C 0.74022 0.85599 0.05196 0.0
C83 C 0.72888 0.81977 0.05175 0.0
C84 C 0.71696 0.8052 0.03173 0.0
C85 C 0.73819 0.87686 0.03271 0.0
N86 N 0.72448 0.86268 0.01366 0.0
H87 H 0.70481 0.8151 0.99802 0.0
H88 H 0.74752 0.90434 0.03348 0.0
H89 H 0.65669 0.8645 0.02167 0.0
H90 H 0.65282 0.94281 0.97139 0.0
O91 O 0.70471 0.8532 0.96644 0.0
O92 O 0.71093 0.91098 0.95765 0.0
O93 O 0.7339 0.93784 0.0009 0.0
C94 C 0.70516 0.87802 0.95125 0.0
H95 H 0.84659 0.90314 0.95822 0.0
H96 H 0.59249 0.89445 0.02232 0.0
H97 H 0.74983 0.86849 0.06698 0.0
H98 H 0.70889 0.77714 0.03051 0.0
Co99 Co 0.89572 0.29453 0.01264 0.0
C100 C 0.86045 0.22283 0.01585 0.0
C101 C 0.91715 0.22045 0.02331 0.0
C102 C 0.90242 0.18674 0.0267 0.0
N103 N 0.89085 0.24298 0.01649 0.0
N104 N 0.86681 0.18831 0.02204 0.0
H105 H 0.83406 0.23346 0.01175 0.0
H106 H 0.94491 0.22826 0.0262 0.0
C107 C 0.96418 0.30169 0.98438 0.0
O108 O 0.9547 0.33263 0.97553 0.0
N109 N 0.90077 0.34671 0.00936 0.0
C110 C 0.8749 0.3704 0.00332 0.0
C111 C 0.88886 0.40476 0.00381 0.0
C112 C 0.92984 0.36745 0.01431 0.0
N113 N 0.92353 0.40301 0.01051 0.0
C114 C 0.83243 0.29947 0.98569 0.0
C115 C 0.86273 0.27624 0.94658 0.0
C116 C 0.8265 0.28741 0.9467 0.0
C117 C 0.81126 0.29842 0.96672 0.0
C118 C 0.88307 0.27783 0.96602 0.0
N119 N 0.86838 0.29102 0.9851 0.0
H120 H 0.81968 0.30768 0.00088 0.0
H121 H 0.91032 0.2678 0.96549 0.0
H122 H 0.84737 0.36388 0.99929 0.0
H123 H 0.95533 0.35658 0.02 0.0
O124 O 0.85613 0.30142 0.0331 0.0
O125 O 0.91394 0.29804 0.04236 0.0
O126 O 0.94359 0.28496 0.99784 0.0
C127 C 0.88037 0.30047 0.04857 0.0
H128 H 0.91681 0.16291 0.03219 0.0
H129 H 0.87428 0.42927 0.99985 0.0
H130 H 0.87542 0.26675 0.93156 0.0
H131 H 0.78303 0.306 0.9678 0.0
Co132 Co 0.28828 0.3851 0.26318 0.0
C133 C 0.21869 0.34742 0.27214 0.0
C134 C 0.2147 0.40479 0.27628 0.0
C135 C 0.18199 0.38954 0.28163 0.0
N136 N 0.23754 0.3785 0.26998 0.0
N137 N 0.18435 0.35328 0.27912 0.0
H138 H 0.23029 0.32108 0.26935 0.0
H139 H 0.22162 0.43307 0.27759 0.0
C140 C 0.29115 0.45707 0.23787 0.0
O141 O 0.32351 0.45117 0.22975 0.0
N142 N 0.33934 0.39187 0.25694 0.0
C143 C 0.36048 0.37181 0.24357 0.0
C144 C 0.39431 0.38719 0.24265 0.0
C145 C 0.36106 0.41847 0.26458 0.0
N146 N 0.39458 0.41664 0.25572 0.0
C147 C 0.28274 0.32123 0.23676 0.0
C148 C 0.2746 0.35426 0.19628 0.0
C149 C 0.27601 0.31638 0.19714 0.0
C150 C 0.27949 0.29999 0.21788 0.0
C151 C 0.27705 0.37453 0.21565 0.0
N152 N 0.28181 0.35813 0.23565 0.0
H153 H 0.28636 0.3076 0.2523 0.0
H154 H 0.27544 0.40328 0.21406 0.0
H155 H 0.35203 0.34803 0.23467 0.0
H156 H 0.35185 0.44001 0.27527 0.0
O157 O 0.29972 0.34545 0.2827 0.0
O158 O 0.29531 0.40284 0.29274 0.0
O159 O 0.27502 0.43305 0.24944 0.0
C160 C 0.29958 0.36924 0.29845 0.0
H161 H 0.15846 0.40446 0.28697 0.0
H162 H 0.41687 0.37771 0.23284 0.0
H163 H 0.27237 0.36844 0.18071 0.0
H164 H 0.27982 0.27088 0.21965 0.0
Co165 Co 0.38457 0.71688 0.73542 0.0
C166 C 0.34969 0.78824 0.73046 0.0
C167 C 0.40697 0.79118 0.72498 0.0
C168 C 0.39233 0.82495 0.72165 0.0
N169 N 0.38024 0.76831 0.7306 0.0
N170 N 0.35623 0.82312 0.72501 0.0
H171 H 0.32318 0.77712 0.73375 0.0
H172 H 0.4351 0.78379 0.72314 0.0
C173 C 0.45368 0.71025 0.76222 0.0
O174 O 0.44006 0.6858 0.77558 0.0
N175 N 0.38957 0.66498 0.7399 0.0
C176 C 0.36728 0.64206 0.75069 0.0
C177 C 0.38253 0.60816 0.7509 0.0
C178 C 0.4177 0.64424 0.73322 0.0
N179 N 0.41416 0.60956 0.73992 0.0
C180 C 0.32483 0.71493 0.76557 0.0
C181 C 0.35969 0.74415 0.80162 0.0
C182 C 0.32352 0.7336 0.80372 0.0
C183 C 0.30582 0.7196 0.78527 0.0
C184 C 0.37748 0.73983 0.78139 0.0
N185 N 0.36074 0.72332 0.764 0.0
H186 H 0.31058 0.70394 0.7516 0.0
H187 H 0.40434 0.75069 0.7798 0.0
H188 H 0.34176 0.64888 0.75813 0.0
H189 H 0.44091 0.65463 0.72435 0.0
O190 O 0.3425 0.70987 0.71689 0.0
O191 O 0.39931 0.71108 0.70522 0.0
O192 O 0.43447 0.72498 0.74729 0.0
C193 C 0.36516 0.70945 0.70044 0.0
H194 H 0.40735 0.84902 0.71731 0.0
H195 H 0.37127 0.58423 0.75858 0.0
H196 H 0.37381 0.75638 0.81535 0.0
H197 H 0.27765 0.71172 0.78617 0.0
Co198 Co 0.70938 0.61822 0.26407 0.0
C199 C 0.782 0.65168 0.26812 0.0
C200 C 0.78379 0.59461 0.27409 0.0
C201 C 0.81768 0.60871 0.27774 0.0
N202 N 0.7614 0.6215 0.26785 0.0
N203 N 0.81646 0.64459 0.27399 0.0
H204 H 0.77183 0.67858 0.26521 0.0
H205 H 0.77605 0.5668 0.2766 0.0
C206 C 0.71382 0.53879 0.26182 0.0
O207 O 0.70426 0.53941 0.28266 0.0
N208 N 0.65737 0.61498 0.26046 0.0
C209 C 0.63564 0.64004 0.25137 0.0
C210 C 0.60086 0.62678 0.25086 0.0
C211 C 0.63536 0.58714 0.26573 0.0
N212 N 0.60057 0.59333 0.25988 0.0
C213 C 0.71763 0.67779 0.23431 0.0
C214 C 0.71236 0.63957 0.19537 0.0
C215 C 0.71742 0.67716 0.1944 0.0
C216 C 0.72019 0.69614 0.21429 0.0
C217 C 0.7102 0.62209 0.21586 0.0
N218 N 0.71334 0.64114 0.23509 0.0
H219 H 0.71867 0.69348 0.24924 0.0
H220 H 0.70521 0.59339 0.21599 0.0
H221 H 0.64441 0.66601 0.2452 0.0
H222 H 0.64455 0.56296 0.27379 0.0
O223 O 0.70397 0.66107 0.28233 0.0
O224 O 0.70499 0.60498 0.29473 0.0
O225 O 0.71605 0.56841 0.251 0.0
C226 C 0.70414 0.63923 0.2991 0.0
H227 H 0.84136 0.59369 0.28282 0.0
H228 H 0.57789 0.64065 0.24382 0.0
H229 H 0.70925 0.62383 0.18045 0.0
H230 H 0.72436 0.7251 0.2145 0.0
Co231 Co 0.61268 0.29193 0.73971 0.0
C232 C 0.6454 0.21974 0.72989 0.0
C233 C 0.60112 0.21612 0.75264 0.0
C234 C 0.61705 0.18272 0.75107 0.0
N235 N 0.6187 0.23956 0.7393 0.0
N236 N 0.64493 0.18509 0.73687 0.0
H237 H 0.66653 0.23075 0.7196 0.0
H238 H 0.57982 0.22301 0.76407 0.0
C239 C 0.53704 0.30143 0.76124 0.0
O240 O 0.54027 0.33591 0.7659 0.0
N241 N 0.60743 0.34416 0.74047 0.0
C242 C 0.63075 0.36721 0.75003 0.0
C243 C 0.61785 0.40179 0.74777 0.0
C244 C 0.58129 0.36532 0.73169 0.0
N245 N 0.58652 0.40084 0.73635 0.0
C246 C 0.6726 0.28185 0.76815 0.0
C247 C 0.63992 0.30213 0.80723 0.0
C248 C 0.6764 0.29169 0.80747 0.0
C249 C 0.69261 0.28136 0.78758 0.0
C250 C 0.62081 0.30238 0.78731 0.0
N251 N 0.63722 0.29231 0.76808 0.0
H252 H 0.68567 0.27365 0.75304 0.0
H253 H 0.59319 0.31125 0.78747 0.0
H254 H 0.6553 0.35948 0.75844 0.0
H255 H 0.55845 0.35467 0.72268 0.0
O256 O 0.65411 0.29768 0.72036 0.0
O257 O 0.59733 0.29131 0.70941 0.0
O258 O 0.5633 0.28357 0.75296 0.0
C259 C 0.63126 0.29452 0.70417 0.0
H260 H 0.60974 0.15888 0.76045 0.0
H261 H 0.63018 0.42556 0.75487 0.0
H262 H 0.62647 0.31067 0.82222 0.0
H263 H 0.72054 0.2726 0.78703 0.0
Co264 Co 0.79565 0.61418 0.48336 0.0
C265 C 0.72391 0.64932 0.48052 0.0
C266 C 0.72262 0.5944 0.46915 0.0
C267 C 0.68908 0.60957 0.46586 0.0
N268 N 0.74432 0.61927 0.47844 0.0
N269 N 0.68995 0.64411 0.47298 0.0
H270 H 0.73405 0.67485 0.48657 0.0
H271 H 0.73096 0.5675 0.46441 0.0
C272 C 0.8005 0.54257 0.50899 0.0
O273 O 0.82914 0.55225 0.52031 0.0
N274 N 0.84749 0.60922 0.48781 0.0
C275 C 0.87031 0.63505 0.49497 0.0
C276 C 0.90478 0.62131 0.49553 0.0
C277 C 0.86885 0.5804 0.4833 0.0
N278 N 0.90394 0.58683 0.48838 0.0
C279 C 0.79678 0.67439 0.5129 0.0
C280 C 0.77389 0.63904 0.55048 0.0
C281 C 0.78263 0.67593 0.55191 0.0
C282 C 0.79327 0.69365 0.53251 0.0
C283 C 0.77686 0.62094 0.53028 0.0
N284 N 0.78995 0.63814 0.51196 0.0
H285 H 0.80506 0.68905 0.49838 0.0
H286 H 0.76788 0.59337 0.52965 0.0
H287 H 0.86297 0.66236 0.49918 0.0
H288 H 0.85875 0.555 0.47698 0.0
O289 O 0.80339 0.65615 0.46487 0.0
O290 O 0.80139 0.59958 0.45305 0.0
O291 O 0.78568 0.56443 0.49544 0.0
C292 C 0.80339 0.6338 0.44835 0.0
H293 H 0.66588 0.59618 0.45872 0.0
H294 H 0.92876 0.63586 0.50057 0.0
H295 H 0.76499 0.62401 0.56481 0.0
H296 H 0.79864 0.7224 0.53227 0.0
Co297 Co 0.62323 0.21009 0.51723 0.0
C298 C 0.65976 0.28124 0.5177 0.0
C299 C 0.60496 0.28446 0.52931 0.0
C300 C 0.62094 0.31775 0.53189 0.0
N301 N 0.62923 0.26169 0.52034 0.0
N302 N 0.65542 0.31568 0.52467 0.0
H303 H 0.68499 0.27005 0.51176 0.0
H304 H 0.57804 0.27695 0.53453 0.0
C305 C 0.55516 0.2096 0.48844 0.0
O306 O 0.56843 0.18613 0.47433 0.0
N307 N 0.617 0.15771 0.51495 0.0
C308 C 0.6432 0.13262 0.5174 0.0
C309 C 0.62815 0.09873 0.51674 0.0
C310 C 0.58592 0.13828 0.51399 0.0
N311 N 0.59213 0.10219 0.51452 0.0
C312 C 0.67784 0.19445 0.48489 0.0
C313 C 0.65165 0.23896 0.45199 0.0
C314 C 0.683 0.21867 0.44793 0.0
C315 C 0.69616 0.19644 0.46479 0.0
C316 C 0.63383 0.23577 0.47233 0.0
N317 N 0.64626 0.21269 0.48825 0.0
H318 H 0.69 0.17921 0.498 0.0
H319 H 0.61053 0.2526 0.47543 0.0
H320 H 0.67127 0.13811 0.5208 0.0
H321 H 0.55924 0.15009 0.51349 0.0
O322 O 0.66572 0.20397 0.53554 0.0
O323 O 0.60912 0.20736 0.54766 0.0
O324 O 0.57357 0.21964 0.5051 0.0
C325 C 0.64337 0.20527 0.55216 0.0
H326 H 0.60823 0.34156 0.53877 0.0
H327 H 0.64253 0.07346 0.51875 0.0
H328 H 0.64098 0.25709 0.43957 0.0
H329 H 0.72112 0.18149 0.46272 0.0
Co330 Co 0.22138 0.38399 0.487 0.0
C331 C 0.29258 0.3479 0.48324 0.0
C332 C 0.29523 0.40412 0.47458 0.0
C333 C 0.32863 0.38888 0.47106 0.0
N334 N 0.27277 0.37853 0.48237 0.0
N335 N 0.32699 0.35343 0.47638 0.0
H336 H 0.28157 0.32193 0.48797 0.0
H337 H 0.28753 0.43164 0.47093 0.0
C338 C 0.21787 0.45243 0.51532 0.0
O339 O 0.19146 0.44015 0.52775 0.0
N340 N 0.16936 0.38971 0.49103 0.0
C341 C 0.14486 0.36341 0.4948 0.0
C342 C 0.11082 0.37818 0.49488 0.0
C343 C 0.14941 0.42005 0.48801 0.0
N344 N 0.11356 0.41386 0.49073 0.0
C345 C 0.21463 0.32403 0.51657 0.0
C346 C 0.24913 0.3545 0.55232 0.0
C347 C 0.23508 0.31939 0.55435 0.0
C348 C 0.21793 0.30419 0.536 0.0
C349 C 0.24499 0.37357 0.5325 0.0
N350 N 0.22632 0.35896 0.51523 0.0
H351 H 0.20319 0.31074 0.50243 0.0
H352 H 0.25794 0.39954 0.531 0.0
H353 H 0.15054 0.33503 0.49642 0.0
H354 H 0.16092 0.44608 0.48388 0.0
O355 O 0.21384 0.34279 0.46795 0.0
O356 O 0.21649 0.39999 0.457 0.0
O357 O 0.2312 0.43299 0.49996 0.0
C358 C 0.21422 0.366 0.45182 0.0
H359 H 0.35224 0.40299 0.46498 0.0
H360 H 0.08582 0.36341 0.49708 0.0
H361 H 0.26395 0.36685 0.56572 0.0
H362 H 0.20693 0.27708 0.53654 0.0
Co363 Co 0.39014 0.78563 0.51271 0.0
C364 C 0.35333 0.71536 0.51937 0.0
C365 C 0.40961 0.71294 0.52778 0.0
C366 C 0.39407 0.68005 0.53252 0.0
N367 N 0.38416 0.73489 0.51934 0.0
N368 N 0.35861 0.68158 0.52732 0.0
H369 H 0.32739 0.72609 0.51446 0.0
H370 H 0.43729 0.72064 0.53093 0.0
C371 C 0.46198 0.78866 0.48732 0.0
O372 O 0.45347 0.81834 0.47664 0.0
N373 N 0.39613 0.83691 0.50656 0.0
C374 C 0.373 0.85875 0.49572 0.0
C375 C 0.38719 0.89306 0.49497 0.0
C376 C 0.42367 0.8587 0.51285 0.0
N377 N 0.41916 0.89306 0.5056 0.0
C378 C 0.32876 0.78355 0.48397 0.0
C379 C 0.36381 0.761 0.44619 0.0
C380 C 0.32664 0.7678 0.44538 0.0
C381 C 0.30898 0.77858 0.46465 0.0
C382 C 0.38251 0.76544 0.46605 0.0
N383 N 0.36533 0.77804 0.48452 0.0
H384 H 0.31441 0.79247 0.49846 0.0
H385 H 0.41053 0.75798 0.46628 0.0
H386 H 0.34735 0.85084 0.48888 0.0
H387 H 0.44704 0.84928 0.52189 0.0
O388 O 0.34883 0.79582 0.53133 0.0
O389 O 0.40561 0.79336 0.5427 0.0
O390 O 0.43941 0.77371 0.50044 0.0
C391 C 0.37156 0.79644 0.54764 0.0
H392 H 0.408 0.65682 0.53924 0.0
H393 H 0.37468 0.91634 0.48732 0.0
H394 H 0.37816 0.75173 0.43167 0.0
H395 H 0.28018 0.78391 0.46467 0.0
Co396 Co 0.77874 0.8944 0.75813 0.0
C397 C 0.7068 0.8604 0.76073 0.0
C398 C 0.70395 0.91786 0.76519 0.0
C399 C 0.67005 0.90349 0.76851 0.0
N400 N 0.72684 0.89082 0.76025 0.0
N401 N 0.67181 0.86726 0.76576 0.0
H402 H 0.71793 0.83378 0.75797 0.0
H403 H 0.71165 0.94587 0.76719 0.0
C404 C 0.78998 0.96223 0.72945 0.0
O405 O 0.8217 0.95245 0.72177 0.0
N406 N 0.83109 0.89788 0.75662 0.0
C407 C 0.85458 0.87058 0.75311 0.0
C408 C 0.88929 0.88352 0.75512 0.0
C409 C 0.85197 0.92685 0.76137 0.0
N410 N 0.88759 0.91892 0.76013 0.0
C411 C 0.78287 0.82966 0.73235 0.0
C412 C 0.76704 0.85978 0.69187 0.0
C413 C 0.77399 0.8225 0.69298 0.0
C414 C 0.78133 0.80752 0.71376 0.0
C415 C 0.76791 0.88082 0.711 0.0
N416 N 0.7772 0.86608 0.73088 0.0
H417 H 0.78846 0.81713 0.74803 0.0
H418 H 0.76033 0.9087 0.70948 0.0
H419 H 0.84738 0.8429 0.74979 0.0
H420 H 0.84134 0.95316 0.76574 0.0
O421 O 0.78258 0.85558 0.77945 0.0
O422 O 0.77987 0.91389 0.78763 0.0
O423 O 0.77189 0.94191 0.74243 0.0
C424 C 0.78079 0.8806 0.79444 0.0
H425 H 0.64635 0.9186 0.77342 0.0
H426 H 0.91393 0.86817 0.75283 0.0
H427 H 0.76107 0.87292 0.67635 0.0
H428 H 0.78548 0.77877 0.71584 0.0
Co429 Co 0.89247 0.21605 0.23824 0.0
C430 C 0.86035 0.28908 0.23771 0.0
C431 C 0.91812 0.29111 0.23436 0.0
C432 C 0.9049 0.32585 0.23353 0.0
N433 N 0.89021 0.26818 0.23723 0.0
N434 N 0.86863 0.32442 0.23552 0.0
H435 H 0.8332 0.27865 0.23974 0.0
H436 H 0.94607 0.28319 0.2326 0.0
C437 C 0.95866 0.20894 0.26855 0.0
O438 O 0.94275 0.18728 0.28275 0.0
N439 N 0.89516 0.16331 0.23852 0.0
C440 C 0.86806 0.14006 0.23389 0.0
C441 C 0.88133 0.10539 0.23367 0.0
C442 C 0.92498 0.14218 0.23995 0.0
N443 N 0.91713 0.10669 0.2375 0.0
C444 C 0.83547 0.19995 0.26892 0.0
C445 C 0.86096 0.24141 0.30339 0.0
C446 C 0.82811 0.22285 0.30611 0.0
C447 C 0.81559 0.20186 0.28846 0.0
C448 C 0.88021 0.23849 0.28353 0.0
N449 N 0.86793 0.21708 0.26677 0.0
H450 H 0.82389 0.18563 0.25526 0.0
H451 H 0.90448 0.25435 0.28143 0.0
H452 H 0.84073 0.14754 0.22968 0.0
H453 H 0.95207 0.15239 0.24208 0.0
O454 O 0.85078 0.21472 0.21894 0.0
O455 O 0.9082 0.21575 0.20809 0.0
O456 O 0.94188 0.2204 0.25158 0.0
C457 C 0.87417 0.21614 0.20286 0.0
H458 H 0.92063 0.35024 0.23122 0.0
H459 H 0.86605 0.08119 0.22997 0.0
H460 H 0.87126 0.25889 0.31623 0.0
H461 H 0.79038 0.18709 0.28958 0.0
Co462 Co 0.20787 0.11797 0.76499 0.0
C463 C 0.27887 0.15466 0.76588 0.0
C464 C 0.28202 0.10011 0.7779 0.0
C465 C 0.31513 0.11637 0.78079 0.0
N466 N 0.25942 0.12407 0.76848 0.0
N467 N 0.31306 0.15066 0.77329 0.0
H468 H 0.26774 0.17972 0.75965 0.0
H469 H 0.27449 0.07326 0.78323 0.0
C470 C 0.20917 0.04956 0.73686 0.0
O471 O 0.18748 0.06335 0.72192 0.0
N472 N 0.1555 0.11169 0.76251 0.0
C473 C 0.13047 0.13739 0.76685 0.0
C474 C 0.09678 0.12193 0.76764 0.0
C475 C 0.13624 0.08054 0.76134 0.0
N476 N 0.10041 0.08627 0.76415 0.0
C477 C 0.19067 0.16848 0.73063 0.0
C478 C 0.24199 0.14496 0.70073 0.0
C479 C 0.22021 0.17462 0.69523 0.0
C480 C 0.19425 0.18625 0.71046 0.0
C481 C 0.23709 0.12753 0.72102 0.0
N482 N 0.21121 0.13896 0.73557 0.0
H483 H 0.1723 0.17954 0.74258 0.0
H484 H 0.25488 0.10545 0.72529 0.0
H485 H 0.13613 0.16533 0.77064 0.0
H486 H 0.14803 0.05392 0.76008 0.0
O487 O 0.20144 0.16174 0.78202 0.0
O488 O 0.20435 0.10603 0.79569 0.0
O489 O 0.21755 0.06763 0.75401 0.0
C490 C 0.20215 0.14062 0.79923 0.0
H491 H 0.33877 0.10402 0.7881 0.0
H492 H 0.0716 0.13566 0.77121 0.0
H493 H 0.2627 0.13544 0.6895 0.0
H494 H 0.17768 0.20978 0.70714 0.0
Co495 Co 0.11558 0.78813 0.2388 0.0
C496 C 0.15103 0.71699 0.23353 0.0
C497 C 0.09685 0.71716 0.2209 0.0
C498 C 0.11216 0.68402 0.21653 0.0
N499 N 0.12119 0.73768 0.23162 0.0
N500 N 0.14617 0.68402 0.2245 0.0
H501 H 0.17617 0.72616 0.24064 0.0
H502 H 0.07017 0.72605 0.21607 0.0
C503 C 0.04401 0.79013 0.26438 0.0
O504 O 0.05267 0.81911 0.27567 0.0
N505 N 0.10963 0.83913 0.24554 0.0
C506 C 0.132 0.86061 0.2572 0.0
C507 C 0.11739 0.89471 0.25831 0.0
C508 C 0.08215 0.8609 0.2392 0.0
N509 N 0.08599 0.89487 0.24709 0.0
C510 C 0.17689 0.78589 0.2676 0.0
C511 C 0.14209 0.76089 0.30494 0.0
C512 C 0.17908 0.76853 0.30594 0.0
C513 C 0.19665 0.7805 0.28689 0.0
C514 C 0.12343 0.76576 0.28509 0.0
N515 N 0.14045 0.77961 0.26688 0.0
H516 H 0.19109 0.79579 0.25328 0.0
H517 H 0.09559 0.75768 0.28464 0.0
H518 H 0.15732 0.85264 0.26445 0.0
H519 H 0.05923 0.8517 0.22966 0.0
O520 O 0.15686 0.7987 0.22017 0.0
O521 O 0.09998 0.79697 0.20895 0.0
O522 O 0.06645 0.77592 0.25093 0.0
C523 C 0.13399 0.80004 0.20393 0.0
H524 H 0.09925 0.66161 0.20821 0.0
H525 H 0.12914 0.91774 0.26664 0.0
H526 H 0.12788 0.75072 0.3193 0.0
H527 H 0.22532 0.78645 0.28705 0.0
C528 C 0.29852 0.13373 0.90853 0.0
C529 C 0.28647 0.15359 0.9267 0.0
C530 C 0.28463 0.14038 0.88745 0.0
C531 C 0.25713 0.1667 0.88472 0.0
C532 C 0.24664 0.18849 0.9028 0.0
C533 C 0.26185 0.18193 0.92362 0.0
C534 C 0.29732 0.11722 0.86846 0.0
C535 C 0.21712 0.21642 0.90068 0.0
C536 C 0.23319 0.18246 0.82482 0.0
C537 C 0.20805 0.15468 0.82154 0.0
C538 C 0.2478 0.1888 0.84582 0.0
C539 C 0.23627 0.16728 0.86382 0.0
C540 C 0.20805 0.14184 0.86088 0.0
C541 C 0.19468 0.13544 0.83965 0.0
C542 C 0.27802 0.21589 0.8482 0.0
C543 C 0.19425 0.11901 0.87976 0.0
H544 H 0.3176 0.11184 0.911 0.0
H545 H 0.25218 0.19698 0.93779 0.0
H546 H 0.2757 0.09782 0.86391 0.0
H547 H 0.30306 0.13415 0.85375 0.0
H548 H 0.32204 0.10162 0.87264 0.0
H549 H 0.21689 0.2354 0.91486 0.0
H550 H 0.22016 0.23213 0.88519 0.0
H551 H 0.19053 0.20258 0.90007 0.0
H552 H 0.24392 0.19697 0.8107 0.0
H553 H 0.17523 0.11394 0.83701 0.0
H554 H 0.30425 0.20134 0.84865 0.0
H555 H 0.27542 0.23125 0.86382 0.0
H556 H 0.2787 0.23525 0.83418 0.0
H557 H 0.21495 0.09858 0.88422 0.0
H558 H 0.16887 0.10462 0.87546 0.0
H559 H 0.18924 0.13595 0.89454 0.0
C560 C 0.12947 0.70923 0.09031 0.0
C561 C 0.14955 0.72378 0.07288 0.0
C562 C 0.13374 0.72225 0.11186 0.0
C563 C 0.15759 0.75151 0.11583 0.0
C564 C 0.17923 0.7651 0.09841 0.0
C565 C 0.17529 0.75066 0.07713 0.0
C566 C 0.111 0.70618 0.13012 0.0
C567 C 0.20433 0.79675 0.10181 0.0
C568 C 0.12404 0.80796 0.16369 0.0
C569 C 0.14576 0.79537 0.18091 0.0
C570 C 0.12965 0.79606 0.14199 0.0
C571 C 0.15679 0.76995 0.13763 0.0
C572 C 0.18013 0.75874 0.1548 0.0
C573 C 0.17462 0.77201 0.17623 0.0
C574 C 0.10487 0.80956 0.12401 0.0
C575 C 0.20878 0.73037 0.15102 0.0
H576 H 0.1094 0.68861 0.08692 0.0
H577 H 0.19024 0.76247 0.06351 0.0
H578 H 0.12789 0.70046 0.14482 0.0
H579 H 0.08988 0.72582 0.13515 0.0
H580 H 0.09748 0.68076 0.12494 0.0
H581 H 0.22243 0.80116 0.08741 0.0
H582 H 0.18809 0.82162 0.1044 0.0
H583 H 0.22112 0.79275 0.11674 0.0
H584 H 0.10162 0.82587 0.16736 0.0
H585 H 0.19101 0.76167 0.18964 0.0
H586 H 0.08587 0.78774 0.11924 0.0
H587 H 0.12065 0.81705 0.10912 0.0
H588 H 0.08881 0.83336 0.12939 0.0
H589 H 0.19562 0.70359 0.14916 0.0
H590 H 0.22813 0.72878 0.16498 0.0
H591 H 0.22405 0.73586 0.13562 0.0
C592 C 0.73253 0.84138 0.9215 0.0
C593 C 0.70856 0.86884 0.92777 0.0
C594 C 0.7443 0.83831 0.89956 0.0
C595 C 0.73075 0.86257 0.8835 0.0
C596 C 0.70418 0.88837 0.88951 0.0
C597 C 0.69401 0.89174 0.91172 0.0
C598 C 0.77346 0.81124 0.89403 0.0
C599 C 0.68812 0.91389 0.87274 0.0
C600 C 0.78707 0.89294 0.83455 0.0
C601 C 0.77271 0.87187 0.81757 0.0
C602 C 0.77508 0.88856 0.85636 0.0
C603 C 0.74691 0.86367 0.86102 0.0
C604 C 0.7329 0.84178 0.84393 0.0
C605 C 0.74646 0.84573 0.82242 0.0
C606 C 0.79161 0.91156 0.87425 0.0
C607 C 0.7021 0.81584 0.84805 0.0
H608 H 0.74444 0.82424 0.93406 0.0
H609 H 0.67569 0.91314 0.91668 0.0
H610 H 0.76655 0.79605 0.87886 0.0
H611 H 0.79917 0.82579 0.8908 0.0
H612 H 0.77801 0.79167 0.90766 0.0
H613 H 0.66421 0.92848 0.87936 0.0
H614 H 0.70868 0.93415 0.86775 0.0
H615 H 0.67994 0.89894 0.8577 0.0
H616 H 0.80723 0.91327 0.83068 0.0
H617 H 0.73482 0.83 0.80912 0.0
H618 H 0.79938 0.89452 0.88855 0.0
H619 H 0.77148 0.93156 0.88017 0.0
H620 H 0.81589 0.92642 0.86837 0.0
H621 H 0.70846 0.79767 0.86207 0.0
H622 H 0.69592 0.79909 0.83334 0.0
H623 H 0.67749 0.8313 0.85261 0.0
C624 C 0.83955 0.27448 0.07703 0.0
C625 C 0.87027 0.29501 0.07183 0.0
C626 C 0.83373 0.26183 0.09858 0.0
C627 C 0.85875 0.27081 0.11533 0.0
C628 C 0.88821 0.29399 0.11043 0.0
C629 C 0.89397 0.3053 0.08862 0.0
C630 C 0.80252 0.23653 0.10296 0.0
C631 C 0.91492 0.30508 0.12796 0.0
C632 C 0.84049 0.25391 0.17613 0.0
C633 C 0.86352 0.22461 0.18015 0.0
C634 C 0.83735 0.2686 0.15485 0.0
C635 C 0.85692 0.25278 0.13723 0.0
C636 C 0.87788 0.22132 0.14104 0.0
C637 C 0.88154 0.20807 0.16258 0.0
C638 C 0.81545 0.30261 0.15161 0.0
C639 C 0.89826 0.20293 0.12259 0.0
H640 H 0.82148 0.26604 0.06395 0.0
H641 H 0.9177 0.3212 0.08456 0.0
H642 H 0.81303 0.20868 0.10521 0.0
H643 H 0.78817 0.24408 0.11835 0.0
H644 H 0.78282 0.23631 0.08916 0.0
H645 H 0.93317 0.32701 0.1222 0.0
H646 H 0.90055 0.31436 0.143 0.0
H647 H 0.93173 0.28147 0.13266 0.0
H648 H 0.82719 0.26711 0.1899 0.0
H649 H 0.89952 0.18554 0.16583 0.0
H650 H 0.79767 0.30014 0.13699 0.0
H651 H 0.83401 0.32565 0.14855 0.0
H652 H 0.79856 0.30903 0.16627 0.0
H653 H 0.88036 0.19881 0.10814 0.0
H654 H 0.90935 0.17632 0.12773 0.0
H655 H 0.92105 0.22032 0.11718 0.0
C656 C 0.30604 0.38107 0.33856 0.0
C657 C 0.29464 0.35834 0.32155 0.0
C658 C 0.29393 0.37562 0.36024 0.0
C659 C 0.2687 0.34768 0.36469 0.0
C660 C 0.25868 0.32346 0.34774 0.0
C661 C 0.27229 0.32876 0.32638 0.0
C662 C 0.30627 0.40125 0.37806 0.0
C663 C 0.23119 0.29397 0.35164 0.0
C664 C 0.249 0.3296 0.42507 0.0
C665 C 0.22143 0.35473 0.42906 0.0
C666 C 0.2639 0.32575 0.40391 0.0
C667 C 0.24994 0.34672 0.38635 0.0
C668 C 0.21994 0.36979 0.39004 0.0
C669 C 0.20655 0.37414 0.41151 0.0
C670 C 0.29647 0.30169 0.40083 0.0
C671 C 0.20346 0.39166 0.37157 0.0
H672 H 0.32323 0.40399 0.33475 0.0
H673 H 0.26293 0.31154 0.3131 0.0
H674 H 0.28376 0.41965 0.38256 0.0
H675 H 0.31397 0.38608 0.39313 0.0
H676 H 0.32965 0.41793 0.37267 0.0
H677 H 0.23012 0.2745 0.33773 0.0
H678 H 0.23721 0.27897 0.36705 0.0
H679 H 0.20403 0.30632 0.3536 0.0
H680 H 0.26103 0.31521 0.43882 0.0
H681 H 0.18543 0.39376 0.41475 0.0
H682 H 0.32089 0.31875 0.39863 0.0
H683 H 0.29364 0.28489 0.3858 0.0
H684 H 0.30088 0.28364 0.41523 0.0
H685 H 0.22241 0.41344 0.36658 0.0
H686 H 0.17744 0.40429 0.37653 0.0
H687 H 0.19871 0.37438 0.35692 0.0
C688 C 0.32786 0.7433 0.67356 0.0
C689 C 0.35347 0.71621 0.67767 0.0
C690 C 0.32404 0.75817 0.65237 0.0
C691 C 0.34563 0.74478 0.6349 0.0
C692 C 0.36907 0.71511 0.63866 0.0
C693 C 0.37324 0.70165 0.66013 0.0
C694 C 0.29934 0.79021 0.6492 0.0
C695 C 0.39169 0.69921 0.62031 0.0
C696 C 0.33008 0.76792 0.5747 0.0
C697 C 0.35943 0.79094 0.57053 0.0
C698 C 0.32394 0.75391 0.5959 0.0
C699 C 0.34714 0.76405 0.61336 0.0
C700 C 0.3748 0.78986 0.60955 0.0
C701 C 0.38104 0.80249 0.58805 0.0
C702 C 0.29474 0.72589 0.59911 0.0
C703 C 0.39942 0.80226 0.62787 0.0
H704 H 0.31311 0.75507 0.68726 0.0
H705 H 0.3932 0.68086 0.6634 0.0
H706 H 0.3159 0.81507 0.64747 0.0
H707 H 0.28322 0.78732 0.63391 0.0
H708 H 0.28062 0.79387 0.66337 0.0
H709 H 0.40459 0.67333 0.62525 0.0
H710 H 0.37489 0.69439 0.60546 0.0
H711 H 0.4133 0.71857 0.61564 0.0
H712 H 0.31373 0.75842 0.56106 0.0
H713 H 0.40381 0.82017 0.58477 0.0
H714 H 0.27928 0.73103 0.61448 0.0
H715 H 0.3074 0.69882 0.6007 0.0
H716 H 0.27562 0.72519 0.58501 0.0
H717 H 0.38343 0.80954 0.64272 0.0
H718 H 0.41604 0.82593 0.62291 0.0
H719 H 0.41789 0.77992 0.63255 0.0
C720 C 0.77328 0.67588 0.42236 0.0
C721 C 0.79635 0.64631 0.42572 0.0
C722 C 0.75772 0.68229 0.40163 0.0
C723 C 0.76625 0.65909 0.38384 0.0
C724 C 0.79221 0.63131 0.38674 0.0
C725 C 0.80649 0.62485 0.40778 0.0
C726 C 0.72976 0.71177 0.39936 0.0
C727 C 0.80291 0.60667 0.36799 0.0
C728 C 0.69954 0.63248 0.33966 0.0
C729 C 0.71267 0.65169 0.32147 0.0
C730 C 0.71488 0.63711 0.36058 0.0
C731 C 0.74496 0.66047 0.36309 0.0
C732 C 0.75684 0.68163 0.345 0.0
C733 C 0.74013 0.67733 0.3244 0.0
C734 C 0.70063 0.6149 0.37962 0.0
C735 C 0.78921 0.70625 0.34683 0.0
H736 H 0.76493 0.69216 0.43633 0.0
H737 H 0.82428 0.60196 0.41043 0.0
H738 H 0.73363 0.72703 0.38378 0.0
H739 H 0.70245 0.69938 0.39881 0.0
H740 H 0.73059 0.73099 0.41341 0.0
H741 H 0.82689 0.58993 0.37213 0.0
H742 H 0.7801 0.58831 0.36406 0.0
H743 H 0.80899 0.62263 0.35293 0.0
H744 H 0.67845 0.6125 0.33728 0.0
H745 H 0.75076 0.69167 0.3102 0.0
H746 H 0.6972 0.632 0.3945 0.0
H747 H 0.72033 0.59333 0.38374 0.0
H748 H 0.6743 0.60199 0.37571 0.0
H749 H 0.78825 0.72213 0.36232 0.0
H750 H 0.79113 0.72518 0.33264 0.0
H751 H 0.81419 0.68964 0.34723 0.0
C752 C 0.63924 0.19566 0.59253 0.0
C753 C 0.65563 0.21304 0.57465 0.0
C754 C 0.64291 0.20933 0.61397 0.0
C755 C 0.66199 0.2421 0.61733 0.0
C756 C 0.6804 0.25853 0.59944 0.0
C757 C 0.67742 0.2434 0.57829 0.0
C758 C 0.62396 0.19024 0.63274 0.0
C759 C 0.70022 0.29389 0.60213 0.0
C760 C 0.61951 0.29539 0.66384 0.0
C761 C 0.6432 0.28827 0.68126 0.0
C762 C 0.62689 0.2828 0.64251 0.0
C763 C 0.65806 0.26139 0.63873 0.0
C764 C 0.6831 0.25578 0.65602 0.0
C765 C 0.6757 0.26999 0.67704 0.0
C766 C 0.60012 0.29054 0.62433 0.0
C767 C 0.71616 0.23245 0.65284 0.0
H768 H 0.62213 0.17236 0.58958 0.0
H769 H 0.6894 0.25727 0.5643 0.0
H770 H 0.64195 0.18836 0.64732 0.0
H771 H 0.59971 0.20592 0.63769 0.0
H772 H 0.6152 0.16257 0.62807 0.0
H773 H 0.7178 0.29997 0.58771 0.0
H774 H 0.68024 0.31609 0.60385 0.0
H775 H 0.71702 0.2937 0.61726 0.0
H776 H 0.59451 0.30977 0.66706 0.0
H777 H 0.69414 0.26448 0.69048 0.0
H778 H 0.58535 0.2654 0.62008 0.0
H779 H 0.61434 0.29987 0.60923 0.0
H780 H 0.58003 0.31139 0.62921 0.0
H781 H 0.70772 0.20375 0.65152 0.0
H782 H 0.73538 0.2349 0.66682 0.0
H783 H 0.7304 0.23959 0.63733 0.0
C784 C 0.27521 0.9928 0.99563 0.0
C785 C 0.28837 0.0123 0.01371 0.0
C786 C 0.25639 0.9603 0.99855 0.0
C787 C 0.24996 0.94724 0.02014 0.0
C788 C 0.26491 0.96579 0.03844 0.0
C789 C 0.28426 0.9981 0.03499 0.0
C790 C 0.24154 0.94113 0.97854 0.0
C791 C 0.25843 0.95286 0.06172 0.0
C792 C 0.1624 0.89448 0.02491 0.0
C793 C 0.17449 0.85852 0.02439 0.0
C794 C 0.18682 0.92348 0.02457 0.0
C795 C 0.22441 0.91655 0.02341 0.0
C796 C 0.23697 0.88042 0.02343 0.0
C797 C 0.2119 0.85186 0.02402 0.0
C798 C 0.17225 0.96163 0.02466 0.0
C799 C 0.27682 0.87194 0.02211 0.0
H800 H 0.27865 0.00364 0.97913 0.0
H801 H 0.29419 0.01331 0.04899 0.0
H802 H 0.2482 0.91191 0.97917 0.0
H803 H 0.21165 0.94353 0.97835 0.0
H804 H 0.25228 0.95255 0.96289 0.0
H805 H 0.2757 0.9673 0.07382 0.0
H806 H 0.2297 0.95743 0.0662 0.0
H807 H 0.26365 0.92342 0.06309 0.0
H808 H 0.13371 0.90014 0.02496 0.0
H809 H 0.22173 0.82432 0.02408 0.0
H810 H 0.17821 0.97483 0.00862 0.0
H811 H 0.18568 0.97779 0.03768 0.0
H812 H 0.14257 0.96248 0.02746 0.0
H813 H 0.28758 0.88077 0.00588 0.0
H814 H 0.28239 0.84261 0.02412 0.0
H815 H 0.29183 0.88702 0.03497 0.0
C816 C 0.9881 0.71502 0.9708 0.0
C817 C 0.01447 0.73248 0.98354 0.0
C818 C 0.95402 0.73106 0.96725 0.0
C819 C 0.94633 0.76535 0.97656 0.0
C820 C 0.97296 0.78307 0.98929 0.0
C821 C 0.00651 0.76648 0.9926 0.0
C822 C 0.92624 0.71137 0.95361 0.0
C823 C 0.96611 0.81975 0.99944 0.0
C824 C 0.87637 0.8312 0.95496 0.0
C825 C 0.8496 0.82917 0.97133 0.0
C826 C 0.90689 0.80868 0.95555 0.0
C827 C 0.91084 0.78352 0.97299 0.0
C828 C 0.88279 0.77974 0.98878 0.0
C829 C 0.85248 0.80258 0.98774 0.0
C830 C 0.93596 0.81346 0.93829 0.0
C831 C 0.88591 0.75327 0.00764 0.0
H832 H 0.99394 0.68873 0.96378 0.0
H833 H 0.02665 0.78047 0.00232 0.0
H834 H 0.90147 0.7067 0.96355 0.0
H835 H 0.91834 0.72817 0.93924 0.0
H836 H 0.93635 0.68492 0.94752 0.0
H837 H 0.98962 0.82975 0.00903 0.0
H838 H 0.9599 0.83974 0.98633 0.0
H839 H 0.9423 0.81846 0.01057 0.0
H840 H 0.87389 0.8511 0.94194 0.0
H841 H 0.83197 0.80089 0.00047 0.0
H842 H 0.94474 0.78687 0.93177 0.0
H843 H 0.95993 0.82648 0.94586 0.0
H844 H 0.92675 0.83053 0.9243 0.0
H845 H 0.89483 0.72644 0.00158 0.0
H846 H 0.85993 0.75 0.01665 0.0
H847 H 0.90662 0.76299 0.01944 0.0
C848 C 0.72405 0.02403 0.02975 0.0
C849 C 0.73894 0.99616 0.01693 0.0
C850 C 0.7423 0.05718 0.03233 0.0
C851 C 0.776 0.06264 0.02169 0.0
C852 C 0.79123 0.0345 0.00892 0.0
C853 C 0.77268 1.00168 0.00681 0.0
C854 C 0.72544 0.08644 0.04628 0.0
C855 C 0.82705 0.03913 0.99722 0.0
C856 C 0.81328 0.15581 0.00806 0.0
C857 C 0.84129 0.15896 0.02347 0.0
C858 C 0.7906 0.12532 0.00791 0.0
C859 C 0.79581 0.09758 0.02374 0.0
C860 C 0.82277 0.10165 0.04008 0.0
C861 C 0.84531 0.13217 0.03965 0.0
C862 C 0.7624 0.12189 0.99008 0.0
C863 C 0.82891 0.07302 0.05744 0.0
H864 H 0.69803 0.02008 0.03763 0.0
H865 H 0.7846 0.98043 0.99691 0.0
H866 H 0.74439 0.09464 0.05952 0.0
H867 H 0.72019 0.11073 0.03603 0.0
H868 H 0.6996 0.07764 0.05396 0.0
H869 H 0.83499 0.01471 0.98773 0.0
H870 H 0.82563 0.06241 0.9857 0.0
H871 H 0.84861 0.0451 0.00937 0.0
H872 H 0.81021 0.1764 0.99549 0.0
H873 H 0.86648 0.13489 0.05186 0.0
H874 H 0.7358 0.11477 0.99735 0.0
H875 H 0.77007 0.09974 0.97867 0.0
H876 H 0.75942 0.1472 0.98037 0.0
H877 H 0.80296 0.06539 0.06537 0.0
H878 H 0.84802 0.08213 0.07041 0.0
H879 H 0.84011 0.04835 0.04959 0.0
C880 C 0.152 0.19626 0.9621 0.0
C881 C 0.15538 0.17322 0.9803 0.0
C882 C 0.12253 0.22014 0.96036 0.0
C883 C 0.09665 0.22169 0.97762 0.0
C884 C 0.10098 0.19932 0.99644 0.0
C885 C 0.12995 0.1749 0.99734 0.0
C886 C 0.11835 0.24261 0.93974 0.0
C887 C 0.07467 0.20076 0.0155 0.0
C888 C 0.0315 0.30059 0.98466 0.0
C889 C 0.99878 0.28449 0.97859 0.0
C890 C 0.0641 0.28102 0.98356 0.0
C891 C 0.06383 0.24492 0.97568 0.0
C892 C 0.03102 0.22963 0.9681 0.0
C893 C 0.99879 0.24935 0.97007 0.0
C894 C 0.09823 0.29802 0.99234 0.0
C895 C 0.02958 0.19168 0.95902 0.0
H896 H 0.17175 0.19456 0.94891 0.0
H897 H 0.13299 0.15711 0.01143 0.0
H898 H 0.09347 0.23426 0.93091 0.0
H899 H 0.1152 0.27157 0.94402 0.0
H900 H 0.14176 0.23966 0.92838 0.0
H901 H 0.08369 0.18403 0.02968 0.0
H902 H 0.0712 0.22906 0.02116 0.0
H903 H 0.0478 0.19089 0.01009 0.0
H904 H 0.03124 0.32757 0.99163 0.0
H905 H 0.97333 0.2369 0.96554 0.0
H906 H 0.12089 0.29432 0.98057 0.0
H907 H 0.10597 0.28444 0.00796 0.0
H908 H 0.09482 0.32736 0.99563 0.0
H909 H 0.05158 0.18742 0.94683 0.0
H910 H 0.00327 0.18576 0.95099 0.0
H911 H 0.03361 0.17197 0.97259 0.0
C912 C 0.17185 0.63045 0.20611 0.0
C913 C 0.17154 0.65456 0.22393 0.0
C914 C 0.19427 0.59986 0.20621 0.0
C915 C 0.21652 0.593 0.22472 0.0
C916 C 0.21742 0.61808 0.24234 0.0
C917 C 0.19505 0.6487 0.24166 0.0
C918 C 0.19295 0.57409 0.18695 0.0
C919 C 0.24047 0.61158 0.26248 0.0
C920 C 0.23562 0.49534 0.23938 0.0
C921 C 0.27192 0.49136 0.23306 0.0
C922 C 0.21735 0.52814 0.23654 0.0
C923 C 0.23559 0.55777 0.22683 0.0
C924 C 0.27187 0.55376 0.21974 0.0
C925 C 0.2897 0.52058 0.22301 0.0
C926 C 0.17866 0.53123 0.24436 0.0
C927 C 0.29199 0.58466 0.20905 0.0
H928 H 0.15418 0.63534 0.1922 0.0
H929 H 0.19471 0.6672 0.25549 0.0
H930 H 0.2207 0.56722 0.18138 0.0
H931 H 0.17971 0.54854 0.19212 0.0
H932 H 0.17772 0.58546 0.17277 0.0
H933 H 0.24061 0.63517 0.2738 0.0
H934 H 0.23004 0.58776 0.27162 0.0
H935 H 0.26871 0.60546 0.25758 0.0
H936 H 0.22136 0.47285 0.24679 0.0
H937 H 0.31771 0.51776 0.21803 0.0
H938 H 0.1609 0.5391 0.23045 0.0
H939 H 0.17649 0.55271 0.25705 0.0
H940 H 0.16836 0.50556 0.25153 0.0
H941 H 0.27647 0.59517 0.19478 0.0
H942 H 0.31935 0.57658 0.20331 0.0
H943 H 0.29486 0.6072 0.22098 0.0
C944 C 0.64973 0.80449 0.77137 0.0
C945 C 0.64262 0.84147 0.7682 0.0
C946 C 0.62152 0.77909 0.7726 0.0
C947 C 0.58526 0.79092 0.77093 0.0
C948 C 0.57782 0.82826 0.76863 0.0
C949 C 0.60648 0.85295 0.76711 0.0
C950 C 0.63057 0.73948 0.7749 0.0
C951 C 0.53949 0.84209 0.76695 0.0
C952 C 0.51078 0.73373 0.74652 0.0
C953 C 0.49058 0.72441 0.76524 0.0
C954 C 0.54307 0.75321 0.74833 0.0
C955 C 0.55508 0.7644 0.76939 0.0
C956 C 0.5358 0.75335 0.78849 0.0
C957 C 0.50378 0.73311 0.78619 0.0
C958 C 0.5631 0.76372 0.72756 0.0
C959 C 0.54752 0.76505 0.81121 0.0
H960 H 0.67734 0.79516 0.77275 0.0
H961 H 0.60039 0.88121 0.76447 0.0
H962 H 0.61486 0.72723 0.7886 0.0
H963 H 0.6229 0.72505 0.75958 0.0
H964 H 0.65981 0.73493 0.77796 0.0
H965 H 0.53813 0.87209 0.76729 0.0
H966 H 0.52718 0.83256 0.75133 0.0
H967 H 0.52286 0.83131 0.7807 0.0
H968 H 0.50059 0.72679 0.73031 0.0
H969 H 0.48793 0.72619 0.80065 0.0
H970 H 0.59236 0.7578 0.72924 0.0
H971 H 0.56028 0.79322 0.72474 0.0
H972 H 0.55265 0.74933 0.71282 0.0
H973 H 0.57698 0.76087 0.81341 0.0
H974 H 0.53285 0.7502 0.8244 0.0
H975 H 0.54216 0.79437 0.81322 0.0
C976 C 0.85377 0.38648 0.24661 0.0
C977 C 0.84414 0.35458 0.23573 0.0
C978 C 0.82978 0.41572 0.24785 0.0
C979 C 0.79552 0.41325 0.23755 0.0
C980 C 0.78616 0.38155 0.2258 0.0
C981 C 0.81046 0.35234 0.22526 0.0
C982 C 0.84064 0.44876 0.26087 0.0
C983 C 0.75029 0.37822 0.21418 0.0
C984 C 0.72595 0.47282 0.26513 0.0
C985 C 0.72867 0.50473 0.2527 0.0
C986 C 0.74588 0.44197 0.25952 0.0
C987 C 0.76878 0.44282 0.24082 0.0
C988 C 0.76924 0.47384 0.22709 0.0
C989 C 0.74926 0.50459 0.23325 0.0
C990 C 0.74457 0.40952 0.27466 0.0
C991 C 0.79268 0.47545 0.20673 0.0
H992 H 0.87972 0.38805 0.25481 0.0
H993 H 0.80332 0.32782 0.21655 0.0
H994 H 0.83857 0.4733 0.25043 0.0
H995 H 0.82195 0.45239 0.27503 0.0
H996 H 0.86868 0.44681 0.26729 0.0
H997 H 0.749 0.35379 0.20357 0.0
H998 H 0.7282 0.37665 0.22653 0.0
H999 H 0.7452 0.40245 0.20384 0.0
H1000 H 0.70968 0.47245 0.28002 0.0
H1001 H 0.75133 0.52903 0.22346 0.0
H1002 H 0.77084 0.40677 0.28331 0.0
H1003 H 0.74023 0.38441 0.26507 0.0
H1004 H 0.72282 0.4118 0.28724 0.0
H1005 H 0.82137 0.47859 0.21166 0.0
H1006 H 0.78532 0.49852 0.19589 0.0
H1007 H 0.7905 0.45001 0.19715 0.0
C1008 C 0.36726 0.17701 0.79059 0.0
C1009 C 0.34142 0.17738 0.7737 0.0
C1010 C 0.39695 0.20061 0.79021 0.0
C1011 C 0.40109 0.22504 0.77239 0.0
C1012 C 0.37415 0.22675 0.75584 0.0
C1013 C 0.34453 0.20298 0.75675 0.0
C1014 C 0.42482 0.1981 0.8083 0.0
C1015 C 0.37761 0.25227 0.73651 0.0
C1016 C 0.4732 0.29867 0.77591 0.0
C1017 C 0.50213 0.28235 0.7647 0.0
C1018 C 0.43999 0.28049 0.77856 0.0
C1019 C 0.43563 0.24533 0.76969 0.0
C1020 C 0.4647 0.22889 0.75831 0.0
C1021 C 0.49743 0.24751 0.75597 0.0
C1022 C 0.40962 0.29879 0.79088 0.0
C1023 C 0.46126 0.19151 0.7485 0.0
H1024 H 0.36451 0.15783 0.804 0.0
H1025 H 0.32467 0.20328 0.74364 0.0
H1026 H 0.4502 0.18656 0.80155 0.0
H1027 H 0.43127 0.22538 0.81477 0.0
H1028 H 0.4156 0.18079 0.8222 0.0
H1029 H 0.35258 0.2532 0.72643 0.0
H1030 H 0.38394 0.27998 0.74228 0.0
H1031 H 0.40029 0.24342 0.72579 0.0
H1032 H 0.47649 0.3256 0.78263 0.0
H1033 H 0.51927 0.23474 0.74698 0.0
H1034 H 0.40158 0.28217 0.80531 0.0
H1035 H 0.38556 0.30118 0.78008 0.0
H1036 H 0.41724 0.32619 0.79673 0.0
H1037 H 0.45491 0.17162 0.76166 0.0
H1038 H 0.48633 0.1827 0.73994 0.0
H1039 H 0.43864 0.19089 0.73651 0.0
C1040 C 0.79927 0.47989 0.5255 0.0
C1041 C 0.78288 0.50697 0.51275 0.0
C1042 C 0.78224 0.44618 0.52871 0.0
C1043 C 0.74802 0.43958 0.51901 0.0
C1044 C 0.73147 0.46684 0.50615 0.0
C1045 C 0.74904 0.50001 0.50319 0.0
C1046 C 0.80073 0.4177 0.54248 0.0
C1047 C 0.69492 0.46115 0.49561 0.0
C1048 C 0.70845 0.34645 0.50836 0.0
C1049 C 0.68186 0.34435 0.52482 0.0
C1050 C 0.73182 0.37636 0.50703 0.0
C1051 C 0.72857 0.40475 0.52258 0.0
C1052 C 0.70319 0.40168 0.53999 0.0
C1053 C 0.68018 0.37157 0.54088 0.0
C1054 C 0.75853 0.37853 0.48823 0.0
C1055 C 0.69892 0.43117 0.55699 0.0
H1056 H 0.82543 0.48493 0.53289 0.0
H1057 H 0.7359 0.52068 0.49342 0.0
H1058 H 0.78358 0.41065 0.55688 0.0
H1059 H 0.80437 0.39266 0.53267 0.0
H1060 H 0.82757 0.42674 0.54853 0.0
H1061 H 0.68602 0.48491 0.48581 0.0
H1062 H 0.69574 0.43723 0.4846 0.0
H1063 H 0.67434 0.45571 0.50853 0.0
H1064 H 0.70987 0.32554 0.4959 0.0
H1065 H 0.66031 0.36965 0.55397 0.0
H1066 H 0.78561 0.3865 0.49437 0.0
H1067 H 0.74968 0.39959 0.47637 0.0
H1068 H 0.76097 0.35246 0.47928 0.0
H1069 H 0.7256 0.439 0.56378 0.0
H1070 H 0.68103 0.42285 0.57083 0.0
H1071 H 0.68713 0.45553 0.54909 0.0
C1072 C 0.50857 0.25553 0.49844 0.0
C1073 C 0.51904 0.22637 0.48506 0.0
C1074 C 0.47531 0.27292 0.49558 0.0
C1075 C 0.45136 0.26077 0.47903 0.0
C1076 C 0.46125 0.23092 0.46566 0.0
C1077 C 0.49514 0.21417 0.46874 0.0
C1078 C 0.46617 0.30486 0.51009 0.0
C1079 C 0.43618 0.21693 0.44803 0.0
C1080 C 0.35602 0.29608 0.48805 0.0
C1081 C 0.35611 0.3274 0.47495 0.0
C1082 C 0.3859 0.27255 0.48835 0.0
C1083 C 0.4168 0.2807 0.47544 0.0
C1084 C 0.41626 0.31113 0.46128 0.0
C1085 C 0.3859 0.33388 0.46109 0.0
C1086 C 0.38515 0.24009 0.50344 0.0
C1087 C 0.44865 0.32101 0.44732 0.0
H1088 H 0.52667 0.26535 0.51109 0.0
H1089 H 0.50286 0.19157 0.45839 0.0
H1090 H 0.4621 0.3293 0.49977 0.0
H1091 H 0.44053 0.29975 0.51908 0.0
H1092 H 0.48766 0.31068 0.52235 0.0
H1093 H 0.44692 0.19228 0.43988 0.0
H1094 H 0.40935 0.21061 0.45528 0.0
H1095 H 0.43194 0.23806 0.43531 0.0
H1096 H 0.33328 0.29066 0.49881 0.0
H1097 H 0.38596 0.35728 0.45038 0.0
H1098 H 0.40307 0.24504 0.51778 0.0
H1099 H 0.39549 0.21579 0.49478 0.0
H1100 H 0.3575 0.23433 0.5097 0.0
H1101 H 0.47113 0.32973 0.45817 0.0
H1102 H 0.44263 0.34326 0.43557 0.0
H1103 H 0.45824 0.29722 0.43787 0.0
C1104 C 0.30158 0.65188 0.51594 0.0
C1105 C 0.33243 0.65272 0.52937 0.0
C1106 C 0.27826 0.62187 0.51598 0.0
C1107 C 0.28616 0.59179 0.52962 0.0
C1108 C 0.31588 0.59347 0.54425 0.0
C1109 C 0.33847 0.62395 0.54404 0.0
C1110 C 0.2466 0.62139 0.50033 0.0
C1111 C 0.32538 0.56202 0.55903 0.0
C1112 C 0.22038 0.51255 0.53508 0.0
C1113 C 0.23427 0.48855 0.51928 0.0
C1114 C 0.23654 0.54662 0.53854 0.0
C1115 C 0.26735 0.55667 0.526 0.0
C1116 C 0.28125 0.53258 0.51001 0.0
C1117 C 0.26456 0.49908 0.50685 0.0
C1118 C 0.22083 0.57177 0.55561 0.0
C1119 C 0.31414 0.54198 0.4963 0.0
H1120 H 0.2965 0.67386 0.50456 0.0
H1121 H 0.36152 0.6247 0.55499 0.0
H1122 H 0.25276 0.60319 0.48628 0.0
H1123 H 0.22208 0.61077 0.50865 0.0
H1124 H 0.24057 0.64872 0.49367 0.0
H1125 H 0.3463 0.56927 0.57138 0.0
H1126 H 0.30105 0.55204 0.56785 0.0
H1127 H 0.33583 0.53941 0.54884 0.0
H1128 H 0.19694 0.50478 0.54472 0.0
H1129 H 0.27565 0.48097 0.49459 0.0
H1130 H 0.21419 0.59819 0.54795 0.0
H1131 H 0.24108 0.57701 0.56869 0.0
H1132 H 0.19603 0.56057 0.5634 0.0
H1133 H 0.30916 0.56717 0.48685 0.0
H1134 H 0.32144 0.52023 0.48449 0.0
H1135 H 0.33763 0.54698 0.50723 0.0
C1136 C 0.50356 0.73618 0.49275 0.0
C1137 C 0.4972 0.77034 0.48341 0.0
C1138 C 0.5366 0.7183 0.48989 0.0
C1139 C 0.56425 0.73477 0.47726 0.0
C1140 C 0.55812 0.76914 0.46761 0.0
C1141 C 0.52463 0.78656 0.47079 0.0
C1142 C 0.54185 0.68165 0.50045 0.0
C1143 C 0.58697 0.78748 0.45399 0.0
C1144 C 0.65751 0.69629 0.48899 0.0
C1145 C 0.66055 0.66976 0.47259 0.0
C1146 C 0.62717 0.71911 0.49001 0.0
C1147 C 0.59927 0.71541 0.4742 0.0
C1148 C 0.60315 0.68998 0.45693 0.0
C1149 C 0.63368 0.66745 0.45636 0.0
C1150 C 0.62407 0.74579 0.50873 0.0
C1151 C 0.57423 0.68532 0.43963 0.0
H1152 H 0.48261 0.72314 0.50236 0.0
H1153 H 0.52004 0.81293 0.46353 0.0
H1154 H 0.5477 0.66115 0.48759 0.0
H1155 H 0.56539 0.68235 0.51175 0.0
H1156 H 0.51773 0.67272 0.50995 0.0
H1157 H 0.57795 0.81408 0.44749 0.0
H1158 H 0.61158 0.79161 0.46409 0.0
H1159 H 0.59472 0.77001 0.43989 0.0
H1160 H 0.67809 0.69816 0.50162 0.0
H1161 H 0.63626 0.64758 0.44336 0.0
H1162 H 0.60243 0.73694 0.52023 0.0
H1163 H 0.61641 0.77286 0.5024 0.0
H1164 H 0.64968 0.74826 0.51815 0.0
H1165 H 0.54971 0.67343 0.44731 0.0
H1166 H 0.58311 0.66738 0.42597 0.0
H1167 H 0.56642 0.7119 0.43262 0.0
C1168 C 0.79391 0.02904 0.72337 0.0
C1169 C 0.77363 0.99708 0.72313 0.0
C1170 C 0.77665 0.06293 0.72224 0.0
C1171 C 0.73845 0.06456 0.72047 0.0
C1172 C 0.71843 0.03217 0.71821 0.0
C1173 C 0.73621 0.99886 0.71985 0.0
C1174 C 0.79897 0.09676 0.72486 0.0
C1175 C 0.67779 0.03253 0.71587 0.0
C1176 C 0.68336 0.1356 0.75017 0.0
C1177 C 0.67153 0.15751 0.73278 0.0
C1178 C 0.70697 0.10666 0.74646 0.0
C1179 C 0.71866 0.09897 0.7247 0.0
C1180 C 0.70806 0.12199 0.70715 0.0
C1181 C 0.68479 0.1513 0.71146 0.0
C1182 C 0.71807 0.08332 0.76576 0.0
C1183 C 0.71966 0.11459 0.68373 0.0
H1184 H 0.82285 0.02762 0.72604 0.0
H1185 H 0.72057 0.97407 0.71949 0.0
H1186 H 0.78987 0.11809 0.71326 0.0
H1187 H 0.79544 0.10739 0.74183 0.0
H1188 H 0.8282 0.09153 0.72209 0.0
H1189 H 0.667 0.00565 0.71105 0.0
H1190 H 0.66532 0.04033 0.73183 0.0
H1191 H 0.66934 0.05274 0.70338 0.0
H1192 H 0.67372 0.14096 0.76673 0.0
H1193 H 0.67566 0.16839 0.69804 0.0
H1194 H 0.74783 0.07966 0.76592 0.0
H1195 H 0.70567 0.05615 0.76416 0.0
H1196 H 0.70957 0.09504 0.78181 0.0
H1197 H 0.74905 0.10878 0.68295 0.0
H1198 H 0.71352 0.13764 0.67259 0.0
H1199 H 0.7053 0.09032 0.67755 0.0
C1200 C 0.12243 0.33734 0.29168 0.0
C1201 C 0.15572 0.32694 0.2824 0.0
C1202 C 0.09279 0.31371 0.29219 0.0
C1203 C 0.0965 0.27829 0.28374 0.0
C1204 C 0.1307 0.26642 0.27619 0.0
C1205 C 0.15975 0.29092 0.27537 0.0
C1206 C 0.05674 0.32765 0.30028 0.0
C1207 C 0.1361 0.22849 0.26765 0.0
C1208 C 0.01434 0.21729 0.29212 0.0
C1209 C 0.99598 0.22253 0.27215 0.0
C1210 C 0.04819 0.23371 0.29587 0.0
C1211 C 0.0635 0.25633 0.27942 0.0
C1212 C 0.04571 0.26038 0.25895 0.0
C1213 C 0.01261 0.24309 0.25549 0.0
C1214 C 0.0669 0.22787 0.31766 0.0
C1215 C 0.06077 0.28439 0.24094 0.0
H1216 H 0.11879 0.36442 0.29792 0.0
H1217 H 0.1851 0.2819 0.26842 0.0
H1218 H 0.03789 0.33008 0.28614 0.0
H1219 H 0.04453 0.30844 0.3122 0.0
H1220 H 0.05905 0.35452 0.30831 0.0
H1221 H 0.16519 0.22122 0.26662 0.0
H1222 H 0.1221 0.20859 0.27839 0.0
H1223 H 0.12429 0.22623 0.25091 0.0
H1224 H 1.00192 0.20118 0.30501 0.0
H1225 H 0.99925 0.24665 0.23976 0.0
H1226 H 0.0644 0.2526 0.32787 0.0
H1227 H 0.09616 0.2227 0.31513 0.0
H1228 H 0.05501 0.20489 0.32699 0.0
H1229 H 0.06258 0.31265 0.24696 0.0
H1230 H 0.04384 0.28412 0.22583 0.0
H1231 H 0.08848 0.27566 0.23643 0.0
C1232 C 0.29738 0.85101 0.73483 0.0
C1233 C 0.33054 0.85253 0.72353 0.0
C1234 C 0.27369 0.88073 0.73505 0.0
C1235 C 0.2835 0.91297 0.72394 0.0
C1236 C 0.31603 0.91408 0.71163 0.0
C1237 C 0.33895 0.88384 0.71145 0.0
C1238 C 0.23904 0.87825 0.74815 0.0
C1239 C 0.32768 0.94795 0.69963 0.0
C1240 C 0.21714 0.99104 0.71596 0.0
C1241 C 0.22625 0.01353 0.73373 0.0
C1242 C 0.2348 0.95765 0.71279 0.0
C1243 C 0.26248 0.94686 0.72755 0.0
C1244 C 0.27135 0.96927 0.74562 0.0
C1245 C 0.25303 1.00202 0.74855 0.0
C1246 C 0.22423 0.93417 0.69353 0.0
C1247 C 0.30089 0.95911 0.76166 0.0
H1248 H 0.29045 0.82715 0.74427 0.0
H1249 H 0.36389 0.88511 0.70213 0.0
H1250 H 0.24142 0.89486 0.7633 0.0
H1251 H 0.21605 0.88912 0.73847 0.0
H1252 H 0.23276 0.85001 0.75309 0.0
H1253 H 0.35194 0.94342 0.68917 0.0
H1254 H 0.30548 0.95819 0.68907 0.0
H1255 H 0.33403 0.96938 0.71181 0.0
H1256 H 0.19641 0.99956 0.70448 0.0
H1257 H 0.26035 0.01898 0.76237 0.0
H1258 H 0.2176 0.9065 0.69934 0.0
H1259 H 0.2473 0.93175 0.68192 0.0
H1260 H 0.20063 0.94519 0.68444 0.0
H1261 H 0.29484 0.93255 0.76933 0.0
H1262 H 0.30424 0.9794 0.77499 0.0
H1263 H 0.327 0.95641 0.75277 0.0
C1264 C 0.98264 0.78526 0.28244 0.0
C1265 C 0.0088 0.7716 0.26787 0.0
C1266 C 0.94931 0.7674 0.2854 0.0
C1267 C 0.94208 0.73526 0.27349 0.0
C1268 C 0.96842 0.72143 0.25882 0.0
C1269 C 1.0013 0.73968 0.25623 0.0
C1270 C 0.92185 0.78286 0.30121 0.0
C1271 C 0.96191 0.68726 0.24577 0.0
C1272 C 0.87394 0.66406 0.29085 0.0
C1273 C 0.84595 0.66993 0.2757 0.0
C1274 C 0.90446 0.68661 0.2913 0.0
C1275 C 0.90717 0.7156 0.27611 0.0
C1276 C 0.87816 0.72274 0.26153 0.0
C1277 C 0.84785 0.69988 0.26156 0.0
C1278 C 0.9346 0.67826 0.30726 0.0
C1279 C 0.88003 0.75322 0.245 0.0
H1280 H 0.98812 0.80989 0.29149 0.0
H1281 H 0.0212 0.72871 0.24496 0.0
H1282 H 0.89644 0.78912 0.29231 0.0
H1283 H 0.91517 0.76262 0.3141 0.0
H1284 H 0.93167 0.80787 0.30936 0.0
H1285 H 0.98513 0.68023 0.23495 0.0
H1286 H 0.95687 0.66431 0.25715 0.0
H1287 H 0.9375 0.69042 0.23535 0.0
H1288 H 0.87224 0.64142 0.30214 0.0
H1289 H 0.82637 0.70446 0.24976 0.0
H1290 H 0.94328 0.70315 0.31595 0.0
H1291 H 0.95834 0.66783 0.29805 0.0
H1292 H 0.92651 0.65774 0.31971 0.0
H1293 H 0.88849 0.77867 0.25314 0.0
H1294 H 0.85372 0.75781 0.23665 0.0
H1295 H 0.90062 0.74681 0.23226 0.0
C1296 C 0.42528 0.03027 0.98198 0.0
C1297 C 0.43047 0.06782 0.98048 0.0
C1298 C 0.45482 0.00626 0.98198 0.0
C1299 C 0.49053 0.02003 0.9808 0.0
C1300 C 0.49592 0.05769 0.97845 0.0
C1301 C 0.46594 0.08097 0.97806 0.0
C1302 C 0.44785 0.96621 0.98411 0.0
C1303 C 0.53347 0.07365 0.97739 0.0
C1304 C 0.56442 0.96543 0.00882 0.0
C1305 C 0.58272 0.95011 0.99086 0.0
C1306 C 0.53465 0.98834 0.00571 0.0
C1307 C 0.52224 0.9956 0.98407 0.0
C1308 C 0.54061 0.98015 0.96581 0.0
C1309 C 0.57097 0.95791 0.96943 0.0
C1310 C 0.51657 0.00492 0.02563 0.0
C1311 C 0.52784 0.98665 0.94253 0.0
H1312 H 0.39825 0.01956 0.98392 0.0
H1313 H 0.47054 0.10969 0.97626 0.0
H1314 H 0.46358 0.95109 0.97155 0.0
H1315 H 0.45691 0.95671 0.00055 0.0
H1316 H 0.41876 0.95947 0.98221 0.0
H1317 H 0.53309 0.10323 0.97426 0.0
H1318 H 0.54765 0.06864 0.99321 0.0
H1319 H 0.5495 0.06042 0.9642 0.0
H1320 H 0.57379 0.95972 0.02538 0.0
H1321 H 0.58496 0.94578 0.95557 0.0
H1322 H 0.48786 0.99636 0.02644 0.0
H1323 H 0.51688 0.03482 0.02425 0.0
H1324 H 0.52999 0.9971 0.0413 0.0
H1325 H 0.49947 0.97735 0.94079 0.0
H1326 H 0.5448 0.97238 0.93016 0.0
H1327 H 0.52821 0.01599 0.93877 0.0
C1328 C 0.07651 0.5526 0.99993 0.0
C1329 C 0.07043 0.58332 0.01303 0.0
C1330 C 0.05325 0.52265 0.00074 0.0
C1331 C 0.0229 0.52321 0.01498 0.0
C1332 C 0.01669 0.55393 0.02843 0.0
C1333 C 0.04045 0.58365 0.02725 0.0
C1334 C 0.06072 0.49071 0.98592 0.0
C1335 C 0.98469 0.55556 0.04386 0.0
C1336 C 0.94386 0.4635 0.99846 0.0
C1337 C 0.94844 0.43306 0.01204 0.0
C1338 C 0.96745 0.49314 0.99958 0.0
C1339 C 0.99659 0.49255 0.01465 0.0
C1340 C 1.0014 0.46202 0.0285 0.0
C1341 C 0.97736 0.43258 0.02698 0.0
C1342 C 0.96151 0.52486 0.98429 0.0
C1343 C 0.0321 0.46039 0.04482 0.0
H1344 H 0.09913 0.55221 0.98859 0.0
H1345 H 0.03571 0.60702 0.03759 0.0
H1346 H 0.06219 0.46552 0.99581 0.0
H1347 H 0.03825 0.48742 0.974 0.0
H1348 H 0.08636 0.49377 0.97654 0.0
H1349 H 0.98462 0.58052 0.05403 0.0
H1350 H 0.95924 0.55458 0.03423 0.0
H1351 H 0.98473 0.53175 0.055 0.0
H1352 H 0.9221 0.46393 0.98656 0.0
H1353 H 0.98094 0.40937 0.03765 0.0
H1354 H 0.98516 0.52804 0.97318 0.0
H1355 H 0.95899 0.55018 0.99395 0.0
H1356 H 0.93689 0.52165 0.97402 0.0
H1357 H 0.05832 0.46145 0.03594 0.0
H1358 H 0.03135 0.43542 0.05501 0.0
H1359 H 0.03106 0.48418 0.05593 0.0
C1360 C 0.57532 0.53192 0.2666 0.0
C1361 C 0.57006 0.56873 0.26167 0.0
C1362 C 0.54621 0.50751 0.26731 0.0
C1363 C 0.51084 0.51983 0.26262 0.0
C1364 C 0.50506 0.5569 0.25808 0.0
C1365 C 0.53456 0.58087 0.25786 0.0
C1366 C 0.55351 0.46825 0.27249 0.0
C1367 C 0.4678 0.57111 0.25277 0.0
C1368 C 0.44527 0.45063 0.23933 0.0
C1369 C 0.42338 0.44274 0.25762 0.0
C1370 C 0.47344 0.47592 0.24071 0.0
C1371 C 0.48034 0.49351 0.261 0.0
C1372 C 0.45833 0.48569 0.27956 0.0
C1373 C 0.42987 0.46063 0.27759 0.0
C1374 C 0.49575 0.4839 0.22039 0.0
C1375 C 0.46515 0.50344 0.30156 0.0
H1376 H 0.60225 0.52166 0.26944 0.0
H1377 H 0.5296 0.60911 0.25445 0.0
H1378 H 0.53522 0.45875 0.28581 0.0
H1379 H 0.54797 0.4515 0.25771 0.0
H1380 H 0.58191 0.46352 0.27767 0.0
H1381 H 0.46751 0.60091 0.2505 0.0
H1382 H 0.45778 0.55828 0.23742 0.0
H1383 H 0.44857 0.56396 0.26613 0.0
H1384 H 0.43994 0.43738 0.22376 0.0
H1385 H 0.4131 0.45444 0.29177 0.0
H1386 H 0.52448 0.477 0.22345 0.0
H1387 H 0.49459 0.5132 0.21653 0.0
H1388 H 0.48634 0.46855 0.20575 0.0
H1389 H 0.49291 0.49701 0.30726 0.0
H1390 H 0.44559 0.49452 0.31438 0.0
H1391 H 0.4634 0.53324 0.29989 0.0
C1392 C 0.52557 0.42571 0.72779 0.0
C1393 C 0.56234 0.43115 0.73258 0.0
C1394 C 0.50127 0.45498 0.72656 0.0
C1395 C 0.51374 0.49057 0.73065 0.0
C1396 C 0.55095 0.49642 0.73459 0.0
C1397 C 0.57475 0.46685 0.73517 0.0
C1398 C 0.46195 0.44762 0.72175 0.0
C1399 C 0.56544 0.53379 0.73934 0.0
C1400 C 0.45645 0.57366 0.71714 0.0
C1401 C 0.43959 0.58032 0.73744 0.0
C1402 C 0.47999 0.54403 0.71445 0.0
C1403 C 0.48763 0.52125 0.7327 0.0
C1404 C 0.47106 0.52841 0.75332 0.0
C1405 C 0.44693 0.55751 0.75534 0.0
C1406 C 0.49634 0.53682 0.69207 0.0
C1407 C 0.47914 0.50558 0.77338 0.0
H1408 H 0.51534 0.39854 0.72573 0.0
H1409 H 0.60309 0.47188 0.7382 0.0
H1410 H 0.44563 0.45231 0.73684 0.0
H1411 H 0.45188 0.46641 0.70887 0.0
H1412 H 0.45736 0.4194 0.71617 0.0
H1413 H 0.59534 0.53409 0.74102 0.0
H1414 H 0.5577 0.5528 0.72602 0.0
H1415 H 0.55338 0.54408 0.75488 0.0
H1416 H 0.45044 0.59112 0.70327 0.0
H1417 H 0.43413 0.56291 0.77108 0.0
H1418 H 0.48936 0.50906 0.68663 0.0
H1419 H 0.52623 0.53836 0.693 0.0
H1420 H 0.48681 0.55634 0.67942 0.0
H1421 H 0.47143 0.47707 0.77026 0.0
H1422 H 0.46454 0.51514 0.7883 0.0
H1423 H 0.5086 0.50597 0.77682 0.0
C1424 C 0.96303 0.5661 0.50247 0.0
C1425 C 0.93422 0.56211 0.48762 0.0
C1426 C 0.9928 0.54257 0.50215 0.0
C1427 C 0.99404 0.51418 0.48655 0.0
C1428 C 0.96518 0.51003 0.4714 0.0
C1429 C 0.93554 0.53393 0.47218 0.0
C1430 C 0.02265 0.54776 0.51881 0.0
C1431 C 0.96553 0.48017 0.45447 0.0
C1432 C 0.08602 0.4703 0.47624 0.0
C1433 C 0.08389 0.43928 0.48952 0.0
C1434 C 0.05679 0.49461 0.47476 0.0
C1435 C 0.02472 0.48789 0.48695 0.0
C1436 C 0.0225 0.45667 0.5004 0.0
C1437 C 0.05199 0.43288 0.50151 0.0
C1438 C 0.06023 0.52757 0.46022 0.0
C1439 C 0.98907 0.44861 0.51388 0.0
H1440 H 0.96202 0.5873 0.51474 0.0
H1441 H 0.9136 0.53083 0.46053 0.0
H1442 H 0.0246 0.52356 0.52957 0.0
H1443 H 0.04903 0.55076 0.51027 0.0
H1444 H 0.01819 0.57186 0.52938 0.0
H1445 H 0.94178 0.4814 0.44331 0.0
H1446 H 0.99054 0.48179 0.44439 0.0
H1447 H 0.96564 0.45352 0.46287 0.0
H1448 H 0.11034 0.47533 0.46676 0.0
H1449 H 0.05024 0.4094 0.51213 0.0
H1450 H 0.05774 0.55241 0.47034 0.0
H1451 H 0.03797 0.52805 0.44799 0.0
H1452 H 0.08645 0.52839 0.45128 0.0
H1453 H 0.98437 0.47066 0.52594 0.0
H1454 H 0.99123 0.42267 0.52303 0.0
H1455 H 0.96501 0.44738 0.50302 0.0
C1456 C 0.57635 0.03966 0.50416 0.0
C1457 C 0.56632 0.07288 0.51353 0.0
C1458 C 0.55226 0.01036 0.50345 0.0
C1459 C 0.51713 0.01411 0.51245 0.0
C1460 C 0.50673 0.04757 0.52193 0.0
C1461 C 0.53137 0.07662 0.52225 0.0
C1462 C 0.56436 0.97545 0.49286 0.0
C1463 C 0.46959 0.05263 0.5318 0.0
C1464 C 0.44483 0.94999 0.49108 0.0
C1465 C 0.44368 0.92333 0.50758 0.0
C1466 C 0.4682 0.97978 0.49262 0.0
C1467 C 0.49105 0.98331 0.51119 0.0
C1468 C 0.48995 0.95663 0.52799 0.0
C1469 C 0.46644 0.92686 0.52593 0.0
C1470 C 0.46884 0.00721 0.47415 0.0
C1471 C 0.51371 0.95949 0.54811 0.0
H1472 H 0.60308 0.03671 0.49707 0.0
H1473 H 0.52353 0.10203 0.5297 0.0
H1474 H 0.56211 0.9529 0.50485 0.0
H1475 H 0.5465 0.96889 0.47874 0.0
H1476 H 0.5927 0.97679 0.48683 0.0
H1477 H 0.46592 0.07999 0.53898 0.0
H1478 H 0.44867 0.04838 0.51898 0.0
H1479 H 0.4649 0.03218 0.54489 0.0
H1480 H 0.42784 0.94721 0.47667 0.0
H1481 H 0.46548 0.90659 0.53882 0.0
H1482 H 0.49614 0.00805 0.46656 0.0
H1483 H 0.46312 0.03458 0.48073 0.0
H1484 H 0.44879 1.00101 0.46107 0.0
H1485 H 0.54256 0.95881 0.54312 0.0
H1486 H 0.50874 0.93726 0.56007 0.0
H1487 H 0.50897 0.9857 0.5565 0.0
C1488 C 0.91673 0.97772 0.75289 0.0
C1489 C 0.91785 0.94316 0.76232 0.0
C1490 C 0.9472 1.00044 0.75328 0.0
C1491 C 0.97928 0.98864 0.76385 0.0
C1492 C 0.98014 0.9541 0.77393 0.0
C1493 C 0.94958 0.93162 0.77279 0.0
C1494 C 0.94531 0.03677 0.74198 0.0
C1495 C 0.01334 0.94087 0.78592 0.0
C1496 C 0.06885 0.03341 0.7486 0.0
C1497 C 0.07174 0.05997 0.76493 0.0
C1498 C 0.03889 0.00996 0.74802 0.0
C1499 C 0.01178 0.01257 0.76452 0.0
C1500 C 0.01543 0.03851 0.78152 0.0
C1501 C 0.04509 0.06218 0.78133 0.0
C1502 C 0.0357 0.98317 0.72938 0.0
C1503 C 0.98781 0.04153 0.79979 0.0
H1504 H 0.89235 0.98643 0.74455 0.0
H1505 H 0.95033 0.90498 0.78021 0.0
H1506 H 0.95057 0.05866 0.75404 0.0
H1507 H 0.96657 0.03855 0.72909 0.0
H1508 H 0.91859 0.04167 0.73419 0.0
H1509 H 0.0092 0.91386 0.79354 0.0
H1510 H 0.03651 0.9392 0.77433 0.0
H1511 H 0.02088 0.96033 0.79905 0.0
H1512 H 0.08934 0.03201 0.73584 0.0
H1513 H 0.04759 0.08254 0.79407 0.0
H1514 H 0.01066 0.98859 0.71988 0.0
H1515 H 0.03354 0.95531 0.73602 0.0
H1516 H 0.05916 0.98439 0.71793 0.0
H1517 H 0.96128 0.04955 0.79286 0.0
H1518 H 0.99573 0.06167 0.81247 0.0
H1519 H 0.9841 0.01491 0.80794 0.0
C1520 C 0.97761 0.07978 0.23129 0.0
C1521 C 0.94157 0.07627 0.2382 0.0
C1522 C 1.00136 0.05008 0.23175 0.0
C1523 C 0.98889 0.01615 0.23954 0.0
C1524 C 0.95255 0.01249 0.24654 0.0
C1525 C 0.92937 0.0425 0.24571 0.0
C1526 C 0.03983 0.05502 0.22398 0.0
C1527 C 0.93828 0.97699 0.25526 0.0
C1528 C 0.04082 0.9299 0.2259 0.0
C1529 C 0.0613 0.9249 0.24509 0.0
C1530 C 0.01747 0.95973 0.2237 0.0
C1531 C 0.01415 0.98482 0.24125 0.0
C1532 C 0.03449 0.9796 0.26074 0.0
C1533 C 0.05788 0.94987 0.26237 0.0
C1534 C 0.9965 0.96453 0.20258 0.0
C1535 C 0.03134 0.0053 0.27999 0.0
H1536 H 0.98711 0.10562 0.22521 0.0
H1537 H 0.90171 0.03971 0.25135 0.0
H1538 H 0.05877 0.04959 0.23775 0.0
H1539 H 0.04607 0.03533 0.21072 0.0
H1540 H 0.04496 0.08274 0.21765 0.0
H1541 H 0.90914 0.97841 0.25963 0.0
H1542 H 0.9421 0.95541 0.24279 0.0
H1543 H 0.95369 0.96891 0.27016 0.0
H1544 H 0.04361 0.91085 0.21246 0.0
H1545 H 0.07319 0.94582 0.27737 0.0
H1546 H 1.00289 0.99119 0.19513 0.0
H1547 H 0.96707 0.96421 0.20611 0.0
H1548 H 1.00261 0.94306 0.19033 0.0
H1549 H 0.03866 0.03307 0.27471 0.0
H1550 H 0.04902 0.99742 0.29398 0.0
H1551 H 1.00295 0.00616 0.28591 0.0
C1552 C 0.29472 0.26194 0.17502 0.0
C1553 C 0.2748 0.2942 0.17659 0.0
C1554 C 0.2946 0.24122 0.15566 0.0
C1555 C 0.27499 0.2535 0.13712 0.0
C1556 C 0.25471 0.28585 0.13852 0.0
C1557 C 0.25445 0.30551 0.15831 0.0
C1558 C 0.31602 0.20648 0.15495 0.0
C1559 C 0.23395 0.30016 0.11894 0.0
C1560 C 0.3074 0.22163 0.08102 0.0
C1561 C 0.28115 0.19581 0.07539 0.0
C1562 C 0.30541 0.24085 0.10089 0.0
C1563 C 0.27709 0.23339 0.11592 0.0
C1564 C 0.25097 0.20681 0.1107 0.0
C1565 C 0.25303 0.18869 0.09039 0.0
C1566 C 0.33351 0.26938 0.10572 0.0
C1567 C 0.22082 0.19756 0.12655 0.0
H1568 H 0.31115 0.25311 0.18878 0.0
H1569 H 0.23831 0.32987 0.15936 0.0
H1570 H 0.2987 0.18397 0.14911 0.0
H1571 H 0.33872 0.2092 0.14309 0.0
H1572 H 0.32728 0.19914 0.17132 0.0
H1573 H 0.21929 0.3256 0.12278 0.0
H1574 H 0.25282 0.30537 0.10504 0.0
H1575 H 0.21412 0.27975 0.11324 0.0
H1576 H 0.32976 0.22685 0.06991 0.0
H1577 H 0.23222 0.1693 0.08619 0.0
H1578 H 0.34873 0.26211 0.12082 0.0
H1579 H 0.32015 0.29574 0.10886 0.0
H1580 H 0.35306 0.27281 0.09194 0.0
H1581 H 0.23224 0.18969 0.14277 0.0
H1582 H 0.20359 0.17514 0.12043 0.0
H1583 H 0.20351 0.22161 0.12932 0.0
C1584 C 0.272 0.75679 0.82641 0.0
C1585 C 0.30416 0.73693 0.82503 0.0
C1586 C 0.25245 0.75867 0.84627 0.0
C1587 C 0.26486 0.73936 0.86497 0.0
C1588 C 0.2975 0.7194 0.86363 0.0
C1589 C 0.317 0.71882 0.84372 0.0
C1590 C 0.21833 0.78101 0.84717 0.0
C1591 C 0.31125 0.69779 0.88301 0.0
C1592 C 0.2307 0.76265 0.92252 0.0
C1593 C 0.20316 0.73713 0.92539 0.0
C1594 C 0.2505 0.76427 0.90273 0.0
C1595 C 0.24316 0.73907 0.88573 0.0
C1596 C 0.21534 0.71314 0.88869 0.0
C1597 C 0.19536 0.7128 0.90842 0.0
C1598 C 0.27928 0.79286 0.90003 0.0
C1599 C 0.20718 0.6853 0.87121 0.0
H1600 H 0.26222 0.77092 0.81193 0.0
H1601 H 0.34174 0.70321 0.84253 0.0
H1602 H 0.19471 0.76321 0.85021 0.0
H1603 H 0.21972 0.80046 0.86106 0.0
H1604 H 0.21365 0.79628 0.83165 0.0
H1605 H 0.33719 0.68391 0.87931 0.0
H1606 H 0.31523 0.71567 0.89746 0.0
H1607 H 0.29091 0.67714 0.88777 0.0
H1608 H 0.23657 0.78147 0.93574 0.0
H1609 H 0.17417 0.69292 0.91083 0.0
H1610 H 0.27407 0.80895 0.88491 0.0
H1611 H 0.30612 0.77991 0.89799 0.0
H1612 H 0.28047 0.81148 0.91437 0.0
H1613 H 0.19939 0.69887 0.85561 0.0
H1614 H 0.18502 0.66672 0.8762 0.0
H1615 H 0.23174 0.66904 0.86774 0.0
C1616 C 0.69997 0.77322 0.0763 0.0
C1617 C 0.72845 0.79749 0.07229 0.0
C1618 C 0.69868 0.75234 0.09563 0.0
C1619 C 0.72629 0.75605 0.11158 0.0
C1620 C 0.75521 0.78034 0.10767 0.0
C1621 C 0.75603 0.80065 0.08805 0.0
C1622 C 0.66742 0.72669 0.09912 0.0
C1623 C 0.78505 0.78523 0.12435 0.0
C1624 C 0.70287 0.73091 0.17068 0.0
C1625 C 0.71919 0.69682 0.17293 0.0
C1626 C 0.70528 0.75051 0.15091 0.0
C1627 C 0.72407 0.73557 0.13273 0.0
C1628 C 0.74019 0.70099 0.13472 0.0
C1629 C 0.73766 0.68208 0.1548 0.0
C1630 C 0.6877 0.78729 0.14949 0.0
C1631 C 0.7602 0.68403 0.11564 0.0
H1632 H 0.67814 0.77099 0.06449 0.0
H1633 H 0.7784 0.81889 0.08503 0.0
H1634 H 0.67764 0.69904 0.10249 0.0
H1635 H 0.65148 0.73521 0.11373 0.0
H1636 H 0.64912 0.7256 0.08464 0.0
H1637 H 0.80599 0.80465 0.11865 0.0
H1638 H 0.77355 0.79517 0.14013 0.0
H1639 H 0.79821 0.7589 0.12781 0.0
H1640 H 0.6879 0.74228 0.18439 0.0
H1641 H 0.75068 0.65598 0.15641 0.0
H1642 H 0.66688 0.78733 0.13635 0.0
H1643 H 0.70815 0.80797 0.14498 0.0
H1644 H 0.67471 0.7954 0.16526 0.0
H1645 H 0.74197 0.68159 0.10121 0.0
H1646 H 0.7709 0.65679 0.11976 0.0
H1647 H 0.7831 0.70157 0.1106 0.0
C1648 C 0.73307 0.30546 0.82837 0.0
C1649 C 0.69775 0.29165 0.82822 0.0
C1650 C 0.75414 0.30467 0.84757 0.0
C1651 C 0.73962 0.28957 0.86713 0.0
C1652 C 0.7039 0.27575 0.86714 0.0
C1653 C 0.68333 0.27708 0.8477 0.0
C1654 C 0.79195 0.32003 0.84693 0.0
C1655 C 0.68753 0.25933 0.88766 0.0
C1656 C 0.80583 0.25883 0.91131 0.0
C1657 C 0.8045 0.28778 0.9262 0.0
C1658 C 0.78462 0.25889 0.8921 0.0
C1659 C 0.76172 0.2887 0.88763 0.0
C1660 C 0.7604 0.31804 0.90256 0.0
C1661 C 0.78175 0.31721 0.92164 0.0
C1662 C 0.78666 0.22704 0.87661 0.0
C1663 C 0.73659 0.35046 0.8983 0.0
H1664 H 0.74418 0.3172 0.81343 0.0
H1665 H 0.65619 0.26604 0.84761 0.0
H1666 H 0.79452 0.34211 0.85919 0.0
H1667 H 0.8118 0.29883 0.85149 0.0
H1668 H 0.79922 0.33083 0.83041 0.0
H1669 H 0.65947 0.24966 0.88492 0.0
H1670 H 0.70427 0.23623 0.8933 0.0
H1671 H 0.68723 0.27952 0.90117 0.0
H1672 H 0.82304 0.23585 0.91486 0.0
H1673 H 0.78098 0.3399 0.93292 0.0
H1674 H 0.79579 0.23616 0.86008 0.0
H1675 H 0.75943 0.21494 0.87457 0.0
H1676 H 0.80547 0.20579 0.88259 0.0
H1677 H 0.7444 0.36346 0.88249 0.0
H1678 H 0.73839 0.3709 0.91165 0.0
H1679 H 0.708 0.3418 0.8967 0.0
C1680 C 0.8047 0.7246 0.57752 0.0
C1681 C 0.78059 0.69607 0.57325 0.0
C1682 C 0.80249 0.74482 0.59701 0.0
C1683 C 0.77642 0.7356 0.61315 0.0
C1684 C 0.75261 0.70632 0.60934 0.0
C1685 C 0.7546 0.68728 0.58932 0.0
C1686 C 0.82798 0.77627 0.60026 0.0
C1687 C 0.72505 0.6951 0.62642 0.0
C1688 C 0.79667 0.76939 0.67094 0.0
C1689 C 0.77356 0.79942 0.67275 0.0
C1690 C 0.79686 0.74762 0.652 0.0
C1691 C 0.77431 0.75668 0.63402 0.0
C1692 C 0.75094 0.78685 0.63561 0.0
C1693 C 0.75041 0.80746 0.65505 0.0
C1694 C 0.82162 0.71519 0.65113 0.0
C1695 C 0.72704 0.79786 0.61659 0.0
H1696 H 0.82559 0.73119 0.56564 0.0
H1697 H 0.73543 0.66577 0.58624 0.0
H1698 H 0.81235 0.80131 0.60354 0.0
H1699 H 0.84542 0.77135 0.61481 0.0
H1700 H 0.8456 0.78094 0.58567 0.0
H1701 H 0.70965 0.67071 0.62137 0.0
H1702 H 0.73869 0.68939 0.64233 0.0
H1703 H 0.70567 0.71745 0.62936 0.0
H1704 H 0.81524 0.76309 0.68418 0.0
H1705 H 0.73177 0.82992 0.65628 0.0
H1706 H 0.84279 0.71946 0.63843 0.0
H1707 H 0.80617 0.69072 0.64634 0.0
H1708 H 0.83506 0.70997 0.66719 0.0
H1709 H 0.74392 0.80386 0.60189 0.0
H1710 H 0.71042 0.82206 0.62044 0.0
H1711 H 0.7087 0.77534 0.61211 0.0
C1712 C 0.82366 0.22654 0.34755 0.0
C1713 C 0.80654 0.22572 0.32691 0.0
C1714 C 0.80349 0.22746 0.36723 0.0
C1715 C 0.76522 0.22721 0.36633 0.0
C1716 C 0.74777 0.22715 0.34559 0.0
C1717 C 0.76858 0.22668 0.32619 0.0
C1718 C 0.82315 0.22784 0.38902 0.0
C1719 C 0.70705 0.22674 0.34387 0.0
C1720 C 0.71473 0.18959 0.41603 0.0
C1721 C 0.70275 0.22113 0.42658 0.0
C1722 C 0.73474 0.19123 0.39636 0.0
C1723 C 0.74343 0.22529 0.38706 0.0
C1724 C 0.73125 0.25727 0.39756 0.0
C1725 C 0.71084 0.2548 0.41712 0.0
C1726 C 0.74667 0.15646 0.38554 0.0
C1727 C 0.74026 0.29409 0.38832 0.0
H1728 H 0.8529 0.22551 0.34838 0.0
H1729 H 0.75497 0.22696 0.31038 0.0
H1730 H 0.81337 0.25059 0.39934 0.0
H1731 H 0.81741 0.20249 0.39818 0.0
H1732 H 0.85287 0.23042 0.38693 0.0
H1733 H 0.69761 0.2277 0.3265 0.0
H1734 H 0.69624 0.20186 0.35171 0.0
H1735 H 0.69541 0.25009 0.35286 0.0
H1736 H 0.70824 0.1635 0.42317 0.0
H1737 H 0.702 0.27927 0.42534 0.0
H1738 H 0.7766 0.15556 0.38453 0.0
H1739 H 0.73621 0.1552 0.36842 0.0
H1740 H 0.73715 0.13219 0.39465 0.0
H1741 H 0.77003 0.29758 0.38759 0.0
H1742 H 0.72859 0.31632 0.39836 0.0
H1743 H 0.72997 0.29651 0.37121 0.0
C1744 C 0.19502 0.20305 0.66117 0.0
C1745 C 0.22511 0.1944 0.67414 0.0
C1746 C 0.1988 0.22322 0.6417 0.0
C1747 C 0.23348 0.23552 0.63519 0.0
C1748 C 0.26403 0.22674 0.64819 0.0
C1749 C 0.25951 0.20602 0.66745 0.0
C1750 C 0.16562 0.23149 0.62812 0.0
C1751 C 0.30135 0.23976 0.64196 0.0
C1752 C 0.24419 0.261 0.57485 0.0
C1753 C 0.23817 0.29849 0.57531 0.0
C1754 C 0.24363 0.24031 0.59425 0.0
C1755 C 0.23751 0.25753 0.61474 0.0
C1756 C 0.2331 0.29554 0.61549 0.0
C1757 C 0.23329 0.31554 0.59576 0.0
C1758 C 0.24833 0.19984 0.59273 0.0
C1759 C 0.22695 0.31496 0.63705 0.0
H1760 H 0.16844 0.19386 0.66625 0.0
H1761 H 0.28275 0.19973 0.67762 0.0
H1762 H 0.16168 0.26116 0.62699 0.0
H1763 H 0.16925 0.22123 0.61107 0.0
H1764 H 0.14075 0.21925 0.63521 0.0
H1765 H 0.32232 0.2304 0.65375 0.0
H1766 H 0.30856 0.23004 0.62523 0.0
H1767 H 0.30175 0.26974 0.64144 0.0
H1768 H 0.24889 0.24763 0.55921 0.0
H1769 H 0.22837 0.34439 0.59633 0.0
H1770 H 0.22322 0.1862 0.59833 0.0
H1771 H 0.27044 0.1908 0.60377 0.0
H1772 H 0.25451 0.1908 0.57568 0.0
H1773 H 0.20047 0.30682 0.6441 0.0
H1774 H 0.22716 0.34481 0.63505 0.0
H1775 H 0.24805 0.30728 0.64916 0.0
C1776 C 0.31607 0.78508 0.40613 0.0
C1777 C 0.30624 0.76436 0.42452 0.0
C1778 C 0.29525 0.78441 0.38679 0.0
C1779 C 0.26441 0.76175 0.38567 0.0
C1780 C 0.25512 0.73986 0.40401 0.0
C1781 C 0.27588 0.74182 0.42335 0.0
C1782 C 0.30563 0.80875 0.3678 0.0
C1783 C 0.22304 0.71467 0.40328 0.0
C1784 C 0.19039 0.78648 0.34492 0.0
C1785 C 0.19938 0.76486 0.3268 0.0
C1786 C 0.21128 0.78565 0.36423 0.0
C1787 C 0.24128 0.76191 0.36558 0.0
C1788 C 0.24968 0.73915 0.34751 0.0
C1789 C 0.22892 0.7413 0.32818 0.0
C1790 C 0.2019 0.81093 0.38291 0.0
C1791 C 0.28082 0.71283 0.34851 0.0
H1792 H 0.33939 0.80276 0.40717 0.0
H1793 H 0.26844 0.7257 0.43759 0.0
H1794 H 0.31013 0.79252 0.35269 0.0
H1795 H 0.28323 0.82785 0.36427 0.0
H1796 H 0.33049 0.82459 0.37126 0.0
H1797 H 0.22089 0.69773 0.41837 0.0
H1798 H 0.19776 0.73053 0.40153 0.0
H1799 H 0.22505 0.69666 0.38871 0.0
H1800 H 0.16771 0.80494 0.34367 0.0
H1801 H 0.23571 0.72457 0.3141 0.0
H1802 H 0.22505 0.8292 0.38623 0.0
H1803 H 0.19674 0.79531 0.39821 0.0
H1804 H 0.1777 0.82766 0.37925 0.0
H1805 H 0.30666 0.72779 0.35006 0.0
H1806 H 0.28229 0.6954 0.33363 0.0
H1807 H 0.27819 0.69532 0.3633 0.0
loop_
_geom_bond_atom_site_label_1
_geom_bond_atom_site_label_2
_geom_bond_distance
_geom_bond_site_symmetry_2
_ccdc_geom_bond_type
Co0 N4 2.148 . S
Co0 N10 2.128 . S
Co0 N20 2.194 1_556 S
Co0 O25 2.351 . S
Co0 O26 2.155 . S
Co0 O27 2.096 . S
C1 N4 1.301 . S
C1 N5 1.328 . S
C1 H6 0.930 . S
C2 C3 1.333 . S
C2 N4 1.317 . S
C2 H7 0.939 . S
C3 C2 1.333 . S
C3 N5 1.350 . S
C3 H29 0.931 . S
N4 Co0 2.148 . S
N4 C1 1.301 . S
N4 C2 1.317 . S
N5 C1 1.328 . S
N5 C3 1.350 . S
H6 C1 0.930 . S
H7 C2 0.939 . S
C8 O9 1.224 . S
C8 O27 1.247 1_554 S
O9 C8 1.224 . S
N10 Co0 2.128 . S
N10 C11 1.355 . S
N10 C13 1.311 . S
C11 N10 1.355 . S
C11 C12 1.363 . S
C11 H23 0.929 . S
C12 C11 1.363 . S
C12 N14 1.375 . S
C12 H30 0.930 1_556 S
C13 N10 1.311 . S
C13 N14 1.347 . S
C13 H24 0.929 . S
N14 C12 1.375 . S
N14 C13 1.347 . S
C15 C18 1.365 . S
C15 N20 1.328 . S
C15 H21 0.929 . S
C16 C17 1.362 . S
C16 C19 1.378 . S
C16 H31 0.929 . S
C17 C16 1.362 . S
C17 C18 1.366 . S
C18 C15 1.365 . S
C18 C17 1.366 . S
C18 H32 0.930 . S
C19 C16 1.378 . S
C19 N20 1.315 . S
C19 H22 0.930 . S
N20 Co0 2.194 1_554 S
N20 C15 1.328 . S
N20 C19 1.315 . S
H21 C15 0.929 . S
H22 C19 0.930 . S
H23 C11 0.929 . S
H24 C13 0.929 . S
O25 Co0 2.351 . S
O25 C28 1.244 . S
O26 Co0 2.155 . S
O26 C28 1.240 . S
O27 Co0 2.096 . S
O27 C8 1.247 1_556 S
C28 O25 1.244 . S
C28 O26 1.240 . S
H29 C3 0.931 . S
H30 C12 0.930 1_554 S
H31 C16 0.929 . S
H32 C18 0.930 . S
Co33 N37 2.148 . S
Co33 N43 2.128 . S
Co33 N53 2.194 1_554 S
Co33 O58 2.351 . S
Co33 O59 2.155 . S
Co33 O60 2.096 . S
C34 N37 1.301 . S
C34 N38 1.328 . S
C34 H39 0.930 . S
C35 C36 1.333 . S
C35 N37 1.317 . S
C35 H40 0.939 . S
C36 C35 1.333 . S
C36 N38 1.350 . S
C36 H62 0.931 . S
N37 Co33 2.148 . S
N37 C34 1.301 . S
N37 C35 1.317 . S
N38 C34 1.328 . S
N38 C36 1.350 . S
H39 C34 0.930 . S
H40 C35 0.939 . S
C41 O42 1.224 . S
C41 O60 1.247 1_556 S
O42 C41 1.224 . S
N43 Co33 2.128 . S
N43 C44 1.355 . S
N43 C46 1.311 . S
C44 N43 1.355 . S
C44 C45 1.363 . S
C44 H56 0.929 . S
C45 C44 1.363 . S
C45 N47 1.375 . S
C45 H63 0.930 1_554 S
C46 N43 1.311 . S
C46 N47 1.347 . S
C46 H57 0.929 . S
N47 C45 1.375 . S
N47 C46 1.347 . S
C48 C51 1.365 . S
C48 N53 1.328 . S
C48 H54 0.929 . S
C49 C50 1.362 . S
C49 C52 1.378 . S
C49 H64 0.929 . S
C50 C49 1.362 . S
C50 C51 1.366 . S
C51 C48 1.365 . S
C51 C50 1.366 . S
C51 H65 0.930 . S
C52 C49 1.378 . S
C52 N53 1.315 . S
C52 H55 0.930 . S
N53 Co33 2.194 1_556 S
N53 C48 1.328 . S
N53 C52 1.315 . S
H54 C48 0.929 . S
H55 C52 0.930 . S
H56 C44 0.929 . S
H57 C46 0.929 . S
O58 Co33 2.351 . S
O58 C61 1.244 . S
O59 Co33 2.155 . S
O59 C61 1.240 . S
O60 Co33 2.096 . S
O60 C41 1.247 1_554 S
C61 O58 1.244 . S
C61 O59 1.240 . S
H62 C36 0.931 . S
H63 C45 0.930 1_556 S
H64 C49 0.929 . S
H65 C51 0.930 . S
Co66 N70 2.148 . S
Co66 N76 2.128 . S
Co66 N86 2.194 1_556 S
Co66 O91 2.351 . S
Co66 O92 2.155 . S
Co66 O93 2.096 . S
C67 N70 1.301 . S
C67 N71 1.328 . S
C67 H72 0.930 . S
C68 C69 1.333 . S
C68 N70 1.317 . S
C68 H73 0.939 . S
C69 C68 1.333 . S
C69 N71 1.350 . S
C69 H95 0.931 . S
N70 Co66 2.148 . S
N70 C67 1.301 . S
N70 C68 1.317 . S
N71 C67 1.328 . S
N71 C69 1.350 . S
H72 C67 0.930 . S
H73 C68 0.939 . S
C74 O75 1.224 . S
C74 O93 1.247 1_554 S
O75 C74 1.224 . S
N76 Co66 2.128 . S
N76 C77 1.355 . S
N76 C79 1.311 . S
C77 N76 1.355 . S
C77 C78 1.363 . S
C77 H89 0.929 . S
C78 C77 1.363 . S
C78 N80 1.375 . S
C78 H96 0.930 1_556 S
C79 N76 1.311 . S
C79 N80 1.347 . S
C79 H90 0.929 . S
N80 C78 1.375 . S
N80 C79 1.347 . S
C81 C84 1.365 . S
C81 N86 1.328 . S
C81 H87 0.929 . S
C82 C83 1.362 . S
C82 C85 1.378 . S
C82 H97 0.929 . S
C83 C82 1.362 . S
C83 C84 1.366 . S
C84 C81 1.365 . S
C84 C83 1.366 . S
C84 H98 0.930 . S
C85 C82 1.378 . S
C85 N86 1.315 . S
C85 H88 0.930 . S
N86 Co66 2.194 1_554 S
N86 C81 1.328 . S
N86 C85 1.315 . S
H87 C81 0.929 . S
H88 C85 0.930 . S
H89 C77 0.929 . S
H90 C79 0.929 . S
O91 Co66 2.351 . S
O91 C94 1.244 . S
O92 Co66 2.155 . S
O92 C94 1.240 . S
O93 Co66 2.096 . S
O93 C74 1.247 1_556 S
C94 O91 1.244 . S
C94 O92 1.240 . S
H95 C69 0.931 . S
H96 C78 0.930 1_554 S
H97 C82 0.929 . S
H98 C84 0.930 . S
Co99 N103 2.148 . S
Co99 N109 2.128 . S
Co99 N119 2.194 1_554 S
Co99 O124 2.351 . S
Co99 O125 2.155 . S
Co99 O126 2.096 . S
C100 N103 1.301 . S
C100 N104 1.328 . S
C100 H105 0.930 . S
C101 C102 1.333 . S
C101 N103 1.317 . S
C101 H106 0.939 . S
C102 C101 1.333 . S
C102 N104 1.350 . S
C102 H128 0.931 . S
N103 Co99 2.148 . S
N103 C100 1.301 . S
N103 C101 1.317 . S
N104 C100 1.328 . S
N104 C102 1.350 . S
H105 C100 0.930 . S
H106 C101 0.939 . S
C107 O108 1.224 . S
C107 O126 1.247 1_556 S
O108 C107 1.224 . S
N109 Co99 2.128 . S
N109 C110 1.355 . S
N109 C112 1.311 . S
C110 N109 1.355 . S
C110 C111 1.363 . S
C110 H122 0.929 . S
C111 C110 1.363 . S
C111 N113 1.375 . S
C111 H129 0.930 1_554 S
C112 N109 1.311 . S
C112 N113 1.347 . S
C112 H123 0.929 . S
N113 C111 1.375 . S
N113 C112 1.347 . S
C114 C117 1.365 . S
C114 N119 1.328 . S
C114 H120 0.929 . S
C115 C116 1.362 . S
C115 C118 1.378 . S
C115 H130 0.929 . S
C116 C115 1.362 . S
C116 C117 1.366 . S
C117 C114 1.365 . S
C117 C116 1.366 . S
C117 H131 0.930 . S
C118 C115 1.378 . S
C118 N119 1.315 . S
C118 H121 0.930 . S
N119 Co99 2.194 1_556 S
N119 C114 1.328 . S
N119 C118 1.315 . S
H120 C114 0.929 . S
H121 C118 0.930 . S
H122 C110 0.929 . S
H123 C112 0.929 . S
O124 Co99 2.351 . S
O124 C127 1.244 . S
O125 Co99 2.155 . S
O125 C127 1.240 . S
O126 Co99 2.096 . S
O126 C107 1.247 1_554 S
C127 O124 1.244 . S
C127 O125 1.240 . S
H128 C102 0.931 . S
H129 C111 0.930 1_556 S
H130 C115 0.929 . S
H131 C117 0.930 . S
Co132 N136 2.148 . S
Co132 N142 2.128 . S
Co132 N152 2.194 . S
Co132 O157 2.351 . S
Co132 O158 2.155 . S
Co132 O159 2.096 . S
C133 N136 1.301 . S
C133 N137 1.328 . S
C133 H138 0.930 . S
C134 C135 1.333 . S
C134 N136 1.317 . S
C134 H139 0.930 . S
C135 C134 1.333 . S
C135 N137 1.350 . S
C135 H161 0.931 . S
N136 Co132 2.148 . S
N136 C133 1.301 . S
N136 C134 1.317 . S
N137 C133 1.328 . S
N137 C135 1.350 . S
H138 C133 0.930 . S
H139 C134 0.930 . S
C140 O141 1.224 . S
C140 O159 1.247 . S
O141 C140 1.224 . S
N142 Co132 2.128 . S
N142 C143 1.355 . S
N142 C145 1.311 . S
C143 N142 1.355 . S
C143 C144 1.363 . S
C143 H155 0.929 . S
C144 C143 1.363 . S
C144 N146 1.375 . S
C144 H162 0.931 . S
C145 N142 1.311 . S
C145 N146 1.347 . S
C145 H156 0.929 . S
N146 C144 1.375 . S
N146 C145 1.347 . S
C147 C150 1.365 . S
C147 N152 1.328 . S
C147 H153 0.929 . S
C148 C149 1.362 . S
C148 C151 1.378 . S
C148 H163 0.929 . S
C149 C148 1.362 . S
C149 C150 1.366 . S
C150 C147 1.365 . S
C150 C149 1.366 . S
C150 H164 0.930 . S
C151 C148 1.378 . S
C151 N152 1.315 . S
C151 H154 0.930 . S
N152 Co132 2.194 . S
N152 C147 1.328 . S
N152 C151 1.315 . S
H153 C147 0.929 . S
H154 C151 0.930 . S
H155 C143 0.929 . S
H156 C145 0.929 . S
O157 Co132 2.351 . S
O157 C160 1.244 . S
O158 Co132 2.155 . S
O158 C160 1.240 . S
O159 Co132 2.096 . S
O159 C140 1.247 . S
C160 O157 1.244 . S
C160 O158 1.240 . S
H161 C135 0.931 . S
H162 C144 0.931 . S
H163 C148 0.929 . S
H164 C150 0.930 . S
Co165 N169 2.148 . S
Co165 N175 2.128 . S
Co165 N185 2.194 . S
Co165 O190 2.351 . S
Co165 O191 2.155 . S
Co165 O192 2.096 . S
C166 N169 1.301 . S
C166 N170 1.328 . S
C166 H171 0.930 . S
C167 C168 1.333 . S
C167 N169 1.317 . S
C167 H172 0.930 . S
C168 C167 1.333 . S
C168 N170 1.350 . S
C168 H194 0.931 . S
N169 Co165 2.148 . S
N169 C166 1.301 . S
N169 C167 1.317 . S
N170 C166 1.328 . S
N170 C168 1.350 . S
H171 C166 0.930 . S
H172 C167 0.930 . S
C173 O174 1.224 . S
C173 O192 1.247 . S
O174 C173 1.224 . S
N175 Co165 2.128 . S
N175 C176 1.355 . S
N175 C178 1.311 . S
C176 N175 1.355 . S
C176 C177 1.363 . S
C176 H188 0.929 . S
C177 C176 1.363 . S
C177 N179 1.375 . S
C177 H195 0.931 . S
C178 N175 1.311 . S
C178 N179 1.347 . S
C178 H189 0.929 . S
N179 C177 1.375 . S
N179 C178 1.347 . S
C180 C183 1.365 . S
C180 N185 1.328 . S
C180 H186 0.929 . S
C181 C182 1.362 . S
C181 C184 1.378 . S
C181 H196 0.929 . S
C182 C181 1.362 . S
C182 C183 1.366 . S
C183 C180 1.365 . S
C183 C182 1.366 . S
C183 H197 0.930 . S
C184 C181 1.378 . S
C184 N185 1.315 . S
C184 H187 0.930 . S
N185 Co165 2.194 . S
N185 C180 1.328 . S
N185 C184 1.315 . S
H186 C180 0.929 . S
H187 C184 0.930 . S
H188 C176 0.929 . S
H189 C178 0.929 . S
O190 Co165 2.351 . S
O190 C193 1.244 . S
O191 Co165 2.155 . S
O191 C193 1.240 . S
O192 Co165 2.096 . S
O192 C173 1.247 . S
C193 O190 1.244 . S
C193 O191 1.240 . S
H194 C168 0.931 . S
H195 C177 0.931 . S
H196 C181 0.929 . S
H197 C183 0.930 . S
Co198 N202 2.148 . S
Co198 N208 2.128 . S
Co198 N218 2.194 . S
Co198 O223 2.351 . S
Co198 O224 2.155 . S
Co198 O225 2.096 . S
C199 N202 1.301 . S
C199 N203 1.328 . S
C199 H204 0.930 . S
C200 C201 1.333 . S
C200 N202 1.317 . S
C200 H205 0.930 . S
C201 C200 1.333 . S
C201 N203 1.350 . S
C201 H227 0.931 . S
N202 Co198 2.148 . S
N202 C199 1.301 . S
N202 C200 1.317 . S
N203 C199 1.328 . S
N203 C201 1.350 . S
H204 C199 0.930 . S
H205 C200 0.930 . S
C206 O207 1.224 . S
C206 O225 1.247 . S
O207 C206 1.224 . S
N208 Co198 2.128 . S
N208 C209 1.355 . S
N208 C211 1.311 . S
C209 N208 1.355 . S
C209 C210 1.363 . S
C209 H221 0.929 . S
C210 C209 1.363 . S
C210 N212 1.375 . S
C210 H228 0.931 . S
C211 N208 1.311 . S
C211 N212 1.347 . S
C211 H222 0.929 . S
N212 C210 1.375 . S
N212 C211 1.347 . S
C213 C216 1.365 . S
C213 N218 1.328 . S
C213 H219 0.929 . S
C214 C215 1.362 . S
C214 C217 1.378 . S
C214 H229 0.929 . S
C215 C214 1.362 . S
C215 C216 1.366 . S
C216 C213 1.365 . S
C216 C215 1.366 . S
C216 H230 0.930 . S
C217 C214 1.378 . S
C217 N218 1.315 . S
C217 H220 0.930 . S
N218 Co198 2.194 . S
N218 C213 1.328 . S
N218 C217 1.315 . S
H219 C213 0.929 . S
H220 C217 0.930 . S
H221 C209 0.929 . S
H222 C211 0.929 . S
O223 Co198 2.351 . S
O223 C226 1.244 . S
O224 Co198 2.155 . S
O224 C226 1.240 . S
O225 Co198 2.096 . S
O225 C206 1.247 . S
C226 O223 1.244 . S
C226 O224 1.240 . S
H227 C201 0.931 . S
H228 C210 0.931 . S
H229 C214 0.929 . S
H230 C216 0.930 . S
Co231 N235 2.148 . S
Co231 N241 2.128 . S
Co231 N251 2.194 . S
Co231 O256 2.351 . S
Co231 O257 2.155 . S
Co231 O258 2.096 . S
C232 N235 1.301 . S
C232 N236 1.328 . S
C232 H237 0.930 . S
C233 C234 1.333 . S
C233 N235 1.317 . S
C233 H238 0.930 . S
C234 C233 1.333 . S
C234 N236 1.350 . S
C234 H260 0.931 . S
N235 Co231 2.148 . S
N235 C232 1.301 . S
N235 C233 1.317 . S
N236 C232 1.328 . S
N236 C234 1.350 . S
H237 C232 0.930 . S
H238 C233 0.930 . S
C239 O240 1.224 . S
C239 O258 1.247 . S
O240 C239 1.224 . S
N241 Co231 2.128 . S
N241 C242 1.355 . S
N241 C244 1.311 . S
C242 N241 1.355 . S
C242 C243 1.363 . S
C242 H254 0.929 . S
C243 C242 1.363 . S
C243 N245 1.375 . S
C243 H261 0.931 . S
C244 N241 1.311 . S
C244 N245 1.347 . S
C244 H255 0.929 . S
N245 C243 1.375 . S
N245 C244 1.347 . S
C246 C249 1.365 . S
C246 N251 1.328 . S
C246 H252 0.929 . S
C247 C248 1.362 . S
C247 C250 1.378 . S
C247 H262 0.929 . S
C248 C247 1.362 . S
C248 C249 1.366 . S
C249 C246 1.365 . S
C249 C248 1.366 . S
C249 H263 0.930 . S
C250 C247 1.378 . S
C250 N251 1.315 . S
C250 H253 0.930 . S
N251 Co231 2.194 . S
N251 C246 1.328 . S
N251 C250 1.315 . S
H252 C246 0.929 . S
H253 C250 0.930 . S
H254 C242 0.929 . S
H255 C244 0.929 . S
O256 Co231 2.351 . S
O256 C259 1.244 . S
O257 Co231 2.155 . S
O257 C259 1.240 . S
O258 Co231 2.096 . S
O258 C239 1.247 . S
C259 O256 1.244 . S
C259 O257 1.240 . S
H260 C234 0.931 . S
H261 C243 0.931 . S
H262 C247 0.929 . S
H263 C249 0.930 . S
Co264 N268 2.148 . S
Co264 N274 2.128 . S
Co264 N284 2.194 . S
Co264 O289 2.351 . S
Co264 O290 2.155 . S
Co264 O291 2.096 . S
C265 N268 1.301 . S
C265 N269 1.328 . S
C265 H270 0.930 . S
C266 C267 1.333 . S
C266 N268 1.317 . S
C266 H271 0.930 . S
C267 C266 1.333 . S
C267 N269 1.350 . S
C267 H293 0.931 . S
N268 Co264 2.148 . S
N268 C265 1.301 . S
N268 C266 1.317 . S
N269 C265 1.328 . S
N269 C267 1.350 . S
H270 C265 0.930 . S
H271 C266 0.930 . S
C272 O273 1.224 . S
C272 O291 1.247 . S
O273 C272 1.224 . S
N274 Co264 2.128 . S
N274 C275 1.355 . S
N274 C277 1.311 . S
C275 N274 1.355 . S
C275 C276 1.363 . S
C275 H287 0.929 . S
C276 C275 1.363 . S
C276 N278 1.375 . S
C276 H294 0.931 . S
C277 N274 1.311 . S
C277 N278 1.347 . S
C277 H288 0.929 . S
N278 C276 1.375 . S
N278 C277 1.347 . S
C279 C282 1.365 . S
C279 N284 1.328 . S
C279 H285 0.929 . S
C280 C281 1.362 . S
C280 C283 1.378 . S
C280 H295 0.929 . S
C281 C280 1.362 . S
C281 C282 1.366 . S
C282 C279 1.365 . S
C282 C281 1.366 . S
C282 H296 0.930 . S
C283 C280 1.378 . S
C283 N284 1.315 . S
C283 H286 0.930 . S
N284 Co264 2.194 . S
N284 C279 1.328 . S
N284 C283 1.315 . S
H285 C279 0.929 . S
H286 C283 0.930 . S
H287 C275 0.929 . S
H288 C277 0.929 . S
O289 Co264 2.351 . S
O289 C292 1.244 . S
O290 Co264 2.155 . S
O290 C292 1.240 . S
O291 Co264 2.096 . S
O291 C272 1.247 . S
C292 O289 1.244 . S
C292 O290 1.240 . S
H293 C267 0.931 . S
H294 C276 0.931 . S
H295 C280 0.929 . S
H296 C282 0.930 . S
Co297 N301 2.148 . S
Co297 N307 2.128 . S
Co297 N317 2.194 . S
Co297 O322 2.351 . S
Co297 O323 2.155 . S
Co297 O324 2.096 . S
C298 N301 1.301 . S
C298 N302 1.328 . S
C298 H303 0.930 . S
C299 C300 1.333 . S
C299 N301 1.317 . S
C299 H304 0.930 . S
C300 C299 1.333 . S
C300 N302 1.350 . S
C300 H326 0.931 . S
N301 Co297 2.148 . S
N301 C298 1.301 . S
N301 C299 1.317 . S
N302 C298 1.328 . S
N302 C300 1.350 . S
H303 C298 0.930 . S
H304 C299 0.930 . S
C305 O306 1.224 . S
C305 O324 1.247 . S
O306 C305 1.224 . S
N307 Co297 2.128 . S
N307 C308 1.355 . S
N307 C310 1.311 . S
C308 N307 1.355 . S
C308 C309 1.363 . S
C308 H320 0.929 . S
C309 C308 1.363 . S
C309 N311 1.375 . S
C309 H327 0.931 . S
C310 N307 1.311 . S
C310 N311 1.347 . S
C310 H321 0.929 . S
N311 C309 1.375 . S
N311 C310 1.347 . S
C312 C315 1.365 . S
C312 N317 1.328 . S
C312 H318 0.929 . S
C313 C314 1.362 . S
C313 C316 1.378 . S
C313 H328 0.929 . S
C314 C313 1.362 . S
C314 C315 1.366 . S
C315 C312 1.365 . S
C315 C314 1.366 . S
C315 H329 0.930 . S
C316 C313 1.378 . S
C316 N317 1.315 . S
C316 H319 0.930 . S
N317 Co297 2.194 . S
N317 C312 1.328 . S
N317 C316 1.315 . S
H318 C312 0.929 . S
H319 C316 0.930 . S
H320 C308 0.929 . S
H321 C310 0.929 . S
O322 Co297 2.351 . S
O322 C325 1.244 . S
O323 Co297 2.155 . S
O323 C325 1.240 . S
O324 Co297 2.096 . S
O324 C305 1.247 . S
C325 O322 1.244 . S
C325 O323 1.240 . S
H326 C300 0.931 . S
H327 C309 0.931 . S
H328 C313 0.929 . S
H329 C315 0.930 . S
Co330 N334 2.148 . S
Co330 N340 2.128 . S
Co330 N350 2.194 . S
Co330 O355 2.351 . S
Co330 O356 2.155 . S
Co330 O357 2.096 . S
C331 N334 1.301 . S
C331 N335 1.328 . S
C331 H336 0.930 . S
C332 C333 1.333 . S
C332 N334 1.317 . S
C332 H337 0.930 . S
C333 C332 1.333 . S
C333 N335 1.350 . S
C333 H359 0.931 . S
N334 Co330 2.148 . S
N334 C331 1.301 . S
N334 C332 1.317 . S
N335 C331 1.328 . S
N335 C333 1.350 . S
H336 C331 0.930 . S
H337 C332 0.930 . S
C338 O339 1.224 . S
C338 O357 1.247 . S
O339 C338 1.224 . S
N340 Co330 2.128 . S
N340 C341 1.355 . S
N340 C343 1.311 . S
C341 N340 1.355 . S
C341 C342 1.363 . S
C341 H353 0.929 . S
C342 C341 1.363 . S
C342 N344 1.375 . S
C342 H360 0.931 . S
C343 N340 1.311 . S
C343 N344 1.347 . S
C343 H354 0.929 . S
N344 C342 1.375 . S
N344 C343 1.347 . S
C345 C348 1.365 . S
C345 N350 1.328 . S
C345 H351 0.929 . S
C346 C347 1.362 . S
C346 C349 1.378 . S
C346 H361 0.929 . S
C347 C346 1.362 . S
C347 C348 1.366 . S
C348 C345 1.365 . S
C348 C347 1.366 . S
C348 H362 0.930 . S
C349 C346 1.378 . S
C349 N350 1.315 . S
C349 H352 0.930 . S
N350 Co330 2.194 . S
N350 C345 1.328 . S
N350 C349 1.315 . S
H351 C345 0.929 . S
H352 C349 0.930 . S
H353 C341 0.929 . S
H354 C343 0.929 . S
O355 Co330 2.351 . S
O355 C358 1.244 . S
O356 Co330 2.155 . S
O356 C358 1.240 . S
O357 Co330 2.096 . S
O357 C338 1.247 . S
C358 O355 1.244 . S
C358 O356 1.240 . S
H359 C333 0.931 . S
H360 C342 0.931 . S
H361 C346 0.929 . S
H362 C348 0.930 . S
Co363 N367 2.148 . S
Co363 N373 2.128 . S
Co363 N383 2.194 . S
Co363 O388 2.351 . S
Co363 O389 2.155 . S
Co363 O390 2.096 . S
C364 N367 1.301 . S
C364 N368 1.328 . S
C364 H369 0.930 . S
C365 C366 1.333 . S
C365 N367 1.317 . S
C365 H370 0.930 . S
C366 C365 1.333 . S
C366 N368 1.350 . S
C366 H392 0.931 . S
N367 Co363 2.148 . S
N367 C364 1.301 . S
N367 C365 1.317 . S
N368 C364 1.328 . S
N368 C366 1.350 . S
H369 C364 0.930 . S
H370 C365 0.930 . S
C371 O372 1.224 . S
C371 O390 1.247 . S
O372 C371 1.224 . S
N373 Co363 2.128 . S
N373 C374 1.355 . S
N373 C376 1.311 . S
C374 N373 1.355 . S
C374 C375 1.363 . S
C374 H386 0.929 . S
C375 C374 1.363 . S
C375 N377 1.375 . S
C375 H393 0.931 . S
C376 N373 1.311 . S
C376 N377 1.347 . S
C376 H387 0.929 . S
N377 C375 1.375 . S
N377 C376 1.347 . S
C378 C381 1.365 . S
C378 N383 1.328 . S
C378 H384 0.929 . S
C379 C380 1.362 . S
C379 C382 1.378 . S
C379 H394 0.929 . S
C380 C379 1.362 . S
C380 C381 1.366 . S
C381 C378 1.365 . S
C381 C380 1.366 . S
C381 H395 0.930 . S
C382 C379 1.378 . S
C382 N383 1.315 . S
C382 H385 0.930 . S
N383 Co363 2.194 . S
N383 C378 1.328 . S
N383 C382 1.315 . S
H384 C378 0.929 . S
H385 C382 0.930 . S
H386 C374 0.929 . S
H387 C376 0.929 . S
O388 Co363 2.351 . S
O388 C391 1.244 . S
O389 Co363 2.155 . S
O389 C391 1.240 . S
O390 Co363 2.096 . S
O390 C371 1.247 . S
C391 O388 1.244 . S
C391 O389 1.240 . S
H392 C366 0.931 . S
H393 C375 0.931 . S
H394 C379 0.929 . S
H395 C381 0.930 . S
Co396 N400 2.148 . S
Co396 N406 2.128 . S
Co396 N416 2.194 . S
Co396 O421 2.351 . S
Co396 O422 2.155 . S
Co396 O423 2.096 . S
C397 N400 1.301 . S
C397 N401 1.328 . S
C397 H402 0.930 . S
C398 C399 1.333 . S
C398 N400 1.317 . S
C398 H403 0.930 . S
C399 C398 1.333 . S
C399 N401 1.350 . S
C399 H425 0.931 . S
N400 Co396 2.148 . S
N400 C397 1.301 . S
N400 C398 1.317 . S
N401 C397 1.328 . S
N401 C399 1.350 . S
H402 C397 0.930 . S
H403 C398 0.930 . S
C404 O405 1.224 . S
C404 O423 1.247 . S
O405 C404 1.224 . S
N406 Co396 2.128 . S
N406 C407 1.355 . S
N406 C409 1.311 . S
C407 N406 1.355 . S
C407 C408 1.363 . S
C407 H419 0.929 . S
C408 C407 1.363 . S
C408 N410 1.375 . S
C408 H426 0.931 . S
C409 N406 1.311 . S
C409 N410 1.347 . S
C409 H420 0.929 . S
N410 C408 1.375 . S
N410 C409 1.347 . S
C411 C414 1.365 . S
C411 N416 1.328 . S
C411 H417 0.929 . S
C412 C413 1.362 . S
C412 C415 1.378 . S
C412 H427 0.929 . S
C413 C412 1.362 . S
C413 C414 1.366 . S
C414 C411 1.365 . S
C414 C413 1.366 . S
C414 H428 0.930 . S
C415 C412 1.378 . S
C415 N416 1.315 . S
C415 H418 0.930 . S
N416 Co396 2.194 . S
N416 C411 1.328 . S
N416 C415 1.315 . S
H417 C411 0.929 . S
H418 C415 0.930 . S
H419 C407 0.929 . S
H420 C409 0.929 . S
O421 Co396 2.351 . S
O421 C424 1.244 . S
O422 Co396 2.155 . S
O422 C424 1.240 . S
O423 Co396 2.096 . S
O423 C404 1.247 . S
C424 O421 1.244 . S
C424 O422 1.240 . S
H425 C399 0.931 . S
H426 C408 0.931 . S
H427 C412 0.929 . S
H428 C414 0.930 . S
Co429 N433 2.148 . S
Co429 N439 2.128 . S
Co429 N449 2.194 . S
Co429 O454 2.351 . S
Co429 O455 2.155 . S
Co429 O456 2.096 . S
C430 N433 1.301 . S
C430 N434 1.328 . S
C430 H435 0.930 . S
C431 C432 1.333 . S
C431 N433 1.317 . S
C431 H436 0.930 . S
C432 C431 1.333 . S
C432 N434 1.350 . S
C432 H458 0.931 . S
N433 Co429 2.148 . S
N433 C430 1.301 . S
N433 C431 1.317 . S
N434 C430 1.328 . S
N434 C432 1.350 . S
H435 C430 0.930 . S
H436 C431 0.930 . S
C437 O438 1.224 . S
C437 O456 1.247 . S
O438 C437 1.224 . S
N439 Co429 2.128 . S
N439 C440 1.355 . S
N439 C442 1.311 . S
C440 N439 1.355 . S
C440 C441 1.363 . S
C440 H452 0.929 . S
C441 C440 1.363 . S
C441 N443 1.375 . S
C441 H459 0.931 . S
C442 N439 1.311 . S
C442 N443 1.347 . S
C442 H453 0.929 . S
N443 C441 1.375 . S
N443 C442 1.347 . S
C444 C447 1.365 . S
C444 N449 1.328 . S
C444 H450 0.929 . S
C445 C446 1.362 . S
C445 C448 1.378 . S
C445 H460 0.929 . S
C446 C445 1.362 . S
C446 C447 1.366 . S
C447 C444 1.365 . S
C447 C446 1.366 . S
C447 H461 0.930 . S
C448 C445 1.378 . S
C448 N449 1.315 . S
C448 H451 0.930 . S
N449 Co429 2.194 . S
N449 C444 1.328 . S
N449 C448 1.315 . S
H450 C444 0.929 . S
H451 C448 0.930 . S
H452 C440 0.929 . S
H453 C442 0.929 . S
O454 Co429 2.351 . S
O454 C457 1.244 . S
O455 Co429 2.155 . S
O455 C457 1.240 . S
O456 Co429 2.096 . S
O456 C437 1.247 . S
C457 O454 1.244 . S
C457 O455 1.240 . S
H458 C432 0.931 . S
H459 C441 0.931 . S
H460 C445 0.929 . S
H461 C447 0.930 . S
Co462 N466 2.148 . S
Co462 N472 2.128 . S
Co462 N482 2.194 . S
Co462 O487 2.351 . S
Co462 O488 2.155 . S
Co462 O489 2.096 . S
C463 N466 1.301 . S
C463 N467 1.328 . S
C463 H468 0.930 . S
C464 C465 1.333 . S
C464 N466 1.317 . S
C464 H469 0.930 . S
C465 C464 1.333 . S
C465 N467 1.350 . S
C465 H491 0.931 . S
N466 Co462 2.148 . S
N466 C463 1.301 . S
N466 C464 1.317 . S
N467 C463 1.328 . S
N467 C465 1.350 . S
H468 C463 0.930 . S
H469 C464 0.930 . S
C470 O471 1.224 . S
C470 O489 1.247 . S
O471 C470 1.224 . S
N472 Co462 2.128 . S
N472 C473 1.355 . S
N472 C475 1.311 . S
C473 N472 1.355 . S
C473 C474 1.363 . S
C473 H485 0.929 . S
C474 C473 1.363 . S
C474 N476 1.375 . S
C474 H492 0.931 . S
C475 N472 1.311 . S
C475 N476 1.347 . S
C475 H486 0.929 . S
N476 C474 1.375 . S
N476 C475 1.347 . S
C477 C480 1.365 . S
C477 N482 1.328 . S
C477 H483 0.929 . S
C478 C479 1.362 . S
C478 C481 1.378 . S
C478 H493 0.929 . S
C479 C478 1.362 . S
C479 C480 1.366 . S
C480 C477 1.365 . S
C480 C479 1.366 . S
C480 H494 0.930 . S
C481 C478 1.378 . S
C481 N482 1.315 . S
C481 H484 0.930 . S
N482 Co462 2.194 . S
N482 C477 1.328 . S
N482 C481 1.315 . S
H483 C477 0.929 . S
H484 C481 0.930 . S
H485 C473 0.929 . S
H486 C475 0.929 . S
O487 Co462 2.351 . S
O487 C490 1.244 . S
O488 Co462 2.155 . S
O488 C490 1.240 . S
O489 Co462 2.096 . S
O489 C470 1.247 . S
C490 O487 1.244 . S
C490 O488 1.240 . S
H491 C465 0.931 . S
H492 C474 0.931 . S
H493 C478 0.929 . S
H494 C480 0.930 . S
Co495 N499 2.148 . S
Co495 N505 2.128 . S
Co495 N515 2.194 . S
Co495 O520 2.351 . S
Co495 O521 2.155 . S
Co495 O522 2.096 . S
C496 N499 1.301 . S
C496 N500 1.328 . S
C496 H501 0.930 . S
C497 C498 1.333 . S
C497 N499 1.317 . S
C497 H502 0.930 . S
C498 C497 1.333 . S
C498 N500 1.350 . S
C498 H524 0.931 . S
N499 Co495 2.148 . S
N499 C496 1.301 . S
N499 C497 1.317 . S
N500 C496 1.328 . S
N500 C498 1.350 . S
H501 C496 0.930 . S
H502 C497 0.930 . S
C503 O504 1.224 . S
C503 O522 1.247 . S
O504 C503 1.224 . S
N505 Co495 2.128 . S
N505 C506 1.355 . S
N505 C508 1.311 . S
C506 N505 1.355 . S
C506 C507 1.363 . S
C506 H518 0.929 . S
C507 C506 1.363 . S
C507 N509 1.375 . S
C507 H525 0.931 . S
C508 N505 1.311 . S
C508 N509 1.347 . S
C508 H519 0.929 . S
N509 C507 1.375 . S
N509 C508 1.347 . S
C510 C513 1.365 . S
C510 N515 1.328 . S
C510 H516 0.929 . S
C511 C512 1.362 . S
C511 C514 1.378 . S
C511 H526 0.929 . S
C512 C511 1.362 . S
C512 C513 1.366 . S
C513 C510 1.365 . S
C513 C512 1.366 . S
C513 H527 0.930 . S
C514 C511 1.378 . S
C514 N515 1.315 . S
C514 H517 0.930 . S
N515 Co495 2.194 . S
N515 C510 1.328 . S
N515 C514 1.315 . S
H516 C510 0.929 . S
H517 C514 0.930 . S
H518 C506 0.929 . S
H519 C508 0.929 . S
O520 Co495 2.351 . S
O520 C523 1.244 . S
O521 Co495 2.155 . S
O521 C523 1.240 . S
O522 Co495 2.096 . S
O522 C503 1.247 . S
C523 O520 1.244 . S
C523 O521 1.240 . S
H524 C498 0.931 . S
H525 C507 0.931 . S
H526 C511 0.929 . S
H527 C513 0.930 . S
C528 C529 1.391 . S
C528 C530 1.394 . S
C528 H544 0.931 . S
C529 C528 1.391 . S
C529 C533 1.376 . S
C530 C528 1.394 . S
C530 C531 1.369 . S
C530 C534 1.531 . S
C531 C530 1.369 . S
C531 C532 1.410 . S
C531 C539 1.503 . S
C532 C531 1.410 . S
C532 C533 1.392 . S
C532 C535 1.511 . S
C533 C529 1.376 . S
C533 C532 1.392 . S
C533 H545 0.929 . S
C534 C530 1.531 . S
C534 H546 0.960 . S
C534 H547 0.962 . S
C534 H548 0.960 . S
C535 C532 1.511 . S
C535 H549 0.961 . S
C535 H550 0.961 . S
C535 H551 0.961 . S
C536 C537 1.370 . S
C536 C538 1.363 . S
C536 H552 0.931 . S
C537 C536 1.370 . S
C537 C541 1.408 . S
C538 C536 1.363 . S
C538 C539 1.370 . S
C538 C542 1.524 . S
C539 C531 1.503 . S
C539 C538 1.370 . S
C539 C540 1.403 . S
C540 C539 1.403 . S
C540 C541 1.404 . S
C540 C543 1.539 . S
C541 C537 1.408 . S
C541 C540 1.404 . S
C541 H553 0.930 . S
C542 C538 1.524 . S
C542 H554 0.956 . S
C542 H555 0.961 . S
C542 H556 0.961 . S
C543 C540 1.539 . S
C543 H557 0.958 . S
C543 H558 0.961 . S
C543 H559 0.960 . S
H544 C528 0.931 . S
H545 C533 0.929 . S
H546 C534 0.960 . S
H547 C534 0.962 . S
H548 C534 0.960 . S
H549 C535 0.961 . S
H550 C535 0.961 . S
H551 C535 0.961 . S
H552 C536 0.931 . S
H553 C541 0.930 . S
H554 C542 0.956 . S
H555 C542 0.961 . S
H556 C542 0.961 . S
H557 C543 0.958 . S
H558 C543 0.961 . S
H559 C543 0.960 . S
C560 C561 1.391 . S
C560 C562 1.394 . S
C560 H576 0.931 . S
C561 C560 1.391 . S
C561 C565 1.376 . S
C562 C560 1.394 . S
C562 C563 1.369 . S
C562 C566 1.531 . S
C563 C562 1.369 . S
C563 C564 1.410 . S
C563 C571 1.503 . S
C564 C563 1.410 . S
C564 C565 1.392 . S
C564 C567 1.511 . S
C565 C561 1.376 . S
C565 C564 1.392 . S
C565 H577 0.929 . S
C566 C562 1.531 . S
C566 H578 0.960 . S
C566 H579 0.962 . S
C566 H580 0.960 . S
C567 C564 1.511 . S
C567 H581 0.961 . S
C567 H582 0.961 . S
C567 H583 0.961 . S
C568 C569 1.370 . S
C568 C570 1.363 . S
C568 H584 0.931 . S
C569 C568 1.370 . S
C569 C573 1.408 . S
C570 C568 1.363 . S
C570 C571 1.370 . S
C570 C574 1.524 . S
C571 C563 1.503 . S
C571 C570 1.370 . S
C571 C572 1.403 . S
C572 C571 1.403 . S
C572 C573 1.404 . S
C572 C575 1.539 . S
C573 C569 1.408 . S
C573 C572 1.404 . S
C573 H585 0.930 . S
C574 C570 1.524 . S
C574 H586 0.956 . S
C574 H587 0.961 . S
C574 H588 0.961 . S
C575 C572 1.539 . S
C575 H589 0.958 . S
C575 H590 0.961 . S
C575 H591 0.960 . S
H576 C560 0.931 . S
H577 C565 0.929 . S
H578 C566 0.960 . S
H579 C566 0.962 . S
H580 C566 0.960 . S
H581 C567 0.961 . S
H582 C567 0.961 . S
H583 C567 0.961 . S
H584 C568 0.931 . S
H585 C573 0.930 . S
H586 C574 0.956 . S
H587 C574 0.961 . S
H588 C574 0.961 . S
H589 C575 0.958 . S
H590 C575 0.961 . S
H591 C575 0.960 . S
C592 C593 1.391 . S
C592 C594 1.394 . S
C592 H608 0.931 . S
C593 C592 1.391 . S
C593 C597 1.376 . S
C594 C592 1.394 . S
C594 C595 1.369 . S
C594 C598 1.531 . S
C595 C594 1.369 . S
C595 C596 1.410 . S
C595 C603 1.503 . S
C596 C595 1.410 . S
C596 C597 1.392 . S
C596 C599 1.511 . S
C597 C593 1.376 . S
C597 C596 1.392 . S
C597 H609 0.929 . S
C598 C594 1.531 . S
C598 H610 0.960 . S
C598 H611 0.962 . S
C598 H612 0.960 . S
C599 C596 1.511 . S
C599 H613 0.961 . S
C599 H614 0.961 . S
C599 H615 0.961 . S
C600 C601 1.370 . S
C600 C602 1.363 . S
C600 H616 0.931 . S
C601 C600 1.370 . S
C601 C605 1.408 . S
C602 C600 1.363 . S
C602 C603 1.370 . S
C602 C606 1.524 . S
C603 C595 1.503 . S
C603 C602 1.370 . S
C603 C604 1.403 . S
C604 C603 1.403 . S
C604 C605 1.404 . S
C604 C607 1.539 . S
C605 C601 1.408 . S
C605 C604 1.404 . S
C605 H617 0.930 . S
C606 C602 1.524 . S
C606 H618 0.956 . S
C606 H619 0.961 . S
C606 H620 0.961 . S
C607 C604 1.539 . S
C607 H621 0.958 . S
C607 H622 0.961 . S
C607 H623 0.960 . S
H608 C592 0.931 . S
H609 C597 0.929 . S
H610 C598 0.960 . S
H611 C598 0.962 . S
H612 C598 0.960 . S
H613 C599 0.961 . S
H614 C599 0.961 . S
H615 C599 0.961 . S
H616 C600 0.931 . S
H617 C605 0.930 . S
H618 C606 0.956 . S
H619 C606 0.961 . S
H620 C606 0.961 . S
H621 C607 0.958 . S
H622 C607 0.961 . S
H623 C607 0.960 . S
C624 C625 1.391 . S
C624 C626 1.394 . S
C624 H640 0.931 . S
C625 C624 1.391 . S
C625 C629 1.376 . S
C626 C624 1.394 . S
C626 C627 1.369 . S
C626 C630 1.531 . S
C627 C626 1.369 . S
C627 C628 1.410 . S
C627 C635 1.503 . S
C628 C627 1.410 . S
C628 C629 1.392 . S
C628 C631 1.511 . S
C629 C625 1.376 . S
C629 C628 1.392 . S
C629 H641 0.929 . S
C630 C626 1.531 . S
C630 H642 0.960 . S
C630 H643 0.962 . S
C630 H644 0.960 . S
C631 C628 1.511 . S
C631 H645 0.961 . S
C631 H646 0.961 . S
C631 H647 0.961 . S
C632 C633 1.370 . S
C632 C634 1.363 . S
C632 H648 0.931 . S
C633 C632 1.370 . S
C633 C637 1.408 . S
C634 C632 1.363 . S
C634 C635 1.370 . S
C634 C638 1.524 . S
C635 C627 1.503 . S
C635 C634 1.370 . S
C635 C636 1.403 . S
C636 C635 1.403 . S
C636 C637 1.404 . S
C636 C639 1.539 . S
C637 C633 1.408 . S
C637 C636 1.404 . S
C637 H649 0.930 . S
C638 C634 1.524 . S
C638 H650 0.956 . S
C638 H651 0.961 . S
C638 H652 0.961 . S
C639 C636 1.539 . S
C639 H653 0.958 . S
C639 H654 0.961 . S
C639 H655 0.960 . S
H640 C624 0.931 . S
H641 C629 0.929 . S
H642 C630 0.960 . S
H643 C630 0.962 . S
H644 C630 0.960 . S
H645 C631 0.961 . S
H646 C631 0.961 . S
H647 C631 0.961 . S
H648 C632 0.931 . S
H649 C637 0.930 . S
H650 C638 0.956 . S
H651 C638 0.961 . S
H652 C638 0.961 . S
H653 C639 0.958 . S
H654 C639 0.961 . S
H655 C639 0.960 . S
C656 C657 1.391 . S
C656 C658 1.394 . S
C656 H672 0.931 . S
C657 C656 1.391 . S
C657 C661 1.376 . S
C658 C656 1.394 . S
C658 C659 1.369 . S
C658 C662 1.531 . S
C659 C658 1.369 . S
C659 C660 1.410 . S
C659 C667 1.503 . S
C660 C659 1.410 . S
C660 C661 1.392 . S
C660 C663 1.511 . S
C661 C657 1.376 . S
C661 C660 1.392 . S
C661 H673 0.929 . S
C662 C658 1.531 . S
C662 H674 0.960 . S
C662 H675 0.962 . S
C662 H676 0.960 . S
C663 C660 1.511 . S
C663 H677 0.961 . S
C663 H678 0.961 . S
C663 H679 0.961 . S
C664 C665 1.370 . S
C664 C666 1.363 . S
C664 H680 0.931 . S
C665 C664 1.370 . S
C665 C669 1.408 . S
C666 C664 1.363 . S
C666 C667 1.370 . S
C666 C670 1.524 . S
C667 C659 1.503 . S
C667 C666 1.370 . S
C667 C668 1.403 . S
C668 C667 1.403 . S
C668 C669 1.404 . S
C668 C671 1.539 . S
C669 C665 1.408 . S
C669 C668 1.404 . S
C669 H681 0.930 . S
C670 C666 1.524 . S
C670 H682 0.956 . S
C670 H683 0.961 . S
C670 H684 0.961 . S
C671 C668 1.539 . S
C671 H685 0.958 . S
C671 H686 0.961 . S
C671 H687 0.960 . S
H672 C656 0.931 . S
H673 C661 0.929 . S
H674 C662 0.960 . S
H675 C662 0.962 . S
H676 C662 0.960 . S
H677 C663 0.961 . S
H678 C663 0.961 . S
H679 C663 0.961 . S
H680 C664 0.931 . S
H681 C669 0.930 . S
H682 C670 0.956 . S
H683 C670 0.961 . S
H684 C670 0.961 . S
H685 C671 0.958 . S
H686 C671 0.961 . S
H687 C671 0.960 . S
C688 C689 1.391 . S
C688 C690 1.394 . S
C688 H704 0.931 . S
C689 C688 1.391 . S
C689 C693 1.376 . S
C690 C688 1.394 . S
C690 C691 1.369 . S
C690 C694 1.531 . S
C691 C690 1.369 . S
C691 C692 1.410 . S
C691 C699 1.503 . S
C692 C691 1.410 . S
C692 C693 1.392 . S
C692 C695 1.511 . S
C693 C689 1.376 . S
C693 C692 1.392 . S
C693 H705 0.929 . S
C694 C690 1.531 . S
C694 H706 0.960 . S
C694 H707 0.962 . S
C694 H708 0.960 . S
C695 C692 1.511 . S
C695 H709 0.961 . S
C695 H710 0.961 . S
C695 H711 0.961 . S
C696 C697 1.370 . S
C696 C698 1.363 . S
C696 H712 0.931 . S
C697 C696 1.370 . S
C697 C701 1.408 . S
C698 C696 1.363 . S
C698 C699 1.370 . S
C698 C702 1.524 . S
C699 C691 1.503 . S
C699 C698 1.370 . S
C699 C700 1.403 . S
C700 C699 1.403 . S
C700 C701 1.404 . S
C700 C703 1.539 . S
C701 C697 1.408 . S
C701 C700 1.404 . S
C701 H713 0.930 . S
C702 C698 1.524 . S
C702 H714 0.956 . S
C702 H715 0.961 . S
C702 H716 0.961 . S
C703 C700 1.539 . S
C703 H717 0.958 . S
C703 H718 0.961 . S
C703 H719 0.960 . S
H704 C688 0.931 . S
H705 C693 0.929 . S
H706 C694 0.960 . S
H707 C694 0.962 . S
H708 C694 0.960 . S
H709 C695 0.961 . S
H710 C695 0.961 . S
H711 C695 0.961 . S
H712 C696 0.931 . S
H713 C701 0.930 . S
H714 C702 0.956 . S
H715 C702 0.961 . S
H716 C702 0.961 . S
H717 C703 0.958 . S
H718 C703 0.961 . S
H719 C703 0.960 . S
C720 C721 1.391 . S
C720 C722 1.394 . S
C720 H736 0.931 . S
C721 C720 1.391 . S
C721 C725 1.376 . S
C722 C720 1.394 . S
C722 C723 1.369 . S
C722 C726 1.531 . S
C723 C722 1.369 . S
C723 C724 1.410 . S
C723 C731 1.503 . S
C724 C723 1.410 . S
C724 C725 1.392 . S
C724 C727 1.511 . S
C725 C721 1.376 . S
C725 C724 1.392 . S
C725 H737 0.929 . S
C726 C722 1.531 . S
C726 H738 0.960 . S
C726 H739 0.962 . S
C726 H740 0.960 . S
C727 C724 1.511 . S
C727 H741 0.961 . S
C727 H742 0.961 . S
C727 H743 0.961 . S
C728 C729 1.370 . S
C728 C730 1.363 . S
C728 H744 0.931 . S
C729 C728 1.370 . S
C729 C733 1.408 . S
C730 C728 1.363 . S
C730 C731 1.370 . S
C730 C734 1.524 . S
C731 C723 1.503 . S
C731 C730 1.370 . S
C731 C732 1.403 . S
C732 C731 1.403 . S
C732 C733 1.404 . S
C732 C735 1.539 . S
C733 C729 1.408 . S
C733 C732 1.404 . S
C733 H745 0.930 . S
C734 C730 1.524 . S
C734 H746 0.956 . S
C734 H747 0.961 . S
C734 H748 0.961 . S
C735 C732 1.539 . S
C735 H749 0.958 . S
C735 H750 0.961 . S
C735 H751 0.960 . S
H736 C720 0.931 . S
H737 C725 0.929 . S
H738 C726 0.960 . S
H739 C726 0.962 . S
H740 C726 0.960 . S
H741 C727 0.961 . S
H742 C727 0.961 . S
H743 C727 0.961 . S
H744 C728 0.931 . S
H745 C733 0.930 . S
H746 C734 0.956 . S
H747 C734 0.961 . S
H748 C734 0.961 . S
H749 C735 0.958 . S
H750 C735 0.961 . S
H751 C735 0.960 . S
C752 C753 1.391 . S
C752 C754 1.394 . S
C752 H768 0.931 . S
C753 C752 1.391 . S
C753 C757 1.376 . S
C754 C752 1.394 . S
C754 C755 1.369 . S
C754 C758 1.531 . S
C755 C754 1.369 . S
C755 C756 1.410 . S
C755 C763 1.503 . S
C756 C755 1.410 . S
C756 C757 1.392 . S
C756 C759 1.511 . S
C757 C753 1.376 . S
C757 C756 1.392 . S
C757 H769 0.929 . S
C758 C754 1.531 . S
C758 H770 0.960 . S
C758 H771 0.962 . S
C758 H772 0.960 . S
C759 C756 1.511 . S
C759 H773 0.961 . S
C759 H774 0.961 . S
C759 H775 0.961 . S
C760 C761 1.370 . S
C760 C762 1.363 . S
C760 H776 0.931 . S
C761 C760 1.370 . S
C761 C765 1.408 . S
C762 C760 1.363 . S
C762 C763 1.370 . S
C762 C766 1.524 . S
C763 C755 1.503 . S
C763 C762 1.370 . S
C763 C764 1.403 . S
C764 C763 1.403 . S
C764 C765 1.404 . S
C764 C767 1.539 . S
C765 C761 1.408 . S
C765 C764 1.404 . S
C765 H777 0.930 . S
C766 C762 1.524 . S
C766 H778 0.956 . S
C766 H779 0.961 . S
C766 H780 0.961 . S
C767 C764 1.539 . S
C767 H781 0.958 . S
C767 H782 0.961 . S
C767 H783 0.960 . S
H768 C752 0.931 . S
H769 C757 0.929 . S
H770 C758 0.960 . S
H771 C758 0.962 . S
H772 C758 0.960 . S
H773 C759 0.961 . S
H774 C759 0.961 . S
H775 C759 0.961 . S
H776 C760 0.931 . S
H777 C765 0.930 . S
H778 C766 0.956 . S
H779 C766 0.961 . S
H780 C766 0.961 . S
H781 C767 0.958 . S
H782 C767 0.961 . S
H783 C767 0.960 . S
C784 C785 1.391 1_556 S
C784 C786 1.394 1_545 S
C784 H800 0.931 . S
C785 C784 1.391 1_554 S
C785 C789 1.376 . S
C786 C784 1.394 1_565 S
C786 C787 1.369 1_556 S
C786 C790 1.531 . S
C787 C786 1.369 1_554 S
C787 C788 1.410 . S
C787 C795 1.503 . S
C788 C787 1.410 . S
C788 C789 1.392 1_565 S
C788 C791 1.511 . S
C789 C785 1.376 . S
C789 C788 1.392 1_545 S
C789 H801 0.929 . S
C790 C786 1.531 . S
C790 H802 0.960 . S
C790 H803 0.962 . S
C790 H804 0.960 . S
C791 C788 1.511 . S
C791 H805 0.961 . S
C791 H806 0.961 . S
C791 H807 0.961 . S
C792 C793 1.370 . S
C792 C794 1.363 . S
C792 H808 0.931 . S
C793 C792 1.370 . S
C793 C797 1.408 . S
C794 C792 1.363 . S
C794 C795 1.370 . S
C794 C798 1.524 . S
C795 C787 1.503 . S
C795 C794 1.370 . S
C795 C796 1.403 . S
C796 C795 1.403 . S
C796 C797 1.404 . S
C796 C799 1.539 . S
C797 C793 1.408 . S
C797 C796 1.404 . S
C797 H809 0.930 . S
C798 C794 1.524 . S
C798 H810 0.956 1_554 S
C798 H811 0.961 . S
C798 H812 0.961 . S
C799 C796 1.539 . S
C799 H813 0.958 . S
C799 H814 0.961 . S
C799 H815 0.960 . S
H800 C784 0.931 . S
H801 C789 0.929 . S
H802 C790 0.960 . S
H803 C790 0.962 . S
H804 C790 0.960 . S
H805 C791 0.961 . S
H806 C791 0.961 . S
H807 C791 0.961 . S
H808 C792 0.931 . S
H809 C797 0.930 . S
H810 C798 0.956 1_556 S
H811 C798 0.961 . S
H812 C798 0.961 . S
H813 C799 0.958 . S
H814 C799 0.961 . S
H815 C799 0.960 . S
C816 C817 1.375 1_655 S
C816 C818 1.416 . S
C816 H832 0.927 1_656 S
C817 C816 1.375 1_455 S
C817 C821 1.376 . S
C818 C816 1.416 . S
C818 C819 1.373 . S
C818 C822 1.525 1_556 S
C819 C818 1.373 . S
C819 C820 1.410 . S
C819 C827 1.503 . S
C820 C819 1.410 . S
C820 C821 1.392 1_655 S
C820 C823 1.511 . S
C821 C817 1.376 . S
C821 C820 1.392 1_455 S
C821 H833 0.929 . S
C822 C818 1.525 1_554 S
C822 H834 0.960 . S
C822 H835 0.962 1_554 S
C822 H836 0.960 . S
C823 C820 1.511 . S
C823 H837 0.955 1_655 S
C823 H838 0.961 . S
C823 H839 0.961 1_556 S
C824 C825 1.370 . S
C824 C826 1.363 . S
C824 H840 0.931 . S
C825 C824 1.370 . S
C825 C829 1.408 1_556 S
C826 C824 1.363 . S
C826 C827 1.370 . S
C826 C830 1.524 . S
C827 C819 1.503 . S
C827 C826 1.370 . S
C827 C828 1.403 1_556 S
C828 C827 1.403 1_554 S
C828 C829 1.404 . S
C828 C831 1.539 . S
C829 C825 1.408 1_554 S
C829 C828 1.404 . S
C829 H841 0.930 . S
C830 C826 1.524 . S
C830 H842 0.956 . S
C830 H843 0.961 . S
C830 H844 0.961 . S
C831 C828 1.539 . S
C831 H845 0.958 . S
C831 H846 0.961 . S
C831 H847 0.960 . S
H832 C816 0.927 1_454 S
H833 C821 0.929 . S
H834 C822 0.960 . S
H835 C822 0.962 1_556 S
H836 C822 0.960 . S
H837 C823 0.955 1_455 S
H838 C823 0.961 . S
H839 C823 0.961 1_554 S
H840 C824 0.931 . S
H841 C829 0.930 . S
H842 C830 0.956 . S
H843 C830 0.961 . S
H844 C830 0.961 . S
H845 C831 0.958 . S
H846 C831 0.961 . S
H847 C831 0.960 . S
C848 C849 1.399 . S
C848 C850 1.384 1_565 S
C848 H864 0.933 . S
C849 C848 1.399 . S
C849 C853 1.376 . S
C850 C848 1.384 1_545 S
C850 C851 1.369 . S
C850 C854 1.531 . S
C851 C850 1.369 . S
C851 C852 1.410 . S
C851 C859 1.503 . S
C852 C851 1.410 . S
C852 C853 1.392 1_545 S
C852 C855 1.511 . S
C853 C849 1.376 . S
C853 C852 1.392 1_565 S
C853 H865 0.939 . S
C854 C850 1.531 . S
C854 H866 0.960 . S
C854 H867 0.962 . S
C854 H868 0.960 . S
C855 C852 1.511 . S
C855 H869 0.961 1_554 S
C855 H870 0.961 1_554 S
C855 H871 0.961 . S
C856 C857 1.370 1_556 S
C856 C858 1.363 . S
C856 H872 0.931 . S
C857 C856 1.370 1_554 S
C857 C861 1.408 . S
C858 C856 1.363 . S
C858 C859 1.370 1_556 S
C858 C862 1.524 . S
C859 C851 1.503 . S
C859 C858 1.370 1_554 S
C859 C860 1.403 . S
C860 C859 1.403 . S
C860 C861 1.404 . S
C860 C863 1.539 . S
C861 C857 1.408 . S
C861 C860 1.404 . S
C861 H873 0.930 . S
C862 C858 1.524 . S
C862 H874 0.956 . S
C862 H875 0.961 . S
C862 H876 0.961 . S
C863 C860 1.539 . S
C863 H877 0.958 . S
C863 H878 0.961 . S
C863 H879 0.960 . S
H864 C848 0.933 . S
H865 C853 0.939 . S
H866 C854 0.960 . S
H867 C854 0.962 . S
H868 C854 0.960 . S
H869 C855 0.961 1_556 S
H870 C855 0.961 1_556 S
H871 C855 0.961 . S
H872 C856 0.931 . S
H873 C861 0.930 . S
H874 C862 0.956 . S
H875 C862 0.961 . S
H876 C862 0.961 . S
H877 C863 0.958 . S
H878 C863 0.961 . S
H879 C863 0.960 . S
C880 C881 1.391 . S
C880 C882 1.394 . S
C880 H896 0.931 . S
C881 C880 1.391 . S
C881 C885 1.376 1_556 S
C882 C880 1.394 . S
C882 C883 1.369 . S
C882 C886 1.531 . S
C883 C882 1.369 . S
C883 C884 1.410 1_556 S
C883 C891 1.503 . S
C884 C883 1.410 1_554 S
C884 C885 1.392 . S
C884 C887 1.511 . S
C885 C881 1.376 1_554 S
C885 C884 1.392 . S
C885 H897 0.929 . S
C886 C882 1.531 . S
C886 H898 0.960 . S
C886 H899 0.962 . S
C886 H900 0.960 . S
C887 C884 1.511 . S
C887 H901 0.961 . S
C887 H902 0.961 . S
C887 H903 0.961 . S
C888 C889 1.356 1_454 S
C888 C890 1.362 1_554 S
C888 H904 0.948 1_455 S
C889 C888 1.356 1_656 S
C889 C893 1.408 . S
C890 C888 1.362 1_556 S
C890 C891 1.369 . S
C890 C894 1.525 1_556 S
C891 C883 1.503 . S
C891 C890 1.369 . S
C891 C892 1.403 . S
C892 C891 1.403 . S
C892 C893 1.404 1_455 S
C892 C895 1.539 . S
C893 C889 1.408 . S
C893 C892 1.404 1_655 S
C893 H905 0.930 . S
C894 C890 1.525 1_554 S
C894 H906 0.956 1_554 S
C894 H907 0.961 . S
C894 H908 0.961 . S
C895 C892 1.539 . S
C895 H909 0.958 . S
C895 H910 0.961 1_455 S
C895 H911 0.960 . S
H896 C880 0.931 . S
H897 C885 0.929 . S
H898 C886 0.960 . S
H899 C886 0.962 . S
H900 C886 0.960 . S
H901 C887 0.961 . S
H902 C887 0.961 . S
H903 C887 0.961 . S
H904 C888 0.948 1_655 S
H905 C893 0.930 . S
H906 C894 0.956 1_556 S
H907 C894 0.961 . S
H908 C894 0.961 . S
H909 C895 0.958 . S
H910 C895 0.961 1_655 S
H911 C895 0.960 . S
C912 C913 1.391 . S
C912 C914 1.394 . S
C912 H928 0.931 . S
C913 C912 1.391 . S
C913 C917 1.376 . S
C914 C912 1.394 . S
C914 C915 1.369 . S
C914 C918 1.531 . S
C915 C914 1.369 . S
C915 C916 1.410 . S
C915 C923 1.503 . S
C916 C915 1.410 . S
C916 C917 1.392 . S
C916 C919 1.511 . S
C917 C913 1.376 . S
C917 C916 1.392 . S
C917 H929 0.929 . S
C918 C914 1.531 . S
C918 H930 0.960 . S
C918 H931 0.962 . S
C918 H932 0.960 . S
C919 C916 1.511 . S
C919 H933 0.961 . S
C919 H934 0.961 . S
C919 H935 0.961 . S
C920 C921 1.370 . S
C920 C922 1.363 . S
C920 H936 0.931 . S
C921 C920 1.370 . S
C921 C925 1.408 . S
C922 C920 1.363 . S
C922 C923 1.370 . S
C922 C926 1.524 . S
C923 C915 1.503 . S
C923 C922 1.370 . S
C923 C924 1.403 . S
C924 C923 1.403 . S
C924 C925 1.404 . S
C924 C927 1.539 . S
C925 C921 1.408 . S
C925 C924 1.404 . S
C925 H937 0.930 . S
C926 C922 1.524 . S
C926 H938 0.956 . S
C926 H939 0.961 . S
C926 H940 0.961 . S
C927 C924 1.539 . S
C927 H941 0.958 . S
C927 H942 0.961 . S
C927 H943 0.960 . S
H928 C912 0.931 . S
H929 C917 0.929 . S
H930 C918 0.960 . S
H931 C918 0.962 . S
H932 C918 0.960 . S
H933 C919 0.961 . S
H934 C919 0.961 . S
H935 C919 0.961 . S
H936 C920 0.931 . S
H937 C925 0.930 . S
H938 C926 0.956 . S
H939 C926 0.961 . S
H940 C926 0.961 . S
H941 C927 0.958 . S
H942 C927 0.961 . S
H943 C927 0.960 . S
C944 C945 1.391 . S
C944 C946 1.394 . S
C944 H960 0.931 . S
C945 C944 1.391 . S
C945 C949 1.376 . S
C946 C944 1.394 . S
C946 C947 1.369 . S
C946 C950 1.531 . S
C947 C946 1.369 . S
C947 C948 1.410 . S
C947 C955 1.503 . S
C948 C947 1.410 . S
C948 C949 1.392 . S
C948 C951 1.511 . S
C949 C945 1.376 . S
C949 C948 1.392 . S
C949 H961 0.929 . S
C950 C946 1.531 . S
C950 H962 0.960 . S
C950 H963 0.962 . S
C950 H964 0.960 . S
C951 C948 1.511 . S
C951 H965 0.961 . S
C951 H966 0.961 . S
C951 H967 0.961 . S
C952 C953 1.370 . S
C952 C954 1.363 . S
C952 H968 0.931 . S
C953 C952 1.370 . S
C953 C957 1.408 . S
C954 C952 1.363 . S
C954 C955 1.370 . S
C954 C958 1.524 . S
C955 C947 1.503 . S
C955 C954 1.370 . S
C955 C956 1.403 . S
C956 C955 1.403 . S
C956 C957 1.404 . S
C956 C959 1.539 . S
C957 C953 1.408 . S
C957 C956 1.404 . S
C957 H969 0.930 . S
C958 C954 1.524 . S
C958 H970 0.956 . S
C958 H971 0.961 . S
C958 H972 0.961 . S
C959 C956 1.539 . S
C959 H973 0.958 . S
C959 H974 0.961 . S
C959 H975 0.960 . S
H960 C944 0.931 . S
H961 C949 0.929 . S
H962 C950 0.960 . S
H963 C950 0.962 . S
H964 C950 0.960 . S
H965 C951 0.961 . S
H966 C951 0.961 . S
H967 C951 0.961 . S
H968 C952 0.931 . S
H969 C957 0.930 . S
H970 C958 0.956 . S
H971 C958 0.961 . S
H972 C958 0.961 . S
H973 C959 0.958 . S
H974 C959 0.961 . S
H975 C959 0.960 . S
C976 C977 1.391 . S
C976 C978 1.394 . S
C976 H992 0.931 . S
C977 C976 1.391 . S
C977 C981 1.376 . S
C978 C976 1.394 . S
C978 C979 1.369 . S
C978 C982 1.531 . S
C979 C978 1.369 . S
C979 C980 1.410 . S
C979 C987 1.503 . S
C980 C979 1.410 . S
C980 C981 1.392 . S
C980 C983 1.511 . S
C981 C977 1.376 . S
C981 C980 1.392 . S
C981 H993 0.929 . S
C982 C978 1.531 . S
C982 H994 0.960 . S
C982 H995 0.962 . S
C982 H996 0.960 . S
C983 C980 1.511 . S
C983 H997 0.961 . S
C983 H998 0.961 . S
C983 H999 0.961 . S
C984 C985 1.370 . S
C984 C986 1.363 . S
C984 H1000 0.931 . S
C985 C984 1.370 . S
C985 C989 1.408 . S
C986 C984 1.363 . S
C986 C987 1.370 . S
C986 C990 1.524 . S
C987 C979 1.503 . S
C987 C986 1.370 . S
C987 C988 1.403 . S
C988 C987 1.403 . S
C988 C989 1.404 . S
C988 C991 1.539 . S
C989 C985 1.408 . S
C989 C988 1.404 . S
C989 H1001 0.930 . S
C990 C986 1.524 . S
C990 H1002 0.956 . S
C990 H1003 0.961 . S
C990 H1004 0.961 . S
C991 C988 1.539 . S
C991 H1005 0.958 . S
C991 H1006 0.961 . S
C991 H1007 0.960 . S
H992 C976 0.931 . S
H993 C981 0.929 . S
H994 C982 0.960 . S
H995 C982 0.962 . S
H996 C982 0.960 . S
H997 C983 0.961 . S
H998 C983 0.961 . S
H999 C983 0.961 . S
H1000 C984 0.931 . S
H1001 C989 0.930 . S
H1002 C990 0.956 . S
H1003 C990 0.961 . S
H1004 C990 0.961 . S
H1005 C991 0.958 . S
H1006 C991 0.961 . S
H1007 C991 0.960 . S
C1008 C1009 1.391 . S
C1008 C1010 1.394 . S
C1008 H1024 0.931 . S
C1009 C1008 1.391 . S
C1009 C1013 1.376 . S
C1010 C1008 1.394 . S
C1010 C1011 1.369 . S
C1010 C1014 1.531 . S
C1011 C1010 1.369 . S
C1011 C1012 1.410 . S
C1011 C1019 1.503 . S
C1012 C1011 1.410 . S
C1012 C1013 1.392 . S
C1012 C1015 1.511 . S
C1013 C1009 1.376 . S
C1013 C1012 1.392 . S
C1013 H1025 0.929 . S
C1014 C1010 1.531 . S
C1014 H1026 0.960 . S
C1014 H1027 0.962 . S
C1014 H1028 0.960 . S
C1015 C1012 1.511 . S
C1015 H1029 0.961 . S
C1015 H1030 0.961 . S
C1015 H1031 0.961 . S
C1016 C1017 1.370 . S
C1016 C1018 1.363 . S
C1016 H1032 0.931 . S
C1017 C1016 1.370 . S
C1017 C1021 1.408 . S
C1018 C1016 1.363 . S
C1018 C1019 1.370 . S
C1018 C1022 1.524 . S
C1019 C1011 1.503 . S
C1019 C1018 1.370 . S
C1019 C1020 1.403 . S
C1020 C1019 1.403 . S
C1020 C1021 1.404 . S
C1020 C1023 1.539 . S
C1021 C1017 1.408 . S
C1021 C1020 1.404 . S
C1021 H1033 0.930 . S
C1022 C1018 1.524 . S
C1022 H1034 0.956 . S
C1022 H1035 0.961 . S
C1022 H1036 0.961 . S
C1023 C1020 1.539 . S
C1023 H1037 0.958 . S
C1023 H1038 0.961 . S
C1023 H1039 0.960 . S
H1024 C1008 0.931 . S
H1025 C1013 0.929 . S
H1026 C1014 0.960 . S
H1027 C1014 0.962 . S
H1028 C1014 0.960 . S
H1029 C1015 0.961 . S
H1030 C1015 0.961 . S
H1031 C1015 0.961 . S
H1032 C1016 0.931 . S
H1033 C1021 0.930 . S
H1034 C1022 0.956 . S
H1035 C1022 0.961 . S
H1036 C1022 0.961 . S
H1037 C1023 0.958 . S
H1038 C1023 0.961 . S
H1039 C1023 0.960 . S
C1040 C1041 1.391 . S
C1040 C1042 1.394 . S
C1040 H1056 0.931 . S
C1041 C1040 1.391 . S
C1041 C1045 1.376 . S
C1042 C1040 1.394 . S
C1042 C1043 1.369 . S
C1042 C1046 1.531 . S
C1043 C1042 1.369 . S
C1043 C1044 1.410 . S
C1043 C1051 1.503 . S
C1044 C1043 1.410 . S
C1044 C1045 1.392 . S
C1044 C1047 1.511 . S
C1045 C1041 1.376 . S
C1045 C1044 1.392 . S
C1045 H1057 0.929 . S
C1046 C1042 1.531 . S
C1046 H1058 0.960 . S
C1046 H1059 0.962 . S
C1046 H1060 0.960 . S
C1047 C1044 1.511 . S
C1047 H1061 0.961 . S
C1047 H1062 0.961 . S
C1047 H1063 0.961 . S
C1048 C1049 1.370 . S
C1048 C1050 1.363 . S
C1048 H1064 0.931 . S
C1049 C1048 1.370 . S
C1049 C1053 1.408 . S
C1050 C1048 1.363 . S
C1050 C1051 1.370 . S
C1050 C1054 1.524 . S
C1051 C1043 1.503 . S
C1051 C1050 1.370 . S
C1051 C1052 1.403 . S
C1052 C1051 1.403 . S
C1052 C1053 1.404 . S
C1052 C1055 1.539 . S
C1053 C1049 1.408 . S
C1053 C1052 1.404 . S
C1053 H1065 0.930 . S
C1054 C1050 1.524 . S
C1054 H1066 0.956 . S
C1054 H1067 0.961 . S
C1054 H1068 0.961 . S
C1055 C1052 1.539 . S
C1055 H1069 0.958 . S
C1055 H1070 0.961 . S
C1055 H1071 0.960 . S
H1056 C1040 0.931 . S
H1057 C1045 0.929 . S
H1058 C1046 0.960 . S
H1059 C1046 0.962 . S
H1060 C1046 0.960 . S
H1061 C1047 0.961 . S
H1062 C1047 0.961 . S
H1063 C1047 0.961 . S
H1064 C1048 0.931 . S
H1065 C1053 0.930 . S
H1066 C1054 0.956 . S
H1067 C1054 0.961 . S
H1068 C1054 0.961 . S
H1069 C1055 0.958 . S
H1070 C1055 0.961 . S
H1071 C1055 0.960 . S
C1072 C1073 1.391 . S
C1072 C1074 1.394 . S
C1072 H1088 0.931 . S
C1073 C1072 1.391 . S
C1073 C1077 1.376 . S
C1074 C1072 1.394 . S
C1074 C1075 1.369 . S
C1074 C1078 1.531 . S
C1075 C1074 1.369 . S
C1075 C1076 1.410 . S
C1075 C1083 1.503 . S
C1076 C1075 1.410 . S
C1076 C1077 1.392 . S
C1076 C1079 1.511 . S
C1077 C1073 1.376 . S
C1077 C1076 1.392 . S
C1077 H1089 0.929 . S
C1078 C1074 1.531 . S
C1078 H1090 0.960 . S
C1078 H1091 0.962 . S
C1078 H1092 0.960 . S
C1079 C1076 1.511 . S
C1079 H1093 0.961 . S
C1079 H1094 0.961 . S
C1079 H1095 0.961 . S
C1080 C1081 1.370 . S
C1080 C1082 1.363 . S
C1080 H1096 0.931 . S
C1081 C1080 1.370 . S
C1081 C1085 1.408 . S
C1082 C1080 1.363 . S
C1082 C1083 1.370 . S
C1082 C1086 1.524 . S
C1083 C1075 1.503 . S
C1083 C1082 1.370 . S
C1083 C1084 1.403 . S
C1084 C1083 1.403 . S
C1084 C1085 1.404 . S
C1084 C1087 1.539 . S
C1085 C1081 1.408 . S
C1085 C1084 1.404 . S
C1085 H1097 0.930 . S
C1086 C1082 1.524 . S
C1086 H1098 0.956 . S
C1086 H1099 0.961 . S
C1086 H1100 0.961 . S
C1087 C1084 1.539 . S
C1087 H1101 0.958 . S
C1087 H1102 0.961 . S
C1087 H1103 0.960 . S
H1088 C1072 0.931 . S
H1089 C1077 0.929 . S
H1090 C1078 0.960 . S
H1091 C1078 0.962 . S
H1092 C1078 0.960 . S
H1093 C1079 0.961 . S
H1094 C1079 0.961 . S
H1095 C1079 0.961 . S
H1096 C1080 0.931 . S
H1097 C1085 0.930 . S
H1098 C1086 0.956 . S
H1099 C1086 0.961 . S
H1100 C1086 0.961 . S
H1101 C1087 0.958 . S
H1102 C1087 0.961 . S
H1103 C1087 0.960 . S
C1104 C1105 1.391 . S
C1104 C1106 1.394 . S
C1104 H1120 0.931 . S
C1105 C1104 1.391 . S
C1105 C1109 1.376 . S
C1106 C1104 1.394 . S
C1106 C1107 1.369 . S
C1106 C1110 1.531 . S
C1107 C1106 1.369 . S
C1107 C1108 1.410 . S
C1107 C1115 1.503 . S
C1108 C1107 1.410 . S
C1108 C1109 1.392 . S
C1108 C1111 1.511 . S
C1109 C1105 1.376 . S
C1109 C1108 1.392 . S
C1109 H1121 0.929 . S
C1110 C1106 1.531 . S
C1110 H1122 0.960 . S
C1110 H1123 0.962 . S
C1110 H1124 0.960 . S
C1111 C1108 1.511 . S
C1111 H1125 0.961 . S
C1111 H1126 0.961 . S
C1111 H1127 0.961 . S
C1112 C1113 1.370 . S
C1112 C1114 1.363 . S
C1112 H1128 0.931 . S
C1113 C1112 1.370 . S
C1113 C1117 1.408 . S
C1114 C1112 1.363 . S
C1114 C1115 1.370 . S
C1114 C1118 1.524 . S
C1115 C1107 1.503 . S
C1115 C1114 1.370 . S
C1115 C1116 1.403 . S
C1116 C1115 1.403 . S
C1116 C1117 1.404 . S
C1116 C1119 1.539 . S
C1117 C1113 1.408 . S
C1117 C1116 1.404 . S
C1117 H1129 0.930 . S
C1118 C1114 1.524 . S
C1118 H1130 0.956 . S
C1118 H1131 0.961 . S
C1118 H1132 0.961 . S
C1119 C1116 1.539 . S
C1119 H1133 0.958 . S
C1119 H1134 0.961 . S
C1119 H1135 0.960 . S
H1120 C1104 0.931 . S
H1121 C1109 0.929 . S
H1122 C1110 0.960 . S
H1123 C1110 0.962 . S
H1124 C1110 0.960 . S
H1125 C1111 0.961 . S
H1126 C1111 0.961 . S
H1127 C1111 0.961 . S
H1128 C1112 0.931 . S
H1129 C1117 0.930 . S
H1130 C1118 0.956 . S
H1131 C1118 0.961 . S
H1132 C1118 0.961 . S
H1133 C1119 0.958 . S
H1134 C1119 0.961 . S
H1135 C1119 0.960 . S
C1136 C1137 1.391 . S
C1136 C1138 1.394 . S
C1136 H1152 0.931 . S
C1137 C1136 1.391 . S
C1137 C1141 1.376 . S
C1138 C1136 1.394 . S
C1138 C1139 1.369 . S
C1138 C1142 1.531 . S
C1139 C1138 1.369 . S
C1139 C1140 1.410 . S
C1139 C1147 1.503 . S
C1140 C1139 1.410 . S
C1140 C1141 1.392 . S
C1140 C1143 1.511 . S
C1141 C1137 1.376 . S
C1141 C1140 1.392 . S
C1141 H1153 0.929 . S
C1142 C1138 1.531 . S
C1142 H1154 0.960 . S
C1142 H1155 0.962 . S
C1142 H1156 0.960 . S
C1143 C1140 1.511 . S
C1143 H1157 0.961 . S
C1143 H1158 0.961 . S
C1143 H1159 0.961 . S
C1144 C1145 1.370 . S
C1144 C1146 1.363 . S
C1144 H1160 0.931 . S
C1145 C1144 1.370 . S
C1145 C1149 1.408 . S
C1146 C1144 1.363 . S
C1146 C1147 1.370 . S
C1146 C1150 1.524 . S
C1147 C1139 1.503 . S
C1147 C1146 1.370 . S
C1147 C1148 1.403 . S
C1148 C1147 1.403 . S
C1148 C1149 1.404 . S
C1148 C1151 1.539 . S
C1149 C1145 1.408 . S
C1149 C1148 1.404 . S
C1149 H1161 0.930 . S
C1150 C1146 1.524 . S
C1150 H1162 0.956 . S
C1150 H1163 0.961 . S
C1150 H1164 0.961 . S
C1151 C1148 1.539 . S
C1151 H1165 0.958 . S
C1151 H1166 0.961 . S
C1151 H1167 0.960 . S
H1152 C1136 0.931 . S
H1153 C1141 0.929 . S
H1154 C1142 0.960 . S
H1155 C1142 0.962 . S
H1156 C1142 0.960 . S
H1157 C1143 0.961 . S
H1158 C1143 0.961 . S
H1159 C1143 0.961 . S
H1160 C1144 0.931 . S
H1161 C1149 0.930 . S
H1162 C1150 0.956 . S
H1163 C1150 0.961 . S
H1164 C1150 0.961 . S
H1165 C1151 0.958 . S
H1166 C1151 0.961 . S
H1167 C1151 0.960 . S
C1168 C1169 1.395 . S
C1168 C1170 1.389 1_565 S
C1168 H1184 0.932 . S
C1169 C1168 1.395 . S
C1169 C1173 1.376 . S
C1170 C1168 1.389 1_545 S
C1170 C1171 1.369 . S
C1170 C1174 1.531 . S
C1171 C1170 1.369 . S
C1171 C1172 1.410 . S
C1171 C1179 1.503 . S
C1172 C1171 1.410 . S
C1172 C1173 1.392 1_545 S
C1172 C1175 1.511 . S
C1173 C1169 1.376 . S
C1173 C1172 1.392 1_565 S
C1173 H1185 0.929 . S
C1174 C1170 1.531 . S
C1174 H1186 0.960 . S
C1174 H1187 0.962 . S
C1174 H1188 0.960 . S
C1175 C1172 1.511 . S
C1175 H1189 0.961 1_545 S
C1175 H1190 0.961 . S
C1175 H1191 0.961 . S
C1176 C1177 1.370 . S
C1176 C1178 1.363 . S
C1176 H1192 0.931 . S
C1177 C1176 1.370 . S
C1177 C1181 1.408 . S
C1178 C1176 1.363 . S
C1178 C1179 1.370 . S
C1178 C1182 1.524 . S
C1179 C1171 1.503 . S
C1179 C1178 1.370 . S
C1179 C1180 1.403 . S
C1180 C1179 1.403 . S
C1180 C1181 1.404 . S
C1180 C1183 1.539 . S
C1181 C1177 1.408 . S
C1181 C1180 1.404 . S
C1181 H1193 0.930 . S
C1182 C1178 1.524 . S
C1182 H1194 0.956 . S
C1182 H1195 0.961 . S
C1182 H1196 0.961 . S
C1183 C1180 1.539 . S
C1183 H1197 0.958 . S
C1183 H1198 0.961 . S
C1183 H1199 0.960 . S
H1184 C1168 0.932 . S
H1185 C1173 0.929 . S
H1186 C1174 0.960 . S
H1187 C1174 0.962 . S
H1188 C1174 0.960 . S
H1189 C1175 0.961 1_565 S
H1190 C1175 0.961 . S
H1191 C1175 0.961 . S
H1192 C1176 0.931 . S
H1193 C1181 0.930 . S
H1194 C1182 0.956 . S
H1195 C1182 0.961 . S
H1196 C1182 0.961 . S
H1197 C1183 0.958 . S
H1198 C1183 0.961 . S
H1199 C1183 0.960 . S
C1200 C1201 1.391 . S
C1200 C1202 1.394 . S
C1200 H1216 0.931 . S
C1201 C1200 1.391 . S
C1201 C1205 1.376 . S
C1202 C1200 1.394 . S
C1202 C1203 1.369 . S
C1202 C1206 1.531 . S
C1203 C1202 1.369 . S
C1203 C1204 1.410 . S
C1203 C1211 1.503 . S
C1204 C1203 1.410 . S
C1204 C1205 1.392 . S
C1204 C1207 1.511 . S
C1205 C1201 1.376 . S
C1205 C1204 1.392 . S
C1205 H1217 0.929 . S
C1206 C1202 1.531 . S
C1206 H1218 0.960 . S
C1206 H1219 0.962 . S
C1206 H1220 0.960 . S
C1207 C1204 1.511 . S
C1207 H1221 0.961 . S
C1207 H1222 0.961 . S
C1207 H1223 0.961 . S
C1208 C1209 1.370 . S
C1208 C1210 1.363 1_655 S
C1208 H1224 0.931 . S
C1209 C1208 1.370 . S
C1209 C1213 1.408 . S
C1210 C1208 1.363 1_455 S
C1210 C1211 1.370 . S
C1210 C1214 1.524 . S
C1211 C1203 1.503 . S
C1211 C1210 1.370 . S
C1211 C1212 1.403 . S
C1212 C1211 1.403 . S
C1212 C1213 1.404 1_455 S
C1212 C1215 1.539 . S
C1213 C1209 1.408 . S
C1213 C1212 1.404 1_655 S
C1213 H1225 0.930 . S
C1214 C1210 1.524 . S
C1214 H1226 0.956 . S
C1214 H1227 0.961 . S
C1214 H1228 0.961 . S
C1215 C1212 1.539 . S
C1215 H1229 0.958 . S
C1215 H1230 0.961 . S
C1215 H1231 0.960 . S
H1216 C1200 0.931 . S
H1217 C1205 0.929 . S
H1218 C1206 0.960 . S
H1219 C1206 0.962 . S
H1220 C1206 0.960 . S
H1221 C1207 0.961 . S
H1222 C1207 0.961 . S
H1223 C1207 0.961 . S
H1224 C1208 0.931 . S
H1225 C1213 0.930 . S
H1226 C1214 0.956 . S
H1227 C1214 0.961 . S
H1228 C1214 0.961 . S
H1229 C1215 0.958 . S
H1230 C1215 0.961 . S
H1231 C1215 0.960 . S
C1232 C1233 1.391 . S
C1232 C1234 1.394 . S
C1232 H1248 0.931 . S
C1233 C1232 1.391 . S
C1233 C1237 1.376 . S
C1234 C1232 1.394 . S
C1234 C1235 1.369 . S
C1234 C1238 1.531 . S
C1235 C1234 1.369 . S
C1235 C1236 1.410 . S
C1235 C1243 1.503 . S
C1236 C1235 1.410 . S
C1236 C1237 1.392 . S
C1236 C1239 1.511 . S
C1237 C1233 1.376 . S
C1237 C1236 1.392 . S
C1237 H1249 0.929 . S
C1238 C1234 1.531 . S
C1238 H1250 0.960 . S
C1238 H1251 0.962 . S
C1238 H1252 0.960 . S
C1239 C1236 1.511 . S
C1239 H1253 0.961 . S
C1239 H1254 0.961 . S
C1239 H1255 0.961 . S
C1240 C1241 1.370 . S
C1240 C1242 1.363 1_545 S
C1240 H1256 0.931 . S
C1241 C1240 1.370 . S
C1241 C1245 1.408 . S
C1242 C1240 1.363 1_565 S
C1242 C1243 1.370 . S
C1242 C1246 1.524 . S
C1243 C1235 1.503 . S
C1243 C1242 1.370 . S
C1243 C1244 1.403 . S
C1244 C1243 1.403 . S
C1244 C1245 1.404 1_565 S
C1244 C1247 1.539 . S
C1245 C1241 1.408 . S
C1245 C1244 1.404 1_545 S
C1245 H1257 0.930 . S
C1246 C1242 1.524 . S
C1246 H1258 0.956 . S
C1246 H1259 0.961 . S
C1246 H1260 0.961 . S
C1247 C1244 1.539 . S
C1247 H1261 0.958 . S
C1247 H1262 0.961 . S
C1247 H1263 0.960 . S
H1248 C1232 0.931 . S
H1249 C1237 0.929 . S
H1250 C1238 0.960 . S
H1251 C1238 0.962 . S
H1252 C1238 0.960 . S
H1253 C1239 0.961 . S
H1254 C1239 0.961 . S
H1255 C1239 0.961 . S
H1256 C1240 0.931 . S
H1257 C1245 0.930 . S
H1258 C1246 0.956 . S
H1259 C1246 0.961 . S
H1260 C1246 0.961 . S
H1261 C1247 0.958 . S
H1262 C1247 0.961 . S
H1263 C1247 0.960 . S
C1264 C1265 1.391 . S
C1264 C1266 1.394 1_455 S
C1264 H1280 0.931 . S
C1265 C1264 1.391 . S
C1265 C1269 1.376 . S
C1266 C1264 1.394 1_655 S
C1266 C1267 1.369 . S
C1266 C1270 1.531 . S
C1267 C1266 1.369 . S
C1267 C1268 1.410 . S
C1267 C1275 1.503 . S
C1268 C1267 1.410 . S
C1268 C1269 1.392 1_655 S
C1268 C1271 1.511 . S
C1269 C1265 1.376 . S
C1269 C1268 1.392 1_455 S
C1269 H1281 0.929 . S
C1270 C1266 1.531 . S
C1270 H1282 0.960 . S
C1270 H1283 0.962 . S
C1270 H1284 0.960 . S
C1271 C1268 1.511 . S
C1271 H1285 0.961 . S
C1271 H1286 0.961 . S
C1271 H1287 0.961 . S
C1272 C1273 1.370 . S
C1272 C1274 1.363 . S
C1272 H1288 0.931 . S
C1273 C1272 1.370 . S
C1273 C1277 1.408 . S
C1274 C1272 1.363 . S
C1274 C1275 1.370 . S
C1274 C1278 1.524 . S
C1275 C1267 1.503 . S
C1275 C1274 1.370 . S
C1275 C1276 1.403 . S
C1276 C1275 1.403 . S
C1276 C1277 1.404 . S
C1276 C1279 1.539 . S
C1277 C1273 1.408 . S
C1277 C1276 1.404 . S
C1277 H1289 0.930 . S
C1278 C1274 1.524 . S
C1278 H1290 0.956 . S
C1278 H1291 0.961 . S
C1278 H1292 0.961 . S
C1279 C1276 1.539 . S
C1279 H1293 0.958 . S
C1279 H1294 0.961 . S
C1279 H1295 0.960 . S
H1280 C1264 0.931 . S
H1281 C1269 0.929 . S
H1282 C1270 0.960 . S
H1283 C1270 0.962 . S
H1284 C1270 0.960 . S
H1285 C1271 0.961 . S
H1286 C1271 0.961 . S
H1287 C1271 0.961 . S
H1288 C1272 0.931 . S
H1289 C1277 0.930 . S
H1290 C1278 0.956 . S
H1291 C1278 0.961 . S
H1292 C1278 0.961 . S
H1293 C1279 0.958 . S
H1294 C1279 0.961 . S
H1295 C1279 0.960 . S
C1296 C1297 1.391 . S
C1296 C1298 1.394 1_545 S
C1296 H1312 0.931 . S
C1297 C1296 1.391 . S
C1297 C1301 1.376 . S
C1298 C1296 1.394 1_565 S
C1298 C1299 1.369 1_565 S
C1298 C1302 1.531 . S
C1299 C1298 1.369 1_545 S
C1299 C1300 1.410 . S
C1299 C1307 1.503 1_545 S
C1300 C1299 1.410 . S
C1300 C1301 1.392 . S
C1300 C1303 1.511 . S
C1301 C1297 1.376 . S
C1301 C1300 1.392 . S
C1301 H1313 0.929 . S
C1302 C1298 1.531 . S
C1302 H1314 0.960 . S
C1302 H1315 0.962 1_556 S
C1302 H1316 0.960 . S
C1303 C1300 1.511 . S
C1303 H1317 0.961 . S
C1303 H1318 0.961 . S
C1303 H1319 0.961 . S
C1304 C1305 1.370 1_554 S
C1304 C1306 1.363 . S
C1304 H1320 0.931 . S
C1305 C1304 1.370 1_556 S
C1305 C1309 1.408 . S
C1306 C1304 1.363 . S
C1306 C1307 1.370 1_554 S
C1306 C1310 1.524 . S
C1307 C1299 1.503 1_565 S
C1307 C1306 1.370 1_556 S
C1307 C1308 1.403 . S
C1308 C1307 1.403 . S
C1308 C1309 1.404 . S
C1308 C1311 1.539 . S
C1309 C1305 1.408 . S
C1309 C1308 1.404 . S
C1309 H1321 0.930 . S
C1310 C1306 1.524 . S
C1310 H1322 0.956 . S
C1310 H1323 0.961 1_565 S
C1310 H1324 0.961 . S
C1311 C1308 1.539 . S
C1311 H1325 0.958 . S
C1311 H1326 0.961 . S
C1311 H1327 0.935 1_565 S
H1312 C1296 0.931 . S
H1313 C1301 0.929 . S
H1314 C1302 0.960 . S
H1315 C1302 0.962 1_554 S
H1316 C1302 0.960 . S
H1317 C1303 0.961 . S
H1318 C1303 0.961 . S
H1319 C1303 0.961 . S
H1320 C1304 0.931 . S
H1321 C1309 0.930 . S
H1322 C1310 0.956 . S
H1323 C1310 0.961 1_545 S
H1324 C1310 0.961 . S
H1325 C1311 0.958 . S
H1326 C1311 0.961 . S
H1327 C1311 0.935 1_545 S
C1328 C1329 1.391 1_556 S
C1328 C1330 1.394 . S
C1328 H1344 0.931 . S
C1329 C1328 1.391 1_554 S
C1329 C1333 1.376 . S
C1330 C1328 1.394 . S
C1330 C1331 1.369 1_556 S
C1330 C1334 1.531 . S
C1331 C1330 1.369 1_554 S
C1331 C1332 1.410 . S
C1331 C1339 1.503 1_455 S
C1332 C1331 1.410 . S
C1332 C1333 1.392 . S
C1332 C1335 1.511 1_455 S
C1333 C1329 1.376 . S
C1333 C1332 1.392 . S
C1333 H1345 0.929 . S
C1334 C1330 1.531 . S
C1334 H1346 0.960 . S
C1334 H1347 0.962 . S
C1334 H1348 0.960 . S
C1335 C1332 1.511 1_655 S
C1335 H1349 0.961 . S
C1335 H1350 0.961 . S
C1335 H1351 0.961 . S
C1336 C1337 1.370 1_556 S
C1336 C1338 1.363 . S
C1336 H1352 0.931 . S
C1337 C1336 1.370 1_554 S
C1337 C1341 1.408 . S
C1338 C1336 1.363 . S
C1338 C1339 1.370 1_556 S
C1338 C1342 1.524 . S
C1339 C1331 1.503 1_655 S
C1339 C1338 1.370 1_554 S
C1339 C1340 1.403 . S
C1340 C1339 1.403 . S
C1340 C1341 1.404 . S
C1340 C1343 1.539 1_655 S
C1341 C1337 1.408 . S
C1341 C1340 1.404 . S
C1341 H1353 0.930 . S
C1342 C1338 1.524 . S
C1342 H1354 0.956 . S
C1342 H1355 0.961 . S
C1342 H1356 0.961 . S
C1343 C1340 1.539 1_455 S
C1343 H1357 0.958 . S
C1343 H1358 0.961 . S
C1343 H1359 0.960 . S
H1344 C1328 0.931 . S
H1345 C1333 0.929 . S
H1346 C1334 0.960 . S
H1347 C1334 0.962 . S
H1348 C1334 0.960 . S
H1349 C1335 0.961 . S
H1350 C1335 0.961 . S
H1351 C1335 0.961 . S
H1352 C1336 0.931 . S
H1353 C1341 0.930 . S
H1354 C1342 0.956 . S
H1355 C1342 0.961 . S
H1356 C1342 0.961 . S
H1357 C1343 0.958 . S
H1358 C1343 0.961 . S
H1359 C1343 0.960 . S
C1360 C1361 1.391 . S
C1360 C1362 1.394 . S
C1360 H1376 0.931 . S
C1361 C1360 1.391 . S
C1361 C1365 1.376 . S
C1362 C1360 1.394 . S
C1362 C1363 1.369 . S
C1362 C1366 1.531 . S
C1363 C1362 1.369 . S
C1363 C1364 1.410 . S
C1363 C1371 1.503 . S
C1364 C1363 1.410 . S
C1364 C1365 1.392 . S
C1364 C1367 1.511 . S
C1365 C1361 1.376 . S
C1365 C1364 1.392 . S
C1365 H1377 0.929 . S
C1366 C1362 1.531 . S
C1366 H1378 0.960 . S
C1366 H1379 0.962 . S
C1366 H1380 0.960 . S
C1367 C1364 1.511 . S
C1367 H1381 0.961 . S
C1367 H1382 0.961 . S
C1367 H1383 0.961 . S
C1368 C1369 1.370 . S
C1368 C1370 1.363 . S
C1368 H1384 0.931 . S
C1369 C1368 1.370 . S
C1369 C1373 1.408 . S
C1370 C1368 1.363 . S
C1370 C1371 1.370 . S
C1370 C1374 1.524 . S
C1371 C1363 1.503 . S
C1371 C1370 1.370 . S
C1371 C1372 1.403 . S
C1372 C1371 1.403 . S
C1372 C1373 1.404 . S
C1372 C1375 1.539 . S
C1373 C1369 1.408 . S
C1373 C1372 1.404 . S
C1373 H1385 0.930 . S
C1374 C1370 1.524 . S
C1374 H1386 0.956 . S
C1374 H1387 0.961 . S
C1374 H1388 0.961 . S
C1375 C1372 1.539 . S
C1375 H1389 0.958 . S
C1375 H1390 0.961 . S
C1375 H1391 0.960 . S
H1376 C1360 0.931 . S
H1377 C1365 0.929 . S
H1378 C1366 0.960 . S
H1379 C1366 0.962 . S
H1380 C1366 0.960 . S
H1381 C1367 0.961 . S
H1382 C1367 0.961 . S
H1383 C1367 0.961 . S
H1384 C1368 0.931 . S
H1385 C1373 0.930 . S
H1386 C1374 0.956 . S
H1387 C1374 0.961 . S
H1388 C1374 0.961 . S
H1389 C1375 0.958 . S
H1390 C1375 0.961 . S
H1391 C1375 0.960 . S
C1392 C1393 1.391 . S
C1392 C1394 1.394 . S
C1392 H1408 0.931 . S
C1393 C1392 1.391 . S
C1393 C1397 1.376 . S
C1394 C1392 1.394 . S
C1394 C1395 1.369 . S
C1394 C1398 1.531 . S
C1395 C1394 1.369 . S
C1395 C1396 1.410 . S
C1395 C1403 1.503 . S
C1396 C1395 1.410 . S
C1396 C1397 1.392 . S
C1396 C1399 1.511 . S
C1397 C1393 1.376 . S
C1397 C1396 1.392 . S
C1397 H1409 0.929 . S
C1398 C1394 1.531 . S
C1398 H1410 0.960 . S
C1398 H1411 0.962 . S
C1398 H1412 0.960 . S
C1399 C1396 1.511 . S
C1399 H1413 0.961 . S
C1399 H1414 0.961 . S
C1399 H1415 0.961 . S
C1400 C1401 1.370 . S
C1400 C1402 1.363 . S
C1400 H1416 0.931 . S
C1401 C1400 1.370 . S
C1401 C1405 1.408 . S
C1402 C1400 1.363 . S
C1402 C1403 1.370 . S
C1402 C1406 1.524 . S
C1403 C1395 1.503 . S
C1403 C1402 1.370 . S
C1403 C1404 1.403 . S
C1404 C1403 1.403 . S
C1404 C1405 1.404 . S
C1404 C1407 1.539 . S
C1405 C1401 1.408 . S
C1405 C1404 1.404 . S
C1405 H1417 0.930 . S
C1406 C1402 1.524 . S
C1406 H1418 0.956 . S
C1406 H1419 0.961 . S
C1406 H1420 0.961 . S
C1407 C1404 1.539 . S
C1407 H1421 0.958 . S
C1407 H1422 0.961 . S
C1407 H1423 0.960 . S
H1408 C1392 0.931 . S
H1409 C1397 0.929 . S
H1410 C1398 0.960 . S
H1411 C1398 0.962 . S
H1412 C1398 0.960 . S
H1413 C1399 0.961 . S
H1414 C1399 0.961 . S
H1415 C1399 0.961 . S
H1416 C1400 0.931 . S
H1417 C1405 0.930 . S
H1418 C1406 0.956 . S
H1419 C1406 0.961 . S
H1420 C1406 0.961 . S
H1421 C1407 0.958 . S
H1422 C1407 0.961 . S
H1423 C1407 0.960 . S
C1424 C1425 1.391 . S
C1424 C1426 1.394 . S
C1424 H1440 0.931 . S
C1425 C1424 1.391 . S
C1425 C1429 1.376 . S
C1426 C1424 1.394 . S
C1426 C1427 1.369 . S
C1426 C1430 1.531 1_655 S
C1427 C1426 1.369 . S
C1427 C1428 1.410 . S
C1427 C1435 1.503 1_655 S
C1428 C1427 1.410 . S
C1428 C1429 1.392 . S
C1428 C1431 1.511 . S
C1429 C1425 1.376 . S
C1429 C1428 1.392 . S
C1429 H1441 0.929 . S
C1430 C1426 1.531 1_455 S
C1430 H1442 0.960 . S
C1430 H1443 0.962 . S
C1430 H1444 0.960 1_455 S
C1431 C1428 1.511 . S
C1431 H1445 0.961 . S
C1431 H1446 0.961 . S
C1431 H1447 0.961 . S
C1432 C1433 1.370 . S
C1432 C1434 1.363 . S
C1432 H1448 0.931 . S
C1433 C1432 1.370 . S
C1433 C1437 1.408 . S
C1434 C1432 1.363 . S
C1434 C1435 1.370 . S
C1434 C1438 1.524 . S
C1435 C1427 1.503 1_455 S
C1435 C1434 1.370 . S
C1435 C1436 1.403 . S
C1436 C1435 1.403 . S
C1436 C1437 1.404 . S
C1436 C1439 1.539 1_455 S
C1437 C1433 1.408 . S
C1437 C1436 1.404 . S
C1437 H1449 0.930 . S
C1438 C1434 1.524 . S
C1438 H1450 0.956 . S
C1438 H1451 0.961 . S
C1438 H1452 0.961 . S
C1439 C1436 1.539 1_655 S
C1439 H1453 0.958 . S
C1439 H1454 0.961 . S
C1439 H1455 0.960 . S
H1440 C1424 0.931 . S
H1441 C1429 0.929 . S
H1442 C1430 0.960 . S
H1443 C1430 0.962 . S
H1444 C1430 0.960 1_655 S
H1445 C1431 0.961 . S
H1446 C1431 0.961 . S
H1447 C1431 0.961 . S
H1448 C1432 0.931 . S
H1449 C1437 0.930 . S
H1450 C1438 0.956 . S
H1451 C1438 0.961 . S
H1452 C1438 0.961 . S
H1453 C1439 0.958 . S
H1454 C1439 0.961 . S
H1455 C1439 0.960 . S
C1456 C1457 1.391 . S
C1456 C1458 1.394 . S
C1456 H1472 0.931 . S
C1457 C1456 1.391 . S
C1457 C1461 1.376 . S
C1458 C1456 1.394 . S
C1458 C1459 1.369 . S
C1458 C1462 1.531 1_545 S
C1459 C1458 1.369 . S
C1459 C1460 1.410 . S
C1459 C1467 1.503 1_545 S
C1460 C1459 1.410 . S
C1460 C1461 1.392 . S
C1460 C1463 1.511 . S
C1461 C1457 1.376 . S
C1461 C1460 1.392 . S
C1461 H1473 0.929 . S
C1462 C1458 1.531 1_565 S
C1462 H1474 0.960 . S
C1462 H1475 0.962 . S
C1462 H1476 0.960 . S
C1463 C1460 1.511 . S
C1463 H1477 0.961 . S
C1463 H1478 0.961 . S
C1463 H1479 0.961 . S
C1464 C1465 1.370 . S
C1464 C1466 1.363 . S
C1464 H1480 0.931 . S
C1465 C1464 1.370 . S
C1465 C1469 1.408 . S
C1466 C1464 1.363 . S
C1466 C1467 1.370 . S
C1466 C1470 1.524 1_565 S
C1467 C1459 1.503 1_565 S
C1467 C1466 1.370 . S
C1467 C1468 1.403 . S
C1468 C1467 1.403 . S
C1468 C1469 1.404 . S
C1468 C1471 1.539 . S
C1469 C1465 1.408 . S
C1469 C1468 1.404 . S
C1469 H1481 0.930 . S
C1470 C1466 1.524 1_545 S
C1470 H1482 0.956 . S
C1470 H1483 0.961 . S
C1470 H1484 0.961 . S
C1471 C1468 1.539 . S
C1471 H1485 0.958 . S
C1471 H1486 0.961 . S
C1471 H1487 0.960 . S
H1472 C1456 0.931 . S
H1473 C1461 0.929 . S
H1474 C1462 0.960 . S
H1475 C1462 0.962 . S
H1476 C1462 0.960 . S
H1477 C1463 0.961 . S
H1478 C1463 0.961 . S
H1479 C1463 0.961 . S
H1480 C1464 0.931 . S
H1481 C1469 0.930 . S
H1482 C1470 0.956 . S
H1483 C1470 0.961 . S
H1484 C1470 0.961 . S
H1485 C1471 0.958 . S
H1486 C1471 0.961 . S
H1487 C1471 0.960 . S
C1488 C1489 1.391 . S
C1488 C1490 1.394 1_565 S
C1488 H1504 0.931 . S
C1489 C1488 1.391 . S
C1489 C1493 1.376 . S
C1490 C1488 1.394 1_545 S
C1490 C1491 1.369 1_545 S
C1490 C1494 1.531 . S
C1491 C1490 1.369 1_565 S
C1491 C1492 1.410 . S
C1491 C1499 1.503 1_665 S
C1492 C1491 1.410 . S
C1492 C1493 1.392 . S
C1492 C1495 1.511 1_655 S
C1493 C1489 1.376 . S
C1493 C1492 1.392 . S
C1493 H1505 0.929 . S
C1494 C1490 1.531 . S
C1494 H1506 0.960 . S
C1494 H1507 0.962 . S
C1494 H1508 0.960 . S
C1495 C1492 1.511 1_455 S
C1495 H1509 0.961 . S
C1495 H1510 0.961 . S
C1495 H1511 0.961 . S
C1496 C1497 1.370 . S
C1496 C1498 1.363 . S
C1496 H1512 0.931 . S
C1497 C1496 1.370 . S
C1497 C1501 1.408 . S
C1498 C1496 1.363 . S
C1498 C1499 1.370 . S
C1498 C1502 1.524 1_545 S
C1499 C1491 1.503 1_445 S
C1499 C1498 1.370 . S
C1499 C1500 1.403 . S
C1500 C1499 1.403 . S
C1500 C1501 1.404 . S
C1500 C1503 1.539 . S
C1501 C1497 1.408 . S
C1501 C1500 1.404 . S
C1501 H1513 0.930 . S
C1502 C1498 1.524 1_565 S
C1502 H1514 0.961 . S
C1502 H1515 0.961 . S
C1502 H1516 0.961 . S
C1503 C1500 1.539 . S
C1503 H1517 0.958 1_455 S
C1503 H1518 0.961 . S
C1503 H1519 0.960 1_455 S
H1504 C1488 0.931 . S
H1505 C1493 0.929 . S
H1506 C1494 0.960 . S
H1507 C1494 0.962 . S
H1508 C1494 0.960 . S
H1509 C1495 0.961 . S
H1510 C1495 0.961 . S
H1511 C1495 0.961 . S
H1512 C1496 0.931 . S
H1513 C1501 0.930 . S
H1514 C1502 0.961 . S
H1515 C1502 0.961 . S
H1516 C1502 0.961 . S
H1517 C1503 0.958 1_655 S
H1518 C1503 0.961 . S
H1519 C1503 0.960 1_655 S
C1520 C1521 1.391 . S
C1520 C1522 1.406 . S
C1520 H1536 0.931 . S
C1521 C1520 1.391 . S
C1521 C1525 1.376 . S
C1522 C1520 1.406 . S
C1522 C1523 1.376 . S
C1522 C1526 1.511 1_655 S
C1523 C1522 1.376 . S
C1523 C1524 1.410 . S
C1523 C1531 1.503 1_645 S
C1524 C1523 1.410 . S
C1524 C1525 1.392 . S
C1524 C1527 1.511 1_545 S
C1525 C1521 1.376 . S
C1525 C1524 1.392 . S
C1525 H1537 0.929 . S
C1526 C1522 1.511 1_455 S
C1526 H1538 0.960 . S
C1526 H1539 0.962 . S
C1526 H1540 0.960 . S
C1527 C1524 1.511 1_565 S
C1527 H1541 0.961 . S
C1527 H1542 0.961 . S
C1527 H1543 0.961 . S
C1528 C1529 1.370 . S
C1528 C1530 1.363 . S
C1528 H1544 0.931 . S
C1529 C1528 1.370 . S
C1529 C1533 1.408 . S
C1530 C1528 1.363 . S
C1530 C1531 1.370 . S
C1530 C1534 1.524 . S
C1531 C1523 1.503 1_465 S
C1531 C1530 1.370 . S
C1531 C1532 1.403 . S
C1532 C1531 1.403 . S
C1532 C1533 1.404 . S
C1532 C1535 1.539 . S
C1533 C1529 1.408 . S
C1533 C1532 1.404 . S
C1533 H1545 0.930 . S
C1534 C1530 1.524 . S
C1534 H1546 0.956 1_565 S
C1534 H1547 0.961 1_455 S
C1534 H1548 0.961 . S
C1535 C1532 1.539 . S
C1535 H1549 0.958 . S
C1535 H1550 0.965 . S
C1535 H1551 0.960 1_455 S
H1536 C1520 0.931 . S
H1537 C1525 0.929 . S
H1538 C1526 0.960 . S
H1539 C1526 0.962 . S
H1540 C1526 0.960 . S
H1541 C1527 0.961 . S
H1542 C1527 0.961 . S
H1543 C1527 0.961 . S
H1544 C1528 0.931 . S
H1545 C1533 0.930 . S
H1546 C1534 0.956 1_545 S
H1547 C1534 0.961 1_655 S
H1548 C1534 0.961 . S
H1549 C1535 0.958 . S
H1550 C1535 0.965 . S
H1551 C1535 0.960 1_655 S
C1552 C1553 1.391 . S
C1552 C1554 1.394 . S
C1552 H1568 0.931 . S
C1553 C1552 1.391 . S
C1553 C1557 1.376 . S
C1554 C1552 1.394 . S
C1554 C1555 1.369 . S
C1554 C1558 1.531 . S
C1555 C1554 1.369 . S
C1555 C1556 1.410 . S
C1555 C1563 1.503 . S
C1556 C1555 1.410 . S
C1556 C1557 1.392 . S
C1556 C1559 1.511 . S
C1557 C1553 1.376 . S
C1557 C1556 1.392 . S
C1557 H1569 0.929 . S
C1558 C1554 1.531 . S
C1558 H1570 0.960 . S
C1558 H1571 0.962 . S
C1558 H1572 0.960 . S
C1559 C1556 1.511 . S
C1559 H1573 0.961 . S
C1559 H1574 0.961 . S
C1559 H1575 0.961 . S
C1560 C1561 1.370 . S
C1560 C1562 1.363 . S
C1560 H1576 0.931 . S
C1561 C1560 1.370 . S
C1561 C1565 1.408 . S
C1562 C1560 1.363 . S
C1562 C1563 1.370 . S
C1562 C1566 1.524 . S
C1563 C1555 1.503 . S
C1563 C1562 1.370 . S
C1563 C1564 1.403 . S
C1564 C1563 1.403 . S
C1564 C1565 1.404 . S
C1564 C1567 1.539 . S
C1565 C1561 1.408 . S
C1565 C1564 1.404 . S
C1565 H1577 0.930 . S
C1566 C1562 1.524 . S
C1566 H1578 0.956 . S
C1566 H1579 0.961 . S
C1566 H1580 0.961 . S
C1567 C1564 1.539 . S
C1567 H1581 0.958 . S
C1567 H1582 0.961 . S
C1567 H1583 0.960 . S
H1568 C1552 0.931 . S
H1569 C1557 0.929 . S
H1570 C1558 0.960 . S
H1571 C1558 0.962 . S
H1572 C1558 0.960 . S
H1573 C1559 0.961 . S
H1574 C1559 0.961 . S
H1575 C1559 0.961 . S
H1576 C1560 0.931 . S
H1577 C1565 0.930 . S
H1578 C1566 0.956 . S
H1579 C1566 0.961 . S
H1580 C1566 0.961 . S
H1581 C1567 0.958 . S
H1582 C1567 0.961 . S
H1583 C1567 0.960 . S
C1584 C1585 1.391 . S
C1584 C1586 1.394 . S
C1584 H1600 0.931 . S
C1585 C1584 1.391 . S
C1585 C1589 1.376 . S
C1586 C1584 1.394 . S
C1586 C1587 1.369 . S
C1586 C1590 1.531 . S
C1587 C1586 1.369 . S
C1587 C1588 1.410 . S
C1587 C1595 1.503 . S
C1588 C1587 1.410 . S
C1588 C1589 1.392 . S
C1588 C1591 1.511 . S
C1589 C1585 1.376 . S
C1589 C1588 1.392 . S
C1589 H1601 0.929 . S
C1590 C1586 1.531 . S
C1590 H1602 0.960 . S
C1590 H1603 0.962 . S
C1590 H1604 0.960 . S
C1591 C1588 1.511 . S
C1591 H1605 0.961 . S
C1591 H1606 0.961 . S
C1591 H1607 0.961 . S
C1592 C1593 1.370 . S
C1592 C1594 1.363 . S
C1592 H1608 0.931 . S
C1593 C1592 1.370 . S
C1593 C1597 1.408 . S
C1594 C1592 1.363 . S
C1594 C1595 1.370 . S
C1594 C1598 1.524 . S
C1595 C1587 1.503 . S
C1595 C1594 1.370 . S
C1595 C1596 1.403 . S
C1596 C1595 1.403 . S
C1596 C1597 1.404 . S
C1596 C1599 1.539 . S
C1597 C1593 1.408 . S
C1597 C1596 1.404 . S
C1597 H1609 0.930 . S
C1598 C1594 1.524 . S
C1598 H1610 0.956 . S
C1598 H1611 0.961 . S
C1598 H1612 0.961 . S
C1599 C1596 1.539 . S
C1599 H1613 0.958 . S
C1599 H1614 0.961 . S
C1599 H1615 0.960 . S
H1600 C1584 0.931 . S
H1601 C1589 0.929 . S
H1602 C1590 0.960 . S
H1603 C1590 0.962 . S
H1604 C1590 0.960 . S
H1605 C1591 0.961 . S
H1606 C1591 0.961 . S
H1607 C1591 0.961 . S
H1608 C1592 0.931 . S
H1609 C1597 0.930 . S
H1610 C1598 0.956 . S
H1611 C1598 0.961 . S
H1612 C1598 0.961 . S
H1613 C1599 0.958 . S
H1614 C1599 0.961 . S
H1615 C1599 0.960 . S
C1616 C1617 1.391 . S
C1616 C1618 1.394 . S
C1616 H1632 0.931 . S
C1617 C1616 1.391 . S
C1617 C1621 1.376 . S
C1618 C1616 1.394 . S
C1618 C1619 1.369 . S
C1618 C1622 1.531 . S
C1619 C1618 1.369 . S
C1619 C1620 1.410 . S
C1619 C1627 1.503 . S
C1620 C1619 1.410 . S
C1620 C1621 1.392 . S
C1620 C1623 1.511 . S
C1621 C1617 1.376 . S
C1621 C1620 1.392 . S
C1621 H1633 0.929 . S
C1622 C1618 1.531 . S
C1622 H1634 0.960 . S
C1622 H1635 0.962 . S
C1622 H1636 0.960 . S
C1623 C1620 1.511 . S
C1623 H1637 0.961 . S
C1623 H1638 0.961 . S
C1623 H1639 0.961 . S
C1624 C1625 1.370 . S
C1624 C1626 1.363 . S
C1624 H1640 0.931 . S
C1625 C1624 1.370 . S
C1625 C1629 1.408 . S
C1626 C1624 1.363 . S
C1626 C1627 1.370 . S
C1626 C1630 1.524 . S
C1627 C1619 1.503 . S
C1627 C1626 1.370 . S
C1627 C1628 1.403 . S
C1628 C1627 1.403 . S
C1628 C1629 1.404 . S
C1628 C1631 1.539 . S
C1629 C1625 1.408 . S
C1629 C1628 1.404 . S
C1629 H1641 0.930 . S
C1630 C1626 1.524 . S
C1630 H1642 0.956 . S
C1630 H1643 0.961 . S
C1630 H1644 0.961 . S
C1631 C1628 1.539 . S
C1631 H1645 0.958 . S
C1631 H1646 0.961 . S
C1631 H1647 0.960 . S
H1632 C1616 0.931 . S
H1633 C1621 0.929 . S
H1634 C1622 0.960 . S
H1635 C1622 0.962 . S
H1636 C1622 0.960 . S
H1637 C1623 0.961 . S
H1638 C1623 0.961 . S
H1639 C1623 0.961 . S
H1640 C1624 0.931 . S
H1641 C1629 0.930 . S
H1642 C1630 0.956 . S
H1643 C1630 0.961 . S
H1644 C1630 0.961 . S
H1645 C1631 0.958 . S
H1646 C1631 0.961 . S
H1647 C1631 0.960 . S
C1648 C1649 1.391 . S
C1648 C1650 1.394 . S
C1648 H1664 0.931 . S
C1649 C1648 1.391 . S
C1649 C1653 1.376 . S
C1650 C1648 1.394 . S
C1650 C1651 1.369 . S
C1650 C1654 1.531 . S
C1651 C1650 1.369 . S
C1651 C1652 1.410 . S
C1651 C1659 1.503 . S
C1652 C1651 1.410 . S
C1652 C1653 1.392 . S
C1652 C1655 1.511 . S
C1653 C1649 1.376 . S
C1653 C1652 1.392 . S
C1653 H1665 0.929 . S
C1654 C1650 1.531 . S
C1654 H1666 0.960 . S
C1654 H1667 0.962 . S
C1654 H1668 0.960 . S
C1655 C1652 1.511 . S
C1655 H1669 0.961 . S
C1655 H1670 0.961 . S
C1655 H1671 0.961 . S
C1656 C1657 1.370 . S
C1656 C1658 1.363 . S
C1656 H1672 0.931 . S
C1657 C1656 1.370 . S
C1657 C1661 1.408 . S
C1658 C1656 1.363 . S
C1658 C1659 1.370 . S
C1658 C1662 1.524 . S
C1659 C1651 1.503 . S
C1659 C1658 1.370 . S
C1659 C1660 1.403 . S
C1660 C1659 1.403 . S
C1660 C1661 1.404 . S
C1660 C1663 1.539 . S
C1661 C1657 1.408 . S
C1661 C1660 1.404 . S
C1661 H1673 0.930 . S
C1662 C1658 1.524 . S
C1662 H1674 0.956 . S
C1662 H1675 0.961 . S
C1662 H1676 0.961 . S
C1663 C1660 1.539 . S
C1663 H1677 0.958 . S
C1663 H1678 0.961 . S
C1663 H1679 0.960 . S
H1664 C1648 0.931 . S
H1665 C1653 0.929 . S
H1666 C1654 0.960 . S
H1667 C1654 0.962 . S
H1668 C1654 0.960 . S
H1669 C1655 0.961 . S
H1670 C1655 0.961 . S
H1671 C1655 0.961 . S
H1672 C1656 0.931 . S
H1673 C1661 0.930 . S
H1674 C1662 0.956 . S
H1675 C1662 0.961 . S
H1676 C1662 0.961 . S
H1677 C1663 0.958 . S
H1678 C1663 0.961 . S
H1679 C1663 0.960 . S
C1680 C1681 1.391 . S
C1680 C1682 1.394 . S
C1680 H1696 0.931 . S
C1681 C1680 1.391 . S
C1681 C1685 1.376 . S
C1682 C1680 1.394 . S
C1682 C1683 1.369 . S
C1682 C1686 1.531 . S
C1683 C1682 1.369 . S
C1683 C1684 1.410 . S
C1683 C1691 1.503 . S
C1684 C1683 1.410 . S
C1684 C1685 1.392 . S
C1684 C1687 1.511 . S
C1685 C1681 1.376 . S
C1685 C1684 1.392 . S
C1685 H1697 0.929 . S
C1686 C1682 1.531 . S
C1686 H1698 0.960 . S
C1686 H1699 0.962 . S
C1686 H1700 0.960 . S
C1687 C1684 1.511 . S
C1687 H1701 0.961 . S
C1687 H1702 0.961 . S
C1687 H1703 0.961 . S
C1688 C1689 1.370 . S
C1688 C1690 1.363 . S
C1688 H1704 0.931 . S
C1689 C1688 1.370 . S
C1689 C1693 1.408 . S
C1690 C1688 1.363 . S
C1690 C1691 1.370 . S
C1690 C1694 1.524 . S
C1691 C1683 1.503 . S
C1691 C1690 1.370 . S
C1691 C1692 1.403 . S
C1692 C1691 1.403 . S
C1692 C1693 1.404 . S
C1692 C1695 1.539 . S
C1693 C1689 1.408 . S
C1693 C1692 1.404 . S
C1693 H1705 0.930 . S
C1694 C1690 1.524 . S
C1694 H1706 0.956 . S
C1694 H1707 0.961 . S
C1694 H1708 0.961 . S
C1695 C1692 1.539 . S
C1695 H1709 0.958 . S
C1695 H1710 0.961 . S
C1695 H1711 0.960 . S
H1696 C1680 0.931 . S
H1697 C1685 0.929 . S
H1698 C1686 0.960 . S
H1699 C1686 0.962 . S
H1700 C1686 0.960 . S
H1701 C1687 0.961 . S
H1702 C1687 0.961 . S
H1703 C1687 0.961 . S
H1704 C1688 0.931 . S
H1705 C1693 0.930 . S
H1706 C1694 0.956 . S
H1707 C1694 0.961 . S
H1708 C1694 0.961 . S
H1709 C1695 0.958 . S
H1710 C1695 0.961 . S
H1711 C1695 0.960 . S
C1712 C1713 1.391 . S
C1712 C1714 1.394 . S
C1712 H1728 0.931 . S
C1713 C1712 1.391 . S
C1713 C1717 1.376 . S
C1714 C1712 1.394 . S
C1714 C1715 1.369 . S
C1714 C1718 1.531 . S
C1715 C1714 1.369 . S
C1715 C1716 1.410 . S
C1715 C1723 1.503 . S
C1716 C1715 1.410 . S
C1716 C1717 1.392 . S
C1716 C1719 1.511 . S
C1717 C1713 1.376 . S
C1717 C1716 1.392 . S
C1717 H1729 0.929 . S
C1718 C1714 1.531 . S
C1718 H1730 0.960 . S
C1718 H1731 0.962 . S
C1718 H1732 0.960 . S
C1719 C1716 1.511 . S
C1719 H1733 0.961 . S
C1719 H1734 0.961 . S
C1719 H1735 0.961 . S
C1720 C1721 1.370 . S
C1720 C1722 1.363 . S
C1720 H1736 0.931 . S
C1721 C1720 1.370 . S
C1721 C1725 1.408 . S
C1722 C1720 1.363 . S
C1722 C1723 1.370 . S
C1722 C1726 1.524 . S
C1723 C1715 1.503 . S
C1723 C1722 1.370 . S
C1723 C1724 1.403 . S
C1724 C1723 1.403 . S
C1724 C1725 1.404 . S
C1724 C1727 1.539 . S
C1725 C1721 1.408 . S
C1725 C1724 1.404 . S
C1725 H1737 0.930 . S
C1726 C1722 1.524 . S
C1726 H1738 0.956 . S
C1726 H1739 0.961 . S
C1726 H1740 0.961 . S
C1727 C1724 1.539 . S
C1727 H1741 0.958 . S
C1727 H1742 0.961 . S
C1727 H1743 0.960 . S
H1728 C1712 0.931 . S
H1729 C1717 0.929 . S
H1730 C1718 0.960 . S
H1731 C1718 0.962 . S
H1732 C1718 0.960 . S
H1733 C1719 0.961 . S
H1734 C1719 0.961 . S
H1735 C1719 0.961 . S
H1736 C1720 0.931 . S
H1737 C1725 0.930 . S
H1738 C1726 0.956 . S
H1739 C1726 0.961 . S
H1740 C1726 0.961 . S
H1741 C1727 0.958 . S
H1742 C1727 0.961 . S
H1743 C1727 0.960 . S
C1744 C1745 1.391 . S
C1744 C1746 1.394 . S
C1744 H1760 0.931 . S
C1745 C1744 1.391 . S
C1745 C1749 1.376 . S
C1746 C1744 1.394 . S
C1746 C1747 1.369 . S
C1746 C1750 1.531 . S
C1747 C1746 1.369 . S
C1747 C1748 1.410 . S
C1747 C1755 1.503 . S
C1748 C1747 1.410 . S
C1748 C1749 1.392 . S
C1748 C1751 1.511 . S
C1749 C1745 1.376 . S
C1749 C1748 1.392 . S
C1749 H1761 0.929 . S
C1750 C1746 1.531 . S
C1750 H1762 0.960 . S
C1750 H1763 0.962 . S
C1750 H1764 0.960 . S
C1751 C1748 1.511 . S
C1751 H1765 0.961 . S
C1751 H1766 0.961 . S
C1751 H1767 0.961 . S
C1752 C1753 1.370 . S
C1752 C1754 1.363 . S
C1752 H1768 0.931 . S
C1753 C1752 1.370 . S
C1753 C1757 1.408 . S
C1754 C1752 1.363 . S
C1754 C1755 1.370 . S
C1754 C1758 1.524 . S
C1755 C1747 1.503 . S
C1755 C1754 1.370 . S
C1755 C1756 1.403 . S
C1756 C1755 1.403 . S
C1756 C1757 1.404 . S
C1756 C1759 1.539 . S
C1757 C1753 1.408 . S
C1757 C1756 1.404 . S
C1757 H1769 0.930 . S
C1758 C1754 1.524 . S
C1758 H1770 0.956 . S
C1758 H1771 0.961 . S
C1758 H1772 0.961 . S
C1759 C1756 1.539 . S
C1759 H1773 0.958 . S
C1759 H1774 0.961 . S
C1759 H1775 0.960 . S
H1760 C1744 0.931 . S
H1761 C1749 0.929 . S
H1762 C1750 0.960 . S
H1763 C1750 0.962 . S
H1764 C1750 0.960 . S
H1765 C1751 0.961 . S
H1766 C1751 0.961 . S
H1767 C1751 0.961 . S
H1768 C1752 0.931 . S
H1769 C1757 0.930 . S
H1770 C1758 0.956 . S
H1771 C1758 0.961 . S
H1772 C1758 0.961 . S
H1773 C1759 0.958 . S
H1774 C1759 0.961 . S
H1775 C1759 0.960 . S
C1776 C1777 1.391 . S
C1776 C1778 1.394 . S
C1776 H1792 0.931 . S
C1777 C1776 1.391 . S
C1777 C1781 1.376 . S
C1778 C1776 1.394 . S
C1778 C1779 1.369 . S
C1778 C1782 1.531 . S
C1779 C1778 1.369 . S
C1779 C1780 1.410 . S
C1779 C1787 1.503 . S
C1780 C1779 1.410 . S
C1780 C1781 1.392 . S
C1780 C1783 1.511 . S
C1781 C1777 1.376 . S
C1781 C1780 1.392 . S
C1781 H1793 0.929 . S
C1782 C1778 1.531 . S
C1782 H1794 0.960 . S
C1782 H1795 0.962 . S
C1782 H1796 0.960 . S
C1783 C1780 1.511 . S
C1783 H1797 0.961 . S
C1783 H1798 0.961 . S
C1783 H1799 0.961 . S
C1784 C1785 1.370 . S
C1784 C1786 1.363 . S
C1784 H1800 0.931 . S
C1785 C1784 1.370 . S
C1785 C1789 1.408 . S
C1786 C1784 1.363 . S
C1786 C1787 1.370 . S
C1786 C1790 1.524 . S
C1787 C1779 1.503 . S
C1787 C1786 1.370 . S
C1787 C1788 1.403 . S
C1788 C1787 1.403 . S
C1788 C1789 1.404 . S
C1788 C1791 1.539 . S
C1789 C1785 1.408 . S
C1789 C1788 1.404 . S
C1789 H1801 0.930 . S
C1790 C1786 1.524 . S
C1790 H1802 0.956 . S
C1790 H1803 0.961 . S
C1790 H1804 0.961 . S
C1791 C1788 1.539 . S
C1791 H1805 0.958 . S
C1791 H1806 0.961 . S
C1791 H1807 0.960 . S
H1792 C1776 0.931 . S
H1793 C1781 0.929 . S
H1794 C1782 0.960 . S
H1795 C1782 0.962 . S
H1796 C1782 0.960 . S
H1797 C1783 0.961 . S
H1798 C1783 0.961 . S
H1799 C1783 0.961 . S
H1800 C1784 0.931 . S
H1801 C1789 0.930 . S
H1802 C1790 0.956 . S
H1803 C1790 0.961 . S
H1804 C1790 0.961 . S
H1805 C1791 0.958 . S
H1806 C1791 0.961 . S
H1807 C1791 0.960 . S
C529 C28 1.335 . S
C537 C490 1.372 . S
C561 C61 1.386 . S
C569 C523 1.394 . S
C593 C94 1.394 . S
C601 C424 1.371 . S
C625 C127 1.360 . S
C633 C457 1.390 . S
C657 C160 1.260 . S
C665 C358 1.291 . S
C689 C193 1.264 . S
C697 C391 1.297 . S
C721 C292 1.325 . S
C729 C226 1.310 . S
C753 C325 1.331 . S
C761 C259 1.309 . S
C785 C8 1.422 . S
C793 N38 1.395 . S
C817 C41 1.409 . S
C825 N71 1.375 . S
C849 C74 1.419 . S
C857 N104 1.380 . S
C881 N5 1.357 . S
C889 C107 1.417 . S
C913 N500 1.411 . S
C921 C140 1.429 . S
C945 N401 1.377 . S
C953 C173 1.426 . S
C977 N434 1.364 . S
C985 C206 1.425 . S
C1009 N467 1.351 . S
C1017 C239 1.424 . S
C1041 C272 1.433 . S
C1049 N302 1.392 . S
C1073 C305 1.428 . S
C1081 N335 1.386 . S
C1105 N368 1.370 . S
C1113 C338 1.433 . S
C1137 C371 1.430 . S
C1145 N269 1.390 . S
C1169 C404 1.431 . S
C1177 N236 1.393 . S
C1201 N137 1.361 . S
C1209 C437 1.430 . S
C1233 N170 1.359 . S
C1241 C470 1.430 . S
C1265 C503 1.429 . S
C1273 N203 1.390 . S
C1297 N14 1.680 . S
C1305 N80 1.685 . S
C1329 N47 1.673 . S
C1337 N113 1.687 . S
C1361 N212 1.720 . S
C1369 N146 1.725 . S
C1393 N245 1.726 . S
C1401 N179 1.729 . S
C1425 N278 1.704 . S
C1433 N344 1.694 . S
C1457 N311 1.684 . S
C1465 N377 1.698 . S
C1489 N410 1.727 . S
C1497 N476 1.729 . S
C1521 N443 1.729 . S
C1529 N509 1.734 . S
C1553 C149 1.136 . S
C1561 C17 1.131 . S
C1585 C182 1.177 . S
C1593 C50 1.150 . S
C1617 C83 1.160 . S
C1625 C215 1.129 . S
C1649 C248 1.156 . S
C1657 C116 1.157 . S
C1681 C281 1.218 . S
C1689 C413 1.207 . S
C1713 C446 1.190 . S
C1721 C314 1.211 . S
C1745 C479 1.238 . S
C1753 C347 1.211 . S
C1777 C380 1.187 . S
C1785 C512 1.214 . S
