# Generated by pormake.
# Topology twf-e, (6)-cn, num edge types: 1
# Building blocks:
#     Node 0, Type 0, BuildingBlock: BETDEL_clean_sbu_0, # of connection points: 6
#     Node 1, Type 0, BuildingBlock: BETDEL_clean_sbu_0, # of connection points: 6
#     Node 2, Type 0, BuildingBlock: BETDEL_clean_sbu_0, # of connection points: 6
#     Node 3, Type 0, BuildingBlock: BETDEL_clean_sbu_0, # of connection points: 6
#     Node 4, Type 0, BuildingBlock: BETDEL_clean_sbu_0, # of connection points: 6
#     Node 5, Type 0, BuildingBlock: BETDEL_clean_sbu_0, # of connection points: 6
#     Node 6, Type 0, BuildingBlock: BETDEL_clean_sbu_0, # of connection points: 6
#     Node 7, Type 0, BuildingBlock: BETDEL_clean_sbu_0, # of connection points: 6
#     Node 8, Type 0, BuildingBlock: BETDEL_clean_sbu_0, # of connection points: 6
#     Node 9, Type 0, BuildingBlock: BETDEL_clean_sbu_0, # of connection points: 6
#     Node 10, Type 0, BuildingBlock: BETDEL_clean_sbu_0, # of connection points: 6
#     Node 11, Type 0, BuildingBlock: BETDEL_clean_sbu_0, # of connection points: 6
#     Node 12, Type 0, BuildingBlock: BETDEL_clean_sbu_0, # of connection points: 6
#     Node 13, Type 0, BuildingBlock: BETDEL_clean_sbu_0, # of connection points: 6
#     Node 14, Type 0, BuildingBlock: BETDEL_clean_sbu_0, # of connection points: 6
#     Node 15, Type 0, BuildingBlock: BETDEL_clean_sbu_0, # of connection points: 6
#     Node 16, Type 0, BuildingBlock: BETDEL_clean_sbu_0, # of connection points: 6
#     Node 17, Type 0, BuildingBlock: BETDEL_clean_sbu_0, # of connection points: 6
#     Node 18, Type 0, BuildingBlock: BETDEL_clean_sbu_0, # of connection points: 6
#     Node 19, Type 0, BuildingBlock: BETDEL_clean_sbu_0, # of connection points: 6
#     Node 20, Type 0, BuildingBlock: BETDEL_clean_sbu_0, # of connection points: 6
#     Node 21, Type 0, BuildingBlock: BETDEL_clean_sbu_0, # of connection points: 6
#     Node 22, Type 0, BuildingBlock: BETDEL_clean_sbu_0, # of connection points: 6
#     Node 23, Type 0, BuildingBlock: BETDEL_clean_sbu_0, # of connection points: 6
#     Node 24, Type 0, BuildingBlock: BETDEL_clean_sbu_0, # of connection points: 6
#     Node 25, Type 0, BuildingBlock: BETDEL_clean_sbu_0, # of connection points: 6
#     Node 26, Type 0, BuildingBlock: BETDEL_clean_sbu_0, # of connection points: 6
#     Node 27, Type 0, BuildingBlock: BETDEL_clean_sbu_0, # of connection points: 6
#     Node 28, Type 0, BuildingBlock: BETDEL_clean_sbu_0, # of connection points: 6
#     Node 29, Type 0, BuildingBlock: BETDEL_clean_sbu_0, # of connection points: 6
#     Node 30, Type 0, BuildingBlock: BETDEL_clean_sbu_0, # of connection points: 6
#     Node 31, Type 0, BuildingBlock: BETDEL_clean_sbu_0, # of connection points: 6
#     Node 32, Type 0, BuildingBlock: BETDEL_clean_sbu_0, # of connection points: 6
#     Node 33, Type 0, BuildingBlock: BETDEL_clean_sbu_0, # of connection points: 6
#     Node 34, Type 0, BuildingBlock: BETDEL_clean_sbu_0, # of connection points: 6
#     Node 35, Type 0, BuildingBlock: BETDEL_clean_sbu_0, # of connection points: 6
#     Node 36, Type 0, BuildingBlock: BETDEL_clean_sbu_0, # of connection points: 6
#     Node 37, Type 0, BuildingBlock: BETDEL_clean_sbu_0, # of connection points: 6
#     Node 38, Type 0, BuildingBlock: BETDEL_clean_sbu_0, # of connection points: 6
#     Node 39, Type 0, BuildingBlock: BETDEL_clean_sbu_0, # of connection points: 6
#     Node 40, Type 0, BuildingBlock: BETDEL_clean_sbu_0, # of connection points: 6
#     Node 41, Type 0, BuildingBlock: BETDEL_clean_sbu_0, # of connection points: 6
#     Node 42, Type 0, BuildingBlock: BETDEL_clean_sbu_0, # of connection points: 6
#     Node 43, Type 0, BuildingBlock: BETDEL_clean_sbu_0, # of connection points: 6
#     Node 44, Type 0, BuildingBlock: BETDEL_clean_sbu_0, # of connection points: 6
#     Node 45, Type 0, BuildingBlock: BETDEL_clean_sbu_0, # of connection points: 6
#     Node 46, Type 0, BuildingBlock: BETDEL_clean_sbu_0, # of connection points: 6
#     Node 47, Type 0, BuildingBlock: BETDEL_clean_sbu_0, # of connection points: 6
#     Edge 48, Type (0, 0), None
#     Edge 49, Type (0, 0), None
#     Edge 50, Type (0, 0), None
#     Edge 51, Type (0, 0), None
#     Edge 52, Type (0, 0), None
#     Edge 53, Type (0, 0), None
#     Edge 54, Type (0, 0), None
#     Edge 55, Type (0, 0), None
#     Edge 56, Type (0, 0), None
#     Edge 57, Type (0, 0), None
#     Edge 58, Type (0, 0), None
#     Edge 59, Type (0, 0), None
#     Edge 60, Type (0, 0), None
#     Edge 61, Type (0, 0), None
#     Edge 62, Type (0, 0), None
#     Edge 63, Type (0, 0), None
#     Edge 64, Type (0, 0), None
#     Edge 65, Type (0, 0), None
#     Edge 66, Type (0, 0), None
#     Edge 67, Type (0, 0), None
#     Edge 68, Type (0, 0), None
#     Edge 69, Type (0, 0), None
#     Edge 70, Type (0, 0), None
#     Edge 71, Type (0, 0), None
#     Edge 72, Type (0, 0), None
#     Edge 73, Type (0, 0), None
#     Edge 74, Type (0, 0), None
#     Edge 75, Type (0, 0), None
#     Edge 76, Type (0, 0), None
#     Edge 77, Type (0, 0), None
#     Edge 78, Type (0, 0), None
#     Edge 79, Type (0, 0), None
#     Edge 80, Type (0, 0), None
#     Edge 81, Type (0, 0), None
#     Edge 82, Type (0, 0), None
#     Edge 83, Type (0, 0), None
#     Edge 84, Type (0, 0), None
#     Edge 85, Type (0, 0), None
#     Edge 86, Type (0, 0), None
#     Edge 87, Type (0, 0), None
#     Edge 88, Type (0, 0), None
#     Edge 89, Type (0, 0), None
#     Edge 90, Type (0, 0), None
#     Edge 91, Type (0, 0), None
#     Edge 92, Type (0, 0), None
#     Edge 93, Type (0, 0), None
#     Edge 94, Type (0, 0), None
#     Edge 95, Type (0, 0), None
#     Edge 96, Type (0, 0), None
#     Edge 97, Type (0, 0), None
#     Edge 98, Type (0, 0), None
#     Edge 99, Type (0, 0), None
#     Edge 100, Type (0, 0), None
#     Edge 101, Type (0, 0), None
#     Edge 102, Type (0, 0), None
#     Edge 103, Type (0, 0), None
#     Edge 104, Type (0, 0), None
#     Edge 105, Type (0, 0), None
#     Edge 106, Type (0, 0), None
#     Edge 107, Type (0, 0), None
#     Edge 108, Type (0, 0), None
#     Edge 109, Type (0, 0), None
#     Edge 110, Type (0, 0), None
#     Edge 111, Type (0, 0), None
#     Edge 112, Type (0, 0), None
#     Edge 113, Type (0, 0), None
#     Edge 114, Type (0, 0), None
#     Edge 115, Type (0, 0), None
#     Edge 116, Type (0, 0), None
#     Edge 117, Type (0, 0), None
#     Edge 118, Type (0, 0), None
#     Edge 119, Type (0, 0), None
#     Edge 120, Type (0, 0), None
#     Edge 121, Type (0, 0), None
#     Edge 122, Type (0, 0), None
#     Edge 123, Type (0, 0), None
#     Edge 124, Type (0, 0), None
#     Edge 125, Type (0, 0), None
#     Edge 126, Type (0, 0), None
#     Edge 127, Type (0, 0), None
#     Edge 128, Type (0, 0), None
#     Edge 129, Type (0, 0), None
#     Edge 130, Type (0, 0), None
#     Edge 131, Type (0, 0), None
#     Edge 132, Type (0, 0), None
#     Edge 133, Type (0, 0), None
#     Edge 134, Type (0, 0), None
#     Edge 135, Type (0, 0), None
#     Edge 136, Type (0, 0), None
#     Edge 137, Type (0, 0), None
#     Edge 138, Type (0, 0), None
#     Edge 139, Type (0, 0), None
#     Edge 140, Type (0, 0), None
#     Edge 141, Type (0, 0), None
#     Edge 142, Type (0, 0), None
#     Edge 143, Type (0, 0), None
#     Edge 144, Type (0, 0), None
#     Edge 145, Type (0, 0), None
#     Edge 146, Type (0, 0), None
#     Edge 147, Type (0, 0), None
#     Edge 148, Type (0, 0), None
#     Edge 149, Type (0, 0), None
#     Edge 150, Type (0, 0), None
#     Edge 151, Type (0, 0), None
#     Edge 152, Type (0, 0), None
#     Edge 153, Type (0, 0), None
#     Edge 154, Type (0, 0), None
#     Edge 155, Type (0, 0), None
#     Edge 156, Type (0, 0), None
#     Edge 157, Type (0, 0), None
#     Edge 158, Type (0, 0), None
#     Edge 159, Type (0, 0), None
#     Edge 160, Type (0, 0), None
#     Edge 161, Type (0, 0), None
#     Edge 162, Type (0, 0), None
#     Edge 163, Type (0, 0), None
#     Edge 164, Type (0, 0), None
#     Edge 165, Type (0, 0), None
#     Edge 166, Type (0, 0), None
#     Edge 167, Type (0, 0), None
#     Edge 168, Type (0, 0), None
#     Edge 169, Type (0, 0), None
#     Edge 170, Type (0, 0), None
#     Edge 171, Type (0, 0), None
#     Edge 172, Type (0, 0), None
#     Edge 173, Type (0, 0), None
#     Edge 174, Type (0, 0), None
#     Edge 175, Type (0, 0), None
#     Edge 176, Type (0, 0), None
#     Edge 177, Type (0, 0), None
#     Edge 178, Type (0, 0), None
#     Edge 179, Type (0, 0), None
#     Edge 180, Type (0, 0), None
#     Edge 181, Type (0, 0), None
#     Edge 182, Type (0, 0), None
#     Edge 183, Type (0, 0), None
#     Edge 184, Type (0, 0), None
#     Edge 185, Type (0, 0), None
#     Edge 186, Type (0, 0), None
#     Edge 187, Type (0, 0), None
#     Edge 188, Type (0, 0), None
#     Edge 189, Type (0, 0), None
#     Edge 190, Type (0, 0), None
#     Edge 191, Type (0, 0), None
# Relax obj value: 0.858
# Max RMSD: 0.246
# Mean RMSD: 0.220
data_MOF--net-twf-e--node1-BETDEL_clean_sbu_0--edge1-none
_symmetry_space_group_name_H-M    P1
_symmetry_Int_Tables_number       1
_symmetry_cell_setting            triclinic
loop_
_symmetry_equiv_pos_as_xyz
'x, y, z'
_cell_length_a     28.714565
_cell_length_b     28.728989
_cell_length_c     28.733205
_cell_angle_alpha  88.591169
_cell_angle_beta   89.992336
_cell_angle_gamma 90.889377
loop_
_atom_site_label
_atom_site_type_symbol
_atom_site_fract_x
_atom_site_fract_y
_atom_site_fract_z
_atom_type_partial_charge
Dy0 Dy 1.02009 0.2066 0.42572 0.0
C1 C 0.11958 0.33501 0.40562 0.0
C2 C 0.97681 0.12498 0.4013 0.0
Dy3 Dy 0.06429 0.25932 0.41794 0.0
O4 O 1.00493 0.12999 0.43606 0.0
O5 O 0.96972 0.16524 0.38186 0.0
O6 O 0.99669 0.20706 0.50297 0.0
O7 O 0.0659 0.22539 0.49024 0.0
C8 C 0.03498 0.2204 0.52326 0.0
C9 C 0.03398 0.27133 0.32883 0.0
O10 O 0.12211 0.20968 0.43295 0.0
O11 O 0.07581 0.16305 0.39531 0.0
O12 O 0.12971 0.29347 0.39375 0.0
O13 O 0.07923 0.33423 0.42582 0.0
O14 O 0.0764 0.26154 0.3396 0.0
O15 O 1.00926 0.25999 0.36513 0.0
O16 O 0.9561 0.24366 0.43846 0.0
O17 O 1.0097 0.29858 0.45449 0.0
C18 C 0.11673 0.17035 0.41252 0.0
C19 C 0.96609 0.28446 0.45403 0.0
Dy20 Dy 0.86947 0.02195 0.42374 0.0
C21 C 0.84661 0.15885 0.41663 0.0
C22 C 0.93695 0.95658 0.41022 0.0
Dy23 Dy 0.84481 0.06581 0.40906 0.0
O24 O 0.93158 0.99346 0.3838 0.0
O25 O 0.90507 0.95492 0.44215 0.0
O26 O 0.87271 1.00185 0.50191 0.0
O27 O 0.84349 0.06605 0.48774 0.0
C28 C 0.85613 0.03825 0.52163 0.0
C29 C 0.7872 0.04934 0.33759 0.0
O30 O 0.91086 0.08421 0.36849 0.0
O31 O 0.93651 0.06054 0.43363 0.0
O32 O 0.87665 0.13096 0.43467 0.0
O33 O 0.81606 0.13524 0.3933 0.0
O34 O 0.78473 0.08576 0.36327 0.0
O35 O 0.82054 0.02209 0.35375 0.0
O36 O 0.82567 0.96082 0.41855 0.0
O37 O 0.79369 0.02097 0.45047 0.0
C38 C 0.94584 0.08485 0.39691 0.0
C39 C 0.79392 0.97581 0.445 0.0
Dy40 Dy 0.05803 0.87229 0.41427 0.0
C41 C 0.93588 0.80143 0.40693 0.0
C42 C 0.11689 0.94702 0.39359 0.0
Dy43 Dy 0.02531 0.83138 0.41595 0.0
O44 O 0.07513 0.95007 0.41051 0.0
O45 O 0.12626 0.90346 0.38843 0.0
O46 O 0.05226 0.9039 0.48915 0.0
O47 O 0.04326 0.83353 0.48994 0.0
C48 C 0.0463 0.86821 0.51748 0.0
C49 C 0.04752 0.77983 0.34278 0.0
O50 O 0.97918 0.89032 0.43969 0.0
O51 O 1.00669 0.92006 0.37727 0.0
O52 O 0.95385 0.83731 0.38546 0.0
O53 O 0.96972 0.77858 0.42694 0.0
O54 O 0.03084 0.76318 0.38182 0.0
O55 O 0.05664 0.82476 0.34687 0.0
O56 O 0.13055 0.85174 0.41742 0.0
O57 O 0.08554 0.80232 0.45558 0.0
C58 C 0.97518 0.92327 0.40881 0.0
C59 C 0.12767 0.81793 0.44678 0.0
Dy60 Dy 0.21493 0.06366 0.42262 0.0
C61 C 0.27287 0.93063 0.45389 0.0
C62 C 0.15183 0.13396 0.41404 0.0
Dy63 Dy 0.25205 1.01348 0.41693 0.0
O64 O 0.1455 0.092 0.39944 0.0
O65 O 0.19205 0.13743 0.43404 0.0
O66 O 0.23408 0.0904 0.49686 0.0
O67 O 0.22577 1.02025 0.49099 0.0
C68 C 0.23265 0.05175 0.5215 0.0
C69 C 0.28764 0.0282 0.33162 0.0
O70 O 0.19489 0.97546 0.37979 0.0
O71 O 0.14926 1.0206 0.41833 0.0
O72 O 0.23142 0.94708 0.45193 0.0
O73 O 0.30201 0.95791 0.43129 0.0
O74 O 0.3039 0.99851 0.36226 0.0
O75 O 0.25108 0.04997 0.34848 0.0
O76 O 0.26481 0.1099 0.38615 0.0
O77 O 0.30457 0.06869 0.43584 0.0
C78 C 0.153 0.9838 0.39368 0.0
C79 C 0.30315 0.10593 0.40858 0.0
Dy80 Dy 0.03123 0.88009 0.67407 0.0
C81 C 0.15875 0.85829 0.67253 0.0
C82 C 0.96468 0.94331 0.68716 0.0
Dy83 Dy 0.06685 0.85275 0.68517 0.0
O84 O 0.96194 0.90944 0.65848 0.0
O85 O 1.00378 0.94337 0.70982 0.0
O86 O 1.01976 0.90069 0.59615 0.0
O87 O 0.06114 0.84407 0.60695 0.0
C88 C 0.04337 0.87022 0.574 0.0
C89 C 0.04972 0.79213 0.7557 0.0
O90 O 0.09342 0.91325 0.72985 0.0
O91 O 0.07154 0.94819 0.66937 0.0
O92 O 0.12894 0.88634 0.65419 0.0
O93 O 0.13732 0.82714 0.69864 0.0
O94 O 0.0818 0.7859 0.72455 0.0
O95 O 0.02746 0.8305 0.74477 0.0
O96 O 0.96514 0.84409 0.68783 0.0
O97 O 1.01497 0.80912 0.6454 0.0
C98 C 0.0966 0.95206 0.7059 0.0
C99 C 0.97143 0.81369 0.65719 0.0
Dy100 Dy 0.21286 0.04037 0.67791 0.0
C101 C 0.2703 0.17171 0.63973 0.0
C102 C 0.1397 0.98058 0.70286 0.0
Dy103 Dy 0.25052 0.08989 0.6803 0.0
O104 O 0.14245 0.02434 0.71189 0.0
O105 O 0.17554 0.97026 0.67757 0.0
O106 O 0.22808 1.00898 0.60421 0.0
O107 O 0.22658 0.07981 0.60686 0.0
C108 C 0.23106 0.04679 0.57803 0.0
C109 C 0.29215 0.0811 0.76197 0.0
O110 O 0.19507 0.12708 0.71905 0.0
O111 O 0.1501 0.08378 0.6768 0.0
O112 O 0.22937 0.15262 0.64028 0.0
O113 O 0.29956 0.1471 0.66407 0.0
O114 O 0.30602 0.11015 0.72914 0.0
O115 O 0.25519 0.05668 0.74871 0.0
O116 O 0.25775 0.99107 0.71372 0.0
O117 O 0.29908 0.03171 0.66344 0.0
C118 C 0.15369 0.119 0.70331 0.0
C119 C 0.29574 0.99434 0.69066 0.0
Dy120 Dy 0.05436 0.21807 0.67863 0.0
C121 C 0.93428 0.31176 0.6863 0.0
C122 C 0.11715 0.15266 0.70397 0.0
Dy123 Dy 1.01214 0.26073 0.68312 0.0
O124 O 0.07537 0.14391 0.68938 0.0
O125 O 0.12496 0.19701 0.70416 0.0
O126 O 0.07944 0.21216 0.60179 0.0
O127 O 1.01114 0.23262 0.61017 0.0
C128 C 0.04195 0.2229 0.57889 0.0
C129 C 0.04097 0.29607 0.76461 0.0
O130 O 0.95693 0.20626 0.7042 0.0
O131 O 1.00907 0.1541 0.68948 0.0
O132 O 0.93549 0.26695 0.69042 0.0
O133 O 0.97609 0.32779 0.67966 0.0
O134 O 0.02775 0.32038 0.72892 0.0
O135 O 0.04483 0.25237 0.75256 0.0
O136 O 0.11621 0.2635 0.67037 0.0
O137 O 0.06043 0.30016 0.63359 0.0
C138 C 0.96652 0.16225 0.70135 0.0
C139 C 0.10501 0.29609 0.6414 0.0
Dy140 Dy 0.83182 0.08967 0.68138 0.0
C141 C 0.92942 0.97777 0.68872 0.0
C142 C 0.81712 0.17557 0.64748 0.0
Dy143 Dy 0.8659 0.04415 0.67518 0.0
O144 O 0.78733 0.15115 0.67242 0.0
O145 O 0.85591 0.15394 0.64444 0.0
O146 O 0.77487 0.09637 0.73386 0.0
O147 O 0.82922 0.0482 0.74817 0.0
C148 C 0.79031 0.06547 0.76386 0.0
C149 C 0.85152 0.04208 0.57737 0.0
O150 O 0.8134 0.9955 0.70458 0.0
O151 O 0.77539 0.04142 0.65782 0.0
O152 O 0.89059 0.9725 0.66686 0.0
O153 O 0.93467 1.01978 0.70352 0.0
O154 O 0.86068 1.00749 0.60542 0.0
O155 O 0.84627 0.0778 0.60365 0.0
O156 O 0.88795 0.13131 0.7184 0.0
O157 O 0.93143 0.08934 0.67558 0.0
C158 C 0.77518 1.00261 0.68247 0.0
C159 C 0.92939 0.12523 0.70186 0.0
Dy160 Dy 0.40965 0.0315 0.21583 0.0
C161 C 0.40357 0.11733 0.34327 0.0
C162 C 0.39196 0.99003 0.13302 0.0
Dy163 Dy 0.40465 0.06723 0.26597 0.0
O164 O 0.42539 1.01954 0.14046 0.0
O165 O 0.36802 0.98326 0.17068 0.0
O166 O 0.48734 1.00852 0.2151 0.0
O167 O 0.47657 0.0757 0.23518 0.0
C168 C 0.50915 0.04574 0.22855 0.0
C169 C 0.3162 0.03979 0.28568 0.0
O170 O 0.41685 0.12931 0.21715 0.0
O171 O 0.37798 0.08662 0.16933 0.0
O172 O 0.38242 0.1279 0.30522 0.0
O173 O 0.42246 0.07697 0.33958 0.0
O174 O 0.3278 0.08242 0.2753 0.0
O175 O 0.34988 1.01443 0.27066 0.0
O176 O 0.41712 0.96049 0.24118 0.0
O177 O 0.43868 1.00484 0.29944 0.0
C178 C 0.39565 0.12721 0.17743 0.0
C179 C 0.43547 0.96314 0.28174 0.0
Dy180 Dy 0.05099 0.40956 0.22323 0.0
C181 C 0.92437 0.41279 0.31341 0.0
C182 C 0.11167 0.40066 0.15024 0.0
Dy183 Dy 1.0028 0.40078 0.26478 0.0
O184 O 0.06823 0.388 0.14974 0.0
O185 O 0.12167 0.41869 0.18993 0.0
O186 O 0.0791 0.48449 0.23741 0.0
O187 O 1.00789 0.47583 0.23742 0.0
C188 C 0.0405 0.50731 0.2402 0.0
C189 C 0.02312 0.31652 0.29969 0.0
O190 O 0.955 0.37584 0.20748 0.0
O191 O 1.00532 0.40942 0.1601 0.0
O192 O 0.92611 0.4072 0.26895 0.0
O193 O 0.96581 0.4102 0.33073 0.0
O194 O 0.99456 0.34493 0.31762 0.0
O195 O 0.04172 0.33455 0.26094 0.0
O196 O 0.10476 0.3845 0.2711 0.0
O197 O 0.05915 0.428 0.31139 0.0
C198 C 0.96469 0.39004 0.16527 0.0
C199 C 0.09944 0.40761 0.30836 0.0
Dy200 Dy 0.66378 0.06823 0.21774 0.0
C201 C 0.66746 0.92821 0.24136 0.0
C202 C 0.67755 0.14149 0.15749 0.0
Dy203 Dy 0.67638 0.02169 0.24278 0.0
O204 O 0.6986 0.10207 0.15438 0.0
O205 O 0.64961 0.14071 0.1927 0.0
O206 O 0.58698 0.09259 0.22103 0.0
O207 O 0.59731 0.0221 0.23305 0.0
C208 C 0.56509 0.05329 0.22854 0.0
C209 C 0.74832 0.03872 0.29993 0.0
O210 O 0.72186 1.00439 0.18072 0.0
O211 O 0.66156 0.03174 0.14862 0.0
O212 O 0.65435 0.95643 0.20865 0.0
O213 O 0.6909 0.95164 0.27168 0.0
O214 O 0.71965 1.0035 0.30538 0.0
O215 O 0.73456 0.06515 0.26429 0.0
O216 O 0.67449 0.1203 0.27011 0.0
O217 O 0.6355 0.05996 0.29722 0.0
C218 C 0.69766 1.00632 0.1428 0.0
C219 C 0.64767 0.10373 0.30205 0.0
Dy220 Dy 0.03272 0.6635 0.21977 0.0
C221 C 0.16024 0.64335 0.25825 0.0
C222 C 0.96778 0.67897 0.15307 0.0
Dy223 Dy 0.07313 0.67219 0.24888 0.0
O224 O 0.96239 0.65157 0.18909 0.0
O225 O 1.00927 0.69745 0.15197 0.0
O226 O 1.00203 0.58726 0.22006 0.0
O227 O 0.06788 0.59413 0.24696 0.0
C228 C 0.03648 0.5634 0.23681 0.0
C229 C 0.0602 0.74463 0.30371 0.0
O230 O 0.10313 0.71898 0.19183 0.0
O231 O 0.07575 0.6617 0.15469 0.0
O232 O 0.13373 0.63366 0.22337 0.0
O233 O 0.14085 0.67412 0.28398 0.0
O234 O 0.08857 0.71081 0.31362 0.0
O235 O 0.03754 0.7348 0.26522 0.0
O236 O 0.97224 0.68898 0.25638 0.0
O237 O 1.01673 0.64092 0.29415 0.0
C238 C 0.10312 0.69739 0.15311 0.0
C239 C 0.97571 0.65935 0.28974 0.0
Dy240 Dy 0.41688 0.08445 0.8799 0.0
C241 C 0.39754 0.94899 0.83003 0.0
C242 C 0.40506 0.14551 0.95102 0.0
Dy243 Dy 0.40157 0.04032 0.84913 0.0
O244 O 0.38249 0.10626 0.94802 0.0
O245 O 0.43222 0.1514 0.91536 0.0
O246 O 0.49429 0.1056 0.88011 0.0
O247 O 0.48056 0.03909 0.85608 0.0
C248 C 0.51414 0.06827 0.8657 0.0
C249 C 0.32826 0.0657 0.79926 0.0
O250 O 0.36097 1.01736 0.91338 0.0
O251 O 0.42633 0.03726 0.94086 0.0
O252 O 0.40863 0.96587 0.86973 0.0
O253 O 0.38906 0.98273 0.80087 0.0
O254 O 0.35391 0.03068 0.78996 0.0
O255 O 0.34536 0.08836 0.83505 0.0
O256 O 0.41093 0.14496 0.83452 0.0
O257 O 0.44299 0.08629 0.8005 0.0
C258 C 0.38933 1.01289 0.94801 0.0
C259 C 0.43678 0.1312 0.80169 0.0
Dy260 Dy 0.02596 0.41765 0.87257 0.0
C261 C 0.13061 0.40295 0.76186 0.0
C262 C 0.96701 0.41634 0.9448 0.0
Dy263 Dy 0.06849 0.41108 0.83093 0.0
O264 O 0.9591 0.43557 0.90476 0.0
O265 O 1.0067 0.3955 0.9459 0.0
O266 O 1.0016 0.4938 0.86935 0.0
O267 O 0.07172 0.48483 0.85878 0.0
C268 C 0.04012 0.51653 0.86239 0.0
C269 C 0.04526 0.32049 0.81305 0.0
O270 O 0.12017 0.42889 0.88677 0.0
O271 O 0.07073 0.39202 0.93185 0.0
O272 O 0.13652 0.38887 0.80428 0.0
O273 O 0.08993 0.42173 0.75799 0.0
O274 O 0.08588 0.33421 0.82704 0.0
O275 O 1.01757 0.35374 0.82404 0.0
O276 O 0.96473 0.40406 0.82978 0.0
O277 O 1.01398 0.44548 0.78734 0.0
C278 C 0.11152 0.41136 0.92786 0.0
C279 C 0.97097 0.4312 0.79401 0.0
Dy280 Dy 0.67432 1.01697 0.84249 0.0
C281 C 0.67628 0.13368 0.9398 0.0
C282 C 0.63936 0.93126 0.8264 0.0
Dy283 Dy 0.66743 0.06743 0.87538 0.0
O284 O 0.66489 0.9559 0.7974 0.0
O285 O 0.63599 0.95263 0.86519 0.0
O286 O 0.72672 1.00949 0.7858 0.0
O287 O 0.74006 0.05972 0.83826 0.0
C288 C 0.7558 0.04159 0.79978 0.0
C289 C 0.56985 0.065 0.85997 0.0
O290 O 0.69848 0.11384 0.82222 0.0
O291 O 0.65212 0.0663 0.78586 0.0
O292 O 0.65699 0.13949 0.89955 0.0
O293 O 0.6919 0.09193 0.94521 0.0
O294 O 0.59681 0.1014 0.86258 0.0
O295 O 0.59737 0.02952 0.86139 0.0
O296 O 0.71542 0.98182 0.90095 0.0
O297 O 0.67167 0.02569 0.942 0.0
C298 C 0.67682 0.10502 0.78421 0.0
C299 C 0.70051 0.99162 0.94216 0.0
Dy300 Dy 0.05568 0.67168 0.88226 0.0
C301 C 0.93374 0.65183 0.85925 0.0
C302 C 0.1214 0.70944 0.93937 0.0
Dy303 Dy 1.02182 0.68115 0.85284 0.0
O304 O 0.08001 0.69561 0.95273 0.0
O305 O 0.12639 0.70287 0.89519 0.0
O306 O 0.06689 0.59304 0.90214 0.0
O307 O 0.02683 0.60468 0.84362 0.0
C308 C 0.04511 0.57181 0.86884 0.0
C309 C 0.03715 0.75331 0.79381 0.0
O310 O 0.98521 0.72826 0.90527 0.0
O311 O 1.01193 0.67487 0.9489 0.0
O312 O 0.96651 0.6382 0.887 0.0
O313 O 0.94981 0.68166 0.82794 0.0
O314 O 1.00421 0.72234 0.78752 0.0
O315 O 0.06118 0.74097 0.83081 0.0
O316 O 0.124 0.64448 0.86736 0.0
O317 O 0.07652 0.64561 0.8075 0.0
C318 C 0.9824 0.70844 0.94623 0.0
C319 C 0.11768 0.63503 0.8247 0.0
Dy320 Dy 0.20698 0.43863 0.0359 0.0
C321 C 0.2518 0.46299 0.16547 0.0
C322 C 0.14316 0.42038 0.96703 0.0
Dy323 Dy 0.23868 0.43071 0.08039 0.0
O324 O 0.17889 0.44819 0.96339 0.0
O325 O 0.14027 0.40364 1.0095 0.0
O326 O 0.20814 0.5155 1.00529 0.0
O327 O 0.23027 0.50807 0.0729 0.0
C328 C 0.22269 0.53904 0.04065 0.0
C329 C 0.29213 0.35653 0.06813 0.0
O330 O 0.18339 0.38379 0.11225 0.0
O331 O 0.14221 0.43668 0.08022 0.0
O332 O 0.21438 0.46944 0.14124 0.0
O333 O 0.279 0.43417 0.14498 0.0
O334 O 0.30073 0.38861 0.09832 0.0
O335 O 0.25549 0.3689 0.0429 0.0
O336 O 0.24938 0.4161 0.97849 0.0
O337 O 0.28336 0.4647 0.02504 0.0
C338 C 0.1431 0.40263 0.1102 0.0
C339 C 0.28084 0.44724 0.98364 0.0
Dy340 Dy 0.21294 0.69294 0.05865 0.0
C341 C 0.32893 0.69195 0.94646 0.0
C342 C 0.14144 0.70059 0.12036 0.0
Dy343 Dy 0.25997 0.6998 1.00855 0.0
O344 O 0.18379 0.69034 0.13123 0.0
O345 O 0.13717 0.70389 0.07565 0.0
O346 O 0.22515 0.61674 0.08422 0.0
O347 O 0.22489 0.62785 1.01325 0.0
C348 C 0.22687 0.59509 0.04513 0.0
C349 C 0.27927 0.78945 0.02555 0.0
O350 O 0.20139 0.69846 0.95766 0.0
O351 O 0.1561 0.72106 1.01422 0.0
O352 O 0.28807 0.70743 0.93716 0.0
O353 O 0.33179 0.68181 0.99051 0.0
O354 O 0.27903 0.77233 0.98469 0.0
O355 O 0.25842 0.76067 0.0545 0.0
O356 O 0.26159 0.71973 0.11034 0.0
O357 O 0.30521 0.67603 0.0674 0.0
C358 C 0.16111 0.71338 0.97046 0.0
C359 C 0.29981 0.69733 0.10673 0.0
Dy360 Dy 0.41264 0.23419 0.07357 0.0
C361 C 0.39929 0.31081 0.9386 0.0
C362 C 0.39833 0.16532 0.14179 0.0
Dy363 Dy 0.40869 0.27925 0.02736 0.0
O364 O 0.38593 0.16256 0.09844 0.0
O365 O 0.41869 0.20525 0.1476 0.0
O366 O 0.49065 0.22851 0.09686 0.0
O367 O 0.48198 0.25323 0.02967 0.0
C368 C 0.51369 0.24292 0.06026 0.0
C369 C 0.33319 0.32344 0.05474 0.0
O370 O 0.41592 0.22207 0.97695 0.0
O371 O 0.38978 0.17341 0.02996 0.0
O372 O 0.37909 0.27371 0.95594 0.0
O373 O 0.41538 0.33474 0.97332 0.0
O374 O 0.36846 0.34303 0.03368 0.0
O375 O 0.34247 0.27922 0.0664 0.0
O376 O 0.40248 0.28344 0.12821 0.0
O377 O 0.45281 0.31462 0.07862 0.0
C378 C 0.40137 0.18059 0.98691 0.0
C379 C 0.43775 0.31068 0.12139 0.0
Dy380 Dy 0.83346 0.41912 0.09107 0.0
C381 C 0.93512 0.42052 0.98245 0.0
C382 C 0.81362 0.45224 0.17442 0.0
Dy383 Dy 0.86995 0.4274 0.04831 0.0
O384 O 0.85434 0.45401 0.15557 0.0
O385 O 0.78501 0.42756 0.14949 0.0
O386 O 0.77502 0.36775 0.09553 0.0
O387 O 0.8364 0.35126 0.05733 0.0
C388 C 0.79488 0.33634 0.07055 0.0
C389 C 0.84982 0.52561 0.04907 0.0
O390 O 0.82709 0.39144 0.9971 0.0
O391 O 0.78434 0.4397 0.03362 0.0
O392 O 0.89552 0.44031 0.97674 0.0
O393 O 0.94105 0.40584 0.02498 0.0
O394 O 0.85611 0.50023 1.01287 0.0
O395 O 0.85109 0.49638 0.08372 0.0
O396 O 0.88658 0.37843 0.13326 0.0
O397 O 0.93357 0.42376 0.09386 0.0
C398 C 0.78881 0.41355 0.99726 0.0
C399 C 0.92881 0.39443 0.12849 0.0
Dy400 Dy 0.66911 0.89131 0.05631 0.0
C401 C 0.655 0.86203 0.92568 0.0
C402 C 0.69646 0.96843 0.10847 0.0
Dy403 Dy 0.67667 0.8641 1.0168 0.0
O404 O 0.66908 0.96847 0.07286 0.0
O405 O 0.70907 0.92563 0.11611 0.0
O406 O 0.59165 0.89418 0.08331 0.0
O407 O 0.5996 0.86936 1.01732 0.0
C408 C 0.56845 0.87943 0.04748 0.0
C409 C 0.74471 0.80193 0.02548 0.0
O410 O 0.72472 0.92067 0.985 0.0
O411 O 0.66727 0.95657 1.0109 0.0
O412 O 0.64023 0.89245 0.95427 0.0
O413 O 0.68643 0.83714 0.9463 0.0
O414 O 0.7078 0.79661 0.99974 0.0
O415 O 0.73954 0.84095 0.04897 0.0
O416 O 0.65862 0.8564 0.12361 0.0
O417 O 0.63799 0.81235 0.06597 0.0
C418 C 0.70212 0.95912 0.98288 0.0
C419 C 0.63933 0.81818 0.11119 0.0
Dy420 Dy 0.83906 0.68833 1.00505 0.0
C421 C 0.93208 0.68495 0.11827 0.0
C422 C 0.82522 0.64792 0.92299 0.0
Dy423 Dy 0.86752 0.68128 0.05013 0.0
O424 O 0.86251 0.64422 0.94776 0.0
O425 O 0.79811 0.6788 0.9407 0.0
O426 O 0.77573 0.73009 0.99048 0.0
O427 O 0.82523 0.75452 0.03938 0.0
C428 C 0.78436 0.76332 1.01968 0.0
C429 C 0.84934 0.58194 0.04975 0.0
O430 O 0.82415 0.71663 0.10012 0.0
O431 O 0.78701 0.66494 0.06075 0.0
O432 O 0.93757 0.70462 0.07742 0.0
O433 O 0.89155 0.66513 0.12217 0.0
O434 O 0.85369 0.60793 0.08589 0.0
O435 O 0.85035 0.61085 1.01483 0.0
O436 O 0.90025 0.7277 0.96826 0.0
O437 O 0.93705 0.68061 1.01308 0.0
C438 C 0.78747 0.69097 0.09764 0.0
C439 C 0.94041 0.70913 0.97789 0.0
Dy440 Dy 0.41693 0.89222 0.02347 0.0
C441 C 0.40015 0.83165 0.15772 0.0
C442 C 0.39511 0.96879 0.97186 0.0
Dy443 Dy 0.40059 0.86002 0.06755 0.0
O444 O 0.43291 0.94524 0.96823 0.0
O445 O 0.36784 0.95045 1.00312 0.0
O446 O 0.49306 0.88661 0.99975 0.0
O447 O 0.47963 0.87422 0.07075 0.0
C448 C 0.5129 0.87844 0.03988 0.0
C449 C 0.32105 0.82013 0.04043 0.0
O450 O 0.36315 0.92323 0.09258 0.0
O451 O 0.42914 0.95137 0.07121 0.0
O452 O 0.40811 0.87387 0.14298 0.0
O453 O 0.38924 0.80637 0.12264 0.0
O454 O 0.34227 0.80993 0.07874 0.0
O455 O 0.34469 0.85149 1.01597 0.0
O456 O 0.41757 0.84661 0.96455 0.0
O457 O 0.43796 0.80625 0.02668 0.0
C458 C 0.39222 0.95777 0.09513 0.0
C459 C 0.4337 0.80838 0.98134 0.0
Dy460 Dy 0.67004 0.23556 0.03839 0.0
C461 C 0.69025 0.3412 0.14092 0.0
C462 C 0.67543 0.16838 0.9749 0.0
Dy463 Dy 0.67775 0.27365 0.0796 0.0
O464 O 0.65498 0.2076 0.96854 0.0
O465 O 0.69238 0.16446 1.01661 0.0
O466 O 0.59202 0.23491 1.01572 0.0
O467 O 0.60286 0.24888 0.08441 0.0
C468 C 0.57005 0.24353 0.05381 0.0
C469 C 0.76962 0.28865 0.06179 0.0
O470 O 0.65856 0.21837 0.13182 0.0
O471 O 0.69975 0.17888 0.0841 0.0
O472 O 0.70052 0.29828 0.14804 0.0
O473 O 0.67694 0.34698 0.09815 0.0
O474 O 0.75398 0.26596 0.09816 0.0
O475 O 0.73578 0.28536 0.03254 0.0
O476 O 0.69046 0.28173 0.9802 0.0
O477 O 0.64387 0.31821 0.02514 0.0
C478 C 0.68048 0.18045 0.12462 0.0
C479 C 0.66064 0.31417 0.98324 0.0
Dy480 Dy 0.52009 0.7066 0.92569 0.0
C481 C 0.61959 0.83492 0.90557 0.0
C482 C 0.47681 0.62497 0.90129 0.0
Dy483 Dy 0.5643 0.75932 0.91789 0.0
O484 O 0.50494 0.62998 0.93605 0.0
O485 O 0.46971 0.66522 0.88185 0.0
O486 O 0.49668 0.70709 1.00294 0.0
O487 O 0.56589 0.7254 0.9902 0.0
C488 C 0.53498 0.72042 0.02323 0.0
C489 C 0.53399 0.77131 0.82878 0.0
O490 O 0.62211 0.70968 0.93294 0.0
O491 O 0.57582 0.66304 0.89529 0.0
O492 O 0.62975 0.7934 0.89368 0.0
O493 O 0.57924 0.83424 0.92574 0.0
O494 O 0.57641 0.76153 0.83955 0.0
O495 O 0.50927 0.75997 0.86509 0.0
O496 O 0.45611 0.74368 0.93841 0.0
O497 O 0.50972 0.79861 0.95442 0.0
C498 C 0.61673 0.67034 0.91251 0.0
C499 C 0.46611 0.78449 0.95396 0.0
Dy500 Dy 0.36949 0.52193 0.92379 0.0
C501 C 0.34667 0.65876 0.91671 0.0
C502 C 0.43699 0.45659 0.91028 0.0
Dy503 Dy 0.34482 0.5658 0.90911 0.0
O504 O 0.43159 0.49346 0.88383 0.0
O505 O 0.40512 0.45492 0.94221 0.0
O506 O 0.37274 0.50185 1.00196 0.0
O507 O 0.34347 0.56603 0.98779 0.0
C508 C 0.35614 0.53825 1.02168 0.0
C509 C 0.2872 0.54933 0.83764 0.0
O510 O 0.41085 0.58419 0.86851 0.0
O511 O 0.43653 0.56052 0.93364 0.0
O512 O 0.3767 0.6309 0.93481 0.0
O513 O 0.3161 0.63524 0.89333 0.0
O514 O 0.28475 0.58576 0.86331 0.0
O515 O 0.32053 0.52208 0.85381 0.0
O516 O 0.32572 0.46076 0.91863 0.0
O517 O 0.2937 0.52094 0.9505 0.0
C518 C 0.44584 0.58484 0.89692 0.0
C519 C 0.29396 0.47578 0.94503 0.0
Dy520 Dy 0.55807 0.3723 0.91425 0.0
C521 C 0.43597 0.3015 0.90686 0.0
C522 C 0.61692 0.44702 0.89355 0.0
Dy523 Dy 0.52533 0.33137 0.91593 0.0
O524 O 0.57517 0.45008 0.91048 0.0
O525 O 0.6263 0.40346 0.8884 0.0
O526 O 0.55236 0.40389 0.98914 0.0
O527 O 0.54328 0.33353 0.98991 0.0
C528 C 0.54637 0.36821 1.01746 0.0
C529 C 0.54752 0.27983 0.84275 0.0
O530 O 0.47923 0.39033 0.93971 0.0
O531 O 0.50672 0.42008 0.8773 0.0
O532 O 0.4539 0.33739 0.88536 0.0
O533 O 0.46973 0.27857 0.92692 0.0
O534 O 0.53081 0.26318 0.88178 0.0
O535 O 0.55667 0.32475 0.84685 0.0
O536 O 0.63059 0.35175 0.91738 0.0
O537 O 0.58556 0.30226 0.9555 0.0
C538 C 0.47523 0.42329 0.90886 0.0
C539 C 0.62768 0.3179 0.9467 0.0
Dy540 Dy 0.71495 0.56368 0.92262 0.0
C541 C 0.77285 0.43067 0.95387 0.0
C542 C 0.65183 0.63396 0.91404 0.0
Dy543 Dy 0.75209 0.51347 0.91693 0.0
O544 O 0.64551 0.592 0.89944 0.0
O545 O 0.69205 0.63744 0.93403 0.0
O546 O 0.7341 0.59042 0.99685 0.0
O547 O 0.7258 0.52027 0.99099 0.0
C548 C 0.73269 0.55176 1.02149 0.0
C549 C 0.78766 0.5282 0.83162 0.0
O550 O 0.69494 0.47546 0.87977 0.0
O551 O 0.64928 0.52061 0.91831 0.0
O552 O 0.73138 0.44708 0.95192 0.0
O553 O 0.80205 0.4579 0.9313 0.0
O554 O 0.80393 0.49851 0.86226 0.0
O555 O 0.75111 0.54997 0.84849 0.0
O556 O 0.76481 0.60994 0.88614 0.0
O557 O 0.80462 0.56868 0.93582 0.0
C558 C 0.65304 0.4838 0.89366 0.0
C559 C 0.80314 0.60592 0.90858 0.0
Dy560 Dy 0.53127 0.3801 0.17405 0.0
C561 C 0.65881 0.35828 0.17264 0.0
C562 C 0.46471 0.44332 0.18715 0.0
Dy563 Dy 0.56695 0.35277 0.18517 0.0
O564 O 0.46198 0.40946 0.15844 0.0
O565 O 0.50381 0.44336 0.20982 0.0
O566 O 0.51971 0.40061 0.09612 0.0
O567 O 0.56129 0.34414 0.10693 0.0
C568 C 0.54343 0.37022 0.07398 0.0
C569 C 0.54975 0.29213 0.25567 0.0
O570 O 0.59342 0.41331 0.22985 0.0
O571 O 0.57157 0.44821 0.16934 0.0
O572 O 0.62908 0.3864 0.15428 0.0
O573 O 0.6374 0.32712 0.19875 0.0
O574 O 0.58187 0.28592 0.22457 0.0
O575 O 0.52748 0.33049 0.24472 0.0
O576 O 0.46519 0.34407 0.1878 0.0
O577 O 0.5151 0.30914 0.14534 0.0
C578 C 0.5966 0.45211 0.20588 0.0
C579 C 0.47157 0.31371 0.15714 0.0
Dy580 Dy 0.71288 0.5404 0.17791 0.0
C581 C 0.77029 0.67167 0.13972 0.0
C582 C 0.6397 0.48062 0.20284 0.0
Dy583 Dy 0.75054 0.58991 0.1803 0.0
O584 O 0.64246 0.52438 0.21188 0.0
O585 O 0.67554 0.47031 0.17755 0.0
O586 O 0.72811 0.509 0.10421 0.0
O587 O 0.72661 0.57983 0.10686 0.0
C588 C 0.7311 0.5468 0.07803 0.0
C589 C 0.79216 0.58116 0.26198 0.0
O590 O 0.69507 0.62711 0.21903 0.0
O591 O 0.65011 0.5838 0.17678 0.0
O592 O 0.72934 0.65263 0.14027 0.0
O593 O 0.7996 0.64711 0.16405 0.0
O594 O 0.80601 0.61021 0.22915 0.0
O595 O 0.7552 0.55672 0.24871 0.0
O596 O 0.7577 0.49105 0.21374 0.0
O597 O 0.7991 0.53171 0.16347 0.0
C598 C 0.65369 0.61902 0.20329 0.0
C599 C 0.79569 0.49434 0.19069 0.0
Dy600 Dy 0.55436 0.71807 0.17861 0.0
C601 C 0.43438 0.81178 0.18628 0.0
C602 C 0.61715 0.65268 0.20394 0.0
Dy603 Dy 0.51215 0.76074 0.1831 0.0
O604 O 0.57538 0.64391 0.18932 0.0
O605 O 0.62495 0.69702 0.20416 0.0
O606 O 0.57942 0.71214 0.10176 0.0
O607 O 0.51114 0.73265 0.11014 0.0
C608 C 0.54194 0.72291 0.07885 0.0
C609 C 0.54097 0.79605 0.2646 0.0
O610 O 0.45693 0.70628 0.20416 0.0
O611 O 0.50908 0.6541 0.18951 0.0
O612 O 0.4355 0.76697 0.19041 0.0
O613 O 0.47617 0.82785 0.17964 0.0
O614 O 0.52779 0.82037 0.22891 0.0
O615 O 0.54481 0.75235 0.25255 0.0
O616 O 0.61623 0.76347 0.17038 0.0
O617 O 0.56047 0.80015 0.13357 0.0
C618 C 0.46652 0.66227 0.20135 0.0
C619 C 0.60505 0.79604 0.14138 0.0
Dy620 Dy 0.33181 0.58968 0.18142 0.0
C621 C 0.42945 0.47776 0.18873 0.0
C622 C 0.31712 0.67551 0.14755 0.0
Dy623 Dy 0.36592 0.54414 0.17522 0.0
O624 O 0.28728 0.65114 0.17247 0.0
O625 O 0.35593 0.65395 0.14449 0.0
O626 O 0.2749 0.59638 0.23393 0.0
O627 O 0.32924 0.5482 0.24822 0.0
C628 C 0.29034 0.56547 0.26392 0.0
C629 C 0.35152 0.54207 0.07742 0.0
O630 O 0.31344 0.49547 0.20464 0.0
O631 O 0.27538 0.54143 0.15789 0.0
O632 O 0.39061 0.47249 0.16689 0.0
O633 O 0.4347 0.51977 0.20354 0.0
O634 O 0.36068 0.50748 0.10547 0.0
O635 O 0.34628 0.57779 0.1037 0.0
O636 O 0.38795 0.63134 0.21842 0.0
O637 O 0.43144 0.58933 0.17563 0.0
C638 C 0.27522 0.50261 0.18254 0.0
C639 C 0.42939 0.62525 0.20189 0.0
Dy640 Dy 0.90969 0.53151 0.71584 0.0
C641 C 0.90354 0.61735 0.84325 0.0
C642 C 0.892 0.49002 0.63304 0.0
Dy643 Dy 0.90467 0.56728 0.76601 0.0
O644 O 0.92547 0.51948 0.64048 0.0
O645 O 0.86801 0.48331 0.67068 0.0
O646 O 0.98738 0.50854 0.71514 0.0
O647 O 0.97659 0.57572 0.7352 0.0
C648 C 1.00917 0.54577 0.72859 0.0
C649 C 0.81623 0.5398 0.78569 0.0
O650 O 0.91687 0.62935 0.71717 0.0
O651 O 0.87806 0.58663 0.66931 0.0
O652 O 0.88241 0.62798 0.80521 0.0
O653 O 0.92246 0.57699 0.83963 0.0
O654 O 0.82782 0.58244 0.77531 0.0
O655 O 0.84992 0.51446 0.77067 0.0
O656 O 0.91714 0.46051 0.74122 0.0
O657 O 0.9387 0.5049 0.7995 0.0
C658 C 0.89571 0.62723 0.67742 0.0
C659 C 0.93547 0.4632 0.78178 0.0
Dy660 Dy 0.55102 0.90956 0.7232 0.0
C661 C 0.4245 0.9128 0.81348 0.0
C662 C 0.61168 0.90067 0.65019 0.0
Dy663 Dy 0.50282 0.90079 0.7648 0.0
O664 O 0.56824 0.88803 0.6497 0.0
O665 O 0.62171 0.91867 0.6899 0.0
O666 O 0.57912 0.98449 0.7374 0.0
O667 O 0.50791 0.97582 0.73738 0.0
C668 C 0.54052 1.0073 0.74018 0.0
C669 C 0.52312 0.8165 0.79965 0.0
O670 O 0.45497 0.87592 0.7075 0.0
O671 O 0.50535 0.90935 0.66007 0.0
O672 O 0.42612 0.90716 0.76903 0.0
O673 O 0.46595 0.91033 0.8308 0.0
O674 O 0.49454 0.84488 0.81757 0.0
O675 O 0.54174 0.83456 0.76092 0.0
O676 O 0.60482 0.88448 0.77103 0.0
O677 O 0.55921 0.92796 0.81139 0.0
C678 C 0.46469 0.89005 0.66528 0.0
C679 C 0.59948 0.90757 0.80829 0.0
Dy680 Dy 0.16381 0.56827 0.71776 0.0
C681 C 0.1675 0.42829 0.74132 0.0
C682 C 0.17758 0.64156 0.65754 0.0
Dy683 Dy 0.1764 0.52169 0.74281 0.0
O684 O 0.19862 0.60213 0.65441 0.0
O685 O 0.14965 0.64077 0.69276 0.0
O686 O 0.087 0.59262 0.72104 0.0
O687 O 0.09733 0.52213 0.73309 0.0
C688 C 0.06511 0.55332 0.72857 0.0
C689 C 0.24833 0.53872 0.79997 0.0
O690 O 0.22187 0.5044 0.68074 0.0
O691 O 0.16159 0.5318 0.64864 0.0
O692 O 0.1543 0.45648 0.70861 0.0
O693 O 0.19097 0.45163 0.77169 0.0
O694 O 0.21966 0.5035 0.80541 0.0
O695 O 0.23457 0.56515 0.76433 0.0
O696 O 0.17454 0.62034 0.77013 0.0
O697 O 0.13552 0.55997 0.79725 0.0
C698 C 0.19767 0.50636 0.64281 0.0
C699 C 0.14769 0.60376 0.80204 0.0
Dy700 Dy 0.53271 0.16349 0.71975 0.0
C701 C 0.66021 0.14338 0.75824 0.0
C702 C 0.46778 0.17897 0.65305 0.0
Dy703 Dy 0.57316 0.17218 0.74887 0.0
O704 O 0.46239 0.15156 0.68906 0.0
O705 O 0.50927 0.19746 0.65196 0.0
O706 O 0.50204 0.08724 0.72003 0.0
O707 O 0.56789 0.09412 0.74694 0.0
C708 C 0.5365 0.06339 0.73678 0.0
C709 C 0.56021 0.24462 0.80369 0.0
O710 O 0.60315 0.21896 0.69182 0.0
O711 O 0.57574 0.16171 0.65467 0.0
O712 O 0.63375 0.13364 0.72333 0.0
O713 O 0.64086 0.17413 0.78402 0.0
O714 O 0.58859 0.21083 0.8136 0.0
O715 O 0.53754 0.23478 0.7652 0.0
O716 O 0.47222 0.18895 0.75634 0.0
O717 O 0.51676 0.14088 0.79412 0.0
C718 C 0.60312 0.19738 0.65309 0.0
C719 C 0.47574 0.1593 0.78968 0.0
Dy720 Dy 0.91691 0.58447 0.37991 0.0
C721 C 0.89753 0.44909 0.32993 0.0
C722 C 0.90517 0.6455 0.45107 0.0
Dy723 Dy 0.90159 0.54033 0.34908 0.0
O724 O 0.88255 0.60628 0.44805 0.0
O725 O 0.93233 0.65137 0.41541 0.0
O726 O 0.99432 0.60562 0.38009 0.0
O727 O 0.98058 0.5391 0.35608 0.0
C728 C 1.01415 0.56828 0.36569 0.0
C729 C 0.82828 0.56575 0.29926 0.0
O730 O 0.86094 0.51735 0.41329 0.0
O731 O 0.92627 0.53724 0.44086 0.0
O732 O 0.90862 0.46587 0.36967 0.0
O733 O 0.88911 0.4828 0.30073 0.0
O734 O 0.85392 0.53074 0.28992 0.0
O735 O 0.84538 0.58838 0.33505 0.0
O736 O 0.91093 0.64502 0.33458 0.0
O737 O 0.94298 0.58635 0.30047 0.0
C738 C 0.88926 0.51288 0.44795 0.0
C739 C 0.93674 0.63126 0.30173 0.0
Dy740 Dy 0.52593 0.91763 0.37253 0.0
C741 C 0.63057 0.90285 0.26187 0.0
C742 C 0.46701 0.91635 0.44479 0.0
Dy743 Dy 0.56847 0.91105 0.33087 0.0
O744 O 0.45909 0.93555 0.40473 0.0
O745 O 0.50671 0.89552 0.44588 0.0
O746 O 0.50157 0.99378 0.36929 0.0
O747 O 0.57168 0.98481 0.35871 0.0
C748 C 0.54008 1.01651 0.36233 0.0
C749 C 0.54524 0.82045 0.31305 0.0
O750 O 0.62014 0.9289 0.38671 0.0
O751 O 0.57072 0.89202 0.4318 0.0
O752 O 0.63653 0.88878 0.30429 0.0
O753 O 0.5899 0.92164 0.25791 0.0
O754 O 0.58586 0.83417 0.32705 0.0
O755 O 0.51755 0.85371 0.32403 0.0
O756 O 0.46469 0.90404 0.32977 0.0
O757 O 0.51396 0.94541 0.28725 0.0
C758 C 0.61151 0.91138 0.4278 0.0
C759 C 0.47096 0.93114 0.29398 0.0
Dy760 Dy 0.17433 0.51696 0.3425 0.0
C761 C 0.17628 0.6337 0.43983 0.0
C762 C 0.1393 0.43135 0.32644 0.0
Dy763 Dy 0.16744 0.56746 0.3754 0.0
O764 O 0.16487 0.45591 0.2974 0.0
O765 O 0.13594 0.45268 0.36525 0.0
O766 O 0.22677 0.50947 0.28585 0.0
O767 O 0.24007 0.55973 0.3383 0.0
C768 C 0.25583 0.54158 0.29984 0.0
C769 C 0.06987 0.56501 0.35996 0.0
O770 O 0.1985 0.61387 0.32224 0.0
O771 O 0.15216 0.56628 0.28585 0.0
O772 O 0.157 0.63952 0.39958 0.0
O773 O 0.1919 0.59196 0.44524 0.0
O774 O 0.09683 0.60141 0.36256 0.0
O775 O 0.0974 0.52953 0.36141 0.0
O776 O 0.21541 0.4818 0.40097 0.0
O777 O 0.1717 0.52572 0.44202 0.0
C778 C 0.17685 0.605 0.28425 0.0
C779 C 0.20052 0.49163 0.44217 0.0
Dy780 Dy 0.55565 0.17166 0.38223 0.0
C781 C 0.43378 0.15181 0.35925 0.0
C782 C 0.62137 0.20942 0.43934 0.0
Dy783 Dy 0.52179 0.18114 0.3528 0.0
O784 O 0.57999 0.19558 0.45271 0.0
O785 O 0.62636 0.20285 0.39516 0.0
O786 O 0.56682 0.09302 0.40211 0.0
O787 O 0.5268 0.10467 0.34356 0.0
C788 C 0.54507 0.07179 0.36879 0.0
C789 C 0.53715 0.2533 0.29378 0.0
O790 O 0.48515 0.22826 0.40521 0.0
O791 O 0.5119 0.1749 0.44888 0.0
O792 O 0.46653 0.13815 0.38701 0.0
O793 O 0.44977 0.18165 0.32791 0.0
O794 O 0.5042 0.22234 0.28748 0.0
O795 O 0.56117 0.24095 0.33078 0.0
O796 O 0.62397 0.14447 0.36735 0.0
O797 O 0.5765 0.1456 0.30747 0.0
C798 C 0.48235 0.20847 0.44618 0.0
C799 C 0.61764 0.135 0.3247 0.0
Dy800 Dy 0.70698 0.93864 0.53584 0.0
C801 C 0.7518 0.96298 0.66537 0.0
C802 C 0.64314 0.9204 0.46698 0.0
Dy803 Dy 0.73869 0.93071 0.58036 0.0
O804 O 0.67888 0.94821 0.46333 0.0
O805 O 0.64026 0.90365 0.50945 0.0
O806 O 0.70813 1.01552 0.50525 0.0
O807 O 0.73029 1.00808 0.57284 0.0
C808 C 0.72269 0.03905 0.5406 0.0
C809 C 0.79213 0.85653 0.56808 0.0
O810 O 0.68341 0.8838 0.61222 0.0
O811 O 0.64221 0.93667 0.58016 0.0
O812 O 0.71435 0.96946 0.64118 0.0
O813 O 0.77905 0.93417 0.64493 0.0
O814 O 0.80074 0.88861 0.59829 0.0
O815 O 0.7555 0.86891 0.54285 0.0
O816 O 0.74935 0.91611 0.47841 0.0
O817 O 0.78336 0.96471 0.52499 0.0
C818 C 0.64311 0.90263 0.61015 0.0
C819 C 0.7808 0.94726 0.48359 0.0
Dy820 Dy 0.71292 0.19294 0.55861 0.0
C821 C 0.82885 0.192 0.44642 0.0
C822 C 0.64142 0.20057 0.62034 0.0
Dy823 Dy 0.75997 0.19981 0.50849 0.0
O824 O 0.68378 0.19037 0.63121 0.0
O825 O 0.63714 0.20383 0.57562 0.0
O826 O 0.72515 0.11675 0.58418 0.0
O827 O 0.72489 0.12786 0.51321 0.0
C828 C 0.72687 0.09509 0.54509 0.0
C829 C 0.77923 0.28946 0.52551 0.0
O830 O 0.70137 0.19844 0.45763 0.0
O831 O 0.65608 0.22106 0.51418 0.0
O832 O 0.78801 0.20748 0.43707 0.0
O833 O 0.8318 0.18182 0.49045 0.0
O834 O 0.77902 0.27235 0.48465 0.0
O835 O 0.75837 0.26068 0.55446 0.0
O836 O 0.76156 0.21974 0.61032 0.0
O837 O 0.80524 0.17607 0.56734 0.0
C838 C 0.66109 0.21336 0.47043 0.0
C839 C 0.79979 0.19736 0.60667 0.0
Dy840 Dy 0.91266 0.73422 0.57357 0.0
C841 C 0.89919 0.8107 0.4387 0.0
C842 C 0.89839 0.66533 0.64178 0.0
Dy843 Dy 0.90871 0.77924 0.52739 0.0
O844 O 0.88606 0.66254 0.59842 0.0
O845 O 0.91866 0.7053 0.64761 0.0
O846 O 0.99067 0.72851 0.59688 0.0
O847 O 0.98203 0.75336 0.52972 0.0
C848 C 1.01373 0.74299 0.56031 0.0
C849 C 0.83319 0.82344 0.55469 0.0
O850 O 0.91629 0.722 0.47708 0.0
O851 O 0.88967 0.67348 0.52995 0.0
O852 O 0.87908 0.77353 0.45598 0.0
O853 O 0.91532 0.83473 0.47332 0.0
O854 O 0.86845 0.84301 0.5336 0.0
O855 O 0.84249 0.77923 0.5664 0.0
O856 O 0.90238 0.7834 0.62825 0.0
O857 O 0.95274 0.81466 0.57868 0.0
C858 C 0.90153 0.68058 0.48697 0.0
C859 C 0.93761 0.81069 0.62143 0.0
Dy860 Dy 0.33347 0.91915 0.59107 0.0
C861 C 0.43515 0.92056 0.48245 0.0
C862 C 0.31366 0.95224 0.67437 0.0
Dy863 Dy 0.36998 0.92743 0.5483 0.0
O864 O 0.35439 0.95404 0.65557 0.0
O865 O 0.285 0.92757 0.64948 0.0
O866 O 0.27504 0.86777 0.59552 0.0
O867 O 0.33644 0.85129 0.55734 0.0
C868 C 0.29492 0.83637 0.57055 0.0
C869 C 0.34983 0.02564 0.54906 0.0
O870 O 0.32715 0.89145 0.49708 0.0
O871 O 0.28435 0.93971 0.53363 0.0
O872 O 0.39554 0.94034 0.47673 0.0
O873 O 0.44109 0.90589 0.52498 0.0
O874 O 0.35611 1.00025 0.51287 0.0
O875 O 0.3511 0.99641 0.58372 0.0
O876 O 0.38658 0.87846 0.63327 0.0
O877 O 0.43359 0.92377 0.59386 0.0
C878 C 0.28888 0.91356 0.49728 0.0
C879 C 0.42881 0.89444 0.6285 0.0
Dy880 Dy 0.16908 0.39134 0.55632 0.0
C881 C 0.15499 0.36211 0.42575 0.0
C882 C 0.19645 0.46846 0.60849 0.0
Dy883 Dy 0.17663 0.36412 0.51681 0.0
O884 O 0.16907 0.46851 0.57288 0.0
O885 O 0.20904 0.42565 0.61613 0.0
O886 O 0.0916 0.39425 0.5833 0.0
O887 O 0.09956 0.36938 0.51733 0.0
C888 C 0.06841 0.37947 0.54748 0.0
C889 C 0.24466 0.30195 0.52549 0.0
O890 O 0.2247 0.42068 0.48502 0.0
O891 O 0.16727 0.4566 0.51092 0.0
O892 O 0.14014 0.39252 0.45431 0.0
O893 O 0.18642 0.33717 0.44629 0.0
O894 O 0.20776 0.29663 0.49974 0.0
O895 O 0.23949 0.34096 0.54898 0.0
O896 O 0.15858 0.35646 0.62363 0.0
O897 O 0.13794 0.31238 0.56598 0.0
C898 C 0.20212 0.45913 0.4829 0.0
C899 C 0.13927 0.31824 0.6112 0.0
Dy900 Dy 0.33901 0.18835 0.50502 0.0
C901 C 0.43208 0.18497 0.61825 0.0
C902 C 0.32518 0.14794 0.42304 0.0
Dy903 Dy 0.36751 0.18131 0.55012 0.0
O904 O 0.3625 0.14423 0.44775 0.0
O905 O 0.29801 0.17879 0.44071 0.0
O906 O 0.27567 0.23011 0.49049 0.0
O907 O 0.32519 0.25454 0.53937 0.0
C908 C 0.28431 0.26333 0.51969 0.0
C909 C 0.34933 0.08196 0.54975 0.0
O910 O 0.32417 0.21667 0.60016 0.0
O911 O 0.28699 0.16495 0.56075 0.0
O912 O 0.43756 0.20463 0.5774 0.0
O913 O 0.39155 0.16515 0.62216 0.0
O914 O 0.35368 0.10796 0.58589 0.0
O915 O 0.35033 0.11088 0.51483 0.0
O916 O 0.40019 0.2277 0.46821 0.0
O917 O 0.43703 0.18067 0.51307 0.0
C918 C 0.28751 0.19099 0.59764 0.0
C919 C 0.44037 0.20917 0.47785 0.0
Dy920 Dy 0.91688 0.39222 0.52344 0.0
C921 C 0.90008 0.33159 0.65767 0.0
C922 C 0.89501 0.46875 0.47178 0.0
Dy923 Dy 0.90055 0.35999 0.56758 0.0
O924 O 0.93277 0.44515 0.46808 0.0
O925 O 0.86782 0.4505 0.50316 0.0
O926 O 0.99302 0.38663 0.49974 0.0
O927 O 0.97958 0.37426 0.57074 0.0
C928 C 1.01286 0.37847 0.53987 0.0
C929 C 0.82099 0.32015 0.54042 0.0
O930 O 0.86316 0.4232 0.59265 0.0
O931 O 0.9291 0.45139 0.57116 0.0
O932 O 0.90803 0.37384 0.64302 0.0
O933 O 0.88924 0.30626 0.62261 0.0
O934 O 0.8422 0.30994 0.57874 0.0
O935 O 0.84466 0.3515 0.51597 0.0
O936 O 0.91751 0.34654 0.46457 0.0
O937 O 0.93796 0.30623 0.52674 0.0
C938 C 0.89222 0.45775 0.59516 0.0
C939 C 0.93368 0.30836 0.48141 0.0
Dy940 Dy 0.17007 0.7356 0.53841 0.0
C941 C 0.19032 0.84131 0.64089 0.0
C942 C 0.17543 0.66841 0.47493 0.0
Dy943 Dy 0.1778 0.77376 0.57966 0.0
O944 O 0.15499 0.70762 0.46857 0.0
O945 O 0.1924 0.66449 0.51664 0.0
O946 O 0.09204 0.73496 0.51577 0.0
O947 O 0.10291 0.74895 0.58446 0.0
C948 C 0.07009 0.74359 0.55387 0.0
C949 C 0.26966 0.78867 0.5618 0.0
O950 O 0.15864 0.71847 0.6319 0.0
O951 O 0.19975 0.67893 0.58414 0.0
O952 O 0.20062 0.79841 0.6481 0.0
O953 O 0.17704 0.84714 0.59812 0.0
O954 O 0.25403 0.76599 0.59818 0.0
O955 O 0.23581 0.78538 0.53257 0.0
O956 O 0.19045 0.78175 0.48019 0.0
O957 O 0.1439 0.81829 0.52519 0.0
C958 C 0.18052 0.68052 0.62468 0.0
C959 C 0.16066 0.8142 0.4833 0.0
loop_
_geom_bond_atom_site_label_1
_geom_bond_atom_site_label_2
_geom_bond_distance
_geom_bond_site_symmetry_2
_ccdc_geom_bond_type
Dy0 O4 2.398 . S
Dy0 O5 2.491 . S
Dy0 O6 2.403 . S
Dy0 O7 2.664 1_655 S
Dy0 O11 2.326 1_655 S
Dy0 O15 2.310 . S
Dy0 O16 2.351 . S
C1 O12 1.185 . S
C1 O13 1.355 . S
C2 O4 1.185 . S
C2 O5 1.355 . S
Dy3 O7 2.310 . S
Dy3 O10 2.351 . S
Dy3 O12 2.398 . S
Dy3 O13 2.491 . S
Dy3 O14 2.403 . S
Dy3 O15 2.664 1_455 S
Dy3 O17 2.326 1_455 S
O4 Dy0 2.398 . S
O4 C2 1.185 . S
O5 Dy0 2.491 . S
O5 C2 1.355 . S
O6 Dy0 2.403 . S
O6 C8 1.254 . S
O7 Dy0 2.664 1_455 S
O7 Dy3 2.310 . S
O7 C8 1.268 1_455 S
C8 O6 1.254 . S
C8 O7 1.268 1_655 S
C9 O14 1.254 . S
C9 O15 1.268 1_455 S
O10 Dy3 2.351 . S
O10 C18 1.249 . S
O11 Dy0 2.326 1_455 S
O11 C18 1.267 . S
O12 C1 1.185 . S
O12 Dy3 2.398 . S
O13 C1 1.355 . S
O13 Dy3 2.491 . S
O14 Dy3 2.403 . S
O14 C9 1.254 . S
O15 Dy0 2.310 . S
O15 Dy3 2.664 1_655 S
O15 C9 1.268 1_655 S
O16 Dy0 2.351 . S
O16 C19 1.249 . S
O17 Dy3 2.326 1_655 S
O17 C19 1.267 . S
C18 O10 1.249 . S
C18 O11 1.267 . S
C19 O16 1.249 . S
C19 O17 1.267 . S
Dy20 O24 2.398 . S
Dy20 O25 2.491 . S
Dy20 O26 2.403 . S
Dy20 O27 2.664 1_565 S
Dy20 O31 2.326 1_565 S
Dy20 O35 2.310 1_565 S
Dy20 O36 2.351 . S
C21 O32 1.185 . S
C21 O33 1.355 . S
C22 O24 1.185 . S
C22 O25 1.355 . S
Dy23 O27 2.310 . S
Dy23 O30 2.351 . S
Dy23 O32 2.398 . S
Dy23 O33 2.491 . S
Dy23 O34 2.403 . S
Dy23 O35 2.664 . S
Dy23 O37 2.326 . S
O24 Dy20 2.398 . S
O24 C22 1.185 . S
O25 Dy20 2.491 . S
O25 C22 1.355 . S
O26 Dy20 2.403 . S
O26 C28 1.254 1_565 S
O27 Dy20 2.664 1_545 S
O27 Dy23 2.310 . S
O27 C28 1.268 . S
C28 O26 1.254 1_545 S
C28 O27 1.268 . S
C29 O34 1.254 . S
C29 O35 1.268 . S
O30 Dy23 2.351 . S
O30 C38 1.249 . S
O31 Dy20 2.326 1_545 S
O31 C38 1.267 . S
O32 C21 1.185 . S
O32 Dy23 2.398 . S
O33 C21 1.355 . S
O33 Dy23 2.491 . S
O34 Dy23 2.403 . S
O34 C29 1.254 . S
O35 Dy20 2.310 1_545 S
O35 Dy23 2.664 . S
O35 C29 1.268 . S
O36 Dy20 2.351 . S
O36 C39 1.249 . S
O37 Dy23 2.326 . S
O37 C39 1.267 1_545 S
C38 O30 1.249 . S
C38 O31 1.267 . S
C39 O36 1.249 . S
C39 O37 1.267 1_565 S
Dy40 O44 2.398 . S
Dy40 O45 2.491 . S
Dy40 O46 2.403 . S
Dy40 O47 2.664 . S
Dy40 O51 2.326 . S
Dy40 O55 2.310 . S
Dy40 O56 2.351 . S
C41 O52 1.185 . S
C41 O53 1.355 . S
C42 O44 1.185 . S
C42 O45 1.355 . S
Dy43 O47 2.310 1_655 S
Dy43 O50 2.351 . S
Dy43 O52 2.398 . S
Dy43 O53 2.491 . S
Dy43 O54 2.403 . S
Dy43 O55 2.664 1_655 S
Dy43 O57 2.326 1_655 S
O44 Dy40 2.398 . S
O44 C42 1.185 . S
O45 Dy40 2.491 . S
O45 C42 1.355 . S
O46 Dy40 2.403 . S
O46 C48 1.254 . S
O47 Dy40 2.664 . S
O47 Dy43 2.310 1_455 S
O47 C48 1.268 . S
C48 O46 1.254 . S
C48 O47 1.268 . S
C49 O54 1.254 1_455 S
C49 O55 1.268 . S
O50 Dy43 2.351 . S
O50 C58 1.249 . S
O51 Dy40 2.326 . S
O51 C58 1.267 1_455 S
O52 C41 1.185 . S
O52 Dy43 2.398 . S
O53 C41 1.355 . S
O53 Dy43 2.491 . S
O54 Dy43 2.403 . S
O54 C49 1.254 1_655 S
O55 Dy40 2.310 . S
O55 Dy43 2.664 1_455 S
O55 C49 1.268 . S
O56 Dy40 2.351 . S
O56 C59 1.249 . S
O57 Dy43 2.326 1_455 S
O57 C59 1.267 . S
C58 O50 1.249 . S
C58 O51 1.267 1_655 S
C59 O56 1.249 . S
C59 O57 1.267 . S
Dy60 O64 2.398 . S
Dy60 O65 2.491 . S
Dy60 O66 2.403 . S
Dy60 O67 2.664 . S
Dy60 O71 2.326 . S
Dy60 O75 2.310 . S
Dy60 O76 2.351 . S
C61 O72 1.185 . S
C61 O73 1.355 . S
C62 O64 1.185 . S
C62 O65 1.355 . S
Dy63 O67 2.310 1_565 S
Dy63 O70 2.351 . S
Dy63 O72 2.398 . S
Dy63 O73 2.491 . S
Dy63 O74 2.403 . S
Dy63 O75 2.664 1_565 S
Dy63 O77 2.326 1_565 S
O64 Dy60 2.398 . S
O64 C62 1.185 . S
O65 Dy60 2.491 . S
O65 C62 1.355 . S
O66 Dy60 2.403 . S
O66 C68 1.254 . S
O67 Dy60 2.664 . S
O67 Dy63 2.310 1_545 S
O67 C68 1.268 . S
C68 O66 1.254 . S
C68 O67 1.268 . S
C69 O74 1.254 1_545 S
C69 O75 1.268 . S
O70 Dy63 2.351 . S
O70 C78 1.249 . S
O71 Dy60 2.326 . S
O71 C78 1.267 1_545 S
O72 C61 1.185 . S
O72 Dy63 2.398 . S
O73 C61 1.355 . S
O73 Dy63 2.491 . S
O74 Dy63 2.403 . S
O74 C69 1.254 1_565 S
O75 Dy60 2.310 . S
O75 Dy63 2.664 1_545 S
O75 C69 1.268 . S
O76 Dy60 2.351 . S
O76 C79 1.249 . S
O77 Dy63 2.326 1_545 S
O77 C79 1.267 . S
C78 O70 1.249 . S
C78 O71 1.267 1_565 S
C79 O76 1.249 . S
C79 O77 1.267 . S
Dy80 O84 2.398 . S
Dy80 O85 2.491 . S
Dy80 O86 2.403 . S
Dy80 O87 2.664 1_655 S
Dy80 O91 2.326 1_655 S
Dy80 O95 2.310 1_655 S
Dy80 O96 2.351 . S
C81 O92 1.185 . S
C81 O93 1.355 . S
C82 O84 1.185 . S
C82 O85 1.355 . S
Dy83 O87 2.310 . S
Dy83 O90 2.351 . S
Dy83 O92 2.398 . S
Dy83 O93 2.491 . S
Dy83 O94 2.403 . S
Dy83 O95 2.664 . S
Dy83 O97 2.326 . S
O84 Dy80 2.398 . S
O84 C82 1.185 . S
O85 Dy80 2.491 . S
O85 C82 1.355 . S
O86 Dy80 2.403 . S
O86 C88 1.254 1_655 S
O87 Dy80 2.664 1_455 S
O87 Dy83 2.310 . S
O87 C88 1.268 . S
C88 O86 1.254 1_455 S
C88 O87 1.268 . S
C89 O94 1.254 . S
C89 O95 1.268 . S
O90 Dy83 2.351 . S
O90 C98 1.249 . S
O91 Dy80 2.326 1_455 S
O91 C98 1.267 . S
O92 C81 1.185 . S
O92 Dy83 2.398 . S
O93 C81 1.355 . S
O93 Dy83 2.491 . S
O94 Dy83 2.403 . S
O94 C89 1.254 . S
O95 Dy80 2.310 1_455 S
O95 Dy83 2.664 . S
O95 C89 1.268 . S
O96 Dy80 2.351 . S
O96 C99 1.249 . S
O97 Dy83 2.326 . S
O97 C99 1.267 1_455 S
C98 O90 1.249 . S
C98 O91 1.267 . S
C99 O96 1.249 . S
C99 O97 1.267 1_655 S
Dy100 O104 2.398 . S
Dy100 O105 2.491 . S
Dy100 O106 2.403 . S
Dy100 O107 2.664 1_565 S
Dy100 O111 2.326 1_565 S
Dy100 O115 2.310 1_565 S
Dy100 O116 2.351 . S
C101 O112 1.185 . S
C101 O113 1.355 . S
C102 O104 1.185 . S
C102 O105 1.355 . S
Dy103 O107 2.310 . S
Dy103 O110 2.351 . S
Dy103 O112 2.398 . S
Dy103 O113 2.491 . S
Dy103 O114 2.403 . S
Dy103 O115 2.664 . S
Dy103 O117 2.326 . S
O104 Dy100 2.398 . S
O104 C102 1.185 . S
O105 Dy100 2.491 . S
O105 C102 1.355 . S
O106 Dy100 2.403 . S
O106 C108 1.254 1_565 S
O107 Dy100 2.664 1_545 S
O107 Dy103 2.310 . S
O107 C108 1.268 . S
C108 O106 1.254 1_545 S
C108 O107 1.268 . S
C109 O114 1.254 . S
C109 O115 1.268 . S
O110 Dy103 2.351 . S
O110 C118 1.249 . S
O111 Dy100 2.326 1_545 S
O111 C118 1.267 . S
O112 C101 1.185 . S
O112 Dy103 2.398 . S
O113 C101 1.355 . S
O113 Dy103 2.491 . S
O114 Dy103 2.403 . S
O114 C109 1.254 . S
O115 Dy100 2.310 1_545 S
O115 Dy103 2.664 . S
O115 C109 1.268 . S
O116 Dy100 2.351 . S
O116 C119 1.249 . S
O117 Dy103 2.326 . S
O117 C119 1.267 1_545 S
C118 O110 1.249 . S
C118 O111 1.267 . S
C119 O116 1.249 . S
C119 O117 1.267 1_565 S
Dy120 O124 2.398 . S
Dy120 O125 2.491 . S
Dy120 O126 2.403 . S
Dy120 O127 2.664 . S
Dy120 O131 2.326 . S
Dy120 O135 2.310 . S
Dy120 O136 2.351 . S
C121 O132 1.185 . S
C121 O133 1.355 . S
C122 O124 1.185 . S
C122 O125 1.355 . S
Dy123 O127 2.310 1_655 S
Dy123 O130 2.351 . S
Dy123 O132 2.398 . S
Dy123 O133 2.491 . S
Dy123 O134 2.403 . S
Dy123 O135 2.664 1_655 S
Dy123 O137 2.326 1_655 S
O124 Dy120 2.398 . S
O124 C122 1.185 . S
O125 Dy120 2.491 . S
O125 C122 1.355 . S
O126 Dy120 2.403 . S
O126 C128 1.254 . S
O127 Dy120 2.664 . S
O127 Dy123 2.310 1_455 S
O127 C128 1.268 . S
C128 O126 1.254 . S
C128 O127 1.268 . S
C129 O134 1.254 1_455 S
C129 O135 1.268 . S
O130 Dy123 2.351 . S
O130 C138 1.249 . S
O131 Dy120 2.326 . S
O131 C138 1.267 1_455 S
O132 C121 1.185 . S
O132 Dy123 2.398 . S
O133 C121 1.355 . S
O133 Dy123 2.491 . S
O134 Dy123 2.403 . S
O134 C129 1.254 1_655 S
O135 Dy120 2.310 . S
O135 Dy123 2.664 1_455 S
O135 C129 1.268 . S
O136 Dy120 2.351 . S
O136 C139 1.249 . S
O137 Dy123 2.326 1_455 S
O137 C139 1.267 . S
C138 O130 1.249 . S
C138 O131 1.267 1_655 S
C139 O136 1.249 . S
C139 O137 1.267 . S
Dy140 O144 2.398 . S
Dy140 O145 2.491 . S
Dy140 O146 2.403 . S
Dy140 O147 2.664 . S
Dy140 O151 2.326 . S
Dy140 O155 2.310 . S
Dy140 O156 2.351 . S
C141 O152 1.185 . S
C141 O153 1.355 . S
C142 O144 1.185 . S
C142 O145 1.355 . S
Dy143 O147 2.310 . S
Dy143 O150 2.351 1_545 S
Dy143 O152 2.398 1_545 S
Dy143 O153 2.491 1_545 S
Dy143 O154 2.403 . S
Dy143 O155 2.664 . S
Dy143 O157 2.326 . S
O144 Dy140 2.398 . S
O144 C142 1.185 . S
O145 Dy140 2.491 . S
O145 C142 1.355 . S
O146 Dy140 2.403 . S
O146 C148 1.254 . S
O147 Dy140 2.664 . S
O147 Dy143 2.310 . S
O147 C148 1.268 . S
C148 O146 1.254 . S
C148 O147 1.268 . S
C149 O154 1.254 . S
C149 O155 1.268 . S
O150 Dy143 2.351 1_565 S
O150 C158 1.249 1_565 S
O151 Dy140 2.326 . S
O151 C158 1.267 . S
O152 C141 1.185 . S
O152 Dy143 2.398 1_565 S
O153 C141 1.355 . S
O153 Dy143 2.491 1_565 S
O154 Dy143 2.403 . S
O154 C149 1.254 . S
O155 Dy140 2.310 . S
O155 Dy143 2.664 . S
O155 C149 1.268 . S
O156 Dy140 2.351 . S
O156 C159 1.249 . S
O157 Dy143 2.326 . S
O157 C159 1.267 . S
C158 O150 1.249 1_545 S
C158 O151 1.267 . S
C159 O156 1.249 . S
C159 O157 1.267 . S
Dy160 O164 2.398 . S
Dy160 O165 2.491 . S
Dy160 O166 2.403 . S
Dy160 O167 2.664 1_565 S
Dy160 O171 2.326 1_565 S
Dy160 O175 2.310 1_565 S
Dy160 O176 2.351 . S
C161 O172 1.185 . S
C161 O173 1.355 . S
C162 O164 1.185 . S
C162 O165 1.355 . S
Dy163 O167 2.310 . S
Dy163 O170 2.351 . S
Dy163 O172 2.398 . S
Dy163 O173 2.491 . S
Dy163 O174 2.403 . S
Dy163 O175 2.664 . S
Dy163 O177 2.304 1_545 S
O164 Dy160 2.398 . S
O164 C162 1.185 . S
O165 Dy160 2.491 . S
O165 C162 1.355 . S
O166 Dy160 2.403 . S
O166 C168 1.254 1_565 S
O167 Dy160 2.664 1_545 S
O167 Dy163 2.310 . S
O167 C168 1.268 . S
C168 O166 1.254 1_545 S
C168 O167 1.268 . S
C169 O174 1.254 . S
C169 O175 1.268 . S
O170 Dy163 2.351 . S
O170 C178 1.249 . S
O171 Dy160 2.326 1_545 S
O171 C178 1.267 . S
O172 C161 1.185 . S
O172 Dy163 2.398 . S
O173 C161 1.355 . S
O173 Dy163 2.491 . S
O174 Dy163 2.403 . S
O174 C169 1.254 . S
O175 Dy160 2.310 1_545 S
O175 Dy163 2.664 . S
O175 C169 1.268 . S
O176 Dy160 2.351 . S
O176 C179 1.249 . S
O177 Dy163 2.304 1_565 S
O177 C179 1.292 . S
C178 O170 1.249 . S
C178 O171 1.267 . S
C179 O176 1.249 . S
C179 O177 1.292 . S
Dy180 O184 2.398 . S
Dy180 O185 2.491 . S
Dy180 O186 2.403 . S
Dy180 O187 2.664 . S
Dy180 O191 2.326 . S
Dy180 O195 2.310 . S
Dy180 O196 2.351 . S
C181 O192 1.185 . S
C181 O193 1.355 . S
C182 O184 1.185 . S
C182 O185 1.355 . S
Dy183 O187 2.310 1_655 S
Dy183 O190 2.351 . S
Dy183 O192 2.398 . S
Dy183 O193 2.491 . S
Dy183 O194 2.403 . S
Dy183 O195 2.664 1_655 S
Dy183 O197 2.326 1_655 S
O184 Dy180 2.398 . S
O184 C182 1.185 . S
O185 Dy180 2.491 . S
O185 C182 1.355 . S
O186 Dy180 2.403 . S
O186 C188 1.254 . S
O187 Dy180 2.664 . S
O187 Dy183 2.310 1_455 S
O187 C188 1.268 . S
C188 O186 1.254 . S
C188 O187 1.268 . S
C189 O194 1.268 . S
C189 O195 1.261 1_655 S
O190 Dy183 2.351 . S
O190 C198 1.249 . S
O191 Dy180 2.326 . S
O191 C198 1.267 1_455 S
O192 C181 1.185 . S
O192 Dy183 2.398 . S
O193 C181 1.355 . S
O193 Dy183 2.491 . S
O194 Dy183 2.403 . S
O194 C189 1.268 . S
O195 Dy180 2.310 . S
O195 Dy183 2.664 1_455 S
O195 C189 1.261 1_455 S
O196 Dy180 2.351 . S
O196 C199 1.249 . S
O197 Dy183 2.326 1_455 S
O197 C199 1.267 . S
C198 O190 1.249 . S
C198 O191 1.267 1_655 S
C199 O196 1.249 . S
C199 O197 1.267 . S
Dy200 O204 2.398 . S
Dy200 O205 2.491 . S
Dy200 O206 2.403 . S
Dy200 O207 2.664 . S
Dy200 O211 2.326 . S
Dy200 O215 2.310 . S
Dy200 O216 2.351 . S
C201 O212 1.185 . S
C201 O213 1.355 . S
C202 O204 1.185 . S
C202 O205 1.355 . S
Dy203 O207 2.310 1_565 S
Dy203 O210 2.351 . S
Dy203 O212 2.398 . S
Dy203 O213 2.491 . S
Dy203 O214 2.401 1_565 S
Dy203 O215 2.664 1_565 S
Dy203 O217 2.326 1_565 S
O204 Dy200 2.398 . S
O204 C202 1.185 . S
O205 Dy200 2.491 . S
O205 C202 1.355 . S
O206 Dy200 2.403 . S
O206 C208 1.254 . S
O207 Dy200 2.664 . S
O207 Dy203 2.310 1_545 S
O207 C208 1.268 . S
C208 O206 1.254 . S
C208 O207 1.268 . S
C209 O214 1.262 . S
C209 O215 1.268 . S
O210 Dy203 2.351 . S
O210 C218 1.249 1_565 S
O211 Dy200 2.326 . S
O211 C218 1.267 . S
O212 C201 1.185 . S
O212 Dy203 2.398 . S
O213 C201 1.355 . S
O213 Dy203 2.491 . S
O214 Dy203 2.401 1_545 S
O214 C209 1.262 . S
O215 Dy200 2.310 . S
O215 Dy203 2.664 1_545 S
O215 C209 1.268 . S
O216 Dy200 2.351 . S
O216 C219 1.249 . S
O217 Dy203 2.326 1_545 S
O217 C219 1.267 . S
C218 O210 1.249 1_545 S
C218 O211 1.267 . S
C219 O216 1.249 . S
C219 O217 1.267 . S
Dy220 O224 2.398 . S
Dy220 O225 2.491 . S
Dy220 O226 2.403 . S
Dy220 O227 2.664 1_655 S
Dy220 O231 2.326 1_655 S
Dy220 O235 2.310 1_655 S
Dy220 O236 2.351 . S
C221 O232 1.185 . S
C221 O233 1.355 . S
C222 O224 1.185 . S
C222 O225 1.355 . S
Dy223 O227 2.310 . S
Dy223 O230 2.351 . S
Dy223 O232 2.398 . S
Dy223 O233 2.491 . S
Dy223 O234 2.403 . S
Dy223 O235 2.664 . S
Dy223 O237 2.326 . S
O224 Dy220 2.398 . S
O224 C222 1.185 . S
O225 Dy220 2.491 . S
O225 C222 1.355 . S
O226 Dy220 2.403 . S
O226 C228 1.254 1_655 S
O227 Dy220 2.664 1_455 S
O227 Dy223 2.310 . S
O227 C228 1.268 . S
C228 O226 1.254 1_455 S
C228 O227 1.268 . S
C229 O234 1.254 . S
C229 O235 1.268 . S
O230 Dy223 2.351 . S
O230 C238 1.249 . S
O231 Dy220 2.326 1_455 S
O231 C238 1.267 . S
O232 C221 1.185 . S
O232 Dy223 2.398 . S
O233 C221 1.355 . S
O233 Dy223 2.491 . S
O234 Dy223 2.403 . S
O234 C229 1.254 . S
O235 Dy220 2.310 1_455 S
O235 Dy223 2.664 . S
O235 C229 1.268 . S
O236 Dy220 2.351 . S
O236 C239 1.249 . S
O237 Dy223 2.326 . S
O237 C239 1.267 1_455 S
C238 O230 1.249 . S
C238 O231 1.267 . S
C239 O236 1.249 . S
C239 O237 1.267 1_655 S
Dy240 O244 2.398 . S
Dy240 O245 2.491 . S
Dy240 O246 2.403 . S
Dy240 O247 2.664 . S
Dy240 O251 2.326 . S
Dy240 O255 2.310 . S
Dy240 O256 2.351 . S
C241 O252 1.185 . S
C241 O253 1.355 . S
C242 O244 1.185 . S
C242 O245 1.355 . S
Dy243 O247 2.310 1_565 S
Dy243 O250 2.351 . S
Dy243 O252 2.398 . S
Dy243 O253 2.491 . S
Dy243 O254 2.403 1_565 S
Dy243 O255 2.664 1_565 S
Dy243 O257 2.326 1_565 S
O244 Dy240 2.398 . S
O244 C242 1.185 . S
O245 Dy240 2.491 . S
O245 C242 1.355 . S
O246 Dy240 2.403 . S
O246 C248 1.254 . S
O247 Dy240 2.664 . S
O247 Dy243 2.310 1_545 S
O247 C248 1.268 . S
C248 O246 1.254 . S
C248 O247 1.268 . S
C249 O254 1.254 . S
C249 O255 1.268 . S
O250 Dy243 2.351 . S
O250 C258 1.249 . S
O251 Dy240 2.326 . S
O251 C258 1.267 1_545 S
O252 C241 1.185 . S
O252 Dy243 2.398 . S
O253 C241 1.355 . S
O253 Dy243 2.491 . S
O254 Dy243 2.403 1_545 S
O254 C249 1.254 . S
O255 Dy240 2.310 . S
O255 Dy243 2.664 1_545 S
O255 C249 1.268 . S
O256 Dy240 2.351 . S
O256 C259 1.249 . S
O257 Dy243 2.326 1_545 S
O257 C259 1.267 . S
C258 O250 1.249 . S
C258 O251 1.267 1_565 S
C259 O256 1.249 . S
C259 O257 1.267 . S
Dy260 O264 2.398 . S
Dy260 O265 2.491 . S
Dy260 O266 2.403 . S
Dy260 O267 2.664 1_655 S
Dy260 O271 2.326 1_655 S
Dy260 O275 2.310 1_655 S
Dy260 O276 2.351 . S
C261 O272 1.185 . S
C261 O273 1.355 . S
C262 O264 1.185 . S
C262 O265 1.355 . S
Dy263 O267 2.310 . S
Dy263 O270 2.351 . S
Dy263 O272 2.398 . S
Dy263 O273 2.491 . S
Dy263 O274 2.403 . S
Dy263 O275 2.664 . S
Dy263 O277 2.326 . S
O264 Dy260 2.398 . S
O264 C262 1.185 . S
O265 Dy260 2.491 . S
O265 C262 1.355 . S
O266 Dy260 2.403 . S
O266 C268 1.254 1_655 S
O267 Dy260 2.664 1_455 S
O267 Dy263 2.310 . S
O267 C268 1.268 . S
C268 O266 1.254 1_455 S
C268 O267 1.268 . S
C269 O274 1.254 . S
C269 O275 1.268 . S
O270 Dy263 2.351 . S
O270 C278 1.249 . S
O271 Dy260 2.326 1_455 S
O271 C278 1.267 . S
O272 C261 1.185 . S
O272 Dy263 2.398 . S
O273 C261 1.355 . S
O273 Dy263 2.491 . S
O274 Dy263 2.403 . S
O274 C269 1.254 . S
O275 Dy260 2.310 1_455 S
O275 Dy263 2.664 . S
O275 C269 1.268 . S
O276 Dy260 2.351 . S
O276 C279 1.249 . S
O277 Dy263 2.326 . S
O277 C279 1.267 1_455 S
C278 O270 1.249 . S
C278 O271 1.267 . S
C279 O276 1.249 . S
C279 O277 1.267 1_655 S
Dy280 O284 2.398 . S
Dy280 O285 2.491 . S
Dy280 O286 2.403 . S
Dy280 O287 2.664 1_565 S
Dy280 O291 2.326 1_565 S
Dy280 O295 2.310 . S
Dy280 O296 2.351 . S
C281 O292 1.185 . S
C281 O293 1.355 . S
C282 O284 1.185 . S
C282 O285 1.355 . S
Dy283 O287 2.310 . S
Dy283 O290 2.351 . S
Dy283 O292 2.398 . S
Dy283 O293 2.491 . S
Dy283 O294 2.403 . S
Dy283 O295 2.664 1_545 S
Dy283 O297 2.326 1_545 S
O284 Dy280 2.398 . S
O284 C282 1.185 . S
O285 Dy280 2.491 . S
O285 C282 1.355 . S
O286 Dy280 2.403 . S
O286 C288 1.254 . S
O287 Dy280 2.664 1_545 S
O287 Dy283 2.310 . S
O287 C288 1.268 1_545 S
C288 O286 1.254 . S
C288 O287 1.268 1_565 S
C289 O294 1.254 . S
C289 O295 1.268 1_545 S
O290 Dy283 2.351 . S
O290 C298 1.249 . S
O291 Dy280 2.326 1_545 S
O291 C298 1.267 . S
O292 C281 1.185 . S
O292 Dy283 2.398 . S
O293 C281 1.355 . S
O293 Dy283 2.491 . S
O294 Dy283 2.403 . S
O294 C289 1.254 . S
O295 Dy280 2.310 . S
O295 Dy283 2.664 1_565 S
O295 C289 1.268 1_565 S
O296 Dy280 2.351 . S
O296 C299 1.249 . S
O297 Dy283 2.326 1_565 S
O297 C299 1.267 . S
C298 O290 1.249 . S
C298 O291 1.267 . S
C299 O296 1.249 . S
C299 O297 1.267 . S
Dy300 O304 2.398 . S
Dy300 O305 2.491 . S
Dy300 O306 2.403 . S
Dy300 O307 2.664 . S
Dy300 O311 2.326 . S
Dy300 O315 2.310 . S
Dy300 O316 2.351 . S
C301 O312 1.185 . S
C301 O313 1.355 . S
C302 O304 1.185 . S
C302 O305 1.355 . S
Dy303 O307 2.310 1_655 S
Dy303 O310 2.351 . S
Dy303 O312 2.398 . S
Dy303 O313 2.491 . S
Dy303 O314 2.403 . S
Dy303 O315 2.664 1_655 S
Dy303 O317 2.326 1_655 S
O304 Dy300 2.398 . S
O304 C302 1.185 . S
O305 Dy300 2.491 . S
O305 C302 1.355 . S
O306 Dy300 2.403 . S
O306 C308 1.254 . S
O307 Dy300 2.664 . S
O307 Dy303 2.310 1_455 S
O307 C308 1.268 . S
C308 O306 1.254 . S
C308 O307 1.268 . S
C309 O314 1.254 1_455 S
C309 O315 1.268 . S
O310 Dy303 2.351 . S
O310 C318 1.249 . S
O311 Dy300 2.326 . S
O311 C318 1.267 1_455 S
O312 C301 1.185 . S
O312 Dy303 2.398 . S
O313 C301 1.355 . S
O313 Dy303 2.491 . S
O314 Dy303 2.403 . S
O314 C309 1.254 1_655 S
O315 Dy300 2.310 . S
O315 Dy303 2.664 1_455 S
O315 C309 1.268 . S
O316 Dy300 2.351 . S
O316 C319 1.249 . S
O317 Dy303 2.326 1_455 S
O317 C319 1.267 . S
C318 O310 1.249 . S
C318 O311 1.267 1_655 S
C319 O316 1.249 . S
C319 O317 1.267 . S
Dy320 O324 2.398 . S
Dy320 O325 2.491 . S
Dy320 O326 2.403 . S
Dy320 O327 2.664 1_556 S
Dy320 O331 2.326 1_556 S
Dy320 O335 2.310 1_556 S
Dy320 O336 2.351 . S
C321 O332 1.185 . S
C321 O333 1.355 . S
C322 O324 1.185 . S
C322 O325 1.355 . S
Dy323 O327 2.310 . S
Dy323 O330 2.351 . S
Dy323 O332 2.398 . S
Dy323 O333 2.491 . S
Dy323 O334 2.403 . S
Dy323 O335 2.664 . S
Dy323 O337 2.326 . S
O324 Dy320 2.398 . S
O324 C322 1.185 . S
O325 Dy320 2.491 . S
O325 C322 1.355 . S
O326 Dy320 2.403 . S
O326 C328 1.254 1_556 S
O327 Dy320 2.664 1_554 S
O327 Dy323 2.310 . S
O327 C328 1.268 . S
C328 O326 1.254 1_554 S
C328 O327 1.268 . S
C329 O334 1.254 . S
C329 O335 1.268 . S
O330 Dy323 2.351 . S
O330 C338 1.249 . S
O331 Dy320 2.326 1_554 S
O331 C338 1.267 . S
O332 C321 1.185 . S
O332 Dy323 2.398 . S
O333 C321 1.355 . S
O333 Dy323 2.491 . S
O334 Dy323 2.403 . S
O334 C329 1.254 . S
O335 Dy320 2.310 1_554 S
O335 Dy323 2.664 . S
O335 C329 1.268 . S
O336 Dy320 2.351 . S
O336 C339 1.249 . S
O337 Dy323 2.326 . S
O337 C339 1.267 1_554 S
C338 O330 1.249 . S
C338 O331 1.267 . S
C339 O336 1.249 . S
C339 O337 1.267 1_556 S
Dy340 O344 2.398 . S
Dy340 O345 2.491 . S
Dy340 O346 2.403 . S
Dy340 O347 2.664 . S
Dy340 O351 2.326 . S
Dy340 O355 2.310 . S
Dy340 O356 2.351 . S
C341 O352 1.185 . S
C341 O353 1.355 . S
C342 O344 1.185 . S
C342 O345 1.355 . S
Dy343 O347 2.310 1_556 S
Dy343 O350 2.351 . S
Dy343 O352 2.398 . S
Dy343 O353 2.491 . S
Dy343 O354 2.403 . S
Dy343 O355 2.664 1_556 S
Dy343 O357 2.326 1_556 S
O344 Dy340 2.398 . S
O344 C342 1.185 . S
O345 Dy340 2.491 . S
O345 C342 1.355 . S
O346 Dy340 2.403 . S
O346 C348 1.254 . S
O347 Dy340 2.664 . S
O347 Dy343 2.310 1_554 S
O347 C348 1.268 . S
C348 O346 1.254 . S
C348 O347 1.268 . S
C349 O354 1.254 1_554 S
C349 O355 1.268 . S
O350 Dy343 2.351 . S
O350 C358 1.249 . S
O351 Dy340 2.326 . S
O351 C358 1.267 1_554 S
O352 C341 1.185 . S
O352 Dy343 2.398 . S
O353 C341 1.355 . S
O353 Dy343 2.491 . S
O354 Dy343 2.403 . S
O354 C349 1.254 1_556 S
O355 Dy340 2.310 . S
O355 Dy343 2.664 1_554 S
O355 C349 1.268 . S
O356 Dy340 2.351 . S
O356 C359 1.249 . S
O357 Dy343 2.326 1_554 S
O357 C359 1.267 . S
C358 O350 1.249 . S
C358 O351 1.267 1_556 S
C359 O356 1.249 . S
C359 O357 1.267 . S
Dy360 O364 2.398 . S
Dy360 O365 2.491 . S
Dy360 O366 2.403 . S
Dy360 O367 2.664 . S
Dy360 O371 2.326 . S
Dy360 O375 2.310 . S
Dy360 O376 2.351 . S
C361 O372 1.185 . S
C361 O373 1.355 . S
C362 O364 1.185 . S
C362 O365 1.355 . S
Dy363 O367 2.310 1_556 S
Dy363 O370 2.351 . S
Dy363 O372 2.398 . S
Dy363 O373 2.491 . S
Dy363 O374 2.403 1_556 S
Dy363 O375 2.664 1_556 S
Dy363 O377 2.326 1_556 S
O364 Dy360 2.398 . S
O364 C362 1.185 . S
O365 Dy360 2.491 . S
O365 C362 1.355 . S
O366 Dy360 2.403 . S
O366 C368 1.254 . S
O367 Dy360 2.664 . S
O367 Dy363 2.310 1_554 S
O367 C368 1.268 . S
C368 O366 1.254 . S
C368 O367 1.268 . S
C369 O374 1.254 . S
C369 O375 1.268 . S
O370 Dy363 2.351 . S
O370 C378 1.249 1_556 S
O371 Dy360 2.326 . S
O371 C378 1.267 . S
O372 C361 1.185 . S
O372 Dy363 2.398 . S
O373 C361 1.355 . S
O373 Dy363 2.491 . S
O374 Dy363 2.403 1_554 S
O374 C369 1.254 . S
O375 Dy360 2.310 . S
O375 Dy363 2.664 1_554 S
O375 C369 1.268 . S
O376 Dy360 2.351 . S
O376 C379 1.249 . S
O377 Dy363 2.326 1_554 S
O377 C379 1.267 . S
C378 O370 1.249 1_554 S
C378 O371 1.267 . S
C379 O376 1.249 . S
C379 O377 1.267 . S
Dy380 O384 2.398 . S
Dy380 O385 2.491 . S
Dy380 O386 2.403 . S
Dy380 O387 2.664 . S
Dy380 O391 2.326 . S
Dy380 O395 2.310 . S
Dy380 O396 2.351 . S
C381 O392 1.185 . S
C381 O393 1.355 . S
C382 O384 1.185 . S
C382 O385 1.355 . S
Dy383 O387 2.310 1_556 S
Dy383 O390 2.351 . S
Dy383 O392 2.398 . S
Dy383 O393 2.491 . S
Dy383 O394 2.403 1_556 S
Dy383 O395 2.664 1_556 S
Dy383 O397 2.326 1_556 S
O384 Dy380 2.398 . S
O384 C382 1.185 . S
O385 Dy380 2.491 . S
O385 C382 1.355 . S
O386 Dy380 2.403 . S
O386 C388 1.254 . S
O387 Dy380 2.664 . S
O387 Dy383 2.310 1_554 S
O387 C388 1.268 . S
C388 O386 1.254 . S
C388 O387 1.268 . S
C389 O394 1.254 . S
C389 O395 1.268 . S
O390 Dy383 2.351 . S
O390 C398 1.249 1_556 S
O391 Dy380 2.326 . S
O391 C398 1.267 . S
O392 C381 1.185 . S
O392 Dy383 2.398 . S
O393 C381 1.355 . S
O393 Dy383 2.491 . S
O394 Dy383 2.403 1_554 S
O394 C389 1.254 . S
O395 Dy380 2.310 . S
O395 Dy383 2.664 1_554 S
O395 C389 1.268 . S
O396 Dy380 2.351 . S
O396 C399 1.249 . S
O397 Dy383 2.326 1_554 S
O397 C399 1.267 . S
C398 O390 1.249 1_554 S
C398 O391 1.267 . S
C399 O396 1.249 . S
C399 O397 1.267 . S
Dy400 O404 2.398 . S
Dy400 O405 2.491 . S
Dy400 O406 2.403 . S
Dy400 O407 2.664 . S
Dy400 O411 2.326 . S
Dy400 O415 2.310 . S
Dy400 O416 2.351 . S
C401 O412 1.185 . S
C401 O413 1.355 . S
C402 O404 1.185 . S
C402 O405 1.355 . S
Dy403 O407 2.310 1_556 S
Dy403 O410 2.351 . S
Dy403 O412 2.398 . S
Dy403 O413 2.491 . S
Dy403 O414 2.403 . S
Dy403 O415 2.664 1_556 S
Dy403 O417 2.326 1_556 S
O404 Dy400 2.398 . S
O404 C402 1.185 . S
O405 Dy400 2.491 . S
O405 C402 1.355 . S
O406 Dy400 2.403 . S
O406 C408 1.254 . S
O407 Dy400 2.664 . S
O407 Dy403 2.310 1_554 S
O407 C408 1.268 . S
C408 O406 1.254 . S
C408 O407 1.268 . S
C409 O414 1.254 1_554 S
C409 O415 1.268 . S
O410 Dy403 2.351 . S
O410 C418 1.249 . S
O411 Dy400 2.326 . S
O411 C418 1.267 1_554 S
O412 C401 1.185 . S
O412 Dy403 2.398 . S
O413 C401 1.355 . S
O413 Dy403 2.491 . S
O414 Dy403 2.403 . S
O414 C409 1.254 1_556 S
O415 Dy400 2.310 . S
O415 Dy403 2.664 1_554 S
O415 C409 1.268 . S
O416 Dy400 2.351 . S
O416 C419 1.249 . S
O417 Dy403 2.326 1_554 S
O417 C419 1.267 . S
C418 O410 1.249 . S
C418 O411 1.267 1_556 S
C419 O416 1.249 . S
C419 O417 1.267 . S
Dy420 O424 2.398 . S
Dy420 O425 2.491 . S
Dy420 O426 2.403 . S
Dy420 O427 2.664 1_556 S
Dy420 O431 2.326 1_556 S
Dy420 O435 2.310 1_556 S
Dy420 O436 2.351 . S
C421 O432 1.185 . S
C421 O433 1.355 . S
C422 O424 1.185 . S
C422 O425 1.355 . S
Dy423 O427 2.310 . S
Dy423 O430 2.351 . S
Dy423 O432 2.398 . S
Dy423 O433 2.491 . S
Dy423 O434 2.403 . S
Dy423 O435 2.664 . S
Dy423 O437 2.326 . S
O424 Dy420 2.398 . S
O424 C422 1.185 . S
O425 Dy420 2.491 . S
O425 C422 1.355 . S
O426 Dy420 2.403 . S
O426 C428 1.254 . S
O427 Dy420 2.664 1_554 S
O427 Dy423 2.310 . S
O427 C428 1.268 1_554 S
C428 O426 1.254 . S
C428 O427 1.268 1_556 S
C429 O434 1.254 . S
C429 O435 1.268 . S
O430 Dy423 2.351 . S
O430 C438 1.249 . S
O431 Dy420 2.326 1_554 S
O431 C438 1.267 . S
O432 C421 1.185 . S
O432 Dy423 2.398 . S
O433 C421 1.355 . S
O433 Dy423 2.491 . S
O434 Dy423 2.403 . S
O434 C429 1.254 . S
O435 Dy420 2.310 1_554 S
O435 Dy423 2.664 . S
O435 C429 1.268 . S
O436 Dy420 2.351 . S
O436 C439 1.249 . S
O437 Dy423 2.326 . S
O437 C439 1.267 1_554 S
C438 O430 1.249 . S
C438 O431 1.267 . S
C439 O436 1.249 . S
C439 O437 1.267 1_556 S
Dy440 O444 2.398 . S
Dy440 O445 2.491 . S
Dy440 O446 2.403 . S
Dy440 O447 2.664 1_556 S
Dy440 O451 2.326 1_556 S
Dy440 O455 2.310 . S
Dy440 O456 2.351 . S
C441 O452 1.185 . S
C441 O453 1.355 . S
C442 O444 1.185 . S
C442 O445 1.355 . S
Dy443 O447 2.310 . S
Dy443 O450 2.351 . S
Dy443 O452 2.398 . S
Dy443 O453 2.491 . S
Dy443 O454 2.403 . S
Dy443 O455 2.664 1_554 S
Dy443 O457 2.326 1_554 S
O444 Dy440 2.398 . S
O444 C442 1.185 . S
O445 Dy440 2.491 . S
O445 C442 1.355 . S
O446 Dy440 2.403 . S
O446 C448 1.254 . S
O447 Dy440 2.664 1_554 S
O447 Dy443 2.310 . S
O447 C448 1.268 1_554 S
C448 O446 1.254 . S
C448 O447 1.268 1_556 S
C449 O454 1.254 . S
C449 O455 1.268 1_554 S
O450 Dy443 2.351 . S
O450 C458 1.249 . S
O451 Dy440 2.326 1_554 S
O451 C458 1.267 . S
O452 C441 1.185 . S
O452 Dy443 2.398 . S
O453 C441 1.355 . S
O453 Dy443 2.491 . S
O454 Dy443 2.403 . S
O454 C449 1.254 . S
O455 Dy440 2.310 . S
O455 Dy443 2.664 1_556 S
O455 C449 1.268 1_556 S
O456 Dy440 2.351 . S
O456 C459 1.249 . S
O457 Dy443 2.326 1_556 S
O457 C459 1.267 . S
C458 O450 1.249 . S
C458 O451 1.267 . S
C459 O456 1.249 . S
C459 O457 1.267 . S
Dy460 O464 2.398 . S
Dy460 O465 2.491 . S
Dy460 O466 2.403 . S
Dy460 O467 2.664 1_556 S
Dy460 O471 2.326 1_556 S
Dy460 O475 2.310 1_556 S
Dy460 O476 2.351 . S
C461 O472 1.185 . S
C461 O473 1.355 . S
C462 O464 1.185 . S
C462 O465 1.355 . S
Dy463 O467 2.310 . S
Dy463 O470 2.351 . S
Dy463 O472 2.398 . S
Dy463 O473 2.491 . S
Dy463 O474 2.403 . S
Dy463 O475 2.664 . S
Dy463 O477 2.326 . S
O464 Dy460 2.398 . S
O464 C462 1.185 . S
O465 Dy460 2.491 . S
O465 C462 1.355 . S
O466 Dy460 2.403 . S
O466 C468 1.254 1_556 S
O467 Dy460 2.664 1_554 S
O467 Dy463 2.310 . S
O467 C468 1.268 . S
C468 O466 1.254 1_554 S
C468 O467 1.268 . S
C469 O474 1.254 . S
C469 O475 1.268 . S
O470 Dy463 2.351 . S
O470 C478 1.249 . S
O471 Dy460 2.326 1_554 S
O471 C478 1.267 . S
O472 C461 1.185 . S
O472 Dy463 2.398 . S
O473 C461 1.355 . S
O473 Dy463 2.491 . S
O474 Dy463 2.403 . S
O474 C469 1.254 . S
O475 Dy460 2.310 1_554 S
O475 Dy463 2.664 . S
O475 C469 1.268 . S
O476 Dy460 2.351 . S
O476 C479 1.249 . S
O477 Dy463 2.326 . S
O477 C479 1.267 1_554 S
C478 O470 1.249 . S
C478 O471 1.267 . S
C479 O476 1.249 . S
C479 O477 1.267 1_556 S
Dy480 O484 2.398 . S
Dy480 O485 2.491 . S
Dy480 O486 2.403 . S
Dy480 O487 2.664 . S
Dy480 O491 2.326 . S
Dy480 O495 2.310 . S
Dy480 O496 2.351 . S
C481 O492 1.185 . S
C481 O493 1.355 . S
C482 O484 1.185 . S
C482 O485 1.355 . S
Dy483 O487 2.310 . S
Dy483 O490 2.351 . S
Dy483 O492 2.398 . S
Dy483 O493 2.491 . S
Dy483 O494 2.403 . S
Dy483 O495 2.664 . S
Dy483 O497 2.326 . S
O484 Dy480 2.398 . S
O484 C482 1.185 . S
O485 Dy480 2.491 . S
O485 C482 1.355 . S
O486 Dy480 2.403 . S
O486 C488 1.254 . S
O487 Dy480 2.664 . S
O487 Dy483 2.310 . S
O487 C488 1.268 . S
C488 O486 1.254 . S
C488 O487 1.268 . S
C489 O494 1.254 . S
C489 O495 1.268 . S
O490 Dy483 2.351 . S
O490 C498 1.249 . S
O491 Dy480 2.326 . S
O491 C498 1.267 . S
O492 C481 1.185 . S
O492 Dy483 2.398 . S
O493 C481 1.355 . S
O493 Dy483 2.491 . S
O494 Dy483 2.403 . S
O494 C489 1.254 . S
O495 Dy480 2.310 . S
O495 Dy483 2.664 . S
O495 C489 1.268 . S
O496 Dy480 2.351 . S
O496 C499 1.249 . S
O497 Dy483 2.326 . S
O497 C499 1.267 . S
C498 O490 1.249 . S
C498 O491 1.267 . S
C499 O496 1.249 . S
C499 O497 1.267 . S
Dy500 O504 2.398 . S
Dy500 O505 2.491 . S
Dy500 O506 2.403 . S
Dy500 O507 2.664 . S
Dy500 O511 2.326 . S
Dy500 O515 2.310 . S
Dy500 O516 2.351 . S
C501 O512 1.185 . S
C501 O513 1.355 . S
C502 O504 1.185 . S
C502 O505 1.355 . S
Dy503 O507 2.310 . S
Dy503 O510 2.351 . S
Dy503 O512 2.398 . S
Dy503 O513 2.491 . S
Dy503 O514 2.403 . S
Dy503 O515 2.664 . S
Dy503 O517 2.326 . S
O504 Dy500 2.398 . S
O504 C502 1.185 . S
O505 Dy500 2.491 . S
O505 C502 1.355 . S
O506 Dy500 2.403 . S
O506 C508 1.254 . S
O507 Dy500 2.664 . S
O507 Dy503 2.310 . S
O507 C508 1.268 . S
C508 O506 1.254 . S
C508 O507 1.268 . S
C509 O514 1.254 . S
C509 O515 1.268 . S
O510 Dy503 2.351 . S
O510 C518 1.249 . S
O511 Dy500 2.326 . S
O511 C518 1.267 . S
O512 C501 1.185 . S
O512 Dy503 2.398 . S
O513 C501 1.355 . S
O513 Dy503 2.491 . S
O514 Dy503 2.403 . S
O514 C509 1.254 . S
O515 Dy500 2.310 . S
O515 Dy503 2.664 . S
O515 C509 1.268 . S
O516 Dy500 2.351 . S
O516 C519 1.249 . S
O517 Dy503 2.326 . S
O517 C519 1.267 . S
C518 O510 1.249 . S
C518 O511 1.267 . S
C519 O516 1.249 . S
C519 O517 1.267 . S
Dy520 O524 2.398 . S
Dy520 O525 2.491 . S
Dy520 O526 2.403 . S
Dy520 O527 2.664 . S
Dy520 O531 2.326 . S
Dy520 O535 2.310 . S
Dy520 O536 2.351 . S
C521 O532 1.185 . S
C521 O533 1.355 . S
C522 O524 1.185 . S
C522 O525 1.355 . S
Dy523 O527 2.310 . S
Dy523 O530 2.351 . S
Dy523 O532 2.398 . S
Dy523 O533 2.491 . S
Dy523 O534 2.403 . S
Dy523 O535 2.664 . S
Dy523 O537 2.326 . S
O524 Dy520 2.398 . S
O524 C522 1.185 . S
O525 Dy520 2.491 . S
O525 C522 1.355 . S
O526 Dy520 2.403 . S
O526 C528 1.254 . S
O527 Dy520 2.664 . S
O527 Dy523 2.310 . S
O527 C528 1.268 . S
C528 O526 1.254 . S
C528 O527 1.268 . S
C529 O534 1.254 . S
C529 O535 1.268 . S
O530 Dy523 2.351 . S
O530 C538 1.249 . S
O531 Dy520 2.326 . S
O531 C538 1.267 . S
O532 C521 1.185 . S
O532 Dy523 2.398 . S
O533 C521 1.355 . S
O533 Dy523 2.491 . S
O534 Dy523 2.403 . S
O534 C529 1.254 . S
O535 Dy520 2.310 . S
O535 Dy523 2.664 . S
O535 C529 1.268 . S
O536 Dy520 2.351 . S
O536 C539 1.249 . S
O537 Dy523 2.326 . S
O537 C539 1.267 . S
C538 O530 1.249 . S
C538 O531 1.267 . S
C539 O536 1.249 . S
C539 O537 1.267 . S
Dy540 O544 2.398 . S
Dy540 O545 2.491 . S
Dy540 O546 2.403 . S
Dy540 O547 2.664 . S
Dy540 O551 2.326 . S
Dy540 O555 2.310 . S
Dy540 O556 2.351 . S
C541 O552 1.185 . S
C541 O553 1.355 . S
C542 O544 1.185 . S
C542 O545 1.355 . S
Dy543 O547 2.310 . S
Dy543 O550 2.351 . S
Dy543 O552 2.398 . S
Dy543 O553 2.491 . S
Dy543 O554 2.403 . S
Dy543 O555 2.664 . S
Dy543 O557 2.326 . S
O544 Dy540 2.398 . S
O544 C542 1.185 . S
O545 Dy540 2.491 . S
O545 C542 1.355 . S
O546 Dy540 2.403 . S
O546 C548 1.254 . S
O547 Dy540 2.664 . S
O547 Dy543 2.310 . S
O547 C548 1.268 . S
C548 O546 1.254 . S
C548 O547 1.268 . S
C549 O554 1.254 . S
C549 O555 1.268 . S
O550 Dy543 2.351 . S
O550 C558 1.249 . S
O551 Dy540 2.326 . S
O551 C558 1.267 . S
O552 C541 1.185 . S
O552 Dy543 2.398 . S
O553 C541 1.355 . S
O553 Dy543 2.491 . S
O554 Dy543 2.403 . S
O554 C549 1.254 . S
O555 Dy540 2.310 . S
O555 Dy543 2.664 . S
O555 C549 1.268 . S
O556 Dy540 2.351 . S
O556 C559 1.249 . S
O557 Dy543 2.326 . S
O557 C559 1.267 . S
C558 O550 1.249 . S
C558 O551 1.267 . S
C559 O556 1.249 . S
C559 O557 1.267 . S
Dy560 O564 2.398 . S
Dy560 O565 2.491 . S
Dy560 O566 2.403 . S
Dy560 O567 2.664 . S
Dy560 O571 2.326 . S
Dy560 O575 2.310 . S
Dy560 O576 2.351 . S
C561 O572 1.185 . S
C561 O573 1.355 . S
C562 O564 1.185 . S
C562 O565 1.355 . S
Dy563 O567 2.310 . S
Dy563 O570 2.351 . S
Dy563 O572 2.398 . S
Dy563 O573 2.491 . S
Dy563 O574 2.403 . S
Dy563 O575 2.664 . S
Dy563 O577 2.326 . S
O564 Dy560 2.398 . S
O564 C562 1.185 . S
O565 Dy560 2.491 . S
O565 C562 1.355 . S
O566 Dy560 2.403 . S
O566 C568 1.254 . S
O567 Dy560 2.664 . S
O567 Dy563 2.310 . S
O567 C568 1.268 . S
C568 O566 1.254 . S
C568 O567 1.268 . S
C569 O574 1.254 . S
C569 O575 1.268 . S
O570 Dy563 2.351 . S
O570 C578 1.249 . S
O571 Dy560 2.326 . S
O571 C578 1.267 . S
O572 C561 1.185 . S
O572 Dy563 2.398 . S
O573 C561 1.355 . S
O573 Dy563 2.491 . S
O574 Dy563 2.403 . S
O574 C569 1.254 . S
O575 Dy560 2.310 . S
O575 Dy563 2.664 . S
O575 C569 1.268 . S
O576 Dy560 2.351 . S
O576 C579 1.249 . S
O577 Dy563 2.326 . S
O577 C579 1.267 . S
C578 O570 1.249 . S
C578 O571 1.267 . S
C579 O576 1.249 . S
C579 O577 1.267 . S
Dy580 O584 2.398 . S
Dy580 O585 2.491 . S
Dy580 O586 2.403 . S
Dy580 O587 2.664 . S
Dy580 O591 2.326 . S
Dy580 O595 2.310 . S
Dy580 O596 2.351 . S
C581 O592 1.185 . S
C581 O593 1.355 . S
C582 O584 1.185 . S
C582 O585 1.355 . S
Dy583 O587 2.310 . S
Dy583 O590 2.351 . S
Dy583 O592 2.398 . S
Dy583 O593 2.491 . S
Dy583 O594 2.403 . S
Dy583 O595 2.664 . S
Dy583 O597 2.326 . S
O584 Dy580 2.398 . S
O584 C582 1.185 . S
O585 Dy580 2.491 . S
O585 C582 1.355 . S
O586 Dy580 2.403 . S
O586 C588 1.254 . S
O587 Dy580 2.664 . S
O587 Dy583 2.310 . S
O587 C588 1.268 . S
C588 O586 1.254 . S
C588 O587 1.268 . S
C589 O594 1.254 . S
C589 O595 1.268 . S
O590 Dy583 2.351 . S
O590 C598 1.249 . S
O591 Dy580 2.326 . S
O591 C598 1.267 . S
O592 C581 1.185 . S
O592 Dy583 2.398 . S
O593 C581 1.355 . S
O593 Dy583 2.491 . S
O594 Dy583 2.403 . S
O594 C589 1.254 . S
O595 Dy580 2.310 . S
O595 Dy583 2.664 . S
O595 C589 1.268 . S
O596 Dy580 2.351 . S
O596 C599 1.249 . S
O597 Dy583 2.326 . S
O597 C599 1.267 . S
C598 O590 1.249 . S
C598 O591 1.267 . S
C599 O596 1.249 . S
C599 O597 1.267 . S
Dy600 O604 2.398 . S
Dy600 O605 2.491 . S
Dy600 O606 2.403 . S
Dy600 O607 2.664 . S
Dy600 O611 2.326 . S
Dy600 O615 2.310 . S
Dy600 O616 2.351 . S
C601 O612 1.185 . S
C601 O613 1.355 . S
C602 O604 1.185 . S
C602 O605 1.355 . S
Dy603 O607 2.310 . S
Dy603 O610 2.351 . S
Dy603 O612 2.398 . S
Dy603 O613 2.491 . S
Dy603 O614 2.403 . S
Dy603 O615 2.664 . S
Dy603 O617 2.326 . S
O604 Dy600 2.398 . S
O604 C602 1.185 . S
O605 Dy600 2.491 . S
O605 C602 1.355 . S
O606 Dy600 2.403 . S
O606 C608 1.254 . S
O607 Dy600 2.664 . S
O607 Dy603 2.310 . S
O607 C608 1.268 . S
C608 O606 1.254 . S
C608 O607 1.268 . S
C609 O614 1.254 . S
C609 O615 1.268 . S
O610 Dy603 2.351 . S
O610 C618 1.249 . S
O611 Dy600 2.326 . S
O611 C618 1.267 . S
O612 C601 1.185 . S
O612 Dy603 2.398 . S
O613 C601 1.355 . S
O613 Dy603 2.491 . S
O614 Dy603 2.403 . S
O614 C609 1.254 . S
O615 Dy600 2.310 . S
O615 Dy603 2.664 . S
O615 C609 1.268 . S
O616 Dy600 2.351 . S
O616 C619 1.249 . S
O617 Dy603 2.326 . S
O617 C619 1.267 . S
C618 O610 1.249 . S
C618 O611 1.267 . S
C619 O616 1.249 . S
C619 O617 1.267 . S
Dy620 O624 2.398 . S
Dy620 O625 2.491 . S
Dy620 O626 2.403 . S
Dy620 O627 2.664 . S
Dy620 O631 2.326 . S
Dy620 O635 2.310 . S
Dy620 O636 2.351 . S
C621 O632 1.185 . S
C621 O633 1.355 . S
C622 O624 1.185 . S
C622 O625 1.355 . S
Dy623 O627 2.310 . S
Dy623 O630 2.351 . S
Dy623 O632 2.398 . S
Dy623 O633 2.491 . S
Dy623 O634 2.403 . S
Dy623 O635 2.664 . S
Dy623 O637 2.326 . S
O624 Dy620 2.398 . S
O624 C622 1.185 . S
O625 Dy620 2.491 . S
O625 C622 1.355 . S
O626 Dy620 2.403 . S
O626 C628 1.254 . S
O627 Dy620 2.664 . S
O627 Dy623 2.310 . S
O627 C628 1.268 . S
C628 O626 1.254 . S
C628 O627 1.268 . S
C629 O634 1.254 . S
C629 O635 1.268 . S
O630 Dy623 2.351 . S
O630 C638 1.249 . S
O631 Dy620 2.326 . S
O631 C638 1.267 . S
O632 C621 1.185 . S
O632 Dy623 2.398 . S
O633 C621 1.355 . S
O633 Dy623 2.491 . S
O634 Dy623 2.403 . S
O634 C629 1.254 . S
O635 Dy620 2.310 . S
O635 Dy623 2.664 . S
O635 C629 1.268 . S
O636 Dy620 2.351 . S
O636 C639 1.249 . S
O637 Dy623 2.326 . S
O637 C639 1.267 . S
C638 O630 1.249 . S
C638 O631 1.267 . S
C639 O636 1.249 . S
C639 O637 1.267 . S
Dy640 O644 2.398 . S
Dy640 O645 2.491 . S
Dy640 O646 2.403 . S
Dy640 O647 2.664 . S
Dy640 O651 2.326 . S
Dy640 O655 2.310 . S
Dy640 O656 2.351 . S
C641 O652 1.185 . S
C641 O653 1.355 . S
C642 O644 1.185 . S
C642 O645 1.355 . S
Dy643 O647 2.310 . S
Dy643 O650 2.351 . S
Dy643 O652 2.398 . S
Dy643 O653 2.491 . S
Dy643 O654 2.403 . S
Dy643 O655 2.664 . S
Dy643 O657 2.326 . S
O644 Dy640 2.398 . S
O644 C642 1.185 . S
O645 Dy640 2.491 . S
O645 C642 1.355 . S
O646 Dy640 2.403 . S
O646 C648 1.254 . S
O647 Dy640 2.664 . S
O647 Dy643 2.310 . S
O647 C648 1.268 . S
C648 O646 1.254 . S
C648 O647 1.268 . S
C649 O654 1.254 . S
C649 O655 1.268 . S
O650 Dy643 2.351 . S
O650 C658 1.249 . S
O651 Dy640 2.326 . S
O651 C658 1.267 . S
O652 C641 1.185 . S
O652 Dy643 2.398 . S
O653 C641 1.355 . S
O653 Dy643 2.491 . S
O654 Dy643 2.403 . S
O654 C649 1.254 . S
O655 Dy640 2.310 . S
O655 Dy643 2.664 . S
O655 C649 1.268 . S
O656 Dy640 2.351 . S
O656 C659 1.249 . S
O657 Dy643 2.326 . S
O657 C659 1.267 . S
C658 O650 1.249 . S
C658 O651 1.267 . S
C659 O656 1.249 . S
C659 O657 1.267 . S
Dy660 O664 2.398 . S
Dy660 O665 2.491 . S
Dy660 O666 2.403 . S
Dy660 O667 2.664 . S
Dy660 O671 2.326 . S
Dy660 O675 2.310 . S
Dy660 O676 2.351 . S
C661 O672 1.185 . S
C661 O673 1.355 . S
C662 O664 1.185 . S
C662 O665 1.355 . S
Dy663 O667 2.310 . S
Dy663 O670 2.351 . S
Dy663 O672 2.398 . S
Dy663 O673 2.491 . S
Dy663 O674 2.403 . S
Dy663 O675 2.664 . S
Dy663 O677 2.326 . S
O664 Dy660 2.398 . S
O664 C662 1.185 . S
O665 Dy660 2.491 . S
O665 C662 1.355 . S
O666 Dy660 2.403 . S
O666 C668 1.254 . S
O667 Dy660 2.664 . S
O667 Dy663 2.310 . S
O667 C668 1.268 . S
C668 O666 1.254 . S
C668 O667 1.268 . S
C669 O674 1.254 . S
C669 O675 1.268 . S
O670 Dy663 2.351 . S
O670 C678 1.249 . S
O671 Dy660 2.326 . S
O671 C678 1.267 . S
O672 C661 1.185 . S
O672 Dy663 2.398 . S
O673 C661 1.355 . S
O673 Dy663 2.491 . S
O674 Dy663 2.403 . S
O674 C669 1.254 . S
O675 Dy660 2.310 . S
O675 Dy663 2.664 . S
O675 C669 1.268 . S
O676 Dy660 2.351 . S
O676 C679 1.249 . S
O677 Dy663 2.326 . S
O677 C679 1.267 . S
C678 O670 1.249 . S
C678 O671 1.267 . S
C679 O676 1.249 . S
C679 O677 1.267 . S
Dy680 O684 2.398 . S
Dy680 O685 2.491 . S
Dy680 O686 2.403 . S
Dy680 O687 2.664 . S
Dy680 O691 2.326 . S
Dy680 O695 2.310 . S
Dy680 O696 2.351 . S
C681 O692 1.185 . S
C681 O693 1.355 . S
C682 O684 1.185 . S
C682 O685 1.355 . S
Dy683 O687 2.310 . S
Dy683 O690 2.351 . S
Dy683 O692 2.398 . S
Dy683 O693 2.491 . S
Dy683 O694 2.403 . S
Dy683 O695 2.664 . S
Dy683 O697 2.326 . S
O684 Dy680 2.398 . S
O684 C682 1.185 . S
O685 Dy680 2.491 . S
O685 C682 1.355 . S
O686 Dy680 2.403 . S
O686 C688 1.254 . S
O687 Dy680 2.664 . S
O687 Dy683 2.310 . S
O687 C688 1.268 . S
C688 O686 1.254 . S
C688 O687 1.268 . S
C689 O694 1.254 . S
C689 O695 1.268 . S
O690 Dy683 2.351 . S
O690 C698 1.249 . S
O691 Dy680 2.326 . S
O691 C698 1.267 . S
O692 C681 1.185 . S
O692 Dy683 2.398 . S
O693 C681 1.355 . S
O693 Dy683 2.491 . S
O694 Dy683 2.403 . S
O694 C689 1.254 . S
O695 Dy680 2.310 . S
O695 Dy683 2.664 . S
O695 C689 1.268 . S
O696 Dy680 2.351 . S
O696 C699 1.249 . S
O697 Dy683 2.326 . S
O697 C699 1.267 . S
C698 O690 1.249 . S
C698 O691 1.267 . S
C699 O696 1.249 . S
C699 O697 1.267 . S
Dy700 O704 2.398 . S
Dy700 O705 2.491 . S
Dy700 O706 2.403 . S
Dy700 O707 2.664 . S
Dy700 O711 2.326 . S
Dy700 O715 2.310 . S
Dy700 O716 2.351 . S
C701 O712 1.185 . S
C701 O713 1.355 . S
C702 O704 1.185 . S
C702 O705 1.355 . S
Dy703 O707 2.310 . S
Dy703 O710 2.351 . S
Dy703 O712 2.398 . S
Dy703 O713 2.491 . S
Dy703 O714 2.403 . S
Dy703 O715 2.664 . S
Dy703 O717 2.326 . S
O704 Dy700 2.398 . S
O704 C702 1.185 . S
O705 Dy700 2.491 . S
O705 C702 1.355 . S
O706 Dy700 2.403 . S
O706 C708 1.254 . S
O707 Dy700 2.664 . S
O707 Dy703 2.310 . S
O707 C708 1.268 . S
C708 O706 1.254 . S
C708 O707 1.268 . S
C709 O714 1.254 . S
C709 O715 1.268 . S
O710 Dy703 2.351 . S
O710 C718 1.249 . S
O711 Dy700 2.326 . S
O711 C718 1.267 . S
O712 C701 1.185 . S
O712 Dy703 2.398 . S
O713 C701 1.355 . S
O713 Dy703 2.491 . S
O714 Dy703 2.403 . S
O714 C709 1.254 . S
O715 Dy700 2.310 . S
O715 Dy703 2.664 . S
O715 C709 1.268 . S
O716 Dy700 2.351 . S
O716 C719 1.249 . S
O717 Dy703 2.326 . S
O717 C719 1.267 . S
C718 O710 1.249 . S
C718 O711 1.267 . S
C719 O716 1.249 . S
C719 O717 1.267 . S
Dy720 O724 2.398 . S
Dy720 O725 2.491 . S
Dy720 O726 2.403 . S
Dy720 O727 2.664 . S
Dy720 O731 2.326 . S
Dy720 O735 2.310 . S
Dy720 O736 2.351 . S
C721 O732 1.185 . S
C721 O733 1.355 . S
C722 O724 1.185 . S
C722 O725 1.355 . S
Dy723 O727 2.310 . S
Dy723 O730 2.351 . S
Dy723 O732 2.398 . S
Dy723 O733 2.491 . S
Dy723 O734 2.403 . S
Dy723 O735 2.664 . S
Dy723 O737 2.326 . S
O724 Dy720 2.398 . S
O724 C722 1.185 . S
O725 Dy720 2.491 . S
O725 C722 1.355 . S
O726 Dy720 2.403 . S
O726 C728 1.254 . S
O727 Dy720 2.664 . S
O727 Dy723 2.310 . S
O727 C728 1.268 . S
C728 O726 1.254 . S
C728 O727 1.268 . S
C729 O734 1.254 . S
C729 O735 1.268 . S
O730 Dy723 2.351 . S
O730 C738 1.249 . S
O731 Dy720 2.326 . S
O731 C738 1.267 . S
O732 C721 1.185 . S
O732 Dy723 2.398 . S
O733 C721 1.355 . S
O733 Dy723 2.491 . S
O734 Dy723 2.403 . S
O734 C729 1.254 . S
O735 Dy720 2.310 . S
O735 Dy723 2.664 . S
O735 C729 1.268 . S
O736 Dy720 2.351 . S
O736 C739 1.249 . S
O737 Dy723 2.326 . S
O737 C739 1.267 . S
C738 O730 1.249 . S
C738 O731 1.267 . S
C739 O736 1.249 . S
C739 O737 1.267 . S
Dy740 O744 2.398 . S
Dy740 O745 2.491 . S
Dy740 O746 2.403 . S
Dy740 O747 2.664 . S
Dy740 O751 2.326 . S
Dy740 O755 2.310 . S
Dy740 O756 2.351 . S
C741 O752 1.185 . S
C741 O753 1.355 . S
C742 O744 1.185 . S
C742 O745 1.355 . S
Dy743 O747 2.310 . S
Dy743 O750 2.351 . S
Dy743 O752 2.398 . S
Dy743 O753 2.491 . S
Dy743 O754 2.403 . S
Dy743 O755 2.664 . S
Dy743 O757 2.326 . S
O744 Dy740 2.398 . S
O744 C742 1.185 . S
O745 Dy740 2.491 . S
O745 C742 1.355 . S
O746 Dy740 2.403 . S
O746 C748 1.254 . S
O747 Dy740 2.664 . S
O747 Dy743 2.310 . S
O747 C748 1.268 . S
C748 O746 1.254 . S
C748 O747 1.268 . S
C749 O754 1.254 . S
C749 O755 1.268 . S
O750 Dy743 2.351 . S
O750 C758 1.249 . S
O751 Dy740 2.326 . S
O751 C758 1.267 . S
O752 C741 1.185 . S
O752 Dy743 2.398 . S
O753 C741 1.355 . S
O753 Dy743 2.491 . S
O754 Dy743 2.403 . S
O754 C749 1.254 . S
O755 Dy740 2.310 . S
O755 Dy743 2.664 . S
O755 C749 1.268 . S
O756 Dy740 2.351 . S
O756 C759 1.249 . S
O757 Dy743 2.326 . S
O757 C759 1.267 . S
C758 O750 1.249 . S
C758 O751 1.267 . S
C759 O756 1.249 . S
C759 O757 1.267 . S
Dy760 O764 2.398 . S
Dy760 O765 2.491 . S
Dy760 O766 2.403 . S
Dy760 O767 2.664 . S
Dy760 O771 2.326 . S
Dy760 O775 2.310 . S
Dy760 O776 2.351 . S
C761 O772 1.185 . S
C761 O773 1.355 . S
C762 O764 1.185 . S
C762 O765 1.355 . S
Dy763 O767 2.310 . S
Dy763 O770 2.351 . S
Dy763 O772 2.398 . S
Dy763 O773 2.491 . S
Dy763 O774 2.403 . S
Dy763 O775 2.664 . S
Dy763 O777 2.326 . S
O764 Dy760 2.398 . S
O764 C762 1.185 . S
O765 Dy760 2.491 . S
O765 C762 1.355 . S
O766 Dy760 2.403 . S
O766 C768 1.254 . S
O767 Dy760 2.664 . S
O767 Dy763 2.310 . S
O767 C768 1.268 . S
C768 O766 1.254 . S
C768 O767 1.268 . S
C769 O774 1.254 . S
C769 O775 1.268 . S
O770 Dy763 2.351 . S
O770 C778 1.249 . S
O771 Dy760 2.326 . S
O771 C778 1.267 . S
O772 C761 1.185 . S
O772 Dy763 2.398 . S
O773 C761 1.355 . S
O773 Dy763 2.491 . S
O774 Dy763 2.403 . S
O774 C769 1.254 . S
O775 Dy760 2.310 . S
O775 Dy763 2.664 . S
O775 C769 1.268 . S
O776 Dy760 2.351 . S
O776 C779 1.249 . S
O777 Dy763 2.326 . S
O777 C779 1.267 . S
C778 O770 1.249 . S
C778 O771 1.267 . S
C779 O776 1.249 . S
C779 O777 1.267 . S
Dy780 O784 2.398 . S
Dy780 O785 2.491 . S
Dy780 O786 2.403 . S
Dy780 O787 2.664 . S
Dy780 O791 2.326 . S
Dy780 O795 2.310 . S
Dy780 O796 2.351 . S
C781 O792 1.185 . S
C781 O793 1.355 . S
C782 O784 1.185 . S
C782 O785 1.355 . S
Dy783 O787 2.310 . S
Dy783 O790 2.351 . S
Dy783 O792 2.398 . S
Dy783 O793 2.491 . S
Dy783 O794 2.403 . S
Dy783 O795 2.664 . S
Dy783 O797 2.326 . S
O784 Dy780 2.398 . S
O784 C782 1.185 . S
O785 Dy780 2.491 . S
O785 C782 1.355 . S
O786 Dy780 2.403 . S
O786 C788 1.254 . S
O787 Dy780 2.664 . S
O787 Dy783 2.310 . S
O787 C788 1.268 . S
C788 O786 1.254 . S
C788 O787 1.268 . S
C789 O794 1.254 . S
C789 O795 1.268 . S
O790 Dy783 2.351 . S
O790 C798 1.249 . S
O791 Dy780 2.326 . S
O791 C798 1.267 . S
O792 C781 1.185 . S
O792 Dy783 2.398 . S
O793 C781 1.355 . S
O793 Dy783 2.491 . S
O794 Dy783 2.403 . S
O794 C789 1.254 . S
O795 Dy780 2.310 . S
O795 Dy783 2.664 . S
O795 C789 1.268 . S
O796 Dy780 2.351 . S
O796 C799 1.249 . S
O797 Dy783 2.326 . S
O797 C799 1.267 . S
C798 O790 1.249 . S
C798 O791 1.267 . S
C799 O796 1.249 . S
C799 O797 1.267 . S
Dy800 O804 2.398 . S
Dy800 O805 2.491 . S
Dy800 O806 2.403 . S
Dy800 O807 2.664 . S
Dy800 O811 2.326 . S
Dy800 O815 2.310 . S
Dy800 O816 2.351 . S
C801 O812 1.185 . S
C801 O813 1.355 . S
C802 O804 1.185 . S
C802 O805 1.355 . S
Dy803 O807 2.310 . S
Dy803 O810 2.351 . S
Dy803 O812 2.398 . S
Dy803 O813 2.491 . S
Dy803 O814 2.403 . S
Dy803 O815 2.664 . S
Dy803 O817 2.326 . S
O804 Dy800 2.398 . S
O804 C802 1.185 . S
O805 Dy800 2.491 . S
O805 C802 1.355 . S
O806 Dy800 2.403 . S
O806 C808 1.254 . S
O807 Dy800 2.664 . S
O807 Dy803 2.310 . S
O807 C808 1.268 . S
C808 O806 1.254 . S
C808 O807 1.268 . S
C809 O814 1.254 . S
C809 O815 1.268 . S
O810 Dy803 2.351 . S
O810 C818 1.249 . S
O811 Dy800 2.326 . S
O811 C818 1.267 . S
O812 C801 1.185 . S
O812 Dy803 2.398 . S
O813 C801 1.355 . S
O813 Dy803 2.491 . S
O814 Dy803 2.403 . S
O814 C809 1.254 . S
O815 Dy800 2.310 . S
O815 Dy803 2.664 . S
O815 C809 1.268 . S
O816 Dy800 2.351 . S
O816 C819 1.249 . S
O817 Dy803 2.326 . S
O817 C819 1.267 . S
C818 O810 1.249 . S
C818 O811 1.267 . S
C819 O816 1.249 . S
C819 O817 1.267 . S
Dy820 O824 2.398 . S
Dy820 O825 2.491 . S
Dy820 O826 2.403 . S
Dy820 O827 2.664 . S
Dy820 O831 2.326 . S
Dy820 O835 2.310 . S
Dy820 O836 2.351 . S
C821 O832 1.185 . S
C821 O833 1.355 . S
C822 O824 1.185 . S
C822 O825 1.355 . S
Dy823 O827 2.310 . S
Dy823 O830 2.351 . S
Dy823 O832 2.398 . S
Dy823 O833 2.491 . S
Dy823 O834 2.403 . S
Dy823 O835 2.664 . S
Dy823 O837 2.326 . S
O824 Dy820 2.398 . S
O824 C822 1.185 . S
O825 Dy820 2.491 . S
O825 C822 1.355 . S
O826 Dy820 2.403 . S
O826 C828 1.254 . S
O827 Dy820 2.664 . S
O827 Dy823 2.310 . S
O827 C828 1.268 . S
C828 O826 1.254 . S
C828 O827 1.268 . S
C829 O834 1.254 . S
C829 O835 1.268 . S
O830 Dy823 2.351 . S
O830 C838 1.249 . S
O831 Dy820 2.326 . S
O831 C838 1.267 . S
O832 C821 1.185 . S
O832 Dy823 2.398 . S
O833 C821 1.355 . S
O833 Dy823 2.491 . S
O834 Dy823 2.403 . S
O834 C829 1.254 . S
O835 Dy820 2.310 . S
O835 Dy823 2.664 . S
O835 C829 1.268 . S
O836 Dy820 2.351 . S
O836 C839 1.249 . S
O837 Dy823 2.326 . S
O837 C839 1.267 . S
C838 O830 1.249 . S
C838 O831 1.267 . S
C839 O836 1.249 . S
C839 O837 1.267 . S
Dy840 O844 2.398 . S
Dy840 O845 2.491 . S
Dy840 O846 2.403 . S
Dy840 O847 2.664 . S
Dy840 O851 2.326 . S
Dy840 O855 2.310 . S
Dy840 O856 2.351 . S
C841 O852 1.185 . S
C841 O853 1.355 . S
C842 O844 1.185 . S
C842 O845 1.355 . S
Dy843 O847 2.310 . S
Dy843 O850 2.351 . S
Dy843 O852 2.398 . S
Dy843 O853 2.491 . S
Dy843 O854 2.403 . S
Dy843 O855 2.664 . S
Dy843 O857 2.326 . S
O844 Dy840 2.398 . S
O844 C842 1.185 . S
O845 Dy840 2.491 . S
O845 C842 1.355 . S
O846 Dy840 2.403 . S
O846 C848 1.254 . S
O847 Dy840 2.664 . S
O847 Dy843 2.310 . S
O847 C848 1.268 . S
C848 O846 1.254 . S
C848 O847 1.268 . S
C849 O854 1.254 . S
C849 O855 1.268 . S
O850 Dy843 2.351 . S
O850 C858 1.249 . S
O851 Dy840 2.326 . S
O851 C858 1.267 . S
O852 C841 1.185 . S
O852 Dy843 2.398 . S
O853 C841 1.355 . S
O853 Dy843 2.491 . S
O854 Dy843 2.403 . S
O854 C849 1.254 . S
O855 Dy840 2.310 . S
O855 Dy843 2.664 . S
O855 C849 1.268 . S
O856 Dy840 2.351 . S
O856 C859 1.249 . S
O857 Dy843 2.326 . S
O857 C859 1.267 . S
C858 O850 1.249 . S
C858 O851 1.267 . S
C859 O856 1.249 . S
C859 O857 1.267 . S
Dy860 O864 2.398 . S
Dy860 O865 2.491 . S
Dy860 O866 2.403 . S
Dy860 O867 2.664 . S
Dy860 O871 2.326 . S
Dy860 O875 2.310 . S
Dy860 O876 2.351 . S
C861 O872 1.185 . S
C861 O873 1.355 . S
C862 O864 1.185 . S
C862 O865 1.355 . S
Dy863 O867 2.310 . S
Dy863 O870 2.351 . S
Dy863 O872 2.398 . S
Dy863 O873 2.491 . S
Dy863 O874 2.403 . S
Dy863 O875 2.664 . S
Dy863 O877 2.326 . S
O864 Dy860 2.398 . S
O864 C862 1.185 . S
O865 Dy860 2.491 . S
O865 C862 1.355 . S
O866 Dy860 2.403 . S
O866 C868 1.254 . S
O867 Dy860 2.664 . S
O867 Dy863 2.310 . S
O867 C868 1.268 . S
C868 O866 1.254 . S
C868 O867 1.268 . S
C869 O874 1.254 . S
C869 O875 1.268 . S
O870 Dy863 2.351 . S
O870 C878 1.249 . S
O871 Dy860 2.326 . S
O871 C878 1.267 . S
O872 C861 1.185 . S
O872 Dy863 2.398 . S
O873 C861 1.355 . S
O873 Dy863 2.491 . S
O874 Dy863 2.403 . S
O874 C869 1.254 . S
O875 Dy860 2.310 . S
O875 Dy863 2.664 . S
O875 C869 1.268 . S
O876 Dy860 2.351 . S
O876 C879 1.249 . S
O877 Dy863 2.326 . S
O877 C879 1.267 . S
C878 O870 1.249 . S
C878 O871 1.267 . S
C879 O876 1.249 . S
C879 O877 1.267 . S
Dy880 O884 2.398 . S
Dy880 O885 2.491 . S
Dy880 O886 2.403 . S
Dy880 O887 2.664 . S
Dy880 O891 2.326 . S
Dy880 O895 2.310 . S
Dy880 O896 2.351 . S
C881 O892 1.185 . S
C881 O893 1.355 . S
C882 O884 1.185 . S
C882 O885 1.355 . S
Dy883 O887 2.310 . S
Dy883 O890 2.351 . S
Dy883 O892 2.398 . S
Dy883 O893 2.491 . S
Dy883 O894 2.403 . S
Dy883 O895 2.664 . S
Dy883 O897 2.326 . S
O884 Dy880 2.398 . S
O884 C882 1.185 . S
O885 Dy880 2.491 . S
O885 C882 1.355 . S
O886 Dy880 2.403 . S
O886 C888 1.254 . S
O887 Dy880 2.664 . S
O887 Dy883 2.310 . S
O887 C888 1.268 . S
C888 O886 1.254 . S
C888 O887 1.268 . S
C889 O894 1.254 . S
C889 O895 1.268 . S
O890 Dy883 2.351 . S
O890 C898 1.249 . S
O891 Dy880 2.326 . S
O891 C898 1.267 . S
O892 C881 1.185 . S
O892 Dy883 2.398 . S
O893 C881 1.355 . S
O893 Dy883 2.491 . S
O894 Dy883 2.403 . S
O894 C889 1.254 . S
O895 Dy880 2.310 . S
O895 Dy883 2.664 . S
O895 C889 1.268 . S
O896 Dy880 2.351 . S
O896 C899 1.249 . S
O897 Dy883 2.326 . S
O897 C899 1.267 . S
C898 O890 1.249 . S
C898 O891 1.267 . S
C899 O896 1.249 . S
C899 O897 1.267 . S
Dy900 O904 2.398 . S
Dy900 O905 2.491 . S
Dy900 O906 2.403 . S
Dy900 O907 2.664 . S
Dy900 O911 2.326 . S
Dy900 O915 2.310 . S
Dy900 O916 2.351 . S
C901 O912 1.185 . S
C901 O913 1.355 . S
C902 O904 1.185 . S
C902 O905 1.355 . S
Dy903 O907 2.310 . S
Dy903 O910 2.351 . S
Dy903 O912 2.398 . S
Dy903 O913 2.491 . S
Dy903 O914 2.403 . S
Dy903 O915 2.664 . S
Dy903 O917 2.326 . S
O904 Dy900 2.398 . S
O904 C902 1.185 . S
O905 Dy900 2.491 . S
O905 C902 1.355 . S
O906 Dy900 2.403 . S
O906 C908 1.254 . S
O907 Dy900 2.664 . S
O907 Dy903 2.310 . S
O907 C908 1.268 . S
C908 O906 1.254 . S
C908 O907 1.268 . S
C909 O914 1.254 . S
C909 O915 1.268 . S
O910 Dy903 2.351 . S
O910 C918 1.249 . S
O911 Dy900 2.326 . S
O911 C918 1.267 . S
O912 C901 1.185 . S
O912 Dy903 2.398 . S
O913 C901 1.355 . S
O913 Dy903 2.491 . S
O914 Dy903 2.403 . S
O914 C909 1.254 . S
O915 Dy900 2.310 . S
O915 Dy903 2.664 . S
O915 C909 1.268 . S
O916 Dy900 2.351 . S
O916 C919 1.249 . S
O917 Dy903 2.326 . S
O917 C919 1.267 . S
C918 O910 1.249 . S
C918 O911 1.267 . S
C919 O916 1.249 . S
C919 O917 1.267 . S
Dy920 O924 2.398 . S
Dy920 O925 2.491 . S
Dy920 O926 2.403 . S
Dy920 O927 2.664 . S
Dy920 O931 2.326 . S
Dy920 O935 2.310 . S
Dy920 O936 2.351 . S
C921 O932 1.185 . S
C921 O933 1.355 . S
C922 O924 1.185 . S
C922 O925 1.355 . S
Dy923 O927 2.310 . S
Dy923 O930 2.351 . S
Dy923 O932 2.398 . S
Dy923 O933 2.491 . S
Dy923 O934 2.403 . S
Dy923 O935 2.664 . S
Dy923 O937 2.326 . S
O924 Dy920 2.398 . S
O924 C922 1.185 . S
O925 Dy920 2.491 . S
O925 C922 1.355 . S
O926 Dy920 2.403 . S
O926 C928 1.254 . S
O927 Dy920 2.664 . S
O927 Dy923 2.310 . S
O927 C928 1.268 . S
C928 O926 1.254 . S
C928 O927 1.268 . S
C929 O934 1.254 . S
C929 O935 1.268 . S
O930 Dy923 2.351 . S
O930 C938 1.249 . S
O931 Dy920 2.326 . S
O931 C938 1.267 . S
O932 C921 1.185 . S
O932 Dy923 2.398 . S
O933 C921 1.355 . S
O933 Dy923 2.491 . S
O934 Dy923 2.403 . S
O934 C929 1.254 . S
O935 Dy920 2.310 . S
O935 Dy923 2.664 . S
O935 C929 1.268 . S
O936 Dy920 2.351 . S
O936 C939 1.249 . S
O937 Dy923 2.326 . S
O937 C939 1.267 . S
C938 O930 1.249 . S
C938 O931 1.267 . S
C939 O936 1.249 . S
C939 O937 1.267 . S
Dy940 O944 2.398 . S
Dy940 O945 2.491 . S
Dy940 O946 2.403 . S
Dy940 O947 2.664 . S
Dy940 O951 2.326 . S
Dy940 O955 2.310 . S
Dy940 O956 2.351 . S
C941 O952 1.185 . S
C941 O953 1.355 . S
C942 O944 1.185 . S
C942 O945 1.355 . S
Dy943 O947 2.310 . S
Dy943 O950 2.351 . S
Dy943 O952 2.398 . S
Dy943 O953 2.491 . S
Dy943 O954 2.403 . S
Dy943 O955 2.664 . S
Dy943 O957 2.326 . S
O944 Dy940 2.398 . S
O944 C942 1.185 . S
O945 Dy940 2.491 . S
O945 C942 1.355 . S
O946 Dy940 2.403 . S
O946 C948 1.254 . S
O947 Dy940 2.664 . S
O947 Dy943 2.310 . S
O947 C948 1.268 . S
C948 O946 1.254 . S
C948 O947 1.268 . S
C949 O954 1.254 . S
C949 O955 1.268 . S
O950 Dy943 2.351 . S
O950 C958 1.249 . S
O951 Dy940 2.326 . S
O951 C958 1.267 . S
O952 C941 1.185 . S
O952 Dy943 2.398 . S
O953 C941 1.355 . S
O953 Dy943 2.491 . S
O954 Dy943 2.403 . S
O954 C949 1.254 . S
O955 Dy940 2.310 . S
O955 Dy943 2.664 . S
O955 C949 1.268 . S
O956 Dy940 2.351 . S
O956 C959 1.249 . S
O957 Dy943 2.326 . S
O957 C959 1.267 . S
C958 O950 1.249 . S
C958 O951 1.267 . S
C959 O956 1.249 . S
C959 O957 1.267 . S
C128 C8 3.565 1_455 S
C149 C28 3.509 . S
C88 C48 3.597 . S
C108 C68 3.435 . S
C208 C168 3.659 . S
C228 C188 3.531 . S
C289 C248 3.513 . S
C308 C268 3.537 . S
C348 C328 3.617 . S
C468 C368 3.631 . S
C429 C389 3.329 . S
C408 C448 3.602 1_554 S
C488 C608 3.565 1_556 S
C508 C629 3.510 1_556 S
C528 C568 3.597 1_556 S
C548 C588 3.435 1_556 S
C648 C688 3.659 1_655 S
C668 C708 3.531 1_565 S
C728 C769 3.513 1_655 S
C788 C748 3.537 1_545 S
C808 C828 3.617 1_565 S
C948 C848 3.631 1_455 S
C869 C909 3.329 1_565 S
C888 C928 3.602 1_455 S
C9 C189 3.615 1_455 S
C29 C209 3.568 . S
C49 C229 3.670 . S
C169 C69 3.631 . S
C309 C89 3.431 . S
C249 C109 3.664 . S
C269 C129 3.710 . S
C148 C288 4.112 1_545 S
C369 C329 3.861 . S
C449 C349 3.423 . S
C388 C469 3.226 . S
C428 C409 3.949 1_556 S
C489 C669 3.617 . S
C689 C509 3.568 . S
C709 C529 3.670 . S
C549 C649 3.631 . S
C789 C569 3.431 . S
C589 C729 3.664 . S
C609 C749 3.710 . S
C628 C768 4.112 . S
C809 C849 3.861 . S
C929 C829 3.423 . S
C949 C868 3.226 . S
C889 C908 3.949 . S
C18 C62 1.304 . S
C2 C38 0.819 . S
C58 C22 1.300 . S
C78 C42 0.781 . S
C102 C98 1.111 . S
C122 C118 0.951 . S
C138 C159 1.598 . S
C82 C141 0.625 . S
C178 C362 0.997 . S
C198 C399 1.563 . S
C218 C402 1.043 1_545 S
C238 C342 1.797 . S
C258 C442 0.788 . S
C322 C278 0.903 . S
C462 C281 0.708 . S
C318 C439 1.793 . S
C338 C182 1.676 . S
C358 C302 0.311 . S
C378 C242 1.223 1_554 S
C262 C381 0.664 . S
C299 C418 1.397 . S
C222 C421 0.763 . S
C162 C458 1.047 . S
C478 C202 0.630 . S
C498 C542 1.306 . S
C518 C482 0.819 . S
C502 C538 1.300 . S
C522 C558 0.781 . S
C578 C582 1.111 . S
C602 C598 0.951 . S
C639 C618 1.598 . S
C621 C562 0.625 . S
C658 C842 0.996 . S
C879 C678 1.563 . S
C882 C698 1.043 . S
C718 C822 1.797 . S
C922 C738 0.788 . S
C758 C802 0.902 . S
C761 C942 0.708 . S
C798 C919 1.793 . S
C662 C818 1.676 . S
C782 C838 0.311 . S
C722 C858 1.223 . S
C861 C742 0.664 . S
C779 C898 1.397 . S
C901 C702 0.763 . S
C938 C642 1.047 . S
C682 C958 0.630 . S
C1 C881 1.901 . S
C821 C21 2.048 . S
C41 C841 2.582 . S
C61 C878 1.977 . S
C81 C941 2.661 . S
C101 C918 1.897 . S
C121 C921 2.049 . S
C158 C801 2.005 1_545 S
C161 C781 2.083 . S
C181 C721 1.952 . S
C201 C741 2.424 . S
C221 C778 2.128 . S
C241 C661 1.952 . S
C261 C681 2.424 . S
C298 C701 2.128 . S
C301 C641 2.083 . S
C321 C638 2.005 . S
C341 C501 2.048 . S
C361 C521 2.582 . S
C398 C541 1.977 1_554 S
C401 C481 1.902 . S
C438 C581 1.897 . S
C441 C601 2.049 . S
C461 C561 2.661 . S
C99 C859 2.355 . S
C119 C862 1.497 . S
C139 C899 2.438 . S
C142 C839 1.219 . S
C19 C939 2.403 . S
C39 C819 1.969 . S
C59 C959 2.202 . S
C902 C79 1.545 . S
C282 C679 1.314 . S
C319 C699 2.496 . S
C259 C719 2.107 . S
C279 C659 2.386 . S
C219 C799 2.496 . S
C239 C739 2.107 . S
C179 C759 2.386 . S
C199 C762 1.314 . S
C422 C559 1.545 . S
C382 C599 1.497 . S
C419 C619 2.438 . S
C359 C622 1.219 . S
C379 C579 2.355 . S
C339 C519 1.969 . S
C479 C539 2.202 . S
C459 C499 2.401 . S
