# Generated by pormake.
# Topology yfk, (5)-cn, num edge types: 1
# Building blocks:
#     Node 0, Type 0, BuildingBlock: BEQFEK_clean_sbu_0, # of connection points: 5
#     Node 1, Type 0, BuildingBlock: BEQFEK_clean_sbu_0, # of connection points: 5
#     Node 2, Type 0, BuildingBlock: BEQFEK_clean_sbu_0, # of connection points: 5
#     Node 3, Type 0, BuildingBlock: BEQFEK_clean_sbu_0, # of connection points: 5
#     Node 4, Type 0, BuildingBlock: BEQFEK_clean_sbu_0, # of connection points: 5
#     Node 5, Type 0, BuildingBlock: BEQFEK_clean_sbu_0, # of connection points: 5
#     Node 6, Type 0, BuildingBlock: BEQFEK_clean_sbu_0, # of connection points: 5
#     Node 7, Type 0, BuildingBlock: BEQFEK_clean_sbu_0, # of connection points: 5
#     Node 8, Type 0, BuildingBlock: BEQFEK_clean_sbu_0, # of connection points: 5
#     Node 9, Type 0, BuildingBlock: BEQFEK_clean_sbu_0, # of connection points: 5
#     Node 10, Type 0, BuildingBlock: BEQFEK_clean_sbu_0, # of connection points: 5
#     Node 11, Type 0, BuildingBlock: BEQFEK_clean_sbu_0, # of connection points: 5
#     Node 12, Type 0, BuildingBlock: BEQFEK_clean_sbu_0, # of connection points: 5
#     Node 13, Type 0, BuildingBlock: BEQFEK_clean_sbu_0, # of connection points: 5
#     Node 14, Type 0, BuildingBlock: BEQFEK_clean_sbu_0, # of connection points: 5
#     Node 15, Type 0, BuildingBlock: BEQFEK_clean_sbu_0, # of connection points: 5
#     Edge 16, Type (0, 0), BuildingBlock: TEMPAE_clean_linker_10, # of connection points: 2
#     Edge 17, Type (0, 0), BuildingBlock: TEMPAE_clean_linker_10, # of connection points: 2
#     Edge 18, Type (0, 0), BuildingBlock: TEMPAE_clean_linker_10, # of connection points: 2
#     Edge 19, Type (0, 0), BuildingBlock: TEMPAE_clean_linker_10, # of connection points: 2
#     Edge 20, Type (0, 0), BuildingBlock: TEMPAE_clean_linker_10, # of connection points: 2
#     Edge 21, Type (0, 0), BuildingBlock: TEMPAE_clean_linker_10, # of connection points: 2
#     Edge 22, Type (0, 0), BuildingBlock: TEMPAE_clean_linker_10, # of connection points: 2
#     Edge 23, Type (0, 0), BuildingBlock: TEMPAE_clean_linker_10, # of connection points: 2
#     Edge 24, Type (0, 0), BuildingBlock: TEMPAE_clean_linker_10, # of connection points: 2
#     Edge 25, Type (0, 0), BuildingBlock: TEMPAE_clean_linker_10, # of connection points: 2
#     Edge 26, Type (0, 0), BuildingBlock: TEMPAE_clean_linker_10, # of connection points: 2
#     Edge 27, Type (0, 0), BuildingBlock: TEMPAE_clean_linker_10, # of connection points: 2
#     Edge 28, Type (0, 0), BuildingBlock: TEMPAE_clean_linker_10, # of connection points: 2
#     Edge 29, Type (0, 0), BuildingBlock: TEMPAE_clean_linker_10, # of connection points: 2
#     Edge 30, Type (0, 0), BuildingBlock: TEMPAE_clean_linker_10, # of connection points: 2
#     Edge 31, Type (0, 0), BuildingBlock: TEMPAE_clean_linker_10, # of connection points: 2
#     Edge 32, Type (0, 0), BuildingBlock: TEMPAE_clean_linker_10, # of connection points: 2
#     Edge 33, Type (0, 0), BuildingBlock: TEMPAE_clean_linker_10, # of connection points: 2
#     Edge 34, Type (0, 0), BuildingBlock: TEMPAE_clean_linker_10, # of connection points: 2
#     Edge 35, Type (0, 0), BuildingBlock: TEMPAE_clean_linker_10, # of connection points: 2
#     Edge 36, Type (0, 0), BuildingBlock: TEMPAE_clean_linker_10, # of connection points: 2
#     Edge 37, Type (0, 0), BuildingBlock: TEMPAE_clean_linker_10, # of connection points: 2
#     Edge 38, Type (0, 0), BuildingBlock: TEMPAE_clean_linker_10, # of connection points: 2
#     Edge 39, Type (0, 0), BuildingBlock: TEMPAE_clean_linker_10, # of connection points: 2
#     Edge 40, Type (0, 0), BuildingBlock: TEMPAE_clean_linker_10, # of connection points: 2
#     Edge 41, Type (0, 0), BuildingBlock: TEMPAE_clean_linker_10, # of connection points: 2
#     Edge 42, Type (0, 0), BuildingBlock: TEMPAE_clean_linker_10, # of connection points: 2
#     Edge 43, Type (0, 0), BuildingBlock: TEMPAE_clean_linker_10, # of connection points: 2
#     Edge 44, Type (0, 0), BuildingBlock: TEMPAE_clean_linker_10, # of connection points: 2
#     Edge 45, Type (0, 0), BuildingBlock: TEMPAE_clean_linker_10, # of connection points: 2
#     Edge 46, Type (0, 0), BuildingBlock: TEMPAE_clean_linker_10, # of connection points: 2
#     Edge 47, Type (0, 0), BuildingBlock: TEMPAE_clean_linker_10, # of connection points: 2
#     Edge 48, Type (0, 0), BuildingBlock: TEMPAE_clean_linker_10, # of connection points: 2
#     Edge 49, Type (0, 0), BuildingBlock: TEMPAE_clean_linker_10, # of connection points: 2
#     Edge 50, Type (0, 0), BuildingBlock: TEMPAE_clean_linker_10, # of connection points: 2
#     Edge 51, Type (0, 0), BuildingBlock: TEMPAE_clean_linker_10, # of connection points: 2
#     Edge 52, Type (0, 0), BuildingBlock: TEMPAE_clean_linker_10, # of connection points: 2
#     Edge 53, Type (0, 0), BuildingBlock: TEMPAE_clean_linker_10, # of connection points: 2
#     Edge 54, Type (0, 0), BuildingBlock: TEMPAE_clean_linker_10, # of connection points: 2
#     Edge 55, Type (0, 0), BuildingBlock: TEMPAE_clean_linker_10, # of connection points: 2
# Relax obj value: 0.354
# Max RMSD: 0.207
# Mean RMSD: 0.207
data_MOF--net-yfk--node1-BEQFEK_clean_sbu_0--edge1-TEMPAE_clean_linker_10
_symmetry_space_group_name_H-M    P1
_symmetry_Int_Tables_number       1
_symmetry_cell_setting            triclinic
loop_
_symmetry_equiv_pos_as_xyz
'x, y, z'
_cell_length_a     53.579081
_cell_length_b     53.595968
_cell_length_c     29.69792
_cell_angle_alpha  89.981879
_cell_angle_beta   90.064904
_cell_angle_gamma 89.945955
loop_
_atom_site_label
_atom_site_type_symbol
_atom_site_fract_x
_atom_site_fract_y
_atom_site_fract_z
_atom_type_partial_charge
Co0 Co 0.10028 0.04677 0.30896 0.0
Co1 Co 0.09803 0.09702 0.25722 0.0
C2 C 0.06894 0.05222 0.22676 0.0
O3 O 0.08055 0.03934 0.25593 0.0
O4 O 0.07314 0.0756 0.22211 0.0
C5 C 0.12018 0.99829 0.34227 0.0
O6 O 0.13845 0.99826 0.31282 0.0
C7 C 0.09691 0.14372 0.19987 0.0
C8 C 0.11083 0.16957 0.25231 0.0
C9 C 0.10189 0.16874 0.20874 0.0
N10 N 0.10262 0.13046 0.23706 0.0
N11 N 0.11107 0.14612 0.26789 0.0
C12 C 0.08507 0.13307 0.15856 0.0
H13 H 0.07671 0.11459 0.16585 0.0
H14 H 0.09958 0.1307 0.13226 0.0
H15 H 0.07065 0.14601 0.14528 0.0
C16 C 0.15239 0.06183 0.31829 0.0
N17 N 0.13026 0.06317 0.29708 0.0
N18 N 0.1302 0.08224 0.26923 0.0
C19 C 0.15325 0.09252 0.26932 0.0
C20 C 0.16806 0.08001 0.30074 0.0
C21 C 0.1561 0.04822 0.36197 0.0
H22 H 0.1379 0.0441 0.37801 0.0
H23 H 0.16624 0.03052 0.35578 0.0
H24 H 0.16735 0.05954 0.38578 0.0
O25 O 0.08048 0.06688 0.34929 0.0
O26 O 0.08194 0.1039 0.31651 0.0
H27 H 0.15848 0.13176 0.2598 0.0
H28 H 0.18075 0.11253 0.23106 0.0
C29 C 0.1608 0.11419 0.24065 0.0
H30 H 0.14906 0.11508 0.20989 0.0
H31 H 0.11642 0.1408 0.3003 0.0
O32 O 0.10451 0.01599 0.34299 0.0
C33 C 0.07543 0.08994 0.34899 0.0
Co34 Co 0.04851 0.89587 0.67565 0.0
Co35 Co 0.09646 0.90199 0.73435 0.0
C36 C 0.05283 0.93248 0.75479 0.0
O37 O 0.0432 0.92149 0.72111 0.0
O38 O 0.07459 0.92648 0.76889 0.0
C39 C 0.99836 0.87585 0.65052 0.0
O40 O 0.99877 0.85898 0.68255 0.0
C41 C 0.14441 0.90697 0.78811 0.0
C42 C 0.16855 0.88648 0.74031 0.0
C43 C 0.1691 0.89984 0.78008 0.0
N44 N 0.13014 0.89803 0.75433 0.0
N45 N 0.14484 0.88589 0.72612 0.0
C46 C 0.13497 0.92387 0.82433 0.0
H47 H 0.11749 0.93321 0.81349 0.0
H48 H 0.1309 0.91263 0.85483 0.0
H49 H 0.14924 0.93807 0.83314 0.0
C50 C 0.06113 0.84355 0.68377 0.0
N51 N 0.06308 0.86714 0.69849 0.0
N52 N 0.08193 0.86903 0.72671 0.0
C53 C 0.09142 0.84588 0.7334 0.0
C54 C 0.07859 0.82901 0.70616 0.0
C55 C 0.04793 0.83664 0.64093 0.0
H56 H 0.04346 0.85348 0.62084 0.0
H57 H 0.03047 0.82649 0.64896 0.0
H58 H 0.05974 0.82416 0.62005 0.0
O59 O 0.07044 0.90869 0.63022 0.0
O60 O 0.10314 0.91712 0.67346 0.0
H61 H 0.1304 0.83952 0.74467 0.0
H62 H 0.11015 0.82126 0.77943 0.0
C63 C 0.11277 0.83998 0.76411 0.0
H64 H 0.11432 0.85427 0.791 0.0
H65 H 0.13866 0.8777 0.69624 0.0
O66 O 0.01655 0.89063 0.64488 0.0
C67 C 0.09215 0.91745 0.63547 0.0
Co68 Co 0.88819 0.9503 0.30862 0.0
Co69 Co 0.90282 0.89873 0.26605 0.0
C70 C 0.92313 0.94691 0.22927 0.0
O71 O 0.91065 0.95887 0.25869 0.0
O72 O 0.92229 0.92305 0.22701 0.0
C73 C 0.89062 0.99706 0.34869 0.0
O74 O 0.91367 0.9949 0.33406 0.0
C75 C 0.90641 0.85174 0.2106 0.0
C76 C 0.91067 0.82478 0.26652 0.0
C77 C 0.90909 0.8264 0.2202 0.0
N78 N 0.90635 0.86435 0.24984 0.0
N79 N 0.90891 0.848 0.2829 0.0
C80 C 0.90451 0.86384 0.16538 0.0
H81 H 0.9108 0.88353 0.16723 0.0
H82 H 0.88472 0.86368 0.15433 0.0
H83 H 0.91576 0.85344 0.14024 0.0
C84 C 0.83844 0.92936 0.30203 0.0
N85 N 0.86257 0.92895 0.28994 0.0
N86 N 0.86813 0.90697 0.27285 0.0
C87 C 0.84741 0.89259 0.27403 0.0
C88 C 0.82804 0.9063 0.2928 0.0
C89 C 0.82687 0.94977 0.32943 0.0
H90 H 0.83011 0.96798 0.31268 0.0
H91 H 0.80649 0.94694 0.33372 0.0
H92 H 0.83588 0.95033 0.3631 0.0
O93 O 0.90668 0.93419 0.35817 0.0
O94 O 0.91805 0.89859 0.32642 0.0
H95 H 0.85787 0.85528 0.29085 0.0
H96 H 0.82766 0.85789 0.26429 0.0
C97 C 0.84703 0.86521 0.26454 0.0
H98 H 0.8558 0.86155 0.23142 0.0
H99 H 0.90909 0.8526 0.31701 0.0
O100 O 0.87482 0.98063 0.3372 0.0
C101 C 0.9178 0.91331 0.35974 0.0
Co102 Co 0.94648 0.10601 0.67599 0.0
Co103 Co 0.89919 0.09924 0.73604 0.0
C104 C 0.94803 0.07732 0.76404 0.0
O105 O 0.95775 0.08686 0.72883 0.0
O106 O 0.92471 0.07984 0.77269 0.0
C107 C 0.99793 0.11599 0.64319 0.0
O108 O 0.00762 0.10663 0.68018 0.0
C109 C 0.8535 0.09324 0.79502 0.0
C110 C 0.82652 0.1092 0.74633 0.0
C111 C 0.82821 0.0978 0.78788 0.0
N112 N 0.86609 0.10161 0.75878 0.0
N113 N 0.84976 0.11119 0.7302 0.0
C114 C 0.86507 0.07923 0.83323 0.0
H115 H 0.8828 0.07036 0.82243 0.0
H116 H 0.86925 0.0925 0.86089 0.0
H117 H 0.852 0.06489 0.84629 0.0
C118 C 0.92985 0.15763 0.67733 0.0
N119 N 0.92848 0.13418 0.69288 0.0
N120 N 0.91024 0.13234 0.72214 0.0
C121 C 0.90022 0.15526 0.72818 0.0
C122 C 0.91229 0.17206 0.69976 0.0
C123 C 0.94439 0.16461 0.63607 0.0
H124 H 0.94405 0.14894 0.61172 0.0
H125 H 0.96406 0.16836 0.64562 0.0
H126 H 0.93656 0.18124 0.61893 0.0
O127 O 0.92614 0.08534 0.63678 0.0
O128 O 0.89222 0.08098 0.67859 0.0
H129 H 0.86143 0.15988 0.74295 0.0
H130 H 0.88171 0.18032 0.77378 0.0
C131 C 0.87964 0.16106 0.76054 0.0
H132 H 0.87976 0.14756 0.78887 0.0
H133 H 0.85449 0.11844 0.69874 0.0
O134 O 0.97445 0.11655 0.63809 0.0
C135 C 0.9043 0.07696 0.64254 0.0
Co136 Co 0.09531 0.44839 0.92934 0.0
Co137 Co 0.09365 0.39964 0.98519 0.0
C138 C 0.07002 0.44682 0.0194 0.0
O139 O 0.07853 0.458 0.98488 0.0
O140 O 0.07333 0.42332 0.02504 0.0
C141 C 0.11208 0.49748 0.89105 0.0
O142 O 0.12612 0.50336 0.92575 0.0
C143 C 0.09359 0.35432 0.04559 0.0
C144 C 0.11064 0.32799 0.99707 0.0
C145 C 0.10098 0.32971 0.03991 0.0
N146 N 0.09906 0.36681 0.00752 0.0
N147 N 0.10911 0.35083 0.97882 0.0
C148 C 0.08094 0.36536 0.08572 0.0
H149 H 0.07086 0.38269 0.07638 0.0
H150 H 0.09525 0.36995 0.11145 0.0
H151 H 0.06781 0.35168 0.10074 0.0
C152 C 0.14811 0.43446 0.92149 0.0
N153 N 0.12541 0.43184 0.94004 0.0
N154 N 0.12562 0.41308 0.9685 0.0
C155 C 0.14917 0.40406 0.97104 0.0
C156 C 0.16417 0.41721 0.94098 0.0
C157 C 0.15302 0.44991 0.88035 0.0
H158 H 0.13578 0.45186 0.86004 0.0
H159 H 0.15953 0.46869 0.8907 0.0
H160 H 0.16758 0.44128 0.85885 0.0
O161 O 0.07352 0.42788 0.89301 0.0
O162 O 0.07452 0.39176 0.92883 0.0
H163 H 0.15683 0.36555 0.98422 0.0
H164 H 0.17688 0.3869 0.01334 0.0
C165 C 0.15737 0.38367 0.00214 0.0
H166 H 0.14493 0.38271 0.03192 0.0
H167 H 0.11464 0.35554 0.94622 0.0
O168 O 0.09988 0.47726 0.89083 0.0
C169 C 0.06751 0.40514 0.89583 0.0
Co170 Co 0.44936 0.88843 0.05604 0.0
Co171 Co 0.39886 0.90212 0.00952 0.0
C172 C 0.4469 0.92544 0.97951 0.0
O173 O 0.4583 0.91259 0.00917 0.0
O174 O 0.42321 0.92374 0.97437 0.0
C175 C 0.49767 0.88909 0.09538 0.0
O176 O 0.49929 0.91123 0.07662 0.0
C177 C 0.35363 0.90821 0.95014 0.0
C178 C 0.32467 0.90083 0.00152 0.0
C179 C 0.32806 0.90623 0.95656 0.0
N180 N 0.36494 0.90409 0.98998 0.0
N181 N 0.34742 0.89994 0.02042 0.0
C182 C 0.36689 0.91252 0.90664 0.0
H183 H 0.38649 0.91824 0.91272 0.0
H184 H 0.36682 0.89495 0.88688 0.0
H185 H 0.35697 0.92695 0.88662 0.0
C186 C 0.43147 0.83808 0.04284 0.0
N187 N 0.42986 0.86254 0.03366 0.0
N188 N 0.40861 0.86746 0.01332 0.0
C189 C 0.39612 0.84572 0.00795 0.0
C190 C 0.41023 0.82638 0.02647 0.0
C191 C 0.45029 0.82756 0.07518 0.0
H192 H 0.45072 0.83927 0.10596 0.0
H193 H 0.46906 0.82816 0.0595 0.0
H194 H 0.44613 0.80819 0.08563 0.0
O195 O 0.43131 0.90471 0.10512 0.0
O196 O 0.39628 0.91616 0.07146 0.0
H197 H 0.35663 0.84927 0.01492 0.0
H198 H 0.3663 0.82411 0.97865 0.0
C199 C 0.37036 0.84361 0.98895 0.0
H200 H 0.36834 0.85614 0.95946 0.0
H201 H 0.35105 0.8959 0.05417 0.0
O202 O 0.47922 0.87527 0.08592 0.0
C203 C 0.41009 0.91519 0.10621 0.0
Co204 Co 0.8875 0.5491 0.93339 0.0
Co205 Co 0.90211 0.59939 0.98074 0.0
C206 C 0.92608 0.55171 0.00826 0.0
O207 O 0.91309 0.54107 0.978 0.0
O208 O 0.92349 0.57499 0.01681 0.0
C209 C 0.88734 0.49845 0.90461 0.0
O210 O 0.90687 0.49669 0.93119 0.0
C211 C 0.90591 0.64562 0.0384 0.0
C212 C 0.90791 0.67346 0.9835 0.0
C213 C 0.90778 0.67112 0.0298 0.0
N214 N 0.90497 0.63358 -0.0014 0.0
N215 N 0.90613 0.65045 0.96618 0.0
C216 C 0.90561 0.63292 0.0832 0.0
H217 H 0.91188 0.61326 0.07984 0.0
H218 H 0.88625 0.63293 0.09642 0.0
H219 H 0.91767 0.64304 0.10751 0.0
C220 C 0.83743 0.56784 0.94757 0.0
N221 N 0.86192 0.5688 0.9571 0.0
N222 N 0.86738 0.59038 0.97579 0.0
C223 C 0.84617 0.60402 0.97824 0.0
C224 C 0.82653 0.59021 0.96035 0.0
C225 C 0.82614 0.5482 0.91798 0.0
H226 H 0.8353 0.54874 0.88448 0.0
H227 H 0.82966 0.52955 0.93293 0.0
H228 H 0.80577 0.55075 0.91342 0.0
O229 O 0.90386 0.56686 0.88391 0.0
O230 O 0.91689 0.6008 0.91941 0.0
H231 H 0.85465 0.64229 0.96549 0.0
H232 H 0.82558 0.63743 0.99495 0.0
C233 C 0.84516 0.6309 0.99151 0.0
H234 H 0.85502 0.63353 0.02398 0.0
H235 H 0.90541 0.64633 0.93189 0.0
O236 O 0.87481 0.51857 0.90438 0.0
C237 C 0.91557 0.58739 0.88431 0.0
Co238 Co 0.55033 0.11387 0.06572 0.0
Co239 Co 0.59856 0.09993 0.01266 0.0
C240 C 0.55155 0.07357 0.99319 0.0
O241 O 0.54191 0.08643 0.02472 0.0
O242 O 0.57405 0.07725 0.98038 0.0
C243 C 0.49912 0.11591 0.09577 0.0
O244 O 0.4951 0.09701 0.06855 0.0
C245 C 0.64375 0.09325 0.95318 0.0
C246 C 0.67265 0.09831 0.00573 0.0
C247 C 0.66933 0.09333 0.96061 0.0
N248 N 0.63236 0.09789 0.99271 0.0
N249 N 0.64985 0.10097 0.0237 0.0
C250 C 0.63058 0.08867 0.90963 0.0
H251 H 0.61077 0.08364 0.91562 0.0
H252 H 0.63125 0.10593 0.88902 0.0
H253 H 0.64015 0.07366 0.89051 0.0
C254 C 0.5668 0.1639 0.04761 0.0
N255 N 0.56795 0.13946 0.03816 0.0
N256 N 0.5884 0.13446 0.0155 0.0
C257 C 0.60072 0.15614 0.00855 0.0
C258 C 0.58745 0.17556 0.02876 0.0
C259 C 0.54969 0.1742 0.08308 0.0
H260 H 0.54992 0.16169 0.11283 0.0
H261 H 0.53036 0.17475 0.0697 0.0
H262 H 0.55502 0.19307 0.09471 0.0
O263 O 0.57057 0.10088 0.11477 0.0
O264 O 0.60232 0.0863 0.07499 0.0
H265 H 0.64035 0.15217 0.01154 0.0
H266 H 0.62976 0.17741 0.97613 0.0
C267 C 0.62585 0.15798 0.98698 0.0
H268 H 0.6268 0.14534 0.95747 0.0
H269 H 0.64622 0.105 0.05743 0.0
O270 O 0.52031 0.12642 0.09576 0.0
C271 C 0.59102 0.08911 0.11224 0.0
Co272 Co 0.61019 0.54795 0.80726 0.0
Co273 Co 0.5969 0.59993 0.76486 0.0
C274 C 0.56962 0.55476 0.73655 0.0
O275 O 0.58225 0.54288 0.76573 0.0
O276 O 0.57363 0.57785 0.72874 0.0
C277 C 0.63013 0.49279 0.83428 0.0
O278 O 0.64458 0.48078 0.80588 0.0
C279 C 0.59747 0.64642 0.70851 0.0
C280 C 0.59551 0.67441 0.76308 0.0
C281 C 0.59835 0.67196 0.71704 0.0
N282 N 0.59475 0.63444 0.74813 0.0
N283 N 0.59314 0.6514 0.78031 0.0
C284 C 0.6018 0.63356 0.66453 0.0
H285 H 0.60708 0.61376 0.67011 0.0
H286 H 0.61658 0.64331 0.64515 0.0
H287 H 0.58435 0.63413 0.64442 0.0
C288 C 0.66027 0.566 0.79538 0.0
N289 N 0.63609 0.5674 0.78365 0.0
N290 N 0.63132 0.58942 0.76598 0.0
C291 C 0.65283 0.60264 0.76525 0.0
C292 C 0.67186 0.58828 0.78407 0.0
C293 C 0.67004 0.5464 0.82693 0.0
H294 H 0.65642 0.5434 0.85451 0.0
H295 H 0.67215 0.5286 0.80827 0.0
H296 H 0.68821 0.55141 0.84222 0.0
O297 O 0.59767 0.56485 0.86101 0.0
O298 O 0.58465 0.59991 0.82845 0.0
H299 H 0.64421 0.64105 0.77706 0.0
H300 H 0.67437 0.63592 0.7515 0.0
C301 C 0.65467 0.62957 0.75243 0.0
H302 H 0.64639 0.63232 0.71865 0.0
H303 H 0.59154 0.64726 0.8145 0.0
O304 O 0.62229 0.51438 0.82381 0.0
C305 C 0.58695 0.58601 0.86302 0.0
Co306 Co 0.54751 0.3897 0.19211 0.0
Co307 Co 0.60071 0.40442 0.22675 0.0
C308 C 0.5539 0.42718 0.26587 0.0
O309 O 0.54033 0.41362 0.24066 0.0
O310 O 0.57774 0.42592 0.26459 0.0
C311 C 0.49946 0.393 0.15751 0.0
O312 O 0.50126 0.41513 0.17623 0.0
C313 C 0.64767 0.40332 0.2812 0.0
C314 C 0.67487 0.41145 0.22717 0.0
C315 C 0.67309 0.40508 0.27212 0.0
N316 N 0.63511 0.40802 0.24282 0.0
N317 N 0.65155 0.41327 0.21102 0.0
C318 C 0.63565 0.39474 0.32387 0.0
H319 H 0.61638 0.38805 0.31719 0.0
H320 H 0.64691 0.37972 0.33974 0.0
H321 H 0.63468 0.41063 0.34775 0.0
C322 C 0.56779 0.33961 0.20051 0.0
N323 N 0.56896 0.36397 0.21103 0.0
N324 N 0.59183 0.36969 0.22353 0.0
C325 C 0.60612 0.34899 0.22002 0.0
C326 C 0.59138 0.32927 0.20521 0.0
C327 C 0.54605 0.32807 0.17661 0.0
H328 H 0.54488 0.33578 0.14198 0.0
H329 H 0.52854 0.33285 0.19457 0.0
H330 H 0.54781 0.30749 0.17454 0.0
O331 O 0.56259 0.40708 0.13991 0.0
O332 O 0.59978 0.41791 0.1653 0.0
H333 H 0.64168 0.3627 0.19863 0.0
H334 H 0.64187 0.33021 0.21518 0.0
C335 C 0.63401 0.34891 0.22275 0.0
H336 H 0.63983 0.35428 0.25718 0.0
H337 H 0.64696 0.41706 0.17758 0.0
O338 O 0.51639 0.37698 0.16537 0.0
C339 C 0.58366 0.4174 0.13401 0.0
Co340 Co 0.3922 0.45349 0.80435 0.0
Co341 Co 0.40273 0.40017 0.76659 0.0
C342 C 0.42652 0.44621 0.72629 0.0
O343 O 0.41413 0.45982 0.75331 0.0
O344 O 0.42481 0.42235 0.72717 0.0
C345 C 0.39808 0.49973 0.84364 0.0
O346 O 0.42095 0.49588 0.82928 0.0
C347 C 0.40795 0.35145 0.71629 0.0
C348 C 0.39812 0.32644 0.77279 0.0
C349 C 0.40472 0.32633 0.72778 0.0
N350 N 0.40312 0.3654 0.75302 0.0
N351 N 0.3975 0.35021 0.78652 0.0
C352 C 0.41673 0.36213 0.67258 0.0
H353 H 0.42474 0.38098 0.6778 0.0
H354 H 0.40063 0.36387 0.64927 0.0
H355 H 0.43094 0.34978 0.657 0.0
C356 C 0.34082 0.43621 0.7995 0.0
N357 N 0.36493 0.43365 0.78812 0.0
N358 N 0.36868 0.41129 0.77113 0.0
C359 C 0.34663 0.39898 0.77102 0.0
C360 C 0.32843 0.41423 0.7897 0.0
C361 C 0.33076 0.45776 0.82595 0.0
H362 H 0.33534 0.47545 0.80843 0.0
H363 H 0.31021 0.4565 0.83015 0.0
H364 H 0.33975 0.45811 0.85963 0.0
O365 O 0.4112 0.43787 0.85374 0.0
O366 O 0.41704 0.3996 0.82789 0.0
H367 H 0.34822 0.36046 0.78907 0.0
H368 H 0.32363 0.36814 0.75038 0.0
C369 C 0.34336 0.37205 0.75941 0.0
H370 H 0.35554 0.36694 0.73073 0.0
H371 H 0.39294 0.35615 0.81895 0.0
O372 O 0.38103 0.48479 0.83145 0.0
C373 C 0.41939 0.41584 0.8586 0.0
Co374 Co 0.45146 0.60507 0.19044 0.0
Co375 Co 0.39894 0.5987 0.23362 0.0
C376 C 0.44501 0.57178 0.26861 0.0
O377 O 0.45907 0.5841 0.24237 0.0
O378 O 0.42132 0.57479 0.26841 0.0
C379 C 0.50293 0.62183 0.15601 0.0
O380 O 0.50948 0.63635 0.18962 0.0
C381 C 0.35518 0.59724 0.29613 0.0
C382 C 0.32505 0.60283 0.24608 0.0
C383 C 0.32955 0.59916 0.2913 0.0
N384 N 0.36553 0.59982 0.25515 0.0
N385 N 0.34735 0.6031 0.22555 0.0
C386 C 0.36935 0.59261 0.33866 0.0
H387 H 0.38975 0.59395 0.33278 0.0
H388 H 0.36355 0.60635 0.3646 0.0
H389 H 0.36468 0.57375 0.35158 0.0
C390 C 0.43568 0.65755 0.1884 0.0
N391 N 0.43346 0.63422 0.20472 0.0
N392 N 0.41171 0.63189 0.22494 0.0
C393 C 0.39969 0.65405 0.22271 0.0
C394 C 0.41438 0.67092 0.19928 0.0
C395 C 0.45523 0.66524 0.15516 0.0
H396 H 0.45744 0.65056 0.12915 0.0
H397 H 0.47324 0.66748 0.17302 0.0
H398 H 0.4506 0.68319 0.13847 0.0
O399 O 0.43254 0.58515 0.14682 0.0
O400 O 0.39407 0.58379 0.17372 0.0
H401 H 0.36062 0.65113 0.20975 0.0
H402 H 0.36941 0.67849 0.24093 0.0
C403 C 0.37319 0.65827 0.23646 0.0
H404 H 0.36923 0.64837 0.26843 0.0
H405 H 0.35017 0.60552 0.19107 0.0
O406 O 0.48202 0.6108 0.15603 0.0
C407 C 0.40987 0.57877 0.14336 0.0
Co408 Co 0.59907 0.9512 0.43496 0.0
Co409 Co 0.59448 0.90072 0.48706 0.0
C410 C 0.57304 0.94757 0.52522 0.0
O411 O 0.58204 0.95913 0.49148 0.0
O412 O 0.57543 0.92387 0.52937 0.0
C413 C 0.6204 0.99953 0.40004 0.0
O414 O 0.63879 -2e-05 0.42931 0.0
C415 C 0.59859 0.85374 0.54361 0.0
C416 C 0.60597 0.82761 0.48746 0.0
C417 C 0.60378 0.82882 0.53372 0.0
N418 N 0.59802 0.86657 0.50458 0.0
N419 N 0.60223 0.85068 0.47139 0.0
C420 C 0.59614 0.86548 0.58902 0.0
H421 H 0.60059 0.88568 0.5872 0.0
H422 H 0.6086 0.85606 0.61363 0.0
H423 H 0.5766 0.86342 0.60078 0.0
C424 C 0.65098 0.93344 0.42568 0.0
N425 N 0.62817 0.93238 0.44443 0.0
N426 N 0.62698 0.91301 0.47154 0.0
C427 C 0.64968 0.90206 0.47315 0.0
C428 C 0.66563 0.91456 0.44389 0.0
C429 C 0.6569 0.94859 0.38461 0.0
H430 H 0.63956 0.95398 0.36673 0.0
H431 H 0.66725 0.96561 0.39458 0.0
H432 H 0.66887 0.93782 0.36111 0.0
O433 O 0.57662 0.93295 0.39602 0.0
O434 O 0.57482 0.8964 0.43038 0.0
H435 H 0.65162 0.86262 0.48331 0.0
H436 H 0.67613 0.87989 0.51051 0.0
C437 C 0.65596 0.88001 0.50191 0.0
H438 H 0.64481 0.88043 0.53333 0.0
H439 H 0.60322 0.85575 0.43752 0.0
O440 O 0.60466 0.98187 0.40041 0.0
C441 C 0.569 0.91065 0.39785 0.0
Co442 Co 0.94963 0.38973 0.55255 0.0
Co443 Co 0.89692 0.40485 0.5157 0.0
C444 C 0.94536 0.42748 0.48038 0.0
O445 O 0.95874 0.41317 0.50465 0.0
O446 O 0.92148 0.42672 0.48171 0.0
C447 C 0.99765 0.3886 0.59339 0.0
O448 O 0.99933 0.41129 0.57689 0.0
C449 C 0.85281 0.40511 0.45449 0.0
C450 C 0.82289 0.41079 0.50474 0.0
C451 C 0.82712 0.40612 0.4597 0.0
N452 N 0.86336 0.40869 0.49512 0.0
N453 N 0.84532 0.41252 0.52471 0.0
C454 C 0.86683 0.39819 0.41288 0.0
H455 H 0.88722 0.39775 0.41951 0.0
H456 H 0.8605 0.37962 0.40091 0.0
H457 H 0.86264 0.41191 0.38589 0.0
C458 C 0.92886 0.34002 0.5425 0.0
N459 N 0.92816 0.36439 0.53192 0.0
N460 N 0.90556 0.37031 0.51816 0.0
C461 C 0.89097 0.34981 0.52109 0.0
C462 C 0.90525 0.33003 0.53683 0.0
C463 C 0.95006 0.32788 0.56706 0.0
H464 H 0.9679 0.33236 0.54999 0.0
H465 H 0.94777 0.3073 0.56838 0.0
H466 H 0.95082 0.33518 0.602 0.0
O467 O 0.93359 0.40813 0.60284 0.0
O468 O 0.89548 0.41668 0.57801 0.0
H469 H 0.85564 0.36351 0.54367 0.0
H470 H 0.85501 0.33148 0.52464 0.0
C471 C 0.86309 0.35024 0.51841 0.0
H472 H 0.85729 0.35654 0.48446 0.0
H473 H 0.84821 0.41514 0.55912 0.0
O474 O 0.97915 0.37518 0.58231 0.0
C475 C 0.91187 0.41706 0.60877 0.0
Co476 Co 0.39243 0.04894 0.439 0.0
Co477 Co 0.40394 0.1003 0.485 0.0
C478 C 0.42994 0.05272 0.51321 0.0
O479 O 0.41695 0.04068 0.48473 0.0
O480 O 0.427 0.07623 0.51893 0.0
C481 C 0.37296 0.9978 0.40147 0.0
O482 O 0.36047 0.98833 0.43543 0.0
C483 C 0.40611 0.14414 0.54778 0.0
C484 C 0.40752 0.1744 0.49714 0.0
C485 C 0.40731 0.16982 0.54279 0.0
N486 N 0.40562 0.13387 0.50643 0.0
N487 N 0.40647 0.15216 0.47652 0.0
C488 C 0.40545 0.1298 0.59087 0.0
H489 H 0.40554 0.10942 0.58428 0.0
H490 H 0.3884 0.13494 0.60993 0.0
H491 H 0.4218 0.13498 0.61188 0.0
C492 C 0.34125 0.06634 0.449 0.0
N493 N 0.36539 0.06778 0.46087 0.0
N494 N 0.36977 0.08969 0.4794 0.0
C495 C 0.34827 0.10296 0.47924 0.0
C496 C 0.32959 0.08865 0.45957 0.0
C497 C 0.33062 0.04578 0.4208 0.0
H498 H 0.33325 0.02786 0.43867 0.0
H499 H 0.31039 0.04844 0.41429 0.0
H500 H 0.34075 0.04486 0.38827 0.0
O501 O 0.40959 0.06771 0.39197 0.0
O502 O 0.41735 0.10427 0.42348 0.0
H503 H 0.35656 0.14088 0.4632 0.0
H504 H 0.32686 0.13654 0.49072 0.0
C505 C 0.34658 0.1302 0.4896 0.0
H506 H 0.35555 0.13402 0.52252 0.0
H507 H 0.40607 0.14953 0.44173 0.0
O508 O 0.38347 0.0189 0.40487 0.0
C509 C 0.41832 0.08962 0.39005 0.0
Co510 Co 0.04469 0.61184 0.54652 0.0
Co511 Co 0.09825 0.60102 0.50874 0.0
C512 C 0.05376 0.57268 0.47557 0.0
O513 O 0.03972 0.58532 0.50152 0.0
O514 O 0.07729 0.5765 0.47361 0.0
C515 C 9e-05 0.60371 0.58868 0.0
O516 O 0.00625 0.58102 0.57613 0.0
C517 C 0.14708 0.59465 0.45962 0.0
C518 C 0.17212 0.60357 0.51665 0.0
C519 C 0.17222 0.59678 0.47174 0.0
N520 N 0.13311 0.60017 0.49597 0.0
N521 N 0.1483 0.60529 0.52978 0.0
C522 C 0.13638 0.58614 0.41573 0.0
H523 H 0.11725 0.57875 0.42057 0.0
H524 H 0.13527 0.60226 0.39236 0.0
H525 H 0.14839 0.57157 0.40038 0.0
C526 C 0.06086 0.66291 0.5362 0.0
N527 N 0.06338 0.63881 0.52469 0.0
N528 N 0.0861 0.63487 0.50932 0.0
C529 C 0.09863 0.65675 0.51051 0.0
C530 C 0.08328 0.67507 0.52857 0.0
C531 C 0.03964 0.67259 0.56395 0.0
H532 H 0.0217 0.66749 0.54774 0.0
H533 H 0.04058 0.69317 0.5678 0.0
H534 H 0.04025 0.66379 0.59778 0.0
O535 O 0.06195 0.59794 0.59903 0.0
O536 O 0.09887 0.58871 0.57083 0.0
H537 H 0.13626 0.65399 0.53368 0.0
H538 H 0.13076 0.67922 0.49517 0.0
C539 C 0.12605 0.65949 0.50275 0.0
H540 H 0.13205 0.64756 0.47428 0.0
H541 H 0.14238 0.61009 0.5621 0.0
O542 O 0.01281 0.62194 0.5739 0.0
C543 C 0.08376 0.58914 0.60355 0.0
C544 C 0.07639 0.29326 0.06472 0.0
C545 C 0.09755 0.30826 0.06972 0.0
C546 C 0.07487 0.27004 0.08631 0.0
C547 C 0.09509 0.26177 0.11317 0.0
C548 C 0.11626 0.27727 0.11913 0.0
C549 C 0.11726 0.30038 0.09705 0.0
C550 C 0.05202 0.25405 0.07929 0.0
C551 C 0.13816 0.26911 0.14761 0.0
C552 C 0.08659 0.21213 0.20225 0.0
C553 C 0.097 0.19114 0.18135 0.0
C554 C 0.08488 0.23498 0.1797 0.0
C555 C 0.09418 0.23696 0.13534 0.0
C556 C 0.10392 0.21557 0.11337 0.0
C557 C 0.1051 0.19275 0.13667 0.0
C558 C 0.0741 0.25725 0.20408 0.0
C559 C 0.11419 0.21708 0.06614 0.0
H560 H 0.06146 0.29934 0.04259 0.0
H561 H 0.1338 0.31193 0.09985 0.0
H562 H 0.05733 0.2365 0.06198 0.0
H563 H 0.04381 0.24881 0.11224 0.0
H564 H 0.03752 0.26366 0.05886 0.0
H565 H 0.15284 0.28369 0.14983 0.0
H566 H 0.13183 0.2645 0.18218 0.0
H567 H 0.14655 0.25196 0.13318 0.0
H568 H 0.08025 0.2108 0.23684 0.0
H569 H 0.11351 0.1766 0.12082 0.0
H570 H 0.05953 0.26636 0.18316 0.0
H571 H 0.08899 0.27123 0.21008 0.0
H572 H 0.06577 0.25207 0.23702 0.0
H573 H 0.10026 0.22567 0.04321 0.0
H574 H 0.11943 0.19845 0.05271 0.0
H575 H 0.13097 0.22919 0.06585 0.0
C576 C 0.2148 0.90778 0.78087 0.0
C577 C 0.19239 0.90548 0.80501 0.0
C578 C 0.23779 0.90989 0.80299 0.0
C579 C 0.23846 0.90972 0.85055 0.0
C580 C 0.21586 0.90839 0.87524 0.0
C581 C 0.19304 0.90617 0.85214 0.0
C582 C 0.26143 0.91114 0.7754 0.0
C583 C 0.21588 0.90821 0.92607 0.0
C584 C 0.29629 0.88525 0.90969 0.0
C585 C 0.30775 0.90737 0.9235 0.0
C586 C 0.27405 0.88579 0.88481 0.0
C587 C 0.26289 0.90907 0.87434 0.0
C588 C 0.27487 0.93151 0.88728 0.0
C589 C 0.29729 0.93038 0.91177 0.0
C590 C 0.26207 0.86146 0.87108 0.0
C591 C 0.26351 0.95663 0.87681 0.0
H592 H 0.21443 0.90734 0.74438 0.0
H593 H 0.17594 0.90381 0.87105 0.0
H594 H 0.2732 0.92699 0.78655 0.0
H595 H 0.27244 0.89383 0.78051 0.0
H596 H 0.25755 0.91324 0.73884 0.0
H597 H 0.19672 0.90925 0.94021 0.0
H598 H 0.22489 0.89086 0.93843 0.0
H599 H 0.22691 0.92415 0.93919 0.0
H600 H 0.30437 0.86751 0.91959 0.0
H601 H 0.30608 0.94741 0.92343 0.0
H602 H 0.25855 0.8613 0.83426 0.0
H603 H 0.24375 0.85945 0.88806 0.0
H604 H 0.27382 0.84506 0.87983 0.0
H605 H 0.25976 0.9583 0.84018 0.0
H606 H 0.27576 0.9723 0.88732 0.0
H607 H 0.24533 0.95847 0.89439 0.0
C608 C 0.92536 0.78435 0.2016 0.0
C609 C 0.90989 0.80449 0.19008 0.0
C610 C 0.92505 0.76217 0.17675 0.0
C611 C 0.90868 0.75996 0.13961 0.0
C612 C 0.89304 0.78025 0.12759 0.0
C613 C 0.89384 0.80236 0.15304 0.0
C614 C 0.94221 0.74109 0.19034 0.0
C615 C 0.87515 0.77842 0.08842 0.0
C616 C 0.92484 0.71259 0.04969 0.0
C617 C 0.90926 0.69255 0.06088 0.0
C618 C 0.92489 0.73454 0.07518 0.0
C619 C 0.90868 0.73666 0.11251 0.0
C620 C 0.893 0.71639 0.12432 0.0
C621 C 0.89354 0.69445 0.09836 0.0
C622 C 0.94211 0.75558 0.06182 0.0
C623 C 0.87529 0.71813 0.1637 0.0
H624 H 0.93772 0.78592 0.2304 0.0
H625 H 0.88129 0.81756 0.14488 0.0
H626 H 0.93111 0.72423 0.19852 0.0
H627 H 0.95469 0.73617 0.1619 0.0
H628 H 0.95391 0.74589 0.22001 0.0
H629 H 0.86474 0.79608 0.08273 0.0
H630 H 0.88543 0.77361 0.05719 0.0
H631 H 0.86153 0.76323 0.09466 0.0
H632 H 0.93695 0.71115 0.02056 0.0
H633 H 0.88098 0.67926 0.10633 0.0
H634 H 0.95444 0.76057 0.09047 0.0
H635 H 0.93101 0.77242 0.05327 0.0
H636 H 0.95396 0.75071 0.03243 0.0
H637 H 0.88578 0.72237 0.195 0.0
H638 H 0.86458 0.70061 0.16881 0.0
H639 H 0.86192 0.73365 0.15818 0.0
C640 C 0.78549 0.08068 0.79355 0.0
C641 C 0.80632 0.091 0.81516 0.0
C642 C 0.76272 0.07803 0.81606 0.0
C643 C 0.76062 0.08643 0.861 0.0
C644 C 0.78195 0.09584 0.88371 0.0
C645 C 0.80471 0.09785 0.86049 0.0
C646 C 0.74062 0.06742 0.79096 0.0
C647 C 0.78035 0.10515 0.93158 0.0
C648 C 0.69724 0.10917 0.90071 0.0
C649 C 0.68996 0.08964 0.92894 0.0
C650 C 0.72013 0.1082 0.87784 0.0
C651 C 0.73575 0.08702 0.88306 0.0
C652 C 0.72779 0.06674 0.90996 0.0
C653 C 0.70508 0.06847 0.93316 0.0
C654 C 0.72811 0.13031 0.84983 0.0
C655 C 0.74364 0.04364 0.91549 0.0
H656 H 0.78684 0.07533 0.75842 0.0
H657 H 0.82076 0.10615 0.8769 0.0
H658 H 0.73106 0.05308 0.81163 0.0
H659 H 0.72691 0.08248 0.78412 0.0
H660 H 0.74613 0.0589 0.75834 0.0
H661 H 0.79894 0.11019 0.94545 0.0
H662 H 0.76815 0.12188 0.93284 0.0
H663 H 0.77181 0.09079 0.95357 0.0
H664 H 0.68566 0.12574 0.89851 0.0
H665 H 0.69943 0.0536 0.95573 0.0
H666 H 0.73248 0.12428 0.81499 0.0
H667 H 0.7454 0.1385 0.86418 0.0
H668 H 0.71355 0.14505 0.84837 0.0
H669 H 0.74895 0.03611 0.88204 0.0
H670 H 0.73386 0.0288 0.93471 0.0
H671 H 0.76115 0.04842 0.93346 0.0
C672 C 0.61924 0.71232 0.70101 0.0
C673 C 0.60355 0.69303 0.68634 0.0
C674 C 0.62208 0.73423 0.67579 0.0
C675 C 0.60846 0.73713 0.63532 0.0
C676 C 0.59347 0.71723 0.61922 0.0
C677 C 0.59127 0.69529 0.64492 0.0
C678 C 0.63876 0.75468 0.69358 0.0
C679 C 0.57876 0.71962 0.57605 0.0
C680 C 0.59031 0.80278 0.59937 0.0
C681 C 0.60677 0.80699 0.56365 0.0
C682 C 0.59093 0.7802 0.62341 0.0
C683 C 0.60854 0.76157 0.61154 0.0
C684 C 0.62584 0.76617 0.57659 0.0
C685 C 0.6246 0.78876 0.55286 0.0
C686 C 0.57216 0.77592 0.66047 0.0
C687 C 0.64526 0.74706 0.56358 0.0
H688 H 0.62896 0.71048 0.73289 0.0
H689 H 0.57893 0.68053 0.63376 0.0
H690 H 0.65101 0.76196 0.66651 0.0
H691 H 0.62712 0.77045 0.70562 0.0
H692 H 0.65064 0.74818 0.72193 0.0
H693 H 0.56943 0.70188 0.56654 0.0
H694 H 0.56431 0.7343 0.57999 0.0
H695 H 0.59115 0.72545 0.54807 0.0
H696 H 0.57617 0.81658 0.60714 0.0
H697 H 0.63741 0.79202 0.52523 0.0
H698 H 0.58191 0.77135 0.6924 0.0
H699 H 0.56016 0.75975 0.65183 0.0
H700 H 0.56004 0.79245 0.6662 0.0
H701 H 0.65647 0.74166 0.59347 0.0
H702 H 0.65809 0.75406 0.53707 0.0
H703 H 0.63599 0.72993 0.55097 0.0
C704 C 0.80245 0.41812 0.39235 0.0
C705 C 0.80738 0.40101 0.4267 0.0
C706 C 0.78067 0.41609 0.36633 0.0
C707 C 0.76385 0.39618 0.37453 0.0
C708 C 0.76973 0.37792 0.4073 0.0
C709 C 0.79129 0.3808 0.43358 0.0
C710 C 0.77496 0.43601 0.33187 0.0
C711 C 0.75278 0.35594 0.41582 0.0
C712 C 0.69621 0.40956 0.34485 0.0
C713 C 0.69476 0.39976 0.30129 0.0
C714 C 0.71842 0.40772 0.36982 0.0
C715 C 0.73942 0.39551 0.35081 0.0
C716 C 0.73746 0.38429 0.30788 0.0
C717 C 0.71524 0.38683 0.28341 0.0
C718 C 0.71984 0.41999 0.4155 0.0
C719 C 0.75914 0.37055 0.28687 0.0
H720 H 0.81489 0.43385 0.38763 0.0
H721 H 0.79529 0.36762 0.46036 0.0
H722 H 0.77134 0.42742 0.29853 0.0
H723 H 0.75779 0.44621 0.34181 0.0
H724 H 0.79042 0.44966 0.32835 0.0
H725 H 0.76137 0.34207 0.43894 0.0
H726 H 0.73502 0.3625 0.43089 0.0
H727 H 0.74808 0.34653 0.38363 0.0
H728 H 0.68051 0.41984 0.35842 0.0
H729 H 0.71402 0.37908 0.24975 0.0
H730 H 0.73354 0.43549 0.41447 0.0
H731 H 0.72645 0.40644 0.44112 0.0
H732 H 0.70152 0.42757 0.42647 0.0
H733 H 0.77328 0.38422 0.27525 0.0
H734 H 0.75322 0.35917 0.25748 0.0
H735 H 0.76831 0.35815 0.31182 0.0
C736 C 0.38575 0.19823 0.59577 0.0
C737 C 0.40801 0.1894 0.57714 0.0
C738 C 0.38549 0.22023 0.62142 0.0
C739 C 0.40805 0.23347 0.62834 0.0
C740 C 0.43071 0.22398 0.61082 0.0
C741 C 0.43037 0.20208 0.58504 0.0
C742 C 0.36095 0.22982 0.63947 0.0
C743 C 0.45514 0.23747 0.61778 0.0
C744 C 0.40331 0.30279 0.65408 0.0
C745 C 0.4071 0.30311 0.70079 0.0
C746 C 0.40405 0.28027 0.62988 0.0
C747 C 0.40794 0.25751 0.65316 0.0
C748 C 0.41161 0.25768 0.70024 0.0
C749 C 0.41137 0.28044 0.72334 0.0
C750 C 0.40023 0.28078 0.5795 0.0
C751 C 0.41536 0.23378 0.72637 0.0
H752 H 0.36844 0.18856 0.58855 0.0
H753 H 0.44743 0.19529 0.56972 0.0
H754 H 0.36254 0.2339 0.67598 0.0
H755 H 0.35603 0.24755 0.62233 0.0
H756 H 0.3455 0.21632 0.63424 0.0
H757 H 0.47123 0.22699 0.60366 0.0
H758 H 0.4543 0.25607 0.60143 0.0
H759 H 0.45849 0.24059 0.65421 0.0
H760 H 0.39898 0.31985 0.63636 0.0
H761 H 0.41424 0.28037 0.75947 0.0
H762 H 0.38276 0.27079 0.57075 0.0
H763 H 0.41579 0.27096 0.56237 0.0
H764 H 0.39904 0.3001 0.56609 0.0
H765 H 0.39879 0.22158 0.72228 0.0
H766 H 0.41833 0.23717 0.76289 0.0
H767 H 0.43168 0.22342 0.713 0.0
C768 C 0.29807 0.57363 0.33066 0.0
C769 C 0.30996 0.59663 0.32523 0.0
C770 C 0.27605 0.57176 0.35585 0.0
C771 C 0.26579 0.5935 0.37562 0.0
C772 C 0.27839 0.61662 0.37156 0.0
C773 C 0.30037 0.61792 0.3461 0.0
C774 C 0.26312 0.54682 0.35937 0.0
C775 C 0.26812 0.64015 0.39254 0.0
C776 C 0.19629 0.598 0.39884 0.0
C777 C 0.19543 0.59341 0.44527 0.0
C778 C 0.21902 0.59714 0.37538 0.0
C779 C 0.24143 0.5923 0.39919 0.0
C780 C 0.24067 0.58734 0.44585 0.0
C781 C 0.21769 0.58772 0.46818 0.0
C782 C 0.21915 0.60226 0.32537 0.0
C783 C 0.2642 0.58243 0.47251 0.0
H784 H 0.30547 0.55734 0.31358 0.0
H785 H 0.30952 0.63574 0.34093 0.0
H786 H 0.25889 0.54241 0.39505 0.0
H787 H 0.24508 0.54759 0.34105 0.0
H788 H 0.27453 0.53144 0.34506 0.0
H789 H 0.281 0.65624 0.38866 0.0
H790 H 0.25002 0.645 0.37656 0.0
H791 H 0.26452 0.63717 0.42893 0.0
H792 H 0.17953 0.60327 0.38094 0.0
H793 H 0.21727 0.58411 0.50409 0.0
H794 H 0.22941 0.5873 0.30736 0.0
H795 H 0.229 0.62007 0.31862 0.0
H796 H 0.19999 0.60356 0.3112 0.0
H797 H 0.27455 0.56646 0.45783 0.0
H798 H 0.26031 0.57833 0.50849 0.0
H799 H 0.27664 0.59895 0.47072 0.0
C800 C 0.19996 0.1113 0.32746 0.0
C801 C 0.19317 0.08651 0.3185 0.0
C802 C 0.22253 0.11689 0.34953 0.0
C803 C 0.23814 0.09718 0.36428 0.0
C804 C 0.23147 0.07217 0.35476 0.0
C805 C 0.20944 0.06724 0.33105 0.0
C806 C 0.22949 0.14378 0.35772 0.0
C807 C 0.24731 0.05051 0.37057 0.0
C808 C 0.30695 0.10056 0.39009 0.0
C809 C 0.30683 0.09782 0.43698 0.0
C810 C 0.28457 0.10267 0.36595 0.0
C811 C 0.26163 0.10216 0.38947 0.0
C812 C 0.26163 0.10192 0.43726 0.0
C813 C 0.28436 0.09957 0.46056 0.0
C814 C 0.28548 0.10295 0.31514 0.0
C815 C 0.23759 0.10173 0.46365 0.0
H816 H 0.18733 0.1263 0.31879 0.0
H817 H 0.2045 0.04809 0.3235 0.0
H818 H 0.23134 0.1473 0.39437 0.0
H819 H 0.24789 0.14781 0.34225 0.0
H820 H 0.21549 0.15695 0.34362 0.0
H821 H 0.23899 0.03217 0.36173 0.0
H822 H 0.26617 0.05164 0.35536 0.0
H823 H 0.24968 0.05133 0.40767 0.0
H824 H 0.32449 0.09919 0.37206 0.0
H825 H 0.28444 0.09744 0.49686 0.0
H826 H 0.27189 0.11657 0.30128 0.0
H827 H 0.28031 0.08425 0.30212 0.0
H828 H 0.30439 0.10762 0.30239 0.0
H829 H 0.22419 0.11555 0.44985 0.0
H830 H 0.24075 0.10587 0.49986 0.0
H831 H 0.22882 0.08304 0.46089 0.0
C832 C 0.10946 0.79649 0.68131 0.0
C833 C 0.08504 0.80303 0.69358 0.0
C834 C 0.11426 0.77408 0.65823 0.0
C835 C 0.09405 0.75852 0.64578 0.0
C836 C 0.06965 0.76432 0.66075 0.0
C837 C 0.0656 0.78618 0.68545 0.0
C838 C 0.14069 0.76793 0.64469 0.0
C839 C 0.04745 0.74847 0.64779 0.0
C840 C 0.09148 0.72049 0.53859 0.0
C841 C 0.09185 0.69631 0.556 0.0
C842 C 0.09449 0.74114 0.56721 0.0
C843 C 0.09758 0.73728 0.61419 0.0
C844 C 0.09988 0.71272 0.63116 0.0
C845 C 0.09697 0.69248 0.60176 0.0
C846 C 0.09229 0.76705 0.54769 0.0
C847 C 0.10345 0.70778 0.6808 0.0
H848 H 0.12456 0.80952 0.68694 0.0
H849 H 0.04678 0.7911 0.69549 0.0
H850 H 0.14461 0.74777 0.64948 0.0
H851 H 0.1433 0.77222 0.60847 0.0
H852 H 0.15451 0.77891 0.66432 0.0
H853 H 0.02982 0.75523 0.66325 0.0
H854 H 0.04515 0.74862 0.61063 0.0
H855 H 0.05049 0.72883 0.65816 0.0
H856 H 0.0875 0.72326 0.50313 0.0
H857 H 0.09719 0.67361 0.61497 0.0
H858 H 0.10753 0.77914 0.56042 0.0
H859 H 0.07435 0.77552 0.55844 0.0
H860 H 0.09294 0.76692 0.5103 0.0
H861 H 0.11792 0.72032 0.69498 0.0
H862 H 0.10889 0.68811 0.68749 0.0
H863 H 0.08577 0.71164 0.69891 0.0
C864 C 0.78283 0.89625 0.29195 0.0
C865 C 0.80553 0.8966 0.31503 0.0
C866 C 0.76029 0.89377 0.31554 0.0
C867 C 0.76071 0.89189 0.36318 0.0
C868 C 0.78382 0.88991 0.38601 0.0
C869 C 0.80604 0.89236 0.36155 0.0
C870 C 0.73603 0.89564 0.2899 0.0
C871 C 0.7851 0.88754 0.43661 0.0
C872 C 0.70856 0.92679 0.42138 0.0
C873 C 0.69124 0.9078 0.42954 0.0
C874 C 0.7314 0.9217 0.4005 0.0
C875 C 0.73752 0.89678 0.38913 0.0
C876 C 0.72094 0.87722 0.40043 0.0
C877 C 0.69772 0.88301 0.41981 0.0
C878 C 0.74845 0.9432 0.38881 0.0
C879 C 0.7272 0.85034 0.39037 0.0
H880 H 0.78264 0.89967 0.25596 0.0
H881 H 0.82378 0.89277 0.37919 0.0
H882 H 0.72268 0.88123 0.30154 0.0
H883 H 0.72741 0.91415 0.29626 0.0
H884 H 0.7388 0.89348 0.25304 0.0
H885 H 0.804 0.8819 0.44824 0.0
H886 H 0.78045 0.90576 0.45223 0.0
H887 H 0.77129 0.87371 0.44888 0.0
H888 H 0.70383 0.94588 0.42987 0.0
H889 H 0.68432 0.86824 0.4255 0.0
H890 H 0.75117 0.94404 0.35179 0.0
H891 H 0.76708 0.94039 0.40435 0.0
H892 H 0.74093 0.96144 0.40027 0.0
H893 H 0.72514 0.84687 0.35374 0.0
H894 H 0.71475 0.83726 0.40869 0.0
H895 H 0.74685 0.84615 0.39956 0.0
C896 C 0.89265 0.3114 0.60953 0.0
C897 C 0.89608 0.30864 0.56306 0.0
C898 C 0.89018 0.29047 0.63744 0.0
C899 C 0.89126 0.26637 0.61815 0.0
C900 C 0.89247 0.26369 0.57065 0.0
C901 C 0.89505 0.28499 0.54357 0.0
C902 C 0.88872 0.29417 0.68775 0.0
C903 C 0.89344 0.2383 0.54873 0.0
C904 C 0.92524 0.21518 0.68053 0.0
C905 C 0.90591 0.19827 0.68904 0.0
C906 C 0.92057 0.23779 0.65855 0.0
C907 C 0.89572 0.24429 0.64727 0.0
C908 C 0.87581 0.22859 0.66055 0.0
C909 C 0.88118 0.20543 0.68057 0.0
C910 C 0.94245 0.25375 0.64436 0.0
C911 C 0.84902 0.23559 0.65126 0.0
H912 H 0.89362 0.32987 0.62433 0.0
H913 H 0.89784 0.28308 0.50758 0.0
H914 H 0.87554 0.28073 0.70321 0.0
H915 H 0.90738 0.29083 0.70286 0.0
H916 H 0.88281 0.31344 0.69654 0.0
H917 H 0.89109 0.23945 0.51161 0.0
H918 H 0.91172 0.22943 0.55607 0.0
H919 H 0.8787 0.22599 0.56256 0.0
H920 H 0.94432 0.20982 0.68799 0.0
H921 H 0.86614 0.19244 0.68697 0.0
H922 H 0.94013 0.27309 0.65691 0.0
H923 H 0.94328 0.25469 0.60704 0.0
H924 H 0.96054 0.24634 0.6569 0.0
H925 H 0.84545 0.25519 0.66146 0.0
H926 H 0.83574 0.22322 0.66931 0.0
H927 H 0.84523 0.23423 0.61462 0.0
C928 C 0.30574 0.40296 0.8593 0.0
C929 C 0.30547 0.40601 0.81248 0.0
C930 C 0.28346 0.4003 0.88344 0.0
C931 C 0.26047 0.40077 0.86001 0.0
C932 C 0.26031 0.40181 0.81226 0.0
C933 C 0.28295 0.40452 0.78895 0.0
C934 C 0.28449 0.399 0.93419 0.0
C935 C 0.23618 0.40212 0.78603 0.0
C936 C 0.19845 0.38792 0.9178 0.0
C937 C 0.19024 0.41224 0.92698 0.0
C938 C 0.22183 0.38367 0.89775 0.0
C939 C 0.23684 0.40429 0.88541 0.0
C940 C 0.22899 0.4288 0.8962 0.0
C941 C 0.20604 0.43239 0.91773 0.0
C942 C 0.23001 0.35725 0.88821 0.0
C943 C 0.2443 0.45136 0.88328 0.0
H944 H 0.32334 0.4041 0.87726 0.0
H945 H 0.28295 0.4069 0.75269 0.0
H946 H 0.27865 0.4172 0.94852 0.0
H947 H 0.27143 0.38462 0.94708 0.0
H948 H 0.30359 0.39471 0.94662 0.0
H949 H 0.23931 0.39947 0.74936 0.0
H950 H 0.22342 0.38732 0.7982 0.0
H951 H 0.22667 0.42031 0.79118 0.0
H952 H 0.18622 0.37228 0.92433 0.0
H953 H 0.19991 0.45117 0.92558 0.0
H954 H 0.24947 0.35427 0.89985 0.0
H955 H 0.22967 0.35385 0.85138 0.0
H956 H 0.21774 0.34332 0.90482 0.0
H957 H 0.26317 0.45014 0.89853 0.0
H958 H 0.23549 0.46913 0.89416 0.0
H959 H 0.24675 0.45192 0.84619 0.0
C960 C 0.38121 0.79691 0.06518 0.0
C961 C 0.4024 0.80076 0.03849 0.0
C962 C 0.37787 0.77431 0.08846 0.0
C963 C 0.39652 0.75562 0.08572 0.0
C964 C 0.41669 0.75864 0.05541 0.0
C965 C 0.41908 0.78103 0.03144 0.0
C966 C 0.35558 0.77139 0.11896 0.0
C967 C 0.43717 0.73936 0.05172 0.0
C968 C 0.41442 0.71683 0.18749 0.0
C969 C 0.40567 0.6933 0.17502 0.0
C970 C 0.41009 0.73767 0.15993 0.0
C971 C 0.39708 0.73466 0.11862 0.0
C972 C 0.38717 0.71104 0.10709 0.0
C973 C 0.39158 0.69057 0.13557 0.0
C974 C 0.42076 0.76259 0.17371 0.0
C975 C 0.3732 0.70706 0.06353 0.0
H976 H 0.36828 0.81216 0.07072 0.0
H977 H 0.43539 0.78409 0.01056 0.0
H978 H 0.34799 0.75217 0.11705 0.0
H979 H 0.36135 0.77478 0.15432 0.0
H980 H 0.34052 0.78483 0.1103 0.0
H981 H 0.45017 0.74339 0.02353 0.0
H982 H 0.44807 0.73899 0.08353 0.0
H983 H 0.42917 0.72048 0.0468 0.0
H984 H 0.42549 0.7187 0.21788 0.0
H985 H 0.38515 0.67216 0.12588 0.0
H986 H 0.40614 0.77724 0.17217 0.0
H987 H 0.43577 0.76804 0.14994 0.0
H988 H 0.42865 0.7622 0.20833 0.0
H989 H 0.35884 0.72176 0.05885 0.0
H990 H 0.36403 0.6885 0.06225 0.0
H991 H 0.38636 0.70844 0.03482 0.0
C992 C 0.78033 0.58878 0.95426 0.0
C993 C 0.80289 0.59974 0.94145 0.0
C994 C 0.75872 0.59211 0.92822 0.0
C995 C 0.75988 0.60667 0.8884 0.0
C996 C 0.78216 0.61952 0.8776 0.0
C997 C 0.8035 0.61584 0.90431 0.0
C998 C 0.73529 0.57824 0.9412 0.0
C999 C 0.78407 0.63546 0.83586 0.0
C1000 C 0.71736 0.58225 0.79653 0.0
C1001 C 0.69601 0.59687 0.80281 0.0
C1002 C 0.73877 0.58604 0.82284 0.0
C1003 C 0.73901 0.60542 0.85533 0.0
C1004 C 0.71827 0.62167 0.85889 0.0
C1005 C 0.69682 0.61699 0.83296 0.0
C1006 C 0.76036 0.56808 0.81823 0.0
C1007 C 0.71805 0.64293 0.89219 0.0
H1008 H 0.78007 0.57618 0.98283 0.0
H1009 H 0.82111 0.62408 0.89423 0.0
H1010 H 0.71888 0.59085 0.94003 0.0
H1011 H 0.7319 0.56294 0.91676 0.0
H1012 H 0.73662 0.57002 0.97547 0.0
H1013 H 0.80113 0.64723 0.83611 0.0
H1014 H 0.7847 0.62327 0.80569 0.0
H1015 H 0.76746 0.6477 0.83251 0.0
H1016 H 0.71662 0.56667 0.77328 0.0
H1017 H 0.68021 0.62815 0.83833 0.0
H1018 H 0.76206 0.55678 0.84942 0.0
H1019 H 0.77812 0.5784 0.81392 0.0
H1020 H 0.75797 0.55518 0.78926 0.0
H1021 H 0.71544 0.63542 0.92668 0.0
H1022 H 0.70274 0.65636 0.88514 0.0
H1023 H 0.7361 0.65306 0.89169 0.0
C1024 C 0.61866 0.20436 0.06369 0.0
C1025 C 0.59605 0.20096 0.04072 0.0
C1026 C 0.62341 0.22659 0.08729 0.0
C1027 C 0.60474 0.24529 0.08905 0.0
C1028 C 0.58287 0.24273 0.0626 0.0
C1029 C 0.57914 0.22082 0.03778 0.0
C1030 C 0.64747 0.22914 0.1133 0.0
C1031 C 0.56224 0.26195 0.06406 0.0
C1032 C 0.59284 0.28327 0.19435 0.0
C1033 C 0.59992 0.30707 0.18017 0.0
C1034 C 0.596 0.26255 0.16603 0.0
C1035 C 0.60631 0.26593 0.12245 0.0
C1036 C 0.61502 0.28976 0.10932 0.0
C1037 C 0.61164 0.31012 0.13839 0.0
C1038 C 0.58661 0.23742 0.18149 0.0
C1039 C 0.62632 0.29409 0.06347 0.0
H1040 H 0.63179 0.18903 0.06615 0.0
H1041 H 0.56172 0.21814 0.01976 0.0
H1042 H 0.6549 0.2484 0.11071 0.0
H1043 H 0.64396 0.22525 0.14943 0.0
H1044 H 0.66189 0.21586 0.1011 0.0
H1045 H 0.54728 0.25803 0.03913 0.0
H1046 H 0.55378 0.26216 0.09817 0.0
H1047 H 0.56977 0.28087 0.05756 0.0
H1048 H 0.58362 0.28111 0.22661 0.0
H1049 H 0.61684 0.3287 0.12738 0.0
H1050 H 0.60111 0.22292 0.17639 0.0
H1051 H 0.5701 0.232 0.1611 0.0
H1052 H 0.58117 0.2375 0.21759 0.0
H1053 H 0.64005 0.27925 0.05537 0.0
H1054 H 0.63569 0.31253 0.06121 0.0
H1055 H 0.61145 0.29337 0.03749 0.0
C1056 C 0.02976 0.03157 0.24637 0.0
C1057 C 0.04503 0.04105 0.21211 0.0
C1058 C 0.00915 0.01659 0.23693 0.0
C1059 C 0.00298 0.01124 0.19161 0.0
C1060 C 0.0174 0.02197 0.15639 0.0
C1061 C 0.03854 0.03671 0.16706 0.0
C1062 C 0.9946 0.00571 0.27593 0.0
C1063 C 0.01089 0.01728 0.10774 0.0
C1064 C 0.96544 0.95179 0.19447 0.0
C1065 C 0.94161 0.96149 0.20293 0.0
C1066 C 0.98557 0.96777 0.18459 0.0
C1067 C 0.98163 0.99396 0.18281 0.0
C1068 C 0.95696 0.00333 0.18514 0.0
C1069 C 0.93729 0.98701 0.19541 0.0
C1070 C 0.0115 0.95689 0.18217 0.0
C1071 C 0.95169 0.03097 0.18292 0.0
H1072 H 0.03466 0.03513 0.28127 0.0
H1073 H 0.05036 0.04397 0.14054 0.0
H1074 H 0.97471 0.01132 0.2737 0.0
H1075 H 0.99534 0.98503 0.27465 0.0
H1076 H 0.00195 0.01183 0.30913 0.0
H1077 H 0.02254 0.02855 0.08446 0.0
H1078 H 0.0136 0.99724 0.09976 0.0
H1079 H 0.99094 0.02167 0.10155 0.0
H1080 H 0.96894 0.9321 0.20013 0.0
H1081 H 0.91881 0.99462 0.20129 0.0
H1082 H 0.02095 0.95951 0.21512 0.0
H1083 H 0.02282 0.9665 0.15622 0.0
H1084 H 0.01108 0.9366 0.17454 0.0
H1085 H 0.95571 0.0395 0.2162 0.0
H1086 H 0.93184 0.03476 0.1745 0.0
H1087 H 0.96377 0.04024 0.15765 0.0
C1088 C 0.04138 0.96407 0.81575 0.0
C1089 C 0.03897 0.95463 0.77188 0.0
C1090 C 0.02712 0.98496 0.82976 0.0
C1091 C 0.01066 0.9968 0.79881 0.0
C1092 C 0.00854 0.98734 0.75452 0.0
C1093 C 0.0225 0.96653 0.74192 0.0
C1094 C 0.02954 0.9943 0.87744 0.0
C1095 C 0.99178 0.99942 0.71965 0.0
C1096 C 0.95455 0.03837 0.80972 0.0
C1097 C 0.96419 0.06026 0.79065 0.0
C1098 C 0.97043 0.01813 0.81987 0.0
C1099 C 0.99632 0.01988 0.81019 0.0
C1100 C 0.00638 0.04327 0.79756 0.0
C1101 C 0.99019 0.06317 0.78811 0.0
C1102 C 0.95899 0.99382 0.83481 0.0
C1103 C 0.03376 0.04629 0.7869 0.0
H1104 H 0.05401 0.95498 0.83911 0.0
H1105 H 0.02073 0.95978 0.70765 0.0
H1106 H 0.03665 0.01373 0.87749 0.0
H1107 H 0.01094 0.99463 0.89382 0.0
H1108 H 0.04234 0.98253 0.89789 0.0
H1109 H 0.99237 0.98965 0.68668 0.0
H1110 H 0.97217 0.9995 0.73157 0.0
H1111 H 0.99747 0.01909 0.71419 0.0
H1112 H 0.93451 0.03604 0.81238 0.0
H1113 H 0.99784 0.08029 0.77439 0.0
H1114 H 0.97162 0.98368 0.85814 0.0
H1115 H 0.95585 0.98177 0.80494 0.0
H1116 H 0.94073 0.99686 0.85164 0.0
H1117 H 0.04555 0.0358 0.81104 0.0
H1118 H 0.03945 0.06622 0.78734 0.0
H1119 H 0.03747 0.03876 0.75272 0.0
C1120 C 0.03037 0.4513 0.06378 0.0
C1121 C 0.05273 0.46163 0.04797 0.0
C1122 C 0.0097 0.46675 0.07335 0.0
C1123 C 0.01146 0.49288 0.06598 0.0
C1124 C 0.03511 0.50345 0.05678 0.0
C1125 C 0.0555 0.48769 0.04849 0.0
C1126 C 0.98515 0.45478 0.08529 0.0
C1127 C 0.03815 0.53105 0.04816 0.0
C1128 C 0.95958 0.5209 0.99578 0.0
C1129 C 0.94757 0.53712 0.02584 0.0
C1130 C 0.97994 0.50634 0.00892 0.0
C1131 C 0.98858 0.50748 0.05394 0.0
C1132 C 0.9764 0.52356 0.08502 0.0
C1133 C 0.95618 0.53858 0.07038 0.0
C1134 C 0.99247 0.49009 0.97391 0.0
C1135 C 0.98458 0.52469 0.13357 0.0
H1136 H 0.0281 0.4312 0.06402 0.0
H1137 H 0.07294 0.49583 0.0372 0.0
H1138 H 0.9741 0.46693 0.10804 0.0
H1139 H 0.97409 0.45181 0.05413 0.0
H1140 H 0.98799 0.43636 0.10169 0.0
H1141 H 0.05799 0.5369 0.05067 0.0
H1142 H 0.03144 0.5354 0.01365 0.0
H1143 H 0.02696 0.54227 0.07208 0.0
H1144 H 0.95332 0.51995 0.96107 0.0
H1145 H 0.94687 0.55099 0.09378 0.0
H1146 H 0.99157 0.47022 0.98421 0.0
H1147 H 0.01247 0.49519 0.97083 0.0
H1148 H 0.98368 0.49185 0.94015 0.0
H1149 H 0.98408 0.50572 0.14854 0.0
H1150 H 0.97256 0.53726 0.15393 0.0
H1151 H 0.00413 0.53132 0.13584 0.0
C1152 C 0.45093 0.96804 0.94461 0.0
C1153 C 0.46171 0.9451 0.95646 0.0
C1154 C 0.46598 0.98923 0.93732 0.0
C1155 C 0.49227 0.98738 0.94245 0.0
C1156 C 0.50322 0.96358 0.94866 0.0
C1157 C 0.48782 0.94276 0.95526 0.0
C1158 C 0.45356 0.0141 0.92938 0.0
C1159 C 0.53104 0.96049 0.95471 0.0
C1160 C 0.5367 0.0433 0.93304 0.0
C1161 C 0.53703 0.05161 0.97781 0.0
C1162 C 0.52161 0.02282 0.92023 0.0
C1163 C 0.50728 0.01011 0.95327 0.0
C1164 C 0.50807 0.01833 -0.00146 0.0
C1165 C 0.52262 0.03899 0.00997 0.0
C1166 C 0.52078 0.01494 0.87151 0.0
C1167 C 0.49377 0.00511 0.03542 0.0
H1168 H 0.43079 0.97002 0.94507 0.0
H1169 H 0.49634 0.92497 0.96355 0.0
H1170 H 0.45236 0.02441 0.96171 0.0
H1171 H 0.46459 0.02563 0.90559 0.0
H1172 H 0.43434 0.01183 0.9159 0.0
H1173 H 0.53696 0.94079 0.95004 0.0
H1174 H 0.54153 0.97238 0.9308 0.0
H1175 H 0.53626 0.96633 0.98932 0.0
H1176 H 0.54771 0.05309 0.90807 0.0
H1177 H 0.52305 0.04509 0.04478 0.0
H1178 H 0.50124 0.01546 0.85912 0.0
H1179 H 0.5274 0.99543 0.86808 0.0
H1180 H 0.53241 0.02712 0.84974 0.0
H1181 H 0.47348 0.00575 0.02814 0.0
H1182 H 0.49698 0.01356 0.06909 0.0
H1183 H 0.49937 0.98519 0.03695 0.0
C1184 C 0.44223 0.48399 0.68713 0.0
C1185 C 0.44626 0.45913 0.70027 0.0
C1186 C 0.46229 0.50032 0.67983 0.0
C1187 C 0.487 0.4916 0.68599 0.0
C1188 C 0.49114 0.46572 0.69313 0.0
C1189 C 0.47065 0.44971 0.70008 0.0
C1190 C 0.45684 0.52758 0.67162 0.0
C1191 C 0.51715 0.4555 0.69943 0.0
C1192 C 0.54331 0.53539 0.6752 0.0
C1193 C 0.5468 0.54223 0.7203 0.0
C1194 C 0.52357 0.51925 0.66287 0.0
C1195 C 0.50724 0.50989 0.69652 0.0
C1196 C 0.51033 0.51772 0.74175 0.0
C1197 C 0.53002 0.53368 0.75292 0.0
C1198 C 0.52071 0.51153 0.61432 0.0
C1199 C 0.49333 0.50861 0.77891 0.0
H1200 H 0.42335 0.49132 0.68687 0.0
H1201 H 0.47392 0.43057 0.71033 0.0
H1202 H 0.45819 0.53786 0.70396 0.0
H1203 H 0.47059 0.53584 0.64807 0.0
H1204 H 0.43776 0.5304 0.65781 0.0
H1205 H 0.51767 0.43492 0.69509 0.0
H1206 H 0.53035 0.46416 0.67533 0.0
H1207 H 0.52371 0.45996 0.73397 0.0
H1208 H 0.55653 0.54172 0.6501 0.0
H1209 H 0.53286 0.53893 0.78784 0.0
H1210 H 0.50129 0.51482 0.60277 0.0
H1211 H 0.52441 0.49124 0.61103 0.0
H1212 H 0.53369 0.52177 0.5918 0.0
H1213 H 0.47371 0.51372 0.77128 0.0
H1214 H 0.49832 0.51657 0.81227 0.0
H1215 H 0.49427 0.48798 0.78133 0.0
C1216 C 0.45699 0.5284 0.25556 0.0
C1217 C 0.45588 0.5484 0.28576 0.0
C1218 C 0.47352 0.50849 0.26233 0.0
C1219 C 0.48873 0.50803 0.3014 0.0
C1220 C 0.48622 0.52725 0.33396 0.0
C1221 C 0.47026 0.54767 0.32515 0.0
C1222 C 0.476 0.48898 0.22582 0.0
C1223 C 0.50125 0.52687 0.37692 0.0
C1224 C 0.51833 0.44409 0.3106 0.0
C1225 C 0.54127 0.44807 0.28906 0.0
C1226 C 0.50211 0.46407 0.31992 0.0
C1227 C 0.50849 0.48842 0.30542 0.0
C1228 C 0.53249 0.49276 0.28683 0.0
C1229 C 0.54877 0.47254 0.27964 0.0
C1230 C 0.47723 0.45875 0.34159 0.0
C1231 C 0.53992 0.51816 0.26946 0.0
H1232 H 0.44631 0.52938 0.22452 0.0
H1233 H 0.46979 0.56342 0.34802 0.0
H1234 H 0.49535 0.48894 0.21253 0.0
H1235 H 0.47228 0.47016 0.23972 0.0
H1236 H 0.46297 0.49228 0.19729 0.0
H1237 H 0.49422 0.54068 0.40175 0.0
H1238 H 0.50078 0.50801 0.39235 0.0
H1239 H 0.52103 0.53128 0.36941 0.0
H1240 H 0.51243 0.42515 0.31772 0.0
H1241 H 0.56628 0.47562 0.26221 0.0
H1242 H 0.46252 0.458 0.31531 0.0
H1243 H 0.47213 0.47377 0.3656 0.0
H1244 H 0.47734 0.4406 0.35969 0.0
H1245 H 0.52944 0.52217 0.23799 0.0
H1246 H 0.5602 0.51925 0.26197 0.0
H1247 H 0.53514 0.53295 0.29406 0.0
C1248 C 0.53289 0.95252 0.56754 0.0
C1249 C 0.55598 0.96233 0.55427 0.0
C1250 C 0.5126 0.96852 0.57668 0.0
C1251 C 0.51554 0.99471 0.57173 0.0
C1252 C 0.53979 0.00455 0.56549 0.0
C1253 C 0.55975 0.98821 0.55723 0.0
C1254 C 0.48728 0.95722 0.58507 0.0
C1255 C 0.5441 0.03221 0.55993 0.0
C1256 C 0.46575 0.02502 0.49972 0.0
C1257 C 0.45229 0.03953 0.53055 0.0
C1258 C 0.48622 0.01066 0.51299 0.0
C1259 C 0.49353 0.01035 0.55883 0.0
C1260 C 0.48027 0.02524 0.59042 0.0
C1261 C 0.45983 0.03996 0.57577 0.0
C1262 C 0.49995 0.99574 0.47752 0.0
C1263 C 0.48732 0.02515 0.63958 0.0
H1264 H 0.52983 0.93255 0.56578 0.0
H1265 H 0.57772 0.99591 0.54783 0.0
H1266 H 0.47616 0.96899 0.60834 0.0
H1267 H 0.47696 0.95595 0.55272 0.0
H1268 H 0.48889 0.93813 0.59937 0.0
H1269 H 0.56396 0.03721 0.56588 0.0
H1270 H 0.53919 0.03771 0.52498 0.0
H1271 H 0.53221 0.04318 0.58314 0.0
H1272 H 0.46021 0.02494 0.46457 0.0
H1273 H 0.44939 0.0511 0.59968 0.0
H1274 H 0.49879 0.97554 0.48539 0.0
H1275 H 0.51998 0.00096 0.47711 0.0
H1276 H 0.49223 0.99871 0.44319 0.0
H1277 H 0.48463 0.00616 0.65363 0.0
H1278 H 0.47597 0.03854 0.65948 0.0
H1279 H 0.50733 0.02986 0.64374 0.0
C1280 C 0.95142 0.47291 0.46983 0.0
C1281 C 0.95825 0.44852 0.45831 0.0
C1282 C 0.96787 0.49293 0.46272 0.0
C1283 C 0.99131 0.48854 0.44196 0.0
C1284 C 0.99702 0.46434 0.42578 0.0
C1285 C 0.98068 0.44448 0.43515 0.0
C1286 C 0.96125 0.51819 0.48185 0.0
C1287 C 0.02128 0.45901 0.4019 0.0
C1288 C 0.02805 0.54828 0.42054 0.0
C1289 C 0.04319 0.54909 0.45899 0.0
C1290 C 0.01244 0.52759 0.41231 0.0
C1291 C 0.01115 0.50806 0.44448 0.0
C1292 C 0.02732 0.50848 0.4823 0.0
C1293 C 0.04335 0.52881 0.48863 0.0
C1294 C 0.99636 0.52731 0.37062 0.0
C1295 C 0.02619 0.48856 0.51831 0.0
H1296 H 0.93431 0.47598 0.48852 0.0
H1297 H 0.98606 0.42557 0.42647 0.0
H1298 H 0.97362 0.52232 0.51092 0.0
H1299 H 0.96424 0.53303 0.45644 0.0
H1300 H 0.94157 0.51908 0.49348 0.0
H1301 H 0.0206 0.44103 0.38335 0.0
H1302 H 0.02583 0.4742 0.37787 0.0
H1303 H 0.03665 0.45797 0.42688 0.0
H1304 H 0.0276 0.56423 0.39809 0.0
H1305 H 0.05464 0.52983 0.51894 0.0
H1306 H 0.97677 0.53166 0.3798 0.0
H1307 H 0.99651 0.50852 0.35491 0.0
H1308 H 0.00268 0.54125 0.34541 0.0
H1309 H 0.0077 0.48919 0.53512 0.0
H1310 H 0.04089 0.491 0.54434 0.0
H1311 H 0.02829 0.46977 0.50323 0.0
C1312 C 0.10807 0.91185 0.55851 0.0
C1313 C 0.1047 0.92743 0.59575 0.0
C1314 C 0.11497 0.9217 0.51674 0.0
C1315 C 0.11786 0.9478 0.51216 0.0
C1316 C 0.1159 0.96346 0.55049 0.0
C1317 C 0.1095 0.95297 0.59221 0.0
C1318 C 0.11708 0.90442 0.47678 0.0
C1319 C 0.11836 0.99144 0.54674 0.0
C1320 C 0.14248 0.97482 0.40258 0.0
C1321 C 0.12014 0.98142 0.38116 0.0
C1322 C 0.14214 0.96362 0.44536 0.0
C1323 C 0.11896 0.95884 0.46649 0.0
C1324 C 0.09638 0.96453 0.44393 0.0
C1325 C 0.09728 0.97576 0.40154 0.0
C1326 C 0.1665 0.95789 0.46872 0.0
C1327 C 0.07123 0.95963 0.46522 0.0
H1328 H 0.10418 0.89207 0.56165 0.0
H1329 H 0.10647 0.96492 0.62118 0.0
H1330 H 0.10065 0.90703 0.45446 0.0
H1331 H 0.13398 0.90883 0.45677 0.0
H1332 H 0.11787 0.88451 0.48713 0.0
H1333 H 0.12016 0.00046 0.58027 0.0
H1334 H 0.13476 0.99652 0.52594 0.0
H1335 H 0.10154 0.99914 0.52983 0.0
H1336 H 0.16014 0.97971 0.38716 0.0
H1337 H 0.08002 0.98102 0.38491 0.0
H1338 H 0.16693 0.93807 0.47952 0.0
H1339 H 0.1682 0.96948 0.49951 0.0
H1340 H 0.18288 0.96156 0.44681 0.0
H1341 H 0.06941 0.93959 0.47394 0.0
H1342 H 0.05548 0.96485 0.44272 0.0
H1343 H 0.06951 0.97041 0.49696 0.0
C1344 C 0.97926 0.85629 0.58359 0.0
C1345 C 0.97935 0.8756 0.61526 0.0
C1346 C 0.96746 0.85949 0.54174 0.0
C1347 C 0.95541 0.88243 0.53208 0.0
C1348 C 0.95387 0.90115 0.5656 0.0
C1349 C 0.96615 0.89758 0.60669 0.0
C1350 C 0.96974 0.83923 0.50671 0.0
C1351 C 0.9409 0.92572 0.55685 0.0
C1352 C 0.95288 0.90864 0.41367 0.0
C1353 C 0.9279 0.90452 0.40261 0.0
C1354 C 0.96242 0.9005 0.45515 0.0
C1355 C 0.94643 0.88808 0.48593 0.0
C1356 C 0.92136 0.88318 0.47394 0.0
C1357 C 0.91235 0.89153 0.43225 0.0
C1358 C 0.98936 0.90584 0.46659 0.0
C1359 C 0.90389 0.86984 0.50569 0.0
H1360 H 0.99013 0.83958 0.59004 0.0
H1361 H 0.96674 0.91261 0.63113 0.0
H1362 H 0.95166 0.83617 0.48934 0.0
H1363 H 0.98349 0.84502 0.48083 0.0
H1364 H 0.97609 0.82129 0.5216 0.0
H1365 H 0.93921 0.93719 0.58786 0.0
H1366 H 0.95159 0.93654 0.5315 0.0
H1367 H 0.92196 0.92253 0.54289 0.0
H1368 H 0.96479 0.91848 0.39012 0.0
H1369 H 0.89306 0.88818 0.42294 0.0
H1370 H 0.99887 0.88852 0.47782 0.0
H1371 H 0.99027 0.91935 0.49484 0.0
H1372 H -0.00023 0.91372 0.43755 0.0
H1373 H 0.91234 0.85203 0.51718 0.0
H1374 H 0.88554 0.86578 0.48987 0.0
H1375 H 0.90074 0.88149 0.53604 0.0
C1376 C 0.89845 0.03997 0.59397 0.0
C1377 C 0.89223 0.06459 0.60442 0.0
C1378 C 0.89228 0.02988 0.55185 0.0
C1379 C 0.88024 0.04513 0.51936 0.0
C1380 C 0.87221 0.06941 0.53131 0.0
C1381 C 0.87834 0.07889 0.57394 0.0
C1382 C 0.90063 0.00368 0.54081 0.0
C1383 C 0.85918 0.08616 0.49785 0.0
C1384 C 0.90362 0.03016 0.4026 0.0
C1385 C 0.88512 0.01388 0.3869 0.0
C1386 C 0.90139 0.0418 0.44461 0.0
C1387 C 0.88007 0.03712 0.47149 0.0
C1388 C 0.86029 0.02255 0.45407 0.0
C1389 C 0.86304 0.01108 0.41186 0.0
C1390 C 0.92277 0.05759 0.46162 0.0
C1391 C 0.83708 0.01746 0.4813 0.0
H1392 H 0.90935 0.02911 0.61773 0.0
H1393 H 0.87381 0.09807 0.58225 0.0
H1394 H 0.88544 0.99323 0.52383 0.0
H1395 H 0.9167 0.00443 0.51729 0.0
H1396 H 0.90645 0.9932 0.57136 0.0
H1397 H 0.85015 0.10236 0.51456 0.0
H1398 H 0.87302 0.09333 0.47328 0.0
H1399 H 0.84484 0.07568 0.47866 0.0
H1400 H 0.92058 0.0327 0.38325 0.0
H1401 H 0.84851 0.99869 0.3998 0.0
H1402 H 0.93224 0.04782 0.48984 0.0
H1403 H 0.91576 0.07565 0.47474 0.0
H1404 H 0.93681 0.0614 0.435 0.0
H1405 H 0.84126 0.003 0.50696 0.0
H1406 H 0.82154 0.01059 0.45982 0.0
H1407 H 0.83081 0.03446 0.49937 0.0
C1408 C 0.00292 0.13507 0.56749 0.0
C1409 C 0.01353 0.12194 0.60369 0.0
C1410 C 0.01445 0.1355 0.52529 0.0
C1411 C 0.03721 0.1226 0.51935 0.0
C1412 C 0.04942 0.11181 0.55701 0.0
C1413 C 0.03737 0.11159 0.59896 0.0
C1414 C 0.00083 0.1473 0.48614 0.0
C1415 C 0.07395 0.09823 0.55204 0.0
C1416 C 0.0458 0.0859 0.41212 0.0
C1417 C 0.06317 0.10046 0.38885 0.0
C1418 C 0.0366 0.09347 0.45391 0.0
C1419 C 0.04542 0.11595 0.47326 0.0
C1420 C 0.06228 0.13125 0.44912 0.0
C1421 C 0.07081 0.1234 0.4067 0.0
C1422 C 0.01808 0.07692 0.47798 0.0
C1423 C 0.07202 0.15529 0.46885 0.0
H1424 H 0.9847 0.1436 0.5712 0.0
H1425 H 0.04578 0.10166 0.62694 0.0
H1426 H 0.01394 0.15719 0.46349 0.0
H1427 H 0.99155 0.13247 0.46612 0.0
H1428 H 0.9863 0.16066 0.49763 0.0
H1429 H 0.08306 0.09492 0.58513 0.0
H1430 H 0.07064 0.07989 0.53577 0.0
H1431 H 0.08691 0.1089 0.53022 0.0
H1432 H 0.03982 0.06823 0.39796 0.0
H1433 H 0.08443 0.13452 0.38866 0.0
H1434 H 0.00117 0.08775 0.48712 0.0
H1435 H 0.02643 0.0698 0.50969 0.0
H1436 H 0.01226 0.0607 0.45719 0.0
H1437 H 0.05628 0.16784 0.47748 0.0
H1438 H 0.08474 0.16522 0.4454 0.0
H1439 H 0.08226 0.15134 0.50056 0.0
C1440 C 0.07771 0.58399 0.68621 0.0
C1441 C 0.09167 0.57898 0.64738 0.0
C1442 C 0.08414 0.57318 0.72752 0.0
C1443 C 0.10482 0.55677 0.72977 0.0
C1444 C 0.11962 0.55248 0.69113 0.0
C1445 C 0.11293 0.56378 0.65035 0.0
C1446 C 0.06793 0.57818 0.76812 0.0
C1447 C 0.14148 0.53467 0.69201 0.0
C1448 C 0.12504 0.53501 0.84595 0.0
C1449 C 0.11129 0.51289 0.8499 0.0
C1450 C 0.12375 0.54935 0.80637 0.0
C1451 C 0.10837 0.54125 0.77041 0.0
C1452 C 0.09503 0.51863 0.77388 0.0
C1453 C 0.09661 0.50482 0.81351 0.0
C1454 C 0.13842 0.57329 0.80321 0.0
C1455 C 0.07859 0.5092 0.73609 0.0
H1456 H 0.06145 0.596 0.68419 0.0
H1457 H 0.12383 0.5599 0.62042 0.0
H1458 H 0.05711 0.56115 0.77648 0.0
H1459 H 0.07963 0.58277 0.79783 0.0
H1460 H 0.05457 0.59371 0.76223 0.0
H1461 H 0.15333 0.53647 0.6615 0.0
H1462 H 0.15322 0.53785 0.72225 0.0
H1463 H 0.13446 0.51522 0.69374 0.0
H1464 H 0.13662 0.54117 0.87375 0.0
H1465 H 0.08605 0.48763 0.81592 0.0
H1466 H 0.1254 0.58932 0.8002 0.0
H1467 H 0.15022 0.57319 0.77253 0.0
H1468 H 0.15058 0.57626 0.83305 0.0
H1469 H 0.0629 0.52237 0.73053 0.0
H1470 H 0.07069 0.49045 0.74327 0.0
H1471 H 0.08933 0.50814 0.70424 0.0
C1472 C 0.53381 0.89698 0.14642 0.0
C1473 C 0.51192 0.88378 0.13684 0.0
C1474 C 0.54416 0.89656 0.18981 0.0
C1475 C 0.53186 0.88318 0.22446 0.0
C1476 C 0.51086 0.86831 0.2141 0.0
C1477 C 0.50135 0.86849 0.17017 0.0
C1478 C 0.56712 0.91199 0.19931 0.0
C1479 C 0.4969 0.8542 0.25017 0.0
C1480 C 0.56442 0.87883 0.33776 0.0
C1481 C 0.5559 0.90073 0.35837 0.0
C1482 C 0.55625 0.87231 0.2944 0.0
C1483 C 0.53873 0.88779 0.27212 0.0
C1484 C 0.52871 0.90889 0.29444 0.0
C1485 C 0.53779 0.91535 0.33706 0.0
C1486 C 0.56762 0.84995 0.27133 0.0
C1487 C 0.50934 0.92541 0.27243 0.0
H1488 H 0.54215 0.90861 0.12062 0.0
H1489 H 0.48438 0.85822 0.16307 0.0
H1490 H 0.56173 0.929 0.21827 0.0
H1491 H 0.58052 0.90138 0.22045 0.0
H1492 H 0.57666 0.91786 0.16785 0.0
H1493 H 0.48366 0.84044 0.23563 0.0
H1494 H 0.50997 0.84429 0.27297 0.0
H1495 H 0.48611 0.86763 0.27092 0.0
H1496 H 0.57877 0.86779 0.35415 0.0
H1497 H 0.53132 0.93232 0.3532 0.0
H1498 H 0.57981 0.85636 0.24345 0.0
H1499 H 0.5529 0.83804 0.25627 0.0
H1500 H 0.57898 0.83844 0.29481 0.0
H1501 H 0.51784 0.93546 0.24361 0.0
H1502 H 0.50159 0.93942 0.29618 0.0
H1503 H 0.49375 0.91399 0.25902 0.0
C1504 C 0.90142 0.46115 0.86127 0.0
C1505 C 0.88435 0.48075 0.8668 0.0
C1506 C 0.90307 0.44827 0.82032 0.0
C1507 C 0.88726 0.45521 0.78419 0.0
C1508 C 0.86843 0.47334 0.79095 0.0
C1509 C 0.8671 0.48582 0.83235 0.0
C1510 C 0.92307 0.42866 0.81461 0.0
C1511 C 0.85112 0.48115 0.75333 0.0
C1512 C 0.91687 0.44855 0.66908 0.0
C1513 C 0.90513 0.42712 0.65287 0.0
C1514 C 0.91048 0.45838 0.71124 0.0
C1515 C 0.89261 0.44585 0.7382 0.0
C1516 C 0.8807 0.42413 0.72173 0.0
C1517 C 0.88688 0.41519 0.67877 0.0
C1518 C 0.92297 0.48209 0.72702 0.0
C1519 C 0.86198 0.41001 0.74985 0.0
H1520 H 0.9146 0.45689 0.88791 0.0
H1521 H 0.85362 0.50074 0.83651 0.0
H1522 H 0.91537 0.41187 0.79776 0.0
H1523 H 0.93817 0.4361 0.79286 0.0
H1524 H 0.93141 0.423 0.84733 0.0
H1525 H 0.83536 0.49274 0.76575 0.0
H1526 H 0.86174 0.4922 0.72821 0.0
H1527 H 0.84344 0.46463 0.73567 0.0
H1528 H 0.9308 0.45775 0.64848 0.0
H1529 H 0.87794 0.39853 0.6658 0.0
H1530 H 0.93438 0.4782 0.75742 0.0
H1531 H 0.90867 0.49612 0.73654 0.0
H1532 H 0.93524 0.49033 0.70082 0.0
H1533 H 0.8714 0.40222 0.78004 0.0
H1534 H 0.85319 0.39444 0.73092 0.0
H1535 H 0.84709 0.42273 0.76197 0.0
C1536 C 0.4912 0.13414 0.17148 0.0
C1537 C 0.48245 0.12028 0.13456 0.0
C1538 C 0.47913 0.13303 0.21318 0.0
C1539 C 0.45739 0.11833 0.21759 0.0
C1540 C 0.44689 0.10665 0.17922 0.0
C1541 C 0.45972 0.10755 0.13811 0.0
C1542 C 0.49125 0.14538 0.25336 0.0
C1543 C 0.42323 0.0915 0.18243 0.0
C1544 C 0.44696 0.083 0.32608 0.0
C1545 C 0.42943 0.09809 0.34776 0.0
C1546 C 0.45679 0.08991 0.28431 0.0
C1547 C 0.44801 0.11191 0.26305 0.0
C1548 C 0.43029 0.12727 0.28498 0.0
C1549 C 0.42151 0.12037 0.32771 0.0
C1550 C 0.47641 0.07352 0.2628 0.0
C1551 C 0.42012 0.15049 0.26277 0.0
H1552 H 0.50864 0.14428 0.16899 0.0
H1553 H 0.45267 0.09711 0.10954 0.0
H1554 H 0.47716 0.15452 0.27513 0.0
H1555 H 0.50081 0.13095 0.27393 0.0
H1556 H 0.5053 0.15951 0.2431 0.0
H1557 H 0.41529 0.08732 0.14869 0.0
H1558 H 0.42725 0.07356 0.19964 0.0
H1559 H 0.40899 0.10151 0.20267 0.0
H1560 H 0.45305 0.06582 0.34202 0.0
H1561 H 0.40771 0.13182 0.34466 0.0
H1562 H 0.49301 0.0848 0.25368 0.0
H1563 H 0.46896 0.06526 0.2313 0.0
H1564 H 0.48247 0.05811 0.28535 0.0
H1565 H 0.43553 0.16353 0.25468 0.0
H1566 H 0.40636 0.16035 0.28437 0.0
H1567 H 0.41095 0.14548 0.23049 0.0
C1568 C 0.60758 0.49434 0.90797 0.0
C1569 C 0.62304 0.48139 0.87783 0.0
C1570 C 0.60074 0.48379 0.94939 0.0
C1571 C 0.60957 0.45973 0.96094 0.0
C1572 C 0.62515 0.44654 0.93068 0.0
C1573 C 0.6317 0.45754 0.88947 0.0
C1574 C 0.58421 0.49848 0.98092 0.0
C1575 C 0.63499 0.42087 0.94193 0.0
C1576 C 0.61174 0.44269 0.08482 0.0
C1577 C 0.58997 0.4284 0.08973 0.0
C1578 C 0.61836 0.45289 0.04306 0.0
C1579 C 0.60293 0.44861 0.00517 0.0
C1580 C 0.58103 0.43404 0.00971 0.0
C1581 C 0.57473 0.42422 0.05203 0.0
C1582 C 0.64181 0.46839 0.03961 0.0
C1583 C 0.56422 0.42891 0.96994 0.0
H1584 H 0.60081 0.51279 0.89928 0.0
H1585 H 0.64367 0.44743 0.86641 0.0
H1586 H 0.56698 0.48777 0.9883 0.0
H1587 H 0.59396 0.50154 0.01343 0.0
H1588 H 0.57882 0.51693 0.9668 0.0
H1589 H 0.64675 0.41303 0.91457 0.0
H1590 H 0.64627 0.42163 0.97325 0.0
H1591 H 0.61921 0.40794 0.94823 0.0
H1592 H 0.62363 0.44604 0.11374 0.0
H1593 H 0.55797 0.41306 0.05545 0.0
H1594 H 0.63699 0.48767 0.02907 0.0
H1595 H 0.65438 0.46055 0.01353 0.0
H1596 H 0.65217 0.46931 0.072 0.0
H1597 H 0.55592 0.44664 0.95778 0.0
H1598 H 0.54886 0.41581 0.97843 0.0
H1599 H 0.57518 0.4209 0.94173 0.0
C1600 C 0.45141 0.42138 0.91812 0.0
C1601 C 0.43059 0.40861 0.90171 0.0
C1602 C 0.46167 0.41528 0.96016 0.0
C1603 C 0.45006 0.39675 0.98701 0.0
C1604 C 0.42907 0.38368 0.97023 0.0
C1605 C 0.41982 0.38951 0.92726 0.0
C1606 C 0.48469 0.42893 0.97612 0.0
C1607 C 0.41585 0.36427 -0.00173 0.0
C1608 C 0.48937 0.37284 0.08399 0.0
C1609 C 0.48295 0.3898 0.11807 0.0
C1610 C 0.47789 0.37397 0.04155 0.0
C1611 C 0.45926 0.39216 0.03347 0.0
C1612 C 0.4512 0.40783 0.06899 0.0
C1613 C 0.46329 0.40658 0.11082 0.0
C1614 C 0.48725 0.35714 0.00444 0.0
C1615 C 0.43097 0.42709 0.06197 0.0
H1616 H 0.45972 0.43604 0.89791 0.0
H1617 H 0.40356 0.37982 0.91431 0.0
H1618 H 0.47995 0.4408 0.00549 0.0
H1619 H 0.49912 0.41541 0.98729 0.0
H1620 H 0.49281 0.44099 0.94945 0.0
H1621 H 0.40071 0.35479 0.97929 0.0
H1622 H 0.42928 0.34999 0.01035 0.0
H1623 H 0.40764 0.37327 0.02848 0.0
H1624 H 0.50463 0.35986 0.08927 0.0
H1625 H 0.45816 0.41961 0.13717 0.0
H1626 H 0.49863 0.36827 0.98055 0.0
H1627 H 0.47149 0.34905 0.98514 0.0
H1628 H 0.49899 0.34169 0.01767 0.0
H1629 H 0.43807 0.44227 0.04004 0.0
H1630 H 0.42466 0.43548 0.09422 0.0
H1631 H 0.41464 0.41864 0.04477 0.0
C1632 C 0.37335 0.51172 0.91135 0.0
C1633 C 0.39391 0.51593 0.88307 0.0
C1634 C 0.37216 0.52258 0.95422 0.0
C1635 C 0.39173 0.53838 0.96855 0.0
C1636 C 0.41149 0.54425 0.93876 0.0
C1637 C 0.41242 0.53281 0.8964 0.0
C1638 C 0.35098 0.51564 0.98529 0.0
C1639 C 0.4325 0.56139 0.95267 0.0
C1640 C 0.38639 0.5795 0.07173 0.0
C1641 C 0.40177 0.56663 0.10188 0.0
C1642 C 0.38207 0.57006 0.0284 0.0
C1643 C 0.39295 0.54701 0.01588 0.0
C1644 C 0.40709 0.53318 0.04763 0.0
C1645 C 0.41175 0.54346 0.09014 0.0
C1646 C 0.36729 0.58549 0.99521 0.0
C1647 C 0.41829 0.50812 0.03602 0.0
H1648 H 0.35897 0.49863 0.90132 0.0
H1649 H 0.42826 0.53622 0.87456 0.0
H1650 H 0.35819 0.50353 0.0127 0.0
H1651 H 0.34291 0.5325 0.00129 0.0
H1652 H 0.33587 0.50545 0.96741 0.0
H1653 H 0.44483 0.56627 0.92394 0.0
H1654 H 0.42494 0.57885 0.96739 0.0
H1655 H 0.444 0.55217 0.97895 0.0
H1656 H 0.37898 0.5976 0.08116 0.0
H1657 H 0.42364 0.53367 0.11389 0.0
H1658 H 0.35288 0.57393 0.97841 0.0
H1659 H 0.37997 0.59255 0.96858 0.0
H1660 H 0.35804 0.6017 0.01152 0.0
H1661 H 0.40398 0.49581 0.02067 0.0
H1662 H 0.42623 0.49858 0.06603 0.0
H1663 H 0.43339 0.51062 0.0109 0.0
C1664 C 0.53505 0.63702 0.10105 0.0
C1665 C 0.51895 0.61827 0.11625 0.0
C1666 C 0.54784 0.63433 0.05997 0.0
C1667 C 0.54448 0.61232 0.03418 0.0
C1668 C 0.52876 0.59311 0.05022 0.0
C1669 C 0.51623 0.59634 0.09099 0.0
C1670 C 0.56438 0.6552 0.0436 0.0
C1671 C 0.52471 0.56931 0.02388 0.0
C1672 C 0.55534 0.60906 0.90835 0.0
C1673 C 0.5772 0.59476 0.90655 0.0
C1674 C 0.54494 0.61596 0.94987 0.0
C1675 C 0.55719 0.60895 0.99025 0.0
C1676 C 0.58004 0.59575 0.98839 0.0
C1677 C 0.58958 0.58845 0.94651 0.0
C1678 C 0.52016 0.6294 0.9505 0.0
C1679 C 0.59384 0.58836 0.0307 0.0
H1680 H 0.53693 0.65408 0.12035 0.0
H1681 H 0.50391 0.58171 0.10286 0.0
H1682 H 0.58322 0.64791 0.03538 0.0
H1683 H 0.55651 0.66325 0.01222 0.0
H1684 H 0.56627 0.67035 0.06888 0.0
H1685 H 0.51192 0.55618 0.04133 0.0
H1686 H 0.51672 0.57373 0.99032 0.0
H1687 H 0.54278 0.55971 0.01822 0.0
H1688 H 0.54577 0.61391 0.87735 0.0
H1689 H 0.60672 0.5777 0.94501 0.0
H1690 H 0.52098 0.6458 0.97322 0.0
H1691 H 0.50555 0.61671 0.96375 0.0
H1692 H 0.51441 0.63576 0.91642 0.0
H1693 H 0.5955 0.60454 0.0538 0.0
H1694 H 0.61283 0.58109 0.02338 0.0
H1695 H 0.58321 0.57365 0.04864 0.0
C1696 C 0.60225 0.09236 0.19297 0.0
C1697 C 0.60149 0.0782 0.15343 0.0
C1698 C 0.60951 0.08153 0.23387 0.0
C1699 C 0.61516 0.05575 0.23532 0.0
C1700 C 0.61544 0.04162 0.19497 0.0
C1701 C 0.60894 0.05319 0.15421 0.0
C1702 C 0.60965 0.09732 0.27595 0.0
C1703 C 0.62068 0.01394 0.19526 0.0
C1704 C 0.64126 0.02628 0.34211 0.0
C1705 C 0.61942 0.01692 0.3617 0.0
C1706 C 0.64028 0.03926 0.30096 0.0
C1707 C 0.61693 0.04297 0.27952 0.0
C1708 C 0.5948 0.03427 0.30017 0.0
C1709 C 0.59635 0.0214 0.34097 0.0
C1710 C 0.66421 0.04826 0.27971 0.0
C1711 C 0.5695 0.03786 0.2785 0.0
H1712 H 0.59671 0.11182 0.192 0.0
H1713 H 0.60819 0.04231 0.12344 0.0
H1714 H 0.59355 0.09217 0.29748 0.0
H1715 H 0.62688 0.09388 0.29578 0.0
H1716 H 0.60838 0.11756 0.26817 0.0
H1717 H 0.62344 0.00643 0.16075 0.0
H1718 H 0.63748 0.0097 0.21572 0.0
H1719 H 0.6047 0.00402 0.21087 0.0
H1720 H 0.65915 0.02247 0.35779 0.0
H1721 H 0.57943 0.01418 0.35618 0.0
H1722 H 0.66281 0.06844 0.2717 0.0
H1723 H 0.66737 0.03827 0.2475 0.0
H1724 H 0.68064 0.04519 0.30188 0.0
H1725 H 0.56577 0.05802 0.27329 0.0
H1726 H 0.55414 0.02994 0.29913 0.0
H1727 H 0.56918 0.0288 0.24492 0.0
C1728 C 0.00282 0.36421 0.66443 0.0
C1729 C 0.01231 0.3818 0.63383 0.0
C1730 C 0.01245 0.36236 0.70825 0.0
C1731 C 0.03236 0.37809 0.72133 0.0
C1732 C 0.04379 0.39381 0.68898 0.0
C1733 C 0.03346 0.39566 0.64568 0.0
C1734 C 0.9996 0.34549 0.74167 0.0
C1735 C 0.06555 0.41037 0.70121 0.0
C1736 C 0.03497 0.40718 0.83702 0.0
C1737 C 0.05468 0.39408 0.85695 0.0
C1738 C 0.02639 0.40089 0.79398 0.0
C1739 C 0.03837 0.38149 0.76982 0.0
C1740 C 0.05737 0.36724 0.79088 0.0
C1741 C 0.06515 0.37357 0.83466 0.0
C1742 C 0.00562 0.41617 0.77327 0.0
C1743 C 0.07068 0.34659 0.76606 0.0
H1744 H 0.98653 0.35329 0.65554 0.0
H1745 H 0.04108 0.40901 0.62197 0.0
H1746 H 0.01335 0.33586 0.76354 0.0
H1747 H 0.98742 0.35691 0.76378 0.0
H1748 H 0.98784 0.33126 0.72467 0.0
H1749 H 0.07486 0.41815 0.67089 0.0
H1750 H 0.05882 0.42615 0.72214 0.0
H1751 H 0.07954 0.39991 0.72131 0.0
H1752 H 0.02703 0.42312 0.85437 0.0
H1753 H 0.0807 0.36375 0.84996 0.0
H1754 H 0.99123 0.4038 0.75835 0.0
H1755 H 0.01325 0.42791 0.74575 0.0
H1756 H 0.99648 0.42861 0.79825 0.0
H1757 H 0.05702 0.33348 0.75102 0.0
H1758 H 0.08352 0.33597 0.78836 0.0
H1759 H 0.08169 0.35466 0.73799 0.0
C1760 C 0.35859 0.96634 0.34435 0.0
C1761 C 0.37597 0.98417 0.35864 0.0
C1762 C 0.36129 0.95447 0.30237 0.0
C1763 C 0.38206 0.96034 0.27479 0.0
C1764 C 0.39964 0.97828 0.28929 0.0
C1765 C 0.39631 0.99001 0.33086 0.0
C1766 C 0.34206 0.93563 0.28759 0.0
C1767 C 0.42218 0.98494 0.26116 0.0
C1768 C 0.40931 0.91541 0.18995 0.0
C1769 C 0.40118 0.92576 0.14914 0.0
C1770 C 0.40187 0.92561 0.23123 0.0
C1771 C 0.38643 0.94703 0.23166 0.0
C1772 C 0.37766 0.95723 0.19055 0.0
C1773 C 0.38491 0.94624 0.14967 0.0
C1774 C 0.41141 0.91405 0.27435 0.0
C1775 C 0.36161 0.98039 0.18968 0.0
H1776 H 0.34272 0.96202 0.36556 0.0
H1777 H 0.40992 0.00369 0.34183 0.0
H1778 H 0.33425 0.941 0.25435 0.0
H1779 H 0.35098 0.91708 0.28348 0.0
H1780 H 0.32649 0.93391 0.31206 0.0
H1781 H 0.4336 -6e-05 0.2767 0.0
H1782 H 0.43416 0.96824 0.2566 0.0
H1783 H 0.41621 0.99119 0.22719 0.0
H1784 H 0.4216 0.89933 0.18962 0.0
H1785 H 0.37862 0.95424 0.11809 0.0
H1786 H 0.39578 0.91089 0.29815 0.0
H1787 H 0.42472 0.92699 0.29089 0.0
H1788 H 0.42106 0.896 0.26838 0.0
H1789 H 0.34514 0.97795 0.21184 0.0
H1790 H 0.35505 0.98503 0.15517 0.0
H1791 H 0.3724 0.99647 0.2029 0.0
C1792 C 0.96764 0.58765 0.64088 0.0
C1793 C 0.98381 0.60694 0.62833 0.0
C1794 C 0.95583 0.58779 0.68293 0.0
C1795 C 0.96049 0.60761 0.71332 0.0
C1796 C 0.97583 0.62779 0.7 0.0
C1797 C 0.98721 0.62729 0.65743 0.0
C1798 C 0.93938 0.56603 0.69573 0.0
C1799 C 0.98152 0.64908 0.73165 0.0
C1800 C 0.91538 0.60982 0.81136 0.0
C1801 C 0.92821 0.59553 0.84325 0.0
C1802 C 0.92632 0.61531 0.7696 0.0
C1803 C 0.9505 0.60608 0.75986 0.0
C1804 C 0.964 0.5928 0.79325 0.0
C1805 C 0.95257 0.58757 0.83463 0.0
C1806 C 0.91153 0.62979 0.7351 0.0
C1807 C 0.98997 0.58296 0.78445 0.0
H1808 H 0.96497 0.57191 0.61846 0.0
H1809 H -4e-05 0.64213 0.64814 0.0
H1810 H 0.94811 0.55548 0.72379 0.0
H1811 H 0.92099 0.57283 0.70775 0.0
H1812 H 0.93628 0.55302 0.66717 0.0
H1813 H 0.99072 0.6649 0.71412 0.0
H1814 H 0.96422 0.65595 0.74799 0.0
H1815 H 0.99415 0.64241 0.75874 0.0
H1816 H 0.89652 0.61598 0.81855 0.0
H1817 H 0.96235 0.57657 0.85975 0.0
H1818 H 0.90613 0.6172 0.70708 0.0
H1819 H 0.92305 0.64496 0.72053 0.0
H1820 H 0.89431 0.63806 0.74964 0.0
H1821 H 0.98901 0.56748 0.75971 0.0
H1822 H 0.99903 0.57587 0.8156 0.0
H1823 H 0.00191 0.59774 0.76971 0.0
loop_
_geom_bond_atom_site_label_1
_geom_bond_atom_site_label_2
_geom_bond_distance
_geom_bond_site_symmetry_2
_ccdc_geom_bond_type
Co0 O3 1.970 . S
Co0 N17 1.989 . S
Co0 O25 1.967 . S
Co0 O32 1.920 . S
Co1 O4 1.966 . S
Co1 N10 2.022 . S
Co1 N18 1.993 . S
Co1 O26 1.941 . S
C2 O3 1.258 . S
C2 O4 1.263 . S
O3 Co0 1.970 . S
O3 C2 1.258 . S
O4 Co1 1.966 . S
O4 C2 1.263 . S
C5 O6 1.234 1_545 S
C5 O32 1.289 . S
O6 C5 1.234 1_565 S
C7 C9 1.400 . S
C7 N10 1.351 . S
C7 C12 1.501 . S
C8 C9 1.387 . S
C8 N11 1.341 . S
C9 C7 1.400 . S
C9 C8 1.387 . S
N10 Co1 2.022 . S
N10 C7 1.351 . S
N10 N11 1.365 . S
N11 C8 1.341 . S
N11 N10 1.365 . S
N11 H31 0.862 . S
C12 C7 1.501 . S
C12 H13 0.961 . S
C12 H14 0.961 . S
C12 H15 0.960 . S
H13 C12 0.961 . S
H14 C12 0.961 . S
H15 C12 0.960 . S
C16 N17 1.342 . S
C16 C20 1.401 . S
C16 C21 1.499 . S
N17 Co0 1.989 . S
N17 C16 1.342 . S
N17 N18 1.388 . S
N18 Co1 1.993 . S
N18 N17 1.388 . S
N18 C19 1.346 . S
C19 N18 1.346 . S
C19 C20 1.396 . S
C19 C29 1.510 . S
C20 C16 1.401 . S
C20 C19 1.396 . S
C21 C16 1.499 . S
C21 H22 0.959 . S
C21 H23 0.960 . S
C21 H24 0.961 . S
H22 C21 0.959 . S
H23 C21 0.960 . S
H24 C21 0.961 . S
O25 Co0 1.967 . S
O25 C33 1.258 . S
O26 Co1 1.941 . S
O26 C33 1.266 . S
H27 C29 0.959 . S
H28 C29 0.961 . S
C29 C19 1.510 . S
C29 H27 0.959 . S
C29 H28 0.961 . S
C29 H30 0.960 . S
H30 C29 0.960 . S
H31 N11 0.862 . S
O32 Co0 1.920 . S
O32 C5 1.289 . S
C33 O25 1.258 . S
C33 O26 1.266 . S
Co34 O37 1.970 . S
Co34 N51 1.989 . S
Co34 O59 1.967 . S
Co34 O66 1.920 . S
Co35 O38 1.966 . S
Co35 N44 2.022 . S
Co35 N52 1.993 . S
Co35 O60 1.941 . S
C36 O37 1.258 . S
C36 O38 1.263 . S
O37 Co34 1.970 . S
O37 C36 1.258 . S
O38 Co35 1.966 . S
O38 C36 1.263 . S
C39 O40 1.234 1_455 S
C39 O66 1.289 . S
O40 C39 1.234 1_655 S
C41 C43 1.400 . S
C41 N44 1.351 . S
C41 C46 1.501 . S
C42 C43 1.387 . S
C42 N45 1.341 . S
C43 C41 1.400 . S
C43 C42 1.387 . S
N44 Co35 2.022 . S
N44 C41 1.351 . S
N44 N45 1.365 . S
N45 C42 1.341 . S
N45 N44 1.365 . S
N45 H65 0.862 . S
C46 C41 1.501 . S
C46 H47 0.961 . S
C46 H48 0.961 . S
C46 H49 0.960 . S
H47 C46 0.961 . S
H48 C46 0.961 . S
H49 C46 0.960 . S
C50 N51 1.342 . S
C50 C54 1.401 . S
C50 C55 1.499 . S
N51 Co34 1.989 . S
N51 C50 1.342 . S
N51 N52 1.388 . S
N52 Co35 1.993 . S
N52 N51 1.388 . S
N52 C53 1.346 . S
C53 N52 1.346 . S
C53 C54 1.396 . S
C53 C63 1.510 . S
C54 C50 1.401 . S
C54 C53 1.396 . S
C55 C50 1.499 . S
C55 H56 0.959 . S
C55 H57 0.960 . S
C55 H58 0.961 . S
H56 C55 0.959 . S
H57 C55 0.960 . S
H58 C55 0.961 . S
O59 Co34 1.967 . S
O59 C67 1.258 . S
O60 Co35 1.941 . S
O60 C67 1.266 . S
H61 C63 0.959 . S
H62 C63 0.961 . S
C63 C53 1.510 . S
C63 H61 0.959 . S
C63 H62 0.961 . S
C63 H64 0.960 . S
H64 C63 0.960 . S
H65 N45 0.862 . S
O66 Co34 1.920 . S
O66 C39 1.289 . S
C67 O59 1.258 . S
C67 O60 1.266 . S
Co68 O71 1.970 . S
Co68 N85 1.989 . S
Co68 O93 1.967 . S
Co68 O100 1.920 . S
Co69 O72 1.966 . S
Co69 N78 2.022 . S
Co69 N86 1.993 . S
Co69 O94 1.941 . S
C70 O71 1.258 . S
C70 O72 1.263 . S
O71 Co68 1.970 . S
O71 C70 1.258 . S
O72 Co69 1.966 . S
O72 C70 1.263 . S
C73 O74 1.234 1_565 S
C73 O100 1.289 . S
O74 C73 1.234 1_545 S
C75 C77 1.400 . S
C75 N78 1.351 . S
C75 C80 1.501 . S
C76 C77 1.387 . S
C76 N79 1.341 . S
C77 C75 1.400 . S
C77 C76 1.387 . S
N78 Co69 2.022 . S
N78 C75 1.351 . S
N78 N79 1.365 . S
N79 C76 1.341 . S
N79 N78 1.365 . S
N79 H99 0.862 . S
C80 C75 1.501 . S
C80 H81 0.961 . S
C80 H82 0.961 . S
C80 H83 0.960 . S
H81 C80 0.961 . S
H82 C80 0.961 . S
H83 C80 0.960 . S
C84 N85 1.342 . S
C84 C88 1.401 . S
C84 C89 1.499 . S
N85 Co68 1.989 . S
N85 C84 1.342 . S
N85 N86 1.388 . S
N86 Co69 1.993 . S
N86 N85 1.388 . S
N86 C87 1.346 . S
C87 N86 1.346 . S
C87 C88 1.396 . S
C87 C97 1.510 . S
C88 C84 1.401 . S
C88 C87 1.396 . S
C89 C84 1.499 . S
C89 H90 0.959 . S
C89 H91 0.960 . S
C89 H92 0.961 . S
H90 C89 0.959 . S
H91 C89 0.960 . S
H92 C89 0.961 . S
O93 Co68 1.967 . S
O93 C101 1.258 . S
O94 Co69 1.941 . S
O94 C101 1.266 . S
H95 C97 0.959 . S
H96 C97 0.961 . S
C97 C87 1.510 . S
C97 H95 0.959 . S
C97 H96 0.961 . S
C97 H98 0.960 . S
H98 C97 0.960 . S
H99 N79 0.862 . S
O100 Co68 1.920 . S
O100 C73 1.289 . S
C101 O93 1.258 . S
C101 O94 1.266 . S
Co102 O105 1.970 . S
Co102 N119 1.989 . S
Co102 O127 1.967 . S
Co102 O134 1.920 . S
Co103 O106 1.966 . S
Co103 N112 2.022 . S
Co103 N120 1.993 . S
Co103 O128 1.941 . S
C104 O105 1.258 . S
C104 O106 1.263 . S
O105 Co102 1.970 . S
O105 C104 1.258 . S
O106 Co103 1.966 . S
O106 C104 1.263 . S
C107 O108 1.234 1_655 S
C107 O134 1.289 . S
O108 C107 1.234 1_455 S
C109 C111 1.400 . S
C109 N112 1.351 . S
C109 C114 1.501 . S
C110 C111 1.387 . S
C110 N113 1.341 . S
C111 C109 1.400 . S
C111 C110 1.387 . S
N112 Co103 2.022 . S
N112 C109 1.351 . S
N112 N113 1.365 . S
N113 C110 1.341 . S
N113 N112 1.365 . S
N113 H133 0.862 . S
C114 C109 1.501 . S
C114 H115 0.961 . S
C114 H116 0.961 . S
C114 H117 0.960 . S
H115 C114 0.961 . S
H116 C114 0.961 . S
H117 C114 0.960 . S
C118 N119 1.342 . S
C118 C122 1.401 . S
C118 C123 1.499 . S
N119 Co102 1.989 . S
N119 C118 1.342 . S
N119 N120 1.388 . S
N120 Co103 1.993 . S
N120 N119 1.388 . S
N120 C121 1.346 . S
C121 N120 1.346 . S
C121 C122 1.396 . S
C121 C131 1.510 . S
C122 C118 1.401 . S
C122 C121 1.396 . S
C123 C118 1.499 . S
C123 H124 0.959 . S
C123 H125 0.960 . S
C123 H126 0.961 . S
H124 C123 0.959 . S
H125 C123 0.960 . S
H126 C123 0.961 . S
O127 Co102 1.967 . S
O127 C135 1.258 . S
O128 Co103 1.941 . S
O128 C135 1.266 . S
H129 C131 0.959 . S
H130 C131 0.961 . S
C131 C121 1.510 . S
C131 H129 0.959 . S
C131 H130 0.961 . S
C131 H132 0.960 . S
H132 C131 0.960 . S
H133 N113 0.862 . S
O134 Co102 1.920 . S
O134 C107 1.289 . S
C135 O127 1.258 . S
C135 O128 1.266 . S
Co136 O139 1.970 . S
Co136 N153 1.989 . S
Co136 O161 1.967 . S
Co136 O168 1.920 . S
Co137 O140 1.966 . S
Co137 N146 2.022 1_556 S
Co137 N154 1.993 . S
Co137 O162 1.941 . S
C138 O139 1.258 . S
C138 O140 1.263 . S
O139 Co136 1.970 . S
O139 C138 1.258 . S
O140 Co137 1.966 . S
O140 C138 1.263 . S
C141 O142 1.235 . S
C141 O168 1.289 . S
O142 C141 1.235 . S
C143 C145 1.400 . S
C143 N146 1.351 . S
C143 C148 1.501 . S
C144 C145 1.387 . S
C144 N147 1.341 1_554 S
C145 C143 1.400 . S
C145 C144 1.387 . S
N146 Co137 2.022 1_554 S
N146 C143 1.351 . S
N146 N147 1.365 1_554 S
N147 C144 1.341 1_556 S
N147 N146 1.365 1_556 S
N147 H167 0.862 . S
C148 C143 1.501 . S
C148 H149 0.961 . S
C148 H150 0.961 . S
C148 H151 0.960 . S
H149 C148 0.961 . S
H150 C148 0.961 . S
H151 C148 0.960 . S
C152 N153 1.342 . S
C152 C156 1.401 . S
C152 C157 1.499 . S
N153 Co136 1.989 . S
N153 C152 1.342 . S
N153 N154 1.388 . S
N154 Co137 1.993 . S
N154 N153 1.388 . S
N154 C155 1.346 . S
C155 N154 1.346 . S
C155 C156 1.396 . S
C155 C165 1.510 . S
C156 C152 1.401 . S
C156 C155 1.396 . S
C157 C152 1.499 . S
C157 H158 0.959 . S
C157 H159 0.960 . S
C157 H160 0.961 . S
H158 C157 0.959 . S
H159 C157 0.960 . S
H160 C157 0.961 . S
O161 Co136 1.967 . S
O161 C169 1.258 . S
O162 Co137 1.941 . S
O162 C169 1.266 . S
H163 C165 0.959 . S
H164 C165 0.961 1_554 S
C165 C155 1.510 . S
C165 H163 0.959 . S
C165 H164 0.961 1_556 S
C165 H166 0.960 1_556 S
H166 C165 0.960 1_554 S
H167 N147 0.862 . S
O168 Co136 1.920 . S
O168 C141 1.289 . S
C169 O161 1.258 . S
C169 O162 1.266 . S
Co170 O173 1.970 . S
Co170 N187 1.989 . S
Co170 O195 1.967 . S
Co170 O202 1.920 . S
Co171 O174 1.966 . S
Co171 N180 2.022 1_554 S
Co171 N188 1.993 . S
Co171 O196 1.941 . S
C172 O173 1.258 . S
C172 O174 1.263 . S
O173 Co170 1.970 . S
O173 C172 1.258 . S
O174 Co171 1.966 . S
O174 C172 1.263 . S
C175 O176 1.235 . S
C175 O202 1.289 . S
O176 C175 1.235 . S
C177 C179 1.400 . S
C177 N180 1.351 . S
C177 C182 1.501 . S
C178 C179 1.387 . S
C178 N181 1.341 1_556 S
C179 C177 1.400 . S
C179 C178 1.387 . S
N180 Co171 2.022 1_556 S
N180 C177 1.351 . S
N180 N181 1.365 1_556 S
N181 C178 1.341 1_554 S
N181 N180 1.365 1_554 S
N181 H201 0.862 . S
C182 C177 1.501 . S
C182 H183 0.961 . S
C182 H184 0.961 . S
C182 H185 0.960 . S
H183 C182 0.961 . S
H184 C182 0.961 . S
H185 C182 0.960 . S
C186 N187 1.342 . S
C186 C190 1.401 . S
C186 C191 1.499 . S
N187 Co170 1.989 . S
N187 C186 1.342 . S
N187 N188 1.388 . S
N188 Co171 1.993 . S
N188 N187 1.388 . S
N188 C189 1.346 . S
C189 N188 1.346 . S
C189 C190 1.396 . S
C189 C199 1.510 . S
C190 C186 1.401 . S
C190 C189 1.396 . S
C191 C186 1.499 . S
C191 H192 0.959 . S
C191 H193 0.960 . S
C191 H194 0.961 . S
H192 C191 0.959 . S
H193 C191 0.960 . S
H194 C191 0.961 . S
O195 Co170 1.967 . S
O195 C203 1.258 . S
O196 Co171 1.941 . S
O196 C203 1.266 . S
H197 C199 0.959 . S
H198 C199 0.961 1_556 S
C199 C189 1.510 . S
C199 H197 0.959 . S
C199 H198 0.961 1_554 S
C199 H200 0.960 1_554 S
H200 C199 0.960 1_556 S
H201 N181 0.862 . S
O202 Co170 1.920 . S
O202 C175 1.289 . S
C203 O195 1.258 . S
C203 O196 1.266 . S
Co204 O207 1.970 . S
Co204 N221 1.989 . S
Co204 O229 1.967 . S
Co204 O236 1.920 . S
Co205 O208 1.966 . S
Co205 N214 2.022 1_556 S
Co205 N222 1.993 . S
Co205 O230 1.941 . S
C206 O207 1.258 . S
C206 O208 1.263 . S
O207 Co204 1.970 . S
O207 C206 1.258 . S
O208 Co205 1.966 . S
O208 C206 1.263 . S
C209 O210 1.235 . S
C209 O236 1.289 . S
O210 C209 1.235 . S
C211 C213 1.400 . S
C211 N214 1.351 . S
C211 C216 1.501 . S
C212 C213 1.387 . S
C212 N215 1.341 1_554 S
C213 C211 1.400 . S
C213 C212 1.387 . S
N214 Co205 2.022 1_554 S
N214 C211 1.351 . S
N214 N215 1.365 1_554 S
N215 C212 1.341 1_556 S
N215 N214 1.365 1_556 S
N215 H235 0.862 . S
C216 C211 1.501 . S
C216 H217 0.961 . S
C216 H218 0.961 . S
C216 H219 0.960 . S
H217 C216 0.961 . S
H218 C216 0.961 . S
H219 C216 0.960 . S
C220 N221 1.342 . S
C220 C224 1.401 . S
C220 C225 1.499 . S
N221 Co204 1.989 . S
N221 C220 1.342 . S
N221 N222 1.388 . S
N222 Co205 1.993 . S
N222 N221 1.388 . S
N222 C223 1.346 . S
C223 N222 1.346 . S
C223 C224 1.396 . S
C223 C233 1.510 . S
C224 C220 1.401 . S
C224 C223 1.396 . S
C225 C220 1.499 . S
C225 H226 0.959 . S
C225 H227 0.960 . S
C225 H228 0.961 . S
H226 C225 0.959 . S
H227 C225 0.960 . S
H228 C225 0.961 . S
O229 Co204 1.967 . S
O229 C237 1.258 . S
O230 Co205 1.941 . S
O230 C237 1.266 . S
H231 C233 0.959 . S
H232 C233 0.961 1_554 S
C233 C223 1.510 . S
C233 H231 0.959 . S
C233 H232 0.961 1_556 S
C233 H234 0.960 1_556 S
H234 C233 0.960 1_554 S
H235 N215 0.862 . S
O236 Co204 1.920 . S
O236 C209 1.289 . S
C237 O229 1.258 . S
C237 O230 1.266 . S
Co238 O241 1.970 . S
Co238 N255 1.989 . S
Co238 O263 1.967 . S
Co238 O270 1.920 . S
Co239 O242 1.966 . S
Co239 N248 2.022 1_554 S
Co239 N256 1.993 . S
Co239 O264 1.941 . S
C240 O241 1.258 . S
C240 O242 1.263 . S
O241 Co238 1.970 . S
O241 C240 1.258 . S
O242 Co239 1.966 . S
O242 C240 1.263 . S
C243 O244 1.235 . S
C243 O270 1.289 . S
O244 C243 1.235 . S
C245 C247 1.400 . S
C245 N248 1.351 . S
C245 C250 1.501 . S
C246 C247 1.387 . S
C246 N249 1.341 1_556 S
C247 C245 1.400 . S
C247 C246 1.387 . S
N248 Co239 2.022 1_556 S
N248 C245 1.351 . S
N248 N249 1.365 1_556 S
N249 C246 1.341 1_554 S
N249 N248 1.365 1_554 S
N249 H269 0.862 . S
C250 C245 1.501 . S
C250 H251 0.961 . S
C250 H252 0.961 . S
C250 H253 0.960 . S
H251 C250 0.961 . S
H252 C250 0.961 . S
H253 C250 0.960 . S
C254 N255 1.342 . S
C254 C258 1.401 . S
C254 C259 1.499 . S
N255 Co238 1.989 . S
N255 C254 1.342 . S
N255 N256 1.388 . S
N256 Co239 1.993 . S
N256 N255 1.388 . S
N256 C257 1.346 . S
C257 N256 1.346 . S
C257 C258 1.396 . S
C257 C267 1.510 . S
C258 C254 1.401 . S
C258 C257 1.396 . S
C259 C254 1.499 . S
C259 H260 0.959 . S
C259 H261 0.960 . S
C259 H262 0.961 . S
H260 C259 0.959 . S
H261 C259 0.960 . S
H262 C259 0.961 . S
O263 Co238 1.967 . S
O263 C271 1.258 . S
O264 Co239 1.941 . S
O264 C271 1.266 . S
H265 C267 0.959 . S
H266 C267 0.961 1_556 S
C267 C257 1.510 . S
C267 H265 0.959 . S
C267 H266 0.961 1_554 S
C267 H268 0.960 1_554 S
H268 C267 0.960 1_556 S
H269 N249 0.862 . S
O270 Co238 1.920 . S
O270 C243 1.289 . S
C271 O263 1.258 . S
C271 O264 1.266 . S
Co272 O275 1.970 . S
Co272 N289 1.989 . S
Co272 O297 1.967 . S
Co272 O304 1.920 . S
Co273 O276 1.966 . S
Co273 N282 2.022 . S
Co273 N290 1.993 . S
Co273 O298 1.941 . S
C274 O275 1.258 . S
C274 O276 1.263 . S
O275 Co272 1.970 . S
O275 C274 1.258 . S
O276 Co273 1.966 . S
O276 C274 1.263 . S
C277 O278 1.235 . S
C277 O304 1.289 . S
O278 C277 1.235 . S
C279 C281 1.400 . S
C279 N282 1.351 . S
C279 C284 1.501 . S
C280 C281 1.387 . S
C280 N283 1.341 . S
C281 C279 1.400 . S
C281 C280 1.387 . S
N282 Co273 2.022 . S
N282 C279 1.351 . S
N282 N283 1.365 . S
N283 C280 1.341 . S
N283 N282 1.365 . S
N283 H303 0.862 . S
C284 C279 1.501 . S
C284 H285 0.961 . S
C284 H286 0.961 . S
C284 H287 0.960 . S
H285 C284 0.961 . S
H286 C284 0.961 . S
H287 C284 0.960 . S
C288 N289 1.342 . S
C288 C292 1.401 . S
C288 C293 1.499 . S
N289 Co272 1.989 . S
N289 C288 1.342 . S
N289 N290 1.388 . S
N290 Co273 1.993 . S
N290 N289 1.388 . S
N290 C291 1.346 . S
C291 N290 1.346 . S
C291 C292 1.396 . S
C291 C301 1.510 . S
C292 C288 1.401 . S
C292 C291 1.396 . S
C293 C288 1.499 . S
C293 H294 0.959 . S
C293 H295 0.960 . S
C293 H296 0.961 . S
H294 C293 0.959 . S
H295 C293 0.960 . S
H296 C293 0.961 . S
O297 Co272 1.967 . S
O297 C305 1.258 . S
O298 Co273 1.941 . S
O298 C305 1.266 . S
H299 C301 0.959 . S
H300 C301 0.961 . S
C301 C291 1.510 . S
C301 H299 0.959 . S
C301 H300 0.961 . S
C301 H302 0.960 . S
H302 C301 0.960 . S
H303 N283 0.862 . S
O304 Co272 1.920 . S
O304 C277 1.289 . S
C305 O297 1.258 . S
C305 O298 1.266 . S
Co306 O309 1.970 . S
Co306 N323 1.989 . S
Co306 O331 1.967 . S
Co306 O338 1.920 . S
Co307 O310 1.966 . S
Co307 N316 2.022 . S
Co307 N324 1.993 . S
Co307 O332 1.941 . S
C308 O309 1.258 . S
C308 O310 1.263 . S
O309 Co306 1.970 . S
O309 C308 1.258 . S
O310 Co307 1.966 . S
O310 C308 1.263 . S
C311 O312 1.235 . S
C311 O338 1.289 . S
O312 C311 1.235 . S
C313 C315 1.400 . S
C313 N316 1.351 . S
C313 C318 1.501 . S
C314 C315 1.387 . S
C314 N317 1.341 . S
C315 C313 1.400 . S
C315 C314 1.387 . S
N316 Co307 2.022 . S
N316 C313 1.351 . S
N316 N317 1.365 . S
N317 C314 1.341 . S
N317 N316 1.365 . S
N317 H337 0.862 . S
C318 C313 1.501 . S
C318 H319 0.961 . S
C318 H320 0.961 . S
C318 H321 0.960 . S
H319 C318 0.961 . S
H320 C318 0.961 . S
H321 C318 0.960 . S
C322 N323 1.342 . S
C322 C326 1.401 . S
C322 C327 1.499 . S
N323 Co306 1.989 . S
N323 C322 1.342 . S
N323 N324 1.388 . S
N324 Co307 1.993 . S
N324 N323 1.388 . S
N324 C325 1.346 . S
C325 N324 1.346 . S
C325 C326 1.396 . S
C325 C335 1.510 . S
C326 C322 1.401 . S
C326 C325 1.396 . S
C327 C322 1.499 . S
C327 H328 0.959 . S
C327 H329 0.960 . S
C327 H330 0.961 . S
H328 C327 0.959 . S
H329 C327 0.960 . S
H330 C327 0.961 . S
O331 Co306 1.967 . S
O331 C339 1.258 . S
O332 Co307 1.941 . S
O332 C339 1.266 . S
H333 C335 0.959 . S
H334 C335 0.961 . S
C335 C325 1.510 . S
C335 H333 0.959 . S
C335 H334 0.961 . S
C335 H336 0.960 . S
H336 C335 0.960 . S
H337 N317 0.862 . S
O338 Co306 1.920 . S
O338 C311 1.289 . S
C339 O331 1.258 . S
C339 O332 1.266 . S
Co340 O343 1.970 . S
Co340 N357 1.989 . S
Co340 O365 1.967 . S
Co340 O372 1.920 . S
Co341 O344 1.966 . S
Co341 N350 2.022 . S
Co341 N358 1.993 . S
Co341 O366 1.941 . S
C342 O343 1.258 . S
C342 O344 1.263 . S
O343 Co340 1.970 . S
O343 C342 1.258 . S
O344 Co341 1.966 . S
O344 C342 1.263 . S
C345 O346 1.235 . S
C345 O372 1.289 . S
O346 C345 1.235 . S
C347 C349 1.400 . S
C347 N350 1.351 . S
C347 C352 1.501 . S
C348 C349 1.387 . S
C348 N351 1.341 . S
C349 C347 1.400 . S
C349 C348 1.387 . S
N350 Co341 2.022 . S
N350 C347 1.351 . S
N350 N351 1.365 . S
N351 C348 1.341 . S
N351 N350 1.365 . S
N351 H371 0.862 . S
C352 C347 1.501 . S
C352 H353 0.961 . S
C352 H354 0.961 . S
C352 H355 0.960 . S
H353 C352 0.961 . S
H354 C352 0.961 . S
H355 C352 0.960 . S
C356 N357 1.342 . S
C356 C360 1.401 . S
C356 C361 1.499 . S
N357 Co340 1.989 . S
N357 C356 1.342 . S
N357 N358 1.388 . S
N358 Co341 1.993 . S
N358 N357 1.388 . S
N358 C359 1.346 . S
C359 N358 1.346 . S
C359 C360 1.396 . S
C359 C369 1.510 . S
C360 C356 1.401 . S
C360 C359 1.396 . S
C361 C356 1.499 . S
C361 H362 0.959 . S
C361 H363 0.960 . S
C361 H364 0.961 . S
H362 C361 0.959 . S
H363 C361 0.960 . S
H364 C361 0.961 . S
O365 Co340 1.967 . S
O365 C373 1.258 . S
O366 Co341 1.941 . S
O366 C373 1.266 . S
H367 C369 0.959 . S
H368 C369 0.961 . S
C369 C359 1.510 . S
C369 H367 0.959 . S
C369 H368 0.961 . S
C369 H370 0.960 . S
H370 C369 0.960 . S
H371 N351 0.862 . S
O372 Co340 1.920 . S
O372 C345 1.289 . S
C373 O365 1.258 . S
C373 O366 1.266 . S
Co374 O377 1.970 . S
Co374 N391 1.989 . S
Co374 O399 1.967 . S
Co374 O406 1.920 . S
Co375 O378 1.966 . S
Co375 N384 2.022 . S
Co375 N392 1.993 . S
Co375 O400 1.941 . S
C376 O377 1.258 . S
C376 O378 1.263 . S
O377 Co374 1.970 . S
O377 C376 1.258 . S
O378 Co375 1.966 . S
O378 C376 1.263 . S
C379 O380 1.235 . S
C379 O406 1.289 . S
O380 C379 1.235 . S
C381 C383 1.400 . S
C381 N384 1.351 . S
C381 C386 1.501 . S
C382 C383 1.387 . S
C382 N385 1.341 . S
C383 C381 1.400 . S
C383 C382 1.387 . S
N384 Co375 2.022 . S
N384 C381 1.351 . S
N384 N385 1.365 . S
N385 C382 1.341 . S
N385 N384 1.365 . S
N385 H405 0.862 . S
C386 C381 1.501 . S
C386 H387 0.961 . S
C386 H388 0.961 . S
C386 H389 0.960 . S
H387 C386 0.961 . S
H388 C386 0.961 . S
H389 C386 0.960 . S
C390 N391 1.342 . S
C390 C394 1.401 . S
C390 C395 1.499 . S
N391 Co374 1.989 . S
N391 C390 1.342 . S
N391 N392 1.388 . S
N392 Co375 1.993 . S
N392 N391 1.388 . S
N392 C393 1.346 . S
C393 N392 1.346 . S
C393 C394 1.396 . S
C393 C403 1.510 . S
C394 C390 1.401 . S
C394 C393 1.396 . S
C395 C390 1.499 . S
C395 H396 0.959 . S
C395 H397 0.960 . S
C395 H398 0.961 . S
H396 C395 0.959 . S
H397 C395 0.960 . S
H398 C395 0.961 . S
O399 Co374 1.967 . S
O399 C407 1.258 . S
O400 Co375 1.941 . S
O400 C407 1.266 . S
H401 C403 0.959 . S
H402 C403 0.961 . S
C403 C393 1.510 . S
C403 H401 0.959 . S
C403 H402 0.961 . S
C403 H404 0.960 . S
H404 C403 0.960 . S
H405 N385 0.862 . S
O406 Co374 1.920 . S
O406 C379 1.289 . S
C407 O399 1.258 . S
C407 O400 1.266 . S
Co408 O411 1.970 . S
Co408 N425 1.989 . S
Co408 O433 1.967 . S
Co408 O440 1.920 . S
Co409 O412 1.966 . S
Co409 N418 2.022 . S
Co409 N426 1.993 . S
Co409 O434 1.941 . S
C410 O411 1.258 . S
C410 O412 1.263 . S
O411 Co408 1.970 . S
O411 C410 1.258 . S
O412 Co409 1.966 . S
O412 C410 1.263 . S
C413 O414 1.234 1_565 S
C413 O440 1.289 . S
O414 C413 1.234 1_545 S
C415 C417 1.400 . S
C415 N418 1.351 . S
C415 C420 1.501 . S
C416 C417 1.387 . S
C416 N419 1.341 . S
C417 C415 1.400 . S
C417 C416 1.387 . S
N418 Co409 2.022 . S
N418 C415 1.351 . S
N418 N419 1.365 . S
N419 C416 1.341 . S
N419 N418 1.365 . S
N419 H439 0.862 . S
C420 C415 1.501 . S
C420 H421 0.961 . S
C420 H422 0.961 . S
C420 H423 0.960 . S
H421 C420 0.961 . S
H422 C420 0.961 . S
H423 C420 0.960 . S
C424 N425 1.342 . S
C424 C428 1.401 . S
C424 C429 1.499 . S
N425 Co408 1.989 . S
N425 C424 1.342 . S
N425 N426 1.388 . S
N426 Co409 1.993 . S
N426 N425 1.388 . S
N426 C427 1.346 . S
C427 N426 1.346 . S
C427 C428 1.396 . S
C427 C437 1.510 . S
C428 C424 1.401 . S
C428 C427 1.396 . S
C429 C424 1.499 . S
C429 H430 0.959 . S
C429 H431 0.960 . S
C429 H432 0.961 . S
H430 C429 0.959 . S
H431 C429 0.960 . S
H432 C429 0.961 . S
O433 Co408 1.967 . S
O433 C441 1.258 . S
O434 Co409 1.941 . S
O434 C441 1.266 . S
H435 C437 0.959 . S
H436 C437 0.961 . S
C437 C427 1.510 . S
C437 H435 0.959 . S
C437 H436 0.961 . S
C437 H438 0.960 . S
H438 C437 0.960 . S
H439 N419 0.862 . S
O440 Co408 1.920 . S
O440 C413 1.289 . S
C441 O433 1.258 . S
C441 O434 1.266 . S
Co442 O445 1.970 . S
Co442 N459 1.989 . S
Co442 O467 1.967 . S
Co442 O474 1.920 . S
Co443 O446 1.966 . S
Co443 N452 2.022 . S
Co443 N460 1.993 . S
Co443 O468 1.941 . S
C444 O445 1.258 . S
C444 O446 1.263 . S
O445 Co442 1.970 . S
O445 C444 1.258 . S
O446 Co443 1.966 . S
O446 C444 1.263 . S
C447 O448 1.234 1_655 S
C447 O474 1.289 . S
O448 C447 1.234 1_455 S
C449 C451 1.400 . S
C449 N452 1.351 . S
C449 C454 1.501 . S
C450 C451 1.387 . S
C450 N453 1.341 . S
C451 C449 1.400 . S
C451 C450 1.387 . S
N452 Co443 2.022 . S
N452 C449 1.351 . S
N452 N453 1.365 . S
N453 C450 1.341 . S
N453 N452 1.365 . S
N453 H473 0.862 . S
C454 C449 1.501 . S
C454 H455 0.961 . S
C454 H456 0.961 . S
C454 H457 0.960 . S
H455 C454 0.961 . S
H456 C454 0.961 . S
H457 C454 0.960 . S
C458 N459 1.342 . S
C458 C462 1.401 . S
C458 C463 1.499 . S
N459 Co442 1.989 . S
N459 C458 1.342 . S
N459 N460 1.388 . S
N460 Co443 1.993 . S
N460 N459 1.388 . S
N460 C461 1.346 . S
C461 N460 1.346 . S
C461 C462 1.396 . S
C461 C471 1.510 . S
C462 C458 1.401 . S
C462 C461 1.396 . S
C463 C458 1.499 . S
C463 H464 0.959 . S
C463 H465 0.960 . S
C463 H466 0.961 . S
H464 C463 0.959 . S
H465 C463 0.960 . S
H466 C463 0.961 . S
O467 Co442 1.967 . S
O467 C475 1.258 . S
O468 Co443 1.941 . S
O468 C475 1.266 . S
H469 C471 0.959 . S
H470 C471 0.961 . S
C471 C461 1.510 . S
C471 H469 0.959 . S
C471 H470 0.961 . S
C471 H472 0.960 . S
H472 C471 0.960 . S
H473 N453 0.862 . S
O474 Co442 1.920 . S
O474 C447 1.289 . S
C475 O467 1.258 . S
C475 O468 1.266 . S
Co476 O479 1.970 . S
Co476 N493 1.989 . S
Co476 O501 1.967 . S
Co476 O508 1.920 . S
Co477 O480 1.966 . S
Co477 N486 2.022 . S
Co477 N494 1.993 . S
Co477 O502 1.941 . S
C478 O479 1.258 . S
C478 O480 1.263 . S
O479 Co476 1.970 . S
O479 C478 1.258 . S
O480 Co477 1.966 . S
O480 C478 1.263 . S
C481 O482 1.234 1_545 S
C481 O508 1.289 . S
O482 C481 1.234 1_565 S
C483 C485 1.400 . S
C483 N486 1.351 . S
C483 C488 1.501 . S
C484 C485 1.387 . S
C484 N487 1.341 . S
C485 C483 1.400 . S
C485 C484 1.387 . S
N486 Co477 2.022 . S
N486 C483 1.351 . S
N486 N487 1.365 . S
N487 C484 1.341 . S
N487 N486 1.365 . S
N487 H507 0.862 . S
C488 C483 1.501 . S
C488 H489 0.961 . S
C488 H490 0.961 . S
C488 H491 0.960 . S
H489 C488 0.961 . S
H490 C488 0.961 . S
H491 C488 0.960 . S
C492 N493 1.342 . S
C492 C496 1.401 . S
C492 C497 1.499 . S
N493 Co476 1.989 . S
N493 C492 1.342 . S
N493 N494 1.388 . S
N494 Co477 1.993 . S
N494 N493 1.388 . S
N494 C495 1.346 . S
C495 N494 1.346 . S
C495 C496 1.396 . S
C495 C505 1.510 . S
C496 C492 1.401 . S
C496 C495 1.396 . S
C497 C492 1.499 . S
C497 H498 0.959 . S
C497 H499 0.960 . S
C497 H500 0.961 . S
H498 C497 0.959 . S
H499 C497 0.960 . S
H500 C497 0.961 . S
O501 Co476 1.967 . S
O501 C509 1.258 . S
O502 Co477 1.941 . S
O502 C509 1.266 . S
H503 C505 0.959 . S
H504 C505 0.961 . S
C505 C495 1.510 . S
C505 H503 0.959 . S
C505 H504 0.961 . S
C505 H506 0.960 . S
H506 C505 0.960 . S
H507 N487 0.862 . S
O508 Co476 1.920 . S
O508 C481 1.289 . S
C509 O501 1.258 . S
C509 O502 1.266 . S
Co510 O513 1.970 . S
Co510 N527 1.989 . S
Co510 O535 1.967 . S
Co510 O542 1.920 . S
Co511 O514 1.966 . S
Co511 N520 2.022 . S
Co511 N528 1.993 . S
Co511 O536 1.941 . S
C512 O513 1.258 . S
C512 O514 1.263 . S
O513 Co510 1.970 . S
O513 C512 1.258 . S
O514 Co511 1.966 . S
O514 C512 1.263 . S
C515 O516 1.234 1_455 S
C515 O542 1.289 . S
O516 C515 1.234 1_655 S
C517 C519 1.400 . S
C517 N520 1.351 . S
C517 C522 1.501 . S
C518 C519 1.387 . S
C518 N521 1.341 . S
C519 C517 1.400 . S
C519 C518 1.387 . S
N520 Co511 2.022 . S
N520 C517 1.351 . S
N520 N521 1.365 . S
N521 C518 1.341 . S
N521 N520 1.365 . S
N521 H541 0.862 . S
C522 C517 1.501 . S
C522 H523 0.961 . S
C522 H524 0.961 . S
C522 H525 0.960 . S
H523 C522 0.961 . S
H524 C522 0.961 . S
H525 C522 0.960 . S
C526 N527 1.342 . S
C526 C530 1.401 . S
C526 C531 1.499 . S
N527 Co510 1.989 . S
N527 C526 1.342 . S
N527 N528 1.388 . S
N528 Co511 1.993 . S
N528 N527 1.388 . S
N528 C529 1.346 . S
C529 N528 1.346 . S
C529 C530 1.396 . S
C529 C539 1.510 . S
C530 C526 1.401 . S
C530 C529 1.396 . S
C531 C526 1.499 . S
C531 H532 0.959 . S
C531 H533 0.960 . S
C531 H534 0.961 . S
H532 C531 0.959 . S
H533 C531 0.960 . S
H534 C531 0.961 . S
O535 Co510 1.967 . S
O535 C543 1.258 . S
O536 Co511 1.941 . S
O536 C543 1.266 . S
H537 C539 0.959 . S
H538 C539 0.961 . S
C539 C529 1.510 . S
C539 H537 0.959 . S
C539 H538 0.961 . S
C539 H540 0.960 . S
H540 C539 0.960 . S
H541 N521 0.862 . S
O542 Co510 1.920 . S
O542 C515 1.289 . S
C543 O535 1.258 . S
C543 O536 1.266 . S
C544 C545 1.391 . S
C544 C546 1.394 . S
C544 H560 0.931 . S
C545 C544 1.391 . S
C545 C549 1.376 . S
C546 C544 1.394 . S
C546 C547 1.369 . S
C546 C550 1.531 . S
C547 C546 1.369 . S
C547 C548 1.410 . S
C547 C555 1.503 . S
C548 C547 1.410 . S
C548 C549 1.392 . S
C548 C551 1.511 . S
C549 C545 1.376 . S
C549 C548 1.392 . S
C549 H561 0.929 . S
C550 C546 1.531 . S
C550 H562 0.960 . S
C550 H563 0.962 . S
C550 H564 0.960 . S
C551 C548 1.511 . S
C551 H565 0.961 . S
C551 H566 0.961 . S
C551 H567 0.961 . S
C552 C553 1.370 . S
C552 C554 1.363 . S
C552 H568 0.931 . S
C553 C552 1.370 . S
C553 C557 1.408 . S
C554 C552 1.363 . S
C554 C555 1.370 . S
C554 C558 1.524 . S
C555 C547 1.503 . S
C555 C554 1.370 . S
C555 C556 1.403 . S
C556 C555 1.403 . S
C556 C557 1.404 . S
C556 C559 1.539 . S
C557 C553 1.408 . S
C557 C556 1.404 . S
C557 H569 0.930 . S
C558 C554 1.524 . S
C558 H570 0.956 . S
C558 H571 0.961 . S
C558 H572 0.961 . S
C559 C556 1.539 . S
C559 H573 0.958 . S
C559 H574 0.961 . S
C559 H575 0.960 . S
H560 C544 0.931 . S
H561 C549 0.929 . S
H562 C550 0.960 . S
H563 C550 0.962 . S
H564 C550 0.960 . S
H565 C551 0.961 . S
H566 C551 0.961 . S
H567 C551 0.961 . S
H568 C552 0.931 . S
H569 C557 0.930 . S
H570 C558 0.956 . S
H571 C558 0.961 . S
H572 C558 0.961 . S
H573 C559 0.958 . S
H574 C559 0.961 . S
H575 C559 0.960 . S
C576 C577 1.391 . S
C576 C578 1.394 . S
C576 H592 0.931 . S
C577 C576 1.391 . S
C577 C581 1.376 . S
C578 C576 1.394 . S
C578 C579 1.369 . S
C578 C582 1.531 . S
C579 C578 1.369 . S
C579 C580 1.410 . S
C579 C587 1.503 . S
C580 C579 1.410 . S
C580 C581 1.392 . S
C580 C583 1.511 . S
C581 C577 1.376 . S
C581 C580 1.392 . S
C581 H593 0.929 . S
C582 C578 1.531 . S
C582 H594 0.960 . S
C582 H595 0.962 . S
C582 H596 0.960 . S
C583 C580 1.511 . S
C583 H597 0.961 . S
C583 H598 0.961 . S
C583 H599 0.961 . S
C584 C585 1.370 . S
C584 C586 1.363 . S
C584 H600 0.931 . S
C585 C584 1.370 . S
C585 C589 1.408 . S
C586 C584 1.363 . S
C586 C587 1.370 . S
C586 C590 1.524 . S
C587 C579 1.503 . S
C587 C586 1.370 . S
C587 C588 1.403 . S
C588 C587 1.403 . S
C588 C589 1.404 . S
C588 C591 1.539 . S
C589 C585 1.408 . S
C589 C588 1.404 . S
C589 H601 0.930 . S
C590 C586 1.524 . S
C590 H602 0.956 . S
C590 H603 0.961 . S
C590 H604 0.961 . S
C591 C588 1.539 . S
C591 H605 0.958 . S
C591 H606 0.961 . S
C591 H607 0.960 . S
H592 C576 0.931 . S
H593 C581 0.929 . S
H594 C582 0.960 . S
H595 C582 0.962 . S
H596 C582 0.960 . S
H597 C583 0.961 . S
H598 C583 0.961 . S
H599 C583 0.961 . S
H600 C584 0.931 . S
H601 C589 0.930 . S
H602 C590 0.956 . S
H603 C590 0.961 . S
H604 C590 0.961 . S
H605 C591 0.958 . S
H606 C591 0.961 . S
H607 C591 0.960 . S
C608 C609 1.391 . S
C608 C610 1.394 . S
C608 H624 0.931 . S
C609 C608 1.391 . S
C609 C613 1.376 . S
C610 C608 1.394 . S
C610 C611 1.369 . S
C610 C614 1.531 . S
C611 C610 1.369 . S
C611 C612 1.410 . S
C611 C619 1.503 . S
C612 C611 1.410 . S
C612 C613 1.392 . S
C612 C615 1.511 . S
C613 C609 1.376 . S
C613 C612 1.392 . S
C613 H625 0.929 . S
C614 C610 1.531 . S
C614 H626 0.960 . S
C614 H627 0.962 . S
C614 H628 0.960 . S
C615 C612 1.511 . S
C615 H629 0.961 . S
C615 H630 0.961 . S
C615 H631 0.961 . S
C616 C617 1.370 . S
C616 C618 1.363 . S
C616 H632 0.931 . S
C617 C616 1.370 . S
C617 C621 1.408 . S
C618 C616 1.363 . S
C618 C619 1.370 . S
C618 C622 1.524 . S
C619 C611 1.503 . S
C619 C618 1.370 . S
C619 C620 1.403 . S
C620 C619 1.403 . S
C620 C621 1.404 . S
C620 C623 1.539 . S
C621 C617 1.408 . S
C621 C620 1.404 . S
C621 H633 0.930 . S
C622 C618 1.524 . S
C622 H634 0.956 . S
C622 H635 0.961 . S
C622 H636 0.961 . S
C623 C620 1.539 . S
C623 H637 0.958 . S
C623 H638 0.961 . S
C623 H639 0.960 . S
H624 C608 0.931 . S
H625 C613 0.929 . S
H626 C614 0.960 . S
H627 C614 0.962 . S
H628 C614 0.960 . S
H629 C615 0.961 . S
H630 C615 0.961 . S
H631 C615 0.961 . S
H632 C616 0.931 . S
H633 C621 0.930 . S
H634 C622 0.956 . S
H635 C622 0.961 . S
H636 C622 0.961 . S
H637 C623 0.958 . S
H638 C623 0.961 . S
H639 C623 0.960 . S
C640 C641 1.391 . S
C640 C642 1.394 . S
C640 H656 0.931 . S
C641 C640 1.391 . S
C641 C645 1.376 . S
C642 C640 1.394 . S
C642 C643 1.369 . S
C642 C646 1.531 . S
C643 C642 1.369 . S
C643 C644 1.410 . S
C643 C651 1.503 . S
C644 C643 1.410 . S
C644 C645 1.392 . S
C644 C647 1.511 . S
C645 C641 1.376 . S
C645 C644 1.392 . S
C645 H657 0.929 . S
C646 C642 1.531 . S
C646 H658 0.960 . S
C646 H659 0.962 . S
C646 H660 0.960 . S
C647 C644 1.511 . S
C647 H661 0.961 . S
C647 H662 0.961 . S
C647 H663 0.961 . S
C648 C649 1.370 . S
C648 C650 1.363 . S
C648 H664 0.931 . S
C649 C648 1.370 . S
C649 C653 1.408 . S
C650 C648 1.363 . S
C650 C651 1.370 . S
C650 C654 1.524 . S
C651 C643 1.503 . S
C651 C650 1.370 . S
C651 C652 1.403 . S
C652 C651 1.403 . S
C652 C653 1.404 . S
C652 C655 1.539 . S
C653 C649 1.408 . S
C653 C652 1.404 . S
C653 H665 0.930 . S
C654 C650 1.524 . S
C654 H666 0.956 . S
C654 H667 0.961 . S
C654 H668 0.961 . S
C655 C652 1.539 . S
C655 H669 0.958 . S
C655 H670 0.961 . S
C655 H671 0.960 . S
H656 C640 0.931 . S
H657 C645 0.929 . S
H658 C646 0.960 . S
H659 C646 0.962 . S
H660 C646 0.960 . S
H661 C647 0.961 . S
H662 C647 0.961 . S
H663 C647 0.961 . S
H664 C648 0.931 . S
H665 C653 0.930 . S
H666 C654 0.956 . S
H667 C654 0.961 . S
H668 C654 0.961 . S
H669 C655 0.958 . S
H670 C655 0.961 . S
H671 C655 0.960 . S
C672 C673 1.391 . S
C672 C674 1.394 . S
C672 H688 0.931 . S
C673 C672 1.391 . S
C673 C677 1.376 . S
C674 C672 1.394 . S
C674 C675 1.369 . S
C674 C678 1.531 . S
C675 C674 1.369 . S
C675 C676 1.410 . S
C675 C683 1.503 . S
C676 C675 1.410 . S
C676 C677 1.392 . S
C676 C679 1.511 . S
C677 C673 1.376 . S
C677 C676 1.392 . S
C677 H689 0.929 . S
C678 C674 1.531 . S
C678 H690 0.960 . S
C678 H691 0.962 . S
C678 H692 0.960 . S
C679 C676 1.511 . S
C679 H693 0.961 . S
C679 H694 0.961 . S
C679 H695 0.961 . S
C680 C681 1.370 . S
C680 C682 1.363 . S
C680 H696 0.931 . S
C681 C680 1.370 . S
C681 C685 1.408 . S
C682 C680 1.363 . S
C682 C683 1.370 . S
C682 C686 1.524 . S
C683 C675 1.503 . S
C683 C682 1.370 . S
C683 C684 1.403 . S
C684 C683 1.403 . S
C684 C685 1.404 . S
C684 C687 1.539 . S
C685 C681 1.408 . S
C685 C684 1.404 . S
C685 H697 0.930 . S
C686 C682 1.524 . S
C686 H698 0.956 . S
C686 H699 0.961 . S
C686 H700 0.961 . S
C687 C684 1.539 . S
C687 H701 0.958 . S
C687 H702 0.961 . S
C687 H703 0.960 . S
H688 C672 0.931 . S
H689 C677 0.929 . S
H690 C678 0.960 . S
H691 C678 0.962 . S
H692 C678 0.960 . S
H693 C679 0.961 . S
H694 C679 0.961 . S
H695 C679 0.961 . S
H696 C680 0.931 . S
H697 C685 0.930 . S
H698 C686 0.956 . S
H699 C686 0.961 . S
H700 C686 0.961 . S
H701 C687 0.958 . S
H702 C687 0.961 . S
H703 C687 0.960 . S
C704 C705 1.391 . S
C704 C706 1.394 . S
C704 H720 0.931 . S
C705 C704 1.391 . S
C705 C709 1.376 . S
C706 C704 1.394 . S
C706 C707 1.369 . S
C706 C710 1.531 . S
C707 C706 1.369 . S
C707 C708 1.410 . S
C707 C715 1.503 . S
C708 C707 1.410 . S
C708 C709 1.392 . S
C708 C711 1.511 . S
C709 C705 1.376 . S
C709 C708 1.392 . S
C709 H721 0.929 . S
C710 C706 1.531 . S
C710 H722 0.960 . S
C710 H723 0.962 . S
C710 H724 0.960 . S
C711 C708 1.511 . S
C711 H725 0.961 . S
C711 H726 0.961 . S
C711 H727 0.961 . S
C712 C713 1.370 . S
C712 C714 1.363 . S
C712 H728 0.931 . S
C713 C712 1.370 . S
C713 C717 1.408 . S
C714 C712 1.363 . S
C714 C715 1.370 . S
C714 C718 1.524 . S
C715 C707 1.503 . S
C715 C714 1.370 . S
C715 C716 1.403 . S
C716 C715 1.403 . S
C716 C717 1.404 . S
C716 C719 1.539 . S
C717 C713 1.408 . S
C717 C716 1.404 . S
C717 H729 0.930 . S
C718 C714 1.524 . S
C718 H730 0.956 . S
C718 H731 0.961 . S
C718 H732 0.961 . S
C719 C716 1.539 . S
C719 H733 0.958 . S
C719 H734 0.961 . S
C719 H735 0.960 . S
H720 C704 0.931 . S
H721 C709 0.929 . S
H722 C710 0.960 . S
H723 C710 0.962 . S
H724 C710 0.960 . S
H725 C711 0.961 . S
H726 C711 0.961 . S
H727 C711 0.961 . S
H728 C712 0.931 . S
H729 C717 0.930 . S
H730 C718 0.956 . S
H731 C718 0.961 . S
H732 C718 0.961 . S
H733 C719 0.958 . S
H734 C719 0.961 . S
H735 C719 0.960 . S
C736 C737 1.391 . S
C736 C738 1.394 . S
C736 H752 0.931 . S
C737 C736 1.391 . S
C737 C741 1.376 . S
C738 C736 1.394 . S
C738 C739 1.369 . S
C738 C742 1.531 . S
C739 C738 1.369 . S
C739 C740 1.410 . S
C739 C747 1.503 . S
C740 C739 1.410 . S
C740 C741 1.392 . S
C740 C743 1.511 . S
C741 C737 1.376 . S
C741 C740 1.392 . S
C741 H753 0.929 . S
C742 C738 1.531 . S
C742 H754 0.960 . S
C742 H755 0.962 . S
C742 H756 0.960 . S
C743 C740 1.511 . S
C743 H757 0.961 . S
C743 H758 0.961 . S
C743 H759 0.961 . S
C744 C745 1.370 . S
C744 C746 1.363 . S
C744 H760 0.931 . S
C745 C744 1.370 . S
C745 C749 1.408 . S
C746 C744 1.363 . S
C746 C747 1.370 . S
C746 C750 1.524 . S
C747 C739 1.503 . S
C747 C746 1.370 . S
C747 C748 1.403 . S
C748 C747 1.403 . S
C748 C749 1.404 . S
C748 C751 1.539 . S
C749 C745 1.408 . S
C749 C748 1.404 . S
C749 H761 0.930 . S
C750 C746 1.524 . S
C750 H762 0.956 . S
C750 H763 0.961 . S
C750 H764 0.961 . S
C751 C748 1.539 . S
C751 H765 0.958 . S
C751 H766 0.961 . S
C751 H767 0.960 . S
H752 C736 0.931 . S
H753 C741 0.929 . S
H754 C742 0.960 . S
H755 C742 0.962 . S
H756 C742 0.960 . S
H757 C743 0.961 . S
H758 C743 0.961 . S
H759 C743 0.961 . S
H760 C744 0.931 . S
H761 C749 0.930 . S
H762 C750 0.956 . S
H763 C750 0.961 . S
H764 C750 0.961 . S
H765 C751 0.958 . S
H766 C751 0.961 . S
H767 C751 0.960 . S
C768 C769 1.391 . S
C768 C770 1.394 . S
C768 H784 0.931 . S
C769 C768 1.391 . S
C769 C773 1.376 . S
C770 C768 1.394 . S
C770 C771 1.369 . S
C770 C774 1.531 . S
C771 C770 1.369 . S
C771 C772 1.410 . S
C771 C779 1.503 . S
C772 C771 1.410 . S
C772 C773 1.392 . S
C772 C775 1.511 . S
C773 C769 1.376 . S
C773 C772 1.392 . S
C773 H785 0.929 . S
C774 C770 1.531 . S
C774 H786 0.960 . S
C774 H787 0.962 . S
C774 H788 0.960 . S
C775 C772 1.511 . S
C775 H789 0.961 . S
C775 H790 0.961 . S
C775 H791 0.961 . S
C776 C777 1.370 . S
C776 C778 1.363 . S
C776 H792 0.931 . S
C777 C776 1.370 . S
C777 C781 1.408 . S
C778 C776 1.363 . S
C778 C779 1.370 . S
C778 C782 1.524 . S
C779 C771 1.503 . S
C779 C778 1.370 . S
C779 C780 1.403 . S
C780 C779 1.403 . S
C780 C781 1.404 . S
C780 C783 1.539 . S
C781 C777 1.408 . S
C781 C780 1.404 . S
C781 H793 0.930 . S
C782 C778 1.524 . S
C782 H794 0.956 . S
C782 H795 0.961 . S
C782 H796 0.961 . S
C783 C780 1.539 . S
C783 H797 0.958 . S
C783 H798 0.961 . S
C783 H799 0.960 . S
H784 C768 0.931 . S
H785 C773 0.929 . S
H786 C774 0.960 . S
H787 C774 0.962 . S
H788 C774 0.960 . S
H789 C775 0.961 . S
H790 C775 0.961 . S
H791 C775 0.961 . S
H792 C776 0.931 . S
H793 C781 0.930 . S
H794 C782 0.956 . S
H795 C782 0.961 . S
H796 C782 0.961 . S
H797 C783 0.958 . S
H798 C783 0.961 . S
H799 C783 0.960 . S
C800 C801 1.391 . S
C800 C802 1.394 . S
C800 H816 0.931 . S
C801 C800 1.391 . S
C801 C805 1.376 . S
C802 C800 1.394 . S
C802 C803 1.369 . S
C802 C806 1.531 . S
C803 C802 1.369 . S
C803 C804 1.410 . S
C803 C811 1.503 . S
C804 C803 1.410 . S
C804 C805 1.392 . S
C804 C807 1.511 . S
C805 C801 1.376 . S
C805 C804 1.392 . S
C805 H817 0.929 . S
C806 C802 1.531 . S
C806 H818 0.960 . S
C806 H819 0.962 . S
C806 H820 0.960 . S
C807 C804 1.511 . S
C807 H821 0.961 . S
C807 H822 0.961 . S
C807 H823 0.961 . S
C808 C809 1.370 . S
C808 C810 1.363 . S
C808 H824 0.931 . S
C809 C808 1.370 . S
C809 C813 1.408 . S
C810 C808 1.363 . S
C810 C811 1.370 . S
C810 C814 1.524 . S
C811 C803 1.503 . S
C811 C810 1.370 . S
C811 C812 1.403 . S
C812 C811 1.403 . S
C812 C813 1.404 . S
C812 C815 1.539 . S
C813 C809 1.408 . S
C813 C812 1.404 . S
C813 H825 0.930 . S
C814 C810 1.524 . S
C814 H826 0.956 . S
C814 H827 0.961 . S
C814 H828 0.961 . S
C815 C812 1.539 . S
C815 H829 0.958 . S
C815 H830 0.961 . S
C815 H831 0.960 . S
H816 C800 0.931 . S
H817 C805 0.929 . S
H818 C806 0.960 . S
H819 C806 0.962 . S
H820 C806 0.960 . S
H821 C807 0.961 . S
H822 C807 0.961 . S
H823 C807 0.961 . S
H824 C808 0.931 . S
H825 C813 0.930 . S
H826 C814 0.956 . S
H827 C814 0.961 . S
H828 C814 0.961 . S
H829 C815 0.958 . S
H830 C815 0.961 . S
H831 C815 0.960 . S
C832 C833 1.391 . S
C832 C834 1.394 . S
C832 H848 0.931 . S
C833 C832 1.391 . S
C833 C837 1.376 . S
C834 C832 1.394 . S
C834 C835 1.369 . S
C834 C838 1.531 . S
C835 C834 1.369 . S
C835 C836 1.410 . S
C835 C843 1.503 . S
C836 C835 1.410 . S
C836 C837 1.392 . S
C836 C839 1.511 . S
C837 C833 1.376 . S
C837 C836 1.392 . S
C837 H849 0.929 . S
C838 C834 1.531 . S
C838 H850 0.960 . S
C838 H851 0.962 . S
C838 H852 0.960 . S
C839 C836 1.511 . S
C839 H853 0.961 . S
C839 H854 0.961 . S
C839 H855 0.961 . S
C840 C841 1.370 . S
C840 C842 1.363 . S
C840 H856 0.931 . S
C841 C840 1.370 . S
C841 C845 1.408 . S
C842 C840 1.363 . S
C842 C843 1.370 . S
C842 C846 1.524 . S
C843 C835 1.503 . S
C843 C842 1.370 . S
C843 C844 1.403 . S
C844 C843 1.403 . S
C844 C845 1.404 . S
C844 C847 1.539 . S
C845 C841 1.408 . S
C845 C844 1.404 . S
C845 H857 0.930 . S
C846 C842 1.524 . S
C846 H858 0.956 . S
C846 H859 0.961 . S
C846 H860 0.961 . S
C847 C844 1.539 . S
C847 H861 0.958 . S
C847 H862 0.961 . S
C847 H863 0.960 . S
H848 C832 0.931 . S
H849 C837 0.929 . S
H850 C838 0.960 . S
H851 C838 0.962 . S
H852 C838 0.960 . S
H853 C839 0.961 . S
H854 C839 0.961 . S
H855 C839 0.961 . S
H856 C840 0.931 . S
H857 C845 0.930 . S
H858 C846 0.956 . S
H859 C846 0.961 . S
H860 C846 0.961 . S
H861 C847 0.958 . S
H862 C847 0.961 . S
H863 C847 0.960 . S
C864 C865 1.391 . S
C864 C866 1.394 . S
C864 H880 0.931 . S
C865 C864 1.391 . S
C865 C869 1.376 . S
C866 C864 1.394 . S
C866 C867 1.369 . S
C866 C870 1.531 . S
C867 C866 1.369 . S
C867 C868 1.410 . S
C867 C875 1.503 . S
C868 C867 1.410 . S
C868 C869 1.392 . S
C868 C871 1.511 . S
C869 C865 1.376 . S
C869 C868 1.392 . S
C869 H881 0.929 . S
C870 C866 1.531 . S
C870 H882 0.960 . S
C870 H883 0.962 . S
C870 H884 0.960 . S
C871 C868 1.511 . S
C871 H885 0.961 . S
C871 H886 0.961 . S
C871 H887 0.961 . S
C872 C873 1.370 . S
C872 C874 1.363 . S
C872 H888 0.931 . S
C873 C872 1.370 . S
C873 C877 1.408 . S
C874 C872 1.363 . S
C874 C875 1.370 . S
C874 C878 1.524 . S
C875 C867 1.503 . S
C875 C874 1.370 . S
C875 C876 1.403 . S
C876 C875 1.403 . S
C876 C877 1.404 . S
C876 C879 1.539 . S
C877 C873 1.408 . S
C877 C876 1.404 . S
C877 H889 0.930 . S
C878 C874 1.524 . S
C878 H890 0.956 . S
C878 H891 0.961 . S
C878 H892 0.961 . S
C879 C876 1.539 . S
C879 H893 0.958 . S
C879 H894 0.961 . S
C879 H895 0.960 . S
H880 C864 0.931 . S
H881 C869 0.929 . S
H882 C870 0.960 . S
H883 C870 0.962 . S
H884 C870 0.960 . S
H885 C871 0.961 . S
H886 C871 0.961 . S
H887 C871 0.961 . S
H888 C872 0.931 . S
H889 C877 0.930 . S
H890 C878 0.956 . S
H891 C878 0.961 . S
H892 C878 0.961 . S
H893 C879 0.958 . S
H894 C879 0.961 . S
H895 C879 0.960 . S
C896 C897 1.391 . S
C896 C898 1.394 . S
C896 H912 0.931 . S
C897 C896 1.391 . S
C897 C901 1.376 . S
C898 C896 1.394 . S
C898 C899 1.369 . S
C898 C902 1.531 . S
C899 C898 1.369 . S
C899 C900 1.410 . S
C899 C907 1.503 . S
C900 C899 1.410 . S
C900 C901 1.392 . S
C900 C903 1.511 . S
C901 C897 1.376 . S
C901 C900 1.392 . S
C901 H913 0.929 . S
C902 C898 1.531 . S
C902 H914 0.960 . S
C902 H915 0.962 . S
C902 H916 0.960 . S
C903 C900 1.511 . S
C903 H917 0.961 . S
C903 H918 0.961 . S
C903 H919 0.961 . S
C904 C905 1.370 . S
C904 C906 1.363 . S
C904 H920 0.931 . S
C905 C904 1.370 . S
C905 C909 1.408 . S
C906 C904 1.363 . S
C906 C907 1.370 . S
C906 C910 1.524 . S
C907 C899 1.503 . S
C907 C906 1.370 . S
C907 C908 1.403 . S
C908 C907 1.403 . S
C908 C909 1.404 . S
C908 C911 1.539 . S
C909 C905 1.408 . S
C909 C908 1.404 . S
C909 H921 0.930 . S
C910 C906 1.524 . S
C910 H922 0.956 . S
C910 H923 0.961 . S
C910 H924 0.961 . S
C911 C908 1.539 . S
C911 H925 0.958 . S
C911 H926 0.961 . S
C911 H927 0.960 . S
H912 C896 0.931 . S
H913 C901 0.929 . S
H914 C902 0.960 . S
H915 C902 0.962 . S
H916 C902 0.960 . S
H917 C903 0.961 . S
H918 C903 0.961 . S
H919 C903 0.961 . S
H920 C904 0.931 . S
H921 C909 0.930 . S
H922 C910 0.956 . S
H923 C910 0.961 . S
H924 C910 0.961 . S
H925 C911 0.958 . S
H926 C911 0.961 . S
H927 C911 0.960 . S
C928 C929 1.391 . S
C928 C930 1.394 . S
C928 H944 0.931 . S
C929 C928 1.391 . S
C929 C933 1.376 . S
C930 C928 1.394 . S
C930 C931 1.369 . S
C930 C934 1.531 . S
C931 C930 1.369 . S
C931 C932 1.410 . S
C931 C939 1.503 . S
C932 C931 1.410 . S
C932 C933 1.392 . S
C932 C935 1.511 . S
C933 C929 1.376 . S
C933 C932 1.392 . S
C933 H945 0.929 . S
C934 C930 1.531 . S
C934 H946 0.960 . S
C934 H947 0.962 . S
C934 H948 0.960 . S
C935 C932 1.511 . S
C935 H949 0.961 . S
C935 H950 0.961 . S
C935 H951 0.961 . S
C936 C937 1.370 . S
C936 C938 1.363 . S
C936 H952 0.931 . S
C937 C936 1.370 . S
C937 C941 1.408 . S
C938 C936 1.363 . S
C938 C939 1.370 . S
C938 C942 1.524 . S
C939 C931 1.503 . S
C939 C938 1.370 . S
C939 C940 1.403 . S
C940 C939 1.403 . S
C940 C941 1.404 . S
C940 C943 1.539 . S
C941 C937 1.408 . S
C941 C940 1.404 . S
C941 H953 0.930 . S
C942 C938 1.524 . S
C942 H954 0.956 . S
C942 H955 0.961 . S
C942 H956 0.961 . S
C943 C940 1.539 . S
C943 H957 0.958 . S
C943 H958 0.961 . S
C943 H959 0.960 . S
H944 C928 0.931 . S
H945 C933 0.929 . S
H946 C934 0.960 . S
H947 C934 0.962 . S
H948 C934 0.960 . S
H949 C935 0.961 . S
H950 C935 0.961 . S
H951 C935 0.961 . S
H952 C936 0.931 . S
H953 C941 0.930 . S
H954 C942 0.956 . S
H955 C942 0.961 . S
H956 C942 0.961 . S
H957 C943 0.958 . S
H958 C943 0.961 . S
H959 C943 0.960 . S
C960 C961 1.391 . S
C960 C962 1.394 . S
C960 H976 0.931 . S
C961 C960 1.391 . S
C961 C965 1.376 . S
C962 C960 1.394 . S
C962 C963 1.369 . S
C962 C966 1.531 . S
C963 C962 1.369 . S
C963 C964 1.410 . S
C963 C971 1.503 . S
C964 C963 1.410 . S
C964 C965 1.392 . S
C964 C967 1.511 . S
C965 C961 1.376 . S
C965 C964 1.392 . S
C965 H977 0.929 . S
C966 C962 1.531 . S
C966 H978 0.960 . S
C966 H979 0.962 . S
C966 H980 0.960 . S
C967 C964 1.511 . S
C967 H981 0.961 . S
C967 H982 0.961 . S
C967 H983 0.961 . S
C968 C969 1.370 . S
C968 C970 1.363 . S
C968 H984 0.931 . S
C969 C968 1.370 . S
C969 C973 1.408 . S
C970 C968 1.363 . S
C970 C971 1.370 . S
C970 C974 1.524 . S
C971 C963 1.503 . S
C971 C970 1.370 . S
C971 C972 1.403 . S
C972 C971 1.403 . S
C972 C973 1.404 . S
C972 C975 1.539 . S
C973 C969 1.408 . S
C973 C972 1.404 . S
C973 H985 0.930 . S
C974 C970 1.524 . S
C974 H986 0.956 . S
C974 H987 0.961 . S
C974 H988 0.961 . S
C975 C972 1.539 . S
C975 H989 0.958 . S
C975 H990 0.961 . S
C975 H991 0.960 . S
H976 C960 0.931 . S
H977 C965 0.929 . S
H978 C966 0.960 . S
H979 C966 0.962 . S
H980 C966 0.960 . S
H981 C967 0.961 . S
H982 C967 0.961 . S
H983 C967 0.961 . S
H984 C968 0.931 . S
H985 C973 0.930 . S
H986 C974 0.956 . S
H987 C974 0.961 . S
H988 C974 0.961 . S
H989 C975 0.958 . S
H990 C975 0.961 . S
H991 C975 0.960 . S
C992 C993 1.391 . S
C992 C994 1.394 . S
C992 H1008 0.931 . S
C993 C992 1.391 . S
C993 C997 1.376 . S
C994 C992 1.394 . S
C994 C995 1.369 . S
C994 C998 1.531 . S
C995 C994 1.369 . S
C995 C996 1.410 . S
C995 C1003 1.503 . S
C996 C995 1.410 . S
C996 C997 1.392 . S
C996 C999 1.511 . S
C997 C993 1.376 . S
C997 C996 1.392 . S
C997 H1009 0.929 . S
C998 C994 1.531 . S
C998 H1010 0.960 . S
C998 H1011 0.962 . S
C998 H1012 0.960 . S
C999 C996 1.511 . S
C999 H1013 0.961 . S
C999 H1014 0.961 . S
C999 H1015 0.961 . S
C1000 C1001 1.370 . S
C1000 C1002 1.363 . S
C1000 H1016 0.931 . S
C1001 C1000 1.370 . S
C1001 C1005 1.408 . S
C1002 C1000 1.363 . S
C1002 C1003 1.370 . S
C1002 C1006 1.524 . S
C1003 C995 1.503 . S
C1003 C1002 1.370 . S
C1003 C1004 1.403 . S
C1004 C1003 1.403 . S
C1004 C1005 1.404 . S
C1004 C1007 1.539 . S
C1005 C1001 1.408 . S
C1005 C1004 1.404 . S
C1005 H1017 0.930 . S
C1006 C1002 1.524 . S
C1006 H1018 0.956 . S
C1006 H1019 0.961 . S
C1006 H1020 0.961 . S
C1007 C1004 1.539 . S
C1007 H1021 0.958 . S
C1007 H1022 0.961 . S
C1007 H1023 0.960 . S
H1008 C992 0.931 . S
H1009 C997 0.929 . S
H1010 C998 0.960 . S
H1011 C998 0.962 . S
H1012 C998 0.960 . S
H1013 C999 0.961 . S
H1014 C999 0.961 . S
H1015 C999 0.961 . S
H1016 C1000 0.931 . S
H1017 C1005 0.930 . S
H1018 C1006 0.956 . S
H1019 C1006 0.961 . S
H1020 C1006 0.961 . S
H1021 C1007 0.958 . S
H1022 C1007 0.961 . S
H1023 C1007 0.960 . S
C1024 C1025 1.391 . S
C1024 C1026 1.394 . S
C1024 H1040 0.931 . S
C1025 C1024 1.391 . S
C1025 C1029 1.376 . S
C1026 C1024 1.394 . S
C1026 C1027 1.369 . S
C1026 C1030 1.531 . S
C1027 C1026 1.369 . S
C1027 C1028 1.410 . S
C1027 C1035 1.503 . S
C1028 C1027 1.410 . S
C1028 C1029 1.392 . S
C1028 C1031 1.511 . S
C1029 C1025 1.376 . S
C1029 C1028 1.392 . S
C1029 H1041 0.929 . S
C1030 C1026 1.531 . S
C1030 H1042 0.960 . S
C1030 H1043 0.962 . S
C1030 H1044 0.960 . S
C1031 C1028 1.511 . S
C1031 H1045 0.961 . S
C1031 H1046 0.961 . S
C1031 H1047 0.961 . S
C1032 C1033 1.370 . S
C1032 C1034 1.363 . S
C1032 H1048 0.931 . S
C1033 C1032 1.370 . S
C1033 C1037 1.408 . S
C1034 C1032 1.363 . S
C1034 C1035 1.370 . S
C1034 C1038 1.524 . S
C1035 C1027 1.503 . S
C1035 C1034 1.370 . S
C1035 C1036 1.403 . S
C1036 C1035 1.403 . S
C1036 C1037 1.404 . S
C1036 C1039 1.539 . S
C1037 C1033 1.408 . S
C1037 C1036 1.404 . S
C1037 H1049 0.930 . S
C1038 C1034 1.524 . S
C1038 H1050 0.956 . S
C1038 H1051 0.961 . S
C1038 H1052 0.961 . S
C1039 C1036 1.539 . S
C1039 H1053 0.958 . S
C1039 H1054 0.961 . S
C1039 H1055 0.960 . S
H1040 C1024 0.931 . S
H1041 C1029 0.929 . S
H1042 C1030 0.960 . S
H1043 C1030 0.962 . S
H1044 C1030 0.960 . S
H1045 C1031 0.961 . S
H1046 C1031 0.961 . S
H1047 C1031 0.961 . S
H1048 C1032 0.931 . S
H1049 C1037 0.930 . S
H1050 C1038 0.956 . S
H1051 C1038 0.961 . S
H1052 C1038 0.961 . S
H1053 C1039 0.958 . S
H1054 C1039 0.961 . S
H1055 C1039 0.960 . S
C1056 C1057 1.391 . S
C1056 C1058 1.394 . S
C1056 H1072 0.931 . S
C1057 C1056 1.391 . S
C1057 C1061 1.376 . S
C1058 C1056 1.394 . S
C1058 C1059 1.369 . S
C1058 C1062 1.531 . S
C1059 C1058 1.369 . S
C1059 C1060 1.410 . S
C1059 C1067 1.503 1_445 S
C1060 C1059 1.410 . S
C1060 C1061 1.392 . S
C1060 C1063 1.511 . S
C1061 C1057 1.376 . S
C1061 C1060 1.392 . S
C1061 H1073 0.929 . S
C1062 C1058 1.531 . S
C1062 H1074 0.960 1_455 S
C1062 H1075 0.962 1_545 S
C1062 H1076 0.960 . S
C1063 C1060 1.511 . S
C1063 H1077 0.961 . S
C1063 H1078 0.961 1_455 S
C1063 H1079 0.961 1_455 S
C1064 C1065 1.370 . S
C1064 C1066 1.363 . S
C1064 H1080 0.931 . S
C1065 C1064 1.370 . S
C1065 C1069 1.408 . S
C1066 C1064 1.363 . S
C1066 C1067 1.370 . S
C1066 C1070 1.524 1_655 S
C1067 C1059 1.503 1_665 S
C1067 C1066 1.370 . S
C1067 C1068 1.403 1_565 S
C1068 C1067 1.403 1_545 S
C1068 C1069 1.404 1_545 S
C1068 C1071 1.539 . S
C1069 C1065 1.408 . S
C1069 C1068 1.404 1_565 S
C1069 H1081 0.930 . S
C1070 C1066 1.524 1_455 S
C1070 H1082 0.956 . S
C1070 H1083 0.961 . S
C1070 H1084 0.961 . S
C1071 C1068 1.539 . S
C1071 H1085 0.958 . S
C1071 H1086 0.961 . S
C1071 H1087 0.960 . S
H1072 C1056 0.931 . S
H1073 C1061 0.929 . S
H1074 C1062 0.960 1_655 S
H1075 C1062 0.962 1_565 S
H1076 C1062 0.960 . S
H1077 C1063 0.961 . S
H1078 C1063 0.961 1_655 S
H1079 C1063 0.961 1_655 S
H1080 C1064 0.931 . S
H1081 C1069 0.930 . S
H1082 C1070 0.956 . S
H1083 C1070 0.961 . S
H1084 C1070 0.961 . S
H1085 C1071 0.958 . S
H1086 C1071 0.961 . S
H1087 C1071 0.960 . S
C1088 C1089 1.391 . S
C1088 C1090 1.394 . S
C1088 H1104 0.931 . S
C1089 C1088 1.391 . S
C1089 C1093 1.376 . S
C1090 C1088 1.394 . S
C1090 C1091 1.369 . S
C1090 C1094 1.531 1_565 S
C1091 C1090 1.369 . S
C1091 C1092 1.410 . S
C1091 C1099 1.503 1_465 S
C1092 C1091 1.410 . S
C1092 C1093 1.392 . S
C1092 C1095 1.528 . S
C1093 C1089 1.376 . S
C1093 C1092 1.392 . S
C1093 H1105 0.929 . S
C1094 C1090 1.531 1_545 S
C1094 H1106 0.960 . S
C1094 H1107 0.962 1_545 S
C1094 H1108 0.960 . S
C1095 C1092 1.528 . S
C1095 H1109 0.955 1_455 S
C1095 H1110 0.933 1_455 S
C1095 H1111 0.979 . S
C1096 C1097 1.370 . S
C1096 C1098 1.363 . S
C1096 H1112 0.931 . S
C1097 C1096 1.370 . S
C1097 C1101 1.408 . S
C1098 C1096 1.363 . S
C1098 C1099 1.370 . S
C1098 C1102 1.524 1_545 S
C1099 C1091 1.503 1_645 S
C1099 C1098 1.370 . S
C1099 C1100 1.403 1_655 S
C1100 C1099 1.403 1_455 S
C1100 C1101 1.404 1_455 S
C1100 C1103 1.539 . S
C1101 C1097 1.408 . S
C1101 C1100 1.404 1_655 S
C1101 H1113 0.930 . S
C1102 C1098 1.524 1_565 S
C1102 H1114 0.956 . S
C1102 H1115 0.961 . S
C1102 H1116 0.961 . S
C1103 C1100 1.539 . S
C1103 H1117 0.958 . S
C1103 H1118 0.961 . S
C1103 H1119 0.960 . S
H1104 C1088 0.931 . S
H1105 C1093 0.929 . S
H1106 C1094 0.960 . S
H1107 C1094 0.962 1_565 S
H1108 C1094 0.960 . S
H1109 C1095 0.955 1_655 S
H1110 C1095 0.933 1_655 S
H1111 C1095 0.979 . S
H1112 C1096 0.931 . S
H1113 C1101 0.930 . S
H1114 C1102 0.956 . S
H1115 C1102 0.961 . S
H1116 C1102 0.961 . S
H1117 C1103 0.958 . S
H1118 C1103 0.961 . S
H1119 C1103 0.960 . S
C1120 C1121 1.391 . S
C1120 C1122 1.394 . S
C1120 H1136 0.931 . S
C1121 C1120 1.391 . S
C1121 C1125 1.376 1_554 S
C1122 C1120 1.394 . S
C1122 C1123 1.369 . S
C1122 C1126 1.531 1_455 S
C1123 C1122 1.369 . S
C1123 C1124 1.410 1_554 S
C1123 C1131 1.503 1_455 S
C1124 C1123 1.410 1_556 S
C1124 C1125 1.392 . S
C1124 C1127 1.511 . S
C1125 C1121 1.376 1_556 S
C1125 C1124 1.392 . S
C1125 H1137 0.929 . S
C1126 C1122 1.531 1_655 S
C1126 H1138 0.960 . S
C1126 H1139 0.962 . S
C1126 H1140 0.960 . S
C1127 C1124 1.511 . S
C1127 H1141 0.961 . S
C1127 H1142 0.961 . S
C1127 H1143 0.961 1_556 S
C1128 C1129 1.378 . S
C1128 C1130 1.363 . S
C1128 H1144 0.931 . S
C1129 C1128 1.378 . S
C1129 C1133 1.400 1_556 S
C1130 C1128 1.363 . S
C1130 C1131 1.370 1_556 S
C1130 C1134 1.524 . S
C1131 C1123 1.503 1_655 S
C1131 C1130 1.370 1_554 S
C1131 C1132 1.403 . S
C1132 C1131 1.403 . S
C1132 C1133 1.404 . S
C1132 C1135 1.539 . S
C1133 C1129 1.400 1_554 S
C1133 C1132 1.404 . S
C1133 H1145 0.930 . S
C1134 C1130 1.524 . S
C1134 H1146 0.956 . S
C1134 H1147 0.945 1_655 S
C1134 H1148 0.961 . S
C1135 C1132 1.539 . S
C1135 H1149 0.958 . S
C1135 H1150 0.961 . S
C1135 H1151 0.960 1_655 S
H1136 C1120 0.931 . S
H1137 C1125 0.929 . S
H1138 C1126 0.960 . S
H1139 C1126 0.962 . S
H1140 C1126 0.960 . S
H1141 C1127 0.961 . S
H1142 C1127 0.961 . S
H1143 C1127 0.961 1_554 S
H1144 C1128 0.931 . S
H1145 C1133 0.930 . S
H1146 C1134 0.956 . S
H1147 C1134 0.945 1_455 S
H1148 C1134 0.961 . S
H1149 C1135 0.958 . S
H1150 C1135 0.961 . S
H1151 C1135 0.960 1_455 S
C1152 C1153 1.391 1_556 S
C1152 C1154 1.394 1_556 S
C1152 H1168 0.931 . S
C1153 C1152 1.391 1_554 S
C1153 C1157 1.376 . S
C1154 C1152 1.394 1_554 S
C1154 C1155 1.369 . S
C1154 C1158 1.531 1_564 S
C1155 C1154 1.369 . S
C1155 C1156 1.410 . S
C1155 C1163 1.503 1_565 S
C1156 C1155 1.410 . S
C1156 C1157 1.392 . S
C1156 C1159 1.511 . S
C1157 C1153 1.376 . S
C1157 C1156 1.392 . S
C1157 H1169 0.929 . S
C1158 C1154 1.531 1_546 S
C1158 H1170 0.960 1_556 S
C1158 H1171 0.962 . S
C1158 H1172 0.960 1_556 S
C1159 C1156 1.511 . S
C1159 H1173 0.961 . S
C1159 H1174 0.961 . S
C1159 H1175 0.961 . S
C1160 C1161 1.370 1_556 S
C1160 C1162 1.363 . S
C1160 H1176 0.931 . S
C1161 C1160 1.370 1_554 S
C1161 C1165 1.408 . S
C1162 C1160 1.363 . S
C1162 C1163 1.370 1_556 S
C1162 C1166 1.524 . S
C1163 C1155 1.503 1_545 S
C1163 C1162 1.370 1_554 S
C1163 C1164 1.403 . S
C1164 C1163 1.403 . S
C1164 C1165 1.404 . S
C1164 C1167 1.539 . S
C1165 C1161 1.408 . S
C1165 C1164 1.404 . S
C1165 H1177 0.930 . S
C1166 C1162 1.524 . S
C1166 H1178 0.956 . S
C1166 H1179 0.961 1_545 S
C1166 H1180 0.961 . S
C1167 C1164 1.539 . S
C1167 H1181 0.958 . S
C1167 H1182 0.961 . S
C1167 H1183 0.960 . S
H1168 C1152 0.931 . S
H1169 C1157 0.929 . S
H1170 C1158 0.960 1_554 S
H1171 C1158 0.962 . S
H1172 C1158 0.960 1_554 S
H1173 C1159 0.961 . S
H1174 C1159 0.961 . S
H1175 C1159 0.961 . S
H1176 C1160 0.931 . S
H1177 C1165 0.930 . S
H1178 C1166 0.956 . S
H1179 C1166 0.961 1_565 S
H1180 C1166 0.961 . S
H1181 C1167 0.958 . S
H1182 C1167 0.961 . S
H1183 C1167 0.960 . S
C1184 C1185 1.391 . S
C1184 C1186 1.394 . S
C1184 H1200 0.931 . S
C1185 C1184 1.391 . S
C1185 C1189 1.376 . S
C1186 C1184 1.394 . S
C1186 C1187 1.369 . S
C1186 C1190 1.531 . S
C1187 C1186 1.369 . S
C1187 C1188 1.410 . S
C1187 C1195 1.503 . S
C1188 C1187 1.410 . S
C1188 C1189 1.392 . S
C1188 C1191 1.511 . S
C1189 C1185 1.376 . S
C1189 C1188 1.392 . S
C1189 H1201 0.929 . S
C1190 C1186 1.531 . S
C1190 H1202 0.960 . S
C1190 H1203 0.962 . S
C1190 H1204 0.960 . S
C1191 C1188 1.511 . S
C1191 H1205 0.961 . S
C1191 H1206 0.961 . S
C1191 H1207 0.961 . S
C1192 C1193 1.370 . S
C1192 C1194 1.363 . S
C1192 H1208 0.931 . S
C1193 C1192 1.370 . S
C1193 C1197 1.408 . S
C1194 C1192 1.363 . S
C1194 C1195 1.370 . S
C1194 C1198 1.524 . S
C1195 C1187 1.503 . S
C1195 C1194 1.370 . S
C1195 C1196 1.403 . S
C1196 C1195 1.403 . S
C1196 C1197 1.404 . S
C1196 C1199 1.539 . S
C1197 C1193 1.408 . S
C1197 C1196 1.404 . S
C1197 H1209 0.930 . S
C1198 C1194 1.524 . S
C1198 H1210 0.956 . S
C1198 H1211 0.961 . S
C1198 H1212 0.961 . S
C1199 C1196 1.539 . S
C1199 H1213 0.958 . S
C1199 H1214 0.961 . S
C1199 H1215 0.960 . S
H1200 C1184 0.931 . S
H1201 C1189 0.929 . S
H1202 C1190 0.960 . S
H1203 C1190 0.962 . S
H1204 C1190 0.960 . S
H1205 C1191 0.961 . S
H1206 C1191 0.961 . S
H1207 C1191 0.961 . S
H1208 C1192 0.931 . S
H1209 C1197 0.930 . S
H1210 C1198 0.956 . S
H1211 C1198 0.961 . S
H1212 C1198 0.961 . S
H1213 C1199 0.958 . S
H1214 C1199 0.961 . S
H1215 C1199 0.960 . S
C1216 C1217 1.391 . S
C1216 C1218 1.394 . S
C1216 H1232 0.931 . S
C1217 C1216 1.391 . S
C1217 C1221 1.376 . S
C1218 C1216 1.394 . S
C1218 C1219 1.369 . S
C1218 C1222 1.531 . S
C1219 C1218 1.369 . S
C1219 C1220 1.410 . S
C1219 C1227 1.503 . S
C1220 C1219 1.410 . S
C1220 C1221 1.392 . S
C1220 C1223 1.511 . S
C1221 C1217 1.376 . S
C1221 C1220 1.392 . S
C1221 H1233 0.929 . S
C1222 C1218 1.531 . S
C1222 H1234 0.960 . S
C1222 H1235 0.962 . S
C1222 H1236 0.960 . S
C1223 C1220 1.511 . S
C1223 H1237 0.961 . S
C1223 H1238 0.961 . S
C1223 H1239 0.961 . S
C1224 C1225 1.370 . S
C1224 C1226 1.363 . S
C1224 H1240 0.931 . S
C1225 C1224 1.370 . S
C1225 C1229 1.408 . S
C1226 C1224 1.363 . S
C1226 C1227 1.370 . S
C1226 C1230 1.524 . S
C1227 C1219 1.503 . S
C1227 C1226 1.370 . S
C1227 C1228 1.403 . S
C1228 C1227 1.403 . S
C1228 C1229 1.404 . S
C1228 C1231 1.539 . S
C1229 C1225 1.408 . S
C1229 C1228 1.404 . S
C1229 H1241 0.930 . S
C1230 C1226 1.524 . S
C1230 H1242 0.956 . S
C1230 H1243 0.961 . S
C1230 H1244 0.961 . S
C1231 C1228 1.539 . S
C1231 H1245 0.958 . S
C1231 H1246 0.961 . S
C1231 H1247 0.960 . S
H1232 C1216 0.931 . S
H1233 C1221 0.929 . S
H1234 C1222 0.960 . S
H1235 C1222 0.962 . S
H1236 C1222 0.960 . S
H1237 C1223 0.961 . S
H1238 C1223 0.961 . S
H1239 C1223 0.961 . S
H1240 C1224 0.931 . S
H1241 C1229 0.930 . S
H1242 C1230 0.956 . S
H1243 C1230 0.961 . S
H1244 C1230 0.961 . S
H1245 C1231 0.958 . S
H1246 C1231 0.961 . S
H1247 C1231 0.960 . S
C1248 C1249 1.391 . S
C1248 C1250 1.394 . S
C1248 H1264 0.931 . S
C1249 C1248 1.391 . S
C1249 C1253 1.376 . S
C1250 C1248 1.394 . S
C1250 C1251 1.369 . S
C1250 C1254 1.531 . S
C1251 C1250 1.369 . S
C1251 C1252 1.410 1_565 S
C1251 C1259 1.503 1_565 S
C1252 C1251 1.410 1_545 S
C1252 C1253 1.392 1_545 S
C1252 C1255 1.511 . S
C1253 C1249 1.376 . S
C1253 C1252 1.392 1_565 S
C1253 H1265 0.929 . S
C1254 C1250 1.531 . S
C1254 H1266 0.960 . S
C1254 H1267 0.962 . S
C1254 H1268 0.960 . S
C1255 C1252 1.511 . S
C1255 H1269 0.961 . S
C1255 H1270 0.961 . S
C1255 H1271 0.961 . S
C1256 C1257 1.370 . S
C1256 C1258 1.363 . S
C1256 H1272 0.931 . S
C1257 C1256 1.370 . S
C1257 C1261 1.408 . S
C1258 C1256 1.363 . S
C1258 C1259 1.370 . S
C1258 C1262 1.524 1_545 S
C1259 C1251 1.503 1_545 S
C1259 C1258 1.370 . S
C1259 C1260 1.403 . S
C1260 C1259 1.403 . S
C1260 C1261 1.404 . S
C1260 C1263 1.539 . S
C1261 C1257 1.408 . S
C1261 C1260 1.404 . S
C1261 H1273 0.930 . S
C1262 C1258 1.524 1_565 S
C1262 H1274 0.956 . S
C1262 H1275 0.967 . S
C1262 H1276 0.961 1_565 S
C1263 C1260 1.539 . S
C1263 H1277 0.958 . S
C1263 H1278 0.961 . S
C1263 H1279 0.960 . S
H1264 C1248 0.931 . S
H1265 C1253 0.929 . S
H1266 C1254 0.960 . S
H1267 C1254 0.962 . S
H1268 C1254 0.960 . S
H1269 C1255 0.961 . S
H1270 C1255 0.961 . S
H1271 C1255 0.961 . S
H1272 C1256 0.931 . S
H1273 C1261 0.930 . S
H1274 C1262 0.956 . S
H1275 C1262 0.967 . S
H1276 C1262 0.961 1_545 S
H1277 C1263 0.958 . S
H1278 C1263 0.961 . S
H1279 C1263 0.960 . S
C1280 C1281 1.391 . S
C1280 C1282 1.394 . S
C1280 H1296 0.931 . S
C1281 C1280 1.391 . S
C1281 C1285 1.376 . S
C1282 C1280 1.394 . S
C1282 C1283 1.369 . S
C1282 C1286 1.531 . S
C1283 C1282 1.369 . S
C1283 C1284 1.410 1_655 S
C1283 C1291 1.503 1_655 S
C1284 C1283 1.410 1_455 S
C1284 C1285 1.392 1_455 S
C1284 C1287 1.511 . S
C1285 C1281 1.376 . S
C1285 C1284 1.392 1_655 S
C1285 H1297 0.929 . S
C1286 C1282 1.531 . S
C1286 H1298 0.960 . S
C1286 H1299 0.962 . S
C1286 H1300 0.960 . S
C1287 C1284 1.511 . S
C1287 H1301 0.961 . S
C1287 H1302 0.961 . S
C1287 H1303 0.961 . S
C1288 C1289 1.370 . S
C1288 C1290 1.363 . S
C1288 H1304 0.931 . S
C1289 C1288 1.370 . S
C1289 C1293 1.408 . S
C1290 C1288 1.363 . S
C1290 C1291 1.370 . S
C1290 C1294 1.524 1_455 S
C1291 C1283 1.503 1_455 S
C1291 C1290 1.370 . S
C1291 C1292 1.403 . S
C1292 C1291 1.403 . S
C1292 C1293 1.404 . S
C1292 C1295 1.539 . S
C1293 C1289 1.408 . S
C1293 C1292 1.404 . S
C1293 H1305 0.930 . S
C1294 C1290 1.524 1_655 S
C1294 H1306 0.956 . S
C1294 H1307 0.961 . S
C1294 H1308 0.961 . S
C1295 C1292 1.539 . S
C1295 H1309 0.958 . S
C1295 H1310 0.961 . S
C1295 H1311 0.960 . S
H1296 C1280 0.931 . S
H1297 C1285 0.929 . S
H1298 C1286 0.960 . S
H1299 C1286 0.962 . S
H1300 C1286 0.960 . S
H1301 C1287 0.961 . S
H1302 C1287 0.961 . S
H1303 C1287 0.961 . S
H1304 C1288 0.931 . S
H1305 C1293 0.930 . S
H1306 C1294 0.956 . S
H1307 C1294 0.961 . S
H1308 C1294 0.961 . S
H1309 C1295 0.958 . S
H1310 C1295 0.961 . S
H1311 C1295 0.960 . S
C1312 C1313 1.391 . S
C1312 C1314 1.394 . S
C1312 H1328 0.931 . S
C1313 C1312 1.391 . S
C1313 C1317 1.376 . S
C1314 C1312 1.394 . S
C1314 C1315 1.369 . S
C1314 C1318 1.531 . S
C1315 C1314 1.369 . S
C1315 C1316 1.410 . S
C1315 C1323 1.503 . S
C1316 C1315 1.410 . S
C1316 C1317 1.392 . S
C1316 C1319 1.511 1_565 S
C1317 C1313 1.376 . S
C1317 C1316 1.392 . S
C1317 H1329 0.929 . S
C1318 C1314 1.531 . S
C1318 H1330 0.960 . S
C1318 H1331 0.962 . S
C1318 H1332 0.960 . S
C1319 C1316 1.511 1_545 S
C1319 H1333 0.961 . S
C1319 H1334 0.961 . S
C1319 H1335 0.961 . S
C1320 C1321 1.370 . S
C1320 C1322 1.363 . S
C1320 H1336 0.931 . S
C1321 C1320 1.370 . S
C1321 C1325 1.408 . S
C1322 C1320 1.363 . S
C1322 C1323 1.370 . S
C1322 C1326 1.524 . S
C1323 C1315 1.503 . S
C1323 C1322 1.370 . S
C1323 C1324 1.403 . S
C1324 C1323 1.403 . S
C1324 C1325 1.404 . S
C1324 C1327 1.539 . S
C1325 C1321 1.408 . S
C1325 C1324 1.404 . S
C1325 H1337 0.930 . S
C1326 C1322 1.524 . S
C1326 H1338 0.956 . S
C1326 H1339 0.961 . S
C1326 H1340 0.961 . S
C1327 C1324 1.539 . S
C1327 H1341 0.958 . S
C1327 H1342 0.961 . S
C1327 H1343 0.960 . S
H1328 C1312 0.931 . S
H1329 C1317 0.929 . S
H1330 C1318 0.960 . S
H1331 C1318 0.962 . S
H1332 C1318 0.960 . S
H1333 C1319 0.961 . S
H1334 C1319 0.961 . S
H1335 C1319 0.961 . S
H1336 C1320 0.931 . S
H1337 C1325 0.930 . S
H1338 C1326 0.956 . S
H1339 C1326 0.961 . S
H1340 C1326 0.961 . S
H1341 C1327 0.958 . S
H1342 C1327 0.961 . S
H1343 C1327 0.960 . S
C1344 C1345 1.391 . S
C1344 C1346 1.394 . S
C1344 H1360 0.931 1_655 S
C1345 C1344 1.391 . S
C1345 C1349 1.376 . S
C1346 C1344 1.394 . S
C1346 C1347 1.369 . S
C1346 C1350 1.531 . S
C1347 C1346 1.369 . S
C1347 C1348 1.410 . S
C1347 C1355 1.503 . S
C1348 C1347 1.410 . S
C1348 C1349 1.392 . S
C1348 C1351 1.511 . S
C1349 C1345 1.376 . S
C1349 C1348 1.392 . S
C1349 H1361 0.929 . S
C1350 C1346 1.531 . S
C1350 H1362 0.960 . S
C1350 H1363 0.962 . S
C1350 H1364 0.960 . S
C1351 C1348 1.511 . S
C1351 H1365 0.961 . S
C1351 H1366 0.961 . S
C1351 H1367 0.961 . S
C1352 C1353 1.370 . S
C1352 C1354 1.363 . S
C1352 H1368 0.931 . S
C1353 C1352 1.370 . S
C1353 C1357 1.408 . S
C1354 C1352 1.363 . S
C1354 C1355 1.370 . S
C1354 C1358 1.524 . S
C1355 C1347 1.503 . S
C1355 C1354 1.370 . S
C1355 C1356 1.403 . S
C1356 C1355 1.403 . S
C1356 C1357 1.404 . S
C1356 C1359 1.539 . S
C1357 C1353 1.408 . S
C1357 C1356 1.404 . S
C1357 H1369 0.930 . S
C1358 C1354 1.524 . S
C1358 H1370 0.956 1_655 S
C1358 H1371 0.961 . S
C1358 H1372 0.961 1_655 S
C1359 C1356 1.539 . S
C1359 H1373 0.958 . S
C1359 H1374 0.961 . S
C1359 H1375 0.960 . S
H1360 C1344 0.931 1_455 S
H1361 C1349 0.929 . S
H1362 C1350 0.960 . S
H1363 C1350 0.962 . S
H1364 C1350 0.960 . S
H1365 C1351 0.961 . S
H1366 C1351 0.961 . S
H1367 C1351 0.961 . S
H1368 C1352 0.931 . S
H1369 C1357 0.930 . S
H1370 C1358 0.956 1_455 S
H1371 C1358 0.961 . S
H1372 C1358 0.961 1_455 S
H1373 C1359 0.958 . S
H1374 C1359 0.961 . S
H1375 C1359 0.960 . S
C1376 C1377 1.391 . S
C1376 C1378 1.394 . S
C1376 H1392 0.931 . S
C1377 C1376 1.391 . S
C1377 C1381 1.376 . S
C1378 C1376 1.394 . S
C1378 C1379 1.369 . S
C1378 C1382 1.531 1_545 S
C1379 C1378 1.369 . S
C1379 C1380 1.410 . S
C1379 C1387 1.503 . S
C1380 C1379 1.410 . S
C1380 C1381 1.392 . S
C1380 C1383 1.511 . S
C1381 C1377 1.376 . S
C1381 C1380 1.392 . S
C1381 H1393 0.929 . S
C1382 C1378 1.531 1_565 S
C1382 H1394 0.960 . S
C1382 H1395 0.962 . S
C1382 H1396 0.960 . S
C1383 C1380 1.511 . S
C1383 H1397 0.961 . S
C1383 H1398 0.961 . S
C1383 H1399 0.961 . S
C1384 C1385 1.370 . S
C1384 C1386 1.363 . S
C1384 H1400 0.931 . S
C1385 C1384 1.370 . S
C1385 C1389 1.408 . S
C1386 C1384 1.363 . S
C1386 C1387 1.370 . S
C1386 C1390 1.524 . S
C1387 C1379 1.503 . S
C1387 C1386 1.370 . S
C1387 C1388 1.403 . S
C1388 C1387 1.403 . S
C1388 C1389 1.404 . S
C1388 C1391 1.539 . S
C1389 C1385 1.408 . S
C1389 C1388 1.404 . S
C1389 H1401 0.930 1_545 S
C1390 C1386 1.524 . S
C1390 H1402 0.956 . S
C1390 H1403 0.961 . S
C1390 H1404 0.961 . S
C1391 C1388 1.539 . S
C1391 H1405 0.958 1_545 S
C1391 H1406 0.961 . S
C1391 H1407 0.960 . S
H1392 C1376 0.931 . S
H1393 C1381 0.929 . S
H1394 C1382 0.960 . S
H1395 C1382 0.962 . S
H1396 C1382 0.960 . S
H1397 C1383 0.961 . S
H1398 C1383 0.961 . S
H1399 C1383 0.961 . S
H1400 C1384 0.931 . S
H1401 C1389 0.930 1_565 S
H1402 C1390 0.956 . S
H1403 C1390 0.961 . S
H1404 C1390 0.961 . S
H1405 C1391 0.958 1_565 S
H1406 C1391 0.961 . S
H1407 C1391 0.960 . S
C1408 C1409 1.391 1_655 S
C1408 C1410 1.394 1_655 S
C1408 H1424 0.931 . S
C1409 C1408 1.391 1_455 S
C1409 C1413 1.376 . S
C1410 C1408 1.394 1_455 S
C1410 C1411 1.369 . S
C1410 C1414 1.531 1_455 S
C1411 C1410 1.369 . S
C1411 C1412 1.410 . S
C1411 C1419 1.503 . S
C1412 C1411 1.410 . S
C1412 C1413 1.392 . S
C1412 C1415 1.511 . S
C1413 C1409 1.376 . S
C1413 C1412 1.392 . S
C1413 H1425 0.929 . S
C1414 C1410 1.531 1_655 S
C1414 H1426 0.960 1_655 S
C1414 H1427 0.962 . S
C1414 H1428 0.960 . S
C1415 C1412 1.511 . S
C1415 H1429 0.961 . S
C1415 H1430 0.961 . S
C1415 H1431 0.961 . S
C1416 C1417 1.370 . S
C1416 C1418 1.363 . S
C1416 H1432 0.931 . S
C1417 C1416 1.370 . S
C1417 C1421 1.408 . S
C1418 C1416 1.363 . S
C1418 C1419 1.370 . S
C1418 C1422 1.524 . S
C1419 C1411 1.503 . S
C1419 C1418 1.370 . S
C1419 C1420 1.403 . S
C1420 C1419 1.403 . S
C1420 C1421 1.404 . S
C1420 C1423 1.539 . S
C1421 C1417 1.408 . S
C1421 C1420 1.404 . S
C1421 H1433 0.930 . S
C1422 C1418 1.524 . S
C1422 H1434 0.956 . S
C1422 H1435 0.961 . S
C1422 H1436 0.961 . S
C1423 C1420 1.539 . S
C1423 H1437 0.958 . S
C1423 H1438 0.961 . S
C1423 H1439 0.960 . S
H1424 C1408 0.931 . S
H1425 C1413 0.929 . S
H1426 C1414 0.960 1_455 S
H1427 C1414 0.962 . S
H1428 C1414 0.960 . S
H1429 C1415 0.961 . S
H1430 C1415 0.961 . S
H1431 C1415 0.961 . S
H1432 C1416 0.931 . S
H1433 C1421 0.930 . S
H1434 C1422 0.956 . S
H1435 C1422 0.961 . S
H1436 C1422 0.961 . S
H1437 C1423 0.958 . S
H1438 C1423 0.961 . S
H1439 C1423 0.960 . S
C1440 C1441 1.391 . S
C1440 C1442 1.394 . S
C1440 H1456 0.931 . S
C1441 C1440 1.391 . S
C1441 C1445 1.376 . S
C1442 C1440 1.394 . S
C1442 C1443 1.369 . S
C1442 C1446 1.531 . S
C1443 C1442 1.369 . S
C1443 C1444 1.410 . S
C1443 C1451 1.503 . S
C1444 C1443 1.410 . S
C1444 C1445 1.392 . S
C1444 C1447 1.511 . S
C1445 C1441 1.376 . S
C1445 C1444 1.392 . S
C1445 H1457 0.929 . S
C1446 C1442 1.531 . S
C1446 H1458 0.960 . S
C1446 H1459 0.962 . S
C1446 H1460 0.960 . S
C1447 C1444 1.511 . S
C1447 H1461 0.961 . S
C1447 H1462 0.961 . S
C1447 H1463 0.961 . S
C1448 C1449 1.370 . S
C1448 C1450 1.363 . S
C1448 H1464 0.931 . S
C1449 C1448 1.370 . S
C1449 C1453 1.408 . S
C1450 C1448 1.363 . S
C1450 C1451 1.370 . S
C1450 C1454 1.524 . S
C1451 C1443 1.503 . S
C1451 C1450 1.370 . S
C1451 C1452 1.403 . S
C1452 C1451 1.403 . S
C1452 C1453 1.404 . S
C1452 C1455 1.539 . S
C1453 C1449 1.408 . S
C1453 C1452 1.404 . S
C1453 H1465 0.930 . S
C1454 C1450 1.524 . S
C1454 H1466 0.956 . S
C1454 H1467 0.961 . S
C1454 H1468 0.961 . S
C1455 C1452 1.539 . S
C1455 H1469 0.958 . S
C1455 H1470 0.961 . S
C1455 H1471 0.960 . S
H1456 C1440 0.931 . S
H1457 C1445 0.929 . S
H1458 C1446 0.960 . S
H1459 C1446 0.962 . S
H1460 C1446 0.960 . S
H1461 C1447 0.961 . S
H1462 C1447 0.961 . S
H1463 C1447 0.961 . S
H1464 C1448 0.931 . S
H1465 C1453 0.930 . S
H1466 C1454 0.956 . S
H1467 C1454 0.961 . S
H1468 C1454 0.961 . S
H1469 C1455 0.958 . S
H1470 C1455 0.961 . S
H1471 C1455 0.960 . S
C1472 C1473 1.391 . S
C1472 C1474 1.394 . S
C1472 H1488 0.931 . S
C1473 C1472 1.391 . S
C1473 C1477 1.376 . S
C1474 C1472 1.394 . S
C1474 C1475 1.369 . S
C1474 C1478 1.531 . S
C1475 C1474 1.369 . S
C1475 C1476 1.410 . S
C1475 C1483 1.503 . S
C1476 C1475 1.410 . S
C1476 C1477 1.392 . S
C1476 C1479 1.511 . S
C1477 C1473 1.376 . S
C1477 C1476 1.392 . S
C1477 H1489 0.929 . S
C1478 C1474 1.531 . S
C1478 H1490 0.960 . S
C1478 H1491 0.962 . S
C1478 H1492 0.960 . S
C1479 C1476 1.511 . S
C1479 H1493 0.961 . S
C1479 H1494 0.961 . S
C1479 H1495 0.961 . S
C1480 C1481 1.370 . S
C1480 C1482 1.363 . S
C1480 H1496 0.931 . S
C1481 C1480 1.370 . S
C1481 C1485 1.408 . S
C1482 C1480 1.363 . S
C1482 C1483 1.370 . S
C1482 C1486 1.524 . S
C1483 C1475 1.503 . S
C1483 C1482 1.370 . S
C1483 C1484 1.403 . S
C1484 C1483 1.403 . S
C1484 C1485 1.404 . S
C1484 C1487 1.539 . S
C1485 C1481 1.408 . S
C1485 C1484 1.404 . S
C1485 H1497 0.930 . S
C1486 C1482 1.524 . S
C1486 H1498 0.956 . S
C1486 H1499 0.961 . S
C1486 H1500 0.961 . S
C1487 C1484 1.539 . S
C1487 H1501 0.958 . S
C1487 H1502 0.961 . S
C1487 H1503 0.960 . S
H1488 C1472 0.931 . S
H1489 C1477 0.929 . S
H1490 C1478 0.960 . S
H1491 C1478 0.962 . S
H1492 C1478 0.960 . S
H1493 C1479 0.961 . S
H1494 C1479 0.961 . S
H1495 C1479 0.961 . S
H1496 C1480 0.931 . S
H1497 C1485 0.930 . S
H1498 C1486 0.956 . S
H1499 C1486 0.961 . S
H1500 C1486 0.961 . S
H1501 C1487 0.958 . S
H1502 C1487 0.961 . S
H1503 C1487 0.960 . S
C1504 C1505 1.391 . S
C1504 C1506 1.394 . S
C1504 H1520 0.931 . S
C1505 C1504 1.391 . S
C1505 C1509 1.376 . S
C1506 C1504 1.394 . S
C1506 C1507 1.369 . S
C1506 C1510 1.531 . S
C1507 C1506 1.369 . S
C1507 C1508 1.410 . S
C1507 C1515 1.503 . S
C1508 C1507 1.410 . S
C1508 C1509 1.392 . S
C1508 C1511 1.511 . S
C1509 C1505 1.376 . S
C1509 C1508 1.392 . S
C1509 H1521 0.929 . S
C1510 C1506 1.531 . S
C1510 H1522 0.960 . S
C1510 H1523 0.962 . S
C1510 H1524 0.960 . S
C1511 C1508 1.511 . S
C1511 H1525 0.961 . S
C1511 H1526 0.961 . S
C1511 H1527 0.961 . S
C1512 C1513 1.370 . S
C1512 C1514 1.363 . S
C1512 H1528 0.931 . S
C1513 C1512 1.370 . S
C1513 C1517 1.408 . S
C1514 C1512 1.363 . S
C1514 C1515 1.370 . S
C1514 C1518 1.524 . S
C1515 C1507 1.503 . S
C1515 C1514 1.370 . S
C1515 C1516 1.403 . S
C1516 C1515 1.403 . S
C1516 C1517 1.404 . S
C1516 C1519 1.539 . S
C1517 C1513 1.408 . S
C1517 C1516 1.404 . S
C1517 H1529 0.930 . S
C1518 C1514 1.524 . S
C1518 H1530 0.956 . S
C1518 H1531 0.961 . S
C1518 H1532 0.961 . S
C1519 C1516 1.539 . S
C1519 H1533 0.958 . S
C1519 H1534 0.961 . S
C1519 H1535 0.960 . S
H1520 C1504 0.931 . S
H1521 C1509 0.929 . S
H1522 C1510 0.960 . S
H1523 C1510 0.962 . S
H1524 C1510 0.960 . S
H1525 C1511 0.961 . S
H1526 C1511 0.961 . S
H1527 C1511 0.961 . S
H1528 C1512 0.931 . S
H1529 C1517 0.930 . S
H1530 C1518 0.956 . S
H1531 C1518 0.961 . S
H1532 C1518 0.961 . S
H1533 C1519 0.958 . S
H1534 C1519 0.961 . S
H1535 C1519 0.960 . S
C1536 C1537 1.391 . S
C1536 C1538 1.394 . S
C1536 H1552 0.931 . S
C1537 C1536 1.391 . S
C1537 C1541 1.376 . S
C1538 C1536 1.394 . S
C1538 C1539 1.369 . S
C1538 C1542 1.531 . S
C1539 C1538 1.369 . S
C1539 C1540 1.410 . S
C1539 C1547 1.503 . S
C1540 C1539 1.410 . S
C1540 C1541 1.392 . S
C1540 C1543 1.511 . S
C1541 C1537 1.376 . S
C1541 C1540 1.392 . S
C1541 H1553 0.929 . S
C1542 C1538 1.531 . S
C1542 H1554 0.960 . S
C1542 H1555 0.962 . S
C1542 H1556 0.960 . S
C1543 C1540 1.511 . S
C1543 H1557 0.961 . S
C1543 H1558 0.961 . S
C1543 H1559 0.961 . S
C1544 C1545 1.370 . S
C1544 C1546 1.363 . S
C1544 H1560 0.931 . S
C1545 C1544 1.370 . S
C1545 C1549 1.408 . S
C1546 C1544 1.363 . S
C1546 C1547 1.370 . S
C1546 C1550 1.524 . S
C1547 C1539 1.503 . S
C1547 C1546 1.370 . S
C1547 C1548 1.403 . S
C1548 C1547 1.403 . S
C1548 C1549 1.404 . S
C1548 C1551 1.539 . S
C1549 C1545 1.408 . S
C1549 C1548 1.404 . S
C1549 H1561 0.930 . S
C1550 C1546 1.524 . S
C1550 H1562 0.956 . S
C1550 H1563 0.961 . S
C1550 H1564 0.961 . S
C1551 C1548 1.539 . S
C1551 H1565 0.958 . S
C1551 H1566 0.961 . S
C1551 H1567 0.960 . S
H1552 C1536 0.931 . S
H1553 C1541 0.929 . S
H1554 C1542 0.960 . S
H1555 C1542 0.962 . S
H1556 C1542 0.960 . S
H1557 C1543 0.961 . S
H1558 C1543 0.961 . S
H1559 C1543 0.961 . S
H1560 C1544 0.931 . S
H1561 C1549 0.930 . S
H1562 C1550 0.956 . S
H1563 C1550 0.961 . S
H1564 C1550 0.961 . S
H1565 C1551 0.958 . S
H1566 C1551 0.961 . S
H1567 C1551 0.960 . S
C1568 C1569 1.391 . S
C1568 C1570 1.394 . S
C1568 H1584 0.931 . S
C1569 C1568 1.391 . S
C1569 C1573 1.376 . S
C1570 C1568 1.394 . S
C1570 C1571 1.369 . S
C1570 C1574 1.531 1_556 S
C1571 C1570 1.369 . S
C1571 C1572 1.410 . S
C1571 C1579 1.503 1_556 S
C1572 C1571 1.410 . S
C1572 C1573 1.392 . S
C1572 C1575 1.511 . S
C1573 C1569 1.376 . S
C1573 C1572 1.392 . S
C1573 H1585 0.929 . S
C1574 C1570 1.531 1_554 S
C1574 H1586 0.960 . S
C1574 H1587 0.962 . S
C1574 H1588 0.960 1_554 S
C1575 C1572 1.511 . S
C1575 H1589 0.961 . S
C1575 H1590 0.961 . S
C1575 H1591 0.961 . S
C1576 C1577 1.370 . S
C1576 C1578 1.363 . S
C1576 H1592 0.931 . S
C1577 C1576 1.370 . S
C1577 C1581 1.408 . S
C1578 C1576 1.363 . S
C1578 C1579 1.370 . S
C1578 C1582 1.524 . S
C1579 C1571 1.503 1_554 S
C1579 C1578 1.370 . S
C1579 C1580 1.403 . S
C1580 C1579 1.403 . S
C1580 C1581 1.404 . S
C1580 C1583 1.539 1_554 S
C1581 C1577 1.408 . S
C1581 C1580 1.404 . S
C1581 H1593 0.930 . S
C1582 C1578 1.524 . S
C1582 H1594 0.956 . S
C1582 H1595 0.961 . S
C1582 H1596 0.961 . S
C1583 C1580 1.539 1_556 S
C1583 H1597 0.958 . S
C1583 H1598 0.962 . S
C1583 H1599 0.960 . S
H1584 C1568 0.931 . S
H1585 C1573 0.929 . S
H1586 C1574 0.960 . S
H1587 C1574 0.962 . S
H1588 C1574 0.960 1_556 S
H1589 C1575 0.961 . S
H1590 C1575 0.961 . S
H1591 C1575 0.961 . S
H1592 C1576 0.931 . S
H1593 C1581 0.930 . S
H1594 C1582 0.956 . S
H1595 C1582 0.961 . S
H1596 C1582 0.961 . S
H1597 C1583 0.958 . S
H1598 C1583 0.962 . S
H1599 C1583 0.960 . S
C1600 C1601 1.391 . S
C1600 C1602 1.394 . S
C1600 H1616 0.931 . S
C1601 C1600 1.391 . S
C1601 C1605 1.376 . S
C1602 C1600 1.394 . S
C1602 C1603 1.369 . S
C1602 C1606 1.531 . S
C1603 C1602 1.369 . S
C1603 C1604 1.410 . S
C1603 C1611 1.503 1_556 S
C1604 C1603 1.410 . S
C1604 C1605 1.392 . S
C1604 C1607 1.511 1_556 S
C1605 C1601 1.376 . S
C1605 C1604 1.392 . S
C1605 H1617 0.929 . S
C1606 C1602 1.531 . S
C1606 H1618 0.960 . S
C1606 H1619 0.962 . S
C1606 H1620 0.960 . S
C1607 C1604 1.511 1_554 S
C1607 H1621 0.961 1_554 S
C1607 H1622 0.961 . S
C1607 H1623 0.961 . S
C1608 C1609 1.370 . S
C1608 C1610 1.363 . S
C1608 H1624 0.931 . S
C1609 C1608 1.370 . S
C1609 C1613 1.408 . S
C1610 C1608 1.363 . S
C1610 C1611 1.370 . S
C1610 C1614 1.524 1_554 S
C1611 C1603 1.503 1_554 S
C1611 C1610 1.370 . S
C1611 C1612 1.403 . S
C1612 C1611 1.403 . S
C1612 C1613 1.404 . S
C1612 C1615 1.539 . S
C1613 C1609 1.408 . S
C1613 C1612 1.404 . S
C1613 H1625 0.930 . S
C1614 C1610 1.524 1_556 S
C1614 H1626 0.956 . S
C1614 H1627 0.961 . S
C1614 H1628 0.961 . S
C1615 C1612 1.539 . S
C1615 H1629 0.958 . S
C1615 H1630 0.961 . S
C1615 H1631 0.960 . S
H1616 C1600 0.931 . S
H1617 C1605 0.929 . S
H1618 C1606 0.960 . S
H1619 C1606 0.962 . S
H1620 C1606 0.960 . S
H1621 C1607 0.961 1_556 S
H1622 C1607 0.961 . S
H1623 C1607 0.961 . S
H1624 C1608 0.931 . S
H1625 C1613 0.930 . S
H1626 C1614 0.956 . S
H1627 C1614 0.961 . S
H1628 C1614 0.961 . S
H1629 C1615 0.958 . S
H1630 C1615 0.961 . S
H1631 C1615 0.960 . S
C1632 C1633 1.391 . S
C1632 C1634 1.394 . S
C1632 H1648 0.931 . S
C1633 C1632 1.391 . S
C1633 C1637 1.376 . S
C1634 C1632 1.394 . S
C1634 C1635 1.369 . S
C1634 C1638 1.531 1_556 S
C1635 C1634 1.369 . S
C1635 C1636 1.410 . S
C1635 C1643 1.503 1_556 S
C1636 C1635 1.410 . S
C1636 C1637 1.392 . S
C1636 C1639 1.511 . S
C1637 C1633 1.376 . S
C1637 C1636 1.392 . S
C1637 H1649 0.929 . S
C1638 C1634 1.531 1_554 S
C1638 H1650 0.960 . S
C1638 H1651 0.962 . S
C1638 H1652 0.960 . S
C1639 C1636 1.511 . S
C1639 H1653 0.961 . S
C1639 H1654 0.961 . S
C1639 H1655 0.961 . S
C1640 C1641 1.370 . S
C1640 C1642 1.363 . S
C1640 H1656 0.931 . S
C1641 C1640 1.370 . S
C1641 C1645 1.408 . S
C1642 C1640 1.363 . S
C1642 C1643 1.370 . S
C1642 C1646 1.524 1_554 S
C1643 C1635 1.503 1_554 S
C1643 C1642 1.370 . S
C1643 C1644 1.403 . S
C1644 C1643 1.403 . S
C1644 C1645 1.404 . S
C1644 C1647 1.539 . S
C1645 C1641 1.408 . S
C1645 C1644 1.404 . S
C1645 H1657 0.930 . S
C1646 C1642 1.524 1_556 S
C1646 H1658 0.956 . S
C1646 H1659 0.961 . S
C1646 H1660 0.961 . S
C1647 C1644 1.539 . S
C1647 H1661 0.958 . S
C1647 H1662 0.961 . S
C1647 H1663 0.960 . S
H1648 C1632 0.931 . S
H1649 C1637 0.929 . S
H1650 C1638 0.960 . S
H1651 C1638 0.962 . S
H1652 C1638 0.960 . S
H1653 C1639 0.961 . S
H1654 C1639 0.961 . S
H1655 C1639 0.961 . S
H1656 C1640 0.931 . S
H1657 C1645 0.930 . S
H1658 C1646 0.956 . S
H1659 C1646 0.961 . S
H1660 C1646 0.961 . S
H1661 C1647 0.958 . S
H1662 C1647 0.961 . S
H1663 C1647 0.960 . S
C1664 C1665 1.391 . S
C1664 C1666 1.394 . S
C1664 H1680 0.931 . S
C1665 C1664 1.391 . S
C1665 C1669 1.376 . S
C1666 C1664 1.394 . S
C1666 C1667 1.369 . S
C1666 C1670 1.531 . S
C1667 C1666 1.369 . S
C1667 C1668 1.410 . S
C1667 C1675 1.503 1_554 S
C1668 C1667 1.410 . S
C1668 C1669 1.392 . S
C1668 C1671 1.511 . S
C1669 C1665 1.376 . S
C1669 C1668 1.392 . S
C1669 H1681 0.929 . S
C1670 C1666 1.531 . S
C1670 H1682 0.960 . S
C1670 H1683 0.962 . S
C1670 H1684 0.960 . S
C1671 C1668 1.511 . S
C1671 H1685 0.961 . S
C1671 H1686 0.961 1_554 S
C1671 H1687 0.961 . S
C1672 C1673 1.370 . S
C1672 C1674 1.363 . S
C1672 H1688 0.931 . S
C1673 C1672 1.370 . S
C1673 C1677 1.408 . S
C1674 C1672 1.363 . S
C1674 C1675 1.370 . S
C1674 C1678 1.524 . S
C1675 C1667 1.503 1_556 S
C1675 C1674 1.370 . S
C1675 C1676 1.403 . S
C1676 C1675 1.403 . S
C1676 C1677 1.404 . S
C1676 C1679 1.539 1_556 S
C1677 C1673 1.408 . S
C1677 C1676 1.404 . S
C1677 H1689 0.930 . S
C1678 C1674 1.524 . S
C1678 H1690 0.956 . S
C1678 H1691 0.961 . S
C1678 H1692 0.961 . S
C1679 C1676 1.539 1_554 S
C1679 H1693 0.958 . S
C1679 H1694 0.961 . S
C1679 H1695 0.960 . S
H1680 C1664 0.931 . S
H1681 C1669 0.929 . S
H1682 C1670 0.960 . S
H1683 C1670 0.962 . S
H1684 C1670 0.960 . S
H1685 C1671 0.961 . S
H1686 C1671 0.961 1_556 S
H1687 C1671 0.961 . S
H1688 C1672 0.931 . S
H1689 C1677 0.930 . S
H1690 C1678 0.956 . S
H1691 C1678 0.961 . S
H1692 C1678 0.961 . S
H1693 C1679 0.958 . S
H1694 C1679 0.961 . S
H1695 C1679 0.960 . S
C1696 C1697 1.391 . S
C1696 C1698 1.394 . S
C1696 H1712 0.931 . S
C1697 C1696 1.391 . S
C1697 C1701 1.376 . S
C1698 C1696 1.394 . S
C1698 C1699 1.369 . S
C1698 C1702 1.531 . S
C1699 C1698 1.369 . S
C1699 C1700 1.410 . S
C1699 C1707 1.503 . S
C1700 C1699 1.410 . S
C1700 C1701 1.392 . S
C1700 C1703 1.511 1_545 S
C1701 C1697 1.376 . S
C1701 C1700 1.392 . S
C1701 H1713 0.929 . S
C1702 C1698 1.531 . S
C1702 H1714 0.960 . S
C1702 H1715 0.962 . S
C1702 H1716 0.960 . S
C1703 C1700 1.511 1_565 S
C1703 H1717 0.961 . S
C1703 H1718 0.961 . S
C1703 H1719 0.961 . S
C1704 C1705 1.370 . S
C1704 C1706 1.363 . S
C1704 H1720 0.931 . S
C1705 C1704 1.370 . S
C1705 C1709 1.408 . S
C1706 C1704 1.363 . S
C1706 C1707 1.370 . S
C1706 C1710 1.524 . S
C1707 C1699 1.503 . S
C1707 C1706 1.370 . S
C1707 C1708 1.403 . S
C1708 C1707 1.403 . S
C1708 C1709 1.404 . S
C1708 C1711 1.539 . S
C1709 C1705 1.408 . S
C1709 C1708 1.404 . S
C1709 H1721 0.930 . S
C1710 C1706 1.524 . S
C1710 H1722 0.956 . S
C1710 H1723 0.961 . S
C1710 H1724 0.961 . S
C1711 C1708 1.539 . S
C1711 H1725 0.958 . S
C1711 H1726 0.961 . S
C1711 H1727 0.960 . S
H1712 C1696 0.931 . S
H1713 C1701 0.929 . S
H1714 C1702 0.960 . S
H1715 C1702 0.962 . S
H1716 C1702 0.960 . S
H1717 C1703 0.961 . S
H1718 C1703 0.961 . S
H1719 C1703 0.961 . S
H1720 C1704 0.931 . S
H1721 C1709 0.930 . S
H1722 C1710 0.956 . S
H1723 C1710 0.961 . S
H1724 C1710 0.961 . S
H1725 C1711 0.958 . S
H1726 C1711 0.961 . S
H1727 C1711 0.960 . S
C1728 C1729 1.391 1_655 S
C1728 C1730 1.394 1_655 S
C1728 H1744 0.931 . S
C1729 C1728 1.391 1_455 S
C1729 C1733 1.376 . S
C1730 C1728 1.394 1_455 S
C1730 C1731 1.369 . S
C1730 C1734 1.525 1_455 S
C1731 C1730 1.369 . S
C1731 C1732 1.410 . S
C1731 C1739 1.503 . S
C1732 C1731 1.410 . S
C1732 C1733 1.392 . S
C1732 C1735 1.511 . S
C1733 C1729 1.376 . S
C1733 C1732 1.392 . S
C1733 H1745 0.929 . S
C1734 C1730 1.525 1_655 S
C1734 H1746 0.948 1_655 S
C1734 H1747 0.972 . S
C1734 H1748 0.968 . S
C1735 C1732 1.511 . S
C1735 H1749 0.961 . S
C1735 H1750 0.961 . S
C1735 H1751 0.961 . S
C1736 C1737 1.370 . S
C1736 C1738 1.363 . S
C1736 H1752 0.931 . S
C1737 C1736 1.370 . S
C1737 C1741 1.408 . S
C1738 C1736 1.363 . S
C1738 C1739 1.370 . S
C1738 C1742 1.524 . S
C1739 C1731 1.503 . S
C1739 C1738 1.370 . S
C1739 C1740 1.403 . S
C1740 C1739 1.403 . S
C1740 C1741 1.404 . S
C1740 C1743 1.539 . S
C1741 C1737 1.408 . S
C1741 C1740 1.404 . S
C1741 H1753 0.930 . S
C1742 C1738 1.524 . S
C1742 H1754 0.916 1_455 S
C1742 H1755 0.961 . S
C1742 H1756 0.961 . S
C1743 C1740 1.539 . S
C1743 H1757 0.958 . S
C1743 H1758 0.961 . S
C1743 H1759 0.960 . S
H1744 C1728 0.931 . S
H1745 C1733 0.929 . S
H1746 C1734 0.948 1_455 S
H1747 C1734 0.972 . S
H1748 C1734 0.968 . S
H1749 C1735 0.961 . S
H1750 C1735 0.961 . S
H1751 C1735 0.961 . S
H1752 C1736 0.931 . S
H1753 C1741 0.930 . S
H1754 C1742 0.916 1_655 S
H1755 C1742 0.961 . S
H1756 C1742 0.961 . S
H1757 C1743 0.958 . S
H1758 C1743 0.961 . S
H1759 C1743 0.960 . S
C1760 C1761 1.391 . S
C1760 C1762 1.394 . S
C1760 H1776 0.931 . S
C1761 C1760 1.391 . S
C1761 C1765 1.376 1_565 S
C1762 C1760 1.394 . S
C1762 C1763 1.369 . S
C1762 C1766 1.531 . S
C1763 C1762 1.369 . S
C1763 C1764 1.410 . S
C1763 C1771 1.503 . S
C1764 C1763 1.410 . S
C1764 C1765 1.392 1_565 S
C1764 C1767 1.511 . S
C1765 C1761 1.376 1_545 S
C1765 C1764 1.392 1_545 S
C1765 H1777 0.929 . S
C1766 C1762 1.531 . S
C1766 H1778 0.960 . S
C1766 H1779 0.962 . S
C1766 H1780 0.960 . S
C1767 C1764 1.511 . S
C1767 H1781 0.955 1_565 S
C1767 H1782 0.961 . S
C1767 H1783 0.961 1_565 S
C1768 C1769 1.370 . S
C1768 C1770 1.363 . S
C1768 H1784 0.931 . S
C1769 C1768 1.370 . S
C1769 C1773 1.408 . S
C1770 C1768 1.363 . S
C1770 C1771 1.370 . S
C1770 C1774 1.524 . S
C1771 C1763 1.503 . S
C1771 C1770 1.370 . S
C1771 C1772 1.403 . S
C1772 C1771 1.403 . S
C1772 C1773 1.404 . S
C1772 C1775 1.540 1_565 S
C1773 C1769 1.408 . S
C1773 C1772 1.404 . S
C1773 H1785 0.930 . S
C1774 C1770 1.524 . S
C1774 H1786 0.956 . S
C1774 H1787 0.961 . S
C1774 H1788 0.961 . S
C1775 C1772 1.540 1_545 S
C1775 H1789 0.957 1_545 S
C1775 H1790 0.961 . S
C1775 H1791 0.959 . S
H1776 C1760 0.931 . S
H1777 C1765 0.929 . S
H1778 C1766 0.960 . S
H1779 C1766 0.962 . S
H1780 C1766 0.960 . S
H1781 C1767 0.955 1_545 S
H1782 C1767 0.961 . S
H1783 C1767 0.961 1_545 S
H1784 C1768 0.931 . S
H1785 C1773 0.930 . S
H1786 C1774 0.956 . S
H1787 C1774 0.961 . S
H1788 C1774 0.961 . S
H1789 C1775 0.957 1_565 S
H1790 C1775 0.961 . S
H1791 C1775 0.959 . S
C1792 C1793 1.391 . S
C1792 C1794 1.394 . S
C1792 H1808 0.931 . S
C1793 C1792 1.391 . S
C1793 C1797 1.371 1_655 S
C1794 C1792 1.394 . S
C1794 C1795 1.369 . S
C1794 C1798 1.531 . S
C1795 C1794 1.369 . S
C1795 C1796 1.410 . S
C1795 C1803 1.503 . S
C1796 C1795 1.410 . S
C1796 C1797 1.380 1_655 S
C1796 C1799 1.511 . S
C1797 C1793 1.371 1_455 S
C1797 C1796 1.380 1_455 S
C1797 H1809 0.948 . S
C1798 C1794 1.531 . S
C1798 H1810 0.960 . S
C1798 H1811 0.962 . S
C1798 H1812 0.960 . S
C1799 C1796 1.511 . S
C1799 H1813 0.961 . S
C1799 H1814 0.961 . S
C1799 H1815 0.961 1_655 S
C1800 C1801 1.370 . S
C1800 C1802 1.363 . S
C1800 H1816 0.931 . S
C1801 C1800 1.370 . S
C1801 C1805 1.408 . S
C1802 C1800 1.363 . S
C1802 C1803 1.370 . S
C1802 C1806 1.524 . S
C1803 C1795 1.503 . S
C1803 C1802 1.370 . S
C1803 C1804 1.403 . S
C1804 C1803 1.403 . S
C1804 C1805 1.404 . S
C1804 C1807 1.496 1_655 S
C1805 C1801 1.408 . S
C1805 C1804 1.404 . S
C1805 H1817 0.930 . S
C1806 C1802 1.524 . S
C1806 H1818 0.956 . S
C1806 H1819 0.961 . S
C1806 H1820 0.961 . S
C1807 C1804 1.496 1_455 S
C1807 H1821 0.958 . S
C1807 H1822 0.983 . S
C1807 H1823 0.985 . S
H1808 C1792 0.931 . S
H1809 C1797 0.948 . S
H1810 C1798 0.960 . S
H1811 C1798 0.962 . S
H1812 C1798 0.960 . S
H1813 C1799 0.961 . S
H1814 C1799 0.961 . S
H1815 C1799 0.961 1_455 S
H1816 C1800 0.931 . S
H1817 C1805 0.930 . S
H1818 C1806 0.956 . S
H1819 C1806 0.961 . S
H1820 C1806 0.961 . S
H1821 C1807 0.958 . S
H1822 C1807 0.983 . S
H1823 C1807 0.985 . S
C545 C145 1.951 . S
C553 C9 2.005 . S
C577 C43 1.981 . S
C585 C179 1.987 . S
C609 C77 1.960 . S
C617 C213 2.001 . S
C641 C111 1.997 . S
C649 C247 1.980 . S
C673 C281 2.012 . S
C681 C417 1.980 . S
C705 C451 2.024 . S
C713 C315 1.977 . S
C737 C485 2.026 . S
C745 C349 1.974 . S
C769 C383 2.025 . S
C777 C519 1.974 . S
C801 C20 1.160 . S
C809 C496 1.185 . S
C833 C54 1.187 . S
C841 C530 1.160 . S
C865 C88 1.174 . S
C873 C428 1.185 . S
C897 C462 1.174 . S
C905 C122 1.183 . S
C929 C360 1.168 . S
C937 C156 1.161 . S
C961 C190 1.199 . S
C969 C394 1.164 . S
C993 C224 1.197 . S
C1001 C292 1.177 . S
C1025 C258 1.197 . S
C1033 C326 1.162 . S
C1057 C2 1.235 . S
C1065 C70 1.233 . S
C1089 C36 1.227 . S
C1097 C104 1.224 . S
C1121 C138 1.268 1_554 S
C1129 C206 1.256 . S
C1153 C172 1.195 . S
C1161 C240 1.219 . S
C1185 C342 1.192 . S
C1193 C274 1.219 . S
C1217 C376 1.212 . S
C1225 C308 1.236 . S
C1249 C410 1.269 . S
C1257 C478 1.252 . S
C1281 C444 1.192 . S
C1289 C512 1.224 . S
C1313 C67 0.713 . S
C1321 C5 0.729 1_565 S
C1345 C39 0.780 1_655 S
C1353 C101 0.736 . S
C1377 C135 0.772 . S
C1385 C73 0.745 1_545 S
C1409 C107 0.773 1_455 S
C1417 C33 0.744 . S
C1441 C543 0.736 . S
C1449 C141 0.723 . S
C1473 C175 0.706 . S
C1481 C441 0.736 . S
C1505 C209 0.779 . S
C1513 C475 0.742 . S
C1537 C243 0.775 . S
C1545 C509 0.743 . S
C1569 C277 0.746 . S
C1577 C339 0.726 . S
C1601 C373 0.706 . S
C1609 C311 0.746 . S
C1633 C345 0.700 . S
C1641 C407 0.740 . S
C1665 C379 0.767 . S
C1673 C305 0.727 . S
C1697 C271 0.713 . S
C1705 C413 0.729 1_545 S
C1729 C447 0.776 1_455 S
C1737 C169 0.742 . S
C1761 C481 0.716 1_565 S
C1769 C203 0.751 . S
C1793 C515 0.700 1_655 S
C1801 C237 0.744 . S
