# Generated by pormake.
# Topology acs-a, (4)-cn, num edge types: 1
# Building blocks:
#     Node 0, Type 0, BuildingBlock: CEKHIL_clean_sbu_0, # of connection points: 4
#     Node 1, Type 0, BuildingBlock: CEKHIL_clean_sbu_0, # of connection points: 4
#     Node 2, Type 0, BuildingBlock: CEKHIL_clean_sbu_0, # of connection points: 4
#     Node 3, Type 0, BuildingBlock: CEKHIL_clean_sbu_0, # of connection points: 4
#     Node 4, Type 0, BuildingBlock: CEKHIL_clean_sbu_0, # of connection points: 4
#     Node 5, Type 0, BuildingBlock: CEKHIL_clean_sbu_0, # of connection points: 4
#     Node 6, Type 0, BuildingBlock: CEKHIL_clean_sbu_0, # of connection points: 4
#     Node 7, Type 0, BuildingBlock: CEKHIL_clean_sbu_0, # of connection points: 4
#     Node 8, Type 0, BuildingBlock: CEKHIL_clean_sbu_0, # of connection points: 4
#     Node 9, Type 0, BuildingBlock: CEKHIL_clean_sbu_0, # of connection points: 4
#     Node 10, Type 0, BuildingBlock: CEKHIL_clean_sbu_0, # of connection points: 4
#     Node 11, Type 0, BuildingBlock: CEKHIL_clean_sbu_0, # of connection points: 4
#     Edge 12, Type (0, 0), BuildingBlock: AJUNOK_clean_linker_0, # of connection points: 2
#     Edge 13, Type (0, 0), BuildingBlock: AJUNOK_clean_linker_0, # of connection points: 2
#     Edge 14, Type (0, 0), BuildingBlock: AJUNOK_clean_linker_0, # of connection points: 2
#     Edge 15, Type (0, 0), BuildingBlock: AJUNOK_clean_linker_0, # of connection points: 2
#     Edge 16, Type (0, 0), BuildingBlock: AJUNOK_clean_linker_0, # of connection points: 2
#     Edge 17, Type (0, 0), BuildingBlock: AJUNOK_clean_linker_0, # of connection points: 2
#     Edge 18, Type (0, 0), BuildingBlock: AJUNOK_clean_linker_0, # of connection points: 2
#     Edge 19, Type (0, 0), BuildingBlock: AJUNOK_clean_linker_0, # of connection points: 2
#     Edge 20, Type (0, 0), BuildingBlock: AJUNOK_clean_linker_0, # of connection points: 2
#     Edge 21, Type (0, 0), BuildingBlock: AJUNOK_clean_linker_0, # of connection points: 2
#     Edge 22, Type (0, 0), BuildingBlock: AJUNOK_clean_linker_0, # of connection points: 2
#     Edge 23, Type (0, 0), BuildingBlock: AJUNOK_clean_linker_0, # of connection points: 2
#     Edge 24, Type (0, 0), BuildingBlock: AJUNOK_clean_linker_0, # of connection points: 2
#     Edge 25, Type (0, 0), BuildingBlock: AJUNOK_clean_linker_0, # of connection points: 2
#     Edge 26, Type (0, 0), BuildingBlock: AJUNOK_clean_linker_0, # of connection points: 2
#     Edge 27, Type (0, 0), BuildingBlock: AJUNOK_clean_linker_0, # of connection points: 2
#     Edge 28, Type (0, 0), BuildingBlock: AJUNOK_clean_linker_0, # of connection points: 2
#     Edge 29, Type (0, 0), BuildingBlock: AJUNOK_clean_linker_0, # of connection points: 2
#     Edge 30, Type (0, 0), BuildingBlock: AJUNOK_clean_linker_0, # of connection points: 2
#     Edge 31, Type (0, 0), BuildingBlock: AJUNOK_clean_linker_0, # of connection points: 2
#     Edge 32, Type (0, 0), BuildingBlock: AJUNOK_clean_linker_0, # of connection points: 2
#     Edge 33, Type (0, 0), BuildingBlock: AJUNOK_clean_linker_0, # of connection points: 2
#     Edge 34, Type (0, 0), BuildingBlock: AJUNOK_clean_linker_0, # of connection points: 2
#     Edge 35, Type (0, 0), BuildingBlock: AJUNOK_clean_linker_0, # of connection points: 2
# Relax obj value: 0.515
# Max RMSD: 0.262
# Mean RMSD: 0.237
data_MOF--net-acs-a--node1-CEKHIL_clean_sbu_0--edge1-AJUNOK_clean_linker_0
_symmetry_space_group_name_H-M    P1
_symmetry_Int_Tables_number       1
_symmetry_cell_setting            triclinic
loop_
_symmetry_equiv_pos_as_xyz
'x, y, z'
_cell_length_a     35.752246
_cell_length_b     35.797347
_cell_length_c     27.678816
_cell_angle_alpha  89.987209
_cell_angle_beta   90.064028
_cell_angle_gamma 114.39361
loop_
_atom_site_label
_atom_site_type_symbol
_atom_site_fract_x
_atom_site_fract_y
_atom_site_fract_z
_atom_type_partial_charge
Co0 Co 0.6328 0.13571 0.0456 0.0
O1 O 0.63351 0.08366 0.02699 0.0
O2 O 0.58406 0.10385 0.01088 0.0
C3 C 0.6973 0.18062 0.02704 0.0
O4 O 0.61885 0.18424 0.0548 0.0
Co5 Co 0.68603 0.19181 0.12706 0.0
O6 O 0.65711 0.22774 0.11187 0.0
C7 C 0.62057 0.11312 0.15127 0.0
C8 C 0.59714 0.07514 0.0089 0.0
C9 C 0.62921 0.21712 0.07953 0.0
O10 O 0.605 0.1111 0.10882 0.0
O11 O 0.65706 0.13856 0.16169 0.0
O12 O 0.66988 0.16604 0.99288 0.0
O13 O 0.68645 0.16268 0.06817 0.0
Co14 Co 0.46751 0.62581 0.56326 0.0
O15 O 0.52319 0.63511 0.54712 0.0
O16 O 0.46688 0.58191 0.52373 0.0
C17 C 0.46816 0.68795 0.55051 0.0
O18 O 0.40584 0.60595 0.56999 0.0
Co19 Co 0.45004 0.66903 0.6518 0.0
O20 O 0.39179 0.64009 0.63062 0.0
C21 C 0.47938 0.60582 0.66695 0.0
C22 C 0.50673 0.60009 0.52464 0.0
C23 C 0.38061 0.61445 0.59579 0.0
O24 O 0.46986 0.59424 0.62295 0.0
O25 O 0.48111 0.64004 0.68268 0.0
O26 O 0.46559 0.66411 0.5139 0.0
O27 O 0.47848 0.67673 0.59077 0.0
Co28 Co 0.85004 0.4391 0.0723 0.0
O29 O 0.88892 0.496 0.07188 0.0
O30 O 0.89517 0.44579 0.03079 0.0
C31 C 0.79201 0.44919 0.06568 0.0
O32 O 0.81701 0.37782 0.06104 0.0
Co33 Co 0.78348 0.40346 0.15237 0.0
O34 O 0.76332 0.35293 0.1121 0.0
C35 C 0.87092 0.42907 0.17486 0.0
C36 C 0.91075 0.48425 0.04315 0.0
C37 C 0.7838 0.34881 0.07639 0.0
O38 O 0.87938 0.42834 0.12973 0.0
O39 O 0.83593 0.42583 0.19003 0.0
O40 O 0.81309 0.45012 0.02695 0.0
O41 O 0.80882 0.44643 0.10566 0.0
Co42 Co 0.36359 0.8594 0.54146 0.0
O43 O 0.36428 0.91262 0.52602 0.0
O44 O 0.41454 0.89302 0.51205 0.0
C45 C 0.30019 0.81687 0.51559 0.0
O46 O 0.37666 0.81004 0.54857 0.0
Co47 Co 0.30487 0.79822 0.61511 0.0
O48 O 0.33391 0.7626 0.599 0.0
C49 C 0.37064 0.87406 0.64953 0.0
C50 C 0.40168 0.92194 0.51104 0.0
C51 C 0.36418 0.77533 0.56984 0.0
O52 O 0.38758 0.87994 0.60752 0.0
O53 O 0.33438 0.84687 0.65748 0.0
O54 O 0.33008 0.83303 0.48464 0.0
O55 O 0.30837 0.83159 0.55864 0.0
Co56 Co 0.52971 0.37043 0.06328 0.0
O57 O 0.47353 0.36069 0.04884 0.0
O58 O 0.52919 0.41181 0.0203 0.0
C59 C 0.52814 0.30738 0.05587 0.0
O60 O 0.59152 0.39039 0.06749 0.0
Co61 Co 0.55034 0.33283 0.15487 0.0
O62 O 0.60794 0.36128 0.13149 0.0
C63 C 0.52185 0.39687 0.16509 0.0
C64 C 0.48941 0.39426 0.02348 0.0
C65 C 0.61778 0.38431 0.09423 0.0
O66 O 0.52999 0.40589 0.12024 0.0
O67 O 0.51938 0.36304 0.18295 0.0
O68 O 0.52949 0.32879 0.01728 0.0
O69 O 0.51955 0.32141 0.09518 0.0
Co70 Co 0.14761 0.56224 0.57442 0.0
O71 O 0.11021 0.50492 0.57808 0.0
O72 O 0.1016 0.55163 0.53247 0.0
C73 C 0.20605 0.55265 0.57012 0.0
O74 O 0.17893 0.62308 0.55838 0.0
Co75 Co 0.21691 0.60549 0.6499 0.0
O76 O 0.23834 0.64905 0.59981 0.0
C77 C 0.12925 0.58027 0.67496 0.0
C78 C 0.08764 0.51384 0.54732 0.0
C79 C 0.21487 0.65147 0.56645 0.0
O80 O 0.11825 0.57495 0.63026 0.0
O81 O 0.16577 0.58831 0.68953 0.0
O82 O 0.18459 0.54952 0.53104 0.0
O83 O 0.18997 0.55824 0.60929 0.0
Co84 Co 0.86096 0.36666 0.45545 0.0
O85 O 0.91163 0.36336 0.47575 0.0
O86 O 0.89676 0.41734 0.48375 0.0
C87 C 0.81386 0.30571 0.48263 0.0
O88 O 0.81491 0.38417 0.44315 0.0
Co89 Co 0.79851 0.30875 0.3821 0.0
O90 O 0.7636 0.33832 0.39952 0.0
C91 C 0.87891 0.3687 0.34841 0.0
C92 C 0.92321 0.40153 0.48888 0.0
C93 C 0.77903 0.37108 0.42454 0.0
O94 O 0.88526 0.38709 0.38958 0.0
O95 O 0.84868 0.33418 0.34063 0.0
O96 O 0.83075 0.33638 0.51241 0.0
O97 O 0.82989 0.31148 0.44019 0.0
Co98 Co 0.44174 0.84607 0.93147 0.0
O99 O 0.49839 0.88543 0.92975 0.0
O100 O 0.44769 0.89439 0.96671 0.0
C101 C 0.45451 0.7907 0.94699 0.0
O102 O 0.38044 0.81283 0.94393 0.0
Co103 Co 0.40639 0.77198 0.86109 0.0
O104 O 0.36004 0.75123 0.90801 0.0
C105 C 0.42876 0.85657 0.82618 0.0
C106 C 0.48628 0.90907 0.95478 0.0
C107 C 0.35413 0.77561 0.93748 0.0
O108 O 0.43033 0.86977 0.86973 0.0
O109 O 0.42391 0.81998 0.81589 0.0
O110 O 0.45384 0.81428 0.98251 0.0
O111 O 0.45047 0.803 0.90457 0.0
Co112 Co 0.62384 0.46619 0.42826 0.0
O113 O 0.63301 0.52269 0.43902 0.0
O114 O 0.58002 0.46787 0.46601 0.0
C115 C 0.68723 0.46997 0.44305 0.0
O116 O 0.60345 0.40435 0.42768 0.0
Co117 Co 0.66731 0.4397 0.34673 0.0
O118 O 0.64355 0.38543 0.38012 0.0
C119 C 0.60363 0.46861 0.32274 0.0
C120 C 0.59801 0.50748 0.46175 0.0
C121 C 0.61523 0.37745 0.41154 0.0
O122 O 0.59241 0.465 0.36725 0.0
O123 O 0.6359 0.46476 0.30844 0.0
O124 O 0.66289 0.46793 0.47897 0.0
O125 O 0.67463 0.47567 0.40131 0.0
Co126 Co 0.13996 0.63235 0.95846 0.0
O127 O 0.08853 0.63361 0.97941 0.0
O128 O 0.10509 0.58058 0.98466 0.0
C129 C 0.18647 0.69264 0.98784 0.0
O130 O 0.18677 0.61635 0.94469 0.0
Co131 Co 0.20148 0.69289 0.88669 0.0
O132 O 0.2366 0.66264 0.89987 0.0
C133 C 0.12167 0.63312 0.85176 0.0
C134 C 0.07765 0.59503 0.9903 0.0
C135 C 0.22204 0.62969 0.9246 0.0
O136 O 0.11593 0.6136 0.89208 0.0
O137 O 0.15117 0.66835 0.84521 0.0
O138 O 0.16967 0.6611 0.01642 0.0
O139 O 0.17029 0.68812 0.94548 0.0
Co140 Co 0.55806 0.15005 0.4312 0.0
O141 O 0.50132 0.11092 0.43229 0.0
O142 O 0.55287 0.10282 0.46819 0.0
C143 C 0.54632 0.20621 0.44542 0.0
O144 O 0.61977 0.18322 0.44108 0.0
Co145 Co 0.59187 0.22191 0.35781 0.0
O146 O 0.63937 0.24391 0.40323 0.0
C147 C 0.56647 0.136 0.32593 0.0
C148 C 0.51393 0.08792 0.45789 0.0
C149 C 0.64593 0.22026 0.43323 0.0
O150 O 0.56703 0.12424 0.3698 0.0
O151 O 0.57139 0.17244 0.31467 0.0
O152 O 0.54787 0.18357 0.48156 0.0
O153 O 0.5489 0.19256 0.40328 0.0
Co154 Co 0.37467 0.53054 0.92882 0.0
O155 O 0.36448 0.47353 0.93779 0.0
O156 O 0.41658 0.52719 0.96875 0.0
C157 C 0.31117 0.5276 0.94001 0.0
O158 O 0.3957 0.59238 0.93057 0.0
Co159 Co 0.33537 0.55988 0.84516 0.0
O160 O 0.35918 0.61352 0.87989 0.0
C161 C 0.40009 0.53184 0.82456 0.0
C162 C 0.39859 0.48778 0.96244 0.0
C163 C 0.38568 0.62019 0.91338 0.0
O164 O 0.40883 0.53347 0.86978 0.0
O165 O 0.36848 0.53596 0.80834 0.0
O166 O 0.33362 0.52779 0.97725 0.0
O167 O 0.32526 0.52262 0.89894 0.0
C168 C 0.59768 0.09589 0.28169 0.0
C169 C 0.56615 0.10945 0.28516 0.0
C170 C 0.61119 0.08915 0.23627 0.0
C171 C 0.5935 0.09587 0.19338 0.0
H172 H 0.61557 0.09592 0.31333 0.0
H173 H 0.63913 0.08426 0.23461 0.0
S174 S 0.50154 0.11857 0.18513 0.0
N175 N 0.51125 0.11955 0.24357 0.0
N176 N 0.53626 0.10647 0.15829 0.0
C177 C 0.55717 0.10184 0.19722 0.0
C178 C 0.54372 0.10907 0.24332 0.0
C179 C 0.44002 0.53708 0.70089 0.0
C180 C 0.47461 0.57475 0.70428 0.0
C181 C 0.41844 0.51788 0.74255 0.0
C182 C 0.43157 0.53537 0.78839 0.0
H183 H 0.42566 0.52598 0.6662 0.0
H184 H 0.3885 0.4927 0.73834 0.0
S185 S 0.52934 0.62389 0.81645 0.0
N186 N 0.52771 0.62159 0.75683 0.0
N187 N 0.48761 0.58492 0.83534 0.0
C188 C 0.4708 0.56754 0.79245 0.0
C189 C 0.49243 0.58743 0.75004 0.0
C190 C 0.9037 0.44887 0.25447 0.0
C191 C 0.89789 0.42485 0.21256 0.0
C192 C 0.9051 0.43263 0.30018 0.0
C193 C 0.90011 0.39174 0.30497 0.0
H194 H 0.9011 0.47795 0.25256 0.0
H195 H 0.90383 0.45003 0.33169 0.0
S196 S 0.89815 0.3218 0.20534 0.0
N197 N 0.89824 0.3628 0.17784 0.0
N198 N 0.9005 0.33193 0.26378 0.0
C199 C 0.90219 0.37055 0.26294 0.0
C200 C 0.90125 0.38733 0.21646 0.0
C201 C 0.39182 0.89061 0.78125 0.0
C202 C 0.42625 0.88141 0.78504 0.0
C203 C 0.37685 0.89508 0.73574 0.0
C204 C 0.39615 0.89077 0.693 0.0
H205 H 0.37333 0.88892 0.81286 0.0
H206 H 0.34738 0.89691 0.73391 0.0
S207 S 0.49376 0.87814 0.6853 0.0
N208 N 0.48394 0.8767 0.74373 0.0
N209 N 0.45645 0.88599 0.6582 0.0
C210 C 0.43437 0.88856 0.69701 0.0
C211 C 0.44921 0.88345 0.74324 0.0
C212 C 0.53362 0.43754 0.2883 0.0
C213 C 0.57423 0.46728 0.2847 0.0
C214 C 0.51147 0.41905 0.24658 0.0
C215 C 0.52949 0.43001 0.20055 0.0
H216 H 0.52126 0.42408 0.32299 0.0
H217 H 0.48301 0.39195 0.25076 0.0
S218 S 0.62812 0.51757 0.17273 0.0
N219 N 0.62639 0.51532 0.23233 0.0
N220 N 0.58454 0.48103 0.15382 0.0
C221 C 0.56604 0.46577 0.1967 0.0
C222 C 0.58876 0.48423 0.2391 0.0
C223 C 0.09989 0.62037 0.72002 0.0
C224 C 0.10135 0.58222 0.71267 0.0
C225 C 0.09944 0.63485 0.76698 0.0
C226 C 0.10025 0.61139 0.80758 0.0
H227 H 0.10568 0.64163 0.69016 0.0
H228 H 0.10404 0.66654 0.77141 0.0
S229 S 0.08988 0.50404 0.80574 0.0
N230 N 0.09281 0.51734 0.74825 0.0
N231 N 0.09123 0.54405 0.83664 0.0
C232 C 0.09337 0.57022 0.8001 0.0
C233 C 0.09409 0.55569 0.7523 0.0
C234 C 0.5837 0.0025 0.98673 0.0
C235 C 0.56946 0.03355 0.99171 0.0
C236 C 0.55678 0.96227 0.97402 0.0
C237 C 0.5146 0.95159 0.96696 0.0
H238 H 0.61573 0.00917 0.99311 0.0
H239 H 0.56889 0.9392 0.97079 0.0
S240 S 0.46198 0.02162 0.97277 0.0
N241 N 0.51032 0.05084 0.98597 0.0
N242 N 0.46019 0.97542 0.96337 0.0
C243 C 0.50011 0.98237 0.97101 0.0
C244 C 0.52744 0.02331 0.98301 0.0
C245 C 0.5118 0.53629 0.49809 0.0
C246 C 0.53144 0.57878 0.50615 0.0
C247 C 0.53396 0.51383 0.48449 0.0
C248 C 0.57669 0.53293 0.47762 0.0
H249 H 0.47899 0.5198 0.5033 0.0
H250 H 0.51717 0.48113 0.47893 0.0
S251 S 0.64282 0.64378 0.49236 0.0
N252 N 0.59616 0.63947 0.50562 0.0
N253 N 0.63795 0.59705 0.47872 0.0
C254 C 0.59683 0.57556 0.48456 0.0
C255 C 0.57418 0.59853 0.49921 0.0
C256 C 0.00689 0.58214 0.02054 0.0
C257 C 0.03511 0.567 0.00385 0.0
C258 C 0.96652 0.55528 0.03298 0.0
C259 C 0.9528 0.51245 0.02822 0.0
H260 H 0.01614 0.61486 0.02451 0.0
H261 H 0.94591 0.56817 0.04629 0.0
S262 S 0.01438 0.45728 0.98476 0.0
N263 N 0.04609 0.50622 0.98247 0.0
N264 N 0.97071 0.45632 0.00522 0.0
C265 C 0.98062 0.49707 0.01094 0.0
C266 C 0.02163 0.52418 -0.00106 0.0
C267 C 0.44274 0.03334 0.47029 0.0
C268 C 0.48563 0.04589 0.47255 0.0
C269 C 0.4155 0.99327 0.48302 0.0
C270 C 0.43024 0.96418 0.49752 0.0
H271 H 0.43008 0.05465 0.45881 0.0
H272 H 0.38277 0.98492 0.48096 0.0
S273 S 0.53983 0.98172 0.5101 0.0
N274 N 0.5414 0.02602 0.49114 0.0
N275 N 0.49063 0.95103 0.51443 0.0
C276 C 0.47308 0.97644 0.49999 0.0
C277 C 0.50066 0.01721 0.4877 0.0
C278 C 0.46266 0.48018 0.98101 0.0
C279 C 0.41964 0.46185 0.9773 0.0
C280 C 0.48464 0.45742 0.99406 0.0
C281 C 0.46456 0.4154 0.00484 0.0
H282 H 0.47977 0.51253 0.97341 0.0
H283 H 0.51773 0.47341 0.9969 0.0
S284 S 0.35217 0.35241 -0.00061 0.0
N285 N 0.35752 0.39892 0.98378 0.0
N286 N 0.39902 0.35592 0.00996 0.0
C287 C 0.42148 0.39637 0.00084 0.0
C288 C 0.39898 0.41963 0.98658 0.0
C289 C 0.97949 0.47079 0.49793 0.0
C290 C 0.96558 0.42815 0.50423 0.0
C291 C 0.01916 0.4978 0.51117 0.0
C292 C 0.04662 0.48351 0.53201 0.0
H293 H 0.95968 0.48366 0.48214 0.0
H294 H 0.02804 0.53031 0.50561 0.0
S295 S 0.02561 0.37461 0.55618 0.0
N296 N 0.98254 0.37263 0.53201 0.0
N297 N 0.05733 0.42371 0.55813 0.0
C298 C 0.0333 0.4409 0.53859 0.0
C299 C 0.99278 0.41314 0.5243 0.0
C300 C 0.58284 0.24701 0.11133 0.0
C301 C 0.60465 0.241 0.07235 0.0
C302 C 0.55564 0.26561 0.10457 0.0
C303 C 0.55044 0.28046 0.05893 0.0
H304 H 0.58601 0.23631 0.14709 0.0
H305 H 0.53925 0.26908 0.13587 0.0
S306 S 0.59866 0.26895 0.94455 0.0
N307 N 0.61689 0.24759 0.98591 0.0
N308 N 0.56799 0.28539 0.97354 0.0
C309 C 0.57143 0.27357 0.01937 0.0
C310 C 0.59813 0.25333 0.02607 0.0
C311 C 0.30948 0.5744 0.62339 0.0
C312 C 0.33648 0.59323 0.58539 0.0
C313 C 0.26708 0.55783 0.61624 0.0
C314 C 0.24997 0.56045 0.57112 0.0
H315 H 0.32121 0.57336 0.65926 0.0
H316 H 0.24751 0.54482 0.64724 0.0
S317 S 0.30815 0.60491 0.45924 0.0
N318 N 0.34395 0.61124 0.50021 0.0
N319 N 0.26363 0.58144 0.48709 0.0
C320 C 0.2767 0.5774 0.53207 0.0
C321 C 0.32019 0.59363 0.53922 0.0
C322 C 0.77565 0.27688 0.08147 0.0
C323 C 0.7703 0.30763 0.05495 0.0
C324 C 0.75603 0.23571 0.06761 0.0
C325 C 0.72913 0.22353 0.02761 0.0
H326 H 0.79334 0.28447 0.11467 0.0
H327 H 0.75911 0.2129 0.09108 0.0
S328 S 0.71229 0.29394 0.94062 0.0
N329 N 0.7425 0.32465 0.98244 0.0
N330 N 0.70414 0.24678 0.95695 0.0
C331 C 0.727 0.25455 0.99795 0.0
C332 C 0.74772 0.29677 0.01176 0.0
C333 C 0.41445 0.75064 0.60186 0.0
C334 C 0.38938 0.75205 0.56366 0.0
C335 C 0.44229 0.73272 0.59579 0.0
C336 C 0.44517 0.71428 0.5517 0.0
H337 H 0.41312 0.76423 0.63645 0.0
H338 H 0.46093 0.73247 0.62651 0.0
S339 S 0.38857 0.71385 0.43908 0.0
N340 N 0.37174 0.73756 0.479 0.0
N341 N 0.42224 0.70146 0.46807 0.0
C342 C 0.42111 0.71684 0.51265 0.0
C343 C 0.39354 0.73617 0.5186 0.0
C344 C 0.68889 0.42833 0.1187 0.0
C345 C 0.66157 0.40591 0.08243 0.0
C346 C 0.73116 0.44574 0.11061 0.0
C347 C 0.74786 0.44051 0.06633 0.0
H348 H 0.67755 0.43157 0.15406 0.0
H349 H 0.75106 0.4615 0.14047 0.0
S350 S 0.68846 0.38712 0.95829 0.0
N351 N 0.65312 0.38212 -0.00073 0.0
N352 N 0.73328 0.41376 0.9844 0.0
C353 C 0.72068 0.42016 0.02867 0.0
C354 C 0.67728 0.40296 0.03674 0.0
C355 C 0.26085 0.70301 0.50777 0.0
C356 C 0.22793 0.69081 0.54056 0.0
C357 C 0.28036 0.74402 0.49225 0.0
C358 C 0.26883 0.77422 0.51104 0.0
H359 H 0.2732 0.68138 0.49649 0.0
H360 H 0.30733 0.75289 0.46973 0.0
S361 S 0.18025 0.75621 0.59159 0.0
N362 N 0.18066 0.71049 0.58532 0.0
N363 N 0.21867 0.78783 0.5584 0.0
C364 C 0.23333 0.76136 0.53987 0.0
C365 C 0.21279 0.71956 0.5545 0.0
C366 C 0.72887 0.3907 0.46867 0.0
C367 C 0.75664 0.39716 0.43037 0.0
C368 C 0.7091 0.41699 0.47588 0.0
C369 C 0.71633 0.45032 0.4447 0.0
H370 H 0.72198 0.36498 0.49284 0.0
H371 H 0.68634 0.40977 0.50425 0.0
S372 S 0.79016 0.48272 0.34263 0.0
N373 N 0.79345 0.44111 0.36405 0.0
N374 N 0.75592 0.49016 0.37668 0.0
C375 C 0.74574 0.45813 0.40787 0.0
C376 C 0.76592 0.43157 0.40085 0.0
C377 C 0.30013 0.72512 0.99037 0.0
C378 C 0.31395 0.76101 0.96217 0.0
C379 C 0.25914 0.70618 0.00615 0.0
C380 C 0.23027 0.7214 0.99208 0.0
H381 H 0.32053 0.71042 0.99816 0.0
H382 H 0.24908 0.67713 0.02489 0.0
S383 S 0.25253 0.81765 0.92438 0.0
N384 N 0.29717 0.81421 0.92686 0.0
N385 N 0.21963 0.77727 0.95373 0.0
C386 C 0.24469 0.75922 0.96762 0.0
C387 C 0.28665 0.7792 0.95301 0.0
C388 C 0.58955 0.2763 0.4754 0.0
C389 C 0.55488 0.2499 0.44949 0.0
C390 C 0.60857 0.31829 0.46409 0.0
C391 C 0.59278 0.33487 0.4274 0.0
H392 H 0.6042 0.26389 0.50121 0.0
H393 H 0.63665 0.3374 0.4826 0.0
S394 S 0.49902 0.27986 0.35495 0.0
N395 N 0.50306 0.2441 0.38959 0.0
N396 N 0.53808 0.32316 0.36964 0.0
C397 C 0.55612 0.30956 0.40461 0.0
C398 C 0.53717 0.26697 0.41556 0.0
C399 C 0.2695 0.6065 0.96894 0.0
C400 C 0.24465 0.60366 0.9285 0.0
C401 C 0.28856 0.57944 0.97488 0.0
C402 C 0.28315 0.54859 0.9406 0.0
H403 H 0.2746 0.62993 0.99591 0.0
H404 H 0.30913 0.58401 0.00524 0.0
S405 S 0.21677 0.52571 0.83153 0.0
N406 N 0.21255 0.56579 0.85622 0.0
N407 N 0.24826 0.51492 0.86687 0.0
C408 C 0.25666 0.54439 0.90127 0.0
C409 C 0.23747 0.57196 0.8953 0.0
C410 C 0.69987 0.27108 0.48605 0.0
C411 C 0.6865 0.23555 0.45721 0.0
C412 C 0.74094 0.2906 0.50154 0.0
C413 C 0.77029 0.27631 0.48663 0.0
H414 H 0.67901 0.28505 0.49462 0.0
H415 H 0.75059 0.31939 0.52081 0.0
S416 S 0.74948 0.18139 0.41677 0.0
N417 N 0.70437 0.18374 0.42016 0.0
N418 N 0.782 0.22175 0.44656 0.0
C419 C 0.7564 0.23889 0.46136 0.0
C420 C 0.71441 0.21832 0.447 0.0
C421 C 0.39266 0.67898 0.96668 0.0
C422 C 0.40855 0.66239 0.93018 0.0
C423 C 0.41178 0.72097 0.97805 0.0
C424 C 0.44663 0.74729 0.9524 0.0
H425 H 0.36428 0.65994 0.98468 0.0
H426 H 0.39691 0.73349 0.0034 0.0
S427 S 0.50286 0.71706 0.85876 0.0
N428 N 0.46358 0.67386 0.87311 0.0
N429 N 0.49883 0.75287 0.89327 0.0
C430 C 0.46455 0.73009 0.91895 0.0
C431 C 0.44548 0.68754 0.90787 0.0
loop_
_geom_bond_atom_site_label_1
_geom_bond_atom_site_label_2
_geom_bond_distance
_geom_bond_site_symmetry_2
_ccdc_geom_bond_type
Co0 O1 2.216 . S
Co0 O2 2.095 . S
Co0 O4 2.004 . S
Co0 O10 2.021 . S
Co0 O12 2.137 1_554 S
Co0 O13 2.244 . S
O1 Co0 2.216 . S
O1 C8 1.247 . S
O2 Co0 2.095 . S
O2 C8 1.263 . S
C3 O12 1.247 1_554 S
C3 O13 1.272 . S
O4 Co0 2.004 . S
O4 C9 1.259 . S
Co5 O6 2.061 . S
Co5 O11 2.052 . S
Co5 O13 2.135 . S
O6 Co5 2.061 . S
O6 C9 1.235 . S
C7 O10 1.238 . S
C7 O11 1.241 . S
C8 O1 1.247 . S
C8 O2 1.263 . S
C9 O4 1.259 . S
C9 O6 1.235 . S
O10 Co0 2.021 . S
O10 C7 1.238 . S
O11 Co5 2.052 . S
O11 C7 1.241 . S
O12 Co0 2.137 1_556 S
O12 C3 1.247 1_556 S
O13 Co0 2.244 . S
O13 C3 1.272 . S
O13 Co5 2.135 . S
Co14 O15 2.216 . S
Co14 O16 2.091 . S
Co14 O18 2.004 . S
Co14 O24 2.021 . S
Co14 O26 2.137 . S
Co14 O27 2.244 . S
O15 Co14 2.216 . S
O15 C22 1.247 . S
O16 Co14 2.091 . S
O16 C22 1.261 . S
C17 O26 1.247 . S
C17 O27 1.272 . S
O18 Co14 2.004 . S
O18 C23 1.259 . S
Co19 O20 2.061 . S
Co19 O25 2.052 . S
Co19 O27 2.135 . S
O20 Co19 2.061 . S
O20 C23 1.235 . S
C21 O24 1.238 . S
C21 O25 1.241 . S
C22 O15 1.247 . S
C22 O16 1.261 . S
C23 O18 1.259 . S
C23 O20 1.235 . S
O24 Co14 2.021 . S
O24 C21 1.238 . S
O25 Co19 2.052 . S
O25 C21 1.241 . S
O26 Co14 2.137 . S
O26 C17 1.247 . S
O27 Co14 2.244 . S
O27 C17 1.272 . S
O27 Co19 2.135 . S
Co28 O29 2.216 . S
Co28 O30 2.091 1_554 S
Co28 O32 2.004 . S
Co28 O38 2.021 . S
Co28 O40 2.137 1_554 S
Co28 O41 2.244 . S
O29 Co28 2.216 . S
O29 C36 1.247 . S
O30 Co28 2.091 1_556 S
O30 C36 1.261 1_556 S
C31 O40 1.247 1_554 S
C31 O41 1.272 . S
O32 Co28 2.004 . S
O32 C37 1.259 . S
Co33 O34 2.061 . S
Co33 O39 2.052 . S
Co33 O41 2.135 . S
O34 Co33 2.061 . S
O34 C37 1.235 . S
C35 O38 1.238 . S
C35 O39 1.241 . S
C36 O29 1.247 . S
C36 O30 1.261 1_554 S
C37 O32 1.259 . S
C37 O34 1.235 . S
O38 Co28 2.021 . S
O38 C35 1.238 . S
O39 Co33 2.052 . S
O39 C35 1.241 . S
O40 Co28 2.137 1_556 S
O40 C31 1.247 1_556 S
O41 Co28 2.244 . S
O41 C31 1.272 . S
O41 Co33 2.135 . S
Co42 O43 2.216 . S
Co42 O44 2.091 . S
Co42 O46 2.004 . S
Co42 O52 2.021 . S
Co42 O54 2.137 . S
Co42 O55 2.244 . S
O43 Co42 2.216 . S
O43 C50 1.247 . S
O44 Co42 2.091 . S
O44 C50 1.261 . S
C45 O54 1.247 . S
C45 O55 1.272 . S
O46 Co42 2.004 . S
O46 C51 1.259 . S
Co47 O48 2.061 . S
Co47 O53 2.052 . S
Co47 O55 2.135 . S
O48 Co47 2.061 . S
O48 C51 1.235 . S
C49 O52 1.238 . S
C49 O53 1.241 . S
C50 O43 1.247 . S
C50 O44 1.261 . S
C51 O46 1.259 . S
C51 O48 1.235 . S
O52 Co42 2.021 . S
O52 C49 1.238 . S
O53 Co47 2.052 . S
O53 C49 1.241 . S
O54 Co42 2.137 . S
O54 C45 1.247 . S
O55 Co42 2.244 . S
O55 C45 1.272 . S
O55 Co47 2.135 . S
Co56 O57 2.216 . S
Co56 O58 2.091 . S
Co56 O60 2.004 . S
Co56 O66 2.021 . S
Co56 O68 2.137 1_554 S
Co56 O69 2.244 . S
O57 Co56 2.216 . S
O57 C64 1.247 . S
O58 Co56 2.091 . S
O58 C64 1.261 . S
C59 O68 1.247 1_554 S
C59 O69 1.272 . S
O60 Co56 2.004 . S
O60 C65 1.259 . S
Co61 O62 2.061 . S
Co61 O67 2.052 . S
Co61 O69 2.135 . S
O62 Co61 2.061 . S
O62 C65 1.235 . S
C63 O66 1.238 . S
C63 O67 1.241 . S
C64 O57 1.247 . S
C64 O58 1.261 . S
C65 O60 1.259 . S
C65 O62 1.235 . S
O66 Co56 2.021 . S
O66 C63 1.238 . S
O67 Co61 2.052 . S
O67 C63 1.241 . S
O68 Co56 2.137 1_556 S
O68 C59 1.247 1_556 S
O69 Co56 2.244 . S
O69 C59 1.272 . S
O69 Co61 2.135 . S
Co70 O71 2.216 . S
Co70 O72 2.091 . S
Co70 O74 2.004 . S
Co70 O80 2.021 . S
Co70 O82 2.137 . S
Co70 O83 2.244 . S
O71 Co70 2.216 . S
O71 C78 1.247 . S
O72 Co70 2.091 . S
O72 C78 1.261 . S
C73 O82 1.247 . S
C73 O83 1.272 . S
O74 Co70 2.004 . S
O74 C79 1.259 . S
Co75 O76 2.061 . S
Co75 O81 2.052 . S
Co75 O83 2.135 . S
O76 Co75 2.061 . S
O76 C79 1.235 . S
C77 O80 1.238 . S
C77 O81 1.241 . S
C78 O71 1.247 . S
C78 O72 1.261 . S
C79 O74 1.259 . S
C79 O76 1.235 . S
O80 Co70 2.021 . S
O80 C77 1.238 . S
O81 Co75 2.052 . S
O81 C77 1.241 . S
O82 Co70 2.137 . S
O82 C73 1.247 . S
O83 Co70 2.244 . S
O83 C73 1.272 . S
O83 Co75 2.135 . S
Co84 O85 2.216 . S
Co84 O86 2.091 . S
Co84 O88 2.004 . S
Co84 O94 2.021 . S
Co84 O96 2.137 . S
Co84 O97 2.244 . S
O85 Co84 2.216 . S
O85 C92 1.247 . S
O86 Co84 2.091 . S
O86 C92 1.261 . S
C87 O96 1.247 . S
C87 O97 1.272 . S
O88 Co84 2.004 . S
O88 C93 1.259 . S
Co89 O90 2.061 . S
Co89 O95 2.052 . S
Co89 O97 2.135 . S
O90 Co89 2.061 . S
O90 C93 1.235 . S
C91 O94 1.238 . S
C91 O95 1.241 . S
C92 O85 1.247 . S
C92 O86 1.261 . S
C93 O88 1.259 . S
C93 O90 1.235 . S
O94 Co84 2.021 . S
O94 C91 1.238 . S
O95 Co89 2.052 . S
O95 C91 1.241 . S
O96 Co84 2.137 . S
O96 C87 1.247 . S
O97 Co84 2.244 . S
O97 C87 1.272 . S
O97 Co89 2.135 . S
Co98 O99 2.216 . S
Co98 O100 2.091 1_556 S
Co98 O102 2.004 . S
Co98 O108 2.021 . S
Co98 O110 2.137 1_556 S
Co98 O111 2.244 . S
O99 Co98 2.216 . S
O99 C106 1.247 . S
O100 Co98 2.091 1_554 S
O100 C106 1.261 1_554 S
C101 O110 1.247 1_556 S
C101 O111 1.272 . S
O102 Co98 2.004 . S
O102 C107 1.259 . S
Co103 O104 2.061 . S
Co103 O109 2.052 . S
Co103 O111 2.135 . S
O104 Co103 2.061 . S
O104 C107 1.235 . S
C105 O108 1.238 . S
C105 O109 1.241 . S
C106 O99 1.247 . S
C106 O100 1.261 1_556 S
C107 O102 1.259 . S
C107 O104 1.235 . S
O108 Co98 2.021 . S
O108 C105 1.238 . S
O109 Co103 2.052 . S
O109 C105 1.241 . S
O110 Co98 2.137 1_554 S
O110 C101 1.247 1_554 S
O111 Co98 2.244 . S
O111 C101 1.272 . S
O111 Co103 2.135 . S
Co112 O113 2.216 . S
Co112 O114 2.091 . S
Co112 O116 2.004 . S
Co112 O122 2.021 . S
Co112 O124 2.137 . S
Co112 O125 2.244 . S
O113 Co112 2.216 . S
O113 C120 1.247 . S
O114 Co112 2.091 . S
O114 C120 1.261 . S
C115 O124 1.247 . S
C115 O125 1.272 . S
O116 Co112 2.004 . S
O116 C121 1.259 . S
Co117 O118 2.061 . S
Co117 O123 2.052 . S
Co117 O125 2.135 . S
O118 Co117 2.061 . S
O118 C121 1.235 . S
C119 O122 1.238 . S
C119 O123 1.241 . S
C120 O113 1.247 . S
C120 O114 1.261 . S
C121 O116 1.259 . S
C121 O118 1.235 . S
O122 Co112 2.021 . S
O122 C119 1.238 . S
O123 Co117 2.052 . S
O123 C119 1.241 . S
O124 Co112 2.137 . S
O124 C115 1.247 . S
O125 Co112 2.244 . S
O125 C115 1.272 . S
O125 Co117 2.135 . S
Co126 O127 2.216 . S
Co126 O128 2.095 . S
Co126 O130 2.004 . S
Co126 O136 2.021 . S
Co126 O138 2.137 1_556 S
Co126 O139 2.244 . S
O127 Co126 2.216 . S
O127 C134 1.247 . S
O128 Co126 2.095 . S
O128 C134 1.263 . S
C129 O138 1.247 1_556 S
C129 O139 1.272 . S
O130 Co126 2.004 . S
O130 C135 1.259 . S
Co131 O132 2.061 . S
Co131 O137 2.052 . S
Co131 O139 2.135 . S
O132 Co131 2.061 . S
O132 C135 1.235 . S
C133 O136 1.238 . S
C133 O137 1.241 . S
C134 O127 1.247 . S
C134 O128 1.263 . S
C135 O130 1.259 . S
C135 O132 1.235 . S
O136 Co126 2.021 . S
O136 C133 1.238 . S
O137 Co131 2.052 . S
O137 C133 1.241 . S
O138 Co126 2.137 1_554 S
O138 C129 1.247 1_554 S
O139 Co126 2.244 . S
O139 C129 1.272 . S
O139 Co131 2.135 . S
Co140 O141 2.216 . S
Co140 O142 2.091 . S
Co140 O144 2.004 . S
Co140 O150 2.021 . S
Co140 O152 2.137 . S
Co140 O153 2.244 . S
O141 Co140 2.216 . S
O141 C148 1.247 . S
O142 Co140 2.091 . S
O142 C148 1.261 . S
C143 O152 1.247 . S
C143 O153 1.272 . S
O144 Co140 2.004 . S
O144 C149 1.259 . S
Co145 O146 2.061 . S
Co145 O151 2.052 . S
Co145 O153 2.135 . S
O146 Co145 2.061 . S
O146 C149 1.235 . S
C147 O150 1.238 . S
C147 O151 1.241 . S
C148 O141 1.247 . S
C148 O142 1.261 . S
C149 O144 1.259 . S
C149 O146 1.235 . S
O150 Co140 2.021 . S
O150 C147 1.238 . S
O151 Co145 2.052 . S
O151 C147 1.241 . S
O152 Co140 2.137 . S
O152 C143 1.247 . S
O153 Co140 2.244 . S
O153 C143 1.272 . S
O153 Co145 2.135 . S
Co154 O155 2.216 . S
Co154 O156 2.091 . S
Co154 O158 2.004 . S
Co154 O164 2.021 . S
Co154 O166 2.137 1_556 S
Co154 O167 2.244 . S
O155 Co154 2.216 . S
O155 C162 1.247 . S
O156 Co154 2.091 . S
O156 C162 1.261 . S
C157 O166 1.247 1_556 S
C157 O167 1.272 . S
O158 Co154 2.004 . S
O158 C163 1.259 . S
Co159 O160 2.061 . S
Co159 O165 2.052 . S
Co159 O167 2.135 . S
O160 Co159 2.061 . S
O160 C163 1.235 . S
C161 O164 1.238 . S
C161 O165 1.241 . S
C162 O155 1.247 . S
C162 O156 1.261 . S
C163 O158 1.259 . S
C163 O160 1.235 . S
O164 Co154 2.021 . S
O164 C161 1.238 . S
O165 Co159 2.052 . S
O165 C161 1.241 . S
O166 Co154 2.137 1_554 S
O166 C157 1.247 1_554 S
O167 Co154 2.244 . S
O167 C157 1.272 . S
O167 Co159 2.135 . S
C168 C169 1.369 . S
C168 C170 1.419 . S
C168 H172 0.930 . S
C169 C168 1.369 . S
C169 C178 1.429 . S
C170 C168 1.419 . S
C170 C171 1.363 . S
C170 H173 0.929 . S
C171 C170 1.363 . S
C171 C177 1.428 . S
H172 C168 0.930 . S
H173 C170 0.929 . S
S174 N175 1.613 . S
S174 N176 1.610 . S
N175 S174 1.613 . S
N175 C178 1.350 . S
N176 S174 1.610 . S
N176 C177 1.351 . S
C177 C171 1.428 . S
C177 N176 1.351 . S
C177 C178 1.434 . S
C178 C169 1.429 . S
C178 N175 1.350 . S
C178 C177 1.434 . S
C179 C180 1.369 . S
C179 C181 1.419 . S
C179 H183 0.930 . S
C180 C179 1.369 . S
C180 C189 1.429 . S
C181 C179 1.419 . S
C181 C182 1.363 . S
C181 H184 0.929 . S
C182 C181 1.363 . S
C182 C188 1.428 . S
H183 C179 0.930 . S
H184 C181 0.929 . S
S185 N186 1.613 . S
S185 N187 1.610 . S
N186 S185 1.613 . S
N186 C189 1.350 . S
N187 S185 1.610 . S
N187 C188 1.351 . S
C188 C182 1.428 . S
C188 N187 1.351 . S
C188 C189 1.434 . S
C189 C180 1.429 . S
C189 N186 1.350 . S
C189 C188 1.434 . S
C190 C191 1.369 . S
C190 C192 1.419 . S
C190 H194 0.930 . S
C191 C190 1.369 . S
C191 C200 1.429 . S
C192 C190 1.419 . S
C192 C193 1.363 . S
C192 H195 0.929 . S
C193 C192 1.363 . S
C193 C199 1.428 . S
H194 C190 0.930 . S
H195 C192 0.929 . S
S196 N197 1.613 . S
S196 N198 1.610 . S
N197 S196 1.613 . S
N197 C200 1.350 . S
N198 S196 1.610 . S
N198 C199 1.351 . S
C199 C193 1.428 . S
C199 N198 1.351 . S
C199 C200 1.434 . S
C200 C191 1.429 . S
C200 N197 1.350 . S
C200 C199 1.434 . S
C201 C202 1.369 . S
C201 C203 1.419 . S
C201 H205 0.930 . S
C202 C201 1.369 . S
C202 C211 1.429 . S
C203 C201 1.419 . S
C203 C204 1.363 . S
C203 H206 0.929 . S
C204 C203 1.363 . S
C204 C210 1.428 . S
H205 C201 0.930 . S
H206 C203 0.929 . S
S207 N208 1.613 . S
S207 N209 1.610 . S
N208 S207 1.613 . S
N208 C211 1.350 . S
N209 S207 1.610 . S
N209 C210 1.351 . S
C210 C204 1.428 . S
C210 N209 1.351 . S
C210 C211 1.434 . S
C211 C202 1.429 . S
C211 N208 1.350 . S
C211 C210 1.434 . S
C212 C213 1.369 . S
C212 C214 1.419 . S
C212 H216 0.930 . S
C213 C212 1.369 . S
C213 C222 1.429 . S
C214 C212 1.419 . S
C214 C215 1.363 . S
C214 H217 0.929 . S
C215 C214 1.363 . S
C215 C221 1.428 . S
H216 C212 0.930 . S
H217 C214 0.929 . S
S218 N219 1.613 . S
S218 N220 1.610 . S
N219 S218 1.613 . S
N219 C222 1.350 . S
N220 S218 1.610 . S
N220 C221 1.351 . S
C221 C215 1.428 . S
C221 N220 1.351 . S
C221 C222 1.434 . S
C222 C213 1.429 . S
C222 N219 1.350 . S
C222 C221 1.434 . S
C223 C224 1.369 . S
C223 C225 1.419 . S
C223 H227 0.930 . S
C224 C223 1.369 . S
C224 C233 1.429 . S
C225 C223 1.419 . S
C225 C226 1.363 . S
C225 H228 0.929 . S
C226 C225 1.363 . S
C226 C232 1.428 . S
H227 C223 0.930 . S
H228 C225 0.929 . S
S229 N230 1.613 . S
S229 N231 1.610 . S
N230 S229 1.613 . S
N230 C233 1.350 . S
N231 S229 1.610 . S
N231 C232 1.351 . S
C232 C226 1.428 . S
C232 N231 1.351 . S
C232 C233 1.434 . S
C233 C224 1.429 . S
C233 N230 1.350 . S
C233 C232 1.434 . S
C234 C235 1.360 1_554 S
C234 C236 1.419 1_545 S
C234 H238 0.930 . S
C235 C234 1.360 1_556 S
C235 C244 1.439 . S
C236 C234 1.419 1_565 S
C236 C237 1.363 1_554 S
C236 H239 0.929 . S
C237 C236 1.363 1_556 S
C237 C243 1.428 . S
H238 C234 0.930 . S
H239 C236 0.929 . S
S240 N241 1.613 . S
S240 N242 1.610 1_545 S
N241 S240 1.613 . S
N241 C244 1.350 . S
N242 S240 1.610 1_565 S
N242 C243 1.351 . S
C243 C237 1.428 . S
C243 N242 1.351 . S
C243 C244 1.434 1_565 S
C244 C235 1.439 . S
C244 N241 1.350 . S
C244 C243 1.434 1_545 S
C245 C246 1.369 . S
C245 C247 1.419 . S
C245 H249 0.930 . S
C246 C245 1.369 . S
C246 C255 1.429 . S
C247 C245 1.419 . S
C247 C248 1.363 . S
C247 H250 0.929 . S
C248 C247 1.363 . S
C248 C254 1.428 . S
H249 C245 0.930 . S
H250 C247 0.929 . S
S251 N252 1.613 . S
S251 N253 1.610 . S
N252 S251 1.613 . S
N252 C255 1.350 . S
N253 S251 1.610 . S
N253 C254 1.351 . S
C254 C248 1.428 . S
C254 N253 1.351 . S
C254 C255 1.434 . S
C255 C246 1.429 . S
C255 N252 1.350 . S
C255 C254 1.434 . S
C256 C257 1.358 1_656 S
C256 C258 1.426 . S
C256 H260 0.925 . S
C257 C256 1.358 1_454 S
C257 C266 1.428 . S
C258 C256 1.426 . S
C258 C259 1.363 1_556 S
C258 H261 0.929 . S
C259 C258 1.363 1_554 S
C259 C265 1.428 . S
H260 C256 0.925 . S
H261 C258 0.929 . S
S262 N263 1.613 . S
S262 N264 1.610 . S
N263 S262 1.613 . S
N263 C266 1.350 . S
N264 S262 1.610 . S
N264 C265 1.351 1_455 S
C265 C259 1.428 . S
C265 N264 1.351 1_655 S
C265 C266 1.434 1_655 S
C266 C257 1.428 . S
C266 N263 1.350 . S
C266 C265 1.434 1_455 S
C267 C268 1.369 . S
C267 C269 1.419 . S
C267 H271 0.930 . S
C268 C267 1.369 . S
C268 C277 1.429 . S
C269 C267 1.419 . S
C269 C270 1.363 1_545 S
C269 H272 0.929 . S
C270 C269 1.363 1_565 S
C270 C276 1.428 . S
H271 C267 0.930 . S
H272 C269 0.929 . S
S273 N274 1.613 . S
S273 N275 1.610 . S
N274 S273 1.613 . S
N274 C277 1.350 1_565 S
N275 S273 1.610 . S
N275 C276 1.351 . S
C276 C270 1.428 . S
C276 N275 1.351 . S
C276 C277 1.434 1_565 S
C277 C268 1.429 . S
C277 N274 1.350 1_545 S
C277 C276 1.434 1_545 S
C278 C279 1.369 . S
C278 C280 1.419 . S
C278 H282 0.930 . S
C279 C278 1.369 . S
C279 C288 1.429 1_556 S
C280 C278 1.419 . S
C280 C281 1.363 1_556 S
C280 H283 0.929 . S
C281 C280 1.363 1_554 S
C281 C287 1.428 . S
H282 C278 0.930 . S
H283 C280 0.929 . S
S284 N285 1.613 . S
S284 N286 1.610 . S
N285 S284 1.613 . S
N285 C288 1.350 . S
N286 S284 1.610 . S
N286 C287 1.351 . S
C287 C281 1.428 . S
C287 N286 1.351 . S
C287 C288 1.434 . S
C288 C279 1.429 1_554 S
C288 N285 1.350 . S
C288 C287 1.434 . S
C289 C290 1.369 . S
C289 C291 1.419 1_655 S
C289 H293 0.930 . S
C290 C289 1.369 . S
C290 C299 1.429 . S
C291 C289 1.419 1_455 S
C291 C292 1.363 . S
C291 H294 0.929 . S
C292 C291 1.363 . S
C292 C298 1.428 . S
H293 C289 0.930 . S
H294 C291 0.929 . S
S295 N296 1.613 1_455 S
S295 N297 1.610 . S
N296 S295 1.613 1_655 S
N296 C299 1.350 . S
N297 S295 1.610 . S
N297 C298 1.351 . S
C298 C292 1.428 . S
C298 N297 1.351 . S
C298 C299 1.434 1_455 S
C299 C290 1.429 . S
C299 N296 1.350 . S
C299 C298 1.434 1_655 S
C300 C301 1.369 . S
C300 C302 1.419 . S
C300 H304 0.930 . S
C301 C300 1.369 . S
C301 C310 1.429 . S
C302 C300 1.419 . S
C302 C303 1.363 . S
C302 H305 0.929 . S
C303 C302 1.363 . S
C303 C309 1.428 1_554 S
H304 C300 0.930 . S
H305 C302 0.929 . S
S306 N307 1.613 . S
S306 N308 1.610 . S
N307 S306 1.613 . S
N307 C310 1.350 1_556 S
N308 S306 1.610 . S
N308 C309 1.351 . S
C309 C303 1.428 1_556 S
C309 N308 1.351 . S
C309 C310 1.434 1_556 S
C310 C301 1.429 . S
C310 N307 1.350 1_554 S
C310 C309 1.434 1_554 S
C311 C312 1.369 . S
C311 C313 1.419 . S
C311 H315 0.930 . S
C312 C311 1.369 . S
C312 C321 1.429 . S
C313 C311 1.419 . S
C313 C314 1.363 . S
C313 H316 0.929 . S
C314 C313 1.363 . S
C314 C320 1.428 . S
H315 C311 0.930 . S
H316 C313 0.929 . S
S317 N318 1.613 . S
S317 N319 1.610 . S
N318 S317 1.613 . S
N318 C321 1.350 . S
N319 S317 1.610 . S
N319 C320 1.351 . S
C320 C314 1.428 . S
C320 N319 1.351 . S
C320 C321 1.434 . S
C321 C312 1.429 . S
C321 N318 1.350 . S
C321 C320 1.434 . S
C322 C323 1.369 . S
C322 C324 1.419 . S
C322 H326 0.930 . S
C323 C322 1.369 . S
C323 C332 1.429 1_554 S
C324 C322 1.419 . S
C324 C325 1.363 . S
C324 H327 0.929 . S
C325 C324 1.363 . S
C325 C331 1.428 1_554 S
H326 C322 0.930 . S
H327 C324 0.929 . S
S328 N329 1.613 . S
S328 N330 1.610 . S
N329 S328 1.613 . S
N329 C332 1.350 . S
N330 S328 1.610 . S
N330 C331 1.351 . S
C331 C325 1.428 1_556 S
C331 N330 1.351 . S
C331 C332 1.434 . S
C332 C323 1.429 1_556 S
C332 N329 1.350 . S
C332 C331 1.434 . S
C333 C334 1.369 . S
C333 C335 1.419 . S
C333 H337 0.930 . S
C334 C333 1.369 . S
C334 C343 1.429 . S
C335 C333 1.419 . S
C335 C336 1.363 . S
C335 H338 0.929 . S
C336 C335 1.363 . S
C336 C342 1.428 . S
H337 C333 0.930 . S
H338 C335 0.929 . S
S339 N340 1.613 . S
S339 N341 1.610 . S
N340 S339 1.613 . S
N340 C343 1.350 . S
N341 S339 1.610 . S
N341 C342 1.351 . S
C342 C336 1.428 . S
C342 N341 1.351 . S
C342 C343 1.434 . S
C343 C334 1.429 . S
C343 N340 1.350 . S
C343 C342 1.434 . S
C344 C345 1.369 . S
C344 C346 1.419 . S
C344 H348 0.930 . S
C345 C344 1.369 . S
C345 C354 1.429 . S
C346 C344 1.419 . S
C346 C347 1.363 . S
C346 H349 0.929 . S
C347 C346 1.363 . S
C347 C353 1.428 1_554 S
H348 C344 0.930 . S
H349 C346 0.929 . S
S350 N351 1.613 . S
S350 N352 1.610 . S
N351 S350 1.613 . S
N351 C354 1.350 1_556 S
N352 S350 1.610 . S
N352 C353 1.351 . S
C353 C347 1.428 1_556 S
C353 N352 1.351 . S
C353 C354 1.434 1_556 S
C354 C345 1.429 . S
C354 N351 1.350 1_554 S
C354 C353 1.434 1_554 S
C355 C356 1.369 . S
C355 C357 1.419 . S
C355 H359 0.930 . S
C356 C355 1.369 . S
C356 C365 1.429 . S
C357 C355 1.419 . S
C357 C358 1.363 . S
C357 H360 0.929 . S
C358 C357 1.363 . S
C358 C364 1.428 . S
H359 C355 0.930 . S
H360 C357 0.929 . S
S361 N362 1.613 . S
S361 N363 1.610 . S
N362 S361 1.613 . S
N362 C365 1.350 . S
N363 S361 1.610 . S
N363 C364 1.351 . S
C364 C358 1.428 . S
C364 N363 1.351 . S
C364 C365 1.434 . S
C365 C356 1.429 . S
C365 N362 1.350 . S
C365 C364 1.434 . S
C366 C367 1.369 . S
C366 C368 1.419 . S
C366 H370 0.930 . S
C367 C366 1.369 . S
C367 C376 1.429 . S
C368 C366 1.419 . S
C368 C369 1.363 . S
C368 H371 0.929 . S
C369 C368 1.363 . S
C369 C375 1.428 . S
H370 C366 0.930 . S
H371 C368 0.929 . S
S372 N373 1.613 . S
S372 N374 1.610 . S
N373 S372 1.613 . S
N373 C376 1.350 . S
N374 S372 1.610 . S
N374 C375 1.351 . S
C375 C369 1.428 . S
C375 N374 1.351 . S
C375 C376 1.434 . S
C376 C367 1.429 . S
C376 N373 1.350 . S
C376 C375 1.434 . S
C377 C378 1.373 . S
C377 C379 1.417 1_556 S
C377 H381 0.928 1_556 S
C378 C377 1.373 . S
C378 C387 1.429 . S
C379 C377 1.417 1_554 S
C379 C380 1.363 1_554 S
C379 H382 0.929 . S
C380 C379 1.363 1_556 S
C380 C386 1.428 . S
H381 C377 0.928 1_554 S
H382 C379 0.929 . S
S383 N384 1.613 . S
S383 N385 1.610 . S
N384 S383 1.613 . S
N384 C387 1.350 . S
N385 S383 1.610 . S
N385 C386 1.351 . S
C386 C380 1.428 . S
C386 N385 1.351 . S
C386 C387 1.434 . S
C387 C378 1.429 . S
C387 N384 1.350 . S
C387 C386 1.434 . S
C388 C389 1.369 . S
C388 C390 1.419 . S
C388 H392 0.930 . S
C389 C388 1.369 . S
C389 C398 1.429 . S
C390 C388 1.419 . S
C390 C391 1.363 . S
C390 H393 0.929 . S
C391 C390 1.363 . S
C391 C397 1.428 . S
H392 C388 0.930 . S
H393 C390 0.929 . S
S394 N395 1.613 . S
S394 N396 1.610 . S
N395 S394 1.613 . S
N395 C398 1.350 . S
N396 S394 1.610 . S
N396 C397 1.351 . S
C397 C391 1.428 . S
C397 N396 1.351 . S
C397 C398 1.434 . S
C398 C389 1.429 . S
C398 N395 1.350 . S
C398 C397 1.434 . S
C399 C400 1.369 . S
C399 C401 1.419 . S
C399 H403 0.930 . S
C400 C399 1.369 . S
C400 C409 1.429 . S
C401 C399 1.419 . S
C401 C402 1.363 . S
C401 H404 0.929 . S
C402 C401 1.363 . S
C402 C408 1.428 . S
H403 C399 0.930 . S
H404 C401 0.929 . S
S405 N406 1.613 . S
S405 N407 1.610 . S
N406 S405 1.613 . S
N406 C409 1.350 . S
N407 S405 1.610 . S
N407 C408 1.351 . S
C408 C402 1.428 . S
C408 N407 1.351 . S
C408 C409 1.434 . S
C409 C400 1.429 . S
C409 N406 1.350 . S
C409 C408 1.434 . S
C410 C411 1.369 . S
C410 C412 1.419 . S
C410 H414 0.930 . S
C411 C410 1.369 . S
C411 C420 1.429 . S
C412 C410 1.419 . S
C412 C413 1.363 . S
C412 H415 0.929 . S
C413 C412 1.363 . S
C413 C419 1.428 . S
H414 C410 0.930 . S
H415 C412 0.929 . S
S416 N417 1.613 . S
S416 N418 1.610 . S
N417 S416 1.613 . S
N417 C420 1.350 . S
N418 S416 1.610 . S
N418 C419 1.351 . S
C419 C413 1.428 . S
C419 N418 1.351 . S
C419 C420 1.434 . S
C420 C411 1.429 . S
C420 N417 1.350 . S
C420 C419 1.434 . S
C421 C422 1.369 . S
C421 C423 1.419 . S
C421 H425 0.930 . S
C422 C421 1.369 . S
C422 C431 1.429 . S
C423 C421 1.419 . S
C423 C424 1.363 . S
C423 H426 0.929 . S
C424 C423 1.363 . S
C424 C430 1.428 1_556 S
H425 C421 0.930 . S
H426 C423 0.929 . S
S427 N428 1.613 . S
S427 N429 1.610 . S
N428 S427 1.613 . S
N428 C431 1.350 1_554 S
N429 S427 1.610 . S
N429 C430 1.351 . S
C430 C424 1.428 1_554 S
C430 N429 1.351 . S
C430 C431 1.434 1_554 S
C431 C422 1.429 . S
C431 N428 1.350 1_556 S
C431 C430 1.434 1_556 S
C169 C147 1.548 . S
C171 C7 1.565 . S
C180 C21 1.500 . S
C182 C161 1.500 . S
C191 C35 1.550 . S
C193 C91 1.560 . S
C202 C105 1.551 . S
C204 C49 1.566 . S
C213 C119 1.493 . S
C215 C63 1.497 . S
C224 C77 1.550 . S
C226 C133 1.566 . S
C235 C8 1.186 1_556 S
C237 C106 1.226 . S
C246 C22 1.055 . S
C248 C120 1.050 . S
C257 C134 1.184 1_554 S
C259 C36 1.228 . S
C268 C148 1.227 . S
C270 C50 1.187 . S
C279 C162 1.055 . S
C281 C64 1.049 . S
C290 C92 1.194 . S
C292 C78 1.224 . S
C301 C9 1.295 . S
C303 C59 1.204 . S
C312 C23 1.147 . S
C314 C73 1.146 . S
C323 C37 1.234 . S
C325 C3 1.183 . S
C334 C51 1.298 . S
C336 C17 1.200 . S
C345 C65 1.145 . S
C347 C31 1.143 . S
C356 C79 1.235 . S
C358 C45 1.176 . S
C367 C93 1.301 . S
C369 C115 1.208 . S
C378 C107 1.238 . S
C380 C129 1.181 . S
C389 C143 1.140 . S
C391 C121 1.153 . S
C400 C135 1.300 . S
C402 C157 1.212 . S
C411 C149 1.239 . S
C413 C87 1.182 . S
C422 C163 1.154 . S
C424 C101 1.149 . S
