# Generated by pormake.
# Topology ghw, (5)-cn, num edge types: 1
# Building blocks:
#     Node 0, Type 0, BuildingBlock: XOMCOT_clean_sbu_1, # of connection points: 5
#     Node 1, Type 0, BuildingBlock: XOMCOT_clean_sbu_1, # of connection points: 5
#     Node 2, Type 0, BuildingBlock: XOMCOT_clean_sbu_1, # of connection points: 5
#     Node 3, Type 0, BuildingBlock: XOMCOT_clean_sbu_1, # of connection points: 5
#     Node 4, Type 0, BuildingBlock: XOMCOT_clean_sbu_1, # of connection points: 5
#     Node 5, Type 0, BuildingBlock: XOMCOT_clean_sbu_1, # of connection points: 5
#     Node 6, Type 0, BuildingBlock: XOMCOT_clean_sbu_1, # of connection points: 5
#     Node 7, Type 0, BuildingBlock: XOMCOT_clean_sbu_1, # of connection points: 5
#     Node 8, Type 0, BuildingBlock: XOMCOT_clean_sbu_1, # of connection points: 5
#     Node 9, Type 0, BuildingBlock: XOMCOT_clean_sbu_1, # of connection points: 5
#     Node 10, Type 0, BuildingBlock: XOMCOT_clean_sbu_1, # of connection points: 5
#     Node 11, Type 0, BuildingBlock: XOMCOT_clean_sbu_1, # of connection points: 5
#     Node 12, Type 0, BuildingBlock: XOMCOT_clean_sbu_1, # of connection points: 5
#     Node 13, Type 0, BuildingBlock: XOMCOT_clean_sbu_1, # of connection points: 5
#     Node 14, Type 0, BuildingBlock: XOMCOT_clean_sbu_1, # of connection points: 5
#     Node 15, Type 0, BuildingBlock: XOMCOT_clean_sbu_1, # of connection points: 5
#     Edge 16, Type (0, 0), BuildingBlock: XIVTED_clean_linker_0, # of connection points: 2
#     Edge 17, Type (0, 0), BuildingBlock: XIVTED_clean_linker_0, # of connection points: 2
#     Edge 18, Type (0, 0), BuildingBlock: XIVTED_clean_linker_0, # of connection points: 2
#     Edge 19, Type (0, 0), BuildingBlock: XIVTED_clean_linker_0, # of connection points: 2
#     Edge 20, Type (0, 0), BuildingBlock: XIVTED_clean_linker_0, # of connection points: 2
#     Edge 21, Type (0, 0), BuildingBlock: XIVTED_clean_linker_0, # of connection points: 2
#     Edge 22, Type (0, 0), BuildingBlock: XIVTED_clean_linker_0, # of connection points: 2
#     Edge 23, Type (0, 0), BuildingBlock: XIVTED_clean_linker_0, # of connection points: 2
#     Edge 24, Type (0, 0), BuildingBlock: XIVTED_clean_linker_0, # of connection points: 2
#     Edge 25, Type (0, 0), BuildingBlock: XIVTED_clean_linker_0, # of connection points: 2
#     Edge 26, Type (0, 0), BuildingBlock: XIVTED_clean_linker_0, # of connection points: 2
#     Edge 27, Type (0, 0), BuildingBlock: XIVTED_clean_linker_0, # of connection points: 2
#     Edge 28, Type (0, 0), BuildingBlock: XIVTED_clean_linker_0, # of connection points: 2
#     Edge 29, Type (0, 0), BuildingBlock: XIVTED_clean_linker_0, # of connection points: 2
#     Edge 30, Type (0, 0), BuildingBlock: XIVTED_clean_linker_0, # of connection points: 2
#     Edge 31, Type (0, 0), BuildingBlock: XIVTED_clean_linker_0, # of connection points: 2
#     Edge 32, Type (0, 0), BuildingBlock: XIVTED_clean_linker_0, # of connection points: 2
#     Edge 33, Type (0, 0), BuildingBlock: XIVTED_clean_linker_0, # of connection points: 2
#     Edge 34, Type (0, 0), BuildingBlock: XIVTED_clean_linker_0, # of connection points: 2
#     Edge 35, Type (0, 0), BuildingBlock: XIVTED_clean_linker_0, # of connection points: 2
#     Edge 36, Type (0, 0), BuildingBlock: XIVTED_clean_linker_0, # of connection points: 2
#     Edge 37, Type (0, 0), BuildingBlock: XIVTED_clean_linker_0, # of connection points: 2
#     Edge 38, Type (0, 0), BuildingBlock: XIVTED_clean_linker_0, # of connection points: 2
#     Edge 39, Type (0, 0), BuildingBlock: XIVTED_clean_linker_0, # of connection points: 2
#     Edge 40, Type (0, 0), BuildingBlock: XIVTED_clean_linker_0, # of connection points: 2
#     Edge 41, Type (0, 0), BuildingBlock: XIVTED_clean_linker_0, # of connection points: 2
#     Edge 42, Type (0, 0), BuildingBlock: XIVTED_clean_linker_0, # of connection points: 2
#     Edge 43, Type (0, 0), BuildingBlock: XIVTED_clean_linker_0, # of connection points: 2
#     Edge 44, Type (0, 0), BuildingBlock: XIVTED_clean_linker_0, # of connection points: 2
#     Edge 45, Type (0, 0), BuildingBlock: XIVTED_clean_linker_0, # of connection points: 2
#     Edge 46, Type (0, 0), BuildingBlock: XIVTED_clean_linker_0, # of connection points: 2
#     Edge 47, Type (0, 0), BuildingBlock: XIVTED_clean_linker_0, # of connection points: 2
#     Edge 48, Type (0, 0), BuildingBlock: XIVTED_clean_linker_0, # of connection points: 2
#     Edge 49, Type (0, 0), BuildingBlock: XIVTED_clean_linker_0, # of connection points: 2
#     Edge 50, Type (0, 0), BuildingBlock: XIVTED_clean_linker_0, # of connection points: 2
#     Edge 51, Type (0, 0), BuildingBlock: XIVTED_clean_linker_0, # of connection points: 2
#     Edge 52, Type (0, 0), BuildingBlock: XIVTED_clean_linker_0, # of connection points: 2
#     Edge 53, Type (0, 0), BuildingBlock: XIVTED_clean_linker_0, # of connection points: 2
#     Edge 54, Type (0, 0), BuildingBlock: XIVTED_clean_linker_0, # of connection points: 2
#     Edge 55, Type (0, 0), BuildingBlock: XIVTED_clean_linker_0, # of connection points: 2
# Relax obj value: 0.212
# Max RMSD: 0.216
# Mean RMSD: 0.216
data_MOF--net-ghw--node1-XOMCOT_clean_sbu_1--edge1-XIVTED_clean_linker_0
_symmetry_space_group_name_H-M    P1
_symmetry_Int_Tables_number       1
_symmetry_cell_setting            triclinic
loop_
_symmetry_equiv_pos_as_xyz
'x, y, z'
_cell_length_a     33.303791
_cell_length_b     41.425245
_cell_length_c     34.815406
_cell_angle_alpha  90.053669
_cell_angle_beta   92.503056
_cell_angle_gamma 89.964564
loop_
_atom_site_label
_atom_site_type_symbol
_atom_site_fract_x
_atom_site_fract_y
_atom_site_fract_z
_atom_type_partial_charge
C0 C 0.15426 0.13793 0.36165 0.0
C1 C 0.19064 0.12367 0.35544 0.0
N2 N 0.2178 0.13471 0.38211 0.0
N3 N 0.15822 0.15791 0.39217 0.0
C4 C 0.19729 0.15535 0.40419 0.0
H5 H 0.12685 0.13481 0.34421 0.0
Co6 Co 0.11665 0.18399 0.40937 0.0
C7 C 0.16131 0.24368 0.42986 0.0
O8 O 0.13635 0.25873 0.40568 0.0
N9 N 0.07387 0.20877 0.42787 0.0
C10 C 0.03285 0.23996 0.46102 0.0
C11 C 0.07219 0.23379 0.45295 0.0
C12 C 0.03529 0.19903 0.42342 0.0
N13 N 0.00996 0.2178 0.44256 0.0
O14 O 0.11137 0.15633 0.45374 0.0
H15 H 0.09748 0.24575 0.46702 0.0
H16 H 0.02584 0.17821 0.40655 0.0
O17 O 0.15673 0.21329 0.43577 0.0
C18 C 0.08932 0.13273 0.44165 0.0
O19 O 0.07972 0.13122 0.40469 0.0
N20 N 0.11776 0.20794 0.36245 0.0
C21 C 0.11592 0.2252 0.28454 0.0
C22 C 0.15255 0.22357 0.30601 0.0
C23 C 0.15281 0.21504 0.34499 0.0
C24 C 0.08198 0.21136 0.34225 0.0
C25 C 0.08036 0.2209 0.30394 0.0
H26 H 0.18144 0.212 0.36039 0.0
H27 H 0.05425 0.2044 0.35436 0.0
H28 H 0.21058 0.16873 0.42821 0.0
H29 H 0.19692 0.10744 0.33207 0.0
H30 H 0.02209 0.25813 0.48045 0.0
H31 H 0.18091 0.22653 0.29237 0.0
H32 H 0.05124 0.22262 0.28898 0.0
C33 C 0.0994 0.10052 0.91771 0.0
C34 C 0.06206 0.08644 0.91954 0.0
N35 N 0.03813 0.0984 0.89072 0.0
N36 N 0.09896 0.12134 0.88795 0.0
C37 C 0.0616 0.11884 0.87151 0.0
H38 H 0.12433 0.09756 0.93837 0.0
Co39 Co 0.13893 0.15146 0.8775 0.0
C40 C 0.07988 0.20374 0.85066 0.0
O41 O 0.08459 0.21927 0.88335 0.0
N42 N 0.17914 0.18146 0.8658 0.0
C43 C 0.21364 0.22602 0.8534 0.0
C44 C 0.17725 0.21402 0.86333 0.0
C45 C 0.2174 0.17442 0.85752 0.0
N46 N 0.23888 0.20105 0.84968 0.0
O47 O 0.154 0.12518 0.83392 0.0
H48 H 0.15188 0.2288 0.86934 0.0
H49 H 0.22982 0.15033 0.85857 0.0
O50 O 0.0996 0.17757 0.84487 0.0
C51 C 0.17616 0.10212 0.84739 0.0
O52 O 0.18304 0.10087 0.88482 0.0
N53 N 0.1282 0.17375 0.92404 0.0
C54 C 0.11953 0.19689 0.99902 0.0
C55 C 0.08584 0.18826 0.97566 0.0
C56 C 0.09086 0.17594 0.93885 0.0
C57 C 0.16129 0.18148 0.9468 0.0
C58 C 0.15764 0.19355 0.98395 0.0
H59 H 0.0644 0.16861 0.92204 0.0
H60 H 0.1911 0.17694 0.93703 0.0
H61 H 0.05101 0.13312 0.84717 0.0
H62 H 0.05251 0.07061 0.9421 0.0
H63 H 0.22103 0.25123 0.84974 0.0
H64 H 0.05572 0.19035 0.98591 0.0
H65 H 0.18466 0.19854 1.00135 0.0
C66 C 0.81476 0.99339 0.6286 0.0
C67 C 0.77438 1.00004 0.63071 0.0
N68 N 0.75363 0.97296 0.62175 0.0
N69 N 0.81943 0.96233 0.61805 0.0
C70 C 0.78164 0.95061 0.61395 0.0
H71 H 0.83908 1.0099 0.63565 0.0
Co72 Co 0.86767 0.93986 0.61516 0.0
C73 C 0.84599 0.87782 0.57623 0.0
O74 O 0.87154 0.86301 0.60008 0.0
N75 N 0.91651 0.91773 0.61169 0.0
C76 C 0.96844 0.89327 0.58586 0.0
C77 C 0.93224 0.90833 0.57828 0.0
C78 C 0.94452 0.90916 0.63899 0.0
N79 N 0.97594 0.8939 0.62408 0.0
O80 O 0.88422 0.96768 0.57395 0.0
H81 H 0.91819 0.91225 0.55007 0.0
H82 H 0.94275 0.91427 0.66922 0.0
O83 O 0.84147 0.90854 0.57871 0.0
C84 C 0.90737 0.98937 0.58902 0.0
O85 O 0.9126 0.9898 0.62666 0.0
N86 N 0.85414 0.91593 0.65894 0.0
C87 C 0.84788 0.88671 0.73051 0.0
C88 C 0.82459 0.87567 0.69863 0.0
C89 C 0.82777 0.89094 0.66297 0.0
C90 C 0.87301 0.92911 0.69069 0.0
C91 C 0.87136 0.91437 0.72649 0.0
H92 H 0.80896 0.88253 0.63908 0.0
H93 H 0.89116 0.95053 0.68776 0.0
H94 H 0.77471 0.92593 0.60607 0.0
H95 H 0.76144 1.02262 0.63979 0.0
H96 H 0.98837 0.88367 0.56491 0.0
H97 H 0.80471 0.85516 0.70111 0.0
H98 H 0.88832 0.92455 0.75084 0.0
C99 C 0.90042 0.92659 0.08481 0.0
C100 C 0.9367 0.94138 0.07918 0.0
N101 N 0.9628 0.93239 0.10785 0.0
N102 N 0.90385 0.90798 0.11657 0.0
C103 C 0.942 0.91248 0.13034 0.0
H104 H 0.87369 0.92818 0.06611 0.0
Co105 Co 0.86474 0.87994 0.1345 0.0
C106 C 0.91677 0.82306 0.15244 0.0
O107 O 0.89491 0.80684 0.12672 0.0
N108 N 0.82502 0.85282 0.15423 0.0
C109 C 0.78908 0.81762 0.18709 0.0
C110 C 0.82695 0.82609 0.17675 0.0
C111 C 0.78574 0.86093 0.1533 0.0
N112 N 0.76342 0.83976 0.17244 0.0
O113 O 0.85903 0.90723 0.17915 0.0
H114 H 0.85375 0.81416 0.18763 0.0
H115 H 0.77364 0.88207 0.13868 0.0
O116 O 0.90768 0.85255 0.15973 0.0
C117 C 0.83574 0.93023 0.16749 0.0
O118 O 0.82509 0.93132 0.13072 0.0
N119 N 0.86565 0.85631 0.08715 0.0
C120 C 0.86048 0.83905 0.00902 0.0
C121 C 0.89801 0.8438 0.02828 0.0
C122 C 0.89996 0.85212 0.06735 0.0
C123 C 0.82925 0.85 0.06917 0.0
C124 C 0.82614 0.84034 0.03086 0.0
H125 H 0.92903 0.85725 0.08101 0.0
H126 H 0.80174 0.85449 0.08318 0.0
H127 H 0.95493 0.90018 0.15534 0.0
H128 H 0.94358 0.95699 0.05544 0.0
H129 H 0.78122 0.79771 0.20543 0.0
H130 H 0.92559 0.8433 0.01297 0.0
H131 H 0.79648 0.83592 0.01799 0.0
C132 C 0.14876 0.62676 0.83107 0.0
C133 C 0.18502 0.61266 0.8237 0.0
N134 N 0.21181 0.62095 0.8521 0.0
N135 N 0.15273 0.64418 0.86378 0.0
C136 C 0.19135 0.63971 0.87629 0.0
H137 H 0.12165 0.62562 0.81286 0.0
Co138 Co 0.11296 0.67103 0.88316 0.0
C139 C 0.16733 0.72588 0.90681 0.0
O140 O 0.1506 0.74322 0.87892 0.0
N141 N 0.07257 0.69691 0.90382 0.0
C142 C 0.03391 0.73369 0.93111 0.0
C143 C 0.07219 0.72643 0.92066 0.0
C144 C 0.03432 0.68654 0.90557 0.0
N145 N 0.01039 0.70839 0.92177 0.0
O146 O 0.10626 0.64099 0.92529 0.0
H147 H 0.09746 0.74214 0.92586 0.0
H148 H 0.02373 0.66382 0.89364 0.0
O149 O 0.15495 0.69692 0.91242 0.0
C150 C 0.08442 0.61783 0.91155 0.0
O151 O 0.07462 0.61818 0.87458 0.0
N152 N 0.1147 0.69738 0.8379 0.0
C153 C 0.10944 0.71914 0.7614 0.0
C154 C 0.14689 0.71217 0.77972 0.0
C155 C 0.14889 0.70155 0.81792 0.0
C156 C 0.0784 0.70569 0.82092 0.0
C157 C 0.07531 0.71753 0.78348 0.0
H158 H 0.1779 0.69506 0.83074 0.0
H159 H 0.05082 0.70122 0.83496 0.0
H160 H 0.20484 0.65135 0.90152 0.0
H161 H 0.19139 0.59804 0.79891 0.0
H162 H 0.02412 0.75572 0.94461 0.0
H163 H 0.17431 0.71276 0.76417 0.0
H164 H 0.04575 0.72347 0.77135 0.0
C165 C 0.06975 0.57778 0.38662 0.0
C166 C 0.02936 0.57127 0.38902 0.0
N167 N 0.00851 0.59729 0.37627 0.0
N168 N 0.07432 0.60765 0.3721 0.0
C169 C 0.03646 0.61886 0.36603 0.0
H170 H 0.09416 0.56204 0.39592 0.0
Co171 Co 0.12268 0.62926 0.36605 0.0
C172 C 0.10064 0.69083 0.32705 0.0
O173 O 0.12693 0.70542 0.35036 0.0
N174 N 0.1716 0.6506 0.35903 0.0
C175 C 0.22071 0.67372 0.32753 0.0
C176 C 0.18487 0.6576 0.3238 0.0
C177 C 0.20077 0.66192 0.3837 0.0
N178 N 0.23051 0.67643 0.36522 0.0
O179 O 0.13616 0.60017 0.32506 0.0
H180 H 0.16908 0.65169 0.29691 0.0
H181 H 0.20065 0.65992 0.41455 0.0
O182 O 0.09554 0.66019 0.32982 0.0
C183 C 0.15964 0.57848 0.3396 0.0
O184 O 0.16659 0.57856 0.37705 0.0
N185 N 0.11199 0.65444 0.40956 0.0
C186 C 0.1063 0.68404 0.48108 0.0
C187 C 0.08113 0.6937 0.44981 0.0
C188 C 0.08409 0.67825 0.41419 0.0
C189 C 0.13348 0.64281 0.4407 0.0
C190 C 0.13208 0.6578 0.47638 0.0
H191 H 0.06365 0.68532 0.39085 0.0
H192 H 0.1529 0.62214 0.43743 0.0
H193 H 0.02938 0.64259 0.35478 0.0
H194 H 0.01646 0.54958 0.40061 0.0
H195 H 0.23861 0.68219 0.30436 0.0
H196 H 0.05961 0.71305 0.45282 0.0
H197 H 0.1506 0.64859 0.50029 0.0
C198 C 0.83891 0.4642 0.11645 0.0
C199 C 0.79975 0.47293 0.12225 0.0
N200 N 0.77541 0.4492 0.1086 0.0
N201 N 0.83944 0.4352 0.09889 0.0
C202 C 0.80026 0.42667 0.09456 0.0
H203 H 0.86532 0.47775 0.12567 0.0
Co204 Co 0.88554 0.41153 0.0881 0.0
C205 C 0.85585 0.34825 0.05995 0.0
O206 O 0.88424 0.33529 0.08238 0.0
N207 N 0.93201 0.38784 0.07619 0.0
C208 C 0.97424 0.36108 0.03984 0.0
C209 C 0.93907 0.37827 0.03998 0.0
C210 C 0.9641 0.37669 0.09738 0.0
N211 N 0.99007 0.36003 0.07607 0.0
O212 O 0.89412 0.43839 0.04339 0.0
H213 H 0.91938 0.38308 0.01511 0.0
H214 H 0.96908 0.38113 0.12767 0.0
O215 O 0.85223 0.37913 0.05872 0.0
C216 C 0.91841 0.46025 0.05637 0.0
O217 O 0.92928 0.45948 0.09308 0.0
N218 N 0.88066 0.38995 0.1351 0.0
C219 C 0.87869 0.37435 0.21314 0.0
C220 C 0.85001 0.36147 0.18649 0.0
C221 C 0.85104 0.3701 0.14748 0.0
C222 C 0.90756 0.40329 0.16096 0.0
C223 C 0.90807 0.39507 0.19954 0.0
H224 H 0.82704 0.36206 0.12793 0.0
H225 H 0.92869 0.42108 0.15157 0.0
H226 H 0.79004 0.4041 0.08198 0.0
H227 H 0.79013 0.49452 0.13677 0.0
H228 H 0.98689 0.35019 0.01485 0.0
H229 H 0.826 0.34618 0.19593 0.0
H230 H 0.93098 0.40561 0.21869 0.0
C231 C 0.91182 0.44163 0.59232 0.0
C232 C 0.94858 0.45683 0.59282 0.0
N233 N 0.97284 0.44263 0.6198 0.0
N234 N 0.91278 0.41798 0.61894 0.0
C235 C 0.95022 0.41946 0.63554 0.0
H236 H 0.88663 0.44642 0.57248 0.0
Co237 Co 0.87178 0.38784 0.62608 0.0
C238 C 0.92828 0.33268 0.64795 0.0
O239 O 0.9236 0.31954 0.61378 0.0
N240 N 0.83048 0.35788 0.63439 0.0
C241 C 0.79265 0.31397 0.64079 0.0
C242 C 0.83013 0.32522 0.63269 0.0
C243 C 0.79272 0.36571 0.6434 0.0
N244 N 0.76934 0.33957 0.64779 0.0
O245 O 0.85709 0.41093 0.6724 0.0
H246 H 0.85463 0.31013 0.62479 0.0
H247 H 0.78182 0.39019 0.64506 0.0
O248 O 0.9098 0.35897 0.65584 0.0
C249 C 0.83585 0.43546 0.66177 0.0
O250 O 0.83001 0.44045 0.62468 0.0
N251 N 0.88206 0.36887 0.57744 0.0
C252 C 0.88953 0.35416 0.49947 0.0
C253 C 0.92367 0.35969 0.52358 0.0
C254 C 0.9193 0.36745 0.56226 0.0
C255 C 0.84864 0.36369 0.55403 0.0
C256 C 0.85172 0.3556 0.51539 0.0
H257 H 0.94599 0.37277 0.57985 0.0
H258 H 0.819 0.36768 0.56448 0.0
H259 H 0.96126 0.40311 0.65777 0.0
H260 H 0.95743 0.47557 0.57328 0.0
H261 H 0.78312 0.28899 0.64083 0.0
H262 H 0.95348 0.35917 0.51233 0.0
H263 H 0.82449 0.35282 0.49752 0.0
C264 C 0.67582 0.07389 0.89133 0.0
C265 C 0.71479 0.0631 0.88958 0.0
N266 N 0.73945 0.08886 0.89193 0.0
N267 N 0.67588 0.10628 0.89512 0.0
C268 C 0.71506 0.1147 0.89524 0.0
H269 H 0.64919 0.05902 0.88916 0.0
Co270 Co 0.63093 0.13284 0.89651 0.0
C271 C 0.66181 0.19791 0.91921 0.0
O272 O 0.63579 0.21044 0.89394 0.0
N273 N 0.58537 0.15914 0.89859 0.0
C274 C 0.53854 0.19028 0.92317 0.0
C275 C 0.57412 0.17442 0.93073 0.0
C276 C 0.55541 0.16526 0.87223 0.0
N277 N 0.52686 0.18441 0.88638 0.0
O278 O 0.61581 0.113 0.94444 0.0
H279 H 0.59058 0.17366 0.95819 0.0
H280 H 0.55362 0.15528 0.84357 0.0
O281 O 0.66367 0.1671 0.92327 0.0
C282 C 0.58928 0.09189 0.93422 0.0
O283 O 0.58062 0.08843 0.89728 0.0
N284 N 0.64197 0.14785 0.84698 0.0
C285 C 0.64607 0.15701 0.76771 0.0
C286 C 0.67039 0.1753 0.79358 0.0
C287 C 0.66864 0.16975 0.83338 0.0
C288 C 0.61991 0.12905 0.82195 0.0
C289 C 0.62084 0.13356 0.78257 0.0
H290 H 0.68925 0.18253 0.85266 0.0
H291 H 0.60062 0.11055 0.83281 0.0
H292 H 0.72552 0.13937 0.89748 0.0
H293 H 0.7241 0.03832 0.88575 0.0
H294 H 0.52149 0.20364 0.94367 0.0
H295 H 0.69125 0.19296 0.78313 0.0
H296 H 0.60156 0.11879 0.76387 0.0
C297 C 0.5708 0.06848 0.36084 0.0
C298 C 0.53042 0.06269 0.36451 0.0
N299 N 0.51103 0.09127 0.36468 0.0
N300 N 0.57686 0.10056 0.35835 0.0
C301 C 0.53993 0.11375 0.36086 0.0
H302 H 0.59422 0.05042 0.36092 0.0
Co303 Co 0.6256 0.12253 0.35629 0.0
C304 C 0.60326 0.18757 0.32374 0.0
O305 O 0.6318 0.20121 0.34538 0.0
N306 N 0.67444 0.14447 0.3538 0.0
C307 C 0.72593 0.17054 0.32967 0.0
C308 C 0.6901 0.1553 0.32103 0.0
C309 C 0.70194 0.1525 0.38182 0.0
N310 N 0.73319 0.16871 0.36788 0.0
O311 O 0.63945 0.09837 0.31075 0.0
H312 H 0.67603 0.15261 0.29262 0.0
H313 H 0.69938 0.14676 0.41187 0.0
O314 O 0.59795 0.15694 0.32548 0.0
C315 C 0.66266 0.07553 0.323 0.0
O316 O 0.66911 0.07269 0.36033 0.0
N317 N 0.61541 0.14173 0.40387 0.0
C318 C 0.61102 0.15526 0.48213 0.0
C319 C 0.59452 0.17676 0.45452 0.0
C320 C 0.59629 0.16919 0.41518 0.0
C321 C 0.63038 0.12048 0.43062 0.0
C322 C 0.62886 0.12681 0.46961 0.0
H323 H 0.5816 0.18504 0.3945 0.0
H324 H 0.64435 0.09843 0.42143 0.0
H325 H 0.53442 0.13948 0.36026 0.0
H326 H 0.51667 0.03927 0.36798 0.0
H327 H 0.74562 0.1814 0.3094 0.0
H328 H 0.57959 0.19863 0.46326 0.0
H329 H 0.64196 0.10954 0.48989 0.0
C330 C 0.32146 0.9655 0.16045 0.0
C331 C 0.28221 0.9758 0.1615 0.0
N332 N 0.25941 0.95669 0.13806 0.0
N333 N 0.32334 0.93994 0.13663 0.0
C334 C 0.28509 0.93527 0.12322 0.0
H335 H 0.34676 0.97512 0.17729 0.0
Co336 Co 0.36886 0.91472 0.131 0.0
C337 C 0.33872 0.8526 0.09837 0.0
O338 O 0.36244 0.8375 0.12364 0.0
N339 N 0.41517 0.88972 0.12466 0.0
C340 C 0.46179 0.86161 0.09508 0.0
C341 C 0.4256 0.87726 0.09056 0.0
C342 C 0.44641 0.8823 0.1491 0.0
N343 N 0.47473 0.86491 0.13195 0.0
O344 O 0.38371 0.94013 0.08734 0.0
H345 H 0.40828 0.87999 0.06374 0.0
H346 H 0.44953 0.89019 0.17857 0.0
O347 O 0.33783 0.8836 0.09804 0.0
C348 C 0.408 0.96212 0.0997 0.0
O349 O 0.4149 0.96458 0.13705 0.0
N350 N 0.35706 0.89322 0.17681 0.0
C351 C 0.34911 0.86947 0.25107 0.0
C352 C 0.32154 0.86058 0.22124 0.0
C353 C 0.32564 0.87324 0.18421 0.0
C354 C 0.38109 0.90457 0.20643 0.0
C355 C 0.37857 0.89233 0.2434 0.0
H356 H 0.30323 0.86738 0.16198 0.0
H357 H 0.40256 0.92346 0.20119 0.0
H358 H 0.27567 0.91545 0.1047 0.0
H359 H 0.27117 0.99531 0.17886 0.0
H360 H 0.47836 0.85029 0.07263 0.0
H361 H 0.29712 0.84413 0.22648 0.0
H362 H 0.39891 0.90136 0.26606 0.0
C363 C 0.39365 0.93782 0.61254 0.0
C364 C 0.43002 0.95194 0.60574 0.0
N365 N 0.45774 0.94011 0.63135 0.0
N366 N 0.39834 0.91719 0.64233 0.0
C367 C 0.43765 0.91932 0.65342 0.0
H368 H 0.36578 0.94149 0.59599 0.0
Co369 Co 0.35806 0.89065 0.66077 0.0
C370 C 0.40389 0.8308 0.67837 0.0
O371 O 0.37761 0.81614 0.65512 0.0
N372 N 0.31687 0.86521 0.68091 0.0
C373 C 0.27913 0.833 0.71615 0.0
C374 C 0.31765 0.84084 0.707 0.0
C375 C 0.27761 0.87313 0.67715 0.0
N376 N 0.25428 0.8536 0.69743 0.0
O377 O 0.35445 0.9183 0.70561 0.0
H378 H 0.34411 0.8305 0.72099 0.0
H379 H 0.26619 0.8932 0.66004 0.0
O380 O 0.39971 0.86117 0.68511 0.0
C381 C 0.33104 0.94128 0.69402 0.0
O382 O 0.31856 0.9413 0.65769 0.0
N383 N 0.35741 0.86701 0.61329 0.0
C384 C 0.35307 0.84804 0.53559 0.0
C385 C 0.39036 0.85135 0.55579 0.0
C386 C 0.39185 0.86052 0.59457 0.0
C387 C 0.32107 0.8627 0.59433 0.0
C388 C 0.31825 0.85222 0.55629 0.0
H389 H 0.42093 0.86419 0.60889 0.0
H390 H 0.29365 0.8692 0.60732 0.0
H391 H 0.45148 0.90546 0.67676 0.0
H392 H 0.43592 0.96855 0.58268 0.0
H393 H 0.27019 0.81483 0.73641 0.0
H394 H 0.41838 0.84879 0.5415 0.0
H395 H 0.2886 0.84905 0.54288 0.0
C396 C 0.64901 0.63198 0.3447 0.0
C397 C 0.6855 0.61669 0.34209 0.0
N398 N 0.71174 0.63016 0.36793 0.0
N399 N 0.65217 0.65499 0.3721 0.0
C400 C 0.69062 0.65301 0.38604 0.0
H401 H 0.62233 0.62757 0.32664 0.0
Co402 Co 0.61203 0.68455 0.38443 0.0
C403 C 0.66888 0.74018 0.4008 0.0
O404 O 0.65832 0.75342 0.36766 0.0
N405 N 0.57153 0.71367 0.39823 0.0
C406 C 0.53353 0.75617 0.41187 0.0
C407 C 0.57123 0.74616 0.40265 0.0
C408 C 0.53364 0.70467 0.40536 0.0
N409 N 0.51012 0.72993 0.41373 0.0
O410 O 0.6032 0.66052 0.43141 0.0
H411 H 0.59589 0.76225 0.39859 0.0
H412 H 0.52273 0.6802 0.40236 0.0
O413 O 0.65304 0.7133 0.41061 0.0
C414 C 0.58104 0.63634 0.42141 0.0
O415 O 0.57163 0.63263 0.38462 0.0
N416 N 0.61593 0.70445 0.33492 0.0
C417 C 0.61254 0.71687 0.25539 0.0
C418 C 0.64949 0.7114 0.27539 0.0
C419 C 0.65053 0.70519 0.315 0.0
C420 C 0.58002 0.71065 0.31582 0.0
C421 C 0.57784 0.71787 0.27672 0.0
H422 H 0.67917 0.69971 0.32928 0.0
H423 H 0.55205 0.70801 0.32991 0.0
H424 H 0.70327 0.66856 0.40841 0.0
H425 H 0.69266 0.59825 0.32143 0.0
H426 H 0.52385 0.78083 0.41604 0.0
H427 H 0.67722 0.70993 0.26039 0.0
H428 H 0.54859 0.72249 0.26304 0.0
C429 C 0.56959 0.57069 0.8854 0.0
C430 C 0.52953 0.56333 0.88822 0.0
N431 N 0.50779 0.58494 0.86725 0.0
N432 N 0.5731 0.59686 0.86282 0.0
C433 C 0.5349 0.60489 0.85201 0.0
H434 H 0.59447 0.55872 0.90043 0.0
Co435 Co 0.62082 0.61921 0.85683 0.0
C436 C 0.59719 0.68266 0.82302 0.0
O437 O 0.62417 0.69603 0.84668 0.0
N438 N 0.66935 0.64117 0.8503 0.0
C439 C 0.71836 0.6662 0.82056 0.0
C440 C 0.68191 0.65097 0.81575 0.0
C441 C 0.69953 0.64973 0.87543 0.0
N442 N 0.72922 0.66533 0.85815 0.0
O443 O 0.63363 0.59216 0.8134 0.0
H444 H 0.66539 0.64737 0.78864 0.0
H445 H 0.70046 0.64467 0.90578 0.0
O446 O 0.59241 0.65186 0.82345 0.0
C447 C 0.65606 0.56893 0.82578 0.0
O448 O 0.66268 0.56625 0.86313 0.0
N449 N 0.61067 0.64225 0.90227 0.0
C450 C 0.6046 0.6696 0.97512 0.0
C451 C 0.57833 0.67909 0.94455 0.0
C452 C 0.58139 0.66465 0.90834 0.0
C453 C 0.63298 0.63034 0.93275 0.0
C454 C 0.63146 0.6443 0.96906 0.0
H455 H 0.55988 0.67126 0.88564 0.0
H456 H 0.65288 0.61011 0.92857 0.0
H457 H 0.5268 0.62613 0.83538 0.0
H458 H 0.51733 0.54412 0.90524 0.0
H459 H 0.73605 0.67625 0.79812 0.0
H460 H 0.55586 0.69756 0.94854 0.0
H461 H 0.65073 0.63499 0.99237 0.0
C462 C 0.33117 0.49479 0.64528 0.0
C463 C 0.291 0.50166 0.64888 0.0
N464 N 0.26936 0.47637 0.63518 0.0
N465 N 0.33482 0.46543 0.62906 0.0
C466 C 0.29663 0.45486 0.62325 0.0
H467 H 0.35608 0.50995 0.65474 0.0
Co468 Co 0.38275 0.44389 0.62028 0.0
C469 C 0.35862 0.38172 0.58374 0.0
O470 O 0.38663 0.36762 0.60557 0.0
N471 N 0.43116 0.42256 0.61044 0.0
C472 C 0.47781 0.39918 0.57588 0.0
C473 C 0.44221 0.4158 0.57436 0.0
C474 C 0.46134 0.41044 0.63336 0.0
N475 N 0.48965 0.39579 0.61303 0.0
O476 O 0.39311 0.47273 0.57791 0.0
H477 H 0.42495 0.42204 0.54839 0.0
H478 H 0.46284 0.4117 0.66428 0.0
O479 O 0.35352 0.41239 0.58621 0.0
C480 C 0.41688 0.49507 0.59036 0.0
O481 O 0.42658 0.49575 0.62735 0.0
N482 N 0.37514 0.41911 0.66487 0.0
C483 C 0.37169 0.39096 0.73745 0.0
C484 C 0.34462 0.38159 0.70751 0.0
C485 C 0.34657 0.39624 0.67133 0.0
C486 C 0.39895 0.43034 0.69475 0.0
C487 C 0.39875 0.41593 0.73086 0.0
H488 H 0.3245 0.38961 0.64914 0.0
H489 H 0.41892 0.45043 0.69021 0.0
H490 H 0.2888 0.43167 0.61082 0.0
H491 H 0.27879 0.52314 0.66172 0.0
H492 H 0.49405 0.39069 0.55156 0.0
H493 H 0.32203 0.36337 0.71214 0.0
H494 H 0.41877 0.42492 0.75379 0.0
C495 C 0.41245 0.44584 0.11755 0.0
C496 C 0.45056 0.45711 0.11165 0.0
N497 N 0.47731 0.43619 0.12776 0.0
N498 N 0.41497 0.41804 0.13761 0.0
C499 C 0.45491 0.41279 0.14337 0.0
H500 H 0.38472 0.45666 0.10662 0.0
Co501 Co 0.37141 0.39173 0.14918 0.0
C502 C 0.40753 0.32932 0.1723 0.0
O503 O 0.38017 0.31553 0.14942 0.0
N504 N 0.32743 0.36533 0.162 0.0
C505 C 0.28706 0.33763 0.19948 0.0
C506 C 0.32303 0.35365 0.19787 0.0
C507 C 0.29327 0.35618 0.14251 0.0
N508 N 0.26843 0.33922 0.16452 0.0
O509 O 0.3635 0.41613 0.19578 0.0
H510 H 0.34439 0.35725 0.22179 0.0
H511 H 0.28514 0.36312 0.11342 0.0
O512 O 0.40823 0.3602 0.17522 0.0
C513 C 0.33792 0.43771 0.18476 0.0
O514 O 0.32626 0.43832 0.14825 0.0
N515 N 0.37526 0.37243 0.10059 0.0
C516 C 0.37571 0.36342 0.02076 0.0
C517 C 0.40726 0.35141 0.04505 0.0
C518 C 0.40666 0.35644 0.08507 0.0
C519 C 0.3454 0.38481 0.07716 0.0
C520 C 0.34386 0.37921 0.03792 0.0
H521 H 0.4325 0.3494 0.10297 0.0
H522 H 0.32321 0.40059 0.08885 0.0
H523 H 0.4675 0.39191 0.15808 0.0
H524 H 0.45792 0.47836 0.09533 0.0
H525 H 0.27512 0.32646 0.22465 0.0
H526 H 0.43315 0.33987 0.03323 0.0
H527 H 0.31837 0.38862 0.02114 0.0
H528 H 0.27867 0.17342 0.40949 0.0
H529 H 0.44959 0.04997 0.34701 0.0
H530 H 0.25435 0.0801 0.35855 0.0
H531 H 0.47514 0.14497 0.39279 0.0
H532 H 0.37809 0.05959 0.35454 0.0
H533 H 0.3508 0.16233 0.40762 0.0
C534 C 0.28843 0.15046 0.39832 0.0
C535 C 0.26032 0.12774 0.38394 0.0
C536 C 0.39932 0.07835 0.36299 0.0
C537 C 0.3429 0.11501 0.3813 0.0
C538 C 0.44026 0.07279 0.35885 0.0
C539 C 0.46861 0.09669 0.36914 0.0
C540 C 0.3864 0.10804 0.37763 0.0
C541 C 0.45448 0.126 0.38389 0.0
C542 C 0.32965 0.14423 0.39699 0.0
C543 C 0.27485 0.09854 0.36937 0.0
N544 N 0.41442 0.13083 0.38767 0.0
N545 N 0.31502 0.09308 0.36834 0.0
H546 H 0.95416 0.26468 0.43349 0.0
H547 H 0.77289 0.13839 0.42674 0.0
H548 H 0.96938 0.16257 0.45242 0.0
H549 H 0.77402 0.22381 0.35621 0.0
H550 H 0.83841 0.154 0.45597 0.0
H551 H 0.88117 0.25631 0.42451 0.0
C552 C 0.94186 0.24068 0.43659 0.0
C553 C 0.96732 0.21415 0.44313 0.0
C554 C 0.8239 0.16956 0.43455 0.0
C555 C 0.8849 0.20452 0.43354 0.0
C556 C 0.78662 0.16076 0.41806 0.0
C557 C 0.76863 0.17968 0.38875 0.0
C558 C 0.84278 0.19765 0.42193 0.0
C559 C 0.78752 0.20838 0.37827 0.0
C560 C 0.90052 0.23591 0.43138 0.0
C561 C 0.95043 0.18344 0.44682 0.0
N562 N 0.82382 0.21646 0.39471 0.0
N563 N 0.91016 0.17939 0.44179 0.0
H564 H 0.48454 0.23909 0.89618 0.0
H565 H 0.2846 0.15522 0.81714 0.0
H566 H 0.48198 0.14789 0.83636 0.0
H567 H 0.28949 0.25073 0.86678 0.0
H568 H 0.35772 0.15577 0.81398 0.0
H569 H 0.41449 0.24812 0.87528 0.0
C570 C 0.46926 0.22122 0.87816 0.0
C571 C 0.48861 0.19249 0.86853 0.0
C572 C 0.34272 0.17682 0.82501 0.0
C573 C 0.40863 0.20227 0.84491 0.0
C574 C 0.30105 0.17638 0.8271 0.0
C575 C 0.28106 0.20267 0.84299 0.0
C576 C 0.36447 0.20361 0.83932 0.0
C577 C 0.30363 0.22987 0.85447 0.0
C578 C 0.42939 0.22636 0.86612 0.0
C579 C 0.468 0.17031 0.84451 0.0
N580 N 0.34421 0.22942 0.85297 0.0
N581 N 0.42878 0.17537 0.83411 0.0
H582 H 0.98517 0.14238 0.8601 0.0
H583 H 0.79109 0.0404 0.91238 0.0
H584 H 0.99199 0.04807 0.91265 0.0
H585 H 0.7867 0.13724 0.86684 0.0
H586 H 0.86427 0.04101 0.90894 0.0
H587 H 0.91228 0.13884 0.85791 0.0
C588 C 0.97146 0.12064 0.87065 0.0
C589 C 0.99498 0.0954 0.88652 0.0
C590 C 0.84727 0.06211 0.89967 0.0
C591 C 0.91093 0.09155 0.88483 0.0
C592 C 0.80545 0.06173 0.90147 0.0
C593 C 0.78263 0.08887 0.89003 0.0
C594 C 0.86647 0.08979 0.88619 0.0
C595 C 0.80299 0.11597 0.87655 0.0
C596 C 0.92965 0.1188 0.86973 0.0
C597 C 0.97511 0.06821 0.90051 0.0
N598 N 0.84368 0.11573 0.875 0.0
N599 N 0.93425 0.06704 0.89944 0.0
H600 H 0.71492 0.91726 0.63799 0.0
H601 H 0.4955 0.99468 0.60947 0.0
H602 H 0.69453 1.01755 0.61006 0.0
H603 H 0.51762 0.89906 0.6546 0.0
H604 H 0.56806 1.00319 0.60748 0.0
H605 H 0.64254 0.90961 0.6416 0.0
C606 C 0.69522 0.93764 0.63229 0.0
C607 C 0.71087 0.96809 0.6235 0.0
C608 C 0.55705 0.98041 0.618 0.0
C609 C 0.62777 0.95956 0.62805 0.0
C610 C 0.51562 0.97549 0.619 0.0
C611 C 0.50042 0.94611 0.6322 0.0
C612 C 0.58356 0.95564 0.62996 0.0
C613 C 0.52794 0.92221 0.64463 0.0
C614 C 0.65385 0.93331 0.6347 0.0
C615 C 0.68381 0.99374 0.61719 0.0
N616 N 0.56812 0.92744 0.64299 0.0
N617 N 0.64359 0.98888 0.61944 0.0
H618 H 0.01336 0.92311 0.68503 0.0
H619 H 0.20205 0.80443 0.68691 0.0
H620 H 0.02036 0.84114 0.60918 0.0
H621 H 0.21016 0.90642 0.71004 0.0
H622 H 0.1285 0.80974 0.67821 0.0
H623 H 0.07897 0.90855 0.7144 0.0
C624 C 0.0284 0.90167 0.67514 0.0
C625 C 0.01196 0.88348 0.64436 0.0
C626 C 0.14644 0.83074 0.686 0.0
C627 C 0.0864 0.86676 0.67772 0.0
C628 C 0.18804 0.8277 0.69107 0.0
C629 C 0.21156 0.85516 0.69869 0.0
C630 C 0.12874 0.8613 0.6894 0.0
C631 C 0.19264 0.88491 0.70368 0.0
C632 C 0.06574 0.89348 0.69177 0.0
C633 C 0.03263 0.85603 0.63238 0.0
N634 N 0.15219 0.88727 0.69876 0.0
N635 N 0.06908 0.84856 0.64896 0.0
H636 H 0.71916 0.89256 0.18577 0.0
H637 H 0.51745 0.81129 0.11682 0.0
H638 H 0.71164 0.7897 0.16838 0.0
H639 H 0.5208 0.89957 0.18259 0.0
H640 H 0.58789 0.80129 0.13684 0.0
H641 H 0.64583 0.8952 0.18601 0.0
C642 C 0.70184 0.87055 0.1823 0.0
C643 C 0.72096 0.84097 0.17657 0.0
C644 C 0.57291 0.82252 0.14746 0.0
C645 C 0.63763 0.84365 0.17649 0.0
C646 C 0.53298 0.82828 0.13588 0.0
C647 C 0.51372 0.85642 0.14777 0.0
C648 C 0.59371 0.84555 0.17025 0.0
C649 C 0.53465 0.87758 0.17285 0.0
C650 C 0.66018 0.87194 0.18275 0.0
C651 C 0.69764 0.81292 0.17278 0.0
N652 N 0.57385 0.87202 0.1827 0.0
N653 N 0.65694 0.81499 0.17207 0.0
H654 H 0.01375 0.94122 0.05015 0.0
H655 H 0.20561 0.97252 0.19124 0.0
H656 H 0.0086 0.93907 0.17364 0.0
H657 H 0.21468 0.9402 0.07418 0.0
H658 H 0.13227 0.96943 0.18352 0.0
H659 H 0.08645 0.94996 0.05683 0.0
C660 C 0.02787 0.94298 0.07867 0.0
C661 C 0.00516 0.93938 0.11142 0.0
C662 C 0.15033 0.96313 0.15949 0.0
C663 C 0.08823 0.94927 0.11926 0.0
C664 C 0.19213 0.96513 0.16378 0.0
C665 C 0.21623 0.95656 0.13329 0.0
C666 C 0.13244 0.95291 0.1243 0.0
C667 C 0.19718 0.94671 0.09848 0.0
C668 C 0.06936 0.9477 0.08245 0.0
C669 C 0.02509 0.94142 0.1477 0.0
N670 N 0.1564 0.94522 0.09488 0.0
N671 N 0.06549 0.9463 0.15067 0.0
H672 H 0.26038 0.6146 0.79212 0.0
H673 H 0.45582 0.57098 0.92276 0.0
H674 H 0.26033 0.61236 0.91593 0.0
H675 H 0.46146 0.60716 0.80704 0.0
H676 H 0.38282 0.57864 0.91916 0.0
H677 H 0.33281 0.60448 0.79549 0.0
C678 C 0.27557 0.61168 0.82002 0.0
C679 C 0.25431 0.61424 0.85383 0.0
C680 C 0.40004 0.58485 0.89455 0.0
C681 C 0.33722 0.60275 0.85789 0.0
C682 C 0.44163 0.58025 0.89647 0.0
C683 C 0.46469 0.5884 0.86509 0.0
C684 C 0.38128 0.59727 0.86082 0.0
C685 C 0.44481 0.6008 0.83194 0.0
C686 C 0.31695 0.60616 0.82193 0.0
C687 C 0.27567 0.61077 0.88923 0.0
N688 N 0.40422 0.60471 0.83059 0.0
N689 N 0.31595 0.60505 0.89036 0.0
H690 H 0.77082 0.71862 0.83963 0.0
H691 H 0.96878 0.65586 0.94161 0.0
H692 H 0.77195 0.63721 0.91673 0.0
H693 H 0.9555 0.75534 0.90725 0.0
H694 H 0.89583 0.64935 0.93546 0.0
H695 H 0.83761 0.73403 0.86574 0.0
C696 C 0.78511 0.70421 0.86228 0.0
C697 C 0.76635 0.67644 0.87578 0.0
C698 C 0.90874 0.6728 0.92999 0.0
C699 C 0.84223 0.69364 0.90554 0.0
C700 C 0.95024 0.6764 0.93333 0.0
C701 C 0.96778 0.70599 0.92443 0.0
C702 C 0.88489 0.69879 0.91674 0.0
C703 C 0.94283 0.73214 0.91425 0.0
C704 C 0.82291 0.71312 0.8774 0.0
C705 C 0.78553 0.65878 0.9056 0.0
N706 N 0.90249 0.72777 0.90985 0.0
N707 N 0.82282 0.66736 0.91905 0.0
H708 H 0.45552 0.77302 0.38564 0.0
H709 H 0.27301 0.65601 0.42861 0.0
H710 H 0.468 0.68446 0.45 0.0
H711 H 0.26998 0.72847 0.33971 0.0
H712 H 0.33929 0.67565 0.45109 0.0
H713 H 0.38254 0.766 0.38296 0.0
C714 C 0.44274 0.75255 0.40006 0.0
C715 C 0.46752 0.72902 0.41764 0.0
C716 C 0.32381 0.68753 0.42702 0.0
C717 C 0.38456 0.72092 0.41484 0.0
C718 C 0.28603 0.67645 0.41434 0.0
C719 C 0.2666 0.69032 0.38187 0.0
C720 C 0.34193 0.71273 0.40715 0.0
C721 C 0.2846 0.71669 0.36428 0.0
C722 C 0.40121 0.74849 0.39841 0.0
C723 C 0.44968 0.70279 0.43565 0.0
N724 N 0.32151 0.72689 0.37693 0.0
N725 N 0.40916 0.69925 0.43352 0.0
H726 H 0.75073 0.57399 0.35442 0.0
H727 H 0.96855 0.65385 0.38429 0.0
H728 H 0.77038 0.67278 0.3897 0.0
H729 H 0.95032 0.55156 0.36817 0.0
H730 H 0.89586 0.66144 0.38387 0.0
H731 H 0.82355 0.56531 0.35735 0.0
C732 C 0.77035 0.59382 0.36286 0.0
C733 C 0.75438 0.62414 0.37184 0.0
C734 C 0.9077 0.6373 0.38047 0.0
C735 C 0.83774 0.61444 0.37517 0.0
C736 C 0.94925 0.63299 0.38038 0.0
C737 C 0.96559 0.60202 0.37604 0.0
C738 C 0.88212 0.6105 0.37591 0.0
C739 C 0.93903 0.5758 0.37187 0.0
C740 C 0.81189 0.58883 0.36467 0.0
C741 C 0.78123 0.6489 0.38299 0.0
N742 N 0.89861 0.58065 0.37172 0.0
N743 N 0.82153 0.64356 0.3841 0.0
H744 H 0.53003 0.38583 0.13038 0.0
H745 H 0.72302 0.49934 0.11122 0.0
H746 H 0.52381 0.48959 0.12107 0.0
H747 H 0.72876 0.39529 0.11128 0.0
H748 H 0.65028 0.4962 0.11678 0.0
H749 H 0.60298 0.38877 0.12584 0.0
C750 C 0.54395 0.40927 0.12771 0.0
C751 C 0.52058 0.43753 0.12613 0.0
C752 C 0.66741 0.47403 0.11551 0.0
C753 C 0.6043 0.44103 0.12048 0.0
C754 C 0.70904 0.47582 0.11251 0.0
C755 C 0.73222 0.44755 0.11078 0.0
C756 C 0.64859 0.44374 0.117 0.0
C757 C 0.7122 0.41773 0.11203 0.0
C758 C 0.58566 0.4109 0.12482 0.0
C759 C 0.54044 0.46715 0.12198 0.0
N760 N 0.67163 0.41662 0.11519 0.0
N761 N 0.58106 0.46812 0.11935 0.0
H762 H 0.20525 0.33505 0.21113 0.0
H763 H 0.05194 0.34174 0.03197 0.0
H764 H 0.23873 0.322 0.09381 0.0
H765 H 0.01581 0.34559 0.14965 0.0
H766 H 0.11838 0.32459 0.05466 0.0
H767 H 0.13477 0.32905 0.19028 0.0
C768 C 0.19787 0.33027 0.18109 0.0
C769 C 0.22783 0.32987 0.15397 0.0
C770 C 0.0958 0.32891 0.07553 0.0
C771 C 0.14721 0.32347 0.12982 0.0
C772 C 0.05757 0.3387 0.06256 0.0
C773 C 0.02813 0.34618 0.08889 0.0
C774 C 0.10505 0.32699 0.11517 0.0
C775 C 0.03773 0.3414 0.12821 0.0
C776 C 0.15755 0.32704 0.16914 0.0
C777 C 0.21646 0.32349 0.11545 0.0
N778 N 0.07554 0.33265 0.14018 0.0
N779 N 0.17701 0.32103 0.10442 0.0
H780 H 0.53465 0.41301 0.67637 0.0
H781 H 0.71357 0.29727 0.61936 0.0
H782 H 0.52725 0.34439 0.5831 0.0
H783 H 0.72876 0.38241 0.6899 0.0
H784 H 0.64068 0.30377 0.62084 0.0
H785 H 0.60088 0.39152 0.69582 0.0
C786 C 0.54669 0.39303 0.66045 0.0
C787 C 0.526 0.38083 0.62765 0.0
C788 C 0.66 0.32072 0.6365 0.0
C789 C 0.60141 0.35632 0.64952 0.0
C790 C 0.70153 0.31691 0.63584 0.0
C791 C 0.72703 0.33979 0.65383 0.0
C792 C 0.64411 0.34752 0.65534 0.0
C793 C 0.70996 0.3648 0.67482 0.0
C794 C 0.58446 0.38087 0.67144 0.0
C795 C 0.54284 0.35496 0.60796 0.0
N796 N 0.66948 0.36827 0.6746 0.0
N797 N 0.57982 0.34375 0.61896 0.0
H798 H 0.0296 0.39871 0.64272 0.0
H799 H 0.21245 0.52334 0.62987 0.0
H800 H 0.01365 0.49863 0.61073 0.0
H801 H 0.22777 0.42027 0.64028 0.0
H802 H 0.13946 0.51589 0.62915 0.0
H803 H 0.10212 0.40742 0.64887 0.0
C804 C 0.04127 0.42261 0.63748 0.0
C805 C 0.01543 0.448 0.62617 0.0
C806 C 0.15882 0.49491 0.63158 0.0
C807 C 0.09868 0.45805 0.6327 0.0
C808 C 0.20048 0.49917 0.63218 0.0
C809 C 0.2263 0.47239 0.63492 0.0
C810 C 0.1428 0.46365 0.63411 0.0
C811 C 0.20907 0.44157 0.6375 0.0
C812 C 0.08276 0.42749 0.64066 0.0
C813 C 0.03247 0.47831 0.61913 0.0
N814 N 0.16847 0.43806 0.6371 0.0
N815 N 0.07299 0.4825 0.62248 0.0
H816 H 0.16501 0.25898 0.23599 0.0
H817 H 0.06626 0.17291 0.04931 0.0
H818 H 0.06434 0.19313 0.23489 0.0
H819 H 0.16357 0.24133 0.04274 0.0
H820 H 0.06264 0.18449 0.11719 0.0
H821 H 0.16399 0.25589 0.16542 0.0
C822 C 0.14246 0.24423 0.22109 0.0
C823 C 0.11448 0.22655 0.2417 0.0
C824 C 0.08467 0.19724 0.101 0.0
C825 C 0.1128 0.22343 0.16115 0.0
C826 C 0.0865 0.19083 0.06192 0.0
C827 C 0.11529 0.20612 0.04 0.0
C828 C 0.11211 0.21887 0.11883 0.0
C829 C 0.14129 0.22856 0.05858 0.0
C830 C 0.14172 0.2427 0.18082 0.0
C831 C 0.0859 0.20795 0.22065 0.0
N832 N 0.1393 0.2341 0.09702 0.0
N833 N 0.08592 0.20688 0.1818 0.0
H834 H 0.91316 0.81266 0.95771 0.0
H835 H 0.78273 0.87052 0.7717 0.0
H836 H 0.79868 0.86174 0.96145 0.0
H837 H 0.9122 0.86632 0.77515 0.0
H838 H 0.78374 0.85061 0.83818 0.0
H839 H 0.90861 0.81674 0.88738 0.0
C840 C 0.88695 0.82398 0.94406 0.0
C841 C 0.85642 0.83701 0.96611 0.0
C842 C 0.81187 0.8536 0.82411 0.0
C843 C 0.85073 0.8409 0.8856 0.0
C844 C 0.81127 0.86478 0.78624 0.0
C845 C 0.84744 0.87039 0.76829 0.0
C846 C 0.84886 0.84762 0.84383 0.0
C847 C 0.8837 0.8627 0.78834 0.0
C848 C 0.88433 0.82609 0.90388 0.0
C849 C 0.82278 0.8507 0.94628 0.0
N850 N 0.88354 0.85186 0.82517 0.0
N851 N 0.82098 0.85237 0.90735 0.0
H852 H 0.1692 0.70648 0.52624 0.0
H853 H 0.04625 0.70115 0.71244 0.0
H854 H 0.04027 0.69645 0.52282 0.0
H855 H 0.16307 0.74671 0.71203 0.0
H856 H 0.04267 0.70241 0.64303 0.0
H857 H 0.16762 0.724 0.59336 0.0
C858 C 0.1405 0.70847 0.53956 0.0
C859 C 0.10483 0.69971 0.51922 0.0
C860 C 0.06884 0.71263 0.65807 0.0
C861 C 0.10283 0.71926 0.59596 0.0
C862 C 0.07089 0.71221 0.69808 0.0
C863 C 0.1052 0.72376 0.7188 0.0
C864 C 0.10166 0.72391 0.63815 0.0
C865 C 0.1364 0.73677 0.69764 0.0
C866 C 0.1396 0.71856 0.57776 0.0
C867 C 0.06841 0.70296 0.53754 0.0
N868 N 0.13417 0.736 0.6585 0.0
N869 N 0.0684 0.71192 0.57513 0.0
H870 H 0.93563 0.39074 0.45382 0.0
H871 H 0.86128 0.31776 0.25147 0.0
H872 H 0.84934 0.31299 0.44876 0.0
H873 H 0.89252 0.41777 0.27113 0.0
H874 H 0.86588 0.3089 0.32162 0.0
H875 H 0.93311 0.39266 0.38383 0.0
C876 C 0.91678 0.37357 0.43797 0.0
C877 C 0.89256 0.35174 0.45717 0.0
C878 C 0.87172 0.33268 0.31025 0.0
C879 C 0.88899 0.35425 0.37689 0.0
C880 C 0.86887 0.33782 0.27038 0.0
C881 C 0.87741 0.36839 0.25523 0.0
C882 C 0.88362 0.35821 0.33477 0.0
C883 C 0.88705 0.39352 0.28117 0.0
C884 C 0.91499 0.37495 0.39802 0.0
C885 C 0.86819 0.33041 0.43499 0.0
N886 N 0.89031 0.38777 0.31944 0.0
N887 N 0.86688 0.33223 0.39588 0.0
H888 H 0.58358 0.11415 0.53527 0.0
H889 H 0.64318 0.21319 0.72462 0.0
H890 H 0.63602 0.20866 0.52438 0.0
H891 H 0.64981 0.10956 0.71415 0.0
H892 H 0.63204 0.2169 0.65407 0.0
H893 H 0.59401 0.11764 0.60478 0.0
C894 C 0.5968 0.13589 0.54768 0.0
C895 C 0.60949 0.16095 0.5241 0.0
C896 C 0.6363 0.19348 0.66744 0.0
C897 C 0.62199 0.165 0.60383 0.0
C898 C 0.64295 0.19134 0.70751 0.0
C899 C 0.64669 0.16096 0.72531 0.0
C900 C 0.63293 0.16501 0.64555 0.0
C901 C 0.64608 0.13342 0.70183 0.0
C902 C 0.60303 0.13778 0.58732 0.0
C903 C 0.62591 0.18881 0.5417 0.0
N904 N 0.63875 0.13609 0.66341 0.0
N905 N 0.6321 0.19004 0.58072 0.0
H906 H 0.28242 0.8658 0.29425 0.0
H907 H 0.40672 0.81792 0.48805 0.0
H908 H 0.40962 0.84576 0.29848 0.0
H909 H 0.29322 0.86902 0.48413 0.0
H910 H 0.40426 0.81742 0.41787 0.0
H911 H 0.28103 0.85385 0.36313 0.0
C912 C 0.30986 0.85824 0.30952 0.0
C913 C 0.34626 0.85712 0.29083 0.0
C914 C 0.3795 0.82795 0.43262 0.0
C915 C 0.34504 0.84376 0.3695 0.0
C916 C 0.38106 0.8287 0.47283 0.0
C917 C 0.35023 0.84365 0.4928 0.0
C918 C 0.34638 0.84139 0.41204 0.0
C919 C 0.31743 0.85648 0.4708 0.0
C920 C 0.30915 0.85168 0.34885 0.0
C921 C 0.38104 0.84737 0.31204 0.0
N922 N 0.31644 0.85502 0.43184 0.0
N923 N 0.37966 0.84129 0.35031 0.0
H924 H 0.53871 0.6815 0.01751 0.0
H925 H 0.66677 0.74113 0.20449 0.0
H926 H 0.6677 0.69149 0.02067 0.0
H927 H 0.55123 0.69388 0.20749 0.0
H928 H 0.66324 0.73621 0.13423 0.0
H929 H 0.53861 0.70013 0.08442 0.0
C930 C 0.5669 0.68815 0.03209 0.0
C931 C 0.6033 0.68462 0.01375 0.0
C932 C 0.63854 0.72732 0.15047 0.0
C933 C 0.60346 0.70588 0.09007 0.0
C934 C 0.64058 0.72995 0.19061 0.0
C935 C 0.60939 0.71777 0.21241 0.0
C936 C 0.60495 0.71268 0.13193 0.0
C937 C 0.57583 0.70419 0.19238 0.0
C938 C 0.56688 0.69859 0.07027 0.0
C939 C 0.63905 0.69343 0.03403 0.0
N940 N 0.57463 0.70192 0.15346 0.0
N941 N 0.63828 0.7035 0.07117 0.0
H942 H 0.30703 0.38919 0.78254 0.0
H943 H 0.40862 0.31692 0.97344 0.0
H944 H 0.43233 0.36313 0.78154 0.0
H945 H 0.34613 0.40851 0.96918 0.0
H946 H 0.40672 0.31662 0.90246 0.0
H947 H 0.30763 0.37654 0.85146 0.0
C948 C 0.3343 0.37991 0.79662 0.0
C949 C 0.36973 0.37736 0.77661 0.0
C950 C 0.39313 0.33642 0.91755 0.0
C951 C 0.3705 0.36268 0.85484 0.0
C952 C 0.3944 0.33681 0.95794 0.0
C953 C 0.3766 0.36236 0.97781 0.0
C954 C 0.37316 0.36134 0.89718 0.0
C955 C 0.35866 0.38745 0.95578 0.0
C956 C 0.33468 0.37287 0.83581 0.0
C957 C 0.4045 0.36556 0.79624 0.0
N958 N 0.35699 0.38606 0.9169 0.0
N959 N 0.40415 0.35879 0.83449 0.0
H960 H 0.35907 0.31594 0.5773 0.0
H961 H 0.17004 0.30898 0.42815 0.0
H962 H 0.29464 0.4003 0.53577 0.0
H963 H 0.22153 0.22383 0.48219 0.0
H964 H 0.21823 0.34218 0.46443 0.0
H965 H 0.31211 0.28183 0.54001 0.0
C966 C 0.33514 0.32739 0.56021 0.0
C967 C 0.3309 0.36119 0.55972 0.0
C968 C 0.2191 0.31627 0.46849 0.0
C969 C 0.27682 0.32194 0.51681 0.0
C970 C 0.19154 0.29712 0.44766 0.0
C971 C 0.19152 0.26337 0.45211 0.0
C972 C 0.24732 0.3018 0.49405 0.0
C973 C 0.2203 0.24969 0.4779 0.0
C974 C 0.30824 0.30778 0.53899 0.0
C975 C 0.29919 0.37444 0.53702 0.0
N976 N 0.24709 0.26897 0.49789 0.0
N977 N 0.27342 0.35479 0.51649 0.0
H978 H 0.9426 0.04526 0.61371 0.0
H979 H 0.06378 0.07256 0.423 0.0
H980 H 0.92908 0.98454 0.51329 0.0
H981 H 0.06656 0.14059 0.51687 0.0
H982 H 0.01863 0.03823 0.45796 0.0
H983 H 0.98969 0.07914 0.58026 0.0
C984 C 0.94925 0.03917 0.5844 0.0
C985 C 0.9317 1.01192 0.56628 0.0
C986 C 0.02928 0.06047 0.4712 0.0
C987 C 0.98648 0.05067 0.52786 0.0
C988 C 0.05541 0.08005 0.45138 0.0
C989 C 0.06917 0.10955 0.46705 0.0
C990 C 0.01642 0.07028 0.50719 0.0
C991 C 0.05717 0.11791 0.50389 0.0
C992 C 0.97633 0.05857 0.56537 0.0
C993 C 0.94155 1.00539 0.52829 0.0
N994 N 0.03125 0.09848 0.52261 0.0
N995 N 0.96846 1.02449 0.51046 0.0
H996 H 0.32193 0.94046 0.7731 0.0
H997 H 0.18813 0.10324 0.76885 0.0
H998 H 0.29998 0.99917 0.6721 0.0
H999 H 0.2137 0.04691 0.8712 0.0
H1000 H 0.22875 0.06507 0.73264 0.0
H1001 H 0.28389 0.97983 0.81028 0.0
C1002 C 0.3098 0.96182 0.75892 0.0
C1003 C 0.31418 0.9664 0.71941 0.0
C1004 C 0.22536 0.06107 0.76305 0.0
C1005 C 0.26993 1.01125 0.76142 0.0
C1006 C 0.20189 0.08277 0.78362 0.0
C1007 C 0.1974 0.07841 0.82315 0.0
C1008 C 0.24438 0.03475 0.78211 0.0
C1009 C 0.21635 0.05147 0.84081 0.0
C1010 C 0.28772 0.98417 0.78 0.0
C1011 C 0.29722 0.99442 0.70244 0.0
N1012 N 0.2389 0.03083 0.8203 0.0
N1013 N 0.27581 1.01553 0.72336 0.0
H1014 H 0.97928 0.28245 0.63668 0.0
H1015 H 0.02225 0.24882 0.86051 0.0
H1016 H 0.93177 0.34105 0.72671 0.0
H1017 H 0.07922 0.19498 0.77171 0.0
H1018 H 0.986 0.2804 0.81155 0.0
H1019 H 0.0143 0.24922 0.68512 0.0
C1020 C 0.97631 0.28848 0.6667 0.0
C1021 C 0.95232 0.31461 0.67762 0.0
C1022 C 0.00626 0.26166 0.80261 0.0
C1023 C 0.99237 0.27622 0.73341 0.0
C1024 C 0.02698 0.24345 0.83058 0.0
C1025 C 0.05419 0.21933 0.82022 0.0
C1026 C 0.0126 0.25589 0.76369 0.0
C1027 C 0.05856 0.21329 0.78099 0.0
C1028 C 0.99635 0.26936 0.69435 0.0
C1029 C 0.94995 0.32124 0.71694 0.0
N1030 N 0.03816 0.23164 0.75409 0.0
N1031 N 0.96956 0.30206 0.74342 0.0
H1032 H 0.79274 0.89813 0.51841 0.0
H1033 H 0.70806 0.72076 0.46874 0.0
H1034 H 0.83877 0.8121 0.5747 0.0
H1035 H 0.68956 0.80343 0.39462 0.0
H1036 H 0.75106 0.7543 0.51208 0.0
H1037 H 0.74924 0.86419 0.47655 0.0
C1038 C 0.79378 0.87217 0.52194 0.0
C1039 C 0.81967 0.85802 0.54997 0.0
C1040 C 0.73753 0.76496 0.48624 0.0
C1041 C 0.76966 0.81898 0.50248 0.0
C1042 C 0.71296 0.74585 0.4616 0.0
C1043 C 0.69525 0.75918 0.4279 0.0
C1044 C 0.74391 0.79768 0.47733 0.0
C1045 C 0.7027 0.79191 0.42008 0.0
C1046 C 0.76896 0.85277 0.49805 0.0
C1047 C 0.81953 0.82414 0.55333 0.0
N1048 N 0.72622 0.80996 0.44458 0.0
N1049 N 0.79489 0.80584 0.53001 0.0
H1050 H 0.67946 0.0825 0.24596 0.0
H1051 H 0.82128 0.9244 0.24504 0.0
H1052 H 0.69888 1.01902 0.34317 0.0
H1053 H 0.80325 0.98828 0.14806 0.0
H1054 H 0.77812 0.95978 0.28236 0.0
H1055 H 0.72437 0.04814 0.20913 0.0
C1056 C 0.69267 0.06119 0.25936 0.0
C1057 C 0.68534 0.05373 0.29771 0.0
C1058 C 0.78392 0.96617 0.25297 0.0
C1059 C 0.73727 1.01458 0.25615 0.0
C1060 C 0.80895 0.94613 0.23187 0.0
C1061 C 0.81596 0.95333 0.1934 0.0
C1062 C 0.76581 0.99358 0.23546 0.0
C1063 C 0.79857 0.98163 0.17759 0.0
C1064 C 0.71861 0.04171 0.23852 0.0
C1065 C 0.70374 1.02592 0.31376 0.0
N1066 N 0.77426 1.00052 0.19851 0.0
N1067 N 0.72878 1.00753 0.29306 0.0
H1068 H 0.93705 0.75972 0.14552 0.0
H1069 H 0.09709 0.75666 0.3229 0.0
H1070 H 0.96503 0.84417 0.21439 0.0
H1071 H 0.04562 0.67078 0.27055 0.0
H1072 H 0.05427 0.78968 0.27995 0.0
H1073 H 0.98229 0.72801 0.18699 0.0
C1074 C 0.95283 0.77176 0.16932 0.0
C1075 C 0.94687 0.80479 0.17654 0.0
C1076 C 0.05235 0.76364 0.27783 0.0
C1077 C -0.00082 0.76813 0.22445 0.0
C1078 C 0.07689 0.74466 0.30227 0.0
C1079 C 0.07505 0.71076 0.30035 0.0
C1080 C 0.02591 0.74872 0.25089 0.0
C1081 C 0.04812 0.69676 0.27309 0.0
C1082 C 0.97865 0.75346 0.19312 0.0
C1083 C 0.96854 0.81882 0.20777 0.0
N1084 N 0.02471 0.7158 0.24938 0.0
N1085 N 0.99373 0.80038 0.23064 0.0
H1086 H 0.32541 0.78744 0.09935 0.0
H1087 H 0.19777 0.78635 0.90005 0.0
H1088 H 0.29422 0.87337 0.03466 0.0
H1089 H 0.20139 0.70422 0.97643 0.0
H1090 H 0.23897 0.81655 0.94657 0.0
H1091 H 0.28523 0.75531 0.05298 0.0
C1092 C 0.31011 0.79962 0.0754 0.0
C1093 C 0.31333 0.83325 0.07087 0.0
C1094 C 0.23086 0.79194 0.95329 0.0
C1095 C 0.26745 0.79637 0.01748 0.0
C1096 C 0.20734 0.77448 0.92661 0.0
C1097 C 0.19566 0.7426 0.93435 0.0
C1098 C 0.24335 0.77758 0.9882 0.0
C1099 C 0.20954 0.72871 0.96924 0.0
C1100 C 0.28711 0.78118 0.04899 0.0
C1101 C 0.29264 0.84758 0.03935 0.0
N1102 N 0.23264 0.74632 0.99496 0.0
N1103 N 0.27079 0.82905 0.0138 0.0
H1104 H 0.05945 0.55848 0.88835 0.0
H1105 H 0.9438 0.51936 0.07955 0.0
H1106 H 0.06302 0.62084 0.98764 0.0
H1107 H 0.93848 0.45756 0.97977 0.0
H1108 H 0.98612 0.55696 0.04593 0.0
H1109 H 0.01664 0.52099 0.92169 0.0
C1110 C 0.0517 0.56408 0.91751 0.0
C1111 C 0.06508 0.5929 0.93526 0.0
C1112 C 0.97555 0.53539 0.03112 0.0
C1113 C 0.01502 0.54999 0.97355 0.0
C1114 C 0.9511 0.51389 0.05022 0.0
C1115 C 0.93744 0.48518 0.03244 0.0
C1116 C 0.98696 0.52824 0.99379 0.0
C1117 C 0.94792 0.4795 0.99444 0.0
C1118 C 0.02695 0.54267 0.93643 0.0
C1119 C 0.05391 0.59879 0.97301 0.0
N1120 N 0.97233 0.50072 0.97649 0.0
N1121 N 0.02932 0.57763 0.99079 0.0
H1122 H 0.19849 0.52386 0.36369 0.0
H1123 H 0.30727 0.49621 0.166 0.0
H1124 H 0.17638 0.58245 0.26262 0.0
H1125 H 0.3211 0.43067 0.26182 0.0
H1126 H 0.26315 0.52981 0.203 0.0
H1127 H 0.24479 0.49059 0.32829 0.0
C1128 C 0.20306 0.52958 0.33385 0.0
C1129 C 0.18335 0.55606 0.31609 0.0
C1130 C 0.27595 0.50827 0.21621 0.0
C1131 C 0.23716 0.51808 0.27543 0.0
C1132 C 0.30145 0.48909 0.19518 0.0
C1133 C 0.31795 0.46048 0.2108 0.0
C1134 C 0.26646 0.49893 0.2534 0.0
C1135 C 0.30937 0.45264 0.24877 0.0
C1136 C 0.2297 0.51056 0.31371 0.0
C1137 C 0.19056 0.56218 0.27739 0.0
N1138 N 0.28394 0.47165 0.26871 0.0
N1139 N 0.21705 0.54347 0.25846 0.0
H1140 H 0.85839 0.28249 0.05675 0.0
H1141 H 0.66004 0.2638 0.92044 0.0
H1142 H 0.78829 0.36369 0.01443 0.0
H1143 H 0.72738 0.18282 0.96734 0.0
H1144 H 0.70667 0.30051 0.95406 0.0
H1145 H 0.81132 0.24602 0.02356 0.0
C1146 C 0.8331 0.29277 0.04039 0.0
C1147 C 0.82742 0.32639 0.03846 0.0
C1148 C 0.71129 0.27474 0.95712 0.0
C1149 C 0.77297 0.28427 1.00014 0.0
C1150 C 0.68463 0.25364 0.93788 0.0
C1151 C 0.68972 0.22 0.94096 0.0
C1152 C 0.7436 0.26233 0.9797 0.0
C1153 C 0.72215 0.20849 0.96415 0.0
C1154 C 0.80614 0.27177 0.02143 0.0
C1155 C 0.794 0.33802 0.0167 0.0
N1156 N 0.74789 0.2296 0.98252 0.0
N1157 N 0.76805 0.31699 0.99842 0.0
H1158 H 0.80329 0.4943 0.64647 0.0
H1159 H 0.69206 0.51173 0.84465 0.0
H1160 H 0.81447 0.42336 0.73692 0.0
H1161 H 0.67363 0.57721 0.74928 0.0
H1162 H 0.73693 0.47945 0.80646 0.0
H1163 H 0.75798 0.52554 0.68491 0.0
C1164 C 0.79652 0.48535 0.67469 0.0
C1165 C 0.81291 0.456 0.68839 0.0
C1166 C 0.72294 0.50072 0.7937 0.0
C1167 C 0.7601 0.49199 0.73281 0.0
C1168 C 0.6971 0.51921 0.81545 0.0
C1169 C 0.67886 0.54736 0.80021 0.0
C1170 C 0.73112 0.51039 0.75626 0.0
C1171 C 0.68667 0.55565 0.76219 0.0
C1172 C 0.77036 0.50326 0.69659 0.0
C1173 C 0.80293 0.44591 0.72527 0.0
N1174 N 0.71239 0.5374 0.74167 0.0
N1175 N 0.77705 0.46381 0.74612 0.0
H1176 H 0.41706 0.95648 0.02136 0.0
H1177 H 0.57962 0.10038 0.01268 0.0
H1178 H 0.4547 1.01397 0.11988 0.0
H1179 H 0.54477 0.03875 0.91694 0.0
H1180 H 0.53423 0.06947 0.053 0.0
H1181 H 0.46253 0.98786 0.9822 0.0
C1182 C 0.4345 0.97587 0.03466 0.0
C1183 C 0.43198 0.98249 0.07398 0.0
C1184 C 0.53674 0.06272 0.02316 0.0
C1185 C 0.48459 1.01836 0.02952 0.0
C1186 C 0.56287 0.08024 1.00027 0.0
C1187 C 0.566 0.0723 0.96133 0.0
C1188 C 0.51367 0.03716 0.00691 0.0
C1189 C 0.54324 0.04604 0.94671 0.0
C1190 C 0.46071 0.99368 0.0124 0.0
C1191 C 0.45567 1.00784 0.08971 0.0
N1192 N 0.51811 0.02962 0.96933 0.0
N1193 N 0.48094 1.02471 0.06755 0.0
H1194 H 0.40928 0.26347 0.17542 0.0
H1195 H 0.60607 0.25322 0.3155 0.0
H1196 H 0.47274 0.3475 0.21926 0.0
H1197 H 0.53679 0.16994 0.27842 0.0
H1198 H 0.55927 0.28784 0.27875 0.0
H1199 H 0.45698 0.22906 0.21115 0.0
C1200 C 0.43329 0.27478 0.19255 0.0
C1201 C 0.43687 0.30858 0.19427 0.0
C1202 C 0.55428 0.26202 0.27856 0.0
C1203 C 0.49199 0.26892 0.2355 0.0
C1204 C 0.58108 0.24211 0.29953 0.0
C1205 C 0.57548 0.20847 0.30013 0.0
C1206 C 0.52147 0.24833 0.25781 0.0
C1207 C 0.54244 0.19568 0.27879 0.0
C1208 C 0.46056 0.255 0.21303 0.0
C1209 C 0.46869 0.32163 0.21709 0.0
N1210 N 0.51673 0.2156 0.25856 0.0
N1211 N 0.49501 0.30178 0.23676 0.0
H1212 H 0.46415 0.84897 0.73171 0.0
H1213 H 0.53479 0.66586 0.77214 0.0
H1214 H 0.41388 0.76584 0.67219 0.0
H1215 H 0.59725 0.74864 0.82072 0.0
H1216 H 0.4891 0.70249 0.73636 0.0
H1217 H 0.51249 0.81302 0.76598 0.0
C1218 C 0.46328 0.8233 0.72578 0.0
C1219 C 0.43472 0.81053 0.6991 0.0
C1220 C 0.51293 0.71264 0.75476 0.0
C1221 C 0.48969 0.76926 0.7382 0.0
C1222 C 0.53906 0.69167 0.77516 0.0
C1223 C 0.57 0.70407 0.7995 0.0
C1224 C 0.51756 0.7463 0.75883 0.0
C1225 C 0.57389 0.73786 0.80232 0.0
C1226 C 0.49085 0.80277 0.74531 0.0
C1227 C 0.43513 0.77697 0.69254 0.0
N1228 N 0.54797 0.75772 0.78242 0.0
N1229 N 0.46191 0.75764 0.71196 0.0
H1230 H 0.54952 0.57732 0.40579 0.0
H1231 H 0.45492 0.55109 0.61071 0.0
H1232 H 0.56583 0.64564 0.49873 0.0
H1233 H 0.42784 0.49054 0.51213 0.0
H1234 H 0.49655 0.58517 0.5714 0.0
H1235 H 0.50814 0.54415 0.44585 0.0
C1236 C 0.54474 0.58527 0.43489 0.0
C1237 C 0.5613 0.61449 0.44881 0.0
C1238 C 0.48135 0.5646 0.55822 0.0
C1239 C 0.51303 0.57628 0.49513 0.0
C1240 C 0.45739 0.54508 0.58061 0.0
C1241 C 0.43769 0.51779 0.56473 0.0
C1242 C 0.48617 0.55679 0.51951 0.0
C1243 C 0.44212 0.51139 0.52557 0.0
C1244 C 0.52081 0.56627 0.45773 0.0
C1245 C 0.55403 0.62324 0.48685 0.0
N1246 N 0.46608 0.53059 0.50442 0.0
N1247 N 0.53027 0.60429 0.50864 0.0
loop_
_geom_bond_atom_site_label_1
_geom_bond_atom_site_label_2
_geom_bond_distance
_geom_bond_site_symmetry_2
_ccdc_geom_bond_type
C0 C1 1.351 . S
C0 N3 1.368 . S
C0 H5 0.931 . S
C1 C0 1.351 . S
C1 N2 1.373 . S
C1 H29 0.930 . S
N2 C1 1.373 . S
N2 C4 1.340 . S
N3 C0 1.368 . S
N3 C4 1.321 . S
N3 Co6 2.135 . S
C4 N2 1.340 . S
C4 N3 1.321 . S
C4 H28 0.930 . S
H5 C0 0.931 . S
Co6 N3 2.135 . S
Co6 N9 2.121 . S
Co6 O14 2.055 . S
Co6 O17 2.039 . S
Co6 N20 2.140 . S
C7 O8 1.227 . S
C7 O17 1.265 . S
O8 C7 1.227 . S
N9 Co6 2.121 . S
N9 C11 1.375 . S
N9 C12 1.313 . S
C10 C11 1.338 . S
C10 N13 1.377 . S
C10 H30 0.930 . S
C11 N9 1.375 . S
C11 C10 1.338 . S
C11 H15 0.931 . S
C12 N9 1.313 . S
C12 N13 1.343 . S
C12 H16 0.930 . S
N13 C10 1.377 . S
N13 C12 1.343 . S
O14 Co6 2.055 . S
O14 C18 1.253 . S
H15 C11 0.931 . S
H16 C12 0.930 . S
O17 Co6 2.039 . S
O17 C7 1.265 . S
C18 O14 1.253 . S
C18 O19 1.227 . S
O19 C18 1.227 . S
N20 Co6 2.140 . S
N20 C23 1.346 . S
N20 C24 1.345 . S
C21 C22 1.387 . S
C21 C25 1.391 . S
C22 C21 1.387 . S
C22 C23 1.369 . S
C22 H31 0.929 . S
C23 N20 1.346 . S
C23 C22 1.369 . S
C23 H26 0.928 . S
C24 N20 1.345 . S
C24 C25 1.371 . S
C24 H27 0.931 . S
C25 C21 1.391 . S
C25 C24 1.371 . S
C25 H32 0.930 . S
H26 C23 0.928 . S
H27 C24 0.931 . S
H28 C4 0.930 . S
H29 C1 0.930 . S
H30 C10 0.930 . S
H31 C22 0.929 . S
H32 C25 0.930 . S
C33 C34 1.351 . S
C33 N36 1.368 . S
C33 H38 0.931 . S
C34 C33 1.351 . S
C34 N35 1.371 1_455 S
C34 H62 0.930 . S
N35 C34 1.371 1_655 S
N35 C37 1.336 1_655 S
N36 C33 1.368 . S
N36 C37 1.321 . S
N36 Co39 2.135 . S
C37 N35 1.336 1_455 S
C37 N36 1.321 . S
C37 H61 0.930 . S
H38 C33 0.931 . S
Co39 N36 2.135 . S
Co39 N42 2.121 . S
Co39 O47 2.055 . S
Co39 O50 2.039 . S
Co39 N53 2.140 . S
C40 O41 1.227 . S
C40 O50 1.265 . S
O41 C40 1.227 . S
N42 Co39 2.121 . S
N42 C44 1.375 . S
N42 C45 1.313 . S
C43 C44 1.338 . S
C43 N46 1.377 . S
C43 H63 0.930 . S
C44 N42 1.375 . S
C44 C43 1.338 . S
C44 H48 0.931 . S
C45 N42 1.313 . S
C45 N46 1.344 . S
C45 H49 0.930 . S
N46 C43 1.377 . S
N46 C45 1.344 . S
O47 Co39 2.055 . S
O47 C51 1.253 . S
H48 C44 0.931 . S
H49 C45 0.930 . S
O50 Co39 2.039 . S
O50 C40 1.265 . S
C51 O47 1.253 . S
C51 O52 1.227 . S
O52 C51 1.227 . S
N53 Co39 2.140 . S
N53 C56 1.346 . S
N53 C57 1.345 . S
C54 C55 1.387 . S
C54 C58 1.391 . S
C55 C54 1.387 . S
C55 C56 1.369 . S
C55 H64 0.929 . S
C56 N53 1.346 . S
C56 C55 1.369 . S
C56 H59 0.928 . S
C57 N53 1.345 . S
C57 C58 1.371 . S
C57 H60 0.931 . S
C58 C54 1.391 . S
C58 C57 1.371 . S
C58 H65 0.930 . S
H59 C56 0.928 . S
H60 C57 0.931 . S
H61 C37 0.930 . S
H62 C34 0.930 . S
H63 C43 0.930 . S
H64 C55 0.929 . S
H65 C58 0.930 . S
C66 C67 1.351 . S
C66 N69 1.368 . S
C66 H71 0.931 . S
C67 C66 1.351 . S
C67 N68 1.373 . S
C67 H95 0.930 . S
N68 C67 1.373 . S
N68 C70 1.340 . S
N69 C66 1.368 . S
N69 C70 1.321 . S
N69 Co72 2.135 . S
C70 N68 1.340 . S
C70 N69 1.321 . S
C70 H94 0.930 . S
H71 C66 0.931 . S
Co72 N69 2.135 . S
Co72 N75 2.121 . S
Co72 O80 2.055 . S
Co72 O83 2.039 . S
Co72 N86 2.140 . S
C73 O74 1.227 . S
C73 O83 1.265 . S
O74 C73 1.227 . S
N75 Co72 2.121 . S
N75 C77 1.375 . S
N75 C78 1.313 . S
C76 C77 1.338 . S
C76 N79 1.377 . S
C76 H96 0.930 . S
C77 N75 1.375 . S
C77 C76 1.338 . S
C77 H81 0.931 . S
C78 N75 1.313 . S
C78 N79 1.343 . S
C78 H82 0.930 . S
N79 C76 1.377 . S
N79 C78 1.343 . S
O80 Co72 2.055 . S
O80 C84 1.253 . S
H81 C77 0.931 . S
H82 C78 0.930 . S
O83 Co72 2.039 . S
O83 C73 1.265 . S
C84 O80 1.253 . S
C84 O85 1.227 . S
O85 C84 1.227 . S
N86 Co72 2.140 . S
N86 C89 1.346 . S
N86 C90 1.345 . S
C87 C88 1.387 . S
C87 C91 1.391 . S
C88 C87 1.387 . S
C88 C89 1.369 . S
C88 H97 0.929 . S
C89 N86 1.346 . S
C89 C88 1.369 . S
C89 H92 0.928 . S
C90 N86 1.345 . S
C90 C91 1.371 . S
C90 H93 0.931 . S
C91 C87 1.391 . S
C91 C90 1.371 . S
C91 H98 0.930 . S
H92 C89 0.928 . S
H93 C90 0.931 . S
H94 C70 0.930 . S
H95 C67 0.930 . S
H96 C76 0.930 . S
H97 C88 0.929 . S
H98 C91 0.930 . S
C99 C100 1.351 . S
C99 N102 1.368 . S
C99 H104 0.931 . S
C100 C99 1.351 . S
C100 N101 1.371 1_655 S
C100 H128 0.930 . S
N101 C100 1.371 1_455 S
N101 C103 1.336 1_455 S
N102 C99 1.368 . S
N102 C103 1.321 . S
N102 Co105 2.135 . S
C103 N101 1.336 1_655 S
C103 N102 1.321 . S
C103 H127 0.930 . S
H104 C99 0.931 . S
Co105 N102 2.135 . S
Co105 N108 2.121 . S
Co105 O113 2.055 . S
Co105 O116 2.039 . S
Co105 N119 2.140 . S
C106 O107 1.227 . S
C106 O116 1.265 . S
O107 C106 1.227 . S
N108 Co105 2.121 . S
N108 C110 1.375 . S
N108 C111 1.313 . S
C109 C110 1.338 . S
C109 N112 1.377 . S
C109 H129 0.930 . S
C110 N108 1.375 . S
C110 C109 1.338 . S
C110 H114 0.931 . S
C111 N108 1.313 . S
C111 N112 1.344 . S
C111 H115 0.930 . S
N112 C109 1.377 . S
N112 C111 1.344 . S
O113 Co105 2.055 . S
O113 C117 1.253 . S
H114 C110 0.931 . S
H115 C111 0.930 . S
O116 Co105 2.039 . S
O116 C106 1.265 . S
C117 O113 1.253 . S
C117 O118 1.227 . S
O118 C117 1.227 . S
N119 Co105 2.140 . S
N119 C122 1.346 . S
N119 C123 1.345 . S
C120 C121 1.387 . S
C120 C124 1.391 . S
C121 C120 1.387 . S
C121 C122 1.369 . S
C121 H130 0.929 . S
C122 N119 1.346 . S
C122 C121 1.369 . S
C122 H125 0.928 . S
C123 N119 1.345 . S
C123 C124 1.371 . S
C123 H126 0.931 . S
C124 C120 1.391 . S
C124 C123 1.371 . S
C124 H131 0.930 . S
H125 C122 0.928 . S
H126 C123 0.931 . S
H127 C103 0.930 . S
H128 C100 0.930 . S
H129 C109 0.930 . S
H130 C121 0.929 . S
H131 C124 0.930 . S
C132 C133 1.351 . S
C132 N135 1.368 . S
C132 H137 0.931 . S
C133 C132 1.351 . S
C133 N134 1.373 . S
C133 H161 0.930 . S
N134 C133 1.373 . S
N134 C136 1.340 . S
N135 C132 1.368 . S
N135 C136 1.321 . S
N135 Co138 2.135 . S
C136 N134 1.340 . S
C136 N135 1.321 . S
C136 H160 0.930 . S
H137 C132 0.931 . S
Co138 N135 2.135 . S
Co138 N141 2.121 . S
Co138 O146 2.055 . S
Co138 O149 2.039 . S
Co138 N152 2.140 . S
C139 O140 1.227 . S
C139 O149 1.265 . S
O140 C139 1.227 . S
N141 Co138 2.121 . S
N141 C143 1.375 . S
N141 C144 1.313 . S
C142 C143 1.338 . S
C142 N145 1.377 . S
C142 H162 0.930 . S
C143 N141 1.375 . S
C143 C142 1.338 . S
C143 H147 0.931 . S
C144 N141 1.313 . S
C144 N145 1.343 . S
C144 H148 0.930 . S
N145 C142 1.377 . S
N145 C144 1.343 . S
O146 Co138 2.055 . S
O146 C150 1.253 . S
H147 C143 0.931 . S
H148 C144 0.930 . S
O149 Co138 2.039 . S
O149 C139 1.265 . S
C150 O146 1.253 . S
C150 O151 1.227 . S
O151 C150 1.227 . S
N152 Co138 2.140 . S
N152 C155 1.346 . S
N152 C156 1.345 . S
C153 C154 1.387 . S
C153 C157 1.391 . S
C154 C153 1.387 . S
C154 C155 1.369 . S
C154 H163 0.929 . S
C155 N152 1.346 . S
C155 C154 1.369 . S
C155 H158 0.928 . S
C156 N152 1.345 . S
C156 C157 1.371 . S
C156 H159 0.931 . S
C157 C153 1.391 . S
C157 C156 1.371 . S
C157 H164 0.930 . S
H158 C155 0.928 . S
H159 C156 0.931 . S
H160 C136 0.930 . S
H161 C133 0.930 . S
H162 C142 0.930 . S
H163 C154 0.929 . S
H164 C157 0.930 . S
C165 C166 1.351 . S
C165 N168 1.368 . S
C165 H170 0.931 . S
C166 C165 1.351 . S
C166 N167 1.371 1_455 S
C166 H194 0.930 . S
N167 C166 1.371 1_655 S
N167 C169 1.336 1_655 S
N168 C165 1.368 . S
N168 C169 1.321 . S
N168 Co171 2.135 . S
C169 N167 1.336 1_455 S
C169 N168 1.321 . S
C169 H193 0.930 . S
H170 C165 0.931 . S
Co171 N168 2.135 . S
Co171 N174 2.121 . S
Co171 O179 2.055 . S
Co171 O182 2.039 . S
Co171 N185 2.140 . S
C172 O173 1.227 . S
C172 O182 1.265 . S
O173 C172 1.227 . S
N174 Co171 2.121 . S
N174 C176 1.375 . S
N174 C177 1.313 . S
C175 C176 1.338 . S
C175 N178 1.377 . S
C175 H195 0.930 . S
C176 N174 1.375 . S
C176 C175 1.338 . S
C176 H180 0.931 . S
C177 N174 1.313 . S
C177 N178 1.344 . S
C177 H181 0.930 . S
N178 C175 1.377 . S
N178 C177 1.344 . S
O179 Co171 2.055 . S
O179 C183 1.253 . S
H180 C176 0.931 . S
H181 C177 0.930 . S
O182 Co171 2.039 . S
O182 C172 1.265 . S
C183 O179 1.253 . S
C183 O184 1.227 . S
O184 C183 1.227 . S
N185 Co171 2.140 . S
N185 C188 1.346 . S
N185 C189 1.345 . S
C186 C187 1.387 . S
C186 C190 1.391 . S
C187 C186 1.387 . S
C187 C188 1.369 . S
C187 H196 0.929 . S
C188 N185 1.346 . S
C188 C187 1.369 . S
C188 H191 0.928 . S
C189 N185 1.345 . S
C189 C190 1.371 . S
C189 H192 0.931 . S
C190 C186 1.391 . S
C190 C189 1.371 . S
C190 H197 0.930 . S
H191 C188 0.928 . S
H192 C189 0.931 . S
H193 C169 0.930 . S
H194 C166 0.930 . S
H195 C175 0.930 . S
H196 C187 0.929 . S
H197 C190 0.930 . S
C198 C199 1.351 . S
C198 N201 1.368 . S
C198 H203 0.931 . S
C199 C198 1.351 . S
C199 N200 1.373 . S
C199 H227 0.930 . S
N200 C199 1.373 . S
N200 C202 1.340 . S
N201 C198 1.368 . S
N201 C202 1.321 . S
N201 Co204 2.135 . S
C202 N200 1.340 . S
C202 N201 1.321 . S
C202 H226 0.930 . S
H203 C198 0.931 . S
Co204 N201 2.135 . S
Co204 N207 2.121 . S
Co204 O212 2.055 . S
Co204 O215 2.039 . S
Co204 N218 2.140 . S
C205 O206 1.227 . S
C205 O215 1.265 . S
O206 C205 1.227 . S
N207 Co204 2.121 . S
N207 C209 1.375 . S
N207 C210 1.313 . S
C208 C209 1.338 . S
C208 N211 1.377 . S
C208 H228 0.930 . S
C209 N207 1.375 . S
C209 C208 1.338 . S
C209 H213 0.931 . S
C210 N207 1.313 . S
C210 N211 1.343 . S
C210 H214 0.930 . S
N211 C208 1.377 . S
N211 C210 1.343 . S
O212 Co204 2.055 . S
O212 C216 1.253 . S
H213 C209 0.931 . S
H214 C210 0.930 . S
O215 Co204 2.039 . S
O215 C205 1.265 . S
C216 O212 1.253 . S
C216 O217 1.227 . S
O217 C216 1.227 . S
N218 Co204 2.140 . S
N218 C221 1.346 . S
N218 C222 1.345 . S
C219 C220 1.387 . S
C219 C223 1.391 . S
C220 C219 1.387 . S
C220 C221 1.369 . S
C220 H229 0.929 . S
C221 N218 1.346 . S
C221 C220 1.369 . S
C221 H224 0.928 . S
C222 N218 1.345 . S
C222 C223 1.371 . S
C222 H225 0.931 . S
C223 C219 1.391 . S
C223 C222 1.371 . S
C223 H230 0.930 . S
H224 C221 0.928 . S
H225 C222 0.931 . S
H226 C202 0.930 . S
H227 C199 0.930 . S
H228 C208 0.930 . S
H229 C220 0.929 . S
H230 C223 0.930 . S
C231 C232 1.351 . S
C231 N234 1.368 . S
C231 H236 0.931 . S
C232 C231 1.351 . S
C232 N233 1.371 1_655 S
C232 H260 0.930 . S
N233 C232 1.371 1_455 S
N233 C235 1.336 1_455 S
N234 C231 1.368 . S
N234 C235 1.321 . S
N234 Co237 2.135 . S
C235 N233 1.336 1_655 S
C235 N234 1.321 . S
C235 H259 0.930 . S
H236 C231 0.931 . S
Co237 N234 2.135 . S
Co237 N240 2.121 . S
Co237 O245 2.055 . S
Co237 O248 2.039 . S
Co237 N251 2.140 . S
C238 O239 1.227 . S
C238 O248 1.265 . S
O239 C238 1.227 . S
N240 Co237 2.121 . S
N240 C242 1.375 . S
N240 C243 1.313 . S
C241 C242 1.338 . S
C241 N244 1.377 . S
C241 H261 0.930 . S
C242 N240 1.375 . S
C242 C241 1.338 . S
C242 H246 0.931 . S
C243 N240 1.313 . S
C243 N244 1.344 . S
C243 H247 0.930 . S
N244 C241 1.377 . S
N244 C243 1.344 . S
O245 Co237 2.055 . S
O245 C249 1.253 . S
H246 C242 0.931 . S
H247 C243 0.930 . S
O248 Co237 2.039 . S
O248 C238 1.265 . S
C249 O245 1.253 . S
C249 O250 1.227 . S
O250 C249 1.227 . S
N251 Co237 2.140 . S
N251 C254 1.346 . S
N251 C255 1.345 . S
C252 C253 1.387 . S
C252 C256 1.391 . S
C253 C252 1.387 . S
C253 C254 1.369 . S
C253 H262 0.929 . S
C254 N251 1.346 . S
C254 C253 1.369 . S
C254 H257 0.928 . S
C255 N251 1.345 . S
C255 C256 1.371 . S
C255 H258 0.931 . S
C256 C252 1.391 . S
C256 C255 1.371 . S
C256 H263 0.930 . S
H257 C254 0.928 . S
H258 C255 0.931 . S
H259 C235 0.930 . S
H260 C232 0.930 . S
H261 C241 0.930 . S
H262 C253 0.929 . S
H263 C256 0.930 . S
C264 C265 1.351 . S
C264 N267 1.368 . S
C264 H269 0.931 . S
C265 C264 1.351 . S
C265 N266 1.373 . S
C265 H293 0.930 . S
N266 C265 1.373 . S
N266 C268 1.340 . S
N267 C264 1.368 . S
N267 C268 1.321 . S
N267 Co270 2.135 . S
C268 N266 1.340 . S
C268 N267 1.321 . S
C268 H292 0.930 . S
H269 C264 0.931 . S
Co270 N267 2.135 . S
Co270 N273 2.121 . S
Co270 O278 2.055 . S
Co270 O281 2.039 . S
Co270 N284 2.140 . S
C271 O272 1.227 . S
C271 O281 1.265 . S
O272 C271 1.227 . S
N273 Co270 2.121 . S
N273 C275 1.375 . S
N273 C276 1.313 . S
C274 C275 1.338 . S
C274 N277 1.377 . S
C274 H294 0.930 . S
C275 N273 1.375 . S
C275 C274 1.338 . S
C275 H279 0.931 . S
C276 N273 1.313 . S
C276 N277 1.344 . S
C276 H280 0.930 . S
N277 C274 1.377 . S
N277 C276 1.344 . S
O278 Co270 2.055 . S
O278 C282 1.253 . S
H279 C275 0.931 . S
H280 C276 0.930 . S
O281 Co270 2.039 . S
O281 C271 1.265 . S
C282 O278 1.253 . S
C282 O283 1.227 . S
O283 C282 1.227 . S
N284 Co270 2.140 . S
N284 C287 1.346 . S
N284 C288 1.345 . S
C285 C286 1.387 . S
C285 C289 1.391 . S
C286 C285 1.387 . S
C286 C287 1.369 . S
C286 H295 0.929 . S
C287 N284 1.346 . S
C287 C286 1.369 . S
C287 H290 0.928 . S
C288 N284 1.345 . S
C288 C289 1.371 . S
C288 H291 0.931 . S
C289 C285 1.391 . S
C289 C288 1.371 . S
C289 H296 0.930 . S
H290 C287 0.928 . S
H291 C288 0.931 . S
H292 C268 0.930 . S
H293 C265 0.930 . S
H294 C274 0.930 . S
H295 C286 0.929 . S
H296 C289 0.930 . S
C297 C298 1.351 . S
C297 N300 1.368 . S
C297 H302 0.931 . S
C298 C297 1.351 . S
C298 N299 1.373 . S
C298 H326 0.930 . S
N299 C298 1.373 . S
N299 C301 1.340 . S
N300 C297 1.368 . S
N300 C301 1.321 . S
N300 Co303 2.135 . S
C301 N299 1.340 . S
C301 N300 1.321 . S
C301 H325 0.930 . S
H302 C297 0.931 . S
Co303 N300 2.135 . S
Co303 N306 2.121 . S
Co303 O311 2.055 . S
Co303 O314 2.039 . S
Co303 N317 2.140 . S
C304 O305 1.227 . S
C304 O314 1.265 . S
O305 C304 1.227 . S
N306 Co303 2.121 . S
N306 C308 1.375 . S
N306 C309 1.313 . S
C307 C308 1.338 . S
C307 N310 1.377 . S
C307 H327 0.930 . S
C308 N306 1.375 . S
C308 C307 1.338 . S
C308 H312 0.931 . S
C309 N306 1.313 . S
C309 N310 1.344 . S
C309 H313 0.930 . S
N310 C307 1.377 . S
N310 C309 1.344 . S
O311 Co303 2.055 . S
O311 C315 1.253 . S
H312 C308 0.931 . S
H313 C309 0.930 . S
O314 Co303 2.039 . S
O314 C304 1.265 . S
C315 O311 1.253 . S
C315 O316 1.227 . S
O316 C315 1.227 . S
N317 Co303 2.140 . S
N317 C320 1.346 . S
N317 C321 1.345 . S
C318 C319 1.387 . S
C318 C322 1.391 . S
C319 C318 1.387 . S
C319 C320 1.369 . S
C319 H328 0.929 . S
C320 N317 1.346 . S
C320 C319 1.369 . S
C320 H323 0.928 . S
C321 N317 1.345 . S
C321 C322 1.371 . S
C321 H324 0.931 . S
C322 C318 1.391 . S
C322 C321 1.371 . S
C322 H329 0.930 . S
H323 C320 0.928 . S
H324 C321 0.931 . S
H325 C301 0.930 . S
H326 C298 0.930 . S
H327 C307 0.930 . S
H328 C319 0.929 . S
H329 C322 0.930 . S
C330 C331 1.351 . S
C330 N333 1.368 . S
C330 H335 0.931 . S
C331 C330 1.351 . S
C331 N332 1.373 . S
C331 H359 0.930 . S
N332 C331 1.373 . S
N332 C334 1.340 . S
N333 C330 1.368 . S
N333 C334 1.321 . S
N333 Co336 2.135 . S
C334 N332 1.340 . S
C334 N333 1.321 . S
C334 H358 0.930 . S
H335 C330 0.931 . S
Co336 N333 2.135 . S
Co336 N339 2.121 . S
Co336 O344 2.055 . S
Co336 O347 2.039 . S
Co336 N350 2.140 . S
C337 O338 1.227 . S
C337 O347 1.265 . S
O338 C337 1.227 . S
N339 Co336 2.121 . S
N339 C341 1.375 . S
N339 C342 1.313 . S
C340 C341 1.338 . S
C340 N343 1.377 . S
C340 H360 0.930 . S
C341 N339 1.375 . S
C341 C340 1.338 . S
C341 H345 0.931 . S
C342 N339 1.313 . S
C342 N343 1.344 . S
C342 H346 0.930 . S
N343 C340 1.377 . S
N343 C342 1.344 . S
O344 Co336 2.055 . S
O344 C348 1.253 . S
H345 C341 0.931 . S
H346 C342 0.930 . S
O347 Co336 2.039 . S
O347 C337 1.265 . S
C348 O344 1.253 . S
C348 O349 1.227 . S
O349 C348 1.227 . S
N350 Co336 2.140 . S
N350 C353 1.346 . S
N350 C354 1.345 . S
C351 C352 1.387 . S
C351 C355 1.391 . S
C352 C351 1.387 . S
C352 C353 1.369 . S
C352 H361 0.929 . S
C353 N350 1.346 . S
C353 C352 1.369 . S
C353 H356 0.928 . S
C354 N350 1.345 . S
C354 C355 1.371 . S
C354 H357 0.931 . S
C355 C351 1.391 . S
C355 C354 1.371 . S
C355 H362 0.930 . S
H356 C353 0.928 . S
H357 C354 0.931 . S
H358 C334 0.930 . S
H359 C331 0.930 . S
H360 C340 0.930 . S
H361 C352 0.929 . S
H362 C355 0.930 . S
C363 C364 1.351 . S
C363 N366 1.368 . S
C363 H368 0.931 . S
C364 C363 1.351 . S
C364 N365 1.373 . S
C364 H392 0.930 . S
N365 C364 1.373 . S
N365 C367 1.340 . S
N366 C363 1.368 . S
N366 C367 1.321 . S
N366 Co369 2.135 . S
C367 N365 1.340 . S
C367 N366 1.321 . S
C367 H391 0.930 . S
H368 C363 0.931 . S
Co369 N366 2.135 . S
Co369 N372 2.121 . S
Co369 O377 2.055 . S
Co369 O380 2.039 . S
Co369 N383 2.140 . S
C370 O371 1.227 . S
C370 O380 1.265 . S
O371 C370 1.227 . S
N372 Co369 2.121 . S
N372 C374 1.375 . S
N372 C375 1.313 . S
C373 C374 1.338 . S
C373 N376 1.377 . S
C373 H393 0.930 . S
C374 N372 1.375 . S
C374 C373 1.338 . S
C374 H378 0.931 . S
C375 N372 1.313 . S
C375 N376 1.344 . S
C375 H379 0.930 . S
N376 C373 1.377 . S
N376 C375 1.344 . S
O377 Co369 2.055 . S
O377 C381 1.253 . S
H378 C374 0.931 . S
H379 C375 0.930 . S
O380 Co369 2.039 . S
O380 C370 1.265 . S
C381 O377 1.253 . S
C381 O382 1.227 . S
O382 C381 1.227 . S
N383 Co369 2.140 . S
N383 C386 1.346 . S
N383 C387 1.345 . S
C384 C385 1.387 . S
C384 C388 1.391 . S
C385 C384 1.387 . S
C385 C386 1.369 . S
C385 H394 0.929 . S
C386 N383 1.346 . S
C386 C385 1.369 . S
C386 H389 0.928 . S
C387 N383 1.345 . S
C387 C388 1.371 . S
C387 H390 0.931 . S
C388 C384 1.391 . S
C388 C387 1.371 . S
C388 H395 0.930 . S
H389 C386 0.928 . S
H390 C387 0.931 . S
H391 C367 0.930 . S
H392 C364 0.930 . S
H393 C373 0.930 . S
H394 C385 0.929 . S
H395 C388 0.930 . S
C396 C397 1.351 . S
C396 N399 1.368 . S
C396 H401 0.931 . S
C397 C396 1.351 . S
C397 N398 1.373 . S
C397 H425 0.930 . S
N398 C397 1.373 . S
N398 C400 1.340 . S
N399 C396 1.368 . S
N399 C400 1.321 . S
N399 Co402 2.135 . S
C400 N398 1.340 . S
C400 N399 1.321 . S
C400 H424 0.930 . S
H401 C396 0.931 . S
Co402 N399 2.135 . S
Co402 N405 2.121 . S
Co402 O410 2.055 . S
Co402 O413 2.039 . S
Co402 N416 2.140 . S
C403 O404 1.227 . S
C403 O413 1.265 . S
O404 C403 1.227 . S
N405 Co402 2.121 . S
N405 C407 1.375 . S
N405 C408 1.313 . S
C406 C407 1.338 . S
C406 N409 1.377 . S
C406 H426 0.930 . S
C407 N405 1.375 . S
C407 C406 1.338 . S
C407 H411 0.931 . S
C408 N405 1.313 . S
C408 N409 1.344 . S
C408 H412 0.930 . S
N409 C406 1.377 . S
N409 C408 1.344 . S
O410 Co402 2.055 . S
O410 C414 1.253 . S
H411 C407 0.931 . S
H412 C408 0.930 . S
O413 Co402 2.039 . S
O413 C403 1.265 . S
C414 O410 1.253 . S
C414 O415 1.227 . S
O415 C414 1.227 . S
N416 Co402 2.140 . S
N416 C419 1.346 . S
N416 C420 1.345 . S
C417 C418 1.387 . S
C417 C421 1.391 . S
C418 C417 1.387 . S
C418 C419 1.369 . S
C418 H427 0.929 . S
C419 N416 1.346 . S
C419 C418 1.369 . S
C419 H422 0.928 . S
C420 N416 1.345 . S
C420 C421 1.371 . S
C420 H423 0.931 . S
C421 C417 1.391 . S
C421 C420 1.371 . S
C421 H428 0.930 . S
H422 C419 0.928 . S
H423 C420 0.931 . S
H424 C400 0.930 . S
H425 C397 0.930 . S
H426 C406 0.930 . S
H427 C418 0.929 . S
H428 C421 0.930 . S
C429 C430 1.351 . S
C429 N432 1.368 . S
C429 H434 0.931 . S
C430 C429 1.351 . S
C430 N431 1.373 . S
C430 H458 0.930 . S
N431 C430 1.373 . S
N431 C433 1.340 . S
N432 C429 1.368 . S
N432 C433 1.321 . S
N432 Co435 2.135 . S
C433 N431 1.340 . S
C433 N432 1.321 . S
C433 H457 0.930 . S
H434 C429 0.931 . S
Co435 N432 2.135 . S
Co435 N438 2.121 . S
Co435 O443 2.055 . S
Co435 O446 2.039 . S
Co435 N449 2.140 . S
C436 O437 1.227 . S
C436 O446 1.265 . S
O437 C436 1.227 . S
N438 Co435 2.121 . S
N438 C440 1.375 . S
N438 C441 1.313 . S
C439 C440 1.338 . S
C439 N442 1.377 . S
C439 H459 0.930 . S
C440 N438 1.375 . S
C440 C439 1.338 . S
C440 H444 0.931 . S
C441 N438 1.313 . S
C441 N442 1.344 . S
C441 H445 0.930 . S
N442 C439 1.377 . S
N442 C441 1.344 . S
O443 Co435 2.055 . S
O443 C447 1.253 . S
H444 C440 0.931 . S
H445 C441 0.930 . S
O446 Co435 2.039 . S
O446 C436 1.265 . S
C447 O443 1.253 . S
C447 O448 1.227 . S
O448 C447 1.227 . S
N449 Co435 2.140 . S
N449 C452 1.346 . S
N449 C453 1.345 . S
C450 C451 1.387 . S
C450 C454 1.391 . S
C451 C450 1.387 . S
C451 C452 1.369 . S
C451 H460 0.929 . S
C452 N449 1.346 . S
C452 C451 1.369 . S
C452 H455 0.928 . S
C453 N449 1.345 . S
C453 C454 1.371 . S
C453 H456 0.931 . S
C454 C450 1.391 . S
C454 C453 1.371 . S
C454 H461 0.930 . S
H455 C452 0.928 . S
H456 C453 0.931 . S
H457 C433 0.930 . S
H458 C430 0.930 . S
H459 C439 0.930 . S
H460 C451 0.929 . S
H461 C454 0.930 . S
C462 C463 1.351 . S
C462 N465 1.368 . S
C462 H467 0.931 . S
C463 C462 1.351 . S
C463 N464 1.373 . S
C463 H491 0.930 . S
N464 C463 1.373 . S
N464 C466 1.340 . S
N465 C462 1.368 . S
N465 C466 1.321 . S
N465 Co468 2.135 . S
C466 N464 1.340 . S
C466 N465 1.321 . S
C466 H490 0.930 . S
H467 C462 0.931 . S
Co468 N465 2.135 . S
Co468 N471 2.121 . S
Co468 O476 2.055 . S
Co468 O479 2.039 . S
Co468 N482 2.140 . S
C469 O470 1.227 . S
C469 O479 1.265 . S
O470 C469 1.227 . S
N471 Co468 2.121 . S
N471 C473 1.375 . S
N471 C474 1.313 . S
C472 C473 1.338 . S
C472 N475 1.377 . S
C472 H492 0.930 . S
C473 N471 1.375 . S
C473 C472 1.338 . S
C473 H477 0.931 . S
C474 N471 1.313 . S
C474 N475 1.344 . S
C474 H478 0.930 . S
N475 C472 1.377 . S
N475 C474 1.344 . S
O476 Co468 2.055 . S
O476 C480 1.253 . S
H477 C473 0.931 . S
H478 C474 0.930 . S
O479 Co468 2.039 . S
O479 C469 1.265 . S
C480 O476 1.253 . S
C480 O481 1.227 . S
O481 C480 1.227 . S
N482 Co468 2.140 . S
N482 C485 1.346 . S
N482 C486 1.345 . S
C483 C484 1.387 . S
C483 C487 1.391 . S
C484 C483 1.387 . S
C484 C485 1.369 . S
C484 H493 0.929 . S
C485 N482 1.346 . S
C485 C484 1.369 . S
C485 H488 0.928 . S
C486 N482 1.345 . S
C486 C487 1.371 . S
C486 H489 0.931 . S
C487 C483 1.391 . S
C487 C486 1.371 . S
C487 H494 0.930 . S
H488 C485 0.928 . S
H489 C486 0.931 . S
H490 C466 0.930 . S
H491 C463 0.930 . S
H492 C472 0.930 . S
H493 C484 0.929 . S
H494 C487 0.930 . S
C495 C496 1.351 . S
C495 N498 1.368 . S
C495 H500 0.931 . S
C496 C495 1.351 . S
C496 N497 1.373 . S
C496 H524 0.930 . S
N497 C496 1.373 . S
N497 C499 1.340 . S
N498 C495 1.368 . S
N498 C499 1.321 . S
N498 Co501 2.135 . S
C499 N497 1.340 . S
C499 N498 1.321 . S
C499 H523 0.930 . S
H500 C495 0.931 . S
Co501 N498 2.135 . S
Co501 N504 2.121 . S
Co501 O509 2.055 . S
Co501 O512 2.039 . S
Co501 N515 2.140 . S
C502 O503 1.227 . S
C502 O512 1.265 . S
O503 C502 1.227 . S
N504 Co501 2.121 . S
N504 C506 1.375 . S
N504 C507 1.313 . S
C505 C506 1.338 . S
C505 N508 1.377 . S
C505 H525 0.930 . S
C506 N504 1.375 . S
C506 C505 1.338 . S
C506 H510 0.931 . S
C507 N504 1.313 . S
C507 N508 1.344 . S
C507 H511 0.930 . S
N508 C505 1.377 . S
N508 C507 1.344 . S
O509 Co501 2.055 . S
O509 C513 1.253 . S
H510 C506 0.931 . S
H511 C507 0.930 . S
O512 Co501 2.039 . S
O512 C502 1.265 . S
C513 O509 1.253 . S
C513 O514 1.227 . S
O514 C513 1.227 . S
N515 Co501 2.140 . S
N515 C518 1.346 . S
N515 C519 1.345 . S
C516 C517 1.387 . S
C516 C520 1.391 . S
C517 C516 1.387 . S
C517 C518 1.369 . S
C517 H526 0.929 . S
C518 N515 1.346 . S
C518 C517 1.369 . S
C518 H521 0.928 . S
C519 N515 1.345 . S
C519 C520 1.371 . S
C519 H522 0.931 . S
C520 C516 1.391 . S
C520 C519 1.371 . S
C520 H527 0.930 . S
H521 C518 0.928 . S
H522 C519 0.931 . S
H523 C499 0.930 . S
H524 C496 0.930 . S
H525 C505 0.930 . S
H526 C517 0.929 . S
H527 C520 0.930 . S
H528 C534 0.930 . S
H529 C538 0.930 . S
H530 C543 0.929 . S
H531 C541 0.929 . S
H532 C536 0.929 . S
H533 C542 0.929 . S
C534 H528 0.930 . S
C534 C535 1.367 . S
C534 C542 1.378 . S
C535 C534 1.367 . S
C535 C543 1.433 . S
C536 H532 0.929 . S
C536 C538 1.378 . S
C536 C540 1.350 . S
C537 C540 1.463 . S
C537 C542 1.350 . S
C537 N545 1.427 . S
C538 H529 0.930 . S
C538 C536 1.378 . S
C538 C539 1.367 . S
C539 C538 1.367 . S
C539 C541 1.433 . S
C540 C536 1.350 . S
C540 C537 1.463 . S
C540 N544 1.427 . S
C541 H531 0.929 . S
C541 C539 1.433 . S
C541 N544 1.384 . S
C542 H533 0.929 . S
C542 C534 1.378 . S
C542 C537 1.350 . S
C543 H530 0.929 . S
C543 C535 1.433 . S
C543 N545 1.384 . S
N544 C540 1.427 . S
N544 C541 1.384 . S
N545 C537 1.427 . S
N545 C543 1.384 . S
H546 C552 0.930 . S
H547 C556 0.930 . S
H548 C561 0.929 . S
H549 C559 0.929 . S
H550 C554 0.929 . S
H551 C560 0.929 . S
C552 H546 0.930 . S
C552 C553 1.367 . S
C552 C560 1.378 . S
C553 C552 1.367 . S
C553 C561 1.433 . S
C554 H550 0.929 . S
C554 C556 1.378 . S
C554 C558 1.350 . S
C555 C558 1.463 . S
C555 C560 1.350 . S
C555 N563 1.427 . S
C556 H547 0.930 . S
C556 C554 1.378 . S
C556 C557 1.367 . S
C557 C556 1.367 . S
C557 C559 1.433 . S
C558 C554 1.350 . S
C558 C555 1.463 . S
C558 N562 1.427 . S
C559 H549 0.929 . S
C559 C557 1.433 . S
C559 N562 1.384 . S
C560 H551 0.929 . S
C560 C552 1.378 . S
C560 C555 1.350 . S
C561 H548 0.929 . S
C561 C553 1.433 . S
C561 N563 1.384 . S
N562 C558 1.427 . S
N562 C559 1.384 . S
N563 C555 1.427 . S
N563 C561 1.384 . S
H564 C570 0.930 . S
H565 C574 0.930 . S
H566 C579 0.929 . S
H567 C577 0.929 . S
H568 C572 0.929 . S
H569 C578 0.929 . S
C570 H564 0.930 . S
C570 C571 1.367 . S
C570 C578 1.378 . S
C571 C570 1.367 . S
C571 C579 1.433 . S
C572 H568 0.929 . S
C572 C574 1.378 . S
C572 C576 1.350 . S
C573 C576 1.463 . S
C573 C578 1.350 . S
C573 N581 1.427 . S
C574 H565 0.930 . S
C574 C572 1.378 . S
C574 C575 1.367 . S
C575 C574 1.367 . S
C575 C577 1.433 . S
C576 C572 1.350 . S
C576 C573 1.463 . S
C576 N580 1.427 . S
C577 H567 0.929 . S
C577 C575 1.433 . S
C577 N580 1.384 . S
C578 H569 0.929 . S
C578 C570 1.378 . S
C578 C573 1.350 . S
C579 H566 0.929 . S
C579 C571 1.433 . S
C579 N581 1.384 . S
N580 C576 1.427 . S
N580 C577 1.384 . S
N581 C573 1.427 . S
N581 C579 1.384 . S
H582 C588 0.930 . S
H583 C592 0.930 . S
H584 C597 0.929 . S
H585 C595 0.929 . S
H586 C590 0.929 . S
H587 C596 0.929 . S
C588 H582 0.930 . S
C588 C589 1.367 . S
C588 C596 1.378 . S
C589 C588 1.367 . S
C589 C597 1.433 . S
C590 H586 0.929 . S
C590 C592 1.378 . S
C590 C594 1.350 . S
C591 C594 1.463 . S
C591 C596 1.350 . S
C591 N599 1.427 . S
C592 H583 0.930 . S
C592 C590 1.378 . S
C592 C593 1.367 . S
C593 C592 1.367 . S
C593 C595 1.433 . S
C594 C590 1.350 . S
C594 C591 1.463 . S
C594 N598 1.427 . S
C595 H585 0.929 . S
C595 C593 1.433 . S
C595 N598 1.384 . S
C596 H587 0.929 . S
C596 C588 1.378 . S
C596 C591 1.350 . S
C597 H584 0.929 . S
C597 C589 1.433 . S
C597 N599 1.384 . S
N598 C594 1.427 . S
N598 C595 1.384 . S
N599 C591 1.427 . S
N599 C597 1.384 . S
H600 C606 0.930 . S
H601 C610 0.930 . S
H602 C615 0.929 . S
H603 C613 0.929 . S
H604 C608 0.929 . S
H605 C614 0.929 . S
C606 H600 0.930 . S
C606 C607 1.367 . S
C606 C614 1.378 . S
C607 C606 1.367 . S
C607 C615 1.433 . S
C608 H604 0.929 . S
C608 C610 1.378 . S
C608 C612 1.350 . S
C609 C612 1.463 . S
C609 C614 1.350 . S
C609 N617 1.427 . S
C610 H601 0.930 . S
C610 C608 1.378 . S
C610 C611 1.367 . S
C611 C610 1.367 . S
C611 C613 1.433 . S
C612 C608 1.350 . S
C612 C609 1.463 . S
C612 N616 1.427 . S
C613 H603 0.929 . S
C613 C611 1.433 . S
C613 N616 1.384 . S
C614 H605 0.929 . S
C614 C606 1.378 . S
C614 C609 1.350 . S
C615 H602 0.929 . S
C615 C607 1.433 . S
C615 N617 1.384 . S
N616 C612 1.427 . S
N616 C613 1.384 . S
N617 C609 1.427 . S
N617 C615 1.384 . S
H618 C624 0.930 . S
H619 C628 0.930 . S
H620 C633 0.929 . S
H621 C631 0.929 . S
H622 C626 0.929 . S
H623 C632 0.929 . S
C624 H618 0.930 . S
C624 C625 1.367 . S
C624 C632 1.378 . S
C625 C624 1.367 . S
C625 C633 1.433 . S
C626 H622 0.929 . S
C626 C628 1.378 . S
C626 C630 1.350 . S
C627 C630 1.463 . S
C627 C632 1.350 . S
C627 N635 1.427 . S
C628 H619 0.930 . S
C628 C626 1.378 . S
C628 C629 1.367 . S
C629 C628 1.367 . S
C629 C631 1.433 . S
C630 C626 1.350 . S
C630 C627 1.463 . S
C630 N634 1.427 . S
C631 H621 0.929 . S
C631 C629 1.433 . S
C631 N634 1.384 . S
C632 H623 0.929 . S
C632 C624 1.378 . S
C632 C627 1.350 . S
C633 H620 0.929 . S
C633 C625 1.433 . S
C633 N635 1.384 . S
N634 C630 1.427 . S
N634 C631 1.384 . S
N635 C627 1.427 . S
N635 C633 1.384 . S
H636 C642 0.930 . S
H637 C646 0.930 . S
H638 C651 0.929 . S
H639 C649 0.929 . S
H640 C644 0.929 . S
H641 C650 0.929 . S
C642 H636 0.930 . S
C642 C643 1.367 . S
C642 C650 1.378 . S
C643 C642 1.367 . S
C643 C651 1.433 . S
C644 H640 0.929 . S
C644 C646 1.378 . S
C644 C648 1.350 . S
C645 C648 1.463 . S
C645 C650 1.350 . S
C645 N653 1.427 . S
C646 H637 0.930 . S
C646 C644 1.378 . S
C646 C647 1.367 . S
C647 C646 1.367 . S
C647 C649 1.433 . S
C648 C644 1.350 . S
C648 C645 1.463 . S
C648 N652 1.427 . S
C649 H639 0.929 . S
C649 C647 1.433 . S
C649 N652 1.384 . S
C650 H641 0.929 . S
C650 C642 1.378 . S
C650 C645 1.350 . S
C651 H638 0.929 . S
C651 C643 1.433 . S
C651 N653 1.384 . S
N652 C648 1.427 . S
N652 C649 1.384 . S
N653 C645 1.427 . S
N653 C651 1.384 . S
H654 C660 0.930 . S
H655 C664 0.930 . S
H656 C669 0.929 . S
H657 C667 0.929 . S
H658 C662 0.929 . S
H659 C668 0.929 . S
C660 H654 0.930 . S
C660 C661 1.367 . S
C660 C668 1.378 . S
C661 C660 1.367 . S
C661 C669 1.433 . S
C662 H658 0.929 . S
C662 C664 1.378 . S
C662 C666 1.350 . S
C663 C666 1.463 . S
C663 C668 1.350 . S
C663 N671 1.427 . S
C664 H655 0.930 . S
C664 C662 1.378 . S
C664 C665 1.367 . S
C665 C664 1.367 . S
C665 C667 1.433 . S
C666 C662 1.350 . S
C666 C663 1.463 . S
C666 N670 1.427 . S
C667 H657 0.929 . S
C667 C665 1.433 . S
C667 N670 1.384 . S
C668 H659 0.929 . S
C668 C660 1.378 . S
C668 C663 1.350 . S
C669 H656 0.929 . S
C669 C661 1.433 . S
C669 N671 1.384 . S
N670 C666 1.427 . S
N670 C667 1.384 . S
N671 C663 1.427 . S
N671 C669 1.384 . S
H672 C678 0.930 . S
H673 C682 0.930 . S
H674 C687 0.929 . S
H675 C685 0.929 . S
H676 C680 0.929 . S
H677 C686 0.929 . S
C678 H672 0.930 . S
C678 C679 1.367 . S
C678 C686 1.378 . S
C679 C678 1.367 . S
C679 C687 1.433 . S
C680 H676 0.929 . S
C680 C682 1.378 . S
C680 C684 1.350 . S
C681 C684 1.463 . S
C681 C686 1.350 . S
C681 N689 1.427 . S
C682 H673 0.930 . S
C682 C680 1.378 . S
C682 C683 1.367 . S
C683 C682 1.367 . S
C683 C685 1.433 . S
C684 C680 1.350 . S
C684 C681 1.463 . S
C684 N688 1.427 . S
C685 H675 0.929 . S
C685 C683 1.433 . S
C685 N688 1.384 . S
C686 H677 0.929 . S
C686 C678 1.378 . S
C686 C681 1.350 . S
C687 H674 0.929 . S
C687 C679 1.433 . S
C687 N689 1.384 . S
N688 C684 1.427 . S
N688 C685 1.384 . S
N689 C681 1.427 . S
N689 C687 1.384 . S
H690 C696 0.930 . S
H691 C700 0.930 . S
H692 C705 0.929 . S
H693 C703 0.929 . S
H694 C698 0.929 . S
H695 C704 0.929 . S
C696 H690 0.930 . S
C696 C697 1.367 . S
C696 C704 1.378 . S
C697 C696 1.367 . S
C697 C705 1.433 . S
C698 H694 0.929 . S
C698 C700 1.378 . S
C698 C702 1.350 . S
C699 C702 1.463 . S
C699 C704 1.350 . S
C699 N707 1.427 . S
C700 H691 0.930 . S
C700 C698 1.378 . S
C700 C701 1.367 . S
C701 C700 1.367 . S
C701 C703 1.433 . S
C702 C698 1.350 . S
C702 C699 1.463 . S
C702 N706 1.427 . S
C703 H693 0.929 . S
C703 C701 1.433 . S
C703 N706 1.384 . S
C704 H695 0.929 . S
C704 C696 1.378 . S
C704 C699 1.350 . S
C705 H692 0.929 . S
C705 C697 1.433 . S
C705 N707 1.384 . S
N706 C702 1.427 . S
N706 C703 1.384 . S
N707 C699 1.427 . S
N707 C705 1.384 . S
H708 C714 0.930 . S
H709 C718 0.930 . S
H710 C723 0.929 . S
H711 C721 0.929 . S
H712 C716 0.929 . S
H713 C722 0.929 . S
C714 H708 0.930 . S
C714 C715 1.367 . S
C714 C722 1.378 . S
C715 C714 1.367 . S
C715 C723 1.433 . S
C716 H712 0.929 . S
C716 C718 1.378 . S
C716 C720 1.350 . S
C717 C720 1.463 . S
C717 C722 1.350 . S
C717 N725 1.427 . S
C718 H709 0.930 . S
C718 C716 1.378 . S
C718 C719 1.367 . S
C719 C718 1.367 . S
C719 C721 1.433 . S
C720 C716 1.350 . S
C720 C717 1.463 . S
C720 N724 1.427 . S
C721 H711 0.929 . S
C721 C719 1.433 . S
C721 N724 1.384 . S
C722 H713 0.929 . S
C722 C714 1.378 . S
C722 C717 1.350 . S
C723 H710 0.929 . S
C723 C715 1.433 . S
C723 N725 1.384 . S
N724 C720 1.427 . S
N724 C721 1.384 . S
N725 C717 1.427 . S
N725 C723 1.384 . S
H726 C732 0.930 . S
H727 C736 0.930 . S
H728 C741 0.929 . S
H729 C739 0.929 . S
H730 C734 0.929 . S
H731 C740 0.929 . S
C732 H726 0.930 . S
C732 C733 1.367 . S
C732 C740 1.378 . S
C733 C732 1.367 . S
C733 C741 1.433 . S
C734 H730 0.929 . S
C734 C736 1.378 . S
C734 C738 1.350 . S
C735 C738 1.463 . S
C735 C740 1.350 . S
C735 N743 1.427 . S
C736 H727 0.930 . S
C736 C734 1.378 . S
C736 C737 1.367 . S
C737 C736 1.367 . S
C737 C739 1.433 . S
C738 C734 1.350 . S
C738 C735 1.463 . S
C738 N742 1.427 . S
C739 H729 0.929 . S
C739 C737 1.433 . S
C739 N742 1.384 . S
C740 H731 0.929 . S
C740 C732 1.378 . S
C740 C735 1.350 . S
C741 H728 0.929 . S
C741 C733 1.433 . S
C741 N743 1.384 . S
N742 C738 1.427 . S
N742 C739 1.384 . S
N743 C735 1.427 . S
N743 C741 1.384 . S
H744 C750 0.930 . S
H745 C754 0.930 . S
H746 C759 0.929 . S
H747 C757 0.929 . S
H748 C752 0.929 . S
H749 C758 0.929 . S
C750 H744 0.930 . S
C750 C751 1.367 . S
C750 C758 1.378 . S
C751 C750 1.367 . S
C751 C759 1.433 . S
C752 H748 0.929 . S
C752 C754 1.378 . S
C752 C756 1.350 . S
C753 C756 1.463 . S
C753 C758 1.350 . S
C753 N761 1.427 . S
C754 H745 0.930 . S
C754 C752 1.378 . S
C754 C755 1.367 . S
C755 C754 1.367 . S
C755 C757 1.433 . S
C756 C752 1.350 . S
C756 C753 1.463 . S
C756 N760 1.427 . S
C757 H747 0.929 . S
C757 C755 1.433 . S
C757 N760 1.384 . S
C758 H749 0.929 . S
C758 C750 1.378 . S
C758 C753 1.350 . S
C759 H746 0.929 . S
C759 C751 1.433 . S
C759 N761 1.384 . S
N760 C756 1.427 . S
N760 C757 1.384 . S
N761 C753 1.427 . S
N761 C759 1.384 . S
H762 C768 0.930 . S
H763 C772 0.930 . S
H764 C777 0.929 . S
H765 C775 0.929 . S
H766 C770 0.929 . S
H767 C776 0.929 . S
C768 H762 0.930 . S
C768 C769 1.367 . S
C768 C776 1.378 . S
C769 C768 1.367 . S
C769 C777 1.433 . S
C770 H766 0.929 . S
C770 C772 1.378 . S
C770 C774 1.350 . S
C771 C774 1.463 . S
C771 C776 1.350 . S
C771 N779 1.427 . S
C772 H763 0.930 . S
C772 C770 1.378 . S
C772 C773 1.367 . S
C773 C772 1.367 . S
C773 C775 1.433 . S
C774 C770 1.350 . S
C774 C771 1.463 . S
C774 N778 1.427 . S
C775 H765 0.929 . S
C775 C773 1.433 . S
C775 N778 1.384 . S
C776 H767 0.929 . S
C776 C768 1.378 . S
C776 C771 1.350 . S
C777 H764 0.929 . S
C777 C769 1.433 . S
C777 N779 1.384 . S
N778 C774 1.427 . S
N778 C775 1.384 . S
N779 C771 1.427 . S
N779 C777 1.384 . S
H780 C786 0.930 . S
H781 C790 0.930 . S
H782 C795 0.929 . S
H783 C793 0.929 . S
H784 C788 0.929 . S
H785 C794 0.929 . S
C786 H780 0.930 . S
C786 C787 1.367 . S
C786 C794 1.378 . S
C787 C786 1.367 . S
C787 C795 1.433 . S
C788 H784 0.929 . S
C788 C790 1.378 . S
C788 C792 1.350 . S
C789 C792 1.463 . S
C789 C794 1.350 . S
C789 N797 1.427 . S
C790 H781 0.930 . S
C790 C788 1.378 . S
C790 C791 1.367 . S
C791 C790 1.367 . S
C791 C793 1.433 . S
C792 C788 1.350 . S
C792 C789 1.463 . S
C792 N796 1.427 . S
C793 H783 0.929 . S
C793 C791 1.433 . S
C793 N796 1.384 . S
C794 H785 0.929 . S
C794 C786 1.378 . S
C794 C789 1.350 . S
C795 H782 0.929 . S
C795 C787 1.433 . S
C795 N797 1.384 . S
N796 C792 1.427 . S
N796 C793 1.384 . S
N797 C789 1.427 . S
N797 C795 1.384 . S
H798 C804 0.930 . S
H799 C808 0.930 . S
H800 C813 0.929 . S
H801 C811 0.929 . S
H802 C806 0.929 . S
H803 C812 0.929 . S
C804 H798 0.930 . S
C804 C805 1.367 . S
C804 C812 1.378 . S
C805 C804 1.367 . S
C805 C813 1.433 . S
C806 H802 0.929 . S
C806 C808 1.378 . S
C806 C810 1.350 . S
C807 C810 1.463 . S
C807 C812 1.350 . S
C807 N815 1.427 . S
C808 H799 0.930 . S
C808 C806 1.378 . S
C808 C809 1.367 . S
C809 C808 1.367 . S
C809 C811 1.433 . S
C810 C806 1.350 . S
C810 C807 1.463 . S
C810 N814 1.427 . S
C811 H801 0.929 . S
C811 C809 1.433 . S
C811 N814 1.384 . S
C812 H803 0.929 . S
C812 C804 1.378 . S
C812 C807 1.350 . S
C813 H800 0.929 . S
C813 C805 1.433 . S
C813 N815 1.384 . S
N814 C810 1.427 . S
N814 C811 1.384 . S
N815 C807 1.427 . S
N815 C813 1.384 . S
H816 C822 0.930 . S
H817 C826 0.930 . S
H818 C831 0.929 . S
H819 C829 0.929 . S
H820 C824 0.929 . S
H821 C830 0.929 . S
C822 H816 0.930 . S
C822 C823 1.367 . S
C822 C830 1.378 . S
C823 C822 1.367 . S
C823 C831 1.433 . S
C824 H820 0.929 . S
C824 C826 1.378 . S
C824 C828 1.350 . S
C825 C828 1.463 . S
C825 C830 1.350 . S
C825 N833 1.427 . S
C826 H817 0.930 . S
C826 C824 1.378 . S
C826 C827 1.367 . S
C827 C826 1.367 . S
C827 C829 1.433 . S
C828 C824 1.350 . S
C828 C825 1.463 . S
C828 N832 1.427 . S
C829 H819 0.929 . S
C829 C827 1.433 . S
C829 N832 1.384 . S
C830 H821 0.929 . S
C830 C822 1.378 . S
C830 C825 1.350 . S
C831 H818 0.929 . S
C831 C823 1.433 . S
C831 N833 1.384 . S
N832 C828 1.427 . S
N832 C829 1.384 . S
N833 C825 1.427 . S
N833 C831 1.384 . S
H834 C840 0.930 . S
H835 C844 0.930 . S
H836 C849 0.929 . S
H837 C847 0.929 . S
H838 C842 0.929 . S
H839 C848 0.929 . S
C840 H834 0.930 . S
C840 C841 1.367 . S
C840 C848 1.378 . S
C841 C840 1.367 . S
C841 C849 1.433 . S
C842 H838 0.929 . S
C842 C844 1.378 . S
C842 C846 1.350 . S
C843 C846 1.463 . S
C843 C848 1.350 . S
C843 N851 1.427 . S
C844 H835 0.930 . S
C844 C842 1.378 . S
C844 C845 1.367 . S
C845 C844 1.367 . S
C845 C847 1.433 . S
C846 C842 1.350 . S
C846 C843 1.463 . S
C846 N850 1.427 . S
C847 H837 0.929 . S
C847 C845 1.433 . S
C847 N850 1.384 . S
C848 H839 0.929 . S
C848 C840 1.378 . S
C848 C843 1.350 . S
C849 H836 0.929 . S
C849 C841 1.433 . S
C849 N851 1.384 . S
N850 C846 1.427 . S
N850 C847 1.384 . S
N851 C843 1.427 . S
N851 C849 1.384 . S
H852 C858 0.930 . S
H853 C862 0.930 . S
H854 C867 0.929 . S
H855 C865 0.929 . S
H856 C860 0.929 . S
H857 C866 0.929 . S
C858 H852 0.930 . S
C858 C859 1.367 . S
C858 C866 1.378 . S
C859 C858 1.367 . S
C859 C867 1.433 . S
C860 H856 0.929 . S
C860 C862 1.378 . S
C860 C864 1.350 . S
C861 C864 1.463 . S
C861 C866 1.350 . S
C861 N869 1.427 . S
C862 H853 0.930 . S
C862 C860 1.378 . S
C862 C863 1.367 . S
C863 C862 1.367 . S
C863 C865 1.433 . S
C864 C860 1.350 . S
C864 C861 1.463 . S
C864 N868 1.427 . S
C865 H855 0.929 . S
C865 C863 1.433 . S
C865 N868 1.384 . S
C866 H857 0.929 . S
C866 C858 1.378 . S
C866 C861 1.350 . S
C867 H854 0.929 . S
C867 C859 1.433 . S
C867 N869 1.384 . S
N868 C864 1.427 . S
N868 C865 1.384 . S
N869 C861 1.427 . S
N869 C867 1.384 . S
H870 C876 0.930 . S
H871 C880 0.930 . S
H872 C885 0.929 . S
H873 C883 0.929 . S
H874 C878 0.929 . S
H875 C884 0.929 . S
C876 H870 0.930 . S
C876 C877 1.367 . S
C876 C884 1.378 . S
C877 C876 1.367 . S
C877 C885 1.433 . S
C878 H874 0.929 . S
C878 C880 1.378 . S
C878 C882 1.350 . S
C879 C882 1.463 . S
C879 C884 1.350 . S
C879 N887 1.427 . S
C880 H871 0.930 . S
C880 C878 1.378 . S
C880 C881 1.367 . S
C881 C880 1.367 . S
C881 C883 1.433 . S
C882 C878 1.350 . S
C882 C879 1.463 . S
C882 N886 1.427 . S
C883 H873 0.929 . S
C883 C881 1.433 . S
C883 N886 1.384 . S
C884 H875 0.929 . S
C884 C876 1.378 . S
C884 C879 1.350 . S
C885 H872 0.929 . S
C885 C877 1.433 . S
C885 N887 1.384 . S
N886 C882 1.427 . S
N886 C883 1.384 . S
N887 C879 1.427 . S
N887 C885 1.384 . S
H888 C894 0.930 . S
H889 C898 0.930 . S
H890 C903 0.929 . S
H891 C901 0.929 . S
H892 C896 0.929 . S
H893 C902 0.929 . S
C894 H888 0.930 . S
C894 C895 1.367 . S
C894 C902 1.378 . S
C895 C894 1.367 . S
C895 C903 1.433 . S
C896 H892 0.929 . S
C896 C898 1.378 . S
C896 C900 1.350 . S
C897 C900 1.463 . S
C897 C902 1.350 . S
C897 N905 1.427 . S
C898 H889 0.930 . S
C898 C896 1.378 . S
C898 C899 1.367 . S
C899 C898 1.367 . S
C899 C901 1.433 . S
C900 C896 1.350 . S
C900 C897 1.463 . S
C900 N904 1.427 . S
C901 H891 0.929 . S
C901 C899 1.433 . S
C901 N904 1.384 . S
C902 H893 0.929 . S
C902 C894 1.378 . S
C902 C897 1.350 . S
C903 H890 0.929 . S
C903 C895 1.433 . S
C903 N905 1.384 . S
N904 C900 1.427 . S
N904 C901 1.384 . S
N905 C897 1.427 . S
N905 C903 1.384 . S
H906 C912 0.930 . S
H907 C916 0.930 . S
H908 C921 0.929 . S
H909 C919 0.929 . S
H910 C914 0.929 . S
H911 C920 0.929 . S
C912 H906 0.930 . S
C912 C913 1.367 . S
C912 C920 1.378 . S
C913 C912 1.367 . S
C913 C921 1.433 . S
C914 H910 0.929 . S
C914 C916 1.378 . S
C914 C918 1.350 . S
C915 C918 1.463 . S
C915 C920 1.350 . S
C915 N923 1.427 . S
C916 H907 0.930 . S
C916 C914 1.378 . S
C916 C917 1.367 . S
C917 C916 1.367 . S
C917 C919 1.433 . S
C918 C914 1.350 . S
C918 C915 1.463 . S
C918 N922 1.427 . S
C919 H909 0.929 . S
C919 C917 1.433 . S
C919 N922 1.384 . S
C920 H911 0.929 . S
C920 C912 1.378 . S
C920 C915 1.350 . S
C921 H908 0.929 . S
C921 C913 1.433 . S
C921 N923 1.384 . S
N922 C918 1.427 . S
N922 C919 1.384 . S
N923 C915 1.427 . S
N923 C921 1.384 . S
H924 C930 0.930 . S
H925 C934 0.930 . S
H926 C939 0.929 . S
H927 C937 0.929 . S
H928 C932 0.929 . S
H929 C938 0.929 . S
C930 H924 0.930 . S
C930 C931 1.367 . S
C930 C938 1.378 . S
C931 C930 1.367 . S
C931 C939 1.433 . S
C932 H928 0.929 . S
C932 C934 1.378 . S
C932 C936 1.350 . S
C933 C936 1.463 . S
C933 C938 1.350 . S
C933 N941 1.427 . S
C934 H925 0.930 . S
C934 C932 1.378 . S
C934 C935 1.367 . S
C935 C934 1.367 . S
C935 C937 1.433 . S
C936 C932 1.350 . S
C936 C933 1.463 . S
C936 N940 1.427 . S
C937 H927 0.929 . S
C937 C935 1.433 . S
C937 N940 1.384 . S
C938 H929 0.929 . S
C938 C930 1.378 . S
C938 C933 1.350 . S
C939 H926 0.929 . S
C939 C931 1.433 . S
C939 N941 1.384 . S
N940 C936 1.427 . S
N940 C937 1.384 . S
N941 C933 1.427 . S
N941 C939 1.384 . S
H942 C948 0.930 . S
H943 C952 0.930 . S
H944 C957 0.929 . S
H945 C955 0.929 . S
H946 C950 0.929 . S
H947 C956 0.929 . S
C948 H942 0.930 . S
C948 C949 1.367 . S
C948 C956 1.378 . S
C949 C948 1.367 . S
C949 C957 1.433 . S
C950 H946 0.929 . S
C950 C952 1.378 . S
C950 C954 1.350 . S
C951 C954 1.463 . S
C951 C956 1.350 . S
C951 N959 1.427 . S
C952 H943 0.930 . S
C952 C950 1.378 . S
C952 C953 1.367 . S
C953 C952 1.367 . S
C953 C955 1.433 . S
C954 C950 1.350 . S
C954 C951 1.463 . S
C954 N958 1.427 . S
C955 H945 0.929 . S
C955 C953 1.433 . S
C955 N958 1.384 . S
C956 H947 0.929 . S
C956 C948 1.378 . S
C956 C951 1.350 . S
C957 H944 0.929 . S
C957 C949 1.433 . S
C957 N959 1.384 . S
N958 C954 1.427 . S
N958 C955 1.384 . S
N959 C951 1.427 . S
N959 C957 1.384 . S
H960 C966 0.930 . S
H961 C970 0.930 . S
H962 C975 0.929 . S
H963 C973 0.929 . S
H964 C968 0.929 . S
H965 C974 0.929 . S
C966 H960 0.930 . S
C966 C967 1.367 . S
C966 C974 1.378 . S
C967 C966 1.367 . S
C967 C975 1.433 . S
C968 H964 0.929 . S
C968 C970 1.378 . S
C968 C972 1.350 . S
C969 C972 1.463 . S
C969 C974 1.350 . S
C969 N977 1.427 . S
C970 H961 0.930 . S
C970 C968 1.378 . S
C970 C971 1.367 . S
C971 C970 1.367 . S
C971 C973 1.433 . S
C972 C968 1.350 . S
C972 C969 1.463 . S
C972 N976 1.427 . S
C973 H963 0.929 . S
C973 C971 1.433 . S
C973 N976 1.384 . S
C974 H965 0.929 . S
C974 C966 1.378 . S
C974 C969 1.350 . S
C975 H962 0.929 . S
C975 C967 1.433 . S
C975 N977 1.384 . S
N976 C972 1.427 . S
N976 C973 1.384 . S
N977 C969 1.427 . S
N977 C975 1.384 . S
H978 C984 0.930 . S
H979 C988 0.930 . S
H980 C993 0.929 . S
H981 C991 0.929 . S
H982 C986 0.929 1_655 S
H983 C992 0.929 1_455 S
C984 H978 0.930 . S
C984 C985 1.367 . S
C984 C992 1.378 . S
C985 C984 1.367 . S
C985 C993 1.433 . S
C986 H982 0.929 1_455 S
C986 C988 1.378 . S
C986 C990 1.350 . S
C987 C990 1.463 1_665 S
C987 C992 1.350 . S
C987 N995 1.427 . S
C988 H979 0.930 . S
C988 C986 1.378 . S
C988 C989 1.367 . S
C989 C988 1.367 . S
C989 C991 1.433 . S
C990 C986 1.350 . S
C990 C987 1.463 1_445 S
C990 N994 1.427 . S
C991 H981 0.929 . S
C991 C989 1.433 . S
C991 N994 1.384 . S
C992 H983 0.929 1_655 S
C992 C984 1.378 . S
C992 C987 1.350 . S
C993 H980 0.929 . S
C993 C985 1.433 . S
C993 N995 1.384 . S
N994 C990 1.427 . S
N994 C991 1.384 . S
N995 C987 1.427 . S
N995 C993 1.384 . S
H996 C1002 0.930 . S
H997 C1006 0.930 . S
H998 C1011 0.929 . S
H999 C1009 0.929 . S
H1000 C1004 0.929 . S
H1001 C1010 0.929 . S
C1002 H996 0.930 . S
C1002 C1003 1.367 . S
C1002 C1010 1.378 . S
C1003 C1002 1.367 . S
C1003 C1011 1.433 . S
C1004 H1000 0.929 . S
C1004 C1006 1.378 . S
C1004 C1008 1.350 . S
C1005 C1008 1.463 1_565 S
C1005 C1010 1.350 . S
C1005 N1013 1.427 . S
C1006 H997 0.930 . S
C1006 C1004 1.378 . S
C1006 C1007 1.367 . S
C1007 C1006 1.367 . S
C1007 C1009 1.433 . S
C1008 C1004 1.350 . S
C1008 C1005 1.463 1_545 S
C1008 N1012 1.427 . S
C1009 H999 0.929 . S
C1009 C1007 1.433 . S
C1009 N1012 1.384 . S
C1010 H1001 0.929 . S
C1010 C1002 1.378 . S
C1010 C1005 1.350 . S
C1011 H998 0.929 . S
C1011 C1003 1.433 . S
C1011 N1013 1.384 . S
N1012 C1008 1.427 . S
N1012 C1009 1.384 . S
N1013 C1005 1.427 . S
N1013 C1011 1.384 . S
H1014 C1020 0.930 . S
H1015 C1024 0.930 . S
H1016 C1029 0.929 . S
H1017 C1027 0.929 . S
H1018 C1022 0.929 . S
H1019 C1028 0.929 . S
C1020 H1014 0.930 . S
C1020 C1021 1.367 . S
C1020 C1028 1.378 . S
C1021 C1020 1.367 . S
C1021 C1029 1.433 . S
C1022 H1018 0.929 . S
C1022 C1024 1.378 . S
C1022 C1026 1.350 . S
C1023 C1026 1.463 1_655 S
C1023 C1028 1.350 . S
C1023 N1031 1.427 . S
C1024 H1015 0.930 . S
C1024 C1022 1.378 . S
C1024 C1025 1.367 . S
C1025 C1024 1.367 . S
C1025 C1027 1.433 . S
C1026 C1022 1.350 . S
C1026 C1023 1.463 1_455 S
C1026 N1030 1.427 . S
C1027 H1017 0.929 . S
C1027 C1025 1.433 . S
C1027 N1030 1.384 . S
C1028 H1019 0.929 . S
C1028 C1020 1.378 . S
C1028 C1023 1.350 . S
C1029 H1016 0.929 . S
C1029 C1021 1.433 . S
C1029 N1031 1.384 . S
N1030 C1026 1.427 . S
N1030 C1027 1.384 . S
N1031 C1023 1.427 . S
N1031 C1029 1.384 . S
H1032 C1038 0.930 . S
H1033 C1042 0.930 . S
H1034 C1047 0.929 . S
H1035 C1045 0.929 . S
H1036 C1040 0.929 . S
H1037 C1046 0.929 . S
C1038 H1032 0.930 . S
C1038 C1039 1.367 . S
C1038 C1046 1.378 . S
C1039 C1038 1.367 . S
C1039 C1047 1.433 . S
C1040 H1036 0.929 . S
C1040 C1042 1.378 . S
C1040 C1044 1.350 . S
C1041 C1044 1.463 . S
C1041 C1046 1.350 . S
C1041 N1049 1.427 . S
C1042 H1033 0.930 . S
C1042 C1040 1.378 . S
C1042 C1043 1.367 . S
C1043 C1042 1.367 . S
C1043 C1045 1.433 . S
C1044 C1040 1.350 . S
C1044 C1041 1.463 . S
C1044 N1048 1.427 . S
C1045 H1035 0.929 . S
C1045 C1043 1.433 . S
C1045 N1048 1.384 . S
C1046 H1037 0.929 . S
C1046 C1038 1.378 . S
C1046 C1041 1.350 . S
C1047 H1034 0.929 . S
C1047 C1039 1.433 . S
C1047 N1049 1.384 . S
N1048 C1044 1.427 . S
N1048 C1045 1.384 . S
N1049 C1041 1.427 . S
N1049 C1047 1.384 . S
H1050 C1056 0.930 . S
H1051 C1060 0.930 . S
H1052 C1065 0.929 1_565 S
H1053 C1063 0.929 1_545 S
H1054 C1058 0.929 . S
H1055 C1064 0.929 . S
C1056 H1050 0.930 . S
C1056 C1057 1.367 . S
C1056 C1064 1.378 . S
C1057 C1056 1.367 . S
C1057 C1065 1.433 . S
C1058 H1054 0.929 . S
C1058 C1060 1.378 . S
C1058 C1062 1.350 . S
C1059 C1062 1.463 1_545 S
C1059 C1064 1.350 . S
C1059 N1067 1.427 1_545 S
C1060 H1051 0.930 . S
C1060 C1058 1.378 . S
C1060 C1061 1.367 . S
C1061 C1060 1.367 . S
C1061 C1063 1.433 . S
C1062 C1058 1.350 . S
C1062 C1059 1.463 1_565 S
C1062 N1066 1.427 1_565 S
C1063 H1053 0.929 1_565 S
C1063 C1061 1.433 . S
C1063 N1066 1.384 1_565 S
C1064 H1055 0.929 . S
C1064 C1056 1.378 . S
C1064 C1059 1.350 . S
C1065 H1052 0.929 1_545 S
C1065 C1057 1.433 . S
C1065 N1067 1.384 1_545 S
N1066 C1062 1.427 1_545 S
N1066 C1063 1.384 1_545 S
N1067 C1059 1.427 1_565 S
N1067 C1065 1.384 1_565 S
H1068 C1074 0.930 . S
H1069 C1078 0.930 . S
H1070 C1083 0.929 . S
H1071 C1081 0.929 . S
H1072 C1076 0.929 . S
H1073 C1082 0.929 . S
C1074 H1068 0.930 . S
C1074 C1075 1.367 . S
C1074 C1082 1.378 . S
C1075 C1074 1.367 . S
C1075 C1083 1.433 . S
C1076 H1072 0.929 . S
C1076 C1078 1.378 . S
C1076 C1080 1.350 . S
C1077 C1080 1.463 1_655 S
C1077 C1082 1.350 . S
C1077 N1085 1.427 . S
C1078 H1069 0.930 . S
C1078 C1076 1.378 . S
C1078 C1079 1.367 . S
C1079 C1078 1.367 . S
C1079 C1081 1.433 . S
C1080 C1076 1.350 . S
C1080 C1077 1.463 1_455 S
C1080 N1084 1.427 . S
C1081 H1071 0.929 . S
C1081 C1079 1.433 . S
C1081 N1084 1.384 . S
C1082 H1073 0.929 . S
C1082 C1074 1.378 . S
C1082 C1077 1.350 . S
C1083 H1070 0.929 . S
C1083 C1075 1.433 . S
C1083 N1085 1.384 . S
N1084 C1080 1.427 . S
N1084 C1081 1.384 . S
N1085 C1077 1.427 . S
N1085 C1083 1.384 . S
H1086 C1092 0.930 . S
H1087 C1096 0.930 . S
H1088 C1101 0.929 . S
H1089 C1099 0.929 . S
H1090 C1094 0.929 . S
H1091 C1100 0.929 . S
C1092 H1086 0.930 . S
C1092 C1093 1.367 . S
C1092 C1100 1.378 . S
C1093 C1092 1.367 . S
C1093 C1101 1.433 . S
C1094 H1090 0.929 . S
C1094 C1096 1.378 . S
C1094 C1098 1.350 . S
C1095 C1098 1.463 1_554 S
C1095 C1100 1.350 . S
C1095 N1103 1.427 . S
C1096 H1087 0.930 . S
C1096 C1094 1.378 . S
C1096 C1097 1.367 . S
C1097 C1096 1.367 . S
C1097 C1099 1.433 . S
C1098 C1094 1.350 . S
C1098 C1095 1.463 1_556 S
C1098 N1102 1.427 . S
C1099 H1089 0.929 . S
C1099 C1097 1.433 . S
C1099 N1102 1.384 . S
C1100 H1091 0.929 . S
C1100 C1092 1.378 . S
C1100 C1095 1.350 . S
C1101 H1088 0.929 . S
C1101 C1093 1.433 . S
C1101 N1103 1.384 . S
N1102 C1098 1.427 . S
N1102 C1099 1.384 . S
N1103 C1095 1.427 . S
N1103 C1101 1.384 . S
H1104 C1110 0.930 . S
H1105 C1114 0.930 . S
H1106 C1119 0.929 . S
H1107 C1117 0.929 . S
H1108 C1112 0.929 . S
H1109 C1118 0.929 . S
C1110 H1104 0.930 . S
C1110 C1111 1.367 . S
C1110 C1118 1.378 . S
C1111 C1110 1.367 . S
C1111 C1119 1.433 . S
C1112 H1108 0.929 . S
C1112 C1114 1.378 . S
C1112 C1116 1.350 . S
C1113 C1116 1.463 1_456 S
C1113 C1118 1.350 . S
C1113 N1121 1.427 . S
C1114 H1105 0.930 . S
C1114 C1112 1.378 . S
C1114 C1115 1.367 . S
C1115 C1114 1.367 . S
C1115 C1117 1.433 . S
C1116 C1112 1.350 . S
C1116 C1113 1.463 1_654 S
C1116 N1120 1.427 . S
C1117 H1107 0.929 . S
C1117 C1115 1.433 . S
C1117 N1120 1.384 . S
C1118 H1109 0.929 . S
C1118 C1110 1.378 . S
C1118 C1113 1.350 . S
C1119 H1106 0.929 . S
C1119 C1111 1.433 . S
C1119 N1121 1.384 . S
N1120 C1116 1.427 . S
N1120 C1117 1.384 . S
N1121 C1113 1.427 . S
N1121 C1119 1.384 . S
H1122 C1128 0.930 . S
H1123 C1132 0.930 . S
H1124 C1137 0.929 . S
H1125 C1135 0.929 . S
H1126 C1130 0.929 . S
H1127 C1136 0.929 . S
C1128 H1122 0.930 . S
C1128 C1129 1.367 . S
C1128 C1136 1.378 . S
C1129 C1128 1.367 . S
C1129 C1137 1.433 . S
C1130 H1126 0.929 . S
C1130 C1132 1.378 . S
C1130 C1134 1.350 . S
C1131 C1134 1.463 . S
C1131 C1136 1.350 . S
C1131 N1139 1.427 . S
C1132 H1123 0.930 . S
C1132 C1130 1.378 . S
C1132 C1133 1.367 . S
C1133 C1132 1.367 . S
C1133 C1135 1.433 . S
C1134 C1130 1.350 . S
C1134 C1131 1.463 . S
C1134 N1138 1.427 . S
C1135 H1125 0.929 . S
C1135 C1133 1.433 . S
C1135 N1138 1.384 . S
C1136 H1127 0.929 . S
C1136 C1128 1.378 . S
C1136 C1131 1.350 . S
C1137 H1124 0.929 . S
C1137 C1129 1.433 . S
C1137 N1139 1.384 . S
N1138 C1134 1.427 . S
N1138 C1135 1.384 . S
N1139 C1131 1.427 . S
N1139 C1137 1.384 . S
H1140 C1146 0.930 . S
H1141 C1150 0.930 . S
H1142 C1155 0.929 . S
H1143 C1153 0.929 . S
H1144 C1148 0.929 . S
H1145 C1154 0.929 . S
C1146 H1140 0.930 . S
C1146 C1147 1.367 . S
C1146 C1154 1.378 . S
C1147 C1146 1.367 . S
C1147 C1155 1.433 . S
C1148 H1144 0.929 . S
C1148 C1150 1.378 . S
C1148 C1152 1.350 . S
C1149 C1152 1.463 1_554 S
C1149 C1154 1.350 . S
C1149 N1157 1.427 . S
C1150 H1141 0.930 . S
C1150 C1148 1.378 . S
C1150 C1151 1.367 . S
C1151 C1150 1.367 . S
C1151 C1153 1.433 . S
C1152 C1148 1.350 . S
C1152 C1149 1.463 1_556 S
C1152 N1156 1.427 . S
C1153 H1143 0.929 . S
C1153 C1151 1.433 . S
C1153 N1156 1.384 . S
C1154 H1145 0.929 . S
C1154 C1146 1.378 . S
C1154 C1149 1.350 . S
C1155 H1142 0.929 . S
C1155 C1147 1.433 . S
C1155 N1157 1.384 . S
N1156 C1152 1.427 . S
N1156 C1153 1.384 . S
N1157 C1149 1.427 . S
N1157 C1155 1.384 . S
H1158 C1164 0.930 . S
H1159 C1168 0.930 . S
H1160 C1173 0.929 . S
H1161 C1171 0.929 . S
H1162 C1166 0.929 . S
H1163 C1172 0.929 . S
C1164 H1158 0.930 . S
C1164 C1165 1.367 . S
C1164 C1172 1.378 . S
C1165 C1164 1.367 . S
C1165 C1173 1.433 . S
C1166 H1162 0.929 . S
C1166 C1168 1.378 . S
C1166 C1170 1.350 . S
C1167 C1170 1.463 . S
C1167 C1172 1.350 . S
C1167 N1175 1.427 . S
C1168 H1159 0.930 . S
C1168 C1166 1.378 . S
C1168 C1169 1.367 . S
C1169 C1168 1.367 . S
C1169 C1171 1.433 . S
C1170 C1166 1.350 . S
C1170 C1167 1.463 . S
C1170 N1174 1.427 . S
C1171 H1161 0.929 . S
C1171 C1169 1.433 . S
C1171 N1174 1.384 . S
C1172 H1163 0.929 . S
C1172 C1164 1.378 . S
C1172 C1167 1.350 . S
C1173 H1160 0.929 . S
C1173 C1165 1.433 . S
C1173 N1175 1.384 . S
N1174 C1170 1.427 . S
N1174 C1171 1.384 . S
N1175 C1167 1.427 . S
N1175 C1173 1.384 . S
H1176 C1182 0.930 . S
H1177 C1186 0.930 . S
H1178 C1191 0.929 . S
H1179 C1189 0.929 . S
H1180 C1184 0.929 . S
H1181 C1190 0.929 . S
C1182 H1176 0.930 . S
C1182 C1183 1.367 . S
C1182 C1190 1.378 1_554 S
C1183 C1182 1.367 . S
C1183 C1191 1.433 . S
C1184 H1180 0.929 . S
C1184 C1186 1.378 1_554 S
C1184 C1188 1.350 1_554 S
C1185 C1188 1.463 1_564 S
C1185 C1190 1.350 1_554 S
C1185 N1193 1.422 1_565 S
C1186 H1177 0.930 . S
C1186 C1184 1.378 1_556 S
C1186 C1187 1.367 . S
C1187 C1186 1.367 . S
C1187 C1189 1.433 . S
C1188 C1184 1.350 1_556 S
C1188 C1185 1.463 1_546 S
C1188 N1192 1.422 1_545 S
C1189 H1179 0.929 . S
C1189 C1187 1.433 . S
C1189 N1192 1.374 1_545 S
C1190 H1181 0.929 . S
C1190 C1182 1.378 1_556 S
C1190 C1185 1.350 1_556 S
C1191 H1178 0.929 . S
C1191 C1183 1.433 . S
C1191 N1193 1.374 1_565 S
N1192 C1188 1.422 1_565 S
N1192 C1189 1.374 1_565 S
N1193 C1185 1.422 1_545 S
N1193 C1191 1.374 1_545 S
H1194 C1200 0.930 . S
H1195 C1204 0.930 . S
H1196 C1209 0.929 . S
H1197 C1207 0.929 . S
H1198 C1202 0.929 . S
H1199 C1208 0.929 . S
C1200 H1194 0.930 . S
C1200 C1201 1.367 . S
C1200 C1208 1.378 . S
C1201 C1200 1.367 . S
C1201 C1209 1.433 . S
C1202 H1198 0.929 . S
C1202 C1204 1.378 . S
C1202 C1206 1.350 . S
C1203 C1206 1.463 . S
C1203 C1208 1.350 . S
C1203 N1211 1.427 . S
C1204 H1195 0.930 . S
C1204 C1202 1.378 . S
C1204 C1205 1.367 . S
C1205 C1204 1.367 . S
C1205 C1207 1.433 . S
C1206 C1202 1.350 . S
C1206 C1203 1.463 . S
C1206 N1210 1.427 . S
C1207 H1197 0.929 . S
C1207 C1205 1.433 . S
C1207 N1210 1.384 . S
C1208 H1199 0.929 . S
C1208 C1200 1.378 . S
C1208 C1203 1.350 . S
C1209 H1196 0.929 . S
C1209 C1201 1.433 . S
C1209 N1211 1.384 . S
N1210 C1206 1.427 . S
N1210 C1207 1.384 . S
N1211 C1203 1.427 . S
N1211 C1209 1.384 . S
H1212 C1218 0.930 . S
H1213 C1222 0.930 . S
H1214 C1227 0.929 . S
H1215 C1225 0.929 . S
H1216 C1220 0.929 . S
H1217 C1226 0.929 . S
C1218 H1212 0.930 . S
C1218 C1219 1.367 . S
C1218 C1226 1.378 . S
C1219 C1218 1.367 . S
C1219 C1227 1.433 . S
C1220 H1216 0.929 . S
C1220 C1222 1.378 . S
C1220 C1224 1.350 . S
C1221 C1224 1.463 . S
C1221 C1226 1.350 . S
C1221 N1229 1.427 . S
C1222 H1213 0.930 . S
C1222 C1220 1.378 . S
C1222 C1223 1.367 . S
C1223 C1222 1.367 . S
C1223 C1225 1.433 . S
C1224 C1220 1.350 . S
C1224 C1221 1.463 . S
C1224 N1228 1.427 . S
C1225 H1215 0.929 . S
C1225 C1223 1.433 . S
C1225 N1228 1.384 . S
C1226 H1217 0.929 . S
C1226 C1218 1.378 . S
C1226 C1221 1.350 . S
C1227 H1214 0.929 . S
C1227 C1219 1.433 . S
C1227 N1229 1.384 . S
N1228 C1224 1.427 . S
N1228 C1225 1.384 . S
N1229 C1221 1.427 . S
N1229 C1227 1.384 . S
H1230 C1236 0.930 . S
H1231 C1240 0.930 . S
H1232 C1245 0.929 . S
H1233 C1243 0.929 . S
H1234 C1238 0.929 . S
H1235 C1244 0.929 . S
C1236 H1230 0.930 . S
C1236 C1237 1.367 . S
C1236 C1244 1.378 . S
C1237 C1236 1.367 . S
C1237 C1245 1.433 . S
C1238 H1234 0.929 . S
C1238 C1240 1.378 . S
C1238 C1242 1.350 . S
C1239 C1242 1.463 . S
C1239 C1244 1.350 . S
C1239 N1247 1.427 . S
C1240 H1231 0.930 . S
C1240 C1238 1.378 . S
C1240 C1241 1.367 . S
C1241 C1240 1.367 . S
C1241 C1243 1.433 . S
C1242 C1238 1.350 . S
C1242 C1239 1.463 . S
C1242 N1246 1.427 . S
C1243 H1233 0.929 . S
C1243 C1241 1.433 . S
C1243 N1246 1.384 . S
C1244 H1235 0.929 . S
C1244 C1236 1.378 . S
C1244 C1239 1.350 . S
C1245 H1232 0.929 . S
C1245 C1237 1.433 . S
C1245 N1247 1.384 . S
N1246 C1242 1.427 . S
N1246 C1243 1.384 . S
N1247 C1239 1.427 . S
N1247 C1245 1.384 . S
C535 N2 0.801 . S
C539 N299 0.790 . S
C553 N13 0.727 1_655 S
C557 N310 0.738 . S
C571 N277 0.737 . S
C575 N46 0.744 . S
C589 N35 0.806 . S
C593 N266 0.790 . S
C607 N68 0.800 . S
C611 N365 0.790 . S
C625 N79 0.742 1_455 S
C629 N376 0.729 . S
C643 N112 0.742 . S
C647 N343 0.731 . S
C661 N101 0.795 . S
C665 N332 0.797 . S
C679 N134 0.791 . S
C683 N431 0.796 . S
C697 N442 0.731 . S
C701 N145 0.743 1_655 S
C715 N409 0.726 . S
C719 N178 0.733 . S
C733 N398 0.790 . S
C737 N167 0.805 . S
C751 N497 0.801 . S
C755 N200 0.790 . S
C769 N508 0.735 . S
C773 N211 0.744 1_455 S
C787 N475 0.742 . S
C791 N244 0.730 . S
C805 N233 0.804 . S
C809 N464 0.790 . S
C823 C21 1.110 . S
C827 C54 1.109 1_554 S
C841 C120 1.110 1_556 S
C845 C87 1.109 . S
C859 C186 1.110 . S
C863 C153 1.109 . S
C877 C252 1.109 . S
C881 C219 1.110 . S
C895 C318 1.109 . S
C899 C285 1.110 . S
C913 C351 1.109 . S
C917 C384 1.110 . S
C931 C450 1.109 1_554 S
C935 C417 1.110 . S
C949 C483 1.109 . S
C953 C516 1.110 1_556 S
C967 C469 1.821 . S
C971 C7 1.821 . S
C985 C84 1.856 . S
C989 C18 1.856 . S
C1003 C381 1.860 . S
C1007 C51 1.860 . S
C1021 C238 1.827 . S
C1025 C40 1.827 . S
C1039 C73 1.822 . S
C1043 C403 1.822 . S
C1057 C315 1.853 . S
C1061 C117 1.853 . S
C1075 C106 1.829 . S
C1079 C172 1.829 . S
C1093 C337 1.830 . S
C1097 C139 1.830 . S
C1111 C150 1.861 . S
C1115 C216 1.861 . S
C1129 C183 1.862 . S
C1133 C513 1.862 . S
C1147 C205 1.829 . S
C1151 C271 1.829 . S
C1165 C249 1.861 . S
C1169 C447 1.861 . S
C1183 C348 1.856 . S
C1187 C282 1.856 . S
C1201 C502 1.826 . S
C1205 C304 1.826 . S
C1219 C370 1.824 . S
C1223 C436 1.824 . S
C1237 C414 1.853 . S
C1241 C480 1.853 . S
