# Generated by pormake.
# Topology whz, (6)-cn, num edge types: 1
# Building blocks:
#     Node 0, Type 0, BuildingBlock: CUKXOW_clean_sbu_0, # of connection points: 6
#     Node 1, Type 0, BuildingBlock: CUKXOW_clean_sbu_0, # of connection points: 6
#     Node 2, Type 0, BuildingBlock: CUKXOW_clean_sbu_0, # of connection points: 6
#     Node 3, Type 0, BuildingBlock: CUKXOW_clean_sbu_0, # of connection points: 6
#     Node 4, Type 0, BuildingBlock: CUKXOW_clean_sbu_0, # of connection points: 6
#     Node 5, Type 0, BuildingBlock: CUKXOW_clean_sbu_0, # of connection points: 6
#     Node 6, Type 0, BuildingBlock: CUKXOW_clean_sbu_0, # of connection points: 6
#     Node 7, Type 0, BuildingBlock: CUKXOW_clean_sbu_0, # of connection points: 6
#     Node 8, Type 0, BuildingBlock: CUKXOW_clean_sbu_0, # of connection points: 6
#     Node 9, Type 0, BuildingBlock: CUKXOW_clean_sbu_0, # of connection points: 6
#     Node 10, Type 0, BuildingBlock: CUKXOW_clean_sbu_0, # of connection points: 6
#     Node 11, Type 0, BuildingBlock: CUKXOW_clean_sbu_0, # of connection points: 6
#     Node 12, Type 0, BuildingBlock: CUKXOW_clean_sbu_0, # of connection points: 6
#     Node 13, Type 0, BuildingBlock: CUKXOW_clean_sbu_0, # of connection points: 6
#     Node 14, Type 0, BuildingBlock: CUKXOW_clean_sbu_0, # of connection points: 6
#     Node 15, Type 0, BuildingBlock: CUKXOW_clean_sbu_0, # of connection points: 6
#     Edge 16, Type (0, 0), BuildingBlock: XUDNAN_clean_linker_2, # of connection points: 2
#     Edge 17, Type (0, 0), BuildingBlock: XUDNAN_clean_linker_2, # of connection points: 2
#     Edge 18, Type (0, 0), BuildingBlock: XUDNAN_clean_linker_2, # of connection points: 2
#     Edge 19, Type (0, 0), BuildingBlock: XUDNAN_clean_linker_2, # of connection points: 2
#     Edge 20, Type (0, 0), BuildingBlock: XUDNAN_clean_linker_2, # of connection points: 2
#     Edge 21, Type (0, 0), BuildingBlock: XUDNAN_clean_linker_2, # of connection points: 2
#     Edge 22, Type (0, 0), BuildingBlock: XUDNAN_clean_linker_2, # of connection points: 2
#     Edge 23, Type (0, 0), BuildingBlock: XUDNAN_clean_linker_2, # of connection points: 2
#     Edge 24, Type (0, 0), BuildingBlock: XUDNAN_clean_linker_2, # of connection points: 2
#     Edge 25, Type (0, 0), BuildingBlock: XUDNAN_clean_linker_2, # of connection points: 2
#     Edge 26, Type (0, 0), BuildingBlock: XUDNAN_clean_linker_2, # of connection points: 2
#     Edge 27, Type (0, 0), BuildingBlock: XUDNAN_clean_linker_2, # of connection points: 2
#     Edge 28, Type (0, 0), BuildingBlock: XUDNAN_clean_linker_2, # of connection points: 2
#     Edge 29, Type (0, 0), BuildingBlock: XUDNAN_clean_linker_2, # of connection points: 2
#     Edge 30, Type (0, 0), BuildingBlock: XUDNAN_clean_linker_2, # of connection points: 2
#     Edge 31, Type (0, 0), BuildingBlock: XUDNAN_clean_linker_2, # of connection points: 2
#     Edge 32, Type (0, 0), BuildingBlock: XUDNAN_clean_linker_2, # of connection points: 2
#     Edge 33, Type (0, 0), BuildingBlock: XUDNAN_clean_linker_2, # of connection points: 2
#     Edge 34, Type (0, 0), BuildingBlock: XUDNAN_clean_linker_2, # of connection points: 2
#     Edge 35, Type (0, 0), BuildingBlock: XUDNAN_clean_linker_2, # of connection points: 2
#     Edge 36, Type (0, 0), BuildingBlock: XUDNAN_clean_linker_2, # of connection points: 2
#     Edge 37, Type (0, 0), BuildingBlock: XUDNAN_clean_linker_2, # of connection points: 2
#     Edge 38, Type (0, 0), BuildingBlock: XUDNAN_clean_linker_2, # of connection points: 2
#     Edge 39, Type (0, 0), BuildingBlock: XUDNAN_clean_linker_2, # of connection points: 2
#     Edge 40, Type (0, 0), BuildingBlock: XUDNAN_clean_linker_2, # of connection points: 2
#     Edge 41, Type (0, 0), BuildingBlock: XUDNAN_clean_linker_2, # of connection points: 2
#     Edge 42, Type (0, 0), BuildingBlock: XUDNAN_clean_linker_2, # of connection points: 2
#     Edge 43, Type (0, 0), BuildingBlock: XUDNAN_clean_linker_2, # of connection points: 2
#     Edge 44, Type (0, 0), BuildingBlock: XUDNAN_clean_linker_2, # of connection points: 2
#     Edge 45, Type (0, 0), BuildingBlock: XUDNAN_clean_linker_2, # of connection points: 2
#     Edge 46, Type (0, 0), BuildingBlock: XUDNAN_clean_linker_2, # of connection points: 2
#     Edge 47, Type (0, 0), BuildingBlock: XUDNAN_clean_linker_2, # of connection points: 2
#     Edge 48, Type (0, 0), BuildingBlock: XUDNAN_clean_linker_2, # of connection points: 2
#     Edge 49, Type (0, 0), BuildingBlock: XUDNAN_clean_linker_2, # of connection points: 2
#     Edge 50, Type (0, 0), BuildingBlock: XUDNAN_clean_linker_2, # of connection points: 2
#     Edge 51, Type (0, 0), BuildingBlock: XUDNAN_clean_linker_2, # of connection points: 2
#     Edge 52, Type (0, 0), BuildingBlock: XUDNAN_clean_linker_2, # of connection points: 2
#     Edge 53, Type (0, 0), BuildingBlock: XUDNAN_clean_linker_2, # of connection points: 2
#     Edge 54, Type (0, 0), BuildingBlock: XUDNAN_clean_linker_2, # of connection points: 2
#     Edge 55, Type (0, 0), BuildingBlock: XUDNAN_clean_linker_2, # of connection points: 2
#     Edge 56, Type (0, 0), BuildingBlock: XUDNAN_clean_linker_2, # of connection points: 2
#     Edge 57, Type (0, 0), BuildingBlock: XUDNAN_clean_linker_2, # of connection points: 2
#     Edge 58, Type (0, 0), BuildingBlock: XUDNAN_clean_linker_2, # of connection points: 2
#     Edge 59, Type (0, 0), BuildingBlock: XUDNAN_clean_linker_2, # of connection points: 2
#     Edge 60, Type (0, 0), BuildingBlock: XUDNAN_clean_linker_2, # of connection points: 2
#     Edge 61, Type (0, 0), BuildingBlock: XUDNAN_clean_linker_2, # of connection points: 2
#     Edge 62, Type (0, 0), BuildingBlock: XUDNAN_clean_linker_2, # of connection points: 2
#     Edge 63, Type (0, 0), BuildingBlock: XUDNAN_clean_linker_2, # of connection points: 2
# Relax obj value: 0.230
# Max RMSD: 0.249
# Mean RMSD: 0.249
data_MOF--net-whz--node1-CUKXOW_clean_sbu_0--edge1-XUDNAN_clean_linker_2
_symmetry_space_group_name_H-M    P1
_symmetry_Int_Tables_number       1
_symmetry_cell_setting            triclinic
loop_
_symmetry_equiv_pos_as_xyz
'x, y, z'
_cell_length_a     37.342521
_cell_length_b     37.279133
_cell_length_c     50.06847
_cell_angle_alpha  90.08077
_cell_angle_beta   90.085253
_cell_angle_gamma 89.983956
loop_
_atom_site_label
_atom_site_type_symbol
_atom_site_fract_x
_atom_site_fract_y
_atom_site_fract_z
_atom_type_partial_charge
Tb0 Tb 0.33788 0.15598 0.16854 0.0
C1 C 0.27516 0.20251 0.14399 0.0
Tb2 Tb 0.25986 0.12867 0.17418 0.0
O3 O 0.3389 0.14681 0.1256 0.0
O4 O 0.30431 0.11687 0.14922 0.0
O5 O 0.30891 0.20133 0.15223 0.0
C6 C 0.19133 0.1088 0.16986 0.0
O7 O 0.2523 0.17556 0.14781 0.0
C8 C 0.28405 0.16831 0.21391 0.0
C9 C 0.32095 0.08899 0.20672 0.0
O10 O 0.20299 0.13889 0.17936 0.0
O11 O 0.21851 0.08936 0.16223 0.0
O12 O 0.26039 0.14306 0.21659 0.0
O13 O 0.29118 0.17038 0.18948 0.0
O14 O 0.28719 0.08746 0.19803 0.0
O15 O 0.34455 0.11321 0.19818 0.0
C16 C 0.39691 0.19549 0.17804 0.0
O17 O 0.39626 0.16577 0.1642 0.0
O18 O 0.36492 0.20167 0.18687 0.0
C19 C 0.31192 0.12474 0.12517 0.0
Tb20 Tb 0.61435 0.5806 0.42034 0.0
C21 C 0.56752 0.51818 0.3984 0.0
Tb22 Tb 0.64327 0.50566 0.42436 0.0
O23 O 0.61905 0.57811 0.37645 0.0
O24 O 0.65527 0.55049 0.40012 0.0
O25 O 0.56632 0.55004 0.41019 0.0
C26 C 0.6625 0.43684 0.4196 0.0
O27 O 0.59769 0.49948 0.39729 0.0
C28 C 0.61096 0.52757 0.46793 0.0
C29 C 0.68312 0.56396 0.45691 0.0
O30 O 0.63285 0.44871 0.42954 0.0
O31 O 0.68173 0.46394 0.41167 0.0
O32 O 0.63703 0.50471 0.46732 0.0
O33 O 0.60188 0.53494 0.44426 0.0
O34 O 0.68754 0.53384 0.44312 0.0
O35 O 0.65513 0.58547 0.45255 0.0
C36 C 0.58806 0.64785 0.42558 0.0
O37 O 0.62129 0.6394 0.42113 0.0
O38 O 0.56976 0.6184 0.4273 0.0
C39 C 0.64532 0.55548 0.37635 0.0
Tb40 Tb 0.1771 0.868 0.66195 0.0
C41 C 0.23683 0.81701 0.6387 0.0
Tb42 Tb 0.25559 0.88969 0.66753 0.0
O43 O 0.17768 0.87779 0.61893 0.0
O44 O 0.21242 0.90579 0.64304 0.0
O45 O 0.20427 0.81966 0.64904 0.0
C46 C 0.31949 0.92187 0.67065 0.0
O47 O 0.26028 0.84403 0.63965 0.0
C48 C 0.23669 0.83529 0.69721 0.0
C49 C 0.19678 0.92732 0.70539 0.0
O50 O 0.30352 0.90458 0.68956 0.0
O51 O 0.29929 0.92149 0.6494 0.0
O52 O 0.26846 0.83973 0.68731 0.0
O53 O 0.21779 0.86235 0.69161 0.0
O54 O 0.23052 0.9273 0.69652 0.0
O55 O 0.17167 0.90643 0.69474 0.0
C56 C 0.11088 0.84095 0.66678 0.0
O57 O 0.11853 0.87457 0.66242 0.0
O58 O 0.1405 0.82286 0.66865 0.0
C59 C 0.20509 0.89901 0.61887 0.0
Tb60 Tb 0.90645 0.4322 0.91596 0.0
C61 C 0.94734 0.49575 0.88829 0.0
Tb62 Tb 0.87506 0.50864 0.91744 0.0
O63 O 0.899 0.42712 0.87263 0.0
O64 O 0.867 0.46197 0.89424 0.0
O65 O 0.95047 0.46536 0.90179 0.0
C66 C 0.83588 0.56846 0.91192 0.0
O67 O 0.91674 0.51381 0.88723 0.0
C68 C 0.92873 0.49701 0.94984 0.0
C69 C 0.84044 0.44779 0.95492 0.0
O70 O 0.86554 0.56574 0.92511 0.0
O71 O 0.82772 0.53723 0.9021 0.0
O72 O 0.9216 0.52788 0.93922 0.0
O73 O 0.90422 0.47522 0.94383 0.0
O74 O 0.84108 0.48248 0.94802 0.0
O75 O 0.86218 0.42337 0.94402 0.0
C76 C 0.9463 0.37367 0.92583 0.0
O77 O 0.91396 0.37332 0.91589 0.0
O78 O 0.95526 0.40669 0.93076 0.0
C79 C 0.87589 0.45294 0.87083 0.0
Tb80 Tb 0.75197 0.89302 0.88252 0.0
C81 C 0.69333 0.93813 0.85143 0.0
Tb82 Tb 0.67441 0.86913 0.88614 0.0
O83 O 0.7524 0.89008 0.8394 0.0
O84 O 0.71904 0.85635 0.86135 0.0
O85 O 0.72602 0.93889 0.8623 0.0
C86 C 0.60743 0.84323 0.88126 0.0
O87 O 0.66969 0.91259 0.857 0.0
C88 C 0.70289 0.8927 0.93159 0.0
C89 C 0.73403 0.81184 0.89928 0.0
O90 O 0.61571 0.87599 0.88782 0.0
O91 O 0.63673 0.8256 0.87695 0.0
O92 O 0.67732 0.86941 0.92981 0.0
O93 O 0.70871 0.90444 0.90831 0.0
O94 O 0.70028 0.81813 0.89261 0.0
O95 O 0.75873 0.83782 0.89895 0.0
C96 C 0.81738 0.91723 0.89508 0.0
O97 O 0.8094 0.89834 0.87415 0.0
O98 O 0.78857 0.92229 0.90909 0.0
C99 C 0.72733 0.86593 0.83794 0.0
Tb100 Tb 0.37384 0.5133 0.63579 0.0
C101 C 0.34083 0.45593 0.596 0.0
Tb102 Tb 0.40553 0.43547 0.63541 0.0
O103 O 0.39239 0.52246 0.59462 0.0
O104 O 0.41753 0.48609 0.61901 0.0
O105 O 0.33604 0.48659 0.60915 0.0
C106 C 0.44543 0.37663 0.62514 0.0
O107 O 0.36653 0.43247 0.60219 0.0
C108 C 0.37111 0.45421 0.67972 0.0
C109 C 0.4467 0.49802 0.66605 0.0
O110 O 0.41358 0.37644 0.6358 0.0
O111 O 0.45388 0.4096 0.61986 0.0
O112 O 0.3941 0.42814 0.67782 0.0
O113 O 0.36436 0.46437 0.65605 0.0
O114 O 0.44888 0.46624 0.65394 0.0
O115 O 0.4175 0.51855 0.66483 0.0
C116 C 0.34004 0.57543 0.64526 0.0
O117 O 0.37316 0.57216 0.63781 0.0
O118 O 0.32634 0.54359 0.64818 0.0
C119 C 0.41691 0.49775 0.59555 0.0
Tb120 Tb 0.76139 0.12256 0.37791 0.0
C121 C 0.82545 0.08882 0.34728 0.0
Tb122 Tb 0.83441 0.15342 0.38994 0.0
O123 O 0.76639 0.1369 0.33584 0.0
O124 O 0.79119 0.16745 0.36472 0.0
O125 O 0.79235 0.08279 0.35582 0.0
C126 C 0.89987 0.18403 0.38881 0.0
O127 O 0.84527 0.11578 0.35673 0.0
C128 C 0.80472 0.11874 0.43022 0.0
C129 C 0.76756 0.19622 0.40933 0.0
O130 O 0.89328 0.15017 0.39264 0.0
O131 O 0.86962 0.20053 0.38567 0.0
O132 O 0.82746 0.14475 0.43284 0.0
O133 O 0.80279 0.11013 0.40574 0.0
O134 O 0.80124 0.19888 0.4012 0.0
O135 O 0.74892 0.16612 0.40615 0.0
C136 C 0.69324 0.10082 0.37661 0.0
O137 O 0.70534 0.13116 0.36803 0.0
O138 O 0.71968 0.08223 0.38648 0.0
C139 C 0.78727 0.16413 0.33991 0.0
Tb140 Tb 0.14069 0.50679 0.13429 0.0
C141 C 0.17342 0.56396 0.09559 0.0
Tb142 Tb 0.11215 0.58393 0.13836 0.0
O143 O 0.1239 0.50177 0.09264 0.0
O144 O 0.0973 0.53619 0.11824 0.0
O145 O 0.17898 0.53327 0.1083 0.0
C146 C 0.08507 0.6507 0.13277 0.0
O147 O 0.14776 0.58687 0.10289 0.0
C148 C 0.14723 0.55961 0.18053 0.0
C149 C 0.06722 0.5214 0.16414 0.0
O150 O 0.11851 0.64271 0.13708 0.0
O151 O 0.06696 0.62102 0.13145 0.0
O152 O 0.12227 0.58368 0.18163 0.0
O153 O 0.1542 0.55337 0.15632 0.0
O154 O 0.06634 0.55424 0.15378 0.0
O155 O 0.09545 0.49976 0.16185 0.0
C156 C 0.1733 0.4437 0.14205 0.0
O157 O 0.14016 0.44785 0.13487 0.0
O158 O 0.18772 0.47507 0.14547 0.0
C159 C 0.09962 0.52664 0.09425 0.0
Tb160 Tb 0.82787 0.65901 0.66974 0.0
C161 C 0.7598 0.6986 0.64686 0.0
Tb162 Tb 0.75345 0.62568 0.67857 0.0
O163 O 0.82425 0.65031 0.62662 0.0
O164 O 0.79766 0.61566 0.65275 0.0
O165 O 0.79315 0.70208 0.65575 0.0
C166 C 0.68592 0.6019 0.67925 0.0
O167 O 0.74157 0.66818 0.64958 0.0
C168 C 0.77733 0.6684 0.71699 0.0
C169 C 0.81782 0.59011 0.70765 0.0
O170 O 0.69736 0.63183 0.68911 0.0
O171 O 0.71267 0.58492 0.66832 0.0
O172 O 0.75639 0.6412 0.72101 0.0
O173 O 0.78202 0.67049 0.69231 0.0
O174 O 0.78571 0.58429 0.69714 0.0
O175 O 0.83769 0.61875 0.70156 0.0
C176 C 0.88742 0.69918 0.67485 0.0
O177 O 0.88606 0.66778 0.66337 0.0
O178 O 0.85579 0.70693 0.68367 0.0
C179 C 0.80142 0.62418 0.62842 0.0
Tb180 Tb 0.11285 0.08122 0.91779 0.0
C181 C 0.06117 0.01581 0.90612 0.0
Tb182 Tb 0.13799 1.00443 0.93119 0.0
O183 O 0.1234 0.07494 0.87477 0.0
O184 O 0.15111 0.04399 0.90228 0.0
O185 O 0.06348 0.05015 0.91316 0.0
C186 C 0.15854 0.93579 0.93119 0.0
O187 O 0.08955 0.99433 0.90705 0.0
C188 C 0.10313 0.03728 0.97003 0.0
C189 C 0.17803 0.06817 0.95916 0.0
O190 O 0.1287 0.94814 0.9406 0.0
O191 O 0.1772 0.96222 0.92147 0.0
O192 O 0.12604 0.01147 0.97365 0.0
O193 O 0.09893 0.0406 0.94524 0.0
O194 O 0.18042 0.03387 0.95194 0.0
O195 O 0.15314 0.09026 0.94936 0.0
C196 C 0.0862 0.1485 0.91915 0.0
O197 O 0.11959 0.13968 0.92253 0.0
O198 O 0.06806 0.11949 0.91467 0.0
C199 C 0.14443 0.04753 0.87765 0.0
Tb200 Tb 0.68162 0.37167 0.16798 0.0
C201 C 0.73697 0.31568 0.14454 0.0
Tb202 Tb 0.76135 0.38918 0.16887 0.0
O203 O 0.67957 0.37729 0.1245 0.0
O204 O 0.71719 0.406 0.14566 0.0
O205 O 0.70568 0.32109 0.15632 0.0
C206 C 0.82544 0.42105 0.17036 0.0
O207 O 0.76177 0.34133 0.14303 0.0
C208 C 0.74245 0.33897 0.20214 0.0
C209 C 0.70706 0.43508 0.20559 0.0
O210 O 0.80929 0.41086 0.14853 0.0
O211 O 0.80565 0.41316 0.19066 0.0
O212 O 0.77383 0.3411 0.19122 0.0
O213 O 0.72431 0.36634 0.19606 0.0
O214 O 0.73931 0.43209 0.19439 0.0
O215 O 0.67977 0.41423 0.19838 0.0
C216 C 0.61598 0.34443 0.17584 0.0
O217 O 0.62292 0.37783 0.16996 0.0
O218 O 0.64593 0.327 0.17787 0.0
C219 C 0.70763 0.39737 0.12231 0.0
Tb220 Tb 0.41386 0.9355 0.41732 0.0
C221 C 0.45272 0.99916 0.38945 0.0
Tb222 Tb 0.37813 0.01004 0.41637 0.0
O223 O 0.4092 0.92964 0.37398 0.0
O224 O 0.3733 0.96216 0.39371 0.0
O225 O 0.45685 0.96991 0.40405 0.0
C226 C 0.33746 0.06877 0.40929 0.0
O227 O 0.42098 0.01497 0.38662 0.0
C228 C 0.43156 1.00571 0.44954 0.0
C229 C 0.34738 0.95012 0.45611 0.0
O230 O 0.37198 0.06748 0.40875 0.0
O231 O 0.32536 0.03651 0.41321 0.0
O232 O 0.41973 0.03553 0.43976 0.0
O233 O 0.41037 0.98051 0.4435 0.0
O234 O 0.34638 0.98443 0.4484 0.0
O235 O 0.37007 0.92629 0.44564 0.0
C236 C 0.45359 0.87688 0.42799 0.0
O237 O 0.421 0.87655 0.41856 0.0
O238 O 0.46299 0.91003 0.43193 0.0
C239 C 0.38396 0.95308 0.37067 0.0
Tb240 Tb 0.26053 0.38995 0.3819 0.0
C241 C 0.20302 0.43487 0.3504 0.0
Tb242 Tb 0.18249 0.36587 0.38512 0.0
O243 O 0.26037 0.3851 0.33896 0.0
O244 O 0.22815 0.35158 0.36195 0.0
O245 O 0.2344 0.43576 0.36308 0.0
C246 C 0.12047 0.33057 0.3768 0.0
O247 O 0.17844 0.40972 0.35541 0.0
C248 C 0.2106 0.39461 0.42902 0.0
C249 C 0.24201 0.31353 0.40655 0.0
O250 O 0.12378 0.35972 0.3911 0.0
O251 O 0.15146 0.32296 0.3667 0.0
O252 O 0.18553 0.37052 0.42924 0.0
O253 O 0.21592 0.40375 0.40523 0.0
O254 O 0.20898 0.31707 0.3974 0.0
O255 O 0.26581 0.34009 0.40545 0.0
C256 C 0.32893 0.40982 0.38685 0.0
O257 O 0.31732 0.38135 0.37483 0.0
O258 O 0.30187 0.42716 0.39696 0.0
C259 C 0.23576 0.36063 0.33834 0.0
Tb260 Tb 0.86855 0.00954 0.13211 0.0
C261 C 0.837 0.945 0.09838 0.0
Tb262 Tb 0.90946 0.93852 0.1323 0.0
O263 O 0.87229 0.01499 0.08916 0.0
O264 O 0.91156 0.98725 0.10996 0.0
O265 O 0.82974 0.97639 0.10998 0.0
C266 C 0.9493 0.87894 0.12421 0.0
O267 O 0.86663 0.92648 0.10366 0.0
C268 C 0.88255 0.95847 0.17932 0.0
C269 C 0.94966 1.00719 0.15231 0.0
O270 O 0.91783 0.87976 0.13535 0.0
O271 O 0.95755 0.91139 0.1172 0.0
O272 O 0.90999 0.9377 0.17594 0.0
O273 O 0.86866 0.96338 0.1565 0.0
O274 O 0.95323 0.97496 0.14139 0.0
O275 O 0.91797 0.02354 0.15396 0.0
C276 C 0.83469 0.07116 0.14302 0.0
O277 O 0.86604 0.0682 0.13221 0.0
O278 O 0.82244 0.03922 0.1482 0.0
C279 C 0.90095 0.99559 0.0868 0.0
Tb280 Tb 0.25398 0.6223 0.87674 0.0
C281 C 0.31905 0.58918 0.84609 0.0
Tb282 Tb 0.32769 0.65626 0.8864 0.0
O283 O 0.25705 0.63644 0.83454 0.0
O284 O 0.28209 0.66763 0.86302 0.0
O285 O 0.28588 0.58335 0.85468 0.0
C286 C 0.38593 0.69818 0.88126 0.0
O287 O 0.33939 0.61609 0.85509 0.0
C288 C 0.30091 0.62058 0.92723 0.0
C289 C 0.25971 0.69522 0.90918 0.0
O290 O 0.35392 0.70521 0.87282 0.0
O291 O 0.38571 0.66658 0.89245 0.0
O292 O 0.32365 0.64679 0.92951 0.0
O293 O 0.29775 0.61256 0.90276 0.0
O294 O 0.29305 0.69893 0.90059 0.0
O295 O 0.24128 0.66506 0.90561 0.0
C296 C 0.18656 0.59883 0.87602 0.0
O297 O 0.19769 0.62966 0.86766 0.0
O298 O 0.2136 0.58069 0.88551 0.0
C299 C 0.27768 0.66392 0.83832 0.0
Tb300 Tb 0.63701 1.00725 0.63516 0.0
C301 C 0.68019 0.06153 0.59979 0.0
Tb302 Tb 0.61126 0.08386 0.63378 0.0
O303 O 0.63213 1.00076 0.59221 0.0
O304 O 0.59867 0.03627 0.61212 0.0
O305 O 0.6824 0.03181 0.61445 0.0
C306 C 0.58463 0.15036 0.62528 0.0
O307 O 0.65365 0.08502 0.60305 0.0
C308 C 0.63617 0.06268 0.6812 0.0
C309 C 0.55998 0.02553 0.65632 0.0
O310 O 0.61818 0.14243 0.6291 0.0
O311 O 0.56642 0.1208 0.62572 0.0
O312 O 0.61295 0.08787 0.6773 0.0
O313 O 0.64811 0.05345 0.65853 0.0
O314 O 0.56136 0.05562 0.64228 0.0
O315 O 0.58893 1.00556 0.66017 0.0
C316 C 0.65392 0.9387 0.64418 0.0
O317 O 0.6748 0.96587 0.64928 0.0
O318 O 0.6238 0.95048 0.63492 0.0
C319 C 0.60851 0.0258 0.58934 0.0
H320 H 0.26152 0.1739 0.26582 0.0
H321 H 0.29991 0.2364 0.19851 0.0
H322 H 0.28274 0.29193 0.22145 0.0
H323 H 0.18643 0.22876 0.28258 0.0
H324 H 0.19224 0.22535 0.31823 0.0
H325 H 0.20708 0.18943 0.2968 0.0
H326 H 0.27134 0.19385 0.31627 0.0
H327 H 0.25628 0.22883 0.33837 0.0
H328 H 0.29381 0.23665 0.31655 0.0
H329 H 0.25913 0.34008 0.24972 0.0
H330 H 0.24437 0.38028 0.28721 0.0
H331 H 0.2237 0.28809 0.3377 0.0
C332 C 0.26688 0.19936 0.25622 0.0
C333 C 0.28173 0.20086 0.23034 0.0
C334 C 0.28856 0.23455 0.21833 0.0
C335 C 0.27846 0.26629 0.23103 0.0
C336 C 0.26221 0.26385 0.25591 0.0
C337 C 0.25754 0.23149 0.26886 0.0
C338 C 0.2416 0.23693 0.29638 0.0
C339 C 0.20464 0.21905 0.29861 0.0
C340 C 0.26729 0.22327 0.31817 0.0
C341 C 0.23842 0.27744 0.29683 0.0
C342 C 0.24961 0.29219 0.27293 0.0
C343 C 0.2504 0.32899 0.26858 0.0
C344 C 0.24176 0.35154 0.28987 0.0
C345 C 0.23302 0.33707 0.3151 0.0
C346 C 0.22973 0.29966 0.31838 0.0
H347 H 0.42411 0.52384 0.54444 0.0
H348 H 0.48355 0.47556 0.60977 0.0
H349 H 0.53974 0.48535 0.58565 0.0
H350 H 0.47839 0.48276 0.49377 0.0
H351 H 0.47807 0.52006 0.47105 0.0
H352 H 0.44049 0.51278 0.49299 0.0
H353 H 0.44623 0.57623 0.51277 0.0
H354 H 0.48262 0.58524 0.49014 0.0
H355 H 0.48882 0.59125 0.52558 0.0
H356 H 0.58949 0.50241 0.55659 0.0
H357 H 0.62986 0.51257 0.51854 0.0
H358 H 0.53965 0.54651 0.46998 0.0
C359 C 0.44901 0.51532 0.55356 0.0
C360 C 0.44949 0.49932 0.57911 0.0
C361 C 0.48243 0.48797 0.59031 0.0
C362 C 0.51464 0.49388 0.57696 0.0
C363 C 0.51349 0.51087 0.55232 0.0
C364 C 0.48162 0.52052 0.54028 0.0
C365 C 0.48814 0.53512 0.51246 0.0
C366 C 0.47013 0.51124 0.49134 0.0
C367 C 0.47571 0.57429 0.51012 0.0
C368 C 0.52859 0.53227 0.51095 0.0
C369 C 0.54254 0.51887 0.53448 0.0
C370 C 0.57896 0.51273 0.53797 0.0
C371 C 0.60164 0.51867 0.5163 0.0
C372 C 0.58769 0.53004 0.49142 0.0
C373 C 0.55092 0.53815 0.48892 0.0
H374 H 0.23342 0.76333 0.70223 0.0
H375 H 0.2372 0.86285 0.74683 0.0
H376 H 0.24899 0.82921 0.78839 0.0
H377 H 0.19126 0.70867 0.75717 0.0
H378 H 0.21679 0.66954 0.74793 0.0
H379 H 0.20371 0.70152 0.72279 0.0
H380 H 0.26994 0.7073 0.7089 0.0
H381 H 0.28383 0.67678 0.73473 0.0
H382 H 0.30287 0.72116 0.73323 0.0
H383 H 0.26931 0.78617 0.82297 0.0
H384 H 0.28468 0.73455 0.85145 0.0
H385 H 0.26584 0.66235 0.78478 0.0
C386 C 0.23511 0.77766 0.72104 0.0
C387 C 0.23319 0.81529 0.72189 0.0
C388 C 0.23701 0.83381 0.74634 0.0
C389 C 0.24431 0.815 0.76985 0.0
C390 C 0.24744 0.77785 0.76829 0.0
C391 C 0.2419 0.75921 0.74473 0.0
C392 C 0.24782 0.71939 0.74843 0.0
C393 C 0.2128 0.69855 0.74383 0.0
C394 C 0.27793 0.70537 0.73025 0.0
C395 C 0.25882 0.7188 0.77749 0.0
C396 C 0.25866 0.75283 0.78848 0.0
C397 C 0.26898 0.75929 0.81477 0.0
C398 C 0.27807 0.72988 0.83068 0.0
C399 C 0.27624 0.69463 0.8202 0.0
C400 C 0.26739 0.68912 0.79315 0.0
H401 H 1.00047 0.50388 0.95484 0.0
H402 H 0.90255 0.48808 0.99965 0.0
H403 H 0.93572 0.49764 0.04197 0.0
H404 H 0.05909 0.4571 1.00287 0.0
H405 H 0.09579 0.48734 0.99658 0.0
H406 H 0.06361 0.47802 0.97067 0.0
H407 H 0.05117 0.5474 0.96646 0.0
H408 H 0.08379 0.5551 0.9924 0.0
H409 H 0.03881 0.572 0.99595 0.0
H410 H 0.97778 0.51689 0.07811 0.0
H411 H 0.02924 0.52786 0.10802 0.0
H412 H 0.10113 0.52464 0.04008 0.0
C413 C 0.9864 0.5016 0.97368 0.0
C414 C 0.94936 0.49504 0.97443 0.0
C415 C 0.93121 0.49258 0.99909 0.0
C416 C 0.94968 0.49839 1.02305 0.0
C417 C 0.98616 0.50596 1.0217 0.0
C418 C 1.00459 0.50641 0.99778 0.0
C419 C 0.04398 0.51395 1.00201 0.0
C420 C 0.06699 0.48222 0.99248 0.0
C421 C 0.05511 0.54918 0.98839 0.0
C422 C 0.0448 0.51769 0.03204 0.0
C423 C 0.01098 0.51409 0.04289 0.0
C424 C 1.00455 0.51875 0.07003 0.0
C425 C 0.03382 0.52542 0.08675 0.0
C426 C 0.06892 0.5267 0.07617 0.0
C427 C 0.07444 0.52346 0.04849 0.0
H428 H 0.71509 0.79333 0.83806 0.0
H429 H 0.74109 0.88345 0.78683 0.0
H430 H 0.75796 0.84163 0.75081 0.0
H431 H 0.78652 0.73926 0.81969 0.0
H432 H 0.76254 0.6973 0.82012 0.0
H433 H 0.74803 0.73391 0.84094 0.0
H434 H 0.6847 0.73118 0.81979 0.0
H435 H 0.6989 0.6941 0.79925 0.0
H436 H 0.67999 0.73359 0.78398 0.0
H437 H 0.78178 0.79198 0.72426 0.0
H438 H 0.79632 0.73555 0.70179 0.0
H439 H 0.75283 0.67571 0.76872 0.0
C440 C 0.72299 0.80417 0.8189 0.0
C441 C 0.72685 0.84151 0.81502 0.0
C442 C 0.73792 0.85487 0.78997 0.0
C443 C 0.74784 0.83137 0.76955 0.0
C444 C 0.74614 0.79472 0.77458 0.0
C445 C 0.73298 0.781 0.79822 0.0
C446 C 0.73503 0.74034 0.79849 0.0
C447 C 0.75948 0.72693 0.82115 0.0
C448 C 0.69741 0.72383 0.80048 0.0
C449 C 0.75173 0.73354 0.77137 0.0
C450 C 0.75847 0.76546 0.7583 0.0
C451 C 0.77566 0.76672 0.73379 0.0
C452 C 0.7843 0.73439 0.72138 0.0
C453 C 0.77536 0.70116 0.73336 0.0
C454 C 0.75975 0.70073 0.75905 0.0
H455 H 0.74214 0.26705 0.20543 0.0
H456 H 0.73603 0.36442 0.25249 0.0
H457 H 0.74833 0.32952 0.29356 0.0
H458 H 0.70035 0.20734 0.25822 0.0
H459 H 0.72846 0.17026 0.24848 0.0
H460 H 0.71427 0.20259 0.22393 0.0
H461 H 0.78031 0.2128 0.21143 0.0
H462 H 0.79539 0.18212 0.23676 0.0
H463 H 0.81168 0.22765 0.23656 0.0
H464 H 0.77197 0.28632 0.32716 0.0
H465 H 0.79029 0.23461 0.35453 0.0
H466 H 0.77693 0.16425 0.28608 0.0
C467 C 0.74175 0.28055 0.22461 0.0
C468 C 0.73764 0.31798 0.22627 0.0
C469 C 0.73828 0.33548 0.25128 0.0
C470 C 0.74568 0.31598 0.27452 0.0
C471 C 0.75152 0.27918 0.27212 0.0
C472 C 0.74821 0.26137 0.248 0.0
C473 C 0.75642 0.22181 0.25082 0.0
C474 C 0.72287 0.19917 0.24504 0.0
C475 C 0.78785 0.21047 0.23284 0.0
C476 C 0.76653 0.2205 0.28004 0.0
C477 C 0.76379 0.25392 0.29187 0.0
C478 C 0.77339 0.25983 0.31837 0.0
C479 C 0.7842 0.23037 0.33363 0.0
C480 C 0.7847 0.19549 0.32238 0.0
C481 C 0.77666 0.19069 0.2951 0.0
H482 H 0.96934 0.97055 0.08125 0.0
H483 H 0.88867 0.03668 0.04285 0.0
H484 H 0.93401 0.05942 1.01142 0.0
H485 H 0.0407 0.03066 0.07756 0.0
H486 H 0.07427 0.99751 0.06964 0.0
H487 H 0.03504 0.9849 0.08835 0.0
H488 H 0.0199 0.93571 0.05351 0.0
H489 H 0.05959 0.94757 0.03517 0.0
H490 H 0.01663 0.94768 1.01871 0.0
H491 H 0.98915 0.07948 0.98727 0.0
H492 H 0.04737 0.08369 0.96406 0.0
H493 H 0.09118 1.00279 1.0171 0.0
C494 C 0.96111 0.98917 0.06584 0.0
C495 C 0.92578 1.00226 0.06466 0.0
C496 C 0.91579 0.02653 0.04419 0.0
C497 C 0.94136 0.03984 1.02639 0.0
C498 C 0.9765 0.02803 0.02909 0.0
C499 C 0.98613 1.0023 0.04762 0.0
C500 C 0.02545 0.99328 0.04571 0.0
C501 C 0.04502 1.00213 0.07188 0.0
C502 C 0.03069 0.95372 0.03779 0.0
C503 C 0.03655 0.01839 1.02353 0.0
C504 C 0.00801 0.0386 1.01448 0.0
C505 C 0.01165 0.06355 0.99397 0.0
C506 C 0.04485 0.06608 0.98113 0.0
C507 C 0.07342 0.04326 0.98863 0.0
C508 C 0.06974 0.02055 1.01096 0.0
H509 H 0.44823 0.96668 0.49441 0.0
H510 H 0.49042 0.0429 0.43725 0.0
H511 H 0.54278 0.05335 0.46598 0.0
H512 H 0.46798 0.01496 0.55006 0.0
H513 H 0.48153 0.97816 0.57114 0.0
H514 H 0.45075 0.97044 0.54409 0.0
H515 H 0.49304 0.9216 0.525 0.0
H516 H 0.52336 0.92906 0.5525 0.0
H517 H 0.5393 0.93238 0.51863 0.0
H518 H 0.58604 0.06189 0.50253 0.0
H519 H 0.61975 0.06548 0.54515 0.0
H520 H 0.54889 0.98638 0.57997 0.0
C521 C 0.46949 0.98409 0.48749 0.0
C522 C 0.46587 1.00356 0.46357 0.0
C523 C 0.49321 0.02738 0.45542 0.0
C524 C 0.52306 0.03348 0.47155 0.0
C525 C 0.52522 0.01538 0.4957 0.0
C526 C 0.49955 0.99075 0.50359 0.0
C527 C 0.50662 0.978 0.53182 0.0
C528 C 0.47477 0.98592 0.55033 0.0
C529 C 0.51616 0.93788 0.53199 0.0
C530 C 0.5388 1.00087 0.53894 0.0
C531 C 0.54952 0.02165 0.51759 0.0
C532 C 0.57812 0.04561 0.51939 0.0
C533 C 0.59675 0.04787 0.54361 0.0
C534 C 0.58605 0.02689 0.5656 0.0
C535 C 0.55682 1.00317 0.56335 0.0
H536 H 0.20319 0.03128 1.00354 0.0
H537 H 0.2022 0.1364 0.96647 0.0
H538 H 0.23373 0.16154 1.00561 0.0
H539 H 0.18621 0.06341 0.07054 0.0
H540 H 0.21462 0.03096 0.08675 0.0
H541 H 0.19349 0.02015 0.05537 0.0
H542 H 0.25527 1.00552 0.03464 0.0
H543 H 0.27654 0.01587 0.06605 0.0
H544 H 0.29047 0.03857 0.03605 0.0
H545 H 0.26564 0.17559 0.04787 0.0
H546 H 0.29715 0.17816 0.0909 0.0
H547 H 0.27539 0.06522 0.10393 0.0
C548 C 0.2103 0.05944 1.00347 0.0
C549 C 0.20074 0.08179 0.98158 0.0
C550 C 0.20952 0.11869 0.98273 0.0
C551 C 0.22732 0.13325 1.00497 0.0
C552 C 0.23578 0.11077 1.02633 0.0
C553 C 0.22761 0.07466 1.0259 0.0
C554 C 0.23902 0.05693 0.05206 0.0
C555 C 0.20639 0.04197 0.06706 0.0
C556 C 0.26699 0.02747 0.04689 0.0
C557 C 0.25541 0.08863 0.06702 0.0
C558 C 0.25307 0.11932 0.0516 0.0
C559 C 0.26732 0.15182 0.06019 0.0
C560 C 0.2851 0.153 0.08482 0.0
C561 C 0.28827 0.12213 0.10116 0.0
C562 C 0.27268 0.08949 0.09225 0.0
H563 H 0.61054 0.5337 0.33046 0.0
H564 H 0.7152 0.53757 0.36783 0.0
H565 H 0.74216 0.51109 0.32714 0.0
H566 H 0.62499 0.44655 0.29939 0.0
H567 H 0.59935 0.45706 0.26989 0.0
H568 H 0.58869 0.47834 0.30121 0.0
H569 H 0.59576 0.54062 0.27904 0.0
H570 H 0.60681 0.51952 0.24771 0.0
H571 H 0.63708 0.55166 0.26239 0.0
H572 H 0.75813 0.48716 0.28153 0.0
H573 H 0.76159 0.45782 0.23762 0.0
H574 H 0.64574 0.46225 0.23066 0.0
C575 C 0.63917 0.52913 0.32993 0.0
C576 C 0.66098 0.5383 0.35214 0.0
C577 C 0.69812 0.53103 0.35101 0.0
C578 C 0.71364 0.51613 0.32792 0.0
C579 C 0.69155 0.50771 0.30625 0.0
C580 C 0.65498 0.51312 0.30726 0.0
C581 C 0.63708 0.49907 0.28193 0.0
C582 C 0.61098 0.46843 0.2885 0.0
C583 C 0.61806 0.52954 0.26688 0.0
C584 C 0.66934 0.48539 0.26635 0.0
C585 C 0.7005 0.49133 0.28064 0.0
C586 C 0.73386 0.48212 0.2703 0.0
C587 C 0.73552 0.46564 0.24508 0.0
C588 C 0.70398 0.45765 0.23034 0.0
C589 C 0.6704 0.46798 0.24123 0.0
H590 H 0.24589 0.95663 0.59938 0.0
H591 H 0.21806 0.84545 0.58423 0.0
H592 H 0.25163 0.84691 0.54213 0.0
H593 H 0.2358 0.98566 0.53189 0.0
H594 H 0.27305 0.0164 0.53194 0.0
H595 H 0.24995 1.00656 0.56264 0.0
H596 H 0.30962 0.98692 0.58459 0.0
H597 H 0.33298 0.99713 0.55405 0.0
H598 H 0.33664 0.95309 0.56861 0.0
H599 H 0.28577 0.85971 0.50105 0.0
H600 H 0.31964 0.88349 0.46279 0.0
H601 H 0.32417 0.98794 0.50104 0.0
C602 C 0.24764 0.93249 0.58742 0.0
C603 C 0.22964 0.90071 0.5954 0.0
C604 C 0.23176 0.86997 0.57878 0.0
C605 C 0.25078 0.87052 0.55471 0.0
C606 C 0.26743 0.90222 0.54702 0.0
C607 C 0.26626 0.93273 0.56276 0.0
C608 C 0.28535 0.96359 0.54868 0.0
C609 C 0.25948 0.99491 0.54348 0.0
C610 C 0.31809 0.97591 0.56495 0.0
C611 C 0.29672 0.94567 0.52257 0.0
C612 C 0.28634 0.91012 0.52237 0.0
C613 C 0.29402 0.88753 0.50093 0.0
C614 C 0.31324 0.90133 0.4792 0.0
C615 C 0.32429 0.93765 0.47862 0.0
C616 C 0.31556 0.96021 0.50061 0.0
H617 H 0.83596 0.60479 0.75991 0.0
H618 H 0.824 0.51788 0.70306 0.0
H619 H 0.8365 0.47389 0.73884 0.0
H620 H 0.90653 0.56393 0.80136 0.0
H621 H 0.88801 0.58034 0.83227 0.0
H622 H 0.88129 0.60517 0.80181 0.0
H623 H 0.81273 0.60297 0.80944 0.0
H624 H 0.81936 0.57772 0.83971 0.0
H625 H 0.79099 0.56018 0.81362 0.0
H626 H 0.85081 0.43934 0.78037 0.0
H627 H 0.86441 0.416 0.82536 0.0
H628 H 0.86133 0.52418 0.85715 0.0
C629 C 0.83693 0.57651 0.75499 0.0
C630 C 0.83004 0.56465 0.72854 0.0
C631 C 0.82996 0.52745 0.72302 0.0
C632 C 0.83685 0.50231 0.74326 0.0
C633 C 0.84299 0.51469 0.76918 0.0
C634 C 0.84294 0.55089 0.77522 0.0
C635 C 0.84847 0.55668 0.8051 0.0
C636 C 0.88314 0.57778 0.81044 0.0
C637 C 0.81595 0.5755 0.8177 0.0
C638 C 0.85171 0.51812 0.81481 0.0
C639 C 0.84884 0.49447 0.79363 0.0
C640 C 0.85271 0.4576 0.79714 0.0
C641 C 0.86032 0.44457 0.82281 0.0
C642 C 0.86328 0.46805 0.84495 0.0
C643 C 0.85836 0.50537 0.84088 0.0
H644 H 0.80449 0.98367 0.05766 0.0
H645 H 0.81982 0.87559 0.08745 0.0
H646 H 0.78924 0.85138 0.04753 0.0
H647 H 0.71681 0.96964 1.026 0.0
H648 H 0.72702 0.99732 0.99752 0.0
H649 H 0.7479 1.00637 0.02929 0.0
H650 H 0.8099 1.00216 1.00686 0.0
H651 H 0.78972 0.99175 0.97504 0.0
H652 H 0.82238 0.96179 0.9894 0.0
H653 H 0.75744 0.8384 1.00465 0.0
H654 H 0.72525 0.83724 0.96166 0.0
H655 H 0.73272 0.95309 0.95656 0.0
C656 C 0.80052 0.95497 0.05607 0.0
C657 C 0.81387 0.93152 0.07612 0.0
C658 C 0.80939 0.89408 0.07268 0.0
C659 C 0.79218 0.88007 0.04996 0.0
C660 C 0.78 0.90372 0.03036 0.0
C661 C 0.78387 0.94039 0.03309 0.0
C662 C 0.76954 0.95955 1.00833 0.0
C663 C 0.73847 0.98471 1.01573 0.0
C664 C 0.79967 0.98003 0.99406 0.0
C665 C 0.75651 0.92795 0.99151 0.0
C666 C 0.76294 0.89606 1.00478 0.0
C667 C 0.75246 0.86319 0.99405 0.0
C668 C 0.73422 0.8628 0.96953 0.0
C669 C 0.7268 0.89493 0.95549 0.0
C670 C 0.73865 0.928 0.9665 0.0
H671 H 0.28256 0.56738 0.80097 0.0
H672 H 0.38682 0.56337 0.83906 0.0
H673 H 0.41084 0.53008 0.8002 0.0
H674 H 0.2846 0.48067 0.76866 0.0
H675 H 0.26366 0.49588 0.73825 0.0
H676 H 0.25416 0.51821 0.76938 0.0
H677 H 0.27365 0.57875 0.74868 0.0
H678 H 0.28343 0.55654 0.71752 0.0
H679 H 0.31751 0.5827 0.73399 0.0
H680 H 0.42288 0.49506 0.75869 0.0
H681 H 0.42397 0.46306 0.71585 0.0
H682 H 0.31369 0.4939 0.70084 0.0
C683 C 0.31032 0.55898 0.80123 0.0
C684 C 0.33272 0.56725 0.82337 0.0
C685 C 0.36914 0.55692 0.82257 0.0
C686 C 0.38299 0.53809 0.80052 0.0
C687 C 0.36034 0.53052 0.77901 0.0
C688 C 0.32488 0.54096 0.77895 0.0
C689 C 0.30689 0.53058 0.75264 0.0
C690 C 0.27546 0.5048 0.75753 0.0
C691 C 0.29464 0.56414 0.73731 0.0
C692 C 0.33756 0.51182 0.73821 0.0
C693 C 0.36801 0.51213 0.75401 0.0
C694 C 0.39935 0.49508 0.74605 0.0
C695 C 0.39964 0.47691 0.72155 0.0
C696 C 0.36913 0.47632 0.70462 0.0
C697 C 0.33768 0.49445 0.71301 0.0
H698 H 0.77452 0.1545 0.4723 0.0
H699 H 0.78921 0.04781 0.43974 0.0
H700 H 0.76152 0.02186 0.48046 0.0
H701 H 0.79052 0.13554 0.54075 0.0
H702 H 0.75549 0.16413 0.55341 0.0
H703 H 0.7765 0.17432 0.52196 0.0
H704 H 0.71477 0.17392 0.49834 0.0
H705 H 0.6935 0.16435 0.52982 0.0
H706 H 0.68615 0.13524 0.50156 0.0
H707 H 0.7373 1.00774 0.52698 0.0
H708 H 0.70802 1.00604 0.57104 0.0
H709 H 0.70205 0.12226 0.57159 0.0
C710 C 0.77162 0.12565 0.4737 0.0
C711 C 0.78432 0.10305 0.45295 0.0
C712 C 0.77964 0.06555 0.45532 0.0
C713 C 0.76415 0.05064 0.47849 0.0
C714 C 0.75256 0.07363 0.49884 0.0
C715 C 0.75513 0.11043 0.49629 0.0
C716 C 0.73885 0.12928 0.52042 0.0
C717 C 0.76703 0.15217 0.53499 0.0
C718 C 0.70639 0.15204 0.51203 0.0
C719 C 0.72746 0.09738 0.53733 0.0
C720 C 0.73622 0.06555 0.52467 0.0
C721 C 0.72996 0.03253 0.53683 0.0
C722 C 0.71359 0.03188 0.56212 0.0
C723 C 0.70277 0.06399 0.5751 0.0
C724 C 0.71001 0.09721 0.56238 0.0
H725 H 0.14184 0.46124 0.32411 0.0
H726 H 0.2579 0.45752 0.31938 0.0
H727 H 0.25578 0.48639 0.27545 0.0
H728 H 0.12298 0.44649 0.25465 0.0
H729 H 0.08695 0.47855 0.25253 0.0
H730 H 0.09662 0.45676 0.28382 0.0
H731 H 0.10393 0.51854 0.30687 0.0
H732 H 0.09385 0.54048 0.27571 0.0
H733 H 0.13482 0.55079 0.29319 0.0
H734 H 0.24155 0.51036 0.22981 0.0
H735 H 0.21632 0.53897 0.18926 0.0
H736 H 0.11054 0.53563 0.22465 0.0
C737 C 0.16676 0.46698 0.31397 0.0
C738 C 0.20005 0.45703 0.32554 0.0
C739 C 0.23201 0.46508 0.3114 0.0
C740 C 0.23116 0.48126 0.28616 0.0
C741 C 0.19815 0.49029 0.27518 0.0
C742 C 0.16652 0.48443 0.28887 0.0
C743 C 0.13491 0.49871 0.2728 0.0
C744 C 0.10882 0.46831 0.26552 0.0
C745 C 0.11575 0.52893 0.28805 0.0
C746 C 0.15379 0.51304 0.24803 0.0
C747 C 0.19021 0.50707 0.24961 0.0
C748 C 0.21314 0.51583 0.22856 0.0
C749 C 0.19862 0.5319 0.20555 0.0
C750 C 0.16172 0.54002 0.20402 0.0
C751 C 0.13903 0.53028 0.22553 0.0
H752 H 0.77398 0.65988 0.58519 0.0
H753 H 0.78515 0.55368 0.61926 0.0
H754 H 0.75825 0.52733 0.57835 0.0
H755 H 0.68608 0.64173 0.55454 0.0
H756 H 0.69475 0.66976 0.52597 0.0
H757 H 0.71541 0.67991 0.55764 0.0
H758 H 0.77775 0.67828 0.53513 0.0
H759 H 0.75734 0.66761 0.50348 0.0
H760 H 0.79142 0.63867 0.51713 0.0
H761 H 0.73587 0.51252 0.53208 0.0
H762 H 0.70853 0.50966 0.48749 0.0
H763 H 0.70373 0.62595 0.48473 0.0
C764 C 0.77053 0.63107 0.58401 0.0
C765 C 0.78202 0.60863 0.60522 0.0
C766 C 0.77658 0.57122 0.60325 0.0
C767 C 0.76152 0.55609 0.58002 0.0
C768 C 0.75108 0.57885 0.55924 0.0
C769 C 0.75436 0.61563 0.56132 0.0
C770 C 0.73912 0.63411 0.53666 0.0
C771 C 0.70692 0.65778 0.54415 0.0
C772 C 0.76815 0.65596 0.52225 0.0
C773 C 0.72752 0.60192 0.52003 0.0
C774 C 0.73536 0.57037 0.53335 0.0
C775 C 0.72916 0.53706 0.52169 0.0
C776 C 0.71386 0.53579 0.4961 0.0
C777 C 0.70393 0.56757 0.48234 0.0
C778 C 0.71095 0.60117 0.49461 0.0
H779 H 0.16696 0.06713 0.82741 0.0
H780 H 0.14592 0.97428 0.87682 0.0
H781 H 0.15809 0.93451 0.83839 0.0
H782 H 0.12858 0.03484 0.76724 0.0
H783 H 0.16229 0.05291 0.74532 0.0
H784 H 0.15326 0.07438 0.77685 0.0
H785 H 0.21999 0.06852 0.79015 0.0
H786 H 0.22933 0.04732 0.75853 0.0
H787 H 0.24118 0.02508 0.78924 0.0
H788 H 0.16499 0.90546 0.79351 0.0
H789 H 0.1757 0.88749 0.74687 0.0
H790 H 0.20005 0.99766 0.72605 0.0
C791 C 0.16555 0.03836 0.83017 0.0
C792 C 0.15596 0.02371 0.85533 0.0
C793 C 0.1541 0.98604 0.8581 0.0
C794 C 0.16059 0.96327 0.83621 0.0
C795 C 0.16963 0.97851 0.81165 0.0
C796 C 0.17301 0.01514 0.8086 0.0
C797 C 0.18378 0.02434 0.78001 0.0
C798 C 0.15527 0.04802 0.76657 0.0
C799 C 0.22077 0.04238 0.77946 0.0
C800 C 0.18507 0.9872 0.7673 0.0
C801 C 0.17625 0.96133 0.78599 0.0
C802 C 0.17275 0.92539 0.77893 0.0
C803 C 0.17885 0.91545 0.75231 0.0
C804 C 0.18941 0.94094 0.73288 0.0
C805 C 0.19267 0.97744 0.74053 0.0
H806 H 0.7502 0.45318 0.10209 0.0
H807 H 0.71245 0.34547 0.08513 0.0
H808 H 0.74183 0.34718 0.04124 0.0
H809 H 0.73625 0.48713 0.03582 0.0
H810 H 0.77569 0.51498 0.03512 0.0
H811 H 0.75429 0.50505 0.06648 0.0
H812 H 0.81389 0.47978 0.08506 0.0
H813 H 0.83558 0.48996 0.05383 0.0
H814 H 0.83693 0.44496 0.06691 0.0
H815 H 0.77408 0.35981 0.99894 0.0
H816 H 0.80763 0.38315 0.96026 0.0
H817 H 0.82266 0.48447 1.00149 0.0
C818 C 0.74873 0.42984 0.08925 0.0
C819 C 0.72913 0.39902 0.09721 0.0
C820 C 0.72724 0.36932 0.07958 0.0
C821 C 0.74389 0.37 0.05452 0.0
C822 C 0.76222 0.40083 0.04692 0.0
C823 C 0.76487 0.4303 0.06364 0.0
C824 C 0.78517 0.46045 0.04968 0.0
C825 C 0.76143 0.49388 0.0466 0.0
C826 C 0.81996 0.46931 0.06477 0.0
C827 C 0.79307 0.44332 1.02259 0.0
C828 C 0.77982 0.40876 1.0217 0.0
C829 C 0.78443 0.38692 0.99933 0.0
C830 C 0.80346 0.40045 0.97738 0.0
C831 C 0.8173 0.4358 0.97753 0.0
C832 C 0.81169 0.45762 1.00047 0.0
H833 H 0.28793 0.0718 0.25468 0.0
H834 H 0.38307 0.0514 0.20751 0.0
H835 H 0.4079 0.01458 0.24407 0.0
H836 H 0.33495 0.08175 0.31721 0.0
H837 H 0.30098 0.06072 0.33736 0.0
H838 H 0.2887 0.08333 0.30689 0.0
H839 H 0.2581 0.02552 0.28953 0.0
H840 H 0.27002 1.00282 0.32004 0.0
H841 H 0.28325 0.98427 0.28829 0.0
H842 H 0.42305 0.98076 0.28502 0.0
H843 H 0.4292 0.95241 0.32892 0.0
H844 H 0.32662 0.99658 0.35313 0.0
C845 C 0.31361 0.05883 0.25192 0.0
C846 C 0.33328 0.06376 0.22791 0.0
C847 C 0.36736 0.04754 0.22545 0.0
C848 C 0.3817 0.02666 0.24618 0.0
C849 C 0.36202 0.02267 0.26966 0.0
C850 C 0.32881 0.03838 0.27285 0.0
C851 C 0.31447 0.03111 0.30092 0.0
C852 C 0.30948 0.06633 0.31651 0.0
C853 C 0.27937 0.00965 0.29961 0.0
C854 C 0.34472 0.00865 0.31282 0.0
C855 C 0.37164 1.00413 0.29417 0.0
C856 C 0.40217 0.98414 0.29977 0.0
C857 C 0.40533 0.96804 0.3249 0.0
C858 C 0.37844 0.97206 0.34465 0.0
C859 C 0.34773 0.99305 0.33856 0.0
H860 H 0.30766 0.39502 0.57388 0.0
H861 H 0.32911 0.50778 0.55971 0.0
H862 H 0.29926 0.50375 0.51598 0.0
H863 H 0.31772 0.36409 0.50568 0.0
H864 H 0.28069 0.33313 0.50677 0.0
H865 H 0.30486 0.34387 0.53691 0.0
H866 H 0.24574 0.36342 0.5596 0.0
H867 H 0.22139 0.35264 0.52954 0.0
H868 H 0.21806 0.39692 0.54384 0.0
H869 H 0.27091 0.48741 0.47255 0.0
H870 H 0.23841 0.46138 0.43413 0.0
H871 H 0.22791 0.36077 0.47673 0.0
C872 C 0.3059 0.41878 0.56154 0.0
C873 C 0.32077 0.45181 0.57034 0.0
C874 C 0.31771 0.48232 0.55363 0.0
C875 C 0.30095 0.48027 0.5286 0.0
C876 C 0.28651 0.4476 0.52048 0.0
C877 C 0.28811 0.41749 0.53655 0.0
C878 C 0.26866 0.38626 0.52315 0.0
C879 C 0.29453 0.35499 0.51781 0.0
C880 C 0.23656 0.3741 0.54004 0.0
C881 C 0.25636 0.40356 0.4971 0.0
C882 C 0.2676 0.43882 0.49591 0.0
C883 C 0.26143 0.46001 0.47343 0.0
C884 C 0.24299 0.445 0.45166 0.0
C885 C 0.23005 0.40936 0.45259 0.0
C886 C 0.23683 0.38837 0.4757 0.0
H887 H 0.82092 0.98671 0.20401 0.0
H888 H 0.93666 0.98117 0.21062 0.0
H889 H 0.93422 0.01331 0.25341 0.0
H890 H 0.81096 0.07614 0.23589 0.0
H891 H 0.7706 0.06411 0.25343 0.0
H892 H 0.78111 0.04301 0.22197 0.0
H893 H 0.77629 0.98065 0.24437 0.0
H894 H 0.76618 1.00157 0.27594 0.0
H895 H 0.80333 0.97088 0.27333 0.0
H896 H 0.92036 0.04466 0.29603 0.0
H897 H 0.89534 0.07406 0.33607 0.0
H898 H 0.78798 0.05779 0.30509 0.0
C899 C 0.84567 0.99289 0.2143 0.0
C900 C 0.87907 0.98149 0.2037 0.0
C901 C 0.91078 0.98952 0.21814 0.0
C902 C 0.90972 1.00784 0.24258 0.0
C903 C 0.87661 0.01791 0.25287 0.0
C904 C 0.84507 0.01091 0.23928 0.0
C905 C 0.81315 0.02377 0.25574 0.0
C906 C 0.79275 0.05352 0.24087 0.0
C907 C 0.78827 0.99234 0.26275 0.0
C908 C 0.83178 0.0385 0.28064 0.0
C909 C 0.86845 0.0351 0.27828 0.0
C910 C 0.89165 0.04735 0.29817 0.0
C911 C 0.87718 0.06395 0.32094 0.0
C912 C 0.8397 0.06781 0.32411 0.0
C913 C 0.81673 0.05456 0.30364 0.0
H914 H 0.20624 0.62391 0.07213 0.0
H915 H 0.17993 0.51206 0.05839 0.0
H916 H 0.20641 0.51528 1.01353 0.0
H917 H 0.19298 0.65535 1.00362 0.0
H918 H 0.23115 0.68492 1.00397 0.0
H919 H 0.20776 0.6752 0.03459 0.0
H920 H 0.26699 0.65355 0.05619 0.0
H921 H 0.29054 0.66336 1.0257 0.0
H922 H 0.29282 0.61902 0.03991 0.0
H923 H 0.23421 0.53049 0.96922 0.0
H924 H 0.26841 0.55495 0.93094 0.0
H925 H 0.2831 0.65482 0.97403 0.0
C926 C 0.20602 0.60024 0.05959 0.0
C927 C 0.19085 0.56771 0.06889 0.0
C928 C 0.19148 0.53722 0.05191 0.0
C929 C 0.20631 0.5388 1.02622 0.0
C930 C 0.22124 0.57097 1.01764 0.0
C931 C 0.22182 0.60104 0.0339 0.0
C932 C 0.24185 0.63145 1.02019 0.0
C933 C 0.21695 0.66364 1.01531 0.0
C934 C 0.27502 0.64249 0.03647 0.0
C935 C 0.25244 0.61363 0.99394 0.0
C936 C 0.23955 0.57897 0.99268 0.0
C937 C 0.24478 0.55749 0.9701 0.0
C938 C 0.26417 0.57157 0.94841 0.0
C939 C 0.27886 0.60648 0.94964 0.0
C940 C 0.27266 0.62777 0.9727 0.0
H941 H 0.69246 0.01894 0.70111 0.0
H942 H 0.59027 0.06667 0.72228 0.0
H943 H 0.59569 0.04275 0.76766 0.0
H944 H 0.68175 0.93737 0.74169 0.0
H945 H 0.72802 0.9358 0.75192 0.0
H946 H 0.71602 0.95568 0.72037 0.0
H947 H 0.7484 0.01418 0.73443 0.0
H948 H 0.75989 0.99454 0.7662 0.0
H949 H 0.73563 0.03633 0.76501 0.0
H950 H 0.61035 0.01368 0.81074 0.0
H951 H 0.63372 0.97937 0.84917 0.0
H952 H 0.72827 0.95154 0.80353 0.0
C953 C 0.6712 0.02405 0.7153 0.0
C954 C 0.64088 0.04495 0.70789 0.0
C955 C 0.61385 0.05109 0.72724 0.0
C956 C 0.61663 0.03756 0.75325 0.0
C957 C 0.64686 0.01785 0.76016 0.0
C958 C 0.67374 0.01088 0.74188 0.0
C959 C 0.70341 0.98897 0.75522 0.0
C960 C 0.70754 0.95228 0.74148 0.0
C961 C 0.73894 0.00975 0.75521 0.0
C962 C 0.68881 0.98492 0.78361 0.0
C963 C 0.65603 1.0018 0.78579 0.0
C964 C 0.63623 1.00074 0.8094 0.0
C965 C 0.6498 0.98139 0.83124 0.0
C966 C 0.68327 0.96376 0.82978 0.0
C967 C 0.70321 0.96588 0.80562 0.0
H968 H 0.47003 0.18577 0.16889 0.0
H969 H 0.39092 0.26522 0.19196 0.0
H970 H 0.43783 0.31153 0.19384 0.0
H971 H 0.54062 0.22062 0.21276 0.0
H972 H 0.57619 0.21114 0.1895 0.0
H973 H 0.53635 0.18388 0.18952 0.0
H974 H 0.52693 0.19728 0.13926 0.0
H975 H 0.56668 0.22466 0.13913 0.0
H976 H 0.52459 0.2432 0.12814 0.0
H977 H 0.49243 0.35056 0.19054 0.0
H978 H 0.55258 0.37811 0.18667 0.0
H979 H 0.59803 0.27352 0.16966 0.0
C980 C 0.46274 0.21289 0.17443 0.0
C981 C 0.4267 0.22185 0.18019 0.0
C982 C 0.41828 0.25762 0.18752 0.0
C983 C 0.44476 0.28424 0.18857 0.0
C984 C 0.47992 0.27476 0.18269 0.0
C985 C 0.48917 0.23987 0.17617 0.0
C986 C 0.52931 0.23696 0.17154 0.0
C987 C 0.54663 0.21165 0.19206 0.0
C988 C 0.53734 0.22481 0.14281 0.0
C989 C 0.54089 0.27563 0.17612 0.0
C990 C 0.51186 0.29704 0.18224 0.0
C991 C 0.51546 0.33398 0.18611 0.0
C992 C 0.54967 0.34945 0.18383 0.0
C993 C 0.57994 0.32796 0.1782 0.0
C994 C 0.57539 0.29055 0.17439 0.0
H995 H 0.51759 0.67011 0.42212 0.0
H996 H 0.6257 0.70942 0.43414 0.0
H997 H 0.60245 0.77133 0.43805 0.0
H998 H 0.48868 0.74388 0.38093 0.0
H999 H 0.44378 0.74497 0.39408 0.0
H1000 H 0.46852 0.70348 0.39374 0.0
H1001 H 0.45877 0.6968 0.44466 0.0
H1002 H 0.43407 0.73833 0.44518 0.0
H1003 H 0.47234 0.73257 0.46673 0.0
H1004 H 0.56769 0.82892 0.441 0.0
H1005 H 0.52464 0.87902 0.43924 0.0
H1006 H 0.43858 0.80405 0.42262 0.0
C1007 C 0.53628 0.69178 0.42576 0.0
C1008 C 0.57352 0.68491 0.42805 0.0
C1009 C 0.59715 0.71401 0.4324 0.0
C1010 C 0.58414 0.74928 0.43472 0.0
C1011 C 0.54737 0.75522 0.43233 0.0
C1012 C 0.52375 0.72737 0.42768 0.0
C1013 C 0.48568 0.74149 0.42463 0.0
C1014 C 0.4708 0.73295 0.39668 0.0
C1015 C 0.46127 0.7264 0.44661 0.0
C1016 C 0.4916 0.7816 0.42825 0.0
C1017 C 0.52739 0.78875 0.433 0.0
C1018 C 0.53964 0.82361 0.43722 0.0
C1019 C 0.5149 0.85194 0.43624 0.0
C1020 C 0.4782 0.8456 0.43077 0.0
C1021 C 0.46643 0.8098 0.42686 0.0
H1022 H 0.95999 0.6865 0.66557 0.0
H1023 H 0.88356 0.77015 0.68519 0.0
H1024 H 0.93191 0.815 0.68488 0.0
H1025 H 0.03179 0.72226 0.7075 0.0
H1026 H 0.06695 0.70994 0.68462 0.0
H1027 H 0.02627 0.68402 0.68579 0.0
H1028 H 0.01706 0.69402 0.63507 0.0
H1029 H 0.05767 0.72004 0.63378 0.0
H1030 H 0.01615 0.7391 0.62209 0.0
H1031 H 0.98762 0.8517 0.68046 0.0
H1032 H 0.04856 0.87698 0.676 0.0
H1033 H 0.0908 0.77011 0.66251 0.0
C1034 C 0.95358 0.71425 0.66982 0.0
C1035 C 0.9179 0.72482 0.67529 0.0
C1036 C 0.91062 0.76136 0.68097 0.0
C1037 C 0.93793 0.78713 0.68078 0.0
C1038 C 0.97272 0.77605 0.67525 0.0
C1039 C 0.98084 0.74046 0.67022 0.0
C1040 C 0.02086 0.73591 0.66568 0.0
C1041 C 0.03744 0.71159 0.68718 0.0
C1042 C 0.02837 0.72141 0.63748 0.0
C1043 C 0.03369 0.77446 0.66866 0.0
C1044 C 1.00534 0.79717 0.67393 0.0
C1045 C 0.01011 0.83414 0.67659 0.0
C1046 C 0.04478 0.8483 0.67397 0.0
C1047 C 0.07438 0.82555 0.66913 0.0
C1048 C 0.06868 0.78812 0.66649 0.0
H1049 H 0.9341 0.30169 0.91434 0.0
H1050 H 0.01548 0.37592 0.94224 0.0
H1051 H 0.0596 0.32677 0.94349 0.0
H1052 H 0.96417 0.22542 0.95488 0.0
H1053 H 0.95441 0.19273 0.92933 0.0
H1054 H 0.92872 0.23358 0.93116 0.0
H1055 H 0.94466 0.24755 0.88195 0.0
H1056 H 0.97057 0.20687 0.88002 0.0
H1057 H 0.99103 0.24931 0.87205 0.0
H1058 H 0.096 0.27041 0.93989 0.0
H1059 H 0.12117 0.20951 0.93422 0.0
H1060 H 0.01672 0.17038 0.90986 0.0
C1061 C 0.96111 0.30743 0.92096 0.0
C1062 C 0.97129 0.34273 0.92824 0.0
C1063 C 1.00696 0.34916 0.93666 0.0
C1064 C 0.03231 0.32139 0.93738 0.0
C1065 C 0.02168 0.28704 0.92979 0.0
C1066 C 0.98688 0.27979 0.92199 0.0
C1067 C 0.98271 0.24032 0.91487 0.0
C1068 C 0.95591 0.22193 0.93368 0.0
C1069 C 0.97159 0.23576 0.88547 0.0
C1070 C 0.02062 0.22676 0.9196 0.0
C1071 C 0.04265 0.25425 0.92814 0.0
C1072 C 0.07894 0.24862 0.93337 0.0
C1073 C 0.09305 0.21395 0.93002 0.0
C1074 C 0.07098 0.18521 0.92163 0.0
C1075 C 0.03427 0.19183 0.91634 0.0
H1076 H 0.58871 0.77212 0.8838 0.0
H1077 H 0.54382 0.87902 0.87719 0.0
H1078 H 0.4828 0.85303 0.87581 0.0
H1079 H 0.52528 0.7261 0.8413 0.0
H1080 H 0.52319 0.68653 0.86188 0.0
H1081 H 0.56334 0.71331 0.86133 0.0
H1082 H 0.56034 0.72028 0.91273 0.0
H1083 H 0.52018 0.69353 0.91346 0.0
H1084 H 0.52022 0.73786 0.92789 0.0
H1085 H 0.42714 0.81551 0.87362 0.0
H1086 H 0.37965 0.76971 0.87449 0.0
H1087 H 0.4594 0.68653 0.88619 0.0
C1088 C 0.56598 0.79 0.8819 0.0
C1089 C 0.57091 0.82763 0.88032 0.0
C1090 C 0.54059 0.85019 0.87832 0.0
C1091 C 0.50589 0.83563 0.87748 0.0
C1092 C 0.50191 0.79845 0.87911 0.0
C1093 C 0.53107 0.77591 0.88161 0.0
C1094 C 0.51918 0.73701 0.8841 0.0
C1095 C 0.53361 0.71441 0.86076 0.0
C1096 C 0.53066 0.72125 0.91116 0.0
C1097 C 0.47875 0.74114 0.88243 0.0
C1098 C 0.46954 0.77684 0.87925 0.0
C1099 C 0.43405 0.78755 0.87633 0.0
C1100 C 0.40724 0.76125 0.87679 0.0
C1101 C 0.41575 0.72455 0.88056 0.0
C1102 C 0.45207 0.71439 0.88352 0.0
H1103 H 0.4325 0.30362 0.63257 0.0
H1104 H 0.51539 0.37976 0.61107 0.0
H1105 H 0.55928 0.33055 0.60808 0.0
H1106 H 0.48741 0.24599 0.67273 0.0
H1107 H 0.46693 0.20483 0.66155 0.0
H1108 H 0.44145 0.24587 0.66163 0.0
H1109 H 0.42743 0.23755 0.61135 0.0
H1110 H 0.4528 0.19642 0.61114 0.0
H1111 H 0.46376 0.23179 0.58805 0.0
H1112 H 0.5955 0.2737 0.60999 0.0
H1113 H 0.62034 0.21233 0.61369 0.0
H1114 H 0.5143 0.17144 0.63131 0.0
C1115 C 0.45982 0.3098 0.62704 0.0
C1116 C 0.47044 0.34568 0.62207 0.0
C1117 C 0.5065 0.3526 0.61491 0.0
C1118 C 0.53173 0.32477 0.6132 0.0
C1119 C 0.52062 0.2898 0.6184 0.0
C1120 C 0.48546 0.28207 0.62488 0.0
C1121 C 0.48077 0.24195 0.62931 0.0
C1122 C 0.46841 0.23422 0.65801 0.0
C1123 C 0.45464 0.22599 0.60873 0.0
C1124 C 0.51879 0.22856 0.62464 0.0
C1125 C 0.54136 0.25671 0.61853 0.0
C1126 C 0.57798 0.25139 0.61446 0.0
C1127 C 0.5919 0.21644 0.61664 0.0
C1128 C 0.5693 0.18705 0.62251 0.0
C1129 C 0.5322 0.19331 0.62643 0.0
H1130 H 0.048 0.34209 0.38883 0.0
H1131 H 0.12399 0.26048 0.36404 0.0
H1132 H 0.07655 0.21491 0.36543 0.0
H1133 H 0.9955 0.28703 0.4331 0.0
H1134 H 0.95284 0.3055 0.42331 0.0
H1135 H 0.99274 0.33247 0.42097 0.0
H1136 H 0.98 0.34381 0.37085 0.0
H1137 H 0.93995 0.31703 0.3731 0.0
H1138 H 0.97373 0.30613 0.34872 0.0
H1139 H 0.02253 0.17693 0.37202 0.0
H1140 H 0.9626 0.15006 0.378 0.0
H1141 H 0.91854 0.25544 0.39447 0.0
C1142 C 0.05446 0.31466 0.3836 0.0
C1143 C 0.08988 0.30492 0.37642 0.0
C1144 C 0.09718 0.26875 0.36953 0.0
C1145 C 0.07039 0.2425 0.37037 0.0
C1146 C 0.03595 0.2527 0.37767 0.0
C1147 C 0.02757 0.28795 0.38369 0.0
C1148 C 0.98777 0.29145 0.38981 0.0
C1149 C 0.98188 0.30491 0.41851 0.0
C1150 C 0.96927 0.31607 0.3694 0.0
C1151 C 0.97547 0.25269 0.38663 0.0
C1152 C 1.00394 0.23082 0.37996 0.0
C1153 C 0.99991 0.19383 0.37694 0.0
C1154 C 0.9658 0.17875 0.38047 0.0
C1155 C 0.93592 0.2006 0.3865 0.0
C1156 C 0.94089 0.23811 0.38962 0.0
H1157 H 0.01466 0.67307 0.13715 0.0
H1158 H 0.1221 0.71182 0.12169 0.0
H1159 H 0.09849 0.77336 0.11616 0.0
H1160 H 0.96741 0.73225 0.09151 0.0
H1161 H 0.93 0.73945 0.11359 0.0
H1162 H 0.95488 0.69807 0.11516 0.0
H1163 H 0.96667 0.7084 0.16555 0.0
H1164 H 0.94176 0.74975 0.16415 0.0
H1165 H 0.98717 0.74972 0.1764 0.0
H1166 H 0.06327 0.83053 0.11139 0.0
H1167 H 0.01995 0.8805 0.11169 0.0
H1168 H 0.93507 0.80666 0.13333 0.0
C1169 C 0.03312 0.69454 0.13246 0.0
C1170 C 0.07028 0.68759 0.12962 0.0
C1171 C 0.09362 0.71646 0.12388 0.0
C1172 C 0.0804 0.75151 0.12063 0.0
C1173 C 0.04372 0.75753 0.12354 0.0
C1174 C 0.0204 0.72996 0.12965 0.0
C1175 C 0.98241 0.7442 0.13294 0.0
C1176 C 0.95719 0.72749 0.11205 0.0
C1177 C 0.9687 0.73762 0.16146 0.0
C1178 C 0.98801 0.78402 0.1277 0.0
C1179 C 0.02357 0.79092 0.12198 0.0
C1180 C 0.03543 0.82543 0.11598 0.0
C1181 C 0.01053 0.85368 0.11613 0.0
C1182 C 0.9741 0.84763 0.12259 0.0
C1183 C 0.96274 0.81219 0.12837 0.0
H1184 H 0.20748 0.23159 0.14881 0.0
H1185 H 0.31464 0.25409 0.11989 0.0
H1186 H 0.29921 0.31796 0.11545 0.0
H1187 H 0.16067 0.29988 0.10572 0.0
H1188 H 0.12939 0.31102 0.13184 0.0
H1189 H 0.14739 0.26625 0.12958 0.0
H1190 H 0.16919 0.2712 0.17856 0.0
H1191 H 0.15219 0.31629 0.18083 0.0
H1192 H 0.19867 0.30736 0.18799 0.0
H1193 H 0.27642 0.37978 0.12143 0.0
H1194 H 0.24312 0.43607 0.12903 0.0
H1195 H 0.14876 0.37498 0.15078 0.0
C1196 C 0.22714 0.24973 0.14046 0.0
C1197 C 0.26225 0.23783 0.13459 0.0
C1198 C 0.28759 0.26259 0.12447 0.0
C1199 C 0.27914 0.29898 0.12198 0.0
C1200 C 0.24503 0.31024 0.12933 0.0
C1201 C 0.21903 0.28636 0.13766 0.0
C1202 C 0.18495 0.3061 0.14536 0.0
C1203 C 0.15375 0.29517 0.12703 0.0
C1204 C 0.17573 0.29986 0.17494 0.0
C1205 C 0.19621 0.3447 0.14049 0.0
C1206 C 0.23119 0.34634 0.13161 0.0
C1207 C 0.24874 0.37889 0.12777 0.0
C1208 C 0.22975 0.41069 0.1324 0.0
C1209 C 0.19343 0.40974 0.14028 0.0
C1210 C 0.17645 0.37632 0.14446 0.0
H1211 H 0.35756 0.47497 0.40242 0.0
H1212 H 0.38508 0.37135 0.36856 0.0
H1213 H 0.44778 0.39063 0.36384 0.0
H1214 H 0.41924 0.5273 0.36 0.0
H1215 H 0.43061 0.5583 0.38633 0.0
H1216 H 0.38706 0.53745 0.38573 0.0
H1217 H 0.39694 0.513 0.43353 0.0
H1218 H 0.43998 0.53454 0.43428 0.0
H1219 H 0.43644 0.4869 0.44062 0.0
H1220 H 0.50704 0.41981 0.36328 0.0
H1221 H 0.56158 0.45509 0.37123 0.0
H1222 H 0.49756 0.54015 0.40658 0.0
C1223 C 0.3769 0.45644 0.39409 0.0
C1224 C 0.36658 0.42165 0.38591 0.0
C1225 C 0.39246 0.39812 0.37497 0.0
C1226 C 0.4281 0.40889 0.37203 0.0
C1227 C 0.43744 0.44342 0.37994 0.0
C1228 C 0.41278 0.46688 0.39084 0.0
C1229 C 0.43053 0.50199 0.39863 0.0
C1230 C 0.41599 0.53309 0.38166 0.0
C1231 C 0.42573 0.50953 0.42857 0.0
C1232 C 0.46929 0.49381 0.39162 0.0
C1233 C 0.4723 0.46021 0.38016 0.0
C1234 C 0.50512 0.44619 0.3722 0.0
C1235 C 0.53599 0.46652 0.37682 0.0
C1236 C 0.534 0.50039 0.38963 0.0
C1237 C 0.50001 0.51452 0.39655 0.0
H1238 H 0.3055 0.78815 0.63855 0.0
H1239 H 0.19381 0.76173 0.62438 0.0
H1240 H 0.20858 0.69759 0.62517 0.0
H1241 H 0.34138 0.71158 0.5968 0.0
H1242 H 0.37889 0.70478 0.61892 0.0
H1243 H 0.36023 0.74903 0.61477 0.0
H1244 H 0.35146 0.75347 0.66591 0.0
H1245 H 0.36922 0.70892 0.67019 0.0
H1246 H 0.32542 0.7198 0.68282 0.0
H1247 H 0.23274 0.63706 0.63449 0.0
H1248 H 0.26786 0.58189 0.64183 0.0
H1249 H 0.36529 0.64505 0.64612 0.0
C1250 C 0.28445 0.7689 0.63457 0.0
C1251 C 0.24841 0.78013 0.63152 0.0
C1252 C 0.22156 0.75393 0.62688 0.0
C1253 C 0.22962 0.71732 0.62744 0.0
C1254 C 0.26487 0.70706 0.63204 0.0
C1255 C 0.29216 0.73189 0.63461 0.0
C1256 C 0.32776 0.71308 0.63937 0.0
C1257 C 0.35359 0.72003 0.61607 0.0
C1258 C 0.34443 0.72451 0.66617 0.0
C1259 C 0.3158 0.67407 0.64001 0.0
C1260 C 0.27931 0.67143 0.63598 0.0
C1261 C 0.26146 0.63864 0.63711 0.0
C1262 C 0.28158 0.60748 0.64154 0.0
C1263 C 0.31923 0.60918 0.64439 0.0
C1264 C 0.33651 0.64299 0.64386 0.0
H1265 H 0.01642 0.47214 0.89418 0.0
H1266 H 0.95303 0.55855 0.86017 0.0
H1267 H 0.00846 0.59195 0.85038 0.0
H1268 H 0.07745 0.5243 0.92729 0.0
H1269 H 0.11599 0.49654 0.92102 0.0
H1270 H 0.07202 0.47685 0.92151 0.0
H1271 H 0.08182 0.45149 0.87393 0.0
H1272 H 0.12599 0.47099 0.87336 0.0
H1273 H 0.09434 0.48144 0.84729 0.0
H1274 H 0.06902 0.61916 0.8498 0.0
H1275 H 0.13187 0.63737 0.85551 0.0
H1276 H 0.15684 0.53358 0.89003 0.0
C1277 C 0.01415 0.49761 0.88395 0.0
C1278 C 0.9803 0.51272 0.87792 0.0
C1279 C 0.97859 0.54637 0.86492 0.0
C1280 C 0.00995 0.56555 0.85928 0.0
C1281 C 0.04275 0.55052 0.8665 0.0
C1282 C 0.04517 0.51707 0.87815 0.0
C1283 C 0.08359 0.50811 0.88552 0.0
C1284 C 0.08747 0.50104 0.91564 0.0
C1285 C 0.09724 0.47611 0.86904 0.0
C1286 C 0.10213 0.54254 0.87745 0.0
C1287 C 0.07805 0.56635 0.86615 0.0
C1288 C 0.08821 0.60057 0.85821 0.0
C1289 C 0.12395 0.6107 0.86171 0.0
C1290 C 0.14915 0.58682 0.87319 0.0
C1291 C 0.13811 0.55225 0.88112 0.0
H1292 H 0.79983 0.78106 0.91351 0.0
H1293 H 0.69026 0.75461 0.89125 0.0
H1294 H 0.70509 0.69099 0.89141 0.0
H1295 H 0.8425 0.7118 0.8751 0.0
H1296 H 0.87579 0.70105 0.89995 0.0
H1297 H 0.85736 0.74567 0.89835 0.0
H1298 H 0.83827 0.74149 0.94796 0.0
H1299 H 0.85692 0.69697 0.94981 0.0
H1300 H 0.81077 0.7045 0.95872 0.0
H1301 H 0.73125 0.63031 0.89077 0.0
H1302 H 0.76688 0.57471 0.89508 0.0
H1303 H 0.85847 0.63744 0.92094 0.0
C1304 C 0.77895 0.76186 0.90894 0.0
C1305 C 0.74391 0.77335 0.90231 0.0
C1306 C 0.71738 0.74707 0.89648 0.0
C1307 C 0.72546 0.71055 0.89638 0.0
C1308 C 0.76014 0.70015 0.90252 0.0
C1309 C 0.78641 0.72477 0.90917 0.0
C1310 C 0.82128 0.70563 0.91565 0.0
C1311 C 0.85099 0.7167 0.89609 0.0
C1312 C 0.83247 0.71256 0.94477 0.0
C1313 C 0.81028 0.66674 0.91141 0.0
C1314 C 0.77497 0.66439 0.90346 0.0
C1315 C 0.75885 0.63165 0.89732 0.0
C1316 C 0.77924 0.60025 0.89975 0.0
C1317 C 0.81512 0.60183 0.90863 0.0
C1318 C 0.83086 0.63552 0.91443 0.0
H1319 H 0.65569 0.53858 0.66121 0.0
H1320 H 0.63194 0.63734 0.70363 0.0
H1321 H 0.56941 0.61805 0.7094 0.0
H1322 H 0.57311 0.53319 0.62528 0.0
H1323 H 0.57038 0.48501 0.62788 0.0
H1324 H 0.61334 0.50673 0.62841 0.0
H1325 H 0.62649 0.47439 0.67344 0.0
H1326 H 0.58263 0.45421 0.67296 0.0
H1327 H 0.59649 0.48081 0.70122 0.0
H1328 H 0.50885 0.59037 0.70839 0.0
H1329 H 0.45324 0.5573 0.69808 0.0
H1330 H 0.51562 0.47589 0.65697 0.0
C1331 C 0.63729 0.55594 0.67182 0.0
C1332 C 0.64861 0.5894 0.682 0.0
C1333 C 0.62382 0.61155 0.69567 0.0
C1334 C 0.58827 0.60078 0.6992 0.0
C1335 C 0.57785 0.56765 0.68905 0.0
C1336 C 0.6015 0.54554 0.67555 0.0
C1337 C 0.58273 0.51206 0.66556 0.0
C1338 C 0.58502 0.50915 0.63496 0.0
C1339 C 0.59801 0.47837 0.67911 0.0
C1340 C 0.54474 0.51949 0.67477 0.0
C1341 C 0.54266 0.55145 0.68863 0.0
C1342 C 0.51013 0.56508 0.69779 0.0
C1343 C 0.47868 0.54611 0.69187 0.0
C1344 C 0.48001 0.51394 0.67685 0.0
C1345 C 0.51366 0.50005 0.66891 0.0
H1346 H 0.78939 0.26568 0.40216 0.0
H1347 H 0.70182 0.20155 0.43326 0.0
H1348 H 0.66621 0.25669 0.43997 0.0
H1349 H 0.77656 0.3442 0.44574 0.0
H1350 H 0.78757 0.37535 0.4195 0.0
H1351 H 0.80731 0.33124 0.41972 0.0
H1352 H 0.78354 0.32045 0.37185 0.0
H1353 H 0.763 0.36414 0.37152 0.0
H1354 H 0.73628 0.32477 0.36515 0.0
H1355 H 0.63866 0.31769 0.44012 0.0
H1356 H 0.62172 0.38133 0.43631 0.0
H1357 H 0.72675 0.40627 0.40433 0.0
C1358 C 0.76307 0.26323 0.41102 0.0
C1359 C 0.74845 0.22926 0.41736 0.0
C1360 C 0.71361 0.22726 0.42836 0.0
C1361 C 0.69317 0.25842 0.43218 0.0
C1362 C 0.70796 0.29131 0.42486 0.0
C1363 C 0.74221 0.294 0.41473 0.0
C1364 C 0.75109 0.33239 0.40721 0.0
C1365 C 0.78249 0.34663 0.42405 0.0
C1366 C 0.75892 0.33561 0.37715 0.0
C1367 C 0.71632 0.35089 0.41449 0.0
C1368 C 0.69188 0.32661 0.42467 0.0
C1369 C 0.65764 0.33697 0.43238 0.0
C1370 C 0.64826 0.37317 0.43003 0.0
C1371 C 0.67295 0.39866 0.42003 0.0
C1372 C 0.70736 0.38732 0.41199 0.0
H1373 H 0.88554 0.41517 0.13845 0.0
H1374 H 0.84335 0.46827 0.20881 0.0
H1375 H 0.90167 0.49764 0.21635 0.0
H1376 H 0.97276 0.39725 0.16716 0.0
H1377 H 0.99682 0.40438 0.13643 0.0
H1378 H 0.95124 0.38854 0.13555 0.0
H1379 H 0.9331 0.44193 0.10526 0.0
H1380 H 0.97879 0.4573 0.10572 0.0
H1381 H 0.94318 0.48703 0.1159 0.0
H1382 H 0.96342 0.52346 0.21527 0.0
H1383 H 0.02582 0.54257 0.20598 0.0
H1384 H 0.03037 0.46849 0.13937 0.0
C1385 C 0.88863 0.43333 0.15519 0.0
C1386 C 0.85998 0.43987 0.1729 0.0
C1387 C 0.86504 0.46312 0.19497 0.0
C1388 C 0.89804 0.47986 0.19946 0.0
C1389 C 0.92603 0.47251 0.18199 0.0
C1390 C 0.92186 0.44965 0.16039 0.0
C1391 C 0.95677 0.4456 0.14526 0.0
C1392 C 0.97018 0.40662 0.14616 0.0
C1393 C 0.95271 0.45877 0.11632 0.0
C1394 C 0.98087 0.47021 0.16145 0.0
C1395 C 0.96252 0.48559 0.18248 0.0
C1396 C 0.97834 0.51111 0.19919 0.0
C1397 C 0.01371 0.52167 0.19393 0.0
C1398 C 0.03291 0.50607 0.17262 0.0
C1399 C 0.01649 0.47971 0.15643 0.0
H1400 H 0.78296 0.76819 0.65107 0.0
H1401 H 0.69145 0.70372 0.62708 0.0
H1402 H 0.65486 0.75866 0.62362 0.0
H1403 H 0.7371 0.82659 0.69227 0.0
H1404 H 0.76159 0.86656 0.68359 0.0
H1405 H 0.78282 0.82339 0.68087 0.0
H1406 H 0.79739 0.83405 0.63121 0.0
H1407 H 0.77759 0.87802 0.63365 0.0
H1408 H 0.76211 0.84694 0.60855 0.0
H1409 H 0.6268 0.81924 0.62724 0.0
H1410 H 0.61031 0.88282 0.63275 0.0
H1411 H 0.71991 0.90836 0.65453 0.0
C1412 C 0.75552 0.76558 0.64431 0.0
C1413 C 0.74011 0.73152 0.63926 0.0
C1414 C 0.7039 0.72944 0.63095 0.0
C1415 C 0.68286 0.7605 0.62904 0.0
C1416 C 0.69848 0.7934 0.63536 0.0
C1417 C 0.73413 0.79627 0.64237 0.0
C1418 C 0.74396 0.83471 0.64919 0.0
C1419 C 0.75712 0.83798 0.67821 0.0
C1420 C 0.77191 0.84929 0.62947 0.0
C1421 C 0.70805 0.85292 0.64546 0.0
C1422 C 0.68225 0.82853 0.63745 0.0
C1423 C 0.64684 0.83863 0.63323 0.0
C1424 C 0.63772 0.87477 0.63658 0.0
C1425 C 0.66386 0.90042 0.64409 0.0
C1426 C 0.6994 0.88926 0.6489 0.0
H1427 H 0.8747 0.92586 0.86141 0.0
H1428 H 0.84062 0.94059 0.94346 0.0
H1429 H 0.90041 0.9646 0.95497 0.0
H1430 H 0.96704 0.90086 0.87487 0.0
H1431 H 0.98495 0.92571 0.84707 0.0
H1432 H 0.94015 0.90788 0.84539 0.0
H1433 H 0.9154 0.97133 0.83527 0.0
H1434 H 0.96011 0.98934 0.83686 0.0
H1435 H 0.92543 1.00775 0.8578 0.0
H1436 H 0.96311 0.98615 0.95778 0.0
H1437 H 0.0243 0.00886 0.95127 0.0
H1438 H 0.01823 0.98458 0.86681 0.0
C1439 C 0.88006 0.93389 0.88182 0.0
C1440 C 0.85329 0.93117 0.9017 0.0
C1441 C 0.86087 0.94245 0.92806 0.0
C1442 C 0.89474 0.95598 0.93475 0.0
C1443 C 0.92056 0.95842 0.91474 0.0
C1444 C 0.91363 0.94807 0.88874 0.0
C1445 C 0.9457 0.95539 0.87085 0.0
C1446 C 0.96032 0.92037 0.85884 0.0
C1447 C 0.93608 0.98257 0.8489 0.0
C1448 C 0.97177 0.97137 0.8909 0.0
C1449 C 0.9566 0.97246 0.91611 0.0
C1450 C 0.97507 0.98578 0.9381 0.0
C1451 C 0.00969 0.99892 0.9342 0.0
C1452 C 0.02549 0.99923 0.90856 0.0
C1453 C 1.00657 0.98478 0.8866 0.0
H1454 H 0.86071 0.13986 0.14012 0.0
H1455 H 0.76265 0.07875 0.14922 0.0
H1456 H 0.72748 0.13485 0.14668 0.0
H1457 H 0.83231 0.21535 0.18107 0.0
H1458 H 0.85448 0.2484 0.16075 0.0
H1459 H 0.87206 0.20348 0.16277 0.0
H1460 H 0.86922 0.19806 0.11135 0.0
H1461 H 0.85128 0.24283 0.10904 0.0
H1462 H 0.82735 0.20574 0.09432 0.0
H1463 H 0.70296 0.19621 0.14016 0.0
H1464 H 0.68991 0.26067 0.13903 0.0
H1465 H 0.80388 0.28408 0.13765 0.0
C1466 C 0.83183 0.13843 0.14181 0.0
C1467 C 0.81425 0.10502 0.14474 0.0
C1468 C 0.77655 0.10408 0.14704 0.0
C1469 C 0.75639 0.13576 0.14541 0.0
C1470 C 0.77442 0.16816 0.14184 0.0
C1471 C 0.81131 0.16993 0.14071 0.0
C1472 C 0.82391 0.20854 0.138 0.0
C1473 C 0.84704 0.2196 0.16208 0.0
C1474 C 0.84414 0.2141 0.1116 0.0
C1475 C 0.78828 0.22819 0.13779 0.0
C1476 C 0.76019 0.20414 0.13947 0.0
C1477 C 0.72471 0.21534 0.13918 0.0
C1478 C 0.71764 0.25215 0.13838 0.0
C1479 C 0.74584 0.27768 0.13842 0.0
C1480 C 0.7817 0.26539 0.13736 0.0
H1481 H 0.52174 0.97711 0.39686 0.0
H1482 H 0.45835 0.06237 0.36132 0.0
H1483 H 0.51398 0.09606 0.35187 0.0
H1484 H 0.58263 0.03281 0.43026 0.0
H1485 H 0.62016 1.00324 0.42533 0.0
H1486 H 0.57547 0.98523 0.42647 0.0
H1487 H 0.58641 0.95592 0.37983 0.0
H1488 H 0.63073 0.97498 0.3788 0.0
H1489 H 0.59949 0.98385 0.35214 0.0
H1490 H 0.5757 0.12273 0.35041 0.0
H1491 H 0.63918 0.13974 0.35513 0.0
H1492 H 0.6621 0.0373 0.39247 0.0
C1493 C 0.5194 1.00247 0.38648 0.0
C1494 C 0.48557 0.01701 0.37967 0.0
C1495 C 0.48392 0.05056 0.36653 0.0
C1496 C 0.51537 0.0699 0.36116 0.0
C1497 C 0.54814 0.05524 0.36902 0.0
C1498 C 0.55036 0.02215 0.38121 0.0
C1499 C 0.58852 0.01328 0.38921 0.0
C1500 C 0.59185 1.00833 0.41962 0.0
C1501 C 0.60209 0.98004 0.37408 0.0
C1502 C 0.60748 0.04693 0.38008 0.0
C1503 C 0.5837 0.07068 0.36834 0.0
C1504 C 0.59457 0.1042 0.35929 0.0
C1505 C 0.63066 0.11364 0.36217 0.0
C1506 C 0.65547 0.08976 0.37413 0.0
C1507 C 0.64371 0.05596 0.38315 0.0
H1508 H 0.30832 0.2812 0.4019 0.0
H1509 H 0.19892 0.26215 0.42727 0.0
H1510 H 0.21146 0.19749 0.43085 0.0
H1511 H 0.31666 0.20457 0.36141 0.0
H1512 H 0.36252 0.19546 0.37016 0.0
H1513 H 0.34562 0.24065 0.37188 0.0
H1514 H 0.36551 0.24409 0.42168 0.0
H1515 H 0.38207 0.19875 0.4197 0.0
H1516 H 0.34968 0.2107 0.44484 0.0
H1517 H 0.23347 0.13423 0.42691 0.0
H1518 H 0.26646 0.07705 0.42129 0.0
H1519 H 0.3618 0.13651 0.3994 0.0
C1520 C 0.28745 0.26356 0.40912 0.0
C1521 C 0.25271 0.27679 0.4145 0.0
C1522 C 0.22578 0.25266 0.42315 0.0
C1523 C 0.23257 0.21581 0.42513 0.0
C1524 C 0.26653 0.20335 0.41855 0.0
C1525 C 0.29378 0.22647 0.4112 0.0
C1526 C 0.32755 0.20574 0.4044 0.0
C1527 C 0.33873 0.21202 0.37523 0.0
C1528 C 0.358 0.21539 0.42382 0.0
C1529 C 0.31472 0.16753 0.40859 0.0
C1530 C 0.2794 0.16674 0.41665 0.0
C1531 C 0.2613 0.13449 0.4209 0.0
C1532 C 0.28009 0.10216 0.41747 0.0
C1533 C 0.31656 0.10241 0.40995 0.0
C1534 C 0.33389 0.13554 0.40521 0.0
H1535 H 0.0194 0.98331 0.15033 0.0
H1536 H 0.95473 0.07619 0.171 0.0
H1537 H 0.00977 0.11117 0.17897 0.0
H1538 H 0.09067 1.00116 0.19997 0.0
H1539 H 0.12564 0.98522 0.17819 0.0
H1540 H 0.08123 0.96654 0.17579 0.0
H1541 H 0.0792 0.98273 0.12547 0.0
H1542 H 0.12361 1.00111 0.12796 0.0
H1543 H 0.08768 0.02856 0.11545 0.0
H1544 H 0.07115 0.13737 0.18136 0.0
H1545 H 0.13535 0.15251 0.1805 0.0
H1546 H 0.161 0.04281 0.15863 0.0
C1547 C 0.01672 0.01085 0.15692 0.0
C1548 C 0.98257 0.02698 0.16002 0.0
C1549 C 0.98044 0.06315 0.16855 0.0
C1550 C 0.01159 0.08328 0.17309 0.0
C1551 C 0.04471 0.0668 0.16927 0.0
C1552 C 0.04756 0.0313 0.16169 0.0
C1553 C 0.08654 0.02029 0.15867 0.0
C1554 C 0.09661 0.99161 0.1794 0.0
C1555 C 0.09467 1.0074 0.13017 0.0
C1556 C 0.10505 0.05559 0.16456 0.0
C1557 C 0.08036 0.0819 0.17092 0.0
C1558 C 0.09071 0.11693 0.17661 0.0
C1559 C 0.12725 0.12527 0.17595 0.0
C1560 C 0.15307 0.09883 0.16942 0.0
C1561 C 0.14179 0.06354 0.1636 0.0
H1562 H 0.22031 0.90496 0.91211 0.0
H1563 H 0.12014 0.88064 0.95192 0.0
H1564 H 0.13655 0.81651 0.95336 0.0
H1565 H 0.22227 0.82635 0.87102 0.0
H1566 H 0.27009 0.82066 0.87336 0.0
H1567 H 0.25079 0.86474 0.87627 0.0
H1568 H 0.28233 0.87305 0.92208 0.0
H1569 H 0.30146 0.82882 0.91933 0.0
H1570 H 0.27504 0.84056 0.94815 0.0
H1571 H 0.16263 0.7544 0.94852 0.0
H1572 H 0.1965 0.69927 0.93723 0.0
H1573 H 0.28012 0.76469 0.90195 0.0
C1574 C 0.20198 0.88611 0.92124 0.0
C1575 C 0.16902 0.89765 0.93195 0.0
C1576 C 0.14558 0.87227 0.94362 0.0
C1577 C 0.15468 0.83582 0.94459 0.0
C1578 C 0.18739 0.82519 0.93389 0.0
C1579 C 0.2107 0.84957 0.92243 0.0
C1580 C 0.24375 0.83099 0.91173 0.0
C1581 C 0.24689 0.83598 0.8813 0.0
C1582 C 0.27765 0.84414 0.9262 0.0
C1583 C 0.23526 0.79245 0.91883 0.0
C1584 C 0.20265 0.78957 0.93159 0.0
C1585 C 0.1884 0.75634 0.93878 0.0
C1586 C 0.20778 0.72519 0.93232 0.0
C1587 C 0.24109 0.72764 0.919 0.0
C1588 C 0.25509 0.76183 0.91263 0.0
H1589 H 0.35353 0.97266 0.63919 0.0
H1590 H 0.36772 0.90423 0.70845 0.0
H1591 H 0.42929 0.9265 0.71401 0.0
H1592 H 0.4412 0.96476 0.61228 0.0
H1593 H 0.44441 0.01133 0.60272 0.0
H1594 H 0.40129 0.99003 0.60465 0.0
H1595 H 0.3809 0.04033 0.63715 0.0
H1596 H 0.42464 0.06068 0.63556 0.0
H1597 H 0.40596 0.04824 0.6674 0.0
H1598 H 0.49028 0.95196 0.71037 0.0
H1599 H 0.54732 0.98123 0.69838 0.0
H1600 H 0.49407 0.03662 0.63329 0.0
C1601 C 0.36968 0.96258 0.65552 0.0
C1602 C 0.35601 0.93661 0.67333 0.0
C1603 C 0.37769 0.92416 0.69461 0.0
C1604 C 0.4127 0.93667 0.69798 0.0
C1605 C 0.42552 0.96222 0.68021 0.0
C1606 C 0.40469 0.97544 0.65957 0.0
C1607 C 0.42537 1.00294 0.64345 0.0
C1608 C 0.42824 0.99152 0.61403 0.0
C1609 C 0.40818 0.04026 0.64605 0.0
C1610 C 0.46149 1.00165 0.65746 0.0
C1611 C 0.46074 0.97818 0.67878 0.0
C1612 C 0.49116 0.97082 0.69398 0.0
C1613 C 0.52343 0.98749 0.68701 0.0
C1614 C 0.52499 0.01144 0.66516 0.0
C1615 C 0.49345 0.01902 0.65048 0.0
loop_
_geom_bond_atom_site_label_1
_geom_bond_atom_site_label_2
_geom_bond_distance
_geom_bond_site_symmetry_2
_ccdc_geom_bond_type
Tb0 O3 2.453 . S
Tb0 O4 2.596 . S
Tb0 O5 2.374 . S
Tb0 O13 2.343 . S
Tb0 O15 2.353 . S
Tb0 O17 2.427 . S
Tb0 O18 2.513 . S
C1 O5 1.251 . S
C1 O7 1.263 . S
Tb2 O4 2.343 . S
Tb2 O7 2.353 . S
Tb2 O10 2.427 . S
Tb2 O11 2.513 . S
Tb2 O12 2.453 . S
Tb2 O13 2.596 . S
Tb2 O14 2.374 . S
O3 Tb0 2.453 . S
O3 C19 1.245 . S
O4 Tb0 2.596 . S
O4 Tb2 2.343 . S
O4 C19 1.259 . S
O5 Tb0 2.374 . S
O5 C1 1.251 . S
C6 O10 1.275 . S
C6 O11 1.246 . S
O7 C1 1.263 . S
O7 Tb2 2.353 . S
C8 O12 1.245 . S
C8 O13 1.259 . S
C9 O14 1.250 . S
C9 O15 1.263 . S
O10 Tb2 2.427 . S
O10 C6 1.275 . S
O11 Tb2 2.513 . S
O11 C6 1.246 . S
O12 Tb2 2.453 . S
O12 C8 1.245 . S
O13 Tb0 2.343 . S
O13 Tb2 2.596 . S
O13 C8 1.259 . S
O14 Tb2 2.374 . S
O14 C9 1.250 . S
O15 Tb0 2.353 . S
O15 C9 1.263 . S
C16 O17 1.275 . S
C16 O18 1.246 . S
O17 Tb0 2.427 . S
O17 C16 1.275 . S
O18 Tb0 2.513 . S
O18 C16 1.246 . S
C19 O3 1.245 . S
C19 O4 1.259 . S
Tb20 O23 2.453 . S
Tb20 O24 2.596 . S
Tb20 O25 2.374 . S
Tb20 O33 2.343 . S
Tb20 O35 2.353 . S
Tb20 O37 2.427 . S
Tb20 O38 2.513 . S
C21 O25 1.251 . S
C21 O27 1.263 . S
Tb22 O24 2.343 . S
Tb22 O27 2.353 . S
Tb22 O30 2.427 . S
Tb22 O31 2.513 . S
Tb22 O32 2.453 . S
Tb22 O33 2.596 . S
Tb22 O34 2.374 . S
O23 Tb20 2.453 . S
O23 C39 1.245 . S
O24 Tb20 2.596 . S
O24 Tb22 2.343 . S
O24 C39 1.259 . S
O25 Tb20 2.374 . S
O25 C21 1.251 . S
C26 O30 1.275 . S
C26 O31 1.246 . S
O27 C21 1.263 . S
O27 Tb22 2.353 . S
C28 O32 1.245 . S
C28 O33 1.259 . S
C29 O34 1.250 . S
C29 O35 1.263 . S
O30 Tb22 2.427 . S
O30 C26 1.275 . S
O31 Tb22 2.513 . S
O31 C26 1.246 . S
O32 Tb22 2.453 . S
O32 C28 1.245 . S
O33 Tb20 2.343 . S
O33 Tb22 2.596 . S
O33 C28 1.259 . S
O34 Tb22 2.374 . S
O34 C29 1.250 . S
O35 Tb20 2.353 . S
O35 C29 1.263 . S
C36 O37 1.275 . S
C36 O38 1.246 . S
O37 Tb20 2.427 . S
O37 C36 1.275 . S
O38 Tb20 2.513 . S
O38 C36 1.246 . S
C39 O23 1.245 . S
C39 O24 1.259 . S
Tb40 O43 2.453 . S
Tb40 O44 2.596 . S
Tb40 O45 2.374 . S
Tb40 O53 2.343 . S
Tb40 O55 2.353 . S
Tb40 O57 2.427 . S
Tb40 O58 2.513 . S
C41 O45 1.251 . S
C41 O47 1.263 . S
Tb42 O44 2.343 . S
Tb42 O47 2.353 . S
Tb42 O50 2.427 . S
Tb42 O51 2.513 . S
Tb42 O52 2.453 . S
Tb42 O53 2.596 . S
Tb42 O54 2.374 . S
O43 Tb40 2.453 . S
O43 C59 1.245 . S
O44 Tb40 2.596 . S
O44 Tb42 2.343 . S
O44 C59 1.259 . S
O45 Tb40 2.374 . S
O45 C41 1.251 . S
C46 O50 1.275 . S
C46 O51 1.246 . S
O47 C41 1.263 . S
O47 Tb42 2.353 . S
C48 O52 1.245 . S
C48 O53 1.259 . S
C49 O54 1.250 . S
C49 O55 1.263 . S
O50 Tb42 2.427 . S
O50 C46 1.275 . S
O51 Tb42 2.513 . S
O51 C46 1.246 . S
O52 Tb42 2.453 . S
O52 C48 1.245 . S
O53 Tb40 2.343 . S
O53 Tb42 2.596 . S
O53 C48 1.259 . S
O54 Tb42 2.374 . S
O54 C49 1.250 . S
O55 Tb40 2.353 . S
O55 C49 1.263 . S
C56 O57 1.275 . S
C56 O58 1.246 . S
O57 Tb40 2.427 . S
O57 C56 1.275 . S
O58 Tb40 2.513 . S
O58 C56 1.246 . S
C59 O43 1.245 . S
C59 O44 1.259 . S
Tb60 O63 2.453 . S
Tb60 O64 2.596 . S
Tb60 O65 2.374 . S
Tb60 O73 2.343 . S
Tb60 O75 2.353 . S
Tb60 O77 2.427 . S
Tb60 O78 2.513 . S
C61 O65 1.251 . S
C61 O67 1.263 . S
Tb62 O64 2.343 . S
Tb62 O67 2.353 . S
Tb62 O70 2.427 . S
Tb62 O71 2.513 . S
Tb62 O72 2.453 . S
Tb62 O73 2.596 . S
Tb62 O74 2.374 . S
O63 Tb60 2.453 . S
O63 C79 1.245 . S
O64 Tb60 2.596 . S
O64 Tb62 2.343 . S
O64 C79 1.259 . S
O65 Tb60 2.374 . S
O65 C61 1.251 . S
C66 O70 1.275 . S
C66 O71 1.246 . S
O67 C61 1.263 . S
O67 Tb62 2.353 . S
C68 O72 1.245 . S
C68 O73 1.259 . S
C69 O74 1.250 . S
C69 O75 1.263 . S
O70 Tb62 2.427 . S
O70 C66 1.275 . S
O71 Tb62 2.513 . S
O71 C66 1.246 . S
O72 Tb62 2.453 . S
O72 C68 1.245 . S
O73 Tb60 2.343 . S
O73 Tb62 2.596 . S
O73 C68 1.259 . S
O74 Tb62 2.374 . S
O74 C69 1.250 . S
O75 Tb60 2.353 . S
O75 C69 1.263 . S
C76 O77 1.275 . S
C76 O78 1.246 . S
O77 Tb60 2.427 . S
O77 C76 1.275 . S
O78 Tb60 2.513 . S
O78 C76 1.246 . S
C79 O63 1.245 . S
C79 O64 1.259 . S
Tb80 O83 2.453 . S
Tb80 O84 2.596 . S
Tb80 O85 2.374 . S
Tb80 O93 2.343 . S
Tb80 O95 2.353 . S
Tb80 O97 2.427 . S
Tb80 O98 2.513 . S
C81 O85 1.251 . S
C81 O87 1.263 . S
Tb82 O84 2.343 . S
Tb82 O87 2.353 . S
Tb82 O90 2.427 . S
Tb82 O91 2.513 . S
Tb82 O92 2.453 . S
Tb82 O93 2.596 . S
Tb82 O94 2.374 . S
O83 Tb80 2.453 . S
O83 C99 1.245 . S
O84 Tb80 2.596 . S
O84 Tb82 2.343 . S
O84 C99 1.259 . S
O85 Tb80 2.374 . S
O85 C81 1.251 . S
C86 O90 1.275 . S
C86 O91 1.246 . S
O87 C81 1.263 . S
O87 Tb82 2.353 . S
C88 O92 1.245 . S
C88 O93 1.259 . S
C89 O94 1.250 . S
C89 O95 1.263 . S
O90 Tb82 2.427 . S
O90 C86 1.275 . S
O91 Tb82 2.513 . S
O91 C86 1.246 . S
O92 Tb82 2.453 . S
O92 C88 1.245 . S
O93 Tb80 2.343 . S
O93 Tb82 2.596 . S
O93 C88 1.259 . S
O94 Tb82 2.374 . S
O94 C89 1.250 . S
O95 Tb80 2.353 . S
O95 C89 1.263 . S
C96 O97 1.275 . S
C96 O98 1.246 . S
O97 Tb80 2.427 . S
O97 C96 1.275 . S
O98 Tb80 2.513 . S
O98 C96 1.246 . S
C99 O83 1.245 . S
C99 O84 1.259 . S
Tb100 O103 2.453 . S
Tb100 O104 2.596 . S
Tb100 O105 2.374 . S
Tb100 O113 2.343 . S
Tb100 O115 2.353 . S
Tb100 O117 2.427 . S
Tb100 O118 2.513 . S
C101 O105 1.251 . S
C101 O107 1.263 . S
Tb102 O104 2.343 . S
Tb102 O107 2.353 . S
Tb102 O110 2.427 . S
Tb102 O111 2.513 . S
Tb102 O112 2.453 . S
Tb102 O113 2.596 . S
Tb102 O114 2.374 . S
O103 Tb100 2.453 . S
O103 C119 1.245 . S
O104 Tb100 2.596 . S
O104 Tb102 2.343 . S
O104 C119 1.259 . S
O105 Tb100 2.374 . S
O105 C101 1.251 . S
C106 O110 1.275 . S
C106 O111 1.246 . S
O107 C101 1.263 . S
O107 Tb102 2.353 . S
C108 O112 1.245 . S
C108 O113 1.259 . S
C109 O114 1.250 . S
C109 O115 1.263 . S
O110 Tb102 2.427 . S
O110 C106 1.275 . S
O111 Tb102 2.513 . S
O111 C106 1.246 . S
O112 Tb102 2.453 . S
O112 C108 1.245 . S
O113 Tb100 2.343 . S
O113 Tb102 2.596 . S
O113 C108 1.259 . S
O114 Tb102 2.374 . S
O114 C109 1.250 . S
O115 Tb100 2.353 . S
O115 C109 1.263 . S
C116 O117 1.275 . S
C116 O118 1.246 . S
O117 Tb100 2.427 . S
O117 C116 1.275 . S
O118 Tb100 2.513 . S
O118 C116 1.246 . S
C119 O103 1.245 . S
C119 O104 1.259 . S
Tb120 O123 2.453 . S
Tb120 O124 2.596 . S
Tb120 O125 2.374 . S
Tb120 O133 2.343 . S
Tb120 O135 2.353 . S
Tb120 O137 2.427 . S
Tb120 O138 2.513 . S
C121 O125 1.251 . S
C121 O127 1.263 . S
Tb122 O124 2.343 . S
Tb122 O127 2.353 . S
Tb122 O130 2.427 . S
Tb122 O131 2.513 . S
Tb122 O132 2.453 . S
Tb122 O133 2.596 . S
Tb122 O134 2.374 . S
O123 Tb120 2.453 . S
O123 C139 1.245 . S
O124 Tb120 2.596 . S
O124 Tb122 2.343 . S
O124 C139 1.259 . S
O125 Tb120 2.374 . S
O125 C121 1.251 . S
C126 O130 1.275 . S
C126 O131 1.246 . S
O127 C121 1.263 . S
O127 Tb122 2.353 . S
C128 O132 1.245 . S
C128 O133 1.259 . S
C129 O134 1.250 . S
C129 O135 1.263 . S
O130 Tb122 2.427 . S
O130 C126 1.275 . S
O131 Tb122 2.513 . S
O131 C126 1.246 . S
O132 Tb122 2.453 . S
O132 C128 1.245 . S
O133 Tb120 2.343 . S
O133 Tb122 2.596 . S
O133 C128 1.259 . S
O134 Tb122 2.374 . S
O134 C129 1.250 . S
O135 Tb120 2.353 . S
O135 C129 1.263 . S
C136 O137 1.275 . S
C136 O138 1.246 . S
O137 Tb120 2.427 . S
O137 C136 1.275 . S
O138 Tb120 2.513 . S
O138 C136 1.246 . S
C139 O123 1.245 . S
C139 O124 1.259 . S
Tb140 O143 2.453 . S
Tb140 O144 2.596 . S
Tb140 O145 2.374 . S
Tb140 O153 2.343 . S
Tb140 O155 2.353 . S
Tb140 O157 2.427 . S
Tb140 O158 2.513 . S
C141 O145 1.251 . S
C141 O147 1.263 . S
Tb142 O144 2.343 . S
Tb142 O147 2.353 . S
Tb142 O150 2.427 . S
Tb142 O151 2.513 . S
Tb142 O152 2.453 . S
Tb142 O153 2.596 . S
Tb142 O154 2.374 . S
O143 Tb140 2.453 . S
O143 C159 1.245 . S
O144 Tb140 2.596 . S
O144 Tb142 2.343 . S
O144 C159 1.259 . S
O145 Tb140 2.374 . S
O145 C141 1.251 . S
C146 O150 1.275 . S
C146 O151 1.246 . S
O147 C141 1.263 . S
O147 Tb142 2.353 . S
C148 O152 1.245 . S
C148 O153 1.259 . S
C149 O154 1.250 . S
C149 O155 1.263 . S
O150 Tb142 2.427 . S
O150 C146 1.275 . S
O151 Tb142 2.513 . S
O151 C146 1.246 . S
O152 Tb142 2.453 . S
O152 C148 1.245 . S
O153 Tb140 2.343 . S
O153 Tb142 2.596 . S
O153 C148 1.259 . S
O154 Tb142 2.374 . S
O154 C149 1.250 . S
O155 Tb140 2.353 . S
O155 C149 1.263 . S
C156 O157 1.275 . S
C156 O158 1.246 . S
O157 Tb140 2.427 . S
O157 C156 1.275 . S
O158 Tb140 2.513 . S
O158 C156 1.246 . S
C159 O143 1.245 . S
C159 O144 1.259 . S
Tb160 O163 2.453 . S
Tb160 O164 2.596 . S
Tb160 O165 2.374 . S
Tb160 O173 2.343 . S
Tb160 O175 2.353 . S
Tb160 O177 2.427 . S
Tb160 O178 2.513 . S
C161 O165 1.251 . S
C161 O167 1.263 . S
Tb162 O164 2.343 . S
Tb162 O167 2.353 . S
Tb162 O170 2.427 . S
Tb162 O171 2.513 . S
Tb162 O172 2.453 . S
Tb162 O173 2.596 . S
Tb162 O174 2.374 . S
O163 Tb160 2.453 . S
O163 C179 1.245 . S
O164 Tb160 2.596 . S
O164 Tb162 2.343 . S
O164 C179 1.259 . S
O165 Tb160 2.374 . S
O165 C161 1.251 . S
C166 O170 1.275 . S
C166 O171 1.246 . S
O167 C161 1.263 . S
O167 Tb162 2.353 . S
C168 O172 1.245 . S
C168 O173 1.259 . S
C169 O174 1.250 . S
C169 O175 1.263 . S
O170 Tb162 2.427 . S
O170 C166 1.275 . S
O171 Tb162 2.513 . S
O171 C166 1.246 . S
O172 Tb162 2.453 . S
O172 C168 1.245 . S
O173 Tb160 2.343 . S
O173 Tb162 2.596 . S
O173 C168 1.259 . S
O174 Tb162 2.374 . S
O174 C169 1.250 . S
O175 Tb160 2.353 . S
O175 C169 1.263 . S
C176 O177 1.275 . S
C176 O178 1.246 . S
O177 Tb160 2.427 . S
O177 C176 1.275 . S
O178 Tb160 2.513 . S
O178 C176 1.246 . S
C179 O163 1.245 . S
C179 O164 1.259 . S
Tb180 O183 2.453 . S
Tb180 O184 2.596 1_545 S
Tb180 O185 2.374 . S
Tb180 O193 2.343 . S
Tb180 O195 2.353 . S
Tb180 O197 2.427 . S
Tb180 O198 2.513 . S
C181 O185 1.251 1_565 S
C181 O187 1.263 . S
Tb182 O184 2.343 . S
Tb182 O187 2.353 . S
Tb182 O190 2.427 . S
Tb182 O191 2.513 . S
Tb182 O192 2.453 . S
Tb182 O193 2.596 1_565 S
Tb182 O194 2.374 1_565 S
O183 Tb180 2.453 . S
O183 C199 1.245 . S
O184 Tb180 2.596 1_565 S
O184 Tb182 2.343 . S
O184 C199 1.260 1_565 S
O185 Tb180 2.374 . S
O185 C181 1.251 1_545 S
C186 O190 1.275 . S
C186 O191 1.246 . S
O187 C181 1.263 . S
O187 Tb182 2.353 . S
C188 O192 1.245 1_545 S
C188 O193 1.259 . S
C189 O194 1.250 . S
C189 O195 1.263 . S
O190 Tb182 2.427 . S
O190 C186 1.275 . S
O191 Tb182 2.513 . S
O191 C186 1.246 . S
O192 Tb182 2.453 . S
O192 C188 1.245 1_565 S
O193 Tb180 2.343 . S
O193 Tb182 2.596 1_545 S
O193 C188 1.259 . S
O194 Tb182 2.374 1_545 S
O194 C189 1.250 . S
O195 Tb180 2.353 . S
O195 C189 1.263 . S
C196 O197 1.275 . S
C196 O198 1.246 . S
O197 Tb180 2.427 . S
O197 C196 1.275 . S
O198 Tb180 2.513 . S
O198 C196 1.246 . S
C199 O183 1.245 . S
C199 O184 1.260 1_545 S
Tb200 O203 2.453 . S
Tb200 O204 2.596 . S
Tb200 O205 2.374 . S
Tb200 O213 2.343 . S
Tb200 O215 2.353 . S
Tb200 O217 2.427 . S
Tb200 O218 2.513 . S
C201 O205 1.251 . S
C201 O207 1.263 . S
Tb202 O204 2.343 . S
Tb202 O207 2.353 . S
Tb202 O210 2.427 . S
Tb202 O211 2.513 . S
Tb202 O212 2.453 . S
Tb202 O213 2.596 . S
Tb202 O214 2.374 . S
O203 Tb200 2.453 . S
O203 C219 1.245 . S
O204 Tb200 2.596 . S
O204 Tb202 2.343 . S
O204 C219 1.259 . S
O205 Tb200 2.374 . S
O205 C201 1.251 . S
C206 O210 1.275 . S
C206 O211 1.246 . S
O207 C201 1.263 . S
O207 Tb202 2.353 . S
C208 O212 1.245 . S
C208 O213 1.259 . S
C209 O214 1.250 . S
C209 O215 1.263 . S
O210 Tb202 2.427 . S
O210 C206 1.275 . S
O211 Tb202 2.513 . S
O211 C206 1.246 . S
O212 Tb202 2.453 . S
O212 C208 1.245 . S
O213 Tb200 2.343 . S
O213 Tb202 2.596 . S
O213 C208 1.259 . S
O214 Tb202 2.374 . S
O214 C209 1.250 . S
O215 Tb200 2.353 . S
O215 C209 1.263 . S
C216 O217 1.275 . S
C216 O218 1.246 . S
O217 Tb200 2.427 . S
O217 C216 1.275 . S
O218 Tb200 2.513 . S
O218 C216 1.246 . S
C219 O203 1.245 . S
C219 O204 1.259 . S
Tb220 O223 2.453 . S
Tb220 O224 2.596 1_565 S
Tb220 O225 2.374 . S
Tb220 O233 2.343 . S
Tb220 O235 2.353 . S
Tb220 O237 2.427 . S
Tb220 O238 2.513 . S
C221 O225 1.251 1_545 S
C221 O227 1.263 . S
Tb222 O224 2.343 . S
Tb222 O227 2.353 . S
Tb222 O230 2.427 . S
Tb222 O231 2.513 . S
Tb222 O232 2.453 . S
Tb222 O233 2.596 1_545 S
Tb222 O234 2.374 1_545 S
O223 Tb220 2.453 . S
O223 C239 1.245 . S
O224 Tb220 2.596 1_545 S
O224 Tb222 2.343 . S
O224 C239 1.260 1_545 S
O225 Tb220 2.374 . S
O225 C221 1.251 1_565 S
C226 O230 1.275 . S
C226 O231 1.246 . S
O227 C221 1.263 . S
O227 Tb222 2.353 . S
C228 O232 1.245 1_565 S
C228 O233 1.259 . S
C229 O234 1.250 . S
C229 O235 1.263 . S
O230 Tb222 2.427 . S
O230 C226 1.275 . S
O231 Tb222 2.513 . S
O231 C226 1.246 . S
O232 Tb222 2.453 . S
O232 C228 1.245 1_545 S
O233 Tb220 2.343 . S
O233 Tb222 2.596 1_565 S
O233 C228 1.259 . S
O234 Tb222 2.374 1_565 S
O234 C229 1.250 . S
O235 Tb220 2.353 . S
O235 C229 1.263 . S
C236 O237 1.275 . S
C236 O238 1.246 . S
O237 Tb220 2.427 . S
O237 C236 1.275 . S
O238 Tb220 2.513 . S
O238 C236 1.246 . S
C239 O223 1.245 . S
C239 O224 1.260 1_565 S
Tb240 O243 2.453 . S
Tb240 O244 2.596 . S
Tb240 O245 2.374 . S
Tb240 O253 2.343 . S
Tb240 O255 2.353 . S
Tb240 O257 2.427 . S
Tb240 O258 2.513 . S
C241 O245 1.251 . S
C241 O247 1.263 . S
Tb242 O244 2.343 . S
Tb242 O247 2.353 . S
Tb242 O250 2.427 . S
Tb242 O251 2.513 . S
Tb242 O252 2.453 . S
Tb242 O253 2.596 . S
Tb242 O254 2.374 . S
O243 Tb240 2.453 . S
O243 C259 1.245 . S
O244 Tb240 2.596 . S
O244 Tb242 2.343 . S
O244 C259 1.259 . S
O245 Tb240 2.374 . S
O245 C241 1.251 . S
C246 O250 1.275 . S
C246 O251 1.246 . S
O247 C241 1.263 . S
O247 Tb242 2.353 . S
C248 O252 1.245 . S
C248 O253 1.259 . S
C249 O254 1.250 . S
C249 O255 1.263 . S
O250 Tb242 2.427 . S
O250 C246 1.275 . S
O251 Tb242 2.513 . S
O251 C246 1.246 . S
O252 Tb242 2.453 . S
O252 C248 1.245 . S
O253 Tb240 2.343 . S
O253 Tb242 2.596 . S
O253 C248 1.259 . S
O254 Tb242 2.374 . S
O254 C249 1.250 . S
O255 Tb240 2.353 . S
O255 C249 1.263 . S
C256 O257 1.275 . S
C256 O258 1.246 . S
O257 Tb240 2.427 . S
O257 C256 1.275 . S
O258 Tb240 2.513 . S
O258 C256 1.246 . S
C259 O243 1.245 . S
C259 O244 1.259 . S
Tb260 O263 2.453 . S
Tb260 O264 2.596 1_545 S
Tb260 O265 2.374 1_545 S
Tb260 O273 2.343 . S
Tb260 O275 2.353 . S
Tb260 O277 2.427 . S
Tb260 O278 2.513 . S
C261 O265 1.251 . S
C261 O267 1.263 . S
Tb262 O264 2.343 . S
Tb262 O267 2.353 . S
Tb262 O270 2.427 . S
Tb262 O271 2.513 . S
Tb262 O272 2.453 . S
Tb262 O273 2.596 1_565 S
Tb262 O274 2.374 . S
O263 Tb260 2.453 . S
O263 C279 1.245 1_545 S
O264 Tb260 2.596 1_565 S
O264 Tb262 2.343 . S
O264 C279 1.259 . S
O265 Tb260 2.374 1_565 S
O265 C261 1.251 . S
C266 O270 1.275 . S
C266 O271 1.246 . S
O267 C261 1.263 . S
O267 Tb262 2.353 . S
C268 O272 1.245 . S
C268 O273 1.260 1_565 S
C269 O274 1.250 1_545 S
C269 O275 1.263 . S
O270 Tb262 2.427 . S
O270 C266 1.275 . S
O271 Tb262 2.513 . S
O271 C266 1.246 . S
O272 Tb262 2.453 . S
O272 C268 1.245 . S
O273 Tb260 2.343 . S
O273 Tb262 2.596 1_545 S
O273 C268 1.260 1_545 S
O274 Tb262 2.374 . S
O274 C269 1.250 1_565 S
O275 Tb260 2.353 . S
O275 C269 1.263 . S
C276 O277 1.275 . S
C276 O278 1.246 . S
O277 Tb260 2.427 . S
O277 C276 1.275 . S
O278 Tb260 2.513 . S
O278 C276 1.246 . S
C279 O263 1.245 1_565 S
C279 O264 1.259 . S
Tb280 O283 2.453 . S
Tb280 O284 2.596 . S
Tb280 O285 2.374 . S
Tb280 O293 2.343 . S
Tb280 O295 2.353 . S
Tb280 O297 2.427 . S
Tb280 O298 2.513 . S
C281 O285 1.251 . S
C281 O287 1.263 . S
Tb282 O284 2.343 . S
Tb282 O287 2.353 . S
Tb282 O290 2.427 . S
Tb282 O291 2.513 . S
Tb282 O292 2.453 . S
Tb282 O293 2.596 . S
Tb282 O294 2.374 . S
O283 Tb280 2.453 . S
O283 C299 1.245 . S
O284 Tb280 2.596 . S
O284 Tb282 2.343 . S
O284 C299 1.259 . S
O285 Tb280 2.374 . S
O285 C281 1.251 . S
C286 O290 1.275 . S
C286 O291 1.246 . S
O287 C281 1.263 . S
O287 Tb282 2.353 . S
C288 O292 1.245 . S
C288 O293 1.259 . S
C289 O294 1.250 . S
C289 O295 1.263 . S
O290 Tb282 2.427 . S
O290 C286 1.275 . S
O291 Tb282 2.513 . S
O291 C286 1.246 . S
O292 Tb282 2.453 . S
O292 C288 1.245 . S
O293 Tb280 2.343 . S
O293 Tb282 2.596 . S
O293 C288 1.259 . S
O294 Tb282 2.374 . S
O294 C289 1.250 . S
O295 Tb280 2.353 . S
O295 C289 1.263 . S
C296 O297 1.275 . S
C296 O298 1.246 . S
O297 Tb280 2.427 . S
O297 C296 1.275 . S
O298 Tb280 2.513 . S
O298 C296 1.246 . S
C299 O283 1.245 . S
C299 O284 1.259 . S
Tb300 O303 2.453 . S
Tb300 O304 2.596 1_565 S
Tb300 O305 2.374 1_565 S
Tb300 O313 2.343 . S
Tb300 O315 2.353 . S
Tb300 O317 2.427 . S
Tb300 O318 2.513 . S
C301 O305 1.251 . S
C301 O307 1.263 . S
Tb302 O304 2.343 . S
Tb302 O307 2.353 . S
Tb302 O310 2.427 . S
Tb302 O311 2.513 . S
Tb302 O312 2.453 . S
Tb302 O313 2.596 1_545 S
Tb302 O314 2.374 . S
O303 Tb300 2.453 . S
O303 C319 1.245 1_565 S
O304 Tb300 2.596 1_545 S
O304 Tb302 2.343 . S
O304 C319 1.259 . S
O305 Tb300 2.374 1_545 S
O305 C301 1.251 . S
C306 O310 1.275 . S
C306 O311 1.246 . S
O307 C301 1.263 . S
O307 Tb302 2.353 . S
C308 O312 1.245 . S
C308 O313 1.260 1_545 S
C309 O314 1.250 1_565 S
C309 O315 1.263 . S
O310 Tb302 2.427 . S
O310 C306 1.275 . S
O311 Tb302 2.513 . S
O311 C306 1.246 . S
O312 Tb302 2.453 . S
O312 C308 1.245 . S
O313 Tb300 2.343 . S
O313 Tb302 2.596 1_565 S
O313 C308 1.260 1_565 S
O314 Tb302 2.374 . S
O314 C309 1.250 1_545 S
O315 Tb300 2.353 . S
O315 C309 1.263 . S
C316 O317 1.275 . S
C316 O318 1.246 . S
O317 Tb300 2.427 . S
O317 C316 1.275 . S
O318 Tb300 2.513 . S
O318 C316 1.246 . S
C319 O303 1.245 1_545 S
C319 O304 1.259 . S
H320 C332 0.930 . S
H321 C334 0.930 . S
H322 C335 0.930 . S
H323 C339 0.959 . S
H324 C339 0.959 . S
H325 C339 0.961 . S
H326 C340 0.960 . S
H327 C340 0.961 . S
H328 C340 0.959 . S
H329 C343 0.929 . S
H330 C344 0.931 . S
H331 C346 0.930 . S
C332 H320 0.930 . S
C332 C333 1.399 . S
C332 C337 1.399 . S
C333 C332 1.399 . S
C333 C334 1.376 . S
C334 H321 0.930 . S
C334 C333 1.376 . S
C334 C335 1.388 . S
C335 H322 0.930 . S
C335 C334 1.388 . S
C335 C336 1.390 . S
C336 C335 1.390 . S
C336 C337 1.394 . S
C336 C342 1.465 . S
C337 C332 1.399 . S
C337 C336 1.394 . S
C337 C338 1.516 . S
C338 C337 1.516 . S
C338 C339 1.502 . S
C338 C340 1.561 . S
C338 C341 1.526 . S
C339 H323 0.959 . S
C339 H324 0.959 . S
C339 H325 0.961 . S
C339 C338 1.502 . S
C340 H326 0.960 . S
C340 H327 0.961 . S
C340 H328 0.959 . S
C340 C338 1.561 . S
C341 C338 1.526 . S
C341 C342 1.396 . S
C341 C346 1.390 . S
C342 C336 1.465 . S
C342 C341 1.396 . S
C342 C343 1.399 . S
C343 H329 0.929 . S
C343 C342 1.399 . S
C343 C344 1.385 . S
C344 H330 0.931 . S
C344 C343 1.385 . S
C344 C345 1.389 . S
C345 C344 1.389 . S
C345 C346 1.387 . S
C346 H331 0.930 . S
C346 C341 1.390 . S
C346 C345 1.387 . S
H347 C359 0.930 . S
H348 C361 0.930 . S
H349 C362 0.930 . S
H350 C366 0.959 . S
H351 C366 0.959 . S
H352 C366 0.961 . S
H353 C367 0.960 . S
H354 C367 0.961 . S
H355 C367 0.959 . S
H356 C370 0.929 . S
H357 C371 0.931 . S
H358 C373 0.930 . S
C359 H347 0.930 . S
C359 C360 1.399 . S
C359 C364 1.399 . S
C360 C359 1.399 . S
C360 C361 1.376 . S
C361 H348 0.930 . S
C361 C360 1.376 . S
C361 C362 1.388 . S
C362 H349 0.930 . S
C362 C361 1.388 . S
C362 C363 1.390 . S
C363 C362 1.390 . S
C363 C364 1.394 . S
C363 C369 1.465 . S
C364 C359 1.399 . S
C364 C363 1.394 . S
C364 C365 1.516 . S
C365 C364 1.516 . S
C365 C366 1.502 . S
C365 C367 1.561 . S
C365 C368 1.526 . S
C366 H350 0.959 . S
C366 H351 0.959 . S
C366 H352 0.961 . S
C366 C365 1.502 . S
C367 H353 0.960 . S
C367 H354 0.961 . S
C367 H355 0.959 . S
C367 C365 1.561 . S
C368 C365 1.526 . S
C368 C369 1.396 . S
C368 C373 1.390 . S
C369 C363 1.465 . S
C369 C368 1.396 . S
C369 C370 1.399 . S
C370 H356 0.929 . S
C370 C369 1.399 . S
C370 C371 1.385 . S
C371 H357 0.931 . S
C371 C370 1.385 . S
C371 C372 1.389 . S
C372 C371 1.389 . S
C372 C373 1.387 . S
C373 H358 0.930 . S
C373 C368 1.390 . S
C373 C372 1.387 . S
H374 C386 0.930 . S
H375 C388 0.930 . S
H376 C389 0.930 . S
H377 C393 0.959 . S
H378 C393 0.959 . S
H379 C393 0.961 . S
H380 C394 0.960 . S
H381 C394 0.961 . S
H382 C394 0.959 . S
H383 C397 0.929 . S
H384 C398 0.931 . S
H385 C400 0.930 . S
C386 H374 0.930 . S
C386 C387 1.399 . S
C386 C391 1.399 . S
C387 C386 1.399 . S
C387 C388 1.376 . S
C388 H375 0.930 . S
C388 C387 1.376 . S
C388 C389 1.388 . S
C389 H376 0.930 . S
C389 C388 1.388 . S
C389 C390 1.390 . S
C390 C389 1.390 . S
C390 C391 1.394 . S
C390 C396 1.465 . S
C391 C386 1.399 . S
C391 C390 1.394 . S
C391 C392 1.516 . S
C392 C391 1.516 . S
C392 C393 1.502 . S
C392 C394 1.561 . S
C392 C395 1.526 . S
C393 H377 0.959 . S
C393 H378 0.959 . S
C393 H379 0.961 . S
C393 C392 1.502 . S
C394 H380 0.960 . S
C394 H381 0.961 . S
C394 H382 0.959 . S
C394 C392 1.561 . S
C395 C392 1.526 . S
C395 C396 1.396 . S
C395 C400 1.390 . S
C396 C390 1.465 . S
C396 C395 1.396 . S
C396 C397 1.399 . S
C397 H383 0.929 . S
C397 C396 1.399 . S
C397 C398 1.385 . S
C398 H384 0.931 . S
C398 C397 1.385 . S
C398 C399 1.389 . S
C399 C398 1.389 . S
C399 C400 1.387 . S
C400 H385 0.930 . S
C400 C395 1.390 . S
C400 C399 1.387 . S
H401 C413 0.930 . S
H402 C415 0.930 . S
H403 C416 0.930 . S
H404 C420 0.959 . S
H405 C420 0.959 . S
H406 C420 0.961 1_556 S
H407 C421 0.960 . S
H408 C421 0.961 . S
H409 C421 0.959 . S
H410 C424 0.929 1_655 S
H411 C425 0.931 . S
H412 C427 0.930 . S
C413 H401 0.930 . S
C413 C414 1.399 . S
C413 C418 1.399 . S
C414 C413 1.399 . S
C414 C415 1.376 . S
C415 H402 0.930 . S
C415 C414 1.376 . S
C415 C416 1.388 . S
C416 H403 0.930 . S
C416 C415 1.388 . S
C416 C417 1.390 . S
C417 C416 1.390 . S
C417 C418 1.394 . S
C417 C423 1.465 1_656 S
C418 C413 1.399 . S
C418 C417 1.394 . S
C418 C419 1.516 1_655 S
C419 C418 1.516 1_455 S
C419 C420 1.502 1_556 S
C419 C421 1.561 . S
C419 C422 1.526 1_556 S
C420 H404 0.959 . S
C420 H405 0.959 . S
C420 H406 0.961 1_554 S
C420 C419 1.502 1_554 S
C421 H407 0.960 . S
C421 H408 0.961 . S
C421 H409 0.959 . S
C421 C419 1.561 . S
C422 C419 1.526 1_554 S
C422 C423 1.396 . S
C422 C427 1.390 . S
C423 C417 1.465 1_454 S
C423 C422 1.396 . S
C423 C424 1.399 . S
C424 H410 0.929 1_455 S
C424 C423 1.399 . S
C424 C425 1.385 . S
C425 H411 0.931 . S
C425 C424 1.385 . S
C425 C426 1.389 . S
C426 C425 1.389 . S
C426 C427 1.387 . S
C427 H412 0.930 . S
C427 C422 1.390 . S
C427 C426 1.387 . S
H428 C440 0.930 . S
H429 C442 0.930 . S
H430 C443 0.930 . S
H431 C447 0.959 . S
H432 C447 0.959 . S
H433 C447 0.961 . S
H434 C448 0.960 . S
H435 C448 0.961 . S
H436 C448 0.959 . S
H437 C451 0.929 . S
H438 C452 0.931 . S
H439 C454 0.930 . S
C440 H428 0.930 . S
C440 C441 1.399 . S
C440 C445 1.399 . S
C441 C440 1.399 . S
C441 C442 1.376 . S
C442 H429 0.930 . S
C442 C441 1.376 . S
C442 C443 1.388 . S
C443 H430 0.930 . S
C443 C442 1.388 . S
C443 C444 1.390 . S
C444 C443 1.390 . S
C444 C445 1.394 . S
C444 C450 1.465 . S
C445 C440 1.399 . S
C445 C444 1.394 . S
C445 C446 1.516 . S
C446 C445 1.516 . S
C446 C447 1.502 . S
C446 C448 1.561 . S
C446 C449 1.526 . S
C447 H431 0.959 . S
C447 H432 0.959 . S
C447 H433 0.961 . S
C447 C446 1.502 . S
C448 H434 0.960 . S
C448 H435 0.961 . S
C448 H436 0.959 . S
C448 C446 1.561 . S
C449 C446 1.526 . S
C449 C450 1.396 . S
C449 C454 1.390 . S
C450 C444 1.465 . S
C450 C449 1.396 . S
C450 C451 1.399 . S
C451 H437 0.929 . S
C451 C450 1.399 . S
C451 C452 1.385 . S
C452 H438 0.931 . S
C452 C451 1.385 . S
C452 C453 1.389 . S
C453 C452 1.389 . S
C453 C454 1.387 . S
C454 H439 0.930 . S
C454 C449 1.390 . S
C454 C453 1.387 . S
H455 C467 0.930 . S
H456 C469 0.930 . S
H457 C470 0.930 . S
H458 C474 0.959 . S
H459 C474 0.959 . S
H460 C474 0.961 . S
H461 C475 0.960 . S
H462 C475 0.961 . S
H463 C475 0.959 . S
H464 C478 0.929 . S
H465 C479 0.931 . S
H466 C481 0.930 . S
C467 H455 0.930 . S
C467 C468 1.399 . S
C467 C472 1.399 . S
C468 C467 1.399 . S
C468 C469 1.376 . S
C469 H456 0.930 . S
C469 C468 1.376 . S
C469 C470 1.388 . S
C470 H457 0.930 . S
C470 C469 1.388 . S
C470 C471 1.390 . S
C471 C470 1.390 . S
C471 C472 1.394 . S
C471 C477 1.465 . S
C472 C467 1.399 . S
C472 C471 1.394 . S
C472 C473 1.516 . S
C473 C472 1.516 . S
C473 C474 1.502 . S
C473 C475 1.561 . S
C473 C476 1.526 . S
C474 H458 0.959 . S
C474 H459 0.959 . S
C474 H460 0.961 . S
C474 C473 1.502 . S
C475 H461 0.960 . S
C475 H462 0.961 . S
C475 H463 0.959 . S
C475 C473 1.561 . S
C476 C473 1.526 . S
C476 C477 1.396 . S
C476 C481 1.390 . S
C477 C471 1.465 . S
C477 C476 1.396 . S
C477 C478 1.399 . S
C478 H464 0.929 . S
C478 C477 1.399 . S
C478 C479 1.385 . S
C479 H465 0.931 . S
C479 C478 1.385 . S
C479 C480 1.389 . S
C480 C479 1.389 . S
C480 C481 1.387 . S
C481 H466 0.930 . S
C481 C476 1.390 . S
C481 C480 1.387 . S
H482 C494 0.930 . S
H483 C496 0.930 . S
H484 C497 0.930 . S
H485 C501 0.959 . S
H486 C501 0.959 . S
H487 C501 0.961 . S
H488 C502 0.960 . S
H489 C502 0.961 . S
H490 C502 0.959 . S
H491 C505 0.929 1_655 S
H492 C506 0.931 . S
H493 C508 0.930 . S
C494 H482 0.930 . S
C494 C495 1.399 . S
C494 C499 1.399 . S
C495 C494 1.399 . S
C495 C496 1.376 . S
C496 H483 0.930 . S
C496 C495 1.376 . S
C496 C497 1.388 1_554 S
C497 H484 0.930 . S
C497 C496 1.388 1_556 S
C497 C498 1.390 . S
C498 C497 1.390 . S
C498 C499 1.394 1_556 S
C498 C504 1.465 1_665 S
C499 C494 1.399 . S
C499 C498 1.394 1_554 S
C499 C500 1.516 1_655 S
C500 C499 1.516 1_455 S
C500 C501 1.502 1_565 S
C500 C502 1.561 . S
C500 C503 1.526 1_564 S
C501 H485 0.959 . S
C501 H486 0.959 . S
C501 H487 0.961 . S
C501 C500 1.502 1_545 S
C502 H488 0.960 . S
C502 H489 0.961 . S
C502 H490 0.959 . S
C502 C500 1.561 . S
C503 C500 1.526 1_546 S
C503 C504 1.396 . S
C503 C508 1.390 . S
C504 C498 1.465 1_445 S
C504 C503 1.396 . S
C504 C505 1.399 . S
C505 H491 0.929 1_455 S
C505 C504 1.399 . S
C505 C506 1.385 . S
C506 H492 0.931 . S
C506 C505 1.385 . S
C506 C507 1.389 . S
C507 C506 1.389 . S
C507 C508 1.387 . S
C508 H493 0.930 . S
C508 C503 1.390 . S
C508 C507 1.387 . S
H509 C521 0.930 . S
H510 C523 0.932 . S
H511 C524 0.930 . S
H512 C528 0.959 . S
H513 C528 0.959 . S
H514 C528 0.961 . S
H515 C529 0.960 . S
H516 C529 0.961 . S
H517 C529 0.959 . S
H518 C532 0.929 . S
H519 C533 0.931 . S
H520 C535 0.930 1_565 S
C521 H509 0.930 . S
C521 C522 1.399 . S
C521 C526 1.399 . S
C522 C521 1.399 . S
C522 C523 1.376 . S
C523 H510 0.932 . S
C523 C522 1.376 . S
C523 C524 1.388 1_565 S
C524 H511 0.930 . S
C524 C523 1.388 1_545 S
C524 C525 1.390 . S
C525 C524 1.390 . S
C525 C526 1.394 1_545 S
C525 C531 1.465 . S
C526 C521 1.399 . S
C526 C525 1.394 1_565 S
C526 C527 1.516 . S
C527 C526 1.516 . S
C527 C528 1.502 . S
C527 C529 1.561 . S
C527 C530 1.553 . S
C528 H512 0.959 . S
C528 H513 0.959 . S
C528 H514 0.961 . S
C528 C527 1.502 . S
C529 H515 0.960 . S
C529 H516 0.961 . S
C529 H517 0.959 . S
C529 C527 1.561 . S
C530 C527 1.553 . S
C530 C531 1.377 1_565 S
C530 C535 1.380 1_565 S
C531 C525 1.465 . S
C531 C530 1.377 1_545 S
C531 C532 1.399 . S
C532 H518 0.929 . S
C532 C531 1.399 . S
C532 C533 1.385 . S
C533 H519 0.931 . S
C533 C532 1.385 . S
C533 C534 1.389 . S
C534 C533 1.389 . S
C534 C535 1.387 . S
C535 H520 0.930 1_545 S
C535 C530 1.380 1_545 S
C535 C534 1.387 . S
H536 C548 0.930 . S
H537 C550 0.930 . S
H538 C551 0.930 . S
H539 C555 0.959 . S
H540 C555 0.959 . S
H541 C555 0.961 . S
H542 C556 0.960 1_565 S
H543 C556 0.960 . S
H544 C556 0.959 . S
H545 C559 0.929 . S
H546 C560 0.931 . S
H547 C562 0.930 . S
C548 H536 0.930 . S
C548 C549 1.399 . S
C548 C553 1.399 1_556 S
C549 C548 1.399 . S
C549 C550 1.376 . S
C550 H537 0.930 . S
C550 C549 1.376 . S
C550 C551 1.388 . S
C551 H538 0.930 . S
C551 C550 1.388 . S
C551 C552 1.390 1_556 S
C552 C551 1.390 1_554 S
C552 C553 1.394 . S
C552 C558 1.465 . S
C553 C548 1.399 1_554 S
C553 C552 1.394 . S
C553 C554 1.516 . S
C554 C553 1.516 . S
C554 C555 1.502 . S
C554 C556 1.561 . S
C554 C557 1.526 . S
C555 H539 0.959 . S
C555 H540 0.959 . S
C555 H541 0.961 . S
C555 C554 1.502 . S
C556 H542 0.960 1_545 S
C556 H543 0.960 . S
C556 H544 0.959 . S
C556 C554 1.561 . S
C557 C554 1.526 . S
C557 C558 1.396 . S
C557 C562 1.390 . S
C558 C552 1.465 . S
C558 C557 1.396 . S
C558 C559 1.399 . S
C559 H545 0.929 . S
C559 C558 1.399 . S
C559 C560 1.385 . S
C560 H546 0.931 . S
C560 C559 1.385 . S
C560 C561 1.389 . S
C561 C560 1.389 . S
C561 C562 1.387 . S
C562 H547 0.930 . S
C562 C557 1.390 . S
C562 C561 1.387 . S
H563 C575 0.930 . S
H564 C577 0.930 . S
H565 C578 0.930 . S
H566 C582 0.959 . S
H567 C582 0.959 . S
H568 C582 0.961 . S
H569 C583 0.960 . S
H570 C583 0.961 . S
H571 C583 0.959 . S
H572 C586 0.929 . S
H573 C587 0.931 . S
H574 C589 0.930 . S
C575 H563 0.930 . S
C575 C576 1.399 . S
C575 C580 1.399 . S
C576 C575 1.399 . S
C576 C577 1.376 . S
C577 H564 0.930 . S
C577 C576 1.376 . S
C577 C578 1.388 . S
C578 H565 0.930 . S
C578 C577 1.388 . S
C578 C579 1.390 . S
C579 C578 1.390 . S
C579 C580 1.394 . S
C579 C585 1.465 . S
C580 C575 1.399 . S
C580 C579 1.394 . S
C580 C581 1.516 . S
C581 C580 1.516 . S
C581 C582 1.502 . S
C581 C583 1.561 . S
C581 C584 1.526 . S
C582 H566 0.959 . S
C582 H567 0.959 . S
C582 H568 0.961 . S
C582 C581 1.502 . S
C583 H569 0.960 . S
C583 H570 0.961 . S
C583 H571 0.959 . S
C583 C581 1.561 . S
C584 C581 1.526 . S
C584 C585 1.396 . S
C584 C589 1.390 . S
C585 C579 1.465 . S
C585 C584 1.396 . S
C585 C586 1.399 . S
C586 H572 0.929 . S
C586 C585 1.399 . S
C586 C587 1.385 . S
C587 H573 0.931 . S
C587 C586 1.385 . S
C587 C588 1.389 . S
C588 C587 1.389 . S
C588 C589 1.387 . S
C589 H574 0.930 . S
C589 C584 1.390 . S
C589 C588 1.387 . S
H590 C602 0.930 . S
H591 C604 0.930 . S
H592 C605 0.930 . S
H593 C609 0.959 . S
H594 C609 0.959 . S
H595 C609 0.961 . S
H596 C610 0.960 . S
H597 C610 0.961 1_545 S
H598 C610 0.959 . S
H599 C613 0.929 . S
H600 C614 0.931 . S
H601 C616 0.930 . S
C602 H590 0.930 . S
C602 C603 1.399 . S
C602 C607 1.399 . S
C603 C602 1.399 . S
C603 C604 1.376 . S
C604 H591 0.930 . S
C604 C603 1.376 . S
C604 C605 1.388 . S
C605 H592 0.930 . S
C605 C604 1.388 . S
C605 C606 1.390 . S
C606 C605 1.390 . S
C606 C607 1.394 . S
C606 C612 1.465 . S
C607 C602 1.399 . S
C607 C606 1.394 . S
C607 C608 1.516 . S
C608 C607 1.516 . S
C608 C609 1.502 . S
C608 C610 1.561 . S
C608 C611 1.526 . S
C609 H593 0.959 . S
C609 H594 0.959 . S
C609 H595 0.961 . S
C609 C608 1.502 . S
C610 H596 0.960 . S
C610 H597 0.961 1_565 S
C610 H598 0.959 . S
C610 C608 1.561 . S
C611 C608 1.526 . S
C611 C612 1.396 . S
C611 C616 1.390 . S
C612 C606 1.465 . S
C612 C611 1.396 . S
C612 C613 1.399 . S
C613 H599 0.929 . S
C613 C612 1.399 . S
C613 C614 1.385 . S
C614 H600 0.931 . S
C614 C613 1.385 . S
C614 C615 1.389 . S
C615 C614 1.389 . S
C615 C616 1.387 . S
C616 H601 0.930 . S
C616 C611 1.390 . S
C616 C615 1.387 . S
H617 C629 0.930 . S
H618 C631 0.930 . S
H619 C632 0.930 . S
H620 C636 0.959 . S
H621 C636 0.959 . S
H622 C636 0.961 . S
H623 C637 0.960 . S
H624 C637 0.961 . S
H625 C637 0.959 . S
H626 C640 0.929 . S
H627 C641 0.931 . S
H628 C643 0.930 . S
C629 H617 0.930 . S
C629 C630 1.399 . S
C629 C634 1.399 . S
C630 C629 1.399 . S
C630 C631 1.376 . S
C631 H618 0.930 . S
C631 C630 1.376 . S
C631 C632 1.388 . S
C632 H619 0.930 . S
C632 C631 1.388 . S
C632 C633 1.390 . S
C633 C632 1.390 . S
C633 C634 1.394 . S
C633 C639 1.465 . S
C634 C629 1.399 . S
C634 C633 1.394 . S
C634 C635 1.516 . S
C635 C634 1.516 . S
C635 C636 1.502 . S
C635 C637 1.561 . S
C635 C638 1.526 . S
C636 H620 0.959 . S
C636 H621 0.959 . S
C636 H622 0.961 . S
C636 C635 1.502 . S
C637 H623 0.960 . S
C637 H624 0.961 . S
C637 H625 0.959 . S
C637 C635 1.561 . S
C638 C635 1.526 . S
C638 C639 1.396 . S
C638 C643 1.390 . S
C639 C633 1.465 . S
C639 C638 1.396 . S
C639 C640 1.399 . S
C640 H626 0.929 . S
C640 C639 1.399 . S
C640 C641 1.385 . S
C641 H627 0.931 . S
C641 C640 1.385 . S
C641 C642 1.389 . S
C642 C641 1.389 . S
C642 C643 1.387 . S
C643 H628 0.930 . S
C643 C638 1.390 . S
C643 C642 1.387 . S
H644 C656 0.930 . S
H645 C658 0.930 . S
H646 C659 0.930 . S
H647 C663 0.959 . S
H648 C663 0.959 . S
H649 C663 0.961 . S
H650 C664 0.960 1_545 S
H651 C664 0.961 . S
H652 C664 0.959 . S
H653 C667 0.929 . S
H654 C668 0.931 . S
H655 C670 0.930 . S
C656 H644 0.930 . S
C656 C657 1.399 . S
C656 C661 1.399 1_554 S
C657 C656 1.399 . S
C657 C658 1.376 . S
C658 H645 0.930 . S
C658 C657 1.376 . S
C658 C659 1.388 1_554 S
C659 H646 0.930 . S
C659 C658 1.388 1_556 S
C659 C660 1.390 . S
C660 C659 1.390 . S
C660 C661 1.394 . S
C660 C666 1.465 . S
C661 C656 1.399 1_556 S
C661 C660 1.394 . S
C661 C662 1.516 . S
C662 C661 1.516 . S
C662 C663 1.502 . S
C662 C664 1.561 . S
C662 C665 1.526 . S
C663 H647 0.959 . S
C663 H648 0.959 . S
C663 H649 0.961 . S
C663 C662 1.502 . S
C664 H650 0.960 1_565 S
C664 H651 0.961 . S
C664 H652 0.959 . S
C664 C662 1.561 . S
C665 C662 1.526 . S
C665 C666 1.396 . S
C665 C670 1.390 . S
C666 C660 1.465 . S
C666 C665 1.396 . S
C666 C667 1.399 . S
C667 H653 0.929 . S
C667 C666 1.399 . S
C667 C668 1.385 . S
C668 H654 0.931 . S
C668 C667 1.385 . S
C668 C669 1.389 . S
C669 C668 1.389 . S
C669 C670 1.387 . S
C670 H655 0.930 . S
C670 C665 1.390 . S
C670 C669 1.387 . S
H671 C683 0.930 . S
H672 C685 0.930 . S
H673 C686 0.930 . S
H674 C690 0.959 . S
H675 C690 0.959 . S
H676 C690 0.961 . S
H677 C691 0.960 . S
H678 C691 0.961 . S
H679 C691 0.959 . S
H680 C694 0.929 . S
H681 C695 0.931 . S
H682 C697 0.930 . S
C683 H671 0.930 . S
C683 C684 1.399 . S
C683 C688 1.399 . S
C684 C683 1.399 . S
C684 C685 1.376 . S
C685 H672 0.930 . S
C685 C684 1.376 . S
C685 C686 1.388 . S
C686 H673 0.930 . S
C686 C685 1.388 . S
C686 C687 1.390 . S
C687 C686 1.390 . S
C687 C688 1.394 . S
C687 C693 1.465 . S
C688 C683 1.399 . S
C688 C687 1.394 . S
C688 C689 1.516 . S
C689 C688 1.516 . S
C689 C690 1.502 . S
C689 C691 1.561 . S
C689 C692 1.526 . S
C690 H674 0.959 . S
C690 H675 0.959 . S
C690 H676 0.961 . S
C690 C689 1.502 . S
C691 H677 0.960 . S
C691 H678 0.961 . S
C691 H679 0.959 . S
C691 C689 1.561 . S
C692 C689 1.526 . S
C692 C693 1.396 . S
C692 C697 1.390 . S
C693 C687 1.465 . S
C693 C692 1.396 . S
C693 C694 1.399 . S
C694 H680 0.929 . S
C694 C693 1.399 . S
C694 C695 1.385 . S
C695 H681 0.931 . S
C695 C694 1.385 . S
C695 C696 1.389 . S
C696 C695 1.389 . S
C696 C697 1.387 . S
C697 H682 0.930 . S
C697 C692 1.390 . S
C697 C696 1.387 . S
H698 C710 0.930 . S
H699 C712 0.930 . S
H700 C713 0.930 . S
H701 C717 0.959 . S
H702 C717 0.959 . S
H703 C717 0.961 . S
H704 C718 0.960 . S
H705 C718 0.961 . S
H706 C718 0.959 . S
H707 C721 0.929 . S
H708 C722 0.931 . S
H709 C724 0.930 . S
C710 H698 0.930 . S
C710 C711 1.399 . S
C710 C715 1.399 . S
C711 C710 1.399 . S
C711 C712 1.376 . S
C712 H699 0.930 . S
C712 C711 1.376 . S
C712 C713 1.388 . S
C713 H700 0.930 . S
C713 C712 1.388 . S
C713 C714 1.390 . S
C714 C713 1.390 . S
C714 C715 1.394 . S
C714 C720 1.465 . S
C715 C710 1.399 . S
C715 C714 1.394 . S
C715 C716 1.516 . S
C716 C715 1.516 . S
C716 C717 1.502 . S
C716 C718 1.561 . S
C716 C719 1.526 . S
C717 H701 0.959 . S
C717 H702 0.959 . S
C717 H703 0.961 . S
C717 C716 1.502 . S
C718 H704 0.960 . S
C718 H705 0.961 . S
C718 H706 0.959 . S
C718 C716 1.561 . S
C719 C716 1.526 . S
C719 C720 1.396 . S
C719 C724 1.390 . S
C720 C714 1.465 . S
C720 C719 1.396 . S
C720 C721 1.399 . S
C721 H707 0.929 . S
C721 C720 1.399 . S
C721 C722 1.385 . S
C722 H708 0.931 . S
C722 C721 1.385 . S
C722 C723 1.389 . S
C723 C722 1.389 . S
C723 C724 1.387 . S
C724 H709 0.930 . S
C724 C719 1.390 . S
C724 C723 1.387 . S
H725 C737 0.930 . S
H726 C739 0.930 . S
H727 C740 0.930 . S
H728 C744 0.959 . S
H729 C744 0.959 . S
H730 C744 0.961 . S
H731 C745 0.960 . S
H732 C745 0.961 . S
H733 C745 0.959 . S
H734 C748 0.929 . S
H735 C749 0.931 . S
H736 C751 0.930 . S
C737 H725 0.930 . S
C737 C738 1.399 . S
C737 C742 1.399 . S
C738 C737 1.399 . S
C738 C739 1.376 . S
C739 H726 0.930 . S
C739 C738 1.376 . S
C739 C740 1.388 . S
C740 H727 0.930 . S
C740 C739 1.388 . S
C740 C741 1.390 . S
C741 C740 1.390 . S
C741 C742 1.394 . S
C741 C747 1.465 . S
C742 C737 1.399 . S
C742 C741 1.394 . S
C742 C743 1.516 . S
C743 C742 1.516 . S
C743 C744 1.502 . S
C743 C745 1.561 . S
C743 C746 1.526 . S
C744 H728 0.959 . S
C744 H729 0.959 . S
C744 H730 0.961 . S
C744 C743 1.502 . S
C745 H731 0.960 . S
C745 H732 0.961 . S
C745 H733 0.959 . S
C745 C743 1.561 . S
C746 C743 1.526 . S
C746 C747 1.396 . S
C746 C751 1.390 . S
C747 C741 1.465 . S
C747 C746 1.396 . S
C747 C748 1.399 . S
C748 H734 0.929 . S
C748 C747 1.399 . S
C748 C749 1.385 . S
C749 H735 0.931 . S
C749 C748 1.385 . S
C749 C750 1.389 . S
C750 C749 1.389 . S
C750 C751 1.387 . S
C751 H736 0.930 . S
C751 C746 1.390 . S
C751 C750 1.387 . S
H752 C764 0.930 . S
H753 C766 0.930 . S
H754 C767 0.930 . S
H755 C771 0.959 . S
H756 C771 0.959 . S
H757 C771 0.961 . S
H758 C772 0.960 . S
H759 C772 0.961 . S
H760 C772 0.959 . S
H761 C775 0.929 . S
H762 C776 0.931 . S
H763 C778 0.930 . S
C764 H752 0.930 . S
C764 C765 1.399 . S
C764 C769 1.399 . S
C765 C764 1.399 . S
C765 C766 1.376 . S
C766 H753 0.930 . S
C766 C765 1.376 . S
C766 C767 1.388 . S
C767 H754 0.930 . S
C767 C766 1.388 . S
C767 C768 1.390 . S
C768 C767 1.390 . S
C768 C769 1.394 . S
C768 C774 1.465 . S
C769 C764 1.399 . S
C769 C768 1.394 . S
C769 C770 1.516 . S
C770 C769 1.516 . S
C770 C771 1.502 . S
C770 C772 1.561 . S
C770 C773 1.526 . S
C771 H755 0.959 . S
C771 H756 0.959 . S
C771 H757 0.961 . S
C771 C770 1.502 . S
C772 H758 0.960 . S
C772 H759 0.961 . S
C772 H760 0.959 . S
C772 C770 1.561 . S
C773 C770 1.526 . S
C773 C774 1.396 . S
C773 C778 1.390 . S
C774 C768 1.465 . S
C774 C773 1.396 . S
C774 C775 1.399 . S
C775 H761 0.929 . S
C775 C774 1.399 . S
C775 C776 1.385 . S
C776 H762 0.931 . S
C776 C775 1.385 . S
C776 C777 1.389 . S
C777 C776 1.389 . S
C777 C778 1.387 . S
C778 H763 0.930 . S
C778 C773 1.390 . S
C778 C777 1.387 . S
H779 C791 0.930 1_545 S
H780 C793 0.930 . S
H781 C794 0.930 . S
H782 C798 0.959 1_565 S
H783 C798 0.959 . S
H784 C798 0.961 . S
H785 C799 0.960 . S
H786 C799 0.961 . S
H787 C799 0.959 . S
H788 C802 0.929 . S
H789 C803 0.931 . S
H790 C805 0.930 . S
C791 H779 0.930 1_565 S
C791 C792 1.399 . S
C791 C796 1.399 . S
C792 C791 1.399 . S
C792 C793 1.376 . S
C793 H780 0.930 . S
C793 C792 1.376 . S
C793 C794 1.388 . S
C794 H781 0.930 . S
C794 C793 1.388 . S
C794 C795 1.390 . S
C795 C794 1.390 . S
C795 C796 1.394 . S
C795 C801 1.465 . S
C796 C791 1.399 . S
C796 C795 1.394 . S
C796 C797 1.516 . S
C797 C796 1.516 . S
C797 C798 1.502 1_565 S
C797 C799 1.561 1_565 S
C797 C800 1.526 . S
C798 H782 0.959 1_545 S
C798 H783 0.959 . S
C798 H784 0.961 . S
C798 C797 1.502 1_545 S
C799 H785 0.960 . S
C799 H786 0.961 . S
C799 H787 0.959 . S
C799 C797 1.561 1_545 S
C800 C797 1.526 . S
C800 C801 1.396 . S
C800 C805 1.390 . S
C801 C795 1.465 . S
C801 C800 1.396 . S
C801 C802 1.399 . S
C802 H788 0.929 . S
C802 C801 1.399 . S
C802 C803 1.385 . S
C803 H789 0.931 . S
C803 C802 1.385 . S
C803 C804 1.389 . S
C804 C803 1.389 . S
C804 C805 1.387 . S
C805 H790 0.930 . S
C805 C800 1.390 . S
C805 C804 1.387 . S
H806 C818 0.930 . S
H807 C820 0.930 . S
H808 C821 0.930 . S
H809 C825 0.959 . S
H810 C825 0.959 . S
H811 C825 0.961 . S
H812 C826 0.960 . S
H813 C826 0.961 . S
H814 C826 0.959 . S
H815 C829 0.933 . S
H816 C830 0.931 . S
H817 C832 0.930 . S
C818 H806 0.930 . S
C818 C819 1.399 . S
C818 C823 1.399 . S
C819 C818 1.399 . S
C819 C820 1.376 . S
C820 H807 0.930 . S
C820 C819 1.376 . S
C820 C821 1.388 . S
C821 H808 0.930 . S
C821 C820 1.388 . S
C821 C822 1.390 . S
C822 C821 1.390 . S
C822 C823 1.394 . S
C822 C828 1.465 . S
C823 C818 1.399 . S
C823 C822 1.394 . S
C823 C824 1.516 . S
C824 C823 1.516 . S
C824 C825 1.502 . S
C824 C826 1.561 . S
C824 C827 1.526 . S
C825 H809 0.959 . S
C825 H810 0.959 . S
C825 H811 0.961 . S
C825 C824 1.502 . S
C826 H812 0.960 . S
C826 H813 0.961 . S
C826 H814 0.959 . S
C826 C824 1.561 . S
C827 C824 1.526 . S
C827 C828 1.396 . S
C827 C832 1.390 1_554 S
C828 C822 1.465 . S
C828 C827 1.396 . S
C828 C829 1.413 . S
C829 H815 0.933 . S
C829 C828 1.413 . S
C829 C830 1.367 1_554 S
C830 H816 0.931 . S
C830 C829 1.367 1_556 S
C830 C831 1.389 . S
C831 C830 1.389 . S
C831 C832 1.387 . S
C832 H817 0.930 . S
C832 C827 1.390 1_556 S
C832 C831 1.387 . S
H833 C845 0.930 . S
H834 C847 0.930 . S
H835 C848 0.930 . S
H836 C852 0.959 . S
H837 C852 0.959 1_565 S
H838 C852 0.961 . S
H839 C853 0.960 . S
H840 C853 0.961 . S
H841 C853 0.959 . S
H842 C856 0.929 . S
H843 C857 0.931 . S
H844 C859 0.930 1_565 S
C845 H833 0.930 . S
C845 C846 1.399 . S
C845 C850 1.399 . S
C846 C845 1.399 . S
C846 C847 1.376 . S
C847 H834 0.930 . S
C847 C846 1.376 . S
C847 C848 1.388 . S
C848 H835 0.930 . S
C848 C847 1.388 . S
C848 C849 1.390 . S
C849 C848 1.390 . S
C849 C850 1.394 . S
C849 C855 1.465 . S
C850 C845 1.399 . S
C850 C849 1.394 . S
C850 C851 1.516 . S
C851 C850 1.516 . S
C851 C852 1.502 . S
C851 C853 1.561 1_545 S
C851 C854 1.526 . S
C852 H836 0.959 . S
C852 H837 0.959 1_545 S
C852 H838 0.961 . S
C852 C851 1.502 . S
C853 H839 0.960 . S
C853 H840 0.961 . S
C853 H841 0.959 . S
C853 C851 1.561 1_565 S
C854 C851 1.526 . S
C854 C855 1.396 . S
C854 C859 1.390 . S
C855 C849 1.465 . S
C855 C854 1.396 . S
C855 C856 1.399 . S
C856 H842 0.929 . S
C856 C855 1.399 . S
C856 C857 1.385 . S
C857 H843 0.931 . S
C857 C856 1.385 . S
C857 C858 1.389 . S
C858 C857 1.389 . S
C858 C859 1.387 . S
C859 H844 0.930 1_545 S
C859 C854 1.390 . S
C859 C858 1.387 . S
H860 C872 0.930 . S
H861 C874 0.930 . S
H862 C875 0.930 . S
H863 C879 0.959 . S
H864 C879 0.959 . S
H865 C879 0.961 . S
H866 C880 0.960 . S
H867 C880 0.961 . S
H868 C880 0.959 . S
H869 C883 0.929 . S
H870 C884 0.931 . S
H871 C886 0.930 . S
C872 H860 0.930 . S
C872 C873 1.399 . S
C872 C877 1.399 . S
C873 C872 1.399 . S
C873 C874 1.376 . S
C874 H861 0.930 . S
C874 C873 1.376 . S
C874 C875 1.388 . S
C875 H862 0.930 . S
C875 C874 1.388 . S
C875 C876 1.390 . S
C876 C875 1.390 . S
C876 C877 1.394 . S
C876 C882 1.465 . S
C877 C872 1.399 . S
C877 C876 1.394 . S
C877 C878 1.516 . S
C878 C877 1.516 . S
C878 C879 1.502 . S
C878 C880 1.561 . S
C878 C881 1.526 . S
C879 H863 0.959 . S
C879 H864 0.959 . S
C879 H865 0.961 . S
C879 C878 1.502 . S
C880 H866 0.960 . S
C880 H867 0.961 . S
C880 H868 0.959 . S
C880 C878 1.561 . S
C881 C878 1.526 . S
C881 C882 1.396 . S
C881 C886 1.390 . S
C882 C876 1.465 . S
C882 C881 1.396 . S
C882 C883 1.399 . S
C883 H869 0.929 . S
C883 C882 1.399 . S
C883 C884 1.385 . S
C884 H870 0.931 . S
C884 C883 1.385 . S
C884 C885 1.389 . S
C885 C884 1.389 . S
C885 C886 1.387 . S
C886 H871 0.930 . S
C886 C881 1.390 . S
C886 C885 1.387 . S
H887 C899 0.930 . S
H888 C901 0.930 1_565 S
H889 C902 0.930 . S
H890 C906 0.959 . S
H891 C906 0.959 . S
H892 C906 0.961 . S
H893 C907 0.960 . S
H894 C907 0.961 . S
H895 C907 0.959 . S
H896 C910 0.929 . S
H897 C911 0.931 . S
H898 C913 0.930 . S
C899 H887 0.930 . S
C899 C900 1.399 . S
C899 C904 1.399 . S
C900 C899 1.399 . S
C900 C901 1.376 . S
C901 H888 0.930 1_545 S
C901 C900 1.376 . S
C901 C902 1.388 . S
C902 H889 0.930 . S
C902 C901 1.388 . S
C902 C903 1.390 . S
C903 C902 1.390 . S
C903 C904 1.394 . S
C903 C909 1.465 . S
C904 C899 1.399 . S
C904 C903 1.394 . S
C904 C905 1.516 . S
C905 C904 1.516 . S
C905 C906 1.502 . S
C905 C907 1.561 . S
C905 C908 1.526 . S
C906 H890 0.959 . S
C906 H891 0.959 . S
C906 H892 0.961 . S
C906 C905 1.502 . S
C907 H893 0.960 . S
C907 H894 0.961 . S
C907 H895 0.959 . S
C907 C905 1.561 . S
C908 C905 1.526 . S
C908 C909 1.396 . S
C908 C913 1.390 . S
C909 C903 1.465 . S
C909 C908 1.396 . S
C909 C910 1.399 . S
C910 H896 0.929 . S
C910 C909 1.399 . S
C910 C911 1.385 . S
C911 H897 0.931 . S
C911 C910 1.385 . S
C911 C912 1.389 . S
C912 C911 1.389 . S
C912 C913 1.387 . S
C913 H898 0.930 . S
C913 C908 1.390 . S
C913 C912 1.387 . S
H914 C926 0.930 . S
H915 C928 0.930 . S
H916 C929 0.930 . S
H917 C933 0.959 . S
H918 C933 0.959 . S
H919 C933 0.961 . S
H920 C934 0.984 . S
H921 C934 0.961 . S
H922 C934 0.959 . S
H923 C937 0.929 . S
H924 C938 0.931 . S
H925 C940 0.930 . S
C926 H914 0.930 . S
C926 C927 1.399 . S
C926 C931 1.399 1_554 S
C927 C926 1.399 . S
C927 C928 1.376 . S
C928 H915 0.930 . S
C928 C927 1.376 . S
C928 C929 1.388 1_554 S
C929 H916 0.930 . S
C929 C928 1.388 1_556 S
C929 C930 1.390 . S
C930 C929 1.390 . S
C930 C931 1.394 . S
C930 C936 1.465 . S
C931 C926 1.399 1_556 S
C931 C930 1.394 . S
C931 C932 1.516 . S
C932 C931 1.516 . S
C932 C933 1.502 . S
C932 C934 1.561 . S
C932 C935 1.526 . S
C933 H917 0.959 . S
C933 H918 0.959 . S
C933 H919 0.961 . S
C933 C932 1.502 . S
C934 H920 0.984 . S
C934 H921 0.961 . S
C934 H922 0.959 . S
C934 C932 1.561 . S
C935 C932 1.526 . S
C935 C936 1.396 . S
C935 C940 1.390 . S
C936 C930 1.465 . S
C936 C935 1.396 . S
C936 C937 1.399 . S
C937 H923 0.929 . S
C937 C936 1.399 . S
C937 C938 1.385 . S
C938 H924 0.931 . S
C938 C937 1.385 . S
C938 C939 1.389 . S
C939 C938 1.389 . S
C939 C940 1.387 . S
C940 H925 0.930 . S
C940 C935 1.390 . S
C940 C939 1.387 . S
H941 C953 0.930 . S
H942 C955 0.930 . S
H943 C956 0.930 . S
H944 C960 0.959 . S
H945 C960 0.959 . S
H946 C960 0.961 . S
H947 C961 0.960 . S
H948 C961 0.961 . S
H949 C961 0.959 . S
H950 C964 0.929 . S
H951 C965 0.931 . S
H952 C967 0.930 . S
C953 H941 0.930 . S
C953 C954 1.399 . S
C953 C958 1.399 . S
C954 C953 1.399 . S
C954 C955 1.376 . S
C955 H942 0.930 . S
C955 C954 1.376 . S
C955 C956 1.388 . S
C956 H943 0.930 . S
C956 C955 1.388 . S
C956 C957 1.390 . S
C957 C956 1.390 . S
C957 C958 1.394 . S
C957 C963 1.465 . S
C958 C953 1.399 . S
C958 C957 1.394 . S
C958 C959 1.516 . S
C959 C958 1.516 . S
C959 C960 1.502 . S
C959 C961 1.561 1_565 S
C959 C962 1.526 . S
C960 H944 0.959 . S
C960 H945 0.959 . S
C960 H946 0.961 . S
C960 C959 1.502 . S
C961 H947 0.960 . S
C961 H948 0.961 . S
C961 H949 0.959 . S
C961 C959 1.561 1_545 S
C962 C959 1.526 . S
C962 C963 1.396 . S
C962 C967 1.390 . S
C963 C957 1.465 . S
C963 C962 1.396 . S
C963 C964 1.399 . S
C964 H950 0.929 . S
C964 C963 1.399 . S
C964 C965 1.385 . S
C965 H951 0.931 . S
C965 C964 1.385 . S
C965 C966 1.389 . S
C966 C965 1.389 . S
C966 C967 1.387 . S
C967 H952 0.930 . S
C967 C962 1.390 . S
C967 C966 1.387 . S
H968 C980 0.930 . S
H969 C982 0.930 . S
H970 C983 0.930 . S
H971 C987 0.959 . S
H972 C987 0.959 . S
H973 C987 0.961 . S
H974 C988 0.960 . S
H975 C988 0.961 . S
H976 C988 0.959 . S
H977 C991 0.929 . S
H978 C992 0.931 . S
H979 C994 0.930 . S
C980 H968 0.930 . S
C980 C981 1.399 . S
C980 C985 1.399 . S
C981 C980 1.399 . S
C981 C982 1.376 . S
C982 H969 0.930 . S
C982 C981 1.376 . S
C982 C983 1.388 . S
C983 H970 0.930 . S
C983 C982 1.388 . S
C983 C984 1.390 . S
C984 C983 1.390 . S
C984 C985 1.394 . S
C984 C990 1.465 . S
C985 C980 1.399 . S
C985 C984 1.394 . S
C985 C986 1.516 . S
C986 C985 1.516 . S
C986 C987 1.502 . S
C986 C988 1.561 . S
C986 C989 1.526 . S
C987 H971 0.959 . S
C987 H972 0.959 . S
C987 H973 0.961 . S
C987 C986 1.502 . S
C988 H974 0.960 . S
C988 H975 0.961 . S
C988 H976 0.959 . S
C988 C986 1.561 . S
C989 C986 1.526 . S
C989 C990 1.396 . S
C989 C994 1.390 . S
C990 C984 1.465 . S
C990 C989 1.396 . S
C990 C991 1.399 . S
C991 H977 0.929 . S
C991 C990 1.399 . S
C991 C992 1.385 . S
C992 H978 0.931 . S
C992 C991 1.385 . S
C992 C993 1.389 . S
C993 C992 1.389 . S
C993 C994 1.387 . S
C994 H979 0.930 . S
C994 C989 1.390 . S
C994 C993 1.387 . S
H995 C1007 0.930 . S
H996 C1009 0.930 . S
H997 C1010 0.930 . S
H998 C1014 0.959 . S
H999 C1014 0.959 . S
H1000 C1014 0.961 . S
H1001 C1015 0.960 . S
H1002 C1015 0.961 . S
H1003 C1015 0.959 . S
H1004 C1018 0.929 . S
H1005 C1019 0.931 . S
H1006 C1021 0.930 . S
C1007 H995 0.930 . S
C1007 C1008 1.399 . S
C1007 C1012 1.399 . S
C1008 C1007 1.399 . S
C1008 C1009 1.376 . S
C1009 H996 0.930 . S
C1009 C1008 1.376 . S
C1009 C1010 1.388 . S
C1010 H997 0.930 . S
C1010 C1009 1.388 . S
C1010 C1011 1.390 . S
C1011 C1010 1.390 . S
C1011 C1012 1.394 . S
C1011 C1017 1.465 . S
C1012 C1007 1.399 . S
C1012 C1011 1.394 . S
C1012 C1013 1.516 . S
C1013 C1012 1.516 . S
C1013 C1014 1.502 . S
C1013 C1015 1.561 . S
C1013 C1016 1.526 . S
C1014 H998 0.959 . S
C1014 H999 0.959 . S
C1014 H1000 0.961 . S
C1014 C1013 1.502 . S
C1015 H1001 0.960 . S
C1015 H1002 0.961 . S
C1015 H1003 0.959 . S
C1015 C1013 1.561 . S
C1016 C1013 1.526 . S
C1016 C1017 1.396 . S
C1016 C1021 1.390 . S
C1017 C1011 1.465 . S
C1017 C1016 1.396 . S
C1017 C1018 1.399 . S
C1018 H1004 0.929 . S
C1018 C1017 1.399 . S
C1018 C1019 1.385 . S
C1019 H1005 0.931 . S
C1019 C1018 1.385 . S
C1019 C1020 1.389 . S
C1020 C1019 1.389 . S
C1020 C1021 1.387 . S
C1021 H1006 0.930 . S
C1021 C1016 1.390 . S
C1021 C1020 1.387 . S
H1022 C1034 0.930 . S
H1023 C1036 0.930 . S
H1024 C1037 0.930 . S
H1025 C1041 0.959 . S
H1026 C1041 0.959 . S
H1027 C1041 0.961 1_655 S
H1028 C1042 0.960 . S
H1029 C1042 0.961 1_455 S
H1030 C1042 0.959 . S
H1031 C1045 0.929 . S
H1032 C1046 0.931 . S
H1033 C1048 0.930 . S
C1034 H1022 0.930 . S
C1034 C1035 1.399 . S
C1034 C1039 1.399 . S
C1035 C1034 1.399 . S
C1035 C1036 1.376 . S
C1036 H1023 0.930 . S
C1036 C1035 1.376 . S
C1036 C1037 1.388 . S
C1037 H1024 0.930 . S
C1037 C1036 1.388 . S
C1037 C1038 1.390 . S
C1038 C1037 1.390 . S
C1038 C1039 1.394 . S
C1038 C1044 1.465 1_655 S
C1039 C1034 1.399 . S
C1039 C1038 1.394 . S
C1039 C1040 1.516 1_655 S
C1040 C1039 1.516 1_455 S
C1040 C1041 1.502 . S
C1040 C1042 1.561 1_455 S
C1040 C1043 1.526 . S
C1041 H1025 0.959 . S
C1041 H1026 0.959 . S
C1041 H1027 0.961 1_455 S
C1041 C1040 1.502 . S
C1042 H1028 0.960 . S
C1042 H1029 0.961 1_655 S
C1042 H1030 0.959 . S
C1042 C1040 1.561 1_655 S
C1043 C1040 1.526 . S
C1043 C1044 1.396 . S
C1043 C1048 1.390 . S
C1044 C1038 1.465 1_455 S
C1044 C1043 1.396 . S
C1044 C1045 1.399 . S
C1045 H1031 0.929 . S
C1045 C1044 1.399 . S
C1045 C1046 1.385 . S
C1046 H1032 0.931 . S
C1046 C1045 1.385 . S
C1046 C1047 1.389 . S
C1047 C1046 1.389 . S
C1047 C1048 1.387 . S
C1048 H1033 0.930 . S
C1048 C1043 1.390 . S
C1048 C1047 1.387 . S
H1049 C1061 0.930 . S
H1050 C1063 0.930 . S
H1051 C1064 0.930 . S
H1052 C1068 0.959 . S
H1053 C1068 0.959 . S
H1054 C1068 0.961 . S
H1055 C1069 0.960 . S
H1056 C1069 0.961 . S
H1057 C1069 0.959 1_455 S
H1058 C1072 0.929 . S
H1059 C1073 0.931 . S
H1060 C1075 0.930 1_655 S
C1061 H1049 0.930 . S
C1061 C1062 1.399 . S
C1061 C1066 1.399 . S
C1062 C1061 1.399 . S
C1062 C1063 1.378 1_655 S
C1063 H1050 0.930 . S
C1063 C1062 1.378 1_455 S
C1063 C1064 1.388 . S
C1064 H1051 0.930 . S
C1064 C1063 1.388 . S
C1064 C1065 1.390 . S
C1065 C1064 1.390 . S
C1065 C1066 1.394 1_455 S
C1065 C1071 1.465 . S
C1066 C1061 1.399 . S
C1066 C1065 1.394 1_655 S
C1066 C1067 1.516 . S
C1067 C1066 1.516 . S
C1067 C1068 1.502 . S
C1067 C1069 1.561 . S
C1067 C1070 1.526 1_655 S
C1068 H1052 0.959 . S
C1068 H1053 0.959 . S
C1068 H1054 0.961 . S
C1068 C1067 1.502 . S
C1069 H1055 0.960 . S
C1069 H1056 0.961 . S
C1069 H1057 0.959 1_655 S
C1069 C1067 1.561 . S
C1070 C1067 1.526 1_455 S
C1070 C1071 1.396 . S
C1070 C1075 1.390 . S
C1071 C1065 1.465 . S
C1071 C1070 1.396 . S
C1071 C1072 1.399 . S
C1072 H1058 0.929 . S
C1072 C1071 1.399 . S
C1072 C1073 1.385 . S
C1073 H1059 0.931 . S
C1073 C1072 1.385 . S
C1073 C1074 1.389 . S
C1074 C1073 1.389 . S
C1074 C1075 1.387 . S
C1075 H1060 0.930 1_455 S
C1075 C1070 1.390 . S
C1075 C1074 1.387 . S
H1076 C1088 0.930 . S
H1077 C1090 0.930 . S
H1078 C1091 0.930 . S
H1079 C1095 0.959 . S
H1080 C1095 0.959 . S
H1081 C1095 0.961 . S
H1082 C1096 0.960 . S
H1083 C1096 0.961 . S
H1084 C1096 0.959 . S
H1085 C1099 0.929 . S
H1086 C1100 0.931 . S
H1087 C1102 0.930 . S
C1088 H1076 0.930 . S
C1088 C1089 1.399 . S
C1088 C1093 1.399 . S
C1089 C1088 1.399 . S
C1089 C1090 1.376 . S
C1090 H1077 0.930 . S
C1090 C1089 1.376 . S
C1090 C1091 1.388 . S
C1091 H1078 0.930 . S
C1091 C1090 1.388 . S
C1091 C1092 1.390 . S
C1092 C1091 1.390 . S
C1092 C1093 1.394 . S
C1092 C1098 1.465 . S
C1093 C1088 1.399 . S
C1093 C1092 1.394 . S
C1093 C1094 1.516 . S
C1094 C1093 1.516 . S
C1094 C1095 1.502 . S
C1094 C1096 1.561 . S
C1094 C1097 1.526 . S
C1095 H1079 0.959 . S
C1095 H1080 0.959 . S
C1095 H1081 0.961 . S
C1095 C1094 1.502 . S
C1096 H1082 0.960 . S
C1096 H1083 0.961 . S
C1096 H1084 0.959 . S
C1096 C1094 1.561 . S
C1097 C1094 1.526 . S
C1097 C1098 1.396 . S
C1097 C1102 1.390 . S
C1098 C1092 1.465 . S
C1098 C1097 1.396 . S
C1098 C1099 1.399 . S
C1099 H1085 0.929 . S
C1099 C1098 1.399 . S
C1099 C1100 1.385 . S
C1100 H1086 0.931 . S
C1100 C1099 1.385 . S
C1100 C1101 1.389 . S
C1101 C1100 1.389 . S
C1101 C1102 1.387 . S
C1102 H1087 0.930 . S
C1102 C1097 1.390 . S
C1102 C1101 1.387 . S
H1103 C1115 0.930 . S
H1104 C1117 0.930 . S
H1105 C1118 0.930 . S
H1106 C1122 0.959 . S
H1107 C1122 0.959 . S
H1108 C1122 0.961 . S
H1109 C1123 0.960 . S
H1110 C1123 0.961 . S
H1111 C1123 0.959 . S
H1112 C1126 0.929 . S
H1113 C1127 0.931 . S
H1114 C1129 0.930 . S
C1115 H1103 0.930 . S
C1115 C1116 1.399 . S
C1115 C1120 1.399 . S
C1116 C1115 1.399 . S
C1116 C1117 1.376 . S
C1117 H1104 0.930 . S
C1117 C1116 1.376 . S
C1117 C1118 1.388 . S
C1118 H1105 0.930 . S
C1118 C1117 1.388 . S
C1118 C1119 1.390 . S
C1119 C1118 1.390 . S
C1119 C1120 1.394 . S
C1119 C1125 1.465 . S
C1120 C1115 1.399 . S
C1120 C1119 1.394 . S
C1120 C1121 1.516 . S
C1121 C1120 1.516 . S
C1121 C1122 1.502 . S
C1121 C1123 1.561 . S
C1121 C1124 1.526 . S
C1122 H1106 0.959 . S
C1122 H1107 0.959 . S
C1122 H1108 0.961 . S
C1122 C1121 1.502 . S
C1123 H1109 0.960 . S
C1123 H1110 0.961 . S
C1123 H1111 0.959 . S
C1123 C1121 1.561 . S
C1124 C1121 1.526 . S
C1124 C1125 1.396 . S
C1124 C1129 1.390 . S
C1125 C1119 1.465 . S
C1125 C1124 1.396 . S
C1125 C1126 1.399 . S
C1126 H1112 0.929 . S
C1126 C1125 1.399 . S
C1126 C1127 1.385 . S
C1127 H1113 0.931 . S
C1127 C1126 1.385 . S
C1127 C1128 1.389 . S
C1128 C1127 1.389 . S
C1128 C1129 1.387 . S
C1129 H1114 0.930 . S
C1129 C1124 1.390 . S
C1129 C1128 1.387 . S
H1130 C1142 0.930 . S
H1131 C1144 0.930 . S
H1132 C1145 0.930 . S
H1133 C1149 0.959 1_455 S
H1134 C1149 0.959 . S
H1135 C1149 0.961 1_455 S
H1136 C1150 0.960 . S
H1137 C1150 0.961 . S
H1138 C1150 0.959 . S
H1139 C1153 0.929 . S
H1140 C1154 0.931 . S
H1141 C1156 0.930 . S
C1142 H1130 0.930 . S
C1142 C1143 1.399 . S
C1142 C1147 1.399 . S
C1143 C1142 1.399 . S
C1143 C1144 1.376 . S
C1144 H1131 0.930 . S
C1144 C1143 1.376 . S
C1144 C1145 1.388 . S
C1145 H1132 0.930 . S
C1145 C1144 1.388 . S
C1145 C1146 1.390 . S
C1146 C1145 1.390 . S
C1146 C1147 1.394 . S
C1146 C1152 1.465 1_455 S
C1147 C1142 1.399 . S
C1147 C1146 1.394 . S
C1147 C1148 1.516 1_455 S
C1148 C1147 1.516 1_655 S
C1148 C1149 1.502 . S
C1148 C1150 1.561 . S
C1148 C1151 1.526 . S
C1149 H1133 0.959 1_655 S
C1149 H1134 0.959 . S
C1149 H1135 0.961 1_655 S
C1149 C1148 1.502 . S
C1150 H1136 0.960 . S
C1150 H1137 0.961 . S
C1150 H1138 0.959 . S
C1150 C1148 1.561 . S
C1151 C1148 1.526 . S
C1151 C1152 1.396 . S
C1151 C1156 1.390 . S
C1152 C1146 1.465 1_655 S
C1152 C1151 1.396 . S
C1152 C1153 1.399 . S
C1153 H1139 0.929 . S
C1153 C1152 1.399 . S
C1153 C1154 1.385 . S
C1154 H1140 0.931 . S
C1154 C1153 1.385 . S
C1154 C1155 1.389 . S
C1155 C1154 1.389 . S
C1155 C1156 1.387 . S
C1156 H1141 0.930 . S
C1156 C1151 1.390 . S
C1156 C1155 1.387 . S
H1157 C1169 0.930 . S
H1158 C1171 0.930 . S
H1159 C1172 0.930 . S
H1160 C1176 0.959 . S
H1161 C1176 0.959 . S
H1162 C1176 0.961 . S
H1163 C1177 0.960 . S
H1164 C1177 0.961 . S
H1165 C1177 0.959 . S
H1166 C1180 0.929 . S
H1167 C1181 0.931 . S
H1168 C1183 0.930 . S
C1169 H1157 0.930 . S
C1169 C1170 1.399 . S
C1169 C1174 1.399 . S
C1170 C1169 1.399 . S
C1170 C1171 1.376 . S
C1171 H1158 0.930 . S
C1171 C1170 1.376 . S
C1171 C1172 1.388 . S
C1172 H1159 0.930 . S
C1172 C1171 1.388 . S
C1172 C1173 1.390 . S
C1173 C1172 1.390 . S
C1173 C1174 1.394 . S
C1173 C1179 1.465 . S
C1174 C1169 1.399 . S
C1174 C1173 1.394 . S
C1174 C1175 1.516 1_455 S
C1175 C1174 1.516 1_655 S
C1175 C1176 1.502 . S
C1175 C1177 1.561 1_655 S
C1175 C1178 1.526 . S
C1176 H1160 0.959 . S
C1176 H1161 0.959 . S
C1176 H1162 0.961 . S
C1176 C1175 1.502 . S
C1177 H1163 0.960 . S
C1177 H1164 0.961 . S
C1177 H1165 0.959 . S
C1177 C1175 1.561 1_455 S
C1178 C1175 1.526 . S
C1178 C1179 1.396 1_655 S
C1178 C1183 1.390 . S
C1179 C1173 1.465 . S
C1179 C1178 1.396 1_455 S
C1179 C1180 1.399 . S
C1180 H1166 0.929 . S
C1180 C1179 1.399 . S
C1180 C1181 1.385 1_455 S
C1181 H1167 0.931 . S
C1181 C1180 1.385 1_655 S
C1181 C1182 1.389 . S
C1182 C1181 1.389 . S
C1182 C1183 1.387 . S
C1183 H1168 0.930 . S
C1183 C1178 1.390 . S
C1183 C1182 1.387 . S
H1184 C1196 0.930 . S
H1185 C1198 0.930 . S
H1186 C1199 0.930 . S
H1187 C1203 0.959 . S
H1188 C1203 0.959 . S
H1189 C1203 0.961 . S
H1190 C1204 0.960 . S
H1191 C1204 0.961 . S
H1192 C1204 0.959 . S
H1193 C1207 0.929 . S
H1194 C1208 0.931 . S
H1195 C1210 0.930 . S
C1196 H1184 0.930 . S
C1196 C1197 1.399 . S
C1196 C1201 1.399 . S
C1197 C1196 1.399 . S
C1197 C1198 1.376 . S
C1198 H1185 0.930 . S
C1198 C1197 1.376 . S
C1198 C1199 1.388 . S
C1199 H1186 0.930 . S
C1199 C1198 1.388 . S
C1199 C1200 1.390 . S
C1200 C1199 1.390 . S
C1200 C1201 1.394 . S
C1200 C1206 1.465 . S
C1201 C1196 1.399 . S
C1201 C1200 1.394 . S
C1201 C1202 1.516 . S
C1202 C1201 1.516 . S
C1202 C1203 1.502 . S
C1202 C1204 1.561 . S
C1202 C1205 1.526 . S
C1203 H1187 0.959 . S
C1203 H1188 0.959 . S
C1203 H1189 0.961 . S
C1203 C1202 1.502 . S
C1204 H1190 0.960 . S
C1204 H1191 0.961 . S
C1204 H1192 0.959 . S
C1204 C1202 1.561 . S
C1205 C1202 1.526 . S
C1205 C1206 1.396 . S
C1205 C1210 1.390 . S
C1206 C1200 1.465 . S
C1206 C1205 1.396 . S
C1206 C1207 1.399 . S
C1207 H1193 0.929 . S
C1207 C1206 1.399 . S
C1207 C1208 1.385 . S
C1208 H1194 0.931 . S
C1208 C1207 1.385 . S
C1208 C1209 1.389 . S
C1209 C1208 1.389 . S
C1209 C1210 1.387 . S
C1210 H1195 0.930 . S
C1210 C1205 1.390 . S
C1210 C1209 1.387 . S
H1211 C1223 0.930 . S
H1212 C1225 0.930 . S
H1213 C1226 0.930 . S
H1214 C1230 0.959 . S
H1215 C1230 0.959 . S
H1216 C1230 0.961 . S
H1217 C1231 0.960 . S
H1218 C1231 0.961 . S
H1219 C1231 0.959 . S
H1220 C1234 0.929 . S
H1221 C1235 0.931 . S
H1222 C1237 0.930 . S
C1223 H1211 0.930 . S
C1223 C1224 1.399 . S
C1223 C1228 1.399 . S
C1224 C1223 1.399 . S
C1224 C1225 1.376 . S
C1225 H1212 0.930 . S
C1225 C1224 1.376 . S
C1225 C1226 1.388 . S
C1226 H1213 0.930 . S
C1226 C1225 1.388 . S
C1226 C1227 1.390 . S
C1227 C1226 1.390 . S
C1227 C1228 1.394 . S
C1227 C1233 1.465 . S
C1228 C1223 1.399 . S
C1228 C1227 1.394 . S
C1228 C1229 1.516 . S
C1229 C1228 1.516 . S
C1229 C1230 1.502 . S
C1229 C1231 1.561 . S
C1229 C1232 1.526 . S
C1230 H1214 0.959 . S
C1230 H1215 0.959 . S
C1230 H1216 0.961 . S
C1230 C1229 1.502 . S
C1231 H1217 0.960 . S
C1231 H1218 0.961 . S
C1231 H1219 0.959 . S
C1231 C1229 1.561 . S
C1232 C1229 1.526 . S
C1232 C1233 1.396 . S
C1232 C1237 1.390 . S
C1233 C1227 1.465 . S
C1233 C1232 1.396 . S
C1233 C1234 1.399 . S
C1234 H1220 0.929 . S
C1234 C1233 1.399 . S
C1234 C1235 1.385 . S
C1235 H1221 0.931 . S
C1235 C1234 1.385 . S
C1235 C1236 1.389 . S
C1236 C1235 1.389 . S
C1236 C1237 1.387 . S
C1237 H1222 0.930 . S
C1237 C1232 1.390 . S
C1237 C1236 1.387 . S
H1238 C1250 0.930 . S
H1239 C1252 0.930 . S
H1240 C1253 0.930 . S
H1241 C1257 0.959 . S
H1242 C1257 0.959 . S
H1243 C1257 0.961 . S
H1244 C1258 0.960 . S
H1245 C1258 0.961 . S
H1246 C1258 0.959 . S
H1247 C1261 0.929 . S
H1248 C1262 0.931 . S
H1249 C1264 0.930 . S
C1250 H1238 0.930 . S
C1250 C1251 1.399 . S
C1250 C1255 1.399 . S
C1251 C1250 1.399 . S
C1251 C1252 1.376 . S
C1252 H1239 0.930 . S
C1252 C1251 1.376 . S
C1252 C1253 1.388 . S
C1253 H1240 0.930 . S
C1253 C1252 1.388 . S
C1253 C1254 1.390 . S
C1254 C1253 1.390 . S
C1254 C1255 1.394 . S
C1254 C1260 1.465 . S
C1255 C1250 1.399 . S
C1255 C1254 1.394 . S
C1255 C1256 1.516 . S
C1256 C1255 1.516 . S
C1256 C1257 1.502 . S
C1256 C1258 1.561 . S
C1256 C1259 1.526 . S
C1257 H1241 0.959 . S
C1257 H1242 0.959 . S
C1257 H1243 0.961 . S
C1257 C1256 1.502 . S
C1258 H1244 0.960 . S
C1258 H1245 0.961 . S
C1258 H1246 0.959 . S
C1258 C1256 1.561 . S
C1259 C1256 1.526 . S
C1259 C1260 1.396 . S
C1259 C1264 1.390 . S
C1260 C1254 1.465 . S
C1260 C1259 1.396 . S
C1260 C1261 1.399 . S
C1261 H1247 0.929 . S
C1261 C1260 1.399 . S
C1261 C1262 1.385 . S
C1262 H1248 0.931 . S
C1262 C1261 1.385 . S
C1262 C1263 1.389 . S
C1263 C1262 1.389 . S
C1263 C1264 1.387 . S
C1264 H1249 0.930 . S
C1264 C1259 1.390 . S
C1264 C1263 1.387 . S
H1265 C1277 0.929 . S
H1266 C1279 0.930 . S
H1267 C1280 0.930 . S
H1268 C1284 0.959 . S
H1269 C1284 0.959 . S
H1270 C1284 0.961 . S
H1271 C1285 0.960 . S
H1272 C1285 0.961 . S
H1273 C1285 0.959 . S
H1274 C1288 0.929 . S
H1275 C1289 0.931 . S
H1276 C1291 0.930 . S
C1277 H1265 0.929 . S
C1277 C1278 1.398 . S
C1277 C1282 1.401 1_655 S
C1278 C1277 1.398 . S
C1278 C1279 1.376 . S
C1279 H1266 0.930 . S
C1279 C1278 1.376 . S
C1279 C1280 1.388 1_655 S
C1280 H1267 0.930 . S
C1280 C1279 1.388 1_455 S
C1280 C1281 1.390 . S
C1281 C1280 1.390 . S
C1281 C1282 1.394 . S
C1281 C1287 1.465 . S
C1282 C1277 1.401 1_455 S
C1282 C1281 1.394 . S
C1282 C1283 1.516 . S
C1283 C1282 1.516 . S
C1283 C1284 1.502 . S
C1283 C1285 1.561 . S
C1283 C1286 1.526 . S
C1284 H1268 0.959 . S
C1284 H1269 0.959 . S
C1284 H1270 0.961 . S
C1284 C1283 1.502 . S
C1285 H1271 0.960 . S
C1285 H1272 0.961 . S
C1285 H1273 0.959 . S
C1285 C1283 1.561 . S
C1286 C1283 1.526 . S
C1286 C1287 1.396 . S
C1286 C1291 1.390 . S
C1287 C1281 1.465 . S
C1287 C1286 1.396 . S
C1287 C1288 1.399 . S
C1288 H1274 0.929 . S
C1288 C1287 1.399 . S
C1288 C1289 1.385 . S
C1289 H1275 0.931 . S
C1289 C1288 1.385 . S
C1289 C1290 1.389 . S
C1290 C1289 1.389 . S
C1290 C1291 1.387 . S
C1291 H1276 0.930 . S
C1291 C1286 1.390 . S
C1291 C1290 1.387 . S
H1292 C1304 0.930 . S
H1293 C1306 0.930 . S
H1294 C1307 0.930 . S
H1295 C1311 0.959 . S
H1296 C1311 0.959 . S
H1297 C1311 0.961 . S
H1298 C1312 0.960 . S
H1299 C1312 0.961 . S
H1300 C1312 0.959 . S
H1301 C1315 0.929 . S
H1302 C1316 0.931 . S
H1303 C1318 0.930 . S
C1304 H1292 0.930 . S
C1304 C1305 1.399 . S
C1304 C1309 1.399 . S
C1305 C1304 1.399 . S
C1305 C1306 1.376 . S
C1306 H1293 0.930 . S
C1306 C1305 1.376 . S
C1306 C1307 1.388 . S
C1307 H1294 0.930 . S
C1307 C1306 1.388 . S
C1307 C1308 1.390 . S
C1308 C1307 1.390 . S
C1308 C1309 1.394 . S
C1308 C1314 1.465 . S
C1309 C1304 1.399 . S
C1309 C1308 1.394 . S
C1309 C1310 1.516 . S
C1310 C1309 1.516 . S
C1310 C1311 1.502 . S
C1310 C1312 1.561 . S
C1310 C1313 1.526 . S
C1311 H1295 0.959 . S
C1311 H1296 0.959 . S
C1311 H1297 0.961 . S
C1311 C1310 1.502 . S
C1312 H1298 0.960 . S
C1312 H1299 0.961 . S
C1312 H1300 0.959 . S
C1312 C1310 1.561 . S
C1313 C1310 1.526 . S
C1313 C1314 1.396 . S
C1313 C1318 1.390 . S
C1314 C1308 1.465 . S
C1314 C1313 1.396 . S
C1314 C1315 1.399 . S
C1315 H1301 0.929 . S
C1315 C1314 1.399 . S
C1315 C1316 1.385 . S
C1316 H1302 0.931 . S
C1316 C1315 1.385 . S
C1316 C1317 1.389 . S
C1317 C1316 1.389 . S
C1317 C1318 1.387 . S
C1318 H1303 0.930 . S
C1318 C1313 1.390 . S
C1318 C1317 1.387 . S
H1319 C1331 0.930 . S
H1320 C1333 0.930 . S
H1321 C1334 0.930 . S
H1322 C1338 0.959 . S
H1323 C1338 0.959 . S
H1324 C1338 0.961 . S
H1325 C1339 0.960 . S
H1326 C1339 0.961 . S
H1327 C1339 0.959 . S
H1328 C1342 0.929 . S
H1329 C1343 0.931 . S
H1330 C1345 0.930 . S
C1331 H1319 0.930 . S
C1331 C1332 1.399 . S
C1331 C1336 1.399 . S
C1332 C1331 1.399 . S
C1332 C1333 1.376 . S
C1333 H1320 0.930 . S
C1333 C1332 1.376 . S
C1333 C1334 1.388 . S
C1334 H1321 0.930 . S
C1334 C1333 1.388 . S
C1334 C1335 1.390 . S
C1335 C1334 1.390 . S
C1335 C1336 1.394 . S
C1335 C1341 1.465 . S
C1336 C1331 1.399 . S
C1336 C1335 1.394 . S
C1336 C1337 1.516 . S
C1337 C1336 1.516 . S
C1337 C1338 1.502 . S
C1337 C1339 1.561 . S
C1337 C1340 1.526 . S
C1338 H1322 0.959 . S
C1338 H1323 0.959 . S
C1338 H1324 0.961 . S
C1338 C1337 1.502 . S
C1339 H1325 0.960 . S
C1339 H1326 0.961 . S
C1339 H1327 0.959 . S
C1339 C1337 1.561 . S
C1340 C1337 1.526 . S
C1340 C1341 1.396 . S
C1340 C1345 1.390 . S
C1341 C1335 1.465 . S
C1341 C1340 1.396 . S
C1341 C1342 1.399 . S
C1342 H1328 0.929 . S
C1342 C1341 1.399 . S
C1342 C1343 1.385 . S
C1343 H1329 0.931 . S
C1343 C1342 1.385 . S
C1343 C1344 1.389 . S
C1344 C1343 1.389 . S
C1344 C1345 1.387 . S
C1345 H1330 0.930 . S
C1345 C1340 1.390 . S
C1345 C1344 1.387 . S
H1346 C1358 0.930 . S
H1347 C1360 0.930 . S
H1348 C1361 0.930 . S
H1349 C1365 0.959 . S
H1350 C1365 0.959 . S
H1351 C1365 0.961 . S
H1352 C1366 0.960 . S
H1353 C1366 0.961 . S
H1354 C1366 0.959 . S
H1355 C1369 0.929 . S
H1356 C1370 0.931 . S
H1357 C1372 0.930 . S
C1358 H1346 0.930 . S
C1358 C1359 1.399 . S
C1358 C1363 1.399 . S
C1359 C1358 1.399 . S
C1359 C1360 1.376 . S
C1360 H1347 0.930 . S
C1360 C1359 1.376 . S
C1360 C1361 1.388 . S
C1361 H1348 0.930 . S
C1361 C1360 1.388 . S
C1361 C1362 1.390 . S
C1362 C1361 1.390 . S
C1362 C1363 1.394 . S
C1362 C1368 1.465 . S
C1363 C1358 1.399 . S
C1363 C1362 1.394 . S
C1363 C1364 1.516 . S
C1364 C1363 1.516 . S
C1364 C1365 1.502 . S
C1364 C1366 1.561 . S
C1364 C1367 1.526 . S
C1365 H1349 0.959 . S
C1365 H1350 0.959 . S
C1365 H1351 0.961 . S
C1365 C1364 1.502 . S
C1366 H1352 0.960 . S
C1366 H1353 0.961 . S
C1366 H1354 0.959 . S
C1366 C1364 1.561 . S
C1367 C1364 1.526 . S
C1367 C1368 1.396 . S
C1367 C1372 1.390 . S
C1368 C1362 1.465 . S
C1368 C1367 1.396 . S
C1368 C1369 1.399 . S
C1369 H1355 0.929 . S
C1369 C1368 1.399 . S
C1369 C1370 1.385 . S
C1370 H1356 0.931 . S
C1370 C1369 1.385 . S
C1370 C1371 1.389 . S
C1371 C1370 1.389 . S
C1371 C1372 1.387 . S
C1372 H1357 0.930 . S
C1372 C1367 1.390 . S
C1372 C1371 1.387 . S
H1373 C1385 0.930 . S
H1374 C1387 0.930 . S
H1375 C1388 0.930 . S
H1376 C1392 0.959 . S
H1377 C1392 0.959 . S
H1378 C1392 0.961 . S
H1379 C1393 0.960 . S
H1380 C1393 0.961 . S
H1381 C1393 0.959 . S
H1382 C1396 0.929 . S
H1383 C1397 0.931 . S
H1384 C1399 0.930 . S
C1385 H1373 0.930 . S
C1385 C1386 1.399 . S
C1385 C1390 1.399 . S
C1386 C1385 1.399 . S
C1386 C1387 1.376 . S
C1387 H1374 0.930 . S
C1387 C1386 1.376 . S
C1387 C1388 1.388 . S
C1388 H1375 0.930 . S
C1388 C1387 1.388 . S
C1388 C1389 1.390 . S
C1389 C1388 1.390 . S
C1389 C1390 1.394 . S
C1389 C1395 1.465 . S
C1390 C1385 1.399 . S
C1390 C1389 1.394 . S
C1390 C1391 1.516 . S
C1391 C1390 1.516 . S
C1391 C1392 1.502 . S
C1391 C1393 1.561 . S
C1391 C1394 1.526 . S
C1392 H1376 0.959 . S
C1392 H1377 0.959 . S
C1392 H1378 0.961 . S
C1392 C1391 1.502 . S
C1393 H1379 0.960 . S
C1393 H1380 0.961 . S
C1393 H1381 0.959 . S
C1393 C1391 1.561 . S
C1394 C1391 1.526 . S
C1394 C1395 1.396 . S
C1394 C1399 1.390 1_655 S
C1395 C1389 1.465 . S
C1395 C1394 1.396 . S
C1395 C1396 1.399 . S
C1396 H1382 0.929 . S
C1396 C1395 1.399 . S
C1396 C1397 1.385 1_655 S
C1397 H1383 0.931 . S
C1397 C1396 1.385 1_455 S
C1397 C1398 1.389 . S
C1398 C1397 1.389 . S
C1398 C1399 1.387 . S
C1399 H1384 0.930 . S
C1399 C1394 1.390 1_455 S
C1399 C1398 1.387 . S
H1400 C1412 0.930 . S
H1401 C1414 0.930 . S
H1402 C1415 0.930 . S
H1403 C1419 0.959 . S
H1404 C1419 0.959 . S
H1405 C1419 0.961 . S
H1406 C1420 0.960 . S
H1407 C1420 0.961 . S
H1408 C1420 0.959 . S
H1409 C1423 0.929 . S
H1410 C1424 0.931 . S
H1411 C1426 0.930 . S
C1412 H1400 0.930 . S
C1412 C1413 1.399 . S
C1412 C1417 1.399 . S
C1413 C1412 1.399 . S
C1413 C1414 1.376 . S
C1414 H1401 0.930 . S
C1414 C1413 1.376 . S
C1414 C1415 1.388 . S
C1415 H1402 0.930 . S
C1415 C1414 1.388 . S
C1415 C1416 1.390 . S
C1416 C1415 1.390 . S
C1416 C1417 1.394 . S
C1416 C1422 1.465 . S
C1417 C1412 1.399 . S
C1417 C1416 1.394 . S
C1417 C1418 1.516 . S
C1418 C1417 1.516 . S
C1418 C1419 1.502 . S
C1418 C1420 1.561 . S
C1418 C1421 1.526 . S
C1419 H1403 0.959 . S
C1419 H1404 0.959 . S
C1419 H1405 0.961 . S
C1419 C1418 1.502 . S
C1420 H1406 0.960 . S
C1420 H1407 0.961 . S
C1420 H1408 0.959 . S
C1420 C1418 1.561 . S
C1421 C1418 1.526 . S
C1421 C1422 1.396 . S
C1421 C1426 1.390 . S
C1422 C1416 1.465 . S
C1422 C1421 1.396 . S
C1422 C1423 1.399 . S
C1423 H1409 0.929 . S
C1423 C1422 1.399 . S
C1423 C1424 1.385 . S
C1424 H1410 0.931 . S
C1424 C1423 1.385 . S
C1424 C1425 1.389 . S
C1425 C1424 1.389 . S
C1425 C1426 1.387 . S
C1426 H1411 0.930 . S
C1426 C1421 1.390 . S
C1426 C1425 1.387 . S
H1427 C1439 0.930 . S
H1428 C1441 0.930 . S
H1429 C1442 0.930 . S
H1430 C1446 0.959 . S
H1431 C1446 0.959 . S
H1432 C1446 0.961 . S
H1433 C1447 0.960 . S
H1434 C1447 0.961 1_545 S
H1435 C1447 0.959 1_545 S
H1436 C1450 0.929 . S
H1437 C1451 0.931 . S
H1438 C1453 0.930 . S
C1439 H1427 0.930 . S
C1439 C1440 1.399 . S
C1439 C1444 1.399 . S
C1440 C1439 1.399 . S
C1440 C1441 1.376 . S
C1441 H1428 0.930 . S
C1441 C1440 1.376 . S
C1441 C1442 1.388 . S
C1442 H1429 0.930 . S
C1442 C1441 1.388 . S
C1442 C1443 1.390 . S
C1443 C1442 1.390 . S
C1443 C1444 1.394 . S
C1443 C1449 1.465 . S
C1444 C1439 1.399 . S
C1444 C1443 1.394 . S
C1444 C1445 1.516 . S
C1445 C1444 1.516 . S
C1445 C1446 1.502 . S
C1445 C1447 1.561 . S
C1445 C1448 1.526 . S
C1446 H1430 0.959 . S
C1446 H1431 0.959 . S
C1446 H1432 0.961 . S
C1446 C1445 1.502 . S
C1447 H1433 0.960 . S
C1447 H1434 0.961 1_565 S
C1447 H1435 0.959 1_565 S
C1447 C1445 1.561 . S
C1448 C1445 1.526 . S
C1448 C1449 1.396 . S
C1448 C1453 1.390 1_655 S
C1449 C1443 1.465 . S
C1449 C1448 1.396 . S
C1449 C1450 1.399 . S
C1450 H1436 0.929 . S
C1450 C1449 1.399 . S
C1450 C1451 1.385 1_655 S
C1451 H1437 0.931 . S
C1451 C1450 1.385 1_455 S
C1451 C1452 1.389 . S
C1452 C1451 1.389 . S
C1452 C1453 1.387 . S
C1453 H1438 0.930 . S
C1453 C1448 1.390 1_455 S
C1453 C1452 1.387 . S
H1454 C1466 0.930 . S
H1455 C1468 0.930 . S
H1456 C1469 0.930 . S
H1457 C1473 0.959 . S
H1458 C1473 0.959 . S
H1459 C1473 0.961 . S
H1460 C1474 0.960 . S
H1461 C1474 0.961 . S
H1462 C1474 0.959 . S
H1463 C1477 0.929 . S
H1464 C1478 0.931 . S
H1465 C1480 0.930 . S
C1466 H1454 0.930 . S
C1466 C1467 1.399 . S
C1466 C1471 1.399 . S
C1467 C1466 1.399 . S
C1467 C1468 1.376 . S
C1468 H1455 0.930 . S
C1468 C1467 1.376 . S
C1468 C1469 1.388 . S
C1469 H1456 0.930 . S
C1469 C1468 1.388 . S
C1469 C1470 1.390 . S
C1470 C1469 1.390 . S
C1470 C1471 1.394 . S
C1470 C1476 1.465 . S
C1471 C1466 1.399 . S
C1471 C1470 1.394 . S
C1471 C1472 1.516 . S
C1472 C1471 1.516 . S
C1472 C1473 1.502 . S
C1472 C1474 1.561 . S
C1472 C1475 1.526 . S
C1473 H1457 0.959 . S
C1473 H1458 0.959 . S
C1473 H1459 0.961 . S
C1473 C1472 1.502 . S
C1474 H1460 0.960 . S
C1474 H1461 0.961 . S
C1474 H1462 0.959 . S
C1474 C1472 1.561 . S
C1475 C1472 1.526 . S
C1475 C1476 1.396 . S
C1475 C1480 1.390 . S
C1476 C1470 1.465 . S
C1476 C1475 1.396 . S
C1476 C1477 1.399 . S
C1477 H1463 0.929 . S
C1477 C1476 1.399 . S
C1477 C1478 1.385 . S
C1478 H1464 0.931 . S
C1478 C1477 1.385 . S
C1478 C1479 1.389 . S
C1479 C1478 1.389 . S
C1479 C1480 1.387 . S
C1480 H1465 0.930 . S
C1480 C1475 1.390 . S
C1480 C1479 1.387 . S
H1481 C1493 0.930 1_565 S
H1482 C1495 0.930 . S
H1483 C1496 0.930 . S
H1484 C1500 0.959 1_545 S
H1485 C1500 0.959 . S
H1486 C1500 0.961 . S
H1487 C1501 0.960 . S
H1488 C1501 0.961 . S
H1489 C1501 0.959 1_545 S
H1490 C1504 0.929 . S
H1491 C1505 0.931 . S
H1492 C1507 0.930 . S
C1493 H1481 0.930 1_545 S
C1493 C1494 1.399 . S
C1493 C1498 1.399 . S
C1494 C1493 1.399 . S
C1494 C1495 1.376 . S
C1495 H1482 0.930 . S
C1495 C1494 1.376 . S
C1495 C1496 1.388 . S
C1496 H1483 0.930 . S
C1496 C1495 1.388 . S
C1496 C1497 1.390 . S
C1497 C1496 1.390 . S
C1497 C1498 1.394 . S
C1497 C1503 1.465 . S
C1498 C1493 1.399 . S
C1498 C1497 1.394 . S
C1498 C1499 1.516 . S
C1499 C1498 1.516 . S
C1499 C1500 1.502 1_545 S
C1499 C1501 1.561 1_545 S
C1499 C1502 1.526 . S
C1500 H1484 0.959 1_565 S
C1500 H1485 0.959 . S
C1500 H1486 0.961 . S
C1500 C1499 1.502 1_565 S
C1501 H1487 0.960 . S
C1501 H1488 0.961 . S
C1501 H1489 0.959 1_565 S
C1501 C1499 1.561 1_565 S
C1502 C1499 1.526 . S
C1502 C1503 1.396 . S
C1502 C1507 1.390 . S
C1503 C1497 1.465 . S
C1503 C1502 1.396 . S
C1503 C1504 1.399 . S
C1504 H1490 0.929 . S
C1504 C1503 1.399 . S
C1504 C1505 1.385 . S
C1505 H1491 0.931 . S
C1505 C1504 1.385 . S
C1505 C1506 1.389 . S
C1506 C1505 1.389 . S
C1506 C1507 1.387 . S
C1507 H1492 0.930 . S
C1507 C1502 1.390 . S
C1507 C1506 1.387 . S
H1508 C1520 0.930 . S
H1509 C1522 0.930 . S
H1510 C1523 0.930 . S
H1511 C1527 0.959 . S
H1512 C1527 0.959 . S
H1513 C1527 0.961 . S
H1514 C1528 0.960 . S
H1515 C1528 0.961 . S
H1516 C1528 0.959 . S
H1517 C1531 0.929 . S
H1518 C1532 0.931 . S
H1519 C1534 0.930 . S
C1520 H1508 0.930 . S
C1520 C1521 1.399 . S
C1520 C1525 1.399 . S
C1521 C1520 1.399 . S
C1521 C1522 1.376 . S
C1522 H1509 0.930 . S
C1522 C1521 1.376 . S
C1522 C1523 1.388 . S
C1523 H1510 0.930 . S
C1523 C1522 1.388 . S
C1523 C1524 1.390 . S
C1524 C1523 1.390 . S
C1524 C1525 1.394 . S
C1524 C1530 1.465 . S
C1525 C1520 1.399 . S
C1525 C1524 1.394 . S
C1525 C1526 1.516 . S
C1526 C1525 1.516 . S
C1526 C1527 1.502 . S
C1526 C1528 1.561 . S
C1526 C1529 1.526 . S
C1527 H1511 0.959 . S
C1527 H1512 0.959 . S
C1527 H1513 0.961 . S
C1527 C1526 1.502 . S
C1528 H1514 0.960 . S
C1528 H1515 0.961 . S
C1528 H1516 0.959 . S
C1528 C1526 1.561 . S
C1529 C1526 1.526 . S
C1529 C1530 1.396 . S
C1529 C1534 1.390 . S
C1530 C1524 1.465 . S
C1530 C1529 1.396 . S
C1530 C1531 1.399 . S
C1531 H1517 0.929 . S
C1531 C1530 1.399 . S
C1531 C1532 1.385 . S
C1532 H1518 0.931 . S
C1532 C1531 1.385 . S
C1532 C1533 1.389 . S
C1533 C1532 1.389 . S
C1533 C1534 1.387 . S
C1534 H1519 0.930 . S
C1534 C1529 1.390 . S
C1534 C1533 1.387 . S
H1535 C1547 0.928 1_655 S
H1536 C1549 0.930 . S
H1537 C1550 0.930 . S
H1538 C1554 0.959 . S
H1539 C1554 0.959 . S
H1540 C1554 0.961 . S
H1541 C1555 0.960 . S
H1542 C1555 0.961 . S
H1543 C1555 0.959 . S
H1544 C1558 0.929 . S
H1545 C1559 0.931 . S
H1546 C1561 0.930 . S
C1547 H1535 0.928 1_455 S
C1547 C1548 1.393 1_455 S
C1547 C1552 1.406 . S
C1548 C1547 1.393 1_655 S
C1548 C1549 1.376 . S
C1549 H1536 0.930 . S
C1549 C1548 1.376 . S
C1549 C1550 1.388 1_655 S
C1550 H1537 0.930 . S
C1550 C1549 1.388 1_455 S
C1550 C1551 1.390 . S
C1551 C1550 1.390 . S
C1551 C1552 1.394 . S
C1551 C1557 1.465 . S
C1552 C1547 1.406 . S
C1552 C1551 1.394 . S
C1552 C1553 1.516 . S
C1553 C1552 1.516 . S
C1553 C1554 1.502 . S
C1553 C1555 1.561 . S
C1553 C1556 1.526 . S
C1554 H1538 0.959 . S
C1554 H1539 0.959 . S
C1554 H1540 0.961 . S
C1554 C1553 1.502 . S
C1555 H1541 0.960 . S
C1555 H1542 0.961 . S
C1555 H1543 0.959 . S
C1555 C1553 1.561 . S
C1556 C1553 1.526 . S
C1556 C1557 1.396 . S
C1556 C1561 1.390 . S
C1557 C1551 1.465 . S
C1557 C1556 1.396 . S
C1557 C1558 1.399 . S
C1558 H1544 0.929 . S
C1558 C1557 1.399 . S
C1558 C1559 1.385 . S
C1559 H1545 0.931 . S
C1559 C1558 1.385 . S
C1559 C1560 1.389 . S
C1560 C1559 1.389 . S
C1560 C1561 1.387 . S
C1561 H1546 0.930 . S
C1561 C1556 1.390 . S
C1561 C1560 1.387 . S
H1562 C1574 0.930 . S
H1563 C1576 0.930 . S
H1564 C1577 0.930 . S
H1565 C1581 0.959 . S
H1566 C1581 0.959 . S
H1567 C1581 0.961 . S
H1568 C1582 0.960 . S
H1569 C1582 0.961 . S
H1570 C1582 0.959 . S
H1571 C1585 0.929 . S
H1572 C1586 0.931 . S
H1573 C1588 0.930 . S
C1574 H1562 0.930 . S
C1574 C1575 1.399 . S
C1574 C1579 1.399 . S
C1575 C1574 1.399 . S
C1575 C1576 1.376 . S
C1576 H1563 0.930 . S
C1576 C1575 1.376 . S
C1576 C1577 1.388 . S
C1577 H1564 0.930 . S
C1577 C1576 1.388 . S
C1577 C1578 1.390 . S
C1578 C1577 1.390 . S
C1578 C1579 1.394 . S
C1578 C1584 1.465 . S
C1579 C1574 1.399 . S
C1579 C1578 1.394 . S
C1579 C1580 1.516 . S
C1580 C1579 1.516 . S
C1580 C1581 1.502 . S
C1580 C1582 1.561 . S
C1580 C1583 1.526 . S
C1581 H1565 0.959 . S
C1581 H1566 0.959 . S
C1581 H1567 0.961 . S
C1581 C1580 1.502 . S
C1582 H1568 0.960 . S
C1582 H1569 0.961 . S
C1582 H1570 0.959 . S
C1582 C1580 1.561 . S
C1583 C1580 1.526 . S
C1583 C1584 1.396 . S
C1583 C1588 1.390 . S
C1584 C1578 1.465 . S
C1584 C1583 1.396 . S
C1584 C1585 1.399 . S
C1585 H1571 0.929 . S
C1585 C1584 1.399 . S
C1585 C1586 1.385 . S
C1586 H1572 0.931 . S
C1586 C1585 1.385 . S
C1586 C1587 1.389 . S
C1587 C1586 1.389 . S
C1587 C1588 1.387 . S
C1588 H1573 0.930 . S
C1588 C1583 1.390 . S
C1588 C1587 1.387 . S
H1589 C1601 0.930 . S
H1590 C1603 0.930 . S
H1591 C1604 0.930 . S
H1592 C1608 0.959 1_565 S
H1593 C1608 0.959 . S
H1594 C1608 0.961 . S
H1595 C1609 0.960 . S
H1596 C1609 0.961 . S
H1597 C1609 0.955 1_565 S
H1598 C1612 0.929 . S
H1599 C1613 0.931 . S
H1600 C1615 0.930 1_545 S
C1601 H1589 0.930 . S
C1601 C1602 1.399 . S
C1601 C1606 1.399 . S
C1602 C1601 1.399 . S
C1602 C1603 1.376 . S
C1603 H1590 0.930 . S
C1603 C1602 1.376 . S
C1603 C1604 1.388 . S
C1604 H1591 0.930 . S
C1604 C1603 1.388 . S
C1604 C1605 1.390 . S
C1605 C1604 1.390 . S
C1605 C1606 1.394 . S
C1605 C1611 1.465 . S
C1606 C1601 1.399 . S
C1606 C1605 1.394 . S
C1606 C1607 1.516 . S
C1607 C1606 1.516 . S
C1607 C1608 1.502 1_565 S
C1607 C1609 1.561 1_565 S
C1607 C1610 1.526 . S
C1608 H1592 0.959 1_545 S
C1608 H1593 0.959 . S
C1608 H1594 0.961 . S
C1608 C1607 1.502 1_545 S
C1609 H1595 0.960 . S
C1609 H1596 0.961 . S
C1609 H1597 0.955 1_545 S
C1609 C1607 1.561 1_545 S
C1610 C1607 1.526 . S
C1610 C1611 1.396 . S
C1610 C1615 1.390 . S
C1611 C1605 1.465 . S
C1611 C1610 1.396 . S
C1611 C1612 1.399 . S
C1612 H1598 0.929 . S
C1612 C1611 1.399 . S
C1612 C1613 1.385 . S
C1613 H1599 0.931 . S
C1613 C1612 1.385 . S
C1613 C1614 1.389 . S
C1614 C1613 1.389 . S
C1614 C1615 1.387 . S
C1615 H1600 0.930 1_565 S
C1615 C1610 1.390 . S
C1615 C1614 1.387 . S
C333 C8 0.591 . S
C345 C259 0.858 . S
C360 C119 0.851 . S
C372 C28 0.574 . S
C387 C48 0.655 . S
C399 C299 0.760 . S
C414 C68 0.583 . S
C426 C159 0.831 . S
C441 C99 0.862 . S
C453 C168 0.589 . S
C468 C208 0.570 . S
C480 C139 0.851 . S
C495 C279 0.819 . S
C507 C188 0.673 . S
C522 C228 0.617 . S
C534 C319 0.848 . S
C549 C189 1.929 . S
C561 C19 1.861 . S
C576 C39 1.872 . S
C588 C209 1.906 . S
C603 C59 1.902 . S
C615 C229 1.912 . S
C630 C169 1.907 . S
C642 C79 1.870 . S
C657 C261 1.913 . S
C669 C88 1.887 . S
C684 C281 1.928 . S
C696 C108 1.860 . S
C711 C128 1.901 . S
C723 C301 1.899 . S
C738 C241 1.917 . S
C750 C148 1.869 . S
C765 C179 1.875 . S
C777 C29 1.904 . S
C792 C199 1.906 1_565 S
C804 C49 1.898 . S
C819 C219 1.894 . S
C831 C69 1.918 . S
C846 C9 1.919 . S
C858 C239 1.893 1_545 S
C873 C101 1.910 . S
C885 C248 1.880 . S
C900 C268 1.858 1_545 S
C912 C121 1.929 . S
C927 C141 1.914 . S
C939 C288 1.874 . S
C954 C308 1.868 1_565 S
C966 C81 1.924 . S
C981 C16 2.142 . S
C993 C216 2.133 . S
C1008 C36 2.085 . S
C1020 C236 2.098 . S
C1035 C176 2.141 . S
C1047 C56 2.130 . S
C1062 C76 2.137 . S
C1074 C196 2.121 . S
C1089 C86 2.123 . S
C1101 C286 2.141 . S
C1116 C106 2.131 . S
C1128 C306 2.138 . S
C1143 C246 2.138 . S
C1155 C126 2.131 . S
C1170 C146 2.122 . S
C1182 C266 2.141 . S
C1197 C1 1.128 . S
C1209 C156 1.126 . S
C1224 C256 1.107 . S
C1236 C21 1.161 . S
C1251 C41 1.117 . S
C1263 C116 1.132 . S
C1278 C61 1.086 . S
C1290 C296 1.156 . S
C1305 C89 1.045 . S
C1317 C66 1.185 . S
C1332 C166 1.141 . S
C1344 C109 1.140 . S
C1359 C129 1.068 . S
C1371 C26 1.142 . S
C1386 C206 1.147 . S
C1398 C149 1.131 . S
C1413 C161 1.056 . S
C1425 C316 1.171 . S
C1440 C96 1.184 . S
C1452 C181 1.034 . S
C1467 C276 1.186 . S
C1479 C201 1.027 . S
C1494 C221 1.147 . S
C1506 C136 1.119 . S
C1521 C249 1.155 . S
C1533 C226 1.128 . S
C1548 C269 1.163 . S
C1560 C6 1.111 . S
C1575 C186 1.157 . S
C1587 C289 1.046 . S
C1602 C46 1.109 . S
C1614 C309 1.137 . S
