# Generated by pormake.
# Topology wgs, (5)-cn, num edge types: 1
# Building blocks:
#     Node 0, Type 0, BuildingBlock: XOMCOT_clean_sbu_1, # of connection points: 5
#     Node 1, Type 0, BuildingBlock: XOMCOT_clean_sbu_1, # of connection points: 5
#     Node 2, Type 0, BuildingBlock: XOMCOT_clean_sbu_1, # of connection points: 5
#     Node 3, Type 0, BuildingBlock: XOMCOT_clean_sbu_1, # of connection points: 5
#     Node 4, Type 0, BuildingBlock: XOMCOT_clean_sbu_1, # of connection points: 5
#     Node 5, Type 0, BuildingBlock: XOMCOT_clean_sbu_1, # of connection points: 5
#     Node 6, Type 0, BuildingBlock: XOMCOT_clean_sbu_1, # of connection points: 5
#     Node 7, Type 0, BuildingBlock: XOMCOT_clean_sbu_1, # of connection points: 5
#     Node 8, Type 0, BuildingBlock: XOMCOT_clean_sbu_1, # of connection points: 5
#     Node 9, Type 0, BuildingBlock: XOMCOT_clean_sbu_1, # of connection points: 5
#     Node 10, Type 0, BuildingBlock: XOMCOT_clean_sbu_1, # of connection points: 5
#     Node 11, Type 0, BuildingBlock: XOMCOT_clean_sbu_1, # of connection points: 5
#     Node 12, Type 0, BuildingBlock: XOMCOT_clean_sbu_1, # of connection points: 5
#     Node 13, Type 0, BuildingBlock: XOMCOT_clean_sbu_1, # of connection points: 5
#     Node 14, Type 0, BuildingBlock: XOMCOT_clean_sbu_1, # of connection points: 5
#     Node 15, Type 0, BuildingBlock: XOMCOT_clean_sbu_1, # of connection points: 5
#     Node 16, Type 0, BuildingBlock: XOMCOT_clean_sbu_1, # of connection points: 5
#     Node 17, Type 0, BuildingBlock: XOMCOT_clean_sbu_1, # of connection points: 5
#     Node 18, Type 0, BuildingBlock: XOMCOT_clean_sbu_1, # of connection points: 5
#     Node 19, Type 0, BuildingBlock: XOMCOT_clean_sbu_1, # of connection points: 5
#     Node 20, Type 0, BuildingBlock: XOMCOT_clean_sbu_1, # of connection points: 5
#     Node 21, Type 0, BuildingBlock: XOMCOT_clean_sbu_1, # of connection points: 5
#     Node 22, Type 0, BuildingBlock: XOMCOT_clean_sbu_1, # of connection points: 5
#     Node 23, Type 0, BuildingBlock: XOMCOT_clean_sbu_1, # of connection points: 5
#     Node 24, Type 0, BuildingBlock: XOMCOT_clean_sbu_1, # of connection points: 5
#     Node 25, Type 0, BuildingBlock: XOMCOT_clean_sbu_1, # of connection points: 5
#     Node 26, Type 0, BuildingBlock: XOMCOT_clean_sbu_1, # of connection points: 5
#     Node 27, Type 0, BuildingBlock: XOMCOT_clean_sbu_1, # of connection points: 5
#     Node 28, Type 0, BuildingBlock: XOMCOT_clean_sbu_1, # of connection points: 5
#     Node 29, Type 0, BuildingBlock: XOMCOT_clean_sbu_1, # of connection points: 5
#     Node 30, Type 0, BuildingBlock: XOMCOT_clean_sbu_1, # of connection points: 5
#     Node 31, Type 0, BuildingBlock: XOMCOT_clean_sbu_1, # of connection points: 5
#     Edge 32, Type (0, 0), None
#     Edge 33, Type (0, 0), None
#     Edge 34, Type (0, 0), None
#     Edge 35, Type (0, 0), None
#     Edge 36, Type (0, 0), None
#     Edge 37, Type (0, 0), None
#     Edge 38, Type (0, 0), None
#     Edge 39, Type (0, 0), None
#     Edge 40, Type (0, 0), None
#     Edge 41, Type (0, 0), None
#     Edge 42, Type (0, 0), None
#     Edge 43, Type (0, 0), None
#     Edge 44, Type (0, 0), None
#     Edge 45, Type (0, 0), None
#     Edge 46, Type (0, 0), None
#     Edge 47, Type (0, 0), None
#     Edge 48, Type (0, 0), None
#     Edge 49, Type (0, 0), None
#     Edge 50, Type (0, 0), None
#     Edge 51, Type (0, 0), None
#     Edge 52, Type (0, 0), None
#     Edge 53, Type (0, 0), None
#     Edge 54, Type (0, 0), None
#     Edge 55, Type (0, 0), None
#     Edge 56, Type (0, 0), None
#     Edge 57, Type (0, 0), None
#     Edge 58, Type (0, 0), None
#     Edge 59, Type (0, 0), None
#     Edge 60, Type (0, 0), None
#     Edge 61, Type (0, 0), None
#     Edge 62, Type (0, 0), None
#     Edge 63, Type (0, 0), None
#     Edge 64, Type (0, 0), None
#     Edge 65, Type (0, 0), None
#     Edge 66, Type (0, 0), None
#     Edge 67, Type (0, 0), None
#     Edge 68, Type (0, 0), None
#     Edge 69, Type (0, 0), None
#     Edge 70, Type (0, 0), None
#     Edge 71, Type (0, 0), None
#     Edge 72, Type (0, 0), None
#     Edge 73, Type (0, 0), None
#     Edge 74, Type (0, 0), None
#     Edge 75, Type (0, 0), None
#     Edge 76, Type (0, 0), None
#     Edge 77, Type (0, 0), None
#     Edge 78, Type (0, 0), None
#     Edge 79, Type (0, 0), None
#     Edge 80, Type (0, 0), None
#     Edge 81, Type (0, 0), None
#     Edge 82, Type (0, 0), None
#     Edge 83, Type (0, 0), None
#     Edge 84, Type (0, 0), None
#     Edge 85, Type (0, 0), None
#     Edge 86, Type (0, 0), None
#     Edge 87, Type (0, 0), None
#     Edge 88, Type (0, 0), None
#     Edge 89, Type (0, 0), None
#     Edge 90, Type (0, 0), None
#     Edge 91, Type (0, 0), None
#     Edge 92, Type (0, 0), None
#     Edge 93, Type (0, 0), None
#     Edge 94, Type (0, 0), None
#     Edge 95, Type (0, 0), None
#     Edge 96, Type (0, 0), None
#     Edge 97, Type (0, 0), None
#     Edge 98, Type (0, 0), None
#     Edge 99, Type (0, 0), None
#     Edge 100, Type (0, 0), None
#     Edge 101, Type (0, 0), None
#     Edge 102, Type (0, 0), None
#     Edge 103, Type (0, 0), None
#     Edge 104, Type (0, 0), None
#     Edge 105, Type (0, 0), None
#     Edge 106, Type (0, 0), None
#     Edge 107, Type (0, 0), None
#     Edge 108, Type (0, 0), None
#     Edge 109, Type (0, 0), None
#     Edge 110, Type (0, 0), None
#     Edge 111, Type (0, 0), None
# Relax obj value: 0.174
# Max RMSD: 0.253
# Mean RMSD: 0.253
data_MOF--net-wgs--node1-XOMCOT_clean_sbu_1--edge1-none
_symmetry_space_group_name_H-M    P1
_symmetry_Int_Tables_number       1
_symmetry_cell_setting            triclinic
loop_
_symmetry_equiv_pos_as_xyz
'x, y, z'
_cell_length_a     15.579796
_cell_length_b     15.579458
_cell_length_c     72.851768
_cell_angle_alpha  90.001844
_cell_angle_beta   90.000886
_cell_angle_gamma 90.002178
loop_
_atom_site_label
_atom_site_type_symbol
_atom_site_fract_x
_atom_site_fract_y
_atom_site_fract_z
_atom_type_partial_charge
C0 C 0.20062 0.04868 0.37338 0.0
C1 C 0.19634 0.04089 0.39213 0.0
N2 N 0.27592 0.05051 0.39889 0.0
N3 N 0.28277 0.06261 0.36818 0.0
C4 C 0.32798 0.06087 0.38414 0.0
H5 H 0.14701 0.04409 0.364 0.0
Co6 Co 0.31122 0.07764 0.3429 0.0
C7 C 0.43973 0.22335 0.34786 0.0
O8 O 0.3856 0.28093 0.34168 0.0
N9 N 0.33837 0.08331 0.31687 0.0
C10 C 0.42299 0.07297 0.29211 0.0
C11 C 0.41167 0.11187 0.30895 0.0
C12 C 0.30523 0.02892 0.30393 0.0
N13 N 0.35609 0.02055 0.28902 0.0
O14 O 0.37133 0.97336 0.3437 0.0
H15 H 0.45996 0.15026 0.31559 0.0
H16 H 0.24955 -0.01104 0.30605 0.0
O17 O 0.41761 0.14372 0.349 0.0
C18 C 0.31103 0.92183 0.33979 0.0
O19 O 0.23291 0.95219 0.33767 0.0
N20 N 0.24406 0.17864 0.34239 0.0
C21 C 0.15252 0.33057 0.34241 0.0
C22 C 0.18952 0.30116 0.35855 0.0
C23 C 0.23833 0.22739 0.35803 0.0
C24 C 0.19559 0.19955 0.32743 0.0
C25 C 0.15136 0.27753 0.32692 0.0
H26 H 0.2778 0.21472 0.36987 0.0
H27 H 0.19488 0.15897 0.31543 0.0
H28 H 0.39723 0.06491 0.3849 0.0
H29 H 0.13998 0.0255 0.40018 0.0
H30 H 0.47987 0.07669 0.28361 0.0
H31 H 0.19365 0.34222 0.37056 0.0
H32 H 0.12389 0.29971 0.3141 0.0
C33 C 0.17168 0.95074 0.62337 0.0
C34 C 0.17942 0.9464 0.64212 0.0
N35 N 0.1698 0.02594 0.64889 0.0
N36 N 0.15779 0.03292 0.61818 0.0
C37 C 0.1595 0.07807 0.63415 0.0
H38 H 0.17629 0.89717 0.61397 0.0
Co39 Co 0.14276 0.06143 0.5929 0.0
C40 C -0.00298 0.18984 0.59778 0.0
O41 O 0.93966 0.13582 0.59146 0.0
N42 N 0.13709 0.08864 0.56688 0.0
C43 C 0.1483 0.17347 0.54216 0.0
C44 C 0.10929 0.16234 0.559 0.0
C45 C 0.19117 0.05514 0.55392 0.0
N46 N 0.20005 0.10612 0.53903 0.0
O47 O 0.247 0.12162 0.59371 0.0
H48 H 0.0715 0.21098 0.56567 0.0
H49 H 0.23062 -0.00092 0.55602 0.0
O50 O 0.07662 0.16773 0.59901 0.0
C51 C 0.29858 0.06143 0.58975 0.0
O52 O 0.2683 0.98328 0.58762 0.0
N53 N 0.04179 -0.00574 0.59239 0.0
C54 C 0.88979 0.90285 0.59241 0.0
C55 C 0.91917 0.93996 0.60854 0.0
C56 C -0.00704 -0.01128 0.60801 0.0
C57 C 0.0209 0.9457 0.57743 0.0
C58 C 0.94289 0.90153 0.57692 0.0
H59 H 0.00563 0.02828 0.61984 0.0
H60 H 0.06153 0.94489 0.56545 0.0
H61 H 0.15547 0.14732 0.63492 0.0
H62 H 0.19477 0.88999 0.65015 0.0
H63 H 0.14518 0.23051 0.5337 0.0
H64 H 0.87807 0.9442 0.62054 0.0
H65 H 0.92073 0.87398 0.56411 0.0
C66 C 0.26983 0.92182 0.8734 0.0
C67 C 0.27412 0.92959 0.89215 0.0
N68 N 0.19458 0.91982 0.89891 0.0
N69 N 0.18769 0.90776 0.8682 0.0
C70 C 0.1425 0.9094 0.88417 0.0
H71 H 0.32341 0.92651 0.86401 0.0
Co72 Co 0.15928 0.8927 0.84292 0.0
C73 C 0.03092 0.74686 0.84781 0.0
O74 O 0.08501 0.68944 0.84154 0.0
N75 N 0.13217 0.88702 0.81689 0.0
C76 C 0.04744 0.89811 0.79216 0.0
C77 C 0.05857 0.85909 0.80899 0.0
C78 C 0.16564 0.94118 0.80394 0.0
N79 N 0.11472 0.94999 0.78904 0.0
O80 O 0.09901 -0.00311 0.84372 0.0
H81 H 0.00997 0.82119 0.81565 0.0
H82 H 0.22163 0.98071 0.80606 0.0
O83 O 0.05299 0.82648 0.84901 0.0
C84 C 0.15917 0.04854 0.83978 0.0
O85 O 0.23735 0.01833 0.83766 0.0
N86 N 0.22652 0.79176 0.84241 0.0
C87 C 0.31794 0.63976 0.84244 0.0
C88 C 0.28091 0.66919 0.85858 0.0
C89 C 0.23213 0.74298 0.85805 0.0
C90 C 0.27504 0.77083 0.82746 0.0
C91 C 0.31921 0.69282 0.82695 0.0
H92 H 0.19261 0.75564 0.86988 0.0
H93 H 0.27582 0.81142 0.81546 0.0
H94 H 0.07327 0.90521 0.88494 0.0
H95 H 0.33048 0.94504 0.90019 0.0
H96 H -0.00956 0.8949 0.78369 0.0
H97 H 0.27671 0.62813 0.87058 0.0
H98 H 0.34671 0.67062 0.81414 0.0
C99 C 0.29855 0.02005 0.12343 0.0
C100 C 0.29078 0.02421 0.14218 0.0
N101 N 0.30056 0.94462 0.14892 0.0
N102 N 0.31264 0.93794 0.11821 0.0
C103 C 0.311 0.89265 0.13416 0.0
H104 H 0.29384 0.0737 0.11406 0.0
Co105 Co 0.32759 0.90965 0.09292 0.0
C106 C 0.47345 0.7812 0.09793 0.0
O107 O 0.53125 0.83552 0.09192 0.0
N108 N 0.33318 0.88263 0.06688 0.0
C109 C 0.32359 0.79831 0.04206 0.0
C110 C 0.36243 0.80974 0.05891 0.0
C111 C 0.27846 0.91545 0.05397 0.0
N112 N 0.27055 0.86476 0.03901 0.0
O113 O 0.22336 0.84942 0.09373 0.0
H114 H 0.40141 0.7618 0.0655 0.0
H115 H 0.23803 0.97076 0.05612 0.0
O116 O 0.39378 0.80325 0.09897 0.0
C117 C 0.17178 0.90975 0.08986 0.0
O118 O 0.2021 -0.0121 0.08776 0.0
N119 N 0.42856 0.97695 0.0924 0.0
C120 C 0.58048 0.06851 0.09237 0.0
C121 C 0.55101 0.03184 0.10853 0.0
C122 C 0.47724 0.98301 0.10804 0.0
C123 C 0.4495 0.02519 0.0774 0.0
C124 C 0.52748 0.06941 0.07687 0.0
H125 H 0.4646 0.94372 0.11991 0.0
H126 H 0.40897 0.02572 0.0654 0.0
H127 H 0.31517 0.8234 0.1349 0.0
H128 H 0.2753 0.0805 0.15024 0.0
H129 H 0.32786 0.74161 0.03351 0.0
H130 H 0.59203 0.02792 0.12055 0.0
H131 H 0.5497 0.09665 0.06403 0.0
C132 C 0.20061 0.92127 0.19226 0.0
C133 C 0.19642 0.92923 0.17351 0.0
N134 N 0.27609 0.92007 0.16678 0.0
N135 N 0.28279 0.9076 0.19748 0.0
C136 C 0.3281 0.90962 0.18154 0.0
H137 H 0.14693 0.92561 0.20163 0.0
Co138 Co 0.31128 0.89271 0.22276 0.0
C139 C 0.43988 0.74712 0.21788 0.0
O140 O 0.38587 0.68968 0.22417 0.0
N141 N 0.33848 0.88718 0.24879 0.0
C142 C 0.42331 0.89822 0.27351 0.0
C143 C 0.41198 0.85905 0.2567 0.0
C144 C 0.30522 0.9416 0.26171 0.0
N145 N 0.35627 0.95047 0.27658 0.0
O146 O 0.37124 -0.00291 0.22194 0.0
H147 H 0.46039 0.82081 0.25007 0.0
H148 H 0.24934 0.98127 0.25959 0.0
O149 O 0.41772 0.82671 0.21667 0.0
C150 C 0.3108 0.04849 0.22584 0.0
O151 O 0.23276 0.01795 0.22795 0.0
N152 N 0.24425 0.79165 0.22329 0.0
C153 C 0.15265 0.63975 0.22327 0.0
C154 C 0.1899 0.66901 0.20715 0.0
C155 C 0.23872 0.74278 0.20767 0.0
C156 C 0.19566 0.77084 0.23824 0.0
C157 C 0.1514 0.69288 0.23875 0.0
H158 H 0.27828 0.75542 0.19584 0.0
H159 H 0.19485 0.81151 0.25022 0.0
H160 H 0.39736 0.90582 0.18079 0.0
H161 H 0.14005 0.94446 0.16545 0.0
H162 H 0.48026 0.89484 0.28199 0.0
H163 H 0.19412 0.62788 0.19515 0.0
H164 H 0.12377 0.67079 0.25156 0.0
C165 C 0.29886 0.95036 0.44222 0.0
C166 C 0.29092 0.94625 0.42347 0.0
N167 N 0.30033 0.02592 0.41676 0.0
N168 N 0.31279 0.03249 0.44746 0.0
C169 C 0.31092 0.07786 0.43152 0.0
H170 H 0.29436 0.89666 0.45158 0.0
Co171 Co 0.32768 0.06079 0.47275 0.0
C172 C 0.47347 0.1893 0.46779 0.0
O173 O 0.53118 0.13505 0.47387 0.0
N174 N 0.33318 0.08781 0.49879 0.0
C175 C 0.32312 0.17229 0.52358 0.0
C176 C 0.36218 0.16083 0.50676 0.0
C177 C 0.2784 0.05492 0.51168 0.0
N178 N 0.27013 0.10578 0.5266 0.0
O179 O 0.22341 0.12094 0.47193 0.0
H180 H 0.40112 0.20882 0.50018 0.0
H181 H 0.23814 -0.00051 0.50952 0.0
O182 O 0.39382 0.16721 0.4667 0.0
C183 C 0.17186 0.06056 0.47577 0.0
O184 O 0.20223 0.98243 0.47787 0.0
N185 N 0.42866 -0.00643 0.47328 0.0
C186 C 0.58057 0.90198 0.4733 0.0
C187 C 0.55117 0.93881 0.45715 0.0
C188 C 0.47741 -0.01234 0.45764 0.0
C189 C 0.44955 0.94523 0.48826 0.0
C190 C 0.52751 0.901 0.4888 0.0
H191 H 0.4648 0.02702 0.44579 0.0
H192 H 0.40897 0.94463 0.50026 0.0
H193 H 0.31494 0.14711 0.43078 0.0
H194 H 0.27555 0.88995 0.4154 0.0
H195 H 0.3272 0.22902 0.53212 0.0
H196 H 0.59223 0.94282 0.44514 0.0
H197 H 0.54968 0.87364 0.50163 0.0
C198 C 0.26995 0.04866 0.69223 0.0
C199 C 0.27405 0.04073 0.67348 0.0
N200 N 0.1944 0.05028 0.66676 0.0
N201 N 0.18785 0.06271 0.69746 0.0
C202 C 0.14248 0.06093 0.68152 0.0
H203 H 0.32364 0.04407 0.70159 0.0
Co204 Co 0.15968 0.07767 0.72276 0.0
C205 C 0.03133 0.22364 0.71783 0.0
O206 O 0.08565 0.28132 0.7239 0.0
N207 N 0.13281 0.08321 0.74881 0.0
C208 C 0.04844 0.07306 0.77362 0.0
C209 C 0.05981 0.11216 0.75679 0.0
C210 C 0.16578 0.02843 0.76169 0.0
N211 N 0.11499 0.0201 0.77662 0.0
O212 O 0.09929 0.97354 0.72196 0.0
H213 H 0.01177 0.15106 0.75022 0.0
H214 H 0.22122 -0.01179 0.75952 0.0
O215 O 0.05335 0.14398 0.71674 0.0
C216 C 0.1595 0.9218 0.72581 0.0
O217 O 0.23774 0.9519 0.72788 0.0
N218 N 0.22704 0.17858 0.72328 0.0
C219 C 0.3185 0.33057 0.72329 0.0
C220 C 0.28175 0.30107 0.70713 0.0
C221 C 0.23293 0.2273 0.70764 0.0
C222 C 0.27538 0.19954 0.73826 0.0
C223 C 0.31955 0.27754 0.73878 0.0
H224 H 0.19354 0.21467 0.69578 0.0
H225 H 0.27599 0.159 0.75026 0.0
H226 H 0.07323 0.06509 0.68079 0.0
H227 H 0.33033 0.02529 0.66541 0.0
H228 H -0.00826 0.07709 0.78216 0.0
H229 H 0.27772 0.3421 0.69512 0.0
H230 H 0.34685 0.29978 0.75161 0.0
C231 C 0.17155 0.01961 0.94229 0.0
C232 C 0.17951 0.02387 0.92354 0.0
N233 N 0.17017 0.94425 0.91679 0.0
N234 N 0.1577 0.93744 0.94749 0.0
C235 C 0.15962 0.89219 0.93154 0.0
H236 H 0.17599 0.07324 0.95167 0.0
Co237 Co 0.14269 0.90895 0.97277 0.0
C238 C -0.00302 0.78052 0.96793 0.0
O239 O 0.9397 0.83449 0.9743 0.0
N240 N 0.13706 0.88175 0.99879 0.0
C241 C 0.14878 0.79674 1.02348 0.0
C242 C 0.10953 0.80792 1.00667 0.0
C243 C 0.19119 0.91532 1.01174 0.0
N244 N 0.20047 0.86417 1.02658 0.0
O245 O 0.24694 0.84879 0.97196 0.0
H246 H 0.07181 0.75921 1.0 0.0
H247 H 0.23044 0.97153 1.00964 0.0
O248 O 0.07656 0.80264 0.96666 0.0
C249 C 0.29851 0.90901 0.97591 0.0
O250 O 0.26822 -0.01285 0.97803 0.0
N251 N 0.04171 0.97608 0.97328 0.0
C252 C 0.88971 0.06747 0.97325 0.0
C253 C 0.91904 0.03025 0.95713 0.0
C254 C -0.00715 0.9815 0.95766 0.0
C255 C 0.02085 0.02471 0.98823 0.0
C256 C 0.94284 0.06887 0.98873 0.0
H257 H 0.00552 0.9419 0.94584 0.0
H258 H 0.0615 0.02558 1.00021 0.0
H259 H 0.15563 0.82294 0.93077 0.0
H260 H 0.19482 0.08025 0.91549 0.0
H261 H 0.14588 0.73965 1.03192 0.0
H262 H 0.87792 0.02594 0.94513 0.0
H263 H 0.92071 0.09649 1.00154 0.0
C264 C 0.76977 0.9215 0.69219 0.0
C265 C 0.77399 0.92924 0.67344 0.0
N266 N 0.69437 0.91979 0.6667 0.0
N267 N 0.6876 0.90777 0.69741 0.0
C268 C 0.64233 0.90959 0.68146 0.0
H269 H 0.82342 0.926 0.70157 0.0
Co270 Co 0.65925 0.89288 0.7227 0.0
C271 C 0.53069 0.74719 0.71784 0.0
O272 O 0.58479 0.68972 0.72408 0.0
N273 N 0.63223 0.88733 0.74874 0.0
C274 C 0.54793 0.89755 0.77356 0.0
C275 C 0.55906 0.85869 0.7567 0.0
C276 C 0.66546 0.94176 0.76167 0.0
N277 N 0.61481 0.95002 0.77662 0.0
O278 O 0.59918 -0.00281 0.72189 0.0
H279 H 0.51074 0.82026 0.7501 0.0
H280 H 0.72107 0.98179 0.75952 0.0
O281 O 0.55281 0.8268 0.71664 0.0
C282 C 0.6596 0.04866 0.72577 0.0
O283 O 0.73768 0.01819 0.72787 0.0
N284 N 0.72635 0.79186 0.72322 0.0
C285 C 0.81788 0.63993 0.7232 0.0
C286 C 0.78067 0.66922 0.70707 0.0
C287 C 0.73187 0.743 0.70759 0.0
C288 C 0.77498 0.77105 0.73816 0.0
C289 C 0.81921 0.69307 0.73867 0.0
H290 H 0.69227 0.75561 0.69577 0.0
H291 H 0.77583 0.81172 0.75015 0.0
H292 H 0.57308 0.90572 0.68071 0.0
H293 H 0.83036 0.94449 0.66539 0.0
H294 H 0.49117 0.89375 0.78209 0.0
H295 H 0.7764 0.62809 0.69507 0.0
H296 H 0.84684 0.67097 0.75148 0.0
C297 C 0.79863 0.01981 0.44227 0.0
C298 C 0.79076 0.02421 0.42352 0.0
N299 N 0.80037 0.94469 0.41674 0.0
N300 N 0.81259 0.93761 0.44744 0.0
C301 C 0.81081 0.89252 0.43147 0.0
H302 H 0.79406 0.07334 0.45167 0.0
Co303 Co 0.82768 0.90899 0.4727 0.0
C304 C 0.97337 0.78056 0.46782 0.0
O305 O 0.03067 0.83452 0.4742 0.0
N306 N 0.83341 0.88166 0.49872 0.0
C307 C 0.82171 0.79657 0.52339 0.0
C308 C 0.8608 0.80772 0.50656 0.0
C309 C 0.7795 0.91529 0.5117 0.0
N310 N 0.77031 0.86416 0.52655 0.0
O311 O 0.72341 0.84887 0.4719 0.0
H312 H 0.89826 0.75891 0.49986 0.0
H313 H 0.74034 0.97158 0.50962 0.0
O314 O 0.89379 0.8027 0.46657 0.0
C315 C 0.6719 0.90908 0.47589 0.0
O316 O 0.70222 -0.01281 0.47804 0.0
N317 N 0.92868 0.97612 0.47322 0.0
C318 C 0.08054 0.0677 0.47317 0.0
C319 C 0.05124 0.03044 0.45705 0.0
C320 C 0.97749 0.98161 0.45759 0.0
C321 C 0.94956 0.02473 0.48817 0.0
C322 C 0.02752 0.06898 0.48866 0.0
H323 H 0.9648 0.94201 0.44577 0.0
H324 H 0.90895 0.02554 0.50016 0.0
H325 H 0.81488 0.82328 0.43068 0.0
H326 H 0.77534 0.08064 0.4155 0.0
H327 H 0.82449 0.73939 0.53181 0.0
H328 H 0.09234 0.02618 0.44504 0.0
H329 H 0.0497 0.09659 0.50147 0.0
C330 C 0.70021 0.04817 0.19228 0.0
C331 C 0.69596 0.04035 0.17353 0.0
N332 N 0.77548 0.05035 0.16677 0.0
N333 N 0.78231 0.06249 0.19748 0.0
C334 C 0.82751 0.06097 0.18152 0.0
H335 H 0.64664 0.04332 0.20167 0.0
Co336 Co 0.81064 0.07759 0.22276 0.0
C337 C 0.9389 0.2236 0.21775 0.0
O338 O 0.88458 0.28132 0.22379 0.0
N339 N 0.8377 0.08328 0.24879 0.0
C340 C 0.92225 0.07316 0.27357 0.0
C341 C 0.91087 0.11207 0.25673 0.0
C342 C 0.80468 0.02877 0.26172 0.0
N343 N 0.85551 0.02053 0.27664 0.0
O344 O 0.87109 0.9735 0.22196 0.0
H345 H 0.95902 0.15068 0.25011 0.0
H346 H 0.74911 -0.01133 0.25959 0.0
O347 O 0.91687 0.14392 0.21669 0.0
C348 C 0.81104 0.92169 0.22587 0.0
O349 O 0.73277 0.95168 0.22797 0.0
N350 N 0.74319 0.17845 0.22328 0.0
C351 C 0.65176 0.33045 0.22331 0.0
C352 C 0.68831 0.30089 0.20714 0.0
C353 C 0.73711 0.22711 0.20763 0.0
C354 C 0.695 0.19944 0.23828 0.0
C355 C 0.65085 0.27745 0.23881 0.0
H356 H 0.77636 0.21445 0.19576 0.0
H357 H 0.6945 0.15894 0.25028 0.0
H358 H 0.89674 0.06535 0.18075 0.0
H359 H 0.63966 0.0247 0.16549 0.0
H360 H 0.97908 0.07705 0.28208 0.0
H361 H 0.69222 0.34189 0.19512 0.0
H362 H 0.62369 0.29972 0.25166 0.0
C363 C 0.67146 0.95019 0.94229 0.0
C364 C 0.67914 0.94596 0.92354 0.0
N365 N 0.66946 0.02554 0.91679 0.0
N366 N 0.65754 0.03233 0.94751 0.0
C367 C 0.65918 0.07757 0.93155 0.0
H368 H 0.67611 0.89655 0.95167 0.0
Co369 Co 0.64263 0.06071 0.9728 0.0
C370 C 0.49689 0.18923 0.96782 0.0
O371 O 0.4392 0.13503 0.97393 0.0
N372 N 0.63707 0.08782 0.99883 0.0
C373 C 0.64696 0.17229 1.02363 0.0
C374 C 0.60807 0.16087 1.00679 0.0
C375 C 0.69171 0.05492 1.01176 0.0
N376 N 0.6998 0.1057 1.02669 0.0
O377 O 0.74691 0.12083 0.97198 0.0
H378 H 0.56928 0.20892 1.00019 0.0
H379 H 0.73198 -0.00051 1.00961 0.0
O380 O 0.57653 0.16712 0.96673 0.0
C381 C 0.79839 0.06043 0.97586 0.0
O382 O 0.76797 0.98233 0.97797 0.0
N383 N 0.54162 -0.00648 0.97333 0.0
C384 C 0.38983 0.9018 0.97333 0.0
C385 C 0.41918 0.93871 0.95718 0.0
C386 C 0.49289 -0.01237 0.95769 0.0
C387 C 0.52071 0.94518 0.98831 0.0
C388 C 0.44278 0.90089 0.98883 0.0
H389 H 0.5055 0.02704 0.94584 0.0
H390 H 0.56126 0.9446 1.00031 0.0
H391 H 0.65513 0.14682 0.9308 0.0
H392 H 0.6945 0.88961 0.91549 0.0
H393 H 0.64289 0.22906 1.03215 0.0
H394 H 0.37814 0.9427 0.94516 0.0
H395 H 0.42057 0.87352 1.00166 0.0
C396 C 0.76952 0.04867 0.87346 0.0
C397 C 0.77366 0.04072 0.89221 0.0
N398 N 0.69398 0.05 0.89893 0.0
N399 N 0.68738 0.06247 0.86823 0.0
C400 C 0.64202 0.06051 0.88417 0.0
H401 H 0.82322 0.04428 0.86409 0.0
Co402 Co 0.65914 0.07747 0.84293 0.0
C403 C 0.53065 0.22323 0.84778 0.0
O404 O 0.58478 0.28067 0.84154 0.0
N405 N 0.63223 0.08309 0.81689 0.0
C406 C 0.54785 0.07258 0.79209 0.0
C407 C 0.55901 0.1116 0.80892 0.0
C408 C 0.6655 0.02861 0.80398 0.0
N409 N 0.61472 0.02007 0.78906 0.0
O410 O 0.59895 0.97322 0.84372 0.0
H411 H 0.51067 0.15005 0.81552 0.0
H412 H 0.72118 -0.01131 0.80614 0.0
O413 O 0.55273 0.14361 0.84898 0.0
C414 C 0.65927 0.92164 0.83985 0.0
O415 O 0.73743 0.95195 0.83777 0.0
N416 N 0.72631 0.17845 0.84244 0.0
C417 C 0.81775 0.33043 0.8425 0.0
C418 C 0.78053 0.30105 0.85862 0.0
C419 C 0.73176 0.22726 0.85808 0.0
C420 C 0.77497 0.19934 0.82751 0.0
C421 C 0.81917 0.27734 0.82702 0.0
H422 H 0.69212 0.2146 0.86989 0.0
H423 H 0.77586 0.15872 0.81552 0.0
H424 H 0.57276 0.06445 0.8849 0.0
H425 H 0.82999 0.02544 0.90027 0.0
H426 H 0.49108 0.07626 0.78355 0.0
H427 H 0.77621 0.34213 0.87062 0.0
H428 H 0.84681 0.2995 0.81421 0.0
C429 C 0.6715 0.02008 0.62338 0.0
C430 C 0.67938 0.02413 0.64213 0.0
N431 N 0.66996 0.94443 0.64883 0.0
N432 N 0.65761 0.93796 0.61813 0.0
C433 C 0.65944 0.89255 0.63406 0.0
H434 H 0.676 0.07381 0.61403 0.0
Co435 Co 0.6427 0.90973 0.59284 0.0
C436 C 0.49694 0.7812 0.5978 0.0
O437 O 0.43918 0.83545 0.59175 0.0
N438 N 0.63717 0.88276 0.56679 0.0
C439 C 0.64698 0.79834 0.54198 0.0
C440 C 0.60793 0.80987 0.5588 0.0
C441 C 0.69206 0.91552 0.5539 0.0
N442 N 0.7002 0.86469 0.53898 0.0
O443 O 0.74695 0.84957 0.59364 0.0
H444 H 0.56881 0.76199 0.56537 0.0
H445 H 0.73248 0.97083 0.55607 0.0
O446 O 0.57659 0.80329 0.59887 0.0
C447 C 0.79847 0.90999 0.58981 0.0
O448 O 0.76811 -0.01187 0.58773 0.0
N449 N 0.5417 0.97694 0.59231 0.0
C450 C 0.38991 0.06866 0.59233 0.0
C451 C 0.41929 0.03177 0.60847 0.0
C452 C 0.493 0.98285 0.60796 0.0
C453 C 0.52076 0.02528 0.57733 0.0
C454 C 0.44283 0.06957 0.57681 0.0
H455 H 0.50562 0.94344 0.61981 0.0
H456 H 0.56129 0.02585 0.56533 0.0
H457 H 0.65543 0.82329 0.63479 0.0
H458 H 0.69472 0.0804 0.65021 0.0
H459 H 0.64273 0.74166 0.53343 0.0
H460 H 0.37827 0.02778 0.62049 0.0
H461 H 0.4206 0.09692 0.56399 0.0
C462 C 0.7004 0.92197 0.37337 0.0
C463 C 0.69621 0.93 0.39212 0.0
N464 N 0.77582 0.9204 0.39886 0.0
N465 N 0.78252 0.90784 0.36816 0.0
C466 C 0.8278 0.90964 0.38411 0.0
H467 H 0.64677 0.92658 0.364 0.0
Co468 Co 0.81091 0.89278 0.34289 0.0
C469 C 0.93924 0.74691 0.34781 0.0
O470 O 0.8851 0.68942 0.34159 0.0
N471 N 0.83805 0.88711 0.31686 0.0
C472 C 0.92297 0.89837 0.29216 0.0
C473 C 0.91167 0.85916 0.30897 0.0
C474 C 0.80471 0.94142 0.30393 0.0
N475 N 0.85582 0.95044 0.28907 0.0
O476 O 0.87122 -0.00305 0.34369 0.0
H477 H 0.96015 0.82108 0.31562 0.0
H478 H 0.74871 0.98095 0.30604 0.0
O479 O 0.91717 0.82654 0.34898 0.0
C480 C 0.81109 0.04865 0.33976 0.0
O481 O 0.73289 0.0185 0.33765 0.0
N482 N 0.74362 0.79186 0.34237 0.0
C483 C 0.65218 0.63986 0.34237 0.0
C484 C 0.68908 0.6693 0.35852 0.0
C485 C 0.73786 0.7431 0.35801 0.0
C486 C 0.69521 0.77093 0.3274 0.0
C487 C 0.65104 0.69293 0.32688 0.0
H488 H 0.77729 0.75577 0.36985 0.0
H489 H 0.69452 0.8115 0.3154 0.0
H490 H 0.89704 0.90541 0.38487 0.0
H491 H 0.6399 0.94551 0.40017 0.0
H492 H 0.97998 0.89514 0.28369 0.0
H493 H 0.69319 0.62824 0.37052 0.0
H494 H 0.62364 0.67073 0.31405 0.0
C495 C 0.79867 0.95062 0.1234 0.0
C496 C 0.79063 0.94633 0.14215 0.0
N497 N 0.79998 0.02594 0.1489 0.0
N498 N 0.81257 0.0328 0.1182 0.0
C499 C 0.81062 0.07802 0.13416 0.0
H500 H 0.79424 0.89701 0.11401 0.0
Co501 Co 0.82763 0.0613 0.09293 0.0
C502 C 0.97336 0.18974 0.09781 0.0
O503 O 0.03073 0.13572 0.09148 0.0
N504 N 0.8333 0.08851 0.06691 0.0
C505 C 0.8217 0.17353 0.04222 0.0
C506 C 0.86094 0.16229 0.05903 0.0
C507 C 0.77912 0.05502 0.05397 0.0
N508 N 0.7699 0.10618 0.03912 0.0
O509 O 0.72339 0.12148 0.09373 0.0
H510 H 0.89876 0.21092 0.0657 0.0
H511 H 0.73979 -0.00113 0.05607 0.0
O512 O 0.89377 0.16761 0.09904 0.0
C513 C 0.67181 0.06127 0.08979 0.0
O514 O 0.70205 0.9831 0.08767 0.0
N515 N 0.92861 -0.00586 0.09242 0.0
C516 C 0.08046 0.90255 0.09247 0.0
C517 C 0.05115 0.93977 0.10859 0.0
C518 C 0.97741 -0.01138 0.10805 0.0
C519 C 0.94949 0.94556 0.07747 0.0
C520 C 0.02745 0.9013 0.07697 0.0
H521 H 0.96474 0.02821 0.11987 0.0
H522 H 0.90889 0.94477 0.06548 0.0
H523 H 0.81462 0.14727 0.13493 0.0
H524 H 0.77525 0.88995 0.15018 0.0
H525 H 0.82469 0.23061 0.03378 0.0
H526 H 0.09224 0.944 0.1206 0.0
H527 H 0.04963 0.87372 0.06416 0.0
C528 C 0.70049 0.54882 0.87346 0.0
C529 C 0.69627 0.54109 0.89221 0.0
N530 N 0.77588 0.5506 0.89896 0.0
N531 N 0.78264 0.56263 0.86824 0.0
C532 C 0.82791 0.56084 0.8842 0.0
H533 H 0.64683 0.54429 0.86409 0.0
Co534 Co 0.81091 0.57753 0.84295 0.0
C535 C 0.93941 0.72332 0.84786 0.0
O536 O 0.88521 0.78095 0.84173 0.0
N537 N 0.83785 0.58307 0.8169 0.0
C538 C 0.92197 0.57339 0.79205 0.0
C539 C 0.91075 0.61219 0.80891 0.0
C540 C 0.80484 0.52844 0.80399 0.0
N541 N 0.85539 0.5205 0.78902 0.0
O542 O 0.87107 0.47327 0.84375 0.0
H543 H 0.95884 0.65103 0.81549 0.0
H544 H 0.74949 0.48808 0.80616 0.0
O545 O 0.91735 0.64367 0.84898 0.0
C546 C 0.81065 0.42176 0.8399 0.0
O547 O 0.73253 0.45214 0.83782 0.0
N548 N 0.74372 0.67852 0.84243 0.0
C549 C 0.65204 0.83032 0.84245 0.0
C550 C 0.68911 0.80102 0.85859 0.0
C551 C 0.73801 0.7273 0.85807 0.0
C552 C 0.69521 0.69937 0.82747 0.0
C553 C 0.65092 0.77732 0.82696 0.0
H554 H 0.77754 0.71471 0.8699 0.0
H555 H 0.6945 0.65877 0.81547 0.0
H556 H 0.89717 0.56476 0.88495 0.0
H557 H 0.63991 0.52579 0.90027 0.0
H558 H 0.97861 0.57758 0.78349 0.0
H559 H 0.69324 0.8421 0.8706 0.0
H560 H 0.62342 0.79948 0.81414 0.0
C561 C 0.67188 0.45056 0.12339 0.0
C562 C 0.67973 0.44614 0.14214 0.0
N563 N 0.67005 0.52564 0.14893 0.0
N564 N 0.65786 0.53275 0.11823 0.0
C565 C 0.65959 0.57783 0.1342 0.0
H566 H 0.67651 0.39705 0.11399 0.0
Co567 Co 0.64276 0.56135 0.09296 0.0
C568 C 0.49698 0.68969 0.09785 0.0
O569 O 0.43968 0.63571 0.09148 0.0
N570 N 0.63703 0.58867 0.06695 0.0
C571 C 0.64871 0.67372 0.04228 0.0
C572 C 0.60964 0.6626 0.0591 0.0
C573 C 0.69094 0.55502 0.05397 0.0
N574 N 0.70011 0.60612 0.03911 0.0
O575 O 0.74699 0.62157 0.09377 0.0
H576 H 0.57218 0.71141 0.0658 0.0
H577 H 0.7301 0.49873 0.05605 0.0
O578 O 0.57658 0.66761 0.0991 0.0
C579 C 0.79861 0.56145 0.08978 0.0
O580 O 0.76839 0.4833 0.08763 0.0
N581 N 0.5418 0.49417 0.09245 0.0
C582 C 0.3898 0.40276 0.09248 0.0
C583 C 0.41919 0.43987 0.10861 0.0
C584 C 0.49299 0.48863 0.10808 0.0
C585 C 0.5209 0.44561 0.0775 0.0
C586 C 0.44289 0.40144 0.07699 0.0
H587 H 0.50568 0.52817 0.11991 0.0
H588 H 0.56151 0.4448 0.06551 0.0
H589 H 0.65547 0.64706 0.135 0.0
H590 H 0.69519 0.38972 0.15016 0.0
H591 H 0.64592 0.73088 0.03385 0.0
H592 H 0.37811 0.44411 0.12061 0.0
H593 H 0.42072 0.37389 0.06418 0.0
C594 C 0.77019 0.42194 0.37336 0.0
C595 C 0.77451 0.42977 0.39211 0.0
N596 N 0.69499 0.41992 0.39888 0.0
N597 N 0.68805 0.40777 0.36817 0.0
C598 C 0.6429 0.40939 0.38414 0.0
H599 H 0.82375 0.42668 0.36397 0.0
Co600 Co 0.65956 0.39273 0.3429 0.0
C601 C 0.53125 0.24685 0.34787 0.0
O602 O 0.5854 0.18928 0.34169 0.0
N603 N 0.63232 0.38707 0.31688 0.0
C604 C 0.54746 0.39796 0.29216 0.0
C605 C 0.55877 0.35893 0.30899 0.0
C606 C 0.66559 0.44134 0.30393 0.0
N607 N 0.61459 0.45004 0.28904 0.0
O608 O 0.59928 0.49692 0.34372 0.0
H609 H 0.51035 0.32081 0.31565 0.0
H610 H 0.72149 0.48101 0.30603 0.0
O611 O 0.5533 0.3265 0.349 0.0
C612 C 0.65945 0.54855 0.33977 0.0
O613 O 0.73762 0.51835 0.33764 0.0
N614 N 0.72686 0.2918 0.34237 0.0
C615 C 0.81847 0.13996 0.34236 0.0
C616 C 0.78164 0.16934 0.35851 0.0
C617 C 0.73277 0.24307 0.35801 0.0
C618 C 0.77517 0.27088 0.32738 0.0
C619 C 0.81942 0.19293 0.32685 0.0
H620 H 0.69339 0.25571 0.36986 0.0
H621 H 0.77574 0.31143 0.31538 0.0
H622 H 0.57367 0.40515 0.38492 0.0
H623 H 0.83087 0.44532 0.40014 0.0
H624 H 0.49046 0.39457 0.2837 0.0
H625 H 0.77765 0.12829 0.37053 0.0
H626 H 0.84674 0.17071 0.31402 0.0
C627 C 0.79861 0.52017 0.62337 0.0
C628 C 0.79091 0.52435 0.64212 0.0
N629 N 0.80072 0.44477 0.64886 0.0
N630 N 0.81268 0.43806 0.61815 0.0
C631 C 0.8111 0.39278 0.6341 0.0
H632 H 0.79388 0.5738 0.614 0.0
Co633 Co 0.82766 0.40974 0.59286 0.0
C634 C 0.97351 0.28135 0.59786 0.0
O635 O 0.03125 0.33561 0.59179 0.0
N636 N 0.83326 0.3827 0.56682 0.0
C637 C 0.82348 0.29829 0.54202 0.0
C638 C 0.86235 0.3097 0.55886 0.0
C639 C 0.77861 0.41559 0.5539 0.0
N640 N 0.77058 0.36484 0.53896 0.0
O641 O 0.72344 0.3495 0.59367 0.0
H642 H 0.9012 0.26169 0.56546 0.0
H643 H 0.7383 0.47098 0.55605 0.0
O644 O 0.89384 0.30338 0.59892 0.0
C645 C 0.67184 0.40978 0.58979 0.0
O646 O 0.70213 0.48794 0.58769 0.0
N647 N 0.92862 0.47703 0.59234 0.0
C648 C 0.08057 0.56854 0.59233 0.0
C649 C 0.05107 0.53184 0.60849 0.0
C650 C 0.9773 0.48301 0.60799 0.0
C651 C 0.94959 0.5253 0.57735 0.0
C652 C 0.02758 0.56949 0.57683 0.0
H653 H 0.96466 0.44368 0.61985 0.0
H654 H 0.90907 0.52586 0.56535 0.0
H655 H 0.81528 0.32354 0.63485 0.0
H656 H 0.77545 0.58066 0.65018 0.0
H657 H 0.82762 0.24154 0.53349 0.0
H658 H 0.09208 0.52787 0.62051 0.0
H659 H 0.04983 0.59676 0.56399 0.0
C660 C 0.70076 0.42143 0.69221 0.0
C661 C 0.69658 0.42939 0.67346 0.0
N662 N 0.77626 0.42025 0.66673 0.0
N663 N 0.78294 0.40778 0.69743 0.0
C664 C 0.82826 0.40982 0.68149 0.0
H665 H 0.64707 0.42574 0.70157 0.0
Co666 Co 0.8113 0.39284 0.72272 0.0
C667 C 0.93983 0.24719 0.7179 0.0
O668 O 0.88583 0.18984 0.72424 0.0
N669 N 0.83833 0.38727 0.74876 0.0
C670 C 0.92293 0.39835 0.77352 0.0
C671 C 0.91182 0.35924 0.75669 0.0
C672 C 0.80488 0.44158 0.76168 0.0
N673 N 0.85578 0.45046 0.77658 0.0
O674 O 0.87134 0.49717 0.72192 0.0
H675 H 0.96037 0.32115 0.75006 0.0
H676 H 0.74896 0.48118 0.75954 0.0
O677 O 0.91773 0.32678 0.71665 0.0
C678 C 0.81091 0.5486 0.72581 0.0
O679 O 0.73283 0.51812 0.72791 0.0
N680 N 0.74424 0.29181 0.72323 0.0
C681 C 0.6526 0.13999 0.72315 0.0
C682 C 0.69005 0.1692 0.70704 0.0
C683 C 0.73891 0.24293 0.7076 0.0
C684 C 0.69549 0.271 0.73815 0.0
C685 C 0.6512 0.19304 0.73864 0.0
H686 H 0.77863 0.25557 0.69579 0.0
H687 H 0.69457 0.31165 0.75014 0.0
H688 H 0.89752 0.40601 0.68074 0.0
H689 H 0.64021 0.44458 0.6654 0.0
H690 H 0.97983 0.39504 0.78202 0.0
H691 H 0.6944 0.12807 0.69505 0.0
H692 H 0.62344 0.17093 0.75144 0.0
C693 C 0.79867 0.45031 0.94227 0.0
C694 C 0.79079 0.44626 0.92352 0.0
N695 N 0.80031 0.52594 0.91682 0.0
N696 N 0.81266 0.5324 0.94752 0.0
C697 C 0.81088 0.57782 0.93159 0.0
H698 H 0.79409 0.39658 0.95163 0.0
Co699 Co 0.8276 0.56059 0.97282 0.0
C700 C 0.97347 0.68901 0.96783 0.0
O701 O 0.03127 0.6347 0.97384 0.0
N702 N 0.83314 0.58751 0.99886 0.0
C703 C 0.82348 0.67185 1.02369 0.0
C704 C 0.86249 0.66033 1.00686 0.0
C705 C 0.77823 0.55478 1.01175 0.0
N706 N 0.77018 0.60556 1.02668 0.0
O707 O 0.7234 0.62086 0.97201 0.0
H708 H 0.9017 0.70816 1.00029 0.0
H709 H 0.73774 0.49953 1.00958 0.0
O710 O 0.89379 0.66699 0.96679 0.0
C711 C 0.67175 0.56055 0.97584 0.0
O712 O 0.70199 0.48236 0.97792 0.0
N713 N 0.92855 0.49329 0.97334 0.0
C714 C 0.08049 0.40175 0.97334 0.0
C715 C 0.05097 0.43845 0.95719 0.0
C716 C 0.97722 0.48729 0.95769 0.0
C717 C 0.94953 0.44503 0.98833 0.0
C718 C 0.02751 0.40083 0.98885 0.0
H719 H 0.96459 0.52662 0.94583 0.0
H720 H 0.90902 0.44448 1.00033 0.0
H721 H 0.81496 0.64707 0.93086 0.0
H722 H 0.77538 0.39 0.91545 0.0
H723 H 0.82783 0.72849 1.03224 0.0
H724 H 0.09197 0.4424 0.94517 0.0
H725 H 0.04977 0.37357 1.00168 0.0
C726 C 0.77004 0.54826 0.19229 0.0
C727 C 0.77422 0.54022 0.17354 0.0
N728 N 0.69462 0.54992 0.16681 0.0
N729 N 0.68794 0.56252 0.1975 0.0
C730 C 0.64265 0.56078 0.18155 0.0
H731 H 0.82367 0.54359 0.20167 0.0
Co732 Co 0.65964 0.57763 0.22278 0.0
C733 C 0.5314 0.72362 0.2178 0.0
O734 O 0.58567 0.7813 0.22388 0.0
N735 N 0.6326 0.58331 0.24882 0.0
C736 C 0.54787 0.57271 0.27356 0.0
C737 C 0.5593 0.61185 0.25675 0.0
C738 C 0.66567 0.52876 0.26173 0.0
N739 N 0.61466 0.52013 0.27662 0.0
O740 O 0.59921 0.47352 0.22199 0.0
H741 H 0.51111 0.65041 0.25013 0.0
H742 H 0.72137 0.48884 0.2596 0.0
O743 O 0.55339 0.64394 0.21672 0.0
C744 C 0.65931 0.42175 0.22589 0.0
O745 O 0.73757 0.45177 0.22799 0.0
N746 N 0.72705 0.67851 0.22329 0.0
C747 C 0.81862 0.83038 0.22329 0.0
C748 C 0.78193 0.80089 0.20713 0.0
C749 C 0.73305 0.72715 0.20764 0.0
C750 C 0.77531 0.69951 0.23829 0.0
C751 C 0.81953 0.77748 0.23881 0.0
H752 H 0.69371 0.71448 0.19578 0.0
H753 H 0.77582 0.65903 0.2503 0.0
H754 H 0.57342 0.5651 0.1808 0.0
H755 H 0.8305 0.52462 0.16549 0.0
H756 H 0.49099 0.5764 0.28206 0.0
H757 H 0.77798 0.84188 0.19511 0.0
H758 H 0.84676 0.79978 0.25164 0.0
C759 C 0.67198 0.51974 0.44225 0.0
C760 C 0.68005 0.52399 0.4235 0.0
N761 N 0.67059 0.44439 0.41676 0.0
N762 N 0.65795 0.43759 0.44745 0.0
C763 C 0.65984 0.39234 0.43149 0.0
H764 H 0.67649 0.57335 0.45164 0.0
Co765 Co 0.64283 0.40914 0.47272 0.0
C766 C 0.49699 0.28081 0.46783 0.0
O767 O 0.43961 0.33486 0.47414 0.0
N768 N 0.63711 0.38197 0.49875 0.0
C769 C 0.64871 0.29697 0.52343 0.0
C770 C 0.60948 0.30819 0.50662 0.0
C771 C 0.69128 0.41548 0.51169 0.0
N772 N 0.7005 0.36433 0.52653 0.0
O773 O 0.74701 0.34885 0.47193 0.0
H774 H 0.57167 0.25955 0.49995 0.0
H775 H 0.73059 0.47164 0.50959 0.0
O776 O 0.57661 0.30287 0.46662 0.0
C777 C 0.7987 0.40897 0.47588 0.0
O778 O 0.76857 0.48717 0.47799 0.0
N779 N 0.54189 0.47637 0.47322 0.0
C780 C 0.38988 0.56776 0.47319 0.0
C781 C 0.41931 0.5307 0.45706 0.0
C782 C 0.49312 0.48195 0.45759 0.0
C783 C 0.52096 0.52491 0.48818 0.0
C784 C 0.44294 0.56906 0.48868 0.0
H785 H 0.50582 0.44242 0.44576 0.0
H786 H 0.56154 0.52569 0.50017 0.0
H787 H 0.65571 0.3231 0.43073 0.0
H788 H 0.69552 0.58035 0.41546 0.0
H789 H 0.64573 0.23989 0.53188 0.0
H790 H 0.37826 0.52647 0.44505 0.0
H791 H 0.42074 0.59658 0.50149 0.0
C792 C 0.26974 0.42142 0.19228 0.0
C793 C 0.27405 0.42922 0.17353 0.0
N794 N 0.19446 0.41977 0.16677 0.0
N795 N 0.18755 0.40765 0.19748 0.0
C796 C 0.14236 0.4095 0.18151 0.0
H797 H 0.32335 0.4259 0.20167 0.0
Co798 Co 0.15897 0.39268 0.22275 0.0
C799 C 0.03042 0.2471 0.21784 0.0
O800 O 0.08437 0.18968 0.22416 0.0
N801 N 0.13166 0.38705 0.24877 0.0
C802 C 0.04676 0.39815 0.27348 0.0
C803 C 0.058 0.35913 0.25665 0.0
C804 C 0.16505 0.4412 0.26173 0.0
N805 N 0.11403 0.45002 0.27661 0.0
O806 O 0.09902 0.49706 0.22194 0.0
H807 H 0.00944 0.32124 0.24997 0.0
H808 H 0.22106 0.48073 0.25964 0.0
O809 O 0.05256 0.3267 0.21662 0.0
C810 C 0.15946 0.5484 0.22588 0.0
O811 O 0.23747 0.51783 0.22802 0.0
N812 N 0.226 0.29162 0.22327 0.0
C813 C 0.31771 0.13984 0.22323 0.0
C814 C 0.28041 0.16906 0.20711 0.0
C815 C 0.23154 0.24279 0.20764 0.0
C816 C 0.27459 0.27078 0.23822 0.0
C817 C 0.3189 0.19286 0.23873 0.0
H818 H 0.19195 0.25544 0.19582 0.0
H819 H 0.27537 0.31142 0.25021 0.0
H820 H 0.07311 0.40561 0.18075 0.0
H821 H 0.33045 0.44452 0.16549 0.0
H822 H -0.01029 0.39493 0.28193 0.0
H823 H 0.2762 0.12795 0.19511 0.0
H824 H 0.34654 0.17073 0.25153 0.0
C825 C 0.2986 0.51969 0.94228 0.0
C826 C 0.29084 0.52397 0.92353 0.0
N827 N 0.30051 0.44441 0.91677 0.0
N828 N 0.31256 0.43753 0.94748 0.0
C829 C 0.31087 0.39233 0.93152 0.0
H830 H 0.29396 0.57328 0.95166 0.0
Co831 Co 0.32761 0.4091 0.97276 0.0
C832 C 0.47341 0.28074 0.96786 0.0
O833 O 0.53086 0.33481 0.97413 0.0
N834 N 0.33329 0.38195 0.99878 0.0
C835 C 0.32216 0.29716 1.02351 0.0
C836 C 0.36118 0.30831 1.00667 0.0
C837 C 0.27917 0.41542 1.01174 0.0
N838 N 0.27033 0.36447 1.02663 0.0
O839 O 0.22341 0.34885 0.97196 0.0
H840 H 0.39905 0.2597 1.00001 0.0
H841 H 0.23967 0.47144 1.00963 0.0
O842 O 0.39379 0.30281 0.96666 0.0
C843 C 0.17182 0.40904 0.97591 0.0
O844 O 0.20203 0.48722 0.97802 0.0
N845 N 0.42856 0.47633 0.97327 0.0
C846 C 0.58044 0.56788 0.97324 0.0
C847 C 0.5511 0.5308 0.9571 0.0
C848 C 0.47735 0.48196 0.95763 0.0
C849 C 0.44946 0.52485 0.98823 0.0
C850 C 0.52744 0.56907 0.98874 0.0
H851 H 0.4647 0.44242 0.9458 0.0
H852 H 0.40888 0.52559 1.00022 0.0
H853 H 0.31496 0.32309 0.93075 0.0
H854 H 0.27543 0.58033 0.91548 0.0
H855 H 0.32534 0.24015 1.03197 0.0
H856 H 0.59218 0.52662 0.9451 0.0
H857 H 0.54964 0.59657 1.00155 0.0
C858 C 0.20048 0.54849 0.69225 0.0
C859 C 0.19624 0.54071 0.6735 0.0
N860 N 0.27579 0.55054 0.66674 0.0
N861 N 0.28259 0.56263 0.69746 0.0
C862 C 0.32782 0.56102 0.6815 0.0
H863 H 0.14688 0.54376 0.70163 0.0
Co864 Co 0.3109 0.57771 0.72274 0.0
C865 C 0.43918 0.72365 0.71781 0.0
O866 O 0.38498 0.78122 0.72396 0.0
N867 N 0.33791 0.58338 0.74878 0.0
C868 C 0.42247 0.57282 0.77355 0.0
C869 C 0.41125 0.61178 0.75671 0.0
C870 C 0.30465 0.52902 0.76171 0.0
N871 N 0.35547 0.52052 0.77663 0.0
O872 O 0.37126 0.47356 0.72195 0.0
H873 H 0.45962 0.65008 0.75008 0.0
H874 H 0.24891 0.48917 0.75958 0.0
O875 O 0.41717 0.64399 0.71668 0.0
C876 C 0.3111 0.42188 0.72587 0.0
O877 O 0.23288 0.452 0.72797 0.0
N878 N 0.24355 0.67861 0.72325 0.0
C879 C 0.152 0.83049 0.72322 0.0
C880 C 0.18888 0.80104 0.70707 0.0
C881 C 0.23775 0.72731 0.7076 0.0
C882 C 0.19515 0.69958 0.73822 0.0
C883 C 0.15093 0.77756 0.73873 0.0
H884 H 0.27721 0.71466 0.69576 0.0
H885 H 0.19452 0.65906 0.75022 0.0
H886 H 0.39706 0.56526 0.68073 0.0
H887 H 0.13991 0.5252 0.66545 0.0
H888 H 0.47935 0.57641 0.78205 0.0
H889 H 0.19296 0.84206 0.69506 0.0
H890 H 0.12356 0.79982 0.75155 0.0
C891 C 0.17177 0.45025 0.44222 0.0
C892 C 0.17951 0.4461 0.42346 0.0
N893 N 0.16973 0.52569 0.41673 0.0
N894 N 0.15769 0.53236 0.44744 0.0
C895 C 0.15931 0.57766 0.43149 0.0
H896 H 0.17649 0.3966 0.45158 0.0
Co897 Co 0.14276 0.56063 0.47273 0.0
C898 C -0.00313 0.68905 0.46772 0.0
O899 O 0.93904 0.63472 0.47371 0.0
N900 N 0.13721 0.58764 0.49877 0.0
C901 C 0.14683 0.67194 0.5236 0.0
C902 C 0.10798 0.66053 0.50675 0.0
C903 C 0.19193 0.55479 0.51168 0.0
N904 N 0.19985 0.60547 0.52664 0.0
O905 O 0.24698 0.62088 0.47192 0.0
H906 H 0.06899 0.70848 0.50016 0.0
H907 H 0.23234 0.49948 0.50953 0.0
O908 O 0.07656 0.66702 0.46669 0.0
C909 C 0.29856 0.56054 0.47578 0.0
O910 O 0.26827 0.48238 0.47788 0.0
N911 N 0.0418 0.4933 0.47326 0.0
C912 C 0.89001 0.40158 0.47329 0.0
C913 C 0.91942 0.43827 0.45712 0.0
C914 C -0.00687 0.4872 0.45762 0.0
C915 C 0.02088 0.44508 0.48826 0.0
C916 C 0.94295 0.40079 0.4888 0.0
H917 H 0.00573 0.5265 0.44575 0.0
H918 H 0.0614 0.4446 0.50027 0.0
H919 H 0.15516 0.6469 0.43075 0.0
H920 H 0.195 0.38981 0.4154 0.0
H921 H 0.14257 0.72863 0.53214 0.0
H922 H 0.87839 0.44215 0.4451 0.0
H923 H 0.92072 0.37355 0.50164 0.0
C924 C 0.26978 0.54896 0.3734 0.0
C925 C 0.27393 0.54099 0.39215 0.0
N926 N 0.19425 0.55024 0.39887 0.0
N927 N 0.18763 0.56276 0.36817 0.0
C928 C 0.14229 0.56078 0.38411 0.0
H929 H 0.32347 0.54457 0.36403 0.0
Co930 Co 0.15927 0.57769 0.34288 0.0
C931 C 0.03076 0.72341 0.34783 0.0
O932 O 0.08491 0.78104 0.34167 0.0
N933 N 0.13219 0.58324 0.31685 0.0
C934 C 0.04758 0.57288 0.29208 0.0
C935 C 0.05902 0.61198 0.3089 0.0
C936 C 0.16517 0.52857 0.30394 0.0
N937 N 0.11424 0.5201 0.28904 0.0
O938 O 0.09917 0.47338 0.34369 0.0
H939 H 0.0109 0.6507 0.3155 0.0
H940 H 0.22074 0.48849 0.30609 0.0
O941 O 0.05284 0.64377 0.34895 0.0
C942 C 0.15959 0.42191 0.33983 0.0
O943 O 0.2377 0.45233 0.33773 0.0
N944 N 0.22642 0.6787 0.34236 0.0
C945 C 0.31814 0.83049 0.34238 0.0
C946 C 0.28109 0.80118 0.35852 0.0
C947 C 0.23218 0.72747 0.358 0.0
C948 C 0.27487 0.69958 0.32739 0.0
C949 C 0.31917 0.77752 0.32688 0.0
H950 H 0.1927 0.71484 0.36984 0.0
H951 H 0.27552 0.659 0.31539 0.0
H952 H 0.07303 0.56467 0.38485 0.0
H953 H 0.33026 0.52568 0.40021 0.0
H954 H -0.00924 0.57674 0.28356 0.0
H955 H 0.27701 0.84225 0.37053 0.0
H956 H 0.34664 0.79969 0.31406 0.0
C957 C 0.1716 0.52006 0.12345 0.0
C958 C 0.17958 0.52411 0.1422 0.0
N959 N 0.17011 0.44443 0.1489 0.0
N960 N 0.15761 0.43796 0.1182 0.0
C961 C 0.15946 0.39255 0.13413 0.0
H962 H 0.17614 0.57379 0.11409 0.0
Co963 Co 0.14269 0.40972 0.09291 0.0
C964 C -0.00314 0.28126 0.09788 0.0
O965 O 0.93911 0.33552 0.09183 0.0
N966 N 0.13717 0.38273 0.06687 0.0
C967 C 0.14728 0.29825 0.04208 0.0
C968 C 0.1082 0.3097 0.0589 0.0
C969 C 0.19194 0.41563 0.05398 0.0
N970 N 0.20025 0.36478 0.03906 0.0
O971 O 0.24694 0.34952 0.09372 0.0
H972 H 0.06927 0.2617 0.06548 0.0
H973 H 0.23217 0.47108 0.05613 0.0
O974 O 0.07653 0.30331 0.09895 0.0
C975 C 0.29848 0.40991 0.08988 0.0
O976 O 0.26814 0.48805 0.08779 0.0
N977 N 0.04172 0.47698 0.09238 0.0
C978 C 0.88993 0.5687 0.09237 0.0
C979 C 0.91929 0.53185 0.10853 0.0
C980 C -0.007 0.48294 0.10802 0.0
C981 C 0.02082 0.5253 0.0774 0.0
C982 C 0.94289 0.56959 0.07687 0.0
H983 H 0.00561 0.44357 0.11988 0.0
H984 H 0.06137 0.52585 0.06539 0.0
H985 H 0.15537 0.32329 0.13486 0.0
H986 H 0.195 0.58038 0.15027 0.0
H987 H 0.14323 0.24151 0.03354 0.0
H988 H 0.87823 0.52789 0.12054 0.0
H989 H 0.92069 0.59692 0.06404 0.0
C990 C 0.20039 0.42146 0.87343 0.0
C991 C 0.19627 0.4294 0.89218 0.0
N992 N 0.27594 0.42 0.8989 0.0
N993 N 0.28251 0.40755 0.8682 0.0
C994 C 0.32787 0.40942 0.88414 0.0
H995 H 0.14669 0.42597 0.86407 0.0
Co996 Co 0.31078 0.39264 0.8429 0.0
C997 C 0.43915 0.24677 0.8478 0.0
O998 O 0.38496 0.18921 0.84163 0.0
N999 N 0.33775 0.38715 0.81686 0.0
C1000 C 0.42232 0.39785 0.79209 0.0
C1001 C 0.41101 0.35867 0.8089 0.0
C1002 C 0.30459 0.44175 0.80396 0.0
N1003 N 0.3555 0.45042 0.78906 0.0
O1004 O 0.37102 0.49686 0.84372 0.0
H1005 H 0.45927 0.32012 0.81551 0.0
H1006 H 0.24891 0.48167 0.80611 0.0
O1007 O 0.41712 0.32642 0.84894 0.0
C1008 C 0.3107 0.54844 0.83985 0.0
O1009 O 0.23253 0.51816 0.83776 0.0
N1010 N 0.24351 0.29169 0.84237 0.0
C1011 C 0.15187 0.13985 0.84238 0.0
C1012 C 0.18885 0.16919 0.85852 0.0
C1013 C 0.23774 0.24291 0.85801 0.0
C1014 C 0.19508 0.27081 0.8274 0.0
C1015 C 0.15083 0.19285 0.82688 0.0
H1016 H 0.27723 0.25551 0.86985 0.0
H1017 H 0.19443 0.31138 0.8154 0.0
H1018 H 0.39713 0.40539 0.88487 0.0
H1019 H 0.13997 0.44476 0.90025 0.0
H1020 H 0.47915 0.39419 0.78357 0.0
H1021 H 0.19293 0.12811 0.87053 0.0
H1022 H 0.1234 0.17066 0.81406 0.0
C1023 C 0.29885 0.45069 0.62338 0.0
C1024 C 0.2909 0.44645 0.64213 0.0
N1025 N 0.30025 0.52608 0.64887 0.0
N1026 N 0.3127 0.53285 0.61817 0.0
C1027 C 0.3108 0.57812 0.63412 0.0
H1028 H 0.29439 0.39705 0.614 0.0
Co1029 Co 0.3277 0.56129 0.59289 0.0
C1030 C 0.47345 0.68968 0.59774 0.0
O1031 O 0.53081 0.63568 0.59142 0.0
N1032 N 0.33331 0.58845 0.56686 0.0
C1033 C 0.32172 0.67338 0.54217 0.0
C1034 C 0.36095 0.6622 0.55898 0.0
C1035 C 0.27912 0.55492 0.55393 0.0
N1036 N 0.26992 0.60603 0.53907 0.0
O1037 O 0.22348 0.6215 0.5937 0.0
H1038 H 0.39879 0.71085 0.56564 0.0
H1039 H 0.2398 0.49878 0.55604 0.0
O1040 O 0.39386 0.66759 0.59898 0.0
C1041 C 0.1719 0.56128 0.58976 0.0
O1042 O 0.20213 0.48311 0.58765 0.0
N1043 N 0.42866 0.49411 0.59237 0.0
C1044 C 0.58053 0.40256 0.59241 0.0
C1045 C 0.55125 0.43976 0.60853 0.0
C1046 C 0.47751 0.4886 0.608 0.0
C1047 C 0.44952 0.44553 0.57742 0.0
C1048 C 0.52749 0.4013 0.57691 0.0
H1049 H 0.46486 0.5282 0.61982 0.0
H1050 H 0.40889 0.44473 0.56543 0.0
H1051 H 0.31479 0.64737 0.63488 0.0
H1052 H 0.27557 0.39009 0.65018 0.0
H1053 H 0.32471 0.73043 0.53371 0.0
H1054 H 0.59236 0.444 0.62053 0.0
H1055 H 0.54964 0.37372 0.5641 0.0
loop_
_geom_bond_atom_site_label_1
_geom_bond_atom_site_label_2
_geom_bond_distance
_geom_bond_site_symmetry_2
_ccdc_geom_bond_type
C0 C1 1.351 . S
C0 N3 1.368 . S
C0 H5 0.931 . S
C1 C0 1.351 . S
C1 N2 1.373 . S
C1 H29 0.930 . S
N2 C1 1.373 . S
N2 C4 1.340 . S
N3 C0 1.368 . S
N3 C4 1.321 . S
N3 Co6 2.135 . S
C4 N2 1.340 . S
C4 N3 1.321 . S
C4 H28 0.930 . S
H5 C0 0.931 . S
Co6 N3 2.135 . S
Co6 N9 2.121 . S
Co6 O14 2.055 1_545 S
Co6 O17 2.039 . S
Co6 N20 2.140 . S
C7 O8 1.227 . S
C7 O17 1.265 . S
O8 C7 1.227 . S
N9 Co6 2.121 . S
N9 C11 1.375 . S
N9 C12 1.313 . S
C10 C11 1.338 . S
C10 N13 1.377 . S
C10 H30 0.930 . S
C11 N9 1.375 . S
C11 C10 1.338 . S
C11 H15 0.931 . S
C12 N9 1.313 . S
C12 N13 1.344 . S
C12 H16 0.930 1_545 S
N13 C10 1.377 . S
N13 C12 1.344 . S
O14 Co6 2.055 1_565 S
O14 C18 1.253 . S
H15 C11 0.931 . S
H16 C12 0.930 1_565 S
O17 Co6 2.039 . S
O17 C7 1.265 . S
C18 O14 1.253 . S
C18 O19 1.227 . S
O19 C18 1.227 . S
N20 Co6 2.140 . S
N20 C23 1.346 . S
N20 C24 1.345 . S
C21 C22 1.387 . S
C21 C25 1.391 . S
C22 C21 1.387 . S
C22 C23 1.369 . S
C22 H31 0.929 . S
C23 N20 1.346 . S
C23 C22 1.369 . S
C23 H26 0.928 . S
C24 N20 1.345 . S
C24 C25 1.371 . S
C24 H27 0.931 . S
C25 C21 1.391 . S
C25 C24 1.371 . S
C25 H32 0.930 . S
H26 C23 0.928 . S
H27 C24 0.931 . S
H28 C4 0.930 . S
H29 C1 0.930 . S
H30 C10 0.930 . S
H31 C22 0.929 . S
H32 C25 0.930 . S
C33 C34 1.351 . S
C33 N36 1.368 . S
C33 H38 0.938 . S
C34 C33 1.351 . S
C34 N35 1.373 . S
C34 H62 0.930 . S
N35 C34 1.373 . S
N35 C37 1.340 . S
N36 C33 1.368 . S
N36 C37 1.321 . S
N36 Co39 2.135 . S
C37 N35 1.340 . S
C37 N36 1.321 . S
C37 H61 0.930 . S
H38 C33 0.938 . S
Co39 N36 2.135 . S
Co39 N42 2.121 . S
Co39 O47 2.055 . S
Co39 O50 2.039 . S
Co39 N53 2.140 . S
C40 O41 1.237 . S
C40 O50 1.265 . S
O41 C40 1.237 . S
N42 Co39 2.121 . S
N42 C44 1.375 . S
N42 C45 1.313 . S
C43 C44 1.338 . S
C43 N46 1.377 . S
C43 H63 0.930 . S
C44 N42 1.375 . S
C44 C43 1.338 . S
C44 H48 0.931 . S
C45 N42 1.313 . S
C45 N46 1.344 . S
C45 H49 0.930 . S
N46 C43 1.377 . S
N46 C45 1.344 . S
O47 Co39 2.055 . S
O47 C51 1.253 . S
H48 C44 0.931 . S
H49 C45 0.930 . S
O50 Co39 2.039 . S
O50 C40 1.265 . S
C51 O47 1.253 . S
C51 O52 1.227 1_545 S
O52 C51 1.227 1_565 S
N53 Co39 2.140 . S
N53 C56 1.346 1_455 S
N53 C57 1.345 1_545 S
C54 C55 1.387 . S
C54 C58 1.391 . S
C55 C54 1.387 . S
C55 C56 1.369 1_565 S
C55 H64 0.929 1_565 S
C56 N53 1.346 1_655 S
C56 C55 1.369 1_545 S
C56 H59 0.928 . S
C57 N53 1.345 1_565 S
C57 C58 1.371 1_455 S
C57 H60 0.931 . S
C58 C54 1.391 . S
C58 C57 1.371 1_655 S
C58 H65 0.930 . S
H59 C56 0.928 . S
H60 C57 0.931 . S
H61 C37 0.930 . S
H62 C34 0.930 . S
H63 C43 0.930 . S
H64 C55 0.929 1_545 S
H65 C58 0.930 . S
C66 C67 1.351 . S
C66 N69 1.368 . S
C66 H71 0.931 . S
C67 C66 1.351 . S
C67 N68 1.373 . S
C67 H95 0.930 . S
N68 C67 1.373 . S
N68 C70 1.340 . S
N69 C66 1.368 . S
N69 C70 1.321 . S
N69 Co72 2.135 . S
C70 N68 1.340 . S
C70 N69 1.321 . S
C70 H94 0.930 . S
H71 C66 0.931 . S
Co72 N69 2.135 . S
Co72 N75 2.121 . S
Co72 O80 2.055 1_565 S
Co72 O83 2.039 1_455 S
Co72 N86 2.140 . S
C73 O74 1.227 1_655 S
C73 O83 1.265 . S
O74 C73 1.227 1_455 S
N75 Co72 2.121 . S
N75 C77 1.375 . S
N75 C78 1.313 . S
C76 C77 1.338 . S
C76 N79 1.377 . S
C76 H96 0.930 . S
C77 N75 1.375 . S
C77 C76 1.338 . S
C77 H81 0.931 . S
C78 N75 1.313 . S
C78 N79 1.344 . S
C78 H82 0.930 1_565 S
N79 C76 1.377 . S
N79 C78 1.344 . S
O80 Co72 2.055 1_545 S
O80 C84 1.253 . S
H81 C77 0.931 . S
H82 C78 0.930 1_545 S
O83 Co72 2.039 1_655 S
O83 C73 1.265 . S
C84 O80 1.253 . S
C84 O85 1.227 . S
O85 C84 1.227 . S
N86 Co72 2.140 . S
N86 C89 1.346 . S
N86 C90 1.345 . S
C87 C88 1.387 . S
C87 C91 1.391 . S
C88 C87 1.387 . S
C88 C89 1.369 . S
C88 H97 0.929 . S
C89 N86 1.346 . S
C89 C88 1.369 . S
C89 H92 0.928 . S
C90 N86 1.345 . S
C90 C91 1.371 . S
C90 H93 0.931 . S
C91 C87 1.391 . S
C91 C90 1.371 . S
C91 H98 0.930 . S
H92 C89 0.928 . S
H93 C90 0.931 . S
H94 C70 0.930 . S
H95 C67 0.930 . S
H96 C76 0.930 . S
H97 C88 0.929 . S
H98 C91 0.930 . S
C99 C100 1.351 . S
C99 N102 1.368 . S
C99 H104 0.937 . S
C100 C99 1.351 . S
C100 N101 1.373 . S
C100 H128 0.930 . S
N101 C100 1.373 . S
N101 C103 1.340 . S
N102 C99 1.368 . S
N102 C103 1.321 . S
N102 Co105 2.135 . S
C103 N101 1.340 . S
C103 N102 1.321 . S
C103 H127 0.930 . S
H104 C99 0.937 . S
Co105 N102 2.135 . S
Co105 N108 2.121 . S
Co105 O113 2.055 . S
Co105 O116 2.039 . S
Co105 N119 2.140 . S
C106 O107 1.227 . S
C106 O116 1.265 . S
O107 C106 1.227 . S
N108 Co105 2.121 . S
N108 C110 1.375 . S
N108 C111 1.313 . S
C109 C110 1.338 . S
C109 N112 1.377 . S
C109 H129 0.930 1_554 S
C110 N108 1.375 . S
C110 C109 1.338 . S
C110 H114 0.931 . S
C111 N108 1.313 . S
C111 N112 1.344 . S
C111 H115 0.930 . S
N112 C109 1.377 . S
N112 C111 1.344 . S
O113 Co105 2.055 . S
O113 C117 1.253 . S
H114 C110 0.931 . S
H115 C111 0.930 . S
O116 Co105 2.039 . S
O116 C106 1.265 . S
C117 O113 1.253 . S
C117 O118 1.227 1_565 S
O118 C117 1.227 1_545 S
N119 Co105 2.140 . S
N119 C122 1.346 . S
N119 C123 1.345 1_565 S
C120 C121 1.387 . S
C120 C124 1.391 . S
C121 C120 1.387 . S
C121 C122 1.369 1_545 S
C121 H130 0.929 1_545 S
C122 N119 1.346 . S
C122 C121 1.369 1_565 S
C122 H125 0.928 . S
C123 N119 1.345 1_545 S
C123 C124 1.371 . S
C123 H126 0.931 . S
C124 C120 1.391 . S
C124 C123 1.371 . S
C124 H131 0.930 . S
H125 C122 0.928 . S
H126 C123 0.931 . S
H127 C103 0.930 . S
H128 C100 0.930 . S
H129 C109 0.930 1_556 S
H130 C121 0.929 1_565 S
H131 C124 0.930 . S
C132 C133 1.351 . S
C132 N135 1.368 . S
C132 H137 0.931 . S
C133 C132 1.351 . S
C133 N134 1.373 . S
C133 H161 0.930 . S
N134 C133 1.373 . S
N134 C136 1.340 . S
N135 C132 1.368 . S
N135 C136 1.321 . S
N135 Co138 2.135 . S
C136 N134 1.340 . S
C136 N135 1.321 . S
C136 H160 0.930 . S
H137 C132 0.931 . S
Co138 N135 2.135 . S
Co138 N141 2.121 . S
Co138 O146 2.055 1_565 S
Co138 O149 2.039 . S
Co138 N152 2.140 . S
C139 O140 1.227 . S
C139 O149 1.265 . S
O140 C139 1.227 . S
N141 Co138 2.121 . S
N141 C143 1.375 . S
N141 C144 1.313 . S
C142 C143 1.338 . S
C142 N145 1.377 . S
C142 H162 0.930 . S
C143 N141 1.375 . S
C143 C142 1.338 . S
C143 H147 0.931 . S
C144 N141 1.313 . S
C144 N145 1.344 . S
C144 H148 0.930 1_565 S
N145 C142 1.377 . S
N145 C144 1.344 . S
O146 Co138 2.055 1_545 S
O146 C150 1.253 . S
H147 C143 0.931 . S
H148 C144 0.930 1_545 S
O149 Co138 2.039 . S
O149 C139 1.265 . S
C150 O146 1.253 . S
C150 O151 1.227 . S
O151 C150 1.227 . S
N152 Co138 2.140 . S
N152 C155 1.346 . S
N152 C156 1.345 . S
C153 C154 1.387 . S
C153 C157 1.391 . S
C154 C153 1.387 . S
C154 C155 1.369 . S
C154 H163 0.929 . S
C155 N152 1.346 . S
C155 C154 1.369 . S
C155 H158 0.928 . S
C156 N152 1.345 . S
C156 C157 1.371 . S
C156 H159 0.931 . S
C157 C153 1.391 . S
C157 C156 1.371 . S
C157 H164 0.930 . S
H158 C155 0.928 . S
H159 C156 0.931 . S
H160 C136 0.930 . S
H161 C133 0.930 . S
H162 C142 0.930 . S
H163 C154 0.929 . S
H164 C157 0.930 . S
C165 C166 1.351 . S
C165 N168 1.368 . S
C165 H170 0.937 . S
C166 C165 1.351 . S
C166 N167 1.373 . S
C166 H194 0.930 . S
N167 C166 1.373 . S
N167 C169 1.340 . S
N168 C165 1.368 . S
N168 C169 1.321 . S
N168 Co171 2.135 . S
C169 N167 1.340 . S
C169 N168 1.321 . S
C169 H193 0.930 . S
H170 C165 0.937 . S
Co171 N168 2.135 . S
Co171 N174 2.121 . S
Co171 O179 2.055 . S
Co171 O182 2.039 . S
Co171 N185 2.140 . S
C172 O173 1.227 . S
C172 O182 1.265 . S
O173 C172 1.227 . S
N174 Co171 2.121 . S
N174 C176 1.375 . S
N174 C177 1.313 . S
C175 C176 1.338 . S
C175 N178 1.377 . S
C175 H195 0.930 . S
C176 N174 1.375 . S
C176 C175 1.338 . S
C176 H180 0.931 . S
C177 N174 1.313 . S
C177 N178 1.344 . S
C177 H181 0.930 . S
N178 C175 1.377 . S
N178 C177 1.344 . S
O179 Co171 2.055 . S
O179 C183 1.253 . S
H180 C176 0.931 . S
H181 C177 0.930 . S
O182 Co171 2.039 . S
O182 C172 1.265 . S
C183 O179 1.253 . S
C183 O184 1.227 1_545 S
O184 C183 1.227 1_565 S
N185 Co171 2.140 . S
N185 C188 1.346 . S
N185 C189 1.345 1_545 S
C186 C187 1.387 . S
C186 C190 1.391 . S
C187 C186 1.387 . S
C187 C188 1.369 1_565 S
C187 H196 0.929 1_565 S
C188 N185 1.346 . S
C188 C187 1.369 1_545 S
C188 H191 0.928 . S
C189 N185 1.345 1_565 S
C189 C190 1.371 . S
C189 H192 0.931 . S
C190 C186 1.391 . S
C190 C189 1.371 . S
C190 H197 0.930 . S
H191 C188 0.928 . S
H192 C189 0.931 . S
H193 C169 0.930 . S
H194 C166 0.930 . S
H195 C175 0.930 . S
H196 C187 0.929 1_545 S
H197 C190 0.930 . S
C198 C199 1.351 . S
C198 N201 1.368 . S
C198 H203 0.931 . S
C199 C198 1.351 . S
C199 N200 1.373 . S
C199 H227 0.930 . S
N200 C199 1.373 . S
N200 C202 1.340 . S
N201 C198 1.368 . S
N201 C202 1.321 . S
N201 Co204 2.135 . S
C202 N200 1.340 . S
C202 N201 1.321 . S
C202 H226 0.930 . S
H203 C198 0.931 . S
Co204 N201 2.135 . S
Co204 N207 2.121 . S
Co204 O212 2.055 1_545 S
Co204 O215 2.039 1_455 S
Co204 N218 2.140 . S
C205 O206 1.227 1_655 S
C205 O215 1.265 . S
O206 C205 1.227 1_455 S
N207 Co204 2.121 . S
N207 C209 1.375 . S
N207 C210 1.313 . S
C208 C209 1.338 . S
C208 N211 1.377 . S
C208 H228 0.930 . S
C209 N207 1.375 . S
C209 C208 1.338 . S
C209 H213 0.931 . S
C210 N207 1.313 . S
C210 N211 1.344 . S
C210 H214 0.930 1_545 S
N211 C208 1.377 . S
N211 C210 1.344 . S
O212 Co204 2.055 1_565 S
O212 C216 1.253 . S
H213 C209 0.931 . S
H214 C210 0.930 1_565 S
O215 Co204 2.039 1_655 S
O215 C205 1.265 . S
C216 O212 1.253 . S
C216 O217 1.227 . S
O217 C216 1.227 . S
N218 Co204 2.140 . S
N218 C221 1.346 . S
N218 C222 1.345 . S
C219 C220 1.387 . S
C219 C223 1.391 . S
C220 C219 1.387 . S
C220 C221 1.369 . S
C220 H229 0.929 . S
C221 N218 1.346 . S
C221 C220 1.369 . S
C221 H224 0.928 . S
C222 N218 1.345 . S
C222 C223 1.371 . S
C222 H225 0.931 . S
C223 C219 1.391 . S
C223 C222 1.371 . S
C223 H230 0.930 . S
H224 C221 0.928 . S
H225 C222 0.931 . S
H226 C202 0.930 . S
H227 C199 0.930 . S
H228 C208 0.930 . S
H229 C220 0.929 . S
H230 C223 0.930 . S
C231 C232 1.351 . S
C231 N234 1.368 . S
C231 H236 0.938 . S
C232 C231 1.351 . S
C232 N233 1.373 . S
C232 H260 0.930 . S
N233 C232 1.373 . S
N233 C235 1.340 . S
N234 C231 1.368 . S
N234 C235 1.321 . S
N234 Co237 2.135 . S
C235 N233 1.340 . S
C235 N234 1.321 . S
C235 H259 0.930 . S
H236 C231 0.938 . S
Co237 N234 2.135 . S
Co237 N240 2.121 . S
Co237 O245 2.055 . S
Co237 O248 2.039 . S
Co237 N251 2.140 . S
C238 O239 1.237 . S
C238 O248 1.265 . S
O239 C238 1.237 . S
N240 Co237 2.121 . S
N240 C242 1.375 . S
N240 C243 1.313 . S
C241 C242 1.338 . S
C241 N244 1.377 . S
C241 H261 0.930 1_556 S
C242 N240 1.375 . S
C242 C241 1.338 . S
C242 H246 0.931 . S
C243 N240 1.313 . S
C243 N244 1.344 . S
C243 H247 0.930 . S
N244 C241 1.377 . S
N244 C243 1.344 . S
O245 Co237 2.055 . S
O245 C249 1.253 . S
H246 C242 0.931 . S
H247 C243 0.930 . S
O248 Co237 2.039 . S
O248 C238 1.265 . S
C249 O245 1.253 . S
C249 O250 1.227 1_565 S
O250 C249 1.227 1_545 S
N251 Co237 2.140 . S
N251 C254 1.346 1_455 S
N251 C255 1.345 1_565 S
C252 C253 1.387 . S
C252 C256 1.391 . S
C253 C252 1.387 . S
C253 C254 1.369 1_545 S
C253 H262 0.929 1_545 S
C254 N251 1.346 1_655 S
C254 C253 1.369 1_565 S
C254 H257 0.928 . S
C255 N251 1.345 1_545 S
C255 C256 1.371 1_455 S
C255 H258 0.931 . S
C256 C252 1.391 . S
C256 C255 1.371 1_655 S
C256 H263 0.930 . S
H257 C254 0.928 . S
H258 C255 0.931 . S
H259 C235 0.930 . S
H260 C232 0.930 . S
H261 C241 0.930 1_554 S
H262 C253 0.929 1_565 S
H263 C256 0.930 . S
C264 C265 1.351 . S
C264 N267 1.368 . S
C264 H269 0.931 . S
C265 C264 1.351 . S
C265 N266 1.373 . S
C265 H293 0.930 . S
N266 C265 1.373 . S
N266 C268 1.340 . S
N267 C264 1.368 . S
N267 C268 1.321 . S
N267 Co270 2.135 . S
C268 N266 1.340 . S
C268 N267 1.321 . S
C268 H292 0.930 . S
H269 C264 0.931 . S
Co270 N267 2.135 . S
Co270 N273 2.121 . S
Co270 O278 2.055 1_565 S
Co270 O281 2.039 . S
Co270 N284 2.140 . S
C271 O272 1.227 . S
C271 O281 1.265 . S
O272 C271 1.227 . S
N273 Co270 2.121 . S
N273 C275 1.375 . S
N273 C276 1.313 . S
C274 C275 1.338 . S
C274 N277 1.377 . S
C274 H294 0.930 . S
C275 N273 1.375 . S
C275 C274 1.338 . S
C275 H279 0.931 . S
C276 N273 1.313 . S
C276 N277 1.344 . S
C276 H280 0.930 1_565 S
N277 C274 1.377 . S
N277 C276 1.344 . S
O278 Co270 2.055 1_545 S
O278 C282 1.253 . S
H279 C275 0.931 . S
H280 C276 0.930 1_545 S
O281 Co270 2.039 . S
O281 C271 1.265 . S
C282 O278 1.253 . S
C282 O283 1.227 . S
O283 C282 1.227 . S
N284 Co270 2.140 . S
N284 C287 1.346 . S
N284 C288 1.345 . S
C285 C286 1.387 . S
C285 C289 1.391 . S
C286 C285 1.387 . S
C286 C287 1.369 . S
C286 H295 0.929 . S
C287 N284 1.346 . S
C287 C286 1.369 . S
C287 H290 0.928 . S
C288 N284 1.345 . S
C288 C289 1.371 . S
C288 H291 0.931 . S
C289 C285 1.391 . S
C289 C288 1.371 . S
C289 H296 0.930 . S
H290 C287 0.928 . S
H291 C288 0.931 . S
H292 C268 0.930 . S
H293 C265 0.930 . S
H294 C274 0.930 . S
H295 C286 0.929 . S
H296 C289 0.930 . S
C297 C298 1.351 . S
C297 N300 1.368 . S
C297 H302 0.938 . S
C298 C297 1.351 . S
C298 N299 1.373 . S
C298 H326 0.930 . S
N299 C298 1.373 . S
N299 C301 1.340 . S
N300 C297 1.368 . S
N300 C301 1.321 . S
N300 Co303 2.135 . S
C301 N299 1.340 . S
C301 N300 1.321 . S
C301 H325 0.930 . S
H302 C297 0.938 . S
Co303 N300 2.135 . S
Co303 N306 2.121 . S
Co303 O311 2.055 . S
Co303 O314 2.039 . S
Co303 N317 2.140 . S
C304 O305 1.237 . S
C304 O314 1.265 . S
O305 C304 1.237 . S
N306 Co303 2.121 . S
N306 C308 1.375 . S
N306 C309 1.313 . S
C307 C308 1.338 . S
C307 N310 1.377 . S
C307 H327 0.930 . S
C308 N306 1.375 . S
C308 C307 1.338 . S
C308 H312 0.931 . S
C309 N306 1.313 . S
C309 N310 1.344 . S
C309 H313 0.930 . S
N310 C307 1.377 . S
N310 C309 1.344 . S
O311 Co303 2.055 . S
O311 C315 1.253 . S
H312 C308 0.931 . S
H313 C309 0.930 . S
O314 Co303 2.039 . S
O314 C304 1.265 . S
C315 O311 1.253 . S
C315 O316 1.227 1_565 S
O316 C315 1.227 1_545 S
N317 Co303 2.140 . S
N317 C320 1.346 1_655 S
N317 C321 1.345 1_565 S
C318 C319 1.387 . S
C318 C322 1.391 . S
C319 C318 1.387 . S
C319 C320 1.369 1_545 S
C319 H328 0.929 1_545 S
C320 N317 1.346 1_455 S
C320 C319 1.369 1_565 S
C320 H323 0.928 . S
C321 N317 1.345 1_545 S
C321 C322 1.371 1_655 S
C321 H324 0.931 . S
C322 C318 1.391 . S
C322 C321 1.371 1_455 S
C322 H329 0.930 . S
H323 C320 0.928 . S
H324 C321 0.931 . S
H325 C301 0.930 . S
H326 C298 0.930 . S
H327 C307 0.930 . S
H328 C319 0.929 1_565 S
H329 C322 0.930 . S
C330 C331 1.351 . S
C330 N333 1.368 . S
C330 H335 0.931 . S
C331 C330 1.351 . S
C331 N332 1.373 . S
C331 H359 0.930 . S
N332 C331 1.373 . S
N332 C334 1.340 . S
N333 C330 1.368 . S
N333 C334 1.321 . S
N333 Co336 2.135 . S
C334 N332 1.340 . S
C334 N333 1.321 . S
C334 H358 0.930 . S
H335 C330 0.931 . S
Co336 N333 2.135 . S
Co336 N339 2.121 . S
Co336 O344 2.055 1_545 S
Co336 O347 2.039 1_655 S
Co336 N350 2.140 . S
C337 O338 1.227 1_455 S
C337 O347 1.265 . S
O338 C337 1.227 1_655 S
N339 Co336 2.121 . S
N339 C341 1.375 . S
N339 C342 1.313 . S
C340 C341 1.338 . S
C340 N343 1.377 . S
C340 H360 0.930 . S
C341 N339 1.375 . S
C341 C340 1.338 . S
C341 H345 0.931 . S
C342 N339 1.313 . S
C342 N343 1.344 . S
C342 H346 0.930 1_545 S
N343 C340 1.377 . S
N343 C342 1.344 . S
O344 Co336 2.055 1_565 S
O344 C348 1.253 . S
H345 C341 0.931 . S
H346 C342 0.930 1_565 S
O347 Co336 2.039 1_455 S
O347 C337 1.265 . S
C348 O344 1.253 . S
C348 O349 1.227 . S
O349 C348 1.227 . S
N350 Co336 2.140 . S
N350 C353 1.346 . S
N350 C354 1.345 . S
C351 C352 1.387 . S
C351 C355 1.391 . S
C352 C351 1.387 . S
C352 C353 1.369 . S
C352 H361 0.929 . S
C353 N350 1.346 . S
C353 C352 1.369 . S
C353 H356 0.928 . S
C354 N350 1.345 . S
C354 C355 1.371 . S
C354 H357 0.931 . S
C355 C351 1.391 . S
C355 C354 1.371 . S
C355 H362 0.930 . S
H356 C353 0.928 . S
H357 C354 0.931 . S
H358 C334 0.930 . S
H359 C331 0.930 . S
H360 C340 0.930 . S
H361 C352 0.929 . S
H362 C355 0.930 . S
C363 C364 1.351 . S
C363 N366 1.368 . S
C363 H368 0.937 . S
C364 C363 1.351 . S
C364 N365 1.373 . S
C364 H392 0.930 . S
N365 C364 1.373 . S
N365 C367 1.340 . S
N366 C363 1.368 . S
N366 C367 1.321 . S
N366 Co369 2.135 . S
C367 N365 1.340 . S
C367 N366 1.321 . S
C367 H391 0.930 . S
H368 C363 0.937 . S
Co369 N366 2.135 . S
Co369 N372 2.121 . S
Co369 O377 2.055 . S
Co369 O380 2.039 . S
Co369 N383 2.140 . S
C370 O371 1.227 . S
C370 O380 1.265 . S
O371 C370 1.227 . S
N372 Co369 2.121 . S
N372 C374 1.375 . S
N372 C375 1.313 . S
C373 C374 1.338 . S
C373 N376 1.377 . S
C373 H393 0.930 1_556 S
C374 N372 1.375 . S
C374 C373 1.338 . S
C374 H378 0.931 . S
C375 N372 1.313 . S
C375 N376 1.344 . S
C375 H379 0.930 . S
N376 C373 1.377 . S
N376 C375 1.344 . S
O377 Co369 2.055 . S
O377 C381 1.253 . S
H378 C374 0.931 . S
H379 C375 0.930 . S
O380 Co369 2.039 . S
O380 C370 1.265 . S
C381 O377 1.253 . S
C381 O382 1.227 1_545 S
O382 C381 1.227 1_565 S
N383 Co369 2.140 . S
N383 C386 1.346 . S
N383 C387 1.345 1_545 S
C384 C385 1.387 . S
C384 C388 1.391 . S
C385 C384 1.387 . S
C385 C386 1.369 1_565 S
C385 H394 0.929 1_565 S
C386 N383 1.346 . S
C386 C385 1.369 1_545 S
C386 H389 0.928 . S
C387 N383 1.345 1_565 S
C387 C388 1.371 . S
C387 H390 0.931 . S
C388 C384 1.391 . S
C388 C387 1.371 . S
C388 H395 0.930 . S
H389 C386 0.928 . S
H390 C387 0.931 . S
H391 C367 0.930 . S
H392 C364 0.930 . S
H393 C373 0.930 1_554 S
H394 C385 0.929 1_545 S
H395 C388 0.930 . S
C396 C397 1.351 . S
C396 N399 1.368 . S
C396 H401 0.931 . S
C397 C396 1.351 . S
C397 N398 1.373 . S
C397 H425 0.930 . S
N398 C397 1.373 . S
N398 C400 1.340 . S
N399 C396 1.368 . S
N399 C400 1.321 . S
N399 Co402 2.135 . S
C400 N398 1.340 . S
C400 N399 1.321 . S
C400 H424 0.930 . S
H401 C396 0.931 . S
Co402 N399 2.135 . S
Co402 N405 2.121 . S
Co402 O410 2.055 1_545 S
Co402 O413 2.039 . S
Co402 N416 2.140 . S
C403 O404 1.227 . S
C403 O413 1.265 . S
O404 C403 1.227 . S
N405 Co402 2.121 . S
N405 C407 1.375 . S
N405 C408 1.313 . S
C406 C407 1.338 . S
C406 N409 1.377 . S
C406 H426 0.930 . S
C407 N405 1.375 . S
C407 C406 1.338 . S
C407 H411 0.931 . S
C408 N405 1.313 . S
C408 N409 1.344 . S
C408 H412 0.930 1_545 S
N409 C406 1.377 . S
N409 C408 1.344 . S
O410 Co402 2.055 1_565 S
O410 C414 1.253 . S
H411 C407 0.931 . S
H412 C408 0.930 1_565 S
O413 Co402 2.039 . S
O413 C403 1.265 . S
C414 O410 1.253 . S
C414 O415 1.227 . S
O415 C414 1.227 . S
N416 Co402 2.140 . S
N416 C419 1.346 . S
N416 C420 1.345 . S
C417 C418 1.387 . S
C417 C421 1.391 . S
C418 C417 1.387 . S
C418 C419 1.369 . S
C418 H427 0.929 . S
C419 N416 1.346 . S
C419 C418 1.369 . S
C419 H422 0.928 . S
C420 N416 1.345 . S
C420 C421 1.371 . S
C420 H423 0.931 . S
C421 C417 1.391 . S
C421 C420 1.371 . S
C421 H428 0.930 . S
H422 C419 0.928 . S
H423 C420 0.931 . S
H424 C400 0.930 . S
H425 C397 0.930 . S
H426 C406 0.930 . S
H427 C418 0.929 . S
H428 C421 0.930 . S
C429 C430 1.351 . S
C429 N432 1.368 . S
C429 H434 0.937 . S
C430 C429 1.351 . S
C430 N431 1.373 . S
C430 H458 0.930 . S
N431 C430 1.373 . S
N431 C433 1.340 . S
N432 C429 1.368 . S
N432 C433 1.321 . S
N432 Co435 2.135 . S
C433 N431 1.340 . S
C433 N432 1.321 . S
C433 H457 0.930 . S
H434 C429 0.937 . S
Co435 N432 2.135 . S
Co435 N438 2.121 . S
Co435 O443 2.055 . S
Co435 O446 2.039 . S
Co435 N449 2.140 . S
C436 O437 1.227 . S
C436 O446 1.265 . S
O437 C436 1.227 . S
N438 Co435 2.121 . S
N438 C440 1.375 . S
N438 C441 1.313 . S
C439 C440 1.338 . S
C439 N442 1.377 . S
C439 H459 0.930 . S
C440 N438 1.375 . S
C440 C439 1.338 . S
C440 H444 0.931 . S
C441 N438 1.313 . S
C441 N442 1.344 . S
C441 H445 0.930 . S
N442 C439 1.377 . S
N442 C441 1.344 . S
O443 Co435 2.055 . S
O443 C447 1.253 . S
H444 C440 0.931 . S
H445 C441 0.930 . S
O446 Co435 2.039 . S
O446 C436 1.265 . S
C447 O443 1.253 . S
C447 O448 1.227 1_565 S
O448 C447 1.227 1_545 S
N449 Co435 2.140 . S
N449 C452 1.346 . S
N449 C453 1.345 1_565 S
C450 C451 1.387 . S
C450 C454 1.391 . S
C451 C450 1.387 . S
C451 C452 1.369 1_545 S
C451 H460 0.929 1_545 S
C452 N449 1.346 . S
C452 C451 1.369 1_565 S
C452 H455 0.928 . S
C453 N449 1.345 1_545 S
C453 C454 1.371 . S
C453 H456 0.931 . S
C454 C450 1.391 . S
C454 C453 1.371 . S
C454 H461 0.930 . S
H455 C452 0.928 . S
H456 C453 0.931 . S
H457 C433 0.930 . S
H458 C430 0.930 . S
H459 C439 0.930 . S
H460 C451 0.929 1_565 S
H461 C454 0.930 . S
C462 C463 1.351 . S
C462 N465 1.368 . S
C462 H467 0.931 . S
C463 C462 1.351 . S
C463 N464 1.373 . S
C463 H491 0.930 . S
N464 C463 1.373 . S
N464 C466 1.340 . S
N465 C462 1.368 . S
N465 C466 1.321 . S
N465 Co468 2.135 . S
C466 N464 1.340 . S
C466 N465 1.321 . S
C466 H490 0.930 . S
H467 C462 0.931 . S
Co468 N465 2.135 . S
Co468 N471 2.121 . S
Co468 O476 2.055 1_565 S
Co468 O479 2.039 1_655 S
Co468 N482 2.140 . S
C469 O470 1.227 1_455 S
C469 O479 1.265 . S
O470 C469 1.227 1_655 S
N471 Co468 2.121 . S
N471 C473 1.375 . S
N471 C474 1.313 . S
C472 C473 1.338 . S
C472 N475 1.377 . S
C472 H492 0.930 . S
C473 N471 1.375 . S
C473 C472 1.338 . S
C473 H477 0.931 . S
C474 N471 1.313 . S
C474 N475 1.344 . S
C474 H478 0.930 1_565 S
N475 C472 1.377 . S
N475 C474 1.344 . S
O476 Co468 2.055 1_545 S
O476 C480 1.253 . S
H477 C473 0.931 . S
H478 C474 0.930 1_545 S
O479 Co468 2.039 1_455 S
O479 C469 1.265 . S
C480 O476 1.253 . S
C480 O481 1.227 . S
O481 C480 1.227 . S
N482 Co468 2.140 . S
N482 C485 1.346 . S
N482 C486 1.345 . S
C483 C484 1.387 . S
C483 C487 1.391 . S
C484 C483 1.387 . S
C484 C485 1.369 . S
C484 H493 0.929 . S
C485 N482 1.346 . S
C485 C484 1.369 . S
C485 H488 0.928 . S
C486 N482 1.345 . S
C486 C487 1.371 . S
C486 H489 0.931 . S
C487 C483 1.391 . S
C487 C486 1.371 . S
C487 H494 0.930 . S
H488 C485 0.928 . S
H489 C486 0.931 . S
H490 C466 0.930 . S
H491 C463 0.930 . S
H492 C472 0.930 . S
H493 C484 0.929 . S
H494 C487 0.930 . S
C495 C496 1.351 . S
C495 N498 1.368 . S
C495 H500 0.938 . S
C496 C495 1.351 . S
C496 N497 1.373 . S
C496 H524 0.930 . S
N497 C496 1.373 . S
N497 C499 1.340 . S
N498 C495 1.368 . S
N498 C499 1.321 . S
N498 Co501 2.135 . S
C499 N497 1.340 . S
C499 N498 1.321 . S
C499 H523 0.930 . S
H500 C495 0.938 . S
Co501 N498 2.135 . S
Co501 N504 2.121 . S
Co501 O509 2.055 . S
Co501 O512 2.039 . S
Co501 N515 2.140 . S
C502 O503 1.237 . S
C502 O512 1.265 . S
O503 C502 1.237 . S
N504 Co501 2.121 . S
N504 C506 1.375 . S
N504 C507 1.313 . S
C505 C506 1.338 . S
C505 N508 1.377 . S
C505 H525 0.930 1_554 S
C506 N504 1.375 . S
C506 C505 1.338 . S
C506 H510 0.931 . S
C507 N504 1.313 . S
C507 N508 1.344 . S
C507 H511 0.930 . S
N508 C505 1.377 . S
N508 C507 1.344 . S
O509 Co501 2.055 . S
O509 C513 1.253 . S
H510 C506 0.931 . S
H511 C507 0.930 . S
O512 Co501 2.039 . S
O512 C502 1.265 . S
C513 O509 1.253 . S
C513 O514 1.227 1_545 S
O514 C513 1.227 1_565 S
N515 Co501 2.140 . S
N515 C518 1.346 1_655 S
N515 C519 1.345 1_545 S
C516 C517 1.387 . S
C516 C520 1.391 . S
C517 C516 1.387 . S
C517 C518 1.369 1_565 S
C517 H526 0.929 1_565 S
C518 N515 1.346 1_455 S
C518 C517 1.369 1_545 S
C518 H521 0.928 . S
C519 N515 1.345 1_565 S
C519 C520 1.371 1_655 S
C519 H522 0.931 . S
C520 C516 1.391 . S
C520 C519 1.371 1_455 S
C520 H527 0.930 . S
H521 C518 0.928 . S
H522 C519 0.931 . S
H523 C499 0.930 . S
H524 C496 0.930 . S
H525 C505 0.930 1_556 S
H526 C517 0.929 1_545 S
H527 C520 0.930 . S
C528 C529 1.351 . S
C528 N531 1.368 . S
C528 H533 0.931 . S
C529 C528 1.351 . S
C529 N530 1.373 . S
C529 H557 0.930 . S
N530 C529 1.373 . S
N530 C532 1.340 . S
N531 C528 1.368 . S
N531 C532 1.321 . S
N531 Co534 2.135 . S
C532 N530 1.340 . S
C532 N531 1.321 . S
C532 H556 0.930 . S
H533 C528 0.931 . S
Co534 N531 2.135 . S
Co534 N537 2.121 . S
Co534 O542 2.055 . S
Co534 O545 2.039 1_655 S
Co534 N548 2.140 . S
C535 O536 1.227 1_455 S
C535 O545 1.265 . S
O536 C535 1.227 1_655 S
N537 Co534 2.121 . S
N537 C539 1.375 . S
N537 C540 1.313 . S
C538 C539 1.338 . S
C538 N541 1.377 . S
C538 H558 0.930 . S
C539 N537 1.375 . S
C539 C538 1.338 . S
C539 H543 0.931 . S
C540 N537 1.313 . S
C540 N541 1.344 . S
C540 H544 0.930 . S
N541 C538 1.377 . S
N541 C540 1.344 . S
O542 Co534 2.055 . S
O542 C546 1.253 . S
H543 C539 0.931 . S
H544 C540 0.930 . S
O545 Co534 2.039 1_455 S
O545 C535 1.265 . S
C546 O542 1.253 . S
C546 O547 1.227 . S
O547 C546 1.227 . S
N548 Co534 2.140 . S
N548 C551 1.346 . S
N548 C552 1.345 . S
C549 C550 1.387 . S
C549 C553 1.391 . S
C550 C549 1.387 . S
C550 C551 1.369 . S
C550 H559 0.929 . S
C551 N548 1.346 . S
C551 C550 1.369 . S
C551 H554 0.928 . S
C552 N548 1.345 . S
C552 C553 1.371 . S
C552 H555 0.931 . S
C553 C549 1.391 . S
C553 C552 1.371 . S
C553 H560 0.930 . S
H554 C551 0.928 . S
H555 C552 0.931 . S
H556 C532 0.930 . S
H557 C529 0.930 . S
H558 C538 0.930 . S
H559 C550 0.929 . S
H560 C553 0.930 . S
C561 C562 1.351 . S
C561 N564 1.368 . S
C561 H566 0.931 . S
C562 C561 1.351 . S
C562 N563 1.373 . S
C562 H590 0.930 . S
N563 C562 1.373 . S
N563 C565 1.340 . S
N564 C561 1.368 . S
N564 C565 1.321 . S
N564 Co567 2.135 . S
C565 N563 1.340 . S
C565 N564 1.321 . S
C565 H589 0.930 . S
H566 C561 0.931 . S
Co567 N564 2.135 . S
Co567 N570 2.121 . S
Co567 O575 2.055 . S
Co567 O578 2.039 . S
Co567 N581 2.140 . S
C568 O569 1.227 . S
C568 O578 1.265 . S
O569 C568 1.227 . S
N570 Co567 2.121 . S
N570 C572 1.375 . S
N570 C573 1.313 . S
C571 C572 1.338 . S
C571 N574 1.377 . S
C571 H591 0.930 1_554 S
C572 N570 1.375 . S
C572 C571 1.338 . S
C572 H576 0.931 . S
C573 N570 1.313 . S
C573 N574 1.344 . S
C573 H577 0.930 . S
N574 C571 1.377 . S
N574 C573 1.344 . S
O575 Co567 2.055 . S
O575 C579 1.253 . S
H576 C572 0.931 . S
H577 C573 0.930 . S
O578 Co567 2.039 . S
O578 C568 1.265 . S
C579 O575 1.253 . S
C579 O580 1.227 . S
O580 C579 1.227 . S
N581 Co567 2.140 . S
N581 C584 1.346 . S
N581 C585 1.345 . S
C582 C583 1.387 . S
C582 C586 1.391 . S
C583 C582 1.387 . S
C583 C584 1.369 . S
C583 H592 0.929 . S
C584 N581 1.346 . S
C584 C583 1.369 . S
C584 H587 0.928 . S
C585 N581 1.345 . S
C585 C586 1.371 . S
C585 H588 0.931 . S
C586 C582 1.391 . S
C586 C585 1.371 . S
C586 H593 0.930 . S
H587 C584 0.928 . S
H588 C585 0.931 . S
H589 C565 0.930 . S
H590 C562 0.930 . S
H591 C571 0.930 1_556 S
H592 C583 0.929 . S
H593 C586 0.930 . S
C594 C595 1.351 . S
C594 N597 1.368 . S
C594 H599 0.931 . S
C595 C594 1.351 . S
C595 N596 1.373 . S
C595 H623 0.930 . S
N596 C595 1.373 . S
N596 C598 1.340 . S
N597 C594 1.368 . S
N597 C598 1.321 . S
N597 Co600 2.135 . S
C598 N596 1.340 . S
C598 N597 1.321 . S
C598 H622 0.930 . S
H599 C594 0.931 . S
Co600 N597 2.135 . S
Co600 N603 2.121 . S
Co600 O608 2.055 . S
Co600 O611 2.039 . S
Co600 N614 2.140 . S
C601 O602 1.227 . S
C601 O611 1.265 . S
O602 C601 1.227 . S
N603 Co600 2.121 . S
N603 C605 1.375 . S
N603 C606 1.313 . S
C604 C605 1.338 . S
C604 N607 1.377 . S
C604 H624 0.930 . S
C605 N603 1.375 . S
C605 C604 1.338 . S
C605 H609 0.931 . S
C606 N603 1.313 . S
C606 N607 1.344 . S
C606 H610 0.930 . S
N607 C604 1.377 . S
N607 C606 1.344 . S
O608 Co600 2.055 . S
O608 C612 1.253 . S
H609 C605 0.931 . S
H610 C606 0.930 . S
O611 Co600 2.039 . S
O611 C601 1.265 . S
C612 O608 1.253 . S
C612 O613 1.227 . S
O613 C612 1.227 . S
N614 Co600 2.140 . S
N614 C617 1.346 . S
N614 C618 1.345 . S
C615 C616 1.387 . S
C615 C619 1.391 . S
C616 C615 1.387 . S
C616 C617 1.369 . S
C616 H625 0.929 . S
C617 N614 1.346 . S
C617 C616 1.369 . S
C617 H620 0.928 . S
C618 N614 1.345 . S
C618 C619 1.371 . S
C618 H621 0.931 . S
C619 C615 1.391 . S
C619 C618 1.371 . S
C619 H626 0.930 . S
H620 C617 0.928 . S
H621 C618 0.931 . S
H622 C598 0.930 . S
H623 C595 0.930 . S
H624 C604 0.930 . S
H625 C616 0.929 . S
H626 C619 0.930 . S
C627 C628 1.351 . S
C627 N630 1.368 . S
C627 H632 0.931 . S
C628 C627 1.351 . S
C628 N629 1.373 . S
C628 H656 0.930 . S
N629 C628 1.373 . S
N629 C631 1.340 . S
N630 C627 1.368 . S
N630 C631 1.321 . S
N630 Co633 2.135 . S
C631 N629 1.340 . S
C631 N630 1.321 . S
C631 H655 0.930 . S
H632 C627 0.931 . S
Co633 N630 2.135 . S
Co633 N636 2.121 . S
Co633 O641 2.055 . S
Co633 O644 2.039 . S
Co633 N647 2.140 . S
C634 O635 1.237 . S
C634 O644 1.265 . S
O635 C634 1.237 . S
N636 Co633 2.121 . S
N636 C638 1.375 . S
N636 C639 1.313 . S
C637 C638 1.338 . S
C637 N640 1.377 . S
C637 H657 0.930 . S
C638 N636 1.375 . S
C638 C637 1.338 . S
C638 H642 0.931 . S
C639 N636 1.313 . S
C639 N640 1.344 . S
C639 H643 0.930 . S
N640 C637 1.377 . S
N640 C639 1.344 . S
O641 Co633 2.055 . S
O641 C645 1.253 . S
H642 C638 0.931 . S
H643 C639 0.930 . S
O644 Co633 2.039 . S
O644 C634 1.265 . S
C645 O641 1.253 . S
C645 O646 1.227 . S
O646 C645 1.227 . S
N647 Co633 2.140 . S
N647 C650 1.346 1_655 S
N647 C651 1.345 . S
C648 C649 1.387 . S
C648 C652 1.391 . S
C649 C648 1.387 . S
C649 C650 1.369 . S
C649 H658 0.929 . S
C650 N647 1.346 1_455 S
C650 C649 1.369 . S
C650 H653 0.928 . S
C651 N647 1.345 . S
C651 C652 1.371 1_655 S
C651 H654 0.931 . S
C652 C648 1.391 . S
C652 C651 1.371 1_455 S
C652 H659 0.930 . S
H653 C650 0.928 . S
H654 C651 0.931 . S
H655 C631 0.930 . S
H656 C628 0.930 . S
H657 C637 0.930 . S
H658 C649 0.929 . S
H659 C652 0.930 . S
C660 C661 1.351 . S
C660 N663 1.368 . S
C660 H665 0.931 . S
C661 C660 1.351 . S
C661 N662 1.373 . S
C661 H689 0.930 . S
N662 C661 1.373 . S
N662 C664 1.340 . S
N663 C660 1.368 . S
N663 C664 1.321 . S
N663 Co666 2.135 . S
C664 N662 1.340 . S
C664 N663 1.321 . S
C664 H688 0.930 . S
H665 C660 0.931 . S
Co666 N663 2.135 . S
Co666 N669 2.121 . S
Co666 O674 2.055 . S
Co666 O677 2.039 1_655 S
Co666 N680 2.140 . S
C667 O668 1.227 1_455 S
C667 O677 1.265 . S
O668 C667 1.227 1_655 S
N669 Co666 2.121 . S
N669 C671 1.375 . S
N669 C672 1.313 . S
C670 C671 1.338 . S
C670 N673 1.377 . S
C670 H690 0.930 . S
C671 N669 1.375 . S
C671 C670 1.338 . S
C671 H675 0.931 . S
C672 N669 1.313 . S
C672 N673 1.344 . S
C672 H676 0.930 . S
N673 C670 1.377 . S
N673 C672 1.344 . S
O674 Co666 2.055 . S
O674 C678 1.253 . S
H675 C671 0.931 . S
H676 C672 0.930 . S
O677 Co666 2.039 1_455 S
O677 C667 1.265 . S
C678 O674 1.253 . S
C678 O679 1.227 . S
O679 C678 1.227 . S
N680 Co666 2.140 . S
N680 C683 1.346 . S
N680 C684 1.345 . S
C681 C682 1.387 . S
C681 C685 1.391 . S
C682 C681 1.387 . S
C682 C683 1.369 . S
C682 H691 0.929 . S
C683 N680 1.346 . S
C683 C682 1.369 . S
C683 H686 0.928 . S
C684 N680 1.345 . S
C684 C685 1.371 . S
C684 H687 0.931 . S
C685 C681 1.391 . S
C685 C684 1.371 . S
C685 H692 0.930 . S
H686 C683 0.928 . S
H687 C684 0.931 . S
H688 C664 0.930 . S
H689 C661 0.930 . S
H690 C670 0.930 . S
H691 C682 0.929 . S
H692 C685 0.930 . S
C693 C694 1.351 . S
C693 N696 1.368 . S
C693 H698 0.931 . S
C694 C693 1.351 . S
C694 N695 1.373 . S
C694 H722 0.930 . S
N695 C694 1.373 . S
N695 C697 1.340 . S
N696 C693 1.368 . S
N696 C697 1.321 . S
N696 Co699 2.135 . S
C697 N695 1.340 . S
C697 N696 1.321 . S
C697 H721 0.930 . S
H698 C693 0.931 . S
Co699 N696 2.135 . S
Co699 N702 2.121 . S
Co699 O707 2.055 . S
Co699 O710 2.039 . S
Co699 N713 2.140 . S
C700 O701 1.237 . S
C700 O710 1.265 . S
O701 C700 1.237 . S
N702 Co699 2.121 . S
N702 C704 1.375 . S
N702 C705 1.313 . S
C703 C704 1.338 . S
C703 N706 1.377 . S
C703 H723 0.930 1_556 S
C704 N702 1.375 . S
C704 C703 1.338 . S
C704 H708 0.931 . S
C705 N702 1.313 . S
C705 N706 1.344 . S
C705 H709 0.930 . S
N706 C703 1.377 . S
N706 C705 1.344 . S
O707 Co699 2.055 . S
O707 C711 1.253 . S
H708 C704 0.931 . S
H709 C705 0.930 . S
O710 Co699 2.039 . S
O710 C700 1.265 . S
C711 O707 1.253 . S
C711 O712 1.227 . S
O712 C711 1.227 . S
N713 Co699 2.140 . S
N713 C716 1.346 1_655 S
N713 C717 1.345 . S
C714 C715 1.387 . S
C714 C718 1.391 . S
C715 C714 1.387 . S
C715 C716 1.369 . S
C715 H724 0.929 . S
C716 N713 1.346 1_455 S
C716 C715 1.369 . S
C716 H719 0.928 . S
C717 N713 1.345 . S
C717 C718 1.371 1_655 S
C717 H720 0.931 . S
C718 C714 1.391 . S
C718 C717 1.371 1_455 S
C718 H725 0.930 . S
H719 C716 0.928 . S
H720 C717 0.931 . S
H721 C697 0.930 . S
H722 C694 0.930 . S
H723 C703 0.930 1_554 S
H724 C715 0.929 . S
H725 C718 0.930 . S
C726 C727 1.351 . S
C726 N729 1.368 . S
C726 H731 0.931 . S
C727 C726 1.351 . S
C727 N728 1.373 . S
C727 H755 0.930 . S
N728 C727 1.373 . S
N728 C730 1.340 . S
N729 C726 1.368 . S
N729 C730 1.321 . S
N729 Co732 2.135 . S
C730 N728 1.340 . S
C730 N729 1.321 . S
C730 H754 0.930 . S
H731 C726 0.931 . S
Co732 N729 2.135 . S
Co732 N735 2.121 . S
Co732 O740 2.055 . S
Co732 O743 2.039 . S
Co732 N746 2.140 . S
C733 O734 1.227 . S
C733 O743 1.265 . S
O734 C733 1.227 . S
N735 Co732 2.121 . S
N735 C737 1.375 . S
N735 C738 1.313 . S
C736 C737 1.338 . S
C736 N739 1.377 . S
C736 H756 0.930 . S
C737 N735 1.375 . S
C737 C736 1.338 . S
C737 H741 0.931 . S
C738 N735 1.313 . S
C738 N739 1.344 . S
C738 H742 0.930 . S
N739 C736 1.377 . S
N739 C738 1.344 . S
O740 Co732 2.055 . S
O740 C744 1.253 . S
H741 C737 0.931 . S
H742 C738 0.930 . S
O743 Co732 2.039 . S
O743 C733 1.265 . S
C744 O740 1.253 . S
C744 O745 1.227 . S
O745 C744 1.227 . S
N746 Co732 2.140 . S
N746 C749 1.346 . S
N746 C750 1.345 . S
C747 C748 1.387 . S
C747 C751 1.391 . S
C748 C747 1.387 . S
C748 C749 1.369 . S
C748 H757 0.929 . S
C749 N746 1.346 . S
C749 C748 1.369 . S
C749 H752 0.928 . S
C750 N746 1.345 . S
C750 C751 1.371 . S
C750 H753 0.931 . S
C751 C747 1.391 . S
C751 C750 1.371 . S
C751 H758 0.930 . S
H752 C749 0.928 . S
H753 C750 0.931 . S
H754 C730 0.930 . S
H755 C727 0.930 . S
H756 C736 0.930 . S
H757 C748 0.929 . S
H758 C751 0.930 . S
C759 C760 1.351 . S
C759 N762 1.368 . S
C759 H764 0.931 . S
C760 C759 1.351 . S
C760 N761 1.373 . S
C760 H788 0.930 . S
N761 C760 1.373 . S
N761 C763 1.340 . S
N762 C759 1.368 . S
N762 C763 1.321 . S
N762 Co765 2.135 . S
C763 N761 1.340 . S
C763 N762 1.321 . S
C763 H787 0.930 . S
H764 C759 0.931 . S
Co765 N762 2.135 . S
Co765 N768 2.121 . S
Co765 O773 2.055 . S
Co765 O776 2.039 . S
Co765 N779 2.140 . S
C766 O767 1.227 . S
C766 O776 1.265 . S
O767 C766 1.227 . S
N768 Co765 2.121 . S
N768 C770 1.375 . S
N768 C771 1.313 . S
C769 C770 1.338 . S
C769 N772 1.377 . S
C769 H789 0.930 . S
C770 N768 1.375 . S
C770 C769 1.338 . S
C770 H774 0.931 . S
C771 N768 1.313 . S
C771 N772 1.344 . S
C771 H775 0.930 . S
N772 C769 1.377 . S
N772 C771 1.344 . S
O773 Co765 2.055 . S
O773 C777 1.253 . S
H774 C770 0.931 . S
H775 C771 0.930 . S
O776 Co765 2.039 . S
O776 C766 1.265 . S
C777 O773 1.253 . S
C777 O778 1.227 . S
O778 C777 1.227 . S
N779 Co765 2.140 . S
N779 C782 1.346 . S
N779 C783 1.345 . S
C780 C781 1.387 . S
C780 C784 1.391 . S
C781 C780 1.387 . S
C781 C782 1.369 . S
C781 H790 0.929 . S
C782 N779 1.346 . S
C782 C781 1.369 . S
C782 H785 0.928 . S
C783 N779 1.345 . S
C783 C784 1.371 . S
C783 H786 0.931 . S
C784 C780 1.391 . S
C784 C783 1.371 . S
C784 H791 0.930 . S
H785 C782 0.928 . S
H786 C783 0.931 . S
H787 C763 0.930 . S
H788 C760 0.930 . S
H789 C769 0.930 . S
H790 C781 0.929 . S
H791 C784 0.930 . S
C792 C793 1.351 . S
C792 N795 1.368 . S
C792 H797 0.931 . S
C793 C792 1.351 . S
C793 N794 1.373 . S
C793 H821 0.930 . S
N794 C793 1.373 . S
N794 C796 1.340 . S
N795 C792 1.368 . S
N795 C796 1.321 . S
N795 Co798 2.135 . S
C796 N794 1.340 . S
C796 N795 1.321 . S
C796 H820 0.930 . S
H797 C792 0.931 . S
Co798 N795 2.135 . S
Co798 N801 2.121 . S
Co798 O806 2.055 . S
Co798 O809 2.039 1_455 S
Co798 N812 2.140 . S
C799 O800 1.227 1_655 S
C799 O809 1.265 . S
O800 C799 1.227 1_455 S
N801 Co798 2.121 . S
N801 C803 1.375 . S
N801 C804 1.313 . S
C802 C803 1.338 . S
C802 N805 1.377 . S
C802 H822 0.930 . S
C803 N801 1.375 . S
C803 C802 1.338 . S
C803 H807 0.931 . S
C804 N801 1.313 . S
C804 N805 1.344 . S
C804 H808 0.930 . S
N805 C802 1.377 . S
N805 C804 1.344 . S
O806 Co798 2.055 . S
O806 C810 1.253 . S
H807 C803 0.931 . S
H808 C804 0.930 . S
O809 Co798 2.039 1_655 S
O809 C799 1.265 . S
C810 O806 1.253 . S
C810 O811 1.227 . S
O811 C810 1.227 . S
N812 Co798 2.140 . S
N812 C815 1.346 . S
N812 C816 1.345 . S
C813 C814 1.387 . S
C813 C817 1.391 . S
C814 C813 1.387 . S
C814 C815 1.369 . S
C814 H823 0.929 . S
C815 N812 1.346 . S
C815 C814 1.369 . S
C815 H818 0.928 . S
C816 N812 1.345 . S
C816 C817 1.371 . S
C816 H819 0.931 . S
C817 C813 1.391 . S
C817 C816 1.371 . S
C817 H824 0.930 . S
H818 C815 0.928 . S
H819 C816 0.931 . S
H820 C796 0.930 . S
H821 C793 0.930 . S
H822 C802 0.930 . S
H823 C814 0.929 . S
H824 C817 0.930 . S
C825 C826 1.351 . S
C825 N828 1.368 . S
C825 H830 0.931 . S
C826 C825 1.351 . S
C826 N827 1.373 . S
C826 H854 0.930 . S
N827 C826 1.373 . S
N827 C829 1.340 . S
N828 C825 1.368 . S
N828 C829 1.321 . S
N828 Co831 2.135 . S
C829 N827 1.340 . S
C829 N828 1.321 . S
C829 H853 0.930 . S
H830 C825 0.931 . S
Co831 N828 2.135 . S
Co831 N834 2.121 . S
Co831 O839 2.055 . S
Co831 O842 2.039 . S
Co831 N845 2.140 . S
C832 O833 1.227 . S
C832 O842 1.265 . S
O833 C832 1.227 . S
N834 Co831 2.121 . S
N834 C836 1.375 . S
N834 C837 1.313 . S
C835 C836 1.338 . S
C835 N838 1.377 . S
C835 H855 0.930 1_556 S
C836 N834 1.375 . S
C836 C835 1.338 . S
C836 H840 0.931 . S
C837 N834 1.313 . S
C837 N838 1.344 . S
C837 H841 0.930 . S
N838 C835 1.377 . S
N838 C837 1.344 . S
O839 Co831 2.055 . S
O839 C843 1.253 . S
H840 C836 0.931 . S
H841 C837 0.930 . S
O842 Co831 2.039 . S
O842 C832 1.265 . S
C843 O839 1.253 . S
C843 O844 1.227 . S
O844 C843 1.227 . S
N845 Co831 2.140 . S
N845 C848 1.346 . S
N845 C849 1.345 . S
C846 C847 1.387 . S
C846 C850 1.391 . S
C847 C846 1.387 . S
C847 C848 1.369 . S
C847 H856 0.929 . S
C848 N845 1.346 . S
C848 C847 1.369 . S
C848 H851 0.928 . S
C849 N845 1.345 . S
C849 C850 1.371 . S
C849 H852 0.931 . S
C850 C846 1.391 . S
C850 C849 1.371 . S
C850 H857 0.930 . S
H851 C848 0.928 . S
H852 C849 0.931 . S
H853 C829 0.930 . S
H854 C826 0.930 . S
H855 C835 0.930 1_554 S
H856 C847 0.929 . S
H857 C850 0.930 . S
C858 C859 1.351 . S
C858 N861 1.368 . S
C858 H863 0.931 . S
C859 C858 1.351 . S
C859 N860 1.373 . S
C859 H887 0.930 . S
N860 C859 1.373 . S
N860 C862 1.340 . S
N861 C858 1.368 . S
N861 C862 1.321 . S
N861 Co864 2.135 . S
C862 N860 1.340 . S
C862 N861 1.321 . S
C862 H886 0.930 . S
H863 C858 0.931 . S
Co864 N861 2.135 . S
Co864 N867 2.121 . S
Co864 O872 2.055 . S
Co864 O875 2.039 . S
Co864 N878 2.140 . S
C865 O866 1.227 . S
C865 O875 1.265 . S
O866 C865 1.227 . S
N867 Co864 2.121 . S
N867 C869 1.375 . S
N867 C870 1.313 . S
C868 C869 1.338 . S
C868 N871 1.377 . S
C868 H888 0.930 . S
C869 N867 1.375 . S
C869 C868 1.338 . S
C869 H873 0.931 . S
C870 N867 1.313 . S
C870 N871 1.344 . S
C870 H874 0.930 . S
N871 C868 1.377 . S
N871 C870 1.344 . S
O872 Co864 2.055 . S
O872 C876 1.253 . S
H873 C869 0.931 . S
H874 C870 0.930 . S
O875 Co864 2.039 . S
O875 C865 1.265 . S
C876 O872 1.253 . S
C876 O877 1.227 . S
O877 C876 1.227 . S
N878 Co864 2.140 . S
N878 C881 1.346 . S
N878 C882 1.345 . S
C879 C880 1.387 . S
C879 C883 1.391 . S
C880 C879 1.387 . S
C880 C881 1.369 . S
C880 H889 0.929 . S
C881 N878 1.346 . S
C881 C880 1.369 . S
C881 H884 0.928 . S
C882 N878 1.345 . S
C882 C883 1.371 . S
C882 H885 0.931 . S
C883 C879 1.391 . S
C883 C882 1.371 . S
C883 H890 0.930 . S
H884 C881 0.928 . S
H885 C882 0.931 . S
H886 C862 0.930 . S
H887 C859 0.930 . S
H888 C868 0.930 . S
H889 C880 0.929 . S
H890 C883 0.930 . S
C891 C892 1.351 . S
C891 N894 1.368 . S
C891 H896 0.931 . S
C892 C891 1.351 . S
C892 N893 1.373 . S
C892 H920 0.930 . S
N893 C892 1.373 . S
N893 C895 1.340 . S
N894 C891 1.368 . S
N894 C895 1.321 . S
N894 Co897 2.135 . S
C895 N893 1.340 . S
C895 N894 1.321 . S
C895 H919 0.930 . S
H896 C891 0.931 . S
Co897 N894 2.135 . S
Co897 N900 2.121 . S
Co897 O905 2.055 . S
Co897 O908 2.039 . S
Co897 N911 2.140 . S
C898 O899 1.237 . S
C898 O908 1.265 . S
O899 C898 1.237 . S
N900 Co897 2.121 . S
N900 C902 1.375 . S
N900 C903 1.313 . S
C901 C902 1.338 . S
C901 N904 1.377 . S
C901 H921 0.930 . S
C902 N900 1.375 . S
C902 C901 1.338 . S
C902 H906 0.931 . S
C903 N900 1.313 . S
C903 N904 1.344 . S
C903 H907 0.930 . S
N904 C901 1.377 . S
N904 C903 1.344 . S
O905 Co897 2.055 . S
O905 C909 1.253 . S
H906 C902 0.931 . S
H907 C903 0.930 . S
O908 Co897 2.039 . S
O908 C898 1.265 . S
C909 O905 1.253 . S
C909 O910 1.227 . S
O910 C909 1.227 . S
N911 Co897 2.140 . S
N911 C914 1.346 1_455 S
N911 C915 1.345 . S
C912 C913 1.387 . S
C912 C916 1.391 . S
C913 C912 1.387 . S
C913 C914 1.369 . S
C913 H922 0.929 . S
C914 N911 1.346 1_655 S
C914 C913 1.369 . S
C914 H917 0.928 . S
C915 N911 1.345 . S
C915 C916 1.371 1_455 S
C915 H918 0.931 . S
C916 C912 1.391 . S
C916 C915 1.371 1_655 S
C916 H923 0.930 . S
H917 C914 0.928 . S
H918 C915 0.931 . S
H919 C895 0.930 . S
H920 C892 0.930 . S
H921 C901 0.930 . S
H922 C913 0.929 . S
H923 C916 0.930 . S
C924 C925 1.351 . S
C924 N927 1.368 . S
C924 H929 0.931 . S
C925 C924 1.351 . S
C925 N926 1.373 . S
C925 H953 0.930 . S
N926 C925 1.373 . S
N926 C928 1.340 . S
N927 C924 1.368 . S
N927 C928 1.321 . S
N927 Co930 2.135 . S
C928 N926 1.340 . S
C928 N927 1.321 . S
C928 H952 0.930 . S
H929 C924 0.931 . S
Co930 N927 2.135 . S
Co930 N933 2.121 . S
Co930 O938 2.055 . S
Co930 O941 2.039 1_455 S
Co930 N944 2.140 . S
C931 O932 1.227 1_655 S
C931 O941 1.265 . S
O932 C931 1.227 1_455 S
N933 Co930 2.121 . S
N933 C935 1.375 . S
N933 C936 1.313 . S
C934 C935 1.338 . S
C934 N937 1.377 . S
C934 H954 0.930 . S
C935 N933 1.375 . S
C935 C934 1.338 . S
C935 H939 0.931 . S
C936 N933 1.313 . S
C936 N937 1.344 . S
C936 H940 0.930 . S
N937 C934 1.377 . S
N937 C936 1.344 . S
O938 Co930 2.055 . S
O938 C942 1.253 . S
H939 C935 0.931 . S
H940 C936 0.930 . S
O941 Co930 2.039 1_655 S
O941 C931 1.265 . S
C942 O938 1.253 . S
C942 O943 1.227 . S
O943 C942 1.227 . S
N944 Co930 2.140 . S
N944 C947 1.346 . S
N944 C948 1.345 . S
C945 C946 1.387 . S
C945 C949 1.391 . S
C946 C945 1.387 . S
C946 C947 1.369 . S
C946 H955 0.929 . S
C947 N944 1.346 . S
C947 C946 1.369 . S
C947 H950 0.928 . S
C948 N944 1.345 . S
C948 C949 1.371 . S
C948 H951 0.931 . S
C949 C945 1.391 . S
C949 C948 1.371 . S
C949 H956 0.930 . S
H950 C947 0.928 . S
H951 C948 0.931 . S
H952 C928 0.930 . S
H953 C925 0.930 . S
H954 C934 0.930 . S
H955 C946 0.929 . S
H956 C949 0.930 . S
C957 C958 1.351 . S
C957 N960 1.368 . S
C957 H962 0.931 . S
C958 C957 1.351 . S
C958 N959 1.373 . S
C958 H986 0.930 . S
N959 C958 1.373 . S
N959 C961 1.340 . S
N960 C957 1.368 . S
N960 C961 1.321 . S
N960 Co963 2.135 . S
C961 N959 1.340 . S
C961 N960 1.321 . S
C961 H985 0.930 . S
H962 C957 0.931 . S
Co963 N960 2.135 . S
Co963 N966 2.121 . S
Co963 O971 2.055 . S
Co963 O974 2.039 . S
Co963 N977 2.140 . S
C964 O965 1.237 . S
C964 O974 1.265 . S
O965 C964 1.237 . S
N966 Co963 2.121 . S
N966 C968 1.375 . S
N966 C969 1.313 . S
C967 C968 1.338 . S
C967 N970 1.377 . S
C967 H987 0.930 1_554 S
C968 N966 1.375 . S
C968 C967 1.338 . S
C968 H972 0.931 . S
C969 N966 1.313 . S
C969 N970 1.344 . S
C969 H973 0.930 . S
N970 C967 1.377 . S
N970 C969 1.344 . S
O971 Co963 2.055 . S
O971 C975 1.253 . S
H972 C968 0.931 . S
H973 C969 0.930 . S
O974 Co963 2.039 . S
O974 C964 1.265 . S
C975 O971 1.253 . S
C975 O976 1.227 . S
O976 C975 1.227 . S
N977 Co963 2.140 . S
N977 C980 1.346 1_455 S
N977 C981 1.345 . S
C978 C979 1.387 . S
C978 C982 1.391 . S
C979 C978 1.387 . S
C979 C980 1.369 . S
C979 H988 0.929 . S
C980 N977 1.346 1_655 S
C980 C979 1.369 . S
C980 H983 0.928 . S
C981 N977 1.345 . S
C981 C982 1.371 1_455 S
C981 H984 0.931 . S
C982 C978 1.391 . S
C982 C981 1.371 1_655 S
C982 H989 0.930 . S
H983 C980 0.928 . S
H984 C981 0.931 . S
H985 C961 0.930 . S
H986 C958 0.930 . S
H987 C967 0.930 1_556 S
H988 C979 0.929 . S
H989 C982 0.930 . S
C990 C991 1.351 . S
C990 N993 1.368 . S
C990 H995 0.931 . S
C991 C990 1.351 . S
C991 N992 1.373 . S
C991 H1019 0.930 . S
N992 C991 1.373 . S
N992 C994 1.340 . S
N993 C990 1.368 . S
N993 C994 1.321 . S
N993 Co996 2.135 . S
C994 N992 1.340 . S
C994 N993 1.321 . S
C994 H1018 0.930 . S
H995 C990 0.931 . S
Co996 N993 2.135 . S
Co996 N999 2.121 . S
Co996 O1004 2.055 . S
Co996 O1007 2.039 . S
Co996 N1010 2.140 . S
C997 O998 1.227 . S
C997 O1007 1.265 . S
O998 C997 1.227 . S
N999 Co996 2.121 . S
N999 C1001 1.375 . S
N999 C1002 1.313 . S
C1000 C1001 1.338 . S
C1000 N1003 1.377 . S
C1000 H1020 0.930 . S
C1001 N999 1.375 . S
C1001 C1000 1.338 . S
C1001 H1005 0.931 . S
C1002 N999 1.313 . S
C1002 N1003 1.344 . S
C1002 H1006 0.930 . S
N1003 C1000 1.377 . S
N1003 C1002 1.344 . S
O1004 Co996 2.055 . S
O1004 C1008 1.253 . S
H1005 C1001 0.931 . S
H1006 C1002 0.930 . S
O1007 Co996 2.039 . S
O1007 C997 1.265 . S
C1008 O1004 1.253 . S
C1008 O1009 1.227 . S
O1009 C1008 1.227 . S
N1010 Co996 2.140 . S
N1010 C1013 1.346 . S
N1010 C1014 1.345 . S
C1011 C1012 1.387 . S
C1011 C1015 1.391 . S
C1012 C1011 1.387 . S
C1012 C1013 1.369 . S
C1012 H1021 0.929 . S
C1013 N1010 1.346 . S
C1013 C1012 1.369 . S
C1013 H1016 0.928 . S
C1014 N1010 1.345 . S
C1014 C1015 1.371 . S
C1014 H1017 0.931 . S
C1015 C1011 1.391 . S
C1015 C1014 1.371 . S
C1015 H1022 0.930 . S
H1016 C1013 0.928 . S
H1017 C1014 0.931 . S
H1018 C994 0.930 . S
H1019 C991 0.930 . S
H1020 C1000 0.930 . S
H1021 C1012 0.929 . S
H1022 C1015 0.930 . S
C1023 C1024 1.351 . S
C1023 N1026 1.368 . S
C1023 H1028 0.931 . S
C1024 C1023 1.351 . S
C1024 N1025 1.373 . S
C1024 H1052 0.930 . S
N1025 C1024 1.373 . S
N1025 C1027 1.340 . S
N1026 C1023 1.368 . S
N1026 C1027 1.321 . S
N1026 Co1029 2.135 . S
C1027 N1025 1.340 . S
C1027 N1026 1.321 . S
C1027 H1051 0.930 . S
H1028 C1023 0.931 . S
Co1029 N1026 2.135 . S
Co1029 N1032 2.121 . S
Co1029 O1037 2.055 . S
Co1029 O1040 2.039 . S
Co1029 N1043 2.140 . S
C1030 O1031 1.227 . S
C1030 O1040 1.265 . S
O1031 C1030 1.227 . S
N1032 Co1029 2.121 . S
N1032 C1034 1.375 . S
N1032 C1035 1.313 . S
C1033 C1034 1.338 . S
C1033 N1036 1.377 . S
C1033 H1053 0.930 . S
C1034 N1032 1.375 . S
C1034 C1033 1.338 . S
C1034 H1038 0.931 . S
C1035 N1032 1.313 . S
C1035 N1036 1.344 . S
C1035 H1039 0.930 . S
N1036 C1033 1.377 . S
N1036 C1035 1.344 . S
O1037 Co1029 2.055 . S
O1037 C1041 1.253 . S
H1038 C1034 0.931 . S
H1039 C1035 0.930 . S
O1040 Co1029 2.039 . S
O1040 C1030 1.265 . S
C1041 O1037 1.253 . S
C1041 O1042 1.227 . S
O1042 C1041 1.227 . S
N1043 Co1029 2.140 . S
N1043 C1046 1.346 . S
N1043 C1047 1.345 . S
C1044 C1045 1.387 . S
C1044 C1048 1.391 . S
C1045 C1044 1.387 . S
C1045 C1046 1.369 . S
C1045 H1054 0.929 . S
C1046 N1043 1.346 . S
C1046 C1045 1.369 . S
C1046 H1049 0.928 . S
C1047 N1043 1.345 . S
C1047 C1048 1.371 . S
C1047 H1050 0.931 . S
C1048 C1044 1.391 . S
C1048 C1047 1.371 . S
C1048 H1055 0.930 . S
H1049 C1046 0.928 . S
H1050 C1047 0.931 . S
H1051 C1027 0.930 . S
H1052 C1024 0.930 . S
H1053 C1033 0.930 . S
H1054 C1045 0.929 . S
H1055 C1048 0.930 . S
C18 C945 1.540 . S
C51 C450 1.540 . S
C84 C1011 1.540 . S
C117 C516 1.539 . S
C813 C150 1.540 . S
C183 C318 1.539 . S
C216 C879 1.540 . S
C384 C249 1.540 . S
C681 C282 1.540 . S
C315 C186 1.540 . S
C348 C747 1.540 . S
C252 C381 1.539 . S
C549 C414 1.540 . S
C54 C447 1.539 . S
C480 C615 1.540 . S
C513 C120 1.540 . S
C546 C417 1.540 . S
C978 C579 1.540 . S
C483 C612 1.540 . S
C1044 C645 1.540 . S
C285 C678 1.540 . S
C711 C846 1.540 . S
C351 C744 1.540 . S
C912 C777 1.540 . S
C153 C810 1.540 . S
C714 C843 1.540 . S
C219 C876 1.540 . S
C780 C909 1.540 . S
C21 C942 1.540 . S
C582 C975 1.540 . S
C1008 C87 1.540 . S
C648 C1041 1.540 . S
C601 C7 2.362 . S
C40 C634 2.362 1_455 S
C535 C73 2.361 1_455 S
C106 C568 2.361 . S
C733 C139 2.362 . S
C766 C172 2.361 . S
C205 C667 2.361 1_655 S
C700 C238 2.362 1_655 S
C271 C865 2.362 . S
C304 C898 2.362 1_655 S
C799 C337 2.361 1_655 S
C832 C370 2.361 . S
C403 C997 2.362 . S
C1030 C436 2.361 . S
C931 C469 2.361 1_655 S
C964 C502 2.362 1_455 S
N2 N167 1.424 . S
N35 N200 1.424 . S
N68 N233 1.424 . S
N101 N134 1.424 . S
N266 N431 1.424 . S
N464 N299 1.424 . S
N497 N332 1.424 . S
N398 N365 1.424 . S
N530 N695 1.424 . S
N563 N728 1.424 . S
N761 N596 1.424 . S
N662 N629 1.424 . S
N794 N959 1.424 . S
N992 N827 1.424 . S
N1025 N860 1.424 . S
N893 N926 1.424 . S
N145 N13 2.148 1_565 S
N46 N178 2.149 . S
N79 N211 2.148 1_565 S
N112 N244 2.148 1_554 S
N409 N277 2.148 1_545 S
N310 N442 2.149 . S
N475 N343 2.148 1_565 S
N376 N508 2.148 1_556 S
N541 N673 2.148 . S
N706 N574 2.148 1_556 S
N739 N607 2.148 . S
N772 N640 2.148 . S
N805 N937 2.148 . S
N838 N970 2.148 1_556 S
N871 N1003 2.148 . S
N904 N1036 2.148 . S
