# Generated by pormake.
# Topology fcj, (5)-cn, num edge types: 1
# Building blocks:
#     Node 0, Type 0, BuildingBlock: XOMCOT_clean_sbu_1, # of connection points: 5
#     Node 1, Type 0, BuildingBlock: XOMCOT_clean_sbu_1, # of connection points: 5
#     Node 2, Type 0, BuildingBlock: XOMCOT_clean_sbu_1, # of connection points: 5
#     Node 3, Type 0, BuildingBlock: XOMCOT_clean_sbu_1, # of connection points: 5
#     Node 4, Type 0, BuildingBlock: XOMCOT_clean_sbu_1, # of connection points: 5
#     Node 5, Type 0, BuildingBlock: XOMCOT_clean_sbu_1, # of connection points: 5
#     Node 6, Type 0, BuildingBlock: XOMCOT_clean_sbu_1, # of connection points: 5
#     Node 7, Type 0, BuildingBlock: XOMCOT_clean_sbu_1, # of connection points: 5
#     Node 8, Type 0, BuildingBlock: XOMCOT_clean_sbu_1, # of connection points: 5
#     Node 9, Type 0, BuildingBlock: XOMCOT_clean_sbu_1, # of connection points: 5
#     Node 10, Type 0, BuildingBlock: XOMCOT_clean_sbu_1, # of connection points: 5
#     Node 11, Type 0, BuildingBlock: XOMCOT_clean_sbu_1, # of connection points: 5
#     Node 12, Type 0, BuildingBlock: XOMCOT_clean_sbu_1, # of connection points: 5
#     Node 13, Type 0, BuildingBlock: XOMCOT_clean_sbu_1, # of connection points: 5
#     Node 14, Type 0, BuildingBlock: XOMCOT_clean_sbu_1, # of connection points: 5
#     Node 15, Type 0, BuildingBlock: XOMCOT_clean_sbu_1, # of connection points: 5
#     Node 16, Type 0, BuildingBlock: XOMCOT_clean_sbu_1, # of connection points: 5
#     Node 17, Type 0, BuildingBlock: XOMCOT_clean_sbu_1, # of connection points: 5
#     Node 18, Type 0, BuildingBlock: XOMCOT_clean_sbu_1, # of connection points: 5
#     Node 19, Type 0, BuildingBlock: XOMCOT_clean_sbu_1, # of connection points: 5
#     Node 20, Type 0, BuildingBlock: XOMCOT_clean_sbu_1, # of connection points: 5
#     Node 21, Type 0, BuildingBlock: XOMCOT_clean_sbu_1, # of connection points: 5
#     Node 22, Type 0, BuildingBlock: XOMCOT_clean_sbu_1, # of connection points: 5
#     Node 23, Type 0, BuildingBlock: XOMCOT_clean_sbu_1, # of connection points: 5
#     Edge 24, Type (0, 0), BuildingBlock: CIFDUS_clean_linker_0, # of connection points: 2
#     Edge 25, Type (0, 0), BuildingBlock: CIFDUS_clean_linker_0, # of connection points: 2
#     Edge 26, Type (0, 0), BuildingBlock: CIFDUS_clean_linker_0, # of connection points: 2
#     Edge 27, Type (0, 0), BuildingBlock: CIFDUS_clean_linker_0, # of connection points: 2
#     Edge 28, Type (0, 0), BuildingBlock: CIFDUS_clean_linker_0, # of connection points: 2
#     Edge 29, Type (0, 0), BuildingBlock: CIFDUS_clean_linker_0, # of connection points: 2
#     Edge 30, Type (0, 0), BuildingBlock: CIFDUS_clean_linker_0, # of connection points: 2
#     Edge 31, Type (0, 0), BuildingBlock: CIFDUS_clean_linker_0, # of connection points: 2
#     Edge 32, Type (0, 0), BuildingBlock: CIFDUS_clean_linker_0, # of connection points: 2
#     Edge 33, Type (0, 0), BuildingBlock: CIFDUS_clean_linker_0, # of connection points: 2
#     Edge 34, Type (0, 0), BuildingBlock: CIFDUS_clean_linker_0, # of connection points: 2
#     Edge 35, Type (0, 0), BuildingBlock: CIFDUS_clean_linker_0, # of connection points: 2
#     Edge 36, Type (0, 0), BuildingBlock: CIFDUS_clean_linker_0, # of connection points: 2
#     Edge 37, Type (0, 0), BuildingBlock: CIFDUS_clean_linker_0, # of connection points: 2
#     Edge 38, Type (0, 0), BuildingBlock: CIFDUS_clean_linker_0, # of connection points: 2
#     Edge 39, Type (0, 0), BuildingBlock: CIFDUS_clean_linker_0, # of connection points: 2
#     Edge 40, Type (0, 0), BuildingBlock: CIFDUS_clean_linker_0, # of connection points: 2
#     Edge 41, Type (0, 0), BuildingBlock: CIFDUS_clean_linker_0, # of connection points: 2
#     Edge 42, Type (0, 0), BuildingBlock: CIFDUS_clean_linker_0, # of connection points: 2
#     Edge 43, Type (0, 0), BuildingBlock: CIFDUS_clean_linker_0, # of connection points: 2
#     Edge 44, Type (0, 0), BuildingBlock: CIFDUS_clean_linker_0, # of connection points: 2
#     Edge 45, Type (0, 0), BuildingBlock: CIFDUS_clean_linker_0, # of connection points: 2
#     Edge 46, Type (0, 0), BuildingBlock: CIFDUS_clean_linker_0, # of connection points: 2
#     Edge 47, Type (0, 0), BuildingBlock: CIFDUS_clean_linker_0, # of connection points: 2
#     Edge 48, Type (0, 0), BuildingBlock: CIFDUS_clean_linker_0, # of connection points: 2
#     Edge 49, Type (0, 0), BuildingBlock: CIFDUS_clean_linker_0, # of connection points: 2
#     Edge 50, Type (0, 0), BuildingBlock: CIFDUS_clean_linker_0, # of connection points: 2
#     Edge 51, Type (0, 0), BuildingBlock: CIFDUS_clean_linker_0, # of connection points: 2
#     Edge 52, Type (0, 0), BuildingBlock: CIFDUS_clean_linker_0, # of connection points: 2
#     Edge 53, Type (0, 0), BuildingBlock: CIFDUS_clean_linker_0, # of connection points: 2
#     Edge 54, Type (0, 0), BuildingBlock: CIFDUS_clean_linker_0, # of connection points: 2
#     Edge 55, Type (0, 0), BuildingBlock: CIFDUS_clean_linker_0, # of connection points: 2
#     Edge 56, Type (0, 0), BuildingBlock: CIFDUS_clean_linker_0, # of connection points: 2
#     Edge 57, Type (0, 0), BuildingBlock: CIFDUS_clean_linker_0, # of connection points: 2
#     Edge 58, Type (0, 0), BuildingBlock: CIFDUS_clean_linker_0, # of connection points: 2
#     Edge 59, Type (0, 0), BuildingBlock: CIFDUS_clean_linker_0, # of connection points: 2
#     Edge 60, Type (0, 0), BuildingBlock: CIFDUS_clean_linker_0, # of connection points: 2
#     Edge 61, Type (0, 0), BuildingBlock: CIFDUS_clean_linker_0, # of connection points: 2
#     Edge 62, Type (0, 0), BuildingBlock: CIFDUS_clean_linker_0, # of connection points: 2
#     Edge 63, Type (0, 0), BuildingBlock: CIFDUS_clean_linker_0, # of connection points: 2
#     Edge 64, Type (0, 0), BuildingBlock: CIFDUS_clean_linker_0, # of connection points: 2
#     Edge 65, Type (0, 0), BuildingBlock: CIFDUS_clean_linker_0, # of connection points: 2
#     Edge 66, Type (0, 0), BuildingBlock: CIFDUS_clean_linker_0, # of connection points: 2
#     Edge 67, Type (0, 0), BuildingBlock: CIFDUS_clean_linker_0, # of connection points: 2
#     Edge 68, Type (0, 0), BuildingBlock: CIFDUS_clean_linker_0, # of connection points: 2
#     Edge 69, Type (0, 0), BuildingBlock: CIFDUS_clean_linker_0, # of connection points: 2
#     Edge 70, Type (0, 0), BuildingBlock: CIFDUS_clean_linker_0, # of connection points: 2
#     Edge 71, Type (0, 0), BuildingBlock: CIFDUS_clean_linker_0, # of connection points: 2
#     Edge 72, Type (0, 0), BuildingBlock: CIFDUS_clean_linker_0, # of connection points: 2
#     Edge 73, Type (0, 0), BuildingBlock: CIFDUS_clean_linker_0, # of connection points: 2
#     Edge 74, Type (0, 0), BuildingBlock: CIFDUS_clean_linker_0, # of connection points: 2
#     Edge 75, Type (0, 0), BuildingBlock: CIFDUS_clean_linker_0, # of connection points: 2
#     Edge 76, Type (0, 0), BuildingBlock: CIFDUS_clean_linker_0, # of connection points: 2
#     Edge 77, Type (0, 0), BuildingBlock: CIFDUS_clean_linker_0, # of connection points: 2
#     Edge 78, Type (0, 0), BuildingBlock: CIFDUS_clean_linker_0, # of connection points: 2
#     Edge 79, Type (0, 0), BuildingBlock: CIFDUS_clean_linker_0, # of connection points: 2
#     Edge 80, Type (0, 0), BuildingBlock: CIFDUS_clean_linker_0, # of connection points: 2
#     Edge 81, Type (0, 0), BuildingBlock: CIFDUS_clean_linker_0, # of connection points: 2
#     Edge 82, Type (0, 0), BuildingBlock: CIFDUS_clean_linker_0, # of connection points: 2
#     Edge 83, Type (0, 0), BuildingBlock: CIFDUS_clean_linker_0, # of connection points: 2
# Relax obj value: 0.372
# Max RMSD: 0.198
# Mean RMSD: 0.198
data_MOF--net-fcj--node1-XOMCOT_clean_sbu_1--edge1-CIFDUS_clean_linker_0
_symmetry_space_group_name_H-M    P1
_symmetry_Int_Tables_number       1
_symmetry_cell_setting            triclinic
loop_
_symmetry_equiv_pos_as_xyz
'x, y, z'
_cell_length_a     45.104739
_cell_length_b     45.081356
_cell_length_c     45.05777
_cell_angle_alpha  89.99858
_cell_angle_beta   90.007088
_cell_angle_gamma 89.950624
loop_
_atom_site_label
_atom_site_type_symbol
_atom_site_fract_x
_atom_site_fract_y
_atom_site_fract_z
_atom_type_partial_charge
C0 C 0.07533 0.20205 0.41404 0.0
C1 C 0.05499 0.2169 0.43105 0.0
N2 N 0.06286 0.24572 0.43251 0.0
N3 N 0.09588 0.22122 0.40395 0.0
C4 C 0.08862 0.24733 0.41697 0.0
H5 H 0.07414 0.17891 0.40781 0.0
Co6 Co 0.12381 0.209 0.37532 0.0
C7 C 0.11183 0.27236 0.349 0.0
O8 O 0.08891 0.28084 0.36477 0.0
N9 N 0.1514 0.19591 0.34714 0.0
C10 C 0.1743 0.18934 0.30399 0.0
C11 C 0.14958 0.20069 0.31761 0.0
C12 C 0.17725 0.18115 0.35086 0.0
N13 N 0.19178 0.17716 0.32495 0.0
O14 O 0.15576 0.22213 0.40014 0.0
H15 H 0.13152 0.21206 0.30664 0.0
H16 H 0.18574 0.17416 0.37217 0.0
O17 O 0.12365 0.24696 0.35351 0.0
C18 C 0.16231 0.20282 0.41976 0.0
O19 O 0.145 0.17951 0.42231 0.0
N20 N 0.09287 0.19401 0.3517 0.0
C21 C 0.04911 0.16774 0.31707 0.0
C22 C 0.04848 0.19822 0.3228 0.0
C23 C 0.07031 0.21086 0.3406 0.0
C24 C 0.09321 0.16407 0.34723 0.0
C25 C 0.07143 0.15039 0.32994 0.0
H26 H 0.06859 0.23401 0.34571 0.0
H27 H 0.11066 0.15079 0.35699 0.0
H28 H 0.10153 0.26732 0.41445 0.0
H29 H 0.03467 0.2074 0.43951 0.0
H30 H 0.17904 0.19007 0.28046 0.0
H31 H 0.03107 0.21213 0.31377 0.0
H32 H 0.07242 0.1267 0.32608 0.0
C33 C 0.55576 0.32972 0.17606 0.0
C34 C 0.53851 0.30947 0.19093 0.0
N35 N 0.50986 0.3148 0.18431 0.0
N36 N 0.53819 0.34764 0.15981 0.0
C37 C 0.51032 0.33889 0.16638 0.0
H38 H 0.57972 0.32986 0.17517 0.0
Co39 Co 0.55316 0.37381 0.1312 0.0
C40 C 0.49404 0.3595 0.0966 0.0
O41 O 0.48818 0.33236 0.10504 0.0
N42 N 0.56812 0.40015 0.10301 0.0
C43 C 0.57532 0.42256 0.05971 0.0
C44 C 0.56493 0.39745 0.07331 0.0
C45 C 0.58119 0.4268 0.10691 0.0
N46 N 0.58543 0.44097 0.08088 0.0
O47 O 0.53798 0.40708 0.15363 0.0
H48 H 0.55479 0.37872 0.06226 0.0
H49 H 0.58637 0.43618 0.12839 0.0
O50 O 0.51687 0.37306 0.10664 0.0
C51 C 0.55175 0.41241 0.17779 0.0
O52 O 0.57353 0.39482 0.18581 0.0
N53 N 0.5702 0.34128 0.11023 0.0
C54 C 0.598 0.2953 0.07902 0.0
C55 C 0.56886 0.29224 0.08932 0.0
C56 C 0.55559 0.31526 0.10519 0.0
C57 C 0.5993 0.3438 0.10219 0.0
C58 C 0.61345 0.32135 0.08612 0.0
H59 H 0.53402 0.31147 0.11428 0.0
H60 H 0.61168 0.36349 0.10801 0.0
H61 H 0.49073 0.34894 0.157 0.0
H62 H 0.54669 0.29046 0.20312 0.0
H63 H 0.57513 0.42716 0.03612 0.0
H64 H 0.55618 0.27232 0.08498 0.0
H65 H 0.63636 0.3243 0.07958 0.0
C66 C 0.41928 0.80602 0.92593 0.0
C67 C 0.4396 0.78997 0.94217 0.0
N68 N 0.44091 0.76216 0.93111 0.0
N69 N 0.40759 0.78852 0.90476 0.0
C70 C 0.42089 0.76193 0.90872 0.0
H71 H 0.41429 0.82934 0.9286 0.0
Co72 Co 0.3819 0.80064 0.87443 0.0
C73 C 0.36613 0.74229 0.84957 0.0
O74 O 0.34043 0.74251 0.86326 0.0
N75 N 0.35601 0.81205 0.84352 0.0
C76 C 0.33729 0.81386 0.79784 0.0
C77 C 0.36201 0.80784 0.81441 0.0
C78 C 0.32732 0.82101 0.84396 0.0
N79 N 0.31541 0.82194 0.81641 0.0
O80 O 0.3488 0.78838 0.89815 0.0
H81 H 0.38278 0.79963 0.80571 0.0
H82 H 0.31488 0.82524 0.86403 0.0
O83 O 0.38492 0.76273 0.85474 0.0
C84 C 0.34145 0.80796 0.91715 0.0
O85 O 0.35608 0.83311 0.91791 0.0
N86 N 0.41461 0.81461 0.85267 0.0
C87 C 0.46091 0.83823 0.8185 0.0
C88 C 0.46193 0.80882 0.82902 0.0
C89 C 0.43839 0.79732 0.84552 0.0
C90 C 0.41394 0.84368 0.84454 0.0
C91 C 0.43628 0.85567 0.82677 0.0
H92 H 0.43939 0.77443 0.85247 0.0
H93 H 0.39528 0.85737 0.85088 0.0
H94 H 0.41734 0.74329 0.89413 0.0
H95 H 0.45304 0.79868 0.96001 0.0
H96 H 0.33537 0.81186 0.77398 0.0
H97 H 0.48061 0.79445 0.82468 0.0
H98 H 0.4335 0.87822 0.81917 0.0
C99 C 0.97031 0.65352 0.68856 0.0
C100 C 0.98879 0.67477 0.70023 0.0
N101 N 0.00322 0.6881 0.6777 0.0
N102 N 0.97309 0.65318 0.65879 0.0
C103 C 0.99337 0.67441 0.65282 0.0
H104 H 0.95493 0.63997 0.70099 0.0
Co105 Co 0.9487 0.63141 0.63351 0.0
C106 C 0.00783 0.6155 0.60214 0.0
O107 O 0.02667 0.61301 0.62422 0.0
N108 N 0.92399 0.60938 0.60868 0.0
C109 C 0.88411 0.58884 0.5884 0.0
C110 C 0.89458 0.61269 0.60432 0.0
C111 C 0.93088 0.58347 0.59522 0.0
N112 N 0.90701 0.57048 0.58282 0.0
O113 O 0.95594 0.59602 0.65613 0.0
H114 H 0.88126 0.63042 0.61339 0.0
H115 H 0.95266 0.5734 0.59603 0.0
O116 O 0.98086 0.62214 0.60716 0.0
C117 C 0.93304 0.58838 0.67083 0.0
O118 O 0.90992 0.60615 0.671 0.0
N119 N 0.93959 0.66607 0.61211 0.0
C120 C 0.91635 0.71404 0.58041 0.0
C121 C 0.94277 0.7002 0.57139 0.0
C122 C 0.95392 0.67614 0.58738 0.0
C123 C 0.91521 0.68056 0.6225 0.0
C124 C 0.90297 0.70437 0.60683 0.0
H125 H 0.97386 0.66573 0.57939 0.0
H126 H 0.90435 0.67259 0.64237 0.0
H127 H 0.99957 0.68077 0.63053 0.0
H128 H 0.99087 0.68034 0.7235 0.0
H129 H 0.86132 0.58504 0.58191 0.0
H130 H 0.95458 0.70751 0.55179 0.0
H131 H 0.88254 0.71416 0.61476 0.0
C132 C 0.60469 0.28204 0.57506 0.0
C133 C 0.58295 0.26315 0.56513 0.0
N134 N 0.56801 0.25268 0.58881 0.0
N135 N 0.60377 0.28348 0.60491 0.0
C136 C 0.5814 0.26513 0.61269 0.0
H137 H 0.61903 0.29535 0.56121 0.0
Co138 Co 0.62504 0.31144 0.62671 0.0
C139 C 0.64331 0.25693 0.66124 0.0
O140 O 0.6486 0.23958 0.63842 0.0
N141 N 0.64659 0.34011 0.64774 0.0
C142 C 0.66571 0.38386 0.65996 0.0
C143 C 0.64153 0.36962 0.64812 0.0
C144 C 0.67393 0.33695 0.65973 0.0
N145 N 0.68617 0.3633 0.667 0.0
O146 O 0.66059 0.30079 0.60572 0.0
H147 H 0.62265 0.38053 0.63827 0.0
H148 H 0.6857 0.31603 0.66059 0.0
O149 O 0.63457 0.28345 0.6572 0.0
C150 C 0.67135 0.32049 0.5886 0.0
O151 O 0.65703 0.34565 0.58518 0.0
N152 N 0.58994 0.32285 0.64677 0.0
C153 C 0.54198 0.34799 0.6771 0.0
C154 C 0.55589 0.32224 0.68768 0.0
C155 C 0.57993 0.31024 0.67247 0.0
C156 C 0.57483 0.34599 0.63448 0.0
C157 C 0.55112 0.35931 0.64952 0.0
H158 H 0.5902 0.29082 0.6818 0.0
H159 H 0.58228 0.35519 0.61359 0.0
H160 H 0.57423 0.26201 0.63534 0.0
H161 H 0.5773 0.25924 0.54212 0.0
H162 H 0.66865 0.40762 0.66182 0.0
H163 H 0.54872 0.3116 0.70799 0.0
H164 H 0.541 0.37898 0.64016 0.0
C165 C 0.44594 0.82653 0.33787 0.0
C166 C 0.46152 0.80549 0.32207 0.0
N167 N 0.49064 0.81198 0.32375 0.0
N168 N 0.46508 0.84619 0.34968 0.0
C169 C 0.49195 0.83733 0.33979 0.0
H170 H 0.42248 0.82593 0.34279 0.0
Co171 Co 0.45558 0.87271 0.38038 0.0
C172 C 0.52309 0.87316 0.40314 0.0
O173 O 0.54262 0.85584 0.39021 0.0
N174 N 0.44591 0.8991 0.41147 0.0
C175 C 0.44068 0.91697 0.45721 0.0
C176 C 0.45179 0.89415 0.44048 0.0
C177 C 0.4313 0.92542 0.41122 0.0
N178 N 0.42783 0.93662 0.43882 0.0
O179 O 0.46267 0.90563 0.35453 0.0
H180 H 0.46358 0.87507 0.44903 0.0
H181 H 0.42278 0.93596 0.39144 0.0
O182 O 0.49626 0.87301 0.39413 0.0
C183 C 0.43906 0.91027 0.33969 0.0
O184 O 0.41674 0.89192 0.3435 0.0
N185 N 0.44631 0.8404 0.4047 0.0
C186 C 0.42659 0.79411 0.44094 0.0
C187 C 0.45577 0.79443 0.42976 0.0
C188 C 0.46528 0.81792 0.41183 0.0
C189 C 0.41764 0.83984 0.41407 0.0
C190 C 0.40758 0.8175 0.43282 0.0
H191 H 0.48767 0.8178 0.40331 0.0
H192 H 0.40267 0.85744 0.40754 0.0
H193 H 0.51232 0.84825 0.34563 0.0
H194 H 0.4523 0.78542 0.31267 0.0
H195 H 0.44227 0.9192 0.48109 0.0
H196 H 0.47115 0.77661 0.43446 0.0
H197 H 0.38514 0.81905 0.44111 0.0
C198 C 0.90177 0.7272 0.07223 0.0
C199 C 0.9252 0.74264 0.06008 0.0
N200 N 0.94042 0.75553 0.08233 0.0
N201 N 0.90212 0.73052 0.10197 0.0
C202 C 0.9255 0.74842 0.10731 0.0
H203 H 0.88706 0.71246 0.06036 0.0
Co204 Co 0.88162 0.70721 0.1293 0.0
C205 C 0.86374 0.76609 0.15345 0.0
O206 O 0.85384 0.77636 0.12803 0.0
N207 N 0.86087 0.68316 0.1573 0.0
C208 C 0.85045 0.64843 0.19093 0.0
C209 C 0.87239 0.6614 0.17453 0.0
C210 C 0.83153 0.683 0.16424 0.0
N211 N 0.82465 0.66172 0.18428 0.0
O212 O 0.84523 0.71556 0.10881 0.0
H213 H 0.89521 0.65445 0.17518 0.0
H214 H 0.81526 0.69733 0.15395 0.0
O215 O 0.87495 0.74022 0.15492 0.0
C216 C 0.83458 0.69449 0.09335 0.0
O217 O 0.84863 0.66894 0.09292 0.0
N218 N 0.91791 0.69801 0.148 0.0
C219 C 0.96686 0.67417 0.17746 0.0
C220 C 0.95364 0.7006 0.18727 0.0
C221 C 0.92906 0.712 0.17246 0.0
C222 C 0.93242 0.67426 0.13613 0.0
C223 C 0.95671 0.66163 0.15078 0.0
H224 H 0.91902 0.73178 0.18116 0.0
H225 H 0.92363 0.66372 0.11643 0.0
H226 H 0.9328 0.75434 0.12937 0.0
H227 H 0.93209 0.74207 0.03707 0.0
H228 H 0.8532 0.62999 0.20608 0.0
H229 H 0.96159 0.71199 0.20688 0.0
H230 H 0.96621 0.64132 0.14216 0.0
C231 C 0.05273 0.17404 0.84382 0.0
C232 C 0.03661 0.19483 0.82829 0.0
N233 N 0.00763 0.18903 0.8324 0.0
N234 N 0.03401 0.15549 0.85801 0.0
C235 C 0.00682 0.16471 0.84984 0.0
H236 H 0.07656 0.17385 0.84653 0.0
Co237 Co 0.04677 0.12784 0.88608 0.0
C238 C 0.98249 0.12524 0.91177 0.0
O239 O 0.96743 0.11762 0.88803 0.0
N240 N 0.06052 0.10023 0.91379 0.0
C241 C 0.0662 0.07504 0.95585 0.0
C242 C 0.05481 0.10029 0.94324 0.0
C243 C 0.07637 0.0752 0.90925 0.0
N244 N 0.0797 0.05937 0.93439 0.0
O245 O 0.03163 0.09594 0.86194 0.0
H246 H 0.04293 0.11752 0.95486 0.0
H247 H 0.08474 0.06821 0.88793 0.0
O248 O 0.0104 0.12946 0.91003 0.0
C249 C 0.05031 0.08771 0.84234 0.0
O250 O 0.07542 0.10231 0.84012 0.0
N251 N 0.0629 0.1587 0.90848 0.0
C252 C 0.09105 0.20597 0.93679 0.0
C253 C 0.06013 0.2059 0.93289 0.0
C254 C 0.04646 0.18203 0.91863 0.0
C255 C 0.09288 0.15838 0.91184 0.0
C256 C 0.10738 0.18162 0.9262 0.0
H257 H 0.0228 0.18279 0.91488 0.0
H258 H 0.10564 0.14006 0.90302 0.0
H259 H 0.98661 0.1553 0.85796 0.0
H260 H 0.04545 0.21429 0.81734 0.0
H261 H 0.06482 0.0687 0.97898 0.0
H262 H 0.04664 0.22443 0.94008 0.0
H263 H 0.13118 0.18041 0.929 0.0
C264 C 0.43814 0.09652 0.21352 0.0
C265 C 0.45334 0.07415 0.22767 0.0
N266 N 0.43453 0.06032 0.24631 0.0
N267 N 0.40991 0.09709 0.22334 0.0
C268 C 0.40836 0.07468 0.24317 0.0
H269 H 0.44694 0.11081 0.19641 0.0
Co270 Co 0.3802 0.12173 0.20849 0.0
C271 C 0.35052 0.12119 0.27262 0.0
O272 O 0.36506 0.10532 0.29227 0.0
N273 N 0.3498 0.14714 0.1929 0.0
C274 C 0.3074 0.16371 0.17311 0.0
C275 C 0.32328 0.13903 0.18119 0.0
C276 C 0.34886 0.1773 0.19205 0.0
N277 N 0.32362 0.18762 0.17989 0.0
O278 O 0.40304 0.1554 0.22013 0.0
H279 H 0.31512 0.11666 0.179 0.0
H280 H 0.36563 0.19179 0.20103 0.0
O281 O 0.36011 0.12311 0.24608 0.0
C282 C 0.41795 0.16726 0.19933 0.0
O283 O 0.41587 0.15621 0.17242 0.0
N284 N 0.3594 0.08811 0.19576 0.0
C285 C 0.32814 0.04244 0.16814 0.0
C286 C 0.3241 0.04845 0.19846 0.0
C287 C 0.34002 0.07138 0.21194 0.0
C288 C 0.3648 0.08159 0.16674 0.0
C289 C 0.34927 0.05897 0.15241 0.0
H290 H 0.33608 0.07591 0.23508 0.0
H291 H 0.38041 0.09495 0.15436 0.0
H292 H 0.38822 0.06854 0.25454 0.0
H293 H 0.47612 0.0678 0.22358 0.0
H294 H 0.28527 0.16417 0.16381 0.0
H295 H 0.30846 0.0358 0.21158 0.0
H296 H 0.353 0.05526 0.12896 0.0
C297 C 0.67246 0.67174 0.94825 0.0
C298 C 0.69463 0.68576 0.96395 0.0
N299 N 0.69101 0.67955 0.99293 0.0
N300 N 0.65517 0.6564 0.96722 0.0
C301 C 0.6663 0.66269 0.99428 0.0
H302 H 0.67094 0.67023 0.92434 0.0
Co303 Co 0.62902 0.62642 0.95548 0.0
C304 C 0.6395 0.59515 0.0185 0.0
O305 O 0.66402 0.60393 0.03148 0.0
N306 N 0.60306 0.59602 0.94332 0.0
C307 C 0.58633 0.55042 0.93463 0.0
C308 C 0.6093 0.56679 0.94587 0.0
C309 C 0.57592 0.59676 0.93045 0.0
N310 N 0.56533 0.56926 0.92497 0.0
O311 O 0.59632 0.64889 0.97065 0.0
H312 H 0.62929 0.5578 0.95561 0.0
H313 H 0.56431 0.61686 0.92465 0.0
O314 O 0.63241 0.60553 0.99309 0.0
C315 C 0.58575 0.66701 0.95175 0.0
O316 O 0.59758 0.66824 0.92515 0.0
N317 N 0.66088 0.60547 0.93895 0.0
C318 C 0.70211 0.57052 0.90892 0.0
C319 C 0.70452 0.57504 0.93969 0.0
C320 C 0.68374 0.59289 0.95431 0.0
C321 C 0.65948 0.60314 0.90887 0.0
C322 C 0.67976 0.58567 0.89341 0.0
H323 H 0.68571 0.59599 0.97793 0.0
H324 H 0.64175 0.61409 0.89695 0.0
H325 H 0.6579 0.65351 0.01462 0.0
H326 H 0.71387 0.69656 0.9545 0.0
H327 H 0.58489 0.52645 0.93409 0.0
H328 H 0.72158 0.56403 0.95254 0.0
H329 H 0.67758 0.5836 0.86957 0.0
C330 C 0.08681 0.92669 0.70279 0.0
C331 C 0.07127 0.94744 0.71891 0.0
N332 N 0.07576 0.94213 0.74795 0.0
N333 N 0.10148 0.90845 0.72144 0.0
C334 C 0.09321 0.91765 0.7488 0.0
H335 H 0.08915 0.9263 0.6789 0.0
Co336 Co 0.13013 0.88153 0.70739 0.0
C337 C 0.16157 0.89196 0.76963 0.0
O338 O 0.15094 0.91733 0.77893 0.0
N339 N 0.15859 0.85479 0.69259 0.0
C340 C 0.20203 0.83236 0.68553 0.0
C341 C 0.1881 0.85665 0.69754 0.0
C342 C 0.15532 0.82971 0.67641 0.0
N343 N 0.18134 0.81558 0.67224 0.0
O344 O 0.10655 0.84892 0.7212 0.0
H345 H 0.19883 0.87431 0.70972 0.0
H346 H 0.13439 0.82142 0.6684 0.0
O347 O 0.15324 0.88124 0.74467 0.0
C348 C 0.08801 0.84044 0.70162 0.0
O349 O 0.08654 0.85512 0.67646 0.0
N350 N 0.152 0.9132 0.69162 0.0
C351 C 0.18214 0.95857 0.66228 0.0
C352 C 0.178 0.95956 0.69313 0.0
C353 C 0.1626 0.93676 0.70735 0.0
C354 C 0.15489 0.91239 0.66152 0.0
C355 C 0.1701 0.93468 0.64642 0.0
H356 H 0.15861 0.93857 0.73073 0.0
H357 H 0.1454 0.89416 0.64914 0.0
H358 H 0.10047 0.90732 0.76911 0.0
H359 H 0.06001 0.96668 0.70994 0.0
H360 H 0.22547 0.82726 0.6866 0.0
H361 H 0.18617 0.97803 0.70614 0.0
H362 H 0.17275 0.93295 0.62259 0.0
C363 C 0.83831 0.33297 0.45071 0.0
C364 C 0.81785 0.32083 0.46984 0.0
N365 N 0.8188 0.33597 0.49563 0.0
N366 N 0.85209 0.35571 0.46429 0.0
C367 C 0.84039 0.35642 0.49189 0.0
H368 H 0.84129 0.32716 0.42761 0.0
Co369 Co 0.87654 0.38318 0.44526 0.0
C370 C 0.86137 0.43402 0.4875 0.0
O371 O 0.8422 0.44663 0.46969 0.0
N372 N 0.9018 0.41047 0.42637 0.0
C373 C 0.9241 0.45235 0.41279 0.0
C374 C 0.89902 0.44032 0.42502 0.0
C375 C 0.92844 0.4049 0.41375 0.0
N376 N 0.94247 0.43001 0.40577 0.0
O377 O 0.91085 0.36412 0.46263 0.0
H378 H 0.88021 0.45288 0.43256 0.0
H379 H 0.93795 0.38304 0.41146 0.0
O380 O 0.8752 0.41037 0.47992 0.0
C381 C 0.91901 0.34013 0.45005 0.0
O382 O 0.90385 0.33026 0.42722 0.0
N383 N 0.84252 0.40005 0.42606 0.0
C384 C 0.79611 0.42699 0.39489 0.0
C385 C 0.79241 0.41849 0.42453 0.0
C386 C 0.81552 0.40407 0.4394 0.0
C387 C 0.84516 0.40531 0.39629 0.0
C388 C 0.82241 0.41915 0.38038 0.0
H389 H 0.81224 0.39828 0.46239 0.0
H390 H 0.86536 0.39946 0.38477 0.0
H391 H 0.84586 0.37315 0.50815 0.0
H392 H 0.80165 0.30407 0.46415 0.0
H393 H 0.92877 0.4757 0.4097 0.0
H394 H 0.77204 0.42345 0.43627 0.0
H395 H 0.82581 0.42467 0.35723 0.0
C396 C 0.93159 0.39736 0.78906 0.0
C397 C 0.94698 0.41947 0.77497 0.0
N398 N 0.92739 0.43738 0.7613 0.0
N399 N 0.90223 0.40073 0.78419 0.0
C400 C 0.90046 0.42552 0.76728 0.0
H401 H 0.94154 0.38049 0.80278 0.0
Co402 Co 0.87247 0.3773 0.80197 0.0
C403 C 0.84618 0.37823 0.73852 0.0
O404 O 0.86707 0.39065 0.72251 0.0
N405 N 0.84258 0.35387 0.81999 0.0
C406 C 0.79757 0.33733 0.8321 0.0
C407 C 0.81317 0.35975 0.8187 0.0
C408 C 0.84404 0.32739 0.83422 0.0
N409 N 0.81706 0.31695 0.84168 0.0
O410 O 0.89336 0.34217 0.79016 0.0
H411 H 0.80334 0.37853 0.80756 0.0
H412 H 0.86415 0.3154 0.8388 0.0
O413 O 0.84945 0.37458 0.7663 0.0
C414 C 0.91047 0.33134 0.8098 0.0
O415 O 0.9122 0.34441 0.83583 0.0
N416 N 0.85285 0.41176 0.81479 0.0
C417 C 0.82282 0.4589 0.84147 0.0
C418 C 0.81885 0.45255 0.81124 0.0
C419 C 0.83402 0.42887 0.79829 0.0
C420 C 0.85791 0.41826 0.84386 0.0
C421 C 0.84308 0.44171 0.85771 0.0
H422 H 0.82997 0.4241 0.77521 0.0
H423 H 0.8729 0.40449 0.85658 0.0
H424 H 0.87979 0.43533 0.76026 0.0
H425 H 0.9708 0.42224 0.77516 0.0
H426 H 0.77367 0.33542 0.83336 0.0
H427 H 0.80384 0.46556 0.79771 0.0
H428 H 0.84669 0.44561 0.88114 0.0
C429 C 0.35244 0.1806 0.53258 0.0
C430 C 0.32897 0.19249 0.51707 0.0
N431 N 0.31413 0.17018 0.50401 0.0
N432 N 0.3527 0.15081 0.52924 0.0
C433 C 0.32921 0.14529 0.51136 0.0
H434 H 0.36728 0.19305 0.5466 0.0
Co435 Co 0.37676 0.12328 0.54976 0.0
C436 C 0.38889 0.09967 0.48916 0.0
O437 O 0.3987 0.12516 0.47904 0.0
N438 N 0.40074 0.09516 0.57015 0.0
C439 C 0.41758 0.05143 0.58616 0.0
C440 C 0.39491 0.06574 0.57182 0.0
C441 C 0.4276 0.09787 0.58348 0.0
N442 N 0.43819 0.07165 0.59334 0.0
O443 O 0.41179 0.14458 0.53809 0.0
H444 H 0.376 0.05483 0.56209 0.0
H445 H 0.43979 0.1183 0.58557 0.0
O446 O 0.37935 0.09778 0.51568 0.0
C447 C 0.41898 0.16331 0.55806 0.0
O448 O 0.40171 0.16566 0.58146 0.0
N449 N 0.34271 0.10392 0.56359 0.0
C450 C 0.29893 0.07302 0.59428 0.0
C451 C 0.30425 0.06722 0.56413 0.0
C452 C 0.32629 0.08295 0.54911 0.0
C453 C 0.33658 0.11113 0.59227 0.0
C454 C 0.31484 0.0959 0.6081 0.0
H455 H 0.33104 0.07707 0.52639 0.0
H456 H 0.34969 0.12793 0.60328 0.0
H457 H 0.32262 0.12333 0.50451 0.0
H458 H 0.32224 0.21555 0.51707 0.0
H459 H 0.41955 0.02773 0.58958 0.0
H460 H 0.29263 0.04961 0.55266 0.0
H461 H 0.31108 0.10144 0.63118 0.0
C462 C 0.57876 0.59345 0.30007 0.0
C463 C 0.56184 0.57086 0.28814 0.0
N464 N 0.57253 0.56445 0.26096 0.0
N465 N 0.6001 0.60112 0.28058 0.0
C466 C 0.59567 0.58299 0.25704 0.0
H467 H 0.57635 0.60289 0.322 0.0
Co468 Co 0.63151 0.62755 0.28724 0.0
C469 C 0.65735 0.62537 0.22186 0.0
O470 O 0.646 0.61313 0.198 0.0
N471 N 0.66358 0.65379 0.29397 0.0
C472 C 0.70954 0.67189 0.29569 0.0
C473 C 0.69248 0.64771 0.28872 0.0
C474 C 0.66392 0.6818 0.30495 0.0
N475 N 0.69154 0.69333 0.30592 0.0
O476 O 0.60629 0.66017 0.27636 0.0
H477 H 0.70091 0.62703 0.28014 0.0
H478 H 0.64446 0.69383 0.31191 0.0
O479 O 0.64292 0.62377 0.24612 0.0
C480 C 0.59223 0.67174 0.29797 0.0
O481 O 0.59664 0.66129 0.32484 0.0
N482 N 0.65471 0.59566 0.30008 0.0
C483 C 0.68829 0.55239 0.32933 0.0
C484 C 0.688 0.55412 0.29808 0.0
C485 C 0.67065 0.57571 0.2838 0.0
C486 C 0.65379 0.59364 0.33017 0.0
C487 C 0.67009 0.57212 0.34519 0.0
H488 H 0.67074 0.57685 0.25987 0.0
H489 H 0.64036 0.60918 0.34261 0.0
H490 H 0.61011 0.58197 0.23795 0.0
H491 H 0.54354 0.55963 0.29885 0.0
H492 H 0.73341 0.67341 0.29381 0.0
H493 H 0.70161 0.53953 0.28473 0.0
H494 H 0.66847 0.57118 0.36914 0.0
C495 C 0.17975 0.83333 0.06146 0.0
C496 C 0.20175 0.81704 0.04802 0.0
N497 N 0.19976 0.82103 0.01843 0.0
N498 N 0.16396 0.84772 0.04056 0.0
C499 C 0.1762 0.8392 0.01454 0.0
H500 H 0.17637 0.83576 0.0851 0.0
Co501 Co 0.1355 0.87629 0.04979 0.0
C502 C 0.14403 0.90473 0.98517 0.0
O503 O 0.16791 0.89634 0.97073 0.0
N504 N 0.1071 0.90484 0.05956 0.0
C505 C 0.08272 0.94762 0.06228 0.0
C506 C 0.10828 0.93401 0.05282 0.0
C507 C 0.08114 0.90145 0.07418 0.0
N508 N 0.06578 0.92706 0.07559 0.0
O509 O 0.10465 0.85107 0.03538 0.0
H510 H 0.1265 0.9447 0.04147 0.0
H511 H 0.07349 0.88073 0.08351 0.0
O512 O 0.13904 0.89457 0.01111 0.0
C513 C 0.09659 0.83201 0.0546 0.0
O514 O 0.11211 0.82989 0.07921 0.0
N515 N 0.16511 0.90044 0.06579 0.0
C516 C 0.2046 0.93743 0.0957 0.0
C517 C 0.20767 0.93231 0.06508 0.0
C518 C 0.1877 0.91352 0.05049 0.0
C519 C 0.16265 0.90403 0.09568 0.0
C520 C 0.18202 0.92253 0.11105 0.0
H521 H 0.19034 0.90969 0.027 0.0
H522 H 0.1451 0.8928 0.10756 0.0
H523 H 0.16894 0.84713 0.99321 0.0
H524 H 0.21861 0.80422 0.05931 0.0
H525 H 0.07718 0.9709 0.0601 0.0
H526 H 0.22488 0.94322 0.05239 0.0
H527 H 0.17927 0.92517 0.13478 0.0
C528 C 0.21775 0.4362 0.10848 0.0
C529 C 0.23428 0.45125 0.08788 0.0
N530 N 0.24738 0.4314 0.06978 0.0
N531 N 0.22043 0.40676 0.10402 0.0
C532 C 0.2388 0.40449 0.08028 0.0
H533 H 0.20375 0.44634 0.12508 0.0
Co534 Co 0.19749 0.37939 0.12554 0.0
C535 C 0.23178 0.32418 0.13275 0.0
O536 O 0.20716 0.30929 0.12834 0.0
N537 N 0.17327 0.35324 0.14814 0.0
C538 C 0.13397 0.33183 0.1691 0.0
C539 C 0.14426 0.34654 0.14446 0.0
C540 C 0.17988 0.34236 0.17546 0.0
N541 N 0.15642 0.32926 0.18852 0.0
O542 O 0.20744 0.39958 0.16207 0.0
H543 H 0.13049 0.3535 0.12623 0.0
H544 H 0.20103 0.34563 0.18635 0.0
O545 O 0.232 0.35259 0.13088 0.0
C546 C 0.18545 0.41342 0.17325 0.0
O547 O 0.16023 0.41388 0.15865 0.0
N548 N 0.18577 0.36114 0.08943 0.0
C549 C 0.15727 0.33158 0.04315 0.0
C550 C 0.18691 0.32516 0.05013 0.0
C551 C 0.201 0.34069 0.07297 0.0
C552 C 0.15878 0.37074 0.07986 0.0
C553 C 0.14379 0.35587 0.05719 0.0
H554 H 0.22378 0.33543 0.07776 0.0
H555 H 0.14789 0.38875 0.09141 0.0
H556 H 0.24472 0.38363 0.07011 0.0
H557 H 0.23596 0.47512 0.08622 0.0
H558 H 0.1114 0.32469 0.173 0.0
H559 H 0.19866 0.30727 0.03923 0.0
H560 H 0.12141 0.36257 0.05157 0.0
C561 C 0.71405 0.07461 0.91449 0.0
C562 C 0.72997 0.05952 0.93569 0.0
N563 N 0.75324 0.07638 0.94374 0.0
N564 N 0.72726 0.10082 0.90888 0.0
C565 C 0.75116 0.10124 0.92703 0.0
H566 H 0.69338 0.0674 0.90479 0.0
Co567 Co 0.71146 0.12992 0.88398 0.0
C568 C 0.77292 0.1504 0.86868 0.0
O569 O 0.77975 0.12739 0.85215 0.0
N570 N 0.69564 0.15969 0.8587 0.0
C571 C 0.68799 0.20464 0.83964 0.0
C572 C 0.69757 0.18914 0.86398 0.0
C573 C 0.68449 0.15808 0.83077 0.0
N574 N 0.67988 0.1851 0.81856 0.0
O575 O 0.72214 0.10653 0.85011 0.0
H576 H 0.7068 0.19902 0.88374 0.0
H577 H 0.68052 0.13767 0.81905 0.0
O578 O 0.74813 0.15131 0.88209 0.0
C579 C 0.70146 0.08955 0.84117 0.0
O580 O 0.6761 0.08983 0.85553 0.0
N581 N 0.69953 0.15178 0.91743 0.0
C582 C 0.67659 0.18924 0.96076 0.0
C583 C 0.70725 0.18669 0.95683 0.0
C584 C 0.71836 0.16742 0.93534 0.0
C585 C 0.66969 0.15269 0.92215 0.0
C586 C 0.65767 0.17132 0.94386 0.0
H587 H 0.74205 0.16619 0.93248 0.0
H588 H 0.65512 0.13986 0.90805 0.0
H589 H 0.76632 0.11973 0.9286 0.0
H590 H 0.72388 0.03855 0.94567 0.0
H591 H 0.68867 0.2285 0.83718 0.0
H592 H 0.72244 0.20002 0.96983 0.0
H593 H 0.63384 0.17277 0.94644 0.0
C594 C 0.67568 0.96087 0.66583 0.0
C595 C 0.68915 0.97668 0.68825 0.0
N596 N 0.67591 0.00341 0.69017 0.0
N597 N 0.65407 0.97755 0.65365 0.0
C598 C 0.65528 0.00357 0.66843 0.0
H599 H 0.67979 0.93788 0.66033 0.0
Co600 Co 0.62532 0.96317 0.62767 0.0
C601 C 0.60442 0.02454 0.61331 0.0
O602 O 0.6264 0.03006 0.59502 0.0
N603 N 0.59633 0.94878 0.60148 0.0
C604 C 0.55294 0.94323 0.57863 0.0
C605 C 0.56699 0.95471 0.60309 0.0
C606 C 0.59939 0.93292 0.5762 0.0
N607 N 0.57342 0.92964 0.56173 0.0
O608 O 0.64921 0.97523 0.5946 0.0
H609 H 0.55647 0.96709 0.62071 0.0
H610 H 0.62025 0.92477 0.56786 0.0
O611 O 0.60381 1.00024 0.62774 0.0
C612 C 0.66765 0.95569 0.58596 0.0
O613 O 0.66895 0.93032 0.60026 0.0
N614 N 0.60282 0.94979 0.66014 0.0
C615 C 0.56856 0.92665 0.7067 0.0
C616 C 0.57718 0.95668 0.70629 0.0
C617 C 0.5936 0.9679 0.68257 0.0
C618 C 0.59618 0.92034 0.66071 0.0
C619 C 0.57847 0.90851 0.68321 0.0
H620 H 0.59885 0.99122 0.68242 0.0
H621 H 0.60395 0.90606 0.64304 0.0
H622 H 0.63977 0.02151 0.66499 0.0
H623 H 0.70545 0.96812 0.70368 0.0
H624 H 0.52955 0.94495 0.57351 0.0
H625 H 0.57147 0.97179 0.724 0.0
H626 H 0.57232 0.88542 0.68149 0.0
C627 C 0.80358 0.91816 0.42264 0.0
C628 C 0.78751 0.93406 0.44315 0.0
N629 N 0.75854 0.92798 0.43921 0.0
N630 N 0.78495 0.90182 0.40594 0.0
C631 C 0.75764 0.90915 0.4158 0.0
H632 H 0.82749 0.91671 0.42152 0.0
Co633 Co 0.79825 0.87181 0.38063 0.0
C634 C 0.73653 0.83962 0.39265 0.0
O635 O 0.72656 0.84869 0.41845 0.0
N636 N 0.81189 0.84152 0.3555 0.0
C637 C 0.82126 0.7959 0.33933 0.0
C638 C 0.80952 0.81233 0.36197 0.0
C639 C 0.82517 0.8422 0.32857 0.0
N640 N 0.8311 0.81467 0.31835 0.0
O641 O 0.78385 0.89351 0.34688 0.0
H642 H 0.79946 0.80345 0.38185 0.0
H643 H 0.83066 0.86225 0.31667 0.0
O644 O 0.76125 0.84933 0.38276 0.0
C645 C 0.80389 0.91116 0.33763 0.0
O646 O 0.82874 0.91286 0.35279 0.0
N647 N 0.81472 0.8518 0.4133 0.0
C648 C 0.84464 0.81822 0.45564 0.0
C649 C 0.8143 0.82427 0.45888 0.0
C650 C 0.79968 0.84131 0.43738 0.0
C651 C 0.84468 0.84832 0.41132 0.0
C652 C 0.86001 0.83117 0.43196 0.0
H653 H 0.77641 0.84571 0.43997 0.0
H654 H 0.85653 0.85786 0.39276 0.0
H655 H 0.73746 0.90004 0.40684 0.0
H656 H 0.79668 0.94681 0.46132 0.0
H657 H 0.82185 0.77192 0.33804 0.0
H658 H 0.80179 0.815 0.47719 0.0
H659 H 0.88359 0.82757 0.42909 0.0
C660 C 0.82434 0.04515 0.16538 0.0
C661 C 0.81131 0.02616 0.18548 0.0
N662 N 0.82899 1.00226 0.18885 0.0
N663 N 0.85011 0.03334 0.15595 0.0
C664 C 0.8519 0.0069 0.16998 0.0
H665 H 0.81694 0.06739 0.16027 0.0
Co666 Co 0.88022 0.05497 0.13733 0.0
C667 C 0.93067 0.01292 0.13467 0.0
O668 O 0.94739 0.03193 0.14895 0.0
N669 N 0.91139 0.07747 0.11804 0.0
C670 C 0.95283 0.1029 0.10822 0.0
C671 C 0.93545 0.09086 0.13009 0.0
C672 C 0.91531 0.08177 0.08842 0.0
N673 N 0.94013 0.09739 0.08179 0.0
O674 O 0.86038 0.05015 0.09997 0.0
H675 H 0.94137 0.09091 0.15328 0.0
H676 H 0.9004 0.07322 0.07183 0.0
O677 O 0.90339 0.01881 0.12948 0.0
C678 C 0.84502 0.07322 0.09426 0.0
O679 O 0.84478 0.09479 0.11389 0.0
N680 N 0.89658 0.06217 0.17499 0.0
C681 C 0.92326 0.08371 0.22605 0.0
C682 C 0.92292 0.05314 0.22031 0.0
C683 C 0.90874 0.04266 0.19479 0.0
C684 C 0.89244 0.09103 0.18295 0.0
C685 C 0.90622 0.1025 0.20808 0.0
H686 H 0.90933 0.01919 0.19018 0.0
H687 H 0.88051 0.10578 0.16822 0.0
H688 H 0.87094 0.99244 0.16827 0.0
H689 H 0.79197 0.03111 0.19881 0.0
H690 H 0.97372 0.11408 0.11179 0.0
H691 H 0.93506 0.03777 0.23423 0.0
H692 H 0.90497 0.12609 0.21247 0.0
C693 C 0.30093 0.57643 0.58477 0.0
C694 C 0.28412 0.56273 0.56331 0.0
N695 N 0.25622 0.57321 0.56514 0.0
N696 N 0.28382 0.59564 0.6 0.0
C697 C 0.25642 0.59223 0.58835 0.0
H698 H 0.32469 0.57451 0.58739 0.0
Co699 Co 0.29965 0.6238 0.62609 0.0
C700 C 0.24275 0.66238 0.61386 0.0
O701 O 0.23839 0.65986 0.5852 0.0
N702 N 0.31537 0.65168 0.653 0.0
C703 C 0.32482 0.69456 0.67569 0.0
C704 C 0.31384 0.68157 0.6504 0.0
C705 C 0.32709 0.64719 0.68027 0.0
N706 N 0.33295 0.67283 0.69438 0.0
O707 O 0.28485 0.60104 0.65911 0.0
H708 H 0.30427 0.6932 0.6317 0.0
H709 H 0.3304 0.62573 0.69031 0.0
O710 O 0.26421 0.64872 0.62641 0.0
C711 C 0.30311 0.58071 0.66642 0.0
O712 O 0.32687 0.57704 0.64994 0.0
N713 N 0.31626 0.64517 0.59332 0.0
C714 C 0.34173 0.67951 0.54793 0.0
C715 C 0.31414 0.66562 0.54407 0.0
C716 C 0.3018 0.64888 0.56695 0.0
C717 C 0.34463 0.65545 0.5961 0.0
C718 C 0.35728 0.67355 0.57433 0.0
H719 H 0.28085 0.63847 0.56284 0.0
H720 H 0.35735 0.65058 0.61584 0.0
H721 H 0.23742 0.60515 0.59499 0.0
H722 H 0.29252 0.54872 0.54569 0.0
H723 H 0.32502 0.71804 0.68077 0.0
H724 H 0.30188 0.66747 0.52351 0.0
H725 H 0.37877 0.68318 0.57876 0.0
C726 C 0.17076 0.56479 0.3289 0.0
C727 C 0.18774 0.55146 0.30732 0.0
N728 N 0.18467 0.52183 0.30982 0.0
N729 N 0.15678 0.54376 0.34487 0.0
C730 C 0.16635 0.51782 0.33327 0.0
H731 H 0.16735 0.58838 0.33167 0.0
Co732 Co 0.12752 0.55246 0.37288 0.0
C733 C 0.09956 0.48899 0.35914 0.0
O734 O 0.10919 0.47804 0.33391 0.0
N735 N 0.098 0.56156 0.40115 0.0
C736 C 0.05381 0.56443 0.42279 0.0
C737 C 0.06869 0.55695 0.39732 0.0
C738 C 0.10025 0.57235 0.42914 0.0
N739 N 0.07365 0.57413 0.44295 0.0
O740 O 0.15193 0.53668 0.40365 0.0
H741 H 0.05876 0.54787 0.37744 0.0
H742 H 0.12092 0.57879 0.4393 0.0
O743 O 0.10841 0.51441 0.36785 0.0
C744 C 0.16936 0.55649 0.41358 0.0
O745 O 0.16958 0.58254 0.40047 0.0
N746 N 0.10437 0.56965 0.34298 0.0
C747 C 0.0688 0.59965 0.30234 0.0
C748 C 0.07641 0.56983 0.29767 0.0
C749 C 0.09439 0.55518 0.31831 0.0
C750 C 0.09864 0.59905 0.3469 0.0
C751 C 0.08059 0.61441 0.32704 0.0
H752 H 0.10022 0.53231 0.31445 0.0
H753 H 0.10764 0.61047 0.366 0.0
H754 H 0.15961 0.49637 0.34136 0.0
H755 H 0.1996 0.56279 0.2898 0.0
H756 H 0.03024 0.56185 0.42638 0.0
H757 H 0.06794 0.55775 0.2787 0.0
H758 H 0.07577 0.6376 0.33107 0.0
C759 C 0.32652 0.45811 0.84878 0.0
C760 C 0.31367 0.47397 0.82595 0.0
N761 N 0.33151 0.49694 0.81918 0.0
N762 N 0.3523 0.47108 0.85656 0.0
C763 C 0.35439 0.49493 0.83848 0.0
H764 H 0.31863 0.43723 0.8575 0.0
Co765 Co 0.38215 0.45469 0.88049 0.0
C766 C 0.40143 0.5162 0.8969 0.0
O767 O 0.37806 0.52201 0.9133 0.0
N768 N 0.41329 0.43902 0.90447 0.0
C769 C 0.45971 0.43354 0.92085 0.0
C770 C 0.44235 0.44077 0.89701 0.0
C771 C 0.41388 0.43029 0.93333 0.0
N772 N 0.44179 0.4271 0.94369 0.0
O773 O 0.35893 0.46276 0.91556 0.0
H774 H 0.45085 0.44874 0.87611 0.0
H775 H 0.39463 0.42833 0.94737 0.0
O776 O 0.40314 0.49173 0.88291 0.0
C777 C 0.34426 0.43934 0.92184 0.0
O778 O 0.34691 0.41635 0.90409 0.0
N779 N 0.40292 0.44382 0.84617 0.0
C780 C 0.43691 0.41898 0.80115 0.0
C781 C 0.43539 0.44985 0.80441 0.0
C782 C 0.4182 0.46197 0.82727 0.0
C783 C 0.40261 0.41393 0.8419 0.0
C784 C 0.41982 0.40097 0.81974 0.0
H785 H 0.41842 0.48568 0.8305 0.0
H786 H 0.39009 0.39999 0.85688 0.0
H787 H 0.37329 0.50961 0.83816 0.0
H788 H 0.29408 0.46757 0.81363 0.0
H789 H 0.4837 0.43408 0.9217 0.0
H790 H 0.44859 0.46431 0.79048 0.0
H791 H 0.42059 0.37702 0.81778 0.0
H792 H 0.29276 0.21547 0.47085 0.0
H793 H 0.27041 0.12935 0.50609 0.0
H794 H 0.22109 0.13289 0.48438 0.0
H795 H 0.1844 0.15997 0.45545 0.0
H796 H 0.20599 0.24553 0.4184 0.0
H797 H 0.25532 0.24295 0.44121 0.0
C798 C 0.27704 0.19754 0.47375 0.0
C799 C 0.28544 0.17206 0.48988 0.0
C800 C 0.24852 0.19972 0.46113 0.0
C801 C 0.26486 0.14891 0.49331 0.0
C802 C 0.2365 0.15105 0.48113 0.0
C803 C 0.19972 0.17825 0.45247 0.0
C804 C 0.19134 0.20302 0.43535 0.0
C805 C 0.22811 0.1763 0.46503 0.0
C806 C 0.21172 0.2263 0.43163 0.0
C807 C 0.24 0.22475 0.44454 0.0
H808 H 0.55485 0.46994 0.1601 0.0
H809 H 0.5384 0.4144 0.23607 0.0
H810 H 0.54 0.45772 0.26878 0.0
H811 H 0.55238 0.5103 0.27643 0.0
H812 H 0.57347 0.56512 0.20103 0.0
H813 H 0.56408 0.52348 0.16751 0.0
C814 C 0.55079 0.46757 0.1837 0.0
C815 C 0.54606 0.43919 0.19572 0.0
C816 C 0.55326 0.49242 0.20255 0.0
C817 C 0.54168 0.43616 0.22641 0.0
C818 C 0.54285 0.46087 0.24511 0.0
C819 C 0.5543 0.51326 0.25264 0.0
C820 C 0.56373 0.54074 0.24126 0.0
C821 C 0.54957 0.48898 0.23356 0.0
C822 C 0.56658 0.54409 0.21035 0.0
C823 C 0.56112 0.5203 0.19117 0.0
H824 H 0.28225 0.80183 0.90744 0.0
H825 H 0.34863 0.80499 0.9761 0.0
H826 H 0.31006 0.80632 0.01418 0.0
H827 H 0.2581 0.81227 0.0275 0.0
H828 H 0.19093 0.81235 0.9594 0.0
H829 H 0.22902 0.80434 0.92148 0.0
C830 C 0.28805 0.80201 0.9308 0.0
C831 C 0.31805 0.80287 0.93921 0.0
C832 C 0.26567 0.80392 0.95256 0.0
C833 C 0.32558 0.80394 0.96937 0.0
C834 C 0.30357 0.80491 0.99106 0.0
C835 C 0.25158 0.80981 0.0045 0.0
C836 C 0.22161 0.81292 0.9964 0.0
C837 C 0.27359 0.80571 0.98288 0.0
C838 C 0.21384 0.81034 0.96626 0.0
C839 C 0.23562 0.80567 0.94457 0.0
H840 H 0.89297 0.46452 0.72042 0.0
H841 H 0.97673 0.47175 0.7662 0.0
H842 H 0.98739 0.51779 0.74013 0.0
H843 H 0.9718 0.55787 0.70593 0.0
H844 H 0.88647 0.55204 0.66332 0.0
H845 H 0.87759 0.50385 0.6864 0.0
C846 C 0.91347 0.47619 0.72492 0.0
C847 C 0.9339 0.46445 0.74537 0.0
C848 C 0.91925 0.50308 0.7103 0.0
C849 C 0.96064 0.47983 0.75036 0.0
C850 C 0.96675 0.50638 0.73555 0.0
C851 C 0.95148 0.54578 0.70157 0.0
C852 C 0.92976 0.55833 0.68314 0.0
C853 C 0.94613 0.51839 0.71563 0.0
C854 C 0.90335 0.54277 0.67772 0.0
C855 C 0.89826 0.51526 0.69088 0.0
H856 H 0.78489 0.28967 0.51307 0.0
H857 H 0.80078 0.38281 0.52887 0.0
H858 H 0.75776 0.38519 0.56106 0.0
H859 H 0.7125 0.36257 0.58037 0.0
H860 H 0.69549 0.26972 0.56553 0.0
H861 H 0.74183 0.26547 0.53714 0.0
C862 C 0.77905 0.31039 0.52377 0.0
C863 C 0.79607 0.33602 0.51822 0.0
C864 C 0.75378 0.3118 0.54205 0.0
C865 C 0.78847 0.3626 0.53276 0.0
C866 C 0.76357 0.36413 0.551 0.0
C867 C 0.71906 0.34137 0.57102 0.0
C868 C 0.70051 0.31663 0.57439 0.0
C869 C 0.74562 0.33914 0.55506 0.0
C870 C 0.70947 0.28909 0.56294 0.0
C871 C 0.73586 0.28672 0.54669 0.0
H872 H 0.39512 0.01924 0.26424 0.0
H873 H 0.48781 0.0423 0.2681 0.0
H874 H 0.49803 0.99764 0.29718 0.0
H875 H 0.48024 0.95178 0.32201 0.0
H876 H 0.3871 0.93 0.31714 0.0
H877 H 0.37755 0.97456 0.2886 0.0
C878 C 0.41751 0.01485 0.27174 0.0
C879 C 0.44056 0.03431 0.26405 0.0
C880 C 0.42322 0.98921 0.28841 0.0
C881 C 0.4696 0.02764 0.27346 0.0
C882 C 0.47546 1.00213 0.29023 0.0
C883 C 0.45792 0.95681 0.31461 0.0
C884 C 0.43452 0.93739 0.32165 0.0
C885 C 0.45241 0.98267 0.29785 0.0
C886 C 0.40567 0.94429 0.31191 0.0
C887 C 0.40007 0.9699 0.2956 0.0
H888 H 0.79704 0.65108 0.07737 0.0
H889 H 0.80941 0.74571 0.07188 0.0
H890 H 0.76492 0.75 0.04071 0.0
H891 H 0.72369 0.72581 0.01263 0.0
H892 H 0.71257 0.63124 0.01964 0.0
H893 H 0.75505 0.62787 0.05276 0.0
C894 C 0.78997 0.67269 0.06944 0.0
C895 C 0.80662 0.69797 0.07656 0.0
C896 C 0.76443 0.67495 0.05189 0.0
C897 C 0.79692 0.72589 0.06659 0.0
C898 C 0.77156 0.72832 0.0487 0.0
C899 C 0.73049 0.70467 0.02186 0.0
C900 C 0.71465 0.67886 0.01436 0.0
C901 C 0.75531 0.7029 0.04087 0.0
C902 C 0.72377 0.65144 0.026 0.0
C903 C 0.74831 0.64947 0.04461 0.0
H904 H 0.0283 0.97778 0.7578 0.0
H905 H 0.11589 0.95684 0.78959 0.0
H906 H 0.11489 0.99922 0.82258 0.0
H907 H 0.0915 0.04516 0.83879 0.0
H908 H 1.00279 0.06641 0.81054 0.0
H909 H 1.00164 0.02123 0.77978 0.0
C910 C 0.04684 0.98226 0.77243 0.0
C911 C 0.07219 0.96394 0.77119 0.0
C912 C 0.04603 0.00702 0.79164 0.0
C913 C 0.09601 0.97001 0.79032 0.0
C914 C 0.09558 0.99459 0.80902 0.0
C915 C 0.07173 0.0397 0.82621 0.0
C916 C 0.04738 0.05912 0.82658 0.0
C917 C 0.07108 0.01363 0.80929 0.0
C918 C 0.0218 0.05171 0.81048 0.0
C919 C 0.02122 0.02597 0.79287 0.0
H920 H 0.41875 0.21365 0.16226 0.0
H921 H 0.45156 0.18402 0.24701 0.0
H922 H 0.48134 0.22945 0.25166 0.0
H923 H 0.50137 0.27536 0.22878 0.0
H924 H 0.4647 0.30544 0.14567 0.0
H925 H 0.43283 0.26239 0.14337 0.0
C926 C 0.43235 0.21724 0.1818 0.0
C927 C 0.43368 0.19544 0.20393 0.0
C928 C 0.44871 0.24346 0.18454 0.0
C929 C 0.45059 0.20054 0.22957 0.0
C930 C 0.46757 0.22643 0.23218 0.0
C931 C 0.48606 0.27267 0.21044 0.0
C932 C 0.48625 0.29333 0.18695 0.0
C933 C 0.4673 0.24776 0.20943 0.0
C934 C 0.46567 0.28989 0.16375 0.0
C935 C 0.44737 0.26508 0.16235 0.0
H936 H 0.53069 0.65615 0.93155 0.0
H937 H 0.58153 0.71775 0.98384 0.0
H938 H 0.53953 0.75243 0.98438 0.0
H939 H 0.49098 0.76718 0.96471 0.0
H940 H 0.43968 0.70417 0.91373 0.0
H941 H 0.47929 0.66804 0.91812 0.0
C942 C 0.53225 0.67683 0.94371 0.0
C943 C 0.55892 0.68449 0.95778 0.0
C944 C 0.50817 0.69659 0.94368 0.0
C945 C 0.56095 0.71141 0.9732 0.0
C946 C 0.53706 0.73127 0.97326 0.0
C947 C 0.48798 0.74549 0.95491 0.0
C948 C 0.46239 0.73917 0.93798 0.0
C949 C 0.51087 0.72444 0.95778 0.0
C950 C 0.45931 0.71046 0.92594 0.0
C951 C 0.48197 0.68952 0.9286 0.0
H952 H 0.0883 0.79673 0.66125 0.0
H953 H 0.05279 0.82029 0.74681 0.0
H954 H 0.0233 0.7744 0.74733 0.0
H955 H 0.00604 0.72909 0.72185 0.0
H956 H 0.04487 0.70454 0.63773 0.0
H957 H 0.07511 0.74928 0.63843 0.0
C958 C 0.07443 0.7916 0.68022 0.0
C959 C 0.07257 0.81172 0.70396 0.0
C960 C 0.05817 0.76511 0.68052 0.0
C961 C 0.05461 0.80492 0.72841 0.0
C962 C 0.03772 0.7788 0.7286 0.0
C963 C 0.0214 0.73318 0.70386 0.0
C964 C 0.02271 0.7135 0.67948 0.0
C965 C 0.0391 0.75888 0.70458 0.0
C966 C 0.04275 0.71952 0.65637 0.0
C967 C 0.06021 0.74506 0.65683 0.0
H968 H 0.01523 0.24271 0.46919 0.0
H969 H 0.06601 0.30397 0.41591 0.0
H970 H 0.02726 0.34115 0.42133 0.0
H971 H 0.97541 0.35334 0.4341 0.0
H972 H 0.92295 0.29018 0.48284 0.0
H973 H 0.96564 0.25671 0.48621 0.0
C974 C 0.01804 0.26417 0.45879 0.0
C975 C 0.0434 0.26986 0.44132 0.0
C976 C 0.99506 0.28517 0.46103 0.0
C977 C 0.04683 0.29845 0.42916 0.0
C978 C 0.02446 0.31982 0.43209 0.0
C979 C 0.97367 0.33264 0.44622 0.0
C980 C 0.94629 0.32429 0.45859 0.0
C981 C 0.99798 0.31301 0.44694 0.0
C982 C 0.94401 0.29717 0.47364 0.0
C983 C 0.96833 0.27796 0.4753 0.0
H984 H 0.99952 0.22672 0.78631 0.0
H985 H 0.96208 0.19844 0.86985 0.0
H986 H 0.9264 0.23848 0.86812 0.0
H987 H 0.91019 0.28526 0.8468 0.0
H988 H 0.94516 0.31454 0.76289 0.0
H989 H 0.97739 0.2705 0.76065 0.0
C990 C 0.98319 0.22917 0.8038 0.0
C991 C 0.98366 0.2097 0.82824 0.0
C992 C 0.96259 0.25264 0.80282 0.0
C993 C 0.96215 0.21281 0.85062 0.0
C994 C 0.94184 0.23596 0.84985 0.0
C995 C 0.92453 0.28169 0.82779 0.0
C996 C 0.92585 0.30303 0.80528 0.0
C997 C 0.94254 0.25651 0.82665 0.0
C998 C 0.94404 0.29821 0.78049 0.0
C999 C 0.9625 0.27319 0.77933 0.0
H1000 H 0.4413 0.19751 0.60178 0.0
H1001 H 0.46252 0.16266 0.51513 0.0
H1002 H 0.51143 0.18636 0.51758 0.0
H1003 H 0.54797 0.21695 0.54469 0.0
H1004 H 0.5252 0.25163 0.63116 0.0
H1005 H 0.47737 0.22714 0.62868 0.0
C1006 C 0.45648 0.19512 0.58326 0.0
C1007 C 0.44813 0.17849 0.55818 0.0
C1008 C 0.48448 0.20843 0.585 0.0
C1009 C 0.46829 0.1755 0.5346 0.0
C1010 C 0.49629 0.18894 0.53607 0.0
C1011 C 0.53255 0.21928 0.56296 0.0
C1012 C 0.54047 0.23626 0.58809 0.0
C1013 C 0.50462 0.20547 0.56121 0.0
C1014 C 0.52021 0.23848 0.61172 0.0
C1015 C 0.49259 0.2247 0.61021 0.0
H1016 H 0.59604 0.72199 0.32953 0.0
H1017 H 0.54714 0.68104 0.25845 0.0
H1018 H 0.51196 0.72276 0.25828 0.0
H1019 H 0.49283 0.76868 0.28196 0.0
H1020 H 0.54332 0.8089 0.35273 0.0
H1021 H 0.58059 0.77039 0.34867 0.0
C1022 C 0.57791 0.72249 0.31371 0.0
C1023 C 0.57387 0.69854 0.29423 0.0
C1024 C 0.5581 0.7465 0.31364 0.0
C1025 C 0.5506 0.6994 0.27358 0.0
C1026 C 0.53046 0.72314 0.27362 0.0
C1027 C 0.51212 0.76916 0.29628 0.0
C1028 C 0.51487 0.79172 0.31782 0.0
C1029 C 0.53359 0.74649 0.2941 0.0
C1030 C 0.54042 0.7922 0.3358 0.0
C1031 C 0.56175 0.76989 0.33373 0.0
H1032 H 0.96429 0.78793 0.03779 0.0
H1033 H 0.98387 0.74858 0.12289 0.0
H1034 H 0.03437 0.76706 0.1204 0.0
H1035 H 0.0727 0.795 0.09504 0.0
H1036 H 0.05432 0.83625 0.0106 0.0
H1037 H 0.00393 0.81583 0.01147 0.0
C1038 C 0.97969 0.78347 0.05571 0.0
C1039 C 0.97008 0.76734 0.08072 0.0
C1040 C 0.009 0.7942 0.05414 0.0
C1041 C 0.9903 0.76161 0.10378 0.0
C1042 C 0.01936 0.77189 0.10224 0.0
C1043 C 0.05785 0.7994 0.07662 0.0
C1044 C 0.06735 0.81711 0.05277 0.0
C1045 C 0.02888 0.7883 0.07765 0.0
C1046 C 0.04767 0.82254 0.02917 0.0
C1047 C 0.01878 0.81103 0.02977 0.0
H1048 H 0.15537 0.47184 0.29526 0.0
H1049 H 0.2329 0.52342 0.27395 0.0
H1050 H 0.2427 0.49154 0.23107 0.0
H1051 H 0.22562 0.45241 0.19626 0.0
H1052 H 0.14627 0.40341 0.21692 0.0
H1053 H 0.14114 0.43024 0.26372 0.0
C1054 C 0.17485 0.4757 0.28178 0.0
C1055 C 0.19324 0.50016 0.28778 0.0
C1056 C 0.17991 0.45773 0.25683 0.0
C1057 C 0.21817 0.50497 0.26963 0.0
C1058 C 0.22379 0.48673 0.2451 0.0
C1059 C 0.20769 0.44726 0.21145 0.0
C1060 C 0.18629 0.42615 0.20332 0.0
C1061 C 0.2043 0.46356 0.23795 0.0
C1062 C 0.16286 0.41978 0.22281 0.0
C1063 C 0.15989 0.43514 0.24949 0.0
H1064 H 0.65686 0.08204 0.80268 0.0
H1065 H 0.75 0.06424 0.81442 0.0
H1066 H 0.7509 0.0369 0.76718 0.0
H1067 H 0.72395 0.01588 0.72387 0.0
H1068 H 0.63084 0.03558 0.71323 0.0
H1069 H 0.63136 0.06492 0.75832 0.0
C1070 C 0.67738 0.07214 0.79492 0.0
C1071 C 0.70319 0.07453 0.81215 0.0
C1072 C 0.67775 0.05704 0.7678 0.0
C1073 C 0.72981 0.06239 0.80153 0.0
C1074 C 0.73029 0.04678 0.7746 0.0
C1075 C 0.70389 0.0268 0.73139 0.0
C1076 C 0.67744 0.02346 0.71507 0.0
C1077 C 0.70423 0.04362 0.75773 0.0
C1078 C 0.65165 0.03803 0.72491 0.0
C1079 C 0.6518 0.05461 0.75096 0.0
H1080 H 0.66651 0.91636 0.54159 0.0
H1081 H 0.7031 1.00099 0.56641 0.0
H1082 H 0.73339 1.00139 0.52095 0.0
H1083 H 0.75246 0.97483 0.47644 0.0
H1084 H 0.71272 0.89139 0.45179 0.0
H1085 H 0.67997 0.89378 0.49429 0.0
C1086 C 0.6808 0.93511 0.53681 0.0
C1087 C 0.68302 0.95842 0.55728 0.0
C1088 C 0.69748 0.93538 0.51061 0.0
C1089 C 0.70125 0.98277 0.55084 0.0
C1090 C 0.71856 0.98292 0.52496 0.0
C1091 C 0.73633 0.95743 0.4802 0.0
C1092 C 0.73551 0.9327 0.461 0.0
C1093 C 0.71734 0.95895 0.50498 0.0
C1094 C 0.71405 0.91062 0.46592 0.0
C1095 C 0.69537 0.91184 0.4905 0.0
H1096 H 0.78045 0.98325 0.21916 0.0
H1097 H 0.87576 0.97442 0.21462 0.0
H1098 H 0.87554 0.94435 0.25909 0.0
H1099 H 0.84944 0.92372 0.30152 0.0
H1100 H 0.7544 0.93125 0.30778 0.0
H1101 H 0.75338 0.95885 0.26065 0.0
C1102 C 0.80113 0.97461 0.22781 0.0
C1103 C 0.82807 0.98137 0.21327 0.0
C1104 C 0.80099 0.95741 0.25399 0.0
C1105 C 0.8546 0.96951 0.22472 0.0
C1106 C 0.85459 0.95245 0.25051 0.0
C1107 C 0.82843 0.93138 0.29261 0.0
C1108 C 0.80208 0.92597 0.30834 0.0
C1109 C 0.82808 0.94682 0.26563 0.0
C1110 C 0.775 0.93535 0.29613 0.0
C1111 C 0.77447 0.95114 0.26925 0.0
H1112 H 0.82732 0.03154 0.05341 0.0
H1113 H 0.83016 0.12585 0.06973 0.0
H1114 H 0.80417 0.13525 0.02343 0.0
H1115 H 0.77776 0.11699 0.97989 0.0
H1116 H 0.77265 0.02299 0.9634 0.0
H1117 H 0.80214 0.01318 0.00797 0.0
C1118 C 0.82238 0.0541 0.04666 0.0
C1119 C 0.83043 0.0779 0.06518 0.0
C1120 C 0.80684 0.05945 0.02 0.0
C1121 C 0.82387 0.10705 0.05615 0.0
C1122 C 0.80907 0.11252 0.02957 0.0
C1123 C 0.78357 0.09439 0.98568 0.0
C1124 C 0.77302 0.07079 0.9683 0.0
C1125 C 0.80006 0.08893 0.01154 0.0
C1126 C 0.78029 0.04156 0.97655 0.0
C1127 C 0.79719 0.03594 1.00202 0.0
H1128 H 0.28243 0.51535 0.78944 0.0
H1129 H 0.37812 0.51883 0.78846 0.0
H1130 H 0.3771 0.54565 0.74185 0.0
H1131 H 0.34981 0.56573 0.69996 0.0
H1132 H 0.25429 0.56446 0.69958 0.0
H1133 H 0.25441 0.53894 0.74792 0.0
C1134 C 0.303 0.5221 0.77903 0.0
C1135 C 0.3303 0.51502 0.79268 0.0
C1136 C 0.30232 0.53758 0.7518 0.0
C1137 C 0.35676 0.52425 0.77898 0.0
C1138 C 0.35625 0.5394 0.75204 0.0
C1139 C 0.32894 0.55978 0.71035 0.0
C1140 C 0.30207 0.56639 0.69599 0.0
C1141 C 0.32926 0.54575 0.73808 0.0
C1142 C 0.27525 0.55934 0.71014 0.0
C1143 C 0.27537 0.54477 0.73772 0.0
H1144 H 0.17889 0.5994 0.45356 0.0
H1145 H 0.1922 0.50587 0.43886 0.0
H1146 H 0.21888 0.50206 0.48634 0.0
H1147 H 0.24119 0.52668 0.53053 0.0
H1148 H 0.22513 0.61992 0.54459 0.0
H1149 H 0.19634 0.62245 0.49912 0.0
C1150 C 0.18769 0.57815 0.46069 0.0
C1151 C 0.18429 0.55308 0.44253 0.0
C1152 C 0.20227 0.5761 0.48802 0.0
C1153 C 0.19494 0.52553 0.45241 0.0
C1154 C 0.21013 0.52338 0.4795 0.0
C1155 C 0.2309 0.54735 0.52377 0.0
C1156 C 0.23521 0.57304 0.54104 0.0
C1157 C 0.2143 0.54867 0.49731 0.0
C1158 C 0.22178 0.59973 0.53212 0.0
C1159 C 0.20557 0.60129 0.50587 0.0
H1160 H 0.28491 0.39472 0.04037 0.0
H1161 H 0.24876 0.48343 0.03884 0.0
H1162 H 0.2772 0.49475 0.99455 0.0
H1163 H 0.31129 0.47903 0.95434 0.0
H1164 H 0.34443 0.38929 0.95445 0.0
H1165 H 0.31844 0.37903 1.00068 0.0
C1166 C 0.28304 0.41648 0.03036 0.0
C1167 C 0.26463 0.43805 0.04341 0.0
C1168 C 0.29907 0.42282 0.00431 0.0
C1169 C 0.26299 0.4663 0.02996 0.0
C1170 C 0.27919 0.47287 0.00431 0.0
C1171 C 0.31293 0.45737 0.9647 0.0
C1172 C 0.32963 0.43495 0.95093 0.0
C1173 C 0.29723 0.45128 0.99114 0.0
C1174 C 0.33143 0.40687 0.96445 0.0
C1175 C 0.3166 0.40094 0.99095 0.0
H1176 H 0.1137 0.34164 0.22759 0.0
H1177 H 0.19509 0.29308 0.21653 0.0
H1178 H 0.1897 0.27192 0.26657 0.0
H1179 H 0.15997 0.26549 0.31239 0.0
H1180 H 0.07927 0.31608 0.32302 0.0
H1181 H 0.08647 0.33855 0.27452 0.0
C1182 C 0.1302 0.32643 0.23625 0.0
C1183 C 0.15445 0.31843 0.21846 0.0
C1184 C 0.12711 0.31485 0.26497 0.0
C1185 C 0.17619 0.29933 0.22998 0.0
C1186 C 0.17305 0.28726 0.25847 0.0
C1187 C 0.14409 0.28158 0.30417 0.0
C1188 C 0.11892 0.28873 0.3213 0.0
C1189 C 0.14835 0.29458 0.27605 0.0
C1190 C 0.09882 0.31002 0.31045 0.0
C1191 C 0.1028 0.32283 0.28257 0.0
H1192 H 0.42025 0.3856 0.98052 0.0
H1193 H 0.48425 0.45608 0.97384 0.0
H1194 H 0.5038 0.44378 0.02297 0.0
H1195 H 0.50523 0.4105 0.06586 0.0
H1196 H 0.44415 0.337 0.07064 0.0
H1197 H 0.42037 0.35337 0.02488 0.0
C1198 C 0.43818 0.3984 0.99015 0.0
C1199 C 0.45103 0.42146 0.97368 0.0
C1200 C 0.44983 0.39063 0.01804 0.0
C1201 C 0.47437 0.43794 0.9861 0.0
C1202 C 0.48546 0.43098 0.01416 0.0
C1203 C 0.48672 0.39805 0.05699 0.0
C1204 C 0.47699 0.3722 0.07145 0.0
C1205 C 0.47383 0.40692 0.03003 0.0
C1206 C 0.45241 0.35681 0.05987 0.0
C1207 C 0.4388 0.36609 0.0336 0.0
H1208 H 0.33192 0.69625 0.83037 0.0
H1209 H 0.40805 0.74913 0.80635 0.0
H1210 H 0.40567 0.73042 0.75582 0.0
H1211 H 0.37747 0.70468 0.71665 0.0
H1212 H 0.3034 0.64967 0.74058 0.0
H1213 H 0.3095 0.66325 0.79296 0.0
C1214 C 0.34842 0.70313 0.81428 0.0
C1215 C 0.36956 0.7247 0.82202 0.0
C1216 C 0.34706 0.69217 0.78512 0.0
C1217 C 0.39117 0.73292 0.80101 0.0
C1218 C 0.38978 0.72236 0.77196 0.0
C1219 C 0.36319 0.6953 0.73359 0.0
C1220 C 0.33991 0.67659 0.72515 0.0
C1221 C 0.3671 0.70294 0.7635 0.0
C1222 C 0.32148 0.66415 0.74691 0.0
C1223 C 0.32489 0.67202 0.77672 0.0
H1224 H 0.02147 0.59342 0.4647 0.0
H1225 H 0.11185 0.57486 0.49002 0.0
H1226 H 0.10009 0.58706 0.54157 0.0
H1227 H 0.06314 0.60103 0.58014 0.0
H1228 H 0.97246 0.61682 0.55331 0.0
H1229 H 0.98534 0.60712 0.50211 0.0
C1230 C 0.03865 0.5917 0.4814 0.0
C1231 C 0.06744 0.58289 0.47325 0.0
C1232 C 0.03162 0.59813 0.51103 0.0
C1233 C 0.08949 0.58171 0.49538 0.0
C1234 C 0.08273 0.5885 0.52501 0.0
C1235 C 0.04625 0.60241 0.56308 0.0
C1236 C 0.01687 0.60979 0.57087 0.0
C1237 C 0.05372 0.59644 0.53321 0.0
C1238 C 0.9953 0.6114 0.54829 0.0
C1239 C 1.00259 0.60579 0.51881 0.0
H1240 H 0.65626 0.23623 0.79887 0.0
H1241 H 0.68497 0.14974 0.76955 0.0
H1242 H 0.67497 0.16362 0.71812 0.0
H1243 H 0.66069 0.20171 0.68094 0.0
H1244 H 0.63548 0.289 0.71171 0.0
H1245 H 0.642 0.27347 0.76272 0.0
C1246 C 0.66058 0.22039 0.78132 0.0
C1247 C 0.67167 0.19209 0.78831 0.0
C1248 C 0.65559 0.22875 0.75178 0.0
C1249 C 0.67627 0.17165 0.76509 0.0
C1250 C 0.67079 0.17967 0.73553 0.0
C1251 C 0.65658 0.21728 0.69881 0.0
C1252 C 0.64742 0.24645 0.69224 0.0
C1253 C 0.66087 0.20837 0.72853 0.0
C1254 C 0.64226 0.26632 0.71582 0.0
C1255 C 0.64606 0.25752 0.74518 0.0
H1256 H 0.5372 0.94972 0.51912 0.0
H1257 H 0.59993 0.88064 0.5398 0.0
H1258 H 0.59084 0.85744 0.49144 0.0
H1259 H 0.56314 0.85579 0.44434 0.0
H1260 H 0.50246 0.92647 0.42268 0.0
H1261 H 0.51236 0.95012 0.47055 0.0
C1262 C 0.54871 0.9295 0.51302 0.0
C1263 C 0.56883 0.91657 0.53302 0.0
C1264 C 0.5436 0.91661 0.48517 0.0
C1265 C 0.5843 0.89085 0.52468 0.0
C1266 C 0.57905 0.87761 0.49713 0.0
C1267 C 0.55232 0.87652 0.45003 0.0
C1268 C 0.53132 0.88894 0.43057 0.0
C1269 C 0.55854 0.89017 0.47732 0.0
C1270 C 0.51781 0.91599 0.43791 0.0
C1271 C 0.52365 0.9296 0.46511 0.0
H1272 H 0.82304 0.841 0.26502 0.0
H1273 H 0.86792 0.76898 0.30923 0.0
H1274 H 0.88386 0.74899 0.26164 0.0
H1275 H 0.88039 0.74887 0.20833 0.0
H1276 H 0.83619 0.82013 0.1621 0.0
H1277 H 0.82447 0.84367 0.20981 0.0
C1278 C 0.83682 0.82131 0.2641 0.0
C1279 C 0.84397 0.80615 0.29048 0.0
C1280 C 0.84562 0.80967 0.23646 0.0
C1281 C 0.86173 0.78061 0.28914 0.0
C1282 C 0.87086 0.76923 0.26198 0.0
C1283 C 0.86885 0.76991 0.20834 0.0
C1284 C 0.85924 0.78265 0.18153 0.0
C1285 C 0.8622 0.78309 0.23557 0.0
C1286 C 0.84381 0.80976 0.18239 0.0
C1287 C 0.83707 0.82319 0.20967 0.0
H1288 H 1.00043 0.14802 0.9656 0.0
H1289 H 0.93487 0.09109 0.92534 0.0
H1290 H 0.91687 0.07673 0.97413 0.0
H1291 H 0.92063 0.07851 0.02785 0.0
H1292 H 0.98451 0.13682 0.06913 0.0
H1293 H 1.00264 0.15154 0.02053 0.0
C1294 C 0.98211 0.13259 0.96753 0.0
C1295 C 0.96917 0.12056 0.94165 0.0
C1296 C 0.97175 0.12425 0.99591 0.0
C1297 C 0.94516 0.10095 0.94468 0.0
C1298 C 0.93497 0.09246 0.97267 0.0
C1299 C 0.93826 0.09469 0.02658 0.0
C1300 C 0.95096 0.10626 0.05271 0.0
C1301 C 0.94823 0.10373 0.99843 0.0
C1302 C 0.97426 0.12697 0.04983 0.0
C1303 C 0.98462 0.1357 0.02184 0.0
H1304 H 0.3126 0.10747 0.31807 0.0
H1305 H 0.32504 0.16822 0.2453 0.0
H1306 H 0.27689 0.1905 0.25474 0.0
H1307 H 0.2312 0.19276 0.28331 0.0
H1308 H 0.21777 0.13317 0.35687 0.0
H1309 H 0.26663 0.11092 0.34812 0.0
C1310 C 0.30483 0.12573 0.30447 0.0
C1311 C 0.32217 0.13575 0.28049 0.0
C1312 C 0.27703 0.13876 0.31032 0.0
C1313 C 0.31181 0.15948 0.26317 0.0
C1314 C 0.28437 0.17246 0.26878 0.0
C1315 C 0.2388 0.17471 0.29727 0.0
C1316 C 0.22075 0.16441 0.32047 0.0
C1317 C 0.2667 0.1621 0.29208 0.0
C1318 C 0.23131 0.14155 0.3389 0.0
C1319 C 0.25918 0.12876 0.33382 0.0
H1320 H 0.65646 0.5585 0.0634 0.0
H1321 H 0.58478 0.57509 1.00208 0.0
H1322 H 0.56116 0.5287 0.01672 0.0
H1323 H 0.56285 0.4817 0.04429 0.0
H1324 H 0.63279 0.46598 0.10737 0.0
H1325 H 0.65496 0.51421 0.09526 0.0
C1326 C 0.63548 0.55219 0.05349 0.0
C1327 C 0.62297 0.56967 0.03082 0.0
C1328 C 0.62179 0.52569 0.06236 0.0
C1329 C 0.59549 0.56143 0.01868 0.0
C1330 C 0.58184 0.53502 0.0272 0.0
C1331 C 0.58287 0.48902 0.05541 0.0
C1332 C 0.59659 0.47038 0.07625 0.0
C1333 C 0.5952 0.51665 0.04844 0.0
C1334 C 0.62206 0.48013 0.09118 0.0
C1335 C 0.63471 0.50755 0.08417 0.0
H1336 H 0.19194 0.84122 0.75616 0.0
H1337 H 0.18886 0.91284 0.81963 0.0
H1338 H 0.23504 0.8956 0.84182 0.0
H1339 H 0.27929 0.86332 0.83986 0.0
H1340 H 0.2839 0.79435 0.77384 0.0
H1341 H 0.23473 0.80779 0.75552 0.0
C1342 C 0.20141 0.85322 0.77467 0.0
C1343 C 0.18726 0.8788 0.78554 0.0
C1344 C 0.22858 0.84384 0.7867 0.0
C1345 C 0.19938 0.89329 0.81043 0.0
C1346 C 0.22592 0.88352 0.82313 0.0
C1347 C 0.26923 0.85103 0.82179 0.0
C1348 C 0.28524 0.82813 0.80801 0.0
C1349 C 0.24116 0.85931 0.81095 0.0
C1350 C 0.27214 0.8124 0.78446 0.0
C1351 C 0.244 0.81999 0.77406 0.0
H1352 H 0.91393 0.46033 0.49848 0.0
H1353 H 0.82627 0.44718 0.53392 0.0
H1354 H 0.83396 0.48746 0.56947 0.0
H1355 H 0.86266 0.53094 0.58498 0.0
H1356 H 0.94922 0.54638 0.5477 0.0
H1357 H 0.94525 0.50071 0.51849 0.0
C1358 C 0.89709 0.46563 0.51484 0.0
C1359 C 0.86975 0.45076 0.51408 0.0
C1360 C 0.90122 0.48972 0.53426 0.0
C1361 C 0.84761 0.4582 0.5346 0.0
C1362 C 0.85188 0.48142 0.55461 0.0
C1363 C 0.88066 0.52419 0.57054 0.0
C1364 C 0.90591 0.54222 0.56798 0.0
C1365 C 0.87805 0.49815 0.5537 0.0
C1366 C 0.9295 0.53287 0.54987 0.0
C1367 C 0.9272 0.50682 0.53314 0.0
H1368 H 0.81579 0.40628 0.69451 0.0
H1369 H 0.81197 0.33136 0.75385 0.0
H1370 H 0.7624 0.319 0.73583 0.0
H1371 H 0.7189 0.33102 0.70495 0.0
H1372 H 0.72137 0.40787 0.6482 0.0
H1373 H 0.77236 0.41808 0.66341 0.0
C1374 C 0.80422 0.38702 0.70309 0.0
C1375 C 0.81752 0.36962 0.72524 0.0
C1376 C 0.77527 0.38061 0.69335 0.0
C1377 C 0.80211 0.34505 0.73671 0.0
C1378 C 0.77376 0.338 0.72648 0.0
C1379 C 0.73077 0.34984 0.69585 0.0
C1380 C 0.7164 0.36877 0.67571 0.0
C1381 C 0.75993 0.35586 0.7051 0.0
C1382 C 0.73185 0.39326 0.66414 0.0
C1383 C 0.76106 0.39901 0.67268 0.0
H1384 H 0.43241 0.99034 0.41263 0.0
H1385 H 0.39157 0.94371 0.48535 0.0
H1386 H 0.3727 0.99034 0.50543 0.0
H1387 H 0.37226 0.04421 0.50524 0.0
H1388 H 0.41521 0.0923 0.43448 0.0
H1389 H 0.42832 0.04537 0.41037 0.0
C1390 C 0.41889 0.99051 0.43252 0.0
C1391 C 0.41354 0.96376 0.44771 0.0
C1392 C 0.40872 0.01764 0.44438 0.0
C1393 C 0.39621 0.96413 0.47358 0.0
C1394 C 0.38543 0.99074 0.48502 0.0
C1395 C 0.38419 0.04461 0.48436 0.0
C1396 C 0.39304 0.07185 0.47194 0.0
C1397 C 0.39227 0.01766 0.47109 0.0
C1398 C 0.40825 0.0717 0.44468 0.0
C1399 C 0.41587 0.04484 0.43093 0.0
H1400 H 0.77574 0.69491 0.19565 0.0
H1401 H 0.80854 0.60504 0.19285 0.0
H1402 H 0.76012 0.58625 0.20702 0.0
H1403 H 0.70763 0.59469 0.21716 0.0
H1404 H 0.67341 0.68371 0.22099 0.0
H1405 H 0.72295 0.70364 0.20974 0.0
C1406 C 0.77214 0.67128 0.19819 0.0
C1407 C 0.79573 0.65142 0.19318 0.0
C1408 C 0.744 0.66049 0.20658 0.0
C1409 C 0.7909 0.62083 0.19687 0.0
C1410 C 0.76315 0.61 0.20485 0.0
C1411 C 0.71126 0.61846 0.216 0.0
C1412 C 0.68733 0.63781 0.22004 0.0
C1413 C 0.73952 0.62954 0.20945 0.0
C1414 C 0.69185 0.66855 0.21822 0.0
C1415 C 0.72005 0.67985 0.21161 0.0
H1416 H 0.16128 0.94793 0.94688 0.0
H1417 H 0.08617 0.91705 0.99739 0.0
H1418 H 0.05927 0.96275 0.98604 0.0
H1419 H 0.05865 0.01297 0.96454 0.0
H1420 H 0.13206 0.04252 0.91121 0.0
H1421 H 0.1581 0.99557 0.92032 0.0
C1422 C 0.13884 0.95099 0.95498 0.0
C1423 C 0.12609 0.92972 0.9739 0.0
C1424 C 0.12336 0.97707 0.94791 0.0
C1425 C 0.09683 0.93371 0.98376 0.0
C1426 C 0.0814 0.95972 0.97714 0.0
C1427 C 0.0803 0.00892 0.95489 0.0
C1428 C 0.0938 0.03106 0.93769 0.0
C1429 C 0.09476 0.98185 0.95988 0.0
C1430 C 0.12149 0.02563 0.92462 0.0
C1431 C 0.13631 0.99891 0.92988 0.0
H1432 H 0.31791 0.21743 0.12925 0.0
H1433 H 0.30758 0.22452 0.22375 0.0
H1434 H 0.28173 0.27218 0.21789 0.0
H1435 H 0.25557 0.30743 0.18488 0.0
H1436 H 0.26598 0.29981 0.09021 0.0
H1437 H 0.2992 0.25738 0.09677 0.0
C1438 C 0.31065 0.23 0.14843 0.0
C1439 C 0.31423 0.21781 0.17682 0.0
C1440 C 0.296 0.25725 0.14474 0.0
C1441 C 0.30485 0.23381 0.20177 0.0
C1442 C 0.29007 0.2609 0.19836 0.0
C1443 C 0.26627 0.29723 0.16586 0.0
C1444 C 0.25893 0.30685 0.13715 0.0
C1445 C 0.28467 0.27234 0.16986 0.0
C1446 C 0.27195 0.29304 0.1125 0.0
C1447 C 0.29058 0.26855 0.11625 0.0
H1448 H 0.84287 0.26458 0.8287 0.0
H1449 H 0.77473 0.30543 0.88185 0.0
H1450 H 0.75805 0.25668 0.8987 0.0
H1451 H 0.75975 0.20308 0.89445 0.0
H1452 H 0.82434 0.16119 0.83748 0.0
H1453 H 0.84634 0.20971 0.8268 0.0
C1454 C 0.82477 0.26269 0.84442 0.0
C1455 C 0.80991 0.28844 0.85404 0.0
C1456 C 0.81474 0.23449 0.85325 0.0
C1457 C 0.78624 0.28584 0.87406 0.0
C1458 C 0.77678 0.25803 0.88368 0.0
C1459 C 0.77881 0.20432 0.87988 0.0
C1460 C 0.79004 0.17844 0.86644 0.0
C1461 C 0.79038 0.23224 0.87281 0.0
C1462 C 0.81508 0.18071 0.84801 0.0
C1463 C 0.82755 0.20849 0.84173 0.0
H1464 H 0.49016 0.09525 0.5758 0.0
H1465 H 0.45099 0.03309 0.63687 0.0
H1466 H 0.50023 0.01637 0.65228 0.0
H1467 H 0.55364 0.01563 0.64438 0.0
H1468 H 0.5931 0.0741 0.57963 0.0
H1469 H 0.54475 0.09698 0.57053 0.0
C1470 C 0.49255 0.07856 0.59296 0.0
C1471 C 0.4671 0.0653 0.6052 0.0
C1472 C 0.52096 0.06841 0.60097 0.0
C1473 C 0.47035 0.04338 0.62709 0.0
C1474 C 0.49844 0.03387 0.63586 0.0
C1475 C 0.55184 0.03355 0.62842 0.0
C1476 C 0.57695 0.04267 0.61226 0.0
C1477 C 0.52384 0.0456 0.62232 0.0
C1478 C 0.57415 0.06641 0.59221 0.0
C1479 C 0.54644 0.07938 0.58684 0.0
H1480 H 0.66813 0.72445 0.35134 0.0
H1481 H 0.73538 0.72706 0.28346 0.0
H1482 H 0.75368 0.77427 0.30279 0.0
H1483 H 0.75201 0.8135 0.34029 0.0
H1484 H 0.68704 0.80934 0.41048 0.0
H1485 H 0.66571 0.76476 0.38837 0.0
C1486 C 0.6865 0.73562 0.34059 0.0
C1487 C 0.70051 0.72225 0.31612 0.0
C1488 C 0.69725 0.76253 0.3522 0.0
C1489 C 0.72452 0.73677 0.30256 0.0
C1490 C 0.73489 0.7638 0.31353 0.0
C1491 C 0.73332 0.8028 0.35092 0.0
C1492 C 0.72163 0.81452 0.37739 0.0
C1493 C 0.72174 0.77663 0.33863 0.0
C1494 C 0.69675 0.80075 0.39024 0.0
C1495 C 0.68455 0.77515 0.37766 0.0
H1496 H 0.96757 0.97317 0.15969 0.0
H1497 H 0.92891 0.99921 0.07624 0.0
H1498 H 0.96681 0.971 0.04943 0.0
H1499 H 0.01624 0.94713 0.05025 0.0
H1500 H 0.05411 0.91988 0.13348 0.0
H1501 H 0.01109 0.93992 0.16019 0.0
C1502 C 0.96685 0.9716 0.13566 0.0
C1503 C 0.94575 0.98818 0.11982 0.0
C1504 C 0.98886 0.95562 0.12051 0.0
C1505 C 0.94484 0.98627 0.08877 0.0
C1506 C 0.96674 0.97051 0.07347 0.0
C1507 C 0.01445 0.94494 0.07416 0.0
C1508 C 0.03811 0.93255 0.09014 0.0
C1509 C 0.98966 0.95636 0.08913 0.0
C1510 C 0.03594 0.92945 0.121 0.0
C1511 C 0.0115 0.94102 0.13617 0.0
H1512 H 0.20608 0.70533 0.59179 0.0
H1513 H 0.2462 0.67428 0.67316 0.0
H1514 H 0.22913 0.71868 0.69886 0.0
H1515 H 0.20716 0.76864 0.69709 0.0
H1516 H 0.16633 0.79972 0.61665 0.0
H1517 H 0.17941 0.7531 0.59148 0.0
C1518 C 0.21066 0.70798 0.61527 0.0
C1519 C 0.22777 0.68659 0.63038 0.0
C1520 C 0.20103 0.73379 0.62991 0.0
C1521 C 0.23335 0.69045 0.66086 0.0
C1522 C 0.22369 0.71591 0.67559 0.0
C1523 C 0.20094 0.76487 0.67414 0.0
C1524 C 0.18616 0.78732 0.65847 0.0
C1525 C 0.20829 0.73807 0.66014 0.0
C1526 C 0.17773 0.78249 0.62892 0.0
C1527 C 0.18528 0.75597 0.61463 0.0
H1528 H 0.06135 0.44746 0.33732 0.0
H1529 H 0.08109 0.49867 0.41581 0.0
H1530 H 0.03408 0.48376 0.43791 0.0
H1531 H 0.98521 0.46016 0.43277 0.0
H1532 H 0.96604 0.40679 0.3561 0.0
H1533 H 0.01526 0.41798 0.33541 0.0
C1534 C 0.05563 0.45491 0.35947 0.0
C1535 C 0.07415 0.47507 0.37446 0.0
C1536 C 0.02865 0.44593 0.37222 0.0
C1537 C 0.06665 0.48408 0.40336 0.0
C1538 C 0.03986 0.47543 0.41609 0.0
C1539 C 0.99217 0.45078 0.41173 0.0
C1540 C 0.97234 0.43312 0.3956 0.0
C1541 C 0.02033 0.45715 0.40033 0.0
C1542 C 0.98125 0.42052 0.36861 0.0
C1543 C 0.00921 0.42702 0.35686 0.0
H1544 H 0.51161 0.59332 0.93617 0.0
H1545 H 0.55638 0.52567 0.88561 0.0
H1546 H 0.50887 0.50578 0.86905 0.0
H1547 H 0.45527 0.50444 0.87297 0.0
H1548 H 0.4093 0.56903 0.92669 0.0
H1549 H 0.45645 0.59393 0.93724 0.0
C1550 C 0.51079 0.57464 0.92104 0.0
C1551 C 0.53736 0.56081 0.91219 0.0
C1552 C 0.48323 0.56275 0.91229 0.0
C1553 C 0.53616 0.53642 0.89286 0.0
C1554 C 0.50904 0.52508 0.8834 0.0
C1555 C 0.45532 0.52415 0.88676 0.0
C1556 C 0.4287 0.53455 0.89934 0.0
C1557 C 0.48248 0.53756 0.89363 0.0
C1558 C 0.42943 0.56036 0.91687 0.0
C1559 C 0.45643 0.57453 0.92303 0.0
H1560 H 0.96062 0.12904 0.21671 0.0
H1561 H 0.93368 0.06619 0.28357 0.0
H1562 H 0.97094 0.08628 0.31783 0.0
H1563 H 0.01163 0.12179 0.32828 0.0
H1564 H 0.03732 0.18457 0.26083 0.0
H1565 H 1.00009 0.16436 0.22707 0.0
C1566 C 0.96256 0.12004 0.23896 0.0
C1567 C 0.94426 0.09646 0.24781 0.0
C1568 C 0.98398 0.13151 0.25823 0.0
C1569 C 0.94756 0.08442 0.27637 0.0
C1570 C 0.96883 0.09588 0.29588 0.0
C1571 C 0.00902 0.13084 0.30613 0.0
C1572 C 0.02699 0.15457 0.29691 0.0
C1573 C 0.98729 0.11932 0.28696 0.0
C1574 C 0.02347 0.16641 0.26833 0.0
C1575 C 1.00226 0.15489 0.24907 0.0
H1576 H 0.63338 0.30218 0.03066 0.0
H1577 H 0.59383 0.23502 0.08624 0.0
H1578 H 0.61406 0.19622 0.05429 0.0
H1579 H 0.64245 0.18128 0.00978 0.0
H1580 H 0.68396 0.24847 0.95602 0.0
H1581 H 0.66369 0.28736 0.98805 0.0
C1582 C 0.62953 0.27906 0.03608 0.0
C1583 C 0.61192 0.27161 0.06073 0.0
C1584 C 0.64148 0.25685 0.0178 0.0
C1585 C 0.60685 0.24147 0.06711 0.0
C1586 C 0.61853 0.21922 0.04893 0.0
C1587 C 0.64699 0.20448 0.00526 0.0
C1588 C 0.66452 0.21221 0.98072 0.0
C1589 C 0.63565 0.22665 0.02405 0.0
C1590 C 0.67056 0.24219 0.97496 0.0
C1591 C 0.65897 0.26436 0.99321 0.0
H1592 H 0.56162 0.86851 0.72538 0.0
H1593 H 0.5297 0.95744 0.74328 0.0
H1594 H 0.49776 0.93832 0.78169 0.0
H1595 H 0.47675 0.89669 0.80868 0.0
H1596 H 0.4995 0.80723 0.78183 0.0
H1597 H 0.53693 0.82661 0.74878 0.0
C1598 C 0.54737 0.88399 0.73692 0.0
C1599 C 0.54883 0.91471 0.73083 0.0
C1600 C 0.52714 0.87272 0.75778 0.0
C1601 C 0.53039 0.93386 0.74745 0.0
C1602 C 0.51152 0.92289 0.7694 0.0
C1603 C 0.48914 0.8811 0.79529 0.0
C1604 C 0.48467 0.85024 0.79841 0.0
C1605 C 0.50939 0.89233 0.77445 0.0
C1606 C 0.50239 0.83101 0.78113 0.0
C1607 C 0.52377 0.84209 0.76165 0.0
H1608 H 0.91486 0.71622 0.52008 0.0
H1609 H 0.8851 0.76365 0.59785 0.0
H1610 H 0.85953 0.79959 0.56631 0.0
H1611 H 0.84549 0.81758 0.51628 0.0
H1612 H 0.87806 0.77117 0.43917 0.0
H1613 H 0.90325 0.73522 0.47086 0.0
C1614 C 0.90334 0.7347 0.53029 0.0
C1615 C 0.90205 0.73708 0.56142 0.0
C1616 C 0.88916 0.75556 0.51208 0.0
C1617 C 0.88621 0.7609 0.57401 0.0
C1618 C 0.87169 0.7816 0.55597 0.0
C1619 C 0.85811 0.79954 0.50655 0.0
C1620 C 0.85998 0.79699 0.47549 0.0
C1621 C 0.87288 0.77908 0.52495 0.0
C1622 C 0.87655 0.7737 0.46304 0.0
C1623 C 0.89086 0.7531 0.48113 0.0
H1624 H 0.43775 0.41894 0.74055 0.0
H1625 H 0.48512 0.38825 0.81776 0.0
H1626 H 0.52215 0.36438 0.78619 0.0
H1627 H 0.54105 0.35257 0.73721 0.0
H1628 H 0.49223 0.37909 0.65912 0.0
H1629 H 0.45616 0.40491 0.6904 0.0
C1630 C 0.45628 0.40705 0.75024 0.0
C1631 C 0.45896 0.40528 0.78127 0.0
C1632 C 0.4772 0.39281 0.73189 0.0
C1633 C 0.48279 0.38974 0.79386 0.0
C1634 C 0.5039 0.37615 0.77586 0.0
C1635 C 0.52225 0.36339 0.72684 0.0
C1636 C 0.51939 0.36351 0.69571 0.0
C1637 C 0.50124 0.37744 0.7449 0.0
C1638 C 0.49528 0.37874 0.68294 0.0
C1639 C 0.4745 0.39339 0.70085 0.0
H1640 H 0.40011 0.69378 0.53568 0.0
H1641 H 0.31029 0.71354 0.50801 0.0
H1642 H 0.32893 0.74727 0.47075 0.0
H1643 H 0.37004 0.77255 0.44691 0.0
H1644 H 0.45895 0.76063 0.48085 0.0
H1645 H 0.44109 0.72243 0.51451 0.0
C1646 C 0.38436 0.70569 0.52201 0.0
C1647 C 0.35364 0.70036 0.5249 0.0
C1648 C 0.39506 0.72661 0.50149 0.0
C1649 C 0.33406 0.71596 0.50609 0.0
C1650 C 0.34467 0.73576 0.48484 0.0
C1651 C 0.38566 0.76226 0.46199 0.0
C1652 C 0.41594 0.76995 0.46108 0.0
C1653 C 0.37507 0.74144 0.48253 0.0
C1654 C 0.43563 0.7551 0.48033 0.0
C1655 C 0.42537 0.73337 0.49995 0.0
H1656 H 0.96804 0.6712 0.2376 0.0
H1657 H 0.01583 0.64182 0.15992 0.0
H1658 H 0.05106 0.61529 0.19156 0.0
H1659 H 0.06862 0.60096 0.24167 0.0
H1660 H 0.02144 0.6329 0.31863 0.0
H1661 H 0.98613 0.65869 0.28679 0.0
C1662 C 0.98648 0.65959 0.22742 0.0
C1663 C 0.9893 0.65884 0.19631 0.0
C1664 C 0.00688 0.6449 0.24568 0.0
C1665 C 0.01288 0.64268 0.18375 0.0
C1666 C 0.03316 0.62761 0.20185 0.0
C1667 C 0.05053 0.61351 0.25137 0.0
C1668 C 0.04767 0.61511 0.28244 0.0
C1669 C 0.03035 0.62854 0.23288 0.0
C1670 C 0.02429 0.63162 0.29479 0.0
C1671 C 0.00403 0.64626 0.27661 0.0
H1672 H 0.17456 0.30469 0.9914 0.0
H1673 H 0.10065 0.31256 0.05175 0.0
H1674 H 0.07318 0.27567 0.02347 0.0
H1675 H 0.07151 0.23837 0.98408 0.0
H1676 H 0.14493 0.23063 0.92307 0.0
H1677 H 0.1714 0.26961 0.94962 0.0
C1678 C 0.15241 0.29841 0.99829 0.0
C1679 C 0.13976 0.31145 0.02371 0.0
C1680 C 0.13677 0.27681 0.98211 0.0
C1681 C 0.11084 0.30328 0.03207 0.0
C1682 C 0.09516 0.28193 0.01606 0.0
C1683 C 0.09307 0.2455 0.9762 0.0
C1684 C 0.10627 0.23119 0.95178 0.0
C1685 C 0.10808 0.2682 0.99135 0.0
C1686 C 0.13444 0.24065 0.94223 0.0
C1687 C 0.14955 0.26315 0.95726 0.0
H1688 H 0.26453 0.94477 0.08975 0.0
H1689 H 0.18849 0.97806 0.13749 0.0
H1690 H 0.22005 0.01244 0.1647 0.0
H1691 H 0.26893 0.03384 0.1744 0.0
H1692 H 0.34521 1.00138 0.1266 0.0
H1693 H 0.31381 0.96632 0.09963 0.0
C1694 C 0.25485 0.95971 0.10594 0.0
C1695 C 0.22418 0.95866 0.11165 0.0
C1696 C 0.27315 0.97964 0.12148 0.0
C1697 C 0.21207 0.978 0.13296 0.0
C1698 C 0.23008 0.99782 0.14845 0.0
C1699 C 0.27878 0.01881 0.15838 0.0
C1700 C 0.3094 0.02016 0.15265 0.0
C1701 C 0.26063 0.9988 0.14294 0.0
C1702 C 0.32166 1.00095 0.13132 0.0
C1703 C 0.30374 0.98084 0.11594 0.0
H1704 H 0.76436 0.47047 0.83331 0.0
H1705 H 0.84062 0.49955 0.88322 0.0
H1706 H 0.81021 0.53674 0.90851 0.0
H1707 H 0.7617 0.56098 0.91643 0.0
H1708 H 0.68582 0.53093 0.86634 0.0
H1709 H 0.71656 0.49477 0.84062 0.0
C1710 C 0.77449 0.48522 0.84939 0.0
C1711 C 0.80477 0.48227 0.85624 0.0
C1712 C 0.75695 0.50653 0.86375 0.0
C1713 C 0.81731 0.50115 0.87768 0.0
C1714 C 0.79996 0.52252 0.89207 0.0
C1715 C 0.75189 0.54643 0.89998 0.0
C1716 C 0.7215 0.5489 0.89322 0.0
C1717 C 0.76969 0.52533 0.88537 0.0
C1718 C 0.70923 0.52999 0.87163 0.0
C1719 C 0.72675 0.5091 0.85703 0.0
H1720 H 0.24459 0.05179 0.57819 0.0
H1721 H 0.30839 0.05051 0.64958 0.0
H1722 H 0.27721 0.01629 0.67746 0.0
H1723 H 0.23335 0.98449 0.68043 0.0
H1724 H 0.16951 0.98514 0.60909 0.0
H1725 H 0.19942 0.02141 0.58215 0.0
C1726 C 0.25162 0.04402 0.59985 0.0
C1727 C 0.27874 0.05377 0.61178 0.0
C1728 C 0.23374 0.02401 0.61568 0.0
C1729 C 0.28741 0.04375 0.64005 0.0
C1730 C 0.26971 0.02397 0.65593 0.0
C1731 C 0.22573 0.99289 0.65919 0.0
C1732 C 0.19932 0.98198 0.64674 0.0
C1733 C 0.243 0.01373 0.64385 0.0
C1734 C 0.19 0.99282 0.61899 0.0
C1735 C 0.20701 0.01367 0.60362 0.0
H1736 H 0.70565 0.49608 0.31277 0.0
H1737 H 0.71622 0.56086 0.38274 0.0
H1738 H 0.74766 0.52679 0.41004 0.0
H1739 H 0.77432 0.4795 0.41352 0.0
H1740 H 0.76836 0.41646 0.34196 0.0
H1741 H 0.73346 0.44901 0.31572 0.0
C1742 C 0.71501 0.50296 0.33383 0.0
C1743 C 0.708 0.53111 0.3456 0.0
C1744 C 0.73409 0.48351 0.34921 0.0
C1745 C 0.72029 0.53919 0.37323 0.0
C1746 C 0.73864 0.51977 0.38888 0.0
C1747 C 0.76507 0.4728 0.39232 0.0
C1748 C 0.77361 0.4456 0.37974 0.0
C1749 C 0.74579 0.49197 0.37706 0.0
C1750 C 0.76199 0.43733 0.35203 0.0
C1751 C 0.74211 0.45594 0.33706 0.0
loop_
_geom_bond_atom_site_label_1
_geom_bond_atom_site_label_2
_geom_bond_distance
_geom_bond_site_symmetry_2
_ccdc_geom_bond_type
C0 C1 1.351 . S
C0 N3 1.368 . S
C0 H5 0.931 . S
C1 C0 1.351 . S
C1 N2 1.373 . S
C1 H29 0.930 . S
N2 C1 1.373 . S
N2 C4 1.340 . S
N3 C0 1.368 . S
N3 C4 1.321 . S
N3 Co6 2.135 . S
C4 N2 1.340 . S
C4 N3 1.321 . S
C4 H28 0.930 . S
H5 C0 0.931 . S
Co6 N3 2.135 . S
Co6 N9 2.121 . S
Co6 O14 2.055 . S
Co6 O17 2.039 . S
Co6 N20 2.140 . S
C7 O8 1.227 . S
C7 O17 1.265 . S
O8 C7 1.227 . S
N9 Co6 2.121 . S
N9 C11 1.375 . S
N9 C12 1.313 . S
C10 C11 1.338 . S
C10 N13 1.377 . S
C10 H30 0.930 . S
C11 N9 1.375 . S
C11 C10 1.338 . S
C11 H15 0.931 . S
C12 N9 1.313 . S
C12 N13 1.344 . S
C12 H16 0.930 . S
N13 C10 1.377 . S
N13 C12 1.344 . S
O14 Co6 2.055 . S
O14 C18 1.253 . S
H15 C11 0.931 . S
H16 C12 0.930 . S
O17 Co6 2.039 . S
O17 C7 1.265 . S
C18 O14 1.253 . S
C18 O19 1.227 . S
O19 C18 1.227 . S
N20 Co6 2.140 . S
N20 C23 1.346 . S
N20 C24 1.345 . S
C21 C22 1.387 . S
C21 C25 1.391 . S
C22 C21 1.387 . S
C22 C23 1.369 . S
C22 H31 0.929 . S
C23 N20 1.346 . S
C23 C22 1.369 . S
C23 H26 0.928 . S
C24 N20 1.345 . S
C24 C25 1.371 . S
C24 H27 0.931 . S
C25 C21 1.391 . S
C25 C24 1.371 . S
C25 H32 0.930 . S
H26 C23 0.928 . S
H27 C24 0.931 . S
H28 C4 0.930 . S
H29 C1 0.930 . S
H30 C10 0.930 . S
H31 C22 0.929 . S
H32 C25 0.930 . S
C33 C34 1.351 . S
C33 N36 1.368 . S
C33 H38 0.931 . S
C34 C33 1.351 . S
C34 N35 1.373 . S
C34 H62 0.930 . S
N35 C34 1.373 . S
N35 C37 1.340 . S
N36 C33 1.368 . S
N36 C37 1.321 . S
N36 Co39 2.135 . S
C37 N35 1.340 . S
C37 N36 1.321 . S
C37 H61 0.930 . S
H38 C33 0.931 . S
Co39 N36 2.135 . S
Co39 N42 2.121 . S
Co39 O47 2.055 . S
Co39 O50 2.039 . S
Co39 N53 2.140 . S
C40 O41 1.227 . S
C40 O50 1.265 . S
O41 C40 1.227 . S
N42 Co39 2.121 . S
N42 C44 1.375 . S
N42 C45 1.313 . S
C43 C44 1.338 . S
C43 N46 1.377 . S
C43 H63 0.930 . S
C44 N42 1.375 . S
C44 C43 1.338 . S
C44 H48 0.931 . S
C45 N42 1.313 . S
C45 N46 1.344 . S
C45 H49 0.930 . S
N46 C43 1.377 . S
N46 C45 1.344 . S
O47 Co39 2.055 . S
O47 C51 1.253 . S
H48 C44 0.931 . S
H49 C45 0.930 . S
O50 Co39 2.039 . S
O50 C40 1.265 . S
C51 O47 1.253 . S
C51 O52 1.227 . S
O52 C51 1.227 . S
N53 Co39 2.140 . S
N53 C56 1.346 . S
N53 C57 1.345 . S
C54 C55 1.387 . S
C54 C58 1.391 . S
C55 C54 1.387 . S
C55 C56 1.369 . S
C55 H64 0.929 . S
C56 N53 1.346 . S
C56 C55 1.369 . S
C56 H59 0.928 . S
C57 N53 1.345 . S
C57 C58 1.371 . S
C57 H60 0.931 . S
C58 C54 1.391 . S
C58 C57 1.371 . S
C58 H65 0.930 . S
H59 C56 0.928 . S
H60 C57 0.931 . S
H61 C37 0.930 . S
H62 C34 0.930 . S
H63 C43 0.930 . S
H64 C55 0.929 . S
H65 C58 0.930 . S
C66 C67 1.351 . S
C66 N69 1.368 . S
C66 H71 0.931 . S
C67 C66 1.351 . S
C67 N68 1.373 . S
C67 H95 0.930 . S
N68 C67 1.373 . S
N68 C70 1.340 . S
N69 C66 1.368 . S
N69 C70 1.321 . S
N69 Co72 2.135 . S
C70 N68 1.340 . S
C70 N69 1.321 . S
C70 H94 0.930 . S
H71 C66 0.931 . S
Co72 N69 2.135 . S
Co72 N75 2.121 . S
Co72 O80 2.055 . S
Co72 O83 2.039 . S
Co72 N86 2.140 . S
C73 O74 1.227 . S
C73 O83 1.265 . S
O74 C73 1.227 . S
N75 Co72 2.121 . S
N75 C77 1.375 . S
N75 C78 1.313 . S
C76 C77 1.338 . S
C76 N79 1.377 . S
C76 H96 0.930 . S
C77 N75 1.375 . S
C77 C76 1.338 . S
C77 H81 0.931 . S
C78 N75 1.313 . S
C78 N79 1.344 . S
C78 H82 0.930 . S
N79 C76 1.377 . S
N79 C78 1.344 . S
O80 Co72 2.055 . S
O80 C84 1.253 . S
H81 C77 0.931 . S
H82 C78 0.930 . S
O83 Co72 2.039 . S
O83 C73 1.265 . S
C84 O80 1.253 . S
C84 O85 1.227 . S
O85 C84 1.227 . S
N86 Co72 2.140 . S
N86 C89 1.346 . S
N86 C90 1.345 . S
C87 C88 1.387 . S
C87 C91 1.391 . S
C88 C87 1.387 . S
C88 C89 1.369 . S
C88 H97 0.929 . S
C89 N86 1.346 . S
C89 C88 1.369 . S
C89 H92 0.928 . S
C90 N86 1.345 . S
C90 C91 1.371 . S
C90 H93 0.931 . S
C91 C87 1.391 . S
C91 C90 1.371 . S
C91 H98 0.930 . S
H92 C89 0.928 . S
H93 C90 0.931 . S
H94 C70 0.930 . S
H95 C67 0.930 . S
H96 C76 0.930 . S
H97 C88 0.929 . S
H98 C91 0.930 . S
C99 C100 1.351 . S
C99 N102 1.368 . S
C99 H104 0.931 . S
C100 C99 1.351 . S
C100 N101 1.373 1_655 S
C100 H128 0.930 . S
N101 C100 1.373 1_455 S
N101 C103 1.340 . S
N102 C99 1.368 . S
N102 C103 1.321 1_655 S
N102 Co105 2.135 . S
C103 N101 1.340 . S
C103 N102 1.321 1_455 S
C103 H127 0.930 . S
H104 C99 0.931 . S
Co105 N102 2.135 . S
Co105 N108 2.121 . S
Co105 O113 2.055 . S
Co105 O116 2.039 . S
Co105 N119 2.140 . S
C106 O107 1.227 1_455 S
C106 O116 1.265 1_455 S
O107 C106 1.227 1_655 S
N108 Co105 2.121 . S
N108 C110 1.375 . S
N108 C111 1.313 . S
C109 C110 1.338 . S
C109 N112 1.377 . S
C109 H129 0.930 . S
C110 N108 1.375 . S
C110 C109 1.338 . S
C110 H114 0.931 . S
C111 N108 1.313 . S
C111 N112 1.344 . S
C111 H115 0.930 . S
N112 C109 1.377 . S
N112 C111 1.344 . S
O113 Co105 2.055 . S
O113 C117 1.253 . S
H114 C110 0.931 . S
H115 C111 0.930 . S
O116 Co105 2.039 . S
O116 C106 1.265 1_655 S
C117 O113 1.253 . S
C117 O118 1.227 . S
O118 C117 1.227 . S
N119 Co105 2.140 . S
N119 C122 1.346 . S
N119 C123 1.345 . S
C120 C121 1.387 . S
C120 C124 1.391 . S
C121 C120 1.387 . S
C121 C122 1.369 . S
C121 H130 0.929 . S
C122 N119 1.346 . S
C122 C121 1.369 . S
C122 H125 0.928 . S
C123 N119 1.345 . S
C123 C124 1.371 . S
C123 H126 0.931 . S
C124 C120 1.391 . S
C124 C123 1.371 . S
C124 H131 0.930 . S
H125 C122 0.928 . S
H126 C123 0.931 . S
H127 C103 0.930 . S
H128 C100 0.930 . S
H129 C109 0.930 . S
H130 C121 0.929 . S
H131 C124 0.930 . S
C132 C133 1.351 . S
C132 N135 1.368 . S
C132 H137 0.931 . S
C133 C132 1.351 . S
C133 N134 1.373 . S
C133 H161 0.930 . S
N134 C133 1.373 . S
N134 C136 1.340 . S
N135 C132 1.368 . S
N135 C136 1.321 . S
N135 Co138 2.135 . S
C136 N134 1.340 . S
C136 N135 1.321 . S
C136 H160 0.930 . S
H137 C132 0.931 . S
Co138 N135 2.135 . S
Co138 N141 2.121 . S
Co138 O146 2.055 . S
Co138 O149 2.039 . S
Co138 N152 2.140 . S
C139 O140 1.227 . S
C139 O149 1.265 . S
O140 C139 1.227 . S
N141 Co138 2.121 . S
N141 C143 1.375 . S
N141 C144 1.313 . S
C142 C143 1.338 . S
C142 N145 1.377 . S
C142 H162 0.930 . S
C143 N141 1.375 . S
C143 C142 1.338 . S
C143 H147 0.931 . S
C144 N141 1.313 . S
C144 N145 1.344 . S
C144 H148 0.930 . S
N145 C142 1.377 . S
N145 C144 1.344 . S
O146 Co138 2.055 . S
O146 C150 1.253 . S
H147 C143 0.931 . S
H148 C144 0.930 . S
O149 Co138 2.039 . S
O149 C139 1.265 . S
C150 O146 1.253 . S
C150 O151 1.227 . S
O151 C150 1.227 . S
N152 Co138 2.140 . S
N152 C155 1.346 . S
N152 C156 1.345 . S
C153 C154 1.387 . S
C153 C157 1.391 . S
C154 C153 1.387 . S
C154 C155 1.369 . S
C154 H163 0.929 . S
C155 N152 1.346 . S
C155 C154 1.369 . S
C155 H158 0.928 . S
C156 N152 1.345 . S
C156 C157 1.371 . S
C156 H159 0.931 . S
C157 C153 1.391 . S
C157 C156 1.371 . S
C157 H164 0.930 . S
H158 C155 0.928 . S
H159 C156 0.931 . S
H160 C136 0.930 . S
H161 C133 0.930 . S
H162 C142 0.930 . S
H163 C154 0.929 . S
H164 C157 0.930 . S
C165 C166 1.351 . S
C165 N168 1.368 . S
C165 H170 0.931 . S
C166 C165 1.351 . S
C166 N167 1.373 . S
C166 H194 0.930 . S
N167 C166 1.373 . S
N167 C169 1.340 . S
N168 C165 1.368 . S
N168 C169 1.321 . S
N168 Co171 2.135 . S
C169 N167 1.340 . S
C169 N168 1.321 . S
C169 H193 0.930 . S
H170 C165 0.931 . S
Co171 N168 2.135 . S
Co171 N174 2.121 . S
Co171 O179 2.055 . S
Co171 O182 2.039 . S
Co171 N185 2.140 . S
C172 O173 1.227 . S
C172 O182 1.265 . S
O173 C172 1.227 . S
N174 Co171 2.121 . S
N174 C176 1.375 . S
N174 C177 1.313 . S
C175 C176 1.338 . S
C175 N178 1.377 . S
C175 H195 0.930 . S
C176 N174 1.375 . S
C176 C175 1.338 . S
C176 H180 0.931 . S
C177 N174 1.313 . S
C177 N178 1.344 . S
C177 H181 0.930 . S
N178 C175 1.377 . S
N178 C177 1.344 . S
O179 Co171 2.055 . S
O179 C183 1.253 . S
H180 C176 0.931 . S
H181 C177 0.930 . S
O182 Co171 2.039 . S
O182 C172 1.265 . S
C183 O179 1.253 . S
C183 O184 1.227 . S
O184 C183 1.227 . S
N185 Co171 2.140 . S
N185 C188 1.346 . S
N185 C189 1.345 . S
C186 C187 1.387 . S
C186 C190 1.391 . S
C187 C186 1.387 . S
C187 C188 1.369 . S
C187 H196 0.929 . S
C188 N185 1.346 . S
C188 C187 1.369 . S
C188 H191 0.928 . S
C189 N185 1.345 . S
C189 C190 1.371 . S
C189 H192 0.931 . S
C190 C186 1.391 . S
C190 C189 1.371 . S
C190 H197 0.930 . S
H191 C188 0.928 . S
H192 C189 0.931 . S
H193 C169 0.930 . S
H194 C166 0.930 . S
H195 C175 0.930 . S
H196 C187 0.929 . S
H197 C190 0.930 . S
C198 C199 1.351 . S
C198 N201 1.368 . S
C198 H203 0.931 . S
C199 C198 1.351 . S
C199 N200 1.373 . S
C199 H227 0.930 . S
N200 C199 1.373 . S
N200 C202 1.340 . S
N201 C198 1.368 . S
N201 C202 1.321 . S
N201 Co204 2.135 . S
C202 N200 1.340 . S
C202 N201 1.321 . S
C202 H226 0.930 . S
H203 C198 0.931 . S
Co204 N201 2.135 . S
Co204 N207 2.121 . S
Co204 O212 2.055 . S
Co204 O215 2.039 . S
Co204 N218 2.140 . S
C205 O206 1.227 . S
C205 O215 1.265 . S
O206 C205 1.227 . S
N207 Co204 2.121 . S
N207 C209 1.375 . S
N207 C210 1.313 . S
C208 C209 1.338 . S
C208 N211 1.377 . S
C208 H228 0.930 . S
C209 N207 1.375 . S
C209 C208 1.338 . S
C209 H213 0.931 . S
C210 N207 1.313 . S
C210 N211 1.344 . S
C210 H214 0.930 . S
N211 C208 1.377 . S
N211 C210 1.344 . S
O212 Co204 2.055 . S
O212 C216 1.253 . S
H213 C209 0.931 . S
H214 C210 0.930 . S
O215 Co204 2.039 . S
O215 C205 1.265 . S
C216 O212 1.253 . S
C216 O217 1.227 . S
O217 C216 1.227 . S
N218 Co204 2.140 . S
N218 C221 1.346 . S
N218 C222 1.345 . S
C219 C220 1.387 . S
C219 C223 1.391 . S
C220 C219 1.387 . S
C220 C221 1.369 . S
C220 H229 0.929 . S
C221 N218 1.346 . S
C221 C220 1.369 . S
C221 H224 0.928 . S
C222 N218 1.345 . S
C222 C223 1.371 . S
C222 H225 0.931 . S
C223 C219 1.391 . S
C223 C222 1.371 . S
C223 H230 0.930 . S
H224 C221 0.928 . S
H225 C222 0.931 . S
H226 C202 0.930 . S
H227 C199 0.930 . S
H228 C208 0.930 . S
H229 C220 0.929 . S
H230 C223 0.930 . S
C231 C232 1.351 . S
C231 N234 1.368 . S
C231 H236 0.931 . S
C232 C231 1.351 . S
C232 N233 1.373 1_455 S
C232 H260 0.930 . S
N233 C232 1.373 1_655 S
N233 C235 1.340 . S
N234 C231 1.368 . S
N234 C235 1.321 1_455 S
N234 Co237 2.135 . S
C235 N233 1.340 . S
C235 N234 1.321 1_655 S
C235 H259 0.930 . S
H236 C231 0.931 . S
Co237 N234 2.135 . S
Co237 N240 2.121 . S
Co237 O245 2.055 . S
Co237 O248 2.039 . S
Co237 N251 2.140 . S
C238 O239 1.227 1_655 S
C238 O248 1.265 1_655 S
O239 C238 1.227 1_455 S
N240 Co237 2.121 . S
N240 C242 1.375 . S
N240 C243 1.313 . S
C241 C242 1.338 . S
C241 N244 1.377 . S
C241 H261 0.930 . S
C242 N240 1.375 . S
C242 C241 1.338 . S
C242 H246 0.931 . S
C243 N240 1.313 . S
C243 N244 1.344 . S
C243 H247 0.930 . S
N244 C241 1.377 . S
N244 C243 1.344 . S
O245 Co237 2.055 . S
O245 C249 1.253 . S
H246 C242 0.931 . S
H247 C243 0.930 . S
O248 Co237 2.039 . S
O248 C238 1.265 1_455 S
C249 O245 1.253 . S
C249 O250 1.227 . S
O250 C249 1.227 . S
N251 Co237 2.140 . S
N251 C254 1.346 . S
N251 C255 1.345 . S
C252 C253 1.387 . S
C252 C256 1.391 . S
C253 C252 1.387 . S
C253 C254 1.369 . S
C253 H262 0.929 . S
C254 N251 1.346 . S
C254 C253 1.369 . S
C254 H257 0.928 . S
C255 N251 1.345 . S
C255 C256 1.371 . S
C255 H258 0.931 . S
C256 C252 1.391 . S
C256 C255 1.371 . S
C256 H263 0.930 . S
H257 C254 0.928 . S
H258 C255 0.931 . S
H259 C235 0.930 . S
H260 C232 0.930 . S
H261 C241 0.930 . S
H262 C253 0.929 . S
H263 C256 0.930 . S
C264 C265 1.351 . S
C264 N267 1.368 . S
C264 H269 0.931 . S
C265 C264 1.351 . S
C265 N266 1.373 . S
C265 H293 0.930 . S
N266 C265 1.373 . S
N266 C268 1.340 . S
N267 C264 1.368 . S
N267 C268 1.321 . S
N267 Co270 2.135 . S
C268 N266 1.340 . S
C268 N267 1.321 . S
C268 H292 0.930 . S
H269 C264 0.931 . S
Co270 N267 2.135 . S
Co270 N273 2.121 . S
Co270 O278 2.055 . S
Co270 O281 2.039 . S
Co270 N284 2.140 . S
C271 O272 1.227 . S
C271 O281 1.265 . S
O272 C271 1.227 . S
N273 Co270 2.121 . S
N273 C275 1.375 . S
N273 C276 1.313 . S
C274 C275 1.338 . S
C274 N277 1.377 . S
C274 H294 0.930 . S
C275 N273 1.375 . S
C275 C274 1.338 . S
C275 H279 0.931 . S
C276 N273 1.313 . S
C276 N277 1.344 . S
C276 H280 0.930 . S
N277 C274 1.377 . S
N277 C276 1.344 . S
O278 Co270 2.055 . S
O278 C282 1.253 . S
H279 C275 0.931 . S
H280 C276 0.930 . S
O281 Co270 2.039 . S
O281 C271 1.265 . S
C282 O278 1.253 . S
C282 O283 1.227 . S
O283 C282 1.227 . S
N284 Co270 2.140 . S
N284 C287 1.346 . S
N284 C288 1.345 . S
C285 C286 1.387 . S
C285 C289 1.391 . S
C286 C285 1.387 . S
C286 C287 1.369 . S
C286 H295 0.929 . S
C287 N284 1.346 . S
C287 C286 1.369 . S
C287 H290 0.928 . S
C288 N284 1.345 . S
C288 C289 1.371 . S
C288 H291 0.931 . S
C289 C285 1.391 . S
C289 C288 1.371 . S
C289 H296 0.930 . S
H290 C287 0.928 . S
H291 C288 0.931 . S
H292 C268 0.930 . S
H293 C265 0.930 . S
H294 C274 0.930 . S
H295 C286 0.929 . S
H296 C289 0.930 . S
C297 C298 1.351 . S
C297 N300 1.368 . S
C297 H302 0.931 . S
C298 C297 1.351 . S
C298 N299 1.373 1_556 S
C298 H326 0.930 . S
N299 C298 1.373 1_554 S
N299 C301 1.340 . S
N300 C297 1.368 . S
N300 C301 1.321 1_556 S
N300 Co303 2.135 . S
C301 N299 1.340 . S
C301 N300 1.321 1_554 S
C301 H325 0.930 . S
H302 C297 0.931 . S
Co303 N300 2.135 . S
Co303 N306 2.121 . S
Co303 O311 2.055 . S
Co303 O314 2.039 . S
Co303 N317 2.140 . S
C304 O305 1.227 1_554 S
C304 O314 1.265 1_554 S
O305 C304 1.227 1_556 S
N306 Co303 2.121 . S
N306 C308 1.375 . S
N306 C309 1.313 . S
C307 C308 1.338 . S
C307 N310 1.377 . S
C307 H327 0.930 . S
C308 N306 1.375 . S
C308 C307 1.338 . S
C308 H312 0.931 . S
C309 N306 1.313 . S
C309 N310 1.344 . S
C309 H313 0.930 . S
N310 C307 1.377 . S
N310 C309 1.344 . S
O311 Co303 2.055 . S
O311 C315 1.253 . S
H312 C308 0.931 . S
H313 C309 0.930 . S
O314 Co303 2.039 . S
O314 C304 1.265 1_556 S
C315 O311 1.253 . S
C315 O316 1.227 . S
O316 C315 1.227 . S
N317 Co303 2.140 . S
N317 C320 1.346 . S
N317 C321 1.345 . S
C318 C319 1.387 . S
C318 C322 1.391 . S
C319 C318 1.387 . S
C319 C320 1.369 . S
C319 H328 0.929 . S
C320 N317 1.346 . S
C320 C319 1.369 . S
C320 H323 0.928 . S
C321 N317 1.345 . S
C321 C322 1.371 . S
C321 H324 0.931 . S
C322 C318 1.391 . S
C322 C321 1.371 . S
C322 H329 0.930 . S
H323 C320 0.928 . S
H324 C321 0.931 . S
H325 C301 0.930 . S
H326 C298 0.930 . S
H327 C307 0.930 . S
H328 C319 0.929 . S
H329 C322 0.930 . S
C330 C331 1.351 . S
C330 N333 1.368 . S
C330 H335 0.931 . S
C331 C330 1.351 . S
C331 N332 1.373 . S
C331 H359 0.930 . S
N332 C331 1.373 . S
N332 C334 1.340 . S
N333 C330 1.368 . S
N333 C334 1.321 . S
N333 Co336 2.135 . S
C334 N332 1.340 . S
C334 N333 1.321 . S
C334 H358 0.930 . S
H335 C330 0.931 . S
Co336 N333 2.135 . S
Co336 N339 2.121 . S
Co336 O344 2.055 . S
Co336 O347 2.039 . S
Co336 N350 2.140 . S
C337 O338 1.227 . S
C337 O347 1.265 . S
O338 C337 1.227 . S
N339 Co336 2.121 . S
N339 C341 1.375 . S
N339 C342 1.313 . S
C340 C341 1.338 . S
C340 N343 1.377 . S
C340 H360 0.930 . S
C341 N339 1.375 . S
C341 C340 1.338 . S
C341 H345 0.931 . S
C342 N339 1.313 . S
C342 N343 1.344 . S
C342 H346 0.930 . S
N343 C340 1.377 . S
N343 C342 1.344 . S
O344 Co336 2.055 . S
O344 C348 1.253 . S
H345 C341 0.931 . S
H346 C342 0.930 . S
O347 Co336 2.039 . S
O347 C337 1.265 . S
C348 O344 1.253 . S
C348 O349 1.227 . S
O349 C348 1.227 . S
N350 Co336 2.140 . S
N350 C353 1.346 . S
N350 C354 1.345 . S
C351 C352 1.387 . S
C351 C355 1.391 . S
C352 C351 1.387 . S
C352 C353 1.369 . S
C352 H361 0.929 . S
C353 N350 1.346 . S
C353 C352 1.369 . S
C353 H356 0.928 . S
C354 N350 1.345 . S
C354 C355 1.371 . S
C354 H357 0.931 . S
C355 C351 1.391 . S
C355 C354 1.371 . S
C355 H362 0.930 . S
H356 C353 0.928 . S
H357 C354 0.931 . S
H358 C334 0.930 . S
H359 C331 0.930 . S
H360 C340 0.930 . S
H361 C352 0.929 . S
H362 C355 0.930 . S
C363 C364 1.351 . S
C363 N366 1.368 . S
C363 H368 0.931 . S
C364 C363 1.351 . S
C364 N365 1.373 . S
C364 H392 0.930 . S
N365 C364 1.373 . S
N365 C367 1.340 . S
N366 C363 1.368 . S
N366 C367 1.321 . S
N366 Co369 2.135 . S
C367 N365 1.340 . S
C367 N366 1.321 . S
C367 H391 0.930 . S
H368 C363 0.931 . S
Co369 N366 2.135 . S
Co369 N372 2.121 . S
Co369 O377 2.055 . S
Co369 O380 2.039 . S
Co369 N383 2.140 . S
C370 O371 1.227 . S
C370 O380 1.265 . S
O371 C370 1.227 . S
N372 Co369 2.121 . S
N372 C374 1.375 . S
N372 C375 1.313 . S
C373 C374 1.338 . S
C373 N376 1.377 . S
C373 H393 0.930 . S
C374 N372 1.375 . S
C374 C373 1.338 . S
C374 H378 0.931 . S
C375 N372 1.313 . S
C375 N376 1.344 . S
C375 H379 0.930 . S
N376 C373 1.377 . S
N376 C375 1.344 . S
O377 Co369 2.055 . S
O377 C381 1.253 . S
H378 C374 0.931 . S
H379 C375 0.930 . S
O380 Co369 2.039 . S
O380 C370 1.265 . S
C381 O377 1.253 . S
C381 O382 1.227 . S
O382 C381 1.227 . S
N383 Co369 2.140 . S
N383 C386 1.346 . S
N383 C387 1.345 . S
C384 C385 1.387 . S
C384 C388 1.391 . S
C385 C384 1.387 . S
C385 C386 1.369 . S
C385 H394 0.929 . S
C386 N383 1.346 . S
C386 C385 1.369 . S
C386 H389 0.928 . S
C387 N383 1.345 . S
C387 C388 1.371 . S
C387 H390 0.931 . S
C388 C384 1.391 . S
C388 C387 1.371 . S
C388 H395 0.930 . S
H389 C386 0.928 . S
H390 C387 0.931 . S
H391 C367 0.930 . S
H392 C364 0.930 . S
H393 C373 0.930 . S
H394 C385 0.929 . S
H395 C388 0.930 . S
C396 C397 1.351 . S
C396 N399 1.368 . S
C396 H401 0.931 . S
C397 C396 1.351 . S
C397 N398 1.373 . S
C397 H425 0.930 . S
N398 C397 1.373 . S
N398 C400 1.340 . S
N399 C396 1.368 . S
N399 C400 1.321 . S
N399 Co402 2.135 . S
C400 N398 1.340 . S
C400 N399 1.321 . S
C400 H424 0.930 . S
H401 C396 0.931 . S
Co402 N399 2.135 . S
Co402 N405 2.121 . S
Co402 O410 2.055 . S
Co402 O413 2.039 . S
Co402 N416 2.140 . S
C403 O404 1.227 . S
C403 O413 1.265 . S
O404 C403 1.227 . S
N405 Co402 2.121 . S
N405 C407 1.375 . S
N405 C408 1.313 . S
C406 C407 1.338 . S
C406 N409 1.377 . S
C406 H426 0.930 . S
C407 N405 1.375 . S
C407 C406 1.338 . S
C407 H411 0.931 . S
C408 N405 1.313 . S
C408 N409 1.344 . S
C408 H412 0.930 . S
N409 C406 1.377 . S
N409 C408 1.344 . S
O410 Co402 2.055 . S
O410 C414 1.253 . S
H411 C407 0.931 . S
H412 C408 0.930 . S
O413 Co402 2.039 . S
O413 C403 1.265 . S
C414 O410 1.253 . S
C414 O415 1.227 . S
O415 C414 1.227 . S
N416 Co402 2.140 . S
N416 C419 1.346 . S
N416 C420 1.345 . S
C417 C418 1.387 . S
C417 C421 1.391 . S
C418 C417 1.387 . S
C418 C419 1.369 . S
C418 H427 0.929 . S
C419 N416 1.346 . S
C419 C418 1.369 . S
C419 H422 0.928 . S
C420 N416 1.345 . S
C420 C421 1.371 . S
C420 H423 0.931 . S
C421 C417 1.391 . S
C421 C420 1.371 . S
C421 H428 0.930 . S
H422 C419 0.928 . S
H423 C420 0.931 . S
H424 C400 0.930 . S
H425 C397 0.930 . S
H426 C406 0.930 . S
H427 C418 0.929 . S
H428 C421 0.930 . S
C429 C430 1.351 . S
C429 N432 1.368 . S
C429 H434 0.931 . S
C430 C429 1.351 . S
C430 N431 1.373 . S
C430 H458 0.930 . S
N431 C430 1.373 . S
N431 C433 1.340 . S
N432 C429 1.368 . S
N432 C433 1.321 . S
N432 Co435 2.135 . S
C433 N431 1.340 . S
C433 N432 1.321 . S
C433 H457 0.930 . S
H434 C429 0.931 . S
Co435 N432 2.135 . S
Co435 N438 2.121 . S
Co435 O443 2.055 . S
Co435 O446 2.039 . S
Co435 N449 2.140 . S
C436 O437 1.227 . S
C436 O446 1.265 . S
O437 C436 1.227 . S
N438 Co435 2.121 . S
N438 C440 1.375 . S
N438 C441 1.313 . S
C439 C440 1.338 . S
C439 N442 1.377 . S
C439 H459 0.930 . S
C440 N438 1.375 . S
C440 C439 1.338 . S
C440 H444 0.931 . S
C441 N438 1.313 . S
C441 N442 1.344 . S
C441 H445 0.930 . S
N442 C439 1.377 . S
N442 C441 1.344 . S
O443 Co435 2.055 . S
O443 C447 1.253 . S
H444 C440 0.931 . S
H445 C441 0.930 . S
O446 Co435 2.039 . S
O446 C436 1.265 . S
C447 O443 1.253 . S
C447 O448 1.227 . S
O448 C447 1.227 . S
N449 Co435 2.140 . S
N449 C452 1.346 . S
N449 C453 1.345 . S
C450 C451 1.387 . S
C450 C454 1.391 . S
C451 C450 1.387 . S
C451 C452 1.369 . S
C451 H460 0.929 . S
C452 N449 1.346 . S
C452 C451 1.369 . S
C452 H455 0.928 . S
C453 N449 1.345 . S
C453 C454 1.371 . S
C453 H456 0.931 . S
C454 C450 1.391 . S
C454 C453 1.371 . S
C454 H461 0.930 . S
H455 C452 0.928 . S
H456 C453 0.931 . S
H457 C433 0.930 . S
H458 C430 0.930 . S
H459 C439 0.930 . S
H460 C451 0.929 . S
H461 C454 0.930 . S
C462 C463 1.351 . S
C462 N465 1.368 . S
C462 H467 0.931 . S
C463 C462 1.351 . S
C463 N464 1.373 . S
C463 H491 0.930 . S
N464 C463 1.373 . S
N464 C466 1.340 . S
N465 C462 1.368 . S
N465 C466 1.321 . S
N465 Co468 2.135 . S
C466 N464 1.340 . S
C466 N465 1.321 . S
C466 H490 0.930 . S
H467 C462 0.931 . S
Co468 N465 2.135 . S
Co468 N471 2.121 . S
Co468 O476 2.055 . S
Co468 O479 2.039 . S
Co468 N482 2.140 . S
C469 O470 1.227 . S
C469 O479 1.265 . S
O470 C469 1.227 . S
N471 Co468 2.121 . S
N471 C473 1.375 . S
N471 C474 1.313 . S
C472 C473 1.338 . S
C472 N475 1.377 . S
C472 H492 0.930 . S
C473 N471 1.375 . S
C473 C472 1.338 . S
C473 H477 0.931 . S
C474 N471 1.313 . S
C474 N475 1.344 . S
C474 H478 0.930 . S
N475 C472 1.377 . S
N475 C474 1.344 . S
O476 Co468 2.055 . S
O476 C480 1.253 . S
H477 C473 0.931 . S
H478 C474 0.930 . S
O479 Co468 2.039 . S
O479 C469 1.265 . S
C480 O476 1.253 . S
C480 O481 1.227 . S
O481 C480 1.227 . S
N482 Co468 2.140 . S
N482 C485 1.346 . S
N482 C486 1.345 . S
C483 C484 1.387 . S
C483 C487 1.391 . S
C484 C483 1.387 . S
C484 C485 1.369 . S
C484 H493 0.929 . S
C485 N482 1.346 . S
C485 C484 1.369 . S
C485 H488 0.928 . S
C486 N482 1.345 . S
C486 C487 1.371 . S
C486 H489 0.931 . S
C487 C483 1.391 . S
C487 C486 1.371 . S
C487 H494 0.930 . S
H488 C485 0.928 . S
H489 C486 0.931 . S
H490 C466 0.930 . S
H491 C463 0.930 . S
H492 C472 0.930 . S
H493 C484 0.929 . S
H494 C487 0.930 . S
C495 C496 1.351 . S
C495 N498 1.368 . S
C495 H500 0.931 . S
C496 C495 1.351 . S
C496 N497 1.373 1_554 S
C496 H524 0.930 . S
N497 C496 1.373 1_556 S
N497 C499 1.340 . S
N498 C495 1.368 . S
N498 C499 1.321 1_554 S
N498 Co501 2.135 . S
C499 N497 1.340 . S
C499 N498 1.321 1_556 S
C499 H523 0.930 . S
H500 C495 0.931 . S
Co501 N498 2.135 . S
Co501 N504 2.121 . S
Co501 O509 2.055 . S
Co501 O512 2.039 . S
Co501 N515 2.140 . S
C502 O503 1.227 1_556 S
C502 O512 1.265 1_556 S
O503 C502 1.227 1_554 S
N504 Co501 2.121 . S
N504 C506 1.375 . S
N504 C507 1.313 . S
C505 C506 1.338 . S
C505 N508 1.377 . S
C505 H525 0.930 . S
C506 N504 1.375 . S
C506 C505 1.338 . S
C506 H510 0.931 . S
C507 N504 1.313 . S
C507 N508 1.344 . S
C507 H511 0.930 . S
N508 C505 1.377 . S
N508 C507 1.344 . S
O509 Co501 2.055 . S
O509 C513 1.253 . S
H510 C506 0.931 . S
H511 C507 0.930 . S
O512 Co501 2.039 . S
O512 C502 1.265 1_554 S
C513 O509 1.253 . S
C513 O514 1.227 . S
O514 C513 1.227 . S
N515 Co501 2.140 . S
N515 C518 1.346 . S
N515 C519 1.345 . S
C516 C517 1.387 . S
C516 C520 1.391 . S
C517 C516 1.387 . S
C517 C518 1.369 . S
C517 H526 0.929 . S
C518 N515 1.346 . S
C518 C517 1.369 . S
C518 H521 0.928 . S
C519 N515 1.345 . S
C519 C520 1.371 . S
C519 H522 0.931 . S
C520 C516 1.391 . S
C520 C519 1.371 . S
C520 H527 0.930 . S
H521 C518 0.928 . S
H522 C519 0.931 . S
H523 C499 0.930 . S
H524 C496 0.930 . S
H525 C505 0.930 . S
H526 C517 0.929 . S
H527 C520 0.930 . S
C528 C529 1.351 . S
C528 N531 1.368 . S
C528 H533 0.931 . S
C529 C528 1.351 . S
C529 N530 1.373 . S
C529 H557 0.930 . S
N530 C529 1.373 . S
N530 C532 1.340 . S
N531 C528 1.368 . S
N531 C532 1.321 . S
N531 Co534 2.135 . S
C532 N530 1.340 . S
C532 N531 1.321 . S
C532 H556 0.930 . S
H533 C528 0.931 . S
Co534 N531 2.135 . S
Co534 N537 2.121 . S
Co534 O542 2.055 . S
Co534 O545 2.039 . S
Co534 N548 2.140 . S
C535 O536 1.227 . S
C535 O545 1.265 . S
O536 C535 1.227 . S
N537 Co534 2.121 . S
N537 C539 1.375 . S
N537 C540 1.313 . S
C538 C539 1.338 . S
C538 N541 1.377 . S
C538 H558 0.930 . S
C539 N537 1.375 . S
C539 C538 1.338 . S
C539 H543 0.931 . S
C540 N537 1.313 . S
C540 N541 1.344 . S
C540 H544 0.930 . S
N541 C538 1.377 . S
N541 C540 1.344 . S
O542 Co534 2.055 . S
O542 C546 1.253 . S
H543 C539 0.931 . S
H544 C540 0.930 . S
O545 Co534 2.039 . S
O545 C535 1.265 . S
C546 O542 1.253 . S
C546 O547 1.227 . S
O547 C546 1.227 . S
N548 Co534 2.140 . S
N548 C551 1.346 . S
N548 C552 1.345 . S
C549 C550 1.387 . S
C549 C553 1.391 . S
C550 C549 1.387 . S
C550 C551 1.369 . S
C550 H559 0.929 . S
C551 N548 1.346 . S
C551 C550 1.369 . S
C551 H554 0.928 . S
C552 N548 1.345 . S
C552 C553 1.371 . S
C552 H555 0.931 . S
C553 C549 1.391 . S
C553 C552 1.371 . S
C553 H560 0.930 . S
H554 C551 0.928 . S
H555 C552 0.931 . S
H556 C532 0.930 . S
H557 C529 0.930 . S
H558 C538 0.930 . S
H559 C550 0.929 . S
H560 C553 0.930 . S
C561 C562 1.351 . S
C561 N564 1.368 . S
C561 H566 0.931 . S
C562 C561 1.351 . S
C562 N563 1.373 . S
C562 H590 0.930 . S
N563 C562 1.373 . S
N563 C565 1.340 . S
N564 C561 1.368 . S
N564 C565 1.321 . S
N564 Co567 2.135 . S
C565 N563 1.340 . S
C565 N564 1.321 . S
C565 H589 0.930 . S
H566 C561 0.931 . S
Co567 N564 2.135 . S
Co567 N570 2.121 . S
Co567 O575 2.055 . S
Co567 O578 2.039 . S
Co567 N581 2.140 . S
C568 O569 1.227 . S
C568 O578 1.265 . S
O569 C568 1.227 . S
N570 Co567 2.121 . S
N570 C572 1.375 . S
N570 C573 1.313 . S
C571 C572 1.338 . S
C571 N574 1.377 . S
C571 H591 0.930 . S
C572 N570 1.375 . S
C572 C571 1.338 . S
C572 H576 0.931 . S
C573 N570 1.313 . S
C573 N574 1.344 . S
C573 H577 0.930 . S
N574 C571 1.377 . S
N574 C573 1.344 . S
O575 Co567 2.055 . S
O575 C579 1.253 . S
H576 C572 0.931 . S
H577 C573 0.930 . S
O578 Co567 2.039 . S
O578 C568 1.265 . S
C579 O575 1.253 . S
C579 O580 1.227 . S
O580 C579 1.227 . S
N581 Co567 2.140 . S
N581 C584 1.346 . S
N581 C585 1.345 . S
C582 C583 1.387 . S
C582 C586 1.391 . S
C583 C582 1.387 . S
C583 C584 1.369 . S
C583 H592 0.929 . S
C584 N581 1.346 . S
C584 C583 1.369 . S
C584 H587 0.928 . S
C585 N581 1.345 . S
C585 C586 1.371 . S
C585 H588 0.931 . S
C586 C582 1.391 . S
C586 C585 1.371 . S
C586 H593 0.930 . S
H587 C584 0.928 . S
H588 C585 0.931 . S
H589 C565 0.930 . S
H590 C562 0.930 . S
H591 C571 0.930 . S
H592 C583 0.929 . S
H593 C586 0.930 . S
C594 C595 1.351 . S
C594 N597 1.368 . S
C594 H599 0.931 . S
C595 C594 1.351 . S
C595 N596 1.373 1_565 S
C595 H623 0.930 . S
N596 C595 1.373 1_545 S
N596 C598 1.340 . S
N597 C594 1.368 . S
N597 C598 1.321 1_565 S
N597 Co600 2.135 . S
C598 N596 1.340 . S
C598 N597 1.321 1_545 S
C598 H622 0.930 . S
H599 C594 0.931 . S
Co600 N597 2.135 . S
Co600 N603 2.121 . S
Co600 O608 2.055 . S
Co600 O611 2.039 . S
Co600 N614 2.140 . S
C601 O602 1.227 1_545 S
C601 O611 1.265 1_545 S
O602 C601 1.227 1_565 S
N603 Co600 2.121 . S
N603 C605 1.375 . S
N603 C606 1.313 . S
C604 C605 1.338 . S
C604 N607 1.377 . S
C604 H624 0.930 . S
C605 N603 1.375 . S
C605 C604 1.338 . S
C605 H609 0.931 . S
C606 N603 1.313 . S
C606 N607 1.344 . S
C606 H610 0.930 . S
N607 C604 1.377 . S
N607 C606 1.344 . S
O608 Co600 2.055 . S
O608 C612 1.253 . S
H609 C605 0.931 . S
H610 C606 0.930 . S
O611 Co600 2.039 . S
O611 C601 1.265 1_565 S
C612 O608 1.253 . S
C612 O613 1.227 . S
O613 C612 1.227 . S
N614 Co600 2.140 . S
N614 C617 1.346 . S
N614 C618 1.345 . S
C615 C616 1.387 . S
C615 C619 1.391 . S
C616 C615 1.387 . S
C616 C617 1.369 . S
C616 H625 0.929 . S
C617 N614 1.346 . S
C617 C616 1.369 . S
C617 H620 0.928 . S
C618 N614 1.345 . S
C618 C619 1.371 . S
C618 H621 0.931 . S
C619 C615 1.391 . S
C619 C618 1.371 . S
C619 H626 0.930 . S
H620 C617 0.928 . S
H621 C618 0.931 . S
H622 C598 0.930 . S
H623 C595 0.930 . S
H624 C604 0.930 . S
H625 C616 0.929 . S
H626 C619 0.930 . S
C627 C628 1.351 . S
C627 N630 1.368 . S
C627 H632 0.931 . S
C628 C627 1.351 . S
C628 N629 1.373 . S
C628 H656 0.930 . S
N629 C628 1.373 . S
N629 C631 1.340 . S
N630 C627 1.368 . S
N630 C631 1.321 . S
N630 Co633 2.135 . S
C631 N629 1.340 . S
C631 N630 1.321 . S
C631 H655 0.930 . S
H632 C627 0.931 . S
Co633 N630 2.135 . S
Co633 N636 2.121 . S
Co633 O641 2.055 . S
Co633 O644 2.039 . S
Co633 N647 2.140 . S
C634 O635 1.227 . S
C634 O644 1.265 . S
O635 C634 1.227 . S
N636 Co633 2.121 . S
N636 C638 1.375 . S
N636 C639 1.313 . S
C637 C638 1.338 . S
C637 N640 1.377 . S
C637 H657 0.930 . S
C638 N636 1.375 . S
C638 C637 1.338 . S
C638 H642 0.931 . S
C639 N636 1.313 . S
C639 N640 1.344 . S
C639 H643 0.930 . S
N640 C637 1.377 . S
N640 C639 1.344 . S
O641 Co633 2.055 . S
O641 C645 1.253 . S
H642 C638 0.931 . S
H643 C639 0.930 . S
O644 Co633 2.039 . S
O644 C634 1.265 . S
C645 O641 1.253 . S
C645 O646 1.227 . S
O646 C645 1.227 . S
N647 Co633 2.140 . S
N647 C650 1.346 . S
N647 C651 1.345 . S
C648 C649 1.387 . S
C648 C652 1.391 . S
C649 C648 1.387 . S
C649 C650 1.369 . S
C649 H658 0.929 . S
C650 N647 1.346 . S
C650 C649 1.369 . S
C650 H653 0.928 . S
C651 N647 1.345 . S
C651 C652 1.371 . S
C651 H654 0.931 . S
C652 C648 1.391 . S
C652 C651 1.371 . S
C652 H659 0.930 . S
H653 C650 0.928 . S
H654 C651 0.931 . S
H655 C631 0.930 . S
H656 C628 0.930 . S
H657 C637 0.930 . S
H658 C649 0.929 . S
H659 C652 0.930 . S
C660 C661 1.351 . S
C660 N663 1.368 . S
C660 H665 0.931 . S
C661 C660 1.351 . S
C661 N662 1.373 1_545 S
C661 H689 0.930 . S
N662 C661 1.373 1_565 S
N662 C664 1.340 . S
N663 C660 1.368 . S
N663 C664 1.321 1_545 S
N663 Co666 2.135 . S
C664 N662 1.340 . S
C664 N663 1.321 1_565 S
C664 H688 0.930 . S
H665 C660 0.931 . S
Co666 N663 2.135 . S
Co666 N669 2.121 . S
Co666 O674 2.055 . S
Co666 O677 2.039 . S
Co666 N680 2.140 . S
C667 O668 1.227 1_565 S
C667 O677 1.265 1_565 S
O668 C667 1.227 1_545 S
N669 Co666 2.121 . S
N669 C671 1.375 . S
N669 C672 1.313 . S
C670 C671 1.338 . S
C670 N673 1.377 . S
C670 H690 0.930 . S
C671 N669 1.375 . S
C671 C670 1.338 . S
C671 H675 0.931 . S
C672 N669 1.313 . S
C672 N673 1.344 . S
C672 H676 0.930 . S
N673 C670 1.377 . S
N673 C672 1.344 . S
O674 Co666 2.055 . S
O674 C678 1.253 . S
H675 C671 0.931 . S
H676 C672 0.930 . S
O677 Co666 2.039 . S
O677 C667 1.265 1_545 S
C678 O674 1.253 . S
C678 O679 1.227 . S
O679 C678 1.227 . S
N680 Co666 2.140 . S
N680 C683 1.346 . S
N680 C684 1.345 . S
C681 C682 1.387 . S
C681 C685 1.391 . S
C682 C681 1.387 . S
C682 C683 1.369 . S
C682 H691 0.929 . S
C683 N680 1.346 . S
C683 C682 1.369 . S
C683 H686 0.928 . S
C684 N680 1.345 . S
C684 C685 1.371 . S
C684 H687 0.931 . S
C685 C681 1.391 . S
C685 C684 1.371 . S
C685 H692 0.930 . S
H686 C683 0.928 . S
H687 C684 0.931 . S
H688 C664 0.930 . S
H689 C661 0.930 . S
H690 C670 0.930 . S
H691 C682 0.929 . S
H692 C685 0.930 . S
C693 C694 1.351 . S
C693 N696 1.368 . S
C693 H698 0.931 . S
C694 C693 1.351 . S
C694 N695 1.373 . S
C694 H722 0.930 . S
N695 C694 1.373 . S
N695 C697 1.340 . S
N696 C693 1.368 . S
N696 C697 1.321 . S
N696 Co699 2.135 . S
C697 N695 1.340 . S
C697 N696 1.321 . S
C697 H721 0.930 . S
H698 C693 0.931 . S
Co699 N696 2.135 . S
Co699 N702 2.121 . S
Co699 O707 2.055 . S
Co699 O710 2.039 . S
Co699 N713 2.140 . S
C700 O701 1.227 . S
C700 O710 1.265 . S
O701 C700 1.227 . S
N702 Co699 2.121 . S
N702 C704 1.375 . S
N702 C705 1.313 . S
C703 C704 1.338 . S
C703 N706 1.377 . S
C703 H723 0.930 . S
C704 N702 1.375 . S
C704 C703 1.338 . S
C704 H708 0.931 . S
C705 N702 1.313 . S
C705 N706 1.344 . S
C705 H709 0.930 . S
N706 C703 1.377 . S
N706 C705 1.344 . S
O707 Co699 2.055 . S
O707 C711 1.253 . S
H708 C704 0.931 . S
H709 C705 0.930 . S
O710 Co699 2.039 . S
O710 C700 1.265 . S
C711 O707 1.253 . S
C711 O712 1.227 . S
O712 C711 1.227 . S
N713 Co699 2.140 . S
N713 C716 1.346 . S
N713 C717 1.345 . S
C714 C715 1.387 . S
C714 C718 1.391 . S
C715 C714 1.387 . S
C715 C716 1.369 . S
C715 H724 0.929 . S
C716 N713 1.346 . S
C716 C715 1.369 . S
C716 H719 0.928 . S
C717 N713 1.345 . S
C717 C718 1.371 . S
C717 H720 0.931 . S
C718 C714 1.391 . S
C718 C717 1.371 . S
C718 H725 0.930 . S
H719 C716 0.928 . S
H720 C717 0.931 . S
H721 C697 0.930 . S
H722 C694 0.930 . S
H723 C703 0.930 . S
H724 C715 0.929 . S
H725 C718 0.930 . S
C726 C727 1.351 . S
C726 N729 1.368 . S
C726 H731 0.931 . S
C727 C726 1.351 . S
C727 N728 1.373 . S
C727 H755 0.930 . S
N728 C727 1.373 . S
N728 C730 1.340 . S
N729 C726 1.368 . S
N729 C730 1.321 . S
N729 Co732 2.135 . S
C730 N728 1.340 . S
C730 N729 1.321 . S
C730 H754 0.930 . S
H731 C726 0.931 . S
Co732 N729 2.135 . S
Co732 N735 2.121 . S
Co732 O740 2.055 . S
Co732 O743 2.039 . S
Co732 N746 2.140 . S
C733 O734 1.227 . S
C733 O743 1.265 . S
O734 C733 1.227 . S
N735 Co732 2.121 . S
N735 C737 1.375 . S
N735 C738 1.313 . S
C736 C737 1.338 . S
C736 N739 1.377 . S
C736 H756 0.930 . S
C737 N735 1.375 . S
C737 C736 1.338 . S
C737 H741 0.931 . S
C738 N735 1.313 . S
C738 N739 1.344 . S
C738 H742 0.930 . S
N739 C736 1.377 . S
N739 C738 1.344 . S
O740 Co732 2.055 . S
O740 C744 1.253 . S
H741 C737 0.931 . S
H742 C738 0.930 . S
O743 Co732 2.039 . S
O743 C733 1.265 . S
C744 O740 1.253 . S
C744 O745 1.227 . S
O745 C744 1.227 . S
N746 Co732 2.140 . S
N746 C749 1.346 . S
N746 C750 1.345 . S
C747 C748 1.387 . S
C747 C751 1.391 . S
C748 C747 1.387 . S
C748 C749 1.369 . S
C748 H757 0.929 . S
C749 N746 1.346 . S
C749 C748 1.369 . S
C749 H752 0.928 . S
C750 N746 1.345 . S
C750 C751 1.371 . S
C750 H753 0.931 . S
C751 C747 1.391 . S
C751 C750 1.371 . S
C751 H758 0.930 . S
H752 C749 0.928 . S
H753 C750 0.931 . S
H754 C730 0.930 . S
H755 C727 0.930 . S
H756 C736 0.930 . S
H757 C748 0.929 . S
H758 C751 0.930 . S
C759 C760 1.351 . S
C759 N762 1.368 . S
C759 H764 0.931 . S
C760 C759 1.351 . S
C760 N761 1.373 . S
C760 H788 0.930 . S
N761 C760 1.373 . S
N761 C763 1.340 . S
N762 C759 1.368 . S
N762 C763 1.321 . S
N762 Co765 2.135 . S
C763 N761 1.340 . S
C763 N762 1.321 . S
C763 H787 0.930 . S
H764 C759 0.931 . S
Co765 N762 2.135 . S
Co765 N768 2.121 . S
Co765 O773 2.055 . S
Co765 O776 2.039 . S
Co765 N779 2.140 . S
C766 O767 1.227 . S
C766 O776 1.265 . S
O767 C766 1.227 . S
N768 Co765 2.121 . S
N768 C770 1.375 . S
N768 C771 1.313 . S
C769 C770 1.338 . S
C769 N772 1.377 . S
C769 H789 0.930 . S
C770 N768 1.375 . S
C770 C769 1.338 . S
C770 H774 0.931 . S
C771 N768 1.313 . S
C771 N772 1.344 . S
C771 H775 0.930 . S
N772 C769 1.377 . S
N772 C771 1.344 . S
O773 Co765 2.055 . S
O773 C777 1.253 . S
H774 C770 0.931 . S
H775 C771 0.930 . S
O776 Co765 2.039 . S
O776 C766 1.265 . S
C777 O773 1.253 . S
C777 O778 1.227 . S
O778 C777 1.227 . S
N779 Co765 2.140 . S
N779 C782 1.346 . S
N779 C783 1.345 . S
C780 C781 1.387 . S
C780 C784 1.391 . S
C781 C780 1.387 . S
C781 C782 1.369 . S
C781 H790 0.929 . S
C782 N779 1.346 . S
C782 C781 1.369 . S
C782 H785 0.928 . S
C783 N779 1.345 . S
C783 C784 1.371 . S
C783 H786 0.931 . S
C784 C780 1.391 . S
C784 C783 1.371 . S
C784 H791 0.930 . S
H785 C782 0.928 . S
H786 C783 0.931 . S
H787 C763 0.930 . S
H788 C760 0.930 . S
H789 C769 0.930 . S
H790 C781 0.929 . S
H791 C784 0.930 . S
H792 C798 0.930 . S
H793 C801 0.930 . S
H794 C802 0.930 . S
H795 C803 0.930 . S
H796 C806 0.930 . S
H797 C807 0.930 . S
C798 H792 0.930 . S
C798 C799 1.355 . S
C798 C800 1.415 . S
C799 C798 1.355 . S
C799 C801 1.419 . S
C800 C798 1.415 . S
C800 C805 1.425 . S
C800 C807 1.409 . S
C801 H793 0.930 . S
C801 C799 1.419 . S
C801 C802 1.362 . S
C802 H794 0.930 . S
C802 C801 1.362 . S
C802 C805 1.409 . S
C803 H795 0.930 . S
C803 C804 1.355 . S
C803 C805 1.415 . S
C804 C803 1.355 . S
C804 C806 1.419 . S
C805 C800 1.425 . S
C805 C802 1.409 . S
C805 C803 1.415 . S
C806 H796 0.930 . S
C806 C804 1.419 . S
C806 C807 1.362 . S
C807 H797 0.930 . S
C807 C800 1.409 . S
C807 C806 1.362 . S
H808 C814 0.930 . S
H809 C817 0.930 . S
H810 C818 0.930 . S
H811 C819 0.930 . S
H812 C822 0.930 . S
H813 C823 0.930 . S
C814 H808 0.930 . S
C814 C815 1.355 . S
C814 C816 1.415 . S
C815 C814 1.355 . S
C815 C817 1.419 . S
C816 C814 1.415 . S
C816 C821 1.425 . S
C816 C823 1.409 . S
C817 H809 0.930 . S
C817 C815 1.419 . S
C817 C818 1.362 . S
C818 H810 0.930 . S
C818 C817 1.362 . S
C818 C821 1.409 . S
C819 H811 0.930 . S
C819 C820 1.355 . S
C819 C821 1.415 . S
C820 C819 1.355 . S
C820 C822 1.419 . S
C821 C816 1.425 . S
C821 C818 1.409 . S
C821 C819 1.415 . S
C822 H812 0.930 . S
C822 C820 1.419 . S
C822 C823 1.362 . S
C823 H813 0.930 . S
C823 C816 1.409 . S
C823 C822 1.362 . S
H824 C830 0.930 . S
H825 C833 0.930 . S
H826 C834 0.930 . S
H827 C835 0.930 . S
H828 C838 0.930 . S
H829 C839 0.930 . S
C830 H824 0.930 . S
C830 C831 1.355 . S
C830 C832 1.415 . S
C831 C830 1.355 . S
C831 C833 1.419 . S
C832 C830 1.415 . S
C832 C837 1.425 . S
C832 C839 1.409 . S
C833 H825 0.930 . S
C833 C831 1.419 . S
C833 C834 1.362 . S
C834 H826 0.930 . S
C834 C833 1.362 . S
C834 C837 1.409 . S
C835 H827 0.930 . S
C835 C836 1.355 . S
C835 C837 1.415 . S
C836 C835 1.355 . S
C836 C838 1.419 . S
C837 C832 1.425 . S
C837 C834 1.409 . S
C837 C835 1.415 . S
C838 H828 0.930 . S
C838 C836 1.419 . S
C838 C839 1.362 . S
C839 H829 0.930 . S
C839 C832 1.409 . S
C839 C838 1.362 . S
H840 C846 0.930 . S
H841 C849 0.930 . S
H842 C850 0.930 . S
H843 C851 0.930 . S
H844 C854 0.930 . S
H845 C855 0.930 . S
C846 H840 0.930 . S
C846 C847 1.355 . S
C846 C848 1.415 . S
C847 C846 1.355 . S
C847 C849 1.419 . S
C848 C846 1.415 . S
C848 C853 1.425 . S
C848 C855 1.409 . S
C849 H841 0.930 . S
C849 C847 1.419 . S
C849 C850 1.362 . S
C850 H842 0.930 . S
C850 C849 1.362 . S
C850 C853 1.409 . S
C851 H843 0.930 . S
C851 C852 1.355 . S
C851 C853 1.415 . S
C852 C851 1.355 . S
C852 C854 1.419 . S
C853 C848 1.425 . S
C853 C850 1.409 . S
C853 C851 1.415 . S
C854 H844 0.930 . S
C854 C852 1.419 . S
C854 C855 1.362 . S
C855 H845 0.930 . S
C855 C848 1.409 . S
C855 C854 1.362 . S
H856 C862 0.930 . S
H857 C865 0.930 . S
H858 C866 0.930 . S
H859 C867 0.930 . S
H860 C870 0.930 . S
H861 C871 0.930 . S
C862 H856 0.930 . S
C862 C863 1.355 . S
C862 C864 1.415 . S
C863 C862 1.355 . S
C863 C865 1.419 . S
C864 C862 1.415 . S
C864 C869 1.425 . S
C864 C871 1.409 . S
C865 H857 0.930 . S
C865 C863 1.419 . S
C865 C866 1.362 . S
C866 H858 0.930 . S
C866 C865 1.362 . S
C866 C869 1.409 . S
C867 H859 0.930 . S
C867 C868 1.355 . S
C867 C869 1.415 . S
C868 C867 1.355 . S
C868 C870 1.419 . S
C869 C864 1.425 . S
C869 C866 1.409 . S
C869 C867 1.415 . S
C870 H860 0.930 . S
C870 C868 1.419 . S
C870 C871 1.362 . S
C871 H861 0.930 . S
C871 C864 1.409 . S
C871 C870 1.362 . S
H872 C878 0.930 . S
H873 C881 0.930 . S
H874 C882 0.930 . S
H875 C883 0.930 . S
H876 C886 0.930 . S
H877 C887 0.930 . S
C878 H872 0.930 . S
C878 C879 1.355 . S
C878 C880 1.415 1_545 S
C879 C878 1.355 . S
C879 C881 1.419 . S
C880 C878 1.415 1_565 S
C880 C885 1.425 . S
C880 C887 1.409 . S
C881 H873 0.930 . S
C881 C879 1.419 . S
C881 C882 1.362 1_545 S
C882 H874 0.930 . S
C882 C881 1.362 1_565 S
C882 C885 1.409 . S
C883 H875 0.930 . S
C883 C884 1.355 . S
C883 C885 1.415 . S
C884 C883 1.355 . S
C884 C886 1.419 . S
C885 C880 1.425 . S
C885 C882 1.409 . S
C885 C883 1.415 . S
C886 H876 0.930 . S
C886 C884 1.419 . S
C886 C887 1.362 . S
C887 H877 0.930 . S
C887 C880 1.409 . S
C887 C886 1.362 . S
H888 C894 0.930 . S
H889 C897 0.930 . S
H890 C898 0.930 . S
H891 C899 0.930 . S
H892 C902 0.930 . S
H893 C903 0.930 . S
C894 H888 0.930 . S
C894 C895 1.355 . S
C894 C896 1.415 . S
C895 C894 1.355 . S
C895 C897 1.419 . S
C896 C894 1.415 . S
C896 C901 1.425 . S
C896 C903 1.409 . S
C897 H889 0.930 . S
C897 C895 1.419 . S
C897 C898 1.362 . S
C898 H890 0.930 . S
C898 C897 1.362 . S
C898 C901 1.409 . S
C899 H891 0.930 . S
C899 C900 1.355 . S
C899 C901 1.415 . S
C900 C899 1.355 . S
C900 C902 1.419 . S
C901 C896 1.425 . S
C901 C898 1.409 . S
C901 C899 1.415 . S
C902 H892 0.930 . S
C902 C900 1.419 . S
C902 C903 1.362 . S
C903 H893 0.930 . S
C903 C896 1.409 . S
C903 C902 1.362 . S
H904 C910 0.930 . S
H905 C913 0.930 . S
H906 C914 0.930 . S
H907 C915 0.930 . S
H908 C918 0.930 . S
H909 C919 0.930 . S
C910 H904 0.930 . S
C910 C911 1.355 . S
C910 C912 1.415 1_565 S
C911 C910 1.355 . S
C911 C913 1.419 . S
C912 C910 1.415 1_545 S
C912 C917 1.425 . S
C912 C919 1.409 . S
C913 H905 0.930 . S
C913 C911 1.419 . S
C913 C914 1.362 1_565 S
C914 H906 0.930 . S
C914 C913 1.362 1_545 S
C914 C917 1.409 . S
C915 H907 0.930 . S
C915 C916 1.355 . S
C915 C917 1.415 . S
C916 C915 1.355 . S
C916 C918 1.419 . S
C917 C912 1.425 . S
C917 C914 1.409 . S
C917 C915 1.415 . S
C918 H908 0.930 . S
C918 C916 1.419 . S
C918 C919 1.362 . S
C919 H909 0.930 . S
C919 C912 1.409 . S
C919 C918 1.362 . S
H920 C926 0.930 . S
H921 C929 0.930 . S
H922 C930 0.930 . S
H923 C931 0.930 . S
H924 C934 0.930 . S
H925 C935 0.930 . S
C926 H920 0.930 . S
C926 C927 1.355 . S
C926 C928 1.415 . S
C927 C926 1.355 . S
C927 C929 1.419 . S
C928 C926 1.415 . S
C928 C933 1.425 . S
C928 C935 1.409 . S
C929 H921 0.930 . S
C929 C927 1.419 . S
C929 C930 1.362 . S
C930 H922 0.930 . S
C930 C929 1.362 . S
C930 C933 1.409 . S
C931 H923 0.930 . S
C931 C932 1.355 . S
C931 C933 1.415 . S
C932 C931 1.355 . S
C932 C934 1.419 . S
C933 C928 1.425 . S
C933 C930 1.409 . S
C933 C931 1.415 . S
C934 H924 0.930 . S
C934 C932 1.419 . S
C934 C935 1.362 . S
C935 H925 0.930 . S
C935 C928 1.409 . S
C935 C934 1.362 . S
H936 C942 0.930 . S
H937 C945 0.930 . S
H938 C946 0.930 . S
H939 C947 0.930 . S
H940 C950 0.930 . S
H941 C951 0.930 . S
C942 H936 0.930 . S
C942 C943 1.355 . S
C942 C944 1.415 . S
C943 C942 1.355 . S
C943 C945 1.419 . S
C944 C942 1.415 . S
C944 C949 1.425 . S
C944 C951 1.409 . S
C945 H937 0.930 . S
C945 C943 1.419 . S
C945 C946 1.362 . S
C946 H938 0.930 . S
C946 C945 1.362 . S
C946 C949 1.409 . S
C947 H939 0.930 . S
C947 C948 1.355 . S
C947 C949 1.415 . S
C948 C947 1.355 . S
C948 C950 1.419 . S
C949 C944 1.425 . S
C949 C946 1.409 . S
C949 C947 1.415 . S
C950 H940 0.930 . S
C950 C948 1.419 . S
C950 C951 1.362 . S
C951 H941 0.930 . S
C951 C944 1.409 . S
C951 C950 1.362 . S
H952 C958 0.930 . S
H953 C961 0.930 . S
H954 C962 0.938 . S
H955 C963 0.930 1_655 S
H956 C966 0.930 . S
H957 C967 0.930 . S
C958 H952 0.930 . S
C958 C959 1.355 . S
C958 C960 1.415 . S
C959 C958 1.355 . S
C959 C961 1.419 . S
C960 C958 1.415 . S
C960 C965 1.425 . S
C960 C967 1.409 . S
C961 H953 0.930 . S
C961 C959 1.419 . S
C961 C962 1.362 . S
C962 H954 0.938 . S
C962 C961 1.362 . S
C962 C965 1.409 . S
C963 H955 0.930 1_455 S
C963 C964 1.355 . S
C963 C965 1.415 . S
C964 C963 1.355 . S
C964 C966 1.419 . S
C965 C960 1.425 . S
C965 C962 1.409 . S
C965 C963 1.415 . S
C966 H956 0.930 . S
C966 C964 1.419 . S
C966 C967 1.362 . S
C967 H957 0.930 . S
C967 C960 1.409 . S
C967 C966 1.362 . S
H968 C974 0.930 . S
H969 C977 0.930 . S
H970 C978 0.932 . S
H971 C979 0.930 . S
H972 C982 0.930 . S
H973 C983 0.930 . S
C974 H968 0.930 . S
C974 C975 1.355 1_655 S
C974 C976 1.415 . S
C975 C974 1.355 1_455 S
C975 C977 1.419 . S
C976 C974 1.415 . S
C976 C981 1.425 . S
C976 C983 1.409 . S
C977 H969 0.930 . S
C977 C975 1.419 . S
C977 C978 1.362 1_455 S
C978 H970 0.932 . S
C978 C977 1.362 1_655 S
C978 C981 1.409 . S
C979 H971 0.930 . S
C979 C980 1.355 . S
C979 C981 1.415 . S
C980 C979 1.355 . S
C980 C982 1.419 . S
C981 C976 1.425 . S
C981 C978 1.409 . S
C981 C979 1.415 . S
C982 H972 0.930 . S
C982 C980 1.419 . S
C982 C983 1.362 . S
C983 H973 0.930 . S
C983 C976 1.409 . S
C983 C982 1.362 . S
H984 C990 0.930 . S
H985 C993 0.930 . S
H986 C994 0.930 . S
H987 C995 0.930 . S
H988 C998 0.930 . S
H989 C999 0.930 . S
C990 H984 0.930 . S
C990 C991 1.355 . S
C990 C992 1.415 . S
C991 C990 1.355 . S
C991 C993 1.419 . S
C992 C990 1.415 . S
C992 C997 1.425 . S
C992 C999 1.409 . S
C993 H985 0.930 . S
C993 C991 1.419 . S
C993 C994 1.362 . S
C994 H986 0.930 . S
C994 C993 1.362 . S
C994 C997 1.409 . S
C995 H987 0.930 . S
C995 C996 1.355 . S
C995 C997 1.415 . S
C996 C995 1.355 . S
C996 C998 1.419 . S
C997 C992 1.425 . S
C997 C994 1.409 . S
C997 C995 1.415 . S
C998 H988 0.930 . S
C998 C996 1.419 . S
C998 C999 1.362 . S
C999 H989 0.930 . S
C999 C992 1.409 . S
C999 C998 1.362 . S
H1000 C1006 0.930 . S
H1001 C1009 0.930 . S
H1002 C1010 0.930 . S
H1003 C1011 0.930 . S
H1004 C1014 0.930 . S
H1005 C1015 0.930 . S
C1006 H1000 0.930 . S
C1006 C1007 1.355 . S
C1006 C1008 1.415 . S
C1007 C1006 1.355 . S
C1007 C1009 1.419 . S
C1008 C1006 1.415 . S
C1008 C1013 1.425 . S
C1008 C1015 1.409 . S
C1009 H1001 0.930 . S
C1009 C1007 1.419 . S
C1009 C1010 1.362 . S
C1010 H1002 0.930 . S
C1010 C1009 1.362 . S
C1010 C1013 1.409 . S
C1011 H1003 0.930 . S
C1011 C1012 1.355 . S
C1011 C1013 1.415 . S
C1012 C1011 1.355 . S
C1012 C1014 1.419 . S
C1013 C1008 1.425 . S
C1013 C1010 1.409 . S
C1013 C1011 1.415 . S
C1014 H1004 0.930 . S
C1014 C1012 1.419 . S
C1014 C1015 1.362 . S
C1015 H1005 0.930 . S
C1015 C1008 1.409 . S
C1015 C1014 1.362 . S
H1016 C1022 0.930 . S
H1017 C1025 0.930 . S
H1018 C1026 0.930 . S
H1019 C1027 0.930 . S
H1020 C1030 0.930 . S
H1021 C1031 0.930 . S
C1022 H1016 0.930 . S
C1022 C1023 1.355 . S
C1022 C1024 1.415 . S
C1023 C1022 1.355 . S
C1023 C1025 1.419 . S
C1024 C1022 1.415 . S
C1024 C1029 1.425 . S
C1024 C1031 1.409 . S
C1025 H1017 0.930 . S
C1025 C1023 1.419 . S
C1025 C1026 1.362 . S
C1026 H1018 0.930 . S
C1026 C1025 1.362 . S
C1026 C1029 1.409 . S
C1027 H1019 0.930 . S
C1027 C1028 1.355 . S
C1027 C1029 1.415 . S
C1028 C1027 1.355 . S
C1028 C1030 1.419 . S
C1029 C1024 1.425 . S
C1029 C1026 1.409 . S
C1029 C1027 1.415 . S
C1030 H1020 0.930 . S
C1030 C1028 1.419 . S
C1030 C1031 1.362 . S
C1031 H1021 0.930 . S
C1031 C1024 1.409 . S
C1031 C1030 1.362 . S
H1032 C1038 0.930 . S
H1033 C1041 0.928 1_655 S
H1034 C1042 0.930 . S
H1035 C1043 0.930 . S
H1036 C1046 0.930 . S
H1037 C1047 0.930 . S
C1038 H1032 0.930 . S
C1038 C1039 1.355 . S
C1038 C1040 1.415 1_655 S
C1039 C1038 1.355 . S
C1039 C1041 1.415 1_655 S
C1040 C1038 1.415 1_455 S
C1040 C1045 1.425 . S
C1040 C1047 1.409 . S
C1041 H1033 0.928 1_455 S
C1041 C1039 1.415 1_455 S
C1041 C1042 1.368 . S
C1042 H1034 0.930 . S
C1042 C1041 1.368 . S
C1042 C1045 1.409 . S
C1043 H1035 0.930 . S
C1043 C1044 1.355 . S
C1043 C1045 1.415 . S
C1044 C1043 1.355 . S
C1044 C1046 1.419 . S
C1045 C1040 1.425 . S
C1045 C1042 1.409 . S
C1045 C1043 1.415 . S
C1046 H1036 0.930 . S
C1046 C1044 1.419 . S
C1046 C1047 1.362 . S
C1047 H1037 0.930 . S
C1047 C1040 1.409 . S
C1047 C1046 1.362 . S
H1048 C1054 0.930 . S
H1049 C1057 0.930 . S
H1050 C1058 0.930 . S
H1051 C1059 0.930 . S
H1052 C1062 0.930 . S
H1053 C1063 0.930 . S
C1054 H1048 0.930 . S
C1054 C1055 1.355 . S
C1054 C1056 1.415 . S
C1055 C1054 1.355 . S
C1055 C1057 1.419 . S
C1056 C1054 1.415 . S
C1056 C1061 1.425 . S
C1056 C1063 1.409 . S
C1057 H1049 0.930 . S
C1057 C1055 1.419 . S
C1057 C1058 1.362 . S
C1058 H1050 0.930 . S
C1058 C1057 1.362 . S
C1058 C1061 1.409 . S
C1059 H1051 0.930 . S
C1059 C1060 1.355 . S
C1059 C1061 1.415 . S
C1060 C1059 1.355 . S
C1060 C1062 1.419 . S
C1061 C1056 1.425 . S
C1061 C1058 1.409 . S
C1061 C1059 1.415 . S
C1062 H1052 0.930 . S
C1062 C1060 1.419 . S
C1062 C1063 1.362 . S
C1063 H1053 0.930 . S
C1063 C1056 1.409 . S
C1063 C1062 1.362 . S
H1064 C1070 0.930 . S
H1065 C1073 0.930 . S
H1066 C1074 0.930 . S
H1067 C1075 0.930 . S
H1068 C1078 0.930 . S
H1069 C1079 0.930 . S
C1070 H1064 0.930 . S
C1070 C1071 1.355 . S
C1070 C1072 1.415 . S
C1071 C1070 1.355 . S
C1071 C1073 1.419 . S
C1072 C1070 1.415 . S
C1072 C1077 1.425 . S
C1072 C1079 1.409 . S
C1073 H1065 0.930 . S
C1073 C1071 1.419 . S
C1073 C1074 1.362 . S
C1074 H1066 0.930 . S
C1074 C1073 1.362 . S
C1074 C1077 1.409 . S
C1075 H1067 0.930 . S
C1075 C1076 1.355 . S
C1075 C1077 1.415 . S
C1076 C1075 1.355 . S
C1076 C1078 1.419 . S
C1077 C1072 1.425 . S
C1077 C1074 1.409 . S
C1077 C1075 1.415 . S
C1078 H1068 0.930 . S
C1078 C1076 1.419 . S
C1078 C1079 1.362 . S
C1079 H1069 0.930 . S
C1079 C1072 1.409 . S
C1079 C1078 1.362 . S
H1080 C1086 0.930 . S
H1081 C1089 0.930 . S
H1082 C1090 0.930 . S
H1083 C1091 0.930 . S
H1084 C1094 0.930 . S
H1085 C1095 0.930 . S
C1086 H1080 0.930 . S
C1086 C1087 1.355 . S
C1086 C1088 1.415 . S
C1087 C1086 1.355 . S
C1087 C1089 1.419 . S
C1088 C1086 1.415 . S
C1088 C1093 1.425 . S
C1088 C1095 1.409 . S
C1089 H1081 0.930 . S
C1089 C1087 1.419 . S
C1089 C1090 1.362 . S
C1090 H1082 0.930 . S
C1090 C1089 1.362 . S
C1090 C1093 1.409 . S
C1091 H1083 0.930 . S
C1091 C1092 1.355 . S
C1091 C1093 1.415 . S
C1092 C1091 1.355 . S
C1092 C1094 1.419 . S
C1093 C1088 1.425 . S
C1093 C1090 1.409 . S
C1093 C1091 1.415 . S
C1094 H1084 0.930 . S
C1094 C1092 1.419 . S
C1094 C1095 1.362 . S
C1095 H1085 0.930 . S
C1095 C1088 1.409 . S
C1095 C1094 1.362 . S
H1096 C1102 0.930 . S
H1097 C1105 0.930 . S
H1098 C1106 0.930 . S
H1099 C1107 0.930 . S
H1100 C1110 0.930 . S
H1101 C1111 0.930 . S
C1102 H1096 0.930 . S
C1102 C1103 1.355 . S
C1102 C1104 1.415 . S
C1103 C1102 1.355 . S
C1103 C1105 1.419 . S
C1104 C1102 1.415 . S
C1104 C1109 1.425 . S
C1104 C1111 1.409 . S
C1105 H1097 0.930 . S
C1105 C1103 1.419 . S
C1105 C1106 1.362 . S
C1106 H1098 0.930 . S
C1106 C1105 1.362 . S
C1106 C1109 1.409 . S
C1107 H1099 0.930 . S
C1107 C1108 1.355 . S
C1107 C1109 1.415 . S
C1108 C1107 1.355 . S
C1108 C1110 1.419 . S
C1109 C1104 1.425 . S
C1109 C1106 1.409 . S
C1109 C1107 1.415 . S
C1110 H1100 0.930 . S
C1110 C1108 1.419 . S
C1110 C1111 1.362 . S
C1111 H1101 0.930 . S
C1111 C1104 1.409 . S
C1111 C1110 1.362 . S
H1112 C1118 0.930 . S
H1113 C1121 0.930 . S
H1114 C1122 0.930 . S
H1115 C1123 0.930 . S
H1116 C1126 0.930 . S
H1117 C1127 0.930 . S
C1118 H1112 0.930 . S
C1118 C1119 1.355 . S
C1118 C1120 1.415 . S
C1119 C1118 1.355 . S
C1119 C1121 1.419 . S
C1120 C1118 1.415 . S
C1120 C1125 1.425 . S
C1120 C1127 1.409 . S
C1121 H1113 0.930 . S
C1121 C1119 1.419 . S
C1121 C1122 1.362 . S
C1122 H1114 0.930 . S
C1122 C1121 1.362 . S
C1122 C1125 1.409 . S
C1123 H1115 0.930 . S
C1123 C1124 1.355 . S
C1123 C1125 1.415 1_556 S
C1124 C1123 1.355 . S
C1124 C1126 1.419 . S
C1125 C1120 1.425 . S
C1125 C1122 1.409 . S
C1125 C1123 1.415 1_554 S
C1126 H1116 0.930 . S
C1126 C1124 1.419 . S
C1126 C1127 1.362 1_556 S
C1127 H1117 0.930 . S
C1127 C1120 1.409 . S
C1127 C1126 1.362 1_554 S
H1128 C1134 0.930 . S
H1129 C1137 0.930 . S
H1130 C1138 0.930 . S
H1131 C1139 0.930 . S
H1132 C1142 0.930 . S
H1133 C1143 0.930 . S
C1134 H1128 0.930 . S
C1134 C1135 1.355 . S
C1134 C1136 1.415 . S
C1135 C1134 1.355 . S
C1135 C1137 1.419 . S
C1136 C1134 1.415 . S
C1136 C1141 1.425 . S
C1136 C1143 1.409 . S
C1137 H1129 0.930 . S
C1137 C1135 1.419 . S
C1137 C1138 1.362 . S
C1138 H1130 0.930 . S
C1138 C1137 1.362 . S
C1138 C1141 1.409 . S
C1139 H1131 0.930 . S
C1139 C1140 1.355 . S
C1139 C1141 1.415 . S
C1140 C1139 1.355 . S
C1140 C1142 1.419 . S
C1141 C1136 1.425 . S
C1141 C1138 1.409 . S
C1141 C1139 1.415 . S
C1142 H1132 0.930 . S
C1142 C1140 1.419 . S
C1142 C1143 1.362 . S
C1143 H1133 0.930 . S
C1143 C1136 1.409 . S
C1143 C1142 1.362 . S
H1144 C1150 0.930 . S
H1145 C1153 0.930 . S
H1146 C1154 0.930 . S
H1147 C1155 0.930 . S
H1148 C1158 0.930 . S
H1149 C1159 0.930 . S
C1150 H1144 0.930 . S
C1150 C1151 1.355 . S
C1150 C1152 1.415 . S
C1151 C1150 1.355 . S
C1151 C1153 1.419 . S
C1152 C1150 1.415 . S
C1152 C1157 1.425 . S
C1152 C1159 1.409 . S
C1153 H1145 0.930 . S
C1153 C1151 1.419 . S
C1153 C1154 1.362 . S
C1154 H1146 0.930 . S
C1154 C1153 1.362 . S
C1154 C1157 1.409 . S
C1155 H1147 0.930 . S
C1155 C1156 1.355 . S
C1155 C1157 1.415 . S
C1156 C1155 1.355 . S
C1156 C1158 1.419 . S
C1157 C1152 1.425 . S
C1157 C1154 1.409 . S
C1157 C1155 1.415 . S
C1158 H1148 0.930 . S
C1158 C1156 1.419 . S
C1158 C1159 1.362 . S
C1159 H1149 0.930 . S
C1159 C1152 1.409 . S
C1159 C1158 1.362 . S
H1160 C1166 0.930 . S
H1161 C1169 0.930 . S
H1162 C1170 0.930 . S
H1163 C1171 0.930 . S
H1164 C1174 0.930 . S
H1165 C1175 0.930 . S
C1166 H1160 0.930 . S
C1166 C1167 1.355 . S
C1166 C1168 1.415 1_554 S
C1167 C1166 1.355 . S
C1167 C1169 1.419 . S
C1168 C1166 1.415 1_556 S
C1168 C1173 1.425 . S
C1168 C1175 1.409 . S
C1169 H1161 0.930 . S
C1169 C1167 1.419 . S
C1169 C1170 1.362 1_554 S
C1170 H1162 0.930 . S
C1170 C1169 1.362 1_556 S
C1170 C1173 1.409 . S
C1171 H1163 0.930 . S
C1171 C1172 1.355 . S
C1171 C1173 1.415 . S
C1172 C1171 1.355 . S
C1172 C1174 1.419 . S
C1173 C1168 1.425 . S
C1173 C1170 1.409 . S
C1173 C1171 1.415 . S
C1174 H1164 0.930 . S
C1174 C1172 1.419 . S
C1174 C1175 1.362 . S
C1175 H1165 0.930 . S
C1175 C1168 1.409 . S
C1175 C1174 1.362 . S
H1176 C1182 0.930 . S
H1177 C1185 0.930 . S
H1178 C1186 0.930 . S
H1179 C1187 0.930 . S
H1180 C1190 0.930 . S
H1181 C1191 0.930 . S
C1182 H1176 0.930 . S
C1182 C1183 1.355 . S
C1182 C1184 1.415 . S
C1183 C1182 1.355 . S
C1183 C1185 1.419 . S
C1184 C1182 1.415 . S
C1184 C1189 1.425 . S
C1184 C1191 1.409 . S
C1185 H1177 0.930 . S
C1185 C1183 1.419 . S
C1185 C1186 1.362 . S
C1186 H1178 0.930 . S
C1186 C1185 1.362 . S
C1186 C1189 1.409 . S
C1187 H1179 0.930 . S
C1187 C1188 1.355 . S
C1187 C1189 1.415 . S
C1188 C1187 1.355 . S
C1188 C1190 1.419 . S
C1189 C1184 1.425 . S
C1189 C1186 1.409 . S
C1189 C1187 1.415 . S
C1190 H1180 0.930 . S
C1190 C1188 1.419 . S
C1190 C1191 1.362 . S
C1191 H1181 0.930 . S
C1191 C1184 1.409 . S
C1191 C1190 1.362 . S
H1192 C1198 0.930 . S
H1193 C1201 0.930 . S
H1194 C1202 0.930 . S
H1195 C1203 0.930 . S
H1196 C1206 0.930 . S
H1197 C1207 0.930 1_556 S
C1198 H1192 0.930 . S
C1198 C1199 1.355 . S
C1198 C1200 1.415 . S
C1199 C1198 1.355 . S
C1199 C1201 1.419 . S
C1200 C1198 1.415 . S
C1200 C1205 1.425 1_556 S
C1200 C1207 1.409 1_556 S
C1201 H1193 0.930 . S
C1201 C1199 1.419 . S
C1201 C1202 1.362 1_556 S
C1202 H1194 0.930 . S
C1202 C1201 1.362 1_554 S
C1202 C1205 1.409 . S
C1203 H1195 0.930 . S
C1203 C1204 1.355 . S
C1203 C1205 1.415 . S
C1204 C1203 1.355 . S
C1204 C1206 1.419 . S
C1205 C1200 1.425 1_554 S
C1205 C1202 1.409 . S
C1205 C1203 1.415 . S
C1206 H1196 0.930 . S
C1206 C1204 1.419 . S
C1206 C1207 1.362 . S
C1207 H1197 0.930 1_554 S
C1207 C1200 1.409 1_554 S
C1207 C1206 1.362 . S
H1208 C1214 0.930 . S
H1209 C1217 0.930 . S
H1210 C1218 0.930 . S
H1211 C1219 0.930 . S
H1212 C1222 0.930 . S
H1213 C1223 0.930 . S
C1214 H1208 0.930 . S
C1214 C1215 1.355 . S
C1214 C1216 1.415 . S
C1215 C1214 1.355 . S
C1215 C1217 1.419 . S
C1216 C1214 1.415 . S
C1216 C1221 1.425 . S
C1216 C1223 1.409 . S
C1217 H1209 0.930 . S
C1217 C1215 1.419 . S
C1217 C1218 1.362 . S
C1218 H1210 0.930 . S
C1218 C1217 1.362 . S
C1218 C1221 1.409 . S
C1219 H1211 0.930 . S
C1219 C1220 1.355 . S
C1219 C1221 1.415 . S
C1220 C1219 1.355 . S
C1220 C1222 1.419 . S
C1221 C1216 1.425 . S
C1221 C1218 1.409 . S
C1221 C1219 1.415 . S
C1222 H1212 0.930 . S
C1222 C1220 1.419 . S
C1222 C1223 1.362 . S
C1223 H1213 0.930 . S
C1223 C1216 1.409 . S
C1223 C1222 1.362 . S
H1224 C1230 0.930 . S
H1225 C1233 0.930 . S
H1226 C1234 0.930 . S
H1227 C1235 0.930 . S
H1228 C1238 0.930 . S
H1229 C1239 0.930 1_655 S
C1230 H1224 0.930 . S
C1230 C1231 1.355 . S
C1230 C1232 1.415 . S
C1231 C1230 1.355 . S
C1231 C1233 1.419 . S
C1232 C1230 1.415 . S
C1232 C1237 1.425 . S
C1232 C1239 1.409 . S
C1233 H1225 0.930 . S
C1233 C1231 1.419 . S
C1233 C1234 1.362 . S
C1234 H1226 0.930 . S
C1234 C1233 1.362 . S
C1234 C1237 1.409 . S
C1235 H1227 0.930 . S
C1235 C1236 1.355 . S
C1235 C1237 1.415 . S
C1236 C1235 1.355 . S
C1236 C1238 1.419 1_455 S
C1237 C1232 1.425 . S
C1237 C1234 1.409 . S
C1237 C1235 1.415 . S
C1238 H1228 0.930 . S
C1238 C1236 1.419 1_655 S
C1238 C1239 1.362 1_655 S
C1239 H1229 0.930 1_455 S
C1239 C1232 1.409 . S
C1239 C1238 1.362 1_455 S
H1240 C1246 0.930 . S
H1241 C1249 0.930 . S
H1242 C1250 0.930 . S
H1243 C1251 0.930 . S
H1244 C1254 0.930 . S
H1245 C1255 0.930 . S
C1246 H1240 0.930 . S
C1246 C1247 1.355 . S
C1246 C1248 1.415 . S
C1247 C1246 1.355 . S
C1247 C1249 1.419 . S
C1248 C1246 1.415 . S
C1248 C1253 1.425 . S
C1248 C1255 1.409 . S
C1249 H1241 0.930 . S
C1249 C1247 1.419 . S
C1249 C1250 1.362 . S
C1250 H1242 0.930 . S
C1250 C1249 1.362 . S
C1250 C1253 1.409 . S
C1251 H1243 0.930 . S
C1251 C1252 1.355 . S
C1251 C1253 1.415 . S
C1252 C1251 1.355 . S
C1252 C1254 1.419 . S
C1253 C1248 1.425 . S
C1253 C1250 1.409 . S
C1253 C1251 1.415 . S
C1254 H1244 0.930 . S
C1254 C1252 1.419 . S
C1254 C1255 1.362 . S
C1255 H1245 0.930 . S
C1255 C1248 1.409 . S
C1255 C1254 1.362 . S
H1256 C1262 0.930 . S
H1257 C1265 0.930 . S
H1258 C1266 0.930 . S
H1259 C1267 0.930 . S
H1260 C1270 0.930 . S
H1261 C1271 0.930 . S
C1262 H1256 0.930 . S
C1262 C1263 1.355 . S
C1262 C1264 1.415 . S
C1263 C1262 1.355 . S
C1263 C1265 1.419 . S
C1264 C1262 1.415 . S
C1264 C1269 1.425 . S
C1264 C1271 1.409 . S
C1265 H1257 0.930 . S
C1265 C1263 1.419 . S
C1265 C1266 1.362 . S
C1266 H1258 0.930 . S
C1266 C1265 1.362 . S
C1266 C1269 1.409 . S
C1267 H1259 0.930 . S
C1267 C1268 1.355 . S
C1267 C1269 1.415 . S
C1268 C1267 1.355 . S
C1268 C1270 1.419 . S
C1269 C1264 1.425 . S
C1269 C1266 1.409 . S
C1269 C1267 1.415 . S
C1270 H1260 0.930 . S
C1270 C1268 1.419 . S
C1270 C1271 1.362 . S
C1271 H1261 0.930 . S
C1271 C1264 1.409 . S
C1271 C1270 1.362 . S
H1272 C1278 0.930 . S
H1273 C1281 0.930 . S
H1274 C1282 0.930 . S
H1275 C1283 0.930 . S
H1276 C1286 0.930 . S
H1277 C1287 0.930 . S
C1278 H1272 0.930 . S
C1278 C1279 1.355 . S
C1278 C1280 1.415 . S
C1279 C1278 1.355 . S
C1279 C1281 1.419 . S
C1280 C1278 1.415 . S
C1280 C1285 1.425 . S
C1280 C1287 1.409 . S
C1281 H1273 0.930 . S
C1281 C1279 1.419 . S
C1281 C1282 1.362 . S
C1282 H1274 0.930 . S
C1282 C1281 1.362 . S
C1282 C1285 1.409 . S
C1283 H1275 0.930 . S
C1283 C1284 1.355 . S
C1283 C1285 1.415 . S
C1284 C1283 1.355 . S
C1284 C1286 1.419 . S
C1285 C1280 1.425 . S
C1285 C1282 1.409 . S
C1285 C1283 1.415 . S
C1286 H1276 0.930 . S
C1286 C1284 1.419 . S
C1286 C1287 1.362 . S
C1287 H1277 0.930 . S
C1287 C1280 1.409 . S
C1287 C1286 1.362 . S
H1288 C1294 0.930 1_455 S
H1289 C1297 0.930 . S
H1290 C1298 0.930 . S
H1291 C1299 0.930 . S
H1292 C1302 0.930 . S
H1293 C1303 0.930 1_455 S
C1294 H1288 0.930 1_655 S
C1294 C1295 1.355 . S
C1294 C1296 1.415 . S
C1295 C1294 1.355 . S
C1295 C1297 1.419 . S
C1296 C1294 1.415 . S
C1296 C1301 1.425 . S
C1296 C1303 1.409 1_556 S
C1297 H1289 0.930 . S
C1297 C1295 1.419 . S
C1297 C1298 1.362 . S
C1298 H1290 0.930 . S
C1298 C1297 1.362 . S
C1298 C1301 1.409 . S
C1299 H1291 0.930 . S
C1299 C1300 1.355 . S
C1299 C1301 1.415 1_554 S
C1300 C1299 1.355 . S
C1300 C1302 1.419 . S
C1301 C1296 1.425 . S
C1301 C1298 1.409 . S
C1301 C1299 1.415 1_556 S
C1302 H1292 0.930 . S
C1302 C1300 1.419 . S
C1302 C1303 1.362 . S
C1303 H1293 0.930 1_655 S
C1303 C1296 1.409 1_554 S
C1303 C1302 1.362 . S
H1304 C1310 0.930 . S
H1305 C1313 0.930 . S
H1306 C1314 0.930 . S
H1307 C1315 0.930 . S
H1308 C1318 0.930 . S
H1309 C1319 0.930 . S
C1310 H1304 0.930 . S
C1310 C1311 1.355 . S
C1310 C1312 1.415 . S
C1311 C1310 1.355 . S
C1311 C1313 1.419 . S
C1312 C1310 1.415 . S
C1312 C1317 1.425 . S
C1312 C1319 1.409 . S
C1313 H1305 0.930 . S
C1313 C1311 1.419 . S
C1313 C1314 1.362 . S
C1314 H1306 0.930 . S
C1314 C1313 1.362 . S
C1314 C1317 1.409 . S
C1315 H1307 0.930 . S
C1315 C1316 1.355 . S
C1315 C1317 1.415 . S
C1316 C1315 1.355 . S
C1316 C1318 1.419 . S
C1317 C1312 1.425 . S
C1317 C1314 1.409 . S
C1317 C1315 1.415 . S
C1318 H1308 0.930 . S
C1318 C1316 1.419 . S
C1318 C1319 1.362 . S
C1319 H1309 0.930 . S
C1319 C1312 1.409 . S
C1319 C1318 1.362 . S
H1320 C1326 0.930 . S
H1321 C1329 0.915 1_556 S
H1322 C1330 0.930 . S
H1323 C1331 0.930 . S
H1324 C1334 0.930 . S
H1325 C1335 0.930 . S
C1326 H1320 0.930 . S
C1326 C1327 1.355 . S
C1326 C1328 1.415 . S
C1327 C1326 1.355 . S
C1327 C1329 1.419 . S
C1328 C1326 1.415 . S
C1328 C1333 1.425 . S
C1328 C1335 1.409 . S
C1329 H1321 0.915 1_554 S
C1329 C1327 1.419 . S
C1329 C1330 1.362 . S
C1330 H1322 0.930 . S
C1330 C1329 1.362 . S
C1330 C1333 1.409 . S
C1331 H1323 0.930 . S
C1331 C1332 1.355 . S
C1331 C1333 1.415 . S
C1332 C1331 1.355 . S
C1332 C1334 1.419 . S
C1333 C1328 1.425 . S
C1333 C1330 1.409 . S
C1333 C1331 1.415 . S
C1334 H1324 0.930 . S
C1334 C1332 1.419 . S
C1334 C1335 1.362 . S
C1335 H1325 0.930 . S
C1335 C1328 1.409 . S
C1335 C1334 1.362 . S
H1336 C1342 0.930 . S
H1337 C1345 0.930 . S
H1338 C1346 0.930 . S
H1339 C1347 0.930 . S
H1340 C1350 0.930 . S
H1341 C1351 0.930 . S
C1342 H1336 0.930 . S
C1342 C1343 1.355 . S
C1342 C1344 1.415 . S
C1343 C1342 1.355 . S
C1343 C1345 1.419 . S
C1344 C1342 1.415 . S
C1344 C1349 1.425 . S
C1344 C1351 1.409 . S
C1345 H1337 0.930 . S
C1345 C1343 1.419 . S
C1345 C1346 1.362 . S
C1346 H1338 0.930 . S
C1346 C1345 1.362 . S
C1346 C1349 1.409 . S
C1347 H1339 0.930 . S
C1347 C1348 1.355 . S
C1347 C1349 1.415 . S
C1348 C1347 1.355 . S
C1348 C1350 1.419 . S
C1349 C1344 1.425 . S
C1349 C1346 1.409 . S
C1349 C1347 1.415 . S
C1350 H1340 0.930 . S
C1350 C1348 1.419 . S
C1350 C1351 1.362 . S
C1351 H1341 0.930 . S
C1351 C1344 1.409 . S
C1351 C1350 1.362 . S
H1352 C1358 0.930 . S
H1353 C1361 0.930 . S
H1354 C1362 0.930 . S
H1355 C1363 0.930 . S
H1356 C1366 0.930 . S
H1357 C1367 0.930 . S
C1358 H1352 0.930 . S
C1358 C1359 1.355 . S
C1358 C1360 1.415 . S
C1359 C1358 1.355 . S
C1359 C1361 1.419 . S
C1360 C1358 1.415 . S
C1360 C1365 1.425 . S
C1360 C1367 1.409 . S
C1361 H1353 0.930 . S
C1361 C1359 1.419 . S
C1361 C1362 1.362 . S
C1362 H1354 0.930 . S
C1362 C1361 1.362 . S
C1362 C1365 1.409 . S
C1363 H1355 0.930 . S
C1363 C1364 1.355 . S
C1363 C1365 1.415 . S
C1364 C1363 1.355 . S
C1364 C1366 1.419 . S
C1365 C1360 1.425 . S
C1365 C1362 1.409 . S
C1365 C1363 1.415 . S
C1366 H1356 0.930 . S
C1366 C1364 1.419 . S
C1366 C1367 1.362 . S
C1367 H1357 0.930 . S
C1367 C1360 1.409 . S
C1367 C1366 1.362 . S
H1368 C1374 0.930 . S
H1369 C1377 0.930 . S
H1370 C1378 0.930 . S
H1371 C1379 0.930 . S
H1372 C1382 0.930 . S
H1373 C1383 0.930 . S
C1374 H1368 0.930 . S
C1374 C1375 1.355 . S
C1374 C1376 1.415 . S
C1375 C1374 1.355 . S
C1375 C1377 1.419 . S
C1376 C1374 1.415 . S
C1376 C1381 1.425 . S
C1376 C1383 1.409 . S
C1377 H1369 0.930 . S
C1377 C1375 1.419 . S
C1377 C1378 1.362 . S
C1378 H1370 0.930 . S
C1378 C1377 1.362 . S
C1378 C1381 1.409 . S
C1379 H1371 0.930 . S
C1379 C1380 1.355 . S
C1379 C1381 1.415 . S
C1380 C1379 1.355 . S
C1380 C1382 1.419 . S
C1381 C1376 1.425 . S
C1381 C1378 1.409 . S
C1381 C1379 1.415 . S
C1382 H1372 0.930 . S
C1382 C1380 1.419 . S
C1382 C1383 1.362 . S
C1383 H1373 0.930 . S
C1383 C1376 1.409 . S
C1383 C1382 1.362 . S
H1384 C1390 0.930 . S
H1385 C1393 0.930 . S
H1386 C1394 0.930 . S
H1387 C1395 0.930 . S
H1388 C1398 0.930 . S
H1389 C1399 0.930 . S
C1390 H1384 0.930 . S
C1390 C1391 1.355 . S
C1390 C1392 1.415 1_565 S
C1391 C1390 1.355 . S
C1391 C1393 1.419 . S
C1392 C1390 1.415 1_545 S
C1392 C1397 1.425 . S
C1392 C1399 1.409 . S
C1393 H1385 0.930 . S
C1393 C1391 1.419 . S
C1393 C1394 1.362 . S
C1394 H1386 0.930 . S
C1394 C1393 1.362 . S
C1394 C1397 1.409 1_565 S
C1395 H1387 0.930 . S
C1395 C1396 1.355 . S
C1395 C1397 1.415 . S
C1396 C1395 1.355 . S
C1396 C1398 1.419 . S
C1397 C1392 1.425 . S
C1397 C1394 1.409 1_545 S
C1397 C1395 1.415 . S
C1398 H1388 0.930 . S
C1398 C1396 1.419 . S
C1398 C1399 1.362 . S
C1399 H1389 0.930 . S
C1399 C1392 1.409 . S
C1399 C1398 1.362 . S
H1400 C1406 0.930 . S
H1401 C1409 0.930 . S
H1402 C1410 0.930 . S
H1403 C1411 0.930 . S
H1404 C1414 0.930 . S
H1405 C1415 0.930 . S
C1406 H1400 0.930 . S
C1406 C1407 1.355 . S
C1406 C1408 1.415 . S
C1407 C1406 1.355 . S
C1407 C1409 1.419 . S
C1408 C1406 1.415 . S
C1408 C1413 1.425 . S
C1408 C1415 1.409 . S
C1409 H1401 0.930 . S
C1409 C1407 1.419 . S
C1409 C1410 1.362 . S
C1410 H1402 0.930 . S
C1410 C1409 1.362 . S
C1410 C1413 1.409 . S
C1411 H1403 0.930 . S
C1411 C1412 1.355 . S
C1411 C1413 1.415 . S
C1412 C1411 1.355 . S
C1412 C1414 1.419 . S
C1413 C1408 1.425 . S
C1413 C1410 1.409 . S
C1413 C1411 1.415 . S
C1414 H1404 0.930 . S
C1414 C1412 1.419 . S
C1414 C1415 1.362 . S
C1415 H1405 0.930 . S
C1415 C1408 1.409 . S
C1415 C1414 1.362 . S
H1416 C1422 0.930 . S
H1417 C1425 0.930 . S
H1418 C1426 0.930 . S
H1419 C1427 0.930 . S
H1420 C1430 0.930 . S
H1421 C1431 0.930 . S
C1422 H1416 0.930 . S
C1422 C1423 1.355 . S
C1422 C1424 1.415 . S
C1423 C1422 1.355 . S
C1423 C1425 1.419 . S
C1424 C1422 1.415 . S
C1424 C1429 1.428 . S
C1424 C1431 1.409 1_565 S
C1425 H1417 0.930 . S
C1425 C1423 1.419 . S
C1425 C1426 1.362 . S
C1426 H1418 0.930 . S
C1426 C1425 1.362 . S
C1426 C1429 1.418 . S
C1427 H1419 0.930 . S
C1427 C1428 1.355 . S
C1427 C1429 1.403 1_545 S
C1428 C1427 1.355 . S
C1428 C1430 1.419 . S
C1429 C1424 1.428 . S
C1429 C1426 1.418 . S
C1429 C1427 1.403 1_565 S
C1430 H1420 0.930 . S
C1430 C1428 1.419 . S
C1430 C1431 1.362 . S
C1431 H1421 0.930 . S
C1431 C1424 1.409 1_545 S
C1431 C1430 1.362 . S
H1432 C1438 0.930 . S
H1433 C1441 0.930 . S
H1434 C1442 0.930 . S
H1435 C1443 0.930 . S
H1436 C1446 0.930 . S
H1437 C1447 0.930 . S
C1438 H1432 0.930 . S
C1438 C1439 1.355 . S
C1438 C1440 1.415 . S
C1439 C1438 1.355 . S
C1439 C1441 1.419 . S
C1440 C1438 1.415 . S
C1440 C1445 1.425 . S
C1440 C1447 1.409 . S
C1441 H1433 0.930 . S
C1441 C1439 1.419 . S
C1441 C1442 1.362 . S
C1442 H1434 0.930 . S
C1442 C1441 1.362 . S
C1442 C1445 1.409 . S
C1443 H1435 0.930 . S
C1443 C1444 1.355 . S
C1443 C1445 1.415 . S
C1444 C1443 1.355 . S
C1444 C1446 1.419 . S
C1445 C1440 1.425 . S
C1445 C1442 1.409 . S
C1445 C1443 1.415 . S
C1446 H1436 0.930 . S
C1446 C1444 1.419 . S
C1446 C1447 1.362 . S
C1447 H1437 0.930 . S
C1447 C1440 1.409 . S
C1447 C1446 1.362 . S
H1448 C1454 0.930 . S
H1449 C1457 0.930 . S
H1450 C1458 0.930 . S
H1451 C1459 0.930 . S
H1452 C1462 0.930 . S
H1453 C1463 0.930 . S
C1454 H1448 0.930 . S
C1454 C1455 1.355 . S
C1454 C1456 1.415 . S
C1455 C1454 1.355 . S
C1455 C1457 1.419 . S
C1456 C1454 1.415 . S
C1456 C1461 1.425 . S
C1456 C1463 1.409 . S
C1457 H1449 0.930 . S
C1457 C1455 1.419 . S
C1457 C1458 1.362 . S
C1458 H1450 0.930 . S
C1458 C1457 1.362 . S
C1458 C1461 1.409 . S
C1459 H1451 0.930 . S
C1459 C1460 1.355 . S
C1459 C1461 1.415 . S
C1460 C1459 1.355 . S
C1460 C1462 1.419 . S
C1461 C1456 1.425 . S
C1461 C1458 1.409 . S
C1461 C1459 1.415 . S
C1462 H1452 0.930 . S
C1462 C1460 1.419 . S
C1462 C1463 1.362 . S
C1463 H1453 0.930 . S
C1463 C1456 1.409 . S
C1463 C1462 1.362 . S
H1464 C1470 0.930 . S
H1465 C1473 0.930 . S
H1466 C1474 0.930 1_565 S
H1467 C1475 0.930 1_565 S
H1468 C1478 0.930 . S
H1469 C1479 0.930 . S
C1470 H1464 0.930 . S
C1470 C1471 1.355 . S
C1470 C1472 1.415 . S
C1471 C1470 1.355 . S
C1471 C1473 1.419 . S
C1472 C1470 1.415 . S
C1472 C1477 1.425 . S
C1472 C1479 1.409 . S
C1473 H1465 0.930 . S
C1473 C1471 1.419 . S
C1473 C1474 1.362 . S
C1474 H1466 0.930 1_545 S
C1474 C1473 1.362 . S
C1474 C1477 1.409 . S
C1475 H1467 0.930 1_545 S
C1475 C1476 1.355 . S
C1475 C1477 1.415 . S
C1476 C1475 1.355 . S
C1476 C1478 1.419 . S
C1477 C1472 1.425 . S
C1477 C1474 1.409 . S
C1477 C1475 1.415 . S
C1478 H1468 0.930 . S
C1478 C1476 1.419 . S
C1478 C1479 1.362 . S
C1479 H1469 0.930 . S
C1479 C1472 1.409 . S
C1479 C1478 1.362 . S
H1480 C1486 0.930 . S
H1481 C1489 0.930 . S
H1482 C1490 0.930 . S
H1483 C1491 0.930 . S
H1484 C1494 0.930 . S
H1485 C1495 0.930 . S
C1486 H1480 0.930 . S
C1486 C1487 1.355 . S
C1486 C1488 1.415 . S
C1487 C1486 1.355 . S
C1487 C1489 1.419 . S
C1488 C1486 1.415 . S
C1488 C1493 1.425 . S
C1488 C1495 1.409 . S
C1489 H1481 0.930 . S
C1489 C1487 1.419 . S
C1489 C1490 1.362 . S
C1490 H1482 0.930 . S
C1490 C1489 1.362 . S
C1490 C1493 1.409 . S
C1491 H1483 0.930 . S
C1491 C1492 1.355 . S
C1491 C1493 1.415 . S
C1492 C1491 1.355 . S
C1492 C1494 1.419 . S
C1493 C1488 1.425 . S
C1493 C1490 1.409 . S
C1493 C1491 1.415 . S
C1494 H1484 0.930 . S
C1494 C1492 1.419 . S
C1494 C1495 1.362 . S
C1495 H1485 0.930 . S
C1495 C1488 1.409 . S
C1495 C1494 1.362 . S
H1496 C1502 0.930 . S
H1497 C1505 0.930 . S
H1498 C1506 0.930 . S
H1499 C1507 0.930 . S
H1500 C1510 0.930 . S
H1501 C1511 0.930 . S
C1502 H1496 0.930 . S
C1502 C1503 1.355 . S
C1502 C1504 1.415 . S
C1503 C1502 1.355 . S
C1503 C1505 1.419 . S
C1504 C1502 1.415 . S
C1504 C1509 1.425 . S
C1504 C1511 1.409 1_655 S
C1505 H1497 0.930 . S
C1505 C1503 1.419 . S
C1505 C1506 1.362 . S
C1506 H1498 0.930 . S
C1506 C1505 1.362 . S
C1506 C1509 1.409 . S
C1507 H1499 0.930 . S
C1507 C1508 1.355 . S
C1507 C1509 1.415 1_455 S
C1508 C1507 1.355 . S
C1508 C1510 1.419 . S
C1509 C1504 1.425 . S
C1509 C1506 1.409 . S
C1509 C1507 1.415 1_655 S
C1510 H1500 0.930 . S
C1510 C1508 1.419 . S
C1510 C1511 1.362 . S
C1511 H1501 0.930 . S
C1511 C1504 1.409 1_455 S
C1511 C1510 1.362 . S
H1512 C1518 0.930 . S
H1513 C1521 0.930 . S
H1514 C1522 0.930 . S
H1515 C1523 0.930 . S
H1516 C1526 0.930 . S
H1517 C1527 0.930 . S
C1518 H1512 0.930 . S
C1518 C1519 1.355 . S
C1518 C1520 1.415 . S
C1519 C1518 1.355 . S
C1519 C1521 1.419 . S
C1520 C1518 1.415 . S
C1520 C1525 1.425 . S
C1520 C1527 1.409 . S
C1521 H1513 0.930 . S
C1521 C1519 1.419 . S
C1521 C1522 1.362 . S
C1522 H1514 0.930 . S
C1522 C1521 1.362 . S
C1522 C1525 1.409 . S
C1523 H1515 0.930 . S
C1523 C1524 1.355 . S
C1523 C1525 1.415 . S
C1524 C1523 1.355 . S
C1524 C1526 1.419 . S
C1525 C1520 1.425 . S
C1525 C1522 1.409 . S
C1525 C1523 1.415 . S
C1526 H1516 0.930 . S
C1526 C1524 1.419 . S
C1526 C1527 1.362 . S
C1527 H1517 0.930 . S
C1527 C1520 1.409 . S
C1527 C1526 1.362 . S
H1528 C1534 0.930 . S
H1529 C1537 0.930 . S
H1530 C1538 0.930 . S
H1531 C1539 0.930 . S
H1532 C1542 0.930 . S
H1533 C1543 0.930 . S
C1534 H1528 0.930 . S
C1534 C1535 1.355 . S
C1534 C1536 1.415 . S
C1535 C1534 1.355 . S
C1535 C1537 1.419 . S
C1536 C1534 1.415 . S
C1536 C1541 1.425 . S
C1536 C1543 1.409 1_455 S
C1537 H1529 0.930 . S
C1537 C1535 1.419 . S
C1537 C1538 1.362 . S
C1538 H1530 0.930 . S
C1538 C1537 1.362 . S
C1538 C1541 1.409 . S
C1539 H1531 0.930 . S
C1539 C1540 1.355 . S
C1539 C1541 1.415 1_655 S
C1540 C1539 1.355 . S
C1540 C1542 1.419 . S
C1541 C1536 1.425 . S
C1541 C1538 1.409 . S
C1541 C1539 1.415 1_455 S
C1542 H1532 0.930 . S
C1542 C1540 1.419 . S
C1542 C1543 1.362 . S
C1543 H1533 0.930 . S
C1543 C1536 1.409 1_655 S
C1543 C1542 1.362 . S
H1544 C1550 0.930 . S
H1545 C1553 0.930 . S
H1546 C1554 0.930 . S
H1547 C1555 0.930 . S
H1548 C1558 0.930 . S
H1549 C1559 0.930 . S
C1550 H1544 0.930 . S
C1550 C1551 1.355 . S
C1550 C1552 1.415 . S
C1551 C1550 1.355 . S
C1551 C1553 1.419 . S
C1552 C1550 1.415 . S
C1552 C1557 1.425 . S
C1552 C1559 1.409 . S
C1553 H1545 0.930 . S
C1553 C1551 1.419 . S
C1553 C1554 1.362 . S
C1554 H1546 0.930 . S
C1554 C1553 1.362 . S
C1554 C1557 1.409 . S
C1555 H1547 0.930 . S
C1555 C1556 1.355 . S
C1555 C1557 1.415 . S
C1556 C1555 1.355 . S
C1556 C1558 1.419 . S
C1557 C1552 1.425 . S
C1557 C1554 1.409 . S
C1557 C1555 1.415 . S
C1558 H1548 0.930 . S
C1558 C1556 1.419 . S
C1558 C1559 1.362 . S
C1559 H1549 0.930 . S
C1559 C1552 1.409 . S
C1559 C1558 1.362 . S
H1560 C1566 0.930 . S
H1561 C1569 0.930 . S
H1562 C1570 0.930 . S
H1563 C1571 0.930 . S
H1564 C1574 0.930 . S
H1565 C1575 0.930 . S
C1566 H1560 0.930 . S
C1566 C1567 1.355 . S
C1566 C1568 1.415 . S
C1567 C1566 1.355 . S
C1567 C1569 1.419 . S
C1568 C1566 1.415 . S
C1568 C1573 1.425 . S
C1568 C1575 1.409 1_655 S
C1569 H1561 0.930 . S
C1569 C1567 1.419 . S
C1569 C1570 1.362 . S
C1570 H1562 0.930 . S
C1570 C1569 1.362 . S
C1570 C1573 1.409 . S
C1571 H1563 0.930 . S
C1571 C1572 1.355 . S
C1571 C1573 1.415 1_455 S
C1572 C1571 1.355 . S
C1572 C1574 1.419 . S
C1573 C1568 1.425 . S
C1573 C1570 1.409 . S
C1573 C1571 1.415 1_655 S
C1574 H1564 0.930 . S
C1574 C1572 1.419 . S
C1574 C1575 1.362 . S
C1575 H1565 0.930 . S
C1575 C1568 1.409 1_455 S
C1575 C1574 1.362 . S
H1576 C1582 0.930 . S
H1577 C1585 0.930 . S
H1578 C1586 0.930 . S
H1579 C1587 0.930 . S
H1580 C1590 0.930 . S
H1581 C1591 0.930 . S
C1582 H1576 0.930 . S
C1582 C1583 1.355 . S
C1582 C1584 1.415 . S
C1583 C1582 1.355 . S
C1583 C1585 1.419 . S
C1584 C1582 1.415 . S
C1584 C1589 1.425 . S
C1584 C1591 1.409 1_554 S
C1585 H1577 0.930 . S
C1585 C1583 1.419 . S
C1585 C1586 1.362 . S
C1586 H1578 0.930 . S
C1586 C1585 1.362 . S
C1586 C1589 1.409 . S
C1587 H1579 0.930 . S
C1587 C1588 1.355 1_554 S
C1587 C1589 1.415 . S
C1588 C1587 1.355 1_556 S
C1588 C1590 1.419 . S
C1589 C1584 1.425 . S
C1589 C1586 1.409 . S
C1589 C1587 1.415 . S
C1590 H1580 0.930 . S
C1590 C1588 1.419 . S
C1590 C1591 1.362 . S
C1591 H1581 0.930 . S
C1591 C1584 1.409 1_556 S
C1591 C1590 1.362 . S
H1592 C1598 0.930 . S
H1593 C1601 0.930 . S
H1594 C1602 0.930 . S
H1595 C1603 0.930 . S
H1596 C1606 0.930 . S
H1597 C1607 0.930 . S
C1598 H1592 0.930 . S
C1598 C1599 1.355 . S
C1598 C1600 1.415 . S
C1599 C1598 1.355 . S
C1599 C1601 1.419 . S
C1600 C1598 1.415 . S
C1600 C1605 1.425 . S
C1600 C1607 1.409 . S
C1601 H1593 0.930 . S
C1601 C1599 1.419 . S
C1601 C1602 1.362 . S
C1602 H1594 0.930 . S
C1602 C1601 1.362 . S
C1602 C1605 1.409 . S
C1603 H1595 0.930 . S
C1603 C1604 1.355 . S
C1603 C1605 1.415 . S
C1604 C1603 1.355 . S
C1604 C1606 1.419 . S
C1605 C1600 1.425 . S
C1605 C1602 1.409 . S
C1605 C1603 1.415 . S
C1606 H1596 0.930 . S
C1606 C1604 1.419 . S
C1606 C1607 1.362 . S
C1607 H1597 0.930 . S
C1607 C1600 1.409 . S
C1607 C1606 1.362 . S
H1608 C1614 0.930 . S
H1609 C1617 0.930 . S
H1610 C1618 0.930 . S
H1611 C1619 0.930 . S
H1612 C1622 0.930 . S
H1613 C1623 0.930 . S
C1614 H1608 0.930 . S
C1614 C1615 1.355 . S
C1614 C1616 1.415 . S
C1615 C1614 1.355 . S
C1615 C1617 1.419 . S
C1616 C1614 1.415 . S
C1616 C1621 1.425 . S
C1616 C1623 1.409 . S
C1617 H1609 0.930 . S
C1617 C1615 1.419 . S
C1617 C1618 1.362 . S
C1618 H1610 0.930 . S
C1618 C1617 1.362 . S
C1618 C1621 1.409 . S
C1619 H1611 0.930 . S
C1619 C1620 1.355 . S
C1619 C1621 1.415 . S
C1620 C1619 1.355 . S
C1620 C1622 1.419 . S
C1621 C1616 1.425 . S
C1621 C1618 1.409 . S
C1621 C1619 1.415 . S
C1622 H1612 0.930 . S
C1622 C1620 1.419 . S
C1622 C1623 1.362 . S
C1623 H1613 0.930 . S
C1623 C1616 1.409 . S
C1623 C1622 1.362 . S
H1624 C1630 0.930 . S
H1625 C1633 0.930 . S
H1626 C1634 0.930 . S
H1627 C1635 0.930 . S
H1628 C1638 0.930 . S
H1629 C1639 0.930 . S
C1630 H1624 0.930 . S
C1630 C1631 1.355 . S
C1630 C1632 1.415 . S
C1631 C1630 1.355 . S
C1631 C1633 1.419 . S
C1632 C1630 1.415 . S
C1632 C1637 1.425 . S
C1632 C1639 1.409 . S
C1633 H1625 0.930 . S
C1633 C1631 1.419 . S
C1633 C1634 1.362 . S
C1634 H1626 0.930 . S
C1634 C1633 1.362 . S
C1634 C1637 1.409 . S
C1635 H1627 0.930 . S
C1635 C1636 1.355 . S
C1635 C1637 1.415 . S
C1636 C1635 1.355 . S
C1636 C1638 1.419 . S
C1637 C1632 1.425 . S
C1637 C1634 1.409 . S
C1637 C1635 1.415 . S
C1638 H1628 0.930 . S
C1638 C1636 1.419 . S
C1638 C1639 1.362 . S
C1639 H1629 0.930 . S
C1639 C1632 1.409 . S
C1639 C1638 1.362 . S
H1640 C1646 0.930 . S
H1641 C1649 0.930 . S
H1642 C1650 0.930 . S
H1643 C1651 0.930 . S
H1644 C1654 0.930 . S
H1645 C1655 0.930 . S
C1646 H1640 0.930 . S
C1646 C1647 1.355 . S
C1646 C1648 1.415 . S
C1647 C1646 1.355 . S
C1647 C1649 1.419 . S
C1648 C1646 1.415 . S
C1648 C1653 1.425 . S
C1648 C1655 1.409 . S
C1649 H1641 0.930 . S
C1649 C1647 1.419 . S
C1649 C1650 1.362 . S
C1650 H1642 0.930 . S
C1650 C1649 1.362 . S
C1650 C1653 1.409 . S
C1651 H1643 0.930 . S
C1651 C1652 1.355 . S
C1651 C1653 1.415 . S
C1652 C1651 1.355 . S
C1652 C1654 1.419 . S
C1653 C1648 1.425 . S
C1653 C1650 1.409 . S
C1653 C1651 1.415 . S
C1654 H1644 0.930 . S
C1654 C1652 1.419 . S
C1654 C1655 1.362 . S
C1655 H1645 0.930 . S
C1655 C1648 1.409 . S
C1655 C1654 1.362 . S
H1656 C1662 0.930 . S
H1657 C1665 0.930 . S
H1658 C1666 0.930 . S
H1659 C1667 0.930 . S
H1660 C1670 0.930 . S
H1661 C1671 0.930 1_655 S
C1662 H1656 0.930 . S
C1662 C1663 1.355 . S
C1662 C1664 1.415 1_655 S
C1663 C1662 1.355 . S
C1663 C1665 1.419 1_655 S
C1664 C1662 1.415 1_455 S
C1664 C1669 1.425 . S
C1664 C1671 1.409 . S
C1665 H1657 0.930 . S
C1665 C1663 1.419 1_455 S
C1665 C1666 1.362 . S
C1666 H1658 0.930 . S
C1666 C1665 1.362 . S
C1666 C1669 1.409 . S
C1667 H1659 0.930 . S
C1667 C1668 1.355 . S
C1667 C1669 1.415 . S
C1668 C1667 1.355 . S
C1668 C1670 1.419 . S
C1669 C1664 1.425 . S
C1669 C1666 1.409 . S
C1669 C1667 1.415 . S
C1670 H1660 0.930 . S
C1670 C1668 1.419 . S
C1670 C1671 1.362 . S
C1671 H1661 0.930 1_455 S
C1671 C1664 1.409 . S
C1671 C1670 1.362 . S
H1672 C1678 0.926 1_556 S
H1673 C1681 0.930 . S
H1674 C1682 0.930 . S
H1675 C1683 0.930 . S
H1676 C1686 0.930 . S
H1677 C1687 0.930 . S
C1678 H1672 0.926 1_554 S
C1678 C1679 1.380 . S
C1678 C1680 1.393 1_554 S
C1679 C1678 1.380 . S
C1679 C1681 1.419 . S
C1680 C1678 1.393 1_556 S
C1680 C1685 1.425 . S
C1680 C1687 1.409 . S
C1681 H1673 0.930 . S
C1681 C1679 1.419 . S
C1681 C1682 1.362 . S
C1682 H1674 0.930 . S
C1682 C1681 1.362 . S
C1682 C1685 1.409 1_554 S
C1683 H1675 0.930 . S
C1683 C1684 1.355 . S
C1683 C1685 1.415 . S
C1684 C1683 1.355 . S
C1684 C1686 1.419 . S
C1685 C1680 1.425 . S
C1685 C1682 1.409 1_556 S
C1685 C1683 1.415 . S
C1686 H1676 0.930 . S
C1686 C1684 1.419 . S
C1686 C1687 1.362 . S
C1687 H1677 0.930 . S
C1687 C1680 1.409 . S
C1687 C1686 1.362 . S
H1688 C1694 0.930 . S
H1689 C1697 0.930 . S
H1690 C1698 0.930 1_545 S
H1691 C1699 0.930 . S
H1692 C1702 0.930 . S
H1693 C1703 0.930 . S
C1694 H1688 0.930 . S
C1694 C1695 1.355 . S
C1694 C1696 1.415 . S
C1695 C1694 1.355 . S
C1695 C1697 1.419 . S
C1696 C1694 1.415 . S
C1696 C1701 1.425 . S
C1696 C1703 1.409 . S
C1697 H1689 0.930 . S
C1697 C1695 1.419 . S
C1697 C1698 1.362 . S
C1698 H1690 0.930 1_565 S
C1698 C1697 1.362 . S
C1698 C1701 1.409 . S
C1699 H1691 0.930 . S
C1699 C1700 1.355 . S
C1699 C1701 1.415 1_545 S
C1700 C1699 1.355 . S
C1700 C1702 1.419 1_545 S
C1701 C1696 1.425 . S
C1701 C1698 1.409 . S
C1701 C1699 1.415 1_565 S
C1702 H1692 0.930 . S
C1702 C1700 1.419 1_565 S
C1702 C1703 1.362 . S
C1703 H1693 0.930 . S
C1703 C1696 1.409 . S
C1703 C1702 1.362 . S
H1704 C1710 0.930 . S
H1705 C1713 0.930 . S
H1706 C1714 0.930 . S
H1707 C1715 0.930 . S
H1708 C1718 0.930 . S
H1709 C1719 0.930 . S
C1710 H1704 0.930 . S
C1710 C1711 1.355 . S
C1710 C1712 1.415 . S
C1711 C1710 1.355 . S
C1711 C1713 1.419 . S
C1712 C1710 1.415 . S
C1712 C1717 1.425 . S
C1712 C1719 1.409 . S
C1713 H1705 0.930 . S
C1713 C1711 1.419 . S
C1713 C1714 1.362 . S
C1714 H1706 0.930 . S
C1714 C1713 1.362 . S
C1714 C1717 1.409 . S
C1715 H1707 0.930 . S
C1715 C1716 1.355 . S
C1715 C1717 1.415 . S
C1716 C1715 1.355 . S
C1716 C1718 1.419 . S
C1717 C1712 1.425 . S
C1717 C1714 1.409 . S
C1717 C1715 1.415 . S
C1718 H1708 0.930 . S
C1718 C1716 1.419 . S
C1718 C1719 1.362 . S
C1719 H1709 0.930 . S
C1719 C1712 1.409 . S
C1719 C1718 1.362 . S
H1720 C1726 0.930 . S
H1721 C1729 0.930 . S
H1722 C1730 0.930 1_565 S
H1723 C1731 0.930 . S
H1724 C1734 0.930 . S
H1725 C1735 0.930 . S
C1726 H1720 0.930 . S
C1726 C1727 1.355 . S
C1726 C1728 1.415 . S
C1727 C1726 1.355 . S
C1727 C1729 1.419 . S
C1728 C1726 1.415 . S
C1728 C1733 1.425 . S
C1728 C1735 1.409 . S
C1729 H1721 0.930 . S
C1729 C1727 1.419 . S
C1729 C1730 1.362 . S
C1730 H1722 0.930 1_545 S
C1730 C1729 1.362 . S
C1730 C1733 1.409 . S
C1731 H1723 0.930 . S
C1731 C1732 1.355 . S
C1731 C1733 1.415 1_565 S
C1732 C1731 1.355 . S
C1732 C1734 1.419 1_565 S
C1733 C1728 1.425 . S
C1733 C1730 1.409 . S
C1733 C1731 1.415 1_545 S
C1734 H1724 0.930 . S
C1734 C1732 1.419 1_545 S
C1734 C1735 1.362 . S
C1735 H1725 0.930 . S
C1735 C1728 1.409 . S
C1735 C1734 1.362 . S
H1736 C1742 0.930 . S
H1737 C1745 0.930 . S
H1738 C1746 0.930 . S
H1739 C1747 0.930 . S
H1740 C1750 0.930 . S
H1741 C1751 0.930 . S
C1742 H1736 0.930 . S
C1742 C1743 1.355 . S
C1742 C1744 1.415 . S
C1743 C1742 1.355 . S
C1743 C1745 1.419 . S
C1744 C1742 1.415 . S
C1744 C1749 1.425 . S
C1744 C1751 1.409 . S
C1745 H1737 0.930 . S
C1745 C1743 1.419 . S
C1745 C1746 1.362 . S
C1746 H1738 0.930 . S
C1746 C1745 1.362 . S
C1746 C1749 1.409 . S
C1747 H1739 0.930 . S
C1747 C1748 1.355 . S
C1747 C1749 1.415 . S
C1748 C1747 1.355 . S
C1748 C1750 1.419 . S
C1749 C1744 1.425 . S
C1749 C1746 1.409 . S
C1749 C1747 1.415 . S
C1750 H1740 0.930 . S
C1750 C1748 1.419 . S
C1750 C1751 1.362 . S
C1751 H1741 0.930 . S
C1751 C1744 1.409 . S
C1751 C1750 1.362 . S
C799 N431 1.613 . S
C804 C18 1.550 . S
C815 C51 1.622 . S
C820 N464 1.652 . S
C831 C84 1.603 . S
C836 N497 1.634 . S
C847 N398 1.616 . S
C852 C117 1.569 . S
C863 N365 1.662 . S
C868 C150 1.613 . S
C879 N266 1.621 . S
C884 C183 1.582 . S
C895 C216 1.610 . S
C900 N299 1.661 . S
C911 N332 1.645 . S
C916 C249 1.575 . S
C927 C282 1.575 . S
C932 N35 1.645 . S
C943 C315 1.625 . S
C948 N68 1.658 . S
C959 C348 1.622 . S
C964 N101 1.651 . S
C975 N2 1.662 . S
C980 C381 1.622 . S
C991 N233 1.644 . S
C996 C414 1.574 . S
C1007 C447 1.565 . S
C1012 N134 1.637 . S
C1023 C480 1.625 . S
C1028 N167 1.657 . S
C1039 N200 1.613 . S
C1044 C513 1.554 . S
C1055 N728 1.613 . S
C1060 C546 1.561 . S
C1071 C579 1.622 . S
C1076 N596 1.663 . S
C1087 C612 1.617 . S
C1092 N629 1.663 . S
C1103 N662 1.655 . S
C1108 C645 1.594 . S
C1119 C678 1.555 . S
C1124 N563 1.613 . S
C1135 N761 1.640 . S
C1140 C711 1.568 . S
C1151 C744 1.565 . S
C1156 N695 1.637 . S
C1167 N530 1.613 . S
C1172 C777 1.559 . S
C1183 N541 0.979 . S
C1188 C7 1.041 . S
C1199 N772 1.018 . S
C1204 C40 1.008 . S
C1215 C73 1.016 . S
C1220 N706 1.004 . S
C1231 N739 1.074 . S
C1236 C106 1.010 . S
C1247 N574 1.083 . S
C1252 C139 1.016 . S
C1263 N607 1.043 . S
C1268 C172 1.095 . S
C1279 N640 0.978 . S
C1284 C205 1.080 . S
C1295 C238 1.098 . S
C1300 N673 1.034 . S
C1311 C271 1.026 . S
C1316 N13 1.089 . S
C1327 C304 1.033 . S
C1332 N46 1.092 . S
C1343 C337 1.088 . S
C1348 N79 0.985 . S
C1359 C370 1.045 . S
C1364 N112 0.976 . S
C1375 C403 1.060 . S
C1380 N145 1.088 . S
C1391 N178 0.993 . S
C1396 C436 1.092 . S
C1407 N211 1.025 . S
C1412 C469 1.099 . S
C1423 C502 1.038 . S
C1428 N244 1.092 . S
C1439 N277 0.998 . S
C1444 C535 1.020 . S
C1455 N409 0.989 . S
C1460 C568 1.091 . S
C1471 N442 0.978 . S
C1476 C601 1.080 . S
C1487 N475 0.973 . S
C1492 C634 1.067 . S
C1503 C667 1.064 . S
C1508 N508 1.086 . S
C1519 C700 1.088 . S
C1524 N343 1.062 . S
C1535 C733 1.071 . S
C1540 N376 1.081 . S
C1551 N310 0.979 . S
C1556 C766 1.081 . S
C1567 C681 1.266 . S
C1572 C21 1.257 . S
C1583 C54 1.286 . S
C1588 C582 1.258 . S
C1599 C615 1.257 . S
C1604 C87 1.267 . S
C1615 C120 1.297 . S
C1620 C648 1.263 . S
C1631 C780 1.308 . S
C1636 C153 1.340 . S
C1647 C714 1.257 . S
C1652 C186 1.266 . S
C1663 C219 1.302 . S
C1668 C747 1.266 . S
C1679 C549 1.342 . S
C1684 C252 1.343 . S
C1695 C516 1.290 . S
C1700 C285 1.328 . S
C1711 C417 1.342 . S
C1716 C318 1.311 . S
C1727 C450 1.315 . S
C1732 C351 1.343 . S
C1743 C483 1.339 . S
C1748 C384 1.344 . S
