# Generated by pormake.
# Topology vbe, (5)-cn, num edge types: 1
# Building blocks:
#     Node 0, Type 0, BuildingBlock: BEQFEK_clean_sbu_0, # of connection points: 5
#     Node 1, Type 0, BuildingBlock: BEQFEK_clean_sbu_0, # of connection points: 5
#     Node 2, Type 0, BuildingBlock: BEQFEK_clean_sbu_0, # of connection points: 5
#     Node 3, Type 0, BuildingBlock: BEQFEK_clean_sbu_0, # of connection points: 5
#     Node 4, Type 0, BuildingBlock: BEQFEK_clean_sbu_0, # of connection points: 5
#     Node 5, Type 0, BuildingBlock: BEQFEK_clean_sbu_0, # of connection points: 5
#     Node 6, Type 0, BuildingBlock: BEQFEK_clean_sbu_0, # of connection points: 5
#     Node 7, Type 0, BuildingBlock: BEQFEK_clean_sbu_0, # of connection points: 5
#     Node 8, Type 0, BuildingBlock: BEQFEK_clean_sbu_0, # of connection points: 5
#     Node 9, Type 0, BuildingBlock: BEQFEK_clean_sbu_0, # of connection points: 5
#     Node 10, Type 0, BuildingBlock: BEQFEK_clean_sbu_0, # of connection points: 5
#     Node 11, Type 0, BuildingBlock: BEQFEK_clean_sbu_0, # of connection points: 5
#     Node 12, Type 0, BuildingBlock: BEQFEK_clean_sbu_0, # of connection points: 5
#     Node 13, Type 0, BuildingBlock: BEQFEK_clean_sbu_0, # of connection points: 5
#     Node 14, Type 0, BuildingBlock: BEQFEK_clean_sbu_0, # of connection points: 5
#     Node 15, Type 0, BuildingBlock: BEQFEK_clean_sbu_0, # of connection points: 5
#     Edge 16, Type (0, 0), BuildingBlock: CIFDUS_clean_linker_0, # of connection points: 2
#     Edge 17, Type (0, 0), BuildingBlock: CIFDUS_clean_linker_0, # of connection points: 2
#     Edge 18, Type (0, 0), BuildingBlock: CIFDUS_clean_linker_0, # of connection points: 2
#     Edge 19, Type (0, 0), BuildingBlock: CIFDUS_clean_linker_0, # of connection points: 2
#     Edge 20, Type (0, 0), BuildingBlock: CIFDUS_clean_linker_0, # of connection points: 2
#     Edge 21, Type (0, 0), BuildingBlock: CIFDUS_clean_linker_0, # of connection points: 2
#     Edge 22, Type (0, 0), BuildingBlock: CIFDUS_clean_linker_0, # of connection points: 2
#     Edge 23, Type (0, 0), BuildingBlock: CIFDUS_clean_linker_0, # of connection points: 2
#     Edge 24, Type (0, 0), BuildingBlock: CIFDUS_clean_linker_0, # of connection points: 2
#     Edge 25, Type (0, 0), BuildingBlock: CIFDUS_clean_linker_0, # of connection points: 2
#     Edge 26, Type (0, 0), BuildingBlock: CIFDUS_clean_linker_0, # of connection points: 2
#     Edge 27, Type (0, 0), BuildingBlock: CIFDUS_clean_linker_0, # of connection points: 2
#     Edge 28, Type (0, 0), BuildingBlock: CIFDUS_clean_linker_0, # of connection points: 2
#     Edge 29, Type (0, 0), BuildingBlock: CIFDUS_clean_linker_0, # of connection points: 2
#     Edge 30, Type (0, 0), BuildingBlock: CIFDUS_clean_linker_0, # of connection points: 2
#     Edge 31, Type (0, 0), BuildingBlock: CIFDUS_clean_linker_0, # of connection points: 2
#     Edge 32, Type (0, 0), BuildingBlock: CIFDUS_clean_linker_0, # of connection points: 2
#     Edge 33, Type (0, 0), BuildingBlock: CIFDUS_clean_linker_0, # of connection points: 2
#     Edge 34, Type (0, 0), BuildingBlock: CIFDUS_clean_linker_0, # of connection points: 2
#     Edge 35, Type (0, 0), BuildingBlock: CIFDUS_clean_linker_0, # of connection points: 2
#     Edge 36, Type (0, 0), BuildingBlock: CIFDUS_clean_linker_0, # of connection points: 2
#     Edge 37, Type (0, 0), BuildingBlock: CIFDUS_clean_linker_0, # of connection points: 2
#     Edge 38, Type (0, 0), BuildingBlock: CIFDUS_clean_linker_0, # of connection points: 2
#     Edge 39, Type (0, 0), BuildingBlock: CIFDUS_clean_linker_0, # of connection points: 2
#     Edge 40, Type (0, 0), BuildingBlock: CIFDUS_clean_linker_0, # of connection points: 2
#     Edge 41, Type (0, 0), BuildingBlock: CIFDUS_clean_linker_0, # of connection points: 2
#     Edge 42, Type (0, 0), BuildingBlock: CIFDUS_clean_linker_0, # of connection points: 2
#     Edge 43, Type (0, 0), BuildingBlock: CIFDUS_clean_linker_0, # of connection points: 2
#     Edge 44, Type (0, 0), BuildingBlock: CIFDUS_clean_linker_0, # of connection points: 2
#     Edge 45, Type (0, 0), BuildingBlock: CIFDUS_clean_linker_0, # of connection points: 2
#     Edge 46, Type (0, 0), BuildingBlock: CIFDUS_clean_linker_0, # of connection points: 2
#     Edge 47, Type (0, 0), BuildingBlock: CIFDUS_clean_linker_0, # of connection points: 2
#     Edge 48, Type (0, 0), BuildingBlock: CIFDUS_clean_linker_0, # of connection points: 2
#     Edge 49, Type (0, 0), BuildingBlock: CIFDUS_clean_linker_0, # of connection points: 2
#     Edge 50, Type (0, 0), BuildingBlock: CIFDUS_clean_linker_0, # of connection points: 2
#     Edge 51, Type (0, 0), BuildingBlock: CIFDUS_clean_linker_0, # of connection points: 2
#     Edge 52, Type (0, 0), BuildingBlock: CIFDUS_clean_linker_0, # of connection points: 2
#     Edge 53, Type (0, 0), BuildingBlock: CIFDUS_clean_linker_0, # of connection points: 2
#     Edge 54, Type (0, 0), BuildingBlock: CIFDUS_clean_linker_0, # of connection points: 2
#     Edge 55, Type (0, 0), BuildingBlock: CIFDUS_clean_linker_0, # of connection points: 2
# Relax obj value: 0.321
# Max RMSD: 0.199
# Mean RMSD: 0.199
data_MOF--net-vbe--node1-BEQFEK_clean_sbu_0--edge1-CIFDUS_clean_linker_0
_symmetry_space_group_name_H-M    P1
_symmetry_Int_Tables_number       1
_symmetry_cell_setting            triclinic
loop_
_symmetry_equiv_pos_as_xyz
'x, y, z'
_cell_length_a     39.729201
_cell_length_b     36.037249
_cell_length_c     52.338141
_cell_angle_alpha  90.021343
_cell_angle_beta   89.916856
_cell_angle_gamma 89.932047
loop_
_atom_site_label
_atom_site_type_symbol
_atom_site_fract_x
_atom_site_fract_y
_atom_site_fract_z
_atom_type_partial_charge
Co0 Co 0.09619 0.11971 0.3291 0.0
Co1 Co 0.05598 0.07401 0.37012 0.0
C2 C 0.04532 0.15589 0.36303 0.0
O3 O 0.06848 0.1582 0.34627 0.0
O4 O 0.03776 0.1251 0.37345 0.0
C5 C 0.13452 0.17763 0.30438 0.0
O6 O 0.12869 0.19657 0.32538 0.0
C7 C 0.03532 0.05164 0.42199 0.0
C8 C 0.01609 0.99504 0.41493 0.0
C9 C 0.02154 0.02089 0.43407 0.0
N10 N 0.03835 0.04399 0.39694 0.0
N11 N 0.0267 0.01017 0.39285 0.0
C12 C 0.04462 0.08803 0.43386 0.0
H13 H 0.04458 0.11049 0.41948 0.0
H14 H 0.07039 0.08609 0.44188 0.0
H15 H 0.02697 0.09508 0.44959 0.0
C16 C 0.15334 0.0809 0.3526 0.0
N17 N 0.12071 0.09085 0.35242 0.0
N18 N 0.10424 0.07199 0.36995 0.0
C19 C 0.12624 0.04979 0.38228 0.0
C20 C 0.15808 0.05449 0.37163 0.0
C21 C 0.17776 0.09226 0.33222 0.0
H22 H 0.16546 0.09038 0.31326 0.0
H23 H 0.18508 0.12162 0.33533 0.0
H24 H 0.20064 0.07467 0.33199 0.0
O25 O 0.06627 0.0872 0.30935 0.0
O26 O 0.03731 0.05429 0.33771 0.0
H27 H 0.09976 0.00177 0.39543 0.0
H28 H 0.13899 0.01031 0.41207 0.0
C29 C 0.11666 0.02349 0.40319 0.0
H30 H 0.10291 0.0388 0.41826 0.0
H31 H 0.02609 0.99737 0.37498 0.0
O32 O 0.12474 0.14415 0.30303 0.0
C33 C 0.0443 0.06279 0.31471 0.0
Co34 Co 0.39492 0.88324 0.33067 0.0
Co35 Co 0.43778 0.92842 0.37001 0.0
C36 C 0.4401 0.8457 0.36913 0.0
O37 O 0.41846 0.84478 0.35119 0.0
O38 O 0.45029 0.8763 0.37862 0.0
C39 C 0.3519 0.82659 0.30872 0.0
O40 O 0.35714 0.80821 0.33003 0.0
C41 C 0.46346 0.95895 0.41832 0.0
C42 C 0.47716 0.01584 0.40637 0.0
C43 C 0.47602 0.99245 0.42733 0.0
N44 N 0.45742 0.96257 0.39321 0.0
N45 N 0.46597 0.99648 0.38614 0.0
C46 C 0.45406 0.92531 0.43348 0.0
H47 H 0.47639 0.90696 0.43521 0.0
H48 H 0.43385 0.90963 0.42363 0.0
H49 H 0.44556 0.93321 0.45294 0.0
C50 C 0.3407 0.92996 0.35136 0.0
N51 N 0.37266 0.91771 0.3515 0.0
N52 N 0.39005 0.93605 0.36873 0.0
C53 C 0.36924 0.96013 0.38067 0.0
C54 C 0.33728 0.95719 0.37 0.0
C55 C 0.31541 0.91872 0.33162 0.0
H56 H 0.32786 0.91624 0.31273 0.0
H57 H 0.30493 0.89118 0.33674 0.0
H58 H 0.29458 0.93907 0.32999 0.0
O59 O 0.42797 0.90876 0.30902 0.0
O60 O 0.45938 0.93964 0.33678 0.0
H61 H 0.39581 0.00765 0.39439 0.0
H62 H 0.35764 0.9975 0.41192 0.0
C63 C 0.37969 0.98513 0.40206 0.0
H64 H 0.39446 0.96913 0.41618 0.0
H65 H 0.46337 0.00668 0.36759 0.0
O66 O 0.36423 0.85887 0.30622 0.0
C67 C 0.45256 0.93005 0.31401 0.0
Co68 Co 0.60778 0.87829 0.16599 0.0
Co69 Co 0.56582 0.92795 0.12841 0.0
C70 C 0.55963 0.84594 0.12728 0.0
O71 O 0.58156 0.84293 0.14486 0.0
O72 O 0.55059 0.87747 0.11875 0.0
C73 C 0.64822 0.81627 0.18126 0.0
O74 O 0.64327 0.8055 0.15758 0.0
C75 C 0.53969 0.95901 0.0808 0.0
C76 C 0.52501 0.01565 0.09265 0.0
C77 C 0.52584 0.99193 0.07182 0.0
N78 N 0.54652 0.96316 0.10574 0.0
N79 N 0.53754 0.99698 0.11277 0.0
C80 C 0.54925 0.92523 0.06578 0.0
H81 H 0.57051 0.91059 0.07513 0.0
H82 H 0.55645 0.93278 0.04595 0.0
H83 H 0.52747 0.90602 0.06507 0.0
C84 C 0.66317 0.92442 0.14593 0.0
N85 N 0.63101 0.91283 0.1456 0.0
N86 N 0.6138 0.93276 0.12908 0.0
C87 C 0.63483 0.95714 0.11779 0.0
C88 C 0.66681 0.95295 0.12824 0.0
C89 C 0.68847 0.91145 0.16515 0.0
H90 H 0.67576 0.90465 0.18342 0.0
H91 H 0.70087 0.88592 0.15789 0.0
H92 H 0.70795 0.93282 0.16879 0.0
O93 O 0.57673 0.90481 0.18905 0.0
O94 O 0.54619 0.93884 0.16235 0.0
H95 H 0.60912 0.00639 0.10605 0.0
H96 H 0.64649 0.99609 0.08751 0.0
C97 C 0.62442 0.98387 0.0974 0.0
H98 H 0.60882 0.96934 0.08305 0.0
H99 H 0.54029 0.00741 0.13125 0.0
O100 O 0.63745 0.84794 0.18822 0.0
C101 C 0.55312 0.92787 0.18483 0.0
Co102 Co 0.90808 0.12222 0.16344 0.0
Co103 Co 0.94746 0.06932 0.12587 0.0
C104 C 0.96088 0.15042 0.12682 0.0
O105 O 0.93829 0.15559 0.14372 0.0
O106 O 0.96739 0.11824 0.11819 0.0
C107 C 0.8714 0.18734 0.17849 0.0
O108 O 0.87741 0.19739 0.15479 0.0
C109 C 0.97286 0.03978 0.07742 0.0
C110 C 0.98548 0.98185 0.08757 0.0
C111 C 0.98579 0.00696 0.06755 0.0
N112 N 0.96494 0.03413 0.10208 0.0
N113 N 0.97257 -0.0005 0.10805 0.0
C114 C 0.97041 0.07686 0.06464 0.0
H115 H 0.98973 0.09552 0.0729 0.0
H116 H 0.94539 0.08934 0.06863 0.0
H117 H 0.97473 0.07527 0.04377 0.0
C118 C 0.85032 0.08105 0.14217 0.0
N119 N 0.88301 0.09079 0.14185 0.0
N120 N 0.89928 0.06986 0.1253 0.0
C121 C 0.87713 0.04695 0.11388 0.0
C122 C 0.84537 0.0528 0.12441 0.0
C123 C 0.82589 0.09453 0.16193 0.0
H124 H 0.83928 0.10132 0.17989 0.0
H125 H 0.81344 0.12009 0.15484 0.0
H126 H 0.80632 0.07345 0.16611 0.0
O127 O 0.93542 0.09116 0.18645 0.0
O128 O 0.964 0.05432 0.16007 0.0
H129 H 0.90041 0.99599 0.10256 0.0
H130 H 0.86393 0.00848 0.08371 0.0
C131 C 0.88648 0.01935 0.09369 0.0
H132 H 0.90309 0.0327 0.0794 0.0
H133 H 0.96917 0.98799 0.12617 0.0
O134 O 0.88017 0.15504 0.18568 0.0
C135 C 0.95669 0.06532 0.18253 0.0
Co136 Co 0.88239 0.85959 0.67285 0.0
Co137 Co 0.92258 0.91037 0.63502 0.0
C138 C 0.93758 0.8293 0.63976 0.0
O139 O 0.91382 0.82461 0.65577 0.0
O140 O 0.944 0.86109 0.6304 0.0
C141 C 0.84181 0.79833 0.68986 0.0
O142 O 0.84609 0.786 0.66645 0.0
C143 C 0.94614 0.93595 0.58515 0.0
C144 C 0.9578 0.99494 0.59263 0.0
C145 C 0.95701 0.96837 0.57351 0.0
N146 N 0.94009 0.94326 0.60989 0.0
N147 N 0.94738 0.97845 0.61432 0.0
C148 C 0.94268 0.89814 0.57354 0.0
H149 H 0.95872 0.87831 0.58421 0.0
H150 H 0.91624 0.88863 0.57542 0.0
H151 H 0.95049 0.89752 0.55322 0.0
C152 C 0.82482 0.89558 0.64788 0.0
N153 N 0.85789 0.88785 0.64922 0.0
N154 N 0.87443 0.90861 0.63279 0.0
C155 C 0.85209 0.92969 0.61991 0.0
C156 C 0.8199 0.92238 0.62915 0.0
C157 C 0.79971 0.88199 0.66709 0.0
H158 H 0.81127 0.88154 0.68635 0.0
H159 H 0.79227 0.85322 0.66211 0.0
H160 H 0.7769 0.89969 0.66782 0.0
O161 O 0.90781 0.8932 0.69524 0.0
O162 O 0.93705 0.92927 0.6689 0.0
H163 H 0.87585 0.98042 0.60876 0.0
H164 H 0.83906 0.96878 0.59 0.0
C165 C 0.86151 0.95742 0.59985 0.0
H166 H 0.87776 0.94394 0.58538 0.0
H167 H 0.94478 0.99134 0.63207 0.0
O168 O 0.85356 0.82991 0.69585 0.0
C169 C 0.92855 0.91947 0.69136 0.0
Co170 Co 0.60409 0.13308 0.67223 0.0
Co171 Co 0.56656 0.08662 0.63042 0.0
C172 C 0.55899 0.16826 0.63228 0.0
O173 O 0.57895 0.16973 0.65128 0.0
O174 O 0.55133 0.13758 0.62168 0.0
C175 C 0.64546 0.19215 0.69144 0.0
O176 O 0.64435 0.20411 0.66774 0.0
C177 C 0.54454 0.05525 0.58128 0.0
C178 C 0.53414 0.99717 0.5924 0.0
C179 C 0.53412 0.02114 0.57172 0.0
N180 N 0.5504 0.0514 0.60641 0.0
N181 N 0.54392 0.01673 0.61296 0.0
C182 C 0.55193 0.09005 0.56673 0.0
H183 H 0.571 0.10691 0.57695 0.0
H184 H 0.56115 0.0835 0.54721 0.0
H185 H 0.52853 0.10673 0.56515 0.0
C186 C 0.66241 0.09169 0.65218 0.0
N187 N 0.62975 0.10142 0.65146 0.0
N188 N 0.61451 0.08297 0.63314 0.0
C189 C 0.6374 0.06153 0.62106 0.0
C190 C 0.66851 0.06613 0.63283 0.0
C191 C 0.68602 0.1036 0.6729 0.0
H192 H 0.67214 0.10698 0.69113 0.0
H193 H 0.69721 0.13076 0.66768 0.0
H194 H 0.70654 0.08313 0.67575 0.0
O195 O 0.57208 0.1039 0.69269 0.0
O196 O 0.54399 0.07309 0.66286 0.0
H197 H 0.61524 0.01299 0.60473 0.0
H198 H 0.65299 0.02841 0.58855 0.0
C199 C 0.62971 0.03765 0.59842 0.0
H200 H 0.61418 0.05344 0.58465 0.0
H201 H 0.54672 0.00627 0.63142 0.0
O202 O 0.63158 0.16143 0.69696 0.0
C203 C 0.54899 0.08146 0.68613 0.0
Co204 Co 0.39094 0.12382 0.82977 0.0
Co205 Co 0.43058 0.07239 0.86754 0.0
C206 C 0.44132 0.15515 0.86599 0.0
O207 O 0.41874 0.15965 0.849 0.0
O208 O 0.44838 0.1231 0.87486 0.0
C209 C 0.3537 0.18424 0.80632 0.0
O210 O 0.36188 0.20334 0.82678 0.0
C211 C 0.45101 0.0431 0.91719 0.0
C212 C 0.46933 0.98705 0.907 0.0
C213 C 0.46452 0.01085 0.92748 0.0
N214 N 0.44809 0.03848 0.89185 0.0
N215 N 0.45923 0.00503 0.88583 0.0
C216 C 0.43868 0.07678 0.93107 0.0
H217 H 0.41865 0.09077 0.91985 0.0
H218 H 0.42896 0.06926 0.95027 0.0
H219 H 0.45986 0.09654 0.9334 0.0
C220 C 0.33306 0.08623 0.8534 0.0
N221 N 0.36622 0.09314 0.85191 0.0
N222 N 0.38253 0.07049 0.86723 0.0
C223 C 0.3601 0.04777 0.87865 0.0
C224 C 0.32792 0.05702 0.87026 0.0
C225 C 0.30706 0.10667 0.83824 0.0
H226 H 0.31222 0.13688 0.83908 0.0
H227 H 0.28131 0.10135 0.84559 0.0
H228 H 0.30863 0.09786 0.81795 0.0
O229 O 0.42138 0.09397 0.80794 0.0
O230 O 0.44978 0.0576 0.83442 0.0
H231 H 0.34839 0.99583 0.89777 0.0
H232 H 0.3793 0.02474 0.9133 0.0
C233 C 0.36981 0.01494 0.89456 0.0
H234 H 0.39032 -0.00057 0.88492 0.0
H235 H 0.45956 0.99433 0.8673 0.0
O236 O 0.36196 0.15024 0.80494 0.0
C237 C 0.44353 0.06916 0.812 0.0
Co238 Co 0.10132 0.86215 0.82444 0.0
Co239 Co 0.06062 0.91623 0.85982 0.0
C240 C 0.04668 0.83357 0.85777 0.0
O241 O 0.07075 0.82757 0.84224 0.0
O242 O 0.04 0.86619 0.86577 0.0
C243 C 0.13784 0.80006 0.80265 0.0
O244 O 0.12871 0.782 0.82333 0.0
C245 C 0.03963 0.94669 0.90944 0.0
C246 C 0.01493 0.999 0.89784 0.0
C247 C 0.02236 0.97733 0.91898 0.0
N248 N 0.04227 0.95033 0.88396 0.0
N249 N 0.02764 0.98175 0.87717 0.0
C250 C 0.0518 0.91341 0.92382 0.0
H251 H 0.03341 0.90549 0.93884 0.0
H252 H 0.05615 0.88974 0.91071 0.0
H253 H 0.07609 0.92015 0.93315 0.0
C254 C 0.15827 0.90037 0.84754 0.0
N255 N 0.12536 0.89203 0.84732 0.0
N256 N 0.10876 0.91622 0.86135 0.0
C257 C 0.13078 0.94138 0.87057 0.0
C258 C 0.16294 0.93229 0.86195 0.0
C259 C 0.18399 0.88082 0.83151 0.0
H260 H 0.18007 0.88815 0.81113 0.0
H261 H 0.18081 0.85039 0.8335 0.0
H262 H 0.20995 0.88857 0.83721 0.0
O263 O 0.07496 0.89422 0.80133 0.0
O264 O 0.04558 0.93284 0.82575 0.0
H265 H 0.10048 0.9905 0.87173 0.0
H266 H 0.14179 0.99614 0.88571 0.0
C267 C 0.12034 0.97681 0.88326 0.0
H268 H 0.10952 0.9704 0.90229 0.0
H269 H 0.02578 0.99109 0.85836 0.0
O270 O 0.13067 0.83427 0.80068 0.0
C271 C 0.05419 0.92085 0.80385 0.0
Co272 Co 0.60422 0.63651 0.32347 0.0
Co273 Co 0.56336 0.58977 0.36364 0.0
C274 C 0.55991 0.67262 0.36303 0.0
O275 O 0.58101 0.67423 0.34477 0.0
O276 O 0.55038 0.64167 0.37221 0.0
C277 C 0.64722 0.69474 0.30568 0.0
O278 O 0.64534 0.70573 0.32958 0.0
C279 C 0.54264 0.56275 0.41429 0.0
C280 C 0.52416 0.50641 0.40529 0.0
C281 C 0.52965 0.53077 0.42534 0.0
N282 N 0.54535 0.55716 0.38896 0.0
N283 N 0.53403 0.52355 0.3837 0.0
C284 C 0.55105 0.59872 0.42711 0.0
H285 H 0.53764 0.62166 0.41739 0.0
H286 H 0.57846 0.60404 0.42529 0.0
H287 H 0.54363 0.599 0.44752 0.0
C288 C 0.65922 0.58837 0.34127 0.0
N289 N 0.62775 0.60182 0.34343 0.0
N290 N 0.61118 0.5828 0.36083 0.0
C291 C 0.63207 0.55705 0.37081 0.0
C292 C 0.66316 0.55947 0.35861 0.0
C293 C 0.68302 0.59966 0.32046 0.0
H294 H 0.66886 0.60506 0.30261 0.0
H295 H 0.69585 0.62572 0.32613 0.0
H296 H 0.70221 0.578 0.31663 0.0
O297 O 0.57089 0.60989 0.30255 0.0
O298 O 0.54115 0.57723 0.33067 0.0
H299 H 0.60461 0.50947 0.38344 0.0
H300 H 0.64451 0.51589 0.39949 0.0
C301 C 0.62228 0.5303 0.39137 0.0
H302 H 0.60939 0.54541 0.40699 0.0
H303 H 0.53342 0.51215 0.36537 0.0
O304 O 0.63337 0.66432 0.29934 0.0
C305 C 0.54725 0.58733 0.30779 0.0
Co306 Co 0.90116 0.37983 0.31761 0.0
Co307 Co 0.93946 0.4304 0.35701 0.0
C308 C 0.95138 0.34902 0.35526 0.0
O309 O 0.92952 0.34485 0.33775 0.0
O310 O 0.95796 0.3808 0.36449 0.0
C311 C 0.86447 0.31619 0.30055 0.0
O312 O 0.86839 0.30583 0.32444 0.0
C313 C 0.96266 0.45734 0.40657 0.0
C314 C 0.97539 0.51585 0.39827 0.0
C315 C 0.97464 0.48971 0.41765 0.0
N316 N 0.95613 0.46426 0.38186 0.0
N317 N 0.96389 0.4992 0.37697 0.0
C318 C 0.95972 0.41959 0.41833 0.0
H319 H 0.97897 0.40114 0.40967 0.0
H320 H 0.93463 0.40772 0.41389 0.0
H321 H 0.96382 0.41985 0.43924 0.0
C322 C 0.84295 0.42229 0.3379 0.0
N323 N 0.87541 0.4115 0.33882 0.0
N324 N 0.89134 0.43135 0.35612 0.0
C325 C 0.86921 0.45456 0.36735 0.0
C326 C 0.83788 0.45017 0.35593 0.0
C327 C 0.81889 0.40984 0.31765 0.0
H328 H 0.83271 0.40315 0.29981 0.0
H329 H 0.8059 0.38435 0.32428 0.0
H330 H 0.79973 0.43142 0.31354 0.0
O331 O 0.93095 0.41042 0.29596 0.0
O332 O 0.95854 0.44575 0.32375 0.0
H333 H 0.89304 0.5043 0.38031 0.0
H334 H 0.85533 0.49227 0.39786 0.0
C335 C 0.87812 0.48104 0.38832 0.0
H336 H 0.89358 0.46658 0.40282 0.0
H337 H 0.96136 0.51165 0.35907 0.0
O338 O 0.87412 0.34845 0.29396 0.0
C339 C 0.95264 0.43538 0.30095 0.0
Co340 Co 0.10516 0.37415 0.16134 0.0
Co341 Co 0.07059 0.42253 0.11904 0.0
C342 C 0.05673 0.34154 0.12329 0.0
O343 O 0.07739 0.33825 0.14176 0.0
O344 O 0.05131 0.37268 0.11254 0.0
C345 C 0.13894 0.313 0.1866 0.0
O346 O 0.1332 0.2946 0.16537 0.0
C347 C 0.05102 0.44929 0.06835 0.0
C348 C 0.04308 0.50908 0.07574 0.0
C349 C 0.04223 0.48249 0.05663 0.0
N350 N 0.05674 0.45609 0.09318 0.0
N351 N 0.05178 0.4918 0.09753 0.0
C352 C 0.05696 0.41235 0.05605 0.0
H353 H 0.07586 0.3963 0.06708 0.0
H354 H 0.06577 0.41574 0.03605 0.0
H355 H 0.03307 0.39644 0.05598 0.0
C356 C 0.16602 0.40918 0.1402 0.0
N357 N 0.13279 0.40218 0.13965 0.0
N358 N 0.11866 0.42167 0.12131 0.0
C359 C 0.14281 0.44106 0.10908 0.0
C360 C 0.17362 0.43406 0.12075 0.0
C361 C 0.18875 0.39596 0.16113 0.0
H362 H 0.17526 0.39702 0.17968 0.0
H363 H 0.19587 0.36668 0.15738 0.0
H364 H 0.21187 0.41299 0.16263 0.0
O365 O 0.07512 0.40727 0.18059 0.0
O366 O 0.04948 0.44092 0.15094 0.0
H367 H 0.12287 0.49121 0.09334 0.0
H368 H 0.16023 0.47437 0.07724 0.0
C369 C 0.13645 0.46604 0.08676 0.0
H370 H 0.12052 0.4515 0.07262 0.0
H371 H 0.05478 0.50443 0.11532 0.0
O372 O 0.13069 0.34701 0.18791 0.0
C373 C 0.05411 0.43219 0.17419 0.0
Co374 Co 0.38949 0.63885 0.16623 0.0
Co375 Co 0.42994 0.5951 0.12457 0.0
C376 C 0.43429 0.67794 0.129 0.0
O377 O 0.41285 0.67871 0.14712 0.0
O378 O 0.44353 0.64753 0.11874 0.0
C379 C 0.34754 0.69365 0.19123 0.0
O380 O 0.35034 0.71242 0.16981 0.0
C381 C 0.45211 0.57481 0.07315 0.0
C382 C 0.46735 0.51628 0.07825 0.0
C383 C 0.46465 0.5442 0.06015 0.0
N384 N 0.44769 0.56538 0.09775 0.0
N385 N 0.45705 0.53046 0.10074 0.0
C386 C 0.4414 0.6113 0.06218 0.0
H387 H 0.4205 0.62325 0.07364 0.0
H388 H 0.43325 0.60812 0.04203 0.0
H389 H 0.46294 0.63084 0.06285 0.0
C390 C 0.33295 0.59798 0.14371 0.0
N391 N 0.36556 0.60772 0.14415 0.0
N392 N 0.38205 0.58952 0.12628 0.0
C393 C 0.36007 0.56782 0.11353 0.0
C394 C 0.32823 0.57249 0.12415 0.0
C395 C 0.30796 0.60994 0.16354 0.0
H396 H 0.31972 0.60873 0.18272 0.0
H397 H 0.30049 0.63912 0.15982 0.0
H398 H 0.2852 0.59219 0.16364 0.0
O399 O 0.42263 0.60978 0.18559 0.0
O400 O 0.45207 0.57849 0.15666 0.0
H401 H 0.38592 0.52061 0.09841 0.0
H402 H 0.34688 0.53126 0.08218 0.0
C403 C 0.36939 0.54331 0.09153 0.0
H404 H 0.38351 0.55964 0.07717 0.0
H405 H 0.45588 0.51615 0.11804 0.0
O406 O 0.36065 0.66158 0.19273 0.0
C407 C 0.44597 0.58714 0.17979 0.0
Co408 Co 0.38425 0.37647 0.66564 0.0
Co409 Co 0.42986 0.42098 0.62737 0.0
C410 C 0.43458 0.3382 0.63208 0.0
O411 O 0.41083 0.3372 0.6484 0.0
O412 O 0.44488 0.36873 0.62269 0.0
C413 C 0.34436 0.3187 0.68895 0.0
O414 O 0.35167 0.29965 0.66826 0.0
C415 C 0.45581 0.44284 0.57704 0.0
C416 C 0.47312 0.50015 0.58428 0.0
C417 C 0.46966 0.47375 0.56522 0.0
N418 N 0.45068 0.45094 0.60181 0.0
N419 N 0.4614 0.48509 0.60607 0.0
C420 C 0.44852 0.40567 0.56549 0.0
H421 H 0.46181 0.3839 0.57652 0.0
H422 H 0.42115 0.39986 0.56684 0.0
H423 H 0.45687 0.40387 0.54532 0.0
C424 C 0.3308 0.41843 0.63985 0.0
N425 N 0.36303 0.40754 0.6419 0.0
N426 N 0.38169 0.42589 0.62539 0.0
C427 C 0.3615 0.44861 0.61176 0.0
C428 C 0.32857 0.44476 0.62051 0.0
C429 C 0.304 0.40749 0.65855 0.0
H430 H 0.3148 0.40585 0.67803 0.0
H431 H 0.29431 0.37961 0.65339 0.0
H432 H 0.28282 0.42753 0.65887 0.0
O433 O 0.41346 0.40681 0.68732 0.0
O434 O 0.44682 0.43849 0.66119 0.0
H435 H 0.39007 0.4955 0.59924 0.0
H436 H 0.35243 0.48708 0.58061 0.0
C437 C 0.37358 0.4738 0.59095 0.0
H438 H 0.38848 0.4576 0.57698 0.0
H439 H 0.46014 0.49835 0.62378 0.0
O440 O 0.35326 0.35248 0.69028 0.0
C441 C 0.43691 0.43011 0.68361 0.0
Co442 Co 0.09201 0.60364 0.66602 0.0
Co443 Co 0.04784 0.55651 0.62858 0.0
C444 C 0.03697 0.63837 0.63532 0.0
O445 O 0.06172 0.6415 0.65061 0.0
O446 O 0.02893 0.60718 0.62571 0.0
C447 C 0.13352 0.66191 0.68758 0.0
O448 O 0.12667 0.6804 0.66659 0.0
C449 C 0.01911 0.53542 0.57934 0.0
C450 C 0.00523 0.47675 0.58577 0.0
C451 C 0.00526 0.50456 0.56752 0.0
N452 N 0.02735 0.52605 0.60336 0.0
N453 N 0.01884 0.49104 0.60716 0.0
C454 C 0.02289 0.57387 0.56885 0.0
H455 H 0.04935 0.58312 0.57115 0.0
H456 H 0.01527 0.57587 0.54856 0.0
H457 H 0.0068 0.59306 0.58007 0.0
C458 C 0.14663 0.56534 0.6387 0.0
N459 N 0.11405 0.57475 0.64125 0.0
N460 N 0.09582 0.55566 0.62492 0.0
C461 C 0.11654 0.53424 0.61076 0.0
C462 C 0.14948 0.53937 0.61912 0.0
C463 C 0.17315 0.57655 0.65752 0.0
H464 H 0.16237 0.57698 0.67706 0.0
H465 H 0.18194 0.60498 0.65288 0.0
H466 H 0.19495 0.55736 0.65745 0.0
O467 O 0.06562 0.57083 0.68817 0.0
O468 O 0.0337 0.53692 0.6624 0.0
H469 H 0.09075 0.48521 0.59874 0.0
H470 H 0.12621 0.49763 0.5787 0.0
C471 C 0.10485 0.50861 0.5901 0.0
H472 H 0.08771 0.52372 0.57708 0.0
H473 H 0.0225 0.47686 0.62431 0.0
O474 O 0.12301 0.62882 0.68986 0.0
C475 C 0.04364 0.54578 0.68468 0.0
Co476 Co 0.88508 0.61716 0.82766 0.0
Co477 Co 0.93 0.56385 0.8601 0.0
C478 C 0.94418 0.64503 0.85828 0.0
O479 O 0.91868 0.65061 0.84406 0.0
O480 O 0.95187 0.61258 0.86588 0.0
C481 C 0.84519 0.68151 0.81541 0.0
O482 O 0.85436 0.69325 0.83812 0.0
C483 C 0.96199 0.53252 0.90531 0.0
C484 C 0.96971 0.47399 0.89402 0.0
C485 C 0.97409 0.49867 0.91405 0.0
N486 N 0.95102 0.52796 0.88129 0.0
N487 N 0.956 0.49305 0.87451 0.0
C488 C 0.9574 0.5677 0.92015 0.0
H489 H 0.93658 0.58441 0.91193 0.0
H490 H 0.95191 0.56167 0.94053 0.0
H491 H 0.98087 0.58428 0.91903 0.0
C492 C 0.83122 0.5758 0.85393 0.0
N493 N 0.86367 0.58574 0.85135 0.0
N494 N 0.88247 0.56489 0.86623 0.0
C495 C 0.86229 0.54211 0.87977 0.0
C496 C 0.82908 0.54773 0.87217 0.0
C497 C 0.80415 0.58842 0.836 0.0
H498 H 0.81509 0.59555 0.81716 0.0
H499 H 0.79185 0.61355 0.84398 0.0
H500 H 0.78483 0.56665 0.83311 0.0
O501 O 0.90722 0.58625 0.8017 0.0
O502 O 0.93954 0.54836 0.82439 0.0
H503 H 0.88696 0.49122 0.88942 0.0
H504 H 0.85395 0.50462 0.91148 0.0
C505 C 0.87473 0.51496 0.89923 0.0
H506 H 0.89354 0.52854 0.91167 0.0
H507 H 0.94933 0.48206 0.85678 0.0
O508 O 0.85364 0.64909 0.80836 0.0
C509 C 0.92828 0.55974 0.80302 0.0
Co510 Co 0.59766 0.3732 0.82915 0.0
Co511 Co 0.55145 0.42735 0.86019 0.0
C512 C 0.53973 0.3453 0.86036 0.0
O513 O 0.56565 0.33917 0.84668 0.0
O514 O 0.53116 0.37809 0.86649 0.0
C515 C 0.63815 0.30925 0.81716 0.0
O516 O 0.6287 0.29769 0.83987 0.0
C517 C 0.51983 0.45417 0.90655 0.0
C518 C 0.50671 0.51221 0.89729 0.0
C519 C 0.50528 0.48597 0.91664 0.0
N520 N 0.52924 0.46123 0.8824 0.0
N521 N 0.52112 0.49587 0.87685 0.0
C522 C 0.52821 0.41885 0.92022 0.0
H523 H 0.55043 0.40535 0.91129 0.0
H524 H 0.53351 0.42418 0.94071 0.0
H525 H 0.50654 0.39957 0.9188 0.0
C526 C 0.65062 0.41713 0.85445 0.0
N527 N 0.61833 0.40659 0.85191 0.0
N528 N 0.59904 0.42808 0.86605 0.0
C529 C 0.61872 0.45206 0.87898 0.0
C530 C 0.65213 0.44638 0.87183 0.0
C531 C 0.67822 0.40356 0.83726 0.0
H532 H 0.66786 0.39574 0.81838 0.0
H533 H 0.69002 0.37864 0.84592 0.0
H534 H 0.69781 0.42502 0.83429 0.0
O535 O 0.57377 0.40204 0.80293 0.0
O536 O 0.54109 0.44148 0.82424 0.0
H537 H 0.5924 0.50263 0.88685 0.0
H538 H 0.6261 0.49254 0.90911 0.0
C539 C 0.60561 0.48033 0.89747 0.0
H540 H 0.58743 0.46708 0.91062 0.0
H541 H 0.52593 0.5085 0.85928 0.0
O542 O 0.62977 0.34163 0.80997 0.0
C543 C 0.55237 0.42833 0.80329 0.0
H544 H 0.93459 0.05467 0.23093 0.0
H545 H 0.02261 0.04545 0.18302 0.0
H546 H 0.05804 0.03727 0.22072 0.0
H547 H 0.06467 0.04433 0.26718 0.0
H548 H 0.97669 0.05195 0.31519 0.0
H549 H 0.94034 0.0482 0.2776 0.0
C550 C 0.96142 0.04994 0.2288 0.0
C551 C 0.97617 0.05138 0.20441 0.0
C552 C 0.98158 0.04521 0.25053 0.0
C553 C 0.0108 0.04461 0.20168 0.0
C554 C 0.03108 0.04017 0.22322 0.0
C555 C 0.03751 0.04397 0.26939 0.0
C556 C 0.02325 0.04895 0.2937 0.0
C557 C 0.01688 0.0421 0.24773 0.0
C558 C 0.98812 0.04809 0.29657 0.0
C559 C 0.96737 0.04636 0.27508 0.0
H560 H 0.57006 0.93579 0.23467 0.0
H561 H 0.48627 0.94333 0.18259 0.0
H562 H 0.44731 0.94892 0.21852 0.0
H563 H 0.4367 0.94308 0.26462 0.0
H564 H 0.52047 0.938 0.31682 0.0
H565 H 0.55994 0.94068 0.28098 0.0
C566 C 0.54332 0.93935 0.23125 0.0
C567 C 0.53092 0.93855 0.20615 0.0
C568 C 0.52112 0.94275 0.25197 0.0
C569 C 0.49635 0.94379 0.20181 0.0
C570 C 0.47405 0.94676 0.22233 0.0
C571 C 0.46362 0.94334 0.2681 0.0
C572 C 0.47577 0.93981 0.29315 0.0
C573 C 0.48607 0.94499 0.24747 0.0
C574 C 0.51061 0.9407 0.29761 0.0
C575 C 0.53316 0.94194 0.27714 0.0
H576 H 0.99469 0.93498 0.69441 0.0
H577 H 0.90273 0.93543 0.73819 0.0
H578 H 0.93467 0.9445 0.77761 0.0
H579 H 0.98875 0.93995 0.79992 0.0
H580 H 0.08045 0.92999 0.75632 0.0
H581 H 0.04896 0.93765 0.71656 0.0
C582 C 0.98168 0.93834 0.71252 0.0
C583 C 0.94656 0.93453 0.71357 0.0
C584 C 0.00031 0.94124 0.73517 0.0
C585 C 0.92984 0.93823 0.73708 0.0
C586 C 0.94809 0.94318 0.75959 0.0
C587 C 0.00187 0.94064 0.78172 0.0
C588 C 0.03671 0.93428 0.78088 0.0
C589 C 0.98338 0.94289 0.75896 0.0
C590 C 0.05353 0.93465 0.75727 0.0
C591 C 0.03553 0.93887 0.73458 0.0
H592 H 0.56287 0.06173 0.73485 0.0
H593 H 0.48147 0.07345 0.68106 0.0
H594 H 0.44041 0.06561 0.71547 0.0
H595 H 0.42825 0.06504 0.7616 0.0
H596 H 0.50967 0.05062 0.81515 0.0
H597 H 0.55015 0.04899 0.78005 0.0
C598 C 0.53612 0.06173 0.73067 0.0
C599 C 0.52506 0.06873 0.70569 0.0
C600 C 0.51274 0.05693 0.75048 0.0
C601 C 0.49046 0.06816 0.70025 0.0
C602 C 0.46701 0.06391 0.71991 0.0
C603 C 0.45477 0.06061 0.76547 0.0
C604 C 0.46608 0.05858 0.79084 0.0
C605 C 0.4779 0.05969 0.74522 0.0
C606 C 0.50039 0.05231 0.79573 0.0
C607 C 0.5236 0.05171 0.77569 0.0
H608 H 0.5635 0.57583 0.25818 0.0
H609 H 0.47999 0.57389 0.3109 0.0
H610 H 0.44059 0.56833 0.27527 0.0
H611 H 0.42988 0.57382 0.22915 0.0
H612 H 0.51336 0.57423 0.17638 0.0
H613 H 0.55291 0.56977 0.21201 0.0
C614 C 0.5367 0.57342 0.26183 0.0
C615 C 0.52452 0.57593 0.287 0.0
C616 C 0.51427 0.57019 0.24128 0.0
C617 C 0.48988 0.57214 0.29164 0.0
C618 C 0.46735 0.5692 0.27128 0.0
C619 C 0.45672 0.57203 0.22548 0.0
C620 C 0.46881 0.57494 0.2003 0.0
C621 C 0.47923 0.56965 0.24602 0.0
C622 C 0.50352 0.57206 0.19564 0.0
C623 C 0.52614 0.56985 0.21601 0.0
H624 H 0.936 0.44591 0.25128 0.0
H625 H 0.01888 0.45293 0.30419 0.0
H626 H 0.05846 0.45859 0.26868 0.0
H627 H 0.06984 0.45002 0.22285 0.0
H628 H 0.98706 0.44503 0.1698 0.0
H629 H 0.94695 0.45094 0.20505 0.0
C630 C 0.96265 0.44965 0.25497 0.0
C631 C 0.97468 0.44828 0.28016 0.0
C632 C 0.98523 0.45293 0.23447 0.0
C633 C 0.00911 0.45376 0.28488 0.0
C634 C 0.03177 0.45672 0.2646 0.0
C635 C 0.04302 0.45136 0.21903 0.0
C636 C 0.03126 0.44652 0.19398 0.0
C637 C 0.02021 0.45464 0.23935 0.0
C638 C 0.99659 0.44871 0.18903 0.0
C639 C 0.97367 0.45172 0.20918 0.0
H640 H 0.489 0.45292 0.79455 0.0
H641 H 0.58323 0.42936 0.75688 0.0
H642 H 0.55628 0.43574 0.71519 0.0
H643 H 0.50414 0.43696 0.68995 0.0
H644 H 0.40908 0.45291 0.72817 0.0
H645 H 0.43794 0.46137 0.76895 0.0
C646 C 0.50378 0.45026 0.77719 0.0
C647 C 0.53791 0.4404 0.77871 0.0
C648 C 0.48778 0.45223 0.75333 0.0
C649 C 0.55678 0.43664 0.75611 0.0
C650 C 0.54138 0.44017 0.73228 0.0
C651 C 0.48996 0.4435 0.7071 0.0
C652 C 0.45468 0.4443 0.70622 0.0
C653 C 0.50661 0.44634 0.73068 0.0
C654 C 0.43634 0.45213 0.72855 0.0
C655 C 0.4528 0.45675 0.75186 0.0
H656 H 0.99077 0.53186 0.79557 0.0
H657 H 0.89759 0.55568 0.75667 0.0
H658 H 0.92453 0.54404 0.71545 0.0
H659 H 0.97672 0.53903 0.69061 0.0
H660 H 0.07115 0.52401 0.72965 0.0
H661 H 0.04172 0.51918 0.77059 0.0
C662 C 0.97619 0.53347 0.77809 0.0
C663 C 0.94243 0.54499 0.77904 0.0
C664 C 0.99224 0.52853 0.75445 0.0
C665 C 0.92378 0.54726 0.75631 0.0
C666 C 0.93916 0.54066 0.73276 0.0
C667 C 0.99061 0.5333 0.70801 0.0
C668 C 0.02588 0.5318 0.70731 0.0
C669 C 0.97372 0.53297 0.73156 0.0
C670 C 0.04389 0.52516 0.72991 0.0
C671 C 0.02711 0.52273 0.75329 0.0
H672 H 0.14801 0.25117 0.29819 0.0
H673 H 0.14511 0.14724 0.25719 0.0
H674 H 0.15107 0.18015 0.21676 0.0
H675 H 0.1486 0.23868 0.19287 0.0
H676 H 0.14988 0.34264 0.2339 0.0
H677 H 0.15358 0.30943 0.27435 0.0
C678 C 0.14936 0.23563 0.28047 0.0
C679 C 0.14542 0.19685 0.28075 0.0
C680 C 0.15213 0.25477 0.25719 0.0
C681 C 0.14762 0.17716 0.25757 0.0
C682 C 0.15092 0.19597 0.23438 0.0
C683 C 0.15036 0.25412 0.21061 0.0
C684 C 0.14827 0.29308 0.21032 0.0
C685 C 0.15185 0.23484 0.23391 0.0
C686 C 0.15096 0.31261 0.23352 0.0
C687 C 0.15299 0.29364 0.25673 0.0
H688 H 0.33259 0.76673 0.19795 0.0
H689 H 0.33813 0.66235 0.23819 0.0
H690 H 0.3339 0.69472 0.27896 0.0
H691 H 0.33892 0.75289 0.30299 0.0
H692 H 0.336 0.85732 0.26265 0.0
H693 H 0.32826 0.82469 0.22228 0.0
C694 C 0.33205 0.75097 0.2156 0.0
C695 C 0.3365 0.71228 0.21502 0.0
C696 C 0.33052 0.76982 0.23905 0.0
C697 C 0.33534 0.69226 0.23808 0.0
C698 C 0.33302 0.71075 0.26146 0.0
C699 C 0.33576 0.76857 0.28547 0.0
C700 C 0.33886 0.80742 0.28578 0.0
C701 C 0.33222 0.74961 0.26218 0.0
C702 C 0.33433 0.82731 0.26291 0.0
C703 C 0.33 0.80868 0.23976 0.0
H704 H 0.65682 0.68022 0.25514 0.0
H705 H 0.66209 0.76833 0.31089 0.0
H706 H 0.66795 0.81395 0.27678 0.0
H707 H 0.6627 0.82949 0.23127 0.0
H708 H 0.65642 0.74143 0.17553 0.0
H709 H 0.66045 0.69526 0.20945 0.0
C710 C 0.6599 0.70933 0.25986 0.0
C711 C 0.65831 0.72087 0.28552 0.0
C712 C 0.66276 0.73554 0.24012 0.0
C713 C 0.6629 0.75864 0.29131 0.0
C714 C 0.66608 0.78484 0.27178 0.0
C715 C 0.66289 0.8002 0.22648 0.0
C716 C 0.65855 0.78899 0.20093 0.0
C717 C 0.66467 0.77373 0.24612 0.0
C718 C 0.6594 0.75092 0.19504 0.0
C719 C 0.66152 0.72442 0.21446 0.0
H720 H 0.85714 0.32722 0.24928 0.0
H721 H 0.85368 0.24194 0.30714 0.0
H722 H 0.85135 0.19426 0.27413 0.0
H723 H 0.8579 0.1765 0.22906 0.0
H724 H 0.86233 0.26176 0.17123 0.0
H725 H 0.8562 0.3095 0.20395 0.0
C726 C 0.85527 0.29825 0.2547 0.0
C727 C 0.85617 0.28824 0.2807 0.0
C728 C 0.85444 0.27083 0.23559 0.0
C729 C 0.85332 0.25054 0.28732 0.0
C730 C 0.85214 0.22316 0.26842 0.0
C731 C 0.85695 0.20549 0.22354 0.0
C732 C 0.86115 0.21546 0.19772 0.0
C733 C 0.85388 0.23292 0.24252 0.0
C734 C 0.85944 0.25319 0.19094 0.0
C735 C 0.85607 0.2806 0.20968 0.0
H736 H 0.82702 0.66661 0.76641 0.0
H737 H 0.83649 0.75649 0.8205 0.0
H738 H 0.83036 0.80148 0.78599 0.0
H739 H 0.83235 0.81479 0.74007 0.0
H740 H 0.82604 0.7247 0.68587 0.0
H741 H 0.82033 0.68041 0.72086 0.0
C742 C 0.82705 0.69604 0.77076 0.0
C743 C 0.83301 0.70813 0.79594 0.0
C744 C 0.82451 0.72176 0.75074 0.0
C745 C 0.83236 0.74636 0.80127 0.0
C746 C 0.82905 0.77215 0.7815 0.0
C747 C 0.82907 0.78554 0.73586 0.0
C748 C 0.83043 0.773 0.71039 0.0
C749 C 0.8267 0.76011 0.75607 0.0
C750 C 0.82552 0.7351 0.70529 0.0
C751 C 0.82241 0.7097 0.72531 0.0
H752 H 0.65836 0.32377 0.7685 0.0
H753 H 0.64523 0.23412 0.82229 0.0
H754 H 0.65184 0.18899 0.7879 0.0
H755 H 0.65163 0.17564 0.74192 0.0
H756 H 0.66249 0.26547 0.68798 0.0
H757 H 0.66701 0.30971 0.7231 0.0
C758 C 0.65763 0.29434 0.77282 0.0
C759 C 0.65052 0.2824 0.79786 0.0
C760 C 0.66062 0.26853 0.75285 0.0
C761 C 0.65027 0.24415 0.80317 0.0
C762 C 0.65386 0.21827 0.78346 0.0
C763 C 0.65564 0.20481 0.73783 0.0
C764 C 0.65594 0.2173 0.71234 0.0
C765 C 0.6575 0.23023 0.7581 0.0
C766 C 0.66176 0.2551 0.7074 0.0
C767 C 0.6642 0.28049 0.72749 0.0
H768 H 0.33335 0.24472 0.69542 0.0
H769 H 0.33357 0.34889 0.73621 0.0
H770 H 0.33154 0.31588 0.7768 0.0
H771 H 0.33923 0.25773 0.80057 0.0
H772 H 0.34042 0.15366 0.75965 0.0
H773 H 0.33191 0.18635 0.71945 0.0
C774 C 0.33217 0.26026 0.71314 0.0
C775 C 0.33442 0.2992 0.71272 0.0
C776 C 0.33175 0.2411 0.73651 0.0
C777 C 0.33238 0.31886 0.73592 0.0
C778 C 0.33138 0.3 0.75921 0.0
C779 C 0.33695 0.24212 0.78294 0.0
C780 C 0.34126 0.20337 0.78312 0.0
C781 C 0.33259 0.26114 0.75974 0.0
C782 C 0.33772 0.18357 0.76009 0.0
C783 C 0.33293 0.20225 0.73702 0.0
H784 H 0.14917 0.7352 0.69237 0.0
H785 H 0.14536 0.63258 0.73484 0.0
H786 H 0.15191 0.66656 0.77474 0.0
H787 H 0.14881 0.72576 0.79778 0.0
H788 H 0.15145 0.82845 0.75534 0.0
H789 H 0.15591 0.79405 0.71542 0.0
C790 C 0.15054 0.72017 0.71029 0.0
C791 C 0.14589 0.6815 0.71061 0.0
C792 C 0.15369 0.73993 0.7333 0.0
C793 C 0.14828 0.66244 0.73401 0.0
C794 C 0.15191 0.68185 0.75691 0.0
C795 C 0.15112 0.74066 0.77986 0.0
C796 C 0.14891 0.77959 0.77957 0.0
C797 C 0.15307 0.7207 0.75685 0.0
C798 C 0.15251 0.79843 0.75616 0.0
C799 C 0.15495 0.77879 0.73324 0.0
H800 H 0.96848 0.98439 0.45396 0.0
H801 H 0.05854 0.04326 0.47551 0.0
H802 H 0.04582 0.03313 0.52057 0.0
H803 H 0.00956 0.00632 0.55397 0.0
H804 H 0.91984 0.947 0.53239 0.0
H805 H 0.93214 0.95796 0.48724 0.0
C806 C 0.98527 0.99503 0.46856 0.0
C807 C 0.01392 0.01535 0.46143 0.0
C808 C 0.97806 0.9886 0.49441 0.0
C809 C 0.03564 0.02877 0.48047 0.0
C810 C 0.02861 0.02257 0.50627 0.0
C811 C 0.99281 0.99582 0.5393 0.0
C812 C 0.96442 0.97502 0.5463 0.0
C813 C -0.0001 0.00251 0.51345 0.0
C814 C 0.94252 0.96194 0.52731 0.0
C815 C 0.94936 0.96851 0.50155 0.0
H816 H 0.50801 0.95086 0.46327 0.0
H817 H 0.46415 0.05869 0.45014 0.0
H818 H 0.4783 0.07747 0.49368 0.0
H819 H 0.50185 0.06261 0.53569 0.0
H820 H 0.54652 0.95511 0.54868 0.0
H821 H 0.53223 0.93627 0.5052 0.0
C822 C 0.50105 0.97821 0.47009 0.0
C823 C 0.48452 0.00313 0.45375 0.0
C824 C 0.50933 0.98882 0.49509 0.0
C825 C 0.47678 0.039 0.46249 0.0
C826 C 0.48478 0.04972 0.48736 0.0
C827 C 0.50918 0.0354 0.52885 0.0
C828 C 0.52587 0.01059 0.54518 0.0
C829 C 0.50105 0.02485 0.50382 0.0
C830 C 0.53379 0.97478 0.53637 0.0
C831 C 0.5257 0.96401 0.51152 0.0
H832 H 0.49195 0.05677 0.96306 0.0
H833 H 0.45636 0.94499 0.95165 0.0
H834 H 0.47149 0.92919 0.99559 0.0
H835 H 0.49473 0.9473 0.03709 0.0
H836 H 0.53156 0.05867 0.04822 0.0
H837 H 0.51476 0.07503 0.00475 0.0
C838 C 0.48682 0.02922 0.97036 0.0
C839 C 0.4725 0.00226 0.95435 0.0
C840 C 0.49579 0.02031 0.99553 0.0
C841 C 0.46725 0.96623 0.96374 0.0
C842 C 0.47584 0.9572 0.98882 0.0
C843 C 0.49973 0.9749 0.02986 0.0
C844 C 0.51516 0.00145 0.0456 0.0
C845 C 0.49031 0.98397 0.00483 0.0
C846 C 0.51995 0.03766 0.03635 0.0
C847 C 0.51044 0.047 0.0115 0.0
H848 H 0.95319 0.02148 0.02326 0.0
H849 H 0.04399 0.97315 0.05355 0.0
H850 H 0.06377 0.95956 0.01017 0.0
H851 H 0.05566 0.96307 0.96371 0.0
H852 H 0.96433 0.01079 0.93357 0.0
H853 H 0.94488 0.02443 0.97682 0.0
C854 C 0.97757 0.0086 0.02027 0.0
C855 C -0.00243 0.99915 0.04137 0.0
C856 C 0.98868 0.00094 0.99537 0.0
C857 C 0.02842 0.981 0.03744 0.0
C858 C 0.03972 0.9733 0.01271 0.0
C859 C 0.03119 0.97565 0.96657 0.0
C860 C 0.01117 0.98514 0.94543 0.0
C861 C 0.02007 0.98321 0.99152 0.0
C862 C 0.98018 0.00306 0.94954 0.0
C863 C 0.96897 0.01077 0.97425 0.0
H864 H 0.47616 0.49533 0.44571 0.0
H865 H 0.57081 0.54583 0.46578 0.0
H866 H 0.5605 0.53264 0.51093 0.0
H867 H 0.52423 0.50705 0.54478 0.0
H868 H 0.42977 0.45617 0.52464 0.0
H869 H 0.44047 0.46859 0.47944 0.0
C870 C 0.49446 0.50342 0.46003 0.0
C871 C 0.52365 0.52256 0.45261 0.0
C872 C 0.48855 0.4953 0.48587 0.0
C873 C 0.54749 0.53241 0.47119 0.0
C874 C 0.54179 0.5245 0.49696 0.0
C875 C 0.50615 0.49854 0.53041 0.0
C876 C 0.47672 0.4799 0.53786 0.0
C877 C 0.51231 0.50615 0.50453 0.0
C878 C 0.45319 0.46939 0.51922 0.0
C879 C 0.45911 0.47686 0.49343 0.0
H880 H 0.03883 0.52543 0.52481 0.0
H881 H 0.94781 0.47236 0.55071 0.0
H882 H 0.92972 0.46359 0.5064 0.0
H883 H 0.93981 0.47156 0.46037 0.0
H884 H 0.03112 0.52398 0.43447 0.0
H885 H 0.04862 0.534 0.47879 0.0
C886 C 0.01472 0.51267 0.5207 0.0
C887 C 0.99419 0.50037 0.54083 0.0
C888 C 0.00461 0.50774 0.49527 0.0
C889 C 0.96374 0.48238 0.53538 0.0
C890 C 0.95342 0.47742 0.51012 0.0
C891 C 0.9638 0.48457 0.46451 0.0
C892 C 0.98468 0.49611 0.44437 0.0
C893 C 0.9737 0.48993 0.48993 0.0
C894 C 0.01493 0.5145 0.4498 0.0
C895 C 0.02494 0.52014 0.47507 0.0
H896 H 0.00685 0.43835 0.02406 0.0
H897 H 0.05789 0.54368 0.02899 0.0
H898 H 0.04243 0.55764 0.98485 0.0
H899 H 0.01394 0.5401 0.94514 0.0
H900 H 0.96239 0.4351 0.94036 0.0
H901 H 0.97987 0.41996 0.9839 0.0
C902 C 0.01532 0.46392 0.01531 0.0
C903 C 0.034 0.48965 0.02959 0.0
C904 C 0.00631 0.47175 0.98998 0.0
C905 C 0.04356 0.52339 0.01829 0.0
C906 C 0.03481 0.53136 0.99308 0.0
C907 C 0.00614 0.51416 0.95376 0.0
C908 C 0.98625 0.48914 0.93985 0.0
C909 C 0.01598 0.50586 0.97882 0.0
C910 C 0.97755 0.4549 0.95082 0.0
C911 C 0.9874 0.4463 0.97572 0.0
H912 H 0.51259 0.54802 0.94518 0.0
H913 H 0.46968 0.43817 0.94682 0.0
H914 H 0.45337 0.44671 0.99141 0.0
H915 H 0.45279 0.48471 0.03031 0.0
H916 H 0.49531 0.59473 0.02881 0.0
H917 H 0.50985 0.58713 0.98372 0.0
C918 C 0.49944 0.52611 0.95529 0.0
C919 C 0.49314 0.49217 0.943 0.0
C920 C 0.48998 0.53131 0.9809 0.0
C921 C 0.47585 0.46407 0.95617 0.0
C922 C 0.46628 0.46904 0.98159 0.0
C923 C 0.46517 0.50702 0.02005 0.0
C924 C 0.47258 0.54037 0.03271 0.0
C925 C 0.47362 0.50234 0.99424 0.0
C926 C 0.4886 0.56912 0.01929 0.0
C927 C 0.49718 0.56467 0.99357 0.0
H928 H 0.22247 0.07759 0.3777 0.0
H929 H 0.16132 0.97907 0.37322 0.0
H930 H 0.21151 0.94017 0.37599 0.0
H931 H 0.27302 0.93422 0.37592 0.0
H932 H 0.33451 0.03265 0.37422 0.0
H933 H 0.28427 0.07156 0.37792 0.0
C934 C 0.22026 0.04759 0.37751 0.0
C935 C 0.18833 0.03118 0.37555 0.0
C936 C 0.24935 0.02544 0.3779 0.0
C937 C 0.18561 0.99233 0.37529 0.0
C938 C 0.21431 0.97008 0.3766 0.0
C939 C 0.27533 0.9642 0.37646 0.0
C940 C 0.3073 0.98058 0.37487 0.0
C941 C 0.24632 0.98634 0.37738 0.0
C942 C 0.31015 0.0194 0.37583 0.0
C943 C 0.28142 0.04165 0.37768 0.0
H944 H 0.78025 0.07498 0.12058 0.0
H945 H 0.84277 0.97717 0.12353 0.0
H946 H 0.79304 0.93772 0.12195 0.0
H947 H 0.73158 0.93091 0.12261 0.0
H948 H 0.66901 0.02861 0.12607 0.0
H949 H 0.71863 0.06815 0.12216 0.0
C950 C 0.78289 0.04502 0.12082 0.0
C951 C 0.81513 0.02906 0.12176 0.0
C952 C 0.7541 0.02247 0.12114 0.0
C953 C 0.81829 0.9902 0.12205 0.0
C954 C 0.78983 0.96758 0.12147 0.0
C955 C 0.72889 0.96087 0.12251 0.0
C956 C 0.69672 0.9768 0.12436 0.0
C957 C 0.75761 0.98341 0.12141 0.0
C958 C 0.69347 0.01564 0.12406 0.0
C959 C 0.72186 0.03828 0.12211 0.0
H960 H 0.67491 0.99186 0.62559 0.0
H961 H 0.73243 0.09301 0.63051 0.0
H962 H 0.78483 0.05741 0.62861 0.0
H963 H 0.81377 0.99724 0.6292 0.0
H964 H 0.75662 0.89642 0.62061 0.0
H965 H 0.7042 0.93229 0.61993 0.0
C966 C 0.69889 0.00619 0.6255 0.0
C967 C 0.6999 0.04495 0.62837 0.0
C968 C 0.72881 0.98562 0.6239 0.0
C969 C 0.73114 0.0631 0.62872 0.0
C970 C 0.76104 0.04281 0.62755 0.0
C971 C 0.78994 0.98321 0.62637 0.0
C972 C 0.78891 0.9443 0.62496 0.0
C973 C 0.76013 0.00401 0.62564 0.0
C974 C 0.75783 0.9264 0.62189 0.0
C975 C 0.72796 0.94685 0.62152 0.0
H976 H 0.28788 0.03048 0.83318 0.0
H977 H 0.29846 0.03485 0.91501 0.0
H978 H 0.24753 0.99692 0.92007 0.0
H979 H 0.20047 0.96129 0.90066 0.0
H980 H 0.19008 0.95984 0.81869 0.0
H981 H 0.24011 0.99841 0.81413 0.0
C982 C 0.27869 0.02364 0.85213 0.0
C983 C 0.2966 0.03546 0.8737 0.0
C984 C 0.2495 0.0023 0.85479 0.0
C985 C 0.28497 0.02582 0.89815 0.0
C986 C 0.25589 0.00427 0.90102 0.0
C987 C 0.20924 0.96971 0.8819 0.0
C988 C 0.19218 0.95738 0.86001 0.0
C989 C 0.23803 0.99216 0.87943 0.0
C990 C 0.20335 0.9685 0.83574 0.0
C991 C 0.23182 0.99063 0.83313 0.0
H992 H 0.77175 0.43104 0.35926 0.0
H993 H 0.83804 0.52564 0.35675 0.0
H994 H 0.79005 0.56756 0.35987 0.0
H995 H 0.72903 0.57761 0.3616 0.0
H996 H 0.66215 0.48363 0.35907 0.0
H997 H 0.71026 0.44126 0.35986 0.0
C998 C 0.77556 0.46084 0.3594 0.0
C999 C 0.80839 0.47519 0.35828 0.0
C1000 C 0.74769 0.4849 0.36034 0.0
C1001 C 0.81308 0.51385 0.35836 0.0
C1002 C 0.78562 0.53788 0.35989 0.0
C1003 C 0.72507 0.54784 0.36124 0.0
C1004 C 0.69218 0.53375 0.36057 0.0
C1005 C 0.75282 0.52374 0.36072 0.0
C1006 C 0.68727 0.49514 0.36017 0.0
C1007 C 0.71477 0.4709 0.36035 0.0
H1008 H 0.32087 0.49796 0.11992 0.0
H1009 H 0.26589 0.60101 0.1163 0.0
H1010 H 0.21278 0.56698 0.11346 0.0
H1011 H 0.18211 0.50819 0.11631 0.0
H1012 H 0.23678 0.40482 0.11741 0.0
H1013 H 0.29023 0.43869 0.11686 0.0
C1014 C 0.2973 0.51286 0.11782 0.0
C1015 C 0.29706 0.55182 0.1185 0.0
C1016 C 0.26698 0.49311 0.11605 0.0
C1017 C 0.26645 0.57095 0.11609 0.0
C1018 C 0.23617 0.55155 0.11448 0.0
C1019 C 0.20571 0.49306 0.11567 0.0
C1020 C 0.20566 0.45415 0.11699 0.0
C1021 C 0.23612 0.51266 0.11506 0.0
C1022 C 0.23637 0.43486 0.11668 0.0
C1023 C 0.26684 0.45418 0.11633 0.0
H1024 H 0.26519 0.42082 0.61184 0.0
H1025 H 0.32525 0.52016 0.61611 0.0
H1026 H 0.27485 0.55834 0.61121 0.0
H1027 H 0.21314 0.56347 0.6111 0.0
H1028 H 0.15311 0.46402 0.61477 0.0
H1029 H 0.20361 0.42594 0.61079 0.0
C1030 C 0.26716 0.45084 0.61145 0.0
C1031 C 0.2988 0.46766 0.61417 0.0
C1032 C 0.23792 0.47258 0.61017 0.0
C1033 C 0.30122 0.50653 0.61353 0.0
C1034 C 0.27236 0.52839 0.61104 0.0
C1035 C 0.21121 0.53345 0.61077 0.0
C1036 C 0.1795 0.51661 0.61307 0.0
C1037 C 0.24052 0.51171 0.61011 0.0
C1038 C 0.17716 0.47771 0.61249 0.0
C1039 C 0.20609 0.45589 0.61056 0.0
H1040 H 0.71658 0.42515 0.88067 0.0
H1041 H 0.65385 0.52231 0.87319 0.0
H1042 H 0.7029 0.5622 0.87769 0.0
H1043 H 0.76428 0.56951 0.87908 0.0
H1044 H 0.82719 0.47195 0.87588 0.0
H1045 H 0.77797 0.43241 0.88048 0.0
C1046 C 0.71368 0.45507 0.88006 0.0
C1047 C 0.68152 0.47063 0.87697 0.0
C1048 C 0.74228 0.47785 0.88067 0.0
C1049 C 0.67811 0.50947 0.87638 0.0
C1050 C 0.70627 0.53238 0.87855 0.0
C1051 C 0.76718 0.53959 0.87943 0.0
C1052 C 0.79945 0.52386 0.87751 0.0
C1053 C 0.73855 0.51685 0.88005 0.0
C1054 C 0.80284 0.48502 0.87816 0.0
C1055 C 0.77459 0.46226 0.88038 0.0
H1056 H 0.06419 0.22812 0.36652 0.0
H1057 H 0.97758 0.15624 0.36886 0.0
H1058 H 0.9401 0.21007 0.36815 0.0
H1059 H 0.93215 0.27745 0.36221 0.0
H1060 H 0.01862 0.34957 0.36358 0.0
H1061 H 0.05598 0.29598 0.3678 0.0
C1062 C 0.03712 0.2244 0.36738 0.0
C1063 C 0.02358 0.18843 0.3675 0.0
C1064 C 0.01573 0.25548 0.36745 0.0
C1065 C 0.98852 0.18377 0.36885 0.0
C1066 C 0.96708 0.2145 0.36826 0.0
C1067 C 0.95914 0.28132 0.36392 0.0
C1068 C 0.97273 0.31719 0.36234 0.0
C1069 C 0.98041 0.25045 0.36687 0.0
C1070 C 0.00765 0.32212 0.36482 0.0
C1071 C 0.02902 0.2915 0.36707 0.0
H1072 H 0.5067 0.83548 0.37624 0.0
H1073 H 0.4119 0.77753 0.37559 0.0
H1074 H 0.44138 0.71793 0.37824 0.0
H1075 H 0.49411 0.6824 0.37454 0.0
H1076 H 0.58849 0.74066 0.36874 0.0
H1077 H 0.55952 0.79994 0.37509 0.0
C1078 C 0.49256 0.8098 0.37742 0.0
C1079 C 0.45724 0.81075 0.37598 0.0
C1080 C 0.50974 0.77567 0.37744 0.0
C1081 C 0.43913 0.77734 0.37684 0.0
C1082 C 0.45598 0.74332 0.3782 0.0
C1083 C 0.50835 0.70805 0.37533 0.0
C1084 C 0.54335 0.70729 0.37134 0.0
C1085 C 0.49129 0.7421 0.37762 0.0
C1086 C 0.56152 0.74068 0.37182 0.0
C1087 C 0.54495 0.77453 0.37536 0.0
H1088 H 0.49254 0.8393 0.12146 0.0
H1089 H 0.58523 0.77731 0.11773 0.0
H1090 H 0.55361 0.71936 0.1134 0.0
H1091 H 0.49991 0.68599 0.11674 0.0
H1092 H 0.40779 0.74761 0.127 0.0
H1093 H 0.43857 0.80605 0.12245 0.0
C1094 C 0.50571 0.81315 0.11898 0.0
C1095 C 0.54105 0.81239 0.11965 0.0
C1096 C 0.48737 0.77988 0.11802 0.0
C1097 C 0.55799 0.77839 0.1171 0.0
C1098 C 0.53992 0.74532 0.11477 0.0
C1099 C 0.48652 0.71224 0.11736 0.0
C1100 C 0.45169 0.71265 0.12208 0.0
C1101 C 0.50464 0.74563 0.11609 0.0
C1102 C 0.43464 0.74675 0.12337 0.0
C1103 C 0.45224 0.78011 0.12085 0.0
H1104 H 0.94276 0.22198 0.1184 0.0
H1105 H 0.02849 0.14861 0.12035 0.0
H1106 H 0.0666 0.20166 0.11727 0.0
H1107 H 0.07528 0.26936 0.11934 0.0
H1108 H 0.98971 0.34255 0.11394 0.0
H1109 H 0.95171 0.28923 0.11263 0.0
C1110 C 0.96978 0.21771 0.11761 0.0
C1111 C 0.98292 0.18168 0.11989 0.0
C1112 C 0.99149 0.24826 0.11537 0.0
C1113 C 0.01789 0.1762 0.11858 0.0
C1114 C 0.03967 0.20651 0.11699 0.0
C1115 C 0.04836 0.27347 0.11729 0.0
C1116 C 0.03518 0.30962 0.11698 0.0
C1117 C 0.02675 0.24271 0.11615 0.0
C1118 C 0.00035 0.31486 0.11411 0.0
C1119 C 0.97862 0.28442 0.11357 0.0
H1120 H 0.92084 0.757 0.63336 0.0
H1121 H 0.00548 0.83169 0.63427 0.0
H1122 H 0.04437 0.7791 0.63178 0.0
H1123 H 0.05415 0.71143 0.63317 0.0
H1124 H 0.96932 0.63715 0.62871 0.0
H1125 H 0.93067 0.68988 0.62845 0.0
C1126 C 0.9478 0.76166 0.63261 0.0
C1127 C 0.96037 0.79797 0.63424 0.0
C1128 C 0.96994 0.73138 0.63067 0.0
C1129 C 0.99528 0.80388 0.63297 0.0
C1130 C 0.01751 0.77384 0.6317 0.0
C1131 C 0.02723 0.70692 0.63176 0.0
C1132 C 0.01456 0.67054 0.63123 0.0
C1133 C 0.00513 0.73742 0.63112 0.0
C1134 C 0.97966 0.66495 0.6291 0.0
C1135 C 0.95753 0.69506 0.62909 0.0
H1136 H 0.50127 0.32963 0.62335 0.0
H1137 H 0.40806 0.26885 0.62807 0.0
H1138 H 0.4387 0.21021 0.62386 0.0
H1139 H 0.4924 0.17619 0.62423 0.0
H1140 H 0.58569 0.23698 0.62578 0.0
H1141 H 0.5549 0.29561 0.62172 0.0
C1142 C 0.48768 0.30354 0.6229 0.0
C1143 C 0.45252 0.30343 0.62593 0.0
C1144 C 0.5056 0.26994 0.62173 0.0
C1145 C 0.43517 0.2695 0.6258 0.0
C1146 C 0.45267 0.23601 0.62344 0.0
C1147 C 0.50592 0.20228 0.62297 0.0
C1148 C 0.54116 0.20248 0.62498 0.0
C1149 C 0.48795 0.23586 0.62213 0.0
C1150 C 0.55852 0.23635 0.62406 0.0
C1151 C 0.54092 0.2698 0.62189 0.0
H1152 H 0.42367 0.2278 0.86857 0.0
H1153 H 0.50832 0.15371 0.8765 0.0
H1154 H 0.54683 0.20655 0.87705 0.0
H1155 H 0.55672 0.27343 0.87001 0.0
H1156 H 0.47173 0.34762 0.86482 0.0
H1157 H 0.4331 0.29527 0.86867 0.0
C1158 C 0.45049 0.22335 0.871 0.0
C1159 C 0.46319 0.18699 0.87224 0.0
C1160 C 0.47246 0.25385 0.87147 0.0
C1161 C 0.49793 0.18149 0.87561 0.0
C1162 C 0.52001 0.21168 0.87568 0.0
C1163 C 0.52974 0.27809 0.87013 0.0
C1164 C 0.51706 0.31418 0.86676 0.0
C1165 C 0.50762 0.2479 0.87279 0.0
C1166 C 0.48208 0.32004 0.86733 0.0
C1167 C 0.45996 0.29011 0.86942 0.0
H1168 H 0.92844 0.71818 0.8637 0.0
H1169 H 0.01204 0.6417 0.86432 0.0
H1170 H 0.05156 0.6935 0.86617 0.0
H1171 H 0.06241 0.76064 0.86314 0.0
H1172 H 0.979 0.83724 0.86535 0.0
H1173 H 0.93939 0.78541 0.86726 0.0
C1174 C 0.9553 0.71292 0.86464 0.0
C1175 C 0.96733 0.67623 0.86355 0.0
C1176 C 0.97791 0.74285 0.8661 0.0
C1177 C 0.00215 0.66971 0.86512 0.0
C1178 C 0.02479 0.69932 0.86605 0.0
C1179 C 0.03558 0.76592 0.86452 0.0
C1180 C 0.0236 0.80263 0.86386 0.0
C1181 C 0.01298 0.73601 0.8659 0.0
C1182 C 0.98882 0.8092 0.86591 0.0
C1183 C 0.96615 0.77957 0.8668 0.0
loop_
_geom_bond_atom_site_label_1
_geom_bond_atom_site_label_2
_geom_bond_distance
_geom_bond_site_symmetry_2
_ccdc_geom_bond_type
Co0 O3 1.970 . S
Co0 N17 1.989 . S
Co0 O25 1.967 . S
Co0 O32 1.920 . S
Co1 O4 1.966 . S
Co1 N10 2.022 . S
Co1 N18 1.993 . S
Co1 O26 1.941 . S
C2 O3 1.258 . S
C2 O4 1.263 . S
O3 Co0 1.970 . S
O3 C2 1.258 . S
O4 Co1 1.966 . S
O4 C2 1.263 . S
C5 O6 1.235 . S
C5 O32 1.289 . S
O6 C5 1.235 . S
C7 C9 1.400 . S
C7 N10 1.351 . S
C7 C12 1.501 . S
C8 C9 1.387 . S
C8 N11 1.341 . S
C9 C7 1.400 . S
C9 C8 1.387 . S
N10 Co1 2.022 . S
N10 C7 1.351 . S
N10 N11 1.365 . S
N11 C8 1.341 . S
N11 N10 1.365 . S
N11 H31 0.862 . S
C12 C7 1.501 . S
C12 H13 0.961 . S
C12 H14 0.961 . S
C12 H15 0.960 . S
H13 C12 0.961 . S
H14 C12 0.961 . S
H15 C12 0.960 . S
C16 N17 1.342 . S
C16 C20 1.401 . S
C16 C21 1.499 . S
N17 Co0 1.989 . S
N17 C16 1.342 . S
N17 N18 1.388 . S
N18 Co1 1.993 . S
N18 N17 1.388 . S
N18 C19 1.346 . S
C19 N18 1.346 . S
C19 C20 1.396 . S
C19 C29 1.510 . S
C20 C16 1.401 . S
C20 C19 1.396 . S
C21 C16 1.499 . S
C21 H22 0.959 . S
C21 H23 0.960 . S
C21 H24 0.961 . S
H22 C21 0.959 . S
H23 C21 0.960 . S
H24 C21 0.961 . S
O25 Co0 1.967 . S
O25 C33 1.258 . S
O26 Co1 1.941 . S
O26 C33 1.266 . S
H27 C29 0.959 . S
H28 C29 0.961 . S
C29 C19 1.510 . S
C29 H27 0.959 . S
C29 H28 0.961 . S
C29 H30 0.960 . S
H30 C29 0.960 . S
H31 N11 0.862 . S
O32 Co0 1.920 . S
O32 C5 1.289 . S
C33 O25 1.258 . S
C33 O26 1.266 . S
Co34 O37 1.970 . S
Co34 N51 1.989 . S
Co34 O59 1.967 . S
Co34 O66 1.920 . S
Co35 O38 1.966 . S
Co35 N44 2.022 . S
Co35 N52 1.993 . S
Co35 O60 1.941 . S
C36 O37 1.258 . S
C36 O38 1.263 . S
O37 Co34 1.970 . S
O37 C36 1.258 . S
O38 Co35 1.966 . S
O38 C36 1.263 . S
C39 O40 1.235 . S
C39 O66 1.289 . S
O40 C39 1.235 . S
C41 C43 1.400 . S
C41 N44 1.351 . S
C41 C46 1.501 . S
C42 C43 1.387 . S
C42 N45 1.341 . S
C43 C41 1.400 . S
C43 C42 1.387 . S
N44 Co35 2.022 . S
N44 C41 1.351 . S
N44 N45 1.365 . S
N45 C42 1.341 . S
N45 N44 1.365 . S
N45 H65 0.862 . S
C46 C41 1.501 . S
C46 H47 0.961 . S
C46 H48 0.961 . S
C46 H49 0.960 . S
H47 C46 0.961 . S
H48 C46 0.961 . S
H49 C46 0.960 . S
C50 N51 1.342 . S
C50 C54 1.401 . S
C50 C55 1.499 . S
N51 Co34 1.989 . S
N51 C50 1.342 . S
N51 N52 1.388 . S
N52 Co35 1.993 . S
N52 N51 1.388 . S
N52 C53 1.346 . S
C53 N52 1.346 . S
C53 C54 1.396 . S
C53 C63 1.510 . S
C54 C50 1.401 . S
C54 C53 1.396 . S
C55 C50 1.499 . S
C55 H56 0.959 . S
C55 H57 0.960 . S
C55 H58 0.961 . S
H56 C55 0.959 . S
H57 C55 0.960 . S
H58 C55 0.961 . S
O59 Co34 1.967 . S
O59 C67 1.258 . S
O60 Co35 1.941 . S
O60 C67 1.266 . S
H61 C63 0.959 . S
H62 C63 0.961 . S
C63 C53 1.510 . S
C63 H61 0.959 . S
C63 H62 0.961 . S
C63 H64 0.960 . S
H64 C63 0.960 . S
H65 N45 0.862 . S
O66 Co34 1.920 . S
O66 C39 1.289 . S
C67 O59 1.258 . S
C67 O60 1.266 . S
Co68 O71 1.970 . S
Co68 N85 1.989 . S
Co68 O93 1.967 . S
Co68 O100 1.920 . S
Co69 O72 1.966 . S
Co69 N78 2.022 . S
Co69 N86 1.993 . S
Co69 O94 1.941 . S
C70 O71 1.258 . S
C70 O72 1.263 . S
O71 Co68 1.970 . S
O71 C70 1.258 . S
O72 Co69 1.966 . S
O72 C70 1.263 . S
C73 O74 1.235 . S
C73 O100 1.289 . S
O74 C73 1.235 . S
C75 C77 1.400 . S
C75 N78 1.351 . S
C75 C80 1.501 . S
C76 C77 1.387 . S
C76 N79 1.341 . S
C77 C75 1.400 . S
C77 C76 1.387 . S
N78 Co69 2.022 . S
N78 C75 1.351 . S
N78 N79 1.365 . S
N79 C76 1.341 . S
N79 N78 1.365 . S
N79 H99 0.862 . S
C80 C75 1.501 . S
C80 H81 0.961 . S
C80 H82 0.961 . S
C80 H83 0.960 . S
H81 C80 0.961 . S
H82 C80 0.961 . S
H83 C80 0.960 . S
C84 N85 1.342 . S
C84 C88 1.401 . S
C84 C89 1.499 . S
N85 Co68 1.989 . S
N85 C84 1.342 . S
N85 N86 1.388 . S
N86 Co69 1.993 . S
N86 N85 1.388 . S
N86 C87 1.346 . S
C87 N86 1.346 . S
C87 C88 1.396 . S
C87 C97 1.510 . S
C88 C84 1.401 . S
C88 C87 1.396 . S
C89 C84 1.499 . S
C89 H90 0.959 . S
C89 H91 0.960 . S
C89 H92 0.961 . S
H90 C89 0.959 . S
H91 C89 0.960 . S
H92 C89 0.961 . S
O93 Co68 1.967 . S
O93 C101 1.258 . S
O94 Co69 1.941 . S
O94 C101 1.266 . S
H95 C97 0.959 . S
H96 C97 0.961 . S
C97 C87 1.510 . S
C97 H95 0.959 . S
C97 H96 0.961 . S
C97 H98 0.960 . S
H98 C97 0.960 . S
H99 N79 0.862 . S
O100 Co68 1.920 . S
O100 C73 1.289 . S
C101 O93 1.258 . S
C101 O94 1.266 . S
Co102 O105 1.970 . S
Co102 N119 1.989 . S
Co102 O127 1.967 . S
Co102 O134 1.920 . S
Co103 O106 1.966 . S
Co103 N112 2.022 . S
Co103 N120 1.993 . S
Co103 O128 1.941 . S
C104 O105 1.258 . S
C104 O106 1.263 . S
O105 Co102 1.970 . S
O105 C104 1.258 . S
O106 Co103 1.966 . S
O106 C104 1.263 . S
C107 O108 1.235 . S
C107 O134 1.289 . S
O108 C107 1.235 . S
C109 C111 1.400 . S
C109 N112 1.351 . S
C109 C114 1.501 . S
C110 C111 1.387 . S
C110 N113 1.341 . S
C111 C109 1.400 . S
C111 C110 1.387 . S
N112 Co103 2.022 . S
N112 C109 1.351 . S
N112 N113 1.365 . S
N113 C110 1.341 . S
N113 N112 1.365 . S
N113 H133 0.862 . S
C114 C109 1.501 . S
C114 H115 0.961 . S
C114 H116 0.961 . S
C114 H117 0.960 . S
H115 C114 0.961 . S
H116 C114 0.961 . S
H117 C114 0.960 . S
C118 N119 1.342 . S
C118 C122 1.401 . S
C118 C123 1.499 . S
N119 Co102 1.989 . S
N119 C118 1.342 . S
N119 N120 1.388 . S
N120 Co103 1.993 . S
N120 N119 1.388 . S
N120 C121 1.346 . S
C121 N120 1.346 . S
C121 C122 1.396 . S
C121 C131 1.510 . S
C122 C118 1.401 . S
C122 C121 1.396 . S
C123 C118 1.499 . S
C123 H124 0.959 . S
C123 H125 0.960 . S
C123 H126 0.961 . S
H124 C123 0.959 . S
H125 C123 0.960 . S
H126 C123 0.961 . S
O127 Co102 1.967 . S
O127 C135 1.258 . S
O128 Co103 1.941 . S
O128 C135 1.266 . S
H129 C131 0.959 . S
H130 C131 0.961 . S
C131 C121 1.510 . S
C131 H129 0.959 . S
C131 H130 0.961 . S
C131 H132 0.960 . S
H132 C131 0.960 . S
H133 N113 0.862 . S
O134 Co102 1.920 . S
O134 C107 1.289 . S
C135 O127 1.258 . S
C135 O128 1.266 . S
Co136 O139 1.970 . S
Co136 N153 1.989 . S
Co136 O161 1.967 . S
Co136 O168 1.920 . S
Co137 O140 1.966 . S
Co137 N146 2.022 . S
Co137 N154 1.993 . S
Co137 O162 1.941 . S
C138 O139 1.258 . S
C138 O140 1.263 . S
O139 Co136 1.970 . S
O139 C138 1.258 . S
O140 Co137 1.966 . S
O140 C138 1.263 . S
C141 O142 1.235 . S
C141 O168 1.289 . S
O142 C141 1.235 . S
C143 C145 1.400 . S
C143 N146 1.351 . S
C143 C148 1.501 . S
C144 C145 1.387 . S
C144 N147 1.341 . S
C145 C143 1.400 . S
C145 C144 1.387 . S
N146 Co137 2.022 . S
N146 C143 1.351 . S
N146 N147 1.365 . S
N147 C144 1.341 . S
N147 N146 1.365 . S
N147 H167 0.862 . S
C148 C143 1.501 . S
C148 H149 0.961 . S
C148 H150 0.961 . S
C148 H151 0.960 . S
H149 C148 0.961 . S
H150 C148 0.961 . S
H151 C148 0.960 . S
C152 N153 1.342 . S
C152 C156 1.401 . S
C152 C157 1.499 . S
N153 Co136 1.989 . S
N153 C152 1.342 . S
N153 N154 1.388 . S
N154 Co137 1.993 . S
N154 N153 1.388 . S
N154 C155 1.346 . S
C155 N154 1.346 . S
C155 C156 1.396 . S
C155 C165 1.510 . S
C156 C152 1.401 . S
C156 C155 1.396 . S
C157 C152 1.499 . S
C157 H158 0.959 . S
C157 H159 0.960 . S
C157 H160 0.961 . S
H158 C157 0.959 . S
H159 C157 0.960 . S
H160 C157 0.961 . S
O161 Co136 1.967 . S
O161 C169 1.258 . S
O162 Co137 1.941 . S
O162 C169 1.266 . S
H163 C165 0.959 . S
H164 C165 0.961 . S
C165 C155 1.510 . S
C165 H163 0.959 . S
C165 H164 0.961 . S
C165 H166 0.960 . S
H166 C165 0.960 . S
H167 N147 0.862 . S
O168 Co136 1.920 . S
O168 C141 1.289 . S
C169 O161 1.258 . S
C169 O162 1.266 . S
Co170 O173 1.970 . S
Co170 N187 1.989 . S
Co170 O195 1.967 . S
Co170 O202 1.920 . S
Co171 O174 1.966 . S
Co171 N180 2.022 . S
Co171 N188 1.993 . S
Co171 O196 1.941 . S
C172 O173 1.258 . S
C172 O174 1.263 . S
O173 Co170 1.970 . S
O173 C172 1.258 . S
O174 Co171 1.966 . S
O174 C172 1.263 . S
C175 O176 1.235 . S
C175 O202 1.289 . S
O176 C175 1.235 . S
C177 C179 1.400 . S
C177 N180 1.351 . S
C177 C182 1.501 . S
C178 C179 1.387 . S
C178 N181 1.341 . S
C179 C177 1.400 . S
C179 C178 1.387 . S
N180 Co171 2.022 . S
N180 C177 1.351 . S
N180 N181 1.365 . S
N181 C178 1.341 . S
N181 N180 1.365 . S
N181 H201 0.862 . S
C182 C177 1.501 . S
C182 H183 0.961 . S
C182 H184 0.961 . S
C182 H185 0.960 . S
H183 C182 0.961 . S
H184 C182 0.961 . S
H185 C182 0.960 . S
C186 N187 1.342 . S
C186 C190 1.401 . S
C186 C191 1.499 . S
N187 Co170 1.989 . S
N187 C186 1.342 . S
N187 N188 1.388 . S
N188 Co171 1.993 . S
N188 N187 1.388 . S
N188 C189 1.346 . S
C189 N188 1.346 . S
C189 C190 1.396 . S
C189 C199 1.510 . S
C190 C186 1.401 . S
C190 C189 1.396 . S
C191 C186 1.499 . S
C191 H192 0.959 . S
C191 H193 0.960 . S
C191 H194 0.961 . S
H192 C191 0.959 . S
H193 C191 0.960 . S
H194 C191 0.961 . S
O195 Co170 1.967 . S
O195 C203 1.258 . S
O196 Co171 1.941 . S
O196 C203 1.266 . S
H197 C199 0.959 . S
H198 C199 0.961 . S
C199 C189 1.510 . S
C199 H197 0.959 . S
C199 H198 0.961 . S
C199 H200 0.960 . S
H200 C199 0.960 . S
H201 N181 0.862 . S
O202 Co170 1.920 . S
O202 C175 1.289 . S
C203 O195 1.258 . S
C203 O196 1.266 . S
Co204 O207 1.970 . S
Co204 N221 1.989 . S
Co204 O229 1.967 . S
Co204 O236 1.920 . S
Co205 O208 1.966 . S
Co205 N214 2.022 . S
Co205 N222 1.993 . S
Co205 O230 1.941 . S
C206 O207 1.258 . S
C206 O208 1.263 . S
O207 Co204 1.970 . S
O207 C206 1.258 . S
O208 Co205 1.966 . S
O208 C206 1.263 . S
C209 O210 1.235 . S
C209 O236 1.289 . S
O210 C209 1.235 . S
C211 C213 1.400 . S
C211 N214 1.351 . S
C211 C216 1.501 . S
C212 C213 1.387 . S
C212 N215 1.341 . S
C213 C211 1.400 . S
C213 C212 1.387 . S
N214 Co205 2.022 . S
N214 C211 1.351 . S
N214 N215 1.365 . S
N215 C212 1.341 . S
N215 N214 1.365 . S
N215 H235 0.862 . S
C216 C211 1.501 . S
C216 H217 0.961 . S
C216 H218 0.961 . S
C216 H219 0.960 . S
H217 C216 0.961 . S
H218 C216 0.961 . S
H219 C216 0.960 . S
C220 N221 1.342 . S
C220 C224 1.401 . S
C220 C225 1.499 . S
N221 Co204 1.989 . S
N221 C220 1.342 . S
N221 N222 1.388 . S
N222 Co205 1.993 . S
N222 N221 1.388 . S
N222 C223 1.346 . S
C223 N222 1.346 . S
C223 C224 1.396 . S
C223 C233 1.510 . S
C224 C220 1.401 . S
C224 C223 1.396 . S
C225 C220 1.499 . S
C225 H226 0.959 . S
C225 H227 0.960 . S
C225 H228 0.961 . S
H226 C225 0.959 . S
H227 C225 0.960 . S
H228 C225 0.961 . S
O229 Co204 1.967 . S
O229 C237 1.258 . S
O230 Co205 1.941 . S
O230 C237 1.266 . S
H231 C233 0.959 . S
H232 C233 0.961 . S
C233 C223 1.510 . S
C233 H231 0.959 . S
C233 H232 0.961 . S
C233 H234 0.960 . S
H234 C233 0.960 . S
H235 N215 0.862 . S
O236 Co204 1.920 . S
O236 C209 1.289 . S
C237 O229 1.258 . S
C237 O230 1.266 . S
Co238 O241 1.970 . S
Co238 N255 1.989 . S
Co238 O263 1.967 . S
Co238 O270 1.920 . S
Co239 O242 1.966 . S
Co239 N248 2.022 . S
Co239 N256 1.993 . S
Co239 O264 1.941 . S
C240 O241 1.258 . S
C240 O242 1.263 . S
O241 Co238 1.970 . S
O241 C240 1.258 . S
O242 Co239 1.966 . S
O242 C240 1.263 . S
C243 O244 1.235 . S
C243 O270 1.289 . S
O244 C243 1.235 . S
C245 C247 1.400 . S
C245 N248 1.351 . S
C245 C250 1.501 . S
C246 C247 1.387 . S
C246 N249 1.341 . S
C247 C245 1.400 . S
C247 C246 1.387 . S
N248 Co239 2.022 . S
N248 C245 1.351 . S
N248 N249 1.365 . S
N249 C246 1.341 . S
N249 N248 1.365 . S
N249 H269 0.862 . S
C250 C245 1.501 . S
C250 H251 0.961 . S
C250 H252 0.961 . S
C250 H253 0.960 . S
H251 C250 0.961 . S
H252 C250 0.961 . S
H253 C250 0.960 . S
C254 N255 1.342 . S
C254 C258 1.401 . S
C254 C259 1.499 . S
N255 Co238 1.989 . S
N255 C254 1.342 . S
N255 N256 1.388 . S
N256 Co239 1.993 . S
N256 N255 1.388 . S
N256 C257 1.346 . S
C257 N256 1.346 . S
C257 C258 1.396 . S
C257 C267 1.510 . S
C258 C254 1.401 . S
C258 C257 1.396 . S
C259 C254 1.499 . S
C259 H260 0.959 . S
C259 H261 0.960 . S
C259 H262 0.961 . S
H260 C259 0.959 . S
H261 C259 0.960 . S
H262 C259 0.961 . S
O263 Co238 1.967 . S
O263 C271 1.258 . S
O264 Co239 1.941 . S
O264 C271 1.266 . S
H265 C267 0.959 . S
H266 C267 0.961 . S
C267 C257 1.510 . S
C267 H265 0.959 . S
C267 H266 0.961 . S
C267 H268 0.960 . S
H268 C267 0.960 . S
H269 N249 0.862 . S
O270 Co238 1.920 . S
O270 C243 1.289 . S
C271 O263 1.258 . S
C271 O264 1.266 . S
Co272 O275 1.970 . S
Co272 N289 1.989 . S
Co272 O297 1.967 . S
Co272 O304 1.920 . S
Co273 O276 1.966 . S
Co273 N282 2.022 . S
Co273 N290 1.993 . S
Co273 O298 1.941 . S
C274 O275 1.258 . S
C274 O276 1.263 . S
O275 Co272 1.970 . S
O275 C274 1.258 . S
O276 Co273 1.966 . S
O276 C274 1.263 . S
C277 O278 1.235 . S
C277 O304 1.289 . S
O278 C277 1.235 . S
C279 C281 1.400 . S
C279 N282 1.351 . S
C279 C284 1.501 . S
C280 C281 1.387 . S
C280 N283 1.341 . S
C281 C279 1.400 . S
C281 C280 1.387 . S
N282 Co273 2.022 . S
N282 C279 1.351 . S
N282 N283 1.365 . S
N283 C280 1.341 . S
N283 N282 1.365 . S
N283 H303 0.862 . S
C284 C279 1.501 . S
C284 H285 0.961 . S
C284 H286 0.961 . S
C284 H287 0.960 . S
H285 C284 0.961 . S
H286 C284 0.961 . S
H287 C284 0.960 . S
C288 N289 1.342 . S
C288 C292 1.401 . S
C288 C293 1.499 . S
N289 Co272 1.989 . S
N289 C288 1.342 . S
N289 N290 1.388 . S
N290 Co273 1.993 . S
N290 N289 1.388 . S
N290 C291 1.346 . S
C291 N290 1.346 . S
C291 C292 1.396 . S
C291 C301 1.510 . S
C292 C288 1.401 . S
C292 C291 1.396 . S
C293 C288 1.499 . S
C293 H294 0.959 . S
C293 H295 0.960 . S
C293 H296 0.961 . S
H294 C293 0.959 . S
H295 C293 0.960 . S
H296 C293 0.961 . S
O297 Co272 1.967 . S
O297 C305 1.258 . S
O298 Co273 1.941 . S
O298 C305 1.266 . S
H299 C301 0.959 . S
H300 C301 0.961 . S
C301 C291 1.510 . S
C301 H299 0.959 . S
C301 H300 0.961 . S
C301 H302 0.960 . S
H302 C301 0.960 . S
H303 N283 0.862 . S
O304 Co272 1.920 . S
O304 C277 1.289 . S
C305 O297 1.258 . S
C305 O298 1.266 . S
Co306 O309 1.970 . S
Co306 N323 1.989 . S
Co306 O331 1.967 . S
Co306 O338 1.920 . S
Co307 O310 1.966 . S
Co307 N316 2.022 . S
Co307 N324 1.993 . S
Co307 O332 1.941 . S
C308 O309 1.258 . S
C308 O310 1.263 . S
O309 Co306 1.970 . S
O309 C308 1.258 . S
O310 Co307 1.966 . S
O310 C308 1.263 . S
C311 O312 1.235 . S
C311 O338 1.289 . S
O312 C311 1.235 . S
C313 C315 1.400 . S
C313 N316 1.351 . S
C313 C318 1.501 . S
C314 C315 1.387 . S
C314 N317 1.341 . S
C315 C313 1.400 . S
C315 C314 1.387 . S
N316 Co307 2.022 . S
N316 C313 1.351 . S
N316 N317 1.365 . S
N317 C314 1.341 . S
N317 N316 1.365 . S
N317 H337 0.862 . S
C318 C313 1.501 . S
C318 H319 0.961 . S
C318 H320 0.961 . S
C318 H321 0.960 . S
H319 C318 0.961 . S
H320 C318 0.961 . S
H321 C318 0.960 . S
C322 N323 1.342 . S
C322 C326 1.401 . S
C322 C327 1.499 . S
N323 Co306 1.989 . S
N323 C322 1.342 . S
N323 N324 1.388 . S
N324 Co307 1.993 . S
N324 N323 1.388 . S
N324 C325 1.346 . S
C325 N324 1.346 . S
C325 C326 1.396 . S
C325 C335 1.510 . S
C326 C322 1.401 . S
C326 C325 1.396 . S
C327 C322 1.499 . S
C327 H328 0.959 . S
C327 H329 0.960 . S
C327 H330 0.961 . S
H328 C327 0.959 . S
H329 C327 0.960 . S
H330 C327 0.961 . S
O331 Co306 1.967 . S
O331 C339 1.258 . S
O332 Co307 1.941 . S
O332 C339 1.266 . S
H333 C335 0.959 . S
H334 C335 0.961 . S
C335 C325 1.510 . S
C335 H333 0.959 . S
C335 H334 0.961 . S
C335 H336 0.960 . S
H336 C335 0.960 . S
H337 N317 0.862 . S
O338 Co306 1.920 . S
O338 C311 1.289 . S
C339 O331 1.258 . S
C339 O332 1.266 . S
Co340 O343 1.970 . S
Co340 N357 1.989 . S
Co340 O365 1.967 . S
Co340 O372 1.920 . S
Co341 O344 1.966 . S
Co341 N350 2.022 . S
Co341 N358 1.993 . S
Co341 O366 1.941 . S
C342 O343 1.258 . S
C342 O344 1.263 . S
O343 Co340 1.970 . S
O343 C342 1.258 . S
O344 Co341 1.966 . S
O344 C342 1.263 . S
C345 O346 1.235 . S
C345 O372 1.289 . S
O346 C345 1.235 . S
C347 C349 1.400 . S
C347 N350 1.351 . S
C347 C352 1.501 . S
C348 C349 1.387 . S
C348 N351 1.341 . S
C349 C347 1.400 . S
C349 C348 1.387 . S
N350 Co341 2.022 . S
N350 C347 1.351 . S
N350 N351 1.365 . S
N351 C348 1.341 . S
N351 N350 1.365 . S
N351 H371 0.862 . S
C352 C347 1.501 . S
C352 H353 0.961 . S
C352 H354 0.961 . S
C352 H355 0.960 . S
H353 C352 0.961 . S
H354 C352 0.961 . S
H355 C352 0.960 . S
C356 N357 1.342 . S
C356 C360 1.401 . S
C356 C361 1.499 . S
N357 Co340 1.989 . S
N357 C356 1.342 . S
N357 N358 1.388 . S
N358 Co341 1.993 . S
N358 N357 1.388 . S
N358 C359 1.346 . S
C359 N358 1.346 . S
C359 C360 1.396 . S
C359 C369 1.510 . S
C360 C356 1.401 . S
C360 C359 1.396 . S
C361 C356 1.499 . S
C361 H362 0.959 . S
C361 H363 0.960 . S
C361 H364 0.961 . S
H362 C361 0.959 . S
H363 C361 0.960 . S
H364 C361 0.961 . S
O365 Co340 1.967 . S
O365 C373 1.258 . S
O366 Co341 1.941 . S
O366 C373 1.266 . S
H367 C369 0.959 . S
H368 C369 0.961 . S
C369 C359 1.510 . S
C369 H367 0.959 . S
C369 H368 0.961 . S
C369 H370 0.960 . S
H370 C369 0.960 . S
H371 N351 0.862 . S
O372 Co340 1.920 . S
O372 C345 1.289 . S
C373 O365 1.258 . S
C373 O366 1.266 . S
Co374 O377 1.970 . S
Co374 N391 1.989 . S
Co374 O399 1.967 . S
Co374 O406 1.920 . S
Co375 O378 1.966 . S
Co375 N384 2.022 . S
Co375 N392 1.993 . S
Co375 O400 1.941 . S
C376 O377 1.258 . S
C376 O378 1.263 . S
O377 Co374 1.970 . S
O377 C376 1.258 . S
O378 Co375 1.966 . S
O378 C376 1.263 . S
C379 O380 1.235 . S
C379 O406 1.289 . S
O380 C379 1.235 . S
C381 C383 1.400 . S
C381 N384 1.351 . S
C381 C386 1.501 . S
C382 C383 1.387 . S
C382 N385 1.341 . S
C383 C381 1.400 . S
C383 C382 1.387 . S
N384 Co375 2.022 . S
N384 C381 1.351 . S
N384 N385 1.365 . S
N385 C382 1.341 . S
N385 N384 1.365 . S
N385 H405 0.862 . S
C386 C381 1.501 . S
C386 H387 0.961 . S
C386 H388 0.961 . S
C386 H389 0.960 . S
H387 C386 0.961 . S
H388 C386 0.961 . S
H389 C386 0.960 . S
C390 N391 1.342 . S
C390 C394 1.401 . S
C390 C395 1.499 . S
N391 Co374 1.989 . S
N391 C390 1.342 . S
N391 N392 1.388 . S
N392 Co375 1.993 . S
N392 N391 1.388 . S
N392 C393 1.346 . S
C393 N392 1.346 . S
C393 C394 1.396 . S
C393 C403 1.510 . S
C394 C390 1.401 . S
C394 C393 1.396 . S
C395 C390 1.499 . S
C395 H396 0.959 . S
C395 H397 0.960 . S
C395 H398 0.961 . S
H396 C395 0.959 . S
H397 C395 0.960 . S
H398 C395 0.961 . S
O399 Co374 1.967 . S
O399 C407 1.258 . S
O400 Co375 1.941 . S
O400 C407 1.266 . S
H401 C403 0.959 . S
H402 C403 0.961 . S
C403 C393 1.510 . S
C403 H401 0.959 . S
C403 H402 0.961 . S
C403 H404 0.960 . S
H404 C403 0.960 . S
H405 N385 0.862 . S
O406 Co374 1.920 . S
O406 C379 1.289 . S
C407 O399 1.258 . S
C407 O400 1.266 . S
Co408 O411 1.970 . S
Co408 N425 1.989 . S
Co408 O433 1.967 . S
Co408 O440 1.920 . S
Co409 O412 1.966 . S
Co409 N418 2.022 . S
Co409 N426 1.993 . S
Co409 O434 1.941 . S
C410 O411 1.258 . S
C410 O412 1.263 . S
O411 Co408 1.970 . S
O411 C410 1.258 . S
O412 Co409 1.966 . S
O412 C410 1.263 . S
C413 O414 1.235 . S
C413 O440 1.289 . S
O414 C413 1.235 . S
C415 C417 1.400 . S
C415 N418 1.351 . S
C415 C420 1.501 . S
C416 C417 1.387 . S
C416 N419 1.341 . S
C417 C415 1.400 . S
C417 C416 1.387 . S
N418 Co409 2.022 . S
N418 C415 1.351 . S
N418 N419 1.365 . S
N419 C416 1.341 . S
N419 N418 1.365 . S
N419 H439 0.862 . S
C420 C415 1.501 . S
C420 H421 0.961 . S
C420 H422 0.961 . S
C420 H423 0.960 . S
H421 C420 0.961 . S
H422 C420 0.961 . S
H423 C420 0.960 . S
C424 N425 1.342 . S
C424 C428 1.401 . S
C424 C429 1.499 . S
N425 Co408 1.989 . S
N425 C424 1.342 . S
N425 N426 1.388 . S
N426 Co409 1.993 . S
N426 N425 1.388 . S
N426 C427 1.346 . S
C427 N426 1.346 . S
C427 C428 1.396 . S
C427 C437 1.510 . S
C428 C424 1.401 . S
C428 C427 1.396 . S
C429 C424 1.499 . S
C429 H430 0.959 . S
C429 H431 0.960 . S
C429 H432 0.961 . S
H430 C429 0.959 . S
H431 C429 0.960 . S
H432 C429 0.961 . S
O433 Co408 1.967 . S
O433 C441 1.258 . S
O434 Co409 1.941 . S
O434 C441 1.266 . S
H435 C437 0.959 . S
H436 C437 0.961 . S
C437 C427 1.510 . S
C437 H435 0.959 . S
C437 H436 0.961 . S
C437 H438 0.960 . S
H438 C437 0.960 . S
H439 N419 0.862 . S
O440 Co408 1.920 . S
O440 C413 1.289 . S
C441 O433 1.258 . S
C441 O434 1.266 . S
Co442 O445 1.970 . S
Co442 N459 1.989 . S
Co442 O467 1.967 . S
Co442 O474 1.920 . S
Co443 O446 1.966 . S
Co443 N452 2.022 . S
Co443 N460 1.993 . S
Co443 O468 1.941 . S
C444 O445 1.258 . S
C444 O446 1.263 . S
O445 Co442 1.970 . S
O445 C444 1.258 . S
O446 Co443 1.966 . S
O446 C444 1.263 . S
C447 O448 1.235 . S
C447 O474 1.289 . S
O448 C447 1.235 . S
C449 C451 1.400 . S
C449 N452 1.351 . S
C449 C454 1.501 . S
C450 C451 1.387 . S
C450 N453 1.341 . S
C451 C449 1.400 . S
C451 C450 1.387 . S
N452 Co443 2.022 . S
N452 C449 1.351 . S
N452 N453 1.365 . S
N453 C450 1.341 . S
N453 N452 1.365 . S
N453 H473 0.862 . S
C454 C449 1.501 . S
C454 H455 0.961 . S
C454 H456 0.961 . S
C454 H457 0.960 . S
H455 C454 0.961 . S
H456 C454 0.961 . S
H457 C454 0.960 . S
C458 N459 1.342 . S
C458 C462 1.401 . S
C458 C463 1.499 . S
N459 Co442 1.989 . S
N459 C458 1.342 . S
N459 N460 1.388 . S
N460 Co443 1.993 . S
N460 N459 1.388 . S
N460 C461 1.346 . S
C461 N460 1.346 . S
C461 C462 1.396 . S
C461 C471 1.510 . S
C462 C458 1.401 . S
C462 C461 1.396 . S
C463 C458 1.499 . S
C463 H464 0.959 . S
C463 H465 0.960 . S
C463 H466 0.961 . S
H464 C463 0.959 . S
H465 C463 0.960 . S
H466 C463 0.961 . S
O467 Co442 1.967 . S
O467 C475 1.258 . S
O468 Co443 1.941 . S
O468 C475 1.266 . S
H469 C471 0.959 . S
H470 C471 0.961 . S
C471 C461 1.510 . S
C471 H469 0.959 . S
C471 H470 0.961 . S
C471 H472 0.960 . S
H472 C471 0.960 . S
H473 N453 0.862 . S
O474 Co442 1.920 . S
O474 C447 1.289 . S
C475 O467 1.258 . S
C475 O468 1.266 . S
Co476 O479 1.970 . S
Co476 N493 1.989 . S
Co476 O501 1.967 . S
Co476 O508 1.920 . S
Co477 O480 1.966 . S
Co477 N486 2.022 . S
Co477 N494 1.993 . S
Co477 O502 1.941 . S
C478 O479 1.258 . S
C478 O480 1.263 . S
O479 Co476 1.970 . S
O479 C478 1.258 . S
O480 Co477 1.966 . S
O480 C478 1.263 . S
C481 O482 1.235 . S
C481 O508 1.289 . S
O482 C481 1.235 . S
C483 C485 1.400 . S
C483 N486 1.351 . S
C483 C488 1.501 . S
C484 C485 1.387 . S
C484 N487 1.341 . S
C485 C483 1.400 . S
C485 C484 1.387 . S
N486 Co477 2.022 . S
N486 C483 1.351 . S
N486 N487 1.365 . S
N487 C484 1.341 . S
N487 N486 1.365 . S
N487 H507 0.862 . S
C488 C483 1.501 . S
C488 H489 0.961 . S
C488 H490 0.961 . S
C488 H491 0.960 . S
H489 C488 0.961 . S
H490 C488 0.961 . S
H491 C488 0.960 . S
C492 N493 1.342 . S
C492 C496 1.401 . S
C492 C497 1.499 . S
N493 Co476 1.989 . S
N493 C492 1.342 . S
N493 N494 1.388 . S
N494 Co477 1.993 . S
N494 N493 1.388 . S
N494 C495 1.346 . S
C495 N494 1.346 . S
C495 C496 1.396 . S
C495 C505 1.510 . S
C496 C492 1.401 . S
C496 C495 1.396 . S
C497 C492 1.499 . S
C497 H498 0.959 . S
C497 H499 0.960 . S
C497 H500 0.961 . S
H498 C497 0.959 . S
H499 C497 0.960 . S
H500 C497 0.961 . S
O501 Co476 1.967 . S
O501 C509 1.258 . S
O502 Co477 1.941 . S
O502 C509 1.266 . S
H503 C505 0.959 . S
H504 C505 0.961 . S
C505 C495 1.510 . S
C505 H503 0.959 . S
C505 H504 0.961 . S
C505 H506 0.960 . S
H506 C505 0.960 . S
H507 N487 0.862 . S
O508 Co476 1.920 . S
O508 C481 1.289 . S
C509 O501 1.258 . S
C509 O502 1.266 . S
Co510 O513 1.970 . S
Co510 N527 1.989 . S
Co510 O535 1.967 . S
Co510 O542 1.920 . S
Co511 O514 1.966 . S
Co511 N520 2.022 . S
Co511 N528 1.993 . S
Co511 O536 1.941 . S
C512 O513 1.258 . S
C512 O514 1.263 . S
O513 Co510 1.970 . S
O513 C512 1.258 . S
O514 Co511 1.966 . S
O514 C512 1.263 . S
C515 O516 1.235 . S
C515 O542 1.289 . S
O516 C515 1.235 . S
C517 C519 1.400 . S
C517 N520 1.351 . S
C517 C522 1.501 . S
C518 C519 1.387 . S
C518 N521 1.341 . S
C519 C517 1.400 . S
C519 C518 1.387 . S
N520 Co511 2.022 . S
N520 C517 1.351 . S
N520 N521 1.365 . S
N521 C518 1.341 . S
N521 N520 1.365 . S
N521 H541 0.862 . S
C522 C517 1.501 . S
C522 H523 0.961 . S
C522 H524 0.961 . S
C522 H525 0.960 . S
H523 C522 0.961 . S
H524 C522 0.961 . S
H525 C522 0.960 . S
C526 N527 1.342 . S
C526 C530 1.401 . S
C526 C531 1.499 . S
N527 Co510 1.989 . S
N527 C526 1.342 . S
N527 N528 1.388 . S
N528 Co511 1.993 . S
N528 N527 1.388 . S
N528 C529 1.346 . S
C529 N528 1.346 . S
C529 C530 1.396 . S
C529 C539 1.510 . S
C530 C526 1.401 . S
C530 C529 1.396 . S
C531 C526 1.499 . S
C531 H532 0.959 . S
C531 H533 0.960 . S
C531 H534 0.961 . S
H532 C531 0.959 . S
H533 C531 0.960 . S
H534 C531 0.961 . S
O535 Co510 1.967 . S
O535 C543 1.258 . S
O536 Co511 1.941 . S
O536 C543 1.266 . S
H537 C539 0.959 . S
H538 C539 0.961 . S
C539 C529 1.510 . S
C539 H537 0.959 . S
C539 H538 0.961 . S
C539 H540 0.960 . S
H540 C539 0.960 . S
H541 N521 0.862 . S
O542 Co510 1.920 . S
O542 C515 1.289 . S
C543 O535 1.258 . S
C543 O536 1.266 . S
H544 C550 0.930 . S
H545 C553 0.930 . S
H546 C554 0.930 . S
H547 C555 0.930 . S
H548 C558 0.930 . S
H549 C559 0.930 . S
C550 H544 0.930 . S
C550 C551 1.355 . S
C550 C552 1.415 . S
C551 C550 1.355 . S
C551 C553 1.419 1_655 S
C552 C550 1.415 . S
C552 C557 1.425 1_655 S
C552 C559 1.409 . S
C553 H545 0.930 . S
C553 C551 1.419 1_455 S
C553 C554 1.362 . S
C554 H546 0.930 . S
C554 C553 1.362 . S
C554 C557 1.409 . S
C555 H547 0.930 . S
C555 C556 1.355 . S
C555 C557 1.415 . S
C556 C555 1.355 . S
C556 C558 1.419 1_455 S
C557 C552 1.425 1_455 S
C557 C554 1.409 . S
C557 C555 1.415 . S
C558 H548 0.930 . S
C558 C556 1.419 1_655 S
C558 C559 1.362 . S
C559 H549 0.930 . S
C559 C552 1.409 . S
C559 C558 1.362 . S
H560 C566 0.930 . S
H561 C569 0.930 . S
H562 C570 0.930 . S
H563 C571 0.930 . S
H564 C574 0.930 . S
H565 C575 0.930 . S
C566 H560 0.930 . S
C566 C567 1.355 . S
C566 C568 1.415 . S
C567 C566 1.355 . S
C567 C569 1.419 . S
C568 C566 1.415 . S
C568 C573 1.425 . S
C568 C575 1.409 . S
C569 H561 0.930 . S
C569 C567 1.419 . S
C569 C570 1.362 . S
C570 H562 0.930 . S
C570 C569 1.362 . S
C570 C573 1.409 . S
C571 H563 0.930 . S
C571 C572 1.355 . S
C571 C573 1.415 . S
C572 C571 1.355 . S
C572 C574 1.419 . S
C573 C568 1.425 . S
C573 C570 1.409 . S
C573 C571 1.415 . S
C574 H564 0.930 . S
C574 C572 1.419 . S
C574 C575 1.362 . S
C575 H565 0.930 . S
C575 C568 1.409 . S
C575 C574 1.362 . S
H576 C582 0.930 1_455 S
H577 C585 0.930 . S
H578 C586 0.930 . S
H579 C587 0.930 1_655 S
H580 C590 0.930 . S
H581 C591 0.930 . S
C582 H576 0.930 1_655 S
C582 C583 1.355 . S
C582 C584 1.415 1_655 S
C583 C582 1.355 . S
C583 C585 1.419 . S
C584 C582 1.415 1_455 S
C584 C589 1.425 1_455 S
C584 C591 1.409 . S
C585 H577 0.930 . S
C585 C583 1.419 . S
C585 C586 1.362 . S
C586 H578 0.930 . S
C586 C585 1.362 . S
C586 C589 1.409 . S
C587 H579 0.930 1_455 S
C587 C588 1.355 . S
C587 C589 1.415 1_455 S
C588 C587 1.355 . S
C588 C590 1.419 . S
C589 C584 1.425 1_655 S
C589 C586 1.409 . S
C589 C587 1.415 1_655 S
C590 H580 0.930 . S
C590 C588 1.419 . S
C590 C591 1.362 . S
C591 H581 0.930 . S
C591 C584 1.409 . S
C591 C590 1.362 . S
H592 C598 0.930 . S
H593 C601 0.930 . S
H594 C602 0.930 . S
H595 C603 0.930 . S
H596 C606 0.930 . S
H597 C607 0.930 . S
C598 H592 0.930 . S
C598 C599 1.355 . S
C598 C600 1.415 . S
C599 C598 1.355 . S
C599 C601 1.419 . S
C600 C598 1.415 . S
C600 C605 1.425 . S
C600 C607 1.409 . S
C601 H593 0.930 . S
C601 C599 1.419 . S
C601 C602 1.362 . S
C602 H594 0.930 . S
C602 C601 1.362 . S
C602 C605 1.409 . S
C603 H595 0.930 . S
C603 C604 1.355 . S
C603 C605 1.415 . S
C604 C603 1.355 . S
C604 C606 1.419 . S
C605 C600 1.425 . S
C605 C602 1.409 . S
C605 C603 1.415 . S
C606 H596 0.930 . S
C606 C604 1.419 . S
C606 C607 1.362 . S
C607 H597 0.930 . S
C607 C600 1.409 . S
C607 C606 1.362 . S
H608 C614 0.930 . S
H609 C617 0.930 . S
H610 C618 0.930 . S
H611 C619 0.930 . S
H612 C622 0.930 . S
H613 C623 0.930 . S
C614 H608 0.930 . S
C614 C615 1.355 . S
C614 C616 1.415 . S
C615 C614 1.355 . S
C615 C617 1.419 . S
C616 C614 1.415 . S
C616 C621 1.425 . S
C616 C623 1.409 . S
C617 H609 0.930 . S
C617 C615 1.419 . S
C617 C618 1.362 . S
C618 H610 0.930 . S
C618 C617 1.362 . S
C618 C621 1.409 . S
C619 H611 0.930 . S
C619 C620 1.355 . S
C619 C621 1.415 . S
C620 C619 1.355 . S
C620 C622 1.419 . S
C621 C616 1.425 . S
C621 C618 1.409 . S
C621 C619 1.415 . S
C622 H612 0.930 . S
C622 C620 1.419 . S
C622 C623 1.362 . S
C623 H613 0.930 . S
C623 C616 1.409 . S
C623 C622 1.362 . S
H624 C630 0.930 . S
H625 C633 0.930 . S
H626 C634 0.930 . S
H627 C635 0.930 . S
H628 C638 0.930 . S
H629 C639 0.930 . S
C630 H624 0.930 . S
C630 C631 1.355 . S
C630 C632 1.415 . S
C631 C630 1.355 . S
C631 C633 1.419 1_655 S
C632 C630 1.415 . S
C632 C637 1.425 1_655 S
C632 C639 1.409 . S
C633 H625 0.930 . S
C633 C631 1.419 1_455 S
C633 C634 1.362 . S
C634 H626 0.930 . S
C634 C633 1.362 . S
C634 C637 1.409 . S
C635 H627 0.930 . S
C635 C636 1.355 . S
C635 C637 1.415 . S
C636 C635 1.355 . S
C636 C638 1.419 1_455 S
C637 C632 1.425 1_455 S
C637 C634 1.409 . S
C637 C635 1.415 . S
C638 H628 0.930 . S
C638 C636 1.419 1_655 S
C638 C639 1.362 . S
C639 H629 0.930 . S
C639 C632 1.409 . S
C639 C638 1.362 . S
H640 C646 0.930 . S
H641 C649 0.930 . S
H642 C650 0.930 . S
H643 C651 0.930 . S
H644 C654 0.930 . S
H645 C655 0.930 . S
C646 H640 0.930 . S
C646 C647 1.355 . S
C646 C648 1.415 . S
C647 C646 1.355 . S
C647 C649 1.419 . S
C648 C646 1.415 . S
C648 C653 1.425 . S
C648 C655 1.409 . S
C649 H641 0.930 . S
C649 C647 1.419 . S
C649 C650 1.362 . S
C650 H642 0.930 . S
C650 C649 1.362 . S
C650 C653 1.409 . S
C651 H643 0.930 . S
C651 C652 1.355 . S
C651 C653 1.415 . S
C652 C651 1.355 . S
C652 C654 1.419 . S
C653 C648 1.425 . S
C653 C650 1.409 . S
C653 C651 1.415 . S
C654 H644 0.930 . S
C654 C652 1.419 . S
C654 C655 1.362 . S
C655 H645 0.930 . S
C655 C648 1.409 . S
C655 C654 1.362 . S
H656 C662 0.930 . S
H657 C665 0.930 . S
H658 C666 0.930 . S
H659 C667 0.930 . S
H660 C670 0.930 . S
H661 C671 0.930 . S
C662 H656 0.930 . S
C662 C663 1.355 . S
C662 C664 1.415 1_655 S
C663 C662 1.355 . S
C663 C665 1.419 . S
C664 C662 1.415 1_455 S
C664 C669 1.425 1_455 S
C664 C671 1.409 . S
C665 H657 0.930 . S
C665 C663 1.419 . S
C665 C666 1.362 . S
C666 H658 0.930 . S
C666 C665 1.362 . S
C666 C669 1.409 . S
C667 H659 0.930 . S
C667 C668 1.355 . S
C667 C669 1.415 1_455 S
C668 C667 1.355 . S
C668 C670 1.419 . S
C669 C664 1.425 1_655 S
C669 C666 1.409 . S
C669 C667 1.415 1_655 S
C670 H660 0.930 . S
C670 C668 1.419 . S
C670 C671 1.362 . S
C671 H661 0.930 . S
C671 C664 1.409 . S
C671 C670 1.362 . S
H672 C678 0.930 . S
H673 C681 0.930 . S
H674 C682 0.930 . S
H675 C683 0.930 . S
H676 C686 0.930 . S
H677 C687 0.930 . S
C678 H672 0.930 . S
C678 C679 1.355 . S
C678 C680 1.415 . S
C679 C678 1.355 . S
C679 C681 1.419 . S
C680 C678 1.415 . S
C680 C685 1.425 . S
C680 C687 1.409 . S
C681 H673 0.930 . S
C681 C679 1.419 . S
C681 C682 1.362 . S
C682 H674 0.930 . S
C682 C681 1.362 . S
C682 C685 1.409 . S
C683 H675 0.930 . S
C683 C684 1.355 . S
C683 C685 1.415 . S
C684 C683 1.355 . S
C684 C686 1.419 . S
C685 C680 1.425 . S
C685 C682 1.409 . S
C685 C683 1.415 . S
C686 H676 0.930 . S
C686 C684 1.419 . S
C686 C687 1.362 . S
C687 H677 0.930 . S
C687 C680 1.409 . S
C687 C686 1.362 . S
H688 C694 0.930 . S
H689 C697 0.930 . S
H690 C698 0.930 . S
H691 C699 0.930 . S
H692 C702 0.930 . S
H693 C703 0.930 . S
C694 H688 0.930 . S
C694 C695 1.355 . S
C694 C696 1.415 . S
C695 C694 1.355 . S
C695 C697 1.419 . S
C696 C694 1.415 . S
C696 C701 1.425 . S
C696 C703 1.409 . S
C697 H689 0.930 . S
C697 C695 1.419 . S
C697 C698 1.362 . S
C698 H690 0.930 . S
C698 C697 1.362 . S
C698 C701 1.409 . S
C699 H691 0.930 . S
C699 C700 1.355 . S
C699 C701 1.415 . S
C700 C699 1.355 . S
C700 C702 1.419 . S
C701 C696 1.425 . S
C701 C698 1.409 . S
C701 C699 1.415 . S
C702 H692 0.930 . S
C702 C700 1.419 . S
C702 C703 1.362 . S
C703 H693 0.930 . S
C703 C696 1.409 . S
C703 C702 1.362 . S
H704 C710 0.930 . S
H705 C713 0.930 . S
H706 C714 0.930 . S
H707 C715 0.930 . S
H708 C718 0.930 . S
H709 C719 0.930 . S
C710 H704 0.930 . S
C710 C711 1.355 . S
C710 C712 1.415 . S
C711 C710 1.355 . S
C711 C713 1.419 . S
C712 C710 1.415 . S
C712 C717 1.425 . S
C712 C719 1.409 . S
C713 H705 0.930 . S
C713 C711 1.419 . S
C713 C714 1.362 . S
C714 H706 0.930 . S
C714 C713 1.362 . S
C714 C717 1.409 . S
C715 H707 0.930 . S
C715 C716 1.355 . S
C715 C717 1.415 . S
C716 C715 1.355 . S
C716 C718 1.419 . S
C717 C712 1.425 . S
C717 C714 1.409 . S
C717 C715 1.415 . S
C718 H708 0.930 . S
C718 C716 1.419 . S
C718 C719 1.362 . S
C719 H709 0.930 . S
C719 C712 1.409 . S
C719 C718 1.362 . S
H720 C726 0.930 . S
H721 C729 0.930 . S
H722 C730 0.930 . S
H723 C731 0.930 . S
H724 C734 0.930 . S
H725 C735 0.930 . S
C726 H720 0.930 . S
C726 C727 1.355 . S
C726 C728 1.415 . S
C727 C726 1.355 . S
C727 C729 1.419 . S
C728 C726 1.415 . S
C728 C733 1.425 . S
C728 C735 1.409 . S
C729 H721 0.930 . S
C729 C727 1.419 . S
C729 C730 1.362 . S
C730 H722 0.930 . S
C730 C729 1.362 . S
C730 C733 1.409 . S
C731 H723 0.930 . S
C731 C732 1.355 . S
C731 C733 1.415 . S
C732 C731 1.355 . S
C732 C734 1.419 . S
C733 C728 1.425 . S
C733 C730 1.409 . S
C733 C731 1.415 . S
C734 H724 0.930 . S
C734 C732 1.419 . S
C734 C735 1.362 . S
C735 H725 0.930 . S
C735 C728 1.409 . S
C735 C734 1.362 . S
H736 C742 0.930 . S
H737 C745 0.930 . S
H738 C746 0.930 . S
H739 C747 0.930 . S
H740 C750 0.930 . S
H741 C751 0.930 . S
C742 H736 0.930 . S
C742 C743 1.355 . S
C742 C744 1.415 . S
C743 C742 1.355 . S
C743 C745 1.419 . S
C744 C742 1.415 . S
C744 C749 1.425 . S
C744 C751 1.409 . S
C745 H737 0.930 . S
C745 C743 1.419 . S
C745 C746 1.362 . S
C746 H738 0.930 . S
C746 C745 1.362 . S
C746 C749 1.409 . S
C747 H739 0.930 . S
C747 C748 1.355 . S
C747 C749 1.415 . S
C748 C747 1.355 . S
C748 C750 1.419 . S
C749 C744 1.425 . S
C749 C746 1.409 . S
C749 C747 1.415 . S
C750 H740 0.930 . S
C750 C748 1.419 . S
C750 C751 1.362 . S
C751 H741 0.930 . S
C751 C744 1.409 . S
C751 C750 1.362 . S
H752 C758 0.930 . S
H753 C761 0.930 . S
H754 C762 0.930 . S
H755 C763 0.930 . S
H756 C766 0.930 . S
H757 C767 0.930 . S
C758 H752 0.930 . S
C758 C759 1.355 . S
C758 C760 1.415 . S
C759 C758 1.355 . S
C759 C761 1.419 . S
C760 C758 1.415 . S
C760 C765 1.425 . S
C760 C767 1.409 . S
C761 H753 0.930 . S
C761 C759 1.419 . S
C761 C762 1.362 . S
C762 H754 0.930 . S
C762 C761 1.362 . S
C762 C765 1.409 . S
C763 H755 0.930 . S
C763 C764 1.355 . S
C763 C765 1.415 . S
C764 C763 1.355 . S
C764 C766 1.419 . S
C765 C760 1.425 . S
C765 C762 1.409 . S
C765 C763 1.415 . S
C766 H756 0.930 . S
C766 C764 1.419 . S
C766 C767 1.362 . S
C767 H757 0.930 . S
C767 C760 1.409 . S
C767 C766 1.362 . S
H768 C774 0.930 . S
H769 C777 0.930 . S
H770 C778 0.930 . S
H771 C779 0.930 . S
H772 C782 0.930 . S
H773 C783 0.930 . S
C774 H768 0.930 . S
C774 C775 1.355 . S
C774 C776 1.415 . S
C775 C774 1.355 . S
C775 C777 1.419 . S
C776 C774 1.415 . S
C776 C781 1.425 . S
C776 C783 1.409 . S
C777 H769 0.930 . S
C777 C775 1.419 . S
C777 C778 1.362 . S
C778 H770 0.930 . S
C778 C777 1.362 . S
C778 C781 1.409 . S
C779 H771 0.930 . S
C779 C780 1.355 . S
C779 C781 1.415 . S
C780 C779 1.355 . S
C780 C782 1.419 . S
C781 C776 1.425 . S
C781 C778 1.409 . S
C781 C779 1.415 . S
C782 H772 0.930 . S
C782 C780 1.419 . S
C782 C783 1.362 . S
C783 H773 0.930 . S
C783 C776 1.409 . S
C783 C782 1.362 . S
H784 C790 0.930 . S
H785 C793 0.930 . S
H786 C794 0.930 . S
H787 C795 0.930 . S
H788 C798 0.930 . S
H789 C799 0.930 . S
C790 H784 0.930 . S
C790 C791 1.355 . S
C790 C792 1.415 . S
C791 C790 1.355 . S
C791 C793 1.419 . S
C792 C790 1.415 . S
C792 C797 1.425 . S
C792 C799 1.409 . S
C793 H785 0.930 . S
C793 C791 1.419 . S
C793 C794 1.362 . S
C794 H786 0.930 . S
C794 C793 1.362 . S
C794 C797 1.409 . S
C795 H787 0.930 . S
C795 C796 1.355 . S
C795 C797 1.415 . S
C796 C795 1.355 . S
C796 C798 1.419 . S
C797 C792 1.425 . S
C797 C794 1.409 . S
C797 C795 1.415 . S
C798 H788 0.930 . S
C798 C796 1.419 . S
C798 C799 1.362 . S
C799 H789 0.930 . S
C799 C792 1.409 . S
C799 C798 1.362 . S
H800 C806 0.930 . S
H801 C809 0.930 . S
H802 C810 0.930 . S
H803 C811 0.930 . S
H804 C814 0.930 . S
H805 C815 0.930 . S
C806 H800 0.930 . S
C806 C807 1.355 1_565 S
C806 C808 1.415 1_455 S
C807 C806 1.355 1_545 S
C807 C809 1.419 . S
C808 C806 1.415 1_655 S
C808 C813 1.425 1_665 S
C808 C815 1.409 . S
C809 H801 0.930 . S
C809 C807 1.419 . S
C809 C810 1.362 . S
C810 H802 0.930 . S
C810 C809 1.362 . S
C810 C813 1.409 . S
C811 H803 0.930 . S
C811 C812 1.355 1_545 S
C811 C813 1.415 1_655 S
C812 C811 1.355 1_565 S
C812 C814 1.419 . S
C813 C808 1.425 1_445 S
C813 C810 1.409 . S
C813 C811 1.415 1_455 S
C814 H804 0.930 . S
C814 C812 1.419 . S
C814 C815 1.362 . S
C815 H805 0.930 . S
C815 C808 1.409 . S
C815 C814 1.362 . S
H816 C822 0.930 . S
H817 C825 0.930 . S
H818 C826 0.930 . S
H819 C827 0.930 . S
H820 C830 0.930 . S
H821 C831 0.930 . S
C822 H816 0.930 . S
C822 C823 1.355 . S
C822 C824 1.415 . S
C823 C822 1.355 . S
C823 C825 1.419 1_565 S
C824 C822 1.415 . S
C824 C829 1.425 1_565 S
C824 C831 1.409 . S
C825 H817 0.930 . S
C825 C823 1.419 1_545 S
C825 C826 1.362 . S
C826 H818 0.930 . S
C826 C825 1.362 . S
C826 C829 1.409 . S
C827 H819 0.930 . S
C827 C828 1.355 . S
C827 C829 1.415 . S
C828 C827 1.355 . S
C828 C830 1.419 1_545 S
C829 C824 1.425 1_545 S
C829 C826 1.409 . S
C829 C827 1.415 . S
C830 H820 0.930 . S
C830 C828 1.419 1_565 S
C830 C831 1.362 . S
C831 H821 0.930 . S
C831 C824 1.409 . S
C831 C830 1.362 . S
H832 C838 0.930 . S
H833 C841 0.930 . S
H834 C842 0.930 . S
H835 C843 0.930 . S
H836 C846 0.930 . S
H837 C847 0.930 . S
C838 H832 0.930 . S
C838 C839 1.355 . S
C838 C840 1.415 . S
C839 C838 1.355 . S
C839 C841 1.419 1_545 S
C840 C838 1.415 . S
C840 C845 1.425 1_546 S
C840 C847 1.409 1_556 S
C841 H833 0.930 . S
C841 C839 1.419 1_565 S
C841 C842 1.362 . S
C842 H834 0.930 . S
C842 C841 1.362 . S
C842 C845 1.409 1_556 S
C843 H835 0.930 . S
C843 C844 1.355 . S
C843 C845 1.415 . S
C844 C843 1.355 . S
C844 C846 1.419 1_565 S
C845 C840 1.425 1_564 S
C845 C842 1.409 1_554 S
C845 C843 1.415 . S
C846 H836 0.930 . S
C846 C844 1.419 1_545 S
C846 C847 1.362 . S
C847 H837 0.930 . S
C847 C840 1.409 1_554 S
C847 C846 1.362 . S
H848 C854 0.930 . S
H849 C857 0.930 . S
H850 C858 0.930 . S
H851 C859 0.930 . S
H852 C862 0.930 . S
H853 C863 0.930 . S
C854 H848 0.930 . S
C854 C855 1.355 . S
C854 C856 1.415 1_544 S
C855 C854 1.355 . S
C855 C857 1.419 1_655 S
C856 C854 1.415 1_566 S
C856 C861 1.425 1_666 S
C856 C863 1.409 . S
C857 H849 0.930 . S
C857 C855 1.419 1_455 S
C857 C858 1.362 . S
C858 H850 0.930 . S
C858 C857 1.362 . S
C858 C861 1.409 . S
C859 H851 0.930 . S
C859 C860 1.355 . S
C859 C861 1.415 1_566 S
C860 C859 1.355 . S
C860 C862 1.419 1_455 S
C861 C856 1.425 1_444 S
C861 C858 1.409 . S
C861 C859 1.415 1_544 S
C862 H852 0.930 . S
C862 C860 1.419 1_655 S
C862 C863 1.362 . S
C863 H853 0.930 . S
C863 C856 1.409 . S
C863 C862 1.362 . S
H864 C870 0.930 . S
H865 C873 0.930 . S
H866 C874 0.930 . S
H867 C875 0.930 . S
H868 C878 0.930 . S
H869 C879 0.930 . S
C870 H864 0.930 . S
C870 C871 1.355 . S
C870 C872 1.415 . S
C871 C870 1.355 . S
C871 C873 1.419 . S
C872 C870 1.415 . S
C872 C877 1.425 . S
C872 C879 1.409 . S
C873 H865 0.930 . S
C873 C871 1.419 . S
C873 C874 1.362 . S
C874 H866 0.930 . S
C874 C873 1.362 . S
C874 C877 1.409 . S
C875 H867 0.930 . S
C875 C876 1.355 . S
C875 C877 1.415 . S
C876 C875 1.355 . S
C876 C878 1.419 . S
C877 C872 1.425 . S
C877 C874 1.409 . S
C877 C875 1.415 . S
C878 H868 0.930 . S
C878 C876 1.419 . S
C878 C879 1.362 . S
C879 H869 0.930 . S
C879 C872 1.409 . S
C879 C878 1.362 . S
H880 C886 0.930 . S
H881 C889 0.930 . S
H882 C890 0.930 . S
H883 C891 0.930 . S
H884 C894 0.930 . S
H885 C895 0.930 . S
C886 H880 0.930 . S
C886 C887 1.355 . S
C886 C888 1.415 . S
C887 C886 1.355 . S
C887 C889 1.419 1_455 S
C888 C886 1.415 . S
C888 C893 1.425 1_455 S
C888 C895 1.409 . S
C889 H881 0.930 . S
C889 C887 1.419 1_655 S
C889 C890 1.362 . S
C890 H882 0.930 . S
C890 C889 1.362 . S
C890 C893 1.409 . S
C891 H883 0.930 . S
C891 C892 1.355 . S
C891 C893 1.415 . S
C892 C891 1.355 . S
C892 C894 1.419 1_655 S
C893 C888 1.425 1_655 S
C893 C890 1.409 . S
C893 C891 1.415 . S
C894 H884 0.930 . S
C894 C892 1.419 1_455 S
C894 C895 1.362 . S
C895 H885 0.930 . S
C895 C888 1.409 . S
C895 C894 1.362 . S
H896 C902 0.930 1_655 S
H897 C905 0.930 . S
H898 C906 0.946 . S
H899 C907 0.930 1_455 S
H900 C910 0.930 . S
H901 C911 0.946 . S
C902 H896 0.930 1_455 S
C902 C903 1.355 . S
C902 C904 1.415 1_455 S
C903 C902 1.355 . S
C903 C905 1.419 . S
C904 C902 1.415 1_655 S
C904 C909 1.425 1_654 S
C904 C911 1.416 . S
C905 H897 0.930 . S
C905 C903 1.419 . S
C905 C906 1.341 1_554 S
C906 H898 0.946 . S
C906 C905 1.341 1_556 S
C906 C909 1.416 . S
C907 H899 0.930 1_655 S
C907 C908 1.355 . S
C907 C909 1.415 1_655 S
C908 C907 1.355 . S
C908 C910 1.419 . S
C909 C904 1.425 1_456 S
C909 C906 1.416 . S
C909 C907 1.415 1_455 S
C910 H900 0.930 . S
C910 C908 1.419 . S
C910 C911 1.341 1_556 S
C911 H901 0.946 . S
C911 C904 1.416 . S
C911 C910 1.341 1_554 S
H912 C918 0.930 . S
H913 C921 0.930 . S
H914 C922 0.939 . S
H915 C923 0.930 . S
H916 C926 0.930 . S
H917 C927 0.939 . S
C918 H912 0.930 . S
C918 C919 1.355 . S
C918 C920 1.415 . S
C919 C918 1.355 . S
C919 C921 1.419 . S
C920 C918 1.415 . S
C920 C925 1.425 1_556 S
C920 C927 1.413 . S
C921 H913 0.930 . S
C921 C919 1.419 . S
C921 C922 1.349 1_556 S
C922 H914 0.939 . S
C922 C921 1.349 1_554 S
C922 C925 1.413 . S
C923 H915 0.930 . S
C923 C924 1.355 . S
C923 C925 1.415 . S
C924 C923 1.355 . S
C924 C926 1.419 . S
C925 C920 1.425 1_554 S
C925 C922 1.413 . S
C925 C923 1.415 . S
C926 H916 0.930 . S
C926 C924 1.419 . S
C926 C927 1.349 1_554 S
C927 H917 0.939 . S
C927 C920 1.413 . S
C927 C926 1.349 1_556 S
H928 C934 0.930 . S
H929 C937 0.930 . S
H930 C938 0.930 . S
H931 C939 0.930 . S
H932 C942 0.930 . S
H933 C943 0.930 . S
C934 H928 0.930 . S
C934 C935 1.355 . S
C934 C936 1.415 . S
C935 C934 1.355 . S
C935 C937 1.419 . S
C936 C934 1.415 . S
C936 C941 1.425 1_545 S
C936 C943 1.409 . S
C937 H929 0.930 . S
C937 C935 1.419 . S
C937 C938 1.362 1_545 S
C938 H930 0.930 . S
C938 C937 1.362 1_565 S
C938 C941 1.409 . S
C939 H931 0.930 . S
C939 C940 1.355 . S
C939 C941 1.415 . S
C940 C939 1.355 . S
C940 C942 1.419 . S
C941 C936 1.425 1_565 S
C941 C938 1.409 . S
C941 C939 1.415 . S
C942 H932 0.930 . S
C942 C940 1.419 . S
C942 C943 1.362 1_565 S
C943 H933 0.930 . S
C943 C936 1.409 . S
C943 C942 1.362 1_545 S
H944 C950 0.930 . S
H945 C953 0.930 . S
H946 C954 0.930 . S
H947 C955 0.930 . S
H948 C958 0.930 . S
H949 C959 0.930 . S
C950 H944 0.930 . S
C950 C951 1.355 . S
C950 C952 1.415 . S
C951 C950 1.355 . S
C951 C953 1.419 . S
C952 C950 1.415 . S
C952 C957 1.425 1_545 S
C952 C959 1.409 . S
C953 H945 0.930 . S
C953 C951 1.419 . S
C953 C954 1.362 1_545 S
C954 H946 0.930 . S
C954 C953 1.362 1_565 S
C954 C957 1.409 . S
C955 H947 0.930 . S
C955 C956 1.355 . S
C955 C957 1.415 . S
C956 C955 1.355 . S
C956 C958 1.419 . S
C957 C952 1.425 1_565 S
C957 C954 1.409 . S
C957 C955 1.415 . S
C958 H948 0.930 . S
C958 C956 1.419 . S
C958 C959 1.362 1_565 S
C959 H949 0.930 . S
C959 C952 1.409 . S
C959 C958 1.362 1_545 S
H960 C966 0.930 1_565 S
H961 C969 0.930 . S
H962 C970 0.930 . S
H963 C971 0.930 1_545 S
H964 C974 0.930 . S
H965 C975 0.930 . S
C966 H960 0.930 1_545 S
C966 C967 1.355 . S
C966 C968 1.415 1_545 S
C967 C966 1.355 . S
C967 C969 1.419 . S
C968 C966 1.415 1_565 S
C968 C973 1.425 1_565 S
C968 C975 1.409 . S
C969 H961 0.930 . S
C969 C967 1.419 . S
C969 C970 1.362 . S
C970 H962 0.930 . S
C970 C969 1.362 . S
C970 C973 1.409 . S
C971 H963 0.930 1_565 S
C971 C972 1.355 . S
C971 C973 1.415 1_565 S
C972 C971 1.355 . S
C972 C974 1.419 . S
C973 C968 1.425 1_545 S
C973 C970 1.409 . S
C973 C971 1.415 1_545 S
C974 H964 0.930 . S
C974 C972 1.419 . S
C974 C975 1.362 . S
C975 H965 0.930 . S
C975 C968 1.409 . S
C975 C974 1.362 . S
H976 C982 0.930 . S
H977 C985 0.930 . S
H978 C986 0.930 1_565 S
H979 C987 0.930 . S
H980 C990 0.930 . S
H981 C991 0.930 1_545 S
C982 H976 0.930 . S
C982 C983 1.355 . S
C982 C984 1.415 . S
C983 C982 1.355 . S
C983 C985 1.419 . S
C984 C982 1.415 . S
C984 C989 1.425 1_545 S
C984 C991 1.409 1_545 S
C985 H977 0.930 . S
C985 C983 1.419 . S
C985 C986 1.362 . S
C986 H978 0.930 1_545 S
C986 C985 1.362 . S
C986 C989 1.409 1_545 S
C987 H979 0.930 . S
C987 C988 1.355 . S
C987 C989 1.415 . S
C988 C987 1.355 . S
C988 C990 1.419 . S
C989 C984 1.425 1_565 S
C989 C986 1.409 1_565 S
C989 C987 1.415 . S
C990 H980 0.930 . S
C990 C988 1.419 . S
C990 C991 1.362 . S
C991 H981 0.930 1_565 S
C991 C984 1.409 1_565 S
C991 C990 1.362 . S
H992 C998 0.930 . S
H993 C1001 0.930 . S
H994 C1002 0.930 . S
H995 C1003 0.930 . S
H996 C1006 0.930 . S
H997 C1007 0.930 . S
C998 H992 0.930 . S
C998 C999 1.355 . S
C998 C1000 1.415 . S
C999 C998 1.355 . S
C999 C1001 1.419 . S
C1000 C998 1.415 . S
C1000 C1005 1.425 . S
C1000 C1007 1.409 . S
C1001 H993 0.930 . S
C1001 C999 1.419 . S
C1001 C1002 1.362 . S
C1002 H994 0.930 . S
C1002 C1001 1.362 . S
C1002 C1005 1.409 . S
C1003 H995 0.930 . S
C1003 C1004 1.355 . S
C1003 C1005 1.415 . S
C1004 C1003 1.355 . S
C1004 C1006 1.419 . S
C1005 C1000 1.425 . S
C1005 C1002 1.409 . S
C1005 C1003 1.415 . S
C1006 H996 0.930 . S
C1006 C1004 1.419 . S
C1006 C1007 1.362 . S
C1007 H997 0.930 . S
C1007 C1000 1.409 . S
C1007 C1006 1.362 . S
H1008 C1014 0.930 . S
H1009 C1017 0.930 . S
H1010 C1018 0.930 . S
H1011 C1019 0.930 . S
H1012 C1022 0.930 . S
H1013 C1023 0.930 . S
C1014 H1008 0.930 . S
C1014 C1015 1.355 . S
C1014 C1016 1.415 . S
C1015 C1014 1.355 . S
C1015 C1017 1.419 . S
C1016 C1014 1.415 . S
C1016 C1021 1.425 . S
C1016 C1023 1.409 . S
C1017 H1009 0.930 . S
C1017 C1015 1.419 . S
C1017 C1018 1.362 . S
C1018 H1010 0.930 . S
C1018 C1017 1.362 . S
C1018 C1021 1.409 . S
C1019 H1011 0.930 . S
C1019 C1020 1.355 . S
C1019 C1021 1.415 . S
C1020 C1019 1.355 . S
C1020 C1022 1.419 . S
C1021 C1016 1.425 . S
C1021 C1018 1.409 . S
C1021 C1019 1.415 . S
C1022 H1012 0.930 . S
C1022 C1020 1.419 . S
C1022 C1023 1.362 . S
C1023 H1013 0.930 . S
C1023 C1016 1.409 . S
C1023 C1022 1.362 . S
H1024 C1030 0.930 . S
H1025 C1033 0.930 . S
H1026 C1034 0.930 . S
H1027 C1035 0.930 . S
H1028 C1038 0.930 . S
H1029 C1039 0.930 . S
C1030 H1024 0.930 . S
C1030 C1031 1.355 . S
C1030 C1032 1.415 . S
C1031 C1030 1.355 . S
C1031 C1033 1.419 . S
C1032 C1030 1.415 . S
C1032 C1037 1.425 . S
C1032 C1039 1.409 . S
C1033 H1025 0.930 . S
C1033 C1031 1.419 . S
C1033 C1034 1.362 . S
C1034 H1026 0.930 . S
C1034 C1033 1.362 . S
C1034 C1037 1.409 . S
C1035 H1027 0.930 . S
C1035 C1036 1.355 . S
C1035 C1037 1.415 . S
C1036 C1035 1.355 . S
C1036 C1038 1.419 . S
C1037 C1032 1.425 . S
C1037 C1034 1.409 . S
C1037 C1035 1.415 . S
C1038 H1028 0.930 . S
C1038 C1036 1.419 . S
C1038 C1039 1.362 . S
C1039 H1029 0.930 . S
C1039 C1032 1.409 . S
C1039 C1038 1.362 . S
H1040 C1046 0.930 . S
H1041 C1049 0.930 . S
H1042 C1050 0.930 . S
H1043 C1051 0.930 . S
H1044 C1054 0.930 . S
H1045 C1055 0.930 . S
C1046 H1040 0.930 . S
C1046 C1047 1.355 . S
C1046 C1048 1.415 . S
C1047 C1046 1.355 . S
C1047 C1049 1.419 . S
C1048 C1046 1.415 . S
C1048 C1053 1.425 . S
C1048 C1055 1.409 . S
C1049 H1041 0.930 . S
C1049 C1047 1.419 . S
C1049 C1050 1.362 . S
C1050 H1042 0.930 . S
C1050 C1049 1.362 . S
C1050 C1053 1.409 . S
C1051 H1043 0.930 . S
C1051 C1052 1.355 . S
C1051 C1053 1.415 . S
C1052 C1051 1.355 . S
C1052 C1054 1.419 . S
C1053 C1048 1.425 . S
C1053 C1050 1.409 . S
C1053 C1051 1.415 . S
C1054 H1044 0.930 . S
C1054 C1052 1.419 . S
C1054 C1055 1.362 . S
C1055 H1045 0.930 . S
C1055 C1048 1.409 . S
C1055 C1054 1.362 . S
H1056 C1062 0.930 . S
H1057 C1065 0.930 . S
H1058 C1066 0.930 . S
H1059 C1067 0.930 . S
H1060 C1070 0.930 . S
H1061 C1071 0.930 . S
C1062 H1056 0.930 . S
C1062 C1063 1.355 . S
C1062 C1064 1.415 . S
C1063 C1062 1.355 . S
C1063 C1065 1.419 . S
C1064 C1062 1.415 . S
C1064 C1069 1.425 1_455 S
C1064 C1071 1.409 . S
C1065 H1057 0.930 . S
C1065 C1063 1.419 . S
C1065 C1066 1.362 1_455 S
C1066 H1058 0.930 . S
C1066 C1065 1.362 1_655 S
C1066 C1069 1.409 . S
C1067 H1059 0.930 . S
C1067 C1068 1.355 . S
C1067 C1069 1.415 . S
C1068 C1067 1.355 . S
C1068 C1070 1.419 . S
C1069 C1064 1.425 1_655 S
C1069 C1066 1.409 . S
C1069 C1067 1.415 . S
C1070 H1060 0.930 . S
C1070 C1068 1.419 . S
C1070 C1071 1.362 1_655 S
C1071 H1061 0.930 . S
C1071 C1064 1.409 . S
C1071 C1070 1.362 1_455 S
H1072 C1078 0.930 . S
H1073 C1081 0.930 . S
H1074 C1082 0.930 . S
H1075 C1083 0.930 . S
H1076 C1086 0.930 . S
H1077 C1087 0.930 . S
C1078 H1072 0.930 . S
C1078 C1079 1.355 . S
C1078 C1080 1.415 . S
C1079 C1078 1.355 . S
C1079 C1081 1.419 . S
C1080 C1078 1.415 . S
C1080 C1085 1.425 . S
C1080 C1087 1.409 . S
C1081 H1073 0.930 . S
C1081 C1079 1.419 . S
C1081 C1082 1.362 . S
C1082 H1074 0.930 . S
C1082 C1081 1.362 . S
C1082 C1085 1.409 . S
C1083 H1075 0.930 . S
C1083 C1084 1.355 . S
C1083 C1085 1.415 . S
C1084 C1083 1.355 . S
C1084 C1086 1.419 . S
C1085 C1080 1.425 . S
C1085 C1082 1.409 . S
C1085 C1083 1.415 . S
C1086 H1076 0.930 . S
C1086 C1084 1.419 . S
C1086 C1087 1.362 . S
C1087 H1077 0.930 . S
C1087 C1080 1.409 . S
C1087 C1086 1.362 . S
H1088 C1094 0.930 . S
H1089 C1097 0.930 . S
H1090 C1098 0.930 . S
H1091 C1099 0.930 . S
H1092 C1102 0.930 . S
H1093 C1103 0.930 . S
C1094 H1088 0.930 . S
C1094 C1095 1.355 . S
C1094 C1096 1.415 . S
C1095 C1094 1.355 . S
C1095 C1097 1.419 . S
C1096 C1094 1.415 . S
C1096 C1101 1.425 . S
C1096 C1103 1.409 . S
C1097 H1089 0.930 . S
C1097 C1095 1.419 . S
C1097 C1098 1.362 . S
C1098 H1090 0.930 . S
C1098 C1097 1.362 . S
C1098 C1101 1.409 . S
C1099 H1091 0.930 . S
C1099 C1100 1.355 . S
C1099 C1101 1.415 . S
C1100 C1099 1.355 . S
C1100 C1102 1.419 . S
C1101 C1096 1.425 . S
C1101 C1098 1.409 . S
C1101 C1099 1.415 . S
C1102 H1092 0.930 . S
C1102 C1100 1.419 . S
C1102 C1103 1.362 . S
C1103 H1093 0.930 . S
C1103 C1096 1.409 . S
C1103 C1102 1.362 . S
H1104 C1110 0.930 . S
H1105 C1113 0.930 . S
H1106 C1114 0.930 . S
H1107 C1115 0.930 . S
H1108 C1118 0.930 . S
H1109 C1119 0.930 . S
C1110 H1104 0.930 . S
C1110 C1111 1.355 . S
C1110 C1112 1.415 . S
C1111 C1110 1.355 . S
C1111 C1113 1.419 . S
C1112 C1110 1.415 . S
C1112 C1117 1.425 1_655 S
C1112 C1119 1.409 . S
C1113 H1105 0.930 . S
C1113 C1111 1.419 . S
C1113 C1114 1.362 1_655 S
C1114 H1106 0.930 . S
C1114 C1113 1.362 1_455 S
C1114 C1117 1.409 . S
C1115 H1107 0.930 . S
C1115 C1116 1.355 . S
C1115 C1117 1.415 . S
C1116 C1115 1.355 . S
C1116 C1118 1.419 . S
C1117 C1112 1.425 1_455 S
C1117 C1114 1.409 . S
C1117 C1115 1.415 . S
C1118 H1108 0.930 . S
C1118 C1116 1.419 . S
C1118 C1119 1.362 1_455 S
C1119 H1109 0.930 . S
C1119 C1112 1.409 . S
C1119 C1118 1.362 1_655 S
H1120 C1126 0.930 . S
H1121 C1129 0.930 . S
H1122 C1130 0.930 . S
H1123 C1131 0.930 . S
H1124 C1134 0.930 . S
H1125 C1135 0.930 . S
C1126 H1120 0.930 . S
C1126 C1127 1.355 . S
C1126 C1128 1.415 . S
C1127 C1126 1.355 . S
C1127 C1129 1.419 . S
C1128 C1126 1.415 . S
C1128 C1133 1.425 1_655 S
C1128 C1135 1.409 . S
C1129 H1121 0.930 . S
C1129 C1127 1.419 . S
C1129 C1130 1.362 1_655 S
C1130 H1122 0.930 . S
C1130 C1129 1.362 1_455 S
C1130 C1133 1.409 . S
C1131 H1123 0.930 . S
C1131 C1132 1.355 . S
C1131 C1133 1.415 . S
C1132 C1131 1.355 . S
C1132 C1134 1.419 . S
C1133 C1128 1.425 1_455 S
C1133 C1130 1.409 . S
C1133 C1131 1.415 . S
C1134 H1124 0.930 . S
C1134 C1132 1.419 . S
C1134 C1135 1.362 1_455 S
C1135 H1125 0.930 . S
C1135 C1128 1.409 . S
C1135 C1134 1.362 1_655 S
H1136 C1142 0.930 . S
H1137 C1145 0.930 . S
H1138 C1146 0.930 . S
H1139 C1147 0.930 . S
H1140 C1150 0.930 . S
H1141 C1151 0.930 . S
C1142 H1136 0.930 . S
C1142 C1143 1.355 . S
C1142 C1144 1.415 . S
C1143 C1142 1.355 . S
C1143 C1145 1.419 . S
C1144 C1142 1.415 . S
C1144 C1149 1.425 . S
C1144 C1151 1.409 . S
C1145 H1137 0.930 . S
C1145 C1143 1.419 . S
C1145 C1146 1.362 . S
C1146 H1138 0.930 . S
C1146 C1145 1.362 . S
C1146 C1149 1.409 . S
C1147 H1139 0.930 . S
C1147 C1148 1.355 . S
C1147 C1149 1.415 . S
C1148 C1147 1.355 . S
C1148 C1150 1.419 . S
C1149 C1144 1.425 . S
C1149 C1146 1.409 . S
C1149 C1147 1.415 . S
C1150 H1140 0.930 . S
C1150 C1148 1.419 . S
C1150 C1151 1.362 . S
C1151 H1141 0.930 . S
C1151 C1144 1.409 . S
C1151 C1150 1.362 . S
H1152 C1158 0.930 . S
H1153 C1161 0.930 . S
H1154 C1162 0.930 . S
H1155 C1163 0.930 . S
H1156 C1166 0.930 . S
H1157 C1167 0.930 . S
C1158 H1152 0.930 . S
C1158 C1159 1.355 . S
C1158 C1160 1.415 . S
C1159 C1158 1.355 . S
C1159 C1161 1.419 . S
C1160 C1158 1.415 . S
C1160 C1165 1.425 . S
C1160 C1167 1.409 . S
C1161 H1153 0.930 . S
C1161 C1159 1.419 . S
C1161 C1162 1.362 . S
C1162 H1154 0.930 . S
C1162 C1161 1.362 . S
C1162 C1165 1.409 . S
C1163 H1155 0.930 . S
C1163 C1164 1.355 . S
C1163 C1165 1.415 . S
C1164 C1163 1.355 . S
C1164 C1166 1.419 . S
C1165 C1160 1.425 . S
C1165 C1162 1.409 . S
C1165 C1163 1.415 . S
C1166 H1156 0.930 . S
C1166 C1164 1.419 . S
C1166 C1167 1.362 . S
C1167 H1157 0.930 . S
C1167 C1160 1.409 . S
C1167 C1166 1.362 . S
H1168 C1174 0.930 . S
H1169 C1177 0.930 . S
H1170 C1178 0.930 . S
H1171 C1179 0.930 . S
H1172 C1182 0.930 . S
H1173 C1183 0.930 . S
C1174 H1168 0.930 . S
C1174 C1175 1.355 . S
C1174 C1176 1.415 . S
C1175 C1174 1.355 . S
C1175 C1177 1.419 . S
C1176 C1174 1.415 . S
C1176 C1181 1.425 1_655 S
C1176 C1183 1.409 1_655 S
C1177 H1169 0.930 . S
C1177 C1175 1.419 . S
C1177 C1178 1.362 . S
C1178 H1170 0.930 . S
C1178 C1177 1.362 . S
C1178 C1181 1.409 1_655 S
C1179 H1171 0.930 . S
C1179 C1180 1.355 . S
C1179 C1181 1.415 . S
C1180 C1179 1.355 . S
C1180 C1182 1.419 . S
C1181 C1176 1.425 1_455 S
C1181 C1178 1.409 1_455 S
C1181 C1179 1.415 . S
C1182 H1172 0.930 . S
C1182 C1180 1.419 . S
C1182 C1183 1.362 . S
C1183 H1173 0.930 . S
C1183 C1176 1.409 1_455 S
C1183 C1182 1.362 . S
C551 C135 1.283 . S
C556 C33 1.317 . S
C567 C101 1.308 . S
C572 C67 1.299 . S
C583 C169 1.266 . S
C588 C271 1.309 . S
C599 C203 1.310 . S
C604 C237 1.266 . S
C615 C305 1.297 . S
C620 C407 1.309 . S
C631 C339 1.295 . S
C636 C373 1.311 . S
C647 C543 1.285 . S
C652 C441 1.274 . S
C663 C509 1.267 . S
C668 C475 1.312 . S
C679 C5 0.807 . S
C684 C345 0.887 . S
C695 C379 0.880 . S
C700 C39 0.834 . S
C711 C277 0.887 . S
C716 C73 0.813 . S
C727 C311 0.873 . S
C732 C107 0.797 . S
C743 C481 0.881 . S
C748 C141 0.799 . S
C759 C515 0.800 . S
C764 C175 0.883 . S
C775 C413 0.868 . S
C780 C209 0.851 . S
C791 C447 0.821 . S
C796 C243 0.885 . S
C807 C9 1.656 . S
C812 C145 1.656 . S
C823 C43 1.658 . S
C828 C179 1.658 . S
C839 C213 1.624 . S
C844 C77 1.624 . S
C855 C111 1.598 . S
C860 C247 1.598 . S
C871 C281 1.665 . S
C876 C417 1.665 . S
C887 C451 1.606 . S
C892 C315 1.606 . S
C903 C349 1.657 . S
C908 C485 1.657 . S
C919 C519 1.658 . S
C924 C383 1.658 . S
C935 C20 1.382 . S
C940 C54 1.388 . S
C951 C122 1.383 . S
C956 C88 1.396 . S
C967 C190 1.400 . S
C972 C156 1.403 . S
C983 C224 1.400 . S
C988 C258 1.387 . S
C999 C326 1.382 . S
C1004 C292 1.387 . S
C1015 C394 1.403 . S
C1020 C360 1.399 . S
C1031 C428 1.389 . S
C1036 C462 1.382 . S
C1047 C530 1.391 . S
C1052 C496 1.382 . S
C1063 C2 1.223 . S
C1068 C308 1.162 . S
C1079 C36 1.195 . S
C1084 C274 1.204 . S
C1095 C70 1.178 . S
C1100 C376 1.219 . S
C1111 C104 1.190 . S
C1116 C342 1.188 . S
C1127 C138 1.191 . S
C1132 C444 1.186 . S
C1143 C410 1.214 . S
C1148 C172 1.184 . S
C1159 C206 1.190 . S
C1164 C512 1.188 . S
C1175 C478 1.168 . S
C1180 C240 1.224 . S
