# Generated by pormake.
# Topology rob, (6)-cn, num edge types: 1
# Building blocks:
#     Node 0, Type 0, BuildingBlock: UKALOJ_clean_sbu_0, # of connection points: 6
#     Node 1, Type 0, BuildingBlock: UKALOJ_clean_sbu_0, # of connection points: 6
#     Node 2, Type 0, BuildingBlock: UKALOJ_clean_sbu_0, # of connection points: 6
#     Node 3, Type 0, BuildingBlock: UKALOJ_clean_sbu_0, # of connection points: 6
#     Edge 4, Type (0, 0), BuildingBlock: XIVTED_clean_linker_0, # of connection points: 2
#     Edge 5, Type (0, 0), BuildingBlock: XIVTED_clean_linker_0, # of connection points: 2
#     Edge 6, Type (0, 0), BuildingBlock: XIVTED_clean_linker_0, # of connection points: 2
#     Edge 7, Type (0, 0), BuildingBlock: XIVTED_clean_linker_0, # of connection points: 2
#     Edge 8, Type (0, 0), BuildingBlock: XIVTED_clean_linker_0, # of connection points: 2
#     Edge 9, Type (0, 0), BuildingBlock: XIVTED_clean_linker_0, # of connection points: 2
#     Edge 10, Type (0, 0), BuildingBlock: XIVTED_clean_linker_0, # of connection points: 2
#     Edge 11, Type (0, 0), BuildingBlock: XIVTED_clean_linker_0, # of connection points: 2
#     Edge 12, Type (0, 0), BuildingBlock: XIVTED_clean_linker_0, # of connection points: 2
#     Edge 13, Type (0, 0), BuildingBlock: XIVTED_clean_linker_0, # of connection points: 2
#     Edge 14, Type (0, 0), BuildingBlock: XIVTED_clean_linker_0, # of connection points: 2
#     Edge 15, Type (0, 0), BuildingBlock: XIVTED_clean_linker_0, # of connection points: 2
# Relax obj value: 0.150
# Max RMSD: 0.190
# Mean RMSD: 0.190
data_MOF--net-rob--node1-UKALOJ_clean_sbu_0--edge1-XIVTED_clean_linker_0
_symmetry_space_group_name_H-M    P1
_symmetry_Int_Tables_number       1
_symmetry_cell_setting            triclinic
loop_
_symmetry_equiv_pos_as_xyz
'x, y, z'
_cell_length_a     14.573857
_cell_length_b     37.993654
_cell_length_c     24.306875
_cell_angle_alpha  103.2116
_cell_angle_beta   90.144746
_cell_angle_gamma 89.933118
loop_
_atom_site_label
_atom_site_type_symbol
_atom_site_fract_x
_atom_site_fract_y
_atom_site_fract_z
_atom_type_partial_charge
Zn0 Zn 0.29669 0.29068 -0.00262 0.0
O1 O 0.34483 0.27262 0.91484 0.0
C2 C 0.11821 0.30445 0.9491 0.0
Zn3 Zn 0.20373 0.24266 0.98668 0.0
C4 C 0.31789 0.24228 0.88549 0.0
O5 O 0.26146 0.22327 0.90591 0.0
C6 C 0.18137 0.29152 0.0982 0.0
O7 O 0.30451 0.21471 0.02227 0.0
O8 O 0.39859 0.26049 0.02763 0.0
N9 N 0.11684 0.19875 0.97156 0.0
C10 C 0.10534 0.17106 -0.00289 0.0
C11 C 0.01772 0.16115 0.92494 0.0
N12 N 0.06186 0.19256 0.9269 0.0
N13 N 0.04415 0.14693 0.96838 0.0
C14 C 0.40292 0.3605 0.98437 0.0
C15 C 0.46466 0.3764 0.06584 0.0
N16 N 0.38227 0.33489 0.01283 0.0
N17 N 0.42152 0.34476 0.06318 0.0
N18 N 0.45431 0.38699 0.01694 0.0
H19 H 0.31646 0.33937 0.91175 0.0
H20 H 0.42657 0.35507 0.89609 0.0
H21 H 0.33964 0.38747 0.92535 0.0
C22 C 0.36853 0.36056 0.92623 0.0
C23 C 0.15043 0.16866 0.05151 0.0
H24 H 0.16691 0.19595 0.07729 0.0
H25 H 0.21495 0.15306 0.04185 0.0
H26 H 0.10536 0.15441 0.07608 0.0
O27 O 0.1471 0.26308 0.06704 0.0
O28 O 0.24626 0.30788 0.07991 0.0
C29 C 0.38237 0.22922 0.03579 0.0
O30 O 0.19293 0.32012 0.96715 0.0
O31 O 0.10538 0.27184 0.95186 0.0
Zn32 Zn 0.77436 0.79456 -0.00625 0.0
O33 O 0.81521 0.78436 0.90899 0.0
C34 C 0.58494 0.79131 0.95696 0.0
Zn35 Zn 0.72378 0.73777 0.98204 0.0
C36 C 0.80073 0.7535 0.87674 0.0
O37 O 0.76548 0.72852 0.89668 0.0
C38 C 0.69709 0.77939 0.09911 0.0
O39 O 0.84955 0.71794 0.00414 0.0
O40 O 0.89944 0.77363 0.01651 0.0
N41 N 0.66718 0.68693 0.96477 0.0
C42 C 0.66194 0.66023 -0.007 0.0
C43 C 0.60092 0.64045 0.91205 0.0
N44 N 0.62891 0.67452 0.91464 0.0
N45 N 0.62052 0.63072 0.96069 0.0
C46 C 0.82932 0.87376 0.98699 0.0
C47 C 0.92393 0.88655 0.05567 0.0
N48 N 0.8331 0.84494 0.01076 0.0
N49 N 0.89168 0.85312 0.05348 0.0
N50 N 0.88585 0.90028 0.01456 0.0
H51 H 0.75752 0.8475 0.9108 0.0
H52 H 0.81157 0.89002 0.90836 0.0
H53 H 0.70855 0.88934 0.94874 0.0
C54 C 0.77402 0.87503 0.93545 0.0
C55 C 0.70147 0.66257 0.0507 0.0
H56 H 0.75609 0.68327 0.06046 0.0
H57 H 0.72951 0.636 0.0542 0.0
H58 H 0.64635 0.67041 0.08255 0.0
O59 O 0.68369 0.74811 0.06766 0.0
O60 O 0.73189 0.80411 0.07839 0.0
C61 C 0.91331 0.74094 0.01865 0.0
O62 O 0.6491 0.81428 0.97081 0.0
O63 O 0.59828 0.75867 0.95979 0.0
Zn64 Zn 0.22242 0.79667 0.49452 0.0
O65 O 0.3461 0.81788 0.47194 0.0
C66 C 0.19831 0.75447 0.37723 0.0
Zn67 Zn 0.27482 0.74018 0.48306 0.0
C68 C 0.41066 0.79509 0.45817 0.0
O69 O 0.39812 0.76251 0.4613 0.0
C70 C 0.08671 0.74146 0.51911 0.0
O71 O 0.31393 0.75152 0.56864 0.0
O72 O 0.26374 0.80728 0.57981 0.0
N73 N 0.33781 0.69065 0.46761 0.0
C74 C 0.33378 0.66184 0.49132 0.0
C75 C 0.43186 0.64964 0.42475 0.0
N76 N 0.39865 0.68288 0.42624 0.0
N77 N 0.39216 0.63566 0.46498 0.0
C78 C 0.16337 0.87532 0.48717 0.0
C79 C 0.06516 0.88703 0.55371 0.0
N80 N 0.15929 0.84624 0.51027 0.0
N81 N 0.09836 0.85372 0.55162 0.0
N82 N 0.10491 0.90137 0.51388 0.0
H83 H 0.23594 0.84987 0.41117 0.0
H84 H 0.28691 0.89058 0.45184 0.0
H85 H 0.18569 0.89335 0.4104 0.0
C86 C 0.22084 0.87724 0.43695 0.0
C87 C 0.27643 0.66026 0.54176 0.0
H88 H 0.2603 0.68772 0.56683 0.0
H89 H 0.3122 0.64475 0.56895 0.0
H90 H 0.21087 0.64641 0.52713 0.0
O91 O 0.15136 0.71881 0.50486 0.0
O92 O 0.09907 0.77421 0.51678 0.0
C93 C 0.29911 0.78255 0.60038 0.0
O94 O 0.18276 0.78535 0.40922 0.0
O95 O 0.23421 0.72971 0.39756 0.0
Zn96 Zn 0.70215 0.29333 0.49826 0.0
O97 O 0.80317 0.32168 0.46407 0.0
C98 C 0.68124 0.24276 0.38809 0.0
Zn99 Zn 0.79791 0.24612 0.4899 0.0
C100 C 0.88038 0.30699 0.44952 0.0
O101 O 0.89669 0.27545 0.45645 0.0
C102 C 0.61818 0.23263 0.53772 0.0
O103 O 0.85091 0.26728 0.57097 0.0
O104 O 0.75544 0.31324 0.58018 0.0
N105 N 0.88592 0.20262 0.47713 0.0
C106 C 0.89485 0.17471 0.50249 0.0
C107 C 0.98754 0.16528 0.43301 0.0
N108 N 0.94401 0.19674 0.43416 0.0
N109 N 0.9576 0.15071 0.47527 0.0
C110 C 0.60409 0.36437 0.48518 0.0
C111 C 0.51302 0.37435 0.55547 0.0
N112 N 0.614 0.33678 0.51112 0.0
N113 N 0.5569 0.34299 0.5546 0.0
N114 N 0.54178 0.38849 0.51252 0.0
H115 H 0.6665 0.33924 0.40568 0.0
H116 H 0.71758 0.38125 0.44237 0.0
H117 H 0.6093 0.38167 0.40673 0.0
C118 C 0.65179 0.36664 0.43165 0.0
C119 C 0.84589 0.17207 0.55548 0.0
H120 H 0.83138 0.19938 0.58189 0.0
H121 H 0.88741 0.15663 0.58025 0.0
H122 H 0.77984 0.15777 0.54409 0.0
O123 O 0.69533 0.21751 0.52422 0.0
O124 O 0.60409 0.26431 0.53094 0.0
C125 C 0.81861 0.29675 0.60017 0.0
O126 O 0.64906 0.27221 0.41737 0.0
O127 O 0.74451 0.2262 0.40787 0.0
H128 H 0.55569 0.61522 0.05751 0.0
H129 H 0.53159 0.40185 0.92268 0.0
H130 H 0.63998 0.5663 0.88743 0.0
H131 H 0.44189 0.4512 0.09146 0.0
H132 H 0.57496 0.46159 0.90935 0.0
H133 H 0.51894 0.55515 0.07212 0.0
C134 C 0.56825 0.59177 0.02367 0.0
C135 C 0.60277 0.59563 0.97158 0.0
C136 C 0.54536 0.4594 0.94925 0.0
C137 C 0.55824 0.52685 0.98721 0.0
C138 C 0.51959 0.42531 0.95655 0.0
C139 C 0.48101 0.4217 0.00775 0.0
C140 C 0.53299 0.49008 -0.00637 0.0
C141 C 0.47098 0.4529 0.05123 0.0
C142 C 0.54625 0.55748 0.03172 0.0
C143 C 0.61398 0.56439 0.92831 0.0
N144 N 0.49639 0.48575 0.04315 0.0
N145 N 0.59192 0.53136 0.93707 0.0
H146 H 0.55917 0.60543 0.46292 0.0
H147 H 0.37287 0.41848 0.52008 0.0
H148 H 0.27317 0.58584 0.48879 0.0
H149 H 0.65636 0.43941 0.48955 0.0
H150 H 0.33367 0.47978 0.51071 0.0
H151 H 0.59552 0.54476 0.47445 0.0
C152 C 0.50415 0.58836 0.47159 0.0
C153 C 0.41335 0.60087 0.47593 0.0
C154 C 0.40433 0.47083 0.50553 0.0
C155 C 0.45391 0.5311 0.48856 0.0
C156 C 0.42653 0.43591 0.51077 0.0
C157 C 0.51747 0.42359 0.50395 0.0
C158 C 0.47397 0.4937 0.49413 0.0
C159 C 0.58497 0.4473 0.4929 0.0
C160 C 0.52478 0.55372 0.47811 0.0
C161 C 0.34435 0.57764 0.4868 0.0
N162 N 0.56185 0.48115 0.48831 0.0
N163 N 0.36603 0.54381 0.49266 0.0
H164 H 0.87486 0.11723 0.95733 0.0
H165 H 0.0532 0.93035 0.01977 0.0
H166 H 0.15604 0.09575 -0.00627 0.0
H167 H 0.76923 0.94995 0.98714 0.0
H168 H 0.0915 0.9908 0.00838 0.0
H169 H 0.83345 0.05603 0.96607 0.0
C170 C 0.92753 0.0997 0.9678 0.0
C171 C 0.01843 0.11187 0.97648 0.0
C172 C 0.0208 0.98191 0.00321 0.0
C173 C 0.9724 0.04186 0.9856 0.0
C174 C -0.00096 0.94738 0.00965 0.0
C175 C 0.90825 0.93492 0.00347 0.0
C176 C 0.95107 1.00451 0.99096 0.0
C177 C 0.84042 0.9581 0.99069 0.0
C178 C 0.90406 0.06485 0.97268 0.0
C179 C 0.08462 0.08803 0.98898 0.0
N180 N 0.86317 0.99186 0.98497 0.0
N181 N 0.0603 0.05425 -0.00682 0.0
H182 H 0.12623 0.12048 0.46705 0.0
H183 H 0.9382 0.93199 0.5172 0.0
H184 H 0.84258 0.09952 0.49716 0.0
H185 H 0.22423 0.95149 0.49124 0.0
H186 H 0.90244 0.99325 0.5082 0.0
H187 H 0.16479 0.0587 0.47417 0.0
C188 C 0.07239 0.10294 0.47585 0.0
C189 C 0.98158 0.1154 0.48312 0.0
C190 C 0.97304 0.98415 0.50396 0.0
C191 C 0.0244 0.04469 0.49034 0.0
C192 C -0.00665 0.94917 0.50901 0.0
C193 C 0.08399 0.93646 0.50395 0.0
C194 C 0.04409 1.00692 0.49428 0.0
C195 C 0.15315 0.95984 0.49377 0.0
C196 C 0.09424 0.06774 0.47978 0.0
C197 C 0.91389 0.09154 0.49348 0.0
N198 N 0.13179 0.99401 0.48936 0.0
N199 N 0.93667 0.05739 0.49677 0.0
H200 H 0.50302 0.23477 0.35735 0.0
H201 H 0.34803 0.17528 0.09047 0.0
H202 H 0.77773 0.21831 0.29101 0.0
H203 H 0.56064 0.24844 0.06337 0.0
H204 H 0.43237 0.16516 0.17221 0.0
H205 H 0.4423 0.2155 0.26123 0.0
C206 C 0.55023 0.22655 0.32238 0.0
C207 C 0.645 0.22802 0.33142 0.0
C208 C 0.46155 0.18258 0.1472 0.0
C209 C 0.57687 0.20633 0.22218 0.0
C210 C 0.41384 0.18824 0.10032 0.0
C211 C 0.44589 0.21366 0.07117 0.0
C212 C 0.54178 0.20231 0.1645 0.0
C213 C 0.53235 0.22936 0.0857 0.0
C214 C 0.51581 0.21518 0.26786 0.0
C215 C 0.70401 0.21725 0.28515 0.0
N216 N 0.57673 0.22399 0.13229 0.0
N217 N 0.66894 0.20775 0.23192 0.0
H218 H 0.66531 0.84493 0.17082 0.0
H219 H 0.56455 0.7543 0.42908 0.0
H220 H 0.68329 0.73079 0.1655 0.0
H221 H 0.4361 0.85362 0.41148 0.0
H222 H 0.66076 0.75552 0.34765 0.0
H223 H 0.62654 0.85622 0.27156 0.0
C224 C 0.6617 0.82232 0.19097 0.0
C225 C 0.67572 0.78679 0.15977 0.0
C226 C 0.61309 0.77751 0.36256 0.0
C227 C 0.6344 0.79966 0.27455 0.0
C228 C 0.55863 0.77703 0.40929 0.0
C229 C 0.49012 0.80329 0.42586 0.0
C230 C 0.59899 0.80446 0.33252 0.0
C231 C 0.48681 0.83245 0.39937 0.0
C232 C 0.6401 0.82882 0.2483 0.0
C233 C 0.67112 0.75849 0.18782 0.0
N234 N 0.53899 0.83182 0.35291 0.0
N235 N 0.6506 0.76554 0.24366 0.0
H236 H 0.43283 0.74977 0.92518 0.0
H237 H 0.32857 0.84744 0.67495 0.0
H238 H 0.55515 0.85157 0.91518 0.0
H239 H 0.31001 0.73271 0.66442 0.0
H240 H 0.36532 0.85689 0.776 0.0
H241 H 0.33399 0.75308 0.84547 0.0
C242 C 0.43696 0.7734 0.90741 0.0
C243 C 0.50452 0.79981 0.92548 0.0
C244 C 0.35195 0.82977 0.75152 0.0
C245 C 0.39284 0.80339 0.83402 0.0
C246 C 0.33156 0.82433 0.69402 0.0
C247 C 0.31833 0.78917 0.66128 0.0
C248 C 0.35717 0.79988 0.77625 0.0
C249 C 0.32183 0.76017 0.68794 0.0
C250 C 0.38093 0.77512 0.86169 0.0
C251 C 0.50539 0.83019 0.90169 0.0
N252 N 0.34125 0.76617 0.74385 0.0
N253 N 0.45197 0.83073 0.85602 0.0
H254 H 0.43661 0.24837 0.54823 0.0
H255 H 0.37817 0.17582 0.82783 0.0
H256 H 0.64483 0.18199 0.60069 0.0
H257 H 0.31563 0.28345 0.80917 0.0
H258 H 0.42978 0.15992 0.72837 0.0
H259 H 0.33933 0.23958 0.62548 0.0
C260 C 0.46063 0.23093 0.57486 0.0
C261 C 0.54993 0.21682 0.5694 0.0
C262 C 0.40312 0.18672 0.74615 0.0
C263 C 0.43955 0.20695 0.65741 0.0
C264 C 0.37438 0.19581 0.80246 0.0
C265 C 0.34474 0.23111 0.82624 0.0
C266 C 0.39843 0.21285 0.71377 0.0
C267 C 0.33993 0.25617 0.79228 0.0
C268 C 0.40516 0.22599 0.61882 0.0
C269 C 0.57697 0.19382 0.60417 0.0
N270 N 0.36651 0.24653 0.73761 0.0
N271 N 0.5227 0.19032 0.64801 0.0
H272 H 0.9423 0.68065 0.06051 0.0
H273 H 0.18962 0.80474 0.31408 0.0
H274 H 0.06513 0.78246 0.05112 0.0
H275 H 0.16786 0.68994 0.30188 0.0
H276 H 0.15527 0.79472 0.21368 0.0
H277 H 0.0406 0.67889 0.14131 0.0
C278 C -0.00776 0.70199 0.07406 0.0
C279 C -0.00665 0.73242 0.05041 0.0
C280 C 0.15908 0.77159 0.23263 0.0
C281 C 0.10404 0.7309 0.14322 0.0
C282 C 0.17747 0.77738 0.29013 0.0
C283 C 0.17969 0.74818 0.31633 0.0
C284 C 0.14058 0.73642 0.20129 0.0
C285 C 0.16559 0.7132 0.28317 0.0
C286 C 0.04802 0.70106 0.12046 0.0
C287 C 0.06016 0.75901 0.06923 0.0
N288 N 0.1448 0.7083 0.22738 0.0
N289 N 0.11112 0.75815 0.11561 0.0
H290 H 0.06509 0.29634 0.43645 0.0
H291 H 0.27954 0.32318 0.19199 0.0
H292 H 0.83628 0.35122 0.38008 0.0
H293 H 0.00548 0.29127 0.13391 0.0
H294 H 0.22097 0.34167 0.28934 0.0
H295 H 0.15415 0.30561 0.35564 0.0
C296 C 0.03492 0.31158 0.40833 0.0
C297 C 0.94296 0.32267 0.41438 0.0
C298 C 0.17399 0.33109 0.25495 0.0
C299 C 0.04299 0.33262 0.32213 0.0
C300 C 0.20696 0.32059 0.19979 0.0
C301 C 0.14699 0.30526 0.15557 0.0
C302 C 0.08042 0.32695 0.26499 0.0
C303 C 0.05379 0.30245 0.16725 0.0
C304 C 0.08578 0.31696 0.36247 0.0
C305 C 0.90682 0.34222 0.37692 0.0
N306 N 0.02318 0.31328 0.22104 0.0
N307 N 0.95593 0.34545 0.33108 0.0
H308 H 0.71928 0.32721 0.69386 0.0
H309 H 0.93534 0.29105 0.93143 0.0
H310 H -0.0051 0.29865 0.63615 0.0
H311 H 0.15849 0.35395 0.88768 0.0
H312 H 0.84635 0.30342 0.85239 0.0
H313 H 0.77703 0.34408 0.79179 0.0
C314 C 0.79207 0.32523 0.70185 0.0
C315 C 0.85271 0.3111 0.65758 0.0
C316 C 0.91337 0.31569 0.86159 0.0
C317 C 0.91835 0.33096 0.76768 0.0
C318 C 0.96423 0.30853 0.90643 0.0
C319 C 0.05476 0.32102 0.9153 0.0
C320 C 0.95483 0.33449 0.82487 0.0
C321 C 0.08922 0.34355 0.88188 0.0
C322 C 0.82459 0.33478 0.75735 0.0
C323 C 0.94617 0.30894 0.66953 0.0
N324 N 0.0404 0.34845 0.83663 0.0
N325 N 0.97629 0.31878 0.72365 0.0
H326 H 0.06024 0.68114 0.56123 0.0
H327 H 0.80956 0.804 0.81399 0.0
H328 H 0.93362 0.78226 0.55118 0.0
H329 H 0.83276 0.68917 0.80128 0.0
H330 H 0.84493 0.79427 0.71384 0.0
H331 H 0.96246 0.67898 0.64179 0.0
C332 C 0.00964 0.70223 0.57459 0.0
C333 C 0.00725 0.73259 0.5508 0.0
C334 C 0.84121 0.77107 0.73263 0.0
C335 C 0.89709 0.73064 0.64335 0.0
C336 C 0.82222 0.7767 0.78999 0.0
C337 C 0.82004 0.74741 0.81597 0.0
C338 C 0.86034 0.73598 0.70123 0.0
C339 C 0.83493 0.71249 0.78274 0.0
C340 C 0.95413 0.70107 0.62085 0.0
C341 C 0.93959 0.75887 0.56939 0.0
N342 N 0.85625 0.70777 0.72711 0.0
N343 N 0.8889 0.75782 0.61564 0.0
loop_
_geom_bond_atom_site_label_1
_geom_bond_atom_site_label_2
_geom_bond_distance
_geom_bond_site_symmetry_2
_ccdc_geom_bond_type
Zn0 O1 2.055 1_554 S
Zn0 O8 2.046 . S
Zn0 N16 2.036 . S
Zn0 O28 2.053 . S
Zn0 O30 2.066 1_554 S
O1 Zn0 2.055 1_556 S
O1 C4 1.259 . S
C2 O30 1.256 . S
C2 O31 1.244 . S
Zn3 O5 2.046 . S
Zn3 O7 2.055 1_556 S
Zn3 N9 2.036 . S
Zn3 O27 2.066 1_556 S
Zn3 O31 2.053 . S
C4 O1 1.259 . S
C4 O5 1.254 . S
O5 Zn3 2.046 . S
O5 C4 1.254 . S
C6 O27 1.256 . S
C6 O28 1.244 . S
O7 Zn3 2.055 1_554 S
O7 C29 1.259 . S
O8 Zn0 2.046 . S
O8 C29 1.254 . S
N9 Zn3 2.036 . S
N9 C10 1.298 1_556 S
N9 N12 1.398 . S
C10 N9 1.298 1_554 S
C10 N13 1.367 1_554 S
C10 C23 1.481 . S
C11 N12 1.299 . S
C11 N13 1.379 . S
N12 N9 1.398 . S
N12 C11 1.299 . S
N13 C10 1.367 1_556 S
N13 C11 1.379 . S
C14 N16 1.298 1_556 S
C14 N18 1.367 1_556 S
C14 C22 1.481 . S
C15 N17 1.299 . S
C15 N18 1.379 . S
N16 Zn0 2.036 . S
N16 C14 1.298 1_554 S
N16 N17 1.398 . S
N17 C15 1.299 . S
N17 N16 1.398 . S
N18 C14 1.367 1_554 S
N18 C15 1.379 . S
H19 C22 0.980 . S
H20 C22 0.981 . S
H21 C22 0.981 . S
C22 C14 1.481 . S
C22 H19 0.980 . S
C22 H20 0.981 . S
C22 H21 0.981 . S
C23 C10 1.481 . S
C23 H24 0.980 . S
C23 H25 0.981 . S
C23 H26 0.981 . S
H24 C23 0.980 . S
H25 C23 0.981 . S
H26 C23 0.981 . S
O27 Zn3 2.066 1_554 S
O27 C6 1.256 . S
O28 Zn0 2.053 . S
O28 C6 1.244 . S
C29 O7 1.259 . S
C29 O8 1.254 . S
O30 Zn0 2.066 1_556 S
O30 C2 1.256 . S
O31 C2 1.244 . S
O31 Zn3 2.053 . S
Zn32 O33 2.055 1_554 S
Zn32 O40 2.046 . S
Zn32 N48 2.036 . S
Zn32 O60 2.053 . S
Zn32 O62 2.066 1_554 S
O33 Zn32 2.055 1_556 S
O33 C36 1.259 . S
C34 O62 1.256 . S
C34 O63 1.244 . S
Zn35 O37 2.046 . S
Zn35 O39 2.055 1_556 S
Zn35 N41 2.036 . S
Zn35 O59 2.066 1_556 S
Zn35 O63 2.053 . S
C36 O33 1.259 . S
C36 O37 1.254 . S
O37 Zn35 2.046 . S
O37 C36 1.254 . S
C38 O59 1.256 . S
C38 O60 1.244 . S
O39 Zn35 2.055 1_554 S
O39 C61 1.259 . S
O40 Zn32 2.046 . S
O40 C61 1.254 . S
N41 Zn35 2.036 . S
N41 C42 1.298 1_556 S
N41 N44 1.398 . S
C42 N41 1.298 1_554 S
C42 N45 1.367 1_554 S
C42 C55 1.481 . S
C43 N44 1.299 . S
C43 N45 1.379 . S
N44 N41 1.398 . S
N44 C43 1.299 . S
N45 C42 1.367 1_556 S
N45 C43 1.379 . S
C46 N48 1.298 1_556 S
C46 N50 1.367 1_556 S
C46 C54 1.481 . S
C47 N49 1.299 . S
C47 N50 1.379 . S
N48 Zn32 2.036 . S
N48 C46 1.298 1_554 S
N48 N49 1.398 . S
N49 C47 1.299 . S
N49 N48 1.398 . S
N50 C46 1.367 1_554 S
N50 C47 1.379 . S
H51 C54 0.980 . S
H52 C54 0.981 . S
H53 C54 0.981 . S
C54 C46 1.481 . S
C54 H51 0.980 . S
C54 H52 0.981 . S
C54 H53 0.981 . S
C55 C42 1.481 . S
C55 H56 0.980 . S
C55 H57 0.981 . S
C55 H58 0.981 . S
H56 C55 0.980 . S
H57 C55 0.981 . S
H58 C55 0.981 . S
O59 Zn35 2.066 1_554 S
O59 C38 1.256 . S
O60 Zn32 2.053 . S
O60 C38 1.244 . S
C61 O39 1.259 . S
C61 O40 1.254 . S
O62 Zn32 2.066 1_556 S
O62 C34 1.256 . S
O63 C34 1.244 . S
O63 Zn35 2.053 . S
Zn64 O65 2.055 . S
Zn64 O72 2.046 . S
Zn64 N80 2.036 . S
Zn64 O92 2.053 . S
Zn64 O94 2.066 . S
O65 Zn64 2.055 . S
O65 C68 1.259 . S
C66 O94 1.256 . S
C66 O95 1.244 . S
Zn67 O69 2.046 . S
Zn67 O71 2.055 . S
Zn67 N73 2.036 . S
Zn67 O91 2.066 . S
Zn67 O95 2.053 . S
C68 O65 1.259 . S
C68 O69 1.254 . S
O69 Zn67 2.046 . S
O69 C68 1.254 . S
C70 O91 1.256 . S
C70 O92 1.244 . S
O71 Zn67 2.055 . S
O71 C93 1.259 . S
O72 Zn64 2.046 . S
O72 C93 1.254 . S
N73 Zn67 2.036 . S
N73 C74 1.298 . S
N73 N76 1.398 . S
C74 N73 1.298 . S
C74 N77 1.367 . S
C74 C87 1.481 . S
C75 N76 1.299 . S
C75 N77 1.379 . S
N76 N73 1.398 . S
N76 C75 1.299 . S
N77 C74 1.367 . S
N77 C75 1.379 . S
C78 N80 1.298 . S
C78 N82 1.367 . S
C78 C86 1.481 . S
C79 N81 1.299 . S
C79 N82 1.379 . S
N80 Zn64 2.036 . S
N80 C78 1.298 . S
N80 N81 1.398 . S
N81 C79 1.299 . S
N81 N80 1.398 . S
N82 C78 1.367 . S
N82 C79 1.379 . S
H83 C86 0.980 . S
H84 C86 0.981 . S
H85 C86 0.981 . S
C86 C78 1.481 . S
C86 H83 0.980 . S
C86 H84 0.981 . S
C86 H85 0.981 . S
C87 C74 1.481 . S
C87 H88 0.980 . S
C87 H89 0.981 . S
C87 H90 0.981 . S
H88 C87 0.980 . S
H89 C87 0.981 . S
H90 C87 0.981 . S
O91 Zn67 2.066 . S
O91 C70 1.256 . S
O92 Zn64 2.053 . S
O92 C70 1.244 . S
C93 O71 1.259 . S
C93 O72 1.254 . S
O94 Zn64 2.066 . S
O94 C66 1.256 . S
O95 C66 1.244 . S
O95 Zn67 2.053 . S
Zn96 O97 2.055 . S
Zn96 O104 2.046 . S
Zn96 N112 2.036 . S
Zn96 O124 2.053 . S
Zn96 O126 2.066 . S
O97 Zn96 2.055 . S
O97 C100 1.259 . S
C98 O126 1.256 . S
C98 O127 1.244 . S
Zn99 O101 2.046 . S
Zn99 O103 2.055 . S
Zn99 N105 2.036 . S
Zn99 O123 2.066 . S
Zn99 O127 2.053 . S
C100 O97 1.259 . S
C100 O101 1.254 . S
O101 Zn99 2.046 . S
O101 C100 1.254 . S
C102 O123 1.256 . S
C102 O124 1.244 . S
O103 Zn99 2.055 . S
O103 C125 1.259 . S
O104 Zn96 2.046 . S
O104 C125 1.254 . S
N105 Zn99 2.036 . S
N105 C106 1.298 . S
N105 N108 1.398 . S
C106 N105 1.298 . S
C106 N109 1.367 . S
C106 C119 1.481 . S
C107 N108 1.299 . S
C107 N109 1.379 . S
N108 N105 1.398 . S
N108 C107 1.299 . S
N109 C106 1.367 . S
N109 C107 1.379 . S
C110 N112 1.298 . S
C110 N114 1.367 . S
C110 C118 1.481 . S
C111 N113 1.299 . S
C111 N114 1.379 . S
N112 Zn96 2.036 . S
N112 C110 1.298 . S
N112 N113 1.398 . S
N113 C111 1.299 . S
N113 N112 1.398 . S
N114 C110 1.367 . S
N114 C111 1.379 . S
H115 C118 0.980 . S
H116 C118 0.981 . S
H117 C118 0.981 . S
C118 C110 1.481 . S
C118 H115 0.980 . S
C118 H116 0.981 . S
C118 H117 0.981 . S
C119 C106 1.481 . S
C119 H120 0.980 . S
C119 H121 0.981 . S
C119 H122 0.981 . S
H120 C119 0.980 . S
H121 C119 0.981 . S
H122 C119 0.981 . S
O123 Zn99 2.066 . S
O123 C102 1.256 . S
O124 Zn96 2.053 . S
O124 C102 1.244 . S
C125 O103 1.259 . S
C125 O104 1.254 . S
O126 Zn96 2.066 . S
O126 C98 1.256 . S
O127 C98 1.244 . S
O127 Zn99 2.053 . S
H128 C134 0.930 . S
H129 C138 0.930 . S
H130 C143 0.929 . S
H131 C141 0.929 . S
H132 C136 0.929 . S
H133 C142 0.929 . S
C134 H128 0.930 . S
C134 C135 1.367 . S
C134 C142 1.378 . S
C135 C134 1.367 . S
C135 C143 1.433 1_554 S
C136 H132 0.929 . S
C136 C138 1.378 . S
C136 C140 1.350 . S
C137 C140 1.463 1_554 S
C137 C142 1.350 . S
C137 N145 1.427 1_554 S
C138 H129 0.930 . S
C138 C136 1.378 . S
C138 C139 1.368 . S
C139 C138 1.368 . S
C139 C141 1.432 1_556 S
C140 C136 1.350 . S
C140 C137 1.463 1_556 S
C140 N144 1.427 1_556 S
C141 H131 0.929 . S
C141 C139 1.432 1_554 S
C141 N144 1.384 . S
C142 H133 0.929 . S
C142 C134 1.378 . S
C142 C137 1.350 . S
C143 H130 0.929 . S
C143 C135 1.433 1_556 S
C143 N145 1.384 . S
N144 C140 1.427 1_554 S
N144 C141 1.384 . S
N145 C137 1.427 1_556 S
N145 C143 1.384 . S
H146 C152 0.930 . S
H147 C156 0.930 . S
H148 C161 0.929 . S
H149 C159 0.929 . S
H150 C154 0.929 . S
H151 C160 0.929 . S
C152 H146 0.930 . S
C152 C153 1.367 . S
C152 C160 1.378 . S
C153 C152 1.367 . S
C153 C161 1.433 . S
C154 H150 0.929 . S
C154 C156 1.378 . S
C154 C158 1.350 . S
C155 C158 1.463 . S
C155 C160 1.350 . S
C155 N163 1.427 . S
C156 H147 0.930 . S
C156 C154 1.378 . S
C156 C157 1.367 . S
C157 C156 1.367 . S
C157 C159 1.433 . S
C158 C154 1.350 . S
C158 C155 1.463 . S
C158 N162 1.427 . S
C159 H149 0.929 . S
C159 C157 1.433 . S
C159 N162 1.384 . S
C160 H151 0.929 . S
C160 C152 1.378 . S
C160 C155 1.350 . S
C161 H148 0.929 . S
C161 C153 1.433 . S
C161 N163 1.384 . S
N162 C158 1.427 . S
N162 C159 1.384 . S
N163 C155 1.427 . S
N163 C161 1.384 . S
H164 C170 0.930 1_655 S
H165 C174 0.930 . S
H166 C179 0.929 . S
H167 C177 0.929 . S
H168 C172 0.929 1_455 S
H169 C178 0.929 . S
C170 H164 0.930 1_455 S
C170 C171 1.370 . S
C170 C178 1.378 1_455 S
C171 C170 1.370 . S
C171 C179 1.429 1_556 S
C172 H168 0.929 1_655 S
C172 C174 1.378 . S
C172 C176 1.350 . S
C173 C176 1.462 1_546 S
C173 C178 1.353 . S
C173 N181 1.425 1_656 S
C174 H165 0.930 . S
C174 C172 1.378 . S
C174 C175 1.367 . S
C175 C174 1.367 . S
C175 C177 1.433 1_554 S
C176 C172 1.350 . S
C176 C173 1.462 1_564 S
C176 N180 1.427 1_554 S
C177 H167 0.929 . S
C177 C175 1.433 1_556 S
C177 N180 1.384 . S
C178 H169 0.929 . S
C178 C170 1.378 1_655 S
C178 C173 1.353 . S
C179 H166 0.929 . S
C179 C171 1.429 1_554 S
C179 N181 1.384 . S
N180 C176 1.427 1_556 S
N180 C177 1.384 . S
N181 C173 1.425 1_454 S
N181 C179 1.384 . S
H182 C188 0.930 . S
H183 C192 0.930 . S
H184 C197 0.929 . S
H185 C195 0.929 . S
H186 C190 0.929 1_655 S
H187 C196 0.929 . S
C188 H182 0.930 . S
C188 C189 1.367 . S
C188 C196 1.378 . S
C189 C188 1.367 . S
C189 C197 1.433 . S
C190 H186 0.929 1_455 S
C190 C192 1.378 . S
C190 C194 1.350 1_455 S
C191 C194 1.463 1_545 S
C191 C196 1.350 . S
C191 N199 1.427 . S
C192 H183 0.930 . S
C192 C190 1.378 . S
C192 C193 1.367 . S
C193 C192 1.367 . S
C193 C195 1.433 . S
C194 C190 1.350 1_655 S
C194 C191 1.463 1_565 S
C194 N198 1.427 1_655 S
C195 H185 0.929 . S
C195 C193 1.433 . S
C195 N198 1.384 . S
C196 H187 0.929 . S
C196 C188 1.378 . S
C196 C191 1.350 . S
C197 H184 0.929 . S
C197 C189 1.433 . S
C197 N199 1.384 . S
N198 C194 1.427 1_455 S
N198 C195 1.384 . S
N199 C191 1.427 . S
N199 C197 1.384 . S
H200 C206 0.930 . S
H201 C210 0.930 . S
H202 C215 0.929 . S
H203 C213 0.929 . S
H204 C208 0.929 . S
H205 C214 0.929 . S
C206 H200 0.930 . S
C206 C207 1.367 . S
C206 C214 1.378 . S
C207 C206 1.367 . S
C207 C215 1.433 . S
C208 H204 0.929 . S
C208 C210 1.378 . S
C208 C212 1.350 . S
C209 C212 1.463 . S
C209 C214 1.350 . S
C209 N217 1.427 . S
C210 H201 0.930 . S
C210 C208 1.378 . S
C210 C211 1.367 . S
C211 C210 1.367 . S
C211 C213 1.433 . S
C212 C208 1.350 . S
C212 C209 1.463 . S
C212 N216 1.427 . S
C213 H203 0.929 . S
C213 C211 1.433 . S
C213 N216 1.384 . S
C214 H205 0.929 . S
C214 C206 1.378 . S
C214 C209 1.350 . S
C215 H202 0.929 . S
C215 C207 1.433 . S
C215 N217 1.384 . S
N216 C212 1.427 . S
N216 C213 1.384 . S
N217 C209 1.427 . S
N217 C215 1.384 . S
H218 C224 0.930 . S
H219 C228 0.930 . S
H220 C233 0.929 . S
H221 C231 0.929 . S
H222 C226 0.929 . S
H223 C232 0.929 . S
C224 H218 0.930 . S
C224 C225 1.367 . S
C224 C232 1.378 . S
C225 C224 1.367 . S
C225 C233 1.433 . S
C226 H222 0.929 . S
C226 C228 1.378 . S
C226 C230 1.350 . S
C227 C230 1.463 . S
C227 C232 1.350 . S
C227 N235 1.427 . S
C228 H219 0.930 . S
C228 C226 1.378 . S
C228 C229 1.367 . S
C229 C228 1.367 . S
C229 C231 1.433 . S
C230 C226 1.350 . S
C230 C227 1.463 . S
C230 N234 1.427 . S
C231 H221 0.929 . S
C231 C229 1.433 . S
C231 N234 1.384 . S
C232 H223 0.929 . S
C232 C224 1.378 . S
C232 C227 1.350 . S
C233 H220 0.929 . S
C233 C225 1.433 . S
C233 N235 1.384 . S
N234 C230 1.427 . S
N234 C231 1.384 . S
N235 C227 1.427 . S
N235 C233 1.384 . S
H236 C242 0.930 . S
H237 C246 0.930 . S
H238 C251 0.929 . S
H239 C249 0.929 . S
H240 C244 0.929 . S
H241 C250 0.929 . S
C242 H236 0.930 . S
C242 C243 1.367 . S
C242 C250 1.378 . S
C243 C242 1.367 . S
C243 C251 1.433 . S
C244 H240 0.929 . S
C244 C246 1.378 . S
C244 C248 1.350 . S
C245 C248 1.463 . S
C245 C250 1.350 . S
C245 N253 1.427 . S
C246 H237 0.930 . S
C246 C244 1.378 . S
C246 C247 1.367 . S
C247 C246 1.367 . S
C247 C249 1.433 . S
C248 C244 1.350 . S
C248 C245 1.463 . S
C248 N252 1.427 . S
C249 H239 0.929 . S
C249 C247 1.433 . S
C249 N252 1.384 . S
C250 H241 0.929 . S
C250 C242 1.378 . S
C250 C245 1.350 . S
C251 H238 0.929 . S
C251 C243 1.433 . S
C251 N253 1.384 . S
N252 C248 1.427 . S
N252 C249 1.384 . S
N253 C245 1.427 . S
N253 C251 1.384 . S
H254 C260 0.930 . S
H255 C264 0.930 . S
H256 C269 0.929 . S
H257 C267 0.929 . S
H258 C262 0.929 . S
H259 C268 0.929 . S
C260 H254 0.930 . S
C260 C261 1.367 . S
C260 C268 1.378 . S
C261 C260 1.367 . S
C261 C269 1.433 . S
C262 H258 0.929 . S
C262 C264 1.378 . S
C262 C266 1.350 . S
C263 C266 1.463 . S
C263 C268 1.350 . S
C263 N271 1.427 . S
C264 H255 0.930 . S
C264 C262 1.378 . S
C264 C265 1.367 . S
C265 C264 1.367 . S
C265 C267 1.433 . S
C266 C262 1.350 . S
C266 C263 1.463 . S
C266 N270 1.427 . S
C267 H257 0.929 . S
C267 C265 1.433 . S
C267 N270 1.384 . S
C268 H259 0.929 . S
C268 C260 1.378 . S
C268 C263 1.350 . S
C269 H256 0.929 . S
C269 C261 1.433 . S
C269 N271 1.384 . S
N270 C266 1.427 . S
N270 C267 1.384 . S
N271 C263 1.427 . S
N271 C269 1.384 . S
H272 C278 0.930 . S
H273 C282 0.930 . S
H274 C287 0.929 . S
H275 C285 0.929 . S
H276 C280 0.929 . S
H277 C286 0.929 1_455 S
C278 H272 0.930 . S
C278 C279 1.367 . S
C278 C286 1.378 . S
C279 C278 1.367 . S
C279 C287 1.433 . S
C280 H276 0.929 . S
C280 C282 1.378 . S
C280 C284 1.350 . S
C281 C284 1.463 1_655 S
C281 C286 1.350 . S
C281 N289 1.427 . S
C282 H273 0.930 . S
C282 C280 1.378 . S
C282 C283 1.367 . S
C283 C282 1.367 . S
C283 C285 1.433 . S
C284 C280 1.350 . S
C284 C281 1.463 1_455 S
C284 N288 1.427 . S
C285 H275 0.929 . S
C285 C283 1.433 . S
C285 N288 1.384 . S
C286 H277 0.929 1_655 S
C286 C278 1.378 . S
C286 C281 1.350 . S
C287 H274 0.929 . S
C287 C279 1.433 . S
C287 N289 1.384 . S
N288 C284 1.427 . S
N288 C285 1.384 . S
N289 C281 1.427 . S
N289 C287 1.384 . S
H290 C296 0.930 . S
H291 C300 0.930 . S
H292 C305 0.929 . S
H293 C303 0.929 . S
H294 C298 0.929 . S
H295 C304 0.929 1_455 S
C296 H290 0.930 . S
C296 C297 1.367 . S
C296 C304 1.378 . S
C297 C296 1.367 . S
C297 C305 1.433 . S
C298 H294 0.929 . S
C298 C300 1.378 . S
C298 C302 1.350 . S
C299 C302 1.463 1_655 S
C299 C304 1.350 . S
C299 N307 1.427 . S
C300 H291 0.930 . S
C300 C298 1.378 . S
C300 C301 1.367 . S
C301 C300 1.367 . S
C301 C303 1.433 . S
C302 C298 1.350 . S
C302 C299 1.463 1_455 S
C302 N306 1.427 . S
C303 H293 0.929 . S
C303 C301 1.433 . S
C303 N306 1.384 . S
C304 H295 0.929 1_655 S
C304 C296 1.378 . S
C304 C299 1.350 . S
C305 H292 0.929 . S
C305 C297 1.433 . S
C305 N307 1.384 . S
N306 C302 1.427 . S
N306 C303 1.384 . S
N307 C299 1.427 . S
N307 C305 1.384 . S
H308 C314 0.930 . S
H309 C318 0.930 . S
H310 C323 0.929 . S
H311 C321 0.929 . S
H312 C316 0.929 . S
H313 C322 0.929 . S
C314 H308 0.930 . S
C314 C315 1.367 . S
C314 C322 1.378 . S
C315 C314 1.367 . S
C315 C323 1.433 . S
C316 H312 0.929 . S
C316 C318 1.378 . S
C316 C320 1.350 . S
C317 C320 1.463 1_655 S
C317 C322 1.350 . S
C317 N325 1.427 1_655 S
C318 H309 0.930 . S
C318 C316 1.378 . S
C318 C319 1.367 . S
C319 C318 1.367 . S
C319 C321 1.433 . S
C320 C316 1.350 . S
C320 C317 1.463 1_455 S
C320 N324 1.427 . S
C321 H311 0.929 . S
C321 C319 1.433 . S
C321 N324 1.384 . S
C322 H313 0.929 . S
C322 C314 1.378 . S
C322 C317 1.350 . S
C323 H310 0.929 . S
C323 C315 1.433 . S
C323 N325 1.384 1_655 S
N324 C320 1.427 . S
N324 C321 1.384 . S
N325 C317 1.427 1_455 S
N325 C323 1.384 1_455 S
H326 C332 0.930 . S
H327 C336 0.930 . S
H328 C341 0.929 . S
H329 C339 0.925 1_455 S
H330 C334 0.929 . S
H331 C340 0.929 . S
C332 H326 0.930 . S
C332 C333 1.367 . S
C332 C340 1.378 . S
C333 C332 1.367 . S
C333 C341 1.433 . S
C334 H330 0.929 . S
C334 C336 1.378 . S
C334 C338 1.350 . S
C335 C338 1.463 1_455 S
C335 C340 1.350 . S
C335 N343 1.427 1_455 S
C336 H327 0.930 . S
C336 C334 1.378 . S
C336 C337 1.367 . S
C337 C336 1.367 . S
C337 C339 1.442 . S
C338 C334 1.350 . S
C338 C335 1.463 1_655 S
C338 N342 1.427 1_655 S
C339 H329 0.925 1_655 S
C339 C337 1.442 . S
C339 N342 1.379 1_655 S
C340 H331 0.929 . S
C340 C332 1.378 . S
C340 C335 1.350 . S
C341 H328 0.929 . S
C341 C333 1.433 . S
C341 N343 1.384 1_455 S
N342 C338 1.427 1_455 S
N342 C339 1.379 1_455 S
N343 C335 1.427 1_655 S
N343 C341 1.384 1_655 S
C135 N45 1.605 1_554 S
C139 N18 1.575 1_556 S
C153 N77 1.566 . S
C157 N114 1.597 . S
C171 N13 1.599 . S
C175 N50 1.565 . S
C189 N109 1.565 . S
C193 N82 1.595 . S
C207 C98 0.979 . S
C211 C29 0.988 . S
C225 C38 0.988 . S
C229 C68 0.989 . S
C243 C34 1.008 . S
C247 C93 1.014 . S
C261 C102 1.008 . S
C265 C4 1.014 . S
C279 C61 0.991 . S
C283 C66 0.979 . S
C297 C100 0.986 . S
C301 C6 0.986 . S
C315 C125 1.010 . S
C319 C2 1.005 . S
C333 C70 1.004 . S
C337 C36 1.006 . S
