# Generated by pormake.
# Topology uoh, (4)-cn, num edge types: 1
# Building blocks:
#     Node 0, Type 0, BuildingBlock: GALJAG_clean_sbu_0, # of connection points: 4
#     Node 1, Type 0, BuildingBlock: GALJAG_clean_sbu_0, # of connection points: 4
#     Node 2, Type 0, BuildingBlock: GALJAG_clean_sbu_0, # of connection points: 4
#     Node 3, Type 0, BuildingBlock: GALJAG_clean_sbu_0, # of connection points: 4
#     Node 4, Type 0, BuildingBlock: GALJAG_clean_sbu_0, # of connection points: 4
#     Node 5, Type 0, BuildingBlock: GALJAG_clean_sbu_0, # of connection points: 4
#     Node 6, Type 0, BuildingBlock: GALJAG_clean_sbu_0, # of connection points: 4
#     Node 7, Type 0, BuildingBlock: GALJAG_clean_sbu_0, # of connection points: 4
#     Node 8, Type 0, BuildingBlock: GALJAG_clean_sbu_0, # of connection points: 4
#     Node 9, Type 0, BuildingBlock: GALJAG_clean_sbu_0, # of connection points: 4
#     Node 10, Type 0, BuildingBlock: GALJAG_clean_sbu_0, # of connection points: 4
#     Node 11, Type 0, BuildingBlock: GALJAG_clean_sbu_0, # of connection points: 4
#     Node 12, Type 0, BuildingBlock: GALJAG_clean_sbu_0, # of connection points: 4
#     Node 13, Type 0, BuildingBlock: GALJAG_clean_sbu_0, # of connection points: 4
#     Node 14, Type 0, BuildingBlock: GALJAG_clean_sbu_0, # of connection points: 4
#     Node 15, Type 0, BuildingBlock: GALJAG_clean_sbu_0, # of connection points: 4
#     Node 16, Type 0, BuildingBlock: GALJAG_clean_sbu_0, # of connection points: 4
#     Node 17, Type 0, BuildingBlock: GALJAG_clean_sbu_0, # of connection points: 4
#     Node 18, Type 0, BuildingBlock: GALJAG_clean_sbu_0, # of connection points: 4
#     Node 19, Type 0, BuildingBlock: GALJAG_clean_sbu_0, # of connection points: 4
#     Node 20, Type 0, BuildingBlock: GALJAG_clean_sbu_0, # of connection points: 4
#     Node 21, Type 0, BuildingBlock: GALJAG_clean_sbu_0, # of connection points: 4
#     Node 22, Type 0, BuildingBlock: GALJAG_clean_sbu_0, # of connection points: 4
#     Node 23, Type 0, BuildingBlock: GALJAG_clean_sbu_0, # of connection points: 4
#     Node 24, Type 0, BuildingBlock: GALJAG_clean_sbu_0, # of connection points: 4
#     Node 25, Type 0, BuildingBlock: GALJAG_clean_sbu_0, # of connection points: 4
#     Node 26, Type 0, BuildingBlock: GALJAG_clean_sbu_0, # of connection points: 4
#     Node 27, Type 0, BuildingBlock: GALJAG_clean_sbu_0, # of connection points: 4
#     Node 28, Type 0, BuildingBlock: GALJAG_clean_sbu_0, # of connection points: 4
#     Node 29, Type 0, BuildingBlock: GALJAG_clean_sbu_0, # of connection points: 4
#     Node 30, Type 0, BuildingBlock: GALJAG_clean_sbu_0, # of connection points: 4
#     Node 31, Type 0, BuildingBlock: GALJAG_clean_sbu_0, # of connection points: 4
#     Node 32, Type 0, BuildingBlock: GALJAG_clean_sbu_0, # of connection points: 4
#     Node 33, Type 0, BuildingBlock: GALJAG_clean_sbu_0, # of connection points: 4
#     Node 34, Type 0, BuildingBlock: GALJAG_clean_sbu_0, # of connection points: 4
#     Node 35, Type 0, BuildingBlock: GALJAG_clean_sbu_0, # of connection points: 4
#     Edge 36, Type (0, 0), None
#     Edge 37, Type (0, 0), None
#     Edge 38, Type (0, 0), None
#     Edge 39, Type (0, 0), None
#     Edge 40, Type (0, 0), None
#     Edge 41, Type (0, 0), None
#     Edge 42, Type (0, 0), None
#     Edge 43, Type (0, 0), None
#     Edge 44, Type (0, 0), None
#     Edge 45, Type (0, 0), None
#     Edge 46, Type (0, 0), None
#     Edge 47, Type (0, 0), None
#     Edge 48, Type (0, 0), None
#     Edge 49, Type (0, 0), None
#     Edge 50, Type (0, 0), None
#     Edge 51, Type (0, 0), None
#     Edge 52, Type (0, 0), None
#     Edge 53, Type (0, 0), None
#     Edge 54, Type (0, 0), None
#     Edge 55, Type (0, 0), None
#     Edge 56, Type (0, 0), None
#     Edge 57, Type (0, 0), None
#     Edge 58, Type (0, 0), None
#     Edge 59, Type (0, 0), None
#     Edge 60, Type (0, 0), None
#     Edge 61, Type (0, 0), None
#     Edge 62, Type (0, 0), None
#     Edge 63, Type (0, 0), None
#     Edge 64, Type (0, 0), None
#     Edge 65, Type (0, 0), None
#     Edge 66, Type (0, 0), None
#     Edge 67, Type (0, 0), None
#     Edge 68, Type (0, 0), None
#     Edge 69, Type (0, 0), None
#     Edge 70, Type (0, 0), None
#     Edge 71, Type (0, 0), None
#     Edge 72, Type (0, 0), None
#     Edge 73, Type (0, 0), None
#     Edge 74, Type (0, 0), None
#     Edge 75, Type (0, 0), None
#     Edge 76, Type (0, 0), None
#     Edge 77, Type (0, 0), None
#     Edge 78, Type (0, 0), None
#     Edge 79, Type (0, 0), None
#     Edge 80, Type (0, 0), None
#     Edge 81, Type (0, 0), None
#     Edge 82, Type (0, 0), None
#     Edge 83, Type (0, 0), None
#     Edge 84, Type (0, 0), None
#     Edge 85, Type (0, 0), None
#     Edge 86, Type (0, 0), None
#     Edge 87, Type (0, 0), None
#     Edge 88, Type (0, 0), None
#     Edge 89, Type (0, 0), None
#     Edge 90, Type (0, 0), None
#     Edge 91, Type (0, 0), None
#     Edge 92, Type (0, 0), None
#     Edge 93, Type (0, 0), None
#     Edge 94, Type (0, 0), None
#     Edge 95, Type (0, 0), None
#     Edge 96, Type (0, 0), None
#     Edge 97, Type (0, 0), None
#     Edge 98, Type (0, 0), None
#     Edge 99, Type (0, 0), None
#     Edge 100, Type (0, 0), None
#     Edge 101, Type (0, 0), None
#     Edge 102, Type (0, 0), None
#     Edge 103, Type (0, 0), None
#     Edge 104, Type (0, 0), None
#     Edge 105, Type (0, 0), None
#     Edge 106, Type (0, 0), None
#     Edge 107, Type (0, 0), None
# Relax obj value: 0.044
# Max RMSD: 0.095
# Mean RMSD: 0.095
data_MOF--net-uoh--node1-GALJAG_clean_sbu_0--edge1-none
_symmetry_space_group_name_H-M    P1
_symmetry_Int_Tables_number       1
_symmetry_cell_setting            triclinic
loop_
_symmetry_equiv_pos_as_xyz
'x, y, z'
_cell_length_a     40.014031
_cell_length_b     40.013832
_cell_length_c     12.75445
_cell_angle_alpha  89.9972
_cell_angle_beta   90.004173
_cell_angle_gamma 119.99674
loop_
_atom_site_label
_atom_site_type_symbol
_atom_site_fract_x
_atom_site_fract_y
_atom_site_fract_z
_atom_type_partial_charge
In0 In 0.21618 0.12811 0.21007 0.0
O1 O 0.21628 0.18415 0.23611 0.0
O2 O 0.16192 0.13106 0.22992 0.0
C3 C 0.29007 0.1465 0.18443 0.0
C4 C 0.2001 0.09889 0.40462 0.0
C5 C 0.19627 0.10344 0.01221 0.0
O6 O 0.28013 0.17196 0.18677 0.0
O7 O 0.26334 0.11244 0.20015 0.0
O8 O 0.19079 0.08061 0.08745 0.0
O9 O 0.20911 0.13814 0.038 0.0
C10 C 0.17984 0.1672 0.24446 0.0
O11 O 0.18808 0.07698 0.32506 0.0
O12 O 0.22085 0.13436 0.3853 0.0
In13 In 0.83285 0.08026 0.21009 0.0
O14 O 0.7768 0.02432 0.23611 0.0
O15 O 0.82989 0.02305 0.22994 0.0
C16 C 0.81446 0.13577 0.18443 0.0
C17 C 0.86207 0.0934 0.40464 0.0
C18 C 0.85752 0.08503 0.01223 0.0
O19 O 0.789 0.10037 0.18678 0.0
O20 O 0.84851 0.14309 0.20015 0.0
O21 O 0.88035 0.10237 0.08748 0.0
O22 O 0.82282 0.06316 0.03801 0.0
C23 C 0.79375 0.00483 0.24447 0.0
O24 O 0.88397 0.10328 0.32508 0.0
O25 O 0.82659 0.07868 0.38531 0.0
In26 In 0.88069 0.74477 0.21008 0.0
O27 O 0.85767 0.77288 0.32506 0.0
O28 O 0.88228 0.74011 0.38531 0.0
C29 C 0.87593 0.76468 0.01221 0.0
C30 C 0.95612 0.78111 0.24447 0.0
C31 C 0.82519 0.67088 0.18443 0.0
O32 O 0.85859 0.77017 0.08745 0.0
O33 O 0.89779 0.75184 0.03801 0.0
O34 O 0.86059 0.68082 0.1868 0.0
O35 O 0.81787 0.69762 0.20013 0.0
C36 C 0.86755 0.76086 0.40463 0.0
O37 O 0.93664 0.74468 0.23612 0.0
O38 O 0.9379 0.79903 0.22992 0.0
In39 In 0.1203 0.22399 0.30526 0.0
O40 O 0.17634 0.22409 0.27922 0.0
O41 O 0.12325 0.16973 0.28541 0.0
C42 C 0.13869 0.29789 0.3309 0.0
C43 C 0.09108 0.20791 0.11071 0.0
C44 C 0.09563 0.20408 0.50312 0.0
O45 O 0.16414 0.28794 0.32857 0.0
O46 O 0.10463 0.27115 0.31518 0.0
O47 O 0.0728 0.1986 0.42788 0.0
O48 O 0.13033 0.21692 0.47734 0.0
C49 C 0.15939 0.18766 0.27086 0.0
O50 O 0.06917 0.19589 0.19027 0.0
O51 O 0.12655 0.22867 0.13004 0.0
In52 In 0.73696 0.88851 0.30526 0.0
O53 O 0.73686 0.94445 0.27921 0.0
O54 O 0.79122 0.94571 0.28541 0.0
C55 C 0.66307 0.833 0.3309 0.0
C56 C 0.75305 0.87536 0.11071 0.0
C57 C 0.75687 0.88374 0.50312 0.0
O58 O 0.67301 0.8684 0.32854 0.0
O59 O 0.68981 0.82568 0.3152 0.0
O60 O 0.76236 0.8664 0.42789 0.0
O61 O 0.74403 0.90561 0.47733 0.0
C62 C 0.7733 0.96393 0.27086 0.0
O63 O 0.76507 0.86548 0.19028 0.0
O64 O 0.73229 0.89009 0.13003 0.0
In65 In 0.07245 0.84066 0.30524 0.0
O66 O 0.09547 0.89179 0.19025 0.0
O67 O 0.07087 0.8344 0.13001 0.0
C68 C 0.07722 0.86533 0.5031 0.0
C69 C -0.00298 0.80156 0.27085 0.0
C70 C 0.12796 0.82227 0.3309 0.0
O71 O 0.09456 0.88816 0.42786 0.0
O72 O 0.05535 0.83063 0.47731 0.0
O73 O 0.09256 0.79681 0.32854 0.0
O74 O 0.13528 0.85632 0.31518 0.0
C75 C 0.08559 0.86988 0.11069 0.0
O76 O 0.01651 0.78462 0.27921 0.0
O77 O 0.01524 0.83771 0.28539 0.0
In78 In 0.73697 0.84066 0.80525 0.0
O79 O 0.73687 0.78462 0.7792 0.0
O80 O 0.79122 0.83771 0.78542 0.0
C81 C 0.66307 0.82227 0.83088 0.0
C82 C 0.75305 0.8699 0.61073 0.0
C83 C 0.75683 0.86533 1.00309 0.0
O84 O 0.67302 0.79681 0.82854 0.0
O85 O 0.68981 0.85632 0.81516 0.0
O86 O 0.76234 0.88817 0.92786 0.0
O87 O 0.74403 0.83063 0.97734 0.0
C88 C 0.7733 0.80156 0.77087 0.0
O89 O 0.76511 0.8918 0.69031 0.0
O90 O 0.73228 0.83442 0.63002 0.0
In91 In 0.1203 0.88851 0.80524 0.0
O92 O 0.06916 0.86551 0.69028 0.0
O93 O 0.12654 0.89006 0.63001 0.0
C94 C 0.09562 0.8837 1.00307 0.0
C95 C 0.15939 0.96393 0.77086 0.0
C96 C 0.13869 0.833 0.83087 0.0
O97 O 0.07279 0.86637 0.92783 0.0
O98 O 0.13033 0.9056 0.97733 0.0
O99 O 0.16414 0.8684 0.82853 0.0
O100 O 0.10463 0.82568 0.81515 0.0
C101 C 0.09106 0.87535 0.61071 0.0
O102 O 0.17634 0.94444 0.7792 0.0
O103 O 0.12325 0.94572 0.7854 0.0
In104 In 0.07245 0.22399 0.80524 0.0
O105 O 0.01651 0.22409 0.77919 0.0
O106 O 0.01525 0.16973 0.78542 0.0
C107 C 0.12796 0.29789 0.83087 0.0
C108 C 0.08561 0.20791 0.61073 0.0
C109 C 0.07726 0.20413 1.00308 0.0
O110 O 0.09256 0.28794 0.82851 0.0
O111 O 0.13528 0.27115 0.81518 0.0
O112 O 0.09459 0.19861 0.92786 0.0
O113 O 0.05536 0.21694 0.97733 0.0
C114 C -0.00297 0.18766 0.77086 0.0
O115 O 0.09545 0.19585 0.6903 0.0
O116 O 0.0709 0.22868 0.63001 0.0
In117 In 0.83285 0.74478 0.71008 0.0
O118 O 0.77681 0.74468 0.73612 0.0
O119 O 0.8299 0.79904 0.72992 0.0
C120 C 0.81446 0.67088 0.68446 0.0
C121 C 0.86209 0.76086 0.9046 0.0
C122 C 0.85752 0.76464 0.51225 0.0
O123 O 0.789 0.68083 0.68679 0.0
O124 O 0.84851 0.69762 0.70018 0.0
O125 O 0.88036 0.77015 0.58748 0.0
O126 O 0.82282 0.75184 0.53799 0.0
C127 C 0.79375 0.78111 0.74447 0.0
O128 O 0.88399 0.77292 0.82503 0.0
O129 O 0.82661 0.74009 0.88531 0.0
In130 In 0.21618 0.08026 0.71008 0.0
O131 O 0.21628 0.02432 0.73614 0.0
O132 O 0.16192 0.02306 0.72991 0.0
C133 C 0.29008 0.13577 0.68446 0.0
C134 C 0.2001 0.09342 0.9046 0.0
C135 C 0.19631 0.08507 0.51224 0.0
O136 O 0.28013 0.10037 0.68681 0.0
O137 O 0.26334 0.14309 0.70016 0.0
O138 O 0.1908 0.1024 0.58747 0.0
O139 O 0.20912 0.06317 0.538 0.0
C140 C 0.17985 0.00484 0.74447 0.0
O141 O 0.18804 0.10326 0.82502 0.0
O142 O 0.22087 0.07872 0.88532 0.0
In143 In 0.88069 0.12811 0.7101 0.0
O144 O 0.93663 0.18415 0.73614 0.0
O145 O 0.9379 0.13106 0.72993 0.0
C146 C 0.82519 0.1465 0.68446 0.0
C147 C 0.86754 0.09887 0.90462 0.0
C148 C 0.87589 0.10343 0.51226 0.0
O149 O 0.86059 0.17196 0.68681 0.0
O150 O 0.81787 0.11244 0.70017 0.0
O151 O 0.85856 0.0806 0.5875 0.0
O152 O 0.89779 0.13814 0.53801 0.0
C153 C 0.95612 0.1672 0.74448 0.0
O154 O 0.8577 0.07697 0.82505 0.0
O155 O 0.88225 0.13435 0.88533 0.0
In156 In 0.88285 0.46145 0.5434 0.0
O157 O 0.88295 0.51749 0.56945 0.0
O158 O 0.82859 0.46439 0.56325 0.0
C159 C 0.95674 0.47983 0.51776 0.0
C160 C 0.86677 0.43222 0.73795 0.0
C161 C 0.86294 0.43677 0.34554 0.0
O162 O 0.94679 0.50529 0.52011 0.0
O163 O 0.93001 0.44578 0.53348 0.0
O164 O 0.85746 0.41394 0.42078 0.0
O165 O 0.87578 0.47148 0.37133 0.0
C166 C 0.84651 0.50054 0.5778 0.0
O167 O 0.85474 0.41031 0.65839 0.0
O168 O 0.88752 0.4677 0.71863 0.0
In169 In 0.49951 0.41359 0.54342 0.0
O170 O 0.44347 0.35766 0.56945 0.0
O171 O 0.49656 0.35638 0.56327 0.0
C172 C 0.48112 0.4691 0.51776 0.0
C173 C 0.52874 0.42673 0.73798 0.0
C174 C 0.52419 0.41836 0.34556 0.0
O175 O 0.45567 0.4337 0.52011 0.0
O176 O 0.51518 0.47642 0.53348 0.0
O177 O 0.54702 0.4357 0.42081 0.0
O178 O 0.48948 0.3965 0.37134 0.0
C179 C 0.46042 0.33817 0.5778 0.0
O180 O 0.55064 0.43662 0.65842 0.0
O181 O 0.49326 0.41201 0.71865 0.0
In182 In 0.54736 0.07811 0.54341 0.0
O183 O 0.6033 0.07801 0.56946 0.0
O184 O 0.60456 0.13237 0.56325 0.0
C185 C 0.49185 0.00421 0.51777 0.0
C186 C 0.53422 0.09419 0.73796 0.0
C187 C 0.54259 0.09802 0.34555 0.0
O188 O 0.52725 0.01416 0.52013 0.0
O189 O 0.48453 0.03095 0.53346 0.0
O190 O 0.52525 0.10351 0.42078 0.0
O191 O 0.56446 0.08517 0.37134 0.0
C192 C 0.62279 0.11444 0.5778 0.0
O193 O 0.52433 0.10621 0.65839 0.0
O194 O 0.54895 0.07344 0.71864 0.0
In195 In 0.78697 0.55732 0.63859 0.0
O196 O 0.84301 0.55742 0.61256 0.0
O197 O 0.78992 0.50307 0.61874 0.0
C198 C 0.80536 0.63122 0.66424 0.0
C199 C 0.75774 0.54124 0.44404 0.0
C200 C 0.76229 0.53742 0.83645 0.0
O201 O 0.83081 0.62127 0.6619 0.0
O202 O 0.7713 0.60449 0.64851 0.0
O203 O 0.73946 0.53193 0.76121 0.0
O204 O 0.797 0.55025 0.81067 0.0
C205 C 0.82606 0.52099 0.6042 0.0
O206 O 0.73584 0.52922 0.5236 0.0
O207 O 0.79322 0.562 0.46337 0.0
In208 In 0.40363 0.22184 0.63859 0.0
O209 O 0.40353 0.27778 0.61254 0.0
O210 O 0.45789 0.27904 0.61875 0.0
C211 C 0.32974 0.16633 0.66424 0.0
C212 C 0.41971 0.2087 0.44404 0.0
C213 C 0.42354 0.21707 0.83646 0.0
O214 O 0.33968 0.20173 0.66187 0.0
O215 O 0.35647 0.15901 0.64853 0.0
O216 O 0.42903 0.19973 0.76122 0.0
O217 O 0.41069 0.23894 0.81066 0.0
C218 C 0.43996 0.29726 0.60419 0.0
O219 O 0.43173 0.19881 0.52361 0.0
O220 O 0.39896 0.22342 0.46336 0.0
In221 In 0.73912 0.17399 0.63858 0.0
O222 O 0.68318 0.11795 0.61255 0.0
O223 O 0.68191 0.17104 0.61872 0.0
C224 C 0.79463 0.1556 0.66424 0.0
C225 C 0.75226 0.20322 0.44402 0.0
C226 C 0.74388 0.19867 0.83644 0.0
O227 O 0.75922 0.13015 0.66188 0.0
O228 O 0.80194 0.18966 0.64852 0.0
O229 O 0.76123 0.2215 0.76119 0.0
O230 O 0.72202 0.16396 0.81065 0.0
C231 C 0.66369 0.1349 0.60419 0.0
O232 O 0.76214 0.22512 0.52358 0.0
O233 O 0.73753 0.16774 0.46335 0.0
In234 In 0.40363 0.17399 0.13859 0.0
O235 O 0.40353 0.11795 0.11254 0.0
O236 O 0.45789 0.17104 0.11876 0.0
C237 C 0.32974 0.1556 0.16421 0.0
C238 C 0.41971 0.20323 0.94407 0.0
C239 C 0.4235 0.19866 0.33642 0.0
O240 O 0.33969 0.13015 0.16187 0.0
O241 O 0.35647 0.18966 0.14849 0.0
O242 O 0.429 0.2215 0.26119 0.0
O243 O 0.4107 0.16396 0.31068 0.0
C244 C 0.43997 0.1349 0.1042 0.0
O245 O 0.43177 0.22513 0.02364 0.0
O246 O 0.39894 0.16776 0.96336 0.0
In247 In 0.78696 0.22184 0.13857 0.0
O248 O 0.84301 0.27778 0.11254 0.0
O249 O 0.78992 0.27905 0.11874 0.0
C250 C 0.80535 0.16633 0.16421 0.0
C251 C 0.75772 0.20868 0.94404 0.0
C252 C 0.76229 0.21703 0.3364 0.0
O253 O 0.83081 0.20173 0.16187 0.0
O254 O 0.7713 0.15901 0.14849 0.0
O255 O 0.73945 0.19971 0.26117 0.0
O256 O 0.797 0.23893 0.31066 0.0
C257 C 0.82606 0.29727 0.10419 0.0
O258 O 0.73583 0.19885 0.02362 0.0
O259 O 0.7932 0.22339 0.96334 0.0
In260 In 0.73912 0.55732 0.13858 0.0
O261 O 0.68318 0.55742 0.11253 0.0
O262 O 0.68192 0.50307 0.11875 0.0
C263 C 0.79463 0.63122 0.16421 0.0
C264 C 0.75228 0.54124 0.94406 0.0
C265 C 0.74392 0.53746 0.33642 0.0
O266 O 0.75923 0.62128 0.16185 0.0
O267 O 0.80195 0.60448 0.14851 0.0
O268 O 0.76125 0.53195 0.26119 0.0
O269 O 0.72203 0.55027 0.31066 0.0
C270 C 0.66369 0.52099 0.1042 0.0
O271 O 0.76212 0.52919 0.02364 0.0
O272 O 0.73757 0.56201 0.96334 0.0
In273 In 0.49951 0.07811 0.04341 0.0
O274 O 0.44347 0.07801 0.06946 0.0
O275 O 0.49656 0.13237 0.06325 0.0
C276 C 0.48112 0.00421 0.01779 0.0
C277 C 0.52876 0.09419 0.23794 0.0
C278 C 0.52419 0.09798 0.84558 0.0
O279 O 0.45567 0.01416 0.02012 0.0
O280 O 0.51518 0.03095 0.03351 0.0
O281 O 0.54702 0.10348 0.92081 0.0
O282 O 0.48948 0.08517 0.87132 0.0
C283 C 0.46042 0.11444 0.0778 0.0
O284 O 0.55065 0.10625 0.15836 0.0
O285 O 0.49328 0.07342 0.21864 0.0
In286 In 0.88285 0.4136 0.04342 0.0
O287 O 0.85471 0.4366 0.15835 0.0
O288 O 0.88754 0.41205 0.21865 0.0
C289 C 0.86298 0.4184 0.84557 0.0
C290 C 0.84651 0.33817 0.07781 0.0
C291 C 0.95674 0.46911 0.01779 0.0
O292 O 0.85747 0.43573 0.9208 0.0
O293 O 0.87579 0.3965 0.87133 0.0
O294 O 0.9468 0.4337 0.02015 0.0
O295 O 0.93001 0.47642 0.03349 0.0
C296 C 0.86677 0.42676 0.23793 0.0
O297 O 0.88295 0.35766 0.06947 0.0
O298 O 0.82859 0.35639 0.06324 0.0
In299 In 0.54736 0.46144 0.04343 0.0
O300 O 0.6033 0.51748 0.06947 0.0
O301 O 0.60457 0.46439 0.06327 0.0
C302 C 0.49185 0.47983 0.01779 0.0
C303 C 0.5342 0.4322 0.23796 0.0
C304 C 0.54255 0.43677 0.8456 0.0
O305 O 0.52725 0.50529 0.02014 0.0
O306 O 0.48454 0.44578 0.03351 0.0
O307 O 0.52523 0.41393 0.92083 0.0
O308 O 0.56445 0.47147 0.87134 0.0
C309 C 0.62279 0.50054 0.07781 0.0
O310 O 0.52437 0.4103 0.15838 0.0
O311 O 0.54891 0.46768 0.21866 0.0
In312 In 0.54951 0.79478 0.87674 0.0
O313 O 0.52141 0.74365 0.99173 0.0
O314 O 0.55419 0.80103 0.05196 0.0
C315 C 0.52961 0.7701 0.67887 0.0
C316 C 0.51318 0.83387 0.91113 0.0
C317 C 0.62341 0.81317 0.85109 0.0
O318 O 0.52412 0.74727 0.75411 0.0
O319 O 0.54244 0.80481 0.70466 0.0
O320 O 0.61346 0.83862 0.85344 0.0
O321 O 0.59668 0.77911 0.86681 0.0
C322 C 0.53343 0.76555 0.07129 0.0
O323 O 0.54961 0.85082 0.90278 0.0
O324 O 0.49526 0.79773 0.89658 0.0
In325 In 0.16618 0.74693 0.87675 0.0
O326 O 0.21731 0.76995 0.99175 0.0
O327 O 0.15993 0.74534 0.05198 0.0
C328 C 0.19086 0.75169 0.6789 0.0
C329 C 0.12708 0.6715 0.91114 0.0
C330 C 0.14779 0.80244 0.85109 0.0
O331 O 0.21369 0.76903 0.75414 0.0
O332 O 0.15615 0.72983 0.70468 0.0
O333 O 0.12234 0.76703 0.85344 0.0
O334 O 0.18185 0.80975 0.86682 0.0
C335 C 0.1954 0.76007 0.07131 0.0
O336 O 0.11014 0.69099 0.90278 0.0
O337 O 0.16323 0.68972 0.8966 0.0
In338 In 0.21403 0.41144 0.87675 0.0
O339 O 0.191 0.43955 0.99173 0.0
O340 O 0.21561 0.40677 0.05198 0.0
C341 C 0.20926 0.43135 0.67888 0.0
C342 C 0.28945 0.44778 0.91113 0.0
C343 C 0.15852 0.33755 0.85109 0.0
O344 O 0.19192 0.43684 0.75411 0.0
O345 O 0.23113 0.4185 0.70468 0.0
O346 O 0.19392 0.34749 0.85346 0.0
O347 O 0.1512 0.36429 0.86679 0.0
C348 C 0.20089 0.42753 0.07129 0.0
O349 O 0.26997 0.41134 0.90279 0.0
O350 O 0.27123 0.4657 0.89659 0.0
In351 In 0.45363 0.89066 0.97193 0.0
O352 O 0.50968 0.89076 0.94589 0.0
O353 O 0.45658 0.8364 0.95208 0.0
C354 C 0.47202 0.96455 0.99757 0.0
C355 C 0.42441 0.87458 0.77737 0.0
C356 C 0.42896 0.87075 0.16979 0.0
O357 O 0.49748 0.95461 0.99523 0.0
O358 O 0.43797 0.93782 0.98185 0.0
O359 O 0.40613 0.86527 0.09454 0.0
O360 O 0.46367 0.88359 0.144 0.0
C361 C 0.49273 0.85432 0.93753 0.0
O362 O 0.4025 0.86255 0.85693 0.0
O363 O 0.45989 0.89533 0.7967 0.0
In364 In 0.0703 0.55517 0.97192 0.0
O365 O 0.0984 0.53214 0.85694 0.0
O366 O 0.06562 0.55675 0.79669 0.0
C367 C 0.0902 0.55041 0.16979 0.0
C368 C 0.10663 0.6306 0.93753 0.0
C369 C -0.0036 0.49966 0.99757 0.0
O370 O 0.09569 0.53306 0.09456 0.0
O371 O 0.07736 0.57227 0.14399 0.0
O372 O 0.00635 0.53507 0.99521 0.0
O373 O 0.02314 0.49235 0.98187 0.0
C374 C 0.08638 0.54203 0.77738 0.0
O375 O 0.0702 0.61111 0.94587 0.0
O376 O 0.12455 0.61237 0.95208 0.0
In377 In 0.40578 0.50732 0.97191 0.0
O378 O 0.34985 0.45128 0.94588 0.0
O379 O 0.34858 0.50437 0.95206 0.0
C380 C 0.46129 0.48894 0.99757 0.0
C381 C 0.41892 0.53655 0.77735 0.0
C382 C 0.41055 0.532 0.16977 0.0
O383 O 0.42589 0.46348 0.99521 0.0
O384 O 0.46861 0.52299 0.98185 0.0
O385 O 0.42789 0.55483 0.09453 0.0
O386 O 0.38869 0.49729 0.14398 0.0
C387 C 0.33036 0.46823 0.93752 0.0
O388 O 0.42881 0.55845 0.85692 0.0
O389 O 0.4042 0.50107 0.79668 0.0
In390 In 0.0703 0.50733 0.47192 0.0
O391 O 0.09844 0.55846 0.35697 0.0
O392 O 0.06561 0.50109 0.29669 0.0
C393 C 0.09017 0.532 0.66976 0.0
C394 C 0.10663 0.46823 0.43753 0.0
C395 C -0.0036 0.48894 0.49755 0.0
O396 O 0.09567 0.55483 0.59453 0.0
O397 O 0.07736 0.49729 0.64401 0.0
O398 O 0.00635 0.46348 0.49521 0.0
O399 O 0.02314 0.52299 0.48183 0.0
C400 C 0.08638 0.53657 0.2774 0.0
O401 O 0.0702 0.45128 0.44587 0.0
O402 O 0.12456 0.50437 0.45209 0.0
In403 In 0.45363 0.55517 0.47191 0.0
O404 O 0.40249 0.53218 0.35695 0.0
O405 O 0.45987 0.55672 0.29667 0.0
C406 C 0.42896 0.55037 0.66974 0.0
C407 C 0.49273 0.6306 0.43753 0.0
C408 C 0.47202 0.49966 0.49754 0.0
O409 O 0.40612 0.53304 0.5945 0.0
O410 O 0.46366 0.57227 0.64399 0.0
O411 O 0.49748 0.53507 0.4952 0.0
O412 O 0.43797 0.49235 0.48182 0.0
C413 C 0.42439 0.54202 0.27738 0.0
O414 O 0.50967 0.61111 0.44587 0.0
O415 O 0.45659 0.61238 0.45207 0.0
In416 In 0.40579 0.89066 0.47191 0.0
O417 O 0.42879 0.86252 0.35697 0.0
O418 O 0.40424 0.89534 0.29668 0.0
C419 C 0.41059 0.87079 0.66975 0.0
C420 C 0.33036 0.85432 0.43753 0.0
C421 C 0.46129 0.96455 0.49754 0.0
O422 O 0.42792 0.86528 0.59453 0.0
O423 O 0.3887 0.8836 0.64399 0.0
O424 O 0.42589 0.95461 0.49518 0.0
O425 O 0.46861 0.93782 0.48184 0.0
C426 C 0.41895 0.87457 0.27739 0.0
O427 O 0.34984 0.89076 0.44586 0.0
O428 O 0.34858 0.8364 0.45209 0.0
In429 In 0.16618 0.41145 0.37674 0.0
O430 O 0.11014 0.41135 0.40279 0.0
O431 O 0.16323 0.4657 0.39658 0.0
C432 C 0.14779 0.33755 0.35112 0.0
C433 C 0.19542 0.42753 0.57127 0.0
C434 C 0.19085 0.43131 0.17891 0.0
O435 O 0.12234 0.3475 0.35345 0.0
O436 O 0.18185 0.36428 0.36684 0.0
O437 O 0.21369 0.43682 0.25415 0.0
O438 O 0.15615 0.41851 0.20466 0.0
C439 C 0.12709 0.44778 0.41114 0.0
O440 O 0.21732 0.43958 0.4917 0.0
O441 O 0.15994 0.40675 0.55198 0.0
In442 In 0.54952 0.74693 0.37675 0.0
O443 O 0.52138 0.76993 0.49169 0.0
O444 O 0.55421 0.74538 0.55198 0.0
C445 C 0.52965 0.75174 0.17891 0.0
C446 C 0.51318 0.67151 0.41114 0.0
C447 C 0.62341 0.80244 0.35112 0.0
O448 O 0.52414 0.76906 0.25414 0.0
O449 O 0.54246 0.72984 0.20467 0.0
O450 O 0.61347 0.76704 0.35348 0.0
O451 O 0.59667 0.80976 0.36682 0.0
C452 C 0.53343 0.76009 0.57127 0.0
O453 O 0.54962 0.69099 0.40281 0.0
O454 O 0.49526 0.68973 0.39658 0.0
In455 In 0.21403 0.79477 0.37676 0.0
O456 O 0.26997 0.85082 0.4028 0.0
O457 O 0.27124 0.79773 0.3966 0.0
C458 C 0.15852 0.81316 0.35112 0.0
C459 C 0.20087 0.76553 0.57129 0.0
C460 C 0.20922 0.7701 0.17893 0.0
O461 O 0.19392 0.83862 0.35347 0.0
O462 O 0.1512 0.77911 0.36684 0.0
O463 O 0.19189 0.74726 0.25416 0.0
O464 O 0.23112 0.8048 0.20468 0.0
C465 C 0.28946 0.83387 0.41115 0.0
O466 O 0.19103 0.74364 0.49171 0.0
O467 O 0.21558 0.80101 0.552 0.0
loop_
_geom_bond_atom_site_label_1
_geom_bond_atom_site_label_2
_geom_bond_distance
_geom_bond_site_symmetry_2
_ccdc_geom_bond_type
In0 O1 2.294 . S
In0 O2 2.326 . S
In0 O6 2.266 . S
In0 O7 2.326 . S
In0 O8 2.266 . S
In0 O9 2.326 . S
In0 O11 2.294 . S
In0 O12 2.326 . S
O1 In0 2.294 . S
O1 C10 1.240 . S
O2 In0 2.326 . S
O2 C10 1.252 . S
C3 O6 1.252 . S
C3 O7 1.260 . S
C4 O11 1.240 . S
C4 O12 1.252 . S
C5 O8 1.252 . S
C5 O9 1.260 . S
O6 In0 2.266 . S
O6 C3 1.252 . S
O7 In0 2.326 . S
O7 C3 1.260 . S
O8 In0 2.266 . S
O8 C5 1.252 . S
O9 In0 2.326 . S
O9 C5 1.260 . S
C10 O1 1.240 . S
C10 O2 1.252 . S
O11 In0 2.294 . S
O11 C4 1.240 . S
O12 In0 2.326 . S
O12 C4 1.252 . S
In13 O14 2.294 . S
In13 O15 2.326 . S
In13 O19 2.266 . S
In13 O20 2.326 . S
In13 O21 2.266 . S
In13 O22 2.326 . S
In13 O24 2.294 . S
In13 O25 2.326 . S
O14 In13 2.294 . S
O14 C23 1.240 . S
O15 In13 2.326 . S
O15 C23 1.252 . S
C16 O19 1.252 . S
C16 O20 1.260 . S
C17 O24 1.240 . S
C17 O25 1.252 . S
C18 O21 1.252 . S
C18 O22 1.260 . S
O19 In13 2.266 . S
O19 C16 1.252 . S
O20 In13 2.326 . S
O20 C16 1.260 . S
O21 In13 2.266 . S
O21 C18 1.252 . S
O22 In13 2.326 . S
O22 C18 1.260 . S
C23 O14 1.240 . S
C23 O15 1.252 . S
O24 In13 2.294 . S
O24 C17 1.240 . S
O25 In13 2.326 . S
O25 C17 1.252 . S
In26 O27 2.294 . S
In26 O28 2.326 . S
In26 O32 2.266 . S
In26 O33 2.326 . S
In26 O34 2.266 . S
In26 O35 2.326 . S
In26 O37 2.294 . S
In26 O38 2.326 . S
O27 In26 2.294 . S
O27 C36 1.240 . S
O28 In26 2.326 . S
O28 C36 1.252 . S
C29 O32 1.252 . S
C29 O33 1.260 . S
C30 O37 1.240 . S
C30 O38 1.252 . S
C31 O34 1.252 . S
C31 O35 1.260 . S
O32 In26 2.266 . S
O32 C29 1.252 . S
O33 In26 2.326 . S
O33 C29 1.260 . S
O34 In26 2.266 . S
O34 C31 1.252 . S
O35 In26 2.326 . S
O35 C31 1.260 . S
C36 O27 1.240 . S
C36 O28 1.252 . S
O37 In26 2.294 . S
O37 C30 1.240 . S
O38 In26 2.326 . S
O38 C30 1.252 . S
In39 O40 2.294 . S
In39 O41 2.326 . S
In39 O45 2.266 . S
In39 O46 2.326 . S
In39 O47 2.266 . S
In39 O48 2.326 . S
In39 O50 2.294 . S
In39 O51 2.326 . S
O40 In39 2.294 . S
O40 C49 1.240 . S
O41 In39 2.326 . S
O41 C49 1.252 . S
C42 O45 1.252 . S
C42 O46 1.260 . S
C43 O50 1.240 . S
C43 O51 1.252 . S
C44 O47 1.252 . S
C44 O48 1.260 . S
O45 In39 2.266 . S
O45 C42 1.252 . S
O46 In39 2.326 . S
O46 C42 1.260 . S
O47 In39 2.266 . S
O47 C44 1.252 . S
O48 In39 2.326 . S
O48 C44 1.260 . S
C49 O40 1.240 . S
C49 O41 1.252 . S
O50 In39 2.294 . S
O50 C43 1.240 . S
O51 In39 2.326 . S
O51 C43 1.252 . S
In52 O53 2.294 . S
In52 O54 2.326 . S
In52 O58 2.266 . S
In52 O59 2.326 . S
In52 O60 2.266 . S
In52 O61 2.326 . S
In52 O63 2.294 . S
In52 O64 2.326 . S
O53 In52 2.294 . S
O53 C62 1.240 . S
O54 In52 2.326 . S
O54 C62 1.252 . S
C55 O58 1.252 . S
C55 O59 1.260 . S
C56 O63 1.240 . S
C56 O64 1.252 . S
C57 O60 1.252 . S
C57 O61 1.260 . S
O58 In52 2.266 . S
O58 C55 1.252 . S
O59 In52 2.326 . S
O59 C55 1.260 . S
O60 In52 2.266 . S
O60 C57 1.252 . S
O61 In52 2.326 . S
O61 C57 1.260 . S
C62 O53 1.240 . S
C62 O54 1.252 . S
O63 In52 2.294 . S
O63 C56 1.240 . S
O64 In52 2.326 . S
O64 C56 1.252 . S
In65 O66 2.294 . S
In65 O67 2.326 . S
In65 O71 2.266 . S
In65 O72 2.326 . S
In65 O73 2.266 . S
In65 O74 2.326 . S
In65 O76 2.294 . S
In65 O77 2.326 . S
O66 In65 2.294 . S
O66 C75 1.240 . S
O67 In65 2.326 . S
O67 C75 1.252 . S
C68 O71 1.252 . S
C68 O72 1.260 . S
C69 O76 1.240 . S
C69 O77 1.252 . S
C70 O73 1.252 . S
C70 O74 1.260 . S
O71 In65 2.266 . S
O71 C68 1.252 . S
O72 In65 2.326 . S
O72 C68 1.260 . S
O73 In65 2.266 . S
O73 C70 1.252 . S
O74 In65 2.326 . S
O74 C70 1.260 . S
C75 O66 1.240 . S
C75 O67 1.252 . S
O76 In65 2.294 . S
O76 C69 1.240 . S
O77 In65 2.326 . S
O77 C69 1.252 . S
In78 O79 2.294 . S
In78 O80 2.326 . S
In78 O84 2.266 . S
In78 O85 2.326 . S
In78 O86 2.266 . S
In78 O87 2.326 . S
In78 O89 2.294 . S
In78 O90 2.326 . S
O79 In78 2.294 . S
O79 C88 1.240 . S
O80 In78 2.326 . S
O80 C88 1.252 . S
C81 O84 1.252 . S
C81 O85 1.260 . S
C82 O89 1.240 . S
C82 O90 1.252 . S
C83 O86 1.252 . S
C83 O87 1.260 . S
O84 In78 2.266 . S
O84 C81 1.252 . S
O85 In78 2.326 . S
O85 C81 1.260 . S
O86 In78 2.266 . S
O86 C83 1.252 . S
O87 In78 2.326 . S
O87 C83 1.260 . S
C88 O79 1.240 . S
C88 O80 1.252 . S
O89 In78 2.294 . S
O89 C82 1.240 . S
O90 In78 2.326 . S
O90 C82 1.252 . S
In91 O92 2.294 . S
In91 O93 2.326 . S
In91 O97 2.266 . S
In91 O98 2.326 . S
In91 O99 2.266 . S
In91 O100 2.326 . S
In91 O102 2.294 . S
In91 O103 2.326 . S
O92 In91 2.294 . S
O92 C101 1.240 . S
O93 In91 2.326 . S
O93 C101 1.252 . S
C94 O97 1.252 . S
C94 O98 1.260 . S
C95 O102 1.240 . S
C95 O103 1.252 . S
C96 O99 1.252 . S
C96 O100 1.260 . S
O97 In91 2.266 . S
O97 C94 1.252 . S
O98 In91 2.326 . S
O98 C94 1.260 . S
O99 In91 2.266 . S
O99 C96 1.252 . S
O100 In91 2.326 . S
O100 C96 1.260 . S
C101 O92 1.240 . S
C101 O93 1.252 . S
O102 In91 2.294 . S
O102 C95 1.240 . S
O103 In91 2.326 . S
O103 C95 1.252 . S
In104 O105 2.294 . S
In104 O106 2.326 . S
In104 O110 2.266 . S
In104 O111 2.326 . S
In104 O112 2.266 . S
In104 O113 2.326 . S
In104 O115 2.294 . S
In104 O116 2.326 . S
O105 In104 2.294 . S
O105 C114 1.240 . S
O106 In104 2.326 . S
O106 C114 1.252 . S
C107 O110 1.252 . S
C107 O111 1.260 . S
C108 O115 1.240 . S
C108 O116 1.252 . S
C109 O112 1.252 . S
C109 O113 1.260 . S
O110 In104 2.266 . S
O110 C107 1.252 . S
O111 In104 2.326 . S
O111 C107 1.260 . S
O112 In104 2.266 . S
O112 C109 1.252 . S
O113 In104 2.326 . S
O113 C109 1.260 . S
C114 O105 1.240 . S
C114 O106 1.252 . S
O115 In104 2.294 . S
O115 C108 1.240 . S
O116 In104 2.326 . S
O116 C108 1.252 . S
In117 O118 2.294 . S
In117 O119 2.326 . S
In117 O123 2.266 . S
In117 O124 2.326 . S
In117 O125 2.266 . S
In117 O126 2.326 . S
In117 O128 2.294 . S
In117 O129 2.326 . S
O118 In117 2.294 . S
O118 C127 1.240 . S
O119 In117 2.326 . S
O119 C127 1.252 . S
C120 O123 1.252 . S
C120 O124 1.260 . S
C121 O128 1.240 . S
C121 O129 1.252 . S
C122 O125 1.252 . S
C122 O126 1.260 . S
O123 In117 2.266 . S
O123 C120 1.252 . S
O124 In117 2.326 . S
O124 C120 1.260 . S
O125 In117 2.266 . S
O125 C122 1.252 . S
O126 In117 2.326 . S
O126 C122 1.260 . S
C127 O118 1.240 . S
C127 O119 1.252 . S
O128 In117 2.294 . S
O128 C121 1.240 . S
O129 In117 2.326 . S
O129 C121 1.252 . S
In130 O131 2.294 . S
In130 O132 2.326 . S
In130 O136 2.266 . S
In130 O137 2.326 . S
In130 O138 2.266 . S
In130 O139 2.326 . S
In130 O141 2.294 . S
In130 O142 2.326 . S
O131 In130 2.294 . S
O131 C140 1.240 . S
O132 In130 2.326 . S
O132 C140 1.252 . S
C133 O136 1.252 . S
C133 O137 1.260 . S
C134 O141 1.240 . S
C134 O142 1.252 . S
C135 O138 1.252 . S
C135 O139 1.260 . S
O136 In130 2.266 . S
O136 C133 1.252 . S
O137 In130 2.326 . S
O137 C133 1.260 . S
O138 In130 2.266 . S
O138 C135 1.252 . S
O139 In130 2.326 . S
O139 C135 1.260 . S
C140 O131 1.240 . S
C140 O132 1.252 . S
O141 In130 2.294 . S
O141 C134 1.240 . S
O142 In130 2.326 . S
O142 C134 1.252 . S
In143 O144 2.294 . S
In143 O145 2.326 . S
In143 O149 2.266 . S
In143 O150 2.326 . S
In143 O151 2.266 . S
In143 O152 2.326 . S
In143 O154 2.294 . S
In143 O155 2.326 . S
O144 In143 2.294 . S
O144 C153 1.240 . S
O145 In143 2.326 . S
O145 C153 1.252 . S
C146 O149 1.252 . S
C146 O150 1.260 . S
C147 O154 1.240 . S
C147 O155 1.252 . S
C148 O151 1.252 . S
C148 O152 1.260 . S
O149 In143 2.266 . S
O149 C146 1.252 . S
O150 In143 2.326 . S
O150 C146 1.260 . S
O151 In143 2.266 . S
O151 C148 1.252 . S
O152 In143 2.326 . S
O152 C148 1.260 . S
C153 O144 1.240 . S
C153 O145 1.252 . S
O154 In143 2.294 . S
O154 C147 1.240 . S
O155 In143 2.326 . S
O155 C147 1.252 . S
In156 O157 2.294 . S
In156 O158 2.326 . S
In156 O162 2.266 . S
In156 O163 2.326 . S
In156 O164 2.266 . S
In156 O165 2.326 . S
In156 O167 2.294 . S
In156 O168 2.326 . S
O157 In156 2.294 . S
O157 C166 1.240 . S
O158 In156 2.326 . S
O158 C166 1.252 . S
C159 O162 1.252 . S
C159 O163 1.260 . S
C160 O167 1.240 . S
C160 O168 1.252 . S
C161 O164 1.252 . S
C161 O165 1.260 . S
O162 In156 2.266 . S
O162 C159 1.252 . S
O163 In156 2.326 . S
O163 C159 1.260 . S
O164 In156 2.266 . S
O164 C161 1.252 . S
O165 In156 2.326 . S
O165 C161 1.260 . S
C166 O157 1.240 . S
C166 O158 1.252 . S
O167 In156 2.294 . S
O167 C160 1.240 . S
O168 In156 2.326 . S
O168 C160 1.252 . S
In169 O170 2.294 . S
In169 O171 2.326 . S
In169 O175 2.266 . S
In169 O176 2.326 . S
In169 O177 2.266 . S
In169 O178 2.326 . S
In169 O180 2.294 . S
In169 O181 2.326 . S
O170 In169 2.294 . S
O170 C179 1.240 . S
O171 In169 2.326 . S
O171 C179 1.252 . S
C172 O175 1.252 . S
C172 O176 1.260 . S
C173 O180 1.240 . S
C173 O181 1.252 . S
C174 O177 1.252 . S
C174 O178 1.260 . S
O175 In169 2.266 . S
O175 C172 1.252 . S
O176 In169 2.326 . S
O176 C172 1.260 . S
O177 In169 2.266 . S
O177 C174 1.252 . S
O178 In169 2.326 . S
O178 C174 1.260 . S
C179 O170 1.240 . S
C179 O171 1.252 . S
O180 In169 2.294 . S
O180 C173 1.240 . S
O181 In169 2.326 . S
O181 C173 1.252 . S
In182 O183 2.294 . S
In182 O184 2.326 . S
In182 O188 2.266 . S
In182 O189 2.326 . S
In182 O190 2.266 . S
In182 O191 2.326 . S
In182 O193 2.294 . S
In182 O194 2.326 . S
O183 In182 2.294 . S
O183 C192 1.240 . S
O184 In182 2.326 . S
O184 C192 1.252 . S
C185 O188 1.252 . S
C185 O189 1.260 . S
C186 O193 1.240 . S
C186 O194 1.252 . S
C187 O190 1.252 . S
C187 O191 1.260 . S
O188 In182 2.266 . S
O188 C185 1.252 . S
O189 In182 2.326 . S
O189 C185 1.260 . S
O190 In182 2.266 . S
O190 C187 1.252 . S
O191 In182 2.326 . S
O191 C187 1.260 . S
C192 O183 1.240 . S
C192 O184 1.252 . S
O193 In182 2.294 . S
O193 C186 1.240 . S
O194 In182 2.326 . S
O194 C186 1.252 . S
In195 O196 2.294 . S
In195 O197 2.326 . S
In195 O201 2.266 . S
In195 O202 2.326 . S
In195 O203 2.266 . S
In195 O204 2.326 . S
In195 O206 2.294 . S
In195 O207 2.326 . S
O196 In195 2.294 . S
O196 C205 1.240 . S
O197 In195 2.326 . S
O197 C205 1.252 . S
C198 O201 1.252 . S
C198 O202 1.260 . S
C199 O206 1.240 . S
C199 O207 1.252 . S
C200 O203 1.252 . S
C200 O204 1.260 . S
O201 In195 2.266 . S
O201 C198 1.252 . S
O202 In195 2.326 . S
O202 C198 1.260 . S
O203 In195 2.266 . S
O203 C200 1.252 . S
O204 In195 2.326 . S
O204 C200 1.260 . S
C205 O196 1.240 . S
C205 O197 1.252 . S
O206 In195 2.294 . S
O206 C199 1.240 . S
O207 In195 2.326 . S
O207 C199 1.252 . S
In208 O209 2.294 . S
In208 O210 2.326 . S
In208 O214 2.266 . S
In208 O215 2.326 . S
In208 O216 2.266 . S
In208 O217 2.326 . S
In208 O219 2.294 . S
In208 O220 2.326 . S
O209 In208 2.294 . S
O209 C218 1.240 . S
O210 In208 2.326 . S
O210 C218 1.252 . S
C211 O214 1.252 . S
C211 O215 1.260 . S
C212 O219 1.240 . S
C212 O220 1.252 . S
C213 O216 1.252 . S
C213 O217 1.260 . S
O214 In208 2.266 . S
O214 C211 1.252 . S
O215 In208 2.326 . S
O215 C211 1.260 . S
O216 In208 2.266 . S
O216 C213 1.252 . S
O217 In208 2.326 . S
O217 C213 1.260 . S
C218 O209 1.240 . S
C218 O210 1.252 . S
O219 In208 2.294 . S
O219 C212 1.240 . S
O220 In208 2.326 . S
O220 C212 1.252 . S
In221 O222 2.294 . S
In221 O223 2.326 . S
In221 O227 2.266 . S
In221 O228 2.326 . S
In221 O229 2.266 . S
In221 O230 2.326 . S
In221 O232 2.294 . S
In221 O233 2.326 . S
O222 In221 2.294 . S
O222 C231 1.240 . S
O223 In221 2.326 . S
O223 C231 1.252 . S
C224 O227 1.252 . S
C224 O228 1.260 . S
C225 O232 1.240 . S
C225 O233 1.252 . S
C226 O229 1.252 . S
C226 O230 1.260 . S
O227 In221 2.266 . S
O227 C224 1.252 . S
O228 In221 2.326 . S
O228 C224 1.260 . S
O229 In221 2.266 . S
O229 C226 1.252 . S
O230 In221 2.326 . S
O230 C226 1.260 . S
C231 O222 1.240 . S
C231 O223 1.252 . S
O232 In221 2.294 . S
O232 C225 1.240 . S
O233 In221 2.326 . S
O233 C225 1.252 . S
In234 O235 2.294 . S
In234 O236 2.326 . S
In234 O240 2.266 . S
In234 O241 2.326 . S
In234 O242 2.266 . S
In234 O243 2.326 . S
In234 O245 2.294 . S
In234 O246 2.326 1_554 S
O235 In234 2.294 . S
O235 C244 1.240 . S
O236 In234 2.326 . S
O236 C244 1.252 . S
C237 O240 1.252 . S
C237 O241 1.260 . S
C238 O245 1.240 1_556 S
C238 O246 1.252 . S
C239 O242 1.252 . S
C239 O243 1.260 . S
O240 In234 2.266 . S
O240 C237 1.252 . S
O241 In234 2.326 . S
O241 C237 1.260 . S
O242 In234 2.266 . S
O242 C239 1.252 . S
O243 In234 2.326 . S
O243 C239 1.260 . S
C244 O235 1.240 . S
C244 O236 1.252 . S
O245 In234 2.294 . S
O245 C238 1.240 1_554 S
O246 In234 2.326 1_556 S
O246 C238 1.252 . S
In247 O248 2.294 . S
In247 O249 2.326 . S
In247 O253 2.266 . S
In247 O254 2.326 . S
In247 O255 2.266 . S
In247 O256 2.326 . S
In247 O258 2.294 . S
In247 O259 2.326 1_554 S
O248 In247 2.294 . S
O248 C257 1.240 . S
O249 In247 2.326 . S
O249 C257 1.252 . S
C250 O253 1.252 . S
C250 O254 1.260 . S
C251 O258 1.240 1_556 S
C251 O259 1.252 . S
C252 O255 1.252 . S
C252 O256 1.260 . S
O253 In247 2.266 . S
O253 C250 1.252 . S
O254 In247 2.326 . S
O254 C250 1.260 . S
O255 In247 2.266 . S
O255 C252 1.252 . S
O256 In247 2.326 . S
O256 C252 1.260 . S
C257 O248 1.240 . S
C257 O249 1.252 . S
O258 In247 2.294 . S
O258 C251 1.240 1_554 S
O259 In247 2.326 1_556 S
O259 C251 1.252 . S
In260 O261 2.294 . S
In260 O262 2.326 . S
In260 O266 2.266 . S
In260 O267 2.326 . S
In260 O268 2.266 . S
In260 O269 2.326 . S
In260 O271 2.294 . S
In260 O272 2.326 1_554 S
O261 In260 2.294 . S
O261 C270 1.240 . S
O262 In260 2.326 . S
O262 C270 1.252 . S
C263 O266 1.252 . S
C263 O267 1.260 . S
C264 O271 1.240 1_556 S
C264 O272 1.252 . S
C265 O268 1.252 . S
C265 O269 1.260 . S
O266 In260 2.266 . S
O266 C263 1.252 . S
O267 In260 2.326 . S
O267 C263 1.260 . S
O268 In260 2.266 . S
O268 C265 1.252 . S
O269 In260 2.326 . S
O269 C265 1.260 . S
C270 O261 1.240 . S
C270 O262 1.252 . S
O271 In260 2.294 . S
O271 C264 1.240 1_554 S
O272 In260 2.326 1_556 S
O272 C264 1.252 . S
In273 O274 2.294 . S
In273 O275 2.326 . S
In273 O279 2.266 . S
In273 O280 2.326 . S
In273 O281 2.266 1_554 S
In273 O282 2.326 1_554 S
In273 O284 2.294 . S
In273 O285 2.326 . S
O274 In273 2.294 . S
O274 C283 1.240 . S
O275 In273 2.326 . S
O275 C283 1.252 . S
C276 O279 1.252 . S
C276 O280 1.260 . S
C277 O284 1.240 . S
C277 O285 1.252 . S
C278 O281 1.252 . S
C278 O282 1.260 . S
O279 In273 2.266 . S
O279 C276 1.252 . S
O280 In273 2.326 . S
O280 C276 1.260 . S
O281 In273 2.266 1_556 S
O281 C278 1.252 . S
O282 In273 2.326 1_556 S
O282 C278 1.260 . S
C283 O274 1.240 . S
C283 O275 1.252 . S
O284 In273 2.294 . S
O284 C277 1.240 . S
O285 In273 2.326 . S
O285 C277 1.252 . S
In286 O287 2.294 . S
In286 O288 2.326 . S
In286 O292 2.266 1_554 S
In286 O293 2.326 1_554 S
In286 O294 2.266 . S
In286 O295 2.326 . S
In286 O297 2.294 . S
In286 O298 2.326 . S
O287 In286 2.294 . S
O287 C296 1.240 . S
O288 In286 2.326 . S
O288 C296 1.252 . S
C289 O292 1.252 . S
C289 O293 1.260 . S
C290 O297 1.240 . S
C290 O298 1.252 . S
C291 O294 1.252 . S
C291 O295 1.260 . S
O292 In286 2.266 1_556 S
O292 C289 1.252 . S
O293 In286 2.326 1_556 S
O293 C289 1.260 . S
O294 In286 2.266 . S
O294 C291 1.252 . S
O295 In286 2.326 . S
O295 C291 1.260 . S
C296 O287 1.240 . S
C296 O288 1.252 . S
O297 In286 2.294 . S
O297 C290 1.240 . S
O298 In286 2.326 . S
O298 C290 1.252 . S
In299 O300 2.294 . S
In299 O301 2.326 . S
In299 O305 2.266 . S
In299 O306 2.326 . S
In299 O307 2.266 1_554 S
In299 O308 2.326 1_554 S
In299 O310 2.294 . S
In299 O311 2.326 . S
O300 In299 2.294 . S
O300 C309 1.240 . S
O301 In299 2.326 . S
O301 C309 1.252 . S
C302 O305 1.252 . S
C302 O306 1.260 . S
C303 O310 1.240 . S
C303 O311 1.252 . S
C304 O307 1.252 . S
C304 O308 1.260 . S
O305 In299 2.266 . S
O305 C302 1.252 . S
O306 In299 2.326 . S
O306 C302 1.260 . S
O307 In299 2.266 1_556 S
O307 C304 1.252 . S
O308 In299 2.326 1_556 S
O308 C304 1.260 . S
C309 O300 1.240 . S
C309 O301 1.252 . S
O310 In299 2.294 . S
O310 C303 1.240 . S
O311 In299 2.326 . S
O311 C303 1.252 . S
In312 O313 2.294 . S
In312 O314 2.326 1_556 S
In312 O318 2.266 . S
In312 O319 2.326 . S
In312 O320 2.266 . S
In312 O321 2.326 . S
In312 O323 2.294 . S
In312 O324 2.326 . S
O313 In312 2.294 . S
O313 C322 1.240 1_556 S
O314 In312 2.326 1_554 S
O314 C322 1.252 . S
C315 O318 1.252 . S
C315 O319 1.260 . S
C316 O323 1.240 . S
C316 O324 1.252 . S
C317 O320 1.252 . S
C317 O321 1.260 . S
O318 In312 2.266 . S
O318 C315 1.252 . S
O319 In312 2.326 . S
O319 C315 1.260 . S
O320 In312 2.266 . S
O320 C317 1.252 . S
O321 In312 2.326 . S
O321 C317 1.260 . S
C322 O313 1.240 1_554 S
C322 O314 1.252 . S
O323 In312 2.294 . S
O323 C316 1.240 . S
O324 In312 2.326 . S
O324 C316 1.252 . S
In325 O326 2.294 . S
In325 O327 2.326 1_556 S
In325 O331 2.266 . S
In325 O332 2.326 . S
In325 O333 2.266 . S
In325 O334 2.326 . S
In325 O336 2.294 . S
In325 O337 2.326 . S
O326 In325 2.294 . S
O326 C335 1.240 1_556 S
O327 In325 2.326 1_554 S
O327 C335 1.252 . S
C328 O331 1.252 . S
C328 O332 1.260 . S
C329 O336 1.240 . S
C329 O337 1.252 . S
C330 O333 1.252 . S
C330 O334 1.260 . S
O331 In325 2.266 . S
O331 C328 1.252 . S
O332 In325 2.326 . S
O332 C328 1.260 . S
O333 In325 2.266 . S
O333 C330 1.252 . S
O334 In325 2.326 . S
O334 C330 1.260 . S
C335 O326 1.240 1_554 S
C335 O327 1.252 . S
O336 In325 2.294 . S
O336 C329 1.240 . S
O337 In325 2.326 . S
O337 C329 1.252 . S
In338 O339 2.294 . S
In338 O340 2.326 1_556 S
In338 O344 2.266 . S
In338 O345 2.326 . S
In338 O346 2.266 . S
In338 O347 2.326 . S
In338 O349 2.294 . S
In338 O350 2.326 . S
O339 In338 2.294 . S
O339 C348 1.240 1_556 S
O340 In338 2.326 1_554 S
O340 C348 1.252 . S
C341 O344 1.252 . S
C341 O345 1.260 . S
C342 O349 1.240 . S
C342 O350 1.252 . S
C343 O346 1.252 . S
C343 O347 1.260 . S
O344 In338 2.266 . S
O344 C341 1.252 . S
O345 In338 2.326 . S
O345 C341 1.260 . S
O346 In338 2.266 . S
O346 C343 1.252 . S
O347 In338 2.326 . S
O347 C343 1.260 . S
C348 O339 1.240 1_554 S
C348 O340 1.252 . S
O349 In338 2.294 . S
O349 C342 1.240 . S
O350 In338 2.326 . S
O350 C342 1.252 . S
In351 O352 2.294 . S
In351 O353 2.326 . S
In351 O357 2.266 . S
In351 O358 2.326 . S
In351 O359 2.266 1_556 S
In351 O360 2.326 1_556 S
In351 O362 2.294 . S
In351 O363 2.326 . S
O352 In351 2.294 . S
O352 C361 1.240 . S
O353 In351 2.326 . S
O353 C361 1.252 . S
C354 O357 1.252 . S
C354 O358 1.260 . S
C355 O362 1.240 . S
C355 O363 1.252 . S
C356 O359 1.252 . S
C356 O360 1.260 . S
O357 In351 2.266 . S
O357 C354 1.252 . S
O358 In351 2.326 . S
O358 C354 1.260 . S
O359 In351 2.266 1_554 S
O359 C356 1.252 . S
O360 In351 2.326 1_554 S
O360 C356 1.260 . S
C361 O352 1.240 . S
C361 O353 1.252 . S
O362 In351 2.294 . S
O362 C355 1.240 . S
O363 In351 2.326 . S
O363 C355 1.252 . S
In364 O365 2.294 . S
In364 O366 2.326 . S
In364 O370 2.266 1_556 S
In364 O371 2.326 1_556 S
In364 O372 2.266 . S
In364 O373 2.326 . S
In364 O375 2.294 . S
In364 O376 2.326 . S
O365 In364 2.294 . S
O365 C374 1.240 . S
O366 In364 2.326 . S
O366 C374 1.252 . S
C367 O370 1.252 . S
C367 O371 1.260 . S
C368 O375 1.240 . S
C368 O376 1.252 . S
C369 O372 1.252 . S
C369 O373 1.260 . S
O370 In364 2.266 1_554 S
O370 C367 1.252 . S
O371 In364 2.326 1_554 S
O371 C367 1.260 . S
O372 In364 2.266 . S
O372 C369 1.252 . S
O373 In364 2.326 . S
O373 C369 1.260 . S
C374 O365 1.240 . S
C374 O366 1.252 . S
O375 In364 2.294 . S
O375 C368 1.240 . S
O376 In364 2.326 . S
O376 C368 1.252 . S
In377 O378 2.294 . S
In377 O379 2.326 . S
In377 O383 2.266 . S
In377 O384 2.326 . S
In377 O385 2.266 1_556 S
In377 O386 2.326 1_556 S
In377 O388 2.294 . S
In377 O389 2.326 . S
O378 In377 2.294 . S
O378 C387 1.240 . S
O379 In377 2.326 . S
O379 C387 1.252 . S
C380 O383 1.252 . S
C380 O384 1.260 . S
C381 O388 1.240 . S
C381 O389 1.252 . S
C382 O385 1.252 . S
C382 O386 1.260 . S
O383 In377 2.266 . S
O383 C380 1.252 . S
O384 In377 2.326 . S
O384 C380 1.260 . S
O385 In377 2.266 1_554 S
O385 C382 1.252 . S
O386 In377 2.326 1_554 S
O386 C382 1.260 . S
C387 O378 1.240 . S
C387 O379 1.252 . S
O388 In377 2.294 . S
O388 C381 1.240 . S
O389 In377 2.326 . S
O389 C381 1.252 . S
In390 O391 2.294 . S
In390 O392 2.326 . S
In390 O396 2.266 . S
In390 O397 2.326 . S
In390 O398 2.266 . S
In390 O399 2.326 . S
In390 O401 2.294 . S
In390 O402 2.326 . S
O391 In390 2.294 . S
O391 C400 1.240 . S
O392 In390 2.326 . S
O392 C400 1.252 . S
C393 O396 1.252 . S
C393 O397 1.260 . S
C394 O401 1.240 . S
C394 O402 1.252 . S
C395 O398 1.252 . S
C395 O399 1.260 . S
O396 In390 2.266 . S
O396 C393 1.252 . S
O397 In390 2.326 . S
O397 C393 1.260 . S
O398 In390 2.266 . S
O398 C395 1.252 . S
O399 In390 2.326 . S
O399 C395 1.260 . S
C400 O391 1.240 . S
C400 O392 1.252 . S
O401 In390 2.294 . S
O401 C394 1.240 . S
O402 In390 2.326 . S
O402 C394 1.252 . S
In403 O404 2.294 . S
In403 O405 2.326 . S
In403 O409 2.266 . S
In403 O410 2.326 . S
In403 O411 2.266 . S
In403 O412 2.326 . S
In403 O414 2.294 . S
In403 O415 2.326 . S
O404 In403 2.294 . S
O404 C413 1.240 . S
O405 In403 2.326 . S
O405 C413 1.252 . S
C406 O409 1.252 . S
C406 O410 1.260 . S
C407 O414 1.240 . S
C407 O415 1.252 . S
C408 O411 1.252 . S
C408 O412 1.260 . S
O409 In403 2.266 . S
O409 C406 1.252 . S
O410 In403 2.326 . S
O410 C406 1.260 . S
O411 In403 2.266 . S
O411 C408 1.252 . S
O412 In403 2.326 . S
O412 C408 1.260 . S
C413 O404 1.240 . S
C413 O405 1.252 . S
O414 In403 2.294 . S
O414 C407 1.240 . S
O415 In403 2.326 . S
O415 C407 1.252 . S
In416 O417 2.294 . S
In416 O418 2.326 . S
In416 O422 2.266 . S
In416 O423 2.326 . S
In416 O424 2.266 . S
In416 O425 2.326 . S
In416 O427 2.294 . S
In416 O428 2.326 . S
O417 In416 2.294 . S
O417 C426 1.240 . S
O418 In416 2.326 . S
O418 C426 1.252 . S
C419 O422 1.252 . S
C419 O423 1.260 . S
C420 O427 1.240 . S
C420 O428 1.252 . S
C421 O424 1.252 . S
C421 O425 1.260 . S
O422 In416 2.266 . S
O422 C419 1.252 . S
O423 In416 2.326 . S
O423 C419 1.260 . S
O424 In416 2.266 . S
O424 C421 1.252 . S
O425 In416 2.326 . S
O425 C421 1.260 . S
C426 O417 1.240 . S
C426 O418 1.252 . S
O427 In416 2.294 . S
O427 C420 1.240 . S
O428 In416 2.326 . S
O428 C420 1.252 . S
In429 O430 2.294 . S
In429 O431 2.326 . S
In429 O435 2.266 . S
In429 O436 2.326 . S
In429 O437 2.266 . S
In429 O438 2.326 . S
In429 O440 2.294 . S
In429 O441 2.326 . S
O430 In429 2.294 . S
O430 C439 1.240 . S
O431 In429 2.326 . S
O431 C439 1.252 . S
C432 O435 1.252 . S
C432 O436 1.260 . S
C433 O440 1.240 . S
C433 O441 1.252 . S
C434 O437 1.252 . S
C434 O438 1.260 . S
O435 In429 2.266 . S
O435 C432 1.252 . S
O436 In429 2.326 . S
O436 C432 1.260 . S
O437 In429 2.266 . S
O437 C434 1.252 . S
O438 In429 2.326 . S
O438 C434 1.260 . S
C439 O430 1.240 . S
C439 O431 1.252 . S
O440 In429 2.294 . S
O440 C433 1.240 . S
O441 In429 2.326 . S
O441 C433 1.252 . S
In442 O443 2.294 . S
In442 O444 2.326 . S
In442 O448 2.266 . S
In442 O449 2.326 . S
In442 O450 2.266 . S
In442 O451 2.326 . S
In442 O453 2.294 . S
In442 O454 2.326 . S
O443 In442 2.294 . S
O443 C452 1.240 . S
O444 In442 2.326 . S
O444 C452 1.252 . S
C445 O448 1.252 . S
C445 O449 1.260 . S
C446 O453 1.240 . S
C446 O454 1.252 . S
C447 O450 1.252 . S
C447 O451 1.260 . S
O448 In442 2.266 . S
O448 C445 1.252 . S
O449 In442 2.326 . S
O449 C445 1.260 . S
O450 In442 2.266 . S
O450 C447 1.252 . S
O451 In442 2.326 . S
O451 C447 1.260 . S
C452 O443 1.240 . S
C452 O444 1.252 . S
O453 In442 2.294 . S
O453 C446 1.240 . S
O454 In442 2.326 . S
O454 C446 1.252 . S
In455 O456 2.294 . S
In455 O457 2.326 . S
In455 O461 2.266 . S
In455 O462 2.326 . S
In455 O463 2.266 . S
In455 O464 2.326 . S
In455 O466 2.294 . S
In455 O467 2.326 . S
O456 In455 2.294 . S
O456 C465 1.240 . S
O457 In455 2.326 . S
O457 C465 1.252 . S
C458 O461 1.252 . S
C458 O462 1.260 . S
C459 O466 1.240 . S
C459 O467 1.252 . S
C460 O463 1.252 . S
C460 O464 1.260 . S
O461 In455 2.266 . S
O461 C458 1.252 . S
O462 In455 2.326 . S
O462 C458 1.260 . S
O463 In455 2.266 . S
O463 C460 1.252 . S
O464 In455 2.326 . S
O464 C460 1.260 . S
C465 O456 1.240 . S
C465 O457 1.252 . S
O466 In455 2.294 . S
O466 C459 1.240 . S
O467 In455 2.326 . S
O467 C459 1.252 . S
C134 C5 1.579 1_556 S
C147 C18 1.579 1_556 S
C29 C121 1.579 1_554 S
C44 C108 1.579 . S
C57 C82 1.579 . S
C101 C68 1.579 . S
C56 C83 1.579 1_554 S
C75 C94 1.579 1_554 S
C109 C43 1.579 1_556 S
C36 C122 1.579 . S
C135 C4 1.579 . S
C148 C17 1.579 . S
C296 C161 1.579 . S
C303 C174 1.579 . S
C187 C277 1.579 . S
C200 C264 1.579 . S
C213 C238 1.579 . S
C226 C251 1.579 . S
C212 C239 1.579 . S
C225 C252 1.579 . S
C199 C265 1.579 . S
C186 C278 1.579 . S
C160 C289 1.579 . S
C173 C304 1.579 . S
C315 C452 1.579 . S
C459 C328 1.579 . S
C433 C341 1.579 . S
C356 C426 1.579 . S
C367 C400 1.579 . S
C382 C413 1.579 . S
C374 C393 1.579 . S
C381 C406 1.579 . S
C355 C419 1.579 . S
C434 C348 1.579 . S
C322 C445 1.579 . S
C460 C335 1.579 . S
C49 C10 1.578 . S
C62 C23 1.578 1_565 S
C30 C69 1.578 1_655 S
C127 C88 1.578 . S
C140 C95 1.578 1_545 S
C153 C114 1.578 1_655 S
C205 C166 1.578 . S
C218 C179 1.578 . S
C192 C231 1.578 . S
C244 C283 1.578 . S
C290 C257 1.578 . S
C270 C309 1.578 . S
C361 C316 1.578 . S
C368 C329 1.578 . S
C342 C387 1.578 . S
C394 C439 1.578 . S
C407 C446 1.578 . S
C420 C465 1.578 . S
C3 C237 1.559 . S
C250 C16 1.559 . S
C263 C31 1.559 . S
C432 C42 1.559 . S
C447 C55 1.559 . S
C458 C70 1.559 . S
C81 C317 1.559 . S
C330 C96 1.559 . S
C343 C107 1.559 . S
C120 C198 1.559 . S
C133 C211 1.559 . S
C146 C224 1.559 . S
C395 C159 1.559 1_455 S
C408 C172 1.559 . S
C185 C421 1.559 1_545 S
C276 C354 1.559 1_544 S
C291 C369 1.559 1_654 S
C302 C380 1.559 1_554 S
