# Generated by pormake.
# Topology unn, (4)-cn, num edge types: 1
# Building blocks:
#     Node 0, Type 0, BuildingBlock: KOZSID_clean_sbu_0, # of connection points: 4
#     Node 1, Type 0, BuildingBlock: KOZSID_clean_sbu_0, # of connection points: 4
#     Node 2, Type 0, BuildingBlock: KOZSID_clean_sbu_0, # of connection points: 4
#     Node 3, Type 0, BuildingBlock: KOZSID_clean_sbu_0, # of connection points: 4
#     Node 4, Type 0, BuildingBlock: KOZSID_clean_sbu_0, # of connection points: 4
#     Node 5, Type 0, BuildingBlock: KOZSID_clean_sbu_0, # of connection points: 4
#     Node 6, Type 0, BuildingBlock: KOZSID_clean_sbu_0, # of connection points: 4
#     Node 7, Type 0, BuildingBlock: KOZSID_clean_sbu_0, # of connection points: 4
#     Node 8, Type 0, BuildingBlock: KOZSID_clean_sbu_0, # of connection points: 4
#     Node 9, Type 0, BuildingBlock: KOZSID_clean_sbu_0, # of connection points: 4
#     Node 10, Type 0, BuildingBlock: KOZSID_clean_sbu_0, # of connection points: 4
#     Node 11, Type 0, BuildingBlock: KOZSID_clean_sbu_0, # of connection points: 4
#     Node 12, Type 0, BuildingBlock: KOZSID_clean_sbu_0, # of connection points: 4
#     Node 13, Type 0, BuildingBlock: KOZSID_clean_sbu_0, # of connection points: 4
#     Node 14, Type 0, BuildingBlock: KOZSID_clean_sbu_0, # of connection points: 4
#     Node 15, Type 0, BuildingBlock: KOZSID_clean_sbu_0, # of connection points: 4
#     Node 16, Type 0, BuildingBlock: KOZSID_clean_sbu_0, # of connection points: 4
#     Node 17, Type 0, BuildingBlock: KOZSID_clean_sbu_0, # of connection points: 4
#     Edge 18, Type (0, 0), BuildingBlock: UVAHIK_clean_linker_0, # of connection points: 2
#     Edge 19, Type (0, 0), BuildingBlock: UVAHIK_clean_linker_0, # of connection points: 2
#     Edge 20, Type (0, 0), BuildingBlock: UVAHIK_clean_linker_0, # of connection points: 2
#     Edge 21, Type (0, 0), BuildingBlock: UVAHIK_clean_linker_0, # of connection points: 2
#     Edge 22, Type (0, 0), BuildingBlock: UVAHIK_clean_linker_0, # of connection points: 2
#     Edge 23, Type (0, 0), BuildingBlock: UVAHIK_clean_linker_0, # of connection points: 2
#     Edge 24, Type (0, 0), BuildingBlock: UVAHIK_clean_linker_0, # of connection points: 2
#     Edge 25, Type (0, 0), BuildingBlock: UVAHIK_clean_linker_0, # of connection points: 2
#     Edge 26, Type (0, 0), BuildingBlock: UVAHIK_clean_linker_0, # of connection points: 2
#     Edge 27, Type (0, 0), BuildingBlock: UVAHIK_clean_linker_0, # of connection points: 2
#     Edge 28, Type (0, 0), BuildingBlock: UVAHIK_clean_linker_0, # of connection points: 2
#     Edge 29, Type (0, 0), BuildingBlock: UVAHIK_clean_linker_0, # of connection points: 2
#     Edge 30, Type (0, 0), BuildingBlock: UVAHIK_clean_linker_0, # of connection points: 2
#     Edge 31, Type (0, 0), BuildingBlock: UVAHIK_clean_linker_0, # of connection points: 2
#     Edge 32, Type (0, 0), BuildingBlock: UVAHIK_clean_linker_0, # of connection points: 2
#     Edge 33, Type (0, 0), BuildingBlock: UVAHIK_clean_linker_0, # of connection points: 2
#     Edge 34, Type (0, 0), BuildingBlock: UVAHIK_clean_linker_0, # of connection points: 2
#     Edge 35, Type (0, 0), BuildingBlock: UVAHIK_clean_linker_0, # of connection points: 2
#     Edge 36, Type (0, 0), BuildingBlock: UVAHIK_clean_linker_0, # of connection points: 2
#     Edge 37, Type (0, 0), BuildingBlock: UVAHIK_clean_linker_0, # of connection points: 2
#     Edge 38, Type (0, 0), BuildingBlock: UVAHIK_clean_linker_0, # of connection points: 2
#     Edge 39, Type (0, 0), BuildingBlock: UVAHIK_clean_linker_0, # of connection points: 2
#     Edge 40, Type (0, 0), BuildingBlock: UVAHIK_clean_linker_0, # of connection points: 2
#     Edge 41, Type (0, 0), BuildingBlock: UVAHIK_clean_linker_0, # of connection points: 2
#     Edge 42, Type (0, 0), BuildingBlock: UVAHIK_clean_linker_0, # of connection points: 2
#     Edge 43, Type (0, 0), BuildingBlock: UVAHIK_clean_linker_0, # of connection points: 2
#     Edge 44, Type (0, 0), BuildingBlock: UVAHIK_clean_linker_0, # of connection points: 2
#     Edge 45, Type (0, 0), BuildingBlock: UVAHIK_clean_linker_0, # of connection points: 2
#     Edge 46, Type (0, 0), BuildingBlock: UVAHIK_clean_linker_0, # of connection points: 2
#     Edge 47, Type (0, 0), BuildingBlock: UVAHIK_clean_linker_0, # of connection points: 2
#     Edge 48, Type (0, 0), BuildingBlock: UVAHIK_clean_linker_0, # of connection points: 2
#     Edge 49, Type (0, 0), BuildingBlock: UVAHIK_clean_linker_0, # of connection points: 2
#     Edge 50, Type (0, 0), BuildingBlock: UVAHIK_clean_linker_0, # of connection points: 2
#     Edge 51, Type (0, 0), BuildingBlock: UVAHIK_clean_linker_0, # of connection points: 2
#     Edge 52, Type (0, 0), BuildingBlock: UVAHIK_clean_linker_0, # of connection points: 2
#     Edge 53, Type (0, 0), BuildingBlock: UVAHIK_clean_linker_0, # of connection points: 2
# Relax obj value: 0.026
# Max RMSD: 0.224
# Mean RMSD: 0.204
data_MOF--net-unn--node1-KOZSID_clean_sbu_0--edge1-UVAHIK_clean_linker_0
_symmetry_space_group_name_H-M    P1
_symmetry_Int_Tables_number       1
_symmetry_cell_setting            triclinic
loop_
_symmetry_equiv_pos_as_xyz
'x, y, z'
_cell_length_a     68.043613
_cell_length_b     68.078968
_cell_length_c     63.50191
_cell_angle_alpha  89.872181
_cell_angle_beta   90.131438
_cell_angle_gamma 119.92854
loop_
_atom_site_label
_atom_site_type_symbol
_atom_site_fract_x
_atom_site_fract_y
_atom_site_fract_z
_atom_type_partial_charge
C0 C 0.99934 0.71739 0.30913 0.0
C1 C 0.99981 0.73552 0.31957 0.0
C2 C 0.01052 0.75393 0.30651 0.0
C3 C 0.01594 0.7461 0.28882 0.0
N4 N 0.00889 0.72376 0.28965 0.0
Co5 Co 0.01541 0.70674 0.26776 0.0
N6 N 0.02485 0.73141 0.2464 0.0
C7 C 0.0297 0.75275 0.25043 0.0
C8 C 0.03475 0.76582 0.23258 0.0
C9 C 0.03305 0.75186 0.21627 0.0
C10 C 0.02722 0.73099 0.22509 0.0
N11 N 0.02263 0.69006 0.24617 0.0
C12 C 0.02594 0.69341 0.22507 0.0
C13 C 0.0313 0.67803 0.21623 0.0
C14 C 0.03103 0.66444 0.23227 0.0
C15 C 0.0257 0.67232 0.24997 0.0
N16 N 0.00547 0.68157 0.28873 0.0
C17 C 0.00918 0.66395 0.28714 0.0
C18 C 1.00103 0.64933 0.3039 0.0
C19 C 0.99194 0.65844 0.31719 0.0
C20 C 0.99511 0.67828 0.3078 0.0
N21 N 0.98417 0.69324 0.25698 0.0
C22 C 0.94103 0.67636 0.23851 0.0
C23 C 0.95091 0.6626 0.24058 0.0
C24 C 0.97236 0.67127 0.25012 0.0
C25 C 0.95309 0.69853 0.24619 0.0
C26 C 0.97451 0.70663 0.25512 0.0
N27 N 0.04684 0.72107 0.27858 0.0
C28 C 0.07199 0.73602 0.30848 0.0
C29 C 0.09028 0.75023 0.2955 0.0
C30 C 0.08672 0.7479 0.2736 0.0
C31 C 0.06498 0.73306 0.26549 0.0
C32 C 0.05063 0.72178 0.29981 0.0
H33 H 0.06268 0.73219 0.24864 0.0
H34 H 0.03704 0.71226 0.31062 0.0
H35 H 0.97952 0.66033 0.2516 0.0
H36 H 0.98343 0.72403 0.26004 0.0
C37 C 0.02583 0.75865 0.27048 0.0
C38 C 0.99173 0.69519 0.31919 0.0
C39 C 0.02523 0.71151 0.21305 0.0
C40 C 0.01939 0.6611 0.26928 0.0
H41 H 0.99359 0.73555 0.33523 0.0
H42 H 0.01386 0.77096 0.30954 0.0
H43 H 0.0383 0.78316 0.23143 0.0
H44 H 0.03573 0.75655 0.19981 0.0
H45 H 0.03496 0.6767 0.19989 0.0
H46 H 0.03343 0.64992 0.23098 0.0
H47 H 1.0018 0.63398 0.30629 0.0
H48 H 0.98479 0.65178 0.33252 0.0
H49 H 0.94212 0.64528 0.23496 0.0
H50 H 0.94632 0.70989 0.2447 0.0
H51 H 0.07389 0.73631 0.32543 0.0
H52 H 0.10027 0.7582 0.26276 0.0
C53 C 0.28694 0.29759 0.22439 0.0
C54 C 0.26948 0.27932 0.21393 0.0
C55 C 0.26215 0.26093 0.22696 0.0
C56 C 0.27541 0.26892 0.24467 0.0
N57 N 0.29033 0.29135 0.24389 0.0
Co58 Co 0.3138 0.30866 0.26582 0.0
N59 N 0.29931 0.28365 0.28699 0.0
C60 C 0.28338 0.26212 0.28278 0.0
C61 C 0.27581 0.24879 0.30049 0.0
C62 C 0.2878 0.26276 0.3169 0.0
C63 C 0.30221 0.28391 0.30828 0.0
N64 N 0.33746 0.32573 0.28754 0.0
C65 C 0.33754 0.32226 0.30863 0.0
C66 C 0.35797 0.33814 0.31764 0.0
C67 C 0.37098 0.35216 0.30174 0.0
C68 C 0.35791 0.34403 0.28394 0.0
N69 N 0.32839 0.33405 0.24497 0.0
C70 C 0.34944 0.35209 0.2467 0.0
C71 C 0.35557 0.36673 0.22998 0.0
C72 C 0.33747 0.35719 0.21654 0.0
C73 C 0.3212 0.3371 0.22582 0.0
N74 N 0.29533 0.32126 0.27677 0.0
C75 C 0.26864 0.33693 0.29634 0.0
C76 C 0.29157 0.35187 0.29169 0.0
C77 C 0.30467 0.34366 0.28203 0.0
C78 C 0.25929 0.31428 0.29025 0.0
C79 C 0.27274 0.3069 0.28038 0.0
N80 N 0.33166 0.29522 0.25487 0.0
C81 C 0.3421 0.28074 0.22486 0.0
C82 C 0.3468 0.26687 0.23778 0.0
C83 C 0.34582 0.26922 0.25969 0.0
C84 C 0.33848 0.28367 0.26789 0.0
C85 C 0.33459 0.2946 0.23362 0.0
H86 H 0.33722 0.28453 0.28475 0.0
H87 H 0.33008 0.30385 0.22287 0.0
H88 H 0.32241 0.35531 0.27924 0.0
H89 H 0.26482 0.28931 0.27617 0.0
C90 C 0.27339 0.25628 0.26279 0.0
C91 C 0.3013 0.31979 0.21424 0.0
C92 C 0.31919 0.30355 0.32048 0.0
C93 C 0.36253 0.35531 0.26467 0.0
H94 H 0.26317 0.27916 0.19823 0.0
H95 H 0.24879 0.24376 0.22385 0.0
H96 H 0.26245 0.23127 0.3015 0.0
H97 H 0.28597 0.25789 0.33331 0.0
H98 H 0.36296 0.33949 0.334 0.0
H99 H 0.3876 0.36707 0.30316 0.0
H100 H 0.37142 0.38237 0.22771 0.0
H101 H 0.33685 0.36377 0.20119 0.0
H102 H 0.29948 0.36957 0.29609 0.0
H103 H 0.24158 0.30221 0.29319 0.0
H104 H 0.34351 0.28043 0.2079 0.0
H105 H 0.3496 0.25919 0.27046 0.0
C106 C 0.71359 0.99472 0.22295 0.0
C107 C 0.73111 0.99437 0.2121 0.0
C108 C 0.74995 0.00487 0.22466 0.0
C109 C 0.74297 0.01093 0.24252 0.0
N110 N 0.72072 0.00442 0.2423 0.0
Co111 Co 0.70486 0.01183 0.26472 0.0
N112 N 0.7303 0.02137 0.28527 0.0
C113 C 0.75133 0.02563 0.2806 0.0
C114 C 0.765 0.03074 0.29805 0.0
C115 C 0.75175 0.02968 0.31477 0.0
C116 C 0.73069 0.02413 0.30659 0.0
N117 N 0.68938 0.02001 0.28677 0.0
C118 C 0.69356 0.02373 0.30774 0.0
C119 C 0.67881 0.02967 0.31705 0.0
C120 C 0.66473 0.02931 0.30146 0.0
C121 C 0.67172 0.02336 0.28355 0.0
N122 N 0.67888 1.00174 0.2446 0.0
C123 C 0.66149 0.00575 0.24684 0.0
C124 C 0.64628 0.99767 0.23054 0.0
C125 C 0.65474 0.98834 0.2168 0.0
C126 C 0.67481 0.99127 0.22548 0.0
N127 N 0.69138 0.98083 0.27622 0.0
C128 C 0.6754 0.93887 0.29689 0.0
C129 C 0.66181 0.949 0.29526 0.0
C130 C 0.66998 0.96979 0.28458 0.0
C131 C 0.69682 0.94998 0.28751 0.0
C132 C 0.7045 0.97083 0.27752 0.0
N133 N 0.71923 0.04302 0.25325 0.0
C134 C 0.73311 0.06737 0.22272 0.0
C135 C 0.74815 0.08587 0.23507 0.0
C136 C 0.74684 0.08286 0.25705 0.0
C137 C 0.73211 0.06142 0.2658 0.0
C138 C 0.719 0.04632 0.232 0.0
H139 H 0.73201 0.05954 0.28268 0.0
H140 H 0.70879 0.03259 0.2216 0.0
H141 H 0.65919 0.97717 0.28354 0.0
H142 H 0.72147 0.9791 0.27146 0.0
C143 C 0.75627 0.02102 0.26044 0.0
C144 C 0.69127 0.9878 0.21333 0.0
C145 C 0.71177 0.02265 0.31921 0.0
C146 C 0.65963 0.01658 0.26471 0.0
H147 H 0.73048 0.98779 0.19647 0.0
H148 H 0.76673 0.00768 0.22119 0.0
H149 H 0.78222 0.03387 0.29869 0.0
H150 H 0.75701 0.03253 0.33109 0.0
H151 H 0.67818 0.03369 0.33342 0.0
H152 H 0.65042 0.032 0.30321 0.0
H153 H 0.63106 0.9988 0.22866 0.0
H154 H 0.6475 0.98133 0.20159 0.0
H155 H 0.64503 0.94091 0.30216 0.0
H156 H 0.70803 0.94299 0.28854 0.0
H157 H 0.7326 0.06886 0.20577 0.0
H158 H 0.75781 0.09662 0.26742 0.0
C159 C 0.971 0.2228 0.74816 0.0
C160 C 0.9598 0.19951 0.74488 0.0
C161 C 0.97154 0.19133 0.75582 0.0
C162 C 0.98911 0.20995 0.76521 0.0
N163 N 0.98926 0.22938 0.76085 0.0
Co164 Co 0.01114 0.25979 0.77216 0.0
N165 N 0.03329 0.2499 0.77974 0.0
C166 C 0.02855 0.22824 0.78152 0.0
C167 C 0.04676 0.22623 0.78771 0.0
C168 C 0.06408 0.24798 0.79029 0.0
C169 C 0.05544 0.26217 0.78546 0.0
N170 N 0.03296 0.2901 0.78392 0.0
C171 C 0.05507 0.29902 0.7896 0.0
C172 C 0.06362 0.32079 0.79749 0.0
C173 C 0.04612 0.32532 0.7973 0.0
C174 C 0.02791 0.30624 0.78918 0.0
N175 N 0.98886 0.26943 0.76431 0.0
C176 C 0.98867 0.28785 0.77168 0.0
C177 C 0.97147 0.2904 0.76324 0.0
C178 C 0.96003 0.27235 0.74985 0.0
C179 C 0.97083 0.25965 0.75096 0.0
N180 N 0.99708 0.2508 0.80019 0.0
C181 C 0.97933 0.251 0.84008 0.0
C182 C 0.96512 0.24264 0.82236 0.0
C183 C 0.97427 0.24236 0.80265 0.0
C184 C 1.00207 0.25674 0.83765 0.0
C185 C 0.01057 0.25658 0.8177 0.0
N186 N 0.02525 0.26966 0.74435 0.0
C187 C 0.04036 0.299 0.71802 0.0
C188 C 0.04577 0.2859 0.70494 0.0
C189 C 0.04029 0.26412 0.71188 0.0
C190 C 0.03015 0.25636 0.73177 0.0
C191 C 0.03017 0.29064 0.73742 0.0
H192 H 0.0263 0.23972 0.73699 0.0
H193 H 0.02625 0.30135 0.74678 0.0
H194 H 0.96312 0.23682 0.78917 0.0
H195 H 0.02846 0.26269 0.8164 0.0
C196 C 0.00754 0.21037 0.77526 0.0
C197 C 0.96277 0.23771 0.74033 0.0
C198 C 0.06783 0.28674 0.78945 0.0
C199 C 0.00691 0.30401 0.78365 0.0
H200 H 0.94459 0.18939 0.73573 0.0
H201 H 0.96809 0.174 0.75629 0.0
H202 H 0.04743 0.21081 0.78995 0.0
H203 H 0.08089 0.25269 0.79586 0.0
H204 H 0.08064 0.33212 0.80309 0.0
H205 H 0.04677 0.3409 0.80204 0.0
H206 H 0.96815 0.30418 0.76585 0.0
H207 H 0.9454 0.26894 0.74042 0.0
H208 H 0.94735 0.23764 0.82333 0.0
H209 H 0.01361 0.26234 0.85093 0.0
H210 H 0.04371 0.31567 0.71319 0.0
H211 H 0.04411 0.25338 0.70222 0.0
C212 C 0.80069 0.75615 0.74522 0.0
C213 C 0.82362 0.76958 0.74059 0.0
C214 C 0.83066 0.79023 0.74966 0.0
C215 C 0.8118 0.78826 0.75939 0.0
N216 N 0.79324 0.76769 0.75704 0.0
Co217 Co 0.76296 0.75763 0.76974 0.0
N218 N 0.77064 0.78948 0.77546 0.0
C219 C 0.79155 0.80786 0.77476 0.0
C220 C 0.79191 0.8277 0.77932 0.0
C221 C 0.76988 0.82148 0.78353 0.0
C222 C 0.75729 0.79805 0.78144 0.0
N223 N 0.73278 0.7476 0.78287 0.0
C224 C 0.72293 0.75977 0.78914 0.0
C225 C 0.7023 0.74593 0.79892 0.0
C226 C 0.69932 0.72449 0.79913 0.0
C227 C 0.71822 0.72638 0.7895 0.0
N228 N 0.75546 0.72587 0.76377 0.0
C229 C 0.73823 0.70706 0.77234 0.0
C230 C 0.73688 0.68748 0.76497 0.0
C231 C 0.75449 0.69438 0.75104 0.0
C232 C 0.7658 0.7179 0.75081 0.0
N233 N 0.77457 0.75565 0.79761 0.0
C234 C 0.77714 0.73986 0.83778 0.0
C235 C 0.78617 0.73472 0.82018 0.0
C236 C 0.78499 0.74304 0.80028 0.0
C237 C 0.76959 0.75547 0.83514 0.0
C238 C 0.76855 0.76322 0.81502 0.0
N239 N 0.75061 0.75874 0.74205 0.0
C240 C 0.72097 0.73974 0.71635 0.0
C241 C 0.73256 0.75725 0.70183 0.0
C242 C 0.7532 0.77603 0.70812 0.0
C243 C 0.76203 0.77638 0.7283 0.0
C244 C 0.73014 0.74084 0.7362 0.0
H245 H 0.77816 0.79069 0.73267 0.0
H246 H 0.72066 0.72686 0.74669 0.0
H247 H 0.79085 0.73772 0.78688 0.0
H248 H 0.76118 0.77391 0.81353 0.0
C249 C 0.81008 0.80614 0.76798 0.0
C250 C 0.78712 0.73215 0.73936 0.0
C251 C 0.73362 0.78459 0.78834 0.0
C252 C 0.72189 0.70841 0.78462 0.0
H253 H 0.83428 0.76495 0.73177 0.0
H254 H 0.84736 0.80509 0.74871 0.0
H255 H 0.80642 0.84467 0.77944 0.0
H256 H 0.76389 0.83283 0.78835 0.0
H257 H 0.69089 0.75096 0.8057 0.0
H258 H 0.685 0.70932 0.80543 0.0
H259 H 0.72414 0.67021 0.76869 0.0
H260 H 0.75854 0.68332 0.74217 0.0
H261 H 0.79256 0.72304 0.82141 0.0
H262 H 0.76329 0.76071 0.84838 0.0
H263 H 0.70478 0.72511 0.71237 0.0
H264 H 0.76271 0.78999 0.69737 0.0
C265 C 0.22077 0.97033 0.78731 0.0
C266 C 0.19768 0.95964 0.79158 0.0
C267 C 0.18956 0.97211 0.7819 0.0
C268 C 0.20801 0.98957 0.77219 0.0
N269 N 0.22728 0.98894 0.77512 0.0
Co270 Co 0.2575 0.01059 0.76313 0.0
N271 N 0.24804 0.03339 0.75691 0.0
C272 C 0.22661 0.02958 0.75719 0.0
C273 C 0.22508 0.04851 0.7529 0.0
C274 C 0.24686 0.0653 0.7493 0.0
C275 C 0.26051 0.05554 0.7513 0.0
N276 N 0.28766 0.0322 0.75075 0.0
C277 C 0.29653 0.05419 0.7446 0.0
C278 C 0.31762 0.06215 0.73531 0.0
C279 C 0.32192 0.04451 0.73533 0.0
C280 C 0.30329 0.02676 0.74458 0.0
N281 N 0.26673 0.98765 0.76961 0.0
C282 C 0.28474 0.98723 0.76143 0.0
C283 C 0.2871 0.96962 0.76903 0.0
C284 C 0.26937 0.95814 0.78274 0.0
C285 C 0.25705 0.96935 0.78264 0.0
N286 N 0.24728 0.99701 0.73507 0.0
C287 C 0.24642 0.97908 0.6951 0.0
C288 C 0.23747 0.96482 0.71269 0.0
C289 C 0.23783 0.97409 0.73247 0.0
C290 C 0.25316 1.00205 0.69761 0.0
C291 C 0.2533 0.01061 0.71763 0.0
N292 N 0.26844 0.02398 0.79105 0.0
C293 C 0.29708 0.03495 0.81788 0.0
C294 C 0.28386 0.03892 0.83216 0.0
C295 C 0.26304 0.03617 0.82518 0.0
C296 C 0.25555 0.02854 0.80454 0.0
C297 C 0.28919 0.02768 0.79755 0.0
H298 H 0.2392 0.02585 0.79965 0.0
H299 H 0.29979 0.02448 0.78727 0.0
H300 H 0.2321 0.96288 0.74589 0.0
H301 H 0.25992 0.02856 0.71906 0.0
C302 C 0.20867 0.0087 0.76355 0.0
C303 C 0.23554 0.9615 0.794 0.0
C304 C 0.28443 0.06707 0.74482 0.0
C305 C 0.30076 0.00553 0.74947 0.0
H306 H 0.18768 0.94438 0.8007 0.0
H307 H 0.17244 0.96928 0.78257 0.0
H308 H 0.20997 0.05 0.75269 0.0
H309 H 0.25201 0.08259 0.74499 0.0
H310 H 0.32846 0.07877 0.72862 0.0
H311 H 0.33689 0.04466 0.72939 0.0
H312 H 0.30058 0.96602 0.76565 0.0
H313 H 0.26593 0.94323 0.7917 0.0
H314 H 0.23174 0.94689 0.71155 0.0
H315 H 0.2594 0.01362 0.68437 0.0
H316 H 0.31343 0.03723 0.82247 0.0
H317 H 0.25232 0.03913 0.83575 0.0
C318 C 0.66661 0.0525 0.64207 0.0
C319 C 0.66769 0.07096 0.65238 0.0
C320 C 0.67888 0.08924 0.63926 0.0
C321 C 0.68397 0.081 0.62166 0.0
N322 N 0.67625 0.05853 0.62259 0.0
Co323 Co 0.6824 0.04096 0.60098 0.0
N324 N 0.69309 0.06579 0.57961 0.0
C325 C 0.69873 0.08738 0.58359 0.0
C326 C 0.70448 0.10052 0.56575 0.0
C327 C 0.70241 0.08635 0.5495 0.0
C328 C 0.69566 0.06528 0.55834 0.0
N329 N 0.68905 0.02365 0.57962 0.0
C330 C 0.69263 0.02691 0.55853 0.0
C331 C 0.69721 0.01092 0.54983 0.0
C332 C 0.69614 0.99703 0.56594 0.0
C333 C 0.69114 0.00534 0.58354 0.0
N334 N 0.67134 0.01569 0.62199 0.0
C335 C 0.67421 0.99753 0.62056 0.0
C336 C 0.66545 0.98297 0.63731 0.0
C337 C 0.65688 0.9927 0.65046 0.0
C338 C 0.66097 0.01282 0.64101 0.0
N339 N 0.65147 0.02848 0.58966 0.0
C340 C 0.60981 0.01331 0.56876 0.0
C341 C 0.61766 0.99825 0.57356 0.0
C342 C 0.6386 0.0062 0.58393 0.0
C343 C 0.6228 0.03577 0.5755 0.0
C344 C 0.6433 0.0429 0.58598 0.0
N345 N 0.71359 0.05433 0.61225 0.0
C346 C 0.73827 0.06904 0.64248 0.0
C347 C 0.75687 0.08296 0.62969 0.0
C348 C 0.75372 0.08049 0.60776 0.0
C349 C 0.73204 0.0659 0.59939 0.0
C350 C 0.717 0.05502 0.63355 0.0
H351 H 0.73004 0.06496 0.5825 0.0
H352 H 0.7032 0.04574 0.64418 0.0
H353 H 0.64463 0.99449 0.58682 0.0
H354 H 0.65283 0.06041 0.59052 0.0
C355 C 0.69465 0.09346 0.60347 0.0
C356 C 0.65847 0.0303 0.65234 0.0
C357 C 0.69289 0.04544 0.54639 0.0
C358 C 0.68423 0.99416 0.60283 0.0
H359 H 0.66163 0.0713 0.66805 0.0
H360 H 0.68289 0.1065 0.64224 0.0
H361 H 0.70866 0.11805 0.56453 0.0
H362 H 0.70539 0.09103 0.53305 0.0
H363 H 0.70086 0.00938 0.53354 0.0
H364 H 0.69779 0.98206 0.56475 0.0
H365 H 0.66551 0.96726 0.63979 0.0
H366 H 0.64948 0.98625 0.66577 0.0
H367 H 0.60811 0.98068 0.56871 0.0
H368 H 0.61724 0.04792 0.57254 0.0
H369 H 0.73987 0.06944 0.65947 0.0
H370 H 0.76755 0.09053 0.5971 0.0
C371 C 0.95461 0.63348 0.55642 0.0
C372 C 0.9375 0.61497 0.54589 0.0
C373 C 0.93063 0.59661 0.55887 0.0
C374 C 0.9438 0.60485 0.57661 0.0
N375 N 0.95824 0.6274 0.57591 0.0
Co376 Co 0.98168 0.64505 0.59776 0.0
N377 N 0.96783 0.61987 0.61881 0.0
C378 C 0.95242 0.59818 0.61451 0.0
C379 C 0.9457 0.58457 0.63208 0.0
C380 C 0.95768 0.59855 0.6485 0.0
C381 C 0.97105 0.62 0.64002 0.0
N382 N 0.00536 0.66245 0.61945 0.0
C383 C 0.00566 0.65891 0.64052 0.0
C384 C 0.02543 0.67585 0.64969 0.0
C385 C 0.03799 0.69028 0.63385 0.0
C386 C 0.02524 0.68154 0.61597 0.0
N387 N 0.99553 0.67064 0.57702 0.0
C388 C 0.0162 0.68922 0.5788 0.0
C389 C 0.02175 0.70397 0.56223 0.0
C390 C 1.00367 0.69393 0.54881 0.0
C391 C 0.98801 0.67348 0.55796 0.0
N392 N 0.96264 0.65685 0.60903 0.0
C393 C 0.93523 0.67161 0.62866 0.0
C394 C 0.95799 0.68698 0.62383 0.0
C395 C 0.97146 0.67922 0.61417 0.0
C396 C 0.92639 0.64895 0.62279 0.0
C397 C 0.9402 0.64203 0.61287 0.0
N398 N 1.00012 0.63241 0.58642 0.0
C399 C 0.01098 0.6189 0.55597 0.0
C400 C 0.01567 0.60475 0.56847 0.0
C401 C 0.01457 0.60655 0.59045 0.0
C402 C 0.00707 0.62071 0.59908 0.0
C403 C 1.00324 0.63238 0.56513 0.0
H404 H 0.00577 0.62118 0.61598 0.0
H405 H 0.9987 0.64178 0.55464 0.0
H406 H 0.98906 0.69123 0.61123 0.0
H407 H 0.93268 0.62444 0.60874 0.0
C408 C 0.94232 0.59222 0.59459 0.0
C409 C 0.96848 0.65578 0.54631 0.0
C410 C 0.98791 0.63955 0.65228 0.0
C411 C 0.02936 0.6929 0.5968 0.0
H412 H 0.93119 0.61467 0.53017 0.0
H413 H 0.91769 0.57929 0.55568 0.0
H414 H 0.93305 0.56677 0.63299 0.0
H415 H 0.95682 0.59354 0.66481 0.0
H416 H 0.03019 0.67785 0.66613 0.0
H417 H 0.05397 0.70595 0.6354 0.0
H418 H 0.03719 0.72003 0.56007 0.0
H419 H 1.00263 0.70047 0.53355 0.0
H420 H 0.9655 0.70469 0.62806 0.0
H421 H 0.90882 0.63656 0.6259 0.0
H422 H 0.01254 0.61908 0.53898 0.0
H423 H 0.01836 0.59633 0.60094 0.0
C424 C 0.39885 0.36076 0.64154 0.0
C425 C 0.42007 0.36705 0.6498 0.0
C426 C 0.43364 0.36878 0.6331 0.0
C427 C 0.42 0.36331 0.61561 0.0
N428 N 0.39868 0.35818 0.62022 0.0
Co429 Co 0.37326 0.34803 0.59954 0.0
N430 N 0.38978 0.34133 0.57718 0.0
C431 C 0.41219 0.34857 0.57751 0.0
C432 C 0.41975 0.34346 0.55946 0.0
C433 C 0.4011 0.33279 0.54668 0.0
C434 C 0.38305 0.33191 0.55765 0.0
N435 N 0.34741 0.33751 0.57924 0.0
C436 C 0.34372 0.32706 0.5602 0.0
C437 C 0.32295 0.3224 0.55184 0.0
C438 C 0.31381 0.3311 0.56553 0.0
C439 C 0.32926 0.34029 0.58159 0.0
N440 N 0.35699 0.35521 0.62159 0.0
C441 C 0.33875 0.35763 0.6184 0.0
C442 C 0.33124 0.36293 0.63637 0.0
C443 C 0.34556 0.3638 0.65195 0.0
C444 C 0.36096 0.35879 0.6426 0.0
N445 N 0.38697 0.3793 0.58837 0.0
C446 C 0.41594 0.42249 0.57085 0.0
C447 C 0.4014 0.40407 0.55815 0.0
C448 C 0.38721 0.38284 0.56712 0.0
C449 C 0.41395 0.41923 0.59279 0.0
C450 C 0.3992 0.39762 0.6012 0.0
N451 N 0.36049 0.31702 0.61077 0.0
C452 C 0.33038 0.28362 0.62755 0.0
C453 C 0.34524 0.27536 0.63172 0.0
C454 C 0.3675 0.28792 0.62432 0.0
C455 C 0.37466 0.30841 0.61381 0.0
C456 C 0.33838 0.30456 0.61717 0.0
H457 H 0.39202 0.31759 0.60876 0.0
H458 H 0.32685 0.31092 0.61482 0.0
H459 H 0.37738 0.36916 0.55654 0.0
H460 H 0.39866 0.39556 0.61807 0.0
C461 C 0.42529 0.35904 0.59545 0.0
C462 C 0.37953 0.35842 0.65409 0.0
C463 C 0.36077 0.32475 0.54786 0.0
C464 C 0.32672 0.35056 0.59954 0.0
H465 H 0.42524 0.36995 0.66613 0.0
H466 H 0.45108 0.37256 0.6338 0.0
H467 H 0.43684 0.34725 0.55592 0.0
H468 H 0.40101 0.32709 0.53077 0.0
H469 H 0.31565 0.31448 0.53689 0.0
H470 H 0.29787 0.33089 0.56389 0.0
H471 H 0.31646 0.36483 0.63814 0.0
H472 H 0.34462 0.36751 0.66836 0.0
H473 H 0.40141 0.40575 0.54119 0.0
H474 H 0.42448 0.43292 0.60342 0.0
H475 H 0.31297 0.27441 0.63292 0.0
H476 H 0.37947 0.28204 0.62678 0.0
C477 C 0.72082 0.59169 0.12211 0.0
C478 C 0.72884 0.57734 0.12827 0.0
C479 C 0.71443 0.55656 0.11987 0.0
C480 C 0.69838 0.55927 0.10925 0.0
N481 N 0.70162 0.58044 0.11047 0.0
Co482 Co 0.68188 0.59121 0.09771 0.0
N483 N 0.65688 0.55955 0.09256 0.0
C484 C 0.65854 0.54067 0.09385 0.0
C485 C 0.63862 0.52115 0.08967 0.0
C486 C 0.62339 0.52807 0.08511 0.0
C487 C 0.635 0.55157 0.08665 0.0
N488 N 0.66221 0.60195 0.08457 0.0
C489 C 0.64012 0.59027 0.07841 0.0
C490 C 0.63375 0.60445 0.06854 0.0
C491 C 0.65257 0.62561 0.06813 0.0
C492 C 0.66933 0.62322 0.07775 0.0
N493 N 0.70691 0.62279 0.10314 0.0
C494 C 0.70899 0.64171 0.09425 0.0
C495 C 0.72817 0.66106 0.10057 0.0
C496 C 0.73899 0.65389 0.11417 0.0
C497 C 0.72575 0.63048 0.11539 0.0
N498 N 0.69473 0.59223 0.06972 0.0
C499 C 0.71211 0.60718 0.02915 0.0
C500 C 0.7267 0.61244 0.04651 0.0
C501 C 0.71768 0.60448 0.0666 0.0
C502 C 0.68901 0.59177 0.03226 0.0
C503 C 0.68071 0.58449 0.05256 0.0
N504 N 0.66915 0.59103 0.1255 0.0
C505 C 0.65964 0.61099 0.1511 0.0
C506 C 0.6534 0.59351 0.16576 0.0
C507 C 0.65457 0.57432 0.15961 0.0
C508 C 0.66262 0.57346 0.13942 0.0
C509 C 0.66733 0.6094 0.13123 0.0
H510 H 0.66381 0.55877 0.13519 0.0
H511 H 0.6721 0.62335 0.12061 0.0
H512 H 0.7292 0.6098 0.07978 0.0
H513 H 0.66269 0.57403 0.05437 0.0
C514 C 0.67835 0.54168 0.10103 0.0
C515 C 0.73274 0.61607 0.12661 0.0
C516 C 0.62545 0.56553 0.07937 0.0
C517 C 0.6913 0.64078 0.0822 0.0
H518 H 0.74356 0.58142 0.13784 0.0
H519 H 0.71507 0.5411 0.12199 0.0
H520 H 0.63546 0.50392 0.0901 0.0
H521 H 0.60591 0.51711 0.08049 0.0
H522 H 0.61737 0.59981 0.06181 0.0
H523 H 0.65383 0.64092 0.06166 0.0
H524 H 0.73344 0.67836 0.09617 0.0
H525 H 0.755 0.6646 0.122 0.0
H526 H 0.74476 0.6239 0.04493 0.0
H527 H 0.67713 0.58631 0.01925 0.0
H528 H 0.6586 0.62594 0.15493 0.0
H529 H 0.64987 0.56037 0.17045 0.0
C530 C 0.42385 0.12777 0.12126 0.0
C531 C 0.43626 0.15101 0.12477 0.0
C532 C 0.4563 0.15891 0.1142 0.0
C533 C 0.455 0.14019 0.10479 0.0
N534 N 0.43544 0.12095 0.10879 0.0
Co535 Co 0.42655 0.09046 0.09741 0.0
N536 N 0.45854 0.09979 0.09031 0.0
C537 C 0.47573 0.12134 0.08883 0.0
C538 C 0.49583 0.12302 0.08282 0.0
C539 C 0.49103 0.10118 0.08002 0.0
C540 C 0.46812 0.08726 0.08454 0.0
N541 N 0.41769 0.06002 0.08569 0.0
C542 C 0.43063 0.05079 0.08009 0.0
C543 C 0.4172 0.02909 0.07211 0.0
C544 C 0.3953 0.02493 0.07213 0.0
C545 C 0.39646 0.04414 0.08025 0.0
N546 N 0.39466 0.0814 0.10468 0.0
C547 C 0.37599 0.06321 0.09708 0.0
C548 C 0.35629 0.06102 0.10516 0.0
C549 C 0.36299 0.07906 0.11856 0.0
C550 C 0.3865 0.0914 0.11781 0.0
N551 N 0.42211 0.09984 0.06929 0.0
C552 C 0.40439 0.10038 0.02945 0.0
C553 C 0.39933 0.10945 0.04708 0.0
C554 C 0.40858 0.10927 0.06679 0.0
C555 C 0.42061 0.09356 0.03188 0.0
C556 C 0.42926 0.09346 0.05182 0.0
N557 N 0.43008 0.08031 0.1254 0.0
C558 C 0.41336 0.0525 0.15299 0.0
C559 C 0.43116 0.06595 0.16662 0.0
C560 C 0.44905 0.08647 0.15897 0.0
C561 C 0.44811 0.09344 0.13826 0.0
C562 C 0.41323 0.05984 0.13257 0.0
H563 H 0.46163 0.10958 0.13279 0.0
H564 H 0.39899 0.04905 0.1228 0.0
H565 H 0.4034 0.11522 0.08023 0.0
H566 H 0.44049 0.08668 0.05319 0.0
C567 C 0.47292 0.13941 0.09506 0.0
C568 C 0.4005 0.11319 0.12863 0.0
C569 C 0.45564 0.06276 0.0802 0.0
C570 C 0.37789 0.04682 0.08536 0.0
H571 H 0.43131 0.16129 0.13382 0.0
H572 H 0.47042 0.17611 0.11398 0.0
H573 H 0.51207 0.13828 0.0808 0.0
H574 H 0.50296 0.09625 0.07448 0.0
H575 H 0.42269 0.01762 0.06649 0.0
H576 H 0.38029 0.00954 0.0672 0.0
H577 H 0.33914 0.04745 0.10233 0.0
H578 H 0.35183 0.08268 0.12778 0.0
H579 H 0.38714 0.11523 0.04606 0.0
H580 H 0.42581 0.08726 0.01862 0.0
H581 H 0.39937 0.03642 0.1582 0.0
H582 H 0.46317 0.09734 0.16909 0.0
C583 C 0.88799 0.30268 0.11733 0.0
C584 C 0.86457 0.29173 0.11963 0.0
C585 C 0.85816 0.30743 0.11557 0.0
C586 C 0.87788 0.32698 0.11091 0.0
N587 N 0.8964 0.32462 0.11144 0.0
Co588 Co 0.92815 0.34884 0.10524 0.0
N589 N 0.91777 0.36914 0.09306 0.0
C590 C 0.89694 0.36664 0.09512 0.0
C591 C 0.8944 0.38292 0.08475 0.0
C592 C 0.91495 0.3967 0.07562 0.0
C593 C 0.92901 0.38812 0.08111 0.0
N594 N 0.9598 0.37306 0.09867 0.0
C595 C 0.96752 0.39177 0.08624 0.0
C596 C 0.99102 0.4044 0.08662 0.0
C597 C 0.99823 0.39332 0.09987 0.0
C598 C 0.97881 0.37461 0.10684 0.0
N599 N 0.93849 0.32863 0.11787 0.0
C600 C 0.95988 0.33525 0.12399 0.0
C601 C 0.962 0.31824 0.13343 0.0
C602 C 0.94055 0.29982 0.13362 0.0
C603 C 0.92648 0.30664 0.12426 0.0
N604 N 0.92633 0.3354 0.07744 0.0
C605 C 0.92505 0.3154 0.03835 0.0
C606 C 0.94345 0.3223 0.05206 0.0
C607 C 0.94377 0.33218 0.07131 0.0
C608 C 0.90736 0.31915 0.04449 0.0
C609 C 0.90827 0.32908 0.06417 0.0
N610 N 0.93082 0.36224 0.13331 0.0
C611 C 0.95343 0.3939 0.15623 0.0
C612 C 0.94804 0.37922 0.17354 0.0
C613 C 0.9314 0.35646 0.17067 0.0
C614 C 0.92304 0.34836 0.15055 0.0
C615 C 0.9443 0.3851 0.13632 0.0
H616 H 0.91171 0.33046 0.1489 0.0
H617 H 0.94966 0.39661 0.12312 0.0
H618 H 0.9583 0.3372 0.08124 0.0
H619 H 0.89438 0.33153 0.06867 0.0
C620 C 0.8793 0.34701 0.10387 0.0
C621 C 0.90163 0.29249 0.12385 0.0
C622 C 0.95316 0.39929 0.07568 0.0
C623 C 0.97773 0.35687 0.11892 0.0
H624 H 0.85335 0.27435 0.12439 0.0
H625 H 0.84111 0.30483 0.11574 0.0
H626 H 0.87917 0.38409 0.08327 0.0
H627 H 0.91907 0.41139 0.066 0.0
H628 H 1.00177 0.42019 0.07849 0.0
H629 H 0.01558 0.39814 0.10365 0.0
H630 H 0.97733 0.31907 0.13936 0.0
H631 H 0.93568 0.28341 0.14037 0.0
H632 H 0.95779 0.32032 0.04788 0.0
H633 H 0.89278 0.31412 0.03437 0.0
H634 H 0.96579 0.41174 0.15764 0.0
H635 H 0.92576 0.34459 0.18369 0.0
C636 C 0.32962 0.3809 0.97709 0.0
C637 C 0.33006 0.39885 0.98783 0.0
C638 C 0.34099 0.4175 0.9751 0.0
C639 C 0.34659 0.40999 0.95731 0.0
N640 N 0.33943 0.38761 0.95774 0.0
Co641 Co 0.34646 0.37105 0.93574 0.0
N642 N 0.35663 0.39629 0.91489 0.0
C643 C 0.36139 0.41754 0.91926 0.0
C644 C 0.36687 0.43101 0.90166 0.0
C645 C 0.36554 0.41742 0.88515 0.0
C646 C 0.35948 0.39635 0.89362 0.0
N647 N 0.35426 0.35488 0.9141 0.0
C648 C 0.35816 0.35876 0.89312 0.0
C649 C 0.36367 0.34354 0.88415 0.0
C650 C 0.36283 0.32948 0.89998 0.0
C651 C 0.35705 0.33693 0.9177 0.0
N652 N 0.3357 0.34528 0.95616 0.0
C653 C 0.33912 0.3275 0.95432 0.0
C654 C 0.33034 0.31242 0.9707 0.0
C655 C 0.32116 0.32142 0.98404 0.0
C656 C 0.32495 0.34164 0.97506 0.0
N657 N 0.31559 0.358 0.92411 0.0
C658 C 0.27348 0.34209 0.90384 0.0
C659 C 0.2832 0.3282 0.90591 0.0
C660 C 0.3041 0.33636 0.91637 0.0
C661 C 0.28509 0.36384 0.91251 0.0
C662 C 0.30603 0.37148 0.92233 0.0
N663 N 0.37753 0.38493 0.94739 0.0
C664 C 0.40162 0.3986 0.97808 0.0
C665 C 0.42031 0.41344 0.96583 0.0
C666 C 0.41754 0.41206 0.94382 0.0
C667 C 0.39611 0.39752 0.93494 0.0
C668 C 0.38061 0.3847 0.96867 0.0
H669 H 0.39441 0.39735 0.91804 0.0
H670 H 0.36673 0.37468 0.97899 0.0
H671 H 0.31115 0.32532 0.9178 0.0
H672 H 0.3147 0.38863 0.92794 0.0
C673 C 0.35698 0.42296 0.9393 0.0
C674 C 0.32188 0.35854 0.98683 0.0
C675 C 0.35768 0.37711 0.88132 0.0
C676 C 0.34989 0.32508 0.93665 0.0
H677 H 0.32372 0.3986 1.0035 0.0
H678 H 0.34445 0.43452 0.97844 0.0
H679 H 0.37044 0.44837 0.90077 0.0
H680 H 0.36857 0.42248 0.86879 0.0
H681 H 0.36771 0.34259 0.86785 0.0
H682 H 0.36509 0.31489 0.89852 0.0
H683 H 0.33083 0.2969 0.97285 0.0
H684 H 0.3136 0.31445 0.99918 0.0
H685 H 0.2747 0.31117 0.89956 0.0
H686 H 0.27839 0.37527 0.9111 0.0
H687 H 0.40294 0.39814 0.99506 0.0
H688 H 0.43147 0.42286 0.93353 0.0
C689 C 0.62219 0.96906 0.88958 0.0
C690 C 0.60476 0.95115 0.87872 0.0
C691 C 0.59699 0.93246 0.89142 0.0
C692 C 0.60997 0.93993 0.90933 0.0
N693 N 0.62513 0.96232 0.90902 0.0
Co694 Co 0.64849 0.97882 0.9313 0.0
N695 N 0.63338 0.9534 0.95194 0.0
C696 C 0.61717 0.93211 0.94735 0.0
C697 C 0.60957 0.91827 0.96475 0.0
C698 C 0.6218 0.93169 0.98138 0.0
C699 C 0.6362 0.95305 0.97319 0.0
N700 N 0.67225 0.99494 0.95328 0.0
C701 C 0.67213 0.99091 0.97429 0.0
C702 C 0.6922 0.007 0.98371 0.0
C703 C 0.70537 0.02139 0.9681 0.0
C704 C 0.69266 0.01346 0.95009 0.0
N705 N 0.66347 0.00477 0.91102 0.0
C706 C 0.68446 0.02279 0.91323 0.0
C707 C 0.69081 0.03794 0.8969 0.0
C708 C 0.67293 0.02878 0.88321 0.0
C709 C 0.65657 0.00839 0.89194 0.0
N710 N 0.63041 0.99163 0.9428 0.0
C711 C 0.60397 0.00709 0.96327 0.0
C712 C 0.62753 0.02114 0.96121 0.0
C713 C 0.64038 0.01322 0.95065 0.0
C714 C 0.59398 0.98543 0.95439 0.0
C715 C 0.6074 0.97802 0.94447 0.0
N716 N 0.66597 0.96519 0.9198 0.0
C717 C 0.67675 0.95183 0.88919 0.0
C718 C 0.68057 0.93693 0.90146 0.0
C719 C 0.67901 0.93815 0.92345 0.0
C720 C 0.67196 0.95257 0.93229 0.0
C721 C 0.66948 0.9656 0.89855 0.0
H722 H 0.67029 0.95261 0.94917 0.0
H723 H 0.66566 0.97567 0.8882 0.0
H724 H 0.65841 0.0244 0.94928 0.0
H725 H 0.59905 0.96091 0.93872 0.0
C726 C 0.60744 0.92682 0.92725 0.0
C727 C 0.63691 0.99141 0.87987 0.0
C728 C 0.65358 0.97195 0.98575 0.0
C729 C 0.69733 0.0254 0.9312 0.0
H730 H 0.59878 0.95143 0.86298 0.0
H731 H 0.58352 0.91544 0.88796 0.0
H732 H 0.59624 0.90071 0.9654 0.0
H733 H 0.62044 0.92635 0.99763 0.0
H734 H 0.69676 0.00854 1.00019 0.0
H735 H 0.72172 0.03658 0.96991 0.0
H736 H 0.70669 0.05365 0.89504 0.0
H737 H 0.67251 0.0358 0.86802 0.0
H738 H 0.63594 0.03812 0.96768 0.0
H739 H 0.5759 0.97389 0.95576 0.0
H740 H 0.67867 0.95242 0.87224 0.0
H741 H 0.68212 0.9273 0.93376 0.0
C742 C 0.04936 0.66354 0.88941 0.0
C743 C 0.06714 0.66365 0.87865 0.0
C744 C 0.08579 0.67403 0.89147 0.0
C745 C 0.07842 0.67958 0.90939 0.0
N746 N 0.05613 0.67288 0.90893 0.0
Co747 Co 0.0397 0.67948 0.93141 0.0
N748 N 0.06478 0.68861 0.9523 0.0
C749 C 0.08597 0.69321 0.94783 0.0
C750 C 0.09939 0.69809 0.96542 0.0
C751 C 0.08583 0.69655 0.98204 0.0
C752 C 0.06483 0.69096 0.97366 0.0
N753 N 0.02361 0.68678 0.95356 0.0
C754 C 0.02743 0.69004 0.97462 0.0
C755 C 0.01236 0.69554 0.98394 0.0
C756 C 0.99847 0.69541 0.96827 0.0
C757 C 0.00589 0.69003 0.95029 0.0
N758 N 0.01413 0.66986 0.9109 0.0
C759 C 0.99665 0.67373 0.91307 0.0
C760 C 0.98178 0.66603 0.89649 0.0
C761 C 0.99055 0.65709 0.88268 0.0
C762 C 0.01046 0.65985 0.8916 0.0
N763 N 0.02621 0.64815 0.94206 0.0
C764 C 0.00982 0.60528 0.96104 0.0
C765 C 0.99612 0.61529 0.95952 0.0
C766 C 0.00451 0.63657 0.94971 0.0
C767 C 0.03161 0.61702 0.95246 0.0
C768 C 0.03948 0.6383 0.9433 0.0
N769 N 0.05409 0.71099 0.92079 0.0
C770 C 0.06881 0.73638 0.89102 0.0
C771 C 0.08319 0.75454 0.90405 0.0
C772 C 0.0811 0.75078 0.92592 0.0
C773 C 0.06631 0.729 0.93395 0.0
C774 C 0.05457 0.71496 0.8996 0.0
H775 H 0.06565 0.72656 0.95077 0.0
H776 H 0.04486 0.7015 0.88875 0.0
H777 H 0.99363 0.64384 0.94871 0.0
H778 H 0.05667 0.647 0.93779 0.0
C779 C 0.09136 0.68926 0.92759 0.0
C780 C 0.02709 0.6565 0.87962 0.0
C781 C 0.04569 0.68914 0.98616 0.0
C782 C 0.99427 0.68388 0.93119 0.0
H783 H 0.06682 0.65741 0.86292 0.0
H784 H 0.10267 0.67706 0.88815 0.0
H785 H 0.11669 0.70144 0.96619 0.0
H786 H 0.09086 0.69917 0.99842 0.0
H787 H 0.01142 0.6992 1.00036 0.0
H788 H 0.98408 0.69796 0.96996 0.0
H789 H 0.96653 0.6671 0.89453 0.0
H790 H 0.98361 0.65039 0.86731 0.0
H791 H 0.97907 0.60674 0.96583 0.0
H792 H 0.04293 0.61016 0.95347 0.0
H793 H 0.06893 0.73843 0.8741 0.0
H794 H 0.09155 0.76423 0.93679 0.0
C795 C 0.30577 0.8891 0.412 0.0
C796 C 0.29548 0.86616 0.40721 0.0
C797 C 0.30837 0.85822 0.41638 0.0
C798 C 0.32563 0.87661 0.42633 0.0
N799 N 0.3245 0.89569 0.42404 0.0
Co800 Co 0.34564 0.92569 0.43669 0.0
N801 N 0.369 0.91679 0.44217 0.0
C802 C 0.3657 0.89557 0.44125 0.0
C803 C 0.38492 0.89444 0.44521 0.0
C804 C 0.40135 0.91625 0.44928 0.0
C805 C 0.39111 0.9295 0.44784 0.0
N806 N 0.36672 0.95561 0.44976 0.0
C807 C 0.38874 0.96472 0.45588 0.0
C808 C 0.39626 0.98543 0.46579 0.0
C809 C 0.37828 0.9892 0.4662 0.0
C810 C 0.36079 0.97067 0.45657 0.0
N811 N 0.32216 0.93438 0.43089 0.0
C812 C 0.32126 0.95188 0.43967 0.0
C813 C 0.30336 0.95398 0.43243 0.0
C814 C 0.29221 0.93661 0.41831 0.0
C815 C 0.30388 0.92473 0.41782 0.0
N816 N 0.33216 0.91444 0.46462 0.0
C817 C 0.31445 0.9125 0.50494 0.0
C818 C 0.30007 0.90396 0.48737 0.0
C819 C 0.30924 0.90482 0.46741 0.0
C820 C 0.33741 0.91928 0.50215 0.0
C821 C 0.34587 0.92002 0.48196 0.0
N822 N 0.35896 0.93769 0.40894 0.0
C823 C 0.36987 0.96733 0.38318 0.0
C824 C 0.37462 0.95508 0.36843 0.0
C825 C 0.37216 0.93415 0.37462 0.0
C826 C 0.36415 0.92567 0.39497 0.0
C827 C 0.36223 0.95848 0.40318 0.0
H828 H 0.36178 0.90928 0.39927 0.0
H829 H 0.35853 0.96842 0.41383 0.0
H830 H 0.29794 0.89934 0.45405 0.0
H831 H 0.36384 0.92677 0.48037 0.0
C832 C 0.34501 0.87751 0.43466 0.0
C833 C 0.29644 0.90362 0.40593 0.0
C834 C 0.40212 0.95316 0.45501 0.0
C835 C 0.33935 0.96778 0.45192 0.0
H836 H 0.28023 0.85613 0.39809 0.0
H837 H 0.30592 0.84128 0.41523 0.0
H838 H 0.38683 0.87958 0.44494 0.0
H839 H 0.41873 0.92167 0.45356 0.0
H840 H 0.41282 0.99634 0.47258 0.0
H841 H 0.37803 0.00378 0.47266 0.0
H842 H 0.29937 0.96707 0.43632 0.0
H843 H 0.2772 0.93309 0.40946 0.0
H844 H 0.28214 0.89816 0.4887 0.0
H845 H 0.34908 0.92513 0.51533 0.0
H846 H 0.37191 0.98375 0.37924 0.0
H847 H 0.37573 0.92415 0.36368 0.0
C848 C 0.1356 0.42184 0.41445 0.0
C849 C 0.1588 0.43462 0.41076 0.0
C850 C 0.16628 0.45496 0.42062 0.0
C851 C 0.1474 0.45346 0.42987 0.0
N852 N 0.12841 0.43346 0.42648 0.0
Co853 Co 0.09786 0.42412 0.43814 0.0
N854 N 0.10664 0.45607 0.44486 0.0
C855 C 0.12792 0.47389 0.4451 0.0
C856 C 0.12899 0.49399 0.45003 0.0
C857 C 0.10703 0.48853 0.45349 0.0
C858 C 0.09376 0.46525 0.45066 0.0
N859 N 0.06742 0.41478 0.45028 0.0
C860 C 0.05814 0.42744 0.45666 0.0
C861 C 0.03696 0.41387 0.46561 0.0
C862 C 0.03303 0.39208 0.46517 0.0
C863 C 0.05194 0.3935 0.456 0.0
N864 N 0.08928 0.39228 0.43107 0.0
C865 C 0.07122 0.3735 0.4387 0.0
C866 C 0.06927 0.35388 0.4307 0.0
C867 C 0.08734 0.36072 0.41733 0.0
C868 C 0.09949 0.38423 0.41805 0.0
N869 N 0.10782 0.42027 0.46621 0.0
C870 C 0.10845 0.40304 0.50632 0.0
C871 C 0.11695 0.3973 0.48867 0.0
C872 C 0.11686 0.40642 0.46887 0.0
C873 C 0.1023 0.41974 0.5037 0.0
C874 C 0.10205 0.42805 0.48363 0.0
N875 N 0.08713 0.42709 0.41021 0.0
C876 C 0.05847 0.41017 0.38334 0.0
C877 C 0.07135 0.42799 0.36949 0.0
C878 C 0.09211 0.44591 0.3767 0.0
C879 C 0.09979 0.44506 0.39714 0.0
C880 C 0.06654 0.41008 0.40346 0.0
H881 H 0.11604 0.45869 0.40223 0.0
H882 H 0.0561 0.39587 0.4134 0.0
H883 H 0.12256 0.40088 0.45549 0.0
H884 H 0.09566 0.43958 0.48219 0.0
C885 C 0.1462 0.47148 0.43881 0.0
C886 C 0.12141 0.39832 0.40743 0.0
C887 C 0.06977 0.45235 0.45675 0.0
C888 C 0.05485 0.37515 0.45068 0.0
H889 H 0.16932 0.42977 0.40199 0.0
H890 H 0.18331 0.46939 0.42045 0.0
H891 H 0.14393 0.51064 0.45086 0.0
H892 H 0.10151 0.50024 0.45833 0.0
H893 H 0.0258 0.41927 0.47228 0.0
H894 H 0.01808 0.377 0.47072 0.0
H895 H 0.05587 0.33669 0.43363 0.0
H896 H 0.09114 0.34964 0.4082 0.0
H897 H 0.12231 0.3848 0.48975 0.0
H898 H 0.09667 0.42569 0.51691 0.0
H899 H 0.04215 0.39617 0.37863 0.0
H900 H 0.10258 0.46008 0.36648 0.0
C901 C 0.55776 0.63802 0.45457 0.0
C902 C 0.5345 0.62713 0.45804 0.0
C903 C 0.52662 0.63955 0.44785 0.0
C904 C 0.54537 0.65717 0.43867 0.0
N905 N 0.56461 0.65673 0.44245 0.0
Co906 Co 0.59514 0.67858 0.43127 0.0
N907 N 0.58579 0.7014 0.42477 0.0
C908 C 0.56423 0.69714 0.42356 0.0
C909 C 0.56251 0.71567 0.418 0.0
C910 C 0.58434 0.73271 0.4152 0.0
C911 C 0.59829 0.7236 0.41925 0.0
N912 N 0.62559 0.70038 0.41968 0.0
C913 C 0.63474 0.72257 0.41419 0.0
C914 C 0.6564 0.73094 0.40607 0.0
C915 C 0.66064 0.71326 0.40587 0.0
C916 C 0.6415 0.69513 0.41401 0.0
N917 N 0.60421 0.65558 0.43801 0.0
C918 C 0.62244 0.65528 0.43027 0.0
C919 C 0.62462 0.63759 0.43797 0.0
C920 C 0.60652 0.62594 0.45127 0.0
C921 C 0.59418 0.63713 0.45085 0.0
N922 N 0.58583 0.66545 0.40292 0.0
C923 C 0.58591 0.6486 0.36258 0.0
C924 C 0.57705 0.63393 0.37992 0.0
C925 C 0.57687 0.64265 0.39988 0.0
C926 C 0.59213 0.67139 0.36557 0.0
C927 C 0.59197 0.67943 0.38574 0.0
N928 N 0.60527 0.69158 0.45946 0.0
C929 C 0.6332 0.70212 0.48692 0.0
C930 C 0.61975 0.70614 0.50083 0.0
C931 C 0.59915 0.70361 0.49339 0.0
C932 C 0.59213 0.69615 0.4726 0.0
C933 C 0.6258 0.69509 0.46645 0.0
H934 H 0.57594 0.6936 0.4673 0.0
H935 H 0.63662 0.6919 0.45646 0.0
H936 H 0.57102 0.63112 0.41307 0.0
H937 H 0.59838 0.69732 0.38749 0.0
C938 C 0.54616 0.67613 0.42946 0.0
C939 C 0.57235 0.62913 0.46171 0.0
C940 C 0.62272 0.7356 0.41453 0.0
C941 C 0.63884 0.67381 0.41877 0.0
H942 H 0.52421 0.61172 0.46686 0.0
H943 H 0.50941 0.6365 0.44775 0.0
H944 H 0.54722 0.71669 0.41623 0.0
H945 H 0.58922 0.74965 0.40992 0.0
H946 H 0.66779 0.74794 0.40046 0.0
H947 H 0.67601 0.71369 0.40074 0.0
H948 H 0.63821 0.63407 0.43496 0.0
H949 H 0.60285 0.61094 0.46019 0.0
H950 H 0.57166 0.6161 0.37847 0.0
H951 H 0.59816 0.68328 0.35257 0.0
H952 H 0.64934 0.70415 0.49195 0.0
H953 H 0.58828 0.70661 0.50372 0.0
C954 C 0.00957 0.69365 0.17758 0.0
C955 C 0.02679 0.71146 0.18931 0.0
C956 C 0.01202 0.69158 0.15582 0.0
C957 C 0.04492 0.72325 0.10811 0.0
H958 H 0.02507 0.66325 0.08592 0.0
C959 C 0.06223 0.71036 0.02049 0.0
C960 C 0.04614 0.69069 1.00991 0.0
C961 C 0.06068 0.71282 0.04237 0.0
C962 C 0.03045 0.68016 0.09161 0.0
H963 H 0.06038 0.74083 0.1872 0.0
H964 H 0.06445 0.73771 0.14919 0.0
H965 H 0.02016 0.66801 0.12316 0.0
H966 H 0.01556 0.65841 1.01412 0.0
H967 H 0.01249 0.66268 0.05193 0.0
H968 H 0.05482 0.73543 0.07656 0.0
C969 C 0.04884 0.72541 0.15674 0.0
C970 C 0.02765 0.68289 0.11317 0.0
C971 C 0.04647 0.72732 0.17858 0.0
C972 C 0.02851 0.67356 0.02185 0.0
C973 C 0.02683 0.67606 0.04366 0.0
C974 C 0.04753 0.72051 0.08648 0.0
C975 C 0.03179 0.70731 0.14501 0.0
C976 C 0.0348 0.70448 0.12183 0.0
C977 C 0.04276 0.69584 0.05439 0.0
C978 C 0.04034 0.69889 0.07775 0.0
H979 H 0.99435 0.68095 0.1854 0.0
H980 H 0.99838 0.67754 0.14745 0.0
H981 H 0.05044 0.74014 0.114 0.0
H982 H 0.0757 0.72416 1.01174 0.0
H983 H 0.07356 0.72819 0.04979 0.0
C984 C 0.33731 0.36545 0.02397 0.0
C985 C 0.3185 0.35575 1.01034 0.0
C986 C 0.33461 0.36157 0.04582 0.0
C987 C 0.2919 0.34205 0.08949 0.0
H988 H 0.33648 0.33296 0.11934 0.0
C989 C 0.29421 0.33719 0.18167 0.0
C990 C 0.30044 0.32217 0.19065 0.0
C991 C 0.29542 0.34081 0.15972 0.0
C992 C 0.32371 0.33528 0.11133 0.0
H993 H 0.28207 0.33442 1.00901 0.0
H994 H 0.27718 0.32773 0.04718 0.0
H995 H 0.34036 0.34013 0.08155 0.0
H996 H 0.31272 0.29914 0.18358 0.0
H997 H 0.31458 0.30511 0.14545 0.0
H998 H 0.27515 0.33698 0.11931 0.0
C999 C 0.2941 0.33853 0.04106 0.0
C1000 C 0.32611 0.3397 0.08955 0.0
C1001 C 0.29685 0.3423 0.01914 0.0
C1002 C 0.30764 0.31068 0.17713 0.0
C1003 C 0.30893 0.31434 0.15524 0.0
C1004 C 0.28958 0.33778 0.11134 0.0
C1005 C 0.31297 0.3479 0.05478 0.0
C1006 C 0.31026 0.34317 0.07819 0.0
C1007 C 0.30306 0.32964 0.14611 0.0
C1008 C 0.30542 0.33425 0.12267 0.0
H1009 H 0.35422 0.37579 0.01765 0.0
H1010 H 0.34957 0.36939 0.05571 0.0
H1011 H 0.27939 0.34478 0.08148 0.0
H1012 H 0.28885 0.34649 0.1917 0.0
H1013 H 0.29097 0.3529 0.1535 0.0
C1014 C 0.67067 0.96373 0.18134 0.0
C1015 C 0.68801 0.98419 0.18978 0.0
C1016 C 0.66651 0.96119 0.15947 0.0
C1017 C 0.69293 0.9857 0.10718 0.0
H1018 H 0.63097 0.95466 0.08669 0.0
C1019 C 0.67226 0.96628 0.01797 0.0
C1020 C 0.65531 0.96993 1.00928 0.0
C1021 C 0.67559 0.96684 0.03989 0.0
C1022 C 0.6484 0.96346 0.09207 0.0
H1023 H 0.71456 0.01802 0.18169 0.0
H1024 H 0.70771 0.01355 0.14368 0.0
H1025 H 0.6384 0.95814 0.12461 0.0
H1026 H 0.62794 0.9761 1.01693 0.0
H1027 H 0.63342 0.97678 0.05525 0.0
H1028 H 0.70297 0.99121 0.07471 0.0
C1029 C 0.69732 0.99931 0.15386 0.0
C1030 C 0.65269 0.96527 0.11392 0.0
C1031 C 0.7013 1.00191 0.17571 0.0
C1032 C 0.64112 0.9732 0.02314 0.0
C1033 C 0.6443 0.97357 0.04514 0.0
C1034 C 0.68865 0.98369 0.08535 0.0
C1035 C 0.67971 0.97898 0.14532 0.0
C1036 C 0.67504 0.97652 0.12189 0.0
C1037 C 0.66188 0.97081 0.0539 0.0
C1038 C 0.66631 0.9726 0.07737 0.0
H1039 H 0.66006 0.9498 0.19174 0.0
H1040 H 0.65296 0.94518 0.15363 0.0
H1041 H 0.71037 0.99432 0.11252 0.0
H1042 H 0.68337 0.96355 1.00771 0.0
H1043 H 0.68901 0.96421 0.04587 0.0
C1044 C 0.67693 0.02787 0.51088 0.0
C1045 C 0.6945 0.04527 0.52266 0.0
C1046 C 0.67918 0.02581 0.48908 0.0
C1047 C 0.72319 0.04497 0.44585 0.0
H1048 H 0.67026 0.01889 0.40964 0.0
C1049 C 0.72868 0.04365 0.3536 0.0
C1050 C 0.7123 0.02417 0.34297 0.0
C1051 C 0.72721 0.04611 0.37549 0.0
C1052 C 0.68526 0.02601 0.4195 0.0
H1053 H 0.72853 0.07392 0.52056 0.0
H1054 H 0.73215 0.07118 0.48254 0.0
H1055 H 0.66615 0.02414 0.44695 0.0
H1056 H 0.68138 0.99215 0.34717 0.0
H1057 H 0.67872 0.99633 0.3852 0.0
H1058 H 0.74229 0.04723 0.41812 0.0
C1059 C 0.7166 0.05877 0.49007 0.0
C1060 C 0.6829 0.029 0.4411 0.0
C1061 C 0.71439 0.06067 0.51193 0.0
C1062 C 0.69446 0.00721 0.35489 0.0
C1063 C 0.69283 0.00976 0.37671 0.0
C1064 C 0.72557 0.04219 0.42418 0.0
C1065 C 0.69913 0.04114 0.47819 0.0
C1066 C 0.70179 0.03844 0.4548 0.0
C1067 C 0.70905 0.02936 0.38739 0.0
C1068 C 0.70663 0.03253 0.41062 0.0
H1069 H 0.66157 0.01543 0.51871 0.0
H1070 H 0.66541 0.01169 0.48094 0.0
H1071 H 0.73822 0.05189 0.45563 0.0
H1072 H 0.74224 0.05738 0.34485 0.0
H1073 H 0.73989 0.06158 0.38297 0.0
C1074 C 0.97693 0.64806 0.50949 0.0
C1075 C 0.96782 0.65805 0.52272 0.0
C1076 C 0.97848 0.65184 0.48761 0.0
C1077 C 0.95672 0.67194 0.44302 0.0
H1078 H 0.0109 0.68061 0.41473 0.0
C1079 C 0.96639 0.67741 0.35106 0.0
C1080 C 0.98785 0.6925 0.34266 0.0
C1081 C 0.96335 0.67357 0.37294 0.0
C1082 C 0.99568 0.67841 0.42231 0.0
H1083 H 0.95308 0.67974 0.52331 0.0
H1084 H 0.95553 0.68626 0.48509 0.0
H1085 H 0.00657 0.67316 0.45247 0.0
H1086 H 0.02294 0.7154 0.35066 0.0
H1087 H 0.01775 0.709 0.3887 0.0
H1088 H 0.94596 0.67741 0.41279 0.0
C1089 C 0.96134 0.6753 0.49154 0.0
C1090 C 0.99306 0.67382 0.44405 0.0
C1091 C 0.95993 0.67161 0.51348 0.0
C1092 C 0.00616 0.70381 0.35667 0.0
C1093 C 1.00318 0.69992 0.3785 0.0
C1094 C 0.95927 0.67637 0.42119 0.0
C1095 C 0.97092 0.66571 0.47823 0.0
C1096 C 0.97354 0.67052 0.45484 0.0
C1097 C 0.98176 0.68457 0.38705 0.0
C1098 C 0.97885 0.67975 0.41044 0.0
H1099 H 0.98329 0.63765 0.51615 0.0
H1100 H 0.98565 0.64385 0.47803 0.0
H1101 H 0.94136 0.66935 0.45058 0.0
H1102 H 0.95203 0.66824 0.34063 0.0
H1103 H 0.94665 0.66146 0.37874 0.0
C1104 C 0.35639 0.33888 0.51223 0.0
C1105 C 0.35798 0.3223 0.52421 0.0
C1106 C 0.35229 0.33625 0.49044 0.0
C1107 C 0.33169 0.29258 0.44702 0.0
H1108 H 0.35516 0.34577 0.4113 0.0
C1109 C 0.32543 0.28778 0.35469 0.0
C1110 C 0.32081 0.30328 0.34421 0.0
C1111 C 0.3294 0.28931 0.37659 0.0
C1112 C 0.34822 0.33069 0.42101 0.0
H1113 H 0.35705 0.29017 0.52238 0.0
H1114 H 0.35061 0.28576 0.48421 0.0
H1115 H 0.36409 0.3501 0.4487 0.0
H1116 H 0.3171 0.33274 0.34863 0.0
H1117 H 0.32399 0.33548 0.38668 0.0
H1118 H 0.31619 0.27322 0.41902 0.0
C1119 C 0.35193 0.30064 0.49171 0.0
C1120 C 0.35333 0.33316 0.44267 0.0
C1121 C 0.35588 0.30322 0.51363 0.0
C1122 C 0.3203 0.32035 0.35624 0.0
C1123 C 0.32449 0.32203 0.37807 0.0
C1124 C 0.32675 0.29011 0.42528 0.0
C1125 C 0.34987 0.31704 0.47967 0.0
C1126 C 0.34502 0.31419 0.4562 0.0
C1127 C 0.32931 0.30666 0.38863 0.0
C1128 C 0.33478 0.30913 0.41191 0.0
H1129 H 0.35792 0.35379 0.51987 0.0
H1130 H 0.35049 0.34918 0.48216 0.0
H1131 H 0.32457 0.27747 0.45668 0.0
H1132 H 0.32665 0.27485 0.34584 0.0
H1133 H 0.33334 0.27732 0.38396 0.0
C1134 C 0.98585 0.27455 0.87262 0.0
C1135 C 0.97122 0.25546 0.86048 0.0
C1136 C 0.97862 0.27923 0.89157 0.0
C1137 C 0.92827 0.26942 0.92161 0.0
H1138 H 0.96954 0.28728 0.96911 0.0
C1139 C 0.919 0.311 0.99889 0.0
C1140 C 0.92495 0.30458 0.01787 0.0
C1141 C 0.92199 0.30291 0.9795 0.0
C1142 C 0.9577 0.28216 0.95608 0.0
H1143 H 0.93713 0.22652 0.85896 0.0
H1144 H 0.92441 0.23499 0.89202 0.0
H1145 H 0.97997 0.27715 0.93593 0.0
H1146 H 0.93695 0.28318 0.03137 0.0
H1147 H 0.94218 0.26924 0.9978 0.0
H1148 H 0.90606 0.27466 0.94193 0.0
C1149 C 0.94157 0.24626 0.88672 0.0
C1150 C 0.96379 0.27655 0.93697 0.0
C1151 C 0.94889 0.24142 0.86775 0.0
C1152 C 0.93271 0.28892 1.01705 0.0
C1153 C 0.93573 0.28092 0.99778 0.0
C1154 C 0.92225 0.27529 0.94076 0.0
C1155 C 0.95644 0.26514 0.89893 0.0
C1156 C 0.94924 0.2702 0.91944 0.0
C1157 C 0.931 0.28826 0.97871 0.0
C1158 C 0.93691 0.28171 0.95825 0.0
H1159 H 1.00291 0.28625 0.86735 0.0
H1160 H 0.99038 0.29417 0.90034 0.0
H1161 H 0.91674 0.26475 0.90836 0.0
H1162 H 0.91305 0.32309 0.99895 0.0
H1163 H 0.91822 0.30895 0.9651 0.0
C1164 C 0.74176 0.62521 1.00039 0.0
C1165 C 0.72027 0.61928 1.00857 0.0
C1166 C 0.74939 0.63751 0.98149 0.0
C1167 C 0.72816 0.65277 0.93368 0.0
H1168 H 0.78967 0.70302 0.92869 0.0
C1169 C 0.75261 0.71974 0.86893 0.0
C1170 C 0.77313 0.7272 0.85804 0.0
C1171 C 0.74764 0.70637 0.887 0.0
C1172 C 0.77252 0.68887 0.92974 0.0
H1173 H 0.69043 0.6225 1.00347 0.0
H1174 H 0.70355 0.64351 0.97082 0.0
H1175 H 0.77821 0.6795 0.96051 0.0
H1176 H 0.80472 0.72666 0.85807 0.0
H1177 H 0.79593 0.7031 0.88977 0.0
H1178 H 0.72229 0.66222 0.90318 0.0
C1179 C 0.71433 0.63824 0.97863 0.0
C1180 C 0.76595 0.67536 0.94796 0.0
C1181 C 0.70676 0.62607 0.99741 0.0
C1182 C 0.78873 0.72116 0.866 0.0
C1183 C 0.78376 0.70779 0.88423 0.0
C1184 C 0.73469 0.66625 0.91558 0.0
C1185 C 0.73572 0.64413 0.97035 0.0
C1186 C 0.74354 0.65738 0.95032 0.0
C1187 C 0.76297 0.69994 0.89476 0.0
C1188 C 0.75681 0.68474 0.91351 0.0
H1189 H 0.75261 0.62024 1.00849 0.0
H1190 H 0.7659 0.64162 0.9755 0.0
H1191 H 0.71093 0.63876 0.93469 0.0
H1192 H 0.73997 0.72366 0.86315 0.0
H1193 H 0.73161 0.70093 0.89485 0.0
C1194 C 0.38478 0.07576 0.99813 0.0
C1195 C 0.39137 0.09594 1.00932 0.0
C1196 C 0.37145 0.07055 0.97999 0.0
C1197 C 0.35269 0.09527 0.93785 0.0
H1198 H 0.3067 0.03239 0.92937 0.0
C1199 C 0.29337 0.06421 0.86408 0.0
C1200 C 0.29188 0.04501 0.85428 0.0
C1201 C 0.30338 0.07101 0.88409 0.0
C1202 C 0.3195 0.05002 0.93144 0.0
H1203 H 0.38916 0.12663 1.00975 0.0
H1204 H 0.36557 0.11737 0.97809 0.0
H1205 H 0.32869 0.04358 0.96183 0.0
H1206 H 0.29872 0.01736 0.8581 0.0
H1207 H 0.31587 0.02898 0.89281 0.0
H1208 H 0.34351 0.10154 0.90722 0.0
C1209 C 0.37095 0.10566 0.98339 0.0
C1210 C 0.3322 0.05645 0.95005 0.0
C1211 C 0.38434 0.11089 1.00165 0.0
C1212 C 0.29975 0.0323 0.86521 0.0
C1213 C 0.30945 0.0389 0.88518 0.0
C1214 C 0.33989 0.08882 0.91918 0.0
C1215 C 0.36412 0.08527 0.97245 0.0
C1216 C 0.34933 0.07905 0.95334 0.0
C1217 C 0.31171 0.0585 0.8948 0.0
C1218 C 0.32348 0.06601 0.91556 0.0
H1219 H 0.38944 0.06357 1.00366 0.0
H1220 H 0.3669 0.05489 0.97184 0.0
H1221 H 0.36579 0.1128 0.93977 0.0
H1222 H 0.28755 0.07438 0.85597 0.0
H1223 H 0.30471 0.0861 0.89113 0.0
C1224 C 0.23581 0.94907 0.66693 0.0
C1225 C 0.25101 0.97072 0.67499 0.0
C1226 C 0.24124 0.94098 0.6488 0.0
C1227 C 0.29091 0.94929 0.61798 0.0
H1228 H 0.24796 0.91907 0.57271 0.0
C1229 C 0.31995 0.93652 0.5368 0.0
C1230 C 0.30624 0.9165 0.52544 0.0
C1231 C 0.31226 0.94124 0.55545 0.0
C1232 C 0.26008 0.92717 0.58534 0.0
H1233 H 0.28394 1.00066 0.67021 0.0
H1234 H 0.29316 0.98675 0.63871 0.0
H1235 H 0.236 0.93087 0.60427 0.0
H1236 H 0.27351 0.88567 0.52508 0.0
H1237 H 0.26008 0.89386 0.55785 0.0
H1238 H 0.31499 0.94569 0.59927 0.0
C1239 C 0.27708 0.97596 0.64639 0.0
C1240 C 0.25322 0.93397 0.60343 0.0
C1241 C 0.27162 0.98408 0.66434 0.0
C1242 C 0.28451 0.9013 0.53334 0.0
C1243 C 0.27679 0.90602 0.55211 0.0
C1244 C 0.29772 0.94243 0.60003 0.0
C1245 C 0.26211 0.95422 0.63849 0.0
C1246 C 0.26869 0.9455 0.61981 0.0
C1247 C 0.29058 0.92609 0.56342 0.0
C1248 C 0.28256 0.93164 0.58326 0.0
H1249 H 0.21977 0.93836 0.67468 0.0
H1250 H 0.22935 0.92413 0.64316 0.0
H1251 H 0.30314 0.95765 0.63049 0.0
H1252 H 0.33651 0.94899 0.53097 0.0
H1253 H 0.32319 0.95711 0.56336 0.0
C1254 C 0.07412 0.31825 0.683 0.0
C1255 C 0.05679 0.29545 0.68425 0.0
C1256 C 0.08193 0.32885 0.66352 0.0
C1257 C 0.08407 0.32064 0.60632 0.0
H1258 H 0.08477 0.37789 0.60268 0.0
C1259 C 0.11829 0.3821 0.53383 0.0
C1260 C 0.10427 0.39058 0.52681 0.0
C1261 C 0.11354 0.36975 0.5527 0.0
C1262 C 0.08467 0.36194 0.60341 0.0
H1263 H 0.03519 0.26548 0.6659 0.0
H1264 H 0.04912 0.28405 0.63161 0.0
H1265 H 0.07517 0.35721 0.6359 0.0
H1266 H 0.07366 0.39173 0.53416 0.0
H1267 H 0.06604 0.37112 0.56712 0.0
H1268 H 0.09355 0.32553 0.57362 0.0
C1269 C 0.05653 0.29368 0.64585 0.0
C1270 C 0.07933 0.35016 0.6225 0.0
C1271 C 0.0486 0.28303 0.66547 0.0
C1272 C 0.08536 0.38623 0.53921 0.0
C1273 C 0.08082 0.37419 0.55811 0.0
C1274 C 0.08974 0.33265 0.5872 0.0
C1275 C 0.07274 0.31693 0.6447 0.0
C1276 C 0.07888 0.32933 0.62422 0.0
C1277 C 0.09482 0.36581 0.56512 0.0
C1278 C 0.0899 0.35335 0.58551 0.0
H1279 H 0.08114 0.32819 0.69717 0.0
H1280 H 0.09478 0.34662 0.66319 0.0
H1281 H 0.08392 0.30468 0.60717 0.0
H1282 H 0.13309 0.38518 0.5249 0.0
H1283 H 0.12474 0.36364 0.55778 0.0
C1284 C 0.63275 0.69759 0.5346 0.0
C1285 C 0.62727 0.71185 0.52308 0.0
C1286 C 0.64257 0.70383 0.55457 0.0
C1287 C 0.67781 0.75352 0.58751 0.0
H1288 H 0.6603 0.70837 0.63158 0.0
C1289 C 0.72014 0.77243 0.67125 0.0
C1290 C 0.72289 0.75508 0.68031 0.0
C1291 C 0.70825 0.76878 0.65217 0.0
C1292 C 0.66561 0.72118 0.6194 0.0
H1293 H 0.62743 0.7437 0.52357 0.0
H1294 H 0.64484 0.75483 0.55875 0.0
H1295 H 0.6387 0.69874 0.59895 0.0
H1296 H 0.71676 0.72095 0.67573 0.0
H1297 H 0.69663 0.71476 0.64255 0.0
H1298 H 0.70508 0.77582 0.60792 0.0
C1299 C 0.64147 0.73876 0.55222 0.0
C1300 C 0.65312 0.71565 0.60069 0.0
C1301 C 0.63131 0.73232 0.53222 0.0
C1302 C 0.71455 0.73451 0.66937 0.0
C1303 C 0.70285 0.73091 0.65038 0.0
C1304 C 0.69043 0.75906 0.60629 0.0
C1305 C 0.6474 0.72464 0.56355 0.0
C1306 C 0.65928 0.73157 0.58432 0.0
C1307 C 0.69897 0.74773 0.64175 0.0
C1308 C 0.68478 0.74277 0.62231 0.0
H1309 H 0.62989 0.68175 0.5279 0.0
H1310 H 0.64711 0.69265 0.56269 0.0
H1311 H 0.68311 0.76615 0.57516 0.0
H1312 H 0.7263 0.78843 0.67935 0.0
H1313 H 0.70561 0.78213 0.64601 0.0
C1314 C 0.37915 0.39353 0.84705 0.0
C1315 C 0.35943 0.37742 0.85759 0.0
C1316 C 0.38166 0.392 0.82518 0.0
C1317 C 0.36108 0.35023 0.78106 0.0
H1318 H 0.38768 0.4033 0.74511 0.0
C1319 C 0.36243 0.34224 0.68964 0.0
C1320 C 0.37989 0.35972 0.67785 0.0
C1321 C 0.36061 0.3444 0.71149 0.0
C1322 C 0.38056 0.38824 0.75484 0.0
H1323 H 0.3271 0.34687 0.85329 0.0
H1324 H 0.33141 0.34411 0.81528 0.0
H1325 H 0.38309 0.40735 0.78264 0.0
H1326 H 0.40898 0.39346 0.67998 0.0
H1327 H 0.40668 0.39691 0.71809 0.0
H1328 H 0.35892 0.33111 0.75355 0.0
C1329 C 0.34495 0.35805 0.82383 0.0
C1330 C 0.37783 0.39061 0.77652 0.0
C1331 C 0.34234 0.35975 0.84562 0.0
C1332 C 0.39567 0.37939 0.68861 0.0
C1333 C 0.39402 0.38151 0.71053 0.0
C1334 C 0.36403 0.34788 0.75945 0.0
C1335 C 0.36474 0.37404 0.81323 0.0
C1336 C 0.3679 0.37163 0.79 0.0
C1337 C 0.37626 0.36417 0.72241 0.0
C1338 C 0.37371 0.36682 0.74582 0.0
H1339 H 0.39297 0.40693 0.85584 0.0
H1340 H 0.39728 0.40448 0.81777 0.0
H1341 H 0.35375 0.33521 0.79087 0.0
H1342 H 0.3497 0.32706 0.68178 0.0
H1343 H 0.3464 0.33074 0.71964 0.0
C1344 C 0.67386 0.03805 0.68954 0.0
C1345 C 0.65508 0.02802 0.6759 0.0
C1346 C 0.67118 0.03433 0.71142 0.0
C1347 C 0.62837 0.01434 0.75509 0.0
H1348 H 0.67339 0.00611 0.78511 0.0
C1349 C 0.63023 0.00917 0.84732 0.0
C1350 C 0.63658 0.99424 0.85629 0.0
C1351 C 0.63162 0.01298 0.82539 0.0
C1352 C 0.66051 0.00819 0.77705 0.0
H1353 H 0.61871 0.00624 0.6746 0.0
H1354 H 0.61386 0.99985 0.71279 0.0
H1355 H 0.67733 0.01335 0.74732 0.0
H1356 H 0.6493 0.97157 0.8492 0.0
H1357 H 0.65156 0.97793 0.8111 0.0
H1358 H 0.61145 0.00896 0.78487 0.0
C1359 C 0.63073 0.0108 0.70667 0.0
C1360 C 0.66294 0.01266 0.75527 0.0
C1361 C 0.63346 0.01442 0.68473 0.0
C1362 C 0.64415 0.98307 0.84276 0.0
C1363 C 0.64566 0.98693 0.82089 0.0
C1364 C 0.62603 0.01004 0.77694 0.0
C1365 C 0.64959 0.02048 0.72041 0.0
C1366 C 0.64691 0.0158 0.74385 0.0
C1367 C 0.6396 1.0021 0.81178 0.0
C1368 C 0.64203 0.00681 0.78833 0.0
H1369 H 0.69075 0.04847 0.6832 0.0
H1370 H 0.68613 0.04238 0.72131 0.0
H1371 H 0.61571 0.01681 0.74704 0.0
H1372 H 0.62455 0.01821 0.85734 0.0
H1373 H 0.627 0.02495 0.81917 0.0
C1374 C 0.00686 0.6322 0.84768 0.0
C1375 C 0.02396 0.65282 0.85609 0.0
C1376 C 1.00267 0.62959 0.82582 0.0
C1377 C 0.02859 0.6547 0.77346 0.0
H1378 H 0.96657 0.62191 0.75325 0.0
C1379 C 0.00789 0.63537 0.68425 0.0
C1380 C 0.99017 0.63793 0.67577 0.0
C1381 C 0.01145 0.63606 0.70614 0.0
C1382 C 0.98402 0.63122 0.75854 0.0
H1383 H 0.05003 0.68685 0.848 0.0
H1384 H 0.04309 0.6823 0.81 0.0
H1385 H 0.97419 0.62553 0.79111 0.0
H1386 H 0.96175 0.64231 0.68375 0.0
H1387 H 0.9677 0.64329 0.722 0.0
H1388 H 0.03844 0.66064 0.74096 0.0
C1389 C 0.03294 0.66798 0.82018 0.0
C1390 C 0.98843 0.6331 0.78037 0.0
C1391 C 0.03698 0.67063 0.84202 0.0
C1392 C 0.97553 0.64028 0.68981 0.0
C1393 C 0.97898 0.64081 0.71176 0.0
C1394 C 0.0242 0.65266 0.75166 0.0
C1395 C 0.01557 0.64748 0.81166 0.0
C1396 C 0.0108 0.64496 0.78824 0.0
C1397 C 0.99725 0.63909 0.72032 0.0
C1398 C 1.00183 0.64094 0.74377 0.0
H1399 H 0.99644 0.61821 0.8581 0.0
H1400 H 0.98933 0.61345 0.82001 0.0
H1401 H 0.04606 0.6638 0.77871 0.0
H1402 H 0.01935 0.63335 0.67385 0.0
H1403 H 0.02542 0.63422 0.71194 0.0
C1404 C 0.57617 0.61904 0.33399 0.0
C1405 C 0.5906 0.64091 0.34207 0.0
C1406 C 0.58137 0.61204 0.31502 0.0
C1407 C 0.61567 0.63535 0.26651 0.0
H1408 H 0.61027 0.57616 0.26073 0.0
C1409 C 0.6583 0.61683 0.19789 0.0
C1410 C 0.64617 0.59602 0.18729 0.0
C1411 C 0.6505 0.62052 0.21697 0.0
C1412 C 0.61163 0.59265 0.262 0.0
H1413 H 0.62236 0.67211 0.33667 0.0
H1414 H 0.63107 0.66012 0.3038 0.0
H1415 H 0.59784 0.58591 0.29331 0.0
H1416 H 0.61679 0.56235 0.18901 0.0
H1417 H 0.603 0.56881 0.22254 0.0
H1418 H 0.62946 0.64226 0.23542 0.0
C1419 C 0.61549 0.64849 0.31183 0.0
C1420 C 0.60449 0.59824 0.28067 0.0
C1421 C 0.6104 0.65542 0.33073 0.0
C1422 C 0.62654 0.57855 0.19681 0.0
C1423 C 0.61864 0.58228 0.216 0.0
C1424 C 0.62274 0.62979 0.24795 0.0
C1425 C 0.60105 0.62677 0.30363 0.0
C1426 C 0.60681 0.61984 0.28329 0.0
C1427 C 0.63027 0.60353 0.22606 0.0
C1428 C 0.62125 0.60855 0.24554 0.0
H1429 H 0.56075 0.6074 0.3422 0.0
H1430 H 0.5698 0.59522 0.30909 0.0
H1431 H 0.61722 0.65194 0.26775 0.0
H1432 H 0.67376 0.63049 0.19124 0.0
H1433 H 0.6603 0.63686 0.22452 0.0
C1434 C 0.44647 0.0544 0.19759 0.0
C1435 C 0.42988 0.05854 0.18885 0.0
C1436 C 0.44323 0.04438 0.21762 0.0
C1437 C 0.40998 0.03345 0.26679 0.0
H1438 H 0.41766 0.98103 0.27348 0.0
C1439 C 0.36905 0.97285 0.33617 0.0
C1440 C 0.38143 0.96436 0.34673 0.0
C1441 C 0.37663 0.9843 0.31703 0.0
C1442 C 0.41571 0.99582 0.272 0.0
H1443 H 0.39742 0.05625 0.19436 0.0
H1444 H 0.39196 0.03928 0.2292 0.0
H1445 H 0.42918 0.00274 0.24057 0.0
H1446 H 0.41103 0.96039 0.345 0.0
H1447 H 0.42452 0.98068 0.31138 0.0
H1448 H 0.39647 0.02668 0.29799 0.0
C1449 C 0.40742 0.04363 0.22076 0.0
C1450 C 0.42236 0.00829 0.25313 0.0
C1451 C 0.4105 0.05331 0.20076 0.0
C1452 C 0.4011 0.96669 0.33717 0.0
C1453 C 0.40882 0.97834 0.31794 0.0
C1454 C 0.40347 0.02112 0.28559 0.0
C1455 C 0.42354 0.0387 0.22935 0.0
C1456 C 0.4191 0.02697 0.25015 0.0
C1457 C 0.39695 0.98779 0.30789 0.0
C1458 C 0.40571 1.00179 0.28831 0.0
H1459 H 0.46145 0.0581 0.18863 0.0
H1460 H 0.45603 0.04092 0.22386 0.0
H1461 H 0.40764 0.048 0.2652 0.0
H1462 H 0.35361 0.97098 0.34296 0.0
H1463 H 0.36662 0.99066 0.30949 0.0
C1464 C 0.05446 0.40672 0.33615 0.0
C1465 C 0.06282 0.42694 0.34766 0.0
C1466 C 0.04327 0.40395 0.317 0.0
C1467 C 0.03182 0.43328 0.27347 0.0
H1468 H 0.97786 0.37434 0.26711 0.0
C1469 C 0.96871 0.40852 0.2022 0.0
C1470 C 0.96103 0.38674 0.19378 0.0
C1471 C 0.98134 0.41523 0.221 0.0
C1472 C 0.99296 0.39084 0.26851 0.0
H1473 H 0.06705 0.46064 0.34749 0.0
H1474 H 0.04728 0.4558 0.31378 0.0
H1475 H 1.00023 0.38308 0.29915 0.0
H1476 H 0.9618 0.35549 0.19825 0.0
H1477 H 0.98325 0.36696 0.23077 0.0
H1478 H 0.02437 0.44086 0.24257 0.0
C1479 C 0.04948 0.44207 0.31966 0.0
C1480 C 0.00585 0.39585 0.28691 0.0
C1481 C 0.06083 0.44488 0.33894 0.0
C1482 C 0.96665 0.37208 0.20451 0.0
C1483 C 0.97911 0.37872 0.22321 0.0
C1484 C 0.01882 0.42823 0.25494 0.0
C1485 C 0.03997 0.42129 0.30878 0.0
C1486 C 0.02572 0.41694 0.28951 0.0
C1487 C 0.98652 0.40029 0.23183 0.0
C1488 C 0.99946 0.40675 0.25208 0.0
H1489 H 0.05609 0.39272 0.34227 0.0
H1490 H 0.0368 0.38796 0.3088 0.0
H1491 H 0.04701 0.44968 0.27494 0.0
H1492 H 0.96474 0.42028 0.19442 0.0
H1493 H 0.98672 0.43195 0.22725 0.0
C1494 C 0.25431 0.88614 0.40036 0.0
C1495 C 0.27601 0.89374 0.39193 0.0
C1496 C 0.23483 0.873 0.38819 0.0
C1497 C 0.215 0.83289 0.34367 0.0
H1498 H 0.16195 0.83995 0.3456 0.0
C1499 C 0.13335 0.77429 0.2955 0.0
C1500 C 0.11231 0.76794 0.30499 0.0
C1501 C 0.15375 0.79089 0.3047 0.0
C1502 C 0.17647 0.83748 0.34505 0.0
H1503 H 0.29435 0.89364 0.36421 0.0
H1504 H 0.26037 0.87074 0.34287 0.0
H1505 H 0.19636 0.86687 0.36413 0.0
H1506 H 0.09663 0.775 0.33147 0.0
H1507 H 0.13177 0.80281 0.34775 0.0
H1508 H 0.19502 0.80315 0.32514 0.0
C1509 C 0.25836 0.875 0.35884 0.0
C1510 C 0.19628 0.85305 0.35564 0.0
C1511 C 0.27783 0.88833 0.37095 0.0
C1512 C 0.11237 0.77891 0.32381 0.0
C1513 C 0.13267 0.79531 0.33303 0.0
C1514 C 0.1951 0.81718 0.33323 0.0
C1515 C 0.23657 0.8668 0.36742 0.0
C1516 C 0.21579 0.8509 0.35523 0.0
C1517 C 0.15373 0.80163 0.32367 0.0
C1518 C 0.17542 0.81908 0.3339 0.0
H1519 H 0.25239 0.88945 0.41668 0.0
H1520 H 0.21837 0.86677 0.39542 0.0
H1521 H 0.22958 0.83051 0.34322 0.0
H1522 H 0.13413 0.76625 0.28108 0.0
H1523 H 0.16953 0.7954 0.29679 0.0
C1524 C 0.25252 0.363 0.30119 0.0
C1525 C 0.25435 0.3443 0.30792 0.0
C1526 C 0.23745 0.36847 0.31117 0.0
C1527 C 0.18708 0.34338 0.34765 0.0
H1528 H 0.19976 0.40544 0.35117 0.0
C1529 C 0.13824 0.37297 0.40238 0.0
C1530 C 0.13213 0.38825 0.39388 0.0
C1531 C 0.15174 0.3666 0.39085 0.0
C1532 C 0.19587 0.38798 0.35014 0.0
H1533 H 0.24266 0.31739 0.33104 0.0
H1534 H 0.21734 0.32738 0.34899 0.0
H1535 H 0.22686 0.39724 0.33395 0.0
H1536 H 0.13541 0.4089 0.36673 0.0
H1537 H 0.15924 0.39801 0.34662 0.0
H1538 H 0.15642 0.33436 0.36455 0.0
C1539 C 0.22666 0.33737 0.33548 0.0
C1540 C 0.21141 0.38322 0.34017 0.0
C1541 C 0.2414 0.33172 0.32529 0.0
C1542 C 0.13955 0.39678 0.37349 0.0
C1543 C 0.15338 0.39074 0.3621 0.0
C1544 C 0.17174 0.34821 0.3579 0.0
C1545 C 0.22407 0.35559 0.32839 0.0
C1546 C 0.20734 0.36082 0.3388 0.0
C1547 C 0.1599 0.3758 0.37075 0.0
C1548 C 0.17592 0.37056 0.3593 0.0
H1549 H 0.26216 0.37291 0.28774 0.0
H1550 H 0.23589 0.38245 0.30498 0.0
H1551 H 0.18284 0.32584 0.34654 0.0
H1552 H 0.13339 0.36668 0.4183 0.0
H1553 H 0.15666 0.35526 0.39807 0.0
C1554 C 0.67087 0.89997 0.29993 0.0
C1555 C 0.66803 0.91731 0.30875 0.0
C1556 C 0.66623 0.88066 0.31167 0.0
C1557 C 0.63857 0.84887 0.36149 0.0
H1558 H 0.67558 0.82134 0.35084 0.0
C1559 C 0.63494 0.77723 0.41446 0.0
C1560 C 0.63257 0.75816 0.40369 0.0
C1561 C 0.64039 0.79727 0.40353 0.0
C1562 C 0.66502 0.82876 0.35396 0.0
H1563 H 0.65783 0.92781 0.33684 0.0
H1564 H 0.65028 0.8945 0.3576 0.0
H1565 H 0.6821 0.85455 0.33074 0.0
H1566 H 0.63435 0.74522 0.37309 0.0
H1567 H 0.64473 0.78042 0.35411 0.0
H1568 H 0.6219 0.8232 0.38512 0.0
C1569 C 0.65558 0.89543 0.3414 0.0
C1570 C 0.66863 0.84779 0.3423 0.0
C1571 C 0.65992 0.91462 0.3295 0.0
C1572 C 0.63657 0.75981 0.38187 0.0
C1573 C 0.64237 0.77994 0.371 0.0
C1574 C 0.63519 0.83 0.37336 0.0
C1575 C 0.65894 0.87822 0.33277 0.0
C1576 C 0.65531 0.85808 0.34568 0.0
C1577 C 0.6439 0.7988 0.3816 0.0
C1578 C 0.64824 0.81957 0.36964 0.0
H1579 H 0.67688 0.90141 0.28391 0.0
H1580 H 0.66844 0.86767 0.3041 0.0
H1581 H 0.62767 0.85591 0.36447 0.0
H1582 H 0.63165 0.7763 0.43122 0.0
H1583 H 0.6416 0.81151 0.41222 0.0
C1584 C 0.77251 0.12888 0.23383 0.0
C1585 C 0.76555 0.10752 0.22478 0.0
C1586 C 0.78855 0.14892 0.2237 0.0
C1587 C 0.81298 0.17125 0.17095 0.0
H1588 H 0.86132 0.22093 0.20185 0.0
C1589 C 0.88269 0.24999 0.1272 0.0
C1590 C 0.89017 0.27118 0.13658 0.0
C1591 C 0.86905 0.22995 0.13851 0.0
C1592 C 0.8478 0.20737 0.19294 0.0
H1593 H 0.77123 0.09084 0.19826 0.0
H1594 H 0.79854 0.12547 0.18063 0.0
H1595 H 0.83407 0.18674 0.22059 0.0
H1596 H 0.88968 0.28824 0.16507 0.0
H1597 H 0.86568 0.25351 0.18475 0.0
H1598 H 0.82622 0.19185 0.1434 0.0
C1599 C 0.79131 0.1268 0.19537 0.0
C1600 C 0.83214 0.18771 0.20375 0.0
C1601 C 0.77548 0.10686 0.20552 0.0
C1602 C 0.88433 0.27204 0.15762 0.0
C1603 C 0.87058 0.25207 0.16888 0.0
C1604 C 0.82848 0.19094 0.16018 0.0
C1605 C 0.79799 0.14814 0.2042 0.0
C1606 C 0.81454 0.16934 0.19289 0.0
C1607 C 0.86237 0.23066 0.15942 0.0
C1608 C 0.8462 0.20934 0.17097 0.0
H1609 H 0.76523 0.13019 0.24854 0.0
H1610 H 0.79319 0.16506 0.23092 0.0
H1611 H 0.79946 0.15762 0.16208 0.0
H1612 H 0.88687 0.24895 0.11095 0.0
H1613 H 0.86351 0.21389 0.13073 0.0
C1614 C 0.77384 0.62705 0.127 0.0
C1615 C 0.75525 0.62626 0.13739 0.0
C1616 C 0.794 0.63313 0.1379 0.0
C1617 C 0.8275 0.6621 0.18527 0.0
H1618 H 0.85265 0.62245 0.17821 0.0
C1619 C 0.90232 0.67254 0.23697 0.0
C1620 C 0.91868 0.6683 0.22792 0.0
C1621 C 0.88217 0.66698 0.22627 0.0
C1622 C 0.84617 0.63397 0.18019 0.0
H1623 H 0.74338 0.63214 0.16694 0.0
H1624 H 0.77894 0.64342 0.18602 0.0
H1625 H 0.8189 0.61516 0.15853 0.0
H1626 H 0.92655 0.65468 0.20052 0.0
H1627 H 0.89176 0.64549 0.18152 0.0
H1628 H 0.85497 0.68129 0.20648 0.0
C1629 C 0.77787 0.63916 0.16948 0.0
C1630 C 0.82669 0.62971 0.1689 0.0
C1631 C 0.75755 0.63277 0.1586 0.0
C1632 C 0.91416 0.65791 0.20804 0.0
C1633 C 0.89412 0.65262 0.19716 0.0
C1634 C 0.84716 0.66656 0.19636 0.0
C1635 C 0.79616 0.63887 0.15939 0.0
C1636 C 0.81707 0.64369 0.17131 0.0
C1637 C 0.87788 0.6573 0.206 0.0
C1638 C 0.85681 0.65252 0.19408 0.0
H1639 H 0.77241 0.62205 0.11063 0.0
H1640 H 0.80783 0.63305 0.12956 0.0
H1641 H 0.82068 0.67334 0.18734 0.0
H1642 H 0.90518 0.68033 0.25237 0.0
H1643 H 0.86998 0.67035 0.23397 0.0
C1644 C 0.3401 0.23813 0.20959 0.0
C1645 C 0.35143 0.24944 0.22817 0.0
C1646 C 0.34448 0.22222 0.20006 0.0
C1647 C 0.36726 0.18365 0.2094 0.0
H1648 H 0.37386 0.18655 0.14867 0.0
C1649 C 0.39841 0.13052 0.16286 0.0
C1650 C 0.39028 0.12364 0.14228 0.0
C1651 C 0.3924 0.14432 0.17435 0.0
C1652 C 0.37167 0.18513 0.16559 0.0
H1653 H 0.37603 0.25211 0.25145 0.0
H1654 H 0.38347 0.22401 0.23486 0.0
H1655 H 0.36646 0.21363 0.16672 0.0
H1656 H 0.36931 0.1256 0.11767 0.0
H1657 H 0.35786 0.14867 0.13792 0.0
H1658 H 0.37228 0.15496 0.20823 0.0
C1659 C 0.37117 0.22764 0.22771 0.0
C1660 C 0.36752 0.20082 0.17599 0.0
C1661 C 0.36688 0.24377 0.23724 0.0
C1662 C 0.37541 0.13021 0.13367 0.0
C1663 C 0.36923 0.14383 0.14519 0.0
C1664 C 0.37125 0.16779 0.19896 0.0
C1665 C 0.3602 0.21685 0.20884 0.0
C1666 C 0.36518 0.20029 0.19802 0.0
C1667 C 0.37811 0.15163 0.16551 0.0
C1668 C 0.37345 0.16823 0.17685 0.0
H1669 H 0.32755 0.24138 0.20241 0.0
H1670 H 0.33532 0.21391 0.18582 0.0
H1671 H 0.36533 0.18258 0.22635 0.0
H1672 H 0.41029 0.12608 0.16967 0.0
H1673 H 0.39984 0.1501 0.18977 0.0
C1674 C 0.77844 0.11199 0.65782 0.0
C1675 C 0.77876 0.10059 0.63944 0.0
C1676 C 0.79858 0.12812 0.66747 0.0
C1677 C 0.85994 0.16694 0.65864 0.0
H1678 H 0.86307 0.16487 0.7195 0.0
C1679 C 0.94371 0.22037 0.70595 0.0
C1680 C 0.94231 0.22752 0.72635 0.0
C1681 C 0.92401 0.20658 0.69428 0.0
C1682 C 0.86246 0.16607 0.70253 0.0
H1683 H 0.80101 0.09797 0.61662 0.0
H1684 H 0.83627 0.12642 0.63341 0.0
H1685 H 0.82884 0.13749 0.70128 0.0
H1686 H 0.91921 0.22606 0.75044 0.0
H1687 H 0.88489 0.20298 0.72986 0.0
H1688 H 0.89358 0.19566 0.65993 0.0
C1689 C 0.82024 0.12272 0.64032 0.0
C1690 C 0.84276 0.1502 0.69204 0.0
C1691 C 0.79999 0.10638 0.63068 0.0
C1692 C 0.92083 0.22126 0.73457 0.0
C1693 C 0.90114 0.20762 0.72287 0.0
C1694 C 0.87967 0.18296 0.66917 0.0
C1695 C 0.81979 0.13362 0.65901 0.0
C1696 C 0.84116 0.15041 0.66995 0.0
C1697 C 0.90236 0.19952 0.70277 0.0
C1698 C 0.88121 0.18282 0.69132 0.0
H1699 H 0.76254 0.10865 0.66476 0.0
H1700 H 0.7975 0.1365 0.68154 0.0
H1701 H 0.85925 0.16777 0.64164 0.0
H1702 H 0.96006 0.22456 0.69945 0.0
H1703 H 0.92579 0.20056 0.67903 0.0
C1704 C 0.91823 0.69693 0.63313 0.0
C1705 C 0.92062 0.67864 0.64012 0.0
C1706 C 0.90304 0.70222 0.64314 0.0
C1707 C 0.85352 0.67737 0.68065 0.0
H1708 H 0.86509 0.73913 0.6826 0.0
C1709 C 0.80526 0.70785 0.73519 0.0
C1710 C 0.79812 0.72212 0.72615 0.0
C1711 C 0.81878 0.70144 0.72376 0.0
C1712 C 0.86152 0.72176 0.68202 0.0
H1713 H 0.90974 0.65222 0.66367 0.0
H1714 H 0.88425 0.66195 0.68169 0.0
H1715 H 0.89223 0.73103 0.66534 0.0
H1716 H 0.79967 0.74098 0.69815 0.0
H1717 H 0.82364 0.7301 0.67823 0.0
H1718 H 0.82319 0.66839 0.69812 0.0
C1719 C 0.89322 0.67174 0.66796 0.0
C1720 C 0.87708 0.71703 0.67202 0.0
C1721 C 0.90805 0.66624 0.65774 0.0
C1722 C 0.80461 0.72965 0.70535 0.0
C1723 C 0.8185 0.72361 0.69406 0.0
C1724 C 0.8382 0.68217 0.69096 0.0
C1725 C 0.89012 0.68959 0.66066 0.0
C1726 C 0.87339 0.69474 0.67118 0.0
C1727 C 0.82598 0.70964 0.70321 0.0
C1728 C 0.84199 0.70441 0.69177 0.0
H1729 H 0.92755 0.70668 0.61949 0.0
H1730 H 0.90108 0.71589 0.63674 0.0
H1731 H 0.84957 0.65989 0.67998 0.0
H1732 H 0.80113 0.70237 0.75141 0.0
H1733 H 0.82445 0.69088 0.73135 0.0
C1734 C 0.28328 0.08816 0.71274 0.0
C1735 C 0.2933 0.08847 0.73222 0.0
C1736 C 0.28937 0.10834 0.70191 0.0
C1737 C 0.33398 0.16811 0.69589 0.0
H1738 H 0.28496 0.17668 0.67569 0.0
C1739 C 0.35205 0.25403 0.66051 0.0
C1740 C 0.33819 0.25417 0.64411 0.0
C1741 C 0.34646 0.23405 0.6715 0.0
C1742 C 0.29894 0.17455 0.68086 0.0
H1743 H 0.31833 0.10997 0.75513 0.0
H1744 H 0.32955 0.14544 0.73586 0.0
H1745 H 0.27637 0.14162 0.69362 0.0
H1746 H 0.30741 0.23332 0.62653 0.0
H1747 H 0.29789 0.19822 0.64516 0.0
H1748 H 0.35663 0.20062 0.68267 0.0
C1749 C 0.31674 0.12955 0.72912 0.0
C1750 C 0.29397 0.15439 0.69127 0.0
C1751 C 0.31037 0.10931 0.74015 0.0
C1752 C 0.31834 0.23382 0.6392 0.0
C1753 C 0.31289 0.21368 0.64999 0.0
C1754 C 0.33899 0.18815 0.6852 0.0
C1755 C 0.30594 0.12935 0.71007 0.0
C1756 C 0.31141 0.1509 0.69897 0.0
C1757 C 0.32696 0.2134 0.66625 0.0
C1758 C 0.32156 0.19179 0.67755 0.0
H1759 H 0.27018 0.07227 0.70622 0.0
H1760 H 0.28098 0.1075 0.68714 0.0
H1761 H 0.34783 0.16589 0.7014 0.0
H1762 H 0.36731 0.2695 0.66491 0.0
H1763 H 0.35748 0.23491 0.68421 0.0
C1764 C 0.21859 0.91946 0.79968 0.0
C1765 C 0.22567 0.94108 0.80802 0.0
C1766 C 0.20552 0.89992 0.81179 0.0
C1767 C 0.16497 0.87954 0.85615 0.0
H1768 H 0.17269 0.82692 0.85402 0.0
C1769 C 0.10711 0.79759 0.90426 0.0
C1770 C 0.1008 0.77665 0.89461 0.0
C1771 C 0.12357 0.81808 0.89509 0.0
C1772 C 0.17005 0.84133 0.85464 0.0
H1773 H 0.22471 0.95923 0.83553 0.0
H1774 H 0.20201 0.92516 0.85681 0.0
H1775 H 0.19942 0.8615 0.83563 0.0
H1776 H 0.10778 0.76121 0.86789 0.0
H1777 H 0.13545 0.79652 0.85171 0.0
H1778 H 0.13529 0.85927 0.87468 0.0
C1779 C 0.20657 0.92324 0.84093 0.0
C1780 C 0.1855 0.86125 0.84411 0.0
C1781 C 0.2198 0.94277 0.82887 0.0
C1782 C 0.11168 0.77688 0.87568 0.0
C1783 C 0.12799 0.79728 0.8665 0.0
C1784 C 0.1494 0.85956 0.86656 0.0
C1785 C 0.19889 0.90151 0.83244 0.0
C1786 C 0.18311 0.8806 0.84458 0.0
C1787 C 0.13424 0.81825 0.87601 0.0
C1788 C 0.15154 0.84003 0.86582 0.0
H1789 H 0.22228 0.91763 0.78345 0.0
H1790 H 0.19971 0.88352 0.8046 0.0
H1791 H 0.16237 0.89398 0.85665 0.0
H1792 H 0.09913 0.79823 0.91877 0.0
H1793 H 0.12804 0.83379 0.90309 0.0
C1794 C 0.09298 0.30162 0.82141 0.0
C1795 C 0.09064 0.2967 0.79976 0.0
C1796 C 0.11338 0.30769 0.83188 0.0
C1797 C 0.16288 0.29972 0.82944 0.0
H1798 H 0.18927 0.3488 0.86986 0.0
C1799 C 0.24848 0.3256 0.87185 0.0
C1800 C 0.25175 0.3346 0.89229 0.0
C1801 C 0.22906 0.32097 0.86019 0.0
C1802 C 0.182 0.33475 0.85892 0.0
H1803 H 0.10777 0.29423 0.77212 0.0
H1804 H 0.14348 0.30464 0.79044 0.0
H1805 H 0.15559 0.34171 0.85019 0.0
H1806 H 0.23669 0.34479 0.91686 0.0
H1807 H 0.20255 0.33588 0.89708 0.0
H1808 H 0.18874 0.2922 0.83854 0.0
C1809 C 0.12958 0.304 0.79928 0.0
C1810 C 0.16271 0.33081 0.84751 0.0
C1811 C 0.10926 0.29828 0.78874 0.0
C1812 C 0.23478 0.33809 0.90106 0.0
C1813 C 0.21526 0.33316 0.88957 0.0
C1814 C 0.18201 0.30344 0.84107 0.0
C1815 C 0.13181 0.30853 0.82105 0.0
C1816 C 0.15286 0.31323 0.83264 0.0
C1817 C 0.21223 0.32495 0.86876 0.0
C1818 C 0.19187 0.32098 0.85609 0.0
H1819 H 0.07871 0.29997 0.83041 0.0
H1820 H 0.11441 0.31082 0.84868 0.0
H1821 H 0.15555 0.28583 0.8183 0.0
H1822 H 0.26137 0.32298 0.86457 0.0
H1823 H 0.22765 0.31494 0.8442 0.0
C1824 C 0.73131 0.80216 0.82221 0.0
C1825 C 0.72417 0.79626 0.80126 0.0
C1826 C 0.72523 0.81586 0.83369 0.0
C1827 C 0.70569 0.85772 0.82572 0.0
H1828 H 0.69667 0.85179 0.88618 0.0
C1829 C 0.67417 0.90971 0.87187 0.0
C1830 C 0.68498 0.91972 0.89105 0.0
C1831 C 0.67843 0.89408 0.86156 0.0
C1832 C 0.69935 0.85381 0.86933 0.0
H1833 H 0.70463 0.79942 0.776 0.0
H1834 H 0.69322 0.82276 0.79616 0.0
H1835 H 0.70366 0.82479 0.86708 0.0
H1836 H 0.70849 0.92037 0.91454 0.0
H1837 H 0.71567 0.89273 0.89663 0.0
H1838 H 0.70111 0.88658 0.82797 0.0
C1839 C 0.70396 0.81728 0.8037 0.0
C1840 C 0.70338 0.8383 0.85832 0.0
C1841 C 0.71021 0.80367 0.79218 0.0
C1842 C 0.69975 0.91303 0.89989 0.0
C1843 C 0.70389 0.89717 0.8896 0.0
C1844 C 0.70148 0.87308 0.83669 0.0
C1845 C 0.71174 0.82397 0.82452 0.0
C1846 C 0.70666 0.84003 0.83631 0.0
C1847 C 0.69346 0.88768 0.87016 0.0
C1848 C 0.69826 0.87137 0.85865 0.0
H1849 H 0.74233 0.79683 0.82944 0.0
H1850 H 0.73187 0.82079 0.84949 0.0
H1851 H 0.70863 0.86006 0.80892 0.0
H1852 H 0.66213 0.91375 0.8648 0.0
H1853 H 0.6697 0.88678 0.84689 0.0
C1854 C 0.44017 0.46555 0.57016 0.0
C1855 C 0.43363 0.44431 0.56101 0.0
C1856 C 0.45664 0.48575 0.56054 0.0
C1857 C 0.48358 0.50866 0.50862 0.0
H1858 H 0.53008 0.55842 0.54099 0.0
C1859 C 0.55512 0.58696 0.46654 0.0
C1860 C 0.56193 0.60835 0.47528 0.0
C1861 C 0.54129 0.5671 0.47796 0.0
C1862 C 0.5171 0.54481 0.53167 0.0
H1863 H 0.44046 0.42803 0.5349 0.0
H1864 H 0.46855 0.4629 0.51818 0.0
H1865 H 0.50196 0.52405 0.55901 0.0
H1866 H 0.55973 0.62572 0.50284 0.0
H1867 H 0.53545 0.59119 0.52277 0.0
H1868 H 0.49824 0.52935 0.48136 0.0
C1869 C 0.46066 0.46404 0.53256 0.0
C1870 C 0.50093 0.52505 0.54206 0.0
C1871 C 0.44438 0.44395 0.54219 0.0
C1872 C 0.55513 0.60945 0.49591 0.0
C1873 C 0.54116 0.58959 0.50731 0.0
C1874 C 0.49961 0.5284 0.49827 0.0
C1875 C 0.46696 0.48526 0.54148 0.0
C1876 C 0.48399 0.50664 0.53066 0.0
C1877 C 0.53356 0.56806 0.49832 0.0
C1878 C 0.51672 0.5468 0.50958 0.0
H1879 H 0.43227 0.46664 0.58455 0.0
H1880 H 0.46092 0.50177 0.56781 0.0
H1881 H 0.47058 0.49505 0.4993 0.0
H1882 H 0.55965 0.58557 0.45049 0.0
H1883 H 0.53624 0.55095 0.47056 0.0
C1884 C 0.5886 0.01984 0.53967 0.0
C1885 C 0.58862 0.00624 0.55637 0.0
C1886 C 0.56862 0.01427 0.52869 0.0
C1887 C 0.509 0.96713 0.51967 0.0
H1888 H 0.50068 0.01613 0.49889 0.0
C1889 C 0.42289 0.95165 0.48714 0.0
C1890 C 0.42338 0.96192 0.46778 0.0
C1891 C 0.44297 0.95764 0.49811 0.0
C1892 C 0.5028 1.00225 0.50445 0.0
H1893 H 0.56756 0.97591 0.57445 0.0
H1894 H 0.53247 0.9664 0.55574 0.0
H1895 H 0.53536 0.0248 0.51767 0.0
H1896 H 0.44506 0.98721 0.44515 0.0
H1897 H 0.48037 0.99823 0.46462 0.0
H1898 H 0.47607 0.94465 0.50684 0.0
C1899 C 0.54802 0.98119 0.55074 0.0
C1900 C 0.5228 0.00718 0.51518 0.0
C1901 C 0.56815 0.98664 0.56156 0.0
C1902 C 0.44427 0.9791 0.46006 0.0
C1903 C 0.46442 0.98534 0.47121 0.0
C1904 C 0.48888 0.96223 0.50918 0.0
C1905 C 0.54788 0.99505 0.53421 0.0
C1906 C 0.52631 0.98971 0.52291 0.0
C1907 C 0.46406 0.97433 0.49017 0.0
C1908 C 0.48553 0.97971 0.50139 0.0
H1909 H 0.60415 0.03488 0.53504 0.0
H1910 H 0.56954 0.02509 0.51576 0.0
H1911 H 0.51105 0.95313 0.52493 0.0
H1912 H 0.40694 0.93843 0.49346 0.0
H1913 H 0.44201 0.94909 0.5128 0.0
C1914 C 0.0681 0.47025 0.49065 0.0
C1915 C 0.06059 0.46419 0.4698 0.0
C1916 C 0.0621 0.48392 0.50227 0.0
C1917 C 0.02128 0.50489 0.50515 0.0
H1918 H 0.06942 0.55493 0.53601 0.0
C1919 C 0.00945 0.57694 0.53944 0.0
C1920 C 0.02042 0.58761 0.55837 0.0
C1921 C 0.01379 0.56114 0.52959 0.0
C1922 C 0.05562 0.54086 0.52781 0.0
H1923 H 0.04046 0.46703 0.4449 0.0
H1924 H 0.02954 0.49072 0.46532 0.0
H1925 H 0.07731 0.52842 0.5173 0.0
H1926 H 0.04446 0.58935 0.58181 0.0
H1927 H 0.05149 0.56121 0.565 0.0
H1928 H 0.99949 0.51708 0.5158 0.0
C1929 C 0.04008 0.4849 0.47272 0.0
C1930 C 0.0602 0.52565 0.51699 0.0
C1931 C 0.04628 0.47135 0.46101 0.0
C1932 C 0.0356 0.58154 0.56733 0.0
C1933 C 0.03984 0.56554 0.5575 0.0
C1934 C 0.01664 0.51998 0.51613 0.0
C1935 C 0.04828 0.49174 0.49338 0.0
C1936 C 0.04313 0.50754 0.50538 0.0
C1937 C 0.02905 0.55513 0.5384 0.0
C1938 C 0.03379 0.53836 0.52749 0.0
H1939 H 0.07922 0.46496 0.49772 0.0
H1940 H 0.06845 0.48854 0.5182 0.0
H1941 H 0.00765 0.49098 0.49664 0.0
H1942 H 0.99723 0.58063 0.53219 0.0
H1943 H 0.00532 0.55388 0.51481 0.0
C1944 C 0.44104 0.4409 0.9953 0.0
C1945 C 0.44188 0.43075 0.97625 0.0
C1946 C 0.46089 0.45662 1.00562 0.0
C1947 C 0.522 0.49685 0.99803 0.0
H1948 H 0.52505 0.4908 0.05851 0.0
C1949 C 0.60558 0.54831 0.04539 0.0
C1950 C 0.60438 0.55422 0.06632 0.0
C1951 C 0.58579 0.53473 0.03384 0.0
C1952 C 0.52444 0.49309 0.04169 0.0
H1953 H 0.46476 0.42996 0.95298 0.0
H1954 H 0.49951 0.45776 0.97091 0.0
H1955 H 0.49103 0.46425 0.0394 0.0
H1956 H 0.58175 0.55121 0.09148 0.0
H1957 H 0.547 0.52811 0.07118 0.0
H1958 H 0.55531 0.52585 1.00032 0.0
C1959 C 0.48329 0.45335 0.97784 0.0
C1960 C 0.50489 0.47771 0.03068 0.0
C1961 C 0.46333 0.4374 0.96753 0.0
C1962 C 0.58305 0.54697 0.07531 0.0
C1963 C 0.56319 0.53349 0.06371 0.0
C1964 C 0.54153 0.51238 1.00908 0.0
C1965 C 0.48231 0.46296 0.99716 0.0
C1966 C 0.50338 0.47934 1.0087 0.0
C1967 C 0.56423 0.52675 0.04292 0.0
C1968 C 0.54309 0.51072 0.0311 0.0
H1969 H 0.42495 0.43688 1.00227 0.0
H1970 H 0.45943 0.46401 0.02021 0.0
H1971 H 0.52134 0.49879 0.98116 0.0
H1972 H 0.62189 0.55349 0.03824 0.0
H1973 H 0.58746 0.52975 0.01806 0.0
C1974 C 0.59564 0.02327 0.99552 0.0
C1975 C 0.5897 0.01433 0.97507 0.0
C1976 C 0.58098 0.02786 1.00737 0.0
C1977 C 0.52023 0.01444 1.00907 0.0
H1978 H 0.54337 0.063 0.05009 0.0
C1979 C 0.46539 0.04811 0.0478 0.0
C1980 C 0.46817 0.05267 0.06952 0.0
C1981 C 0.47945 0.04194 0.03703 0.0
C1982 C 0.53663 0.04921 0.03884 0.0
H1983 H 0.56416 0.00414 0.95071 0.0
H1984 H 0.53915 0.01302 0.97079 0.0
H1985 H 0.56981 0.05655 0.02945 0.0
H1986 H 0.48779 0.05433 0.09697 0.0
H1987 H 0.51265 0.04379 0.0781 0.0
H1988 H 0.48705 0.00771 0.01807 0.0
C1989 C 0.55465 0.01571 0.97818 0.0
C1990 C 0.55182 0.04543 0.02698 0.0
C1991 C 0.56912 0.01081 0.9665 0.0
C1992 C 0.4851 0.05059 0.0803 0.0
C1993 C 0.49944 0.04479 0.06945 0.0
C1994 C 0.50509 0.01845 0.0207 0.0
C1995 C 0.56009 0.02393 0.99897 0.0
C1996 C 0.5439 0.028 1.01183 0.0
C1997 C 0.49696 0.04065 0.04762 0.0
C1998 C 0.51308 0.03589 0.03573 0.0
H1999 H 0.61124 0.02591 1.00266 0.0
H2000 H 0.5858 0.03386 0.02335 0.0
H2001 H 0.51326 1.00047 0.99803 0.0
H2002 H 0.45285 0.05013 0.03901 0.0
H2003 H 0.47722 0.0391 0.0202 0.0
C2004 C 0.99283 0.57925 0.99235 0.0
C2005 C 1.00215 0.58316 0.97201 0.0
C2006 C 0.98801 0.55948 1.00349 0.0
C2007 C 1.00136 0.51202 1.00358 0.0
H2008 H 0.9525 0.48557 0.04424 0.0
C2009 C 0.96857 0.42324 0.04297 0.0
C2010 C 0.96344 0.42162 0.06452 0.0
C2011 C 0.97469 0.44335 0.03182 0.0
C2012 C 0.96635 0.49286 0.03306 0.0
H2013 H 0.01275 0.56885 0.94708 0.0
H2014 H 1.00353 0.53413 0.96595 0.0
H2015 H 0.95896 0.51884 0.02423 0.0
H2016 H 0.96139 0.43981 0.09152 0.0
H2017 H 0.97189 0.47486 0.07213 0.0
H2018 H 0.0082 0.48545 1.01213 0.0
C2019 C 1.00068 0.54659 0.9738 0.0
C2020 C 0.97015 0.51208 0.02158 0.0
C2021 C 0.00579 0.56647 0.96282 0.0
C2022 C 0.96536 0.44071 0.0749 0.0
C2023 C 0.97114 0.46066 0.06375 0.0
C2024 C 0.99733 0.49259 1.01487 0.0
C2025 C 0.99208 0.54289 0.99449 0.0
C2026 C 0.98778 0.52208 1.00666 0.0
C2027 C 0.97547 0.46213 0.04198 0.0
C2028 C 0.97985 0.48282 0.02984 0.0
H2029 H 0.9901 0.5919 0.99999 0.0
H2030 H 0.98174 0.55762 0.01944 0.0
H2031 H 0.01543 0.51931 0.99265 0.0
H2032 H 0.96702 0.40868 0.0346 0.0
H2033 H 0.97785 0.44387 1.01507 0.0
loop_
_geom_bond_atom_site_label_1
_geom_bond_atom_site_label_2
_geom_bond_distance
_geom_bond_site_symmetry_2
_ccdc_geom_bond_type
C0 C1 1.443 1_655 S
C0 N4 1.376 1_655 S
C0 C38 1.389 . S
C1 C0 1.443 1_455 S
C1 C2 1.340 . S
C1 H41 0.951 1_455 S
C2 C1 1.340 . S
C2 C3 1.439 . S
C2 H42 0.950 . S
C3 C2 1.439 . S
C3 N4 1.374 . S
C3 C37 1.395 . S
N4 C0 1.376 1_455 S
N4 C3 1.374 . S
N4 Co5 2.008 . S
Co5 N4 2.008 . S
Co5 N6 1.995 . S
Co5 N11 2.008 . S
Co5 N16 2.002 1_455 S
Co5 N21 2.282 1_455 S
Co5 N27 2.282 . S
N6 Co5 1.995 . S
N6 C7 1.376 . S
N6 C10 1.383 . S
C7 N6 1.376 . S
C7 C8 1.446 . S
C7 C37 1.391 . S
C8 C7 1.446 . S
C8 C9 1.339 . S
C8 H43 0.949 . S
C9 C8 1.339 . S
C9 C10 1.439 . S
C9 H44 0.950 . S
C10 N6 1.383 . S
C10 C9 1.439 . S
C10 C39 1.392 . S
N11 Co5 2.008 . S
N11 C12 1.376 . S
N11 C15 1.374 . S
C12 N11 1.376 . S
C12 C13 1.443 . S
C12 C39 1.389 . S
C13 C12 1.443 . S
C13 C14 1.340 . S
C13 H45 0.951 . S
C14 C13 1.340 . S
C14 C15 1.439 . S
C14 H46 0.950 . S
C15 N11 1.374 . S
C15 C14 1.439 . S
C15 C40 1.395 . S
N16 Co5 2.002 1_655 S
N16 C17 1.357 . S
N16 C20 1.392 . S
C17 N16 1.357 . S
C17 C18 1.446 . S
C17 C40 1.391 1_655 S
C18 C17 1.446 . S
C18 C19 1.339 . S
C18 H47 0.949 . S
C19 C18 1.339 . S
C19 C20 1.439 . S
C19 H48 0.950 . S
C20 N16 1.392 . S
C20 C19 1.439 . S
C20 C38 1.392 . S
N21 Co5 2.282 1_655 S
N21 C24 1.332 . S
N21 C26 1.332 . S
C22 C23 1.386 . S
C22 C25 1.388 . S
C23 C22 1.386 . S
C23 C24 1.382 . S
C23 H49 0.950 . S
C24 N21 1.332 . S
C24 C23 1.382 . S
C24 H35 0.952 . S
C25 C22 1.388 . S
C25 C26 1.382 . S
C25 H50 0.950 . S
C26 N21 1.332 . S
C26 C25 1.382 . S
C26 H36 0.948 . S
N27 Co5 2.282 . S
N27 C31 1.332 . S
N27 C32 1.332 . S
C28 C29 1.388 . S
C28 C32 1.382 . S
C28 H51 0.950 . S
C29 C28 1.388 . S
C29 C30 1.386 . S
C30 C29 1.386 . S
C30 C31 1.382 . S
C30 H52 0.950 . S
C31 N27 1.332 . S
C31 C30 1.382 . S
C31 H33 0.952 . S
C32 N27 1.332 . S
C32 C28 1.382 . S
C32 H34 0.948 . S
H33 C31 0.952 . S
H34 C32 0.948 . S
H35 C24 0.952 . S
H36 C26 0.948 . S
C37 C3 1.395 . S
C37 C7 1.391 . S
C38 C0 1.389 . S
C38 C20 1.392 . S
C39 C10 1.392 . S
C39 C12 1.389 . S
C40 C15 1.395 . S
C40 C17 1.391 1_455 S
H41 C1 0.951 1_655 S
H42 C2 0.950 . S
H43 C8 0.949 . S
H44 C9 0.950 . S
H45 C13 0.951 . S
H46 C14 0.950 . S
H47 C18 0.949 . S
H48 C19 0.950 . S
H49 C23 0.950 . S
H50 C25 0.950 . S
H51 C28 0.950 . S
H52 C30 0.950 . S
C53 C54 1.443 . S
C53 N57 1.376 . S
C53 C91 1.389 . S
C54 C53 1.443 . S
C54 C55 1.340 . S
C54 H94 0.951 . S
C55 C54 1.340 . S
C55 C56 1.439 . S
C55 H95 0.950 . S
C56 C55 1.439 . S
C56 N57 1.374 . S
C56 C90 1.395 . S
N57 C53 1.376 . S
N57 C56 1.374 . S
N57 Co58 2.008 . S
Co58 N57 2.008 . S
Co58 N59 1.995 . S
Co58 N64 2.008 . S
Co58 N69 1.995 . S
Co58 N74 2.282 . S
Co58 N80 2.282 . S
N59 Co58 1.995 . S
N59 C60 1.376 . S
N59 C63 1.383 . S
C60 N59 1.376 . S
C60 C61 1.446 . S
C60 C90 1.391 . S
C61 C60 1.446 . S
C61 C62 1.339 . S
C61 H96 0.949 . S
C62 C61 1.339 . S
C62 C63 1.439 . S
C62 H97 0.950 . S
C63 N59 1.383 . S
C63 C62 1.439 . S
C63 C92 1.392 . S
N64 Co58 2.008 . S
N64 C65 1.376 . S
N64 C68 1.374 . S
C65 N64 1.376 . S
C65 C66 1.443 . S
C65 C92 1.389 . S
C66 C65 1.443 . S
C66 C67 1.340 . S
C66 H98 0.951 . S
C67 C66 1.340 . S
C67 C68 1.439 . S
C67 H99 0.950 . S
C68 N64 1.374 . S
C68 C67 1.439 . S
C68 C93 1.395 . S
N69 Co58 1.995 . S
N69 C70 1.376 . S
N69 C73 1.383 . S
C70 N69 1.376 . S
C70 C71 1.446 . S
C70 C93 1.391 . S
C71 C70 1.446 . S
C71 C72 1.339 . S
C71 H100 0.949 . S
C72 C71 1.339 . S
C72 C73 1.439 . S
C72 H101 0.950 . S
C73 N69 1.383 . S
C73 C72 1.439 . S
C73 C91 1.392 . S
N74 Co58 2.282 . S
N74 C77 1.332 . S
N74 C79 1.332 . S
C75 C76 1.386 . S
C75 C78 1.388 . S
C76 C75 1.386 . S
C76 C77 1.382 . S
C76 H102 0.950 . S
C77 N74 1.332 . S
C77 C76 1.382 . S
C77 H88 0.952 . S
C78 C75 1.388 . S
C78 C79 1.382 . S
C78 H103 0.950 . S
C79 N74 1.332 . S
C79 C78 1.382 . S
C79 H89 0.948 . S
N80 Co58 2.282 . S
N80 C84 1.332 . S
N80 C85 1.332 . S
C81 C82 1.388 . S
C81 C85 1.382 . S
C81 H104 0.950 . S
C82 C81 1.388 . S
C82 C83 1.386 . S
C83 C82 1.386 . S
C83 C84 1.382 . S
C83 H105 0.950 . S
C84 N80 1.332 . S
C84 C83 1.382 . S
C84 H86 0.952 . S
C85 N80 1.332 . S
C85 C81 1.382 . S
C85 H87 0.948 . S
H86 C84 0.952 . S
H87 C85 0.948 . S
H88 C77 0.952 . S
H89 C79 0.948 . S
C90 C56 1.395 . S
C90 C60 1.391 . S
C91 C53 1.389 . S
C91 C73 1.392 . S
C92 C63 1.392 . S
C92 C65 1.389 . S
C93 C68 1.395 . S
C93 C70 1.391 . S
H94 C54 0.951 . S
H95 C55 0.950 . S
H96 C61 0.949 . S
H97 C62 0.950 . S
H98 C66 0.951 . S
H99 C67 0.950 . S
H100 C71 0.949 . S
H101 C72 0.950 . S
H102 C76 0.950 . S
H103 C78 0.950 . S
H104 C81 0.950 . S
H105 C83 0.950 . S
C106 C107 1.443 1_565 S
C106 N110 1.376 1_565 S
C106 C144 1.389 . S
C107 C106 1.443 1_545 S
C107 C108 1.340 . S
C107 H147 0.951 1_545 S
C108 C107 1.340 . S
C108 C109 1.439 . S
C108 H148 0.950 . S
C109 C108 1.439 . S
C109 N110 1.374 . S
C109 C143 1.395 . S
N110 C106 1.376 1_545 S
N110 C109 1.374 . S
N110 Co111 2.008 . S
Co111 N110 2.008 . S
Co111 N112 1.995 . S
Co111 N117 2.008 . S
Co111 N122 2.002 1_545 S
Co111 N127 2.282 1_545 S
Co111 N133 2.282 . S
N112 Co111 1.995 . S
N112 C113 1.376 . S
N112 C116 1.383 . S
C113 N112 1.376 . S
C113 C114 1.446 . S
C113 C143 1.391 . S
C114 C113 1.446 . S
C114 C115 1.339 . S
C114 H149 0.949 . S
C115 C114 1.339 . S
C115 C116 1.439 . S
C115 H150 0.950 . S
C116 N112 1.383 . S
C116 C115 1.439 . S
C116 C145 1.392 . S
N117 Co111 2.008 . S
N117 C118 1.376 . S
N117 C121 1.374 . S
C118 N117 1.376 . S
C118 C119 1.443 . S
C118 C145 1.389 . S
C119 C118 1.443 . S
C119 C120 1.340 . S
C119 H151 0.951 . S
C120 C119 1.340 . S
C120 C121 1.439 . S
C120 H152 0.950 . S
C121 N117 1.374 . S
C121 C120 1.439 . S
C121 C146 1.395 . S
N122 Co111 2.002 1_565 S
N122 C123 1.357 . S
N122 C126 1.392 . S
C123 N122 1.357 . S
C123 C124 1.446 . S
C123 C146 1.391 1_565 S
C124 C123 1.446 . S
C124 C125 1.339 . S
C124 H153 0.949 . S
C125 C124 1.339 . S
C125 C126 1.439 . S
C125 H154 0.950 . S
C126 N122 1.392 . S
C126 C125 1.439 . S
C126 C144 1.392 . S
N127 Co111 2.282 1_565 S
N127 C130 1.332 . S
N127 C132 1.332 . S
C128 C129 1.386 . S
C128 C131 1.388 . S
C129 C128 1.386 . S
C129 C130 1.382 . S
C129 H155 0.950 . S
C130 N127 1.332 . S
C130 C129 1.382 . S
C130 H141 0.952 . S
C131 C128 1.388 . S
C131 C132 1.382 . S
C131 H156 0.950 . S
C132 N127 1.332 . S
C132 C131 1.382 . S
C132 H142 0.948 . S
N133 Co111 2.282 . S
N133 C137 1.332 . S
N133 C138 1.332 . S
C134 C135 1.388 . S
C134 C138 1.382 . S
C134 H157 0.950 . S
C135 C134 1.388 . S
C135 C136 1.386 . S
C136 C135 1.386 . S
C136 C137 1.382 . S
C136 H158 0.950 . S
C137 N133 1.332 . S
C137 C136 1.382 . S
C137 H139 0.952 . S
C138 N133 1.332 . S
C138 C134 1.382 . S
C138 H140 0.948 . S
H139 C137 0.952 . S
H140 C138 0.948 . S
H141 C130 0.952 . S
H142 C132 0.948 . S
C143 C109 1.395 . S
C143 C113 1.391 . S
C144 C106 1.389 . S
C144 C126 1.392 . S
C145 C116 1.392 . S
C145 C118 1.389 . S
C146 C121 1.395 . S
C146 C123 1.391 1_545 S
H147 C107 0.951 1_565 S
H148 C108 0.950 . S
H149 C114 0.949 . S
H150 C115 0.950 . S
H151 C119 0.951 . S
H152 C120 0.950 . S
H153 C124 0.949 . S
H154 C125 0.950 . S
H155 C129 0.950 . S
H156 C131 0.950 . S
H157 C134 0.950 . S
H158 C136 0.950 . S
C159 C160 1.443 . S
C159 N163 1.376 . S
C159 C197 1.389 . S
C160 C159 1.443 . S
C160 C161 1.340 . S
C160 H200 0.951 . S
C161 C160 1.340 . S
C161 C162 1.439 . S
C161 H201 0.950 . S
C162 C161 1.439 . S
C162 N163 1.374 . S
C162 C196 1.395 1_655 S
N163 C159 1.376 . S
N163 C162 1.374 . S
N163 Co164 2.008 1_655 S
Co164 N163 2.008 1_455 S
Co164 N165 1.995 . S
Co164 N170 2.008 . S
Co164 N175 1.995 1_455 S
Co164 N180 2.282 1_455 S
Co164 N186 2.282 . S
N165 Co164 1.995 . S
N165 C166 1.376 . S
N165 C169 1.383 . S
C166 N165 1.376 . S
C166 C167 1.446 . S
C166 C196 1.391 . S
C167 C166 1.446 . S
C167 C168 1.339 . S
C167 H202 0.949 . S
C168 C167 1.339 . S
C168 C169 1.439 . S
C168 H203 0.950 . S
C169 N165 1.383 . S
C169 C168 1.439 . S
C169 C198 1.392 . S
N170 Co164 2.008 . S
N170 C171 1.376 . S
N170 C174 1.374 . S
C171 N170 1.376 . S
C171 C172 1.443 . S
C171 C198 1.389 . S
C172 C171 1.443 . S
C172 C173 1.340 . S
C172 H204 0.951 . S
C173 C172 1.340 . S
C173 C174 1.439 . S
C173 H205 0.950 . S
C174 N170 1.374 . S
C174 C173 1.439 . S
C174 C199 1.395 . S
N175 Co164 1.995 1_655 S
N175 C176 1.376 . S
N175 C179 1.383 . S
C176 N175 1.376 . S
C176 C177 1.446 . S
C176 C199 1.391 1_655 S
C177 C176 1.446 . S
C177 C178 1.339 . S
C177 H206 0.949 . S
C178 C177 1.339 . S
C178 C179 1.439 . S
C178 H207 0.950 . S
C179 N175 1.383 . S
C179 C178 1.439 . S
C179 C197 1.392 . S
N180 Co164 2.282 1_655 S
N180 C183 1.332 . S
N180 C185 1.363 . S
C181 C182 1.386 . S
C181 C184 1.388 . S
C182 C181 1.386 . S
C182 C183 1.382 . S
C182 H208 0.950 . S
C183 N180 1.332 . S
C183 C182 1.382 . S
C183 H194 0.952 . S
C184 C181 1.388 . S
C184 C185 1.389 . S
C184 H209 0.984 . S
C185 N180 1.363 . S
C185 C184 1.389 . S
C185 H195 0.911 1_655 S
N186 Co164 2.282 . S
N186 C190 1.332 . S
N186 C191 1.332 . S
C187 C188 1.388 . S
C187 C191 1.382 . S
C187 H210 0.950 . S
C188 C187 1.388 . S
C188 C189 1.386 . S
C189 C188 1.386 . S
C189 C190 1.382 . S
C189 H211 0.950 . S
C190 N186 1.332 . S
C190 C189 1.382 . S
C190 H192 0.952 . S
C191 N186 1.332 . S
C191 C187 1.382 . S
C191 H193 0.948 . S
H192 C190 0.952 . S
H193 C191 0.948 . S
H194 C183 0.952 . S
H195 C185 0.911 1_455 S
C196 C162 1.395 1_455 S
C196 C166 1.391 . S
C197 C159 1.389 . S
C197 C179 1.392 . S
C198 C169 1.392 . S
C198 C171 1.389 . S
C199 C174 1.395 . S
C199 C176 1.391 1_455 S
H200 C160 0.951 . S
H201 C161 0.950 . S
H202 C167 0.949 . S
H203 C168 0.950 . S
H204 C172 0.951 . S
H205 C173 0.950 . S
H206 C177 0.949 . S
H207 C178 0.950 . S
H208 C182 0.950 . S
H209 C184 0.984 . S
H210 C187 0.950 . S
H211 C189 0.950 . S
C212 C213 1.443 . S
C212 N216 1.376 . S
C212 C250 1.389 . S
C213 C212 1.443 . S
C213 C214 1.340 . S
C213 H253 0.951 . S
C214 C213 1.340 . S
C214 C215 1.439 . S
C214 H254 0.950 . S
C215 C214 1.439 . S
C215 N216 1.374 . S
C215 C249 1.395 . S
N216 C212 1.376 . S
N216 C215 1.374 . S
N216 Co217 2.008 . S
Co217 N216 2.008 . S
Co217 N218 1.995 . S
Co217 N223 2.008 . S
Co217 N228 1.995 . S
Co217 N233 2.282 . S
Co217 N239 2.282 . S
N218 Co217 1.995 . S
N218 C219 1.376 . S
N218 C222 1.383 . S
C219 N218 1.376 . S
C219 C220 1.446 . S
C219 C249 1.391 . S
C220 C219 1.446 . S
C220 C221 1.339 . S
C220 H255 0.949 . S
C221 C220 1.339 . S
C221 C222 1.439 . S
C221 H256 0.950 . S
C222 N218 1.383 . S
C222 C221 1.439 . S
C222 C251 1.392 . S
N223 Co217 2.008 . S
N223 C224 1.376 . S
N223 C227 1.374 . S
C224 N223 1.376 . S
C224 C225 1.443 . S
C224 C251 1.389 . S
C225 C224 1.443 . S
C225 C226 1.340 . S
C225 H257 0.951 . S
C226 C225 1.340 . S
C226 C227 1.439 . S
C226 H258 0.950 . S
C227 N223 1.374 . S
C227 C226 1.439 . S
C227 C252 1.395 . S
N228 Co217 1.995 . S
N228 C229 1.376 . S
N228 C232 1.383 . S
C229 N228 1.376 . S
C229 C230 1.446 . S
C229 C252 1.391 . S
C230 C229 1.446 . S
C230 C231 1.339 . S
C230 H259 0.949 . S
C231 C230 1.339 . S
C231 C232 1.439 . S
C231 H260 0.950 . S
C232 N228 1.383 . S
C232 C231 1.439 . S
C232 C250 1.392 . S
N233 Co217 2.282 . S
N233 C236 1.332 . S
N233 C238 1.332 . S
C234 C235 1.386 . S
C234 C237 1.388 . S
C235 C234 1.386 . S
C235 C236 1.382 . S
C235 H261 0.950 . S
C236 N233 1.332 . S
C236 C235 1.382 . S
C236 H247 0.952 . S
C237 C234 1.388 . S
C237 C238 1.382 . S
C237 H262 0.950 . S
C238 N233 1.332 . S
C238 C237 1.382 . S
C238 H248 0.948 . S
N239 Co217 2.282 . S
N239 C243 1.332 . S
N239 C244 1.332 . S
C240 C241 1.388 . S
C240 C244 1.382 . S
C240 H263 0.950 . S
C241 C240 1.388 . S
C241 C242 1.386 . S
C242 C241 1.386 . S
C242 C243 1.382 . S
C242 H264 0.950 . S
C243 N239 1.332 . S
C243 C242 1.382 . S
C243 H245 0.952 . S
C244 N239 1.332 . S
C244 C240 1.382 . S
C244 H246 0.948 . S
H245 C243 0.952 . S
H246 C244 0.948 . S
H247 C236 0.952 . S
H248 C238 0.948 . S
C249 C215 1.395 . S
C249 C219 1.391 . S
C250 C212 1.389 . S
C250 C232 1.392 . S
C251 C222 1.392 . S
C251 C224 1.389 . S
C252 C227 1.395 . S
C252 C229 1.391 . S
H253 C213 0.951 . S
H254 C214 0.950 . S
H255 C220 0.949 . S
H256 C221 0.950 . S
H257 C225 0.951 . S
H258 C226 0.950 . S
H259 C230 0.949 . S
H260 C231 0.950 . S
H261 C235 0.950 . S
H262 C237 0.950 . S
H263 C240 0.950 . S
H264 C242 0.950 . S
C265 C266 1.443 . S
C265 N269 1.376 . S
C265 C303 1.389 . S
C266 C265 1.443 . S
C266 C267 1.340 . S
C266 H306 0.951 . S
C267 C266 1.340 . S
C267 C268 1.439 . S
C267 H307 0.950 . S
C268 C267 1.439 . S
C268 N269 1.374 . S
C268 C302 1.395 1_565 S
N269 C265 1.376 . S
N269 C268 1.374 . S
N269 Co270 2.008 1_565 S
Co270 N269 2.008 1_545 S
Co270 N271 1.995 . S
Co270 N276 2.008 . S
Co270 N281 1.995 1_545 S
Co270 N286 2.282 1_545 S
Co270 N292 2.282 . S
N271 Co270 1.995 . S
N271 C272 1.376 . S
N271 C275 1.383 . S
C272 N271 1.376 . S
C272 C273 1.446 . S
C272 C302 1.391 . S
C273 C272 1.446 . S
C273 C274 1.339 . S
C273 H308 0.949 . S
C274 C273 1.339 . S
C274 C275 1.439 . S
C274 H309 0.950 . S
C275 N271 1.383 . S
C275 C274 1.439 . S
C275 C304 1.392 . S
N276 Co270 2.008 . S
N276 C277 1.376 . S
N276 C280 1.374 . S
C277 N276 1.376 . S
C277 C278 1.443 . S
C277 C304 1.389 . S
C278 C277 1.443 . S
C278 C279 1.340 . S
C278 H310 0.951 . S
C279 C278 1.340 . S
C279 C280 1.439 . S
C279 H311 0.950 . S
C280 N276 1.374 . S
C280 C279 1.439 . S
C280 C305 1.395 . S
N281 Co270 1.995 1_565 S
N281 C282 1.376 . S
N281 C285 1.383 . S
C282 N281 1.376 . S
C282 C283 1.446 . S
C282 C305 1.391 1_565 S
C283 C282 1.446 . S
C283 C284 1.339 . S
C283 H312 0.949 . S
C284 C283 1.339 . S
C284 C285 1.439 . S
C284 H313 0.950 . S
C285 N281 1.383 . S
C285 C284 1.439 . S
C285 C303 1.392 . S
N286 Co270 2.282 1_565 S
N286 C289 1.332 . S
N286 C291 1.363 . S
C287 C288 1.386 . S
C287 C290 1.388 . S
C288 C287 1.386 . S
C288 C289 1.382 . S
C288 H314 0.950 . S
C289 N286 1.332 . S
C289 C288 1.382 . S
C289 H300 0.952 . S
C290 C287 1.388 . S
C290 C291 1.389 . S
C290 H315 0.984 . S
C291 N286 1.363 . S
C291 C290 1.389 . S
C291 H301 0.911 1_565 S
N292 Co270 2.282 . S
N292 C296 1.332 . S
N292 C297 1.332 . S
C293 C294 1.388 . S
C293 C297 1.382 . S
C293 H316 0.950 . S
C294 C293 1.388 . S
C294 C295 1.386 . S
C295 C294 1.386 . S
C295 C296 1.382 . S
C295 H317 0.950 . S
C296 N292 1.332 . S
C296 C295 1.382 . S
C296 H298 0.952 . S
C297 N292 1.332 . S
C297 C293 1.382 . S
C297 H299 0.948 . S
H298 C296 0.952 . S
H299 C297 0.948 . S
H300 C289 0.952 . S
H301 C291 0.911 1_545 S
C302 C268 1.395 1_545 S
C302 C272 1.391 . S
C303 C265 1.389 . S
C303 C285 1.392 . S
C304 C275 1.392 . S
C304 C277 1.389 . S
C305 C280 1.395 . S
C305 C282 1.391 1_545 S
H306 C266 0.951 . S
H307 C267 0.950 . S
H308 C273 0.949 . S
H309 C274 0.950 . S
H310 C278 0.951 . S
H311 C279 0.950 . S
H312 C283 0.949 . S
H313 C284 0.950 . S
H314 C288 0.950 . S
H315 C290 0.984 . S
H316 C293 0.950 . S
H317 C295 0.950 . S
C318 C319 1.443 . S
C318 N322 1.376 . S
C318 C356 1.389 . S
C319 C318 1.443 . S
C319 C320 1.340 . S
C319 H359 0.951 . S
C320 C319 1.340 . S
C320 C321 1.439 . S
C320 H360 0.950 . S
C321 C320 1.439 . S
C321 N322 1.374 . S
C321 C355 1.395 . S
N322 C318 1.376 . S
N322 C321 1.374 . S
N322 Co323 2.008 . S
Co323 N322 2.008 . S
Co323 N324 1.995 . S
Co323 N329 2.008 . S
Co323 N334 1.995 . S
Co323 N339 2.282 . S
Co323 N345 2.282 . S
N324 Co323 1.995 . S
N324 C325 1.376 . S
N324 C328 1.383 . S
C325 N324 1.376 . S
C325 C326 1.446 . S
C325 C355 1.391 . S
C326 C325 1.446 . S
C326 C327 1.339 . S
C326 H361 0.949 . S
C327 C326 1.339 . S
C327 C328 1.439 . S
C327 H362 0.950 . S
C328 N324 1.383 . S
C328 C327 1.439 . S
C328 C357 1.392 . S
N329 Co323 2.008 . S
N329 C330 1.376 . S
N329 C333 1.374 . S
C330 N329 1.376 . S
C330 C331 1.443 . S
C330 C357 1.389 . S
C331 C330 1.443 . S
C331 C332 1.340 . S
C331 H363 0.951 . S
C332 C331 1.340 . S
C332 C333 1.439 . S
C332 H364 0.950 1_545 S
C333 N329 1.374 . S
C333 C332 1.439 . S
C333 C358 1.395 . S
N334 Co323 1.995 . S
N334 C335 1.376 . S
N334 C338 1.383 . S
C335 N334 1.376 . S
C335 C336 1.446 . S
C335 C358 1.391 . S
C336 C335 1.446 . S
C336 C337 1.339 . S
C336 H365 0.949 1_545 S
C337 C336 1.339 . S
C337 C338 1.439 . S
C337 H366 0.950 . S
C338 N334 1.383 . S
C338 C337 1.439 . S
C338 C356 1.392 . S
N339 Co323 2.282 . S
N339 C342 1.332 . S
N339 C344 1.332 . S
C340 C341 1.386 . S
C340 C343 1.388 . S
C341 C340 1.386 . S
C341 C342 1.382 . S
C341 H367 0.950 1_545 S
C342 N339 1.332 . S
C342 C341 1.382 . S
C342 H353 0.952 . S
C343 C340 1.388 . S
C343 C344 1.382 . S
C343 H368 0.950 . S
C344 N339 1.332 . S
C344 C343 1.382 . S
C344 H354 0.948 . S
N345 Co323 2.282 . S
N345 C349 1.332 . S
N345 C350 1.332 . S
C346 C347 1.388 . S
C346 C350 1.382 . S
C346 H369 0.950 . S
C347 C346 1.388 . S
C347 C348 1.386 . S
C348 C347 1.386 . S
C348 C349 1.382 . S
C348 H370 0.950 . S
C349 N345 1.332 . S
C349 C348 1.382 . S
C349 H351 0.952 . S
C350 N345 1.332 . S
C350 C346 1.382 . S
C350 H352 0.948 . S
H351 C349 0.952 . S
H352 C350 0.948 . S
H353 C342 0.952 . S
H354 C344 0.948 . S
C355 C321 1.395 . S
C355 C325 1.391 . S
C356 C318 1.389 . S
C356 C338 1.392 . S
C357 C328 1.392 . S
C357 C330 1.389 . S
C358 C333 1.395 . S
C358 C335 1.391 . S
H359 C319 0.951 . S
H360 C320 0.950 . S
H361 C326 0.949 . S
H362 C327 0.950 . S
H363 C331 0.951 . S
H364 C332 0.950 1_565 S
H365 C336 0.949 1_565 S
H366 C337 0.950 . S
H367 C341 0.950 1_565 S
H368 C343 0.950 . S
H369 C346 0.950 . S
H370 C348 0.950 . S
C371 C372 1.443 . S
C371 N375 1.376 . S
C371 C409 1.389 . S
C372 C371 1.443 . S
C372 C373 1.340 . S
C372 H412 0.951 . S
C373 C372 1.340 . S
C373 C374 1.439 . S
C373 H413 0.950 . S
C374 C373 1.439 . S
C374 N375 1.374 . S
C374 C408 1.395 . S
N375 C371 1.376 . S
N375 C374 1.374 . S
N375 Co376 2.008 . S
Co376 N375 2.008 . S
Co376 N377 1.995 . S
Co376 N382 2.008 . S
Co376 N387 1.995 . S
Co376 N392 2.282 . S
Co376 N398 2.282 . S
N377 Co376 1.995 . S
N377 C378 1.376 . S
N377 C381 1.383 . S
C378 N377 1.376 . S
C378 C379 1.446 . S
C378 C408 1.391 . S
C379 C378 1.446 . S
C379 C380 1.339 . S
C379 H414 0.949 . S
C380 C379 1.339 . S
C380 C381 1.439 . S
C380 H415 0.950 . S
C381 N377 1.383 . S
C381 C380 1.439 . S
C381 C410 1.392 . S
N382 Co376 2.008 . S
N382 C383 1.376 . S
N382 C386 1.374 . S
C383 N382 1.376 . S
C383 C384 1.443 . S
C383 C410 1.389 . S
C384 C383 1.443 . S
C384 C385 1.340 1_655 S
C384 H416 0.951 . S
C385 C384 1.340 1_455 S
C385 C386 1.439 1_455 S
C385 H417 0.950 . S
C386 N382 1.374 . S
C386 C385 1.439 1_655 S
C386 C411 1.395 1_655 S
N387 Co376 1.995 . S
N387 C388 1.376 . S
N387 C391 1.383 . S
C388 N387 1.376 . S
C388 C389 1.446 . S
C388 C411 1.374 1_655 S
C389 C388 1.446 . S
C389 C390 1.339 . S
C389 H418 0.949 1_655 S
C390 C389 1.339 . S
C390 C391 1.439 . S
C390 H419 0.950 . S
C391 N387 1.383 . S
C391 C390 1.439 . S
C391 C409 1.392 . S
N392 Co376 2.282 . S
N392 C395 1.332 . S
N392 C397 1.332 . S
C393 C394 1.386 . S
C393 C396 1.388 . S
C394 C393 1.386 . S
C394 C395 1.382 . S
C394 H420 0.950 . S
C395 N392 1.332 . S
C395 C394 1.382 . S
C395 H406 0.952 . S
C396 C393 1.388 . S
C396 C397 1.382 . S
C396 H421 0.950 . S
C397 N392 1.332 . S
C397 C396 1.382 . S
C397 H407 0.948 . S
N398 Co376 2.282 . S
N398 C402 1.332 . S
N398 C403 1.332 . S
C399 C400 1.388 1_455 S
C399 C403 1.382 1_455 S
C399 H422 0.950 . S
C400 C399 1.388 1_655 S
C400 C401 1.386 . S
C401 C400 1.386 . S
C401 C402 1.382 . S
C401 H423 0.950 . S
C402 N398 1.332 . S
C402 C401 1.382 . S
C402 H404 0.952 . S
C403 N398 1.332 . S
C403 C399 1.382 1_655 S
C403 H405 0.948 . S
H404 C402 0.952 . S
H405 C403 0.948 . S
H406 C395 0.952 . S
H407 C397 0.948 . S
C408 C374 1.395 . S
C408 C378 1.391 . S
C409 C371 1.389 . S
C409 C391 1.392 . S
C410 C381 1.392 . S
C410 C383 1.389 . S
C411 C386 1.395 1_455 S
C411 C388 1.374 1_455 S
H412 C372 0.951 . S
H413 C373 0.950 . S
H414 C379 0.949 . S
H415 C380 0.950 . S
H416 C384 0.951 . S
H417 C385 0.950 . S
H418 C389 0.949 1_455 S
H419 C390 0.950 . S
H420 C394 0.950 . S
H421 C396 0.950 . S
H422 C399 0.950 . S
H423 C401 0.950 . S
C424 C425 1.443 . S
C424 N428 1.376 . S
C424 C462 1.389 . S
C425 C424 1.443 . S
C425 C426 1.340 . S
C425 H465 0.951 . S
C426 C425 1.340 . S
C426 C427 1.439 . S
C426 H466 0.950 . S
C427 C426 1.439 . S
C427 N428 1.374 . S
C427 C461 1.395 . S
N428 C424 1.376 . S
N428 C427 1.374 . S
N428 Co429 2.008 . S
Co429 N428 2.008 . S
Co429 N430 1.995 . S
Co429 N435 2.008 . S
Co429 N440 1.995 . S
Co429 N445 2.282 . S
Co429 N451 2.282 . S
N430 Co429 1.995 . S
N430 C431 1.376 . S
N430 C434 1.383 . S
C431 N430 1.376 . S
C431 C432 1.446 . S
C431 C461 1.391 . S
C432 C431 1.446 . S
C432 C433 1.339 . S
C432 H467 0.949 . S
C433 C432 1.339 . S
C433 C434 1.439 . S
C433 H468 0.950 . S
C434 N430 1.383 . S
C434 C433 1.439 . S
C434 C463 1.392 . S
N435 Co429 2.008 . S
N435 C436 1.376 . S
N435 C439 1.374 . S
C436 N435 1.376 . S
C436 C437 1.443 . S
C436 C463 1.389 . S
C437 C436 1.443 . S
C437 C438 1.340 . S
C437 H469 0.951 . S
C438 C437 1.340 . S
C438 C439 1.439 . S
C438 H470 0.950 . S
C439 N435 1.374 . S
C439 C438 1.439 . S
C439 C464 1.395 . S
N440 Co429 1.995 . S
N440 C441 1.376 . S
N440 C444 1.383 . S
C441 N440 1.376 . S
C441 C442 1.446 . S
C441 C464 1.391 . S
C442 C441 1.446 . S
C442 C443 1.339 . S
C442 H471 0.949 . S
C443 C442 1.339 . S
C443 C444 1.439 . S
C443 H472 0.950 . S
C444 N440 1.383 . S
C444 C443 1.439 . S
C444 C462 1.392 . S
N445 Co429 2.282 . S
N445 C448 1.332 . S
N445 C450 1.332 . S
C446 C447 1.386 . S
C446 C449 1.388 . S
C447 C446 1.386 . S
C447 C448 1.382 . S
C447 H473 0.950 . S
C448 N445 1.332 . S
C448 C447 1.382 . S
C448 H459 0.952 . S
C449 C446 1.388 . S
C449 C450 1.382 . S
C449 H474 0.950 . S
C450 N445 1.332 . S
C450 C449 1.382 . S
C450 H460 0.948 . S
N451 Co429 2.282 . S
N451 C455 1.332 . S
N451 C456 1.332 . S
C452 C453 1.388 . S
C452 C456 1.382 . S
C452 H475 0.950 . S
C453 C452 1.388 . S
C453 C454 1.386 . S
C454 C453 1.386 . S
C454 C455 1.382 . S
C454 H476 0.950 . S
C455 N451 1.332 . S
C455 C454 1.382 . S
C455 H457 0.952 . S
C456 N451 1.332 . S
C456 C452 1.382 . S
C456 H458 0.948 . S
H457 C455 0.952 . S
H458 C456 0.948 . S
H459 C448 0.952 . S
H460 C450 0.948 . S
C461 C427 1.395 . S
C461 C431 1.391 . S
C462 C424 1.389 . S
C462 C444 1.392 . S
C463 C434 1.392 . S
C463 C436 1.389 . S
C464 C439 1.395 . S
C464 C441 1.391 . S
H465 C425 0.951 . S
H466 C426 0.950 . S
H467 C432 0.949 . S
H468 C433 0.950 . S
H469 C437 0.951 . S
H470 C438 0.950 . S
H471 C442 0.949 . S
H472 C443 0.950 . S
H473 C447 0.950 . S
H474 C449 0.950 . S
H475 C452 0.950 . S
H476 C454 0.950 . S
C477 C478 1.443 . S
C477 N481 1.376 . S
C477 C515 1.389 . S
C478 C477 1.443 . S
C478 C479 1.340 . S
C478 H518 0.951 . S
C479 C478 1.340 . S
C479 C480 1.439 . S
C479 H519 0.950 . S
C480 C479 1.439 . S
C480 N481 1.374 . S
C480 C514 1.395 . S
N481 C477 1.376 . S
N481 C480 1.374 . S
N481 Co482 2.008 . S
Co482 N481 2.008 . S
Co482 N483 1.995 . S
Co482 N488 2.008 . S
Co482 N493 1.995 . S
Co482 N498 2.282 . S
Co482 N504 2.282 . S
N483 Co482 1.995 . S
N483 C484 1.376 . S
N483 C487 1.383 . S
C484 N483 1.376 . S
C484 C485 1.446 . S
C484 C514 1.391 . S
C485 C484 1.446 . S
C485 C486 1.339 . S
C485 H520 0.949 . S
C486 C485 1.339 . S
C486 C487 1.439 . S
C486 H521 0.950 . S
C487 N483 1.383 . S
C487 C486 1.439 . S
C487 C516 1.392 . S
N488 Co482 2.008 . S
N488 C489 1.376 . S
N488 C492 1.374 . S
C489 N488 1.376 . S
C489 C490 1.443 . S
C489 C516 1.389 . S
C490 C489 1.443 . S
C490 C491 1.340 . S
C490 H522 0.951 . S
C491 C490 1.340 . S
C491 C492 1.439 . S
C491 H523 0.950 . S
C492 N488 1.374 . S
C492 C491 1.439 . S
C492 C517 1.395 . S
N493 Co482 1.995 . S
N493 C494 1.376 . S
N493 C497 1.383 . S
C494 N493 1.376 . S
C494 C495 1.446 . S
C494 C517 1.391 . S
C495 C494 1.446 . S
C495 C496 1.339 . S
C495 H524 0.949 . S
C496 C495 1.339 . S
C496 C497 1.439 . S
C496 H525 0.950 . S
C497 N493 1.383 . S
C497 C496 1.439 . S
C497 C515 1.392 . S
N498 Co482 2.282 . S
N498 C501 1.332 . S
N498 C503 1.332 . S
C499 C500 1.386 . S
C499 C502 1.388 . S
C500 C499 1.386 . S
C500 C501 1.382 . S
C500 H526 0.950 . S
C501 N498 1.332 . S
C501 C500 1.382 . S
C501 H512 0.952 . S
C502 C499 1.388 . S
C502 C503 1.382 . S
C502 H527 0.950 . S
C503 N498 1.332 . S
C503 C502 1.382 . S
C503 H513 0.948 . S
N504 Co482 2.282 . S
N504 C508 1.332 . S
N504 C509 1.332 . S
C505 C506 1.388 . S
C505 C509 1.382 . S
C505 H528 0.950 . S
C506 C505 1.388 . S
C506 C507 1.386 . S
C507 C506 1.386 . S
C507 C508 1.382 . S
C507 H529 0.950 . S
C508 N504 1.332 . S
C508 C507 1.382 . S
C508 H510 0.952 . S
C509 N504 1.332 . S
C509 C505 1.382 . S
C509 H511 0.948 . S
H510 C508 0.952 . S
H511 C509 0.948 . S
H512 C501 0.952 . S
H513 C503 0.948 . S
C514 C480 1.395 . S
C514 C484 1.391 . S
C515 C477 1.389 . S
C515 C497 1.392 . S
C516 C487 1.392 . S
C516 C489 1.389 . S
C517 C492 1.395 . S
C517 C494 1.391 . S
H518 C478 0.951 . S
H519 C479 0.950 . S
H520 C485 0.949 . S
H521 C486 0.950 . S
H522 C490 0.951 . S
H523 C491 0.950 . S
H524 C495 0.949 . S
H525 C496 0.950 . S
H526 C500 0.950 . S
H527 C502 0.950 . S
H528 C505 0.950 . S
H529 C507 0.950 . S
C530 C531 1.443 . S
C530 N534 1.376 . S
C530 C568 1.389 . S
C531 C530 1.443 . S
C531 C532 1.340 . S
C531 H571 0.951 . S
C532 C531 1.340 . S
C532 C533 1.439 . S
C532 H572 0.950 . S
C533 C532 1.439 . S
C533 N534 1.374 . S
C533 C567 1.395 . S
N534 C530 1.376 . S
N534 C533 1.374 . S
N534 Co535 2.008 . S
Co535 N534 2.008 . S
Co535 N536 1.995 . S
Co535 N541 2.008 . S
Co535 N546 1.995 . S
Co535 N551 2.282 . S
Co535 N557 2.282 . S
N536 Co535 1.995 . S
N536 C537 1.376 . S
N536 C540 1.383 . S
C537 N536 1.376 . S
C537 C538 1.446 . S
C537 C567 1.391 . S
C538 C537 1.446 . S
C538 C539 1.339 . S
C538 H573 0.949 . S
C539 C538 1.339 . S
C539 C540 1.439 . S
C539 H574 0.950 . S
C540 N536 1.383 . S
C540 C539 1.439 . S
C540 C569 1.392 . S
N541 Co535 2.008 . S
N541 C542 1.376 . S
N541 C545 1.374 . S
C542 N541 1.376 . S
C542 C543 1.443 . S
C542 C569 1.389 . S
C543 C542 1.443 . S
C543 C544 1.340 . S
C543 H575 0.951 . S
C544 C543 1.340 . S
C544 C545 1.439 . S
C544 H576 0.944 1_545 S
C545 N541 1.374 . S
C545 C544 1.439 . S
C545 C570 1.395 . S
N546 Co535 1.995 . S
N546 C547 1.376 . S
N546 C550 1.383 . S
C547 N546 1.376 . S
C547 C548 1.446 . S
C547 C570 1.391 . S
C548 C547 1.446 . S
C548 C549 1.339 . S
C548 H577 0.949 . S
C549 C548 1.339 . S
C549 C550 1.439 . S
C549 H578 0.950 . S
C550 N546 1.383 . S
C550 C549 1.439 . S
C550 C568 1.392 . S
N551 Co535 2.282 . S
N551 C554 1.332 . S
N551 C556 1.332 . S
C552 C553 1.386 . S
C552 C555 1.388 . S
C553 C552 1.386 . S
C553 C554 1.382 . S
C553 H579 0.950 . S
C554 N551 1.332 . S
C554 C553 1.382 . S
C554 H565 0.952 . S
C555 C552 1.388 . S
C555 C556 1.382 . S
C555 H580 0.950 . S
C556 N551 1.332 . S
C556 C555 1.382 . S
C556 H566 0.948 . S
N557 Co535 2.282 . S
N557 C561 1.332 . S
N557 C562 1.332 . S
C558 C559 1.388 . S
C558 C562 1.382 . S
C558 H581 0.950 . S
C559 C558 1.388 . S
C559 C560 1.386 . S
C560 C559 1.386 . S
C560 C561 1.382 . S
C560 H582 0.950 . S
C561 N557 1.332 . S
C561 C560 1.382 . S
C561 H563 0.952 . S
C562 N557 1.332 . S
C562 C558 1.382 . S
C562 H564 0.948 . S
H563 C561 0.952 . S
H564 C562 0.948 . S
H565 C554 0.952 . S
H566 C556 0.948 . S
C567 C533 1.395 . S
C567 C537 1.391 . S
C568 C530 1.389 . S
C568 C550 1.392 . S
C569 C540 1.392 . S
C569 C542 1.389 . S
C570 C545 1.395 . S
C570 C547 1.391 . S
H571 C531 0.951 . S
H572 C532 0.950 . S
H573 C538 0.949 . S
H574 C539 0.950 . S
H575 C543 0.951 . S
H576 C544 0.944 1_565 S
H577 C548 0.949 . S
H578 C549 0.950 . S
H579 C553 0.950 . S
H580 C555 0.950 . S
H581 C558 0.950 . S
H582 C560 0.950 . S
C583 C584 1.443 . S
C583 N587 1.376 . S
C583 C621 1.389 . S
C584 C583 1.443 . S
C584 C585 1.340 . S
C584 H624 0.951 . S
C585 C584 1.340 . S
C585 C586 1.439 . S
C585 H625 0.950 . S
C586 C585 1.439 . S
C586 N587 1.374 . S
C586 C620 1.395 . S
N587 C583 1.376 . S
N587 C586 1.374 . S
N587 Co588 2.008 . S
Co588 N587 2.008 . S
Co588 N589 1.995 . S
Co588 N594 2.008 . S
Co588 N599 1.995 . S
Co588 N604 2.282 . S
Co588 N610 2.282 . S
N589 Co588 1.995 . S
N589 C590 1.376 . S
N589 C593 1.383 . S
C590 N589 1.376 . S
C590 C591 1.446 . S
C590 C620 1.391 . S
C591 C590 1.446 . S
C591 C592 1.339 . S
C591 H626 0.949 . S
C592 C591 1.339 . S
C592 C593 1.439 . S
C592 H627 0.950 . S
C593 N589 1.383 . S
C593 C592 1.439 . S
C593 C622 1.392 . S
N594 Co588 2.008 . S
N594 C595 1.376 . S
N594 C598 1.374 . S
C595 N594 1.376 . S
C595 C596 1.443 . S
C595 C622 1.389 . S
C596 C595 1.443 . S
C596 C597 1.318 1_655 S
C596 H628 0.951 1_655 S
C597 C596 1.318 1_455 S
C597 C598 1.425 1_455 S
C597 H629 0.981 . S
C598 N594 1.374 . S
C598 C597 1.425 1_655 S
C598 C623 1.395 . S
N599 Co588 1.995 . S
N599 C600 1.376 . S
N599 C603 1.383 . S
C600 N599 1.376 . S
C600 C601 1.446 . S
C600 C623 1.391 . S
C601 C600 1.446 . S
C601 C602 1.339 . S
C601 H630 0.949 . S
C602 C601 1.339 . S
C602 C603 1.439 . S
C602 H631 0.950 . S
C603 N599 1.383 . S
C603 C602 1.439 . S
C603 C621 1.392 . S
N604 Co588 2.282 . S
N604 C607 1.332 . S
N604 C609 1.332 . S
C605 C606 1.386 . S
C605 C608 1.388 . S
C606 C605 1.386 . S
C606 C607 1.382 . S
C606 H632 0.950 . S
C607 N604 1.332 . S
C607 C606 1.382 . S
C607 H618 0.952 . S
C608 C605 1.388 . S
C608 C609 1.382 . S
C608 H633 0.950 . S
C609 N604 1.332 . S
C609 C608 1.382 . S
C609 H619 0.948 . S
N610 Co588 2.282 . S
N610 C614 1.332 . S
N610 C615 1.332 . S
C611 C612 1.388 . S
C611 C615 1.382 . S
C611 H634 0.950 . S
C612 C611 1.388 . S
C612 C613 1.386 . S
C613 C612 1.386 . S
C613 C614 1.382 . S
C613 H635 0.950 . S
C614 N610 1.332 . S
C614 C613 1.382 . S
C614 H616 0.952 . S
C615 N610 1.332 . S
C615 C611 1.382 . S
C615 H617 0.948 . S
H616 C614 0.952 . S
H617 C615 0.948 . S
H618 C607 0.952 . S
H619 C609 0.948 . S
C620 C586 1.395 . S
C620 C590 1.391 . S
C621 C583 1.389 . S
C621 C603 1.392 . S
C622 C593 1.392 . S
C622 C595 1.389 . S
C623 C598 1.395 . S
C623 C600 1.391 . S
H624 C584 0.951 . S
H625 C585 0.950 . S
H626 C591 0.949 . S
H627 C592 0.950 . S
H628 C596 0.951 1_455 S
H629 C597 0.981 . S
H630 C601 0.949 . S
H631 C602 0.950 . S
H632 C606 0.950 . S
H633 C608 0.950 . S
H634 C611 0.950 . S
H635 C613 0.950 . S
C636 C637 1.443 . S
C636 N640 1.376 . S
C636 C674 1.389 . S
C637 C636 1.443 . S
C637 C638 1.340 . S
C637 H677 0.951 . S
C638 C637 1.340 . S
C638 C639 1.439 . S
C638 H678 0.950 . S
C639 C638 1.439 . S
C639 N640 1.374 . S
C639 C673 1.395 . S
N640 C636 1.376 . S
N640 C639 1.374 . S
N640 Co641 2.008 . S
Co641 N640 2.008 . S
Co641 N642 1.995 . S
Co641 N647 2.008 . S
Co641 N652 1.995 . S
Co641 N657 2.282 . S
Co641 N663 2.282 . S
N642 Co641 1.995 . S
N642 C643 1.376 . S
N642 C646 1.383 . S
C643 N642 1.376 . S
C643 C644 1.446 . S
C643 C673 1.391 . S
C644 C643 1.446 . S
C644 C645 1.339 . S
C644 H679 0.949 . S
C645 C644 1.339 . S
C645 C646 1.439 . S
C645 H680 0.950 . S
C646 N642 1.383 . S
C646 C645 1.439 . S
C646 C675 1.392 . S
N647 Co641 2.008 . S
N647 C648 1.376 . S
N647 C651 1.374 . S
C648 N647 1.376 . S
C648 C649 1.443 . S
C648 C675 1.389 . S
C649 C648 1.443 . S
C649 C650 1.340 . S
C649 H681 0.951 . S
C650 C649 1.340 . S
C650 C651 1.439 . S
C650 H682 0.950 . S
C651 N647 1.374 . S
C651 C650 1.439 . S
C651 C676 1.395 . S
N652 Co641 1.995 . S
N652 C653 1.376 . S
N652 C656 1.383 . S
C653 N652 1.376 . S
C653 C654 1.446 . S
C653 C676 1.391 . S
C654 C653 1.446 . S
C654 C655 1.339 . S
C654 H683 0.949 . S
C655 C654 1.339 . S
C655 C656 1.439 . S
C655 H684 0.950 . S
C656 N652 1.383 . S
C656 C655 1.439 . S
C656 C674 1.392 . S
N657 Co641 2.282 . S
N657 C660 1.332 . S
N657 C662 1.332 . S
C658 C659 1.386 . S
C658 C661 1.388 . S
C659 C658 1.386 . S
C659 C660 1.382 . S
C659 H685 0.950 . S
C660 N657 1.332 . S
C660 C659 1.382 . S
C660 H671 0.952 . S
C661 C658 1.388 . S
C661 C662 1.382 . S
C661 H686 0.950 . S
C662 N657 1.332 . S
C662 C661 1.382 . S
C662 H672 0.948 . S
N663 Co641 2.282 . S
N663 C667 1.332 . S
N663 C668 1.332 . S
C664 C665 1.388 . S
C664 C668 1.382 . S
C664 H687 0.950 . S
C665 C664 1.388 . S
C665 C666 1.386 . S
C666 C665 1.386 . S
C666 C667 1.382 . S
C666 H688 0.950 . S
C667 N663 1.332 . S
C667 C666 1.382 . S
C667 H669 0.952 . S
C668 N663 1.332 . S
C668 C664 1.382 . S
C668 H670 0.948 . S
H669 C667 0.952 . S
H670 C668 0.948 . S
H671 C660 0.952 . S
H672 C662 0.948 . S
C673 C639 1.395 . S
C673 C643 1.391 . S
C674 C636 1.389 . S
C674 C656 1.392 . S
C675 C646 1.392 . S
C675 C648 1.389 . S
C676 C651 1.395 . S
C676 C653 1.391 . S
H677 C637 0.951 . S
H678 C638 0.950 . S
H679 C644 0.949 . S
H680 C645 0.950 . S
H681 C649 0.951 . S
H682 C650 0.950 . S
H683 C654 0.949 . S
H684 C655 0.950 . S
H685 C659 0.950 . S
H686 C661 0.950 . S
H687 C664 0.950 . S
H688 C666 0.950 . S
C689 C690 1.443 . S
C689 N693 1.376 . S
C689 C727 1.389 . S
C690 C689 1.443 . S
C690 C691 1.340 . S
C690 H730 0.951 . S
C691 C690 1.340 . S
C691 C692 1.439 . S
C691 H731 0.950 . S
C692 C691 1.439 . S
C692 N693 1.374 . S
C692 C726 1.395 . S
N693 C689 1.376 . S
N693 C692 1.374 . S
N693 Co694 2.008 . S
Co694 N693 2.008 . S
Co694 N695 1.995 . S
Co694 N700 2.008 . S
Co694 N705 1.995 . S
Co694 N710 2.282 . S
Co694 N716 2.282 . S
N695 Co694 1.995 . S
N695 C696 1.376 . S
N695 C699 1.383 . S
C696 N695 1.376 . S
C696 C697 1.446 . S
C696 C726 1.391 . S
C697 C696 1.446 . S
C697 C698 1.339 . S
C697 H732 0.949 . S
C698 C697 1.339 . S
C698 C699 1.439 . S
C698 H733 0.950 . S
C699 N695 1.383 . S
C699 C698 1.439 . S
C699 C728 1.392 . S
N700 Co694 2.008 . S
N700 C701 1.376 . S
N700 C704 1.374 . S
C701 N700 1.376 . S
C701 C702 1.443 . S
C701 C728 1.389 . S
C702 C701 1.443 . S
C702 C703 1.340 1_565 S
C702 H734 0.951 . S
C703 C702 1.340 1_545 S
C703 C704 1.439 1_545 S
C703 H735 0.950 . S
C704 N700 1.374 . S
C704 C703 1.439 1_565 S
C704 C729 1.395 1_565 S
N705 Co694 1.995 . S
N705 C706 1.376 . S
N705 C709 1.383 . S
C706 N705 1.376 . S
C706 C707 1.446 1_565 S
C706 C729 1.391 1_565 S
C707 C706 1.446 1_545 S
C707 C708 1.339 1_545 S
C707 H736 0.949 . S
C708 C707 1.339 1_565 S
C708 C709 1.439 . S
C708 H737 0.949 . S
C709 N705 1.383 . S
C709 C708 1.439 . S
C709 C727 1.392 . S
N710 Co694 2.282 . S
N710 C713 1.332 . S
N710 C715 1.332 . S
C711 C712 1.386 1_565 S
C711 C714 1.388 . S
C712 C711 1.386 1_545 S
C712 C713 1.382 1_545 S
C712 H738 0.950 . S
C713 N710 1.332 . S
C713 C712 1.382 1_565 S
C713 H724 0.947 1_565 S
C714 C711 1.388 . S
C714 C715 1.382 . S
C714 H739 0.950 . S
C715 N710 1.332 . S
C715 C714 1.382 . S
C715 H725 0.948 . S
N716 Co694 2.282 . S
N716 C720 1.332 . S
N716 C721 1.332 . S
C717 C718 1.388 . S
C717 C721 1.382 . S
C717 H740 0.950 . S
C718 C717 1.388 . S
C718 C719 1.386 . S
C719 C718 1.386 . S
C719 C720 1.382 . S
C719 H741 0.950 . S
C720 N716 1.332 . S
C720 C719 1.382 . S
C720 H722 0.952 . S
C721 N716 1.332 . S
C721 C717 1.382 . S
C721 H723 0.948 . S
H722 C720 0.952 . S
H723 C721 0.948 . S
H724 C713 0.947 1_545 S
H725 C715 0.948 . S
C726 C692 1.395 . S
C726 C696 1.391 . S
C727 C689 1.389 . S
C727 C709 1.392 . S
C728 C699 1.392 . S
C728 C701 1.389 . S
C729 C704 1.395 1_545 S
C729 C706 1.391 1_545 S
H730 C690 0.951 . S
H731 C691 0.950 . S
H732 C697 0.949 . S
H733 C698 0.950 . S
H734 C702 0.951 . S
H735 C703 0.950 . S
H736 C707 0.949 . S
H737 C708 0.949 . S
H738 C712 0.950 . S
H739 C714 0.950 . S
H740 C717 0.950 . S
H741 C719 0.950 . S
C742 C743 1.443 . S
C742 N746 1.376 . S
C742 C780 1.389 . S
C743 C742 1.443 . S
C743 C744 1.340 . S
C743 H783 0.951 . S
C744 C743 1.340 . S
C744 C745 1.439 . S
C744 H784 0.950 . S
C745 C744 1.439 . S
C745 N746 1.374 . S
C745 C779 1.395 . S
N746 C742 1.376 . S
N746 C745 1.374 . S
N746 Co747 2.008 . S
Co747 N746 2.008 . S
Co747 N748 1.995 . S
Co747 N753 2.008 . S
Co747 N758 1.995 . S
Co747 N763 2.282 . S
Co747 N769 2.282 . S
N748 Co747 1.995 . S
N748 C749 1.376 . S
N748 C752 1.383 . S
C749 N748 1.376 . S
C749 C750 1.446 . S
C749 C779 1.391 . S
C750 C749 1.446 . S
C750 C751 1.339 . S
C750 H785 0.949 . S
C751 C750 1.339 . S
C751 C752 1.439 . S
C751 H786 0.950 . S
C752 N748 1.383 . S
C752 C751 1.439 . S
C752 C781 1.392 . S
N753 Co747 2.008 . S
N753 C754 1.376 . S
N753 C757 1.374 . S
C754 N753 1.376 . S
C754 C755 1.443 . S
C754 C781 1.389 . S
C755 C754 1.443 . S
C755 C756 1.340 . S
C755 H787 0.951 . S
C756 C755 1.340 . S
C756 C757 1.439 . S
C756 H788 0.950 1_455 S
C757 N753 1.374 . S
C757 C756 1.439 . S
C757 C782 1.395 . S
N758 Co747 1.995 . S
N758 C759 1.376 . S
N758 C762 1.383 . S
C759 N758 1.376 . S
C759 C760 1.446 . S
C759 C782 1.391 . S
C760 C759 1.446 . S
C760 C761 1.339 . S
C760 H789 0.949 1_455 S
C761 C760 1.339 . S
C761 C762 1.439 . S
C761 H790 0.950 . S
C762 N758 1.383 . S
C762 C761 1.439 . S
C762 C780 1.392 . S
N763 Co747 2.282 . S
N763 C766 1.332 . S
N763 C768 1.332 . S
C764 C765 1.386 . S
C764 C767 1.388 . S
C765 C764 1.386 . S
C765 C766 1.382 . S
C765 H791 0.950 1_455 S
C766 N763 1.332 . S
C766 C765 1.382 . S
C766 H777 0.952 . S
C767 C764 1.388 . S
C767 C768 1.382 . S
C767 H792 0.950 . S
C768 N763 1.332 . S
C768 C767 1.382 . S
C768 H778 0.948 . S
N769 Co747 2.282 . S
N769 C773 1.332 . S
N769 C774 1.332 . S
C770 C771 1.388 . S
C770 C774 1.382 . S
C770 H793 0.950 . S
C771 C770 1.388 . S
C771 C772 1.386 . S
C772 C771 1.386 . S
C772 C773 1.382 . S
C772 H794 0.950 . S
C773 N769 1.332 . S
C773 C772 1.382 . S
C773 H775 0.952 . S
C774 N769 1.332 . S
C774 C770 1.382 . S
C774 H776 0.948 . S
H775 C773 0.952 . S
H776 C774 0.948 . S
H777 C766 0.952 . S
H778 C768 0.948 . S
C779 C745 1.395 . S
C779 C749 1.391 . S
C780 C742 1.389 . S
C780 C762 1.392 . S
C781 C752 1.392 . S
C781 C754 1.389 . S
C782 C757 1.395 . S
C782 C759 1.391 . S
H783 C743 0.951 . S
H784 C744 0.950 . S
H785 C750 0.949 . S
H786 C751 0.950 . S
H787 C755 0.951 . S
H788 C756 0.950 1_655 S
H789 C760 0.949 1_655 S
H790 C761 0.950 . S
H791 C765 0.950 1_655 S
H792 C767 0.950 . S
H793 C770 0.950 . S
H794 C772 0.950 . S
C795 C796 1.443 . S
C795 N799 1.376 . S
C795 C833 1.389 . S
C796 C795 1.443 . S
C796 C797 1.340 . S
C796 H836 0.951 . S
C797 C796 1.340 . S
C797 C798 1.439 . S
C797 H837 0.950 . S
C798 C797 1.439 . S
C798 N799 1.374 . S
C798 C832 1.395 . S
N799 C795 1.376 . S
N799 C798 1.374 . S
N799 Co800 2.008 . S
Co800 N799 2.008 . S
Co800 N801 1.995 . S
Co800 N806 2.008 . S
Co800 N811 1.995 . S
Co800 N816 2.282 . S
Co800 N822 2.282 . S
N801 Co800 1.995 . S
N801 C802 1.376 . S
N801 C805 1.383 . S
C802 N801 1.376 . S
C802 C803 1.446 . S
C802 C832 1.391 . S
C803 C802 1.446 . S
C803 C804 1.339 . S
C803 H838 0.949 . S
C804 C803 1.339 . S
C804 C805 1.439 . S
C804 H839 0.950 . S
C805 N801 1.383 . S
C805 C804 1.439 . S
C805 C834 1.392 . S
N806 Co800 2.008 . S
N806 C807 1.376 . S
N806 C810 1.374 . S
C807 N806 1.376 . S
C807 C808 1.443 . S
C807 C834 1.389 . S
C808 C807 1.443 . S
C808 C809 1.318 1_565 S
C808 H840 0.951 1_565 S
C809 C808 1.318 1_545 S
C809 C810 1.425 1_545 S
C809 H841 0.981 . S
C810 N806 1.374 . S
C810 C809 1.425 1_565 S
C810 C835 1.395 . S
N811 Co800 1.995 . S
N811 C812 1.376 . S
N811 C815 1.383 . S
C812 N811 1.376 . S
C812 C813 1.446 . S
C812 C835 1.391 . S
C813 C812 1.446 . S
C813 C814 1.339 . S
C813 H842 0.949 . S
C814 C813 1.339 . S
C814 C815 1.439 . S
C814 H843 0.950 . S
C815 N811 1.383 . S
C815 C814 1.439 . S
C815 C833 1.392 . S
N816 Co800 2.282 . S
N816 C819 1.332 . S
N816 C821 1.332 . S
C817 C818 1.386 . S
C817 C820 1.388 . S
C818 C817 1.386 . S
C818 C819 1.382 . S
C818 H844 0.950 . S
C819 N816 1.332 . S
C819 C818 1.382 . S
C819 H830 0.952 . S
C820 C817 1.388 . S
C820 C821 1.382 . S
C820 H845 0.950 . S
C821 N816 1.332 . S
C821 C820 1.382 . S
C821 H831 0.948 . S
N822 Co800 2.282 . S
N822 C826 1.332 . S
N822 C827 1.332 . S
C823 C824 1.388 . S
C823 C827 1.382 . S
C823 H846 0.950 . S
C824 C823 1.388 . S
C824 C825 1.386 . S
C825 C824 1.386 . S
C825 C826 1.382 . S
C825 H847 0.950 . S
C826 N822 1.332 . S
C826 C825 1.382 . S
C826 H828 0.952 . S
C827 N822 1.332 . S
C827 C823 1.382 . S
C827 H829 0.948 . S
H828 C826 0.952 . S
H829 C827 0.948 . S
H830 C819 0.952 . S
H831 C821 0.948 . S
C832 C798 1.395 . S
C832 C802 1.391 . S
C833 C795 1.389 . S
C833 C815 1.392 . S
C834 C805 1.392 . S
C834 C807 1.389 . S
C835 C810 1.395 . S
C835 C812 1.391 . S
H836 C796 0.951 . S
H837 C797 0.950 . S
H838 C803 0.949 . S
H839 C804 0.950 . S
H840 C808 0.951 1_545 S
H841 C809 0.981 . S
H842 C813 0.949 . S
H843 C814 0.950 . S
H844 C818 0.950 . S
H845 C820 0.950 . S
H846 C823 0.950 . S
H847 C825 0.950 . S
C848 C849 1.443 . S
C848 N852 1.376 . S
C848 C886 1.389 . S
C849 C848 1.443 . S
C849 C850 1.340 . S
C849 H889 0.951 . S
C850 C849 1.340 . S
C850 C851 1.439 . S
C850 H890 0.950 . S
C851 C850 1.439 . S
C851 N852 1.374 . S
C851 C885 1.395 . S
N852 C848 1.376 . S
N852 C851 1.374 . S
N852 Co853 2.008 . S
Co853 N852 2.008 . S
Co853 N854 1.995 . S
Co853 N859 2.008 . S
Co853 N864 1.995 . S
Co853 N869 2.282 . S
Co853 N875 2.282 . S
N854 Co853 1.995 . S
N854 C855 1.376 . S
N854 C858 1.383 . S
C855 N854 1.376 . S
C855 C856 1.446 . S
C855 C885 1.391 . S
C856 C855 1.446 . S
C856 C857 1.339 . S
C856 H891 0.949 . S
C857 C856 1.339 . S
C857 C858 1.439 . S
C857 H892 0.950 . S
C858 N854 1.383 . S
C858 C857 1.439 . S
C858 C887 1.392 . S
N859 Co853 2.008 . S
N859 C860 1.376 . S
N859 C863 1.374 . S
C860 N859 1.376 . S
C860 C861 1.443 . S
C860 C887 1.389 . S
C861 C860 1.443 . S
C861 C862 1.340 . S
C861 H893 0.951 . S
C862 C861 1.340 . S
C862 C863 1.439 . S
C862 H894 0.944 1_455 S
C863 N859 1.374 . S
C863 C862 1.439 . S
C863 C888 1.395 . S
N864 Co853 1.995 . S
N864 C865 1.376 . S
N864 C868 1.383 . S
C865 N864 1.376 . S
C865 C866 1.446 . S
C865 C888 1.391 . S
C866 C865 1.446 . S
C866 C867 1.339 . S
C866 H895 0.949 . S
C867 C866 1.339 . S
C867 C868 1.439 . S
C867 H896 0.950 . S
C868 N864 1.383 . S
C868 C867 1.439 . S
C868 C886 1.392 . S
N869 Co853 2.282 . S
N869 C872 1.332 . S
N869 C874 1.332 . S
C870 C871 1.386 . S
C870 C873 1.388 . S
C871 C870 1.386 . S
C871 C872 1.382 . S
C871 H897 0.950 . S
C872 N869 1.332 . S
C872 C871 1.382 . S
C872 H883 0.952 . S
C873 C870 1.388 . S
C873 C874 1.382 . S
C873 H898 0.950 . S
C874 N869 1.332 . S
C874 C873 1.382 . S
C874 H884 0.948 . S
N875 Co853 2.282 . S
N875 C879 1.332 . S
N875 C880 1.332 . S
C876 C877 1.388 . S
C876 C880 1.382 . S
C876 H899 0.950 . S
C877 C876 1.388 . S
C877 C878 1.386 . S
C878 C877 1.386 . S
C878 C879 1.382 . S
C878 H900 0.950 . S
C879 N875 1.332 . S
C879 C878 1.382 . S
C879 H881 0.952 . S
C880 N875 1.332 . S
C880 C876 1.382 . S
C880 H882 0.948 . S
H881 C879 0.952 . S
H882 C880 0.948 . S
H883 C872 0.952 . S
H884 C874 0.948 . S
C885 C851 1.395 . S
C885 C855 1.391 . S
C886 C848 1.389 . S
C886 C868 1.392 . S
C887 C858 1.392 . S
C887 C860 1.389 . S
C888 C863 1.395 . S
C888 C865 1.391 . S
H889 C849 0.951 . S
H890 C850 0.950 . S
H891 C856 0.949 . S
H892 C857 0.950 . S
H893 C861 0.951 . S
H894 C862 0.944 1_655 S
H895 C866 0.949 . S
H896 C867 0.950 . S
H897 C871 0.950 . S
H898 C873 0.950 . S
H899 C876 0.950 . S
H900 C878 0.950 . S
C901 C902 1.443 . S
C901 N905 1.376 . S
C901 C939 1.389 . S
C902 C901 1.443 . S
C902 C903 1.340 . S
C902 H942 0.951 . S
C903 C902 1.340 . S
C903 C904 1.439 . S
C903 H943 0.950 . S
C904 C903 1.439 . S
C904 N905 1.374 . S
C904 C938 1.395 . S
N905 C901 1.376 . S
N905 C904 1.374 . S
N905 Co906 2.008 . S
Co906 N905 2.008 . S
Co906 N907 1.995 . S
Co906 N912 2.008 . S
Co906 N917 1.995 . S
Co906 N922 2.282 . S
Co906 N928 2.282 . S
N907 Co906 1.995 . S
N907 C908 1.376 . S
N907 C911 1.383 . S
C908 N907 1.376 . S
C908 C909 1.446 . S
C908 C938 1.391 . S
C909 C908 1.446 . S
C909 C910 1.339 . S
C909 H944 0.949 . S
C910 C909 1.339 . S
C910 C911 1.439 . S
C910 H945 0.950 . S
C911 N907 1.383 . S
C911 C910 1.439 . S
C911 C940 1.392 . S
N912 Co906 2.008 . S
N912 C913 1.376 . S
N912 C916 1.374 . S
C913 N912 1.376 . S
C913 C914 1.443 . S
C913 C940 1.389 . S
C914 C913 1.443 . S
C914 C915 1.340 . S
C914 H946 0.951 . S
C915 C914 1.340 . S
C915 C916 1.439 . S
C915 H947 0.950 . S
C916 N912 1.374 . S
C916 C915 1.439 . S
C916 C941 1.395 . S
N917 Co906 1.995 . S
N917 C918 1.376 . S
N917 C921 1.383 . S
C918 N917 1.376 . S
C918 C919 1.446 . S
C918 C941 1.391 . S
C919 C918 1.446 . S
C919 C920 1.339 . S
C919 H948 0.949 . S
C920 C919 1.339 . S
C920 C921 1.439 . S
C920 H949 0.950 . S
C921 N917 1.383 . S
C921 C920 1.439 . S
C921 C939 1.392 . S
N922 Co906 2.282 . S
N922 C925 1.332 . S
N922 C927 1.332 . S
C923 C924 1.386 . S
C923 C926 1.388 . S
C924 C923 1.386 . S
C924 C925 1.382 . S
C924 H950 0.950 . S
C925 N922 1.332 . S
C925 C924 1.382 . S
C925 H936 0.952 . S
C926 C923 1.388 . S
C926 C927 1.382 . S
C926 H951 0.950 . S
C927 N922 1.332 . S
C927 C926 1.382 . S
C927 H937 0.948 . S
N928 Co906 2.282 . S
N928 C932 1.332 . S
N928 C933 1.332 . S
C929 C930 1.388 . S
C929 C933 1.382 . S
C929 H952 0.950 . S
C930 C929 1.388 . S
C930 C931 1.386 . S
C931 C930 1.386 . S
C931 C932 1.382 . S
C931 H953 0.950 . S
C932 N928 1.332 . S
C932 C931 1.382 . S
C932 H934 0.952 . S
C933 N928 1.332 . S
C933 C929 1.382 . S
C933 H935 0.948 . S
H934 C932 0.952 . S
H935 C933 0.948 . S
H936 C925 0.952 . S
H937 C927 0.948 . S
C938 C904 1.395 . S
C938 C908 1.391 . S
C939 C901 1.389 . S
C939 C921 1.392 . S
C940 C911 1.392 . S
C940 C913 1.389 . S
C941 C916 1.395 . S
C941 C918 1.391 . S
H942 C902 0.951 . S
H943 C903 0.950 . S
H944 C909 0.949 . S
H945 C910 0.950 . S
H946 C914 0.951 . S
H947 C915 0.950 . S
H948 C919 0.949 . S
H949 C920 0.950 . S
H950 C924 0.950 . S
H951 C926 0.950 . S
H952 C929 0.950 . S
H953 C931 0.950 . S
C954 C955 1.349 . S
C954 C956 1.327 . S
C954 H979 0.951 . S
C955 C954 1.349 . S
C955 C971 1.349 . S
C956 C954 1.327 . S
C956 C975 1.429 . S
C956 H980 0.950 . S
C957 C974 1.574 . S
C957 C976 1.368 . S
C957 H981 0.949 . S
H958 C962 0.949 . S
C959 C960 1.349 . S
C959 C961 1.327 . S
C959 H982 0.950 . S
C960 C959 1.349 . S
C960 C972 1.349 . S
C961 C959 1.327 . S
C961 C977 1.429 . S
C961 H983 0.950 . S
C962 H958 0.949 . S
C962 C970 1.574 . S
C962 C978 1.368 . S
H963 C971 0.950 . S
H964 C969 0.950 . S
H965 C970 0.949 . S
H966 C972 0.950 . S
H967 C973 0.950 . S
H968 C974 0.949 . S
C969 H964 0.950 . S
C969 C971 1.327 . S
C969 C975 1.429 . S
C970 C962 1.574 . S
C970 H965 0.949 . S
C970 C976 1.368 . S
C971 C955 1.349 . S
C971 H963 0.950 . S
C971 C969 1.327 . S
C972 C960 1.349 . S
C972 H966 0.950 . S
C972 C973 1.327 . S
C973 H967 0.950 . S
C973 C972 1.327 . S
C973 C977 1.429 . S
C974 C957 1.574 . S
C974 H968 0.949 . S
C974 C978 1.368 . S
C975 C956 1.429 . S
C975 C969 1.429 . S
C975 C976 1.523 . S
C976 C957 1.368 . S
C976 C970 1.368 . S
C976 C975 1.523 . S
C977 C961 1.429 . S
C977 C973 1.429 . S
C977 C978 1.523 . S
C978 C962 1.368 . S
C978 C974 1.368 . S
C978 C977 1.523 . S
H979 C954 0.951 . S
H980 C956 0.950 . S
H981 C957 0.949 . S
H982 C959 0.950 . S
H983 C961 0.950 . S
C984 C985 1.349 . S
C984 C986 1.327 . S
C984 H1009 0.950 1_554 S
C985 C984 1.349 . S
C985 C1001 1.349 . S
C986 C984 1.327 . S
C986 C1005 1.429 . S
C986 H1010 0.950 . S
C987 C1004 1.574 . S
C987 C1006 1.368 . S
C987 H1011 0.949 . S
H988 C992 0.949 . S
C989 C990 1.349 . S
C989 C991 1.327 . S
C989 H1012 0.950 . S
C990 C989 1.349 . S
C990 C1002 1.349 . S
C991 C989 1.327 . S
C991 C1007 1.429 . S
C991 H1013 0.950 . S
C992 H988 0.949 . S
C992 C1000 1.574 . S
C992 C1008 1.368 . S
H993 C1001 0.950 . S
H994 C999 0.950 . S
H995 C1000 0.949 . S
H996 C1002 0.950 . S
H997 C1003 0.950 . S
H998 C1004 0.949 . S
C999 H994 0.950 . S
C999 C1001 1.327 . S
C999 C1005 1.429 . S
C1000 C992 1.574 . S
C1000 H995 0.949 . S
C1000 C1006 1.368 . S
C1001 C985 1.349 . S
C1001 H993 0.950 . S
C1001 C999 1.327 . S
C1002 C990 1.349 . S
C1002 H996 0.950 . S
C1002 C1003 1.327 . S
C1003 H997 0.950 . S
C1003 C1002 1.327 . S
C1003 C1007 1.429 . S
C1004 C987 1.574 . S
C1004 H998 0.949 . S
C1004 C1008 1.368 . S
C1005 C986 1.429 . S
C1005 C999 1.429 . S
C1005 C1006 1.523 . S
C1006 C987 1.368 . S
C1006 C1000 1.368 . S
C1006 C1005 1.523 . S
C1007 C991 1.429 . S
C1007 C1003 1.429 . S
C1007 C1008 1.523 . S
C1008 C992 1.368 . S
C1008 C1004 1.368 . S
C1008 C1007 1.523 . S
H1009 C984 0.950 1_556 S
H1010 C986 0.950 . S
H1011 C987 0.949 . S
H1012 C989 0.950 . S
H1013 C991 0.950 . S
C1014 C1015 1.349 . S
C1014 C1016 1.327 . S
C1014 H1039 0.950 . S
C1015 C1014 1.349 . S
C1015 C1031 1.349 1_565 S
C1016 C1014 1.327 . S
C1016 C1035 1.429 . S
C1016 H1040 0.950 . S
C1017 C1034 1.574 . S
C1017 C1036 1.368 . S
C1017 H1041 0.949 1_565 S
H1018 C1022 0.949 . S
C1019 C1020 1.349 . S
C1019 C1021 1.327 . S
C1019 H1042 0.950 1_554 S
C1020 C1019 1.349 . S
C1020 C1032 1.349 . S
C1021 C1019 1.327 . S
C1021 C1037 1.429 . S
C1021 H1043 0.950 . S
C1022 H1018 0.949 . S
C1022 C1030 1.574 . S
C1022 C1038 1.368 . S
H1023 C1031 0.950 . S
H1024 C1029 0.959 . S
H1025 C1030 0.949 . S
H1026 C1032 0.950 . S
H1027 C1033 0.950 . S
H1028 C1034 0.949 . S
C1029 H1024 0.959 . S
C1029 C1031 1.327 . S
C1029 C1035 1.420 1_545 S
C1030 C1022 1.574 . S
C1030 H1025 0.949 . S
C1030 C1036 1.368 . S
C1031 C1015 1.349 1_545 S
C1031 H1023 0.950 . S
C1031 C1029 1.327 . S
C1032 C1020 1.349 . S
C1032 H1026 0.950 . S
C1032 C1033 1.327 . S
C1033 H1027 0.950 . S
C1033 C1032 1.327 . S
C1033 C1037 1.429 . S
C1034 C1017 1.574 . S
C1034 H1028 0.949 . S
C1034 C1038 1.368 . S
C1035 C1016 1.429 . S
C1035 C1029 1.420 1_565 S
C1035 C1036 1.523 . S
C1036 C1017 1.368 . S
C1036 C1030 1.368 . S
C1036 C1035 1.523 . S
C1037 C1021 1.429 . S
C1037 C1033 1.429 . S
C1037 C1038 1.523 . S
C1038 C1022 1.368 . S
C1038 C1034 1.368 . S
C1038 C1037 1.523 . S
H1039 C1014 0.950 . S
H1040 C1016 0.950 . S
H1041 C1017 0.949 1_545 S
H1042 C1019 0.950 1_556 S
H1043 C1021 0.950 . S
C1044 C1045 1.349 . S
C1044 C1046 1.327 . S
C1044 H1069 0.950 . S
C1045 C1044 1.349 . S
C1045 C1061 1.349 . S
C1046 C1044 1.327 . S
C1046 C1065 1.429 . S
C1046 H1070 0.950 . S
C1047 C1064 1.574 . S
C1047 C1066 1.368 . S
C1047 H1071 0.949 . S
H1048 C1052 0.949 . S
C1049 C1050 1.349 . S
C1049 C1051 1.327 . S
C1049 H1072 0.950 . S
C1050 C1049 1.349 . S
C1050 C1062 1.349 . S
C1051 C1049 1.327 . S
C1051 C1067 1.429 . S
C1051 H1073 0.950 . S
C1052 H1048 0.949 . S
C1052 C1060 1.574 . S
C1052 C1068 1.368 . S
H1053 C1061 0.950 . S
H1054 C1059 0.950 . S
H1055 C1060 0.949 . S
H1056 C1062 0.950 . S
H1057 C1063 0.950 . S
H1058 C1064 0.949 . S
C1059 H1054 0.950 . S
C1059 C1061 1.327 . S
C1059 C1065 1.429 . S
C1060 C1052 1.574 . S
C1060 H1055 0.949 . S
C1060 C1066 1.368 . S
C1061 C1045 1.349 . S
C1061 H1053 0.950 . S
C1061 C1059 1.327 . S
C1062 C1050 1.349 . S
C1062 H1056 0.950 . S
C1062 C1063 1.327 . S
C1063 H1057 0.950 . S
C1063 C1062 1.327 . S
C1063 C1067 1.429 . S
C1064 C1047 1.574 . S
C1064 H1058 0.949 . S
C1064 C1068 1.368 . S
C1065 C1046 1.429 . S
C1065 C1059 1.429 . S
C1065 C1066 1.523 . S
C1066 C1047 1.368 . S
C1066 C1060 1.368 . S
C1066 C1065 1.523 . S
C1067 C1051 1.429 . S
C1067 C1063 1.429 . S
C1067 C1068 1.523 . S
C1068 C1052 1.368 . S
C1068 C1064 1.368 . S
C1068 C1067 1.523 . S
H1069 C1044 0.950 . S
H1070 C1046 0.950 . S
H1071 C1047 0.949 . S
H1072 C1049 0.950 . S
H1073 C1051 0.950 . S
C1074 C1075 1.349 . S
C1074 C1076 1.327 . S
C1074 H1099 0.950 . S
C1075 C1074 1.349 . S
C1075 C1091 1.349 . S
C1076 C1074 1.327 . S
C1076 C1095 1.429 . S
C1076 H1100 0.950 . S
C1077 C1094 1.574 . S
C1077 C1096 1.368 . S
C1077 H1101 0.949 . S
H1078 C1082 0.949 1_455 S
C1079 C1080 1.349 . S
C1079 C1081 1.327 . S
C1079 H1102 0.950 . S
C1080 C1079 1.349 . S
C1080 C1092 1.349 1_655 S
C1081 C1079 1.327 . S
C1081 C1097 1.429 . S
C1081 H1103 0.950 . S
C1082 H1078 0.949 1_655 S
C1082 C1090 1.574 . S
C1082 C1098 1.368 . S
H1083 C1091 0.950 . S
H1084 C1089 0.950 . S
H1085 C1090 0.968 . S
H1086 C1092 0.950 . S
H1087 C1093 0.950 . S
H1088 C1094 0.949 . S
C1089 H1084 0.950 . S
C1089 C1091 1.327 . S
C1089 C1095 1.429 . S
C1090 C1082 1.574 . S
C1090 H1085 0.968 . S
C1090 C1096 1.368 . S
C1091 C1075 1.349 . S
C1091 H1083 0.950 . S
C1091 C1089 1.327 . S
C1092 C1080 1.349 1_455 S
C1092 H1086 0.950 . S
C1092 C1093 1.327 . S
C1093 H1087 0.950 . S
C1093 C1092 1.327 . S
C1093 C1097 1.429 1_455 S
C1094 C1077 1.574 . S
C1094 H1088 0.949 . S
C1094 C1098 1.368 . S
C1095 C1076 1.429 . S
C1095 C1089 1.429 . S
C1095 C1096 1.523 . S
C1096 C1077 1.368 . S
C1096 C1090 1.368 . S
C1096 C1095 1.523 . S
C1097 C1081 1.429 . S
C1097 C1093 1.429 1_655 S
C1097 C1098 1.523 . S
C1098 C1082 1.368 . S
C1098 C1094 1.368 . S
C1098 C1097 1.523 . S
H1099 C1074 0.950 . S
H1100 C1076 0.950 . S
H1101 C1077 0.949 . S
H1102 C1079 0.950 . S
H1103 C1081 0.950 . S
C1104 C1105 1.349 . S
C1104 C1106 1.327 . S
C1104 H1129 0.950 . S
C1105 C1104 1.349 . S
C1105 C1121 1.349 . S
C1106 C1104 1.327 . S
C1106 C1125 1.429 . S
C1106 H1130 0.950 . S
C1107 C1124 1.574 . S
C1107 C1126 1.368 . S
C1107 H1131 0.949 . S
H1108 C1112 0.949 . S
C1109 C1110 1.349 . S
C1109 C1111 1.327 . S
C1109 H1132 0.950 . S
C1110 C1109 1.349 . S
C1110 C1122 1.349 . S
C1111 C1109 1.327 . S
C1111 C1127 1.429 . S
C1111 H1133 0.950 . S
C1112 H1108 0.949 . S
C1112 C1120 1.574 . S
C1112 C1128 1.368 . S
H1113 C1121 0.950 . S
H1114 C1119 0.950 . S
H1115 C1120 0.949 . S
H1116 C1122 0.950 . S
H1117 C1123 0.950 . S
H1118 C1124 0.949 . S
C1119 H1114 0.950 . S
C1119 C1121 1.327 . S
C1119 C1125 1.429 . S
C1120 C1112 1.574 . S
C1120 H1115 0.949 . S
C1120 C1126 1.368 . S
C1121 C1105 1.349 . S
C1121 H1113 0.950 . S
C1121 C1119 1.327 . S
C1122 C1110 1.349 . S
C1122 H1116 0.950 . S
C1122 C1123 1.327 . S
C1123 H1117 0.950 . S
C1123 C1122 1.327 . S
C1123 C1127 1.429 . S
C1124 C1107 1.574 . S
C1124 H1118 0.949 . S
C1124 C1128 1.368 . S
C1125 C1106 1.429 . S
C1125 C1119 1.429 . S
C1125 C1126 1.523 . S
C1126 C1107 1.368 . S
C1126 C1120 1.368 . S
C1126 C1125 1.523 . S
C1127 C1111 1.429 . S
C1127 C1123 1.429 . S
C1127 C1128 1.523 . S
C1128 C1112 1.368 . S
C1128 C1124 1.368 . S
C1128 C1127 1.523 . S
H1129 C1104 0.950 . S
H1130 C1106 0.950 . S
H1131 C1107 0.949 . S
H1132 C1109 0.950 . S
H1133 C1111 0.950 . S
C1134 C1135 1.349 . S
C1134 C1136 1.327 . S
C1134 H1159 0.941 1_655 S
C1135 C1134 1.349 . S
C1135 C1151 1.349 . S
C1136 C1134 1.327 . S
C1136 C1155 1.429 . S
C1136 H1160 0.950 . S
C1137 C1154 1.574 . S
C1137 C1156 1.368 . S
C1137 H1161 0.949 . S
H1138 C1142 0.949 . S
C1139 C1140 1.349 . S
C1139 C1141 1.327 . S
C1139 H1162 0.950 . S
C1140 C1139 1.349 . S
C1140 C1152 1.349 . S
C1141 C1139 1.327 . S
C1141 C1157 1.429 . S
C1141 H1163 0.950 . S
C1142 H1138 0.949 . S
C1142 C1150 1.574 . S
C1142 C1158 1.368 . S
H1143 C1151 0.950 . S
H1144 C1149 0.950 . S
H1145 C1150 0.949 . S
H1146 C1152 0.950 1_554 S
H1147 C1153 0.950 . S
H1148 C1154 0.949 . S
C1149 H1144 0.950 . S
C1149 C1151 1.327 . S
C1149 C1155 1.429 . S
C1150 C1142 1.574 . S
C1150 H1145 0.949 . S
C1150 C1156 1.368 . S
C1151 C1135 1.349 . S
C1151 H1143 0.950 . S
C1151 C1149 1.327 . S
C1152 C1140 1.349 . S
C1152 H1146 0.950 1_556 S
C1152 C1153 1.327 . S
C1153 H1147 0.950 . S
C1153 C1152 1.327 . S
C1153 C1157 1.429 . S
C1154 C1137 1.574 . S
C1154 H1148 0.949 . S
C1154 C1158 1.368 . S
C1155 C1136 1.429 . S
C1155 C1149 1.429 . S
C1155 C1156 1.523 . S
C1156 C1137 1.368 . S
C1156 C1150 1.368 . S
C1156 C1155 1.523 . S
C1157 C1141 1.429 . S
C1157 C1153 1.429 . S
C1157 C1158 1.523 . S
C1158 C1142 1.368 . S
C1158 C1154 1.368 . S
C1158 C1157 1.523 . S
H1159 C1134 0.941 1_455 S
H1160 C1136 0.950 . S
H1161 C1137 0.949 . S
H1162 C1139 0.950 . S
H1163 C1141 0.950 . S
C1164 C1165 1.349 . S
C1164 C1166 1.327 . S
C1164 H1189 0.950 . S
C1165 C1164 1.349 . S
C1165 C1181 1.349 . S
C1166 C1164 1.327 . S
C1166 C1185 1.429 . S
C1166 H1190 0.950 . S
C1167 C1184 1.574 . S
C1167 C1186 1.368 . S
C1167 H1191 0.949 . S
H1168 C1172 0.949 . S
C1169 C1170 1.349 . S
C1169 C1171 1.327 . S
C1169 H1192 0.950 . S
C1170 C1169 1.349 . S
C1170 C1182 1.349 . S
C1171 C1169 1.327 . S
C1171 C1187 1.429 . S
C1171 H1193 0.950 . S
C1172 H1168 0.949 . S
C1172 C1180 1.574 . S
C1172 C1188 1.368 . S
H1173 C1181 0.950 . S
H1174 C1179 0.950 . S
H1175 C1180 0.949 . S
H1176 C1182 0.950 . S
H1177 C1183 0.950 . S
H1178 C1184 0.949 . S
C1179 H1174 0.950 . S
C1179 C1181 1.327 . S
C1179 C1185 1.429 . S
C1180 C1172 1.574 . S
C1180 H1175 0.949 . S
C1180 C1186 1.368 . S
C1181 C1165 1.349 . S
C1181 H1173 0.950 . S
C1181 C1179 1.327 . S
C1182 C1170 1.349 . S
C1182 H1176 0.950 . S
C1182 C1183 1.327 . S
C1183 H1177 0.950 . S
C1183 C1182 1.327 . S
C1183 C1187 1.429 . S
C1184 C1167 1.574 . S
C1184 H1178 0.949 . S
C1184 C1188 1.368 . S
C1185 C1166 1.429 . S
C1185 C1179 1.429 . S
C1185 C1186 1.523 . S
C1186 C1167 1.368 . S
C1186 C1180 1.368 . S
C1186 C1185 1.523 . S
C1187 C1171 1.429 . S
C1187 C1183 1.429 . S
C1187 C1188 1.523 . S
C1188 C1172 1.368 . S
C1188 C1184 1.368 . S
C1188 C1187 1.523 . S
H1189 C1164 0.950 . S
H1190 C1166 0.950 . S
H1191 C1167 0.949 . S
H1192 C1169 0.950 . S
H1193 C1171 0.950 . S
C1194 C1195 1.349 . S
C1194 C1196 1.327 . S
C1194 H1219 0.950 . S
C1195 C1194 1.349 . S
C1195 C1211 1.349 . S
C1196 C1194 1.327 . S
C1196 C1215 1.429 . S
C1196 H1220 0.950 . S
C1197 C1214 1.574 . S
C1197 C1216 1.368 . S
C1197 H1221 0.949 . S
H1198 C1202 0.949 . S
C1199 C1200 1.349 . S
C1199 C1201 1.327 . S
C1199 H1222 0.950 . S
C1200 C1199 1.349 . S
C1200 C1212 1.349 . S
C1201 C1199 1.327 . S
C1201 C1217 1.429 . S
C1201 H1223 0.950 . S
C1202 H1198 0.949 . S
C1202 C1210 1.574 . S
C1202 C1218 1.368 . S
H1203 C1211 0.950 . S
H1204 C1209 0.950 . S
H1205 C1210 0.949 . S
H1206 C1212 0.950 . S
H1207 C1213 0.950 . S
H1208 C1214 0.949 . S
C1209 H1204 0.950 . S
C1209 C1211 1.327 . S
C1209 C1215 1.429 . S
C1210 C1202 1.574 . S
C1210 H1205 0.949 . S
C1210 C1216 1.368 . S
C1211 C1195 1.349 . S
C1211 H1203 0.950 . S
C1211 C1209 1.327 . S
C1212 C1200 1.349 . S
C1212 H1206 0.950 . S
C1212 C1213 1.327 . S
C1213 H1207 0.950 . S
C1213 C1212 1.327 . S
C1213 C1217 1.429 . S
C1214 C1197 1.574 . S
C1214 H1208 0.949 . S
C1214 C1218 1.368 . S
C1215 C1196 1.429 . S
C1215 C1209 1.429 . S
C1215 C1216 1.523 . S
C1216 C1197 1.368 . S
C1216 C1210 1.368 . S
C1216 C1215 1.523 . S
C1217 C1201 1.429 . S
C1217 C1213 1.429 . S
C1217 C1218 1.523 . S
C1218 C1202 1.368 . S
C1218 C1214 1.368 . S
C1218 C1217 1.523 . S
H1219 C1194 0.950 . S
H1220 C1196 0.950 . S
H1221 C1197 0.949 . S
H1222 C1199 0.950 . S
H1223 C1201 0.950 . S
C1224 C1225 1.349 . S
C1224 C1226 1.327 . S
C1224 H1249 0.950 . S
C1225 C1224 1.349 . S
C1225 C1241 1.349 . S
C1226 C1224 1.327 . S
C1226 C1245 1.429 . S
C1226 H1250 0.950 . S
C1227 C1244 1.574 . S
C1227 C1246 1.368 . S
C1227 H1251 0.949 . S
H1228 C1232 0.949 . S
C1229 C1230 1.349 . S
C1229 C1231 1.327 . S
C1229 H1252 0.950 . S
C1230 C1229 1.349 . S
C1230 C1242 1.349 . S
C1231 C1229 1.327 . S
C1231 C1247 1.429 . S
C1231 H1253 0.950 . S
C1232 H1228 0.949 . S
C1232 C1240 1.574 . S
C1232 C1248 1.368 . S
H1233 C1241 0.950 1_545 S
H1234 C1239 0.950 . S
H1235 C1240 0.949 . S
H1236 C1242 0.950 . S
H1237 C1243 0.950 . S
H1238 C1244 0.949 . S
C1239 H1234 0.950 . S
C1239 C1241 1.327 . S
C1239 C1245 1.429 . S
C1240 C1232 1.574 . S
C1240 H1235 0.949 . S
C1240 C1246 1.368 . S
C1241 C1225 1.349 . S
C1241 H1233 0.950 1_565 S
C1241 C1239 1.327 . S
C1242 C1230 1.349 . S
C1242 H1236 0.950 . S
C1242 C1243 1.327 . S
C1243 H1237 0.950 . S
C1243 C1242 1.327 . S
C1243 C1247 1.429 . S
C1244 C1227 1.574 . S
C1244 H1238 0.949 . S
C1244 C1248 1.368 . S
C1245 C1226 1.429 . S
C1245 C1239 1.429 . S
C1245 C1246 1.523 . S
C1246 C1227 1.368 . S
C1246 C1240 1.368 . S
C1246 C1245 1.523 . S
C1247 C1231 1.429 . S
C1247 C1243 1.429 . S
C1247 C1248 1.523 . S
C1248 C1232 1.368 . S
C1248 C1244 1.368 . S
C1248 C1247 1.523 . S
H1249 C1224 0.950 . S
H1250 C1226 0.950 . S
H1251 C1227 0.949 . S
H1252 C1229 0.950 . S
H1253 C1231 0.950 . S
C1254 C1255 1.349 . S
C1254 C1256 1.327 . S
C1254 H1279 0.950 . S
C1255 C1254 1.349 . S
C1255 C1271 1.349 . S
C1256 C1254 1.327 . S
C1256 C1275 1.429 . S
C1256 H1280 0.950 . S
C1257 C1274 1.574 . S
C1257 C1276 1.368 . S
C1257 H1281 0.949 . S
H1258 C1262 0.949 . S
C1259 C1260 1.349 . S
C1259 C1261 1.327 . S
C1259 H1282 0.950 . S
C1260 C1259 1.349 . S
C1260 C1272 1.349 . S
C1261 C1259 1.327 . S
C1261 C1277 1.429 . S
C1261 H1283 0.950 . S
C1262 H1258 0.949 . S
C1262 C1270 1.574 . S
C1262 C1278 1.368 . S
H1263 C1271 0.950 . S
H1264 C1269 0.950 . S
H1265 C1270 0.949 . S
H1266 C1272 0.950 . S
H1267 C1273 0.950 . S
H1268 C1274 0.949 . S
C1269 H1264 0.950 . S
C1269 C1271 1.327 . S
C1269 C1275 1.429 . S
C1270 C1262 1.574 . S
C1270 H1265 0.949 . S
C1270 C1276 1.368 . S
C1271 C1255 1.349 . S
C1271 H1263 0.950 . S
C1271 C1269 1.327 . S
C1272 C1260 1.349 . S
C1272 H1266 0.950 . S
C1272 C1273 1.327 . S
C1273 H1267 0.950 . S
C1273 C1272 1.327 . S
C1273 C1277 1.429 . S
C1274 C1257 1.574 . S
C1274 H1268 0.949 . S
C1274 C1278 1.368 . S
C1275 C1256 1.429 . S
C1275 C1269 1.429 . S
C1275 C1276 1.523 . S
C1276 C1257 1.368 . S
C1276 C1270 1.368 . S
C1276 C1275 1.523 . S
C1277 C1261 1.429 . S
C1277 C1273 1.429 . S
C1277 C1278 1.523 . S
C1278 C1262 1.368 . S
C1278 C1274 1.368 . S
C1278 C1277 1.523 . S
H1279 C1254 0.950 . S
H1280 C1256 0.950 . S
H1281 C1257 0.949 . S
H1282 C1259 0.950 . S
H1283 C1261 0.950 . S
C1284 C1285 1.349 . S
C1284 C1286 1.327 . S
C1284 H1309 0.950 . S
C1285 C1284 1.349 . S
C1285 C1301 1.349 . S
C1286 C1284 1.327 . S
C1286 C1305 1.429 . S
C1286 H1310 0.950 . S
C1287 C1304 1.574 . S
C1287 C1306 1.368 . S
C1287 H1311 0.949 . S
H1288 C1292 0.949 . S
C1289 C1290 1.349 . S
C1289 C1291 1.327 . S
C1289 H1312 0.950 . S
C1290 C1289 1.349 . S
C1290 C1302 1.349 . S
C1291 C1289 1.327 . S
C1291 C1307 1.429 . S
C1291 H1313 0.950 . S
C1292 H1288 0.949 . S
C1292 C1300 1.574 . S
C1292 C1308 1.368 . S
H1293 C1301 0.950 . S
H1294 C1299 0.950 . S
H1295 C1300 0.949 . S
H1296 C1302 0.950 . S
H1297 C1303 0.950 . S
H1298 C1304 0.949 . S
C1299 H1294 0.950 . S
C1299 C1301 1.327 . S
C1299 C1305 1.429 . S
C1300 C1292 1.574 . S
C1300 H1295 0.949 . S
C1300 C1306 1.368 . S
C1301 C1285 1.349 . S
C1301 H1293 0.950 . S
C1301 C1299 1.327 . S
C1302 C1290 1.349 . S
C1302 H1296 0.950 . S
C1302 C1303 1.327 . S
C1303 H1297 0.950 . S
C1303 C1302 1.327 . S
C1303 C1307 1.429 . S
C1304 C1287 1.574 . S
C1304 H1298 0.949 . S
C1304 C1308 1.368 . S
C1305 C1286 1.429 . S
C1305 C1299 1.429 . S
C1305 C1306 1.523 . S
C1306 C1287 1.368 . S
C1306 C1300 1.368 . S
C1306 C1305 1.523 . S
C1307 C1291 1.429 . S
C1307 C1303 1.429 . S
C1307 C1308 1.523 . S
C1308 C1292 1.368 . S
C1308 C1304 1.368 . S
C1308 C1307 1.523 . S
H1309 C1284 0.950 . S
H1310 C1286 0.950 . S
H1311 C1287 0.949 . S
H1312 C1289 0.950 . S
H1313 C1291 0.950 . S
C1314 C1315 1.349 . S
C1314 C1316 1.327 . S
C1314 H1339 0.950 . S
C1315 C1314 1.349 . S
C1315 C1331 1.349 . S
C1316 C1314 1.327 . S
C1316 C1335 1.429 . S
C1316 H1340 0.950 . S
C1317 C1334 1.574 . S
C1317 C1336 1.368 . S
C1317 H1341 0.949 . S
H1318 C1322 0.949 . S
C1319 C1320 1.349 . S
C1319 C1321 1.327 . S
C1319 H1342 0.950 . S
C1320 C1319 1.349 . S
C1320 C1332 1.349 . S
C1321 C1319 1.327 . S
C1321 C1337 1.429 . S
C1321 H1343 0.950 . S
C1322 H1318 0.949 . S
C1322 C1330 1.574 . S
C1322 C1338 1.368 . S
H1323 C1331 0.950 . S
H1324 C1329 0.950 . S
H1325 C1330 0.949 . S
H1326 C1332 0.950 . S
H1327 C1333 0.950 . S
H1328 C1334 0.949 . S
C1329 H1324 0.950 . S
C1329 C1331 1.327 . S
C1329 C1335 1.429 . S
C1330 C1322 1.574 . S
C1330 H1325 0.949 . S
C1330 C1336 1.368 . S
C1331 C1315 1.349 . S
C1331 H1323 0.950 . S
C1331 C1329 1.327 . S
C1332 C1320 1.349 . S
C1332 H1326 0.950 . S
C1332 C1333 1.327 . S
C1333 H1327 0.950 . S
C1333 C1332 1.327 . S
C1333 C1337 1.429 . S
C1334 C1317 1.574 . S
C1334 H1328 0.949 . S
C1334 C1338 1.368 . S
C1335 C1316 1.429 . S
C1335 C1329 1.429 . S
C1335 C1336 1.523 . S
C1336 C1317 1.368 . S
C1336 C1330 1.368 . S
C1336 C1335 1.523 . S
C1337 C1321 1.429 . S
C1337 C1333 1.429 . S
C1337 C1338 1.523 . S
C1338 C1322 1.368 . S
C1338 C1334 1.368 . S
C1338 C1337 1.523 . S
H1339 C1314 0.950 . S
H1340 C1316 0.950 . S
H1341 C1317 0.949 . S
H1342 C1319 0.950 . S
H1343 C1321 0.950 . S
C1344 C1345 1.349 . S
C1344 C1346 1.327 . S
C1344 H1369 0.950 . S
C1345 C1344 1.349 . S
C1345 C1361 1.349 . S
C1346 C1344 1.327 . S
C1346 C1365 1.429 . S
C1346 H1370 0.914 1_545 S
C1347 C1364 1.574 . S
C1347 C1366 1.368 . S
C1347 H1371 0.949 . S
H1348 C1352 0.949 . S
C1349 C1350 1.349 . S
C1349 C1351 1.317 1_565 S
C1349 H1372 0.956 . S
C1350 C1349 1.349 . S
C1350 C1362 1.349 . S
C1351 C1349 1.317 1_545 S
C1351 C1367 1.411 1_545 S
C1351 H1373 0.979 . S
C1352 H1348 0.949 . S
C1352 C1360 1.574 . S
C1352 C1368 1.368 . S
H1353 C1361 0.950 . S
H1354 C1359 0.950 . S
H1355 C1360 0.949 . S
H1356 C1362 0.950 . S
H1357 C1363 0.950 . S
H1358 C1364 0.949 . S
C1359 H1354 0.950 . S
C1359 C1361 1.327 . S
C1359 C1365 1.429 . S
C1360 C1352 1.574 . S
C1360 H1355 0.949 . S
C1360 C1366 1.368 1_565 S
C1361 C1345 1.349 . S
C1361 H1353 0.950 . S
C1361 C1359 1.327 . S
C1362 C1350 1.349 . S
C1362 H1356 0.950 . S
C1362 C1363 1.327 . S
C1363 H1357 0.950 . S
C1363 C1362 1.327 . S
C1363 C1367 1.429 . S
C1364 C1347 1.574 . S
C1364 H1358 0.949 . S
C1364 C1368 1.368 1_545 S
C1365 C1346 1.429 . S
C1365 C1359 1.429 . S
C1365 C1366 1.523 . S
C1366 C1347 1.368 . S
C1366 C1360 1.368 1_545 S
C1366 C1365 1.523 . S
C1367 C1351 1.411 1_565 S
C1367 C1363 1.429 . S
C1367 C1368 1.523 . S
C1368 C1352 1.368 . S
C1368 C1364 1.368 1_565 S
C1368 C1367 1.523 . S
H1369 C1344 0.950 . S
H1370 C1346 0.914 1_565 S
H1371 C1347 0.949 . S
H1372 C1349 0.956 . S
H1373 C1351 0.979 . S
C1374 C1375 1.349 . S
C1374 C1376 1.327 . S
C1374 H1399 0.950 . S
C1375 C1374 1.349 . S
C1375 C1391 1.349 . S
C1376 C1374 1.327 . S
C1376 C1395 1.429 . S
C1376 H1400 0.922 1_455 S
C1377 C1394 1.574 . S
C1377 C1396 1.368 . S
C1377 H1401 0.949 . S
H1378 C1382 0.949 . S
C1379 C1380 1.349 . S
C1379 C1381 1.315 1_655 S
C1379 H1402 0.949 . S
C1380 C1379 1.349 . S
C1380 C1392 1.349 . S
C1381 C1379 1.315 1_455 S
C1381 C1397 1.420 1_455 S
C1381 H1403 0.972 . S
C1382 H1378 0.949 . S
C1382 C1390 1.574 . S
C1382 C1398 1.368 . S
H1383 C1391 0.950 . S
H1384 C1389 0.950 . S
H1385 C1390 0.949 . S
H1386 C1392 0.950 . S
H1387 C1393 0.950 . S
H1388 C1394 0.949 . S
C1389 H1384 0.950 . S
C1389 C1391 1.327 . S
C1389 C1395 1.429 . S
C1390 C1382 1.574 . S
C1390 H1385 0.949 . S
C1390 C1396 1.368 1_655 S
C1391 C1375 1.349 . S
C1391 H1383 0.950 . S
C1391 C1389 1.327 . S
C1392 C1380 1.349 . S
C1392 H1386 0.950 . S
C1392 C1393 1.327 . S
C1393 H1387 0.950 . S
C1393 C1392 1.327 . S
C1393 C1397 1.429 . S
C1394 C1377 1.574 . S
C1394 H1388 0.949 . S
C1394 C1398 1.368 1_455 S
C1395 C1376 1.429 . S
C1395 C1389 1.429 . S
C1395 C1396 1.523 . S
C1396 C1377 1.368 . S
C1396 C1390 1.368 1_455 S
C1396 C1395 1.523 . S
C1397 C1381 1.420 1_655 S
C1397 C1393 1.429 . S
C1397 C1398 1.523 . S
C1398 C1382 1.368 . S
C1398 C1394 1.368 1_655 S
C1398 C1397 1.523 . S
H1399 C1374 0.950 . S
H1400 C1376 0.922 1_655 S
H1401 C1377 0.949 . S
H1402 C1379 0.949 . S
H1403 C1381 0.972 . S
C1404 C1405 1.349 . S
C1404 C1406 1.327 . S
C1404 H1429 0.950 . S
C1405 C1404 1.349 . S
C1405 C1421 1.349 . S
C1406 C1404 1.327 . S
C1406 C1425 1.429 . S
C1406 H1430 0.950 . S
C1407 C1424 1.574 . S
C1407 C1426 1.368 . S
C1407 H1431 0.949 . S
H1408 C1412 0.949 . S
C1409 C1410 1.349 . S
C1409 C1411 1.327 . S
C1409 H1432 0.950 . S
C1410 C1409 1.349 . S
C1410 C1422 1.349 . S
C1411 C1409 1.327 . S
C1411 C1427 1.429 . S
C1411 H1433 0.950 . S
C1412 H1408 0.949 . S
C1412 C1420 1.574 . S
C1412 C1428 1.368 . S
H1413 C1421 0.950 . S
H1414 C1419 0.950 . S
H1415 C1420 0.949 . S
H1416 C1422 0.950 . S
H1417 C1423 0.950 . S
H1418 C1424 0.949 . S
C1419 H1414 0.950 . S
C1419 C1421 1.327 . S
C1419 C1425 1.429 . S
C1420 C1412 1.574 . S
C1420 H1415 0.949 . S
C1420 C1426 1.368 . S
C1421 C1405 1.349 . S
C1421 H1413 0.950 . S
C1421 C1419 1.327 . S
C1422 C1410 1.349 . S
C1422 H1416 0.950 . S
C1422 C1423 1.327 . S
C1423 H1417 0.950 . S
C1423 C1422 1.327 . S
C1423 C1427 1.429 . S
C1424 C1407 1.574 . S
C1424 H1418 0.949 . S
C1424 C1428 1.368 . S
C1425 C1406 1.429 . S
C1425 C1419 1.429 . S
C1425 C1426 1.523 . S
C1426 C1407 1.368 . S
C1426 C1420 1.368 . S
C1426 C1425 1.523 . S
C1427 C1411 1.429 . S
C1427 C1423 1.429 . S
C1427 C1428 1.523 . S
C1428 C1412 1.368 . S
C1428 C1424 1.368 . S
C1428 C1427 1.523 . S
H1429 C1404 0.950 . S
H1430 C1406 0.950 . S
H1431 C1407 0.949 . S
H1432 C1409 0.950 . S
H1433 C1411 0.950 . S
C1434 C1435 1.349 . S
C1434 C1436 1.327 . S
C1434 H1459 0.950 . S
C1435 C1434 1.349 . S
C1435 C1451 1.349 . S
C1436 C1434 1.327 . S
C1436 C1455 1.429 . S
C1436 H1460 0.950 . S
C1437 C1454 1.598 . S
C1437 C1456 1.368 . S
C1437 H1461 0.949 . S
H1438 C1442 0.949 . S
C1439 C1440 1.349 . S
C1439 C1441 1.327 . S
C1439 H1462 0.950 . S
C1440 C1439 1.349 . S
C1440 C1452 1.349 . S
C1441 C1439 1.327 . S
C1441 C1457 1.429 . S
C1441 H1463 0.950 . S
C1442 H1438 0.949 . S
C1442 C1450 1.574 1_565 S
C1442 C1458 1.368 . S
H1443 C1451 0.950 . S
H1444 C1449 0.950 . S
H1445 C1450 0.949 . S
H1446 C1452 0.950 . S
H1447 C1453 0.950 . S
H1448 C1454 0.959 1_565 S
C1449 H1444 0.950 . S
C1449 C1451 1.327 . S
C1449 C1455 1.429 . S
C1450 C1442 1.574 1_545 S
C1450 H1445 0.949 . S
C1450 C1456 1.368 . S
C1451 C1435 1.349 . S
C1451 H1443 0.950 . S
C1451 C1449 1.327 . S
C1452 C1440 1.349 . S
C1452 H1446 0.950 . S
C1452 C1453 1.327 . S
C1453 H1447 0.950 . S
C1453 C1452 1.327 . S
C1453 C1457 1.429 . S
C1454 C1437 1.598 . S
C1454 H1448 0.959 1_545 S
C1454 C1458 1.335 1_545 S
C1455 C1436 1.429 . S
C1455 C1449 1.429 . S
C1455 C1456 1.523 . S
C1456 C1437 1.368 . S
C1456 C1450 1.368 . S
C1456 C1455 1.523 . S
C1457 C1441 1.429 . S
C1457 C1453 1.429 . S
C1457 C1458 1.523 . S
C1458 C1442 1.368 . S
C1458 C1454 1.335 1_565 S
C1458 C1457 1.523 . S
H1459 C1434 0.950 . S
H1460 C1436 0.950 . S
H1461 C1437 0.949 . S
H1462 C1439 0.950 . S
H1463 C1441 0.950 . S
C1464 C1465 1.349 . S
C1464 C1466 1.327 . S
C1464 H1489 0.950 . S
C1465 C1464 1.349 . S
C1465 C1481 1.349 . S
C1466 C1464 1.327 . S
C1466 C1485 1.429 . S
C1466 H1490 0.950 . S
C1467 C1484 1.574 . S
C1467 C1486 1.368 . S
C1467 H1491 0.949 . S
H1468 C1472 0.949 . S
C1469 C1470 1.349 . S
C1469 C1471 1.327 . S
C1469 H1492 0.950 . S
C1470 C1469 1.349 . S
C1470 C1482 1.349 . S
C1471 C1469 1.327 . S
C1471 C1487 1.429 . S
C1471 H1493 0.950 . S
C1472 H1468 0.949 . S
C1472 C1480 1.574 1_655 S
C1472 C1488 1.368 . S
H1473 C1481 0.950 . S
H1474 C1479 0.950 . S
H1475 C1480 0.949 . S
H1476 C1482 0.950 . S
H1477 C1483 0.950 . S
H1478 C1484 0.949 . S
C1479 H1474 0.950 . S
C1479 C1481 1.327 . S
C1479 C1485 1.429 . S
C1480 C1472 1.574 1_455 S
C1480 H1475 0.949 . S
C1480 C1486 1.368 . S
C1481 C1465 1.349 . S
C1481 H1473 0.950 . S
C1481 C1479 1.327 . S
C1482 C1470 1.349 . S
C1482 H1476 0.950 . S
C1482 C1483 1.327 . S
C1483 H1477 0.950 . S
C1483 C1482 1.327 . S
C1483 C1487 1.429 . S
C1484 C1467 1.574 . S
C1484 H1478 0.949 . S
C1484 C1488 1.368 1_455 S
C1485 C1466 1.429 . S
C1485 C1479 1.429 . S
C1485 C1486 1.523 . S
C1486 C1467 1.368 . S
C1486 C1480 1.368 . S
C1486 C1485 1.523 . S
C1487 C1471 1.429 . S
C1487 C1483 1.429 . S
C1487 C1488 1.523 . S
C1488 C1472 1.368 . S
C1488 C1484 1.368 1_655 S
C1488 C1487 1.523 . S
H1489 C1464 0.950 . S
H1490 C1466 0.950 . S
H1491 C1467 0.949 . S
H1492 C1469 0.950 . S
H1493 C1471 0.950 . S
C1494 C1495 1.349 . S
C1494 C1496 1.327 . S
C1494 H1519 0.950 . S
C1495 C1494 1.349 . S
C1495 C1511 1.349 . S
C1496 C1494 1.327 . S
C1496 C1515 1.429 . S
C1496 H1520 0.950 . S
C1497 C1514 1.574 . S
C1497 C1516 1.368 . S
C1497 H1521 0.949 . S
H1498 C1502 0.949 . S
C1499 C1500 1.349 . S
C1499 C1501 1.327 . S
C1499 H1522 0.950 . S
C1500 C1499 1.349 . S
C1500 C1512 1.349 . S
C1501 C1499 1.327 . S
C1501 C1517 1.429 . S
C1501 H1523 0.950 . S
C1502 H1498 0.949 . S
C1502 C1510 1.574 . S
C1502 C1518 1.368 . S
H1503 C1511 0.950 . S
H1504 C1509 0.950 . S
H1505 C1510 0.949 . S
H1506 C1512 0.950 . S
H1507 C1513 0.950 . S
H1508 C1514 0.949 . S
C1509 H1504 0.950 . S
C1509 C1511 1.327 . S
C1509 C1515 1.429 . S
C1510 C1502 1.574 . S
C1510 H1505 0.949 . S
C1510 C1516 1.368 . S
C1511 C1495 1.349 . S
C1511 H1503 0.950 . S
C1511 C1509 1.327 . S
C1512 C1500 1.349 . S
C1512 H1506 0.950 . S
C1512 C1513 1.327 . S
C1513 H1507 0.950 . S
C1513 C1512 1.327 . S
C1513 C1517 1.429 . S
C1514 C1497 1.574 . S
C1514 H1508 0.949 . S
C1514 C1518 1.368 . S
C1515 C1496 1.429 . S
C1515 C1509 1.429 . S
C1515 C1516 1.523 . S
C1516 C1497 1.368 . S
C1516 C1510 1.368 . S
C1516 C1515 1.523 . S
C1517 C1501 1.429 . S
C1517 C1513 1.429 . S
C1517 C1518 1.523 . S
C1518 C1502 1.368 . S
C1518 C1514 1.368 . S
C1518 C1517 1.523 . S
H1519 C1494 0.950 . S
H1520 C1496 0.950 . S
H1521 C1497 0.949 . S
H1522 C1499 0.950 . S
H1523 C1501 0.950 . S
C1524 C1525 1.349 . S
C1524 C1526 1.327 . S
C1524 H1549 0.950 . S
C1525 C1524 1.349 . S
C1525 C1541 1.349 . S
C1526 C1524 1.327 . S
C1526 C1545 1.429 . S
C1526 H1550 0.950 . S
C1527 C1544 1.574 . S
C1527 C1546 1.368 . S
C1527 H1551 0.949 . S
H1528 C1532 0.949 . S
C1529 C1530 1.349 . S
C1529 C1531 1.327 . S
C1529 H1552 0.950 . S
C1530 C1529 1.349 . S
C1530 C1542 1.349 . S
C1531 C1529 1.327 . S
C1531 C1547 1.429 . S
C1531 H1553 0.950 . S
C1532 H1528 0.949 . S
C1532 C1540 1.574 . S
C1532 C1548 1.368 . S
H1533 C1541 0.950 . S
H1534 C1539 0.950 . S
H1535 C1540 0.949 . S
H1536 C1542 0.950 . S
H1537 C1543 0.950 . S
H1538 C1544 0.949 . S
C1539 H1534 0.950 . S
C1539 C1541 1.327 . S
C1539 C1545 1.429 . S
C1540 C1532 1.574 . S
C1540 H1535 0.949 . S
C1540 C1546 1.368 . S
C1541 C1525 1.349 . S
C1541 H1533 0.950 . S
C1541 C1539 1.327 . S
C1542 C1530 1.349 . S
C1542 H1536 0.950 . S
C1542 C1543 1.327 . S
C1543 H1537 0.950 . S
C1543 C1542 1.327 . S
C1543 C1547 1.429 . S
C1544 C1527 1.574 . S
C1544 H1538 0.949 . S
C1544 C1548 1.368 . S
C1545 C1526 1.429 . S
C1545 C1539 1.429 . S
C1545 C1546 1.523 . S
C1546 C1527 1.368 . S
C1546 C1540 1.368 . S
C1546 C1545 1.523 . S
C1547 C1531 1.429 . S
C1547 C1543 1.429 . S
C1547 C1548 1.523 . S
C1548 C1532 1.368 . S
C1548 C1544 1.368 . S
C1548 C1547 1.523 . S
H1549 C1524 0.950 . S
H1550 C1526 0.950 . S
H1551 C1527 0.949 . S
H1552 C1529 0.950 . S
H1553 C1531 0.950 . S
C1554 C1555 1.349 . S
C1554 C1556 1.327 . S
C1554 H1579 0.950 . S
C1555 C1554 1.349 . S
C1555 C1571 1.349 . S
C1556 C1554 1.327 . S
C1556 C1575 1.429 . S
C1556 H1580 0.950 . S
C1557 C1574 1.574 . S
C1557 C1576 1.368 . S
C1557 H1581 0.949 . S
H1558 C1562 0.949 . S
C1559 C1560 1.349 . S
C1559 C1561 1.327 . S
C1559 H1582 0.950 . S
C1560 C1559 1.349 . S
C1560 C1572 1.349 . S
C1561 C1559 1.327 . S
C1561 C1577 1.429 . S
C1561 H1583 0.950 . S
C1562 H1558 0.949 . S
C1562 C1570 1.574 . S
C1562 C1578 1.368 . S
H1563 C1571 0.950 . S
H1564 C1569 0.950 . S
H1565 C1570 0.949 . S
H1566 C1572 0.950 . S
H1567 C1573 0.950 . S
H1568 C1574 0.949 . S
C1569 H1564 0.950 . S
C1569 C1571 1.327 . S
C1569 C1575 1.429 . S
C1570 C1562 1.574 . S
C1570 H1565 0.949 . S
C1570 C1576 1.368 . S
C1571 C1555 1.349 . S
C1571 H1563 0.950 . S
C1571 C1569 1.327 . S
C1572 C1560 1.349 . S
C1572 H1566 0.950 . S
C1572 C1573 1.327 . S
C1573 H1567 0.950 . S
C1573 C1572 1.327 . S
C1573 C1577 1.429 . S
C1574 C1557 1.574 . S
C1574 H1568 0.949 . S
C1574 C1578 1.368 . S
C1575 C1556 1.429 . S
C1575 C1569 1.429 . S
C1575 C1576 1.523 . S
C1576 C1557 1.368 . S
C1576 C1570 1.368 . S
C1576 C1575 1.523 . S
C1577 C1561 1.429 . S
C1577 C1573 1.429 . S
C1577 C1578 1.523 . S
C1578 C1562 1.368 . S
C1578 C1574 1.368 . S
C1578 C1577 1.523 . S
H1579 C1554 0.950 . S
H1580 C1556 0.950 . S
H1581 C1557 0.949 . S
H1582 C1559 0.950 . S
H1583 C1561 0.950 . S
C1584 C1585 1.349 . S
C1584 C1586 1.327 . S
C1584 H1609 0.950 . S
C1585 C1584 1.349 . S
C1585 C1601 1.349 . S
C1586 C1584 1.327 . S
C1586 C1605 1.429 . S
C1586 H1610 0.950 . S
C1587 C1604 1.574 . S
C1587 C1606 1.368 . S
C1587 H1611 0.949 . S
H1588 C1592 0.949 . S
C1589 C1590 1.349 . S
C1589 C1591 1.327 . S
C1589 H1612 0.950 . S
C1590 C1589 1.349 . S
C1590 C1602 1.349 . S
C1591 C1589 1.327 . S
C1591 C1607 1.429 . S
C1591 H1613 0.950 . S
C1592 H1588 0.949 . S
C1592 C1600 1.574 . S
C1592 C1608 1.368 . S
H1593 C1601 0.950 . S
H1594 C1599 0.950 . S
H1595 C1600 0.949 . S
H1596 C1602 0.950 . S
H1597 C1603 0.950 . S
H1598 C1604 0.949 . S
C1599 H1594 0.950 . S
C1599 C1601 1.327 . S
C1599 C1605 1.429 . S
C1600 C1592 1.574 . S
C1600 H1595 0.949 . S
C1600 C1606 1.368 . S
C1601 C1585 1.349 . S
C1601 H1593 0.950 . S
C1601 C1599 1.327 . S
C1602 C1590 1.349 . S
C1602 H1596 0.950 . S
C1602 C1603 1.327 . S
C1603 H1597 0.950 . S
C1603 C1602 1.327 . S
C1603 C1607 1.429 . S
C1604 C1587 1.574 . S
C1604 H1598 0.949 . S
C1604 C1608 1.368 . S
C1605 C1586 1.429 . S
C1605 C1599 1.429 . S
C1605 C1606 1.523 . S
C1606 C1587 1.368 . S
C1606 C1600 1.368 . S
C1606 C1605 1.523 . S
C1607 C1591 1.429 . S
C1607 C1603 1.429 . S
C1607 C1608 1.523 . S
C1608 C1592 1.368 . S
C1608 C1604 1.368 . S
C1608 C1607 1.523 . S
H1609 C1584 0.950 . S
H1610 C1586 0.950 . S
H1611 C1587 0.949 . S
H1612 C1589 0.950 . S
H1613 C1591 0.950 . S
C1614 C1615 1.349 . S
C1614 C1616 1.327 . S
C1614 H1639 0.950 . S
C1615 C1614 1.349 . S
C1615 C1631 1.349 . S
C1616 C1614 1.327 . S
C1616 C1635 1.429 . S
C1616 H1640 0.950 . S
C1617 C1634 1.574 . S
C1617 C1636 1.368 . S
C1617 H1641 0.949 . S
H1618 C1622 0.949 . S
C1619 C1620 1.349 . S
C1619 C1621 1.327 . S
C1619 H1642 0.950 . S
C1620 C1619 1.349 . S
C1620 C1632 1.349 . S
C1621 C1619 1.327 . S
C1621 C1637 1.429 . S
C1621 H1643 0.950 . S
C1622 H1618 0.949 . S
C1622 C1630 1.574 . S
C1622 C1638 1.368 . S
H1623 C1631 0.950 . S
H1624 C1629 0.950 . S
H1625 C1630 0.949 . S
H1626 C1632 0.950 . S
H1627 C1633 0.950 . S
H1628 C1634 0.949 . S
C1629 H1624 0.950 . S
C1629 C1631 1.327 . S
C1629 C1635 1.429 . S
C1630 C1622 1.574 . S
C1630 H1625 0.949 . S
C1630 C1636 1.368 . S
C1631 C1615 1.349 . S
C1631 H1623 0.950 . S
C1631 C1629 1.327 . S
C1632 C1620 1.349 . S
C1632 H1626 0.950 . S
C1632 C1633 1.327 . S
C1633 H1627 0.950 . S
C1633 C1632 1.327 . S
C1633 C1637 1.429 . S
C1634 C1617 1.574 . S
C1634 H1628 0.949 . S
C1634 C1638 1.368 . S
C1635 C1616 1.429 . S
C1635 C1629 1.429 . S
C1635 C1636 1.523 . S
C1636 C1617 1.368 . S
C1636 C1630 1.368 . S
C1636 C1635 1.523 . S
C1637 C1621 1.429 . S
C1637 C1633 1.429 . S
C1637 C1638 1.523 . S
C1638 C1622 1.368 . S
C1638 C1634 1.368 . S
C1638 C1637 1.523 . S
H1639 C1614 0.950 . S
H1640 C1616 0.950 . S
H1641 C1617 0.949 . S
H1642 C1619 0.950 . S
H1643 C1621 0.950 . S
C1644 C1645 1.349 . S
C1644 C1646 1.327 . S
C1644 H1669 0.950 . S
C1645 C1644 1.349 . S
C1645 C1661 1.349 . S
C1646 C1644 1.327 . S
C1646 C1665 1.429 . S
C1646 H1670 0.950 . S
C1647 C1664 1.574 . S
C1647 C1666 1.368 . S
C1647 H1671 0.949 . S
H1648 C1652 0.949 . S
C1649 C1650 1.349 . S
C1649 C1651 1.327 . S
C1649 H1672 0.950 . S
C1650 C1649 1.349 . S
C1650 C1662 1.349 . S
C1651 C1649 1.327 . S
C1651 C1667 1.429 . S
C1651 H1673 0.950 . S
C1652 H1648 0.949 . S
C1652 C1660 1.574 . S
C1652 C1668 1.368 . S
H1653 C1661 0.950 . S
H1654 C1659 0.950 . S
H1655 C1660 0.949 . S
H1656 C1662 0.950 . S
H1657 C1663 0.950 . S
H1658 C1664 0.949 . S
C1659 H1654 0.950 . S
C1659 C1661 1.327 . S
C1659 C1665 1.429 . S
C1660 C1652 1.574 . S
C1660 H1655 0.949 . S
C1660 C1666 1.368 . S
C1661 C1645 1.349 . S
C1661 H1653 0.950 . S
C1661 C1659 1.327 . S
C1662 C1650 1.349 . S
C1662 H1656 0.950 . S
C1662 C1663 1.327 . S
C1663 H1657 0.950 . S
C1663 C1662 1.327 . S
C1663 C1667 1.429 . S
C1664 C1647 1.574 . S
C1664 H1658 0.949 . S
C1664 C1668 1.368 . S
C1665 C1646 1.429 . S
C1665 C1659 1.429 . S
C1665 C1666 1.523 . S
C1666 C1647 1.368 . S
C1666 C1660 1.368 . S
C1666 C1665 1.523 . S
C1667 C1651 1.429 . S
C1667 C1663 1.429 . S
C1667 C1668 1.523 . S
C1668 C1652 1.368 . S
C1668 C1664 1.368 . S
C1668 C1667 1.523 . S
H1669 C1644 0.950 . S
H1670 C1646 0.950 . S
H1671 C1647 0.949 . S
H1672 C1649 0.950 . S
H1673 C1651 0.950 . S
C1674 C1675 1.349 . S
C1674 C1676 1.327 . S
C1674 H1699 0.950 . S
C1675 C1674 1.349 . S
C1675 C1691 1.349 . S
C1676 C1674 1.327 . S
C1676 C1695 1.429 . S
C1676 H1700 0.950 . S
C1677 C1694 1.574 . S
C1677 C1696 1.368 . S
C1677 H1701 0.949 . S
H1678 C1682 0.949 . S
C1679 C1680 1.349 . S
C1679 C1681 1.327 . S
C1679 H1702 0.950 . S
C1680 C1679 1.349 . S
C1680 C1692 1.349 . S
C1681 C1679 1.327 . S
C1681 C1697 1.429 . S
C1681 H1703 0.950 . S
C1682 H1678 0.949 . S
C1682 C1690 1.574 . S
C1682 C1698 1.368 . S
H1683 C1691 0.950 . S
H1684 C1689 0.950 . S
H1685 C1690 0.949 . S
H1686 C1692 0.950 . S
H1687 C1693 0.950 . S
H1688 C1694 0.949 . S
C1689 H1684 0.950 . S
C1689 C1691 1.327 . S
C1689 C1695 1.429 . S
C1690 C1682 1.574 . S
C1690 H1685 0.949 . S
C1690 C1696 1.368 . S
C1691 C1675 1.349 . S
C1691 H1683 0.950 . S
C1691 C1689 1.327 . S
C1692 C1680 1.349 . S
C1692 H1686 0.950 . S
C1692 C1693 1.327 . S
C1693 H1687 0.950 . S
C1693 C1692 1.327 . S
C1693 C1697 1.429 . S
C1694 C1677 1.574 . S
C1694 H1688 0.949 . S
C1694 C1698 1.368 . S
C1695 C1676 1.429 . S
C1695 C1689 1.429 . S
C1695 C1696 1.523 . S
C1696 C1677 1.368 . S
C1696 C1690 1.368 . S
C1696 C1695 1.523 . S
C1697 C1681 1.429 . S
C1697 C1693 1.429 . S
C1697 C1698 1.523 . S
C1698 C1682 1.368 . S
C1698 C1694 1.368 . S
C1698 C1697 1.523 . S
H1699 C1674 0.950 . S
H1700 C1676 0.950 . S
H1701 C1677 0.949 . S
H1702 C1679 0.950 . S
H1703 C1681 0.950 . S
C1704 C1705 1.349 . S
C1704 C1706 1.327 . S
C1704 H1729 0.950 . S
C1705 C1704 1.349 . S
C1705 C1721 1.349 . S
C1706 C1704 1.327 . S
C1706 C1725 1.429 . S
C1706 H1730 0.950 . S
C1707 C1724 1.574 . S
C1707 C1726 1.368 . S
C1707 H1731 0.949 . S
H1708 C1712 0.949 . S
C1709 C1710 1.349 . S
C1709 C1711 1.327 . S
C1709 H1732 0.950 . S
C1710 C1709 1.349 . S
C1710 C1722 1.349 . S
C1711 C1709 1.327 . S
C1711 C1727 1.429 . S
C1711 H1733 0.950 . S
C1712 H1708 0.949 . S
C1712 C1720 1.574 . S
C1712 C1728 1.368 . S
H1713 C1721 0.950 . S
H1714 C1719 0.950 . S
H1715 C1720 0.949 . S
H1716 C1722 0.950 . S
H1717 C1723 0.950 . S
H1718 C1724 0.949 . S
C1719 H1714 0.950 . S
C1719 C1721 1.327 . S
C1719 C1725 1.429 . S
C1720 C1712 1.574 . S
C1720 H1715 0.949 . S
C1720 C1726 1.368 . S
C1721 C1705 1.349 . S
C1721 H1713 0.950 . S
C1721 C1719 1.327 . S
C1722 C1710 1.349 . S
C1722 H1716 0.950 . S
C1722 C1723 1.327 . S
C1723 H1717 0.950 . S
C1723 C1722 1.327 . S
C1723 C1727 1.429 . S
C1724 C1707 1.574 . S
C1724 H1718 0.949 . S
C1724 C1728 1.368 . S
C1725 C1706 1.429 . S
C1725 C1719 1.429 . S
C1725 C1726 1.523 . S
C1726 C1707 1.368 . S
C1726 C1720 1.368 . S
C1726 C1725 1.523 . S
C1727 C1711 1.429 . S
C1727 C1723 1.429 . S
C1727 C1728 1.523 . S
C1728 C1712 1.368 . S
C1728 C1724 1.368 . S
C1728 C1727 1.523 . S
H1729 C1704 0.950 . S
H1730 C1706 0.950 . S
H1731 C1707 0.949 . S
H1732 C1709 0.950 . S
H1733 C1711 0.950 . S
C1734 C1735 1.349 . S
C1734 C1736 1.327 . S
C1734 H1759 0.950 . S
C1735 C1734 1.349 . S
C1735 C1751 1.349 . S
C1736 C1734 1.327 . S
C1736 C1755 1.429 . S
C1736 H1760 0.950 . S
C1737 C1754 1.574 . S
C1737 C1756 1.368 . S
C1737 H1761 0.949 . S
H1738 C1742 0.949 . S
C1739 C1740 1.349 . S
C1739 C1741 1.327 . S
C1739 H1762 0.950 . S
C1740 C1739 1.349 . S
C1740 C1752 1.349 . S
C1741 C1739 1.327 . S
C1741 C1757 1.429 . S
C1741 H1763 0.950 . S
C1742 H1738 0.949 . S
C1742 C1750 1.574 . S
C1742 C1758 1.368 . S
H1743 C1751 0.950 . S
H1744 C1749 0.950 . S
H1745 C1750 0.949 . S
H1746 C1752 0.950 . S
H1747 C1753 0.950 . S
H1748 C1754 0.949 . S
C1749 H1744 0.950 . S
C1749 C1751 1.327 . S
C1749 C1755 1.429 . S
C1750 C1742 1.574 . S
C1750 H1745 0.949 . S
C1750 C1756 1.368 . S
C1751 C1735 1.349 . S
C1751 H1743 0.950 . S
C1751 C1749 1.327 . S
C1752 C1740 1.349 . S
C1752 H1746 0.950 . S
C1752 C1753 1.327 . S
C1753 H1747 0.950 . S
C1753 C1752 1.327 . S
C1753 C1757 1.429 . S
C1754 C1737 1.574 . S
C1754 H1748 0.949 . S
C1754 C1758 1.368 . S
C1755 C1736 1.429 . S
C1755 C1749 1.429 . S
C1755 C1756 1.523 . S
C1756 C1737 1.368 . S
C1756 C1750 1.368 . S
C1756 C1755 1.523 . S
C1757 C1741 1.429 . S
C1757 C1753 1.429 . S
C1757 C1758 1.523 . S
C1758 C1742 1.368 . S
C1758 C1754 1.368 . S
C1758 C1757 1.523 . S
H1759 C1734 0.950 . S
H1760 C1736 0.950 . S
H1761 C1737 0.949 . S
H1762 C1739 0.950 . S
H1763 C1741 0.950 . S
C1764 C1765 1.349 . S
C1764 C1766 1.327 . S
C1764 H1789 0.950 . S
C1765 C1764 1.349 . S
C1765 C1781 1.349 . S
C1766 C1764 1.327 . S
C1766 C1785 1.429 . S
C1766 H1790 0.950 . S
C1767 C1784 1.574 . S
C1767 C1786 1.368 . S
C1767 H1791 0.949 . S
H1768 C1772 0.949 . S
C1769 C1770 1.349 . S
C1769 C1771 1.327 . S
C1769 H1792 0.950 . S
C1770 C1769 1.349 . S
C1770 C1782 1.349 . S
C1771 C1769 1.327 . S
C1771 C1787 1.429 . S
C1771 H1793 0.950 . S
C1772 H1768 0.949 . S
C1772 C1780 1.574 . S
C1772 C1788 1.368 . S
H1773 C1781 0.950 . S
H1774 C1779 0.950 . S
H1775 C1780 0.949 . S
H1776 C1782 0.950 . S
H1777 C1783 0.950 . S
H1778 C1784 0.949 . S
C1779 H1774 0.950 . S
C1779 C1781 1.327 . S
C1779 C1785 1.429 . S
C1780 C1772 1.574 . S
C1780 H1775 0.949 . S
C1780 C1786 1.368 . S
C1781 C1765 1.349 . S
C1781 H1773 0.950 . S
C1781 C1779 1.327 . S
C1782 C1770 1.349 . S
C1782 H1776 0.950 . S
C1782 C1783 1.327 . S
C1783 H1777 0.950 . S
C1783 C1782 1.327 . S
C1783 C1787 1.429 . S
C1784 C1767 1.574 . S
C1784 H1778 0.949 . S
C1784 C1788 1.368 . S
C1785 C1766 1.429 . S
C1785 C1779 1.429 . S
C1785 C1786 1.523 . S
C1786 C1767 1.368 . S
C1786 C1780 1.368 . S
C1786 C1785 1.523 . S
C1787 C1771 1.429 . S
C1787 C1783 1.429 . S
C1787 C1788 1.523 . S
C1788 C1772 1.368 . S
C1788 C1784 1.368 . S
C1788 C1787 1.523 . S
H1789 C1764 0.950 . S
H1790 C1766 0.950 . S
H1791 C1767 0.949 . S
H1792 C1769 0.950 . S
H1793 C1771 0.950 . S
C1794 C1795 1.349 . S
C1794 C1796 1.327 . S
C1794 H1819 0.950 . S
C1795 C1794 1.349 . S
C1795 C1811 1.349 . S
C1796 C1794 1.327 . S
C1796 C1815 1.429 . S
C1796 H1820 0.950 . S
C1797 C1814 1.574 . S
C1797 C1816 1.368 . S
C1797 H1821 0.949 . S
H1798 C1802 0.949 . S
C1799 C1800 1.349 . S
C1799 C1801 1.327 . S
C1799 H1822 0.950 . S
C1800 C1799 1.349 . S
C1800 C1812 1.349 . S
C1801 C1799 1.327 . S
C1801 C1817 1.429 . S
C1801 H1823 0.950 . S
C1802 H1798 0.949 . S
C1802 C1810 1.574 . S
C1802 C1818 1.368 . S
H1803 C1811 0.950 . S
H1804 C1809 0.950 . S
H1805 C1810 0.949 . S
H1806 C1812 0.950 . S
H1807 C1813 0.950 . S
H1808 C1814 0.949 . S
C1809 H1804 0.950 . S
C1809 C1811 1.327 . S
C1809 C1815 1.429 . S
C1810 C1802 1.574 . S
C1810 H1805 0.949 . S
C1810 C1816 1.368 . S
C1811 C1795 1.349 . S
C1811 H1803 0.950 . S
C1811 C1809 1.327 . S
C1812 C1800 1.349 . S
C1812 H1806 0.950 . S
C1812 C1813 1.327 . S
C1813 H1807 0.950 . S
C1813 C1812 1.327 . S
C1813 C1817 1.429 . S
C1814 C1797 1.574 . S
C1814 H1808 0.949 . S
C1814 C1818 1.368 . S
C1815 C1796 1.429 . S
C1815 C1809 1.429 . S
C1815 C1816 1.523 . S
C1816 C1797 1.368 . S
C1816 C1810 1.368 . S
C1816 C1815 1.523 . S
C1817 C1801 1.429 . S
C1817 C1813 1.429 . S
C1817 C1818 1.523 . S
C1818 C1802 1.368 . S
C1818 C1814 1.368 . S
C1818 C1817 1.523 . S
H1819 C1794 0.950 . S
H1820 C1796 0.950 . S
H1821 C1797 0.949 . S
H1822 C1799 0.950 . S
H1823 C1801 0.950 . S
C1824 C1825 1.349 . S
C1824 C1826 1.327 . S
C1824 H1849 0.950 . S
C1825 C1824 1.349 . S
C1825 C1841 1.349 . S
C1826 C1824 1.327 . S
C1826 C1845 1.429 . S
C1826 H1850 0.950 . S
C1827 C1844 1.574 . S
C1827 C1846 1.368 . S
C1827 H1851 0.949 . S
H1828 C1832 0.949 . S
C1829 C1830 1.349 . S
C1829 C1831 1.327 . S
C1829 H1852 0.950 . S
C1830 C1829 1.349 . S
C1830 C1842 1.349 . S
C1831 C1829 1.327 . S
C1831 C1847 1.429 . S
C1831 H1853 0.950 . S
C1832 H1828 0.949 . S
C1832 C1840 1.574 . S
C1832 C1848 1.368 . S
H1833 C1841 0.950 . S
H1834 C1839 0.950 . S
H1835 C1840 0.949 . S
H1836 C1842 0.950 . S
H1837 C1843 0.950 . S
H1838 C1844 0.949 . S
C1839 H1834 0.950 . S
C1839 C1841 1.327 . S
C1839 C1845 1.429 . S
C1840 C1832 1.574 . S
C1840 H1835 0.949 . S
C1840 C1846 1.368 . S
C1841 C1825 1.349 . S
C1841 H1833 0.950 . S
C1841 C1839 1.327 . S
C1842 C1830 1.349 . S
C1842 H1836 0.950 . S
C1842 C1843 1.327 . S
C1843 H1837 0.950 . S
C1843 C1842 1.327 . S
C1843 C1847 1.429 . S
C1844 C1827 1.574 . S
C1844 H1838 0.949 . S
C1844 C1848 1.368 . S
C1845 C1826 1.429 . S
C1845 C1839 1.429 . S
C1845 C1846 1.523 . S
C1846 C1827 1.368 . S
C1846 C1840 1.368 . S
C1846 C1845 1.523 . S
C1847 C1831 1.429 . S
C1847 C1843 1.429 . S
C1847 C1848 1.523 . S
C1848 C1832 1.368 . S
C1848 C1844 1.368 . S
C1848 C1847 1.523 . S
H1849 C1824 0.950 . S
H1850 C1826 0.950 . S
H1851 C1827 0.949 . S
H1852 C1829 0.950 . S
H1853 C1831 0.950 . S
C1854 C1855 1.349 . S
C1854 C1856 1.327 . S
C1854 H1879 0.950 . S
C1855 C1854 1.349 . S
C1855 C1871 1.349 . S
C1856 C1854 1.327 . S
C1856 C1875 1.429 . S
C1856 H1880 0.950 . S
C1857 C1874 1.574 . S
C1857 C1876 1.368 . S
C1857 H1881 0.949 . S
H1858 C1862 0.949 . S
C1859 C1860 1.349 . S
C1859 C1861 1.327 . S
C1859 H1882 0.950 . S
C1860 C1859 1.349 . S
C1860 C1872 1.349 . S
C1861 C1859 1.327 . S
C1861 C1877 1.429 . S
C1861 H1883 0.950 . S
C1862 H1858 0.949 . S
C1862 C1870 1.574 . S
C1862 C1878 1.368 . S
H1863 C1871 0.950 . S
H1864 C1869 0.950 . S
H1865 C1870 0.949 . S
H1866 C1872 0.950 . S
H1867 C1873 0.950 . S
H1868 C1874 0.949 . S
C1869 H1864 0.950 . S
C1869 C1871 1.327 . S
C1869 C1875 1.429 . S
C1870 C1862 1.574 . S
C1870 H1865 0.949 . S
C1870 C1876 1.368 . S
C1871 C1855 1.349 . S
C1871 H1863 0.950 . S
C1871 C1869 1.327 . S
C1872 C1860 1.349 . S
C1872 H1866 0.950 . S
C1872 C1873 1.327 . S
C1873 H1867 0.950 . S
C1873 C1872 1.327 . S
C1873 C1877 1.429 . S
C1874 C1857 1.574 . S
C1874 H1868 0.949 . S
C1874 C1878 1.368 . S
C1875 C1856 1.429 . S
C1875 C1869 1.429 . S
C1875 C1876 1.523 . S
C1876 C1857 1.368 . S
C1876 C1870 1.368 . S
C1876 C1875 1.523 . S
C1877 C1861 1.429 . S
C1877 C1873 1.429 . S
C1877 C1878 1.523 . S
C1878 C1862 1.368 . S
C1878 C1874 1.368 . S
C1878 C1877 1.523 . S
H1879 C1854 0.950 . S
H1880 C1856 0.950 . S
H1881 C1857 0.949 . S
H1882 C1859 0.950 . S
H1883 C1861 0.950 . S
C1884 C1885 1.349 . S
C1884 C1886 1.327 . S
C1884 H1909 0.950 . S
C1885 C1884 1.349 . S
C1885 C1901 1.349 1_545 S
C1886 C1884 1.327 . S
C1886 C1905 1.429 . S
C1886 H1910 0.950 . S
C1887 C1904 1.574 . S
C1887 C1906 1.368 . S
C1887 H1911 0.949 . S
H1888 C1892 0.949 . S
C1889 C1890 1.349 . S
C1889 C1891 1.327 . S
C1889 H1912 0.950 . S
C1890 C1889 1.349 . S
C1890 C1902 1.349 . S
C1891 C1889 1.327 . S
C1891 C1907 1.429 . S
C1891 H1913 0.950 . S
C1892 H1888 0.949 . S
C1892 C1900 1.574 . S
C1892 C1908 1.368 1_545 S
H1893 C1901 0.950 . S
H1894 C1899 0.950 . S
H1895 C1900 0.949 . S
H1896 C1902 0.946 . S
H1897 C1903 0.950 1_545 S
H1898 C1904 0.949 . S
C1899 H1894 0.950 . S
C1899 C1901 1.327 . S
C1899 C1905 1.429 1_565 S
C1900 C1892 1.574 . S
C1900 H1895 0.949 . S
C1900 C1906 1.368 1_545 S
C1901 C1885 1.349 1_565 S
C1901 H1893 0.950 . S
C1901 C1899 1.327 . S
C1902 C1890 1.349 . S
C1902 H1896 0.946 . S
C1902 C1903 1.327 . S
C1903 H1897 0.950 1_565 S
C1903 C1902 1.327 . S
C1903 C1907 1.429 . S
C1904 C1887 1.574 . S
C1904 H1898 0.949 . S
C1904 C1908 1.368 . S
C1905 C1886 1.429 . S
C1905 C1899 1.429 1_545 S
C1905 C1906 1.523 1_545 S
C1906 C1887 1.368 . S
C1906 C1900 1.368 1_565 S
C1906 C1905 1.523 1_565 S
C1907 C1891 1.429 . S
C1907 C1903 1.429 . S
C1907 C1908 1.523 . S
C1908 C1892 1.368 1_565 S
C1908 C1904 1.368 . S
C1908 C1907 1.523 . S
H1909 C1884 0.950 . S
H1910 C1886 0.950 . S
H1911 C1887 0.949 . S
H1912 C1889 0.950 . S
H1913 C1891 0.950 . S
C1914 C1915 1.349 . S
C1914 C1916 1.327 . S
C1914 H1939 0.950 . S
C1915 C1914 1.349 . S
C1915 C1931 1.349 . S
C1916 C1914 1.327 . S
C1916 C1935 1.429 . S
C1916 H1940 0.950 . S
C1917 C1934 1.574 . S
C1917 C1936 1.368 . S
C1917 H1941 0.949 . S
H1918 C1922 0.949 . S
C1919 C1920 1.347 1_655 S
C1919 C1921 1.355 . S
C1919 H1942 0.950 . S
C1920 C1919 1.347 1_455 S
C1920 C1932 1.356 . S
C1921 C1919 1.355 . S
C1921 C1937 1.392 1_655 S
C1921 H1943 0.960 . S
C1922 H1918 0.949 . S
C1922 C1930 1.574 . S
C1922 C1938 1.368 . S
H1923 C1931 0.950 . S
H1924 C1929 0.950 . S
H1925 C1930 0.949 . S
H1926 C1932 0.950 . S
H1927 C1933 0.950 . S
H1928 C1934 0.949 . S
C1929 H1924 0.950 . S
C1929 C1931 1.327 . S
C1929 C1935 1.429 . S
C1930 C1922 1.574 . S
C1930 H1925 0.949 . S
C1930 C1936 1.368 . S
C1931 C1915 1.349 . S
C1931 H1923 0.950 . S
C1931 C1929 1.327 . S
C1932 C1920 1.356 . S
C1932 H1926 0.950 . S
C1932 C1933 1.327 . S
C1933 H1927 0.950 . S
C1933 C1932 1.327 . S
C1933 C1937 1.429 . S
C1934 C1917 1.574 . S
C1934 H1928 0.949 . S
C1934 C1938 1.368 . S
C1935 C1916 1.429 . S
C1935 C1929 1.429 . S
C1935 C1936 1.523 . S
C1936 C1917 1.368 . S
C1936 C1930 1.368 . S
C1936 C1935 1.523 . S
C1937 C1921 1.392 1_455 S
C1937 C1933 1.429 . S
C1937 C1938 1.523 . S
C1938 C1922 1.368 . S
C1938 C1934 1.368 . S
C1938 C1937 1.523 . S
H1939 C1914 0.950 . S
H1940 C1916 0.950 . S
H1941 C1917 0.949 . S
H1942 C1919 0.950 . S
H1943 C1921 0.960 . S
C1944 C1945 1.349 . S
C1944 C1946 1.327 . S
C1944 H1969 0.950 . S
C1945 C1944 1.349 . S
C1945 C1961 1.349 . S
C1946 C1944 1.327 . S
C1946 C1965 1.429 . S
C1946 H1970 0.950 . S
C1947 C1964 1.574 1_556 S
C1947 C1966 1.368 . S
C1947 H1971 0.949 . S
H1948 C1952 0.949 . S
C1949 C1950 1.349 . S
C1949 C1951 1.327 . S
C1949 H1972 0.950 . S
C1950 C1949 1.349 . S
C1950 C1962 1.349 . S
C1951 C1949 1.327 . S
C1951 C1967 1.429 . S
C1951 H1973 0.950 . S
C1952 H1948 0.949 . S
C1952 C1960 1.574 . S
C1952 C1968 1.368 . S
H1953 C1961 0.950 . S
H1954 C1959 0.950 . S
H1955 C1960 0.949 . S
H1956 C1962 0.950 . S
H1957 C1963 0.950 . S
H1958 C1964 0.942 1_556 S
C1959 H1954 0.950 . S
C1959 C1961 1.327 . S
C1959 C1965 1.429 . S
C1960 C1952 1.574 . S
C1960 H1955 0.949 . S
C1960 C1966 1.368 1_554 S
C1961 C1945 1.349 . S
C1961 H1953 0.950 . S
C1961 C1959 1.327 . S
C1962 C1950 1.349 . S
C1962 H1956 0.950 . S
C1962 C1963 1.327 . S
C1963 H1957 0.950 . S
C1963 C1962 1.327 . S
C1963 C1967 1.429 . S
C1964 C1947 1.574 1_554 S
C1964 H1958 0.942 1_554 S
C1964 C1968 1.368 . S
C1965 C1946 1.429 . S
C1965 C1959 1.429 . S
C1965 C1966 1.523 . S
C1966 C1947 1.368 . S
C1966 C1960 1.368 1_556 S
C1966 C1965 1.523 . S
C1967 C1951 1.429 . S
C1967 C1963 1.429 . S
C1967 C1968 1.523 . S
C1968 C1952 1.368 . S
C1968 C1964 1.368 . S
C1968 C1967 1.523 . S
H1969 C1944 0.950 . S
H1970 C1946 0.950 . S
H1971 C1947 0.949 . S
H1972 C1949 0.950 . S
H1973 C1951 0.950 . S
C1974 C1975 1.349 1_565 S
C1974 C1976 1.318 1_565 S
C1974 H1999 0.960 . S
C1975 C1974 1.349 1_545 S
C1975 C1991 1.354 . S
C1976 C1974 1.318 1_545 S
C1976 C1995 1.429 . S
C1976 H2000 0.950 1_556 S
C1977 C1994 1.574 . S
C1977 C1996 1.368 . S
C1977 H2001 0.949 . S
H1978 C1982 0.949 . S
C1979 C1980 1.349 . S
C1979 C1981 1.327 . S
C1979 H2002 0.950 . S
C1980 C1979 1.349 . S
C1980 C1992 1.349 . S
C1981 C1979 1.327 . S
C1981 C1997 1.429 . S
C1981 H2003 0.950 . S
C1982 H1978 0.949 . S
C1982 C1990 1.574 . S
C1982 C1998 1.368 . S
H1983 C1991 0.950 . S
H1984 C1989 0.950 . S
H1985 C1990 0.949 . S
H1986 C1992 0.950 . S
H1987 C1993 0.950 . S
H1988 C1994 0.949 . S
C1989 H1984 0.950 . S
C1989 C1991 1.327 . S
C1989 C1995 1.429 . S
C1990 C1982 1.574 . S
C1990 H1985 0.949 . S
C1990 C1996 1.368 1_554 S
C1991 C1975 1.354 . S
C1991 H1983 0.950 . S
C1991 C1989 1.327 . S
C1992 C1980 1.349 . S
C1992 H1986 0.950 . S
C1992 C1993 1.327 . S
C1993 H1987 0.950 . S
C1993 C1992 1.327 . S
C1993 C1997 1.429 . S
C1994 C1977 1.574 . S
C1994 H1988 0.949 . S
C1994 C1998 1.368 1_556 S
C1995 C1976 1.429 . S
C1995 C1989 1.429 . S
C1995 C1996 1.523 . S
C1996 C1977 1.368 . S
C1996 C1990 1.368 1_556 S
C1996 C1995 1.523 . S
C1997 C1981 1.429 . S
C1997 C1993 1.429 . S
C1997 C1998 1.523 . S
C1998 C1982 1.368 . S
C1998 C1994 1.368 1_554 S
C1998 C1997 1.523 . S
H1999 C1974 0.960 . S
H2000 C1976 0.950 1_554 S
H2001 C1977 0.949 . S
H2002 C1979 0.950 . S
H2003 C1981 0.950 . S
C2004 C2005 1.349 1_655 S
C2004 C2006 1.327 . S
C2004 H2029 0.950 . S
C2005 C2004 1.349 1_455 S
C2005 C2021 1.349 . S
C2006 C2004 1.327 . S
C2006 C2025 1.429 1_655 S
C2006 H2030 0.950 . S
C2007 C2024 1.574 1_556 S
C2007 C2026 1.368 1_455 S
C2007 H2031 0.949 . S
H2008 C2012 0.949 . S
C2009 C2010 1.349 . S
C2009 C2011 1.327 . S
C2009 H2032 0.950 . S
C2010 C2009 1.349 . S
C2010 C2022 1.349 . S
C2011 C2009 1.327 . S
C2011 C2027 1.429 . S
C2011 H2033 0.950 1_655 S
C2012 H2008 0.949 . S
C2012 C2020 1.574 . S
C2012 C2028 1.368 . S
H2013 C2021 0.950 . S
H2014 C2019 0.950 . S
H2015 C2020 0.949 . S
H2016 C2022 0.950 . S
H2017 C2023 0.950 . S
H2018 C2024 0.949 . S
C2019 H2014 0.950 . S
C2019 C2021 1.327 . S
C2019 C2025 1.429 . S
C2020 C2012 1.574 . S
C2020 H2015 0.949 . S
C2020 C2026 1.368 1_554 S
C2021 C2005 1.349 . S
C2021 H2013 0.950 . S
C2021 C2019 1.327 . S
C2022 C2010 1.349 . S
C2022 H2016 0.950 . S
C2022 C2023 1.327 . S
C2023 H2017 0.950 . S
C2023 C2022 1.327 . S
C2023 C2027 1.429 . S
C2024 C2007 1.574 1_554 S
C2024 H2018 0.949 . S
C2024 C2028 1.368 1_455 S
C2025 C2006 1.429 1_455 S
C2025 C2019 1.429 . S
C2025 C2026 1.523 1_455 S
C2026 C2007 1.368 1_655 S
C2026 C2020 1.368 1_556 S
C2026 C2025 1.523 1_655 S
C2027 C2011 1.429 . S
C2027 C2023 1.429 . S
C2027 C2028 1.523 . S
C2028 C2012 1.368 . S
C2028 C2024 1.368 1_655 S
C2028 C2027 1.523 . S
H2029 C2004 0.950 . S
H2030 C2006 0.950 . S
H2031 C2007 0.949 . S
H2032 C2009 0.950 . S
H2033 C2011 0.950 1_455 S
C955 C39 2.535 . S
C960 C781 2.535 1_554 S
C985 C674 2.542 1_554 S
C990 C91 2.542 . S
C1015 C144 2.542 . S
C1020 C728 2.534 1_554 S
C1045 C357 2.535 . S
C1050 C145 2.535 . S
C1075 C409 2.542 . S
C1080 C38 2.542 . S
C1105 C463 2.535 . S
C1110 C92 2.535 . S
C1135 C181 1.567 . S
C1140 C605 1.567 1_556 S
C1165 C499 1.567 1_556 S
C1170 C234 1.567 . S
C1195 C552 1.567 1_556 S
C1200 C294 1.560 . S
C1225 C287 1.567 . S
C1230 C817 1.567 . S
C1255 C188 1.560 . S
C1260 C870 1.567 . S
C1285 C930 1.559 . S
C1290 C241 1.559 . S
C1315 C675 2.535 . S
C1320 C462 2.542 . S
C1345 C356 2.542 . S
C1350 C727 2.542 . S
C1375 C780 2.542 . S
C1380 C410 2.535 . S
C1405 C923 1.567 . S
C1410 C506 1.560 . S
C1435 C559 1.560 . S
C1440 C824 1.560 . S
C1465 C877 1.560 . S
C1470 C612 1.560 . S
C1495 C833 1.585 . S
C1500 C29 1.589 . S
C1525 C75 1.586 . S
C1530 C886 1.586 . S
C1555 C128 1.586 . S
C1560 C940 1.589 . S
C1585 C135 1.589 . S
C1590 C621 1.585 . S
C1615 C515 1.585 . S
C1620 C22 1.586 . S
C1645 C82 1.589 . S
C1650 C568 1.585 . S
C1675 C347 1.589 . S
C1680 C197 1.585 . S
C1705 C393 1.586 . S
C1710 C250 1.586 . S
C1735 C304 1.589 . S
C1740 C453 1.589 . S
C1765 C303 1.585 . S
C1770 C771 1.589 . S
C1795 C198 1.589 . S
C1800 C658 1.586 . S
C1825 C251 1.589 . S
C1830 C718 1.589 . S
C1855 C446 1.586 . S
C1860 C939 1.585 . S
C1885 C340 1.586 . S
C1890 C834 1.589 . S
C1915 C887 1.589 . S
C1920 C400 1.583 1_455 S
C1945 C665 1.589 . S
C1950 C516 1.589 . S
C1975 C711 1.580 1_545 S
C1980 C569 1.589 . S
C2005 C764 1.586 . S
C2010 C622 1.589 . S
