# Generated by pormake.
# Topology dft, (4)-cn, num edge types: 1
# Building blocks:
#     Node 0, Type 0, BuildingBlock: AZAVOO_clean_sbu_0, # of connection points: 4
#     Node 1, Type 0, BuildingBlock: AZAVOO_clean_sbu_0, # of connection points: 4
#     Node 2, Type 0, BuildingBlock: AZAVOO_clean_sbu_0, # of connection points: 4
#     Node 3, Type 0, BuildingBlock: AZAVOO_clean_sbu_0, # of connection points: 4
#     Node 4, Type 0, BuildingBlock: AZAVOO_clean_sbu_0, # of connection points: 4
#     Node 5, Type 0, BuildingBlock: AZAVOO_clean_sbu_0, # of connection points: 4
#     Node 6, Type 0, BuildingBlock: AZAVOO_clean_sbu_0, # of connection points: 4
#     Node 7, Type 0, BuildingBlock: AZAVOO_clean_sbu_0, # of connection points: 4
#     Edge 8, Type (0, 0), BuildingBlock: TEMPAE_clean_linker_10, # of connection points: 2
#     Edge 9, Type (0, 0), BuildingBlock: TEMPAE_clean_linker_10, # of connection points: 2
#     Edge 10, Type (0, 0), BuildingBlock: TEMPAE_clean_linker_10, # of connection points: 2
#     Edge 11, Type (0, 0), BuildingBlock: TEMPAE_clean_linker_10, # of connection points: 2
#     Edge 12, Type (0, 0), BuildingBlock: TEMPAE_clean_linker_10, # of connection points: 2
#     Edge 13, Type (0, 0), BuildingBlock: TEMPAE_clean_linker_10, # of connection points: 2
#     Edge 14, Type (0, 0), BuildingBlock: TEMPAE_clean_linker_10, # of connection points: 2
#     Edge 15, Type (0, 0), BuildingBlock: TEMPAE_clean_linker_10, # of connection points: 2
#     Edge 16, Type (0, 0), BuildingBlock: TEMPAE_clean_linker_10, # of connection points: 2
#     Edge 17, Type (0, 0), BuildingBlock: TEMPAE_clean_linker_10, # of connection points: 2
#     Edge 18, Type (0, 0), BuildingBlock: TEMPAE_clean_linker_10, # of connection points: 2
#     Edge 19, Type (0, 0), BuildingBlock: TEMPAE_clean_linker_10, # of connection points: 2
#     Edge 20, Type (0, 0), BuildingBlock: TEMPAE_clean_linker_10, # of connection points: 2
#     Edge 21, Type (0, 0), BuildingBlock: TEMPAE_clean_linker_10, # of connection points: 2
#     Edge 22, Type (0, 0), BuildingBlock: TEMPAE_clean_linker_10, # of connection points: 2
#     Edge 23, Type (0, 0), BuildingBlock: TEMPAE_clean_linker_10, # of connection points: 2
# Relax obj value: 0.187
# Max RMSD: 0.167
# Mean RMSD: 0.161
data_MOF--net-dft--node1-AZAVOO_clean_sbu_0--edge1-TEMPAE_clean_linker_10
_symmetry_space_group_name_H-M    P1
_symmetry_Int_Tables_number       1
_symmetry_cell_setting            triclinic
loop_
_symmetry_equiv_pos_as_xyz
'x, y, z'
_cell_length_a     34.894628
_cell_length_b     35.285067
_cell_length_c     37.66688
_cell_angle_alpha  90.208331
_cell_angle_beta   90.024338
_cell_angle_gamma 89.992984
loop_
_atom_site_label
_atom_site_type_symbol
_atom_site_fract_x
_atom_site_fract_y
_atom_site_fract_z
_atom_type_partial_charge
Mg0 Mg 0.27894 -0.00024 0.22409 0.0
O1 O 0.26208 -0.00061 0.16509 0.0
O2 O 0.19788 0.00118 0.16305 0.0
Mg3 Mg 0.17399 -0.00544 0.21947 0.0
C4 C 0.23061 0.00153 0.14783 0.0
C5 C 0.36726 -0.00236 0.22222 0.0
O6 O 0.35932 0.96674 0.24014 0.0
O7 O 0.25937 0.06151 0.22792 0.0
O8 O 0.19567 0.05431 0.23104 0.0
O9 O 0.27961 0.9358 0.22655 0.0
O10 O 0.22898 0.97191 0.23621 0.0
C11 C 0.2257 0.07496 0.23239 0.0
C12 C 0.24335 0.93867 0.23322 0.0
O13 O 0.33979 0.01776 0.21068 0.0
Mg14 Mg 0.00544 0.28609 0.61489 0.0
O15 O 0.05847 0.26167 0.64237 0.0
O16 O 0.11068 0.28917 0.61964 0.0
Mg17 Mg 0.0904 0.33248 0.57831 0.0
C18 C 0.09475 0.26603 0.64104 0.0
C19 C 0.93552 0.27236 0.66607 0.0
O20 O 0.9261 0.30638 0.65498 0.0
O21 O 0.01182 0.33909 0.64926 0.0
O22 O 0.06167 0.36734 0.62289 0.0
O23 O 0.01009 0.24396 0.57012 0.0
O24 O 0.03723 0.30038 0.57003 0.0
C25 C 0.03517 0.36678 0.64636 0.0
C26 C 0.03135 0.2686 0.55409 0.0
O27 O 0.96668 0.2575 0.65535 0.0
Mg28 Mg 0.7264 0.09143 0.23214 0.0
O29 O 0.74816 0.08778 0.17487 0.0
O30 O 0.81156 0.07843 0.17769 0.0
Mg31 Mg 0.83101 0.08324 0.23561 0.0
C32 C 0.78045 0.08151 0.16005 0.0
C33 C 0.6391 0.09023 0.23539 0.0
O34 O 0.64883 0.1074 0.26507 0.0
O35 O 0.73728 0.02769 0.23787 0.0
O36 O 0.80104 0.0269 0.24559 0.0
O37 O 0.73437 0.155 0.23308 0.0
O38 O 0.77816 0.11335 0.2488 0.0
C39 C 0.76856 0.0103 0.24456 0.0
C40 C 0.76893 0.14812 0.24385 0.0
O41 O 0.66537 0.08037 0.21393 0.0
Mg42 Mg 0.03611 0.70086 0.71152 0.0
O43 O 0.98453 0.73138 0.73742 0.0
O44 O 0.93277 0.71467 0.70604 0.0
Mg45 Mg 0.94968 0.67401 0.66174 0.0
C46 C 0.94851 0.73319 0.73129 0.0
C47 C 0.11088 0.71291 0.753 0.0
O48 O 0.12221 0.69247 0.72572 0.0
O49 O 0.01942 0.64379 0.73627 0.0
O50 O 0.96967 0.62949 0.70141 0.0
O51 O 0.04401 0.74865 0.67304 0.0
O52 O 0.0071 0.69902 0.663 0.0
C53 C 0.99308 0.62095 0.72619 0.0
C54 C 0.01993 0.73129 0.65257 0.0
O55 O 0.07513 0.71834 0.75725 0.0
Mg56 Mg 0.28864 0.02841 0.80825 0.0
O57 O 0.26833 0.03433 0.86605 0.0
O58 O 0.2044 0.02917 0.86476 0.0
Mg59 Mg 0.18341 0.02919 0.80705 0.0
C60 C 0.23596 0.03208 0.88174 0.0
C61 C 0.37515 0.03244 0.8048 0.0
O62 O 0.3626 0.05103 0.77695 0.0
O63 O 0.27222 0.96483 0.80906 0.0
O64 O 0.2086 0.96997 0.80134 0.0
O65 O 0.28535 0.09179 0.79843 0.0
O66 O 0.2382 0.05166 0.78932 0.0
C67 C 0.23914 0.95017 0.80357 0.0
C68 C 0.25054 0.08581 0.78794 0.0
O69 O 0.35065 0.01779 0.82568 0.0
Mg70 Mg 0.08369 0.32786 0.25119 0.0
O71 O 0.01987 0.3156 0.25788 0.0
O72 O 0.0021 0.32753 0.31378 0.0
Mg73 Mg 0.05507 0.35082 0.3424 0.0
C74 C 0.99444 0.31647 0.28223 0.0
C75 C 0.09406 0.30594 0.16874 0.0
O76 O 0.08448 0.30755 0.13504 0.0
O77 O 0.07014 0.3905 0.24919 0.0
O78 O 0.05284 0.40191 0.30528 0.0
O79 O 0.09522 0.26857 0.27141 0.0
O80 O 0.09215 0.31966 0.30527 0.0
C81 C 0.05834 0.41291 0.27342 0.0
C82 C 0.09521 0.28354 0.3028 0.0
O83 O 0.07592 0.32628 0.19096 0.0
Mg84 Mg 0.7485 0.00675 0.82096 0.0
O85 O 0.76205 0.01822 0.87982 0.0
O86 O 0.82582 0.02245 0.88513 0.0
Mg87 Mg 0.85329 0.0106 0.83136 0.0
C88 C 0.79219 0.02393 0.89835 0.0
C89 C 0.66144 -0.0051 0.81923 0.0
O90 O 0.67527 0.96406 0.80434 0.0
O91 O 0.76357 0.06851 0.80679 0.0
O92 O 0.8275 0.06647 0.81267 0.0
O93 O 0.75383 0.94363 0.82906 0.0
O94 O 0.80152 0.98099 0.81375 0.0
C95 C 0.79661 0.0842 0.80538 0.0
C96 C 0.78973 0.94751 0.82125 0.0
O97 O 0.68485 0.02008 0.83005 0.0
Mg98 Mg 0.94924 0.73988 0.33074 0.0
O99 O 0.00532 0.77077 0.31584 0.0
O100 O 0.05343 0.73999 0.34288 0.0
Mg101 Mg 0.02892 0.69192 0.37548 0.0
C102 C 0.04093 0.76601 0.32254 0.0
C103 C 0.87976 0.76462 0.2876 0.0
O104 O 0.86582 0.73752 0.30765 0.0
O105 O 0.96494 0.69293 0.29172 0.0
O106 O 0.01325 0.6662 0.32175 0.0
O107 O 0.94248 0.77592 0.37923 0.0
O108 O 0.974 0.72173 0.3778 0.0
C109 C 0.99163 0.66844 0.29449 0.0
C110 C 0.96345 0.75121 0.39549 0.0
O111 O 0.91548 0.77157 0.28899 0.0
C112 C 0.25867 0.98654 0.08837 0.0
C113 C 0.23206 0.00657 0.10897 0.0
C114 C 0.25984 0.99098 0.05132 0.0
C115 C 0.23477 0.01716 0.03478 0.0
C116 C 0.2086 0.03824 0.05573 0.0
C117 C 0.20708 0.03215 0.0925 0.0
C118 C 0.28728 0.96709 0.02981 0.0
C119 C 0.18229 0.06731 0.03932 0.0
C120 C 0.26098 0.0503 0.94177 0.0
C121 C 0.23511 0.02959 0.92089 0.0
C122 C 0.26072 0.04716 0.97898 0.0
C123 C 0.23498 0.02161 0.99546 0.0
C124 C 0.20919 0.00026 0.97435 0.0
C125 C 0.20912 0.00501 0.93739 0.0
C126 C 0.28775 0.07133 1.00067 0.0
C127 C 0.18211 0.97188 0.99073 0.0
H128 H 0.27792 0.96669 0.10116 0.0
H129 H 0.18686 0.04806 0.10855 0.0
H130 H 0.2711 0.94994 0.01011 0.0
H131 H 0.30716 0.98554 0.01476 0.0
H132 H 0.30445 0.94767 0.04666 0.0
H133 H 0.16554 0.08315 0.0596 0.0
H134 H 0.1992 0.08786 0.02353 0.0
H135 H 0.16197 0.05321 0.02089 0.0
H136 H 0.28101 0.06938 0.92902 0.0
H137 H 0.18947 0.98855 0.92122 0.0
H138 H 0.3078 0.05304 0.01572 0.0
H139 H 0.27133 0.08823 0.02037 0.0
H140 H 0.30476 0.09098 0.98392 0.0
H141 H 0.19855 0.95088 0.00647 0.0
H142 H 0.16493 0.95647 0.97047 0.0
H143 H 0.16219 0.98643 0.00922 0.0
C144 C 0.0548 0.29306 0.4962 0.0
C145 C 0.04622 0.26193 0.51777 0.0
C146 C 0.06476 0.2882 0.46043 0.0
C147 C 0.06749 0.25114 0.446 0.0
C148 C 0.06066 0.21943 0.46809 0.0
C149 C 0.04941 0.22522 0.50362 0.0
C150 C 0.07096 0.32293 0.43776 0.0
C151 C 0.06456 0.17952 0.45405 0.0
C152 C 0.05279 0.25359 0.34665 0.0
C153 C 0.09011 0.26103 0.33512 0.0
C154 C 0.04509 0.24683 0.38265 0.0
C155 C 0.07574 0.2465 0.40736 0.0
C156 C 0.11396 0.24921 0.39488 0.0
C157 C 0.12067 0.25729 0.35889 0.0
C158 C 0.00385 0.2448 0.3946 0.0
C159 C 0.14756 0.24751 0.42003 0.0
H160 H 0.05211 0.32151 0.50689 0.0
H161 H 0.04297 0.20105 0.52027 0.0
H162 H 0.10026 0.32263 0.42638 0.0
H163 H 0.05044 0.32286 0.41523 0.0
H164 H 0.06718 0.34971 0.45296 0.0
H165 H 0.06351 0.15817 0.47563 0.0
H166 H 0.04099 0.17344 0.43511 0.0
H167 H 0.09194 0.17622 0.43937 0.0
H168 H 0.02921 0.25676 0.32816 0.0
H169 H 0.14953 0.26346 0.34992 0.0
H170 H 0.99593 0.27192 0.4077 0.0
H171 H 0.99981 0.22187 0.41427 0.0
H172 H 0.98394 0.23998 0.37199 0.0
H173 H 0.15057 0.27515 0.4339 0.0
H174 H 0.17476 0.24153 0.40574 0.0
H175 H 0.14307 0.22542 0.4405 0.0
C176 C 0.76013 0.01678 0.95728 0.0
C177 C 0.78827 0.03387 0.93623 0.0
C178 C 0.75757 0.02499 0.99373 0.0
C179 C 0.78292 0.05185 0.00903 0.0
C180 C 0.81044 0.07017 0.98749 0.0
C181 C 0.81321 0.06047 0.95146 0.0
C182 C 0.72858 0.00409 0.01605 0.0
C183 C 0.8372 0.0998 0.00255 0.0
C184 C 0.75668 0.09449 0.09865 0.0
C185 C 0.7815 0.0749 0.12136 0.0
C186 C 0.75708 0.08763 0.06189 0.0
C187 C 0.78194 0.0596 0.04784 0.0
C188 C 0.80658 0.03933 0.07084 0.0
C189 C 0.8065 0.04768 0.10725 0.0
C190 C 0.73129 0.11064 0.03806 0.0
C191 C 0.83275 0.00852 0.05704 0.0
H192 H 0.74096 -0.0039 0.94546 0.0
H193 H 0.83466 0.07407 0.93503 0.0
H194 H 0.74359 0.98754 0.03685 0.0
H195 H 0.70948 0.0245 0.02982 0.0
H196 H 0.71067 0.98441 1.00001 0.0
H197 H 0.85484 0.1135 0.98168 0.0
H198 H 0.82057 0.12203 0.01667 0.0
H199 H 0.85671 0.08664 0.02223 0.0
H200 H 0.7374 0.11561 0.10959 0.0
H201 H 0.8253 0.03211 0.12489 0.0
H202 H 0.71126 0.09169 0.02359 0.0
H203 H 0.74873 0.12559 0.01784 0.0
H204 H 0.71429 0.13193 0.05309 0.0
H205 H 0.81582 0.98697 0.0423 0.0
H206 H 0.8487 -0.00586 0.07868 0.0
H207 H 0.85377 0.02066 0.03817 0.0
C208 C 0.9637 0.78876 0.45215 0.0
C209 C 0.97486 0.75637 0.43303 0.0
C210 C 0.97152 0.7921 0.48864 0.0
C211 C 0.99085 0.76233 0.50625 0.0
C212 C 0.00354 0.73035 0.48673 0.0
C213 C 0.99525 0.72772 0.45045 0.0
C214 C 0.95765 0.82664 0.50859 0.0
C215 C 0.02437 0.69799 0.50448 0.0
C216 C 0.03561 0.76765 0.59778 0.0
C217 C 0.0092 0.74647 0.6175 0.0
C218 C 0.02888 0.77561 0.56178 0.0
C219 C 0.99483 0.76231 0.54551 0.0
C220 C 0.96665 0.74391 0.56624 0.0
C221 C 0.97427 0.73613 0.60196 0.0
C222 C 0.0595 0.79553 0.54061 0.0
C223 C 0.92964 0.72983 0.55008 0.0
H224 H 0.94798 0.81108 0.43885 0.0
H225 H 0.00375 0.70248 0.43606 0.0
H226 H 0.93348 0.81861 0.52614 0.0
H227 H 0.98073 0.83816 0.52578 0.0
H228 H 0.94771 0.84934 0.4904 0.0
H229 H 0.03488 0.6766 0.48507 0.0
H230 H 0.04918 0.70882 0.51989 0.0
H231 H 0.00485 0.68366 0.52342 0.0
H232 H 0.06264 0.77583 0.60978 0.0
H233 H 0.95328 0.72081 0.61735 0.0
H234 H 0.04666 0.81701 0.52276 0.0
H235 H 0.07466 0.77455 0.52367 0.0
H236 H 0.08093 0.80963 0.55802 0.0
H237 H 0.91607 0.75231 0.53387 0.0
H238 H 0.90887 0.72041 0.57058 0.0
H239 H 0.93576 0.70552 0.53218 0.0
C240 C 0.43737 0.98918 0.23317 0.0
C241 C 0.40746 0.01047 0.21837 0.0
C242 C 0.47523 0.00248 0.23263 0.0
C243 C 0.48341 0.03791 0.21683 0.0
C244 C 0.45363 0.05885 0.20057 0.0
C245 C 0.41596 0.04489 0.20156 0.0
C246 C 0.50624 0.97927 0.25019 0.0
C247 C 0.46132 0.09663 0.18329 0.0
C248 C 0.57042 0.08874 0.25388 0.0
C249 C 0.59866 0.07961 0.22879 0.0
C250 C 0.53256 0.07621 0.24973 0.0
C251 C 0.52262 0.0541 0.21968 0.0
C252 C 0.55063 0.04587 0.19359 0.0
C253 C 0.58838 0.0587 0.19848 0.0
C254 C 0.50348 0.08562 0.27813 0.0
C255 C 0.541 0.02255 0.16111 0.0
H256 H 0.43112 0.96246 0.24604 0.0
H257 H 0.39305 0.06144 0.1899 0.0
H258 H 0.53038 0.9746 0.23153 0.0
H259 H 0.51775 -0.00508 0.27346 0.0
H260 H 0.4956 0.95127 0.2593 0.0
H261 H 0.43575 0.10779 0.16918 0.0
H262 H 0.47007 0.11756 0.20379 0.0
H263 H 0.4853 0.09414 0.16409 0.0
H264 H 0.57804 0.105 0.27731 0.0
H265 H 0.61 0.05162 0.17889 0.0
H266 H 0.49349 0.05914 0.29097 0.0
H267 H 0.47804 0.09944 0.26615 0.0
H268 H 0.51534 0.10466 0.29895 0.0
H269 H 0.5335 -0.00674 0.16919 0.0
H270 H 0.56522 0.02115 0.14201 0.0
H271 H 0.51564 0.03454 0.1474 0.0
C272 C 0.01529 0.39784 0.70364 0.0
C273 C 0.03016 0.40061 0.66914 0.0
C274 C 0.00944 0.43047 0.72456 0.0
C275 C 0.01706 0.46664 0.70993 0.0
C276 C 0.03252 0.46934 0.6752 0.0
C277 C 0.03946 0.43631 0.65558 0.0
C278 C 0.99425 0.42585 0.76178 0.0
C279 C 0.04029 0.50724 0.65799 0.0
C280 C 0.96374 0.55681 0.72704 0.0
C281 C 0.99423 0.58058 0.73695 0.0
C282 C 0.96937 0.51782 0.72234 0.0
C283 C 0.00607 0.50224 0.72867 0.0
C284 C 0.03463 0.52487 0.74501 0.0
C285 C 0.02857 0.56411 0.74865 0.0
C286 C 0.93764 0.49453 0.70593 0.0
C287 C 0.0731 0.50849 0.75475 0.0
H288 H 0.00841 0.37019 0.71436 0.0
H289 H 0.05077 0.43858 0.62886 0.0
H290 H 0.00179 0.4502 0.77915 0.0
H291 H 0.96258 0.42333 0.76081 0.0
H292 H 0.00551 0.39946 0.77394 0.0
H293 H 0.05134 0.50428 0.63046 0.0
H294 H 0.01358 0.5243 0.65718 0.0
H295 H 0.06164 0.52334 0.67378 0.0
H296 H 0.93661 0.56919 0.71915 0.0
H297 H 0.05204 0.58206 0.75724 0.0
H298 H 0.93436 0.46729 0.72015 0.0
H299 H 0.945 0.48791 0.67791 0.0
H300 H 0.90972 0.50967 0.70635 0.0
H301 H 0.06985 0.47941 0.76553 0.0
H302 H 0.08811 0.52646 0.77465 0.0
H303 H 0.09132 0.50667 0.73067 0.0
C304 C 0.59446 0.97282 0.8078 0.0
C305 C 0.61931 0.00036 0.82181 0.0
C306 C 0.55459 0.97803 0.80807 0.0
C307 C 0.53897 0.01157 0.82287 0.0
C308 C 0.56376 0.039 0.83808 0.0
C309 C 0.60366 0.03313 0.83729 0.0
C310 C 0.52926 0.94814 0.79141 0.0
C311 C 0.54818 0.07501 0.85431 0.0
C312 C 0.44286 0.04185 0.78519 0.0
C313 C 0.41703 0.02827 0.81072 0.0
C314 C 0.48254 0.03733 0.7893 0.0
C315 C 0.49701 0.01897 0.81984 0.0
C316 C 0.47122 0.00595 0.84618 0.0
C317 C 0.43149 0.01061 0.84125 0.0
C318 C 0.50895 0.05142 0.76044 0.0
C319 C 0.48558 0.9865 0.87923 0.0
H320 H 0.60616 0.94732 0.79591 0.0
H321 H 0.62258 0.05447 0.84835 0.0
H322 H 0.50685 0.93909 0.81046 0.0
H323 H 0.51441 0.96013 0.76794 0.0
H324 H 0.54569 0.92275 0.7828 0.0
H325 H 0.57085 0.092 0.86762 0.0
H326 H 0.5348 0.09262 0.83334 0.0
H327 H 0.52553 0.06831 0.87397 0.0
H328 H 0.43206 0.0556 0.76153 0.0
H329 H 0.41179 0.00022 0.8612 0.0
H330 H 0.5247 0.02718 0.74855 0.0
H331 H 0.53059 0.07105 0.77178 0.0
H332 H 0.49325 0.06635 0.73897 0.0
H333 H 0.49985 0.95948 0.87193 0.0
H334 H 0.4621 0.98026 0.89824 0.0
H335 H 0.50728 0.00445 0.89275 0.0
C336 C 0.04253 0.47861 0.2919 0.0
C337 C 0.0488 0.45251 0.26446 0.0
C338 C 0.03135 0.51574 0.28469 0.0
C339 C 0.02609 0.52724 0.24898 0.0
C340 C 0.03241 0.50114 0.22098 0.0
C341 C 0.04408 0.46403 0.22907 0.0
C342 C 0.02521 0.54263 0.31558 0.0
C343 C 0.02741 0.51222 0.1826 0.0
C344 C 0.96753 0.61424 0.25914 0.0
C345 C 0.99718 0.63957 0.26697 0.0
C346 C 0.97611 0.57773 0.24658 0.0
C347 C 0.01498 0.56709 0.24222 0.0
C348 C 0.0439 0.5951 0.24344 0.0
C349 C 0.03466 0.63117 0.25632 0.0
C350 C 0.9443 0.54896 0.24376 0.0
C351 C 0.08545 0.58536 0.23723 0.0
H352 H 0.04632 0.47001 0.31928 0.0
H353 H 0.04881 0.44391 0.20769 0.0
H354 H 0.04484 0.56723 0.31335 0.0
H355 H 0.99542 0.5536 0.31529 0.0
H356 H 0.03032 0.5289 0.34165 0.0
H357 H 0.02126 0.48712 0.16565 0.0
H358 H 0.00403 0.5332 0.17919 0.0
H359 H 0.05436 0.52527 0.17292 0.0
H360 H 0.93844 0.62108 0.26703 0.0
H361 H 0.05741 0.65132 0.26179 0.0
H362 H 0.94249 0.53287 0.26898 0.0
H363 H 0.94999 0.52844 0.222 0.0
H364 H 0.91618 0.56285 0.23908 0.0
H365 H 0.09731 0.57183 0.26143 0.0
H366 H 0.10272 0.61105 0.23143 0.0
H367 H 0.08848 0.56501 0.21491 0.0
C368 C 0.14726 0.28633 0.20929 0.0
C369 C 0.12289 0.27833 0.18064 0.0
C370 C 0.17246 0.25864 0.2224 0.0
C371 C 0.17281 0.22224 0.20651 0.0
C372 C 0.14964 0.21487 0.17631 0.0
C373 C 0.12522 0.24316 0.1636 0.0
C374 C 0.19718 0.26805 0.2541 0.0
C375 C 0.14896 0.17636 0.15857 0.0
C376 C 0.24218 0.14125 0.21523 0.0
C377 C 0.21974 0.11617 0.23511 0.0
C378 C 0.22948 0.17843 0.20903 0.0
C379 C 0.1937 0.19019 0.22297 0.0
C380 C 0.17384 0.16655 0.24699 0.0
C381 C 0.18712 0.1297 0.25271 0.0
C382 C 0.25228 0.20361 0.18464 0.0
C383 C 0.13653 0.17874 0.26383 0.0
H384 H 0.14628 0.31402 0.22178 0.0
H385 H 0.10659 0.23714 0.14123 0.0
H386 H 0.18191 0.25983 0.27872 0.0
H387 H 0.22482 0.25253 0.25332 0.0
H388 H 0.2031 0.29894 0.25568 0.0
H389 H 0.13048 0.17585 0.13455 0.0
H390 H 0.17835 0.1678 0.15073 0.0
H391 H 0.13809 0.15486 0.1775 0.0
H392 H 0.26774 0.13096 0.20196 0.0
H393 H 0.17038 0.11052 0.26894 0.0
H394 H 0.25158 0.23346 0.19402 0.0
H395 H 0.23946 0.20277 0.15768 0.0
H396 H 0.28259 0.1942 0.1826 0.0
H397 H 0.14073 0.20571 0.27847 0.0
H398 H 0.12523 0.15728 0.28263 0.0
H399 H 0.11464 0.18376 0.24298 0.0
C400 C 0.87641 0.26731 0.70388 0.0
C401 C 0.90907 0.25039 0.68888 0.0
C402 C 0.85089 0.24617 0.72489 0.0
C403 C 0.85809 0.2072 0.73067 0.0
C404 C 0.89089 0.19001 0.71536 0.0
C405 C 0.91602 0.21182 0.69489 0.0
C406 C 0.81651 0.26552 0.74115 0.0
C407 C 0.89963 0.14845 0.72069 0.0
C408 C 0.8273 0.14725 0.80782 0.0
C409 C 0.80115 0.12278 0.7913 0.0
C410 C 0.84285 0.17814 0.78953 0.0
C411 C 0.83259 0.18399 0.75361 0.0
C412 C 0.80302 0.16182 0.73816 0.0
C413 C 0.78738 0.13145 0.7574 0.0
C414 C 0.87352 0.20161 0.80737 0.0
C415 C 0.79117 0.16715 0.69998 0.0
H416 H 0.87086 0.29713 0.69938 0.0
H417 H 0.94102 0.19843 0.68326 0.0
H418 H 0.78983 0.25077 0.73301 0.0
H419 H 0.81819 0.26394 0.77052 0.0
H420 H 0.81439 0.29577 0.73332 0.0
H421 H 0.92553 0.13917 0.70588 0.0
H422 H 0.90425 0.14268 0.74931 0.0
H423 H 0.87497 0.13095 0.71184 0.0
H424 H 0.83785 0.14049 0.83414 0.0
H425 H 0.76738 0.11229 0.74454 0.0
H426 H 0.87048 0.232 0.8005 0.0
H427 H 0.9021 0.19208 0.798 0.0
H428 H 0.87262 0.19869 0.83672 0.0
H429 H 0.78914 0.19765 0.69326 0.0
H430 H 0.7632 0.15337 0.69425 0.0
H431 H 0.81315 0.1543 0.68238 0.0
C432 C 0.86867 0.82108 0.24933 0.0
C433 C 0.85366 0.79196 0.27033 0.0
C434 C 0.84617 0.85243 0.24015 0.0
C435 C 0.8079 0.85472 0.2525 0.0
C436 C 0.79135 0.82341 0.27009 0.0
C437 C 0.81447 0.79224 0.27878 0.0
C438 C 0.86467 0.88485 0.22047 0.0
C439 C 0.75042 0.82438 0.28295 0.0
C440 C 0.78755 0.9552 0.2802 0.0
C441 C 0.76867 0.96926 0.25031 0.0
C442 C 0.79745 0.91693 0.28248 0.0
C443 C 0.7889 0.89234 0.25372 0.0
C444 C 0.76704 0.90581 0.22468 0.0
C445 C 0.757 0.94439 0.22335 0.0
C446 C 0.82003 0.90365 0.31435 0.0
C447 C 0.75712 0.88051 0.19366 0.0
H448 H 0.89871 0.82063 0.24201 0.0
H449 H 0.80243 0.7695 0.29451 0.0
H450 H 0.8453 0.89566 0.19947 0.0
H451 H 0.8703 0.90849 0.23928 0.0
H452 H 0.89228 0.8764 0.20808 0.0
H453 H 0.7394 0.79546 0.2885 0.0
H454 H 0.74889 0.84119 0.30787 0.0
H455 H 0.73143 0.83817 0.26322 0.0
H456 H 0.7965 0.9747 0.30094 0.0
H457 H 0.74273 0.95557 0.20005 0.0
H458 H 0.84999 0.89749 0.30628 0.0
H459 H 0.80763 0.87711 0.32507 0.0
H460 H 0.82066 0.9252 0.33592 0.0
H461 H 0.78207 0.87886 0.17547 0.0
H462 H 0.73235 0.8918 0.17845 0.0
H463 H 0.75039 0.85131 0.2025 0.0
C464 C 0.12607 0.76498 0.79604 0.0
C465 C 0.13889 0.7372 0.77211 0.0
C466 C 0.15018 0.79476 0.80665 0.0
C467 C 0.18799 0.79672 0.79306 0.0
C468 C 0.20249 0.76622 0.77262 0.0
C469 C 0.17773 0.73678 0.76231 0.0
C470 C 0.13375 0.8263 0.82915 0.0
C471 C 0.24292 0.76664 0.75845 0.0
C472 C 0.21307 0.89723 0.76858 0.0
C473 C 0.23463 0.90915 0.79786 0.0
C474 C 0.19992 0.85995 0.76577 0.0
C475 C 0.20825 0.83386 0.7932 0.0
C476 C 0.23239 0.84501 0.82171 0.0
C477 C 0.2454 0.8828 0.82373 0.0
C478 C 0.17478 0.84935 0.73457 0.0
C479 C 0.2423 0.81802 0.85126 0.0
H480 H 0.09633 0.76517 0.80436 0.0
H481 H 0.18821 0.715 0.74442 0.0
H482 H 0.1545 0.83522 0.84985 0.0
H483 H 0.12787 0.85125 0.81212 0.0
H484 H 0.10656 0.8178 0.84223 0.0
H485 H 0.25244 0.73789 0.75019 0.0
H486 H 0.2443 0.78548 0.73496 0.0
H487 H 0.26319 0.77789 0.7786 0.0
H488 H 0.20486 0.91777 0.7486 0.0
H489 H 0.26176 0.89224 0.84658 0.0
H490 H 0.14525 0.84345 0.74399 0.0
H491 H 0.18564 0.82323 0.72156 0.0
H492 H 0.17335 0.87218 0.71438 0.0
H493 H 0.21812 0.81687 0.87034 0.0
H494 H 0.26829 0.82737 0.86591 0.0
H495 H 0.24704 0.7889 0.84095 0.0
C496 C 0.85074 0.91901 0.79985 0.0
C497 C 0.81596 0.91469 0.81804 0.0
C498 C 0.87342 0.88761 0.79104 0.0
C499 C 0.8615 0.85093 0.80137 0.0
C500 C 0.82791 0.84665 0.82211 0.0
C501 C 0.80519 0.87858 0.82982 0.0
C502 C 0.9086 0.8935 0.76834 0.0
C503 C 0.81491 0.80814 0.83454 0.0
C504 C 0.89028 0.77366 0.73675 0.0
C505 C 0.9245 0.76023 0.7517 0.0
C506 C 0.86888 0.80222 0.75336 0.0
C507 C 0.88141 0.81723 0.78627 0.0
C508 C 0.91479 0.80239 0.80254 0.0
C509 C 0.93631 0.7744 0.78479 0.0
C510 C 0.83394 0.81774 0.73464 0.0
C511 C 0.92842 0.81693 0.83809 0.0
H512 H 0.85929 0.9468 0.79057 0.0
H513 H 0.7785 0.8751 0.84416 0.0
H514 H 0.93377 0.87917 0.78023 0.0
H515 H 0.90384 0.8807 0.74173 0.0
H516 H 0.91554 0.92398 0.76483 0.0
H517 H 0.79243 0.81026 0.85534 0.0
H518 H 0.80302 0.79195 0.81177 0.0
H519 H 0.83946 0.79173 0.8452 0.0
H520 H 0.88099 0.76306 0.7111 0.0
H521 H 0.96255 0.76392 0.79665 0.0
H522 H 0.83868 0.84799 0.72794 0.0
H523 H 0.80859 0.81641 0.75232 0.0
H524 H 0.82728 0.80203 0.70978 0.0
H525 H 0.93983 0.84608 0.83513 0.0
H526 H 0.95134 0.7988 0.84948 0.0
H527 H 0.90421 0.81836 0.85715 0.0
C528 C 0.18542 0.90164 0.21814 0.0
C529 C 0.21868 0.90565 0.23854 0.0
C530 C 0.15683 0.87579 0.22793 0.0
C531 C 0.16114 0.85485 0.25967 0.0
C532 C 0.19557 0.85771 0.27949 0.0
C533 C 0.22428 0.88282 0.26832 0.0
C534 C 0.12122 0.87244 0.20537 0.0
C535 C 0.2009 0.83651 0.31389 0.0
C536 C 0.07073 0.82853 0.30993 0.0
C537 C 0.06939 0.78942 0.30428 0.0
C538 C 0.10047 0.85027 0.29534 0.0
C539 C 0.12854 0.83243 0.27375 0.0
C540 C 0.12611 0.79309 0.26675 0.0
C541 C 0.09689 0.7719 0.28271 0.0
C542 C 0.10262 0.89202 0.30405 0.0
C543 C 0.15461 0.77335 0.24287 0.0
H544 H 0.1812 0.91971 0.19524 0.0
H545 H 0.24982 0.8867 0.28435 0.0
H546 H 0.11363 0.84222 0.20117 0.0
H547 H 0.09678 0.88613 0.2192 0.0
H548 H 0.12484 0.88619 0.1791 0.0
H549 H 0.23019 0.84012 0.32497 0.0
H550 H 0.17986 0.84695 0.33374 0.0
H551 H 0.19541 0.80583 0.30995 0.0
H552 H 0.04946 0.84177 0.3269 0.0
H553 H 0.09547 0.74152 0.27836 0.0
H554 H 0.10188 0.90894 0.27931 0.0
H555 H 0.13015 0.89836 0.31759 0.0
H556 H 0.07872 0.90142 0.32146 0.0
H557 H 0.15675 0.78839 0.21712 0.0
H558 H 0.14667 0.74334 0.23768 0.0
H559 H 0.18345 0.77396 0.25522 0.0
C560 C 0.10575 0.23537 0.6998 0.0
C561 C 0.11899 0.24393 0.66561 0.0
C562 C 0.12795 0.21359 0.72319 0.0
C563 C 0.16362 0.19893 0.71165 0.0
C564 C 0.17742 0.20811 0.67735 0.0
C565 C 0.15517 0.23104 0.65494 0.0
C566 C 0.11275 0.20542 0.7599 0.0
C567 C 0.21478 0.1922 0.66364 0.0
C568 C 0.23577 0.15427 0.7751 0.0
C569 C 0.22656 0.11575 0.77174 0.0
C570 C 0.21462 0.18202 0.75675 0.0
C571 C 0.18447 0.17074 0.73378 0.0
C572 C 0.17481 0.13192 0.7308 0.0
C573 C 0.19559 0.10506 0.75015 0.0
C574 C 0.22492 0.22326 0.76145 0.0
C575 C 0.14342 0.11851 0.70611 0.0
H576 H 0.07801 0.24585 0.70831 0.0
H577 H 0.16541 0.23762 0.6285 0.0
H578 H 0.10475 0.17508 0.76186 0.0
H579 H 0.1352 0.21093 0.78014 0.0
H580 H 0.08713 0.22282 0.76636 0.0
H581 H 0.22236 0.20353 0.63707 0.0
H582 H 0.23841 0.19878 0.68236 0.0
H583 H 0.21268 0.16087 0.6617 0.0
H584 H 0.25963 0.16267 0.7918 0.0
H585 H 0.18847 0.07532 0.74711 0.0
H586 H 0.19893 0.24004 0.76794 0.0
H587 H 0.23665 0.23459 0.73627 0.0
H588 H 0.24652 0.22762 0.78275 0.0
H589 H 0.1158 0.13204 0.71333 0.0
H590 H 0.1396 0.08726 0.70678 0.0
H591 H 0.15017 0.12698 0.67846 0.0
C592 C 0.92731 0.3002 0.30047 0.0
C593 C 0.95582 0.30115 0.27422 0.0
C594 C 0.89262 0.28102 0.29464 0.0
C595 C 0.88652 0.26206 0.26194 0.0
C596 C 0.91402 0.26512 0.23451 0.0
C597 C 0.94825 0.28475 0.24093 0.0
C598 C 0.86375 0.2788 0.32439 0.0
C599 C 0.90875 0.2451 0.19933 0.0
C600 C 0.83306 0.16903 0.2648 0.0
C601 C 0.79783 0.17829 0.24914 0.0
C602 C 0.86179 0.19619 0.26935 0.0
C603 C 0.85504 0.23394 0.25851 0.0
C604 C 0.81916 0.24394 0.24362 0.0
C605 C 0.79089 0.21587 0.23897 0.0
C606 C 0.89968 0.18423 0.28529 0.0
C607 C 0.81088 0.28407 0.23226 0.0
H608 H 0.93263 0.31314 0.32615 0.0
H609 H 0.96987 0.28559 0.22029 0.0
H610 H 0.83423 0.28293 0.31414 0.0
H611 H 0.86499 0.25027 0.33662 0.0
H612 H 0.86941 0.30025 0.34541 0.0
H613 H 0.93009 0.25439 0.17929 0.0
H614 H 0.91193 0.21409 0.20319 0.0
H615 H 0.87957 0.25018 0.18868 0.0
H616 H 0.8384 0.14033 0.27359 0.0
H617 H 0.76359 0.22327 0.22714 0.0
H618 H 0.90575 0.20112 0.30954 0.0
H619 H 0.92322 0.1897 0.26618 0.0
H620 H 0.9002 0.15371 0.29241 0.0
H621 H 0.81633 0.30395 0.25459 0.0
H622 H 0.78083 0.28772 0.22314 0.0
H623 H 0.83041 0.29217 0.21033 0.0
loop_
_geom_bond_atom_site_label_1
_geom_bond_atom_site_label_2
_geom_bond_distance
_geom_bond_site_symmetry_2
_ccdc_geom_bond_type
Mg0 O1 2.028 . S
Mg0 O7 1.986 . S
Mg0 O9 2.114 1_545 S
Mg0 O10 2.251 1_545 S
Mg0 O13 2.010 . S
O1 Mg0 2.028 . S
O1 C4 1.250 . S
O2 Mg3 2.028 . S
O2 C4 1.248 . S
Mg3 O2 2.028 . S
Mg3 O8 2.032 . S
Mg3 O10 2.079 1_545 S
C4 O1 1.250 . S
C4 O2 1.248 . S
C5 O6 1.264 . S
C5 O13 1.249 . S
O6 C5 1.264 . S
O7 Mg0 1.986 . S
O7 C11 1.246 . S
O8 Mg3 2.032 . S
O8 C11 1.259 . S
O9 Mg0 2.114 1_565 S
O9 C12 1.252 . S
O10 Mg0 2.251 1_565 S
O10 Mg3 2.079 1_565 S
O10 C12 1.273 . S
C11 O7 1.246 . S
C11 O8 1.259 . S
C12 O9 1.252 . S
C12 O10 1.273 . S
O13 Mg0 2.010 . S
O13 C5 1.249 . S
Mg14 O15 2.028 1_655 S
Mg14 O21 1.986 . S
Mg14 O23 2.114 . S
Mg14 O24 2.251 1_655 S
Mg14 O27 2.010 . S
O15 Mg14 2.028 1_455 S
O15 C18 1.250 . S
O16 Mg17 2.028 . S
O16 C18 1.248 . S
Mg17 O16 2.028 . S
Mg17 O22 2.032 . S
Mg17 O24 2.079 . S
C18 O15 1.250 . S
C18 O16 1.248 . S
C19 O20 1.264 . S
C19 O27 1.249 . S
O20 C19 1.264 . S
O21 Mg14 1.986 . S
O21 C25 1.246 1_655 S
O22 Mg17 2.032 . S
O22 C25 1.259 . S
O23 Mg14 2.114 . S
O23 C26 1.252 1_655 S
O24 Mg14 2.251 1_455 S
O24 Mg17 2.079 . S
O24 C26 1.273 . S
C25 O21 1.246 1_455 S
C25 O22 1.259 . S
C26 O23 1.252 1_455 S
C26 O24 1.273 . S
O27 Mg14 2.010 . S
O27 C19 1.249 . S
Mg28 O29 2.028 . S
Mg28 O35 1.986 1_545 S
Mg28 O37 2.114 . S
Mg28 O38 2.251 . S
Mg28 O41 2.010 . S
O29 Mg28 2.028 . S
O29 C32 1.250 . S
O30 Mg31 2.028 . S
O30 C32 1.248 . S
Mg31 O30 2.028 . S
Mg31 O36 2.032 1_545 S
Mg31 O38 2.079 . S
C32 O29 1.250 . S
C32 O30 1.248 . S
C33 O34 1.264 . S
C33 O41 1.249 . S
O34 C33 1.264 . S
O35 Mg28 1.986 1_565 S
O35 C39 1.246 . S
O36 Mg31 2.032 1_565 S
O36 C39 1.259 . S
O37 Mg28 2.114 . S
O37 C40 1.252 . S
O38 Mg28 2.251 . S
O38 Mg31 2.079 . S
O38 C40 1.273 . S
C39 O35 1.246 . S
C39 O36 1.259 . S
C40 O37 1.252 . S
C40 O38 1.273 . S
O41 Mg28 2.010 . S
O41 C33 1.249 . S
Mg42 O43 2.028 1_455 S
Mg42 O49 1.986 . S
Mg42 O51 2.114 . S
Mg42 O52 2.251 1_455 S
Mg42 O55 2.010 . S
O43 Mg42 2.028 1_655 S
O43 C46 1.250 . S
O44 Mg45 2.028 . S
O44 C46 1.248 . S
Mg45 O44 2.028 . S
Mg45 O50 2.032 . S
Mg45 O52 2.079 . S
C46 O43 1.250 . S
C46 O44 1.248 . S
C47 O48 1.264 . S
C47 O55 1.249 . S
O48 C47 1.264 . S
O49 Mg42 1.986 . S
O49 C53 1.246 . S
O50 Mg45 2.032 . S
O50 C53 1.259 1_655 S
O51 Mg42 2.114 . S
O51 C54 1.252 . S
O52 Mg42 2.251 1_655 S
O52 Mg45 2.079 . S
O52 C54 1.273 1_655 S
C53 O49 1.246 . S
C53 O50 1.259 1_455 S
C54 O51 1.252 . S
C54 O52 1.273 1_455 S
O55 Mg42 2.010 . S
O55 C47 1.249 . S
Mg56 O57 2.028 . S
Mg56 O63 1.986 1_545 S
Mg56 O65 2.114 . S
Mg56 O66 2.251 . S
Mg56 O69 2.010 . S
O57 Mg56 2.028 . S
O57 C60 1.250 . S
O58 Mg59 2.028 . S
O58 C60 1.248 . S
Mg59 O58 2.028 . S
Mg59 O64 2.032 1_545 S
Mg59 O66 2.079 . S
C60 O57 1.250 . S
C60 O58 1.248 . S
C61 O62 1.264 . S
C61 O69 1.249 . S
O62 C61 1.264 . S
O63 Mg56 1.986 1_565 S
O63 C67 1.246 . S
O64 Mg59 2.032 1_565 S
O64 C67 1.259 . S
O65 Mg56 2.114 . S
O65 C68 1.252 . S
O66 Mg56 2.251 . S
O66 Mg59 2.079 . S
O66 C68 1.273 . S
C67 O63 1.246 . S
C67 O64 1.259 . S
C68 O65 1.252 . S
C68 O66 1.273 . S
O69 Mg56 2.010 . S
O69 C61 1.249 . S
Mg70 O71 2.028 1_455 S
Mg70 O77 1.986 . S
Mg70 O79 2.114 . S
Mg70 O80 2.251 1_455 S
Mg70 O83 2.010 . S
O71 Mg70 2.028 1_655 S
O71 C74 1.250 . S
O72 Mg73 2.028 . S
O72 C74 1.248 . S
Mg73 O72 2.028 . S
Mg73 O78 2.032 . S
Mg73 O80 2.079 . S
C74 O71 1.250 . S
C74 O72 1.248 . S
C75 O76 1.264 . S
C75 O83 1.249 . S
O76 C75 1.264 . S
O77 Mg70 1.986 . S
O77 C81 1.246 . S
O78 Mg73 2.032 . S
O78 C81 1.259 1_655 S
O79 Mg70 2.114 . S
O79 C82 1.252 . S
O80 Mg70 2.251 1_655 S
O80 Mg73 2.079 . S
O80 C82 1.273 1_655 S
C81 O77 1.246 . S
C81 O78 1.259 1_455 S
C82 O79 1.252 . S
C82 O80 1.273 1_455 S
O83 Mg70 2.010 . S
O83 C75 1.249 . S
Mg84 O85 2.028 . S
Mg84 O91 1.986 . S
Mg84 O93 2.114 1_545 S
Mg84 O94 2.251 1_545 S
Mg84 O97 2.010 . S
O85 Mg84 2.028 . S
O85 C88 1.250 . S
O86 Mg87 2.028 . S
O86 C88 1.248 . S
Mg87 O86 2.028 . S
Mg87 O92 2.032 . S
Mg87 O94 2.079 1_545 S
C88 O85 1.250 . S
C88 O86 1.248 . S
C89 O90 1.264 . S
C89 O97 1.249 . S
O90 C89 1.264 . S
O91 Mg84 1.986 . S
O91 C95 1.246 . S
O92 Mg87 2.032 . S
O92 C95 1.259 . S
O93 Mg84 2.114 1_565 S
O93 C96 1.252 . S
O94 Mg84 2.251 1_565 S
O94 Mg87 2.079 1_565 S
O94 C96 1.273 . S
C95 O91 1.246 . S
C95 O92 1.259 . S
C96 O93 1.252 . S
C96 O94 1.273 . S
O97 Mg84 2.010 . S
O97 C89 1.249 . S
Mg98 O99 2.028 1_655 S
Mg98 O105 1.986 . S
Mg98 O107 2.114 . S
Mg98 O108 2.251 1_655 S
Mg98 O111 2.010 . S
O99 Mg98 2.028 1_455 S
O99 C102 1.250 . S
O100 Mg101 2.028 . S
O100 C102 1.248 . S
Mg101 O100 2.028 . S
Mg101 O106 2.032 . S
Mg101 O108 2.079 . S
C102 O99 1.250 . S
C102 O100 1.248 . S
C103 O104 1.264 . S
C103 O111 1.249 . S
O104 C103 1.264 . S
O105 Mg98 1.986 . S
O105 C109 1.246 1_655 S
O106 Mg101 2.032 . S
O106 C109 1.259 . S
O107 Mg98 2.114 . S
O107 C110 1.252 1_655 S
O108 Mg98 2.251 1_455 S
O108 Mg101 2.079 . S
O108 C110 1.273 . S
C109 O105 1.246 1_455 S
C109 O106 1.259 . S
C110 O107 1.252 1_455 S
C110 O108 1.273 . S
O111 Mg98 2.010 . S
O111 C103 1.249 . S
C112 C113 1.391 . S
C112 C114 1.394 . S
C112 H128 0.931 1_545 S
C113 C112 1.391 . S
C113 C117 1.376 . S
C114 C112 1.394 . S
C114 C115 1.369 . S
C114 C118 1.531 1_545 S
C115 C114 1.369 . S
C115 C116 1.410 . S
C115 C123 1.503 1_554 S
C116 C115 1.410 . S
C116 C117 1.392 . S
C116 C119 1.511 . S
C117 C113 1.376 . S
C117 C116 1.392 . S
C117 H129 0.929 . S
C118 C114 1.531 1_565 S
C118 H130 0.960 1_554 S
C118 H131 0.962 1_565 S
C118 H132 0.960 . S
C119 C116 1.511 . S
C119 H133 0.961 . S
C119 H134 0.948 1_554 S
C119 H135 0.961 . S
C120 C121 1.370 . S
C120 C122 1.363 . S
C120 H136 0.931 . S
C121 C120 1.370 . S
C121 C125 1.408 . S
C122 C120 1.363 . S
C122 C123 1.370 . S
C122 C126 1.524 . S
C123 C115 1.503 1_556 S
C123 C122 1.370 . S
C123 C124 1.403 . S
C124 C123 1.403 . S
C124 C125 1.404 . S
C124 C127 1.539 1_545 S
C125 C121 1.408 . S
C125 C124 1.404 . S
C125 H137 0.930 1_545 S
C126 C122 1.524 . S
C126 H138 0.956 1_556 S
C126 H139 0.961 1_556 S
C126 H140 0.961 . S
C127 C124 1.539 1_565 S
C127 H141 0.958 . S
C127 H142 0.961 . S
C127 H143 0.960 . S
H128 C112 0.931 1_565 S
H129 C117 0.929 . S
H130 C118 0.960 1_556 S
H131 C118 0.962 1_545 S
H132 C118 0.960 . S
H133 C119 0.961 . S
H134 C119 0.948 1_556 S
H135 C119 0.961 . S
H136 C120 0.931 . S
H137 C125 0.930 1_565 S
H138 C126 0.956 1_554 S
H139 C126 0.961 1_554 S
H140 C126 0.961 . S
H141 C127 0.958 . S
H142 C127 0.961 . S
H143 C127 0.960 . S
C144 C145 1.391 1_655 S
C144 C146 1.394 . S
C144 H160 0.931 . S
C145 C144 1.391 1_455 S
C145 C149 1.376 . S
C146 C144 1.394 . S
C146 C147 1.369 1_655 S
C146 C150 1.531 . S
C147 C146 1.369 1_455 S
C147 C148 1.410 . S
C147 C155 1.503 . S
C148 C147 1.410 . S
C148 C149 1.392 . S
C148 C151 1.511 . S
C149 C145 1.376 . S
C149 C148 1.392 . S
C149 H161 0.929 . S
C150 C146 1.531 . S
C150 H162 0.960 . S
C150 H163 0.962 . S
C150 H164 0.960 . S
C151 C148 1.511 . S
C151 H165 0.961 . S
C151 H166 0.961 . S
C151 H167 0.961 . S
C152 C153 1.370 1_655 S
C152 C154 1.363 . S
C152 H168 0.931 . S
C153 C152 1.370 1_455 S
C153 C157 1.408 . S
C154 C152 1.363 . S
C154 C155 1.370 1_655 S
C154 C158 1.524 . S
C155 C147 1.503 . S
C155 C154 1.370 1_455 S
C155 C156 1.403 . S
C156 C155 1.403 . S
C156 C157 1.404 . S
C156 C159 1.539 . S
C157 C153 1.408 . S
C157 C156 1.404 . S
C157 H169 0.930 . S
C158 C154 1.524 . S
C158 H170 0.956 . S
C158 H171 0.961 . S
C158 H172 0.961 . S
C159 C156 1.539 . S
C159 H173 0.958 . S
C159 H174 0.961 . S
C159 H175 0.960 . S
H160 C144 0.931 . S
H161 C149 0.929 . S
H162 C150 0.960 . S
H163 C150 0.962 . S
H164 C150 0.960 . S
H165 C151 0.961 . S
H166 C151 0.961 . S
H167 C151 0.961 . S
H168 C152 0.931 . S
H169 C157 0.930 . S
H170 C158 0.956 . S
H171 C158 0.961 . S
H172 C158 0.961 . S
H173 C159 0.958 . S
H174 C159 0.961 . S
H175 C159 0.960 . S
C176 C177 1.391 . S
C176 C178 1.394 . S
C176 H192 0.931 1_545 S
C177 C176 1.391 . S
C177 C181 1.376 . S
C178 C176 1.394 . S
C178 C179 1.369 . S
C178 C182 1.531 1_545 S
C179 C178 1.369 . S
C179 C180 1.410 . S
C179 C187 1.503 1_556 S
C180 C179 1.410 . S
C180 C181 1.392 . S
C180 C183 1.511 . S
C181 C177 1.376 . S
C181 C180 1.392 . S
C181 H193 0.929 . S
C182 C178 1.531 1_565 S
C182 H194 0.960 1_556 S
C182 H195 0.962 1_565 S
C182 H196 0.960 . S
C183 C180 1.511 . S
C183 H197 0.961 . S
C183 H198 0.946 1_556 S
C183 H199 0.961 . S
C184 C185 1.370 . S
C184 C186 1.363 . S
C184 H200 0.931 . S
C185 C184 1.370 . S
C185 C189 1.408 . S
C186 C184 1.363 . S
C186 C187 1.370 . S
C186 C190 1.524 . S
C187 C179 1.503 1_554 S
C187 C186 1.370 . S
C187 C188 1.403 . S
C188 C187 1.403 . S
C188 C189 1.404 . S
C188 C191 1.539 1_545 S
C189 C185 1.408 . S
C189 C188 1.404 . S
C189 H201 0.930 1_545 S
C190 C186 1.524 . S
C190 H202 0.956 1_554 S
C190 H203 0.961 1_554 S
C190 H204 0.961 . S
C191 C188 1.539 1_565 S
C191 H205 0.958 . S
C191 H206 0.961 . S
C191 H207 0.960 . S
H192 C176 0.931 1_565 S
H193 C181 0.929 . S
H194 C182 0.960 1_554 S
H195 C182 0.962 1_545 S
H196 C182 0.960 . S
H197 C183 0.961 . S
H198 C183 0.946 1_554 S
H199 C183 0.961 . S
H200 C184 0.931 . S
H201 C189 0.930 1_565 S
H202 C190 0.956 1_556 S
H203 C190 0.961 1_556 S
H204 C190 0.961 . S
H205 C191 0.958 . S
H206 C191 0.961 . S
H207 C191 0.960 . S
C208 C209 1.391 . S
C208 C210 1.394 . S
C208 H224 0.931 . S
C209 C208 1.391 . S
C209 C213 1.376 1_455 S
C210 C208 1.394 . S
C210 C211 1.369 . S
C210 C214 1.531 . S
C211 C210 1.369 . S
C211 C212 1.410 1_455 S
C211 C219 1.503 . S
C212 C211 1.410 1_655 S
C212 C213 1.392 . S
C212 C215 1.511 . S
C213 C209 1.376 1_655 S
C213 C212 1.392 . S
C213 H225 0.929 . S
C214 C210 1.531 . S
C214 H226 0.960 . S
C214 H227 0.962 . S
C214 H228 0.960 . S
C215 C212 1.511 . S
C215 H229 0.961 . S
C215 H230 0.961 . S
C215 H231 0.961 . S
C216 C217 1.370 . S
C216 C218 1.363 . S
C216 H232 0.931 . S
C217 C216 1.370 . S
C217 C221 1.408 1_455 S
C218 C216 1.363 . S
C218 C219 1.370 . S
C218 C222 1.524 . S
C219 C211 1.503 . S
C219 C218 1.370 . S
C219 C220 1.403 1_455 S
C220 C219 1.403 1_655 S
C220 C221 1.404 . S
C220 C223 1.539 . S
C221 C217 1.408 1_655 S
C221 C220 1.404 . S
C221 H233 0.930 . S
C222 C218 1.524 . S
C222 H234 0.956 . S
C222 H235 0.961 . S
C222 H236 0.961 . S
C223 C220 1.539 . S
C223 H237 0.958 . S
C223 H238 0.961 . S
C223 H239 0.960 . S
H224 C208 0.931 . S
H225 C213 0.929 . S
H226 C214 0.960 . S
H227 C214 0.962 . S
H228 C214 0.960 . S
H229 C215 0.961 . S
H230 C215 0.961 . S
H231 C215 0.961 . S
H232 C216 0.931 . S
H233 C221 0.930 . S
H234 C222 0.956 . S
H235 C222 0.961 . S
H236 C222 0.961 . S
H237 C223 0.958 . S
H238 C223 0.961 . S
H239 C223 0.960 . S
C240 C241 1.391 1_565 S
C240 C242 1.394 . S
C240 H256 0.931 . S
C241 C240 1.391 1_545 S
C241 C245 1.376 . S
C242 C240 1.394 . S
C242 C243 1.369 1_565 S
C242 C246 1.531 . S
C243 C242 1.369 1_545 S
C243 C244 1.410 . S
C243 C251 1.503 . S
C244 C243 1.410 . S
C244 C245 1.392 . S
C244 C247 1.511 . S
C245 C241 1.376 . S
C245 C244 1.392 . S
C245 H257 0.929 . S
C246 C242 1.531 . S
C246 H258 0.960 . S
C246 H259 0.962 . S
C246 H260 0.960 . S
C247 C244 1.511 . S
C247 H261 0.961 . S
C247 H262 0.961 . S
C247 H263 0.961 . S
C248 C249 1.370 . S
C248 C250 1.363 . S
C248 H264 0.931 . S
C249 C248 1.370 . S
C249 C253 1.408 . S
C250 C248 1.363 . S
C250 C251 1.370 . S
C250 C254 1.524 . S
C251 C243 1.503 . S
C251 C250 1.370 . S
C251 C252 1.403 . S
C252 C251 1.403 . S
C252 C253 1.404 . S
C252 C255 1.539 . S
C253 C249 1.408 . S
C253 C252 1.404 . S
C253 H265 0.930 . S
C254 C250 1.524 . S
C254 H266 0.956 . S
C254 H267 0.961 . S
C254 H268 0.961 . S
C255 C252 1.539 . S
C255 H269 0.958 1_545 S
C255 H270 0.961 . S
C255 H271 0.960 . S
H256 C240 0.931 . S
H257 C245 0.929 . S
H258 C246 0.960 . S
H259 C246 0.962 . S
H260 C246 0.960 . S
H261 C247 0.961 . S
H262 C247 0.961 . S
H263 C247 0.961 . S
H264 C248 0.931 . S
H265 C253 0.930 . S
H266 C254 0.956 . S
H267 C254 0.961 . S
H268 C254 0.961 . S
H269 C255 0.958 1_565 S
H270 C255 0.961 . S
H271 C255 0.960 . S
C272 C273 1.391 . S
C272 C274 1.394 . S
C272 H288 0.931 . S
C273 C272 1.391 . S
C273 C277 1.376 . S
C274 C272 1.394 . S
C274 C275 1.369 . S
C274 C278 1.531 . S
C275 C274 1.369 . S
C275 C276 1.410 . S
C275 C283 1.503 . S
C276 C275 1.410 . S
C276 C277 1.392 . S
C276 C279 1.511 . S
C277 C273 1.376 . S
C277 C276 1.392 . S
C277 H289 0.929 . S
C278 C274 1.531 . S
C278 H290 0.960 . S
C278 H291 0.962 1_455 S
C278 H292 0.960 . S
C279 C276 1.511 . S
C279 H293 0.961 . S
C279 H294 0.961 . S
C279 H295 0.961 . S
C280 C281 1.370 1_655 S
C280 C282 1.363 . S
C280 H296 0.931 . S
C281 C280 1.370 1_455 S
C281 C285 1.408 . S
C282 C280 1.363 . S
C282 C283 1.370 1_655 S
C282 C286 1.524 . S
C283 C275 1.503 . S
C283 C282 1.370 1_455 S
C283 C284 1.403 . S
C284 C283 1.403 . S
C284 C285 1.404 . S
C284 C287 1.539 . S
C285 C281 1.408 . S
C285 C284 1.404 . S
C285 H297 0.930 . S
C286 C282 1.524 . S
C286 H298 0.956 . S
C286 H299 0.961 . S
C286 H300 0.961 . S
C287 C284 1.539 . S
C287 H301 0.958 . S
C287 H302 0.961 . S
C287 H303 0.960 . S
H288 C272 0.931 . S
H289 C277 0.929 . S
H290 C278 0.960 . S
H291 C278 0.962 1_655 S
H292 C278 0.960 . S
H293 C279 0.961 . S
H294 C279 0.961 . S
H295 C279 0.961 . S
H296 C280 0.931 . S
H297 C285 0.930 . S
H298 C286 0.956 . S
H299 C286 0.961 . S
H300 C286 0.961 . S
H301 C287 0.958 . S
H302 C287 0.961 . S
H303 C287 0.960 . S
C304 C305 1.391 1_565 S
C304 C306 1.394 . S
C304 H320 0.931 . S
C305 C304 1.391 1_545 S
C305 C309 1.376 . S
C306 C304 1.394 . S
C306 C307 1.369 1_565 S
C306 C310 1.531 . S
C307 C306 1.369 1_545 S
C307 C308 1.410 . S
C307 C315 1.503 . S
C308 C307 1.410 . S
C308 C309 1.392 . S
C308 C311 1.511 . S
C309 C305 1.376 . S
C309 C308 1.392 . S
C309 H321 0.929 . S
C310 C306 1.531 . S
C310 H322 0.960 . S
C310 H323 0.962 . S
C310 H324 0.960 . S
C311 C308 1.511 . S
C311 H325 0.961 . S
C311 H326 0.961 . S
C311 H327 0.961 . S
C312 C313 1.370 . S
C312 C314 1.363 . S
C312 H328 0.931 . S
C313 C312 1.370 . S
C313 C317 1.408 . S
C314 C312 1.363 . S
C314 C315 1.370 . S
C314 C318 1.524 . S
C315 C307 1.503 . S
C315 C314 1.370 . S
C315 C316 1.403 . S
C316 C315 1.403 . S
C316 C317 1.404 . S
C316 C319 1.539 . S
C317 C313 1.408 . S
C317 C316 1.404 . S
C317 H329 0.930 . S
C318 C314 1.524 . S
C318 H330 0.956 . S
C318 H331 0.961 . S
C318 H332 0.961 . S
C319 C316 1.539 . S
C319 H333 0.958 . S
C319 H334 0.961 . S
C319 H335 0.960 . S
H320 C304 0.931 . S
H321 C309 0.929 . S
H322 C310 0.960 . S
H323 C310 0.962 . S
H324 C310 0.960 . S
H325 C311 0.961 . S
H326 C311 0.961 . S
H327 C311 0.961 . S
H328 C312 0.931 . S
H329 C317 0.930 . S
H330 C318 0.956 . S
H331 C318 0.961 . S
H332 C318 0.961 . S
H333 C319 0.958 . S
H334 C319 0.961 . S
H335 C319 0.960 . S
C336 C337 1.391 1_655 S
C336 C338 1.394 . S
C336 H352 0.931 . S
C337 C336 1.391 1_455 S
C337 C341 1.376 . S
C338 C336 1.394 . S
C338 C339 1.369 1_655 S
C338 C342 1.531 . S
C339 C338 1.369 1_455 S
C339 C340 1.410 . S
C339 C347 1.503 . S
C340 C339 1.410 . S
C340 C341 1.392 . S
C340 C343 1.511 . S
C341 C337 1.376 . S
C341 C340 1.392 . S
C341 H353 0.929 . S
C342 C338 1.531 . S
C342 H354 0.960 . S
C342 H355 0.962 . S
C342 H356 0.960 . S
C343 C340 1.511 . S
C343 H357 0.961 . S
C343 H358 0.961 . S
C343 H359 0.961 . S
C344 C345 1.370 1_655 S
C344 C346 1.363 . S
C344 H360 0.931 . S
C345 C344 1.370 1_455 S
C345 C349 1.408 . S
C346 C344 1.363 . S
C346 C347 1.370 1_655 S
C346 C350 1.524 . S
C347 C339 1.503 . S
C347 C346 1.370 1_455 S
C347 C348 1.403 . S
C348 C347 1.403 . S
C348 C349 1.404 . S
C348 C351 1.539 . S
C349 C345 1.408 . S
C349 C348 1.404 . S
C349 H361 0.930 . S
C350 C346 1.524 . S
C350 H362 0.956 . S
C350 H363 0.961 . S
C350 H364 0.961 . S
C351 C348 1.539 . S
C351 H365 0.958 . S
C351 H366 0.961 . S
C351 H367 0.960 . S
H352 C336 0.931 . S
H353 C341 0.929 . S
H354 C342 0.960 . S
H355 C342 0.962 . S
H356 C342 0.960 . S
H357 C343 0.961 . S
H358 C343 0.961 . S
H359 C343 0.961 . S
H360 C344 0.931 . S
H361 C349 0.930 . S
H362 C350 0.956 . S
H363 C350 0.961 . S
H364 C350 0.961 . S
H365 C351 0.958 . S
H366 C351 0.961 . S
H367 C351 0.960 . S
C368 C369 1.391 . S
C368 C370 1.394 . S
C368 H384 0.931 . S
C369 C368 1.391 . S
C369 C373 1.376 . S
C370 C368 1.394 . S
C370 C371 1.369 . S
C370 C374 1.531 . S
C371 C370 1.369 . S
C371 C372 1.410 . S
C371 C379 1.503 . S
C372 C371 1.410 . S
C372 C373 1.392 . S
C372 C375 1.511 . S
C373 C369 1.376 . S
C373 C372 1.392 . S
C373 H385 0.929 . S
C374 C370 1.531 . S
C374 H386 0.960 . S
C374 H387 0.962 . S
C374 H388 0.960 . S
C375 C372 1.511 . S
C375 H389 0.961 . S
C375 H390 0.961 . S
C375 H391 0.961 . S
C376 C377 1.370 . S
C376 C378 1.363 . S
C376 H392 0.931 . S
C377 C376 1.370 . S
C377 C381 1.408 . S
C378 C376 1.363 . S
C378 C379 1.370 . S
C378 C382 1.524 . S
C379 C371 1.503 . S
C379 C378 1.370 . S
C379 C380 1.403 . S
C380 C379 1.403 . S
C380 C381 1.404 . S
C380 C383 1.539 . S
C381 C377 1.408 . S
C381 C380 1.404 . S
C381 H393 0.930 . S
C382 C378 1.524 . S
C382 H394 0.956 . S
C382 H395 0.961 . S
C382 H396 0.961 . S
C383 C380 1.539 . S
C383 H397 0.958 . S
C383 H398 0.961 . S
C383 H399 0.960 . S
H384 C368 0.931 . S
H385 C373 0.929 . S
H386 C374 0.960 . S
H387 C374 0.962 . S
H388 C374 0.960 . S
H389 C375 0.961 . S
H390 C375 0.961 . S
H391 C375 0.961 . S
H392 C376 0.931 . S
H393 C381 0.930 . S
H394 C382 0.956 . S
H395 C382 0.961 . S
H396 C382 0.961 . S
H397 C383 0.958 . S
H398 C383 0.961 . S
H399 C383 0.960 . S
C400 C401 1.391 . S
C400 C402 1.394 . S
C400 H416 0.931 . S
C401 C400 1.391 . S
C401 C405 1.376 . S
C402 C400 1.394 . S
C402 C403 1.369 . S
C402 C406 1.531 . S
C403 C402 1.369 . S
C403 C404 1.410 . S
C403 C411 1.503 . S
C404 C403 1.410 . S
C404 C405 1.392 . S
C404 C407 1.511 . S
C405 C401 1.376 . S
C405 C404 1.392 . S
C405 H417 0.929 . S
C406 C402 1.531 . S
C406 H418 0.960 . S
C406 H419 0.962 . S
C406 H420 0.960 . S
C407 C404 1.511 . S
C407 H421 0.961 . S
C407 H422 0.961 . S
C407 H423 0.961 . S
C408 C409 1.370 . S
C408 C410 1.363 . S
C408 H424 0.931 . S
C409 C408 1.370 . S
C409 C413 1.408 . S
C410 C408 1.363 . S
C410 C411 1.370 . S
C410 C414 1.524 . S
C411 C403 1.503 . S
C411 C410 1.370 . S
C411 C412 1.403 . S
C412 C411 1.403 . S
C412 C413 1.404 . S
C412 C415 1.539 . S
C413 C409 1.408 . S
C413 C412 1.404 . S
C413 H425 0.930 . S
C414 C410 1.524 . S
C414 H426 0.956 . S
C414 H427 0.961 . S
C414 H428 0.961 . S
C415 C412 1.539 . S
C415 H429 0.958 . S
C415 H430 0.961 . S
C415 H431 0.960 . S
H416 C400 0.931 . S
H417 C405 0.929 . S
H418 C406 0.960 . S
H419 C406 0.962 . S
H420 C406 0.960 . S
H421 C407 0.961 . S
H422 C407 0.961 . S
H423 C407 0.961 . S
H424 C408 0.931 . S
H425 C413 0.930 . S
H426 C414 0.956 . S
H427 C414 0.961 . S
H428 C414 0.961 . S
H429 C415 0.958 . S
H430 C415 0.961 . S
H431 C415 0.960 . S
C432 C433 1.391 . S
C432 C434 1.394 . S
C432 H448 0.931 . S
C433 C432 1.391 . S
C433 C437 1.376 . S
C434 C432 1.394 . S
C434 C435 1.369 . S
C434 C438 1.531 . S
C435 C434 1.369 . S
C435 C436 1.410 . S
C435 C443 1.503 . S
C436 C435 1.410 . S
C436 C437 1.392 . S
C436 C439 1.511 . S
C437 C433 1.376 . S
C437 C436 1.392 . S
C437 H449 0.929 . S
C438 C434 1.531 . S
C438 H450 0.960 . S
C438 H451 0.962 . S
C438 H452 0.960 . S
C439 C436 1.511 . S
C439 H453 0.961 . S
C439 H454 0.961 . S
C439 H455 0.961 . S
C440 C441 1.370 . S
C440 C442 1.363 . S
C440 H456 0.931 . S
C441 C440 1.370 . S
C441 C445 1.408 . S
C442 C440 1.363 . S
C442 C443 1.370 . S
C442 C446 1.524 . S
C443 C435 1.503 . S
C443 C442 1.370 . S
C443 C444 1.403 . S
C444 C443 1.403 . S
C444 C445 1.404 . S
C444 C447 1.539 . S
C445 C441 1.408 . S
C445 C444 1.404 . S
C445 H457 0.930 . S
C446 C442 1.524 . S
C446 H458 0.956 . S
C446 H459 0.961 . S
C446 H460 0.961 . S
C447 C444 1.539 . S
C447 H461 0.958 . S
C447 H462 0.961 . S
C447 H463 0.960 . S
H448 C432 0.931 . S
H449 C437 0.929 . S
H450 C438 0.960 . S
H451 C438 0.962 . S
H452 C438 0.960 . S
H453 C439 0.961 . S
H454 C439 0.961 . S
H455 C439 0.961 . S
H456 C440 0.931 . S
H457 C445 0.930 . S
H458 C446 0.956 . S
H459 C446 0.961 . S
H460 C446 0.961 . S
H461 C447 0.958 . S
H462 C447 0.961 . S
H463 C447 0.960 . S
C464 C465 1.391 . S
C464 C466 1.394 . S
C464 H480 0.931 . S
C465 C464 1.391 . S
C465 C469 1.376 . S
C466 C464 1.394 . S
C466 C467 1.369 . S
C466 C470 1.531 . S
C467 C466 1.369 . S
C467 C468 1.410 . S
C467 C475 1.503 . S
C468 C467 1.410 . S
C468 C469 1.392 . S
C468 C471 1.511 . S
C469 C465 1.376 . S
C469 C468 1.392 . S
C469 H481 0.929 . S
C470 C466 1.531 . S
C470 H482 0.960 . S
C470 H483 0.962 . S
C470 H484 0.960 . S
C471 C468 1.511 . S
C471 H485 0.961 . S
C471 H486 0.961 . S
C471 H487 0.961 . S
C472 C473 1.370 . S
C472 C474 1.363 . S
C472 H488 0.931 . S
C473 C472 1.370 . S
C473 C477 1.408 . S
C474 C472 1.363 . S
C474 C475 1.370 . S
C474 C478 1.524 . S
C475 C467 1.503 . S
C475 C474 1.370 . S
C475 C476 1.403 . S
C476 C475 1.403 . S
C476 C477 1.404 . S
C476 C479 1.539 . S
C477 C473 1.408 . S
C477 C476 1.404 . S
C477 H489 0.930 . S
C478 C474 1.524 . S
C478 H490 0.956 . S
C478 H491 0.961 . S
C478 H492 0.961 . S
C479 C476 1.539 . S
C479 H493 0.958 . S
C479 H494 0.961 . S
C479 H495 0.960 . S
H480 C464 0.931 . S
H481 C469 0.929 . S
H482 C470 0.960 . S
H483 C470 0.962 . S
H484 C470 0.960 . S
H485 C471 0.961 . S
H486 C471 0.961 . S
H487 C471 0.961 . S
H488 C472 0.931 . S
H489 C477 0.930 . S
H490 C478 0.956 . S
H491 C478 0.961 . S
H492 C478 0.961 . S
H493 C479 0.958 . S
H494 C479 0.961 . S
H495 C479 0.960 . S
C496 C497 1.391 . S
C496 C498 1.394 . S
C496 H512 0.931 . S
C497 C496 1.391 . S
C497 C501 1.376 . S
C498 C496 1.394 . S
C498 C499 1.369 . S
C498 C502 1.531 . S
C499 C498 1.369 . S
C499 C500 1.410 . S
C499 C507 1.503 . S
C500 C499 1.410 . S
C500 C501 1.392 . S
C500 C503 1.511 . S
C501 C497 1.376 . S
C501 C500 1.392 . S
C501 H513 0.929 . S
C502 C498 1.531 . S
C502 H514 0.960 . S
C502 H515 0.962 . S
C502 H516 0.960 . S
C503 C500 1.511 . S
C503 H517 0.961 . S
C503 H518 0.961 . S
C503 H519 0.961 . S
C504 C505 1.370 . S
C504 C506 1.363 . S
C504 H520 0.931 . S
C505 C504 1.370 . S
C505 C509 1.408 . S
C506 C504 1.363 . S
C506 C507 1.370 . S
C506 C510 1.524 . S
C507 C499 1.503 . S
C507 C506 1.370 . S
C507 C508 1.403 . S
C508 C507 1.403 . S
C508 C509 1.404 . S
C508 C511 1.539 . S
C509 C505 1.408 . S
C509 C508 1.404 . S
C509 H521 0.930 . S
C510 C506 1.524 . S
C510 H522 0.956 . S
C510 H523 0.961 . S
C510 H524 0.961 . S
C511 C508 1.539 . S
C511 H525 0.958 . S
C511 H526 0.961 . S
C511 H527 0.960 . S
H512 C496 0.931 . S
H513 C501 0.929 . S
H514 C502 0.960 . S
H515 C502 0.962 . S
H516 C502 0.960 . S
H517 C503 0.961 . S
H518 C503 0.961 . S
H519 C503 0.961 . S
H520 C504 0.931 . S
H521 C509 0.930 . S
H522 C510 0.956 . S
H523 C510 0.961 . S
H524 C510 0.961 . S
H525 C511 0.958 . S
H526 C511 0.961 . S
H527 C511 0.960 . S
C528 C529 1.391 . S
C528 C530 1.394 . S
C528 H544 0.931 . S
C529 C528 1.391 . S
C529 C533 1.376 . S
C530 C528 1.394 . S
C530 C531 1.369 . S
C530 C534 1.531 . S
C531 C530 1.369 . S
C531 C532 1.410 . S
C531 C539 1.503 . S
C532 C531 1.410 . S
C532 C533 1.392 . S
C532 C535 1.511 . S
C533 C529 1.376 . S
C533 C532 1.392 . S
C533 H545 0.929 . S
C534 C530 1.531 . S
C534 H546 0.960 . S
C534 H547 0.962 . S
C534 H548 0.960 . S
C535 C532 1.511 . S
C535 H549 0.961 . S
C535 H550 0.961 . S
C535 H551 0.961 . S
C536 C537 1.370 . S
C536 C538 1.363 . S
C536 H552 0.931 . S
C537 C536 1.370 . S
C537 C541 1.408 . S
C538 C536 1.363 . S
C538 C539 1.370 . S
C538 C542 1.524 . S
C539 C531 1.503 . S
C539 C538 1.370 . S
C539 C540 1.403 . S
C540 C539 1.403 . S
C540 C541 1.404 . S
C540 C543 1.539 . S
C541 C537 1.408 . S
C541 C540 1.404 . S
C541 H553 0.930 . S
C542 C538 1.524 . S
C542 H554 0.956 . S
C542 H555 0.961 . S
C542 H556 0.961 . S
C543 C540 1.539 . S
C543 H557 0.958 . S
C543 H558 0.961 . S
C543 H559 0.960 . S
H544 C528 0.931 . S
H545 C533 0.929 . S
H546 C534 0.960 . S
H547 C534 0.962 . S
H548 C534 0.960 . S
H549 C535 0.961 . S
H550 C535 0.961 . S
H551 C535 0.961 . S
H552 C536 0.931 . S
H553 C541 0.930 . S
H554 C542 0.956 . S
H555 C542 0.961 . S
H556 C542 0.961 . S
H557 C543 0.958 . S
H558 C543 0.961 . S
H559 C543 0.960 . S
C560 C561 1.391 . S
C560 C562 1.394 . S
C560 H576 0.931 . S
C561 C560 1.391 . S
C561 C565 1.376 . S
C562 C560 1.394 . S
C562 C563 1.369 . S
C562 C566 1.531 . S
C563 C562 1.369 . S
C563 C564 1.410 . S
C563 C571 1.503 . S
C564 C563 1.410 . S
C564 C565 1.392 . S
C564 C567 1.511 . S
C565 C561 1.376 . S
C565 C564 1.392 . S
C565 H577 0.929 . S
C566 C562 1.531 . S
C566 H578 0.960 . S
C566 H579 0.962 . S
C566 H580 0.960 . S
C567 C564 1.511 . S
C567 H581 0.961 . S
C567 H582 0.961 . S
C567 H583 0.961 . S
C568 C569 1.370 . S
C568 C570 1.363 . S
C568 H584 0.931 . S
C569 C568 1.370 . S
C569 C573 1.408 . S
C570 C568 1.363 . S
C570 C571 1.370 . S
C570 C574 1.524 . S
C571 C563 1.503 . S
C571 C570 1.370 . S
C571 C572 1.403 . S
C572 C571 1.403 . S
C572 C573 1.404 . S
C572 C575 1.539 . S
C573 C569 1.408 . S
C573 C572 1.404 . S
C573 H585 0.930 . S
C574 C570 1.524 . S
C574 H586 0.956 . S
C574 H587 0.961 . S
C574 H588 0.961 . S
C575 C572 1.539 . S
C575 H589 0.958 . S
C575 H590 0.961 . S
C575 H591 0.960 . S
H576 C560 0.931 . S
H577 C565 0.929 . S
H578 C566 0.960 . S
H579 C566 0.962 . S
H580 C566 0.960 . S
H581 C567 0.961 . S
H582 C567 0.961 . S
H583 C567 0.961 . S
H584 C568 0.931 . S
H585 C573 0.930 . S
H586 C574 0.956 . S
H587 C574 0.961 . S
H588 C574 0.961 . S
H589 C575 0.958 . S
H590 C575 0.961 . S
H591 C575 0.960 . S
C592 C593 1.391 . S
C592 C594 1.394 . S
C592 H608 0.931 . S
C593 C592 1.391 . S
C593 C597 1.376 . S
C594 C592 1.394 . S
C594 C595 1.369 . S
C594 C598 1.531 . S
C595 C594 1.369 . S
C595 C596 1.410 . S
C595 C603 1.503 . S
C596 C595 1.410 . S
C596 C597 1.392 . S
C596 C599 1.511 . S
C597 C593 1.376 . S
C597 C596 1.392 . S
C597 H609 0.929 . S
C598 C594 1.531 . S
C598 H610 0.960 . S
C598 H611 0.962 . S
C598 H612 0.960 . S
C599 C596 1.511 . S
C599 H613 0.961 . S
C599 H614 0.961 . S
C599 H615 0.961 . S
C600 C601 1.370 . S
C600 C602 1.363 . S
C600 H616 0.931 . S
C601 C600 1.370 . S
C601 C605 1.408 . S
C602 C600 1.363 . S
C602 C603 1.370 . S
C602 C606 1.524 . S
C603 C595 1.503 . S
C603 C602 1.370 . S
C603 C604 1.403 . S
C604 C603 1.403 . S
C604 C605 1.404 . S
C604 C607 1.539 . S
C605 C601 1.408 . S
C605 C604 1.404 . S
C605 H617 0.930 . S
C606 C602 1.524 . S
C606 H618 0.956 . S
C606 H619 0.961 . S
C606 H620 0.961 . S
C607 C604 1.539 . S
C607 H621 0.958 . S
C607 H622 0.961 . S
C607 H623 0.960 . S
H608 C592 0.931 . S
H609 C597 0.929 . S
H610 C598 0.960 . S
H611 C598 0.962 . S
H612 C598 0.960 . S
H613 C599 0.961 . S
H614 C599 0.961 . S
H615 C599 0.961 . S
H616 C600 0.931 . S
H617 C605 0.930 . S
H618 C606 0.956 . S
H619 C606 0.961 . S
H620 C606 0.961 . S
H621 C607 0.958 . S
H622 C607 0.961 . S
H623 C607 0.960 . S
C113 C4 1.490 . S
C121 C60 1.494 . S
C145 C26 1.584 . S
C153 C82 1.582 . S
C177 C88 1.490 . S
C185 C32 1.495 . S
C209 C110 1.577 . S
C217 C54 1.588 . S
C241 C5 1.077 . S
C249 C33 1.039 . S
C273 C25 0.948 . S
C281 C53 0.974 . S
C305 C89 1.077 . S
C313 C61 1.039 . S
C337 C81 0.959 . S
C345 C109 0.947 . S
C369 C75 1.005 . S
C377 C11 1.083 . S
C401 C19 0.958 . S
C409 C95 1.094 . S
C433 C103 0.955 . S
C441 C39 1.102 . S
C465 C47 0.972 . S
C473 C67 1.098 . S
C497 C96 1.444 . S
C505 C46 1.439 . S
C529 C12 1.456 . S
C537 C102 1.429 . S
C561 C18 1.450 . S
C569 C68 1.440 . S
C593 C74 1.442 . S
C601 C40 1.447 . S
