# Generated by pormake.
# Topology soi, (5)-cn, num edge types: 1
# Building blocks:
#     Node 0, Type 0, BuildingBlock: XOMCOT_clean_sbu_1, # of connection points: 5
#     Node 1, Type 0, BuildingBlock: XOMCOT_clean_sbu_1, # of connection points: 5
#     Node 2, Type 0, BuildingBlock: XOMCOT_clean_sbu_1, # of connection points: 5
#     Node 3, Type 0, BuildingBlock: XOMCOT_clean_sbu_1, # of connection points: 5
#     Node 4, Type 0, BuildingBlock: XOMCOT_clean_sbu_1, # of connection points: 5
#     Node 5, Type 0, BuildingBlock: XOMCOT_clean_sbu_1, # of connection points: 5
#     Node 6, Type 0, BuildingBlock: XOMCOT_clean_sbu_1, # of connection points: 5
#     Node 7, Type 0, BuildingBlock: XOMCOT_clean_sbu_1, # of connection points: 5
#     Node 8, Type 0, BuildingBlock: XOMCOT_clean_sbu_1, # of connection points: 5
#     Node 9, Type 0, BuildingBlock: XOMCOT_clean_sbu_1, # of connection points: 5
#     Node 10, Type 0, BuildingBlock: XOMCOT_clean_sbu_1, # of connection points: 5
#     Node 11, Type 0, BuildingBlock: XOMCOT_clean_sbu_1, # of connection points: 5
#     Node 12, Type 0, BuildingBlock: XOMCOT_clean_sbu_1, # of connection points: 5
#     Node 13, Type 0, BuildingBlock: XOMCOT_clean_sbu_1, # of connection points: 5
#     Node 14, Type 0, BuildingBlock: XOMCOT_clean_sbu_1, # of connection points: 5
#     Node 15, Type 0, BuildingBlock: XOMCOT_clean_sbu_1, # of connection points: 5
#     Edge 16, Type (0, 0), BuildingBlock: KIFKEQ_clean_linker_1, # of connection points: 2
#     Edge 17, Type (0, 0), BuildingBlock: KIFKEQ_clean_linker_1, # of connection points: 2
#     Edge 18, Type (0, 0), BuildingBlock: KIFKEQ_clean_linker_1, # of connection points: 2
#     Edge 19, Type (0, 0), BuildingBlock: KIFKEQ_clean_linker_1, # of connection points: 2
#     Edge 20, Type (0, 0), BuildingBlock: KIFKEQ_clean_linker_1, # of connection points: 2
#     Edge 21, Type (0, 0), BuildingBlock: KIFKEQ_clean_linker_1, # of connection points: 2
#     Edge 22, Type (0, 0), BuildingBlock: KIFKEQ_clean_linker_1, # of connection points: 2
#     Edge 23, Type (0, 0), BuildingBlock: KIFKEQ_clean_linker_1, # of connection points: 2
#     Edge 24, Type (0, 0), BuildingBlock: KIFKEQ_clean_linker_1, # of connection points: 2
#     Edge 25, Type (0, 0), BuildingBlock: KIFKEQ_clean_linker_1, # of connection points: 2
#     Edge 26, Type (0, 0), BuildingBlock: KIFKEQ_clean_linker_1, # of connection points: 2
#     Edge 27, Type (0, 0), BuildingBlock: KIFKEQ_clean_linker_1, # of connection points: 2
#     Edge 28, Type (0, 0), BuildingBlock: KIFKEQ_clean_linker_1, # of connection points: 2
#     Edge 29, Type (0, 0), BuildingBlock: KIFKEQ_clean_linker_1, # of connection points: 2
#     Edge 30, Type (0, 0), BuildingBlock: KIFKEQ_clean_linker_1, # of connection points: 2
#     Edge 31, Type (0, 0), BuildingBlock: KIFKEQ_clean_linker_1, # of connection points: 2
#     Edge 32, Type (0, 0), BuildingBlock: KIFKEQ_clean_linker_1, # of connection points: 2
#     Edge 33, Type (0, 0), BuildingBlock: KIFKEQ_clean_linker_1, # of connection points: 2
#     Edge 34, Type (0, 0), BuildingBlock: KIFKEQ_clean_linker_1, # of connection points: 2
#     Edge 35, Type (0, 0), BuildingBlock: KIFKEQ_clean_linker_1, # of connection points: 2
#     Edge 36, Type (0, 0), BuildingBlock: KIFKEQ_clean_linker_1, # of connection points: 2
#     Edge 37, Type (0, 0), BuildingBlock: KIFKEQ_clean_linker_1, # of connection points: 2
#     Edge 38, Type (0, 0), BuildingBlock: KIFKEQ_clean_linker_1, # of connection points: 2
#     Edge 39, Type (0, 0), BuildingBlock: KIFKEQ_clean_linker_1, # of connection points: 2
#     Edge 40, Type (0, 0), BuildingBlock: KIFKEQ_clean_linker_1, # of connection points: 2
#     Edge 41, Type (0, 0), BuildingBlock: KIFKEQ_clean_linker_1, # of connection points: 2
#     Edge 42, Type (0, 0), BuildingBlock: KIFKEQ_clean_linker_1, # of connection points: 2
#     Edge 43, Type (0, 0), BuildingBlock: KIFKEQ_clean_linker_1, # of connection points: 2
#     Edge 44, Type (0, 0), BuildingBlock: KIFKEQ_clean_linker_1, # of connection points: 2
#     Edge 45, Type (0, 0), BuildingBlock: KIFKEQ_clean_linker_1, # of connection points: 2
#     Edge 46, Type (0, 0), BuildingBlock: KIFKEQ_clean_linker_1, # of connection points: 2
#     Edge 47, Type (0, 0), BuildingBlock: KIFKEQ_clean_linker_1, # of connection points: 2
#     Edge 48, Type (0, 0), BuildingBlock: KIFKEQ_clean_linker_1, # of connection points: 2
#     Edge 49, Type (0, 0), BuildingBlock: KIFKEQ_clean_linker_1, # of connection points: 2
#     Edge 50, Type (0, 0), BuildingBlock: KIFKEQ_clean_linker_1, # of connection points: 2
#     Edge 51, Type (0, 0), BuildingBlock: KIFKEQ_clean_linker_1, # of connection points: 2
#     Edge 52, Type (0, 0), BuildingBlock: KIFKEQ_clean_linker_1, # of connection points: 2
#     Edge 53, Type (0, 0), BuildingBlock: KIFKEQ_clean_linker_1, # of connection points: 2
#     Edge 54, Type (0, 0), BuildingBlock: KIFKEQ_clean_linker_1, # of connection points: 2
#     Edge 55, Type (0, 0), BuildingBlock: KIFKEQ_clean_linker_1, # of connection points: 2
# Relax obj value: 0.119
# Max RMSD: 0.165
# Mean RMSD: 0.165
data_MOF--net-soi--node1-XOMCOT_clean_sbu_1--edge1-KIFKEQ_clean_linker_1
_symmetry_space_group_name_H-M    P1
_symmetry_Int_Tables_number       1
_symmetry_cell_setting            triclinic
loop_
_symmetry_equiv_pos_as_xyz
'x, y, z'
_cell_length_a     48.08209
_cell_length_b     26.091753
_cell_length_c     66.89301
_cell_angle_alpha  89.910524
_cell_angle_beta   89.740527
_cell_angle_gamma 90.109074
loop_
_atom_site_label
_atom_site_type_symbol
_atom_site_fract_x
_atom_site_fract_y
_atom_site_fract_z
_atom_type_partial_charge
C0 C 0.33266 0.0059 0.11287 0.0
C1 C 0.32591 0.00483 0.09286 0.0
N2 N 0.29894 0.01793 0.091 0.0
N3 N 0.31012 0.02003 0.12356 0.0
C4 C 0.28987 0.02659 0.10986 0.0
H5 H 0.35286 0.99791 0.11921 0.0
Co6 Co 0.30835 0.03188 0.15111 0.0
C7 C 0.25674 0.09359 0.1524 0.0
O8 O 0.24406 0.05793 0.16293 0.0
N9 N 0.30646 0.04471 0.1787 0.0
C10 C 0.30302 0.08737 0.20734 0.0
C11 C 0.30307 0.09155 0.18692 0.0
C12 C 0.30905 0.01267 0.19454 0.0
N13 N 0.30679 0.03781 0.21219 0.0
O14 O 0.27952 0.98102 0.15353 0.0
H15 H 0.3014 0.12696 0.17859 0.0
H16 H 0.31274 0.97191 0.19314 0.0
O17 O 0.28175 0.08674 0.1466 0.0
C18 C 0.28806 0.93514 0.15119 0.0
O19 O 0.3146 0.92735 0.14758 0.0
N20 N 0.33795 0.07789 0.14882 0.0
C21 C 0.38615 0.13709 0.14552 0.0
C22 C 0.36153 0.15194 0.13586 0.0
C23 C 0.33771 0.12142 0.13749 0.0
C24 C 0.36162 0.06253 0.15815 0.0
C25 C 0.38593 0.09153 0.15673 0.0
H26 H 0.31938 0.13213 0.12925 0.0
H27 H 0.36169 0.02697 0.16649 0.0
H28 H 0.26903 0.03898 0.11359 0.0
H29 H 0.33979 0.99519 0.08066 0.0
H30 H 0.30148 0.11878 0.21784 0.0
H31 H 0.36062 0.18673 0.12705 0.0
H32 H 0.40452 0.0776 0.16399 0.0
C33 C 0.62291 0.46342 0.10075 0.0
C34 C 0.63301 0.46445 0.08145 0.0
N35 N 0.66059 0.45546 0.08196 0.0
N36 N 0.64397 0.45326 0.11339 0.0
C37 C 0.66668 0.44896 0.10152 0.0
H38 H 0.60159 0.4698 0.10529 0.0
Co39 Co 0.64177 0.44727 0.14125 0.0
C40 C 0.69104 0.38416 0.14875 0.0
O41 O 0.70226 0.42173 0.159 0.0
N42 N 0.6399 0.44026 0.16936 0.0
C43 C 0.63434 0.4038 0.19924 0.0
C44 C 0.63366 0.39605 0.17898 0.0
C45 C 0.64497 0.4742 0.18426 0.0
N46 N 0.64155 0.45279 0.20256 0.0
O47 O 0.67109 0.49649 0.14369 0.0
H48 H 0.62922 0.35996 0.17175 0.0
H49 H 0.65097 0.51371 0.1818 0.0
O50 O 0.66744 0.39028 0.14052 0.0
C51 C 0.66345 0.54195 0.13942 0.0
O52 O 0.63747 0.5499 0.13428 0.0
N53 N 0.61147 0.40291 0.13852 0.0
C54 C 0.56311 0.34455 0.13633 0.0
C55 C 0.58837 0.32531 0.12895 0.0
C56 C 0.61236 0.35553 0.1299 0.0
C57 C 0.58699 0.42273 0.14525 0.0
C58 C 0.56251 0.39415 0.14432 0.0
H59 H 0.63148 0.34095 0.12363 0.0
H60 H 0.58661 0.46086 0.15157 0.0
H61 H 0.68729 0.4409 0.10714 0.0
H62 H 0.62106 0.47225 0.06811 0.0
H63 H 0.63051 0.3753 0.21072 0.0
H64 H 0.58948 0.28753 0.12231 0.0
H65 H 0.54342 0.41031 0.15019 0.0
C66 C 0.36307 0.00929 0.45482 0.0
C67 C 0.3508 0.00793 0.47337 0.0
N68 N 0.32682 0.98142 0.47202 0.0
N69 N 0.34715 0.98336 0.44175 0.0
C70 C 0.32496 0.96718 0.4526 0.0
H71 H 0.3823 0.02857 0.45103 0.0
Co72 Co 0.35659 0.977 0.41482 0.0
C73 C 0.33435 0.87715 0.40137 0.0
O74 O 0.35648 0.87184 0.38999 0.0
N75 N 0.36654 0.97247 0.38704 0.0
C76 C 0.38951 0.961 0.35837 0.0
C77 C 0.39145 0.96065 0.37875 0.0
C78 C 0.34984 0.98013 0.37095 0.0
N79 N 0.36336 0.97351 0.35328 0.0
O80 O 0.32719 0.02307 0.40829 0.0
H81 H 0.41013 0.95053 0.38656 0.0
H82 H 0.32812 0.9903 0.3722 0.0
O83 O 0.33152 0.91746 0.41211 0.0
C84 C 0.33605 0.06907 0.40925 0.0
O85 O 0.3625 0.07656 0.41321 0.0
N86 N 0.38696 0.93612 0.42249 0.0
C87 C 0.4367 0.88654 0.43115 0.0
C88 C 0.41122 0.86053 0.43294 0.0
C89 C 0.38642 0.88653 0.42908 0.0
C90 C 0.41108 0.96351 0.42335 0.0
C91 C 0.43629 0.93934 0.42725 0.0
H92 H 0.36706 0.86641 0.43129 0.0
H93 H 0.41091 0.00391 0.41966 0.0
H94 H 0.30786 0.94538 0.44645 0.0
H95 H 0.35861 0.02622 0.48673 0.0
H96 H 0.4062 0.95136 0.34816 0.0
H97 H 0.41042 0.82014 0.43664 0.0
H98 H 0.45534 0.96153 0.42664 0.0
C99 C 0.66625 0.53493 0.44123 0.0
C100 C 0.67463 0.53197 0.46083 0.0
N101 N 0.70125 0.54786 0.46187 0.0
N102 N 0.68739 0.55295 0.42992 0.0
C103 C 0.70858 0.56005 0.44289 0.0
H104 H 0.64584 0.52544 0.43558 0.0
Co105 Co 0.68451 0.56737 0.40261 0.0
C106 C 0.73311 0.63284 0.39396 0.0
O107 O 0.73938 0.60448 0.37837 0.0
N108 N 0.68102 0.58226 0.3751 0.0
C109 C 0.67312 0.62674 0.34729 0.0
C110 C 0.67768 0.62986 0.36748 0.0
C111 C 0.67867 0.55074 0.3591 0.0
N112 N 0.67378 0.57707 0.34201 0.0
O113 O 0.71211 0.51605 0.39708 0.0
H114 H 0.67789 0.66478 0.37617 0.0
H115 H 0.67944 0.50936 0.36004 0.0
O116 O 0.7125 0.62067 0.40504 0.0
C117 C 0.70185 0.47122 0.39915 0.0
O118 O 0.67516 0.46677 0.40311 0.0
N119 N 0.65628 0.61418 0.40842 0.0
C120 C 0.61045 0.67488 0.41773 0.0
C121 C 0.63697 0.68752 0.42492 0.0
C122 C 0.65966 0.65641 0.4202 0.0
C123 C 0.63068 0.60091 0.40151 0.0
C124 C 0.60749 0.63094 0.40585 0.0
H125 H 0.67973 0.66562 0.42645 0.0
H126 H 0.62829 0.56657 0.39263 0.0
H127 H 0.72871 0.57521 0.4386 0.0
H128 H 0.6621 0.519 0.47334 0.0
H129 H 0.66935 0.65852 0.33723 0.0
H130 H 0.64008 0.72048 0.43447 0.0
H131 H 0.58747 0.61996 0.39984 0.0
C132 C 0.64526 0.99166 0.94831 0.0
C133 C 0.65625 0.98926 0.96716 0.0
N134 N 0.6811 0.96567 0.96607 0.0
N135 N 0.66286 0.96927 0.93528 0.0
C136 C 0.68477 0.95421 0.94649 0.0
H137 H 0.62574 0.00928 0.94427 0.0
Co138 Co 0.65519 0.96596 0.90807 0.0
C139 C 0.68107 0.87132 0.89249 0.0
O140 O 0.65944 0.8658 0.88077 0.0
N141 N 0.64704 0.96494 0.88013 0.0
C142 C 0.62655 0.95609 0.85047 0.0
C143 C 0.62265 0.95536 0.87076 0.0
C144 C 0.66532 0.97277 0.86484 0.0
N145 N 0.65336 0.96688 0.84673 0.0
O146 O 0.68354 0.01596 0.90323 0.0
H147 H 0.60296 0.94732 0.87775 0.0
H148 H 0.68719 0.98096 0.86692 0.0
O149 O 0.6822 0.90957 0.90451 0.0
C150 C 0.67406 0.06145 0.90449 0.0
O151 O 0.64737 0.06749 0.90809 0.0
N152 N 0.62582 0.92029 0.91408 0.0
C153 C 0.57811 0.86356 0.92298 0.0
C154 C 0.60453 0.84115 0.92442 0.0
C155 C 0.62824 0.87059 0.92035 0.0
C156 C 0.60059 0.94392 0.91488 0.0
C157 C 0.5764 0.9161 0.9188 0.0
H158 H 0.64833 0.85325 0.92251 0.0
H159 H 0.59919 0.98446 0.91162 0.0
H160 H 0.70296 0.9353 0.94046 0.0
H161 H 0.64697 0.00498 0.98058 0.0
H162 H 0.61077 0.94958 0.83925 0.0
H163 H 0.60687 0.80109 0.9283 0.0
H164 H 0.55652 0.93553 0.91842 0.0
C165 C 0.33637 0.51445 0.9482 0.0
C166 C 0.32546 0.51247 0.96718 0.0
N167 N 0.30089 0.53726 0.96723 0.0
N168 N 0.31891 0.54052 0.93624 0.0
C169 C 0.29741 0.55403 0.94822 0.0
H170 H 0.35582 0.49776 0.94333 0.0
Co171 Co 0.32603 0.54977 0.90912 0.0
C172 C 0.30319 0.65227 0.89936 0.0
O173 O 0.32642 0.66181 0.88973 0.0
N174 N 0.33376 0.55734 0.88087 0.0
C175 C 0.35237 0.57989 0.85143 0.0
C176 C 0.3547 0.58352 0.87174 0.0
C177 C 0.31929 0.53728 0.86526 0.0
N178 N 0.33012 0.55082 0.8473 0.0
O179 O 0.29658 0.50221 0.9034 0.0
H180 H 0.37031 0.60647 0.87899 0.0
H181 H 0.30089 0.51373 0.86685 0.0
O182 O 0.29973 0.60872 0.908 0.0
C183 C 0.3054 0.45613 0.90427 0.0
O184 O 0.33207 0.44871 0.90737 0.0
N185 N 0.35635 0.59175 0.91621 0.0
C186 C 0.40416 0.64658 0.92623 0.0
C187 C 0.37772 0.66446 0.93183 0.0
C188 C 0.35409 0.63586 0.92707 0.0
C189 C 0.38189 0.57067 0.91295 0.0
C190 C 0.40609 0.59806 0.91728 0.0
H191 H 0.33404 0.64926 0.93215 0.0
H192 H 0.38341 0.53345 0.90592 0.0
H193 H 0.27932 0.57465 0.94303 0.0
H194 H 0.33504 0.49441 0.97998 0.0
H195 H 0.36621 0.59701 0.84048 0.0
H196 H 0.37526 0.70024 0.93982 0.0
H197 H 0.42597 0.58203 0.91296 0.0
C198 C 0.66281 0.00424 0.603 0.0
C199 C 0.67426 0.00686 0.58419 0.0
N200 N 0.69871 0.03188 0.5854 0.0
N201 N 0.67975 0.02798 0.61606 0.0
C202 C 0.7017 0.04401 0.60495 0.0
H203 H 0.64322 0.98641 0.60695 0.0
Co204 Co 0.67087 0.03468 0.64304 0.0
C205 C 0.69295 0.1354 0.65552 0.0
O206 O 0.66979 0.14223 0.66561 0.0
N207 N 0.66145 0.03985 0.671 0.0
C208 C 0.64062 0.05816 0.70006 0.0
C209 C 0.63823 0.05946 0.6797 0.0
C210 C 0.67742 0.02608 0.68688 0.0
N211 N 0.66523 0.03723 0.70459 0.0
O212 O 0.70005 0.98749 0.64928 0.0
H213 H 0.62088 0.0767 0.67219 0.0
H214 H 0.69794 0.00945 0.68559 0.0
O215 O 0.69661 0.0938 0.64566 0.0
C216 C 0.69121 0.94143 0.64832 0.0
O217 O 0.66472 0.93392 0.64452 0.0
N218 N 0.64087 0.07663 0.63546 0.0
C219 C 0.593 0.12969 0.62444 0.0
C220 C 0.61947 0.15097 0.62111 0.0
C221 C 0.6432 0.12328 0.6263 0.0
C222 C 0.61563 0.05284 0.63642 0.0
C223 C 0.59134 0.07915 0.63158 0.0
H224 H 0.66333 0.13933 0.62275 0.0
H225 H 0.61429 0.01403 0.64207 0.0
H226 H 0.71926 0.06482 0.61095 0.0
H227 H 0.66546 0.99098 0.57068 0.0
H228 H 0.62539 0.07171 0.71078 0.0
H229 H 0.62187 0.18864 0.61449 0.0
H230 H 0.57149 0.06054 0.63413 0.0
C231 C 0.35413 0.46243 0.60516 0.0
C232 C 0.34203 0.4656 0.58673 0.0
N233 N 0.31514 0.45187 0.58851 0.0
N234 N 0.33517 0.44628 0.61868 0.0
C235 C 0.31145 0.43998 0.60807 0.0
H236 H 0.37525 0.47333 0.60862 0.0
Co237 Co 0.34304 0.44459 0.64601 0.0
C238 C 0.31698 0.35148 0.66256 0.0
O239 O 0.33908 0.34654 0.67386 0.0
N240 N 0.35135 0.44537 0.67398 0.0
C241 C 0.37175 0.43872 0.70378 0.0
C242 C 0.37559 0.43559 0.68352 0.0
C243 C 0.33324 0.45557 0.68914 0.0
N244 N 0.34513 0.45114 0.70735 0.0
O245 O 0.31541 0.49624 0.65038 0.0
H246 H 0.39514 0.42583 0.67673 0.0
H247 H 0.31152 0.46471 0.68692 0.0
O248 O 0.31539 0.38934 0.65034 0.0
C249 C 0.32455 0.5403 0.64532 0.0
O250 O 0.35027 0.54422 0.63876 0.0
N251 N 0.37169 0.3972 0.6404 0.0
C252 C 0.41769 0.33815 0.62941 0.0
C253 C 0.39068 0.31793 0.62829 0.0
C254 C 0.36789 0.34849 0.63338 0.0
C255 C 0.39752 0.41872 0.6398 0.0
C256 C 0.42086 0.38967 0.63492 0.0
H257 H 0.34732 0.33321 0.63102 0.0
H258 H 0.40003 0.45879 0.64357 0.0
H259 H 0.29165 0.42952 0.61471 0.0
H260 H 0.35217 0.47811 0.57308 0.0
H261 H 0.3875 0.4329 0.71507 0.0
H262 H 0.3871 0.2792 0.62308 0.0
H263 H 0.4412 0.40739 0.63575 0.0
C264 C 0.85532 0.52009 0.60291 0.0
C265 C 0.84494 0.52468 0.58395 0.0
N266 N 0.81902 0.54374 0.58522 0.0
N267 N 0.8363 0.53693 0.61624 0.0
C268 C 0.8141 0.55048 0.605 0.0
H269 H 0.87545 0.50468 0.60674 0.0
Co270 Co 0.84262 0.53725 0.64386 0.0
C271 C 0.81778 0.63303 0.65959 0.0
O272 O 0.83868 0.63642 0.67209 0.0
N273 N 0.84925 0.53576 0.6721 0.0
C274 C 0.86827 0.54348 0.70234 0.0
C275 C 0.87311 0.54535 0.68217 0.0
C276 C 0.83029 0.52688 0.68689 0.0
N277 N 0.84139 0.53202 0.70533 0.0
O278 O 0.8129 0.48902 0.64744 0.0
H279 H 0.89301 0.55479 0.67579 0.0
H280 H 0.80854 0.51869 0.68425 0.0
O281 O 0.81671 0.59547 0.64725 0.0
C282 C 0.82021 0.44356 0.64284 0.0
O283 O 0.84579 0.4358 0.63654 0.0
N284 N 0.8734 0.58075 0.63925 0.0
C285 C 0.92316 0.63281 0.6318 0.0
C286 C 0.89752 0.65814 0.63021 0.0
C287 C 0.87278 0.63106 0.63355 0.0
C288 C 0.89793 0.55463 0.63888 0.0
C289 C 0.92306 0.57999 0.63562 0.0
H290 H 0.85335 0.65065 0.63121 0.0
H291 H 0.89795 0.51384 0.64184 0.0
H292 H 0.79482 0.56507 0.61115 0.0
H293 H 0.85536 0.51353 0.57025 0.0
H294 H 0.88341 0.55013 0.71399 0.0
H295 H 0.89654 0.69861 0.62668 0.0
H296 H 0.94225 0.55837 0.63613 0.0
C297 C 0.15967 0.97932 0.60907 0.0
C298 C 0.16935 0.98475 0.58978 0.0
N299 N 0.19583 0.96781 0.58899 0.0
N300 N 0.17986 0.95891 0.62044 0.0
C301 C 0.20168 0.95261 0.60787 0.0
H302 H 0.13908 0.98893 0.61444 0.0
Co303 Co 0.17669 0.94216 0.64745 0.0
C304 C 0.22556 0.87872 0.65497 0.0
O305 O 0.23207 0.90927 0.66984 0.0
N306 N 0.17334 0.92445 0.6747 0.0
C307 C 0.16858 0.87543 0.70171 0.0
C308 C 0.17087 0.8757 0.68132 0.0
C309 C 0.17243 0.95331 0.69153 0.0
N310 N 0.16947 0.9242 0.70821 0.0
O311 O 0.20449 0.99238 0.6534 0.0
H312 H 0.17085 0.84213 0.67186 0.0
H313 H 0.17338 0.99474 0.69153 0.0
O314 O 0.20438 0.88861 0.64423 0.0
C315 C 0.1943 0.03747 0.65361 0.0
O316 O 0.16735 0.04267 0.65111 0.0
N317 N 0.14797 0.89681 0.64134 0.0
C318 C 0.10082 0.8381 0.63349 0.0
C319 C 0.12695 0.82348 0.62595 0.0
C320 C 0.15036 0.85371 0.62992 0.0
C321 C 0.12276 0.91209 0.64845 0.0
C322 C 0.09895 0.88316 0.64483 0.0
H323 H 0.17022 0.84276 0.62365 0.0
H324 H 0.12124 0.94697 0.6571 0.0
H325 H 0.22153 0.93747 0.61256 0.0
H326 H 0.1575 0.9991 0.57726 0.0
H327 H 0.16664 0.84171 0.71106 0.0
H328 H 0.12923 0.78945 0.61685 0.0
H329 H 0.07933 0.89567 0.65113 0.0
C330 C 0.83223 0.4905 0.94987 0.0
C331 C 0.8197 0.48818 0.96831 0.0
N332 N 0.79419 0.46764 0.96613 0.0
N333 N 0.81495 0.47089 0.93603 0.0
C334 C 0.79167 0.45782 0.94634 0.0
H335 H 0.8527 0.50576 0.94669 0.0
Co336 Co 0.8247 0.46673 0.90906 0.0
C337 C 0.79965 0.37156 0.89332 0.0
O338 O 0.82213 0.3654 0.88238 0.0
N339 N 0.83495 0.46457 0.88126 0.0
C340 C 0.85716 0.45178 0.85229 0.0
C341 C 0.8594 0.45056 0.87267 0.0
C342 C 0.81838 0.47525 0.86533 0.0
N343 N 0.83141 0.46719 0.84765 0.0
O344 O 0.79702 0.51684 0.90312 0.0
H345 H 0.87788 0.43828 0.88023 0.0
H346 H 0.7969 0.48709 0.86661 0.0
O347 O 0.79768 0.41052 0.90492 0.0
C348 C 0.80643 0.56232 0.90485 0.0
O349 O 0.83277 0.56838 0.90947 0.0
N350 N 0.85324 0.42086 0.91627 0.0
C351 C 0.89924 0.36207 0.92723 0.0
C352 C 0.87216 0.34207 0.92876 0.0
C353 C 0.84939 0.37241 0.92357 0.0
C354 C 0.87894 0.44286 0.91712 0.0
C355 C 0.90233 0.41385 0.9219 0.0
H356 H 0.82879 0.35695 0.92578 0.0
H357 H 0.88143 0.48273 0.91299 0.0
H358 H 0.77339 0.44114 0.93956 0.0
H359 H 0.82847 0.50157 0.98224 0.0
H360 H 0.87331 0.44211 0.84162 0.0
H361 H 0.8685 0.30336 0.93402 0.0
H362 H 0.92262 0.43163 0.92073 0.0
C363 C 0.14254 0.03143 0.95216 0.0
C364 C 0.15441 0.03243 0.97071 0.0
N365 N 0.1808 0.04891 0.96874 0.0
N366 N 0.16109 0.04803 0.93841 0.0
C367 C 0.18453 0.05772 0.94894 0.0
H368 H 0.1217 0.0185 0.94887 0.0
Co369 Co 0.15233 0.05121 0.91121 0.0
C370 C 0.1776 0.14768 0.8955 0.0
O371 O 0.15622 0.15271 0.88358 0.0
N372 N 0.14254 0.05225 0.88325 0.0
C373 C 0.11928 0.06386 0.85474 0.0
C374 C 0.11981 0.07396 0.87475 0.0
C375 C 0.15558 0.02932 0.86752 0.0
N376 N 0.14165 0.03562 0.85014 0.0
O377 O 0.18114 0.0022 0.90584 0.0
H378 H 0.10473 0.098 0.88207 0.0
H379 H 0.17456 0.00738 0.86875 0.0
O380 O 0.17882 0.10908 0.90738 0.0
C381 C 0.17341 0.95665 0.91015 0.0
O382 O 0.1479 0.94949 0.91674 0.0
N383 N 0.12269 0.09515 0.91777 0.0
C384 C 0.0744 0.14964 0.92636 0.0
C385 C 0.10056 0.17287 0.92843 0.0
C386 C 0.12462 0.14458 0.92435 0.0
C387 C 0.09761 0.07066 0.91779 0.0
C388 C 0.07313 0.09745 0.92158 0.0
H389 H 0.14459 0.16253 0.92657 0.0
H390 H 0.0966 0.0305 0.91384 0.0
H391 H 0.20384 0.07085 0.94229 0.0
H392 H 0.14465 0.02052 0.98458 0.0
H393 H 0.10374 0.07698 0.84426 0.0
H394 H 0.10239 0.21277 0.93268 0.0
H395 H 0.05336 0.07769 0.92049 0.0
C396 C 0.16012 0.47752 0.4458 0.0
C397 C 0.16693 0.47182 0.46567 0.0
N398 N 0.19407 0.45915 0.46686 0.0
N399 N 0.18278 0.4681 0.43447 0.0
C400 C 0.20307 0.45704 0.44768 0.0
H401 H 0.14016 0.48931 0.44001 0.0
Co402 Co 0.18646 0.47518 0.40679 0.0
C403 C 0.21324 0.38025 0.39312 0.0
O404 O 0.19562 0.38033 0.37816 0.0
N405 N 0.19146 0.48366 0.37866 0.0
C406 C 0.21654 0.49279 0.35074 0.0
C407 C 0.21747 0.48878 0.37109 0.0
C408 C 0.17494 0.4852 0.36221 0.0
N409 N 0.18983 0.4902 0.34504 0.0
O410 O 0.21647 0.52256 0.41085 0.0
H411 H 0.23635 0.48802 0.37979 0.0
H412 H 0.15262 0.48108 0.3625 0.0
O413 O 0.21234 0.41641 0.40608 0.0
C414 C 0.2097 0.5672 0.41683 0.0
O415 O 0.18356 0.57641 0.42135 0.0
N416 N 0.15525 0.43209 0.40367 0.0
C417 C 0.10438 0.38018 0.40556 0.0
C418 C 0.12889 0.35682 0.41221 0.0
C419 C 0.15394 0.38376 0.41156 0.0
C420 C 0.13151 0.45589 0.39763 0.0
C421 C 0.10593 0.43032 0.39804 0.0
H422 H 0.17187 0.36659 0.41852 0.0
H423 H 0.13219 0.49587 0.39335 0.0
H424 H 0.22423 0.44875 0.44322 0.0
H425 H 0.15323 0.4788 0.47824 0.0
H426 H 0.23432 0.49708 0.34089 0.0
H427 H 0.12864 0.31847 0.41843 0.0
H428 H 0.08737 0.45052 0.39344 0.0
C429 C 0.86637 0.0558 0.44975 0.0
C430 C 0.85579 0.05514 0.46888 0.0
N431 N 0.82812 0.06254 0.4679 0.0
N432 N 0.84553 0.06418 0.43673 0.0
C433 C 0.8224 0.06769 0.44822 0.0
H434 H 0.88791 0.05027 0.44558 0.0
Co435 Co 0.84955 0.06877 0.40897 0.0
C436 C 0.80286 0.13349 0.39621 0.0
O437 O 0.7972 0.10108 0.38177 0.0
N438 N 0.85395 0.07375 0.38103 0.0
C439 C 0.86272 0.10628 0.35088 0.0
C440 C 0.86074 0.11693 0.37089 0.0
C441 C 0.85152 0.03742 0.36671 0.0
N442 N 0.85686 0.05637 0.34826 0.0
O443 O 0.8211 0.01742 0.40571 0.0
H444 H 0.8637 0.15423 0.37758 0.0
H445 H 0.84596 0.99793 0.36968 0.0
O446 O 0.82251 0.12389 0.40839 0.0
C447 C 0.8297 0.97297 0.41068 0.0
O448 O 0.85538 0.96807 0.41703 0.0
N449 N 0.87872 0.11536 0.41239 0.0
C450 C 0.92597 0.1769 0.41467 0.0
C451 C 0.89991 0.19579 0.42068 0.0
C452 C 0.87645 0.16411 0.41961 0.0
C453 C 0.90393 0.09595 0.40706 0.0
C454 C 0.92781 0.1261 0.40798 0.0
H455 H 0.85659 0.17887 0.42453 0.0
H456 H 0.90533 0.05693 0.4017 0.0
H457 H 0.8018 0.07418 0.44226 0.0
H458 H 0.86748 0.04857 0.48244 0.0
H459 H 0.86723 0.13348 0.33905 0.0
H460 H 0.89772 0.23449 0.42628 0.0
H461 H 0.94744 0.11004 0.40308 0.0
C462 C 0.1293 0.53395 0.099 0.0
C463 C 0.14138 0.54159 0.08062 0.0
N464 N 0.1686 0.55189 0.08327 0.0
N465 N 0.14862 0.53993 0.11333 0.0
C466 C 0.17248 0.55042 0.10333 0.0
H467 H 0.10787 0.52334 0.10177 0.0
Co468 Co 0.14115 0.52808 0.14033 0.0
C469 C 0.16358 0.62183 0.15934 0.0
O470 O 0.14011 0.62562 0.1694 0.0
N471 N 0.13318 0.51213 0.16743 0.0
C472 C 0.11437 0.46758 0.19256 0.0
C473 C 0.11457 0.4753 0.17229 0.0
C474 C 0.14541 0.52365 0.18513 0.0
N475 N 0.1337 0.49827 0.20073 0.0
O476 O 0.16979 0.47721 0.14104 0.0
H477 H 0.1027 0.45332 0.16162 0.0
H478 H 0.16319 0.54864 0.1866 0.0
O479 O 0.16764 0.58319 0.14784 0.0
C480 C 0.16039 0.4346 0.13459 0.0
O481 O 0.13479 0.43333 0.12779 0.0
N482 N 0.11128 0.57571 0.13884 0.0
C483 C 0.06566 0.64116 0.13551 0.0
C484 C 0.09224 0.65782 0.12986 0.0
C485 C 0.11465 0.62397 0.13108 0.0
C486 C 0.08516 0.55817 0.14305 0.0
C487 C 0.06217 0.59038 0.14181 0.0
H488 H 0.13476 0.63666 0.12574 0.0
H489 H 0.08167 0.51867 0.14682 0.0
H490 H 0.19233 0.55581 0.1106 0.0
H491 H 0.13109 0.53749 0.06635 0.0
H492 H 0.10188 0.43961 0.20053 0.0
H493 H 0.09558 0.69624 0.12418 0.0
H494 H 0.04182 0.57559 0.14581 0.0
C495 C 0.83395 0.98307 0.10984 0.0
C496 C 0.82725 0.98406 0.08985 0.0
N497 N 0.80167 0.96353 0.08763 0.0
N498 N 0.8128 0.96175 0.12019 0.0
C499 C 0.7934 0.9505 0.10632 0.0
H500 H 0.85297 0.99714 0.11645 0.0
Co501 Co 0.81098 0.95328 0.14778 0.0
C502 C 0.78856 0.84987 0.15393 0.0
O503 O 0.80851 0.84347 0.16708 0.0
N504 N 0.80807 0.94625 0.17611 0.0
C505 C 0.78667 0.93494 0.20549 0.0
C506 C 0.78352 0.9352 0.18515 0.0
C507 C 0.82556 0.95518 0.19161 0.0
N508 N 0.81311 0.94759 0.20954 0.0
O509 O 0.7802 0.99946 0.14853 0.0
H510 H 0.76415 0.92868 0.1774 0.0
H511 H 0.84671 0.96841 0.1901 0.0
O512 O 0.78622 0.89281 0.14468 0.0
C513 C 0.78888 0.04326 0.15417 0.0
O514 O 0.81524 0.04829 0.15892 0.0
N515 N 0.84313 0.91202 0.14626 0.0
C516 C 0.89316 0.85895 0.1425 0.0
C517 C 0.86916 0.84146 0.13287 0.0
C518 C 0.84461 0.86942 0.13441 0.0
C519 C 0.86688 0.93203 0.15414 0.0
C520 C 0.89206 0.90558 0.15283 0.0
H521 H 0.8269 0.85711 0.12577 0.0
H522 H 0.86658 0.96963 0.16082 0.0
H523 H 0.77327 0.93433 0.10998 0.0
H524 H 0.84031 0.99864 0.07791 0.0
H525 H 0.77049 0.92831 0.21651 0.0
H526 H 0.86954 0.80712 0.12378 0.0
H527 H 0.91043 0.92153 0.15979 0.0
H528 H 0.24079 0.92358 0.17376 0.0
H529 H 0.29269 0.8461 0.13068 0.0
H530 H 0.21186 0.84705 0.17686 0.0
H531 H 0.26291 0.77098 0.13249 0.0
H532 H 0.21973 0.62458 0.1514 0.0
H533 H 0.24982 0.70009 0.15026 0.0
H534 H 0.17871 0.79649 0.16287 0.0
H535 H 0.14956 0.72108 0.16539 0.0
C536 C 0.24564 0.89041 0.16468 0.0
C537 C 0.26896 0.8907 0.15203 0.0
C538 C 0.229 0.8464 0.16634 0.0
C539 C 0.23486 0.80207 0.15496 0.0
C540 C 0.25794 0.80334 0.14194 0.0
C541 C 0.27493 0.84677 0.14071 0.0
C542 C 0.21076 0.662 0.15411 0.0
C543 C 0.1824 0.66681 0.15871 0.0
C544 C 0.2279 0.70555 0.15327 0.0
C545 C 0.21691 0.7551 0.15646 0.0
C546 C 0.18836 0.75942 0.16084 0.0
C547 C 0.17148 0.71594 0.16217 0.0
H548 H 0.66013 0.63057 0.11833 0.0
H549 H 0.71056 0.55193 0.16182 0.0
H550 H 0.69094 0.70445 0.11976 0.0
H551 H 0.74063 0.62696 0.16428 0.0
H552 H 0.80365 0.75034 0.154 0.0
H553 H 0.77457 0.67553 0.14873 0.0
H554 H 0.70366 0.77436 0.13911 0.0
H555 H 0.73359 0.84947 0.14323 0.0
C556 C 0.67779 0.62931 0.12832 0.0
C557 C 0.683 0.58557 0.13997 0.0
C558 C 0.69536 0.6719 0.12927 0.0
C559 C 0.71832 0.67221 0.14221 0.0
C560 C 0.72354 0.62805 0.15382 0.0
C561 C 0.70624 0.585 0.15254 0.0
C562 C 0.78186 0.75599 0.1506 0.0
C563 C 0.77076 0.80557 0.14914 0.0
C564 C 0.76508 0.71303 0.14775 0.0
C565 C 0.73653 0.71845 0.14381 0.0
C566 C 0.72558 0.7684 0.14189 0.0
C567 C 0.74263 0.81157 0.14431 0.0
H568 H 0.28052 0.07026 0.39945 0.0
H569 H 0.34946 0.16947 0.41426 0.0
H570 H 0.25036 0.14544 0.39641 0.0
H571 H 0.31959 0.24395 0.41105 0.0
H572 H 0.25107 0.36219 0.42304 0.0
H573 H 0.27981 0.28577 0.42762 0.0
H574 H 0.24524 0.22002 0.37396 0.0
H575 H 0.21653 0.29562 0.36945 0.0
C576 C 0.28923 0.10798 0.40202 0.0
C577 C 0.31739 0.11382 0.40704 0.0
C578 C 0.27201 0.15103 0.40023 0.0
C579 C 0.28259 0.20068 0.40356 0.0
C580 C 0.3107 0.20629 0.40867 0.0
C581 C 0.32787 0.16347 0.41034 0.0
C582 C 0.24969 0.33148 0.41221 0.0
C583 C 0.23156 0.33517 0.39587 0.0
C584 C 0.26616 0.28774 0.41481 0.0
C585 C 0.2647 0.24671 0.40118 0.0
C586 C 0.24655 0.25052 0.38489 0.0
C587 C 0.23025 0.2942 0.38223 0.0
H588 H 0.77795 0.18465 0.3655 0.0
H589 H 0.79686 0.19691 0.42838 0.0
H590 H 0.75646 0.26971 0.36637 0.0
H591 H 0.77465 0.28139 0.42927 0.0
H592 H 0.69442 0.38725 0.42215 0.0
H593 H 0.72075 0.30742 0.42174 0.0
H594 H 0.77433 0.36865 0.3756 0.0
H595 H 0.74828 0.44998 0.37643 0.0
C596 C 0.77733 0.20533 0.37952 0.0
C597 C 0.78888 0.18396 0.39692 0.0
C598 C 0.76532 0.25416 0.37994 0.0
C599 C 0.7641 0.28206 0.39785 0.0
C600 C 0.77544 0.26062 0.41527 0.0
C601 C 0.78804 0.21231 0.41476 0.0
C602 C 0.71196 0.38392 0.41201 0.0
C603 C 0.71931 0.42469 0.39927 0.0
C604 C 0.72706 0.33832 0.41186 0.0
C605 C 0.74948 0.33197 0.39863 0.0
C606 C 0.75705 0.37275 0.38591 0.0
C607 C 0.7423 0.41916 0.38644 0.0
H608 H 0.6591 0.16162 0.90829 0.0
H609 H 0.73017 0.06493 0.89656 0.0
H610 H 0.6884 0.23736 0.90543 0.0
H611 H 0.7597 0.1411 0.894 0.0
H612 H 0.79723 0.28829 0.869 0.0
H613 H 0.76692 0.21406 0.87175 0.0
H614 H 0.72591 0.28245 0.9227 0.0
H615 H 0.75624 0.35758 0.91981 0.0
C616 C 0.68103 0.15645 0.90513 0.0
C617 C 0.69228 0.10711 0.90259 0.0
C618 C 0.69786 0.2 0.90365 0.0
C619 C 0.7264 0.1954 0.89951 0.0
C620 C 0.7377 0.14603 0.89697 0.0
C621 C 0.72084 0.10235 0.89852 0.0
C622 C 0.78167 0.2878 0.88077 0.0
C623 C 0.77924 0.32892 0.89424 0.0
C624 C 0.76442 0.24492 0.88242 0.0
C625 C 0.7442 0.24194 0.89757 0.0
C626 C 0.7412 0.28364 0.91077 0.0
C627 C 0.75856 0.32672 0.90913 0.0
H628 H 0.31914 0.35548 0.90841 0.0
H629 H 0.24898 0.45455 0.89727 0.0
H630 H 0.28893 0.28084 0.90671 0.0
H631 H 0.21852 0.37934 0.89578 0.0
H632 H 0.17995 0.23183 0.87149 0.0
H633 H 0.2103 0.30583 0.87402 0.0
H634 H 0.25115 0.23717 0.92477 0.0
H635 H 0.22062 0.16211 0.92216 0.0
C636 C 0.29721 0.36144 0.90561 0.0
C637 C 0.28651 0.41116 0.90289 0.0
C638 C 0.27985 0.31848 0.90481 0.0
C639 C 0.25128 0.32394 0.90117 0.0
C640 C 0.2405 0.37369 0.89843 0.0
C641 C 0.25791 0.41684 0.89933 0.0
C642 C 0.19541 0.23218 0.88322 0.0
C643 C 0.19777 0.19084 0.89667 0.0
C644 C 0.2127 0.27501 0.88474 0.0
C645 C 0.23299 0.27784 0.89971 0.0
C646 C 0.2358 0.23612 0.91298 0.0
C647 C 0.21833 0.19309 0.9115 0.0
H648 H 0.67738 0.84063 0.64493 0.0
H649 H 0.74738 0.94042 0.65618 0.0
H650 H 0.70746 0.76624 0.64752 0.0
H651 H 0.77774 0.86542 0.65854 0.0
H652 H 0.81596 0.71766 0.68336 0.0
H653 H 0.78586 0.79195 0.68053 0.0
H654 H 0.74528 0.72318 0.6297 0.0
H655 H 0.77539 0.64805 0.63264 0.0
C656 C 0.69924 0.84679 0.64795 0.0
C657 C 0.70996 0.89663 0.65039 0.0
C658 C 0.71654 0.80398 0.64927 0.0
C659 C 0.74504 0.80974 0.65315 0.0
C660 C 0.7558 0.85959 0.65571 0.0
C661 C 0.73846 0.90259 0.6543 0.0
C662 C 0.80059 0.71811 0.67158 0.0
C663 C 0.79813 0.67673 0.65821 0.0
C664 C 0.78346 0.76105 0.66988 0.0
C665 C 0.76328 0.76381 0.65481 0.0
C666 C 0.76049 0.72214 0.64158 0.0
C667 C 0.77776 0.67908 0.64324 0.0
H668 H 0.25447 0.82657 0.68344 0.0
H669 H 0.22761 0.81704 0.62201 0.0
H670 H 0.27533 0.74146 0.68072 0.0
H671 H 0.24907 0.73216 0.61924 0.0
H672 H 0.32718 0.62103 0.62005 0.0
H673 H 0.3014 0.70138 0.62187 0.0
H674 H 0.25717 0.64572 0.67385 0.0
H675 H 0.28269 0.56416 0.67175 0.0
C676 C 0.25325 0.80651 0.6693 0.0
C677 C 0.23961 0.82863 0.65287 0.0
C678 C 0.26489 0.75759 0.66785 0.0
C679 C 0.26361 0.73023 0.64983 0.0
C680 C 0.25028 0.75252 0.63331 0.0
C681 C 0.2381 0.80103 0.63488 0.0
C682 C 0.31173 0.62569 0.63175 0.0
C683 C 0.30693 0.58653 0.6458 0.0
C684 C 0.29692 0.67155 0.63271 0.0
C685 C 0.27741 0.67971 0.64801 0.0
C686 C 0.27222 0.64029 0.66194 0.0
C687 C 0.28664 0.5937 0.66069 0.0
H688 H 0.77482 0.43236 0.66739 0.0
H689 H 0.82228 0.35513 0.62163 0.0
H690 H 0.74515 0.3569 0.67098 0.0
H691 H 0.79186 0.28096 0.62421 0.0
H692 H 0.74859 0.13546 0.64558 0.0
H693 H 0.77949 0.20982 0.64306 0.0
H694 H 0.71017 0.30968 0.65652 0.0
H695 H 0.68017 0.23575 0.66015 0.0
C696 C 0.77858 0.39952 0.65787 0.0
C697 C 0.80083 0.39961 0.64426 0.0
C698 C 0.76152 0.35616 0.65982 0.0
C699 C 0.76596 0.3123 0.64788 0.0
C700 C 0.78804 0.31316 0.63402 0.0
C701 C 0.80538 0.35602 0.63238 0.0
C702 C 0.74014 0.17339 0.64806 0.0
C703 C 0.71206 0.17964 0.65327 0.0
C704 C 0.75775 0.21619 0.6465 0.0
C705 C 0.7475 0.26625 0.64969 0.0
C706 C 0.71919 0.27207 0.65449 0.0
C707 C 0.70185 0.22944 0.65644 0.0
H708 H 0.27363 0.3358 0.6364 0.0
H709 H 0.31511 0.26883 0.68731 0.0
H710 H 0.24383 0.25973 0.63414 0.0
H711 H 0.2855 0.19365 0.68506 0.0
H712 H 0.25059 0.0429 0.66027 0.0
H713 H 0.27933 0.12021 0.6623 0.0
H714 H 0.20662 0.21392 0.65282 0.0
H715 H 0.17803 0.1371 0.65065 0.0
C716 C 0.27619 0.30525 0.64722 0.0
C717 C 0.29684 0.30839 0.66197 0.0
C718 C 0.25916 0.26167 0.64592 0.0
C719 C 0.26255 0.22036 0.65929 0.0
C720 C 0.28273 0.22425 0.67429 0.0
C721 C 0.29957 0.26767 0.67565 0.0
C722 C 0.24077 0.08 0.65867 0.0
C723 C 0.21203 0.08376 0.65537 0.0
C724 C 0.25719 0.1243 0.65988 0.0
C725 C 0.24523 0.17325 0.6577 0.0
C726 C 0.21652 0.17686 0.65433 0.0
C727 C 0.20012 0.13271 0.65325 0.0
H728 H 0.7509 0.56553 0.89543 0.0
H729 H 0.82113 0.66255 0.9093 0.0
H730 H 0.72146 0.64144 0.89255 0.0
H731 H 0.7919 0.73809 0.90612 0.0
H732 H 0.72298 0.85667 0.91986 0.0
H733 H 0.75334 0.78189 0.92288 0.0
H734 H 0.71532 0.71522 0.87061 0.0
H735 H 0.68497 0.78908 0.86772 0.0
C736 C 0.76008 0.60298 0.89777 0.0
C737 C 0.78836 0.6079 0.90257 0.0
C738 C 0.74326 0.64652 0.89604 0.0
C739 C 0.75434 0.69591 0.89912 0.0
C740 C 0.78261 0.70068 0.90392 0.0
C741 C 0.79941 0.65727 0.90559 0.0
C742 C 0.72131 0.82624 0.90893 0.0
C743 C 0.70144 0.82882 0.89362 0.0
C744 C 0.7387 0.78339 0.91064 0.0
C745 C 0.73655 0.74227 0.8971 0.0
C746 C 0.71714 0.74562 0.88154 0.0
C747 C 0.69986 0.78829 0.87981 0.0
H748 H 0.22135 0.94779 0.88797 0.0
H749 H 0.16828 0.86473 0.92896 0.0
H750 H 0.2515 0.87297 0.88516 0.0
H751 H 0.19895 0.79105 0.92708 0.0
H752 H 0.24652 0.64891 0.90604 0.0
H753 H 0.21469 0.72204 0.908 0.0
H754 H 0.28458 0.82569 0.90203 0.0
H755 H 0.31563 0.7533 0.89907 0.0
C756 C 0.21633 0.91374 0.89655 0.0
C757 C 0.19246 0.91222 0.90866 0.0
C758 C 0.23367 0.87076 0.89506 0.0
C759 C 0.22786 0.82554 0.90596 0.0
C760 C 0.20397 0.82447 0.91815 0.0
C761 C 0.18643 0.86704 0.91936 0.0
C762 C 0.2549 0.68742 0.90519 0.0
C763 C 0.28348 0.69529 0.90216 0.0
C764 C 0.23674 0.72948 0.90637 0.0
C765 C 0.2469 0.78024 0.90493 0.0
C766 C 0.27568 0.78756 0.90257 0.0
C767 C 0.29362 0.74581 0.90104 0.0
H768 H 0.20837 0.65408 0.43927 0.0
H769 H 0.25589 0.5776 0.39335 0.0
H770 H 0.23895 0.72837 0.43683 0.0
H771 H 0.28542 0.6528 0.38983 0.0
H772 H 0.34858 0.77732 0.39732 0.0
H773 H 0.32011 0.70206 0.40298 0.0
H774 H 0.25006 0.79923 0.41757 0.0
H775 H 0.27956 0.87488 0.41315 0.0
C776 C 0.22544 0.65324 0.42864 0.0
C777 C 0.22987 0.60999 0.41658 0.0
C778 C 0.24281 0.69613 0.42705 0.0
C779 C 0.26471 0.69727 0.413 0.0
C780 C 0.26924 0.6534 0.40112 0.0
C781 C 0.25224 0.61011 0.40306 0.0
C782 C 0.32706 0.78266 0.4017 0.0
C783 C 0.31619 0.83205 0.40459 0.0
C784 C 0.31059 0.7393 0.40485 0.0
C785 C 0.28251 0.744 0.41053 0.0
C786 C 0.27166 0.79369 0.4135 0.0
C787 C 0.28843 0.83722 0.41079 0.0
H788 H 0.78916 0.95087 0.38317 0.0
H789 H 0.83108 0.89021 0.43496 0.0
H790 H 0.76447 0.86877 0.37919 0.0
H791 H 0.80621 0.80922 0.43125 0.0
H792 H 0.73477 0.6901 0.42809 0.0
H793 H 0.75541 0.77512 0.43253 0.0
H794 H 0.78223 0.77508 0.37089 0.0
H795 H 0.76199 0.68972 0.36645 0.0
C796 C 0.79265 0.9204 0.39388 0.0
C797 C 0.81199 0.92675 0.40936 0.0
C798 C 0.77876 0.87342 0.39153 0.0
C799 C 0.78352 0.83266 0.4049 0.0
C800 C 0.80203 0.84 0.4208 0.0
C801 C 0.8163 0.8863 0.42288 0.0
C802 C 0.74519 0.70812 0.41551 0.0
C803 C 0.74696 0.68301 0.39697 0.0
C804 C 0.75694 0.75678 0.41805 0.0
C805 C 0.77021 0.7818 0.40201 0.0
C806 C 0.77183 0.75689 0.38343 0.0
C807 C 0.76054 0.7078 0.38099 0.0
H808 H 0.28066 0.18278 0.139 0.0
H809 H 0.20217 0.11874 0.15852 0.0
H810 H 0.2586 0.26594 0.13427 0.0
H811 H 0.1802 0.20214 0.15399 0.0
H812 H 0.14401 0.34033 0.12212 0.0
H813 H 0.16783 0.2591 0.12602 0.0
H814 H 0.23669 0.33648 0.15425 0.0
H815 H 0.2127 0.41878 0.15023 0.0
C816 C 0.25867 0.18626 0.14217 0.0
C817 C 0.24314 0.14383 0.14898 0.0
C818 C 0.24611 0.23415 0.13965 0.0
C819 C 0.21766 0.24067 0.14372 0.0
C820 C 0.20212 0.19825 0.1505 0.0
C821 C 0.21472 0.15046 0.15316 0.0
C822 C 0.16429 0.34035 0.1291 0.0
C823 C 0.17639 0.38618 0.13596 0.0
C824 C 0.17786 0.29357 0.13145 0.0
C825 C 0.204 0.29119 0.14064 0.0
C826 C 0.21657 0.33711 0.14703 0.0
C827 C 0.20285 0.3842 0.14477 0.0
H828 H 0.74551 0.36191 0.15561 0.0
H829 H 0.66683 0.29115 0.14139 0.0
H830 H 0.76728 0.27788 0.15675 0.0
H831 H 0.68826 0.20675 0.1433 0.0
H832 H 0.74403 0.06548 0.13044 0.0
H833 H 0.71964 0.14768 0.12827 0.0
H834 H 0.76885 0.20531 0.17734 0.0
H835 H 0.79376 0.12459 0.17876 0.0
C836 C 0.73285 0.32834 0.15278 0.0
C837 C 0.70449 0.33322 0.14839 0.0
C838 C 0.74525 0.28001 0.15359 0.0
C839 C 0.72948 0.2352 0.15039 0.0
C840 C 0.70115 0.24025 0.14565 0.0
C841 C 0.68883 0.28873 0.14458 0.0
C842 C 0.74924 0.09565 0.14088 0.0
C843 C 0.77088 0.08896 0.15465 0.0
C844 C 0.73533 0.14278 0.13966 0.0
C845 C 0.74262 0.1837 0.15237 0.0
C846 C 0.76325 0.17549 0.16685 0.0
C847 C 0.77736 0.12896 0.16783 0.0
H848 H 0.31875 0.04396 0.05423 0.0
H849 H 0.24356 0.00464 0.08625 0.0
H850 H 0.29187 0.05635 1.02369 0.0
H851 H 0.21678 0.01608 0.05585 0.0
H852 H 0.17059 0.08645 1.00534 0.0
H853 H 0.20067 0.08189 0.03445 0.0
H854 H 0.26519 0.01334 0.99815 0.0
H855 H 0.23494 0.01967 0.96877 0.0
C856 C 0.29653 0.03745 0.05471 0.0
C857 C 0.28328 0.02362 0.07275 0.0
C858 C 0.28109 0.04455 0.03718 0.0
C859 C 0.25205 0.03783 0.03727 0.0
C860 C 0.23898 0.02301 0.05526 0.0
C861 C 0.25435 0.01625 0.07275 0.0
C862 C 0.19136 0.07104 1.00358 0.0
C863 C 0.2004 0.05307 0.98488 0.0
C864 C 0.20854 0.06796 1.02028 0.0
C865 C 0.23519 0.04611 1.01883 0.0
C866 C 0.24483 0.03049 0.99985 0.0
C867 C 0.2276 0.03415 0.983 0.0
H868 H 0.80496 0.43785 1.00387 0.0
H869 H 0.73822 0.47959 0.9643 0.0
H870 H 0.7723 0.43133 0.03164 0.0
H871 H 0.70529 0.47505 0.99227 0.0
H872 H 0.64926 0.42489 0.04415 0.0
H873 H 0.68105 0.42347 1.01563 0.0
H874 H 0.74646 0.48378 0.05304 0.0
H875 H 0.71481 0.48355 0.08154 0.0
C876 C 0.78321 0.4458 1.00117 0.0
C877 C 0.77417 0.45958 0.98196 0.0
C878 C 0.76444 0.44242 1.01712 0.0
C879 C 0.73607 0.45347 1.01441 0.0
C880 C 0.72688 0.4658 0.99499 0.0
C881 C 0.74571 0.46849 0.97892 0.0
C882 C 0.67044 0.43788 0.04622 0.0
C883 C 0.67952 0.45419 0.06514 0.0
C884 C 0.6887 0.43725 0.02984 0.0
C885 C 0.71649 0.45339 0.03189 0.0
C886 C 0.72546 0.46991 0.05086 0.0
C887 C 0.70729 0.46998 0.06727 0.0
H888 H 0.3389 0.96883 0.51108 0.0
H889 H 0.27055 0.97412 0.46957 0.0
H890 H 0.30628 0.96215 0.5389 0.0
H891 H 0.23763 0.96637 0.49752 0.0
H892 H 0.19159 0.02374 0.55476 0.0
H893 H 0.22222 0.02119 0.52572 0.0
H894 H 0.27194 0.905 0.55439 0.0
H895 H 0.24115 0.90697 0.58339 0.0
C896 C 0.31685 0.96825 0.5079 0.0
C897 C 0.30731 0.97246 0.48813 0.0
C898 C 0.29814 0.9639 0.52384 0.0
C899 C 0.26931 0.96388 0.52047 0.0
C900 C 0.25971 0.96679 0.50064 0.0
C901 C 0.27853 0.97072 0.48462 0.0
C902 C 0.20879 0.99712 0.55485 0.0
C903 C 0.21385 0.96578 0.5716 0.0
C904 C 0.22637 0.99561 0.53812 0.0
C905 C 0.24956 0.96293 0.53771 0.0
C906 C 0.25446 0.93113 0.55432 0.0
C907 C 0.23682 0.93244 0.57102 0.0
H908 H 0.8331 0.58295 0.54938 0.0
H909 H 0.76387 0.523 0.58323 0.0
H910 H 0.8041 0.58876 0.51972 0.0
H911 H 0.73477 0.52645 0.55333 0.0
H912 H 0.68336 0.57118 0.49918 0.0
H913 H 0.71102 0.57583 0.52956 0.0
H914 H 0.78448 0.53609 0.49547 0.0
H915 H 0.75678 0.53339 0.46507 0.0
C916 C 0.81155 0.57105 0.55041 0.0
C917 C 0.80073 0.55233 0.56854 0.0
C918 C 0.79493 0.5739 0.53336 0.0
C919 C 0.76708 0.55726 0.53387 0.0
C920 C 0.756 0.54012 0.55229 0.0
C921 C 0.77261 0.53805 0.56947 0.0
C922 C 0.70543 0.56344 0.49823 0.0
C923 C 0.71789 0.55183 0.47972 0.0
C924 C 0.72133 0.56592 0.51568 0.0
C925 C 0.75011 0.55628 0.51515 0.0
C926 C 0.76253 0.54484 0.49654 0.0
C927 C 0.74666 0.54305 0.47905 0.0
H928 H 0.66675 0.94732 1.00446 0.0
H929 H 0.73764 0.96501 0.96527 0.0
H930 H 0.69744 0.94242 0.03317 0.0
H931 H 0.76873 0.9588 0.99413 0.0
H932 H 0.80794 0.01893 0.05341 0.0
H933 H 0.78036 0.01272 1.02309 0.0
H934 H 0.73223 0.89016 0.0496 0.0
H935 H 0.75988 0.89619 0.07994 0.0
C936 C 0.68897 0.94976 1.00197 0.0
C937 C 0.69974 0.9571 0.9826 0.0
C938 C 0.70662 0.94639 1.01843 0.0
C939 C 0.73559 0.95038 1.01601 0.0
C940 C 0.74649 0.95613 0.99654 0.0
C941 C 0.72874 0.95917 0.97999 0.0
C942 C 0.79178 0.99012 0.05273 0.0
C943 C 0.78607 0.95835 0.06929 0.0
C944 C 0.77597 0.98649 0.03526 0.0
C945 C 0.75399 0.95107 0.03389 0.0
C946 C 0.74871 0.91844 0.05025 0.0
C947 C 0.76454 0.92202 0.0677 0.0
H948 H 0.22387 0.53015 0.085 0.0
H949 H 0.15995 0.58701 0.04568 0.0
H950 H 0.25711 0.53195 0.05734 0.0
H951 H 0.19268 0.58658 1.0179 0.0
H952 H 0.26397 0.61415 0.97401 0.0
H953 H 0.23339 0.62408 1.00305 0.0
H954 H 0.26508 0.48264 0.02764 0.0
H955 H 0.29559 0.47318 0.99889 0.0
C956 C 0.21695 0.54353 0.07054 0.0
C957 C 0.1891 0.55782 0.06756 0.0
C958 C 0.23593 0.54398 0.05459 0.0
C959 C 0.22753 0.55876 0.03526 0.0
C960 C 0.2 0.57519 0.03253 0.0
C961 C 0.18108 0.57482 0.04846 0.0
C962 C 0.26427 0.58514 0.98559 0.0
C963 C 0.28234 0.54301 0.98412 0.0
C964 C 0.24679 0.59083 1.00227 0.0
C965 C 0.24687 0.55435 1.01783 0.0
C966 C 0.26489 0.51217 1.01625 0.0
C967 C 0.28236 0.50663 0.99967 0.0
H968 H 0.68456 0.05637 0.54763 0.0
H969 H 0.75501 0.03097 0.58597 0.0
H970 H 0.71556 0.06849 0.51914 0.0
H971 H 0.78632 0.04094 0.55735 0.0
H972 H 0.83772 0.09881 0.50505 0.0
H973 H 0.80627 0.09637 0.53371 0.0
H974 H 0.74394 0.02251 0.49723 0.0
H975 H 0.77522 0.02699 0.46848 0.0
C976 C 0.70677 0.05315 0.5499 0.0
C977 C 0.71739 0.04246 0.56899 0.0
C978 C 0.72459 0.05978 0.53354 0.0
C979 C 0.75357 0.05513 0.53574 0.0
C980 C 0.7642 0.04552 0.55501 0.0
C981 C 0.74631 0.03965 0.57146 0.0
C982 C 0.81725 0.0822 0.5032 0.0
C983 C 0.80893 0.06304 0.48453 0.0
C984 C 0.79921 0.08053 0.51967 0.0
C985 C 0.77247 0.05899 0.51796 0.0
C986 C 0.76412 0.04027 0.49915 0.0
C987 C 0.78205 0.04264 0.48262 0.0
H988 H 0.27118 0.38794 0.58253 0.0
H989 H 0.31312 0.52105 0.55867 0.0
H990 H 0.24039 0.38691 0.55326 0.0
H991 H 0.28264 0.52053 0.52985 0.0
H992 H 0.24997 0.47155 0.47035 0.0
H993 H 0.27739 0.46749 0.50061 0.0
H994 H 0.20339 0.43383 0.53504 0.0
H995 H 0.17585 0.4358 0.50443 0.0
C996 C 0.27354 0.41728 0.57119 0.0
C997 C 0.29487 0.45396 0.57269 0.0
C998 C 0.25599 0.41673 0.55444 0.0
C999 C 0.25946 0.453 0.53897 0.0
C1000 C 0.27992 0.49106 0.54112 0.0
C1001 C 0.29737 0.49145 0.55769 0.0
C1002 C 0.23945 0.46243 0.48423 0.0
C1003 C 0.21054 0.45426 0.48482 0.0
C1004 C 0.2552 0.46076 0.50171 0.0
C1005 C 0.24256 0.45108 0.52034 0.0
C1006 C 0.2138 0.44135 0.52095 0.0
C1007 C 0.19797 0.44302 0.5034 0.0
H1008 H 0.34179 0.96277 0.22439 0.0
H1009 H 0.28015 0.06997 0.24545 0.0
H1010 H 0.35304 0.94065 0.25904 0.0
H1011 H 0.2915 0.0485 0.28 0.0
H1012 H 0.30911 0.97276 0.341 0.0
H1013 H 0.2922 0.98048 0.30666 0.0
H1014 H 0.37677 0.99225 0.28528 0.0
H1015 H 0.39361 0.98612 0.31915 0.0
C1016 C 0.33024 0.98073 0.23641 0.0
C1017 C 0.31032 0.01847 0.23223 0.0
C1018 C 0.33682 0.96847 0.25624 0.0
C1019 C 0.32337 0.99327 0.27228 0.0
C1020 C 0.30218 0.02856 0.26804 0.0
C1021 C 0.29584 0.04116 0.24825 0.0
C1022 C 0.32412 0.97724 0.32903 0.0
C1023 C 0.35284 0.97833 0.33308 0.0
C1024 C 0.3144 0.98139 0.30932 0.0
C1025 C 0.33317 0.98618 0.2932 0.0
C1026 C 0.36176 0.98725 0.29726 0.0
C1027 C 0.37142 0.98372 0.31685 0.0
H1028 H 0.60604 0.44811 0.23357 0.0
H1029 H 0.6862 0.50642 0.21549 0.0
H1030 H 0.61405 0.4785 0.26776 0.0
H1031 H 0.69474 0.53551 0.25001 0.0
H1032 H 0.7035 0.50568 0.32184 0.0
H1033 H 0.69624 0.4781 0.28698 0.0
H1034 H 0.62463 0.57684 0.28305 0.0
H1035 H 0.63241 0.60534 0.31748 0.0
C1036 C 0.62529 0.46783 0.23697 0.0
C1037 C 0.64541 0.47543 0.22196 0.0
C1038 C 0.6299 0.485 0.25646 0.0
C1039 C 0.65509 0.50889 0.26149 0.0
C1040 C 0.67523 0.51685 0.24649 0.0
C1041 C 0.67027 0.5008 0.22679 0.0
C1042 C 0.68618 0.52107 0.31348 0.0
C1043 C 0.66848 0.55749 0.32226 0.0
C1044 C 0.68218 0.50577 0.29358 0.0
C1045 C 0.65999 0.5257 0.28237 0.0
C1046 C 0.64192 0.56109 0.29136 0.0
C1047 C 0.64634 0.57729 0.311 0.0
H1048 H 0.68861 0.04072 0.83356 0.0
H1049 H 0.64506 0.904 0.8156 0.0
H1050 H 0.70152 0.05722 0.79851 0.0
H1051 H 0.65781 0.91992 0.78082 0.0
H1052 H 0.68827 0.95039 0.71913 0.0
H1053 H 0.69495 0.92968 0.75466 0.0
H1054 H 0.67009 0.08341 0.77049 0.0
H1055 H 0.66345 0.10347 0.73521 0.0
C1056 C 0.68255 0.0135 0.82217 0.0
C1057 C 0.66564 0.97143 0.82715 0.0
C1058 C 0.68976 0.02298 0.80215 0.0
C1059 C 0.68058 0.98999 0.78686 0.0
C1060 C 0.66548 0.94583 0.79218 0.0
C1061 C 0.65796 0.93689 0.81207 0.0
C1062 C 0.68515 0.97998 0.73024 0.0
C1063 C 0.67514 0.02831 0.72456 0.0
C1064 C 0.68877 0.96816 0.75054 0.0
C1065 C 0.68287 0.00483 0.76541 0.0
C1066 C 0.67507 0.05442 0.75947 0.0
C1067 C 0.67108 0.06586 0.7393 0.0
H1068 H 0.30878 0.52529 0.71842 0.0
H1069 H 0.35478 0.39549 0.74044 0.0
H1070 H 0.29566 0.54768 0.75285 0.0
H1071 H 0.3421 0.41764 0.77463 0.0
H1072 H 0.31155 0.45767 0.83535 0.0
H1073 H 0.30611 0.42907 0.80062 0.0
H1074 H 0.32475 0.58236 0.77999 0.0
H1075 H 0.32983 0.61048 0.81448 0.0
C1076 C 0.31544 0.50087 0.73058 0.0
C1077 C 0.33306 0.45909 0.72685 0.0
C1078 C 0.30813 0.51378 0.75028 0.0
C1079 C 0.318 0.48466 0.76653 0.0
C1080 C 0.3339 0.44069 0.76254 0.0
C1081 C 0.34142 0.42824 0.74296 0.0
C1082 C 0.31364 0.48536 0.82336 0.0
C1083 C 0.32145 0.53608 0.82754 0.0
C1084 C 0.31074 0.46902 0.80349 0.0
C1085 C 0.31525 0.50334 0.7875 0.0
C1086 C 0.32091 0.55496 0.79187 0.0
C1087 C 0.32409 0.57102 0.81163 0.0
H1088 H 0.83684 0.40047 0.81743 0.0
H1089 H 0.80393 0.5489 0.83255 0.0
H1090 H 0.82928 0.41773 0.78203 0.0
H1091 H 0.79633 0.56685 0.79688 0.0
H1092 H 0.84513 0.59839 0.73574 0.0
H1093 H 0.83265 0.58226 0.77057 0.0
H1094 H 0.79683 0.4367 0.75377 0.0
H1095 H 0.80939 0.45358 0.71866 0.0
C1096 C 0.82725 0.43632 0.81311 0.0
C1097 C 0.82113 0.47351 0.82762 0.0
C1098 C 0.82273 0.44614 0.79285 0.0
C1099 C 0.81234 0.4938 0.78658 0.0
C1100 C 0.8045 0.52984 0.80124 0.0
C1101 C 0.80865 0.51957 0.82162 0.0
C1102 C 0.83384 0.56369 0.73947 0.0
C1103 C 0.82833 0.52708 0.72464 0.0
C1104 C 0.82653 0.55451 0.75939 0.0
C1105 C 0.81388 0.50803 0.765 0.0
C1106 C 0.80669 0.47277 0.74992 0.0
C1107 C 0.81366 0.48245 0.72986 0.0
H1108 H 0.19208 0.02901 0.83172 0.0
H1109 H 0.10468 0.99776 0.82414 0.0
H1110 H 0.20075 0.00214 0.7969 0.0
H1111 H 0.11304 0.97169 0.78978 0.0
H1112 H 0.14033 0.87643 0.73735 0.0
H1113 H 0.1365 0.90063 0.77226 0.0
H1114 H 0.18804 0.03339 0.76113 0.0
H1115 H 0.19244 0.00821 0.72583 0.0
C1116 C 0.17487 0.01584 0.82269 0.0
C1117 C 0.14772 0.01546 0.83056 0.0
C1118 C 0.17972 1.00109 0.80276 0.0
C1119 C 0.15755 0.9849 0.79059 0.0
C1120 C 0.1306 0.98355 0.79876 0.0
C1121 C 0.12577 0.9987 0.81842 0.0
C1122 C 0.15113 0.91051 0.74229 0.0
C1123 C 0.16675 0.94033 0.72877 0.0
C1124 C 0.14877 0.92458 0.76232 0.0
C1125 C 0.16195 0.96893 0.76947 0.0
C1126 C 0.17784 0.99874 0.75607 0.0
C1127 C 0.18007 0.98474 0.73585 0.0
H1128 H 0.21753 0.45575 0.31252 0.0
H1129 H 0.14019 0.52499 0.33115 0.0
H1130 H 0.20325 0.46099 0.27785 0.0
H1131 H 0.12569 0.5303 0.2961 0.0
H1132 H 0.10002 0.47807 0.23237 0.0
H1133 H 0.11261 0.47671 0.2676 0.0
H1134 H 0.19594 0.52499 0.25209 0.0
H1135 H 0.18362 0.52452 0.21679 0.0
C1136 C 0.19752 0.47258 0.3092 0.0
C1137 C 0.18016 0.49062 0.32464 0.0
C1138 C 0.18935 0.47567 0.28926 0.0
C1139 C 0.16352 0.4968 0.28412 0.0
C1140 C 0.14572 0.51366 0.29955 0.0
C1141 C 0.15396 0.51056 0.31963 0.0
C1142 C 0.12109 0.48811 0.23644 0.0
C1143 C 0.14089 0.5008 0.22166 0.0
C1144 C 0.1282 0.48794 0.25669 0.0
C1145 C 0.15533 0.5004 0.2627 0.0
C1146 C 0.17495 0.51444 0.24797 0.0
C1147 C 0.16781 0.5147 0.2277 0.0
H1148 H 0.81619 0.99195 0.33646 0.0
H1149 H 0.89209 0.06493 0.31711 0.0
H1150 H 0.80841 0.96055 0.30261 0.0
H1151 H 0.88556 0.03133 0.28346 0.0
H1152 H 0.84561 0.02628 0.22134 0.0
H1153 H 0.85889 0.04697 0.25552 0.0
H1154 H 0.81955 0.90717 0.27624 0.0
H1155 H 0.80508 0.88868 0.24209 0.0
C1156 C 0.8316 0.9999 0.32501 0.0
C1157 C 0.85461 0.03102 0.32927 0.0
C1158 C 0.82727 0.98185 0.30557 0.0
C1159 C 0.8462 0.99374 0.29003 0.0
C1160 C 0.87008 0.02249 0.29475 0.0
C1161 C 0.87404 0.04137 0.31407 0.0
C1162 C 0.84026 0.99978 0.23323 0.0
C1163 C 0.82425 0.9561 0.22918 0.0
C1164 C 0.84791 0.0114 0.25287 0.0
C1165 C 0.84018 0.97897 0.26888 0.0
C1166 C 0.82532 0.93384 0.26452 0.0
C1167 C 0.81721 0.92289 0.24494 0.0
H1168 H 0.5114 0.37247 0.1237 0.0
H1169 H 0.55714 0.24553 0.14868 0.0
H1170 H 0.46854 0.32182 0.12529 0.0
H1171 H 0.51428 0.19489 0.15028 0.0
H1172 H 0.4259 0.15437 0.17403 0.0
H1173 H 0.46909 0.20259 0.17061 0.0
H1174 H 0.44819 0.24 0.10965 0.0
H1175 H 0.40538 0.19015 0.11269 0.0
C1176 C 0.51225 0.33367 0.12946 0.0
C1177 C 0.53752 0.31288 0.13611 0.0
C1178 C 0.48782 0.30465 0.13025 0.0
C1179 C 0.48813 0.25458 0.13798 0.0
C1180 C 0.51346 0.23357 0.1444 0.0
C1181 C 0.53797 0.26233 0.14334 0.0
C1182 C 0.4306 0.17219 0.15978 0.0
C1183 C 0.41208 0.16809 0.14362 0.0
C1184 C 0.45533 0.19993 0.15787 0.0
C1185 C 0.46199 0.22481 0.13985 0.0
C1186 C 0.44343 0.22146 0.12376 0.0
C1187 C 0.41883 0.19314 0.12557 0.0
H1188 H 0.45184 0.80818 0.45643 0.0
H1189 H 0.48203 0.90067 0.40724 0.0
H1190 H 0.4949 0.75849 0.45558 0.0
H1191 H 0.52477 0.85142 0.40644 0.0
H1192 H 0.60771 0.77957 0.41864 0.0
H1193 H 0.56695 0.83276 0.42483 0.0
H1194 H 0.51685 0.69664 0.43305 0.0
H1195 H 0.55782 0.6435 0.42768 0.0
C1196 C 0.46766 0.81801 0.4455 0.0
C1197 C 0.46352 0.85848 0.43194 0.0
C1198 C 0.49231 0.78958 0.44501 0.0
C1199 C 0.51327 0.80107 0.43096 0.0
C1200 C 0.5093 0.84217 0.41771 0.0
C1201 C 0.48475 0.87048 0.41818 0.0
C1202 C 0.5881 0.76101 0.42212 0.0
C1203 C 0.58596 0.7073 0.42251 0.0
C1204 C 0.56469 0.79148 0.42547 0.0
C1205 C 0.53862 0.76892 0.4293 0.0
C1206 C 0.53666 0.71524 0.43031 0.0
C1207 C 0.56007 0.68477 0.42695 0.0
H1208 H 0.53173 0.86751 0.89994 0.0
H1209 H 0.56657 0.78877 0.95082 0.0
H1210 H 0.48978 0.81598 0.9027 0.0
H1211 H 0.52417 0.73728 0.95381 0.0
H1212 H 0.45723 0.61699 0.93641 0.0
H1213 H 0.49907 0.66986 0.93681 0.0
H1214 H 0.44966 0.80353 0.92326 0.0
H1215 H 0.40822 0.75046 0.92167 0.0
C1216 C 0.53023 0.83965 0.91192 0.0
C1217 C 0.55241 0.83242 0.92523 0.0
C1218 C 0.50613 0.81013 0.91354 0.0
C1219 C 0.50346 0.77271 0.92858 0.0
C1220 C 0.52565 0.76542 0.94193 0.0
C1221 C 0.54991 0.79491 0.94024 0.0
C1222 C 0.45529 0.65762 0.93343 0.0
C1223 C 0.42931 0.67926 0.92881 0.0
C1224 C 0.47927 0.68807 0.93392 0.0
C1225 C 0.47779 0.7409 0.92987 0.0
C1226 C 0.45165 0.76282 0.92608 0.0
C1227 C 0.42777 0.7324 0.92547 0.0
H1228 H 0.46573 0.36565 0.60978 0.0
H1229 H 0.4258 0.23744 0.63928 0.0
H1230 H 0.50795 0.315 0.60572 0.0
H1231 H 0.46784 0.18663 0.63478 0.0
H1232 H 0.54219 0.09792 0.61016 0.0
H1233 H 0.49916 0.1473 0.60867 0.0
H1234 H 0.54283 0.28093 0.63011 0.0
H1235 H 0.58557 0.23164 0.63214 0.0
C1236 C 0.4659 0.32667 0.61536 0.0
C1237 C 0.44244 0.30584 0.62508 0.0
C1238 C 0.49005 0.29764 0.61295 0.0
C1239 C 0.49122 0.24699 0.62002 0.0
C1240 C 0.46744 0.22541 0.62898 0.0
C1241 C 0.44334 0.25455 0.63154 0.0
C1242 C 0.54264 0.1378 0.61459 0.0
C1243 C 0.56739 0.16063 0.62139 0.0
C1244 C 0.518 0.16607 0.61366 0.0
C1245 C 0.51765 0.21789 0.61931 0.0
C1246 C 0.54254 0.24122 0.6254 0.0
C1247 C 0.56709 0.21291 0.6265 0.0
H1248 H 0.93708 0.70884 0.60507 0.0
H1249 H 0.96965 0.62107 0.6545 0.0
H1250 H 0.98079 0.75653 0.60297 0.0
H1251 H 0.01311 0.66856 0.65244 0.0
H1252 H 0.09623 0.73353 0.63472 0.0
H1253 H 0.05402 0.68209 0.63181 0.0
H1254 H 0.00602 0.8198 0.62242 0.0
H1255 H 0.04832 0.87094 0.6245 0.0
C1256 C 0.95352 0.69982 0.61551 0.0
C1257 C 0.94989 0.66112 0.62993 0.0
C1258 C 0.97857 0.72707 0.61429 0.0
C1259 C 0.00049 0.71624 0.62749 0.0
C1260 C 0.99689 0.67721 0.64177 0.0
C1261 C 0.97193 0.65001 0.64297 0.0
C1262 C 0.07676 0.75271 0.63163 0.0
C1263 C 0.07561 0.80637 0.63002 0.0
C1264 C 0.05252 0.72329 0.63019 0.0
C1265 C 0.0266 0.74687 0.62708 0.0
C1266 C 0.02563 0.80035 0.6247 0.0
C1267 C 0.04985 0.82973 0.62613 0.0
H1268 H 0.05964 0.21737 0.95588 0.0
H1269 H 0.03087 0.15029 0.90078 0.0
H1270 H 0.01645 0.26644 0.95852 0.0
H1271 H 0.98841 0.20021 0.90289 0.0
H1272 H 0.95008 0.38788 0.94337 0.0
H1273 H 0.99204 0.33612 0.94415 0.0
H1274 H 0.94618 0.20769 0.92018 0.0
H1275 H 0.90493 0.26046 0.91784 0.0
C1276 C 0.04411 0.21341 0.9443 0.0
C1277 C 0.04844 0.17978 0.92822 0.0
C1278 C 0.01942 0.24157 0.94575 0.0
C1279 C -0.00126 0.23709 0.931 0.0
C1280 C 0.00341 0.20372 0.91483 0.0
C1281 C 0.02784 0.17523 0.91354 0.0
C1282 C 0.94895 0.34875 0.93809 0.0
C1283 C 0.92405 0.32879 0.93026 0.0
C1284 C 0.973 0.31873 0.93883 0.0
C1285 C 0.97268 0.26779 0.93199 0.0
C1286 C 0.94744 0.24711 0.92514 0.0
C1287 C 0.92354 0.27726 0.92413 0.0
H1288 H 0.0613 0.37737 0.37886 0.0
H1289 H 0.08583 0.32324 0.43724 0.0
H1290 H 0.01724 0.33116 0.38216 0.0
H1291 H 0.04197 0.27722 0.44052 0.0
H1292 H 0.97798 0.15113 0.42735 0.0
H1293 H 0.02024 0.20247 0.42548 0.0
H1294 H 0.97328 0.32898 0.40125 0.0
H1295 H 0.93099 0.27682 0.40255 0.0
C1296 C 0.05719 0.356 0.39246 0.0
C1297 C 0.07721 0.35344 0.40767 0.0
C1298 C 0.03194 0.32964 0.39437 0.0
C1299 C 0.02619 0.30025 0.41156 0.0
C1300 C 0.04598 0.29869 0.42693 0.0
C1301 C 0.07116 0.32497 0.42502 0.0
C1302 C 0.97667 0.18987 0.42159 0.0
C1303 C 0.95118 0.20982 0.415 0.0
C1304 C 0.00084 0.21949 0.4207 0.0
C1305 C 0.00013 0.26981 0.41319 0.0
C1306 C 0.97455 0.29016 0.40692 0.0
C1307 C 0.95029 0.26052 0.40788 0.0
H1308 H 0.94584 0.89394 0.1346 0.0
H1309 H 0.89915 0.7563 0.14769 0.0
H1310 H 0.98836 0.84325 0.13158 0.0
H1311 H 0.94149 0.70583 0.14509 0.0
H1312 H 0.01474 0.62177 0.11954 0.0
H1313 H 0.97374 0.6764 0.1204 0.0
H1314 H 0.02088 0.79351 0.15098 0.0
H1315 H 0.06213 0.739 0.14964 0.0
C1316 C 0.94476 0.85293 0.13703 0.0
C1317 C 0.91921 0.82896 0.14128 0.0
C1318 C 0.96907 0.8239 0.13531 0.0
C1319 C 0.9683 0.77041 0.13792 0.0
C1320 C 0.94275 0.74675 0.1425 0.0
C1321 C 0.91849 0.77566 0.14408 0.0
C1322 C 0.01631 0.65926 0.12639 0.0
C1323 C 0.04148 0.67605 0.13468 0.0
C1324 C 0.99283 0.6905 0.12696 0.0
C1325 C 0.99391 0.73907 0.13601 0.0
C1326 C 0.01938 0.7565 0.14376 0.0
C1327 C 0.04298 0.72532 0.14303 0.0
loop_
_geom_bond_atom_site_label_1
_geom_bond_atom_site_label_2
_geom_bond_distance
_geom_bond_site_symmetry_2
_ccdc_geom_bond_type
C0 C1 1.351 . S
C0 N3 1.368 . S
C0 H5 0.931 . S
C1 C0 1.351 . S
C1 N2 1.373 . S
C1 H29 0.930 . S
N2 C1 1.373 . S
N2 C4 1.340 . S
N3 C0 1.368 . S
N3 C4 1.321 . S
N3 Co6 2.135 . S
C4 N2 1.340 . S
C4 N3 1.321 . S
C4 H28 0.930 . S
H5 C0 0.931 . S
Co6 N3 2.135 . S
Co6 N9 2.121 . S
Co6 O14 2.055 . S
Co6 O17 2.039 . S
Co6 N20 2.140 . S
C7 O8 1.227 . S
C7 O17 1.265 . S
O8 C7 1.227 . S
N9 Co6 2.121 . S
N9 C11 1.375 . S
N9 C12 1.313 . S
C10 C11 1.338 . S
C10 N13 1.377 . S
C10 H30 0.930 . S
C11 N9 1.375 . S
C11 C10 1.338 . S
C11 H15 0.931 . S
C12 N9 1.313 . S
C12 N13 1.344 . S
C12 H16 0.930 . S
N13 C10 1.377 . S
N13 C12 1.344 . S
O14 Co6 2.055 . S
O14 C18 1.253 . S
H15 C11 0.931 . S
H16 C12 0.930 . S
O17 Co6 2.039 . S
O17 C7 1.265 . S
C18 O14 1.253 . S
C18 O19 1.227 . S
O19 C18 1.227 . S
N20 Co6 2.140 . S
N20 C23 1.346 . S
N20 C24 1.345 . S
C21 C22 1.387 . S
C21 C25 1.391 . S
C22 C21 1.387 . S
C22 C23 1.369 . S
C22 H31 0.929 . S
C23 N20 1.346 . S
C23 C22 1.369 . S
C23 H26 0.928 . S
C24 N20 1.345 . S
C24 C25 1.371 . S
C24 H27 0.931 . S
C25 C21 1.391 . S
C25 C24 1.371 . S
C25 H32 0.930 . S
H26 C23 0.928 . S
H27 C24 0.931 . S
H28 C4 0.930 . S
H29 C1 0.930 . S
H30 C10 0.930 . S
H31 C22 0.929 . S
H32 C25 0.930 . S
C33 C34 1.351 . S
C33 N36 1.368 . S
C33 H38 0.931 . S
C34 C33 1.351 . S
C34 N35 1.373 . S
C34 H62 0.930 . S
N35 C34 1.373 . S
N35 C37 1.340 . S
N36 C33 1.368 . S
N36 C37 1.321 . S
N36 Co39 2.135 . S
C37 N35 1.340 . S
C37 N36 1.321 . S
C37 H61 0.930 . S
H38 C33 0.931 . S
Co39 N36 2.135 . S
Co39 N42 2.121 . S
Co39 O47 2.055 . S
Co39 O50 2.039 . S
Co39 N53 2.140 . S
C40 O41 1.227 . S
C40 O50 1.265 . S
O41 C40 1.227 . S
N42 Co39 2.121 . S
N42 C44 1.375 . S
N42 C45 1.313 . S
C43 C44 1.338 . S
C43 N46 1.377 . S
C43 H63 0.930 . S
C44 N42 1.375 . S
C44 C43 1.338 . S
C44 H48 0.931 . S
C45 N42 1.313 . S
C45 N46 1.344 . S
C45 H49 0.930 . S
N46 C43 1.377 . S
N46 C45 1.344 . S
O47 Co39 2.055 . S
O47 C51 1.253 . S
H48 C44 0.931 . S
H49 C45 0.930 . S
O50 Co39 2.039 . S
O50 C40 1.265 . S
C51 O47 1.253 . S
C51 O52 1.227 . S
O52 C51 1.227 . S
N53 Co39 2.140 . S
N53 C56 1.346 . S
N53 C57 1.345 . S
C54 C55 1.387 . S
C54 C58 1.391 . S
C55 C54 1.387 . S
C55 C56 1.369 . S
C55 H64 0.929 . S
C56 N53 1.346 . S
C56 C55 1.369 . S
C56 H59 0.928 . S
C57 N53 1.345 . S
C57 C58 1.371 . S
C57 H60 0.931 . S
C58 C54 1.391 . S
C58 C57 1.371 . S
C58 H65 0.930 . S
H59 C56 0.928 . S
H60 C57 0.931 . S
H61 C37 0.930 . S
H62 C34 0.930 . S
H63 C43 0.930 . S
H64 C55 0.929 . S
H65 C58 0.930 . S
C66 C67 1.351 . S
C66 N69 1.368 . S
C66 H71 0.931 . S
C67 C66 1.351 . S
C67 N68 1.373 . S
C67 H95 0.930 . S
N68 C67 1.373 . S
N68 C70 1.340 . S
N69 C66 1.368 . S
N69 C70 1.321 . S
N69 Co72 2.135 . S
C70 N68 1.340 . S
C70 N69 1.321 . S
C70 H94 0.930 . S
H71 C66 0.931 . S
Co72 N69 2.135 . S
Co72 N75 2.121 . S
Co72 O80 2.055 . S
Co72 O83 2.039 . S
Co72 N86 2.140 . S
C73 O74 1.227 . S
C73 O83 1.265 . S
O74 C73 1.227 . S
N75 Co72 2.121 . S
N75 C77 1.375 . S
N75 C78 1.313 . S
C76 C77 1.338 . S
C76 N79 1.377 . S
C76 H96 0.930 . S
C77 N75 1.375 . S
C77 C76 1.338 . S
C77 H81 0.931 . S
C78 N75 1.313 . S
C78 N79 1.344 . S
C78 H82 0.930 . S
N79 C76 1.377 . S
N79 C78 1.344 . S
O80 Co72 2.055 . S
O80 C84 1.253 . S
H81 C77 0.931 . S
H82 C78 0.930 . S
O83 Co72 2.039 . S
O83 C73 1.265 . S
C84 O80 1.253 . S
C84 O85 1.227 . S
O85 C84 1.227 . S
N86 Co72 2.140 . S
N86 C89 1.346 . S
N86 C90 1.345 . S
C87 C88 1.387 . S
C87 C91 1.391 . S
C88 C87 1.387 . S
C88 C89 1.369 . S
C88 H97 0.929 . S
C89 N86 1.346 . S
C89 C88 1.369 . S
C89 H92 0.928 . S
C90 N86 1.345 . S
C90 C91 1.371 . S
C90 H93 0.931 . S
C91 C87 1.391 . S
C91 C90 1.371 . S
C91 H98 0.930 . S
H92 C89 0.928 . S
H93 C90 0.931 . S
H94 C70 0.930 . S
H95 C67 0.930 . S
H96 C76 0.930 . S
H97 C88 0.929 . S
H98 C91 0.930 . S
C99 C100 1.351 . S
C99 N102 1.368 . S
C99 H104 0.931 . S
C100 C99 1.351 . S
C100 N101 1.373 . S
C100 H128 0.930 . S
N101 C100 1.373 . S
N101 C103 1.340 . S
N102 C99 1.368 . S
N102 C103 1.321 . S
N102 Co105 2.135 . S
C103 N101 1.340 . S
C103 N102 1.321 . S
C103 H127 0.930 . S
H104 C99 0.931 . S
Co105 N102 2.135 . S
Co105 N108 2.121 . S
Co105 O113 2.055 . S
Co105 O116 2.039 . S
Co105 N119 2.140 . S
C106 O107 1.227 . S
C106 O116 1.265 . S
O107 C106 1.227 . S
N108 Co105 2.121 . S
N108 C110 1.375 . S
N108 C111 1.313 . S
C109 C110 1.338 . S
C109 N112 1.377 . S
C109 H129 0.930 . S
C110 N108 1.375 . S
C110 C109 1.338 . S
C110 H114 0.931 . S
C111 N108 1.313 . S
C111 N112 1.344 . S
C111 H115 0.930 . S
N112 C109 1.377 . S
N112 C111 1.344 . S
O113 Co105 2.055 . S
O113 C117 1.253 . S
H114 C110 0.931 . S
H115 C111 0.930 . S
O116 Co105 2.039 . S
O116 C106 1.265 . S
C117 O113 1.253 . S
C117 O118 1.227 . S
O118 C117 1.227 . S
N119 Co105 2.140 . S
N119 C122 1.346 . S
N119 C123 1.345 . S
C120 C121 1.387 . S
C120 C124 1.391 . S
C121 C120 1.387 . S
C121 C122 1.369 . S
C121 H130 0.929 . S
C122 N119 1.346 . S
C122 C121 1.369 . S
C122 H125 0.928 . S
C123 N119 1.345 . S
C123 C124 1.371 . S
C123 H126 0.931 . S
C124 C120 1.391 . S
C124 C123 1.371 . S
C124 H131 0.930 . S
H125 C122 0.928 . S
H126 C123 0.931 . S
H127 C103 0.930 . S
H128 C100 0.930 . S
H129 C109 0.930 . S
H130 C121 0.929 . S
H131 C124 0.930 . S
C132 C133 1.351 . S
C132 N135 1.368 . S
C132 H137 0.931 . S
C133 C132 1.351 . S
C133 N134 1.373 . S
C133 H161 0.930 . S
N134 C133 1.373 . S
N134 C136 1.340 . S
N135 C132 1.368 . S
N135 C136 1.321 . S
N135 Co138 2.135 . S
C136 N134 1.340 . S
C136 N135 1.321 . S
C136 H160 0.930 . S
H137 C132 0.931 . S
Co138 N135 2.135 . S
Co138 N141 2.121 . S
Co138 O146 2.055 . S
Co138 O149 2.039 . S
Co138 N152 2.140 . S
C139 O140 1.227 . S
C139 O149 1.265 . S
O140 C139 1.227 . S
N141 Co138 2.121 . S
N141 C143 1.375 . S
N141 C144 1.313 . S
C142 C143 1.338 . S
C142 N145 1.377 . S
C142 H162 0.930 . S
C143 N141 1.375 . S
C143 C142 1.338 . S
C143 H147 0.931 . S
C144 N141 1.313 . S
C144 N145 1.344 . S
C144 H148 0.930 . S
N145 C142 1.377 . S
N145 C144 1.344 . S
O146 Co138 2.055 . S
O146 C150 1.253 . S
H147 C143 0.931 . S
H148 C144 0.930 . S
O149 Co138 2.039 . S
O149 C139 1.265 . S
C150 O146 1.253 . S
C150 O151 1.227 . S
O151 C150 1.227 . S
N152 Co138 2.140 . S
N152 C155 1.346 . S
N152 C156 1.345 . S
C153 C154 1.387 . S
C153 C157 1.391 . S
C154 C153 1.387 . S
C154 C155 1.369 . S
C154 H163 0.929 . S
C155 N152 1.346 . S
C155 C154 1.369 . S
C155 H158 0.928 . S
C156 N152 1.345 . S
C156 C157 1.371 . S
C156 H159 0.931 . S
C157 C153 1.391 . S
C157 C156 1.371 . S
C157 H164 0.930 . S
H158 C155 0.928 . S
H159 C156 0.931 . S
H160 C136 0.930 . S
H161 C133 0.930 . S
H162 C142 0.930 . S
H163 C154 0.929 . S
H164 C157 0.930 . S
C165 C166 1.351 . S
C165 N168 1.368 . S
C165 H170 0.931 . S
C166 C165 1.351 . S
C166 N167 1.373 . S
C166 H194 0.930 . S
N167 C166 1.373 . S
N167 C169 1.340 . S
N168 C165 1.368 . S
N168 C169 1.321 . S
N168 Co171 2.135 . S
C169 N167 1.340 . S
C169 N168 1.321 . S
C169 H193 0.930 . S
H170 C165 0.931 . S
Co171 N168 2.135 . S
Co171 N174 2.121 . S
Co171 O179 2.055 . S
Co171 O182 2.039 . S
Co171 N185 2.140 . S
C172 O173 1.227 . S
C172 O182 1.265 . S
O173 C172 1.227 . S
N174 Co171 2.121 . S
N174 C176 1.375 . S
N174 C177 1.313 . S
C175 C176 1.338 . S
C175 N178 1.377 . S
C175 H195 0.930 . S
C176 N174 1.375 . S
C176 C175 1.338 . S
C176 H180 0.931 . S
C177 N174 1.313 . S
C177 N178 1.344 . S
C177 H181 0.930 . S
N178 C175 1.377 . S
N178 C177 1.344 . S
O179 Co171 2.055 . S
O179 C183 1.253 . S
H180 C176 0.931 . S
H181 C177 0.930 . S
O182 Co171 2.039 . S
O182 C172 1.265 . S
C183 O179 1.253 . S
C183 O184 1.227 . S
O184 C183 1.227 . S
N185 Co171 2.140 . S
N185 C188 1.346 . S
N185 C189 1.345 . S
C186 C187 1.387 . S
C186 C190 1.391 . S
C187 C186 1.387 . S
C187 C188 1.369 . S
C187 H196 0.929 . S
C188 N185 1.346 . S
C188 C187 1.369 . S
C188 H191 0.928 . S
C189 N185 1.345 . S
C189 C190 1.371 . S
C189 H192 0.931 . S
C190 C186 1.391 . S
C190 C189 1.371 . S
C190 H197 0.930 . S
H191 C188 0.928 . S
H192 C189 0.931 . S
H193 C169 0.930 . S
H194 C166 0.930 . S
H195 C175 0.930 . S
H196 C187 0.929 . S
H197 C190 0.930 . S
C198 C199 1.351 . S
C198 N201 1.368 . S
C198 H203 0.931 . S
C199 C198 1.351 . S
C199 N200 1.373 . S
C199 H227 0.930 . S
N200 C199 1.373 . S
N200 C202 1.340 . S
N201 C198 1.368 . S
N201 C202 1.321 . S
N201 Co204 2.135 . S
C202 N200 1.340 . S
C202 N201 1.321 . S
C202 H226 0.930 . S
H203 C198 0.931 . S
Co204 N201 2.135 . S
Co204 N207 2.121 . S
Co204 O212 2.055 . S
Co204 O215 2.039 . S
Co204 N218 2.140 . S
C205 O206 1.227 . S
C205 O215 1.265 . S
O206 C205 1.227 . S
N207 Co204 2.121 . S
N207 C209 1.375 . S
N207 C210 1.313 . S
C208 C209 1.338 . S
C208 N211 1.377 . S
C208 H228 0.930 . S
C209 N207 1.375 . S
C209 C208 1.338 . S
C209 H213 0.931 . S
C210 N207 1.313 . S
C210 N211 1.344 . S
C210 H214 0.930 . S
N211 C208 1.377 . S
N211 C210 1.344 . S
O212 Co204 2.055 . S
O212 C216 1.253 . S
H213 C209 0.931 . S
H214 C210 0.930 . S
O215 Co204 2.039 . S
O215 C205 1.265 . S
C216 O212 1.253 . S
C216 O217 1.227 . S
O217 C216 1.227 . S
N218 Co204 2.140 . S
N218 C221 1.346 . S
N218 C222 1.345 . S
C219 C220 1.387 . S
C219 C223 1.391 . S
C220 C219 1.387 . S
C220 C221 1.369 . S
C220 H229 0.929 . S
C221 N218 1.346 . S
C221 C220 1.369 . S
C221 H224 0.928 . S
C222 N218 1.345 . S
C222 C223 1.371 . S
C222 H225 0.931 . S
C223 C219 1.391 . S
C223 C222 1.371 . S
C223 H230 0.930 . S
H224 C221 0.928 . S
H225 C222 0.931 . S
H226 C202 0.930 . S
H227 C199 0.930 . S
H228 C208 0.930 . S
H229 C220 0.929 . S
H230 C223 0.930 . S
C231 C232 1.351 . S
C231 N234 1.368 . S
C231 H236 0.931 . S
C232 C231 1.351 . S
C232 N233 1.373 . S
C232 H260 0.930 . S
N233 C232 1.373 . S
N233 C235 1.340 . S
N234 C231 1.368 . S
N234 C235 1.321 . S
N234 Co237 2.135 . S
C235 N233 1.340 . S
C235 N234 1.321 . S
C235 H259 0.930 . S
H236 C231 0.931 . S
Co237 N234 2.135 . S
Co237 N240 2.121 . S
Co237 O245 2.055 . S
Co237 O248 2.039 . S
Co237 N251 2.140 . S
C238 O239 1.227 . S
C238 O248 1.265 . S
O239 C238 1.227 . S
N240 Co237 2.121 . S
N240 C242 1.375 . S
N240 C243 1.313 . S
C241 C242 1.338 . S
C241 N244 1.377 . S
C241 H261 0.930 . S
C242 N240 1.375 . S
C242 C241 1.338 . S
C242 H246 0.931 . S
C243 N240 1.313 . S
C243 N244 1.344 . S
C243 H247 0.930 . S
N244 C241 1.377 . S
N244 C243 1.344 . S
O245 Co237 2.055 . S
O245 C249 1.253 . S
H246 C242 0.931 . S
H247 C243 0.930 . S
O248 Co237 2.039 . S
O248 C238 1.265 . S
C249 O245 1.253 . S
C249 O250 1.227 . S
O250 C249 1.227 . S
N251 Co237 2.140 . S
N251 C254 1.346 . S
N251 C255 1.345 . S
C252 C253 1.387 . S
C252 C256 1.391 . S
C253 C252 1.387 . S
C253 C254 1.369 . S
C253 H262 0.929 . S
C254 N251 1.346 . S
C254 C253 1.369 . S
C254 H257 0.928 . S
C255 N251 1.345 . S
C255 C256 1.371 . S
C255 H258 0.931 . S
C256 C252 1.391 . S
C256 C255 1.371 . S
C256 H263 0.930 . S
H257 C254 0.928 . S
H258 C255 0.931 . S
H259 C235 0.930 . S
H260 C232 0.930 . S
H261 C241 0.930 . S
H262 C253 0.929 . S
H263 C256 0.930 . S
C264 C265 1.351 . S
C264 N267 1.368 . S
C264 H269 0.931 . S
C265 C264 1.351 . S
C265 N266 1.373 . S
C265 H293 0.930 . S
N266 C265 1.373 . S
N266 C268 1.340 . S
N267 C264 1.368 . S
N267 C268 1.321 . S
N267 Co270 2.135 . S
C268 N266 1.340 . S
C268 N267 1.321 . S
C268 H292 0.930 . S
H269 C264 0.931 . S
Co270 N267 2.135 . S
Co270 N273 2.121 . S
Co270 O278 2.055 . S
Co270 O281 2.039 . S
Co270 N284 2.140 . S
C271 O272 1.227 . S
C271 O281 1.265 . S
O272 C271 1.227 . S
N273 Co270 2.121 . S
N273 C275 1.375 . S
N273 C276 1.313 . S
C274 C275 1.338 . S
C274 N277 1.377 . S
C274 H294 0.930 . S
C275 N273 1.375 . S
C275 C274 1.338 . S
C275 H279 0.931 . S
C276 N273 1.313 . S
C276 N277 1.344 . S
C276 H280 0.930 . S
N277 C274 1.377 . S
N277 C276 1.344 . S
O278 Co270 2.055 . S
O278 C282 1.253 . S
H279 C275 0.931 . S
H280 C276 0.930 . S
O281 Co270 2.039 . S
O281 C271 1.265 . S
C282 O278 1.253 . S
C282 O283 1.227 . S
O283 C282 1.227 . S
N284 Co270 2.140 . S
N284 C287 1.346 . S
N284 C288 1.345 . S
C285 C286 1.387 . S
C285 C289 1.391 . S
C286 C285 1.387 . S
C286 C287 1.369 . S
C286 H295 0.929 . S
C287 N284 1.346 . S
C287 C286 1.369 . S
C287 H290 0.928 . S
C288 N284 1.345 . S
C288 C289 1.371 . S
C288 H291 0.931 . S
C289 C285 1.391 . S
C289 C288 1.371 . S
C289 H296 0.930 . S
H290 C287 0.928 . S
H291 C288 0.931 . S
H292 C268 0.930 . S
H293 C265 0.930 . S
H294 C274 0.930 . S
H295 C286 0.929 . S
H296 C289 0.930 . S
C297 C298 1.351 . S
C297 N300 1.368 . S
C297 H302 0.931 . S
C298 C297 1.351 . S
C298 N299 1.373 . S
C298 H326 0.930 . S
N299 C298 1.373 . S
N299 C301 1.340 . S
N300 C297 1.368 . S
N300 C301 1.321 . S
N300 Co303 2.135 . S
C301 N299 1.340 . S
C301 N300 1.321 . S
C301 H325 0.930 . S
H302 C297 0.931 . S
Co303 N300 2.135 . S
Co303 N306 2.121 . S
Co303 O311 2.055 . S
Co303 O314 2.039 . S
Co303 N317 2.140 . S
C304 O305 1.227 . S
C304 O314 1.265 . S
O305 C304 1.227 . S
N306 Co303 2.121 . S
N306 C308 1.375 . S
N306 C309 1.313 . S
C307 C308 1.338 . S
C307 N310 1.377 . S
C307 H327 0.930 . S
C308 N306 1.375 . S
C308 C307 1.338 . S
C308 H312 0.931 . S
C309 N306 1.313 . S
C309 N310 1.344 . S
C309 H313 0.930 . S
N310 C307 1.377 . S
N310 C309 1.344 . S
O311 Co303 2.055 . S
O311 C315 1.253 . S
H312 C308 0.931 . S
H313 C309 0.930 . S
O314 Co303 2.039 . S
O314 C304 1.265 . S
C315 O311 1.253 . S
C315 O316 1.227 . S
O316 C315 1.227 . S
N317 Co303 2.140 . S
N317 C320 1.346 . S
N317 C321 1.345 . S
C318 C319 1.387 . S
C318 C322 1.391 . S
C319 C318 1.387 . S
C319 C320 1.369 . S
C319 H328 0.929 . S
C320 N317 1.346 . S
C320 C319 1.369 . S
C320 H323 0.928 . S
C321 N317 1.345 . S
C321 C322 1.371 . S
C321 H324 0.931 . S
C322 C318 1.391 . S
C322 C321 1.371 . S
C322 H329 0.930 . S
H323 C320 0.928 . S
H324 C321 0.931 . S
H325 C301 0.930 . S
H326 C298 0.930 . S
H327 C307 0.930 . S
H328 C319 0.929 . S
H329 C322 0.930 . S
C330 C331 1.351 . S
C330 N333 1.368 . S
C330 H335 0.931 . S
C331 C330 1.351 . S
C331 N332 1.373 . S
C331 H359 0.930 . S
N332 C331 1.373 . S
N332 C334 1.340 . S
N333 C330 1.368 . S
N333 C334 1.321 . S
N333 Co336 2.135 . S
C334 N332 1.340 . S
C334 N333 1.321 . S
C334 H358 0.930 . S
H335 C330 0.931 . S
Co336 N333 2.135 . S
Co336 N339 2.121 . S
Co336 O344 2.055 . S
Co336 O347 2.039 . S
Co336 N350 2.140 . S
C337 O338 1.227 . S
C337 O347 1.265 . S
O338 C337 1.227 . S
N339 Co336 2.121 . S
N339 C341 1.375 . S
N339 C342 1.313 . S
C340 C341 1.338 . S
C340 N343 1.377 . S
C340 H360 0.930 . S
C341 N339 1.375 . S
C341 C340 1.338 . S
C341 H345 0.931 . S
C342 N339 1.313 . S
C342 N343 1.344 . S
C342 H346 0.930 . S
N343 C340 1.377 . S
N343 C342 1.344 . S
O344 Co336 2.055 . S
O344 C348 1.253 . S
H345 C341 0.931 . S
H346 C342 0.930 . S
O347 Co336 2.039 . S
O347 C337 1.265 . S
C348 O344 1.253 . S
C348 O349 1.227 . S
O349 C348 1.227 . S
N350 Co336 2.140 . S
N350 C353 1.346 . S
N350 C354 1.345 . S
C351 C352 1.387 . S
C351 C355 1.391 . S
C352 C351 1.387 . S
C352 C353 1.369 . S
C352 H361 0.929 . S
C353 N350 1.346 . S
C353 C352 1.369 . S
C353 H356 0.928 . S
C354 N350 1.345 . S
C354 C355 1.371 . S
C354 H357 0.931 . S
C355 C351 1.391 . S
C355 C354 1.371 . S
C355 H362 0.930 . S
H356 C353 0.928 . S
H357 C354 0.931 . S
H358 C334 0.930 . S
H359 C331 0.930 . S
H360 C340 0.930 . S
H361 C352 0.929 . S
H362 C355 0.930 . S
C363 C364 1.351 . S
C363 N366 1.368 . S
C363 H368 0.931 . S
C364 C363 1.351 . S
C364 N365 1.373 . S
C364 H392 0.930 . S
N365 C364 1.373 . S
N365 C367 1.340 . S
N366 C363 1.368 . S
N366 C367 1.321 . S
N366 Co369 2.135 . S
C367 N365 1.340 . S
C367 N366 1.321 . S
C367 H391 0.930 . S
H368 C363 0.931 . S
Co369 N366 2.135 . S
Co369 N372 2.121 . S
Co369 O377 2.055 . S
Co369 O380 2.039 . S
Co369 N383 2.140 . S
C370 O371 1.227 . S
C370 O380 1.265 . S
O371 C370 1.227 . S
N372 Co369 2.121 . S
N372 C374 1.375 . S
N372 C375 1.313 . S
C373 C374 1.338 . S
C373 N376 1.377 . S
C373 H393 0.930 . S
C374 N372 1.375 . S
C374 C373 1.338 . S
C374 H378 0.931 . S
C375 N372 1.313 . S
C375 N376 1.344 . S
C375 H379 0.930 . S
N376 C373 1.377 . S
N376 C375 1.344 . S
O377 Co369 2.055 . S
O377 C381 1.253 . S
H378 C374 0.931 . S
H379 C375 0.930 . S
O380 Co369 2.039 . S
O380 C370 1.265 . S
C381 O377 1.253 . S
C381 O382 1.227 . S
O382 C381 1.227 . S
N383 Co369 2.140 . S
N383 C386 1.346 . S
N383 C387 1.345 . S
C384 C385 1.387 . S
C384 C388 1.391 . S
C385 C384 1.387 . S
C385 C386 1.369 . S
C385 H394 0.929 . S
C386 N383 1.346 . S
C386 C385 1.369 . S
C386 H389 0.928 . S
C387 N383 1.345 . S
C387 C388 1.371 . S
C387 H390 0.931 . S
C388 C384 1.391 . S
C388 C387 1.371 . S
C388 H395 0.930 . S
H389 C386 0.928 . S
H390 C387 0.931 . S
H391 C367 0.930 . S
H392 C364 0.930 . S
H393 C373 0.930 . S
H394 C385 0.929 . S
H395 C388 0.930 . S
C396 C397 1.351 . S
C396 N399 1.368 . S
C396 H401 0.931 . S
C397 C396 1.351 . S
C397 N398 1.373 . S
C397 H425 0.930 . S
N398 C397 1.373 . S
N398 C400 1.340 . S
N399 C396 1.368 . S
N399 C400 1.321 . S
N399 Co402 2.135 . S
C400 N398 1.340 . S
C400 N399 1.321 . S
C400 H424 0.930 . S
H401 C396 0.931 . S
Co402 N399 2.135 . S
Co402 N405 2.121 . S
Co402 O410 2.055 . S
Co402 O413 2.039 . S
Co402 N416 2.140 . S
C403 O404 1.227 . S
C403 O413 1.265 . S
O404 C403 1.227 . S
N405 Co402 2.121 . S
N405 C407 1.375 . S
N405 C408 1.313 . S
C406 C407 1.338 . S
C406 N409 1.377 . S
C406 H426 0.930 . S
C407 N405 1.375 . S
C407 C406 1.338 . S
C407 H411 0.931 . S
C408 N405 1.313 . S
C408 N409 1.344 . S
C408 H412 0.930 . S
N409 C406 1.377 . S
N409 C408 1.344 . S
O410 Co402 2.055 . S
O410 C414 1.253 . S
H411 C407 0.931 . S
H412 C408 0.930 . S
O413 Co402 2.039 . S
O413 C403 1.265 . S
C414 O410 1.253 . S
C414 O415 1.227 . S
O415 C414 1.227 . S
N416 Co402 2.140 . S
N416 C419 1.346 . S
N416 C420 1.345 . S
C417 C418 1.387 . S
C417 C421 1.391 . S
C418 C417 1.387 . S
C418 C419 1.369 . S
C418 H427 0.929 . S
C419 N416 1.346 . S
C419 C418 1.369 . S
C419 H422 0.928 . S
C420 N416 1.345 . S
C420 C421 1.371 . S
C420 H423 0.931 . S
C421 C417 1.391 . S
C421 C420 1.371 . S
C421 H428 0.930 . S
H422 C419 0.928 . S
H423 C420 0.931 . S
H424 C400 0.930 . S
H425 C397 0.930 . S
H426 C406 0.930 . S
H427 C418 0.929 . S
H428 C421 0.930 . S
C429 C430 1.351 . S
C429 N432 1.368 . S
C429 H434 0.931 . S
C430 C429 1.351 . S
C430 N431 1.373 . S
C430 H458 0.930 . S
N431 C430 1.373 . S
N431 C433 1.340 . S
N432 C429 1.368 . S
N432 C433 1.321 . S
N432 Co435 2.135 . S
C433 N431 1.340 . S
C433 N432 1.321 . S
C433 H457 0.930 . S
H434 C429 0.931 . S
Co435 N432 2.135 . S
Co435 N438 2.121 . S
Co435 O443 2.055 . S
Co435 O446 2.039 . S
Co435 N449 2.140 . S
C436 O437 1.227 . S
C436 O446 1.265 . S
O437 C436 1.227 . S
N438 Co435 2.121 . S
N438 C440 1.375 . S
N438 C441 1.313 . S
C439 C440 1.338 . S
C439 N442 1.377 . S
C439 H459 0.930 . S
C440 N438 1.375 . S
C440 C439 1.338 . S
C440 H444 0.931 . S
C441 N438 1.313 . S
C441 N442 1.344 . S
C441 H445 0.930 . S
N442 C439 1.377 . S
N442 C441 1.344 . S
O443 Co435 2.055 . S
O443 C447 1.253 . S
H444 C440 0.931 . S
H445 C441 0.930 . S
O446 Co435 2.039 . S
O446 C436 1.265 . S
C447 O443 1.253 . S
C447 O448 1.227 . S
O448 C447 1.227 . S
N449 Co435 2.140 . S
N449 C452 1.346 . S
N449 C453 1.345 . S
C450 C451 1.387 . S
C450 C454 1.391 . S
C451 C450 1.387 . S
C451 C452 1.369 . S
C451 H460 0.929 . S
C452 N449 1.346 . S
C452 C451 1.369 . S
C452 H455 0.928 . S
C453 N449 1.345 . S
C453 C454 1.371 . S
C453 H456 0.931 . S
C454 C450 1.391 . S
C454 C453 1.371 . S
C454 H461 0.930 . S
H455 C452 0.928 . S
H456 C453 0.931 . S
H457 C433 0.930 . S
H458 C430 0.930 . S
H459 C439 0.930 . S
H460 C451 0.929 . S
H461 C454 0.930 . S
C462 C463 1.351 . S
C462 N465 1.368 . S
C462 H467 0.931 . S
C463 C462 1.351 . S
C463 N464 1.373 . S
C463 H491 0.930 . S
N464 C463 1.373 . S
N464 C466 1.340 . S
N465 C462 1.368 . S
N465 C466 1.321 . S
N465 Co468 2.135 . S
C466 N464 1.340 . S
C466 N465 1.321 . S
C466 H490 0.930 . S
H467 C462 0.931 . S
Co468 N465 2.135 . S
Co468 N471 2.121 . S
Co468 O476 2.055 . S
Co468 O479 2.039 . S
Co468 N482 2.140 . S
C469 O470 1.227 . S
C469 O479 1.265 . S
O470 C469 1.227 . S
N471 Co468 2.121 . S
N471 C473 1.375 . S
N471 C474 1.313 . S
C472 C473 1.338 . S
C472 N475 1.377 . S
C472 H492 0.930 . S
C473 N471 1.375 . S
C473 C472 1.338 . S
C473 H477 0.931 . S
C474 N471 1.313 . S
C474 N475 1.344 . S
C474 H478 0.930 . S
N475 C472 1.377 . S
N475 C474 1.344 . S
O476 Co468 2.055 . S
O476 C480 1.253 . S
H477 C473 0.931 . S
H478 C474 0.930 . S
O479 Co468 2.039 . S
O479 C469 1.265 . S
C480 O476 1.253 . S
C480 O481 1.227 . S
O481 C480 1.227 . S
N482 Co468 2.140 . S
N482 C485 1.346 . S
N482 C486 1.345 . S
C483 C484 1.387 . S
C483 C487 1.391 . S
C484 C483 1.387 . S
C484 C485 1.369 . S
C484 H493 0.929 . S
C485 N482 1.346 . S
C485 C484 1.369 . S
C485 H488 0.928 . S
C486 N482 1.345 . S
C486 C487 1.371 . S
C486 H489 0.931 . S
C487 C483 1.391 . S
C487 C486 1.371 . S
C487 H494 0.930 . S
H488 C485 0.928 . S
H489 C486 0.931 . S
H490 C466 0.930 . S
H491 C463 0.930 . S
H492 C472 0.930 . S
H493 C484 0.929 . S
H494 C487 0.930 . S
C495 C496 1.351 . S
C495 N498 1.368 . S
C495 H500 0.931 . S
C496 C495 1.351 . S
C496 N497 1.373 . S
C496 H524 0.930 . S
N497 C496 1.373 . S
N497 C499 1.340 . S
N498 C495 1.368 . S
N498 C499 1.321 . S
N498 Co501 2.135 . S
C499 N497 1.340 . S
C499 N498 1.321 . S
C499 H523 0.930 . S
H500 C495 0.931 . S
Co501 N498 2.135 . S
Co501 N504 2.121 . S
Co501 O509 2.055 . S
Co501 O512 2.039 . S
Co501 N515 2.140 . S
C502 O503 1.227 . S
C502 O512 1.265 . S
O503 C502 1.227 . S
N504 Co501 2.121 . S
N504 C506 1.375 . S
N504 C507 1.313 . S
C505 C506 1.338 . S
C505 N508 1.377 . S
C505 H525 0.930 . S
C506 N504 1.375 . S
C506 C505 1.338 . S
C506 H510 0.931 . S
C507 N504 1.313 . S
C507 N508 1.344 . S
C507 H511 0.930 . S
N508 C505 1.377 . S
N508 C507 1.344 . S
O509 Co501 2.055 . S
O509 C513 1.253 . S
H510 C506 0.931 . S
H511 C507 0.930 . S
O512 Co501 2.039 . S
O512 C502 1.265 . S
C513 O509 1.253 . S
C513 O514 1.227 . S
O514 C513 1.227 . S
N515 Co501 2.140 . S
N515 C518 1.346 . S
N515 C519 1.345 . S
C516 C517 1.387 . S
C516 C520 1.391 . S
C517 C516 1.387 . S
C517 C518 1.369 . S
C517 H526 0.929 . S
C518 N515 1.346 . S
C518 C517 1.369 . S
C518 H521 0.928 . S
C519 N515 1.345 . S
C519 C520 1.371 . S
C519 H522 0.931 . S
C520 C516 1.391 . S
C520 C519 1.371 . S
C520 H527 0.930 . S
H521 C518 0.928 . S
H522 C519 0.931 . S
H523 C499 0.930 . S
H524 C496 0.930 . S
H525 C505 0.930 . S
H526 C517 0.929 . S
H527 C520 0.930 . S
H528 C536 0.945 1_545 S
H529 C541 0.950 . S
H530 C538 0.950 . S
H531 C540 0.950 . S
H532 C542 0.950 . S
H533 C544 0.950 . S
H534 C546 0.950 . S
H535 C547 0.950 . S
C536 H528 0.945 1_565 S
C536 C537 1.384 1_565 S
C536 C538 1.397 . S
C537 C536 1.384 1_545 S
C537 C541 1.393 1_545 S
C538 H530 0.950 . S
C538 C536 1.397 . S
C538 C539 1.400 . S
C539 C538 1.400 . S
C539 C540 1.398 . S
C539 C545 1.491 . S
C540 H531 0.950 . S
C540 C539 1.398 . S
C540 C541 1.391 . S
C541 H529 0.950 . S
C541 C537 1.393 1_565 S
C541 C540 1.391 . S
C542 H532 0.950 . S
C542 C543 1.386 . S
C542 C544 1.391 . S
C543 C542 1.386 . S
C543 C547 1.393 . S
C544 H533 0.950 . S
C544 C542 1.391 . S
C544 C545 1.400 . S
C545 C539 1.491 . S
C545 C544 1.400 . S
C545 C546 1.398 . S
C546 H534 0.950 . S
C546 C545 1.398 . S
C546 C547 1.391 . S
C547 H535 0.950 . S
C547 C543 1.393 . S
C547 C546 1.391 . S
H548 C556 0.950 . S
H549 C561 0.950 . S
H550 C558 0.950 . S
H551 C560 0.950 . S
H552 C562 0.950 . S
H553 C564 0.950 . S
H554 C566 0.950 . S
H555 C567 0.950 . S
C556 H548 0.950 . S
C556 C557 1.386 . S
C556 C558 1.391 . S
C557 C556 1.386 . S
C557 C561 1.393 . S
C558 H550 0.950 . S
C558 C556 1.391 . S
C558 C559 1.400 . S
C559 C558 1.400 . S
C559 C560 1.398 . S
C559 C565 1.491 . S
C560 H551 0.950 . S
C560 C559 1.398 . S
C560 C561 1.391 . S
C561 H549 0.950 . S
C561 C557 1.393 . S
C561 C560 1.391 . S
C562 H552 0.950 . S
C562 C563 1.386 . S
C562 C564 1.391 . S
C563 C562 1.386 . S
C563 C567 1.393 . S
C564 H553 0.950 . S
C564 C562 1.391 . S
C564 C565 1.400 . S
C565 C559 1.491 . S
C565 C564 1.400 . S
C565 C566 1.398 . S
C566 H554 0.950 . S
C566 C565 1.398 . S
C566 C567 1.391 . S
C567 H555 0.950 . S
C567 C563 1.393 . S
C567 C566 1.391 . S
H568 C576 0.950 . S
H569 C581 0.950 . S
H570 C578 0.950 . S
H571 C580 0.950 . S
H572 C582 0.950 . S
H573 C584 0.950 . S
H574 C586 0.950 . S
H575 C587 0.950 . S
C576 H568 0.950 . S
C576 C577 1.386 . S
C576 C578 1.391 1_565 S
C577 C576 1.386 . S
C577 C581 1.393 1_565 S
C578 H570 0.950 . S
C578 C576 1.391 1_545 S
C578 C579 1.400 . S
C579 C578 1.400 . S
C579 C580 1.398 . S
C579 C585 1.491 . S
C580 H571 0.950 . S
C580 C579 1.398 . S
C580 C581 1.391 . S
C581 H569 0.950 . S
C581 C577 1.393 1_545 S
C581 C580 1.391 . S
C582 H572 0.950 . S
C582 C583 1.386 . S
C582 C584 1.391 . S
C583 C582 1.386 . S
C583 C587 1.393 . S
C584 H573 0.950 . S
C584 C582 1.391 . S
C584 C585 1.400 . S
C585 C579 1.491 . S
C585 C584 1.400 . S
C585 C586 1.398 . S
C586 H574 0.950 . S
C586 C585 1.398 . S
C586 C587 1.391 . S
C587 H575 0.950 . S
C587 C583 1.393 . S
C587 C586 1.391 . S
H588 C596 0.950 . S
H589 C601 0.950 . S
H590 C598 0.950 . S
H591 C600 0.950 . S
H592 C602 0.950 . S
H593 C604 0.950 . S
H594 C606 0.950 . S
H595 C607 0.950 . S
C596 H588 0.950 . S
C596 C597 1.386 . S
C596 C598 1.391 . S
C597 C596 1.386 . S
C597 C601 1.393 . S
C598 H590 0.950 . S
C598 C596 1.391 . S
C598 C599 1.400 . S
C599 C598 1.400 . S
C599 C600 1.398 . S
C599 C605 1.491 . S
C600 H591 0.950 . S
C600 C599 1.398 . S
C600 C601 1.391 . S
C601 H589 0.950 . S
C601 C597 1.393 . S
C601 C600 1.391 . S
C602 H592 0.950 . S
C602 C603 1.386 . S
C602 C604 1.391 . S
C603 C602 1.386 . S
C603 C607 1.393 . S
C604 H593 0.950 . S
C604 C602 1.391 . S
C604 C605 1.400 . S
C605 C599 1.491 . S
C605 C604 1.400 . S
C605 C606 1.398 . S
C606 H594 0.950 . S
C606 C605 1.398 . S
C606 C607 1.391 . S
C607 H595 0.950 . S
C607 C603 1.393 . S
C607 C606 1.391 . S
H608 C616 0.950 . S
H609 C621 0.950 . S
H610 C618 0.950 . S
H611 C620 0.950 . S
H612 C622 0.950 . S
H613 C624 0.950 . S
H614 C626 0.950 . S
H615 C627 0.950 . S
C616 H608 0.950 . S
C616 C617 1.386 1_545 S
C616 C618 1.391 . S
C617 C616 1.386 1_565 S
C617 C621 1.393 . S
C618 H610 0.950 . S
C618 C616 1.391 . S
C618 C619 1.400 . S
C619 C618 1.400 . S
C619 C620 1.398 . S
C619 C625 1.491 . S
C620 H611 0.950 . S
C620 C619 1.398 . S
C620 C621 1.391 1_545 S
C621 H609 0.950 . S
C621 C617 1.393 . S
C621 C620 1.391 1_565 S
C622 H612 0.950 . S
C622 C623 1.386 . S
C622 C624 1.391 . S
C623 C622 1.386 . S
C623 C627 1.393 . S
C624 H613 0.950 . S
C624 C622 1.391 . S
C624 C625 1.400 . S
C625 C619 1.491 . S
C625 C624 1.400 . S
C625 C626 1.398 . S
C626 H614 0.950 . S
C626 C625 1.398 . S
C626 C627 1.391 . S
C627 H615 0.950 . S
C627 C623 1.393 . S
C627 C626 1.391 . S
H628 C636 0.950 . S
H629 C641 0.950 . S
H630 C638 0.950 . S
H631 C640 0.950 . S
H632 C642 0.950 . S
H633 C644 0.950 . S
H634 C646 0.950 . S
H635 C647 0.950 . S
C636 H628 0.950 . S
C636 C637 1.386 . S
C636 C638 1.391 . S
C637 C636 1.386 . S
C637 C641 1.393 . S
C638 H630 0.950 . S
C638 C636 1.391 . S
C638 C639 1.400 . S
C639 C638 1.400 . S
C639 C640 1.398 . S
C639 C645 1.491 . S
C640 H631 0.950 . S
C640 C639 1.398 . S
C640 C641 1.391 . S
C641 H629 0.950 . S
C641 C637 1.393 . S
C641 C640 1.391 . S
C642 H632 0.950 . S
C642 C643 1.386 . S
C642 C644 1.391 . S
C643 C642 1.386 . S
C643 C647 1.393 . S
C644 H633 0.950 . S
C644 C642 1.391 . S
C644 C645 1.400 . S
C645 C639 1.491 . S
C645 C644 1.400 . S
C645 C646 1.398 . S
C646 H634 0.950 . S
C646 C645 1.398 . S
C646 C647 1.391 . S
C647 H635 0.950 . S
C647 C643 1.393 . S
C647 C646 1.391 . S
H648 C656 0.950 . S
H649 C661 0.950 . S
H650 C658 0.950 . S
H651 C660 0.950 . S
H652 C662 0.950 . S
H653 C664 0.950 . S
H654 C666 0.950 . S
H655 C667 0.950 . S
C656 H648 0.950 . S
C656 C657 1.386 1_565 S
C656 C658 1.391 . S
C657 C656 1.386 1_545 S
C657 C661 1.393 . S
C658 H650 0.950 . S
C658 C656 1.391 . S
C658 C659 1.400 . S
C659 C658 1.400 . S
C659 C660 1.398 . S
C659 C665 1.491 . S
C660 H651 0.950 . S
C660 C659 1.398 . S
C660 C661 1.391 1_565 S
C661 H649 0.950 . S
C661 C657 1.393 . S
C661 C660 1.391 1_545 S
C662 H652 0.950 . S
C662 C663 1.386 . S
C662 C664 1.391 . S
C663 C662 1.386 . S
C663 C667 1.393 . S
C664 H653 0.950 . S
C664 C662 1.391 . S
C664 C665 1.400 . S
C665 C659 1.491 . S
C665 C664 1.400 . S
C665 C666 1.398 . S
C666 H654 0.950 . S
C666 C665 1.398 . S
C666 C667 1.391 . S
C667 H655 0.950 . S
C667 C663 1.393 . S
C667 C666 1.391 . S
H668 C676 0.950 . S
H669 C681 0.950 . S
H670 C678 0.950 . S
H671 C680 0.950 . S
H672 C682 0.950 . S
H673 C684 0.950 . S
H674 C686 0.950 . S
H675 C687 0.950 . S
C676 H668 0.950 . S
C676 C677 1.386 . S
C676 C678 1.391 . S
C677 C676 1.386 . S
C677 C681 1.393 . S
C678 H670 0.950 . S
C678 C676 1.391 . S
C678 C679 1.400 . S
C679 C678 1.400 . S
C679 C680 1.398 . S
C679 C685 1.491 . S
C680 H671 0.950 . S
C680 C679 1.398 . S
C680 C681 1.391 . S
C681 H669 0.950 . S
C681 C677 1.393 . S
C681 C680 1.391 . S
C682 H672 0.950 . S
C682 C683 1.386 . S
C682 C684 1.391 . S
C683 C682 1.386 . S
C683 C687 1.393 . S
C684 H673 0.950 . S
C684 C682 1.391 . S
C684 C685 1.400 . S
C685 C679 1.491 . S
C685 C684 1.400 . S
C685 C686 1.398 . S
C686 H674 0.950 . S
C686 C685 1.398 . S
C686 C687 1.391 . S
C687 H675 0.950 . S
C687 C683 1.393 . S
C687 C686 1.391 . S
H688 C696 0.950 . S
H689 C701 0.950 . S
H690 C698 0.950 . S
H691 C700 0.950 . S
H692 C702 0.950 . S
H693 C704 0.950 . S
H694 C706 0.950 . S
H695 C707 0.950 . S
C696 H688 0.950 . S
C696 C697 1.386 . S
C696 C698 1.391 . S
C697 C696 1.386 . S
C697 C701 1.393 . S
C698 H690 0.950 . S
C698 C696 1.391 . S
C698 C699 1.400 . S
C699 C698 1.400 . S
C699 C700 1.398 . S
C699 C705 1.491 . S
C700 H691 0.950 . S
C700 C699 1.398 . S
C700 C701 1.391 . S
C701 H689 0.950 . S
C701 C697 1.393 . S
C701 C700 1.391 . S
C702 H692 0.950 . S
C702 C703 1.386 . S
C702 C704 1.391 . S
C703 C702 1.386 . S
C703 C707 1.393 . S
C704 H693 0.950 . S
C704 C702 1.391 . S
C704 C705 1.400 . S
C705 C699 1.491 . S
C705 C704 1.400 . S
C705 C706 1.398 . S
C706 H694 0.950 . S
C706 C705 1.398 . S
C706 C707 1.391 . S
C707 H695 0.950 . S
C707 C703 1.393 . S
C707 C706 1.391 . S
H708 C716 0.950 . S
H709 C721 0.950 . S
H710 C718 0.950 . S
H711 C720 0.950 . S
H712 C722 0.950 . S
H713 C724 0.950 . S
H714 C726 0.950 . S
H715 C727 0.950 . S
C716 H708 0.950 . S
C716 C717 1.386 . S
C716 C718 1.391 . S
C717 C716 1.386 . S
C717 C721 1.393 . S
C718 H710 0.950 . S
C718 C716 1.391 . S
C718 C719 1.400 . S
C719 C718 1.400 . S
C719 C720 1.398 . S
C719 C725 1.491 . S
C720 H711 0.950 . S
C720 C719 1.398 . S
C720 C721 1.391 . S
C721 H709 0.950 . S
C721 C717 1.393 . S
C721 C720 1.391 . S
C722 H712 0.950 . S
C722 C723 1.386 . S
C722 C724 1.391 1_565 S
C723 C722 1.386 . S
C723 C727 1.393 1_565 S
C724 H713 0.950 . S
C724 C722 1.391 1_545 S
C724 C725 1.400 . S
C725 C719 1.491 . S
C725 C724 1.400 . S
C725 C726 1.398 . S
C726 H714 0.950 . S
C726 C725 1.398 . S
C726 C727 1.391 . S
C727 H715 0.950 . S
C727 C723 1.393 1_545 S
C727 C726 1.391 . S
H728 C736 0.950 . S
H729 C741 0.950 . S
H730 C738 0.950 . S
H731 C740 0.950 . S
H732 C742 0.950 . S
H733 C744 0.950 . S
H734 C746 0.950 . S
H735 C747 0.950 . S
C736 H728 0.950 . S
C736 C737 1.386 . S
C736 C738 1.391 . S
C737 C736 1.386 . S
C737 C741 1.393 . S
C738 H730 0.950 . S
C738 C736 1.391 . S
C738 C739 1.400 . S
C739 C738 1.400 . S
C739 C740 1.398 . S
C739 C745 1.491 . S
C740 H731 0.950 . S
C740 C739 1.398 . S
C740 C741 1.391 . S
C741 H729 0.950 . S
C741 C737 1.393 . S
C741 C740 1.391 . S
C742 H732 0.950 . S
C742 C743 1.386 . S
C742 C744 1.391 . S
C743 C742 1.386 . S
C743 C747 1.393 . S
C744 H733 0.950 . S
C744 C742 1.391 . S
C744 C745 1.400 . S
C745 C739 1.491 . S
C745 C744 1.400 . S
C745 C746 1.398 . S
C746 H734 0.950 . S
C746 C745 1.398 . S
C746 C747 1.391 . S
C747 H735 0.950 . S
C747 C743 1.393 . S
C747 C746 1.391 . S
H748 C756 0.950 1_545 S
H749 C761 0.950 . S
H750 C758 0.950 . S
H751 C760 0.950 . S
H752 C762 0.950 . S
H753 C764 0.950 . S
H754 C766 0.950 . S
H755 C767 0.950 . S
C756 H748 0.950 1_565 S
C756 C757 1.386 1_565 S
C756 C758 1.391 . S
C757 C756 1.386 1_545 S
C757 C761 1.393 1_545 S
C758 H750 0.950 . S
C758 C756 1.391 . S
C758 C759 1.400 . S
C759 C758 1.400 . S
C759 C760 1.398 . S
C759 C765 1.491 . S
C760 H751 0.950 . S
C760 C759 1.398 . S
C760 C761 1.391 . S
C761 H749 0.950 . S
C761 C757 1.393 1_565 S
C761 C760 1.391 . S
C762 H752 0.950 . S
C762 C763 1.386 . S
C762 C764 1.391 . S
C763 C762 1.386 . S
C763 C767 1.393 . S
C764 H753 0.950 . S
C764 C762 1.391 . S
C764 C765 1.400 . S
C765 C759 1.491 . S
C765 C764 1.400 . S
C765 C766 1.398 . S
C766 H754 0.950 . S
C766 C765 1.398 . S
C766 C767 1.391 . S
C767 H755 0.950 . S
C767 C763 1.393 . S
C767 C766 1.391 . S
H768 C776 0.950 . S
H769 C781 0.950 . S
H770 C778 0.950 . S
H771 C780 0.950 . S
H772 C782 0.950 . S
H773 C784 0.950 . S
H774 C786 0.950 . S
H775 C787 0.950 . S
C776 H768 0.950 . S
C776 C777 1.386 . S
C776 C778 1.391 . S
C777 C776 1.386 . S
C777 C781 1.393 . S
C778 H770 0.950 . S
C778 C776 1.391 . S
C778 C779 1.400 . S
C779 C778 1.400 . S
C779 C780 1.398 . S
C779 C785 1.491 . S
C780 H771 0.950 . S
C780 C779 1.398 . S
C780 C781 1.391 . S
C781 H769 0.950 . S
C781 C777 1.393 . S
C781 C780 1.391 . S
C782 H772 0.950 . S
C782 C783 1.386 . S
C782 C784 1.391 . S
C783 C782 1.386 . S
C783 C787 1.393 . S
C784 H773 0.950 . S
C784 C782 1.391 . S
C784 C785 1.400 . S
C785 C779 1.491 . S
C785 C784 1.400 . S
C785 C786 1.398 . S
C786 H774 0.950 . S
C786 C785 1.398 . S
C786 C787 1.391 . S
C787 H775 0.950 . S
C787 C783 1.393 . S
C787 C786 1.391 . S
H788 C796 0.950 . S
H789 C801 0.950 . S
H790 C798 0.950 . S
H791 C800 0.950 . S
H792 C802 0.950 . S
H793 C804 0.950 . S
H794 C806 0.950 . S
H795 C807 0.950 . S
C796 H788 0.950 . S
C796 C797 1.386 . S
C796 C798 1.391 1_545 S
C797 C796 1.386 . S
C797 C801 1.393 1_545 S
C798 H790 0.950 . S
C798 C796 1.391 1_565 S
C798 C799 1.400 . S
C799 C798 1.400 . S
C799 C800 1.398 . S
C799 C805 1.491 . S
C800 H791 0.950 . S
C800 C799 1.398 . S
C800 C801 1.391 . S
C801 H789 0.950 . S
C801 C797 1.393 1_565 S
C801 C800 1.391 . S
C802 H792 0.950 . S
C802 C803 1.386 . S
C802 C804 1.391 . S
C803 C802 1.386 . S
C803 C807 1.393 . S
C804 H793 0.950 . S
C804 C802 1.391 . S
C804 C805 1.400 . S
C805 C799 1.491 . S
C805 C804 1.400 . S
C805 C806 1.398 . S
C806 H794 0.950 . S
C806 C805 1.398 . S
C806 C807 1.391 . S
C807 H795 0.950 . S
C807 C803 1.393 . S
C807 C806 1.391 . S
H808 C816 0.950 . S
H809 C821 0.950 . S
H810 C818 0.950 . S
H811 C820 0.950 . S
H812 C822 0.950 . S
H813 C824 0.950 . S
H814 C826 0.950 . S
H815 C827 0.950 . S
C816 H808 0.950 . S
C816 C817 1.386 . S
C816 C818 1.391 . S
C817 C816 1.386 . S
C817 C821 1.393 . S
C818 H810 0.950 . S
C818 C816 1.391 . S
C818 C819 1.400 . S
C819 C818 1.400 . S
C819 C820 1.398 . S
C819 C825 1.491 . S
C820 H811 0.950 . S
C820 C819 1.398 . S
C820 C821 1.391 . S
C821 H809 0.950 . S
C821 C817 1.393 . S
C821 C820 1.391 . S
C822 H812 0.950 . S
C822 C823 1.386 . S
C822 C824 1.391 . S
C823 C822 1.386 . S
C823 C827 1.393 . S
C824 H813 0.950 . S
C824 C822 1.391 . S
C824 C825 1.400 . S
C825 C819 1.491 . S
C825 C824 1.400 . S
C825 C826 1.398 . S
C826 H814 0.950 . S
C826 C825 1.398 . S
C826 C827 1.391 . S
C827 H815 0.950 . S
C827 C823 1.393 . S
C827 C826 1.391 . S
H828 C836 0.950 . S
H829 C841 0.950 . S
H830 C838 0.950 . S
H831 C840 0.950 . S
H832 C842 0.950 1_565 S
H833 C844 0.950 . S
H834 C846 0.950 . S
H835 C847 0.945 1_565 S
C836 H828 0.950 . S
C836 C837 1.386 . S
C836 C838 1.391 . S
C837 C836 1.386 . S
C837 C841 1.393 . S
C838 H830 0.950 . S
C838 C836 1.391 . S
C838 C839 1.400 . S
C839 C838 1.400 . S
C839 C840 1.398 . S
C839 C845 1.491 . S
C840 H831 0.950 . S
C840 C839 1.398 . S
C840 C841 1.391 . S
C841 H829 0.950 . S
C841 C837 1.393 . S
C841 C840 1.391 . S
C842 H832 0.950 1_545 S
C842 C843 1.386 1_545 S
C842 C844 1.391 . S
C843 C842 1.386 1_565 S
C843 C847 1.393 1_565 S
C844 H833 0.950 . S
C844 C842 1.391 . S
C844 C845 1.400 . S
C845 C839 1.491 . S
C845 C844 1.400 . S
C845 C846 1.398 . S
C846 H834 0.950 . S
C846 C845 1.398 . S
C846 C847 1.391 . S
C847 H835 0.945 1_545 S
C847 C843 1.393 1_545 S
C847 C846 1.391 . S
H848 C856 0.950 . S
H849 C861 0.950 . S
H850 C858 0.950 . S
H851 C860 0.950 . S
H852 C862 0.950 . S
H853 C864 0.950 . S
H854 C866 0.950 . S
H855 C867 0.950 . S
C856 H848 0.950 . S
C856 C857 1.386 . S
C856 C858 1.391 . S
C857 C856 1.386 . S
C857 C861 1.393 . S
C858 H850 0.950 . S
C858 C856 1.391 . S
C858 C859 1.400 . S
C859 C858 1.400 . S
C859 C860 1.398 . S
C859 C865 1.491 1_554 S
C860 H851 0.950 . S
C860 C859 1.398 . S
C860 C861 1.391 . S
C861 H849 0.950 . S
C861 C857 1.393 . S
C861 C860 1.391 . S
C862 H852 0.950 . S
C862 C863 1.386 . S
C862 C864 1.391 . S
C863 C862 1.386 . S
C863 C867 1.393 . S
C864 H853 0.950 . S
C864 C862 1.391 . S
C864 C865 1.400 . S
C865 C859 1.491 1_556 S
C865 C864 1.400 . S
C865 C866 1.398 . S
C866 H854 0.950 . S
C866 C865 1.398 . S
C866 C867 1.391 . S
C867 H855 0.950 . S
C867 C863 1.393 . S
C867 C866 1.391 . S
H868 C876 0.950 . S
H869 C881 0.950 . S
H870 C878 0.996 . S
H871 C880 0.950 . S
H872 C882 0.950 . S
H873 C884 0.996 . S
H874 C886 0.950 . S
H875 C887 0.950 . S
C876 H868 0.950 . S
C876 C877 1.386 . S
C876 C878 1.391 . S
C877 C876 1.386 . S
C877 C881 1.393 . S
C878 H870 0.996 . S
C878 C876 1.391 . S
C878 C879 1.400 . S
C879 C878 1.400 . S
C879 C880 1.398 . S
C879 C885 1.491 1_556 S
C880 H871 0.950 . S
C880 C879 1.398 . S
C880 C881 1.391 . S
C881 H869 0.950 . S
C881 C877 1.393 . S
C881 C880 1.391 . S
C882 H872 0.950 . S
C882 C883 1.386 . S
C882 C884 1.391 . S
C883 C882 1.386 . S
C883 C887 1.393 . S
C884 H873 0.996 . S
C884 C882 1.391 . S
C884 C885 1.400 . S
C885 C879 1.491 1_554 S
C885 C884 1.400 . S
C885 C886 1.398 . S
C886 H874 0.950 . S
C886 C885 1.398 . S
C886 C887 1.391 . S
C887 H875 0.950 . S
C887 C883 1.393 . S
C887 C886 1.391 . S
H888 C896 0.950 . S
H889 C901 0.950 . S
H890 C898 0.950 . S
H891 C900 0.950 . S
H892 C902 0.950 . S
H893 C904 0.950 . S
H894 C906 0.950 . S
H895 C907 0.950 . S
C896 H888 0.950 . S
C896 C897 1.386 . S
C896 C898 1.391 . S
C897 C896 1.386 . S
C897 C901 1.393 . S
C898 H890 0.950 . S
C898 C896 1.391 . S
C898 C899 1.400 . S
C899 C898 1.400 . S
C899 C900 1.398 . S
C899 C905 1.491 . S
C900 H891 0.950 . S
C900 C899 1.398 . S
C900 C901 1.391 . S
C901 H889 0.950 . S
C901 C897 1.393 . S
C901 C900 1.391 . S
C902 H892 0.950 . S
C902 C903 1.386 . S
C902 C904 1.391 . S
C903 C902 1.386 . S
C903 C907 1.393 . S
C904 H893 0.950 . S
C904 C902 1.391 . S
C904 C905 1.400 . S
C905 C899 1.491 . S
C905 C904 1.400 . S
C905 C906 1.398 . S
C906 H894 0.950 . S
C906 C905 1.398 . S
C906 C907 1.391 . S
C907 H895 0.950 . S
C907 C903 1.393 . S
C907 C906 1.391 . S
H908 C916 0.950 . S
H909 C921 0.950 . S
H910 C918 0.950 . S
H911 C920 0.950 . S
H912 C922 0.950 . S
H913 C924 0.950 . S
H914 C926 0.950 . S
H915 C927 0.950 . S
C916 H908 0.950 . S
C916 C917 1.386 . S
C916 C918 1.391 . S
C917 C916 1.386 . S
C917 C921 1.393 . S
C918 H910 0.950 . S
C918 C916 1.391 . S
C918 C919 1.400 . S
C919 C918 1.400 . S
C919 C920 1.398 . S
C919 C925 1.491 . S
C920 H911 0.950 . S
C920 C919 1.398 . S
C920 C921 1.391 . S
C921 H909 0.950 . S
C921 C917 1.393 . S
C921 C920 1.391 . S
C922 H912 0.950 . S
C922 C923 1.386 . S
C922 C924 1.391 . S
C923 C922 1.386 . S
C923 C927 1.393 . S
C924 H913 0.950 . S
C924 C922 1.391 . S
C924 C925 1.400 . S
C925 C919 1.491 . S
C925 C924 1.400 . S
C925 C926 1.398 . S
C926 H914 0.950 . S
C926 C925 1.398 . S
C926 C927 1.391 . S
C927 H915 0.950 . S
C927 C923 1.393 . S
C927 C926 1.391 . S
H928 C936 0.950 . S
H929 C941 0.950 . S
H930 C938 0.951 . S
H931 C940 0.950 . S
H932 C942 0.950 . S
H933 C944 0.951 . S
H934 C946 0.950 . S
H935 C947 0.950 . S
C936 H928 0.950 . S
C936 C937 1.386 . S
C936 C938 1.391 . S
C937 C936 1.386 . S
C937 C941 1.393 . S
C938 H930 0.951 . S
C938 C936 1.391 . S
C938 C939 1.400 . S
C939 C938 1.400 . S
C939 C940 1.398 . S
C939 C945 1.491 1_556 S
C940 H931 0.950 . S
C940 C939 1.398 . S
C940 C941 1.391 . S
C941 H929 0.950 . S
C941 C937 1.393 . S
C941 C940 1.391 . S
C942 H932 0.950 . S
C942 C943 1.386 . S
C942 C944 1.391 . S
C943 C942 1.386 . S
C943 C947 1.393 . S
C944 H933 0.951 . S
C944 C942 1.391 . S
C944 C945 1.400 . S
C945 C939 1.491 1_554 S
C945 C944 1.400 . S
C945 C946 1.398 . S
C946 H934 0.950 . S
C946 C945 1.398 . S
C946 C947 1.391 . S
C947 H935 0.950 . S
C947 C943 1.393 . S
C947 C946 1.391 . S
H948 C956 0.950 . S
H949 C961 0.950 . S
H950 C958 0.950 . S
H951 C960 0.950 . S
H952 C962 0.950 . S
H953 C964 0.950 . S
H954 C966 0.950 . S
H955 C967 0.950 . S
C956 H948 0.950 . S
C956 C957 1.386 . S
C956 C958 1.391 . S
C957 C956 1.386 . S
C957 C961 1.393 . S
C958 H950 0.950 . S
C958 C956 1.391 . S
C958 C959 1.400 . S
C959 C958 1.400 . S
C959 C960 1.398 . S
C959 C965 1.491 1_554 S
C960 H951 0.950 . S
C960 C959 1.398 . S
C960 C961 1.391 . S
C961 H949 0.950 . S
C961 C957 1.393 . S
C961 C960 1.391 . S
C962 H952 0.950 . S
C962 C963 1.386 . S
C962 C964 1.391 . S
C963 C962 1.386 . S
C963 C967 1.393 . S
C964 H953 0.950 . S
C964 C962 1.391 . S
C964 C965 1.400 . S
C965 C959 1.491 1_556 S
C965 C964 1.400 . S
C965 C966 1.398 . S
C966 H954 0.950 . S
C966 C965 1.398 . S
C966 C967 1.391 . S
C967 H955 0.950 . S
C967 C963 1.393 . S
C967 C966 1.391 . S
H968 C976 0.950 . S
H969 C981 0.950 . S
H970 C978 0.950 . S
H971 C980 0.950 . S
H972 C982 0.950 . S
H973 C984 0.950 . S
H974 C986 0.950 . S
H975 C987 0.950 . S
C976 H968 0.950 . S
C976 C977 1.386 . S
C976 C978 1.391 . S
C977 C976 1.386 . S
C977 C981 1.393 . S
C978 H970 0.950 . S
C978 C976 1.391 . S
C978 C979 1.400 . S
C979 C978 1.400 . S
C979 C980 1.398 . S
C979 C985 1.491 . S
C980 H971 0.950 . S
C980 C979 1.398 . S
C980 C981 1.391 . S
C981 H969 0.950 . S
C981 C977 1.393 . S
C981 C980 1.391 . S
C982 H972 0.950 . S
C982 C983 1.386 . S
C982 C984 1.391 . S
C983 C982 1.386 . S
C983 C987 1.393 . S
C984 H973 0.950 . S
C984 C982 1.391 . S
C984 C985 1.400 . S
C985 C979 1.491 . S
C985 C984 1.400 . S
C985 C986 1.398 . S
C986 H974 0.950 . S
C986 C985 1.398 . S
C986 C987 1.391 . S
C987 H975 0.950 . S
C987 C983 1.393 . S
C987 C986 1.391 . S
H988 C996 0.950 . S
H989 C1001 0.950 . S
H990 C998 0.950 . S
H991 C1000 0.950 . S
H992 C1002 0.950 . S
H993 C1004 0.950 . S
H994 C1006 0.950 . S
H995 C1007 0.950 . S
C996 H988 0.950 . S
C996 C997 1.386 . S
C996 C998 1.391 . S
C997 C996 1.386 . S
C997 C1001 1.393 . S
C998 H990 0.950 . S
C998 C996 1.391 . S
C998 C999 1.400 . S
C999 C998 1.400 . S
C999 C1000 1.398 . S
C999 C1005 1.491 . S
C1000 H991 0.950 . S
C1000 C999 1.398 . S
C1000 C1001 1.391 . S
C1001 H989 0.950 . S
C1001 C997 1.393 . S
C1001 C1000 1.391 . S
C1002 H992 0.950 . S
C1002 C1003 1.386 . S
C1002 C1004 1.391 . S
C1003 C1002 1.386 . S
C1003 C1007 1.393 . S
C1004 H993 0.950 . S
C1004 C1002 1.391 . S
C1004 C1005 1.400 . S
C1005 C999 1.491 . S
C1005 C1004 1.400 . S
C1005 C1006 1.398 . S
C1006 H994 0.950 . S
C1006 C1005 1.398 . S
C1006 C1007 1.391 . S
C1007 H995 0.950 . S
C1007 C1003 1.393 . S
C1007 C1006 1.391 . S
H1008 C1016 0.950 . S
H1009 C1021 0.950 . S
H1010 C1018 0.950 . S
H1011 C1020 0.950 . S
H1012 C1022 0.950 . S
H1013 C1024 0.950 . S
H1014 C1026 0.950 . S
H1015 C1027 0.950 . S
C1016 H1008 0.950 . S
C1016 C1017 1.386 . S
C1016 C1018 1.391 1_545 S
C1017 C1016 1.386 . S
C1017 C1021 1.393 . S
C1018 H1010 0.950 . S
C1018 C1016 1.391 1_565 S
C1018 C1019 1.400 1_565 S
C1019 C1018 1.400 1_545 S
C1019 C1020 1.398 . S
C1019 C1025 1.491 1_545 S
C1020 H1011 0.950 . S
C1020 C1019 1.398 . S
C1020 C1021 1.391 . S
C1021 H1009 0.950 . S
C1021 C1017 1.393 . S
C1021 C1020 1.391 . S
C1022 H1012 0.950 . S
C1022 C1023 1.386 . S
C1022 C1024 1.391 1_565 S
C1023 C1022 1.386 . S
C1023 C1027 1.393 . S
C1024 H1013 0.950 . S
C1024 C1022 1.391 1_545 S
C1024 C1025 1.400 1_545 S
C1025 C1019 1.491 1_565 S
C1025 C1024 1.400 1_565 S
C1025 C1026 1.398 . S
C1026 H1014 0.950 . S
C1026 C1025 1.398 . S
C1026 C1027 1.391 . S
C1027 H1015 0.950 . S
C1027 C1023 1.393 . S
C1027 C1026 1.391 . S
H1028 C1036 0.950 . S
H1029 C1041 0.950 . S
H1030 C1038 0.950 . S
H1031 C1040 0.950 . S
H1032 C1042 0.950 . S
H1033 C1044 0.950 . S
H1034 C1046 0.950 . S
H1035 C1047 0.950 . S
C1036 H1028 0.950 . S
C1036 C1037 1.386 . S
C1036 C1038 1.391 . S
C1037 C1036 1.386 . S
C1037 C1041 1.393 . S
C1038 H1030 0.950 . S
C1038 C1036 1.391 . S
C1038 C1039 1.400 . S
C1039 C1038 1.400 . S
C1039 C1040 1.398 . S
C1039 C1045 1.491 . S
C1040 H1031 0.950 . S
C1040 C1039 1.398 . S
C1040 C1041 1.391 . S
C1041 H1029 0.950 . S
C1041 C1037 1.393 . S
C1041 C1040 1.391 . S
C1042 H1032 0.950 . S
C1042 C1043 1.386 . S
C1042 C1044 1.391 . S
C1043 C1042 1.386 . S
C1043 C1047 1.393 . S
C1044 H1033 0.950 . S
C1044 C1042 1.391 . S
C1044 C1045 1.400 . S
C1045 C1039 1.491 . S
C1045 C1044 1.400 . S
C1045 C1046 1.398 . S
C1046 H1034 0.950 . S
C1046 C1045 1.398 . S
C1046 C1047 1.391 . S
C1047 H1035 0.950 . S
C1047 C1043 1.393 . S
C1047 C1046 1.391 . S
H1048 C1056 0.950 . S
H1049 C1061 0.950 . S
H1050 C1058 0.950 1_545 S
H1051 C1060 0.950 . S
H1052 C1062 0.950 . S
H1053 C1064 0.950 1_565 S
H1054 C1066 0.950 . S
H1055 C1067 0.950 . S
C1056 H1048 0.950 . S
C1056 C1057 1.386 . S
C1056 C1058 1.391 . S
C1057 C1056 1.386 . S
C1057 C1061 1.393 . S
C1058 H1050 0.950 1_565 S
C1058 C1056 1.391 . S
C1058 C1059 1.400 . S
C1059 C1058 1.400 . S
C1059 C1060 1.398 . S
C1059 C1065 1.491 1_565 S
C1060 H1051 0.950 . S
C1060 C1059 1.398 . S
C1060 C1061 1.391 . S
C1061 H1049 0.950 . S
C1061 C1057 1.393 . S
C1061 C1060 1.391 . S
C1062 H1052 0.950 . S
C1062 C1063 1.386 . S
C1062 C1064 1.391 . S
C1063 C1062 1.386 . S
C1063 C1067 1.393 . S
C1064 H1053 0.950 1_545 S
C1064 C1062 1.391 . S
C1064 C1065 1.400 . S
C1065 C1059 1.491 1_545 S
C1065 C1064 1.400 . S
C1065 C1066 1.398 . S
C1066 H1054 0.950 . S
C1066 C1065 1.398 . S
C1066 C1067 1.391 . S
C1067 H1055 0.950 . S
C1067 C1063 1.393 . S
C1067 C1066 1.391 . S
H1068 C1076 0.950 . S
H1069 C1081 0.950 . S
H1070 C1078 0.950 . S
H1071 C1080 0.950 . S
H1072 C1082 0.950 . S
H1073 C1084 0.950 . S
H1074 C1086 0.950 . S
H1075 C1087 0.950 . S
C1076 H1068 0.950 . S
C1076 C1077 1.386 . S
C1076 C1078 1.391 . S
C1077 C1076 1.386 . S
C1077 C1081 1.393 . S
C1078 H1070 0.950 . S
C1078 C1076 1.391 . S
C1078 C1079 1.400 . S
C1079 C1078 1.400 . S
C1079 C1080 1.398 . S
C1079 C1085 1.491 . S
C1080 H1071 0.950 . S
C1080 C1079 1.398 . S
C1080 C1081 1.391 . S
C1081 H1069 0.950 . S
C1081 C1077 1.393 . S
C1081 C1080 1.391 . S
C1082 H1072 0.950 . S
C1082 C1083 1.386 . S
C1082 C1084 1.391 . S
C1083 C1082 1.386 . S
C1083 C1087 1.393 . S
C1084 H1073 0.950 . S
C1084 C1082 1.391 . S
C1084 C1085 1.400 . S
C1085 C1079 1.491 . S
C1085 C1084 1.400 . S
C1085 C1086 1.398 . S
C1086 H1074 0.950 . S
C1086 C1085 1.398 . S
C1086 C1087 1.391 . S
C1087 H1075 0.950 . S
C1087 C1083 1.393 . S
C1087 C1086 1.391 . S
H1088 C1096 0.950 . S
H1089 C1101 0.950 . S
H1090 C1098 0.950 . S
H1091 C1100 0.950 . S
H1092 C1102 0.950 . S
H1093 C1104 0.950 . S
H1094 C1106 0.950 . S
H1095 C1107 0.950 . S
C1096 H1088 0.950 . S
C1096 C1097 1.386 . S
C1096 C1098 1.391 . S
C1097 C1096 1.386 . S
C1097 C1101 1.393 . S
C1098 H1090 0.950 . S
C1098 C1096 1.391 . S
C1098 C1099 1.400 . S
C1099 C1098 1.400 . S
C1099 C1100 1.398 . S
C1099 C1105 1.491 . S
C1100 H1091 0.950 . S
C1100 C1099 1.398 . S
C1100 C1101 1.391 . S
C1101 H1089 0.950 . S
C1101 C1097 1.393 . S
C1101 C1100 1.391 . S
C1102 H1092 0.950 . S
C1102 C1103 1.386 . S
C1102 C1104 1.391 . S
C1103 C1102 1.386 . S
C1103 C1107 1.393 . S
C1104 H1093 0.950 . S
C1104 C1102 1.391 . S
C1104 C1105 1.400 . S
C1105 C1099 1.491 . S
C1105 C1104 1.400 . S
C1105 C1106 1.398 . S
C1106 H1094 0.950 . S
C1106 C1105 1.398 . S
C1106 C1107 1.391 . S
C1107 H1095 0.950 . S
C1107 C1103 1.393 . S
C1107 C1106 1.391 . S
H1108 C1116 0.950 . S
H1109 C1121 0.950 . S
H1110 C1118 0.950 . S
H1111 C1120 0.950 . S
H1112 C1122 0.950 . S
H1113 C1124 0.950 . S
H1114 C1126 0.950 . S
H1115 C1127 0.950 . S
C1116 H1108 0.950 . S
C1116 C1117 1.386 . S
C1116 C1118 1.391 . S
C1117 C1116 1.386 . S
C1117 C1121 1.393 . S
C1118 H1110 0.950 . S
C1118 C1116 1.391 . S
C1118 C1119 1.400 . S
C1119 C1118 1.400 . S
C1119 C1120 1.398 . S
C1119 C1125 1.491 1_545 S
C1120 H1111 0.950 . S
C1120 C1119 1.398 . S
C1120 C1121 1.391 . S
C1121 H1109 0.950 . S
C1121 C1117 1.393 . S
C1121 C1120 1.391 . S
C1122 H1112 0.950 . S
C1122 C1123 1.386 . S
C1122 C1124 1.391 . S
C1123 C1122 1.386 . S
C1123 C1127 1.393 . S
C1124 H1113 0.950 . S
C1124 C1122 1.391 . S
C1124 C1125 1.400 . S
C1125 C1119 1.491 1_565 S
C1125 C1124 1.400 . S
C1125 C1126 1.398 . S
C1126 H1114 0.950 . S
C1126 C1125 1.398 . S
C1126 C1127 1.391 . S
C1127 H1115 0.950 . S
C1127 C1123 1.393 . S
C1127 C1126 1.391 . S
H1128 C1136 0.950 . S
H1129 C1141 0.950 . S
H1130 C1138 0.950 . S
H1131 C1140 0.950 . S
H1132 C1142 0.950 . S
H1133 C1144 0.950 . S
H1134 C1146 0.950 . S
H1135 C1147 0.950 . S
C1136 H1128 0.950 . S
C1136 C1137 1.386 . S
C1136 C1138 1.391 . S
C1137 C1136 1.386 . S
C1137 C1141 1.393 . S
C1138 H1130 0.950 . S
C1138 C1136 1.391 . S
C1138 C1139 1.400 . S
C1139 C1138 1.400 . S
C1139 C1140 1.398 . S
C1139 C1145 1.491 . S
C1140 H1131 0.950 . S
C1140 C1139 1.398 . S
C1140 C1141 1.391 . S
C1141 H1129 0.950 . S
C1141 C1137 1.393 . S
C1141 C1140 1.391 . S
C1142 H1132 0.950 . S
C1142 C1143 1.386 . S
C1142 C1144 1.391 . S
C1143 C1142 1.386 . S
C1143 C1147 1.393 . S
C1144 H1133 0.950 . S
C1144 C1142 1.391 . S
C1144 C1145 1.400 . S
C1145 C1139 1.491 . S
C1145 C1144 1.400 . S
C1145 C1146 1.398 . S
C1146 H1134 0.950 . S
C1146 C1145 1.398 . S
C1146 C1147 1.391 . S
C1147 H1135 0.950 . S
C1147 C1143 1.393 . S
C1147 C1146 1.391 . S
H1148 C1156 0.950 . S
H1149 C1161 0.950 . S
H1150 C1158 0.950 1_565 S
H1151 C1160 0.950 . S
H1152 C1162 0.950 . S
H1153 C1164 0.950 1_545 S
H1154 C1166 0.950 . S
H1155 C1167 0.950 . S
C1156 H1148 0.950 . S
C1156 C1157 1.386 . S
C1156 C1158 1.391 . S
C1157 C1156 1.386 . S
C1157 C1161 1.393 . S
C1158 H1150 0.950 1_545 S
C1158 C1156 1.391 . S
C1158 C1159 1.400 . S
C1159 C1158 1.400 . S
C1159 C1160 1.398 . S
C1159 C1165 1.491 1_545 S
C1160 H1151 0.950 . S
C1160 C1159 1.398 . S
C1160 C1161 1.391 . S
C1161 H1149 0.950 . S
C1161 C1157 1.393 . S
C1161 C1160 1.391 . S
C1162 H1152 0.950 . S
C1162 C1163 1.386 . S
C1162 C1164 1.391 . S
C1163 C1162 1.386 . S
C1163 C1167 1.393 . S
C1164 H1153 0.950 1_565 S
C1164 C1162 1.391 . S
C1164 C1165 1.400 . S
C1165 C1159 1.491 1_565 S
C1165 C1164 1.400 . S
C1165 C1166 1.398 . S
C1166 H1154 0.950 . S
C1166 C1165 1.398 . S
C1166 C1167 1.391 . S
C1167 H1155 0.950 . S
C1167 C1163 1.393 . S
C1167 C1166 1.391 . S
H1168 C1176 0.950 . S
H1169 C1181 0.950 . S
H1170 C1178 0.950 . S
H1171 C1180 0.950 . S
H1172 C1182 0.950 . S
H1173 C1184 0.950 . S
H1174 C1186 0.950 . S
H1175 C1187 0.950 . S
C1176 H1168 0.950 . S
C1176 C1177 1.386 . S
C1176 C1178 1.391 . S
C1177 C1176 1.386 . S
C1177 C1181 1.393 . S
C1178 H1170 0.950 . S
C1178 C1176 1.391 . S
C1178 C1179 1.400 . S
C1179 C1178 1.400 . S
C1179 C1180 1.398 . S
C1179 C1185 1.491 . S
C1180 H1171 0.950 . S
C1180 C1179 1.398 . S
C1180 C1181 1.391 . S
C1181 H1169 0.950 . S
C1181 C1177 1.393 . S
C1181 C1180 1.391 . S
C1182 H1172 0.950 . S
C1182 C1183 1.386 . S
C1182 C1184 1.391 . S
C1183 C1182 1.386 . S
C1183 C1187 1.393 . S
C1184 H1173 0.950 . S
C1184 C1182 1.391 . S
C1184 C1185 1.400 . S
C1185 C1179 1.491 . S
C1185 C1184 1.400 . S
C1185 C1186 1.398 . S
C1186 H1174 0.950 . S
C1186 C1185 1.398 . S
C1186 C1187 1.391 . S
C1187 H1175 0.950 . S
C1187 C1183 1.393 . S
C1187 C1186 1.391 . S
H1188 C1196 0.950 . S
H1189 C1201 0.950 . S
H1190 C1198 0.950 . S
H1191 C1200 0.950 . S
H1192 C1202 0.950 . S
H1193 C1204 0.950 . S
H1194 C1206 0.950 . S
H1195 C1207 0.950 . S
C1196 H1188 0.950 . S
C1196 C1197 1.386 . S
C1196 C1198 1.391 . S
C1197 C1196 1.386 . S
C1197 C1201 1.393 . S
C1198 H1190 0.950 . S
C1198 C1196 1.391 . S
C1198 C1199 1.400 . S
C1199 C1198 1.400 . S
C1199 C1200 1.398 . S
C1199 C1205 1.491 . S
C1200 H1191 0.950 . S
C1200 C1199 1.398 . S
C1200 C1201 1.391 . S
C1201 H1189 0.950 . S
C1201 C1197 1.393 . S
C1201 C1200 1.391 . S
C1202 H1192 0.950 . S
C1202 C1203 1.386 . S
C1202 C1204 1.391 . S
C1203 C1202 1.386 . S
C1203 C1207 1.393 . S
C1204 H1193 0.950 . S
C1204 C1202 1.391 . S
C1204 C1205 1.400 . S
C1205 C1199 1.491 . S
C1205 C1204 1.400 . S
C1205 C1206 1.398 . S
C1206 H1194 0.950 . S
C1206 C1205 1.398 . S
C1206 C1207 1.391 . S
C1207 H1195 0.950 . S
C1207 C1203 1.393 . S
C1207 C1206 1.391 . S
H1208 C1216 0.950 . S
H1209 C1221 0.950 . S
H1210 C1218 0.950 . S
H1211 C1220 0.950 . S
H1212 C1222 0.950 . S
H1213 C1224 0.950 . S
H1214 C1226 0.950 . S
H1215 C1227 0.950 . S
C1216 H1208 0.950 . S
C1216 C1217 1.386 . S
C1216 C1218 1.391 . S
C1217 C1216 1.386 . S
C1217 C1221 1.393 . S
C1218 H1210 0.950 . S
C1218 C1216 1.391 . S
C1218 C1219 1.400 . S
C1219 C1218 1.400 . S
C1219 C1220 1.398 . S
C1219 C1225 1.491 . S
C1220 H1211 0.950 . S
C1220 C1219 1.398 . S
C1220 C1221 1.391 . S
C1221 H1209 0.950 . S
C1221 C1217 1.393 . S
C1221 C1220 1.391 . S
C1222 H1212 0.950 . S
C1222 C1223 1.386 . S
C1222 C1224 1.391 . S
C1223 C1222 1.386 . S
C1223 C1227 1.393 . S
C1224 H1213 0.950 . S
C1224 C1222 1.391 . S
C1224 C1225 1.400 . S
C1225 C1219 1.491 . S
C1225 C1224 1.400 . S
C1225 C1226 1.398 . S
C1226 H1214 0.950 . S
C1226 C1225 1.398 . S
C1226 C1227 1.391 . S
C1227 H1215 0.950 . S
C1227 C1223 1.393 . S
C1227 C1226 1.391 . S
H1228 C1236 0.950 . S
H1229 C1241 0.950 . S
H1230 C1238 0.950 . S
H1231 C1240 0.950 . S
H1232 C1242 0.950 . S
H1233 C1244 0.950 . S
H1234 C1246 0.950 . S
H1235 C1247 0.950 . S
C1236 H1228 0.950 . S
C1236 C1237 1.386 . S
C1236 C1238 1.391 . S
C1237 C1236 1.386 . S
C1237 C1241 1.393 . S
C1238 H1230 0.950 . S
C1238 C1236 1.391 . S
C1238 C1239 1.400 . S
C1239 C1238 1.400 . S
C1239 C1240 1.398 . S
C1239 C1245 1.491 . S
C1240 H1231 0.950 . S
C1240 C1239 1.398 . S
C1240 C1241 1.391 . S
C1241 H1229 0.950 . S
C1241 C1237 1.393 . S
C1241 C1240 1.391 . S
C1242 H1232 0.950 . S
C1242 C1243 1.386 . S
C1242 C1244 1.391 . S
C1243 C1242 1.386 . S
C1243 C1247 1.393 . S
C1244 H1233 0.950 . S
C1244 C1242 1.391 . S
C1244 C1245 1.400 . S
C1245 C1239 1.491 . S
C1245 C1244 1.400 . S
C1245 C1246 1.398 . S
C1246 H1234 0.950 . S
C1246 C1245 1.398 . S
C1246 C1247 1.391 . S
C1247 H1235 0.950 . S
C1247 C1243 1.393 . S
C1247 C1246 1.391 . S
H1248 C1256 0.950 . S
H1249 C1261 0.950 . S
H1250 C1258 0.950 . S
H1251 C1260 0.950 . S
H1252 C1262 0.950 . S
H1253 C1264 0.950 . S
H1254 C1266 0.950 . S
H1255 C1267 0.950 . S
C1256 H1248 0.950 . S
C1256 C1257 1.386 . S
C1256 C1258 1.391 . S
C1257 C1256 1.386 . S
C1257 C1261 1.393 . S
C1258 H1250 0.950 . S
C1258 C1256 1.391 . S
C1258 C1259 1.400 . S
C1259 C1258 1.400 . S
C1259 C1260 1.398 . S
C1259 C1265 1.491 1_655 S
C1260 H1251 0.950 . S
C1260 C1259 1.398 . S
C1260 C1261 1.391 . S
C1261 H1249 0.950 . S
C1261 C1257 1.393 . S
C1261 C1260 1.391 . S
C1262 H1252 0.950 . S
C1262 C1263 1.386 . S
C1262 C1264 1.391 . S
C1263 C1262 1.386 . S
C1263 C1267 1.393 . S
C1264 H1253 0.950 . S
C1264 C1262 1.391 . S
C1264 C1265 1.400 . S
C1265 C1259 1.491 1_455 S
C1265 C1264 1.400 . S
C1265 C1266 1.398 . S
C1266 H1254 0.950 . S
C1266 C1265 1.398 . S
C1266 C1267 1.391 . S
C1267 H1255 0.950 . S
C1267 C1263 1.393 . S
C1267 C1266 1.391 . S
H1268 C1276 0.950 . S
H1269 C1281 0.950 . S
H1270 C1278 0.950 . S
H1271 C1280 0.950 . S
H1272 C1282 0.950 . S
H1273 C1284 0.950 . S
H1274 C1286 0.950 . S
H1275 C1287 0.950 . S
C1276 H1268 0.950 . S
C1276 C1277 1.386 . S
C1276 C1278 1.391 . S
C1277 C1276 1.386 . S
C1277 C1281 1.393 . S
C1278 H1270 0.950 . S
C1278 C1276 1.391 . S
C1278 C1279 1.400 . S
C1279 C1278 1.400 . S
C1279 C1280 1.398 . S
C1279 C1285 1.491 1_455 S
C1280 H1271 0.950 . S
C1280 C1279 1.398 . S
C1280 C1281 1.391 . S
C1281 H1269 0.950 . S
C1281 C1277 1.393 . S
C1281 C1280 1.391 . S
C1282 H1272 0.950 . S
C1282 C1283 1.386 . S
C1282 C1284 1.391 . S
C1283 C1282 1.386 . S
C1283 C1287 1.393 . S
C1284 H1273 0.950 . S
C1284 C1282 1.391 . S
C1284 C1285 1.400 . S
C1285 C1279 1.491 1_655 S
C1285 C1284 1.400 . S
C1285 C1286 1.398 . S
C1286 H1274 0.950 . S
C1286 C1285 1.398 . S
C1286 C1287 1.391 . S
C1287 H1275 0.950 . S
C1287 C1283 1.393 . S
C1287 C1286 1.391 . S
H1288 C1296 0.950 . S
H1289 C1301 0.950 . S
H1290 C1298 0.950 . S
H1291 C1300 0.950 . S
H1292 C1302 0.950 . S
H1293 C1304 0.950 . S
H1294 C1306 0.950 . S
H1295 C1307 0.950 . S
C1296 H1288 0.950 . S
C1296 C1297 1.386 . S
C1296 C1298 1.391 . S
C1297 C1296 1.386 . S
C1297 C1301 1.393 . S
C1298 H1290 0.950 . S
C1298 C1296 1.391 . S
C1298 C1299 1.400 . S
C1299 C1298 1.400 . S
C1299 C1300 1.398 . S
C1299 C1305 1.491 1_455 S
C1300 H1291 0.950 . S
C1300 C1299 1.398 . S
C1300 C1301 1.391 . S
C1301 H1289 0.950 . S
C1301 C1297 1.393 . S
C1301 C1300 1.391 . S
C1302 H1292 0.950 . S
C1302 C1303 1.386 . S
C1302 C1304 1.391 . S
C1303 C1302 1.386 . S
C1303 C1307 1.393 . S
C1304 H1293 0.950 . S
C1304 C1302 1.391 . S
C1304 C1305 1.400 . S
C1305 C1299 1.491 1_655 S
C1305 C1304 1.400 . S
C1305 C1306 1.398 . S
C1306 H1294 0.950 . S
C1306 C1305 1.398 . S
C1306 C1307 1.391 . S
C1307 H1295 0.950 . S
C1307 C1303 1.393 . S
C1307 C1306 1.391 . S
H1308 C1316 0.950 . S
H1309 C1321 0.950 . S
H1310 C1318 0.954 . S
H1311 C1320 0.950 . S
H1312 C1322 0.950 . S
H1313 C1324 0.953 . S
H1314 C1326 0.950 . S
H1315 C1327 0.950 . S
C1316 H1308 0.950 . S
C1316 C1317 1.386 . S
C1316 C1318 1.391 . S
C1317 C1316 1.386 . S
C1317 C1321 1.393 . S
C1318 H1310 0.954 . S
C1318 C1316 1.391 . S
C1318 C1319 1.400 . S
C1319 C1318 1.400 . S
C1319 C1320 1.398 . S
C1319 C1325 1.491 1_655 S
C1320 H1311 0.950 . S
C1320 C1319 1.398 . S
C1320 C1321 1.391 . S
C1321 H1309 0.950 . S
C1321 C1317 1.393 . S
C1321 C1320 1.391 . S
C1322 H1312 0.950 . S
C1322 C1323 1.386 . S
C1322 C1324 1.391 . S
C1323 C1322 1.386 . S
C1323 C1327 1.393 . S
C1324 H1313 0.953 . S
C1324 C1322 1.391 . S
C1324 C1325 1.400 . S
C1325 C1319 1.491 1_455 S
C1325 C1324 1.400 . S
C1325 C1326 1.398 . S
C1326 H1314 0.950 . S
C1326 C1325 1.398 . S
C1326 C1327 1.391 . S
C1327 H1315 0.950 . S
C1327 C1323 1.393 . S
C1327 C1326 1.391 . S
C537 C18 0.753 . S
C543 C469 0.753 . S
C557 C51 0.749 . S
C563 C502 0.745 . S
C577 C84 0.754 . S
C583 C403 0.759 . S
C597 C436 0.761 . S
C603 C117 0.751 . S
C617 C150 0.753 . S
C623 C337 0.769 . S
C637 C183 0.754 . S
C643 C370 0.764 . S
C657 C216 0.753 . S
C663 C271 0.770 . S
C677 C304 0.733 . S
C683 C249 0.750 . S
C697 C282 0.753 . S
C703 C205 0.753 . S
C717 C238 0.733 . S
C723 C315 0.750 . S
C737 C348 0.754 . S
C743 C139 0.759 . S
C757 C381 0.752 . S
C763 C172 0.745 . S
C777 C414 0.753 . S
C783 C73 0.755 . S
C797 C447 0.749 . S
C803 C106 0.733 . S
C817 C7 0.757 . S
C823 C480 0.750 . S
C837 C40 0.738 . S
C843 C513 0.751 . S
C857 N2 1.675 . S
C863 N365 1.691 . S
C877 N332 1.667 . S
C883 N35 1.692 . S
C897 N68 1.664 . S
C903 N299 1.688 . S
C917 N266 1.668 . S
C923 N101 1.676 . S
C937 N134 1.691 . S
C943 N497 1.665 . S
C957 N464 1.685 . S
C963 N167 1.685 . S
C977 N200 1.678 . S
C983 N431 1.667 . S
C997 N233 1.667 . S
C1003 N398 1.677 . S
C1017 N13 1.836 . S
C1023 N79 1.834 . S
C1037 N46 1.834 . S
C1043 N112 1.834 . S
C1057 N145 1.834 . S
C1063 N211 1.835 . S
C1077 N244 1.834 . S
C1083 N178 1.835 . S
C1097 N343 1.834 . S
C1103 N277 1.836 . S
C1117 N376 1.835 . S
C1123 N310 1.835 . S
C1137 N409 1.836 . S
C1143 N475 1.834 . S
C1157 N442 1.834 . S
C1163 N508 1.836 . S
C1177 C54 1.572 . S
C1183 C21 1.569 . S
C1197 C87 1.569 . S
C1203 C120 1.571 . S
C1217 C153 1.569 . S
C1223 C186 1.572 . S
C1237 C252 1.572 . S
C1243 C219 1.577 . S
C1257 C285 1.569 . S
C1263 C318 1.571 . S
C1277 C384 1.572 . S
C1283 C351 1.569 . S
C1297 C417 1.570 . S
C1303 C450 1.569 . S
C1317 C516 1.572 . S
C1323 C483 1.576 . S
