# Generated by pormake.
# Topology unl, (4)-cn, num edge types: 1
# Building blocks:
#     Node 0, Type 0, BuildingBlock: CEKHIL_clean_sbu_0, # of connection points: 4
#     Node 1, Type 0, BuildingBlock: CEKHIL_clean_sbu_0, # of connection points: 4
#     Node 2, Type 0, BuildingBlock: CEKHIL_clean_sbu_0, # of connection points: 4
#     Node 3, Type 0, BuildingBlock: CEKHIL_clean_sbu_0, # of connection points: 4
#     Node 4, Type 0, BuildingBlock: CEKHIL_clean_sbu_0, # of connection points: 4
#     Node 5, Type 0, BuildingBlock: CEKHIL_clean_sbu_0, # of connection points: 4
#     Node 6, Type 0, BuildingBlock: CEKHIL_clean_sbu_0, # of connection points: 4
#     Node 7, Type 0, BuildingBlock: CEKHIL_clean_sbu_0, # of connection points: 4
#     Node 8, Type 0, BuildingBlock: CEKHIL_clean_sbu_0, # of connection points: 4
#     Node 9, Type 0, BuildingBlock: CEKHIL_clean_sbu_0, # of connection points: 4
#     Node 10, Type 0, BuildingBlock: CEKHIL_clean_sbu_0, # of connection points: 4
#     Node 11, Type 0, BuildingBlock: CEKHIL_clean_sbu_0, # of connection points: 4
#     Node 12, Type 0, BuildingBlock: CEKHIL_clean_sbu_0, # of connection points: 4
#     Node 13, Type 0, BuildingBlock: CEKHIL_clean_sbu_0, # of connection points: 4
#     Node 14, Type 0, BuildingBlock: CEKHIL_clean_sbu_0, # of connection points: 4
#     Node 15, Type 0, BuildingBlock: CEKHIL_clean_sbu_0, # of connection points: 4
#     Node 16, Type 0, BuildingBlock: CEKHIL_clean_sbu_0, # of connection points: 4
#     Node 17, Type 0, BuildingBlock: CEKHIL_clean_sbu_0, # of connection points: 4
#     Node 18, Type 0, BuildingBlock: CEKHIL_clean_sbu_0, # of connection points: 4
#     Node 19, Type 0, BuildingBlock: CEKHIL_clean_sbu_0, # of connection points: 4
#     Node 20, Type 0, BuildingBlock: CEKHIL_clean_sbu_0, # of connection points: 4
#     Node 21, Type 0, BuildingBlock: CEKHIL_clean_sbu_0, # of connection points: 4
#     Node 22, Type 0, BuildingBlock: CEKHIL_clean_sbu_0, # of connection points: 4
#     Node 23, Type 0, BuildingBlock: CEKHIL_clean_sbu_0, # of connection points: 4
#     Node 24, Type 0, BuildingBlock: CEKHIL_clean_sbu_0, # of connection points: 4
#     Node 25, Type 0, BuildingBlock: CEKHIL_clean_sbu_0, # of connection points: 4
#     Node 26, Type 0, BuildingBlock: CEKHIL_clean_sbu_0, # of connection points: 4
#     Node 27, Type 0, BuildingBlock: CEKHIL_clean_sbu_0, # of connection points: 4
#     Node 28, Type 0, BuildingBlock: CEKHIL_clean_sbu_0, # of connection points: 4
#     Node 29, Type 0, BuildingBlock: CEKHIL_clean_sbu_0, # of connection points: 4
#     Node 30, Type 0, BuildingBlock: CEKHIL_clean_sbu_0, # of connection points: 4
#     Node 31, Type 0, BuildingBlock: CEKHIL_clean_sbu_0, # of connection points: 4
#     Node 32, Type 0, BuildingBlock: CEKHIL_clean_sbu_0, # of connection points: 4
#     Node 33, Type 0, BuildingBlock: CEKHIL_clean_sbu_0, # of connection points: 4
#     Node 34, Type 0, BuildingBlock: CEKHIL_clean_sbu_0, # of connection points: 4
#     Node 35, Type 0, BuildingBlock: CEKHIL_clean_sbu_0, # of connection points: 4
#     Edge 36, Type (0, 0), None
#     Edge 37, Type (0, 0), None
#     Edge 38, Type (0, 0), None
#     Edge 39, Type (0, 0), None
#     Edge 40, Type (0, 0), None
#     Edge 41, Type (0, 0), None
#     Edge 42, Type (0, 0), None
#     Edge 43, Type (0, 0), None
#     Edge 44, Type (0, 0), None
#     Edge 45, Type (0, 0), None
#     Edge 46, Type (0, 0), None
#     Edge 47, Type (0, 0), None
#     Edge 48, Type (0, 0), None
#     Edge 49, Type (0, 0), None
#     Edge 50, Type (0, 0), None
#     Edge 51, Type (0, 0), None
#     Edge 52, Type (0, 0), None
#     Edge 53, Type (0, 0), None
#     Edge 54, Type (0, 0), None
#     Edge 55, Type (0, 0), None
#     Edge 56, Type (0, 0), None
#     Edge 57, Type (0, 0), None
#     Edge 58, Type (0, 0), None
#     Edge 59, Type (0, 0), None
#     Edge 60, Type (0, 0), None
#     Edge 61, Type (0, 0), None
#     Edge 62, Type (0, 0), None
#     Edge 63, Type (0, 0), None
#     Edge 64, Type (0, 0), None
#     Edge 65, Type (0, 0), None
#     Edge 66, Type (0, 0), None
#     Edge 67, Type (0, 0), None
#     Edge 68, Type (0, 0), None
#     Edge 69, Type (0, 0), None
#     Edge 70, Type (0, 0), None
#     Edge 71, Type (0, 0), None
#     Edge 72, Type (0, 0), None
#     Edge 73, Type (0, 0), None
#     Edge 74, Type (0, 0), None
#     Edge 75, Type (0, 0), None
#     Edge 76, Type (0, 0), None
#     Edge 77, Type (0, 0), None
#     Edge 78, Type (0, 0), None
#     Edge 79, Type (0, 0), None
#     Edge 80, Type (0, 0), None
#     Edge 81, Type (0, 0), None
#     Edge 82, Type (0, 0), None
#     Edge 83, Type (0, 0), None
#     Edge 84, Type (0, 0), None
#     Edge 85, Type (0, 0), None
#     Edge 86, Type (0, 0), None
#     Edge 87, Type (0, 0), None
#     Edge 88, Type (0, 0), None
#     Edge 89, Type (0, 0), None
#     Edge 90, Type (0, 0), None
#     Edge 91, Type (0, 0), None
#     Edge 92, Type (0, 0), None
#     Edge 93, Type (0, 0), None
#     Edge 94, Type (0, 0), None
#     Edge 95, Type (0, 0), None
#     Edge 96, Type (0, 0), None
#     Edge 97, Type (0, 0), None
#     Edge 98, Type (0, 0), None
#     Edge 99, Type (0, 0), None
#     Edge 100, Type (0, 0), None
#     Edge 101, Type (0, 0), None
#     Edge 102, Type (0, 0), None
#     Edge 103, Type (0, 0), None
#     Edge 104, Type (0, 0), None
#     Edge 105, Type (0, 0), None
#     Edge 106, Type (0, 0), None
#     Edge 107, Type (0, 0), None
# Relax obj value: 0.037
# Max RMSD: 0.121
# Mean RMSD: 0.120
data_MOF--net-unl--node1-CEKHIL_clean_sbu_0--edge1-none
_symmetry_space_group_name_H-M    P1
_symmetry_Int_Tables_number       1
_symmetry_cell_setting            triclinic
loop_
_symmetry_equiv_pos_as_xyz
'x, y, z'
_cell_length_a     27.433425
_cell_length_b     27.444326
_cell_length_c     19.508652
_cell_angle_alpha  90.000152
_cell_angle_beta   89.99623
_cell_angle_gamma 120.03929
loop_
_atom_site_label
_atom_site_type_symbol
_atom_site_fract_x
_atom_site_fract_y
_atom_site_fract_z
_atom_type_partial_charge
Co0 Co 0.26616 0.1587 0.06992 0.0
O1 O 0.31153 0.13878 0.12662 0.0
O2 O 0.34144 0.22265 0.08032 0.0
C3 C 0.23025 0.07956 0.00379 0.0
O4 O 0.23358 0.19506 0.00611 0.0
Co5 Co 0.13475 0.08044 0.05763 0.0
O6 O 0.14414 0.13022 -0.01986 0.0
C7 C 0.18594 0.15652 0.1781 0.0
C8 C 0.35275 0.18942 0.1158 0.0
C9 C 0.18745 0.17851 -0.0275 0.0
O10 O 0.23661 0.18064 0.15376 0.0
O11 O 0.1437 0.11493 0.1493 0.0
O12 O 0.2797 0.12215 -0.00967 0.0
O13 O 0.20676 0.08503 0.05779 0.0
Co14 Co 0.92123 0.12345 0.07007 0.0
O15 O 0.94114 0.18877 0.12673 0.0
O16 O 0.85726 0.13471 0.0804 0.0
C17 C 1.00041 0.16673 0.00399 0.0
O18 O 0.88488 0.05446 0.00626 0.0
Co19 Co 0.99952 0.07042 0.05785 0.0
O20 O 0.94972 1.0299 -0.01962 0.0
C21 C 0.92346 0.04556 0.17834 0.0
C22 C 0.8905 0.17931 0.11585 0.0
C23 C 0.90144 1.02489 -0.02731 0.0
O24 O 0.89926 0.07198 0.15394 0.0
O25 O 0.96508 0.045 0.14958 0.0
O26 O 0.95783 0.17354 -0.00952 0.0
O27 O 0.99491 0.13779 0.05801 0.0
Co28 Co 0.95645 0.81375 0.06994 0.0
O29 O 0.89114 0.76833 0.12668 0.0
O30 O 0.94515 0.73854 0.08026 0.0
C31 C 0.91316 0.84964 0.00393 0.0
O32 O 1.02541 0.84638 0.00609 0.0
Co33 Co 1.00963 0.94511 0.05766 0.0
O34 O 0.05004 0.93578 -0.01987 0.0
C35 C 1.03452 0.89393 0.1781 0.0
C36 C 0.9006 0.72717 0.1158 0.0
C37 C 0.055 0.8925 -0.02753 0.0
O38 O 1.00799 0.84329 0.15375 0.0
O39 O 1.03515 0.93613 0.14933 0.0
O40 O 0.90629 0.80023 -0.00959 0.0
O41 O 0.94217 0.8731 0.05792 0.0
Co42 Co 0.17468 0.25016 0.35413 0.0
O43 O 0.15476 0.29555 0.29747 0.0
O44 O 0.23866 0.32543 0.34375 0.0
C45 C 0.09552 0.21425 0.42027 0.0
O46 O 0.21105 0.21756 0.41793 0.0
Co47 Co 0.09637 0.1188 0.3664 0.0
O48 O 0.14618 0.12814 0.44386 0.0
C49 C 0.17247 0.16999 0.24592 0.0
C50 C 0.20541 0.33676 0.30831 0.0
C51 C 0.19448 0.17143 0.45152 0.0
O52 O 0.19662 0.22064 0.27026 0.0
O53 O 0.13085 0.12777 0.2747 0.0
O54 O 0.13813 0.26367 0.43374 0.0
O55 O 0.10099 0.19078 0.36625 0.0
Co56 Co 0.82974 0.94047 0.35427 0.0
O57 O 0.78435 0.87519 0.29753 0.0
O58 O 0.75449 0.92914 0.3439 0.0
C59 C 0.86564 0.89723 0.42033 0.0
O60 O 0.86233 1.0094 0.41812 0.0
Co61 Co 0.96115 0.99369 0.36659 0.0
O62 O 0.95175 0.03404 0.44412 0.0
C63 C 0.90998 1.01862 0.24617 0.0
C64 C 0.74316 0.88462 0.30837 0.0
C65 C 0.90845 0.039 0.45175 0.0
O66 O 0.8593 0.99202 0.27047 0.0
O67 O 0.95221 1.01929 0.27495 0.0
O68 O 0.8162 0.89034 0.43382 0.0
O69 O 0.88913 0.92623 0.36635 0.0
Co70 Co 0.13946 0.90526 0.35412 0.0
O71 O 0.20478 0.92515 0.29742 0.0
O72 O 0.15072 0.84132 0.34383 0.0
C73 C 0.18276 0.98445 0.42012 0.0
O74 O 0.07047 0.86893 0.41796 0.0
Co75 Co 0.08637 0.98348 0.36636 0.0
O76 O 1.04589 0.93372 0.44387 0.0
C77 C 0.06146 0.9074 0.24592 0.0
C78 C 0.1953 0.87452 0.30832 0.0
C79 C 1.04089 0.88547 0.45156 0.0
O80 O 0.08794 0.88326 0.27029 0.0
O81 O 0.06088 0.949 0.27467 0.0
O82 O 0.1896 0.9419 0.43367 0.0
O83 O 0.15379 0.97892 0.36612 0.0
Co84 Co 0.82976 0.90526 0.85424 0.0
O85 O 0.7844 0.9252 0.79753 0.0
O86 O 0.75448 0.84132 0.84383 0.0
C87 C 0.86569 0.98436 0.92038 0.0
O88 O 0.86232 0.86888 0.91805 0.0
Co89 Co 0.96118 0.98349 0.86654 0.0
O90 O 0.95176 0.93369 0.94403 0.0
C91 C 0.90998 0.90742 0.74606 0.0
C92 C 0.74317 0.87456 0.80835 0.0
C93 C 0.90845 0.88541 0.95166 0.0
O94 O 0.8593 0.88332 0.77039 0.0
O95 O 0.95222 0.94899 0.77486 0.0
O96 O 0.81622 0.94181 0.93383 0.0
O97 O 0.88919 0.97892 0.86636 0.0
Co98 Co 0.17466 0.94048 0.85409 0.0
O99 O 0.15473 0.87515 0.79743 0.0
O100 O 0.23862 0.9292 0.84375 0.0
C101 C 0.09552 0.89726 0.92018 0.0
O102 O 0.21103 1.00947 0.91789 0.0
Co103 Co 0.09641 0.99356 0.86631 0.0
O104 O 0.14622 0.03405 0.94379 0.0
C105 C 0.17246 1.01838 0.74581 0.0
C106 C 0.20537 0.88461 0.8083 0.0
C107 C 0.19449 0.03905 0.95147 0.0
O108 O 0.19663 0.99195 0.77021 0.0
O109 O 0.13085 1.01897 0.77458 0.0
O110 O 0.13807 0.89039 0.93369 0.0
O111 O 0.10098 0.92617 0.86614 0.0
Co112 Co 0.13947 0.25017 0.85421 0.0
O113 O 0.20478 0.29559 0.79748 0.0
O114 O 0.15078 0.32539 0.84389 0.0
C115 C 0.1827 0.21427 0.92024 0.0
O116 O 0.07051 0.21757 0.91807 0.0
Co117 Co 0.08624 0.11881 0.8665 0.0
O118 O 1.04585 0.12817 0.94404 0.0
C119 C 0.06138 0.17001 0.74606 0.0
C120 C 0.19533 0.33675 0.80835 0.0
C121 C 1.0409 0.17145 0.95168 0.0
O122 O 0.08793 0.22065 0.77041 0.0
O123 O 0.06073 0.1278 0.77483 0.0
O124 O 0.18963 0.2637 0.93376 0.0
O125 O 0.15372 0.1908 0.86624 0.0
Co126 Co 0.92125 0.81379 0.57002 0.0
O127 O 0.94118 0.76841 0.62668 0.0
O128 O 0.85728 0.73851 0.58041 0.0
C129 C 1.00036 0.84971 0.50387 0.0
O130 O 0.88486 0.84637 0.50623 0.0
Co131 Co 0.99952 0.94516 0.55775 0.0
O132 O 0.9497 0.93579 0.48027 0.0
C133 C 0.92344 0.89396 0.67823 0.0
C134 C 0.89053 0.72719 0.61585 0.0
C135 C 0.90141 0.89249 0.47263 0.0
O136 O 0.89931 0.84331 0.6539 0.0
O137 O 0.96504 0.93618 0.64944 0.0
O138 O 0.9578 0.80027 0.4904 0.0
O139 O 0.99493 0.87319 0.5579 0.0
Co140 Co 0.26615 0.12348 0.56988 0.0
O141 O 0.31153 0.18876 0.62662 0.0
O142 O 0.34141 0.13482 0.58025 0.0
C143 C 0.23024 0.16666 0.5038 0.0
O144 O 0.23359 0.05454 0.50604 0.0
Co145 Co 0.13474 0.07021 0.55755 0.0
O146 O 0.14416 1.02988 0.48002 0.0
C147 C 0.18592 0.04531 0.67798 0.0
C148 C 0.35274 0.17935 0.61579 0.0
C149 C 0.18747 1.02494 0.4724 0.0
O150 O 0.2366 0.07193 0.65369 0.0
O151 O 0.14369 0.04462 0.64919 0.0
O152 O 0.2797 0.17361 0.49032 0.0
O153 O 0.20674 0.13768 0.5578 0.0
Co154 Co 0.95644 0.15866 0.57003 0.0
O155 O 0.89111 0.13876 0.62673 0.0
O156 O 0.94517 0.22259 0.58033 0.0
C157 C 0.91319 0.07951 0.50401 0.0
O158 O 1.02543 0.19501 0.50619 0.0
Co159 Co 1.00958 0.08047 0.55778 0.0
O160 O 0.05004 0.13024 0.48027 0.0
C161 C 1.03446 0.15654 0.67823 0.0
C162 C 0.90058 0.18938 0.61584 0.0
C163 C 0.05502 0.17849 0.4726 0.0
O164 O 1.00796 0.18067 0.65387 0.0
O165 O 1.03506 0.11496 0.64947 0.0
O166 O 0.9063 0.12203 0.49048 0.0
O167 O 0.94215 0.08501 0.55803 0.0
Co168 Co 0.93282 0.49203 0.40325 0.0
O169 O 0.97819 0.47211 0.45996 0.0
O170 O 1.0081 0.55598 0.41365 0.0
C171 C 0.89692 0.4129 0.33713 0.0
O172 O 0.90025 0.52839 0.33944 0.0
Co173 Co 0.80141 0.41377 0.39096 0.0
O174 O 0.81081 0.46356 0.31347 0.0
C175 C 0.8526 0.48985 0.51143 0.0
C176 C 1.01942 0.52275 0.44914 0.0
C177 C 0.85412 0.51184 0.30583 0.0
O178 O 0.90327 0.51397 0.4871 0.0
O179 O 0.81037 0.44827 0.48264 0.0
O180 O 0.94636 0.45548 0.32366 0.0
O181 O 0.87342 0.41836 0.39113 0.0
Co182 Co 0.5879 0.45678 0.4034 0.0
O183 O 0.60781 0.52211 0.46006 0.0
O184 O 0.52393 0.46805 0.41373 0.0
C185 C 0.66707 0.50006 0.33732 0.0
O186 O 0.55154 0.38779 0.3396 0.0
Co187 Co 0.66618 0.40375 0.39119 0.0
O188 O 0.61638 0.36324 0.31372 0.0
C189 C 0.59012 0.3789 0.51168 0.0
C190 C 0.55716 0.51264 0.44919 0.0
C191 C 0.5681 0.35822 0.30602 0.0
O192 O 0.56593 0.40531 0.48728 0.0
O193 O 0.63175 0.37833 0.48292 0.0
O194 O 0.62449 0.50687 0.32381 0.0
O195 O 0.66158 0.47113 0.39135 0.0
Co196 Co 0.62311 0.14709 0.40328 0.0
O197 O 0.55781 0.10166 0.46001 0.0
O198 O 0.61182 0.07187 0.41359 0.0
C199 C 0.57983 0.18297 0.33727 0.0
O200 O 0.69207 0.17972 0.33942 0.0
Co201 Co 0.6763 0.27844 0.391 0.0
O202 O 0.71671 0.26911 0.31347 0.0
C203 C 0.70119 0.22726 0.51144 0.0
C204 C 0.56726 0.0605 0.44913 0.0
C205 C 0.72167 0.22583 0.3058 0.0
O206 O 0.67466 0.17662 0.48708 0.0
O207 O 0.70182 0.26946 0.48266 0.0
O208 O 0.57296 0.13356 0.32374 0.0
O209 O 0.60884 0.20644 0.39126 0.0
Co210 Co 0.84135 0.5835 0.68746 0.0
O211 O 0.82143 0.62888 0.6308 0.0
O212 O 0.90532 0.65877 0.67708 0.0
C213 C 0.76219 0.54759 0.7536 0.0
O214 O 0.87771 0.5509 0.75126 0.0
Co215 Co 0.76304 0.45213 0.69973 0.0
O216 O 0.81285 0.46148 0.7772 0.0
C217 C 0.83913 0.50332 0.57925 0.0
C218 C 0.87208 0.6701 0.64164 0.0
C219 C 0.86115 0.50477 0.78485 0.0
O220 O 0.86328 0.55397 0.60359 0.0
O221 O 0.79752 0.4611 0.60803 0.0
O222 O 0.80479 0.59701 0.76707 0.0
O223 O 0.76766 0.52412 0.69958 0.0
Co224 Co 0.49641 0.27381 0.68761 0.0
O225 O 0.45102 0.20852 0.63086 0.0
O226 O 0.42115 0.26248 0.67724 0.0
C227 C 0.53231 0.23056 0.75367 0.0
O228 O 0.52899 0.34274 0.75145 0.0
Co229 Co 0.62781 0.32702 0.69992 0.0
O230 O 0.61842 0.36738 0.77745 0.0
C231 C 0.57664 0.35196 0.5795 0.0
C232 C 0.40982 0.21795 0.64171 0.0
C233 C 0.57511 0.37233 0.78508 0.0
O234 O 0.52597 0.32535 0.6038 0.0
O235 O 0.61887 0.35262 0.60829 0.0
O236 O 0.48287 0.22367 0.76716 0.0
O237 O 0.5558 0.25956 0.69968 0.0
Co238 Co 0.80612 0.2386 0.68745 0.0
O239 O 0.87145 0.25848 0.63075 0.0
O240 O 0.81738 0.17465 0.67716 0.0
C241 C 0.84943 0.31778 0.75346 0.0
O242 O 0.73714 0.20226 0.7513 0.0
Co243 Co 0.75303 0.31682 0.69969 0.0
O244 O 0.71255 0.26705 0.7772 0.0
C245 C 0.72813 0.24073 0.57925 0.0
C246 C 0.86197 0.20786 0.64165 0.0
C247 C 0.70756 0.2188 0.78489 0.0
O248 O 0.7546 0.21659 0.60362 0.0
O249 O 0.72755 0.28233 0.60801 0.0
O250 O 0.85626 0.27523 0.767 0.0
O251 O 0.82045 0.31225 0.69945 0.0
Co252 Co 0.49643 0.2386 0.18757 0.0
O253 O 0.45107 0.25853 0.13087 0.0
O254 O 0.42115 0.17466 0.17716 0.0
C255 C 0.53235 0.31769 0.25371 0.0
O256 O 0.52898 0.20221 0.25138 0.0
Co257 Co 0.62785 0.31682 0.19987 0.0
O258 O 0.61843 0.26703 0.27737 0.0
C259 C 0.57664 0.24075 0.0794 0.0
C260 C 0.40984 0.20789 0.14168 0.0
C261 C 0.57511 0.21875 0.28499 0.0
O262 O 0.52597 0.21665 0.10372 0.0
O263 O 0.61889 0.28232 0.1082 0.0
O264 O 0.48289 0.27514 0.26717 0.0
O265 O 0.55585 0.31225 0.1997 0.0
Co266 Co 0.84133 0.27381 0.18742 0.0
O267 O 0.8214 0.20848 0.13076 0.0
O268 O 0.90528 0.26254 0.17708 0.0
C269 C 0.76219 0.23059 0.25351 0.0
O270 O 0.8777 0.34281 0.25122 0.0
Co271 Co 0.76308 0.32689 0.19965 0.0
O272 O 0.81288 0.36739 0.27712 0.0
C273 C 0.83912 0.35172 0.07915 0.0
C274 C 0.87204 0.21794 0.14163 0.0
C275 C 0.86116 0.37239 0.2848 0.0
O276 O 0.8633 0.32528 0.10354 0.0
O277 O 0.79751 0.35231 0.10792 0.0
O278 O 0.80474 0.22373 0.26702 0.0
O279 O 0.76765 0.2595 0.19948 0.0
Co280 Co 0.80614 0.58351 0.18755 0.0
O281 O 0.87145 0.62892 0.13081 0.0
O282 O 0.81744 0.65872 0.17723 0.0
C283 C 0.84936 0.54761 0.25357 0.0
O284 O 0.73718 0.5509 0.2514 0.0
Co285 Co 0.7529 0.45214 0.19983 0.0
O286 O 0.71252 0.4615 0.27737 0.0
C287 C 0.72805 0.50334 0.07939 0.0
C288 C 0.862 0.67009 0.14169 0.0
C289 C 0.70757 0.50479 0.28502 0.0
O290 O 0.75459 0.55398 0.10374 0.0
O291 O 0.72739 0.46113 0.10817 0.0
O292 O 0.85629 0.59704 0.26709 0.0
O293 O 0.82038 0.52414 0.19957 0.0
Co294 Co 0.58791 0.14712 0.90335 0.0
O295 O 0.60785 0.10175 0.96002 0.0
O296 O 0.52395 0.07185 0.91374 0.0
C297 C 0.66703 0.18305 0.83721 0.0
O298 O 0.55153 0.1797 0.83956 0.0
Co299 Co 0.66619 0.2785 0.89108 0.0
O300 O 0.61637 0.26912 0.81361 0.0
C301 C 0.59011 0.22729 0.01156 0.0
C302 C 0.5572 0.06053 0.94918 0.0
C303 C 0.56807 0.22583 0.80596 0.0
O304 O 0.56597 0.17664 -0.01277 0.0
O305 O 0.63171 0.26952 -0.01722 0.0
O306 O 0.62446 0.13361 0.82374 0.0
O307 O 0.6616 0.20652 0.89123 0.0
Co308 Co 0.93282 0.45681 0.90321 0.0
O309 O 0.9782 0.5221 0.95995 0.0
O310 O 1.00808 0.46815 0.91359 0.0
C311 C 0.89691 0.5 0.83714 0.0
O312 O 0.90026 0.38788 0.83937 0.0
Co313 Co 0.80141 0.40354 0.89089 0.0
O314 O 0.81083 0.36321 0.81335 0.0
C315 C 0.85259 0.37864 0.01132 0.0
C316 C 1.0194 0.51268 0.94912 0.0
C317 C 0.85414 0.35827 0.80574 0.0
O318 O 0.90327 0.40527 -0.01298 0.0
O319 O 0.81035 0.37795 -0.01748 0.0
O320 O 0.94637 0.50694 0.82365 0.0
O321 O 0.87341 0.47102 0.89113 0.0
Co322 Co 0.62311 0.49199 0.90337 0.0
O323 O 0.55778 0.47209 0.96007 0.0
O324 O 0.61184 0.55592 0.91366 0.0
C325 C 0.57986 0.41284 0.83735 0.0
O326 O 0.69209 0.52834 0.83952 0.0
Co327 Co 0.67625 0.41381 0.89112 0.0
O328 O 0.71671 0.46358 0.81361 0.0
C329 C 0.70112 0.48988 0.01156 0.0
C330 C 0.56725 0.52271 0.94917 0.0
C331 C 0.72169 0.51183 0.80593 0.0
O332 O 0.67463 0.514 -0.0128 0.0
O333 O 0.70172 0.44829 -0.0172 0.0
O334 O 0.57297 0.45536 0.82381 0.0
O335 O 0.60881 0.41835 0.89136 0.0
Co336 Co 0.59949 0.82536 0.73659 0.0
O337 O 0.64486 0.80545 0.79329 0.0
O338 O 0.67477 0.88931 0.74699 0.0
C339 C 0.56358 0.74623 0.67046 0.0
O340 O 0.56692 0.86172 0.67277 0.0
Co341 Co 0.46808 0.7471 0.7243 0.0
O342 O 0.47747 0.79689 0.6468 0.0
C343 C 0.51927 0.82318 0.84476 0.0
C344 C 0.68608 0.85609 0.78247 0.0
C345 C 0.52078 0.84517 0.63917 0.0
O346 O 0.56994 0.8473 0.82043 0.0
O347 O 0.47703 0.7816 0.81597 0.0
O348 O 0.61303 0.78881 0.657 0.0
O349 O 0.54009 0.7517 0.72446 0.0
Co350 Co 0.25456 0.79012 0.73674 0.0
O351 O 0.27447 0.85544 0.79339 0.0
O352 O 0.19059 0.80138 0.74707 0.0
C353 C 0.33374 0.8334 0.67066 0.0
O354 O 0.21821 0.72112 0.67293 0.0
Co355 Co 0.33285 0.73708 0.72452 0.0
O356 O 0.28305 0.69657 0.64705 0.0
C357 C 0.25679 0.71223 0.84501 0.0
C358 C 0.22383 0.84598 0.78252 0.0
C359 C 0.23477 0.69156 0.63935 0.0
O360 O 0.23259 0.73865 0.82061 0.0
O361 O 0.29841 0.71166 0.81625 0.0
O362 O 0.29116 0.84021 0.65714 0.0
O363 O 0.32825 0.80446 0.72468 0.0
Co364 Co 0.28978 0.48042 0.73661 0.0
O365 O 0.22447 0.435 0.79334 0.0
O366 O 0.27849 0.40521 0.74692 0.0
C367 C 0.2465 0.5163 0.6706 0.0
O368 O 0.35874 0.51305 0.67275 0.0
Co369 Co 0.34297 0.61178 0.72433 0.0
O370 O 0.38337 0.60244 0.6468 0.0
C371 C 0.36785 0.56059 0.84477 0.0
C372 C 0.23393 0.39384 0.78246 0.0
C373 C 0.38834 0.55917 0.63914 0.0
O374 O 0.34132 0.50995 0.82041 0.0
O375 O 0.36848 0.6028 0.816 0.0
O376 O 0.23962 0.4669 0.65707 0.0
O377 O 0.2755 0.53977 0.72459 0.0
Co378 Co 0.50802 0.91683 0.0208 0.0
O379 O 0.48809 0.96221 -0.03586 0.0
O380 O 0.57199 0.9921 0.01042 0.0
C381 C 0.42886 0.88092 0.08693 0.0
O382 O 0.54438 0.88423 0.0846 0.0
Co383 Co 0.4297 0.78546 0.03306 0.0
O384 O 0.47952 0.79481 0.11053 0.0
C385 C 0.5058 0.83666 0.91258 0.0
C386 C 0.53875 1.00343 -0.02502 0.0
C387 C 0.52781 0.8381 0.11819 0.0
O388 O 0.52995 0.8873 0.93692 0.0
O389 O 0.46418 0.79444 0.94137 0.0
O390 O 0.47146 0.93034 0.10041 0.0
O391 O 0.43432 0.85745 0.03292 0.0
Co392 Co 0.16308 0.60714 0.02094 0.0
O393 O 0.11769 0.54186 -0.0358 0.0
O394 O 0.08782 0.59581 0.01057 0.0
C395 C 0.19897 0.56389 0.087 0.0
O396 O 0.19566 0.67607 0.08479 0.0
Co397 Co 0.29448 0.66036 0.03326 0.0
O398 O 0.28508 0.70071 0.11078 0.0
C399 C 0.24331 0.68529 0.91283 0.0
C400 C 0.07649 0.55128 -0.02496 0.0
C401 C 0.24178 0.70566 0.11841 0.0
O402 O 0.19263 0.65868 0.93713 0.0
O403 O 0.28554 0.68596 0.94162 0.0
O404 O 0.14953 0.557 0.10049 0.0
O405 O 0.22247 0.5929 0.03302 0.0
Co406 Co 0.47279 0.57193 0.02078 0.0
O407 O 0.53811 0.59181 -0.03591 0.0
O408 O 0.48405 0.50798 0.01049 0.0
C409 C 0.5161 0.65112 0.08679 0.0
O410 O 0.40381 0.5356 0.08463 0.0
Co411 Co 0.4197 0.65015 0.03302 0.0
O412 O 0.37922 0.60039 0.11053 0.0
C413 C 0.39479 0.57406 0.91259 0.0
C414 C 0.52864 0.54119 -0.02501 0.0
C415 C 0.37423 0.55213 0.11822 0.0
O416 O 0.42127 0.54992 0.93695 0.0
O417 O 0.39421 0.61567 0.94134 0.0
O418 O 0.52293 0.60857 0.10033 0.0
O419 O 0.48712 0.64558 0.03279 0.0
Co420 Co 0.1631 0.57193 0.5209 0.0
O421 O 0.11774 0.59186 0.4642 0.0
O422 O 0.08781 0.50799 0.5105 0.0
C423 C 0.19902 0.65103 0.58704 0.0
O424 O 0.19565 0.53555 0.58471 0.0
Co425 Co 0.29451 0.65015 0.5332 0.0
O426 O 0.2851 0.60036 0.6107 0.0
C427 C 0.24331 0.57409 0.41273 0.0
C428 C 0.07651 0.54122 0.47502 0.0
C429 C 0.24178 0.55208 0.61832 0.0
O430 O 0.19264 0.54998 0.43706 0.0
O431 O 0.28556 0.61566 0.44153 0.0
O432 O 0.14955 0.60847 0.6005 0.0
O433 O 0.22252 0.64558 0.53303 0.0
Co434 Co 0.50799 0.60715 0.52075 0.0
O435 O 0.48806 0.54182 0.4641 0.0
O436 O 0.57195 0.59587 0.51042 0.0
C437 C 0.42885 0.56392 0.58685 0.0
O438 O 0.54436 0.67614 0.58456 0.0
Co439 Co 0.42974 0.66023 0.53298 0.0
O440 O 0.47955 0.70072 0.61045 0.0
C441 C 0.50579 0.68505 0.41248 0.0
C442 C 0.53871 0.55128 0.47497 0.0
C443 C 0.52783 0.70572 0.61813 0.0
O444 O 0.52997 0.65862 0.43688 0.0
O445 O 0.46418 0.68564 0.44125 0.0
O446 O 0.4714 0.55706 0.60035 0.0
O447 O 0.43432 0.59284 0.53281 0.0
Co448 Co 0.47281 0.91684 0.52088 0.0
O449 O 0.53812 0.96226 0.46415 0.0
O450 O 0.48411 0.99206 0.51056 0.0
C451 C 0.51603 0.88094 0.5869 0.0
O452 O 0.40384 0.88423 0.58473 0.0
Co453 Co 0.41957 0.78548 0.53317 0.0
O454 O 0.37918 0.79483 0.6107 0.0
C455 C 0.39472 0.83667 0.41272 0.0
C456 C 0.52867 1.00342 0.47502 0.0
C457 C 0.37423 0.83812 0.61835 0.0
O458 O 0.42126 0.88732 0.43707 0.0
O459 O 0.39406 0.79446 0.4415 0.0
O460 O 0.52296 0.93037 0.60042 0.0
O461 O 0.48705 0.85747 0.5329 0.0
Co462 Co 0.25458 0.48045 0.23669 0.0
O463 O 0.27452 0.43508 0.29335 0.0
O464 O 0.19062 0.40518 0.24707 0.0
C465 C 0.3337 0.51638 0.17054 0.0
O466 O 0.21819 0.51303 0.17289 0.0
Co467 Co 0.33285 0.61183 0.22441 0.0
O468 O 0.28304 0.60246 0.14694 0.0
C469 C 0.25677 0.56062 0.3449 0.0
C470 C 0.22387 0.39386 0.28251 0.0
C471 C 0.23474 0.55916 0.1393 0.0
O472 O 0.23264 0.50997 0.32056 0.0
O473 O 0.29837 0.60285 0.31611 0.0
O474 O 0.29113 0.46694 0.15707 0.0
O475 O 0.32826 0.53985 0.22457 0.0
Co476 Co 0.59949 0.79014 0.23655 0.0
O477 O 0.64487 0.85543 0.29329 0.0
O478 O 0.67474 0.80148 0.24692 0.0
C479 C 0.56357 0.83333 0.17047 0.0
O480 O 0.56692 0.72121 0.1727 0.0
Co481 Co 0.46807 0.73688 0.22422 0.0
O482 O 0.4775 0.69654 0.14669 0.0
C483 C 0.51926 0.71198 0.34465 0.0
C484 C 0.68607 0.84601 0.28245 0.0
C485 C 0.52081 0.6916 0.13907 0.0
O486 O 0.56994 0.7386 0.32036 0.0
O487 O 0.47702 0.71129 0.31586 0.0
O488 O 0.61304 0.84028 0.15699 0.0
O489 O 0.54008 0.80435 0.22447 0.0
Co490 Co 0.28977 0.82532 0.2367 0.0
O491 O 0.22445 0.80542 0.2934 0.0
O492 O 0.2785 0.88926 0.247 0.0
C493 C 0.24652 0.74618 0.17068 0.0
O494 O 0.35876 0.86168 0.17286 0.0
Co495 Co 0.34291 0.74714 0.22445 0.0
O496 O 0.38337 0.79691 0.14694 0.0
C497 C 0.36779 0.82321 0.3449 0.0
C498 C 0.23392 0.85605 0.2825 0.0
C499 C 0.38835 0.84516 0.13926 0.0
O500 O 0.34129 0.84734 0.32054 0.0
O501 O 0.36839 0.78162 0.31614 0.0
O502 O 0.23964 0.78869 0.15714 0.0
O503 O 0.27548 0.75168 0.2247 0.0
loop_
_geom_bond_atom_site_label_1
_geom_bond_atom_site_label_2
_geom_bond_distance
_geom_bond_site_symmetry_2
_ccdc_geom_bond_type
Co0 O1 2.216 . S
Co0 O2 2.091 . S
Co0 O4 2.004 . S
Co0 O10 2.021 . S
Co0 O12 2.137 . S
Co0 O13 2.244 . S
O1 Co0 2.216 . S
O1 C8 1.247 . S
O2 Co0 2.091 . S
O2 C8 1.261 . S
C3 O12 1.247 . S
C3 O13 1.272 . S
O4 Co0 2.004 . S
O4 C9 1.259 . S
Co5 O6 2.061 . S
Co5 O11 2.052 . S
Co5 O13 2.135 . S
O6 Co5 2.061 . S
O6 C9 1.235 . S
C7 O10 1.238 . S
C7 O11 1.241 . S
C8 O1 1.247 . S
C8 O2 1.261 . S
C9 O4 1.259 . S
C9 O6 1.235 . S
O10 Co0 2.021 . S
O10 C7 1.238 . S
O11 Co5 2.052 . S
O11 C7 1.241 . S
O12 Co0 2.137 . S
O12 C3 1.247 . S
O13 Co0 2.244 . S
O13 C3 1.272 . S
O13 Co5 2.135 . S
Co14 O15 2.216 . S
Co14 O16 2.091 . S
Co14 O18 2.004 . S
Co14 O24 2.021 . S
Co14 O26 2.137 . S
Co14 O27 2.244 . S
O15 Co14 2.216 . S
O15 C22 1.247 . S
O16 Co14 2.091 . S
O16 C22 1.261 . S
C17 O26 1.247 . S
C17 O27 1.272 . S
O18 Co14 2.004 . S
O18 C23 1.259 1_545 S
Co19 O20 2.061 1_545 S
Co19 O25 2.052 . S
Co19 O27 2.135 . S
O20 Co19 2.061 1_565 S
O20 C23 1.235 . S
C21 O24 1.238 . S
C21 O25 1.241 . S
C22 O15 1.247 . S
C22 O16 1.261 . S
C23 O18 1.259 1_565 S
C23 O20 1.235 . S
O24 Co14 2.021 . S
O24 C21 1.238 . S
O25 Co19 2.052 . S
O25 C21 1.241 . S
O26 Co14 2.137 . S
O26 C17 1.247 . S
O27 Co14 2.244 . S
O27 C17 1.272 . S
O27 Co19 2.135 . S
Co28 O29 2.216 . S
Co28 O30 2.091 . S
Co28 O32 2.004 . S
Co28 O38 2.021 . S
Co28 O40 2.137 . S
Co28 O41 2.244 . S
O29 Co28 2.216 . S
O29 C36 1.247 . S
O30 Co28 2.091 . S
O30 C36 1.261 . S
C31 O40 1.247 . S
C31 O41 1.272 . S
O32 Co28 2.004 . S
O32 C37 1.259 1_655 S
Co33 O34 2.061 1_655 S
Co33 O39 2.052 . S
Co33 O41 2.135 . S
O34 Co33 2.061 1_455 S
O34 C37 1.235 . S
C35 O38 1.238 . S
C35 O39 1.241 . S
C36 O29 1.247 . S
C36 O30 1.261 . S
C37 O32 1.259 1_455 S
C37 O34 1.235 . S
O38 Co28 2.021 . S
O38 C35 1.238 . S
O39 Co33 2.052 . S
O39 C35 1.241 . S
O40 Co28 2.137 . S
O40 C31 1.247 . S
O41 Co28 2.244 . S
O41 C31 1.272 . S
O41 Co33 2.135 . S
Co42 O43 2.216 . S
Co42 O44 2.091 . S
Co42 O46 2.004 . S
Co42 O52 2.021 . S
Co42 O54 2.137 . S
Co42 O55 2.244 . S
O43 Co42 2.216 . S
O43 C50 1.247 . S
O44 Co42 2.091 . S
O44 C50 1.261 . S
C45 O54 1.247 . S
C45 O55 1.272 . S
O46 Co42 2.004 . S
O46 C51 1.259 . S
Co47 O48 2.061 . S
Co47 O53 2.052 . S
Co47 O55 2.135 . S
O48 Co47 2.061 . S
O48 C51 1.235 . S
C49 O52 1.238 . S
C49 O53 1.241 . S
C50 O43 1.247 . S
C50 O44 1.261 . S
C51 O46 1.259 . S
C51 O48 1.235 . S
O52 Co42 2.021 . S
O52 C49 1.238 . S
O53 Co47 2.052 . S
O53 C49 1.241 . S
O54 Co42 2.137 . S
O54 C45 1.247 . S
O55 Co42 2.244 . S
O55 C45 1.272 . S
O55 Co47 2.135 . S
Co56 O57 2.216 . S
Co56 O58 2.091 . S
Co56 O60 2.004 . S
Co56 O66 2.021 . S
Co56 O68 2.137 . S
Co56 O69 2.244 . S
O57 Co56 2.216 . S
O57 C64 1.247 . S
O58 Co56 2.091 . S
O58 C64 1.261 . S
C59 O68 1.247 . S
C59 O69 1.272 . S
O60 Co56 2.004 . S
O60 C65 1.259 1_565 S
Co61 O62 2.061 1_565 S
Co61 O67 2.052 . S
Co61 O69 2.135 . S
O62 Co61 2.061 1_545 S
O62 C65 1.235 . S
C63 O66 1.238 . S
C63 O67 1.241 . S
C64 O57 1.247 . S
C64 O58 1.261 . S
C65 O60 1.259 1_545 S
C65 O62 1.235 . S
O66 Co56 2.021 . S
O66 C63 1.238 . S
O67 Co61 2.052 . S
O67 C63 1.241 . S
O68 Co56 2.137 . S
O68 C59 1.247 . S
O69 Co56 2.244 . S
O69 C59 1.272 . S
O69 Co61 2.135 . S
Co70 O71 2.216 . S
Co70 O72 2.091 . S
Co70 O74 2.004 . S
Co70 O80 2.021 . S
Co70 O82 2.137 . S
Co70 O83 2.244 . S
O71 Co70 2.216 . S
O71 C78 1.247 . S
O72 Co70 2.091 . S
O72 C78 1.261 . S
C73 O82 1.247 . S
C73 O83 1.272 . S
O74 Co70 2.004 . S
O74 C79 1.259 1_455 S
Co75 O76 2.061 1_455 S
Co75 O81 2.052 . S
Co75 O83 2.135 . S
O76 Co75 2.061 1_655 S
O76 C79 1.235 . S
C77 O80 1.238 . S
C77 O81 1.241 . S
C78 O71 1.247 . S
C78 O72 1.261 . S
C79 O74 1.259 1_655 S
C79 O76 1.235 . S
O80 Co70 2.021 . S
O80 C77 1.238 . S
O81 Co75 2.052 . S
O81 C77 1.241 . S
O82 Co70 2.137 . S
O82 C73 1.247 . S
O83 Co70 2.244 . S
O83 C73 1.272 . S
O83 Co75 2.135 . S
Co84 O85 2.216 . S
Co84 O86 2.091 . S
Co84 O88 2.004 . S
Co84 O94 2.021 . S
Co84 O96 2.137 . S
Co84 O97 2.244 . S
O85 Co84 2.216 . S
O85 C92 1.247 . S
O86 Co84 2.091 . S
O86 C92 1.261 . S
C87 O96 1.247 . S
C87 O97 1.272 . S
O88 Co84 2.004 . S
O88 C93 1.259 . S
Co89 O90 2.061 . S
Co89 O95 2.052 . S
Co89 O97 2.135 . S
O90 Co89 2.061 . S
O90 C93 1.235 . S
C91 O94 1.238 . S
C91 O95 1.241 . S
C92 O85 1.247 . S
C92 O86 1.261 . S
C93 O88 1.259 . S
C93 O90 1.235 . S
O94 Co84 2.021 . S
O94 C91 1.238 . S
O95 Co89 2.052 . S
O95 C91 1.241 . S
O96 Co84 2.137 . S
O96 C87 1.247 . S
O97 Co84 2.244 . S
O97 C87 1.272 . S
O97 Co89 2.135 . S
Co98 O99 2.216 . S
Co98 O100 2.091 . S
Co98 O102 2.004 . S
Co98 O108 2.021 . S
Co98 O110 2.137 . S
Co98 O111 2.244 . S
O99 Co98 2.216 . S
O99 C106 1.247 . S
O100 Co98 2.091 . S
O100 C106 1.261 . S
C101 O110 1.247 . S
C101 O111 1.272 . S
O102 Co98 2.004 . S
O102 C107 1.259 1_565 S
Co103 O104 2.061 1_565 S
Co103 O109 2.052 . S
Co103 O111 2.135 . S
O104 Co103 2.061 1_545 S
O104 C107 1.235 . S
C105 O108 1.238 . S
C105 O109 1.241 . S
C106 O99 1.247 . S
C106 O100 1.261 . S
C107 O102 1.259 1_545 S
C107 O104 1.235 . S
O108 Co98 2.021 . S
O108 C105 1.238 . S
O109 Co103 2.052 . S
O109 C105 1.241 . S
O110 Co98 2.137 . S
O110 C101 1.247 . S
O111 Co98 2.244 . S
O111 C101 1.272 . S
O111 Co103 2.135 . S
Co112 O113 2.216 . S
Co112 O114 2.091 . S
Co112 O116 2.004 . S
Co112 O122 2.021 . S
Co112 O124 2.137 . S
Co112 O125 2.244 . S
O113 Co112 2.216 . S
O113 C120 1.247 . S
O114 Co112 2.091 . S
O114 C120 1.261 . S
C115 O124 1.247 . S
C115 O125 1.272 . S
O116 Co112 2.004 . S
O116 C121 1.259 1_455 S
Co117 O118 2.061 1_455 S
Co117 O123 2.052 . S
Co117 O125 2.135 . S
O118 Co117 2.061 1_655 S
O118 C121 1.235 . S
C119 O122 1.238 . S
C119 O123 1.241 . S
C120 O113 1.247 . S
C120 O114 1.261 . S
C121 O116 1.259 1_655 S
C121 O118 1.235 . S
O122 Co112 2.021 . S
O122 C119 1.238 . S
O123 Co117 2.052 . S
O123 C119 1.241 . S
O124 Co112 2.137 . S
O124 C115 1.247 . S
O125 Co112 2.244 . S
O125 C115 1.272 . S
O125 Co117 2.135 . S
Co126 O127 2.216 . S
Co126 O128 2.091 . S
Co126 O130 2.004 . S
Co126 O136 2.021 . S
Co126 O138 2.137 . S
Co126 O139 2.244 . S
O127 Co126 2.216 . S
O127 C134 1.247 . S
O128 Co126 2.091 . S
O128 C134 1.261 . S
C129 O138 1.247 . S
C129 O139 1.272 . S
O130 Co126 2.004 . S
O130 C135 1.259 . S
Co131 O132 2.061 . S
Co131 O137 2.052 . S
Co131 O139 2.135 . S
O132 Co131 2.061 . S
O132 C135 1.235 . S
C133 O136 1.238 . S
C133 O137 1.241 . S
C134 O127 1.247 . S
C134 O128 1.261 . S
C135 O130 1.259 . S
C135 O132 1.235 . S
O136 Co126 2.021 . S
O136 C133 1.238 . S
O137 Co131 2.052 . S
O137 C133 1.241 . S
O138 Co126 2.137 . S
O138 C129 1.247 . S
O139 Co126 2.244 . S
O139 C129 1.272 . S
O139 Co131 2.135 . S
Co140 O141 2.216 . S
Co140 O142 2.091 . S
Co140 O144 2.004 . S
Co140 O150 2.021 . S
Co140 O152 2.137 . S
Co140 O153 2.244 . S
O141 Co140 2.216 . S
O141 C148 1.247 . S
O142 Co140 2.091 . S
O142 C148 1.261 . S
C143 O152 1.247 . S
C143 O153 1.272 . S
O144 Co140 2.004 . S
O144 C149 1.259 1_545 S
Co145 O146 2.061 1_545 S
Co145 O151 2.052 . S
Co145 O153 2.135 . S
O146 Co145 2.061 1_565 S
O146 C149 1.235 . S
C147 O150 1.238 . S
C147 O151 1.241 . S
C148 O141 1.247 . S
C148 O142 1.261 . S
C149 O144 1.259 1_565 S
C149 O146 1.235 . S
O150 Co140 2.021 . S
O150 C147 1.238 . S
O151 Co145 2.052 . S
O151 C147 1.241 . S
O152 Co140 2.137 . S
O152 C143 1.247 . S
O153 Co140 2.244 . S
O153 C143 1.272 . S
O153 Co145 2.135 . S
Co154 O155 2.216 . S
Co154 O156 2.091 . S
Co154 O158 2.004 . S
Co154 O164 2.021 . S
Co154 O166 2.137 . S
Co154 O167 2.244 . S
O155 Co154 2.216 . S
O155 C162 1.247 . S
O156 Co154 2.091 . S
O156 C162 1.261 . S
C157 O166 1.247 . S
C157 O167 1.272 . S
O158 Co154 2.004 . S
O158 C163 1.259 1_655 S
Co159 O160 2.061 1_655 S
Co159 O165 2.052 . S
Co159 O167 2.135 . S
O160 Co159 2.061 1_455 S
O160 C163 1.235 . S
C161 O164 1.238 . S
C161 O165 1.241 . S
C162 O155 1.247 . S
C162 O156 1.261 . S
C163 O158 1.259 1_455 S
C163 O160 1.235 . S
O164 Co154 2.021 . S
O164 C161 1.238 . S
O165 Co159 2.052 . S
O165 C161 1.241 . S
O166 Co154 2.137 . S
O166 C157 1.247 . S
O167 Co154 2.244 . S
O167 C157 1.272 . S
O167 Co159 2.135 . S
Co168 O169 2.216 . S
Co168 O170 2.091 . S
Co168 O172 2.004 . S
Co168 O178 2.021 . S
Co168 O180 2.137 . S
Co168 O181 2.244 . S
O169 Co168 2.216 . S
O169 C176 1.247 . S
O170 Co168 2.091 . S
O170 C176 1.261 . S
C171 O180 1.247 . S
C171 O181 1.272 . S
O172 Co168 2.004 . S
O172 C177 1.259 . S
Co173 O174 2.061 . S
Co173 O179 2.052 . S
Co173 O181 2.135 . S
O174 Co173 2.061 . S
O174 C177 1.235 . S
C175 O178 1.238 . S
C175 O179 1.241 . S
C176 O169 1.247 . S
C176 O170 1.261 . S
C177 O172 1.259 . S
C177 O174 1.235 . S
O178 Co168 2.021 . S
O178 C175 1.238 . S
O179 Co173 2.052 . S
O179 C175 1.241 . S
O180 Co168 2.137 . S
O180 C171 1.247 . S
O181 Co168 2.244 . S
O181 C171 1.272 . S
O181 Co173 2.135 . S
Co182 O183 2.216 . S
Co182 O184 2.091 . S
Co182 O186 2.004 . S
Co182 O192 2.021 . S
Co182 O194 2.137 . S
Co182 O195 2.244 . S
O183 Co182 2.216 . S
O183 C190 1.247 . S
O184 Co182 2.091 . S
O184 C190 1.261 . S
C185 O194 1.247 . S
C185 O195 1.272 . S
O186 Co182 2.004 . S
O186 C191 1.259 . S
Co187 O188 2.061 . S
Co187 O193 2.052 . S
Co187 O195 2.135 . S
O188 Co187 2.061 . S
O188 C191 1.235 . S
C189 O192 1.238 . S
C189 O193 1.241 . S
C190 O183 1.247 . S
C190 O184 1.261 . S
C191 O186 1.259 . S
C191 O188 1.235 . S
O192 Co182 2.021 . S
O192 C189 1.238 . S
O193 Co187 2.052 . S
O193 C189 1.241 . S
O194 Co182 2.137 . S
O194 C185 1.247 . S
O195 Co182 2.244 . S
O195 C185 1.272 . S
O195 Co187 2.135 . S
Co196 O197 2.216 . S
Co196 O198 2.091 . S
Co196 O200 2.004 . S
Co196 O206 2.021 . S
Co196 O208 2.137 . S
Co196 O209 2.244 . S
O197 Co196 2.216 . S
O197 C204 1.247 . S
O198 Co196 2.091 . S
O198 C204 1.261 . S
C199 O208 1.247 . S
C199 O209 1.272 . S
O200 Co196 2.004 . S
O200 C205 1.259 . S
Co201 O202 2.061 . S
Co201 O207 2.052 . S
Co201 O209 2.135 . S
O202 Co201 2.061 . S
O202 C205 1.235 . S
C203 O206 1.238 . S
C203 O207 1.241 . S
C204 O197 1.247 . S
C204 O198 1.261 . S
C205 O200 1.259 . S
C205 O202 1.235 . S
O206 Co196 2.021 . S
O206 C203 1.238 . S
O207 Co201 2.052 . S
O207 C203 1.241 . S
O208 Co196 2.137 . S
O208 C199 1.247 . S
O209 Co196 2.244 . S
O209 C199 1.272 . S
O209 Co201 2.135 . S
Co210 O211 2.216 . S
Co210 O212 2.091 . S
Co210 O214 2.004 . S
Co210 O220 2.021 . S
Co210 O222 2.137 . S
Co210 O223 2.244 . S
O211 Co210 2.216 . S
O211 C218 1.247 . S
O212 Co210 2.091 . S
O212 C218 1.261 . S
C213 O222 1.247 . S
C213 O223 1.272 . S
O214 Co210 2.004 . S
O214 C219 1.259 . S
Co215 O216 2.061 . S
Co215 O221 2.052 . S
Co215 O223 2.135 . S
O216 Co215 2.061 . S
O216 C219 1.235 . S
C217 O220 1.238 . S
C217 O221 1.241 . S
C218 O211 1.247 . S
C218 O212 1.261 . S
C219 O214 1.259 . S
C219 O216 1.235 . S
O220 Co210 2.021 . S
O220 C217 1.238 . S
O221 Co215 2.052 . S
O221 C217 1.241 . S
O222 Co210 2.137 . S
O222 C213 1.247 . S
O223 Co210 2.244 . S
O223 C213 1.272 . S
O223 Co215 2.135 . S
Co224 O225 2.216 . S
Co224 O226 2.091 . S
Co224 O228 2.004 . S
Co224 O234 2.021 . S
Co224 O236 2.137 . S
Co224 O237 2.244 . S
O225 Co224 2.216 . S
O225 C232 1.247 . S
O226 Co224 2.091 . S
O226 C232 1.261 . S
C227 O236 1.247 . S
C227 O237 1.272 . S
O228 Co224 2.004 . S
O228 C233 1.259 . S
Co229 O230 2.061 . S
Co229 O235 2.052 . S
Co229 O237 2.135 . S
O230 Co229 2.061 . S
O230 C233 1.235 . S
C231 O234 1.238 . S
C231 O235 1.241 . S
C232 O225 1.247 . S
C232 O226 1.261 . S
C233 O228 1.259 . S
C233 O230 1.235 . S
O234 Co224 2.021 . S
O234 C231 1.238 . S
O235 Co229 2.052 . S
O235 C231 1.241 . S
O236 Co224 2.137 . S
O236 C227 1.247 . S
O237 Co224 2.244 . S
O237 C227 1.272 . S
O237 Co229 2.135 . S
Co238 O239 2.216 . S
Co238 O240 2.091 . S
Co238 O242 2.004 . S
Co238 O248 2.021 . S
Co238 O250 2.137 . S
Co238 O251 2.244 . S
O239 Co238 2.216 . S
O239 C246 1.247 . S
O240 Co238 2.091 . S
O240 C246 1.261 . S
C241 O250 1.247 . S
C241 O251 1.272 . S
O242 Co238 2.004 . S
O242 C247 1.259 . S
Co243 O244 2.061 . S
Co243 O249 2.052 . S
Co243 O251 2.135 . S
O244 Co243 2.061 . S
O244 C247 1.235 . S
C245 O248 1.238 . S
C245 O249 1.241 . S
C246 O239 1.247 . S
C246 O240 1.261 . S
C247 O242 1.259 . S
C247 O244 1.235 . S
O248 Co238 2.021 . S
O248 C245 1.238 . S
O249 Co243 2.052 . S
O249 C245 1.241 . S
O250 Co238 2.137 . S
O250 C241 1.247 . S
O251 Co238 2.244 . S
O251 C241 1.272 . S
O251 Co243 2.135 . S
Co252 O253 2.216 . S
Co252 O254 2.091 . S
Co252 O256 2.004 . S
Co252 O262 2.021 . S
Co252 O264 2.137 . S
Co252 O265 2.244 . S
O253 Co252 2.216 . S
O253 C260 1.247 . S
O254 Co252 2.091 . S
O254 C260 1.261 . S
C255 O264 1.247 . S
C255 O265 1.272 . S
O256 Co252 2.004 . S
O256 C261 1.259 . S
Co257 O258 2.061 . S
Co257 O263 2.052 . S
Co257 O265 2.135 . S
O258 Co257 2.061 . S
O258 C261 1.235 . S
C259 O262 1.238 . S
C259 O263 1.241 . S
C260 O253 1.247 . S
C260 O254 1.261 . S
C261 O256 1.259 . S
C261 O258 1.235 . S
O262 Co252 2.021 . S
O262 C259 1.238 . S
O263 Co257 2.052 . S
O263 C259 1.241 . S
O264 Co252 2.137 . S
O264 C255 1.247 . S
O265 Co252 2.244 . S
O265 C255 1.272 . S
O265 Co257 2.135 . S
Co266 O267 2.216 . S
Co266 O268 2.091 . S
Co266 O270 2.004 . S
Co266 O276 2.021 . S
Co266 O278 2.137 . S
Co266 O279 2.244 . S
O267 Co266 2.216 . S
O267 C274 1.247 . S
O268 Co266 2.091 . S
O268 C274 1.261 . S
C269 O278 1.247 . S
C269 O279 1.272 . S
O270 Co266 2.004 . S
O270 C275 1.259 . S
Co271 O272 2.061 . S
Co271 O277 2.052 . S
Co271 O279 2.135 . S
O272 Co271 2.061 . S
O272 C275 1.235 . S
C273 O276 1.238 . S
C273 O277 1.241 . S
C274 O267 1.247 . S
C274 O268 1.261 . S
C275 O270 1.259 . S
C275 O272 1.235 . S
O276 Co266 2.021 . S
O276 C273 1.238 . S
O277 Co271 2.052 . S
O277 C273 1.241 . S
O278 Co266 2.137 . S
O278 C269 1.247 . S
O279 Co266 2.244 . S
O279 C269 1.272 . S
O279 Co271 2.135 . S
Co280 O281 2.216 . S
Co280 O282 2.091 . S
Co280 O284 2.004 . S
Co280 O290 2.021 . S
Co280 O292 2.137 . S
Co280 O293 2.244 . S
O281 Co280 2.216 . S
O281 C288 1.247 . S
O282 Co280 2.091 . S
O282 C288 1.261 . S
C283 O292 1.247 . S
C283 O293 1.272 . S
O284 Co280 2.004 . S
O284 C289 1.259 . S
Co285 O286 2.061 . S
Co285 O291 2.052 . S
Co285 O293 2.135 . S
O286 Co285 2.061 . S
O286 C289 1.235 . S
C287 O290 1.238 . S
C287 O291 1.241 . S
C288 O281 1.247 . S
C288 O282 1.261 . S
C289 O284 1.259 . S
C289 O286 1.235 . S
O290 Co280 2.021 . S
O290 C287 1.238 . S
O291 Co285 2.052 . S
O291 C287 1.241 . S
O292 Co280 2.137 . S
O292 C283 1.247 . S
O293 Co280 2.244 . S
O293 C283 1.272 . S
O293 Co285 2.135 . S
Co294 O295 2.216 . S
Co294 O296 2.091 . S
Co294 O298 2.004 . S
Co294 O304 2.021 1_556 S
Co294 O306 2.137 . S
Co294 O307 2.244 . S
O295 Co294 2.216 . S
O295 C302 1.247 . S
O296 Co294 2.091 . S
O296 C302 1.261 . S
C297 O306 1.247 . S
C297 O307 1.272 . S
O298 Co294 2.004 . S
O298 C303 1.259 . S
Co299 O300 2.061 . S
Co299 O305 2.052 1_556 S
Co299 O307 2.135 . S
O300 Co299 2.061 . S
O300 C303 1.235 . S
C301 O304 1.238 . S
C301 O305 1.241 . S
C302 O295 1.247 . S
C302 O296 1.261 . S
C303 O298 1.259 . S
C303 O300 1.235 . S
O304 Co294 2.021 1_554 S
O304 C301 1.238 . S
O305 Co299 2.052 1_554 S
O305 C301 1.241 . S
O306 Co294 2.137 . S
O306 C297 1.247 . S
O307 Co294 2.244 . S
O307 C297 1.272 . S
O307 Co299 2.135 . S
Co308 O309 2.216 . S
Co308 O310 2.091 . S
Co308 O312 2.004 . S
Co308 O318 2.021 1_556 S
Co308 O320 2.137 . S
Co308 O321 2.244 . S
O309 Co308 2.216 . S
O309 C316 1.247 . S
O310 Co308 2.091 . S
O310 C316 1.261 . S
C311 O320 1.247 . S
C311 O321 1.272 . S
O312 Co308 2.004 . S
O312 C317 1.259 . S
Co313 O314 2.061 . S
Co313 O319 2.052 1_556 S
Co313 O321 2.135 . S
O314 Co313 2.061 . S
O314 C317 1.235 . S
C315 O318 1.238 . S
C315 O319 1.241 . S
C316 O309 1.247 . S
C316 O310 1.261 . S
C317 O312 1.259 . S
C317 O314 1.235 . S
O318 Co308 2.021 1_554 S
O318 C315 1.238 . S
O319 Co313 2.052 1_554 S
O319 C315 1.241 . S
O320 Co308 2.137 . S
O320 C311 1.247 . S
O321 Co308 2.244 . S
O321 C311 1.272 . S
O321 Co313 2.135 . S
Co322 O323 2.216 . S
Co322 O324 2.091 . S
Co322 O326 2.004 . S
Co322 O332 2.021 1_556 S
Co322 O334 2.137 . S
Co322 O335 2.244 . S
O323 Co322 2.216 . S
O323 C330 1.247 . S
O324 Co322 2.091 . S
O324 C330 1.261 . S
C325 O334 1.247 . S
C325 O335 1.272 . S
O326 Co322 2.004 . S
O326 C331 1.259 . S
Co327 O328 2.061 . S
Co327 O333 2.052 1_556 S
Co327 O335 2.135 . S
O328 Co327 2.061 . S
O328 C331 1.235 . S
C329 O332 1.238 . S
C329 O333 1.241 . S
C330 O323 1.247 . S
C330 O324 1.261 . S
C331 O326 1.259 . S
C331 O328 1.235 . S
O332 Co322 2.021 1_554 S
O332 C329 1.238 . S
O333 Co327 2.052 1_554 S
O333 C329 1.241 . S
O334 Co322 2.137 . S
O334 C325 1.247 . S
O335 Co322 2.244 . S
O335 C325 1.272 . S
O335 Co327 2.135 . S
Co336 O337 2.216 . S
Co336 O338 2.091 . S
Co336 O340 2.004 . S
Co336 O346 2.021 . S
Co336 O348 2.137 . S
Co336 O349 2.244 . S
O337 Co336 2.216 . S
O337 C344 1.247 . S
O338 Co336 2.091 . S
O338 C344 1.261 . S
C339 O348 1.247 . S
C339 O349 1.272 . S
O340 Co336 2.004 . S
O340 C345 1.259 . S
Co341 O342 2.061 . S
Co341 O347 2.052 . S
Co341 O349 2.135 . S
O342 Co341 2.061 . S
O342 C345 1.235 . S
C343 O346 1.238 . S
C343 O347 1.241 . S
C344 O337 1.247 . S
C344 O338 1.261 . S
C345 O340 1.259 . S
C345 O342 1.235 . S
O346 Co336 2.021 . S
O346 C343 1.238 . S
O347 Co341 2.052 . S
O347 C343 1.241 . S
O348 Co336 2.137 . S
O348 C339 1.247 . S
O349 Co336 2.244 . S
O349 C339 1.272 . S
O349 Co341 2.135 . S
Co350 O351 2.216 . S
Co350 O352 2.091 . S
Co350 O354 2.004 . S
Co350 O360 2.021 . S
Co350 O362 2.137 . S
Co350 O363 2.244 . S
O351 Co350 2.216 . S
O351 C358 1.247 . S
O352 Co350 2.091 . S
O352 C358 1.261 . S
C353 O362 1.247 . S
C353 O363 1.272 . S
O354 Co350 2.004 . S
O354 C359 1.259 . S
Co355 O356 2.061 . S
Co355 O361 2.052 . S
Co355 O363 2.135 . S
O356 Co355 2.061 . S
O356 C359 1.235 . S
C357 O360 1.238 . S
C357 O361 1.241 . S
C358 O351 1.247 . S
C358 O352 1.261 . S
C359 O354 1.259 . S
C359 O356 1.235 . S
O360 Co350 2.021 . S
O360 C357 1.238 . S
O361 Co355 2.052 . S
O361 C357 1.241 . S
O362 Co350 2.137 . S
O362 C353 1.247 . S
O363 Co350 2.244 . S
O363 C353 1.272 . S
O363 Co355 2.135 . S
Co364 O365 2.216 . S
Co364 O366 2.091 . S
Co364 O368 2.004 . S
Co364 O374 2.021 . S
Co364 O376 2.137 . S
Co364 O377 2.244 . S
O365 Co364 2.216 . S
O365 C372 1.247 . S
O366 Co364 2.091 . S
O366 C372 1.261 . S
C367 O376 1.247 . S
C367 O377 1.272 . S
O368 Co364 2.004 . S
O368 C373 1.259 . S
Co369 O370 2.061 . S
Co369 O375 2.052 . S
Co369 O377 2.135 . S
O370 Co369 2.061 . S
O370 C373 1.235 . S
C371 O374 1.238 . S
C371 O375 1.241 . S
C372 O365 1.247 . S
C372 O366 1.261 . S
C373 O368 1.259 . S
C373 O370 1.235 . S
O374 Co364 2.021 . S
O374 C371 1.238 . S
O375 Co369 2.052 . S
O375 C371 1.241 . S
O376 Co364 2.137 . S
O376 C367 1.247 . S
O377 Co364 2.244 . S
O377 C367 1.272 . S
O377 Co369 2.135 . S
Co378 O379 2.216 . S
Co378 O380 2.091 . S
Co378 O382 2.004 . S
Co378 O388 2.021 1_554 S
Co378 O390 2.137 . S
Co378 O391 2.244 . S
O379 Co378 2.216 . S
O379 C386 1.247 . S
O380 Co378 2.091 . S
O380 C386 1.261 . S
C381 O390 1.247 . S
C381 O391 1.272 . S
O382 Co378 2.004 . S
O382 C387 1.259 . S
Co383 O384 2.061 . S
Co383 O389 2.052 1_554 S
Co383 O391 2.135 . S
O384 Co383 2.061 . S
O384 C387 1.235 . S
C385 O388 1.238 . S
C385 O389 1.241 . S
C386 O379 1.247 . S
C386 O380 1.261 . S
C387 O382 1.259 . S
C387 O384 1.235 . S
O388 Co378 2.021 1_556 S
O388 C385 1.238 . S
O389 Co383 2.052 1_556 S
O389 C385 1.241 . S
O390 Co378 2.137 . S
O390 C381 1.247 . S
O391 Co378 2.244 . S
O391 C381 1.272 . S
O391 Co383 2.135 . S
Co392 O393 2.216 . S
Co392 O394 2.091 . S
Co392 O396 2.004 . S
Co392 O402 2.021 1_554 S
Co392 O404 2.137 . S
Co392 O405 2.244 . S
O393 Co392 2.216 . S
O393 C400 1.247 . S
O394 Co392 2.091 . S
O394 C400 1.261 . S
C395 O404 1.247 . S
C395 O405 1.272 . S
O396 Co392 2.004 . S
O396 C401 1.259 . S
Co397 O398 2.061 . S
Co397 O403 2.052 1_554 S
Co397 O405 2.135 . S
O398 Co397 2.061 . S
O398 C401 1.235 . S
C399 O402 1.238 . S
C399 O403 1.241 . S
C400 O393 1.247 . S
C400 O394 1.261 . S
C401 O396 1.259 . S
C401 O398 1.235 . S
O402 Co392 2.021 1_556 S
O402 C399 1.238 . S
O403 Co397 2.052 1_556 S
O403 C399 1.241 . S
O404 Co392 2.137 . S
O404 C395 1.247 . S
O405 Co392 2.244 . S
O405 C395 1.272 . S
O405 Co397 2.135 . S
Co406 O407 2.216 . S
Co406 O408 2.091 . S
Co406 O410 2.004 . S
Co406 O416 2.021 1_554 S
Co406 O418 2.137 . S
Co406 O419 2.244 . S
O407 Co406 2.216 . S
O407 C414 1.247 . S
O408 Co406 2.091 . S
O408 C414 1.261 . S
C409 O418 1.247 . S
C409 O419 1.272 . S
O410 Co406 2.004 . S
O410 C415 1.259 . S
Co411 O412 2.061 . S
Co411 O417 2.052 1_554 S
Co411 O419 2.135 . S
O412 Co411 2.061 . S
O412 C415 1.235 . S
C413 O416 1.238 . S
C413 O417 1.241 . S
C414 O407 1.247 . S
C414 O408 1.261 . S
C415 O410 1.259 . S
C415 O412 1.235 . S
O416 Co406 2.021 1_556 S
O416 C413 1.238 . S
O417 Co411 2.052 1_556 S
O417 C413 1.241 . S
O418 Co406 2.137 . S
O418 C409 1.247 . S
O419 Co406 2.244 . S
O419 C409 1.272 . S
O419 Co411 2.135 . S
Co420 O421 2.216 . S
Co420 O422 2.091 . S
Co420 O424 2.004 . S
Co420 O430 2.021 . S
Co420 O432 2.137 . S
Co420 O433 2.244 . S
O421 Co420 2.216 . S
O421 C428 1.247 . S
O422 Co420 2.091 . S
O422 C428 1.261 . S
C423 O432 1.247 . S
C423 O433 1.272 . S
O424 Co420 2.004 . S
O424 C429 1.259 . S
Co425 O426 2.061 . S
Co425 O431 2.052 . S
Co425 O433 2.135 . S
O426 Co425 2.061 . S
O426 C429 1.235 . S
C427 O430 1.238 . S
C427 O431 1.241 . S
C428 O421 1.247 . S
C428 O422 1.261 . S
C429 O424 1.259 . S
C429 O426 1.235 . S
O430 Co420 2.021 . S
O430 C427 1.238 . S
O431 Co425 2.052 . S
O431 C427 1.241 . S
O432 Co420 2.137 . S
O432 C423 1.247 . S
O433 Co420 2.244 . S
O433 C423 1.272 . S
O433 Co425 2.135 . S
Co434 O435 2.216 . S
Co434 O436 2.091 . S
Co434 O438 2.004 . S
Co434 O444 2.021 . S
Co434 O446 2.137 . S
Co434 O447 2.244 . S
O435 Co434 2.216 . S
O435 C442 1.247 . S
O436 Co434 2.091 . S
O436 C442 1.261 . S
C437 O446 1.247 . S
C437 O447 1.272 . S
O438 Co434 2.004 . S
O438 C443 1.259 . S
Co439 O440 2.061 . S
Co439 O445 2.052 . S
Co439 O447 2.135 . S
O440 Co439 2.061 . S
O440 C443 1.235 . S
C441 O444 1.238 . S
C441 O445 1.241 . S
C442 O435 1.247 . S
C442 O436 1.261 . S
C443 O438 1.259 . S
C443 O440 1.235 . S
O444 Co434 2.021 . S
O444 C441 1.238 . S
O445 Co439 2.052 . S
O445 C441 1.241 . S
O446 Co434 2.137 . S
O446 C437 1.247 . S
O447 Co434 2.244 . S
O447 C437 1.272 . S
O447 Co439 2.135 . S
Co448 O449 2.216 . S
Co448 O450 2.091 . S
Co448 O452 2.004 . S
Co448 O458 2.021 . S
Co448 O460 2.137 . S
Co448 O461 2.244 . S
O449 Co448 2.216 . S
O449 C456 1.247 . S
O450 Co448 2.091 . S
O450 C456 1.261 . S
C451 O460 1.247 . S
C451 O461 1.272 . S
O452 Co448 2.004 . S
O452 C457 1.259 . S
Co453 O454 2.061 . S
Co453 O459 2.052 . S
Co453 O461 2.135 . S
O454 Co453 2.061 . S
O454 C457 1.235 . S
C455 O458 1.238 . S
C455 O459 1.241 . S
C456 O449 1.247 . S
C456 O450 1.261 . S
C457 O452 1.259 . S
C457 O454 1.235 . S
O458 Co448 2.021 . S
O458 C455 1.238 . S
O459 Co453 2.052 . S
O459 C455 1.241 . S
O460 Co448 2.137 . S
O460 C451 1.247 . S
O461 Co448 2.244 . S
O461 C451 1.272 . S
O461 Co453 2.135 . S
Co462 O463 2.216 . S
Co462 O464 2.091 . S
Co462 O466 2.004 . S
Co462 O472 2.021 . S
Co462 O474 2.137 . S
Co462 O475 2.244 . S
O463 Co462 2.216 . S
O463 C470 1.247 . S
O464 Co462 2.091 . S
O464 C470 1.261 . S
C465 O474 1.247 . S
C465 O475 1.272 . S
O466 Co462 2.004 . S
O466 C471 1.259 . S
Co467 O468 2.061 . S
Co467 O473 2.052 . S
Co467 O475 2.135 . S
O468 Co467 2.061 . S
O468 C471 1.235 . S
C469 O472 1.238 . S
C469 O473 1.241 . S
C470 O463 1.247 . S
C470 O464 1.261 . S
C471 O466 1.259 . S
C471 O468 1.235 . S
O472 Co462 2.021 . S
O472 C469 1.238 . S
O473 Co467 2.052 . S
O473 C469 1.241 . S
O474 Co462 2.137 . S
O474 C465 1.247 . S
O475 Co462 2.244 . S
O475 C465 1.272 . S
O475 Co467 2.135 . S
Co476 O477 2.216 . S
Co476 O478 2.091 . S
Co476 O480 2.004 . S
Co476 O486 2.021 . S
Co476 O488 2.137 . S
Co476 O489 2.244 . S
O477 Co476 2.216 . S
O477 C484 1.247 . S
O478 Co476 2.091 . S
O478 C484 1.261 . S
C479 O488 1.247 . S
C479 O489 1.272 . S
O480 Co476 2.004 . S
O480 C485 1.259 . S
Co481 O482 2.061 . S
Co481 O487 2.052 . S
Co481 O489 2.135 . S
O482 Co481 2.061 . S
O482 C485 1.235 . S
C483 O486 1.238 . S
C483 O487 1.241 . S
C484 O477 1.247 . S
C484 O478 1.261 . S
C485 O480 1.259 . S
C485 O482 1.235 . S
O486 Co476 2.021 . S
O486 C483 1.238 . S
O487 Co481 2.052 . S
O487 C483 1.241 . S
O488 Co476 2.137 . S
O488 C479 1.247 . S
O489 Co476 2.244 . S
O489 C479 1.272 . S
O489 Co481 2.135 . S
Co490 O491 2.216 . S
Co490 O492 2.091 . S
Co490 O494 2.004 . S
Co490 O500 2.021 . S
Co490 O502 2.137 . S
Co490 O503 2.244 . S
O491 Co490 2.216 . S
O491 C498 1.247 . S
O492 Co490 2.091 . S
O492 C498 1.261 . S
C493 O502 1.247 . S
C493 O503 1.272 . S
O494 Co490 2.004 . S
O494 C499 1.259 . S
Co495 O496 2.061 . S
Co495 O501 2.052 . S
Co495 O503 2.135 . S
O496 Co495 2.061 . S
O496 C499 1.235 . S
C497 O500 1.238 . S
C497 O501 1.241 . S
C498 O491 1.247 . S
C498 O492 1.261 . S
C499 O494 1.259 . S
C499 O496 1.235 . S
O500 Co490 2.021 . S
O500 C497 1.238 . S
O501 Co495 2.052 . S
O501 C497 1.241 . S
O502 Co490 2.137 . S
O502 C493 1.247 . S
O503 Co490 2.244 . S
O503 C493 1.272 . S
O503 Co495 2.135 . S
C3 C107 1.277 1_554 S
C17 C121 1.278 1_554 S
C93 C31 1.277 1_556 S
C163 C45 1.277 . S
C59 C135 1.277 . S
C73 C149 1.278 . S
C23 C87 1.277 1_554 S
C37 C101 1.278 1_554 S
C115 C9 1.277 1_556 S
C129 C79 1.277 . S
C51 C143 1.277 . S
C157 C65 1.278 . S
C275 C171 1.277 . S
C185 C289 1.278 . S
C199 C261 1.277 . S
C331 C213 1.277 . S
C227 C303 1.277 . S
C317 C241 1.278 . S
C191 C255 1.277 . S
C269 C205 1.278 . S
C177 C283 1.277 . S
C297 C247 1.277 . S
C311 C219 1.277 . S
C325 C233 1.278 . S
C443 C339 1.277 . S
C457 C353 1.278 . S
C429 C367 1.277 . S
C381 C499 1.277 . S
C395 C471 1.277 . S
C485 C409 1.278 . S
C423 C359 1.277 . S
C373 C437 1.278 . S
C345 C451 1.277 . S
C465 C415 1.277 . S
C479 C387 1.277 . S
C493 C401 1.278 . S
C49 C7 1.347 . S
C63 C21 1.347 1_565 S
C35 C77 1.347 1_655 S
C133 C91 1.347 . S
C147 C105 1.347 1_545 S
C161 C119 1.347 1_655 S
C217 C175 1.347 . S
C231 C189 1.347 . S
C203 C245 1.347 . S
C301 C259 1.347 . S
C315 C273 1.347 . S
C329 C287 1.347 . S
C385 C343 1.347 . S
C357 C399 1.347 . S
C413 C371 1.347 . S
C427 C469 1.347 . S
C441 C483 1.347 . S
C455 C497 1.347 . S
C8 C260 1.587 . S
C274 C22 1.587 . S
C288 C36 1.587 . S
C470 C50 1.587 . S
C484 C64 1.587 . S
C498 C78 1.588 . S
C92 C344 1.587 . S
C358 C106 1.587 . S
C372 C120 1.587 . S
C134 C218 1.587 . S
C148 C232 1.587 . S
C162 C246 1.588 . S
C428 C176 1.587 1_455 S
C442 C190 1.587 . S
C204 C456 1.587 1_545 S
C302 C386 1.587 1_546 S
C316 C400 1.587 1_656 S
C330 C414 1.587 1_556 S
